# Generated by pormake.
# Topology gar, (4,6)-cn, num edge types: 1
# Building blocks:
#     Node 0, Type 0, BuildingBlock: NAHDIM_clean_sbu_0, # of connection points: 4
#     Node 1, Type 0, BuildingBlock: NAHDIM_clean_sbu_0, # of connection points: 4
#     Node 2, Type 0, BuildingBlock: NAHDIM_clean_sbu_0, # of connection points: 4
#     Node 3, Type 0, BuildingBlock: NAHDIM_clean_sbu_0, # of connection points: 4
#     Node 4, Type 0, BuildingBlock: NAHDIM_clean_sbu_0, # of connection points: 4
#     Node 5, Type 0, BuildingBlock: NAHDIM_clean_sbu_0, # of connection points: 4
#     Node 6, Type 0, BuildingBlock: NAHDIM_clean_sbu_0, # of connection points: 4
#     Node 7, Type 0, BuildingBlock: NAHDIM_clean_sbu_0, # of connection points: 4
#     Node 8, Type 0, BuildingBlock: NAHDIM_clean_sbu_0, # of connection points: 4
#     Node 9, Type 0, BuildingBlock: NAHDIM_clean_sbu_0, # of connection points: 4
#     Node 10, Type 0, BuildingBlock: NAHDIM_clean_sbu_0, # of connection points: 4
#     Node 11, Type 0, BuildingBlock: NAHDIM_clean_sbu_0, # of connection points: 4
#     Node 12, Type 0, BuildingBlock: NAHDIM_clean_sbu_0, # of connection points: 4
#     Node 13, Type 0, BuildingBlock: NAHDIM_clean_sbu_0, # of connection points: 4
#     Node 14, Type 0, BuildingBlock: NAHDIM_clean_sbu_0, # of connection points: 4
#     Node 15, Type 0, BuildingBlock: NAHDIM_clean_sbu_0, # of connection points: 4
#     Node 16, Type 0, BuildingBlock: NAHDIM_clean_sbu_0, # of connection points: 4
#     Node 17, Type 0, BuildingBlock: NAHDIM_clean_sbu_0, # of connection points: 4
#     Node 18, Type 0, BuildingBlock: NAHDIM_clean_sbu_0, # of connection points: 4
#     Node 19, Type 0, BuildingBlock: NAHDIM_clean_sbu_0, # of connection points: 4
#     Node 20, Type 0, BuildingBlock: NAHDIM_clean_sbu_0, # of connection points: 4
#     Node 21, Type 0, BuildingBlock: NAHDIM_clean_sbu_0, # of connection points: 4
#     Node 22, Type 0, BuildingBlock: NAHDIM_clean_sbu_0, # of connection points: 4
#     Node 23, Type 0, BuildingBlock: NAHDIM_clean_sbu_0, # of connection points: 4
#     Node 24, Type 1, BuildingBlock: HISSIN_clean_sbu_0, # of connection points: 6
#     Node 25, Type 1, BuildingBlock: HISSIN_clean_sbu_0, # of connection points: 6
#     Node 26, Type 1, BuildingBlock: HISSIN_clean_sbu_0, # of connection points: 6
#     Node 27, Type 1, BuildingBlock: HISSIN_clean_sbu_0, # of connection points: 6
#     Node 28, Type 1, BuildingBlock: HISSIN_clean_sbu_0, # of connection points: 6
#     Node 29, Type 1, BuildingBlock: HISSIN_clean_sbu_0, # of connection points: 6
#     Node 30, Type 1, BuildingBlock: HISSIN_clean_sbu_0, # of connection points: 6
#     Node 31, Type 1, BuildingBlock: HISSIN_clean_sbu_0, # of connection points: 6
#     Node 32, Type 1, BuildingBlock: HISSIN_clean_sbu_0, # of connection points: 6
#     Node 33, Type 1, BuildingBlock: HISSIN_clean_sbu_0, # of connection points: 6
#     Node 34, Type 1, BuildingBlock: HISSIN_clean_sbu_0, # of connection points: 6
#     Node 35, Type 1, BuildingBlock: HISSIN_clean_sbu_0, # of connection points: 6
#     Node 36, Type 1, BuildingBlock: HISSIN_clean_sbu_0, # of connection points: 6
#     Node 37, Type 1, BuildingBlock: HISSIN_clean_sbu_0, # of connection points: 6
#     Node 38, Type 1, BuildingBlock: HISSIN_clean_sbu_0, # of connection points: 6
#     Node 39, Type 1, BuildingBlock: HISSIN_clean_sbu_0, # of connection points: 6
#     Edge 40, Type (0, 1), BuildingBlock: AJUNOK_clean_linker_0, # of connection points: 2
#     Edge 41, Type (0, 1), BuildingBlock: AJUNOK_clean_linker_0, # of connection points: 2
#     Edge 42, Type (0, 1), BuildingBlock: AJUNOK_clean_linker_0, # of connection points: 2
#     Edge 43, Type (0, 1), BuildingBlock: AJUNOK_clean_linker_0, # of connection points: 2
#     Edge 44, Type (0, 1), BuildingBlock: AJUNOK_clean_linker_0, # of connection points: 2
#     Edge 45, Type (0, 1), BuildingBlock: AJUNOK_clean_linker_0, # of connection points: 2
#     Edge 46, Type (0, 1), BuildingBlock: AJUNOK_clean_linker_0, # of connection points: 2
#     Edge 47, Type (0, 1), BuildingBlock: AJUNOK_clean_linker_0, # of connection points: 2
#     Edge 48, Type (0, 1), BuildingBlock: AJUNOK_clean_linker_0, # of connection points: 2
#     Edge 49, Type (0, 1), BuildingBlock: AJUNOK_clean_linker_0, # of connection points: 2
#     Edge 50, Type (0, 1), BuildingBlock: AJUNOK_clean_linker_0, # of connection points: 2
#     Edge 51, Type (0, 1), BuildingBlock: AJUNOK_clean_linker_0, # of connection points: 2
#     Edge 52, Type (0, 1), BuildingBlock: AJUNOK_clean_linker_0, # of connection points: 2
#     Edge 53, Type (0, 1), BuildingBlock: AJUNOK_clean_linker_0, # of connection points: 2
#     Edge 54, Type (0, 1), BuildingBlock: AJUNOK_clean_linker_0, # of connection points: 2
#     Edge 55, Type (0, 1), BuildingBlock: AJUNOK_clean_linker_0, # of connection points: 2
#     Edge 56, Type (0, 1), BuildingBlock: AJUNOK_clean_linker_0, # of connection points: 2
#     Edge 57, Type (0, 1), BuildingBlock: AJUNOK_clean_linker_0, # of connection points: 2
#     Edge 58, Type (0, 1), BuildingBlock: AJUNOK_clean_linker_0, # of connection points: 2
#     Edge 59, Type (0, 1), BuildingBlock: AJUNOK_clean_linker_0, # of connection points: 2
#     Edge 60, Type (0, 1), BuildingBlock: AJUNOK_clean_linker_0, # of connection points: 2
#     Edge 61, Type (0, 1), BuildingBlock: AJUNOK_clean_linker_0, # of connection points: 2
#     Edge 62, Type (0, 1), BuildingBlock: AJUNOK_clean_linker_0, # of connection points: 2
#     Edge 63, Type (0, 1), BuildingBlock: AJUNOK_clean_linker_0, # of connection points: 2
#     Edge 64, Type (0, 1), BuildingBlock: AJUNOK_clean_linker_0, # of connection points: 2
#     Edge 65, Type (0, 1), BuildingBlock: AJUNOK_clean_linker_0, # of connection points: 2
#     Edge 66, Type (0, 1), BuildingBlock: AJUNOK_clean_linker_0, # of connection points: 2
#     Edge 67, Type (0, 1), BuildingBlock: AJUNOK_clean_linker_0, # of connection points: 2
#     Edge 68, Type (0, 1), BuildingBlock: AJUNOK_clean_linker_0, # of connection points: 2
#     Edge 69, Type (0, 1), BuildingBlock: AJUNOK_clean_linker_0, # of connection points: 2
#     Edge 70, Type (0, 1), BuildingBlock: AJUNOK_clean_linker_0, # of connection points: 2
#     Edge 71, Type (0, 1), BuildingBlock: AJUNOK_clean_linker_0, # of connection points: 2
#     Edge 72, Type (0, 1), BuildingBlock: AJUNOK_clean_linker_0, # of connection points: 2
#     Edge 73, Type (0, 1), BuildingBlock: AJUNOK_clean_linker_0, # of connection points: 2
#     Edge 74, Type (0, 1), BuildingBlock: AJUNOK_clean_linker_0, # of connection points: 2
#     Edge 75, Type (0, 1), BuildingBlock: AJUNOK_clean_linker_0, # of connection points: 2
#     Edge 76, Type (0, 1), BuildingBlock: AJUNOK_clean_linker_0, # of connection points: 2
#     Edge 77, Type (0, 1), BuildingBlock: AJUNOK_clean_linker_0, # of connection points: 2
#     Edge 78, Type (0, 1), BuildingBlock: AJUNOK_clean_linker_0, # of connection points: 2
#     Edge 79, Type (0, 1), BuildingBlock: AJUNOK_clean_linker_0, # of connection points: 2
#     Edge 80, Type (0, 1), BuildingBlock: AJUNOK_clean_linker_0, # of connection points: 2
#     Edge 81, Type (0, 1), BuildingBlock: AJUNOK_clean_linker_0, # of connection points: 2
#     Edge 82, Type (0, 1), BuildingBlock: AJUNOK_clean_linker_0, # of connection points: 2
#     Edge 83, Type (0, 1), BuildingBlock: AJUNOK_clean_linker_0, # of connection points: 2
#     Edge 84, Type (0, 1), BuildingBlock: AJUNOK_clean_linker_0, # of connection points: 2
#     Edge 85, Type (0, 1), BuildingBlock: AJUNOK_clean_linker_0, # of connection points: 2
#     Edge 86, Type (0, 1), BuildingBlock: AJUNOK_clean_linker_0, # of connection points: 2
#     Edge 87, Type (0, 1), BuildingBlock: AJUNOK_clean_linker_0, # of connection points: 2
#     Edge 88, Type (0, 1), BuildingBlock: AJUNOK_clean_linker_0, # of connection points: 2
#     Edge 89, Type (0, 1), BuildingBlock: AJUNOK_clean_linker_0, # of connection points: 2
#     Edge 90, Type (0, 1), BuildingBlock: AJUNOK_clean_linker_0, # of connection points: 2
#     Edge 91, Type (0, 1), BuildingBlock: AJUNOK_clean_linker_0, # of connection points: 2
#     Edge 92, Type (0, 1), BuildingBlock: AJUNOK_clean_linker_0, # of connection points: 2
#     Edge 93, Type (0, 1), BuildingBlock: AJUNOK_clean_linker_0, # of connection points: 2
#     Edge 94, Type (0, 1), BuildingBlock: AJUNOK_clean_linker_0, # of connection points: 2
#     Edge 95, Type (0, 1), BuildingBlock: AJUNOK_clean_linker_0, # of connection points: 2
#     Edge 96, Type (0, 1), BuildingBlock: AJUNOK_clean_linker_0, # of connection points: 2
#     Edge 97, Type (0, 1), BuildingBlock: AJUNOK_clean_linker_0, # of connection points: 2
#     Edge 98, Type (0, 1), BuildingBlock: AJUNOK_clean_linker_0, # of connection points: 2
#     Edge 99, Type (0, 1), BuildingBlock: AJUNOK_clean_linker_0, # of connection points: 2
#     Edge 100, Type (0, 1), BuildingBlock: AJUNOK_clean_linker_0, # of connection points: 2
#     Edge 101, Type (0, 1), BuildingBlock: AJUNOK_clean_linker_0, # of connection points: 2
#     Edge 102, Type (0, 1), BuildingBlock: AJUNOK_clean_linker_0, # of connection points: 2
#     Edge 103, Type (0, 1), BuildingBlock: AJUNOK_clean_linker_0, # of connection points: 2
#     Edge 104, Type (0, 1), BuildingBlock: AJUNOK_clean_linker_0, # of connection points: 2
#     Edge 105, Type (0, 1), BuildingBlock: AJUNOK_clean_linker_0, # of connection points: 2
#     Edge 106, Type (0, 1), BuildingBlock: AJUNOK_clean_linker_0, # of connection points: 2
#     Edge 107, Type (0, 1), BuildingBlock: AJUNOK_clean_linker_0, # of connection points: 2
#     Edge 108, Type (0, 1), BuildingBlock: AJUNOK_clean_linker_0, # of connection points: 2
#     Edge 109, Type (0, 1), BuildingBlock: AJUNOK_clean_linker_0, # of connection points: 2
#     Edge 110, Type (0, 1), BuildingBlock: AJUNOK_clean_linker_0, # of connection points: 2
#     Edge 111, Type (0, 1), BuildingBlock: AJUNOK_clean_linker_0, # of connection points: 2
#     Edge 112, Type (0, 1), BuildingBlock: AJUNOK_clean_linker_0, # of connection points: 2
#     Edge 113, Type (0, 1), BuildingBlock: AJUNOK_clean_linker_0, # of connection points: 2
#     Edge 114, Type (0, 1), BuildingBlock: AJUNOK_clean_linker_0, # of connection points: 2
#     Edge 115, Type (0, 1), BuildingBlock: AJUNOK_clean_linker_0, # of connection points: 2
#     Edge 116, Type (0, 1), BuildingBlock: AJUNOK_clean_linker_0, # of connection points: 2
#     Edge 117, Type (0, 1), BuildingBlock: AJUNOK_clean_linker_0, # of connection points: 2
#     Edge 118, Type (0, 1), BuildingBlock: AJUNOK_clean_linker_0, # of connection points: 2
#     Edge 119, Type (0, 1), BuildingBlock: AJUNOK_clean_linker_0, # of connection points: 2
#     Edge 120, Type (0, 1), BuildingBlock: AJUNOK_clean_linker_0, # of connection points: 2
#     Edge 121, Type (0, 1), BuildingBlock: AJUNOK_clean_linker_0, # of connection points: 2
#     Edge 122, Type (0, 1), BuildingBlock: AJUNOK_clean_linker_0, # of connection points: 2
#     Edge 123, Type (0, 1), BuildingBlock: AJUNOK_clean_linker_0, # of connection points: 2
#     Edge 124, Type (0, 1), BuildingBlock: AJUNOK_clean_linker_0, # of connection points: 2
#     Edge 125, Type (0, 1), BuildingBlock: AJUNOK_clean_linker_0, # of connection points: 2
#     Edge 126, Type (0, 1), BuildingBlock: AJUNOK_clean_linker_0, # of connection points: 2
#     Edge 127, Type (0, 1), BuildingBlock: AJUNOK_clean_linker_0, # of connection points: 2
#     Edge 128, Type (0, 1), BuildingBlock: AJUNOK_clean_linker_0, # of connection points: 2
#     Edge 129, Type (0, 1), BuildingBlock: AJUNOK_clean_linker_0, # of connection points: 2
#     Edge 130, Type (0, 1), BuildingBlock: AJUNOK_clean_linker_0, # of connection points: 2
#     Edge 131, Type (0, 1), BuildingBlock: AJUNOK_clean_linker_0, # of connection points: 2
#     Edge 132, Type (0, 1), BuildingBlock: AJUNOK_clean_linker_0, # of connection points: 2
#     Edge 133, Type (0, 1), BuildingBlock: AJUNOK_clean_linker_0, # of connection points: 2
#     Edge 134, Type (0, 1), BuildingBlock: AJUNOK_clean_linker_0, # of connection points: 2
#     Edge 135, Type (0, 1), BuildingBlock: AJUNOK_clean_linker_0, # of connection points: 2
# Relax obj value: 0.253
# Max RMSD: 0.324
# Mean RMSD: 0.183
data_MOF--net-gar--node1-NAHDIM_clean_sbu_0--node2-HISSIN_clean_sbu_0--edge1-AJUNOK_clean_linker_0
_symmetry_space_group_name_H-M    P1
_symmetry_Int_Tables_number       1
_symmetry_cell_setting            triclinic
loop_
_symmetry_equiv_pos_as_xyz
'x, y, z'
_cell_length_a     46.843976
_cell_length_b     45.8843
_cell_length_c     43.287079
_cell_angle_alpha  102.74833
_cell_angle_beta   93.966647
_cell_angle_gamma 102.18508
loop_
_atom_site_label
_atom_site_type_symbol
_atom_site_fract_x
_atom_site_fract_y
_atom_site_fract_z
_atom_type_partial_charge
C0 C 0.19282 0.35374 0.37609 0.0
O1 O 0.18881 0.38156 0.3863 0.0
O2 O 0.14147 0.30554 0.4422 0.0
Zn3 Zn 0.14545 0.33503 0.41327 0.0
O4 O 0.14666 0.3782 0.43834 0.0
C5 C 0.08508 0.32567 0.39546 0.0
O6 O 0.08613 0.33277 0.4267 0.0
O7 O 0.17828 0.33169 0.38606 0.0
C8 C 0.13545 0.39597 0.425 0.0
O9 O 0.12757 0.38763 0.39402 0.0
C10 C 0.1348 0.31337 0.47037 0.0
O11 O 0.13286 0.34182 0.48148 0.0
O12 O 0.10852 0.32318 0.38322 0.0
C13 C 0.9599 0.74473 0.68104 0.0
O14 O 0.96179 0.7165 0.66848 0.0
O15 O 1.0164 0.72448 0.6299 0.0
Zn16 Zn 1.01545 0.76642 0.65529 0.0
O17 O 0.02226 0.79636 0.62673 0.0
C18 C 0.04728 0.75444 0.70551 0.0
O19 O 0.02487 0.73048 0.69782 0.0
O20 O 0.97872 0.76731 0.67644 0.0
C21 C 0.04587 0.81706 0.6301 0.0
O22 O 0.06607 0.8204 0.65404 0.0
C23 C 0.0404 0.72353 0.61812 0.0
O24 O 0.06005 0.74932 0.62084 0.0
O25 O 0.04831 0.77573 0.69085 0.0
C26 C 0.69436 0.85707 0.88398 0.0
O27 O 0.6945 0.88453 0.90116 0.0
O28 O 0.63529 0.80612 0.94118 0.0
Zn29 Zn 0.64247 0.83763 0.91484 0.0
O30 O 0.6455 0.88068 0.94143 0.0
C31 C 0.58409 0.83678 0.89973 0.0
O32 O 0.58671 0.84365 0.93107 0.0
O33 O 0.67528 0.83404 0.8872 0.0
C34 C 0.63829 0.89952 0.92644 0.0
O35 O 0.6345 0.8916 0.8951 0.0
C36 C 0.6365 0.81262 0.97144 0.0
O37 O 0.64534 0.84142 0.98752 0.0
O38 O 0.60548 0.82979 0.88567 0.0
C39 C 0.47188 0.25523 0.18714 0.0
O40 O 0.48689 0.23624 0.19502 0.0
O41 O 0.52392 0.2306 0.13008 0.0
Zn42 Zn 0.52295 0.27203 0.15654 0.0
O43 O 0.5386 0.30494 0.13324 0.0
C44 C 0.56951 0.30148 0.20994 0.0
O45 O 0.57167 0.32628 0.199 0.0
O46 O 0.48269 0.27268 0.16963 0.0
C47 C 0.53191 0.30171 0.10349 0.0
O48 O 0.51263 0.27695 0.08728 0.0
C49 C 0.54874 0.22808 0.12114 0.0
O50 O 0.57053 0.25264 0.12749 0.0
O51 O 0.55023 0.27736 0.19608 0.0
C52 C 0.06779 0.78971 0.13144 0.0
O53 O 0.06551 0.76957 0.10411 0.0
O54 O 0.12128 0.76313 0.09297 0.0
Zn55 Zn 0.12723 0.80653 0.11778 0.0
O56 O 0.13027 0.83394 0.08732 0.0
C57 C 0.16237 0.80842 0.1749 0.0
O58 O 0.13696 0.79395 0.18127 0.0
O59 O 0.09206 0.80924 0.1417 0.0
C60 C 0.13525 0.82509 0.05862 0.0
O61 O 0.14021 0.79767 0.04865 0.0
C62 C 0.14123 0.74894 0.08544 0.0
O63 O 0.16897 0.76294 0.09488 0.0
O64 O 0.16348 0.81692 0.1489 0.0
C65 C 0.58348 0.8331 0.42297 0.0
O66 O 0.58672 0.83625 0.45401 0.0
O67 O 0.52318 0.79067 0.45337 0.0
Zn68 Zn 0.52309 0.82541 0.43291 0.0
O69 O 0.5288 0.86408 0.46621 0.0
C70 C 0.4744 0.79384 0.38449 0.0
O71 O 0.48306 0.76899 0.38719 0.0
O72 O 0.5578 0.82859 0.40854 0.0
C73 C 0.50891 0.87373 0.4811 0.0
O74 O 0.48134 0.85842 0.47355 0.0
C75 C 0.52526 0.7939 0.48342 0.0
O76 O 0.523 0.81991 0.50195 0.0
O77 O 0.48744 0.81964 0.40259 0.0
C78 C 0.57267 0.30349 0.63591 0.0
O79 O 0.56815 0.28521 0.60714 0.0
O80 O 0.62199 0.26628 0.60079 0.0
Zn81 Zn 0.63144 0.31113 0.6208 0.0
O82 O 0.63346 0.3339 0.5862 0.0
C83 C 0.67006 0.31412 0.67507 0.0
O84 O 0.64514 0.30088 0.68358 0.0
O85 O 0.59866 0.31882 0.647 0.0
C86 C 0.63172 0.3206 0.5568 0.0
O87 O 0.62897 0.29076 0.54827 0.0
C88 C 0.64064 0.25004 0.59479 0.0
O89 O 0.66883 0.26261 0.60305 0.0
O90 O 0.66966 0.32199 0.64875 0.0
C91 C 0.08284 0.31154 0.92647 0.0
O92 O 0.08684 0.32898 0.95562 0.0
O93 O 0.01715 0.27897 0.96904 0.0
Zn94 Zn 0.02292 0.30571 0.93773 0.0
O95 O 0.03338 0.34989 0.96081 0.0
C96 C 0.97317 0.27654 0.88659 0.0
O97 O 0.97857 0.24976 0.88746 0.0
O98 O 0.0568 0.29799 0.91369 0.0
C99 C 1.01398 0.36516 0.96713 0.0
O100 O 0.98605 0.35133 0.95905 0.0
C101 C 0.02079 0.2906 0.99899 0.0
O102 O 0.02554 0.32053 1.00951 0.0
O103 O 0.9881 0.30069 0.90606 0.0
C104 C 0.3975 0.09397 0.31514 0.0
O105 O 0.42454 0.09976 0.30793 0.0
O106 O 0.43944 0.0408 0.29516 0.0
Zn107 Zn 0.41533 0.04314 0.33155 0.0
O108 O 0.4421 0.05428 0.37265 0.0
C109 C 0.3832 0.98615 0.34518 0.0
O110 O 0.39451 0.99797 0.3751 0.0
O111 O 0.38924 0.07191 0.32818 0.0
C112 C 0.46221 0.03967 0.37397 0.0
O113 O 0.46382 0.01795 0.3491 0.0
C114 C 0.46547 0.05663 0.29686 0.0
O115 O 0.47773 0.07639 0.32372 0.0
O116 O 0.38946 1.00141 0.32448 0.0
C117 C 0.35303 0.20136 0.52616 0.0
O118 O 0.3595 0.23121 0.53804 0.0
O119 O 0.30643 0.24567 0.5543 0.0
Zn120 Zn 0.2977 0.21526 0.50883 0.0
O121 O 0.3031 0.2354 0.46883 0.0
C122 C 0.24868 0.1587 0.50161 0.0
O123 O 0.27009 0.1442 0.49877 0.0
O124 O 0.32758 0.18861 0.51087 0.0
C125 C 0.32769 0.24661 0.45966 0.0
O126 O 0.35209 0.24709 0.4768 0.0
C127 C 0.28897 0.24385 0.57565 0.0
O128 O 0.26287 0.22505 0.56748 0.0
O129 O 0.25504 0.18784 0.50491 0.0
C130 C 0.22893 0.96082 0.77733 0.0
O131 O 0.20085 0.94965 0.77818 0.0
O132 O 0.18261 0.03058 0.73198 0.0
Zn133 Zn 0.20904 0.03396 0.78181 0.0
O134 O 0.17913 0.03398 0.82514 0.0
C135 C 0.23213 0.10824 0.78073 0.0
O136 O 0.20534 0.10329 0.7664 0.0
O137 O 0.23617 0.99093 0.77833 0.0
C138 C 0.17831 0.05498 0.85121 0.0
O139 O 0.1968 0.08168 0.85477 0.0
C140 C 0.16126 0.04328 0.72466 0.0
O141 O 0.15029 0.05782 0.74894 0.0
O142 O 0.23919 0.08454 0.78926 0.0
C143 C 0.25219 0.99589 0.01247 0.0
O144 O 0.24917 0.96685 0.01282 0.0
O145 O 0.31923 0.96659 0.03698 0.0
Zn146 Zn 0.31846 0.98877 1.00129 0.0
O147 O 0.31378 0.95341 0.95841 0.0
C148 C 0.38677 1.00726 0.02164 0.0
O149 O 0.3787 0.98593 0.03717 0.0
O150 O 0.27814 1.01026 1.00764 0.0
C151 C 0.334 0.93827 0.95443 0.0
O152 O 0.35584 0.94496 0.97737 0.0
C153 C 0.30715 0.9384 0.034 0.0
O154 O 0.29114 0.92274 1.00699 0.0
O155 O 0.36585 0.01465 1.00581 0.0
C156 C 0.30068 0.41591 0.03938 0.0
O157 O 0.29327 0.38594 0.02831 0.0
O158 O 0.35582 0.38646 0.09718 0.0
Zn159 Zn 0.35813 0.40385 0.05538 0.0
O160 O 0.35077 0.3719 0.01064 0.0
C161 C 0.4229 0.42909 0.06192 0.0
O162 O 0.42373 0.40131 0.06461 0.0
O163 O 0.32672 0.42839 0.05308 0.0
C164 C 0.36614 0.3768 0.98812 0.0
O165 O 0.38858 0.40068 0.99439 0.0
C166 C 0.33552 0.36469 0.10146 0.0
O167 O 0.31455 0.35082 0.07784 0.0
O168 O 0.39781 0.43542 0.0586 0.0
C169 C 0.91089 0.11709 0.04229 0.0
O170 O 0.9136 0.14606 0.04174 0.0
O171 O 0.84873 0.15657 0.09695 0.0
Zn172 Zn 0.8454 0.12383 0.0528 0.0
O173 O 0.84629 0.14842 0.01927 0.0
C174 C 0.778 0.11031 0.05646 0.0
O175 O 0.78624 0.13766 0.07601 0.0
O176 O 0.88508 0.10238 0.04684 0.0
C177 C 0.83021 0.13748 0.99259 0.0
O178 O 0.81468 0.10899 0.98606 0.0
C179 C 0.846 0.18421 0.09892 0.0
O180 O 0.84389 0.19355 0.07246 0.0
O181 O 0.7985 0.09786 0.04446 0.0
C182 C 0.26101 0.50015 0.23873 0.0
O183 O 0.2352 0.49524 0.2492 0.0
O184 O 0.21065 0.53505 0.1791 0.0
Zn185 Zn 0.2386 0.54644 0.21917 0.0
O186 O 0.21526 0.5483 0.25623 0.0
C187 C 0.27265 0.60189 0.2035 0.0
O188 O 0.26867 0.58638 0.17355 0.0
O189 O 0.26656 0.51959 0.2219 0.0
C190 C 0.20261 0.57025 0.26414 0.0
O191 O 0.2058 0.59182 0.24826 0.0
C192 C 0.18328 0.52451 0.1793 0.0
O193 O 0.174 0.51652 0.20483 0.0
O194 O 0.26228 0.58885 0.22461 0.0
C195 C 0.79893 0.91474 0.54012 0.0
O196 O 0.79388 0.88575 0.5247 0.0
O197 O 0.85595 0.88584 0.59787 0.0
Zn198 Zn 0.85671 0.9039 0.55647 0.0
O199 O 0.84854 0.87257 0.51138 0.0
C200 C 0.92155 0.93376 0.56791 0.0
O201 O 0.92366 0.90968 0.57885 0.0
O202 O 0.82398 0.92741 0.55636 0.0
C203 C 0.86674 0.87235 0.49061 0.0
O204 O 0.89343 0.88982 0.49912 0.0
C205 C 0.83309 0.86989 0.60613 0.0
O206 O 0.80846 0.86212 0.58669 0.0
O207 O 0.89599 0.93605 0.558 0.0
C208 C 0.9282 0.14595 0.28564 0.0
O209 O 0.95603 0.15877 0.29594 0.0
O210 O 0.97516 0.06592 0.22861 0.0
Zn211 Zn 0.94935 0.07227 0.27595 0.0
O212 O 0.98065 0.07735 0.32356 0.0
C213 C 0.92792 0.99736 0.2728 0.0
O214 O 0.95641 1.00007 0.27302 0.0
O215 O 0.92171 0.11511 0.27797 0.0
C216 C 0.9784 0.06012 0.34439 0.0
O217 O 0.95508 0.03728 0.33928 0.0
C218 C 0.99668 0.08273 0.21736 0.0
O219 O 1.0082 0.11036 0.23541 0.0
O220 O 0.91903 0.0228 0.27321 0.0
C221 C 0.41208 0.61555 0.54279 0.0
O222 O 0.41327 0.64324 0.53857 0.0
O223 O 0.34979 0.65532 0.59777 0.0
Zn224 Zn 0.34664 0.62203 0.55413 0.0
O225 O 0.34714 0.64621 0.52017 0.0
C226 C 0.27862 0.60929 0.54337 0.0
O227 O 0.28591 0.63811 0.54176 0.0
O228 O 0.38692 0.60111 0.54926 0.0
C229 C 0.33327 0.63509 0.49231 0.0
O230 O 0.31985 0.60583 0.48406 0.0
C231 C 0.34527 0.68224 0.59912 0.0
O232 O 0.34103 0.69041 0.57226 0.0
O233 O 0.29987 0.59589 0.54793 0.0
C234 C 0.42803 0.64491 0.77939 0.0
O235 O 0.455 0.65544 0.77378 0.0
O236 O 0.47542 0.56757 0.73095 0.0
Zn237 Zn 0.44987 0.5726 0.77834 0.0
O238 O 0.47902 0.57749 0.82737 0.0
C239 C 0.4264 0.49668 0.7694 0.0
O240 O 0.45314 0.49742 0.7618 0.0
O241 O 0.42219 0.6156 0.78182 0.0
C242 C 0.49281 0.55817 0.83682 0.0
O243 O 0.49286 0.53312 0.81523 0.0
C244 C 0.50297 0.57306 0.72445 0.0
O245 O 0.5232 0.58403 0.74926 0.0
O246 O 0.41922 0.5234 0.77566 0.0
C247 C 0.7658 1.0051 0.73614 0.0
O248 O 0.73886 0.99978 0.74379 0.0
O249 O 0.71411 0.04629 0.69218 0.0
Zn250 Zn 0.74893 0.05752 0.72579 0.0
O251 O 0.73191 0.06082 0.76723 0.0
C252 C 0.77267 0.1088 0.69997 0.0
O253 O 0.75593 0.0923 0.67375 0.0
O254 O 0.77438 0.02765 0.72389 0.0
C255 C 0.73372 0.08535 0.78842 0.0
O256 O 0.74914 0.11147 0.78454 0.0
C257 C 0.69751 0.06513 0.69729 0.0
O258 O 0.70482 0.0883 0.72253 0.0
O259 O 0.77364 0.09819 0.72462 0.0
C260 C 0.85984 0.70042 0.02609 0.0
O261 O 0.86576 0.72988 0.03997 0.0
O262 O 0.80877 0.74131 0.05508 0.0
Zn263 Zn 0.80203 0.71109 1.00954 0.0
O264 O 0.8041 0.73122 0.96965 0.0
C265 C 0.73706 0.68245 1.00437 0.0
O266 O 0.73399 0.71052 1.00586 0.0
O267 O 0.83453 0.6878 1.01052 0.0
C268 C 0.82767 0.7429 0.95899 0.0
O269 O 0.85311 0.74439 0.9748 0.0
C270 C 0.79443 0.7344 0.07762 0.0
O271 O 0.77324 0.70935 0.07104 0.0
O272 O 0.76297 0.67773 1.00485 0.0
C273 C 0.88905 0.59238 0.80594 0.0
O274 O 0.91348 0.59548 0.79261 0.0
O275 O 0.93786 0.54549 0.79272 0.0
Zn276 Zn 0.91259 0.54707 0.82842 0.0
O277 O 0.94 0.55931 0.86922 0.0
C278 C 0.88273 0.49012 0.84422 0.0
O279 O 0.89358 0.50336 0.87403 0.0
O280 O 0.88478 0.57439 0.82451 0.0
C281 C 0.95865 0.54279 0.86935 0.0
O282 O 0.95674 0.51944 0.84482 0.0
C283 C 0.96297 0.56379 0.7961 0.0
O284 O 0.97173 0.58514 0.82275 0.0
O285 O 0.8883 0.50455 0.82266 0.0
C286 C 0.75221 0.49156 0.5144 0.0
O287 O 0.74841 0.46173 0.51057 0.0
O288 O 0.8195 0.46207 0.53989 0.0
Zn289 Zn 0.81886 0.4853 0.50519 0.0
O290 O 0.81364 0.4508 0.4617 0.0
C291 C 0.88722 0.50309 0.52574 0.0
O292 O 0.87896 0.4814 0.54079 0.0
O293 O 0.77877 0.50676 0.51259 0.0
C294 C 0.83375 0.43563 0.45701 0.0
O295 O 0.85586 0.44191 0.47958 0.0
C296 C 0.8073 0.4338 0.53616 0.0
O297 O 0.79121 0.41879 0.50902 0.0
O298 O 0.86642 0.51092 0.51018 0.0
C299 C 0.72891 0.46175 0.28045 0.0
O300 O 0.70075 0.44998 0.2801 0.0
O301 O 0.68097 0.52965 0.23499 0.0
Zn302 Zn 0.70852 0.53477 0.28466 0.0
O303 O 0.67816 0.53565 0.32789 0.0
C304 C 0.73177 0.61182 0.29465 0.0
O305 O 0.70503 0.61193 0.30191 0.0
O306 O 0.73586 0.49193 0.28173 0.0
C307 C 0.68087 0.55334 0.35703 0.0
O308 O 0.70497 0.57534 0.36537 0.0
C309 C 0.66772 0.54918 0.22525 0.0
O310 O 0.66795 0.57448 0.24661 0.0
O311 O 0.73859 0.58484 0.28892 0.0
Eu312 Eu 0.09755 0.09154 0.04119 0.0
Eu313 Eu 0.06539 0.0222 0.01775 0.0
C314 C 0.10641 0.05433 0.96704 0.0
C315 C 0.10608 0.17579 0.07164 0.0
C316 C 0.07677 0.16937 0.07824 0.0
C317 C 0.10169 0.22604 0.06615 0.0
C318 C 0.0595 0.19053 0.07684 0.0
C319 C 0.1189 0.20486 0.06743 0.0
C320 C 0.07141 0.21821 0.06876 0.0
C321 C 0.11997 0.15035 0.06019 0.0
O322 O 0.11398 0.01917 0.02843 0.0
O323 O 0.13798 0.06973 0.04139 0.0
C324 C 0.13906 0.04043 0.03397 0.0
O325 O 0.07641 0.08309 0.08725 0.0
O326 O 0.04015 0.98362 0.97995 0.0
O327 O 0.05262 0.97692 0.02678 0.0
O328 O 0.04956 0.03389 0.06886 0.0
C329 C 0.05629 0.05969 0.09199 0.0
O330 O 0.04914 0.09459 0.03048 0.0
O331 O 0.02524 0.04404 0.0163 0.0
O332 O 0.08755 0.03013 0.97194 0.0
O333 O 0.12156 0.13142 0.07851 0.0
O334 O 0.11056 0.13605 0.03052 0.0
O335 O 0.11188 0.08025 0.9898 0.0
C336 C 0.05615 0.93887 0.98328 0.0
C337 C 0.08583 0.9462 0.97812 0.0
C338 C 0.0598 0.88713 0.98335 0.0
C339 C 0.10297 0.9248 0.97829 0.0
C340 C 0.04276 0.90873 0.98379 0.0
C341 C 0.09037 0.89581 0.983 0.0
C342 C 0.04239 0.96375 0.99697 0.0
C343 C 0.02415 0.07327 0.02397 0.0
H344 H 0.06646 0.14692 0.08138 0.0
H345 H 0.11139 0.24722 0.05982 0.0
H346 H 0.0363 0.18417 0.07935 0.0
H347 H 0.14137 0.21003 0.06195 0.0
H348 H 0.0965 0.96944 0.97765 0.0
H349 H 0.04974 0.86495 0.98737 0.0
H350 H 0.12654 0.93193 0.97817 0.0
H351 H 0.01995 0.90282 0.988 0.0
Eu352 Eu 0.33661 0.80221 0.23946 0.0
Eu353 Eu 0.30602 0.78845 0.30383 0.0
C354 C 0.26876 0.80314 0.24684 0.0
C355 C 0.35175 0.83572 0.16817 0.0
C356 C 0.34167 0.86233 0.17997 0.0
C357 C 0.34666 0.84439 0.1149 0.0
C358 C 0.3343 0.87993 0.15939 0.0
C359 C 0.3542 0.82692 0.13552 0.0
C360 C 0.33667 0.87109 0.12662 0.0
C361 C 0.35843 0.81626 0.18932 0.0
O362 O 0.29387 0.74477 0.26553 0.0
O363 O 0.33214 0.75169 0.23532 0.0
C364 C 0.31039 0.73389 0.24469 0.0
O365 O 0.37313 0.80677 0.27806 0.0
O366 O 0.27221 0.76405 0.32735 0.0
O367 O 0.30955 0.79773 0.35575 0.0
O368 O 0.34817 0.77267 0.30367 0.0
C369 C 0.37286 0.78895 0.29798 0.0
O370 O 0.32674 0.84609 0.26586 0.0
O371 O 0.33115 0.8378 0.31587 0.0
O372 O 0.27278 0.8065 0.27792 0.0
O373 O 0.36971 0.83038 0.21859 0.0
O374 O 0.33813 0.79153 0.18793 0.0
O375 O 0.28789 0.7948 0.228 0.0
C376 C 0.29225 0.75385 0.37445 0.0
C377 C 0.30307 0.72828 0.36067 0.0
C378 C 0.29597 0.74034 0.42551 0.0
C379 C 0.31016 0.70878 0.37917 0.0
C380 C 0.28862 0.75967 0.40693 0.0
C381 C 0.30705 0.71487 0.41186 0.0
C382 C 0.28684 0.77573 0.35574 0.0
C383 C 0.33172 0.85651 0.29691 0.0
H384 H 0.33914 0.8693 0.20502 0.0
H385 H 0.34876 0.83711 0.08976 0.0
H386 H 0.32614 0.90006 0.16898 0.0
H387 H 0.36172 0.80636 0.12593 0.0
H388 H 0.30651 0.72373 0.33574 0.0
H389 H 0.29301 0.74529 0.45058 0.0
H390 H 0.31874 0.68936 0.36813 0.0
H391 H 0.28053 0.77942 0.41802 0.0
Eu392 Eu 0.60154 0.04994 0.5242 0.0
Eu393 Eu 0.5464 0.06908 0.56409 0.0
C394 C 0.60383 0.05639 0.59869 0.0
C395 C 0.66826 0.01656 0.50589 0.0
C396 C 0.67402 1.01262 0.53684 0.0
C397 C 0.70404 0.98698 0.48816 0.0
C398 C 0.6949 0.99629 0.54346 0.0
C399 C 0.68329 1.00344 0.4816 0.0
C400 C 0.71033 0.98349 0.51923 0.0
C401 C 0.64716 0.03476 0.49885 0.0
O402 O 0.56798 0.10829 0.54445 0.0
O403 O 0.61414 0.10027 0.54856 0.0
C404 C 0.5965 0.11886 0.5482 0.0
O405 O 0.57173 0.06166 0.48786 0.0
O406 O 0.53039 0.10332 0.59757 0.0
O407 O 0.50043 0.06024 0.57326 0.0
O408 O 0.52939 0.05365 0.51216 0.0
C409 C 0.54301 0.05781 0.48744 0.0
O410 O 0.56688 1.00692 0.51967 0.0
O411 O 0.5419 0.01922 0.56317 0.0
O412 O 0.58538 0.07457 0.60061 0.0
O413 O 0.62009 0.01973 0.48851 0.0
O414 O 0.64848 0.06031 0.51991 0.0
O415 O 0.60642 0.03847 0.57149 0.0
C416 C 0.48136 0.10462 0.58061 0.0
C417 C 0.48966 0.1285 0.56517 0.0
C418 C 0.43082 0.11019 0.5749 0.0
C419 C 0.46878 0.14323 0.55493 0.0
C420 C 0.45176 0.0956 0.58533 0.0
C421 C 0.43907 0.13412 0.55949 0.0
C422 C 0.50295 0.08804 0.59046 0.0
C423 C 0.5491 0.9992 0.54019 0.0
H424 H 0.6625 0.02234 0.55593 0.0
H425 H 0.71555 0.97737 0.46901 0.0
H426 H 0.6988 0.99347 0.56747 0.0
H427 H 0.67915 1.00615 0.45758 0.0
H428 H 0.51226 0.13564 0.5608 0.0
H429 H 0.40823 0.10306 0.57932 0.0
H430 H 0.4758 0.16151 0.54306 0.0
H431 H 0.44482 0.07716 0.59703 0.0
Eu432 Eu 0.29815 0.31447 0.78477 0.0
Eu433 Eu 0.35985 0.29479 0.78067 0.0
C434 C 0.29972 0.24116 0.78627 0.0
C435 C 0.22404 0.32584 0.80962 0.0
C436 C 0.21608 0.29839 0.81957 0.0
C437 C 0.18709 0.34553 0.83892 0.0
C438 C 0.19348 0.29442 0.8388 0.0
C439 C 0.20945 0.34936 0.81944 0.0
C440 C 0.17885 0.31801 0.84864 0.0
C441 C 0.2482 0.33084 0.79009 0.0
O442 O 0.34413 0.28855 0.72839 0.0
O443 O 0.29936 0.301 0.73132 0.0
C444 C 0.31947 0.29163 0.71453 0.0
O445 O 0.33038 0.36099 0.78322 0.0
O446 O 0.38557 0.26198 0.76116 0.0
O447 O 0.40657 0.30313 0.79722 0.0
O448 O 0.37244 0.34469 0.77325 0.0
C449 C 0.35822 0.36727 0.77717 0.0
O450 O 0.312 0.31623 0.83642 0.0
O451 O 0.3602 0.31468 0.83378 0.0
O452 O 0.32867 0.24896 0.78551 0.0
O453 O 0.27325 0.3476 0.80544 0.0
O454 O 0.25137 0.30697 0.76902 0.0
O455 O 0.28443 0.26256 0.78598 0.0
C456 C 0.43459 0.28482 0.75701 0.0
C457 C 0.44323 0.31303 0.74868 0.0
C458 C 0.47073 0.26542 0.72594 0.0
C459 C 0.46559 0.31745 0.72925 0.0
C460 C 0.4485 0.26108 0.74553 0.0
C461 C 0.47951 0.29366 0.7177 0.0
C462 C 0.41038 0.27937 0.77648 0.0
C463 C 0.33849 0.31924 0.85056 0.0
H464 H 0.22745 0.28017 0.81266 0.0
H465 H 0.17605 0.36399 0.84621 0.0
H466 H 0.18772 0.27317 0.84637 0.0
H467 H 0.21548 0.37076 0.81219 0.0
H468 H 0.43253 0.33152 0.75699 0.0
H469 H 0.48118 0.24675 0.71732 0.0
H470 H 0.47167 0.33926 0.72282 0.0
H471 H 0.442 0.2391 0.75152 0.0
Eu472 Eu 0.06973 0.08408 0.54675 0.0
Eu473 Eu 0.08686 0.02177 0.51367 0.0
C474 C 0.13173 0.08626 0.51399 0.0
C475 C 0.06834 0.16617 0.55992 0.0
C476 C 0.06063 0.16503 0.52762 0.0
C477 C 0.09778 0.21815 0.56673 0.0
C478 C 0.07159 0.19003 0.51498 0.0
C479 C 0.08668 0.19311 0.57946 0.0
C480 C 0.09062 0.21668 0.53424 0.0
C481 C 0.06111 0.13807 0.57191 0.0
O482 O 0.11018 0.03037 0.56546 0.0
O483 O 0.08927 0.06852 0.59031 0.0
C484 C 0.10616 0.04875 0.59232 0.0
O485 O 0.02828 0.04791 0.54701 0.0
O486 O 0.11439 0.98829 0.50616 0.0
O487 O 0.07063 0.97685 0.48071 0.0
O488 O 0.05049 1.00791 0.54286 0.0
C489 C 0.02769 0.01959 0.5487 0.0
O490 O 0.05381 0.08103 0.49368 0.0
O491 O 0.0604 0.03333 0.47119 0.0
O492 O 0.12602 0.05609 0.50485 0.0
O493 O 0.04033 0.11548 0.55486 0.0
O494 O 0.08379 0.12853 0.58119 0.0
O495 O 0.11342 0.10042 0.52937 0.0
C496 C 0.08461 0.93917 0.50421 0.0
C497 C 0.05542 0.92836 0.50977 0.0
C498 C 0.09997 0.90431 0.53346 0.0
C499 C 0.04872 0.90626 0.5274 0.0
C500 C 0.10669 0.92637 0.51563 0.0
C501 C 0.07098 0.89443 0.54004 0.0
C502 C 0.09249 0.96623 0.49036 0.0
C503 C 0.05049 0.05796 0.46812 0.0
H504 H 0.04692 0.14445 0.51175 0.0
H505 H 0.11282 0.23819 0.58202 0.0
H506 H 0.06555 0.18833 0.48992 0.0
H507 H 0.09339 0.19431 0.60426 0.0
H508 H 0.0378 0.93786 0.50171 0.0
H509 H 0.11757 0.89544 0.5427 0.0
H510 H 0.02627 0.89955 0.53239 0.0
H511 H 0.12935 0.93433 0.51185 0.0
Eu512 Eu 0.35727 0.82281 0.77332 0.0
Eu513 Eu 0.29776 0.78161 0.78212 0.0
C514 C 0.33243 0.83753 0.84109 0.0
C515 C 0.4368 0.86137 0.78871 0.0
C516 C 0.4366 0.86165 0.82117 0.0
C517 C 0.48881 0.86215 0.79352 0.0
C518 C 0.46215 0.86169 0.83956 0.0
C519 C 0.46314 0.8622 0.77508 0.0
C520 C 0.48833 0.86134 0.82575 0.0
C521 C 0.40889 0.85556 0.76844 0.0
O522 O 0.2825 0.82563 0.77144 0.0
O523 O 0.32663 0.85777 0.77119 0.0
C524 C 0.29756 0.85402 0.77125 0.0
O525 O 0.33809 0.79747 0.72239 0.0
O526 O 0.26566 0.7589 0.80901 0.0
O527 O 0.2561 0.75325 0.75771 0.0
O528 O 0.31233 0.75647 0.73706 0.0
C529 C 0.32636 0.76785 0.71578 0.0
O530 O 0.37209 0.77727 0.7795 0.0
O531 O 0.32999 0.74955 0.79205 0.0
O532 O 0.30702 0.81971 0.82738 0.0
O533 O 0.3988 0.82715 0.75276 0.0
O534 O 0.38843 0.86726 0.78165 0.0
O535 O 0.35628 0.83548 0.82716 0.0
C536 C 0.21646 0.75458 0.78722 0.0
C537 C 0.20947 0.77974 0.77756 0.0
C538 C 0.16474 0.73443 0.78986 0.0
C539 C 0.18021 0.7811 0.77194 0.0
C540 C 0.19411 0.73269 0.79477 0.0
C541 C 0.15742 0.75757 0.7764 0.0
C542 C 0.24578 0.74854 0.78394 0.0
C543 C 0.35803 0.75108 0.78619 0.0
H544 H 0.41638 0.86033 0.83199 0.0
H545 H 0.50881 0.8618 0.78242 0.0
H546 H 0.46101 0.86034 0.86413 0.0
H547 H 0.46353 0.86153 0.74994 0.0
H548 H 0.22644 0.79703 0.77183 0.0
H549 H 0.14773 0.71665 0.79479 0.0
H550 H 0.17549 0.79934 0.76172 0.0
H551 H 0.19917 0.71329 0.80258 0.0
Eu552 Eu 0.5844 0.04511 0.06101 0.0
Eu553 Eu 0.58145 0.06778 0.99598 0.0
C554 C 0.57399 0.11138 0.06151 0.0
C555 C 0.56776 0.0305 0.14022 0.0
C556 C 0.54409 0.04456 0.13833 0.0
C557 C 0.5571 0.02345 0.19232 0.0
C558 C 0.52693 0.04799 0.16328 0.0
C559 C 0.57422 0.0199 0.16721 0.0
C560 C 0.53332 0.03746 0.19044 0.0
C561 C 0.58635 0.0283 0.11456 0.0
O562 O 0.63055 0.0674 1.00662 0.0
O563 O 0.63176 0.07152 0.06014 0.0
C564 C 0.64593 0.07266 0.03492 0.0
O565 O 0.60084 1.01031 0.02606 0.0
O566 O 0.5945 0.1046 0.97192 0.0
O567 O 0.56705 0.06101 0.94532 0.0
O568 O 0.58054 0.01761 0.97976 0.0
C569 C 0.59427 1.00195 0.99502 0.0
O570 O 0.5349 0.03029 0.04227 0.0
O571 O 0.53239 0.05843 1.00491 0.0
O572 O 0.58743 0.10999 0.03594 0.0
O573 O 0.57391 1.00964 0.08737 0.0
O574 O 0.60107 0.05469 0.11117 0.0
O575 O 0.56606 0.08709 0.07273 0.0
C576 C 0.60495 0.08544 0.9207 0.0
C577 C 0.62638 0.06871 0.92379 0.0
C578 C 0.62733 0.10178 0.8767 0.0
C579 C 0.64824 0.06859 0.90357 0.0
C580 C 0.60547 0.10199 0.89711 0.0
C581 C 0.64888 0.08504 0.87978 0.0
C582 C 0.58363 0.08721 0.94377 0.0
C583 C 0.51899 0.04126 0.02301 0.0
H584 H 0.5392 0.05326 0.11774 0.0
H585 H 0.56234 0.01523 0.21314 0.0
H586 H 0.50902 0.05936 0.16164 0.0
H587 H 0.59261 1.00922 0.16897 0.0
H588 H 0.62646 0.05611 0.94219 0.0
H589 H 0.62734 0.11455 0.85843 0.0
H590 H 0.66486 0.05597 0.90684 0.0
H591 H 0.58922 0.11526 0.8947 0.0
Eu592 Eu 0.35405 0.33822 0.29933 0.0
Eu593 Eu 0.30874 0.27343 0.26278 0.0
C594 C 0.32829 0.32735 0.22441 0.0
C595 C 0.38743 0.42061 0.31658 0.0
C596 C 0.38602 0.42052 0.28397 0.0
C597 C 0.36365 0.46327 0.32591 0.0
C598 C 0.37139 0.44003 0.27217 0.0
C599 C 0.3785 0.44393 0.33777 0.0
C600 C 0.358 0.4596 0.29283 0.0
C601 C 0.38798 0.39193 0.32629 0.0
O602 O 0.35444 0.26447 0.26454 0.0
O603 O 0.3782 0.31296 0.26407 0.0
C604 C 0.37645 0.28346 0.25707 0.0
O605 O 0.35687 0.30624 0.33265 0.0
O606 O 0.29747 0.23195 0.22405 0.0
O607 O 0.26832 0.23852 0.26017 0.0
O608 O 0.31168 0.27379 0.31549 0.0
C609 C 0.33435 0.28572 0.33764 0.0
O610 O 0.3095 0.34083 0.31401 0.0
O611 O 0.27999 0.30713 0.27118 0.0
O612 O 0.31885 0.29792 0.2233 0.0
O613 O 0.36386 0.38043 0.33692 0.0
O614 O 0.39688 0.37086 0.30645 0.0
O615 O 0.33768 0.34765 0.25205 0.0
C616 C 0.27999 0.19004 0.24555 0.0
C617 C 0.2808 0.18752 0.27743 0.0
C618 C 0.305 0.14846 0.23322 0.0
C619 C 0.29524 0.16697 0.28743 0.0
C620 C 0.29038 0.16887 0.22313 0.0
C621 C 0.30907 0.14881 0.26574 0.0
C622 C 0.27612 0.21875 0.23771 0.0
C623 C 0.28361 0.32887 0.29743 0.0
H624 H 0.39293 0.40298 0.26701 0.0
H625 H 0.35388 0.47874 0.34226 0.0
H626 H 0.36761 0.43725 0.2466 0.0
H627 H 0.37948 0.44454 0.363 0.0
H628 H 0.27287 0.20336 0.29535 0.0
H629 H 0.31519 0.13418 0.21607 0.0
H630 H 0.29801 0.16741 0.3126 0.0
H631 H 0.2899 0.17026 0.19844 0.0
Eu632 Eu 0.56997 0.58336 0.04828 0.0
Eu633 Eu 0.59154 0.52306 0.01368 0.0
C634 C 0.63242 0.58995 0.0156 0.0
C635 C 0.56714 0.66369 0.05778 0.0
C636 C 0.5765 0.65935 0.02735 0.0
C637 C 0.5781 0.71876 0.06218 0.0
C638 C 0.58695 0.68433 0.01461 0.0
C639 C 0.56784 0.69354 0.07514 0.0
C640 C 0.58815 0.71439 0.0319 0.0
C641 C 0.55938 0.6369 0.07161 0.0
O642 O 0.61265 0.53158 0.06631 0.0
O643 O 0.5913 0.56916 0.09185 0.0
C644 C 0.60832 0.54943 0.09336 0.0
O645 O 0.53102 0.54621 0.05219 0.0
O646 O 0.62291 0.4938 1.00554 0.0
O647 O 0.57814 0.47656 0.98289 0.0
O648 O 0.55147 0.50507 0.03626 0.0
C649 C 0.52992 0.51671 0.04748 0.0
O650 O 0.55128 0.57714 0.9952 0.0
O651 O 0.56777 0.53551 0.97016 0.0
O652 O 0.62939 0.56005 1.00674 0.0
O653 O 0.53945 0.61373 0.05412 0.0
O654 O 0.58191 0.62806 0.08251 0.0
O655 O 0.61252 0.60199 0.03024 0.0
C656 C 0.5987 0.4436 1.00715 0.0
C657 C 0.59857 0.44966 0.04037 0.0
C658 C 0.5841 0.38888 1.00464 0.0
C659 C 0.59123 0.42579 0.0556 0.0
C660 C 0.59169 0.41298 0.98937 0.0
C661 C 0.58345 0.39507 0.03795 0.0
C662 C 0.60251 0.46942 0.99141 0.0
C663 C 0.55312 0.55727 0.96842 0.0
H664 H 0.57646 0.63658 0.01362 0.0
H665 H 0.57817 0.7416 0.07583 0.0
H666 H 0.59476 0.6801 0.99142 0.0
H667 H 0.56085 0.69736 0.09874 0.0
H668 H 0.60287 0.47301 0.0545 0.0
H669 H 0.57816 0.36545 0.99034 0.0
H670 H 0.59001 0.43161 0.08104 0.0
H671 H 0.59117 0.40774 0.96366 0.0
Eu672 Eu 0.85566 0.32247 0.27326 0.0
Eu673 Eu 0.79689 0.28083 0.28315 0.0
C674 C 0.83107 0.33643 0.34213 0.0
C675 C 0.93505 0.34999 0.28706 0.0
C676 C 0.93191 0.33468 0.31176 0.0
C677 C 0.98778 0.35551 0.29502 0.0
C678 C 0.95639 0.32983 0.32799 0.0
C679 C 0.96304 0.36033 0.27859 0.0
C680 C 0.98452 0.34017 0.31982 0.0
C681 C 0.90841 0.35278 0.26944 0.0
O682 O 0.78231 0.32672 0.27686 0.0
O683 O 0.82513 0.35716 0.2693 0.0
C684 C 0.79672 0.3543 0.27337 0.0
O685 O 0.83619 0.29759 0.22246 0.0
O686 O 0.76504 0.25548 0.30804 0.0
O687 O 0.75458 0.25474 0.2579 0.0
O688 O 0.81136 0.2564 0.23746 0.0
C689 C 0.82477 0.26795 0.21588 0.0
O690 O 0.87041 0.27674 0.27883 0.0
O691 O 0.82921 0.24877 0.29261 0.0
O692 O 0.80602 0.3172 0.32961 0.0
O693 O 0.8948 0.32791 0.24845 0.0
O694 O 0.89039 0.36458 0.28716 0.0
O695 O 0.85448 0.33618 0.32703 0.0
C696 C 0.71585 0.25381 0.28849 0.0
C697 C 0.69096 0.23342 0.26991 0.0
C698 C 0.68708 0.2919 0.30283 0.0
C699 C 0.66476 0.24283 0.26633 0.0
C700 C 0.7135 0.28266 0.30605 0.0
C701 C 0.6631 0.27278 0.2814 0.0
C702 C 0.74472 0.24741 0.28337 0.0
C703 C 0.85706 0.25058 0.28606 0.0
H704 H 0.91038 0.32618 0.31834 0.0
H705 H 1.00939 0.36402 0.28864 0.0
H706 H 0.95331 0.31772 0.3468 0.0
H707 H 0.96571 0.37192 0.25935 0.0
H708 H 0.69248 0.21119 0.25598 0.0
H709 H 0.68591 0.31466 0.31545 0.0
H710 H 0.64664 0.22757 0.24963 0.0
H711 H 0.73258 0.29881 0.32041 0.0
Eu712 Eu 0.08602 0.54426 0.56344 0.0
Eu713 Eu 0.08032 0.56585 0.49731 0.0
C714 C 0.07365 0.61 0.56258 0.0
C715 C 0.07074 0.53471 0.64443 0.0
C716 C 0.04548 0.54591 0.64016 0.0
C717 C 0.06174 0.53398 0.69868 0.0
C718 C 0.02833 0.55098 0.66495 0.0
C719 C 0.07882 0.52871 0.67372 0.0
C720 C 0.03645 0.54527 0.69446 0.0
C721 C 0.08921 0.53084 0.6187 0.0
O722 O 0.13009 0.56873 0.50653 0.0
O723 O 0.13419 0.56651 0.55895 0.0
C724 C 0.14675 0.57084 0.53331 0.0
O725 O 0.09953 0.50719 0.52867 0.0
O726 O 0.09134 0.60131 0.47116 0.0
O727 O 0.06141 0.55794 0.44784 0.0
O728 O 0.08485 0.51709 0.48117 0.0
C729 C 0.09574 0.50011 0.49743 0.0
O730 O 0.03621 0.52794 0.54594 0.0
O731 O 0.03194 0.55503 0.50797 0.0
O732 O 0.08618 0.60861 0.53643 0.0
O733 O 0.07664 0.51082 0.59233 0.0
O734 O 0.1038 0.55653 0.61353 0.0
O735 O 0.06724 0.58598 0.57447 0.0
C736 C 0.09473 0.58102 0.41755 0.0
C737 C 0.11981 0.56909 0.41945 0.0
C738 C 0.10395 0.58833 0.3651 0.0
C739 C 0.13701 0.56699 0.39443 0.0
C740 C 0.08683 0.59065 0.39033 0.0
C741 C 0.12911 0.57635 0.36691 0.0
C742 C 0.07723 0.58373 0.44425 0.0
C743 C 0.01946 0.53803 0.52663 0.0
H744 H 0.03927 0.55106 0.61775 0.0
H745 H 0.06814 0.52909 0.72118 0.0
H746 H 1.00898 0.55981 0.66127 0.0
H747 H 0.09838 0.52022 0.67733 0.0
H748 H 0.12617 0.56159 0.4404 0.0
H749 H 0.09742 0.59566 0.3441 0.0
H750 H 0.15666 0.55834 0.39675 0.0
H751 H 0.06751 0.59994 0.38862 0.0
Eu752 Eu 0.79901 0.81414 0.28454 0.0
Eu753 Eu 0.86075 0.79463 0.28255 0.0
C754 C 0.80019 0.74149 0.28842 0.0
C755 C 0.72585 0.83149 0.30705 0.0
C756 C 0.72571 0.81712 0.33249 0.0
C757 C 0.68156 0.84754 0.32151 0.0
C758 C 0.70343 0.81787 0.35233 0.0
C759 C 0.70377 0.84673 0.30169 0.0
C760 C 0.68117 0.83315 0.34702 0.0
C761 C 0.74931 0.83154 0.28645 0.0
O762 O 0.84728 0.79068 0.23017 0.0
O763 O 0.7997 0.79526 0.23167 0.0
C764 C 0.82135 0.78923 0.21553 0.0
O765 O 0.83084 0.8597 0.27969 0.0
O766 O 0.88544 0.76027 0.2652 0.0
O767 O 0.90775 0.8032 0.29794 0.0
O768 O 0.87472 0.8455 0.27835 0.0
C769 C 0.85966 0.86704 0.27802 0.0
O770 O 0.81333 0.82109 0.33722 0.0
O771 O 0.85905 0.81077 0.33583 0.0
O772 O 0.82863 0.74852 0.28484 0.0
O773 O 0.77472 0.84944 0.29918 0.0
O774 O 0.75172 0.80484 0.27024 0.0
O775 O 0.78534 0.76354 0.29051 0.0
C776 C 0.93392 0.781 0.2581 0.0
C777 C 0.93763 0.80406 0.24113 0.0
C778 C 0.9726 0.76113 0.23246 0.0
C779 C 0.95888 0.80574 0.22007 0.0
C780 C 0.95154 0.75963 0.25372 0.0
C781 C 0.9763 0.78408 0.21533 0.0
C782 C 0.91067 0.77794 0.27896 0.0
C783 C 0.83828 0.81964 0.35191 0.0
H784 H 0.74275 0.80532 0.33692 0.0
H785 H 0.66474 0.85959 0.31701 0.0
H786 H 0.70336 0.80613 0.37147 0.0
H787 H 0.70376 0.85809 0.28224 0.0
H788 H 0.92388 0.82049 0.24391 0.0
H789 H 0.98607 0.74443 0.22945 0.0
H790 H 0.96135 0.82357 0.20704 0.0
H791 H 0.94879 0.74159 0.26649 0.0
Eu792 Eu 0.84681 0.30602 0.74215 0.0
Eu793 Eu 0.81098 0.29047 0.80181 0.0
C794 C 0.77819 0.30884 0.74465 0.0
C795 C 0.86402 0.3387 0.67189 0.0
C796 C 0.85291 0.36479 0.68303 0.0
C797 C 0.8554 0.34419 0.6177 0.0
C798 C 0.8432 0.38047 0.66165 0.0
C799 C 0.86537 0.32867 0.63912 0.0
C800 C 0.84393 0.37002 0.62875 0.0
C801 C 0.87156 0.32026 0.69377 0.0
O802 O 0.79583 0.25098 0.75863 0.0
O803 O 0.83919 0.2552 0.73707 0.0
C804 C 0.81346 0.23898 0.74012 0.0
O805 O 0.88086 0.30778 0.78246 0.0
O806 O 0.77732 0.26086 0.8209 0.0
O807 O 0.80715 0.30008 0.85276 0.0
O808 O 0.85192 0.27264 0.80386 0.0
C809 C 0.87791 0.28826 0.80078 0.0
O810 O 0.83615 0.34957 0.76749 0.0
O811 O 0.8362 0.34008 0.81705 0.0
O812 O 0.78016 0.3106 0.77549 0.0
O813 O 0.88106 0.335 0.72337 0.0
O814 O 0.85241 0.2945 0.69162 0.0
O815 O 0.79875 0.30159 0.72722 0.0
C816 C 0.79449 0.25494 0.87099 0.0
C817 C 0.82283 0.24945 0.87399 0.0
C818 C 0.77938 0.22167 0.90633 0.0
C819 C 0.82946 0.23043 0.89323 0.0
C820 C 0.77278 0.24082 0.88714 0.0
C821 C 0.80785 0.2165 0.90975 0.0
C822 C 0.78744 0.27472 0.85047 0.0
C823 C 0.83827 0.35932 0.79849 0.0
H824 H 0.85115 0.37269 0.70817 0.0
H825 H 0.85659 0.33597 0.59247 0.0
H826 H 0.83437 0.40026 0.67072 0.0
H827 H 0.8736 0.30846 0.63003 0.0
H828 H 0.83985 0.25985 0.86142 0.0
H829 H 0.76232 0.21117 0.91879 0.0
H830 H 0.8514 0.22635 0.89492 0.0
H831 H 0.75075 0.24461 0.88491 0.0
Eu832 Eu 0.85321 0.83807 0.80246 0.0
Eu833 Eu 0.80465 0.77581 0.76377 0.0
C834 C 0.82774 0.83061 0.72782 0.0
C835 C 0.88308 0.92072 0.8251 0.0
C836 C 0.89035 0.92902 0.79667 0.0
C837 C 0.84894 0.95411 0.83026 0.0
C838 C 0.87509 0.94751 0.78384 0.0
C839 C 0.86421 0.9357 0.84314 0.0
C840 C 0.8527 0.9581 0.79946 0.0
C841 C 0.88748 0.89115 0.83053 0.0
O842 O 0.8484 0.76237 0.76441 0.0
O843 O 0.87872 0.81004 0.77203 0.0
C844 C 0.87368 0.78018 0.76219 0.0
O845 O 0.85405 0.80472 0.83446 0.0
O846 O 0.79101 0.73545 0.72383 0.0
O847 O 0.76303 0.74256 0.76105 0.0
O848 O 0.80808 0.77422 0.81604 0.0
C849 C 0.83077 0.78452 0.83837 0.0
O850 O 0.80938 0.84289 0.81769 0.0
O851 O 0.77768 0.81101 0.77533 0.0
O852 O 0.81587 0.80132 0.72522 0.0
O853 O 0.86708 0.87662 0.84431 0.0
O854 O 0.89422 0.87255 0.80622 0.0
O855 O 0.83833 0.84951 0.75593 0.0
C856 C 0.77244 0.69316 0.74442 0.0
C857 C 0.77345 0.68979 0.77601 0.0
C858 C 0.79508 0.64991 0.73 0.0
C859 C 0.78686 0.66798 0.78485 0.0
C860 C 0.78165 0.67174 0.72113 0.0
C861 C 0.79924 0.64905 0.76222 0.0
C862 C 0.76962 0.72267 0.73773 0.0
C863 C 0.78304 0.83269 0.80181 0.0
H864 H 0.90538 0.91853 0.78255 0.0
H865 H 0.83237 0.96301 0.84315 0.0
H866 H 0.87876 0.95098 0.76036 0.0
H867 H 0.85866 0.93042 0.86549 0.0
H868 H 0.76649 0.70584 0.7946 0.0
H869 H 0.80426 0.6353 0.71208 0.0
H870 H 0.78996 0.668 0.80989 0.0
H871 H 0.78112 0.67382 0.69665 0.0
Eu872 Eu 0.59984 0.58744 0.54681 0.0
Eu873 Eu 0.5653 0.51971 0.52061 0.0
C874 C 0.60599 0.55273 0.47065 0.0
C875 C 0.60976 0.6693 0.55458 0.0
C876 C 0.58946 0.65985 0.5269 0.0
C877 C 0.60072 0.72039 0.56317 0.0
C878 C 0.57497 0.68033 0.51738 0.0
C879 C 0.61526 0.6996 0.57289 0.0
C880 C 0.58049 0.71078 0.53526 0.0
C881 C 0.62312 0.64624 0.56444 0.0
O882 O 0.61395 0.51521 0.52793 0.0
O883 O 0.63881 0.56446 0.55101 0.0
C884 C 0.63936 0.53562 0.53841 0.0
O885 O 0.58293 0.57672 0.59371 0.0
O886 O 0.53838 0.48158 0.48357 0.0
O887 O 0.55207 0.47468 0.53006 0.0
O888 O 0.54888 0.53254 0.5715 0.0
C889 C 0.55936 0.55601 0.59675 0.0
O890 O 0.55205 0.59263 0.5358 0.0
O891 O 0.52633 0.54301 0.51754 0.0
O892 O 0.58847 0.52763 0.47541 0.0
O893 O 0.60832 0.63124 0.58262 0.0
O894 O 0.63131 0.62782 0.54124 0.0
O895 O 0.61003 0.57843 0.49357 0.0
C896 C 0.55174 0.43526 0.48616 0.0
C897 C 0.57987 0.44011 0.47613 0.0
C898 C 0.55424 0.38372 0.48837 0.0
C899 C 0.59585 0.41745 0.47425 0.0
C900 C 0.53827 0.40633 0.49016 0.0
C901 C 0.5839 0.39004 0.48285 0.0
C902 C 0.54028 0.46166 0.50064 0.0
C903 C 0.52638 0.57241 0.52719 0.0
H904 H 0.58462 0.63643 0.51259 0.0
H905 H 0.60559 0.74395 0.57707 0.0
H906 H 0.55925 0.67228 0.496 0.0
H907 H 0.63066 0.70708 0.59449 0.0
H908 H 0.59062 0.46245 0.47301 0.0
H909 H 0.54448 0.36277 0.4951 0.0
H910 H 0.61853 0.42263 0.46947 0.0
H911 H 0.51663 0.40233 0.49805 0.0
Eu912 Eu 0.10842 0.55028 1.00796 0.0
Eu913 Eu 0.05221 0.5646 0.04785 0.0
C914 C 0.10828 0.55016 0.08145 0.0
C915 C 0.17502 0.51802 0.99091 0.0
C916 C 0.16812 0.49814 0.01119 0.0
C917 C 0.22321 0.5062 0.98898 0.0
C918 C 0.18853 0.48225 0.02011 0.0
C919 C 0.20271 0.52193 0.9799 0.0
C920 C 0.21639 0.48625 1.00926 0.0
C921 C 0.15395 0.53558 0.98228 0.0
O922 O 0.08711 0.60843 0.05719 0.0
O923 O 0.11071 0.60035 0.0121 0.0
C924 C 0.10406 0.61857 0.03706 0.0
O925 O 0.07032 0.54623 0.97105 0.0
O926 O 0.0335 0.59126 0.08628 0.0
O927 O 1.00501 0.5537 0.05093 0.0
O928 O 0.04685 0.5788 1.00197 0.0
C929 C 0.05052 0.56291 0.97405 0.0
O930 O 0.08558 0.50685 0.02002 0.0
O931 O 0.03954 0.51576 0.01877 0.0
O932 O 0.07943 0.54488 0.07939 0.0
O933 O 0.12688 0.52007 0.97252 0.0
O934 O 0.15518 0.56172 1.00234 0.0
O935 O 0.12266 0.56192 0.06049 0.0
C936 C 0.98623 0.59711 0.06909 0.0
C937 C 0.99486 0.62141 0.05435 0.0
C938 C 0.93715 0.60678 0.06894 0.0
C939 C 0.97476 0.63827 0.04693 0.0
C940 C 0.95731 0.59008 0.07653 0.0
C941 C 0.94553 0.63077 0.05363 0.0
C942 C 1.00638 0.57746 0.07439 0.0
C943 C 0.05694 0.49667 0.01592 0.0
H944 H 0.14698 0.49504 0.02029 0.0
H945 H 0.24432 0.50937 0.97985 0.0
H946 H 0.18271 0.46712 0.03583 0.0
H947 H 0.2085 0.53726 0.96436 0.0
H948 H 0.01697 0.62692 0.04803 0.0
H949 H 0.91497 0.60091 0.07503 0.0
H950 H 0.98186 0.65664 0.0352 0.0
H951 H 0.95017 0.57133 0.08776 0.0
C952 C 0.04641 0.28573 0.04939 0.0
C953 C 0.0271 0.27175 0.0211 0.0
C954 C 0.05891 0.26808 0.06663 0.0
C955 C 0.05209 0.23588 0.05651 0.0
H956 H 0.05378 0.31051 0.05697 0.0
H957 H 0.07541 0.27973 0.08684 0.0
S958 S 0.99875 0.18807 0.98729 0.0
N959 N 0.99867 0.22382 0.98626 0.0
N960 N 0.02211 0.1906 0.01864 0.0
C961 C 0.03062 0.22158 0.03008 0.0
C962 C 0.01812 0.23955 0.01236 0.0
C963 C 0.18859 0.79884 0.22279 0.0
C964 C 0.18976 0.81136 0.19579 0.0
C965 C 0.21437 0.79773 0.24058 0.0
C966 C 0.24207 0.80881 0.2317 0.0
H967 H 0.16764 0.78881 0.22964 0.0
H968 H 0.21255 0.78674 0.26032 0.0
S969 S 0.25763 0.84801 0.16632 0.0
N970 N 0.22139 0.83832 0.16357 0.0
N971 N 0.26959 0.8358 0.19679 0.0
C972 C 0.24367 0.82305 0.20609 0.0
C973 C 0.21757 0.82446 0.18818 0.0
C974 C 0.49721 0.92284 0.50865 0.0
C975 C 0.51709 0.90359 0.50449 0.0
C976 C 0.50704 0.95405 0.52411 0.0
C977 C 0.53684 0.96644 0.53584 0.0
H978 H 0.47462 0.91448 0.49758 0.0
H979 H 0.49195 0.969 0.5242 0.0
S980 S 0.59602 0.92447 0.53722 0.0
N981 N 0.56667 0.8981 0.51833 0.0
N982 N 0.585 0.95684 0.54685 0.0
C983 C 0.55607 0.94682 0.53493 0.0
C984 C 0.54619 0.91524 0.51938 0.0
C985 C 0.52282 0.27928 0.64734 0.0
C986 C 0.54846 0.30314 0.65628 0.0
C987 C 0.50055 0.2766 0.66721 0.0
C988 C 0.50285 0.2979 0.6966 0.0
H989 H 0.52016 0.26197 0.62515 0.0
H990 H 0.48141 0.25762 0.65957 0.0
S991 S 0.56466 0.3653 0.73074 0.0
N992 N 0.57432 0.34906 0.69631 0.0
N993 N 0.53223 0.34401 0.73352 0.0
C994 C 0.52789 0.32233 0.70554 0.0
C995 C 0.55077 0.32494 0.68544 0.0
C996 C 0.07594 0.86147 0.61302 0.0
C997 C 0.05138 0.83635 0.60664 0.0
C998 C 0.08225 0.87975 0.5912 0.0
C999 C 0.06435 0.87368 0.56199 0.0
H1000 H 0.09044 0.86728 0.63518 0.0
H1001 H 0.10109 0.89915 0.59755 0.0
S1002 S 0.9982 0.80984 0.53278 0.0
N1003 N 1.00939 0.80596 0.56835 0.0
N1004 N 0.02159 0.84008 0.52724 0.0
C1005 C 0.03986 0.8485 0.55509 0.0
C1006 C 0.03332 0.82992 0.57739 0.0
C1007 C 0.54991 0.82628 0.84992 0.0
C1008 C 0.55957 0.84327 0.88145 0.0
C1009 C 0.52735 0.83288 0.83169 0.0
C1010 C 0.51405 0.85695 0.84429 0.0
H1011 H 0.55956 0.80749 0.83943 0.0
H1012 H 0.51979 0.81857 0.80784 0.0
S1013 S 0.53422 0.91088 0.92412 0.0
N1014 N 0.55587 0.88673 0.92368 0.0
N1015 N 0.51382 0.89948 0.88907 0.0
C1016 C 0.52425 0.87481 0.87538 0.0
C1017 C 0.54695 0.86788 0.89408 0.0
C1018 C 0.57745 0.19661 0.08721 0.0
C1019 C 0.55387 0.19787 0.1055 0.0
C1020 C 0.58375 0.16853 0.07308 0.0
C1021 C 0.56706 0.14066 0.0772 0.0
H1022 H 0.59114 0.2175 0.08363 0.0
H1023 H 0.60207 0.16874 0.0591 0.0
S1024 S 0.50292 0.13128 0.12293 0.0
N1025 N 0.51358 0.16872 0.12685 0.0
N1026 N 0.52569 0.11592 0.10063 0.0
C1027 C 0.54342 0.14152 0.09549 0.0
C1028 C 0.53672 0.17013 0.1095 0.0
C1029 C 0.23894 0.3712 0.35288 0.0
C1030 C 0.21403 0.34798 0.35302 0.0
C1031 C 0.26066 0.36534 0.33324 0.0
C1032 C 0.25784 0.33634 0.3124 0.0
H1033 H 0.24237 0.39364 0.36909 0.0
H1034 H 0.28031 0.38334 0.33518 0.0
S1035 S 0.19512 0.26882 0.30121 0.0
N1036 N 0.18665 0.29559 0.32892 0.0
N1037 N 0.22716 0.28482 0.29152 0.0
C1038 C 0.23215 0.31353 0.31087 0.0
C1039 C 0.21034 0.31928 0.33136 0.0
C1040 C 0.03465 0.09554 0.17755 0.0
C1041 C 1.01059 0.07395 0.18469 0.0
C1042 C 0.04876 0.09057 0.14884 0.0
C1043 C 0.04057 0.0633 0.12385 0.0
H1044 H 0.04307 0.11736 0.19462 0.0
H1045 H 0.06656 0.10888 0.14627 0.0
S1046 S 0.97869 0.9981 0.12777 0.0
N1047 N 0.97938 0.02315 0.16193 0.0
N1048 N 1.00522 0.01387 0.10914 0.0
C1049 C 1.01648 0.04121 0.13033 0.0
C1050 C 1.00193 0.04638 0.1599 0.0
C1051 C 0.30998 0.64372 0.44215 0.0
C1052 C 0.32897 0.6556 0.47099 0.0
C1053 C 0.30345 0.66292 0.42285 0.0
C1054 C 0.31543 0.69477 0.43177 0.0
H1055 H 0.29952 0.61946 0.43463 0.0
H1056 H 0.28829 0.65287 0.40121 0.0
S1057 S 0.36838 0.73731 0.50316 0.0
N1058 N 0.36125 0.70131 0.5062 0.0
N1059 N 0.34865 0.73719 0.47 0.0
C1060 C 0.33508 0.7069 0.45995 0.0
C1061 C 0.34194 0.68738 0.4795 0.0
C1062 C 0.66226 0.036 0.64908 0.0
C1063 C 0.67157 0.06233 0.67433 0.0
C1064 C 0.6392 0.03369 0.62572 0.0
C1065 C 0.62453 0.05763 0.62658 0.0
H1066 H 0.67323 0.01721 0.64691 0.0
H1067 H 0.63338 0.0132 0.60633 0.0
S1068 S 0.6396 0.13106 0.68835 0.0
N1069 N 0.6635 0.11249 0.69954 0.0
N1070 N 0.62025 0.10808 0.65538 0.0
C1071 C 0.63281 0.08362 0.65232 0.0
C1072 C 0.65635 0.086 0.67621 0.0
C1073 C 0.38044 0.35665 0.93392 0.0
C1074 C 0.35824 0.35798 0.95427 0.0
C1075 C 0.3739 0.34296 0.90097 0.0
C1076 C 0.34471 0.33036 0.88639 0.0
H1077 H 0.40325 0.36693 0.94344 0.0
H1078 H 0.39198 0.34337 0.88664 0.0
S1079 S 0.27822 0.32667 0.92904 0.0
N1080 N 0.30575 0.34418 0.95747 0.0
N1081 N 0.29328 0.31901 0.89566 0.0
C1082 C 0.32225 0.33072 0.90662 0.0
C1083 C 0.32903 0.3443 0.94041 0.0
C1084 C 1.01039 0.08791 0.4005 0.0
C1085 C 1.00136 0.06221 0.37371 0.0
C1086 C 0.02627 0.08662 0.42999 0.0
C1087 C 0.03453 0.05959 0.43525 0.0
H1088 H 1.00408 0.10905 0.39931 0.0
H1089 H 0.03168 0.10718 0.44924 0.0
S1090 S 0.01692 0.98561 0.37319 0.0
N1091 N 1.00269 1.00865 0.35558 0.0
N1092 N 0.032 1.00647 0.409 0.0
C1093 C 0.02608 0.03407 0.40835 0.0
C1094 C 1.00979 0.03531 0.37862 0.0
C1095 C 0.34228 0.73494 0.63059 0.0
C1096 C 0.34239 0.70394 0.62992 0.0
C1097 C 0.3375 0.75555 0.65821 0.0
C1098 C 0.33191 0.74606 0.68641 0.0
H1099 H 0.3458 0.74348 0.60942 0.0
H1100 H 0.33762 0.77896 0.65721 0.0
S1101 S 0.33153 0.66804 0.69845 0.0
N1102 N 0.33787 0.66552 0.66101 0.0
N1103 N 0.3284 0.70359 0.71234 0.0
C1104 C 0.33247 0.71527 0.68629 0.0
C1105 C 0.33783 0.69446 0.65833 0.0
C1106 C 0.70897 0.11254 0.83142 0.0
C1107 C 0.71457 0.08493 0.8142 0.0
C1108 C 0.68794 0.11242 0.8529 0.0
C1109 C 0.67195 0.08471 0.85811 0.0
H1110 H 0.72017 0.13441 0.82758 0.0
H1111 H 0.68398 0.13416 0.86532 0.0
S1112 S 0.67954 1.00625 0.82071 0.0
N1113 N 0.70352 0.02916 0.80533 0.0
N1114 N 0.6637 0.02905 0.84528 0.0
C1115 C 0.67802 0.05702 0.84195 0.0
C1116 C 0.69942 0.0571 0.82011 0.0
C1117 C 0.34748 0.37547 0.16221 0.0
C1118 C 0.33459 0.35503 0.13274 0.0
C1119 C 0.34492 0.36678 0.19164 0.0
C1120 C 0.3296 0.33712 0.19309 0.0
H1121 H 0.35928 0.39858 0.16266 0.0
H1122 H 0.35532 0.38341 0.2134 0.0
S1123 S 0.29325 0.2742 0.12252 0.0
N1124 N 0.30682 0.30327 0.10712 0.0
N1125 N 0.30215 0.28704 0.16143 0.0
C1126 C 0.31706 0.31639 0.16361 0.0
C1127 C 0.31949 0.32529 0.13386 0.0
C1128 C 0.19688 0.98942 0.01901 0.0
C1129 C 0.22441 1.00947 0.01793 0.0
C1130 C 0.17041 0.99954 0.02459 0.0
C1131 C 0.16897 0.03076 0.02996 0.0
H1132 H 0.19545 0.96502 0.01531 0.0
H1133 H 0.15064 0.98233 0.0246 0.0
S1134 S 0.23387 0.09393 0.02958 0.0
N1135 N 0.24758 0.06305 0.02273 0.0
N1136 N 0.19869 0.08198 0.03322 0.0
C1137 C 0.19626 0.05132 0.02899 0.0
C1138 C 0.22342 0.04086 0.02304 0.0
C1139 C 0.68324 0.66484 1.00917 0.0
C1140 C 0.71064 0.65743 1.00485 0.0
C1141 C 0.6583 0.64274 0.01176 0.0
C1142 C 0.65918 0.61185 1.0099 0.0
H1143 H 0.68101 0.68819 0.01123 0.0
H1144 H 0.63811 0.65019 0.0156 0.0
S1145 S 0.72502 0.57966 0.99728 0.0
N1146 N 0.73681 0.61635 0.99779 0.0
N1147 N 0.68986 0.57483 1.00241 0.0
C1148 C 0.68617 0.60377 1.00466 0.0
C1149 C 0.71182 0.62647 1.00225 0.0
C1150 C 0.77513 0.43481 0.26433 0.0
C1151 C 0.74966 0.43727 0.28063 0.0
C1152 C 0.78997 0.40919 0.26214 0.0
C1153 C 0.78071 0.3829 0.2754 0.0
H1154 H 0.78354 0.45256 0.25228 0.0
H1155 H 0.80892 0.40989 0.24914 0.0
S1156 S 0.718 0.3782 0.32421 0.0
N1157 N 0.71843 0.41025 0.31278 0.0
N1158 N 0.74473 0.36425 0.30816 0.0
C1159 C 0.75589 0.38565 0.29227 0.0
C1160 C 0.74112 0.41165 0.29485 0.0
C1161 C 0.93434 0.52703 0.50221 0.0
C1162 C 0.92078 0.51563 0.52684 0.0
C1163 C 0.96575 0.53444 0.50226 0.0
C1164 C 0.98562 0.53065 0.52673 0.0
H1165 H 0.9206 0.52943 0.48219 0.0
H1166 H 0.9745 0.54267 0.48245 0.0
S1167 S 0.96224 0.50471 0.59862 0.0
N1168 N 0.93096 0.50352 0.57785 0.0
N1169 N 0.98831 0.51652 0.57745 0.0
C1170 C 0.97224 0.52016 0.5518 0.0
C1171 C 0.94057 0.51295 0.55195 0.0
C1172 C 0.34609 0.10127 0.30958 0.0
C1173 C 0.37566 0.10961 0.30391 0.0
C1174 C 0.32445 0.11374 0.29693 0.0
C1175 C 0.33157 0.13466 0.27785 0.0
H1176 H 0.33947 0.08471 0.32361 0.0
H1177 H 0.30198 0.10681 0.30184 0.0
S1178 S 0.40571 0.16619 0.25789 0.0
N1179 N 0.41096 0.14172 0.27931 0.0
N1180 N 0.37015 0.16494 0.25557 0.0
C1181 C 0.36101 0.14378 0.27256 0.0
C1182 C 0.3831 0.13134 0.28561 0.0
C1183 C 0.40247 0.19871 0.54996 0.0
C1184 C 0.37481 0.18324 0.53257 0.0
C1185 C 0.42313 0.18268 0.55804 0.0
C1186 C 0.41705 0.15041 0.54929 0.0
H1187 H 0.40824 0.22354 0.55785 0.0
H1188 H 0.44383 0.19569 0.57191 0.0
S1189 S 0.34892 0.0987 0.50191 0.0
N1190 N 0.34309 0.13351 0.50568 0.0
N1191 N 0.38204 0.10347 0.52085 0.0
C1192 C 0.3898 0.13456 0.53138 0.0
C1193 C 0.3687 0.15092 0.52299 0.0
C1194 C 0.73903 0.67045 0.29773 0.0
C1195 C 0.75143 0.64404 0.29286 0.0
C1196 C 0.75452 0.70065 0.29631 0.0
C1197 C 0.78422 0.70781 0.29004 0.0
H1198 H 0.71643 0.66795 0.3027 0.0
H1199 H 0.74272 0.71879 0.3003 0.0
S1200 S 0.82876 0.64846 0.27522 0.0
N1201 N 0.79669 0.62855 0.28114 0.0
N1202 N 0.82546 0.68419 0.27875 0.0
C1203 C 0.79723 0.68178 0.28516 0.0
C1204 C 0.78121 0.65067 0.28646 0.0
C1205 C 0.87188 0.43728 0.85383 0.0
C1206 C 0.86712 0.45739 0.83475 0.0
C1207 C 0.86107 0.40542 0.84271 0.0
C1208 C 0.84518 0.39276 0.81221 0.0
H1209 H 0.88531 0.446 0.87676 0.0
H1210 H 0.86652 0.3906 0.85741 0.0
S1211 S 0.8222 0.43594 0.75554 0.0
N1212 N 0.84216 0.46264 0.78574 0.0
N1213 N 0.82182 0.40295 0.76499 0.0
C1214 C 0.83843 0.4128 0.79397 0.0
C1215 C 0.84941 0.44509 0.80522 0.0
C1216 C 0.13427 0.87553 0.04708 0.0
C1217 C 0.13047 0.84365 0.03579 0.0
C1218 C 0.12391 0.89294 0.02806 0.0
C1219 C 0.10897 0.87894 0.99733 0.0
H1220 H 0.14386 0.88684 0.0714 0.0
H1221 H 0.12542 0.91705 0.03849 0.0
S1222 S 0.09709 0.79723 0.95493 0.0
N1223 N 0.11413 0.79945 0.99039 0.0
N1224 N 0.0937 0.83237 0.95506 0.0
C1225 C 0.10704 0.84764 0.9848 0.0
C1226 C 0.11813 0.82992 1.00394 0.0
C1227 C 0.9257 0.25452 0.85077 0.0
C1228 C 0.95017 0.27913 0.86286 0.0
C1229 C 0.90273 0.25744 0.82998 0.0
C1230 C 0.90374 0.28483 0.82001 0.0
H1231 H 0.9238 0.2332 0.85819 0.0
H1232 H 0.88387 0.23819 0.82197 0.0
S1233 S 0.96384 0.35542 0.84336 0.0
N1234 N 0.97464 0.33141 0.86238 0.0
N1235 N 0.93168 0.33662 0.82296 0.0
C1236 C 0.92857 0.3092 0.83101 0.0
C1237 C 0.95171 0.30644 0.85257 0.0
C1238 C 0.64819 0.1966 0.58277 0.0
C1239 C 0.63023 0.21698 0.57954 0.0
C1240 C 0.63754 0.16483 0.57124 0.0
C1241 C 0.6086 0.15238 0.55602 0.0
H1242 H 0.67024 0.20512 0.59536 0.0
H1243 H 0.65174 0.14993 0.57547 0.0
S1244 S 0.5543 0.1963 0.53731 0.0
N1245 N 0.5832 0.22273 0.55703 0.0
N1246 N 0.56332 0.16311 0.53519 0.0
C1247 C 0.59104 0.17265 0.55097 0.0
C1248 C 0.60182 0.20493 0.56279 0.0
C1249 C 0.60424 0.82565 0.37101 0.0
C1250 C 0.60906 0.83364 0.40458 0.0
C1251 C 0.62769 0.8255 0.35273 0.0
C1252 C 0.65694 0.83337 0.36724 0.0
H1253 H 0.58213 0.81919 0.35857 0.0
H1254 H 0.62284 0.81886 0.32697 0.0
S1255 S 0.68185 0.8574 0.45416 0.0
N1256 N 0.6456 0.85038 0.45163 0.0
N1257 N 0.68971 0.85038 0.41703 0.0
C1258 C 0.66223 0.84162 0.40073 0.0
C1259 C 0.63829 0.84173 0.41945 0.0
C1260 C 0.12697 0.25914 0.47596 0.0
C1261 C 0.12585 0.28982 0.48878 0.0
C1262 C 0.11605 0.23585 0.49115 0.0
C1263 C 0.10362 0.24224 0.51985 0.0
H1264 H 0.13583 0.25284 0.45362 0.0
H1265 H 0.11715 0.21255 0.48017 0.0
S1266 S 0.096 0.31867 0.56403 0.0
N1267 N 0.11198 0.32537 0.53267 0.0
N1268 N 0.09121 0.2814 0.56088 0.0
C1269 C 0.10303 0.27284 0.53345 0.0
C1270 C 0.11418 0.29665 0.51801 0.0
C1271 C 0.58673 0.2743 0.24888 0.0
C1272 C 0.59213 0.29926 0.2344 0.0
C1273 C 0.60943 0.26732 0.26656 0.0
C1274 C 0.6384 0.28503 0.27043 0.0
H1275 H 0.56508 0.259 0.24514 0.0
H1276 H 0.6046 0.2469 0.27573 0.0
S1277 S 0.66367 0.35481 0.24039 0.0
N1278 N 0.62809 0.34358 0.22791 0.0
N1279 N 0.6709 0.33004 0.26051 0.0
C1280 C 0.6437 0.31144 0.2582 0.0
C1281 C 0.62051 0.31868 0.24034 0.0
C1282 C 0.62636 0.93148 0.97651 0.0
C1283 C 0.62877 0.92692 0.94366 0.0
C1284 C 0.61474 0.95545 0.99274 0.0
C1285 C 0.60489 0.97577 0.97678 0.0
H1286 H 0.63304 0.91614 0.98983 0.0
H1287 H 0.61335 0.95792 0.01803 0.0
S1288 S 0.60773 0.97486 0.89101 0.0
N1289 N 0.62131 0.94559 0.89591 0.0
N1290 N 0.59933 0.99038 0.92633 0.0
C1291 C 0.60747 0.97171 0.94397 0.0
C1292 C 0.61949 0.94742 0.92747 0.0
C1293 C 0.94445 0.77928 0.72606 0.0
C1294 C 0.93816 0.75096 0.70339 0.0
C1295 C 0.92416 0.7873 0.7465 0.0
C1296 C 0.89639 0.76757 0.745 0.0
H1297 H 0.96517 0.79576 0.72783 0.0
H1298 H 0.93004 0.80982 0.76283 0.0
S1299 S 0.87004 0.68934 0.69193 0.0
N1300 N 0.90319 0.70185 0.68234 0.0
N1301 N 0.86448 0.71726 0.72056 0.0
C1302 C 0.89031 0.73838 0.72367 0.0
C1303 C 0.9113 0.73003 0.70288 0.0
C1304 C 0.15892 0.07884 0.90404 0.0
C1305 C 0.15792 0.05221 0.87901 0.0
C1306 C 0.14242 0.0791 0.93094 0.0
C1307 C 0.1229 0.05273 0.93592 0.0
H1308 H 0.17309 0.1005 0.90317 0.0
H1309 H 0.14534 0.10073 0.94839 0.0
S1310 S 0.11086 0.9757 0.87906 0.0
N1311 N 0.13459 0.99779 0.86245 0.0
N1312 N 0.10417 0.99813 0.91194 0.0
C1313 C 0.12137 0.02567 0.91116 0.0
C1314 C 0.13839 0.02542 0.88344 0.0
C1315 C 0.83456 0.43317 0.58787 0.0
C1316 C 0.81423 0.41738 0.56074 0.0
C1317 C 0.84358 0.41783 0.61008 0.0
C1318 C 0.83279 0.38607 0.60596 0.0
H1319 H 0.84416 0.45752 0.59174 0.0
H1320 H 0.85974 0.43078 0.63018 0.0
S1321 S 0.77702 0.33443 0.54118 0.0
N1322 N 0.78199 0.3683 0.53252 0.0
N1323 N 0.79911 0.33967 0.57434 0.0
C1324 C 0.81175 0.37014 0.57968 0.0
C1325 C 0.80242 0.38574 0.5571 0.0
C1326 C 0.50993 0.03638 0.40105 0.0
C1327 C 0.48379 0.04697 0.40278 0.0
C1328 C 0.53006 0.04145 0.4283 0.0
C1329 C 0.52446 0.05687 0.45821 0.0
H1330 H 0.51474 0.02367 0.37857 0.0
H1331 H 0.54941 0.03207 0.42616 0.0
S1332 S 0.46068 0.09142 0.47539 0.0
N1333 N 0.45454 0.07542 0.43673 0.0
N1334 N 0.49219 0.08464 0.48786 0.0
C1335 C 0.49904 0.0686 0.46011 0.0
C1336 C 0.47874 0.06374 0.4324 0.0
C1337 C 0.77986 0.7535 0.13181 0.0
C1338 C 0.8022 0.75243 0.11167 0.0
C1339 C 0.78628 0.7665 0.16487 0.0
C1340 C 0.81547 0.77848 0.17972 0.0
H1341 H 0.75707 0.74364 0.12199 0.0
H1342 H 0.7681 0.76607 0.17905 0.0
S1343 S 0.88228 0.78201 0.13773 0.0
N1344 N 0.85482 0.76551 0.10895 0.0
N1345 N 0.86705 0.78923 0.17105 0.0
C1346 C 0.83809 0.77816 0.15975 0.0
C1347 C 0.83144 0.7654 0.12584 0.0
C1348 C 0.15214 0.02496 0.6607 0.0
C1349 C 0.14842 0.04428 0.69011 0.0
C1350 C 0.13881 0.02629 0.62987 0.0
C1351 C 0.12079 0.04716 0.62579 0.0
H1352 H 0.16524 1.00824 0.66137 0.0
H1353 H 0.14271 1.01054 0.60887 0.0
S1354 S 0.10458 0.10422 0.69398 0.0
N1355 N 0.12527 0.08605 0.71139 0.0
N1356 N 0.10126 0.08823 0.65547 0.0
C1357 C 0.11732 0.06672 0.65492 0.0
C1358 C 0.13067 0.06537 0.68606 0.0
C1359 C 0.8065 0.3936 0.40867 0.0
C1360 C 0.83307 0.4108 0.42729 0.0
C1361 C 0.80601 0.36907 0.38202 0.0
C1362 C 0.83209 0.36076 0.37237 0.0
H1363 H 0.78585 0.39882 0.41496 0.0
H1364 H 0.78494 0.35689 0.36848 0.0
S1365 S 0.90766 0.39909 0.41219 0.0
N1366 N 0.88633 0.4178 0.43348 0.0
N1367 N 0.8853 0.37252 0.38371 0.0
C1368 C 0.85877 0.37802 0.3906 0.0
C1369 C 0.85927 0.40269 0.41786 0.0
C1370 C 0.51295 0.06226 0.27358 0.0
C1371 C 0.48213 0.05189 0.2692 0.0
C1372 C 0.52941 0.05715 0.24799 0.0
C1373 C 0.51558 0.04182 0.21715 0.0
H1374 H 0.52454 0.07411 0.29699 0.0
H1375 H 0.55311 0.06555 0.25229 0.0
S1376 S 0.43564 1.01012 0.19274 0.0
N1377 N 0.43844 0.02557 0.23139 0.0
N1378 N 0.46961 0.01606 0.18339 0.0
C1379 C 0.48486 0.03143 0.21231 0.0
C1380 C 0.46806 0.03642 0.23834 0.0
C1381 C 0.8534 0.7709 0.92048 0.0
C1382 C 0.82726 0.75386 0.92845 0.0
C1383 C 0.85436 0.78068 0.8917 0.0
C1384 C 0.82929 0.7737 0.86901 0.0
H1385 H 0.87355 0.77687 0.93668 0.0
H1386 H 0.87511 0.79369 0.88717 0.0
S1387 S 0.75502 0.72969 0.87785 0.0
N1388 N 0.77548 0.73063 0.91084 0.0
N1389 N 0.77712 0.74861 0.85711 0.0
C1390 C 0.80291 0.75668 0.87669 0.0
C1391 C 0.80193 0.74694 0.90617 0.0
C1392 C 0.96619 0.12392 0.03644 0.0
C1393 C 0.93874 0.1038 0.03749 0.0
C1394 C 0.99276 0.1139 0.03168 0.0
C1395 C 0.99425 0.08278 0.02712 0.0
H1396 H 0.96746 0.14825 0.03959 0.0
H1397 H 1.01255 0.13107 0.0317 0.0
S1398 S 0.92958 0.01965 0.02806 0.0
N1399 N 0.91566 0.05039 0.03377 0.0
N1400 N 0.96481 0.03164 0.02468 0.0
C1401 C 0.96704 0.06218 0.02806 0.0
C1402 C 0.9398 0.07253 0.03323 0.0
C1403 C 0.45017 0.48206 0.05822 0.0
C1404 C 0.45068 0.45191 0.06042 0.0
C1405 C 0.4759 0.50321 0.05515 0.0
C1406 C 0.50329 0.49511 0.05383 0.0
H1407 H 0.42963 0.48934 0.05845 0.0
H1408 H 0.47408 0.52581 0.0529 0.0
S1409 S 0.51711 0.4197 0.06054 0.0
N1410 N 0.48154 0.41574 0.06252 0.0
N1411 N 0.52938 0.455 0.05668 0.0
C1412 C 0.5042 0.46528 0.05681 0.0
C1413 C 0.47812 0.44388 0.06012 0.0
C1414 C 0.42001 0.70078 0.77946 0.0
C1415 C 0.40751 0.67002 0.78225 0.0
C1416 C 0.40454 0.72541 0.78107 0.0
C1417 C 0.37431 0.72283 0.78589 0.0
H1418 H 0.44291 0.70645 0.77571 0.0
H1419 H 0.41695 0.74723 0.7783 0.0
S1420 S 0.32824 0.6481 0.79431 0.0
N1421 N 0.36058 0.63967 0.7899 0.0
N1422 N 0.33229 0.68448 0.79295 0.0
C1423 C 0.36107 0.69222 0.78873 0.0
C1424 C 0.37704 0.66678 0.78698 0.0
C1425 C 0.23074 0.58308 0.56254 0.0
C1426 C 0.2456 0.59412 0.53853 0.0
C1427 C 0.19927 0.57545 0.56066 0.0
C1428 C 0.18065 0.57826 0.5346 0.0
H1429 H 0.24351 0.58158 0.58373 0.0
H1430 H 0.18948 0.56767 0.58021 0.0
S1431 S 0.2083 0.60527 0.46474 0.0
N1432 N 0.23863 0.60692 0.48754 0.0
N1433 N 0.18075 0.59232 0.48364 0.0
C1434 C 0.19542 0.58852 0.51011 0.0
C1435 C 0.22729 0.59654 0.51223 0.0
C1436 C 0.81802 1.0038 0.7509 0.0
C1437 C 0.78771 0.9903 0.74866 0.0
C1438 C 0.83909 0.99323 0.76718 0.0
C1439 C 0.83055 0.96893 0.78187 0.0
H1440 H 0.82555 0.0234 0.74101 0.0
H1441 H 0.86211 1.0046 0.76899 0.0
S1442 S 0.75477 0.9226 0.77882 0.0
N1443 N 0.75073 0.94917 0.75973 0.0
N1444 N 0.79042 0.92922 0.79 0.0
C1445 C 0.80059 0.95416 0.77835 0.0
C1446 C 0.77915 0.96485 0.7618 0.0
C1447 C 0.75277 0.92052 0.51159 0.0
C1448 C 0.77626 0.9326 0.53643 0.0
C1449 C 0.73162 0.93705 0.50638 0.0
C1450 C 0.73273 0.96621 0.52599 0.0
H1451 H 0.75088 0.89825 0.49558 0.0
H1452 H 0.71415 0.92686 0.48681 0.0
S1453 S 0.78923 1.00822 0.59461 0.0
N1454 N 0.79906 0.97565 0.58111 0.0
N1455 N 0.75917 1.00656 0.57135 0.0
C1456 C 0.75579 0.97846 0.55119 0.0
C1457 C 0.77757 0.96174 0.55635 0.0
C1458 C 0.37961 0.45832 0.7832 0.0
C1459 C 0.40704 0.464 0.77049 0.0
C1460 C 0.36392 0.42786 0.78501 0.0
C1461 C 0.37438 0.40054 0.7745 0.0
H1462 H 0.37017 0.47763 0.7923 0.0
H1463 H 0.34339 0.42588 0.79529 0.0
S1464 S 0.44383 0.40078 0.73735 0.0
N1465 N 0.44255 0.43728 0.74579 0.0
N1466 N 0.41412 0.38256 0.74948 0.0
C1467 C 0.40138 0.40598 0.76139 0.0
C1468 C 0.41716 0.43658 0.75935 0.0
C1469 C 0.28766 0.65066 0.24531 0.0
C1470 C 0.28608 0.63527 0.21305 0.0
C1471 C 0.29654 0.68251 0.2552 0.0
C1472 C 0.30471 0.70037 0.23344 0.0
H1473 H 0.28102 0.6382 0.26316 0.0
H1474 H 0.29646 0.69329 0.28011 0.0
S1475 S 0.30722 0.67181 0.14693 0.0
N1476 N 0.29531 0.64045 0.15957 0.0
N1477 N 0.31266 0.70085 0.17869 0.0
C1478 C 0.30495 0.68552 0.20147 0.0
C1479 C 0.29545 0.65282 0.19114 0.0
C1480 C 0.55179 0.75206 0.47816 0.0
C1481 C 0.537 0.77158 0.49719 0.0
C1482 C 0.56611 0.73297 0.49099 0.0
C1483 C 0.56595 0.73231 0.52326 0.0
H1484 H 0.55316 0.75208 0.45329 0.0
H1485 H 0.57772 0.71879 0.47553 0.0
S1486 S 0.52861 0.77713 0.58277 0.0
N1487 N 0.52205 0.78828 0.54973 0.0
N1488 N 0.54859 0.75147 0.57373 0.0
C1489 C 0.5508 0.75117 0.54253 0.0
C1490 C 0.53634 0.77095 0.52949 0.0
C1491 C 0.69824 0.30773 0.72331 0.0
C1492 C 0.69833 0.31645 0.69409 0.0
C1493 C 0.72435 0.30648 0.74023 0.0
C1494 C 0.75146 0.31362 0.72839 0.0
H1495 H 0.67776 0.30104 0.73289 0.0
H1496 H 0.72309 0.29872 0.76209 0.0
S1497 S 0.7644 0.34117 0.65497 0.0
N1498 N 0.72843 0.33491 0.65548 0.0
N1499 N 0.7774 0.33238 0.68727 0.0
C1500 C 0.75213 0.32374 0.70001 0.0
C1501 C 0.7256 0.32525 0.68287 0.0
C1502 C 0.05306 0.41141 0.99402 0.0
C1503 C 0.02332 0.39844 0.98204 0.0
C1504 C 0.06342 0.44307 1.00581 0.0
C1505 C 0.04448 0.46314 1.00613 0.0
H1506 H 0.06874 0.39708 0.99382 0.0
H1507 H 0.08665 0.45182 0.01419 0.0
S1508 S 0.96419 0.44072 0.97902 0.0
N1509 N 0.97467 0.40796 0.97245 0.0
N1510 N 0.99415 0.46767 0.99467 0.0
C1511 C 1.01442 0.45045 0.99527 0.0
C1512 C 1.00383 0.41806 0.98322 0.0
C1513 C 0.04256 0.81376 0.17597 0.0
C1514 C 0.04323 0.78825 0.15126 0.0
C1515 C 0.02042 0.81246 0.19615 0.0
C1516 C 0.99847 0.78546 0.19266 0.0
H1517 H 0.05936 0.83487 0.17989 0.0
H1518 H 0.02088 0.83248 0.2151 0.0
S1519 S 0.9897 0.7125 0.13152 0.0
N1520 N 0.01938 0.73531 0.12411 0.0
N1521 N 0.97801 0.73299 0.16231 0.0
C1522 C 0.99857 0.75994 0.16789 0.0
C1523 C 0.02087 0.76131 0.14708 0.0
C1524 C 0.53337 0.32583 0.05675 0.0
C1525 C 0.5461 0.32518 0.08696 0.0
C1526 C 0.54605 0.34787 0.0407 0.0
C1527 C 0.57214 0.37007 0.05405 0.0
H1528 H 0.51307 0.30955 0.0456 0.0
H1529 H 0.53478 0.34806 0.01806 0.0
S1530 S 0.61601 0.37642 0.13107 0.0
N1531 N 0.58739 0.34764 0.12872 0.0
N1532 N 0.61149 0.38852 0.09826 0.0
C1533 C 0.58564 0.36907 0.08379 0.0
C1534 C 0.57258 0.3468 0.10029 0.0
C1535 C 0.03692 0.33977 0.38994 0.0
C1536 C 0.05874 0.32678 0.37539 0.0
C1537 C 1.01315 0.34413 0.37167 0.0
C1538 C 1.01021 0.33557 0.33818 0.0
H1539 H 0.03849 0.34742 0.41566 0.0
H1540 H 0.99713 0.35473 0.38388 0.0
S1541 S 0.05978 0.29824 0.28833 0.0
N1542 N 0.07504 0.30389 0.32537 0.0
N1543 N 0.02987 0.31185 0.29105 0.0
C1544 C 0.03138 0.32189 0.32323 0.0
C1545 C 0.05572 0.31748 0.34184 0.0
C1546 C 0.06808 0.69318 0.58161 0.0
C1547 C 0.04755 0.69402 0.6038 0.0
C1548 C 0.07649 0.66598 0.56862 0.0
C1549 C 0.06507 0.63863 0.5777 0.0
H1550 H 0.07767 0.71371 0.57406 0.0
H1551 H 0.09221 0.66651 0.55142 0.0
S1552 S 1.01134 0.62899 0.63609 0.0
N1553 N 1.01637 0.66542 0.63492 0.0
N1554 N 0.03232 0.61425 0.6108 0.0
C1555 C 0.04469 0.63923 0.6002 0.0
C1556 C 0.03585 0.66691 0.61313 0.0
C1557 C 0.71128 0.82505 0.83727 0.0
C1558 C 0.71585 0.85287 0.8607 0.0
C1559 C 0.73209 0.81962 0.81624 0.0
C1560 C 0.75843 0.84166 0.81814 0.0
H1561 H 0.69176 0.80696 0.83559 0.0
H1562 H 0.72827 0.7973 0.79972 0.0
S1563 S 0.77996 0.91933 0.87289 0.0
N1564 N 0.74776 0.90373 0.88255 0.0
N1565 N 0.78709 0.89314 0.84356 0.0
C1566 C 0.76266 0.8701 0.84033 0.0
C1567 C 0.74133 0.87581 0.86147 0.0
C1568 C 0.50268 0.54522 0.66225 0.0
C1569 C 0.51477 0.5691 0.69026 0.0
C1570 C 0.51675 0.54084 0.633 0.0
C1571 C 0.54412 0.55992 0.62895 0.0
H1572 H 0.48238 0.52909 0.66301 0.0
H1573 H 0.50582 0.52198 0.61318 0.0
S1574 S 0.58512 0.62699 0.69344 0.0
N1575 N 0.55638 0.61273 0.70998 0.0
N1576 N 0.58149 0.6048 0.65712 0.0
C1577 C 0.55594 0.58406 0.65657 0.0
C1578 C 0.54186 0.58841 0.68614 0.0
C1579 C 0.8024 0.14779 0.94626 0.0
C1580 C 0.82631 0.15745 0.97065 0.0
C1581 C 0.79669 0.16695 0.92663 0.0
C1582 C 0.81484 0.19641 0.93036 0.0
H1583 H 0.78749 0.12546 0.94265 0.0
H1584 H 0.7779 0.15864 0.90837 0.0
S1585 S 0.88065 0.2326 0.98994 0.0
N1586 N 0.86864 0.19841 0.9969 0.0
N1587 N 0.85783 0.23435 0.95994 0.0
C1588 C 0.83913 0.20621 0.95418 0.0
C1589 C 0.84486 0.18678 0.97435 0.0
C1590 C 0.17267 0.53239 0.12515 0.0
C1591 C 0.16222 0.52692 0.15345 0.0
C1592 C 0.1548 0.53944 0.10209 0.0
C1593 C 0.12564 0.54138 0.10628 0.0
H1594 H 0.19515 0.53197 0.121 0.0
H1595 H 0.16422 0.54371 0.08089 0.0
S1596 S 0.08686 0.52703 0.1752 0.0
N1597 N 0.12022 0.52229 0.18378 0.0
N1598 N 0.08651 0.53555 0.14007 0.0
C1599 C 0.11438 0.53469 0.1338 0.0
C1600 C 0.13269 0.52744 0.15746 0.0
C1601 C 0.87971 0.84918 0.43648 0.0
C1602 C 0.85784 0.85537 0.45615 0.0
C1603 C 0.87298 0.83667 0.40332 0.0
C1604 C 0.84404 0.83009 0.38784 0.0
H1605 H 0.90252 0.85458 0.44672 0.0
H1606 H 0.89095 0.83308 0.38959 0.0
S1607 S 0.77813 0.84077 0.42832 0.0
N1608 N 0.80559 0.85269 0.45757 0.0
N1609 N 0.79295 0.82969 0.39548 0.0
C1610 C 0.82174 0.8354 0.40733 0.0
C1611 C 0.8286 0.84782 0.4413 0.0
C1612 C 0.52491 0.53876 0.87598 0.0
C1613 C 0.50872 0.56096 0.87124 0.0
C1614 C 0.53884 0.538 0.90637 0.0
C1615 C 0.538 0.55934 0.93533 0.0
H1616 H 0.52688 0.52107 0.85562 0.0
H1617 H 0.55037 0.51998 0.90701 0.0
S1618 S 0.49938 0.62329 0.93853 0.0
N1619 N 0.49352 0.60561 0.90021 0.0
N1620 N 0.51915 0.6044 0.95628 0.0
C1621 C 0.52215 0.58203 0.93122 0.0
C1622 C 0.50788 0.58281 0.89995 0.0
C1623 C 0.84264 0.23652 0.13112 0.0
C1624 C 0.8422 0.20528 0.12977 0.0
C1625 C 0.83719 0.25662 0.15875 0.0
C1626 C 0.83043 0.24641 0.18633 0.0
H1627 H 0.84714 0.24567 0.11049 0.0
H1628 H 0.83787 0.28025 0.15828 0.0
S1629 S 0.82806 0.16741 0.19646 0.0
N1630 N 0.8357 0.16576 0.15953 0.0
N1631 N 0.82513 0.20293 0.21092 0.0
C1632 C 0.83035 0.21534 0.18552 0.0
C1633 C 0.83631 0.19502 0.15752 0.0
C1634 C 0.17437 0.59797 0.30268 0.0
C1635 C 0.1838 0.57106 0.29022 0.0
C1636 C 0.15649 0.59942 0.32731 0.0
C1637 C 0.14736 0.57399 0.34033 0.0
H1638 H 0.18103 0.61824 0.29358 0.0
H1639 H 0.15013 0.62075 0.33656 0.0
S1640 S 0.16417 0.49743 0.31482 0.0
N1641 N 0.18162 0.51793 0.29202 0.0
N1642 N 0.14767 0.52066 0.33802 0.0
C1643 C 0.1562 0.54679 0.32782 0.0
C1644 C 0.1745 0.54532 0.30283 0.0
C1645 C 0.81053 0.83619 0.64141 0.0
C1646 C 0.83315 0.86043 0.63752 0.0
C1647 C 0.80893 0.82706 0.67047 0.0
C1648 C 0.82946 0.8421 0.69765 0.0
H1649 H 0.79383 0.82381 0.62163 0.0
H1650 H 0.7912 0.80805 0.67164 0.0
S1651 S 0.8933 0.90691 0.70077 0.0
N1652 N 0.87694 0.8991 0.66387 0.0
N1653 N 0.87359 0.8825 0.71842 0.0
C1654 C 0.85214 0.86654 0.6943 0.0
C1655 C 0.8541 0.87549 0.66438 0.0
C1656 C 0.69619 0.48467 0.5163 0.0
C1657 C 0.72453 0.50505 0.52065 0.0
C1658 C 0.66972 0.49458 0.52242 0.0
C1659 C 0.66912 0.5258 0.53397 0.0
H1660 H 0.69413 0.46021 0.50771 0.0
H1661 H 0.64927 0.47726 0.5178 0.0
S1662 S 0.73644 0.58982 0.54961 0.0
N1663 N 0.74944 0.55898 0.53731 0.0
N1664 N 0.70056 0.57748 0.54901 0.0
C1665 C 0.69725 0.54669 0.53851 0.0
C1666 C 0.72439 0.53649 0.5319 0.0
C1667 C 0.21164 0.10863 0.49681 0.0
C1668 C 0.21791 0.14101 0.50269 0.0
C1669 C 0.18369 0.09121 0.49951 0.0
C1670 C 0.16051 0.10521 0.50846 0.0
H1671 H 0.22864 0.09645 0.49043 0.0
H1672 H 0.18055 0.06652 0.49529 0.0
S1673 S 0.16447 0.18922 0.52485 0.0
N1674 N 0.19778 0.18624 0.51659 0.0
N1675 N 0.14554 0.15379 0.52175 0.0
C1676 C 0.16619 0.13757 0.51363 0.0
C1677 C 0.19469 0.15532 0.51072 0.0
C1678 C 0.23533 0.90381 0.77356 0.0
C1679 C 0.24903 0.93551 0.77521 0.0
C1680 C 0.25046 0.87894 0.77202 0.0
C1681 C 0.28147 0.88235 0.77183 0.0
H1682 H 0.21173 0.89759 0.77354 0.0
H1683 H 0.23718 0.85632 0.77109 0.0
S1684 S 0.33051 0.95956 0.77599 0.0
N1685 N 0.2977 0.96752 0.77663 0.0
N1686 N 0.32544 0.92235 0.77384 0.0
C1687 C 0.29585 0.91389 0.77347 0.0
C1688 C 0.28023 0.9395 0.77507 0.0
C1689 C 0.43397 0.02998 0.99741 0.0
C1690 C 0.42027 0.02001 0.02272 0.0
C1691 C 0.46543 0.03723 0.99761 0.0
C1692 C 0.48513 0.03462 0.0229 0.0
H1693 H 0.42032 0.03128 0.97677 0.0
H1694 H 0.47432 0.04424 0.97726 0.0
S1695 S 0.46132 1.01295 0.09671 0.0
N1696 N 0.43014 1.01075 0.07518 0.0
N1697 N 0.48752 0.02344 0.07512 0.0
C1698 C 0.47159 0.02568 0.04864 0.0
C1699 C 0.43992 0.01867 0.04863 0.0
C1700 C 0.87104 0.62583 0.77473 0.0
C1701 C 0.86563 0.60695 0.79626 0.0
C1702 C 0.84911 0.63853 0.76332 0.0
C1703 C 0.82083 0.63294 0.77295 0.0
H1704 H 0.89241 0.6309 0.76644 0.0
H1705 H 0.85457 0.65342 0.74728 0.0
S1706 S 0.7949 0.58509 0.82867 0.0
N1707 N 0.82959 0.58323 0.82676 0.0
N1708 N 0.78831 0.6073 0.80506 0.0
C1709 C 0.81499 0.61427 0.79453 0.0
C1710 C 0.83738 0.60122 0.80622 0.0
C1711 C 0.91012 0.69692 0.04674 0.0
C1712 C 0.88178 0.682 0.03077 0.0
C1713 C 0.93075 0.68026 0.0534 0.0
C1714 C 0.92382 0.64796 0.04476 0.0
H1715 H 0.91643 0.72174 0.05457 0.0
H1716 H 0.95208 0.69279 0.06606 0.0
S1717 S 0.85377 0.59762 1.00034 0.0
N1718 N 0.84863 0.63276 1.00489 0.0
N1719 N 0.88741 0.60165 0.01754 0.0
C1720 C 0.89593 0.63272 0.02805 0.0
C1721 C 0.87496 0.64966 0.02101 0.0
C1722 C 0.28215 0.15077 0.78368 0.0
C1723 C 0.25145 0.14223 0.78629 0.0
C1724 C 0.29751 0.18198 0.78414 0.0
C1725 C 0.28354 0.20728 0.78717 0.0
H1726 H 0.29441 0.13302 0.78017 0.0
H1727 H 0.32072 0.18612 0.78144 0.0
S1728 S 0.20401 0.19901 0.79717 0.0
N1729 N 0.20859 0.16382 0.79381 0.0
N1730 N 0.23648 0.22014 0.79445 0.0
C1731 C 0.25315 0.199 0.7906 0.0
C1732 C 0.23764 0.16757 0.79018 0.0
C1733 C 0.3688 0.93298 0.35316 0.0
C1734 C 0.3662 0.95396 0.33449 0.0
C1735 C 0.35639 0.90152 0.34136 0.0
C1736 C 0.34091 0.89 0.3105 0.0
H1737 H 0.38166 0.94063 0.37646 0.0
H1738 H 0.36011 0.88606 0.35603 0.0
S1739 S 0.32376 0.93607 0.25417 0.0
N1740 N 0.34404 0.9615 0.28511 0.0
N1741 N 0.32063 0.90246 0.26306 0.0
C1742 C 0.33649 0.91099 0.29244 0.0
C1743 C 0.34915 0.94297 0.30441 0.0
C1744 C 0.60652 0.32281 0.50512 0.0
C1745 C 0.62655 0.33759 0.53264 0.0
C1746 C 0.59488 0.33988 0.48645 0.0
C1747 C 0.60329 0.37216 0.4945 0.0
H1748 H 0.59779 0.29818 0.49955 0.0
H1749 H 0.57752 0.32796 0.46717 0.0
S1750 S 0.65969 0.42104 0.56049 0.0
N1751 N 0.65783 0.38564 0.56408 0.0
N1752 N 0.63605 0.41784 0.52915 0.0
C1753 C 0.62583 0.38684 0.51982 0.0
C1754 C 0.63742 0.36949 0.53893 0.0
C1755 C 0.42729 0.76529 0.35054 0.0
C1756 C 0.44985 0.79215 0.36046 0.0
C1757 C 0.40275 0.76411 0.32949 0.0
C1758 C 0.40032 0.7895 0.3171 0.0
H1759 H 0.42809 0.74542 0.35993 0.0
H1760 H 0.38536 0.74332 0.32324 0.0
S1761 S 0.45452 0.86449 0.33397 0.0
N1762 N 0.46896 0.84422 0.35521 0.0
N1763 N 0.42307 0.84181 0.31529 0.0
C1764 C 0.42331 0.81605 0.32583 0.0
C1765 C 0.44801 0.81743 0.34765 0.0
C1766 C 0.15307 0.69755 0.06786 0.0
C1767 C 0.13278 0.71627 0.06797 0.0
C1768 C 0.14417 0.66566 0.05551 0.0
C1769 C 0.11484 0.65178 0.04286 0.0
H1770 H 0.17556 0.7073 0.07882 0.0
H1771 H 0.15984 0.65165 0.05752 0.0
S1772 S 0.05429 0.69047 0.03284 0.0
N1773 N 0.08278 0.71855 0.05057 0.0
N1774 N 0.06634 0.65863 0.02793 0.0
C1775 C 0.09489 0.67023 0.04084 0.0
C1776 C 0.10381 0.70256 0.05321 0.0
C1777 C 0.13378 0.33435 0.917 0.0
C1778 C 0.10793 0.31085 0.90752 0.0
C1779 C 0.15683 0.33616 0.89806 0.0
C1780 C 0.15509 0.31428 0.8692 0.0
H1781 H 0.13593 0.35212 0.93874 0.0
H1782 H 0.17606 0.35502 0.90587 0.0
S1783 S 0.09318 0.2472 0.83442 0.0
N1784 N 0.08257 0.26445 0.86785 0.0
N1785 N 0.12618 0.26782 0.83245 0.0
C1786 C 0.12991 0.29007 0.85992 0.0
C1787 C 0.10624 0.28838 0.87901 0.0
C1788 C 0.60389 0.76179 0.97067 0.0
C1789 C 0.62474 0.78824 0.98779 0.0
C1790 C 0.59167 0.73861 0.9854 0.0
C1791 C 0.60002 0.74064 0.01783 0.0
H1792 H 0.59659 0.75907 0.94568 0.0
H1793 H 0.57549 0.71885 0.97119 0.0
S1794 S 0.65485 0.80454 0.07299 0.0
N1795 N 0.65354 0.81503 0.03889 0.0
N1796 N 0.63124 0.77091 0.06639 0.0
C1797 C 0.62091 0.76695 0.03528 0.0
C1798 C 0.63314 0.79082 0.02031 0.0
C1799 C 0.08979 0.7816 0.74706 0.0
C1800 C 0.07297 0.75415 0.72691 0.0
C1801 C 0.11605 0.7821 0.765 0.0
C1802 C 0.12678 0.75531 0.76276 0.0
H1803 H 0.08289 0.80291 0.74852 0.0
H1804 H 0.12862 0.80389 0.7798 0.0
S1805 S 0.09057 0.67756 0.71265 0.0
N1806 N 0.0681 0.69941 0.70617 0.0
N1807 N 0.11809 0.70047 0.73844 0.0
C1808 C 0.10956 0.72751 0.74323 0.0
C1809 C 0.08253 0.72693 0.72558 0.0
C1810 C 0.11349 0.44163 0.4289 0.0
C1811 C 0.12715 0.42326 0.44433 0.0
C1812 C 0.10311 0.46603 0.44623 0.0
C1813 C 0.10583 0.47316 0.4798 0.0
H1814 H 0.11046 0.43702 0.4031 0.0
H1815 H 0.09288 0.47939 0.43302 0.0
S1816 S 0.14041 0.43242 0.53193 0.0
N1817 N 0.14328 0.4142 0.49531 0.0
N1818 N 0.1237 0.45986 0.52791 0.0
C1819 C 0.11968 0.4551 0.49562 0.0
C1820 C 0.13038 0.43029 0.47791 0.0
C1821 C 0.43647 0.24479 0.22668 0.0
C1822 C 0.44463 0.25889 0.20167 0.0
C1823 C 0.41312 0.25127 0.24369 0.0
C1824 C 0.3974 0.27219 0.23631 0.0
H1825 H 0.4489 0.22959 0.23408 0.0
H1826 H 0.40836 0.24114 0.26366 0.0
S1827 S 0.40628 0.31113 0.16983 0.0
N1828 N 0.43226 0.29166 0.16803 0.0
N1829 N 0.38887 0.30395 0.20014 0.0
C1830 C 0.40399 0.28478 0.21013 0.0
C1831 C 0.42748 0.27811 0.19275 0.0
C1832 C 0.63995 0.52497 0.38864 0.0
C1833 C 0.65835 0.552 0.3831 0.0
C1834 C 0.62293 0.52515 0.41569 0.0
C1835 C 0.62263 0.55233 0.43958 0.0
H1836 H 0.63932 0.50309 0.37251 0.0
H1837 H 0.61024 0.50334 0.41818 0.0
S1838 S 0.66503 0.62998 0.43646 0.0
N1839 N 0.67319 0.60724 0.40482 0.0
N1840 N 0.64247 0.60738 0.45352 0.0
C1841 C 0.64035 0.57936 0.43371 0.0
C1842 C 0.65757 0.57921 0.40651 0.0
C1843 C 0.30172 0.89066 0.0543 0.0
C1844 C 0.31344 0.92248 0.05929 0.0
C1845 C 0.30907 0.87438 0.07636 0.0
C1846 C 0.32831 0.88924 0.10443 0.0
H1847 H 0.2871 0.87798 0.03289 0.0
H1848 H 0.29968 0.84989 0.07132 0.0
S1849 S 0.3649 0.97215 0.12938 0.0
N1850 N 0.34506 0.9683 0.09506 0.0
N1851 N 0.35889 0.93751 0.13627 0.0
C1852 C 0.33977 0.92108 0.11015 0.0
C1853 C 0.33236 0.93773 0.08766 0.0
C1854 C 1.0033 0.53129 0.89426 0.0
C1855 C 0.98287 0.54995 0.89569 0.0
C1856 C 0.02603 0.53663 0.91899 0.0
C1857 C 0.02926 0.56083 0.94625 0.0
H1858 H 1.00152 0.51195 0.8741 0.0
H1859 H 0.04051 0.52093 0.91711 0.0
S1860 S 0.98326 0.61823 0.96056 0.0
N1861 N 0.96852 0.59491 0.92576 0.0
N1862 N 1.01131 0.6051 0.97225 0.0
C1863 C 1.00969 0.58047 0.94749 0.0
C1864 C 0.98648 0.57499 0.92225 0.0
C1865 C 0.27671 0.26474 0.63068 0.0
C1866 C 0.2983 0.25982 0.61024 0.0
C1867 C 0.28394 0.27605 0.66393 0.0
C1868 C 0.31314 0.28252 0.67866 0.0
H1869 H 0.25374 0.25924 0.62096 0.0
H1870 H 0.26619 0.27869 0.67829 0.0
S1871 S 0.37844 0.27491 0.63601 0.0
N1872 N 0.35053 0.26363 0.60728 0.0
N1873 N 0.36412 0.28432 0.66959 0.0
C1874 C 0.33515 0.27848 0.65843 0.0
C1875 C 0.32777 0.26736 0.62439 0.0
C1876 C 0.6354 0.56796 0.18589 0.0
C1877 C 0.652 0.54619 0.1908 0.0
C1878 C 0.62164 0.56852 0.15539 0.0
C1879 C 0.62327 0.54749 0.1265 0.0
H1880 H 0.63292 0.58543 0.20621 0.0
H1881 H 0.60969 0.58618 0.15457 0.0
S1882 S 0.66317 0.48459 0.12387 0.0
N1883 N 0.66828 0.5021 0.16222 0.0
N1884 N 0.64334 0.50322 0.10583 0.0
C1885 C 0.63962 0.52526 0.1308 0.0
C1886 C 0.65354 0.52456 0.16222 0.0
C1887 C 0.30745 0.89639 0.90561 0.0
C1888 C 0.33371 0.91302 0.92515 0.0
C1889 C 0.30721 0.8716 0.8793 0.0
C1890 C 0.33325 0.86237 0.87091 0.0
H1891 H 0.28681 0.90227 0.91088 0.0
H1892 H 0.28634 0.85991 0.86507 0.0
S1893 S 0.40815 0.8988 0.91359 0.0
N1894 N 0.38673 0.91845 0.93357 0.0
N1895 N 0.3861 0.87257 0.88456 0.0
C1896 C 0.35964 0.879 0.8901 0.0
C1897 C 0.35989 0.904 0.91699 0.0
C1898 C 0.97034 0.54156 0.74004 0.0
C1899 C 0.98217 0.56039 0.77047 0.0
C1900 C 0.98804 0.53702 0.71552 0.0
C1901 C 0.01825 0.55084 0.72064 0.0
H1902 H 0.9472 0.53018 0.73504 0.0
H1903 H 0.9781 0.52223 0.69249 0.0
S1904 S 0.06005 0.60294 0.79527 0.0
N1905 N 0.02607 0.59354 0.80398 0.0
N1906 N 0.05926 0.5848 0.75765 0.0
C1907 C 0.0304 0.56991 0.7507 0.0
C1908 C 1.01236 0.57479 0.77567 0.0
C1909 C 0.30528 0.24915 0.4051 0.0
C1910 C 0.32942 0.25775 0.4292 0.0
C1911 C 0.30726 0.258 0.37582 0.0
C1912 C 0.33338 0.27626 0.36907 0.0
H1913 H 0.28472 0.23498 0.40861 0.0
H1914 H 0.28791 0.25043 0.35831 0.0
S1915 S 0.40288 0.30604 0.42443 0.0
N1916 N 0.38037 0.28636 0.44421 0.0
N1917 N 0.38383 0.30303 0.38987 0.0
C1918 C 0.35756 0.28536 0.39315 0.0
C1919 C 0.35564 0.27614 0.42286 0.0
C1920 C 0.44178 0.57199 0.53096 0.0
C1921 C 0.44085 0.60346 0.54012 0.0
C1922 C 0.46882 0.56219 0.52619 0.0
C1923 C 0.49691 0.58307 0.53037 0.0
H1924 H 0.42138 0.55465 0.52686 0.0
H1925 H 0.4676 0.53776 0.51929 0.0
S1926 S 0.50777 0.66808 0.55604 0.0
N1927 N 0.47189 0.6553 0.55419 0.0
N1928 N 0.52105 0.63725 0.54566 0.0
C1929 C 0.49616 0.61446 0.54001 0.0
C1930 C 0.46887 0.6244 0.54468 0.0
C1931 C 0.94695 0.98181 0.55168 0.0
C1932 C 0.94881 0.95692 0.56538 0.0
C1933 C 0.97239 1.00275 0.54751 0.0
C1934 C 1.00085 0.99957 0.55655 0.0
H1935 H 0.92566 0.9849 0.54354 0.0
H1936 H 0.96972 0.02094 0.53611 0.0
S1937 S 0.0183 0.94059 0.5966 0.0
N1938 N 0.98203 0.9321 0.59024 0.0
N1939 N 0.02929 0.97089 0.58207 0.0
C1940 C 1.00304 0.97545 0.5712 0.0
C1941 C 0.97724 0.95434 0.5757 0.0
C1942 C 0.87681 0.16711 0.28677 0.0
C1943 C 0.90763 0.17043 0.28335 0.0
C1944 C 0.86097 0.19193 0.28793 0.0
C1945 C 0.87405 0.22282 0.28573 0.0
H1946 H 0.86457 0.14514 0.28931 0.0
H1947 H 0.83779 0.18655 0.29063 0.0
S1948 S 0.9536 0.2456 0.27545 0.0
N1949 N 0.9495 0.20937 0.27703 0.0
N1950 N 0.921 0.25333 0.27907 0.0
C1951 C 0.90453 0.22608 0.28186 0.0
C1952 C 0.92057 0.20118 0.28081 0.0
C1953 C 0.72713 0.10069 0.0748 0.0
C1954 C 0.74481 0.096 0.04971 0.0
C1955 C 0.69586 0.09266 0.06976 0.0
C1956 C 0.67984 0.0801 0.03907 0.0
H1957 H 0.73766 0.11128 0.09893 0.0
H1958 H 0.68414 0.09717 0.09034 0.0
S1959 S 0.7148 0.06307 0.96442 0.0
N1960 N 0.74322 0.07742 0.99248 0.0
N1961 N 0.68501 0.06296 0.98281 0.0
C1962 C 0.69718 0.07499 0.01359 0.0
C1963 C 0.72926 0.08271 0.0189 0.0
C1964 C 0.31377 0.49692 0.24317 0.0
C1965 C 0.28505 0.48786 0.25111 0.0
C1966 C 0.33753 0.48817 0.25706 0.0
C1967 C 0.33343 0.47043 0.27964 0.0
H1968 H 0.3181 0.51125 0.22642 0.0
H1969 H 0.35925 0.49549 0.25031 0.0
S1970 S 0.26263 0.43813 0.30647 0.0
N1971 N 0.25384 0.45825 0.28155 0.0
N1972 N 0.29853 0.44198 0.30757 0.0
C1973 C 0.30485 0.4605 0.28717 0.0
C1974 C 0.28064 0.46914 0.2729 0.0
C1975 C 0.24993 0.42025 0.02138 0.0
C1976 C 0.27939 0.43481 0.0338 0.0
C1977 C 0.22965 0.43708 0.0141 0.0
C1978 C 0.23801 0.46915 0.01856 0.0
H1979 H 0.24241 0.39553 0.01692 0.0
H1980 H 0.20738 0.42476 1.00419 0.0
S1981 S 0.31179 0.51884 0.05192 0.0
N1982 N 0.31542 0.48371 0.05138 0.0
N1983 N 0.2773 0.51511 0.03752 0.0
C1984 C 0.26716 0.48414 0.03146 0.0
C1985 C 0.28781 0.46707 0.03916 0.0
C1986 C 0.87868 0.95706 0.27853 0.0
C1987 C 0.90873 0.96425 0.27278 0.0
C1988 C 0.86302 0.92644 0.27988 0.0
C1989 C 0.87603 0.90041 0.27574 0.0
H1990 H 0.86706 0.97533 0.28248 0.0
H1991 H 0.84033 0.92332 0.28465 0.0
S1992 S 0.95345 0.90477 0.25838 0.0
N1993 N 0.94985 0.94026 0.26161 0.0
N1994 N 0.92141 0.88526 0.26448 0.0
C1995 C 0.90577 0.90732 0.26959 0.0
C1996 C 0.92158 0.93809 0.26805 0.0
C1997 C 0.81357 0.15508 0.71835 0.0
C1998 C 0.78464 0.14166 0.70375 0.0
C1999 C 0.8236 0.18706 0.72805 0.0
C2000 C 0.80458 0.20626 0.72437 0.0
H2001 H 0.82811 0.14076 0.72336 0.0
H2002 H 0.84567 0.1967 0.74034 0.0
S2003 S 0.72732 0.18232 0.68624 0.0
N2004 N 0.73771 0.14979 0.68433 0.0
N2005 N 0.75624 0.21 0.7038 0.0
C2006 C 0.776 0.19315 0.70874 0.0
C2007 C 0.76608 0.16071 0.69806 0.0
loop_
_geom_bond_atom_site_label_1
_geom_bond_atom_site_label_2
_geom_bond_distance
_geom_bond_site_symmetry_2
_ccdc_geom_bond_type
C0 O1 1.160 . S
C0 O7 1.185 . S
O1 C0 1.160 . S
O2 Zn3 1.899 . S
O2 C10 1.284 . S
Zn3 O2 1.899 . S
Zn3 O4 2.032 . S
Zn3 O7 2.086 . S
Zn3 O12 1.977 . S
O4 Zn3 2.032 . S
O4 C8 1.278 . S
C5 O6 1.203 . S
C5 O12 1.267 . S
O6 C5 1.203 . S
O7 C0 1.185 . S
O7 Zn3 2.086 . S
C8 O4 1.278 . S
C8 O9 1.211 . S
O9 C8 1.211 . S
C10 O2 1.284 . S
C10 O11 1.273 . S
O11 C10 1.273 . S
O12 Zn3 1.977 . S
O12 C5 1.267 . S
C13 O14 1.160 . S
C13 O20 1.185 . S
O14 C13 1.160 . S
O15 Zn16 1.899 . S
O15 C23 1.284 . S
Zn16 O15 1.899 . S
Zn16 O17 2.032 . S
Zn16 O20 2.086 . S
Zn16 O25 1.977 1_655 S
O17 Zn16 2.032 . S
O17 C21 1.278 1_655 S
C18 O19 1.203 . S
C18 O25 1.267 . S
O19 C18 1.203 . S
O20 C13 1.185 . S
O20 Zn16 2.086 . S
C21 O17 1.278 1_455 S
C21 O22 1.211 . S
O22 C21 1.211 . S
C23 O15 1.284 . S
C23 O24 1.273 1_655 S
O24 C23 1.273 1_455 S
O25 Zn16 1.977 1_455 S
O25 C18 1.267 . S
C26 O27 1.160 . S
C26 O33 1.185 . S
O27 C26 1.160 . S
O28 Zn29 1.899 . S
O28 C36 1.284 . S
Zn29 O28 1.899 . S
Zn29 O30 2.032 . S
Zn29 O33 2.086 . S
Zn29 O38 1.977 . S
O30 Zn29 2.032 . S
O30 C34 1.278 . S
C31 O32 1.203 . S
C31 O38 1.267 . S
O32 C31 1.203 . S
O33 C26 1.185 . S
O33 Zn29 2.086 . S
C34 O30 1.278 . S
C34 O35 1.211 . S
O35 C34 1.211 . S
C36 O28 1.284 . S
C36 O37 1.273 . S
O37 C36 1.273 . S
O38 Zn29 1.977 . S
O38 C31 1.267 . S
C39 O40 1.160 . S
C39 O46 1.185 . S
O40 C39 1.160 . S
O41 Zn42 1.899 . S
O41 C49 1.284 . S
Zn42 O41 1.899 . S
Zn42 O43 2.032 . S
Zn42 O46 2.086 . S
Zn42 O51 1.977 . S
O43 Zn42 2.032 . S
O43 C47 1.278 . S
C44 O45 1.203 . S
C44 O51 1.267 . S
O45 C44 1.203 . S
O46 C39 1.185 . S
O46 Zn42 2.086 . S
C47 O43 1.278 . S
C47 O48 1.211 . S
O48 C47 1.211 . S
C49 O41 1.284 . S
C49 O50 1.273 . S
O50 C49 1.273 . S
O51 Zn42 1.977 . S
O51 C44 1.267 . S
C52 O53 1.160 . S
C52 O59 1.185 . S
O53 C52 1.160 . S
O54 Zn55 1.899 . S
O54 C62 1.284 . S
Zn55 O54 1.899 . S
Zn55 O56 2.032 . S
Zn55 O59 2.086 . S
Zn55 O64 1.977 . S
O56 Zn55 2.032 . S
O56 C60 1.278 . S
C57 O58 1.203 . S
C57 O64 1.267 . S
O58 C57 1.203 . S
O59 C52 1.185 . S
O59 Zn55 2.086 . S
C60 O56 1.278 . S
C60 O61 1.211 . S
O61 C60 1.211 . S
C62 O54 1.284 . S
C62 O63 1.273 . S
O63 C62 1.273 . S
O64 Zn55 1.977 . S
O64 C57 1.267 . S
C65 O66 1.160 . S
C65 O72 1.185 . S
O66 C65 1.160 . S
O67 Zn68 1.899 . S
O67 C75 1.284 . S
Zn68 O67 1.899 . S
Zn68 O69 2.032 . S
Zn68 O72 2.086 . S
Zn68 O77 1.977 . S
O69 Zn68 2.032 . S
O69 C73 1.278 . S
C70 O71 1.203 . S
C70 O77 1.267 . S
O71 C70 1.203 . S
O72 C65 1.185 . S
O72 Zn68 2.086 . S
C73 O69 1.278 . S
C73 O74 1.211 . S
O74 C73 1.211 . S
C75 O67 1.284 . S
C75 O76 1.273 . S
O76 C75 1.273 . S
O77 Zn68 1.977 . S
O77 C70 1.267 . S
C78 O79 1.160 . S
C78 O85 1.185 . S
O79 C78 1.160 . S
O80 Zn81 1.899 . S
O80 C88 1.284 . S
Zn81 O80 1.899 . S
Zn81 O82 2.032 . S
Zn81 O85 2.086 . S
Zn81 O90 1.977 . S
O82 Zn81 2.032 . S
O82 C86 1.278 . S
C83 O84 1.203 . S
C83 O90 1.267 . S
O84 C83 1.203 . S
O85 C78 1.185 . S
O85 Zn81 2.086 . S
C86 O82 1.278 . S
C86 O87 1.211 . S
O87 C86 1.211 . S
C88 O80 1.284 . S
C88 O89 1.273 . S
O89 C88 1.273 . S
O90 Zn81 1.977 . S
O90 C83 1.267 . S
C91 O92 1.160 . S
C91 O98 1.185 . S
O92 C91 1.160 . S
O93 Zn94 1.899 . S
O93 C101 1.284 . S
Zn94 O93 1.899 . S
Zn94 O95 2.032 . S
Zn94 O98 2.086 . S
Zn94 O103 1.977 1_455 S
O95 Zn94 2.032 . S
O95 C99 1.278 . S
C96 O97 1.203 . S
C96 O103 1.267 . S
O97 C96 1.203 . S
O98 C91 1.185 . S
O98 Zn94 2.086 . S
C99 O95 1.278 . S
C99 O100 1.176 1_455 S
O100 C99 1.176 1_655 S
C101 O93 1.284 . S
C101 O102 1.273 . S
O102 C101 1.273 . S
O103 Zn94 1.977 1_655 S
O103 C96 1.267 . S
C104 O105 1.160 . S
C104 O111 1.185 . S
O105 C104 1.160 . S
O106 Zn107 1.901 1_565 S
O106 C114 1.289 . S
Zn107 O106 1.901 1_545 S
Zn107 O108 2.032 . S
Zn107 O111 2.086 . S
Zn107 O116 1.977 1_545 S
O108 Zn107 2.032 . S
O108 C112 1.278 . S
C109 O110 1.203 . S
C109 O116 1.267 . S
O110 C109 1.203 . S
O111 C104 1.185 . S
O111 Zn107 2.086 . S
C112 O108 1.278 . S
C112 O113 1.211 1_545 S
O113 C112 1.211 1_565 S
C114 O106 1.289 . S
C114 O115 1.273 . S
O115 C114 1.273 . S
O116 Zn107 1.977 1_565 S
O116 C109 1.267 . S
C117 O118 1.160 . S
C117 O124 1.185 . S
O118 C117 1.160 . S
O119 Zn120 1.899 . S
O119 C127 1.284 . S
Zn120 O119 1.899 . S
Zn120 O121 2.032 . S
Zn120 O124 2.086 . S
Zn120 O129 1.977 . S
O121 Zn120 2.032 . S
O121 C125 1.278 . S
C122 O123 1.203 . S
C122 O129 1.267 . S
O123 C122 1.203 . S
O124 C117 1.185 . S
O124 Zn120 2.086 . S
C125 O121 1.278 . S
C125 O126 1.211 . S
O126 C125 1.211 . S
C127 O119 1.284 . S
C127 O128 1.273 . S
O128 C127 1.273 . S
O129 Zn120 1.977 . S
O129 C122 1.267 . S
C130 O131 1.160 . S
C130 O137 1.185 . S
O131 C130 1.160 . S
O132 Zn133 1.899 . S
O132 C140 1.284 . S
Zn133 O132 1.899 . S
Zn133 O134 2.032 . S
Zn133 O137 2.086 1_545 S
Zn133 O142 1.977 . S
O134 Zn133 2.032 . S
O134 C138 1.278 . S
C135 O136 1.203 . S
C135 O142 1.267 . S
O136 C135 1.203 . S
O137 C130 1.185 . S
O137 Zn133 2.086 1_565 S
C138 O134 1.278 . S
C138 O139 1.211 . S
O139 C138 1.211 . S
C140 O132 1.284 . S
C140 O141 1.273 . S
O141 C140 1.273 . S
O142 Zn133 1.977 . S
O142 C135 1.267 . S
C143 O144 1.160 . S
C143 O150 1.185 . S
O144 C143 1.160 . S
O145 Zn146 1.899 . S
O145 C153 1.284 . S
Zn146 O145 1.899 . S
Zn146 O147 2.032 1_554 S
Zn146 O150 2.086 . S
Zn146 O155 1.977 . S
O147 Zn146 2.032 1_556 S
O147 C151 1.278 . S
C148 O149 1.203 . S
C148 O155 1.267 . S
O149 C148 1.203 . S
O150 C143 1.185 . S
O150 Zn146 2.086 . S
C151 O147 1.278 . S
C151 O152 1.211 . S
O152 C151 1.211 . S
C153 O145 1.284 . S
C153 O154 1.273 . S
O154 C153 1.273 . S
O155 Zn146 1.977 . S
O155 C148 1.267 . S
C156 O157 1.160 . S
C156 O163 1.185 . S
O157 C156 1.160 . S
O158 Zn159 1.899 . S
O158 C166 1.284 . S
Zn159 O158 1.899 . S
Zn159 O160 2.032 1_554 S
Zn159 O163 2.086 . S
Zn159 O168 1.977 . S
O160 Zn159 2.032 1_556 S
O160 C164 1.278 . S
C161 O162 1.203 . S
C161 O168 1.267 . S
O162 C161 1.203 . S
O163 C156 1.185 . S
O163 Zn159 2.086 . S
C164 O160 1.278 . S
C164 O165 1.211 . S
O165 C164 1.211 . S
C166 O158 1.284 . S
C166 O167 1.273 . S
O167 C166 1.273 . S
O168 Zn159 1.977 . S
O168 C161 1.267 . S
C169 O170 1.160 . S
C169 O176 1.185 . S
O170 C169 1.160 . S
O171 Zn172 1.899 . S
O171 C179 1.284 . S
Zn172 O171 1.899 . S
Zn172 O173 2.032 . S
Zn172 O176 2.086 . S
Zn172 O181 1.977 . S
O173 Zn172 2.032 . S
O173 C177 1.278 1_554 S
C174 O175 1.203 . S
C174 O181 1.267 . S
O175 C174 1.203 . S
O176 C169 1.185 . S
O176 Zn172 2.086 . S
C177 O173 1.278 1_556 S
C177 O178 1.211 . S
O178 C177 1.211 . S
C179 O171 1.284 . S
C179 O180 1.273 . S
O180 C179 1.273 . S
O181 Zn172 1.977 . S
O181 C174 1.267 . S
C182 O183 1.160 . S
C182 O189 1.185 . S
O183 C182 1.160 . S
O184 Zn185 1.899 . S
O184 C192 1.284 . S
Zn185 O184 1.899 . S
Zn185 O186 2.032 . S
Zn185 O189 2.086 . S
Zn185 O194 1.977 . S
O186 Zn185 2.032 . S
O186 C190 1.278 . S
C187 O188 1.203 . S
C187 O194 1.267 . S
O188 C187 1.203 . S
O189 C182 1.185 . S
O189 Zn185 2.086 . S
C190 O186 1.278 . S
C190 O191 1.211 . S
O191 C190 1.211 . S
C192 O184 1.284 . S
C192 O193 1.273 . S
O193 C192 1.273 . S
O194 Zn185 1.977 . S
O194 C187 1.267 . S
C195 O196 1.160 . S
C195 O202 1.185 . S
O196 C195 1.160 . S
O197 Zn198 1.899 . S
O197 C205 1.284 . S
Zn198 O197 1.899 . S
Zn198 O199 2.032 . S
Zn198 O202 2.086 . S
Zn198 O207 1.977 . S
O199 Zn198 2.032 . S
O199 C203 1.278 . S
C200 O201 1.203 . S
C200 O207 1.267 . S
O201 C200 1.203 . S
O202 C195 1.185 . S
O202 Zn198 2.086 . S
C203 O199 1.278 . S
C203 O204 1.211 . S
O204 C203 1.211 . S
C205 O197 1.284 . S
C205 O206 1.273 . S
O206 C205 1.273 . S
O207 Zn198 1.977 . S
O207 C200 1.267 . S
C208 O209 1.160 . S
C208 O215 1.185 . S
O209 C208 1.160 . S
O210 Zn211 1.899 . S
O210 C218 1.284 . S
Zn211 O210 1.899 . S
Zn211 O212 2.032 . S
Zn211 O215 2.086 . S
Zn211 O220 1.977 . S
O212 Zn211 2.032 . S
O212 C216 1.278 . S
C213 O214 1.197 1_545 S
C213 O220 1.267 . S
O214 C213 1.197 1_565 S
O215 C208 1.185 . S
O215 Zn211 2.086 . S
C216 O212 1.278 . S
C216 O217 1.211 . S
O217 C216 1.211 . S
C218 O210 1.284 . S
C218 O219 1.273 . S
O219 C218 1.273 . S
O220 Zn211 1.977 . S
O220 C213 1.267 . S
C221 O222 1.160 . S
C221 O228 1.185 . S
O222 C221 1.160 . S
O223 Zn224 1.899 . S
O223 C231 1.284 . S
Zn224 O223 1.899 . S
Zn224 O225 2.032 . S
Zn224 O228 2.086 . S
Zn224 O233 1.977 . S
O225 Zn224 2.032 . S
O225 C229 1.278 . S
C226 O227 1.203 . S
C226 O233 1.267 . S
O227 C226 1.203 . S
O228 C221 1.185 . S
O228 Zn224 2.086 . S
C229 O225 1.278 . S
C229 O230 1.211 . S
O230 C229 1.211 . S
C231 O223 1.284 . S
C231 O232 1.273 . S
O232 C231 1.273 . S
O233 Zn224 1.977 . S
O233 C226 1.267 . S
C234 O235 1.160 . S
C234 O241 1.185 . S
O235 C234 1.160 . S
O236 Zn237 1.899 . S
O236 C244 1.284 . S
Zn237 O236 1.899 . S
Zn237 O238 2.032 . S
Zn237 O241 2.086 . S
Zn237 O246 1.977 . S
O238 Zn237 2.032 . S
O238 C242 1.278 . S
C239 O240 1.203 . S
C239 O246 1.267 . S
O240 C239 1.203 . S
O241 C234 1.185 . S
O241 Zn237 2.086 . S
C242 O238 1.278 . S
C242 O243 1.211 . S
O243 C242 1.211 . S
C244 O236 1.284 . S
C244 O245 1.273 . S
O245 C244 1.273 . S
O246 Zn237 1.977 . S
O246 C239 1.267 . S
C247 O248 1.160 . S
C247 O254 1.185 . S
O248 C247 1.160 . S
O249 Zn250 1.899 . S
O249 C257 1.284 . S
Zn250 O249 1.899 . S
Zn250 O251 2.032 . S
Zn250 O254 2.086 . S
Zn250 O259 1.977 . S
O251 Zn250 2.032 . S
O251 C255 1.278 . S
C252 O253 1.203 . S
C252 O259 1.267 . S
O253 C252 1.203 . S
O254 C247 1.185 . S
O254 Zn250 2.086 . S
C255 O251 1.278 . S
C255 O256 1.211 . S
O256 C255 1.211 . S
C257 O249 1.284 . S
C257 O258 1.273 . S
O258 C257 1.273 . S
O259 Zn250 1.977 . S
O259 C252 1.267 . S
C260 O261 1.160 . S
C260 O267 1.185 . S
O261 C260 1.160 . S
O262 Zn263 1.899 . S
O262 C270 1.284 . S
Zn263 O262 1.899 . S
Zn263 O264 2.032 1_554 S
Zn263 O267 2.086 . S
Zn263 O272 1.979 . S
O264 Zn263 2.032 1_556 S
O264 C268 1.278 . S
C265 O266 1.203 . S
C265 O272 1.271 . S
O266 C265 1.203 . S
O267 C260 1.185 . S
O267 Zn263 2.086 . S
C268 O264 1.278 . S
C268 O269 1.211 . S
O269 C268 1.211 . S
C270 O262 1.284 . S
C270 O271 1.273 . S
O271 C270 1.273 . S
O272 Zn263 1.979 . S
O272 C265 1.271 . S
C273 O274 1.160 . S
C273 O280 1.185 . S
O274 C273 1.160 . S
O275 Zn276 1.899 . S
O275 C283 1.284 . S
Zn276 O275 1.899 . S
Zn276 O277 2.032 . S
Zn276 O280 2.086 . S
Zn276 O285 1.977 . S
O277 Zn276 2.032 . S
O277 C281 1.278 . S
C278 O279 1.203 . S
C278 O285 1.267 . S
O279 C278 1.203 . S
O280 C273 1.185 . S
O280 Zn276 2.086 . S
C281 O277 1.278 . S
C281 O282 1.211 . S
O282 C281 1.211 . S
C283 O275 1.284 . S
C283 O284 1.273 . S
O284 C283 1.273 . S
O285 Zn276 1.977 . S
O285 C278 1.267 . S
C286 O287 1.160 . S
C286 O293 1.185 . S
O287 C286 1.160 . S
O288 Zn289 1.899 . S
O288 C296 1.284 . S
Zn289 O288 1.899 . S
Zn289 O290 2.032 . S
Zn289 O293 2.086 . S
Zn289 O298 1.977 . S
O290 Zn289 2.032 . S
O290 C294 1.278 . S
C291 O292 1.203 . S
C291 O298 1.267 . S
O292 C291 1.203 . S
O293 C286 1.185 . S
O293 Zn289 2.086 . S
C294 O290 1.278 . S
C294 O295 1.211 . S
O295 C294 1.211 . S
C296 O288 1.284 . S
C296 O297 1.273 . S
O297 C296 1.273 . S
O298 Zn289 1.977 . S
O298 C291 1.267 . S
C299 O300 1.160 . S
C299 O306 1.185 . S
O300 C299 1.160 . S
O301 Zn302 1.899 . S
O301 C309 1.284 . S
Zn302 O301 1.899 . S
Zn302 O303 2.032 . S
Zn302 O306 2.086 . S
Zn302 O311 1.977 . S
O303 Zn302 2.032 . S
O303 C307 1.278 . S
C304 O305 1.203 . S
C304 O311 1.267 . S
O305 C304 1.203 . S
O306 C299 1.185 . S
O306 Zn302 2.086 . S
C307 O303 1.278 . S
C307 O308 1.211 . S
O308 C307 1.211 . S
C309 O301 1.284 . S
C309 O310 1.273 . S
O310 C309 1.273 . S
O311 Zn302 1.977 . S
O311 C304 1.267 . S
Eu312 C321 2.828 . S
Eu312 O323 2.392 . S
Eu312 O325 2.418 . S
Eu312 O330 2.373 . S
Eu312 O333 2.488 . S
Eu312 O334 2.471 1_554 S
Eu312 O335 2.349 1_554 S
Eu313 O322 2.373 1_565 S
Eu313 O326 2.488 1_554 S
Eu313 O327 2.471 . S
Eu313 O328 2.349 1_565 S
Eu313 O331 2.392 1_564 S
Eu313 O332 2.418 1_554 S
Eu313 C342 2.828 . S
C314 O332 1.244 1_545 S
C314 O335 1.265 . S
C315 C316 1.379 1_554 S
C315 C319 1.373 . S
C315 C321 1.505 . S
C316 C315 1.379 1_556 S
C316 C318 1.369 . S
C316 H344 0.930 . S
C317 C319 1.383 . S
C317 C320 1.382 1_554 S
C317 H345 0.930 . S
C318 C316 1.369 . S
C318 C320 1.392 . S
C318 H346 0.930 . S
C319 C315 1.373 . S
C319 C317 1.383 . S
C319 H347 0.931 . S
C320 C317 1.382 1_556 S
C320 C318 1.392 . S
C321 Eu312 2.828 . S
C321 C315 1.505 . S
C321 O333 1.249 . S
C321 O334 1.244 1_554 S
O322 Eu313 2.373 1_545 S
O322 C324 1.258 . S
O323 Eu312 2.392 . S
O323 C324 1.242 . S
C324 O322 1.258 . S
C324 O323 1.242 . S
O325 Eu312 2.418 . S
O325 C329 1.244 . S
O326 Eu313 2.488 1_556 S
O326 C342 1.249 1_556 S
O327 Eu313 2.471 . S
O327 C342 1.244 . S
O328 Eu313 2.349 1_545 S
O328 C329 1.265 . S
C329 O325 1.244 . S
C329 O328 1.265 . S
O330 Eu312 2.373 . S
O330 C343 1.258 . S
O331 Eu313 2.392 1_546 S
O331 C343 1.242 1_556 S
O332 Eu313 2.418 1_556 S
O332 C314 1.244 1_565 S
O333 Eu312 2.488 . S
O333 C321 1.249 . S
O334 Eu312 2.471 1_556 S
O334 C321 1.244 1_556 S
O335 Eu312 2.349 1_556 S
O335 C314 1.265 . S
C336 C337 1.379 . S
C336 C340 1.373 . S
C336 C342 1.505 . S
C337 C336 1.379 . S
C337 C339 1.369 . S
C337 H348 0.930 . S
C338 C340 1.383 . S
C338 C341 1.382 . S
C338 H349 0.931 . S
C339 C337 1.369 . S
C339 C341 1.392 . S
C339 H350 0.930 . S
C340 C336 1.373 . S
C340 C338 1.383 . S
C340 H351 0.931 1_554 S
C341 C338 1.382 . S
C341 C339 1.392 . S
C342 Eu313 2.828 . S
C342 O326 1.249 1_554 S
C342 O327 1.244 . S
C342 C336 1.505 . S
C343 O330 1.258 . S
C343 O331 1.242 1_554 S
H344 C316 0.930 . S
H345 C317 0.930 . S
H346 C318 0.930 . S
H347 C319 0.931 . S
H348 C337 0.930 . S
H349 C338 0.931 . S
H350 C339 0.930 . S
H351 C340 0.931 1_556 S
Eu352 C361 2.828 . S
Eu352 O363 2.392 . S
Eu352 O365 2.418 . S
Eu352 O370 2.373 . S
Eu352 O373 2.488 . S
Eu352 O374 2.471 . S
Eu352 O375 2.349 . S
Eu353 O362 2.373 . S
Eu353 O366 2.488 . S
Eu353 O367 2.471 . S
Eu353 O368 2.349 . S
Eu353 O371 2.392 . S
Eu353 O372 2.418 . S
Eu353 C382 2.828 . S
C354 O372 1.244 . S
C354 O375 1.265 . S
C355 C356 1.379 . S
C355 C359 1.373 . S
C355 C361 1.505 . S
C356 C355 1.379 . S
C356 C358 1.369 . S
C356 H384 0.930 . S
C357 C359 1.383 . S
C357 C360 1.382 . S
C357 H385 0.930 . S
C358 C356 1.369 . S
C358 C360 1.392 . S
C358 H386 0.930 . S
C359 C355 1.373 . S
C359 C357 1.383 . S
C359 H387 0.931 . S
C360 C357 1.382 . S
C360 C358 1.392 . S
C361 Eu352 2.828 . S
C361 C355 1.505 . S
C361 O373 1.249 . S
C361 O374 1.244 . S
O362 Eu353 2.373 . S
O362 C364 1.258 . S
O363 Eu352 2.392 . S
O363 C364 1.242 . S
C364 O362 1.258 . S
C364 O363 1.242 . S
O365 Eu352 2.418 . S
O365 C369 1.244 . S
O366 Eu353 2.488 . S
O366 C382 1.249 . S
O367 Eu353 2.471 . S
O367 C382 1.244 . S
O368 Eu353 2.349 . S
O368 C369 1.265 . S
C369 O365 1.244 . S
C369 O368 1.265 . S
O370 Eu352 2.373 . S
O370 C383 1.258 . S
O371 Eu353 2.392 . S
O371 C383 1.242 . S
O372 Eu353 2.418 . S
O372 C354 1.244 . S
O373 Eu352 2.488 . S
O373 C361 1.249 . S
O374 Eu352 2.471 . S
O374 C361 1.244 . S
O375 Eu352 2.349 . S
O375 C354 1.265 . S
C376 C377 1.379 . S
C376 C380 1.373 . S
C376 C382 1.505 . S
C377 C376 1.379 . S
C377 C379 1.369 . S
C377 H388 0.930 . S
C378 C380 1.383 . S
C378 C381 1.382 . S
C378 H389 0.930 . S
C379 C377 1.369 . S
C379 C381 1.392 . S
C379 H390 0.930 . S
C380 C376 1.373 . S
C380 C378 1.383 . S
C380 H391 0.931 . S
C381 C378 1.382 . S
C381 C379 1.392 . S
C382 Eu353 2.828 . S
C382 O366 1.249 . S
C382 O367 1.244 . S
C382 C376 1.505 . S
C383 O370 1.258 . S
C383 O371 1.242 . S
H384 C356 0.930 . S
H385 C357 0.930 . S
H386 C358 0.930 . S
H387 C359 0.931 . S
H388 C377 0.930 . S
H389 C378 0.930 . S
H390 C379 0.930 . S
H391 C380 0.931 . S
Eu392 C401 2.828 . S
Eu392 O403 2.392 . S
Eu392 O405 2.418 . S
Eu392 O410 2.352 1_545 S
Eu392 O413 2.488 . S
Eu392 O414 2.471 . S
Eu392 O415 2.349 . S
Eu393 O402 2.373 . S
Eu393 O406 2.488 . S
Eu393 O407 2.471 . S
Eu393 O408 2.349 . S
Eu393 O411 2.392 1_545 S
Eu393 O412 2.418 . S
Eu393 C422 2.828 . S
C394 O412 1.244 . S
C394 O415 1.265 . S
C395 C396 1.379 . S
C395 C399 1.373 . S
C395 C401 1.505 1_565 S
C396 C395 1.379 . S
C396 C398 1.369 . S
C396 H424 0.930 . S
C397 C399 1.383 . S
C397 C400 1.382 . S
C397 H425 0.930 . S
C398 C396 1.369 . S
C398 C400 1.392 . S
C398 H426 0.930 . S
C399 C395 1.373 . S
C399 C397 1.383 . S
C399 H427 0.912 1_565 S
C400 C397 1.382 . S
C400 C398 1.392 . S
C401 Eu392 2.828 . S
C401 C395 1.505 1_545 S
C401 O413 1.249 . S
C401 O414 1.244 . S
O402 Eu393 2.373 . S
O402 C404 1.258 . S
O403 Eu392 2.392 . S
O403 C404 1.242 . S
C404 O402 1.258 . S
C404 O403 1.242 . S
O405 Eu392 2.418 . S
O405 C409 1.244 . S
O406 Eu393 2.488 . S
O406 C422 1.249 . S
O407 Eu393 2.471 . S
O407 C422 1.244 . S
O408 Eu393 2.349 . S
O408 C409 1.265 . S
C409 O405 1.244 . S
C409 O408 1.265 . S
O410 Eu392 2.352 1_565 S
O410 C423 1.271 . S
O411 Eu393 2.392 1_565 S
O411 C423 1.242 . S
O412 Eu393 2.418 . S
O412 C394 1.244 . S
O413 Eu392 2.488 . S
O413 C401 1.249 . S
O414 Eu392 2.471 . S
O414 C401 1.244 . S
O415 Eu392 2.349 . S
O415 C394 1.265 . S
C416 C417 1.379 . S
C416 C420 1.373 . S
C416 C422 1.505 . S
C417 C416 1.379 . S
C417 C419 1.369 . S
C417 H428 0.930 . S
C418 C420 1.383 . S
C418 C421 1.382 . S
C418 H429 0.930 . S
C419 C417 1.369 . S
C419 C421 1.392 . S
C419 H430 0.930 . S
C420 C416 1.373 . S
C420 C418 1.383 . S
C420 H431 0.931 . S
C421 C418 1.382 . S
C421 C419 1.392 . S
C422 Eu393 2.828 . S
C422 O406 1.249 . S
C422 O407 1.244 . S
C422 C416 1.505 . S
C423 O410 1.271 . S
C423 O411 1.242 . S
H424 C396 0.930 . S
H425 C397 0.930 . S
H426 C398 0.930 . S
H427 C399 0.912 1_545 S
H428 C417 0.930 . S
H429 C418 0.930 . S
H430 C419 0.930 . S
H431 C420 0.931 . S
Eu432 C441 2.828 . S
Eu432 O443 2.392 . S
Eu432 O445 2.418 . S
Eu432 O450 2.373 . S
Eu432 O453 2.488 . S
Eu432 O454 2.471 . S
Eu432 O455 2.349 . S
Eu433 O442 2.373 . S
Eu433 O446 2.488 . S
Eu433 O447 2.471 . S
Eu433 O448 2.349 . S
Eu433 O451 2.392 . S
Eu433 O452 2.418 . S
Eu433 C462 2.828 . S
C434 O452 1.244 . S
C434 O455 1.265 . S
C435 C436 1.379 . S
C435 C439 1.373 . S
C435 C441 1.505 . S
C436 C435 1.379 . S
C436 C438 1.369 . S
C436 H464 0.930 . S
C437 C439 1.383 . S
C437 C440 1.382 . S
C437 H465 0.930 . S
C438 C436 1.369 . S
C438 C440 1.392 . S
C438 H466 0.930 . S
C439 C435 1.373 . S
C439 C437 1.383 . S
C439 H467 0.931 . S
C440 C437 1.382 . S
C440 C438 1.392 . S
C441 Eu432 2.828 . S
C441 C435 1.505 . S
C441 O453 1.249 . S
C441 O454 1.244 . S
O442 Eu433 2.373 . S
O442 C444 1.258 . S
O443 Eu432 2.392 . S
O443 C444 1.242 . S
C444 O442 1.258 . S
C444 O443 1.242 . S
O445 Eu432 2.418 . S
O445 C449 1.244 . S
O446 Eu433 2.488 . S
O446 C462 1.249 . S
O447 Eu433 2.471 . S
O447 C462 1.244 . S
O448 Eu433 2.349 . S
O448 C449 1.265 . S
C449 O445 1.244 . S
C449 O448 1.265 . S
O450 Eu432 2.373 . S
O450 C463 1.258 . S
O451 Eu433 2.392 . S
O451 C463 1.242 . S
O452 Eu433 2.418 . S
O452 C434 1.244 . S
O453 Eu432 2.488 . S
O453 C441 1.249 . S
O454 Eu432 2.471 . S
O454 C441 1.244 . S
O455 Eu432 2.349 . S
O455 C434 1.265 . S
C456 C457 1.379 . S
C456 C460 1.373 . S
C456 C462 1.505 . S
C457 C456 1.379 . S
C457 C459 1.369 . S
C457 H468 0.930 . S
C458 C460 1.383 . S
C458 C461 1.382 . S
C458 H469 0.930 . S
C459 C457 1.369 . S
C459 C461 1.392 . S
C459 H470 0.930 . S
C460 C456 1.373 . S
C460 C458 1.383 . S
C460 H471 0.931 . S
C461 C458 1.382 . S
C461 C459 1.392 . S
C462 Eu433 2.828 . S
C462 O446 1.249 . S
C462 O447 1.244 . S
C462 C456 1.505 . S
C463 O450 1.258 . S
C463 O451 1.242 . S
H464 C436 0.930 . S
H465 C437 0.930 . S
H466 C438 0.930 . S
H467 C439 0.931 . S
H468 C457 0.930 . S
H469 C458 0.930 . S
H470 C459 0.930 . S
H471 C460 0.931 . S
Eu472 C481 2.828 . S
Eu472 O483 2.392 . S
Eu472 O485 2.418 . S
Eu472 O490 2.373 . S
Eu472 O493 2.488 . S
Eu472 O494 2.471 . S
Eu472 O495 2.349 . S
Eu473 O482 2.373 . S
Eu473 O486 2.488 1_545 S
Eu473 O487 2.471 1_545 S
Eu473 O488 2.349 . S
Eu473 O491 2.392 . S
Eu473 O492 2.418 . S
Eu473 C502 2.828 1_545 S
C474 O492 1.244 . S
C474 O495 1.265 . S
C475 C476 1.379 . S
C475 C479 1.373 . S
C475 C481 1.505 . S
C476 C475 1.379 . S
C476 C478 1.369 . S
C476 H504 0.930 . S
C477 C479 1.383 . S
C477 C480 1.382 . S
C477 H505 0.930 . S
C478 C476 1.369 . S
C478 C480 1.392 . S
C478 H506 0.930 . S
C479 C475 1.373 . S
C479 C477 1.383 . S
C479 H507 0.931 . S
C480 C477 1.382 . S
C480 C478 1.392 . S
C481 Eu472 2.828 . S
C481 C475 1.505 . S
C481 O493 1.249 . S
C481 O494 1.244 . S
O482 Eu473 2.373 . S
O482 C484 1.258 . S
O483 Eu472 2.392 . S
O483 C484 1.242 . S
C484 O482 1.258 . S
C484 O483 1.242 . S
O485 Eu472 2.418 . S
O485 C489 1.244 . S
O486 Eu473 2.488 1_565 S
O486 C502 1.249 . S
O487 Eu473 2.471 1_565 S
O487 C502 1.244 . S
O488 Eu473 2.349 . S
O488 C489 1.265 . S
C489 O485 1.244 . S
C489 O488 1.265 . S
O490 Eu472 2.373 . S
O490 C503 1.258 . S
O491 Eu473 2.392 . S
O491 C503 1.242 . S
O492 Eu473 2.418 . S
O492 C474 1.244 . S
O493 Eu472 2.488 . S
O493 C481 1.249 . S
O494 Eu472 2.471 . S
O494 C481 1.244 . S
O495 Eu472 2.349 . S
O495 C474 1.265 . S
C496 C497 1.379 . S
C496 C500 1.373 . S
C496 C502 1.505 . S
C497 C496 1.379 . S
C497 C499 1.369 . S
C497 H508 0.930 . S
C498 C500 1.383 . S
C498 C501 1.382 . S
C498 H509 0.930 . S
C499 C497 1.369 . S
C499 C501 1.392 . S
C499 H510 0.930 . S
C500 C496 1.373 . S
C500 C498 1.383 . S
C500 H511 0.931 . S
C501 C498 1.382 . S
C501 C499 1.392 . S
C502 Eu473 2.828 1_565 S
C502 O486 1.249 . S
C502 O487 1.244 . S
C502 C496 1.505 . S
C503 O490 1.258 . S
C503 O491 1.242 . S
H504 C476 0.930 . S
H505 C477 0.930 . S
H506 C478 0.930 . S
H507 C479 0.931 . S
H508 C497 0.930 . S
H509 C498 0.930 . S
H510 C499 0.930 . S
H511 C500 0.931 . S
Eu512 C521 2.828 . S
Eu512 O523 2.392 . S
Eu512 O525 2.418 . S
Eu512 O530 2.373 . S
Eu512 O533 2.488 . S
Eu512 O534 2.471 . S
Eu512 O535 2.349 . S
Eu513 O522 2.373 . S
Eu513 O526 2.488 . S
Eu513 O527 2.471 . S
Eu513 O528 2.349 . S
Eu513 O531 2.392 . S
Eu513 O532 2.418 . S
Eu513 C542 2.828 . S
C514 O532 1.244 . S
C514 O535 1.265 . S
C515 C516 1.379 . S
C515 C519 1.373 . S
C515 C521 1.505 . S
C516 C515 1.379 . S
C516 C518 1.369 . S
C516 H544 0.930 . S
C517 C519 1.383 . S
C517 C520 1.382 . S
C517 H545 0.930 . S
C518 C516 1.369 . S
C518 C520 1.392 . S
C518 H546 0.930 . S
C519 C515 1.373 . S
C519 C517 1.383 . S
C519 H547 0.931 . S
C520 C517 1.382 . S
C520 C518 1.392 . S
C521 Eu512 2.828 . S
C521 C515 1.505 . S
C521 O533 1.249 . S
C521 O534 1.244 . S
O522 Eu513 2.373 . S
O522 C524 1.258 . S
O523 Eu512 2.392 . S
O523 C524 1.242 . S
C524 O522 1.258 . S
C524 O523 1.242 . S
O525 Eu512 2.418 . S
O525 C529 1.244 . S
O526 Eu513 2.488 . S
O526 C542 1.249 . S
O527 Eu513 2.471 . S
O527 C542 1.244 . S
O528 Eu513 2.349 . S
O528 C529 1.265 . S
C529 O525 1.244 . S
C529 O528 1.265 . S
O530 Eu512 2.373 . S
O530 C543 1.258 . S
O531 Eu513 2.392 . S
O531 C543 1.242 . S
O532 Eu513 2.418 . S
O532 C514 1.244 . S
O533 Eu512 2.488 . S
O533 C521 1.249 . S
O534 Eu512 2.471 . S
O534 C521 1.244 . S
O535 Eu512 2.349 . S
O535 C514 1.265 . S
C536 C537 1.379 . S
C536 C540 1.373 . S
C536 C542 1.505 . S
C537 C536 1.379 . S
C537 C539 1.369 . S
C537 H548 0.930 . S
C538 C540 1.383 . S
C538 C541 1.382 . S
C538 H549 0.930 . S
C539 C537 1.369 . S
C539 C541 1.392 . S
C539 H550 0.930 . S
C540 C536 1.373 . S
C540 C538 1.383 . S
C540 H551 0.931 . S
C541 C538 1.382 . S
C541 C539 1.392 . S
C542 Eu513 2.828 . S
C542 O526 1.249 . S
C542 O527 1.244 . S
C542 C536 1.505 . S
C543 O530 1.258 . S
C543 O531 1.242 . S
H544 C516 0.930 . S
H545 C517 0.930 . S
H546 C518 0.930 . S
H547 C519 0.931 . S
H548 C537 0.930 . S
H549 C538 0.930 . S
H550 C539 0.930 . S
H551 C540 0.931 . S
Eu552 C561 2.828 . S
Eu552 O563 2.392 . S
Eu552 O565 2.418 1_545 S
Eu552 O570 2.373 . S
Eu552 O573 2.488 1_545 S
Eu552 O574 2.471 . S
Eu552 O575 2.349 . S
Eu553 O562 2.373 1_556 S
Eu553 O566 2.488 . S
Eu553 O567 2.471 . S
Eu553 O568 2.349 . S
Eu553 O571 2.392 . S
Eu553 O572 2.418 1_556 S
Eu553 C582 2.828 . S
C554 O572 1.244 . S
C554 O575 1.265 . S
C555 C556 1.379 . S
C555 C559 1.373 1_545 S
C555 C561 1.505 . S
C556 C555 1.379 . S
C556 C558 1.369 . S
C556 H584 0.930 . S
C557 C559 1.383 . S
C557 C560 1.382 . S
C557 H585 0.930 . S
C558 C556 1.369 . S
C558 C560 1.392 1_545 S
C558 H586 0.930 . S
C559 C555 1.373 1_565 S
C559 C557 1.383 . S
C559 H587 0.931 . S
C560 C557 1.382 . S
C560 C558 1.392 1_565 S
C561 Eu552 2.828 . S
C561 C555 1.505 . S
C561 O573 1.249 1_545 S
C561 O574 1.244 . S
O562 Eu553 2.373 1_554 S
O562 C564 1.258 . S
O563 Eu552 2.392 . S
O563 C564 1.242 . S
C564 O562 1.258 . S
C564 O563 1.242 . S
O565 Eu552 2.418 1_565 S
O565 C569 1.244 . S
O566 Eu553 2.488 . S
O566 C582 1.249 . S
O567 Eu553 2.471 . S
O567 C582 1.244 . S
O568 Eu553 2.349 . S
O568 C569 1.265 1_546 S
C569 O565 1.244 . S
C569 O568 1.265 1_564 S
O570 Eu552 2.373 . S
O570 C583 1.258 . S
O571 Eu553 2.392 . S
O571 C583 1.242 1_556 S
O572 Eu553 2.418 1_554 S
O572 C554 1.244 . S
O573 Eu552 2.488 1_565 S
O573 C561 1.249 1_565 S
O574 Eu552 2.471 . S
O574 C561 1.244 . S
O575 Eu552 2.349 . S
O575 C554 1.265 . S
C576 C577 1.379 . S
C576 C580 1.373 . S
C576 C582 1.505 . S
C577 C576 1.379 . S
C577 C579 1.369 . S
C577 H588 0.930 . S
C578 C580 1.383 . S
C578 C581 1.382 . S
C578 H589 0.930 . S
C579 C577 1.369 . S
C579 C581 1.392 . S
C579 H590 0.930 . S
C580 C576 1.373 . S
C580 C578 1.383 . S
C580 H591 0.931 . S
C581 C578 1.382 . S
C581 C579 1.392 . S
C582 Eu553 2.828 . S
C582 O566 1.249 . S
C582 O567 1.244 . S
C582 C576 1.505 . S
C583 O570 1.258 . S
C583 O571 1.242 1_554 S
H584 C556 0.930 . S
H585 C557 0.930 . S
H586 C558 0.930 . S
H587 C559 0.931 . S
H588 C577 0.930 . S
H589 C578 0.930 . S
H590 C579 0.930 . S
H591 C580 0.931 . S
Eu592 C601 2.828 . S
Eu592 O603 2.392 . S
Eu592 O605 2.418 . S
Eu592 O610 2.373 . S
Eu592 O613 2.488 . S
Eu592 O614 2.471 . S
Eu592 O615 2.349 . S
Eu593 O602 2.373 . S
Eu593 O606 2.488 . S
Eu593 O607 2.471 . S
Eu593 O608 2.349 . S
Eu593 O611 2.392 . S
Eu593 O612 2.418 . S
Eu593 C622 2.828 . S
C594 O612 1.244 . S
C594 O615 1.265 . S
C595 C596 1.379 . S
C595 C599 1.373 . S
C595 C601 1.505 . S
C596 C595 1.379 . S
C596 C598 1.369 . S
C596 H624 0.930 . S
C597 C599 1.383 . S
C597 C600 1.382 . S
C597 H625 0.930 . S
C598 C596 1.369 . S
C598 C600 1.392 . S
C598 H626 0.930 . S
C599 C595 1.373 . S
C599 C597 1.383 . S
C599 H627 0.931 . S
C600 C597 1.382 . S
C600 C598 1.392 . S
C601 Eu592 2.828 . S
C601 C595 1.505 . S
C601 O613 1.249 . S
C601 O614 1.244 . S
O602 Eu593 2.373 . S
O602 C604 1.258 . S
O603 Eu592 2.392 . S
O603 C604 1.242 . S
C604 O602 1.258 . S
C604 O603 1.242 . S
O605 Eu592 2.418 . S
O605 C609 1.244 . S
O606 Eu593 2.488 . S
O606 C622 1.249 . S
O607 Eu593 2.471 . S
O607 C622 1.244 . S
O608 Eu593 2.349 . S
O608 C609 1.265 . S
C609 O605 1.244 . S
C609 O608 1.265 . S
O610 Eu592 2.373 . S
O610 C623 1.258 . S
O611 Eu593 2.392 . S
O611 C623 1.242 . S
O612 Eu593 2.418 . S
O612 C594 1.244 . S
O613 Eu592 2.488 . S
O613 C601 1.249 . S
O614 Eu592 2.471 . S
O614 C601 1.244 . S
O615 Eu592 2.349 . S
O615 C594 1.265 . S
C616 C617 1.379 . S
C616 C620 1.373 . S
C616 C622 1.505 . S
C617 C616 1.379 . S
C617 C619 1.369 . S
C617 H628 0.930 . S
C618 C620 1.383 . S
C618 C621 1.382 . S
C618 H629 0.930 . S
C619 C617 1.369 . S
C619 C621 1.392 . S
C619 H630 0.930 . S
C620 C616 1.373 . S
C620 C618 1.383 . S
C620 H631 0.931 . S
C621 C618 1.382 . S
C621 C619 1.392 . S
C622 Eu593 2.828 . S
C622 O606 1.249 . S
C622 O607 1.244 . S
C622 C616 1.505 . S
C623 O610 1.258 . S
C623 O611 1.242 . S
H624 C596 0.930 . S
H625 C597 0.930 . S
H626 C598 0.930 . S
H627 C599 0.931 . S
H628 C617 0.930 . S
H629 C618 0.930 . S
H630 C619 0.930 . S
H631 C620 0.931 . S
Eu632 C641 2.828 . S
Eu632 O643 2.392 . S
Eu632 O645 2.418 . S
Eu632 O650 2.373 1_554 S
Eu632 O653 2.488 . S
Eu632 O654 2.471 . S
Eu632 O655 2.349 . S
Eu633 O642 2.373 . S
Eu633 O646 2.488 . S
Eu633 O647 2.471 . S
Eu633 O648 2.349 . S
Eu633 O651 2.392 1_554 S
Eu633 O652 2.418 . S
Eu633 C662 2.828 . S
C634 O652 1.244 . S
C634 O655 1.265 . S
C635 C636 1.379 1_554 S
C635 C639 1.373 . S
C635 C641 1.505 . S
C636 C635 1.379 1_556 S
C636 C638 1.369 . S
C636 H664 0.930 . S
C637 C639 1.384 . S
C637 C640 1.381 1_554 S
C637 H665 0.930 . S
C638 C636 1.369 . S
C638 C640 1.392 . S
C638 H666 0.930 . S
C639 C635 1.373 . S
C639 C637 1.384 . S
C639 H667 0.931 . S
C640 C637 1.381 1_556 S
C640 C638 1.392 . S
C641 Eu632 2.828 . S
C641 C635 1.505 . S
C641 O653 1.249 . S
C641 O654 1.244 . S
O642 Eu633 2.373 . S
O642 C644 1.258 . S
O643 Eu632 2.392 . S
O643 C644 1.242 . S
C644 O642 1.258 . S
C644 O643 1.242 . S
O645 Eu632 2.418 . S
O645 C649 1.244 . S
O646 Eu633 2.488 . S
O646 C662 1.249 . S
O647 Eu633 2.471 . S
O647 C662 1.244 . S
O648 Eu633 2.349 . S
O648 C649 1.265 . S
C649 O645 1.244 . S
C649 O648 1.265 . S
O650 Eu632 2.373 1_556 S
O650 C663 1.258 . S
O651 Eu633 2.392 1_556 S
O651 C663 1.242 . S
O652 Eu633 2.418 . S
O652 C634 1.244 . S
O653 Eu632 2.488 . S
O653 C641 1.249 . S
O654 Eu632 2.471 . S
O654 C641 1.244 . S
O655 Eu632 2.349 . S
O655 C634 1.265 . S
C656 C657 1.379 . S
C656 C660 1.373 . S
C656 C662 1.505 . S
C657 C656 1.379 . S
C657 C659 1.369 . S
C657 H668 0.930 . S
C658 C660 1.383 . S
C658 C661 1.382 . S
C658 H669 0.930 . S
C659 C657 1.369 . S
C659 C661 1.392 . S
C659 H670 0.930 . S
C660 C656 1.373 . S
C660 C658 1.383 . S
C660 H671 0.931 . S
C661 C658 1.382 . S
C661 C659 1.392 . S
C662 Eu633 2.828 . S
C662 O646 1.249 . S
C662 O647 1.244 . S
C662 C656 1.505 . S
C663 O650 1.258 . S
C663 O651 1.242 . S
H664 C636 0.930 . S
H665 C637 0.930 . S
H666 C638 0.930 . S
H667 C639 0.931 . S
H668 C657 0.930 . S
H669 C658 0.930 . S
H670 C659 0.930 . S
H671 C660 0.931 . S
Eu672 C681 2.828 . S
Eu672 O683 2.392 . S
Eu672 O685 2.418 . S
Eu672 O690 2.373 . S
Eu672 O693 2.488 . S
Eu672 O694 2.471 . S
Eu672 O695 2.349 . S
Eu673 O682 2.373 . S
Eu673 O686 2.488 . S
Eu673 O687 2.471 . S
Eu673 O688 2.349 . S
Eu673 O691 2.392 . S
Eu673 O692 2.418 . S
Eu673 C702 2.828 . S
C674 O692 1.244 . S
C674 O695 1.265 . S
C675 C676 1.379 . S
C675 C679 1.373 . S
C675 C681 1.505 . S
C676 C675 1.379 . S
C676 C678 1.369 . S
C676 H704 0.930 . S
C677 C679 1.383 . S
C677 C680 1.382 . S
C677 H705 0.930 1_655 S
C678 C676 1.369 . S
C678 C680 1.392 . S
C678 H706 0.930 . S
C679 C675 1.373 . S
C679 C677 1.383 . S
C679 H707 0.931 . S
C680 C677 1.382 . S
C680 C678 1.392 . S
C681 Eu672 2.828 . S
C681 C675 1.505 . S
C681 O693 1.249 . S
C681 O694 1.244 . S
O682 Eu673 2.373 . S
O682 C684 1.258 . S
O683 Eu672 2.392 . S
O683 C684 1.242 . S
C684 O682 1.258 . S
C684 O683 1.242 . S
O685 Eu672 2.418 . S
O685 C689 1.244 . S
O686 Eu673 2.488 . S
O686 C702 1.249 . S
O687 Eu673 2.471 . S
O687 C702 1.244 . S
O688 Eu673 2.349 . S
O688 C689 1.265 . S
C689 O685 1.244 . S
C689 O688 1.265 . S
O690 Eu672 2.373 . S
O690 C703 1.258 . S
O691 Eu673 2.392 . S
O691 C703 1.242 . S
O692 Eu673 2.418 . S
O692 C674 1.244 . S
O693 Eu672 2.488 . S
O693 C681 1.249 . S
O694 Eu672 2.471 . S
O694 C681 1.244 . S
O695 Eu672 2.349 . S
O695 C674 1.265 . S
C696 C697 1.379 . S
C696 C700 1.373 . S
C696 C702 1.505 . S
C697 C696 1.379 . S
C697 C699 1.369 . S
C697 H708 0.930 . S
C698 C700 1.383 . S
C698 C701 1.382 . S
C698 H709 0.930 . S
C699 C697 1.369 . S
C699 C701 1.392 . S
C699 H710 0.930 . S
C700 C696 1.373 . S
C700 C698 1.383 . S
C700 H711 0.931 . S
C701 C698 1.382 . S
C701 C699 1.392 . S
C702 Eu673 2.828 . S
C702 O686 1.249 . S
C702 O687 1.244 . S
C702 C696 1.505 . S
C703 O690 1.258 . S
C703 O691 1.242 . S
H704 C676 0.930 . S
H705 C677 0.930 1_455 S
H706 C678 0.930 . S
H707 C679 0.931 . S
H708 C697 0.930 . S
H709 C698 0.930 . S
H710 C699 0.930 . S
H711 C700 0.931 . S
Eu712 C721 2.828 . S
Eu712 O723 2.392 . S
Eu712 O725 2.418 . S
Eu712 O730 2.373 . S
Eu712 O733 2.488 . S
Eu712 O734 2.471 . S
Eu712 O735 2.349 . S
Eu713 O722 2.373 . S
Eu713 O726 2.488 . S
Eu713 O727 2.471 . S
Eu713 O728 2.349 . S
Eu713 O731 2.392 . S
Eu713 O732 2.418 . S
Eu713 C742 2.828 . S
C714 O732 1.244 . S
C714 O735 1.265 . S
C715 C716 1.404 . S
C715 C719 1.373 . S
C715 C721 1.505 . S
C716 C715 1.404 . S
C716 C718 1.350 1_455 S
C716 H744 0.924 . S
C717 C719 1.383 . S
C717 C720 1.382 1_455 S
C717 H745 0.930 . S
C718 C716 1.350 1_655 S
C718 C720 1.392 . S
C718 H746 0.930 . S
C719 C715 1.373 . S
C719 C717 1.383 . S
C719 H747 0.931 . S
C720 C717 1.382 1_655 S
C720 C718 1.392 . S
C721 Eu712 2.828 . S
C721 C715 1.505 . S
C721 O733 1.249 . S
C721 O734 1.244 . S
O722 Eu713 2.373 . S
O722 C724 1.258 . S
O723 Eu712 2.392 . S
O723 C724 1.242 . S
C724 O722 1.258 . S
C724 O723 1.242 . S
O725 Eu712 2.418 . S
O725 C729 1.244 . S
O726 Eu713 2.488 . S
O726 C742 1.249 . S
O727 Eu713 2.471 . S
O727 C742 1.244 . S
O728 Eu713 2.349 . S
O728 C729 1.265 . S
C729 O725 1.244 . S
C729 O728 1.265 . S
O730 Eu712 2.373 . S
O730 C743 1.258 . S
O731 Eu713 2.392 . S
O731 C743 1.242 . S
O732 Eu713 2.418 . S
O732 C714 1.244 . S
O733 Eu712 2.488 . S
O733 C721 1.249 . S
O734 Eu712 2.471 . S
O734 C721 1.244 . S
O735 Eu712 2.349 . S
O735 C714 1.265 . S
C736 C737 1.379 . S
C736 C740 1.373 . S
C736 C742 1.505 . S
C737 C736 1.379 . S
C737 C739 1.369 . S
C737 H748 0.930 . S
C738 C740 1.383 . S
C738 C741 1.382 . S
C738 H749 0.930 . S
C739 C737 1.369 . S
C739 C741 1.392 . S
C739 H750 0.930 . S
C740 C736 1.373 . S
C740 C738 1.383 . S
C740 H751 0.931 . S
C741 C738 1.382 . S
C741 C739 1.392 . S
C742 Eu713 2.828 . S
C742 O726 1.249 . S
C742 O727 1.244 . S
C742 C736 1.505 . S
C743 O730 1.258 . S
C743 O731 1.242 . S
H744 C716 0.924 . S
H745 C717 0.930 . S
H746 C718 0.930 . S
H747 C719 0.931 . S
H748 C737 0.930 . S
H749 C738 0.930 . S
H750 C739 0.930 . S
H751 C740 0.931 . S
Eu752 C761 2.828 . S
Eu752 O763 2.392 . S
Eu752 O765 2.418 . S
Eu752 O770 2.373 . S
Eu752 O773 2.488 . S
Eu752 O774 2.471 . S
Eu752 O775 2.349 . S
Eu753 O762 2.373 . S
Eu753 O766 2.488 . S
Eu753 O767 2.471 . S
Eu753 O768 2.349 . S
Eu753 O771 2.392 . S
Eu753 O772 2.418 . S
Eu753 C782 2.828 . S
C754 O772 1.244 . S
C754 O775 1.265 . S
C755 C756 1.379 . S
C755 C759 1.373 . S
C755 C761 1.505 . S
C756 C755 1.379 . S
C756 C758 1.369 . S
C756 H784 0.930 . S
C757 C759 1.383 . S
C757 C760 1.382 . S
C757 H785 0.930 . S
C758 C756 1.369 . S
C758 C760 1.392 . S
C758 H786 0.930 . S
C759 C755 1.373 . S
C759 C757 1.383 . S
C759 H787 0.931 . S
C760 C757 1.382 . S
C760 C758 1.392 . S
C761 Eu752 2.828 . S
C761 C755 1.505 . S
C761 O773 1.249 . S
C761 O774 1.244 . S
O762 Eu753 2.373 . S
O762 C764 1.258 . S
O763 Eu752 2.392 . S
O763 C764 1.242 . S
C764 O762 1.258 . S
C764 O763 1.242 . S
O765 Eu752 2.418 . S
O765 C769 1.244 . S
O766 Eu753 2.488 . S
O766 C782 1.249 . S
O767 Eu753 2.471 . S
O767 C782 1.244 . S
O768 Eu753 2.349 . S
O768 C769 1.265 . S
C769 O765 1.244 . S
C769 O768 1.265 . S
O770 Eu752 2.373 . S
O770 C783 1.258 . S
O771 Eu753 2.392 . S
O771 C783 1.242 . S
O772 Eu753 2.418 . S
O772 C754 1.244 . S
O773 Eu752 2.488 . S
O773 C761 1.249 . S
O774 Eu752 2.471 . S
O774 C761 1.244 . S
O775 Eu752 2.349 . S
O775 C754 1.265 . S
C776 C777 1.379 . S
C776 C780 1.373 . S
C776 C782 1.505 . S
C777 C776 1.379 . S
C777 C779 1.369 . S
C777 H788 0.930 . S
C778 C780 1.383 . S
C778 C781 1.382 . S
C778 H789 0.930 . S
C779 C777 1.369 . S
C779 C781 1.392 . S
C779 H790 0.930 . S
C780 C776 1.373 . S
C780 C778 1.383 . S
C780 H791 0.931 . S
C781 C778 1.382 . S
C781 C779 1.392 . S
C782 Eu753 2.828 . S
C782 O766 1.249 . S
C782 O767 1.244 . S
C782 C776 1.505 . S
C783 O770 1.258 . S
C783 O771 1.242 . S
H784 C756 0.930 . S
H785 C757 0.930 . S
H786 C758 0.930 . S
H787 C759 0.931 . S
H788 C777 0.930 . S
H789 C778 0.930 . S
H790 C779 0.930 . S
H791 C780 0.931 . S
Eu792 C801 2.828 . S
Eu792 O803 2.392 . S
Eu792 O805 2.418 . S
Eu792 O810 2.373 . S
Eu792 O813 2.488 . S
Eu792 O814 2.471 . S
Eu792 O815 2.349 . S
Eu793 O802 2.373 . S
Eu793 O806 2.488 . S
Eu793 O807 2.471 . S
Eu793 O808 2.349 . S
Eu793 O811 2.392 . S
Eu793 O812 2.418 . S
Eu793 C822 2.828 . S
C794 O812 1.244 . S
C794 O815 1.265 . S
C795 C796 1.379 . S
C795 C799 1.373 . S
C795 C801 1.505 . S
C796 C795 1.379 . S
C796 C798 1.369 . S
C796 H824 0.930 . S
C797 C799 1.383 . S
C797 C800 1.382 . S
C797 H825 0.930 . S
C798 C796 1.369 . S
C798 C800 1.392 . S
C798 H826 0.930 . S
C799 C795 1.373 . S
C799 C797 1.383 . S
C799 H827 0.931 . S
C800 C797 1.382 . S
C800 C798 1.392 . S
C801 Eu792 2.828 . S
C801 C795 1.505 . S
C801 O813 1.249 . S
C801 O814 1.244 . S
O802 Eu793 2.373 . S
O802 C804 1.258 . S
O803 Eu792 2.392 . S
O803 C804 1.242 . S
C804 O802 1.258 . S
C804 O803 1.242 . S
O805 Eu792 2.418 . S
O805 C809 1.244 . S
O806 Eu793 2.488 . S
O806 C822 1.249 . S
O807 Eu793 2.471 . S
O807 C822 1.244 . S
O808 Eu793 2.349 . S
O808 C809 1.265 . S
C809 O805 1.244 . S
C809 O808 1.265 . S
O810 Eu792 2.373 . S
O810 C823 1.258 . S
O811 Eu793 2.392 . S
O811 C823 1.242 . S
O812 Eu793 2.418 . S
O812 C794 1.244 . S
O813 Eu792 2.488 . S
O813 C801 1.249 . S
O814 Eu792 2.471 . S
O814 C801 1.244 . S
O815 Eu792 2.349 . S
O815 C794 1.265 . S
C816 C817 1.379 . S
C816 C820 1.373 . S
C816 C822 1.505 . S
C817 C816 1.379 . S
C817 C819 1.369 . S
C817 H828 0.930 . S
C818 C820 1.383 . S
C818 C821 1.382 . S
C818 H829 0.930 . S
C819 C817 1.369 . S
C819 C821 1.392 . S
C819 H830 0.930 . S
C820 C816 1.373 . S
C820 C818 1.383 . S
C820 H831 0.931 . S
C821 C818 1.382 . S
C821 C819 1.392 . S
C822 Eu793 2.828 . S
C822 O806 1.249 . S
C822 O807 1.244 . S
C822 C816 1.505 . S
C823 O810 1.258 . S
C823 O811 1.242 . S
H824 C796 0.930 . S
H825 C797 0.930 . S
H826 C798 0.930 . S
H827 C799 0.931 . S
H828 C817 0.930 . S
H829 C818 0.930 . S
H830 C819 0.930 . S
H831 C820 0.931 . S
Eu832 C841 2.828 . S
Eu832 O843 2.392 . S
Eu832 O845 2.418 . S
Eu832 O850 2.373 . S
Eu832 O853 2.488 . S
Eu832 O854 2.471 . S
Eu832 O855 2.349 . S
Eu833 O842 2.373 . S
Eu833 O846 2.488 . S
Eu833 O847 2.471 . S
Eu833 O848 2.349 . S
Eu833 O851 2.392 . S
Eu833 O852 2.418 . S
Eu833 C862 2.828 . S
C834 O852 1.244 . S
C834 O855 1.265 . S
C835 C836 1.379 . S
C835 C839 1.373 . S
C835 C841 1.505 . S
C836 C835 1.379 . S
C836 C838 1.369 . S
C836 H864 0.930 . S
C837 C839 1.383 . S
C837 C840 1.382 . S
C837 H865 0.930 . S
C838 C836 1.369 . S
C838 C840 1.392 . S
C838 H866 0.930 . S
C839 C835 1.373 . S
C839 C837 1.383 . S
C839 H867 0.931 . S
C840 C837 1.382 . S
C840 C838 1.392 . S
C841 Eu832 2.828 . S
C841 C835 1.505 . S
C841 O853 1.249 . S
C841 O854 1.244 . S
O842 Eu833 2.373 . S
O842 C844 1.258 . S
O843 Eu832 2.392 . S
O843 C844 1.242 . S
C844 O842 1.258 . S
C844 O843 1.242 . S
O845 Eu832 2.418 . S
O845 C849 1.244 . S
O846 Eu833 2.488 . S
O846 C862 1.249 . S
O847 Eu833 2.471 . S
O847 C862 1.244 . S
O848 Eu833 2.349 . S
O848 C849 1.265 . S
C849 O845 1.244 . S
C849 O848 1.265 . S
O850 Eu832 2.373 . S
O850 C863 1.258 . S
O851 Eu833 2.392 . S
O851 C863 1.242 . S
O852 Eu833 2.418 . S
O852 C834 1.244 . S
O853 Eu832 2.488 . S
O853 C841 1.249 . S
O854 Eu832 2.471 . S
O854 C841 1.244 . S
O855 Eu832 2.349 . S
O855 C834 1.265 . S
C856 C857 1.379 . S
C856 C860 1.373 . S
C856 C862 1.505 . S
C857 C856 1.379 . S
C857 C859 1.369 . S
C857 H868 0.930 . S
C858 C860 1.383 . S
C858 C861 1.382 . S
C858 H869 0.930 . S
C859 C857 1.369 . S
C859 C861 1.392 . S
C859 H870 0.930 . S
C860 C856 1.373 . S
C860 C858 1.383 . S
C860 H871 0.931 . S
C861 C858 1.382 . S
C861 C859 1.392 . S
C862 Eu833 2.828 . S
C862 O846 1.249 . S
C862 O847 1.244 . S
C862 C856 1.505 . S
C863 O850 1.258 . S
C863 O851 1.242 . S
H864 C836 0.930 . S
H865 C837 0.930 . S
H866 C838 0.930 . S
H867 C839 0.931 . S
H868 C857 0.930 . S
H869 C858 0.930 . S
H870 C859 0.930 . S
H871 C860 0.931 . S
Eu872 C881 2.828 . S
Eu872 O883 2.392 . S
Eu872 O885 2.418 . S
Eu872 O890 2.373 . S
Eu872 O893 2.488 . S
Eu872 O894 2.471 . S
Eu872 O895 2.349 . S
Eu873 O882 2.373 . S
Eu873 O886 2.488 . S
Eu873 O887 2.471 . S
Eu873 O888 2.349 . S
Eu873 O891 2.392 . S
Eu873 O892 2.418 . S
Eu873 C902 2.828 . S
C874 O892 1.244 . S
C874 O895 1.265 . S
C875 C876 1.379 . S
C875 C879 1.373 . S
C875 C881 1.505 . S
C876 C875 1.379 . S
C876 C878 1.369 . S
C876 H904 0.930 . S
C877 C879 1.383 . S
C877 C880 1.382 . S
C877 H905 0.930 . S
C878 C876 1.369 . S
C878 C880 1.392 . S
C878 H906 0.930 . S
C879 C875 1.373 . S
C879 C877 1.383 . S
C879 H907 0.931 . S
C880 C877 1.382 . S
C880 C878 1.392 . S
C881 Eu872 2.828 . S
C881 C875 1.505 . S
C881 O893 1.249 . S
C881 O894 1.244 . S
O882 Eu873 2.373 . S
O882 C884 1.258 . S
O883 Eu872 2.392 . S
O883 C884 1.242 . S
C884 O882 1.258 . S
C884 O883 1.242 . S
O885 Eu872 2.418 . S
O885 C889 1.244 . S
O886 Eu873 2.488 . S
O886 C902 1.249 . S
O887 Eu873 2.471 . S
O887 C902 1.244 . S
O888 Eu873 2.349 . S
O888 C889 1.265 . S
C889 O885 1.244 . S
C889 O888 1.265 . S
O890 Eu872 2.373 . S
O890 C903 1.258 . S
O891 Eu873 2.392 . S
O891 C903 1.242 . S
O892 Eu873 2.418 . S
O892 C874 1.244 . S
O893 Eu872 2.488 . S
O893 C881 1.249 . S
O894 Eu872 2.471 . S
O894 C881 1.244 . S
O895 Eu872 2.349 . S
O895 C874 1.265 . S
C896 C897 1.379 . S
C896 C900 1.373 . S
C896 C902 1.505 . S
C897 C896 1.379 . S
C897 C899 1.369 . S
C897 H908 0.930 . S
C898 C900 1.383 . S
C898 C901 1.382 . S
C898 H909 0.930 . S
C899 C897 1.369 . S
C899 C901 1.392 . S
C899 H910 0.930 . S
C900 C896 1.373 . S
C900 C898 1.383 . S
C900 H911 0.931 . S
C901 C898 1.382 . S
C901 C899 1.392 . S
C902 Eu873 2.828 . S
C902 O886 1.249 . S
C902 O887 1.244 . S
C902 C896 1.505 . S
C903 O890 1.258 . S
C903 O891 1.242 . S
H904 C876 0.930 . S
H905 C877 0.930 . S
H906 C878 0.930 . S
H907 C879 0.931 . S
H908 C897 0.930 . S
H909 C898 0.930 . S
H910 C899 0.930 . S
H911 C900 0.931 . S
Eu912 C921 2.828 . S
Eu912 O923 2.392 1_556 S
Eu912 O925 2.418 . S
Eu912 O930 2.373 . S
Eu912 O933 2.488 . S
Eu912 O934 2.471 1_556 S
Eu912 O935 2.349 1_556 S
Eu913 O922 2.373 . S
Eu913 O926 2.458 1_455 S
Eu913 O927 2.471 1_455 S
Eu913 O928 2.349 1_554 S
Eu913 O931 2.392 . S
Eu913 O932 2.418 . S
Eu913 C942 2.828 1_455 S
C914 O932 1.244 . S
C914 O935 1.265 . S
C915 C916 1.379 1_556 S
C915 C919 1.373 . S
C915 C921 1.505 . S
C916 C915 1.379 1_554 S
C916 C918 1.369 1_554 S
C916 H944 0.930 . S
C917 C919 1.383 . S
C917 C920 1.382 . S
C917 H945 0.930 . S
C918 C916 1.369 1_556 S
C918 C920 1.392 . S
C918 H946 0.930 1_556 S
C919 C915 1.373 . S
C919 C917 1.383 . S
C919 H947 0.931 . S
C920 C917 1.382 . S
C920 C918 1.392 . S
C921 Eu912 2.828 . S
C921 C915 1.505 . S
C921 O933 1.249 . S
C921 O934 1.244 1_556 S
O922 Eu913 2.373 . S
O922 C924 1.258 . S
O923 Eu912 2.392 1_554 S
O923 C924 1.242 . S
C924 O922 1.258 . S
C924 O923 1.242 . S
O925 Eu912 2.418 . S
O925 C929 1.244 . S
O926 Eu913 2.458 1_655 S
O926 C942 1.268 . S
O927 Eu913 2.471 1_655 S
O927 C942 1.244 . S
O928 Eu913 2.349 1_556 S
O928 C929 1.265 . S
C929 O925 1.244 . S
C929 O928 1.265 . S
O930 Eu912 2.373 . S
O930 C943 1.258 . S
O931 Eu913 2.392 . S
O931 C943 1.242 1_554 S
O932 Eu913 2.418 . S
O932 C914 1.244 . S
O933 Eu912 2.488 . S
O933 C921 1.249 . S
O934 Eu912 2.471 1_554 S
O934 C921 1.244 1_554 S
O935 Eu912 2.349 1_554 S
O935 C914 1.265 . S
C936 C937 1.379 . S
C936 C940 1.373 . S
C936 C942 1.505 . S
C937 C936 1.379 . S
C937 C939 1.369 . S
C937 H948 0.930 . S
C938 C940 1.383 . S
C938 C941 1.382 . S
C938 H949 0.930 . S
C939 C937 1.369 . S
C939 C941 1.392 . S
C939 H950 0.930 . S
C940 C936 1.373 . S
C940 C938 1.383 . S
C940 H951 0.931 . S
C941 C938 1.382 . S
C941 C939 1.392 . S
C942 Eu913 2.828 1_655 S
C942 O926 1.268 . S
C942 O927 1.244 . S
C942 C936 1.505 . S
C943 O930 1.258 . S
C943 O931 1.242 1_556 S
H944 C916 0.930 . S
H945 C917 0.930 . S
H946 C918 0.930 1_554 S
H947 C919 0.931 . S
H948 C937 0.930 . S
H949 C938 0.930 . S
H950 C939 0.930 . S
H951 C940 0.931 . S
C952 C953 1.369 . S
C952 C954 1.419 . S
C952 H956 0.930 1_455 S
C953 C952 1.369 . S
C953 C962 1.429 . S
C954 C952 1.419 . S
C954 C955 1.363 . S
C954 H957 0.929 1_556 S
C955 C954 1.363 . S
C955 C961 1.428 . S
H956 C952 0.930 1_655 S
H957 C954 0.929 1_554 S
S958 N959 1.613 . S
S958 N960 1.610 . S
N959 S958 1.613 . S
N959 C962 1.350 . S
N960 S958 1.610 . S
N960 C961 1.351 . S
C961 C955 1.428 . S
C961 N960 1.351 . S
C961 C962 1.434 . S
C962 C953 1.429 . S
C962 N959 1.350 . S
C962 C961 1.434 . S
C963 C964 1.369 . S
C963 C965 1.419 . S
C963 H967 0.930 . S
C964 C963 1.369 . S
C964 C973 1.429 . S
C965 C963 1.419 . S
C965 C966 1.363 . S
C965 H968 0.929 . S
C966 C965 1.363 . S
C966 C972 1.428 . S
H967 C963 0.930 . S
H968 C965 0.929 . S
S969 N970 1.613 . S
S969 N971 1.610 . S
N970 S969 1.613 . S
N970 C973 1.350 . S
N971 S969 1.610 . S
N971 C972 1.351 . S
C972 C966 1.428 . S
C972 N971 1.351 . S
C972 C973 1.434 . S
C973 C964 1.429 . S
C973 N970 1.350 . S
C973 C972 1.434 . S
C974 C975 1.369 . S
C974 C976 1.419 . S
C974 H978 0.930 . S
C975 C974 1.369 . S
C975 C984 1.429 . S
C976 C974 1.419 . S
C976 C977 1.363 . S
C976 H979 0.929 . S
C977 C976 1.363 . S
C977 C983 1.428 . S
H978 C974 0.930 . S
H979 C976 0.929 . S
S980 N981 1.613 . S
S980 N982 1.610 . S
N981 S980 1.613 . S
N981 C984 1.350 . S
N982 S980 1.610 . S
N982 C983 1.351 . S
C983 C977 1.428 . S
C983 N982 1.351 . S
C983 C984 1.434 . S
C984 C975 1.429 . S
C984 N981 1.350 . S
C984 C983 1.434 . S
C985 C986 1.369 . S
C985 C987 1.419 . S
C985 H989 0.930 . S
C986 C985 1.369 . S
C986 C995 1.429 . S
C987 C985 1.419 . S
C987 C988 1.363 . S
C987 H990 0.929 . S
C988 C987 1.363 . S
C988 C994 1.428 . S
H989 C985 0.930 . S
H990 C987 0.929 . S
S991 N992 1.613 . S
S991 N993 1.610 . S
N992 S991 1.613 . S
N992 C995 1.350 . S
N993 S991 1.610 . S
N993 C994 1.351 . S
C994 C988 1.428 . S
C994 N993 1.351 . S
C994 C995 1.434 . S
C995 C986 1.429 . S
C995 N992 1.350 . S
C995 C994 1.434 . S
C996 C997 1.369 . S
C996 C998 1.419 . S
C996 H1000 0.930 . S
C997 C996 1.369 . S
C997 C1006 1.429 . S
C998 C996 1.419 . S
C998 C999 1.363 . S
C998 H1001 0.929 . S
C999 C998 1.363 . S
C999 C1005 1.428 . S
H1000 C996 0.930 . S
H1001 C998 0.929 . S
S1002 N1003 1.613 . S
S1002 N1004 1.610 1_655 S
N1003 S1002 1.613 . S
N1003 C1006 1.350 1_655 S
N1004 S1002 1.610 1_455 S
N1004 C1005 1.351 . S
C1005 C999 1.428 . S
C1005 N1004 1.351 . S
C1005 C1006 1.434 . S
C1006 C997 1.429 . S
C1006 N1003 1.350 1_455 S
C1006 C1005 1.434 . S
C1007 C1008 1.369 . S
C1007 C1009 1.419 . S
C1007 H1011 0.930 . S
C1008 C1007 1.369 . S
C1008 C1017 1.429 . S
C1009 C1007 1.419 . S
C1009 C1010 1.363 . S
C1009 H1012 0.929 . S
C1010 C1009 1.363 . S
C1010 C1016 1.428 . S
H1011 C1007 0.930 . S
H1012 C1009 0.929 . S
S1013 N1014 1.613 . S
S1013 N1015 1.610 . S
N1014 S1013 1.613 . S
N1014 C1017 1.350 . S
N1015 S1013 1.610 . S
N1015 C1016 1.351 . S
C1016 C1010 1.428 . S
C1016 N1015 1.351 . S
C1016 C1017 1.434 . S
C1017 C1008 1.429 . S
C1017 N1014 1.350 . S
C1017 C1016 1.434 . S
C1018 C1019 1.369 . S
C1018 C1020 1.419 . S
C1018 H1022 0.930 . S
C1019 C1018 1.369 . S
C1019 C1028 1.429 . S
C1020 C1018 1.419 . S
C1020 C1021 1.363 . S
C1020 H1023 0.929 . S
C1021 C1020 1.363 . S
C1021 C1027 1.428 . S
H1022 C1018 0.930 . S
H1023 C1020 0.929 . S
S1024 N1025 1.613 . S
S1024 N1026 1.610 . S
N1025 S1024 1.613 . S
N1025 C1028 1.350 . S
N1026 S1024 1.610 . S
N1026 C1027 1.351 . S
C1027 C1021 1.428 . S
C1027 N1026 1.351 . S
C1027 C1028 1.434 . S
C1028 C1019 1.429 . S
C1028 N1025 1.350 . S
C1028 C1027 1.434 . S
C1029 C1030 1.369 . S
C1029 C1031 1.419 . S
C1029 H1033 0.930 . S
C1030 C1029 1.369 . S
C1030 C1039 1.429 . S
C1031 C1029 1.419 . S
C1031 C1032 1.363 . S
C1031 H1034 0.929 . S
C1032 C1031 1.363 . S
C1032 C1038 1.428 . S
H1033 C1029 0.930 . S
H1034 C1031 0.929 . S
S1035 N1036 1.613 . S
S1035 N1037 1.610 . S
N1036 S1035 1.613 . S
N1036 C1039 1.350 . S
N1037 S1035 1.610 . S
N1037 C1038 1.351 . S
C1038 C1032 1.428 . S
C1038 N1037 1.351 . S
C1038 C1039 1.434 . S
C1039 C1030 1.429 . S
C1039 N1036 1.350 . S
C1039 C1038 1.434 . S
C1040 C1041 1.369 . S
C1040 C1042 1.419 . S
C1040 H1044 0.930 . S
C1041 C1040 1.369 . S
C1041 C1050 1.429 1_455 S
C1042 C1040 1.419 . S
C1042 C1043 1.363 . S
C1042 H1045 0.929 . S
C1043 C1042 1.363 . S
C1043 C1049 1.428 . S
H1044 C1040 0.930 . S
H1045 C1042 0.929 . S
S1046 N1047 1.613 1_565 S
S1046 N1048 1.610 1_565 S
N1047 S1046 1.613 1_545 S
N1047 C1050 1.350 . S
N1048 S1046 1.610 1_545 S
N1048 C1049 1.351 1_655 S
C1049 C1043 1.428 . S
C1049 N1048 1.351 1_455 S
C1049 C1050 1.434 1_455 S
C1050 C1041 1.429 1_655 S
C1050 N1047 1.350 . S
C1050 C1049 1.434 1_655 S
C1051 C1052 1.369 . S
C1051 C1053 1.419 . S
C1051 H1055 0.930 . S
C1052 C1051 1.369 . S
C1052 C1061 1.429 . S
C1053 C1051 1.419 . S
C1053 C1054 1.363 . S
C1053 H1056 0.929 . S
C1054 C1053 1.363 . S
C1054 C1060 1.428 . S
H1055 C1051 0.930 . S
H1056 C1053 0.929 . S
S1057 N1058 1.613 . S
S1057 N1059 1.610 . S
N1058 S1057 1.613 . S
N1058 C1061 1.350 . S
N1059 S1057 1.610 . S
N1059 C1060 1.351 . S
C1060 C1054 1.428 . S
C1060 N1059 1.351 . S
C1060 C1061 1.434 . S
C1061 C1052 1.429 . S
C1061 N1058 1.350 . S
C1061 C1060 1.434 . S
C1062 C1063 1.369 . S
C1062 C1064 1.419 . S
C1062 H1066 0.930 . S
C1063 C1062 1.369 . S
C1063 C1072 1.429 . S
C1064 C1062 1.419 . S
C1064 C1065 1.363 . S
C1064 H1067 0.929 . S
C1065 C1064 1.363 . S
C1065 C1071 1.428 . S
H1066 C1062 0.930 . S
H1067 C1064 0.929 . S
S1068 N1069 1.613 . S
S1068 N1070 1.610 . S
N1069 S1068 1.613 . S
N1069 C1072 1.350 . S
N1070 S1068 1.610 . S
N1070 C1071 1.351 . S
C1071 C1065 1.428 . S
C1071 N1070 1.351 . S
C1071 C1072 1.434 . S
C1072 C1063 1.429 . S
C1072 N1069 1.350 . S
C1072 C1071 1.434 . S
C1073 C1074 1.369 . S
C1073 C1075 1.419 . S
C1073 H1077 0.930 . S
C1074 C1073 1.369 . S
C1074 C1083 1.429 . S
C1075 C1073 1.419 . S
C1075 C1076 1.363 . S
C1075 H1078 0.929 . S
C1076 C1075 1.363 . S
C1076 C1082 1.428 . S
H1077 C1073 0.930 . S
H1078 C1075 0.929 . S
S1079 N1080 1.613 . S
S1079 N1081 1.610 . S
N1080 S1079 1.613 . S
N1080 C1083 1.350 . S
N1081 S1079 1.610 . S
N1081 C1082 1.351 . S
C1082 C1076 1.428 . S
C1082 N1081 1.351 . S
C1082 C1083 1.434 . S
C1083 C1074 1.429 . S
C1083 N1080 1.350 . S
C1083 C1082 1.434 . S
C1084 C1085 1.369 1_655 S
C1084 C1086 1.419 . S
C1084 H1088 0.930 . S
C1085 C1084 1.369 1_455 S
C1085 C1094 1.429 . S
C1086 C1084 1.419 . S
C1086 C1087 1.363 1_655 S
C1086 H1089 0.929 . S
C1087 C1086 1.363 1_455 S
C1087 C1093 1.428 . S
H1088 C1084 0.930 . S
H1089 C1086 0.929 . S
S1090 N1091 1.613 . S
S1090 N1092 1.610 . S
N1091 S1090 1.613 . S
N1091 C1094 1.350 . S
N1092 S1090 1.610 . S
N1092 C1093 1.351 . S
C1093 C1087 1.428 . S
C1093 N1092 1.351 . S
C1093 C1094 1.434 . S
C1094 C1085 1.429 . S
C1094 N1091 1.350 . S
C1094 C1093 1.434 . S
C1095 C1096 1.369 . S
C1095 C1097 1.419 . S
C1095 H1099 0.930 . S
C1096 C1095 1.369 . S
C1096 C1105 1.429 . S
C1097 C1095 1.419 . S
C1097 C1098 1.363 . S
C1097 H1100 0.929 . S
C1098 C1097 1.363 . S
C1098 C1104 1.428 . S
H1099 C1095 0.930 . S
H1100 C1097 0.929 . S
S1101 N1102 1.613 . S
S1101 N1103 1.610 . S
N1102 S1101 1.613 . S
N1102 C1105 1.350 . S
N1103 S1101 1.610 . S
N1103 C1104 1.351 . S
C1104 C1098 1.428 . S
C1104 N1103 1.351 . S
C1104 C1105 1.434 . S
C1105 C1096 1.429 . S
C1105 N1102 1.350 . S
C1105 C1104 1.434 . S
C1106 C1107 1.369 . S
C1106 C1108 1.419 . S
C1106 H1110 0.930 . S
C1107 C1106 1.369 . S
C1107 C1116 1.429 . S
C1108 C1106 1.419 . S
C1108 C1109 1.363 . S
C1108 H1111 0.929 . S
C1109 C1108 1.363 . S
C1109 C1115 1.428 . S
H1110 C1106 0.930 . S
H1111 C1108 0.929 . S
S1112 N1113 1.613 . S
S1112 N1114 1.610 . S
N1113 S1112 1.613 . S
N1113 C1116 1.350 . S
N1114 S1112 1.610 . S
N1114 C1115 1.351 . S
C1115 C1109 1.428 . S
C1115 N1114 1.351 . S
C1115 C1116 1.434 . S
C1116 C1107 1.429 . S
C1116 N1113 1.350 . S
C1116 C1115 1.434 . S
C1117 C1118 1.369 . S
C1117 C1119 1.419 . S
C1117 H1121 0.930 . S
C1118 C1117 1.369 . S
C1118 C1127 1.429 . S
C1119 C1117 1.419 . S
C1119 C1120 1.363 . S
C1119 H1122 0.929 . S
C1120 C1119 1.363 . S
C1120 C1126 1.428 . S
H1121 C1117 0.930 . S
H1122 C1119 0.929 . S
S1123 N1124 1.613 . S
S1123 N1125 1.610 . S
N1124 S1123 1.613 . S
N1124 C1127 1.350 . S
N1125 S1123 1.610 . S
N1125 C1126 1.351 . S
C1126 C1120 1.428 . S
C1126 N1125 1.351 . S
C1126 C1127 1.434 . S
C1127 C1118 1.429 . S
C1127 N1124 1.350 . S
C1127 C1126 1.434 . S
C1128 C1129 1.369 1_565 S
C1128 C1130 1.419 . S
C1128 H1132 0.930 . S
C1129 C1128 1.369 1_545 S
C1129 C1138 1.429 . S
C1130 C1128 1.419 . S
C1130 C1131 1.363 1_565 S
C1130 H1133 0.929 . S
C1131 C1130 1.363 1_545 S
C1131 C1137 1.428 . S
H1132 C1128 0.930 . S
H1133 C1130 0.929 . S
S1134 N1135 1.613 . S
S1134 N1136 1.610 . S
N1135 S1134 1.613 . S
N1135 C1138 1.350 . S
N1136 S1134 1.610 . S
N1136 C1137 1.351 . S
C1137 C1131 1.428 . S
C1137 N1136 1.351 . S
C1137 C1138 1.434 . S
C1138 C1129 1.429 . S
C1138 N1135 1.350 . S
C1138 C1137 1.434 . S
C1139 C1140 1.369 . S
C1139 C1141 1.419 . S
C1139 H1143 0.930 1_554 S
C1140 C1139 1.369 . S
C1140 C1149 1.429 . S
C1141 C1139 1.419 . S
C1141 C1142 1.363 . S
C1141 H1144 0.929 . S
C1142 C1141 1.363 . S
C1142 C1148 1.428 . S
H1143 C1139 0.930 1_556 S
H1144 C1141 0.929 . S
S1145 N1146 1.613 . S
S1145 N1147 1.610 . S
N1146 S1145 1.613 . S
N1146 C1149 1.350 . S
N1147 S1145 1.610 . S
N1147 C1148 1.351 . S
C1148 C1142 1.428 . S
C1148 N1147 1.351 . S
C1148 C1149 1.434 . S
C1149 C1140 1.429 . S
C1149 N1146 1.350 . S
C1149 C1148 1.434 . S
C1150 C1151 1.369 . S
C1150 C1152 1.419 . S
C1150 H1154 0.930 . S
C1151 C1150 1.369 . S
C1151 C1160 1.429 . S
C1152 C1150 1.419 . S
C1152 C1153 1.363 . S
C1152 H1155 0.929 . S
C1153 C1152 1.363 . S
C1153 C1159 1.428 . S
H1154 C1150 0.930 . S
H1155 C1152 0.929 . S
S1156 N1157 1.613 . S
S1156 N1158 1.610 . S
N1157 S1156 1.613 . S
N1157 C1160 1.350 . S
N1158 S1156 1.610 . S
N1158 C1159 1.351 . S
C1159 C1153 1.428 . S
C1159 N1158 1.351 . S
C1159 C1160 1.434 . S
C1160 C1151 1.429 . S
C1160 N1157 1.350 . S
C1160 C1159 1.434 . S
C1161 C1162 1.369 . S
C1161 C1163 1.419 . S
C1161 H1165 0.930 . S
C1162 C1161 1.369 . S
C1162 C1171 1.429 . S
C1163 C1161 1.419 . S
C1163 C1164 1.363 . S
C1163 H1166 0.929 . S
C1164 C1163 1.363 . S
C1164 C1170 1.428 . S
H1165 C1161 0.930 . S
H1166 C1163 0.929 . S
S1167 N1168 1.613 . S
S1167 N1169 1.610 . S
N1168 S1167 1.613 . S
N1168 C1171 1.350 . S
N1169 S1167 1.610 . S
N1169 C1170 1.351 . S
C1170 C1164 1.428 . S
C1170 N1169 1.351 . S
C1170 C1171 1.434 . S
C1171 C1162 1.429 . S
C1171 N1168 1.350 . S
C1171 C1170 1.434 . S
C1172 C1173 1.369 . S
C1172 C1174 1.419 . S
C1172 H1176 0.930 . S
C1173 C1172 1.369 . S
C1173 C1182 1.429 . S
C1174 C1172 1.419 . S
C1174 C1175 1.363 . S
C1174 H1177 0.929 . S
C1175 C1174 1.363 . S
C1175 C1181 1.428 . S
H1176 C1172 0.930 . S
H1177 C1174 0.929 . S
S1178 N1179 1.613 . S
S1178 N1180 1.610 . S
N1179 S1178 1.613 . S
N1179 C1182 1.350 . S
N1180 S1178 1.610 . S
N1180 C1181 1.351 . S
C1181 C1175 1.428 . S
C1181 N1180 1.351 . S
C1181 C1182 1.434 . S
C1182 C1173 1.429 . S
C1182 N1179 1.350 . S
C1182 C1181 1.434 . S
C1183 C1184 1.369 . S
C1183 C1185 1.419 . S
C1183 H1187 0.930 . S
C1184 C1183 1.369 . S
C1184 C1193 1.429 . S
C1185 C1183 1.419 . S
C1185 C1186 1.363 . S
C1185 H1188 0.929 . S
C1186 C1185 1.363 . S
C1186 C1192 1.428 . S
H1187 C1183 0.930 . S
H1188 C1185 0.929 . S
S1189 N1190 1.613 . S
S1189 N1191 1.610 . S
N1190 S1189 1.613 . S
N1190 C1193 1.350 . S
N1191 S1189 1.610 . S
N1191 C1192 1.351 . S
C1192 C1186 1.428 . S
C1192 N1191 1.351 . S
C1192 C1193 1.434 . S
C1193 C1184 1.429 . S
C1193 N1190 1.350 . S
C1193 C1192 1.434 . S
C1194 C1195 1.369 . S
C1194 C1196 1.419 . S
C1194 H1198 0.930 . S
C1195 C1194 1.369 . S
C1195 C1204 1.429 . S
C1196 C1194 1.419 . S
C1196 C1197 1.363 . S
C1196 H1199 0.929 . S
C1197 C1196 1.363 . S
C1197 C1203 1.428 . S
H1198 C1194 0.930 . S
H1199 C1196 0.929 . S
S1200 N1201 1.613 . S
S1200 N1202 1.610 . S
N1201 S1200 1.613 . S
N1201 C1204 1.350 . S
N1202 S1200 1.610 . S
N1202 C1203 1.351 . S
C1203 C1197 1.428 . S
C1203 N1202 1.351 . S
C1203 C1204 1.434 . S
C1204 C1195 1.429 . S
C1204 N1201 1.350 . S
C1204 C1203 1.434 . S
C1205 C1206 1.369 . S
C1205 C1207 1.419 . S
C1205 H1209 0.930 . S
C1206 C1205 1.369 . S
C1206 C1215 1.429 . S
C1207 C1205 1.419 . S
C1207 C1208 1.363 . S
C1207 H1210 0.929 . S
C1208 C1207 1.363 . S
C1208 C1214 1.428 . S
H1209 C1205 0.930 . S
H1210 C1207 0.929 . S
S1211 N1212 1.613 . S
S1211 N1213 1.610 . S
N1212 S1211 1.613 . S
N1212 C1215 1.350 . S
N1213 S1211 1.610 . S
N1213 C1214 1.351 . S
C1214 C1208 1.428 . S
C1214 N1213 1.351 . S
C1214 C1215 1.434 . S
C1215 C1206 1.429 . S
C1215 N1212 1.350 . S
C1215 C1214 1.434 . S
C1216 C1217 1.369 . S
C1216 C1218 1.419 . S
C1216 H1220 0.930 . S
C1217 C1216 1.369 . S
C1217 C1226 1.429 . S
C1218 C1216 1.419 . S
C1218 C1219 1.363 . S
C1218 H1221 0.929 . S
C1219 C1218 1.363 . S
C1219 C1225 1.428 . S
H1220 C1216 0.930 . S
H1221 C1218 0.929 . S
S1222 N1223 1.613 1_556 S
S1222 N1224 1.610 1_556 S
N1223 S1222 1.613 1_554 S
N1223 C1226 1.350 . S
N1224 S1222 1.610 1_554 S
N1224 C1225 1.351 . S
C1225 C1219 1.428 . S
C1225 N1224 1.351 . S
C1225 C1226 1.434 . S
C1226 C1217 1.429 . S
C1226 N1223 1.350 . S
C1226 C1225 1.434 . S
C1227 C1228 1.369 . S
C1227 C1229 1.419 . S
C1227 H1231 0.930 . S
C1228 C1227 1.369 . S
C1228 C1237 1.429 . S
C1229 C1227 1.419 . S
C1229 C1230 1.363 . S
C1229 H1232 0.929 . S
C1230 C1229 1.363 . S
C1230 C1236 1.428 . S
H1231 C1227 0.930 . S
H1232 C1229 0.929 . S
S1233 N1234 1.613 . S
S1233 N1235 1.610 . S
N1234 S1233 1.613 . S
N1234 C1237 1.350 . S
N1235 S1233 1.610 . S
N1235 C1236 1.351 . S
C1236 C1230 1.428 . S
C1236 N1235 1.351 . S
C1236 C1237 1.434 . S
C1237 C1228 1.429 . S
C1237 N1234 1.350 . S
C1237 C1236 1.434 . S
C1238 C1239 1.369 . S
C1238 C1240 1.419 . S
C1238 H1242 0.930 . S
C1239 C1238 1.369 . S
C1239 C1248 1.429 . S
C1240 C1238 1.419 . S
C1240 C1241 1.363 . S
C1240 H1243 0.929 . S
C1241 C1240 1.363 . S
C1241 C1247 1.428 . S
H1242 C1238 0.930 . S
H1243 C1240 0.929 . S
S1244 N1245 1.613 . S
S1244 N1246 1.610 . S
N1245 S1244 1.613 . S
N1245 C1248 1.350 . S
N1246 S1244 1.610 . S
N1246 C1247 1.351 . S
C1247 C1241 1.428 . S
C1247 N1246 1.351 . S
C1247 C1248 1.434 . S
C1248 C1239 1.429 . S
C1248 N1245 1.350 . S
C1248 C1247 1.434 . S
C1249 C1250 1.369 . S
C1249 C1251 1.419 . S
C1249 H1253 0.930 . S
C1250 C1249 1.369 . S
C1250 C1259 1.429 . S
C1251 C1249 1.419 . S
C1251 C1252 1.363 . S
C1251 H1254 0.929 . S
C1252 C1251 1.363 . S
C1252 C1258 1.428 . S
H1253 C1249 0.930 . S
H1254 C1251 0.929 . S
S1255 N1256 1.613 . S
S1255 N1257 1.610 . S
N1256 S1255 1.613 . S
N1256 C1259 1.350 . S
N1257 S1255 1.610 . S
N1257 C1258 1.351 . S
C1258 C1252 1.428 . S
C1258 N1257 1.351 . S
C1258 C1259 1.434 . S
C1259 C1250 1.429 . S
C1259 N1256 1.350 . S
C1259 C1258 1.434 . S
C1260 C1261 1.369 . S
C1260 C1262 1.419 . S
C1260 H1264 0.930 . S
C1261 C1260 1.369 . S
C1261 C1270 1.429 . S
C1262 C1260 1.419 . S
C1262 C1263 1.363 . S
C1262 H1265 0.929 . S
C1263 C1262 1.363 . S
C1263 C1269 1.428 . S
H1264 C1260 0.930 . S
H1265 C1262 0.929 . S
S1266 N1267 1.613 . S
S1266 N1268 1.610 . S
N1267 S1266 1.613 . S
N1267 C1270 1.350 . S
N1268 S1266 1.610 . S
N1268 C1269 1.351 . S
C1269 C1263 1.428 . S
C1269 N1268 1.351 . S
C1269 C1270 1.434 . S
C1270 C1261 1.429 . S
C1270 N1267 1.350 . S
C1270 C1269 1.434 . S
C1271 C1272 1.369 . S
C1271 C1273 1.419 . S
C1271 H1275 0.930 . S
C1272 C1271 1.369 . S
C1272 C1281 1.429 . S
C1273 C1271 1.419 . S
C1273 C1274 1.363 . S
C1273 H1276 0.929 . S
C1274 C1273 1.363 . S
C1274 C1280 1.428 . S
H1275 C1271 0.930 . S
H1276 C1273 0.929 . S
S1277 N1278 1.613 . S
S1277 N1279 1.610 . S
N1278 S1277 1.613 . S
N1278 C1281 1.350 . S
N1279 S1277 1.610 . S
N1279 C1280 1.351 . S
C1280 C1274 1.428 . S
C1280 N1279 1.351 . S
C1280 C1281 1.434 . S
C1281 C1272 1.429 . S
C1281 N1278 1.350 . S
C1281 C1280 1.434 . S
C1282 C1283 1.369 . S
C1282 C1284 1.419 . S
C1282 H1286 0.930 . S
C1283 C1282 1.369 . S
C1283 C1292 1.429 . S
C1284 C1282 1.419 . S
C1284 C1285 1.363 . S
C1284 H1287 0.929 . S
C1285 C1284 1.363 . S
C1285 C1291 1.428 . S
H1286 C1282 0.930 . S
H1287 C1284 0.929 . S
S1288 N1289 1.613 1_544 S
S1288 N1290 1.610 . S
N1289 S1288 1.613 1_566 S
N1289 C1292 1.350 . S
N1290 S1288 1.610 . S
N1290 C1291 1.351 1_544 S
C1291 C1285 1.428 . S
C1291 N1290 1.351 1_566 S
C1291 C1292 1.434 . S
C1292 C1283 1.429 . S
C1292 N1289 1.350 . S
C1292 C1291 1.434 . S
C1293 C1294 1.369 . S
C1293 C1295 1.419 . S
C1293 H1297 0.930 . S
C1294 C1293 1.369 . S
C1294 C1303 1.429 . S
C1295 C1293 1.419 . S
C1295 C1296 1.363 . S
C1295 H1298 0.929 . S
C1296 C1295 1.363 . S
C1296 C1302 1.428 . S
H1297 C1293 0.930 . S
H1298 C1295 0.929 . S
S1299 N1300 1.613 . S
S1299 N1301 1.610 . S
N1300 S1299 1.613 . S
N1300 C1303 1.350 . S
N1301 S1299 1.610 . S
N1301 C1302 1.351 . S
C1302 C1296 1.428 . S
C1302 N1301 1.351 . S
C1302 C1303 1.434 . S
C1303 C1294 1.429 . S
C1303 N1300 1.350 . S
C1303 C1302 1.434 . S
C1304 C1305 1.369 . S
C1304 C1306 1.419 . S
C1304 H1308 0.930 . S
C1305 C1304 1.369 . S
C1305 C1314 1.429 1_545 S
C1306 C1304 1.419 . S
C1306 C1307 1.363 . S
C1306 H1309 0.929 . S
C1307 C1306 1.363 . S
C1307 C1313 1.404 1_545 S
H1308 C1304 0.930 . S
H1309 C1306 0.929 . S
S1310 N1311 1.613 . S
S1310 N1312 1.610 . S
N1311 S1310 1.613 . S
N1311 C1314 1.350 . S
N1312 S1310 1.610 . S
N1312 C1313 1.377 . S
C1313 C1307 1.404 1_565 S
C1313 N1312 1.377 . S
C1313 C1314 1.434 . S
C1314 C1305 1.429 1_565 S
C1314 N1311 1.350 . S
C1314 C1313 1.434 . S
C1315 C1316 1.369 . S
C1315 C1317 1.419 . S
C1315 H1319 0.930 . S
C1316 C1315 1.369 . S
C1316 C1325 1.429 . S
C1317 C1315 1.419 . S
C1317 C1318 1.363 . S
C1317 H1320 0.929 . S
C1318 C1317 1.363 . S
C1318 C1324 1.428 . S
H1319 C1315 0.930 . S
H1320 C1317 0.929 . S
S1321 N1322 1.613 . S
S1321 N1323 1.610 . S
N1322 S1321 1.613 . S
N1322 C1325 1.350 . S
N1323 S1321 1.610 . S
N1323 C1324 1.351 . S
C1324 C1318 1.428 . S
C1324 N1323 1.351 . S
C1324 C1325 1.434 . S
C1325 C1316 1.429 . S
C1325 N1322 1.350 . S
C1325 C1324 1.434 . S
C1326 C1327 1.369 . S
C1326 C1328 1.419 . S
C1326 H1330 0.930 . S
C1327 C1326 1.369 . S
C1327 C1336 1.429 . S
C1328 C1326 1.419 . S
C1328 C1329 1.363 . S
C1328 H1331 0.929 . S
C1329 C1328 1.363 . S
C1329 C1335 1.428 . S
H1330 C1326 0.930 . S
H1331 C1328 0.929 . S
S1332 N1333 1.613 . S
S1332 N1334 1.610 . S
N1333 S1332 1.613 . S
N1333 C1336 1.350 . S
N1334 S1332 1.610 . S
N1334 C1335 1.351 . S
C1335 C1329 1.428 . S
C1335 N1334 1.351 . S
C1335 C1336 1.434 . S
C1336 C1327 1.429 . S
C1336 N1333 1.350 . S
C1336 C1335 1.434 . S
C1337 C1338 1.369 . S
C1337 C1339 1.419 . S
C1337 H1341 0.930 . S
C1338 C1337 1.369 . S
C1338 C1347 1.429 . S
C1339 C1337 1.419 . S
C1339 C1340 1.363 . S
C1339 H1342 0.929 . S
C1340 C1339 1.363 . S
C1340 C1346 1.428 . S
H1341 C1337 0.930 . S
H1342 C1339 0.929 . S
S1343 N1344 1.613 . S
S1343 N1345 1.610 . S
N1344 S1343 1.613 . S
N1344 C1347 1.350 . S
N1345 S1343 1.610 . S
N1345 C1346 1.351 . S
C1346 C1340 1.428 . S
C1346 N1345 1.351 . S
C1346 C1347 1.434 . S
C1347 C1338 1.429 . S
C1347 N1344 1.350 . S
C1347 C1346 1.434 . S
C1348 C1349 1.369 . S
C1348 C1350 1.419 . S
C1348 H1352 0.930 . S
C1349 C1348 1.369 . S
C1349 C1358 1.429 . S
C1350 C1348 1.419 . S
C1350 C1351 1.363 . S
C1350 H1353 0.929 . S
C1351 C1350 1.363 . S
C1351 C1357 1.428 . S
H1352 C1348 0.930 . S
H1353 C1350 0.929 . S
S1354 N1355 1.613 . S
S1354 N1356 1.610 1_565 S
N1355 S1354 1.613 . S
N1355 C1358 1.350 1_565 S
N1356 S1354 1.610 1_545 S
N1356 C1357 1.351 . S
C1357 C1351 1.428 . S
C1357 N1356 1.351 . S
C1357 C1358 1.434 . S
C1358 C1349 1.429 . S
C1358 N1355 1.350 1_545 S
C1358 C1357 1.434 . S
C1359 C1360 1.369 . S
C1359 C1361 1.419 . S
C1359 H1363 0.930 . S
C1360 C1359 1.369 . S
C1360 C1369 1.429 . S
C1361 C1359 1.419 . S
C1361 C1362 1.363 . S
C1361 H1364 0.929 . S
C1362 C1361 1.363 . S
C1362 C1368 1.428 . S
H1363 C1359 0.930 . S
H1364 C1361 0.929 . S
S1365 N1366 1.613 . S
S1365 N1367 1.610 . S
N1366 S1365 1.613 . S
N1366 C1369 1.350 . S
N1367 S1365 1.610 . S
N1367 C1368 1.351 . S
C1368 C1362 1.428 . S
C1368 N1367 1.351 . S
C1368 C1369 1.434 . S
C1369 C1360 1.429 . S
C1369 N1366 1.350 . S
C1369 C1368 1.434 . S
C1370 C1371 1.369 1_545 S
C1370 C1372 1.419 . S
C1370 H1374 0.930 . S
C1371 C1370 1.369 1_565 S
C1371 C1380 1.429 . S
C1372 C1370 1.419 . S
C1372 C1373 1.363 1_545 S
C1372 H1375 0.929 . S
C1373 C1372 1.363 1_565 S
C1373 C1379 1.428 . S
H1374 C1370 0.930 . S
H1375 C1372 0.929 . S
S1376 N1377 1.613 . S
S1376 N1378 1.610 . S
N1377 S1376 1.613 . S
N1377 C1380 1.350 . S
N1378 S1376 1.610 . S
N1378 C1379 1.351 . S
C1379 C1373 1.428 . S
C1379 N1378 1.351 . S
C1379 C1380 1.434 . S
C1380 C1371 1.429 . S
C1380 N1377 1.350 . S
C1380 C1379 1.434 . S
C1381 C1382 1.369 . S
C1381 C1383 1.419 . S
C1381 H1385 0.930 . S
C1382 C1381 1.369 . S
C1382 C1391 1.429 . S
C1383 C1381 1.419 . S
C1383 C1384 1.363 . S
C1383 H1386 0.929 . S
C1384 C1383 1.363 . S
C1384 C1390 1.428 . S
H1385 C1381 0.930 . S
H1386 C1383 0.929 . S
S1387 N1388 1.613 . S
S1387 N1389 1.610 . S
N1388 S1387 1.613 . S
N1388 C1391 1.350 . S
N1389 S1387 1.610 . S
N1389 C1390 1.351 . S
C1390 C1384 1.428 . S
C1390 N1389 1.351 . S
C1390 C1391 1.434 . S
C1391 C1382 1.429 . S
C1391 N1388 1.350 . S
C1391 C1390 1.434 . S
C1392 C1393 1.369 . S
C1392 C1394 1.419 1_554 S
C1392 H1396 0.930 1_554 S
C1393 C1392 1.369 . S
C1393 C1402 1.429 . S
C1394 C1392 1.419 1_556 S
C1394 C1395 1.363 1_556 S
C1394 H1397 0.929 . S
C1395 C1394 1.363 1_554 S
C1395 C1401 1.428 . S
H1396 C1392 0.930 1_556 S
H1397 C1394 0.929 . S
S1398 N1399 1.613 . S
S1398 N1400 1.610 . S
N1399 S1398 1.613 . S
N1399 C1402 1.350 . S
N1400 S1398 1.610 . S
N1400 C1401 1.351 . S
C1401 C1395 1.428 . S
C1401 N1400 1.351 . S
C1401 C1402 1.434 . S
C1402 C1393 1.429 . S
C1402 N1399 1.350 . S
C1402 C1401 1.434 . S
C1403 C1404 1.369 . S
C1403 C1405 1.419 . S
C1403 H1407 0.930 . S
C1404 C1403 1.369 . S
C1404 C1413 1.429 . S
C1405 C1403 1.419 . S
C1405 C1406 1.363 . S
C1405 H1408 0.929 . S
C1406 C1405 1.363 . S
C1406 C1412 1.428 . S
H1407 C1403 0.930 . S
H1408 C1405 0.929 . S
S1409 N1410 1.613 . S
S1409 N1411 1.610 . S
N1410 S1409 1.613 . S
N1410 C1413 1.350 . S
N1411 S1409 1.610 . S
N1411 C1412 1.351 . S
C1412 C1406 1.428 . S
C1412 N1411 1.351 . S
C1412 C1413 1.434 . S
C1413 C1404 1.429 . S
C1413 N1410 1.350 . S
C1413 C1412 1.434 . S
C1414 C1415 1.369 . S
C1414 C1416 1.419 . S
C1414 H1418 0.930 . S
C1415 C1414 1.369 . S
C1415 C1424 1.429 . S
C1416 C1414 1.419 . S
C1416 C1417 1.363 . S
C1416 H1419 0.929 . S
C1417 C1416 1.363 . S
C1417 C1423 1.428 . S
H1418 C1414 0.930 . S
H1419 C1416 0.929 . S
S1420 N1421 1.613 . S
S1420 N1422 1.610 . S
N1421 S1420 1.613 . S
N1421 C1424 1.350 . S
N1422 S1420 1.610 . S
N1422 C1423 1.351 . S
C1423 C1417 1.428 . S
C1423 N1422 1.351 . S
C1423 C1424 1.434 . S
C1424 C1415 1.429 . S
C1424 N1421 1.350 . S
C1424 C1423 1.434 . S
C1425 C1426 1.369 . S
C1425 C1427 1.419 . S
C1425 H1429 0.930 . S
C1426 C1425 1.369 . S
C1426 C1435 1.429 . S
C1427 C1425 1.419 . S
C1427 C1428 1.363 . S
C1427 H1430 0.929 . S
C1428 C1427 1.363 . S
C1428 C1434 1.428 . S
H1429 C1425 0.930 . S
H1430 C1427 0.929 . S
S1431 N1432 1.613 . S
S1431 N1433 1.610 . S
N1432 S1431 1.613 . S
N1432 C1435 1.350 . S
N1433 S1431 1.610 . S
N1433 C1434 1.351 . S
C1434 C1428 1.428 . S
C1434 N1433 1.351 . S
C1434 C1435 1.434 . S
C1435 C1426 1.429 . S
C1435 N1432 1.350 . S
C1435 C1434 1.434 . S
C1436 C1437 1.369 . S
C1436 C1438 1.419 . S
C1436 H1440 0.930 . S
C1437 C1436 1.369 . S
C1437 C1446 1.429 1_545 S
C1438 C1436 1.419 . S
C1438 C1439 1.363 1_545 S
C1438 H1441 0.929 . S
C1439 C1438 1.363 1_565 S
C1439 C1445 1.428 . S
H1440 C1436 0.930 . S
H1441 C1438 0.929 . S
S1442 N1443 1.613 . S
S1442 N1444 1.610 . S
N1443 S1442 1.613 . S
N1443 C1446 1.350 . S
N1444 S1442 1.610 . S
N1444 C1445 1.351 . S
C1445 C1439 1.428 . S
C1445 N1444 1.351 . S
C1445 C1446 1.434 . S
C1446 C1437 1.429 1_565 S
C1446 N1443 1.350 . S
C1446 C1445 1.434 . S
C1447 C1448 1.369 . S
C1447 C1449 1.419 . S
C1447 H1451 0.930 . S
C1448 C1447 1.369 . S
C1448 C1457 1.429 . S
C1449 C1447 1.419 . S
C1449 C1450 1.363 . S
C1449 H1452 0.929 . S
C1450 C1449 1.363 . S
C1450 C1456 1.428 . S
H1451 C1447 0.930 . S
H1452 C1449 0.929 . S
S1453 N1454 1.613 . S
S1453 N1455 1.610 . S
N1454 S1453 1.613 . S
N1454 C1457 1.350 . S
N1455 S1453 1.610 . S
N1455 C1456 1.351 . S
C1456 C1450 1.428 . S
C1456 N1455 1.351 . S
C1456 C1457 1.434 . S
C1457 C1448 1.429 . S
C1457 N1454 1.350 . S
C1457 C1456 1.434 . S
C1458 C1459 1.369 . S
C1458 C1460 1.419 . S
C1458 H1462 0.930 . S
C1459 C1458 1.369 . S
C1459 C1468 1.429 . S
C1460 C1458 1.419 . S
C1460 C1461 1.363 . S
C1460 H1463 0.929 . S
C1461 C1460 1.363 . S
C1461 C1467 1.428 . S
H1462 C1458 0.930 . S
H1463 C1460 0.929 . S
S1464 N1465 1.613 . S
S1464 N1466 1.610 . S
N1465 S1464 1.613 . S
N1465 C1468 1.350 . S
N1466 S1464 1.610 . S
N1466 C1467 1.351 . S
C1467 C1461 1.428 . S
C1467 N1466 1.351 . S
C1467 C1468 1.434 . S
C1468 C1459 1.429 . S
C1468 N1465 1.350 . S
C1468 C1467 1.434 . S
C1469 C1470 1.369 . S
C1469 C1471 1.419 . S
C1469 H1473 0.930 . S
C1470 C1469 1.369 . S
C1470 C1479 1.429 . S
C1471 C1469 1.419 . S
C1471 C1472 1.363 . S
C1471 H1474 0.929 . S
C1472 C1471 1.363 . S
C1472 C1478 1.428 . S
H1473 C1469 0.930 . S
H1474 C1471 0.929 . S
S1475 N1476 1.613 . S
S1475 N1477 1.610 . S
N1476 S1475 1.613 . S
N1476 C1479 1.350 . S
N1477 S1475 1.610 . S
N1477 C1478 1.351 . S
C1478 C1472 1.428 . S
C1478 N1477 1.351 . S
C1478 C1479 1.434 . S
C1479 C1470 1.429 . S
C1479 N1476 1.350 . S
C1479 C1478 1.434 . S
C1480 C1481 1.369 . S
C1480 C1482 1.419 . S
C1480 H1484 0.930 . S
C1481 C1480 1.369 . S
C1481 C1490 1.429 . S
C1482 C1480 1.419 . S
C1482 C1483 1.363 . S
C1482 H1485 0.929 . S
C1483 C1482 1.363 . S
C1483 C1489 1.428 . S
H1484 C1480 0.930 . S
H1485 C1482 0.929 . S
S1486 N1487 1.613 . S
S1486 N1488 1.610 . S
N1487 S1486 1.613 . S
N1487 C1490 1.350 . S
N1488 S1486 1.610 . S
N1488 C1489 1.351 . S
C1489 C1483 1.428 . S
C1489 N1488 1.351 . S
C1489 C1490 1.434 . S
C1490 C1481 1.429 . S
C1490 N1487 1.350 . S
C1490 C1489 1.434 . S
C1491 C1492 1.369 . S
C1491 C1493 1.419 . S
C1491 H1495 0.930 . S
C1492 C1491 1.369 . S
C1492 C1501 1.429 . S
C1493 C1491 1.419 . S
C1493 C1494 1.363 . S
C1493 H1496 0.929 . S
C1494 C1493 1.363 . S
C1494 C1500 1.428 . S
H1495 C1491 0.930 . S
H1496 C1493 0.929 . S
S1497 N1498 1.613 . S
S1497 N1499 1.610 . S
N1498 S1497 1.613 . S
N1498 C1501 1.350 . S
N1499 S1497 1.610 . S
N1499 C1500 1.351 . S
C1500 C1494 1.428 . S
C1500 N1499 1.351 . S
C1500 C1501 1.434 . S
C1501 C1492 1.429 . S
C1501 N1498 1.350 . S
C1501 C1500 1.434 . S
C1502 C1503 1.369 . S
C1502 C1504 1.419 1_556 S
C1502 H1506 0.930 . S
C1503 C1502 1.369 . S
C1503 C1512 1.429 . S
C1504 C1502 1.419 1_554 S
C1504 C1505 1.363 1_554 S
C1504 H1507 0.929 . S
C1505 C1504 1.363 1_556 S
C1505 C1511 1.428 . S
H1506 C1502 0.930 . S
H1507 C1504 0.929 . S
S1508 N1509 1.613 . S
S1508 N1510 1.610 . S
N1509 S1508 1.613 . S
N1509 C1512 1.350 . S
N1510 S1508 1.610 . S
N1510 C1511 1.351 . S
C1511 C1505 1.428 . S
C1511 N1510 1.351 . S
C1511 C1512 1.434 . S
C1512 C1503 1.429 . S
C1512 N1509 1.350 . S
C1512 C1511 1.434 . S
C1513 C1514 1.369 . S
C1513 C1515 1.419 1_455 S
C1513 H1517 0.930 . S
C1514 C1513 1.369 . S
C1514 C1523 1.429 . S
C1515 C1513 1.419 1_655 S
C1515 C1516 1.363 . S
C1515 H1518 0.929 . S
C1516 C1515 1.363 . S
C1516 C1522 1.428 . S
H1517 C1513 0.930 . S
H1518 C1515 0.929 . S
S1519 N1520 1.613 1_655 S
S1519 N1521 1.610 . S
N1520 S1519 1.613 1_455 S
N1520 C1523 1.350 . S
N1521 S1519 1.610 . S
N1521 C1522 1.351 . S
C1522 C1516 1.428 . S
C1522 N1521 1.351 . S
C1522 C1523 1.434 1_655 S
C1523 C1514 1.429 . S
C1523 N1520 1.350 . S
C1523 C1522 1.434 1_455 S
C1524 C1525 1.369 . S
C1524 C1526 1.419 . S
C1524 H1528 0.930 . S
C1525 C1524 1.369 . S
C1525 C1534 1.429 . S
C1526 C1524 1.419 . S
C1526 C1527 1.363 . S
C1526 H1529 0.929 . S
C1527 C1526 1.363 . S
C1527 C1533 1.428 . S
H1528 C1524 0.930 . S
H1529 C1526 0.929 . S
S1530 N1531 1.613 . S
S1530 N1532 1.610 . S
N1531 S1530 1.613 . S
N1531 C1534 1.350 . S
N1532 S1530 1.610 . S
N1532 C1533 1.351 . S
C1533 C1527 1.428 . S
C1533 N1532 1.351 . S
C1533 C1534 1.434 . S
C1534 C1525 1.429 . S
C1534 N1531 1.350 . S
C1534 C1533 1.434 . S
C1535 C1536 1.369 . S
C1535 C1537 1.419 . S
C1535 H1539 0.930 . S
C1536 C1535 1.369 . S
C1536 C1545 1.429 . S
C1537 C1535 1.419 . S
C1537 C1538 1.363 . S
C1537 H1540 0.929 1_455 S
C1538 C1537 1.363 . S
C1538 C1544 1.428 . S
H1539 C1535 0.930 . S
H1540 C1537 0.929 1_655 S
S1541 N1542 1.613 . S
S1541 N1543 1.610 . S
N1542 S1541 1.613 . S
N1542 C1545 1.350 . S
N1543 S1541 1.610 . S
N1543 C1544 1.351 . S
C1544 C1538 1.428 . S
C1544 N1543 1.351 . S
C1544 C1545 1.434 . S
C1545 C1536 1.429 . S
C1545 N1542 1.350 . S
C1545 C1544 1.434 . S
C1546 C1547 1.369 . S
C1546 C1548 1.419 . S
C1546 H1550 0.930 . S
C1547 C1546 1.369 . S
C1547 C1556 1.429 1_455 S
C1548 C1546 1.419 . S
C1548 C1549 1.363 . S
C1548 H1551 0.929 . S
C1549 C1548 1.363 . S
C1549 C1555 1.428 . S
H1550 C1546 0.930 . S
H1551 C1548 0.929 . S
S1552 N1553 1.613 . S
S1552 N1554 1.610 1_655 S
N1553 S1552 1.613 . S
N1553 C1556 1.350 . S
N1554 S1552 1.610 1_455 S
N1554 C1555 1.351 . S
C1555 C1549 1.428 . S
C1555 N1554 1.351 . S
C1555 C1556 1.434 1_455 S
C1556 C1547 1.429 1_655 S
C1556 N1553 1.350 . S
C1556 C1555 1.434 1_655 S
C1557 C1558 1.369 . S
C1557 C1559 1.419 . S
C1557 H1561 0.930 . S
C1558 C1557 1.369 . S
C1558 C1567 1.429 . S
C1559 C1557 1.419 . S
C1559 C1560 1.363 . S
C1559 H1562 0.929 . S
C1560 C1559 1.363 . S
C1560 C1566 1.428 . S
H1561 C1557 0.930 . S
H1562 C1559 0.929 . S
S1563 N1564 1.613 . S
S1563 N1565 1.610 . S
N1564 S1563 1.613 . S
N1564 C1567 1.350 . S
N1565 S1563 1.610 . S
N1565 C1566 1.351 . S
C1566 C1560 1.428 . S
C1566 N1565 1.351 . S
C1566 C1567 1.434 . S
C1567 C1558 1.429 . S
C1567 N1564 1.350 . S
C1567 C1566 1.434 . S
C1568 C1569 1.369 . S
C1568 C1570 1.419 . S
C1568 H1572 0.930 . S
C1569 C1568 1.369 . S
C1569 C1578 1.429 . S
C1570 C1568 1.419 . S
C1570 C1571 1.363 . S
C1570 H1573 0.929 . S
C1571 C1570 1.363 . S
C1571 C1577 1.428 . S
H1572 C1568 0.930 . S
H1573 C1570 0.929 . S
S1574 N1575 1.613 . S
S1574 N1576 1.610 . S
N1575 S1574 1.613 . S
N1575 C1578 1.350 . S
N1576 S1574 1.610 . S
N1576 C1577 1.351 . S
C1577 C1571 1.428 . S
C1577 N1576 1.351 . S
C1577 C1578 1.434 . S
C1578 C1569 1.429 . S
C1578 N1575 1.350 . S
C1578 C1577 1.434 . S
C1579 C1580 1.369 . S
C1579 C1581 1.419 . S
C1579 H1583 0.930 . S
C1580 C1579 1.369 . S
C1580 C1589 1.429 . S
C1581 C1579 1.419 . S
C1581 C1582 1.363 . S
C1581 H1584 0.929 . S
C1582 C1581 1.363 . S
C1582 C1588 1.428 . S
H1583 C1579 0.930 . S
H1584 C1581 0.929 . S
S1585 N1586 1.613 . S
S1585 N1587 1.610 . S
N1586 S1585 1.613 . S
N1586 C1589 1.350 . S
N1587 S1585 1.610 . S
N1587 C1588 1.351 . S
C1588 C1582 1.428 . S
C1588 N1587 1.351 . S
C1588 C1589 1.434 . S
C1589 C1580 1.429 . S
C1589 N1586 1.350 . S
C1589 C1588 1.434 . S
C1590 C1591 1.369 . S
C1590 C1592 1.419 . S
C1590 H1594 0.930 . S
C1591 C1590 1.369 . S
C1591 C1600 1.429 . S
C1592 C1590 1.419 . S
C1592 C1593 1.363 . S
C1592 H1595 0.929 . S
C1593 C1592 1.363 . S
C1593 C1599 1.428 . S
H1594 C1590 0.930 . S
H1595 C1592 0.929 . S
S1596 N1597 1.613 . S
S1596 N1598 1.610 . S
N1597 S1596 1.613 . S
N1597 C1600 1.350 . S
N1598 S1596 1.610 . S
N1598 C1599 1.351 . S
C1599 C1593 1.428 . S
C1599 N1598 1.351 . S
C1599 C1600 1.434 . S
C1600 C1591 1.429 . S
C1600 N1597 1.350 . S
C1600 C1599 1.434 . S
C1601 C1602 1.369 . S
C1601 C1603 1.419 . S
C1601 H1605 0.930 . S
C1602 C1601 1.369 . S
C1602 C1611 1.429 . S
C1603 C1601 1.419 . S
C1603 C1604 1.363 . S
C1603 H1606 0.929 . S
C1604 C1603 1.363 . S
C1604 C1610 1.428 . S
H1605 C1601 0.930 . S
H1606 C1603 0.929 . S
S1607 N1608 1.613 . S
S1607 N1609 1.610 . S
N1608 S1607 1.613 . S
N1608 C1611 1.350 . S
N1609 S1607 1.610 . S
N1609 C1610 1.351 . S
C1610 C1604 1.428 . S
C1610 N1609 1.351 . S
C1610 C1611 1.434 . S
C1611 C1602 1.429 . S
C1611 N1608 1.350 . S
C1611 C1610 1.434 . S
C1612 C1613 1.369 . S
C1612 C1614 1.419 . S
C1612 H1616 0.930 . S
C1613 C1612 1.369 . S
C1613 C1622 1.429 . S
C1614 C1612 1.419 . S
C1614 C1615 1.363 . S
C1614 H1617 0.929 . S
C1615 C1614 1.363 . S
C1615 C1621 1.428 . S
H1616 C1612 0.930 . S
H1617 C1614 0.929 . S
S1618 N1619 1.613 . S
S1618 N1620 1.610 . S
N1619 S1618 1.613 . S
N1619 C1622 1.350 . S
N1620 S1618 1.610 . S
N1620 C1621 1.351 . S
C1621 C1615 1.428 . S
C1621 N1620 1.351 . S
C1621 C1622 1.434 . S
C1622 C1613 1.429 . S
C1622 N1619 1.350 . S
C1622 C1621 1.434 . S
C1623 C1624 1.369 . S
C1623 C1625 1.419 . S
C1623 H1627 0.930 . S
C1624 C1623 1.369 . S
C1624 C1633 1.429 . S
C1625 C1623 1.419 . S
C1625 C1626 1.363 . S
C1625 H1628 0.929 . S
C1626 C1625 1.363 . S
C1626 C1632 1.428 . S
H1627 C1623 0.930 . S
H1628 C1625 0.929 . S
S1629 N1630 1.613 . S
S1629 N1631 1.610 . S
N1630 S1629 1.613 . S
N1630 C1633 1.350 . S
N1631 S1629 1.610 . S
N1631 C1632 1.351 . S
C1632 C1626 1.428 . S
C1632 N1631 1.351 . S
C1632 C1633 1.434 . S
C1633 C1624 1.429 . S
C1633 N1630 1.350 . S
C1633 C1632 1.434 . S
C1634 C1635 1.369 . S
C1634 C1636 1.419 . S
C1634 H1638 0.930 . S
C1635 C1634 1.369 . S
C1635 C1644 1.429 . S
C1636 C1634 1.419 . S
C1636 C1637 1.363 . S
C1636 H1639 0.929 . S
C1637 C1636 1.363 . S
C1637 C1643 1.428 . S
H1638 C1634 0.930 . S
H1639 C1636 0.929 . S
S1640 N1641 1.613 . S
S1640 N1642 1.610 . S
N1641 S1640 1.613 . S
N1641 C1644 1.350 . S
N1642 S1640 1.610 . S
N1642 C1643 1.351 . S
C1643 C1637 1.428 . S
C1643 N1642 1.351 . S
C1643 C1644 1.434 . S
C1644 C1635 1.429 . S
C1644 N1641 1.350 . S
C1644 C1643 1.434 . S
C1645 C1646 1.369 . S
C1645 C1647 1.419 . S
C1645 H1649 0.930 . S
C1646 C1645 1.369 . S
C1646 C1655 1.429 . S
C1647 C1645 1.419 . S
C1647 C1648 1.363 . S
C1647 H1650 0.929 . S
C1648 C1647 1.363 . S
C1648 C1654 1.428 . S
H1649 C1645 0.930 . S
H1650 C1647 0.929 . S
S1651 N1652 1.613 . S
S1651 N1653 1.610 . S
N1652 S1651 1.613 . S
N1652 C1655 1.350 . S
N1653 S1651 1.610 . S
N1653 C1654 1.351 . S
C1654 C1648 1.428 . S
C1654 N1653 1.351 . S
C1654 C1655 1.434 . S
C1655 C1646 1.429 . S
C1655 N1652 1.350 . S
C1655 C1654 1.434 . S
C1656 C1657 1.369 . S
C1656 C1658 1.419 . S
C1656 H1660 0.930 . S
C1657 C1656 1.369 . S
C1657 C1666 1.429 . S
C1658 C1656 1.419 . S
C1658 C1659 1.363 . S
C1658 H1661 0.929 . S
C1659 C1658 1.363 . S
C1659 C1665 1.428 . S
H1660 C1656 0.930 . S
H1661 C1658 0.929 . S
S1662 N1663 1.613 . S
S1662 N1664 1.610 . S
N1663 S1662 1.613 . S
N1663 C1666 1.350 . S
N1664 S1662 1.610 . S
N1664 C1665 1.351 . S
C1665 C1659 1.428 . S
C1665 N1664 1.351 . S
C1665 C1666 1.434 . S
C1666 C1657 1.429 . S
C1666 N1663 1.350 . S
C1666 C1665 1.434 . S
C1667 C1668 1.369 . S
C1667 C1669 1.419 . S
C1667 H1671 0.930 . S
C1668 C1667 1.369 . S
C1668 C1677 1.429 . S
C1669 C1667 1.419 . S
C1669 C1670 1.363 . S
C1669 H1672 0.929 . S
C1670 C1669 1.363 . S
C1670 C1676 1.428 . S
H1671 C1667 0.930 . S
H1672 C1669 0.929 . S
S1673 N1674 1.613 . S
S1673 N1675 1.610 . S
N1674 S1673 1.613 . S
N1674 C1677 1.350 . S
N1675 S1673 1.610 . S
N1675 C1676 1.351 . S
C1676 C1670 1.428 . S
C1676 N1675 1.351 . S
C1676 C1677 1.434 . S
C1677 C1668 1.429 . S
C1677 N1674 1.350 . S
C1677 C1676 1.434 . S
C1678 C1679 1.369 . S
C1678 C1680 1.419 . S
C1678 H1682 0.930 . S
C1679 C1678 1.369 . S
C1679 C1688 1.429 . S
C1680 C1678 1.419 . S
C1680 C1681 1.363 . S
C1680 H1683 0.929 . S
C1681 C1680 1.363 . S
C1681 C1687 1.428 . S
H1682 C1678 0.930 . S
H1683 C1680 0.929 . S
S1684 N1685 1.613 . S
S1684 N1686 1.610 . S
N1685 S1684 1.613 . S
N1685 C1688 1.350 . S
N1686 S1684 1.610 . S
N1686 C1687 1.351 . S
C1687 C1681 1.428 . S
C1687 N1686 1.351 . S
C1687 C1688 1.434 . S
C1688 C1679 1.429 . S
C1688 N1685 1.350 . S
C1688 C1687 1.434 . S
C1689 C1690 1.369 . S
C1689 C1691 1.419 . S
C1689 H1693 0.930 . S
C1690 C1689 1.369 . S
C1690 C1699 1.429 1_545 S
C1691 C1689 1.419 . S
C1691 C1692 1.363 . S
C1691 H1694 0.929 . S
C1692 C1691 1.363 . S
C1692 C1698 1.428 1_545 S
H1693 C1689 0.930 . S
H1694 C1691 0.929 . S
S1695 N1696 1.613 . S
S1695 N1697 1.610 . S
N1696 S1695 1.613 . S
N1696 C1699 1.350 1_556 S
N1697 S1695 1.610 . S
N1697 C1698 1.351 1_556 S
C1698 C1692 1.428 1_565 S
C1698 N1697 1.351 1_554 S
C1698 C1699 1.434 . S
C1699 C1690 1.429 1_565 S
C1699 N1696 1.350 1_554 S
C1699 C1698 1.434 . S
C1700 C1701 1.369 . S
C1700 C1702 1.419 . S
C1700 H1704 0.930 . S
C1701 C1700 1.369 . S
C1701 C1710 1.429 . S
C1702 C1700 1.419 . S
C1702 C1703 1.363 . S
C1702 H1705 0.929 . S
C1703 C1702 1.363 . S
C1703 C1709 1.428 . S
H1704 C1700 0.930 . S
H1705 C1702 0.929 . S
S1706 N1707 1.613 . S
S1706 N1708 1.610 . S
N1707 S1706 1.613 . S
N1707 C1710 1.350 . S
N1708 S1706 1.610 . S
N1708 C1709 1.351 . S
C1709 C1703 1.428 . S
C1709 N1708 1.351 . S
C1709 C1710 1.434 . S
C1710 C1701 1.429 . S
C1710 N1707 1.350 . S
C1710 C1709 1.434 . S
C1711 C1712 1.369 . S
C1711 C1713 1.419 . S
C1711 H1715 0.930 . S
C1712 C1711 1.369 . S
C1712 C1721 1.429 . S
C1713 C1711 1.419 . S
C1713 C1714 1.363 . S
C1713 H1716 0.929 . S
C1714 C1713 1.363 . S
C1714 C1720 1.428 . S
H1715 C1711 0.930 . S
H1716 C1713 0.929 . S
S1717 N1718 1.613 . S
S1717 N1719 1.610 . S
N1718 S1717 1.613 . S
N1718 C1721 1.350 . S
N1719 S1717 1.610 . S
N1719 C1720 1.351 . S
C1720 C1714 1.428 . S
C1720 N1719 1.351 . S
C1720 C1721 1.434 . S
C1721 C1712 1.429 . S
C1721 N1718 1.350 . S
C1721 C1720 1.434 . S
C1722 C1723 1.369 . S
C1722 C1724 1.419 . S
C1722 H1726 0.930 . S
C1723 C1722 1.369 . S
C1723 C1732 1.429 . S
C1724 C1722 1.419 . S
C1724 C1725 1.363 . S
C1724 H1727 0.929 . S
C1725 C1724 1.363 . S
C1725 C1731 1.428 . S
H1726 C1722 0.930 . S
H1727 C1724 0.929 . S
S1728 N1729 1.613 . S
S1728 N1730 1.610 . S
N1729 S1728 1.613 . S
N1729 C1732 1.350 . S
N1730 S1728 1.610 . S
N1730 C1731 1.351 . S
C1731 C1725 1.428 . S
C1731 N1730 1.351 . S
C1731 C1732 1.434 . S
C1732 C1723 1.429 . S
C1732 N1729 1.350 . S
C1732 C1731 1.434 . S
C1733 C1734 1.369 . S
C1733 C1735 1.419 . S
C1733 H1737 0.930 . S
C1734 C1733 1.369 . S
C1734 C1743 1.429 . S
C1735 C1733 1.419 . S
C1735 C1736 1.363 . S
C1735 H1738 0.929 . S
C1736 C1735 1.363 . S
C1736 C1742 1.428 . S
H1737 C1733 0.930 . S
H1738 C1735 0.929 . S
S1739 N1740 1.613 . S
S1739 N1741 1.610 . S
N1740 S1739 1.613 . S
N1740 C1743 1.350 . S
N1741 S1739 1.610 . S
N1741 C1742 1.351 . S
C1742 C1736 1.428 . S
C1742 N1741 1.351 . S
C1742 C1743 1.434 . S
C1743 C1734 1.429 . S
C1743 N1740 1.350 . S
C1743 C1742 1.434 . S
C1744 C1745 1.369 . S
C1744 C1746 1.419 . S
C1744 H1748 0.930 . S
C1745 C1744 1.369 . S
C1745 C1754 1.429 . S
C1746 C1744 1.419 . S
C1746 C1747 1.363 . S
C1746 H1749 0.929 . S
C1747 C1746 1.363 . S
C1747 C1753 1.428 . S
H1748 C1744 0.930 . S
H1749 C1746 0.929 . S
S1750 N1751 1.613 . S
S1750 N1752 1.610 . S
N1751 S1750 1.613 . S
N1751 C1754 1.350 . S
N1752 S1750 1.610 . S
N1752 C1753 1.351 . S
C1753 C1747 1.428 . S
C1753 N1752 1.351 . S
C1753 C1754 1.434 . S
C1754 C1745 1.429 . S
C1754 N1751 1.350 . S
C1754 C1753 1.434 . S
C1755 C1756 1.369 . S
C1755 C1757 1.419 . S
C1755 H1759 0.930 . S
C1756 C1755 1.369 . S
C1756 C1765 1.429 . S
C1757 C1755 1.419 . S
C1757 C1758 1.363 . S
C1757 H1760 0.929 . S
C1758 C1757 1.363 . S
C1758 C1764 1.428 . S
H1759 C1755 0.930 . S
H1760 C1757 0.929 . S
S1761 N1762 1.613 . S
S1761 N1763 1.610 . S
N1762 S1761 1.613 . S
N1762 C1765 1.350 . S
N1763 S1761 1.610 . S
N1763 C1764 1.351 . S
C1764 C1758 1.428 . S
C1764 N1763 1.351 . S
C1764 C1765 1.434 . S
C1765 C1756 1.429 . S
C1765 N1762 1.350 . S
C1765 C1764 1.434 . S
C1766 C1767 1.369 . S
C1766 C1768 1.419 . S
C1766 H1770 0.930 . S
C1767 C1766 1.369 . S
C1767 C1776 1.429 . S
C1768 C1766 1.419 . S
C1768 C1769 1.363 . S
C1768 H1771 0.929 . S
C1769 C1768 1.363 . S
C1769 C1775 1.428 . S
H1770 C1766 0.930 . S
H1771 C1768 0.929 . S
S1772 N1773 1.613 . S
S1772 N1774 1.610 . S
N1773 S1772 1.613 . S
N1773 C1776 1.350 . S
N1774 S1772 1.610 . S
N1774 C1775 1.351 . S
C1775 C1769 1.428 . S
C1775 N1774 1.351 . S
C1775 C1776 1.434 . S
C1776 C1767 1.429 . S
C1776 N1773 1.350 . S
C1776 C1775 1.434 . S
C1777 C1778 1.369 . S
C1777 C1779 1.419 . S
C1777 H1781 0.930 . S
C1778 C1777 1.369 . S
C1778 C1787 1.429 . S
C1779 C1777 1.419 . S
C1779 C1780 1.363 . S
C1779 H1782 0.929 . S
C1780 C1779 1.363 . S
C1780 C1786 1.428 . S
H1781 C1777 0.930 . S
H1782 C1779 0.929 . S
S1783 N1784 1.613 . S
S1783 N1785 1.610 . S
N1784 S1783 1.613 . S
N1784 C1787 1.350 . S
N1785 S1783 1.610 . S
N1785 C1786 1.351 . S
C1786 C1780 1.428 . S
C1786 N1785 1.351 . S
C1786 C1787 1.434 . S
C1787 C1778 1.429 . S
C1787 N1784 1.350 . S
C1787 C1786 1.434 . S
C1788 C1789 1.369 . S
C1788 C1790 1.419 . S
C1788 H1792 0.930 . S
C1789 C1788 1.369 . S
C1789 C1798 1.429 . S
C1790 C1788 1.419 . S
C1790 C1791 1.363 . S
C1790 H1793 0.929 . S
C1791 C1790 1.363 . S
C1791 C1797 1.428 . S
H1792 C1788 0.930 . S
H1793 C1790 0.929 . S
S1794 N1795 1.613 . S
S1794 N1796 1.610 . S
N1795 S1794 1.613 . S
N1795 C1798 1.350 1_554 S
N1796 S1794 1.610 . S
N1796 C1797 1.351 1_554 S
C1797 C1791 1.428 . S
C1797 N1796 1.351 1_556 S
C1797 C1798 1.434 . S
C1798 C1789 1.429 . S
C1798 N1795 1.350 1_556 S
C1798 C1797 1.434 . S
C1799 C1800 1.369 . S
C1799 C1801 1.419 . S
C1799 H1803 0.930 . S
C1800 C1799 1.369 . S
C1800 C1809 1.429 . S
C1801 C1799 1.419 . S
C1801 C1802 1.363 . S
C1801 H1804 0.929 . S
C1802 C1801 1.363 . S
C1802 C1808 1.428 . S
H1803 C1799 0.930 . S
H1804 C1801 0.929 . S
S1805 N1806 1.613 . S
S1805 N1807 1.610 . S
N1806 S1805 1.613 . S
N1806 C1809 1.350 . S
N1807 S1805 1.610 . S
N1807 C1808 1.351 . S
C1808 C1802 1.428 . S
C1808 N1807 1.351 . S
C1808 C1809 1.434 . S
C1809 C1800 1.429 . S
C1809 N1806 1.350 . S
C1809 C1808 1.434 . S
C1810 C1811 1.369 . S
C1810 C1812 1.419 . S
C1810 H1814 0.930 . S
C1811 C1810 1.369 . S
C1811 C1820 1.429 . S
C1812 C1810 1.419 . S
C1812 C1813 1.363 . S
C1812 H1815 0.929 . S
C1813 C1812 1.363 . S
C1813 C1819 1.428 . S
H1814 C1810 0.930 . S
H1815 C1812 0.929 . S
S1816 N1817 1.613 . S
S1816 N1818 1.610 . S
N1817 S1816 1.613 . S
N1817 C1820 1.350 . S
N1818 S1816 1.610 . S
N1818 C1819 1.351 . S
C1819 C1813 1.428 . S
C1819 N1818 1.351 . S
C1819 C1820 1.434 . S
C1820 C1811 1.429 . S
C1820 N1817 1.350 . S
C1820 C1819 1.434 . S
C1821 C1822 1.369 . S
C1821 C1823 1.419 . S
C1821 H1825 0.930 . S
C1822 C1821 1.369 . S
C1822 C1831 1.429 . S
C1823 C1821 1.419 . S
C1823 C1824 1.363 . S
C1823 H1826 0.929 . S
C1824 C1823 1.363 . S
C1824 C1830 1.428 . S
H1825 C1821 0.930 . S
H1826 C1823 0.929 . S
S1827 N1828 1.613 . S
S1827 N1829 1.610 . S
N1828 S1827 1.613 . S
N1828 C1831 1.350 . S
N1829 S1827 1.610 . S
N1829 C1830 1.351 . S
C1830 C1824 1.428 . S
C1830 N1829 1.351 . S
C1830 C1831 1.434 . S
C1831 C1822 1.429 . S
C1831 N1828 1.350 . S
C1831 C1830 1.434 . S
C1832 C1833 1.369 . S
C1832 C1834 1.419 . S
C1832 H1836 0.930 . S
C1833 C1832 1.369 . S
C1833 C1842 1.429 . S
C1834 C1832 1.419 . S
C1834 C1835 1.363 . S
C1834 H1837 0.929 . S
C1835 C1834 1.363 . S
C1835 C1841 1.428 . S
H1836 C1832 0.930 . S
H1837 C1834 0.929 . S
S1838 N1839 1.613 . S
S1838 N1840 1.610 . S
N1839 S1838 1.613 . S
N1839 C1842 1.350 . S
N1840 S1838 1.610 . S
N1840 C1841 1.351 . S
C1841 C1835 1.428 . S
C1841 N1840 1.351 . S
C1841 C1842 1.434 . S
C1842 C1833 1.429 . S
C1842 N1839 1.350 . S
C1842 C1841 1.434 . S
C1843 C1844 1.369 . S
C1843 C1845 1.419 . S
C1843 H1847 0.930 . S
C1844 C1843 1.369 . S
C1844 C1853 1.429 . S
C1845 C1843 1.419 . S
C1845 C1846 1.363 . S
C1845 H1848 0.929 . S
C1846 C1845 1.363 . S
C1846 C1852 1.428 . S
H1847 C1843 0.930 . S
H1848 C1845 0.929 . S
S1849 N1850 1.613 . S
S1849 N1851 1.610 . S
N1850 S1849 1.613 . S
N1850 C1853 1.350 . S
N1851 S1849 1.610 . S
N1851 C1852 1.351 . S
C1852 C1846 1.428 . S
C1852 N1851 1.351 . S
C1852 C1853 1.434 . S
C1853 C1844 1.429 . S
C1853 N1850 1.350 . S
C1853 C1852 1.434 . S
C1854 C1855 1.369 1_455 S
C1854 C1856 1.419 . S
C1854 H1858 0.930 . S
C1855 C1854 1.369 1_655 S
C1855 C1864 1.429 . S
C1856 C1854 1.419 . S
C1856 C1857 1.363 . S
C1856 H1859 0.929 . S
C1857 C1856 1.363 . S
C1857 C1863 1.428 . S
H1858 C1854 0.930 . S
H1859 C1856 0.929 . S
S1860 N1861 1.613 . S
S1860 N1862 1.610 . S
N1861 S1860 1.613 . S
N1861 C1864 1.350 . S
N1862 S1860 1.610 . S
N1862 C1863 1.351 1_655 S
C1863 C1857 1.428 . S
C1863 N1862 1.351 1_455 S
C1863 C1864 1.434 1_455 S
C1864 C1855 1.429 . S
C1864 N1861 1.350 . S
C1864 C1863 1.434 1_655 S
C1865 C1866 1.369 . S
C1865 C1867 1.419 . S
C1865 H1869 0.930 . S
C1866 C1865 1.369 . S
C1866 C1875 1.429 . S
C1867 C1865 1.419 . S
C1867 C1868 1.363 . S
C1867 H1870 0.929 . S
C1868 C1867 1.363 . S
C1868 C1874 1.428 . S
H1869 C1865 0.930 . S
H1870 C1867 0.929 . S
S1871 N1872 1.613 . S
S1871 N1873 1.610 . S
N1872 S1871 1.613 . S
N1872 C1875 1.350 . S
N1873 S1871 1.610 . S
N1873 C1874 1.351 . S
C1874 C1868 1.428 . S
C1874 N1873 1.351 . S
C1874 C1875 1.434 . S
C1875 C1866 1.429 . S
C1875 N1872 1.350 . S
C1875 C1874 1.434 . S
C1876 C1877 1.369 . S
C1876 C1878 1.419 . S
C1876 H1880 0.930 . S
C1877 C1876 1.369 . S
C1877 C1886 1.429 . S
C1878 C1876 1.419 . S
C1878 C1879 1.363 . S
C1878 H1881 0.929 . S
C1879 C1878 1.363 . S
C1879 C1885 1.428 . S
H1880 C1876 0.930 . S
H1881 C1878 0.929 . S
S1882 N1883 1.613 . S
S1882 N1884 1.610 . S
N1883 S1882 1.613 . S
N1883 C1886 1.350 . S
N1884 S1882 1.610 . S
N1884 C1885 1.351 . S
C1885 C1879 1.428 . S
C1885 N1884 1.351 . S
C1885 C1886 1.434 . S
C1886 C1877 1.429 . S
C1886 N1883 1.350 . S
C1886 C1885 1.434 . S
C1887 C1888 1.369 . S
C1887 C1889 1.419 . S
C1887 H1891 0.930 . S
C1888 C1887 1.369 . S
C1888 C1897 1.429 . S
C1889 C1887 1.419 . S
C1889 C1890 1.363 . S
C1889 H1892 0.929 . S
C1890 C1889 1.363 . S
C1890 C1896 1.428 . S
H1891 C1887 0.930 . S
H1892 C1889 0.929 . S
S1893 N1894 1.613 . S
S1893 N1895 1.610 . S
N1894 S1893 1.613 . S
N1894 C1897 1.350 . S
N1895 S1893 1.610 . S
N1895 C1896 1.351 . S
C1896 C1890 1.428 . S
C1896 N1895 1.351 . S
C1896 C1897 1.434 . S
C1897 C1888 1.429 . S
C1897 N1894 1.350 . S
C1897 C1896 1.434 . S
C1898 C1899 1.369 . S
C1898 C1900 1.419 . S
C1898 H1902 0.930 . S
C1899 C1898 1.369 . S
C1899 C1908 1.440 . S
C1900 C1898 1.419 . S
C1900 C1901 1.363 . S
C1900 H1903 0.929 . S
C1901 C1900 1.363 . S
C1901 C1907 1.414 1_655 S
H1902 C1898 0.930 . S
H1903 C1900 0.929 . S
S1904 N1905 1.613 . S
S1904 N1906 1.610 . S
N1905 S1904 1.613 . S
N1905 C1908 1.339 1_455 S
N1906 S1904 1.610 . S
N1906 C1907 1.368 . S
C1907 C1901 1.414 1_455 S
C1907 N1906 1.368 . S
C1907 C1908 1.430 1_455 S
C1908 C1899 1.440 . S
C1908 N1905 1.339 1_655 S
C1908 C1907 1.430 1_655 S
C1909 C1910 1.369 . S
C1909 C1911 1.419 . S
C1909 H1913 0.930 . S
C1910 C1909 1.369 . S
C1910 C1919 1.429 . S
C1911 C1909 1.419 . S
C1911 C1912 1.363 . S
C1911 H1914 0.929 . S
C1912 C1911 1.363 . S
C1912 C1918 1.428 . S
H1913 C1909 0.930 . S
H1914 C1911 0.929 . S
S1915 N1916 1.613 . S
S1915 N1917 1.610 . S
N1916 S1915 1.613 . S
N1916 C1919 1.350 . S
N1917 S1915 1.610 . S
N1917 C1918 1.351 . S
C1918 C1912 1.428 . S
C1918 N1917 1.351 . S
C1918 C1919 1.434 . S
C1919 C1910 1.429 . S
C1919 N1916 1.350 . S
C1919 C1918 1.434 . S
C1920 C1921 1.369 . S
C1920 C1922 1.419 . S
C1920 H1924 0.930 . S
C1921 C1920 1.369 . S
C1921 C1930 1.429 . S
C1922 C1920 1.419 . S
C1922 C1923 1.363 . S
C1922 H1925 0.929 . S
C1923 C1922 1.363 . S
C1923 C1929 1.428 . S
H1924 C1920 0.930 . S
H1925 C1922 0.929 . S
S1926 N1927 1.613 . S
S1926 N1928 1.610 . S
N1927 S1926 1.613 . S
N1927 C1930 1.350 . S
N1928 S1926 1.610 . S
N1928 C1929 1.351 . S
C1929 C1923 1.428 . S
C1929 N1928 1.351 . S
C1929 C1930 1.434 . S
C1930 C1921 1.429 . S
C1930 N1927 1.350 . S
C1930 C1929 1.434 . S
C1931 C1932 1.369 . S
C1931 C1933 1.419 . S
C1931 H1935 0.930 . S
C1932 C1931 1.369 . S
C1932 C1941 1.429 . S
C1933 C1931 1.419 . S
C1933 C1934 1.363 . S
C1933 H1936 0.929 1_565 S
C1934 C1933 1.363 . S
C1934 C1940 1.428 . S
H1935 C1931 0.930 . S
H1936 C1933 0.929 1_545 S
S1937 N1938 1.620 . S
S1937 N1939 1.610 1_655 S
N1938 S1937 1.620 . S
N1938 C1941 1.350 . S
N1939 S1937 1.610 1_455 S
N1939 C1940 1.351 1_455 S
C1940 C1934 1.428 . S
C1940 N1939 1.351 1_655 S
C1940 C1941 1.434 . S
C1941 C1932 1.429 . S
C1941 N1938 1.350 . S
C1941 C1940 1.434 . S
C1942 C1943 1.369 . S
C1942 C1944 1.419 . S
C1942 H1946 0.930 . S
C1943 C1942 1.369 . S
C1943 C1952 1.429 . S
C1944 C1942 1.419 . S
C1944 C1945 1.363 . S
C1944 H1947 0.929 . S
C1945 C1944 1.363 . S
C1945 C1951 1.428 . S
H1946 C1942 0.930 . S
H1947 C1944 0.929 . S
S1948 N1949 1.613 . S
S1948 N1950 1.610 . S
N1949 S1948 1.613 . S
N1949 C1952 1.350 . S
N1950 S1948 1.610 . S
N1950 C1951 1.351 . S
C1951 C1945 1.428 . S
C1951 N1950 1.351 . S
C1951 C1952 1.434 . S
C1952 C1943 1.429 . S
C1952 N1949 1.350 . S
C1952 C1951 1.434 . S
C1953 C1954 1.369 . S
C1953 C1955 1.419 . S
C1953 H1957 0.930 . S
C1954 C1953 1.369 . S
C1954 C1963 1.429 . S
C1955 C1953 1.419 . S
C1955 C1956 1.363 . S
C1955 H1958 0.929 . S
C1956 C1955 1.363 . S
C1956 C1962 1.428 . S
H1957 C1953 0.930 . S
H1958 C1955 0.929 . S
S1959 N1960 1.613 . S
S1959 N1961 1.610 . S
N1960 S1959 1.613 . S
N1960 C1963 1.350 1_556 S
N1961 S1959 1.610 . S
N1961 C1962 1.351 1_556 S
C1962 C1956 1.428 . S
C1962 N1961 1.351 1_554 S
C1962 C1963 1.434 . S
C1963 C1954 1.429 . S
C1963 N1960 1.350 1_554 S
C1963 C1962 1.434 . S
C1964 C1965 1.369 . S
C1964 C1966 1.419 . S
C1964 H1968 0.930 . S
C1965 C1964 1.369 . S
C1965 C1974 1.429 . S
C1966 C1964 1.419 . S
C1966 C1967 1.363 . S
C1966 H1969 0.929 . S
C1967 C1966 1.363 . S
C1967 C1973 1.428 . S
H1968 C1964 0.930 . S
H1969 C1966 0.929 . S
S1970 N1971 1.613 . S
S1970 N1972 1.610 . S
N1971 S1970 1.613 . S
N1971 C1974 1.350 . S
N1972 S1970 1.610 . S
N1972 C1973 1.351 . S
C1973 C1967 1.428 . S
C1973 N1972 1.351 . S
C1973 C1974 1.434 . S
C1974 C1965 1.429 . S
C1974 N1971 1.350 . S
C1974 C1973 1.434 . S
C1975 C1976 1.369 . S
C1975 C1977 1.419 . S
C1975 H1979 0.930 . S
C1976 C1975 1.369 . S
C1976 C1985 1.429 1_554 S
C1977 C1975 1.419 . S
C1977 C1978 1.363 1_554 S
C1977 H1980 0.929 . S
C1978 C1977 1.363 1_556 S
C1978 C1984 1.428 . S
H1979 C1975 0.930 . S
H1980 C1977 0.929 . S
S1981 N1982 1.613 . S
S1981 N1983 1.610 . S
N1982 S1981 1.613 . S
N1982 C1985 1.350 . S
N1983 S1981 1.610 . S
N1983 C1984 1.351 . S
C1984 C1978 1.428 . S
C1984 N1983 1.351 . S
C1984 C1985 1.434 . S
C1985 C1976 1.429 1_556 S
C1985 N1982 1.350 . S
C1985 C1984 1.434 . S
C1986 C1987 1.369 . S
C1986 C1988 1.419 . S
C1986 H1990 0.930 . S
C1987 C1986 1.369 . S
C1987 C1996 1.429 . S
C1988 C1986 1.419 . S
C1988 C1989 1.363 . S
C1988 H1991 0.929 . S
C1989 C1988 1.363 . S
C1989 C1995 1.428 . S
H1990 C1986 0.930 . S
H1991 C1988 0.929 . S
S1992 N1993 1.613 . S
S1992 N1994 1.610 . S
N1993 S1992 1.613 . S
N1993 C1996 1.350 . S
N1994 S1992 1.610 . S
N1994 C1995 1.351 . S
C1995 C1989 1.428 . S
C1995 N1994 1.351 . S
C1995 C1996 1.434 . S
C1996 C1987 1.429 . S
C1996 N1993 1.350 . S
C1996 C1995 1.434 . S
C1997 C1998 1.369 . S
C1997 C1999 1.419 . S
C1997 H2001 0.930 . S
C1998 C1997 1.369 . S
C1998 C2007 1.429 . S
C1999 C1997 1.419 . S
C1999 C2000 1.363 . S
C1999 H2002 0.929 . S
C2000 C1999 1.363 . S
C2000 C2006 1.428 . S
H2001 C1997 0.930 . S
H2002 C1999 0.929 . S
S2003 N2004 1.613 . S
S2003 N2005 1.610 . S
N2004 S2003 1.613 . S
N2004 C2007 1.350 . S
N2005 S2003 1.610 . S
N2005 C2006 1.351 . S
C2006 C2000 1.428 . S
C2006 N2005 1.351 . S
C2006 C2007 1.434 . S
C2007 C1998 1.429 . S
C2007 N2004 1.350 . S
C2007 C2006 1.434 . S
C953 C101 1.133 . S
C955 C320 1.156 . S
C964 C57 1.482 . S
C966 C354 1.477 . S
C975 C73 0.810 . S
C977 C423 0.808 . S
C988 C461 0.980 . S
C986 C78 0.985 . S
C997 C21 1.579 . S
C999 C501 1.674 . S
C1010 C520 0.519 . S
C1008 C31 0.537 . S
C1021 C554 1.545 . S
C1019 C49 1.504 . S
C1030 C0 1.702 . S
C1032 C623 1.769 . S
C1043 C329 2.493 . S
C1041 C218 2.529 1_455 S
C1052 C229 1.177 . S
C1054 C381 1.261 . S
C1065 C394 1.358 . S
C1063 C257 1.357 . S
C1076 C463 1.654 . S
C1074 C164 1.566 . S
C1085 C216 1.949 1_455 S
C1087 C503 2.114 . S
C1098 C529 1.861 . S
C1096 C231 1.872 . S
C1109 C581 0.608 . S
C1107 C255 0.631 . S
C1120 C594 2.330 . S
C1118 C166 2.352 . S
C1131 C324 2.507 . S
C1129 C143 2.425 1_545 S
C1140 C265 1.968 . S
C1142 C634 2.002 . S
C1153 C684 2.651 . S
C1151 C299 2.643 . S
C1164 C743 1.865 1_655 S
C1162 C291 1.703 . S
C1173 C104 1.560 . S
C1175 C621 1.680 . S
C1184 C117 1.416 . S
C1186 C421 1.508 . S
C1195 C304 2.375 . S
C1197 C754 2.413 . S
C1208 C823 0.873 . S
C1206 C278 0.885 . S
C1219 C341 1.155 . S
C1217 C60 1.159 . S
C1230 C809 1.451 . S
C1228 C96 1.455 . S
C1239 C88 0.738 . S
C1241 C404 0.734 . S
C1250 C65 0.892 . S
C1252 C760 0.930 . S
C1263 C480 1.668 . S
C1261 C10 1.722 . S
C1272 C44 0.507 . S
C1274 C701 0.495 . S
C1285 C569 1.444 1_556 S
C1283 C34 1.257 . S
C1296 C844 1.783 . S
C1294 C13 1.881 . S
C1307 C314 2.488 . S
C1305 C138 2.486 . S
C1318 C800 1.291 . S
C1316 C296 1.295 . S
C1327 C112 1.302 . S
C1329 C409 1.306 . S
C1338 C270 1.578 . S
C1340 C764 1.583 . S
C1349 C140 2.020 . S
C1351 C484 2.051 . S
C1362 C674 1.844 . S
C1360 C294 1.819 . S
C1371 C114 0.496 . S
C1373 C560 0.571 . S
C1382 C268 2.318 . S
C1384 C849 2.306 . S
C1393 C169 2.441 . S
C1395 C343 2.432 1_655 S
C1404 C161 1.960 . S
C1406 C649 1.954 . S
C1415 C234 2.595 . S
C1417 C543 2.597 . S
C1426 C226 1.605 . S
C1428 C724 1.759 . S
C1439 C840 1.725 . S
C1437 C247 1.879 . S
C1448 C195 1.629 . S
C1450 C400 1.521 . S
C1461 C449 2.325 . S
C1459 C239 2.314 . S
C1472 C364 0.856 . S
C1470 C187 0.873 . S
C1481 C75 1.137 . S
C1483 C880 1.157 . S
C1494 C794 1.478 . S
C1492 C83 1.480 . S
C1503 C99 0.800 . S
C1505 C943 0.802 . S
C1514 C52 0.972 . S
C1516 C781 0.987 . S
C1525 C47 1.573 . S
C1527 C661 1.678 . S
C1538 C680 0.520 1_455 S
C1536 C5 0.558 . S
C1549 C714 1.540 . S
C1547 C23 1.509 1_455 S
C1560 C863 1.765 . S
C1558 C26 1.709 . S
C1571 C889 2.492 . S
C1569 C244 2.528 . S
C1580 C177 1.190 . S
C1582 C821 1.253 . S
C1593 C914 1.359 . S
C1591 C192 1.357 . S
C1604 C783 1.656 . S
C1602 C203 1.556 . S
C1615 C663 2.114 . S
C1613 C242 1.945 . S
C1624 C179 1.877 . S
C1626 C689 1.857 . S
C1637 C741 0.611 . S
C1635 C190 0.627 . S
C1646 C205 2.350 . S
C1648 C834 2.333 . S
C1659 C884 2.508 . S
C1657 C286 2.421 . S
C1668 C122 1.965 . S
C1670 C474 2.003 . S
C1681 C524 2.654 . S
C1679 C130 2.641 . S
C1692 C583 1.865 . S
C1690 C148 1.703 1_545 S
C1703 C861 1.688 . S
C1701 C273 1.552 . S
C1712 C260 1.417 . S
C1714 C941 1.507 . S
C1725 C434 2.414 . S
C1723 C135 2.372 . S
C1736 C383 0.872 . S
C1734 C109 0.885 . S
C1745 C86 1.157 . S
C1747 C901 1.153 . S
C1758 C369 1.451 . S
C1756 C70 1.456 . S
C1767 C62 0.737 . S
C1769 C924 0.735 . S
C1778 C91 0.897 . S
C1780 C440 0.922 . S
C1789 C36 1.732 . S
C1791 C640 1.659 . S
C1802 C541 0.494 . S
C1800 C18 0.501 . S
C1811 C8 1.247 . S
C1813 C729 1.447 . S
C1822 C39 1.876 . S
C1824 C604 1.788 . S
C1835 C874 2.490 . S
C1833 C307 2.482 . S
C1844 C153 1.308 . S
C1846 C360 1.284 . S
C1857 C929 1.306 . S
C1855 C281 1.303 . S
C1866 C127 1.577 . S
C1868 C444 1.584 . S
C1877 C309 2.019 . S
C1879 C644 2.050 . S
C1890 C514 1.845 . S
C1888 C151 1.817 . S
C1899 C283 0.505 . S
C1901 C720 0.551 . S
C1912 C609 2.304 . S
C1910 C125 2.320 . S
C1923 C903 2.435 . S
C1921 C221 2.442 . S
C1934 C489 1.954 1_665 S
C1932 C200 1.960 . S
C1943 C208 2.595 . S
C1945 C703 2.598 . S
C1956 C564 1.759 . S
C1954 C174 1.607 . S
C1965 C182 1.878 . S
C1967 C600 1.728 . S
C1976 C156 1.627 . S
C1978 C920 1.527 . S
C1989 C769 2.323 . S
C1987 C213 2.316 1_565 S
C2000 C804 0.848 . S
C1998 C252 0.873 . S
