# Generated by pormake.
# Topology bwt, (3,3)-cn, num edge types: 1
# Building blocks:
#     Node 0, Type 0, BuildingBlock: WUSLED_clean_sbu_0, # of connection points: 3
#     Node 1, Type 0, BuildingBlock: WUSLED_clean_sbu_0, # of connection points: 3
#     Node 2, Type 0, BuildingBlock: WUSLED_clean_sbu_0, # of connection points: 3
#     Node 3, Type 0, BuildingBlock: WUSLED_clean_sbu_0, # of connection points: 3
#     Node 4, Type 0, BuildingBlock: WUSLED_clean_sbu_0, # of connection points: 3
#     Node 5, Type 0, BuildingBlock: WUSLED_clean_sbu_0, # of connection points: 3
#     Node 6, Type 0, BuildingBlock: WUSLED_clean_sbu_0, # of connection points: 3
#     Node 7, Type 0, BuildingBlock: WUSLED_clean_sbu_0, # of connection points: 3
#     Node 8, Type 0, BuildingBlock: WUSLED_clean_sbu_0, # of connection points: 3
#     Node 9, Type 0, BuildingBlock: WUSLED_clean_sbu_0, # of connection points: 3
#     Node 10, Type 0, BuildingBlock: WUSLED_clean_sbu_0, # of connection points: 3
#     Node 11, Type 0, BuildingBlock: WUSLED_clean_sbu_0, # of connection points: 3
#     Node 12, Type 0, BuildingBlock: WUSLED_clean_sbu_0, # of connection points: 3
#     Node 13, Type 0, BuildingBlock: WUSLED_clean_sbu_0, # of connection points: 3
#     Node 14, Type 0, BuildingBlock: WUSLED_clean_sbu_0, # of connection points: 3
#     Node 15, Type 0, BuildingBlock: WUSLED_clean_sbu_0, # of connection points: 3
#     Node 16, Type 0, BuildingBlock: WUSLED_clean_sbu_0, # of connection points: 3
#     Node 17, Type 0, BuildingBlock: WUSLED_clean_sbu_0, # of connection points: 3
#     Node 18, Type 0, BuildingBlock: WUSLED_clean_sbu_0, # of connection points: 3
#     Node 19, Type 0, BuildingBlock: WUSLED_clean_sbu_0, # of connection points: 3
#     Node 20, Type 0, BuildingBlock: WUSLED_clean_sbu_0, # of connection points: 3
#     Node 21, Type 0, BuildingBlock: WUSLED_clean_sbu_0, # of connection points: 3
#     Node 22, Type 0, BuildingBlock: WUSLED_clean_sbu_0, # of connection points: 3
#     Node 23, Type 0, BuildingBlock: WUSLED_clean_sbu_0, # of connection points: 3
#     Node 24, Type 1, BuildingBlock: OLANEW_clean_sbu_2, # of connection points: 3
#     Node 25, Type 1, BuildingBlock: OLANEW_clean_sbu_2, # of connection points: 3
#     Node 26, Type 1, BuildingBlock: OLANEW_clean_sbu_2, # of connection points: 3
#     Node 27, Type 1, BuildingBlock: OLANEW_clean_sbu_2, # of connection points: 3
#     Node 28, Type 1, BuildingBlock: OLANEW_clean_sbu_2, # of connection points: 3
#     Node 29, Type 1, BuildingBlock: OLANEW_clean_sbu_2, # of connection points: 3
#     Node 30, Type 1, BuildingBlock: OLANEW_clean_sbu_2, # of connection points: 3
#     Node 31, Type 1, BuildingBlock: OLANEW_clean_sbu_2, # of connection points: 3
#     Node 32, Type 1, BuildingBlock: OLANEW_clean_sbu_2, # of connection points: 3
#     Node 33, Type 1, BuildingBlock: OLANEW_clean_sbu_2, # of connection points: 3
#     Node 34, Type 1, BuildingBlock: OLANEW_clean_sbu_2, # of connection points: 3
#     Node 35, Type 1, BuildingBlock: OLANEW_clean_sbu_2, # of connection points: 3
#     Node 36, Type 1, BuildingBlock: OLANEW_clean_sbu_2, # of connection points: 3
#     Node 37, Type 1, BuildingBlock: OLANEW_clean_sbu_2, # of connection points: 3
#     Node 38, Type 1, BuildingBlock: OLANEW_clean_sbu_2, # of connection points: 3
#     Node 39, Type 1, BuildingBlock: OLANEW_clean_sbu_2, # of connection points: 3
#     Node 40, Type 1, BuildingBlock: OLANEW_clean_sbu_2, # of connection points: 3
#     Node 41, Type 1, BuildingBlock: OLANEW_clean_sbu_2, # of connection points: 3
#     Node 42, Type 1, BuildingBlock: OLANEW_clean_sbu_2, # of connection points: 3
#     Node 43, Type 1, BuildingBlock: OLANEW_clean_sbu_2, # of connection points: 3
#     Node 44, Type 1, BuildingBlock: OLANEW_clean_sbu_2, # of connection points: 3
#     Node 45, Type 1, BuildingBlock: OLANEW_clean_sbu_2, # of connection points: 3
#     Node 46, Type 1, BuildingBlock: OLANEW_clean_sbu_2, # of connection points: 3
#     Node 47, Type 1, BuildingBlock: OLANEW_clean_sbu_2, # of connection points: 3
#     Edge 48, Type (0, 1), BuildingBlock: KIFKEQ_clean_linker_1, # of connection points: 2
#     Edge 49, Type (0, 1), BuildingBlock: KIFKEQ_clean_linker_1, # of connection points: 2
#     Edge 50, Type (0, 1), BuildingBlock: KIFKEQ_clean_linker_1, # of connection points: 2
#     Edge 51, Type (0, 1), BuildingBlock: KIFKEQ_clean_linker_1, # of connection points: 2
#     Edge 52, Type (0, 1), BuildingBlock: KIFKEQ_clean_linker_1, # of connection points: 2
#     Edge 53, Type (0, 1), BuildingBlock: KIFKEQ_clean_linker_1, # of connection points: 2
#     Edge 54, Type (0, 1), BuildingBlock: KIFKEQ_clean_linker_1, # of connection points: 2
#     Edge 55, Type (0, 1), BuildingBlock: KIFKEQ_clean_linker_1, # of connection points: 2
#     Edge 56, Type (0, 1), BuildingBlock: KIFKEQ_clean_linker_1, # of connection points: 2
#     Edge 57, Type (0, 1), BuildingBlock: KIFKEQ_clean_linker_1, # of connection points: 2
#     Edge 58, Type (0, 1), BuildingBlock: KIFKEQ_clean_linker_1, # of connection points: 2
#     Edge 59, Type (0, 1), BuildingBlock: KIFKEQ_clean_linker_1, # of connection points: 2
#     Edge 60, Type (0, 1), BuildingBlock: KIFKEQ_clean_linker_1, # of connection points: 2
#     Edge 61, Type (0, 1), BuildingBlock: KIFKEQ_clean_linker_1, # of connection points: 2
#     Edge 62, Type (0, 1), BuildingBlock: KIFKEQ_clean_linker_1, # of connection points: 2
#     Edge 63, Type (0, 1), BuildingBlock: KIFKEQ_clean_linker_1, # of connection points: 2
#     Edge 64, Type (0, 1), BuildingBlock: KIFKEQ_clean_linker_1, # of connection points: 2
#     Edge 65, Type (0, 1), BuildingBlock: KIFKEQ_clean_linker_1, # of connection points: 2
#     Edge 66, Type (0, 1), BuildingBlock: KIFKEQ_clean_linker_1, # of connection points: 2
#     Edge 67, Type (0, 1), BuildingBlock: KIFKEQ_clean_linker_1, # of connection points: 2
#     Edge 68, Type (0, 1), BuildingBlock: KIFKEQ_clean_linker_1, # of connection points: 2
#     Edge 69, Type (0, 1), BuildingBlock: KIFKEQ_clean_linker_1, # of connection points: 2
#     Edge 70, Type (0, 1), BuildingBlock: KIFKEQ_clean_linker_1, # of connection points: 2
#     Edge 71, Type (0, 1), BuildingBlock: KIFKEQ_clean_linker_1, # of connection points: 2
#     Edge 72, Type (0, 1), BuildingBlock: KIFKEQ_clean_linker_1, # of connection points: 2
#     Edge 73, Type (0, 1), BuildingBlock: KIFKEQ_clean_linker_1, # of connection points: 2
#     Edge 74, Type (0, 1), BuildingBlock: KIFKEQ_clean_linker_1, # of connection points: 2
#     Edge 75, Type (0, 1), BuildingBlock: KIFKEQ_clean_linker_1, # of connection points: 2
#     Edge 76, Type (0, 1), BuildingBlock: KIFKEQ_clean_linker_1, # of connection points: 2
#     Edge 77, Type (0, 1), BuildingBlock: KIFKEQ_clean_linker_1, # of connection points: 2
#     Edge 78, Type (0, 1), BuildingBlock: KIFKEQ_clean_linker_1, # of connection points: 2
#     Edge 79, Type (0, 1), BuildingBlock: KIFKEQ_clean_linker_1, # of connection points: 2
#     Edge 80, Type (0, 1), BuildingBlock: KIFKEQ_clean_linker_1, # of connection points: 2
#     Edge 81, Type (0, 1), BuildingBlock: KIFKEQ_clean_linker_1, # of connection points: 2
#     Edge 82, Type (0, 1), BuildingBlock: KIFKEQ_clean_linker_1, # of connection points: 2
#     Edge 83, Type (0, 1), BuildingBlock: KIFKEQ_clean_linker_1, # of connection points: 2
#     Edge 84, Type (0, 1), BuildingBlock: KIFKEQ_clean_linker_1, # of connection points: 2
#     Edge 85, Type (0, 1), BuildingBlock: KIFKEQ_clean_linker_1, # of connection points: 2
#     Edge 86, Type (0, 1), BuildingBlock: KIFKEQ_clean_linker_1, # of connection points: 2
#     Edge 87, Type (0, 1), BuildingBlock: KIFKEQ_clean_linker_1, # of connection points: 2
#     Edge 88, Type (0, 1), BuildingBlock: KIFKEQ_clean_linker_1, # of connection points: 2
#     Edge 89, Type (0, 1), BuildingBlock: KIFKEQ_clean_linker_1, # of connection points: 2
#     Edge 90, Type (0, 1), BuildingBlock: KIFKEQ_clean_linker_1, # of connection points: 2
#     Edge 91, Type (0, 1), BuildingBlock: KIFKEQ_clean_linker_1, # of connection points: 2
#     Edge 92, Type (0, 1), BuildingBlock: KIFKEQ_clean_linker_1, # of connection points: 2
#     Edge 93, Type (0, 1), BuildingBlock: KIFKEQ_clean_linker_1, # of connection points: 2
#     Edge 94, Type (0, 1), BuildingBlock: KIFKEQ_clean_linker_1, # of connection points: 2
#     Edge 95, Type (0, 1), BuildingBlock: KIFKEQ_clean_linker_1, # of connection points: 2
#     Edge 96, Type (0, 1), BuildingBlock: KIFKEQ_clean_linker_1, # of connection points: 2
#     Edge 97, Type (0, 1), BuildingBlock: KIFKEQ_clean_linker_1, # of connection points: 2
#     Edge 98, Type (0, 1), BuildingBlock: KIFKEQ_clean_linker_1, # of connection points: 2
#     Edge 99, Type (0, 1), BuildingBlock: KIFKEQ_clean_linker_1, # of connection points: 2
#     Edge 100, Type (0, 1), BuildingBlock: KIFKEQ_clean_linker_1, # of connection points: 2
#     Edge 101, Type (0, 1), BuildingBlock: KIFKEQ_clean_linker_1, # of connection points: 2
#     Edge 102, Type (0, 1), BuildingBlock: KIFKEQ_clean_linker_1, # of connection points: 2
#     Edge 103, Type (0, 1), BuildingBlock: KIFKEQ_clean_linker_1, # of connection points: 2
#     Edge 104, Type (0, 1), BuildingBlock: KIFKEQ_clean_linker_1, # of connection points: 2
#     Edge 105, Type (0, 1), BuildingBlock: KIFKEQ_clean_linker_1, # of connection points: 2
#     Edge 106, Type (0, 1), BuildingBlock: KIFKEQ_clean_linker_1, # of connection points: 2
#     Edge 107, Type (0, 1), BuildingBlock: KIFKEQ_clean_linker_1, # of connection points: 2
#     Edge 108, Type (0, 1), BuildingBlock: KIFKEQ_clean_linker_1, # of connection points: 2
#     Edge 109, Type (0, 1), BuildingBlock: KIFKEQ_clean_linker_1, # of connection points: 2
#     Edge 110, Type (0, 1), BuildingBlock: KIFKEQ_clean_linker_1, # of connection points: 2
#     Edge 111, Type (0, 1), BuildingBlock: KIFKEQ_clean_linker_1, # of connection points: 2
#     Edge 112, Type (0, 1), BuildingBlock: KIFKEQ_clean_linker_1, # of connection points: 2
#     Edge 113, Type (0, 1), BuildingBlock: KIFKEQ_clean_linker_1, # of connection points: 2
#     Edge 114, Type (0, 1), BuildingBlock: KIFKEQ_clean_linker_1, # of connection points: 2
#     Edge 115, Type (0, 1), BuildingBlock: KIFKEQ_clean_linker_1, # of connection points: 2
#     Edge 116, Type (0, 1), BuildingBlock: KIFKEQ_clean_linker_1, # of connection points: 2
#     Edge 117, Type (0, 1), BuildingBlock: KIFKEQ_clean_linker_1, # of connection points: 2
#     Edge 118, Type (0, 1), BuildingBlock: KIFKEQ_clean_linker_1, # of connection points: 2
#     Edge 119, Type (0, 1), BuildingBlock: KIFKEQ_clean_linker_1, # of connection points: 2
# Relax obj value: 0.111
# Max RMSD: 0.152
# Mean RMSD: 0.088
data_MOF--net-bwt--node1-WUSLED_clean_sbu_0--node2-OLANEW_clean_sbu_2--edge1-KIFKEQ_clean_linker_1
_symmetry_space_group_name_H-M    P1
_symmetry_Int_Tables_number       1
_symmetry_cell_setting            triclinic
loop_
_symmetry_equiv_pos_as_xyz
'x, y, z'
_cell_length_a     74.676291
_cell_length_b     74.695747
_cell_length_c     74.689874
_cell_angle_alpha  93.55544
_cell_angle_beta   93.548201
_cell_angle_gamma 93.54671
loop_
_atom_site_label
_atom_site_type_symbol
_atom_site_fract_x
_atom_site_fract_y
_atom_site_fract_z
_atom_type_partial_charge
C0 C 0.28778 0.62734 0.39677 0.0
C1 C 0.303 0.62613 0.40851 0.0
C2 C 0.32253 0.63283 0.38455 0.0
C3 C 0.32023 0.62893 0.40248 0.0
C4 C 0.3072 0.63407 0.37285 0.0
C5 C 0.28996 0.63136 0.37894 0.0
U6 U 0.25767 0.60882 0.43104 0.0
O7 O 0.23378 0.61932 0.44271 0.0
O8 O 0.2317 0.59303 0.42763 0.0
C9 C 0.22304 0.60589 0.43538 0.0
C10 C 0.26966 0.62384 0.40291 0.0
C11 C 0.20712 0.61116 0.42495 0.0
C12 C 0.1936 0.62333 0.39829 0.0
C13 C 0.20875 0.61803 0.40803 0.0
C14 C 0.17503 0.61492 0.4223 0.0
C15 C 0.17655 0.62189 0.40533 0.0
C16 C 0.1902 0.60961 0.43202 0.0
C17 C 0.28095 0.58796 0.47169 0.0
C18 C 0.27378 0.56214 0.48891 0.0
C19 C 0.29254 0.58746 0.50279 0.0
C20 C 0.29101 0.59617 0.4868 0.0
C21 C 0.28417 0.57021 0.50398 0.0
C22 C 0.27216 0.57092 0.47294 0.0
C23 C 0.28085 0.59693 0.4546 0.0
O24 O 0.26418 0.60676 0.40269 0.0
O25 O 0.26624 0.63306 0.41774 0.0
O26 O 0.27613 0.61362 0.45527 0.0
O27 O 0.27423 0.58737 0.44003 0.0
H28 H 0.30154 0.62286 0.42231 0.0
H29 H 0.33175 0.62763 0.41174 0.0
H30 H 0.30854 0.63721 0.35901 0.0
H31 H 0.27834 0.63229 0.3697 0.0
H32 H 0.19523 0.6284 0.38518 0.0
H33 H 0.22176 0.61932 0.40238 0.0
H34 H 0.16216 0.61385 0.42823 0.0
H35 H 0.18874 0.6044 0.44511 0.0
H36 H 0.2673 0.5488 0.48927 0.0
H37 H 0.30037 0.59423 0.5142 0.0
H38 H 0.29794 0.60928 0.48617 0.0
H39 H 0.26433 0.5642 0.4615 0.0
C40 C 0.21294 0.31619 0.79556 0.0
C41 C 0.19853 0.31385 0.80656 0.0
C42 C 0.17883 0.30271 0.78049 0.0
C43 C 0.18163 0.3071 0.7991 0.0
C44 C 0.19344 0.30487 0.7696 0.0
C45 C 0.21034 0.31153 0.77709 0.0
U46 U 0.24181 0.34434 0.832 0.0
O47 O 0.26923 0.34104 0.84337 0.0
O48 O 0.26326 0.36535 0.82966 0.0
C49 C 0.2757 0.35605 0.8372 0.0
C50 C 0.23049 0.32425 0.80297 0.0
C51 C 0.29202 0.35476 0.82737 0.0
C52 C 0.30701 0.34584 0.8006 0.0
C53 C 0.29146 0.34604 0.81014 0.0
C54 C 0.32379 0.36279 0.82558 0.0
C55 C 0.32333 0.35433 0.80818 0.0
C56 C 0.30826 0.363 0.83507 0.0
C57 C 0.22178 0.36572 0.87297 0.0
C58 C 0.21992 0.39504 0.88867 0.0
C59 C 0.23311 0.3711 0.90425 0.0
C60 C 0.22977 0.35954 0.88879 0.0
C61 C 0.22855 0.38909 0.90427 0.0
C62 C 0.21651 0.38347 0.87324 0.0
C63 C 0.21955 0.35412 0.85603 0.0
O64 O 0.23214 0.3419 0.80349 0.0
O65 O 0.23702 0.31765 0.81775 0.0
O66 O 0.22727 0.33875 0.856 0.0
O67 O 0.22168 0.36247 0.84124 0.0
H68 H 0.20029 0.31746 0.82087 0.0
H69 H 0.17076 0.30541 0.80791 0.0
H70 H 0.19173 0.30193 0.7552 0.0
H71 H 0.2213 0.31338 0.7684 0.0
H72 H 0.30625 0.33905 0.78731 0.0
H73 H 0.27898 0.33961 0.80402 0.0
H74 H 0.33605 0.36969 0.83171 0.0
H75 H 0.30887 0.36987 0.84833 0.0
H76 H 0.21633 0.40883 0.88814 0.0
H77 H 0.23943 0.36596 0.91615 0.0
H78 H 0.23378 0.34588 0.88918 0.0
H79 H 0.21015 0.38858 0.86133 0.0
C80 C 0.76634 0.97434 0.58445 0.0
C81 C 0.78005 0.97213 0.57264 0.0
C82 C 0.79991 0.96318 0.59712 0.0
C83 C 0.79672 0.96664 0.57893 0.0
C84 C 0.78598 0.96512 0.60881 0.0
C85 C 0.76934 0.97069 0.60251 0.0
U86 U 0.73358 0.98626 0.54667 0.0
O87 O 0.7042 0.98161 0.54301 0.0
O88 O 0.71652 0.00917 0.54513 0.0
C89 C 0.70155 0.99885 0.54446 0.0
C90 C 0.74904 0.98079 0.57818 0.0
C91 C 0.68858 0.00398 0.5575 0.0
C92 C 0.68017 0.00786 0.5883 0.0
C93 C 0.69297 0.00389 0.57602 0.0
C94 C 0.65857 0.01227 0.56363 0.0
C95 C 0.66275 0.01189 0.58223 0.0
C96 C 0.6714 0.00834 0.55138 0.0
C97 C 0.74407 0.9806 0.49788 0.0
C98 C 0.72908 0.99623 0.47426 0.0
C99 C 0.74129 0.96754 0.46714 0.0
C100 C 0.74729 0.96675 0.48518 0.0
C101 C 0.73203 0.98226 0.46146 0.0
C102 C 0.73491 0.99534 0.49228 0.0
C103 C 0.74945 0.97905 0.51701 0.0
O104 O 0.75003 0.99642 0.57099 0.0
O105 O 0.73793 0.96876 0.56897 0.0
O106 O 0.73991 0.96685 0.52493 0.0
O107 O 0.75258 0.99429 0.52685 0.0
H108 H 0.77789 0.97482 0.5586 0.0
H109 H 0.8071 0.96506 0.56957 0.0
H110 H 0.78808 0.96276 0.62293 0.0
H111 H 0.75889 0.97235 0.61179 0.0
H112 H 0.68373 0.00724 0.60252 0.0
H113 H 0.70619 0.00044 0.58094 0.0
H114 H 0.64535 0.01554 0.55855 0.0
H115 H 0.66783 0.00848 0.5371 0.0
H116 H 0.7223 0.00792 0.47036 0.0
H117 H 0.7436 0.95642 0.45773 0.0
H118 H 0.75417 0.95517 0.48927 0.0
H119 H 0.73211 0.00615 0.50185 0.0
C120 C 0.72147 0.01527 0.23684 0.0
C121 C 0.71074 0.02873 0.23073 0.0
C122 C 0.68804 0.0206 0.25134 0.0
C123 C 0.69425 0.03142 0.23796 0.0
C124 C 0.69896 0.00732 0.25764 0.0
C125 C 0.71557 0.00476 0.25051 0.0
U126 U 0.74465 0.0071 0.19403 0.0
O127 O 0.77148 0.01567 0.18593 0.0
O128 O 0.76335 0.98692 0.186 0.0
C129 C 0.77653 0.99913 0.18443 0.0
C130 C 0.73795 0.01105 0.22799 0.0
C131 C 0.79354 0.9963 0.19442 0.0
C132 C 0.81052 0.99278 0.22262 0.0
C133 C 0.79412 0.99449 0.21302 0.0
C134 C 0.8259 0.99454 0.19507 0.0
C135 C 0.82664 0.99296 0.21378 0.0
C136 C 0.80947 0.9962 0.18548 0.0
C137 C 0.71608 0.01003 0.15009 0.0
C138 C 0.72341 0.99755 0.12084 0.0
C139 C 0.69915 0.01752 0.1231 0.0
C140 C 0.70244 0.01925 0.14176 0.0
C141 C 0.70942 0.00643 0.11243 0.0
C142 C 0.72674 0.99938 0.13952 0.0
C143 C 0.71855 0.01124 0.16979 0.0
O144 O 0.73705 0.99529 0.21899 0.0
O145 O 0.74547 0.024 0.21928 0.0
O146 O 0.72939 0.02466 0.17697 0.0
O147 O 0.72095 0.99598 0.17719 0.0
H148 H 0.7148 0.03686 0.21998 0.0
H149 H 0.68607 0.04153 0.23253 0.0
H150 H 0.69464 0.99882 0.268 0.0
H151 H 0.7236 0.99424 0.25535 0.0
H152 H 0.81058 0.99136 0.23696 0.0
H153 H 0.78191 0.99461 0.22014 0.0
H154 H 0.83806 0.99499 0.18789 0.0
H155 H 0.80924 0.99771 0.17114 0.0
H156 H 0.73145 0.98877 0.11307 0.0
H157 H 0.68851 0.02481 0.11705 0.0
H158 H 0.69416 0.02762 0.14973 0.0
H159 H 0.7374 0.9922 0.14574 0.0
C160 C 0.38891 0.28201 0.61781 0.0
C161 C 0.40004 0.29783 0.61766 0.0
C162 C 0.37462 0.3158 0.62328 0.0
C163 C 0.39296 0.31459 0.62045 0.0
C164 C 0.36354 0.29988 0.62341 0.0
C165 C 0.37066 0.28312 0.62072 0.0
U166 U 0.42523 0.2539 0.6 0.0
O167 O 0.4377 0.23047 0.61051 0.0
O168 O 0.42315 0.22805 0.58395 0.0
C169 C 0.43107 0.21961 0.59686 0.0
C170 C 0.39613 0.26437 0.61434 0.0
C171 C 0.4212 0.20322 0.60176 0.0
C172 C 0.39614 0.18865 0.61567 0.0
C173 C 0.40532 0.20428 0.61074 0.0
C174 C 0.41856 0.17074 0.60251 0.0
C175 C 0.40269 0.17169 0.61165 0.0
C176 C 0.42774 0.1864 0.59762 0.0
C177 C 0.46544 0.27781 0.5801 0.0
C178 C 0.48521 0.26412 0.55932 0.0
C179 C 0.49453 0.2926 0.57554 0.0
C180 C 0.47833 0.29219 0.58397 0.0
C181 C 0.49812 0.27865 0.56298 0.0
C182 C 0.46905 0.26367 0.56786 0.0
C183 C 0.44828 0.27796 0.58877 0.0
O184 O 0.39655 0.25914 0.59725 0.0
O185 O 0.41097 0.26161 0.62389 0.0
O186 O 0.44877 0.27317 0.60542 0.0
O187 O 0.43403 0.27103 0.57893 0.0
H188 H 0.41415 0.29722 0.61523 0.0
H189 H 0.40178 0.32661 0.62004 0.0
H190 H 0.34939 0.30039 0.62571 0.0
H191 H 0.36189 0.27101 0.62081 0.0
H192 H 0.38384 0.18983 0.62248 0.0
H193 H 0.40006 0.2172 0.61398 0.0
H194 H 0.42407 0.15792 0.5994 0.0
H195 H 0.44002 0.18538 0.59072 0.0
H196 H 0.48739 0.25326 0.54958 0.0
H197 H 0.50428 0.30382 0.57896 0.0
H198 H 0.47582 0.30316 0.59347 0.0
H199 H 0.45931 0.25237 0.56474 0.0
C200 C 0.24401 0.71561 0.99785 0.0
C201 C 0.23869 0.70642 0.01269 0.0
C202 C 0.25727 0.6819 0.00461 0.0
C203 C 0.24526 0.6898 0.01605 0.0
C204 C 0.26285 0.69127 0.98994 0.0
C205 C 0.2563 0.708 0.98662 0.0
U206 U 0.20215 0.74036 0.98976 0.0
O207 O 0.19488 0.76744 0.99824 0.0
O208 O 0.19473 0.75927 0.96947 0.0
C209 C 0.19325 0.77245 0.98169 0.0
C210 C 0.23576 0.73231 0.9932 0.0
C211 C 0.20291 0.78961 0.97878 0.0
C212 C 0.23 0.80954 0.98244 0.0
C213 C 0.22136 0.79255 0.98363 0.0
C214 C 0.20198 0.82055 0.97089 0.0
C215 C 0.22033 0.82383 0.97636 0.0
C216 C 0.19336 0.80359 0.97213 0.0
C217 C 0.15716 0.71481 0.99452 0.0
C218 C 0.12853 0.72479 0.98315 0.0
C219 C 0.12925 0.70141 0.00425 0.0
C220 C 0.14804 0.70259 0.00481 0.0
C221 C 0.11931 0.71237 0.99327 0.0
C222 C 0.14731 0.72606 0.98385 0.0
C223 C 0.17689 0.71563 0.99503 0.0
O224 O 0.22644 0.73128 0.97761 0.0
O225 O 0.22769 0.74073 0.00611 0.0
O226 O 0.18517 0.72614 0.00813 0.0
O227 O 0.18397 0.71728 0.97948 0.0
H228 H 0.22902 0.71179 0.02147 0.0
H229 H 0.24037 0.68283 0.02725 0.0
H230 H 0.27223 0.68567 0.98098 0.0
H231 H 0.26057 0.71484 0.97508 0.0
H232 H 0.24409 0.81165 0.98693 0.0
H233 H 0.22892 0.78186 0.98882 0.0
H234 H 0.19422 0.83118 0.96587 0.0
H235 H 0.17911 0.80149 0.96828 0.0
H236 H 0.12121 0.73354 0.97474 0.0
H237 H 0.1225 0.69162 0.01206 0.0
H238 H 0.15544 0.69385 0.01317 0.0
H239 H 0.15414 0.73574 0.97596 0.0
C240 C 0.79733 0.20632 0.30973 0.0
C241 C 0.80092 0.19241 0.32095 0.0
C242 C 0.78 0.17188 0.30221 0.0
C243 C 0.79226 0.17535 0.31726 0.0
C244 C 0.77708 0.18563 0.29054 0.0
C245 C 0.78564 0.20276 0.29434 0.0
U246 U 0.83146 0.23936 0.33621 0.0
O247 O 0.84353 0.26552 0.3293 0.0
O248 O 0.82722 0.26385 0.35266 0.0
C249 C 0.83583 0.27439 0.34217 0.0
C250 C 0.80472 0.22478 0.31465 0.0
C251 C 0.82608 0.28991 0.33699 0.0
C252 C 0.79932 0.30229 0.32398 0.0
C253 C 0.80967 0.28759 0.32666 0.0
C254 C 0.82204 0.3218 0.34137 0.0
C255 C 0.80521 0.3195 0.33165 0.0
C256 C 0.83236 0.30711 0.34402 0.0
C257 C 0.86799 0.22393 0.36806 0.0
C258 C 0.87797 0.22866 0.39974 0.0
C259 C 0.89846 0.23611 0.37705 0.0
C260 C 0.88516 0.23027 0.36357 0.0
C261 C 0.89489 0.23577 0.39531 0.0
C262 C 0.86475 0.22271 0.38629 0.0
C263 C 0.85313 0.21952 0.35407 0.0
O264 O 0.80296 0.23042 0.33142 0.0
O265 O 0.8207 0.22907 0.30908 0.0
O266 O 0.85592 0.22432 0.33775 0.0
O267 O 0.83703 0.22292 0.35903 0.0
H268 H 0.81002 0.19489 0.33285 0.0
H269 H 0.79492 0.16493 0.32635 0.0
H270 H 0.76763 0.18335 0.27891 0.0
H271 H 0.78272 0.21336 0.28555 0.0
H272 H 0.78653 0.30011 0.31625 0.0
H273 H 0.80462 0.27433 0.32119 0.0
H274 H 0.82688 0.33479 0.34768 0.0
H275 H 0.84493 0.30908 0.35217 0.0
H276 H 0.87463 0.22833 0.41362 0.0
H277 H 0.91146 0.24115 0.37314 0.0
H278 H 0.88824 0.23114 0.34966 0.0
H279 H 0.85174 0.21769 0.39021 0.0
C280 C 0.57988 0.75902 0.97443 0.0
C281 C 0.56871 0.77335 0.97291 0.0
C282 C 0.5942 0.79289 0.96557 0.0
C283 C 0.57581 0.79016 0.96852 0.0
C284 C 0.60523 0.77836 0.96688 0.0
C285 C 0.59811 0.76158 0.97129 0.0
U286 U 0.5411 0.72618 0.98462 0.0
O287 O 0.53691 0.69712 0.97762 0.0
O288 O 0.53967 0.70722 0.00594 0.0
C289 C 0.539 0.69307 0.99446 0.0
C290 C 0.57283 0.74145 0.97958 0.0
C291 C 0.55264 0.68017 0.99794 0.0
C292 C 0.58394 0.67368 0.00305 0.0
C293 C 0.57086 0.68608 0.00078 0.0
C294 C 0.56072 0.64933 0.99969 0.0
C295 C 0.57903 0.65516 0.00235 0.0
C296 C 0.54763 0.66176 0.99753 0.0
C297 C 0.49251 0.73891 0.98133 0.0
C298 C 0.46798 0.72596 0.99733 0.0
C299 C 0.46165 0.73908 0.96894 0.0
C300 C 0.48002 0.74335 0.96778 0.0
C301 C 0.45544 0.73044 0.98378 0.0
C302 C 0.48636 0.73005 0.99607 0.0
C303 C 0.51183 0.74337 0.97972 0.0
O304 O 0.56592 0.74148 0.99534 0.0
O305 O 0.56305 0.73159 0.96695 0.0
O306 O 0.51907 0.73443 0.9666 0.0
O307 O 0.52202 0.74494 0.99483 0.0
H308 H 0.55457 0.77156 0.97532 0.0
H309 H 0.567 0.80111 0.96781 0.0
H310 H 0.61936 0.77992 0.96442 0.0
H311 H 0.60688 0.75062 0.97234 0.0
H312 H 0.59793 0.67857 0.0048 0.0
H313 H 0.57499 0.70026 0.00093 0.0
H314 H 0.55654 0.63515 0.99923 0.0
H315 H 0.53362 0.65699 0.99527 0.0
H316 H 0.46359 0.71911 0.00881 0.0
H317 H 0.45227 0.74281 0.95838 0.0
H318 H 0.48449 0.75013 0.95628 0.0
H319 H 0.49573 0.72626 0.00661 0.0
C320 C 0.61641 0.38795 0.28383 0.0
C321 C 0.60436 0.39062 0.2973 0.0
C322 C 0.6202 0.37039 0.31604 0.0
C323 C 0.60618 0.38182 0.31323 0.0
C324 C 0.6324 0.36796 0.30262 0.0
C325 C 0.63047 0.37664 0.28662 0.0
U326 U 0.60144 0.42711 0.25779 0.0
O327 O 0.61432 0.4412 0.23645 0.0
O328 O 0.58754 0.42746 0.231 0.0
C329 C 0.60147 0.43552 0.22421 0.0
C330 C 0.61454 0.39696 0.26692 0.0
C331 C 0.60751 0.42619 0.208 0.0
C332 C 0.62068 0.40054 0.19364 0.0
C333 C 0.61541 0.40971 0.20912 0.0
C334 C 0.61036 0.42432 0.17574 0.0
C335 C 0.61814 0.40768 0.17674 0.0
C336 C 0.60507 0.43348 0.19126 0.0
C337 C 0.57987 0.46517 0.28414 0.0
C338 C 0.57059 0.49263 0.27155 0.0
C339 C 0.56483 0.4869 0.30233 0.0
C340 C 0.57292 0.4706 0.30044 0.0
C341 C 0.56354 0.49812 0.28792 0.0
C342 C 0.57867 0.47624 0.26967 0.0
C343 C 0.58835 0.44798 0.28268 0.0
O344 O 0.59797 0.39797 0.2602 0.0
O345 O 0.62453 0.41202 0.26641 0.0
O346 O 0.60539 0.44891 0.2791 0.0
O347 O 0.57881 0.43472 0.27351 0.0
H348 H 0.59353 0.39948 0.2955 0.0
H349 H 0.59673 0.38412 0.32343 0.0
H350 H 0.64326 0.35913 0.30438 0.0
H351 H 0.63992 0.37448 0.27639 0.0
H352 H 0.62686 0.3879 0.19493 0.0
H353 H 0.61741 0.4039 0.22197 0.0
H354 H 0.60803 0.4301 0.16292 0.0
H355 H 0.59892 0.44617 0.19017 0.0
H356 H 0.56967 0.50089 0.26016 0.0
H357 H 0.55982 0.49085 0.3152 0.0
H358 H 0.57381 0.46223 0.31177 0.0
H359 H 0.58396 0.47219 0.25696 0.0
C360 C 0.98869 0.23633 0.72082 0.0
C361 C 0.99115 0.2271 0.70433 0.0
C362 C 0.98802 0.25465 0.68899 0.0
C363 C 0.99085 0.23618 0.68854 0.0
C364 C 0.98573 0.26386 0.70562 0.0
C365 C 0.98609 0.25475 0.72143 0.0
U366 U 0.98902 0.19245 0.7433 0.0
O367 O 0.00207 0.18535 0.76884 0.0
O368 O 0.97267 0.1823 0.76446 0.0
C369 C 0.98667 0.18203 0.77599 0.0
C370 C 0.98814 0.22659 0.73725 0.0
C371 C 0.98499 0.19153 0.79351 0.0
C372 C 0.98277 0.21929 0.81167 0.0
C373 C 0.98361 0.2102 0.79485 0.0
C374 C 0.98446 0.19108 0.8259 0.0
C375 C 0.98334 0.20985 0.82741 0.0
C376 C 0.98529 0.18201 0.80907 0.0
C377 C 0.99271 0.149 0.71491 0.0
C378 C 0.98456 0.11951 0.72508 0.0
C379 C 0.00213 0.12219 0.69904 0.0
C380 C 0.00174 0.1409 0.70098 0.0
C381 C 0.99337 0.1113 0.71096 0.0
C382 C 0.98432 0.13821 0.72711 0.0
C383 C 0.9921 0.16865 0.71655 0.0
O384 O 0.9736 0.21592 0.73812 0.0
O385 O 0.00301 0.21909 0.74203 0.0
O386 O 0.00603 0.17738 0.72548 0.0
O387 O 0.97663 0.17466 0.72082 0.0
H388 H 0.99305 0.21281 0.70364 0.0
H389 H 0.99241 0.22865 0.67594 0.0
H390 H 0.98375 0.27812 0.70643 0.0
H391 H 0.98416 0.26205 0.73409 0.0
H392 H 0.98171 0.23371 0.81236 0.0
H393 H 0.98334 0.21773 0.78291 0.0
H394 H 0.98518 0.18346 0.83776 0.0
H395 H 0.98643 0.16759 0.80822 0.0
H396 H 0.97788 0.11146 0.73458 0.0
H397 H 0.00889 0.11622 0.68796 0.0
H398 H 0.00835 0.14903 0.6915 0.0
H399 H 0.97746 0.14425 0.7381 0.0
C400 C 0.31966 0.80211 0.21132 0.0
C401 C 0.3188 0.81403 0.19756 0.0
C402 C 0.30585 0.78979 0.17643 0.0
C403 C 0.31189 0.80795 0.18026 0.0
C404 C 0.30647 0.77802 0.19043 0.0
C405 C 0.3133 0.78414 0.2077 0.0
U406 U 0.34956 0.83513 0.24276 0.0
O407 O 0.34696 0.84405 0.27107 0.0
O408 O 0.37043 0.82978 0.26341 0.0
C409 C 0.36148 0.83636 0.27663 0.0
C410 C 0.32806 0.80789 0.2292 0.0
C411 C 0.35933 0.82452 0.29141 0.0
C412 C 0.34658 0.79724 0.30302 0.0
C413 C 0.34776 0.80892 0.28916 0.0
C414 C 0.3684 0.81678 0.32154 0.0
C415 C 0.357 0.80097 0.31934 0.0
C416 C 0.36955 0.82845 0.30768 0.0
C417 C 0.37287 0.87713 0.22603 0.0
C418 C 0.40324 0.89137 0.22832 0.0
C419 C 0.37806 0.9091 0.23471 0.0
C420 C 0.36627 0.89387 0.23086 0.0
C421 C 0.39671 0.90799 0.23367 0.0
C422 C 0.39147 0.87615 0.2245 0.0
C423 C 0.36046 0.86079 0.22277 0.0
O424 O 0.34565 0.80749 0.23064 0.0
O425 O 0.32223 0.82252 0.23694 0.0
O426 O 0.34532 0.86092 0.23088 0.0
O427 O 0.36793 0.84532 0.22331 0.0
H428 H 0.32374 0.82796 0.20012 0.0
H429 H 0.31141 0.81742 0.16987 0.0
H430 H 0.30223 0.76391 0.18792 0.0
H431 H 0.31401 0.77473 0.21816 0.0
H432 H 0.33752 0.78529 0.30097 0.0
H433 H 0.3398 0.80569 0.27661 0.0
H434 H 0.37681 0.81994 0.33381 0.0
H435 H 0.37864 0.84039 0.30956 0.0
H436 H 0.41753 0.89 0.22752 0.0
H437 H 0.37257 0.92178 0.23848 0.0
H438 H 0.352 0.89518 0.23187 0.0
H439 H 0.39703 0.86354 0.22059 0.0
C440 C 0.97833 0.57603 0.7684 0.0
C441 C 0.96018 0.57567 0.77251 0.0
C442 C 0.96865 0.59034 0.80211 0.0
C443 C 0.9554 0.58274 0.7892 0.0
C444 C 0.98677 0.59065 0.79801 0.0
C445 C 0.99154 0.58366 0.78132 0.0
U446 U 0.98877 0.53866 0.73344 0.0
O447 O 0.98213 0.53595 0.70426 0.0
O448 O 0.01036 0.53833 0.71472 0.0
C449 C 0.99905 0.53824 0.7005 0.0
C450 C 0.98358 0.56951 0.75046 0.0
C451 C 0.00273 0.55243 0.68824 0.0
C452 C 0.00754 0.58404 0.68293 0.0
C453 C 0.00498 0.57049 0.69477 0.0
C454 C 0.00569 0.56157 0.65791 0.0
C455 C 0.00774 0.57976 0.66433 0.0
C456 C 0.00321 0.54803 0.66979 0.0
C457 C 0.98569 0.48932 0.74332 0.0
C458 C 0.00273 0.46565 0.73026 0.0
C459 C 0.97288 0.45848 0.73988 0.0
C460 C 0.97152 0.47655 0.74542 0.0
C461 C 0.98853 0.45285 0.73231 0.0
C462 C 0.00129 0.48373 0.7356 0.0
C463 C 0.98384 0.50838 0.74891 0.0
O464 O 0.99941 0.56276 0.75001 0.0
O465 O 0.97111 0.56035 0.7398 0.0
O466 O 0.97074 0.51601 0.74034 0.0
O467 O 0.99885 0.51869 0.75125 0.0
H468 H 0.94962 0.57008 0.76281 0.0
H469 H 0.94133 0.58222 0.79201 0.0
H470 H 0.99727 0.5967 0.80754 0.0
H471 H 0.00561 0.58445 0.77846 0.0
H472 H 0.0093 0.59787 0.68834 0.0
H473 H 0.00457 0.57412 0.70901 0.0
H474 H 0.00552 0.55782 0.64366 0.0
H475 H 0.00135 0.53414 0.66454 0.0
H476 H 0.01486 0.46171 0.72427 0.0
H477 H 0.96179 0.44887 0.74174 0.0
H478 H 0.95937 0.48057 0.7513 0.0
H479 H 0.01237 0.4933 0.73361 0.0
C480 C 0.7204 0.38456 0.61426 0.0
C481 C 0.70631 0.39543 0.60989 0.0
C482 C 0.68857 0.38235 0.63271 0.0
C483 C 0.69057 0.39439 0.61908 0.0
C484 C 0.70275 0.37143 0.63693 0.0
C485 C 0.71853 0.37256 0.62779 0.0
U486 U 0.74528 0.39741 0.57368 0.0
O487 O 0.77252 0.40978 0.57179 0.0
O488 O 0.76506 0.38303 0.55867 0.0
C489 C 0.7781 0.39536 0.56342 0.0
C490 C 0.73695 0.38544 0.60458 0.0
C491 C 0.79452 0.3886 0.57164 0.0
C492 C 0.8107 0.37691 0.59713 0.0
C493 C 0.79502 0.38327 0.58933 0.0
C494 C 0.82551 0.38105 0.56958 0.0
C495 C 0.82615 0.37572 0.58735 0.0
C496 C 0.80982 0.38744 0.5618 0.0
C497 C 0.71895 0.4193 0.53606 0.0
C498 C 0.73121 0.42651 0.5078 0.0
C499 C 0.70146 0.43517 0.51445 0.0
C500 C 0.70322 0.42749 0.53099 0.0
C501 C 0.71542 0.43479 0.50265 0.0
C502 C 0.73297 0.41885 0.52441 0.0
C503 C 0.72036 0.4113 0.55351 0.0
O504 O 0.73643 0.3751 0.58965 0.0
O505 O 0.7442 0.40171 0.60295 0.0
O506 O 0.73045 0.42069 0.56624 0.0
O507 O 0.72293 0.39402 0.55292 0.0
H508 H 0.70751 0.40474 0.5994 0.0
H509 H 0.68005 0.40316 0.61563 0.0
H510 H 0.70158 0.36181 0.64713 0.0
H511 H 0.72923 0.36397 0.63122 0.0
H512 H 0.81077 0.37317 0.61091 0.0
H513 H 0.78329 0.3841 0.59712 0.0
H514 H 0.83707 0.38008 0.56159 0.0
H515 H 0.80962 0.39144 0.5481 0.0
H516 H 0.74227 0.42614 0.49909 0.0
H517 H 0.68903 0.44118 0.5108 0.0
H518 H 0.69225 0.4279 0.53982 0.0
H519 H 0.74525 0.41261 0.52818 0.0
C520 C 0.7847 0.69443 0.20227 0.0
C521 C 0.79961 0.68605 0.196 0.0
C522 C 0.81953 0.70453 0.21781 0.0
C523 C 0.81685 0.69099 0.20375 0.0
C524 C 0.80454 0.71331 0.22359 0.0
C525 C 0.78727 0.70825 0.21591 0.0
U526 U 0.75284 0.66962 0.16612 0.0
O527 O 0.73034 0.6498 0.16847 0.0
O528 O 0.72546 0.67512 0.15613 0.0
C529 C 0.71833 0.66023 0.162 0.0
C530 C 0.7664 0.68829 0.19522 0.0
C531 C 0.70272 0.66215 0.17279 0.0
C532 C 0.69008 0.66804 0.20157 0.0
C533 C 0.70494 0.66795 0.19106 0.0
C534 C 0.67063 0.65714 0.17548 0.0
C535 C 0.6728 0.66238 0.19394 0.0
C536 C 0.6855 0.657 0.16501 0.0
C537 C 0.76975 0.64721 0.12461 0.0
C538 C 0.7487 0.62753 0.10527 0.0
C539 C 0.7799 0.63127 0.09819 0.0
C540 C 0.7835 0.64321 0.11337 0.0
C541 C 0.76251 0.6231 0.09415 0.0
C542 C 0.75229 0.63949 0.12035 0.0
C543 C 0.77367 0.65868 0.14123 0.0
O544 O 0.76038 0.6958 0.18077 0.0
O545 O 0.76292 0.67079 0.1944 0.0
O546 O 0.77148 0.65035 0.156 0.0
O547 O 0.7666 0.67438 0.14144 0.0
H548 H 0.79787 0.67536 0.18543 0.0
H549 H 0.82799 0.68375 0.1991 0.0
H550 H 0.80613 0.72399 0.23416 0.0
H551 H 0.77589 0.71493 0.22083 0.0
H552 H 0.69214 0.67235 0.2157 0.0
H553 H 0.71819 0.672 0.19726 0.0
H554 H 0.65755 0.65252 0.16924 0.0
H555 H 0.6836 0.65241 0.15093 0.0
H556 H 0.73512 0.62165 0.10237 0.0
H557 H 0.79083 0.62802 0.08994 0.0
H558 H 0.79707 0.64903 0.11653 0.0
H559 H 0.7415 0.64249 0.1289 0.0
C560 C 0.23482 0.02618 0.42114 0.0
C561 C 0.22037 0.02638 0.43228 0.0
C562 C 0.20016 0.03243 0.40681 0.0
C563 C 0.20316 0.02948 0.42516 0.0
C564 C 0.2148 0.03243 0.39582 0.0
C565 C 0.23197 0.02932 0.40294 0.0
U566 U 0.26886 0.01848 0.45983 0.0
O567 O 0.28985 0.99913 0.46091 0.0
O568 O 0.29734 0.02808 0.464 0.0
C569 C 0.30293 0.01182 0.46155 0.0
C570 C 0.25289 0.02254 0.4282 0.0
C571 C 0.31563 0.0098 0.44746 0.0
C572 C 0.32158 0.00839 0.41585 0.0
C573 C 0.30951 0.00978 0.42933 0.0
C574 C 0.34604 0.00689 0.4385 0.0
C575 C 0.34001 0.00706 0.42027 0.0
C576 C 0.33392 0.00827 0.452 0.0
C577 C 0.25614 0.01957 0.50823 0.0
C578 C 0.27879 0.01893 0.53292 0.0
C579 C 0.24716 0.01524 0.5384 0.0
C580 C 0.24264 0.01693 0.52017 0.0
C581 C 0.26529 0.01622 0.54498 0.0
C582 C 0.27425 0.02051 0.51467 0.0
C583 C 0.25123 0.02103 0.48906 0.0
O584 O 0.26166 0.0358 0.43809 0.0
O585 O 0.25429 0.00682 0.43496 0.0
O586 O 0.25143 0.00602 0.47894 0.0
O587 O 0.25879 0.03502 0.48191 0.0
H588 H 0.2224 0.02397 0.44639 0.0
H589 H 0.19214 0.02921 0.43394 0.0
H590 H 0.21301 0.03493 0.38172 0.0
H591 H 0.24303 0.02929 0.39421 0.0
H592 H 0.31646 0.00831 0.40195 0.0
H593 H 0.29539 0.01095 0.42561 0.0
H594 H 0.36018 0.00608 0.44235 0.0
H595 H 0.33884 0.00833 0.46595 0.0
H596 H 0.29286 0.01951 0.53754 0.0
H597 H 0.23646 0.01334 0.54739 0.0
H598 H 0.22859 0.01615 0.51539 0.0
H599 H 0.28486 0.0224 0.50558 0.0
C600 C 0.28922 0.00754 0.74821 0.0
C601 C 0.29899 0.99446 0.75645 0.0
C602 C 0.32419 0.00097 0.73822 0.0
C603 C 0.31622 0.99117 0.75146 0.0
C604 C 0.31446 0.01421 0.73009 0.0
C605 C 0.29707 0.01739 0.735 0.0
U606 U 0.26023 0.0152 0.78674 0.0
O607 O 0.23929 0.03409 0.79175 0.0
O608 O 0.23301 0.00499 0.79195 0.0
C609 C 0.22672 0.02105 0.79237 0.0
C610 C 0.27142 0.01169 0.75428 0.0
C611 C 0.21029 0.02242 0.78082 0.0
C612 C 0.19342 0.01667 0.75198 0.0
C613 C 0.20959 0.01685 0.76249 0.0
C614 C 0.17869 0.02831 0.77786 0.0
C615 C 0.17772 0.02216 0.75962 0.0
C616 C 0.19485 0.0284 0.78838 0.0
C617 C 0.28443 0.01211 0.8333 0.0
C618 C 0.26967 0.01105 0.86132 0.0
C619 C 0.30221 0.01292 0.86164 0.0
C620 C 0.30117 0.01303 0.84293 0.0
C621 C 0.28649 0.01182 0.87107 0.0
C622 C 0.26865 0.01119 0.84255 0.0
C623 C 0.28385 0.01184 0.81362 0.0
O624 O 0.26265 0.99862 0.76178 0.0
O625 O 0.27092 0.02741 0.76313 0.0
O626 O 0.2812 0.02726 0.80664 0.0
O627 O 0.27451 0.99813 0.80498 0.0
H628 H 0.29346 0.98691 0.76698 0.0
H629 H 0.32347 0.98121 0.75833 0.0
H630 H 0.32023 0.022 0.71987 0.0
H631 H 0.28984 0.02767 0.72862 0.0
H632 H 0.19314 0.01206 0.73792 0.0
H633 H 0.22144 0.01224 0.75643 0.0
H634 H 0.16681 0.03244 0.78419 0.0
H635 H 0.19518 0.0327 0.80253 0.0
H636 H 0.25732 0.01008 0.86817 0.0
H637 H 0.31537 0.01389 0.86872 0.0
H638 H 0.31348 0.01382 0.83597 0.0
H639 H 0.25559 0.01047 0.83526 0.0
C640 C 0.60658 0.70662 0.37867 0.0
C641 C 0.59518 0.69097 0.37865 0.0
C642 C 0.62008 0.67259 0.37217 0.0
C643 C 0.60185 0.6741 0.37537 0.0
C644 C 0.63146 0.68834 0.37223 0.0
C645 C 0.62473 0.70523 0.37543 0.0
U646 U 0.56962 0.73418 0.39538 0.0
O647 O 0.57069 0.75926 0.41258 0.0
O648 O 0.55791 0.75819 0.38525 0.0
C649 C 0.56377 0.76838 0.39965 0.0
C650 C 0.59963 0.72431 0.38252 0.0
C651 C 0.57426 0.78491 0.39609 0.0
C652 C 0.60156 0.79985 0.38662 0.0
C653 C 0.59178 0.78415 0.39045 0.0
C654 C 0.57639 0.81726 0.39406 0.0
C655 C 0.59394 0.8166 0.38829 0.0
C656 C 0.56664 0.80154 0.39793 0.0
C657 C 0.52814 0.70796 0.411 0.0
C658 C 0.50302 0.72189 0.4241 0.0
C659 C 0.50259 0.68945 0.41945 0.0
C660 C 0.51939 0.69101 0.41228 0.0
C661 C 0.49419 0.70486 0.42548 0.0
C662 C 0.51987 0.72342 0.41688 0.0
C663 C 0.54594 0.7091 0.4037 0.0
O664 O 0.58548 0.72779 0.37227 0.0
O665 O 0.59813 0.72869 0.39964 0.0
O666 O 0.55922 0.71598 0.4149 0.0
O667 O 0.5465 0.715 0.38752 0.0
H668 H 0.58114 0.6918 0.3813 0.0
H669 H 0.59282 0.66223 0.37568 0.0
H670 H 0.64552 0.68761 0.36966 0.0
H671 H 0.6337 0.7172 0.37545 0.0
H672 H 0.61494 0.79884 0.38198 0.0
H673 H 0.59782 0.77137 0.38886 0.0
H674 H 0.57022 0.82996 0.39568 0.0
H675 H 0.55312 0.80234 0.40228 0.0
H676 H 0.49685 0.73401 0.42846 0.0
H677 H 0.49632 0.67613 0.42058 0.0
H678 H 0.52565 0.67894 0.40785 0.0
H679 H 0.52647 0.73663 0.41593 0.0
C680 C 0.75518 0.29769 0.01736 0.0
C681 C 0.76954 0.31046 0.01609 0.0
C682 C 0.74892 0.33437 0.01573 0.0
C683 C 0.76645 0.3286 0.01529 0.0
C684 C 0.73457 0.32159 0.01743 0.0
C685 C 0.73771 0.30334 0.01836 0.0
U686 U 0.78975 0.26411 0.01579 0.0
O687 O 0.79342 0.23898 0.02914 0.0
O688 O 0.79178 0.23885 0.99965 0.0
C689 C 0.79254 0.22922 0.0138 0.0
C690 C 0.75875 0.27857 0.01693 0.0
C691 C 0.78039 0.21291 0.01263 0.0
C692 C 0.77634 0.18066 0.01476 0.0
C693 C 0.78732 0.19657 0.01676 0.0
C694 C 0.75118 0.19732 0.00469 0.0
C695 C 0.75818 0.18081 0.00853 0.0
C696 C 0.76219 0.21327 0.00678 0.0
C697 C 0.83807 0.28494 0.01567 0.0
C698 C 0.86428 0.26775 0.01181 0.0
C699 C 0.86786 0.30006 0.01796 0.0
C700 C 0.84927 0.30071 0.01848 0.0
C701 C 0.87561 0.28359 0.01458 0.0
C702 C 0.84562 0.26842 0.01235 0.0
C703 C 0.81859 0.28612 0.01625 0.0
O704 O 0.76512 0.27242 0.00188 0.0
O705 O 0.76771 0.27369 0.03134 0.0
O706 O 0.81159 0.28083 0.0309 0.0
O707 O 0.80896 0.28043 0.00144 0.0
H708 H 0.78314 0.30633 0.01532 0.0
H709 H 0.77777 0.33804 0.01373 0.0
H710 H 0.72096 0.32571 0.01796 0.0
H711 H 0.72651 0.29365 0.01953 0.0
H712 H 0.78222 0.16816 0.0176 0.0
H713 H 0.80136 0.19606 0.02124 0.0
H714 H 0.73721 0.1979 6e-05 0.0
H715 H 0.75659 0.22582 0.00359 0.0
H716 H 0.86981 0.25487 0.00905 0.0
H717 H 0.87619 0.31246 0.02049 0.0
H718 H 0.84362 0.31356 0.02114 0.0
H719 H 0.8371 0.25611 0.01015 0.0
C720 C 0.20494 0.78672 0.6909 0.0
C721 C 0.19311 0.80045 0.69305 0.0
C722 C 0.21823 0.82166 0.70359 0.0
C723 C 0.19969 0.81776 0.69943 0.0
C724 C 0.22994 0.8077 0.70169 0.0
C725 C 0.22333 0.7904 0.69542 0.0
U726 U 0.17071 0.75552 0.66218 0.0
O727 O 0.17518 0.73437 0.6415 0.0
O728 O 0.16127 0.72747 0.66543 0.0
C729 C 0.16843 0.72148 0.65076 0.0
C730 C 0.19856 0.76883 0.68295 0.0
C731 C 0.17977 0.70631 0.65273 0.0
C732 C 0.18533 0.67529 0.64479 0.0
C733 C 0.17424 0.68962 0.64394 0.0
C734 C 0.20754 0.69416 0.66356 0.0
C735 C 0.20219 0.67744 0.65446 0.0
C736 C 0.19641 0.70851 0.66268 0.0
C737 C 0.12935 0.77141 0.63894 0.0
C738 C 0.11134 0.74964 0.61883 0.0
C739 C 0.10347 0.78065 0.62139 0.0
C740 C 0.11805 0.78481 0.63399 0.0
C741 C 0.10011 0.76305 0.61351 0.0
C742 C 0.12582 0.75379 0.63142 0.0
C743 C 0.14533 0.77578 0.65125 0.0
O744 O 0.18391 0.76159 0.68921 0.0
O745 O 0.19862 0.76699 0.66535 0.0
O746 O 0.16064 0.77481 0.64357 0.0
O747 O 0.14523 0.76796 0.66654 0.0
H748 H 0.17885 0.79786 0.68952 0.0
H749 H 0.19027 0.82812 0.70093 0.0
H750 H 0.2443 0.81025 0.70444 0.0
H751 H 0.23266 0.77997 0.69368 0.0
H752 H 0.18071 0.66251 0.63787 0.0
H753 H 0.16141 0.68774 0.63622 0.0
H754 H 0.2205 0.69628 0.67098 0.0
H755 H 0.20089 0.72139 0.66948 0.0
H756 H 0.10895 0.73591 0.61324 0.0
H757 H 0.09511 0.79129 0.61747 0.0
H758 H 0.12066 0.79851 0.63964 0.0
H759 H 0.13444 0.74327 0.63512 0.0
C760 C 0.42188 0.23619 0.02683 0.0
C761 C 0.43238 0.22126 0.02649 0.0
C762 C 0.40646 0.20202 0.0333 0.0
C763 C 0.42472 0.20428 0.02968 0.0
C764 C 0.39615 0.21716 0.03391 0.0
C765 C 0.4038 0.23408 0.03067 0.0
U766 U 0.46153 0.26971 0.02053 0.0
O767 O 0.464 0.29012 0.00068 0.0
O768 O 0.46531 0.29839 0.02946 0.0
C769 C 0.46389 0.30352 0.01294 0.0
C770 C 0.42945 0.25404 0.02304 0.0
C771 C 0.44995 0.31614 0.00965 0.0
C772 C 0.4184 0.32185 0.00523 0.0
C773 C 0.43181 0.30984 0.00757 0.0
C774 C 0.44113 0.34662 0.0069 0.0
C775 C 0.42288 0.3404 0.00504 0.0
C776 C 0.45457 0.33456 0.00921 0.0
C777 C 0.50985 0.25708 0.02522 0.0
C778 C 0.5346 0.27978 0.02546 0.0
C779 C 0.54038 0.24817 0.02312 0.0
C780 C 0.522 0.24361 0.02378 0.0
C781 C 0.54691 0.26632 0.02394 0.0
C782 C 0.51623 0.27519 0.02603 0.0
C783 C 0.49055 0.25215 0.02557 0.0
O784 O 0.4386 0.26314 0.03661 0.0
O785 O 0.43724 0.25492 0.00779 0.0
O786 O 0.48136 0.25191 0.00995 0.0
O787 O 0.4825 0.26007 0.03878 0.0
H788 H 0.44641 0.2227 0.02357 0.0
H789 H 0.43298 0.19288 0.02895 0.0
H790 H 0.38215 0.21596 0.03696 0.0
H791 H 0.39556 0.24553 0.03109 0.0
H792 H 0.40451 0.31659 0.00358 0.0
H793 H 0.42802 0.29563 0.00792 0.0
H794 H 0.44501 0.36084 0.00702 0.0
H795 H 0.46853 0.33962 0.0109 0.0
H796 H 0.53916 0.29387 0.02634 0.0
H797 H 0.54943 0.23747 0.02165 0.0
H798 H 0.51726 0.22956 0.02302 0.0
H799 H 0.50698 0.28578 0.02709 0.0
C800 C 0.37861 0.60697 0.71224 0.0
C801 C 0.38117 0.5952 0.69738 0.0
C802 C 0.37449 0.61855 0.67708 0.0
C803 C 0.37907 0.60091 0.67996 0.0
C804 C 0.37194 0.63029 0.69207 0.0
C805 C 0.37399 0.62453 0.7095 0.0
U806 U 0.39565 0.57308 0.74349 0.0
O807 O 0.41019 0.57665 0.77012 0.0
O808 O 0.38401 0.56136 0.76679 0.0
C809 C 0.39697 0.5687 0.77812 0.0
C810 C 0.38116 0.60107 0.73056 0.0
C811 C 0.391 0.57887 0.79387 0.0
C812 C 0.3759 0.60393 0.80695 0.0
C813 C 0.38163 0.59441 0.79186 0.0
C814 C 0.38893 0.5825 0.82617 0.0
C815 C 0.37945 0.59807 0.8243 0.0
C816 C 0.39464 0.573 0.81107 0.0
C817 C 0.41798 0.53287 0.72219 0.0
C818 C 0.4305 0.50958 0.73947 0.0
C819 C 0.43232 0.50842 0.70714 0.0
C820 C 0.42338 0.52426 0.70643 0.0
C821 C 0.43603 0.50089 0.72366 0.0
C822 C 0.42153 0.52546 0.73873 0.0
C823 C 0.40889 0.54967 0.72108 0.0
O824 O 0.37176 0.58624 0.73366 0.0
O825 O 0.39799 0.60141 0.73693 0.0
O826 O 0.41812 0.56418 0.72826 0.0
O827 O 0.39195 0.54885 0.72499 0.0
H828 H 0.38481 0.58159 0.69927 0.0
H829 H 0.38087 0.59143 0.66875 0.0
H830 H 0.36864 0.64402 0.69035 0.0
H831 H 0.37209 0.63381 0.72086 0.0
H832 H 0.36845 0.61572 0.805 0.0
H833 H 0.37868 0.5991 0.77863 0.0
H834 H 0.39213 0.57776 0.83933 0.0
H835 H 0.40192 0.56106 0.81284 0.0
H836 H 0.43298 0.50404 0.75239 0.0
H837 H 0.43663 0.50226 0.69476 0.0
H838 H 0.42079 0.52988 0.69355 0.0
H839 H 0.4174 0.53197 0.75104 0.0
C840 C 0.00507 0.74607 0.2885 0.0
C841 C 0.99142 0.75346 0.29815 0.0
C842 C 0.99853 0.73526 0.3232 0.0
C843 C 0.98816 0.74808 0.31523 0.0
C844 C 0.01224 0.72786 0.31357 0.0
C845 C 0.01541 0.73317 0.2963 0.0
U846 U 0.01288 0.78611 0.26179 0.0
O847 O 0.03183 0.79268 0.24135 0.0
O848 O 0.00273 0.79287 0.23501 0.0
C849 C 0.01884 0.79406 0.22888 0.0
C850 C 0.00944 0.75295 0.27108 0.0
C851 C 0.02041 0.78387 0.21169 0.0
C852 C 0.02035 0.75547 0.19398 0.0
C853 C 0.02053 0.76506 0.2107 0.0
C854 C 0.02028 0.78346 0.1792 0.0
C855 C 0.0199 0.76457 0.17803 0.0
C856 C 0.02052 0.79301 0.19589 0.0
C857 C 0.00925 0.83129 0.2884 0.0
C858 C 0.00643 0.86 0.27526 0.0
C859 C 0.01137 0.85886 0.30754 0.0
C860 C 0.01164 0.84018 0.3055 0.0
C861 C 0.00863 0.869 0.29247 0.0
C862 C 0.00675 0.84127 0.27324 0.0
C863 C 0.00913 0.81161 0.2868 0.0
O864 O 0.99644 0.76078 0.26255 0.0
O865 O 0.02515 0.76195 0.27114 0.0
O866 O 0.02464 0.80493 0.28387 0.0
O867 O 0.99553 0.80329 0.277 0.0
H868 H 0.98346 0.76372 0.29268 0.0
H869 H 0.9778 0.75439 0.32241 0.0
H870 H 0.02045 0.71796 0.31934 0.0
H871 H 0.02612 0.72744 0.28918 0.0
H872 H 0.01991 0.74092 0.19351 0.0
H873 H 0.0203 0.7578 0.22282 0.0
H874 H 0.02017 0.79085 0.16717 0.0
H875 H 0.0204 0.80753 0.19644 0.0
H876 H 0.00417 0.8674 0.26339 0.0
H877 H 0.01348 0.86536 0.32094 0.0
H878 H 0.01368 0.83266 0.31733 0.0
H879 H 0.00491 0.83457 0.2599 0.0
C880 C 0.69022 0.20409 0.78862 0.0
C881 C 0.69185 0.19246 0.80259 0.0
C882 C 0.70011 0.21797 0.82408 0.0
C883 C 0.69684 0.19933 0.82015 0.0
C884 C 0.69859 0.22952 0.80995 0.0
C885 C 0.69371 0.22262 0.79238 0.0
U886 U 0.66538 0.16822 0.75644 0.0
O887 O 0.64661 0.17082 0.73311 0.0
O888 O 0.6717 0.15756 0.72956 0.0
C889 C 0.65733 0.16377 0.7217 0.0
C890 C 0.68411 0.19719 0.77028 0.0
C891 C 0.66036 0.17414 0.70599 0.0
C892 C 0.66869 0.20219 0.69292 0.0
C893 C 0.66708 0.19216 0.70802 0.0
C894 C 0.65734 0.17611 0.67367 0.0
C895 C 0.66368 0.19431 0.67559 0.0
C896 C 0.65569 0.16613 0.68876 0.0
C897 C 0.64185 0.1269 0.77342 0.0
C898 C 0.63295 0.09955 0.7548 0.0
C899 C 0.61475 0.10892 0.77899 0.0
C900 C 0.62683 0.12381 0.78345 0.0
C901 C 0.61751 0.09674 0.76443 0.0
C902 C 0.64492 0.11454 0.75916 0.0
C903 C 0.65325 0.14373 0.77709 0.0
O904 O 0.69152 0.18268 0.76421 0.0
O905 O 0.66663 0.19655 0.76671 0.0
O906 O 0.64503 0.15843 0.77421 0.0
O907 O 0.66944 0.14393 0.77102 0.0
H908 H 0.6891 0.17809 0.79995 0.0
H909 H 0.6981 0.19002 0.83064 0.0
H910 H 0.70071 0.24394 0.8125 0.0
H911 H 0.69236 0.23179 0.78177 0.0
H912 H 0.6738 0.21611 0.69481 0.0
H913 H 0.67078 0.19852 0.72127 0.0
H914 H 0.65314 0.1697 0.66055 0.0
H915 H 0.65041 0.15225 0.687 0.0
H916 H 0.6357 0.0903 0.74373 0.0
H917 H 0.60291 0.10736 0.78656 0.0
H918 H 0.62414 0.13325 0.79442 0.0
H919 H 0.65635 0.11662 0.75111 0.0
C920 C 0.03815 0.42124 0.23158 0.0
C921 C 0.03833 0.43122 0.21628 0.0
C922 C 0.04595 0.4048 0.19826 0.0
C923 C 0.04217 0.42304 0.19972 0.0
C924 C 0.046 0.39499 0.21375 0.0
C925 C 0.04212 0.40316 0.23025 0.0
U926 U 0.02888 0.46144 0.26332 0.0
O927 O 0.00796 0.46355 0.28264 0.0
O928 O 0.03643 0.46636 0.29221 0.0
C929 C 0.01967 0.4646 0.2966 0.0
C930 C 0.03348 0.42925 0.24894 0.0
C931 C 0.01613 0.45143 0.30992 0.0
C932 C 0.01521 0.42064 0.31864 0.0
C933 C 0.01897 0.43324 0.30611 0.0
C934 C 0.00569 0.44431 0.3389 0.0
C935 C 0.00847 0.42603 0.33516 0.0
C936 C 0.0095 0.45691 0.32636 0.0
C937 C 0.03106 0.5093 0.25028 0.0
C938 C 0.02826 0.53323 0.27325 0.0
C939 C 0.02653 0.53962 0.24179 0.0
C940 C 0.02903 0.52158 0.23699 0.0
C941 C 0.02602 0.54564 0.25999 0.0
C942 C 0.03067 0.51523 0.26843 0.0
C943 C 0.03294 0.49022 0.24525 0.0
O944 O 0.04637 0.43931 0.25813 0.0
O945 O 0.01777 0.43627 0.24895 0.0
O946 O 0.01787 0.48005 0.24441 0.0
O947 O 0.04641 0.48307 0.25376 0.0
H948 H 0.03535 0.44525 0.21714 0.0
H949 H 0.04219 0.43098 0.18807 0.0
H950 H 0.04858 0.38087 0.21304 0.0
H951 H 0.04199 0.39528 0.24195 0.0
H952 H 0.01728 0.40663 0.31528 0.0
H953 H 0.02398 0.42879 0.29338 0.0
H954 H 0.00072 0.44891 0.35159 0.0
H955 H 0.00724 0.47092 0.32947 0.0
H956 H 0.02821 0.53743 0.28738 0.0
H957 H 0.02462 0.54876 0.23123 0.0
H958 H 0.02915 0.51718 0.2229 0.0
H959 H 0.03214 0.50589 0.27888 0.0
O960 O 0.30671 0.48693 0.61515 0.0
Cd961 Cd 0.31167 0.47219 0.6432 0.0
O962 O 0.30396 0.5115 0.63202 0.0
Cd963 Cd 0.29696 0.53932 0.63656 0.0
O964 O 0.28554 0.56544 0.63908 0.0
C965 C 0.27711 0.56966 0.65283 0.0
O966 O 0.2759 0.5583 0.66552 0.0
C967 C 0.30405 0.50357 0.61646 0.0
C968 C 0.32498 0.43831 0.63825 0.0
O969 O 0.30802 0.44014 0.63822 0.0
O970 O 0.33561 0.45253 0.64049 0.0
O971 O 0.26163 0.49503 0.00858 0.0
Cd972 Cd 0.27659 0.51599 0.03208 0.0
O973 O 0.2837 0.47841 0.01569 0.0
Cd974 Cd 0.30094 0.45595 0.01296 0.0
O975 O 0.32009 0.43512 0.01293 0.0
C976 C 0.32699 0.42982 0.99857 0.0
O977 O 0.32222 0.43688 0.98345 0.0
C978 C 0.26939 0.4805 0.00611 0.0
C979 C 0.27414 0.55203 0.02532 0.0
O980 O 0.28662 0.54301 0.01894 0.0
O981 O 0.26273 0.54394 0.03469 0.0
O982 O 0.69639 0.01213 0.32637 0.0
Cd983 Cd 0.6893 0.02024 0.29571 0.0
O984 O 0.68383 0.98478 0.3214 0.0
Cd985 Cd 0.6736 0.95881 0.32999 0.0
O986 O 0.66021 0.93395 0.33787 0.0
C987 C 0.66292 0.92858 0.35357 0.0
O988 O 0.67419 0.93811 0.36519 0.0
C989 C 0.69221 0.99685 0.33206 0.0
C990 C 0.70669 0.05356 0.29109 0.0
O991 O 0.69093 0.05233 0.29697 0.0
O992 O 0.71411 0.03897 0.287 0.0
O993 O 0.67208 0.96275 0.97493 0.0
Cd994 Cd 0.66298 0.95168 0.94407 0.0
O995 O 0.6804 0.98994 0.96776 0.0
Cd996 Cd 0.68962 0.01821 0.97381 0.0
O997 O 0.70165 0.04521 0.98156 0.0
C998 C 0.69299 0.05911 0.97932 0.0
O999 O 0.6764 0.05718 0.97217 0.0
C1000 C 0.67849 0.97861 0.97966 0.0
C1001 C 0.64743 0.91679 0.94447 0.0
O1002 O 0.66434 0.91968 0.9429 0.0
O1003 O 0.63781 0.93041 0.94546 0.0
O1004 O 0.60992 0.28682 0.47864 0.0
Cd1005 Cd 0.63656 0.28653 0.4612 0.0
O1006 O 0.62663 0.28007 0.50207 0.0
Cd1007 Cd 0.63278 0.2747 0.5302 0.0
O1008 O 0.63785 0.26532 0.55704 0.0
C1009 C 0.65258 0.25844 0.5611 0.0
O1010 O 0.66468 0.25748 0.54909 0.0
C1011 C 0.61126 0.28319 0.49505 0.0
C1012 C 0.63263 0.30501 0.43003 0.0
O1013 O 0.62721 0.2884 0.43017 0.0
O1014 O 0.63985 0.31291 0.44468 0.0
O1015 O 0.97867 0.68522 0.9619 0.0
Cd1016 Cd 0.9476 0.67439 0.95344 0.0
O1017 O 0.97491 0.68314 0.9906 0.0
Cd1018 Cd 0.98336 0.68767 0.01916 0.0
O1019 O 0.98833 0.69718 0.04734 0.0
C1020 C 0.00408 0.69991 0.05485 0.0
O1021 O 0.01797 0.6965 0.04551 0.0
C1022 C 0.98507 0.68685 0.97811 0.0
C1023 C 0.9467 0.65443 0.92058 0.0
O1024 O 0.94463 0.67135 0.92128 0.0
O1025 O 0.94878 0.64688 0.93545 0.0
O1026 O 0.96385 0.30316 0.51331 0.0
Cd1027 Cd 0.97611 0.32595 0.53647 0.0
O1028 O 0.97871 0.31826 0.49427 0.0
Cd1029 Cd 0.98608 0.32692 0.46816 0.0
O1030 O 0.99308 0.34 0.44406 0.0
C1031 C 0.981 0.34188 0.4317 0.0
O1032 O 0.96451 0.33534 0.4335 0.0
C1033 C 0.96794 0.30507 0.49725 0.0
C1034 C 0.97904 0.31254 0.57037 0.0
O1035 O 0.96426 0.31843 0.56427 0.0
O1036 O 0.99243 0.31299 0.56042 0.0
O1037 O 0.31653 0.71492 0.01064 0.0
Cd1038 Cd 0.28494 0.71529 0.01727 0.0
O1039 O 0.31073 0.70334 0.98296 0.0
Cd1040 Cd 0.31889 0.69183 0.95726 0.0
O1041 O 0.32822 0.67858 0.93293 0.0
C1042 C 0.33783 0.66521 0.93436 0.0
O1043 O 0.34194 0.65984 0.95044 0.0
C1044 C 0.32205 0.70947 0.99562 0.0
C1045 C 0.28255 0.73219 0.05125 0.0
O1046 O 0.28328 0.7151 0.04915 0.0
O1047 O 0.28251 0.74123 0.03721 0.0
O1048 O 0.49479 0.61666 0.32194 0.0
Cd1049 Cd 0.48334 0.64571 0.33071 0.0
O1050 O 0.51769 0.63195 0.31215 0.0
Cd1051 Cd 0.54243 0.63605 0.29831 0.0
O1052 O 0.5662 0.64207 0.28364 0.0
C1053 C 0.56498 0.64027 0.26657 0.0
O1054 O 0.54945 0.63465 0.25825 0.0
C1055 C 0.50973 0.61684 0.31466 0.0
C1056 C 0.44846 0.64304 0.34213 0.0
O1057 O 0.4513 0.6448 0.32555 0.0
O1058 O 0.46214 0.64238 0.35327 0.0
O1059 O 0.96606 0.97088 0.67983 0.0
Cd1060 Cd 0.95702 0.94016 0.66823 0.0
O1061 O 0.99452 0.96844 0.67489 0.0
Cd1062 Cd 0.02271 0.97866 0.67749 0.0
O1063 O 0.0503 0.98846 0.6858 0.0
C1064 C 0.0531 0.99888 0.69994 0.0
O1065 O 0.03929 0.00374 0.70872 0.0
C1066 C 0.98205 0.97784 0.6803 0.0
C1067 C 0.92265 0.93992 0.65131 0.0
O1068 O 0.92489 0.93741 0.6681 0.0
O1069 O 0.93669 0.94209 0.64243 0.0
O1070 O 0.50188 0.01285 0.26785 0.0
Cd1071 Cd 0.52225 0.03713 0.28235 0.0
O1072 O 0.48339 0.02209 0.28747 0.0
Cd1073 Cd 0.45934 0.02057 0.30264 0.0
O1074 O 0.43747 0.02007 0.32061 0.0
C1075 C 0.43088 0.00525 0.32564 0.0
O1076 O 0.43717 0.99017 0.31953 0.0
C1077 C 0.48661 0.01127 0.27441 0.0
C1078 C 0.55845 0.03306 0.27718 0.0
O1079 O 0.55088 0.02587 0.29016 0.0
O1080 O 0.54883 0.04197 0.26655 0.0
O1081 O 0.01637 0.31564 0.70285 0.0
Cd1082 Cd 0.02276 0.28398 0.69919 0.0
O1083 O 0.98966 0.31146 0.68873 0.0
Cd1084 Cd 0.96466 0.32055 0.67661 0.0
O1085 O 0.94004 0.32919 0.66339 0.0
C1086 C 0.93952 0.33253 0.64689 0.0
O1087 O 0.95398 0.33073 0.63795 0.0
C1088 C 0.0018 0.32193 0.6972 0.0
C1089 C 0.05624 0.28031 0.71674 0.0
O1090 O 0.05478 0.28302 0.69995 0.0
O1091 O 0.0418 0.27877 0.7251 0.0
O1092 O 0.68358 0.50111 0.38195 0.0
Cd1093 Cd 0.6773 0.51365 0.35293 0.0
O1094 O 0.7003 0.48223 0.36834 0.0
Cd1095 Cd 0.71667 0.45911 0.36514 0.0
O1096 O 0.7334 0.43685 0.35918 0.0
C1097 C 0.72746 0.42386 0.34819 0.0
O1098 O 0.71108 0.42396 0.34069 0.0
C1099 C 0.69378 0.48815 0.38272 0.0
C1100 C 0.66527 0.5482 0.3566 0.0
O1101 O 0.65421 0.5343 0.35566 0.0
O1102 O 0.68205 0.54574 0.35583 0.0
O1103 O 0.75164 0.51849 0.98759 0.0
Cd1104 Cd 0.74576 0.49446 0.96392 0.0
O1105 O 0.72315 0.52372 0.98447 0.0
Cd1106 Cd 0.69946 0.5387 0.98914 0.0
O1107 O 0.67691 0.55518 0.99379 0.0
C1108 C 0.67996 0.57165 0.99907 0.0
O1109 O 0.6967 0.57826 0.00179 0.0
C1110 C 0.73864 0.52745 0.99236 0.0
C1111 C 0.74461 0.46076 0.97802 0.0
O1112 O 0.75943 0.46835 0.97363 0.0
O1113 O 0.73025 0.46911 0.9757 0.0
O1114 O 0.28779 0.98746 0.68328 0.0
Cd1115 Cd 0.29338 0.98027 0.71446 0.0
O1116 O 0.31017 0.00809 0.6851 0.0
Cd1117 Cd 0.32612 0.03052 0.67519 0.0
O1118 O 0.34085 0.05415 0.6662 0.0
C1119 C 0.33792 0.05906 0.65035 0.0
O1120 O 0.32598 0.04964 0.63934 0.0
C1121 C 0.2972 0.99935 0.67593 0.0
C1122 C 0.27723 0.94652 0.71928 0.0
O1123 O 0.26852 0.96069 0.72123 0.0
O1124 O 0.29371 0.94839 0.71544 0.0
O1125 O 0.31825 0.03818 0.01124 0.0
Cd1126 Cd 0.32918 0.04483 0.04256 0.0
O1127 O 0.30831 0.01089 0.0164 0.0
Cd1128 Cd 0.29413 0.98463 0.00964 0.0
O1129 O 0.28026 0.95809 0.00452 0.0
C1130 C 0.28229 0.94838 0.9903 0.0
O1131 O 0.29289 0.95454 0.97836 0.0
C1132 C 0.31062 0.02308 0.00545 0.0
C1133 C 0.34715 0.07878 0.04558 0.0
O1134 O 0.35562 0.06464 0.04238 0.0
O1135 O 0.33027 0.07679 0.04779 0.0
O1136 O 0.37938 0.67381 0.5001 0.0
Cd1137 Cd 0.35169 0.66611 0.51459 0.0
O1138 O 0.36303 0.68627 0.47956 0.0
Cd1139 Cd 0.35863 0.70219 0.45625 0.0
O1140 O 0.35511 0.7192 0.43373 0.0
C1141 C 0.36287 0.716 0.41931 0.0
O1142 O 0.37293 0.70221 0.41807 0.0
C1143 C 0.37836 0.68204 0.48572 0.0
C1144 C 0.35784 0.65644 0.54983 0.0
O1145 O 0.35742 0.64471 0.53651 0.0
O1146 O 0.35548 0.67278 0.54648 0.0
O1147 O 0.01677 0.3003 0.04393 0.0
Cd1148 Cd 0.04873 0.30852 0.05058 0.0
O1149 O 0.02164 0.29387 0.01574 0.0
Cd1150 Cd 0.01471 0.28379 0.98796 0.0
O1151 O 0.01014 0.27341 0.96005 0.0
C1152 C 0.99448 0.2684 0.95325 0.0
O1153 O 0.98069 0.26962 0.96327 0.0
C1154 C 0.01069 0.29513 0.02808 0.0
C1155 C 0.05312 0.33096 0.08193 0.0
O1156 O 0.05098 0.33747 0.06652 0.0
O1157 O 0.05354 0.31387 0.08244 0.0
O1158 O 0.99212 0.73718 0.50996 0.0
Cd1159 Cd 0.96719 0.72473 0.4893 0.0
O1160 O 0.99114 0.71023 0.51983 0.0
Cd1161 Cd 0.998 0.68975 0.53827 0.0
O1162 O 0.00298 0.66962 0.55754 0.0
C1163 C 0.00722 0.6745 0.57393 0.0
O1164 O 0.00883 0.69174 0.57889 0.0
C1165 C 0.9983 0.72618 0.52069 0.0
C1166 C 0.97505 0.72511 0.45335 0.0
O1167 O 0.96707 0.73794 0.46099 0.0
O1168 O 0.97946 0.71211 0.46278 0.0
O1169 O 0.68484 0.28477 0.99514 0.0
Cd1170 Cd 0.71547 0.28898 0.98568 0.0
O1171 O 0.688 0.30784 0.01503 0.0
Cd1172 Cd 0.67924 0.32514 0.03718 0.0
O1173 O 0.67069 0.34144 0.06009 0.0
C1174 C 0.65549 0.33785 0.06628 0.0
O1175 O 0.64506 0.32434 0.05865 0.0
C1176 C 0.67826 0.2948 0.00708 0.0
C1177 C 0.71703 0.27369 0.95087 0.0
O1178 O 0.71951 0.26436 0.96454 0.0
O1179 O 0.71414 0.29033 0.9537 0.0
O1180 O 0.5254 0.3935 0.718 0.0
Cd1181 Cd 0.54392 0.36761 0.71819 0.0
O1182 O 0.50319 0.37613 0.72641 0.0
Cd1183 Cd 0.47666 0.37003 0.73634 0.0
O1184 O 0.45098 0.3635 0.74769 0.0
C1185 C 0.4374 0.37236 0.74401 0.0
O1186 O 0.43896 0.38547 0.73315 0.0
C1187 C 0.50923 0.39155 0.72231 0.0
C1188 C 0.57475 0.37215 0.69923 0.0
O1189 O 0.56009 0.36473 0.69153 0.0
O1190 O 0.57476 0.37756 0.71586 0.0
O1191 O 0.03214 0.00908 0.32816 0.0
Cd1192 Cd 0.04003 0.04088 0.33614 0.0
O1193 O 0.01084 0.01484 0.30821 0.0
Cd1194 Cd 0.98762 0.00739 0.28938 0.0
O1195 O 0.96211 0.00188 0.27357 0.0
C1196 C 0.94806 0.99812 0.28173 0.0
O1197 O 0.94948 0.99736 0.29928 0.0
C1198 C 0.01982 0.00349 0.31629 0.0
C1199 C 0.07478 0.04417 0.35232 0.0
O1200 O 0.06111 0.04217 0.36174 0.0
O1201 O 0.07196 0.04508 0.33531 0.0
O1202 O 0.51123 0.99179 0.73463 0.0
Cd1203 Cd 0.48947 0.96819 0.72129 0.0
O1204 O 0.51624 0.99695 0.7068 0.0
Cd1205 Cd 0.53203 0.0088 0.68635 0.0
O1206 O 0.55183 0.01557 0.66723 0.0
C1207 C 0.56837 0.01714 0.6726 0.0
O1208 O 0.5729 0.01529 0.68964 0.0
C1209 C 0.51975 0.00068 0.72354 0.0
C1210 C 0.45388 0.97667 0.72387 0.0
O1211 O 0.46186 0.96786 0.73584 0.0
O1212 O 0.4628 0.98164 0.71072 0.0
O1213 O 0.98861 0.68063 0.28634 0.0
Cd1214 Cd 0.97841 0.71024 0.29469 0.0
O1215 O 0.00767 0.68231 0.31004 0.0
Cd1216 Cd 0.02971 0.67281 0.32695 0.0
O1217 O 0.05256 0.66306 0.34239 0.0
C1218 C 0.06776 0.66298 0.33562 0.0
O1219 O 0.06929 0.66875 0.31948 0.0
C1220 C 0.00053 0.67356 0.29597 0.0
C1221 C 0.9439 0.71382 0.27962 0.0
O1222 O 0.95776 0.71899 0.27152 0.0
O1223 O 0.94641 0.7072 0.29493 0.0
H1224 H 0.17415 0.65164 0.38589 0.0
H1225 H 0.1425 0.60552 0.40161 0.0
H1226 H 0.14786 0.6613 0.36905 0.0
H1227 H 0.11617 0.61527 0.38483 0.0
H1228 H 0.0691 0.64935 0.36886 0.0
H1229 H 0.0953 0.63939 0.3857 0.0
H1230 H 0.12832 0.6521 0.34213 0.0
H1231 H 0.10224 0.6623 0.3254 0.0
C1232 C 0.16163 0.64347 0.38562 0.0
C1233 C 0.16046 0.62778 0.39508 0.0
C1234 C 0.14655 0.64902 0.37597 0.0
C1235 C 0.12992 0.63904 0.37557 0.0
C1236 C 0.12872 0.62339 0.38507 0.0
C1237 C 0.14382 0.61781 0.39469 0.0
C1238 C 0.08195 0.65002 0.36286 0.0
C1239 C 0.08357 0.65666 0.34579 0.0
C1240 C 0.09694 0.64421 0.37248 0.0
C1241 C 0.11391 0.64498 0.36527 0.0
C1242 C 0.1155 0.65156 0.34817 0.0
C1243 C 0.10051 0.65731 0.33854 0.0
H1244 H 0.35799 0.35002 0.82047 0.0
H1245 H 0.32578 0.36018 0.77255 0.0
H1246 H 0.38513 0.35349 0.80421 0.0
H1247 H 0.3529 0.36291 0.75606 0.0
H1248 H 0.40646 0.38996 0.74053 0.0
H1249 H 0.37867 0.38421 0.75527 0.0
H1250 H 0.4015 0.33965 0.78069 0.0
H1251 H 0.42945 0.34565 0.76626 0.0
C1252 C 0.35669 0.35288 0.80642 0.0
C1253 C 0.33972 0.35494 0.79785 0.0
C1254 C 0.37224 0.35467 0.79704 0.0
C1255 C 0.3712 0.35854 0.77883 0.0
C1256 C 0.35419 0.36016 0.77013 0.0
C1257 C 0.33862 0.35837 0.77953 0.0
C1258 C 0.40554 0.37888 0.7492 0.0
C1259 C 0.42022 0.36833 0.75229 0.0
C1260 C 0.38955 0.37551 0.75756 0.0
C1261 C 0.38786 0.36148 0.76919 0.0
C1262 C 0.40244 0.35072 0.77201 0.0
C1263 C 0.41844 0.35411 0.76367 0.0
H1264 H 0.66619 0.03168 0.61456 0.0
H1265 H 0.62776 0.99865 0.57926 0.0
H1266 H 0.6434 0.03533 0.63637 0.0
H1267 H 0.6051 0.00214 0.60101 0.0
H1268 H 0.56359 0.02239 0.63676 0.0
H1269 H 0.58639 0.02342 0.61483 0.0
H1270 H 0.62752 0.01733 0.65691 0.0
H1271 H 0.60479 0.01678 0.67891 0.0
C1272 C 0.65288 0.02519 0.61148 0.0
C1273 C 0.64877 0.01489 0.59519 0.0
C1274 C 0.63984 0.02727 0.62396 0.0
C1275 C 0.62241 0.01905 0.62044 0.0
C1276 C 0.61827 0.00895 0.60403 0.0
C1277 C 0.63127 0.00692 0.59155 0.0
C1278 C 0.57752 0.02145 0.64137 0.0
C1279 C 0.58235 0.01935 0.65956 0.0
C1280 C 0.59058 0.02194 0.62877 0.0
C1281 C 0.60877 0.02027 0.63407 0.0
C1282 C 0.61367 0.01882 0.65238 0.0
C1283 C 0.60061 0.0184 0.66499 0.0
H1284 H 0.83749 0.00979 0.24657 0.0
H1285 H 0.85563 0.9745 0.20432 0.0
H1286 H 0.86662 0.0095 0.26304 0.0
H1287 H 0.8849 0.97437 0.22079 0.0
H1288 H 0.94048 0.99832 0.24542 0.0
H1289 H 0.91096 0.9958 0.22924 0.0
H1290 H 0.88582 0.98941 0.27921 0.0
H1291 H 0.9153 0.99215 0.29545 0.0
C1292 C 0.8476 0.00176 0.2409 0.0
C1293 C 0.84421 0.99217 0.22411 0.0
C1294 C 0.86431 0.00161 0.25035 0.0
C1295 C 0.87806 0.99192 0.24322 0.0
C1296 C 0.87464 0.98216 0.22653 0.0
C1297 C 0.85789 0.98225 0.21709 0.0
C1298 C 0.92866 0.99628 0.25295 0.0
C1299 C 0.93024 0.99555 0.27174 0.0
C1300 C 0.91175 0.99473 0.24366 0.0
C1301 C 0.89606 0.99247 0.25295 0.0
C1302 C 0.89766 0.99138 0.2717 0.0
C1303 C 0.91456 0.99286 0.28099 0.0
H1304 H 0.38769 0.16643 0.64356 0.0
H1305 H 0.39606 0.13937 0.59224 0.0
H1306 H 0.37189 0.13926 0.65263 0.0
H1307 H 0.38077 0.11198 0.60154 0.0
H1308 H 0.33511 0.07305 0.61737 0.0
H1309 H 0.35065 0.10023 0.60795 0.0
H1310 H 0.37839 0.10899 0.66055 0.0
H1311 H 0.36267 0.08201 0.67008 0.0
C1312 C 0.38611 0.1547 0.63419 0.0
C1313 C 0.39311 0.15508 0.61716 0.0
C1314 C 0.37724 0.13906 0.63947 0.0
C1315 C 0.37511 0.12344 0.62783 0.0
C1316 C 0.38205 0.12384 0.61077 0.0
C1317 C 0.39097 0.13947 0.60551 0.0
C1318 C 0.34453 0.08076 0.62693 0.0
C1319 C 0.34761 0.07537 0.64449 0.0
C1320 C 0.35351 0.09629 0.62149 0.0
C1321 C 0.36573 0.10679 0.6335 0.0
C1322 C 0.36887 0.10134 0.65104 0.0
C1323 C 0.35993 0.0858 0.65647 0.0
H1324 H 0.20624 0.85534 0.98701 0.0
H1325 H 0.2542 0.83412 0.96689 0.0
H1326 H 0.2208 0.8855 0.9891 0.0
H1327 H 0.26906 0.86432 0.96968 0.0
H1328 H 0.28386 0.92387 0.96168 0.0
H1329 H 0.26852 0.89394 0.95715 0.0
H1330 H 0.24468 0.90191 0.00805 0.0
H1331 H 0.25968 0.93184 0.01243 0.0
C1332 C 0.21984 0.85712 0.98287 0.0
C1333 C 0.22905 0.8423 0.97677 0.0
C1334 C 0.22827 0.8744 0.98429 0.0
C1335 C 0.24613 0.8773 0.97969 0.0
C1336 C 0.25524 0.86255 0.97322 0.0
C1337 C 0.2468 0.84523 0.9718 0.0
C1338 C 0.2753 0.91924 0.97187 0.0
C1339 C 0.27297 0.93026 0.9874 0.0
C1340 C 0.26659 0.90206 0.96932 0.0
C1341 C 0.25534 0.89557 0.98221 0.0
C1342 C 0.25302 0.90661 0.99772 0.0
C1343 C 0.26172 0.92375 0.00028 0.0
H1344 H 0.81465 0.3548 0.32656 0.0
H1345 H 0.76895 0.31874 0.33524 0.0
H1346 H 0.79575 0.38026 0.32883 0.0
H1347 H 0.75009 0.34413 0.33735 0.0
H1348 H 0.71818 0.39305 0.32703 0.0
H1349 H 0.73682 0.36801 0.32057 0.0
H1350 H 0.78094 0.39551 0.35351 0.0
H1351 H 0.76245 0.42059 0.3598 0.0
C1352 C 0.80056 0.35229 0.32885 0.0
C1353 C 0.79335 0.33474 0.33082 0.0
C1354 C 0.78974 0.36687 0.33016 0.0
C1355 C 0.77146 0.36422 0.33341 0.0
C1356 C 0.76408 0.34661 0.33465 0.0
C1357 C 0.7749 0.33203 0.33339 0.0
C1358 C 0.73189 0.39379 0.33283 0.0
C1359 C 0.73881 0.4088 0.34397 0.0
C1360 C 0.74253 0.37942 0.32917 0.0
C1361 C 0.76036 0.3798 0.3365 0.0
C1362 C 0.76735 0.39491 0.34744 0.0
C1363 C 0.75669 0.40923 0.35116 0.0
H1364 H 0.60878 0.65659 0.02583 0.0
H1365 H 0.58109 0.62411 0.98152 0.0
H1366 H 0.63278 0.63585 0.02661 0.0
H1367 H 0.60513 0.60353 0.98209 0.0
H1368 H 0.64395 0.56183 0.99657 0.0
H1369 H 0.61912 0.58131 0.99909 0.0
H1370 H 0.65703 0.62752 0.00872 0.0
H1371 H 0.68185 0.60799 0.00671 0.0
C1372 C 0.60785 0.64502 0.01625 0.0
C1373 C 0.59307 0.64199 0.0036 0.0
C1374 C 0.6216 0.63316 0.01666 0.0
C1375 C 0.62094 0.61805 0.00437 0.0
C1376 C 0.60596 0.61486 0.99195 0.0
C1377 C 0.59218 0.62667 0.9916 0.0
C1378 C 0.64699 0.57614 0.99933 0.0
C1379 C 0.66489 0.58337 0.00136 0.0
C1380 C 0.63275 0.58732 0.00069 0.0
C1381 C 0.63606 0.606 0.00402 0.0
C1382 C 0.65398 0.61318 0.00638 0.0
C1383 C 0.66822 0.60198 0.00511 0.0
H1384 H 0.61339 0.37154 0.16784 0.0
H1385 H 0.63475 0.42118 0.14825 0.0
H1386 H 0.62248 0.355 0.14113 0.0
H1387 H 0.64326 0.40469 0.12117 0.0
H1388 H 0.674 0.36628 0.08554 0.0
H1389 H 0.66483 0.38327 0.11199 0.0
H1390 H 0.6147 0.35076 0.10903 0.0
H1391 H 0.62399 0.33355 0.0828 0.0
C1392 C 0.62005 0.37893 0.15784 0.0
C1393 C 0.6234 0.39769 0.16023 0.0
C1394 C 0.62507 0.36947 0.14241 0.0
C1395 C 0.63357 0.37852 0.12898 0.0
C1396 C 0.63689 0.39728 0.13134 0.0
C1397 C 0.63184 0.40676 0.14677 0.0
C1398 C 0.66101 0.36277 0.09051 0.0
C1399 C 0.64976 0.34851 0.08207 0.0
C1400 C 0.65571 0.37258 0.10562 0.0
C1401 C 0.63904 0.36836 0.11265 0.0
C1402 C 0.62774 0.3542 0.10411 0.0
C1403 C 0.63303 0.34439 0.08901 0.0
H1404 H 0.96536 0.20002 0.85652 0.0
H1405 H 0.00174 0.24165 0.83895 0.0
H1406 H 0.96736 0.21499 0.88662 0.0
H1407 H 0.0032 0.25694 0.86883 0.0
H1408 H 0.02017 0.26461 0.92909 0.0
H1409 H 0.01639 0.25133 0.89842 0.0
H1410 H 0.95935 0.24208 0.90384 0.0
H1411 H 0.96316 0.25514 0.93474 0.0
C1412 C 0.9737 0.21242 0.85906 0.0
C1413 C 0.98347 0.21959 0.84537 0.0
C1414 C 0.97468 0.2211 0.87625 0.0
C1415 C 0.9855 0.23712 0.88013 0.0
C1416 C 0.99492 0.2445 0.86632 0.0
C1417 C 0.99392 0.23584 0.84914 0.0
C1418 C 0.00679 0.25981 0.92375 0.0
C1419 C 0.99197 0.26089 0.93439 0.0
C1420 C 0.00461 0.2523 0.90611 0.0
C1421 C 0.98756 0.24568 0.89868 0.0
C1422 C 0.97269 0.2469 0.90925 0.0
C1423 C 0.97487 0.25446 0.92692 0.0
H1424 H 0.357 0.80884 0.35564 0.0
H1425 H 0.35585 0.7642 0.31584 0.0
H1426 H 0.3579 0.78801 0.37947 0.0
H1427 H 0.35596 0.74331 0.33965 0.0
H1428 H 0.37894 0.71398 0.3874 0.0
H1429 H 0.37662 0.73426 0.36317 0.0
H1430 H 0.33981 0.76509 0.39282 0.0
H1431 H 0.34244 0.74506 0.41725 0.0
C1432 C 0.35686 0.79458 0.35197 0.0
C1433 C 0.35643 0.7882 0.33383 0.0
C1434 C 0.35717 0.78261 0.36563 0.0
C1435 C 0.35703 0.76398 0.36148 0.0
C1436 C 0.3563 0.75759 0.34332 0.0
C1437 C 0.35601 0.76956 0.32966 0.0
C1438 C 0.37032 0.72505 0.38874 0.0
C1439 C 0.36094 0.72794 0.4043 0.0
C1440 C 0.3689 0.73662 0.37479 0.0
C1441 C 0.35804 0.75133 0.37605 0.0
C1442 C 0.34849 0.75405 0.39152 0.0
C1443 C 0.34993 0.7425 0.40549 0.0
H1444 H 0.02701 0.58027 0.63424 0.0
H1445 H 0.99211 0.61194 0.66553 0.0
H1446 H 0.02849 0.60348 0.61266 0.0
H1447 H 0.99377 0.63515 0.6441 0.0
H1448 H 0.01314 0.68026 0.61039 0.0
H1449 H 0.01495 0.65773 0.63264 0.0
H1450 H 0.00761 0.61551 0.59013 0.0
H1451 H 0.006 0.63796 0.56788 0.0
C1452 C 0.01964 0.59216 0.63651 0.0
C1453 C 0.00942 0.59422 0.65161 0.0
C1454 C 0.02052 0.60545 0.62416 0.0
C1455 C 0.01125 0.62113 0.62668 0.0
C1456 C 0.00129 0.62335 0.64193 0.0
C1457 C 0.00036 0.61004 0.65423 0.0
C1458 C 0.01204 0.66617 0.60578 0.0
C1459 C 0.00933 0.6609 0.58737 0.0
C1460 C 0.01299 0.65328 0.61853 0.0
C1461 C 0.01135 0.63485 0.61314 0.0
C1462 C 0.0091 0.6296 0.5947 0.0
C1463 C 0.00807 0.64248 0.58196 0.0
H1464 H 0.82917 0.34779 0.60924 0.0
H1465 H 0.86101 0.38846 0.5844 0.0
H1466 H 0.85648 0.33717 0.62337 0.0
H1467 H 0.88833 0.37771 0.59844 0.0
H1468 H 0.93412 0.34146 0.61207 0.0
H1469 H 0.90676 0.35152 0.59739 0.0
H1470 H 0.88001 0.34744 0.64676 0.0
H1471 H 0.90725 0.33719 0.66139 0.0
C1472 C 0.84197 0.35455 0.60688 0.0
C1473 C 0.84286 0.36902 0.59571 0.0
C1474 C 0.85763 0.34844 0.61498 0.0
C1475 C 0.87458 0.35661 0.61205 0.0
C1476 C 0.8755 0.37097 0.60076 0.0
C1477 C 0.85983 0.37712 0.59271 0.0
C1478 C 0.9224 0.3427 0.6198 0.0
C1479 C 0.92288 0.33854 0.63792 0.0
C1480 C 0.90675 0.34855 0.6114 0.0
C1481 C 0.89121 0.35029 0.62091 0.0
C1482 C 0.89168 0.34604 0.639 0.0
C1483 C 0.90734 0.34025 0.64741 0.0
H1484 H 0.63856 0.67216 0.18632 0.0
H1485 H 0.67179 0.64919 0.22718 0.0
H1486 H 0.61253 0.66789 0.20418 0.0
H1487 H 0.64581 0.6448 0.24496 0.0
H1488 H 0.56715 0.63667 0.23016 0.0
H1489 H 0.59327 0.64317 0.21311 0.0
H1490 H 0.62463 0.66039 0.26242 0.0
H1491 H 0.5986 0.65349 0.27953 0.0
C1492 C 0.64029 0.66619 0.19911 0.0
C1493 C 0.65722 0.66099 0.20532 0.0
C1494 C 0.62539 0.66371 0.20933 0.0
C1495 C 0.62706 0.65591 0.22597 0.0
C1496 C 0.64408 0.65107 0.23234 0.0
C1497 C 0.65899 0.65359 0.22214 0.0
C1498 C 0.57961 0.64186 0.23738 0.0
C1499 C 0.5808 0.64451 0.25621 0.0
C1500 C 0.59456 0.64572 0.22758 0.0
C1501 C 0.61104 0.65234 0.23639 0.0
C1502 C 0.6122 0.6551 0.25523 0.0
C1503 C 0.59725 0.65122 0.26503 0.0
H1504 H 0.34063 0.02643 0.39043 0.0
H1505 H 0.36855 0.98589 0.41765 0.0
H1506 H 0.36174 0.02525 0.36687 0.0
H1507 H 0.39012 0.98522 0.39439 0.0
H1508 H 0.41474 0.97614 0.34018 0.0
H1509 H 0.39225 0.97611 0.36254 0.0
H1510 H 0.39315 0.03405 0.36347 0.0
H1511 H 0.41533 0.03408 0.34093 0.0
C1512 C 0.35123 0.0172 0.39135 0.0
C1513 C 0.3529 0.00624 0.40592 0.0
C1514 C 0.36345 0.01668 0.37794 0.0
C1515 C 0.37764 0.00518 0.37878 0.0
C1516 C 0.37923 0.9941 0.39327 0.0
C1517 C 0.36701 0.99464 0.4067 0.0
C1518 C 0.41007 0.98886 0.34509 0.0
C1519 C 0.41684 0.00511 0.33878 0.0
C1520 C 0.39727 0.98884 0.35799 0.0
C1521 C 0.39094 0.00508 0.36481 0.0
C1522 C 0.39758 0.0213 0.35833 0.0
C1523 C 0.41037 0.02132 0.34548 0.0
H1524 H 0.15155 0.04629 0.75864 0.0
H1525 H 0.16416 0.99406 0.73668 0.0
H1526 H 0.12186 0.0424 0.74273 0.0
H1527 H 0.13449 0.99003 0.72102 0.0
H1528 H 0.08457 0.99244 0.68448 0.0
H1529 H 0.11515 -0.00015 0.69728 0.0
H1530 H 0.0942 0.02469 0.74472 0.0
H1531 H 0.06369 0.01776 0.73172 0.0
C1532 C 0.14797 0.03399 0.7504 0.0
C1533 C 0.16018 0.02047 0.74893 0.0
C1534 C 0.13096 0.03174 0.74131 0.0
C1535 C 0.12573 0.01587 0.73064 0.0
C1536 C 0.13814 0.00255 0.72887 0.0
C1537 C 0.15516 0.00484 0.73787 0.0
C1538 C 0.0865 0.99963 0.69758 0.0
C1539 C 0.07168 0.0044 0.70713 0.0
C1540 C 0.10404 0.00379 0.70496 0.0
C1541 C 0.10717 0.01277 0.72209 0.0
C1542 C 0.09233 0.01798 0.73141 0.0
C1543 C 0.0748 0.01388 0.72399 0.0
H1544 H 0.62955 0.8267 0.39654 0.0
H1545 H 0.58143 0.84408 0.36955 0.0
H1546 H 0.64645 0.85357 0.3881 0.0
H1547 H 0.59818 0.87119 0.36163 0.0
H1548 H 0.63801 0.90652 0.33307 0.0
H1549 H 0.62161 0.87954 0.34172 0.0
H1550 H 0.64903 0.88628 0.39458 0.0
H1551 H 0.66568 0.91317 0.38586 0.0
C1552 C 0.62258 0.83626 0.38882 0.0
C1553 C 0.60415 0.83323 0.38369 0.0
C1554 C 0.63222 0.85174 0.38414 0.0
C1555 C 0.62367 0.8645 0.37416 0.0
C1556 C 0.60522 0.86152 0.36914 0.0
C1557 C 0.59557 0.84608 0.37386 0.0
C1558 C 0.64058 0.90225 0.34654 0.0
C1559 C 0.65315 0.91203 0.35878 0.0
C1560 C 0.63109 0.88684 0.35152 0.0
C1561 C 0.63395 0.8808 0.36886 0.0
C1562 C 0.64664 0.89048 0.38106 0.0
C1563 C 0.65611 0.90594 0.37609 0.0
H1564 H 0.75664 0.15245 0.03 0.0
H1565 H 0.73434 0.17034 0.97995 0.0
H1566 H 0.73996 0.12339 0.02375 0.0
H1567 H 0.71768 0.14127 0.97367 0.0
H1568 H 0.67882 0.09169 0.9753 0.0
H1569 H 0.69332 0.12153 0.98341 0.0
H1570 H 0.74129 0.09735 0.00276 0.0
H1571 H 0.72674 0.06759 0.99497 0.0
C1572 C 0.74817 0.15017 0.01766 0.0
C1573 C 0.7469 0.16367 0.00542 0.0
C1574 C 0.73863 0.13352 0.01407 0.0
C1575 C 0.7276 0.12996 0.99815 0.0
C1576 C 0.72591 0.14364 0.98616 0.0
C1577 C 0.73545 0.16031 0.98976 0.0
C1578 C 0.69244 0.09274 0.98135 0.0
C1579 C 0.70163 0.07725 0.98447 0.0
C1580 C 0.70077 0.10985 0.98592 0.0
C1581 C 0.71845 0.11183 0.99375 0.0
C1582 C 0.72757 0.09631 0.99699 0.0
C1583 C 0.71926 0.07923 0.99241 0.0
H1584 H 0.22265 0.66649 0.68301 0.0
H1585 H 0.20911 0.65441 0.62629 0.0
H1586 H 0.24231 0.64153 0.68315 0.0
H1587 H 0.2282 0.62916 0.62657 0.0
H1588 H 0.27657 0.59575 0.62873 0.0
H1589 H 0.25973 0.62267 0.6297 0.0
H1590 H 0.23945 0.60861 0.68027 0.0
H1591 H 0.25656 0.58185 0.6795 0.0
C1592 C 0.22392 0.65855 0.67057 0.0
C1593 C 0.21427 0.66238 0.65465 0.0
C1594 C 0.23505 0.64416 0.67069 0.0
C1595 C 0.23682 0.63336 0.65488 0.0
C1596 C 0.2273 0.63733 0.63894 0.0
C1597 C 0.21617 0.65167 0.63883 0.0
C1598 C 0.26863 0.59846 0.64013 0.0
C1599 C 0.26782 0.58659 0.65398 0.0
C1600 C 0.2589 0.61384 0.64063 0.0
C1601 C 0.24814 0.61771 0.65499 0.0
C1602 C 0.24774 0.60611 0.6691 0.0
C1603 C 0.25747 0.59071 0.6686 0.0
H1604 H 0.39109 0.33969 0.0213 0.0
H1605 H 0.42217 0.37012 0.98527 0.0
H1606 H 0.36749 0.36063 0.0189 0.0
H1607 H 0.39881 0.39153 0.98345 0.0
H1608 H 0.34494 0.41592 0.97056 0.0
H1609 H 0.36778 0.39394 0.9716 0.0
H1610 H 0.36299 0.39146 0.02876 0.0
H1611 H 0.33997 0.41311 0.02769 0.0
C1612 C 0.39285 0.35081 0.01279 0.0
C1613 C 0.40851 0.35321 0.00345 0.0
C1614 C 0.37941 0.36293 0.01159 0.0
C1615 C 0.3813 0.37779 0.00104 0.0
C1616 C 0.39688 0.38013 0.99156 0.0
C1617 C 0.41035 0.36798 0.99277 0.0
C1618 C 0.34872 0.41064 0.98333 0.0
C1619 C 0.34063 0.41627 0.99904 0.0
C1620 C 0.36189 0.39812 0.98394 0.0
C1621 C 0.3672 0.39096 0.00026 0.0
C1622 C 0.35903 0.39653 0.01593 0.0
C1623 C 0.34589 0.40903 0.01533 0.0
H1624 H 0.38001 0.63457 0.83134 0.0
H1625 H 0.36485 0.58426 0.85365 0.0
H1626 H 0.37001 0.65094 0.8578 0.0
H1627 H 0.35494 0.60062 0.8801 0.0
H1628 H 0.3574 0.6355 0.93285 0.0
H1629 H 0.36755 0.61956 0.90627 0.0
H1630 H 0.34242 0.65711 0.87259 0.0
H1631 H 0.33248 0.67326 0.89921 0.0
C1632 C 0.3744 0.627 0.84181 0.0
C1633 C 0.37327 0.60809 0.84037 0.0
C1634 C 0.36868 0.63638 0.85698 0.0
C1635 C 0.36171 0.62709 0.87108 0.0
C1636 C 0.36052 0.60819 0.86962 0.0
C1637 C 0.36621 0.59881 0.85445 0.0
C1638 C 0.35406 0.64039 0.91978 0.0
C1639 C 0.34411 0.65565 0.91817 0.0
C1640 C 0.35978 0.63118 0.90453 0.0
C1641 C 0.35575 0.63703 0.8873 0.0
C1642 C 0.34591 0.65237 0.88569 0.0
C1643 C 0.34013 0.66156 0.90094 0.0
H1644 H 0.99762 0.77077 0.14914 0.0
H1645 H 0.03786 0.7354 0.16671 0.0
H1646 H 0.99425 0.7543 0.11985 0.0
H1647 H 0.03418 0.71857 0.13736 0.0
H1648 H 0.03581 0.70809 0.07502 0.0
H1649 H 0.03992 0.72299 0.1052 0.0
H1650 H 0.98235 0.7244 0.10718 0.0
H1651 H 0.9782 0.70973 0.07707 0.0
C1652 C 0.00582 0.75951 0.14671 0.0
C1653 C 0.01808 0.75444 0.16021 0.0
C1654 C 0.00373 0.74994 0.12999 0.0
C1655 C 0.01388 0.73508 0.12633 0.0
C1656 C 0.02624 0.73003 0.13977 0.0
C1657 C 0.02825 0.73956 0.15659 0.0
C1658 C 0.02403 0.71148 0.08194 0.0
C1659 C 0.00668 0.70784 0.07357 0.0
C1660 C 0.0264 0.71994 0.09926 0.0
C1661 C 0.01147 0.72499 0.10849 0.0
C1662 C 0.99413 0.72093 0.10029 0.0
C1663 C 0.99176 0.71244 0.08305 0.0
H1664 H 0.65338 0.22854 0.67242 0.0
H1665 H 0.67511 0.18447 0.6425 0.0
H1666 H 0.65235 0.24552 0.64554 0.0
H1667 H 0.67351 0.20118 0.6155 0.0
H1668 H 0.68196 0.2416 0.57343 0.0
H1669 H 0.68633 0.22752 0.60185 0.0
H1670 H 0.63441 0.24346 0.61692 0.0
H1671 H 0.63015 0.25779 0.58868 0.0
C1672 C 0.65812 0.22256 0.66016 0.0
C1673 C 0.66427 0.20513 0.65958 0.0
C1674 C 0.65734 0.2322 0.64471 0.0
C1675 C 0.66274 0.22466 0.62835 0.0
C1676 C 0.66938 0.20744 0.62791 0.0
C1677 C 0.67012 0.19779 0.64334 0.0
C1678 C 0.67153 0.24222 0.58286 0.0
C1679 C 0.65567 0.25075 0.57875 0.0
C1680 C 0.67401 0.23407 0.59911 0.0
C1681 C 0.66069 0.23431 0.61161 0.0
C1682 C 0.64502 0.24322 0.60767 0.0
C1683 C 0.64253 0.25133 0.59142 0.0
H1684 H 0.02833 0.39825 0.34507 0.0
H1685 H 0.9791 0.42349 0.35517 0.0
H1686 H 0.02151 0.37639 0.36708 0.0
H1687 H 0.97258 0.40201 0.37756 0.0
H1688 H 0.95781 0.35077 0.40439 0.0
H1689 H 0.96438 0.36996 0.38003 0.0
H1690 H 0.02014 0.37639 0.39983 0.0
H1691 H 0.01367 0.35702 0.42401 0.0
C1692 C 0.01602 0.39908 0.35193 0.0
C1693 C 0.00428 0.41263 0.34842 0.0
C1694 C 0.0122 0.38666 0.36464 0.0
C1695 C 0.99652 0.38748 0.37406 0.0
C1696 C 0.98467 0.4009 0.37039 0.0
C1697 C 0.98852 0.41334 0.35773 0.0
C1698 C 0.9715 0.35615 0.40346 0.0
C1699 C 0.98519 0.35245 0.41621 0.0
C1700 C 0.97524 0.36723 0.38957 0.0
C1701 C 0.99275 0.37478 0.38808 0.0
C1702 C 0.00654 0.37065 0.40052 0.0
C1703 C 0.0028 0.35962 0.41444 0.0
H1704 H 0.31493 0.56946 0.52578 0.0
H1705 H 0.25939 0.54876 0.51993 0.0
H1706 H 0.31937 0.55352 0.55299 0.0
H1707 H 0.26399 0.53253 0.54706 0.0
H1708 H 0.28625 0.49086 0.58485 0.0
H1709 H 0.2811 0.50701 0.55765 0.0
H1710 H 0.30964 0.55444 0.58405 0.0
H1711 H 0.31517 0.53815 0.61096 0.0
C1712 C 0.3036 0.56167 0.53038 0.0
C1713 C 0.28676 0.56049 0.52067 0.0
C1714 C 0.30617 0.55249 0.54597 0.0
C1715 C 0.29202 0.5418 0.55219 0.0
C1716 C 0.27521 0.54051 0.54248 0.0
C1717 C 0.27259 0.54979 0.52692 0.0
C1718 C 0.29137 0.50475 0.5848 0.0
C1719 C 0.30077 0.51339 0.60013 0.0
C1720 C 0.28832 0.51402 0.5693 0.0
C1721 C 0.29487 0.53203 0.56875 0.0
C1722 C 0.30445 0.54057 0.58405 0.0
C1723 C 0.30737 0.53134 0.59956 0.0
H1724 H 0.20881 0.4157 0.91851 0.0
H1725 H 0.25959 0.39146 0.92599 0.0
H1726 H 0.21776 0.43751 0.94367 0.0
H1727 H 0.26838 0.41308 0.95119 0.0
H1728 H 0.2711 0.44401 0.00603 0.0
H1729 H 0.26063 0.42154 0.98199 0.0
H1730 H 0.23987 0.46328 0.95064 0.0
H1731 H 0.25066 0.48581 0.97464 0.0
C1732 C 0.22188 0.41503 0.92549 0.0
C1733 C 0.23347 0.40181 0.92021 0.0
C1734 C 0.227 0.42752 0.93991 0.0
C1735 C 0.24378 0.42703 0.94942 0.0
C1736 C 0.25525 0.41365 0.94432 0.0
C1737 C 0.25017 0.40122 0.92988 0.0
C1738 C 0.26469 0.44844 0.99385 0.0
C1739 C 0.26224 0.46673 0.99197 0.0
C1740 C 0.25852 0.43555 0.98015 0.0
C1741 C 0.24958 0.44064 0.96433 0.0
C1742 C 0.24661 0.4589 0.96271 0.0
C1743 C 0.25284 0.4718 0.97641 0.0
H1744 H 0.7484 0.97138 0.43104 0.0
H1745 H 0.70038 0.99485 0.44848 0.0
H1746 H 0.73767 0.97359 0.39976 0.0
H1747 H 0.69004 0.99753 0.41724 0.0
H1748 H 0.69225 0.02068 0.36094 0.0
H1749 H 0.70112 0.01607 0.39226 0.0
H1750 H 0.71196 0.96123 0.37723 0.0
H1751 H 0.70323 0.96592 0.3458 0.0
C1752 C 0.73549 0.97683 0.42825 0.0
C1753 C 0.72533 0.98306 0.44234 0.0
C1754 C 0.72938 0.97812 0.41032 0.0
C1755 C 0.71307 0.9858 0.40611 0.0
C1756 C 0.70278 0.99177 0.42013 0.0
C1757 C 0.70878 0.99031 0.43803 0.0
C1758 C 0.6964 0.00761 0.36436 0.0
C1759 C 0.69677 0.99357 0.35102 0.0
C1760 C 0.70138 0.00494 0.38228 0.0
C1761 C 0.70713 0.98827 0.38717 0.0
C1762 C 0.70758 0.97422 0.37381 0.0
C1763 C 0.70236 0.97683 0.35589 0.0
H1764 H 0.67614 0.00241 0.09466 0.0
H1765 H 0.73279 0.00386 0.08555 0.0
H1766 H 0.66882 0.99703 0.06254 0.0
H1767 H 0.72542 0.99753 0.05341 0.0
H1768 H 0.70586 0.00201 0.99482 0.0
H1769 H 0.713 0.01015 0.02672 0.0
H1770 H 0.6699 0.97294 0.03992 0.0
H1771 H 0.66218 0.96564 0.00804 0.0
C1772 C 0.68705 0.0017 0.0858 0.0
C1773 C 0.70507 0.00359 0.09271 0.0
C1774 C 0.68284 0.99836 0.06738 0.0
C1775 C 0.69652 0.99672 0.05539 0.0
C1776 C 0.71455 0.99886 0.06225 0.0
C1777 C 0.71877 0.00227 0.0807 0.0
C1778 C 0.69756 0.99603 0.00451 0.0
C1779 C 0.68309 0.98364 0.99891 0.0
C1780 C 0.70189 0.0004 0.02282 0.0
C1781 C 0.69193 0.99231 0.0359 0.0
C1782 C 0.67762 0.97971 0.03023 0.0
C1783 C 0.67328 0.97541 0.01196 0.0
H1784 H 0.51578 0.30815 0.55046 0.0
H1785 H 0.51898 0.25089 0.55398 0.0
H1786 H 0.54351 0.30946 0.53503 0.0
H1787 H 0.54613 0.25202 0.53755 0.0
H1788 H 0.60363 0.26218 0.52281 0.0
H1789 H 0.57709 0.26185 0.54011 0.0
H1790 H 0.55459 0.30118 0.50669 0.0
H1791 H 0.58177 0.30237 0.49022 0.0
C1792 C 0.52241 0.29583 0.548 0.0
C1793 C 0.51511 0.27941 0.55352 0.0
C1794 C 0.5382 0.29654 0.5389 0.0
C1795 C 0.54707 0.28084 0.53495 0.0
C1796 C 0.53981 0.26443 0.54053 0.0
C1797 C 0.52407 0.26373 0.54974 0.0
C1798 C 0.59334 0.27123 0.51958 0.0
C1799 C 0.59511 0.28278 0.50557 0.0
C1800 C 0.57788 0.27073 0.52923 0.0
C1801 C 0.56368 0.28156 0.5249 0.0
C1802 C 0.56538 0.29292 0.51067 0.0
C1803 C 0.58089 0.2935 0.50112 0.0
H1804 H 0.09699 0.71032 0.96286 0.0
H1805 H 0.09668 0.70983 0.0206 0.0
H1806 H 0.06438 0.70566 0.96028 0.0
H1807 H 0.0639 0.70562 0.01815 0.0
H1808 H 0.0084 0.6755 0.00398 0.0
H1809 H 0.0406 0.68322 0.00855 0.0
H1810 H 0.03716 0.71911 0.96538 0.0
H1811 H 0.005 0.71099 0.96063 0.0
C1812 C 0.08989 0.70952 0.97503 0.0
C1813 C 0.09937 0.71043 0.99192 0.0
C1814 C 0.07117 0.70691 0.97358 0.0
C1815 C 0.06144 0.70531 0.98901 0.0
C1816 C 0.07095 0.70652 0.00596 0.0
C1817 C 0.08972 0.70897 0.00739 0.0
C1818 C 0.01446 0.68538 0.9958 0.0
C1819 C 0.00418 0.69283 0.98211 0.0
C1820 C 0.03295 0.68978 0.99836 0.0
C1821 C 0.04155 0.70175 0.98729 0.0
C1822 C 0.03108 0.70959 0.97394 0.0
C1823 C 0.01264 0.70505 0.97128 0.0
H1824 H 0.91722 0.26622 0.39457 0.0
H1825 H 0.90265 0.22373 0.42876 0.0
H1826 H 0.9367 0.2811 0.41911 0.0
H1827 H 0.92185 0.23895 0.45343 0.0
H1828 H 0.93564 0.28617 0.49693 0.0
H1829 H 0.91992 0.26767 0.4721 0.0
H1830 H 0.96456 0.27778 0.43923 0.0
H1831 H 0.98058 0.2958 0.46431 0.0
C1832 C 0.91842 0.25984 0.40718 0.0
C1833 C 0.90823 0.2438 0.40969 0.0
C1834 C 0.92957 0.26842 0.42127 0.0
C1835 C 0.93068 0.26126 0.43822 0.0
C1836 C 0.92103 0.24492 0.44058 0.0
C1837 C 0.91 0.23624 0.42645 0.0
C1838 C 0.94219 0.28432 0.48447 0.0
C1839 C 0.95912 0.29297 0.4824 0.0
C1840 C 0.9332 0.27367 0.47026 0.0
C1841 C 0.94094 0.27142 0.45366 0.0
C1842 C 0.95812 0.27958 0.45176 0.0
C1843 C 0.9672 0.29011 0.46605 0.0
H1844 H 0.43082 0.71503 0.95786 0.0
H1845 H 0.43607 0.73658 0.01304 0.0
H1846 H 0.39869 0.70831 0.96036 0.0
H1847 H 0.40395 0.73044 0.01546 0.0
H1848 H 0.349 0.70364 0.02021 0.0
H1849 H 0.38131 0.70723 0.01706 0.0
H1850 H 0.37126 0.72254 0.96263 0.0
H1851 H 0.339 0.71848 0.96577 0.0
C1852 C 0.42504 0.71844 0.97048 0.0
C1853 C 0.43593 0.72629 0.98527 0.0
C1854 C 0.40663 0.71465 0.97192 0.0
C1855 C 0.39866 0.71879 0.98813 0.0
C1856 C 0.40963 0.72669 0.00289 0.0
C1857 C 0.42804 0.7303 0.00149 0.0
C1858 C 0.35376 0.70758 0.00753 0.0
C1859 C 0.34153 0.71049 0.99314 0.0
C1860 C 0.37227 0.70977 0.00574 0.0
C1861 C 0.37897 0.71526 0.9896 0.0
C1862 C 0.36665 0.71797 0.97513 0.0
C1863 C 0.34813 0.71558 0.97688 0.0
H1864 H 0.57479 0.53076 0.27619 0.0
H1865 H 0.53295 0.50484 0.30478 0.0
H1866 H 0.56137 0.55952 0.28109 0.0
H1867 H 0.51996 0.53361 0.31025 0.0
H1868 H 0.4916 0.585 0.3035 0.0
H1869 H 0.50411 0.55639 0.29539 0.0
H1870 H 0.5578 0.58127 0.30619 0.0
H1871 H 0.54526 0.60976 0.31435 0.0
C1872 C 0.56267 0.53118 0.2834 0.0
C1873 C 0.55499 0.51552 0.29015 0.0
C1874 C 0.55509 0.54769 0.28639 0.0
C1875 C 0.53962 0.5489 0.29612 0.0
C1876 C 0.53176 0.53316 0.30254 0.0
C1877 C 0.53934 0.51669 0.29959 0.0
C1878 C 0.50608 0.58435 0.30402 0.0
C1879 C 0.51745 0.59973 0.30917 0.0
C1880 C 0.51325 0.56796 0.29944 0.0
C1881 C 0.53197 0.56654 0.30006 0.0
C1882 C 0.54333 0.58198 0.30516 0.0
C1883 C 0.53615 0.59837 0.30973 0.0
H1884 H 0.96432 0.08754 0.7117 0.0
H1885 H 0.02121 0.09031 0.70399 0.0
H1886 H 0.9629 0.05508 0.7058 0.0
H1887 H 0.01999 0.05765 0.69855 0.0
H1888 H 0.00499 0.00292 0.6672 0.0
H1889 H 0.0089 0.0349 0.67619 0.0
H1890 H 0.971 0.02761 0.71704 0.0
H1891 H 0.96685 0.99567 0.70766 0.0
C1892 C 0.97659 0.08113 0.70904 0.0
C1893 C 0.99286 0.09144 0.70828 0.0
C1894 C 0.97582 0.06249 0.70572 0.0
C1895 C 0.99135 0.05367 0.70173 0.0
C1896 C 0.00772 0.064 0.7013 0.0
C1897 C 0.00844 0.08269 0.70446 0.0
C1898 C 0.99787 0.00809 0.67841 0.0
C1899 C 0.9858 0.99681 0.6869 0.0
C1900 C 6e-05 0.02645 0.68354 0.0
C1901 C 0.99022 0.0339 0.69732 0.0
C1902 C 0.97854 0.02242 0.70616 0.0
C1903 C 0.97624 0.00411 0.70089 0.0
H1904 H 0.39553 0.93294 0.26189 0.0
H1905 H 0.42662 0.91902 0.21676 0.0
H1906 H 0.41701 0.95827 0.2709 0.0
H1907 H 0.44811 0.94439 0.22576 0.0
H1908 H 0.49305 0.97804 0.26014 0.0
H1909 H 0.47105 0.95351 0.24961 0.0
H1910 H 0.42795 0.98741 0.26172 0.0
H1911 H 0.44997 0.01189 0.27211 0.0
C1912 C 0.40681 0.93544 0.25374 0.0
C1913 C 0.40937 0.92393 0.23862 0.0
C1914 C 0.41914 0.94996 0.25891 0.0
C1915 C 0.43431 0.95334 0.24908 0.0
C1916 C 0.43673 0.94199 0.2338 0.0
C1917 C 0.4244 0.92746 0.22864 0.0
C1918 C 0.47887 0.98023 0.26049 0.0
C1919 C 0.47322 0.9967 0.26743 0.0
C1920 C 0.46626 0.96622 0.2544 0.0
C1921 C 0.44772 0.96844 0.25497 0.0
C1922 C 0.44212 0.98511 0.26149 0.0
C1923 C 0.45473 0.9991 0.26759 0.0
H1924 H 0.96384 0.43 0.71245 0.0
H1925 H 0.01684 0.43248 0.7394 0.0
H1926 H 0.96677 0.39857 0.70269 0.0
H1927 H 0.01965 0.401 0.73018 0.0
H1928 H 0.02708 0.34964 0.69746 0.0
H1929 H 0.02362 0.38142 0.7049 0.0
H1930 H 0.96753 0.36929 0.71345 0.0
H1931 H 0.97103 0.33759 0.70556 0.0
C1932 C 0.97604 0.42374 0.71642 0.0
C1933 C 0.99014 0.43367 0.72663 0.0
C1934 C 0.97773 0.40573 0.71087 0.0
C1935 C 0.99348 0.39721 0.71557 0.0
C1936 C 0.00749 0.40718 0.72595 0.0
C1937 C 0.00587 0.42521 0.73132 0.0
C1938 C 0.01399 0.35385 0.70077 0.0
C1939 C 0.99926 0.34123 0.70065 0.0
C1940 C 0.01201 0.37203 0.70516 0.0
C1941 C 0.9953 0.37798 0.70987 0.0
C1942 C 0.98051 0.36529 0.70958 0.0
C1943 C 0.98247 0.34711 0.70498 0.0
H1944 H 0.70127 0.46669 0.49564 0.0
H1945 H 0.72493 0.42135 0.46982 0.0
H1946 H 0.69657 0.4795 0.46665 0.0
H1947 H 0.72017 0.43417 0.44074 0.0
H1948 H 0.72419 0.47238 0.39459 0.0
H1949 H 0.72997 0.45937 0.4234 0.0
H1950 H 0.67767 0.47344 0.43916 0.0
H1951 H 0.6719 0.48632 0.41034 0.0
C1952 C 0.70538 0.45941 0.48375 0.0
C1953 C 0.71337 0.44294 0.48503 0.0
C1954 C 0.70267 0.46674 0.46712 0.0
C1955 C 0.70785 0.4578 0.45134 0.0
C1956 C 0.71618 0.4415 0.45265 0.0
C1957 C 0.71891 0.43415 0.46932 0.0
C1958 C 0.71376 0.47228 0.40401 0.0
C1959 C 0.69742 0.48 0.40002 0.0
C1960 C 0.71713 0.46496 0.4206 0.0
C1961 C 0.70428 0.46534 0.43359 0.0
C1962 C 0.68797 0.47313 0.42957 0.0
C1963 C 0.68462 0.48044 0.41302 0.0
H1964 H 0.77366 0.62451 0.05996 0.0
H1965 H 0.74324 0.59088 0.09378 0.0
H1966 H 0.76752 0.60196 0.03484 0.0
H1967 H 0.73734 0.56827 0.0689 0.0
H1968 H 0.71543 0.53852 0.01712 0.0
H1969 H 0.72067 0.56264 0.04061 0.0
H1970 H 0.77503 0.57215 0.02496 0.0
H1971 H 0.7693 0.54872 0.00066 0.0
C1972 C 0.76576 0.61225 0.06204 0.0
C1973 C 0.75885 0.6095 0.0788 0.0
C1974 C 0.76226 0.59931 0.04768 0.0
C1975 C 0.75187 0.58331 0.04982 0.0
C1976 C 0.74506 0.58058 0.06664 0.0
C1977 C 0.74847 0.59353 0.08093 0.0
C1978 C 0.72827 0.54617 0.01826 0.0
C1979 C 0.74175 0.5421 0.00667 0.0
C1980 C 0.73143 0.55975 0.03202 0.0
C1981 C 0.74828 0.56938 0.03469 0.0
C1982 C 0.76181 0.56522 0.02312 0.0
C1983 C 0.75859 0.55169 0.00929 0.0
H1984 H 0.25082 0.99164 0.56647 0.0
H1985 H 0.29063 0.03618 0.5671 0.0
H1986 H 0.25868 0.98813 0.59813 0.0
H1987 H 0.29837 0.03287 0.59891 0.0
H1988 H 0.32024 0.00822 0.6503 0.0
H1989 H 0.31259 0.01287 0.61877 0.0
H1990 H 0.25626 0.0026 0.6273 0.0
H1991 H 0.264 0.99779 0.65875 0.0
C1992 C 0.26113 0.00081 0.57344 0.0
C1993 C 0.27008 0.0142 0.5643 0.0
C1994 C 0.26562 0.99883 0.59161 0.0
C1995 C 0.27911 0.01027 0.60111 0.0
C1996 C 0.28808 0.02367 0.59195 0.0
C1997 C 0.28364 0.02559 0.57373 0.0
C1998 C 0.30621 0.00738 0.64552 0.0
C1999 C 0.29268 0.00298 0.65704 0.0
C2000 C 0.30182 0.00994 0.62742 0.0
C2001 C 0.2838 0.00812 0.62048 0.0
C2002 C 0.27029 0.00385 0.63211 0.0
C2003 C 0.2747 0.00119 0.65015 0.0
H2004 H 0.26632 0.02944 0.89514 0.0
H2005 H 0.30966 0.99387 0.89211 0.0
H2006 H 0.26983 0.03059 0.92789 0.0
H2007 H 0.31373 0.99568 0.92475 0.0
H2008 H 0.30955 0.99179 0.98407 0.0
H2009 H 0.30093 0.98751 0.95202 0.0
H2010 H 0.29157 0.04397 0.95087 0.0
H2011 H 0.2992 0.04795 0.98312 0.0
C2012 C 0.27649 0.02174 0.90145 0.0
C2013 C 0.2878 0.01168 0.891 0.0
C2014 C 0.27863 0.02256 0.92023 0.0
C2015 C 0.29214 0.01333 0.92897 0.0
C2016 C 0.30308 0.00283 0.9185 0.0
C2017 C 0.30091 0.00198 0.89976 0.0
C2018 C 0.30499 0.00311 0.97713 0.0
C2019 C 0.3046 0.0201 0.98621 0.0
C2020 C 0.3004 0.00076 0.95866 0.0
C2021 C 0.29552 0.01539 0.94884 0.0
C2022 C 0.29495 0.03233 0.95803 0.0
C2023 C 0.29948 0.03466 0.97649 0.0
H2024 H 0.48319 0.72348 0.45516 0.0
H2025 H 0.46516 0.68196 0.41401 0.0
H2026 H 0.45469 0.7193 0.46917 0.0
H2027 H 0.43702 0.67728 0.4284 0.0
H2028 H 0.3821 0.68325 0.44962 0.0
H2029 H 0.40938 0.69072 0.43461 0.0
H2030 H 0.43962 0.69684 0.4861 0.0
H2031 H 0.41207 0.69027 0.50111 0.0
C2032 C 0.4731 0.71356 0.44902 0.0
C2033 C 0.47649 0.703 0.43351 0.0
C2034 C 0.45685 0.71102 0.45717 0.0
C2035 C 0.4436 0.69788 0.44998 0.0
C2036 C 0.44684 0.68762 0.43422 0.0
C2037 C 0.46307 0.69016 0.42609 0.0
C2038 C 0.39445 0.68677 0.45775 0.0
C2039 C 0.39485 0.6867 0.47656 0.0
C2040 C 0.41017 0.69071 0.44913 0.0
C2041 C 0.4267 0.69448 0.45915 0.0
C2042 C 0.42708 0.69433 0.47799 0.0
C2043 C 0.41134 0.69041 0.48659 0.0
H2044 H 0.89716 0.25897 0.02891 0.0
H2045 H 0.89899 0.30709 0.99966 0.0
H2046 H 0.92992 0.25943 0.03025 0.0
H2047 H 0.93167 0.30804 0.00172 0.0
H2048 H 0.99009 0.29945 0.99715 0.0
H2049 H 0.95766 0.29387 0.99188 0.0
H2050 H 0.95444 0.27758 0.04618 0.0
H2051 H 0.98701 0.2822 0.05104 0.0
C2052 C 0.90453 0.26954 0.02262 0.0
C2053 C 0.89546 0.28307 0.01431 0.0
C2054 C 0.92332 0.26992 0.02355 0.0
C2055 C 0.93344 0.28384 0.0162 0.0
C2056 C 0.92432 0.29703 0.00738 0.0
C2057 C 0.90557 0.29662 0.00642 0.0
C2058 C 0.98257 0.29401 0.00771 0.0
C2059 C 0.99117 0.29083 0.02436 0.0
C2060 C 0.9639 0.29116 0.00483 0.0
C2061 C 0.95341 0.28527 0.0186 0.0
C2062 C 0.9621 0.28183 0.03517 0.0
C2063 C 0.98075 0.28463 0.03802 0.0
H2064 H 0.06556 0.77357 0.61319 0.0
H2065 H 0.10115 0.74265 0.58209 0.0
H2066 H 0.04092 0.76512 0.59057 0.0
H2067 H 0.07668 0.73435 0.55948 0.0
H2068 H 0.02511 0.70628 0.53358 0.0
H2069 H 0.04914 0.7156 0.55633 0.0
H2070 H 0.03048 0.76926 0.55953 0.0
H2071 H 0.00575 0.75955 0.53737 0.0
C2072 C 0.06815 0.76513 0.60144 0.0
C2073 C 0.08524 0.75863 0.59951 0.0
C2074 C 0.05406 0.7603 0.58847 0.0
C2075 C 0.05679 0.74894 0.57329 0.0
C2076 C 0.074 0.7428 0.5712 0.0
C2077 C 0.08804 0.74756 0.58416 0.0
C2078 C 0.02581 0.71991 0.5395 0.0
C2079 C 0.01322 0.73203 0.5341 0.0
C2080 C 0.03983 0.72538 0.55227 0.0
C2081 C 0.04173 0.74319 0.55979 0.0
C2082 C 0.02925 0.75539 0.5542 0.0
C2083 C 0.01518 0.74988 0.54142 0.0
H2084 H 0.57542 0.25031 0.03963 0.0
H2085 H 0.56262 0.2933 0.00584 0.0
H2086 H 0.60741 0.2576 0.03695 0.0
H2087 H 0.59458 0.30071 0.00342 0.0
H2088 H 0.65366 0.319 0.01581 0.0
H2089 H 0.62214 0.31259 0.02163 0.0
H2090 H 0.62861 0.25573 0.01268 0.0
H2091 H 0.66022 0.26216 0.00736 0.0
C2092 C 0.57941 0.26127 0.03159 0.0
C2093 C 0.56642 0.27117 0.0229 0.0
C2094 C 0.59773 0.26547 0.0301 0.0
C2095 C 0.6035 0.27972 0.01998 0.0
C2096 C 0.59056 0.28982 0.01154 0.0
C2097 C 0.57223 0.28557 0.01294 0.0
C2098 C 0.64847 0.30514 0.01559 0.0
C2099 C 0.65946 0.29106 0.01151 0.0
C2100 C 0.63036 0.30147 0.01863 0.0
C2101 C 0.62291 0.28365 0.01766 0.0
C2102 C 0.63401 0.26958 0.01377 0.0
C2103 C 0.65206 0.27326 0.01061 0.0
H2104 H 0.46272 0.49326 0.74833 0.0
H2105 H 0.43178 0.47084 0.70049 0.0
H2106 H 0.4797 0.46642 0.74874 0.0
H2107 H 0.44924 0.44435 0.70049 0.0
H2108 H 0.47288 0.392 0.7149 0.0
H2109 H 0.45455 0.41789 0.71659 0.0
H2110 H 0.50228 0.45262 0.73143 0.0
H2111 H 0.52045 0.42656 0.73054 0.0
C2112 C 0.45946 0.48256 0.73796 0.0
C2113 C 0.44592 0.48423 0.72434 0.0
C2114 C 0.46934 0.46727 0.73808 0.0
C2115 C 0.46591 0.45327 0.72459 0.0
C2116 C 0.45214 0.4548 0.71117 0.0
C2117 C 0.44227 0.47009 0.71105 0.0
C2118 C 0.47937 0.40508 0.71902 0.0
C2119 C 0.49802 0.40718 0.72307 0.0
C2120 C 0.46892 0.41998 0.71966 0.0
C2121 C 0.47692 0.43733 0.72427 0.0
C2122 C 0.49563 0.43942 0.72816 0.0
C2123 C 0.50606 0.42452 0.7275 0.0
H2124 H 0.02347 0.89435 0.27174 0.0
H2125 H 0.99284 0.88867 0.31853 0.0
H2126 H 0.02434 0.927 0.27685 0.0
H2127 H 0.99395 0.92126 0.32373 0.0
H2128 H 0.02238 0.97731 0.33972 0.0
H2129 H 0.01811 0.94487 0.33318 0.0
H2130 H 0.00497 0.9531 0.27728 0.0
H2131 H 0.0097 0.9856 0.28379 0.0
C2132 C 0.01671 0.90005 0.28296 0.0
C2133 C 0.00823 0.88888 0.29482 0.0
C2134 C 0.01722 0.91876 0.28588 0.0
C2135 C 0.00932 0.92668 0.30076 0.0
C2136 C 0.00042 0.91553 0.31232 0.0
C2137 C 0.99983 0.89686 0.30936 0.0
C2138 C 0.01843 0.97218 0.32607 0.0
C2139 C 0.01603 0.98397 0.31233 0.0
C2140 C 0.01587 0.95362 0.32234 0.0
C2141 C 0.01109 0.94644 0.30473 0.0
C2142 C 0.00866 0.95825 0.29097 0.0
C2143 C 0.01108 0.97686 0.29474 0.0
H2144 H 0.60643 0.08388 0.73013 0.0
H2145 H 0.59753 0.07564 0.78575 0.0
H2146 H 0.58357 0.0601 0.72066 0.0
H2147 H 0.57377 0.0526 0.77622 0.0
H2148 H 0.54338 0.00034 0.75279 0.0
H2149 H 0.56769 0.02282 0.7628 0.0
H2150 H 0.55178 0.05518 0.71923 0.0
H2151 H 0.52778 0.03258 0.70919 0.0
C2152 C 0.59969 0.07693 0.74038 0.0
C2153 C 0.60389 0.08172 0.75874 0.0
C2154 C 0.58633 0.06346 0.73492 0.0
C2155 C 0.57666 0.05452 0.74765 0.0
C2156 C 0.58102 0.05909 0.76603 0.0
C2157 C 0.59451 0.07249 0.7715 0.0
C2158 C 0.54514 0.01229 0.7454 0.0
C2159 C 0.534 0.01456 0.72999 0.0
C2160 C 0.55901 0.0252 0.75115 0.0
C2161 C 0.56185 0.04076 0.74172 0.0
C2162 C 0.55034 0.04315 0.72654 0.0
C2163 C 0.53659 0.03019 0.72074 0.0
H2164 H 0.0396 0.57609 0.24546 0.0
H2165 H 0.00521 0.55832 0.28623 0.0
H2166 H 0.03433 0.6073 0.25414 0.0
H2167 H 0.00018 0.58944 0.29501 0.0
H2168 H 0.00943 0.64722 0.31803 0.0
H2169 H 0.01683 0.61669 0.3093 0.0
H2170 H 0.00918 0.62764 0.25332 0.0
H2171 H 0.00236 0.65843 0.26212 0.0
C2172 C 0.03084 0.57882 0.25619 0.0
C2173 C 0.02288 0.56469 0.26518 0.0
C2174 C 0.02786 0.59669 0.26118 0.0
C2175 C 0.01693 0.60083 0.27533 0.0
C2176 C 0.00895 0.58671 0.28429 0.0
C2177 C 0.01185 0.56887 0.27925 0.0
C2178 C 0.00986 0.64328 0.30388 0.0
C2179 C 0.00576 0.65532 0.29075 0.0
C2180 C 0.01378 0.62569 0.29887 0.0
C2181 C 0.0136 0.61976 0.28062 0.0
C2182 C 0.00964 0.63187 0.26749 0.0
C2183 C 0.00564 0.64945 0.27251 0.0
H2184 H 0.33439 0.61916 0.35296 0.0
H2185 H 0.35209 0.65168 0.40139 0.0
H2186 H 0.36472 0.622 0.34266 0.0
H2187 H 0.38242 0.65469 0.39103 0.0
H2188 H 0.43815 0.63863 0.37616 0.0
H2189 H 0.40769 0.63664 0.38618 0.0
H2190 H 0.38648 0.64344 0.33205 0.0
H2191 H 0.41692 0.64502 0.32194 0.0
C2192 C 0.34472 0.62712 0.3613 0.0
C2193 C 0.34085 0.63517 0.378 0.0
C2194 C 0.3621 0.62876 0.35539 0.0
C2195 C 0.37603 0.63854 0.36603 0.0
C2196 C 0.37209 0.6468 0.38264 0.0
C2197 C 0.35471 0.6451 0.38857 0.0
C2198 C 0.42699 0.63968 0.36639 0.0
C2199 C 0.42996 0.64192 0.34824 0.0
C2200 C 0.40952 0.63867 0.37216 0.0
C2201 C 0.39462 0.63989 0.35993 0.0
C2202 C 0.39763 0.64221 0.34178 0.0
C2203 C 0.41509 0.64319 0.33601 0.0
H2204 H 0.16977 0.27697 0.753 0.0
H2205 H 0.14653 0.31508 0.78925 0.0
H2206 H 0.14008 0.26905 0.73806 0.0
H2207 H 0.11692 0.30692 0.77452 0.0
H2208 H 0.06385 0.27896 0.7529 0.0
H2209 H 0.0934 0.28193 0.7691 0.0
H2210 H 0.11861 0.28469 0.71875 0.0
H2211 H 0.08912 0.28158 0.70253 0.0
C2212 C 0.15835 0.28364 0.75782 0.0
C2213 C 0.16059 0.29674 0.77229 0.0
C2214 C 0.14134 0.27905 0.74928 0.0
C2215 C 0.12617 0.28738 0.7551 0.0
C2216 C 0.1283 0.30007 0.76989 0.0
C2217 C 0.14531 0.30473 0.77835 0.0
C2218 C 0.0757 0.27996 0.74527 0.0
C2219 C 0.07413 0.28015 0.72642 0.0
C2220 C 0.09262 0.28176 0.75456 0.0
C2221 C 0.10832 0.28366 0.74522 0.0
C2222 C 0.10677 0.2831 0.72634 0.0
C2223 C 0.08986 0.28141 0.71704 0.0
H2224 H 0.83284 0.9777 0.58958 0.0
H2225 H 0.80751 0.93734 0.6204 0.0
H2226 H 0.86225 0.9705 0.60198 0.0
H2227 H 0.837 0.92997 0.6327 0.0
H2228 H 0.89064 0.93886 0.66718 0.0
H2229 H 0.86096 0.94324 0.65338 0.0
H2230 H 0.88371 0.94771 0.6019 0.0
H2231 H 0.91349 0.94379 0.61582 0.0
C2232 C 0.83358 0.96708 0.5988 0.0
C2233 C 0.81785 0.95811 0.60403 0.0
C2234 C 0.85045 0.96293 0.60589 0.0
C2235 C 0.85201 0.94966 0.61835 0.0
C2236 C 0.83627 0.94046 0.62335 0.0
C2237 C 0.81938 0.94467 0.6163 0.0
C2238 C 0.88929 0.94064 0.65289 0.0
C2239 C 0.90444 0.94108 0.64262 0.0
C2240 C 0.87225 0.94306 0.64495 0.0
C2241 C 0.86995 0.94591 0.62653 0.0
C2242 C 0.88505 0.94584 0.61617 0.0
C2243 C 0.9021 0.94348 0.62413 0.0
H2244 H 0.66314 0.99405 0.25879 0.0
H2245 H 0.67166 0.05181 0.2587 0.0
H2246 H 0.63224 0.99733 0.26663 0.0
H2247 H 0.64066 0.05501 0.26623 0.0
H2248 H 0.57907 0.05017 0.25372 0.0
H2249 H 0.61091 0.04743 0.24948 0.0
H2250 H 0.61351 0.00946 0.29073 0.0
H2251 H 0.58156 0.01213 0.29496 0.0
C2252 C 0.65854 0.00746 0.26074 0.0
C2253 C 0.66984 0.02266 0.25791 0.0
C2254 C 0.64081 0.00932 0.2652 0.0
C2255 C 0.63398 0.02641 0.26683 0.0
C2256 C 0.64546 0.04164 0.26471 0.0
C2257 C 0.6632 0.0398 0.26036 0.0
C2258 C 0.58641 0.04124 0.2619 0.0
C2259 C 0.57778 0.03134 0.27465 0.0
C2260 C 0.60469 0.03978 0.25957 0.0
C2261 C 0.61471 0.0283 0.26984 0.0
C2262 C 0.60609 0.01835 0.28256 0.0
C2263 C 0.58782 0.01992 0.28501 0.0
H2264 H 0.34321 0.3267 0.6081 0.0
H2265 H 0.38896 0.34518 0.64415 0.0
H2266 H 0.33115 0.35622 0.61162 0.0
H2267 H 0.37681 0.37464 0.64792 0.0
H2268 H 0.35992 0.43032 0.6352 0.0
H2269 H 0.37168 0.40071 0.63155 0.0
H2270 H 0.31797 0.37595 0.63302 0.0
H2271 H 0.30615 0.40559 0.63615 0.0
C2272 C 0.35058 0.33702 0.61694 0.0
C2273 C 0.36705 0.33363 0.62582 0.0
C2274 C 0.34367 0.35394 0.61899 0.0
C2275 C 0.35302 0.36784 0.63003 0.0
C2276 C 0.36941 0.36436 0.63905 0.0
C2277 C 0.37637 0.34747 0.63693 0.0
C2278 C 0.35061 0.41855 0.63471 0.0
C2279 C 0.3321 0.42031 0.63595 0.0
C2280 C 0.35737 0.40156 0.63274 0.0
C2281 C 0.34579 0.38592 0.63204 0.0
C2282 C 0.32725 0.3877 0.63326 0.0
C2283 C 0.32048 0.4047 0.63515 0.0
H2284 H 0.26613 0.66758 0.03662 0.0
H2285 H 0.26118 0.65452 0.97925 0.0
H2286 H 0.27152 0.63635 0.04162 0.0
H2287 H 0.26703 0.62339 0.98433 0.0
H2288 H 0.29262 0.57173 0.0019 0.0
H2289 H 0.29075 0.60366 0.99693 0.0
H2290 H 0.25143 0.60773 0.03676 0.0
H2291 H 0.25322 0.57592 0.04172 0.0
C2292 C 0.26629 0.65809 0.02507 0.0
C2293 C 0.26298 0.66352 0.00754 0.0
C2294 C 0.26941 0.64022 0.02795 0.0
C2295 C 0.2695 0.62743 0.01337 0.0
C2296 C 0.26714 0.633 0.99581 0.0
C2297 C 0.26384 0.65086 0.99292 0.0
C2298 C 0.2836 0.57946 0.0096 0.0
C2299 C 0.27305 0.57131 0.02218 0.0
C2300 C 0.2825 0.5977 0.00671 0.0
C2301 C 0.27102 0.60817 0.01653 0.0
C2302 C 0.26057 0.60003 0.02917 0.0
C2303 C 0.2615 0.58179 0.03191 0.0
H2304 H 0.76242 0.15391 0.32713 0.0
H2305 H 0.77342 0.15051 0.27098 0.0
H2306 H 0.74418 0.12557 0.32276 0.0
H2307 H 0.75499 0.12202 0.26657 0.0
H2308 H 0.73853 0.06105 0.27589 0.0
H2309 H 0.75609 0.08994 0.27731 0.0
H2310 H 0.71462 0.11486 0.30585 0.0
H2311 H 0.69707 0.08612 0.30444 0.0
C2312 C 0.76104 0.14701 0.31388 0.0
C2313 C 0.76939 0.15437 0.29941 0.0
C2314 C 0.75045 0.1309 0.31134 0.0
C2315 C 0.74809 0.12167 0.2943 0.0
C2316 C 0.75663 0.12886 0.27985 0.0
C2317 C 0.76707 0.14516 0.28235 0.0
C2318 C 0.73309 0.07274 0.2823 0.0
C2319 C 0.71649 0.07128 0.2902 0.0
C2320 C 0.7431 0.08927 0.28304 0.0
C2321 C 0.73678 0.10457 0.29186 0.0
C2322 C 0.71991 0.10322 0.29919 0.0
C2323 C 0.70983 0.08678 0.29828 0.0
H2324 H 0.5796 0.81686 0.94339 0.0
H2325 H 0.62633 0.80971 0.97865 0.0
H2326 H 0.59232 0.84653 0.93707 0.0
H2327 H 0.63904 0.83926 0.97229 0.0
H2328 H 0.66449 0.88544 0.94394 0.0
H2329 H 0.65153 0.8553 0.94791 0.0
H2330 H 0.59928 0.87631 0.9525 0.0
H2331 H 0.61216 0.90642 0.94823 0.0
C2332 C 0.59253 0.82165 0.94986 0.0
C2333 C 0.60195 0.81089 0.9615 0.0
C2334 C 0.59983 0.83864 0.94623 0.0
C2335 C 0.61672 0.84523 0.95413 0.0
C2336 C 0.62615 0.83445 0.96572 0.0
C2337 C 0.61885 0.8175 0.96937 0.0
C2338 C 0.65021 0.88362 0.94566 0.0
C2339 C 0.63937 0.89835 0.94582 0.0
C2340 C 0.64281 0.86636 0.94805 0.0
C2341 C 0.62439 0.86342 0.95063 0.0
C2342 C 0.61347 0.87809 0.95037 0.0
C2343 C 0.62088 0.89536 0.94801 0.0
H2344 H 0.65077 0.36701 0.33732 0.0
H2345 H 0.59373 0.3524 0.33274 0.0
H2346 H 0.65374 0.3512 0.36496 0.0
H2347 H 0.59667 0.33679 0.36047 0.0
H2348 H 0.61395 0.29346 0.39839 0.0
H2349 H 0.61098 0.30939 0.3709 0.0
H2350 H 0.64393 0.35443 0.39657 0.0
H2351 H 0.64695 0.33853 0.42409 0.0
C2352 C 0.63889 0.36038 0.34221 0.0
C2353 C 0.62202 0.36092 0.33289 0.0
C2354 C 0.64056 0.35148 0.35809 0.0
C2355 C 0.62543 0.34278 0.36486 0.0
C2356 C 0.60858 0.34327 0.3555 0.0
C2357 C 0.60688 0.35232 0.33972 0.0
C2358 C 0.62056 0.30677 0.39818 0.0
C2359 C 0.63069 0.31473 0.41342 0.0
C2360 C 0.61877 0.31591 0.38247 0.0
C2361 C 0.62722 0.33315 0.3816 0.0
C2362 C 0.6374 0.3411 0.39681 0.0
C2363 C 0.63904 0.33203 0.41259 0.0
H2364 H 0.96431 0.27918 0.67879 0.0
H2365 H 0.00963 0.25135 0.66091 0.0
H2366 H 0.96264 0.29443 0.65092 0.0
H2367 H 0.00731 0.26567 0.63258 0.0
H2368 H 0.00964 0.30538 0.58977 0.0
H2369 H 0.01215 0.29276 0.61901 0.0
H2370 H 0.9542 0.28969 0.62027 0.0
H2371 H 0.95184 0.30317 0.59146 0.0
C2372 C 0.97394 0.27635 0.66891 0.0
C2373 C 0.98715 0.26411 0.67209 0.0
C2374 C 0.97286 0.28493 0.65281 0.0
C2375 C 0.98484 0.28133 0.63942 0.0
C2376 C 0.99804 0.26906 0.64266 0.0
C2377 C 0.99923 0.26063 0.65882 0.0
C2378 C 0.99746 0.30208 0.59635 0.0
C2379 C 0.98055 0.30519 0.58828 0.0
C2380 C 0.99887 0.29471 0.61308 0.0
C2381 C 0.98338 0.29002 0.62201 0.0
C2382 C 0.96646 0.29334 0.61397 0.0
C2383 C 0.96508 0.30096 0.59736 0.0
H2384 H 0.32023 0.79877 0.1451 0.0
H2385 H 0.27804 0.76499 0.16544 0.0
H2386 H 0.31206 0.78578 0.1148 0.0
H2387 H 0.27007 0.75179 0.13505 0.0
H2388 H 0.2812 0.71672 0.0834 0.0
H2389 H 0.28465 0.73174 0.11346 0.0
H2390 H 0.28794 0.78334 0.09036 0.0
H2391 H 0.28466 0.76834 0.06026 0.0
C2392 C 0.30899 0.78882 0.14309 0.0
C2393 C 0.29985 0.78289 0.15776 0.0
C2394 C 0.30433 0.78134 0.12569 0.0
C2395 C 0.29046 0.76771 0.12254 0.0
C2396 C 0.28098 0.7621 0.1371 0.0
C2397 C 0.28558 0.76965 0.15451 0.0
C2398 C 0.28246 0.73128 0.08473 0.0
C2399 C 0.28279 0.74133 0.06944 0.0
C2400 C 0.28433 0.73988 0.10196 0.0
C2401 C 0.28666 0.75872 0.10428 0.0
C2402 C 0.2864 0.7688 0.089 0.0
C2403 C 0.28442 0.7602 0.07176 0.0
H2404 H 0.985 0.58707 0.83539 0.0
H2405 H 0.94105 0.61188 0.80841 0.0
H2406 H 0.97809 0.60186 0.86392 0.0
H2407 H 0.93377 0.62623 0.83708 0.0
H2408 H 0.94351 0.66675 0.88691 0.0
H2409 H 0.94734 0.65028 0.85836 0.0
H2410 H 0.95546 0.60213 0.88619 0.0
H2411 H 0.95193 0.61867 0.91482 0.0
C2412 C 0.9738 0.59561 0.83558 0.0
C2413 C 0.96364 0.59838 0.81964 0.0
C2414 C 0.96971 0.60392 0.85195 0.0
C2415 C 0.95538 0.61523 0.85276 0.0
C2416 C 0.94499 0.61774 0.83687 0.0
C2417 C 0.94906 0.60936 0.82049 0.0
C2418 C 0.94595 0.65263 0.88693 0.0
C2419 C 0.94752 0.64406 0.90314 0.0
C2420 C 0.94806 0.64314 0.87055 0.0
C2421 C 0.95179 0.62491 0.87002 0.0
C2422 C 0.95285 0.61623 0.88619 0.0
C2423 C 0.95073 0.6257 0.90256 0.0
H2424 H 0.6852 0.37811 0.66858 0.0
H2425 H 0.65384 0.3839 0.61892 0.0
H2426 H 0.65771 0.37554 0.68437 0.0
H2427 H 0.62642 0.38232 0.6349 0.0
H2428 H 0.57999 0.35887 0.66516 0.0
H2429 H 0.60741 0.36137 0.64918 0.0
H2430 H 0.63411 0.39294 0.69471 0.0
H2431 H 0.60684 0.38995 0.71088 0.0
C2432 C 0.67245 0.37883 0.66101 0.0
C2433 C 0.67177 0.38117 0.64245 0.0
C2434 C 0.65668 0.37761 0.67013 0.0
C2435 C 0.63981 0.37876 0.66094 0.0
C2436 C 0.63914 0.38117 0.64239 0.0
C2437 C 0.65491 0.38232 0.63325 0.0
C2438 C 0.5917 0.36637 0.67174 0.0
C2439 C 0.59124 0.37417 0.6893 0.0
C2440 C 0.60741 0.36789 0.66254 0.0
C2441 C 0.62301 0.37735 0.67064 0.0
C2442 C 0.62246 0.38531 0.68816 0.0
C2443 C 0.60678 0.3837 0.69739 0.0
H2444 H 0.85211 0.70621 0.20265 0.0
H2445 H 0.82823 0.7123 0.25375 0.0
H2446 H 0.88192 0.70997 0.218 0.0
H2447 H 0.85802 0.71718 0.26898 0.0
H2448 H 0.9124 0.69981 0.29126 0.0
H2449 H 0.88245 0.69952 0.27647 0.0
H2450 H 0.90373 0.73027 0.2345 0.0
H2451 H 0.93387 0.73 0.24902 0.0
C2452 C 0.8532 0.70851 0.21714 0.0
C2453 C 0.83772 0.70877 0.22695 0.0
C2454 C 0.87033 0.71093 0.22594 0.0
C2455 C 0.87242 0.71378 0.24477 0.0
C2456 C 0.85694 0.71471 0.2545 0.0
C2457 C 0.83981 0.71217 0.24572 0.0
C2458 C 0.91068 0.70661 0.27893 0.0
C2459 C 0.92553 0.71483 0.27126 0.0
C2460 C 0.89346 0.70656 0.2705 0.0
C2461 C 0.89063 0.71486 0.25425 0.0
C2462 C 0.90544 0.7235 0.24683 0.0
C2463 C 0.92271 0.72344 0.25521 0.0
H2464 H 0.18428 0.01838 0.37465 0.0
H2465 H 0.1745 0.05253 0.42139 0.0
H2466 H 0.15426 0.02271 0.36174 0.0
H2467 H 0.14434 0.05682 0.40845 0.0
H2468 H 0.08511 0.0414 0.38777 0.0
H2469 H 0.11553 0.0395 0.40109 0.0
H2470 H 0.13673 0.04602 0.3492 0.0
H2471 H 0.10633 0.04761 0.33581 0.0
C2472 C 0.17579 0.02698 0.38209 0.0
C2473 C 0.18181 0.03516 0.39902 0.0
C2474 C 0.15858 0.02947 0.37468 0.0
C2475 C 0.14694 0.04018 0.38403 0.0
C2476 C 0.15292 0.04834 0.40099 0.0
C2477 C 0.17018 0.04586 0.40841 0.0
C2478 C 0.09628 0.04258 0.37923 0.0
C2479 C 0.09329 0.04455 0.36071 0.0
C2480 C 0.11372 0.04157 0.38688 0.0
C2481 C 0.12853 0.04249 0.37618 0.0
C2482 C 0.12557 0.04497 0.35775 0.0
C2483 C 0.10815 0.046 0.3501 0.0
H2484 H 0.3515 0.02558 0.73179 0.0
H2485 H 0.33887 0.96852 0.73377 0.0
H2486 H 0.3828 0.01986 0.72701 0.0
H2487 H 0.37015 0.96291 0.72938 0.0
H2488 H 0.43028 0.96373 0.74712 0.0
H2489 H 0.39871 0.96974 0.74882 0.0
H2490 H 0.40262 0.00459 0.70502 0.0
H2491 H 0.43434 0.99859 0.70328 0.0
C2492 C 0.35532 0.01182 0.73093 0.0
C2493 C 0.34274 0.99752 0.73341 0.0
C2494 C 0.37325 0.00856 0.72824 0.0
C2495 C 0.37893 0.99096 0.72809 0.0
C2496 C 0.36621 0.97664 0.72982 0.0
C2497 C 0.34831 0.97987 0.73236 0.0
C2498 C 0.42445 0.97269 0.73786 0.0
C2499 C 0.43481 0.98066 0.72505 0.0
C2500 C 0.40633 0.97603 0.73875 0.0
C2501 C 0.39819 0.98754 0.72697 0.0
C2502 C 0.40858 0.99572 0.71431 0.0
C2503 C 0.4267 0.99223 0.71328 0.0
H2504 H 0.65153 0.66074 0.38629 0.0
H2505 H 0.60465 0.64378 0.35115 0.0
H2506 H 0.66261 0.63082 0.3822 0.0
H2507 H 0.61578 0.61392 0.3469 0.0
H2508 H 0.63084 0.55762 0.3602 0.0
H2509 H 0.62028 0.58777 0.36362 0.0
H2510 H 0.67453 0.61044 0.36023 0.0
H2511 H 0.68517 0.58026 0.35726 0.0
C2512 C 0.64371 0.65068 0.37751 0.0
C2513 C 0.62719 0.6546 0.36909 0.0
C2514 C 0.65006 0.63353 0.37515 0.0
C2515 C 0.64005 0.61993 0.36427 0.0
C2516 C 0.62366 0.62397 0.35563 0.0
C2517 C 0.61729 0.64109 0.35804 0.0
C2518 C 0.64052 0.56903 0.36019 0.0
C2519 C 0.65885 0.56653 0.35849 0.0
C2520 C 0.63445 0.58633 0.36203 0.0
C2521 C 0.64655 0.60154 0.36216 0.0
C2522 C 0.66488 0.59903 0.36041 0.0
C2523 C 0.67097 0.58172 0.35862 0.0
H2524 H 0.72269 0.34801 0.99435 0.0
H2525 H 0.76826 0.36403 0.03157 0.0
H2526 H 0.72047 0.37923 0.987 0.0
H2527 H 0.76604 0.39521 0.02426 0.0
H2528 H 0.77305 0.44084 0.98613 0.0
H2529 H 0.77243 0.41095 0.99737 0.0
H2530 H 0.71458 0.41008 0.99806 0.0
H2531 H 0.71516 0.44004 0.98655 0.0
C2532 C 0.73196 0.35825 0.00127 0.0
C2533 C 0.74579 0.35354 0.01337 0.0
C2534 C 0.73071 0.37614 0.99705 0.0
C2535 C 0.74325 0.38965 0.00486 0.0
C2536 C 0.75642 0.38505 0.01772 0.0
C2537 C 0.75767 0.3672 0.02193 0.0
C2538 C 0.76019 0.43434 0.98873 0.0
C2539 C 0.74415 0.4428 0.98539 0.0
C2540 C 0.75985 0.41725 0.99532 0.0
C2541 C 0.74346 0.40818 0.99869 0.0
C2542 C 0.7274 0.41668 0.99548 0.0
C2543 C 0.72775 0.43386 0.98895 0.0
H2544 H 0.24575 0.83282 0.72866 0.0
H2545 H 0.20741 0.85289 0.69032 0.0
H2546 H 0.25956 0.86322 0.73502 0.0
H2547 H 0.22099 0.88321 0.69699 0.0
H2548 H 0.2415 0.93787 0.72237 0.0
H2549 H 0.22634 0.90786 0.72121 0.0
H2550 H 0.27745 0.88433 0.71726 0.0
H2551 H 0.29263 0.91427 0.7185 0.0
C2552 C 0.24021 0.84369 0.72165 0.0
C2553 C 0.22552 0.84036 0.70889 0.0
C2554 C 0.2481 0.8611 0.72534 0.0
C2555 C 0.24139 0.87557 0.71647 0.0
C2556 C 0.22632 0.87236 0.70422 0.0
C2557 C 0.21851 0.85496 0.70043 0.0
C2558 C 0.24953 0.9263 0.72148 0.0
C2559 C 0.26826 0.92844 0.7204 0.0
C2560 C 0.24083 0.90913 0.72073 0.0
C2561 C 0.2507 0.89376 0.71906 0.0
C2562 C 0.2695 0.89591 0.71871 0.0
C2563 C 0.27818 0.91307 0.71931 0.0
H2564 H 0.42066 0.17536 0.0523 0.0
H2565 H 0.37325 0.18772 0.02047 0.0
H2566 H 0.40667 0.14564 0.05669 0.0
H2567 H 0.35929 0.15818 0.02495 0.0
H2568 H 0.33251 0.11117 0.05068 0.0
H2569 H 0.34716 0.14102 0.04893 0.0
H2570 H 0.3972 0.1173 0.03894 0.0
H2571 H 0.38262 0.08741 0.04095 0.0
C2572 C 0.40731 0.17171 0.04617 0.0
C2573 C 0.39805 0.18394 0.03609 0.0
C2574 C 0.39929 0.15471 0.0487 0.0
C2575 C 0.38184 0.14961 0.04126 0.0
C2576 C 0.37261 0.16183 0.03117 0.0
C2577 C 0.38063 0.17877 0.0286 0.0
C2578 C 0.34667 0.11231 0.04826 0.0
C2579 C 0.35638 0.09691 0.04586 0.0
C2580 C 0.35504 0.12941 0.04715 0.0
C2581 C 0.3733 0.13151 0.04365 0.0
C2582 C 0.38315 0.11614 0.04179 0.0
C2583 C 0.37477 0.09901 0.04286 0.0
H2584 H 0.39515 0.61099 0.64886 0.0
H2585 H 0.34918 0.6399 0.6632 0.0
H2586 H 0.39138 0.62034 0.61824 0.0
H2587 H 0.34559 0.64943 0.6326 0.0
H2588 H 0.35677 0.67758 0.58095 0.0
H2589 H 0.36115 0.66879 0.61177 0.0
H2590 H 0.36963 0.61465 0.59186 0.0
H2591 H 0.36542 0.62344 0.56105 0.0
C2592 C 0.38417 0.61924 0.64546 0.0
C2593 C 0.37242 0.62463 0.6585 0.0
C2594 C 0.38203 0.62462 0.62792 0.0
C2595 C 0.36817 0.63559 0.62299 0.0
C2596 C 0.35654 0.64116 0.63604 0.0
C2597 C 0.35862 0.63571 0.65359 0.0
C2598 C 0.35961 0.66381 0.58314 0.0
C2599 C 0.36075 0.65121 0.56854 0.0
C2600 C 0.36202 0.65876 0.6008 0.0
C2601 C 0.36573 0.64103 0.60425 0.0
C2602 C 0.36699 0.62847 0.58964 0.0
C2603 C 0.36448 0.63348 0.57199 0.0
H2604 H 0.96614 0.72932 0.33767 0.0
H2605 H 0.02339 0.72994 0.35068 0.0
H2606 H 0.96064 0.72555 0.36908 0.0
H2607 H 0.01778 0.72569 0.3821 0.0
H2608 H 0.9968 0.70351 0.43471 0.0
H2609 H 0.00262 0.70371 0.40279 0.0
H2610 H 0.96746 0.74701 0.39682 0.0
H2611 H 0.96172 0.74694 0.42858 0.0
C2612 C 0.97755 0.72855 0.34721 0.0
C2613 C 0.99522 0.73027 0.34172 0.0
C2614 C 0.97438 0.72635 0.36517 0.0
C2615 C 0.98879 0.72558 0.37803 0.0
C2616 C 0.00643 0.7262 0.37243 0.0
C2617 C 0.00962 0.72858 0.35443 0.0
C2618 C 0.99032 0.71306 0.42656 0.0
C2619 C 0.97879 0.72521 0.43415 0.0
C2620 C 0.9937 0.71319 0.40834 0.0
C2621 C 0.98539 0.72528 0.39735 0.0
C2622 C 0.97386 0.73738 0.40494 0.0
C2623 C 0.97067 0.73742 0.42316 0.0
H2624 H 0.72405 0.24616 0.83612 0.0
H2625 H 0.68588 0.20674 0.85474 0.0
H2626 H 0.72976 0.25938 0.86681 0.0
H2627 H 0.69188 0.21976 0.88538 0.0
H2628 H 0.71857 0.23809 0.94053 0.0
H2629 H 0.71616 0.22414 0.90996 0.0
H2630 H 0.71233 0.27638 0.88883 0.0
H2631 H 0.71483 0.29038 0.91934 0.0
C2632 C 0.71687 0.24031 0.84672 0.0
C2633 C 0.70445 0.22541 0.84291 0.0
C2634 C 0.72018 0.24786 0.8643 0.0
C2635 C 0.71126 0.24061 0.87849 0.0
C2636 C 0.69916 0.22549 0.87477 0.0
C2637 C 0.69575 0.21801 0.85719 0.0
C2638 C 0.71737 0.24662 0.92936 0.0
C2639 C 0.71681 0.26534 0.93236 0.0
C2640 C 0.7159 0.23861 0.91187 0.0
C2641 C 0.71399 0.24916 0.89701 0.0
C2642 C 0.71395 0.26792 0.9 0.0
C2643 C 0.71528 0.27592 0.91749 0.0
H2644 H 0.02783 0.40804 0.1658 0.0
H2645 H 0.07126 0.38092 0.19087 0.0
H2646 H 0.03139 0.39118 0.13738 0.0
H2647 H 0.07485 0.36406 0.16242 0.0
H2648 H 0.05761 0.32109 0.11642 0.0
H2649 H 0.0575 0.34012 0.14407 0.0
H2650 H 0.05149 0.38659 0.11308 0.0
H2651 H 0.05128 0.36747 0.08534 0.0
C2652 C 0.03835 0.39872 0.16516 0.0
C2653 C 0.04918 0.39572 0.18061 0.0
C2654 C 0.0404 0.38905 0.14887 0.0
C2655 C 0.05333 0.3762 0.14767 0.0
C2656 C 0.06455 0.37364 0.16299 0.0
C2657 C 0.0625 0.38329 0.17927 0.0
C2658 C 0.0564 0.33538 0.11549 0.0
C2659 C 0.05437 0.34275 0.09868 0.0
C2660 C 0.05645 0.34631 0.13135 0.0
C2661 C 0.05447 0.36487 0.13078 0.0
C2662 C 0.05283 0.37231 0.11397 0.0
C2663 C 0.05281 0.36137 0.09808 0.0
loop_
_geom_bond_atom_site_label_1
_geom_bond_atom_site_label_2
_geom_bond_distance
_geom_bond_site_symmetry_2
_ccdc_geom_bond_type
C0 C1 1.264 . S
C0 C5 1.479 . S
C0 C10 1.465 . S
C1 C0 1.264 . S
C1 C3 1.339 . S
C1 H28 0.931 . S
C2 C3 1.395 . S
C2 C4 1.320 . S
C3 C1 1.339 . S
C3 C2 1.395 . S
C3 H29 0.929 . S
C4 C2 1.320 . S
C4 C5 1.405 . S
C4 H30 0.930 . S
C5 C0 1.479 . S
C5 C4 1.405 . S
C5 H31 0.931 . S
U6 O7 2.454 . S
U6 O8 2.458 . S
U6 C9 2.984 . S
U6 C10 2.847 . S
U6 C23 2.882 . S
U6 O24 2.441 . S
U6 O25 2.420 . S
U6 O26 2.455 . S
U6 O27 2.449 . S
O7 U6 2.454 . S
O7 C9 1.353 . S
O8 U6 2.458 . S
O8 C9 1.286 . S
C9 U6 2.984 . S
C9 O7 1.353 . S
C9 O8 1.286 . S
C9 C11 1.363 . S
C10 C0 1.465 . S
C10 U6 2.847 . S
C10 O24 1.249 . S
C10 O25 1.202 . S
C11 C9 1.363 . S
C11 C13 1.408 . S
C11 C16 1.342 . S
C12 C13 1.310 . S
C12 C15 1.461 . S
C12 H32 0.932 . S
C13 C11 1.408 . S
C13 C12 1.310 . S
C13 H33 0.930 . S
C14 C15 1.474 . S
C14 C16 1.285 . S
C14 H34 0.929 . S
C15 C12 1.461 . S
C15 C14 1.474 . S
C16 C11 1.342 . S
C16 C14 1.285 . S
C16 H35 0.930 . S
C17 C20 1.424 . S
C17 C22 1.245 . S
C17 C23 1.428 . S
C18 C21 1.260 . S
C18 C22 1.477 . S
C18 H36 0.932 . S
C19 C20 1.384 . S
C19 C21 1.479 . S
C19 H37 0.929 . S
C20 C17 1.424 . S
C20 C19 1.384 . S
C20 H38 0.928 . S
C21 C18 1.260 . S
C21 C19 1.479 . S
C22 C17 1.245 . S
C22 C18 1.477 . S
C22 H39 0.932 . S
C23 U6 2.882 . S
C23 C17 1.428 . S
C23 O26 1.301 . S
C23 O27 1.282 . S
O24 U6 2.441 . S
O24 C10 1.249 . S
O25 U6 2.420 . S
O25 C10 1.202 . S
O26 U6 2.455 . S
O26 C23 1.301 . S
O27 U6 2.449 . S
O27 C23 1.282 . S
H28 C1 0.931 . S
H29 C3 0.929 . S
H30 C4 0.930 . S
H31 C5 0.931 . S
H32 C12 0.932 . S
H33 C13 0.930 . S
H34 C14 0.929 . S
H35 C16 0.930 . S
H36 C18 0.932 . S
H37 C19 0.929 . S
H38 C20 0.928 . S
H39 C22 0.932 . S
C40 C41 1.264 . S
C40 C45 1.479 . S
C40 C50 1.465 . S
C41 C40 1.264 . S
C41 C43 1.339 . S
C41 H68 0.931 . S
C42 C43 1.395 . S
C42 C44 1.320 . S
C43 C41 1.339 . S
C43 C42 1.395 . S
C43 H69 0.929 . S
C44 C42 1.320 . S
C44 C45 1.405 . S
C44 H70 0.930 . S
C45 C40 1.479 . S
C45 C44 1.405 . S
C45 H71 0.931 . S
U46 O47 2.454 . S
U46 O48 2.458 . S
U46 C49 2.984 . S
U46 C50 2.847 . S
U46 C63 2.882 . S
U46 O64 2.441 . S
U46 O65 2.420 . S
U46 O66 2.455 . S
U46 O67 2.449 . S
O47 U46 2.454 . S
O47 C49 1.353 . S
O48 U46 2.458 . S
O48 C49 1.286 . S
C49 U46 2.984 . S
C49 O47 1.353 . S
C49 O48 1.286 . S
C49 C51 1.363 . S
C50 C40 1.465 . S
C50 U46 2.847 . S
C50 O64 1.249 . S
C50 O65 1.202 . S
C51 C49 1.363 . S
C51 C53 1.408 . S
C51 C56 1.342 . S
C52 C53 1.310 . S
C52 C55 1.461 . S
C52 H72 0.932 . S
C53 C51 1.408 . S
C53 C52 1.310 . S
C53 H73 0.930 . S
C54 C55 1.474 . S
C54 C56 1.285 . S
C54 H74 0.929 . S
C55 C52 1.461 . S
C55 C54 1.474 . S
C56 C51 1.342 . S
C56 C54 1.285 . S
C56 H75 0.930 . S
C57 C60 1.424 . S
C57 C62 1.245 . S
C57 C63 1.428 . S
C58 C61 1.260 . S
C58 C62 1.477 . S
C58 H76 0.932 . S
C59 C60 1.384 . S
C59 C61 1.479 . S
C59 H77 0.929 . S
C60 C57 1.424 . S
C60 C59 1.384 . S
C60 H78 0.928 . S
C61 C58 1.260 . S
C61 C59 1.479 . S
C62 C57 1.245 . S
C62 C58 1.477 . S
C62 H79 0.932 . S
C63 U46 2.882 . S
C63 C57 1.428 . S
C63 O66 1.301 . S
C63 O67 1.282 . S
O64 U46 2.441 . S
O64 C50 1.249 . S
O65 U46 2.420 . S
O65 C50 1.202 . S
O66 U46 2.455 . S
O66 C63 1.301 . S
O67 U46 2.449 . S
O67 C63 1.282 . S
H68 C41 0.931 . S
H69 C43 0.929 . S
H70 C44 0.930 . S
H71 C45 0.931 . S
H72 C52 0.932 . S
H73 C53 0.930 . S
H74 C54 0.929 . S
H75 C56 0.930 . S
H76 C58 0.932 . S
H77 C59 0.929 . S
H78 C60 0.928 . S
H79 C62 0.932 . S
C80 C81 1.264 . S
C80 C85 1.479 . S
C80 C90 1.465 . S
C81 C80 1.264 . S
C81 C83 1.339 . S
C81 H108 0.931 . S
C82 C83 1.395 . S
C82 C84 1.320 . S
C83 C81 1.339 . S
C83 C82 1.395 . S
C83 H109 0.929 . S
C84 C82 1.320 . S
C84 C85 1.405 . S
C84 H110 0.924 1_565 S
C85 C80 1.479 . S
C85 C84 1.405 . S
C85 H111 0.931 . S
U86 O87 2.454 . S
U86 O88 2.458 . S
U86 C89 2.984 . S
U86 C90 2.847 . S
U86 C103 2.882 . S
U86 O104 2.441 . S
U86 O105 2.420 . S
U86 O106 2.455 . S
U86 O107 2.449 . S
O87 U86 2.454 . S
O87 C89 1.353 . S
O88 U86 2.458 . S
O88 C89 1.286 . S
C89 U86 2.984 . S
C89 O87 1.353 . S
C89 O88 1.286 . S
C89 C91 1.363 . S
C90 C80 1.465 . S
C90 U86 2.847 . S
C90 O104 1.249 . S
C90 O105 1.202 . S
C91 C89 1.363 . S
C91 C93 1.408 . S
C91 C96 1.342 . S
C92 C93 1.310 . S
C92 C95 1.461 . S
C92 H112 0.932 . S
C93 C91 1.408 . S
C93 C92 1.310 . S
C93 H113 0.930 . S
C94 C95 1.473 1_545 S
C94 C96 1.285 1_545 S
C94 H114 0.931 . S
C95 C92 1.461 . S
C95 C94 1.473 1_565 S
C96 C91 1.342 . S
C96 C94 1.285 1_565 S
C96 H115 0.934 . S
C97 C100 1.424 . S
C97 C102 1.245 . S
C97 C103 1.428 . S
C98 C101 1.260 . S
C98 C102 1.477 . S
C98 H116 0.932 . S
C99 C100 1.384 . S
C99 C101 1.479 . S
C99 H117 0.929 . S
C100 C97 1.424 . S
C100 C99 1.384 . S
C100 H118 0.928 . S
C101 C98 1.260 . S
C101 C99 1.479 . S
C102 C97 1.245 . S
C102 C98 1.477 . S
C102 H119 0.932 . S
C103 U86 2.882 . S
C103 C97 1.428 . S
C103 O106 1.301 . S
C103 O107 1.282 . S
O104 U86 2.441 . S
O104 C90 1.249 . S
O105 U86 2.420 . S
O105 C90 1.202 . S
O106 U86 2.455 . S
O106 C103 1.301 . S
O107 U86 2.449 . S
O107 C103 1.282 . S
H108 C81 0.931 . S
H109 C83 0.929 . S
H110 C84 0.924 1_545 S
H111 C85 0.931 . S
H112 C92 0.932 . S
H113 C93 0.930 . S
H114 C94 0.931 . S
H115 C96 0.934 . S
H116 C98 0.932 . S
H117 C99 0.929 . S
H118 C100 0.928 . S
H119 C102 0.932 . S
C120 C121 1.264 . S
C120 C125 1.479 . S
C120 C130 1.465 . S
C121 C120 1.264 . S
C121 C123 1.339 . S
C121 H148 0.931 . S
C122 C123 1.395 . S
C122 C124 1.320 . S
C123 C121 1.339 . S
C123 C122 1.395 . S
C123 H149 0.929 . S
C124 C122 1.320 . S
C124 C125 1.405 . S
C124 H150 0.930 . S
C125 C120 1.479 . S
C125 C124 1.405 . S
C125 H151 0.931 . S
U126 O127 2.454 . S
U126 O128 2.458 . S
U126 C129 2.984 . S
U126 C130 2.847 . S
U126 C143 2.882 . S
U126 O144 2.441 . S
U126 O145 2.420 . S
U126 O146 2.455 . S
U126 O147 2.449 . S
O127 U126 2.454 . S
O127 C129 1.353 . S
O128 U126 2.458 . S
O128 C129 1.286 . S
C129 U126 2.984 . S
C129 O127 1.353 . S
C129 O128 1.286 . S
C129 C131 1.363 . S
C130 C120 1.465 . S
C130 U126 2.847 . S
C130 O144 1.249 . S
C130 O145 1.202 . S
C131 C129 1.363 . S
C131 C133 1.408 . S
C131 C136 1.342 . S
C132 C133 1.310 . S
C132 C135 1.461 . S
C132 H152 0.932 . S
C133 C131 1.408 . S
C133 C132 1.310 . S
C133 H153 0.930 . S
C134 C135 1.474 . S
C134 C136 1.292 . S
C134 H154 0.922 1_545 S
C135 C132 1.461 . S
C135 C134 1.474 . S
C136 C131 1.342 . S
C136 C134 1.292 . S
C136 H155 0.931 . S
C137 C140 1.424 . S
C137 C142 1.245 . S
C137 C143 1.428 . S
C138 C141 1.254 1_545 S
C138 C142 1.477 . S
C138 H156 0.932 . S
C139 C140 1.384 . S
C139 C141 1.470 1_545 S
C139 H157 0.929 . S
C140 C137 1.424 . S
C140 C139 1.384 . S
C140 H158 0.928 . S
C141 C138 1.254 1_565 S
C141 C139 1.470 1_565 S
C142 C137 1.245 . S
C142 C138 1.477 . S
C142 H159 0.932 . S
C143 U126 2.882 . S
C143 C137 1.428 . S
C143 O146 1.301 . S
C143 O147 1.282 . S
O144 U126 2.441 . S
O144 C130 1.249 . S
O145 U126 2.420 . S
O145 C130 1.202 . S
O146 U126 2.455 . S
O146 C143 1.301 . S
O147 U126 2.449 . S
O147 C143 1.282 . S
H148 C121 0.931 . S
H149 C123 0.929 . S
H150 C124 0.930 . S
H151 C125 0.931 . S
H152 C132 0.932 . S
H153 C133 0.930 . S
H154 C134 0.922 1_565 S
H155 C136 0.931 . S
H156 C138 0.932 . S
H157 C139 0.929 . S
H158 C140 0.928 . S
H159 C142 0.932 . S
C160 C161 1.264 . S
C160 C165 1.479 . S
C160 C170 1.465 . S
C161 C160 1.264 . S
C161 C163 1.339 . S
C161 H188 0.931 . S
C162 C163 1.395 . S
C162 C164 1.320 . S
C163 C161 1.339 . S
C163 C162 1.395 . S
C163 H189 0.929 . S
C164 C162 1.320 . S
C164 C165 1.405 . S
C164 H190 0.930 . S
C165 C160 1.479 . S
C165 C164 1.405 . S
C165 H191 0.931 . S
U166 O167 2.454 . S
U166 O168 2.458 . S
U166 C169 2.984 . S
U166 C170 2.847 . S
U166 C183 2.882 . S
U166 O184 2.441 . S
U166 O185 2.420 . S
U166 O186 2.455 . S
U166 O187 2.449 . S
O167 U166 2.454 . S
O167 C169 1.353 . S
O168 U166 2.458 . S
O168 C169 1.286 . S
C169 U166 2.984 . S
C169 O167 1.353 . S
C169 O168 1.286 . S
C169 C171 1.363 . S
C170 C160 1.465 . S
C170 U166 2.847 . S
C170 O184 1.249 . S
C170 O185 1.202 . S
C171 C169 1.363 . S
C171 C173 1.408 . S
C171 C176 1.342 . S
C172 C173 1.310 . S
C172 C175 1.461 . S
C172 H192 0.932 . S
C173 C171 1.408 . S
C173 C172 1.310 . S
C173 H193 0.930 . S
C174 C175 1.474 . S
C174 C176 1.285 . S
C174 H194 0.929 . S
C175 C172 1.461 . S
C175 C174 1.474 . S
C176 C171 1.342 . S
C176 C174 1.285 . S
C176 H195 0.930 . S
C177 C180 1.424 . S
C177 C182 1.245 . S
C177 C183 1.428 . S
C178 C181 1.260 . S
C178 C182 1.477 . S
C178 H196 0.932 . S
C179 C180 1.384 . S
C179 C181 1.479 . S
C179 H197 0.929 . S
C180 C177 1.424 . S
C180 C179 1.384 . S
C180 H198 0.928 . S
C181 C178 1.260 . S
C181 C179 1.479 . S
C182 C177 1.245 . S
C182 C178 1.477 . S
C182 H199 0.932 . S
C183 U166 2.882 . S
C183 C177 1.428 . S
C183 O186 1.301 . S
C183 O187 1.282 . S
O184 U166 2.441 . S
O184 C170 1.249 . S
O185 U166 2.420 . S
O185 C170 1.202 . S
O186 U166 2.455 . S
O186 C183 1.301 . S
O187 U166 2.449 . S
O187 C183 1.282 . S
H188 C161 0.931 . S
H189 C163 0.929 . S
H190 C164 0.930 . S
H191 C165 0.931 . S
H192 C172 0.932 . S
H193 C173 0.930 . S
H194 C174 0.929 . S
H195 C176 0.930 . S
H196 C178 0.932 . S
H197 C179 0.929 . S
H198 C180 0.928 . S
H199 C182 0.932 . S
C200 C201 1.264 . S
C200 C205 1.479 . S
C200 C210 1.465 . S
C201 C200 1.264 . S
C201 C203 1.339 . S
C201 H228 0.931 . S
C202 C203 1.395 . S
C202 C204 1.320 . S
C203 C201 1.339 . S
C203 C202 1.395 . S
C203 H229 0.929 . S
C204 C202 1.320 . S
C204 C205 1.405 . S
C204 H230 0.930 . S
C205 C200 1.479 . S
C205 C204 1.405 . S
C205 H231 0.931 . S
U206 O207 2.454 . S
U206 O208 2.458 . S
U206 C209 2.984 . S
U206 C210 2.847 . S
U206 C223 2.882 . S
U206 O224 2.441 . S
U206 O225 2.420 . S
U206 O226 2.455 . S
U206 O227 2.449 . S
O207 U206 2.454 . S
O207 C209 1.353 . S
O208 U206 2.458 . S
O208 C209 1.286 . S
C209 U206 2.984 . S
C209 O207 1.353 . S
C209 O208 1.286 . S
C209 C211 1.363 . S
C210 C200 1.465 . S
C210 U206 2.847 . S
C210 O224 1.249 . S
C210 O225 1.202 . S
C211 C209 1.363 . S
C211 C213 1.408 . S
C211 C216 1.342 . S
C212 C213 1.310 . S
C212 C215 1.461 . S
C212 H232 0.932 . S
C213 C211 1.408 . S
C213 C212 1.310 . S
C213 H233 0.930 . S
C214 C215 1.474 . S
C214 C216 1.292 . S
C214 H234 0.922 1_554 S
C215 C212 1.461 . S
C215 C214 1.474 . S
C216 C211 1.342 . S
C216 C214 1.292 . S
C216 H235 0.931 . S
C217 C220 1.424 . S
C217 C222 1.245 . S
C217 C223 1.428 . S
C218 C221 1.254 1_554 S
C218 C222 1.477 . S
C218 H236 0.932 . S
C219 C220 1.384 . S
C219 C221 1.470 1_554 S
C219 H237 0.929 . S
C220 C217 1.424 . S
C220 C219 1.384 . S
C220 H238 0.928 . S
C221 C218 1.254 1_556 S
C221 C219 1.470 1_556 S
C222 C217 1.245 . S
C222 C218 1.477 . S
C222 H239 0.932 . S
C223 U206 2.882 . S
C223 C217 1.428 . S
C223 O226 1.301 . S
C223 O227 1.282 . S
O224 U206 2.441 . S
O224 C210 1.249 . S
O225 U206 2.420 . S
O225 C210 1.202 . S
O226 U206 2.455 . S
O226 C223 1.301 . S
O227 U206 2.449 . S
O227 C223 1.282 . S
H228 C201 0.931 . S
H229 C203 0.929 . S
H230 C204 0.930 . S
H231 C205 0.931 . S
H232 C212 0.932 . S
H233 C213 0.930 . S
H234 C214 0.922 1_556 S
H235 C216 0.931 . S
H236 C218 0.932 . S
H237 C219 0.929 . S
H238 C220 0.928 . S
H239 C222 0.932 . S
C240 C241 1.264 . S
C240 C245 1.479 . S
C240 C250 1.465 . S
C241 C240 1.264 . S
C241 C243 1.339 . S
C241 H268 0.931 . S
C242 C243 1.395 . S
C242 C244 1.320 . S
C243 C241 1.339 . S
C243 C242 1.395 . S
C243 H269 0.929 . S
C244 C242 1.320 . S
C244 C245 1.405 . S
C244 H270 0.930 . S
C245 C240 1.479 . S
C245 C244 1.405 . S
C245 H271 0.931 . S
U246 O247 2.454 . S
U246 O248 2.458 . S
U246 C249 2.984 . S
U246 C250 2.847 . S
U246 C263 2.882 . S
U246 O264 2.441 . S
U246 O265 2.420 . S
U246 O266 2.455 . S
U246 O267 2.449 . S
O247 U246 2.454 . S
O247 C249 1.353 . S
O248 U246 2.458 . S
O248 C249 1.286 . S
C249 U246 2.984 . S
C249 O247 1.353 . S
C249 O248 1.286 . S
C249 C251 1.363 . S
C250 C240 1.465 . S
C250 U246 2.847 . S
C250 O264 1.249 . S
C250 O265 1.202 . S
C251 C249 1.363 . S
C251 C253 1.408 . S
C251 C256 1.342 . S
C252 C253 1.310 . S
C252 C255 1.461 . S
C252 H272 0.932 . S
C253 C251 1.408 . S
C253 C252 1.310 . S
C253 H273 0.930 . S
C254 C255 1.474 . S
C254 C256 1.285 . S
C254 H274 0.929 . S
C255 C252 1.461 . S
C255 C254 1.474 . S
C256 C251 1.342 . S
C256 C254 1.285 . S
C256 H275 0.930 . S
C257 C260 1.424 . S
C257 C262 1.245 . S
C257 C263 1.428 . S
C258 C261 1.260 . S
C258 C262 1.477 . S
C258 H276 0.932 . S
C259 C260 1.384 . S
C259 C261 1.479 . S
C259 H277 0.929 . S
C260 C257 1.424 . S
C260 C259 1.384 . S
C260 H278 0.928 . S
C261 C258 1.260 . S
C261 C259 1.479 . S
C262 C257 1.245 . S
C262 C258 1.477 . S
C262 H279 0.932 . S
C263 U246 2.882 . S
C263 C257 1.428 . S
C263 O266 1.301 . S
C263 O267 1.282 . S
O264 U246 2.441 . S
O264 C250 1.249 . S
O265 U246 2.420 . S
O265 C250 1.202 . S
O266 U246 2.455 . S
O266 C263 1.301 . S
O267 U246 2.449 . S
O267 C263 1.282 . S
H268 C241 0.931 . S
H269 C243 0.929 . S
H270 C244 0.930 . S
H271 C245 0.931 . S
H272 C252 0.932 . S
H273 C253 0.930 . S
H274 C254 0.929 . S
H275 C256 0.930 . S
H276 C258 0.932 . S
H277 C259 0.929 . S
H278 C260 0.928 . S
H279 C262 0.932 . S
C280 C281 1.264 . S
C280 C285 1.479 . S
C280 C290 1.465 . S
C281 C280 1.264 . S
C281 C283 1.339 . S
C281 H308 0.931 . S
C282 C283 1.395 . S
C282 C284 1.320 . S
C283 C281 1.339 . S
C283 C282 1.395 . S
C283 H309 0.929 . S
C284 C282 1.320 . S
C284 C285 1.405 . S
C284 H310 0.924 1_556 S
C285 C280 1.479 . S
C285 C284 1.405 . S
C285 H311 0.931 . S
U286 O287 2.454 . S
U286 O288 2.458 . S
U286 C289 2.984 . S
U286 C290 2.847 . S
U286 C303 2.882 . S
U286 O304 2.441 . S
U286 O305 2.420 . S
U286 O306 2.455 . S
U286 O307 2.449 . S
O287 U286 2.454 . S
O287 C289 1.353 . S
O288 U286 2.458 . S
O288 C289 1.286 . S
C289 U286 2.984 . S
C289 O287 1.353 . S
C289 O288 1.286 . S
C289 C291 1.363 . S
C290 C280 1.465 . S
C290 U286 2.847 . S
C290 O304 1.249 . S
C290 O305 1.202 . S
C291 C289 1.363 . S
C291 C293 1.408 . S
C291 C296 1.342 . S
C292 C293 1.310 . S
C292 C295 1.461 . S
C292 H312 0.932 . S
C293 C291 1.408 . S
C293 C292 1.310 . S
C293 H313 0.930 . S
C294 C295 1.473 1_554 S
C294 C296 1.285 1_554 S
C294 H314 0.931 . S
C295 C292 1.461 . S
C295 C294 1.473 1_556 S
C296 C291 1.342 . S
C296 C294 1.285 1_556 S
C296 H315 0.934 . S
C297 C300 1.424 . S
C297 C302 1.245 . S
C297 C303 1.428 . S
C298 C301 1.260 . S
C298 C302 1.477 . S
C298 H316 0.932 . S
C299 C300 1.384 . S
C299 C301 1.479 . S
C299 H317 0.929 . S
C300 C297 1.424 . S
C300 C299 1.384 . S
C300 H318 0.928 . S
C301 C298 1.260 . S
C301 C299 1.479 . S
C302 C297 1.245 . S
C302 C298 1.477 . S
C302 H319 0.932 . S
C303 U286 2.882 . S
C303 C297 1.428 . S
C303 O306 1.301 . S
C303 O307 1.282 . S
O304 U286 2.441 . S
O304 C290 1.249 . S
O305 U286 2.420 . S
O305 C290 1.202 . S
O306 U286 2.455 . S
O306 C303 1.301 . S
O307 U286 2.449 . S
O307 C303 1.282 . S
H308 C281 0.931 . S
H309 C283 0.929 . S
H310 C284 0.924 1_554 S
H311 C285 0.931 . S
H312 C292 0.932 . S
H313 C293 0.930 . S
H314 C294 0.931 . S
H315 C296 0.934 . S
H316 C298 0.932 . S
H317 C299 0.929 . S
H318 C300 0.928 . S
H319 C302 0.932 . S
C320 C321 1.264 . S
C320 C325 1.479 . S
C320 C330 1.465 . S
C321 C320 1.264 . S
C321 C323 1.339 . S
C321 H348 0.931 . S
C322 C323 1.395 . S
C322 C324 1.320 . S
C323 C321 1.339 . S
C323 C322 1.395 . S
C323 H349 0.929 . S
C324 C322 1.320 . S
C324 C325 1.405 . S
C324 H350 0.930 . S
C325 C320 1.479 . S
C325 C324 1.405 . S
C325 H351 0.931 . S
U326 O327 2.454 . S
U326 O328 2.458 . S
U326 C329 2.984 . S
U326 C330 2.847 . S
U326 C343 2.882 . S
U326 O344 2.441 . S
U326 O345 2.420 . S
U326 O346 2.455 . S
U326 O347 2.449 . S
O327 U326 2.454 . S
O327 C329 1.353 . S
O328 U326 2.458 . S
O328 C329 1.286 . S
C329 U326 2.984 . S
C329 O327 1.353 . S
C329 O328 1.286 . S
C329 C331 1.363 . S
C330 C320 1.465 . S
C330 U326 2.847 . S
C330 O344 1.249 . S
C330 O345 1.202 . S
C331 C329 1.363 . S
C331 C333 1.408 . S
C331 C336 1.342 . S
C332 C333 1.310 . S
C332 C335 1.461 . S
C332 H352 0.932 . S
C333 C331 1.408 . S
C333 C332 1.310 . S
C333 H353 0.930 . S
C334 C335 1.474 . S
C334 C336 1.285 . S
C334 H354 0.929 . S
C335 C332 1.461 . S
C335 C334 1.474 . S
C336 C331 1.342 . S
C336 C334 1.285 . S
C336 H355 0.930 . S
C337 C340 1.424 . S
C337 C342 1.245 . S
C337 C343 1.428 . S
C338 C341 1.260 . S
C338 C342 1.477 . S
C338 H356 0.932 . S
C339 C340 1.384 . S
C339 C341 1.479 . S
C339 H357 0.929 . S
C340 C337 1.424 . S
C340 C339 1.384 . S
C340 H358 0.928 . S
C341 C338 1.260 . S
C341 C339 1.479 . S
C342 C337 1.245 . S
C342 C338 1.477 . S
C342 H359 0.932 . S
C343 U326 2.882 . S
C343 C337 1.428 . S
C343 O346 1.301 . S
C343 O347 1.282 . S
O344 U326 2.441 . S
O344 C330 1.249 . S
O345 U326 2.420 . S
O345 C330 1.202 . S
O346 U326 2.455 . S
O346 C343 1.301 . S
O347 U326 2.449 . S
O347 C343 1.282 . S
H348 C321 0.931 . S
H349 C323 0.929 . S
H350 C324 0.930 . S
H351 C325 0.931 . S
H352 C332 0.932 . S
H353 C333 0.930 . S
H354 C334 0.929 . S
H355 C336 0.930 . S
H356 C338 0.932 . S
H357 C339 0.929 . S
H358 C340 0.928 . S
H359 C342 0.932 . S
C360 C361 1.264 . S
C360 C365 1.479 . S
C360 C370 1.465 . S
C361 C360 1.264 . S
C361 C363 1.339 . S
C361 H388 0.931 . S
C362 C363 1.395 . S
C362 C364 1.320 . S
C363 C361 1.339 . S
C363 C362 1.395 . S
C363 H389 0.929 . S
C364 C362 1.320 . S
C364 C365 1.405 . S
C364 H390 0.930 . S
C365 C360 1.479 . S
C365 C364 1.405 . S
C365 H391 0.931 . S
U366 O367 2.454 . S
U366 O368 2.458 . S
U366 C369 2.984 . S
U366 C370 2.847 . S
U366 C383 2.882 . S
U366 O384 2.441 . S
U366 O385 2.420 . S
U366 O386 2.455 . S
U366 O387 2.449 . S
O367 U366 2.454 . S
O367 C369 1.353 . S
O368 U366 2.458 . S
O368 C369 1.286 . S
C369 U366 2.984 . S
C369 O367 1.353 . S
C369 O368 1.286 . S
C369 C371 1.363 . S
C370 C360 1.465 . S
C370 U366 2.847 . S
C370 O384 1.249 . S
C370 O385 1.202 . S
C371 C369 1.363 . S
C371 C373 1.408 . S
C371 C376 1.342 . S
C372 C373 1.310 . S
C372 C375 1.461 . S
C372 H392 0.932 . S
C373 C371 1.408 . S
C373 C372 1.310 . S
C373 H393 0.930 . S
C374 C375 1.474 . S
C374 C376 1.292 . S
C374 H394 0.922 1_455 S
C375 C372 1.461 . S
C375 C374 1.474 . S
C376 C371 1.342 . S
C376 C374 1.292 . S
C376 H395 0.931 . S
C377 C380 1.424 . S
C377 C382 1.245 . S
C377 C383 1.428 . S
C378 C381 1.254 1_455 S
C378 C382 1.477 . S
C378 H396 0.932 . S
C379 C380 1.384 . S
C379 C381 1.470 1_455 S
C379 H397 0.929 . S
C380 C377 1.424 . S
C380 C379 1.384 . S
C380 H398 0.928 . S
C381 C378 1.254 1_655 S
C381 C379 1.470 1_655 S
C382 C377 1.245 . S
C382 C378 1.477 . S
C382 H399 0.932 . S
C383 U366 2.882 . S
C383 C377 1.428 . S
C383 O386 1.301 . S
C383 O387 1.282 . S
O384 U366 2.441 . S
O384 C370 1.249 . S
O385 U366 2.420 . S
O385 C370 1.202 . S
O386 U366 2.455 . S
O386 C383 1.301 . S
O387 U366 2.449 . S
O387 C383 1.282 . S
H388 C361 0.931 . S
H389 C363 0.929 . S
H390 C364 0.930 . S
H391 C365 0.931 . S
H392 C372 0.932 . S
H393 C373 0.930 . S
H394 C374 0.922 1_655 S
H395 C376 0.931 . S
H396 C378 0.932 . S
H397 C379 0.929 . S
H398 C380 0.928 . S
H399 C382 0.932 . S
C400 C401 1.264 . S
C400 C405 1.479 . S
C400 C410 1.465 . S
C401 C400 1.264 . S
C401 C403 1.339 . S
C401 H428 0.931 . S
C402 C403 1.395 . S
C402 C404 1.320 . S
C403 C401 1.339 . S
C403 C402 1.395 . S
C403 H429 0.929 . S
C404 C402 1.320 . S
C404 C405 1.405 . S
C404 H430 0.930 . S
C405 C400 1.479 . S
C405 C404 1.405 . S
C405 H431 0.931 . S
U406 O407 2.454 . S
U406 O408 2.458 . S
U406 C409 2.984 . S
U406 C410 2.847 . S
U406 C423 2.882 . S
U406 O424 2.441 . S
U406 O425 2.420 . S
U406 O426 2.455 . S
U406 O427 2.449 . S
O407 U406 2.454 . S
O407 C409 1.353 . S
O408 U406 2.458 . S
O408 C409 1.286 . S
C409 U406 2.984 . S
C409 O407 1.353 . S
C409 O408 1.286 . S
C409 C411 1.363 . S
C410 C400 1.465 . S
C410 U406 2.847 . S
C410 O424 1.249 . S
C410 O425 1.202 . S
C411 C409 1.363 . S
C411 C413 1.408 . S
C411 C416 1.342 . S
C412 C413 1.310 . S
C412 C415 1.461 . S
C412 H432 0.932 . S
C413 C411 1.408 . S
C413 C412 1.310 . S
C413 H433 0.930 . S
C414 C415 1.474 . S
C414 C416 1.285 . S
C414 H434 0.929 . S
C415 C412 1.461 . S
C415 C414 1.474 . S
C416 C411 1.342 . S
C416 C414 1.285 . S
C416 H435 0.930 . S
C417 C420 1.424 . S
C417 C422 1.245 . S
C417 C423 1.428 . S
C418 C421 1.260 . S
C418 C422 1.477 . S
C418 H436 0.932 . S
C419 C420 1.384 . S
C419 C421 1.479 . S
C419 H437 0.929 . S
C420 C417 1.424 . S
C420 C419 1.384 . S
C420 H438 0.928 . S
C421 C418 1.260 . S
C421 C419 1.479 . S
C422 C417 1.245 . S
C422 C418 1.477 . S
C422 H439 0.932 . S
C423 U406 2.882 . S
C423 C417 1.428 . S
C423 O426 1.301 . S
C423 O427 1.282 . S
O424 U406 2.441 . S
O424 C410 1.249 . S
O425 U406 2.420 . S
O425 C410 1.202 . S
O426 U406 2.455 . S
O426 C423 1.301 . S
O427 U406 2.449 . S
O427 C423 1.282 . S
H428 C401 0.931 . S
H429 C403 0.929 . S
H430 C404 0.930 . S
H431 C405 0.931 . S
H432 C412 0.932 . S
H433 C413 0.930 . S
H434 C414 0.929 . S
H435 C416 0.930 . S
H436 C418 0.932 . S
H437 C419 0.929 . S
H438 C420 0.928 . S
H439 C422 0.932 . S
C440 C441 1.264 . S
C440 C445 1.479 . S
C440 C450 1.465 . S
C441 C440 1.264 . S
C441 C443 1.339 . S
C441 H468 0.931 . S
C442 C443 1.395 . S
C442 C444 1.320 . S
C443 C441 1.339 . S
C443 C442 1.395 . S
C443 H469 0.929 . S
C444 C442 1.320 . S
C444 C445 1.405 . S
C444 H470 0.924 1_655 S
C445 C440 1.479 . S
C445 C444 1.405 . S
C445 H471 0.931 . S
U446 O447 2.454 . S
U446 O448 2.458 . S
U446 C449 2.984 . S
U446 C450 2.847 . S
U446 C463 2.882 . S
U446 O464 2.441 . S
U446 O465 2.420 . S
U446 O466 2.455 . S
U446 O467 2.449 . S
O447 U446 2.454 . S
O447 C449 1.353 . S
O448 U446 2.458 . S
O448 C449 1.286 . S
C449 U446 2.984 . S
C449 O447 1.353 . S
C449 O448 1.286 . S
C449 C451 1.363 . S
C450 C440 1.465 . S
C450 U446 2.847 . S
C450 O464 1.249 . S
C450 O465 1.202 . S
C451 C449 1.363 . S
C451 C453 1.408 . S
C451 C456 1.342 . S
C452 C453 1.310 . S
C452 C455 1.461 . S
C452 H472 0.932 . S
C453 C451 1.408 . S
C453 C452 1.310 . S
C453 H473 0.930 . S
C454 C455 1.473 1_455 S
C454 C456 1.285 1_455 S
C454 H474 0.931 . S
C455 C452 1.461 . S
C455 C454 1.473 1_655 S
C456 C451 1.342 . S
C456 C454 1.285 1_655 S
C456 H475 0.934 . S
C457 C460 1.424 . S
C457 C462 1.245 . S
C457 C463 1.428 . S
C458 C461 1.260 . S
C458 C462 1.477 . S
C458 H476 0.932 . S
C459 C460 1.384 . S
C459 C461 1.479 . S
C459 H477 0.929 . S
C460 C457 1.424 . S
C460 C459 1.384 . S
C460 H478 0.928 . S
C461 C458 1.260 . S
C461 C459 1.479 . S
C462 C457 1.245 . S
C462 C458 1.477 . S
C462 H479 0.932 . S
C463 U446 2.882 . S
C463 C457 1.428 . S
C463 O466 1.301 . S
C463 O467 1.282 . S
O464 U446 2.441 . S
O464 C450 1.249 . S
O465 U446 2.420 . S
O465 C450 1.202 . S
O466 U446 2.455 . S
O466 C463 1.301 . S
O467 U446 2.449 . S
O467 C463 1.282 . S
H468 C441 0.931 . S
H469 C443 0.929 . S
H470 C444 0.924 1_455 S
H471 C445 0.931 . S
H472 C452 0.932 . S
H473 C453 0.930 . S
H474 C454 0.931 . S
H475 C456 0.934 . S
H476 C458 0.932 . S
H477 C459 0.929 . S
H478 C460 0.928 . S
H479 C462 0.932 . S
C480 C481 1.264 . S
C480 C485 1.479 . S
C480 C490 1.465 . S
C481 C480 1.264 . S
C481 C483 1.339 . S
C481 H508 0.931 . S
C482 C483 1.395 . S
C482 C484 1.320 . S
C483 C481 1.339 . S
C483 C482 1.395 . S
C483 H509 0.929 . S
C484 C482 1.320 . S
C484 C485 1.405 . S
C484 H510 0.930 . S
C485 C480 1.479 . S
C485 C484 1.405 . S
C485 H511 0.931 . S
U486 O487 2.454 . S
U486 O488 2.458 . S
U486 C489 2.984 . S
U486 C490 2.847 . S
U486 C503 2.882 . S
U486 O504 2.441 . S
U486 O505 2.420 . S
U486 O506 2.455 . S
U486 O507 2.449 . S
O487 U486 2.454 . S
O487 C489 1.353 . S
O488 U486 2.458 . S
O488 C489 1.286 . S
C489 U486 2.984 . S
C489 O487 1.353 . S
C489 O488 1.286 . S
C489 C491 1.363 . S
C490 C480 1.465 . S
C490 U486 2.847 . S
C490 O504 1.249 . S
C490 O505 1.202 . S
C491 C489 1.363 . S
C491 C493 1.408 . S
C491 C496 1.342 . S
C492 C493 1.310 . S
C492 C495 1.461 . S
C492 H512 0.932 . S
C493 C491 1.408 . S
C493 C492 1.310 . S
C493 H513 0.930 . S
C494 C495 1.474 . S
C494 C496 1.285 . S
C494 H514 0.929 . S
C495 C492 1.461 . S
C495 C494 1.474 . S
C496 C491 1.342 . S
C496 C494 1.285 . S
C496 H515 0.930 . S
C497 C500 1.424 . S
C497 C502 1.245 . S
C497 C503 1.428 . S
C498 C501 1.260 . S
C498 C502 1.477 . S
C498 H516 0.932 . S
C499 C500 1.384 . S
C499 C501 1.479 . S
C499 H517 0.929 . S
C500 C497 1.424 . S
C500 C499 1.384 . S
C500 H518 0.928 . S
C501 C498 1.260 . S
C501 C499 1.479 . S
C502 C497 1.245 . S
C502 C498 1.477 . S
C502 H519 0.932 . S
C503 U486 2.882 . S
C503 C497 1.428 . S
C503 O506 1.301 . S
C503 O507 1.282 . S
O504 U486 2.441 . S
O504 C490 1.249 . S
O505 U486 2.420 . S
O505 C490 1.202 . S
O506 U486 2.455 . S
O506 C503 1.301 . S
O507 U486 2.449 . S
O507 C503 1.282 . S
H508 C481 0.931 . S
H509 C483 0.929 . S
H510 C484 0.930 . S
H511 C485 0.931 . S
H512 C492 0.932 . S
H513 C493 0.930 . S
H514 C494 0.929 . S
H515 C496 0.930 . S
H516 C498 0.932 . S
H517 C499 0.929 . S
H518 C500 0.928 . S
H519 C502 0.932 . S
C520 C521 1.264 . S
C520 C525 1.479 . S
C520 C530 1.465 . S
C521 C520 1.264 . S
C521 C523 1.339 . S
C521 H548 0.931 . S
C522 C523 1.395 . S
C522 C524 1.320 . S
C523 C521 1.339 . S
C523 C522 1.395 . S
C523 H549 0.929 . S
C524 C522 1.320 . S
C524 C525 1.405 . S
C524 H550 0.930 . S
C525 C520 1.479 . S
C525 C524 1.405 . S
C525 H551 0.931 . S
U526 O527 2.454 . S
U526 O528 2.458 . S
U526 C529 2.984 . S
U526 C530 2.847 . S
U526 C543 2.882 . S
U526 O544 2.441 . S
U526 O545 2.420 . S
U526 O546 2.455 . S
U526 O547 2.449 . S
O527 U526 2.454 . S
O527 C529 1.353 . S
O528 U526 2.458 . S
O528 C529 1.286 . S
C529 U526 2.984 . S
C529 O527 1.353 . S
C529 O528 1.286 . S
C529 C531 1.363 . S
C530 C520 1.465 . S
C530 U526 2.847 . S
C530 O544 1.249 . S
C530 O545 1.202 . S
C531 C529 1.363 . S
C531 C533 1.408 . S
C531 C536 1.342 . S
C532 C533 1.310 . S
C532 C535 1.461 . S
C532 H552 0.932 . S
C533 C531 1.408 . S
C533 C532 1.310 . S
C533 H553 0.930 . S
C534 C535 1.474 . S
C534 C536 1.285 . S
C534 H554 0.929 . S
C535 C532 1.461 . S
C535 C534 1.474 . S
C536 C531 1.342 . S
C536 C534 1.285 . S
C536 H555 0.930 . S
C537 C540 1.424 . S
C537 C542 1.245 . S
C537 C543 1.428 . S
C538 C541 1.260 . S
C538 C542 1.477 . S
C538 H556 0.932 . S
C539 C540 1.384 . S
C539 C541 1.479 . S
C539 H557 0.929 . S
C540 C537 1.424 . S
C540 C539 1.384 . S
C540 H558 0.928 . S
C541 C538 1.260 . S
C541 C539 1.479 . S
C542 C537 1.245 . S
C542 C538 1.477 . S
C542 H559 0.932 . S
C543 U526 2.882 . S
C543 C537 1.428 . S
C543 O546 1.301 . S
C543 O547 1.282 . S
O544 U526 2.441 . S
O544 C530 1.249 . S
O545 U526 2.420 . S
O545 C530 1.202 . S
O546 U526 2.455 . S
O546 C543 1.301 . S
O547 U526 2.449 . S
O547 C543 1.282 . S
H548 C521 0.931 . S
H549 C523 0.929 . S
H550 C524 0.930 . S
H551 C525 0.931 . S
H552 C532 0.932 . S
H553 C533 0.930 . S
H554 C534 0.929 . S
H555 C536 0.930 . S
H556 C538 0.932 . S
H557 C539 0.929 . S
H558 C540 0.928 . S
H559 C542 0.932 . S
C560 C561 1.264 . S
C560 C565 1.479 . S
C560 C570 1.465 . S
C561 C560 1.264 . S
C561 C563 1.339 . S
C561 H588 0.931 . S
C562 C563 1.395 . S
C562 C564 1.320 . S
C563 C561 1.339 . S
C563 C562 1.395 . S
C563 H589 0.929 . S
C564 C562 1.320 . S
C564 C565 1.405 . S
C564 H590 0.921 1_565 S
C565 C560 1.479 . S
C565 C564 1.405 . S
C565 H591 0.931 . S
U566 O567 2.454 . S
U566 O568 2.458 . S
U566 C569 2.984 . S
U566 C570 2.847 . S
U566 C583 2.882 . S
U566 O584 2.441 . S
U566 O585 2.420 . S
U566 O586 2.455 . S
U566 O587 2.449 . S
O567 U566 2.454 . S
O567 C569 1.353 . S
O568 U566 2.458 . S
O568 C569 1.286 . S
C569 U566 2.984 . S
C569 O567 1.353 . S
C569 O568 1.286 . S
C569 C571 1.363 . S
C570 C560 1.465 . S
C570 U566 2.847 . S
C570 O584 1.249 . S
C570 O585 1.202 . S
C571 C569 1.363 . S
C571 C573 1.408 . S
C571 C576 1.342 . S
C572 C573 1.310 . S
C572 C575 1.460 . S
C572 H592 0.932 . S
C573 C571 1.408 . S
C573 C572 1.310 . S
C573 H593 0.930 . S
C574 C575 1.475 1_545 S
C574 C576 1.286 1_545 S
C574 H594 0.929 . S
C575 C572 1.460 . S
C575 C574 1.475 1_565 S
C576 C571 1.342 . S
C576 C574 1.286 1_565 S
C576 H595 0.930 . S
C577 C580 1.424 . S
C577 C582 1.245 . S
C577 C583 1.428 . S
C578 C581 1.260 . S
C578 C582 1.477 . S
C578 H596 0.932 . S
C579 C580 1.384 . S
C579 C581 1.479 . S
C579 H597 0.929 . S
C580 C577 1.424 . S
C580 C579 1.384 . S
C580 H598 0.928 . S
C581 C578 1.260 . S
C581 C579 1.479 . S
C582 C577 1.245 . S
C582 C578 1.477 . S
C582 H599 0.932 . S
C583 U566 2.882 . S
C583 C577 1.428 . S
C583 O586 1.301 . S
C583 O587 1.282 . S
O584 U566 2.441 . S
O584 C570 1.249 . S
O585 U566 2.420 . S
O585 C570 1.202 . S
O586 U566 2.455 . S
O586 C583 1.301 . S
O587 U566 2.449 . S
O587 C583 1.282 . S
H588 C561 0.931 . S
H589 C563 0.929 . S
H590 C564 0.921 1_545 S
H591 C565 0.931 . S
H592 C572 0.932 . S
H593 C573 0.930 . S
H594 C574 0.929 . S
H595 C576 0.930 . S
H596 C578 0.932 . S
H597 C579 0.929 . S
H598 C580 0.928 . S
H599 C582 0.932 . S
C600 C601 1.264 . S
C600 C605 1.479 . S
C600 C610 1.465 . S
C601 C600 1.264 . S
C601 C603 1.339 . S
C601 H628 0.931 . S
C602 C603 1.402 . S
C602 C604 1.323 . S
C603 C601 1.339 . S
C603 C602 1.402 . S
C603 H629 0.929 . S
C604 C602 1.323 . S
C604 C605 1.404 . S
C604 H630 0.930 1_545 S
C605 C600 1.479 . S
C605 C604 1.404 . S
C605 H631 0.931 . S
U606 O607 2.454 . S
U606 O608 2.458 . S
U606 C609 2.984 . S
U606 C610 2.847 . S
U606 C623 2.882 . S
U606 O624 2.441 . S
U606 O625 2.420 . S
U606 O626 2.455 . S
U606 O627 2.449 . S
O607 U606 2.454 . S
O607 C609 1.353 . S
O608 U606 2.458 . S
O608 C609 1.286 . S
C609 U606 2.984 . S
C609 O607 1.353 . S
C609 O608 1.286 . S
C609 C611 1.363 . S
C610 C600 1.465 . S
C610 U606 2.847 . S
C610 O624 1.249 . S
C610 O625 1.202 . S
C611 C609 1.363 . S
C611 C613 1.408 . S
C611 C616 1.347 . S
C612 C613 1.310 1_565 S
C612 C615 1.462 . S
C612 H632 0.932 . S
C613 C611 1.408 . S
C613 C612 1.310 1_545 S
C613 H633 0.930 . S
C614 C615 1.472 . S
C614 C616 1.289 1_565 S
C614 H634 0.935 . S
C615 C612 1.462 . S
C615 C614 1.472 . S
C616 C611 1.347 . S
C616 C614 1.289 1_545 S
C616 H635 0.930 . S
C617 C620 1.424 . S
C617 C622 1.245 . S
C617 C623 1.428 . S
C618 C621 1.260 . S
C618 C622 1.477 . S
C618 H636 0.932 . S
C619 C620 1.384 . S
C619 C621 1.479 . S
C619 H637 0.929 . S
C620 C617 1.424 . S
C620 C619 1.384 . S
C620 H638 0.928 . S
C621 C618 1.260 . S
C621 C619 1.479 . S
C622 C617 1.245 . S
C622 C618 1.477 . S
C622 H639 0.932 . S
C623 U606 2.882 . S
C623 C617 1.428 . S
C623 O626 1.301 . S
C623 O627 1.282 . S
O624 U606 2.441 . S
O624 C610 1.249 . S
O625 U606 2.420 . S
O625 C610 1.202 . S
O626 U606 2.455 . S
O626 C623 1.301 . S
O627 U606 2.449 . S
O627 C623 1.282 . S
H628 C601 0.931 . S
H629 C603 0.929 . S
H630 C604 0.930 1_565 S
H631 C605 0.931 . S
H632 C612 0.932 . S
H633 C613 0.930 . S
H634 C614 0.935 . S
H635 C616 0.930 . S
H636 C618 0.932 . S
H637 C619 0.929 . S
H638 C620 0.928 . S
H639 C622 0.932 . S
C640 C641 1.264 . S
C640 C645 1.479 . S
C640 C650 1.465 . S
C641 C640 1.264 . S
C641 C643 1.339 . S
C641 H668 0.931 . S
C642 C643 1.395 . S
C642 C644 1.320 . S
C643 C641 1.339 . S
C643 C642 1.395 . S
C643 H669 0.929 . S
C644 C642 1.320 . S
C644 C645 1.405 . S
C644 H670 0.930 . S
C645 C640 1.479 . S
C645 C644 1.405 . S
C645 H671 0.931 . S
U646 O647 2.454 . S
U646 O648 2.458 . S
U646 C649 2.984 . S
U646 C650 2.847 . S
U646 C663 2.882 . S
U646 O664 2.441 . S
U646 O665 2.420 . S
U646 O666 2.455 . S
U646 O667 2.449 . S
O647 U646 2.454 . S
O647 C649 1.353 . S
O648 U646 2.458 . S
O648 C649 1.286 . S
C649 U646 2.984 . S
C649 O647 1.353 . S
C649 O648 1.286 . S
C649 C651 1.363 . S
C650 C640 1.465 . S
C650 U646 2.847 . S
C650 O664 1.249 . S
C650 O665 1.202 . S
C651 C649 1.363 . S
C651 C653 1.408 . S
C651 C656 1.342 . S
C652 C653 1.310 . S
C652 C655 1.461 . S
C652 H672 0.932 . S
C653 C651 1.408 . S
C653 C652 1.310 . S
C653 H673 0.930 . S
C654 C655 1.474 . S
C654 C656 1.285 . S
C654 H674 0.929 . S
C655 C652 1.461 . S
C655 C654 1.474 . S
C656 C651 1.342 . S
C656 C654 1.285 . S
C656 H675 0.930 . S
C657 C660 1.424 . S
C657 C662 1.245 . S
C657 C663 1.428 . S
C658 C661 1.260 . S
C658 C662 1.477 . S
C658 H676 0.932 . S
C659 C660 1.384 . S
C659 C661 1.479 . S
C659 H677 0.929 . S
C660 C657 1.424 . S
C660 C659 1.384 . S
C660 H678 0.928 . S
C661 C658 1.260 . S
C661 C659 1.479 . S
C662 C657 1.245 . S
C662 C658 1.477 . S
C662 H679 0.932 . S
C663 U646 2.882 . S
C663 C657 1.428 . S
C663 O666 1.301 . S
C663 O667 1.282 . S
O664 U646 2.441 . S
O664 C650 1.249 . S
O665 U646 2.420 . S
O665 C650 1.202 . S
O666 U646 2.455 . S
O666 C663 1.301 . S
O667 U646 2.449 . S
O667 C663 1.282 . S
H668 C641 0.931 . S
H669 C643 0.929 . S
H670 C644 0.930 . S
H671 C645 0.931 . S
H672 C652 0.932 . S
H673 C653 0.930 . S
H674 C654 0.929 . S
H675 C656 0.930 . S
H676 C658 0.932 . S
H677 C659 0.929 . S
H678 C660 0.928 . S
H679 C662 0.932 . S
C680 C681 1.264 . S
C680 C685 1.479 . S
C680 C690 1.465 . S
C681 C680 1.264 . S
C681 C683 1.339 . S
C681 H708 0.931 . S
C682 C683 1.402 . S
C682 C684 1.323 . S
C683 C681 1.339 . S
C683 C682 1.402 . S
C683 H709 0.929 . S
C684 C682 1.323 . S
C684 C685 1.404 . S
C684 H710 0.930 1_554 S
C685 C680 1.479 . S
C685 C684 1.404 . S
C685 H711 0.931 . S
U686 O687 2.454 . S
U686 O688 2.458 . S
U686 C689 2.984 . S
U686 C690 2.847 . S
U686 C703 2.882 . S
U686 O704 2.441 . S
U686 O705 2.420 . S
U686 O706 2.455 . S
U686 O707 2.449 . S
O687 U686 2.454 . S
O687 C689 1.353 . S
O688 U686 2.458 . S
O688 C689 1.286 . S
C689 U686 2.984 . S
C689 O687 1.353 . S
C689 O688 1.286 . S
C689 C691 1.363 . S
C690 C680 1.465 . S
C690 U686 2.847 . S
C690 O704 1.249 . S
C690 O705 1.202 . S
C691 C689 1.363 . S
C691 C693 1.408 . S
C691 C696 1.347 . S
C692 C693 1.310 1_556 S
C692 C695 1.462 . S
C692 H712 0.932 . S
C693 C691 1.408 . S
C693 C692 1.310 1_554 S
C693 H713 0.930 . S
C694 C695 1.472 . S
C694 C696 1.289 1_556 S
C694 H714 0.935 . S
C695 C692 1.462 . S
C695 C694 1.472 . S
C696 C691 1.347 . S
C696 C694 1.289 1_554 S
C696 H715 0.930 . S
C697 C700 1.424 . S
C697 C702 1.245 . S
C697 C703 1.428 . S
C698 C701 1.260 . S
C698 C702 1.477 . S
C698 H716 0.932 . S
C699 C700 1.384 . S
C699 C701 1.479 . S
C699 H717 0.929 . S
C700 C697 1.424 . S
C700 C699 1.384 . S
C700 H718 0.928 . S
C701 C698 1.260 . S
C701 C699 1.479 . S
C702 C697 1.245 . S
C702 C698 1.477 . S
C702 H719 0.932 . S
C703 U686 2.882 . S
C703 C697 1.428 . S
C703 O706 1.301 . S
C703 O707 1.282 . S
O704 U686 2.441 . S
O704 C690 1.249 . S
O705 U686 2.420 . S
O705 C690 1.202 . S
O706 U686 2.455 . S
O706 C703 1.301 . S
O707 U686 2.449 . S
O707 C703 1.282 . S
H708 C681 0.931 . S
H709 C683 0.929 . S
H710 C684 0.930 1_556 S
H711 C685 0.931 . S
H712 C692 0.932 . S
H713 C693 0.930 . S
H714 C694 0.935 . S
H715 C696 0.930 . S
H716 C698 0.932 . S
H717 C699 0.929 . S
H718 C700 0.928 . S
H719 C702 0.932 . S
C720 C721 1.264 . S
C720 C725 1.479 . S
C720 C730 1.465 . S
C721 C720 1.264 . S
C721 C723 1.339 . S
C721 H748 0.931 . S
C722 C723 1.395 . S
C722 C724 1.320 . S
C723 C721 1.339 . S
C723 C722 1.395 . S
C723 H749 0.929 . S
C724 C722 1.320 . S
C724 C725 1.405 . S
C724 H750 0.930 . S
C725 C720 1.479 . S
C725 C724 1.405 . S
C725 H751 0.931 . S
U726 O727 2.454 . S
U726 O728 2.458 . S
U726 C729 2.984 . S
U726 C730 2.847 . S
U726 C743 2.882 . S
U726 O744 2.441 . S
U726 O745 2.420 . S
U726 O746 2.455 . S
U726 O747 2.449 . S
O727 U726 2.454 . S
O727 C729 1.353 . S
O728 U726 2.458 . S
O728 C729 1.286 . S
C729 U726 2.984 . S
C729 O727 1.353 . S
C729 O728 1.286 . S
C729 C731 1.363 . S
C730 C720 1.465 . S
C730 U726 2.847 . S
C730 O744 1.249 . S
C730 O745 1.202 . S
C731 C729 1.363 . S
C731 C733 1.408 . S
C731 C736 1.342 . S
C732 C733 1.310 . S
C732 C735 1.461 . S
C732 H752 0.932 . S
C733 C731 1.408 . S
C733 C732 1.310 . S
C733 H753 0.930 . S
C734 C735 1.474 . S
C734 C736 1.285 . S
C734 H754 0.929 . S
C735 C732 1.461 . S
C735 C734 1.474 . S
C736 C731 1.342 . S
C736 C734 1.285 . S
C736 H755 0.930 . S
C737 C740 1.424 . S
C737 C742 1.245 . S
C737 C743 1.428 . S
C738 C741 1.260 . S
C738 C742 1.477 . S
C738 H756 0.932 . S
C739 C740 1.384 . S
C739 C741 1.479 . S
C739 H757 0.929 . S
C740 C737 1.424 . S
C740 C739 1.384 . S
C740 H758 0.928 . S
C741 C738 1.260 . S
C741 C739 1.479 . S
C742 C737 1.245 . S
C742 C738 1.477 . S
C742 H759 0.932 . S
C743 U726 2.882 . S
C743 C737 1.428 . S
C743 O746 1.301 . S
C743 O747 1.282 . S
O744 U726 2.441 . S
O744 C730 1.249 . S
O745 U726 2.420 . S
O745 C730 1.202 . S
O746 U726 2.455 . S
O746 C743 1.301 . S
O747 U726 2.449 . S
O747 C743 1.282 . S
H748 C721 0.931 . S
H749 C723 0.929 . S
H750 C724 0.930 . S
H751 C725 0.931 . S
H752 C732 0.932 . S
H753 C733 0.930 . S
H754 C734 0.929 . S
H755 C736 0.930 . S
H756 C738 0.932 . S
H757 C739 0.929 . S
H758 C740 0.928 . S
H759 C742 0.932 . S
C760 C761 1.264 . S
C760 C765 1.479 . S
C760 C770 1.465 . S
C761 C760 1.264 . S
C761 C763 1.339 . S
C761 H788 0.931 . S
C762 C763 1.395 . S
C762 C764 1.320 . S
C763 C761 1.339 . S
C763 C762 1.395 . S
C763 H789 0.929 . S
C764 C762 1.320 . S
C764 C765 1.405 . S
C764 H790 0.921 1_556 S
C765 C760 1.479 . S
C765 C764 1.405 . S
C765 H791 0.931 . S
U766 O767 2.454 . S
U766 O768 2.458 . S
U766 C769 2.984 . S
U766 C770 2.847 . S
U766 C783 2.882 . S
U766 O784 2.441 . S
U766 O785 2.420 . S
U766 O786 2.455 . S
U766 O787 2.449 . S
O767 U766 2.454 . S
O767 C769 1.353 . S
O768 U766 2.458 . S
O768 C769 1.286 . S
C769 U766 2.984 . S
C769 O767 1.353 . S
C769 O768 1.286 . S
C769 C771 1.363 . S
C770 C760 1.465 . S
C770 U766 2.847 . S
C770 O784 1.249 . S
C770 O785 1.202 . S
C771 C769 1.363 . S
C771 C773 1.408 . S
C771 C776 1.342 . S
C772 C773 1.310 . S
C772 C775 1.460 . S
C772 H792 0.932 . S
C773 C771 1.408 . S
C773 C772 1.310 . S
C773 H793 0.930 . S
C774 C775 1.475 1_554 S
C774 C776 1.286 1_554 S
C774 H794 0.929 . S
C775 C772 1.460 . S
C775 C774 1.475 1_556 S
C776 C771 1.342 . S
C776 C774 1.286 1_556 S
C776 H795 0.930 . S
C777 C780 1.424 . S
C777 C782 1.245 . S
C777 C783 1.428 . S
C778 C781 1.260 . S
C778 C782 1.477 . S
C778 H796 0.932 . S
C779 C780 1.384 . S
C779 C781 1.479 . S
C779 H797 0.929 . S
C780 C777 1.424 . S
C780 C779 1.384 . S
C780 H798 0.928 . S
C781 C778 1.260 . S
C781 C779 1.479 . S
C782 C777 1.245 . S
C782 C778 1.477 . S
C782 H799 0.932 . S
C783 U766 2.882 . S
C783 C777 1.428 . S
C783 O786 1.301 . S
C783 O787 1.282 . S
O784 U766 2.441 . S
O784 C770 1.249 . S
O785 U766 2.420 . S
O785 C770 1.202 . S
O786 U766 2.455 . S
O786 C783 1.301 . S
O787 U766 2.449 . S
O787 C783 1.282 . S
H788 C761 0.931 . S
H789 C763 0.929 . S
H790 C764 0.921 1_554 S
H791 C765 0.931 . S
H792 C772 0.932 . S
H793 C773 0.930 . S
H794 C774 0.929 . S
H795 C776 0.930 . S
H796 C778 0.932 . S
H797 C779 0.929 . S
H798 C780 0.928 . S
H799 C782 0.932 . S
C800 C801 1.264 . S
C800 C805 1.479 . S
C800 C810 1.465 . S
C801 C800 1.264 . S
C801 C803 1.339 . S
C801 H828 0.931 . S
C802 C803 1.395 . S
C802 C804 1.320 . S
C803 C801 1.339 . S
C803 C802 1.395 . S
C803 H829 0.929 . S
C804 C802 1.320 . S
C804 C805 1.405 . S
C804 H830 0.930 . S
C805 C800 1.479 . S
C805 C804 1.405 . S
C805 H831 0.931 . S
U806 O807 2.454 . S
U806 O808 2.458 . S
U806 C809 2.984 . S
U806 C810 2.847 . S
U806 C823 2.882 . S
U806 O824 2.441 . S
U806 O825 2.420 . S
U806 O826 2.455 . S
U806 O827 2.449 . S
O807 U806 2.454 . S
O807 C809 1.353 . S
O808 U806 2.458 . S
O808 C809 1.286 . S
C809 U806 2.984 . S
C809 O807 1.353 . S
C809 O808 1.286 . S
C809 C811 1.363 . S
C810 C800 1.465 . S
C810 U806 2.847 . S
C810 O824 1.249 . S
C810 O825 1.202 . S
C811 C809 1.363 . S
C811 C813 1.408 . S
C811 C816 1.342 . S
C812 C813 1.310 . S
C812 C815 1.461 . S
C812 H832 0.932 . S
C813 C811 1.408 . S
C813 C812 1.310 . S
C813 H833 0.930 . S
C814 C815 1.474 . S
C814 C816 1.285 . S
C814 H834 0.929 . S
C815 C812 1.461 . S
C815 C814 1.474 . S
C816 C811 1.342 . S
C816 C814 1.285 . S
C816 H835 0.930 . S
C817 C820 1.424 . S
C817 C822 1.245 . S
C817 C823 1.428 . S
C818 C821 1.260 . S
C818 C822 1.477 . S
C818 H836 0.932 . S
C819 C820 1.384 . S
C819 C821 1.479 . S
C819 H837 0.929 . S
C820 C817 1.424 . S
C820 C819 1.384 . S
C820 H838 0.928 . S
C821 C818 1.260 . S
C821 C819 1.479 . S
C822 C817 1.245 . S
C822 C818 1.477 . S
C822 H839 0.932 . S
C823 U806 2.882 . S
C823 C817 1.428 . S
C823 O826 1.301 . S
C823 O827 1.282 . S
O824 U806 2.441 . S
O824 C810 1.249 . S
O825 U806 2.420 . S
O825 C810 1.202 . S
O826 U806 2.455 . S
O826 C823 1.301 . S
O827 U806 2.449 . S
O827 C823 1.282 . S
H828 C801 0.931 . S
H829 C803 0.929 . S
H830 C804 0.930 . S
H831 C805 0.931 . S
H832 C812 0.932 . S
H833 C813 0.930 . S
H834 C814 0.929 . S
H835 C816 0.930 . S
H836 C818 0.932 . S
H837 C819 0.929 . S
H838 C820 0.928 . S
H839 C822 0.932 . S
C840 C841 1.264 . S
C840 C845 1.479 . S
C840 C850 1.465 . S
C841 C840 1.264 . S
C841 C843 1.339 . S
C841 H868 0.931 . S
C842 C843 1.402 . S
C842 C844 1.323 . S
C843 C841 1.339 . S
C843 C842 1.402 . S
C843 H869 0.929 . S
C844 C842 1.323 . S
C844 C845 1.404 . S
C844 H870 0.930 1_455 S
C845 C840 1.479 . S
C845 C844 1.404 . S
C845 H871 0.931 . S
U846 O847 2.454 . S
U846 O848 2.458 . S
U846 C849 2.984 . S
U846 C850 2.847 . S
U846 C863 2.882 . S
U846 O864 2.441 . S
U846 O865 2.420 . S
U846 O866 2.455 . S
U846 O867 2.449 . S
O847 U846 2.454 . S
O847 C849 1.353 . S
O848 U846 2.458 . S
O848 C849 1.286 . S
C849 U846 2.984 . S
C849 O847 1.353 . S
C849 O848 1.286 . S
C849 C851 1.363 . S
C850 C840 1.465 . S
C850 U846 2.847 . S
C850 O864 1.249 . S
C850 O865 1.202 . S
C851 C849 1.363 . S
C851 C853 1.408 . S
C851 C856 1.347 . S
C852 C853 1.310 1_655 S
C852 C855 1.462 . S
C852 H872 0.932 . S
C853 C851 1.408 . S
C853 C852 1.310 1_455 S
C853 H873 0.930 . S
C854 C855 1.472 . S
C854 C856 1.289 1_655 S
C854 H874 0.935 . S
C855 C852 1.462 . S
C855 C854 1.472 . S
C856 C851 1.347 . S
C856 C854 1.289 1_455 S
C856 H875 0.930 . S
C857 C860 1.424 . S
C857 C862 1.245 . S
C857 C863 1.428 . S
C858 C861 1.260 . S
C858 C862 1.477 . S
C858 H876 0.932 . S
C859 C860 1.384 . S
C859 C861 1.479 . S
C859 H877 0.929 . S
C860 C857 1.424 . S
C860 C859 1.384 . S
C860 H878 0.928 . S
C861 C858 1.260 . S
C861 C859 1.479 . S
C862 C857 1.245 . S
C862 C858 1.477 . S
C862 H879 0.932 . S
C863 U846 2.882 . S
C863 C857 1.428 . S
C863 O866 1.301 . S
C863 O867 1.282 . S
O864 U846 2.441 . S
O864 C850 1.249 . S
O865 U846 2.420 . S
O865 C850 1.202 . S
O866 U846 2.455 . S
O866 C863 1.301 . S
O867 U846 2.449 . S
O867 C863 1.282 . S
H868 C841 0.931 . S
H869 C843 0.929 . S
H870 C844 0.930 1_655 S
H871 C845 0.931 . S
H872 C852 0.932 . S
H873 C853 0.930 . S
H874 C854 0.935 . S
H875 C856 0.930 . S
H876 C858 0.932 . S
H877 C859 0.929 . S
H878 C860 0.928 . S
H879 C862 0.932 . S
C880 C881 1.264 . S
C880 C885 1.479 . S
C880 C890 1.465 . S
C881 C880 1.264 . S
C881 C883 1.339 . S
C881 H908 0.931 . S
C882 C883 1.395 . S
C882 C884 1.320 . S
C883 C881 1.339 . S
C883 C882 1.395 . S
C883 H909 0.929 . S
C884 C882 1.320 . S
C884 C885 1.405 . S
C884 H910 0.930 . S
C885 C880 1.479 . S
C885 C884 1.405 . S
C885 H911 0.931 . S
U886 O887 2.454 . S
U886 O888 2.458 . S
U886 C889 2.984 . S
U886 C890 2.847 . S
U886 C903 2.882 . S
U886 O904 2.441 . S
U886 O905 2.420 . S
U886 O906 2.455 . S
U886 O907 2.449 . S
O887 U886 2.454 . S
O887 C889 1.353 . S
O888 U886 2.458 . S
O888 C889 1.286 . S
C889 U886 2.984 . S
C889 O887 1.353 . S
C889 O888 1.286 . S
C889 C891 1.363 . S
C890 C880 1.465 . S
C890 U886 2.847 . S
C890 O904 1.249 . S
C890 O905 1.202 . S
C891 C889 1.363 . S
C891 C893 1.408 . S
C891 C896 1.342 . S
C892 C893 1.310 . S
C892 C895 1.461 . S
C892 H912 0.932 . S
C893 C891 1.408 . S
C893 C892 1.310 . S
C893 H913 0.930 . S
C894 C895 1.474 . S
C894 C896 1.285 . S
C894 H914 0.929 . S
C895 C892 1.461 . S
C895 C894 1.474 . S
C896 C891 1.342 . S
C896 C894 1.285 . S
C896 H915 0.930 . S
C897 C900 1.424 . S
C897 C902 1.245 . S
C897 C903 1.428 . S
C898 C901 1.260 . S
C898 C902 1.477 . S
C898 H916 0.932 . S
C899 C900 1.384 . S
C899 C901 1.479 . S
C899 H917 0.929 . S
C900 C897 1.424 . S
C900 C899 1.384 . S
C900 H918 0.928 . S
C901 C898 1.260 . S
C901 C899 1.479 . S
C902 C897 1.245 . S
C902 C898 1.477 . S
C902 H919 0.932 . S
C903 U886 2.882 . S
C903 C897 1.428 . S
C903 O906 1.301 . S
C903 O907 1.282 . S
O904 U886 2.441 . S
O904 C890 1.249 . S
O905 U886 2.420 . S
O905 C890 1.202 . S
O906 U886 2.455 . S
O906 C903 1.301 . S
O907 U886 2.449 . S
O907 C903 1.282 . S
H908 C881 0.931 . S
H909 C883 0.929 . S
H910 C884 0.930 . S
H911 C885 0.931 . S
H912 C892 0.932 . S
H913 C893 0.930 . S
H914 C894 0.929 . S
H915 C896 0.930 . S
H916 C898 0.932 . S
H917 C899 0.929 . S
H918 C900 0.928 . S
H919 C902 0.932 . S
C920 C921 1.264 . S
C920 C925 1.479 . S
C920 C930 1.465 . S
C921 C920 1.264 . S
C921 C923 1.339 . S
C921 H948 0.931 . S
C922 C923 1.395 . S
C922 C924 1.320 . S
C923 C921 1.339 . S
C923 C922 1.395 . S
C923 H949 0.929 . S
C924 C922 1.320 . S
C924 C925 1.405 . S
C924 H950 0.921 1_655 S
C925 C920 1.479 . S
C925 C924 1.405 . S
C925 H951 0.931 . S
U926 O927 2.454 . S
U926 O928 2.458 . S
U926 C929 2.984 . S
U926 C930 2.847 . S
U926 C943 2.882 . S
U926 O944 2.441 . S
U926 O945 2.420 . S
U926 O946 2.455 . S
U926 O947 2.449 . S
O927 U926 2.454 . S
O927 C929 1.353 . S
O928 U926 2.458 . S
O928 C929 1.286 . S
C929 U926 2.984 . S
C929 O927 1.353 . S
C929 O928 1.286 . S
C929 C931 1.363 . S
C930 C920 1.465 . S
C930 U926 2.847 . S
C930 O944 1.249 . S
C930 O945 1.202 . S
C931 C929 1.363 . S
C931 C933 1.408 . S
C931 C936 1.342 . S
C932 C933 1.310 . S
C932 C935 1.460 . S
C932 H952 0.932 . S
C933 C931 1.408 . S
C933 C932 1.310 . S
C933 H953 0.930 . S
C934 C935 1.475 1_455 S
C934 C936 1.286 1_455 S
C934 H954 0.929 . S
C935 C932 1.460 . S
C935 C934 1.475 1_655 S
C936 C931 1.342 . S
C936 C934 1.286 1_655 S
C936 H955 0.930 . S
C937 C940 1.424 . S
C937 C942 1.245 . S
C937 C943 1.428 . S
C938 C941 1.260 . S
C938 C942 1.477 . S
C938 H956 0.932 . S
C939 C940 1.384 . S
C939 C941 1.479 . S
C939 H957 0.929 . S
C940 C937 1.424 . S
C940 C939 1.384 . S
C940 H958 0.928 . S
C941 C938 1.260 . S
C941 C939 1.479 . S
C942 C937 1.245 . S
C942 C938 1.477 . S
C942 H959 0.932 . S
C943 U926 2.882 . S
C943 C937 1.428 . S
C943 O946 1.301 . S
C943 O947 1.282 . S
O944 U926 2.441 . S
O944 C930 1.249 . S
O945 U926 2.420 . S
O945 C930 1.202 . S
O946 U926 2.455 . S
O946 C943 1.301 . S
O947 U926 2.449 . S
O947 C943 1.282 . S
H948 C921 0.931 . S
H949 C923 0.929 . S
H950 C924 0.921 1_455 S
H951 C925 0.931 . S
H952 C932 0.932 . S
H953 C933 0.930 . S
H954 C934 0.929 . S
H955 C936 0.930 . S
H956 C938 0.932 . S
H957 C939 0.929 . S
H958 C940 0.928 . S
H959 C942 0.932 . S
O960 Cd961 2.300 . S
O960 C967 1.275 . S
Cd961 O960 2.300 . S
Cd961 O969 2.381 . S
Cd961 O970 2.378 . S
O962 Cd963 2.385 . S
O962 C967 1.255 . S
Cd963 O962 2.385 . S
Cd963 O964 2.317 . S
O964 Cd963 2.317 . S
O964 C965 1.232 . S
C965 O964 1.232 . S
C965 O966 1.218 . S
O966 C965 1.218 . S
C967 O960 1.275 . S
C967 O962 1.255 . S
C968 O969 1.258 . S
C968 O970 1.256 . S
O969 Cd961 2.381 . S
O969 C968 1.258 . S
O970 Cd961 2.378 . S
O970 C968 1.256 . S
O971 Cd972 2.300 1_556 S
O971 C978 1.275 . S
Cd972 O971 2.300 1_554 S
Cd972 O980 2.381 1_554 S
Cd972 O981 2.378 . S
O973 Cd974 2.385 1_556 S
O973 C978 1.255 . S
Cd974 O973 2.385 1_554 S
Cd974 O975 2.317 . S
O975 Cd974 2.317 . S
O975 C976 1.232 . S
C976 O975 1.232 . S
C976 O977 1.218 . S
O977 C976 1.218 . S
C978 O971 1.275 . S
C978 O973 1.255 . S
C979 O980 1.258 1_554 S
C979 O981 1.256 . S
O980 Cd972 2.381 1_556 S
O980 C979 1.258 1_556 S
O981 Cd972 2.378 . S
O981 C979 1.256 . S
O982 Cd983 2.300 . S
O982 C989 1.336 . S
Cd983 O982 2.300 . S
Cd983 O991 2.381 . S
Cd983 O992 2.378 . S
O984 Cd985 2.385 . S
O984 C989 1.211 1_565 S
Cd985 O984 2.385 . S
Cd985 O986 2.317 . S
O986 Cd985 2.317 . S
O986 C987 1.232 . S
C987 O986 1.232 . S
C987 O988 1.218 . S
O988 C987 1.218 . S
C989 O982 1.336 . S
C989 O984 1.211 1_545 S
C990 O991 1.258 . S
C990 O992 1.256 . S
O991 Cd983 2.381 . S
O991 C990 1.258 . S
O992 Cd983 2.378 . S
O992 C990 1.256 . S
O993 Cd994 2.300 . S
O993 C1000 1.275 . S
Cd994 O993 2.300 . S
Cd994 O1002 2.381 1_554 S
Cd994 O1003 2.378 1_554 S
O995 Cd996 2.385 . S
O995 C1000 1.255 1_545 S
Cd996 O995 2.385 . S
Cd996 O997 2.317 1_554 S
O997 Cd996 2.317 1_556 S
O997 C998 1.232 . S
C998 O997 1.232 . S
C998 O999 1.218 1_556 S
O999 C998 1.218 1_554 S
C1000 O993 1.275 . S
C1000 O995 1.255 1_565 S
C1001 O1002 1.258 . S
C1001 O1003 1.256 . S
O1002 Cd994 2.381 1_556 S
O1002 C1001 1.258 . S
O1003 Cd994 2.378 1_556 S
O1003 C1001 1.256 . S
O1004 Cd1005 2.300 . S
O1004 C1011 1.275 . S
Cd1005 O1004 2.300 . S
Cd1005 O1013 2.381 . S
Cd1005 O1014 2.378 . S
O1006 Cd1007 2.385 . S
O1006 C1011 1.255 . S
Cd1007 O1006 2.385 . S
Cd1007 O1008 2.317 . S
O1008 Cd1007 2.317 . S
O1008 C1009 1.232 . S
C1009 O1008 1.232 . S
C1009 O1010 1.218 . S
O1010 C1009 1.218 . S
C1011 O1004 1.275 . S
C1011 O1006 1.255 . S
C1012 O1013 1.258 . S
C1012 O1014 1.256 . S
O1013 Cd1005 2.381 . S
O1013 C1012 1.258 . S
O1014 Cd1005 2.378 . S
O1014 C1012 1.256 . S
O1015 Cd1016 2.300 . S
O1015 C1022 1.275 . S
Cd1016 O1015 2.300 . S
Cd1016 O1024 2.381 1_455 S
Cd1016 O1025 2.378 1_455 S
O1017 Cd1018 2.385 . S
O1017 C1022 1.255 1_554 S
Cd1018 O1017 2.385 . S
Cd1018 O1019 2.317 1_455 S
O1019 Cd1018 2.317 1_655 S
O1019 C1020 1.232 . S
C1020 O1019 1.232 . S
C1020 O1021 1.218 1_655 S
O1021 C1020 1.218 1_455 S
C1022 O1015 1.275 . S
C1022 O1017 1.255 1_556 S
C1023 O1024 1.258 . S
C1023 O1025 1.256 . S
O1024 Cd1016 2.381 1_655 S
O1024 C1023 1.258 . S
O1025 Cd1016 2.378 1_655 S
O1025 C1023 1.256 . S
O1026 Cd1027 2.300 1_655 S
O1026 C1033 1.275 . S
Cd1027 O1026 2.300 1_455 S
Cd1027 O1035 2.381 1_455 S
Cd1027 O1036 2.378 . S
O1028 Cd1029 2.385 1_655 S
O1028 C1033 1.255 . S
Cd1029 O1028 2.385 1_455 S
Cd1029 O1030 2.317 . S
O1030 Cd1029 2.317 . S
O1030 C1031 1.232 . S
C1031 O1030 1.232 . S
C1031 O1032 1.218 . S
O1032 C1031 1.218 . S
C1033 O1026 1.275 . S
C1033 O1028 1.255 . S
C1034 O1035 1.258 1_455 S
C1034 O1036 1.256 . S
O1035 Cd1027 2.381 1_655 S
O1035 C1034 1.258 1_655 S
O1036 Cd1027 2.378 . S
O1036 C1034 1.256 . S
O1037 Cd1038 2.300 . S
O1037 C1044 1.336 . S
Cd1038 O1037 2.300 . S
Cd1038 O1046 2.381 . S
Cd1038 O1047 2.378 . S
O1039 Cd1040 2.385 . S
O1039 C1044 1.211 1_556 S
Cd1040 O1039 2.385 . S
Cd1040 O1041 2.317 . S
O1041 Cd1040 2.317 . S
O1041 C1042 1.232 . S
C1042 O1041 1.232 . S
C1042 O1043 1.218 . S
O1043 C1042 1.218 . S
C1044 O1037 1.336 . S
C1044 O1039 1.211 1_554 S
C1045 O1046 1.258 . S
C1045 O1047 1.256 . S
O1046 Cd1038 2.381 . S
O1046 C1045 1.258 . S
O1047 Cd1038 2.378 . S
O1047 C1045 1.256 . S
O1048 Cd1049 2.300 . S
O1048 C1055 1.275 . S
Cd1049 O1048 2.300 . S
Cd1049 O1057 2.381 . S
Cd1049 O1058 2.378 . S
O1050 Cd1051 2.385 . S
O1050 C1055 1.255 . S
Cd1051 O1050 2.385 . S
Cd1051 O1052 2.317 . S
O1052 Cd1051 2.317 . S
O1052 C1053 1.232 . S
C1053 O1052 1.232 . S
C1053 O1054 1.218 . S
O1054 C1053 1.218 . S
C1055 O1048 1.275 . S
C1055 O1050 1.255 . S
C1056 O1057 1.258 . S
C1056 O1058 1.256 . S
O1057 Cd1049 2.381 . S
O1057 C1056 1.258 . S
O1058 Cd1049 2.378 . S
O1058 C1056 1.256 . S
O1059 Cd1060 2.300 . S
O1059 C1066 1.275 . S
Cd1060 O1059 2.300 . S
Cd1060 O1068 2.381 1_545 S
Cd1060 O1069 2.378 1_545 S
O1061 Cd1062 2.385 . S
O1061 C1066 1.255 1_455 S
Cd1062 O1061 2.385 . S
Cd1062 O1063 2.317 1_545 S
O1063 Cd1062 2.317 1_565 S
O1063 C1064 1.232 . S
C1064 O1063 1.232 . S
C1064 O1065 1.218 1_565 S
O1065 C1064 1.218 1_545 S
C1066 O1059 1.275 . S
C1066 O1061 1.255 1_655 S
C1067 O1068 1.258 . S
C1067 O1069 1.256 . S
O1068 Cd1060 2.381 1_565 S
O1068 C1067 1.258 . S
O1069 Cd1060 2.378 1_565 S
O1069 C1067 1.256 . S
O1070 Cd1071 2.300 1_565 S
O1070 C1077 1.275 . S
Cd1071 O1070 2.300 1_545 S
Cd1071 O1079 2.381 1_545 S
Cd1071 O1080 2.378 . S
O1072 Cd1073 2.385 1_565 S
O1072 C1077 1.255 . S
Cd1073 O1072 2.385 1_545 S
Cd1073 O1074 2.317 . S
O1074 Cd1073 2.317 . S
O1074 C1075 1.232 . S
C1075 O1074 1.232 . S
C1075 O1076 1.218 . S
O1076 C1075 1.218 . S
C1077 O1070 1.275 . S
C1077 O1072 1.255 . S
C1078 O1079 1.258 1_545 S
C1078 O1080 1.256 . S
O1079 Cd1071 2.381 1_565 S
O1079 C1078 1.258 1_565 S
O1080 Cd1071 2.378 . S
O1080 C1078 1.256 . S
O1081 Cd1082 2.300 . S
O1081 C1088 1.336 . S
Cd1082 O1081 2.300 . S
Cd1082 O1090 2.381 . S
Cd1082 O1091 2.378 . S
O1083 Cd1084 2.385 . S
O1083 C1088 1.211 1_655 S
Cd1084 O1083 2.385 . S
Cd1084 O1085 2.317 . S
O1085 Cd1084 2.317 . S
O1085 C1086 1.232 . S
C1086 O1085 1.232 . S
C1086 O1087 1.218 . S
O1087 C1086 1.218 . S
C1088 O1081 1.336 . S
C1088 O1083 1.211 1_455 S
C1089 O1090 1.258 . S
C1089 O1091 1.256 . S
O1090 Cd1082 2.381 . S
O1090 C1089 1.258 . S
O1091 Cd1082 2.378 . S
O1091 C1089 1.256 . S
O1092 Cd1093 2.300 . S
O1092 C1099 1.275 . S
Cd1093 O1092 2.300 . S
Cd1093 O1101 2.381 . S
Cd1093 O1102 2.378 . S
O1094 Cd1095 2.385 . S
O1094 C1099 1.255 . S
Cd1095 O1094 2.385 . S
Cd1095 O1096 2.317 . S
O1096 Cd1095 2.317 . S
O1096 C1097 1.232 . S
C1097 O1096 1.232 . S
C1097 O1098 1.218 . S
O1098 C1097 1.218 . S
C1099 O1092 1.275 . S
C1099 O1094 1.255 . S
C1100 O1101 1.258 . S
C1100 O1102 1.256 . S
O1101 Cd1093 2.381 . S
O1101 C1100 1.258 . S
O1102 Cd1093 2.378 . S
O1102 C1100 1.256 . S
O1103 Cd1104 2.300 . S
O1103 C1110 1.275 . S
Cd1104 O1103 2.300 . S
Cd1104 O1112 2.372 1_554 S
Cd1104 O1113 2.378 1_554 S
O1105 Cd1106 2.385 . S
O1105 C1110 1.255 . S
Cd1106 O1105 2.385 . S
Cd1106 O1107 2.317 1_554 S
O1107 Cd1106 2.317 1_556 S
O1107 C1108 1.232 . S
C1108 O1107 1.232 . S
C1108 O1109 1.188 1_556 S
O1109 C1108 1.188 1_554 S
C1110 O1103 1.275 . S
C1110 O1105 1.255 . S
C1111 O1112 1.265 . S
C1111 O1113 1.256 . S
O1112 Cd1104 2.372 1_556 S
O1112 C1111 1.265 . S
O1113 Cd1104 2.378 1_556 S
O1113 C1111 1.256 . S
O1114 Cd1115 2.300 . S
O1114 C1121 1.275 . S
Cd1115 O1114 2.300 . S
Cd1115 O1123 2.381 . S
Cd1115 O1124 2.378 . S
O1116 Cd1117 2.391 . S
O1116 C1121 1.253 1_545 S
Cd1117 O1116 2.391 . S
Cd1117 O1118 2.317 . S
O1118 Cd1117 2.317 . S
O1118 C1119 1.232 . S
C1119 O1118 1.232 . S
C1119 O1120 1.218 . S
O1120 C1119 1.218 . S
C1121 O1114 1.275 . S
C1121 O1116 1.253 1_565 S
C1122 O1123 1.258 . S
C1122 O1124 1.256 . S
O1123 Cd1115 2.381 . S
O1123 C1122 1.258 . S
O1124 Cd1115 2.378 . S
O1124 C1122 1.256 . S
O1125 Cd1126 2.300 1_556 S
O1125 C1132 1.275 . S
Cd1126 O1125 2.300 1_554 S
Cd1126 O1134 2.381 . S
Cd1126 O1135 2.378 . S
O1127 Cd1128 2.385 1_546 S
O1127 C1132 1.255 . S
Cd1128 O1127 2.385 1_564 S
Cd1128 O1129 2.317 . S
O1129 Cd1128 2.317 . S
O1129 C1130 1.232 . S
C1130 O1129 1.232 . S
C1130 O1131 1.218 . S
O1131 C1130 1.218 . S
C1132 O1125 1.275 . S
C1132 O1127 1.255 . S
C1133 O1134 1.258 . S
C1133 O1135 1.256 . S
O1134 Cd1126 2.381 . S
O1134 C1133 1.258 . S
O1135 Cd1126 2.378 . S
O1135 C1133 1.256 . S
O1136 Cd1137 2.300 . S
O1136 C1143 1.275 . S
Cd1137 O1136 2.300 . S
Cd1137 O1145 2.381 . S
Cd1137 O1146 2.378 . S
O1138 Cd1139 2.385 . S
O1138 C1143 1.255 . S
Cd1139 O1138 2.385 . S
Cd1139 O1140 2.317 . S
O1140 Cd1139 2.317 . S
O1140 C1141 1.232 . S
C1141 O1140 1.232 . S
C1141 O1142 1.218 . S
O1142 C1141 1.218 . S
C1143 O1136 1.275 . S
C1143 O1138 1.255 . S
C1144 O1145 1.258 . S
C1144 O1146 1.256 . S
O1145 Cd1137 2.381 . S
O1145 C1144 1.258 . S
O1146 Cd1137 2.378 . S
O1146 C1144 1.256 . S
O1147 Cd1148 2.300 1_655 S
O1147 C1154 1.275 . S
Cd1148 O1147 2.300 1_455 S
Cd1148 O1156 2.381 . S
Cd1148 O1157 2.378 . S
O1149 Cd1150 2.385 1_654 S
O1149 C1154 1.255 . S
Cd1150 O1149 2.385 1_456 S
Cd1150 O1151 2.317 . S
O1151 Cd1150 2.317 . S
O1151 C1152 1.232 . S
C1152 O1151 1.232 . S
C1152 O1153 1.218 . S
O1153 C1152 1.218 . S
C1154 O1147 1.275 . S
C1154 O1149 1.255 . S
C1155 O1156 1.258 . S
C1155 O1157 1.256 . S
O1156 Cd1148 2.381 . S
O1156 C1155 1.258 . S
O1157 Cd1148 2.378 . S
O1157 C1155 1.256 . S
O1158 Cd1159 2.300 . S
O1158 C1165 1.275 . S
Cd1159 O1158 2.300 . S
Cd1159 O1167 2.372 1_455 S
Cd1159 O1168 2.378 1_455 S
O1160 Cd1161 2.385 . S
O1160 C1165 1.255 . S
Cd1161 O1160 2.385 . S
Cd1161 O1162 2.317 1_455 S
O1162 Cd1161 2.317 1_655 S
O1162 C1163 1.232 . S
C1163 O1162 1.232 . S
C1163 O1164 1.188 1_655 S
O1164 C1163 1.188 1_455 S
C1165 O1158 1.275 . S
C1165 O1160 1.255 . S
C1166 O1167 1.265 . S
C1166 O1168 1.256 . S
O1167 Cd1159 2.372 1_655 S
O1167 C1166 1.265 . S
O1168 Cd1159 2.378 1_655 S
O1168 C1166 1.256 . S
O1169 Cd1170 2.300 . S
O1169 C1176 1.275 . S
Cd1170 O1169 2.300 . S
Cd1170 O1178 2.381 . S
Cd1170 O1179 2.378 . S
O1171 Cd1172 2.391 . S
O1171 C1176 1.253 1_554 S
Cd1172 O1171 2.391 . S
Cd1172 O1173 2.317 . S
O1173 Cd1172 2.317 . S
O1173 C1174 1.232 . S
C1174 O1173 1.232 . S
C1174 O1175 1.218 . S
O1175 C1174 1.218 . S
C1176 O1169 1.275 . S
C1176 O1171 1.253 1_556 S
C1177 O1178 1.258 . S
C1177 O1179 1.256 . S
O1178 Cd1170 2.381 . S
O1178 C1177 1.258 . S
O1179 Cd1170 2.378 . S
O1179 C1177 1.256 . S
O1180 Cd1181 2.300 . S
O1180 C1187 1.275 . S
Cd1181 O1180 2.300 . S
Cd1181 O1189 2.381 . S
Cd1181 O1190 2.378 . S
O1182 Cd1183 2.385 . S
O1182 C1187 1.255 . S
Cd1183 O1182 2.385 . S
Cd1183 O1184 2.317 . S
O1184 Cd1183 2.317 . S
O1184 C1185 1.232 . S
C1185 O1184 1.232 . S
C1185 O1186 1.218 . S
O1186 C1185 1.218 . S
C1187 O1180 1.275 . S
C1187 O1182 1.255 . S
C1188 O1189 1.258 . S
C1188 O1190 1.256 . S
O1189 Cd1181 2.381 . S
O1189 C1188 1.258 . S
O1190 Cd1181 2.378 . S
O1190 C1188 1.256 . S
O1191 Cd1192 2.300 1_565 S
O1191 C1198 1.275 . S
Cd1192 O1191 2.300 1_545 S
Cd1192 O1200 2.381 . S
Cd1192 O1201 2.378 . S
O1193 Cd1194 2.385 1_465 S
O1193 C1198 1.255 . S
Cd1194 O1193 2.385 1_645 S
Cd1194 O1195 2.317 . S
O1195 Cd1194 2.317 . S
O1195 C1196 1.232 . S
C1196 O1195 1.232 . S
C1196 O1197 1.218 . S
O1197 C1196 1.218 . S
C1198 O1191 1.275 . S
C1198 O1193 1.255 . S
C1199 O1200 1.258 . S
C1199 O1201 1.256 . S
O1200 Cd1192 2.381 . S
O1200 C1199 1.258 . S
O1201 Cd1192 2.378 . S
O1201 C1199 1.256 . S
O1202 Cd1203 2.300 . S
O1202 C1209 1.275 . S
Cd1203 O1202 2.300 . S
Cd1203 O1211 2.372 1_545 S
Cd1203 O1212 2.378 1_545 S
O1204 Cd1205 2.385 . S
O1204 C1209 1.255 . S
Cd1205 O1204 2.385 . S
Cd1205 O1206 2.317 1_545 S
O1206 Cd1205 2.317 1_565 S
O1206 C1207 1.232 . S
C1207 O1206 1.232 . S
C1207 O1208 1.188 1_565 S
O1208 C1207 1.188 1_545 S
C1209 O1202 1.275 . S
C1209 O1204 1.255 . S
C1210 O1211 1.265 . S
C1210 O1212 1.256 . S
O1211 Cd1203 2.372 1_565 S
O1211 C1210 1.265 . S
O1212 Cd1203 2.378 1_565 S
O1212 C1210 1.256 . S
O1213 Cd1214 2.300 . S
O1213 C1220 1.275 . S
Cd1214 O1213 2.300 . S
Cd1214 O1222 2.381 . S
Cd1214 O1223 2.378 . S
O1215 Cd1216 2.391 . S
O1215 C1220 1.253 1_455 S
Cd1216 O1215 2.391 . S
Cd1216 O1217 2.317 . S
O1217 Cd1216 2.317 . S
O1217 C1218 1.232 . S
C1218 O1217 1.232 . S
C1218 O1219 1.218 . S
O1219 C1218 1.218 . S
C1220 O1213 1.275 . S
C1220 O1215 1.253 1_655 S
C1221 O1222 1.258 . S
C1221 O1223 1.256 . S
O1222 Cd1214 2.381 . S
O1222 C1221 1.258 . S
O1223 Cd1214 2.378 . S
O1223 C1221 1.256 . S
H1224 C1232 0.950 . S
H1225 C1237 0.950 . S
H1226 C1234 0.950 . S
H1227 C1236 0.950 . S
H1228 C1238 0.950 . S
H1229 C1240 0.950 . S
H1230 C1242 0.950 . S
H1231 C1243 0.950 . S
C1232 H1224 0.950 . S
C1232 C1233 1.386 . S
C1232 C1234 1.391 . S
C1233 C1232 1.386 . S
C1233 C1237 1.393 . S
C1234 H1226 0.950 . S
C1234 C1232 1.391 . S
C1234 C1235 1.400 . S
C1235 C1234 1.400 . S
C1235 C1236 1.398 . S
C1235 C1241 1.491 . S
C1236 H1227 0.950 . S
C1236 C1235 1.398 . S
C1236 C1237 1.391 . S
C1237 H1225 0.950 . S
C1237 C1233 1.393 . S
C1237 C1236 1.391 . S
C1238 H1228 0.950 . S
C1238 C1239 1.386 . S
C1238 C1240 1.391 . S
C1239 C1238 1.386 . S
C1239 C1243 1.393 . S
C1240 H1229 0.950 . S
C1240 C1238 1.391 . S
C1240 C1241 1.400 . S
C1241 C1235 1.491 . S
C1241 C1240 1.400 . S
C1241 C1242 1.398 . S
C1242 H1230 0.950 . S
C1242 C1241 1.398 . S
C1242 C1243 1.391 . S
C1243 H1231 0.950 . S
C1243 C1239 1.393 . S
C1243 C1242 1.391 . S
H1244 C1252 0.950 . S
H1245 C1257 0.950 . S
H1246 C1254 0.950 . S
H1247 C1256 0.950 . S
H1248 C1258 0.950 . S
H1249 C1260 0.950 . S
H1250 C1262 0.950 . S
H1251 C1263 0.950 . S
C1252 H1244 0.950 . S
C1252 C1253 1.386 . S
C1252 C1254 1.391 . S
C1253 C1252 1.386 . S
C1253 C1257 1.393 . S
C1254 H1246 0.950 . S
C1254 C1252 1.391 . S
C1254 C1255 1.400 . S
C1255 C1254 1.400 . S
C1255 C1256 1.398 . S
C1255 C1261 1.491 . S
C1256 H1247 0.950 . S
C1256 C1255 1.398 . S
C1256 C1257 1.391 . S
C1257 H1245 0.950 . S
C1257 C1253 1.393 . S
C1257 C1256 1.391 . S
C1258 H1248 0.950 . S
C1258 C1259 1.386 . S
C1258 C1260 1.391 . S
C1259 C1258 1.386 . S
C1259 C1263 1.393 . S
C1260 H1249 0.950 . S
C1260 C1258 1.391 . S
C1260 C1261 1.400 . S
C1261 C1255 1.491 . S
C1261 C1260 1.400 . S
C1261 C1262 1.398 . S
C1262 H1250 0.950 . S
C1262 C1261 1.398 . S
C1262 C1263 1.391 . S
C1263 H1251 0.950 . S
C1263 C1259 1.393 . S
C1263 C1262 1.391 . S
H1264 C1272 0.950 . S
H1265 C1277 0.950 . S
H1266 C1274 0.951 . S
H1267 C1276 0.950 . S
H1268 C1278 0.950 . S
H1269 C1280 0.950 . S
H1270 C1282 0.950 . S
H1271 C1283 0.950 . S
C1272 H1264 0.950 . S
C1272 C1273 1.386 1_545 S
C1272 C1274 1.391 1_545 S
C1273 C1272 1.386 1_565 S
C1273 C1277 1.391 . S
C1274 H1266 0.951 . S
C1274 C1272 1.391 1_565 S
C1274 C1275 1.400 . S
C1275 C1274 1.400 . S
C1275 C1276 1.398 . S
C1275 C1281 1.491 . S
C1276 H1267 0.950 . S
C1276 C1275 1.398 . S
C1276 C1277 1.391 . S
C1277 H1265 0.950 . S
C1277 C1273 1.391 . S
C1277 C1276 1.391 . S
C1278 H1268 0.950 . S
C1278 C1279 1.386 . S
C1278 C1280 1.391 . S
C1279 C1278 1.386 . S
C1279 C1283 1.393 . S
C1280 H1269 0.950 . S
C1280 C1278 1.391 . S
C1280 C1281 1.400 . S
C1281 C1275 1.491 . S
C1281 C1280 1.400 . S
C1281 C1282 1.398 . S
C1282 H1270 0.950 . S
C1282 C1281 1.398 . S
C1282 C1283 1.391 . S
C1283 H1271 0.950 . S
C1283 C1279 1.393 . S
C1283 C1282 1.391 . S
H1284 C1292 0.950 . S
H1285 C1297 0.950 . S
H1286 C1294 0.950 . S
H1287 C1296 0.957 . S
H1288 C1298 0.950 . S
H1289 C1300 0.964 . S
H1290 C1302 0.950 . S
H1291 C1303 0.950 . S
C1292 H1284 0.950 . S
C1292 C1293 1.386 . S
C1292 C1294 1.391 . S
C1293 C1292 1.386 . S
C1293 C1297 1.393 1_545 S
C1294 H1286 0.950 . S
C1294 C1292 1.391 . S
C1294 C1295 1.400 . S
C1295 C1294 1.400 . S
C1295 C1296 1.391 1_545 S
C1295 C1301 1.491 . S
C1296 H1287 0.957 . S
C1296 C1295 1.391 1_565 S
C1296 C1297 1.392 . S
C1297 H1285 0.950 . S
C1297 C1293 1.393 1_565 S
C1297 C1296 1.392 . S
C1298 H1288 0.950 . S
C1298 C1299 1.386 . S
C1298 C1300 1.391 . S
C1299 C1298 1.386 . S
C1299 C1303 1.393 . S
C1300 H1289 0.964 . S
C1300 C1298 1.391 . S
C1300 C1301 1.400 . S
C1301 C1295 1.491 . S
C1301 C1300 1.400 . S
C1301 C1302 1.398 . S
C1302 H1290 0.950 . S
C1302 C1301 1.398 . S
C1302 C1303 1.391 . S
C1303 H1291 0.950 . S
C1303 C1299 1.393 . S
C1303 C1302 1.391 . S
H1304 C1312 0.950 . S
H1305 C1317 0.950 . S
H1306 C1314 0.950 . S
H1307 C1316 0.950 . S
H1308 C1318 0.950 . S
H1309 C1320 0.950 . S
H1310 C1322 0.950 . S
H1311 C1323 0.950 . S
C1312 H1304 0.950 . S
C1312 C1313 1.386 . S
C1312 C1314 1.391 . S
C1313 C1312 1.386 . S
C1313 C1317 1.393 . S
C1314 H1306 0.950 . S
C1314 C1312 1.391 . S
C1314 C1315 1.400 . S
C1315 C1314 1.400 . S
C1315 C1316 1.398 . S
C1315 C1321 1.491 . S
C1316 H1307 0.950 . S
C1316 C1315 1.398 . S
C1316 C1317 1.391 . S
C1317 H1305 0.950 . S
C1317 C1313 1.393 . S
C1317 C1316 1.391 . S
C1318 H1308 0.950 . S
C1318 C1319 1.386 . S
C1318 C1320 1.391 . S
C1319 C1318 1.386 . S
C1319 C1323 1.393 . S
C1320 H1309 0.950 . S
C1320 C1318 1.391 . S
C1320 C1321 1.400 . S
C1321 C1315 1.491 . S
C1321 C1320 1.400 . S
C1321 C1322 1.398 . S
C1322 H1310 0.950 . S
C1322 C1321 1.398 . S
C1322 C1323 1.391 . S
C1323 H1311 0.950 . S
C1323 C1319 1.393 . S
C1323 C1322 1.391 . S
H1324 C1332 0.950 . S
H1325 C1337 0.950 . S
H1326 C1334 0.950 . S
H1327 C1336 0.939 1_556 S
H1328 C1338 0.950 . S
H1329 C1340 0.950 1_556 S
H1330 C1342 0.950 . S
H1331 C1343 0.950 . S
C1332 H1324 0.950 . S
C1332 C1333 1.386 . S
C1332 C1334 1.391 . S
C1333 C1332 1.386 . S
C1333 C1337 1.393 1_554 S
C1334 H1326 0.950 . S
C1334 C1332 1.391 . S
C1334 C1335 1.400 . S
C1335 C1334 1.400 . S
C1335 C1336 1.413 . S
C1335 C1341 1.491 . S
C1336 H1327 0.939 1_554 S
C1336 C1335 1.413 . S
C1336 C1337 1.389 1_554 S
C1337 H1325 0.950 . S
C1337 C1333 1.393 1_556 S
C1337 C1336 1.389 1_556 S
C1338 H1328 0.950 . S
C1338 C1339 1.386 . S
C1338 C1340 1.391 . S
C1339 C1338 1.386 . S
C1339 C1343 1.393 . S
C1340 H1329 0.950 1_554 S
C1340 C1338 1.391 . S
C1340 C1341 1.400 . S
C1341 C1335 1.491 . S
C1341 C1340 1.400 . S
C1341 C1342 1.398 . S
C1342 H1330 0.950 . S
C1342 C1341 1.398 . S
C1342 C1343 1.391 . S
C1343 H1331 0.950 . S
C1343 C1339 1.393 . S
C1343 C1342 1.391 . S
H1344 C1352 0.950 . S
H1345 C1357 0.950 . S
H1346 C1354 0.950 . S
H1347 C1356 0.950 . S
H1348 C1358 0.950 . S
H1349 C1360 0.950 . S
H1350 C1362 0.950 . S
H1351 C1363 0.950 . S
C1352 H1344 0.950 . S
C1352 C1353 1.386 . S
C1352 C1354 1.391 . S
C1353 C1352 1.386 . S
C1353 C1357 1.393 . S
C1354 H1346 0.950 . S
C1354 C1352 1.391 . S
C1354 C1355 1.400 . S
C1355 C1354 1.400 . S
C1355 C1356 1.398 . S
C1355 C1361 1.491 . S
C1356 H1347 0.950 . S
C1356 C1355 1.398 . S
C1356 C1357 1.391 . S
C1357 H1345 0.950 . S
C1357 C1353 1.393 . S
C1357 C1356 1.391 . S
C1358 H1348 0.950 . S
C1358 C1359 1.386 . S
C1358 C1360 1.391 . S
C1359 C1358 1.386 . S
C1359 C1363 1.393 . S
C1360 H1349 0.950 . S
C1360 C1358 1.391 . S
C1360 C1361 1.400 . S
C1361 C1355 1.491 . S
C1361 C1360 1.400 . S
C1361 C1362 1.398 . S
C1362 H1350 0.950 . S
C1362 C1361 1.398 . S
C1362 C1363 1.391 . S
C1363 H1351 0.950 . S
C1363 C1359 1.393 . S
C1363 C1362 1.391 . S
H1364 C1372 0.950 . S
H1365 C1377 0.950 . S
H1366 C1374 0.950 . S
H1367 C1376 0.950 . S
H1368 C1378 0.950 . S
H1369 C1380 0.950 . S
H1370 C1382 0.950 . S
H1371 C1383 0.950 . S
C1372 H1364 0.950 . S
C1372 C1373 1.386 1_554 S
C1372 C1374 1.391 1_554 S
C1373 C1372 1.386 1_556 S
C1373 C1377 1.391 . S
C1374 H1366 0.950 . S
C1374 C1372 1.391 1_556 S
C1374 C1375 1.400 . S
C1375 C1374 1.400 . S
C1375 C1376 1.398 . S
C1375 C1381 1.491 . S
C1376 H1367 0.950 . S
C1376 C1375 1.398 . S
C1376 C1377 1.391 . S
C1377 H1365 0.950 . S
C1377 C1373 1.391 . S
C1377 C1376 1.391 . S
C1378 H1368 0.950 . S
C1378 C1379 1.386 . S
C1378 C1380 1.391 . S
C1379 C1378 1.386 . S
C1379 C1383 1.393 . S
C1380 H1369 0.950 . S
C1380 C1378 1.391 . S
C1380 C1381 1.400 . S
C1381 C1375 1.491 . S
C1381 C1380 1.400 . S
C1381 C1382 1.398 . S
C1382 H1370 0.950 . S
C1382 C1381 1.398 . S
C1382 C1383 1.391 . S
C1383 H1371 0.950 . S
C1383 C1379 1.393 . S
C1383 C1382 1.391 . S
H1384 C1392 0.950 . S
H1385 C1397 0.950 . S
H1386 C1394 0.950 . S
H1387 C1396 0.950 . S
H1388 C1398 0.950 . S
H1389 C1400 0.950 . S
H1390 C1402 0.950 . S
H1391 C1403 0.950 . S
C1392 H1384 0.950 . S
C1392 C1393 1.386 . S
C1392 C1394 1.391 . S
C1393 C1392 1.386 . S
C1393 C1397 1.393 . S
C1394 H1386 0.950 . S
C1394 C1392 1.391 . S
C1394 C1395 1.400 . S
C1395 C1394 1.400 . S
C1395 C1396 1.398 . S
C1395 C1401 1.491 . S
C1396 H1387 0.950 . S
C1396 C1395 1.398 . S
C1396 C1397 1.391 . S
C1397 H1385 0.950 . S
C1397 C1393 1.393 . S
C1397 C1396 1.391 . S
C1398 H1388 0.950 . S
C1398 C1399 1.386 . S
C1398 C1400 1.391 . S
C1399 C1398 1.386 . S
C1399 C1403 1.393 . S
C1400 H1389 0.950 . S
C1400 C1398 1.391 . S
C1400 C1401 1.400 . S
C1401 C1395 1.491 . S
C1401 C1400 1.400 . S
C1401 C1402 1.398 . S
C1402 H1390 0.950 . S
C1402 C1401 1.398 . S
C1402 C1403 1.391 . S
C1403 H1391 0.950 . S
C1403 C1399 1.393 . S
C1403 C1402 1.391 . S
H1404 C1412 0.950 . S
H1405 C1417 0.950 . S
H1406 C1414 0.950 . S
H1407 C1416 0.950 . S
H1408 C1418 0.950 . S
H1409 C1420 0.950 . S
H1410 C1422 0.950 . S
H1411 C1423 0.950 . S
C1412 H1404 0.950 . S
C1412 C1413 1.386 1_655 S
C1412 C1414 1.391 . S
C1413 C1412 1.386 1_455 S
C1413 C1417 1.393 . S
C1414 H1406 0.950 . S
C1414 C1412 1.391 . S
C1414 C1415 1.400 1_655 S
C1415 C1414 1.400 1_455 S
C1415 C1416 1.398 . S
C1415 C1421 1.491 . S
C1416 H1407 0.950 . S
C1416 C1415 1.398 . S
C1416 C1417 1.391 . S
C1417 H1405 0.950 . S
C1417 C1413 1.393 . S
C1417 C1416 1.391 . S
C1418 H1408 0.950 . S
C1418 C1419 1.386 . S
C1418 C1420 1.391 . S
C1419 C1418 1.386 . S
C1419 C1423 1.393 1_455 S
C1420 H1409 0.950 . S
C1420 C1418 1.391 . S
C1420 C1421 1.400 . S
C1421 C1415 1.491 . S
C1421 C1420 1.400 . S
C1421 C1422 1.398 1_455 S
C1422 H1410 0.950 . S
C1422 C1421 1.398 1_655 S
C1422 C1423 1.391 . S
C1423 H1411 0.950 . S
C1423 C1419 1.393 1_655 S
C1423 C1422 1.391 . S
H1424 C1432 0.950 . S
H1425 C1437 0.950 . S
H1426 C1434 0.950 . S
H1427 C1436 0.950 . S
H1428 C1438 0.950 . S
H1429 C1440 0.950 . S
H1430 C1442 0.950 . S
H1431 C1443 0.950 . S
C1432 H1424 0.950 . S
C1432 C1433 1.386 . S
C1432 C1434 1.391 . S
C1433 C1432 1.386 . S
C1433 C1437 1.393 . S
C1434 H1426 0.950 . S
C1434 C1432 1.391 . S
C1434 C1435 1.400 . S
C1435 C1434 1.400 . S
C1435 C1436 1.398 . S
C1435 C1441 1.491 . S
C1436 H1427 0.950 . S
C1436 C1435 1.398 . S
C1436 C1437 1.391 . S
C1437 H1425 0.950 . S
C1437 C1433 1.393 . S
C1437 C1436 1.391 . S
C1438 H1428 0.950 . S
C1438 C1439 1.386 . S
C1438 C1440 1.391 . S
C1439 C1438 1.386 . S
C1439 C1443 1.393 . S
C1440 H1429 0.950 . S
C1440 C1438 1.391 . S
C1440 C1441 1.400 . S
C1441 C1435 1.491 . S
C1441 C1440 1.400 . S
C1441 C1442 1.398 . S
C1442 H1430 0.950 . S
C1442 C1441 1.398 . S
C1442 C1443 1.391 . S
C1443 H1431 0.950 . S
C1443 C1439 1.393 . S
C1443 C1442 1.391 . S
H1444 C1452 0.950 . S
H1445 C1457 0.950 . S
H1446 C1454 0.950 . S
H1447 C1456 0.950 . S
H1448 C1458 0.950 . S
H1449 C1460 0.950 . S
H1450 C1462 0.949 1_455 S
H1451 C1463 0.950 1_455 S
C1452 H1444 0.950 . S
C1452 C1453 1.386 1_455 S
C1452 C1454 1.391 . S
C1453 C1452 1.386 1_655 S
C1453 C1457 1.393 . S
C1454 H1446 0.950 . S
C1454 C1452 1.391 . S
C1454 C1455 1.400 1_455 S
C1455 C1454 1.400 1_655 S
C1455 C1456 1.398 . S
C1455 C1461 1.491 . S
C1456 H1447 0.950 . S
C1456 C1455 1.398 . S
C1456 C1457 1.391 . S
C1457 H1445 0.950 . S
C1457 C1453 1.393 . S
C1457 C1456 1.391 . S
C1458 H1448 0.950 . S
C1458 C1459 1.386 . S
C1458 C1460 1.391 . S
C1459 C1458 1.386 . S
C1459 C1463 1.393 . S
C1460 H1449 0.950 . S
C1460 C1458 1.391 . S
C1460 C1461 1.400 . S
C1461 C1455 1.491 . S
C1461 C1460 1.400 . S
C1461 C1462 1.399 . S
C1462 H1450 0.949 1_655 S
C1462 C1461 1.399 . S
C1462 C1463 1.391 . S
C1463 H1451 0.950 1_655 S
C1463 C1459 1.393 . S
C1463 C1462 1.391 . S
H1464 C1472 0.950 . S
H1465 C1477 0.950 . S
H1466 C1474 0.950 . S
H1467 C1476 0.950 . S
H1468 C1478 0.950 . S
H1469 C1480 0.950 . S
H1470 C1482 0.950 . S
H1471 C1483 0.950 . S
C1472 H1464 0.950 . S
C1472 C1473 1.386 . S
C1472 C1474 1.391 . S
C1473 C1472 1.386 . S
C1473 C1477 1.393 . S
C1474 H1466 0.950 . S
C1474 C1472 1.391 . S
C1474 C1475 1.400 . S
C1475 C1474 1.400 . S
C1475 C1476 1.398 . S
C1475 C1481 1.491 . S
C1476 H1467 0.950 . S
C1476 C1475 1.398 . S
C1476 C1477 1.391 . S
C1477 H1465 0.950 . S
C1477 C1473 1.393 . S
C1477 C1476 1.391 . S
C1478 H1468 0.950 . S
C1478 C1479 1.386 . S
C1478 C1480 1.391 . S
C1479 C1478 1.386 . S
C1479 C1483 1.393 . S
C1480 H1469 0.950 . S
C1480 C1478 1.391 . S
C1480 C1481 1.400 . S
C1481 C1475 1.491 . S
C1481 C1480 1.400 . S
C1481 C1482 1.398 . S
C1482 H1470 0.950 . S
C1482 C1481 1.398 . S
C1482 C1483 1.391 . S
C1483 H1471 0.950 . S
C1483 C1479 1.393 . S
C1483 C1482 1.391 . S
H1484 C1492 0.950 . S
H1485 C1497 0.950 . S
H1486 C1494 0.950 . S
H1487 C1496 0.950 . S
H1488 C1498 0.950 . S
H1489 C1500 0.950 . S
H1490 C1502 0.950 . S
H1491 C1503 0.950 . S
C1492 H1484 0.950 . S
C1492 C1493 1.386 . S
C1492 C1494 1.391 . S
C1493 C1492 1.386 . S
C1493 C1497 1.393 . S
C1494 H1486 0.950 . S
C1494 C1492 1.391 . S
C1494 C1495 1.400 . S
C1495 C1494 1.400 . S
C1495 C1496 1.398 . S
C1495 C1501 1.491 . S
C1496 H1487 0.950 . S
C1496 C1495 1.398 . S
C1496 C1497 1.391 . S
C1497 H1485 0.950 . S
C1497 C1493 1.393 . S
C1497 C1496 1.391 . S
C1498 H1488 0.950 . S
C1498 C1499 1.386 . S
C1498 C1500 1.391 . S
C1499 C1498 1.386 . S
C1499 C1503 1.393 . S
C1500 H1489 0.950 . S
C1500 C1498 1.391 . S
C1500 C1501 1.400 . S
C1501 C1495 1.491 . S
C1501 C1500 1.400 . S
C1501 C1502 1.398 . S
C1502 H1490 0.950 . S
C1502 C1501 1.398 . S
C1502 C1503 1.391 . S
C1503 H1491 0.950 . S
C1503 C1499 1.393 . S
C1503 C1502 1.391 . S
H1504 C1512 0.950 . S
H1505 C1517 0.950 . S
H1506 C1514 0.950 . S
H1507 C1516 0.950 . S
H1508 C1518 0.950 1_565 S
H1509 C1520 0.950 1_565 S
H1510 C1522 0.950 . S
H1511 C1523 0.950 . S
C1512 H1504 0.950 . S
C1512 C1513 1.437 . S
C1512 C1514 1.391 . S
C1513 C1512 1.437 . S
C1513 C1517 1.355 1_545 S
C1514 H1506 0.950 . S
C1514 C1512 1.391 . S
C1514 C1515 1.400 . S
C1515 C1514 1.400 . S
C1515 C1516 1.398 1_545 S
C1515 C1521 1.491 . S
C1516 H1507 0.950 . S
C1516 C1515 1.398 1_565 S
C1516 C1517 1.391 . S
C1517 H1505 0.950 . S
C1517 C1513 1.355 1_565 S
C1517 C1516 1.391 . S
C1518 H1508 0.950 1_545 S
C1518 C1519 1.386 . S
C1518 C1520 1.391 . S
C1519 C1518 1.386 . S
C1519 C1523 1.393 . S
C1520 H1509 0.950 1_545 S
C1520 C1518 1.391 . S
C1520 C1521 1.400 . S
C1521 C1515 1.491 . S
C1521 C1520 1.400 . S
C1521 C1522 1.398 . S
C1522 H1510 0.950 . S
C1522 C1521 1.398 . S
C1522 C1523 1.391 . S
C1523 H1511 0.950 . S
C1523 C1519 1.393 . S
C1523 C1522 1.391 . S
H1524 C1532 0.950 . S
H1525 C1537 0.950 . S
H1526 C1534 0.950 . S
H1527 C1536 0.950 . S
H1528 C1538 0.950 . S
H1529 C1540 0.950 . S
H1530 C1542 0.950 . S
H1531 C1543 0.948 . S
C1532 H1524 0.950 . S
C1532 C1533 1.386 1_545 S
C1532 C1534 1.391 . S
C1533 C1532 1.386 1_565 S
C1533 C1537 1.393 . S
C1534 H1526 0.950 . S
C1534 C1532 1.391 . S
C1534 C1535 1.400 1_545 S
C1535 C1534 1.400 1_565 S
C1535 C1536 1.398 . S
C1535 C1541 1.491 . S
C1536 H1527 0.950 . S
C1536 C1535 1.398 . S
C1536 C1537 1.391 . S
C1537 H1525 0.950 . S
C1537 C1533 1.393 . S
C1537 C1536 1.391 . S
C1538 H1528 0.950 . S
C1538 C1539 1.386 . S
C1538 C1540 1.391 . S
C1539 C1538 1.386 . S
C1539 C1543 1.395 1_565 S
C1540 H1529 0.950 . S
C1540 C1538 1.391 . S
C1540 C1541 1.400 . S
C1541 C1535 1.491 . S
C1541 C1540 1.400 . S
C1541 C1542 1.398 1_565 S
C1542 H1530 0.950 . S
C1542 C1541 1.398 1_545 S
C1542 C1543 1.391 . S
C1543 H1531 0.948 . S
C1543 C1539 1.395 1_545 S
C1543 C1542 1.391 . S
H1544 C1552 0.950 . S
H1545 C1557 0.950 . S
H1546 C1554 0.950 . S
H1547 C1556 0.950 . S
H1548 C1558 0.950 . S
H1549 C1560 0.950 . S
H1550 C1562 0.950 . S
H1551 C1563 0.950 . S
C1552 H1544 0.950 . S
C1552 C1553 1.386 . S
C1552 C1554 1.391 . S
C1553 C1552 1.386 . S
C1553 C1557 1.393 . S
C1554 H1546 0.950 . S
C1554 C1552 1.391 . S
C1554 C1555 1.400 . S
C1555 C1554 1.400 . S
C1555 C1556 1.398 . S
C1555 C1561 1.491 . S
C1556 H1547 0.950 . S
C1556 C1555 1.398 . S
C1556 C1557 1.391 . S
C1557 H1545 0.950 . S
C1557 C1553 1.393 . S
C1557 C1556 1.391 . S
C1558 H1548 0.950 . S
C1558 C1559 1.386 . S
C1558 C1560 1.391 . S
C1559 C1558 1.386 . S
C1559 C1563 1.393 . S
C1560 H1549 0.950 . S
C1560 C1558 1.391 . S
C1560 C1561 1.400 . S
C1561 C1555 1.491 . S
C1561 C1560 1.400 . S
C1561 C1562 1.398 . S
C1562 H1550 0.950 . S
C1562 C1561 1.398 . S
C1562 C1563 1.391 . S
C1563 H1551 0.950 . S
C1563 C1559 1.393 . S
C1563 C1562 1.391 . S
H1564 C1572 0.950 . S
H1565 C1577 0.951 . S
H1566 C1574 0.950 . S
H1567 C1576 0.950 . S
H1568 C1578 0.950 . S
H1569 C1580 0.950 . S
H1570 C1582 0.950 . S
H1571 C1583 0.950 . S
C1572 H1564 0.950 . S
C1572 C1573 1.386 . S
C1572 C1574 1.391 . S
C1573 C1572 1.386 . S
C1573 C1577 1.393 . S
C1574 H1566 0.950 . S
C1574 C1572 1.391 . S
C1574 C1575 1.400 . S
C1575 C1574 1.400 . S
C1575 C1576 1.398 . S
C1575 C1581 1.491 . S
C1576 H1567 0.950 . S
C1576 C1575 1.398 . S
C1576 C1577 1.391 . S
C1577 H1565 0.951 . S
C1577 C1573 1.393 . S
C1577 C1576 1.391 . S
C1578 H1568 0.950 . S
C1578 C1579 1.386 . S
C1578 C1580 1.391 . S
C1579 C1578 1.386 . S
C1579 C1583 1.393 . S
C1580 H1569 0.950 . S
C1580 C1578 1.391 . S
C1580 C1581 1.400 . S
C1581 C1575 1.491 . S
C1581 C1580 1.400 . S
C1581 C1582 1.398 . S
C1582 H1570 0.950 . S
C1582 C1581 1.398 . S
C1582 C1583 1.391 . S
C1583 H1571 0.950 . S
C1583 C1579 1.393 . S
C1583 C1582 1.391 . S
H1584 C1592 0.950 . S
H1585 C1597 0.950 . S
H1586 C1594 0.950 . S
H1587 C1596 0.950 . S
H1588 C1598 0.950 . S
H1589 C1600 0.950 . S
H1590 C1602 0.950 . S
H1591 C1603 0.950 . S
C1592 H1584 0.950 . S
C1592 C1593 1.386 . S
C1592 C1594 1.391 . S
C1593 C1592 1.386 . S
C1593 C1597 1.393 . S
C1594 H1586 0.950 . S
C1594 C1592 1.391 . S
C1594 C1595 1.400 . S
C1595 C1594 1.400 . S
C1595 C1596 1.398 . S
C1595 C1601 1.491 . S
C1596 H1587 0.950 . S
C1596 C1595 1.398 . S
C1596 C1597 1.391 . S
C1597 H1585 0.950 . S
C1597 C1593 1.393 . S
C1597 C1596 1.391 . S
C1598 H1588 0.950 . S
C1598 C1599 1.386 . S
C1598 C1600 1.391 . S
C1599 C1598 1.386 . S
C1599 C1603 1.393 . S
C1600 H1589 0.950 . S
C1600 C1598 1.391 . S
C1600 C1601 1.400 . S
C1601 C1595 1.491 . S
C1601 C1600 1.400 . S
C1601 C1602 1.398 . S
C1602 H1590 0.950 . S
C1602 C1601 1.398 . S
C1602 C1603 1.391 . S
C1603 H1591 0.950 . S
C1603 C1599 1.393 . S
C1603 C1602 1.391 . S
H1604 C1612 0.950 . S
H1605 C1617 0.950 . S
H1606 C1614 0.950 . S
H1607 C1616 0.950 . S
H1608 C1618 0.950 1_556 S
H1609 C1620 0.953 1_556 S
H1610 C1622 0.950 . S
H1611 C1623 0.950 . S
C1612 H1604 0.950 . S
C1612 C1613 1.434 . S
C1612 C1614 1.391 . S
C1613 C1612 1.434 . S
C1613 C1617 1.355 1_554 S
C1614 H1606 0.950 . S
C1614 C1612 1.391 . S
C1614 C1615 1.400 . S
C1615 C1614 1.400 . S
C1615 C1616 1.398 1_554 S
C1615 C1621 1.491 . S
C1616 H1607 0.950 . S
C1616 C1615 1.398 1_556 S
C1616 C1617 1.391 . S
C1617 H1605 0.950 . S
C1617 C1613 1.355 1_556 S
C1617 C1616 1.391 . S
C1618 H1608 0.950 1_554 S
C1618 C1619 1.386 . S
C1618 C1620 1.391 . S
C1619 C1618 1.386 . S
C1619 C1623 1.393 . S
C1620 H1609 0.953 1_554 S
C1620 C1618 1.391 . S
C1620 C1621 1.398 . S
C1621 C1615 1.491 . S
C1621 C1620 1.398 . S
C1621 C1622 1.398 . S
C1622 H1610 0.950 . S
C1622 C1621 1.398 . S
C1622 C1623 1.391 . S
C1623 H1611 0.950 . S
C1623 C1619 1.393 . S
C1623 C1622 1.391 . S
H1624 C1632 0.950 . S
H1625 C1637 0.950 . S
H1626 C1634 0.950 . S
H1627 C1636 0.950 . S
H1628 C1638 0.950 . S
H1629 C1640 0.950 . S
H1630 C1642 0.950 . S
H1631 C1643 0.950 . S
C1632 H1624 0.950 . S
C1632 C1633 1.386 . S
C1632 C1634 1.391 . S
C1633 C1632 1.386 . S
C1633 C1637 1.393 . S
C1634 H1626 0.950 . S
C1634 C1632 1.391 . S
C1634 C1635 1.400 . S
C1635 C1634 1.400 . S
C1635 C1636 1.398 . S
C1635 C1641 1.491 . S
C1636 H1627 0.950 . S
C1636 C1635 1.398 . S
C1636 C1637 1.391 . S
C1637 H1625 0.950 . S
C1637 C1633 1.393 . S
C1637 C1636 1.391 . S
C1638 H1628 0.950 . S
C1638 C1639 1.386 . S
C1638 C1640 1.391 . S
C1639 C1638 1.386 . S
C1639 C1643 1.393 . S
C1640 H1629 0.950 . S
C1640 C1638 1.391 . S
C1640 C1641 1.400 . S
C1641 C1635 1.491 . S
C1641 C1640 1.400 . S
C1641 C1642 1.398 . S
C1642 H1630 0.950 . S
C1642 C1641 1.398 . S
C1642 C1643 1.391 . S
C1643 H1631 0.950 . S
C1643 C1639 1.393 . S
C1643 C1642 1.391 . S
H1644 C1652 0.950 . S
H1645 C1657 0.950 . S
H1646 C1654 0.950 . S
H1647 C1656 0.950 . S
H1648 C1658 0.950 . S
H1649 C1660 0.950 . S
H1650 C1662 0.950 . S
H1651 C1663 0.950 . S
C1652 H1644 0.950 . S
C1652 C1653 1.386 . S
C1652 C1654 1.391 . S
C1653 C1652 1.386 . S
C1653 C1657 1.393 1_655 S
C1654 H1646 0.950 . S
C1654 C1652 1.391 . S
C1654 C1655 1.400 . S
C1655 C1654 1.400 . S
C1655 C1656 1.398 1_655 S
C1655 C1661 1.491 . S
C1656 H1647 0.950 . S
C1656 C1655 1.398 1_455 S
C1656 C1657 1.391 . S
C1657 H1645 0.950 . S
C1657 C1653 1.393 1_455 S
C1657 C1656 1.391 . S
C1658 H1648 0.950 . S
C1658 C1659 1.386 1_455 S
C1658 C1660 1.391 . S
C1659 C1658 1.386 1_655 S
C1659 C1663 1.393 . S
C1660 H1649 0.950 . S
C1660 C1658 1.391 . S
C1660 C1661 1.400 1_455 S
C1661 C1655 1.491 . S
C1661 C1660 1.400 1_655 S
C1661 C1662 1.398 . S
C1662 H1650 0.950 . S
C1662 C1661 1.398 . S
C1662 C1663 1.391 . S
C1663 H1651 0.950 . S
C1663 C1659 1.393 . S
C1663 C1662 1.391 . S
H1664 C1672 0.950 . S
H1665 C1677 0.950 . S
H1666 C1674 0.950 . S
H1667 C1676 0.950 . S
H1668 C1678 0.950 . S
H1669 C1680 0.950 . S
H1670 C1682 0.950 . S
H1671 C1683 0.950 . S
C1672 H1664 0.950 . S
C1672 C1673 1.386 . S
C1672 C1674 1.391 . S
C1673 C1672 1.386 . S
C1673 C1677 1.393 . S
C1674 H1666 0.950 . S
C1674 C1672 1.391 . S
C1674 C1675 1.400 . S
C1675 C1674 1.400 . S
C1675 C1676 1.398 . S
C1675 C1681 1.491 . S
C1676 H1667 0.950 . S
C1676 C1675 1.398 . S
C1676 C1677 1.391 . S
C1677 H1665 0.950 . S
C1677 C1673 1.393 . S
C1677 C1676 1.391 . S
C1678 H1668 0.950 . S
C1678 C1679 1.386 . S
C1678 C1680 1.391 . S
C1679 C1678 1.386 . S
C1679 C1683 1.393 . S
C1680 H1669 0.950 . S
C1680 C1678 1.391 . S
C1680 C1681 1.400 . S
C1681 C1675 1.491 . S
C1681 C1680 1.400 . S
C1681 C1682 1.398 . S
C1682 H1670 0.950 . S
C1682 C1681 1.398 . S
C1682 C1683 1.391 . S
C1683 H1671 0.950 . S
C1683 C1679 1.393 . S
C1683 C1682 1.391 . S
H1684 C1692 0.950 . S
H1685 C1697 0.950 . S
H1686 C1694 0.950 . S
H1687 C1696 0.950 . S
H1688 C1698 0.950 . S
H1689 C1700 0.950 1_655 S
H1690 C1702 0.950 . S
H1691 C1703 0.950 . S
C1692 H1684 0.950 . S
C1692 C1693 1.386 . S
C1692 C1694 1.391 . S
C1693 C1692 1.386 . S
C1693 C1697 1.393 1_455 S
C1694 H1686 0.950 . S
C1694 C1692 1.391 . S
C1694 C1695 1.400 . S
C1695 C1694 1.400 . S
C1695 C1696 1.398 1_455 S
C1695 C1701 1.491 . S
C1696 H1687 0.950 . S
C1696 C1695 1.398 1_655 S
C1696 C1697 1.391 . S
C1697 H1685 0.950 . S
C1697 C1693 1.393 1_655 S
C1697 C1696 1.391 . S
C1698 H1688 0.950 . S
C1698 C1699 1.386 . S
C1698 C1700 1.391 . S
C1699 C1698 1.386 . S
C1699 C1703 1.393 . S
C1700 H1689 0.950 1_455 S
C1700 C1698 1.391 . S
C1700 C1701 1.400 . S
C1701 C1695 1.491 . S
C1701 C1700 1.400 . S
C1701 C1702 1.398 . S
C1702 H1690 0.950 . S
C1702 C1701 1.398 . S
C1702 C1703 1.391 . S
C1703 H1691 0.950 . S
C1703 C1699 1.393 . S
C1703 C1702 1.391 . S
H1704 C1712 0.950 . S
H1705 C1717 0.950 . S
H1706 C1714 0.950 . S
H1707 C1716 0.950 . S
H1708 C1718 0.950 . S
H1709 C1720 0.950 . S
H1710 C1722 0.950 . S
H1711 C1723 0.950 . S
C1712 H1704 0.950 . S
C1712 C1713 1.386 . S
C1712 C1714 1.391 . S
C1713 C1712 1.386 . S
C1713 C1717 1.393 . S
C1714 H1706 0.950 . S
C1714 C1712 1.391 . S
C1714 C1715 1.400 . S
C1715 C1714 1.400 . S
C1715 C1716 1.398 . S
C1715 C1721 1.491 . S
C1716 H1707 0.950 . S
C1716 C1715 1.398 . S
C1716 C1717 1.391 . S
C1717 H1705 0.950 . S
C1717 C1713 1.393 . S
C1717 C1716 1.391 . S
C1718 H1708 0.950 . S
C1718 C1719 1.386 . S
C1718 C1720 1.391 . S
C1719 C1718 1.386 . S
C1719 C1723 1.393 . S
C1720 H1709 0.950 . S
C1720 C1718 1.391 . S
C1720 C1721 1.400 . S
C1721 C1715 1.491 . S
C1721 C1720 1.400 . S
C1721 C1722 1.398 . S
C1722 H1710 0.950 . S
C1722 C1721 1.398 . S
C1722 C1723 1.391 . S
C1723 H1711 0.950 . S
C1723 C1719 1.393 . S
C1723 C1722 1.391 . S
H1724 C1732 0.950 . S
H1725 C1737 0.950 . S
H1726 C1734 0.950 . S
H1727 C1736 0.950 . S
H1728 C1738 0.950 . S
H1729 C1740 0.950 . S
H1730 C1742 0.950 . S
H1731 C1743 0.950 . S
C1732 H1724 0.950 . S
C1732 C1733 1.386 . S
C1732 C1734 1.391 . S
C1733 C1732 1.386 . S
C1733 C1737 1.393 . S
C1734 H1726 0.950 . S
C1734 C1732 1.391 . S
C1734 C1735 1.400 . S
C1735 C1734 1.400 . S
C1735 C1736 1.398 . S
C1735 C1741 1.491 . S
C1736 H1727 0.950 . S
C1736 C1735 1.398 . S
C1736 C1737 1.391 . S
C1737 H1725 0.950 . S
C1737 C1733 1.393 . S
C1737 C1736 1.391 . S
C1738 H1728 0.950 . S
C1738 C1739 1.386 . S
C1738 C1740 1.391 . S
C1739 C1738 1.386 . S
C1739 C1743 1.393 . S
C1740 H1729 0.950 . S
C1740 C1738 1.391 . S
C1740 C1741 1.400 . S
C1741 C1735 1.491 . S
C1741 C1740 1.400 . S
C1741 C1742 1.398 . S
C1742 H1730 0.950 . S
C1742 C1741 1.398 . S
C1742 C1743 1.391 . S
C1743 H1731 0.950 . S
C1743 C1739 1.393 . S
C1743 C1742 1.391 . S
H1744 C1752 0.950 . S
H1745 C1757 0.950 . S
H1746 C1754 0.950 . S
H1747 C1756 0.950 . S
H1748 C1758 0.950 . S
H1749 C1760 0.950 . S
H1750 C1762 0.950 . S
H1751 C1763 0.950 . S
C1752 H1744 0.950 . S
C1752 C1753 1.379 1_545 S
C1752 C1754 1.391 . S
C1753 C1752 1.379 1_565 S
C1753 C1757 1.399 . S
C1754 H1746 0.950 . S
C1754 C1752 1.391 . S
C1754 C1755 1.394 1_545 S
C1755 C1754 1.394 1_565 S
C1755 C1756 1.411 . S
C1755 C1761 1.488 . S
C1756 H1747 0.950 . S
C1756 C1755 1.411 . S
C1756 C1757 1.391 . S
C1757 H1745 0.950 . S
C1757 C1753 1.399 . S
C1757 C1756 1.391 . S
C1758 H1748 0.950 . S
C1758 C1759 1.393 . S
C1758 C1760 1.391 . S
C1759 C1758 1.393 . S
C1759 C1763 1.388 1_565 S
C1760 H1749 0.950 . S
C1760 C1758 1.391 . S
C1760 C1761 1.403 . S
C1761 C1755 1.488 . S
C1761 C1760 1.403 . S
C1761 C1762 1.394 1_565 S
C1762 H1750 0.950 . S
C1762 C1761 1.394 1_545 S
C1762 C1763 1.391 . S
C1763 H1751 0.950 . S
C1763 C1759 1.388 1_545 S
C1763 C1762 1.391 . S
H1764 C1772 0.950 . S
H1765 C1777 0.950 . S
H1766 C1774 0.950 . S
H1767 C1776 0.950 . S
H1768 C1778 0.950 . S
H1769 C1780 0.950 . S
H1770 C1782 0.950 . S
H1771 C1783 0.950 . S
C1772 H1764 0.950 . S
C1772 C1773 1.386 . S
C1772 C1774 1.391 . S
C1773 C1772 1.386 . S
C1773 C1777 1.393 1_565 S
C1774 H1766 0.950 . S
C1774 C1772 1.391 . S
C1774 C1775 1.400 . S
C1775 C1774 1.400 . S
C1775 C1776 1.398 1_565 S
C1775 C1781 1.491 . S
C1776 H1767 0.950 . S
C1776 C1775 1.398 1_545 S
C1776 C1777 1.391 . S
C1777 H1765 0.950 . S
C1777 C1773 1.393 1_545 S
C1777 C1776 1.391 . S
C1778 H1768 0.950 . S
C1778 C1779 1.386 1_545 S
C1778 C1780 1.391 . S
C1779 C1778 1.386 1_565 S
C1779 C1783 1.393 . S
C1780 H1769 0.950 . S
C1780 C1778 1.391 . S
C1780 C1781 1.400 1_545 S
C1781 C1775 1.491 . S
C1781 C1780 1.400 1_565 S
C1781 C1782 1.398 . S
C1782 H1770 0.950 . S
C1782 C1781 1.398 . S
C1782 C1783 1.391 . S
C1783 H1771 0.950 . S
C1783 C1779 1.393 . S
C1783 C1782 1.391 . S
H1784 C1792 0.950 . S
H1785 C1797 0.950 . S
H1786 C1794 0.950 . S
H1787 C1796 0.950 . S
H1788 C1798 0.950 . S
H1789 C1800 0.950 . S
H1790 C1802 0.950 . S
H1791 C1803 0.950 . S
C1792 H1784 0.950 . S
C1792 C1793 1.386 . S
C1792 C1794 1.391 . S
C1793 C1792 1.386 . S
C1793 C1797 1.393 . S
C1794 H1786 0.950 . S
C1794 C1792 1.391 . S
C1794 C1795 1.400 . S
C1795 C1794 1.400 . S
C1795 C1796 1.398 . S
C1795 C1801 1.491 . S
C1796 H1787 0.950 . S
C1796 C1795 1.398 . S
C1796 C1797 1.391 . S
C1797 H1785 0.950 . S
C1797 C1793 1.393 . S
C1797 C1796 1.391 . S
C1798 H1788 0.950 . S
C1798 C1799 1.386 . S
C1798 C1800 1.391 . S
C1799 C1798 1.386 . S
C1799 C1803 1.393 . S
C1800 H1789 0.950 . S
C1800 C1798 1.391 . S
C1800 C1801 1.400 . S
C1801 C1795 1.491 . S
C1801 C1800 1.400 . S
C1801 C1802 1.398 . S
C1802 H1790 0.950 . S
C1802 C1801 1.398 . S
C1802 C1803 1.391 . S
C1803 H1791 0.950 . S
C1803 C1799 1.393 . S
C1803 C1802 1.391 . S
H1804 C1812 0.950 . S
H1805 C1817 0.950 . S
H1806 C1814 0.950 . S
H1807 C1816 0.950 . S
H1808 C1818 0.950 . S
H1809 C1820 0.950 . S
H1810 C1822 0.950 . S
H1811 C1823 0.950 . S
C1812 H1804 0.950 . S
C1812 C1813 1.386 . S
C1812 C1814 1.391 . S
C1813 C1812 1.386 . S
C1813 C1817 1.393 1_556 S
C1814 H1806 0.950 . S
C1814 C1812 1.391 . S
C1814 C1815 1.400 . S
C1815 C1814 1.400 . S
C1815 C1816 1.398 1_556 S
C1815 C1821 1.491 . S
C1816 H1807 0.950 . S
C1816 C1815 1.398 1_554 S
C1816 C1817 1.391 . S
C1817 H1805 0.950 . S
C1817 C1813 1.393 1_554 S
C1817 C1816 1.391 . S
C1818 H1808 0.950 . S
C1818 C1819 1.386 1_554 S
C1818 C1820 1.391 . S
C1819 C1818 1.386 1_556 S
C1819 C1823 1.393 . S
C1820 H1809 0.950 . S
C1820 C1818 1.391 . S
C1820 C1821 1.400 1_554 S
C1821 C1815 1.491 . S
C1821 C1820 1.400 1_556 S
C1821 C1822 1.398 . S
C1822 H1810 0.950 . S
C1822 C1821 1.398 . S
C1822 C1823 1.391 . S
C1823 H1811 0.950 . S
C1823 C1819 1.393 . S
C1823 C1822 1.391 . S
H1824 C1832 0.950 . S
H1825 C1837 0.950 . S
H1826 C1834 0.950 . S
H1827 C1836 0.950 . S
H1828 C1838 0.950 . S
H1829 C1840 0.950 . S
H1830 C1842 0.950 . S
H1831 C1843 0.950 . S
C1832 H1824 0.950 . S
C1832 C1833 1.386 . S
C1832 C1834 1.391 . S
C1833 C1832 1.386 . S
C1833 C1837 1.393 . S
C1834 H1826 0.950 . S
C1834 C1832 1.391 . S
C1834 C1835 1.400 . S
C1835 C1834 1.400 . S
C1835 C1836 1.398 . S
C1835 C1841 1.491 . S
C1836 H1827 0.950 . S
C1836 C1835 1.398 . S
C1836 C1837 1.391 . S
C1837 H1825 0.950 . S
C1837 C1833 1.393 . S
C1837 C1836 1.391 . S
C1838 H1828 0.950 . S
C1838 C1839 1.386 . S
C1838 C1840 1.391 . S
C1839 C1838 1.386 . S
C1839 C1843 1.393 . S
C1840 H1829 0.950 . S
C1840 C1838 1.391 . S
C1840 C1841 1.400 . S
C1841 C1835 1.491 . S
C1841 C1840 1.400 . S
C1841 C1842 1.398 . S
C1842 H1830 0.950 . S
C1842 C1841 1.398 . S
C1842 C1843 1.391 . S
C1843 H1831 0.950 . S
C1843 C1839 1.393 . S
C1843 C1842 1.391 . S
H1844 C1852 0.950 . S
H1845 C1857 0.950 . S
H1846 C1854 0.950 . S
H1847 C1856 0.950 . S
H1848 C1858 0.950 . S
H1849 C1860 0.950 . S
H1850 C1862 0.950 . S
H1851 C1863 0.950 . S
C1852 H1844 0.950 . S
C1852 C1853 1.393 . S
C1852 C1854 1.391 . S
C1853 C1852 1.393 . S
C1853 C1857 1.385 1_556 S
C1854 H1846 0.950 . S
C1854 C1852 1.391 . S
C1854 C1855 1.414 . S
C1855 C1854 1.414 . S
C1855 C1856 1.391 1_556 S
C1855 C1861 1.488 . S
C1856 H1847 0.950 . S
C1856 C1855 1.391 1_554 S
C1856 C1857 1.391 . S
C1857 H1845 0.950 . S
C1857 C1853 1.385 1_554 S
C1857 C1856 1.391 . S
C1858 H1848 0.950 . S
C1858 C1859 1.379 1_554 S
C1858 C1860 1.391 . S
C1859 C1858 1.379 1_556 S
C1859 C1863 1.402 . S
C1860 H1849 0.950 . S
C1860 C1858 1.391 . S
C1860 C1861 1.395 1_554 S
C1861 C1855 1.488 . S
C1861 C1860 1.395 1_556 S
C1861 C1862 1.402 . S
C1862 H1850 0.950 . S
C1862 C1861 1.402 . S
C1862 C1863 1.391 . S
C1863 H1851 0.950 . S
C1863 C1859 1.402 . S
C1863 C1862 1.391 . S
H1864 C1872 0.950 . S
H1865 C1877 0.950 . S
H1866 C1874 0.950 . S
H1867 C1876 0.950 . S
H1868 C1878 0.950 . S
H1869 C1880 0.950 . S
H1870 C1882 0.950 . S
H1871 C1883 0.950 . S
C1872 H1864 0.950 . S
C1872 C1873 1.386 . S
C1872 C1874 1.391 . S
C1873 C1872 1.386 . S
C1873 C1877 1.393 . S
C1874 H1866 0.950 . S
C1874 C1872 1.391 . S
C1874 C1875 1.400 . S
C1875 C1874 1.400 . S
C1875 C1876 1.398 . S
C1875 C1881 1.491 . S
C1876 H1867 0.950 . S
C1876 C1875 1.398 . S
C1876 C1877 1.391 . S
C1877 H1865 0.950 . S
C1877 C1873 1.393 . S
C1877 C1876 1.391 . S
C1878 H1868 0.950 . S
C1878 C1879 1.386 . S
C1878 C1880 1.391 . S
C1879 C1878 1.386 . S
C1879 C1883 1.393 . S
C1880 H1869 0.950 . S
C1880 C1878 1.391 . S
C1880 C1881 1.400 . S
C1881 C1875 1.491 . S
C1881 C1880 1.400 . S
C1881 C1882 1.398 . S
C1882 H1870 0.950 . S
C1882 C1881 1.398 . S
C1882 C1883 1.391 . S
C1883 H1871 0.950 . S
C1883 C1879 1.393 . S
C1883 C1882 1.391 . S
H1884 C1892 0.950 . S
H1885 C1897 0.950 . S
H1886 C1894 0.950 . S
H1887 C1896 0.950 . S
H1888 C1898 0.950 . S
H1889 C1900 0.950 . S
H1890 C1902 0.950 . S
H1891 C1903 0.950 . S
C1892 H1884 0.950 . S
C1892 C1893 1.386 . S
C1892 C1894 1.391 . S
C1893 C1892 1.386 . S
C1893 C1897 1.393 1_655 S
C1894 H1886 0.950 . S
C1894 C1892 1.391 . S
C1894 C1895 1.400 . S
C1895 C1894 1.400 . S
C1895 C1896 1.398 1_655 S
C1895 C1901 1.491 . S
C1896 H1887 0.950 . S
C1896 C1895 1.398 1_455 S
C1896 C1897 1.391 . S
C1897 H1885 0.950 . S
C1897 C1893 1.393 1_455 S
C1897 C1896 1.391 . S
C1898 H1888 0.950 . S
C1898 C1899 1.386 1_455 S
C1898 C1900 1.391 . S
C1899 C1898 1.386 1_655 S
C1899 C1903 1.393 . S
C1900 H1889 0.950 . S
C1900 C1898 1.391 . S
C1900 C1901 1.400 1_455 S
C1901 C1895 1.491 . S
C1901 C1900 1.400 1_655 S
C1901 C1902 1.398 . S
C1902 H1890 0.950 . S
C1902 C1901 1.398 . S
C1902 C1903 1.391 . S
C1903 H1891 0.950 . S
C1903 C1899 1.393 . S
C1903 C1902 1.391 . S
H1904 C1912 0.950 . S
H1905 C1917 0.950 . S
H1906 C1914 0.950 . S
H1907 C1916 0.950 . S
H1908 C1918 0.950 . S
H1909 C1920 0.950 . S
H1910 C1922 0.950 . S
H1911 C1923 0.950 . S
C1912 H1904 0.950 . S
C1912 C1913 1.386 . S
C1912 C1914 1.391 . S
C1913 C1912 1.386 . S
C1913 C1917 1.393 . S
C1914 H1906 0.950 . S
C1914 C1912 1.391 . S
C1914 C1915 1.400 . S
C1915 C1914 1.400 . S
C1915 C1916 1.398 . S
C1915 C1921 1.491 . S
C1916 H1907 0.950 . S
C1916 C1915 1.398 . S
C1916 C1917 1.391 . S
C1917 H1905 0.950 . S
C1917 C1913 1.393 . S
C1917 C1916 1.391 . S
C1918 H1908 0.950 . S
C1918 C1919 1.386 . S
C1918 C1920 1.391 . S
C1919 C1918 1.386 . S
C1919 C1923 1.393 . S
C1920 H1909 0.950 . S
C1920 C1918 1.391 . S
C1920 C1921 1.400 . S
C1921 C1915 1.491 . S
C1921 C1920 1.400 . S
C1921 C1922 1.398 . S
C1922 H1910 0.950 . S
C1922 C1921 1.398 . S
C1922 C1923 1.391 . S
C1923 H1911 0.950 . S
C1923 C1919 1.393 . S
C1923 C1922 1.391 . S
H1924 C1932 0.950 . S
H1925 C1937 0.950 . S
H1926 C1934 0.950 . S
H1927 C1936 0.950 . S
H1928 C1938 0.950 . S
H1929 C1940 0.950 . S
H1930 C1942 0.950 . S
H1931 C1943 0.950 . S
C1932 H1924 0.950 . S
C1932 C1933 1.396 . S
C1932 C1934 1.391 . S
C1933 C1932 1.396 . S
C1933 C1937 1.382 1_655 S
C1934 H1926 0.950 . S
C1934 C1932 1.391 . S
C1934 C1935 1.419 . S
C1935 C1934 1.419 . S
C1935 C1936 1.385 1_655 S
C1935 C1941 1.489 . S
C1936 H1927 0.950 . S
C1936 C1935 1.385 1_455 S
C1936 C1937 1.391 . S
C1937 H1925 0.950 . S
C1937 C1933 1.382 1_455 S
C1937 C1936 1.391 . S
C1938 H1928 0.950 . S
C1938 C1939 1.373 1_455 S
C1938 C1940 1.391 . S
C1939 C1938 1.373 1_655 S
C1939 C1943 1.408 . S
C1940 H1929 0.950 . S
C1940 C1938 1.391 . S
C1940 C1941 1.392 1_455 S
C1941 C1935 1.489 . S
C1941 C1940 1.392 1_655 S
C1941 C1942 1.404 . S
C1942 H1930 0.950 . S
C1942 C1941 1.404 . S
C1942 C1943 1.391 . S
C1943 H1931 0.950 . S
C1943 C1939 1.408 . S
C1943 C1942 1.391 . S
H1944 C1952 0.950 . S
H1945 C1957 0.950 . S
H1946 C1954 0.950 . S
H1947 C1956 0.950 . S
H1948 C1958 0.950 . S
H1949 C1960 0.950 . S
H1950 C1962 0.950 . S
H1951 C1963 0.950 . S
C1952 H1944 0.950 . S
C1952 C1953 1.386 . S
C1952 C1954 1.391 . S
C1953 C1952 1.386 . S
C1953 C1957 1.393 . S
C1954 H1946 0.950 . S
C1954 C1952 1.391 . S
C1954 C1955 1.400 . S
C1955 C1954 1.400 . S
C1955 C1956 1.398 . S
C1955 C1961 1.491 . S
C1956 H1947 0.950 . S
C1956 C1955 1.398 . S
C1956 C1957 1.391 . S
C1957 H1945 0.950 . S
C1957 C1953 1.393 . S
C1957 C1956 1.391 . S
C1958 H1948 0.950 . S
C1958 C1959 1.386 . S
C1958 C1960 1.391 . S
C1959 C1958 1.386 . S
C1959 C1963 1.393 . S
C1960 H1949 0.950 . S
C1960 C1958 1.391 . S
C1960 C1961 1.400 . S
C1961 C1955 1.491 . S
C1961 C1960 1.400 . S
C1961 C1962 1.398 . S
C1962 H1950 0.950 . S
C1962 C1961 1.398 . S
C1962 C1963 1.391 . S
C1963 H1951 0.950 . S
C1963 C1959 1.393 . S
C1963 C1962 1.391 . S
H1964 C1972 0.950 . S
H1965 C1977 0.950 . S
H1966 C1974 0.950 . S
H1967 C1976 0.950 . S
H1968 C1978 0.950 . S
H1969 C1980 0.950 . S
H1970 C1982 0.950 . S
H1971 C1983 0.950 . S
C1972 H1964 0.950 . S
C1972 C1973 1.386 . S
C1972 C1974 1.391 . S
C1973 C1972 1.386 . S
C1973 C1977 1.393 . S
C1974 H1966 0.950 . S
C1974 C1972 1.391 . S
C1974 C1975 1.400 . S
C1975 C1974 1.400 . S
C1975 C1976 1.398 . S
C1975 C1981 1.491 . S
C1976 H1967 0.950 . S
C1976 C1975 1.398 . S
C1976 C1977 1.391 . S
C1977 H1965 0.950 . S
C1977 C1973 1.393 . S
C1977 C1976 1.391 . S
C1978 H1968 0.950 . S
C1978 C1979 1.386 . S
C1978 C1980 1.391 . S
C1979 C1978 1.386 . S
C1979 C1983 1.393 . S
C1980 H1969 0.950 . S
C1980 C1978 1.391 . S
C1980 C1981 1.400 . S
C1981 C1975 1.491 . S
C1981 C1980 1.400 . S
C1981 C1982 1.398 . S
C1982 H1970 0.950 . S
C1982 C1981 1.398 . S
C1982 C1983 1.391 . S
C1983 H1971 0.950 . S
C1983 C1979 1.393 . S
C1983 C1982 1.391 . S
H1984 C1992 0.950 . S
H1985 C1997 0.950 . S
H1986 C1994 0.950 . S
H1987 C1996 0.950 . S
H1988 C1998 0.950 . S
H1989 C2000 0.950 . S
H1990 C2002 0.950 . S
H1991 C2003 0.950 . S
C1992 H1984 0.950 . S
C1992 C1993 1.402 . S
C1992 C1994 1.391 . S
C1993 C1992 1.402 . S
C1993 C1997 1.378 1_565 S
C1994 H1986 0.950 . S
C1994 C1992 1.391 . S
C1994 C1995 1.394 1_565 S
C1995 C1994 1.394 1_545 S
C1995 C1996 1.405 . S
C1995 C2001 1.493 . S
C1996 H1987 0.950 . S
C1996 C1995 1.405 . S
C1996 C1997 1.391 . S
C1997 H1985 0.950 . S
C1997 C1993 1.378 1_545 S
C1997 C1996 1.391 . S
C1998 H1988 0.950 . S
C1998 C1999 1.386 . S
C1998 C2000 1.391 . S
C1999 C1998 1.386 . S
C1999 C2003 1.393 1_545 S
C2000 H1989 0.950 . S
C2000 C1998 1.391 . S
C2000 C2001 1.436 . S
C2001 C1995 1.493 . S
C2001 C2000 1.436 . S
C2001 C2002 1.362 1_545 S
C2002 H1990 0.950 . S
C2002 C2001 1.362 1_565 S
C2002 C2003 1.391 . S
C2003 H1991 0.950 . S
C2003 C1999 1.393 1_565 S
C2003 C2002 1.391 . S
H2004 C2012 0.950 . S
H2005 C2017 0.950 . S
H2006 C2014 0.950 . S
H2007 C2016 0.950 . S
H2008 C2018 0.950 . S
H2009 C2020 0.950 . S
H2010 C2022 0.950 . S
H2011 C2023 0.950 . S
C2012 H2004 0.950 . S
C2012 C2013 1.386 . S
C2012 C2014 1.391 . S
C2013 C2012 1.386 . S
C2013 C2017 1.393 1_545 S
C2014 H2006 0.950 . S
C2014 C2012 1.391 . S
C2014 C2015 1.400 . S
C2015 C2014 1.400 . S
C2015 C2016 1.398 1_545 S
C2015 C2021 1.491 . S
C2016 H2007 0.950 . S
C2016 C2015 1.398 1_565 S
C2016 C2017 1.391 . S
C2017 H2005 0.950 . S
C2017 C2013 1.393 1_565 S
C2017 C2016 1.391 . S
C2018 H2008 0.950 . S
C2018 C2019 1.386 1_565 S
C2018 C2020 1.391 . S
C2019 C2018 1.386 1_545 S
C2019 C2023 1.393 . S
C2020 H2009 0.950 . S
C2020 C2018 1.391 . S
C2020 C2021 1.400 1_565 S
C2021 C2015 1.491 . S
C2021 C2020 1.400 1_545 S
C2021 C2022 1.398 . S
C2022 H2010 0.950 . S
C2022 C2021 1.398 . S
C2022 C2023 1.391 . S
C2023 H2011 0.950 . S
C2023 C2019 1.393 . S
C2023 C2022 1.391 . S
H2024 C2032 0.950 . S
H2025 C2037 0.950 . S
H2026 C2034 0.950 . S
H2027 C2036 0.950 . S
H2028 C2038 0.950 . S
H2029 C2040 0.950 . S
H2030 C2042 0.950 . S
H2031 C2043 0.950 . S
C2032 H2024 0.950 . S
C2032 C2033 1.386 . S
C2032 C2034 1.391 . S
C2033 C2032 1.386 . S
C2033 C2037 1.393 . S
C2034 H2026 0.950 . S
C2034 C2032 1.391 . S
C2034 C2035 1.400 . S
C2035 C2034 1.400 . S
C2035 C2036 1.398 . S
C2035 C2041 1.491 . S
C2036 H2027 0.950 . S
C2036 C2035 1.398 . S
C2036 C2037 1.391 . S
C2037 H2025 0.950 . S
C2037 C2033 1.393 . S
C2037 C2036 1.391 . S
C2038 H2028 0.950 . S
C2038 C2039 1.386 . S
C2038 C2040 1.391 . S
C2039 C2038 1.386 . S
C2039 C2043 1.393 . S
C2040 H2029 0.950 . S
C2040 C2038 1.391 . S
C2040 C2041 1.400 . S
C2041 C2035 1.491 . S
C2041 C2040 1.400 . S
C2041 C2042 1.398 . S
C2042 H2030 0.950 . S
C2042 C2041 1.398 . S
C2042 C2043 1.391 . S
C2043 H2031 0.950 . S
C2043 C2039 1.393 . S
C2043 C2042 1.391 . S
H2044 C2052 0.950 . S
H2045 C2057 0.950 . S
H2046 C2054 0.950 . S
H2047 C2056 0.950 . S
H2048 C2058 0.950 . S
H2049 C2060 0.950 . S
H2050 C2062 0.950 . S
H2051 C2063 0.950 . S
C2052 H2044 0.950 . S
C2052 C2053 1.386 . S
C2052 C2054 1.391 . S
C2053 C2052 1.386 . S
C2053 C2057 1.393 1_554 S
C2054 H2046 0.950 . S
C2054 C2052 1.391 . S
C2054 C2055 1.400 . S
C2055 C2054 1.400 . S
C2055 C2056 1.398 1_554 S
C2055 C2061 1.491 . S
C2056 H2047 0.950 . S
C2056 C2055 1.398 1_556 S
C2056 C2057 1.391 . S
C2057 H2045 0.950 . S
C2057 C2053 1.393 1_556 S
C2057 C2056 1.391 . S
C2058 H2048 0.950 . S
C2058 C2059 1.386 1_556 S
C2058 C2060 1.391 . S
C2059 C2058 1.386 1_554 S
C2059 C2063 1.393 . S
C2060 H2049 0.950 . S
C2060 C2058 1.391 . S
C2060 C2061 1.400 1_556 S
C2061 C2055 1.491 . S
C2061 C2060 1.400 1_554 S
C2061 C2062 1.398 . S
C2062 H2050 0.950 . S
C2062 C2061 1.398 . S
C2062 C2063 1.391 . S
C2063 H2051 0.950 . S
C2063 C2059 1.393 . S
C2063 C2062 1.391 . S
H2064 C2072 0.950 . S
H2065 C2077 0.950 . S
H2066 C2074 0.950 . S
H2067 C2076 0.950 . S
H2068 C2078 0.950 . S
H2069 C2080 0.950 . S
H2070 C2082 0.950 . S
H2071 C2083 0.950 . S
C2072 H2064 0.950 . S
C2072 C2073 1.386 . S
C2072 C2074 1.391 . S
C2073 C2072 1.386 . S
C2073 C2077 1.393 . S
C2074 H2066 0.950 . S
C2074 C2072 1.391 . S
C2074 C2075 1.400 . S
C2075 C2074 1.400 . S
C2075 C2076 1.398 . S
C2075 C2081 1.491 . S
C2076 H2067 0.950 . S
C2076 C2075 1.398 . S
C2076 C2077 1.391 . S
C2077 H2065 0.950 . S
C2077 C2073 1.393 . S
C2077 C2076 1.391 . S
C2078 H2068 0.950 . S
C2078 C2079 1.386 . S
C2078 C2080 1.391 . S
C2079 C2078 1.386 . S
C2079 C2083 1.393 . S
C2080 H2069 0.950 . S
C2080 C2078 1.391 . S
C2080 C2081 1.400 . S
C2081 C2075 1.491 . S
C2081 C2080 1.400 . S
C2081 C2082 1.398 . S
C2082 H2070 0.950 . S
C2082 C2081 1.398 . S
C2082 C2083 1.391 . S
C2083 H2071 0.950 . S
C2083 C2079 1.393 . S
C2083 C2082 1.391 . S
H2084 C2092 0.950 . S
H2085 C2097 0.950 . S
H2086 C2094 0.950 . S
H2087 C2096 0.950 . S
H2088 C2098 0.950 . S
H2089 C2100 0.950 . S
H2090 C2102 0.950 . S
H2091 C2103 0.950 . S
C2092 H2084 0.950 . S
C2092 C2093 1.371 1_554 S
C2092 C2094 1.391 . S
C2093 C2092 1.371 1_556 S
C2093 C2097 1.412 . S
C2094 H2086 0.950 . S
C2094 C2092 1.391 . S
C2094 C2095 1.399 . S
C2095 C2094 1.399 . S
C2095 C2096 1.399 1_554 S
C2095 C2101 1.494 . S
C2096 H2087 0.950 . S
C2096 C2095 1.399 1_556 S
C2096 C2097 1.391 . S
C2097 H2085 0.950 . S
C2097 C2093 1.412 . S
C2097 C2096 1.391 . S
C2098 H2088 0.950 . S
C2098 C2099 1.386 1_556 S
C2098 C2100 1.391 . S
C2099 C2098 1.386 1_554 S
C2099 C2103 1.393 . S
C2100 H2089 0.950 . S
C2100 C2098 1.391 . S
C2100 C2101 1.376 1_556 S
C2101 C2095 1.494 . S
C2101 C2100 1.376 1_554 S
C2101 C2102 1.423 . S
C2102 H2090 0.950 . S
C2102 C2101 1.423 . S
C2102 C2103 1.391 . S
C2103 H2091 0.950 . S
C2103 C2099 1.393 . S
C2103 C2102 1.391 . S
H2104 C2112 0.950 . S
H2105 C2117 0.950 . S
H2106 C2114 0.950 . S
H2107 C2116 0.950 . S
H2108 C2118 0.950 . S
H2109 C2120 0.950 . S
H2110 C2122 0.950 . S
H2111 C2123 0.950 . S
C2112 H2104 0.950 . S
C2112 C2113 1.386 . S
C2112 C2114 1.391 . S
C2113 C2112 1.386 . S
C2113 C2117 1.393 . S
C2114 H2106 0.950 . S
C2114 C2112 1.391 . S
C2114 C2115 1.400 . S
C2115 C2114 1.400 . S
C2115 C2116 1.398 . S
C2115 C2121 1.491 . S
C2116 H2107 0.950 . S
C2116 C2115 1.398 . S
C2116 C2117 1.391 . S
C2117 H2105 0.950 . S
C2117 C2113 1.393 . S
C2117 C2116 1.391 . S
C2118 H2108 0.950 . S
C2118 C2119 1.386 . S
C2118 C2120 1.391 . S
C2119 C2118 1.386 . S
C2119 C2123 1.393 . S
C2120 H2109 0.950 . S
C2120 C2118 1.391 . S
C2120 C2121 1.400 . S
C2121 C2115 1.491 . S
C2121 C2120 1.400 . S
C2121 C2122 1.398 . S
C2122 H2110 0.950 . S
C2122 C2121 1.398 . S
C2122 C2123 1.391 . S
C2123 H2111 0.950 . S
C2123 C2119 1.393 . S
C2123 C2122 1.391 . S
H2124 C2132 0.950 . S
H2125 C2137 0.950 . S
H2126 C2134 0.950 . S
H2127 C2136 0.950 . S
H2128 C2138 0.950 . S
H2129 C2140 0.950 . S
H2130 C2142 0.950 . S
H2131 C2143 0.950 . S
C2132 H2124 0.950 . S
C2132 C2133 1.386 . S
C2132 C2134 1.391 . S
C2133 C2132 1.386 . S
C2133 C2137 1.393 1_455 S
C2134 H2126 0.950 . S
C2134 C2132 1.391 . S
C2134 C2135 1.400 . S
C2135 C2134 1.400 . S
C2135 C2136 1.398 1_455 S
C2135 C2141 1.491 . S
C2136 H2127 0.950 . S
C2136 C2135 1.398 1_655 S
C2136 C2137 1.391 . S
C2137 H2125 0.950 . S
C2137 C2133 1.393 1_655 S
C2137 C2136 1.391 . S
C2138 H2128 0.950 . S
C2138 C2139 1.386 1_655 S
C2138 C2140 1.391 . S
C2139 C2138 1.386 1_455 S
C2139 C2143 1.393 . S
C2140 H2129 0.950 . S
C2140 C2138 1.391 . S
C2140 C2141 1.400 1_655 S
C2141 C2135 1.491 . S
C2141 C2140 1.400 1_455 S
C2141 C2142 1.398 . S
C2142 H2130 0.950 . S
C2142 C2141 1.398 . S
C2142 C2143 1.391 . S
C2143 H2131 0.950 . S
C2143 C2139 1.393 . S
C2143 C2142 1.391 . S
H2144 C2152 0.950 . S
H2145 C2157 0.950 . S
H2146 C2154 0.950 . S
H2147 C2156 0.950 . S
H2148 C2158 0.950 . S
H2149 C2160 0.950 . S
H2150 C2162 0.950 . S
H2151 C2163 0.950 . S
C2152 H2144 0.950 . S
C2152 C2153 1.386 . S
C2152 C2154 1.391 . S
C2153 C2152 1.386 . S
C2153 C2157 1.393 . S
C2154 H2146 0.950 . S
C2154 C2152 1.391 . S
C2154 C2155 1.400 . S
C2155 C2154 1.400 . S
C2155 C2156 1.398 . S
C2155 C2161 1.491 . S
C2156 H2147 0.950 . S
C2156 C2155 1.398 . S
C2156 C2157 1.391 . S
C2157 H2145 0.950 . S
C2157 C2153 1.393 . S
C2157 C2156 1.391 . S
C2158 H2148 0.950 . S
C2158 C2159 1.386 . S
C2158 C2160 1.391 . S
C2159 C2158 1.386 . S
C2159 C2163 1.393 . S
C2160 H2149 0.950 . S
C2160 C2158 1.391 . S
C2160 C2161 1.400 . S
C2161 C2155 1.491 . S
C2161 C2160 1.400 . S
C2161 C2162 1.398 . S
C2162 H2150 0.950 . S
C2162 C2161 1.398 . S
C2162 C2163 1.391 . S
C2163 H2151 0.950 . S
C2163 C2159 1.393 . S
C2163 C2162 1.391 . S
H2164 C2172 0.950 . S
H2165 C2177 0.950 . S
H2166 C2174 0.950 . S
H2167 C2176 0.950 . S
H2168 C2178 0.950 . S
H2169 C2180 0.950 . S
H2170 C2182 0.950 . S
H2171 C2183 0.950 . S
C2172 H2164 0.950 . S
C2172 C2173 1.364 1_455 S
C2172 C2174 1.391 . S
C2173 C2172 1.364 1_655 S
C2173 C2177 1.417 . S
C2174 H2166 0.950 . S
C2174 C2172 1.391 . S
C2174 C2175 1.406 . S
C2175 C2174 1.406 . S
C2175 C2176 1.393 1_455 S
C2175 C2181 1.493 . S
C2176 H2167 0.950 . S
C2176 C2175 1.393 1_655 S
C2176 C2177 1.391 . S
C2177 H2165 0.950 . S
C2177 C2173 1.417 . S
C2177 C2176 1.391 . S
C2178 H2168 0.950 . S
C2178 C2179 1.386 1_655 S
C2178 C2180 1.391 . S
C2179 C2178 1.386 1_455 S
C2179 C2183 1.393 . S
C2180 H2169 0.950 . S
C2180 C2178 1.391 . S
C2180 C2181 1.356 1_655 S
C2181 C2175 1.493 . S
C2181 C2180 1.356 1_455 S
C2181 C2182 1.441 . S
C2182 H2170 0.950 . S
C2182 C2181 1.441 . S
C2182 C2183 1.391 . S
C2183 H2171 0.950 . S
C2183 C2179 1.393 . S
C2183 C2182 1.391 . S
H2184 C2192 0.950 . S
H2185 C2197 0.950 . S
H2186 C2194 0.950 . S
H2187 C2196 0.950 . S
H2188 C2198 0.950 . S
H2189 C2200 0.950 . S
H2190 C2202 0.950 . S
H2191 C2203 0.950 . S
C2192 H2184 0.950 . S
C2192 C2193 1.386 . S
C2192 C2194 1.391 . S
C2193 C2192 1.386 . S
C2193 C2197 1.393 . S
C2194 H2186 0.950 . S
C2194 C2192 1.391 . S
C2194 C2195 1.400 . S
C2195 C2194 1.400 . S
C2195 C2196 1.398 . S
C2195 C2201 1.491 . S
C2196 H2187 0.950 . S
C2196 C2195 1.398 . S
C2196 C2197 1.391 . S
C2197 H2185 0.950 . S
C2197 C2193 1.393 . S
C2197 C2196 1.391 . S
C2198 H2188 0.950 . S
C2198 C2199 1.386 . S
C2198 C2200 1.391 . S
C2199 C2198 1.386 . S
C2199 C2203 1.393 . S
C2200 H2189 0.950 . S
C2200 C2198 1.391 . S
C2200 C2201 1.400 . S
C2201 C2195 1.491 . S
C2201 C2200 1.400 . S
C2201 C2202 1.398 . S
C2202 H2190 0.950 . S
C2202 C2201 1.398 . S
C2202 C2203 1.391 . S
C2203 H2191 0.950 . S
C2203 C2199 1.393 . S
C2203 C2202 1.391 . S
H2204 C2212 0.950 . S
H2205 C2217 0.950 . S
H2206 C2214 0.950 . S
H2207 C2216 0.950 . S
H2208 C2218 0.950 . S
H2209 C2220 0.950 . S
H2210 C2222 0.950 . S
H2211 C2223 0.950 . S
C2212 H2204 0.950 . S
C2212 C2213 1.386 . S
C2212 C2214 1.391 . S
C2213 C2212 1.386 . S
C2213 C2217 1.393 . S
C2214 H2206 0.950 . S
C2214 C2212 1.391 . S
C2214 C2215 1.400 . S
C2215 C2214 1.400 . S
C2215 C2216 1.398 . S
C2215 C2221 1.491 . S
C2216 H2207 0.950 . S
C2216 C2215 1.398 . S
C2216 C2217 1.391 . S
C2217 H2205 0.950 . S
C2217 C2213 1.393 . S
C2217 C2216 1.391 . S
C2218 H2208 0.950 . S
C2218 C2219 1.386 . S
C2218 C2220 1.391 . S
C2219 C2218 1.386 . S
C2219 C2223 1.393 . S
C2220 H2209 0.950 . S
C2220 C2218 1.391 . S
C2220 C2221 1.400 . S
C2221 C2215 1.491 . S
C2221 C2220 1.400 . S
C2221 C2222 1.398 . S
C2222 H2210 0.950 . S
C2222 C2221 1.398 . S
C2222 C2223 1.391 . S
C2223 H2211 0.950 . S
C2223 C2219 1.393 . S
C2223 C2222 1.391 . S
H2224 C2232 0.963 . S
H2225 C2237 0.950 . S
H2226 C2234 0.950 . S
H2227 C2236 0.950 . S
H2228 C2238 0.950 . S
H2229 C2240 0.950 . S
H2230 C2242 0.950 . S
H2231 C2243 0.950 . S
C2232 H2224 0.963 . S
C2232 C2233 1.383 1_545 S
C2232 C2234 1.382 1_545 S
C2233 C2232 1.383 1_565 S
C2233 C2237 1.393 . S
C2234 H2226 0.950 . S
C2234 C2232 1.382 1_565 S
C2234 C2235 1.400 . S
C2235 C2234 1.400 . S
C2235 C2236 1.398 . S
C2235 C2241 1.491 . S
C2236 H2227 0.950 . S
C2236 C2235 1.398 . S
C2236 C2237 1.391 . S
C2237 H2225 0.950 . S
C2237 C2233 1.393 . S
C2237 C2236 1.391 . S
C2238 H2228 0.950 . S
C2238 C2239 1.386 . S
C2238 C2240 1.391 . S
C2239 C2238 1.386 . S
C2239 C2243 1.393 . S
C2240 H2229 0.950 . S
C2240 C2238 1.391 . S
C2240 C2241 1.400 . S
C2241 C2235 1.491 . S
C2241 C2240 1.400 . S
C2241 C2242 1.398 . S
C2242 H2230 0.950 . S
C2242 C2241 1.398 . S
C2242 C2243 1.391 . S
C2243 H2231 0.950 . S
C2243 C2239 1.393 . S
C2243 C2242 1.391 . S
H2244 C2252 0.950 . S
H2245 C2257 0.950 . S
H2246 C2254 0.963 . S
H2247 C2256 0.950 . S
H2248 C2258 0.950 . S
H2249 C2260 0.950 . S
H2250 C2262 0.939 1_565 S
H2251 C2263 0.950 1_565 S
C2252 H2244 0.950 . S
C2252 C2253 1.386 1_565 S
C2252 C2254 1.396 . S
C2253 C2252 1.386 1_545 S
C2253 C2257 1.393 . S
C2254 H2246 0.963 . S
C2254 C2252 1.396 . S
C2254 C2255 1.384 1_565 S
C2255 C2254 1.384 1_545 S
C2255 C2256 1.398 . S
C2255 C2261 1.491 . S
C2256 H2247 0.950 . S
C2256 C2255 1.398 . S
C2256 C2257 1.391 . S
C2257 H2245 0.950 . S
C2257 C2253 1.393 . S
C2257 C2256 1.391 . S
C2258 H2248 0.950 . S
C2258 C2259 1.386 . S
C2258 C2260 1.391 . S
C2259 C2258 1.386 . S
C2259 C2263 1.393 . S
C2260 H2249 0.950 . S
C2260 C2258 1.391 . S
C2260 C2261 1.400 . S
C2261 C2255 1.491 . S
C2261 C2260 1.400 . S
C2261 C2262 1.406 . S
C2262 H2250 0.939 1_545 S
C2262 C2261 1.406 . S
C2262 C2263 1.394 . S
C2263 H2251 0.950 1_545 S
C2263 C2259 1.393 . S
C2263 C2262 1.394 . S
H2264 C2272 0.950 . S
H2265 C2277 0.950 . S
H2266 C2274 0.950 . S
H2267 C2276 0.950 . S
H2268 C2278 0.950 . S
H2269 C2280 0.950 . S
H2270 C2282 0.950 . S
H2271 C2283 0.950 . S
C2272 H2264 0.950 . S
C2272 C2273 1.386 . S
C2272 C2274 1.391 . S
C2273 C2272 1.386 . S
C2273 C2277 1.393 . S
C2274 H2266 0.950 . S
C2274 C2272 1.391 . S
C2274 C2275 1.400 . S
C2275 C2274 1.400 . S
C2275 C2276 1.398 . S
C2275 C2281 1.491 . S
C2276 H2267 0.950 . S
C2276 C2275 1.398 . S
C2276 C2277 1.391 . S
C2277 H2265 0.950 . S
C2277 C2273 1.393 . S
C2277 C2276 1.391 . S
C2278 H2268 0.950 . S
C2278 C2279 1.386 . S
C2278 C2280 1.391 . S
C2279 C2278 1.386 . S
C2279 C2283 1.393 . S
C2280 H2269 0.950 . S
C2280 C2278 1.391 . S
C2280 C2281 1.400 . S
C2281 C2275 1.491 . S
C2281 C2280 1.400 . S
C2281 C2282 1.398 . S
C2282 H2270 0.950 . S
C2282 C2281 1.398 . S
C2282 C2283 1.391 . S
C2283 H2271 0.950 . S
C2283 C2279 1.393 . S
C2283 C2282 1.391 . S
H2284 C2292 0.950 . S
H2285 C2297 0.950 . S
H2286 C2294 0.950 . S
H2287 C2296 0.950 . S
H2288 C2298 0.950 . S
H2289 C2300 0.950 . S
H2290 C2302 0.950 . S
H2291 C2303 0.950 . S
C2292 H2284 0.950 . S
C2292 C2293 1.386 . S
C2292 C2294 1.391 . S
C2293 C2292 1.386 . S
C2293 C2297 1.393 1_554 S
C2294 H2286 0.950 . S
C2294 C2292 1.391 . S
C2294 C2295 1.400 . S
C2295 C2294 1.400 . S
C2295 C2296 1.398 1_554 S
C2295 C2301 1.491 . S
C2296 H2287 0.950 . S
C2296 C2295 1.398 1_556 S
C2296 C2297 1.391 . S
C2297 H2285 0.950 . S
C2297 C2293 1.393 1_556 S
C2297 C2296 1.391 . S
C2298 H2288 0.950 . S
C2298 C2299 1.386 1_556 S
C2298 C2300 1.391 . S
C2299 C2298 1.386 1_554 S
C2299 C2303 1.393 . S
C2300 H2289 0.950 . S
C2300 C2298 1.391 . S
C2300 C2301 1.400 1_556 S
C2301 C2295 1.491 . S
C2301 C2300 1.400 1_554 S
C2301 C2302 1.398 . S
C2302 H2290 0.950 . S
C2302 C2301 1.398 . S
C2302 C2303 1.391 . S
C2303 H2291 0.950 . S
C2303 C2299 1.393 . S
C2303 C2302 1.391 . S
H2304 C2312 0.950 . S
H2305 C2317 0.950 . S
H2306 C2314 0.950 . S
H2307 C2316 0.950 . S
H2308 C2318 0.950 . S
H2309 C2320 0.950 . S
H2310 C2322 0.950 . S
H2311 C2323 0.950 . S
C2312 H2304 0.950 . S
C2312 C2313 1.386 . S
C2312 C2314 1.391 . S
C2313 C2312 1.386 . S
C2313 C2317 1.393 . S
C2314 H2306 0.950 . S
C2314 C2312 1.391 . S
C2314 C2315 1.400 . S
C2315 C2314 1.400 . S
C2315 C2316 1.398 . S
C2315 C2321 1.491 . S
C2316 H2307 0.950 . S
C2316 C2315 1.398 . S
C2316 C2317 1.391 . S
C2317 H2305 0.950 . S
C2317 C2313 1.393 . S
C2317 C2316 1.391 . S
C2318 H2308 0.950 . S
C2318 C2319 1.386 . S
C2318 C2320 1.391 . S
C2319 C2318 1.386 . S
C2319 C2323 1.393 . S
C2320 H2309 0.950 . S
C2320 C2318 1.391 . S
C2320 C2321 1.400 . S
C2321 C2315 1.491 . S
C2321 C2320 1.400 . S
C2321 C2322 1.398 . S
C2322 H2310 0.950 . S
C2322 C2321 1.398 . S
C2322 C2323 1.391 . S
C2323 H2311 0.950 . S
C2323 C2319 1.393 . S
C2323 C2322 1.391 . S
H2324 C2332 0.950 . S
H2325 C2337 0.950 . S
H2326 C2334 0.950 . S
H2327 C2336 0.950 1_554 S
H2328 C2338 0.950 . S
H2329 C2340 0.950 . S
H2330 C2342 0.950 . S
H2331 C2343 0.950 . S
C2332 H2324 0.950 . S
C2332 C2333 1.386 . S
C2332 C2334 1.391 . S
C2333 C2332 1.386 . S
C2333 C2337 1.393 1_556 S
C2334 H2326 0.950 . S
C2334 C2332 1.391 . S
C2334 C2335 1.400 . S
C2335 C2334 1.400 . S
C2335 C2336 1.398 . S
C2335 C2341 1.491 . S
C2336 H2327 0.950 1_556 S
C2336 C2335 1.398 . S
C2336 C2337 1.391 1_556 S
C2337 H2325 0.950 . S
C2337 C2333 1.393 1_554 S
C2337 C2336 1.391 1_554 S
C2338 H2328 0.950 . S
C2338 C2339 1.386 . S
C2338 C2340 1.391 . S
C2339 C2338 1.386 . S
C2339 C2343 1.393 . S
C2340 H2329 0.950 . S
C2340 C2338 1.391 . S
C2340 C2341 1.400 . S
C2341 C2335 1.491 . S
C2341 C2340 1.400 . S
C2341 C2342 1.398 . S
C2342 H2330 0.950 . S
C2342 C2341 1.398 . S
C2342 C2343 1.391 . S
C2343 H2331 0.950 . S
C2343 C2339 1.393 . S
C2343 C2342 1.391 . S
H2344 C2352 0.950 . S
H2345 C2357 0.950 . S
H2346 C2354 0.950 . S
H2347 C2356 0.950 . S
H2348 C2358 0.950 . S
H2349 C2360 0.950 . S
H2350 C2362 0.950 . S
H2351 C2363 0.950 . S
C2352 H2344 0.950 . S
C2352 C2353 1.386 . S
C2352 C2354 1.391 . S
C2353 C2352 1.386 . S
C2353 C2357 1.393 . S
C2354 H2346 0.950 . S
C2354 C2352 1.391 . S
C2354 C2355 1.400 . S
C2355 C2354 1.400 . S
C2355 C2356 1.398 . S
C2355 C2361 1.491 . S
C2356 H2347 0.950 . S
C2356 C2355 1.398 . S
C2356 C2357 1.391 . S
C2357 H2345 0.950 . S
C2357 C2353 1.393 . S
C2357 C2356 1.391 . S
C2358 H2348 0.950 . S
C2358 C2359 1.386 . S
C2358 C2360 1.391 . S
C2359 C2358 1.386 . S
C2359 C2363 1.393 . S
C2360 H2349 0.950 . S
C2360 C2358 1.391 . S
C2360 C2361 1.400 . S
C2361 C2355 1.491 . S
C2361 C2360 1.400 . S
C2361 C2362 1.398 . S
C2362 H2350 0.950 . S
C2362 C2361 1.398 . S
C2362 C2363 1.391 . S
C2363 H2351 0.950 . S
C2363 C2359 1.393 . S
C2363 C2362 1.391 . S
H2364 C2372 0.950 . S
H2365 C2377 0.950 . S
H2366 C2374 0.950 . S
H2367 C2376 0.950 . S
H2368 C2378 0.950 . S
H2369 C2380 0.950 . S
H2370 C2382 0.950 . S
H2371 C2383 0.950 . S
C2372 H2364 0.950 . S
C2372 C2373 1.386 1_655 S
C2372 C2374 1.391 . S
C2373 C2372 1.386 1_455 S
C2373 C2377 1.393 . S
C2374 H2366 0.950 . S
C2374 C2372 1.391 . S
C2374 C2375 1.400 1_655 S
C2375 C2374 1.400 1_455 S
C2375 C2376 1.398 . S
C2375 C2381 1.491 . S
C2376 H2367 0.950 . S
C2376 C2375 1.398 . S
C2376 C2377 1.391 . S
C2377 H2365 0.950 . S
C2377 C2373 1.393 . S
C2377 C2376 1.391 . S
C2378 H2368 0.950 . S
C2378 C2379 1.386 . S
C2378 C2380 1.391 . S
C2379 C2378 1.386 . S
C2379 C2383 1.393 1_455 S
C2380 H2369 0.950 . S
C2380 C2378 1.391 . S
C2380 C2381 1.400 . S
C2381 C2375 1.491 . S
C2381 C2380 1.400 . S
C2381 C2382 1.398 1_455 S
C2382 H2370 0.950 . S
C2382 C2381 1.398 1_655 S
C2382 C2383 1.391 . S
C2383 H2371 0.950 . S
C2383 C2379 1.393 1_655 S
C2383 C2382 1.391 . S
H2384 C2392 0.950 . S
H2385 C2397 0.950 . S
H2386 C2394 0.950 . S
H2387 C2396 0.950 . S
H2388 C2398 0.950 . S
H2389 C2400 0.950 . S
H2390 C2402 0.950 . S
H2391 C2403 0.950 . S
C2392 H2384 0.950 . S
C2392 C2393 1.386 . S
C2392 C2394 1.391 . S
C2393 C2392 1.386 . S
C2393 C2397 1.393 . S
C2394 H2386 0.950 . S
C2394 C2392 1.391 . S
C2394 C2395 1.400 . S
C2395 C2394 1.400 . S
C2395 C2396 1.398 . S
C2395 C2401 1.491 . S
C2396 H2387 0.950 . S
C2396 C2395 1.398 . S
C2396 C2397 1.391 . S
C2397 H2385 0.950 . S
C2397 C2393 1.393 . S
C2397 C2396 1.391 . S
C2398 H2388 0.950 . S
C2398 C2399 1.386 . S
C2398 C2400 1.391 . S
C2399 C2398 1.386 . S
C2399 C2403 1.393 . S
C2400 H2389 0.950 . S
C2400 C2398 1.391 . S
C2400 C2401 1.400 . S
C2401 C2395 1.491 . S
C2401 C2400 1.400 . S
C2401 C2402 1.398 . S
C2402 H2390 0.950 . S
C2402 C2401 1.398 . S
C2402 C2403 1.391 . S
C2403 H2391 0.950 . S
C2403 C2399 1.393 . S
C2403 C2402 1.391 . S
H2404 C2412 0.950 . S
H2405 C2417 0.950 . S
H2406 C2414 0.950 . S
H2407 C2416 0.950 . S
H2408 C2418 0.950 . S
H2409 C2420 0.950 . S
H2410 C2422 0.955 . S
H2411 C2423 0.950 1_455 S
C2412 H2404 0.950 . S
C2412 C2413 1.386 1_455 S
C2412 C2414 1.391 . S
C2413 C2412 1.386 1_655 S
C2413 C2417 1.393 . S
C2414 H2406 0.950 . S
C2414 C2412 1.391 . S
C2414 C2415 1.400 1_455 S
C2415 C2414 1.400 1_655 S
C2415 C2416 1.398 . S
C2415 C2421 1.491 . S
C2416 H2407 0.950 . S
C2416 C2415 1.398 . S
C2416 C2417 1.391 . S
C2417 H2405 0.950 . S
C2417 C2413 1.393 . S
C2417 C2416 1.391 . S
C2418 H2408 0.950 . S
C2418 C2419 1.386 . S
C2418 C2420 1.391 . S
C2419 C2418 1.386 . S
C2419 C2423 1.393 . S
C2420 H2409 0.950 . S
C2420 C2418 1.391 . S
C2420 C2421 1.400 . S
C2421 C2415 1.491 . S
C2421 C2420 1.400 . S
C2421 C2422 1.395 1_655 S
C2422 H2410 0.955 . S
C2422 C2421 1.395 1_455 S
C2422 C2423 1.389 1_455 S
C2423 H2411 0.950 1_655 S
C2423 C2419 1.393 . S
C2423 C2422 1.389 1_655 S
H2424 C2432 0.950 . S
H2425 C2437 0.950 . S
H2426 C2434 0.950 . S
H2427 C2436 0.950 . S
H2428 C2438 0.950 . S
H2429 C2440 0.950 . S
H2430 C2442 0.950 . S
H2431 C2443 0.950 . S
C2432 H2424 0.950 . S
C2432 C2433 1.386 . S
C2432 C2434 1.391 . S
C2433 C2432 1.386 . S
C2433 C2437 1.393 . S
C2434 H2426 0.950 . S
C2434 C2432 1.391 . S
C2434 C2435 1.400 . S
C2435 C2434 1.400 . S
C2435 C2436 1.398 . S
C2435 C2441 1.491 . S
C2436 H2427 0.950 . S
C2436 C2435 1.398 . S
C2436 C2437 1.391 . S
C2437 H2425 0.950 . S
C2437 C2433 1.393 . S
C2437 C2436 1.391 . S
C2438 H2428 0.950 . S
C2438 C2439 1.386 . S
C2438 C2440 1.391 . S
C2439 C2438 1.386 . S
C2439 C2443 1.393 . S
C2440 H2429 0.950 . S
C2440 C2438 1.391 . S
C2440 C2441 1.400 . S
C2441 C2435 1.491 . S
C2441 C2440 1.400 . S
C2441 C2442 1.398 . S
C2442 H2430 0.950 . S
C2442 C2441 1.398 . S
C2442 C2443 1.391 . S
C2443 H2431 0.950 . S
C2443 C2439 1.393 . S
C2443 C2442 1.391 . S
H2444 C2452 0.950 . S
H2445 C2457 0.950 . S
H2446 C2454 0.950 . S
H2447 C2456 0.950 . S
H2448 C2458 0.950 . S
H2449 C2460 0.950 . S
H2450 C2462 0.950 . S
H2451 C2463 0.950 . S
C2452 H2444 0.950 . S
C2452 C2453 1.386 . S
C2452 C2454 1.391 . S
C2453 C2452 1.386 . S
C2453 C2457 1.393 . S
C2454 H2446 0.950 . S
C2454 C2452 1.391 . S
C2454 C2455 1.400 . S
C2455 C2454 1.400 . S
C2455 C2456 1.398 . S
C2455 C2461 1.491 . S
C2456 H2447 0.950 . S
C2456 C2455 1.398 . S
C2456 C2457 1.391 . S
C2457 H2445 0.950 . S
C2457 C2453 1.393 . S
C2457 C2456 1.391 . S
C2458 H2448 0.950 . S
C2458 C2459 1.386 . S
C2458 C2460 1.391 . S
C2459 C2458 1.386 . S
C2459 C2463 1.393 . S
C2460 H2449 0.950 . S
C2460 C2458 1.391 . S
C2460 C2461 1.400 . S
C2461 C2455 1.491 . S
C2461 C2460 1.400 . S
C2461 C2462 1.398 . S
C2462 H2450 0.950 . S
C2462 C2461 1.398 . S
C2462 C2463 1.391 . S
C2463 H2451 0.950 . S
C2463 C2459 1.393 . S
C2463 C2462 1.391 . S
H2464 C2472 0.950 . S
H2465 C2477 0.951 . S
H2466 C2474 0.950 . S
H2467 C2476 0.950 . S
H2468 C2478 0.950 . S
H2469 C2480 0.950 . S
H2470 C2482 0.950 . S
H2471 C2483 0.950 . S
C2472 H2464 0.950 . S
C2472 C2473 1.386 . S
C2472 C2474 1.391 . S
C2473 C2472 1.386 . S
C2473 C2477 1.393 . S
C2474 H2466 0.950 . S
C2474 C2472 1.391 . S
C2474 C2475 1.400 . S
C2475 C2474 1.400 . S
C2475 C2476 1.398 . S
C2475 C2481 1.491 . S
C2476 H2467 0.950 . S
C2476 C2475 1.398 . S
C2476 C2477 1.391 . S
C2477 H2465 0.951 . S
C2477 C2473 1.393 . S
C2477 C2476 1.391 . S
C2478 H2468 0.950 . S
C2478 C2479 1.386 . S
C2478 C2480 1.391 . S
C2479 C2478 1.386 . S
C2479 C2483 1.393 . S
C2480 H2469 0.950 . S
C2480 C2478 1.391 . S
C2480 C2481 1.400 . S
C2481 C2475 1.491 . S
C2481 C2480 1.400 . S
C2481 C2482 1.398 . S
C2482 H2470 0.950 . S
C2482 C2481 1.398 . S
C2482 C2483 1.391 . S
C2483 H2471 0.950 . S
C2483 C2479 1.393 . S
C2483 C2482 1.391 . S
H2484 C2492 0.950 . S
H2485 C2497 0.950 . S
H2486 C2494 0.950 . S
H2487 C2496 0.950 . S
H2488 C2498 0.950 . S
H2489 C2500 0.950 . S
H2490 C2502 0.950 1_545 S
H2491 C2503 0.950 1_545 S
C2492 H2484 0.950 . S
C2492 C2493 1.386 1_545 S
C2492 C2494 1.391 . S
C2493 C2492 1.386 1_565 S
C2493 C2497 1.393 . S
C2494 H2486 0.950 . S
C2494 C2492 1.391 . S
C2494 C2495 1.400 1_545 S
C2495 C2494 1.400 1_565 S
C2495 C2496 1.398 . S
C2495 C2501 1.491 . S
C2496 H2487 0.950 . S
C2496 C2495 1.398 . S
C2496 C2497 1.391 . S
C2497 H2485 0.950 . S
C2497 C2493 1.393 . S
C2497 C2496 1.391 . S
C2498 H2488 0.950 . S
C2498 C2499 1.386 . S
C2498 C2500 1.391 . S
C2499 C2498 1.386 . S
C2499 C2503 1.393 . S
C2500 H2489 0.950 . S
C2500 C2498 1.391 . S
C2500 C2501 1.400 . S
C2501 C2495 1.491 . S
C2501 C2500 1.400 . S
C2501 C2502 1.398 . S
C2502 H2490 0.950 1_565 S
C2502 C2501 1.398 . S
C2502 C2503 1.391 . S
C2503 H2491 0.950 1_565 S
C2503 C2499 1.393 . S
C2503 C2502 1.391 . S
H2504 C2512 0.950 . S
H2505 C2517 0.950 . S
H2506 C2514 0.950 . S
H2507 C2516 0.950 . S
H2508 C2518 0.950 . S
H2509 C2520 0.950 . S
H2510 C2522 0.950 . S
H2511 C2523 0.950 . S
C2512 H2504 0.950 . S
C2512 C2513 1.386 . S
C2512 C2514 1.391 . S
C2513 C2512 1.386 . S
C2513 C2517 1.393 . S
C2514 H2506 0.950 . S
C2514 C2512 1.391 . S
C2514 C2515 1.400 . S
C2515 C2514 1.400 . S
C2515 C2516 1.398 . S
C2515 C2521 1.491 . S
C2516 H2507 0.950 . S
C2516 C2515 1.398 . S
C2516 C2517 1.391 . S
C2517 H2505 0.950 . S
C2517 C2513 1.393 . S
C2517 C2516 1.391 . S
C2518 H2508 0.950 . S
C2518 C2519 1.386 . S
C2518 C2520 1.391 . S
C2519 C2518 1.386 . S
C2519 C2523 1.393 . S
C2520 H2509 0.950 . S
C2520 C2518 1.391 . S
C2520 C2521 1.400 . S
C2521 C2515 1.491 . S
C2521 C2520 1.400 . S
C2521 C2522 1.398 . S
C2522 H2510 0.950 . S
C2522 C2521 1.398 . S
C2522 C2523 1.391 . S
C2523 H2511 0.950 . S
C2523 C2519 1.393 . S
C2523 C2522 1.391 . S
H2524 C2532 0.950 . S
H2525 C2537 0.950 . S
H2526 C2534 0.950 . S
H2527 C2536 0.950 . S
H2528 C2538 0.950 1_554 S
H2529 C2540 0.946 1_554 S
H2530 C2542 0.950 . S
H2531 C2543 0.950 . S
C2532 H2524 0.950 . S
C2532 C2533 1.386 . S
C2532 C2534 1.391 . S
C2533 C2532 1.386 . S
C2533 C2537 1.393 1_556 S
C2534 H2526 0.950 . S
C2534 C2532 1.391 . S
C2534 C2535 1.400 . S
C2535 C2534 1.400 . S
C2535 C2536 1.398 1_556 S
C2535 C2541 1.491 . S
C2536 H2527 0.950 . S
C2536 C2535 1.398 1_554 S
C2536 C2537 1.391 . S
C2537 H2525 0.950 . S
C2537 C2533 1.393 1_554 S
C2537 C2536 1.391 . S
C2538 H2528 0.950 1_556 S
C2538 C2539 1.386 . S
C2538 C2540 1.393 . S
C2539 C2538 1.386 . S
C2539 C2543 1.393 . S
C2540 H2529 0.946 1_556 S
C2540 C2538 1.393 . S
C2540 C2541 1.403 . S
C2541 C2535 1.491 . S
C2541 C2540 1.403 . S
C2541 C2542 1.398 . S
C2542 H2530 0.950 . S
C2542 C2541 1.398 . S
C2542 C2543 1.391 . S
C2543 H2531 0.950 . S
C2543 C2539 1.393 . S
C2543 C2542 1.391 . S
H2544 C2552 0.950 . S
H2545 C2557 0.950 . S
H2546 C2554 0.950 . S
H2547 C2556 0.950 . S
H2548 C2558 0.950 . S
H2549 C2560 0.950 . S
H2550 C2562 0.950 . S
H2551 C2563 0.950 . S
C2552 H2544 0.950 . S
C2552 C2553 1.386 . S
C2552 C2554 1.391 . S
C2553 C2552 1.386 . S
C2553 C2557 1.393 . S
C2554 H2546 0.950 . S
C2554 C2552 1.391 . S
C2554 C2555 1.400 . S
C2555 C2554 1.400 . S
C2555 C2556 1.398 . S
C2555 C2561 1.491 . S
C2556 H2547 0.950 . S
C2556 C2555 1.398 . S
C2556 C2557 1.391 . S
C2557 H2545 0.950 . S
C2557 C2553 1.393 . S
C2557 C2556 1.391 . S
C2558 H2548 0.950 . S
C2558 C2559 1.386 . S
C2558 C2560 1.391 . S
C2559 C2558 1.386 . S
C2559 C2563 1.393 . S
C2560 H2549 0.950 . S
C2560 C2558 1.391 . S
C2560 C2561 1.400 . S
C2561 C2555 1.491 . S
C2561 C2560 1.400 . S
C2561 C2562 1.398 . S
C2562 H2550 0.950 . S
C2562 C2561 1.398 . S
C2562 C2563 1.391 . S
C2563 H2551 0.950 . S
C2563 C2559 1.393 . S
C2563 C2562 1.391 . S
H2564 C2572 0.950 . S
H2565 C2577 0.950 1_556 S
H2566 C2574 0.950 . S
H2567 C2576 0.950 . S
H2568 C2578 0.950 . S
H2569 C2580 0.950 . S
H2570 C2582 0.950 . S
H2571 C2583 0.950 . S
C2572 H2564 0.950 . S
C2572 C2573 1.386 . S
C2572 C2574 1.391 . S
C2573 C2572 1.386 . S
C2573 C2577 1.393 . S
C2574 H2566 0.950 . S
C2574 C2572 1.391 . S
C2574 C2575 1.400 . S
C2575 C2574 1.400 . S
C2575 C2576 1.398 . S
C2575 C2581 1.491 . S
C2576 H2567 0.950 . S
C2576 C2575 1.398 . S
C2576 C2577 1.391 . S
C2577 H2565 0.950 1_554 S
C2577 C2573 1.393 . S
C2577 C2576 1.391 . S
C2578 H2568 0.950 . S
C2578 C2579 1.386 . S
C2578 C2580 1.391 . S
C2579 C2578 1.386 . S
C2579 C2583 1.393 . S
C2580 H2569 0.950 . S
C2580 C2578 1.391 . S
C2580 C2581 1.400 . S
C2581 C2575 1.491 . S
C2581 C2580 1.400 . S
C2581 C2582 1.398 . S
C2582 H2570 0.950 . S
C2582 C2581 1.398 . S
C2582 C2583 1.391 . S
C2583 H2571 0.950 . S
C2583 C2579 1.393 . S
C2583 C2582 1.391 . S
H2584 C2592 0.950 . S
H2585 C2597 0.950 . S
H2586 C2594 0.950 . S
H2587 C2596 0.950 . S
H2588 C2598 0.950 . S
H2589 C2600 0.950 . S
H2590 C2602 0.950 . S
H2591 C2603 0.950 . S
C2592 H2584 0.950 . S
C2592 C2593 1.386 . S
C2592 C2594 1.391 . S
C2593 C2592 1.386 . S
C2593 C2597 1.393 . S
C2594 H2586 0.950 . S
C2594 C2592 1.391 . S
C2594 C2595 1.400 . S
C2595 C2594 1.400 . S
C2595 C2596 1.398 . S
C2595 C2601 1.491 . S
C2596 H2587 0.950 . S
C2596 C2595 1.398 . S
C2596 C2597 1.391 . S
C2597 H2585 0.950 . S
C2597 C2593 1.393 . S
C2597 C2596 1.391 . S
C2598 H2588 0.950 . S
C2598 C2599 1.386 . S
C2598 C2600 1.391 . S
C2599 C2598 1.386 . S
C2599 C2603 1.393 . S
C2600 H2589 0.950 . S
C2600 C2598 1.391 . S
C2600 C2601 1.400 . S
C2601 C2595 1.491 . S
C2601 C2600 1.400 . S
C2601 C2602 1.398 . S
C2602 H2590 0.950 . S
C2602 C2601 1.398 . S
C2602 C2603 1.391 . S
C2603 H2591 0.950 . S
C2603 C2599 1.393 . S
C2603 C2602 1.391 . S
H2604 C2612 0.950 . S
H2605 C2617 0.950 . S
H2606 C2614 0.950 . S
H2607 C2616 0.950 . S
H2608 C2618 0.950 . S
H2609 C2620 0.950 . S
H2610 C2622 0.950 . S
H2611 C2623 0.950 . S
C2612 H2604 0.950 . S
C2612 C2613 1.386 . S
C2612 C2614 1.391 . S
C2613 C2612 1.386 . S
C2613 C2617 1.393 1_655 S
C2614 H2606 0.950 . S
C2614 C2612 1.391 . S
C2614 C2615 1.400 . S
C2615 C2614 1.400 . S
C2615 C2616 1.398 1_655 S
C2615 C2621 1.491 . S
C2616 H2607 0.950 . S
C2616 C2615 1.398 1_455 S
C2616 C2617 1.391 . S
C2617 H2605 0.950 . S
C2617 C2613 1.393 1_455 S
C2617 C2616 1.391 . S
C2618 H2608 0.950 . S
C2618 C2619 1.386 1_455 S
C2618 C2620 1.391 . S
C2619 C2618 1.386 1_655 S
C2619 C2623 1.393 . S
C2620 H2609 0.950 . S
C2620 C2618 1.391 . S
C2620 C2621 1.400 1_455 S
C2621 C2615 1.491 . S
C2621 C2620 1.400 1_655 S
C2621 C2622 1.398 . S
C2622 H2610 0.950 . S
C2622 C2621 1.398 . S
C2622 C2623 1.391 . S
C2623 H2611 0.950 . S
C2623 C2619 1.393 . S
C2623 C2622 1.391 . S
H2624 C2632 0.950 . S
H2625 C2637 0.950 . S
H2626 C2634 0.950 . S
H2627 C2636 0.950 . S
H2628 C2638 0.950 . S
H2629 C2640 0.950 . S
H2630 C2642 0.950 . S
H2631 C2643 0.950 . S
C2632 H2624 0.950 . S
C2632 C2633 1.386 . S
C2632 C2634 1.391 . S
C2633 C2632 1.386 . S
C2633 C2637 1.393 . S
C2634 H2626 0.950 . S
C2634 C2632 1.391 . S
C2634 C2635 1.400 . S
C2635 C2634 1.400 . S
C2635 C2636 1.398 . S
C2635 C2641 1.491 . S
C2636 H2627 0.950 . S
C2636 C2635 1.398 . S
C2636 C2637 1.391 . S
C2637 H2625 0.950 . S
C2637 C2633 1.393 . S
C2637 C2636 1.391 . S
C2638 H2628 0.950 . S
C2638 C2639 1.386 . S
C2638 C2640 1.391 . S
C2639 C2638 1.386 . S
C2639 C2643 1.393 . S
C2640 H2629 0.950 . S
C2640 C2638 1.391 . S
C2640 C2641 1.400 . S
C2641 C2635 1.491 . S
C2641 C2640 1.400 . S
C2641 C2642 1.398 . S
C2642 H2630 0.950 . S
C2642 C2641 1.398 . S
C2642 C2643 1.391 . S
C2643 H2631 0.950 . S
C2643 C2639 1.393 . S
C2643 C2642 1.391 . S
H2644 C2652 0.950 . S
H2645 C2657 0.950 . S
H2646 C2654 0.950 1_655 S
H2647 C2656 0.950 . S
H2648 C2658 0.950 . S
H2649 C2660 0.950 . S
H2650 C2662 0.950 . S
H2651 C2663 0.950 . S
C2652 H2644 0.950 . S
C2652 C2653 1.386 1_655 S
C2652 C2654 1.391 1_655 S
C2653 C2652 1.386 1_455 S
C2653 C2657 1.393 . S
C2654 H2646 0.950 1_455 S
C2654 C2652 1.391 1_455 S
C2654 C2655 1.400 . S
C2655 C2654 1.400 . S
C2655 C2656 1.398 . S
C2655 C2661 1.491 . S
C2656 H2647 0.950 . S
C2656 C2655 1.398 . S
C2656 C2657 1.391 . S
C2657 H2645 0.950 . S
C2657 C2653 1.393 . S
C2657 C2656 1.391 . S
C2658 H2648 0.950 . S
C2658 C2659 1.386 . S
C2658 C2660 1.391 . S
C2659 C2658 1.386 . S
C2659 C2663 1.393 . S
C2660 H2649 0.950 . S
C2660 C2658 1.391 . S
C2660 C2661 1.400 . S
C2661 C2655 1.491 . S
C2661 C2660 1.400 . S
C2661 C2662 1.398 . S
C2662 H2650 0.950 . S
C2662 C2661 1.398 . S
C2662 C2663 1.391 . S
C2663 H2651 0.950 . S
C2663 C2659 1.393 . S
C2663 C2662 1.391 . S
C1239 C1218 1.636 . S
C1233 C15 1.925 . S
C1259 C1185 1.341 . S
C1253 C55 1.476 . S
C1279 C1207 0.868 . S
C1273 C95 1.010 . S
C1299 C1196 1.425 . S
C1293 C135 1.560 . S
C1319 C1119 1.619 . S
C1313 C175 1.927 . S
C1333 C215 1.558 . S
C1339 C1130 1.406 . S
C1359 C1097 1.348 . S
C1353 C255 1.477 . S
C1373 C295 1.010 . S
C1379 C1108 0.868 . S
C1399 C1174 1.649 . S
C1393 C335 1.922 . S
C1413 C375 1.547 . S
C1419 C1152 1.441 . S
C1433 C415 1.475 . S
C1439 C1141 1.340 . S
C1459 C1163 0.814 . S
C1453 C455 0.995 . S
C1479 C1086 1.530 . S
C1473 C495 1.922 . S
C1493 C535 1.445 . S
C1499 C1053 1.229 . S
C1519 C1075 0.828 . S
C1513 C575 0.995 1_545 S
C1533 C615 1.566 . S
C1539 C1064 1.220 . S
C1559 C987 1.562 . S
C1553 C655 1.927 . S
C1579 C998 1.164 . S
C1573 C695 1.554 . S
C1593 C735 1.444 . S
C1599 C965 1.270 . S
C1613 C775 0.997 1_554 S
C1619 C976 0.824 . S
C1633 C815 1.920 . S
C1639 C1042 1.555 . S
C1653 C855 1.549 . S
C1659 C1020 1.170 . S
C1679 C1009 1.256 . S
C1673 C895 1.470 . S
C1693 C935 0.996 1_455 S
C1699 C1031 0.834 . S
C1719 C967 1.607 . S
C1713 C21 1.628 . S
C1739 C978 1.563 . S
C1733 C61 1.557 . S
C1753 C101 0.746 . S
C1759 C989 0.731 1_565 S
C1773 C141 0.851 . S
C1779 C1000 0.848 . S
C1799 C1011 1.609 . S
C1793 C181 1.627 . S
C1813 C221 0.867 . S
C1819 C1022 0.853 . S
C1839 C1033 1.562 . S
C1833 C261 1.562 . S
C1859 C1044 0.718 1_556 S
C1853 C301 0.745 . S
C1879 C1055 1.597 . S
C1873 C341 1.633 . S
C1893 C381 0.865 . S
C1899 C1066 0.854 . S
C1913 C421 1.554 . S
C1919 C1077 1.544 . S
C1933 C461 0.744 . S
C1939 C1088 0.715 1_655 S
C1953 C501 1.596 . S
C1959 C1099 1.616 . S
C1973 C541 1.421 . S
C1979 C1110 1.577 . S
C1993 C581 0.745 . S
C1999 C1121 0.765 1_545 S
C2013 C621 0.857 . S
C2019 C1132 0.833 . S
C2033 C661 1.605 . S
C2039 C1143 1.608 . S
C2059 C1154 0.843 . S
C2053 C701 0.852 . S
C2079 C1165 1.583 . S
C2073 C741 1.405 . S
C2099 C1176 0.769 1_554 S
C2093 C781 0.746 . S
C2119 C1187 1.608 . S
C2113 C821 1.605 . S
C2133 C861 0.860 . S
C2139 C1198 0.823 . S
C2153 C901 1.442 . S
C2159 C1209 1.585 . S
C2173 C941 0.750 . S
C2179 C1220 0.758 1_455 S
C2193 C2 1.637 . S
C2199 C1056 1.624 . S
C2219 C1089 1.580 . S
C2213 C42 1.610 . S
C2233 C82 1.515 . S
C2239 C1067 1.456 . S
C2259 C1078 1.645 . S
C2253 C122 1.599 . S
C2273 C162 1.637 . S
C2279 C968 1.625 . S
C2293 C202 1.598 . S
C2299 C979 1.650 . S
C2313 C242 1.612 . S
C2319 C990 1.565 . S
C2333 C282 1.516 . S
C2339 C1001 1.459 . S
C2359 C1012 1.635 . S
C2353 C322 1.636 . S
C2379 C1034 1.650 . S
C2373 C362 1.612 . S
C2393 C402 1.610 . S
C2399 C1045 1.572 . S
C2413 C442 1.505 . S
C2419 C1023 1.439 . S
C2439 C1188 1.621 . S
C2433 C482 1.622 . S
C2459 C1221 1.588 . S
C2453 C522 1.534 . S
C2473 C562 1.540 1_545 S
C2479 C1199 1.475 . S
C2499 C1210 1.592 . S
C2493 C602 1.601 1_565 S
C2513 C642 1.620 . S
C2519 C1100 1.626 . S
C2533 C682 1.608 1_556 S
C2539 C1111 1.600 . S
C2553 C722 1.531 . S
C2559 C1122 1.589 . S
C2579 C1133 1.451 . S
C2573 C762 1.540 1_554 S
C2599 C1144 1.614 . S
C2593 C802 1.629 . S
C2619 C1166 1.592 . S
C2613 C842 1.617 1_655 S
C2633 C882 1.535 . S
C2639 C1177 1.586 . S
C2659 C1155 1.447 . S
C2653 C922 1.542 1_455 S
