# Generated by pormake.
# Topology gar, (4,6)-cn, num edge types: 1
# Building blocks:
#     Node 0, Type 0, BuildingBlock: UXUYUI_clean_sbu_0, # of connection points: 4
#     Node 1, Type 0, BuildingBlock: UXUYUI_clean_sbu_0, # of connection points: 4
#     Node 2, Type 0, BuildingBlock: UXUYUI_clean_sbu_0, # of connection points: 4
#     Node 3, Type 0, BuildingBlock: UXUYUI_clean_sbu_0, # of connection points: 4
#     Node 4, Type 0, BuildingBlock: UXUYUI_clean_sbu_0, # of connection points: 4
#     Node 5, Type 0, BuildingBlock: UXUYUI_clean_sbu_0, # of connection points: 4
#     Node 6, Type 0, BuildingBlock: UXUYUI_clean_sbu_0, # of connection points: 4
#     Node 7, Type 0, BuildingBlock: UXUYUI_clean_sbu_0, # of connection points: 4
#     Node 8, Type 0, BuildingBlock: UXUYUI_clean_sbu_0, # of connection points: 4
#     Node 9, Type 0, BuildingBlock: UXUYUI_clean_sbu_0, # of connection points: 4
#     Node 10, Type 0, BuildingBlock: UXUYUI_clean_sbu_0, # of connection points: 4
#     Node 11, Type 0, BuildingBlock: UXUYUI_clean_sbu_0, # of connection points: 4
#     Node 12, Type 0, BuildingBlock: UXUYUI_clean_sbu_0, # of connection points: 4
#     Node 13, Type 0, BuildingBlock: UXUYUI_clean_sbu_0, # of connection points: 4
#     Node 14, Type 0, BuildingBlock: UXUYUI_clean_sbu_0, # of connection points: 4
#     Node 15, Type 0, BuildingBlock: UXUYUI_clean_sbu_0, # of connection points: 4
#     Node 16, Type 0, BuildingBlock: UXUYUI_clean_sbu_0, # of connection points: 4
#     Node 17, Type 0, BuildingBlock: UXUYUI_clean_sbu_0, # of connection points: 4
#     Node 18, Type 0, BuildingBlock: UXUYUI_clean_sbu_0, # of connection points: 4
#     Node 19, Type 0, BuildingBlock: UXUYUI_clean_sbu_0, # of connection points: 4
#     Node 20, Type 0, BuildingBlock: UXUYUI_clean_sbu_0, # of connection points: 4
#     Node 21, Type 0, BuildingBlock: UXUYUI_clean_sbu_0, # of connection points: 4
#     Node 22, Type 0, BuildingBlock: UXUYUI_clean_sbu_0, # of connection points: 4
#     Node 23, Type 0, BuildingBlock: UXUYUI_clean_sbu_0, # of connection points: 4
#     Node 24, Type 1, BuildingBlock: BETGAK_clean_sbu_0, # of connection points: 6
#     Node 25, Type 1, BuildingBlock: BETGAK_clean_sbu_0, # of connection points: 6
#     Node 26, Type 1, BuildingBlock: BETGAK_clean_sbu_0, # of connection points: 6
#     Node 27, Type 1, BuildingBlock: BETGAK_clean_sbu_0, # of connection points: 6
#     Node 28, Type 1, BuildingBlock: BETGAK_clean_sbu_0, # of connection points: 6
#     Node 29, Type 1, BuildingBlock: BETGAK_clean_sbu_0, # of connection points: 6
#     Node 30, Type 1, BuildingBlock: BETGAK_clean_sbu_0, # of connection points: 6
#     Node 31, Type 1, BuildingBlock: BETGAK_clean_sbu_0, # of connection points: 6
#     Node 32, Type 1, BuildingBlock: BETGAK_clean_sbu_0, # of connection points: 6
#     Node 33, Type 1, BuildingBlock: BETGAK_clean_sbu_0, # of connection points: 6
#     Node 34, Type 1, BuildingBlock: BETGAK_clean_sbu_0, # of connection points: 6
#     Node 35, Type 1, BuildingBlock: BETGAK_clean_sbu_0, # of connection points: 6
#     Node 36, Type 1, BuildingBlock: BETGAK_clean_sbu_0, # of connection points: 6
#     Node 37, Type 1, BuildingBlock: BETGAK_clean_sbu_0, # of connection points: 6
#     Node 38, Type 1, BuildingBlock: BETGAK_clean_sbu_0, # of connection points: 6
#     Node 39, Type 1, BuildingBlock: BETGAK_clean_sbu_0, # of connection points: 6
#     Edge 40, Type (0, 1), BuildingBlock: TEMPAE_clean_linker_10, # of connection points: 2
#     Edge 41, Type (0, 1), BuildingBlock: TEMPAE_clean_linker_10, # of connection points: 2
#     Edge 42, Type (0, 1), BuildingBlock: TEMPAE_clean_linker_10, # of connection points: 2
#     Edge 43, Type (0, 1), BuildingBlock: TEMPAE_clean_linker_10, # of connection points: 2
#     Edge 44, Type (0, 1), BuildingBlock: TEMPAE_clean_linker_10, # of connection points: 2
#     Edge 45, Type (0, 1), BuildingBlock: TEMPAE_clean_linker_10, # of connection points: 2
#     Edge 46, Type (0, 1), BuildingBlock: TEMPAE_clean_linker_10, # of connection points: 2
#     Edge 47, Type (0, 1), BuildingBlock: TEMPAE_clean_linker_10, # of connection points: 2
#     Edge 48, Type (0, 1), BuildingBlock: TEMPAE_clean_linker_10, # of connection points: 2
#     Edge 49, Type (0, 1), BuildingBlock: TEMPAE_clean_linker_10, # of connection points: 2
#     Edge 50, Type (0, 1), BuildingBlock: TEMPAE_clean_linker_10, # of connection points: 2
#     Edge 51, Type (0, 1), BuildingBlock: TEMPAE_clean_linker_10, # of connection points: 2
#     Edge 52, Type (0, 1), BuildingBlock: TEMPAE_clean_linker_10, # of connection points: 2
#     Edge 53, Type (0, 1), BuildingBlock: TEMPAE_clean_linker_10, # of connection points: 2
#     Edge 54, Type (0, 1), BuildingBlock: TEMPAE_clean_linker_10, # of connection points: 2
#     Edge 55, Type (0, 1), BuildingBlock: TEMPAE_clean_linker_10, # of connection points: 2
#     Edge 56, Type (0, 1), BuildingBlock: TEMPAE_clean_linker_10, # of connection points: 2
#     Edge 57, Type (0, 1), BuildingBlock: TEMPAE_clean_linker_10, # of connection points: 2
#     Edge 58, Type (0, 1), BuildingBlock: TEMPAE_clean_linker_10, # of connection points: 2
#     Edge 59, Type (0, 1), BuildingBlock: TEMPAE_clean_linker_10, # of connection points: 2
#     Edge 60, Type (0, 1), BuildingBlock: TEMPAE_clean_linker_10, # of connection points: 2
#     Edge 61, Type (0, 1), BuildingBlock: TEMPAE_clean_linker_10, # of connection points: 2
#     Edge 62, Type (0, 1), BuildingBlock: TEMPAE_clean_linker_10, # of connection points: 2
#     Edge 63, Type (0, 1), BuildingBlock: TEMPAE_clean_linker_10, # of connection points: 2
#     Edge 64, Type (0, 1), BuildingBlock: TEMPAE_clean_linker_10, # of connection points: 2
#     Edge 65, Type (0, 1), BuildingBlock: TEMPAE_clean_linker_10, # of connection points: 2
#     Edge 66, Type (0, 1), BuildingBlock: TEMPAE_clean_linker_10, # of connection points: 2
#     Edge 67, Type (0, 1), BuildingBlock: TEMPAE_clean_linker_10, # of connection points: 2
#     Edge 68, Type (0, 1), BuildingBlock: TEMPAE_clean_linker_10, # of connection points: 2
#     Edge 69, Type (0, 1), BuildingBlock: TEMPAE_clean_linker_10, # of connection points: 2
#     Edge 70, Type (0, 1), BuildingBlock: TEMPAE_clean_linker_10, # of connection points: 2
#     Edge 71, Type (0, 1), BuildingBlock: TEMPAE_clean_linker_10, # of connection points: 2
#     Edge 72, Type (0, 1), BuildingBlock: TEMPAE_clean_linker_10, # of connection points: 2
#     Edge 73, Type (0, 1), BuildingBlock: TEMPAE_clean_linker_10, # of connection points: 2
#     Edge 74, Type (0, 1), BuildingBlock: TEMPAE_clean_linker_10, # of connection points: 2
#     Edge 75, Type (0, 1), BuildingBlock: TEMPAE_clean_linker_10, # of connection points: 2
#     Edge 76, Type (0, 1), BuildingBlock: TEMPAE_clean_linker_10, # of connection points: 2
#     Edge 77, Type (0, 1), BuildingBlock: TEMPAE_clean_linker_10, # of connection points: 2
#     Edge 78, Type (0, 1), BuildingBlock: TEMPAE_clean_linker_10, # of connection points: 2
#     Edge 79, Type (0, 1), BuildingBlock: TEMPAE_clean_linker_10, # of connection points: 2
#     Edge 80, Type (0, 1), BuildingBlock: TEMPAE_clean_linker_10, # of connection points: 2
#     Edge 81, Type (0, 1), BuildingBlock: TEMPAE_clean_linker_10, # of connection points: 2
#     Edge 82, Type (0, 1), BuildingBlock: TEMPAE_clean_linker_10, # of connection points: 2
#     Edge 83, Type (0, 1), BuildingBlock: TEMPAE_clean_linker_10, # of connection points: 2
#     Edge 84, Type (0, 1), BuildingBlock: TEMPAE_clean_linker_10, # of connection points: 2
#     Edge 85, Type (0, 1), BuildingBlock: TEMPAE_clean_linker_10, # of connection points: 2
#     Edge 86, Type (0, 1), BuildingBlock: TEMPAE_clean_linker_10, # of connection points: 2
#     Edge 87, Type (0, 1), BuildingBlock: TEMPAE_clean_linker_10, # of connection points: 2
#     Edge 88, Type (0, 1), BuildingBlock: TEMPAE_clean_linker_10, # of connection points: 2
#     Edge 89, Type (0, 1), BuildingBlock: TEMPAE_clean_linker_10, # of connection points: 2
#     Edge 90, Type (0, 1), BuildingBlock: TEMPAE_clean_linker_10, # of connection points: 2
#     Edge 91, Type (0, 1), BuildingBlock: TEMPAE_clean_linker_10, # of connection points: 2
#     Edge 92, Type (0, 1), BuildingBlock: TEMPAE_clean_linker_10, # of connection points: 2
#     Edge 93, Type (0, 1), BuildingBlock: TEMPAE_clean_linker_10, # of connection points: 2
#     Edge 94, Type (0, 1), BuildingBlock: TEMPAE_clean_linker_10, # of connection points: 2
#     Edge 95, Type (0, 1), BuildingBlock: TEMPAE_clean_linker_10, # of connection points: 2
#     Edge 96, Type (0, 1), BuildingBlock: TEMPAE_clean_linker_10, # of connection points: 2
#     Edge 97, Type (0, 1), BuildingBlock: TEMPAE_clean_linker_10, # of connection points: 2
#     Edge 98, Type (0, 1), BuildingBlock: TEMPAE_clean_linker_10, # of connection points: 2
#     Edge 99, Type (0, 1), BuildingBlock: TEMPAE_clean_linker_10, # of connection points: 2
#     Edge 100, Type (0, 1), BuildingBlock: TEMPAE_clean_linker_10, # of connection points: 2
#     Edge 101, Type (0, 1), BuildingBlock: TEMPAE_clean_linker_10, # of connection points: 2
#     Edge 102, Type (0, 1), BuildingBlock: TEMPAE_clean_linker_10, # of connection points: 2
#     Edge 103, Type (0, 1), BuildingBlock: TEMPAE_clean_linker_10, # of connection points: 2
#     Edge 104, Type (0, 1), BuildingBlock: TEMPAE_clean_linker_10, # of connection points: 2
#     Edge 105, Type (0, 1), BuildingBlock: TEMPAE_clean_linker_10, # of connection points: 2
#     Edge 106, Type (0, 1), BuildingBlock: TEMPAE_clean_linker_10, # of connection points: 2
#     Edge 107, Type (0, 1), BuildingBlock: TEMPAE_clean_linker_10, # of connection points: 2
#     Edge 108, Type (0, 1), BuildingBlock: TEMPAE_clean_linker_10, # of connection points: 2
#     Edge 109, Type (0, 1), BuildingBlock: TEMPAE_clean_linker_10, # of connection points: 2
#     Edge 110, Type (0, 1), BuildingBlock: TEMPAE_clean_linker_10, # of connection points: 2
#     Edge 111, Type (0, 1), BuildingBlock: TEMPAE_clean_linker_10, # of connection points: 2
#     Edge 112, Type (0, 1), BuildingBlock: TEMPAE_clean_linker_10, # of connection points: 2
#     Edge 113, Type (0, 1), BuildingBlock: TEMPAE_clean_linker_10, # of connection points: 2
#     Edge 114, Type (0, 1), BuildingBlock: TEMPAE_clean_linker_10, # of connection points: 2
#     Edge 115, Type (0, 1), BuildingBlock: TEMPAE_clean_linker_10, # of connection points: 2
#     Edge 116, Type (0, 1), BuildingBlock: TEMPAE_clean_linker_10, # of connection points: 2
#     Edge 117, Type (0, 1), BuildingBlock: TEMPAE_clean_linker_10, # of connection points: 2
#     Edge 118, Type (0, 1), BuildingBlock: TEMPAE_clean_linker_10, # of connection points: 2
#     Edge 119, Type (0, 1), BuildingBlock: TEMPAE_clean_linker_10, # of connection points: 2
#     Edge 120, Type (0, 1), BuildingBlock: TEMPAE_clean_linker_10, # of connection points: 2
#     Edge 121, Type (0, 1), BuildingBlock: TEMPAE_clean_linker_10, # of connection points: 2
#     Edge 122, Type (0, 1), BuildingBlock: TEMPAE_clean_linker_10, # of connection points: 2
#     Edge 123, Type (0, 1), BuildingBlock: TEMPAE_clean_linker_10, # of connection points: 2
#     Edge 124, Type (0, 1), BuildingBlock: TEMPAE_clean_linker_10, # of connection points: 2
#     Edge 125, Type (0, 1), BuildingBlock: TEMPAE_clean_linker_10, # of connection points: 2
#     Edge 126, Type (0, 1), BuildingBlock: TEMPAE_clean_linker_10, # of connection points: 2
#     Edge 127, Type (0, 1), BuildingBlock: TEMPAE_clean_linker_10, # of connection points: 2
#     Edge 128, Type (0, 1), BuildingBlock: TEMPAE_clean_linker_10, # of connection points: 2
#     Edge 129, Type (0, 1), BuildingBlock: TEMPAE_clean_linker_10, # of connection points: 2
#     Edge 130, Type (0, 1), BuildingBlock: TEMPAE_clean_linker_10, # of connection points: 2
#     Edge 131, Type (0, 1), BuildingBlock: TEMPAE_clean_linker_10, # of connection points: 2
#     Edge 132, Type (0, 1), BuildingBlock: TEMPAE_clean_linker_10, # of connection points: 2
#     Edge 133, Type (0, 1), BuildingBlock: TEMPAE_clean_linker_10, # of connection points: 2
#     Edge 134, Type (0, 1), BuildingBlock: TEMPAE_clean_linker_10, # of connection points: 2
#     Edge 135, Type (0, 1), BuildingBlock: TEMPAE_clean_linker_10, # of connection points: 2
# Relax obj value: 0.202
# Max RMSD: 0.288
# Mean RMSD: 0.198
data_MOF--net-gar--node1-UXUYUI_clean_sbu_0--node2-BETGAK_clean_sbu_0--edge1-TEMPAE_clean_linker_10
_symmetry_space_group_name_H-M    P1
_symmetry_Int_Tables_number       1
_symmetry_cell_setting            triclinic
loop_
_symmetry_equiv_pos_as_xyz
'x, y, z'
_cell_length_a     75.675817
_cell_length_b     70.829248
_cell_length_c     71.078909
_cell_angle_alpha  98.694273
_cell_angle_beta   95.080778
_cell_angle_gamma 102.61457
loop_
_atom_site_label
_atom_site_type_symbol
_atom_site_fract_x
_atom_site_fract_y
_atom_site_fract_z
_atom_type_partial_charge
Li0 Li 0.07582 0.31164 0.36382 0.0
Li1 Li 0.09294 0.33446 0.39215 0.0
Li2 Li 0.10843 0.31618 0.36835 0.0
Li3 Li 0.0892 0.29902 0.39082 0.0
C4 C 0.09409 0.34767 0.35129 0.0
N5 N 0.09275 0.37093 0.32358 0.0
C6 C 0.08873 0.36536 0.35539 0.0
C7 C 0.09898 0.34191 0.33317 0.0
C8 C 0.0881 0.3769 0.34118 0.0
C9 C 0.09813 0.35384 0.31933 0.0
C10 C 0.05805 0.31618 0.4026 0.0
C11 C 0.04956 0.31859 0.4346 0.0
N12 N 0.0331 0.32136 0.42783 0.0
C13 C 0.04103 0.31895 0.39592 0.0
C14 C 0.06235 0.31589 0.42206 0.0
C15 C 0.02861 0.32157 0.40891 0.0
C16 C 0.04193 0.28951 0.34826 0.0
N17 N 0.05439 0.30596 0.3465 0.0
C18 C 0.03341 0.31423 0.32395 0.0
C19 C 0.05059 0.31819 0.33452 0.0
C20 C 0.0202 0.29772 0.32605 0.0
C21 C 0.02455 0.28509 0.3381 0.0
H22 H 0.04529 0.28032 0.35822 0.0
H23 H 0.06048 0.33139 0.33368 0.0
C24 C 0.10735 0.3689 0.42083 0.0
N25 N 0.09296 0.35802 0.40809 0.0
C26 C 0.10556 0.38583 0.43267 0.0
C27 C 0.07441 0.38 0.41762 0.0
C28 C 0.07687 0.36344 0.40603 0.0
C29 C 0.0888 0.39125 0.43124 0.0
H30 H 0.12012 0.36441 0.42187 0.0
H31 H 0.06594 0.35487 0.39527 0.0
C32 C 0.08219 0.27662 0.34763 0.0
N33 N 0.06713 0.24745 0.31643 0.0
C34 C 0.07477 0.2575 0.35034 0.0
C35 C 0.08202 0.2809 0.32907 0.0
C36 C 0.06722 0.24295 0.33438 0.0
C37 C 0.07429 0.26596 0.31348 0.0
C38 C 0.1252 0.32326 0.41235 0.0
C39 C 0.14323 0.32335 0.40946 0.0
C40 C 0.12065 0.32655 0.43099 0.0
C41 C 0.15648 0.32672 0.42534 0.0
C42 C 0.13429 0.32987 0.44651 0.0
N43 N 0.15177 0.32989 0.44339 0.0
C44 C 0.14011 0.33388 0.35381 0.0
C45 C 0.13007 0.29915 0.34541 0.0
C46 C 0.15392 0.33392 0.34205 0.0
N47 N 0.12853 0.31665 0.35507 0.0
C48 C 0.14345 0.29852 0.33334 0.0
C49 C 0.15542 0.31607 0.33148 0.0
H50 H 0.13832 0.34756 0.36158 0.0
H51 H 0.12069 0.28571 0.34684 0.0
C52 C 0.06683 0.26815 0.40206 0.0
N53 N 0.08445 0.27861 0.40486 0.0
C54 C 0.06149 0.25254 0.41165 0.0
C55 C 0.09256 0.25892 0.42704 0.0
C56 C 0.09733 0.27437 0.417 0.0
C57 C 0.07442 0.24776 0.42436 0.0
H58 H 0.05695 0.2719 0.3922 0.0
H59 H 0.11126 0.28296 0.41888 0.0
O60 O 0.09473 0.33623 0.36505 0.0
O61 O 0.07038 0.3137 0.39007 0.0
O62 O 0.09004 0.29091 0.36307 0.0
O63 O 0.11219 0.32015 0.39691 0.0
H64 H 0.08506 0.37012 0.36938 0.0
H65 H 0.10337 0.3284 0.32981 0.0
H66 H 0.08392 0.3906 0.34414 0.0
H67 H 0.10178 0.34952 0.30521 0.0
H68 H 0.0527 0.31845 0.44972 0.0
H69 H 0.03752 0.31923 0.38089 0.0
H70 H 0.07536 0.31353 0.42739 0.0
H71 H 0.01541 0.3238 0.40396 0.0
H72 H 0.03017 0.32444 0.31503 0.0
H73 H 0.01442 0.2724 0.34013 0.0
H74 H 0.11695 0.39437 0.443 0.0
H75 H 0.06144 0.38407 0.41588 0.0
H76 H 0.07501 0.25389 0.36459 0.0
H77 H 0.08776 0.29559 0.32674 0.0
H78 H 0.06149 0.22807 0.33625 0.0
H79 H 0.07402 0.26908 0.29904 0.0
H80 H 0.14695 0.32086 0.39509 0.0
H81 H 0.1068 0.32671 0.43345 0.0
H82 H 0.17051 0.32684 0.42333 0.0
H83 H 0.13099 0.33249 0.46103 0.0
H84 H 0.16303 0.34767 0.34089 0.0
H85 H 0.14451 0.28449 0.3256 0.0
H86 H 0.04745 0.24413 0.40891 0.0
H87 H 0.10291 0.25585 0.43688 0.0
Li88 Li 1.00322 0.77278 0.63665 0.0
Li89 Li 0.01572 0.76023 0.66403 0.0
Li90 Li 0.99754 0.73746 0.63566 0.0
Li91 Li 0.98287 0.75672 0.65889 0.0
C92 C 0.03339 0.75857 0.62474 0.0
N93 N 0.05833 0.7614 0.59864 0.0
C94 C 0.05207 0.76413 0.63116 0.0
C95 C 0.02735 0.75441 0.60509 0.0
C96 C 0.06448 0.76549 0.61772 0.0
C97 C 0.04019 0.75596 0.59211 0.0
C98 C 0.00774 0.79624 0.67948 0.0
C99 C 0.01134 0.80827 0.71351 0.0
N100 N 0.01904 0.82659 0.71043 0.0
C101 C 0.01557 0.8152 0.67662 0.0
C102 C 1.0055 0.79275 0.69804 0.0
C103 C 0.02124 0.83035 0.69246 0.0
C104 C 0.99461 0.79875 0.61297 0.0
N105 N 0.00835 0.79343 0.62292 0.0
C106 C 0.03065 0.81888 0.61421 0.0
C107 C 0.02606 0.80322 0.62391 0.0
C108 C 0.01678 0.82473 0.60384 0.0
C109 C 0.99855 0.8146 0.60331 0.0
H110 H 0.98063 0.79076 0.61269 0.0
H111 H 0.03661 0.79902 0.63245 0.0
C112 C 0.04143 0.74961 0.68882 0.0
N113 N 0.03644 0.76488 0.68211 0.0
C114 C 0.05768 0.75282 0.70094 0.0
C115 C 0.06318 0.78742 0.69914 0.0
C116 C 0.04699 0.78348 0.68684 0.0
C117 C 0.06885 0.77192 0.70607 0.0
H118 H 0.03324 0.73484 0.68414 0.0
H119 H 0.04323 0.79517 0.68051 0.0
C120 C 0.96622 0.74223 0.61587 0.0
N121 N 0.93954 0.72039 0.58701 0.0
C122 C 0.95002 0.73112 0.62043 0.0
C123 C 0.96881 0.74238 0.59668 0.0
C124 C 0.9367 0.72013 0.60561 0.0
C125 C 0.95518 0.73119 0.58229 0.0
C126 C 0.99603 0.72399 0.67577 0.0
C127 C 0.99709 0.70463 0.66957 0.0
C128 C 0.99523 0.73051 0.69516 0.0
C129 C 0.99745 0.69212 0.68294 0.0
C130 C 0.99575 0.71759 0.70811 0.0
N131 N 0.99682 0.69881 0.70178 0.0
C132 C 0.01415 0.7098 0.61959 0.0
C133 C 0.98203 0.69865 0.61266 0.0
C134 C 0.0166 0.69233 0.60975 0.0
N135 N 0.99715 0.71286 0.62058 0.0
C136 C 0.98384 0.68052 0.60307 0.0
C137 C 1.00138 0.67716 0.60159 0.0
H138 H 0.02593 0.72082 0.6268 0.0
H139 H 0.96861 0.70109 0.61421 0.0
C140 C 0.9607 0.77645 0.67828 0.0
N141 N 0.96313 0.75816 0.67246 0.0
C142 C 0.94762 0.77919 0.69028 0.0
C143 C 0.93916 0.74401 0.68924 0.0
C144 C 0.95276 0.74202 0.6776 0.0
C145 C 0.93658 0.76285 0.69588 0.0
H146 H 0.96922 0.78898 0.67394 0.0
H147 H 0.95517 0.72767 0.67278 0.0
O148 O 0.02112 0.75659 0.63771 0.0
O149 O 1.00231 0.78123 0.66412 0.0
O150 O 0.97918 0.75349 0.63013 0.0
O151 O 0.9958 0.73642 0.66285 0.0
H152 H 0.05692 0.76723 0.64636 0.0
H153 H 0.01292 0.7499 0.59996 0.0
H154 H 0.07899 0.76973 0.62247 0.0
H155 H 0.03573 0.75276 0.57684 0.0
H156 H 0.00974 0.80575 0.72797 0.0
H157 H 0.01733 0.81817 0.66232 0.0
H158 H 0.99932 0.77823 0.70047 0.0
H159 H 0.0274 0.84508 0.69048 0.0
H160 H 0.04482 0.82661 0.61511 0.0
H161 H 0.98756 0.81882 0.5954 0.0
H162 H 0.06184 0.74034 0.70545 0.0
H163 H 0.07144 0.80233 0.70269 0.0
H164 H 0.94776 0.73097 0.63522 0.0
H165 H 0.98116 0.75117 0.59296 0.0
H166 H 0.9241 0.71142 0.6089 0.0
H167 H 0.957 0.73116 0.56736 0.0
H168 H 0.99762 0.69928 0.65462 0.0
H169 H 0.99429 0.74537 0.70018 0.0
H170 H 0.99826 0.67709 0.67834 0.0
H171 H 0.99526 0.72248 0.72318 0.0
H172 H 0.03043 0.69083 0.60869 0.0
H173 H 0.97167 0.66919 0.59728 0.0
H174 H 0.9464 0.794 0.6953 0.0
H175 H 0.93074 0.73097 0.69292 0.0
Li176 Li 0.57489 0.81383 0.8647 0.0
Li177 Li 0.59253 0.83606 0.89343 0.0
Li178 Li 0.60736 0.81656 0.87001 0.0
Li179 Li 0.58734 0.80029 0.89205 0.0
C180 C 0.59464 0.84961 0.85302 0.0
N181 N 0.59404 0.8741 0.82629 0.0
C182 C 0.59146 0.8683 0.85827 0.0
C183 C 0.59781 0.84352 0.83425 0.0
C184 C 0.59113 0.88042 0.84453 0.0
C185 C 0.59737 0.85607 0.82092 0.0
C186 C 0.55699 0.81752 0.90377 0.0
C187 C 0.54912 0.8191 0.93598 0.0
N188 N 0.53206 0.82048 0.92949 0.0
C189 C 0.53938 0.81887 0.89739 0.0
C190 C 0.56192 0.81757 0.92318 0.0
C191 C 0.52698 0.82039 0.91063 0.0
C192 C 0.54353 0.79221 0.8401 0.0
N193 N 0.55419 0.81047 0.84704 0.0
C194 C 0.53267 0.82542 0.83231 0.0
C195 C 0.54913 0.82693 0.84338 0.0
C196 C 0.52125 0.8068 0.82525 0.0
C197 C 0.52692 0.79 0.82889 0.0
H198 H 0.54751 0.77942 0.84397 0.0
H199 H 0.55743 0.84124 0.84982 0.0
C200 C 0.60761 0.87135 0.92114 0.0
N201 N 0.59297 0.85997 0.90905 0.0
C202 C 0.60606 0.88878 0.93235 0.0
C203 C 0.5747 0.88248 0.91784 0.0
C204 C 0.57685 0.86533 0.90701 0.0
C205 C 0.58933 0.89429 0.93087 0.0
H206 H 0.6204 0.86692 0.92213 0.0
H207 H 0.56569 0.85631 0.89675 0.0
C208 C 0.58394 0.77784 0.84834 0.0
N209 N 0.57541 0.74866 0.81623 0.0
C210 C 0.57969 0.75809 0.85033 0.0
C211 C 0.58392 0.78275 0.83004 0.0
C212 C 0.5754 0.74355 0.83392 0.0
C213 C 0.57954 0.7678 0.81397 0.0
C214 C 0.62436 0.82447 0.9135 0.0
C215 C 0.64202 0.82341 0.90999 0.0
C216 C 0.62078 0.82963 0.9323 0.0
C217 C 0.65586 0.82747 0.92541 0.0
C218 C 0.63499 0.83358 0.94734 0.0
N219 N 0.65208 0.83243 0.94361 0.0
C220 C 0.63727 0.8324 0.85226 0.0
C221 C 0.63175 0.79816 0.85276 0.0
C222 C 0.65151 0.83139 0.84132 0.0
N223 N 0.62767 0.81586 0.85744 0.0
C224 C 0.64596 0.79649 0.84199 0.0
C225 C 0.65586 0.81322 0.83603 0.0
H226 H 0.63368 0.84628 0.85637 0.0
H227 H 0.62378 0.78532 0.85717 0.0
C228 C 0.56576 0.76644 0.89967 0.0
N229 N 0.58191 0.77966 0.90582 0.0
C230 C 0.5605 0.75046 0.90885 0.0
C231 C 0.5884 0.76238 0.93087 0.0
C232 C 0.59324 0.77798 0.92106 0.0
C233 C 0.57187 0.74828 0.92471 0.0
H234 H 0.55708 0.76826 0.88747 0.0
H235 H 0.606 0.78873 0.92561 0.0
O236 O 0.59501 0.83761 0.86636 0.0
O237 O 0.56928 0.81617 0.89098 0.0
O238 O 0.5877 0.79221 0.86428 0.0
O239 O 0.61073 0.82053 0.89852 0.0
H240 H 0.58924 0.8734 0.87277 0.0
H241 H 0.60084 0.82941 0.83004 0.0
H242 H 0.5886 0.89487 0.84839 0.0
H243 H 0.59976 0.85151 0.80633 0.0
H244 H 0.55274 0.81918 0.95106 0.0
H245 H 0.53539 0.81882 0.88237 0.0
H246 H 0.57546 0.81639 0.92827 0.0
H247 H 0.51331 0.8215 0.90592 0.0
H248 H 0.52859 0.83868 0.82986 0.0
H249 H 0.51819 0.77544 0.824 0.0
H250 H 0.61764 0.89761 0.94227 0.0
H251 H 0.56172 0.88651 0.91598 0.0
H252 H 0.57969 0.75403 0.8644 0.0
H253 H 0.58689 0.79791 0.82825 0.0
H254 H 0.57206 0.7282 0.83525 0.0
H255 H 0.57935 0.7714 0.79971 0.0
H256 H 0.64501 0.81946 0.89551 0.0
H257 H 0.60722 0.83065 0.93524 0.0
H258 H 0.66959 0.82668 0.92291 0.0
H259 H 0.63243 0.8376 0.96197 0.0
H260 H 0.65908 0.84459 0.8371 0.0
H261 H 0.64894 0.78224 0.83804 0.0
H262 H 0.5478 0.7398 0.90339 0.0
H263 H 0.59746 0.76149 0.94321 0.0
Li264 Li 0.50234 0.27276 0.13654 0.0
Li265 Li 0.5141 0.25947 0.16429 0.0
Li266 Li 0.49657 0.23703 0.13581 0.0
Li267 Li 0.48144 0.25635 0.15851 0.0
C268 C 0.53261 0.25467 0.12569 0.0
N269 N 0.55805 0.25114 0.10069 0.0
C270 C 0.55112 0.25865 0.13269 0.0
C271 C 0.52699 0.24893 0.106 0.0
C272 C 0.56379 0.2568 0.11981 0.0
C273 C 0.54009 0.24719 0.09359 0.0
C274 C 0.50485 0.29597 0.1793 0.0
C275 C 0.50433 0.3088 0.2126 0.0
N276 N 0.5133 0.32684 0.20989 0.0
C277 C 0.51399 0.31464 0.1768 0.0
C278 C 0.49991 0.29301 0.1973 0.0
C279 C 0.51815 0.33007 0.19246 0.0
C280 C 0.49528 0.30528 0.12167 0.0
N281 N 0.50763 0.29411 0.12331 0.0
C282 C 0.52881 0.31534 0.10838 0.0
C283 C 0.52419 0.2989 0.11703 0.0
C284 C 0.51651 0.3274 0.10671 0.0
C285 C 0.49948 0.32215 0.11344 0.0
H286 H 0.48236 0.30132 0.12721 0.0
H287 H 0.53406 0.29028 0.11901 0.0
C288 C 0.54207 0.24697 0.18226 0.0
N289 N 0.53457 0.26275 0.18262 0.0
C290 C 0.55815 0.24833 0.19403 0.0
C291 C 0.55835 0.2821 0.20655 0.0
C292 C 0.54237 0.28012 0.19439 0.0
C293 C 0.56659 0.26617 0.20624 0.0
H294 H 0.53586 0.23352 0.17232 0.0
H295 H 0.53667 0.29271 0.19404 0.0
C296 C 0.46533 0.24255 0.11537 0.0
N297 N 0.43851 0.22168 0.08622 0.0
C298 C 0.44885 0.23182 0.11971 0.0
C299 C 0.46816 0.24279 0.09625 0.0
C300 C 0.43546 0.22134 0.10476 0.0
C301 C 0.45443 0.23208 0.0817 0.0
C302 C 0.49701 0.22475 0.17636 0.0
C303 C 0.49786 0.20521 0.17085 0.0
C304 C 0.49914 0.23289 0.19581 0.0
C305 C 0.50101 0.19417 0.18494 0.0
C306 C 0.50236 0.2214 0.20948 0.0
N307 N 0.50321 0.20243 0.20381 0.0
C308 C 0.51263 0.20755 0.12276 0.0
C309 C 0.48131 0.19948 0.11037 0.0
C310 C 0.51493 0.18995 0.11296 0.0
N311 N 0.49618 0.21224 0.12097 0.0
C312 C 0.4829 0.18136 0.10058 0.0
C313 C 0.49996 0.17645 0.10171 0.0
H314 H 0.52404 0.21748 0.13199 0.0
H315 H 0.46819 0.20313 0.10967 0.0
C316 C 0.45699 0.2744 0.17678 0.0
N317 N 0.46116 0.25683 0.17144 0.0
C318 C 0.44352 0.27578 0.18866 0.0
C319 C 0.43822 0.24073 0.18834 0.0
C320 C 0.45212 0.2401 0.17681 0.0
C321 C 0.43413 0.25881 0.1946 0.0
H322 H 0.46451 0.28741 0.17225 0.0
H323 H 0.45594 0.2264 0.17241 0.0
O324 O 0.52008 0.25639 0.13816 0.0
O325 O 0.50091 0.2807 0.16417 0.0
O326 O 0.47842 0.25327 0.12977 0.0
O327 O 0.4939 0.23571 0.16271 0.0
H328 H 0.55565 0.26319 0.14791 0.0
H329 H 0.51269 0.24579 0.10041 0.0
H330 H 0.57817 0.25986 0.12501 0.0
H331 H 0.53597 0.2427 0.07831 0.0
H332 H 0.50065 0.30671 0.22663 0.0
H333 H 0.51793 0.31715 0.16295 0.0
H334 H 0.49276 0.27869 0.19946 0.0
H335 H 0.52528 0.34459 0.19077 0.0
H336 H 0.54195 0.31854 0.10313 0.0
H337 H 0.48967 0.33117 0.11275 0.0
H338 H 0.5643 0.23582 0.19296 0.0
H339 H 0.56442 0.29609 0.21576 0.0
H340 H 0.44644 0.23159 0.13446 0.0
H341 H 0.48079 0.25121 0.0927 0.0
H342 H 0.42264 0.21293 0.10788 0.0
H343 H 0.45642 0.2321 0.06682 0.0
H344 H 0.49596 0.19857 0.15586 0.0
H345 H 0.4985 0.24796 0.20031 0.0
H346 H 0.50167 0.17901 0.18088 0.0
H347 H 0.50417 0.22755 0.2246 0.0
H348 H 0.52845 0.18715 0.1141 0.0
H349 H 0.47087 0.17129 0.09242 0.0
H350 H 0.44044 0.2899 0.19317 0.0
H351 H 0.43108 0.22741 0.19272 0.0
Li352 Li 0.07309 0.82216 0.10324 0.0
Li353 Li 0.09197 0.80637 0.12786 0.0
Li354 Li 0.0713 0.78574 0.09869 0.0
Li355 Li 0.05658 0.79999 0.12604 0.0
C356 C 0.10403 0.80385 0.08602 0.0
N357 N 0.12506 0.79424 0.05786 0.0
C358 C 0.12123 0.80054 0.09104 0.0
C359 C 0.09764 0.80257 0.06672 0.0
C360 C 0.13164 0.79564 0.07658 0.0
C361 C 0.10843 0.79759 0.05268 0.0
C362 C 0.07998 0.84011 0.14834 0.0
C363 C 0.08215 0.85044 0.1825 0.0
N364 N 0.08786 0.86946 0.18024 0.0
C365 C 0.08593 0.85972 0.14632 0.0
C366 C 0.07813 0.83536 0.16653 0.0
C367 C 0.08985 0.87436 0.16263 0.0
C368 C 0.0547 0.84592 0.08234 0.0
N369 N 0.07139 0.84533 0.0909 0.0
C370 C 0.0843 0.87696 0.08293 0.0
C371 C 0.08612 0.86046 0.09116 0.0
C372 C 0.06723 0.87788 0.07392 0.0
C373 C 0.05237 0.8619 0.07359 0.0
H374 H 0.04302 0.83405 0.08245 0.0
H375 H 0.09931 0.85989 0.09798 0.0
C376 C 0.11973 0.78891 0.14276 0.0
N377 N 0.11509 0.80659 0.14413 0.0
C378 C 0.13566 0.78688 0.15326 0.0
C379 C 0.14229 0.82135 0.16652 0.0
C380 C 0.1261 0.82272 0.15579 0.0
C381 C 0.14737 0.8032 0.16546 0.0
H382 H 0.11104 0.77624 0.13332 0.0
H383 H 0.12238 0.83671 0.15682 0.0
C384 C 0.03764 0.79164 0.08273 0.0
N385 N 0.01096 0.7751 0.05199 0.0
C386 C 0.02072 0.78061 0.08566 0.0
C387 C 0.04092 0.79443 0.06419 0.0
C388 C 0.00742 0.77231 0.06993 0.0
C389 C 0.02728 0.78591 0.04883 0.0
C390 C 0.06979 0.76717 0.13608 0.0
C391 C 0.06082 0.74804 0.12734 0.0
C392 C 0.07571 0.77132 0.15575 0.0
C393 C 0.05795 0.73328 0.13848 0.0
C394 C 0.07258 0.75615 0.1664 0.0
N395 N 0.06386 0.73761 0.15762 0.0
C396 C 0.08549 0.75473 0.08066 0.0
C397 C 0.05364 0.74937 0.07231 0.0
C398 C 0.08531 0.73599 0.07088 0.0
N399 N 0.06983 0.76114 0.08127 0.0
C400 C 0.05278 0.73038 0.06258 0.0
C401 C 0.06872 0.72325 0.06203 0.0
H402 H 0.0981 0.7638 0.08851 0.0
H403 H 0.04116 0.75413 0.07355 0.0
C404 C 0.03051 0.81104 0.1508 0.0
N405 N 0.03518 0.79551 0.14034 0.0
C406 C 0.01469 0.8083 0.16003 0.0
C407 C 0.00836 0.77365 0.14741 0.0
C408 C 0.02448 0.777 0.13869 0.0
C409 C 1.00319 0.78942 0.15829 0.0
H410 H 0.03891 0.8257 0.15174 0.0
H411 H 0.0282 0.76481 0.13018 0.0
O412 O 0.09358 0.80841 0.09998 0.0
O413 O 0.07558 0.8257 0.13247 0.0
O414 O 0.05083 0.79981 0.09797 0.0
O415 O 0.07314 0.78169 0.12535 0.0
H416 H 0.12645 0.80164 0.10593 0.0
H417 H 0.08448 0.80532 0.06262 0.0
H418 H 0.14493 0.79293 0.08025 0.0
H419 H 0.10359 0.7964 0.03766 0.0
H420 H 0.08067 0.84702 0.19669 0.0
H421 H 0.08738 0.8636 0.1323 0.0
H422 H 0.07346 0.82022 0.16826 0.0
H423 H 0.0944 0.88962 0.16129 0.0
H424 H 0.0962 0.88884 0.08347 0.0
H425 H 0.0389 0.86196 0.06705 0.0
H426 H 0.1389 0.77262 0.15154 0.0
H427 H 0.15061 0.83439 0.17579 0.0
H428 H 0.01788 0.7784 0.0999 0.0
H429 H 0.05379 0.8032 0.0617 0.0
H430 H 0.9943 0.76366 0.07199 0.0
H431 H 0.02965 0.78793 0.0344 0.0
H432 H 0.05613 0.74461 0.11213 0.0
H433 H 0.08273 0.78607 0.16267 0.0
H434 H 0.05106 0.71839 0.13191 0.0
H435 H 0.07713 0.75911 0.18164 0.0
H436 H 0.09802 0.73136 0.07075 0.0
H437 H 0.03958 0.72107 0.05642 0.0
H438 H 0.01123 0.82096 0.16806 0.0
H439 H 1.00006 0.75882 0.14572 0.0
Li440 Li 0.51487 0.78665 0.4271 0.0
Li441 Li 0.49342 0.7666 0.39768 0.0
Li442 Li 0.5124 0.74987 0.42257 0.0
Li443 Li 0.52893 0.77087 0.3996 0.0
C444 C 0.48205 0.76808 0.44046 0.0
N445 N 0.46173 0.77583 0.46985 0.0
C446 C 0.4658 0.77395 0.43674 0.0
C447 C 0.48775 0.7657 0.45901 0.0
C448 C 0.45576 0.7779 0.45183 0.0
C449 C 0.47735 0.76984 0.47371 0.0
C450 C 0.51417 0.8048 0.38938 0.0
C451 C 0.51755 0.81604 0.35928 0.0
N452 N 0.51667 0.8343 0.36777 0.0
C453 C 0.51316 0.82362 0.39779 0.0
C454 C 0.51624 0.80088 0.36996 0.0
C455 C 0.51448 0.83835 0.38663 0.0
C456 C 0.53557 0.82406 0.44691 0.0
N457 N 0.51875 0.81161 0.44475 0.0
C458 C 0.50704 0.83689 0.46237 0.0
C459 C 0.50464 0.81768 0.45244 0.0
C460 C 0.52408 0.85025 0.46422 0.0
C461 C 0.53855 0.84345 0.45664 0.0
H462 H 0.54653 0.81923 0.44032 0.0
H463 H 0.49124 0.80803 0.45012 0.0
C464 C 0.46047 0.75193 0.36739 0.0
N465 N 0.46997 0.76712 0.3813 0.0
C466 C 0.44434 0.75329 0.35644 0.0
C467 C 0.44766 0.7858 0.37414 0.0
C468 C 0.46377 0.7839 0.38461 0.0
C469 C 0.43749 0.77041 0.35967 0.0
H470 H 0.46536 0.73863 0.3647 0.0
H471 H 0.47136 0.796 0.39552 0.0
C472 C 0.54833 0.77879 0.44234 0.0
N473 N 0.57621 0.79311 0.47229 0.0
C474 C 0.56634 0.78472 0.4386 0.0
C475 C 0.54449 0.78015 0.46129 0.0
C476 C 0.58026 0.79187 0.45394 0.0
C477 C 0.55877 0.78747 0.47625 0.0
C478 C 0.51208 0.733 0.3784 0.0
C479 C 0.51951 0.7174 0.3823 0.0
C480 C 0.5082 0.73537 0.35945 0.0
C481 C 0.52311 0.70444 0.36708 0.0
C482 C 0.51196 0.72206 0.34462 0.0
N483 N 0.51929 0.70701 0.34871 0.0
C484 C 0.50064 0.71581 0.44266 0.0
C485 C 0.53158 0.72311 0.43754 0.0
C486 C 0.50322 0.69998 0.4517 0.0
N487 N 0.51472 0.72704 0.43562 0.0
C488 C 0.53471 0.70736 0.4463 0.0
C489 C 0.52046 0.6953 0.45361 0.0
H490 H 0.48734 0.71913 0.44133 0.0
H491 H 0.54271 0.73211 0.432 0.0
C492 C 0.55923 0.79283 0.38282 0.0
N493 N 0.55105 0.77463 0.38599 0.0
C494 C 0.57558 0.79598 0.37443 0.0
C495 C 0.57531 0.76178 0.37312 0.0
C496 C 0.55895 0.75928 0.38144 0.0
C497 C 0.584 0.78034 0.36936 0.0
H498 H 0.55325 0.80511 0.38706 0.0
H499 H 0.55283 0.74508 0.38469 0.0
O500 O 0.49223 0.76456 0.42595 0.0
O501 O 0.51366 0.79042 0.40024 0.0
O502 O 0.53456 0.77177 0.42748 0.0
O503 O 0.50832 0.74569 0.3931 0.0
H504 H 0.4611 0.77564 0.42242 0.0
H505 H 0.50003 0.76068 0.462 0.0
H506 H 0.44326 0.78264 0.4492 0.0
H507 H 0.48168 0.76823 0.48818 0.0
H508 H 0.51933 0.81329 0.34426 0.0
H509 H 0.51142 0.82686 0.41277 0.0
H510 H 0.5171 0.78637 0.3633 0.0
H511 H 0.51382 0.85302 0.39297 0.0
H512 H 0.49539 0.8415 0.46767 0.0
H513 H 0.55196 0.85316 0.45781 0.0
H514 H 0.43714 0.74084 0.34569 0.0
H515 H 0.4434 0.79946 0.37722 0.0
H516 H 0.56955 0.78375 0.42401 0.0
H517 H 0.53064 0.77577 0.46443 0.0
H518 H 0.59427 0.79645 0.45126 0.0
H519 H 0.55598 0.78868 0.49099 0.0
H520 H 0.52249 0.71535 0.3969 0.0
H521 H 0.50233 0.74734 0.35626 0.0
H522 H 0.52893 0.69233 0.36988 0.0
H523 H 0.50904 0.72368 0.32985 0.0
H524 H 0.49174 0.69166 0.45731 0.0
H525 H 0.54821 0.70454 0.44692 0.0
H526 H 0.58146 0.81058 0.37186 0.0
H527 H 0.58129 0.74927 0.37009 0.0
Li528 Li 0.57476 0.32106 0.60436 0.0
Li529 Li 0.5939 0.30482 0.62902 0.0
Li530 Li 0.57275 0.28488 0.60006 0.0
Li531 Li 0.55792 0.29911 0.62709 0.0
C532 C 0.60329 0.29985 0.58578 0.0
N533 N 0.61913 0.28467 0.55525 0.0
C534 C 0.62038 0.29563 0.58891 0.0
C535 C 0.59433 0.29661 0.56712 0.0
C536 C 0.62816 0.28792 0.57329 0.0
C537 C 0.60253 0.28881 0.55188 0.0
C538 C 0.57985 0.33976 0.64834 0.0
C539 C 0.57814 0.35243 0.68135 0.0
N540 N 0.58389 0.37104 0.67793 0.0
C541 C 0.58574 0.35897 0.6451 0.0
C542 C 0.57601 0.33639 0.66656 0.0
C543 C 0.5877 0.37461 0.66027 0.0
C544 C 0.55604 0.3491 0.5916 0.0
N545 N 0.57246 0.34416 0.59203 0.0
C546 C 0.58359 0.37047 0.57497 0.0
C547 C 0.5861 0.35448 0.58375 0.0
C548 C 0.56668 0.37611 0.57416 0.0
C549 C 0.55282 0.3647 0.58269 0.0
H550 H 0.54521 0.3407 0.59803 0.0
H551 H 0.59907 0.35037 0.58398 0.0
C552 C 0.6244 0.2888 0.63996 0.0
N553 N 0.61707 0.30444 0.6454 0.0
C554 C 0.6404 0.28646 0.65016 0.0
C555 C 0.64114 0.31602 0.67213 0.0
C556 C 0.62519 0.31795 0.66129 0.0
C557 C 0.64921 0.30008 0.66672 0.0
H558 H 0.61779 0.27796 0.62752 0.0
H559 H 0.61922 0.33019 0.66578 0.0
C560 C 0.53871 0.29149 0.58468 0.0
N561 N 0.51035 0.27644 0.55537 0.0
C562 C 0.52353 0.27738 0.58742 0.0
C563 C 0.53945 0.29804 0.56712 0.0
C564 C 0.50932 0.26994 0.5724 0.0
C565 C 0.52499 0.2902 0.55245 0.0
C566 C 0.57102 0.26433 0.63498 0.0
C567 C 0.55878 0.24719 0.62523 0.0
C568 C 0.57972 0.2647 0.65324 0.0
C569 C 0.55557 0.23056 0.63392 0.0
C570 C 0.57609 0.24778 0.66146 0.0
N571 N 0.56421 0.2312 0.65171 0.0
C572 C 0.58374 0.25031 0.58725 0.0
C573 C 0.55755 0.25226 0.56757 0.0
C574 C 0.58295 0.23143 0.57737 0.0
N575 N 0.571 0.26025 0.58249 0.0
C576 C 0.55622 0.23336 0.55729 0.0
C577 C 0.56887 0.2225 0.56232 0.0
H578 H 0.59423 0.25681 0.59923 0.0
H579 H 0.54758 0.26024 0.56377 0.0
C580 C 0.52568 0.30882 0.64084 0.0
N581 N 0.53603 0.2953 0.64076 0.0
C582 C 0.50923 0.3062 0.64901 0.0
C583 C 0.51413 0.27572 0.65694 0.0
C584 C 0.53049 0.27895 0.64867 0.0
C585 C 0.50309 0.28939 0.65722 0.0
H586 H 0.53011 0.32164 0.63434 0.0
H587 H 0.53858 0.26816 0.64838 0.0
O588 O 0.59539 0.3072 0.60091 0.0
O589 O 0.57756 0.32436 0.6336 0.0
O590 O 0.55264 0.29912 0.59924 0.0
O591 O 0.57446 0.28077 0.62678 0.0
H592 H 0.62765 0.29844 0.60321 0.0
H593 H 0.58111 0.29987 0.56449 0.0
H594 H 0.64139 0.28458 0.5755 0.0
H595 H 0.5957 0.28606 0.53737 0.0
H596 H 0.57519 0.35009 0.69555 0.0
H597 H 0.58873 0.36176 0.63102 0.0
H598 H 0.57137 0.32155 0.6692 0.0
H599 H 0.59224 0.38957 0.65799 0.0
H600 H 0.59513 0.37828 0.56914 0.0
H601 H 0.53931 0.36733 0.58252 0.0
H602 H 0.64582 0.27406 0.64482 0.0
H603 H 0.64685 0.32685 0.68485 0.0
H604 H 0.52276 0.27223 0.60098 0.0
H605 H 0.55108 0.30903 0.56484 0.0
H606 H 0.49748 0.259 0.57427 0.0
H607 H 0.52539 0.29508 0.53876 0.0
H608 H 0.55174 0.24677 0.61119 0.0
H609 H 0.58912 0.27794 0.66099 0.0
H610 H 0.54617 0.21716 0.62655 0.0
H611 H 0.58271 0.24784 0.67561 0.0
H612 H 0.5929 0.22364 0.582 0.0
H613 H 0.54528 0.22726 0.54564 0.0
H614 H 0.50149 0.31737 0.64901 0.0
H615 H 0.51002 0.26238 0.66274 0.0
Li616 Li 0.01703 0.28705 0.92908 0.0
Li617 Li 0.99564 0.26714 0.8997 0.0
Li618 Li 0.01419 0.25029 0.92439 0.0
Li619 Li 0.03089 0.27127 0.90174 0.0
C620 C 0.98357 0.26926 0.94162 0.0
N621 N 0.9622 0.27826 0.9696 0.0
C622 C 0.96763 0.27532 0.93681 0.0
C623 C 0.98847 0.2674 0.96054 0.0
C624 C 0.95704 0.27988 0.9512 0.0
C625 C 0.97754 0.27215 0.97451 0.0
C626 C 0.01734 0.30538 0.89138 0.0
C627 C 0.02011 0.31583 0.86084 0.0
N628 N 0.02065 0.33454 0.86931 0.0
C629 C 0.01785 0.32468 0.89978 0.0
C630 C 0.01835 0.30084 0.87175 0.0
C631 C 0.01953 0.33922 0.88837 0.0
C632 C 0.03805 0.32393 0.95001 0.0
N633 N 0.02096 0.31191 0.94679 0.0
C634 C 0.00907 0.33756 0.9634 0.0
C635 C 0.00662 0.3184 0.9534 0.0
C636 C 0.02642 0.35047 0.96642 0.0
C637 C 0.0411 0.34327 0.95988 0.0
H638 H 0.04921 0.31885 0.94413 0.0
H639 H 0.99304 0.30916 0.95011 0.0
C640 C 0.95912 0.25079 0.87602 0.0
N641 N 0.97236 0.26736 0.88342 0.0
C642 C 0.94282 0.25186 0.86526 0.0
C643 C 0.95385 0.28692 0.86965 0.0
C644 C 0.96978 0.28522 0.88047 0.0
C645 C 0.9399 0.27014 0.86179 0.0
H646 H 0.9611 0.23666 0.87851 0.0
H647 H 0.97999 0.29839 0.88674 0.0
C648 C 0.05011 0.27895 0.94453 0.0
N649 N 0.07763 0.29335 0.97482 0.0
C650 C 0.06814 0.28541 0.94105 0.0
C651 C 0.04607 0.27977 0.96339 0.0
C652 C 0.08187 0.2926 0.95656 0.0
C653 C 0.06016 0.28717 0.97852 0.0
C654 C 0.01383 0.23323 0.88046 0.0
C655 C 0.02152 0.21787 0.88457 0.0
C656 C 0.00933 0.23497 0.86142 0.0
C657 C 0.02473 0.20449 0.86948 0.0
C658 C 0.01273 0.22126 0.84672 0.0
N659 N 0.0203 0.20644 0.85102 0.0
C660 C 1.00122 0.21463 0.94152 0.0
C661 C 0.03308 0.22453 0.94115 0.0
C662 C 1.00342 0.19848 0.95021 0.0
N663 N 0.01597 0.22732 0.93707 0.0
C664 C 0.03585 0.20851 0.94961 0.0
C665 C 0.02092 0.19518 0.95425 0.0
H666 H 0.98769 0.21693 0.93823 0.0
H667 H 0.0447 0.23467 0.9376 0.0
C668 C 0.06089 0.29329 0.88516 0.0
N669 N 0.05286 0.27502 0.8883 0.0
C670 C 0.07724 0.2966 0.87688 0.0
C671 C 0.07737 0.26248 0.87575 0.0
C672 C 0.06093 0.25977 0.88388 0.0
C673 C 0.08582 0.2811 0.87208 0.0
H674 H 0.05486 0.3055 0.88948 0.0
H675 H 0.05482 0.24551 0.88702 0.0
O676 O 0.99426 0.2651 0.92781 0.0
O677 O 0.01585 0.291 0.90235 0.0
O678 O 0.03652 0.27192 0.92951 0.0
O679 O 0.0103 0.24622 0.89504 0.0
H680 H 0.96363 0.27673 0.92218 0.0
H681 H 1.00057 0.26237 0.96438 0.0
H682 H 0.94476 0.28477 0.94774 0.0
H683 H 0.98123 0.27094 0.98926 0.0
H684 H 0.02105 0.31259 0.84565 0.0
H685 H 0.01687 0.32841 0.9149 0.0
H686 H 0.01796 0.28594 0.86508 0.0
H687 H 0.01994 0.35423 0.89468 0.0
H688 H 0.99726 0.34252 0.9678 0.0
H689 H 0.05475 0.35263 0.96192 0.0
H690 H 0.93269 0.2384 0.8595 0.0
H691 H 0.95235 0.30142 0.86784 0.0
H692 H 0.0715 0.28484 0.92652 0.0
H693 H 0.03219 0.2749 0.9663 0.0
H694 H 0.09589 0.2976 0.95409 0.0
H695 H 0.05722 0.28799 0.9932 0.0
H696 H 0.025 0.21632 0.89926 0.0
H697 H 1.00323 0.24673 0.85807 0.0
H698 H 0.03072 0.19255 0.87244 0.0
H699 H 0.00932 0.22237 0.83189 0.0
H700 H 0.99152 0.18849 0.95345 0.0
H701 H 0.04957 0.20656 0.9525 0.0
H702 H 0.08335 0.31131 0.87472 0.0
H703 H 0.08337 0.25003 0.8723 0.0
Li704 Li 0.43296 0.02909 0.30351 0.0
Li705 Li 0.40885 0.01214 0.27826 0.0
Li706 Li 0.43723 0.02864 0.27046 0.0
Li707 Li 0.41529 0.04658 0.28377 0.0
C708 C 0.44316 0.99475 0.28923 0.0
N709 N 0.4651 0.96959 0.29649 0.0
C710 C 0.43531 0.97532 0.29066 0.0
C711 C 0.46213 1.00143 0.29163 0.0
C712 C 0.44664 0.96282 0.29433 0.0
C713 C 0.473 0.98848 0.29526 0.0
C714 C 0.39263 0.02059 0.31085 0.0
C715 C 0.36288 0.01898 0.32103 0.0
N716 N 0.36437 1.00309 0.32914 0.0
C717 C 0.39381 1.00417 0.31913 0.0
C718 C 0.37704 0.02805 0.31172 0.0
C719 C 0.37941 0.99556 0.32838 0.0
C720 C 0.45764 0.04627 0.33569 0.0
N721 N 0.44565 0.02928 0.32717 0.0
C722 C 0.45488 0.01232 0.35134 0.0
C723 C 0.44406 0.01247 0.33458 0.0
C724 C 0.46753 0.02955 0.36019 0.0
C725 C 0.46893 0.04671 0.35235 0.0
H726 H 0.45865 0.05933 0.32934 0.0
H727 H 0.4348 0.99904 0.32724 0.0
C728 C 0.39939 0.9768 0.25649 0.0
N729 N 0.39227 0.98868 0.269 0.0
C730 C 0.38997 0.9576 0.24971 0.0
C731 C 0.36518 0.96403 0.26719 0.0
C732 C 0.37511 0.98318 0.27361 0.0
C733 C 0.37321 0.95098 0.25604 0.0
H734 H 0.41286 0.98199 0.25266 0.0
H735 H 0.3695 0.99325 0.28287 0.0
C736 C 0.45711 0.06474 0.28677 0.0
N737 N 0.48699 0.09038 0.27783 0.0
C738 C 0.45468 0.07996 0.27713 0.0
C739 C 0.47472 0.06259 0.29193 0.0
C740 C 0.46997 0.09279 0.27277 0.0
C741 C 0.48965 0.07566 0.28722 0.0
C742 C 0.40244 0.01862 0.24206 0.0
C743 C 0.41073 0.01409 0.22568 0.0
C744 C 0.38345 0.01229 0.24116 0.0
C745 C 0.40008 1.0029 0.209 0.0
C746 C 0.37327 1.00106 0.22425 0.0
N747 N 0.38173 0.99662 0.20865 0.0
C748 C 0.45223 1.00524 0.24663 0.0
C749 C 0.46117 0.0385 0.2425 0.0
C750 C 0.45978 0.99894 0.2306 0.0
N751 N 0.45296 0.02465 0.25227 0.0
C752 C 0.46854 0.03272 0.22589 0.0
C753 C 0.46742 0.01267 0.21982 0.0
H754 H 0.4444 0.99431 0.25344 0.0
H755 H 0.4607 0.05366 0.2466 0.0
C756 C 0.41076 0.08579 0.29281 0.0
N757 N 0.4042 0.06716 0.28307 0.0
C758 C 0.40174 0.10036 0.28932 0.0
C759 C 0.37924 0.07579 0.26676 0.0
C760 C 0.38856 0.06189 0.27075 0.0
C761 C 0.38614 0.0953 0.2757 0.0
H762 H 0.4232 0.08938 0.30272 0.0
H763 H 0.38357 0.04695 0.26369 0.0
O764 O 0.43231 1.00675 0.28416 0.0
O765 O 0.40675 0.02962 0.30222 0.0
O766 O 0.44235 0.0523 0.29153 0.0
O767 O 0.41284 0.02953 0.25861 0.0
H768 H 0.42063 0.9699 0.28883 0.0
H769 H 0.46838 0.01633 0.29025 0.0
H770 H 0.44077 0.94771 0.29536 0.0
H771 H 0.48771 0.9934 0.29696 0.0
H772 H 0.35072 0.02459 0.32184 0.0
H773 H 0.40553 0.99791 0.31811 0.0
H774 H 0.37592 0.04073 0.30531 0.0
H775 H 0.38015 0.98285 0.33487 0.0
H776 H 0.45372 0.99884 0.3571 0.0
H777 H 0.47863 0.06022 0.35905 0.0
H778 H 0.39649 0.94759 0.24138 0.0
H779 H 0.35227 0.95894 0.27244 0.0
H780 H 0.44114 0.08175 0.27293 0.0
H781 H 0.47685 0.05103 0.29959 0.0
H782 H 0.4683 0.10463 0.2653 0.0
H783 H 0.50336 0.07415 0.29108 0.0
H784 H 0.42521 0.01931 0.22564 0.0
H785 H 0.37659 0.01527 0.25358 0.0
H786 H 0.40641 0.99928 0.1963 0.0
H787 H 0.35866 0.99578 0.22358 0.0
H788 H 0.45826 0.98333 0.22576 0.0
H789 H 0.47409 0.0435 0.21735 0.0
H790 H 0.40722 0.1154 0.29651 0.0
H791 H 0.36698 0.07143 0.25649 0.0
Li792 Li 0.28556 0.20341 0.5172 0.0
Li793 Li 0.29917 0.17702 0.50122 0.0
Li794 Li 0.28502 0.19957 0.48114 0.0
Li795 Li 0.26385 0.17292 0.49739 0.0
C796 C 0.32071 0.22195 0.50857 0.0
N797 N 0.34931 0.25406 0.52257 0.0
C798 C 0.33576 0.21989 0.5203 0.0
C799 C 0.32031 0.24027 0.50376 0.0
C800 C 0.35006 0.23632 0.52728 0.0
C801 C 0.33486 0.25635 0.51106 0.0
C802 C 0.28429 0.1652 0.53453 0.0
C803 C 0.28046 0.13424 0.54561 0.0
N804 N 0.28905 0.14382 0.56318 0.0
C805 C 0.29313 0.17476 0.55266 0.0
C806 C 0.27796 0.14479 0.5309 0.0
C807 C 0.29541 0.16368 0.56696 0.0
C808 C 0.27042 0.21726 0.54973 0.0
N809 N 0.28637 0.22035 0.54193 0.0
C810 C 0.30178 0.24099 0.57143 0.0
C811 C 0.30187 0.23224 0.55233 0.0
C812 C 0.28558 0.23749 0.58004 0.0
C813 C 0.26967 0.22583 0.56863 0.0
H814 H 0.25834 0.2074 0.5415 0.0
H815 H 0.31456 0.23428 0.54625 0.0
C816 C 0.32495 0.15425 0.48805 0.0
N817 N 0.31946 0.16366 0.50386 0.0
C818 C 0.33987 0.1455 0.48976 0.0
C819 C 0.34364 0.15648 0.52395 0.0
C820 C 0.32854 0.16485 0.52161 0.0
C821 C 0.34957 0.14657 0.50791 0.0
H822 H 0.3179 0.15372 0.474 0.0
H823 H 0.32431 0.17264 0.53403 0.0
C824 C 0.25549 0.21566 0.50206 0.0
N825 N 0.2375 0.2447 0.51294 0.0
C826 C 0.23747 0.21062 0.50598 0.0
C827 C 0.26438 0.2354 0.50361 0.0
C828 C 0.22859 0.22554 0.51144 0.0
C829 C 0.25506 0.24988 0.5092 0.0
C830 C 0.2775 0.15426 0.46248 0.0
C831 C 0.27348 0.15703 0.44368 0.0
C832 C 0.27842 0.13564 0.46611 0.0
C833 C 0.27052 0.14104 0.4287 0.0
C834 C 0.27543 0.12003 0.45072 0.0
N835 N 0.27158 0.12303 0.4325 0.0
C836 C 0.3035 0.21587 0.45097 0.0
C837 C 0.27228 0.21629 0.44864 0.0
C838 C 0.3054 0.22401 0.43416 0.0
N839 N 0.2871 0.21204 0.4579 0.0
C840 C 0.27357 0.22445 0.43177 0.0
C841 C 0.2903 0.22837 0.42408 0.0
H842 H 0.31519 0.21249 0.45846 0.0
H843 H 0.25931 0.21312 0.45422 0.0
C844 C 0.2343 0.15098 0.51423 0.0
N845 N 0.23923 0.15529 0.49707 0.0
C846 C 0.21691 0.13941 0.51547 0.0
C847 C 0.20933 0.13738 0.48151 0.0
C848 C 0.22705 0.14866 0.48082 0.0
C849 C 0.20403 0.13253 0.49901 0.0
H850 H 0.24381 0.15676 0.52714 0.0
H851 H 0.23097 0.15235 0.46731 0.0
O852 O 0.30668 0.20599 0.50144 0.0
O853 O 0.28149 0.17582 0.5205 0.0
O854 O 0.26435 0.20128 0.49664 0.0
O855 O 0.28098 0.16986 0.4772 0.0
H856 H 0.33636 0.20581 0.52407 0.0
H857 H 0.30894 0.24202 0.49438 0.0
H858 H 0.36176 0.23496 0.53643 0.0
H859 H 0.3347 0.27064 0.50751 0.0
H860 H 0.27553 0.11843 0.54306 0.0
H861 H 0.29824 0.19054 0.55566 0.0
H862 H 0.27108 0.13722 0.51691 0.0
H863 H 0.30222 0.17087 0.58107 0.0
H864 H 0.31447 0.24963 0.57961 0.0
H865 H 0.25676 0.2229 0.57438 0.0
H866 H 0.34401 0.13832 0.4769 0.0
H867 H 0.3505 0.15764 0.53825 0.0
H868 H 0.23043 0.19536 0.5048 0.0
H869 H 0.27832 0.23947 0.50061 0.0
H870 H 0.21461 0.22189 0.51449 0.0
H871 H 0.26178 0.26525 0.51053 0.0
H872 H 0.27275 0.17139 0.44068 0.0
H873 H 0.28159 0.13335 0.48063 0.0
H874 H 0.26745 0.14295 0.41405 0.0
H875 H 0.27621 0.10554 0.45326 0.0
H876 H 0.31869 0.22699 0.42921 0.0
H877 H 0.26142 0.22724 0.4246 0.0
H878 H 0.21341 0.13627 0.52931 0.0
H879 H 0.19987 0.13239 0.46844 0.0
Li880 Li 0.17836 0.036 0.77301 0.0
Li881 Li 0.15105 0.01355 0.79063 0.0
Li882 Li 0.17476 0.99397 0.76965 0.0
Li883 Li 0.15022 0.01091 0.75128 0.0
C884 C 0.19253 0.02178 0.80905 0.0
N885 N 0.2187 0.03011 0.84063 0.0
C886 C 0.18895 0.03071 0.82674 0.0
C887 C 0.20938 0.0171 0.80734 0.0
C888 C 0.20237 0.03479 0.84256 0.0
C889 C 0.22245 0.02145 0.82349 0.0
C890 C 0.1376 0.04388 0.7708 0.0
C891 C 0.10615 0.04365 0.76146 0.0
N892 N 0.11041 0.06364 0.76548 0.0
C893 C 0.14165 0.06438 0.77503 0.0
C894 C 0.11971 0.03338 0.76412 0.0
C895 C 0.12772 0.07411 0.77218 0.0
C896 C 0.18696 0.07616 0.76097 0.0
N897 N 0.19426 0.0652 0.77255 0.0
C898 C 0.22062 0.09336 0.78201 0.0
C899 C 0.21101 0.07376 0.78295 0.0
C900 C 0.21321 0.10517 0.77048 0.0
C901 C 0.19593 0.09587 0.75992 0.0
H902 H 0.1739 0.06968 0.75238 0.0
H903 H 0.21713 0.06546 0.79218 0.0
C904 C 0.12827 0.99834 0.82316 0.0
N905 N 0.13688 0.01486 0.81664 0.0
C906 C 0.11951 0.99928 0.84034 0.0
C907 C 0.12803 0.03418 0.84465 0.0
C908 C 0.13658 0.03262 0.82739 0.0
C909 C 0.11914 0.01743 0.85194 0.0
H910 H 0.12818 0.98407 0.81512 0.0
H911 H 0.14313 0.04598 0.8227 0.0
C912 C 0.18432 0.01191 0.73339 0.0
N913 N 0.19815 0.00801 0.69875 0.0
C914 C 0.17585 0.99629 0.71867 0.0
C915 C 0.1998 0.02553 0.73057 0.0
C916 C 0.18302 0.99462 0.70121 0.0
C917 C 0.20663 0.02326 0.71296 0.0
C918 C 0.13191 0.97371 0.76051 0.0
C919 C 0.13475 0.9578 0.74792 0.0
C920 C 0.11433 0.97399 0.76492 0.0
C921 C 0.11986 0.94233 0.73992 0.0
C922 C 0.0998 0.95826 0.75658 0.0
N923 N 0.10284 0.94289 0.74437 0.0
C924 C 0.19146 0.96009 0.78417 0.0
C925 C 0.1945 0.96078 0.7519 0.0
C926 C 0.19999 0.9437 0.78368 0.0
N927 N 0.18864 0.96876 0.76843 0.0
C928 C 0.20312 0.94442 0.75085 0.0
C929 C 0.20629 0.93505 0.76685 0.0
H930 H 0.18702 0.96576 0.79748 0.0
H931 H 0.19254 0.96702 0.73911 0.0
C932 C 0.13435 0.02919 0.71949 0.0
N933 N 0.13498 0.01125 0.72422 0.0
C934 C 0.12538 0.03111 0.70159 0.0
C935 C 0.11773 0.99616 0.69266 0.0
C936 C 0.12665 0.99485 0.7109 0.0
C937 C 0.11683 0.01453 0.68742 0.0
H938 H 0.14107 0.04237 0.72957 0.0
H939 H 0.12703 0.9805 0.71417 0.0
O940 O 0.17944 0.01719 0.79354 0.0
O941 O 0.15113 0.03409 0.77284 0.0
O942 O 0.17761 0.01378 0.75058 0.0
O943 O 0.14633 0.98887 0.76862 0.0
H944 H 0.17594 0.03437 0.82824 0.0
H945 H 0.21227 0.0101 0.7937 0.0
H946 H 0.19979 0.04165 0.85638 0.0
H947 H 0.23556 0.01789 0.82243 0.0
H948 H 0.09226 0.03575 0.75613 0.0
H949 H 0.15539 0.07268 0.78049 0.0
H950 H 0.1164 0.0175 0.76073 0.0
H951 H 0.13066 0.08999 0.77529 0.0
H952 H 0.23373 0.09933 0.79066 0.0
H953 H 0.18935 0.10366 0.75052 0.0
H954 H 0.11331 0.98557 0.84457 0.0
H955 H 0.12834 0.04876 0.85208 0.0
H956 H 0.1639 0.98559 0.72074 0.0
H957 H 0.20652 0.03763 0.74192 0.0
H958 H 0.17658 0.98266 0.68963 0.0
H959 H 0.21867 0.03363 0.71059 0.0
H960 H 0.14832 0.9574 0.74442 0.0
H961 H 0.11197 0.98618 0.77473 0.0
H962 H 0.12184 0.92988 0.73019 0.0
H963 H 0.0861 0.95826 0.75984 0.0
H964 H 0.20139 0.93785 0.79676 0.0
H965 H 0.20737 0.93937 0.73725 0.0
H966 H 0.12562 0.04575 0.69876 0.0
H967 H 0.11141 0.98268 0.68279 0.0
Li968 Li 0.28891 0.93178 0.00638 0.0
Li969 Li 0.30815 0.91164 0.01968 0.0
Li970 Li 0.32136 0.94047 0.00735 0.0
Li971 Li 0.30483 0.91053 0.98489 0.0
C972 C 0.31375 0.95389 0.04362 0.0
N973 N 0.32861 0.98523 0.0729 0.0
C974 C 0.32015 0.95061 0.06162 0.0
C975 C 0.31459 0.97308 0.04059 0.0
C976 C 0.32768 0.96665 0.07621 0.0
C977 C 0.32226 0.98875 0.05556 0.0
C978 C 0.27384 0.88663 0.00546 0.0
C979 C 0.26461 0.8517 1.00443 0.0
N980 N 0.25033 0.85435 0.01406 0.0
C981 C 0.25907 0.88905 0.01527 0.0
C982 C 0.27663 0.86786 0.99988 0.0
C983 C 0.24734 0.87252 0.01952 0.0
C984 C 0.2581 0.94506 0.99452 0.0
N985 N 0.26897 0.94247 0.00967 0.0
C986 C 0.2533 0.959 0.03189 0.0
C987 C 0.26675 0.94895 0.02806 0.0
C988 C 0.24178 0.96199 0.01661 0.0
C989 C 0.24418 0.95472 0.99768 0.0
H990 H 0.26042 0.93983 0.98005 0.0
H991 H 0.27566 0.94662 0.03978 0.0
C992 C 0.33132 0.90301 0.04656 0.0
N993 N 0.31328 0.89876 0.03992 0.0
C994 C 0.33751 0.89482 0.06156 0.0
C995 C 0.30615 0.87997 0.06448 0.0
C996 C 0.30062 0.8876 0.04858 0.0
C997 C 0.3249 0.88348 0.07113 0.0
H998 H 0.34101 0.91303 0.04037 0.0
H999 H 0.28628 0.88519 0.04364 0.0
C1000 C 0.30883 0.95095 0.9731 0.0
N1001 N 0.32139 0.97688 0.94927 0.0
C1002 C 0.31988 0.94593 0.95933 0.0
C1003 C 0.30404 0.96903 0.9747 0.0
C1004 C 0.32611 0.95928 0.94741 0.0
C1005 C 0.31058 0.98198 0.96253 0.0
C1006 C 0.34066 0.90493 1.00346 0.0
C1007 C 0.35876 0.91459 1.00294 0.0
C1008 C 0.3365 0.88509 0.00527 0.0
C1009 C 0.37243 0.90425 1.00432 0.0
C1010 C 0.35055 0.87526 0.00655 0.0
N1011 N 0.36808 0.88497 0.00607 0.0
C1012 C 0.35285 0.9589 0.02912 0.0
C1013 C 0.34893 0.97373 1.00177 0.0
C1014 C 0.37055 0.97006 0.03394 0.0
N1015 N 0.34263 0.96051 0.01302 0.0
C1016 C 0.36687 0.98473 0.00565 0.0
C1017 C 0.3781 0.9821 0.02137 0.0
H1018 H 0.34766 0.94792 0.03753 0.0
H1019 H 0.34068 0.97487 0.98909 0.0
C1020 C 0.29027 0.89368 0.94647 0.0
N1021 N 0.30365 0.89458 0.96086 0.0
C1022 C 0.28952 0.88165 0.92878 0.0
C1023 C 0.31607 0.87159 0.94136 0.0
C1024 C 0.31654 0.88408 0.95845 0.0
C1025 C 0.30253 0.8703 0.92615 0.0
H1026 H 0.28029 0.90237 0.94873 0.0
H1027 H 0.32728 0.88526 0.96968 0.0
O1028 O 0.30683 0.93834 0.02903 0.0
O1029 O 0.28517 0.90256 1.00079 0.0
O1030 O 0.30256 0.93816 0.98488 0.0
O1031 O 0.32716 0.91498 1.00255 0.0
H1032 H 0.31938 0.93584 0.06428 0.0
H1033 H 0.30965 0.97583 0.02673 0.0
H1034 H 0.33279 0.96432 0.09017 0.0
H1035 H 0.32322 1.00371 0.05338 0.0
H1036 H 0.26659 0.83705 1.00025 0.0
H1037 H 0.25669 0.90352 0.01954 0.0
H1038 H 0.28794 0.86581 0.9921 0.0
H1039 H 0.23585 0.87414 0.02712 0.0
H1040 H 0.2522 0.96466 0.04666 0.0
H1041 H 0.23542 0.95645 0.98549 0.0
H1042 H 0.35208 0.89773 0.06564 0.0
H1043 H 0.29575 0.87193 0.07169 0.0
H1044 H 0.32374 0.932 0.95798 0.0
H1045 H 0.29548 0.97305 0.98532 0.0
H1046 H 0.33475 0.95568 0.93673 0.0
H1047 H 0.3071 0.99609 0.96367 0.0
H1048 H 0.36223 0.92989 1.00143 0.0
H1049 H 0.32254 0.87739 0.00564 0.0
H1050 H 0.38651 0.91155 1.00397 0.0
H1051 H 0.34752 0.85993 0.00794 0.0
H1052 H 0.37872 0.96794 0.0464 0.0
H1053 H 0.37224 0.9938 0.99553 0.0
H1054 H 0.27901 0.8814 0.91732 0.0
H1055 H 0.32619 0.86292 0.94025 0.0
Li1056 Li 0.29123 0.39574 0.02862 0.0
Li1057 Li 0.30527 0.37316 0.048 0.0
Li1058 Li 0.32642 0.39951 0.03085 0.0
Li1059 Li 0.30415 0.36876 0.01141 0.0
C1060 C 0.30799 0.41747 0.06586 0.0
N1061 N 0.3027 0.44658 0.09376 0.0
C1062 C 0.29865 0.41248 0.08116 0.0
C1063 C 0.31472 0.43721 0.06473 0.0
C1064 C 0.29609 0.42743 0.09513 0.0
C1065 C 0.31188 0.45172 0.079 0.0
C1066 C 0.26878 0.35147 0.02185 0.0
C1067 C 0.25568 0.3168 0.01157 0.0
N1068 N 0.23875 0.32046 0.00979 0.0
C1069 C 0.25127 0.3549 0.01989 0.0
C1070 C 0.27104 0.33229 0.01768 0.0
C1071 C 0.23625 0.33902 0.0138 0.0
C1072 C 0.26175 0.40685 0.00776 0.0
N1073 N 0.27091 0.40905 0.02566 0.0
C1074 C 0.25065 0.42812 0.03856 0.0
C1075 C 0.26549 0.41939 0.04096 0.0
C1076 C 0.24098 0.42624 0.02023 0.0
C1077 C 0.2468 0.41532 1.00471 0.0
H1078 H 0.26601 0.39838 0.99575 0.0
H1079 H 0.27249 0.42074 0.05515 0.0
C1080 C 0.31888 0.36072 0.08299 0.0
N1081 N 0.30345 0.36062 0.07147 0.0
C1082 C 0.31789 0.35286 0.10007 0.0
C1083 C 0.28515 0.34468 0.09336 0.0
C1084 C 0.28676 0.35263 0.07637 0.0
C1085 C 0.30083 0.34476 0.10575 0.0
H1086 H 0.33207 0.36705 0.07901 0.0
H1087 H 0.27457 0.35271 0.06723 0.0
C1088 C 0.3081 0.40775 0.9945 0.0
N1089 N 0.30782 0.43027 0.96606 0.0
C1090 C 0.31055 0.40014 0.97585 0.0
C1091 C 0.30566 0.42684 0.99876 0.0
C1092 C 0.31036 0.41176 0.96167 0.0
C1093 C 0.30549 0.43798 0.98415 0.0
C1094 C 0.33509 0.35685 0.02808 0.0
C1095 C 0.35236 0.36165 0.02212 0.0
C1096 C 0.32758 0.33758 0.03022 0.0
C1097 C 0.36173 0.34688 0.01799 0.0
C1098 C 0.33736 0.32323 0.02593 0.0
N1099 N 0.35408 0.32813 0.01992 0.0
C1100 C 0.36231 0.42591 0.04705 0.0
C1101 C 0.35677 0.4193 0.01323 0.0
C1102 C 0.37995 0.43742 0.04641 0.0
N1103 N 0.35103 0.41703 0.03059 0.0
C1104 C 0.37423 0.43075 0.01195 0.0
C1105 C 0.3863 0.44004 0.02867 0.0
H1106 H 0.35771 0.42397 0.06077 0.0
H1107 H 0.34788 0.41197 1.00023 0.0
C1108 C 0.28534 0.34788 0.97439 0.0
N1109 N 0.3013 0.35154 0.98631 0.0
C1110 C 0.28411 0.339 0.95507 0.0
C1111 C 0.31551 0.33719 0.96068 0.0
C1112 C 0.31615 0.34612 0.97978 0.0
C1113 C 0.29949 0.33394 0.94781 0.0
H1114 H 0.27379 0.35277 0.97958 0.0
H1115 H 0.32888 0.34959 0.98903 0.0
O1116 O 0.3107 0.40308 0.05215 0.0
O1117 O 0.2836 0.36687 0.02781 0.0
O1118 O 0.30772 0.3964 0.00843 0.0
O1119 O 0.32557 0.37099 0.03172 0.0
H1120 H 0.29335 0.39724 0.08218 0.0
H1121 H 0.32203 0.44123 0.05296 0.0
H1122 H 0.28883 0.42381 0.10704 0.0
H1123 H 0.31699 0.46708 0.07834 0.0
H1124 H 0.25722 0.30188 0.00822 0.0
H1125 H 0.24928 0.36965 0.02315 0.0
H1126 H 0.2845 0.32941 0.01897 0.0
H1127 H 0.22261 0.34145 0.01228 0.0
H1128 H 0.2466 0.43597 0.05111 0.0
H1129 H 0.24001 0.41348 0.99027 0.0
H1130 H 0.33049 0.35306 0.10864 0.0
H1131 H 0.27162 0.33896 0.09691 0.0
H1132 H 0.31262 0.38546 0.97235 0.0
H1133 H 0.30375 0.43289 0.01315 0.0
H1134 H 0.31221 0.40606 0.94716 0.0
H1135 H 0.30348 0.45274 0.98718 0.0
H1136 H 0.35834 0.37656 0.02046 0.0
H1137 H 0.31434 0.33377 0.03513 0.0
H1138 H 0.37504 0.35031 0.01319 0.0
H1139 H 0.33168 0.3082 0.02738 0.0
H1140 H 0.38847 0.44435 0.05978 0.0
H1141 H 0.37834 0.4319 0.99788 0.0
H1142 H 0.27151 0.33704 0.94572 0.0
H1143 H 0.32768 0.33337 0.95592 0.0
Li1144 Li 0.78333 0.1594 0.04294 0.0
Li1145 Li 0.79859 0.13829 0.02062 0.0
Li1146 Li 0.78086 0.1601 0.00883 0.0
Li1147 Li 0.76633 0.13065 0.01961 0.0
C1148 C 0.81594 0.18417 0.02641 0.0
N1149 N 0.84146 0.21798 0.02426 0.0
C1150 C 0.83223 0.18295 0.019 0.0
C1151 C 0.81276 0.20258 0.03303 0.0
C1152 C 0.84495 0.2002 0.018 0.0
C1153 C 0.82576 0.2195 0.03168 0.0
C1154 C 0.776 0.11696 0.05085 0.0
C1155 C 0.76394 0.08265 0.0514 0.0
N1156 N 0.75749 0.08765 0.06827 0.0
C1157 C 0.76935 0.12177 0.06823 0.0
C1158 C 0.77346 0.09726 0.04244 0.0
C1159 C 0.76002 0.10673 0.07681 0.0
C1160 C 0.76827 0.17841 0.07216 0.0
N1161 N 0.78413 0.17457 0.06695 0.0
C1162 C 0.80082 0.194 0.09595 0.0
C1163 C 0.80022 0.18187 0.07842 0.0
C1164 C 0.78475 0.19902 0.10139 0.0
C1165 C 0.76831 0.19096 0.08919 0.0
H1166 H 0.75559 0.17194 0.06296 0.0
H1167 H 0.81256 0.17832 0.07389 0.0
C1168 C 0.8254 0.12879 1.00008 0.0
N1169 N 0.81821 0.12735 0.01678 0.0
C1170 C 0.83922 0.11946 0.99567 0.0
C1171 C 0.83769 0.10719 0.02569 0.0
C1172 C 0.8239 0.11682 0.02953 0.0
C1173 C 0.84548 0.10851 0.00857 0.0
H1174 H 0.82014 0.13695 0.9901 0.0
H1175 H 0.81755 0.11573 0.0425 0.0
C1176 C 0.74918 0.16825 0.0239 0.0
N1177 N 0.72483 0.19186 0.02068 0.0
C1178 C 0.73075 0.15984 0.01733 0.0
C1179 C 0.75521 0.18866 0.0288 0.0
C1180 C 0.71866 0.17203 0.01579 0.0
C1181 C 0.74269 0.20035 0.02711 0.0
C1182 C 0.77748 0.11872 0.98232 0.0
C1183 C 0.76899 0.12149 0.96502 0.0
C1184 C 0.78285 0.10118 0.98331 0.0
C1185 C 0.76582 0.10657 0.94899 0.0
C1186 C 0.77942 0.08659 0.96696 0.0
N1187 N 0.77104 0.08956 0.95029 0.0
C1188 C 0.79167 0.18669 0.98327 0.0
C1189 C 0.76025 0.17114 0.98143 0.0
C1190 C 0.78797 0.19586 0.96786 0.0
N1191 N 0.77777 0.17479 0.98978 0.0
C1192 C 0.7559 0.18026 0.96637 0.0
C1193 C 0.76987 0.19265 0.95946 0.0
H1194 H 0.80557 0.18866 0.98962 0.0
H1195 H 0.74973 0.16051 0.98596 0.0
C1196 C 0.73453 0.11299 0.03052 0.0
N1197 N 0.74508 0.11066 0.01629 0.0
C1198 C 0.718 0.09972 0.03 0.0
C1199 C 0.72349 0.08176 1.00016 0.0
C1200 C 0.73997 0.09543 1.00128 0.0
C1201 C 0.71227 0.08397 0.01458 0.0
H1202 H 0.73884 0.12549 0.04206 0.0
H1203 H 0.74834 0.09395 0.98998 0.0
O1204 O 0.80347 0.1674 0.02767 0.0
O1205 O 0.78496 0.13149 0.04215 0.0
O1206 O 0.76119 0.15649 0.02545 0.0
O1207 O 0.78064 0.13321 0.99812 0.0
H1208 H 0.83509 0.16885 0.01415 0.0
H1209 H 0.80045 0.20381 0.03923 0.0
H1210 H 0.85761 0.19946 0.01229 0.0
H1211 H 0.82342 0.23386 0.03662 0.0
H1212 H 0.76167 0.06734 0.04495 0.0
H1213 H 0.7713 0.13694 0.07498 0.0
H1214 H 0.77854 0.09334 0.02898 0.0
H1215 H 0.75476 0.11023 0.09025 0.0
H1216 H 0.81373 0.19932 0.10508 0.0
H1217 H 0.7556 0.19449 0.0925 0.0
H1218 H 0.84476 0.12052 0.98223 0.0
H1219 H 0.8423 0.09895 0.036 0.0
H1220 H 0.72586 0.14408 0.01327 0.0
H1221 H 0.76937 0.19539 0.03393 0.0
H1222 H 0.70438 0.16572 0.01068 0.0
H1223 H 0.74718 0.21617 0.0309 0.0
H1224 H 0.76484 0.13499 0.96394 0.0
H1225 H 0.78929 0.0987 0.99662 0.0
H1226 H 0.75922 0.1085 0.93552 0.0
H1227 H 0.78335 0.07288 0.96754 0.0
H1228 H 0.79902 0.20521 0.9625 0.0
H1229 H 0.74187 0.17713 0.95974 0.0
H1230 H 0.70946 0.1023 0.04111 0.0
H1231 H 0.71938 0.06987 0.98797 0.0
Li1232 Li 0.17315 0.56309 0.25329 0.0
Li1233 Li 0.14607 0.53975 0.25775 0.0
Li1234 Li 0.17139 0.52811 0.24702 0.0
Li1235 Li 0.15156 0.54226 0.22618 0.0
C1236 C 0.18452 0.5487 0.28629 0.0
N1237 N 0.21261 0.55878 0.31624 0.0
C1238 C 0.1809 0.55353 0.30515 0.0
C1239 C 0.2024 0.54885 0.28271 0.0
C1240 C 0.19529 0.55861 0.32009 0.0
C1241 C 0.21642 0.55403 0.29803 0.0
C1242 C 0.13768 0.57652 0.24492 0.0
C1243 C 0.11096 0.58603 0.23226 0.0
N1244 N 0.11761 0.60446 0.24254 0.0
C1245 C 0.14424 0.59552 0.25539 0.0
C1246 C 0.12091 0.57169 0.23326 0.0
C1247 C 0.13389 0.60945 0.25399 0.0
C1248 C 0.19565 0.5962 0.24659 0.0
N1249 N 0.1893 0.58733 0.26106 0.0
C1250 C 0.21172 0.60978 0.28421 0.0
C1251 C 0.19624 0.59443 0.27971 0.0
C1252 C 0.21968 0.61781 0.26929 0.0
C1253 C 0.21108 0.61153 0.25038 0.0
H1254 H 0.1893 0.59062 0.23198 0.0
H1255 H 0.19025 0.58778 0.29102 0.0
C1256 C 0.13409 0.52718 0.28912 0.0
N1257 N 0.12919 0.53635 0.27477 0.0
C1258 C 0.12765 0.5307 0.30664 0.0
C1259 C 0.10934 0.55074 0.29316 0.0
C1260 C 0.11629 0.54696 0.27591 0.0
C1261 C 0.11608 0.54358 0.30892 0.0
H1262 H 0.1446 0.51906 0.28765 0.0
H1263 H 0.11276 0.55405 0.26421 0.0
C1264 C 0.19245 0.55207 0.2196 0.0
N1265 N 0.22064 0.56286 0.1983 0.0
C1266 C 0.18896 0.55001 0.19967 0.0
C1267 C 0.21033 0.55949 0.22868 0.0
C1268 C 0.20338 0.55555 0.18916 0.0
C1269 C 0.22438 0.56492 0.21768 0.0
C1270 C 0.12995 0.50499 0.24008 0.0
C1271 C 0.13139 0.48835 0.24787 0.0
C1272 C 0.1128 0.50882 0.23602 0.0
C1273 C 0.11563 0.47594 0.25179 0.0
C1274 C 0.09736 0.49609 0.24022 0.0
N1275 N 0.09908 0.48005 0.24796 0.0
C1276 C 0.18217 0.50005 0.26366 0.0
C1277 C 0.1982 0.5079 0.23747 0.0
C1278 C 0.19251 0.48675 0.26713 0.0
N1279 N 0.18512 0.51006 0.24897 0.0
C1280 C 0.20912 0.49499 0.24066 0.0
C1281 C 0.20611 0.48427 0.25556 0.0
H1282 H 0.17191 0.50262 0.27275 0.0
H1283 H 0.20024 0.51628 0.22603 0.0
C1284 C 0.14141 0.55854 0.19539 0.0
N1285 N 0.14088 0.54149 0.20204 0.0
C1286 C 0.13167 0.55822 0.17781 0.0
C1287 C 0.12184 0.52273 0.17423 0.0
C1288 C 0.13164 0.52377 0.19192 0.0
C1289 C 0.12164 0.54015 0.16724 0.0
H1290 H 0.14899 0.57234 0.204 0.0
H1291 H 0.13155 0.51056 0.19784 0.0
O1292 O 0.17063 0.54442 0.27149 0.0
O1293 O 0.14794 0.56294 0.2457 0.0
O1294 O 0.17832 0.54724 0.23008 0.0
O1295 O 0.14525 0.51743 0.23635 0.0
H1296 H 0.16719 0.55377 0.30819 0.0
H1297 H 0.20545 0.54509 0.26828 0.0
H1298 H 0.19269 0.56254 0.33472 0.0
H1299 H 0.23034 0.5543 0.29543 0.0
H1300 H 0.09796 0.58252 0.22329 0.0
H1301 H 0.15719 0.59949 0.26448 0.0
H1302 H 0.11563 0.55703 0.22509 0.0
H1303 H 0.13882 0.62424 0.26198 0.0
H1304 H 0.21776 0.61482 0.29902 0.0
H1305 H 0.21645 0.61812 0.23864 0.0
H1306 H 0.13302 0.52509 0.31874 0.0
H1307 H 0.10042 0.56079 0.29473 0.0
H1308 H 0.17526 0.54419 0.19235 0.0
H1309 H 0.21332 0.56149 0.24409 0.0
H1310 H 0.20085 0.55407 0.17373 0.0
H1311 H 0.23824 0.57088 0.22455 0.0
H1312 H 0.14451 0.48499 0.25078 0.0
H1313 H 0.11148 0.52164 0.22993 0.0
H1314 H 0.11655 0.46302 0.25787 0.0
H1315 H 0.084 0.49896 0.23734 0.0
H1316 H 0.19011 0.47869 0.27882 0.0
H1317 H 0.2196 0.49319 0.23155 0.0
H1318 H 0.13177 0.57187 0.17264 0.0
H1319 H 0.11404 0.50861 0.1664 0.0
Li1320 Li 0.79171 0.89517 0.52802 0.0
Li1321 Li 0.806 0.87271 0.54712 0.0
Li1322 Li 0.82697 0.89933 0.5301 0.0
Li1323 Li 0.80463 0.8685 0.51066 0.0
C1324 C 0.80796 0.91658 0.56527 0.0
N1325 N 0.80157 0.94483 0.59335 0.0
C1326 C 0.79851 0.911 0.58032 0.0
C1327 C 0.81423 0.93647 0.56448 0.0
C1328 C 0.7954 0.92552 0.59438 0.0
C1329 C 0.81083 0.95055 0.57883 0.0
C1330 C 0.76931 0.85102 0.52175 0.0
C1331 C 0.75591 0.81638 0.51167 0.0
N1332 N 0.739 0.82011 0.51091 0.0
C1333 C 0.75181 0.85452 0.52082 0.0
C1334 C 0.77141 0.83181 0.51714 0.0
C1335 C 0.73665 0.83869 0.51534 0.0
C1336 C 0.76224 0.90634 0.50721 0.0
N1337 N 0.77105 0.90808 0.5252 0.0
C1338 C 0.74975 0.92563 0.53826 0.0
C1339 C 0.76496 0.91745 0.54061 0.0
C1340 C 0.74042 0.92417 0.51985 0.0
C1341 C 0.74698 0.91435 0.5042 0.0
H1342 H 0.7669 0.89847 0.49511 0.0
H1343 H 0.77173 0.91848 0.55485 0.0
C1344 C 0.81816 0.8668 0.5854 0.0
N1345 N 0.80452 0.86012 0.57046 0.0
C1346 C 0.8172 0.85917 0.60256 0.0
C1347 C 0.78829 0.83755 0.58886 0.0
C1348 C 0.78977 0.84565 0.57195 0.0
C1349 C 0.80204 0.84438 0.60468 0.0
H1350 H 0.82978 0.87832 0.58411 0.0
H1351 H 0.77891 0.84054 0.56013 0.0
C1352 C 0.80735 0.90747 0.49388 0.0
N1353 N 0.8052 0.93018 0.46584 0.0
C1354 C 0.80824 0.89978 0.47479 0.0
C1355 C 0.80549 0.92672 0.49878 0.0
C1356 C 0.80713 0.9115 0.46081 0.0
C1357 C 0.80436 0.93796 0.48436 0.0
C1358 C 0.83553 0.85653 0.52625 0.0
C1359 C 0.85262 0.86139 0.5199 0.0
C1360 C 0.82792 0.83711 0.52786 0.0
C1361 C 0.8617 0.84655 0.51486 0.0
C1362 C 0.83741 0.82269 0.52263 0.0
N1363 N 0.85395 0.82766 0.51627 0.0
C1364 C 0.86513 0.91943 0.54507 0.0
C1365 C 0.85536 0.92566 0.51465 0.0
C1366 C 0.88286 0.93081 0.54463 0.0
N1367 N 0.85167 0.91698 0.5302 0.0
C1368 C 0.87285 0.93719 0.51366 0.0
C1369 C 0.88711 0.93996 0.52873 0.0
H1370 H 0.86219 0.91236 0.55728 0.0
H1371 H 0.84481 0.92341 0.50273 0.0
C1372 C 0.78481 0.84697 0.47463 0.0
N1373 N 0.8013 0.85118 0.48569 0.0
C1374 C 0.78272 0.83763 0.4554 0.0
C1375 C 0.81442 0.83655 0.45928 0.0
C1376 C 0.81594 0.84603 0.47833 0.0
C1377 C 0.79774 0.83255 0.44734 0.0
H1378 H 0.77343 0.85164 0.48046 0.0
H1379 H 0.82911 0.85014 0.48685 0.0
O1380 O 0.81125 0.90261 0.55148 0.0
O1381 O 0.78426 0.86637 0.52712 0.0
O1382 O 0.80821 0.89615 0.50771 0.0
O1383 O 0.82626 0.87074 0.53077 0.0
H1384 H 0.79352 0.89563 0.58105 0.0
H1385 H 0.82161 0.94095 0.5529 0.0
H1386 H 0.78806 0.92145 0.6061 0.0
H1387 H 0.81558 0.96602 0.57843 0.0
H1388 H 0.75733 0.80144 0.50802 0.0
H1389 H 0.74994 0.8693 0.52441 0.0
H1390 H 0.78485 0.82886 0.51762 0.0
H1391 H 0.72302 0.84118 0.51462 0.0
H1392 H 0.74545 0.93319 0.55082 0.0
H1393 H 0.74019 0.91248 0.48975 0.0
H1394 H 0.82833 0.86483 0.61408 0.0
H1395 H 0.7762 0.82638 0.58966 0.0
H1396 H 0.80987 0.88498 0.47079 0.0
H1397 H 0.80482 0.93285 0.51353 0.0
H1398 H 0.8078 0.90574 0.44597 0.0
H1399 H 0.80281 0.95286 0.4879 0.0
H1400 H 0.85867 0.8764 0.51865 0.0
H1401 H 0.81483 0.83323 0.53305 0.0
H1402 H 0.87488 0.85003 0.50975 0.0
H1403 H 0.83164 0.80755 0.52364 0.0
H1404 H 0.89312 0.93252 0.55678 0.0
H1405 H 0.87524 0.9435 0.5009 0.0
H1406 H 0.76955 0.8348 0.44682 0.0
H1407 H 0.82649 0.83332 0.45369 0.0
Li1408 Li 0.94039 0.06017 0.27783 0.0
Li1409 Li 0.91176 0.03584 0.25646 0.0
Li1410 Li 0.93877 0.05819 0.2382 0.0
Li1411 Li 0.91509 0.07712 0.25893 0.0
C1412 C 0.95246 0.02778 0.25924 0.0
N1413 N 0.97989 0.00888 0.26669 0.0
C1414 C 0.94862 0.01025 0.26645 0.0
C1415 C 0.97021 0.03569 0.25575 0.0
C1416 C 0.96269 1.00092 0.27014 0.0
C1417 C 0.9839 0.02592 0.25964 0.0
C1418 C 0.90149 0.05609 0.29265 0.0
C1419 C 0.87322 0.05946 0.30439 0.0
N1420 N 0.87843 0.05303 0.32063 0.0
C1421 C 0.9065 0.0494 0.30937 0.0
C1422 C 0.88467 0.06103 0.29004 0.0
C1423 C 0.89467 0.04797 0.32336 0.0
C1424 C 0.96808 0.07588 0.31576 0.0
N1425 N 0.95623 0.05987 0.30449 0.0
C1426 C 0.96236 0.04063 0.32919 0.0
C1427 C 0.95369 0.04237 0.31112 0.0
C1428 C 0.97448 0.05687 0.34126 0.0
C1429 C 0.97734 0.07466 0.33385 0.0
H1430 H 0.97031 0.0899 0.31096 0.0
H1431 H 0.94436 0.02955 0.30262 0.0
C1432 C 0.89992 0.99072 0.24593 0.0
N1433 N 0.89558 1.00669 0.2563 0.0
C1434 C 0.89073 0.97099 0.24669 0.0
C1435 C 0.87212 0.98356 0.26851 0.0
C1436 C 0.88175 1.00308 0.26748 0.0
C1437 C 0.87643 0.96672 0.25816 0.0
H1438 H 0.91088 0.99313 0.23713 0.0
H1439 H 0.8782 0.01536 0.27602 0.0
C1440 C 0.9581 0.09821 0.26491 0.0
N1441 N 0.98731 0.13048 0.27407 0.0
C1442 C 0.95542 0.11704 0.26443 0.0
C1443 C 0.9756 0.09576 0.27008 0.0
C1444 C 0.97038 0.13318 0.26908 0.0
C1445 C 0.9902 0.11227 0.27467 0.0
C1446 C 0.8974 0.05315 0.22057 0.0
C1447 C 0.9025 0.06134 0.20462 0.0
C1448 C 0.8791 0.04442 0.22127 0.0
C1449 C 0.88914 0.06058 0.18948 0.0
C1450 C 0.86614 0.04399 0.20585 0.0
N1451 N 0.87138 0.05199 0.1904 0.0
C1452 C 0.95927 0.041 0.20522 0.0
C1453 C 0.95528 0.07213 0.20169 0.0
C1454 C 0.96795 0.03958 0.18803 0.0
N1455 N 0.95286 0.05711 0.21212 0.0
C1456 C 0.96371 0.07119 0.18432 0.0
C1457 C 0.97039 0.05469 0.17673 0.0
H1458 H 0.95758 0.02881 0.21295 0.0
H1459 H 0.95053 0.08513 0.20666 0.0
C1460 C 0.89472 0.10972 0.27664 0.0
N1461 N 0.90117 0.10231 0.26025 0.0
C1462 C 0.88585 0.12587 0.27773 0.0
C1463 C 0.8902 0.12778 0.24533 0.0
C1464 C 0.89886 0.11148 0.24475 0.0
C1465 C 0.8832 0.13568 0.26198 0.0
H1466 H 0.89645 0.10325 0.28931 0.0
H1467 H 0.90377 0.10625 0.23156 0.0
O1468 O 0.93895 0.03723 0.25563 0.0
O1469 O 0.91319 0.05839 0.27914 0.0
O1470 O 0.94357 0.08232 0.26072 0.0
O1471 O 0.9103 0.05362 0.23541 0.0
H1472 H 0.93497 1.00404 0.26936 0.0
H1473 H 0.97334 0.04921 0.25006 0.0
H1474 H 0.95994 0.98736 0.27578 0.0
H1475 H 0.99772 0.03188 0.25703 0.0
H1476 H 0.86021 0.06338 0.30264 0.0
H1477 H 0.91937 0.04545 0.31161 0.0
H1478 H 0.88056 0.06615 0.27711 0.0
H1479 H 0.89845 0.0429 0.33642 0.0
H1480 H 0.95957 0.02641 0.3336 0.0
H1481 H 0.98635 0.08783 0.34223 0.0
H1482 H 0.89486 0.95913 0.23809 0.0
H1483 H 0.86157 0.98179 0.27786 0.0
H1484 H 0.94192 0.11915 0.26054 0.0
H1485 H 0.97784 0.08129 0.27076 0.0
H1486 H 0.96852 0.14785 0.26877 0.0
H1487 H 1.00382 0.11062 0.27876 0.0
H1488 H 0.91661 0.0682 0.20396 0.0
H1489 H 0.87499 0.03805 0.23358 0.0
H1490 H 0.89289 0.06682 0.17701 0.0
H1491 H 0.8519 0.03728 0.20615 0.0
H1492 H 0.97239 0.02628 0.18348 0.0
H1493 H 0.96513 0.08367 0.17701 0.0
H1494 H 0.88135 0.13078 0.29125 0.0
H1495 H 0.88884 0.13393 0.2324 0.0
Li1496 Li 0.28365 0.65798 0.5446 0.0
Li1497 Li 0.3003 0.63725 0.52367 0.0
Li1498 Li 0.28211 0.65826 0.51071 0.0
Li1499 Li 0.26758 0.62847 0.52095 0.0
C1500 C 0.31674 0.68301 0.52908 0.0
N1501 N 0.34207 0.71684 0.5266 0.0
C1502 C 0.33372 0.68188 0.52332 0.0
C1503 C 0.31276 0.70136 0.53387 0.0
C1504 C 0.34633 0.69915 0.52212 0.0
C1505 C 0.32569 0.71828 0.53239 0.0
C1506 C 0.28314 0.61643 0.55532 0.0
C1507 C 0.28286 0.58353 0.56045 0.0
N1508 N 0.27828 0.58815 0.57837 0.0
C1509 C 0.27845 0.62089 0.57377 0.0
C1510 C 0.28541 0.59764 0.54857 0.0
C1511 C 0.27607 0.60638 0.58522 0.0
C1512 C 0.26776 0.67544 0.57411 0.0
N1513 N 0.2839 0.67335 0.56818 0.0
C1514 C 0.30061 0.69583 0.59548 0.0
C1515 C 0.30016 0.68307 0.57843 0.0
C1516 C 0.28415 0.69879 0.60175 0.0
C1517 C 0.26756 0.68834 0.59084 0.0
H1518 H 0.25506 0.66733 0.56565 0.0
H1519 H 0.31273 0.68101 0.57322 0.0
C1520 C 0.32681 0.62692 0.50373 0.0
N1521 N 0.32035 0.62688 0.52092 0.0
C1522 C 0.34085 0.61777 0.49975 0.0
C1523 C 0.34088 0.60842 0.53117 0.0
C1524 C 0.32715 0.61819 0.5347 0.0
C1525 C 0.34789 0.60812 0.51348 0.0
H1526 H 0.32091 0.63395 0.49309 0.0
H1527 H 0.32162 0.61847 0.54822 0.0
C1528 C 0.24934 0.66553 0.52573 0.0
N1529 N 0.22436 0.68856 0.52342 0.0
C1530 C 0.23087 0.65679 0.51972 0.0
C1531 C 0.25505 0.68596 0.53074 0.0
C1532 C 0.21847 0.66869 0.51857 0.0
C1533 C 0.24223 0.69735 0.52946 0.0
C1534 C 0.27603 0.617 0.48482 0.0
C1535 C 0.26843 0.62149 0.46788 0.0
C1536 C 0.276 0.5975 0.48607 0.0
C1537 C 0.26056 0.6063 0.45256 0.0
C1538 C 0.26798 0.58271 0.47042 0.0
N1539 N 0.26046 0.58738 0.45415 0.0
C1540 C 0.29549 0.68304 0.48548 0.0
C1541 C 0.26327 0.67399 0.48469 0.0
C1542 C 0.29383 0.694 0.47107 0.0
N1543 N 0.28031 0.67367 0.49216 0.0
C1544 C 0.26097 0.68493 0.47051 0.0
C1545 C 0.27638 0.695 0.46362 0.0
H1546 H 0.3088 0.6816 0.49091 0.0
H1547 H 0.25143 0.66519 0.48918 0.0
C1548 C 0.24125 0.59661 0.52883 0.0
N1549 N 0.24662 0.60783 0.51553 0.0
C1550 C 0.22386 0.58446 0.52622 0.0
C1551 C 0.21817 0.59475 0.49575 0.0
C1552 C 0.23568 0.60677 0.49899 0.0
C1553 C 0.21192 0.58433 0.50999 0.0
H1554 H 0.24963 0.59829 0.54225 0.0
H1555 H 0.23985 0.61663 0.48918 0.0
O1556 O 0.30428 0.66621 0.53029 0.0
O1557 O 0.28537 0.63043 0.54394 0.0
O1558 O 0.26173 0.65407 0.52631 0.0
O1559 O 0.28334 0.63164 0.50012 0.0
H1560 H 0.33713 0.66783 0.5198 0.0
H1561 H 0.29987 0.70255 0.5387 0.0
H1562 H 0.35951 0.69848 0.51765 0.0
H1563 H 0.32273 0.73258 0.53591 0.0
H1564 H 0.28447 0.56889 0.55541 0.0
H1565 H 0.27663 0.63538 0.57916 0.0
H1566 H 0.28891 0.59397 0.53425 0.0
H1567 H 0.27243 0.6096 0.59954 0.0
H1568 H 0.3137 0.70321 0.60366 0.0
H1569 H 0.25456 0.69032 0.59497 0.0
H1570 H 0.34608 0.61825 0.48609 0.0
H1571 H 0.34567 0.60088 0.54204 0.0
H1572 H 0.22617 0.64101 0.51586 0.0
H1573 H 0.26922 0.69293 0.5355 0.0
H1574 H 0.20416 0.66213 0.51382 0.0
H1575 H 0.24649 0.71319 0.53325 0.0
H1576 H 0.26844 0.63652 0.46664 0.0
H1577 H 0.28189 0.59382 0.49907 0.0
H1578 H 0.25449 0.60954 0.43943 0.0
H1579 H 0.26768 0.56752 0.47124 0.0
H1580 H 0.30592 0.70134 0.4656 0.0
H1581 H 0.2473 0.68489 0.46444 0.0
H1582 H 0.21911 0.57695 0.53768 0.0
H1583 H 0.20897 0.59542 0.4834 0.0
Li1584 Li 0.41182 0.53631 0.7564 0.0
Li1585 Li 0.44014 0.56101 0.77801 0.0
Li1586 Li 0.41502 0.57772 0.75876 0.0
Li1587 Li 0.43895 0.55891 0.73841 0.0
C1588 C 0.40289 0.55812 0.79392 0.0
N1589 N 0.38321 0.55711 0.82481 0.0
C1590 C 0.40619 0.54677 0.8077 0.0
C1591 C 0.38951 0.56886 0.79576 0.0
C1592 C 0.39615 0.54651 0.82326 0.0
C1593 C 0.37969 0.56815 0.81148 0.0
C1594 C 0.45208 0.52809 0.75978 0.0
C1595 C 0.48338 0.52551 0.76145 0.0
N1596 N 0.47854 0.5081 0.76772 0.0
C1597 C 0.44737 0.51017 0.76616 0.0
C1598 C 0.47018 0.53583 0.75733 0.0
C1599 C 0.46097 0.50028 0.77012 0.0
C1600 C 0.39668 0.49172 0.74221 0.0
N1601 N 0.39578 0.50711 0.75606 0.0
C1602 C 0.37624 0.48321 0.77151 0.0
C1603 C 0.38555 0.50282 0.77052 0.0
C1604 C 0.37694 0.46689 0.75749 0.0
C1605 C 0.38748 0.4719 0.74261 0.0
H1606 H 0.40482 0.49466 0.73075 0.0
H1607 H 0.3847 0.5146 0.78173 0.0
C1608 C 0.4673 0.5771 0.81633 0.0
N1609 N 0.45574 0.56093 0.80496 0.0
C1610 C 0.47656 0.57603 0.83449 0.0
C1611 C 0.46207 0.54187 0.82976 0.0
C1612 C 0.45346 0.54345 0.81159 0.0
C1613 C 0.47394 0.55824 0.84189 0.0
H1614 H 0.46935 0.59112 0.81154 0.0
H1615 H 0.44458 0.53043 0.80291 0.0
C1616 C 0.39738 0.55326 0.72051 0.0
N1617 N 0.37094 0.55146 0.69055 0.0
C1618 C 0.40222 0.56095 0.70423 0.0
C1619 C 0.37914 0.54467 0.72163 0.0
C1620 C 0.38864 0.55988 0.6892 0.0
C1621 C 0.36595 0.54392 0.70632 0.0
C1622 C 0.45827 0.59878 0.76491 0.0
C1623 C 0.45615 0.61755 0.7631 0.0
C1624 C 0.47543 0.59617 0.77131 0.0
C1625 C 0.47129 0.63348 0.76779 0.0
C1626 C 0.49023 0.61248 0.77585 0.0
N1627 N 0.48788 0.63064 0.77402 0.0
C1628 C 0.40725 0.61982 0.77293 0.0
C1629 C 0.38527 0.6016 0.74787 0.0
C1630 C 0.39854 0.63607 0.77392 0.0
N1631 N 0.40083 0.60258 0.75996 0.0
C1632 C 0.37611 0.61749 0.74849 0.0
C1633 C 0.38244 0.63558 0.76163 0.0
H1634 H 0.41938 0.62124 0.78283 0.0
H1635 H 0.37969 0.58837 0.73742 0.0
C1636 C 0.46013 0.54201 0.70594 0.0
N1637 N 0.45317 0.55784 0.71244 0.0
C1638 C 0.46885 0.54057 0.68878 0.0
C1639 C 0.46354 0.57159 0.68431 0.0
C1640 C 0.45508 0.57257 0.70166 0.0
C1641 C 0.47076 0.55537 0.67711 0.0
H1642 H 0.45886 0.53006 0.71396 0.0
H1643 H 0.44989 0.58534 0.70634 0.0
O1644 O 0.41275 0.55891 0.77874 0.0
O1645 O 0.43904 0.53806 0.75595 0.0
O1646 O 0.41048 0.55412 0.7353 0.0
O1647 O 0.44351 0.58311 0.7609 0.0
H1648 H 0.41616 0.53803 0.80624 0.0
H1649 H 0.38673 0.57763 0.78515 0.0
H1650 H 0.39859 0.5378 0.83405 0.0
H1651 H 0.36928 0.57638 0.81309 0.0
H1652 H 0.49746 0.53133 0.75966 0.0
H1653 H 0.4334 0.50403 0.76814 0.0
H1654 H 0.47397 0.54964 0.75225 0.0
H1655 H 0.45755 0.48641 0.77512 0.0
H1656 H 0.36882 0.48098 0.78362 0.0
H1657 H 0.38868 0.4606 0.73107 0.0
H1658 H 0.48539 0.58929 0.84291 0.0
H1659 H 0.4595 0.52764 0.83418 0.0
H1660 H 0.41629 0.56768 0.70323 0.0
H1661 H 0.37524 0.53868 0.73421 0.0
H1662 H 0.39218 0.56574 0.67648 0.0
H1663 H 0.35175 0.53734 0.70696 0.0
H1664 H 0.44295 0.61978 0.75812 0.0
H1665 H 0.47723 0.58175 0.77297 0.0
H1666 H 0.46985 0.64811 0.76649 0.0
H1667 H 0.50359 0.61071 0.78091 0.0
H1668 H 0.40449 0.64896 0.78467 0.0
H1669 H 0.36409 0.61547 0.73828 0.0
H1670 H 0.47373 0.5275 0.68454 0.0
H1671 H 0.46454 0.58384 0.67672 0.0
Li1672 Li 0.64319 0.03677 0.75972 0.0
Li1673 Li 0.66977 0.05917 0.75456 0.0
Li1674 Li 0.6494 0.03754 0.72735 0.0
Li1675 Li 0.66859 0.02437 0.75029 0.0
C1676 C 0.63619 0.07338 0.74503 0.0
N1677 N 0.61954 0.10417 0.74301 0.0
C1678 C 0.64205 0.09074 0.75846 0.0
C1679 C 0.62158 0.0715 0.73085 0.0
C1680 C 0.63354 0.1062 0.75711 0.0
C1681 C 0.6134 0.08726 0.73002 0.0
C1682 C 0.68224 0.04734 0.7881 0.0
C1683 C 0.71464 0.05393 0.79793 0.0
N1684 N 0.71183 0.05947 0.81638 0.0
C1685 C 0.67965 0.05296 0.80718 0.0
C1686 C 0.69985 0.0477 0.78344 0.0
C1687 C 0.69479 0.05909 0.82126 0.0
C1688 C 0.63028 0.0275 0.79233 0.0
N1689 N 0.62616 0.03568 0.77693 0.0
C1690 C 0.60904 0.05493 0.7945 0.0
C1691 C 0.61492 0.04824 0.7773 0.0
C1692 C 0.61455 0.0481 0.81098 0.0
C1693 C 0.62438 0.03345 0.80973 0.0
H1694 H 0.63977 0.01806 0.79163 0.0
H1695 H 0.61195 0.05449 0.76481 0.0
C1696 C 0.6877 0.09278 0.7455 0.0
N1697 N 0.68423 0.08411 0.76095 0.0
C1698 C 0.70078 0.11018 0.74771 0.0
C1699 C 0.70485 0.11047 0.78202 0.0
C1700 C 0.69167 0.09294 0.77911 0.0
C1701 C 0.70984 0.11858 0.76603 0.0
H1702 H 0.68097 0.08555 0.73138 0.0
H1703 H 0.68784 0.08623 0.79121 0.0
C1704 C 0.62761 1.00148 0.74387 0.0
N1705 N 0.5975 0.97721 0.75389 0.0
C1706 C 0.62976 0.98626 0.7536 0.0
C1707 C 0.6102 1.00437 0.73915 0.0
C1708 C 0.61434 0.97412 0.75852 0.0
C1709 C 0.59513 0.99196 0.74442 0.0
C1710 C 0.69036 0.04794 0.72236 0.0
C1711 C 0.68762 0.04313 0.70234 0.0
C1712 C 0.70749 0.05864 0.73164 0.0
C1713 C 0.70196 0.0493 0.69193 0.0
C1714 C 0.72148 0.06457 0.72071 0.0
N1715 N 0.71845 0.05983 0.70125 0.0
C1716 C 0.64381 0.05435 0.69588 0.0
C1717 C 0.62884 0.02054 0.69214 0.0
C1718 C 0.63545 0.05561 0.67807 0.0
N1719 N 0.64008 0.03711 0.70254 0.0
C1720 C 0.62037 0.02106 0.67413 0.0
C1721 C 0.62346 0.03884 0.66717 0.0
H1722 H 0.6528 0.06723 0.70474 0.0
H1723 H 0.62612 0.00717 0.69809 0.0
C1724 C 0.6833 1.00001 0.77026 0.0
N1725 N 0.68234 1.00611 0.75306 0.0
C1726 C 0.69435 0.98736 0.77383 0.0
C1727 C 0.70252 0.98686 0.74156 0.0
C1728 C 0.69158 0.99989 0.73875 0.0
C1729 C 0.70402 0.98071 0.75935 0.0
H1730 H 0.67563 1.00521 0.78125 0.0
H1731 H 0.69051 1.00515 0.72527 0.0
O1732 O 0.64472 0.05829 0.74563 0.0
O1733 O 0.66757 0.04207 0.77411 0.0
O1734 O 0.64252 0.0135 0.73898 0.0
O1735 O 0.67615 0.04263 0.73263 0.0
H1736 H 0.653 0.0923 0.76985 0.0
H1737 H 0.61656 0.05797 0.72065 0.0
H1738 H 0.63805 0.1198 0.7673 0.0
H1739 H 0.60215 0.08604 0.71904 0.0
H1740 H 0.72835 0.05436 0.7945 0.0
H1741 H 0.66612 0.05292 0.81102 0.0
H1742 H 0.70207 0.04317 0.76883 0.0
H1743 H 0.693 0.06363 0.83606 0.0
H1744 H 0.60136 0.0662 0.79522 0.0
H1745 H 0.62884 0.02809 0.8224 0.0
H1746 H 0.70438 0.11658 0.73524 0.0
H1747 H 0.71158 0.11712 0.79633 0.0
H1748 H 0.64318 0.98386 0.75727 0.0
H1749 H 0.60839 0.01619 0.73167 0.0
H1750 H 0.61578 0.96224 0.76604 0.0
H1751 H 0.58156 0.99406 0.74098 0.0
H1752 H 0.67454 0.03472 0.6949 0.0
H1753 H 0.7099 0.06284 0.74706 0.0
H1754 H 0.69998 0.04573 0.67643 0.0
H1755 H 0.73472 0.07306 0.72771 0.0
H1756 H 0.63806 0.06951 0.673 0.0
H1757 H 0.61098 0.00796 0.66606 0.0
H1758 H 0.69521 0.98266 0.78763 0.0
H1759 H 0.70992 0.98186 0.73018 0.0
Li1760 Li 0.78618 0.70447 0.0177 0.0
Li1761 Li 0.79973 0.67786 1.00198 0.0
Li1762 Li 0.78566 0.70033 0.98163 0.0
Li1763 Li 0.76439 0.67389 0.99805 0.0
C1764 C 0.82153 0.72252 0.00914 0.0
N1765 N 0.85046 0.75421 0.02336 0.0
C1766 C 0.83662 0.72003 0.0205 0.0
C1767 C 0.82126 0.74104 1.00479 0.0
C1768 C 0.85109 0.73625 0.0276 0.0
C1769 C 0.83598 0.75691 0.0122 0.0
C1770 C 0.78409 0.66592 0.03503 0.0
C1771 C 0.78018 0.63442 0.04504 0.0
N1772 N 0.78789 0.64355 0.06306 0.0
C1773 C 0.79196 0.67501 0.05363 0.0
C1774 C 0.77814 0.64548 0.03065 0.0
C1775 C 0.79377 0.66344 0.0676 0.0
C1776 C 0.77112 0.71972 0.04981 0.0
N1777 N 0.78721 0.72161 0.04229 0.0
C1778 C 0.80309 0.74135 0.072 0.0
C1779 C 0.80304 0.73245 0.05294 0.0
C1780 C 0.78672 0.73909 0.08032 0.0
C1781 C 0.77053 0.7285 0.06868 0.0
H1782 H 0.75877 0.71059 0.04143 0.0
H1783 H 0.8158 0.73343 0.04711 0.0
C1784 C 0.82658 0.65638 0.98924 0.0
N1785 N 0.82002 0.66453 0.00496 0.0
C1786 C 0.84162 0.64783 0.99124 0.0
C1787 C 0.84314 0.65619 0.02555 0.0
C1788 C 0.82808 0.66456 0.0229 0.0
C1789 C 0.85026 0.64765 0.00961 0.0
H1790 H 0.82025 0.65666 0.97507 0.0
H1791 H 0.82313 0.67153 0.03528 0.0
C1792 C 0.75604 0.71664 1.00204 0.0
N1793 N 0.73786 0.74571 0.01206 0.0
C1794 C 0.73789 0.71164 0.00556 0.0
C1795 C 0.76495 0.73636 1.00353 0.0
C1796 C 0.72892 0.72657 0.0106 0.0
C1797 C 0.75554 0.75087 0.00868 0.0
C1798 C 0.77817 0.65507 0.96313 0.0
C1799 C 0.77342 0.65777 0.94446 0.0
C1800 C 0.77994 0.63663 0.96654 0.0
C1801 C 0.77056 0.64189 0.92938 0.0
C1802 C 0.77701 0.62111 0.95106 0.0
N1803 N 0.77242 0.62405 0.93296 0.0
C1804 C 0.80439 0.71751 0.95194 0.0
C1805 C 0.77283 0.71634 0.94865 0.0
C1806 C 0.80632 0.72575 0.93518 0.0
N1807 N 0.7878 0.71283 0.95836 0.0
C1808 C 0.77415 0.72453 0.9318 0.0
C1809 C 0.79106 0.7293 0.9246 0.0
H1810 H 0.8162 0.71475 0.9598 0.0
H1811 H 0.75972 0.71254 0.95384 0.0
C1812 C 0.73419 0.65407 0.01543 0.0
N1813 N 0.73971 0.65642 0.99799 0.0
C1814 C 0.71669 0.64289 0.01692 0.0
C1815 C 0.71037 0.63674 0.98249 0.0
C1816 C 0.7281 0.64794 0.98164 0.0
C1817 C 0.7043 0.63401 1.00034 0.0
H1818 H 0.74333 0.66116 0.02835 0.0
H1819 H 0.73249 0.65001 0.96786 0.0
O1820 O 0.8073 0.70678 1.00194 0.0
O1821 O 0.78202 0.67699 0.02123 0.0
O1822 O 0.76501 0.70223 0.99711 0.0
O1823 O 0.78159 0.67059 0.97792 0.0
H1824 H 0.8371 0.70578 0.02391 0.0
H1825 H 0.80986 0.74313 0.9957 0.0
H1826 H 0.86282 0.73457 0.03649 0.0
H1827 H 0.83593 0.77136 0.00901 0.0
H1828 H 0.77562 0.61857 0.04188 0.0
H1829 H 0.79671 0.69081 0.05723 0.0
H1830 H 0.77199 0.63828 0.0163 0.0
H1831 H 0.79986 0.67027 0.08206 0.0
H1832 H 0.81599 0.74908 0.08039 0.0
H1833 H 0.75751 0.72653 0.07423 0.0
H1834 H 0.84631 0.64128 0.97843 0.0
H1835 H 0.84939 0.65685 0.04001 0.0
H1836 H 0.73083 0.69639 1.00442 0.0
H1837 H 0.779 0.7404 1.00084 0.0
H1838 H 0.71485 0.72295 0.01335 0.0
H1839 H 0.76228 0.76622 0.00998 0.0
H1840 H 0.77205 0.67201 0.94164 0.0
H1841 H 0.78371 0.63439 0.98095 0.0
H1842 H 0.76692 0.64376 0.91483 0.0
H1843 H 0.77842 0.60676 0.95343 0.0
H1844 H 0.81975 0.72942 0.93066 0.0
H1845 H 0.76187 0.72667 0.92425 0.0
H1846 H 0.71278 0.64163 0.03105 0.0
H1847 H 0.70156 0.63014 0.96923 0.0
Li1848 Li 0.91014 0.51515 0.77896 0.0
Li1849 Li 0.93409 0.53282 0.80335 0.0
Li1850 Li 0.91781 0.54956 0.78147 0.0
Li1851 Li 0.93892 0.52915 0.77066 0.0
C1852 C 0.89644 0.52664 0.81289 0.0
N1853 N 0.87199 0.50982 0.83571 0.0
C1854 C 0.89775 0.50898 0.81875 0.0
C1855 C 0.88258 0.53564 0.81843 0.0
C1856 C 0.88533 0.50077 0.83039 0.0
C1857 C 0.87035 0.52691 0.82998 0.0
C1858 C 0.94455 0.4973 0.79081 0.0
C1859 C 0.975 0.49247 0.79641 0.0
N1860 N 0.96788 0.47335 0.7975 0.0
C1861 C 0.93753 0.47765 0.79211 0.0
C1862 C 0.96343 0.50483 0.79308 0.0
C1863 C 0.94955 0.46577 0.79549 0.0
C1864 C 0.89628 0.47791 0.76102 0.0
N1865 N 0.89148 0.49316 0.77161 0.0
C1866 C 0.86132 0.47452 0.77112 0.0
C1867 C 0.87424 0.4922 0.776 0.0
C1868 C 0.86639 0.45827 0.7614 0.0
C1869 C 0.88375 0.46004 0.75564 0.0
H1870 H 0.91004 0.47953 0.75737 0.0
H1871 H 0.87071 0.50491 0.78372 0.0
C1872 C 0.95775 0.55194 0.8358 0.0
N1873 N 0.94623 0.53453 0.82759 0.0
C1874 C 0.96875 0.5533 0.85292 0.0
C1875 C 0.95538 0.51892 0.8529 0.0
C1876 C 0.94485 0.51816 0.83569 0.0
C1877 C 0.96753 0.53661 0.86149 0.0
H1878 H 0.95868 0.56459 0.8288 0.0
H1879 H 0.93602 0.50437 0.82858 0.0
C1880 C 0.90263 0.51927 0.7431 0.0
N1881 N 0.87709 0.49644 0.71357 0.0
C1882 C 0.90819 0.50847 0.72753 0.0
C1883 C 0.88408 0.51883 0.74339 0.0
C1884 C 0.89508 0.49698 0.71278 0.0
C1885 C 0.87137 0.50703 0.72843 0.0
C1886 C 0.95924 0.56682 0.7852 0.0
C1887 C 0.95669 0.58166 0.77507 0.0
C1888 C 0.9769 0.56529 0.79111 0.0
C1889 C 0.97194 0.59461 0.77079 0.0
C1890 C 0.99178 0.57847 0.78646 0.0
N1891 N 0.98902 0.59274 0.77649 0.0
C1892 C 0.90435 0.58307 0.79276 0.0
C1893 C 0.89992 0.56935 0.75962 0.0
C1894 C 0.89367 0.59622 0.78931 0.0
N1895 N 0.90713 0.57002 0.77792 0.0
C1896 C 0.88862 0.58155 0.75565 0.0
C1897 C 0.88539 0.5953 0.77055 0.0
H1898 H 0.91009 0.58294 0.80721 0.0
H1899 H 0.90243 0.55885 0.74813 0.0
C1900 C 0.95269 0.50398 0.7473 0.0
N1901 N 0.95435 0.52358 0.75289 0.0
C1902 C 0.96007 0.49715 0.7313 0.0
C1903 C 0.97079 0.53085 0.72691 0.0
C1904 C 0.96341 0.5371 0.7433 0.0
C1905 C 0.96864 0.51066 0.72074 0.0
H1906 H 0.94412 0.49346 0.75403 0.0
H1907 H 0.96366 0.55246 0.7474 0.0
O1908 O 0.90804 0.53465 0.801 0.0
O1909 O 0.9329 0.50857 0.78593 0.0
O1910 O 0.91527 0.53031 0.75791 0.0
O1911 O 0.94451 0.55434 0.78994 0.0
H1912 H 0.90779 0.50135 0.81378 0.0
H1913 H 0.8812 0.54913 0.81369 0.0
H1914 H 0.88615 0.48708 0.83499 0.0
H1915 H 0.85952 0.53368 0.83434 0.0
H1916 H 0.98965 0.49803 0.79796 0.0
H1917 H 0.92294 0.47158 0.79031 0.0
H1918 H 0.96905 0.5199 0.7918 0.0
H1919 H 0.9443 0.4505 0.79639 0.0
H1920 H 0.84797 0.47319 0.7759 0.0
H1921 H 0.88793 0.44745 0.74839 0.0
H1922 H 0.97811 0.56712 0.85937 0.0
H1923 H 0.95444 0.50577 0.85917 0.0
H1924 H 0.92245 0.509 0.72672 0.0
H1925 H 0.87952 0.52716 0.75528 0.0
H1926 H 0.89922 0.4885 0.7007 0.0
H1927 H 0.85697 0.50627 0.72867 0.0
H1928 H 0.94311 0.58314 0.77056 0.0
H1929 H 0.9791 0.55416 0.79932 0.0
H1930 H 0.9702 0.60616 0.76293 0.0
H1931 H 1.00554 0.57742 0.79087 0.0
H1932 H 0.89182 0.60679 0.80122 0.0
H1933 H 0.88221 0.5798 0.74106 0.0
H1934 H 0.9577 0.48147 0.72626 0.0
H1935 H 0.97697 0.54143 0.71847 0.0
Li1936 Li 0.80734 0.41088 0.51727 0.0
Li1937 Li 0.78927 0.43262 0.50474 0.0
Li1938 Li 0.80528 0.41175 0.48351 0.0
Li1939 Li 0.82179 0.44036 0.50646 0.0
C1940 C 0.77326 0.38816 0.50406 0.0
N1941 N 0.7499 0.35753 0.51558 0.0
C1942 C 0.75883 0.39167 0.51397 0.0
C1943 C 0.77569 0.36906 0.49979 0.0
C1944 C 0.74719 0.37599 0.51972 0.0
C1945 C 0.76378 0.35377 0.50582 0.0
C1946 C 0.81394 0.45265 0.54268 0.0
C1947 C 0.82266 0.48721 0.55599 0.0
N1948 N 0.82961 0.48292 0.57273 0.0
C1949 C 0.82104 0.44856 0.56004 0.0
C1950 C 0.81459 0.4721 0.54065 0.0
C1951 C 0.82894 0.46408 0.57505 0.0
C1952 C 0.82844 0.39476 0.54053 0.0
N1953 N 0.81107 0.39658 0.53659 0.0
C1954 C 0.80254 0.38355 0.5643 0.0
C1955 C 0.7981 0.39115 0.54803 0.0
C1956 C 0.82048 0.38164 0.56868 0.0
C1957 C 0.83335 0.38683 0.55626 0.0
H1958 H 0.83885 0.4004 0.53213 0.0
H1959 H 0.78467 0.39374 0.54516 0.0
C1960 C 0.75946 0.44696 0.49231 0.0
N1961 N 0.76952 0.44372 0.50776 0.0
C1962 C 0.74513 0.45612 0.49498 0.0
C1963 C 0.75202 0.45838 0.52933 0.0
C1964 C 0.76616 0.44917 0.52601 0.0
C1965 C 0.74145 0.46185 0.51367 0.0
H1966 H 0.76269 0.44255 0.47802 0.0
H1967 H 0.77447 0.44634 0.53795 0.0
C1968 C 0.83881 0.40322 0.4964 0.0
N1969 N 0.86299 0.38001 0.48801 0.0
C1970 C 0.85706 0.4119 0.49536 0.0
C1971 C 0.83283 0.38276 0.49315 0.0
C1972 C 0.86909 0.39991 0.49112 0.0
C1973 C 0.84527 0.37128 0.4889 0.0
C1974 C 0.81028 0.45371 0.47361 0.0
C1975 C 0.82166 0.4502 0.4597 0.0
C1976 C 0.8054 0.47173 0.47682 0.0
C1977 C 0.82813 0.4649 0.44927 0.0
C1978 C 0.81218 0.48608 0.4661 0.0
N1979 N 0.82331 0.4824 0.45267 0.0
C1980 C 0.78771 0.38394 0.45196 0.0
C1981 C 0.81954 0.39545 0.45143 0.0
C1982 C 0.78636 0.37069 0.43502 0.0
N1983 N 0.80412 0.39585 0.45977 0.0
C1984 C 0.81886 0.38239 0.43455 0.0
C1985 C 0.80212 0.36977 0.42623 0.0
H1986 H 0.77574 0.38454 0.45908 0.0
H1987 H 0.83242 0.40512 0.45798 0.0
C1988 C 0.85328 0.4569 0.52912 0.0
N1989 N 0.84338 0.45988 0.51343 0.0
C1990 C 0.87042 0.46892 0.53576 0.0
C1991 C 0.86718 0.48657 0.50955 0.0
C1992 C 0.8497 0.47473 0.50395 0.0
C1993 C 0.87797 0.48331 0.52532 0.0
H1994 H 0.84806 0.44466 0.53609 0.0
H1995 H 0.84174 0.47691 0.49154 0.0
O1996 O 0.78463 0.40327 0.49812 0.0
O1997 O 0.80655 0.43766 0.5277 0.0
O1998 O 0.8271 0.41478 0.50146 0.0
O1999 O 0.8037 0.43949 0.48386 0.0
H2000 H 0.75666 0.40634 0.51723 0.0
H2001 H 0.7866 0.36606 0.49184 0.0
H2002 H 0.736 0.3785 0.52746 0.0
H2003 H 0.76552 0.33891 0.50268 0.0
H2004 H 0.82344 0.50236 0.55459 0.0
H2005 H 0.82062 0.43358 0.56184 0.0
H2006 H 0.80916 0.47546 0.52726 0.0
H2007 H 0.83458 0.46114 0.58853 0.0
H2008 H 0.7923 0.38013 0.57378 0.0
H2009 H 0.84728 0.38544 0.55899 0.0
H2010 H 0.73705 0.45873 0.4827 0.0
H2011 H 0.74935 0.46274 0.54389 0.0
H2012 H 0.86191 0.42773 0.49798 0.0
H2013 H 0.81879 0.37587 0.49411 0.0
H2014 H 0.88328 0.40641 0.49037 0.0
H2015 H 0.84085 0.35542 0.4864 0.0
H2016 H 0.8256 0.43638 0.4571 0.0
H2017 H 0.79659 0.47463 0.48755 0.0
H2018 H 0.83702 0.46243 0.43851 0.0
H2019 H 0.80861 0.50016 0.46847 0.0
H2020 H 0.77325 0.36105 0.42904 0.0
H2021 H 0.83124 0.38224 0.42802 0.0
H2022 H 0.87805 0.46615 0.54826 0.0
H2023 H 0.87249 0.49723 0.5008 0.0
Li2024 Li 0.6519 0.51375 0.29055 0.0
Li2025 Li 0.67905 0.53614 0.27281 0.0
Li2026 Li 0.65094 0.51103 0.25139 0.0
Li2027 Li 0.67552 0.49412 0.26957 0.0
C2028 C 0.63843 0.54402 0.27 0.0
N2029 N 0.61134 0.56363 0.26346 0.0
C2030 C 0.64253 0.56453 0.27344 0.0
C2031 C 0.62054 0.53345 0.26344 0.0
C2032 C 0.62866 0.57419 0.26997 0.0
C2033 C 0.60703 0.54364 0.26018 0.0
C2034 C 0.69288 0.52205 0.30927 0.0
C2035 C 0.72231 0.52162 0.32492 0.0
N2036 N 0.71803 0.53043 0.34171 0.0
C2037 C 0.68876 0.53115 0.32663 0.0
C2038 C 0.70976 0.51724 0.30833 0.0
C2039 C 0.70166 0.53524 0.3429 0.0
C2040 C 0.63654 0.50071 0.32776 0.0
N2041 N 0.63799 0.51512 0.31663 0.0
C2042 C 0.62217 0.53239 0.3401 0.0
C2043 C 0.63075 0.5308 0.32286 0.0
C2044 C 0.62054 0.51785 0.35208 0.0
C2045 C 0.62808 0.50176 0.3451 0.0
H2046 H 0.64214 0.48816 0.32339 0.0
H2047 H 0.63161 0.54245 0.31449 0.0
C2048 C 0.68789 0.57594 0.26023 0.0
N2049 N 0.69491 0.56523 0.27229 0.0
C2050 C 0.69681 0.59567 0.25924 0.0
C2051 C 0.72098 0.59358 0.28225 0.0
C2052 C 0.71137 0.574 0.2832 0.0
C2053 C 0.71379 0.60513 0.27027 0.0
H2054 H 0.67507 0.56927 0.25126 0.0
H2055 H 0.71724 0.5659 0.29283 0.0
C2056 C 0.63263 0.47394 0.26049 0.0
N2057 N 0.60341 0.44336 0.24417 0.0
C2058 C 0.63538 0.45804 0.24783 0.0
C2059 C 0.61507 0.47433 0.26489 0.0
C2060 C 0.62041 0.44269 0.23974 0.0
C2061 C 0.60045 0.45873 0.25645 0.0
C2062 C 0.6846 0.512 0.23306 0.0
C2063 C 0.67556 0.49671 0.21827 0.0
C2064 C 0.70023 0.52529 0.23009 0.0
C2065 C 0.68234 0.49502 0.2006 0.0
C2066 C 0.70666 0.52302 0.21226 0.0
N2067 N 0.69764 0.50808 0.198 0.0
C2068 C 0.63908 0.52885 0.21768 0.0
C2069 C 0.62327 0.49581 0.21331 0.0
C2070 C 0.63036 0.53096 0.19974 0.0
N2071 N 0.63567 0.51145 0.22445 0.0
C2072 C 0.61419 0.49733 0.19521 0.0
C2073 C 0.61759 0.51512 0.18773 0.0
H2074 H 0.64878 0.5414 0.22622 0.0
H2075 H 0.62038 0.48187 0.21824 0.0
C2076 C 0.69429 0.46187 0.28457 0.0
N2077 N 0.68952 0.46904 0.26838 0.0
C2078 C 0.70296 0.4456 0.28412 0.0
C2079 C 0.70221 0.44335 0.25038 0.0
C2080 C 0.69352 0.45965 0.25142 0.0
C2081 C 0.70737 0.43551 0.26684 0.0
H2082 H 0.69134 0.46869 0.29824 0.0
H2083 H 0.68998 0.4647 0.23828 0.0
O2084 O 0.65189 0.53429 0.27284 0.0
O2085 O 0.68027 0.51741 0.29335 0.0
O2086 O 0.64711 0.48898 0.26869 0.0
O2087 O 0.67828 0.51387 0.25046 0.0
H2088 H 0.65625 0.57291 0.27886 0.0
H2089 H 0.61718 0.51755 0.26069 0.0
H2090 H 0.63165 0.59008 0.2725 0.0
H2091 H 0.59313 0.53566 0.255 0.0
H2092 H 0.73543 0.51796 0.32445 0.0
H2093 H 0.67571 0.5349 0.32754 0.0
H2094 H 0.71306 0.51012 0.29496 0.0
H2095 H 0.69866 0.54221 0.35647 0.0
H2096 H 0.61669 0.54515 0.34376 0.0
H2097 H 0.62782 0.48991 0.3531 0.0
H2098 H 0.69047 0.60338 0.24955 0.0
H2099 H 0.7339 0.59979 0.29122 0.0
H2100 H 0.64893 0.45755 0.24433 0.0
H2101 H 0.61277 0.48652 0.27477 0.0
H2102 H 0.62232 0.43024 0.22995 0.0
H2103 H 0.58677 0.45882 0.2597 0.0
H2104 H 0.66343 0.4863 0.22043 0.0
H2105 H 0.70738 0.53715 0.24149 0.0
H2106 H 0.67546 0.48332 0.18896 0.0
H2107 H 0.71882 0.53313 0.20977 0.0
H2108 H 0.63361 0.54524 0.19551 0.0
H2109 H 0.60479 0.48436 0.18699 0.0
H2110 H 0.70597 0.44096 0.2976 0.0
H2111 H 0.70493 0.43712 0.23641 0.0
La2112 La 0.02638 0.02624 1.00287 0.0
La2113 La 0.06239 0.04669 0.02524 0.0
C2114 C 0.99252 0.01361 0.99345 0.0
C2115 C 0.97729 0.02291 0.99596 0.0
C2116 C 0.95995 0.01351 0.98637 0.0
C2117 C 0.94586 0.02331 0.98685 0.0
C2118 C 0.94906 0.04275 0.99673 0.0
C2119 C 0.96647 0.05199 0.00656 0.0
C2120 C 0.98044 0.04208 0.00629 0.0
C2121 C 0.05168 0.02499 0.97754 0.0
C2122 C 0.03981 0.07277 0.00617 0.0
C2123 C 0.0961 0.0592 0.03544 0.0
C2124 C 0.11187 0.05057 0.03371 0.0
C2125 C 0.12473 0.05334 0.04989 0.0
C2126 C 0.1388 0.04356 0.04946 0.0
C2127 C 0.14034 0.03097 0.03272 0.0
C2128 C 0.1275 0.02836 0.01641 0.0
C2129 C 0.11326 0.03797 0.01695 0.0
C2130 C 0.03729 0.04809 0.0507 0.0
C2131 C 0.04895 1.00023 0.0218 0.0
O2132 O 1.00367 0.02136 0.98222 0.0
O2133 O 1.0012 0.01067 0.00909 0.0
O2134 O 0.03436 0.01729 0.97416 0.0
O2135 O 0.05432 0.0325 0.99555 0.0
O2136 O 0.02593 0.05715 1.00277 0.0
O2137 O 0.05602 0.07188 0.01405 0.0
O2138 O 0.08468 0.05108 0.04625 0.0
O2139 O 0.08777 0.06246 0.01971 0.0
O2140 O 0.0545 0.05633 0.05365 0.0
O2141 O 0.03439 0.04036 0.03271 0.0
O2142 O 0.063 0.01566 0.02484 0.0
O2143 O 0.03268 1.00123 0.01427 0.0
H2144 H 0.9574 0.99875 0.97824 0.0
H2145 H 0.93249 0.0157 0.97945 0.0
H2146 H 0.96942 0.06703 0.0141 0.0
H2147 H 0.99381 0.04955 0.01375 0.0
H2148 H 0.12358 0.06269 0.06307 0.0
H2149 H 0.14825 0.04557 0.06237 0.0
H2150 H 0.12844 0.01894 1.00322 0.0
H2151 H 0.10325 0.03535 1.00442 0.0
La2152 La 0.29874 0.78074 0.24477 0.0
La2153 La 0.28081 0.78719 0.27844 0.0
C2154 C 0.30415 0.78202 0.21075 0.0
C2155 C 0.31498 0.79701 0.2016 0.0
C2156 C 0.33418 0.80132 0.20371 0.0
C2157 C 0.34384 0.81623 0.19515 0.0
C2158 C 0.33436 0.82712 0.18484 0.0
C2159 C 0.31524 0.82292 0.18305 0.0
C2160 C 0.30566 0.80795 0.19122 0.0
C2161 C 0.3238 0.78096 0.27403 0.0
C2162 C 0.30818 0.822 0.27105 0.0
C2163 C 0.26106 0.78455 0.30489 0.0
C2164 C 0.25636 0.7712 0.31812 0.0
C2165 C 0.24467 0.77526 0.33154 0.0
C2166 C 0.24159 0.76375 0.34564 0.0
C2167 C 0.25011 0.74815 0.3461 0.0
C2168 C 0.26056 0.74309 0.33173 0.0
C2169 C 0.26375 0.75467 0.31774 0.0
C2170 C 0.26351 0.79419 0.24696 0.0
C2171 C 0.28339 0.74489 0.26044 0.0
O2172 O 0.31281 0.77278 0.22171 0.0
O2173 O 0.29057 0.7874 0.2184 0.0
O2174 O 0.32611 0.77882 0.2561 0.0
O2175 O 0.30768 0.78326 0.27537 0.0
O2176 O 0.30593 0.81218 0.25343 0.0
O2177 O 0.30055 0.8147 0.28505 0.0
O2178 O 0.25536 0.77682 0.28695 0.0
O2179 O 0.27796 0.79492 0.30748 0.0
O2180 O 0.26786 0.80604 0.26317 0.0
O2181 O 0.27054 0.77965 0.24838 0.0
O2182 O 0.28376 0.75715 0.2764 0.0
O2183 O 0.28587 0.75081 0.24417 0.0
H2184 H 0.34168 0.79317 0.2118 0.0
H2185 H 0.35859 0.81913 0.19639 0.0
H2186 H 0.30758 0.83073 0.17467 0.0
H2187 H 0.29088 0.8049 0.18937 0.0
H2188 H 0.23874 0.78788 0.3317 0.0
H2189 H 0.23379 0.76791 0.35699 0.0
H2190 H 0.26748 0.73126 0.33229 0.0
H2191 H 0.27269 0.7513 0.30736 0.0
La2192 La 0.56665 0.03706 0.51331 0.0
La2193 La 0.5254 0.03589 0.51386 0.0
C2194 C 0.59876 0.03207 0.51912 0.0
C2195 C 0.6099 0.01702 0.51655 0.0
C2196 C 0.61514 0.01054 0.49858 0.0
C2197 C 0.62775 0.99859 0.49702 0.0
C2198 C 0.63563 0.99311 0.51341 0.0
C2199 C 0.63005 0.99913 0.53123 0.0
C2200 C 0.6173 0.01084 0.53277 0.0
C2201 C 0.54775 0.03646 0.48074 0.0
C2202 C 0.5369 0.99573 0.50881 0.0
C2203 C 0.49326 0.04063 0.50748 0.0
C2204 C 0.48195 0.05552 0.50988 0.0
C2205 C 0.47721 0.06263 0.5279 0.0
C2206 C 0.46458 0.07455 0.52945 0.0
C2207 C 0.45622 0.07967 0.51303 0.0
C2208 C 0.46135 0.07289 0.49509 0.0
C2209 C 0.47397 0.06102 0.49356 0.0
C2210 C 0.54453 0.03717 0.54676 0.0
C2211 C 0.55523 0.07716 0.51857 0.0
O2212 O 0.59233 0.03789 0.50384 0.0
O2213 O 0.58714 0.03067 0.53177 0.0
O2214 O 0.5648 0.04543 0.48496 0.0
O2215 O 0.54239 0.02724 0.49361 0.0
O2216 O 0.55407 1.00598 0.51376 0.0
O2217 O 0.52334 1.00439 0.5053 0.0
O2218 O 0.49952 0.03481 0.52285 0.0
O2219 O 0.5051 0.04217 0.49504 0.0
O2220 O 0.52735 0.02853 0.5428 0.0
O2221 O 0.54966 0.04571 0.53339 0.0
O2222 O 0.538 0.06712 0.51354 0.0
O2223 O 0.56869 0.06845 0.52233 0.0
H2224 H 0.60996 0.01519 0.48578 0.0
H2225 H 0.63192 0.99429 0.48312 0.0
H2226 H 0.63586 0.99508 0.54409 0.0
H2227 H 0.61375 0.01567 0.54684 0.0
H2228 H 0.48293 0.05862 0.54082 0.0
H2229 H 0.46127 0.07963 0.54356 0.0
H2230 H 0.45511 0.07613 0.48203 0.0
H2231 H 0.47704 0.05557 0.47944 0.0
La2232 La 0.27558 0.29235 0.76283 0.0
La2233 La 0.31256 0.28216 0.7651 0.0
C2234 C 0.24328 0.29523 0.76746 0.0
C2235 C 0.22977 0.29431 0.78165 0.0
C2236 C 0.22467 0.31153 0.78943 0.0
C2237 C 0.21036 0.31079 0.80083 0.0
C2238 C 0.20058 0.29276 0.8047 0.0
C2239 C 0.20604 0.27558 0.79735 0.0
C2240 C 0.22038 0.27632 0.78597 0.0
C2241 C 0.30319 0.32199 0.75799 0.0
C2242 C 0.29789 0.29401 0.80394 0.0
C2243 C 0.34642 0.2871 0.76189 0.0
C2244 C 0.35963 0.2842 0.74779 0.0
C2245 C 0.36562 0.26666 0.74407 0.0
C2246 C 0.37986 0.26536 0.73273 0.0
C2247 C 0.38865 0.28165 0.72505 0.0
C2248 C 0.3822 0.29891 0.72831 0.0
C2249 C 0.368 0.30017 0.73949 0.0
C2250 C 0.28639 0.24841 0.76406 0.0
C2251 C 0.28894 0.2771 0.72422 0.0
O2252 O 0.25753 0.3101 0.77086 0.0
O2253 O 0.24747 0.27896 0.75995 0.0
O2254 O 0.28674 0.31726 0.74893 0.0
O2255 O 0.30368 0.30982 0.76964 0.0
O2256 O 0.28253 0.29442 0.79372 0.0
O2257 O 0.31221 0.29025 0.79595 0.0
O2258 O 0.33687 0.27195 0.76798 0.0
O2259 O 0.33678 0.29994 0.75932 0.0
O2260 O 0.3039 0.24996 0.76532 0.0
O2261 O 0.28454 0.26588 0.76356 0.0
O2262 O 0.30489 0.27852 0.73422 0.0
O2263 O 0.2746 0.28026 0.7325 0.0
H2264 H 0.2314 0.3256 0.78619 0.0
H2265 H 0.20652 0.32433 0.80598 0.0
H2266 H 0.19909 0.26144 0.80023 0.0
H2267 H 0.22381 0.26271 0.78019 0.0
H2268 H 0.3597 0.25411 0.75036 0.0
H2269 H 0.38446 0.25183 0.73063 0.0
H2270 H 0.38834 0.31166 0.72242 0.0
H2271 H 0.36395 0.314 0.74212 0.0
La2272 La 0.04307 0.0549 0.52296 0.0
La2273 La 0.04866 0.01831 0.50628 0.0
C2274 C 0.04341 0.09091 0.53035 0.0
C2275 C 0.04302 0.1059 0.51831 0.0
C2276 C 0.03705 0.1227 0.52518 0.0
C2277 C 0.03759 0.13757 0.51425 0.0
C2278 C 0.04402 0.13571 0.49627 0.0
C2279 C 0.04945 0.11855 0.48916 0.0
C2280 C 0.04903 0.10379 0.50014 0.0
C2281 C 0.01561 0.02526 0.52618 0.0
C2282 C 0.0325 0.04067 0.47649 0.0
C2283 C 0.04919 0.98263 0.49896 0.0
C2284 C 0.04699 0.96708 0.51062 0.0
C2285 C 0.05937 0.95496 0.51046 0.0
C2286 C 0.05754 0.9402 0.52161 0.0
C2287 C 0.04322 0.93738 0.53286 0.0
C2288 C 0.03097 0.94962 0.53328 0.0
C2289 C 0.03293 0.96453 0.52236 0.0
C2290 C 0.07607 0.04811 0.50321 0.0
C2291 C 0.05887 0.03219 0.55251 0.0
O2292 O 0.02858 0.07694 0.52841 0.0
O2293 O 0.05809 0.08405 0.53074 0.0
O2294 O 0.02243 0.04061 0.53932 0.0
O2295 O 0.02402 0.02712 0.51166 0.0
O2296 O 0.03583 0.05521 0.49157 0.0
O2297 O 0.03569 0.0235 0.479 0.0
O2298 O 0.06391 0.99675 0.50406 0.0
O2299 O 0.03473 0.9893 0.49505 0.0
O2300 O 0.06933 0.03283 0.49005 0.0
O2301 O 0.06769 0.04599 0.51767 0.0
O2302 O 0.05355 0.01719 0.53787 0.0
O2303 O 0.05755 0.04988 0.54957 0.0
H2304 H 0.0323 0.12447 0.53913 0.0
H2305 H 0.03321 0.15062 0.51995 0.0
H2306 H 0.05468 0.11688 0.47545 0.0
H2307 H 0.0539 0.09101 0.49465 0.0
H2308 H 0.0704 0.95689 0.50167 0.0
H2309 H 0.06704 0.93075 0.52118 0.0
H2310 H 0.01988 0.94756 0.54199 0.0
H2311 H 0.02339 0.97394 0.52302 0.0
La2312 La 0.31093 0.80005 0.76471 0.0
La2313 La 0.27738 0.76959 0.76351 0.0
C2314 C 0.34205 0.82179 0.7757 0.0
C2315 C 0.36045 0.81811 0.77702 0.0
C2316 C 0.3696 0.81615 0.76071 0.0
C2317 C 0.38656 0.81146 0.76201 0.0
C2318 C 0.39455 0.80861 0.77959 0.0
C2319 C 0.38557 0.81087 0.79593 0.0
C2320 C 0.36871 0.81567 0.79468 0.0
C2321 C 0.29565 0.78268 0.73038 0.0
C2322 C 0.31402 0.75371 0.76547 0.0
C2323 C 0.2464 0.74765 0.75234 0.0
C2324 C 0.22807 0.75138 0.74987 0.0
C2325 C 0.21861 0.75483 0.76572 0.0
C2326 C 0.20163 0.75932 0.7632 0.0
C2327 C 0.19387 0.76034 0.74483 0.0
C2328 C 0.20332 0.75689 0.72903 0.0
C2329 C 0.22022 0.75232 0.73151 0.0
C2330 C 0.29277 0.78677 0.79782 0.0
C2331 C 0.27435 0.81605 0.76306 0.0
O2332 O 0.33353 0.81989 0.75839 0.0
O2333 O 0.33139 0.81377 0.78736 0.0
O2334 O 0.30384 0.80118 0.73451 0.0
O2335 O 0.29731 0.7748 0.74487 0.0
O2336 O 0.32245 0.77282 0.76671 0.0
O2337 O 0.29581 0.74876 0.76327 0.0
O2338 O 0.25438 0.75047 0.77 0.0
O2339 O 0.25752 0.75481 0.74065 0.0
O2340 O 0.28433 0.76834 0.79372 0.0
O2341 O 0.29108 0.79469 0.78336 0.0
O2342 O 0.26587 0.79682 0.76086 0.0
O2343 O 0.29256 0.8209 0.76601 0.0
H2344 H 0.36361 0.81803 0.7469 0.0
H2345 H 0.39335 0.80987 0.74926 0.0
H2346 H 0.3917 0.80918 0.80976 0.0
H2347 H 0.36205 0.81729 0.80751 0.0
H2348 H 0.2243 0.75416 0.78006 0.0
H2349 H 0.19444 0.76169 0.77555 0.0
H2350 H 0.19766 0.75782 0.71474 0.0
H2351 H 0.22723 0.74974 0.71906 0.0
La2352 La 0.55076 0.03654 0.03495 0.0
La2353 La 0.54086 0.04037 0.99235 0.0
C2354 C 0.55176 0.03971 0.07017 0.0
C2355 C 0.53841 0.02782 0.07991 0.0
C2356 C 0.54316 0.01277 0.08858 0.0
C2357 C 0.53034 1.00086 0.09719 0.0
C2358 C 0.51272 1.00398 0.09723 0.0
C2359 C 0.50746 0.01773 0.08708 0.0
C2360 C 0.52029 0.0298 0.0787 0.0
C2361 C 0.55852 0.00772 0.01151 0.0
C2362 C 0.51153 0.01536 0.01338 0.0
C2363 C 0.53523 0.03945 0.95724 0.0
C2364 C 0.54775 0.05052 0.94596 0.0
C2365 C 0.55123 0.07118 0.94853 0.0
C2366 C 0.56538 0.08177 0.94032 0.0
C2367 C 0.5764 0.07189 0.92973 0.0
C2368 C 0.57279 0.05128 0.92696 0.0
C2369 C 0.55854 0.04069 0.93491 0.0
C2370 C 0.53907 0.06948 0.01932 0.0
C2371 C 0.58054 0.05637 0.0127 0.0
O2372 O 0.56163 0.02975 0.06044 0.0
O2373 O 0.54586 0.05211 0.06068 0.0
O2374 O 0.56118 0.00993 0.02998 0.0
O2375 O 0.5515 0.02129 0.00742 0.0
O2376 O 0.52281 0.01985 0.02958 0.0
O2377 O 0.516 0.02063 0.99699 0.0
O2378 O 0.52768 0.04986 0.96961 0.0
O2379 O 0.54148 0.02597 0.96461 0.0
O2380 O 0.54479 0.07204 1.00301 0.0
O2381 O 0.53463 0.05151 0.0196 0.0
O2382 O 0.57021 0.04798 0.99637 0.0
O2383 O 0.57426 0.05758 0.02947 0.0
H2384 H 0.55694 0.01064 0.0892 0.0
H2385 H 0.53465 0.9906 0.10542 0.0
H2386 H 0.494 0.0206 0.08752 0.0
H2387 H 0.51611 0.04103 0.07183 0.0
H2388 H 0.5433 0.07922 0.95719 0.0
H2389 H 0.56775 0.09763 0.94223 0.0
H2390 H 0.58074 0.04329 0.91825 0.0
H2391 H 0.55626 0.02483 0.93285 0.0
La2392 La 0.3031 0.30853 0.27434 0.0
La2393 La 0.28683 0.26529 0.25778 0.0
C2394 C 0.31099 0.34517 0.2832 0.0
C2395 C 0.3007 0.35972 0.28012 0.0
C2396 C 0.30405 0.37723 0.29333 0.0
C2397 C 0.2934 0.39067 0.29124 0.0
C2398 C 0.27934 0.38662 0.27591 0.0
C2399 C 0.27593 0.36896 0.26277 0.0
C2400 C 0.28654 0.35554 0.26489 0.0
C2401 C 0.30328 0.28423 0.29946 0.0
C2402 C 0.26004 0.29181 0.26623 0.0
C2403 C 0.27819 0.22885 0.25559 0.0
C2404 C 0.28976 0.21491 0.25264 0.0
C2405 C 0.28379 0.19769 0.23897 0.0
C2406 C 0.29513 0.18472 0.23592 0.0
C2407 C 0.31252 0.18891 0.24656 0.0
C2408 C 0.31854 0.2064 0.25994 0.0
C2409 C 0.30732 0.21932 0.26287 0.0
C2410 C 0.29077 0.28585 0.22894 0.0
C2411 C 0.32904 0.28296 0.26027 0.0
O2412 O 0.30434 0.33349 0.29475 0.0
O2413 O 0.31549 0.33572 0.26771 0.0
O2414 O 0.31622 0.29943 0.29894 0.0
O2415 O 0.29075 0.28314 0.28597 0.0
O2416 O 0.27398 0.30732 0.26871 0.0
O2417 O 0.26189 0.27359 0.26294 0.0
O2418 O 0.27505 0.23747 0.24105 0.0
O2419 O 0.28246 0.2412 0.27182 0.0
O2420 O 0.28466 0.26702 0.22678 0.0
O2421 O 0.29441 0.29186 0.24679 0.0
O2422 O 0.3161 0.26735 0.26111 0.0
O2423 O 0.32636 0.30088 0.26265 0.0
H2424 H 0.31477 0.3804 0.30532 0.0
H2425 H 0.29627 0.40429 0.30145 0.0
H2426 H 0.26496 0.36547 0.251 0.0
H2427 H 0.28358 0.34185 0.25478 0.0
H2428 H 0.2704 0.19429 0.23074 0.0
H2429 H 0.29026 0.17136 0.22543 0.0
H2430 H 0.3317 0.20985 0.26866 0.0
H2431 H 0.31239 0.23263 0.27338 0.0
La2432 La 0.54191 0.55537 0.02359 0.0
La2433 La 0.54873 0.51949 0.00666 0.0
C2434 C 0.54119 0.59104 0.03101 0.0
C2435 C 0.54188 0.60618 0.01898 0.0
C2436 C 0.53284 0.62121 0.02347 0.0
C2437 C 0.53353 0.63578 0.01218 0.0
C2438 C 0.5433 0.63552 0.99625 0.0
C2439 C 0.55203 0.62015 0.99157 0.0
C2440 C 0.55128 0.60556 1.00281 0.0
C2441 C 0.51489 0.5251 0.02628 0.0
C2442 C 0.53233 0.54185 0.97699 0.0
C2443 C 0.54939 0.48383 0.99961 0.0
C2444 C 0.54802 0.46897 0.01205 0.0
C2445 C 0.55951 0.45592 0.01073 0.0
C2446 C 0.55855 0.44198 0.02277 0.0
C2447 C 0.54596 0.44079 0.03622 0.0
C2448 C 0.53463 0.45412 0.03766 0.0
C2449 C 0.53576 0.46819 0.0258 0.0
C2450 C 0.57568 0.54976 1.00391 0.0
C2451 C 0.55829 0.53287 0.05324 0.0
O2452 O 0.52653 0.57674 0.02736 0.0
O2453 O 0.55603 0.58463 0.03333 0.0
O2454 O 0.52115 0.54058 0.03936 0.0
O2455 O 0.52355 0.52725 0.01194 0.0
O2456 O 0.53525 0.55617 0.99222 0.0
O2457 O 0.53591 0.52479 0.97933 0.0
O2458 O 0.56411 0.49806 1.00358 0.0
O2459 O 0.53472 0.49031 0.9963 0.0
O2460 O 0.56939 0.53429 0.99082 0.0
O2461 O 0.5671 0.54761 0.01832 0.0
O2462 O 0.55538 0.5186 0.03798 0.0
O2463 O 0.55465 0.54994 0.05096 0.0
H2464 H 0.52534 0.62171 0.03576 0.0
H2465 H 0.52646 0.64729 0.01596 0.0
H2466 H 0.55985 0.61967 0.97953 0.0
H2467 H 0.55825 0.59395 0.99901 0.0
H2468 H 0.56926 0.45657 1.00043 0.0
H2469 H 0.56768 0.43215 0.02154 0.0
H2470 H 0.5246 0.45346 0.04765 0.0
H2471 H 0.52694 0.47835 0.02733 0.0
La2472 La 0.81167 0.29987 0.26503 0.0
La2473 La 0.77779 0.27006 0.26336 0.0
C2474 C 0.84329 0.32107 0.27445 0.0
C2475 C 0.86118 0.31638 0.27686 0.0
C2476 C 0.87444 0.32334 0.26541 0.0
C2477 C 0.8913 0.31846 0.26711 0.0
C2478 C 0.89515 0.30666 0.2804 0.0
C2479 C 0.88179 0.29957 0.29175 0.0
C2480 C 0.86492 0.3043 0.28994 0.0
C2481 C 0.79628 0.28266 0.23052 0.0
C2482 C 0.81404 0.25349 0.2657 0.0
C2483 C 0.74644 0.24894 0.25233 0.0
C2484 C 0.72845 0.25352 0.25003 0.0
C2485 C 0.71535 0.24675 0.26176 0.0
C2486 C 0.69834 0.25131 0.25994 0.0
C2487 C 0.69421 0.2625 0.24622 0.0
C2488 C 0.70737 0.26953 0.23469 0.0
C2489 C 0.72439 0.26514 0.23661 0.0
C2490 C 0.79305 0.28609 0.29809 0.0
C2491 C 0.7756 0.31669 0.26312 0.0
O2492 O 0.83503 0.3171 0.25686 0.0
O2493 O 0.83222 0.31565 0.28681 0.0
O2494 O 0.80423 0.30119 0.23479 0.0
O2495 O 0.7979 0.27485 0.24501 0.0
O2496 O 0.82261 0.27271 0.26911 0.0
O2497 O 0.79589 0.24879 0.26147 0.0
O2498 O 0.75431 0.25173 0.27002 0.0
O2499 O 0.75781 0.2554 0.24057 0.0
O2500 O 0.78441 0.26778 0.2932 0.0
O2501 O 0.79187 0.29475 0.28399 0.0
O2502 O 0.7669 0.29754 0.26065 0.0
O2503 O 0.79381 0.32128 0.26627 0.0
H2504 H 0.87171 0.33247 0.25509 0.0
H2505 H 0.90133 0.32393 0.25806 0.0
H2506 H 0.8845 0.29071 0.30233 0.0
H2507 H 0.85488 0.29854 0.29886 0.0
H2508 H 0.71824 0.23788 0.27227 0.0
H2509 H 0.68823 0.24562 0.26883 0.0
H2510 H 0.70441 0.27828 0.22409 0.0
H2511 H 0.73429 0.27081 0.22751 0.0
La2512 La 0.05136 0.53263 0.53372 0.0
La2513 La 0.04047 0.53913 0.49286 0.0
C2514 C 0.05289 0.5233 0.56603 0.0
C2515 C 0.03839 0.51547 0.57664 0.0
C2516 C 0.03991 0.49986 0.58612 0.0
C2517 C 0.02572 0.49169 0.5957 0.0
C2518 C 0.01 0.4991 0.59567 0.0
C2519 C 0.00788 0.51352 0.58475 0.0
C2520 C 0.02214 0.52186 0.57547 0.0
C2521 C 0.0619 0.51102 0.50575 0.0
C2522 C 0.00988 0.52033 0.5142 0.0
C2523 C 0.04153 0.53862 0.45797 0.0
C2524 C 0.05511 0.55178 0.44961 0.0
C2525 C 0.04987 0.56025 0.43414 0.0
C2526 C 0.06319 0.57183 0.42566 0.0
C2527 C 0.08175 0.57522 0.43291 0.0
C2528 C 0.08664 0.56863 0.44973 0.0
C2529 C 0.07354 0.55647 0.4576 0.0
C2530 C 0.0358 0.56811 0.5184 0.0
C2531 C 0.07914 0.56078 0.51742 0.0
O2532 O 0.05342 0.51127 0.55034 0.0
O2533 O 0.05452 0.5416 0.5635 0.0
O2534 O 0.07187 0.51961 0.52169 0.0
O2535 O 0.04643 0.51512 0.50543 0.0
O2536 O 0.0218 0.52495 0.52991 0.0
O2537 O 0.01452 0.52165 0.49689 0.0
O2538 O 0.03039 0.54704 0.46739 0.0
O2539 O 0.04805 0.52654 0.4673 0.0
O2540 O 0.03256 0.56731 0.5001 0.0
O2541 O 0.0416 0.5534 0.52096 0.0
O2542 O 0.06941 0.55343 0.50047 0.0
O2543 O 0.07309 0.55741 0.53367 0.0
H2544 H 0.05223 0.49442 0.58653 0.0
H2545 H 0.02763 0.48079 0.60438 0.0
H2546 H 0.99586 0.51951 0.58486 0.0
H2547 H 0.02074 0.53373 0.56797 0.0
H2548 H 0.03568 0.55708 0.42803 0.0
H2549 H 0.05912 0.57655 0.41248 0.0
H2550 H 0.10087 0.57094 0.45542 0.0
H2551 H 0.07818 0.54981 0.46918 0.0
La2552 La 0.77672 0.79038 0.26314 0.0
La2553 La 0.812 0.78205 0.26583 0.0
C2554 C 0.74408 0.79296 0.26724 0.0
C2555 C 0.73023 0.79358 0.28102 0.0
C2556 C 0.72039 0.80829 0.2814 0.0
C2557 C 0.70587 0.80836 0.29242 0.0
C2558 C 0.70056 0.79361 0.30346 0.0
C2559 C 0.71082 0.77915 0.30355 0.0
C2560 C 0.72541 0.7791 0.29245 0.0
C2561 C 0.8035 0.82185 0.25988 0.0
C2562 C 0.79806 0.79289 0.30422 0.0
C2563 C 0.84529 0.78228 0.26206 0.0
C2564 C 0.85862 0.77921 0.24821 0.0
C2565 C 0.87336 0.77143 0.25395 0.0
C2566 C 0.8876 0.77069 0.24266 0.0
C2567 C 0.8876 0.77765 0.22507 0.0
C2568 C 0.87246 0.78495 0.21904 0.0
C2569 C 0.85821 0.78579 0.23047 0.0
C2570 C 0.78548 0.75034 0.26903 0.0
C2571 C 0.78993 0.77806 0.22429 0.0
O2572 O 0.75797 0.80801 0.26919 0.0
O2573 O 0.74883 0.77647 0.26198 0.0
O2574 O 0.78759 0.816 0.24972 0.0
O2575 O 0.80405 0.80987 0.2716 0.0
O2576 O 0.78207 0.78861 0.2936 0.0
O2577 O 0.81316 0.79404 0.2961 0.0
O2578 O 0.83346 0.76709 0.26533 0.0
O2579 O 0.83812 0.79742 0.26181 0.0
O2580 O 0.80161 0.75602 0.27883 0.0
O2581 O 0.78466 0.76244 0.25744 0.0
O2582 O 0.80559 0.77934 0.23472 0.0
O2583 O 0.77537 0.78039 0.23243 0.0
H2584 H 0.72368 0.81962 0.27273 0.0
H2585 H 0.69872 0.82001 0.29214 0.0
H2586 H 0.70722 0.76744 0.31169 0.0
H2587 H 0.73262 0.76746 0.29248 0.0
H2588 H 0.87422 0.7665 0.26764 0.0
H2589 H 0.89898 0.76529 0.24818 0.0
H2590 H 0.87161 0.79017 0.20552 0.0
H2591 H 0.84709 0.79196 0.22561 0.0
La2592 La 0.8042 0.27844 0.74497 0.0
La2593 La 0.78762 0.28512 0.77945 0.0
C2594 C 0.82004 0.28061 0.71563 0.0
C2595 C 0.82604 0.29652 0.70519 0.0
C2596 C 0.84372 0.29968 0.70004 0.0
C2597 C 0.85 0.31493 0.69032 0.0
C2598 C 0.83854 0.32702 0.68545 0.0
C2599 C 0.82118 0.32453 0.69167 0.0
C2600 C 0.815 0.30943 0.70162 0.0
C2601 C 0.82411 0.27416 0.77625 0.0
C2602 C 0.80556 0.32111 0.76411 0.0
C2603 C 0.78084 0.28558 0.81312 0.0
C2604 C 0.76613 0.27404 0.82158 0.0
C2605 C 0.75755 0.28373 0.83534 0.0
C2606 C 0.74725 0.27309 0.84717 0.0
C2607 C 0.74602 0.25283 0.84558 0.0
C2608 C 0.75197 0.24276 0.82975 0.0
C2609 C 0.76202 0.25337 0.81772 0.0
C2610 C 0.76105 0.2835 0.75137 0.0
C2611 C 0.78301 0.24238 0.75643 0.0
O2612 O 0.82856 0.28363 0.73293 0.0
O2613 O 0.80242 0.27362 0.71491 0.0
O2614 O 0.82039 0.26216 0.7601 0.0
O2615 O 0.81575 0.28775 0.77492 0.0
O2616 O 0.80468 0.30913 0.74795 0.0
O2617 O 0.80162 0.3149 0.77998 0.0
O2618 O 0.77627 0.29787 0.80265 0.0
O2619 O 0.79212 0.27588 0.80554 0.0
O2620 O 0.75976 0.28554 0.76944 0.0
O2621 O 0.77713 0.28162 0.74901 0.0
O2622 O 0.78404 0.25361 0.77319 0.0
O2623 O 0.78735 0.24954 0.74113 0.0
H2624 H 0.85259 0.29019 0.70334 0.0
H2625 H 0.86354 0.31678 0.68594 0.0
H2626 H 0.81196 0.33352 0.68795 0.0
H2627 H 0.8015 0.30758 0.7061 0.0
H2628 H 0.76018 0.29963 0.83812 0.0
H2629 H 0.74255 0.281 0.85926 0.0
H2630 H 0.75107 0.22711 0.82823 0.0
H2631 H 0.768 0.24549 0.80666 0.0
La2632 La 0.80496 0.80783 0.774 0.0
La2633 La 0.78644 0.76893 0.75639 0.0
C2634 C 0.81379 0.84449 0.78368 0.0
C2635 C 0.80292 0.85906 0.78193 0.0
C2636 C 0.80193 0.87258 0.79817 0.0
C2637 C 0.7907 0.88568 0.79696 0.0
C2638 C 0.78054 0.88548 0.77944 0.0
C2639 C 0.78134 0.87184 0.76325 0.0
C2640 C 0.79232 0.85859 0.76451 0.0
C2641 C 0.80378 0.7832 0.7989 0.0
C2642 C 0.76183 0.79557 0.76881 0.0
C2643 C 0.77651 0.73232 0.74612 0.0
C2644 C 0.78677 0.71725 0.74732 0.0
C2645 C 0.7839 0.70118 0.73237 0.0
C2646 C 0.79459 0.6875 0.73285 0.0
C2647 C 0.80826 0.6898 0.74831 0.0
C2648 C 0.81105 0.70595 0.76326 0.0
C2649 C 0.80048 0.71964 0.76272 0.0
C2650 C 0.78822 0.79409 0.73188 0.0
C2651 C 0.82967 0.78107 0.76185 0.0
O2652 O 0.80858 0.83262 0.79554 0.0
O2653 O 0.81733 0.83521 0.76762 0.0
O2654 O 0.81746 0.79751 0.79804 0.0
O2655 O 0.79102 0.78318 0.786 0.0
O2656 O 0.77651 0.80979 0.76964 0.0
O2657 O 0.76259 0.77709 0.7655 0.0
O2658 O 0.78202 0.74433 0.73448 0.0
O2659 O 0.77372 0.74158 0.76253 0.0
O2660 O 0.77407 0.78036 0.7328 0.0
O2661 O 0.80078 0.79332 0.74454 0.0
O2662 O 0.81487 0.76681 0.76035 0.0
O2663 O 0.82911 0.79961 0.76561 0.0
H2664 H 0.80974 0.87288 0.81179 0.0
H2665 H 0.79019 0.89617 0.80956 0.0
H2666 H 0.77338 0.87141 0.74967 0.0
H2667 H 0.79241 0.84793 0.75188 0.0
H2668 H 0.77357 0.69939 0.72024 0.0
H2669 H 0.79233 0.67528 0.72103 0.0
H2670 H 0.8213 0.70793 0.77551 0.0
H2671 H 0.80309 0.73212 0.77431 0.0
La2672 La 0.52795 0.52643 0.50298 0.0
La2673 La 0.56259 0.54702 0.52583 0.0
C2674 C 0.49421 0.5131 0.49317 0.0
C2675 C 0.47843 0.52157 0.49514 0.0
C2676 C 0.46161 0.51171 0.48458 0.0
C2677 C 0.4469 0.5206 0.48476 0.0
C2678 C 0.44897 0.53951 0.49539 0.0
C2679 C 0.46585 0.54929 0.5061 0.0
C2680 C 0.48051 0.54035 0.506 0.0
C2681 C 0.55291 0.52532 0.47767 0.0
C2682 C 0.54056 0.57305 0.50612 0.0
C2683 C 0.59647 0.55912 0.53539 0.0
C2684 C 0.61149 0.54961 0.53221 0.0
C2685 C 0.62821 0.55681 0.54389 0.0
C2686 C 0.64198 0.54662 0.5423 0.0
C2687 C 0.63912 0.52906 0.52902 0.0
C2688 C 0.62234 0.52197 0.51721 0.0
C2689 C 0.60858 0.53214 0.51886 0.0
C2690 C 0.53766 0.54855 0.55108 0.0
C2691 C 0.54994 0.50027 0.52249 0.0
O2692 O 0.50537 0.5212 0.48214 0.0
O2693 O 0.50283 0.51057 0.50905 0.0
O2694 O 0.53571 0.51712 0.47463 0.0
O2695 O 0.55604 0.5332 0.49567 0.0
O2696 O 0.52723 0.55702 0.50106 0.0
O2697 O 0.5562 0.5727 0.51568 0.0
O2698 O 0.58527 0.551 0.54637 0.0
O2699 O 0.58784 0.56291 0.52014 0.0
O2700 O 0.55478 0.55723 0.55395 0.0
O2701 O 0.53448 0.54049 0.53313 0.0
O2702 O 0.56299 0.51646 0.52811 0.0
O2703 O 0.5346 0.50053 0.51233 0.0
H2704 H 0.45997 0.49734 0.4759 0.0
H2705 H 0.43403 0.51289 0.47629 0.0
H2706 H 0.46766 0.5638 0.51458 0.0
H2707 H 0.49352 0.54818 0.51411 0.0
H2708 H 0.6305 0.57012 0.55445 0.0
H2709 H 0.65486 0.55247 0.55142 0.0
H2710 H 0.61972 0.50835 0.50704 0.0
H2711 H 0.59554 0.52616 0.51004 0.0
La2712 La 0.0657 0.53758 0.01322 0.0
La2713 La 0.02411 0.53499 0.01355 0.0
C2714 C 0.09806 0.53309 0.01834 0.0
C2715 C 0.1092 0.51801 0.01612 0.0
C2716 C 0.11471 0.51165 0.99828 0.0
C2717 C 0.12727 0.49966 0.99683 0.0
C2718 C 0.13483 0.49374 0.01318 0.0
C2719 C 0.1289 0.49971 0.03092 0.0
C2720 C 0.11633 0.51167 0.03236 0.0
C2721 C 0.0469 0.53787 0.98092 0.0
C2722 C 0.03677 0.49566 0.00794 0.0
C2723 C 0.99199 0.53952 0.00675 0.0
C2724 C 0.98061 0.55429 0.00989 0.0
C2725 C 0.97523 0.56005 0.02799 0.0
C2726 C 0.96254 0.57189 0.03001 0.0
C2727 C 0.95473 0.57798 0.01396 0.0
C2728 C 0.96043 0.57266 0.99603 0.0
C2729 C 0.97325 0.56107 0.99404 0.0
C2730 C 0.04277 0.53497 0.0461 0.0
C2731 C 0.05338 0.57717 0.02019 0.0
O2732 O 0.09078 0.5376 1.00271 0.0
O2733 O 0.08715 0.53281 0.0317 0.0
O2734 O 0.06373 0.54744 0.98564 0.0
O2735 O 0.04162 0.52782 0.99325 0.0
O2736 O 0.05374 0.50632 0.01327 0.0
O2737 O 0.02291 0.50384 1.00421 0.0
O2738 O 0.99774 0.53255 0.0216 0.0
O2739 O 1.00428 0.54216 0.99487 0.0
O2740 O 0.02565 0.52614 0.04171 0.0
O2741 O 0.04808 0.54451 0.03341 0.0
O2742 O 0.03618 0.56676 0.01621 0.0
O2743 O 0.06746 0.5689 0.02199 0.0
H2744 H 0.1097 0.51633 0.98543 0.0
H2745 H 0.13118 0.49521 0.98285 0.0
H2746 H 0.13451 0.4958 0.04393 0.0
H2747 H 0.11267 0.51651 0.04637 0.0
H2748 H 0.98039 0.55495 0.04052 0.0
H2749 H 0.9583 0.57563 0.04398 0.0
H2750 H 0.95469 0.5772 0.98343 0.0
H2751 H 0.97694 0.55683 0.9799 0.0
C2752 C 0.02188 0.17676 0.98208 0.0
C2753 C 0.02366 0.17767 0.96272 0.0
C2754 C 0.02483 0.16047 0.99022 0.0
C2755 C 0.02933 0.14439 0.97869 0.0
C2756 C 0.03105 0.14531 0.95908 0.0
C2757 C 0.0284 0.16194 0.95144 0.0
C2758 C 0.02328 0.16054 0.01124 0.0
C2759 C 0.03557 0.12859 0.94608 0.0
C2760 C 0.05184 0.10785 1.0012 0.0
C2761 C 0.03706 0.09163 1.00034 0.0
C2762 C 0.04951 0.12515 0.9946 0.0
C2763 C 0.03194 0.12649 0.9869 0.0
C2764 C 0.01692 0.11033 0.98642 0.0
C2765 C 0.01965 0.09322 0.99305 0.0
C2766 C 0.06595 0.14192 0.99562 0.0
C2767 C 0.99791 0.11095 0.97856 0.0
H2768 H 0.01841 0.18895 0.99093 0.0
H2769 H 0.02983 0.16256 0.93649 0.0
H2770 H 0.01303 0.14736 0.0131 0.0
H2771 H 0.03654 0.15985 0.01878 0.0
H2772 H 0.01933 0.17387 0.01821 0.0
H2773 H 0.03642 0.13145 0.93121 0.0
H2774 H 0.0488 0.12602 0.9518 0.0
H2775 H 0.025 0.11487 0.94562 0.0
H2776 H 0.06538 0.10695 0.00675 0.0
H2777 H 0.00804 0.08094 0.99232 0.0
H2778 H 0.06363 0.15552 1.00397 0.0
H2779 H 0.06806 0.14482 0.98098 0.0
H2780 H 0.0786 0.13886 1.00237 0.0
H2781 H 0.99395 0.12377 0.98657 0.0
H2782 H 0.9876 0.09741 0.9795 0.0
H2783 H 0.99759 0.1128 0.96332 0.0
C2784 C 0.1808 0.81609 0.17984 0.0
C2785 C 0.16461 0.80117 0.17687 0.0
C2786 C 0.19697 0.81423 0.19033 0.0
C2787 C 0.19721 0.79709 0.19838 0.0
C2788 C 0.18093 0.78199 0.19546 0.0
C2789 C 0.165 0.78416 0.18479 0.0
C2790 C 0.21389 0.83072 0.19287 0.0
C2791 C 0.18017 0.76364 0.20402 0.0
C2792 C 0.24331 0.78549 0.21463 0.0
C2793 C 0.2464 0.79379 0.23421 0.0
C2794 C 0.22751 0.78651 0.20279 0.0
C2795 C 0.2141 0.79549 0.21072 0.0
C2796 C 0.21697 0.80329 0.23062 0.0
C2797 C 0.23304 0.80261 0.24193 0.0
C2798 C 0.22534 0.77831 0.18165 0.0
C2799 C 0.20306 0.81253 0.24006 0.0
H2800 H 0.18096 0.82922 0.1737 0.0
H2801 H 0.15266 0.77259 0.18301 0.0
H2802 H 0.21783 0.83706 0.20832 0.0
H2803 H 0.22544 0.82496 0.18773 0.0
H2804 H 0.21189 0.84266 0.18501 0.0
H2805 H 0.16685 0.7528 0.19971 0.0
H2806 H 0.19119 0.75655 0.19955 0.0
H2807 H 0.18244 0.76756 0.2199 0.0
H2808 H 0.25345 0.77866 0.20845 0.0
H2809 H 0.23507 0.80894 0.25705 0.0
H2810 H 0.2244 0.79012 0.17325 0.0
H2811 H 0.21245 0.7668 0.17758 0.0
H2812 H 0.23689 0.77188 0.17757 0.0
H2813 H 0.20194 0.8259 0.23414 0.0
H2814 H 0.20664 0.81669 0.25587 0.0
H2815 H 0.18941 0.80221 0.23694 0.0
C2816 C 0.53586 0.88624 0.46387 0.0
C2817 C 0.5263 0.87141 0.47272 0.0
C2818 C 0.53717 0.90622 0.47089 0.0
C2819 C 0.52881 0.91165 0.48728 0.0
C2820 C 0.51944 0.89681 0.49655 0.0
C2821 C 0.51821 0.8769 0.48911 0.0
C2822 C 0.54722 0.92153 0.46051 0.0
C2823 C 0.5106 0.90196 0.51422 0.0
C2824 C 0.54663 0.96479 0.51244 0.0
C2825 C 0.53356 0.97395 0.505 0.0
C2826 C 0.54486 0.94444 0.50746 0.0
C2827 C 0.52976 0.93288 0.49447 0.0
C2828 C 0.51618 0.94192 0.4874 0.0
C2829 C 0.51817 0.96232 0.49284 0.0
C2830 C 0.55952 0.93546 0.51564 0.0
C2831 C 0.49992 0.93017 0.47344 0.0
H2832 H 0.54192 0.88221 0.45105 0.0
H2833 H 0.51095 0.86558 0.49617 0.0
H2834 H 0.53781 0.93018 0.45533 0.0
H2835 H 0.55846 0.93194 0.47048 0.0
H2836 H 0.55308 0.91493 0.44805 0.0
H2837 H 0.50468 0.8888 0.52035 0.0
H2838 H 0.52074 0.91242 0.52536 0.0
H2839 H 0.49957 0.90937 0.51064 0.0
H2840 H 0.5585 0.97362 0.52198 0.0
H2841 H 0.50805 0.96926 0.48693 0.0
H2842 H 0.56706 0.93022 0.504 0.0
H2843 H 0.5533 0.92253 0.52191 0.0
H2844 H 0.56945 0.94609 0.52688 0.0
H2845 H 0.5046 0.92439 0.45985 0.0
H2846 H 0.49002 0.93908 0.47015 0.0
H2847 H 0.49278 0.91734 0.47929 0.0
C2848 C 0.4702 0.29208 0.65821 0.0
C2849 C 0.48547 0.28624 0.66607 0.0
C2850 C 0.45389 0.28988 0.66679 0.0
C2851 C 0.45259 0.28165 0.68376 0.0
C2852 C 0.46772 0.27519 0.69145 0.0
C2853 C 0.48386 0.27755 0.68259 0.0
C2854 C 0.43812 0.29676 0.65788 0.0
C2855 C 0.46703 0.26621 0.7094 0.0
C2856 C 0.42007 0.29745 0.718 0.0
C2857 C 0.40499 0.28121 0.71446 0.0
C2858 C 0.4355 0.29767 0.70821 0.0
C2859 C 0.43607 0.28127 0.6943 0.0
C2860 C 0.42094 0.26475 0.69067 0.0
C2861 C 0.40568 0.26487 0.70082 0.0
C2862 C 0.45128 0.31553 0.71282 0.0
C2863 C 0.42074 0.24701 0.67586 0.0
H2864 H 0.47095 0.29838 0.64526 0.0
H2865 H 0.49546 0.27307 0.689 0.0
H2866 H 0.42552 0.28479 0.6554 0.0
H2867 H 0.43551 0.3092 0.66786 0.0
H2868 H 0.44074 0.30162 0.64403 0.0
H2869 H 0.47958 0.26118 0.71318 0.0
H2870 H 0.46527 0.27714 0.7216 0.0
H2871 H 0.45509 0.25351 0.7075 0.0
H2872 H 0.41994 0.31004 0.72871 0.0
H2873 H 0.39411 0.25229 0.69781 0.0
H2874 H 0.45369 0.32198 0.69973 0.0
H2875 H 0.46393 0.31122 0.71773 0.0
H2876 H 0.44886 0.32701 0.72412 0.0
H2877 H 0.42099 0.25123 0.66146 0.0
H2878 H 0.40848 0.23494 0.67542 0.0
H2879 H 0.43311 0.24142 0.67886 0.0
C2880 C 0.03466 0.84214 0.58126 0.0
C2881 C 0.02139 0.84153 0.59383 0.0
C2882 C 0.03907 0.85795 0.5715 0.0
C2883 C 0.03023 0.87359 0.57477 0.0
C2884 C 0.0171 0.8732 0.58778 0.0
C2885 C 0.0127 0.85703 0.59705 0.0
C2886 C 0.05295 0.85779 0.5575 0.0
C2887 C 0.00762 0.8898 0.59179 0.0
C2888 C 0.05144 0.92212 0.56055 0.0
C2889 C 0.04039 0.92101 0.54341 0.0
C2890 C 0.04832 0.90672 0.57102 0.0
C2891 C 0.03402 0.88989 0.56386 0.0
C2892 C 0.02306 0.88868 0.54632 0.0
C2893 C 0.0263 0.90442 0.53636 0.0
C2894 C 0.06008 0.90857 0.58981 0.0
C2895 C 0.00791 0.87081 0.53811 0.0
H2896 H 0.04131 0.83005 0.5788 0.0
H2897 H 1.00261 0.85657 0.607 0.0
H2898 H 0.04687 0.85921 0.54314 0.0
H2899 H 0.06474 0.87055 0.56226 0.0
H2900 H 0.05804 0.84413 0.55608 0.0
H2901 H 0.99838 0.88763 0.60299 0.0
H2902 H 0.01788 0.90393 0.59655 0.0
H2903 H 0.99949 0.89106 0.57847 0.0
H2904 H 0.06228 0.93515 0.56586 0.0
H2905 H 0.01787 0.90379 0.52301 0.0
H2906 H 0.06717 0.89638 0.58918 0.0
H2907 H 0.05141 0.90739 0.60158 0.0
H2908 H 0.07049 0.92274 0.59342 0.0
H2909 H 0.01346 0.85746 0.53625 0.0
H2910 H 1.00103 0.87202 0.52403 0.0
H2911 H 0.99756 0.8687 0.54819 0.0
C2912 C 0.49173 0.8164 0.8248 0.0
C2913 C 0.50271 0.80509 0.81595 0.0
C2914 C 0.47394 0.8149 0.81663 0.0
C2915 C 0.46704 0.8018 0.79916 0.0
C2916 C 0.47801 0.79028 0.79014 0.0
C2917 C 0.49581 0.79198 0.79876 0.0
C2918 C 0.46251 0.82727 0.82678 0.0
C2919 C 0.47098 0.77632 0.77142 0.0
C2920 C 0.4158 0.78969 0.79167 0.0
C2921 C 0.41266 0.80422 0.78134 0.0
C2922 C 0.43352 0.78764 0.79634 0.0
C2923 C 0.44829 0.80046 0.79051 0.0
C2924 C 0.44504 0.8141 0.77878 0.0
C2925 C 0.42717 0.81584 0.77431 0.0
C2926 C 0.4365 0.77285 0.8088 0.0
C2927 C 0.46053 0.82798 0.77231 0.0
H2928 H 0.49702 0.82623 0.83832 0.0
H2929 H 0.50439 0.78326 0.792 0.0
H2930 H 0.45818 0.83694 0.81728 0.0
H2931 H 0.44996 0.81765 0.83016 0.0
H2932 H 0.46999 0.83662 0.84034 0.0
H2933 H 0.48115 0.76811 0.76649 0.0
H2934 H 0.45833 0.76561 0.77296 0.0
H2935 H 0.46741 0.78461 0.76017 0.0
H2936 H 0.40445 0.7805 0.79679 0.0
H2937 H 0.42469 0.82712 0.76636 0.0
H2938 H 0.44226 0.78067 0.82353 0.0
H2939 H 0.44644 0.76468 0.80327 0.0
H2940 H 0.42358 0.76214 0.80966 0.0
H2941 H 0.46774 0.83932 0.78474 0.0
H2942 H 0.45563 0.83553 0.76099 0.0
H2943 H 0.47061 0.82 0.76676 0.0
C2944 C 0.51556 0.14859 0.09848 0.0
C2945 C 0.50254 0.15776 0.09092 0.0
C2946 C 0.52051 0.133 0.08734 0.0
C2947 C 0.51165 0.12581 0.06845 0.0
C2948 C 0.49732 0.13372 0.06132 0.0
C2949 C 0.49312 0.14984 0.07253 0.0
C2950 C 0.53596 0.12503 0.09541 0.0
C2951 C 0.48704 0.12578 0.04151 0.0
C2952 C 0.53879 0.10405 0.03222 0.0
C2953 C 0.53253 0.08398 0.03215 0.0
C2954 C 0.53205 0.11784 0.04403 0.0
C2955 C 0.51851 0.11126 0.05567 0.0
C2956 C 0.51197 0.09093 0.05543 0.0
C2957 C 0.51921 0.07753 0.04378 0.0
C2958 C 0.53951 0.13945 0.04415 0.0
C2959 C 0.49725 0.08334 0.0673 0.0
H2960 H 0.52241 0.15402 0.11295 0.0
H2961 H 0.48301 0.15671 0.06649 0.0
H2962 H 0.53172 0.10883 0.09402 0.0
H2963 H 0.54766 0.12835 0.0871 0.0
H2964 H 0.5407 0.13146 0.11075 0.0
H2965 H 0.47479 0.13177 0.03909 0.0
H2966 H 0.49613 0.12968 0.03057 0.0
H2967 H 0.48269 0.10951 0.03923 0.0
H2968 H 0.54903 0.10894 0.02314 0.0
H2969 H 0.51413 0.06192 0.04349 0.0
H2970 H 0.5454 0.14701 0.05893 0.0
H2971 H 0.52832 0.14624 0.03958 0.0
H2972 H 0.55022 0.1421 0.0345 0.0
H2973 H 0.50204 0.08883 0.08277 0.0
H2974 H 0.49325 0.06702 0.06491 0.0
H2975 H 0.48497 0.08891 0.06378 0.0
C2976 C 0.16506 0.30545 0.29988 0.0
C2977 C 0.16967 0.31545 0.31884 0.0
C2978 C 0.17866 0.3027 0.28836 0.0
C2979 C 0.19717 0.30978 0.29625 0.0
C2980 C 0.20186 0.32059 0.31517 0.0
C2981 C 0.18797 0.32347 0.32622 0.0
C2982 C 0.17322 0.29139 0.26814 0.0
C2983 C 0.22149 0.32793 0.32421 0.0
C2984 C 0.23145 0.28161 0.27999 0.0
C2985 C 0.24227 0.29495 0.27058 0.0
C2986 C 0.21631 0.28603 0.28791 0.0
C2987 C 0.2116 0.30391 0.28574 0.0
C2988 C 0.2217 0.31676 0.27502 0.0
C2989 C 0.23722 0.31229 0.26783 0.0
C2990 C 0.2062 0.27224 0.29977 0.0
C2991 C 0.21658 0.33557 0.27189 0.0
H2992 H 0.15082 0.2994 0.29423 0.0
H2993 H 0.1914 0.33106 0.34097 0.0
H2994 H 0.18146 0.29885 0.25806 0.0
H2995 H 0.17589 0.27653 0.26744 0.0
H2996 H 0.15851 0.28969 0.26323 0.0
H2997 H 0.22279 0.33711 0.33862 0.0
H2998 H 0.22755 0.31522 0.3257 0.0
H2999 H 0.22963 0.33671 0.31493 0.0
H3000 H 0.23555 0.26832 0.28236 0.0
H3001 H 0.24565 0.32253 0.2605 0.0
H3002 H 0.19139 0.26813 0.2946 0.0
H3003 H 0.20787 0.27975 0.31493 0.0
H3004 H 0.21121 0.25858 0.29939 0.0
H3005 H 0.20186 0.33256 0.26645 0.0
H3006 H 0.22467 0.34286 0.26158 0.0
H3007 H 0.21889 0.34592 0.28572 0.0
C3008 C 0.97574 0.06365 0.14264 0.0
C3009 C 0.97951 0.05323 0.15754 0.0
C3010 C 0.98387 0.06238 0.12502 0.0
C3011 C 0.99656 0.0504 0.12125 0.0
C3012 C 1.00055 0.03994 0.1362 0.0
C3013 C 0.99214 0.04137 0.15366 0.0
C3014 C 0.97881 0.0741 0.11025 0.0
C3015 C 0.01408 0.02726 0.1339 0.0
C3016 C 0.00834 0.03537 0.06809 0.0
C3017 C 0.02517 0.04863 0.06744 0.0
C3018 C 0.99904 0.03571 0.08509 0.0
C3019 C 1.00625 0.04968 0.10241 0.0
C3020 C 0.02307 0.06314 0.10158 0.0
C3021 C 0.03207 0.06236 0.08464 0.0
C3022 C 0.98147 0.02069 0.08462 0.0
C3023 C 0.03187 0.07856 0.11885 0.0
H3024 H 0.96609 0.07281 0.14454 0.0
H3025 H 0.99588 0.03328 0.16453 0.0
H3026 H 0.99118 0.08459 0.10766 0.0
H3027 H 0.97315 0.06413 0.09642 0.0
H3028 H 0.96861 0.08246 0.11472 0.0
H3029 H 0.01514 0.01905 0.14593 0.0
H3030 H 0.01013 0.0166 0.12023 0.0
H3031 H 0.02777 0.03657 0.13318 0.0
H3032 H 1.00259 0.02434 0.05549 0.0
H3033 H 0.04497 0.07278 0.08498 0.0
H3034 H 0.97044 0.02819 0.08815 0.0
H3035 H 0.98307 0.01149 0.0957 0.0
H3036 H 0.97722 0.01097 0.07041 0.0
H3037 H 0.02247 0.08812 0.12276 0.0
H3038 H 0.04495 0.08793 0.1163 0.0
H3039 H 0.03454 0.07144 0.13134 0.0
C3040 C 0.2627 0.71827 0.44824 0.0
C3041 C 0.2739 0.70497 0.44747 0.0
C3042 C 0.2583 0.72602 0.43204 0.0
C3043 C 0.2652 0.72001 0.41489 0.0
C3044 C 0.27693 0.70696 0.4142 0.0
C3045 C 0.28123 0.6996 0.43067 0.0
C3046 C 0.24601 0.74022 0.43314 0.0
C3047 C 0.28453 0.70044 0.396 0.0
C3048 C 0.24131 0.72423 0.36755 0.0
C3049 C 0.25273 0.74125 0.36401 0.0
C3050 C 0.24497 0.71727 0.3845 0.0
C3051 C 0.26043 0.72766 0.39765 0.0
C3052 C 0.27181 0.74503 0.39408 0.0
C3053 C 0.26774 0.75167 0.37718 0.0
C3054 C 0.23264 0.69869 0.38814 0.0
C3055 C 0.28847 0.75628 0.40781 0.0
H3056 H 0.25714 0.7223 0.46141 0.0
H3057 H 0.28971 0.68905 0.43022 0.0
H3058 H 0.2526 0.7539 0.42824 0.0
H3059 H 0.23311 0.73361 0.42344 0.0
H3060 H 0.24264 0.74413 0.44791 0.0
H3061 H 0.29376 0.69051 0.3981 0.0
H3062 H 0.27317 0.69265 0.38463 0.0
H3063 H 0.29219 0.71341 0.39072 0.0
H3064 H 0.22981 0.71635 0.35702 0.0
H3065 H 0.27648 0.76482 0.374 0.0
H3066 H 0.22752 0.70145 0.4022 0.0
H3067 H 0.24047 0.6872 0.38878 0.0
H3068 H 0.22077 0.69293 0.3768 0.0
H3069 H 0.28455 0.76038 0.42227 0.0
H3070 H 0.2955 0.76987 0.40299 0.0
H3071 H 0.29829 0.74687 0.40923 0.0
C3072 C 0.60296 0.0542 0.64869 0.0
C3073 C 0.61328 0.04008 0.6491 0.0
C3074 C 0.59187 0.05446 0.632 0.0
C3075 C 0.59138 0.04039 0.61546 0.0
C3076 C 0.60228 0.02654 0.61564 0.0
C3077 C 0.61306 0.02645 0.6326 0.0
C3078 C 0.58033 0.06939 0.6322 0.0
C3079 C 0.60234 0.01166 0.59802 0.0
C3080 C 0.54992 0.02704 0.57821 0.0
C3081 C 0.55621 0.03817 0.56451 0.0
C3082 C 0.56124 0.02779 0.59509 0.0
C3083 C 0.57916 0.03986 0.59803 0.0
C3084 C 0.58552 0.05121 0.58424 0.0
C3085 C 0.57383 0.05038 0.56767 0.0
C3086 C 0.55409 0.01564 0.60971 0.0
C3087 C 0.60463 0.06411 0.58693 0.0
H3088 H 0.60311 0.06459 0.66162 0.0
H3089 H 0.62123 0.01567 0.63306 0.0
H3090 H 0.58323 0.07806 0.62061 0.0
H3091 H 0.56566 0.06172 0.6294 0.0
H3092 H 0.58275 0.07967 0.64612 0.0
H3093 H 0.61213 1.00238 0.60043 0.0
H3094 H 0.58848 1.00196 0.59371 0.0
H3095 H 0.60596 0.01926 0.58585 0.0
H3096 H 0.53623 0.01769 0.57569 0.0
H3097 H 0.57857 0.05922 0.55713 0.0
H3098 H 0.55482 0.02532 0.62371 0.0
H3099 H 0.56271 1.00516 0.61194 0.0
H3100 H 0.53974 0.0072 0.60527 0.0
H3101 H 0.60649 0.07564 0.59985 0.0
H3102 H 0.60763 0.07136 0.57438 0.0
H3103 H 0.61479 0.05527 0.5893 0.0
C3104 C 0.2842 0.31316 0.91585 0.0
C3105 C 0.29938 0.32664 0.9268 0.0
C3106 C 0.28403 0.30668 0.89602 0.0
C3107 C 0.29932 0.31399 0.88677 0.0
C3108 C 0.31468 0.32752 0.89777 0.0
C3109 C 0.31454 0.3336 0.91754 0.0
C3110 C 0.26745 0.29206 0.88493 0.0
C3111 C 0.33113 0.33605 0.88856 0.0
C3112 C 0.30651 0.28845 0.83741 0.0
C3113 C 0.29893 0.29912 0.82513 0.0
C3114 C 0.30629 0.29272 0.85745 0.0
C3115 C 0.29891 0.30849 0.86544 0.0
C3116 C 0.29157 0.3195 0.85301 0.0
C3117 C 0.29138 0.31447 0.83307 0.0
C3118 C 0.31369 0.2802 0.87007 0.0
C3119 C 0.284 0.33673 0.86077 0.0
H3120 H 0.27247 0.30753 0.92281 0.0
H3121 H 0.32621 0.34431 0.92567 0.0
H3122 H 0.26119 0.29867 0.87365 0.0
H3123 H 0.27152 0.27899 0.87759 0.0
H3124 H 0.25697 0.28718 0.89429 0.0
H3125 H 0.34219 0.34598 0.89916 0.0
H3126 H 0.33662 0.32409 0.88108 0.0
H3127 H 0.32707 0.34445 0.8776 0.0
H3128 H 0.31211 0.27639 0.83131 0.0
H3129 H 0.28553 0.3228 0.82362 0.0
H3130 H 0.30288 0.27346 0.87823 0.0
H3131 H 0.32508 0.28943 0.8807 0.0
H3132 H 0.31869 0.26831 0.86168 0.0
H3133 H 0.27219 0.33168 0.86843 0.0
H3134 H 0.27952 0.34431 0.84928 0.0
H3135 H 0.2945 0.34752 0.8713 0.0
C3136 C 0.97414 0.04316 0.37311 0.0
C3137 C 0.98358 0.05514 0.36123 0.0
C3138 C 0.98216 0.0413 0.39156 0.0
C3139 C 1.00055 0.05122 0.39888 0.0
C3140 C 0.01026 0.06323 0.38692 0.0
C3141 C 1.00175 0.06519 0.36867 0.0
C3142 C 0.9707 0.02871 0.40339 0.0
C3143 C 0.02997 0.07369 0.39317 0.0
C3144 C 0.01712 0.05977 0.45421 0.0
C3145 C 0.02485 0.04369 0.45655 0.0
C3146 C 0.00936 0.06238 0.43592 0.0
C3147 C 0.00944 0.04893 0.41881 0.0
C3148 C 0.01771 0.03298 0.42103 0.0
C3149 C 0.02495 0.03044 0.43956 0.0
C3150 C 1.00076 0.07956 0.43501 0.0
C3151 C 0.01906 0.0185 0.40366 0.0
H3152 H 0.96013 0.03537 0.36814 0.0
H3153 H 0.00959 0.07435 0.35998 0.0
H3154 H 0.97686 0.01632 0.40591 0.0
H3155 H 0.9704 0.03748 0.41763 0.0
H3156 H 0.95646 0.02262 0.39635 0.0
H3157 H 0.03539 0.08363 0.38327 0.0
H3158 H 0.03165 0.08241 0.40782 0.0
H3159 H 0.03834 0.06268 0.39372 0.0
H3160 H 0.01679 0.07029 0.46687 0.0
H3161 H 0.0309 0.018 0.44069 0.0
H3162 H 0.98633 0.07421 0.4284 0.0
H3163 H 0.00794 0.08924 0.42579 0.0
H3164 H 1.00119 0.08844 0.4494 0.0
H3165 H 1.00519 0.01049 0.39672 0.0
H3166 H 0.02678 0.00762 0.40731 0.0
H3167 H 0.02589 0.02644 0.39297 0.0
C3168 C 0.27098 0.70805 0.63188 0.0
C3169 C 0.2843 0.71253 0.61967 0.0
C3170 C 0.27141 0.7205 0.64924 0.0
C3171 C 0.28579 0.7375 0.65472 0.0
C3172 C 0.29906 0.74236 0.64236 0.0
C3173 C 0.298 0.72994 0.62482 0.0
C3174 C 0.25687 0.71507 0.66202 0.0
C3175 C 0.31482 0.7602 0.64801 0.0
C3176 C 0.2835 0.77718 0.69594 0.0
C3177 C 0.2928 0.77133 0.71105 0.0
C3178 C 0.28067 0.76598 0.67744 0.0
C3179 C 0.28796 0.74916 0.67415 0.0
C3180 C 0.29761 0.74345 0.68944 0.0
C3181 C 0.29962 0.75445 0.70782 0.0
C3182 C 0.26983 0.77201 0.66148 0.0
C3183 C 0.30603 0.72591 0.68636 0.0
H3184 H 0.26048 0.69451 0.62816 0.0
H3185 H 0.30809 0.73376 0.61526 0.0
H3186 H 0.26295 0.71074 0.67501 0.0
H3187 H 0.2512 0.7279 0.66688 0.0
H3188 H 0.24551 0.70269 0.65466 0.0
H3189 H 0.32345 0.76245 0.63631 0.0
H3190 H 0.30972 0.77359 0.65206 0.0
H3191 H 0.32351 0.75849 0.66077 0.0
H3192 H 0.27818 0.79022 0.69868 0.0
H3193 H 0.30695 0.75012 0.71963 0.0
H3194 H 0.25821 0.75964 0.65479 0.0
H3195 H 0.27851 0.77556 0.65011 0.0
H3196 H 0.26444 0.78499 0.66663 0.0
H3197 H 0.29525 0.71233 0.6809 0.0
H3198 H 0.31366 0.72394 0.69974 0.0
H3199 H 0.31554 0.72763 0.67538 0.0
C3200 C 0.62254 0.07692 0.83713 0.0
C3201 C 0.61213 0.05789 0.82979 0.0
C3202 C 0.62129 0.08607 0.85568 0.0
C3203 C 0.60921 0.07585 0.86678 0.0
C3204 C 0.59857 0.05659 0.8592 0.0
C3205 C 0.60034 0.04777 0.84078 0.0
C3206 C 0.63327 0.10625 0.86351 0.0
C3207 C 0.58538 0.04514 0.87053 0.0
C3208 C 0.60677 0.07742 0.91833 0.0
C3209 C 0.58984 0.0823 0.91892 0.0
C3210 C 0.61569 0.07881 0.90204 0.0
C3211 C 0.60714 0.08488 0.88629 0.0
C3212 C 0.59225 0.09371 0.88863 0.0
C3213 C 0.58368 0.09234 0.90515 0.0
C3214 C 0.63227 0.07041 0.90039 0.0
C3215 C 0.58319 0.10105 0.87237 0.0
H3216 H 0.63195 0.08442 0.82849 0.0
H3217 H 0.59254 0.03296 0.8349 0.0
H3218 H 0.62582 0.11565 0.87204 0.0
H3219 H 0.64505 0.10481 0.87319 0.0
H3220 H 0.63867 0.1138 0.85188 0.0
H3221 H 0.57764 0.03076 0.86207 0.0
H3222 H 0.59295 0.04235 0.88352 0.0
H3223 H 0.57545 0.05372 0.8753 0.0
H3224 H 0.61175 0.07018 0.92939 0.0
H3225 H 0.57074 0.09647 0.90585 0.0
H3226 H 0.64163 0.07829 0.89146 0.0
H3227 H 0.62789 0.05473 0.89341 0.0
H3228 H 0.63981 0.07118 0.91474 0.0
H3229 H 0.59337 0.10822 0.86379 0.0
H3230 H 0.57513 0.11164 0.87776 0.0
H3231 H 0.57374 0.0884 0.86272 0.0
C3232 C 0.31259 0.34488 0.14063 0.0
C3233 C 0.29947 0.33676 0.12444 0.0
C3234 C 0.31164 0.33755 0.15807 0.0
C3235 C 0.29708 0.32173 0.15985 0.0
C3236 C 0.28369 0.31352 0.14368 0.0
C3237 C 0.28507 0.32101 0.12632 0.0
C3238 C 0.32643 0.34667 0.17464 0.0
C3239 C 0.26783 0.29672 0.14468 0.0
C3240 C 0.30275 0.28911 0.19758 0.0
C3241 C 0.29421 0.29683 0.2127 0.0
C3242 C 0.3042 0.29735 0.18071 0.0
C3243 C 0.29626 0.31336 0.17832 0.0
C3244 C 0.28755 0.32122 0.1936 0.0
C3245 C 0.28687 0.31308 0.21067 0.0
C3246 C 0.31404 0.28865 0.16528 0.0
C3247 C 0.27834 0.33779 0.19164 0.0
H3248 H 0.32365 0.35723 0.13983 0.0
H3249 H 0.2749 0.31423 0.11409 0.0
H3250 H 0.32037 0.35246 0.18728 0.0
H3251 H 0.3333 0.33533 0.17883 0.0
H3252 H 0.33688 0.35885 0.17111 0.0
H3253 H 0.25861 0.29182 0.13093 0.0
H3254 H 0.27289 0.28403 0.14843 0.0
H3255 H 0.25982 0.30126 0.15617 0.0
H3256 H 0.30827 0.2764 0.19892 0.0
H3257 H 0.27979 0.31879 0.22202 0.0
H3258 H 0.32469 0.30035 0.16137 0.0
H3259 H 0.30429 0.28196 0.15216 0.0
H3260 H 0.32059 0.2772 0.16982 0.0
H3261 H 0.28825 0.35062 0.18854 0.0
H3262 H 0.27236 0.34247 0.20479 0.0
H3263 H 0.2673 0.33309 0.17936 0.0
C3264 C 0.21779 0.97015 0.03624 0.0
C3265 C 0.22741 0.97269 0.02045 0.0
C3266 C 0.20412 0.98013 0.04002 0.0
C3267 C 0.19961 0.99239 0.02734 0.0
C3268 C 0.20935 0.99521 0.01152 0.0
C3269 C 0.22331 0.98548 0.00839 0.0
C3270 C 0.19424 0.97711 0.05727 0.0
C3271 C 0.2048 0.00818 0.99768 0.0
C3272 C 0.15216 1.0012 0.02269 0.0
C3273 C 0.15534 0.02066 0.03229 0.0
C3274 C 0.16644 0.99163 0.02135 0.0
C3275 C 0.18419 1.00171 0.03007 0.0
C3276 C 0.18737 0.02103 0.04048 0.0
C3277 C 0.17292 0.03037 0.04129 0.0
C3278 C 0.16263 0.97095 0.01018 0.0
C3279 C 0.2061 0.03195 0.05038 0.0
H3280 H 0.2207 0.96009 0.0455 0.0
H3281 H 0.231 0.98791 0.99646 0.0
H3282 H 0.19241 0.99128 0.06495 0.0
H3283 H 0.18047 0.96737 0.05249 0.0
H3284 H 0.20163 0.97024 0.06752 0.0
H3285 H 0.21393 0.00905 0.98627 0.0
H3286 H 0.19049 1.00241 0.99079 0.0
H3287 H 0.20588 0.02325 0.00549 0.0
H3288 H 0.13852 0.99346 0.01613 0.0
H3289 H 0.1755 0.04546 0.04861 0.0
H3290 H 0.16697 0.96104 0.01938 0.0
H3291 H 0.17066 0.97068 0.99785 0.0
H3292 H 0.14795 0.96504 1.00466 0.0
H3293 H 0.21165 0.02292 0.05981 0.0
H3294 H 0.20593 0.04626 0.05917 0.0
H3295 H 0.2156 0.03472 0.03955 0.0
C3296 C 0.68211 0.61 0.01558 0.0
C3297 C 0.68525 0.62221 1.00171 0.0
C3298 C 0.66445 0.59878 0.01691 0.0
C3299 C 0.6492 0.59971 1.00421 0.0
C3300 C 0.65221 0.61222 0.99038 0.0
C3301 C 0.67005 0.62315 0.98924 0.0
C3302 C 0.66219 0.58551 0.03169 0.0
C3303 C 0.63652 0.61406 0.97669 0.0
C3304 C 0.60674 0.55656 0.99261 0.0
C3305 C 0.59445 0.56275 1.00452 0.0
C3306 C 0.62453 0.56815 0.99274 0.0
C3307 C 0.63033 0.5869 1.00466 0.0
C3308 C 0.61793 0.59334 0.01666 0.0
C3309 C 0.60032 0.58112 0.01666 0.0
C3310 C 0.63718 0.56022 0.98007 0.0
C3311 C 0.6232 0.61327 0.02937 0.0
H3312 H 0.6936 0.60883 0.02521 0.0
H3313 H 0.67203 0.63267 0.97865 0.0
H3314 H 0.65166 0.58879 0.04075 0.0
H3315 H 0.6574 0.56998 0.02438 0.0
H3316 H 0.67512 0.58707 0.04113 0.0
H3317 H 0.64084 0.62501 0.96734 0.0
H3318 H 0.63027 0.59963 0.96747 0.0
H3319 H 0.62578 0.61844 0.98485 0.0
H3320 H 0.60254 0.54236 0.98326 0.0
H3321 H 0.59104 0.58613 0.02592 0.0
H3322 H 0.65005 0.56016 0.98883 0.0
H3323 H 0.64082 0.56987 0.9694 0.0
H3324 H 0.631 0.54505 0.97228 0.0
H3325 H 0.63515 0.61405 0.03994 0.0
H3326 H 0.61189 0.61656 0.03726 0.0
H3327 H 0.62731 0.62484 0.02063 0.0
C3328 C 0.72491 0.41193 0.28272 0.0
C3329 C 0.71701 0.41749 0.26605 0.0
C3330 C 0.73371 0.39567 0.28223 0.0
C3331 C 0.73536 0.38372 0.26463 0.0
C3332 C 0.72748 0.38911 0.24774 0.0
C3333 C 0.71861 0.40536 0.24862 0.0
C3334 C 0.74139 0.39129 0.30094 0.0
C3335 C 0.72838 0.37756 0.22837 0.0
C3336 C 0.77402 0.35337 0.26305 0.0
C3337 C 0.76496 0.33356 0.2631 0.0
C3338 C 0.76478 0.36922 0.26326 0.0
C3339 C 0.74551 0.3662 0.26391 0.0
C3340 C 0.73625 0.34621 0.26398 0.0
C3341 C 0.74581 0.33053 0.26345 0.0
C3342 C 0.77588 0.38951 0.26267 0.0
C3343 C 0.71598 0.34128 0.26485 0.0
H3344 H 0.72447 0.42041 0.29657 0.0
H3345 H 0.7128 0.40835 0.23526 0.0
H3346 H 0.73557 0.37574 0.30201 0.0
H3347 H 0.75639 0.39326 0.30146 0.0
H3348 H 0.73851 0.40094 0.31356 0.0
H3349 H 0.72278 0.38385 0.21641 0.0
H3350 H 0.74273 0.37713 0.22666 0.0
H3351 H 0.72054 0.36217 0.22727 0.0
H3352 H 0.78864 0.35663 0.26271 0.0
H3353 H 0.73813 0.31573 0.26356 0.0
H3354 H 0.77493 0.39977 0.27577 0.0
H3355 H 0.77028 0.39505 0.25019 0.0
H3356 H 0.79049 0.3898 0.26162 0.0
H3357 H 0.71295 0.34959 0.27823 0.0
H3358 H 0.71042 0.32534 0.26446 0.0
H3359 H 0.70879 0.34584 0.25265 0.0
C3360 C 0.90456 0.51113 0.52456 0.0
C3361 C 0.89774 0.49234 0.52868 0.0
C3362 C 0.92314 0.51778 0.52329 0.0
C3363 C 0.93503 0.50551 0.5268 0.0
C3364 C 0.92856 0.48744 0.5328 0.0
C3365 C 0.90993 0.48091 0.53338 0.0
C3366 C 0.92978 0.5372 0.51689 0.0
C3367 C 0.94112 0.47433 0.53727 0.0
C3368 C 0.97703 0.5066 0.50192 0.0
C3369 C 0.99061 0.51654 0.51691 0.0
C3370 C 0.95864 0.50352 0.50476 0.0
C3371 C 0.95401 0.51071 0.52292 0.0
C3372 C 0.96765 0.52132 0.53784 0.0
C3373 C 0.98581 0.5241 0.53463 0.0
C3374 C 0.9442 0.49215 0.48856 0.0
C3375 C 0.96315 0.52924 0.55735 0.0
H3376 H 0.89528 0.52024 0.52138 0.0
H3377 H 0.90491 0.46626 0.53631 0.0
H3378 H 0.94273 0.5457 0.52563 0.0
H3379 H 0.93256 0.53443 0.50177 0.0
H3380 H 0.91954 0.5463 0.51778 0.0
H3381 H 0.93423 0.46181 0.54375 0.0
H3382 H 0.94601 0.46836 0.52388 0.0
H3383 H 0.95329 0.48285 0.54729 0.0
H3384 H 0.98077 0.50101 0.48816 0.0
H3385 H 0.99622 0.53245 0.54603 0.0
H3386 H 0.93369 0.50056 0.4861 0.0
H3387 H 0.93722 0.47806 0.49246 0.0
H3388 H 0.95 0.48887 0.47495 0.0
H3389 H 0.95271 0.53792 0.55589 0.0
H3390 H 0.97534 0.53869 0.56679 0.0
H3391 H 0.95732 0.51683 0.5645 0.0
C3392 C 0.37088 0.12251 0.28353 0.0
C3393 C 0.37725 0.11018 0.26989 0.0
C3394 C 0.36065 0.13528 0.27772 0.0
C3395 C 0.35701 0.13562 0.25789 0.0
C3396 C 0.36385 0.12351 0.24413 0.0
C3397 C 0.37397 0.11089 0.25034 0.0
C3398 C 0.35334 0.14799 0.29269 0.0
C3399 C 0.36021 0.12364 0.22292 0.0
C3400 C 0.31572 0.15467 0.24545 0.0
C3401 C 0.3238 0.17442 0.24537 0.0
C3402 C 0.32649 0.14147 0.2484 0.0
C3403 C 0.34568 0.1484 0.2516 0.0
C3404 C 0.35394 0.16796 0.25026 0.0
C3405 C 0.34284 0.18074 0.2469 0.0
C3406 C 0.31733 0.12049 0.24937 0.0
C3407 C 0.37442 0.17572 0.25363 0.0
H3408 H 0.37336 0.12165 0.2986 0.0
H3409 H 0.37911 0.1013 0.23991 0.0
H3410 H 0.35802 0.16368 0.29148 0.0
H3411 H 0.3382 0.1442 0.29027 0.0
H3412 H 0.35776 0.14618 0.30751 0.0
H3413 H 0.36588 0.11261 0.21409 0.0
H3414 H 0.34531 0.1206 0.21836 0.0
H3415 H 0.36636 0.1384 0.21986 0.0
H3416 H 0.301 0.14978 0.24442 0.0
H3417 H 0.34906 0.19596 0.24644 0.0
H3418 H 0.31933 0.11798 0.26436 0.0
H3419 H 0.32353 0.1101 0.2404 0.0
H3420 H 0.30243 0.117 0.24449 0.0
H3421 H 0.37946 0.17587 0.26881 0.0
H3422 H 0.37866 0.19087 0.25055 0.0
H3423 H 0.38116 0.16598 0.24456 0.0
C3424 C 0.3654 0.11906 0.49918 0.0
C3425 C 0.36571 0.13746 0.51004 0.0
C3426 C 0.38042 0.11035 0.5008 0.0
C3427 C 0.3964 0.12024 0.51349 0.0
C3428 C 0.39679 0.13877 0.52462 0.0
C3429 C 0.38149 0.14708 0.52283 0.0
C3430 C 0.37917 0.09049 0.48883 0.0
C3431 C 0.41349 0.14995 0.53827 0.0
C3432 C 0.42887 0.08848 0.5274 0.0
C3433 C 0.44176 0.09133 0.51435 0.0
C3434 C 0.41449 0.09828 0.52776 0.0
C3435 C 0.41271 0.11125 0.51471 0.0
C3436 C 0.42602 0.11472 0.502 0.0
C3437 C 0.44029 0.10482 0.502 0.0
C3438 C 0.40083 0.09426 0.54175 0.0
C3439 C 0.42493 0.12859 0.48801 0.0
H3440 H 0.35325 0.11129 0.4895 0.0
H3441 H 0.38204 0.16137 0.53119 0.0
H3442 H 0.39007 0.09156 0.47931 0.0
H3443 H 0.38135 0.07988 0.49829 0.0
H3444 H 0.36575 0.08457 0.47983 0.0
H3445 H 0.41148 0.16386 0.54636 0.0
H3446 H 0.41706 0.14075 0.54867 0.0
H3447 H 0.42531 0.15348 0.53018 0.0
H3448 H 0.42962 0.07806 0.53696 0.0
H3449 H 0.45031 0.10761 0.49215 0.0
H3450 H 0.38728 0.08653 0.53377 0.0
H3451 H 0.39926 0.10826 0.55002 0.0
H3452 H 0.40486 0.0851 0.552 0.0
H3453 H 0.4124 0.12274 0.4776 0.0
H3454 H 0.43692 0.13072 0.47994 0.0
H3455 H 0.424 0.14312 0.4957 0.0
C3456 C 0.74263 0.63205 0.26787 0.0
C3457 C 0.72373 0.62657 0.26927 0.0
C3458 C 0.75188 0.65172 0.26664 0.0
C3459 C 0.74254 0.66727 0.26759 0.0
C3460 C 0.72348 0.66185 0.26921 0.0
C3461 C 0.71441 0.6419 0.26963 0.0
C3462 C 0.77185 0.65584 0.26415 0.0
C3463 C 0.71255 0.67731 0.27088 0.0
C3464 C 0.77235 0.72104 0.28492 0.0
C3465 C 0.77318 0.72961 0.26822 0.0
C3466 C 0.76219 0.70147 0.28496 0.0
C3467 C 0.75278 0.68902 0.26769 0.0
C3468 C 0.75361 0.69756 0.25067 0.0
C3469 C 0.76339 0.71753 0.25116 0.0
C3470 C 0.76155 0.69411 0.30377 0.0
C3471 C 0.74462 0.68529 0.23164 0.0
H3472 H 0.75026 0.62073 0.26731 0.0
H3473 H 0.69992 0.63838 0.27078 0.0
H3474 H 0.77431 0.66375 0.25193 0.0
H3475 H 0.78 0.6655 0.27718 0.0
H3476 H 0.77687 0.64218 0.26155 0.0
H3477 H 0.69835 0.67139 0.27364 0.0
H3478 H 0.71925 0.68963 0.28269 0.0
H3479 H 0.712 0.68345 0.25744 0.0
H3480 H 0.7797 0.72984 0.29828 0.0
H3481 H 0.76392 0.72345 0.23797 0.0
H3482 H 0.76874 0.68203 0.30361 0.0
H3483 H 0.74718 0.68806 0.30585 0.0
H3484 H 0.768 0.70586 0.31618 0.0
H3485 H 0.75075 0.67246 0.22847 0.0
H3486 H 0.74612 0.69375 0.2197 0.0
H3487 H 0.72988 0.67946 0.23224 0.0
C3488 C 0.85891 0.43085 0.77825 0.0
C3489 C 0.85571 0.43888 0.76188 0.0
C3490 C 0.85003 0.41173 0.77906 0.0
C3491 C 0.83761 0.4008 0.76316 0.0
C3492 C 0.83417 0.40897 0.74662 0.0
C3493 C 0.84349 0.42816 0.74612 0.0
C3494 C 0.85444 0.40303 0.79657 0.0
C3495 C 0.82097 0.39734 0.72948 0.0
C3496 C 0.82973 0.34624 0.75637 0.0
C3497 C 0.81361 0.3415 0.76456 0.0
C3498 C 0.83783 0.36568 0.75596 0.0
C3499 C 0.82912 0.38036 0.76342 0.0
C3500 C 0.81274 0.37559 0.77166 0.0
C3501 C 0.80524 0.35596 0.77245 0.0
C3502 C 0.8557 0.37047 0.74772 0.0
C3503 C 0.80315 0.39114 0.77941 0.0
H3504 H 0.86872 0.43946 0.7902 0.0
H3505 H 0.84143 0.4347 0.7335 0.0
H3506 H 0.84182 0.39779 0.80297 0.0
H3507 H 0.86022 0.39012 0.79238 0.0
H3508 H 0.86439 0.41376 0.80771 0.0
H3509 H 0.81953 0.40612 0.71798 0.0
H3510 H 0.82564 0.38416 0.72341 0.0
H3511 H 0.80735 0.39206 0.73398 0.0
H3512 H 0.8361 0.33469 0.7505 0.0
H3513 H 0.79267 0.35186 0.77866 0.0
H3514 H 0.86623 0.38081 0.75856 0.0
H3515 H 0.85403 0.37782 0.73519 0.0
H3516 H 0.86081 0.35716 0.74307 0.0
H3517 H 0.81213 0.40166 0.79143 0.0
H3518 H 0.79012 0.38477 0.7846 0.0
H3519 H 0.80026 0.39963 0.76807 0.0
C3520 C 0.05497 0.89324 0.04704 0.0
C3521 C 0.06479 0.89549 0.06531 0.0
C3522 C 0.05244 0.90966 0.03893 0.0
C3523 C 0.05945 0.92898 0.04946 0.0
C3524 C 0.06923 0.93131 0.06798 0.0
C3525 C 0.07198 0.91466 0.07552 0.0
C3526 C 0.04241 0.9063 0.01895 0.0
C3527 C 0.07649 0.95143 0.08008 0.0
C3528 C 0.06733 0.97491 0.02556 0.0
C3529 C 0.05132 0.98149 0.02784 0.0
C3530 C 0.06982 0.9575 0.03177 0.0
C3531 C 0.05637 0.94675 0.04135 0.0
C3532 C 0.04021 0.95347 0.04377 0.0
C3533 C 0.03774 0.97043 0.03666 0.0
C3534 C 0.08688 0.95059 0.02804 0.0
C3535 C 0.02571 0.94306 0.05438 0.0
H3536 H 0.04947 0.87855 0.03892 0.0
H3537 H 0.07938 0.91663 0.08971 0.0
H3538 H 0.03009 0.91236 0.01923 0.0
H3539 H 0.05128 0.91418 0.00959 0.0
H3540 H 0.03815 0.89047 0.01245 0.0
H3541 H 0.08356 0.95082 0.09428 0.0
H3542 H 0.08619 0.96076 0.07253 0.0
H3543 H 0.06508 0.95871 0.0824 0.0
H3544 H 0.07784 0.98327 0.01866 0.0
H3545 H 0.02539 0.97549 0.03867 0.0
H3546 H 0.08319 0.93512 0.02043 0.0
H3547 H 0.09516 0.951 0.04183 0.0
H3548 H 0.09543 0.95976 0.01931 0.0
H3549 H 0.02005 0.92775 0.04679 0.0
H3550 H 0.01431 0.95054 0.05578 0.0
H3551 H 0.03179 0.94227 0.06895 0.0
C3552 C 0.92313 0.28545 0.83761 0.0
C3553 C 0.92259 0.27181 0.8502 0.0
C3554 C 0.90717 0.28705 0.82652 0.0
C3555 C 0.88991 0.27488 0.82796 0.0
C3556 C 0.88921 0.26133 0.84087 0.0
C3557 C 0.90541 0.25988 0.85165 0.0
C3558 C 0.9089 0.30152 0.81285 0.0
C3559 C 0.87126 0.24812 0.84316 0.0
C3560 C 0.84556 0.28791 0.80773 0.0
C3561 C 0.8407 0.27493 0.79007 0.0
C3562 C 0.86139 0.28806 0.82025 0.0
C3563 C 0.87291 0.2752 0.81495 0.0
C3564 C 0.86806 0.26231 0.79704 0.0
C3565 C 0.85212 0.2622 0.78508 0.0
C3566 C 0.86574 0.30189 0.83925 0.0
C3567 C 0.87983 0.24858 0.79034 0.0
H3568 H 0.93618 0.29466 0.83602 0.0
H3569 H 0.90455 0.24946 0.86143 0.0
H3570 H 0.90447 0.29354 0.79792 0.0
H3571 H 0.89981 0.31165 0.81595 0.0
H3572 H 0.9231 0.31037 0.81374 0.0
H3573 H 0.87267 0.2393 0.85463 0.0
H3574 H 0.86121 0.25703 0.84659 0.0
H3575 H 0.86561 0.23793 0.82947 0.0
H3576 H 0.83694 0.29781 0.81184 0.0
H3577 H 0.8487 0.25212 0.7715 0.0
H3578 H 0.8794 0.31191 0.84014 0.0
H3579 H 0.86627 0.2934 0.8511 0.0
H3580 H 0.8555 0.31085 0.84146 0.0
H3581 H 0.89388 0.25713 0.78981 0.0
H3582 H 0.87442 0.23969 0.7759 0.0
H3583 H 0.8808 0.23843 0.80063 0.0
C3584 C 0.54973 0.18858 0.54817 0.0
C3585 C 0.56697 0.2017 0.55271 0.0
C3586 C 0.5479 0.16854 0.54085 0.0
C3587 C 0.5637 0.16133 0.53801 0.0
C3588 C 0.58106 0.17463 0.54173 0.0
C3589 C 0.58249 0.19458 0.54902 0.0
C3590 C 0.52911 0.15491 0.53704 0.0
C3591 C 0.59822 0.16767 0.53856 0.0
C3592 C 0.56186 0.10801 0.54245 0.0
C3593 C 0.55869 0.09872 0.52324 0.0
C3594 C 0.56339 0.12833 0.54739 0.0
C3595 C 0.56221 0.13971 0.53273 0.0
C3596 C 0.55943 0.13034 0.51324 0.0
C3597 C 0.55736 0.10985 0.50874 0.0
C3598 C 0.56584 0.13756 0.56832 0.0
C3599 C 0.55834 0.14186 0.49715 0.0
H3600 H 0.53763 0.19379 0.55107 0.0
H3601 H 0.59584 0.20461 0.55206 0.0
H3602 H 0.52709 0.14552 0.52269 0.0
H3603 H 0.52772 0.14501 0.5478 0.0
H3604 H 0.51813 0.16306 0.53782 0.0
H3605 H 0.6105 0.18004 0.54067 0.0
H3606 H 0.60033 0.15767 0.54872 0.0
H3607 H 0.59686 0.15919 0.52383 0.0
H3608 H 0.56256 0.09923 0.55363 0.0
H3609 H 0.55471 0.10252 0.49388 0.0
H3610 H 0.55433 0.14445 0.57138 0.0
H3611 H 0.57856 0.14937 0.57175 0.0
H3612 H 0.56648 0.1267 0.57797 0.0
H3613 H 0.5456 0.14718 0.49686 0.0
H3614 H 0.55842 0.13286 0.48294 0.0
H3615 H 0.56995 0.15495 0.49949 0.0
C3616 C 0.6051 0.76813 0.34694 0.0
C3617 C 0.60162 0.78326 0.36033 0.0
C3618 C 0.62146 0.77041 0.33846 0.0
C3619 C 0.63492 0.78838 0.34316 0.0
C3620 C 0.63154 0.80379 0.35656 0.0
C3621 C 0.61508 0.80105 0.36498 0.0
C3622 C 0.6243 0.75351 0.32431 0.0
C3623 C 0.64529 0.82329 0.36195 0.0
C3624 C 0.68355 0.78685 0.33208 0.0
C3625 C 0.68406 0.79305 0.31418 0.0
C3626 C 0.66795 0.78579 0.34187 0.0
C3627 C 0.65225 0.79098 0.3337 0.0
C3628 C 0.65283 0.79768 0.31589 0.0
C3629 C 0.66855 0.79854 0.30639 0.0
C3630 C 0.66819 0.77883 0.3609 0.0
C3631 C 0.63663 0.80356 0.30659 0.0
H3632 H 0.59487 0.75444 0.34277 0.0
H3633 H 0.61291 0.81288 0.37542 0.0
H3634 H 0.62576 0.75799 0.31012 0.0
H3635 H 0.6371 0.74947 0.32914 0.0
H3636 H 0.61282 0.74032 0.32251 0.0
H3637 H 0.64109 0.83353 0.37318 0.0
H3638 H 0.65879 0.82106 0.36724 0.0
H3639 H 0.64705 0.83031 0.34909 0.0
H3640 H 0.69542 0.78289 0.33855 0.0
H3641 H 0.66846 0.80311 0.29252 0.0
H3642 H 0.6575 0.76506 0.35976 0.0
H3643 H 0.66495 0.78992 0.37201 0.0
H3644 H 0.6816 0.77606 0.36577 0.0
H3645 H 0.62497 0.79054 0.30256 0.0
H3646 H 0.63964 0.80988 0.29352 0.0
H3647 H 0.63223 0.81453 0.31686 0.0
C3648 C 0.08048 0.21832 0.43679 0.0
C3649 C 0.06898 0.2311 0.43459 0.0
C3650 C 0.07552 0.20251 0.44643 0.0
C3651 C 0.05859 0.19932 0.45386 0.0
C3652 C 0.04679 0.21197 0.45146 0.0
C3653 C 0.05218 0.22781 0.44195 0.0
C3654 C 0.08847 0.18931 0.44879 0.0
C3655 C 0.0286 0.20892 0.45918 0.0
C3656 C 0.04087 0.14879 0.46573 0.0
C3657 C 0.04635 0.15218 0.48554 0.0
C3658 C 0.04431 0.16415 0.45524 0.0
C3659 C 0.05361 0.1832 0.46483 0.0
C3660 C 0.05883 0.18676 0.48489 0.0
C3661 C 0.05507 0.17119 0.49503 0.0
C3662 C 0.03831 0.15993 0.43389 0.0
C3663 C 0.06892 0.20687 0.49556 0.0
H3664 H 0.09331 0.22058 0.43082 0.0
H3665 H 0.04333 0.23778 0.4405 0.0
H3666 H 0.09231 0.18949 0.46426 0.0
H3667 H 0.08166 0.17394 0.44217 0.0
H3668 H 0.10113 0.19384 0.44216 0.0
H3669 H 0.02059 0.21944 0.45519 0.0
H3670 H 0.02042 0.19375 0.45369 0.0
H3671 H 0.03078 0.21072 0.47505 0.0
H3672 H 0.03399 0.13409 0.45844 0.0
H3673 H 0.05955 0.17374 0.51031 0.0
H3674 H 0.05043 0.16262 0.42609 0.0
H3675 H 0.02976 0.17 0.43007 0.0
H3676 H 0.03043 0.14453 0.42882 0.0
H3677 H 0.08233 0.21121 0.49027 0.0
H3678 H 0.07129 0.20733 0.51129 0.0
H3679 H 0.06115 0.21797 0.49283 0.0
C3680 C 0.59841 0.2856 0.21776 0.0
C3681 C 0.58468 0.26856 0.2172 0.0
C3682 C 0.61636 0.28683 0.2255 0.0
C3683 C 0.62061 0.2705 0.23248 0.0
C3684 C 0.60662 0.25381 0.23314 0.0
C3685 C 0.58875 0.2531 0.2256 0.0
C3686 C 0.63097 0.30494 0.22478 0.0
C3687 C 0.61073 0.23608 0.24042 0.0
C3688 C 0.66635 0.26029 0.22431 0.0
C3689 C 0.67574 0.2656 0.24286 0.0
C3690 C 0.64842 0.26206 0.22076 0.0
C3691 C 0.63984 0.26954 0.23617 0.0
C3692 C 0.64943 0.27541 0.25489 0.0
C3693 C 0.66733 0.2732 0.25807 0.0
C3694 C 0.63854 0.2555 0.2006 0.0
C3695 C 0.64074 0.2839 0.27147 0.0
H3696 H 0.59542 0.29756 0.21116 0.0
H3697 H 0.57807 0.2401 0.22557 0.0
H3698 H 0.64046 0.30938 0.23834 0.0
H3699 H 0.63912 0.30169 0.21299 0.0
H3700 H 0.62507 0.31752 0.22222 0.0
H3701 H 0.59811 0.22523 0.24189 0.0
H3702 H 0.61851 0.22874 0.23027 0.0
H3703 H 0.61935 0.24057 0.25453 0.0
H3704 H 0.67291 0.25423 0.21264 0.0
H3705 H 0.6748 0.27743 0.27238 0.0
H3706 H 0.63379 0.26784 0.19557 0.0
H3707 H 0.62628 0.24352 0.20043 0.0
H3708 H 0.64729 0.25013 0.19027 0.0
H3709 H 0.63648 0.29724 0.26834 0.0
H3710 H 0.65015 0.28786 0.28512 0.0
H3711 H 0.62827 0.27317 0.27345 0.0
C3712 C 0.57089 0.91096 0.95198 0.0
C3713 C 0.58672 0.91203 0.943 0.0
C3714 C 0.56741 0.9277 0.96261 0.0
C3715 C 0.58013 0.94593 0.96431 0.0
C3716 C 0.59635 0.94711 0.95559 0.0
C3717 C 0.5995 0.93004 0.94502 0.0
C3718 C 0.55011 0.92584 0.97202 0.0
C3719 C 0.61019 0.9664 0.9573 0.0
C3720 C 0.55991 0.9894 0.97891 0.0
C3721 C 0.56498 0.99317 0.99872 0.0
C3722 C 0.5657 0.97472 0.96722 0.0
C3723 C 0.57652 0.96355 0.97576 0.0
C3724 C 0.58219 0.96785 0.99571 0.0
C3725 C 0.57635 0.98264 0.00694 0.0
C3726 C 0.55957 0.97056 0.9459 0.0
C3727 C 0.59364 0.95619 0.00537 0.0
H3728 H 0.56118 0.89694 0.95068 0.0
H3729 H 0.6117 0.93085 0.93796 0.0
H3730 H 0.55353 0.93074 0.98776 0.0
H3731 H 0.5418 0.93548 0.96666 0.0
H3732 H 0.54166 0.91053 0.96924 0.0
H3733 H 0.62215 0.96478 0.94973 0.0
H3734 H 0.60372 0.97716 0.95124 0.0
H3735 H 0.61509 0.97266 0.97262 0.0
H3736 H 0.55098 0.99734 0.97266 0.0
H3737 H 0.58045 0.98571 0.02231 0.0
H3738 H 0.54954 0.95617 0.94203 0.0
H3739 H 0.57132 0.96958 0.93782 0.0
H3740 H 0.55312 0.98204 0.94126 0.0
H3741 H 0.58548 0.94099 1.00466 0.0
H3742 H 0.59841 0.96276 0.02068 0.0
H3743 H 0.60572 0.95518 0.99785 0.0
C3744 C 0.91826 0.75374 0.72226 0.0
C3745 C 0.92226 0.76551 0.70826 0.0
C3746 C 0.9042 0.75567 0.73343 0.0
C3747 C 0.89415 0.76987 0.73066 0.0
C3748 C 0.89853 0.78227 0.71709 0.0
C3749 C 0.9124 0.77979 0.70591 0.0
C3750 C 0.89975 0.7422 0.74779 0.0
C3751 C 0.8881 0.79766 0.71382 0.0
C3752 C 0.8451 0.76176 0.73997 0.0
C3753 C 0.84638 0.77616 0.75614 0.0
C3754 C 0.8607 0.75912 0.73185 0.0
C3755 C 0.87797 0.77071 0.74061 0.0
C3756 C 0.87942 0.78436 0.75774 0.0
C3757 C 0.86347 0.78724 0.76512 0.0
C3758 C 0.85857 0.74492 0.71319 0.0
C3759 C 0.89771 0.79647 0.76772 0.0
H3760 H 0.92606 0.74294 0.72445 0.0
H3761 H 0.91514 0.78873 0.69493 0.0
H3762 H 0.89931 0.7509 0.76203 0.0
H3763 H 0.88603 0.73228 0.74319 0.0
H3764 H 0.90982 0.73307 0.74934 0.0
H3765 H 0.89406 0.80696 0.70362 0.0
H3766 H 0.87371 0.79041 0.70802 0.0
H3767 H 0.88794 0.80735 0.72758 0.0
H3768 H 0.83177 0.75346 0.7329 0.0
H3769 H 0.8643 0.79838 0.77766 0.0
H3770 H 0.86753 0.73458 0.7144 0.0
H3771 H 0.8628 0.75317 0.70161 0.0
H3772 H 0.84427 0.73629 0.70887 0.0
H3773 H 0.90714 0.7868 0.77002 0.0
H3774 H 0.89656 0.80506 0.7818 0.0
H3775 H 0.90395 0.80681 0.75857 0.0
C3776 C 0.09641 1.00321 0.8754 0.0
C3777 C 0.10985 0.01889 0.87108 0.0
C3778 C 0.0879 1.0044 0.8928 0.0
C3779 C 0.09241 0.02177 0.90719 0.0
C3780 C 0.10586 0.03765 0.90298 0.0
C3781 C 0.11422 0.03605 0.88551 0.0
C3782 C 0.07374 0.98684 0.89569 0.0
C3783 C 0.11144 0.05671 0.91706 0.0
C3784 C 0.05698 0.03084 0.94338 0.0
C3785 C 0.06395 0.02651 0.96101 0.0
C3786 C 0.06607 0.02984 0.92645 0.0
C3787 C 0.08277 0.0236 0.92603 0.0
C3788 C 0.08991 0.01907 0.94378 0.0
C3789 C 0.08068 0.02065 0.96076 0.0
C3790 C 0.05743 0.03527 0.90873 0.0
C3791 C 0.10716 0.01178 0.9447 0.0
H3792 H 0.09215 0.98977 0.86496 0.0
H3793 H 0.1245 0.04852 0.88338 0.0
H3794 H 0.077 0.98299 0.90995 0.0
H3795 H 0.0602 0.99046 0.89538 0.0
H3796 H 0.07275 0.97379 0.88445 0.0
H3797 H 0.12189 0.06786 0.9121 0.0
H3798 H 0.09932 0.06279 0.91937 0.0
H3799 H 0.117 0.05404 0.93113 0.0
H3800 H 0.044 0.03496 0.9427 0.0
H3801 H 0.08623 0.01639 0.9736 0.0
H3802 H 0.05274 0.022 0.89743 0.0
H3803 H 0.06759 0.04602 0.903 0.0
H3804 H 0.04556 0.04165 0.91156 0.0
H3805 H 0.1049 0.99758 0.9347 0.0
H3806 H 0.11165 0.00962 0.95937 0.0
H3807 H 0.11828 0.02231 0.93996 0.0
C3808 C 0.81433 0.36081 0.59368 0.0
C3809 C 0.82615 0.37548 0.5867 0.0
C3810 C 0.81939 0.35522 0.61097 0.0
C3811 C 0.83685 0.36427 0.62121 0.0
C3812 C 0.84901 0.3788 0.61411 0.0
C3813 C 0.84339 0.38449 0.59704 0.0
C3814 C 0.80607 0.33961 0.61825 0.0
C3815 C 0.86789 0.38827 0.62452 0.0
C3816 C 0.83816 0.35773 0.67256 0.0
C3817 C 0.84319 0.33974 0.67121 0.0
C3818 C 0.83755 0.36703 0.65661 0.0
C3819 C 0.84228 0.35809 0.63922 0.0
C3820 C 0.84942 0.34122 0.63848 0.0
C3821 C 0.84971 0.33214 0.65453 0.0
C3822 C 0.83006 0.3852 0.65785 0.0
C3823 C 0.85484 0.33147 0.62018 0.0
H3824 H 0.80114 0.35361 0.58557 0.0
H3825 H 0.85246 0.39616 0.59192 0.0
H3826 H 0.812 0.32674 0.61929 0.0
H3827 H 0.80338 0.34539 0.63285 0.0
H3828 H 0.79284 0.33452 0.60877 0.0
H3829 H 0.87595 0.39876 0.61656 0.0
H3830 H 0.86689 0.39624 0.63891 0.0
H3831 H 0.87543 0.37683 0.62672 0.0
H3832 H 0.83347 0.36377 0.68563 0.0
H3833 H 0.85352 0.31815 0.65336 0.0
H3834 H 0.81595 0.38123 0.65024 0.0
H3835 H 0.83834 0.39633 0.65075 0.0
H3836 H 0.82968 0.3919 0.67294 0.0
H3837 H 0.84236 0.32294 0.61061 0.0
H3838 H 0.86356 0.32121 0.62302 0.0
H3839 H 0.86226 0.34254 0.61239 0.0
C3840 C 0.47159 0.02588 0.39415 0.0
C3841 C 0.47931 0.0296 0.37757 0.0
C3842 C 0.48271 0.02665 0.41113 0.0
C3843 C 0.50186 0.03078 0.41114 0.0
C3844 C 0.50966 0.03394 0.39419 0.0
C3845 C 0.49822 0.03357 0.37755 0.0
C3846 C 0.47404 0.02357 0.42911 0.0
C3847 C 0.53004 0.0378 0.39369 0.0
C3848 C 0.53268 0.05212 0.45755 0.0
C3849 C 0.5367 0.03519 0.46274 0.0
C3850 C 0.52093 0.05083 0.44086 0.0
C3851 C 0.51381 0.03226 0.42902 0.0
C3852 C 0.51817 0.01516 0.43418 0.0
C3853 C 0.52933 0.0168 0.45135 0.0
C3854 C 0.51594 0.0692 0.43605 0.0
C3855 C 0.51118 0.99525 0.42154 0.0
H3856 H 0.45688 0.02287 0.3939 0.0
H3857 H 0.50397 0.03623 0.36448 0.0
H3858 H 0.47832 0.01147 0.43512 0.0
H3859 H 0.47873 0.03705 0.44017 0.0
H3860 H 0.45889 0.02002 0.42645 0.0
H3861 H 0.53377 0.03885 0.37905 0.0
H3862 H 0.53693 0.05172 0.40345 0.0
H3863 H 0.5354 0.02587 0.39887 0.0
H3864 H 0.53826 0.06621 0.46684 0.0
H3865 H 0.53254 1.0038 0.45576 0.0
H3866 H 0.50088 0.06709 0.43421 0.0
H3867 H 0.52075 0.0722 0.42227 0.0
H3868 H 0.52196 0.08227 0.44734 0.0
H3869 H 0.49604 0.99122 0.41969 0.0
H3870 H 0.51624 0.98352 0.42752 0.0
H3871 H 0.51549 0.99576 0.40707 0.0
C3872 C 0.79818 0.76431 0.11072 0.0
C3873 C 0.78662 0.74641 0.10125 0.0
C3874 C 0.79853 0.77077 0.13056 0.0
C3875 C 0.78714 0.75903 0.1413 0.0
C3876 C 0.77531 0.74112 0.13179 0.0
C3877 C 0.77522 0.73505 0.11201 0.0
C3878 C 0.81129 0.79 0.14008 0.0
C3879 C 0.76306 0.72803 0.14263 0.0
C3880 C 0.80127 0.76331 0.19488 0.0
C3881 C 0.78903 0.77345 0.20306 0.0
C3882 C 0.80088 0.75872 0.17489 0.0
C3883 C 0.78823 0.76479 0.16263 0.0
C3884 C 0.77613 0.77547 0.17081 0.0
C3885 C 0.77649 0.77944 0.19092 0.0
C3886 C 0.81383 0.74703 0.1669 0.0
C3887 C 0.76285 0.78277 0.1583 0.0
H3888 H 0.80694 0.77333 0.10262 0.0
H3889 H 0.76651 0.72102 0.10507 0.0
H3890 H 0.80383 0.79927 0.14875 0.0
H3891 H 0.82217 0.78717 0.15003 0.0
H3892 H 0.81784 0.79837 0.12951 0.0
H3893 H 0.75424 0.71486 0.13306 0.0
H3894 H 0.77148 0.7231 0.15363 0.0
H3895 H 0.75419 0.73633 0.15026 0.0
H3896 H 0.811 0.75861 0.20415 0.0
H3897 H 0.76719 0.78753 0.19715 0.0
H3898 H 0.82254 0.75541 0.15776 0.0
H3899 H 0.80597 0.73313 0.15768 0.0
H3900 H 0.82282 0.74338 0.17835 0.0
H3901 H 0.77038 0.79231 0.14918 0.0
H3902 H 0.75463 0.79123 0.16684 0.0
H3903 H 0.75345 0.77018 0.14855 0.0
C3904 C 0.09867 0.03194 0.66538 0.0
C3905 C 0.10741 0.01649 0.66759 0.0
C3906 C 0.0902 0.03416 0.64723 0.0
C3907 C 0.09044 0.02094 0.63002 0.0
C3908 C 0.09912 1.00525 0.63211 0.0
C3909 C 0.1072 1.00316 0.65051 0.0
C3910 C 0.08076 0.05075 0.64655 0.0
C3911 C 0.10032 0.99078 0.61467 0.0
C3912 C 0.05678 0.0163 0.58299 0.0
C3913 C 0.06677 0.02922 0.57232 0.0
C3914 C 0.06395 0.01386 0.60162 0.0
C3915 C 0.08213 0.02379 0.61001 0.0
C3916 C 0.09235 0.03654 0.59902 0.0
C3917 C 0.08454 0.03939 0.58084 0.0
C3918 C 0.05184 1.00071 0.61246 0.0
C3919 C 0.11185 0.04707 0.60635 0.0
H3920 H 0.09814 0.04234 0.67804 0.0
H3921 H 0.11385 0.99119 0.65136 0.0
H3922 H 0.08764 0.06097 0.63764 0.0
H3923 H 0.06644 0.04485 0.63972 0.0
H3924 H 0.08071 0.05919 0.66104 0.0
H3925 H 0.10678 0.97896 0.6184 0.0
H3926 H 0.08652 0.98394 0.60685 0.0
H3927 H 0.1084 0.99863 0.6047 0.0
H3928 H 0.04304 0.00836 0.57694 0.0
H3929 H 0.09263 0.04935 0.57299 0.0
H3930 H 0.05167 0.00858 0.62716 0.0
H3931 H 0.0573 0.98762 0.61391 0.0
H3932 H 0.0376 0.99566 0.60518 0.0
H3933 H 0.11239 0.05724 0.61999 0.0
H3934 H 0.11845 0.05563 0.59593 0.0
H3935 H 0.11987 0.03628 0.60945 0.0
C3936 C 0.81421 0.34474 0.4061 0.0
C3937 C 0.8011 0.35587 0.40833 0.0
C3938 C 0.8138 0.33207 0.38886 0.0
C3939 C 0.79993 0.33057 0.37365 0.0
C3940 C 0.78646 0.3415 0.37596 0.0
C3941 C 0.78723 0.35407 0.39332 0.0
C3942 C 0.82844 0.32071 0.38673 0.0
C3943 C 0.7715 0.34026 0.35995 0.0
C3944 C 0.80639 0.31626 0.322 0.0
C3945 C 0.79667 0.2966 0.31793 0.0
C3946 C 0.80857 0.32714 0.34049 0.0
C3947 C 0.79995 0.31837 0.35492 0.0
C3948 C 0.79021 0.29846 0.35096 0.0
C3949 C 0.78899 0.28765 0.33251 0.0
C3950 C 0.81944 0.34823 0.34437 0.0
C3951 C 0.78036 0.28891 0.3659 0.0
H3952 H 0.82482 0.34599 0.41783 0.0
H3953 H 0.77722 0.36287 0.39501 0.0
H3954 H 0.82216 0.30479 0.38221 0.0
H3955 H 0.83663 0.32546 0.37535 0.0
H3956 H 0.83777 0.32286 0.40025 0.0
H3957 H 0.76148 0.34884 0.3645 0.0
H3958 H 0.77752 0.34593 0.34765 0.0
H3959 H 0.76413 0.32472 0.35476 0.0
H3960 H 0.81188 0.32336 0.31064 0.0
H3961 H 0.78124 0.2725 0.32926 0.0
H3962 H 0.82944 0.35097 0.35745 0.0
H3963 H 0.81016 0.35823 0.34699 0.0
H3964 H 0.82692 0.35207 0.33219 0.0
H3965 H 0.79001 0.29016 0.37896 0.0
H3966 H 0.77377 0.27314 0.36062 0.0
H3967 H 0.76969 0.29665 0.37017 0.0
C3968 C 0.48598 0.99652 0.19885 0.0
C3969 C 0.47141 1.00546 0.20087 0.0
C3970 C 0.49013 0.99008 0.18061 0.0
C3971 C 0.47927 0.99269 0.16439 0.0
C3972 C 0.46329 0.99965 0.1665 0.0
C3973 C 0.45966 1.00626 0.18489 0.0
C3974 C 0.50733 0.98282 0.17879 0.0
C3975 C 0.45131 1.00234 0.14944 0.0
C3976 C 0.50605 0.01565 0.12882 0.0
C3977 C 0.50337 0.99998 0.11362 0.0
C3978 C 0.49833 0.01324 0.14545 0.0
C3979 C 0.48756 0.99458 0.14676 0.0
C3980 C 0.48475 0.97855 0.1314 0.0
C3981 C 0.49296 0.98141 0.1148 0.0
C3982 C 0.50176 0.03077 0.16154 0.0
C3983 C 0.47325 0.95858 0.1326 0.0
H3984 H 0.49458 0.99544 0.21151 0.0
H3985 H 0.44794 0.01253 0.18681 0.0
H3986 H 0.50521 0.9705 0.16654 0.0
H3987 H 0.51833 0.99491 0.17604 0.0
H3988 H 0.51203 0.97791 0.19208 0.0
H3989 H 0.43767 1.00382 0.15317 0.0
H3990 H 0.45791 0.01588 0.14429 0.0
H3991 H 0.44949 0.98981 0.13745 0.0
H3992 H 0.51444 0.02987 0.12768 0.0
H3993 H 0.49124 0.96939 0.10287 0.0
H3994 H 0.50815 0.02731 0.17486 0.0
H3995 H 0.48867 0.03444 0.16457 0.0
H3996 H 0.51086 0.04403 0.15808 0.0
H3997 H 0.48009 0.9522 0.14367 0.0
H3998 H 0.471 0.94827 0.11872 0.0
H3999 H 0.45981 0.95987 0.13703 0.0
C4000 C 0.78197 0.75031 0.90092 0.0
C4001 C 0.79272 0.73755 0.90616 0.0
C4002 C 0.78323 0.75785 0.88361 0.0
C4003 C 0.79549 0.75257 0.87089 0.0
C4004 C 0.80649 0.73987 0.87614 0.0
C4005 C 0.80498 0.73257 0.89353 0.0
C4006 C 0.77147 0.77163 0.87899 0.0
C4007 C 0.81988 0.73389 0.86326 0.0
C4008 C 0.78788 0.75812 0.81775 0.0
C4009 C 0.80118 0.7752 0.81713 0.0
C4010 C 0.78589 0.75059 0.83503 0.0
C4011 C 0.79713 0.76058 0.85234 0.0
C4012 C 0.81029 0.77808 0.85179 0.0
C4013 C 0.81228 0.78496 0.83428 0.0
C4014 C 0.7719 0.73175 0.83473 0.0
C4015 C 0.82228 0.78966 0.86975 0.0
H4016 H 0.77267 0.7547 0.91052 0.0
H4017 H 0.81326 0.72259 0.89704 0.0
H4018 H 0.78018 0.78576 0.87694 0.0
H4019 H 0.76241 0.76522 0.86534 0.0
H4020 H 0.76289 0.77467 0.89045 0.0
H4021 H 0.82727 0.7237 0.86912 0.0
H4022 H 0.8126 0.72666 0.84887 0.0
H4023 H 0.83004 0.7471 0.86131 0.0
H4024 H 0.77925 0.75045 0.80464 0.0
H4025 H 0.82249 0.79829 0.83412 0.0
H4026 H 0.76199 0.73434 0.84486 0.0
H4027 H 0.77872 0.72064 0.83959 0.0
H4028 H 0.76431 0.72562 0.82021 0.0
H4029 H 0.81368 0.7943 0.88059 0.0
H4030 H 0.83185 0.80296 0.86698 0.0
H4031 H 0.83034 0.78033 0.87611 0.0
C4032 C 0.85891 0.07938 0.00733 0.0
C4033 C 0.86024 0.09869 1.00433 0.0
C4034 C 0.87331 0.07029 1.00447 0.0
C4035 C 0.88935 0.08086 0.99854 0.0
C4036 C 0.89053 0.10013 0.99485 0.0
C4037 C 0.87589 0.10884 0.99779 0.0
C4038 C 0.8716 0.04963 0.00838 0.0
C4039 C 0.90746 0.11174 0.98846 0.0
C4040 C 0.93215 0.06524 0.01371 0.0
C4041 C 0.93426 0.05332 0.99684 0.0
C4042 C 0.91788 0.07485 0.01423 0.0
C4043 C 0.90533 0.07221 0.99756 0.0
C4044 C 0.90757 0.06058 0.98035 0.0
C4045 C 0.92211 0.05131 0.98017 0.0
C4046 C 0.91594 0.08737 0.03278 0.0
C4047 C 0.89437 0.05751 0.96233 0.0
H4048 H 0.84663 0.07145 0.01206 0.0
H4049 H 0.87691 0.12384 0.99558 0.0
H4050 H 0.87458 0.04009 0.99577 0.0
H4051 H 0.88175 0.04972 0.02068 0.0
H4052 H 0.85777 0.04306 0.01176 0.0
H4053 H 0.90585 0.12626 0.98547 0.0
H4054 H 0.91923 0.11414 0.99973 0.0
H4055 H 0.91083 0.10337 0.97531 0.0
H4056 H 0.94138 0.06668 0.02668 0.0
H4057 H 0.92392 0.04244 0.96699 0.0
H4058 H 0.90312 0.08073 0.03818 0.0
H4059 H 0.91505 0.10225 0.03031 0.0
H4060 H 0.92755 0.0889 0.04407 0.0
H4061 H 0.88082 0.04889 0.96452 0.0
H4062 H 0.89902 0.04956 0.94972 0.0
H4063 H 0.89247 0.07182 0.95907 0.0
C4064 C 0.4086 0.46386 0.01331 0.0
C4065 C 0.40531 0.45215 0.02757 0.0
C4066 C 0.42623 0.47532 0.0122 0.0
C4067 C 0.4413 0.47515 0.02555 0.0
C4068 C 0.43812 0.46322 0.03984 0.0
C4069 C 0.42033 0.45203 0.04072 0.0
C4070 C 0.42867 0.48789 0.99684 0.0
C4071 C 0.45361 0.4623 0.05432 0.0
C4072 C 0.49052 0.49346 0.01396 0.0
C4073 C 0.49606 0.51218 0.02551 0.0
C4074 C 0.47291 0.48124 0.01388 0.0
C4075 C 0.46015 0.48802 0.02514 0.0
C4076 C 0.4656 0.50714 0.03641 0.0
C4077 C 0.48341 0.51874 0.03667 0.0
C4078 C 0.46804 0.46091 1.00195 0.0
C4079 C 0.45255 0.51544 0.04822 0.0
H4080 H 0.39727 0.46444 1.00315 0.0
H4081 H 0.41827 0.44292 0.05165 0.0
H4082 H 0.43406 0.50354 1.00357 0.0
H4083 H 0.43883 0.4837 0.98771 0.0
H4084 H 0.4157 0.4865 0.98753 0.0
H4085 H 0.44922 0.45167 0.06396 0.0
H4086 H 0.46478 0.45803 0.04683 0.0
H4087 H 0.45931 0.47703 0.06321 0.0
H4088 H 0.50008 0.48817 0.00528 0.0
H4089 H 0.48736 0.53322 0.04553 0.0
H4090 H 0.45595 0.45933 0.99129 0.0
H4091 H 0.4643 0.44981 0.01128 0.0
H4092 H 0.47944 0.4576 0.99422 0.0
H4093 H 0.43991 0.51517 0.03889 0.0
H4094 H 0.45854 0.53078 0.05565 0.0
H4095 H 0.44854 0.50622 0.05915 0.0
C4096 C 0.35401 0.65094 0.75488 0.0
C4097 C 0.37258 0.65333 0.76247 0.0
C4098 C 0.34486 0.66692 0.75549 0.0
C4099 C 0.35394 0.68674 0.76388 0.0
C4100 C 0.37263 0.68934 0.77162 0.0
C4101 C 0.38145 0.67309 0.77087 0.0
C4102 C 0.32514 0.66242 0.74696 0.0
C4103 C 0.38351 0.70957 0.78096 0.0
C4104 C 0.33532 0.73229 0.75058 0.0
C4105 C 0.32495 0.73722 0.76546 0.0
C4106 C 0.3444 0.71625 0.74981 0.0
C4107 C 0.34403 0.70442 0.76454 0.0
C4108 C 0.33386 0.70966 0.77979 0.0
C4109 C 0.32438 0.72531 0.77985 0.0
C4110 C 0.35428 0.71175 0.73282 0.0
C4111 C 0.33295 0.69862 0.79634 0.0
H4112 H 0.34624 0.63631 0.74852 0.0
H4113 H 0.39565 0.67615 0.7768 0.0
H4114 H 0.3167 0.66675 0.7581 0.0
H4115 H 0.32364 0.67116 0.73546 0.0
H4116 H 0.3197 0.64659 0.74087 0.0
H4117 H 0.39791 0.70975 0.78584 0.0
H4118 H 0.38337 0.71997 0.77077 0.0
H4119 H 0.37712 0.71502 0.7935 0.0
H4120 H 0.33598 0.74074 0.73905 0.0
H4121 H 0.31656 0.7284 0.79152 0.0
H4122 H 0.34874 0.69625 0.72566 0.0
H4123 H 0.36896 0.71343 0.7377 0.0
H4124 H 0.35301 0.72148 0.72214 0.0
H4125 H 0.32545 0.68313 0.79118 0.0
H4126 H 0.32602 0.70517 0.80791 0.0
H4127 H 0.34692 0.69847 0.80245 0.0
C4128 C 0.18056 0.56503 0.49671 0.0
C4129 C 0.19237 0.57902 0.51091 0.0
C4130 C 0.16167 0.56169 0.49702 0.0
C4131 C 0.15487 0.57319 0.51144 0.0
C4132 C 0.16685 0.58746 0.52564 0.0
C4133 C 0.18553 0.59005 0.5253 0.0
C4134 C 0.14905 0.54595 0.48207 0.0
C4135 C 0.15996 0.60014 0.54106 0.0
C4136 C 0.10629 0.57812 0.50484 0.0
C4137 C 0.09872 0.56641 0.51758 0.0
C4138 C 0.12473 0.58042 0.5025 0.0
C4139 C 0.13525 0.56994 0.51246 0.0
C4140 C 0.12744 0.5577 0.52495 0.0
C4141 C 0.10933 0.55653 0.52778 0.0
C4142 C 0.13296 0.59406 0.48953 0.0
C4143 C 0.13814 0.54568 0.53511 0.0
H4144 H 0.18611 0.55683 0.48549 0.0
H4145 H 0.19486 0.60122 0.53594 0.0
H4146 H 0.13957 0.53574 0.48909 0.0
H4147 H 0.14059 0.55275 0.47282 0.0
H4148 H 0.15664 0.53733 0.47281 0.0
H4149 H 0.1712 0.61139 0.55026 0.0
H4150 H 0.15029 0.60771 0.53444 0.0
H4151 H 0.15243 0.59084 0.55037 0.0
H4152 H 0.09776 0.58527 0.49667 0.0
H4153 H 0.10319 0.54693 0.53715 0.0
H4154 H 0.13811 0.5857 0.4776 0.0
H4155 H 0.14479 0.60537 0.49766 0.0
H4156 H 0.12297 0.60156 0.48334 0.0
H4157 H 0.14467 0.53703 0.52466 0.0
H4158 H 0.12942 0.53539 0.54276 0.0
H4159 H 0.14919 0.55555 0.54571 0.0
C4160 C 0.73015 0.97281 0.77737 0.0
C4161 C 0.71541 0.96709 0.7628 0.0
C4162 C 0.741 0.9598 0.781 0.0
C4163 C 0.73658 0.94062 0.77002 0.0
C4164 C 0.72146 0.93473 0.75548 0.0
C4165 C 0.71113 0.9482 0.75188 0.0
C4166 C 0.75729 0.96664 0.79631 0.0
C4167 C 0.71619 0.91424 0.74378 0.0
C4168 C 0.77316 0.91242 0.76431 0.0
C4169 C 0.7696 0.89996 0.77769 0.0
C4170 C 0.76273 0.9261 0.762 0.0
C4171 C 0.74823 0.92693 0.77312 0.0
C4172 C 0.74461 0.91438 0.78673 0.0
C4173 C 0.75554 0.90108 0.78901 0.0
C4174 C 0.76712 0.93953 0.74759 0.0
C4175 C 0.72903 0.91476 0.79856 0.0
H4176 H 0.7333 0.98754 0.78572 0.0
H4177 H 0.69952 0.94393 0.74077 0.0
H4178 H 0.75609 0.95693 0.80723 0.0
H4179 H 0.76995 0.96569 0.78984 0.0
H4180 H 0.75871 0.98201 0.80362 0.0
H4181 H 0.70367 0.9119 0.73345 0.0
H4182 H 0.72749 0.91145 0.73565 0.0
H4183 H 0.71381 0.90324 0.75342 0.0
H4184 H 0.78419 0.9115 0.75572 0.0
H4185 H 0.75286 0.89124 0.79927 0.0
H4186 H 0.76953 0.95509 0.7547 0.0
H4187 H 0.75538 0.9367 0.73621 0.0
H4188 H 0.77937 0.93751 0.74072 0.0
H4189 H 0.73086 0.9296 0.80725 0.0
H4190 H 0.72796 0.90384 0.80836 0.0
H4191 H 0.71596 0.91165 0.78897 0.0
C4192 C 0.72111 0.94208 0.50132 0.0
C4193 C 0.72402 0.9328 0.5171 0.0
C4194 C 0.70623 0.95098 0.49909 0.0
C4195 C 0.6938 0.95066 0.51291 0.0
C4196 C 0.69633 0.94079 0.52852 0.0
C4197 C 0.71132 0.93207 0.53043 0.0
C4198 C 0.70421 0.96133 0.48224 0.0
C4199 C 0.6833 0.93971 0.54343 0.0
C4200 C 0.66799 0.99131 0.52203 0.0
C4201 C 0.65053 0.98234 0.51231 0.0
C4202 C 0.68223 0.98141 0.52174 0.0
C4203 C 0.67894 0.96175 0.51191 0.0
C4204 C 0.6613 0.95264 0.50192 0.0
C4205 C 0.64739 0.96313 0.50203 0.0
C4206 C 0.70083 0.99197 0.53219 0.0
C4207 C 0.657 0.93168 0.49145 0.0
H4208 H 0.73079 0.94294 0.49095 0.0
H4209 H 0.71306 0.92461 0.54245 0.0
H4210 H 0.69011 0.95634 0.47465 0.0
H4211 H 0.70669 0.97737 0.48746 0.0
H4212 H 0.71392 0.95876 0.47183 0.0
H4213 H 0.6865 0.93062 0.55413 0.0
H4214 H 0.68386 0.95471 0.55112 0.0
H4215 H 0.66909 0.93343 0.53641 0.0
H4216 H 0.6705 1.00622 0.52984 0.0
H4217 H 0.6339 0.95613 0.49452 0.0
H4218 H 0.71135 0.99153 0.52231 0.0
H4219 H 0.70435 0.98445 0.5441 0.0
H4220 H 0.70148 0.00756 0.53819 0.0
H4221 H 0.6663 0.93014 0.4804 0.0
H4222 H 0.64268 0.92671 0.48437 0.0
H4223 H 0.65927 0.92178 0.50165 0.0
C4224 C 0.35182 0.44072 0.76872 0.0
C4225 C 0.36698 0.44525 0.75841 0.0
C4226 C 0.34248 0.42096 0.76953 0.0
C4227 C 0.34792 0.40443 0.75978 0.0
C4228 C 0.36326 0.40881 0.74951 0.0
C4229 C 0.37242 0.4287 0.74899 0.0
C4230 C 0.32646 0.41778 0.78083 0.0
C4231 C 0.37 0.39229 0.73877 0.0
C4232 C 0.33083 0.35159 0.77279 0.0
C4233 C 0.31578 0.34258 0.75865 0.0
C4234 C 0.34133 0.37132 0.77334 0.0
C4235 C 0.33706 0.38287 0.75943 0.0
C4236 C 0.32205 0.37363 0.74507 0.0
C4237 C 0.31183 0.35408 0.74491 0.0
C4238 C 0.35697 0.37996 0.78907 0.0
C4239 C 0.31653 0.38455 0.72975 0.0
H4240 H 0.34683 0.45266 0.77603 0.0
H4241 H 0.38411 0.43115 0.74119 0.0
H4242 H 0.31396 0.40951 0.77116 0.0
H4243 H 0.32886 0.40876 0.79185 0.0
H4244 H 0.32396 0.43182 0.78806 0.0
H4245 H 0.38249 0.3977 0.73219 0.0
H4246 H 0.373 0.3823 0.7486 0.0
H4247 H 0.3592 0.38348 0.72727 0.0
H4248 H 0.33428 0.34336 0.78367 0.0
H4249 H 0.30041 0.34775 0.7338 0.0
H4250 H 0.35434 0.39312 0.79793 0.0
H4251 H 0.36973 0.38487 0.78276 0.0
H4252 H 0.3591 0.36932 0.79853 0.0
H4253 H 0.31246 0.39788 0.73646 0.0
H4254 H 0.30499 0.37541 0.71921 0.0
H4255 H 0.32829 0.38949 0.72196 0.0
C4256 C 0.23756 0.65011 0.28676 0.0
C4257 C 0.23648 0.63331 0.27318 0.0
C4258 C 0.25084 0.66718 0.2867 0.0
C4259 C 0.263 0.66707 0.27268 0.0
C4260 C 0.2637 0.64935 0.26102 0.0
C4261 C 0.25024 0.63251 0.26134 0.0
C4262 C 0.25001 0.68592 0.29961 0.0
C4263 C 0.27697 0.64876 0.24642 0.0
C4264 C 0.26492 0.7116 0.25006 0.0
C4265 C 0.28024 0.72426 0.26102 0.0
C4266 C 0.25972 0.69228 0.25293 0.0
C4267 C 0.27064 0.68568 0.26664 0.0
C4268 C 0.28719 0.69803 0.27628 0.0
C4269 C 0.2916 0.71754 0.27368 0.0
C4270 C 0.24177 0.67958 0.24253 0.0
C4271 C 0.29958 0.69119 0.29022 0.0
H4272 H 0.22699 0.65053 0.29606 0.0
H4273 H 0.24959 0.61918 0.25125 0.0
H4274 H 0.2639 0.69455 0.30578 0.0
H4275 H 0.24361 0.69513 0.29108 0.0
H4276 H 0.24186 0.68294 0.31154 0.0
H4277 H 0.27887 0.63366 0.24213 0.0
H4278 H 0.27162 0.65362 0.23339 0.0
H4279 H 0.29042 0.65884 0.25209 0.0
H4280 H 0.25634 0.7172 0.24028 0.0
H4281 H 0.30365 0.72761 0.28181 0.0
H4282 H 0.232 0.67629 0.25302 0.0
H4283 H 0.24371 0.66539 0.23511 0.0
H4284 H 0.2355 0.6868 0.23174 0.0
H4285 H 0.29511 0.69338 0.30467 0.0
H4286 H 0.31391 0.6998 0.29133 0.0
H4287 H 0.29918 0.67536 0.28594 0.0
C4288 C 0.50941 0.66103 0.46185 0.0
C4289 C 0.52355 0.67796 0.4628 0.0
C4290 C 0.51223 0.6446 0.46983 0.0
C4291 C 0.52972 0.64461 0.47891 0.0
C4292 C 0.544 0.66166 0.48017 0.0
C4293 C 0.54076 0.67801 0.4723 0.0
C4294 C 0.49643 0.62701 0.46829 0.0
C4295 C 0.56291 0.66256 0.48959 0.0
C4296 C 0.53374 0.60675 0.512 0.0
C4297 C 0.53826 0.59161 0.49961 0.0
C4298 C 0.53105 0.62405 0.50558 0.0
C4299 C 0.53314 0.62652 0.48634 0.0
C4300 C 0.53811 0.61134 0.47397 0.0
C4301 C 0.54042 0.5941 0.48068 0.0
C4302 C 0.52564 0.63957 0.51934 0.0
C4303 C 0.54092 0.61324 0.45353 0.0
H4304 H 0.49609 0.66032 0.45446 0.0
H4305 H 0.55184 0.69091 0.47372 0.0
H4306 H 0.49943 0.61404 0.45947 0.0
H4307 H 0.49451 0.62335 0.48273 0.0
H4308 H 0.48346 0.62954 0.46173 0.0
H4309 H 0.57237 0.67712 0.49029 0.0
H4310 H 0.56234 0.65939 0.50436 0.0
H4311 H 0.56863 0.65114 0.48145 0.0
H4312 H 0.53204 0.60493 0.52665 0.0
H4313 H 0.54401 0.58251 0.47106 0.0
H4314 H 0.51201 0.64134 0.5139 0.0
H4315 H 0.53543 0.65395 0.52035 0.0
H4316 H 0.52514 0.63585 0.53395 0.0
H4317 H 0.52799 0.61426 0.44552 0.0
H4318 H 0.5455 0.60061 0.44595 0.0
H4319 H 0.55124 0.62696 0.45327 0.0
C4320 C 0.67951 0.31367 0.68903 0.0
C4321 C 0.66642 0.2975 0.67812 0.0
C4322 C 0.69538 0.31134 0.6998 0.0
C4323 C 0.69881 0.29237 0.69967 0.0
C4324 C 0.68585 0.27603 0.68855 0.0
C4325 C 0.66995 0.27873 0.6782 0.0
C4326 C 0.70845 0.32927 0.7116 0.0
C4327 C 0.68857 0.25547 0.68787 0.0
C4328 C 0.74733 0.28739 0.71803 0.0
C4329 C 0.74546 0.2845 0.73696 0.0
C4330 C 0.73238 0.28989 0.70571 0.0
C4331 C 0.71505 0.28946 0.71231 0.0
C4332 C 0.71318 0.28626 0.73132 0.0
C4333 C 0.72821 0.28388 0.74321 0.0
C4334 C 0.73517 0.29325 0.68564 0.0
C4335 C 0.69527 0.28565 0.73931 0.0
H4336 H 0.67749 0.32835 0.68913 0.0
H4337 H 0.66008 0.26586 0.67044 0.0
H4338 H 0.70961 0.32779 0.72695 0.0
H4339 H 0.72226 0.33053 0.70707 0.0
H4340 H 0.70406 0.34303 0.71023 0.0
H4341 H 0.67825 0.24448 0.67731 0.0
H4342 H 0.70237 0.25484 0.68409 0.0
H4343 H 0.68765 0.25129 0.70223 0.0
H4344 H 0.76052 0.28812 0.71297 0.0
H4345 H 0.72642 0.28169 0.75776 0.0
H4346 H 0.73274 0.30778 0.68377 0.0
H4347 H 0.72513 0.28197 0.67509 0.0
H4348 H 0.74916 0.29274 0.68236 0.0
H4349 H 0.69138 0.29985 0.73911 0.0
H4350 H 0.69587 0.28276 0.75426 0.0
H4351 H 0.68428 0.27404 0.73023 0.0
C4352 C 0.01959 0.37722 0.99038 0.0
C4353 C 0.0288 0.37163 0.97492 0.0
C4354 C 0.02064 0.39715 0.99747 0.0
C4355 C 0.03102 0.41189 0.98883 0.0
C4356 C 0.04072 0.40637 0.97356 0.0
C4357 C 0.03952 0.38636 0.96683 0.0
C4358 C 0.01039 0.40243 0.01401 0.0
C4359 C 0.05199 0.4216 0.96397 0.0
C4360 C 0.01955 0.46195 0.99133 0.0
C4361 C 0.03396 0.47398 1.0045 0.0
C4362 C 0.01817 0.44162 0.98646 0.0
C4363 C 0.03134 0.43308 0.9952 0.0
C4364 C 0.04544 0.44507 0.00915 0.0
C4365 C 0.04664 0.46535 0.01352 0.0
C4366 C 1.00305 0.42939 0.97137 0.0
C4367 C 0.0595 0.43657 0.01919 0.0
H4368 H 0.01147 0.36598 0.99689 0.0
H4369 H 0.0465 0.38225 0.95474 0.0
H4370 H 0.01981 0.41293 0.02573 0.0
H4371 H 0.99973 0.40983 0.00926 0.0
H4372 H 1.00376 0.38933 0.01984 0.0
H4373 H 0.05905 0.41494 0.95257 0.0
H4374 H 0.0431 0.43008 0.95748 0.0
H4375 H 0.06241 0.43218 0.97474 0.0
H4376 H 0.00977 0.46853 0.98423 0.0
H4377 H 0.0577 0.47454 0.02389 0.0
H4378 H 0.99525 0.41674 0.97701 0.0
H4379 H 0.009 0.42332 0.95875 0.0
H4380 H 0.99344 0.43802 0.96653 0.0
H4381 H 0.05264 0.42515 0.02694 0.0
H4382 H 0.06964 0.44793 0.02961 0.0
H4383 H 0.06688 0.42936 0.00852 0.0
C4384 C 0.96936 0.77456 0.15748 0.0
C4385 C 0.98589 0.78632 0.16758 0.0
C4386 C 0.95291 0.77221 0.16586 0.0
C4387 C 0.95289 0.78156 0.18499 0.0
C4388 C 0.96965 0.79304 0.19538 0.0
C4389 C 0.98579 0.79542 0.18654 0.0
C4390 C 0.93546 0.76011 0.15402 0.0
C4391 C 0.97054 0.80287 0.21592 0.0
C4392 C 0.90934 0.793 0.20312 0.0
C4393 C 0.90362 0.77789 0.21362 0.0
C4394 C 0.92491 0.79399 0.19333 0.0
C4395 C 0.93541 0.77974 0.19412 0.0
C4396 C 0.92955 0.76424 0.20431 0.0
C4397 C 0.91378 0.76342 0.21372 0.0
C4398 C 0.93034 0.81059 0.1824 0.0
C4399 C 0.94015 0.74864 0.20556 0.0
H4400 H 0.96918 0.76757 0.14278 0.0
H4401 H 0.99847 0.80431 0.19459 0.0
H4402 H 0.92844 0.74884 0.16184 0.0
H4403 H 0.92606 0.76976 0.15151 0.0
H4404 H 0.93789 0.75265 0.13991 0.0
H4405 H 0.98468 0.8106 0.22231 0.0
H4406 H 0.96188 0.81367 0.21671 0.0
H4407 H 0.9651 0.79178 0.22473 0.0
H4408 H 0.90195 0.80446 0.20294 0.0
H4409 H 0.90945 0.75133 0.22124 0.0
H4410 H 0.93187 0.80464 0.16742 0.0
H4411 H 0.94378 0.82007 0.18909 0.0
H4412 H 0.92023 0.81981 0.1821 0.0
H4413 H 0.94074 0.74082 0.19097 0.0
H4414 H 0.93403 0.73768 0.21422 0.0
H4415 H 0.95442 0.75556 0.21207 0.0
C4416 C 0.50842 0.35093 0.0863 0.0
C4417 C 0.52155 0.34531 0.09802 0.0
C4418 C 0.51317 0.36736 0.07743 0.0
C4419 C 0.53155 0.37817 0.08002 0.0
C4420 C 0.54485 0.37275 0.09195 0.0
C4421 C 0.53964 0.35654 0.10102 0.0
C4422 C 0.49857 0.37292 0.06498 0.0
C4423 C 0.56463 0.38386 0.09488 0.0
C4424 C 0.54475 0.40607 0.04013 0.0
C4425 C 0.54398 0.42518 0.04814 0.0
C4426 C 0.54144 0.39078 0.05067 0.0
C4427 C 0.53692 0.39463 0.06953 0.0
C4428 C 0.53668 0.41396 0.07795 0.0
C4429 C 0.54036 0.42906 0.06719 0.0
C4430 C 0.54221 0.37038 0.0414 0.0
C4431 C 0.53188 0.41857 0.09804 0.0
H4432 H 0.49448 0.34224 0.08368 0.0
H4433 H 0.54981 0.35263 0.11043 0.0
H4434 H 0.49846 0.38855 0.06972 0.0
H4435 H 0.50158 0.3713 0.0499 0.0
H4436 H 0.48475 0.36368 0.06536 0.0
H4437 H 0.57339 0.37731 0.10409 0.0
H4438 H 0.56993 0.38408 0.08083 0.0
H4439 H 0.56586 0.39935 0.10161 0.0
H4440 H 0.54734 0.40288 0.02537 0.0
H4441 H 0.54012 0.44388 0.07361 0.0
H4442 H 0.52839 0.36046 0.03942 0.0
H4443 H 0.55124 0.36433 0.05081 0.0
H4444 H 0.5473 0.37018 0.02719 0.0
H4445 H 0.51745 0.4111 0.0985 0.0
H4446 H 0.53364 0.4346 0.10297 0.0
H4447 H 0.54045 0.41292 0.10827 0.0
C4448 C 0.99637 0.29021 0.29791 0.0
C4449 C 1.00132 0.29528 0.31774 0.0
C4450 C 0.97862 0.28958 0.28991 0.0
C4451 C 0.96597 0.29468 0.3021 0.0
C4452 C 0.97092 0.29943 0.32222 0.0
C4453 C 0.98858 0.29949 0.32983 0.0
C4454 C 0.9736 0.28421 0.26843 0.0
C4455 C 0.95787 0.30534 0.33561 0.0
C4456 C 0.92895 0.31803 0.28464 0.0
C4457 C 0.91342 0.30273 0.2834 0.0
C4458 C 0.94632 0.31526 0.2898 0.0
C4459 C 0.94807 0.29678 0.29389 0.0
C4460 C 0.93254 0.28101 0.29181 0.0
C4461 C 0.91533 0.28416 0.2865 0.0
C4462 C 0.96265 0.33243 0.29196 0.0
C4463 C 0.934 0.2611 0.29602 0.0
H4464 H 1.00644 0.28703 0.28873 0.0
H4465 H 0.99272 0.30359 0.34519 0.0
H4466 H 0.96057 0.27285 0.26482 0.0
H4467 H 0.9715 0.29731 0.26256 0.0
H4468 H 0.98434 0.27861 0.26122 0.0
H4469 H 0.96365 0.30774 0.35094 0.0
H4470 H 0.95448 0.31913 0.33254 0.0
H4471 H 0.94492 0.29388 0.33328 0.0
H4472 H 0.92748 0.33247 0.28248 0.0
H4473 H 0.90331 0.27224 0.28523 0.0
H4474 H 0.97349 0.32815 0.28394 0.0
H4475 H 0.96843 0.33695 0.3073 0.0
H4476 H 0.95909 0.34531 0.28675 0.0
H4477 H 0.94442 0.2558 0.28802 0.0
H4478 H 0.9208 0.25 0.29217 0.0
H4479 H 0.93849 0.26229 0.31153 0.0
C4480 C 0.99239 0.64738 0.57538 0.0
C4481 C 1.00415 0.65817 0.59168 0.0
C4482 C 0.99629 0.6307 0.56482 0.0
C4483 C 0.01267 0.62526 0.57026 0.0
C4484 C 0.02415 0.63554 0.5871 0.0
C4485 C 0.01944 0.65145 0.5979 0.0
C4486 C 0.98335 0.6195 0.54734 0.0
C4487 C 0.04202 0.63056 0.59304 0.0
C4488 C 0.02265 0.57711 0.54826 0.0
C4489 C 0.03149 0.58274 0.53285 0.0
C4490 C 0.01588 0.59067 0.56034 0.0
C4491 C 0.01892 0.61037 0.55731 0.0
C4492 C 0.02855 0.61618 0.54215 0.0
C4493 C 0.03433 0.60211 0.5298 0.0
C4494 C 1.00488 0.58376 0.57575 0.0
C4495 C 0.03269 0.6372 0.53887 0.0
H4496 H 0.98053 0.65232 0.57039 0.0
H4497 H 0.0282 0.65906 0.61094 0.0
H4498 H 0.9893 0.62284 0.53417 0.0
H4499 H 0.98119 0.60343 0.54696 0.0
H4500 H 0.9699 0.62342 0.54697 0.0
H4501 H 0.04913 0.63968 0.60686 0.0
H4502 H 0.03973 0.61486 0.59444 0.0
H4503 H 0.05117 0.63293 0.58181 0.0
H4504 H 0.02026 0.56195 0.55025 0.0
H4505 H 0.04112 0.60625 0.51771 0.0
H4506 H 0.99059 0.58494 0.57239 0.0
H4507 H 0.01033 0.59321 0.58987 0.0
H4508 H 1.00475 0.56827 0.57696 0.0
H4509 H 0.01981 0.6414 0.53467 0.0
H4510 H 0.04165 0.63949 0.52745 0.0
H4511 H 0.03946 0.64726 0.55232 0.0
C4512 C 0.67159 0.81974 0.80756 0.0
C4513 C 0.67073 0.81166 0.82436 0.0
C4514 C 0.68556 0.81805 0.79623 0.0
C4515 C 0.69895 0.80829 0.80208 0.0
C4516 C 0.69815 0.80017 0.81908 0.0
C4517 C 0.68394 0.80188 0.83 0.0
C4518 C 0.68591 0.82647 0.77794 0.0
C4519 C 0.71236 0.78983 0.82584 0.0
C4520 C 0.72832 0.7864 0.76915 0.0
C4521 C 0.74491 0.80044 0.77408 0.0
C4522 C 0.71273 0.78944 0.77715 0.0
C4523 C 0.71405 0.80668 0.79067 0.0
C4524 C 0.73051 0.8214 0.79483 0.0
C4525 C 0.74575 0.81819 0.78625 0.0
C4526 C 0.6952 0.77369 0.77205 0.0
C4527 C 0.73246 0.83983 0.80943 0.0
H4528 H 0.66116 0.82708 0.80315 0.0
H4529 H 0.68327 0.79581 0.8431 0.0
H4530 H 0.69904 0.83726 0.7783 0.0
H4531 H 0.68491 0.81457 0.76552 0.0
H4532 H 0.67457 0.83384 0.77557 0.0
H4533 H 0.70986 0.78466 0.83958 0.0
H4534 H 0.71249 0.77696 0.81486 0.0
H4535 H 0.72612 0.79988 0.82781 0.0
H4536 H 0.72769 0.77273 0.75959 0.0
H4537 H 0.75863 0.82901 0.79013 0.0
H4538 H 0.68353 0.78029 0.76875 0.0
H4539 H 0.69244 0.76619 0.78447 0.0
H4540 H 0.69582 0.76247 0.75954 0.0
H4541 H 0.72141 0.84729 0.80607 0.0
H4542 H 0.74582 0.85037 0.81003 0.0
H4543 H 0.73116 0.83589 0.82386 0.0
C4544 C 0.47568 0.56374 0.64274 0.0
C4545 C 0.47991 0.55389 0.65794 0.0
C4546 C 0.48383 0.56245 0.62513 0.0
C4547 C 0.49702 0.55102 0.62169 0.0
C4548 C 0.50146 0.54112 0.63695 0.0
C4549 C 0.49302 0.54256 0.65439 0.0
C4550 C 0.47826 0.57354 0.61002 0.0
C4551 C 0.5155 0.52903 0.635 0.0
C4552 C 0.50904 0.53549 0.56875 0.0
C4553 C 0.52557 0.54914 0.56785 0.0
C4554 C 0.49977 0.53586 0.58576 0.0
C4555 C 0.50669 0.55026 0.60285 0.0
C4556 C 0.5232 0.56412 0.60175 0.0
C4557 C 0.53219 0.56329 0.58481 0.0
C4558 C 0.48256 0.5204 0.58558 0.0
C4559 C 0.53165 0.58002 0.61876 0.0
H4560 H 0.46565 0.57247 0.64439 0.0
H4561 H 0.49711 0.53492 0.6655 0.0
H4562 H 0.49036 0.5843 0.60723 0.0
H4563 H 0.47282 0.56321 0.59635 0.0
H4564 H 0.46773 0.58153 0.61427 0.0
H4565 H 0.5169 0.52119 0.64725 0.0
H4566 H 0.51181 0.51809 0.6215 0.0
H4567 H 0.52897 0.53871 0.63413 0.0
H4568 H 0.50352 0.52414 0.55633 0.0
H4569 H 0.54487 0.57402 0.58496 0.0
H4570 H 0.47124 0.5275 0.58894 0.0
H4571 H 0.48455 0.51158 0.5969 0.0
H4572 H 0.4785 0.51037 0.57152 0.0
H4573 H 0.52185 0.58914 0.6225 0.0
H4574 H 0.54444 0.58976 0.61599 0.0
H4575 H 0.53475 0.57333 0.63143 0.0
C4576 C 0.77312 0.19733 0.92609 0.0
C4577 C 0.76535 0.20137 0.9429 0.0
C4578 C 0.76787 0.20444 0.90972 0.0
C4579 C 0.75478 0.21599 0.91052 0.0
C4580 C 0.74688 0.22002 0.92751 0.0
C4581 C 0.75222 0.21252 0.94356 0.0
C4582 C 0.77657 0.19999 0.89175 0.0
C4583 C 0.73317 0.23263 0.92884 0.0
C4584 C 0.7591 0.25364 0.87845 0.0
C4585 C 0.74559 0.24432 0.8631 0.0
C4586 C 0.76209 0.24454 0.89403 0.0
C4587 C 0.75102 0.22582 0.89439 0.0
C4588 C 0.73689 0.21654 0.87928 0.0
C4589 C 0.73451 0.22584 0.8635 0.0
C4590 C 0.77765 0.25461 0.90965 0.0
C4591 C 0.72479 0.1966 0.87953 0.0
H4592 H 0.78307 0.18837 0.92571 0.0
H4593 H 0.74627 0.21547 0.95671 0.0
H4594 H 0.76589 0.1933 0.8794 0.0
H4595 H 0.78466 0.21383 0.88832 0.0
H4596 H 0.78572 0.18984 0.89324 0.0
H4597 H 0.72766 0.23349 0.94284 0.0
H4598 H 0.73966 0.24774 0.92694 0.0
H4599 H 0.72165 0.22669 0.91716 0.0
H4600 H 0.76811 0.26764 0.87775 0.0
H4601 H 0.72439 0.21855 0.85133 0.0
H4602 H 0.78783 0.24551 0.91031 0.0
H4603 H 0.77254 0.25623 0.92382 0.0
H4604 H 0.78469 0.26938 0.90726 0.0
H4605 H 0.733 0.18537 0.87843 0.0
H4606 H 0.71345 0.19224 0.86753 0.0
H4607 H 0.71893 0.19656 0.89329 0.0
C4608 C 0.11135 0.52628 0.13296 0.0
C4609 C 0.11026 0.53944 0.14934 0.0
C4610 C 0.10011 0.525 0.11595 0.0
C4611 C 0.08752 0.53707 0.11562 0.0
C4612 C 0.08634 0.55035 0.13217 0.0
C4613 C 0.09785 0.55142 0.14893 0.0
C4614 C 0.10179 0.51093 0.09834 0.0
C4615 C 0.07297 0.56336 0.13215 0.0
C4616 C 0.0712 0.54842 0.06817 0.0
C4617 C 0.05407 0.5353 0.06382 0.0
C4618 C 0.08236 0.54901 0.08501 0.0
C4619 C 0.076 0.5363 0.09772 0.0
C4620 C 0.05866 0.52306 0.09344 0.0
C4621 C 0.04781 0.52271 0.07638 0.0
C4622 C 0.10087 0.56325 0.08923 0.0
C4623 C 0.05159 0.50938 0.10686 0.0
H4624 H 0.1211 0.51713 0.13345 0.0
H4625 H 0.09696 0.56137 0.16181 0.0
H4626 H 0.0884 0.50065 0.09291 0.0
H4627 H 0.10589 0.51922 0.08674 0.0
H4628 H 0.11199 0.50224 0.10123 0.0
H4629 H 0.0736 0.5726 0.1464 0.0
H4630 H 0.07582 0.57316 0.12144 0.0
H4631 H 0.05886 0.55424 0.12791 0.0
H4632 H 0.07588 0.55831 0.05845 0.0
H4633 H 0.03451 0.5126 0.07287 0.0
H4634 H 0.11171 0.55521 0.09147 0.0
H4635 H 0.10152 0.57378 0.10266 0.0
H4636 H 0.10391 0.57169 0.07747 0.0
H4637 H 0.06112 0.49984 0.10922 0.0
H4638 H 0.03783 0.49989 0.10126 0.0
H4639 H 0.05086 0.51802 0.12104 0.0
C4640 C 0.80547 0.8097 0.42004 0.0
C4641 C 0.79651 0.82445 0.42639 0.0
C4642 C 0.80556 0.80306 0.40034 0.0
C4643 C 0.79668 0.8115 0.38653 0.0
C4644 C 0.78724 0.82603 0.39283 0.0
C4645 C 0.78721 0.83226 0.41261 0.0
C4646 C 0.81541 0.7872 0.39429 0.0
C4647 C 0.77757 0.83543 0.37865 0.0
C4648 C 0.81285 0.81073 0.337 0.0
C4649 C 0.79865 0.79656 0.32542 0.0
C4650 C 0.81244 0.81562 0.35691 0.0
C4651 C 0.79775 0.80569 0.36554 0.0
C4652 C 0.78376 0.7908 0.35393 0.0
C4653 C 0.78425 0.78663 0.33402 0.0
C4654 C 0.82742 0.83189 0.36862 0.0
C4655 C 0.7682 0.77931 0.3625 0.0
H4656 H 0.81248 0.80335 0.43052 0.0
H4657 H 0.78041 0.8438 0.41727 0.0
H4658 H 0.80614 0.77497 0.38398 0.0
H4659 H 0.8271 0.79318 0.38683 0.0
H4660 H 0.82062 0.78123 0.40668 0.0
H4661 H 0.77056 0.84625 0.38579 0.0
H4662 H 0.78756 0.84303 0.37011 0.0
H4663 H 0.76732 0.82401 0.36846 0.0
H4664 H 0.82391 0.81857 0.33039 0.0
H4665 H 0.77332 0.77552 0.32512 0.0
H4666 H 0.83409 0.8264 0.38051 0.0
H4667 H 0.82149 0.84394 0.3752 0.0
H4668 H 0.83798 0.83802 0.35986 0.0
H4669 H 0.77364 0.77134 0.3731 0.0
H4670 H 0.75823 0.76848 0.35146 0.0
H4671 H 0.76091 0.78942 0.37028 0.0
C4672 C 0.50136 0.56639 0.86912 0.0
C4673 C 0.48307 0.55663 0.86189 0.0
C4674 C 0.50992 0.5644 0.88735 0.0
C4675 C 0.50012 0.55279 0.89955 0.0
C4676 C 0.48157 0.54329 0.89249 0.0
C4677 C 0.47352 0.54505 0.87401 0.0
C4678 C 0.52974 0.57454 0.8934 0.0
C4679 C 0.46995 0.53132 0.90467 0.0
C4680 C 0.52418 0.53149 0.94009 0.0
C4681 C 0.52466 0.54499 0.95707 0.0
C4682 C 0.51684 0.5341 0.92161 0.0
C4683 C 0.50907 0.55042 0.91944 0.0
C4684 C 0.50957 0.56412 0.93656 0.0
C4685 C 0.51742 0.56141 0.95478 0.0
C4686 C 0.51754 0.5193 0.90424 0.0
C4687 C 0.50172 0.58183 0.93577 0.0
H4688 H 0.50925 0.5753 0.86026 0.0
H4689 H 0.45941 0.53753 0.86919 0.0
H4690 H 0.53121 0.5851 0.90698 0.0
H4691 H 0.53765 0.56356 0.8962 0.0
H4692 H 0.53579 0.5826 0.88238 0.0
H4693 H 0.45561 0.52557 0.89783 0.0
H4694 H 0.47573 0.51873 0.90735 0.0
H4695 H 0.47001 0.54046 0.91882 0.0
H4696 H 0.52973 0.51877 0.94116 0.0
H4697 H 0.51758 0.57217 0.96741 0.0
H4698 H 0.52463 0.5269 0.89348 0.0
H4699 H 0.5035 0.51187 0.8974 0.0
H4700 H 0.52472 0.50796 0.90786 0.0
H4701 H 0.51088 0.59258 0.92902 0.0
H4702 H 0.50021 0.58922 0.95028 0.0
H4703 H 0.48818 0.5776 0.92689 0.0
C4704 C 0.77004 0.21033 0.12995 0.0
C4705 C 0.78511 0.21259 0.11959 0.0
C4706 C 0.77029 0.22294 0.14718 0.0
C4707 C 0.78628 0.2376 0.15465 0.0
C4708 C 0.8015 0.24011 0.14431 0.0
C4709 C 0.80058 0.22784 0.1267 0.0
C4710 C 0.75365 0.22019 0.15766 0.0
C4711 C 0.81901 0.25521 0.1522 0.0
C4712 C 0.78701 0.27903 0.19544 0.0
C4713 C 0.79279 0.27118 0.21112 0.0
C4714 C 0.78414 0.26794 0.17687 0.0
C4715 C 0.78781 0.24901 0.17413 0.0
C4716 C 0.79365 0.2411 0.19002 0.0
C4717 C 0.79575 0.25217 0.20838 0.0
C4718 C 0.77727 0.27642 0.16021 0.0
C4719 C 0.79821 0.22119 0.18762 0.0
H4720 H 0.75811 0.19844 0.12487 0.0
H4721 H 0.81212 0.23014 0.11863 0.0
H4722 H 0.75653 0.21427 0.17088 0.0
H4723 H 0.75018 0.23451 0.16209 0.0
H4724 H 0.74158 0.2099 0.14872 0.0
H4725 H 0.82938 0.25572 0.14205 0.0
H4726 H 0.81628 0.27003 0.15559 0.0
H4727 H 0.82485 0.25174 0.16579 0.0
H4728 H 0.7846 0.2937 0.19773 0.0
H4729 H 0.80033 0.24615 0.22058 0.0
H4730 H 0.76487 0.26604 0.15203 0.0
H4731 H 0.78772 0.2785 0.15024 0.0
H4732 H 0.77394 0.29078 0.16494 0.0
H4733 H 0.78605 0.20961 0.1807 0.0
H4734 H 0.80298 0.21743 0.20152 0.0
H4735 H 0.80903 0.22089 0.17809 0.0
C4736 C 0.09729 0.55001 0.33469 0.0
C4737 C 0.11429 0.55274 0.32813 0.0
C4738 C 0.09574 0.55846 0.35332 0.0
C4739 C 0.11158 0.57025 0.36518 0.0
C4740 C 0.12862 0.57389 0.35814 0.0
C4741 C 0.12982 0.56481 0.33963 0.0
C4742 C 0.07736 0.55396 0.36058 0.0
C4743 C 0.14558 0.58674 0.37032 0.0
C4744 C 0.09544 0.59383 0.40868 0.0
C4745 C 0.09549 0.57924 0.41988 0.0
C4746 C 0.1033 0.59277 0.39159 0.0
C4747 C 0.11049 0.57634 0.3856 0.0
C4748 C 0.11265 0.56307 0.39808 0.0
C4749 C 0.10538 0.56494 0.41534 0.0
C4750 C 0.10187 0.60776 0.37893 0.0
C4751 C 0.1198 0.54502 0.39202 0.0
H4752 H 0.0854 0.54079 0.32545 0.0
H4753 H 0.14289 0.56709 0.3341 0.0
H4754 H 0.07815 0.54606 0.37286 0.0
H4755 H 0.07335 0.5678 0.36578 0.0
H4756 H 0.06646 0.54478 0.34932 0.0
H4757 H 0.15702 0.59047 0.36173 0.0
H4758 H 0.1427 0.60055 0.37759 0.0
H4759 H 0.15008 0.57905 0.38168 0.0
H4760 H 0.08796 0.60501 0.41241 0.0
H4761 H 0.10535 0.55354 0.42397 0.0
H4762 H 0.0896 0.60205 0.36813 0.0
H4763 H 0.11396 0.61069 0.37112 0.0
H4764 H 0.10055 0.6218 0.3874 0.0
H4765 H 0.10919 0.5341 0.3817 0.0
H4766 H 0.12319 0.53802 0.40441 0.0
H4767 H 0.13212 0.54862 0.38472 0.0
C4768 C 0.79277 0.81659 0.62353 0.0
C4769 C 0.80045 0.83654 0.62333 0.0
C4770 C 0.79122 0.80922 0.64093 0.0
C4771 C 0.79719 0.82208 0.65882 0.0
C4772 C 0.80493 0.8422 0.65871 0.0
C4773 C 0.80653 0.84911 0.64113 0.0
C4774 C 0.78306 0.78763 0.64009 0.0
C4775 C 0.81129 0.8566 0.67726 0.0
C4776 C 0.77673 0.8076 0.70374 0.0
C4777 C 0.79109 0.80216 0.7138 0.0
C4778 C 0.77858 0.81419 0.68605 0.0
C4779 C 0.79499 0.81477 0.67767 0.0
C4780 C 0.80943 0.80886 0.68763 0.0
C4781 C 0.80743 0.80298 0.70566 0.0
C4782 C 0.76288 0.8206 0.67636 0.0
C4783 C 0.82686 0.80831 0.67901 0.0
H4784 H 0.78816 0.80656 0.61002 0.0
H4785 H 0.81221 0.86458 0.64139 0.0
H4786 H 0.79155 0.78142 0.64991 0.0
H4787 H 0.76931 0.78567 0.64485 0.0
H4788 H 0.78168 0.77909 0.62536 0.0
H4789 H 0.81684 0.87179 0.67486 0.0
H4790 H 0.79975 0.85669 0.68586 0.0
H4791 H 0.82202 0.85202 0.6859 0.0
H4792 H 0.76401 0.80682 0.70983 0.0
H4793 H 0.81846 0.79836 0.71309 0.0
H4794 H 0.75757 0.8107 0.66244 0.0
H4795 H 0.76763 0.83566 0.67329 0.0
H4796 H 0.75151 0.82046 0.68524 0.0
H4797 H 0.8237 0.79835 0.66488 0.0
H4798 H 0.83672 0.80315 0.68834 0.0
H4799 H 0.83345 0.82313 0.67644 0.0
C4800 C 0.72946 0.49168 0.51903 0.0
C4801 C 0.72643 0.47128 0.51689 0.0
C4802 C 0.71511 0.50088 0.52195 0.0
C4803 C 0.6975 0.48924 0.52269 0.0
C4804 C 0.69455 0.46858 0.52089 0.0
C4805 C 0.70916 0.4598 0.51798 0.0
C4806 C 0.71872 0.52296 0.52394 0.0
C4807 C 0.67595 0.45578 0.5217 0.0
C4808 C 0.66345 0.51532 0.54403 0.0
C4809 C 0.65362 0.51819 0.52746 0.0
C4810 C 0.67761 0.50555 0.54272 0.0
C4811 C 0.682 0.49863 0.52441 0.0
C4812 C 0.6719 0.50116 0.50764 0.0
C4813 C 0.6578 0.51093 0.50937 0.0
C4814 C 0.68804 0.50289 0.56087 0.0
C4815 C 0.67627 0.49392 0.48788 0.0
H4816 H 0.74302 0.50035 0.51828 0.0
H4817 H 0.70712 0.44397 0.51641 0.0
H4818 H 0.7103 0.52694 0.51225 0.0
H4819 H 0.71471 0.52929 0.53772 0.0
H4820 H 0.7333 0.52984 0.52344 0.0
H4821 H 0.67625 0.44009 0.52114 0.0
H4822 H 0.67054 0.46093 0.53505 0.0
H4823 H 0.66627 0.45687 0.50946 0.0
H4824 H 0.66001 0.52067 0.55802 0.0
H4825 H 0.6503 0.51331 0.49656 0.0
H4826 H 0.70242 0.51132 0.56218 0.0
H4827 H 0.68825 0.48721 0.56033 0.0
H4828 H 0.68208 0.50793 0.57391 0.0
H4829 H 0.69029 0.50167 0.48615 0.0
H4830 H 0.66659 0.49633 0.4763 0.0
H4831 H 0.67591 0.478 0.48608 0.0
C4832 C 0.16957 0.12714 0.49476 0.0
C4833 C 0.18518 0.1206 0.50023 0.0
C4834 C 0.1518 0.11626 0.49618 0.0
C4835 C 0.14934 0.09796 0.5027 0.0
C4836 C 0.16512 0.09128 0.50815 0.0
C4837 C 0.18274 0.10275 0.50713 0.0
C4838 C 0.13561 0.12438 0.49072 0.0
C4839 C 0.16337 0.07175 0.51472 0.0
C4840 C 0.1036 0.07499 0.51968 0.0
C4841 C 0.0945 0.06152 0.50328 0.0
C4842 C 0.12131 0.08693 0.51973 0.0
C4843 C 0.13032 0.08548 0.50301 0.0
C4844 C 0.12107 0.07197 0.48643 0.0
C4845 C 0.10341 0.06031 0.48676 0.0
C4846 C 0.13045 0.10109 0.53774 0.0
C4847 C 0.12991 0.06966 0.46828 0.0
H4848 H 0.17129 0.14101 0.48963 0.0
H4849 H 0.19469 0.09754 0.51136 0.0
H4850 H 0.12665 0.11428 0.47842 0.0
H4851 H 0.12739 0.12542 0.50286 0.0
H4852 H 0.13973 0.13915 0.48676 0.0
H4853 H 0.17686 0.06874 0.51884 0.0
H4854 H 0.15553 0.07132 0.52717 0.0
H4855 H 0.15568 0.05978 0.50305 0.0
H4856 H 0.09694 0.07607 0.53255 0.0
H4857 H 0.0966 0.05001 0.47399 0.0
H4858 H 0.13393 0.11627 0.53465 0.0
H4859 H 0.14343 0.09752 0.54279 0.0
H4860 H 0.12169 0.10072 0.54948 0.0
H4861 H 0.13296 0.08384 0.46301 0.0
H4862 H 0.12114 0.0583 0.45671 0.0
H4863 H 0.14309 0.06555 0.47126 0.0
C4864 C 0.2215 0.90966 0.78265 0.0
C4865 C 0.21582 0.91693 0.76603 0.0
C4866 C 0.2302 0.89332 0.78215 0.0
C4867 C 0.23397 0.88299 0.7646 0.0
C4868 C 0.2283 0.89008 0.74776 0.0
C4869 C 0.21952 0.90639 0.74863 0.0
C4870 C 0.2355 0.88712 0.80079 0.0
C4871 C 0.23152 0.88029 0.72845 0.0
C4872 C 0.27283 0.85296 0.76518 0.0
C4873 C 0.26361 0.83285 0.76314 0.0
C4874 C 0.26361 0.86883 0.76554 0.0
C4875 C 0.24413 0.86547 0.76395 0.0
C4876 C 0.23469 0.84518 0.76185 0.0
C4877 C 0.24428 0.82952 0.76146 0.0
C4878 C 0.27498 0.88951 0.76761 0.0
C4879 C 0.21415 0.83986 0.7601 0.0
H4880 H 0.21938 0.91685 0.79651 0.0
H4881 H 0.21548 0.91073 0.73527 0.0
H4882 H 0.22923 0.87129 0.8001 0.0
H4883 H 0.25053 0.88903 0.80317 0.0
H4884 H 0.23123 0.8957 0.81326 0.0
H4885 H 0.22716 0.88754 0.71662 0.0
H4886 H 0.24622 0.88048 0.7284 0.0
H4887 H 0.2239 0.86467 0.72557 0.0
H4888 H 0.2876 0.85648 0.76652 0.0
H4889 H 0.23647 0.81449 0.75991 0.0
H4890 H 0.27237 0.89863 0.78072 0.0
H4891 H 0.27102 0.89617 0.7552 0.0
H4892 H 0.28983 0.89012 0.76852 0.0
H4893 H 0.20958 0.84691 0.77323 0.0
H4894 H 0.2085 0.82373 0.75802 0.0
H4895 H 0.20837 0.84556 0.74782 0.0
C4896 C 0.40863 0.97511 0.02596 0.0
C4897 C 0.39803 0.98844 0.02236 0.0
C4898 C 0.42724 0.97944 0.02459 0.0
C4899 C 0.4353 0.99735 0.01912 0.0
C4900 C 0.42487 0.01109 0.01577 0.0
C4901 C 0.40624 1.00649 0.01754 0.0
C4902 C 0.43818 0.96467 0.02855 0.0
C4903 C 0.43333 0.0304 0.01002 0.0
C4904 C 0.48589 0.01411 0.03233 0.0
C4905 C 0.49218 0.00848 0.01488 0.0
C4906 C 0.46733 0.01113 0.03372 0.0
C4907 C 0.45483 1.00176 0.01736 0.0
C4908 C 0.46099 0.99566 0.99973 0.0
C4909 C 0.47975 0.99929 0.99864 0.0
C4910 C 0.46118 0.01806 0.05269 0.0
C4911 C 0.44777 0.98546 0.98211 0.0
H4912 H 0.40228 0.96086 0.02912 0.0
H4913 H 0.39803 0.01679 0.01481 0.0
H4914 H 0.44414 0.95973 0.0155 0.0
H4915 H 0.44967 0.97158 0.04004 0.0
H4916 H 0.42978 0.95156 0.03302 0.0
H4917 H 0.42342 0.03974 0.00862 0.0
H4918 H 0.44507 0.03866 0.02075 0.0
H4919 H 0.43869 0.0276 0.99608 0.0
H4920 H 0.49544 0.02176 0.04475 0.0
H4921 H 0.48469 0.99522 0.9851 0.0
H4922 H 0.45551 1.00516 0.05927 0.0
H4923 H 0.45025 0.02601 0.05063 0.0
H4924 H 0.47257 0.02796 0.06292 0.0
H4925 H 0.43958 0.97132 0.98481 0.0
H4926 H 0.45481 0.98244 0.96931 0.0
H4927 H 0.43808 0.9946 0.97887 0.0
C4928 C 0.87271 0.61481 0.74858 0.0
C4929 C 0.87336 0.60842 0.76634 0.0
C4930 C 0.86108 0.62669 0.74405 0.0
C4931 C 0.85062 0.63325 0.75802 0.0
C4932 C 0.85119 0.62705 0.776 0.0
C4933 C 0.86232 0.61436 0.77982 0.0
C4934 C 0.86042 0.63263 0.7245 0.0
C4935 C 0.8404 0.63417 0.79135 0.0
C4936 C 0.83806 0.68148 0.75584 0.0
C4937 C 0.81937 0.67523 0.74923 0.0
C4938 C 0.84845 0.66788 0.75861 0.0
C4939 C 0.83995 0.64761 0.75427 0.0
C4940 C 0.82131 0.64115 0.74676 0.0
C4941 C 0.81115 0.65511 0.74446 0.0
C4942 C 0.86837 0.6752 0.76667 0.0
C4943 C 0.81204 0.61957 0.7415 0.0
H4944 H 0.88148 0.61077 0.73819 0.0
H4945 H 0.86234 0.60915 0.79339 0.0
H4946 H 0.84613 0.63153 0.71843 0.0
H4947 H 0.86799 0.64815 0.72582 0.0
H4948 H 0.86664 0.62337 0.71424 0.0
H4949 H 0.84213 0.62765 0.80446 0.0
H4950 H 0.84484 0.65041 0.79537 0.0
H4951 H 0.82567 0.63053 0.7858 0.0
H4952 H 0.84451 0.69705 0.75912 0.0
H4953 H 0.79667 0.65027 0.73946 0.0
H4954 H 0.87701 0.66905 0.75672 0.0
H4955 H 0.87083 0.67011 0.78048 0.0
H4956 H 0.87287 0.69149 0.76915 0.0
H4957 H 0.81977 0.61192 0.73155 0.0
H4958 H 0.79777 0.61706 0.7346 0.0
H4959 H 0.81186 0.61274 0.75455 0.0
C4960 C 0.87963 0.64026 0.99916 0.0
C4961 C 0.86653 0.63873 0.01208 0.0
C4962 C 0.89457 0.63142 1.00087 0.0
C4963 C 0.89667 0.62064 0.01585 0.0
C4964 C 0.88384 0.61949 0.02928 0.0
C4965 C 0.86902 0.62849 0.02724 0.0
C4966 C 0.90799 0.63335 0.98639 0.0
C4967 C 0.88553 0.60834 0.04557 0.0
C4968 C 0.92248 0.58017 0.00529 0.0
C4969 C 0.93982 0.58874 0.01548 0.0
C4970 C 0.90826 0.59012 0.00589 0.0
C4971 C 0.91147 0.60943 0.01654 0.0
C4972 C 0.92897 0.61809 0.02707 0.0
C4973 C 0.94285 0.60757 0.02658 0.0
C4974 C 0.8898 0.57999 0.99488 0.0
C4975 C 0.93323 0.6387 0.03839 0.0
H4976 H 0.87827 0.64847 0.98766 0.0
H4977 H 0.85906 0.62701 0.03731 0.0
H4978 H 0.92207 0.63942 0.99386 0.0
H4979 H 0.90762 0.61863 0.97813 0.0
H4980 H 0.90505 0.64299 0.97616 0.0
H4981 H 0.87476 0.6092 0.05511 0.0
H4982 H 0.8846 0.59265 0.03977 0.0
H4983 H 0.89907 0.61423 0.05429 0.0
H4984 H 0.92003 0.56554 0.99685 0.0
H4985 H 0.95626 0.61427 0.03443 0.0
H4986 H 0.88654 0.5882 0.98343 0.0
H4987 H 0.87908 0.57987 1.00457 0.0
H4988 H 0.8892 0.5646 0.98817 0.0
H4989 H 0.93331 0.6493 0.02836 0.0
H4990 H 0.94672 0.64256 0.04738 0.0
H4991 H 0.92256 0.64052 0.04779 0.0
C4992 C 0.24241 0.13272 0.77019 0.0
C4993 C 0.22319 0.12669 0.76944 0.0
C4994 C 0.25169 0.1524 0.76894 0.0
C4995 C 0.24198 0.1674 0.76736 0.0
C4996 C 0.22261 0.16146 0.76679 0.0
C4997 C 0.21363 0.14156 0.76757 0.0
C4998 C 0.27212 0.15713 0.7692 0.0
C4999 C 0.21121 0.1763 0.76546 0.0
C5000 C 0.2692 0.22277 0.78232 0.0
C5001 C 0.27235 0.22916 0.76475 0.0
C5002 C 0.25915 0.20332 0.78334 0.0
C5003 C 0.252 0.18901 0.76642 0.0
C5004 C 0.25501 0.19549 0.74861 0.0
C5005 C 0.26505 0.21507 0.74802 0.0
C5006 C 0.2566 0.19793 0.80279 0.0
C5007 C 0.24817 0.18139 0.72999 0.0
H5008 H 0.25034 0.12185 0.77139 0.0
H5009 H 0.19892 0.13777 0.76711 0.0
H5010 H 0.27594 0.16398 0.75664 0.0
H5011 H 0.27861 0.16794 0.78227 0.0
H5012 H 0.27775 0.14389 0.769 0.0
H5013 H 0.19655 0.17002 0.76623 0.0
H5014 H 0.21628 0.18909 0.77725 0.0
H5015 H 0.21245 0.18187 0.75174 0.0
H5016 H 0.2751 0.23292 0.79549 0.0
H5017 H 0.26773 0.21917 0.73427 0.0
H5018 H 0.26417 0.18658 0.80523 0.0
H5019 H 0.24196 0.19153 0.80345 0.0
H5020 H 0.26152 0.21079 0.81456 0.0
H5021 H 0.25515 0.1691 0.72926 0.0
H5022 H 0.25058 0.18858 0.7173 0.0
H5023 H 0.23334 0.17492 0.72927 0.0
C5024 C 0.35529 0.91722 0.2432 0.0
C5025 C 0.36773 0.93048 0.25731 0.0
C5026 C 0.3482 0.89825 0.24643 0.0
C5027 C 0.35358 0.89322 0.26426 0.0
C5028 C 0.3672 0.90623 0.27783 0.0
C5029 C 0.37425 0.92484 0.27408 0.0
C5030 C 0.33424 0.88405 0.23137 0.0
C5031 C 0.37328 0.90105 0.29682 0.0
C5032 C 0.31618 0.85779 0.28048 0.0
C5033 C 0.32144 0.8404 0.27477 0.0
C5034 C 0.3272 0.87553 0.27798 0.0
C5035 C 0.3435 0.87531 0.26964 0.0
C5036 C 0.3495 0.85786 0.26544 0.0
C5037 C 0.33829 0.84046 0.26814 0.0
C5038 C 0.32072 0.8942 0.28278 0.0
C5039 C 0.36673 0.85711 0.2564 0.0
H5040 H 0.35065 0.92192 0.23019 0.0
H5041 H 0.38415 0.93544 0.28473 0.0
H5042 H 0.33789 0.86962 0.22863 0.0
H5043 H 0.32068 0.88157 0.23661 0.0
H5044 H 0.33308 0.88959 0.21761 0.0
H5045 H 0.38536 0.91213 0.30481 0.0
H5046 H 0.36196 0.90011 0.30582 0.0
H5047 H 0.37667 0.88647 0.29463 0.0
H5048 H 0.30293 0.85733 0.28534 0.0
H5049 H 0.34199 0.82666 0.26361 0.0
H5050 H 0.31681 0.89928 0.26932 0.0
H5051 H 0.33186 0.90602 0.29138 0.0
H5052 H 0.30875 0.89208 0.29088 0.0
H5053 H 0.36386 0.85664 0.24072 0.0
H5054 H 0.37159 0.84379 0.25857 0.0
H5055 H 0.37785 0.87028 0.26224 0.0
C5056 C 0.5762 0.40293 0.55361 0.0
C5057 C 0.56358 0.39358 0.56484 0.0
C5058 C 0.57389 0.4196 0.54573 0.0
C5059 C 0.55835 0.4273 0.54854 0.0
C5060 C 0.54519 0.41767 0.55906 0.0
C5061 C 0.54803 0.40135 0.56719 0.0
C5062 C 0.58835 0.42921 0.53459 0.0
C5063 C 0.52811 0.42487 0.56209 0.0
C5064 C 0.56215 0.48201 0.54654 0.0
C5065 C 0.55237 0.48151 0.52865 0.0
C5066 C 0.56394 0.46461 0.55316 0.0
C5067 C 0.55634 0.44598 0.54144 0.0
C5068 C 0.54672 0.4454 0.52316 0.0
C5069 C 0.5446 0.46306 0.51715 0.0
C5070 C 0.57381 0.46618 0.57294 0.0
C5071 C 0.53887 0.42611 0.50979 0.0
H5072 H 0.58809 0.39745 0.55077 0.0
H5073 H 0.53794 0.39511 0.57573 0.0
H5074 H 0.58203 0.43105 0.5205 0.0
H5075 H 0.59525 0.44409 0.54256 0.0
H5076 H 0.59884 0.42063 0.53214 0.0
H5077 H 0.51875 0.41542 0.56991 0.0
H5078 H 0.53184 0.44008 0.57035 0.0
H5079 H 0.52065 0.42531 0.54807 0.0
H5080 H 0.56801 0.49611 0.55567 0.0
H5081 H 0.53709 0.46245 0.50327 0.0
H5082 H 0.58587 0.45973 0.5719 0.0
H5083 H 0.5647 0.45768 0.58168 0.0
H5084 H 0.57846 0.48163 0.58056 0.0
H5085 H 0.55014 0.41941 0.50535 0.0
H5086 H 0.53067 0.42791 0.49671 0.0
H5087 H 0.53014 0.41564 0.51721 0.0
C5088 C 0.40786 0.78241 0.35657 0.0
C5089 C 0.4201 0.77227 0.3481 0.0
C5090 C 0.39171 0.78436 0.34595 0.0
C5091 C 0.38733 0.77613 0.32611 0.0
C5092 C 0.39963 0.76594 0.31747 0.0
C5093 C 0.41562 0.76409 0.32844 0.0
C5094 C 0.37932 0.79539 0.35604 0.0
C5095 C 0.39598 0.75707 0.29643 0.0
C5096 C 0.33774 0.76633 0.30064 0.0
C5097 C 0.33874 0.7815 0.28984 0.0
C5098 C 0.35322 0.76447 0.31251 0.0
C5099 C 0.37023 0.77847 0.31431 0.0
C5100 C 0.37097 0.79437 0.30411 0.0
C5101 C 0.3555 0.79541 0.29179 0.0
C5102 C 0.35154 0.74696 0.32251 0.0
C5103 C 0.38834 0.8101 0.30578 0.0
H5104 H 0.41076 0.78867 0.3717 0.0
H5105 H 0.42485 0.75648 0.32141 0.0
H5106 H 0.37799 0.80808 0.34905 0.0
H5107 H 0.36546 0.78571 0.35485 0.0
H5108 H 0.38443 0.80088 0.37148 0.0
H5109 H 0.40627 0.74886 0.2919 0.0
H5110 H 0.38223 0.74696 0.29313 0.0
H5111 H 0.3961 0.76886 0.28775 0.0
H5112 H 0.32506 0.7553 0.29907 0.0
H5113 H 0.35664 0.80706 0.28338 0.0
H5114 H 0.35554 0.75193 0.33817 0.0
H5115 H 0.36101 0.73798 0.31729 0.0
H5116 H 0.33746 0.73751 0.32 0.0
H5117 H 0.39337 0.81626 0.3211 0.0
H5118 H 0.38643 0.82229 0.29823 0.0
H5119 H 0.3991 0.80362 0.29963 0.0
C5120 C 0.0554 0.69235 0.03754 0.0
C5121 C 0.06783 0.70227 0.05373 0.0
C5122 C 0.05361 0.67223 0.03061 0.0
C5123 C 0.06449 0.6617 0.04006 0.0
C5124 C 0.07744 0.67173 0.05599 0.0
C5125 C 0.0789 0.69178 0.06264 0.0
C5126 C 0.03972 0.66211 0.01349 0.0
C5127 C 0.08929 0.6611 0.06653 0.0
C5128 C 0.04571 0.60687 0.03754 0.0
C5129 C 0.05645 0.59873 0.02504 0.0
C5130 C 0.04824 0.6273 0.04254 0.0
C5131 C 0.06142 0.63993 0.03433 0.0
C5132 C 0.072 0.63171 0.02128 0.0
C5133 C 0.06963 0.61116 0.01706 0.0
C5134 C 0.03698 0.63537 0.05687 0.0
C5135 C 0.08566 0.64461 0.01163 0.0
H5136 H 0.04694 0.70028 0.03032 0.0
H5137 H 0.0883 0.69904 0.07535 0.0
H5138 H 0.04596 0.65336 1.00284 0.0
H5139 H 0.02839 0.65176 0.01815 0.0
H5140 H 0.03389 0.67271 0.00637 0.0
H5141 H 0.0994 0.67121 0.07797 0.0
H5142 H 0.08059 0.64983 0.07316 0.0
H5143 H 0.09675 0.65333 0.05636 0.0
H5144 H 0.03556 0.5972 0.04375 0.0
H5145 H 0.07775 0.60478 0.00719 0.0
H5146 H 0.0288 0.64442 0.05024 0.0
H5147 H 0.0461 0.64507 0.06931 0.0
H5148 H 0.02756 0.62356 0.0622 0.0
H5149 H 0.07865 0.65354 1.00336 0.0
H5150 H 0.09271 0.63595 1.00173 0.0
H5151 H 0.09606 0.65499 0.02257 0.0
C5152 C 0.10616 0.29576 0.84894 0.0
C5153 C 0.10346 0.28432 0.86344 0.0
C5154 C 0.12232 0.29817 0.84012 0.0
C5155 C 0.13637 0.28914 0.846 0.0
C5156 C 0.13399 0.27815 0.86108 0.0
C5157 C 0.1176 0.27576 0.86947 0.0
C5158 C 0.12414 0.30996 0.82412 0.0
C5159 C 0.14872 0.26869 0.8682 0.0
C5160 C 0.16861 0.27643 0.80999 0.0
C5161 C 0.18432 0.29178 0.81564 0.0
C5162 C 0.15305 0.27547 0.8197 0.0
C5163 C 0.15302 0.29017 0.83564 0.0
C5164 C 0.16886 0.30567 0.84153 0.0
C5165 C 0.18421 0.30633 0.83145 0.0
C5166 C 0.13652 0.25875 0.81276 0.0
C5167 C 0.16961 0.32163 0.85845 0.0
H5168 H 0.09537 0.30239 0.84407 0.0
H5169 H 0.11589 0.26723 0.8809 0.0
H5170 H 0.13684 0.3218 0.82739 0.0
H5171 H 0.12518 0.30033 0.81061 0.0
H5172 H 0.11238 0.3167 0.82169 0.0
H5173 H 0.14526 0.26153 0.8807 0.0
H5174 H 0.15091 0.25747 0.85652 0.0
H5175 H 0.16181 0.27987 0.87241 0.0
H5176 H 0.16828 0.26527 0.79765 0.0
H5177 H 0.19625 0.3182 0.83613 0.0
H5178 H 0.12451 0.26463 0.80891 0.0
H5179 H 0.13325 0.25025 0.8244 0.0
H5180 H 0.13858 0.24858 0.80007 0.0
H5181 H 0.15974 0.3305 0.85503 0.0
H5182 H 0.18341 0.33161 0.86232 0.0
H5183 H 0.1656 0.3151 0.87113 0.0
C5184 C 0.57985 0.72215 0.94158 0.0
C5185 C 0.56658 0.73131 0.93465 0.0
C5186 C 0.57515 0.70629 0.95121 0.0
C5187 C 0.55667 0.6992 0.95367 0.0
C5188 C 0.54314 0.7081 0.94645 0.0
C5189 C 0.54827 0.72419 0.93717 0.0
C5190 C 0.58997 0.6972 0.95885 0.0
C5191 C 0.52328 0.70082 0.94876 0.0
C5192 C 0.5443 0.64778 0.96505 0.0
C5193 C 0.54519 0.65171 0.98509 0.0
C5194 C 0.54752 0.66312 0.95452 0.0
C5195 C 0.55168 0.6828 0.96432 0.0
C5196 C 0.55198 0.68685 0.98446 0.0
C5197 C 0.54878 0.67124 0.99462 0.0
C5198 C 0.5469 0.6583 0.93301 0.0
C5199 C 0.55636 0.70767 0.99537 0.0
H5200 H 0.59396 0.72727 0.93935 0.0
H5201 H 0.53795 0.73136 0.93214 0.0
H5202 H 0.59023 0.69805 0.97459 0.0
H5203 H 0.5871 0.68142 0.95233 0.0
H5204 H 0.6037 0.70458 0.95585 0.0
H5205 H 0.5143 0.7085 0.94118 0.0
H5206 H 0.5187 0.68481 0.94318 0.0
H5207 H 0.52153 0.70308 0.96421 0.0
H5208 H 0.54123 0.63269 0.95761 0.0
H5209 H 0.54972 0.67436 0.01013 0.0
H5210 H 0.56064 0.66381 0.92887 0.0
H5211 H 0.53745 0.66577 0.92587 0.0
H5212 H 0.54245 0.64225 0.92749 0.0
H5213 H 0.57066 0.71501 0.99423 0.0
H5214 H 0.55469 0.70827 0.01081 0.0
H5215 H 0.54742 0.7162 0.98908 0.0
C5216 C 0.10222 0.78705 0.71058 0.0
C5217 C 0.08722 0.77515 0.71669 0.0
C5218 C 0.12003 0.78753 0.71811 0.0
C5219 C 0.12279 0.77563 0.73182 0.0
C5220 C 0.10776 0.76481 0.73915 0.0
C5221 C 0.09007 0.76476 0.73152 0.0
C5222 C 0.13581 0.79929 0.71002 0.0
C5223 C 0.1103 0.75198 0.75383 0.0
C5224 C 0.1629 0.75271 0.72688 0.0
C5225 C 0.17565 0.76429 0.74194 0.0
C5226 C 0.14559 0.75626 0.72357 0.0
C5227 C 0.14096 0.7717 0.73575 0.0
C5228 C 0.1537 0.78336 0.75112 0.0
C5229 C 0.17102 0.7795 0.75404 0.0
C5230 C 0.13232 0.74356 0.70696 0.0
C5231 C 0.14914 0.79999 0.76422 0.0
H5232 H 0.10014 0.79498 0.69899 0.0
H5233 H 0.07847 0.75587 0.73653 0.0
H5234 H 0.14692 0.80714 0.72161 0.0
H5235 H 0.14149 0.78919 0.70007 0.0
H5236 H 0.13157 0.8102 0.70199 0.0
H5237 H 0.0975 0.74675 0.75997 0.0
H5238 H 0.11477 0.73896 0.74696 0.0
H5239 H 0.12109 0.76004 0.76566 0.0
H5240 H 0.16644 0.74075 0.71773 0.0
H5241 H 0.18102 0.78856 0.76557 0.0
H5242 H 0.12841 0.7528 0.69677 0.0
H5243 H 0.11967 0.73626 0.71223 0.0
H5244 H 0.13811 0.73206 0.69901 0.0
H5245 H 0.1466 0.81138 0.75588 0.0
H5246 H 0.16028 0.80696 0.77611 0.0
H5247 H 0.13645 0.79457 0.77043 0.0
C5248 C 0.07065 0.40692 0.45348 0.0
C5249 C 0.08604 0.40861 0.44372 0.0
C5250 C 0.06677 0.42349 0.46404 0.0
C5251 C 0.07844 0.44213 0.4645 0.0
C5252 C 0.09426 0.44388 0.45505 0.0
C5253 C 0.09797 0.42697 0.44483 0.0
C5254 C 0.05009 0.42105 0.47448 0.0
C5255 C 0.10692 0.46363 0.45524 0.0
C5256 C 0.05744 0.48566 0.47605 0.0
C5257 C 0.06563 0.49334 0.49485 0.0
C5258 C 0.06201 0.46931 0.4657 0.0
C5259 C 0.07405 0.45982 0.4749 0.0
C5260 C 0.08165 0.46699 0.49419 0.0
C5261 C 0.07769 0.48395 0.50378 0.0
C5262 C 0.05412 0.46229 0.4449 0.0
C5263 C 0.09375 0.45663 0.50479 0.0
H5264 H 0.06157 0.39259 0.45271 0.0
H5265 H 0.1098 0.42816 0.43713 0.0
H5266 H 0.05395 0.42797 0.4898 0.0
H5267 H 0.04021 0.4286 0.46823 0.0
H5268 H 0.04315 0.40537 0.47366 0.0
H5269 H 0.11863 0.46241 0.44713 0.0
H5270 H 0.09926 0.47331 0.44888 0.0
H5271 H 0.11232 0.47091 0.47021 0.0
H5272 H 0.0477 0.49246 0.46934 0.0
H5273 H 0.08375 0.48959 0.51851 0.0
H5274 H 0.04531 0.44724 0.44302 0.0
H5275 H 0.06529 0.46156 0.43589 0.0
H5276 H 0.04591 0.47206 0.43956 0.0
H5277 H 0.08642 0.44117 0.50447 0.0
H5278 H 0.09806 0.46386 0.52 0.0
H5279 H 0.10614 0.45625 0.49765 0.0
C5280 C 0.4018 0.25035 0.20032 0.0
C5281 C 0.41988 0.2601 0.20707 0.0
C5282 C 0.38774 0.25334 0.21107 0.0
C5283 C 0.39208 0.26602 0.22911 0.0
C5284 C 0.41049 0.27494 0.23646 0.0
C5285 C 0.42423 0.27209 0.22516 0.0
C5286 C 0.3682 0.24396 0.20259 0.0
C5287 C 0.41559 0.28809 0.25587 0.0
C5288 C 0.35584 0.29239 0.24331 0.0
C5289 C 0.34646 0.27997 0.25455 0.0
C5290 C 0.37105 0.28822 0.2353 0.0
C5291 C 0.37725 0.27158 0.23916 0.0
C5292 C 0.36844 0.25962 0.25142 0.0
C5293 C 0.35288 0.26379 0.25875 0.0
C5294 C 0.37982 0.301 0.22185 0.0
C5295 C 0.37502 0.24207 0.25623 0.0
H5296 H 0.39862 0.24116 0.18623 0.0
H5297 H 0.43835 0.27947 0.23029 0.0
H5298 H 0.36084 0.23588 0.21285 0.0
H5299 H 0.36106 0.25556 0.19975 0.0
H5300 H 0.36726 0.2336 0.18894 0.0
H5301 H 0.43054 0.29184 0.26046 0.0
H5302 H 0.41114 0.30195 0.25539 0.0
H5303 H 0.40852 0.28087 0.26685 0.0
H5304 H 0.35069 0.30477 0.23989 0.0
H5305 H 0.3456 0.25427 0.26755 0.0
H5306 H 0.37846 0.2921 0.20731 0.0
H5307 H 0.39461 0.30673 0.22676 0.0
H5308 H 0.37354 0.31364 0.22073 0.0
H5309 H 0.37206 0.23029 0.2434 0.0
H5310 H 0.3683 0.23605 0.26804 0.0
H5311 H 0.39002 0.24609 0.26042 0.0
C5312 C 0.60545 0.50309 0.38051 0.0
C5313 C 0.61137 0.51945 0.37129 0.0
C5314 C 0.59718 0.50438 0.39805 0.0
C5315 C 0.59418 0.52251 0.40753 0.0
C5316 C 0.59994 0.53903 0.39835 0.0
C5317 C 0.60832 0.53739 0.3809 0.0
C5318 C 0.59139 0.48598 0.40638 0.0
C5319 C 0.59708 0.55876 0.40697 0.0
C5320 C 0.55562 0.52112 0.4416 0.0
C5321 C 0.56472 0.52591 0.46066 0.0
C5322 C 0.5648 0.52029 0.4248 0.0
C5323 C 0.58419 0.52391 0.42612 0.0
C5324 C 0.59363 0.52878 0.44533 0.0
C5325 C 0.58401 0.5299 0.46207 0.0
C5326 C 0.55346 0.51539 0.40539 0.0
C5327 C 0.61412 0.53251 0.44823 0.0
H5328 H 0.60699 0.48885 0.37391 0.0
H5329 H 0.61262 0.55055 0.37491 0.0
H5330 H 0.59689 0.48865 0.42179 0.0
H5331 H 0.57629 0.48185 0.40544 0.0
H5332 H 0.59604 0.47342 0.39877 0.0
H5333 H 0.60196 0.5703 0.39841 0.0
H5334 H 0.58235 0.55765 0.40803 0.0
H5335 H 0.60439 0.56338 0.42174 0.0
H5336 H 0.54084 0.51796 0.43965 0.0
H5337 H 0.59167 0.53351 0.47626 0.0
H5338 H 0.55518 0.50128 0.39752 0.0
H5339 H 0.55817 0.52687 0.39673 0.0
H5340 H 0.5387 0.51411 0.40645 0.0
H5341 H 0.6184 0.51937 0.44137 0.0
H5342 H 0.61974 0.53599 0.46366 0.0
H5343 H 0.62016 0.5449 0.44116 0.0
C5344 C 0.32112 0.85924 0.09359 0.0
C5345 C 0.33132 0.8763 0.08846 0.0
C5346 C 0.32618 0.85333 0.11075 0.0
C5347 C 0.34242 0.86411 0.12248 0.0
C5348 C 0.35349 0.88045 0.11681 0.0
C5349 C 0.3475 0.88677 0.10022 0.0
C5350 C 0.31375 0.83598 0.1166 0.0
C5351 C 0.37135 0.89161 0.12854 0.0
C5352 C 0.33826 0.85871 0.17339 0.0
C5353 C 0.34358 0.84101 0.17348 0.0
C5354 C 0.33945 0.86776 0.15729 0.0
C5355 C 0.34677 0.85913 0.14143 0.0
C5356 C 0.355 0.84323 0.14289 0.0
C5357 C 0.35317 0.83415 0.159 0.0
C5358 C 0.33038 0.88464 0.15622 0.0
C5359 C 0.36362 0.83424 0.12652 0.0
H5360 H 0.30898 0.85059 0.08441 0.0
H5361 H 0.35541 0.90025 0.09689 0.0
H5362 H 0.32121 0.82438 0.11831 0.0
H5363 H 0.30925 0.84061 0.13067 0.0
H5364 H 0.30143 0.8295 0.10597 0.0
H5365 H 0.37963 0.90199 0.12064 0.0
H5366 H 0.3687 0.90011 0.14198 0.0
H5367 H 0.37949 0.88126 0.13264 0.0
H5368 H 0.33106 0.86403 0.18484 0.0
H5369 H 0.35737 0.82048 0.15917 0.0
H5370 H 0.31707 0.87917 0.14696 0.0
H5371 H 0.33879 0.89621 0.14974 0.0
H5372 H 0.32785 0.89135 0.1706 0.0
H5373 H 0.35283 0.82383 0.11601 0.0
H5374 H 0.37343 0.82595 0.13164 0.0
H5375 H 0.37082 0.84565 0.11894 0.0
C5376 C 0.99813 0.54199 0.87956 0.0
C5377 C 0.97917 0.53742 0.8792 0.0
C5378 C 0.00939 0.54198 0.89621 0.0
C5379 C 1.00134 0.53777 0.91277 0.0
C5380 C 0.98216 0.53338 0.91248 0.0
C5381 C 0.97123 0.53303 0.89549 0.0
C5382 C 0.02982 0.54617 0.89603 0.0
C5383 C 0.97323 0.52917 0.93006 0.0
C5384 C 0.02814 0.52032 0.95096 0.0
C5385 C 0.03566 0.53799 0.96348 0.0
C5386 C 0.0171 0.52007 0.9341 0.0
C5387 C 0.01302 0.53781 0.9304 0.0
C5388 C 0.02021 0.55562 0.94343 0.0
C5389 C 0.03186 0.55555 0.95977 0.0
C5390 C 0.01004 0.50096 0.92016 0.0
C5391 C 0.01547 0.5746 0.94019 0.0
H5392 H 1.00406 0.54512 0.86671 0.0
H5393 H 0.95649 0.52952 0.89495 0.0
H5394 H 0.03659 0.55937 0.90683 0.0
H5395 H 0.03509 0.53368 0.90004 0.0
H5396 H 0.03381 0.54863 0.88177 0.0
H5397 H 0.95812 0.52629 0.92739 0.0
H5398 H 0.97693 0.51621 0.9349 0.0
H5399 H 0.97828 0.54182 0.94199 0.0
H5400 H 0.03121 0.50681 0.95422 0.0
H5401 H 0.03759 0.56905 0.96991 0.0
H5402 H 0.01481 0.50254 0.90603 0.0
H5403 H 0.99491 0.49725 0.91787 0.0
H5404 H 0.01466 0.48854 0.92523 0.0
H5405 H 0.0207 0.57886 0.92697 0.0
H5406 H 0.02131 0.58683 0.95239 0.0
H5407 H 1.00043 0.57261 0.93808 0.0
C5408 C 0.29605 0.26323 0.61027 0.0
C5409 C 0.28543 0.24475 0.601 0.0
C5410 C 0.29628 0.26972 0.6301 0.0
C5411 C 0.28574 0.25742 0.64105 0.0
C5412 C 0.27488 0.23889 0.63175 0.0
C5413 C 0.27489 0.23281 0.61198 0.0
C5414 C 0.30804 0.2896 0.63938 0.0
C5415 C 0.26357 0.22518 0.64281 0.0
C5416 C 0.30049 0.26277 0.69468 0.0
C5417 C 0.28769 0.27204 0.70292 0.0
C5418 C 0.30013 0.25821 0.67469 0.0
C5419 C 0.28679 0.26326 0.6624 0.0
C5420 C 0.27399 0.27294 0.67059 0.0
C5421 C 0.27447 0.27704 0.69073 0.0
C5422 C 0.31393 0.24772 0.66671 0.0
C5423 C 0.25987 0.27905 0.65805 0.0
H5424 H 0.30415 0.27271 0.60201 0.0
H5425 H 0.26694 0.21834 0.60522 0.0
H5426 H 0.30004 0.29811 0.64814 0.0
H5427 H 0.3195 0.28769 0.6492 0.0
H5428 H 0.31381 0.29828 0.62865 0.0
H5429 H 0.2554 0.21154 0.63339 0.0
H5430 H 0.27262 0.22107 0.65385 0.0
H5431 H 0.25414 0.23268 0.65041 0.0
H5432 H 0.31078 0.25881 0.70391 0.0
H5433 H 0.26471 0.28447 0.69693 0.0
H5434 H 0.32203 0.2566 0.65748 0.0
H5435 H 0.30679 0.23348 0.65759 0.0
H5436 H 0.32345 0.24485 0.67817 0.0
H5437 H 0.26671 0.28892 0.64879 0.0
H5438 H 0.25111 0.28678 0.66656 0.0
H5439 H 0.25104 0.26596 0.64843 0.0
C5440 C 0.61671 0.53107 0.15699 0.0
C5441 C 0.60826 0.51722 0.16786 0.0
C5442 C 0.60846 0.53331 0.13877 0.0
C5443 C 0.5909 0.52162 0.13042 0.0
C5444 C 0.5822 0.50764 0.14124 0.0
C5445 C 0.59085 0.50555 0.1594 0.0
C5446 C 0.6188 0.54828 0.12828 0.0
C5447 C 0.56351 0.49478 0.13366 0.0
C5448 C 0.56401 0.54115 0.09045 0.0
C5449 C 0.56609 0.52965 0.07307 0.0
C5450 C 0.57137 0.53833 0.10885 0.0
C5451 C 0.58187 0.52404 0.11056 0.0
C5452 C 0.58402 0.51244 0.09302 0.0
C5453 C 0.57602 0.51513 0.07486 0.0
C5454 C 0.5677 0.55064 0.12664 0.0
C5455 C 0.59514 0.49723 0.09335 0.0
H5456 H 0.63016 0.54014 0.16253 0.0
H5457 H 0.58366 0.49485 0.16713 0.0
H5458 H 0.62065 0.54098 0.11388 0.0
H5459 H 0.61085 0.55938 0.12609 0.0
H5460 H 0.63242 0.55599 0.13616 0.0
H5461 H 0.55755 0.48619 0.14437 0.0
H5462 H 0.55411 0.50384 0.12939 0.0
H5463 H 0.56439 0.48435 0.12066 0.0
H5464 H 0.55633 0.55232 0.08973 0.0
H5465 H 0.57796 0.50603 0.06188 0.0
H5466 H 0.58075 0.55977 0.13469 0.0
H5467 H 0.56118 0.54095 0.13623 0.0
H5468 H 0.55869 0.56046 0.12328 0.0
H5469 H 0.60919 0.50432 0.10043 0.0
H5470 H 0.59594 0.48956 0.07873 0.0
H5471 H 0.58909 0.48613 0.10187 0.0
C5472 C 0.31856 0.8544 0.90123 0.0
C5473 C 0.30216 0.85711 0.90779 0.0
C5474 C 0.3185 0.84148 0.88431 0.0
C5475 C 0.30167 0.83175 0.87324 0.0
C5476 C 0.28506 0.83442 0.87963 0.0
C5477 C 0.2855 0.84687 0.89701 0.0
C5478 C 0.33645 0.83866 0.87804 0.0
C5479 C 0.26687 0.82454 0.86787 0.0
C5480 C 0.30055 0.81864 0.81983 0.0
C5481 C 0.29732 0.79813 0.81726 0.0
C5482 C 0.30241 0.82981 0.83811 0.0
C5483 C 0.30142 0.82018 0.85414 0.0
C5484 C 0.29924 0.79957 0.85174 0.0
C5485 C 0.29704 0.78868 0.83317 0.0
C5486 C 0.30451 0.85177 0.84016 0.0
C5487 C 0.29875 0.78905 0.86869 0.0
H5488 H 0.33154 0.86255 0.90919 0.0
H5489 H 0.27277 0.84855 0.90214 0.0
H5490 H 0.33582 0.82283 0.87335 0.0
H5491 H 0.33935 0.8461 0.86562 0.0
H5492 H 0.348 0.84479 0.88968 0.0
H5493 H 0.2552 0.82789 0.87508 0.0
H5494 H 0.2663 0.82942 0.85375 0.0
H5495 H 0.26522 0.80838 0.86504 0.0
H5496 H 0.30085 0.82594 0.80747 0.0
H5497 H 0.2947 0.77281 0.83108 0.0
H5498 H 0.31702 0.85964 0.84998 0.0
H5499 H 0.29275 0.85592 0.84657 0.0
H5500 H 0.30529 0.85694 0.82619 0.0
H5501 H 0.31111 0.79569 0.87919 0.0
H5502 H 0.29799 0.77311 0.8644 0.0
H5503 H 0.28675 0.79074 0.87611 0.0
C5504 C 0.98771 0.49704 0.69856 0.0
C5505 C 0.97188 0.50342 0.70155 0.0
C5506 C 0.99127 0.49127 0.67991 0.0
C5507 C 0.97854 0.49199 0.66433 0.0
C5508 C 0.96174 0.4967 0.66751 0.0
C5509 C 0.95865 0.50258 0.68626 0.0
C5510 C 0.00941 0.4865 0.6769 0.0
C5511 C 0.94792 0.49751 0.65113 0.0
C5512 C 1.00028 0.51352 0.62495 0.0
C5513 C 0.9992 0.49673 0.61139 0.0
C5514 C 0.99338 0.51205 0.64219 0.0
C5515 C 0.9848 0.49328 0.64562 0.0
C5516 C 0.98286 0.47628 0.6316 0.0
C5517 C 0.99049 0.47817 0.61457 0.0
C5518 C 0.99606 0.53053 0.65702 0.0
C5519 C 0.97337 0.45621 0.63489 0.0
H5520 H 0.9976 0.49743 0.71072 0.0
H5521 H 0.9462 0.50717 0.689 0.0
H5522 H 0.00773 0.4738 0.66514 0.0
H5523 H 0.01858 0.49929 0.67273 0.0
H5524 H 0.01616 0.48317 0.69013 0.0
H5525 H 0.93436 0.49775 0.65587 0.0
H5526 H 0.95274 0.51103 0.64511 0.0
H5527 H 0.94637 0.48475 0.63943 0.0
H5528 H 0.00754 0.52778 0.62252 0.0
H5529 H 0.99003 0.46527 0.60399 0.0
H5530 H 1.00421 0.52914 0.67029 0.0
H5531 H 0.98268 0.53272 0.66087 0.0
H5532 H 1.0032 0.54387 0.65189 0.0
H5533 H 0.98193 0.45148 0.64591 0.0
H5534 H 0.97081 0.44504 0.62157 0.0
H5535 H 0.96017 0.45667 0.64038 0.0
C5536 C 0.30337 0.23078 0.39248 0.0
C5537 C 0.29193 0.23665 0.40568 0.0
C5538 C 0.30492 0.23823 0.37516 0.0
C5539 C 0.29488 0.25204 0.37065 0.0
C5540 C 0.28341 0.25814 0.38392 0.0
C5541 C 0.28203 0.25038 0.4011 0.0
C5542 C 0.3173 0.23119 0.36157 0.0
C5543 C 0.27268 0.27308 0.38007 0.0
C5544 C 0.31287 0.2842 0.33429 0.0
C5545 C 0.30085 0.27563 0.31742 0.0
C5546 C 0.3108 0.27704 0.35166 0.0
C5547 C 0.2967 0.26035 0.35229 0.0
C5548 C 0.28457 0.25153 0.33526 0.0
C5549 C 0.28653 0.25951 0.31823 0.0
C5550 C 0.32369 0.28752 0.36943 0.0
C5551 C 0.26958 0.23349 0.33497 0.0
H5552 H 0.31095 0.22003 0.39549 0.0
H5553 H 0.27336 0.25539 0.41114 0.0
H5554 H 0.30941 0.22471 0.34727 0.0
H5555 H 0.32817 0.24378 0.3596 0.0
H5556 H 0.32384 0.22004 0.36681 0.0
H5557 H 0.26493 0.27692 0.39207 0.0
H5558 H 0.28202 0.28669 0.37768 0.0
H5559 H 0.26292 0.26727 0.36682 0.0
H5560 H 0.32384 0.29685 0.33406 0.0
H5561 H 0.27686 0.25303 0.30556 0.0
H5562 H 0.33167 0.27748 0.37455 0.0
H5563 H 0.31583 0.29192 0.38112 0.0
H5564 H 0.33336 0.30085 0.36685 0.0
H5565 H 0.27552 0.22162 0.33948 0.0
H5566 H 0.26163 0.22796 0.32054 0.0
H5567 H 0.26011 0.23682 0.34536 0.0
C5568 C 0.3762 0.59807 0.52405 0.0
C5569 C 0.36245 0.59779 0.50939 0.0
C5570 C 0.38987 0.58806 0.52057 0.0
C5571 C 0.39009 0.57807 0.50184 0.0
C5572 C 0.37648 0.57796 0.48686 0.0
C5573 C 0.36262 0.58762 0.49088 0.0
C5574 C 0.40407 0.58818 0.53697 0.0
C5575 C 0.37655 0.56767 0.46665 0.0
C5576 C 0.43591 0.56848 0.49278 0.0
C5577 C 0.4335 0.54895 0.49551 0.0
C5578 C 0.42155 0.57794 0.49393 0.0
C5579 C 0.40457 0.56761 0.49813 0.0
C5580 C 0.4019 0.54771 0.50032 0.0
C5581 C 0.41644 0.53856 0.4989 0.0
C5582 C 0.42467 0.59909 0.49117 0.0
C5583 C 0.38399 0.53639 0.50507 0.0
H5584 H 0.37639 0.60624 0.53827 0.0
H5585 H 0.35185 0.58703 0.47955 0.0
H5586 H 0.40449 0.57289 0.53839 0.0
H5587 H 0.41777 0.59562 0.53402 0.0
H5588 H 0.40134 0.59581 0.55087 0.0
H5589 H 0.36525 0.56953 0.45653 0.0
H5590 H 0.38971 0.57348 0.46144 0.0
H5591 H 0.37528 0.55174 0.46642 0.0
H5592 H 0.44907 0.57636 0.48986 0.0
H5593 H 0.41468 0.52349 0.50113 0.0
H5594 H 0.42378 0.60857 0.50481 0.0
H5595 H 0.4139 0.60077 0.48032 0.0
H5596 H 0.43822 0.60449 0.48651 0.0
H5597 H 0.38153 0.54297 0.51951 0.0
H5598 H 0.38378 0.52065 0.50497 0.0
H5599 H 0.37252 0.53734 0.49468 0.0
C5600 C 0.90879 0.96888 0.519 0.0
C5601 C 0.90616 0.95208 0.52776 0.0
C5602 C 0.92645 0.98037 0.51807 0.0
C5603 C 0.94221 0.97512 0.52603 0.0
C5604 C 0.93969 0.9581 0.53473 0.0
C5605 C 0.92187 0.94691 0.53552 0.0
C5606 C 0.92823 0.99833 0.50871 0.0
C5607 C 0.9559 0.95173 0.54333 0.0
C5608 C 0.9892 0.99657 0.51065 0.0
C5609 C 0.99709 0.01194 0.52604 0.0
C5610 C 0.97152 0.98448 0.51046 0.0
C5611 C 0.96122 0.98779 0.52593 0.0
C5612 C 0.96919 1.00331 0.54145 0.0
C5613 C 0.9869 0.01501 0.54137 0.0
C5614 C 0.96382 0.96812 0.49364 0.0
C5615 C 0.95892 0.00773 0.5582 0.0
H5616 H 0.89697 0.97337 0.51312 0.0
H5617 H 0.9203 0.93388 0.54205 0.0
H5618 H 0.93551 0.0116 0.51919 0.0
H5619 H 0.9365 0.99703 0.49665 0.0
H5620 H 0.91477 1.0005 0.50314 0.0
H5621 H 0.95184 0.93783 0.54897 0.0
H5622 H 0.96523 0.94967 0.53239 0.0
H5623 H 0.96372 0.96336 0.55522 0.0
H5624 H 0.99685 0.994 0.49872 0.0
H5625 H 0.99273 0.02681 0.55333 0.0
H5626 H 0.95102 0.97046 0.48651 0.0
H5627 H 0.96031 0.95386 0.49871 0.0
H5628 H 0.97352 0.96713 0.48289 0.0
H5629 H 0.94594 0.01125 0.55306 0.0
H5630 H 0.96691 0.02025 0.56917 0.0
H5631 H 0.95534 0.9946 0.56511 0.0
C5632 C 0.86139 0.15727 0.27654 0.0
C5633 C 0.87347 0.15355 0.26289 0.0
C5634 C 0.85235 0.17336 0.27742 0.0
C5635 C 0.8549 0.18706 0.26442 0.0
C5636 C 0.86714 0.18356 0.25073 0.0
C5637 C 0.876 0.16734 0.25013 0.0
C5638 C 0.83981 0.17563 0.29249 0.0
C5639 C 0.87097 0.19712 0.23641 0.0
C5640 C 0.8173 0.21741 0.25516 0.0
C5641 C 0.8248 0.23674 0.26547 0.0
C5642 C 0.8268 0.20174 0.25449 0.0
C5643 C 0.84457 0.20442 0.2648 0.0
C5644 C 0.85218 0.2239 0.2754 0.0
C5645 C 0.84257 0.23949 0.27538 0.0
C5646 C 0.81768 0.18208 0.24238 0.0
C5647 C 0.87061 0.22834 0.2872 0.0
H5648 H 0.85861 0.14732 0.28663 0.0
H5649 H 0.88522 0.1657 0.23953 0.0
H5650 H 0.84388 0.19073 0.30099 0.0
H5651 H 0.82565 0.17351 0.28548 0.0
H5652 H 0.83986 0.16492 0.3024 0.0
H5653 H 0.88037 0.19266 0.22638 0.0
H5654 H 0.858 0.1974 0.22796 0.0
H5655 H 0.87713 0.21232 0.24405 0.0
H5656 H 0.80384 0.21446 0.24716 0.0
H5657 H 0.84897 0.25394 0.28356 0.0
H5658 H 0.81524 0.17072 0.25162 0.0
H5659 H 0.82676 0.1777 0.23195 0.0
H5660 H 0.80444 0.18223 0.23435 0.0
H5661 H 0.87006 0.21894 0.2984 0.0
H5662 H 0.87512 0.24399 0.2943 0.0
H5663 H 0.88097 0.2248 0.27804 0.0
C5664 C 0.68232 0.0686 0.99518 0.0
C5665 C 0.69366 0.07169 0.01259 0.0
C5666 C 0.66344 0.0622 0.9945 0.0
C5667 C 0.65605 0.05924 0.01166 0.0
C5668 C 0.66752 0.06009 0.02869 0.0
C5669 C 0.68635 0.06616 0.0289 0.0
C5670 C 0.65139 0.06062 0.97594 0.0
C5671 C 0.6599 0.05655 0.04711 0.0
C5672 C 0.61245 0.07567 0.01722 0.0
C5673 C 0.59982 0.05767 0.01286 0.0
C5674 C 0.631 0.07634 0.01688 0.0
C5675 C 0.63665 0.0585 0.01255 0.0
C5676 C 0.62381 0.04025 0.00874 0.0
C5677 C 0.60542 0.04012 0.00869 0.0
C5678 C 0.6445 0.09607 0.02079 0.0
C5679 C 0.62925 0.02093 1.00418 0.0
H5680 H 0.68796 0.0728 0.98252 0.0
H5681 H 0.69527 0.06806 0.0422 0.0
H5682 H 0.64008 0.04724 0.97359 0.0
H5683 H 0.6452 0.07351 0.9767 0.0
H5684 H 0.65916 0.06018 0.9634 0.0
H5685 H 0.67057 0.05533 0.05835 0.0
H5686 H 0.65389 0.06893 0.05262 0.0
H5687 H 0.64884 0.04293 0.04451 0.0
H5688 H 0.60779 0.0891 0.02047 0.0
H5689 H 0.59536 0.02624 0.00545 0.0
H5690 H 0.65133 0.09837 0.00786 0.0
H5691 H 0.65525 0.09651 0.03263 0.0
H5692 H 0.63788 0.10841 0.02468 0.0
H5693 H 0.63113 0.01818 0.98878 0.0
H5694 H 0.61857 0.00846 0.00685 0.0
H5695 H 0.6423 0.02112 0.01272 0.0
C5696 C 0.20817 0.45039 0.25715 0.0
C5697 C 0.2169 0.47019 0.2589 0.0
C5698 C 0.21821 0.43661 0.26031 0.0
C5699 C 0.23728 0.44307 0.26566 0.0
C5700 C 0.24611 0.46319 0.26775 0.0
C5701 C 0.23574 0.47659 0.26412 0.0
C5702 C 0.20849 0.41518 0.25771 0.0
C5703 C 0.26642 0.47047 0.27375 0.0
C5704 C 0.26113 0.40959 0.28896 0.0
C5705 C 0.26845 0.40098 0.27337 0.0
C5706 C 0.2509 0.42345 0.28667 0.0
C5707 C 0.24808 0.42865 0.26841 0.0
C5708 C 0.25541 0.41996 0.25263 0.0
C5709 C 0.26557 0.40615 0.25533 0.0
C5710 C 0.24312 0.43252 0.30371 0.0
C5711 C 0.25257 0.42527 0.23296 0.0
H5712 H 0.19352 0.44571 0.25305 0.0
H5713 H 0.24225 0.49208 0.26558 0.0
H5714 H 0.21425 0.4064 0.24661 0.0
H5715 H 0.21061 0.40956 0.27128 0.0
H5716 H 0.19358 0.4127 0.25337 0.0
H5717 H 0.27099 0.48671 0.27534 0.0
H5718 H 0.27023 0.46608 0.2876 0.0
H5719 H 0.27393 0.46364 0.26296 0.0
H5720 H 0.26329 0.40534 0.30286 0.0
H5721 H 0.27146 0.39957 0.24338 0.0
H5722 H 0.22804 0.42947 0.30064 0.0
H5723 H 0.24833 0.44872 0.30644 0.0
H5724 H 0.24665 0.42685 0.31695 0.0
H5725 H 0.23776 0.42225 0.22794 0.0
H5726 H 0.25911 0.41695 0.22221 0.0
H5727 H 0.25829 0.44121 0.23365 0.0
C5728 C 0.22512 0.45388 0.02845 0.0
C5729 C 0.22503 0.43558 0.01747 0.0
C5730 C 0.21017 0.46264 0.02655 0.0
C5731 C 0.19454 0.45306 0.01325 0.0
C5732 C 0.19442 0.43476 1.00183 0.0
C5733 C 0.20958 0.42628 1.00407 0.0
C5734 C 0.21107 0.48219 0.03895 0.0
C5735 C 0.17822 0.42408 0.98728 0.0
C5736 C 0.15017 0.46793 0.02368 0.0
C5737 C 0.14931 0.48211 0.01197 0.0
C5738 C 0.16441 0.45797 0.02376 0.0
C5739 C 0.17827 0.46208 0.01177 0.0
C5740 C 0.17711 0.47575 0.99932 0.0
C5741 C 0.16278 0.48563 0.99963 0.0
C5742 C 0.16484 0.44335 0.03708 0.0
C5743 C 0.19136 0.48046 0.98608 0.0
H5744 H 0.23701 0.46153 0.03853 0.0
H5745 H 0.20914 0.41211 0.99554 0.0
H5746 H 0.20938 0.4932 0.02979 0.0
H5747 H 0.19973 0.48078 0.04792 0.0
H5748 H 0.22419 0.48784 0.04853 0.0
H5749 H 0.17985 0.40962 0.98008 0.0
H5750 H 0.16558 0.42172 0.99428 0.0
H5751 H 0.17634 0.43317 0.97618 0.0
H5752 H 0.13971 0.46464 0.03295 0.0
H5753 H 0.16252 0.4966 0.99059 0.0
H5754 H 0.17726 0.44853 0.04774 0.0
H5755 H 0.16555 0.42897 0.02886 0.0
H5756 H 0.15267 0.44111 0.04489 0.0
H5757 H 0.20454 0.48849 0.99467 0.0
H5758 H 0.18748 0.48965 0.97578 0.0
H5759 H 0.19359 0.46675 0.97788 0.0
C5760 C 0.84794 0.9403 0.26309 0.0
C5761 C 0.86633 0.94524 0.25932 0.0
C5762 C 0.83844 0.92059 0.26389 0.0
C5763 C 0.84713 0.90458 0.26104 0.0
C5764 C 0.86573 0.90945 0.25751 0.0
C5765 C 0.87488 0.92926 0.25664 0.0
C5766 C 0.81882 0.91686 0.26774 0.0
C5767 C 0.87607 0.89354 0.25444 0.0
C5768 C 0.82628 0.85432 0.27748 0.0
C5769 C 0.8159 0.84251 0.2606 0.0
C5770 C 0.8363 0.8742 0.2779 0.0
C5771 C 0.83665 0.88292 0.26098 0.0
C5772 C 0.82657 0.87076 0.24388 0.0
C5773 C 0.81632 0.85125 0.24398 0.0
C5774 C 0.84624 0.8861 0.29672 0.0
C5775 C 0.82646 0.87843 0.22523 0.0
H5776 H 0.84066 0.95186 0.26507 0.0
H5777 H 0.88902 0.9322 0.25405 0.0
H5778 H 0.81004 0.90615 0.25572 0.0
H5779 H 0.81739 0.91028 0.2809 0.0
H5780 H 0.81373 0.93051 0.2696 0.0
H5781 H 0.89059 0.89945 0.25274 0.0
H5782 H 0.87558 0.88556 0.26674 0.0
H5783 H 0.86953 0.88268 0.24142 0.0
H5784 H 0.82614 0.84827 0.29059 0.0
H5785 H 0.80851 0.84265 0.23075 0.0
H5786 H 0.84048 0.89908 0.30063 0.0
H5787 H 0.86086 0.8917 0.29532 0.0
H5788 H 0.84523 0.87745 0.30854 0.0
H5789 H 0.81988 0.89103 0.2263 0.0
H5790 H 0.81906 0.86703 0.21291 0.0
H5791 H 0.84067 0.88388 0.22228 0.0
C5792 C 0.74161 0.13145 0.76176 0.0
C5793 C 0.7254 0.13494 0.76788 0.0
C5794 C 0.75564 0.14709 0.75971 0.0
C5795 C 0.75292 0.16627 0.76367 0.0
C5796 C 0.73687 0.16985 0.77095 0.0
C5797 C 0.72318 0.15393 0.77302 0.0
C5798 C 0.77276 0.14302 0.75228 0.0
C5799 C 0.73367 0.19032 0.77543 0.0
C5800 C 0.78517 0.21455 0.77223 0.0
C5801 C 0.77945 0.22144 0.75586 0.0
C5802 C 0.77861 0.19509 0.77394 0.0
C5803 C 0.76598 0.18274 0.75898 0.0
C5804 C 0.76237 0.18892 0.74129 0.0
C5805 C 0.7693 0.20851 0.73991 0.0
C5806 C 0.78308 0.18879 0.79281 0.0
C5807 C 0.74915 0.1758 0.72492 0.0
H5808 H 0.74292 0.11646 0.75776 0.0
H5809 H 0.71038 0.1562 0.77759 0.0
H5810 H 0.77258 0.14505 0.7371 0.0
H5811 H 0.78507 0.15348 0.76052 0.0
H5812 H 0.77395 0.12779 0.75302 0.0
H5813 H 0.72076 0.19043 0.78171 0.0
H5814 H 0.74511 0.20007 0.78566 0.0
H5815 H 0.73306 0.19668 0.7621 0.0
H5816 H 0.79377 0.22466 0.78424 0.0
H5817 H 0.7654 0.21402 0.72711 0.0
H5818 H 0.78316 0.17298 0.79079 0.0
H5819 H 0.77254 0.1912 0.80223 0.0
H5820 H 0.79654 0.19755 0.80029 0.0
H5821 H 0.75102 0.16057 0.72309 0.0
H5822 H 0.75074 0.18132 0.71119 0.0
H5823 H 0.73498 0.17532 0.72813 0.0
loop_
_geom_bond_atom_site_label_1
_geom_bond_atom_site_label_2
_geom_bond_distance
_geom_bond_site_symmetry_2
_ccdc_geom_bond_type
Li0 N17 1.990 . S
Li0 O60 1.956 . S
Li0 O61 1.970 . S
Li0 O62 1.961 . S
Li1 N25 1.990 . S
Li1 O60 1.970 . S
Li1 O61 1.956 . S
Li1 O63 1.961 . S
Li2 N47 1.990 . S
Li2 O60 1.961 . S
Li2 O62 1.956 . S
Li2 O63 1.970 . S
Li3 N53 1.990 . S
Li3 O61 1.961 . S
Li3 O62 1.970 . S
Li3 O63 1.956 . S
C4 C6 1.348 . S
C4 C7 1.356 . S
C4 O60 1.325 . S
N5 C8 1.314 . S
N5 C9 1.279 . S
C6 C4 1.348 . S
C6 C8 1.353 . S
C6 H64 0.929 . S
C7 C4 1.356 . S
C7 C9 1.358 . S
C7 H65 0.930 . S
C8 N5 1.314 . S
C8 C6 1.353 . S
C8 H66 0.930 . S
C9 N5 1.279 . S
C9 C7 1.358 . S
C9 H67 0.930 . S
C10 C13 1.348 . S
C10 C14 1.356 . S
C10 O61 1.325 . S
C11 N12 1.279 . S
C11 C14 1.358 . S
C11 H68 0.930 . S
N12 C11 1.279 . S
N12 C15 1.314 . S
C13 C10 1.348 . S
C13 C15 1.353 . S
C13 H69 0.929 . S
C14 C10 1.356 . S
C14 C11 1.358 . S
C14 H70 0.930 . S
C15 N12 1.314 . S
C15 C13 1.353 . S
C15 H71 0.930 . S
C16 N17 1.314 . S
C16 C21 1.353 . S
C16 H22 0.930 . S
N17 Li0 1.990 . S
N17 C16 1.314 . S
N17 C19 1.279 . S
C18 C19 1.358 . S
C18 C20 1.356 . S
C18 H72 0.930 . S
C19 N17 1.279 . S
C19 C18 1.358 . S
C19 H23 0.930 . S
C20 C18 1.356 . S
C20 C21 1.348 . S
C21 C16 1.353 . S
C21 C20 1.348 . S
C21 H73 0.949 . S
H22 C16 0.930 . S
H23 C19 0.930 . S
C24 N25 1.314 . S
C24 C26 1.353 . S
C24 H30 0.930 . S
N25 Li1 1.990 . S
N25 C24 1.314 . S
N25 C28 1.279 . S
C26 C24 1.353 . S
C26 C29 1.348 . S
C26 H74 0.929 . S
C27 C28 1.358 . S
C27 C29 1.356 . S
C27 H75 0.930 . S
C28 N25 1.279 . S
C28 C27 1.358 . S
C28 H31 0.930 . S
C29 C26 1.348 . S
C29 C27 1.356 . S
H30 C24 0.930 . S
H31 C28 0.930 . S
C32 C34 1.348 . S
C32 C35 1.356 . S
C32 O62 1.325 . S
N33 C36 1.314 . S
N33 C37 1.279 . S
C34 C32 1.348 . S
C34 C36 1.353 . S
C34 H76 0.929 . S
C35 C32 1.356 . S
C35 C37 1.358 . S
C35 H77 0.930 . S
C36 N33 1.314 . S
C36 C34 1.353 . S
C36 H78 0.930 . S
C37 N33 1.279 . S
C37 C35 1.358 . S
C37 H79 0.930 . S
C38 C39 1.348 . S
C38 C40 1.356 . S
C38 O63 1.325 . S
C39 C38 1.348 . S
C39 C41 1.353 . S
C39 H80 0.929 . S
C40 C38 1.356 . S
C40 C42 1.358 . S
C40 H81 0.930 . S
C41 C39 1.353 . S
C41 N43 1.314 . S
C41 H82 0.930 . S
C42 C40 1.358 . S
C42 N43 1.279 . S
C42 H83 0.930 . S
N43 C41 1.314 . S
N43 C42 1.279 . S
C44 C46 1.353 . S
C44 N47 1.314 . S
C44 H50 0.930 . S
C45 N47 1.279 . S
C45 C48 1.358 . S
C45 H51 0.930 . S
C46 C44 1.353 . S
C46 C49 1.348 . S
C46 H84 0.929 . S
N47 Li2 1.990 . S
N47 C44 1.314 . S
N47 C45 1.279 . S
C48 C45 1.358 . S
C48 C49 1.356 . S
C48 H85 0.930 . S
C49 C46 1.348 . S
C49 C48 1.356 . S
H50 C44 0.930 . S
H51 C45 0.930 . S
C52 N53 1.314 . S
C52 C54 1.353 . S
C52 H58 0.930 . S
N53 Li3 1.990 . S
N53 C52 1.314 . S
N53 C56 1.279 . S
C54 C52 1.353 . S
C54 C57 1.348 . S
C54 H86 0.929 . S
C55 C56 1.358 . S
C55 C57 1.356 . S
C55 H87 0.930 . S
C56 N53 1.279 . S
C56 C55 1.358 . S
C56 H59 0.930 . S
C57 C54 1.348 . S
C57 C55 1.356 . S
H58 C52 0.930 . S
H59 C56 0.930 . S
O60 Li0 1.956 . S
O60 Li1 1.970 . S
O60 Li2 1.961 . S
O60 C4 1.325 . S
O61 Li0 1.970 . S
O61 Li1 1.956 . S
O61 Li3 1.961 . S
O61 C10 1.325 . S
O62 Li0 1.961 . S
O62 Li2 1.956 . S
O62 Li3 1.970 . S
O62 C32 1.325 . S
O63 Li1 1.961 . S
O63 Li2 1.970 . S
O63 Li3 1.956 . S
O63 C38 1.325 . S
H64 C6 0.929 . S
H65 C7 0.930 . S
H66 C8 0.930 . S
H67 C9 0.930 . S
H68 C11 0.930 . S
H69 C13 0.929 . S
H70 C14 0.930 . S
H71 C15 0.930 . S
H72 C18 0.930 . S
H73 C21 0.949 . S
H74 C26 0.929 . S
H75 C27 0.930 . S
H76 C34 0.929 . S
H77 C35 0.930 . S
H78 C36 0.930 . S
H79 C37 0.930 . S
H80 C39 0.929 . S
H81 C40 0.930 . S
H82 C41 0.930 . S
H83 C42 0.930 . S
H84 C46 0.929 . S
H85 C48 0.930 . S
H86 C54 0.929 . S
H87 C55 0.930 . S
Li88 N105 1.990 . S
Li88 O148 1.956 . S
Li88 O149 1.970 . S
Li88 O150 1.961 1_455 S
Li89 N113 1.990 . S
Li89 O148 1.970 . S
Li89 O149 1.956 . S
Li89 O151 1.932 1_455 S
Li90 N135 1.990 . S
Li90 O148 1.961 1_655 S
Li90 O150 1.956 . S
Li90 O151 1.971 . S
Li91 N141 1.990 . S
Li91 O149 1.961 1_655 S
Li91 O150 1.970 . S
Li91 O151 1.997 . S
C92 C94 1.348 . S
C92 C95 1.356 . S
C92 O148 1.325 . S
N93 C96 1.314 . S
N93 C97 1.279 . S
C94 C92 1.348 . S
C94 C96 1.353 . S
C94 H152 0.929 . S
C95 C92 1.356 . S
C95 C97 1.358 . S
C95 H153 0.930 . S
C96 N93 1.314 . S
C96 C94 1.353 . S
C96 H154 0.930 . S
C97 N93 1.279 . S
C97 C95 1.358 . S
C97 H155 0.930 . S
C98 C101 1.348 . S
C98 C102 1.356 . S
C98 O149 1.325 . S
C99 N100 1.279 . S
C99 C102 1.358 . S
C99 H156 0.930 . S
N100 C99 1.279 . S
N100 C103 1.314 . S
C101 C98 1.348 . S
C101 C103 1.353 . S
C101 H157 0.929 . S
C102 C98 1.356 . S
C102 C99 1.358 . S
C102 H158 0.934 . S
C103 N100 1.314 . S
C103 C101 1.353 . S
C103 H159 0.930 . S
C104 N105 1.314 1_655 S
C104 C109 1.353 . S
C104 H110 0.930 . S
N105 Li88 1.990 . S
N105 C104 1.314 1_455 S
N105 C107 1.279 . S
C106 C107 1.358 . S
C106 C108 1.356 . S
C106 H160 0.930 . S
C107 N105 1.279 . S
C107 C106 1.358 . S
C107 H111 0.930 . S
C108 C106 1.356 . S
C108 C109 1.348 1_455 S
C109 C104 1.353 . S
C109 C108 1.348 1_655 S
C109 H161 0.929 . S
H110 C104 0.930 . S
H111 C107 0.930 . S
C112 N113 1.314 . S
C112 C114 1.353 . S
C112 H118 0.930 . S
N113 Li89 1.990 . S
N113 C112 1.314 . S
N113 C116 1.279 . S
C114 C112 1.353 . S
C114 C117 1.348 . S
C114 H162 0.929 . S
C115 C116 1.358 . S
C115 C117 1.356 . S
C115 H163 0.930 . S
C116 N113 1.279 . S
C116 C115 1.358 . S
C116 H119 0.930 . S
C117 C114 1.348 . S
C117 C115 1.356 . S
H118 C112 0.930 . S
H119 C116 0.930 . S
C120 C122 1.348 . S
C120 C123 1.356 . S
C120 O150 1.325 . S
N121 C124 1.314 . S
N121 C125 1.279 . S
C122 C120 1.348 . S
C122 C124 1.353 . S
C122 H164 0.929 . S
C123 C120 1.356 . S
C123 C125 1.358 . S
C123 H165 0.930 . S
C124 N121 1.314 . S
C124 C122 1.353 . S
C124 H166 0.930 . S
C125 N121 1.279 . S
C125 C123 1.358 . S
C125 H167 0.930 . S
C126 C127 1.348 . S
C126 C128 1.356 1_655 S
C126 O151 1.324 . S
C127 C126 1.348 . S
C127 C129 1.353 . S
C127 H168 0.929 . S
C128 C126 1.356 1_455 S
C128 C130 1.357 . S
C128 H169 0.930 . S
C129 C127 1.353 . S
C129 N131 1.314 . S
C129 H170 0.930 . S
C130 C128 1.357 . S
C130 N131 1.273 1_455 S
C130 H171 0.944 . S
N131 C129 1.314 . S
N131 C130 1.273 1_655 S
C132 C134 1.353 . S
C132 N135 1.314 1_455 S
C132 H138 0.930 . S
C133 N135 1.279 . S
C133 C136 1.358 . S
C133 H139 0.930 . S
C134 C132 1.353 . S
C134 C137 1.348 1_455 S
C134 H172 0.929 . S
N135 Li90 1.990 . S
N135 C132 1.314 1_655 S
N135 C133 1.279 . S
C136 C133 1.358 . S
C136 C137 1.356 . S
C136 H173 0.930 . S
C137 C134 1.348 1_655 S
C137 C136 1.356 . S
H138 C132 0.930 . S
H139 C133 0.930 . S
C140 N141 1.314 . S
C140 C142 1.353 . S
C140 H146 0.930 . S
N141 Li91 1.990 . S
N141 C140 1.314 . S
N141 C144 1.279 . S
C142 C140 1.353 . S
C142 C145 1.348 . S
C142 H174 0.929 . S
C143 C144 1.358 . S
C143 C145 1.356 . S
C143 H175 0.930 . S
C144 N141 1.279 . S
C144 C143 1.358 . S
C144 H147 0.930 . S
C145 C142 1.348 . S
C145 C143 1.356 . S
H146 C140 0.930 . S
H147 C144 0.930 . S
O148 Li88 1.956 . S
O148 Li89 1.970 . S
O148 Li90 1.961 1_455 S
O148 C92 1.325 . S
O149 Li88 1.970 . S
O149 Li89 1.956 . S
O149 Li91 1.961 1_455 S
O149 C98 1.325 . S
O150 Li88 1.961 1_655 S
O150 Li90 1.956 . S
O150 Li91 1.970 . S
O150 C120 1.325 . S
O151 Li89 1.932 1_655 S
O151 Li90 1.971 . S
O151 Li91 1.997 . S
O151 C126 1.324 . S
H152 C94 0.929 . S
H153 C95 0.930 . S
H154 C96 0.930 . S
H155 C97 0.930 . S
H156 C99 0.930 . S
H157 C101 0.929 . S
H158 C102 0.934 . S
H159 C103 0.930 . S
H160 C106 0.930 . S
H161 C109 0.929 . S
H162 C114 0.929 . S
H163 C115 0.930 . S
H164 C122 0.929 . S
H165 C123 0.930 . S
H166 C124 0.930 . S
H167 C125 0.930 . S
H168 C127 0.929 . S
H169 C128 0.930 . S
H170 C129 0.930 . S
H171 C130 0.944 . S
H172 C134 0.929 . S
H173 C136 0.930 . S
H174 C142 0.929 . S
H175 C143 0.930 . S
Li176 N193 1.990 . S
Li176 O236 1.956 . S
Li176 O237 1.970 . S
Li176 O238 1.961 . S
Li177 N201 1.990 . S
Li177 O236 1.970 . S
Li177 O237 1.956 . S
Li177 O239 1.961 . S
Li178 N223 1.990 . S
Li178 O236 1.961 . S
Li178 O238 1.956 . S
Li178 O239 1.970 . S
Li179 N229 1.990 . S
Li179 O237 1.961 . S
Li179 O238 1.970 . S
Li179 O239 1.956 . S
C180 C182 1.348 . S
C180 C183 1.356 . S
C180 O236 1.325 . S
N181 C184 1.314 . S
N181 C185 1.279 . S
C182 C180 1.348 . S
C182 C184 1.353 . S
C182 H240 0.929 . S
C183 C180 1.356 . S
C183 C185 1.358 . S
C183 H241 0.930 . S
C184 N181 1.314 . S
C184 C182 1.353 . S
C184 H242 0.930 . S
C185 N181 1.279 . S
C185 C183 1.358 . S
C185 H243 0.930 . S
C186 C189 1.348 . S
C186 C190 1.356 . S
C186 O237 1.325 . S
C187 N188 1.279 . S
C187 C190 1.358 . S
C187 H244 0.930 . S
N188 C187 1.279 . S
N188 C191 1.314 . S
C189 C186 1.348 . S
C189 C191 1.353 . S
C189 H245 0.929 . S
C190 C186 1.356 . S
C190 C187 1.358 . S
C190 H246 0.930 . S
C191 N188 1.314 . S
C191 C189 1.353 . S
C191 H247 0.930 . S
C192 N193 1.314 . S
C192 C197 1.353 . S
C192 H198 0.930 . S
N193 Li176 1.990 . S
N193 C192 1.314 . S
N193 C195 1.279 . S
C194 C195 1.358 . S
C194 C196 1.356 . S
C194 H248 0.930 . S
C195 N193 1.279 . S
C195 C194 1.358 . S
C195 H199 0.930 . S
C196 C194 1.356 . S
C196 C197 1.348 . S
C197 C192 1.353 . S
C197 C196 1.348 . S
C197 H249 0.929 . S
H198 C192 0.930 . S
H199 C195 0.930 . S
C200 N201 1.314 . S
C200 C202 1.353 . S
C200 H206 0.930 . S
N201 Li177 1.990 . S
N201 C200 1.314 . S
N201 C204 1.279 . S
C202 C200 1.353 . S
C202 C205 1.348 . S
C202 H250 0.929 . S
C203 C204 1.358 . S
C203 C205 1.356 . S
C203 H251 0.930 . S
C204 N201 1.279 . S
C204 C203 1.358 . S
C204 H207 0.930 . S
C205 C202 1.348 . S
C205 C203 1.356 . S
H206 C200 0.930 . S
H207 C204 0.930 . S
C208 C210 1.348 . S
C208 C211 1.356 . S
C208 O238 1.325 . S
N209 C212 1.314 . S
N209 C213 1.279 . S
C210 C208 1.348 . S
C210 C212 1.353 . S
C210 H252 0.929 . S
C211 C208 1.356 . S
C211 C213 1.358 . S
C211 H253 0.930 . S
C212 N209 1.314 . S
C212 C210 1.353 . S
C212 H254 0.930 . S
C213 N209 1.279 . S
C213 C211 1.358 . S
C213 H255 0.930 . S
C214 C215 1.348 . S
C214 C216 1.356 . S
C214 O239 1.325 . S
C215 C214 1.348 . S
C215 C217 1.353 . S
C215 H256 0.929 . S
C216 C214 1.356 . S
C216 C218 1.358 . S
C216 H257 0.930 . S
C217 C215 1.353 . S
C217 N219 1.314 . S
C217 H258 0.930 . S
C218 C216 1.358 . S
C218 N219 1.279 . S
C218 H259 0.930 . S
N219 C217 1.314 . S
N219 C218 1.279 . S
C220 C222 1.353 . S
C220 N223 1.314 . S
C220 H226 0.930 . S
C221 N223 1.279 . S
C221 C224 1.358 . S
C221 H227 0.930 . S
C222 C220 1.353 . S
C222 C225 1.348 . S
C222 H260 0.929 . S
N223 Li178 1.990 . S
N223 C220 1.314 . S
N223 C221 1.279 . S
C224 C221 1.358 . S
C224 C225 1.356 . S
C224 H261 0.930 . S
C225 C222 1.348 . S
C225 C224 1.356 . S
H226 C220 0.930 . S
H227 C221 0.930 . S
C228 N229 1.314 . S
C228 C230 1.353 . S
C228 H234 0.930 . S
N229 Li179 1.990 . S
N229 C228 1.314 . S
N229 C232 1.279 . S
C230 C228 1.353 . S
C230 C233 1.348 . S
C230 H262 0.929 . S
C231 C232 1.358 . S
C231 C233 1.356 . S
C231 H263 0.930 . S
C232 N229 1.279 . S
C232 C231 1.358 . S
C232 H235 0.930 . S
C233 C230 1.348 . S
C233 C231 1.356 . S
H234 C228 0.930 . S
H235 C232 0.930 . S
O236 Li176 1.956 . S
O236 Li177 1.970 . S
O236 Li178 1.961 . S
O236 C180 1.325 . S
O237 Li176 1.970 . S
O237 Li177 1.956 . S
O237 Li179 1.961 . S
O237 C186 1.325 . S
O238 Li176 1.961 . S
O238 Li178 1.956 . S
O238 Li179 1.970 . S
O238 C208 1.325 . S
O239 Li177 1.961 . S
O239 Li178 1.970 . S
O239 Li179 1.956 . S
O239 C214 1.325 . S
H240 C182 0.929 . S
H241 C183 0.930 . S
H242 C184 0.930 . S
H243 C185 0.930 . S
H244 C187 0.930 . S
H245 C189 0.929 . S
H246 C190 0.930 . S
H247 C191 0.930 . S
H248 C194 0.930 . S
H249 C197 0.929 . S
H250 C202 0.929 . S
H251 C203 0.930 . S
H252 C210 0.929 . S
H253 C211 0.930 . S
H254 C212 0.930 . S
H255 C213 0.930 . S
H256 C215 0.929 . S
H257 C216 0.930 . S
H258 C217 0.930 . S
H259 C218 0.930 . S
H260 C222 0.929 . S
H261 C224 0.930 . S
H262 C230 0.929 . S
H263 C231 0.930 . S
Li264 N281 1.990 . S
Li264 O324 1.956 . S
Li264 O325 1.970 . S
Li264 O326 1.961 . S
Li265 N289 1.990 . S
Li265 O324 1.970 . S
Li265 O325 1.956 . S
Li265 O327 1.961 . S
Li266 N311 1.990 . S
Li266 O324 1.961 . S
Li266 O326 1.956 . S
Li266 O327 1.970 . S
Li267 N317 1.990 . S
Li267 O325 1.961 . S
Li267 O326 1.970 . S
Li267 O327 1.956 . S
C268 C270 1.348 . S
C268 C271 1.356 . S
C268 O324 1.325 . S
N269 C272 1.314 . S
N269 C273 1.279 . S
C270 C268 1.348 . S
C270 C272 1.353 . S
C270 H328 0.929 . S
C271 C268 1.356 . S
C271 C273 1.358 . S
C271 H329 0.930 . S
C272 N269 1.314 . S
C272 C270 1.353 . S
C272 H330 0.930 . S
C273 N269 1.279 . S
C273 C271 1.358 . S
C273 H331 0.930 . S
C274 C277 1.348 . S
C274 C278 1.356 . S
C274 O325 1.325 . S
C275 N276 1.279 . S
C275 C278 1.358 . S
C275 H332 0.930 . S
N276 C275 1.279 . S
N276 C279 1.314 . S
C277 C274 1.348 . S
C277 C279 1.353 . S
C277 H333 0.929 . S
C278 C274 1.356 . S
C278 C275 1.358 . S
C278 H334 0.930 . S
C279 N276 1.314 . S
C279 C277 1.353 . S
C279 H335 0.930 . S
C280 N281 1.314 . S
C280 C285 1.353 . S
C280 H286 0.930 . S
N281 Li264 1.990 . S
N281 C280 1.314 . S
N281 C283 1.279 . S
C282 C283 1.358 . S
C282 C284 1.356 . S
C282 H336 0.930 . S
C283 N281 1.279 . S
C283 C282 1.358 . S
C283 H287 0.930 . S
C284 C282 1.356 . S
C284 C285 1.348 . S
C285 C280 1.353 . S
C285 C284 1.348 . S
C285 H337 0.929 . S
H286 C280 0.930 . S
H287 C283 0.930 . S
C288 N289 1.314 . S
C288 C290 1.353 . S
C288 H294 0.930 . S
N289 Li265 1.990 . S
N289 C288 1.314 . S
N289 C292 1.279 . S
C290 C288 1.353 . S
C290 C293 1.348 . S
C290 H338 0.929 . S
C291 C292 1.358 . S
C291 C293 1.356 . S
C291 H339 0.930 . S
C292 N289 1.279 . S
C292 C291 1.358 . S
C292 H295 0.930 . S
C293 C290 1.348 . S
C293 C291 1.356 . S
H294 C288 0.930 . S
H295 C292 0.930 . S
C296 C298 1.348 . S
C296 C299 1.356 . S
C296 O326 1.325 . S
N297 C300 1.314 . S
N297 C301 1.279 . S
C298 C296 1.348 . S
C298 C300 1.353 . S
C298 H340 0.929 . S
C299 C296 1.356 . S
C299 C301 1.358 . S
C299 H341 0.930 . S
C300 N297 1.314 . S
C300 C298 1.353 . S
C300 H342 0.930 . S
C301 N297 1.279 . S
C301 C299 1.358 . S
C301 H343 0.930 . S
C302 C303 1.348 . S
C302 C304 1.356 . S
C302 O327 1.325 . S
C303 C302 1.348 . S
C303 C305 1.353 . S
C303 H344 0.929 . S
C304 C302 1.356 . S
C304 C306 1.358 . S
C304 H345 0.930 . S
C305 C303 1.353 . S
C305 N307 1.314 . S
C305 H346 0.930 . S
C306 C304 1.358 . S
C306 N307 1.279 . S
C306 H347 0.930 . S
N307 C305 1.314 . S
N307 C306 1.279 . S
C308 C310 1.353 . S
C308 N311 1.314 . S
C308 H314 0.930 . S
C309 N311 1.279 . S
C309 C312 1.358 . S
C309 H315 0.930 . S
C310 C308 1.353 . S
C310 C313 1.348 . S
C310 H348 0.929 . S
N311 Li266 1.990 . S
N311 C308 1.314 . S
N311 C309 1.279 . S
C312 C309 1.358 . S
C312 C313 1.356 . S
C312 H349 0.930 . S
C313 C310 1.348 . S
C313 C312 1.356 . S
H314 C308 0.930 . S
H315 C309 0.930 . S
C316 N317 1.314 . S
C316 C318 1.353 . S
C316 H322 0.930 . S
N317 Li267 1.990 . S
N317 C316 1.314 . S
N317 C320 1.279 . S
C318 C316 1.353 . S
C318 C321 1.348 . S
C318 H350 0.929 . S
C319 C320 1.358 . S
C319 C321 1.356 . S
C319 H351 0.930 . S
C320 N317 1.279 . S
C320 C319 1.358 . S
C320 H323 0.930 . S
C321 C318 1.348 . S
C321 C319 1.356 . S
H322 C316 0.930 . S
H323 C320 0.930 . S
O324 Li264 1.956 . S
O324 Li265 1.970 . S
O324 Li266 1.961 . S
O324 C268 1.325 . S
O325 Li264 1.970 . S
O325 Li265 1.956 . S
O325 Li267 1.961 . S
O325 C274 1.325 . S
O326 Li264 1.961 . S
O326 Li266 1.956 . S
O326 Li267 1.970 . S
O326 C296 1.325 . S
O327 Li265 1.961 . S
O327 Li266 1.970 . S
O327 Li267 1.956 . S
O327 C302 1.325 . S
H328 C270 0.929 . S
H329 C271 0.930 . S
H330 C272 0.930 . S
H331 C273 0.930 . S
H332 C275 0.930 . S
H333 C277 0.929 . S
H334 C278 0.930 . S
H335 C279 0.930 . S
H336 C282 0.930 . S
H337 C285 0.929 . S
H338 C290 0.929 . S
H339 C291 0.930 . S
H340 C298 0.929 . S
H341 C299 0.930 . S
H342 C300 0.930 . S
H343 C301 0.930 . S
H344 C303 0.929 . S
H345 C304 0.930 . S
H346 C305 0.930 . S
H347 C306 0.930 . S
H348 C310 0.929 . S
H349 C312 0.930 . S
H350 C318 0.929 . S
H351 C319 0.930 . S
Li352 N369 1.990 . S
Li352 O412 1.956 . S
Li352 O413 1.970 . S
Li352 O414 1.961 . S
Li353 N377 1.990 . S
Li353 O412 1.970 . S
Li353 O413 1.956 . S
Li353 O415 1.961 . S
Li354 N399 1.990 . S
Li354 O412 1.961 . S
Li354 O414 1.956 . S
Li354 O415 1.970 . S
Li355 N405 1.990 . S
Li355 O413 1.961 . S
Li355 O414 1.970 . S
Li355 O415 1.956 . S
C356 C358 1.348 . S
C356 C359 1.356 . S
C356 O412 1.325 . S
N357 C360 1.314 . S
N357 C361 1.279 . S
C358 C356 1.348 . S
C358 C360 1.353 . S
C358 H416 0.929 . S
C359 C356 1.356 . S
C359 C361 1.358 . S
C359 H417 0.930 . S
C360 N357 1.314 . S
C360 C358 1.353 . S
C360 H418 0.930 . S
C361 N357 1.279 . S
C361 C359 1.358 . S
C361 H419 0.930 . S
C362 C365 1.348 . S
C362 C366 1.356 . S
C362 O413 1.325 . S
C363 N364 1.279 . S
C363 C366 1.358 . S
C363 H420 0.930 . S
N364 C363 1.279 . S
N364 C367 1.314 . S
C365 C362 1.348 . S
C365 C367 1.353 . S
C365 H421 0.929 . S
C366 C362 1.356 . S
C366 C363 1.358 . S
C366 H422 0.930 . S
C367 N364 1.314 . S
C367 C365 1.353 . S
C367 H423 0.930 . S
C368 N369 1.314 . S
C368 C373 1.353 . S
C368 H374 0.930 . S
N369 Li352 1.990 . S
N369 C368 1.314 . S
N369 C371 1.279 . S
C370 C371 1.358 . S
C370 C372 1.356 . S
C370 H424 0.930 . S
C371 N369 1.279 . S
C371 C370 1.358 . S
C371 H375 0.930 . S
C372 C370 1.356 . S
C372 C373 1.348 . S
C373 C368 1.353 . S
C373 C372 1.348 . S
C373 H425 0.929 . S
H374 C368 0.930 . S
H375 C371 0.930 . S
C376 N377 1.314 . S
C376 C378 1.353 . S
C376 H382 0.930 . S
N377 Li353 1.990 . S
N377 C376 1.314 . S
N377 C380 1.279 . S
C378 C376 1.353 . S
C378 C381 1.348 . S
C378 H426 0.929 . S
C379 C380 1.358 . S
C379 C381 1.356 . S
C379 H427 0.930 . S
C380 N377 1.279 . S
C380 C379 1.358 . S
C380 H383 0.930 . S
C381 C378 1.348 . S
C381 C379 1.356 . S
H382 C376 0.930 . S
H383 C380 0.930 . S
C384 C386 1.348 . S
C384 C387 1.356 . S
C384 O414 1.325 . S
N385 C388 1.314 . S
N385 C389 1.279 1_655 S
C386 C384 1.348 . S
C386 C388 1.353 1_455 S
C386 H428 0.929 . S
C387 C384 1.356 . S
C387 C389 1.358 . S
C387 H429 0.930 . S
C388 N385 1.314 . S
C388 C386 1.353 1_655 S
C388 H430 0.930 . S
C389 N385 1.279 1_455 S
C389 C387 1.358 . S
C389 H431 0.930 . S
C390 C391 1.348 . S
C390 C392 1.356 . S
C390 O415 1.325 . S
C391 C390 1.348 . S
C391 C393 1.353 . S
C391 H432 0.929 . S
C392 C390 1.356 . S
C392 C394 1.358 . S
C392 H433 0.930 . S
C393 C391 1.353 . S
C393 N395 1.314 . S
C393 H434 0.930 . S
C394 C392 1.358 . S
C394 N395 1.279 . S
C394 H435 0.930 . S
N395 C393 1.314 . S
N395 C394 1.279 . S
C396 C398 1.353 . S
C396 N399 1.314 . S
C396 H402 0.930 . S
C397 N399 1.279 . S
C397 C400 1.358 . S
C397 H403 0.930 . S
C398 C396 1.353 . S
C398 C401 1.348 . S
C398 H436 0.929 . S
N399 Li354 1.990 . S
N399 C396 1.314 . S
N399 C397 1.279 . S
C400 C397 1.358 . S
C400 C401 1.356 . S
C400 H437 0.930 . S
C401 C398 1.348 . S
C401 C400 1.356 . S
H402 C396 0.930 . S
H403 C397 0.930 . S
C404 N405 1.314 . S
C404 C406 1.353 . S
C404 H410 0.930 . S
N405 Li355 1.990 . S
N405 C404 1.314 . S
N405 C408 1.279 . S
C406 C404 1.353 . S
C406 C409 1.348 1_455 S
C406 H438 0.911 1_455 S
C407 C408 1.358 . S
C407 C409 1.356 1_455 S
C407 H439 0.935 . S
C408 N405 1.279 . S
C408 C407 1.358 . S
C408 H411 0.930 . S
C409 C406 1.348 1_655 S
C409 C407 1.356 1_655 S
H410 C404 0.930 . S
H411 C408 0.930 . S
O412 Li352 1.956 . S
O412 Li353 1.970 . S
O412 Li354 1.961 . S
O412 C356 1.325 . S
O413 Li352 1.970 . S
O413 Li353 1.956 . S
O413 Li355 1.961 . S
O413 C362 1.325 . S
O414 Li352 1.961 . S
O414 Li354 1.956 . S
O414 Li355 1.970 . S
O414 C384 1.325 . S
O415 Li353 1.961 . S
O415 Li354 1.970 . S
O415 Li355 1.956 . S
O415 C390 1.325 . S
H416 C358 0.929 . S
H417 C359 0.930 . S
H418 C360 0.930 . S
H419 C361 0.930 . S
H420 C363 0.930 . S
H421 C365 0.929 . S
H422 C366 0.930 . S
H423 C367 0.930 . S
H424 C370 0.930 . S
H425 C373 0.929 . S
H426 C378 0.929 . S
H427 C379 0.930 . S
H428 C386 0.929 . S
H429 C387 0.930 . S
H430 C388 0.930 . S
H431 C389 0.930 . S
H432 C391 0.929 . S
H433 C392 0.930 . S
H434 C393 0.930 . S
H435 C394 0.930 . S
H436 C398 0.929 . S
H437 C400 0.930 . S
H438 C406 0.911 1_655 S
H439 C407 0.935 . S
Li440 N457 1.990 . S
Li440 O500 1.956 . S
Li440 O501 1.970 . S
Li440 O502 1.961 . S
Li441 N465 1.990 . S
Li441 O500 1.970 . S
Li441 O501 1.956 . S
Li441 O503 1.961 . S
Li442 N487 1.990 . S
Li442 O500 1.961 . S
Li442 O502 1.956 . S
Li442 O503 1.970 . S
Li443 N493 1.990 . S
Li443 O501 1.961 . S
Li443 O502 1.970 . S
Li443 O503 1.956 . S
C444 C446 1.348 . S
C444 C447 1.356 . S
C444 O500 1.325 . S
N445 C448 1.314 . S
N445 C449 1.279 . S
C446 C444 1.348 . S
C446 C448 1.353 . S
C446 H504 0.929 . S
C447 C444 1.356 . S
C447 C449 1.358 . S
C447 H505 0.930 . S
C448 N445 1.314 . S
C448 C446 1.353 . S
C448 H506 0.930 . S
C449 N445 1.279 . S
C449 C447 1.358 . S
C449 H507 0.930 . S
C450 C453 1.348 . S
C450 C454 1.356 . S
C450 O501 1.325 . S
C451 N452 1.279 . S
C451 C454 1.358 . S
C451 H508 0.930 . S
N452 C451 1.279 . S
N452 C455 1.314 . S
C453 C450 1.348 . S
C453 C455 1.353 . S
C453 H509 0.929 . S
C454 C450 1.356 . S
C454 C451 1.358 . S
C454 H510 0.930 . S
C455 N452 1.314 . S
C455 C453 1.353 . S
C455 H511 0.930 . S
C456 N457 1.314 . S
C456 C461 1.353 . S
C456 H462 0.930 . S
N457 Li440 1.990 . S
N457 C456 1.314 . S
N457 C459 1.279 . S
C458 C459 1.358 . S
C458 C460 1.356 . S
C458 H512 0.930 . S
C459 N457 1.279 . S
C459 C458 1.358 . S
C459 H463 0.930 . S
C460 C458 1.356 . S
C460 C461 1.348 . S
C461 C456 1.353 . S
C461 C460 1.348 . S
C461 H513 0.929 . S
H462 C456 0.930 . S
H463 C459 0.930 . S
C464 N465 1.314 . S
C464 C466 1.353 . S
C464 H470 0.930 . S
N465 Li441 1.990 . S
N465 C464 1.314 . S
N465 C468 1.279 . S
C466 C464 1.353 . S
C466 C469 1.348 . S
C466 H514 0.929 . S
C467 C468 1.358 . S
C467 C469 1.356 . S
C467 H515 0.930 . S
C468 N465 1.279 . S
C468 C467 1.358 . S
C468 H471 0.930 . S
C469 C466 1.348 . S
C469 C467 1.356 . S
H470 C464 0.930 . S
H471 C468 0.930 . S
C472 C474 1.348 . S
C472 C475 1.356 . S
C472 O502 1.325 . S
N473 C476 1.314 . S
N473 C477 1.279 . S
C474 C472 1.348 . S
C474 C476 1.353 . S
C474 H516 0.929 . S
C475 C472 1.356 . S
C475 C477 1.358 . S
C475 H517 0.930 . S
C476 N473 1.314 . S
C476 C474 1.353 . S
C476 H518 0.930 . S
C477 N473 1.279 . S
C477 C475 1.358 . S
C477 H519 0.930 . S
C478 C479 1.348 . S
C478 C480 1.356 . S
C478 O503 1.325 . S
C479 C478 1.348 . S
C479 C481 1.353 . S
C479 H520 0.929 . S
C480 C478 1.356 . S
C480 C482 1.358 . S
C480 H521 0.930 . S
C481 C479 1.353 . S
C481 N483 1.314 . S
C481 H522 0.930 . S
C482 C480 1.358 . S
C482 N483 1.279 . S
C482 H523 0.930 . S
N483 C481 1.314 . S
N483 C482 1.279 . S
C484 C486 1.353 . S
C484 N487 1.314 . S
C484 H490 0.930 . S
C485 N487 1.279 . S
C485 C488 1.358 . S
C485 H491 0.930 . S
C486 C484 1.353 . S
C486 C489 1.348 . S
C486 H524 0.929 . S
N487 Li442 1.990 . S
N487 C484 1.314 . S
N487 C485 1.279 . S
C488 C485 1.358 . S
C488 C489 1.356 . S
C488 H525 0.930 . S
C489 C486 1.348 . S
C489 C488 1.356 . S
H490 C484 0.930 . S
H491 C485 0.930 . S
C492 N493 1.314 . S
C492 C494 1.353 . S
C492 H498 0.930 . S
N493 Li443 1.990 . S
N493 C492 1.314 . S
N493 C496 1.279 . S
C494 C492 1.353 . S
C494 C497 1.348 . S
C494 H526 0.929 . S
C495 C496 1.358 . S
C495 C497 1.356 . S
C495 H527 0.930 . S
C496 N493 1.279 . S
C496 C495 1.358 . S
C496 H499 0.930 . S
C497 C494 1.348 . S
C497 C495 1.356 . S
H498 C492 0.930 . S
H499 C496 0.930 . S
O500 Li440 1.956 . S
O500 Li441 1.970 . S
O500 Li442 1.961 . S
O500 C444 1.325 . S
O501 Li440 1.970 . S
O501 Li441 1.956 . S
O501 Li443 1.961 . S
O501 C450 1.325 . S
O502 Li440 1.961 . S
O502 Li442 1.956 . S
O502 Li443 1.970 . S
O502 C472 1.325 . S
O503 Li441 1.961 . S
O503 Li442 1.970 . S
O503 Li443 1.956 . S
O503 C478 1.325 . S
H504 C446 0.929 . S
H505 C447 0.930 . S
H506 C448 0.930 . S
H507 C449 0.930 . S
H508 C451 0.930 . S
H509 C453 0.929 . S
H510 C454 0.930 . S
H511 C455 0.930 . S
H512 C458 0.930 . S
H513 C461 0.929 . S
H514 C466 0.929 . S
H515 C467 0.930 . S
H516 C474 0.929 . S
H517 C475 0.930 . S
H518 C476 0.930 . S
H519 C477 0.930 . S
H520 C479 0.929 . S
H521 C480 0.930 . S
H522 C481 0.930 . S
H523 C482 0.930 . S
H524 C486 0.929 . S
H525 C488 0.930 . S
H526 C494 0.929 . S
H527 C495 0.930 . S
Li528 N545 1.990 . S
Li528 O588 1.956 . S
Li528 O589 1.970 . S
Li528 O590 1.961 . S
Li529 N553 1.990 . S
Li529 O588 1.970 . S
Li529 O589 1.956 . S
Li529 O591 1.961 . S
Li530 N575 1.990 . S
Li530 O588 1.961 . S
Li530 O590 1.956 . S
Li530 O591 1.970 . S
Li531 N581 1.990 . S
Li531 O589 1.961 . S
Li531 O590 1.970 . S
Li531 O591 1.956 . S
C532 C534 1.348 . S
C532 C535 1.356 . S
C532 O588 1.325 . S
N533 C536 1.314 . S
N533 C537 1.279 . S
C534 C532 1.348 . S
C534 C536 1.353 . S
C534 H592 0.929 . S
C535 C532 1.356 . S
C535 C537 1.358 . S
C535 H593 0.930 . S
C536 N533 1.314 . S
C536 C534 1.353 . S
C536 H594 0.930 . S
C537 N533 1.279 . S
C537 C535 1.358 . S
C537 H595 0.930 . S
C538 C541 1.348 . S
C538 C542 1.356 . S
C538 O589 1.325 . S
C539 N540 1.279 . S
C539 C542 1.358 . S
C539 H596 0.930 . S
N540 C539 1.279 . S
N540 C543 1.314 . S
C541 C538 1.348 . S
C541 C543 1.353 . S
C541 H597 0.929 . S
C542 C538 1.356 . S
C542 C539 1.358 . S
C542 H598 0.930 . S
C543 N540 1.314 . S
C543 C541 1.353 . S
C543 H599 0.930 . S
C544 N545 1.314 . S
C544 C549 1.353 . S
C544 H550 0.930 . S
N545 Li528 1.990 . S
N545 C544 1.314 . S
N545 C547 1.279 . S
C546 C547 1.358 . S
C546 C548 1.356 . S
C546 H600 0.930 . S
C547 N545 1.279 . S
C547 C546 1.358 . S
C547 H551 0.930 . S
C548 C546 1.356 . S
C548 C549 1.348 . S
C549 C544 1.353 . S
C549 C548 1.348 . S
C549 H601 0.929 . S
H550 C544 0.930 . S
H551 C547 0.930 . S
C552 N553 1.314 . S
C552 C554 1.353 . S
C552 H558 0.930 . S
N553 Li529 1.990 . S
N553 C552 1.314 . S
N553 C556 1.279 . S
C554 C552 1.353 . S
C554 C557 1.348 . S
C554 H602 0.929 . S
C555 C556 1.358 . S
C555 C557 1.356 . S
C555 H603 0.930 . S
C556 N553 1.279 . S
C556 C555 1.358 . S
C556 H559 0.930 . S
C557 C554 1.348 . S
C557 C555 1.356 . S
H558 C552 0.930 . S
H559 C556 0.930 . S
C560 C562 1.348 . S
C560 C563 1.356 . S
C560 O590 1.325 . S
N561 C564 1.314 . S
N561 C565 1.279 . S
C562 C560 1.348 . S
C562 C564 1.353 . S
C562 H604 0.929 . S
C563 C560 1.356 . S
C563 C565 1.358 . S
C563 H605 0.930 . S
C564 N561 1.314 . S
C564 C562 1.353 . S
C564 H606 0.930 . S
C565 N561 1.279 . S
C565 C563 1.358 . S
C565 H607 0.930 . S
C566 C567 1.348 . S
C566 C568 1.356 . S
C566 O591 1.325 . S
C567 C566 1.348 . S
C567 C569 1.353 . S
C567 H608 0.929 . S
C568 C566 1.356 . S
C568 C570 1.358 . S
C568 H609 0.930 . S
C569 C567 1.353 . S
C569 N571 1.314 . S
C569 H610 0.930 . S
C570 C568 1.358 . S
C570 N571 1.279 . S
C570 H611 0.930 . S
N571 C569 1.314 . S
N571 C570 1.279 . S
C572 C574 1.353 . S
C572 N575 1.314 . S
C572 H578 0.930 . S
C573 N575 1.279 . S
C573 C576 1.358 . S
C573 H579 0.930 . S
C574 C572 1.353 . S
C574 C577 1.348 . S
C574 H612 0.929 . S
N575 Li530 1.990 . S
N575 C572 1.314 . S
N575 C573 1.279 . S
C576 C573 1.358 . S
C576 C577 1.356 . S
C576 H613 0.930 . S
C577 C574 1.348 . S
C577 C576 1.356 . S
H578 C572 0.930 . S
H579 C573 0.930 . S
C580 N581 1.314 . S
C580 C582 1.353 . S
C580 H586 0.930 . S
N581 Li531 1.990 . S
N581 C580 1.314 . S
N581 C584 1.279 . S
C582 C580 1.353 . S
C582 C585 1.348 . S
C582 H614 0.929 . S
C583 C584 1.358 . S
C583 C585 1.356 . S
C583 H615 0.930 . S
C584 N581 1.279 . S
C584 C583 1.358 . S
C584 H587 0.930 . S
C585 C582 1.348 . S
C585 C583 1.356 . S
H586 C580 0.930 . S
H587 C584 0.930 . S
O588 Li528 1.956 . S
O588 Li529 1.970 . S
O588 Li530 1.961 . S
O588 C532 1.325 . S
O589 Li528 1.970 . S
O589 Li529 1.956 . S
O589 Li531 1.961 . S
O589 C538 1.325 . S
O590 Li528 1.961 . S
O590 Li530 1.956 . S
O590 Li531 1.970 . S
O590 C560 1.325 . S
O591 Li529 1.961 . S
O591 Li530 1.970 . S
O591 Li531 1.956 . S
O591 C566 1.325 . S
H592 C534 0.929 . S
H593 C535 0.930 . S
H594 C536 0.930 . S
H595 C537 0.930 . S
H596 C539 0.930 . S
H597 C541 0.929 . S
H598 C542 0.930 . S
H599 C543 0.930 . S
H600 C546 0.930 . S
H601 C549 0.929 . S
H602 C554 0.929 . S
H603 C555 0.930 . S
H604 C562 0.929 . S
H605 C563 0.930 . S
H606 C564 0.930 . S
H607 C565 0.930 . S
H608 C567 0.929 . S
H609 C568 0.930 . S
H610 C569 0.930 . S
H611 C570 0.930 . S
H612 C574 0.929 . S
H613 C576 0.930 . S
H614 C582 0.929 . S
H615 C583 0.930 . S
Li616 N633 1.990 . S
Li616 O676 1.956 1_455 S
Li616 O677 1.970 . S
Li616 O678 1.961 . S
Li617 N641 1.990 . S
Li617 O676 1.970 . S
Li617 O677 1.956 1_655 S
Li617 O679 1.961 1_655 S
Li618 N663 1.990 . S
Li618 O676 1.961 1_455 S
Li618 O678 1.956 . S
Li618 O679 1.970 . S
Li619 N669 1.990 . S
Li619 O677 1.961 . S
Li619 O678 1.970 . S
Li619 O679 1.956 . S
C620 C622 1.348 . S
C620 C623 1.356 . S
C620 O676 1.325 . S
N621 C624 1.314 . S
N621 C625 1.279 . S
C622 C620 1.348 . S
C622 C624 1.353 . S
C622 H680 0.929 . S
C623 C620 1.356 . S
C623 C625 1.358 . S
C623 H681 0.930 . S
C624 N621 1.314 . S
C624 C622 1.353 . S
C624 H682 0.930 . S
C625 N621 1.279 . S
C625 C623 1.358 . S
C625 H683 0.930 . S
C626 C629 1.348 . S
C626 C630 1.356 . S
C626 O677 1.325 . S
C627 N628 1.279 . S
C627 C630 1.358 . S
C627 H684 0.930 . S
N628 C627 1.279 . S
N628 C631 1.314 . S
C629 C626 1.348 . S
C629 C631 1.353 . S
C629 H685 0.929 . S
C630 C626 1.356 . S
C630 C627 1.358 . S
C630 H686 0.930 . S
C631 N628 1.314 . S
C631 C629 1.353 . S
C631 H687 0.930 . S
C632 N633 1.314 . S
C632 C637 1.353 . S
C632 H638 0.930 . S
N633 Li616 1.990 . S
N633 C632 1.314 . S
N633 C635 1.279 . S
C634 C635 1.358 . S
C634 C636 1.356 . S
C634 H688 0.984 . S
C635 N633 1.279 . S
C635 C634 1.358 . S
C635 H639 0.930 1_455 S
C636 C634 1.356 . S
C636 C637 1.348 . S
C637 C632 1.353 . S
C637 C636 1.348 . S
C637 H689 0.929 . S
H638 C632 0.930 . S
H639 C635 0.930 1_655 S
C640 N641 1.314 . S
C640 C642 1.353 . S
C640 H646 0.930 . S
N641 Li617 1.990 . S
N641 C640 1.314 . S
N641 C644 1.279 . S
C642 C640 1.353 . S
C642 C645 1.348 . S
C642 H690 0.929 . S
C643 C644 1.358 . S
C643 C645 1.356 . S
C643 H691 0.930 . S
C644 N641 1.279 . S
C644 C643 1.358 . S
C644 H647 0.930 . S
C645 C642 1.348 . S
C645 C643 1.356 . S
H646 C640 0.930 . S
H647 C644 0.930 . S
C648 C650 1.348 . S
C648 C651 1.356 . S
C648 O678 1.325 . S
N649 C652 1.314 . S
N649 C653 1.279 . S
C650 C648 1.348 . S
C650 C652 1.353 . S
C650 H692 0.929 . S
C651 C648 1.356 . S
C651 C653 1.358 . S
C651 H693 0.930 . S
C652 N649 1.314 . S
C652 C650 1.353 . S
C652 H694 0.930 . S
C653 N649 1.279 . S
C653 C651 1.358 . S
C653 H695 0.930 . S
C654 C655 1.348 . S
C654 C656 1.356 . S
C654 O679 1.325 . S
C655 C654 1.348 . S
C655 C657 1.353 . S
C655 H696 0.929 . S
C656 C654 1.356 . S
C656 C658 1.358 . S
C656 H697 0.930 . S
C657 C655 1.353 . S
C657 N659 1.314 . S
C657 H698 0.930 . S
C658 C656 1.358 . S
C658 N659 1.279 . S
C658 H699 0.930 1_455 S
N659 C657 1.314 . S
N659 C658 1.279 . S
C660 C662 1.353 . S
C660 N663 1.314 1_655 S
C660 H666 0.930 . S
C661 N663 1.279 . S
C661 C664 1.358 . S
C661 H667 0.930 . S
C662 C660 1.353 . S
C662 C665 1.348 1_655 S
C662 H700 0.929 . S
N663 Li618 1.990 . S
N663 C660 1.314 1_455 S
N663 C661 1.279 . S
C664 C661 1.358 . S
C664 C665 1.356 . S
C664 H701 0.930 . S
C665 C662 1.348 1_455 S
C665 C664 1.356 . S
H666 C660 0.930 . S
H667 C661 0.930 . S
C668 N669 1.314 . S
C668 C670 1.353 . S
C668 H674 0.930 . S
N669 Li619 1.990 . S
N669 C668 1.314 . S
N669 C672 1.279 . S
C670 C668 1.353 . S
C670 C673 1.348 . S
C670 H702 0.929 . S
C671 C672 1.358 . S
C671 C673 1.356 . S
C671 H703 0.930 . S
C672 N669 1.279 . S
C672 C671 1.358 . S
C672 H675 0.930 . S
C673 C670 1.348 . S
C673 C671 1.356 . S
H674 C668 0.930 . S
H675 C672 0.930 . S
O676 Li616 1.956 1_655 S
O676 Li617 1.970 . S
O676 Li618 1.961 1_655 S
O676 C620 1.325 . S
O677 Li616 1.970 . S
O677 Li617 1.956 1_455 S
O677 Li619 1.961 . S
O677 C626 1.325 . S
O678 Li616 1.961 . S
O678 Li618 1.956 . S
O678 Li619 1.970 . S
O678 C648 1.325 . S
O679 Li617 1.961 1_455 S
O679 Li618 1.970 . S
O679 Li619 1.956 . S
O679 C654 1.325 . S
H680 C622 0.929 . S
H681 C623 0.930 . S
H682 C624 0.930 . S
H683 C625 0.930 . S
H684 C627 0.930 . S
H685 C629 0.929 . S
H686 C630 0.930 . S
H687 C631 0.930 . S
H688 C634 0.984 . S
H689 C637 0.929 . S
H690 C642 0.929 . S
H691 C643 0.930 . S
H692 C650 0.929 . S
H693 C651 0.930 . S
H694 C652 0.930 . S
H695 C653 0.930 . S
H696 C655 0.929 . S
H697 C656 0.930 . S
H698 C657 0.930 . S
H699 C658 0.930 1_655 S
H700 C662 0.929 . S
H701 C664 0.930 . S
H702 C670 0.929 . S
H703 C671 0.930 . S
Li704 N721 1.990 . S
Li704 O764 1.956 1_545 S
Li704 O765 1.970 . S
Li704 O766 1.961 . S
Li705 N729 1.990 . S
Li705 O764 1.970 . S
Li705 O765 1.956 1_565 S
Li705 O767 1.961 . S
Li706 N751 1.990 . S
Li706 O764 1.961 1_545 S
Li706 O766 1.956 . S
Li706 O767 1.970 1_545 S
Li707 N757 1.990 . S
Li707 O765 1.961 . S
Li707 O766 1.970 . S
Li707 O767 1.956 1_545 S
C708 C710 1.348 . S
C708 C711 1.356 . S
C708 O764 1.325 . S
N709 C712 1.314 . S
N709 C713 1.279 . S
C710 C708 1.348 . S
C710 C712 1.353 . S
C710 H768 0.929 . S
C711 C708 1.356 . S
C711 C713 1.358 . S
C711 H769 0.930 . S
C712 N709 1.314 . S
C712 C710 1.353 . S
C712 H770 0.930 . S
C713 N709 1.279 . S
C713 C711 1.358 . S
C713 H771 0.930 . S
C714 C717 1.333 1_545 S
C714 C718 1.356 . S
C714 O765 1.325 . S
C715 N716 1.279 . S
C715 C718 1.358 . S
C715 H772 0.930 . S
N716 C715 1.279 . S
N716 C719 1.315 1_545 S
C717 C714 1.333 1_565 S
C717 C719 1.354 . S
C717 H773 0.945 . S
C718 C714 1.356 . S
C718 C715 1.358 . S
C718 H774 0.930 . S
C719 N716 1.315 1_565 S
C719 C717 1.354 . S
C719 H775 0.930 . S
C720 N721 1.314 . S
C720 C725 1.353 . S
C720 H726 0.930 . S
N721 Li704 1.990 . S
N721 C720 1.314 . S
N721 C723 1.279 1_545 S
C722 C723 1.366 1_545 S
C722 C724 1.393 . S
C722 H776 0.886 1_545 S
C723 N721 1.279 1_565 S
C723 C722 1.366 1_565 S
C723 H727 0.930 . S
C724 C722 1.393 . S
C724 C725 1.348 . S
C725 C720 1.353 . S
C725 C724 1.348 . S
C725 H777 0.929 . S
H726 C720 0.930 . S
H727 C723 0.930 . S
C728 N729 1.314 . S
C728 C730 1.353 . S
C728 H734 0.930 . S
N729 Li705 1.990 . S
N729 C728 1.314 . S
N729 C732 1.279 . S
C730 C728 1.353 . S
C730 C733 1.348 . S
C730 H778 0.929 . S
C731 C732 1.358 . S
C731 C733 1.356 . S
C731 H779 0.930 . S
C732 N729 1.279 . S
C732 C731 1.358 . S
C732 H735 0.930 . S
C733 C730 1.348 . S
C733 C731 1.356 . S
H734 C728 0.930 . S
H735 C732 0.930 . S
C736 C738 1.348 . S
C736 C739 1.356 . S
C736 O766 1.325 . S
N737 C740 1.314 . S
N737 C741 1.279 . S
C738 C736 1.348 . S
C738 C740 1.353 . S
C738 H780 0.929 . S
C739 C736 1.356 . S
C739 C741 1.358 . S
C739 H781 0.930 . S
C740 N737 1.314 . S
C740 C738 1.353 . S
C740 H782 0.930 . S
C741 N737 1.279 . S
C741 C739 1.358 . S
C741 H783 0.930 . S
C742 C743 1.331 1_565 S
C742 C744 1.356 . S
C742 O767 1.325 . S
C743 C742 1.331 1_545 S
C743 C745 1.361 1_545 S
C743 H784 0.942 . S
C744 C742 1.356 . S
C744 C746 1.358 . S
C744 H785 0.930 . S
C745 C743 1.361 1_565 S
C745 N747 1.314 . S
C745 H786 0.920 1_565 S
C746 C744 1.358 . S
C746 N747 1.279 . S
C746 H787 0.930 . S
N747 C745 1.314 . S
N747 C746 1.279 . S
C748 C750 1.353 . S
C748 N751 1.314 1_565 S
C748 H754 0.930 . S
C749 N751 1.279 . S
C749 C752 1.358 . S
C749 H755 0.930 . S
C750 C748 1.353 . S
C750 C753 1.348 1_565 S
C750 H788 0.929 . S
N751 Li706 1.990 . S
N751 C748 1.314 1_545 S
N751 C749 1.279 . S
C752 C749 1.358 . S
C752 C753 1.356 . S
C752 H789 0.930 . S
C753 C750 1.348 1_545 S
C753 C752 1.356 . S
H754 C748 0.930 . S
H755 C749 0.930 . S
C756 N757 1.314 . S
C756 C758 1.353 . S
C756 H762 0.930 . S
N757 Li707 1.990 . S
N757 C756 1.314 . S
N757 C760 1.279 . S
C758 C756 1.353 . S
C758 C761 1.348 . S
C758 H790 0.929 . S
C759 C760 1.358 . S
C759 C761 1.356 . S
C759 H791 0.930 . S
C760 N757 1.279 . S
C760 C759 1.358 . S
C760 H763 0.930 . S
C761 C758 1.348 . S
C761 C759 1.356 . S
H762 C756 0.930 . S
H763 C760 0.930 . S
O764 Li704 1.956 1_565 S
O764 Li705 1.970 . S
O764 Li706 1.961 1_565 S
O764 C708 1.325 . S
O765 Li704 1.970 . S
O765 Li705 1.956 1_545 S
O765 Li707 1.961 . S
O765 C714 1.325 . S
O766 Li704 1.961 . S
O766 Li706 1.956 . S
O766 Li707 1.970 . S
O766 C736 1.325 . S
O767 Li705 1.961 . S
O767 Li706 1.970 1_565 S
O767 Li707 1.956 1_565 S
O767 C742 1.325 . S
H768 C710 0.929 . S
H769 C711 0.930 . S
H770 C712 0.930 . S
H771 C713 0.930 . S
H772 C715 0.930 . S
H773 C717 0.945 . S
H774 C718 0.930 . S
H775 C719 0.930 . S
H776 C722 0.886 1_565 S
H777 C725 0.929 . S
H778 C730 0.929 . S
H779 C731 0.930 . S
H780 C738 0.929 . S
H781 C739 0.930 . S
H782 C740 0.930 . S
H783 C741 0.930 . S
H784 C743 0.942 . S
H785 C744 0.930 . S
H786 C745 0.920 1_545 S
H787 C746 0.930 . S
H788 C750 0.929 . S
H789 C752 0.930 . S
H790 C758 0.929 . S
H791 C759 0.930 . S
Li792 N809 1.990 . S
Li792 O852 1.956 . S
Li792 O853 1.970 . S
Li792 O854 1.961 . S
Li793 N817 1.990 . S
Li793 O852 1.970 . S
Li793 O853 1.956 . S
Li793 O855 1.961 . S
Li794 N839 1.990 . S
Li794 O852 1.961 . S
Li794 O854 1.956 . S
Li794 O855 1.970 . S
Li795 N845 1.990 . S
Li795 O853 1.961 . S
Li795 O854 1.970 . S
Li795 O855 1.956 . S
C796 C798 1.348 . S
C796 C799 1.356 . S
C796 O852 1.325 . S
N797 C800 1.314 . S
N797 C801 1.279 . S
C798 C796 1.348 . S
C798 C800 1.353 . S
C798 H856 0.929 . S
C799 C796 1.356 . S
C799 C801 1.358 . S
C799 H857 0.930 . S
C800 N797 1.314 . S
C800 C798 1.353 . S
C800 H858 0.930 . S
C801 N797 1.279 . S
C801 C799 1.358 . S
C801 H859 0.930 . S
C802 C805 1.348 . S
C802 C806 1.356 . S
C802 O853 1.325 . S
C803 N804 1.279 . S
C803 C806 1.358 . S
C803 H860 0.930 . S
N804 C803 1.279 . S
N804 C807 1.314 . S
C805 C802 1.348 . S
C805 C807 1.353 . S
C805 H861 0.929 . S
C806 C802 1.356 . S
C806 C803 1.358 . S
C806 H862 0.930 . S
C807 N804 1.314 . S
C807 C805 1.353 . S
C807 H863 0.930 . S
C808 N809 1.314 . S
C808 C813 1.353 . S
C808 H814 0.930 . S
N809 Li792 1.990 . S
N809 C808 1.314 . S
N809 C811 1.279 . S
C810 C811 1.358 . S
C810 C812 1.356 . S
C810 H864 0.930 . S
C811 N809 1.279 . S
C811 C810 1.358 . S
C811 H815 0.930 . S
C812 C810 1.356 . S
C812 C813 1.348 . S
C813 C808 1.353 . S
C813 C812 1.348 . S
C813 H865 0.929 . S
H814 C808 0.930 . S
H815 C811 0.930 . S
C816 N817 1.314 . S
C816 C818 1.353 . S
C816 H822 0.930 . S
N817 Li793 1.990 . S
N817 C816 1.314 . S
N817 C820 1.279 . S
C818 C816 1.353 . S
C818 C821 1.348 . S
C818 H866 0.929 . S
C819 C820 1.358 . S
C819 C821 1.356 . S
C819 H867 0.930 . S
C820 N817 1.279 . S
C820 C819 1.358 . S
C820 H823 0.930 . S
C821 C818 1.348 . S
C821 C819 1.356 . S
H822 C816 0.930 . S
H823 C820 0.930 . S
C824 C826 1.348 . S
C824 C827 1.356 . S
C824 O854 1.325 . S
N825 C828 1.314 . S
N825 C829 1.279 . S
C826 C824 1.348 . S
C826 C828 1.353 . S
C826 H868 0.929 . S
C827 C824 1.356 . S
C827 C829 1.358 . S
C827 H869 0.930 . S
C828 N825 1.314 . S
C828 C826 1.353 . S
C828 H870 0.930 . S
C829 N825 1.279 . S
C829 C827 1.358 . S
C829 H871 0.930 . S
C830 C831 1.348 . S
C830 C832 1.356 . S
C830 O855 1.325 . S
C831 C830 1.348 . S
C831 C833 1.353 . S
C831 H872 0.929 . S
C832 C830 1.356 . S
C832 C834 1.358 . S
C832 H873 0.930 . S
C833 C831 1.353 . S
C833 N835 1.314 . S
C833 H874 0.930 . S
C834 C832 1.358 . S
C834 N835 1.279 . S
C834 H875 0.930 . S
N835 C833 1.314 . S
N835 C834 1.279 . S
C836 C838 1.353 . S
C836 N839 1.314 . S
C836 H842 0.930 . S
C837 N839 1.279 . S
C837 C840 1.358 . S
C837 H843 0.930 . S
C838 C836 1.353 . S
C838 C841 1.348 . S
C838 H876 0.929 . S
N839 Li794 1.990 . S
N839 C836 1.314 . S
N839 C837 1.279 . S
C840 C837 1.358 . S
C840 C841 1.356 . S
C840 H877 0.930 . S
C841 C838 1.348 . S
C841 C840 1.356 . S
H842 C836 0.930 . S
H843 C837 0.930 . S
C844 N845 1.314 . S
C844 C846 1.353 . S
C844 H850 0.930 . S
N845 Li795 1.990 . S
N845 C844 1.314 . S
N845 C848 1.279 . S
C846 C844 1.353 . S
C846 C849 1.348 . S
C846 H878 0.929 . S
C847 C848 1.358 . S
C847 C849 1.356 . S
C847 H879 0.930 . S
C848 N845 1.279 . S
C848 C847 1.358 . S
C848 H851 0.930 . S
C849 C846 1.348 . S
C849 C847 1.356 . S
H850 C844 0.930 . S
H851 C848 0.930 . S
O852 Li792 1.956 . S
O852 Li793 1.970 . S
O852 Li794 1.961 . S
O852 C796 1.325 . S
O853 Li792 1.970 . S
O853 Li793 1.956 . S
O853 Li795 1.961 . S
O853 C802 1.325 . S
O854 Li792 1.961 . S
O854 Li794 1.956 . S
O854 Li795 1.970 . S
O854 C824 1.325 . S
O855 Li793 1.961 . S
O855 Li794 1.970 . S
O855 Li795 1.956 . S
O855 C830 1.325 . S
H856 C798 0.929 . S
H857 C799 0.930 . S
H858 C800 0.930 . S
H859 C801 0.930 . S
H860 C803 0.930 . S
H861 C805 0.929 . S
H862 C806 0.930 . S
H863 C807 0.930 . S
H864 C810 0.930 . S
H865 C813 0.929 . S
H866 C818 0.929 . S
H867 C819 0.930 . S
H868 C826 0.929 . S
H869 C827 0.930 . S
H870 C828 0.930 . S
H871 C829 0.930 . S
H872 C831 0.929 . S
H873 C832 0.930 . S
H874 C833 0.930 . S
H875 C834 0.930 . S
H876 C838 0.929 . S
H877 C840 0.930 . S
H878 C846 0.929 . S
H879 C847 0.930 . S
Li880 N897 1.990 . S
Li880 O940 1.956 . S
Li880 O941 1.970 . S
Li880 O942 1.961 . S
Li881 N905 1.991 . S
Li881 O940 1.970 . S
Li881 O941 1.956 . S
Li881 O943 1.961 1_545 S
Li882 N927 1.990 . S
Li882 O940 1.961 1_565 S
Li882 O942 1.956 1_565 S
Li882 O943 1.970 . S
Li883 N933 1.990 . S
Li883 O941 1.961 1_565 S
Li883 O942 1.970 1_565 S
Li883 O943 1.956 . S
C884 C886 1.348 . S
C884 C887 1.356 . S
C884 O940 1.325 . S
N885 C888 1.314 . S
N885 C889 1.279 . S
C886 C884 1.348 . S
C886 C888 1.353 . S
C886 H944 0.929 . S
C887 C884 1.356 . S
C887 C889 1.358 . S
C887 H945 0.930 . S
C888 N885 1.314 . S
C888 C886 1.353 . S
C888 H946 0.930 . S
C889 N885 1.279 . S
C889 C887 1.358 . S
C889 H947 0.930 . S
C890 C893 1.348 . S
C890 C894 1.356 . S
C890 O941 1.325 . S
C891 N892 1.279 . S
C891 C894 1.358 . S
C891 H948 0.930 . S
N892 C891 1.279 . S
N892 C895 1.314 . S
C893 C890 1.348 . S
C893 C895 1.353 . S
C893 H949 0.929 . S
C894 C890 1.356 . S
C894 C891 1.358 . S
C894 H950 0.930 . S
C895 N892 1.314 . S
C895 C893 1.353 . S
C895 H951 0.930 . S
C896 N897 1.314 . S
C896 C901 1.353 . S
C896 H902 0.930 . S
N897 Li880 1.990 . S
N897 C896 1.314 . S
N897 C899 1.279 . S
C898 C899 1.358 . S
C898 C900 1.356 . S
C898 H952 0.930 . S
C899 N897 1.279 . S
C899 C898 1.358 . S
C899 H903 0.930 . S
C900 C898 1.356 . S
C900 C901 1.348 . S
C901 C896 1.353 . S
C901 C900 1.348 . S
C901 H953 0.929 . S
H902 C896 0.930 . S
H903 C899 0.930 . S
C904 N905 1.275 1_565 S
C904 C906 1.353 . S
C904 H910 0.930 . S
N905 Li881 1.991 . S
N905 C904 1.275 1_545 S
N905 C908 1.318 . S
C906 C904 1.353 . S
C906 C909 1.356 . S
C906 H954 0.929 . S
C907 C908 1.358 . S
C907 C909 1.348 1_545 S
C907 H955 0.930 . S
C908 N905 1.318 . S
C908 C907 1.358 . S
C908 H911 0.930 . S
C909 C906 1.356 . S
C909 C907 1.348 1_565 S
H910 C904 0.930 . S
H911 C908 0.930 . S
C912 C914 1.348 1_545 S
C912 C915 1.356 . S
C912 O942 1.325 . S
N913 C916 1.314 1_545 S
N913 C917 1.279 . S
C914 C912 1.348 1_565 S
C914 C916 1.353 . S
C914 H956 0.929 . S
C915 C912 1.356 . S
C915 C917 1.358 . S
C915 H957 0.930 . S
C916 N913 1.314 1_565 S
C916 C914 1.353 . S
C916 H958 0.930 . S
C917 N913 1.279 . S
C917 C915 1.358 . S
C917 H959 0.930 . S
C918 C919 1.348 . S
C918 C920 1.356 . S
C918 O943 1.325 . S
C919 C918 1.348 . S
C919 C921 1.353 . S
C919 H960 0.929 . S
C920 C918 1.356 . S
C920 C922 1.358 . S
C920 H961 0.930 . S
C921 C919 1.353 . S
C921 N923 1.314 . S
C921 H962 0.930 . S
C922 C920 1.358 . S
C922 N923 1.279 . S
C922 H963 0.930 . S
N923 C921 1.314 . S
N923 C922 1.279 . S
C924 C926 1.353 . S
C924 N927 1.314 . S
C924 H930 0.930 . S
C925 N927 1.279 . S
C925 C928 1.358 . S
C925 H931 0.930 . S
C926 C924 1.353 . S
C926 C929 1.348 . S
C926 H964 0.929 . S
N927 Li882 1.990 . S
N927 C924 1.314 . S
N927 C925 1.279 . S
C928 C925 1.358 . S
C928 C929 1.356 . S
C928 H965 0.930 . S
C929 C926 1.348 . S
C929 C928 1.356 . S
H930 C924 0.930 . S
H931 C925 0.930 . S
C932 N933 1.314 1_545 S
C932 C934 1.353 . S
C932 H938 0.930 . S
N933 Li883 1.990 . S
N933 C932 1.314 1_565 S
N933 C936 1.279 . S
C934 C932 1.353 . S
C934 C937 1.348 1_545 S
C934 H966 0.929 . S
C935 C936 1.358 . S
C935 C937 1.356 . S
C935 H967 0.930 . S
C936 N933 1.279 . S
C936 C935 1.358 . S
C936 H939 0.930 . S
C937 C934 1.348 1_565 S
C937 C935 1.356 . S
H938 C932 0.930 . S
H939 C936 0.930 . S
O940 Li880 1.956 . S
O940 Li881 1.970 . S
O940 Li882 1.961 1_545 S
O940 C884 1.325 . S
O941 Li880 1.970 . S
O941 Li881 1.956 . S
O941 Li883 1.961 1_545 S
O941 C890 1.325 . S
O942 Li880 1.961 . S
O942 Li882 1.956 1_545 S
O942 Li883 1.970 1_545 S
O942 C912 1.325 . S
O943 Li881 1.961 1_565 S
O943 Li882 1.970 . S
O943 Li883 1.956 . S
O943 C918 1.325 . S
H944 C886 0.929 . S
H945 C887 0.930 . S
H946 C888 0.930 . S
H947 C889 0.930 . S
H948 C891 0.930 . S
H949 C893 0.929 . S
H950 C894 0.930 . S
H951 C895 0.930 . S
H952 C898 0.930 . S
H953 C901 0.929 . S
H954 C906 0.929 . S
H955 C907 0.930 . S
H956 C914 0.929 . S
H957 C915 0.930 . S
H958 C916 0.930 . S
H959 C917 0.930 . S
H960 C919 0.929 . S
H961 C920 0.930 . S
H962 C921 0.930 . S
H963 C922 0.930 . S
H964 C926 0.929 . S
H965 C928 0.930 . S
H966 C934 0.929 . S
H967 C935 0.930 . S
Li968 N985 1.990 . S
Li968 O1028 1.956 . S
Li968 O1029 1.970 . S
Li968 O1030 1.961 1_554 S
Li969 N993 1.990 . S
Li969 O1028 1.970 . S
Li969 O1029 1.956 . S
Li969 O1031 1.961 . S
Li970 N1015 1.990 . S
Li970 O1028 1.961 . S
Li970 O1030 1.956 1_554 S
Li970 O1031 1.970 . S
Li971 N1021 1.990 . S
Li971 O1029 1.961 1_556 S
Li971 O1030 1.970 . S
Li971 O1031 1.956 1_556 S
C972 C974 1.348 . S
C972 C975 1.356 . S
C972 O1028 1.325 . S
N973 C976 1.314 . S
N973 C977 1.279 . S
C974 C972 1.348 . S
C974 C976 1.353 . S
C974 H1032 0.929 . S
C975 C972 1.356 . S
C975 C977 1.358 . S
C975 H1033 0.930 . S
C976 N973 1.314 . S
C976 C974 1.353 . S
C976 H1034 0.930 . S
C977 N973 1.279 . S
C977 C975 1.358 . S
C977 H1035 0.930 . S
C978 C981 1.348 . S
C978 C982 1.356 1_554 S
C978 O1029 1.325 . S
C979 N980 1.265 1_556 S
C979 C982 1.358 . S
C979 H1036 0.930 . S
N980 C979 1.265 1_554 S
N980 C983 1.325 . S
C981 C978 1.348 . S
C981 C983 1.353 . S
C981 H1037 0.929 . S
C982 C978 1.356 1_556 S
C982 C979 1.358 . S
C982 H1038 0.930 . S
C983 N980 1.325 . S
C983 C981 1.353 . S
C983 H1039 0.930 . S
C984 N985 1.314 1_556 S
C984 C989 1.353 . S
C984 H990 0.930 . S
N985 Li968 1.990 . S
N985 C984 1.314 1_554 S
N985 C987 1.279 . S
C986 C987 1.358 . S
C986 C988 1.356 . S
C986 H1040 0.930 . S
C987 N985 1.279 . S
C987 C986 1.358 . S
C987 H991 0.930 . S
C988 C986 1.356 . S
C988 C989 1.348 1_554 S
C989 C984 1.353 . S
C989 C988 1.348 1_556 S
C989 H1041 0.929 . S
H990 C984 0.930 . S
H991 C987 0.930 . S
C992 N993 1.314 . S
C992 C994 1.353 . S
C992 H998 0.930 . S
N993 Li969 1.990 . S
N993 C992 1.314 . S
N993 C996 1.279 . S
C994 C992 1.353 . S
C994 C997 1.348 . S
C994 H1042 0.929 . S
C995 C996 1.358 . S
C995 C997 1.356 . S
C995 H1043 0.930 . S
C996 N993 1.279 . S
C996 C995 1.358 . S
C996 H999 0.930 . S
C997 C994 1.348 . S
C997 C995 1.356 . S
H998 C992 0.930 . S
H999 C996 0.930 . S
C1000 C1002 1.348 . S
C1000 C1003 1.356 . S
C1000 O1030 1.325 . S
N1001 C1004 1.314 . S
N1001 C1005 1.279 . S
C1002 C1000 1.348 . S
C1002 C1004 1.353 . S
C1002 H1044 0.929 . S
C1003 C1000 1.356 . S
C1003 C1005 1.358 . S
C1003 H1045 0.930 . S
C1004 N1001 1.314 . S
C1004 C1002 1.353 . S
C1004 H1046 0.930 . S
C1005 N1001 1.279 . S
C1005 C1003 1.358 . S
C1005 H1047 0.930 . S
C1006 C1007 1.348 . S
C1006 C1008 1.356 . S
C1006 O1031 1.325 . S
C1007 C1006 1.348 . S
C1007 C1009 1.353 . S
C1007 H1048 0.929 . S
C1008 C1006 1.356 . S
C1008 C1010 1.358 . S
C1008 H1049 0.930 . S
C1009 C1007 1.353 . S
C1009 N1011 1.314 . S
C1009 H1050 0.930 . S
C1010 C1008 1.358 . S
C1010 N1011 1.279 . S
C1010 H1051 0.930 . S
N1011 C1009 1.314 . S
N1011 C1010 1.279 . S
C1012 C1014 1.353 . S
C1012 N1015 1.314 . S
C1012 H1018 0.930 . S
C1013 N1015 1.279 . S
C1013 C1016 1.358 . S
C1013 H1019 0.930 1_554 S
C1014 C1012 1.353 . S
C1014 C1017 1.348 . S
C1014 H1052 0.929 . S
N1015 Li970 1.990 . S
N1015 C1012 1.314 . S
N1015 C1013 1.279 . S
C1016 C1013 1.358 . S
C1016 C1017 1.356 . S
C1016 H1053 0.930 1_554 S
C1017 C1014 1.348 . S
C1017 C1016 1.356 . S
H1018 C1012 0.930 . S
H1019 C1013 0.930 1_556 S
C1020 N1021 1.314 . S
C1020 C1022 1.353 . S
C1020 H1026 0.930 . S
N1021 Li971 1.990 . S
N1021 C1020 1.314 . S
N1021 C1024 1.279 . S
C1022 C1020 1.353 . S
C1022 C1025 1.348 . S
C1022 H1054 0.929 . S
C1023 C1024 1.358 . S
C1023 C1025 1.356 . S
C1023 H1055 0.930 . S
C1024 N1021 1.279 . S
C1024 C1023 1.358 . S
C1024 H1027 0.930 . S
C1025 C1022 1.348 . S
C1025 C1023 1.356 . S
H1026 C1020 0.930 . S
H1027 C1024 0.930 . S
O1028 Li968 1.956 . S
O1028 Li969 1.970 . S
O1028 Li970 1.961 . S
O1028 C972 1.325 . S
O1029 Li968 1.970 . S
O1029 Li969 1.956 . S
O1029 Li971 1.961 1_554 S
O1029 C978 1.325 . S
O1030 Li968 1.961 1_556 S
O1030 Li970 1.956 1_556 S
O1030 Li971 1.970 . S
O1030 C1000 1.325 . S
O1031 Li969 1.961 . S
O1031 Li970 1.970 . S
O1031 Li971 1.956 1_554 S
O1031 C1006 1.325 . S
H1032 C974 0.929 . S
H1033 C975 0.930 . S
H1034 C976 0.930 . S
H1035 C977 0.930 . S
H1036 C979 0.930 . S
H1037 C981 0.929 . S
H1038 C982 0.930 . S
H1039 C983 0.930 . S
H1040 C986 0.930 . S
H1041 C989 0.929 . S
H1042 C994 0.929 . S
H1043 C995 0.930 . S
H1044 C1002 0.929 . S
H1045 C1003 0.930 . S
H1046 C1004 0.930 . S
H1047 C1005 0.930 . S
H1048 C1007 0.929 . S
H1049 C1008 0.930 . S
H1050 C1009 0.930 . S
H1051 C1010 0.930 . S
H1052 C1014 0.929 . S
H1053 C1016 0.930 1_556 S
H1054 C1022 0.929 . S
H1055 C1023 0.930 . S
Li1056 N1073 1.990 . S
Li1056 O1116 1.956 . S
Li1056 O1117 1.970 . S
Li1056 O1118 1.961 1_554 S
Li1057 N1081 1.990 . S
Li1057 O1116 1.970 . S
Li1057 O1117 1.956 . S
Li1057 O1119 1.961 . S
Li1058 N1103 1.990 . S
Li1058 O1116 1.961 . S
Li1058 O1118 1.956 1_554 S
Li1058 O1119 1.970 . S
Li1059 N1109 1.990 . S
Li1059 O1117 1.961 1_556 S
Li1059 O1118 1.970 . S
Li1059 O1119 1.956 1_556 S
C1060 C1062 1.348 . S
C1060 C1063 1.356 . S
C1060 O1116 1.325 . S
N1061 C1064 1.314 . S
N1061 C1065 1.279 . S
C1062 C1060 1.348 . S
C1062 C1064 1.353 . S
C1062 H1120 0.929 . S
C1063 C1060 1.356 . S
C1063 C1065 1.358 . S
C1063 H1121 0.930 . S
C1064 N1061 1.314 . S
C1064 C1062 1.353 . S
C1064 H1122 0.930 . S
C1065 N1061 1.279 . S
C1065 C1063 1.358 . S
C1065 H1123 0.930 . S
C1066 C1069 1.348 . S
C1066 C1070 1.356 . S
C1066 O1117 1.325 . S
C1067 N1068 1.279 . S
C1067 C1070 1.358 . S
C1067 H1124 0.930 1_554 S
N1068 C1067 1.279 . S
N1068 C1071 1.314 . S
C1069 C1066 1.348 . S
C1069 C1071 1.353 . S
C1069 H1125 0.929 . S
C1070 C1066 1.356 . S
C1070 C1067 1.358 . S
C1070 H1126 0.936 . S
C1071 N1068 1.314 . S
C1071 C1069 1.353 . S
C1071 H1127 0.930 . S
C1072 N1073 1.335 . S
C1072 C1077 1.350 1_554 S
C1072 H1078 0.908 1_554 S
N1073 Li1056 1.990 . S
N1073 C1072 1.335 . S
N1073 C1075 1.279 . S
C1074 C1075 1.358 . S
C1074 C1076 1.356 . S
C1074 H1128 0.930 . S
C1075 N1073 1.279 . S
C1075 C1074 1.358 . S
C1075 H1079 0.930 . S
C1076 C1074 1.356 . S
C1076 C1077 1.318 1_554 S
C1077 C1072 1.350 1_556 S
C1077 C1076 1.318 1_556 S
C1077 H1129 0.961 . S
H1078 C1072 0.908 1_556 S
H1079 C1075 0.930 . S
C1080 N1081 1.314 . S
C1080 C1082 1.353 . S
C1080 H1086 0.930 . S
N1081 Li1057 1.990 . S
N1081 C1080 1.314 . S
N1081 C1084 1.279 . S
C1082 C1080 1.353 . S
C1082 C1085 1.348 . S
C1082 H1130 0.929 . S
C1083 C1084 1.358 . S
C1083 C1085 1.356 . S
C1083 H1131 0.930 . S
C1084 N1081 1.279 . S
C1084 C1083 1.358 . S
C1084 H1087 0.930 . S
C1085 C1082 1.348 . S
C1085 C1083 1.356 . S
H1086 C1080 0.930 . S
H1087 C1084 0.930 . S
C1088 C1090 1.348 . S
C1088 C1091 1.356 . S
C1088 O1118 1.325 . S
N1089 C1092 1.314 . S
N1089 C1093 1.279 . S
C1090 C1088 1.348 . S
C1090 C1092 1.353 . S
C1090 H1132 0.929 . S
C1091 C1088 1.356 . S
C1091 C1093 1.358 . S
C1091 H1133 0.930 . S
C1092 N1089 1.314 . S
C1092 C1090 1.353 . S
C1092 H1134 0.930 . S
C1093 N1089 1.279 . S
C1093 C1091 1.358 . S
C1093 H1135 0.930 . S
C1094 C1095 1.348 . S
C1094 C1096 1.356 . S
C1094 O1119 1.325 . S
C1095 C1094 1.348 . S
C1095 C1097 1.353 . S
C1095 H1136 0.929 . S
C1096 C1094 1.356 . S
C1096 C1098 1.358 . S
C1096 H1137 0.930 . S
C1097 C1095 1.353 . S
C1097 N1099 1.314 . S
C1097 H1138 0.930 . S
C1098 C1096 1.358 . S
C1098 N1099 1.279 . S
C1098 H1139 0.930 . S
N1099 C1097 1.314 . S
N1099 C1098 1.279 . S
C1100 C1102 1.353 . S
C1100 N1103 1.314 . S
C1100 H1106 0.930 . S
C1101 N1103 1.279 . S
C1101 C1104 1.358 . S
C1101 H1107 0.930 1_554 S
C1102 C1100 1.353 . S
C1102 C1105 1.348 . S
C1102 H1140 0.929 . S
N1103 Li1058 1.990 . S
N1103 C1100 1.314 . S
N1103 C1101 1.279 . S
C1104 C1101 1.358 . S
C1104 C1105 1.356 . S
C1104 H1141 0.930 1_554 S
C1105 C1102 1.348 . S
C1105 C1104 1.356 . S
H1106 C1100 0.930 . S
H1107 C1101 0.930 1_556 S
C1108 N1109 1.314 . S
C1108 C1110 1.353 . S
C1108 H1114 0.930 . S
N1109 Li1059 1.990 . S
N1109 C1108 1.314 . S
N1109 C1112 1.279 . S
C1110 C1108 1.353 . S
C1110 C1113 1.348 . S
C1110 H1142 0.929 . S
C1111 C1112 1.358 . S
C1111 C1113 1.356 . S
C1111 H1143 0.930 . S
C1112 N1109 1.279 . S
C1112 C1111 1.358 . S
C1112 H1115 0.930 . S
C1113 C1110 1.348 . S
C1113 C1111 1.356 . S
H1114 C1108 0.930 . S
H1115 C1112 0.930 . S
O1116 Li1056 1.956 . S
O1116 Li1057 1.970 . S
O1116 Li1058 1.961 . S
O1116 C1060 1.325 . S
O1117 Li1056 1.970 . S
O1117 Li1057 1.956 . S
O1117 Li1059 1.961 1_554 S
O1117 C1066 1.325 . S
O1118 Li1056 1.961 1_556 S
O1118 Li1058 1.956 1_556 S
O1118 Li1059 1.970 . S
O1118 C1088 1.325 . S
O1119 Li1057 1.961 . S
O1119 Li1058 1.970 . S
O1119 Li1059 1.956 1_554 S
O1119 C1094 1.325 . S
H1120 C1062 0.929 . S
H1121 C1063 0.930 . S
H1122 C1064 0.930 . S
H1123 C1065 0.930 . S
H1124 C1067 0.930 1_556 S
H1125 C1069 0.929 . S
H1126 C1070 0.936 . S
H1127 C1071 0.930 . S
H1128 C1074 0.930 . S
H1129 C1077 0.961 . S
H1130 C1082 0.929 . S
H1131 C1083 0.930 . S
H1132 C1090 0.929 . S
H1133 C1091 0.930 . S
H1134 C1092 0.930 . S
H1135 C1093 0.930 . S
H1136 C1095 0.929 . S
H1137 C1096 0.930 . S
H1138 C1097 0.930 . S
H1139 C1098 0.930 . S
H1140 C1102 0.929 . S
H1141 C1104 0.930 1_556 S
H1142 C1110 0.929 . S
H1143 C1111 0.930 . S
Li1144 N1161 1.990 . S
Li1144 O1204 1.956 . S
Li1144 O1205 1.970 . S
Li1144 O1206 1.961 . S
Li1145 N1169 1.990 . S
Li1145 O1204 1.970 . S
Li1145 O1205 1.956 . S
Li1145 O1207 1.961 1_554 S
Li1146 N1191 1.990 . S
Li1146 O1204 1.961 1_556 S
Li1146 O1206 1.956 1_556 S
Li1146 O1207 1.970 . S
Li1147 N1197 1.990 . S
Li1147 O1205 1.961 . S
Li1147 O1206 1.970 . S
Li1147 O1207 1.956 1_554 S
C1148 C1150 1.348 . S
C1148 C1151 1.356 . S
C1148 O1204 1.325 . S
N1149 C1152 1.314 . S
N1149 C1153 1.279 . S
C1150 C1148 1.348 . S
C1150 C1152 1.353 . S
C1150 H1208 0.929 . S
C1151 C1148 1.356 . S
C1151 C1153 1.358 . S
C1151 H1209 0.930 . S
C1152 N1149 1.314 . S
C1152 C1150 1.353 . S
C1152 H1210 0.930 . S
C1153 N1149 1.279 . S
C1153 C1151 1.358 . S
C1153 H1211 0.930 . S
C1154 C1157 1.348 . S
C1154 C1158 1.356 . S
C1154 O1205 1.325 . S
C1155 N1156 1.279 . S
C1155 C1158 1.358 . S
C1155 H1212 0.930 . S
N1156 C1155 1.279 . S
N1156 C1159 1.314 . S
C1157 C1154 1.348 . S
C1157 C1159 1.353 . S
C1157 H1213 0.929 . S
C1158 C1154 1.356 . S
C1158 C1155 1.358 . S
C1158 H1214 0.930 . S
C1159 N1156 1.314 . S
C1159 C1157 1.353 . S
C1159 H1215 0.930 . S
C1160 N1161 1.314 . S
C1160 C1165 1.353 . S
C1160 H1166 0.930 . S
N1161 Li1144 1.990 . S
N1161 C1160 1.314 . S
N1161 C1163 1.279 . S
C1162 C1163 1.358 . S
C1162 C1164 1.356 . S
C1162 H1216 0.930 . S
C1163 N1161 1.279 . S
C1163 C1162 1.358 . S
C1163 H1167 0.930 . S
C1164 C1162 1.356 . S
C1164 C1165 1.348 . S
C1165 C1160 1.353 . S
C1165 C1164 1.348 . S
C1165 H1217 0.929 . S
H1166 C1160 0.930 . S
H1167 C1163 0.930 . S
C1168 N1169 1.314 1_556 S
C1168 C1170 1.353 . S
C1168 H1174 0.930 . S
N1169 Li1145 1.990 . S
N1169 C1168 1.314 1_554 S
N1169 C1172 1.279 . S
C1170 C1168 1.353 . S
C1170 C1173 1.348 1_556 S
C1170 H1218 0.929 . S
C1171 C1172 1.358 . S
C1171 C1173 1.356 . S
C1171 H1219 0.930 . S
C1172 N1169 1.279 . S
C1172 C1171 1.358 . S
C1172 H1175 0.930 . S
C1173 C1170 1.348 1_554 S
C1173 C1171 1.356 . S
H1174 C1168 0.930 . S
H1175 C1172 0.930 . S
C1176 C1178 1.348 . S
C1176 C1179 1.356 . S
C1176 O1206 1.325 . S
N1177 C1180 1.314 . S
N1177 C1181 1.279 . S
C1178 C1176 1.348 . S
C1178 C1180 1.353 . S
C1178 H1220 0.929 1_554 S
C1179 C1176 1.356 . S
C1179 C1181 1.358 . S
C1179 H1221 0.930 . S
C1180 N1177 1.314 . S
C1180 C1178 1.353 . S
C1180 H1222 0.931 1_554 S
C1181 N1177 1.279 . S
C1181 C1179 1.358 . S
C1181 H1223 0.930 . S
C1182 C1183 1.348 . S
C1182 C1184 1.356 . S
C1182 O1207 1.325 . S
C1183 C1182 1.348 . S
C1183 C1185 1.353 . S
C1183 H1224 0.929 . S
C1184 C1182 1.356 . S
C1184 C1186 1.358 . S
C1184 H1225 0.930 . S
C1185 C1183 1.353 . S
C1185 N1187 1.314 . S
C1185 H1226 0.930 . S
C1186 C1184 1.358 . S
C1186 N1187 1.279 . S
C1186 H1227 0.930 . S
N1187 C1185 1.314 . S
N1187 C1186 1.279 . S
C1188 C1190 1.353 . S
C1188 N1191 1.314 . S
C1188 H1194 0.930 . S
C1189 N1191 1.279 . S
C1189 C1192 1.358 . S
C1189 H1195 0.930 . S
C1190 C1188 1.353 . S
C1190 C1193 1.348 . S
C1190 H1228 0.929 . S
N1191 Li1146 1.990 . S
N1191 C1188 1.314 . S
N1191 C1189 1.279 . S
C1192 C1189 1.358 . S
C1192 C1193 1.356 . S
C1192 H1229 0.930 . S
C1193 C1190 1.348 . S
C1193 C1192 1.356 . S
H1194 C1188 0.930 . S
H1195 C1189 0.930 . S
C1196 N1197 1.314 . S
C1196 C1198 1.353 . S
C1196 H1202 0.930 . S
N1197 Li1147 1.990 . S
N1197 C1196 1.314 . S
N1197 C1200 1.279 1_554 S
C1198 C1196 1.353 . S
C1198 C1201 1.337 1_554 S
C1198 H1230 0.929 . S
C1199 C1200 1.358 . S
C1199 C1201 1.367 . S
C1199 H1231 0.930 . S
C1200 N1197 1.279 1_556 S
C1200 C1199 1.358 . S
C1200 H1203 0.930 . S
C1201 C1198 1.337 1_556 S
C1201 C1199 1.367 . S
H1202 C1196 0.930 . S
H1203 C1200 0.930 . S
O1204 Li1144 1.956 . S
O1204 Li1145 1.970 . S
O1204 Li1146 1.961 1_554 S
O1204 C1148 1.325 . S
O1205 Li1144 1.970 . S
O1205 Li1145 1.956 . S
O1205 Li1147 1.961 . S
O1205 C1154 1.325 . S
O1206 Li1144 1.961 . S
O1206 Li1146 1.956 1_554 S
O1206 Li1147 1.970 . S
O1206 C1176 1.325 . S
O1207 Li1145 1.961 1_556 S
O1207 Li1146 1.970 . S
O1207 Li1147 1.956 1_556 S
O1207 C1182 1.325 . S
H1208 C1150 0.929 . S
H1209 C1151 0.930 . S
H1210 C1152 0.930 . S
H1211 C1153 0.930 . S
H1212 C1155 0.930 . S
H1213 C1157 0.929 . S
H1214 C1158 0.930 . S
H1215 C1159 0.930 . S
H1216 C1162 0.930 . S
H1217 C1165 0.929 . S
H1218 C1170 0.929 . S
H1219 C1171 0.930 . S
H1220 C1178 0.929 1_556 S
H1221 C1179 0.930 . S
H1222 C1180 0.931 1_556 S
H1223 C1181 0.930 . S
H1224 C1183 0.929 . S
H1225 C1184 0.930 . S
H1226 C1185 0.930 . S
H1227 C1186 0.930 . S
H1228 C1190 0.929 . S
H1229 C1192 0.930 . S
H1230 C1198 0.929 . S
H1231 C1199 0.930 . S
Li1232 N1249 1.990 . S
Li1232 O1292 1.956 . S
Li1232 O1293 1.970 . S
Li1232 O1294 1.961 . S
Li1233 N1257 1.990 . S
Li1233 O1292 1.970 . S
Li1233 O1293 1.956 . S
Li1233 O1295 1.961 . S
Li1234 N1279 1.990 . S
Li1234 O1292 1.961 . S
Li1234 O1294 1.956 . S
Li1234 O1295 1.970 . S
Li1235 N1285 1.990 . S
Li1235 O1293 1.961 . S
Li1235 O1294 1.970 . S
Li1235 O1295 1.956 . S
C1236 C1238 1.348 . S
C1236 C1239 1.356 . S
C1236 O1292 1.325 . S
N1237 C1240 1.314 . S
N1237 C1241 1.279 . S
C1238 C1236 1.348 . S
C1238 C1240 1.353 . S
C1238 H1296 0.929 . S
C1239 C1236 1.356 . S
C1239 C1241 1.358 . S
C1239 H1297 0.930 . S
C1240 N1237 1.314 . S
C1240 C1238 1.353 . S
C1240 H1298 0.930 . S
C1241 N1237 1.279 . S
C1241 C1239 1.358 . S
C1241 H1299 0.930 . S
C1242 C1245 1.348 . S
C1242 C1246 1.356 . S
C1242 O1293 1.325 . S
C1243 N1244 1.279 . S
C1243 C1246 1.358 . S
C1243 H1300 0.930 . S
N1244 C1243 1.279 . S
N1244 C1247 1.314 . S
C1245 C1242 1.348 . S
C1245 C1247 1.353 . S
C1245 H1301 0.929 . S
C1246 C1242 1.356 . S
C1246 C1243 1.358 . S
C1246 H1302 0.930 . S
C1247 N1244 1.314 . S
C1247 C1245 1.353 . S
C1247 H1303 0.930 . S
C1248 N1249 1.314 . S
C1248 C1253 1.353 . S
C1248 H1254 0.930 . S
N1249 Li1232 1.990 . S
N1249 C1248 1.314 . S
N1249 C1251 1.279 . S
C1250 C1251 1.358 . S
C1250 C1252 1.356 . S
C1250 H1304 0.930 . S
C1251 N1249 1.279 . S
C1251 C1250 1.358 . S
C1251 H1255 0.930 . S
C1252 C1250 1.356 . S
C1252 C1253 1.348 . S
C1253 C1248 1.353 . S
C1253 C1252 1.348 . S
C1253 H1305 0.929 . S
H1254 C1248 0.930 . S
H1255 C1251 0.930 . S
C1256 N1257 1.314 . S
C1256 C1258 1.353 . S
C1256 H1262 0.930 . S
N1257 Li1233 1.990 . S
N1257 C1256 1.314 . S
N1257 C1260 1.279 . S
C1258 C1256 1.353 . S
C1258 C1261 1.348 . S
C1258 H1306 0.929 . S
C1259 C1260 1.358 . S
C1259 C1261 1.356 . S
C1259 H1307 0.930 . S
C1260 N1257 1.279 . S
C1260 C1259 1.358 . S
C1260 H1263 0.930 . S
C1261 C1258 1.348 . S
C1261 C1259 1.356 . S
H1262 C1256 0.930 . S
H1263 C1260 0.930 . S
C1264 C1266 1.348 . S
C1264 C1267 1.356 . S
C1264 O1294 1.325 . S
N1265 C1268 1.314 . S
N1265 C1269 1.279 . S
C1266 C1264 1.348 . S
C1266 C1268 1.353 . S
C1266 H1308 0.929 . S
C1267 C1264 1.356 . S
C1267 C1269 1.358 . S
C1267 H1309 0.930 . S
C1268 N1265 1.314 . S
C1268 C1266 1.353 . S
C1268 H1310 0.930 . S
C1269 N1265 1.279 . S
C1269 C1267 1.358 . S
C1269 H1311 0.930 . S
C1270 C1271 1.348 . S
C1270 C1272 1.356 . S
C1270 O1295 1.325 . S
C1271 C1270 1.348 . S
C1271 C1273 1.353 . S
C1271 H1312 0.929 . S
C1272 C1270 1.356 . S
C1272 C1274 1.358 . S
C1272 H1313 0.930 . S
C1273 C1271 1.353 . S
C1273 N1275 1.314 . S
C1273 H1314 0.930 . S
C1274 C1272 1.358 . S
C1274 N1275 1.279 . S
C1274 H1315 0.930 . S
N1275 C1273 1.314 . S
N1275 C1274 1.279 . S
C1276 C1278 1.353 . S
C1276 N1279 1.314 . S
C1276 H1282 0.930 . S
C1277 N1279 1.279 . S
C1277 C1280 1.358 . S
C1277 H1283 0.930 . S
C1278 C1276 1.353 . S
C1278 C1281 1.348 . S
C1278 H1316 0.929 . S
N1279 Li1234 1.990 . S
N1279 C1276 1.314 . S
N1279 C1277 1.279 . S
C1280 C1277 1.358 . S
C1280 C1281 1.356 . S
C1280 H1317 0.930 . S
C1281 C1278 1.348 . S
C1281 C1280 1.356 . S
H1282 C1276 0.930 . S
H1283 C1277 0.930 . S
C1284 N1285 1.314 . S
C1284 C1286 1.353 . S
C1284 H1290 0.930 . S
N1285 Li1235 1.990 . S
N1285 C1284 1.314 . S
N1285 C1288 1.279 . S
C1286 C1284 1.353 . S
C1286 C1289 1.348 . S
C1286 H1318 0.929 . S
C1287 C1288 1.358 . S
C1287 C1289 1.356 . S
C1287 H1319 0.930 . S
C1288 N1285 1.279 . S
C1288 C1287 1.358 . S
C1288 H1291 0.930 . S
C1289 C1286 1.348 . S
C1289 C1287 1.356 . S
H1290 C1284 0.930 . S
H1291 C1288 0.930 . S
O1292 Li1232 1.956 . S
O1292 Li1233 1.970 . S
O1292 Li1234 1.961 . S
O1292 C1236 1.325 . S
O1293 Li1232 1.970 . S
O1293 Li1233 1.956 . S
O1293 Li1235 1.961 . S
O1293 C1242 1.325 . S
O1294 Li1232 1.961 . S
O1294 Li1234 1.956 . S
O1294 Li1235 1.970 . S
O1294 C1264 1.325 . S
O1295 Li1233 1.961 . S
O1295 Li1234 1.970 . S
O1295 Li1235 1.956 . S
O1295 C1270 1.325 . S
H1296 C1238 0.929 . S
H1297 C1239 0.930 . S
H1298 C1240 0.930 . S
H1299 C1241 0.930 . S
H1300 C1243 0.930 . S
H1301 C1245 0.929 . S
H1302 C1246 0.930 . S
H1303 C1247 0.930 . S
H1304 C1250 0.930 . S
H1305 C1253 0.929 . S
H1306 C1258 0.929 . S
H1307 C1259 0.930 . S
H1308 C1266 0.929 . S
H1309 C1267 0.930 . S
H1310 C1268 0.930 . S
H1311 C1269 0.930 . S
H1312 C1271 0.929 . S
H1313 C1272 0.930 . S
H1314 C1273 0.930 . S
H1315 C1274 0.930 . S
H1316 C1278 0.929 . S
H1317 C1280 0.930 . S
H1318 C1286 0.929 . S
H1319 C1287 0.930 . S
Li1320 N1337 1.990 . S
Li1320 O1380 1.956 . S
Li1320 O1381 1.970 . S
Li1320 O1382 1.961 . S
Li1321 N1345 1.990 . S
Li1321 O1380 1.970 . S
Li1321 O1381 1.956 . S
Li1321 O1383 1.961 . S
Li1322 N1367 1.990 . S
Li1322 O1380 1.961 . S
Li1322 O1382 1.956 . S
Li1322 O1383 1.970 . S
Li1323 N1373 1.990 . S
Li1323 O1381 1.961 . S
Li1323 O1382 1.970 . S
Li1323 O1383 1.956 . S
C1324 C1326 1.348 . S
C1324 C1327 1.356 . S
C1324 O1380 1.325 . S
N1325 C1328 1.314 . S
N1325 C1329 1.279 . S
C1326 C1324 1.348 . S
C1326 C1328 1.353 . S
C1326 H1384 0.929 . S
C1327 C1324 1.356 . S
C1327 C1329 1.358 . S
C1327 H1385 0.930 . S
C1328 N1325 1.314 . S
C1328 C1326 1.353 . S
C1328 H1386 0.930 . S
C1329 N1325 1.279 . S
C1329 C1327 1.358 . S
C1329 H1387 0.930 . S
C1330 C1333 1.348 . S
C1330 C1334 1.356 . S
C1330 O1381 1.325 . S
C1331 N1332 1.279 . S
C1331 C1334 1.358 . S
C1331 H1388 0.930 . S
N1332 C1331 1.279 . S
N1332 C1335 1.314 . S
C1333 C1330 1.348 . S
C1333 C1335 1.353 . S
C1333 H1389 0.929 . S
C1334 C1330 1.356 . S
C1334 C1331 1.358 . S
C1334 H1390 0.930 . S
C1335 N1332 1.314 . S
C1335 C1333 1.353 . S
C1335 H1391 0.930 . S
C1336 N1337 1.314 . S
C1336 C1341 1.353 . S
C1336 H1342 0.930 . S
N1337 Li1320 1.990 . S
N1337 C1336 1.314 . S
N1337 C1339 1.279 . S
C1338 C1339 1.358 . S
C1338 C1340 1.356 . S
C1338 H1392 0.930 . S
C1339 N1337 1.279 . S
C1339 C1338 1.358 . S
C1339 H1343 0.930 . S
C1340 C1338 1.356 . S
C1340 C1341 1.348 . S
C1341 C1336 1.353 . S
C1341 C1340 1.348 . S
C1341 H1393 0.929 . S
H1342 C1336 0.930 . S
H1343 C1339 0.930 . S
C1344 N1345 1.314 . S
C1344 C1346 1.353 . S
C1344 H1350 0.930 . S
N1345 Li1321 1.990 . S
N1345 C1344 1.314 . S
N1345 C1348 1.279 . S
C1346 C1344 1.353 . S
C1346 C1349 1.348 . S
C1346 H1394 0.929 . S
C1347 C1348 1.358 . S
C1347 C1349 1.356 . S
C1347 H1395 0.930 . S
C1348 N1345 1.279 . S
C1348 C1347 1.358 . S
C1348 H1351 0.930 . S
C1349 C1346 1.348 . S
C1349 C1347 1.356 . S
H1350 C1344 0.930 . S
H1351 C1348 0.930 . S
C1352 C1354 1.348 . S
C1352 C1355 1.356 . S
C1352 O1382 1.325 . S
N1353 C1356 1.314 . S
N1353 C1357 1.279 . S
C1354 C1352 1.348 . S
C1354 C1356 1.353 . S
C1354 H1396 0.929 . S
C1355 C1352 1.356 . S
C1355 C1357 1.358 . S
C1355 H1397 0.930 . S
C1356 N1353 1.314 . S
C1356 C1354 1.353 . S
C1356 H1398 0.930 . S
C1357 N1353 1.279 . S
C1357 C1355 1.358 . S
C1357 H1399 0.930 . S
C1358 C1359 1.348 . S
C1358 C1360 1.356 . S
C1358 O1383 1.325 . S
C1359 C1358 1.348 . S
C1359 C1361 1.353 . S
C1359 H1400 0.929 . S
C1360 C1358 1.356 . S
C1360 C1362 1.358 . S
C1360 H1401 0.930 . S
C1361 C1359 1.353 . S
C1361 N1363 1.314 . S
C1361 H1402 0.930 . S
C1362 C1360 1.358 . S
C1362 N1363 1.279 . S
C1362 H1403 0.930 . S
N1363 C1361 1.314 . S
N1363 C1362 1.279 . S
C1364 C1366 1.353 . S
C1364 N1367 1.314 . S
C1364 H1370 0.930 . S
C1365 N1367 1.279 . S
C1365 C1368 1.358 . S
C1365 H1371 0.930 . S
C1366 C1364 1.353 . S
C1366 C1369 1.348 . S
C1366 H1404 0.929 . S
N1367 Li1322 1.990 . S
N1367 C1364 1.314 . S
N1367 C1365 1.279 . S
C1368 C1365 1.358 . S
C1368 C1369 1.356 . S
C1368 H1405 0.930 . S
C1369 C1366 1.348 . S
C1369 C1368 1.356 . S
H1370 C1364 0.930 . S
H1371 C1365 0.930 . S
C1372 N1373 1.314 . S
C1372 C1374 1.353 . S
C1372 H1378 0.930 . S
N1373 Li1323 1.990 . S
N1373 C1372 1.314 . S
N1373 C1376 1.279 . S
C1374 C1372 1.353 . S
C1374 C1377 1.348 . S
C1374 H1406 0.929 . S
C1375 C1376 1.358 . S
C1375 C1377 1.356 . S
C1375 H1407 0.930 . S
C1376 N1373 1.279 . S
C1376 C1375 1.358 . S
C1376 H1379 0.930 . S
C1377 C1374 1.348 . S
C1377 C1375 1.356 . S
H1378 C1372 0.930 . S
H1379 C1376 0.930 . S
O1380 Li1320 1.956 . S
O1380 Li1321 1.970 . S
O1380 Li1322 1.961 . S
O1380 C1324 1.325 . S
O1381 Li1320 1.970 . S
O1381 Li1321 1.956 . S
O1381 Li1323 1.961 . S
O1381 C1330 1.325 . S
O1382 Li1320 1.961 . S
O1382 Li1322 1.956 . S
O1382 Li1323 1.970 . S
O1382 C1352 1.325 . S
O1383 Li1321 1.961 . S
O1383 Li1322 1.970 . S
O1383 Li1323 1.956 . S
O1383 C1358 1.325 . S
H1384 C1326 0.929 . S
H1385 C1327 0.930 . S
H1386 C1328 0.930 . S
H1387 C1329 0.930 . S
H1388 C1331 0.930 . S
H1389 C1333 0.929 . S
H1390 C1334 0.930 . S
H1391 C1335 0.930 . S
H1392 C1338 0.930 . S
H1393 C1341 0.929 . S
H1394 C1346 0.929 . S
H1395 C1347 0.930 . S
H1396 C1354 0.929 . S
H1397 C1355 0.930 . S
H1398 C1356 0.930 . S
H1399 C1357 0.930 . S
H1400 C1359 0.929 . S
H1401 C1360 0.930 . S
H1402 C1361 0.930 . S
H1403 C1362 0.930 . S
H1404 C1366 0.929 . S
H1405 C1368 0.930 . S
H1406 C1374 0.929 . S
H1407 C1375 0.930 . S
Li1408 N1425 1.990 . S
Li1408 O1468 1.956 . S
Li1408 O1469 1.970 . S
Li1408 O1470 1.961 . S
Li1409 N1433 1.990 . S
Li1409 O1468 1.970 . S
Li1409 O1469 1.956 . S
Li1409 O1471 1.961 . S
Li1410 N1455 1.990 . S
Li1410 O1468 1.961 . S
Li1410 O1470 1.956 . S
Li1410 O1471 1.970 . S
Li1411 N1461 1.990 . S
Li1411 O1469 1.961 . S
Li1411 O1470 1.970 . S
Li1411 O1471 1.956 . S
C1412 C1414 1.348 . S
C1412 C1415 1.356 . S
C1412 O1468 1.325 . S
N1413 C1416 1.314 . S
N1413 C1417 1.279 1_565 S
C1414 C1412 1.348 . S
C1414 C1416 1.353 1_545 S
C1414 H1472 0.929 . S
C1415 C1412 1.356 . S
C1415 C1417 1.358 . S
C1415 H1473 0.930 . S
C1416 N1413 1.314 . S
C1416 C1414 1.353 1_565 S
C1416 H1474 0.930 . S
C1417 N1413 1.279 1_545 S
C1417 C1415 1.358 . S
C1417 H1475 0.930 . S
C1418 C1421 1.348 . S
C1418 C1422 1.356 . S
C1418 O1469 1.325 . S
C1419 N1420 1.279 . S
C1419 C1422 1.358 . S
C1419 H1476 0.930 . S
N1420 C1419 1.279 . S
N1420 C1423 1.314 . S
C1421 C1418 1.348 . S
C1421 C1423 1.353 . S
C1421 H1477 0.929 . S
C1422 C1418 1.356 . S
C1422 C1419 1.358 . S
C1422 H1478 0.930 . S
C1423 N1420 1.314 . S
C1423 C1421 1.353 . S
C1423 H1479 0.930 . S
C1424 N1425 1.314 . S
C1424 C1429 1.353 . S
C1424 H1430 0.930 . S
N1425 Li1408 1.990 . S
N1425 C1424 1.314 . S
N1425 C1427 1.279 . S
C1426 C1427 1.358 . S
C1426 C1428 1.356 . S
C1426 H1480 0.930 . S
C1427 N1425 1.279 . S
C1427 C1426 1.358 . S
C1427 H1431 0.930 . S
C1428 C1426 1.356 . S
C1428 C1429 1.348 . S
C1429 C1424 1.353 . S
C1429 C1428 1.348 . S
C1429 H1481 0.929 . S
H1430 C1424 0.930 . S
H1431 C1427 0.930 . S
C1432 N1433 1.291 1_565 S
C1432 C1434 1.392 . S
C1432 H1438 0.915 1_565 S
N1433 Li1409 1.990 . S
N1433 C1432 1.291 1_545 S
N1433 C1436 1.279 . S
C1434 C1432 1.392 . S
C1434 C1437 1.348 . S
C1434 H1482 0.929 . S
C1435 C1436 1.358 1_565 S
C1435 C1437 1.356 . S
C1435 H1483 0.930 . S
C1436 N1433 1.279 . S
C1436 C1435 1.358 1_545 S
C1436 H1439 0.930 . S
C1437 C1434 1.348 . S
C1437 C1435 1.356 . S
H1438 C1432 0.915 1_545 S
H1439 C1436 0.930 . S
C1440 C1442 1.348 . S
C1440 C1443 1.356 . S
C1440 O1470 1.325 . S
N1441 C1444 1.314 . S
N1441 C1445 1.279 . S
C1442 C1440 1.348 . S
C1442 C1444 1.353 . S
C1442 H1484 0.929 . S
C1443 C1440 1.356 . S
C1443 C1445 1.358 . S
C1443 H1485 0.930 . S
C1444 N1441 1.314 . S
C1444 C1442 1.353 . S
C1444 H1486 0.930 . S
C1445 N1441 1.279 . S
C1445 C1443 1.358 . S
C1445 H1487 0.936 1_655 S
C1446 C1447 1.348 . S
C1446 C1448 1.356 . S
C1446 O1471 1.325 . S
C1447 C1446 1.348 . S
C1447 C1449 1.353 . S
C1447 H1488 0.929 . S
C1448 C1446 1.356 . S
C1448 C1450 1.358 . S
C1448 H1489 0.930 . S
C1449 C1447 1.353 . S
C1449 N1451 1.314 . S
C1449 H1490 0.930 . S
C1450 C1448 1.358 . S
C1450 N1451 1.279 . S
C1450 H1491 0.930 . S
N1451 C1449 1.314 . S
N1451 C1450 1.279 . S
C1452 C1454 1.353 . S
C1452 N1455 1.314 . S
C1452 H1458 0.930 . S
C1453 N1455 1.279 . S
C1453 C1456 1.358 . S
C1453 H1459 0.930 . S
C1454 C1452 1.353 . S
C1454 C1457 1.348 . S
C1454 H1492 0.929 . S
N1455 Li1410 1.990 . S
N1455 C1452 1.314 . S
N1455 C1453 1.279 . S
C1456 C1453 1.358 . S
C1456 C1457 1.356 . S
C1456 H1493 0.930 . S
C1457 C1454 1.348 . S
C1457 C1456 1.356 . S
H1458 C1452 0.930 . S
H1459 C1453 0.930 . S
C1460 N1461 1.314 . S
C1460 C1462 1.353 . S
C1460 H1466 0.930 . S
N1461 Li1411 1.990 . S
N1461 C1460 1.314 . S
N1461 C1464 1.279 . S
C1462 C1460 1.353 . S
C1462 C1465 1.348 . S
C1462 H1494 0.929 . S
C1463 C1464 1.358 . S
C1463 C1465 1.356 . S
C1463 H1495 0.930 . S
C1464 N1461 1.279 . S
C1464 C1463 1.358 . S
C1464 H1467 0.930 . S
C1465 C1462 1.348 . S
C1465 C1463 1.356 . S
H1466 C1460 0.930 . S
H1467 C1464 0.930 . S
O1468 Li1408 1.956 . S
O1468 Li1409 1.970 . S
O1468 Li1410 1.961 . S
O1468 C1412 1.325 . S
O1469 Li1408 1.970 . S
O1469 Li1409 1.956 . S
O1469 Li1411 1.961 . S
O1469 C1418 1.325 . S
O1470 Li1408 1.961 . S
O1470 Li1410 1.956 . S
O1470 Li1411 1.970 . S
O1470 C1440 1.325 . S
O1471 Li1409 1.961 . S
O1471 Li1410 1.970 . S
O1471 Li1411 1.956 . S
O1471 C1446 1.325 . S
H1472 C1414 0.929 . S
H1473 C1415 0.930 . S
H1474 C1416 0.930 . S
H1475 C1417 0.930 . S
H1476 C1419 0.930 . S
H1477 C1421 0.929 . S
H1478 C1422 0.930 . S
H1479 C1423 0.930 . S
H1480 C1426 0.930 . S
H1481 C1429 0.929 . S
H1482 C1434 0.929 . S
H1483 C1435 0.930 . S
H1484 C1442 0.929 . S
H1485 C1443 0.930 . S
H1486 C1444 0.930 . S
H1487 C1445 0.936 1_455 S
H1488 C1447 0.929 . S
H1489 C1448 0.930 . S
H1490 C1449 0.930 . S
H1491 C1450 0.930 . S
H1492 C1454 0.929 . S
H1493 C1456 0.930 . S
H1494 C1462 0.929 . S
H1495 C1463 0.930 . S
Li1496 N1513 1.990 . S
Li1496 O1556 1.956 . S
Li1496 O1557 1.970 . S
Li1496 O1558 1.961 . S
Li1497 N1521 1.990 . S
Li1497 O1556 1.970 . S
Li1497 O1557 1.956 . S
Li1497 O1559 1.961 . S
Li1498 N1543 1.990 . S
Li1498 O1556 1.961 . S
Li1498 O1558 1.956 . S
Li1498 O1559 1.970 . S
Li1499 N1549 1.990 . S
Li1499 O1557 1.961 . S
Li1499 O1558 1.970 . S
Li1499 O1559 1.956 . S
C1500 C1502 1.348 . S
C1500 C1503 1.356 . S
C1500 O1556 1.325 . S
N1501 C1504 1.314 . S
N1501 C1505 1.279 . S
C1502 C1500 1.348 . S
C1502 C1504 1.353 . S
C1502 H1560 0.929 . S
C1503 C1500 1.356 . S
C1503 C1505 1.358 . S
C1503 H1561 0.930 . S
C1504 N1501 1.314 . S
C1504 C1502 1.353 . S
C1504 H1562 0.930 . S
C1505 N1501 1.279 . S
C1505 C1503 1.358 . S
C1505 H1563 0.930 . S
C1506 C1509 1.348 . S
C1506 C1510 1.356 . S
C1506 O1557 1.325 . S
C1507 N1508 1.279 . S
C1507 C1510 1.358 . S
C1507 H1564 0.930 . S
N1508 C1507 1.279 . S
N1508 C1511 1.314 . S
C1509 C1506 1.348 . S
C1509 C1511 1.353 . S
C1509 H1565 0.929 . S
C1510 C1506 1.356 . S
C1510 C1507 1.358 . S
C1510 H1566 0.930 . S
C1511 N1508 1.314 . S
C1511 C1509 1.353 . S
C1511 H1567 0.930 . S
C1512 N1513 1.314 . S
C1512 C1517 1.353 . S
C1512 H1518 0.930 . S
N1513 Li1496 1.990 . S
N1513 C1512 1.314 . S
N1513 C1515 1.279 . S
C1514 C1515 1.358 . S
C1514 C1516 1.356 . S
C1514 H1568 0.930 . S
C1515 N1513 1.279 . S
C1515 C1514 1.358 . S
C1515 H1519 0.930 . S
C1516 C1514 1.356 . S
C1516 C1517 1.348 . S
C1517 C1512 1.353 . S
C1517 C1516 1.348 . S
C1517 H1569 0.929 . S
H1518 C1512 0.930 . S
H1519 C1515 0.930 . S
C1520 N1521 1.314 . S
C1520 C1522 1.353 . S
C1520 H1526 0.930 . S
N1521 Li1497 1.990 . S
N1521 C1520 1.314 . S
N1521 C1524 1.279 . S
C1522 C1520 1.353 . S
C1522 C1525 1.348 . S
C1522 H1570 0.929 . S
C1523 C1524 1.358 . S
C1523 C1525 1.356 . S
C1523 H1571 0.930 . S
C1524 N1521 1.279 . S
C1524 C1523 1.358 . S
C1524 H1527 0.930 . S
C1525 C1522 1.348 . S
C1525 C1523 1.356 . S
H1526 C1520 0.930 . S
H1527 C1524 0.930 . S
C1528 C1530 1.348 . S
C1528 C1531 1.356 . S
C1528 O1558 1.325 . S
N1529 C1532 1.314 . S
N1529 C1533 1.279 . S
C1530 C1528 1.348 . S
C1530 C1532 1.353 . S
C1530 H1572 0.929 . S
C1531 C1528 1.356 . S
C1531 C1533 1.358 . S
C1531 H1573 0.930 . S
C1532 N1529 1.314 . S
C1532 C1530 1.353 . S
C1532 H1574 0.930 . S
C1533 N1529 1.279 . S
C1533 C1531 1.358 . S
C1533 H1575 0.930 . S
C1534 C1535 1.348 . S
C1534 C1536 1.356 . S
C1534 O1559 1.325 . S
C1535 C1534 1.348 . S
C1535 C1537 1.353 . S
C1535 H1576 0.929 . S
C1536 C1534 1.356 . S
C1536 C1538 1.358 . S
C1536 H1577 0.930 . S
C1537 C1535 1.353 . S
C1537 N1539 1.314 . S
C1537 H1578 0.930 . S
C1538 C1536 1.358 . S
C1538 N1539 1.279 . S
C1538 H1579 0.930 . S
N1539 C1537 1.314 . S
N1539 C1538 1.279 . S
C1540 C1542 1.353 . S
C1540 N1543 1.314 . S
C1540 H1546 0.930 . S
C1541 N1543 1.279 . S
C1541 C1544 1.358 . S
C1541 H1547 0.930 . S
C1542 C1540 1.353 . S
C1542 C1545 1.348 . S
C1542 H1580 0.929 . S
N1543 Li1498 1.990 . S
N1543 C1540 1.314 . S
N1543 C1541 1.279 . S
C1544 C1541 1.358 . S
C1544 C1545 1.356 . S
C1544 H1581 0.930 . S
C1545 C1542 1.348 . S
C1545 C1544 1.356 . S
H1546 C1540 0.930 . S
H1547 C1541 0.930 . S
C1548 N1549 1.314 . S
C1548 C1550 1.353 . S
C1548 H1554 0.930 . S
N1549 Li1499 1.990 . S
N1549 C1548 1.314 . S
N1549 C1552 1.279 . S
C1550 C1548 1.353 . S
C1550 C1553 1.348 . S
C1550 H1582 0.929 . S
C1551 C1552 1.358 . S
C1551 C1553 1.356 . S
C1551 H1583 0.930 . S
C1552 N1549 1.279 . S
C1552 C1551 1.358 . S
C1552 H1555 0.930 . S
C1553 C1550 1.348 . S
C1553 C1551 1.356 . S
H1554 C1548 0.930 . S
H1555 C1552 0.930 . S
O1556 Li1496 1.956 . S
O1556 Li1497 1.970 . S
O1556 Li1498 1.961 . S
O1556 C1500 1.325 . S
O1557 Li1496 1.970 . S
O1557 Li1497 1.956 . S
O1557 Li1499 1.961 . S
O1557 C1506 1.325 . S
O1558 Li1496 1.961 . S
O1558 Li1498 1.956 . S
O1558 Li1499 1.970 . S
O1558 C1528 1.325 . S
O1559 Li1497 1.961 . S
O1559 Li1498 1.970 . S
O1559 Li1499 1.956 . S
O1559 C1534 1.325 . S
H1560 C1502 0.929 . S
H1561 C1503 0.930 . S
H1562 C1504 0.930 . S
H1563 C1505 0.930 . S
H1564 C1507 0.930 . S
H1565 C1509 0.929 . S
H1566 C1510 0.930 . S
H1567 C1511 0.930 . S
H1568 C1514 0.930 . S
H1569 C1517 0.929 . S
H1570 C1522 0.929 . S
H1571 C1523 0.930 . S
H1572 C1530 0.929 . S
H1573 C1531 0.930 . S
H1574 C1532 0.930 . S
H1575 C1533 0.930 . S
H1576 C1535 0.929 . S
H1577 C1536 0.930 . S
H1578 C1537 0.930 . S
H1579 C1538 0.930 . S
H1580 C1542 0.929 . S
H1581 C1544 0.930 . S
H1582 C1550 0.929 . S
H1583 C1551 0.930 . S
Li1584 N1601 1.990 . S
Li1584 O1644 1.956 . S
Li1584 O1645 1.970 . S
Li1584 O1646 1.961 . S
Li1585 N1609 1.990 . S
Li1585 O1644 1.970 . S
Li1585 O1645 1.956 . S
Li1585 O1647 1.961 . S
Li1586 N1631 1.990 . S
Li1586 O1644 1.961 . S
Li1586 O1646 1.956 . S
Li1586 O1647 1.970 . S
Li1587 N1637 1.990 . S
Li1587 O1645 1.961 . S
Li1587 O1646 1.970 . S
Li1587 O1647 1.956 . S
C1588 C1590 1.348 . S
C1588 C1591 1.356 . S
C1588 O1644 1.325 . S
N1589 C1592 1.314 . S
N1589 C1593 1.279 . S
C1590 C1588 1.348 . S
C1590 C1592 1.353 . S
C1590 H1648 0.929 . S
C1591 C1588 1.356 . S
C1591 C1593 1.358 . S
C1591 H1649 0.930 . S
C1592 N1589 1.314 . S
C1592 C1590 1.353 . S
C1592 H1650 0.930 . S
C1593 N1589 1.279 . S
C1593 C1591 1.358 . S
C1593 H1651 0.930 . S
C1594 C1597 1.348 . S
C1594 C1598 1.356 . S
C1594 O1645 1.325 . S
C1595 N1596 1.279 . S
C1595 C1598 1.358 . S
C1595 H1652 0.930 . S
N1596 C1595 1.279 . S
N1596 C1599 1.314 . S
C1597 C1594 1.348 . S
C1597 C1599 1.353 . S
C1597 H1653 0.929 . S
C1598 C1594 1.356 . S
C1598 C1595 1.358 . S
C1598 H1654 0.930 . S
C1599 N1596 1.314 . S
C1599 C1597 1.353 . S
C1599 H1655 0.930 . S
C1600 N1601 1.314 . S
C1600 C1605 1.353 . S
C1600 H1606 0.930 . S
N1601 Li1584 1.990 . S
N1601 C1600 1.314 . S
N1601 C1603 1.279 . S
C1602 C1603 1.358 . S
C1602 C1604 1.356 . S
C1602 H1656 0.930 . S
C1603 N1601 1.279 . S
C1603 C1602 1.358 . S
C1603 H1607 0.930 . S
C1604 C1602 1.356 . S
C1604 C1605 1.348 . S
C1605 C1600 1.353 . S
C1605 C1604 1.348 . S
C1605 H1657 0.929 . S
H1606 C1600 0.930 . S
H1607 C1603 0.930 . S
C1608 N1609 1.314 . S
C1608 C1610 1.353 . S
C1608 H1614 0.930 . S
N1609 Li1585 1.990 . S
N1609 C1608 1.314 . S
N1609 C1612 1.279 . S
C1610 C1608 1.353 . S
C1610 C1613 1.348 . S
C1610 H1658 0.929 . S
C1611 C1612 1.358 . S
C1611 C1613 1.356 . S
C1611 H1659 0.930 . S
C1612 N1609 1.279 . S
C1612 C1611 1.358 . S
C1612 H1615 0.930 . S
C1613 C1610 1.348 . S
C1613 C1611 1.356 . S
H1614 C1608 0.930 . S
H1615 C1612 0.930 . S
C1616 C1618 1.348 . S
C1616 C1619 1.356 . S
C1616 O1646 1.325 . S
N1617 C1620 1.314 . S
N1617 C1621 1.279 . S
C1618 C1616 1.348 . S
C1618 C1620 1.353 . S
C1618 H1660 0.929 . S
C1619 C1616 1.356 . S
C1619 C1621 1.358 . S
C1619 H1661 0.930 . S
C1620 N1617 1.314 . S
C1620 C1618 1.353 . S
C1620 H1662 0.930 . S
C1621 N1617 1.279 . S
C1621 C1619 1.358 . S
C1621 H1663 0.930 . S
C1622 C1623 1.348 . S
C1622 C1624 1.356 . S
C1622 O1647 1.325 . S
C1623 C1622 1.348 . S
C1623 C1625 1.353 . S
C1623 H1664 0.929 . S
C1624 C1622 1.356 . S
C1624 C1626 1.358 . S
C1624 H1665 0.930 . S
C1625 C1623 1.353 . S
C1625 N1627 1.314 . S
C1625 H1666 0.930 . S
C1626 C1624 1.358 . S
C1626 N1627 1.279 . S
C1626 H1667 0.930 . S
N1627 C1625 1.314 . S
N1627 C1626 1.279 . S
C1628 C1630 1.353 . S
C1628 N1631 1.314 . S
C1628 H1634 0.930 . S
C1629 N1631 1.279 . S
C1629 C1632 1.358 . S
C1629 H1635 0.930 . S
C1630 C1628 1.353 . S
C1630 C1633 1.348 . S
C1630 H1668 0.929 . S
N1631 Li1586 1.990 . S
N1631 C1628 1.314 . S
N1631 C1629 1.279 . S
C1632 C1629 1.358 . S
C1632 C1633 1.356 . S
C1632 H1669 0.930 . S
C1633 C1630 1.348 . S
C1633 C1632 1.356 . S
H1634 C1628 0.930 . S
H1635 C1629 0.930 . S
C1636 N1637 1.314 . S
C1636 C1638 1.353 . S
C1636 H1642 0.930 . S
N1637 Li1587 1.990 . S
N1637 C1636 1.314 . S
N1637 C1640 1.279 . S
C1638 C1636 1.353 . S
C1638 C1641 1.348 . S
C1638 H1670 0.929 . S
C1639 C1640 1.358 . S
C1639 C1641 1.356 . S
C1639 H1671 0.930 . S
C1640 N1637 1.279 . S
C1640 C1639 1.358 . S
C1640 H1643 0.930 . S
C1641 C1638 1.348 . S
C1641 C1639 1.356 . S
H1642 C1636 0.930 . S
H1643 C1640 0.930 . S
O1644 Li1584 1.956 . S
O1644 Li1585 1.970 . S
O1644 Li1586 1.961 . S
O1644 C1588 1.325 . S
O1645 Li1584 1.970 . S
O1645 Li1585 1.956 . S
O1645 Li1587 1.961 . S
O1645 C1594 1.325 . S
O1646 Li1584 1.961 . S
O1646 Li1586 1.956 . S
O1646 Li1587 1.970 . S
O1646 C1616 1.325 . S
O1647 Li1585 1.961 . S
O1647 Li1586 1.970 . S
O1647 Li1587 1.956 . S
O1647 C1622 1.325 . S
H1648 C1590 0.929 . S
H1649 C1591 0.930 . S
H1650 C1592 0.930 . S
H1651 C1593 0.930 . S
H1652 C1595 0.930 . S
H1653 C1597 0.929 . S
H1654 C1598 0.930 . S
H1655 C1599 0.930 . S
H1656 C1602 0.930 . S
H1657 C1605 0.929 . S
H1658 C1610 0.929 . S
H1659 C1611 0.930 . S
H1660 C1618 0.929 . S
H1661 C1619 0.930 . S
H1662 C1620 0.930 . S
H1663 C1621 0.930 . S
H1664 C1623 0.929 . S
H1665 C1624 0.930 . S
H1666 C1625 0.930 . S
H1667 C1626 0.930 . S
H1668 C1630 0.929 . S
H1669 C1632 0.930 . S
H1670 C1638 0.929 . S
H1671 C1639 0.930 . S
Li1672 N1689 1.990 . S
Li1672 O1732 1.956 . S
Li1672 O1733 1.970 . S
Li1672 O1734 1.961 . S
Li1673 N1697 1.990 . S
Li1673 O1732 1.970 . S
Li1673 O1733 1.956 . S
Li1673 O1735 1.961 . S
Li1674 N1719 1.990 . S
Li1674 O1732 1.961 . S
Li1674 O1734 1.956 . S
Li1674 O1735 1.970 . S
Li1675 N1725 1.990 . S
Li1675 O1733 1.961 . S
Li1675 O1734 1.970 . S
Li1675 O1735 1.956 . S
C1676 C1678 1.348 . S
C1676 C1679 1.356 . S
C1676 O1732 1.325 . S
N1677 C1680 1.314 . S
N1677 C1681 1.279 . S
C1678 C1676 1.348 . S
C1678 C1680 1.353 . S
C1678 H1736 0.929 . S
C1679 C1676 1.356 . S
C1679 C1681 1.358 . S
C1679 H1737 0.930 . S
C1680 N1677 1.314 . S
C1680 C1678 1.353 . S
C1680 H1738 0.930 . S
C1681 N1677 1.279 . S
C1681 C1679 1.358 . S
C1681 H1739 0.930 . S
C1682 C1685 1.348 . S
C1682 C1686 1.356 . S
C1682 O1733 1.325 . S
C1683 N1684 1.279 . S
C1683 C1686 1.358 . S
C1683 H1740 0.930 . S
N1684 C1683 1.279 . S
N1684 C1687 1.314 . S
C1685 C1682 1.348 . S
C1685 C1687 1.353 . S
C1685 H1741 0.929 . S
C1686 C1682 1.356 . S
C1686 C1683 1.358 . S
C1686 H1742 0.930 . S
C1687 N1684 1.314 . S
C1687 C1685 1.353 . S
C1687 H1743 0.930 . S
C1688 N1689 1.314 . S
C1688 C1693 1.353 . S
C1688 H1694 0.930 . S
N1689 Li1672 1.990 . S
N1689 C1688 1.314 . S
N1689 C1691 1.279 . S
C1690 C1691 1.358 . S
C1690 C1692 1.356 . S
C1690 H1744 0.930 . S
C1691 N1689 1.279 . S
C1691 C1690 1.358 . S
C1691 H1695 0.930 . S
C1692 C1690 1.356 . S
C1692 C1693 1.348 . S
C1693 C1688 1.353 . S
C1693 C1692 1.348 . S
C1693 H1745 0.929 . S
H1694 C1688 0.930 . S
H1695 C1691 0.930 . S
C1696 N1697 1.314 . S
C1696 C1698 1.353 . S
C1696 H1702 0.930 . S
N1697 Li1673 1.990 . S
N1697 C1696 1.314 . S
N1697 C1700 1.279 . S
C1698 C1696 1.353 . S
C1698 C1701 1.348 . S
C1698 H1746 0.929 . S
C1699 C1700 1.358 . S
C1699 C1701 1.356 . S
C1699 H1747 0.930 . S
C1700 N1697 1.279 . S
C1700 C1699 1.358 . S
C1700 H1703 0.930 . S
C1701 C1698 1.348 . S
C1701 C1699 1.356 . S
H1702 C1696 0.930 . S
H1703 C1700 0.930 . S
C1704 C1706 1.348 1_545 S
C1704 C1707 1.356 . S
C1704 O1734 1.325 . S
N1705 C1708 1.314 . S
N1705 C1709 1.279 . S
C1706 C1704 1.348 1_565 S
C1706 C1708 1.353 . S
C1706 H1748 0.929 . S
C1707 C1704 1.356 . S
C1707 C1709 1.358 1_545 S
C1707 H1749 0.930 . S
C1708 N1705 1.314 . S
C1708 C1706 1.353 . S
C1708 H1750 0.930 . S
C1709 N1705 1.279 . S
C1709 C1707 1.358 1_565 S
C1709 H1751 0.930 . S
C1710 C1711 1.348 . S
C1710 C1712 1.356 . S
C1710 O1735 1.325 . S
C1711 C1710 1.348 . S
C1711 C1713 1.353 . S
C1711 H1752 0.929 . S
C1712 C1710 1.356 . S
C1712 C1714 1.358 . S
C1712 H1753 0.930 . S
C1713 C1711 1.353 . S
C1713 N1715 1.314 . S
C1713 H1754 0.930 . S
C1714 C1712 1.358 . S
C1714 N1715 1.279 . S
C1714 H1755 0.930 . S
N1715 C1713 1.314 . S
N1715 C1714 1.279 . S
C1716 C1718 1.353 . S
C1716 N1719 1.314 . S
C1716 H1722 0.930 . S
C1717 N1719 1.279 . S
C1717 C1720 1.358 . S
C1717 H1723 0.930 . S
C1718 C1716 1.353 . S
C1718 C1721 1.348 . S
C1718 H1756 0.929 . S
N1719 Li1674 1.990 . S
N1719 C1716 1.314 . S
N1719 C1717 1.279 . S
C1720 C1717 1.358 . S
C1720 C1721 1.356 . S
C1720 H1757 0.930 . S
C1721 C1718 1.348 . S
C1721 C1720 1.356 . S
H1722 C1716 0.930 . S
H1723 C1717 0.930 . S
C1724 N1725 1.314 . S
C1724 C1726 1.353 1_545 S
C1724 H1730 0.930 . S
N1725 Li1675 1.990 . S
N1725 C1724 1.314 . S
N1725 C1728 1.279 . S
C1726 C1724 1.353 1_565 S
C1726 C1729 1.348 . S
C1726 H1758 0.929 . S
C1727 C1728 1.358 1_565 S
C1727 C1729 1.356 . S
C1727 H1759 0.930 . S
C1728 N1725 1.279 . S
C1728 C1727 1.358 1_545 S
C1728 H1731 0.930 . S
C1729 C1726 1.348 . S
C1729 C1727 1.356 . S
H1730 C1724 0.930 . S
H1731 C1728 0.930 . S
O1732 Li1672 1.956 . S
O1732 Li1673 1.970 . S
O1732 Li1674 1.961 . S
O1732 C1676 1.325 . S
O1733 Li1672 1.970 . S
O1733 Li1673 1.956 . S
O1733 Li1675 1.961 . S
O1733 C1682 1.325 . S
O1734 Li1672 1.961 . S
O1734 Li1674 1.956 . S
O1734 Li1675 1.970 . S
O1734 C1704 1.325 . S
O1735 Li1673 1.961 . S
O1735 Li1674 1.970 . S
O1735 Li1675 1.956 . S
O1735 C1710 1.325 . S
H1736 C1678 0.929 . S
H1737 C1679 0.930 . S
H1738 C1680 0.930 . S
H1739 C1681 0.930 . S
H1740 C1683 0.930 . S
H1741 C1685 0.929 . S
H1742 C1686 0.930 . S
H1743 C1687 0.930 . S
H1744 C1690 0.930 . S
H1745 C1693 0.929 . S
H1746 C1698 0.929 . S
H1747 C1699 0.930 . S
H1748 C1706 0.929 . S
H1749 C1707 0.930 . S
H1750 C1708 0.930 . S
H1751 C1709 0.930 . S
H1752 C1711 0.929 . S
H1753 C1712 0.930 . S
H1754 C1713 0.930 . S
H1755 C1714 0.930 . S
H1756 C1718 0.929 . S
H1757 C1720 0.930 . S
H1758 C1726 0.929 . S
H1759 C1727 0.930 . S
Li1760 N1777 1.990 . S
Li1760 O1820 1.956 . S
Li1760 O1821 1.970 . S
Li1760 O1822 1.961 . S
Li1761 N1785 1.990 . S
Li1761 O1820 1.970 . S
Li1761 O1821 1.956 . S
Li1761 O1823 1.961 1_554 S
Li1762 N1807 1.990 . S
Li1762 O1820 1.961 1_556 S
Li1762 O1822 1.956 1_556 S
Li1762 O1823 1.970 . S
Li1763 N1813 1.990 1_554 S
Li1763 O1821 1.961 . S
Li1763 O1822 1.970 . S
Li1763 O1823 1.956 1_554 S
C1764 C1766 1.348 . S
C1764 C1767 1.356 . S
C1764 O1820 1.325 . S
N1765 C1768 1.314 . S
N1765 C1769 1.279 . S
C1766 C1764 1.348 . S
C1766 C1768 1.353 . S
C1766 H1824 0.929 . S
C1767 C1764 1.356 . S
C1767 C1769 1.358 . S
C1767 H1825 0.930 . S
C1768 N1765 1.314 . S
C1768 C1766 1.353 . S
C1768 H1826 0.930 . S
C1769 N1765 1.279 . S
C1769 C1767 1.358 . S
C1769 H1827 0.930 . S
C1770 C1773 1.348 . S
C1770 C1774 1.356 . S
C1770 O1821 1.325 . S
C1771 N1772 1.279 . S
C1771 C1774 1.358 . S
C1771 H1828 0.930 . S
N1772 C1771 1.279 . S
N1772 C1775 1.314 . S
C1773 C1770 1.348 . S
C1773 C1775 1.353 . S
C1773 H1829 0.929 . S
C1774 C1770 1.356 . S
C1774 C1771 1.358 . S
C1774 H1830 0.930 . S
C1775 N1772 1.314 . S
C1775 C1773 1.353 . S
C1775 H1831 0.930 . S
C1776 N1777 1.314 . S
C1776 C1781 1.353 . S
C1776 H1782 0.930 . S
N1777 Li1760 1.990 . S
N1777 C1776 1.314 . S
N1777 C1779 1.279 . S
C1778 C1779 1.358 . S
C1778 C1780 1.356 . S
C1778 H1832 0.930 . S
C1779 N1777 1.279 . S
C1779 C1778 1.358 . S
C1779 H1783 0.930 . S
C1780 C1778 1.356 . S
C1780 C1781 1.348 . S
C1781 C1776 1.353 . S
C1781 C1780 1.348 . S
C1781 H1833 0.929 . S
H1782 C1776 0.930 . S
H1783 C1779 0.930 . S
C1784 N1785 1.314 1_556 S
C1784 C1786 1.353 . S
C1784 H1790 0.930 . S
N1785 Li1761 1.990 . S
N1785 C1784 1.314 1_554 S
N1785 C1788 1.279 . S
C1786 C1784 1.353 . S
C1786 C1789 1.348 1_556 S
C1786 H1834 0.929 . S
C1787 C1788 1.358 . S
C1787 C1789 1.356 . S
C1787 H1835 0.930 . S
C1788 N1785 1.279 . S
C1788 C1787 1.358 . S
C1788 H1791 0.930 . S
C1789 C1786 1.348 1_554 S
C1789 C1787 1.356 . S
H1790 C1784 0.930 . S
H1791 C1788 0.930 . S
C1792 C1794 1.339 1_554 S
C1792 C1795 1.356 . S
C1792 O1822 1.325 . S
N1793 C1796 1.314 1_554 S
N1793 C1797 1.279 . S
C1794 C1792 1.339 1_556 S
C1794 C1796 1.354 . S
C1794 H1836 0.939 . S
C1795 C1792 1.356 . S
C1795 C1797 1.358 . S
C1795 H1837 0.930 . S
C1796 N1793 1.314 1_556 S
C1796 C1794 1.354 . S
C1796 H1838 0.929 . S
C1797 N1793 1.279 . S
C1797 C1795 1.358 . S
C1797 H1839 0.930 . S
C1798 C1799 1.348 . S
C1798 C1800 1.356 . S
C1798 O1823 1.325 . S
C1799 C1798 1.348 . S
C1799 C1801 1.353 . S
C1799 H1840 0.929 . S
C1800 C1798 1.356 . S
C1800 C1802 1.358 . S
C1800 H1841 0.930 . S
C1801 C1799 1.353 . S
C1801 N1803 1.314 . S
C1801 H1842 0.930 . S
C1802 C1800 1.358 . S
C1802 N1803 1.279 . S
C1802 H1843 0.930 . S
N1803 C1801 1.314 . S
N1803 C1802 1.279 . S
C1804 C1806 1.353 . S
C1804 N1807 1.314 . S
C1804 H1810 0.930 . S
C1805 N1807 1.279 . S
C1805 C1808 1.358 . S
C1805 H1811 0.930 . S
C1806 C1804 1.353 . S
C1806 C1809 1.348 . S
C1806 H1844 0.929 . S
N1807 Li1762 1.990 . S
N1807 C1804 1.314 . S
N1807 C1805 1.279 . S
C1808 C1805 1.358 . S
C1808 C1809 1.356 . S
C1808 H1845 0.930 . S
C1809 C1806 1.348 . S
C1809 C1808 1.356 . S
H1810 C1804 0.930 . S
H1811 C1805 0.930 . S
C1812 N1813 1.314 1_554 S
C1812 C1814 1.353 . S
C1812 H1818 0.930 . S
N1813 Li1763 1.990 1_556 S
N1813 C1812 1.314 1_556 S
N1813 C1816 1.279 . S
C1814 C1812 1.353 . S
C1814 C1817 1.348 1_554 S
C1814 H1846 0.929 . S
C1815 C1816 1.358 . S
C1815 C1817 1.356 . S
C1815 H1847 0.930 . S
C1816 N1813 1.279 . S
C1816 C1815 1.358 . S
C1816 H1819 0.930 . S
C1817 C1814 1.348 1_556 S
C1817 C1815 1.356 . S
H1818 C1812 0.930 . S
H1819 C1816 0.930 . S
O1820 Li1760 1.956 . S
O1820 Li1761 1.970 . S
O1820 Li1762 1.961 1_554 S
O1820 C1764 1.325 . S
O1821 Li1760 1.970 . S
O1821 Li1761 1.956 . S
O1821 Li1763 1.961 . S
O1821 C1770 1.325 . S
O1822 Li1760 1.961 . S
O1822 Li1762 1.956 1_554 S
O1822 Li1763 1.970 . S
O1822 C1792 1.325 . S
O1823 Li1761 1.961 1_556 S
O1823 Li1762 1.970 . S
O1823 Li1763 1.956 1_556 S
O1823 C1798 1.325 . S
H1824 C1766 0.929 . S
H1825 C1767 0.930 . S
H1826 C1768 0.930 . S
H1827 C1769 0.930 . S
H1828 C1771 0.930 . S
H1829 C1773 0.929 . S
H1830 C1774 0.930 . S
H1831 C1775 0.930 . S
H1832 C1778 0.930 . S
H1833 C1781 0.929 . S
H1834 C1786 0.929 . S
H1835 C1787 0.930 . S
H1836 C1794 0.939 . S
H1837 C1795 0.930 . S
H1838 C1796 0.929 . S
H1839 C1797 0.930 . S
H1840 C1799 0.929 . S
H1841 C1800 0.930 . S
H1842 C1801 0.930 . S
H1843 C1802 0.930 . S
H1844 C1806 0.929 . S
H1845 C1808 0.930 . S
H1846 C1814 0.929 . S
H1847 C1815 0.930 . S
Li1848 N1865 1.990 . S
Li1848 O1908 1.956 . S
Li1848 O1909 1.970 . S
Li1848 O1910 1.961 . S
Li1849 N1873 1.990 . S
Li1849 O1908 1.970 . S
Li1849 O1909 1.956 . S
Li1849 O1911 1.961 . S
Li1850 N1895 1.990 . S
Li1850 O1908 1.961 . S
Li1850 O1910 1.956 . S
Li1850 O1911 1.970 . S
Li1851 N1901 1.990 . S
Li1851 O1909 1.961 . S
Li1851 O1910 1.970 . S
Li1851 O1911 1.956 . S
C1852 C1854 1.348 . S
C1852 C1855 1.356 . S
C1852 O1908 1.325 . S
N1853 C1856 1.314 . S
N1853 C1857 1.279 . S
C1854 C1852 1.348 . S
C1854 C1856 1.353 . S
C1854 H1912 0.929 . S
C1855 C1852 1.356 . S
C1855 C1857 1.358 . S
C1855 H1913 0.930 . S
C1856 N1853 1.314 . S
C1856 C1854 1.353 . S
C1856 H1914 0.930 . S
C1857 N1853 1.279 . S
C1857 C1855 1.358 . S
C1857 H1915 0.930 . S
C1858 C1861 1.348 . S
C1858 C1862 1.356 . S
C1858 O1909 1.325 . S
C1859 N1860 1.279 . S
C1859 C1862 1.358 . S
C1859 H1916 0.930 . S
N1860 C1859 1.279 . S
N1860 C1863 1.314 . S
C1861 C1858 1.348 . S
C1861 C1863 1.353 . S
C1861 H1917 0.929 . S
C1862 C1858 1.356 . S
C1862 C1859 1.358 . S
C1862 H1918 0.930 . S
C1863 N1860 1.314 . S
C1863 C1861 1.353 . S
C1863 H1919 0.930 . S
C1864 N1865 1.314 . S
C1864 C1869 1.353 . S
C1864 H1870 0.930 . S
N1865 Li1848 1.990 . S
N1865 C1864 1.314 . S
N1865 C1867 1.279 . S
C1866 C1867 1.358 . S
C1866 C1868 1.356 . S
C1866 H1920 0.930 . S
C1867 N1865 1.279 . S
C1867 C1866 1.358 . S
C1867 H1871 0.930 . S
C1868 C1866 1.356 . S
C1868 C1869 1.348 . S
C1869 C1864 1.353 . S
C1869 C1868 1.348 . S
C1869 H1921 0.929 . S
H1870 C1864 0.930 . S
H1871 C1867 0.930 . S
C1872 N1873 1.314 . S
C1872 C1874 1.353 . S
C1872 H1878 0.930 . S
N1873 Li1849 1.990 . S
N1873 C1872 1.314 . S
N1873 C1876 1.279 . S
C1874 C1872 1.353 . S
C1874 C1877 1.348 . S
C1874 H1922 0.929 . S
C1875 C1876 1.358 . S
C1875 C1877 1.356 . S
C1875 H1923 0.930 . S
C1876 N1873 1.279 . S
C1876 C1875 1.358 . S
C1876 H1879 0.930 . S
C1877 C1874 1.348 . S
C1877 C1875 1.356 . S
H1878 C1872 0.930 . S
H1879 C1876 0.930 . S
C1880 C1882 1.348 . S
C1880 C1883 1.356 . S
C1880 O1910 1.325 . S
N1881 C1884 1.314 . S
N1881 C1885 1.279 . S
C1882 C1880 1.348 . S
C1882 C1884 1.353 . S
C1882 H1924 0.929 . S
C1883 C1880 1.356 . S
C1883 C1885 1.358 . S
C1883 H1925 0.930 . S
C1884 N1881 1.314 . S
C1884 C1882 1.353 . S
C1884 H1926 0.930 . S
C1885 N1881 1.279 . S
C1885 C1883 1.358 . S
C1885 H1927 0.930 . S
C1886 C1887 1.348 . S
C1886 C1888 1.356 . S
C1886 O1911 1.325 . S
C1887 C1886 1.348 . S
C1887 C1889 1.353 . S
C1887 H1928 0.929 . S
C1888 C1886 1.356 . S
C1888 C1890 1.358 . S
C1888 H1929 0.930 . S
C1889 C1887 1.353 . S
C1889 N1891 1.314 . S
C1889 H1930 0.930 . S
C1890 C1888 1.358 . S
C1890 N1891 1.279 . S
C1890 H1931 0.930 . S
N1891 C1889 1.314 . S
N1891 C1890 1.279 . S
C1892 C1894 1.353 . S
C1892 N1895 1.314 . S
C1892 H1898 0.930 . S
C1893 N1895 1.279 . S
C1893 C1896 1.358 . S
C1893 H1899 0.930 . S
C1894 C1892 1.353 . S
C1894 C1897 1.348 . S
C1894 H1932 0.929 . S
N1895 Li1850 1.990 . S
N1895 C1892 1.314 . S
N1895 C1893 1.279 . S
C1896 C1893 1.358 . S
C1896 C1897 1.356 . S
C1896 H1933 0.930 . S
C1897 C1894 1.348 . S
C1897 C1896 1.356 . S
H1898 C1892 0.930 . S
H1899 C1893 0.930 . S
C1900 N1901 1.314 . S
C1900 C1902 1.353 . S
C1900 H1906 0.930 . S
N1901 Li1851 1.990 . S
N1901 C1900 1.314 . S
N1901 C1904 1.279 . S
C1902 C1900 1.353 . S
C1902 C1905 1.348 . S
C1902 H1934 0.929 . S
C1903 C1904 1.358 . S
C1903 C1905 1.356 . S
C1903 H1935 0.930 . S
C1904 N1901 1.279 . S
C1904 C1903 1.358 . S
C1904 H1907 0.930 . S
C1905 C1902 1.348 . S
C1905 C1903 1.356 . S
H1906 C1900 0.930 . S
H1907 C1904 0.930 . S
O1908 Li1848 1.956 . S
O1908 Li1849 1.970 . S
O1908 Li1850 1.961 . S
O1908 C1852 1.325 . S
O1909 Li1848 1.970 . S
O1909 Li1849 1.956 . S
O1909 Li1851 1.961 . S
O1909 C1858 1.325 . S
O1910 Li1848 1.961 . S
O1910 Li1850 1.956 . S
O1910 Li1851 1.970 . S
O1910 C1880 1.325 . S
O1911 Li1849 1.961 . S
O1911 Li1850 1.970 . S
O1911 Li1851 1.956 . S
O1911 C1886 1.325 . S
H1912 C1854 0.929 . S
H1913 C1855 0.930 . S
H1914 C1856 0.930 . S
H1915 C1857 0.930 . S
H1916 C1859 0.930 . S
H1917 C1861 0.929 . S
H1918 C1862 0.930 . S
H1919 C1863 0.930 . S
H1920 C1866 0.930 . S
H1921 C1869 0.929 . S
H1922 C1874 0.929 . S
H1923 C1875 0.930 . S
H1924 C1882 0.929 . S
H1925 C1883 0.930 . S
H1926 C1884 0.930 . S
H1927 C1885 0.930 . S
H1928 C1887 0.929 . S
H1929 C1888 0.930 . S
H1930 C1889 0.930 . S
H1931 C1890 0.930 . S
H1932 C1894 0.929 . S
H1933 C1896 0.930 . S
H1934 C1902 0.929 . S
H1935 C1903 0.930 . S
Li1936 N1953 1.990 . S
Li1936 O1996 1.956 . S
Li1936 O1997 1.970 . S
Li1936 O1998 1.961 . S
Li1937 N1961 1.990 . S
Li1937 O1996 1.970 . S
Li1937 O1997 1.956 . S
Li1937 O1999 1.961 . S
Li1938 N1983 1.990 . S
Li1938 O1996 1.961 . S
Li1938 O1998 1.956 . S
Li1938 O1999 1.970 . S
Li1939 N1989 1.990 . S
Li1939 O1997 1.961 . S
Li1939 O1998 1.970 . S
Li1939 O1999 1.956 . S
C1940 C1942 1.348 . S
C1940 C1943 1.356 . S
C1940 O1996 1.325 . S
N1941 C1944 1.314 . S
N1941 C1945 1.279 . S
C1942 C1940 1.348 . S
C1942 C1944 1.353 . S
C1942 H2000 0.929 . S
C1943 C1940 1.356 . S
C1943 C1945 1.358 . S
C1943 H2001 0.930 . S
C1944 N1941 1.314 . S
C1944 C1942 1.353 . S
C1944 H2002 0.930 . S
C1945 N1941 1.279 . S
C1945 C1943 1.358 . S
C1945 H2003 0.930 . S
C1946 C1949 1.348 . S
C1946 C1950 1.356 . S
C1946 O1997 1.325 . S
C1947 N1948 1.279 . S
C1947 C1950 1.358 . S
C1947 H2004 0.930 . S
N1948 C1947 1.279 . S
N1948 C1951 1.314 . S
C1949 C1946 1.348 . S
C1949 C1951 1.353 . S
C1949 H2005 0.929 . S
C1950 C1946 1.356 . S
C1950 C1947 1.358 . S
C1950 H2006 0.930 . S
C1951 N1948 1.314 . S
C1951 C1949 1.353 . S
C1951 H2007 0.930 . S
C1952 N1953 1.314 . S
C1952 C1957 1.353 . S
C1952 H1958 0.930 . S
N1953 Li1936 1.990 . S
N1953 C1952 1.314 . S
N1953 C1955 1.279 . S
C1954 C1955 1.358 . S
C1954 C1956 1.356 . S
C1954 H2008 0.930 . S
C1955 N1953 1.279 . S
C1955 C1954 1.358 . S
C1955 H1959 0.930 . S
C1956 C1954 1.356 . S
C1956 C1957 1.348 . S
C1957 C1952 1.353 . S
C1957 C1956 1.348 . S
C1957 H2009 0.929 . S
H1958 C1952 0.930 . S
H1959 C1955 0.930 . S
C1960 N1961 1.314 . S
C1960 C1962 1.353 . S
C1960 H1966 0.930 . S
N1961 Li1937 1.990 . S
N1961 C1960 1.314 . S
N1961 C1964 1.279 . S
C1962 C1960 1.353 . S
C1962 C1965 1.348 . S
C1962 H2010 0.929 . S
C1963 C1964 1.358 . S
C1963 C1965 1.356 . S
C1963 H2011 0.930 . S
C1964 N1961 1.279 . S
C1964 C1963 1.358 . S
C1964 H1967 0.930 . S
C1965 C1962 1.348 . S
C1965 C1963 1.356 . S
H1966 C1960 0.930 . S
H1967 C1964 0.930 . S
C1968 C1970 1.348 . S
C1968 C1971 1.356 . S
C1968 O1998 1.325 . S
N1969 C1972 1.314 . S
N1969 C1973 1.279 . S
C1970 C1968 1.348 . S
C1970 C1972 1.353 . S
C1970 H2012 0.929 . S
C1971 C1968 1.356 . S
C1971 C1973 1.358 . S
C1971 H2013 0.930 . S
C1972 N1969 1.314 . S
C1972 C1970 1.353 . S
C1972 H2014 0.930 . S
C1973 N1969 1.279 . S
C1973 C1971 1.358 . S
C1973 H2015 0.930 . S
C1974 C1975 1.348 . S
C1974 C1976 1.356 . S
C1974 O1999 1.325 . S
C1975 C1974 1.348 . S
C1975 C1977 1.353 . S
C1975 H2016 0.929 . S
C1976 C1974 1.356 . S
C1976 C1978 1.358 . S
C1976 H2017 0.930 . S
C1977 C1975 1.353 . S
C1977 N1979 1.314 . S
C1977 H2018 0.930 . S
C1978 C1976 1.358 . S
C1978 N1979 1.279 . S
C1978 H2019 0.930 . S
N1979 C1977 1.314 . S
N1979 C1978 1.279 . S
C1980 C1982 1.353 . S
C1980 N1983 1.314 . S
C1980 H1986 0.930 . S
C1981 N1983 1.279 . S
C1981 C1984 1.358 . S
C1981 H1987 0.930 . S
C1982 C1980 1.353 . S
C1982 C1985 1.348 . S
C1982 H2020 0.929 . S
N1983 Li1938 1.990 . S
N1983 C1980 1.314 . S
N1983 C1981 1.279 . S
C1984 C1981 1.358 . S
C1984 C1985 1.356 . S
C1984 H2021 0.930 . S
C1985 C1982 1.348 . S
C1985 C1984 1.356 . S
H1986 C1980 0.930 . S
H1987 C1981 0.930 . S
C1988 N1989 1.314 . S
C1988 C1990 1.353 . S
C1988 H1994 0.930 . S
N1989 Li1939 1.990 . S
N1989 C1988 1.314 . S
N1989 C1992 1.279 . S
C1990 C1988 1.353 . S
C1990 C1993 1.348 . S
C1990 H2022 0.929 . S
C1991 C1992 1.358 . S
C1991 C1993 1.356 . S
C1991 H2023 0.930 . S
C1992 N1989 1.279 . S
C1992 C1991 1.358 . S
C1992 H1995 0.930 . S
C1993 C1990 1.348 . S
C1993 C1991 1.356 . S
H1994 C1988 0.930 . S
H1995 C1992 0.930 . S
O1996 Li1936 1.956 . S
O1996 Li1937 1.970 . S
O1996 Li1938 1.961 . S
O1996 C1940 1.325 . S
O1997 Li1936 1.970 . S
O1997 Li1937 1.956 . S
O1997 Li1939 1.961 . S
O1997 C1946 1.325 . S
O1998 Li1936 1.961 . S
O1998 Li1938 1.956 . S
O1998 Li1939 1.970 . S
O1998 C1968 1.325 . S
O1999 Li1937 1.961 . S
O1999 Li1938 1.970 . S
O1999 Li1939 1.956 . S
O1999 C1974 1.325 . S
H2000 C1942 0.929 . S
H2001 C1943 0.930 . S
H2002 C1944 0.930 . S
H2003 C1945 0.930 . S
H2004 C1947 0.930 . S
H2005 C1949 0.929 . S
H2006 C1950 0.930 . S
H2007 C1951 0.930 . S
H2008 C1954 0.930 . S
H2009 C1957 0.929 . S
H2010 C1962 0.929 . S
H2011 C1963 0.930 . S
H2012 C1970 0.929 . S
H2013 C1971 0.930 . S
H2014 C1972 0.930 . S
H2015 C1973 0.930 . S
H2016 C1975 0.929 . S
H2017 C1976 0.930 . S
H2018 C1977 0.930 . S
H2019 C1978 0.930 . S
H2020 C1982 0.929 . S
H2021 C1984 0.930 . S
H2022 C1990 0.929 . S
H2023 C1991 0.930 . S
Li2024 N2041 1.990 . S
Li2024 O2084 1.956 . S
Li2024 O2085 1.970 . S
Li2024 O2086 1.961 . S
Li2025 N2049 1.990 . S
Li2025 O2084 1.970 . S
Li2025 O2085 1.956 . S
Li2025 O2087 1.961 . S
Li2026 N2071 1.990 . S
Li2026 O2084 1.961 . S
Li2026 O2086 1.956 . S
Li2026 O2087 1.970 . S
Li2027 N2077 1.990 . S
Li2027 O2085 1.961 . S
Li2027 O2086 1.970 . S
Li2027 O2087 1.956 . S
C2028 C2030 1.348 . S
C2028 C2031 1.356 . S
C2028 O2084 1.325 . S
N2029 C2032 1.314 . S
N2029 C2033 1.279 . S
C2030 C2028 1.348 . S
C2030 C2032 1.353 . S
C2030 H2088 0.929 . S
C2031 C2028 1.356 . S
C2031 C2033 1.358 . S
C2031 H2089 0.930 . S
C2032 N2029 1.314 . S
C2032 C2030 1.353 . S
C2032 H2090 0.930 . S
C2033 N2029 1.279 . S
C2033 C2031 1.358 . S
C2033 H2091 0.930 . S
C2034 C2037 1.348 . S
C2034 C2038 1.356 . S
C2034 O2085 1.325 . S
C2035 N2036 1.279 . S
C2035 C2038 1.358 . S
C2035 H2092 0.930 . S
N2036 C2035 1.279 . S
N2036 C2039 1.314 . S
C2037 C2034 1.348 . S
C2037 C2039 1.353 . S
C2037 H2093 0.929 . S
C2038 C2034 1.356 . S
C2038 C2035 1.358 . S
C2038 H2094 0.930 . S
C2039 N2036 1.314 . S
C2039 C2037 1.353 . S
C2039 H2095 0.930 . S
C2040 N2041 1.314 . S
C2040 C2045 1.353 . S
C2040 H2046 0.930 . S
N2041 Li2024 1.990 . S
N2041 C2040 1.314 . S
N2041 C2043 1.279 . S
C2042 C2043 1.358 . S
C2042 C2044 1.356 . S
C2042 H2096 0.930 . S
C2043 N2041 1.279 . S
C2043 C2042 1.358 . S
C2043 H2047 0.930 . S
C2044 C2042 1.356 . S
C2044 C2045 1.348 . S
C2045 C2040 1.353 . S
C2045 C2044 1.348 . S
C2045 H2097 0.929 . S
H2046 C2040 0.930 . S
H2047 C2043 0.930 . S
C2048 N2049 1.314 . S
C2048 C2050 1.353 . S
C2048 H2054 0.930 . S
N2049 Li2025 1.990 . S
N2049 C2048 1.314 . S
N2049 C2052 1.279 . S
C2050 C2048 1.353 . S
C2050 C2053 1.348 . S
C2050 H2098 0.929 . S
C2051 C2052 1.358 . S
C2051 C2053 1.356 . S
C2051 H2099 0.930 . S
C2052 N2049 1.279 . S
C2052 C2051 1.358 . S
C2052 H2055 0.930 . S
C2053 C2050 1.348 . S
C2053 C2051 1.356 . S
H2054 C2048 0.930 . S
H2055 C2052 0.930 . S
C2056 C2058 1.348 . S
C2056 C2059 1.356 . S
C2056 O2086 1.325 . S
N2057 C2060 1.314 . S
N2057 C2061 1.279 . S
C2058 C2056 1.348 . S
C2058 C2060 1.353 . S
C2058 H2100 0.929 . S
C2059 C2056 1.356 . S
C2059 C2061 1.358 . S
C2059 H2101 0.930 . S
C2060 N2057 1.314 . S
C2060 C2058 1.353 . S
C2060 H2102 0.930 . S
C2061 N2057 1.279 . S
C2061 C2059 1.358 . S
C2061 H2103 0.930 . S
C2062 C2063 1.348 . S
C2062 C2064 1.356 . S
C2062 O2087 1.325 . S
C2063 C2062 1.348 . S
C2063 C2065 1.353 . S
C2063 H2104 0.929 . S
C2064 C2062 1.356 . S
C2064 C2066 1.358 . S
C2064 H2105 0.930 . S
C2065 C2063 1.353 . S
C2065 N2067 1.314 . S
C2065 H2106 0.930 . S
C2066 C2064 1.358 . S
C2066 N2067 1.279 . S
C2066 H2107 0.930 . S
N2067 C2065 1.314 . S
N2067 C2066 1.279 . S
C2068 C2070 1.353 . S
C2068 N2071 1.314 . S
C2068 H2074 0.930 . S
C2069 N2071 1.279 . S
C2069 C2072 1.358 . S
C2069 H2075 0.930 . S
C2070 C2068 1.353 . S
C2070 C2073 1.348 . S
C2070 H2108 0.929 . S
N2071 Li2026 1.990 . S
N2071 C2068 1.314 . S
N2071 C2069 1.279 . S
C2072 C2069 1.358 . S
C2072 C2073 1.356 . S
C2072 H2109 0.930 . S
C2073 C2070 1.348 . S
C2073 C2072 1.356 . S
H2074 C2068 0.930 . S
H2075 C2069 0.930 . S
C2076 N2077 1.314 . S
C2076 C2078 1.353 . S
C2076 H2082 0.930 . S
N2077 Li2027 1.990 . S
N2077 C2076 1.314 . S
N2077 C2080 1.279 . S
C2078 C2076 1.353 . S
C2078 C2081 1.348 . S
C2078 H2110 0.929 . S
C2079 C2080 1.358 . S
C2079 C2081 1.356 . S
C2079 H2111 0.930 . S
C2080 N2077 1.279 . S
C2080 C2079 1.358 . S
C2080 H2083 0.930 . S
C2081 C2078 1.348 . S
C2081 C2079 1.356 . S
H2082 C2076 0.930 . S
H2083 C2080 0.930 . S
O2084 Li2024 1.956 . S
O2084 Li2025 1.970 . S
O2084 Li2026 1.961 . S
O2084 C2028 1.325 . S
O2085 Li2024 1.970 . S
O2085 Li2025 1.956 . S
O2085 Li2027 1.961 . S
O2085 C2034 1.325 . S
O2086 Li2024 1.961 . S
O2086 Li2026 1.956 . S
O2086 Li2027 1.970 . S
O2086 C2056 1.325 . S
O2087 Li2025 1.961 . S
O2087 Li2026 1.970 . S
O2087 Li2027 1.956 . S
O2087 C2062 1.325 . S
H2088 C2030 0.929 . S
H2089 C2031 0.930 . S
H2090 C2032 0.930 . S
H2091 C2033 0.930 . S
H2092 C2035 0.930 . S
H2093 C2037 0.929 . S
H2094 C2038 0.930 . S
H2095 C2039 0.930 . S
H2096 C2042 0.930 . S
H2097 C2045 0.929 . S
H2098 C2050 0.929 . S
H2099 C2051 0.930 . S
H2100 C2058 0.929 . S
H2101 C2059 0.930 . S
H2102 C2060 0.930 . S
H2103 C2061 0.930 . S
H2104 C2063 0.929 . S
H2105 C2064 0.930 . S
H2106 C2065 0.930 . S
H2107 C2066 0.930 . S
H2108 C2070 0.929 . S
H2109 C2072 0.930 . S
H2110 C2078 0.929 . S
H2111 C2079 0.930 . S
La2112 C2114 2.928 1_455 S
La2112 O2132 2.521 1_455 S
La2112 O2133 2.628 1_456 S
La2112 O2134 2.554 . S
La2112 O2135 2.757 . S
La2112 O2136 2.470 . S
La2112 O2141 2.482 1_556 S
La2112 O2143 2.503 1_546 S
La2113 C2123 2.928 . S
La2113 O2135 2.482 1_554 S
La2113 O2137 2.503 . S
La2113 O2138 2.521 . S
La2113 O2139 2.628 . S
La2113 O2140 2.554 . S
La2113 O2141 2.757 . S
La2113 O2142 2.470 . S
C2114 La2112 2.928 1_655 S
C2114 C2115 1.503 . S
C2114 O2132 1.261 . S
C2114 O2133 1.243 1_556 S
C2115 C2114 1.503 . S
C2115 C2116 1.394 . S
C2115 C2120 1.380 . S
C2116 C2115 1.394 . S
C2116 C2117 1.380 . S
C2116 H2144 0.930 . S
C2117 C2116 1.380 . S
C2117 C2118 1.376 . S
C2117 H2145 0.930 . S
C2118 C2117 1.376 . S
C2118 C2119 1.370 . S
C2119 C2118 1.370 . S
C2119 C2120 1.398 . S
C2119 H2146 0.929 1_556 S
C2120 C2115 1.380 . S
C2120 C2119 1.398 . S
C2120 H2147 0.920 1_556 S
C2121 O2134 1.240 . S
C2121 O2135 1.289 . S
C2122 O2136 1.258 1_554 S
C2122 O2137 1.256 . S
C2123 La2113 2.928 . S
C2123 C2124 1.503 . S
C2123 O2138 1.261 . S
C2123 O2139 1.243 . S
C2124 C2123 1.503 . S
C2124 C2125 1.394 . S
C2124 C2129 1.373 . S
C2125 C2124 1.394 . S
C2125 C2126 1.380 . S
C2125 H2148 0.930 . S
C2126 C2125 1.380 . S
C2126 C2127 1.373 . S
C2126 H2149 0.930 . S
C2127 C2126 1.373 . S
C2127 C2128 1.370 1_545 S
C2128 C2127 1.370 1_565 S
C2128 C2129 1.396 1_565 S
C2128 H2150 0.929 . S
C2129 C2124 1.373 . S
C2129 C2128 1.396 1_545 S
C2129 H2151 0.929 1_545 S
C2130 O2140 1.240 . S
C2130 O2141 1.289 . S
C2131 O2142 1.258 1_565 S
C2131 O2143 1.256 . S
O2132 La2112 2.521 1_655 S
O2132 C2114 1.261 . S
O2133 La2112 2.628 1_654 S
O2133 C2114 1.243 1_554 S
O2134 La2112 2.554 . S
O2134 C2121 1.240 . S
O2135 La2112 2.757 . S
O2135 La2113 2.482 1_556 S
O2135 C2121 1.289 . S
O2136 La2112 2.470 . S
O2136 C2122 1.258 1_556 S
O2137 La2113 2.503 . S
O2137 C2122 1.256 . S
O2138 La2113 2.521 . S
O2138 C2123 1.261 . S
O2139 La2113 2.628 . S
O2139 C2123 1.243 . S
O2140 La2113 2.554 . S
O2140 C2130 1.240 . S
O2141 La2112 2.482 1_554 S
O2141 La2113 2.757 . S
O2141 C2130 1.289 . S
O2142 La2113 2.470 . S
O2142 C2131 1.258 1_545 S
O2143 La2112 2.503 1_564 S
O2143 C2131 1.256 . S
H2144 C2116 0.930 . S
H2145 C2117 0.930 . S
H2146 C2119 0.929 1_554 S
H2147 C2120 0.920 1_554 S
H2148 C2125 0.930 . S
H2149 C2126 0.930 . S
H2150 C2128 0.929 . S
H2151 C2129 0.929 1_565 S
La2152 C2154 2.928 . S
La2152 O2172 2.521 . S
La2152 O2173 2.628 . S
La2152 O2174 2.554 . S
La2152 O2175 2.757 . S
La2152 O2176 2.470 . S
La2152 O2181 2.482 . S
La2152 O2183 2.503 . S
La2153 C2163 2.928 . S
La2153 O2175 2.482 . S
La2153 O2177 2.503 . S
La2153 O2178 2.521 . S
La2153 O2179 2.628 . S
La2153 O2180 2.554 . S
La2153 O2181 2.757 . S
La2153 O2182 2.470 . S
C2154 La2152 2.928 . S
C2154 C2155 1.503 . S
C2154 O2172 1.261 . S
C2154 O2173 1.243 . S
C2155 C2154 1.503 . S
C2155 C2156 1.394 . S
C2155 C2160 1.373 . S
C2156 C2155 1.394 . S
C2156 C2157 1.380 . S
C2156 H2184 0.930 . S
C2157 C2156 1.380 . S
C2157 C2158 1.376 . S
C2157 H2185 0.930 . S
C2158 C2157 1.376 . S
C2158 C2159 1.370 . S
C2159 C2158 1.370 . S
C2159 C2160 1.396 . S
C2159 H2186 0.929 . S
C2160 C2155 1.373 . S
C2160 C2159 1.396 . S
C2160 H2187 0.929 . S
C2161 O2174 1.240 . S
C2161 O2175 1.289 . S
C2162 O2176 1.258 . S
C2162 O2177 1.256 . S
C2163 La2153 2.928 . S
C2163 C2164 1.503 . S
C2163 O2178 1.261 . S
C2163 O2179 1.243 . S
C2164 C2163 1.503 . S
C2164 C2165 1.394 . S
C2164 C2169 1.373 . S
C2165 C2164 1.394 . S
C2165 C2166 1.380 . S
C2165 H2188 0.930 . S
C2166 C2165 1.380 . S
C2166 C2167 1.376 . S
C2166 H2189 0.930 . S
C2167 C2166 1.376 . S
C2167 C2168 1.370 . S
C2168 C2167 1.370 . S
C2168 C2169 1.396 . S
C2168 H2190 0.929 . S
C2169 C2164 1.373 . S
C2169 C2168 1.396 . S
C2169 H2191 0.929 . S
C2170 O2180 1.240 . S
C2170 O2181 1.289 . S
C2171 O2182 1.258 . S
C2171 O2183 1.256 . S
O2172 La2152 2.521 . S
O2172 C2154 1.261 . S
O2173 La2152 2.628 . S
O2173 C2154 1.243 . S
O2174 La2152 2.554 . S
O2174 C2161 1.240 . S
O2175 La2152 2.757 . S
O2175 La2153 2.482 . S
O2175 C2161 1.289 . S
O2176 La2152 2.470 . S
O2176 C2162 1.258 . S
O2177 La2153 2.503 . S
O2177 C2162 1.256 . S
O2178 La2153 2.521 . S
O2178 C2163 1.261 . S
O2179 La2153 2.628 . S
O2179 C2163 1.243 . S
O2180 La2153 2.554 . S
O2180 C2170 1.240 . S
O2181 La2152 2.482 . S
O2181 La2153 2.757 . S
O2181 C2170 1.289 . S
O2182 La2153 2.470 . S
O2182 C2171 1.258 . S
O2183 La2152 2.503 . S
O2183 C2171 1.256 . S
H2184 C2156 0.930 . S
H2185 C2157 0.930 . S
H2186 C2159 0.929 . S
H2187 C2160 0.929 . S
H2188 C2165 0.930 . S
H2189 C2166 0.930 . S
H2190 C2168 0.929 . S
H2191 C2169 0.929 . S
La2192 C2194 2.928 . S
La2192 O2212 2.521 . S
La2192 O2213 2.628 . S
La2192 O2214 2.554 . S
La2192 O2215 2.757 . S
La2192 O2216 2.454 1_545 S
La2192 O2221 2.482 . S
La2192 O2223 2.503 . S
La2193 C2203 2.928 . S
La2193 O2215 2.482 . S
La2193 O2217 2.503 1_545 S
La2193 O2218 2.521 . S
La2193 O2219 2.628 . S
La2193 O2220 2.554 . S
La2193 O2221 2.757 . S
La2193 O2222 2.470 . S
C2194 La2192 2.928 . S
C2194 C2195 1.503 1_545 S
C2194 O2212 1.261 . S
C2194 O2213 1.243 . S
C2195 C2194 1.503 1_565 S
C2195 C2196 1.394 . S
C2195 C2200 1.373 . S
C2196 C2195 1.394 . S
C2196 C2197 1.380 . S
C2196 H2224 0.930 1_565 S
C2197 C2196 1.380 . S
C2197 C2198 1.376 . S
C2197 H2225 0.930 . S
C2198 C2197 1.376 . S
C2198 C2199 1.370 . S
C2199 C2198 1.370 . S
C2199 C2200 1.396 . S
C2199 H2226 0.929 . S
C2200 C2195 1.373 . S
C2200 C2199 1.396 . S
C2200 H2227 0.929 . S
C2201 O2214 1.240 . S
C2201 O2215 1.289 . S
C2202 O2216 1.268 . S
C2202 O2217 1.256 . S
C2203 La2193 2.928 . S
C2203 C2204 1.503 . S
C2203 O2218 1.261 . S
C2203 O2219 1.243 . S
C2204 C2203 1.503 . S
C2204 C2205 1.394 . S
C2204 C2209 1.373 . S
C2205 C2204 1.394 . S
C2205 C2206 1.380 . S
C2205 H2228 0.930 . S
C2206 C2205 1.380 . S
C2206 C2207 1.376 . S
C2206 H2229 0.930 . S
C2207 C2206 1.376 . S
C2207 C2208 1.370 . S
C2208 C2207 1.370 . S
C2208 C2209 1.396 . S
C2208 H2230 0.929 . S
C2209 C2204 1.373 . S
C2209 C2208 1.396 . S
C2209 H2231 0.929 . S
C2210 O2220 1.240 . S
C2210 O2221 1.289 . S
C2211 O2222 1.258 . S
C2211 O2223 1.256 . S
O2212 La2192 2.521 . S
O2212 C2194 1.261 . S
O2213 La2192 2.628 . S
O2213 C2194 1.243 . S
O2214 La2192 2.554 . S
O2214 C2201 1.240 . S
O2215 La2192 2.757 . S
O2215 La2193 2.482 . S
O2215 C2201 1.289 . S
O2216 La2192 2.454 1_565 S
O2216 C2202 1.268 . S
O2217 La2193 2.503 1_565 S
O2217 C2202 1.256 . S
O2218 La2193 2.521 . S
O2218 C2203 1.261 . S
O2219 La2193 2.628 . S
O2219 C2203 1.243 . S
O2220 La2193 2.554 . S
O2220 C2210 1.240 . S
O2221 La2192 2.482 . S
O2221 La2193 2.757 . S
O2221 C2210 1.289 . S
O2222 La2193 2.470 . S
O2222 C2211 1.258 . S
O2223 La2192 2.503 . S
O2223 C2211 1.256 . S
H2224 C2196 0.930 1_545 S
H2225 C2197 0.930 . S
H2226 C2199 0.929 . S
H2227 C2200 0.929 . S
H2228 C2205 0.930 . S
H2229 C2206 0.930 . S
H2230 C2208 0.929 . S
H2231 C2209 0.929 . S
La2232 C2234 2.928 . S
La2232 O2252 2.521 . S
La2232 O2253 2.628 . S
La2232 O2254 2.554 . S
La2232 O2255 2.757 . S
La2232 O2256 2.470 . S
La2232 O2261 2.482 . S
La2232 O2263 2.503 . S
La2233 C2243 2.928 . S
La2233 O2255 2.482 . S
La2233 O2257 2.503 . S
La2233 O2258 2.521 . S
La2233 O2259 2.628 . S
La2233 O2260 2.554 . S
La2233 O2261 2.757 . S
La2233 O2262 2.470 . S
C2234 La2232 2.928 . S
C2234 C2235 1.503 . S
C2234 O2252 1.261 . S
C2234 O2253 1.243 . S
C2235 C2234 1.503 . S
C2235 C2236 1.394 . S
C2235 C2240 1.373 . S
C2236 C2235 1.394 . S
C2236 C2237 1.380 . S
C2236 H2264 0.930 . S
C2237 C2236 1.380 . S
C2237 C2238 1.376 . S
C2237 H2265 0.930 . S
C2238 C2237 1.376 . S
C2238 C2239 1.370 . S
C2239 C2238 1.370 . S
C2239 C2240 1.396 . S
C2239 H2266 0.929 . S
C2240 C2235 1.373 . S
C2240 C2239 1.396 . S
C2240 H2267 0.929 . S
C2241 O2254 1.240 . S
C2241 O2255 1.289 . S
C2242 O2256 1.258 . S
C2242 O2257 1.256 . S
C2243 La2233 2.928 . S
C2243 C2244 1.503 . S
C2243 O2258 1.261 . S
C2243 O2259 1.243 . S
C2244 C2243 1.503 . S
C2244 C2245 1.394 . S
C2244 C2249 1.373 . S
C2245 C2244 1.394 . S
C2245 C2246 1.380 . S
C2245 H2268 0.930 . S
C2246 C2245 1.380 . S
C2246 C2247 1.376 . S
C2246 H2269 0.930 . S
C2247 C2246 1.376 . S
C2247 C2248 1.370 . S
C2248 C2247 1.370 . S
C2248 C2249 1.396 . S
C2248 H2270 0.929 . S
C2249 C2244 1.373 . S
C2249 C2248 1.396 . S
C2249 H2271 0.929 . S
C2250 O2260 1.240 . S
C2250 O2261 1.289 . S
C2251 O2262 1.258 . S
C2251 O2263 1.256 . S
O2252 La2232 2.521 . S
O2252 C2234 1.261 . S
O2253 La2232 2.628 . S
O2253 C2234 1.243 . S
O2254 La2232 2.554 . S
O2254 C2241 1.240 . S
O2255 La2232 2.757 . S
O2255 La2233 2.482 . S
O2255 C2241 1.289 . S
O2256 La2232 2.470 . S
O2256 C2242 1.258 . S
O2257 La2233 2.503 . S
O2257 C2242 1.256 . S
O2258 La2233 2.521 . S
O2258 C2243 1.261 . S
O2259 La2233 2.628 . S
O2259 C2243 1.243 . S
O2260 La2233 2.554 . S
O2260 C2250 1.240 . S
O2261 La2232 2.482 . S
O2261 La2233 2.757 . S
O2261 C2250 1.289 . S
O2262 La2233 2.470 . S
O2262 C2251 1.258 . S
O2263 La2232 2.503 . S
O2263 C2251 1.256 . S
H2264 C2236 0.930 . S
H2265 C2237 0.930 . S
H2266 C2239 0.929 . S
H2267 C2240 0.929 . S
H2268 C2245 0.930 . S
H2269 C2246 0.930 . S
H2270 C2248 0.929 . S
H2271 C2249 0.929 . S
La2272 C2274 2.928 . S
La2272 O2292 2.521 . S
La2272 O2293 2.628 . S
La2272 O2294 2.554 . S
La2272 O2295 2.757 . S
La2272 O2296 2.470 . S
La2272 O2301 2.482 . S
La2272 O2303 2.503 . S
La2273 C2283 2.928 1_545 S
La2273 O2295 2.482 . S
La2273 O2297 2.503 . S
La2273 O2298 2.521 1_545 S
La2273 O2299 2.628 1_545 S
La2273 O2300 2.554 . S
La2273 O2301 2.757 . S
La2273 O2302 2.470 . S
C2274 La2272 2.928 . S
C2274 C2275 1.503 . S
C2274 O2292 1.261 . S
C2274 O2293 1.243 . S
C2275 C2274 1.503 . S
C2275 C2276 1.394 . S
C2275 C2280 1.373 . S
C2276 C2275 1.394 . S
C2276 C2277 1.380 . S
C2276 H2304 0.930 . S
C2277 C2276 1.380 . S
C2277 C2278 1.376 . S
C2277 H2305 0.881 1_455 S
C2278 C2277 1.376 . S
C2278 C2279 1.370 . S
C2279 C2278 1.370 . S
C2279 C2280 1.396 . S
C2279 H2306 0.929 . S
C2280 C2275 1.373 . S
C2280 C2279 1.396 . S
C2280 H2307 0.929 . S
C2281 O2294 1.240 . S
C2281 O2295 1.289 . S
C2282 O2296 1.258 . S
C2282 O2297 1.256 . S
C2283 La2273 2.928 1_565 S
C2283 C2284 1.503 . S
C2283 O2298 1.261 . S
C2283 O2299 1.243 . S
C2284 C2283 1.503 . S
C2284 C2285 1.394 . S
C2284 C2289 1.373 . S
C2285 C2284 1.394 . S
C2285 C2286 1.380 . S
C2285 H2308 0.930 . S
C2286 C2285 1.380 . S
C2286 C2287 1.376 . S
C2286 H2309 0.930 . S
C2287 C2286 1.376 . S
C2287 C2288 1.370 . S
C2288 C2287 1.370 . S
C2288 C2289 1.396 . S
C2288 H2310 0.929 . S
C2289 C2284 1.373 . S
C2289 C2288 1.396 . S
C2289 H2311 0.929 . S
C2290 O2300 1.240 . S
C2290 O2301 1.289 . S
C2291 O2302 1.258 . S
C2291 O2303 1.256 . S
O2292 La2272 2.521 . S
O2292 C2274 1.261 . S
O2293 La2272 2.628 . S
O2293 C2274 1.243 . S
O2294 La2272 2.554 . S
O2294 C2281 1.240 . S
O2295 La2272 2.757 . S
O2295 La2273 2.482 . S
O2295 C2281 1.289 . S
O2296 La2272 2.470 . S
O2296 C2282 1.258 . S
O2297 La2273 2.503 . S
O2297 C2282 1.256 . S
O2298 La2273 2.521 1_565 S
O2298 C2283 1.261 . S
O2299 La2273 2.628 1_565 S
O2299 C2283 1.243 . S
O2300 La2273 2.554 . S
O2300 C2290 1.240 . S
O2301 La2272 2.482 . S
O2301 La2273 2.757 . S
O2301 C2290 1.289 . S
O2302 La2273 2.470 . S
O2302 C2291 1.258 . S
O2303 La2272 2.503 . S
O2303 C2291 1.256 . S
H2304 C2276 0.930 . S
H2305 C2277 0.881 1_655 S
H2306 C2279 0.929 . S
H2307 C2280 0.929 . S
H2308 C2285 0.930 . S
H2309 C2286 0.930 . S
H2310 C2288 0.929 . S
H2311 C2289 0.929 . S
La2312 C2314 2.928 . S
La2312 O2332 2.521 . S
La2312 O2333 2.628 . S
La2312 O2334 2.554 . S
La2312 O2335 2.757 . S
La2312 O2336 2.470 . S
La2312 O2341 2.482 . S
La2312 O2343 2.503 . S
La2313 C2323 2.928 . S
La2313 O2335 2.482 . S
La2313 O2337 2.503 . S
La2313 O2338 2.521 . S
La2313 O2339 2.628 . S
La2313 O2340 2.554 . S
La2313 O2341 2.757 . S
La2313 O2342 2.470 . S
C2314 La2312 2.928 . S
C2314 C2315 1.503 . S
C2314 O2332 1.261 . S
C2314 O2333 1.243 . S
C2315 C2314 1.503 . S
C2315 C2316 1.394 . S
C2315 C2320 1.373 . S
C2316 C2315 1.394 . S
C2316 C2317 1.380 . S
C2316 H2344 0.930 . S
C2317 C2316 1.380 . S
C2317 C2318 1.376 . S
C2317 H2345 0.930 . S
C2318 C2317 1.376 . S
C2318 C2319 1.370 . S
C2319 C2318 1.370 . S
C2319 C2320 1.396 . S
C2319 H2346 0.929 . S
C2320 C2315 1.373 . S
C2320 C2319 1.396 . S
C2320 H2347 0.929 . S
C2321 O2334 1.240 . S
C2321 O2335 1.289 . S
C2322 O2336 1.258 . S
C2322 O2337 1.256 . S
C2323 La2313 2.928 . S
C2323 C2324 1.503 . S
C2323 O2338 1.261 . S
C2323 O2339 1.243 . S
C2324 C2323 1.503 . S
C2324 C2325 1.394 . S
C2324 C2329 1.373 . S
C2325 C2324 1.394 . S
C2325 C2326 1.380 . S
C2325 H2348 0.930 . S
C2326 C2325 1.380 . S
C2326 C2327 1.376 . S
C2326 H2349 0.930 . S
C2327 C2326 1.376 . S
C2327 C2328 1.370 . S
C2328 C2327 1.370 . S
C2328 C2329 1.396 . S
C2328 H2350 0.929 . S
C2329 C2324 1.373 . S
C2329 C2328 1.396 . S
C2329 H2351 0.929 . S
C2330 O2340 1.240 . S
C2330 O2341 1.289 . S
C2331 O2342 1.258 . S
C2331 O2343 1.256 . S
O2332 La2312 2.521 . S
O2332 C2314 1.261 . S
O2333 La2312 2.628 . S
O2333 C2314 1.243 . S
O2334 La2312 2.554 . S
O2334 C2321 1.240 . S
O2335 La2312 2.757 . S
O2335 La2313 2.482 . S
O2335 C2321 1.289 . S
O2336 La2312 2.470 . S
O2336 C2322 1.258 . S
O2337 La2313 2.503 . S
O2337 C2322 1.256 . S
O2338 La2313 2.521 . S
O2338 C2323 1.261 . S
O2339 La2313 2.628 . S
O2339 C2323 1.243 . S
O2340 La2313 2.554 . S
O2340 C2330 1.240 . S
O2341 La2312 2.482 . S
O2341 La2313 2.757 . S
O2341 C2330 1.289 . S
O2342 La2313 2.470 . S
O2342 C2331 1.258 . S
O2343 La2312 2.503 . S
O2343 C2331 1.256 . S
H2344 C2316 0.930 . S
H2345 C2317 0.930 . S
H2346 C2319 0.929 . S
H2347 C2320 0.929 . S
H2348 C2325 0.930 . S
H2349 C2326 0.930 . S
H2350 C2328 0.929 . S
H2351 C2329 0.929 . S
La2352 C2354 2.928 . S
La2352 O2372 2.521 . S
La2352 O2373 2.628 . S
La2352 O2374 2.554 1_545 S
La2352 O2375 2.757 1_554 S
La2352 O2376 2.470 . S
La2352 O2381 2.482 . S
La2352 O2383 2.503 . S
La2353 C2363 2.928 . S
La2353 O2375 2.482 . S
La2353 O2377 2.503 . S
La2353 O2378 2.521 . S
La2353 O2379 2.628 . S
La2353 O2380 2.554 1_556 S
La2353 O2381 2.757 1_556 S
La2353 O2382 2.470 . S
C2354 La2352 2.928 . S
C2354 C2355 1.503 . S
C2354 O2372 1.261 . S
C2354 O2373 1.243 . S
C2355 C2354 1.503 . S
C2355 C2356 1.394 1_545 S
C2355 C2360 1.373 . S
C2356 C2355 1.394 1_565 S
C2356 C2357 1.380 . S
C2356 H2384 0.930 . S
C2357 C2356 1.380 . S
C2357 C2358 1.376 . S
C2357 H2385 0.930 . S
C2358 C2357 1.376 . S
C2358 C2359 1.370 1_565 S
C2359 C2358 1.370 1_545 S
C2359 C2360 1.396 . S
C2359 H2386 0.929 . S
C2360 C2355 1.373 . S
C2360 C2359 1.396 . S
C2360 H2387 0.929 . S
C2361 O2374 1.263 . S
C2361 O2375 1.283 1_564 S
C2362 O2376 1.258 . S
C2362 O2377 1.256 1_554 S
C2363 La2353 2.928 . S
C2363 C2364 1.503 . S
C2363 O2378 1.261 . S
C2363 O2379 1.243 . S
C2364 C2363 1.503 . S
C2364 C2365 1.394 . S
C2364 C2369 1.373 . S
C2365 C2364 1.394 . S
C2365 C2366 1.380 . S
C2365 H2388 0.930 . S
C2366 C2365 1.380 . S
C2366 C2367 1.376 . S
C2366 H2389 0.930 . S
C2367 C2366 1.376 . S
C2367 C2368 1.370 . S
C2368 C2367 1.370 . S
C2368 C2369 1.396 . S
C2368 H2390 0.929 . S
C2369 C2364 1.373 . S
C2369 C2368 1.396 . S
C2369 H2391 0.929 . S
C2370 O2380 1.240 . S
C2370 O2381 1.289 . S
C2371 O2382 1.258 1_554 S
C2371 O2383 1.256 . S
O2372 La2352 2.521 . S
O2372 C2354 1.261 . S
O2373 La2352 2.628 . S
O2373 C2354 1.243 . S
O2374 La2352 2.554 1_565 S
O2374 C2361 1.263 . S
O2375 La2352 2.757 1_556 S
O2375 La2353 2.482 . S
O2375 C2361 1.283 1_546 S
O2376 La2352 2.470 . S
O2376 C2362 1.258 . S
O2377 La2353 2.503 . S
O2377 C2362 1.256 1_556 S
O2378 La2353 2.521 . S
O2378 C2363 1.261 . S
O2379 La2353 2.628 . S
O2379 C2363 1.243 . S
O2380 La2353 2.554 1_554 S
O2380 C2370 1.240 . S
O2381 La2352 2.482 . S
O2381 La2353 2.757 1_554 S
O2381 C2370 1.289 . S
O2382 La2353 2.470 . S
O2382 C2371 1.258 1_556 S
O2383 La2352 2.503 . S
O2383 C2371 1.256 . S
H2384 C2356 0.930 . S
H2385 C2357 0.930 . S
H2386 C2359 0.929 . S
H2387 C2360 0.929 . S
H2388 C2365 0.930 . S
H2389 C2366 0.930 . S
H2390 C2368 0.929 . S
H2391 C2369 0.929 . S
La2392 C2394 2.928 . S
La2392 O2412 2.521 . S
La2392 O2413 2.628 . S
La2392 O2414 2.554 . S
La2392 O2415 2.757 . S
La2392 O2416 2.470 . S
La2392 O2421 2.482 . S
La2392 O2423 2.503 . S
La2393 C2403 2.928 . S
La2393 O2415 2.482 . S
La2393 O2417 2.503 . S
La2393 O2418 2.521 . S
La2393 O2419 2.628 . S
La2393 O2420 2.554 . S
La2393 O2421 2.757 . S
La2393 O2422 2.470 . S
C2394 La2392 2.928 . S
C2394 C2395 1.503 . S
C2394 O2412 1.261 . S
C2394 O2413 1.243 . S
C2395 C2394 1.503 . S
C2395 C2396 1.394 . S
C2395 C2400 1.373 . S
C2396 C2395 1.394 . S
C2396 C2397 1.380 . S
C2396 H2424 0.930 . S
C2397 C2396 1.380 . S
C2397 C2398 1.376 . S
C2397 H2425 0.930 . S
C2398 C2397 1.376 . S
C2398 C2399 1.370 . S
C2399 C2398 1.370 . S
C2399 C2400 1.396 . S
C2399 H2426 0.929 . S
C2400 C2395 1.373 . S
C2400 C2399 1.396 . S
C2400 H2427 0.929 . S
C2401 O2414 1.240 . S
C2401 O2415 1.289 . S
C2402 O2416 1.258 . S
C2402 O2417 1.256 . S
C2403 La2393 2.928 . S
C2403 C2404 1.503 . S
C2403 O2418 1.261 . S
C2403 O2419 1.243 . S
C2404 C2403 1.503 . S
C2404 C2405 1.394 . S
C2404 C2409 1.373 . S
C2405 C2404 1.394 . S
C2405 C2406 1.380 . S
C2405 H2428 0.930 . S
C2406 C2405 1.380 . S
C2406 C2407 1.376 . S
C2406 H2429 0.930 . S
C2407 C2406 1.376 . S
C2407 C2408 1.370 . S
C2408 C2407 1.370 . S
C2408 C2409 1.396 . S
C2408 H2430 0.929 . S
C2409 C2404 1.373 . S
C2409 C2408 1.396 . S
C2409 H2431 0.929 . S
C2410 O2420 1.240 . S
C2410 O2421 1.289 . S
C2411 O2422 1.258 . S
C2411 O2423 1.256 . S
O2412 La2392 2.521 . S
O2412 C2394 1.261 . S
O2413 La2392 2.628 . S
O2413 C2394 1.243 . S
O2414 La2392 2.554 . S
O2414 C2401 1.240 . S
O2415 La2392 2.757 . S
O2415 La2393 2.482 . S
O2415 C2401 1.289 . S
O2416 La2392 2.470 . S
O2416 C2402 1.258 . S
O2417 La2393 2.503 . S
O2417 C2402 1.256 . S
O2418 La2393 2.521 . S
O2418 C2403 1.261 . S
O2419 La2393 2.628 . S
O2419 C2403 1.243 . S
O2420 La2393 2.554 . S
O2420 C2410 1.240 . S
O2421 La2392 2.482 . S
O2421 La2393 2.757 . S
O2421 C2410 1.289 . S
O2422 La2393 2.470 . S
O2422 C2411 1.258 . S
O2423 La2392 2.503 . S
O2423 C2411 1.256 . S
H2424 C2396 0.930 . S
H2425 C2397 0.930 . S
H2426 C2399 0.929 . S
H2427 C2400 0.929 . S
H2428 C2405 0.930 . S
H2429 C2406 0.930 . S
H2430 C2408 0.929 . S
H2431 C2409 0.929 . S
La2432 C2434 2.928 1_554 S
La2432 O2452 2.521 . S
La2432 O2453 2.628 1_554 S
La2432 O2454 2.554 . S
La2432 O2455 2.757 . S
La2432 O2456 2.470 1_554 S
La2432 O2461 2.482 . S
La2432 O2463 2.503 . S
La2433 C2443 2.928 . S
La2433 O2455 2.482 . S
La2433 O2457 2.503 1_554 S
La2433 O2458 2.521 . S
La2433 O2459 2.628 . S
La2433 O2460 2.554 . S
La2433 O2461 2.757 . S
La2433 O2462 2.470 . S
C2434 La2432 2.928 1_556 S
C2434 C2435 1.503 . S
C2434 O2452 1.261 1_556 S
C2434 O2453 1.243 . S
C2435 C2434 1.503 . S
C2435 C2436 1.394 . S
C2435 C2440 1.373 . S
C2436 C2435 1.394 . S
C2436 C2437 1.380 . S
C2436 H2464 0.902 1_556 S
C2437 C2436 1.380 . S
C2437 C2438 1.376 . S
C2437 H2465 0.930 . S
C2438 C2437 1.376 . S
C2438 C2439 1.370 . S
C2439 C2438 1.370 . S
C2439 C2440 1.396 . S
C2439 H2466 0.929 . S
C2440 C2435 1.373 . S
C2440 C2439 1.396 . S
C2440 H2467 0.929 . S
C2441 O2454 1.240 . S
C2441 O2455 1.289 . S
C2442 O2456 1.258 . S
C2442 O2457 1.256 . S
C2443 La2433 2.928 . S
C2443 C2444 1.503 . S
C2443 O2458 1.261 . S
C2443 O2459 1.243 . S
C2444 C2443 1.503 . S
C2444 C2445 1.394 . S
C2444 C2449 1.373 . S
C2445 C2444 1.394 . S
C2445 C2446 1.380 . S
C2445 H2468 0.930 . S
C2446 C2445 1.380 . S
C2446 C2447 1.376 . S
C2446 H2469 0.930 . S
C2447 C2446 1.376 . S
C2447 C2448 1.370 . S
C2448 C2447 1.370 . S
C2448 C2449 1.396 . S
C2448 H2470 0.929 . S
C2449 C2444 1.373 . S
C2449 C2448 1.396 . S
C2449 H2471 0.929 . S
C2450 O2460 1.240 . S
C2450 O2461 1.289 . S
C2451 O2462 1.258 . S
C2451 O2463 1.256 . S
O2452 La2432 2.521 . S
O2452 C2434 1.261 1_554 S
O2453 La2432 2.628 1_556 S
O2453 C2434 1.243 . S
O2454 La2432 2.554 . S
O2454 C2441 1.240 . S
O2455 La2432 2.757 . S
O2455 La2433 2.482 . S
O2455 C2441 1.289 . S
O2456 La2432 2.470 1_556 S
O2456 C2442 1.258 . S
O2457 La2433 2.503 1_556 S
O2457 C2442 1.256 . S
O2458 La2433 2.521 . S
O2458 C2443 1.261 . S
O2459 La2433 2.628 . S
O2459 C2443 1.243 . S
O2460 La2433 2.554 . S
O2460 C2450 1.240 . S
O2461 La2432 2.482 . S
O2461 La2433 2.757 . S
O2461 C2450 1.289 . S
O2462 La2433 2.470 . S
O2462 C2451 1.258 . S
O2463 La2432 2.503 . S
O2463 C2451 1.256 . S
H2464 C2436 0.902 1_554 S
H2465 C2437 0.930 . S
H2466 C2439 0.929 . S
H2467 C2440 0.929 . S
H2468 C2445 0.930 . S
H2469 C2446 0.930 . S
H2470 C2448 0.929 . S
H2471 C2449 0.929 . S
La2472 C2474 2.928 . S
La2472 O2492 2.521 . S
La2472 O2493 2.628 . S
La2472 O2494 2.554 . S
La2472 O2495 2.757 . S
La2472 O2496 2.470 . S
La2472 O2501 2.482 . S
La2472 O2503 2.503 . S
La2473 C2483 2.928 . S
La2473 O2495 2.482 . S
La2473 O2497 2.503 . S
La2473 O2498 2.521 . S
La2473 O2499 2.628 . S
La2473 O2500 2.554 . S
La2473 O2501 2.757 . S
La2473 O2502 2.470 . S
C2474 La2472 2.928 . S
C2474 C2475 1.503 . S
C2474 O2492 1.261 . S
C2474 O2493 1.243 . S
C2475 C2474 1.503 . S
C2475 C2476 1.394 . S
C2475 C2480 1.373 . S
C2476 C2475 1.394 . S
C2476 C2477 1.380 . S
C2476 H2504 0.930 . S
C2477 C2476 1.380 . S
C2477 C2478 1.376 . S
C2477 H2505 0.930 . S
C2478 C2477 1.376 . S
C2478 C2479 1.370 . S
C2479 C2478 1.370 . S
C2479 C2480 1.396 . S
C2479 H2506 0.929 . S
C2480 C2475 1.373 . S
C2480 C2479 1.396 . S
C2480 H2507 0.929 . S
C2481 O2494 1.240 . S
C2481 O2495 1.289 . S
C2482 O2496 1.258 . S
C2482 O2497 1.256 . S
C2483 La2473 2.928 . S
C2483 C2484 1.503 . S
C2483 O2498 1.261 . S
C2483 O2499 1.243 . S
C2484 C2483 1.503 . S
C2484 C2485 1.394 . S
C2484 C2489 1.373 . S
C2485 C2484 1.394 . S
C2485 C2486 1.380 . S
C2485 H2508 0.930 . S
C2486 C2485 1.380 . S
C2486 C2487 1.376 . S
C2486 H2509 0.930 . S
C2487 C2486 1.376 . S
C2487 C2488 1.370 . S
C2488 C2487 1.370 . S
C2488 C2489 1.396 . S
C2488 H2510 0.929 . S
C2489 C2484 1.373 . S
C2489 C2488 1.396 . S
C2489 H2511 0.929 . S
C2490 O2500 1.240 . S
C2490 O2501 1.289 . S
C2491 O2502 1.258 . S
C2491 O2503 1.256 . S
O2492 La2472 2.521 . S
O2492 C2474 1.261 . S
O2493 La2472 2.628 . S
O2493 C2474 1.243 . S
O2494 La2472 2.554 . S
O2494 C2481 1.240 . S
O2495 La2472 2.757 . S
O2495 La2473 2.482 . S
O2495 C2481 1.289 . S
O2496 La2472 2.470 . S
O2496 C2482 1.258 . S
O2497 La2473 2.503 . S
O2497 C2482 1.256 . S
O2498 La2473 2.521 . S
O2498 C2483 1.261 . S
O2499 La2473 2.628 . S
O2499 C2483 1.243 . S
O2500 La2473 2.554 . S
O2500 C2490 1.240 . S
O2501 La2472 2.482 . S
O2501 La2473 2.757 . S
O2501 C2490 1.289 . S
O2502 La2473 2.470 . S
O2502 C2491 1.258 . S
O2503 La2472 2.503 . S
O2503 C2491 1.256 . S
H2504 C2476 0.930 . S
H2505 C2477 0.930 . S
H2506 C2479 0.929 . S
H2507 C2480 0.929 . S
H2508 C2485 0.930 . S
H2509 C2486 0.930 . S
H2510 C2488 0.929 . S
H2511 C2489 0.929 . S
La2512 C2514 2.928 . S
La2512 O2532 2.521 . S
La2512 O2533 2.628 . S
La2512 O2534 2.554 . S
La2512 O2535 2.757 . S
La2512 O2536 2.470 . S
La2512 O2541 2.482 . S
La2512 O2543 2.503 . S
La2513 C2523 2.928 . S
La2513 O2535 2.482 . S
La2513 O2537 2.503 . S
La2513 O2538 2.521 . S
La2513 O2539 2.628 . S
La2513 O2540 2.554 . S
La2513 O2541 2.757 . S
La2513 O2542 2.470 . S
C2514 La2512 2.928 . S
C2514 C2515 1.503 . S
C2514 O2532 1.261 . S
C2514 O2533 1.243 . S
C2515 C2514 1.503 . S
C2515 C2516 1.394 . S
C2515 C2520 1.338 1_455 S
C2516 C2515 1.394 . S
C2516 C2517 1.380 . S
C2516 H2544 0.930 . S
C2517 C2516 1.380 . S
C2517 C2518 1.376 1_455 S
C2517 H2545 0.930 . S
C2518 C2517 1.376 1_655 S
C2518 C2519 1.370 . S
C2519 C2518 1.370 . S
C2519 C2520 1.419 . S
C2519 H2546 0.929 . S
C2520 C2515 1.338 1_655 S
C2520 C2519 1.419 . S
C2520 H2547 0.943 . S
C2521 O2534 1.240 . S
C2521 O2535 1.289 . S
C2522 O2536 1.258 . S
C2522 O2537 1.256 . S
C2523 La2513 2.928 . S
C2523 C2524 1.503 . S
C2523 O2538 1.261 . S
C2523 O2539 1.243 . S
C2524 C2523 1.503 . S
C2524 C2525 1.394 . S
C2524 C2529 1.373 . S
C2525 C2524 1.394 . S
C2525 C2526 1.380 . S
C2525 H2548 0.930 . S
C2526 C2525 1.380 . S
C2526 C2527 1.376 . S
C2526 H2549 0.930 . S
C2527 C2526 1.376 . S
C2527 C2528 1.370 . S
C2528 C2527 1.370 . S
C2528 C2529 1.396 . S
C2528 H2550 0.929 . S
C2529 C2524 1.373 . S
C2529 C2528 1.396 . S
C2529 H2551 0.929 . S
C2530 O2540 1.240 . S
C2530 O2541 1.289 . S
C2531 O2542 1.258 . S
C2531 O2543 1.256 . S
O2532 La2512 2.521 . S
O2532 C2514 1.261 . S
O2533 La2512 2.628 . S
O2533 C2514 1.243 . S
O2534 La2512 2.554 . S
O2534 C2521 1.240 . S
O2535 La2512 2.757 . S
O2535 La2513 2.482 . S
O2535 C2521 1.289 . S
O2536 La2512 2.470 . S
O2536 C2522 1.258 . S
O2537 La2513 2.503 . S
O2537 C2522 1.256 . S
O2538 La2513 2.521 . S
O2538 C2523 1.261 . S
O2539 La2513 2.628 . S
O2539 C2523 1.243 . S
O2540 La2513 2.554 . S
O2540 C2530 1.240 . S
O2541 La2512 2.482 . S
O2541 La2513 2.757 . S
O2541 C2530 1.289 . S
O2542 La2513 2.470 . S
O2542 C2531 1.258 . S
O2543 La2512 2.503 . S
O2543 C2531 1.256 . S
H2544 C2516 0.930 . S
H2545 C2517 0.930 . S
H2546 C2519 0.929 . S
H2547 C2520 0.943 . S
H2548 C2525 0.930 . S
H2549 C2526 0.930 . S
H2550 C2528 0.929 . S
H2551 C2529 0.929 . S
La2552 C2554 2.928 . S
La2552 O2572 2.521 . S
La2552 O2573 2.628 . S
La2552 O2574 2.554 . S
La2552 O2575 2.757 . S
La2552 O2576 2.470 . S
La2552 O2581 2.482 . S
La2552 O2583 2.503 . S
La2553 C2563 2.928 . S
La2553 O2575 2.482 . S
La2553 O2577 2.503 . S
La2553 O2578 2.521 . S
La2553 O2579 2.628 . S
La2553 O2580 2.554 . S
La2553 O2581 2.757 . S
La2553 O2582 2.470 . S
C2554 La2552 2.928 . S
C2554 C2555 1.503 . S
C2554 O2572 1.261 . S
C2554 O2573 1.243 . S
C2555 C2554 1.503 . S
C2555 C2556 1.394 . S
C2555 C2560 1.373 . S
C2556 C2555 1.394 . S
C2556 C2557 1.380 . S
C2556 H2584 0.930 . S
C2557 C2556 1.380 . S
C2557 C2558 1.376 . S
C2557 H2585 0.930 . S
C2558 C2557 1.376 . S
C2558 C2559 1.370 . S
C2559 C2558 1.370 . S
C2559 C2560 1.396 . S
C2559 H2586 0.929 . S
C2560 C2555 1.373 . S
C2560 C2559 1.396 . S
C2560 H2587 0.929 . S
C2561 O2574 1.240 . S
C2561 O2575 1.289 . S
C2562 O2576 1.258 . S
C2562 O2577 1.256 . S
C2563 La2553 2.928 . S
C2563 C2564 1.503 . S
C2563 O2578 1.261 . S
C2563 O2579 1.243 . S
C2564 C2563 1.503 . S
C2564 C2565 1.394 . S
C2564 C2569 1.373 . S
C2565 C2564 1.394 . S
C2565 C2566 1.380 . S
C2565 H2588 0.930 . S
C2566 C2565 1.380 . S
C2566 C2567 1.376 . S
C2566 H2589 0.930 . S
C2567 C2566 1.376 . S
C2567 C2568 1.370 . S
C2568 C2567 1.370 . S
C2568 C2569 1.396 . S
C2568 H2590 0.929 . S
C2569 C2564 1.373 . S
C2569 C2568 1.396 . S
C2569 H2591 0.929 . S
C2570 O2580 1.240 . S
C2570 O2581 1.289 . S
C2571 O2582 1.258 . S
C2571 O2583 1.256 . S
O2572 La2552 2.521 . S
O2572 C2554 1.261 . S
O2573 La2552 2.628 . S
O2573 C2554 1.243 . S
O2574 La2552 2.554 . S
O2574 C2561 1.240 . S
O2575 La2552 2.757 . S
O2575 La2553 2.482 . S
O2575 C2561 1.289 . S
O2576 La2552 2.470 . S
O2576 C2562 1.258 . S
O2577 La2553 2.503 . S
O2577 C2562 1.256 . S
O2578 La2553 2.521 . S
O2578 C2563 1.261 . S
O2579 La2553 2.628 . S
O2579 C2563 1.243 . S
O2580 La2553 2.554 . S
O2580 C2570 1.240 . S
O2581 La2552 2.482 . S
O2581 La2553 2.757 . S
O2581 C2570 1.289 . S
O2582 La2553 2.470 . S
O2582 C2571 1.258 . S
O2583 La2552 2.503 . S
O2583 C2571 1.256 . S
H2584 C2556 0.930 . S
H2585 C2557 0.930 . S
H2586 C2559 0.929 . S
H2587 C2560 0.929 . S
H2588 C2565 0.930 . S
H2589 C2566 0.930 . S
H2590 C2568 0.929 . S
H2591 C2569 0.929 . S
La2592 C2594 2.928 . S
La2592 O2612 2.521 . S
La2592 O2613 2.628 . S
La2592 O2614 2.554 . S
La2592 O2615 2.757 . S
La2592 O2616 2.470 . S
La2592 O2621 2.482 . S
La2592 O2623 2.503 . S
La2593 C2603 2.928 . S
La2593 O2615 2.482 . S
La2593 O2617 2.503 . S
La2593 O2618 2.521 . S
La2593 O2619 2.628 . S
La2593 O2620 2.554 . S
La2593 O2621 2.757 . S
La2593 O2622 2.470 . S
C2594 La2592 2.928 . S
C2594 C2595 1.503 . S
C2594 O2612 1.261 . S
C2594 O2613 1.243 . S
C2595 C2594 1.503 . S
C2595 C2596 1.394 . S
C2595 C2600 1.373 . S
C2596 C2595 1.394 . S
C2596 C2597 1.380 . S
C2596 H2624 0.930 . S
C2597 C2596 1.380 . S
C2597 C2598 1.376 . S
C2597 H2625 0.930 . S
C2598 C2597 1.376 . S
C2598 C2599 1.370 . S
C2599 C2598 1.370 . S
C2599 C2600 1.396 . S
C2599 H2626 0.929 . S
C2600 C2595 1.373 . S
C2600 C2599 1.396 . S
C2600 H2627 0.929 . S
C2601 O2614 1.240 . S
C2601 O2615 1.289 . S
C2602 O2616 1.258 . S
C2602 O2617 1.256 . S
C2603 La2593 2.928 . S
C2603 C2604 1.503 . S
C2603 O2618 1.261 . S
C2603 O2619 1.243 . S
C2604 C2603 1.503 . S
C2604 C2605 1.394 . S
C2604 C2609 1.373 . S
C2605 C2604 1.394 . S
C2605 C2606 1.380 . S
C2605 H2628 0.930 . S
C2606 C2605 1.380 . S
C2606 C2607 1.376 . S
C2606 H2629 0.930 . S
C2607 C2606 1.376 . S
C2607 C2608 1.370 . S
C2608 C2607 1.370 . S
C2608 C2609 1.396 . S
C2608 H2630 0.929 . S
C2609 C2604 1.373 . S
C2609 C2608 1.396 . S
C2609 H2631 0.929 . S
C2610 O2620 1.240 . S
C2610 O2621 1.289 . S
C2611 O2622 1.258 . S
C2611 O2623 1.256 . S
O2612 La2592 2.521 . S
O2612 C2594 1.261 . S
O2613 La2592 2.628 . S
O2613 C2594 1.243 . S
O2614 La2592 2.554 . S
O2614 C2601 1.240 . S
O2615 La2592 2.757 . S
O2615 La2593 2.482 . S
O2615 C2601 1.289 . S
O2616 La2592 2.470 . S
O2616 C2602 1.258 . S
O2617 La2593 2.503 . S
O2617 C2602 1.256 . S
O2618 La2593 2.521 . S
O2618 C2603 1.261 . S
O2619 La2593 2.628 . S
O2619 C2603 1.243 . S
O2620 La2593 2.554 . S
O2620 C2610 1.240 . S
O2621 La2592 2.482 . S
O2621 La2593 2.757 . S
O2621 C2610 1.289 . S
O2622 La2593 2.470 . S
O2622 C2611 1.258 . S
O2623 La2592 2.503 . S
O2623 C2611 1.256 . S
H2624 C2596 0.930 . S
H2625 C2597 0.930 . S
H2626 C2599 0.929 . S
H2627 C2600 0.929 . S
H2628 C2605 0.930 . S
H2629 C2606 0.930 . S
H2630 C2608 0.929 . S
H2631 C2609 0.929 . S
La2632 C2634 2.928 . S
La2632 O2652 2.521 . S
La2632 O2653 2.628 . S
La2632 O2654 2.554 . S
La2632 O2655 2.757 . S
La2632 O2656 2.470 . S
La2632 O2661 2.482 . S
La2632 O2663 2.503 . S
La2633 C2643 2.928 . S
La2633 O2655 2.482 . S
La2633 O2657 2.503 . S
La2633 O2658 2.521 . S
La2633 O2659 2.628 . S
La2633 O2660 2.554 . S
La2633 O2661 2.757 . S
La2633 O2662 2.470 . S
C2634 La2632 2.928 . S
C2634 C2635 1.503 . S
C2634 O2652 1.261 . S
C2634 O2653 1.243 . S
C2635 C2634 1.503 . S
C2635 C2636 1.394 . S
C2635 C2640 1.373 . S
C2636 C2635 1.394 . S
C2636 C2637 1.380 . S
C2636 H2664 0.930 . S
C2637 C2636 1.380 . S
C2637 C2638 1.376 . S
C2637 H2665 0.930 . S
C2638 C2637 1.376 . S
C2638 C2639 1.370 . S
C2639 C2638 1.370 . S
C2639 C2640 1.396 . S
C2639 H2666 0.929 . S
C2640 C2635 1.373 . S
C2640 C2639 1.396 . S
C2640 H2667 0.929 . S
C2641 O2654 1.240 . S
C2641 O2655 1.289 . S
C2642 O2656 1.258 . S
C2642 O2657 1.256 . S
C2643 La2633 2.928 . S
C2643 C2644 1.503 . S
C2643 O2658 1.261 . S
C2643 O2659 1.243 . S
C2644 C2643 1.503 . S
C2644 C2645 1.394 . S
C2644 C2649 1.373 . S
C2645 C2644 1.394 . S
C2645 C2646 1.380 . S
C2645 H2668 0.930 . S
C2646 C2645 1.380 . S
C2646 C2647 1.376 . S
C2646 H2669 0.930 . S
C2647 C2646 1.376 . S
C2647 C2648 1.370 . S
C2648 C2647 1.370 . S
C2648 C2649 1.396 . S
C2648 H2670 0.929 . S
C2649 C2644 1.373 . S
C2649 C2648 1.396 . S
C2649 H2671 0.929 . S
C2650 O2660 1.240 . S
C2650 O2661 1.289 . S
C2651 O2662 1.258 . S
C2651 O2663 1.256 . S
O2652 La2632 2.521 . S
O2652 C2634 1.261 . S
O2653 La2632 2.628 . S
O2653 C2634 1.243 . S
O2654 La2632 2.554 . S
O2654 C2641 1.240 . S
O2655 La2632 2.757 . S
O2655 La2633 2.482 . S
O2655 C2641 1.289 . S
O2656 La2632 2.470 . S
O2656 C2642 1.258 . S
O2657 La2633 2.503 . S
O2657 C2642 1.256 . S
O2658 La2633 2.521 . S
O2658 C2643 1.261 . S
O2659 La2633 2.628 . S
O2659 C2643 1.243 . S
O2660 La2633 2.554 . S
O2660 C2650 1.240 . S
O2661 La2632 2.482 . S
O2661 La2633 2.757 . S
O2661 C2650 1.289 . S
O2662 La2633 2.470 . S
O2662 C2651 1.258 . S
O2663 La2632 2.503 . S
O2663 C2651 1.256 . S
H2664 C2636 0.930 . S
H2665 C2637 0.930 . S
H2666 C2639 0.929 . S
H2667 C2640 0.929 . S
H2668 C2645 0.930 . S
H2669 C2646 0.930 . S
H2670 C2648 0.929 . S
H2671 C2649 0.929 . S
La2672 C2674 2.928 . S
La2672 O2692 2.521 . S
La2672 O2693 2.628 . S
La2672 O2694 2.554 . S
La2672 O2695 2.757 . S
La2672 O2696 2.470 . S
La2672 O2701 2.482 . S
La2672 O2703 2.503 . S
La2673 C2683 2.928 . S
La2673 O2695 2.482 . S
La2673 O2697 2.503 . S
La2673 O2698 2.521 . S
La2673 O2699 2.628 . S
La2673 O2700 2.554 . S
La2673 O2701 2.757 . S
La2673 O2702 2.470 . S
C2674 La2672 2.928 . S
C2674 C2675 1.503 . S
C2674 O2692 1.261 . S
C2674 O2693 1.243 . S
C2675 C2674 1.503 . S
C2675 C2676 1.394 . S
C2675 C2680 1.373 . S
C2676 C2675 1.394 . S
C2676 C2677 1.380 . S
C2676 H2704 0.930 . S
C2677 C2676 1.380 . S
C2677 C2678 1.376 . S
C2677 H2705 0.930 . S
C2678 C2677 1.376 . S
C2678 C2679 1.370 . S
C2679 C2678 1.370 . S
C2679 C2680 1.396 . S
C2679 H2706 0.929 . S
C2680 C2675 1.373 . S
C2680 C2679 1.396 . S
C2680 H2707 0.929 . S
C2681 O2694 1.240 . S
C2681 O2695 1.289 . S
C2682 O2696 1.258 . S
C2682 O2697 1.256 . S
C2683 La2673 2.928 . S
C2683 C2684 1.503 . S
C2683 O2698 1.261 . S
C2683 O2699 1.243 . S
C2684 C2683 1.503 . S
C2684 C2685 1.394 . S
C2684 C2689 1.373 . S
C2685 C2684 1.394 . S
C2685 C2686 1.380 . S
C2685 H2708 0.930 . S
C2686 C2685 1.380 . S
C2686 C2687 1.376 . S
C2686 H2709 0.930 . S
C2687 C2686 1.376 . S
C2687 C2688 1.370 . S
C2688 C2687 1.370 . S
C2688 C2689 1.396 . S
C2688 H2710 0.929 . S
C2689 C2684 1.373 . S
C2689 C2688 1.396 . S
C2689 H2711 0.929 . S
C2690 O2700 1.240 . S
C2690 O2701 1.289 . S
C2691 O2702 1.258 . S
C2691 O2703 1.256 . S
O2692 La2672 2.521 . S
O2692 C2674 1.261 . S
O2693 La2672 2.628 . S
O2693 C2674 1.243 . S
O2694 La2672 2.554 . S
O2694 C2681 1.240 . S
O2695 La2672 2.757 . S
O2695 La2673 2.482 . S
O2695 C2681 1.289 . S
O2696 La2672 2.470 . S
O2696 C2682 1.258 . S
O2697 La2673 2.503 . S
O2697 C2682 1.256 . S
O2698 La2673 2.521 . S
O2698 C2683 1.261 . S
O2699 La2673 2.628 . S
O2699 C2683 1.243 . S
O2700 La2673 2.554 . S
O2700 C2690 1.240 . S
O2701 La2672 2.482 . S
O2701 La2673 2.757 . S
O2701 C2690 1.289 . S
O2702 La2673 2.470 . S
O2702 C2691 1.258 . S
O2703 La2672 2.503 . S
O2703 C2691 1.256 . S
H2704 C2676 0.930 . S
H2705 C2677 0.930 . S
H2706 C2679 0.929 . S
H2707 C2680 0.929 . S
H2708 C2685 0.930 . S
H2709 C2686 0.930 . S
H2710 C2688 0.929 . S
H2711 C2689 0.929 . S
La2712 C2714 2.928 1_554 S
La2712 O2732 2.521 1_554 S
La2712 O2733 2.628 . S
La2712 O2734 2.554 1_554 S
La2712 O2735 2.757 1_554 S
La2712 O2736 2.470 1_554 S
La2712 O2741 2.482 . S
La2712 O2743 2.503 . S
La2713 C2723 2.928 1_455 S
La2713 O2735 2.482 1_554 S
La2713 O2737 2.503 . S
La2713 O2738 2.521 1_455 S
La2713 O2739 2.628 1_455 S
La2713 O2740 2.554 . S
La2713 O2741 2.757 . S
La2713 O2742 2.470 . S
C2714 La2712 2.928 1_556 S
C2714 C2715 1.503 . S
C2714 O2732 1.261 . S
C2714 O2733 1.243 1_556 S
C2715 C2714 1.503 . S
C2715 C2716 1.394 . S
C2715 C2720 1.373 1_556 S
C2716 C2715 1.394 . S
C2716 C2717 1.380 . S
C2716 H2744 0.930 . S
C2717 C2716 1.380 . S
C2717 C2718 1.376 . S
C2717 H2745 0.930 . S
C2718 C2717 1.376 . S
C2718 C2719 1.352 1_556 S
C2719 C2718 1.352 1_554 S
C2719 C2720 1.399 . S
C2719 H2746 0.944 . S
C2720 C2715 1.373 1_554 S
C2720 C2719 1.399 . S
C2720 H2747 0.929 . S
C2721 O2734 1.240 . S
C2721 O2735 1.289 . S
C2722 O2736 1.246 1_554 S
C2722 O2737 1.264 . S
C2723 La2713 2.928 1_655 S
C2723 C2724 1.503 . S
C2723 O2738 1.261 . S
C2723 O2739 1.243 . S
C2724 C2723 1.503 . S
C2724 C2725 1.394 . S
C2724 C2729 1.373 . S
C2725 C2724 1.394 . S
C2725 C2726 1.380 . S
C2725 H2748 0.930 . S
C2726 C2725 1.380 . S
C2726 C2727 1.376 . S
C2726 H2749 0.930 . S
C2727 C2726 1.376 . S
C2727 C2728 1.370 . S
C2728 C2727 1.370 . S
C2728 C2729 1.396 . S
C2728 H2750 0.929 . S
C2729 C2724 1.373 . S
C2729 C2728 1.396 . S
C2729 H2751 0.929 . S
C2730 O2740 1.240 . S
C2730 O2741 1.289 . S
C2731 O2742 1.258 . S
C2731 O2743 1.256 . S
O2732 La2712 2.521 1_556 S
O2732 C2714 1.261 . S
O2733 La2712 2.628 . S
O2733 C2714 1.243 1_554 S
O2734 La2712 2.554 1_556 S
O2734 C2721 1.240 . S
O2735 La2712 2.757 1_556 S
O2735 La2713 2.482 1_556 S
O2735 C2721 1.289 . S
O2736 La2712 2.470 1_556 S
O2736 C2722 1.246 1_556 S
O2737 La2713 2.503 . S
O2737 C2722 1.264 . S
O2738 La2713 2.521 1_655 S
O2738 C2723 1.261 . S
O2739 La2713 2.628 1_655 S
O2739 C2723 1.243 . S
O2740 La2713 2.554 . S
O2740 C2730 1.240 . S
O2741 La2712 2.482 . S
O2741 La2713 2.757 . S
O2741 C2730 1.289 . S
O2742 La2713 2.470 . S
O2742 C2731 1.258 . S
O2743 La2712 2.503 . S
O2743 C2731 1.256 . S
H2744 C2716 0.930 . S
H2745 C2717 0.930 . S
H2746 C2719 0.944 . S
H2747 C2720 0.929 . S
H2748 C2725 0.930 . S
H2749 C2726 0.930 . S
H2750 C2728 0.929 . S
H2751 C2729 0.929 . S
C2752 C2753 1.391 . S
C2752 C2754 1.394 . S
C2752 H2768 0.931 1_556 S
C2753 C2752 1.391 . S
C2753 C2757 1.376 . S
C2754 C2752 1.394 . S
C2754 C2755 1.369 . S
C2754 C2758 1.531 1_556 S
C2755 C2754 1.369 . S
C2755 C2756 1.410 . S
C2755 C2763 1.503 . S
C2756 C2755 1.410 . S
C2756 C2757 1.392 . S
C2756 C2759 1.511 . S
C2757 C2753 1.376 . S
C2757 C2756 1.392 . S
C2757 H2769 0.929 . S
C2758 C2754 1.531 1_554 S
C2758 H2770 0.960 . S
C2758 H2771 0.962 . S
C2758 H2772 0.960 . S
C2759 C2756 1.511 . S
C2759 H2773 0.961 . S
C2759 H2774 0.961 . S
C2759 H2775 0.961 . S
C2760 C2761 1.368 . S
C2760 C2762 1.367 . S
C2760 H2776 0.928 1_556 S
C2761 C2760 1.368 . S
C2761 C2765 1.408 . S
C2762 C2760 1.367 . S
C2762 C2763 1.370 . S
C2762 C2766 1.524 . S
C2763 C2755 1.503 . S
C2763 C2762 1.370 . S
C2763 C2764 1.403 . S
C2764 C2763 1.403 . S
C2764 C2765 1.404 . S
C2764 C2767 1.539 1_455 S
C2765 C2761 1.408 . S
C2765 C2764 1.404 . S
C2765 H2777 0.930 . S
C2766 C2762 1.524 . S
C2766 H2778 0.956 1_556 S
C2766 H2779 0.961 . S
C2766 H2780 0.961 . S
C2767 C2764 1.539 1_655 S
C2767 H2781 0.958 . S
C2767 H2782 0.961 . S
C2767 H2783 0.960 . S
H2768 C2752 0.931 1_554 S
H2769 C2757 0.929 . S
H2770 C2758 0.960 . S
H2771 C2758 0.962 . S
H2772 C2758 0.960 . S
H2773 C2759 0.961 . S
H2774 C2759 0.961 . S
H2775 C2759 0.961 . S
H2776 C2760 0.928 1_554 S
H2777 C2765 0.930 . S
H2778 C2766 0.956 1_554 S
H2779 C2766 0.961 . S
H2780 C2766 0.961 . S
H2781 C2767 0.958 . S
H2782 C2767 0.961 . S
H2783 C2767 0.960 . S
C2784 C2785 1.391 . S
C2784 C2786 1.394 . S
C2784 H2800 0.931 . S
C2785 C2784 1.391 . S
C2785 C2789 1.376 . S
C2786 C2784 1.394 . S
C2786 C2787 1.369 . S
C2786 C2790 1.531 . S
C2787 C2786 1.369 . S
C2787 C2788 1.410 . S
C2787 C2795 1.503 . S
C2788 C2787 1.410 . S
C2788 C2789 1.392 . S
C2788 C2791 1.511 . S
C2789 C2785 1.376 . S
C2789 C2788 1.392 . S
C2789 H2801 0.929 . S
C2790 C2786 1.531 . S
C2790 H2802 0.960 . S
C2790 H2803 0.962 . S
C2790 H2804 0.960 . S
C2791 C2788 1.511 . S
C2791 H2805 0.961 . S
C2791 H2806 0.961 . S
C2791 H2807 0.961 . S
C2792 C2793 1.370 . S
C2792 C2794 1.363 . S
C2792 H2808 0.931 . S
C2793 C2792 1.370 . S
C2793 C2797 1.408 . S
C2794 C2792 1.363 . S
C2794 C2795 1.370 . S
C2794 C2798 1.524 . S
C2795 C2787 1.503 . S
C2795 C2794 1.370 . S
C2795 C2796 1.403 . S
C2796 C2795 1.403 . S
C2796 C2797 1.404 . S
C2796 C2799 1.539 . S
C2797 C2793 1.408 . S
C2797 C2796 1.404 . S
C2797 H2809 0.930 . S
C2798 C2794 1.524 . S
C2798 H2810 0.956 . S
C2798 H2811 0.961 . S
C2798 H2812 0.961 . S
C2799 C2796 1.539 . S
C2799 H2813 0.958 . S
C2799 H2814 0.961 . S
C2799 H2815 0.960 . S
H2800 C2784 0.931 . S
H2801 C2789 0.929 . S
H2802 C2790 0.960 . S
H2803 C2790 0.962 . S
H2804 C2790 0.960 . S
H2805 C2791 0.961 . S
H2806 C2791 0.961 . S
H2807 C2791 0.961 . S
H2808 C2792 0.931 . S
H2809 C2797 0.930 . S
H2810 C2798 0.956 . S
H2811 C2798 0.961 . S
H2812 C2798 0.961 . S
H2813 C2799 0.958 . S
H2814 C2799 0.961 . S
H2815 C2799 0.960 . S
C2816 C2817 1.391 . S
C2816 C2818 1.394 . S
C2816 H2832 0.931 . S
C2817 C2816 1.391 . S
C2817 C2821 1.376 . S
C2818 C2816 1.394 . S
C2818 C2819 1.369 . S
C2818 C2822 1.531 . S
C2819 C2818 1.369 . S
C2819 C2820 1.410 . S
C2819 C2827 1.503 . S
C2820 C2819 1.410 . S
C2820 C2821 1.392 . S
C2820 C2823 1.511 . S
C2821 C2817 1.376 . S
C2821 C2820 1.392 . S
C2821 H2833 0.929 . S
C2822 C2818 1.531 . S
C2822 H2834 0.960 . S
C2822 H2835 0.962 . S
C2822 H2836 0.960 . S
C2823 C2820 1.511 . S
C2823 H2837 0.961 . S
C2823 H2838 0.961 . S
C2823 H2839 0.961 . S
C2824 C2825 1.370 . S
C2824 C2826 1.363 . S
C2824 H2840 0.931 . S
C2825 C2824 1.370 . S
C2825 C2829 1.408 . S
C2826 C2824 1.363 . S
C2826 C2827 1.370 . S
C2826 C2830 1.524 . S
C2827 C2819 1.503 . S
C2827 C2826 1.370 . S
C2827 C2828 1.403 . S
C2828 C2827 1.403 . S
C2828 C2829 1.404 . S
C2828 C2831 1.539 . S
C2829 C2825 1.408 . S
C2829 C2828 1.404 . S
C2829 H2841 0.930 . S
C2830 C2826 1.524 . S
C2830 H2842 0.956 . S
C2830 H2843 0.961 . S
C2830 H2844 0.961 . S
C2831 C2828 1.539 . S
C2831 H2845 0.958 . S
C2831 H2846 0.961 . S
C2831 H2847 0.960 . S
H2832 C2816 0.931 . S
H2833 C2821 0.929 . S
H2834 C2822 0.960 . S
H2835 C2822 0.962 . S
H2836 C2822 0.960 . S
H2837 C2823 0.961 . S
H2838 C2823 0.961 . S
H2839 C2823 0.961 . S
H2840 C2824 0.931 . S
H2841 C2829 0.930 . S
H2842 C2830 0.956 . S
H2843 C2830 0.961 . S
H2844 C2830 0.961 . S
H2845 C2831 0.958 . S
H2846 C2831 0.961 . S
H2847 C2831 0.960 . S
C2848 C2849 1.391 . S
C2848 C2850 1.394 . S
C2848 H2864 0.931 . S
C2849 C2848 1.391 . S
C2849 C2853 1.376 . S
C2850 C2848 1.394 . S
C2850 C2851 1.369 . S
C2850 C2854 1.531 . S
C2851 C2850 1.369 . S
C2851 C2852 1.410 . S
C2851 C2859 1.503 . S
C2852 C2851 1.410 . S
C2852 C2853 1.392 . S
C2852 C2855 1.511 . S
C2853 C2849 1.376 . S
C2853 C2852 1.392 . S
C2853 H2865 0.929 . S
C2854 C2850 1.531 . S
C2854 H2866 0.960 . S
C2854 H2867 0.962 . S
C2854 H2868 0.960 . S
C2855 C2852 1.511 . S
C2855 H2869 0.961 . S
C2855 H2870 0.961 . S
C2855 H2871 0.961 . S
C2856 C2857 1.370 . S
C2856 C2858 1.363 . S
C2856 H2872 0.931 . S
C2857 C2856 1.370 . S
C2857 C2861 1.408 . S
C2858 C2856 1.363 . S
C2858 C2859 1.370 . S
C2858 C2862 1.524 . S
C2859 C2851 1.503 . S
C2859 C2858 1.370 . S
C2859 C2860 1.403 . S
C2860 C2859 1.403 . S
C2860 C2861 1.404 . S
C2860 C2863 1.539 . S
C2861 C2857 1.408 . S
C2861 C2860 1.404 . S
C2861 H2873 0.930 . S
C2862 C2858 1.524 . S
C2862 H2874 0.956 . S
C2862 H2875 0.961 . S
C2862 H2876 0.961 . S
C2863 C2860 1.539 . S
C2863 H2877 0.958 . S
C2863 H2878 0.961 . S
C2863 H2879 0.960 . S
H2864 C2848 0.931 . S
H2865 C2853 0.929 . S
H2866 C2854 0.960 . S
H2867 C2854 0.962 . S
H2868 C2854 0.960 . S
H2869 C2855 0.961 . S
H2870 C2855 0.961 . S
H2871 C2855 0.961 . S
H2872 C2856 0.931 . S
H2873 C2861 0.930 . S
H2874 C2862 0.956 . S
H2875 C2862 0.961 . S
H2876 C2862 0.961 . S
H2877 C2863 0.958 . S
H2878 C2863 0.961 . S
H2879 C2863 0.960 . S
C2880 C2881 1.391 . S
C2880 C2882 1.394 . S
C2880 H2896 0.931 . S
C2881 C2880 1.391 . S
C2881 C2885 1.376 . S
C2882 C2880 1.394 . S
C2882 C2883 1.369 . S
C2882 C2886 1.531 . S
C2883 C2882 1.369 . S
C2883 C2884 1.410 . S
C2883 C2891 1.503 . S
C2884 C2883 1.410 . S
C2884 C2885 1.392 . S
C2884 C2887 1.511 . S
C2885 C2881 1.376 . S
C2885 C2884 1.392 . S
C2885 H2897 0.929 1_455 S
C2886 C2882 1.531 . S
C2886 H2898 0.960 . S
C2886 H2899 0.962 . S
C2886 H2900 0.960 . S
C2887 C2884 1.511 . S
C2887 H2901 0.961 1_455 S
C2887 H2902 0.961 . S
C2887 H2903 0.961 1_455 S
C2888 C2889 1.370 . S
C2888 C2890 1.363 . S
C2888 H2904 0.931 . S
C2889 C2888 1.370 . S
C2889 C2893 1.408 . S
C2890 C2888 1.363 . S
C2890 C2891 1.370 . S
C2890 C2894 1.524 . S
C2891 C2883 1.503 . S
C2891 C2890 1.370 . S
C2891 C2892 1.403 . S
C2892 C2891 1.403 . S
C2892 C2893 1.404 . S
C2892 C2895 1.539 . S
C2893 C2889 1.408 . S
C2893 C2892 1.404 . S
C2893 H2905 0.930 . S
C2894 C2890 1.524 . S
C2894 H2906 0.956 . S
C2894 H2907 0.961 . S
C2894 H2908 0.961 . S
C2895 C2892 1.539 . S
C2895 H2909 0.958 . S
C2895 H2910 0.961 . S
C2895 H2911 0.960 . S
H2896 C2880 0.931 . S
H2897 C2885 0.929 1_655 S
H2898 C2886 0.960 . S
H2899 C2886 0.962 . S
H2900 C2886 0.960 . S
H2901 C2887 0.961 1_655 S
H2902 C2887 0.961 . S
H2903 C2887 0.961 1_655 S
H2904 C2888 0.931 . S
H2905 C2893 0.930 . S
H2906 C2894 0.956 . S
H2907 C2894 0.961 . S
H2908 C2894 0.961 . S
H2909 C2895 0.958 . S
H2910 C2895 0.961 . S
H2911 C2895 0.960 . S
C2912 C2913 1.391 . S
C2912 C2914 1.394 . S
C2912 H2928 0.931 . S
C2913 C2912 1.391 . S
C2913 C2917 1.376 . S
C2914 C2912 1.394 . S
C2914 C2915 1.369 . S
C2914 C2918 1.531 . S
C2915 C2914 1.369 . S
C2915 C2916 1.410 . S
C2915 C2923 1.503 . S
C2916 C2915 1.410 . S
C2916 C2917 1.392 . S
C2916 C2919 1.511 . S
C2917 C2913 1.376 . S
C2917 C2916 1.392 . S
C2917 H2929 0.929 . S
C2918 C2914 1.531 . S
C2918 H2930 0.960 . S
C2918 H2931 0.962 . S
C2918 H2932 0.960 . S
C2919 C2916 1.511 . S
C2919 H2933 0.961 . S
C2919 H2934 0.961 . S
C2919 H2935 0.961 . S
C2920 C2921 1.370 . S
C2920 C2922 1.363 . S
C2920 H2936 0.931 . S
C2921 C2920 1.370 . S
C2921 C2925 1.408 . S
C2922 C2920 1.363 . S
C2922 C2923 1.370 . S
C2922 C2926 1.524 . S
C2923 C2915 1.503 . S
C2923 C2922 1.370 . S
C2923 C2924 1.403 . S
C2924 C2923 1.403 . S
C2924 C2925 1.404 . S
C2924 C2927 1.539 . S
C2925 C2921 1.408 . S
C2925 C2924 1.404 . S
C2925 H2937 0.930 . S
C2926 C2922 1.524 . S
C2926 H2938 0.956 . S
C2926 H2939 0.961 . S
C2926 H2940 0.961 . S
C2927 C2924 1.539 . S
C2927 H2941 0.958 . S
C2927 H2942 0.961 . S
C2927 H2943 0.960 . S
H2928 C2912 0.931 . S
H2929 C2917 0.929 . S
H2930 C2918 0.960 . S
H2931 C2918 0.962 . S
H2932 C2918 0.960 . S
H2933 C2919 0.961 . S
H2934 C2919 0.961 . S
H2935 C2919 0.961 . S
H2936 C2920 0.931 . S
H2937 C2925 0.930 . S
H2938 C2926 0.956 . S
H2939 C2926 0.961 . S
H2940 C2926 0.961 . S
H2941 C2927 0.958 . S
H2942 C2927 0.961 . S
H2943 C2927 0.960 . S
C2944 C2945 1.391 . S
C2944 C2946 1.394 . S
C2944 H2960 0.931 . S
C2945 C2944 1.391 . S
C2945 C2949 1.376 . S
C2946 C2944 1.394 . S
C2946 C2947 1.369 . S
C2946 C2950 1.531 . S
C2947 C2946 1.369 . S
C2947 C2948 1.410 . S
C2947 C2955 1.503 . S
C2948 C2947 1.410 . S
C2948 C2949 1.392 . S
C2948 C2951 1.511 . S
C2949 C2945 1.376 . S
C2949 C2948 1.392 . S
C2949 H2961 0.929 . S
C2950 C2946 1.531 . S
C2950 H2962 0.960 . S
C2950 H2963 0.962 . S
C2950 H2964 0.960 . S
C2951 C2948 1.511 . S
C2951 H2965 0.961 . S
C2951 H2966 0.961 . S
C2951 H2967 0.961 . S
C2952 C2953 1.370 . S
C2952 C2954 1.363 . S
C2952 H2968 0.931 . S
C2953 C2952 1.370 . S
C2953 C2957 1.408 . S
C2954 C2952 1.363 . S
C2954 C2955 1.370 . S
C2954 C2958 1.524 . S
C2955 C2947 1.503 . S
C2955 C2954 1.370 . S
C2955 C2956 1.403 . S
C2956 C2955 1.403 . S
C2956 C2957 1.404 . S
C2956 C2959 1.539 . S
C2957 C2953 1.408 . S
C2957 C2956 1.404 . S
C2957 H2969 0.930 . S
C2958 C2954 1.524 . S
C2958 H2970 0.956 . S
C2958 H2971 0.961 . S
C2958 H2972 0.961 . S
C2959 C2956 1.539 . S
C2959 H2973 0.958 . S
C2959 H2974 0.961 . S
C2959 H2975 0.960 . S
H2960 C2944 0.931 . S
H2961 C2949 0.929 . S
H2962 C2950 0.960 . S
H2963 C2950 0.962 . S
H2964 C2950 0.960 . S
H2965 C2951 0.961 . S
H2966 C2951 0.961 . S
H2967 C2951 0.961 . S
H2968 C2952 0.931 . S
H2969 C2957 0.930 . S
H2970 C2958 0.956 . S
H2971 C2958 0.961 . S
H2972 C2958 0.961 . S
H2973 C2959 0.958 . S
H2974 C2959 0.961 . S
H2975 C2959 0.960 . S
C2976 C2977 1.391 . S
C2976 C2978 1.394 . S
C2976 H2992 0.931 . S
C2977 C2976 1.391 . S
C2977 C2981 1.376 . S
C2978 C2976 1.394 . S
C2978 C2979 1.369 . S
C2978 C2982 1.531 . S
C2979 C2978 1.369 . S
C2979 C2980 1.410 . S
C2979 C2987 1.503 . S
C2980 C2979 1.410 . S
C2980 C2981 1.392 . S
C2980 C2983 1.511 . S
C2981 C2977 1.376 . S
C2981 C2980 1.392 . S
C2981 H2993 0.929 . S
C2982 C2978 1.531 . S
C2982 H2994 0.960 . S
C2982 H2995 0.962 . S
C2982 H2996 0.960 . S
C2983 C2980 1.511 . S
C2983 H2997 0.961 . S
C2983 H2998 0.961 . S
C2983 H2999 0.961 . S
C2984 C2985 1.370 . S
C2984 C2986 1.363 . S
C2984 H3000 0.931 . S
C2985 C2984 1.370 . S
C2985 C2989 1.408 . S
C2986 C2984 1.363 . S
C2986 C2987 1.370 . S
C2986 C2990 1.524 . S
C2987 C2979 1.503 . S
C2987 C2986 1.370 . S
C2987 C2988 1.403 . S
C2988 C2987 1.403 . S
C2988 C2989 1.404 . S
C2988 C2991 1.539 . S
C2989 C2985 1.408 . S
C2989 C2988 1.404 . S
C2989 H3001 0.930 . S
C2990 C2986 1.524 . S
C2990 H3002 0.956 . S
C2990 H3003 0.961 . S
C2990 H3004 0.961 . S
C2991 C2988 1.539 . S
C2991 H3005 0.958 . S
C2991 H3006 0.961 . S
C2991 H3007 0.960 . S
H2992 C2976 0.931 . S
H2993 C2981 0.929 . S
H2994 C2982 0.960 . S
H2995 C2982 0.962 . S
H2996 C2982 0.960 . S
H2997 C2983 0.961 . S
H2998 C2983 0.961 . S
H2999 C2983 0.961 . S
H3000 C2984 0.931 . S
H3001 C2989 0.930 . S
H3002 C2990 0.956 . S
H3003 C2990 0.961 . S
H3004 C2990 0.961 . S
H3005 C2991 0.958 . S
H3006 C2991 0.961 . S
H3007 C2991 0.960 . S
C3008 C3009 1.391 . S
C3008 C3010 1.394 . S
C3008 H3024 0.931 . S
C3009 C3008 1.391 . S
C3009 C3013 1.376 1_655 S
C3010 C3008 1.394 . S
C3010 C3011 1.369 1_655 S
C3010 C3014 1.531 . S
C3011 C3010 1.369 1_455 S
C3011 C3012 1.410 . S
C3011 C3019 1.503 . S
C3012 C3011 1.410 . S
C3012 C3013 1.392 . S
C3012 C3015 1.511 . S
C3013 C3009 1.376 1_455 S
C3013 C3012 1.392 . S
C3013 H3025 0.929 . S
C3014 C3010 1.531 . S
C3014 H3026 0.960 . S
C3014 H3027 0.962 . S
C3014 H3028 0.960 . S
C3015 C3012 1.511 . S
C3015 H3029 0.961 . S
C3015 H3030 0.961 . S
C3015 H3031 0.961 . S
C3016 C3017 1.370 . S
C3016 C3018 1.363 . S
C3016 H3032 0.931 . S
C3017 C3016 1.370 . S
C3017 C3021 1.408 . S
C3018 C3016 1.363 . S
C3018 C3019 1.370 . S
C3018 C3022 1.524 1_455 S
C3019 C3011 1.503 . S
C3019 C3018 1.370 . S
C3019 C3020 1.403 . S
C3020 C3019 1.403 . S
C3020 C3021 1.404 . S
C3020 C3023 1.539 . S
C3021 C3017 1.408 . S
C3021 C3020 1.404 . S
C3021 H3033 0.930 . S
C3022 C3018 1.524 1_655 S
C3022 H3034 0.956 . S
C3022 H3035 0.961 . S
C3022 H3036 0.961 . S
C3023 C3020 1.539 . S
C3023 H3037 0.958 . S
C3023 H3038 0.961 . S
C3023 H3039 0.960 . S
H3024 C3008 0.931 . S
H3025 C3013 0.929 . S
H3026 C3014 0.960 . S
H3027 C3014 0.962 . S
H3028 C3014 0.960 . S
H3029 C3015 0.961 . S
H3030 C3015 0.961 . S
H3031 C3015 0.961 . S
H3032 C3016 0.931 . S
H3033 C3021 0.930 . S
H3034 C3022 0.956 . S
H3035 C3022 0.961 . S
H3036 C3022 0.961 . S
H3037 C3023 0.958 . S
H3038 C3023 0.961 . S
H3039 C3023 0.960 . S
C3040 C3041 1.391 . S
C3040 C3042 1.394 . S
C3040 H3056 0.931 . S
C3041 C3040 1.391 . S
C3041 C3045 1.376 . S
C3042 C3040 1.394 . S
C3042 C3043 1.369 . S
C3042 C3046 1.531 . S
C3043 C3042 1.369 . S
C3043 C3044 1.410 . S
C3043 C3051 1.503 . S
C3044 C3043 1.410 . S
C3044 C3045 1.392 . S
C3044 C3047 1.511 . S
C3045 C3041 1.376 . S
C3045 C3044 1.392 . S
C3045 H3057 0.929 . S
C3046 C3042 1.531 . S
C3046 H3058 0.960 . S
C3046 H3059 0.962 . S
C3046 H3060 0.960 . S
C3047 C3044 1.511 . S
C3047 H3061 0.961 . S
C3047 H3062 0.961 . S
C3047 H3063 0.961 . S
C3048 C3049 1.370 . S
C3048 C3050 1.363 . S
C3048 H3064 0.931 . S
C3049 C3048 1.370 . S
C3049 C3053 1.408 . S
C3050 C3048 1.363 . S
C3050 C3051 1.370 . S
C3050 C3054 1.524 . S
C3051 C3043 1.503 . S
C3051 C3050 1.370 . S
C3051 C3052 1.403 . S
C3052 C3051 1.403 . S
C3052 C3053 1.404 . S
C3052 C3055 1.539 . S
C3053 C3049 1.408 . S
C3053 C3052 1.404 . S
C3053 H3065 0.930 . S
C3054 C3050 1.524 . S
C3054 H3066 0.956 . S
C3054 H3067 0.961 . S
C3054 H3068 0.961 . S
C3055 C3052 1.539 . S
C3055 H3069 0.958 . S
C3055 H3070 0.961 . S
C3055 H3071 0.960 . S
H3056 C3040 0.931 . S
H3057 C3045 0.929 . S
H3058 C3046 0.960 . S
H3059 C3046 0.962 . S
H3060 C3046 0.960 . S
H3061 C3047 0.961 . S
H3062 C3047 0.961 . S
H3063 C3047 0.961 . S
H3064 C3048 0.931 . S
H3065 C3053 0.930 . S
H3066 C3054 0.956 . S
H3067 C3054 0.961 . S
H3068 C3054 0.961 . S
H3069 C3055 0.958 . S
H3070 C3055 0.961 . S
H3071 C3055 0.960 . S
C3072 C3073 1.391 . S
C3072 C3074 1.394 . S
C3072 H3088 0.931 . S
C3073 C3072 1.391 . S
C3073 C3077 1.376 . S
C3074 C3072 1.394 . S
C3074 C3075 1.369 . S
C3074 C3078 1.531 . S
C3075 C3074 1.369 . S
C3075 C3076 1.410 . S
C3075 C3083 1.503 . S
C3076 C3075 1.410 . S
C3076 C3077 1.392 . S
C3076 C3079 1.511 . S
C3077 C3073 1.376 . S
C3077 C3076 1.392 . S
C3077 H3089 0.929 . S
C3078 C3074 1.531 . S
C3078 H3090 0.960 . S
C3078 H3091 0.962 . S
C3078 H3092 0.960 . S
C3079 C3076 1.511 . S
C3079 H3093 1.019 . S
C3079 H3094 0.961 . S
C3079 H3095 0.961 . S
C3080 C3081 1.370 . S
C3080 C3082 1.363 . S
C3080 H3096 0.931 . S
C3081 C3080 1.370 . S
C3081 C3085 1.408 . S
C3082 C3080 1.363 . S
C3082 C3083 1.370 . S
C3082 C3086 1.524 . S
C3083 C3075 1.503 . S
C3083 C3082 1.370 . S
C3083 C3084 1.403 . S
C3084 C3083 1.403 . S
C3084 C3085 1.404 . S
C3084 C3087 1.539 . S
C3085 C3081 1.408 . S
C3085 C3084 1.404 . S
C3085 H3097 0.930 . S
C3086 C3082 1.524 . S
C3086 H3098 0.956 . S
C3086 H3099 0.961 . S
C3086 H3100 0.961 . S
C3087 C3084 1.539 . S
C3087 H3101 0.958 . S
C3087 H3102 0.961 . S
C3087 H3103 0.960 . S
H3088 C3072 0.931 . S
H3089 C3077 0.929 . S
H3090 C3078 0.960 . S
H3091 C3078 0.962 . S
H3092 C3078 0.960 . S
H3093 C3079 1.019 . S
H3094 C3079 0.961 . S
H3095 C3079 0.961 . S
H3096 C3080 0.931 . S
H3097 C3085 0.930 . S
H3098 C3086 0.956 . S
H3099 C3086 0.961 . S
H3100 C3086 0.961 . S
H3101 C3087 0.958 . S
H3102 C3087 0.961 . S
H3103 C3087 0.960 . S
C3104 C3105 1.391 . S
C3104 C3106 1.394 . S
C3104 H3120 0.931 . S
C3105 C3104 1.391 . S
C3105 C3109 1.376 . S
C3106 C3104 1.394 . S
C3106 C3107 1.369 . S
C3106 C3110 1.531 . S
C3107 C3106 1.369 . S
C3107 C3108 1.410 . S
C3107 C3115 1.503 . S
C3108 C3107 1.410 . S
C3108 C3109 1.392 . S
C3108 C3111 1.511 . S
C3109 C3105 1.376 . S
C3109 C3108 1.392 . S
C3109 H3121 0.929 . S
C3110 C3106 1.531 . S
C3110 H3122 0.960 . S
C3110 H3123 0.962 . S
C3110 H3124 0.960 . S
C3111 C3108 1.511 . S
C3111 H3125 0.961 . S
C3111 H3126 0.961 . S
C3111 H3127 0.961 . S
C3112 C3113 1.370 . S
C3112 C3114 1.363 . S
C3112 H3128 0.931 . S
C3113 C3112 1.370 . S
C3113 C3117 1.408 . S
C3114 C3112 1.363 . S
C3114 C3115 1.370 . S
C3114 C3118 1.524 . S
C3115 C3107 1.503 . S
C3115 C3114 1.370 . S
C3115 C3116 1.403 . S
C3116 C3115 1.403 . S
C3116 C3117 1.404 . S
C3116 C3119 1.539 . S
C3117 C3113 1.408 . S
C3117 C3116 1.404 . S
C3117 H3129 0.930 . S
C3118 C3114 1.524 . S
C3118 H3130 0.956 . S
C3118 H3131 0.961 . S
C3118 H3132 0.961 . S
C3119 C3116 1.539 . S
C3119 H3133 0.958 . S
C3119 H3134 0.961 . S
C3119 H3135 0.960 . S
H3120 C3104 0.931 . S
H3121 C3109 0.929 . S
H3122 C3110 0.960 . S
H3123 C3110 0.962 . S
H3124 C3110 0.960 . S
H3125 C3111 0.961 . S
H3126 C3111 0.961 . S
H3127 C3111 0.961 . S
H3128 C3112 0.931 . S
H3129 C3117 0.930 . S
H3130 C3118 0.956 . S
H3131 C3118 0.961 . S
H3132 C3118 0.961 . S
H3133 C3119 0.958 . S
H3134 C3119 0.961 . S
H3135 C3119 0.960 . S
C3136 C3137 1.391 . S
C3136 C3138 1.394 . S
C3136 H3152 0.931 . S
C3137 C3136 1.391 . S
C3137 C3141 1.376 1_655 S
C3138 C3136 1.394 . S
C3138 C3139 1.369 1_655 S
C3138 C3142 1.531 . S
C3139 C3138 1.369 1_455 S
C3139 C3140 1.410 . S
C3139 C3147 1.503 . S
C3140 C3139 1.410 . S
C3140 C3141 1.392 . S
C3140 C3143 1.511 . S
C3141 C3137 1.376 1_455 S
C3141 C3140 1.392 . S
C3141 H3153 0.929 . S
C3142 C3138 1.531 . S
C3142 H3154 0.960 . S
C3142 H3155 0.962 . S
C3142 H3156 0.960 . S
C3143 C3140 1.511 . S
C3143 H3157 0.961 . S
C3143 H3158 0.961 . S
C3143 H3159 0.961 . S
C3144 C3145 1.370 . S
C3144 C3146 1.363 . S
C3144 H3160 0.931 . S
C3145 C3144 1.370 . S
C3145 C3149 1.408 . S
C3146 C3144 1.363 . S
C3146 C3147 1.370 . S
C3146 C3150 1.524 . S
C3147 C3139 1.503 . S
C3147 C3146 1.370 . S
C3147 C3148 1.403 . S
C3148 C3147 1.403 . S
C3148 C3149 1.404 . S
C3148 C3151 1.539 . S
C3149 C3145 1.408 . S
C3149 C3148 1.404 . S
C3149 H3161 0.930 . S
C3150 C3146 1.524 . S
C3150 H3162 0.956 1_455 S
C3150 H3163 0.961 . S
C3150 H3164 0.961 . S
C3151 C3148 1.539 . S
C3151 H3165 0.958 . S
C3151 H3166 0.961 . S
C3151 H3167 0.960 . S
H3152 C3136 0.931 . S
H3153 C3141 0.929 . S
H3154 C3142 0.960 . S
H3155 C3142 0.962 . S
H3156 C3142 0.960 . S
H3157 C3143 0.961 . S
H3158 C3143 0.961 . S
H3159 C3143 0.961 . S
H3160 C3144 0.931 . S
H3161 C3149 0.930 . S
H3162 C3150 0.956 1_655 S
H3163 C3150 0.961 . S
H3164 C3150 0.961 . S
H3165 C3151 0.958 . S
H3166 C3151 0.961 . S
H3167 C3151 0.960 . S
C3168 C3169 1.391 . S
C3168 C3170 1.394 . S
C3168 H3184 0.931 . S
C3169 C3168 1.391 . S
C3169 C3173 1.376 . S
C3170 C3168 1.394 . S
C3170 C3171 1.369 . S
C3170 C3174 1.531 . S
C3171 C3170 1.369 . S
C3171 C3172 1.410 . S
C3171 C3179 1.503 . S
C3172 C3171 1.410 . S
C3172 C3173 1.392 . S
C3172 C3175 1.511 . S
C3173 C3169 1.376 . S
C3173 C3172 1.392 . S
C3173 H3185 0.929 . S
C3174 C3170 1.531 . S
C3174 H3186 0.960 . S
C3174 H3187 0.962 . S
C3174 H3188 0.960 . S
C3175 C3172 1.511 . S
C3175 H3189 0.961 . S
C3175 H3190 0.961 . S
C3175 H3191 0.961 . S
C3176 C3177 1.370 . S
C3176 C3178 1.363 . S
C3176 H3192 0.931 . S
C3177 C3176 1.370 . S
C3177 C3181 1.408 . S
C3178 C3176 1.363 . S
C3178 C3179 1.370 . S
C3178 C3182 1.524 . S
C3179 C3171 1.503 . S
C3179 C3178 1.370 . S
C3179 C3180 1.403 . S
C3180 C3179 1.403 . S
C3180 C3181 1.404 . S
C3180 C3183 1.539 . S
C3181 C3177 1.408 . S
C3181 C3180 1.404 . S
C3181 H3193 0.930 . S
C3182 C3178 1.524 . S
C3182 H3194 0.956 . S
C3182 H3195 0.961 . S
C3182 H3196 0.961 . S
C3183 C3180 1.539 . S
C3183 H3197 0.958 . S
C3183 H3198 0.961 . S
C3183 H3199 0.960 . S
H3184 C3168 0.931 . S
H3185 C3173 0.929 . S
H3186 C3174 0.960 . S
H3187 C3174 0.962 . S
H3188 C3174 0.960 . S
H3189 C3175 0.961 . S
H3190 C3175 0.961 . S
H3191 C3175 0.961 . S
H3192 C3176 0.931 . S
H3193 C3181 0.930 . S
H3194 C3182 0.956 . S
H3195 C3182 0.961 . S
H3196 C3182 0.961 . S
H3197 C3183 0.958 . S
H3198 C3183 0.961 . S
H3199 C3183 0.960 . S
C3200 C3201 1.391 . S
C3200 C3202 1.394 . S
C3200 H3216 0.931 . S
C3201 C3200 1.391 . S
C3201 C3205 1.376 . S
C3202 C3200 1.394 . S
C3202 C3203 1.369 . S
C3202 C3206 1.531 . S
C3203 C3202 1.369 . S
C3203 C3204 1.410 . S
C3203 C3211 1.503 . S
C3204 C3203 1.410 . S
C3204 C3205 1.392 . S
C3204 C3207 1.511 . S
C3205 C3201 1.376 . S
C3205 C3204 1.392 . S
C3205 H3217 0.929 . S
C3206 C3202 1.531 . S
C3206 H3218 0.960 . S
C3206 H3219 0.962 . S
C3206 H3220 0.960 . S
C3207 C3204 1.511 . S
C3207 H3221 0.961 . S
C3207 H3222 0.961 . S
C3207 H3223 0.961 . S
C3208 C3209 1.370 . S
C3208 C3210 1.363 . S
C3208 H3224 0.931 . S
C3209 C3208 1.370 . S
C3209 C3213 1.408 . S
C3210 C3208 1.363 . S
C3210 C3211 1.370 . S
C3210 C3214 1.524 . S
C3211 C3203 1.503 . S
C3211 C3210 1.370 . S
C3211 C3212 1.403 . S
C3212 C3211 1.403 . S
C3212 C3213 1.404 . S
C3212 C3215 1.539 . S
C3213 C3209 1.408 . S
C3213 C3212 1.404 . S
C3213 H3225 0.930 . S
C3214 C3210 1.524 . S
C3214 H3226 0.956 . S
C3214 H3227 0.961 . S
C3214 H3228 0.961 . S
C3215 C3212 1.539 . S
C3215 H3229 0.958 . S
C3215 H3230 0.961 . S
C3215 H3231 0.960 . S
H3216 C3200 0.931 . S
H3217 C3205 0.929 . S
H3218 C3206 0.960 . S
H3219 C3206 0.962 . S
H3220 C3206 0.960 . S
H3221 C3207 0.961 . S
H3222 C3207 0.961 . S
H3223 C3207 0.961 . S
H3224 C3208 0.931 . S
H3225 C3213 0.930 . S
H3226 C3214 0.956 . S
H3227 C3214 0.961 . S
H3228 C3214 0.961 . S
H3229 C3215 0.958 . S
H3230 C3215 0.961 . S
H3231 C3215 0.960 . S
C3232 C3233 1.391 . S
C3232 C3234 1.394 . S
C3232 H3248 0.931 . S
C3233 C3232 1.391 . S
C3233 C3237 1.376 . S
C3234 C3232 1.394 . S
C3234 C3235 1.369 . S
C3234 C3238 1.531 . S
C3235 C3234 1.369 . S
C3235 C3236 1.410 . S
C3235 C3243 1.503 . S
C3236 C3235 1.410 . S
C3236 C3237 1.392 . S
C3236 C3239 1.511 . S
C3237 C3233 1.376 . S
C3237 C3236 1.392 . S
C3237 H3249 0.929 . S
C3238 C3234 1.531 . S
C3238 H3250 0.960 . S
C3238 H3251 0.962 . S
C3238 H3252 0.960 . S
C3239 C3236 1.511 . S
C3239 H3253 0.961 . S
C3239 H3254 0.961 . S
C3239 H3255 0.961 . S
C3240 C3241 1.370 . S
C3240 C3242 1.363 . S
C3240 H3256 0.931 . S
C3241 C3240 1.370 . S
C3241 C3245 1.408 . S
C3242 C3240 1.363 . S
C3242 C3243 1.370 . S
C3242 C3246 1.524 . S
C3243 C3235 1.503 . S
C3243 C3242 1.370 . S
C3243 C3244 1.403 . S
C3244 C3243 1.403 . S
C3244 C3245 1.404 . S
C3244 C3247 1.539 . S
C3245 C3241 1.408 . S
C3245 C3244 1.404 . S
C3245 H3257 0.930 . S
C3246 C3242 1.524 . S
C3246 H3258 0.956 . S
C3246 H3259 0.961 . S
C3246 H3260 0.961 . S
C3247 C3244 1.539 . S
C3247 H3261 0.958 . S
C3247 H3262 0.961 . S
C3247 H3263 0.960 . S
H3248 C3232 0.931 . S
H3249 C3237 0.929 . S
H3250 C3238 0.960 . S
H3251 C3238 0.962 . S
H3252 C3238 0.960 . S
H3253 C3239 0.961 . S
H3254 C3239 0.961 . S
H3255 C3239 0.961 . S
H3256 C3240 0.931 . S
H3257 C3245 0.930 . S
H3258 C3246 0.956 . S
H3259 C3246 0.961 . S
H3260 C3246 0.961 . S
H3261 C3247 0.958 . S
H3262 C3247 0.961 . S
H3263 C3247 0.960 . S
C3264 C3265 1.391 . S
C3264 C3266 1.394 . S
C3264 H3280 0.931 . S
C3265 C3264 1.391 . S
C3265 C3269 1.376 . S
C3266 C3264 1.394 . S
C3266 C3267 1.369 . S
C3266 C3270 1.531 . S
C3267 C3266 1.369 . S
C3267 C3268 1.410 . S
C3267 C3275 1.503 . S
C3268 C3267 1.410 . S
C3268 C3269 1.392 . S
C3268 C3271 1.517 1_565 S
C3269 C3265 1.376 . S
C3269 C3268 1.392 . S
C3269 H3281 0.929 1_554 S
C3270 C3266 1.531 . S
C3270 H3282 0.960 . S
C3270 H3283 0.962 . S
C3270 H3284 0.960 . S
C3271 C3268 1.517 1_545 S
C3271 H3285 0.951 1_554 S
C3271 H3286 0.955 . S
C3271 H3287 0.963 . S
C3272 C3273 1.370 . S
C3272 C3274 1.363 . S
C3272 H3288 0.931 . S
C3273 C3272 1.370 . S
C3273 C3277 1.408 1_565 S
C3274 C3272 1.363 . S
C3274 C3275 1.370 . S
C3274 C3278 1.524 . S
C3275 C3267 1.503 . S
C3275 C3274 1.370 . S
C3275 C3276 1.403 1_565 S
C3276 C3275 1.403 1_545 S
C3276 C3277 1.404 . S
C3276 C3279 1.539 . S
C3277 C3273 1.408 1_545 S
C3277 C3276 1.404 . S
C3277 H3289 0.930 . S
C3278 C3274 1.524 . S
C3278 H3290 0.956 . S
C3278 H3291 0.987 . S
C3278 H3292 0.961 . S
C3279 C3276 1.539 . S
C3279 H3293 0.958 . S
C3279 H3294 0.961 . S
C3279 H3295 0.960 . S
H3280 C3264 0.931 . S
H3281 C3269 0.929 1_556 S
H3282 C3270 0.960 . S
H3283 C3270 0.962 . S
H3284 C3270 0.960 . S
H3285 C3271 0.951 1_556 S
H3286 C3271 0.955 . S
H3287 C3271 0.963 . S
H3288 C3272 0.931 . S
H3289 C3277 0.930 . S
H3290 C3278 0.956 . S
H3291 C3278 0.987 . S
H3292 C3278 0.961 . S
H3293 C3279 0.958 . S
H3294 C3279 0.961 . S
H3295 C3279 0.960 . S
C3296 C3297 1.391 1_554 S
C3296 C3298 1.394 . S
C3296 H3312 0.931 . S
C3297 C3296 1.391 1_556 S
C3297 C3301 1.376 . S
C3298 C3296 1.394 . S
C3298 C3299 1.369 . S
C3298 C3302 1.531 . S
C3299 C3298 1.369 . S
C3299 C3300 1.410 1_554 S
C3299 C3307 1.503 . S
C3300 C3299 1.410 1_556 S
C3300 C3301 1.392 . S
C3300 C3303 1.511 . S
C3301 C3297 1.376 . S
C3301 C3300 1.392 . S
C3301 H3313 0.929 . S
C3302 C3298 1.531 . S
C3302 H3314 0.960 . S
C3302 H3315 0.962 . S
C3302 H3316 0.960 . S
C3303 C3300 1.511 . S
C3303 H3317 0.961 . S
C3303 H3318 0.961 . S
C3303 H3319 0.961 . S
C3304 C3305 1.370 1_556 S
C3304 C3306 1.363 . S
C3304 H3320 0.931 . S
C3305 C3304 1.370 1_554 S
C3305 C3309 1.408 . S
C3306 C3304 1.363 . S
C3306 C3307 1.370 1_556 S
C3306 C3310 1.524 . S
C3307 C3299 1.503 . S
C3307 C3306 1.370 1_554 S
C3307 C3308 1.403 . S
C3308 C3307 1.403 . S
C3308 C3309 1.404 . S
C3308 C3311 1.539 . S
C3309 C3305 1.408 . S
C3309 C3308 1.404 . S
C3309 H3321 0.930 . S
C3310 C3306 1.524 . S
C3310 H3322 0.956 . S
C3310 H3323 0.961 . S
C3310 H3324 0.961 . S
C3311 C3308 1.539 . S
C3311 H3325 0.958 . S
C3311 H3326 0.961 . S
C3311 H3327 0.960 . S
H3312 C3296 0.931 . S
H3313 C3301 0.929 . S
H3314 C3302 0.960 . S
H3315 C3302 0.962 . S
H3316 C3302 0.960 . S
H3317 C3303 0.961 . S
H3318 C3303 0.961 . S
H3319 C3303 0.961 . S
H3320 C3304 0.931 . S
H3321 C3309 0.930 . S
H3322 C3310 0.956 . S
H3323 C3310 0.961 . S
H3324 C3310 0.961 . S
H3325 C3311 0.958 . S
H3326 C3311 0.961 . S
H3327 C3311 0.960 . S
C3328 C3329 1.391 . S
C3328 C3330 1.394 . S
C3328 H3344 0.931 . S
C3329 C3328 1.391 . S
C3329 C3333 1.376 . S
C3330 C3328 1.394 . S
C3330 C3331 1.369 . S
C3330 C3334 1.531 . S
C3331 C3330 1.369 . S
C3331 C3332 1.410 . S
C3331 C3339 1.503 . S
C3332 C3331 1.410 . S
C3332 C3333 1.392 . S
C3332 C3335 1.511 . S
C3333 C3329 1.376 . S
C3333 C3332 1.392 . S
C3333 H3345 0.929 . S
C3334 C3330 1.531 . S
C3334 H3346 0.960 . S
C3334 H3347 0.962 . S
C3334 H3348 0.960 . S
C3335 C3332 1.511 . S
C3335 H3349 0.961 . S
C3335 H3350 0.961 . S
C3335 H3351 0.961 . S
C3336 C3337 1.370 . S
C3336 C3338 1.363 . S
C3336 H3352 0.931 . S
C3337 C3336 1.370 . S
C3337 C3341 1.408 . S
C3338 C3336 1.363 . S
C3338 C3339 1.370 . S
C3338 C3342 1.524 . S
C3339 C3331 1.503 . S
C3339 C3338 1.370 . S
C3339 C3340 1.403 . S
C3340 C3339 1.403 . S
C3340 C3341 1.404 . S
C3340 C3343 1.539 . S
C3341 C3337 1.408 . S
C3341 C3340 1.404 . S
C3341 H3353 0.930 . S
C3342 C3338 1.524 . S
C3342 H3354 0.956 . S
C3342 H3355 0.961 . S
C3342 H3356 0.961 . S
C3343 C3340 1.539 . S
C3343 H3357 0.958 . S
C3343 H3358 0.961 . S
C3343 H3359 0.960 . S
H3344 C3328 0.931 . S
H3345 C3333 0.929 . S
H3346 C3334 0.960 . S
H3347 C3334 0.962 . S
H3348 C3334 0.960 . S
H3349 C3335 0.961 . S
H3350 C3335 0.961 . S
H3351 C3335 0.961 . S
H3352 C3336 0.931 . S
H3353 C3341 0.930 . S
H3354 C3342 0.956 . S
H3355 C3342 0.961 . S
H3356 C3342 0.961 . S
H3357 C3343 0.958 . S
H3358 C3343 0.961 . S
H3359 C3343 0.960 . S
C3360 C3361 1.391 . S
C3360 C3362 1.394 . S
C3360 H3376 0.931 . S
C3361 C3360 1.391 . S
C3361 C3365 1.376 . S
C3362 C3360 1.394 . S
C3362 C3363 1.369 . S
C3362 C3366 1.531 . S
C3363 C3362 1.369 . S
C3363 C3364 1.410 . S
C3363 C3371 1.503 . S
C3364 C3363 1.410 . S
C3364 C3365 1.392 . S
C3364 C3367 1.511 . S
C3365 C3361 1.376 . S
C3365 C3364 1.392 . S
C3365 H3377 0.929 . S
C3366 C3362 1.531 . S
C3366 H3378 0.960 . S
C3366 H3379 0.962 . S
C3366 H3380 0.960 . S
C3367 C3364 1.511 . S
C3367 H3381 0.961 . S
C3367 H3382 0.961 . S
C3367 H3383 0.961 . S
C3368 C3369 1.370 . S
C3368 C3370 1.363 . S
C3368 H3384 0.931 . S
C3369 C3368 1.370 . S
C3369 C3373 1.408 . S
C3370 C3368 1.363 . S
C3370 C3371 1.370 . S
C3370 C3374 1.524 . S
C3371 C3363 1.503 . S
C3371 C3370 1.370 . S
C3371 C3372 1.403 . S
C3372 C3371 1.403 . S
C3372 C3373 1.404 . S
C3372 C3375 1.539 . S
C3373 C3369 1.408 . S
C3373 C3372 1.404 . S
C3373 H3385 0.935 . S
C3374 C3370 1.524 . S
C3374 H3386 0.956 . S
C3374 H3387 0.961 . S
C3374 H3388 0.961 . S
C3375 C3372 1.539 . S
C3375 H3389 0.958 . S
C3375 H3390 0.961 . S
C3375 H3391 0.960 . S
H3376 C3360 0.931 . S
H3377 C3365 0.929 . S
H3378 C3366 0.960 . S
H3379 C3366 0.962 . S
H3380 C3366 0.960 . S
H3381 C3367 0.961 . S
H3382 C3367 0.961 . S
H3383 C3367 0.961 . S
H3384 C3368 0.931 . S
H3385 C3373 0.935 . S
H3386 C3374 0.956 . S
H3387 C3374 0.961 . S
H3388 C3374 0.961 . S
H3389 C3375 0.958 . S
H3390 C3375 0.961 . S
H3391 C3375 0.960 . S
C3392 C3393 1.391 . S
C3392 C3394 1.394 . S
C3392 H3408 0.931 . S
C3393 C3392 1.391 . S
C3393 C3397 1.376 . S
C3394 C3392 1.394 . S
C3394 C3395 1.369 . S
C3394 C3398 1.531 . S
C3395 C3394 1.369 . S
C3395 C3396 1.410 . S
C3395 C3403 1.503 . S
C3396 C3395 1.410 . S
C3396 C3397 1.392 . S
C3396 C3399 1.511 . S
C3397 C3393 1.376 . S
C3397 C3396 1.392 . S
C3397 H3409 0.929 . S
C3398 C3394 1.531 . S
C3398 H3410 0.960 . S
C3398 H3411 0.962 . S
C3398 H3412 0.960 . S
C3399 C3396 1.511 . S
C3399 H3413 0.961 . S
C3399 H3414 0.961 . S
C3399 H3415 0.961 . S
C3400 C3401 1.370 . S
C3400 C3402 1.363 . S
C3400 H3416 0.931 . S
C3401 C3400 1.370 . S
C3401 C3405 1.408 . S
C3402 C3400 1.363 . S
C3402 C3403 1.370 . S
C3402 C3406 1.524 . S
C3403 C3395 1.503 . S
C3403 C3402 1.370 . S
C3403 C3404 1.403 . S
C3404 C3403 1.403 . S
C3404 C3405 1.404 . S
C3404 C3407 1.539 . S
C3405 C3401 1.408 . S
C3405 C3404 1.404 . S
C3405 H3417 0.930 . S
C3406 C3402 1.524 . S
C3406 H3418 0.956 . S
C3406 H3419 0.961 . S
C3406 H3420 0.961 . S
C3407 C3404 1.539 . S
C3407 H3421 0.958 . S
C3407 H3422 0.961 . S
C3407 H3423 0.960 . S
H3408 C3392 0.931 . S
H3409 C3397 0.929 . S
H3410 C3398 0.960 . S
H3411 C3398 0.962 . S
H3412 C3398 0.960 . S
H3413 C3399 0.961 . S
H3414 C3399 0.961 . S
H3415 C3399 0.961 . S
H3416 C3400 0.931 . S
H3417 C3405 0.930 . S
H3418 C3406 0.956 . S
H3419 C3406 0.961 . S
H3420 C3406 0.961 . S
H3421 C3407 0.958 . S
H3422 C3407 0.961 . S
H3423 C3407 0.960 . S
C3424 C3425 1.391 . S
C3424 C3426 1.394 . S
C3424 H3440 0.931 . S
C3425 C3424 1.391 . S
C3425 C3429 1.376 . S
C3426 C3424 1.394 . S
C3426 C3427 1.369 . S
C3426 C3430 1.531 . S
C3427 C3426 1.369 . S
C3427 C3428 1.410 . S
C3427 C3435 1.503 . S
C3428 C3427 1.410 . S
C3428 C3429 1.392 . S
C3428 C3431 1.511 . S
C3429 C3425 1.376 . S
C3429 C3428 1.392 . S
C3429 H3441 0.929 . S
C3430 C3426 1.531 . S
C3430 H3442 0.960 . S
C3430 H3443 0.962 . S
C3430 H3444 0.960 . S
C3431 C3428 1.511 . S
C3431 H3445 0.961 . S
C3431 H3446 0.961 . S
C3431 H3447 0.961 . S
C3432 C3433 1.370 . S
C3432 C3434 1.363 . S
C3432 H3448 0.931 . S
C3433 C3432 1.370 . S
C3433 C3437 1.408 . S
C3434 C3432 1.363 . S
C3434 C3435 1.370 . S
C3434 C3438 1.524 . S
C3435 C3427 1.503 . S
C3435 C3434 1.370 . S
C3435 C3436 1.403 . S
C3436 C3435 1.403 . S
C3436 C3437 1.404 . S
C3436 C3439 1.539 . S
C3437 C3433 1.408 . S
C3437 C3436 1.404 . S
C3437 H3449 0.930 . S
C3438 C3434 1.524 . S
C3438 H3450 0.956 . S
C3438 H3451 0.961 . S
C3438 H3452 0.961 . S
C3439 C3436 1.539 . S
C3439 H3453 0.958 . S
C3439 H3454 0.961 . S
C3439 H3455 0.960 . S
H3440 C3424 0.931 . S
H3441 C3429 0.929 . S
H3442 C3430 0.960 . S
H3443 C3430 0.962 . S
H3444 C3430 0.960 . S
H3445 C3431 0.961 . S
H3446 C3431 0.961 . S
H3447 C3431 0.961 . S
H3448 C3432 0.931 . S
H3449 C3437 0.930 . S
H3450 C3438 0.956 . S
H3451 C3438 0.961 . S
H3452 C3438 0.961 . S
H3453 C3439 0.958 . S
H3454 C3439 0.961 . S
H3455 C3439 0.960 . S
C3456 C3457 1.391 . S
C3456 C3458 1.394 . S
C3456 H3472 0.931 . S
C3457 C3456 1.391 . S
C3457 C3461 1.376 . S
C3458 C3456 1.394 . S
C3458 C3459 1.369 . S
C3458 C3462 1.531 . S
C3459 C3458 1.369 . S
C3459 C3460 1.410 . S
C3459 C3467 1.503 . S
C3460 C3459 1.410 . S
C3460 C3461 1.392 . S
C3460 C3463 1.511 . S
C3461 C3457 1.376 . S
C3461 C3460 1.392 . S
C3461 H3473 0.929 . S
C3462 C3458 1.531 . S
C3462 H3474 0.960 . S
C3462 H3475 0.962 . S
C3462 H3476 0.960 . S
C3463 C3460 1.511 . S
C3463 H3477 0.961 . S
C3463 H3478 0.961 . S
C3463 H3479 0.961 . S
C3464 C3465 1.370 . S
C3464 C3466 1.363 . S
C3464 H3480 0.931 . S
C3465 C3464 1.370 . S
C3465 C3469 1.408 . S
C3466 C3464 1.363 . S
C3466 C3467 1.370 . S
C3466 C3470 1.524 . S
C3467 C3459 1.503 . S
C3467 C3466 1.370 . S
C3467 C3468 1.403 . S
C3468 C3467 1.403 . S
C3468 C3469 1.404 . S
C3468 C3471 1.539 . S
C3469 C3465 1.408 . S
C3469 C3468 1.404 . S
C3469 H3481 0.930 . S
C3470 C3466 1.524 . S
C3470 H3482 0.956 . S
C3470 H3483 0.961 . S
C3470 H3484 0.961 . S
C3471 C3468 1.539 . S
C3471 H3485 0.958 . S
C3471 H3486 0.961 . S
C3471 H3487 0.960 . S
H3472 C3456 0.931 . S
H3473 C3461 0.929 . S
H3474 C3462 0.960 . S
H3475 C3462 0.962 . S
H3476 C3462 0.960 . S
H3477 C3463 0.961 . S
H3478 C3463 0.961 . S
H3479 C3463 0.961 . S
H3480 C3464 0.931 . S
H3481 C3469 0.930 . S
H3482 C3470 0.956 . S
H3483 C3470 0.961 . S
H3484 C3470 0.961 . S
H3485 C3471 0.958 . S
H3486 C3471 0.961 . S
H3487 C3471 0.960 . S
C3488 C3489 1.391 . S
C3488 C3490 1.394 . S
C3488 H3504 0.931 . S
C3489 C3488 1.391 . S
C3489 C3493 1.376 . S
C3490 C3488 1.394 . S
C3490 C3491 1.369 . S
C3490 C3494 1.531 . S
C3491 C3490 1.369 . S
C3491 C3492 1.410 . S
C3491 C3499 1.503 . S
C3492 C3491 1.410 . S
C3492 C3493 1.392 . S
C3492 C3495 1.511 . S
C3493 C3489 1.376 . S
C3493 C3492 1.392 . S
C3493 H3505 0.929 . S
C3494 C3490 1.531 . S
C3494 H3506 0.960 . S
C3494 H3507 0.962 . S
C3494 H3508 0.960 . S
C3495 C3492 1.511 . S
C3495 H3509 0.961 . S
C3495 H3510 0.961 . S
C3495 H3511 0.961 . S
C3496 C3497 1.370 . S
C3496 C3498 1.363 . S
C3496 H3512 0.931 . S
C3497 C3496 1.370 . S
C3497 C3501 1.408 . S
C3498 C3496 1.363 . S
C3498 C3499 1.370 . S
C3498 C3502 1.524 . S
C3499 C3491 1.503 . S
C3499 C3498 1.370 . S
C3499 C3500 1.403 . S
C3500 C3499 1.403 . S
C3500 C3501 1.404 . S
C3500 C3503 1.539 . S
C3501 C3497 1.408 . S
C3501 C3500 1.404 . S
C3501 H3513 0.930 . S
C3502 C3498 1.524 . S
C3502 H3514 0.956 . S
C3502 H3515 0.961 . S
C3502 H3516 0.961 . S
C3503 C3500 1.539 . S
C3503 H3517 0.958 . S
C3503 H3518 0.961 . S
C3503 H3519 0.960 . S
H3504 C3488 0.931 . S
H3505 C3493 0.929 . S
H3506 C3494 0.960 . S
H3507 C3494 0.962 . S
H3508 C3494 0.960 . S
H3509 C3495 0.961 . S
H3510 C3495 0.961 . S
H3511 C3495 0.961 . S
H3512 C3496 0.931 . S
H3513 C3501 0.930 . S
H3514 C3502 0.956 . S
H3515 C3502 0.961 . S
H3516 C3502 0.961 . S
H3517 C3503 0.958 . S
H3518 C3503 0.961 . S
H3519 C3503 0.960 . S
C3520 C3521 1.391 . S
C3520 C3522 1.394 . S
C3520 H3536 0.931 . S
C3521 C3520 1.391 . S
C3521 C3525 1.376 . S
C3522 C3520 1.394 . S
C3522 C3523 1.369 . S
C3522 C3526 1.531 . S
C3523 C3522 1.369 . S
C3523 C3524 1.410 . S
C3523 C3531 1.503 . S
C3524 C3523 1.410 . S
C3524 C3525 1.392 . S
C3524 C3527 1.511 . S
C3525 C3521 1.376 . S
C3525 C3524 1.392 . S
C3525 H3537 0.929 . S
C3526 C3522 1.531 . S
C3526 H3538 0.960 . S
C3526 H3539 0.962 1_554 S
C3526 H3540 0.960 . S
C3527 C3524 1.511 . S
C3527 H3541 0.961 . S
C3527 H3542 0.961 . S
C3527 H3543 0.961 . S
C3528 C3529 1.370 . S
C3528 C3530 1.363 . S
C3528 H3544 0.931 . S
C3529 C3528 1.370 . S
C3529 C3533 1.408 . S
C3530 C3528 1.363 . S
C3530 C3531 1.370 . S
C3530 C3534 1.524 . S
C3531 C3523 1.503 . S
C3531 C3530 1.370 . S
C3531 C3532 1.403 . S
C3532 C3531 1.403 . S
C3532 C3533 1.404 . S
C3532 C3535 1.539 . S
C3533 C3529 1.408 . S
C3533 C3532 1.404 . S
C3533 H3545 0.930 . S
C3534 C3530 1.524 . S
C3534 H3546 0.956 . S
C3534 H3547 0.961 . S
C3534 H3548 0.961 . S
C3535 C3532 1.539 . S
C3535 H3549 0.958 . S
C3535 H3550 0.961 . S
C3535 H3551 0.960 . S
H3536 C3520 0.931 . S
H3537 C3525 0.929 . S
H3538 C3526 0.960 . S
H3539 C3526 0.962 1_556 S
H3540 C3526 0.960 . S
H3541 C3527 0.961 . S
H3542 C3527 0.961 . S
H3543 C3527 0.961 . S
H3544 C3528 0.931 . S
H3545 C3533 0.930 . S
H3546 C3534 0.956 . S
H3547 C3534 0.961 . S
H3548 C3534 0.961 . S
H3549 C3535 0.958 . S
H3550 C3535 0.961 . S
H3551 C3535 0.960 . S
C3552 C3553 1.391 . S
C3552 C3554 1.394 . S
C3552 H3568 0.931 . S
C3553 C3552 1.391 . S
C3553 C3557 1.376 . S
C3554 C3552 1.394 . S
C3554 C3555 1.369 . S
C3554 C3558 1.531 . S
C3555 C3554 1.369 . S
C3555 C3556 1.410 . S
C3555 C3563 1.503 . S
C3556 C3555 1.410 . S
C3556 C3557 1.392 . S
C3556 C3559 1.511 . S
C3557 C3553 1.376 . S
C3557 C3556 1.392 . S
C3557 H3569 0.929 . S
C3558 C3554 1.531 . S
C3558 H3570 0.960 . S
C3558 H3571 0.962 . S
C3558 H3572 0.960 . S
C3559 C3556 1.511 . S
C3559 H3573 0.961 . S
C3559 H3574 0.961 . S
C3559 H3575 0.961 . S
C3560 C3561 1.370 . S
C3560 C3562 1.363 . S
C3560 H3576 0.931 . S
C3561 C3560 1.370 . S
C3561 C3565 1.408 . S
C3562 C3560 1.363 . S
C3562 C3563 1.370 . S
C3562 C3566 1.524 . S
C3563 C3555 1.503 . S
C3563 C3562 1.370 . S
C3563 C3564 1.403 . S
C3564 C3563 1.403 . S
C3564 C3565 1.404 . S
C3564 C3567 1.539 . S
C3565 C3561 1.408 . S
C3565 C3564 1.404 . S
C3565 H3577 0.930 . S
C3566 C3562 1.524 . S
C3566 H3578 0.956 . S
C3566 H3579 0.961 . S
C3566 H3580 0.961 . S
C3567 C3564 1.539 . S
C3567 H3581 0.958 . S
C3567 H3582 0.961 . S
C3567 H3583 0.960 . S
H3568 C3552 0.931 . S
H3569 C3557 0.929 . S
H3570 C3558 0.960 . S
H3571 C3558 0.962 . S
H3572 C3558 0.960 . S
H3573 C3559 0.961 . S
H3574 C3559 0.961 . S
H3575 C3559 0.961 . S
H3576 C3560 0.931 . S
H3577 C3565 0.930 . S
H3578 C3566 0.956 . S
H3579 C3566 0.961 . S
H3580 C3566 0.961 . S
H3581 C3567 0.958 . S
H3582 C3567 0.961 . S
H3583 C3567 0.960 . S
C3584 C3585 1.391 . S
C3584 C3586 1.394 . S
C3584 H3600 0.931 . S
C3585 C3584 1.391 . S
C3585 C3589 1.376 . S
C3586 C3584 1.394 . S
C3586 C3587 1.369 . S
C3586 C3590 1.531 . S
C3587 C3586 1.369 . S
C3587 C3588 1.410 . S
C3587 C3595 1.503 . S
C3588 C3587 1.410 . S
C3588 C3589 1.392 . S
C3588 C3591 1.511 . S
C3589 C3585 1.376 . S
C3589 C3588 1.392 . S
C3589 H3601 0.929 . S
C3590 C3586 1.531 . S
C3590 H3602 0.960 . S
C3590 H3603 0.962 . S
C3590 H3604 0.960 . S
C3591 C3588 1.511 . S
C3591 H3605 0.961 . S
C3591 H3606 0.961 . S
C3591 H3607 0.961 . S
C3592 C3593 1.370 . S
C3592 C3594 1.363 . S
C3592 H3608 0.931 . S
C3593 C3592 1.370 . S
C3593 C3597 1.408 . S
C3594 C3592 1.363 . S
C3594 C3595 1.370 . S
C3594 C3598 1.524 . S
C3595 C3587 1.503 . S
C3595 C3594 1.370 . S
C3595 C3596 1.403 . S
C3596 C3595 1.403 . S
C3596 C3597 1.404 . S
C3596 C3599 1.539 . S
C3597 C3593 1.408 . S
C3597 C3596 1.404 . S
C3597 H3609 0.930 . S
C3598 C3594 1.524 . S
C3598 H3610 0.956 . S
C3598 H3611 0.961 . S
C3598 H3612 0.961 . S
C3599 C3596 1.539 . S
C3599 H3613 0.958 . S
C3599 H3614 0.961 . S
C3599 H3615 0.960 . S
H3600 C3584 0.931 . S
H3601 C3589 0.929 . S
H3602 C3590 0.960 . S
H3603 C3590 0.962 . S
H3604 C3590 0.960 . S
H3605 C3591 0.961 . S
H3606 C3591 0.961 . S
H3607 C3591 0.961 . S
H3608 C3592 0.931 . S
H3609 C3597 0.930 . S
H3610 C3598 0.956 . S
H3611 C3598 0.961 . S
H3612 C3598 0.961 . S
H3613 C3599 0.958 . S
H3614 C3599 0.961 . S
H3615 C3599 0.960 . S
C3616 C3617 1.391 . S
C3616 C3618 1.394 . S
C3616 H3632 0.931 . S
C3617 C3616 1.391 . S
C3617 C3621 1.376 . S
C3618 C3616 1.394 . S
C3618 C3619 1.369 . S
C3618 C3622 1.531 . S
C3619 C3618 1.369 . S
C3619 C3620 1.410 . S
C3619 C3627 1.503 . S
C3620 C3619 1.410 . S
C3620 C3621 1.392 . S
C3620 C3623 1.511 . S
C3621 C3617 1.376 . S
C3621 C3620 1.392 . S
C3621 H3633 0.929 . S
C3622 C3618 1.531 . S
C3622 H3634 0.960 . S
C3622 H3635 0.962 . S
C3622 H3636 0.960 . S
C3623 C3620 1.511 . S
C3623 H3637 0.961 . S
C3623 H3638 0.961 . S
C3623 H3639 0.961 . S
C3624 C3625 1.370 . S
C3624 C3626 1.363 . S
C3624 H3640 0.931 . S
C3625 C3624 1.370 . S
C3625 C3629 1.408 . S
C3626 C3624 1.363 . S
C3626 C3627 1.370 . S
C3626 C3630 1.524 . S
C3627 C3619 1.503 . S
C3627 C3626 1.370 . S
C3627 C3628 1.403 . S
C3628 C3627 1.403 . S
C3628 C3629 1.404 . S
C3628 C3631 1.539 . S
C3629 C3625 1.408 . S
C3629 C3628 1.404 . S
C3629 H3641 0.930 . S
C3630 C3626 1.524 . S
C3630 H3642 0.956 . S
C3630 H3643 0.961 . S
C3630 H3644 0.961 . S
C3631 C3628 1.539 . S
C3631 H3645 0.958 . S
C3631 H3646 0.961 . S
C3631 H3647 0.960 . S
H3632 C3616 0.931 . S
H3633 C3621 0.929 . S
H3634 C3622 0.960 . S
H3635 C3622 0.962 . S
H3636 C3622 0.960 . S
H3637 C3623 0.961 . S
H3638 C3623 0.961 . S
H3639 C3623 0.961 . S
H3640 C3624 0.931 . S
H3641 C3629 0.930 . S
H3642 C3630 0.956 . S
H3643 C3630 0.961 . S
H3644 C3630 0.961 . S
H3645 C3631 0.958 . S
H3646 C3631 0.961 . S
H3647 C3631 0.960 . S
C3648 C3649 1.391 . S
C3648 C3650 1.394 . S
C3648 H3664 0.931 . S
C3649 C3648 1.391 . S
C3649 C3653 1.376 . S
C3650 C3648 1.394 . S
C3650 C3651 1.369 . S
C3650 C3654 1.531 . S
C3651 C3650 1.369 . S
C3651 C3652 1.410 . S
C3651 C3659 1.503 . S
C3652 C3651 1.410 . S
C3652 C3653 1.392 . S
C3652 C3655 1.511 . S
C3653 C3649 1.376 . S
C3653 C3652 1.392 . S
C3653 H3665 0.929 . S
C3654 C3650 1.531 . S
C3654 H3666 0.960 . S
C3654 H3667 0.962 . S
C3654 H3668 0.960 . S
C3655 C3652 1.511 . S
C3655 H3669 0.961 . S
C3655 H3670 0.961 . S
C3655 H3671 0.961 . S
C3656 C3657 1.370 . S
C3656 C3658 1.363 . S
C3656 H3672 0.931 . S
C3657 C3656 1.370 . S
C3657 C3661 1.408 . S
C3658 C3656 1.363 . S
C3658 C3659 1.370 . S
C3658 C3662 1.524 . S
C3659 C3651 1.503 . S
C3659 C3658 1.370 . S
C3659 C3660 1.403 . S
C3660 C3659 1.403 . S
C3660 C3661 1.404 . S
C3660 C3663 1.539 . S
C3661 C3657 1.408 . S
C3661 C3660 1.404 . S
C3661 H3673 0.930 . S
C3662 C3658 1.524 . S
C3662 H3674 0.956 . S
C3662 H3675 0.961 . S
C3662 H3676 0.961 . S
C3663 C3660 1.539 . S
C3663 H3677 0.958 . S
C3663 H3678 0.961 . S
C3663 H3679 0.960 . S
H3664 C3648 0.931 . S
H3665 C3653 0.929 . S
H3666 C3654 0.960 . S
H3667 C3654 0.962 . S
H3668 C3654 0.960 . S
H3669 C3655 0.961 . S
H3670 C3655 0.961 . S
H3671 C3655 0.961 . S
H3672 C3656 0.931 . S
H3673 C3661 0.930 . S
H3674 C3662 0.956 . S
H3675 C3662 0.961 . S
H3676 C3662 0.961 . S
H3677 C3663 0.958 . S
H3678 C3663 0.961 . S
H3679 C3663 0.960 . S
C3680 C3681 1.391 . S
C3680 C3682 1.394 . S
C3680 H3696 0.931 . S
C3681 C3680 1.391 . S
C3681 C3685 1.376 . S
C3682 C3680 1.394 . S
C3682 C3683 1.369 . S
C3682 C3686 1.531 . S
C3683 C3682 1.369 . S
C3683 C3684 1.410 . S
C3683 C3691 1.503 . S
C3684 C3683 1.410 . S
C3684 C3685 1.392 . S
C3684 C3687 1.511 . S
C3685 C3681 1.376 . S
C3685 C3684 1.392 . S
C3685 H3697 0.929 . S
C3686 C3682 1.531 . S
C3686 H3698 0.960 . S
C3686 H3699 0.962 . S
C3686 H3700 0.960 . S
C3687 C3684 1.511 . S
C3687 H3701 0.961 . S
C3687 H3702 0.961 . S
C3687 H3703 0.961 . S
C3688 C3689 1.370 . S
C3688 C3690 1.363 . S
C3688 H3704 0.931 . S
C3689 C3688 1.370 . S
C3689 C3693 1.408 . S
C3690 C3688 1.363 . S
C3690 C3691 1.370 . S
C3690 C3694 1.524 . S
C3691 C3683 1.503 . S
C3691 C3690 1.370 . S
C3691 C3692 1.403 . S
C3692 C3691 1.403 . S
C3692 C3693 1.404 . S
C3692 C3695 1.539 . S
C3693 C3689 1.408 . S
C3693 C3692 1.404 . S
C3693 H3705 0.930 . S
C3694 C3690 1.524 . S
C3694 H3706 0.956 . S
C3694 H3707 0.961 . S
C3694 H3708 0.961 . S
C3695 C3692 1.539 . S
C3695 H3709 0.958 . S
C3695 H3710 0.961 . S
C3695 H3711 0.960 . S
H3696 C3680 0.931 . S
H3697 C3685 0.929 . S
H3698 C3686 0.960 . S
H3699 C3686 0.962 . S
H3700 C3686 0.960 . S
H3701 C3687 0.961 . S
H3702 C3687 0.961 . S
H3703 C3687 0.961 . S
H3704 C3688 0.931 . S
H3705 C3693 0.930 . S
H3706 C3694 0.956 . S
H3707 C3694 0.961 . S
H3708 C3694 0.961 . S
H3709 C3695 0.958 . S
H3710 C3695 0.961 . S
H3711 C3695 0.960 . S
C3712 C3713 1.391 . S
C3712 C3714 1.394 . S
C3712 H3728 0.931 . S
C3713 C3712 1.391 . S
C3713 C3717 1.376 . S
C3714 C3712 1.394 . S
C3714 C3715 1.369 . S
C3714 C3718 1.531 . S
C3715 C3714 1.369 . S
C3715 C3716 1.410 . S
C3715 C3723 1.503 . S
C3716 C3715 1.410 . S
C3716 C3717 1.392 . S
C3716 C3719 1.511 . S
C3717 C3713 1.376 . S
C3717 C3716 1.392 . S
C3717 H3729 0.929 . S
C3718 C3714 1.531 . S
C3718 H3730 0.960 . S
C3718 H3731 0.962 . S
C3718 H3732 0.960 . S
C3719 C3716 1.511 . S
C3719 H3733 0.961 . S
C3719 H3734 0.961 . S
C3719 H3735 0.961 . S
C3720 C3721 1.370 . S
C3720 C3722 1.363 . S
C3720 H3736 0.931 . S
C3721 C3720 1.370 . S
C3721 C3725 1.380 1_556 S
C3722 C3720 1.363 . S
C3722 C3723 1.370 . S
C3722 C3726 1.524 . S
C3723 C3715 1.503 . S
C3723 C3722 1.370 . S
C3723 C3724 1.403 . S
C3724 C3723 1.403 . S
C3724 C3725 1.388 1_556 S
C3724 C3727 1.539 1_556 S
C3725 C3721 1.380 1_554 S
C3725 C3724 1.388 1_554 S
C3725 H3737 0.974 . S
C3726 C3722 1.524 . S
C3726 H3738 0.956 . S
C3726 H3739 0.961 . S
C3726 H3740 0.961 . S
C3727 C3724 1.539 1_554 S
C3727 H3741 0.958 . S
C3727 H3742 0.961 . S
C3727 H3743 0.960 1_554 S
H3728 C3712 0.931 . S
H3729 C3717 0.929 . S
H3730 C3718 0.960 . S
H3731 C3718 0.962 . S
H3732 C3718 0.960 . S
H3733 C3719 0.961 . S
H3734 C3719 0.961 . S
H3735 C3719 0.961 . S
H3736 C3720 0.931 . S
H3737 C3725 0.974 . S
H3738 C3726 0.956 . S
H3739 C3726 0.961 . S
H3740 C3726 0.961 . S
H3741 C3727 0.958 . S
H3742 C3727 0.961 . S
H3743 C3727 0.960 1_556 S
C3744 C3745 1.391 . S
C3744 C3746 1.394 . S
C3744 H3760 0.931 . S
C3745 C3744 1.391 . S
C3745 C3749 1.376 . S
C3746 C3744 1.394 . S
C3746 C3747 1.369 . S
C3746 C3750 1.531 . S
C3747 C3746 1.369 . S
C3747 C3748 1.410 . S
C3747 C3755 1.503 . S
C3748 C3747 1.410 . S
C3748 C3749 1.392 . S
C3748 C3751 1.511 . S
C3749 C3745 1.376 . S
C3749 C3748 1.392 . S
C3749 H3761 0.929 . S
C3750 C3746 1.531 . S
C3750 H3762 0.960 . S
C3750 H3763 0.962 . S
C3750 H3764 0.960 . S
C3751 C3748 1.511 . S
C3751 H3765 0.961 . S
C3751 H3766 0.961 . S
C3751 H3767 0.961 . S
C3752 C3753 1.370 . S
C3752 C3754 1.363 . S
C3752 H3768 0.931 . S
C3753 C3752 1.370 . S
C3753 C3757 1.408 . S
C3754 C3752 1.363 . S
C3754 C3755 1.370 . S
C3754 C3758 1.524 . S
C3755 C3747 1.503 . S
C3755 C3754 1.370 . S
C3755 C3756 1.403 . S
C3756 C3755 1.403 . S
C3756 C3757 1.404 . S
C3756 C3759 1.539 . S
C3757 C3753 1.408 . S
C3757 C3756 1.404 . S
C3757 H3769 0.930 . S
C3758 C3754 1.524 . S
C3758 H3770 0.956 . S
C3758 H3771 0.961 . S
C3758 H3772 0.961 . S
C3759 C3756 1.539 . S
C3759 H3773 0.958 . S
C3759 H3774 0.961 . S
C3759 H3775 0.960 . S
H3760 C3744 0.931 . S
H3761 C3749 0.929 . S
H3762 C3750 0.960 . S
H3763 C3750 0.962 . S
H3764 C3750 0.960 . S
H3765 C3751 0.961 . S
H3766 C3751 0.961 . S
H3767 C3751 0.961 . S
H3768 C3752 0.931 . S
H3769 C3757 0.930 . S
H3770 C3758 0.956 . S
H3771 C3758 0.961 . S
H3772 C3758 0.961 . S
H3773 C3759 0.958 . S
H3774 C3759 0.961 . S
H3775 C3759 0.960 . S
C3776 C3777 1.391 1_565 S
C3776 C3778 1.394 . S
C3776 H3792 0.931 . S
C3777 C3776 1.391 1_545 S
C3777 C3781 1.376 . S
C3778 C3776 1.394 . S
C3778 C3779 1.369 1_565 S
C3778 C3782 1.531 . S
C3779 C3778 1.369 1_545 S
C3779 C3780 1.410 . S
C3779 C3787 1.503 . S
C3780 C3779 1.410 . S
C3780 C3781 1.392 . S
C3780 C3783 1.511 . S
C3781 C3777 1.376 . S
C3781 C3780 1.392 . S
C3781 H3793 0.929 . S
C3782 C3778 1.531 . S
C3782 H3794 0.960 . S
C3782 H3795 0.962 . S
C3782 H3796 0.960 . S
C3783 C3780 1.511 . S
C3783 H3797 0.961 . S
C3783 H3798 0.961 . S
C3783 H3799 0.961 . S
C3784 C3785 1.370 . S
C3784 C3786 1.363 . S
C3784 H3800 0.931 . S
C3785 C3784 1.370 . S
C3785 C3789 1.408 . S
C3786 C3784 1.363 . S
C3786 C3787 1.370 . S
C3786 C3790 1.524 . S
C3787 C3779 1.503 . S
C3787 C3786 1.370 . S
C3787 C3788 1.410 . S
C3788 C3787 1.410 . S
C3788 C3789 1.405 . S
C3788 C3791 1.531 1_545 S
C3789 C3785 1.408 . S
C3789 C3788 1.405 . S
C3789 H3801 0.930 1_545 S
C3790 C3786 1.524 . S
C3790 H3802 0.956 . S
C3790 H3803 0.961 . S
C3790 H3804 0.961 . S
C3791 C3788 1.531 1_565 S
C3791 H3805 0.958 . S
C3791 H3806 0.961 . S
C3791 H3807 0.960 . S
H3792 C3776 0.931 . S
H3793 C3781 0.929 . S
H3794 C3782 0.960 . S
H3795 C3782 0.962 . S
H3796 C3782 0.960 . S
H3797 C3783 0.961 . S
H3798 C3783 0.961 . S
H3799 C3783 0.961 . S
H3800 C3784 0.931 . S
H3801 C3789 0.930 1_565 S
H3802 C3790 0.956 . S
H3803 C3790 0.961 . S
H3804 C3790 0.961 . S
H3805 C3791 0.958 . S
H3806 C3791 0.961 . S
H3807 C3791 0.960 . S
C3808 C3809 1.391 . S
C3808 C3810 1.394 . S
C3808 H3824 0.931 . S
C3809 C3808 1.391 . S
C3809 C3813 1.376 . S
C3810 C3808 1.394 . S
C3810 C3811 1.369 . S
C3810 C3814 1.531 . S
C3811 C3810 1.369 . S
C3811 C3812 1.410 . S
C3811 C3819 1.503 . S
C3812 C3811 1.410 . S
C3812 C3813 1.392 . S
C3812 C3815 1.511 . S
C3813 C3809 1.376 . S
C3813 C3812 1.392 . S
C3813 H3825 0.929 . S
C3814 C3810 1.531 . S
C3814 H3826 0.960 . S
C3814 H3827 0.962 . S
C3814 H3828 0.960 . S
C3815 C3812 1.511 . S
C3815 H3829 0.961 . S
C3815 H3830 0.961 . S
C3815 H3831 0.961 . S
C3816 C3817 1.370 . S
C3816 C3818 1.363 . S
C3816 H3832 0.931 . S
C3817 C3816 1.370 . S
C3817 C3821 1.408 . S
C3818 C3816 1.363 . S
C3818 C3819 1.370 . S
C3818 C3822 1.524 . S
C3819 C3811 1.503 . S
C3819 C3818 1.370 . S
C3819 C3820 1.403 . S
C3820 C3819 1.403 . S
C3820 C3821 1.404 . S
C3820 C3823 1.539 . S
C3821 C3817 1.408 . S
C3821 C3820 1.404 . S
C3821 H3833 0.930 . S
C3822 C3818 1.524 . S
C3822 H3834 0.956 . S
C3822 H3835 0.961 . S
C3822 H3836 0.961 . S
C3823 C3820 1.539 . S
C3823 H3837 0.958 . S
C3823 H3838 0.961 . S
C3823 H3839 0.960 . S
H3824 C3808 0.931 . S
H3825 C3813 0.929 . S
H3826 C3814 0.960 . S
H3827 C3814 0.962 . S
H3828 C3814 0.960 . S
H3829 C3815 0.961 . S
H3830 C3815 0.961 . S
H3831 C3815 0.961 . S
H3832 C3816 0.931 . S
H3833 C3821 0.930 . S
H3834 C3822 0.956 . S
H3835 C3822 0.961 . S
H3836 C3822 0.961 . S
H3837 C3823 0.958 . S
H3838 C3823 0.961 . S
H3839 C3823 0.960 . S
C3840 C3841 1.391 . S
C3840 C3842 1.394 . S
C3840 H3856 0.931 . S
C3841 C3840 1.391 . S
C3841 C3845 1.376 . S
C3842 C3840 1.394 . S
C3842 C3843 1.369 . S
C3842 C3846 1.531 . S
C3843 C3842 1.369 . S
C3843 C3844 1.410 . S
C3843 C3851 1.503 . S
C3844 C3843 1.410 . S
C3844 C3845 1.392 . S
C3844 C3847 1.511 . S
C3845 C3841 1.376 . S
C3845 C3844 1.392 . S
C3845 H3857 0.929 . S
C3846 C3842 1.531 . S
C3846 H3858 0.960 . S
C3846 H3859 0.962 . S
C3846 H3860 0.973 . S
C3847 C3844 1.511 . S
C3847 H3861 0.961 . S
C3847 H3862 0.961 . S
C3847 H3863 0.961 . S
C3848 C3849 1.370 . S
C3848 C3850 1.363 . S
C3848 H3864 0.931 . S
C3849 C3848 1.370 . S
C3849 C3853 1.408 . S
C3850 C3848 1.363 . S
C3850 C3851 1.370 . S
C3850 C3854 1.524 . S
C3851 C3843 1.503 . S
C3851 C3850 1.370 . S
C3851 C3852 1.403 . S
C3852 C3851 1.403 . S
C3852 C3853 1.404 . S
C3852 C3855 1.539 1_545 S
C3853 C3849 1.408 . S
C3853 C3852 1.404 . S
C3853 H3865 0.900 1_545 S
C3854 C3850 1.524 . S
C3854 H3866 0.956 . S
C3854 H3867 0.961 . S
C3854 H3868 0.961 . S
C3855 C3852 1.539 1_565 S
C3855 H3869 0.958 . S
C3855 H3870 0.961 . S
C3855 H3871 0.960 . S
H3856 C3840 0.931 . S
H3857 C3845 0.929 . S
H3858 C3846 0.960 . S
H3859 C3846 0.962 . S
H3860 C3846 0.973 . S
H3861 C3847 0.961 . S
H3862 C3847 0.961 . S
H3863 C3847 0.961 . S
H3864 C3848 0.931 . S
H3865 C3853 0.900 1_565 S
H3866 C3854 0.956 . S
H3867 C3854 0.961 . S
H3868 C3854 0.961 . S
H3869 C3855 0.958 . S
H3870 C3855 0.961 . S
H3871 C3855 0.960 . S
C3872 C3873 1.391 . S
C3872 C3874 1.394 . S
C3872 H3888 0.931 . S
C3873 C3872 1.391 . S
C3873 C3877 1.376 . S
C3874 C3872 1.394 . S
C3874 C3875 1.369 . S
C3874 C3878 1.531 . S
C3875 C3874 1.369 . S
C3875 C3876 1.410 . S
C3875 C3883 1.503 . S
C3876 C3875 1.410 . S
C3876 C3877 1.392 . S
C3876 C3879 1.511 . S
C3877 C3873 1.376 . S
C3877 C3876 1.392 . S
C3877 H3889 0.929 . S
C3878 C3874 1.531 . S
C3878 H3890 0.960 . S
C3878 H3891 0.962 . S
C3878 H3892 0.960 . S
C3879 C3876 1.511 . S
C3879 H3893 0.961 . S
C3879 H3894 0.961 . S
C3879 H3895 0.961 . S
C3880 C3881 1.370 . S
C3880 C3882 1.363 . S
C3880 H3896 0.931 . S
C3881 C3880 1.370 . S
C3881 C3885 1.408 . S
C3882 C3880 1.363 . S
C3882 C3883 1.370 . S
C3882 C3886 1.524 . S
C3883 C3875 1.503 . S
C3883 C3882 1.370 . S
C3883 C3884 1.403 . S
C3884 C3883 1.403 . S
C3884 C3885 1.404 . S
C3884 C3887 1.539 . S
C3885 C3881 1.408 . S
C3885 C3884 1.404 . S
C3885 H3897 0.930 . S
C3886 C3882 1.524 . S
C3886 H3898 0.956 . S
C3886 H3899 0.961 . S
C3886 H3900 0.961 . S
C3887 C3884 1.539 . S
C3887 H3901 0.958 . S
C3887 H3902 0.961 . S
C3887 H3903 0.960 . S
H3888 C3872 0.931 . S
H3889 C3877 0.929 . S
H3890 C3878 0.960 . S
H3891 C3878 0.962 . S
H3892 C3878 0.960 . S
H3893 C3879 0.961 . S
H3894 C3879 0.961 . S
H3895 C3879 0.961 . S
H3896 C3880 0.931 . S
H3897 C3885 0.930 . S
H3898 C3886 0.956 . S
H3899 C3886 0.961 . S
H3900 C3886 0.961 . S
H3901 C3887 0.958 . S
H3902 C3887 0.961 . S
H3903 C3887 0.960 . S
C3904 C3905 1.391 1_545 S
C3904 C3906 1.394 . S
C3904 H3920 0.931 . S
C3905 C3904 1.391 1_565 S
C3905 C3909 1.376 . S
C3906 C3904 1.394 . S
C3906 C3907 1.369 . S
C3906 C3910 1.531 . S
C3907 C3906 1.369 . S
C3907 C3908 1.410 1_545 S
C3907 C3915 1.503 . S
C3908 C3907 1.410 1_565 S
C3908 C3909 1.392 . S
C3908 C3911 1.511 . S
C3909 C3905 1.376 . S
C3909 C3908 1.392 . S
C3909 H3921 0.929 . S
C3910 C3906 1.531 . S
C3910 H3922 0.960 . S
C3910 H3923 0.962 . S
C3910 H3924 0.960 . S
C3911 C3908 1.511 . S
C3911 H3925 0.961 . S
C3911 H3926 0.961 . S
C3911 H3927 0.961 . S
C3912 C3913 1.370 . S
C3912 C3914 1.363 . S
C3912 H3928 0.931 . S
C3913 C3912 1.370 . S
C3913 C3917 1.408 . S
C3914 C3912 1.363 . S
C3914 C3915 1.370 . S
C3914 C3918 1.524 1_545 S
C3915 C3907 1.503 . S
C3915 C3914 1.370 . S
C3915 C3916 1.403 . S
C3916 C3915 1.403 . S
C3916 C3917 1.404 . S
C3916 C3919 1.539 . S
C3917 C3913 1.408 . S
C3917 C3916 1.404 . S
C3917 H3929 0.930 . S
C3918 C3914 1.524 1_565 S
C3918 H3930 0.956 . S
C3918 H3931 0.961 . S
C3918 H3932 0.961 . S
C3919 C3916 1.539 . S
C3919 H3933 0.958 . S
C3919 H3934 0.961 . S
C3919 H3935 0.960 . S
H3920 C3904 0.931 . S
H3921 C3909 0.929 . S
H3922 C3910 0.960 . S
H3923 C3910 0.962 . S
H3924 C3910 0.960 . S
H3925 C3911 0.961 . S
H3926 C3911 0.961 . S
H3927 C3911 0.961 . S
H3928 C3912 0.931 . S
H3929 C3917 0.930 . S
H3930 C3918 0.956 . S
H3931 C3918 0.961 . S
H3932 C3918 0.961 . S
H3933 C3919 0.958 . S
H3934 C3919 0.961 . S
H3935 C3919 0.960 . S
C3936 C3937 1.391 . S
C3936 C3938 1.394 . S
C3936 H3952 0.931 . S
C3937 C3936 1.391 . S
C3937 C3941 1.376 . S
C3938 C3936 1.394 . S
C3938 C3939 1.369 . S
C3938 C3942 1.531 . S
C3939 C3938 1.369 . S
C3939 C3940 1.410 . S
C3939 C3947 1.503 . S
C3940 C3939 1.410 . S
C3940 C3941 1.392 . S
C3940 C3943 1.511 . S
C3941 C3937 1.376 . S
C3941 C3940 1.392 . S
C3941 H3953 0.929 . S
C3942 C3938 1.531 . S
C3942 H3954 0.960 . S
C3942 H3955 0.962 . S
C3942 H3956 0.960 . S
C3943 C3940 1.511 . S
C3943 H3957 0.961 . S
C3943 H3958 0.961 . S
C3943 H3959 0.961 . S
C3944 C3945 1.370 . S
C3944 C3946 1.363 . S
C3944 H3960 0.931 . S
C3945 C3944 1.370 . S
C3945 C3949 1.408 . S
C3946 C3944 1.363 . S
C3946 C3947 1.370 . S
C3946 C3950 1.524 . S
C3947 C3939 1.503 . S
C3947 C3946 1.370 . S
C3947 C3948 1.403 . S
C3948 C3947 1.403 . S
C3948 C3949 1.404 . S
C3948 C3951 1.539 . S
C3949 C3945 1.408 . S
C3949 C3948 1.404 . S
C3949 H3961 0.930 . S
C3950 C3946 1.524 . S
C3950 H3962 0.956 . S
C3950 H3963 0.961 . S
C3950 H3964 0.961 . S
C3951 C3948 1.539 . S
C3951 H3965 0.958 . S
C3951 H3966 0.961 . S
C3951 H3967 0.960 . S
H3952 C3936 0.931 . S
H3953 C3941 0.929 . S
H3954 C3942 0.960 . S
H3955 C3942 0.962 . S
H3956 C3942 0.960 . S
H3957 C3943 0.961 . S
H3958 C3943 0.961 . S
H3959 C3943 0.961 . S
H3960 C3944 0.931 . S
H3961 C3949 0.930 . S
H3962 C3950 0.956 . S
H3963 C3950 0.961 . S
H3964 C3950 0.961 . S
H3965 C3951 0.958 . S
H3966 C3951 0.961 . S
H3967 C3951 0.960 . S
C3968 C3969 1.373 1_565 S
C3968 C3970 1.401 . S
C3968 H3984 0.928 . S
C3969 C3968 1.373 1_545 S
C3969 C3973 1.376 . S
C3970 C3968 1.401 . S
C3970 C3971 1.369 . S
C3970 C3974 1.531 . S
C3971 C3970 1.369 . S
C3971 C3972 1.410 . S
C3971 C3979 1.503 . S
C3972 C3971 1.410 . S
C3972 C3973 1.392 1_565 S
C3972 C3975 1.511 . S
C3973 C3969 1.376 . S
C3973 C3972 1.392 1_545 S
C3973 H3985 0.929 . S
C3974 C3970 1.531 . S
C3974 H3986 0.960 . S
C3974 H3987 0.965 1_565 S
C3974 H3988 0.960 . S
C3975 C3972 1.511 . S
C3975 H3989 0.961 1_565 S
C3975 H3990 0.961 1_565 S
C3975 H3991 0.961 . S
C3976 C3977 1.370 1_545 S
C3976 C3978 1.363 . S
C3976 H3992 0.931 . S
C3977 C3976 1.370 1_565 S
C3977 C3981 1.408 . S
C3978 C3976 1.363 . S
C3978 C3979 1.370 1_545 S
C3978 C3982 1.524 . S
C3979 C3971 1.503 . S
C3979 C3978 1.370 1_565 S
C3979 C3980 1.403 . S
C3980 C3979 1.403 . S
C3980 C3981 1.404 . S
C3980 C3983 1.539 . S
C3981 C3977 1.408 . S
C3981 C3980 1.404 . S
C3981 H3993 0.930 . S
C3982 C3978 1.524 . S
C3982 H3994 0.956 . S
C3982 H3995 0.961 . S
C3982 H3996 0.961 . S
C3983 C3980 1.539 . S
C3983 H3997 0.958 . S
C3983 H3998 0.961 . S
C3983 H3999 0.960 . S
H3984 C3968 0.928 . S
H3985 C3973 0.929 . S
H3986 C3974 0.960 . S
H3987 C3974 0.965 1_545 S
H3988 C3974 0.960 . S
H3989 C3975 0.961 1_545 S
H3990 C3975 0.961 1_545 S
H3991 C3975 0.961 . S
H3992 C3976 0.931 . S
H3993 C3981 0.930 . S
H3994 C3982 0.956 . S
H3995 C3982 0.961 . S
H3996 C3982 0.961 . S
H3997 C3983 0.958 . S
H3998 C3983 0.961 . S
H3999 C3983 0.960 . S
C4000 C4001 1.391 . S
C4000 C4002 1.394 . S
C4000 H4016 0.931 . S
C4001 C4000 1.391 . S
C4001 C4005 1.376 . S
C4002 C4000 1.394 . S
C4002 C4003 1.369 . S
C4002 C4006 1.531 . S
C4003 C4002 1.369 . S
C4003 C4004 1.410 . S
C4003 C4011 1.503 . S
C4004 C4003 1.410 . S
C4004 C4005 1.392 . S
C4004 C4007 1.511 . S
C4005 C4001 1.376 . S
C4005 C4004 1.392 . S
C4005 H4017 0.929 . S
C4006 C4002 1.531 . S
C4006 H4018 0.960 . S
C4006 H4019 0.962 . S
C4006 H4020 0.960 . S
C4007 C4004 1.511 . S
C4007 H4021 0.961 . S
C4007 H4022 0.961 . S
C4007 H4023 0.961 . S
C4008 C4009 1.370 . S
C4008 C4010 1.363 . S
C4008 H4024 0.931 . S
C4009 C4008 1.370 . S
C4009 C4013 1.408 . S
C4010 C4008 1.363 . S
C4010 C4011 1.370 . S
C4010 C4014 1.524 . S
C4011 C4003 1.503 . S
C4011 C4010 1.370 . S
C4011 C4012 1.403 . S
C4012 C4011 1.403 . S
C4012 C4013 1.404 . S
C4012 C4015 1.539 . S
C4013 C4009 1.408 . S
C4013 C4012 1.404 . S
C4013 H4025 0.930 . S
C4014 C4010 1.524 . S
C4014 H4026 0.956 . S
C4014 H4027 0.961 . S
C4014 H4028 0.961 . S
C4015 C4012 1.539 . S
C4015 H4029 0.958 . S
C4015 H4030 0.961 . S
C4015 H4031 0.960 . S
H4016 C4000 0.931 . S
H4017 C4005 0.929 . S
H4018 C4006 0.960 . S
H4019 C4006 0.962 . S
H4020 C4006 0.960 . S
H4021 C4007 0.961 . S
H4022 C4007 0.961 . S
H4023 C4007 0.961 . S
H4024 C4008 0.931 . S
H4025 C4013 0.930 . S
H4026 C4014 0.956 . S
H4027 C4014 0.961 . S
H4028 C4014 0.961 . S
H4029 C4015 0.958 . S
H4030 C4015 0.961 . S
H4031 C4015 0.960 . S
C4032 C4033 1.391 . S
C4032 C4034 1.394 1_554 S
C4032 H4048 0.931 . S
C4033 C4032 1.391 . S
C4033 C4037 1.376 1_554 S
C4034 C4032 1.394 1_556 S
C4034 C4035 1.369 . S
C4034 C4038 1.537 . S
C4035 C4034 1.369 . S
C4035 C4036 1.410 . S
C4035 C4043 1.503 . S
C4036 C4035 1.410 . S
C4036 C4037 1.392 . S
C4036 C4039 1.511 . S
C4037 C4033 1.376 1_556 S
C4037 C4036 1.392 . S
C4037 H4049 0.929 . S
C4038 C4034 1.537 . S
C4038 H4050 0.982 . S
C4038 H4051 0.938 1_556 S
C4038 H4052 0.957 . S
C4039 C4036 1.511 . S
C4039 H4053 0.961 . S
C4039 H4054 0.961 . S
C4039 H4055 0.961 . S
C4040 C4041 1.370 . S
C4040 C4042 1.377 . S
C4040 H4056 0.931 1_556 S
C4041 C4040 1.370 . S
C4041 C4045 1.408 . S
C4042 C4040 1.377 . S
C4042 C4043 1.399 . S
C4042 C4046 1.483 1_556 S
C4043 C4035 1.503 . S
C4043 C4042 1.399 . S
C4043 C4044 1.403 . S
C4044 C4043 1.403 . S
C4044 C4045 1.404 . S
C4044 C4047 1.539 . S
C4045 C4041 1.408 . S
C4045 C4044 1.404 . S
C4045 H4057 0.930 . S
C4046 C4042 1.483 1_554 S
C4046 H4058 0.956 . S
C4046 H4059 0.961 . S
C4046 H4060 0.961 . S
C4047 C4044 1.539 . S
C4047 H4061 0.958 . S
C4047 H4062 0.961 . S
C4047 H4063 0.960 . S
H4048 C4032 0.931 . S
H4049 C4037 0.929 . S
H4050 C4038 0.982 . S
H4051 C4038 0.938 1_554 S
H4052 C4038 0.957 . S
H4053 C4039 0.961 . S
H4054 C4039 0.961 . S
H4055 C4039 0.961 . S
H4056 C4040 0.931 1_554 S
H4057 C4045 0.930 . S
H4058 C4046 0.956 . S
H4059 C4046 0.961 . S
H4060 C4046 0.961 . S
H4061 C4047 0.958 . S
H4062 C4047 0.961 . S
H4063 C4047 0.960 . S
C4064 C4065 1.391 . S
C4064 C4066 1.394 . S
C4064 H4080 0.941 . S
C4065 C4064 1.391 . S
C4065 C4069 1.376 . S
C4066 C4064 1.394 . S
C4066 C4067 1.369 . S
C4066 C4070 1.531 1_554 S
C4067 C4066 1.369 . S
C4067 C4068 1.410 . S
C4067 C4075 1.503 . S
C4068 C4067 1.410 . S
C4068 C4069 1.392 . S
C4068 C4071 1.511 . S
C4069 C4065 1.376 . S
C4069 C4068 1.392 . S
C4069 H4081 0.929 . S
C4070 C4066 1.531 1_556 S
C4070 H4082 0.960 . S
C4070 H4083 0.962 . S
C4070 H4084 0.960 . S
C4071 C4068 1.511 . S
C4071 H4085 0.961 . S
C4071 H4086 0.961 . S
C4071 H4087 0.961 . S
C4072 C4073 1.370 . S
C4072 C4074 1.363 . S
C4072 H4088 0.931 . S
C4073 C4072 1.370 . S
C4073 C4077 1.408 . S
C4074 C4072 1.363 . S
C4074 C4075 1.370 . S
C4074 C4078 1.524 . S
C4075 C4067 1.503 . S
C4075 C4074 1.370 . S
C4075 C4076 1.403 . S
C4076 C4075 1.403 . S
C4076 C4077 1.404 . S
C4076 C4079 1.539 . S
C4077 C4073 1.408 . S
C4077 C4076 1.404 . S
C4077 H4089 0.930 . S
C4078 C4074 1.524 . S
C4078 H4090 0.956 1_554 S
C4078 H4091 0.961 . S
C4078 H4092 0.961 1_554 S
C4079 C4076 1.539 . S
C4079 H4093 0.958 . S
C4079 H4094 0.961 . S
C4079 H4095 0.960 . S
H4080 C4064 0.941 . S
H4081 C4069 0.929 . S
H4082 C4070 0.960 . S
H4083 C4070 0.962 . S
H4084 C4070 0.960 . S
H4085 C4071 0.961 . S
H4086 C4071 0.961 . S
H4087 C4071 0.961 . S
H4088 C4072 0.931 . S
H4089 C4077 0.930 . S
H4090 C4078 0.956 1_556 S
H4091 C4078 0.961 . S
H4092 C4078 0.961 1_556 S
H4093 C4079 0.958 . S
H4094 C4079 0.961 . S
H4095 C4079 0.960 . S
C4096 C4097 1.391 . S
C4096 C4098 1.394 . S
C4096 H4112 0.931 . S
C4097 C4096 1.391 . S
C4097 C4101 1.376 . S
C4098 C4096 1.394 . S
C4098 C4099 1.369 . S
C4098 C4102 1.531 . S
C4099 C4098 1.369 . S
C4099 C4100 1.410 . S
C4099 C4107 1.503 . S
C4100 C4099 1.410 . S
C4100 C4101 1.392 . S
C4100 C4103 1.511 . S
C4101 C4097 1.376 . S
C4101 C4100 1.392 . S
C4101 H4113 0.929 . S
C4102 C4098 1.531 . S
C4102 H4114 0.960 . S
C4102 H4115 0.962 . S
C4102 H4116 0.960 . S
C4103 C4100 1.511 . S
C4103 H4117 0.961 . S
C4103 H4118 0.961 . S
C4103 H4119 0.961 . S
C4104 C4105 1.370 . S
C4104 C4106 1.363 . S
C4104 H4120 0.931 . S
C4105 C4104 1.370 . S
C4105 C4109 1.408 . S
C4106 C4104 1.363 . S
C4106 C4107 1.370 . S
C4106 C4110 1.524 . S
C4107 C4099 1.503 . S
C4107 C4106 1.370 . S
C4107 C4108 1.403 . S
C4108 C4107 1.403 . S
C4108 C4109 1.404 . S
C4108 C4111 1.539 . S
C4109 C4105 1.408 . S
C4109 C4108 1.404 . S
C4109 H4121 0.930 . S
C4110 C4106 1.524 . S
C4110 H4122 0.956 . S
C4110 H4123 0.961 . S
C4110 H4124 0.961 . S
C4111 C4108 1.539 . S
C4111 H4125 0.958 . S
C4111 H4126 0.961 . S
C4111 H4127 0.960 . S
H4112 C4096 0.931 . S
H4113 C4101 0.929 . S
H4114 C4102 0.960 . S
H4115 C4102 0.962 . S
H4116 C4102 0.960 . S
H4117 C4103 0.961 . S
H4118 C4103 0.961 . S
H4119 C4103 0.961 . S
H4120 C4104 0.931 . S
H4121 C4109 0.930 . S
H4122 C4110 0.956 . S
H4123 C4110 0.961 . S
H4124 C4110 0.961 . S
H4125 C4111 0.958 . S
H4126 C4111 0.961 . S
H4127 C4111 0.960 . S
C4128 C4129 1.391 . S
C4128 C4130 1.394 . S
C4128 H4144 0.931 . S
C4129 C4128 1.391 . S
C4129 C4133 1.376 . S
C4130 C4128 1.394 . S
C4130 C4131 1.369 . S
C4130 C4134 1.531 . S
C4131 C4130 1.369 . S
C4131 C4132 1.410 . S
C4131 C4139 1.503 . S
C4132 C4131 1.410 . S
C4132 C4133 1.392 . S
C4132 C4135 1.511 . S
C4133 C4129 1.376 . S
C4133 C4132 1.392 . S
C4133 H4145 0.929 . S
C4134 C4130 1.531 . S
C4134 H4146 0.960 . S
C4134 H4147 0.962 . S
C4134 H4148 0.960 . S
C4135 C4132 1.511 . S
C4135 H4149 0.961 . S
C4135 H4150 0.961 . S
C4135 H4151 0.961 . S
C4136 C4137 1.370 . S
C4136 C4138 1.363 . S
C4136 H4152 0.931 . S
C4137 C4136 1.370 . S
C4137 C4141 1.408 . S
C4138 C4136 1.363 . S
C4138 C4139 1.370 . S
C4138 C4142 1.524 . S
C4139 C4131 1.503 . S
C4139 C4138 1.370 . S
C4139 C4140 1.403 . S
C4140 C4139 1.403 . S
C4140 C4141 1.404 . S
C4140 C4143 1.539 . S
C4141 C4137 1.408 . S
C4141 C4140 1.404 . S
C4141 H4153 0.930 . S
C4142 C4138 1.524 . S
C4142 H4154 0.956 . S
C4142 H4155 0.961 . S
C4142 H4156 0.961 . S
C4143 C4140 1.539 . S
C4143 H4157 0.958 . S
C4143 H4158 0.961 . S
C4143 H4159 0.960 . S
H4144 C4128 0.931 . S
H4145 C4133 0.929 . S
H4146 C4134 0.960 . S
H4147 C4134 0.962 . S
H4148 C4134 0.960 . S
H4149 C4135 0.961 . S
H4150 C4135 0.961 . S
H4151 C4135 0.961 . S
H4152 C4136 0.931 . S
H4153 C4141 0.930 . S
H4154 C4142 0.956 . S
H4155 C4142 0.961 . S
H4156 C4142 0.961 . S
H4157 C4143 0.958 . S
H4158 C4143 0.961 . S
H4159 C4143 0.960 . S
C4160 C4161 1.391 . S
C4160 C4162 1.394 . S
C4160 H4176 0.931 . S
C4161 C4160 1.391 . S
C4161 C4165 1.376 . S
C4162 C4160 1.394 . S
C4162 C4163 1.369 . S
C4162 C4166 1.531 . S
C4163 C4162 1.369 . S
C4163 C4164 1.410 . S
C4163 C4171 1.503 . S
C4164 C4163 1.410 . S
C4164 C4165 1.392 . S
C4164 C4167 1.511 . S
C4165 C4161 1.376 . S
C4165 C4164 1.392 . S
C4165 H4177 0.929 . S
C4166 C4162 1.531 . S
C4166 H4178 0.960 . S
C4166 H4179 0.962 . S
C4166 H4180 0.960 . S
C4167 C4164 1.511 . S
C4167 H4181 0.961 . S
C4167 H4182 0.961 . S
C4167 H4183 0.961 . S
C4168 C4169 1.370 . S
C4168 C4170 1.363 . S
C4168 H4184 0.931 . S
C4169 C4168 1.370 . S
C4169 C4173 1.408 . S
C4170 C4168 1.363 . S
C4170 C4171 1.370 . S
C4170 C4174 1.524 . S
C4171 C4163 1.503 . S
C4171 C4170 1.370 . S
C4171 C4172 1.403 . S
C4172 C4171 1.403 . S
C4172 C4173 1.404 . S
C4172 C4175 1.539 . S
C4173 C4169 1.408 . S
C4173 C4172 1.404 . S
C4173 H4185 0.930 . S
C4174 C4170 1.524 . S
C4174 H4186 0.956 . S
C4174 H4187 0.961 . S
C4174 H4188 0.961 . S
C4175 C4172 1.539 . S
C4175 H4189 0.958 . S
C4175 H4190 0.961 . S
C4175 H4191 0.960 . S
H4176 C4160 0.931 . S
H4177 C4165 0.929 . S
H4178 C4166 0.960 . S
H4179 C4166 0.962 . S
H4180 C4166 0.960 . S
H4181 C4167 0.961 . S
H4182 C4167 0.961 . S
H4183 C4167 0.961 . S
H4184 C4168 0.931 . S
H4185 C4173 0.930 . S
H4186 C4174 0.956 . S
H4187 C4174 0.961 . S
H4188 C4174 0.961 . S
H4189 C4175 0.958 . S
H4190 C4175 0.961 . S
H4191 C4175 0.960 . S
C4192 C4193 1.391 . S
C4192 C4194 1.394 . S
C4192 H4208 0.931 . S
C4193 C4192 1.391 . S
C4193 C4197 1.376 . S
C4194 C4192 1.394 . S
C4194 C4195 1.369 . S
C4194 C4198 1.531 . S
C4195 C4194 1.369 . S
C4195 C4196 1.410 . S
C4195 C4203 1.503 . S
C4196 C4195 1.410 . S
C4196 C4197 1.392 . S
C4196 C4199 1.511 . S
C4197 C4193 1.376 . S
C4197 C4196 1.392 . S
C4197 H4209 0.929 . S
C4198 C4194 1.531 . S
C4198 H4210 0.960 . S
C4198 H4211 0.962 . S
C4198 H4212 0.960 . S
C4199 C4196 1.511 . S
C4199 H4213 0.961 . S
C4199 H4214 0.961 . S
C4199 H4215 0.961 . S
C4200 C4201 1.370 . S
C4200 C4202 1.363 . S
C4200 H4216 0.931 . S
C4201 C4200 1.370 . S
C4201 C4205 1.408 . S
C4202 C4200 1.363 . S
C4202 C4203 1.370 . S
C4202 C4206 1.524 . S
C4203 C4195 1.503 . S
C4203 C4202 1.370 . S
C4203 C4204 1.403 . S
C4204 C4203 1.403 . S
C4204 C4205 1.404 . S
C4204 C4207 1.539 . S
C4205 C4201 1.408 . S
C4205 C4204 1.404 . S
C4205 H4217 0.930 . S
C4206 C4202 1.524 . S
C4206 H4218 0.956 . S
C4206 H4219 0.961 . S
C4206 H4220 0.961 . S
C4207 C4204 1.539 . S
C4207 H4221 0.958 . S
C4207 H4222 0.961 . S
C4207 H4223 0.960 . S
H4208 C4192 0.931 . S
H4209 C4197 0.929 . S
H4210 C4198 0.960 . S
H4211 C4198 0.962 . S
H4212 C4198 0.960 . S
H4213 C4199 0.961 . S
H4214 C4199 0.961 . S
H4215 C4199 0.961 . S
H4216 C4200 0.931 . S
H4217 C4205 0.930 . S
H4218 C4206 0.956 . S
H4219 C4206 0.961 . S
H4220 C4206 0.961 . S
H4221 C4207 0.958 . S
H4222 C4207 0.961 . S
H4223 C4207 0.960 . S
C4224 C4225 1.391 . S
C4224 C4226 1.394 . S
C4224 H4240 0.931 . S
C4225 C4224 1.391 . S
C4225 C4229 1.376 . S
C4226 C4224 1.394 . S
C4226 C4227 1.369 . S
C4226 C4230 1.531 . S
C4227 C4226 1.369 . S
C4227 C4228 1.410 . S
C4227 C4235 1.503 . S
C4228 C4227 1.410 . S
C4228 C4229 1.392 . S
C4228 C4231 1.511 . S
C4229 C4225 1.376 . S
C4229 C4228 1.392 . S
C4229 H4241 0.929 . S
C4230 C4226 1.531 . S
C4230 H4242 0.960 . S
C4230 H4243 0.962 . S
C4230 H4244 0.960 . S
C4231 C4228 1.511 . S
C4231 H4245 0.961 . S
C4231 H4246 0.961 . S
C4231 H4247 0.961 . S
C4232 C4233 1.370 . S
C4232 C4234 1.363 . S
C4232 H4248 0.931 . S
C4233 C4232 1.370 . S
C4233 C4237 1.408 . S
C4234 C4232 1.363 . S
C4234 C4235 1.370 . S
C4234 C4238 1.524 . S
C4235 C4227 1.503 . S
C4235 C4234 1.370 . S
C4235 C4236 1.403 . S
C4236 C4235 1.403 . S
C4236 C4237 1.404 . S
C4236 C4239 1.539 . S
C4237 C4233 1.408 . S
C4237 C4236 1.404 . S
C4237 H4249 0.930 . S
C4238 C4234 1.524 . S
C4238 H4250 0.956 . S
C4238 H4251 0.961 . S
C4238 H4252 0.961 . S
C4239 C4236 1.539 . S
C4239 H4253 0.958 . S
C4239 H4254 0.961 . S
C4239 H4255 0.960 . S
H4240 C4224 0.931 . S
H4241 C4229 0.929 . S
H4242 C4230 0.960 . S
H4243 C4230 0.962 . S
H4244 C4230 0.960 . S
H4245 C4231 0.961 . S
H4246 C4231 0.961 . S
H4247 C4231 0.961 . S
H4248 C4232 0.931 . S
H4249 C4237 0.930 . S
H4250 C4238 0.956 . S
H4251 C4238 0.961 . S
H4252 C4238 0.961 . S
H4253 C4239 0.958 . S
H4254 C4239 0.961 . S
H4255 C4239 0.960 . S
C4256 C4257 1.391 . S
C4256 C4258 1.394 . S
C4256 H4272 0.931 . S
C4257 C4256 1.391 . S
C4257 C4261 1.376 . S
C4258 C4256 1.394 . S
C4258 C4259 1.369 . S
C4258 C4262 1.531 . S
C4259 C4258 1.369 . S
C4259 C4260 1.410 . S
C4259 C4267 1.503 . S
C4260 C4259 1.410 . S
C4260 C4261 1.392 . S
C4260 C4263 1.511 . S
C4261 C4257 1.376 . S
C4261 C4260 1.392 . S
C4261 H4273 0.929 . S
C4262 C4258 1.531 . S
C4262 H4274 0.960 . S
C4262 H4275 0.962 . S
C4262 H4276 0.960 . S
C4263 C4260 1.511 . S
C4263 H4277 0.961 . S
C4263 H4278 0.961 . S
C4263 H4279 0.961 . S
C4264 C4265 1.370 . S
C4264 C4266 1.363 . S
C4264 H4280 0.931 . S
C4265 C4264 1.370 . S
C4265 C4269 1.408 . S
C4266 C4264 1.363 . S
C4266 C4267 1.370 . S
C4266 C4270 1.524 . S
C4267 C4259 1.503 . S
C4267 C4266 1.370 . S
C4267 C4268 1.403 . S
C4268 C4267 1.403 . S
C4268 C4269 1.404 . S
C4268 C4271 1.539 . S
C4269 C4265 1.408 . S
C4269 C4268 1.404 . S
C4269 H4281 0.930 . S
C4270 C4266 1.524 . S
C4270 H4282 0.956 . S
C4270 H4283 0.961 . S
C4270 H4284 0.961 . S
C4271 C4268 1.539 . S
C4271 H4285 0.958 . S
C4271 H4286 0.961 . S
C4271 H4287 0.960 . S
H4272 C4256 0.931 . S
H4273 C4261 0.929 . S
H4274 C4262 0.960 . S
H4275 C4262 0.962 . S
H4276 C4262 0.960 . S
H4277 C4263 0.961 . S
H4278 C4263 0.961 . S
H4279 C4263 0.961 . S
H4280 C4264 0.931 . S
H4281 C4269 0.930 . S
H4282 C4270 0.956 . S
H4283 C4270 0.961 . S
H4284 C4270 0.961 . S
H4285 C4271 0.958 . S
H4286 C4271 0.961 . S
H4287 C4271 0.960 . S
C4288 C4289 1.391 . S
C4288 C4290 1.394 . S
C4288 H4304 0.931 . S
C4289 C4288 1.391 . S
C4289 C4293 1.376 . S
C4290 C4288 1.394 . S
C4290 C4291 1.369 . S
C4290 C4294 1.531 . S
C4291 C4290 1.369 . S
C4291 C4292 1.410 . S
C4291 C4299 1.503 . S
C4292 C4291 1.410 . S
C4292 C4293 1.392 . S
C4292 C4295 1.511 . S
C4293 C4289 1.376 . S
C4293 C4292 1.392 . S
C4293 H4305 0.929 . S
C4294 C4290 1.531 . S
C4294 H4306 0.960 . S
C4294 H4307 0.962 . S
C4294 H4308 0.960 . S
C4295 C4292 1.511 . S
C4295 H4309 0.961 . S
C4295 H4310 0.961 . S
C4295 H4311 0.961 . S
C4296 C4297 1.370 . S
C4296 C4298 1.363 . S
C4296 H4312 0.931 . S
C4297 C4296 1.370 . S
C4297 C4301 1.408 . S
C4298 C4296 1.363 . S
C4298 C4299 1.370 . S
C4298 C4302 1.524 . S
C4299 C4291 1.503 . S
C4299 C4298 1.370 . S
C4299 C4300 1.403 . S
C4300 C4299 1.403 . S
C4300 C4301 1.404 . S
C4300 C4303 1.539 . S
C4301 C4297 1.408 . S
C4301 C4300 1.404 . S
C4301 H4313 0.930 . S
C4302 C4298 1.524 . S
C4302 H4314 0.956 . S
C4302 H4315 0.961 . S
C4302 H4316 0.961 . S
C4303 C4300 1.539 . S
C4303 H4317 0.958 . S
C4303 H4318 0.961 . S
C4303 H4319 0.960 . S
H4304 C4288 0.931 . S
H4305 C4293 0.929 . S
H4306 C4294 0.960 . S
H4307 C4294 0.962 . S
H4308 C4294 0.960 . S
H4309 C4295 0.961 . S
H4310 C4295 0.961 . S
H4311 C4295 0.961 . S
H4312 C4296 0.931 . S
H4313 C4301 0.930 . S
H4314 C4302 0.956 . S
H4315 C4302 0.961 . S
H4316 C4302 0.961 . S
H4317 C4303 0.958 . S
H4318 C4303 0.961 . S
H4319 C4303 0.960 . S
C4320 C4321 1.391 . S
C4320 C4322 1.394 . S
C4320 H4336 0.931 . S
C4321 C4320 1.391 . S
C4321 C4325 1.376 . S
C4322 C4320 1.394 . S
C4322 C4323 1.369 . S
C4322 C4326 1.531 . S
C4323 C4322 1.369 . S
C4323 C4324 1.410 . S
C4323 C4331 1.503 . S
C4324 C4323 1.410 . S
C4324 C4325 1.392 . S
C4324 C4327 1.511 . S
C4325 C4321 1.376 . S
C4325 C4324 1.392 . S
C4325 H4337 0.929 . S
C4326 C4322 1.531 . S
C4326 H4338 0.960 . S
C4326 H4339 0.962 . S
C4326 H4340 0.960 . S
C4327 C4324 1.511 . S
C4327 H4341 0.961 . S
C4327 H4342 0.961 . S
C4327 H4343 0.961 . S
C4328 C4329 1.370 . S
C4328 C4330 1.363 . S
C4328 H4344 0.931 . S
C4329 C4328 1.370 . S
C4329 C4333 1.408 . S
C4330 C4328 1.363 . S
C4330 C4331 1.370 . S
C4330 C4334 1.524 . S
C4331 C4323 1.503 . S
C4331 C4330 1.370 . S
C4331 C4332 1.403 . S
C4332 C4331 1.403 . S
C4332 C4333 1.404 . S
C4332 C4335 1.539 . S
C4333 C4329 1.408 . S
C4333 C4332 1.404 . S
C4333 H4345 0.930 . S
C4334 C4330 1.524 . S
C4334 H4346 0.956 . S
C4334 H4347 0.961 . S
C4334 H4348 0.961 . S
C4335 C4332 1.539 . S
C4335 H4349 0.958 . S
C4335 H4350 0.961 . S
C4335 H4351 0.960 . S
H4336 C4320 0.931 . S
H4337 C4325 0.929 . S
H4338 C4326 0.960 . S
H4339 C4326 0.962 . S
H4340 C4326 0.960 . S
H4341 C4327 0.961 . S
H4342 C4327 0.961 . S
H4343 C4327 0.961 . S
H4344 C4328 0.931 . S
H4345 C4333 0.930 . S
H4346 C4334 0.956 . S
H4347 C4334 0.961 . S
H4348 C4334 0.961 . S
H4349 C4335 0.958 . S
H4350 C4335 0.961 . S
H4351 C4335 0.960 . S
C4352 C4353 1.391 . S
C4352 C4354 1.394 1_556 S
C4352 H4368 0.931 1_556 S
C4353 C4352 1.391 . S
C4353 C4357 1.376 . S
C4354 C4352 1.394 1_554 S
C4354 C4355 1.369 1_554 S
C4354 C4358 1.531 . S
C4355 C4354 1.369 1_556 S
C4355 C4356 1.410 . S
C4355 C4363 1.503 . S
C4356 C4355 1.410 . S
C4356 C4357 1.392 . S
C4356 C4359 1.511 . S
C4357 C4353 1.376 . S
C4357 C4356 1.392 . S
C4357 H4369 0.929 . S
C4358 C4354 1.531 . S
C4358 H4370 0.960 . S
C4358 H4371 0.962 . S
C4358 H4372 0.960 . S
C4359 C4356 1.511 . S
C4359 H4373 0.961 . S
C4359 H4374 0.961 . S
C4359 H4375 0.961 . S
C4360 C4361 1.351 1_556 S
C4360 C4362 1.363 . S
C4360 H4376 0.931 . S
C4361 C4360 1.351 1_554 S
C4361 C4365 1.431 . S
C4362 C4360 1.363 . S
C4362 C4363 1.370 . S
C4362 C4366 1.524 . S
C4363 C4355 1.503 . S
C4363 C4362 1.370 . S
C4363 C4364 1.403 1_556 S
C4364 C4363 1.403 1_554 S
C4364 C4365 1.404 . S
C4364 C4367 1.539 . S
C4365 C4361 1.431 . S
C4365 C4364 1.404 . S
C4365 H4377 0.930 . S
C4366 C4362 1.524 . S
C4366 H4378 0.955 1_455 S
C4366 H4379 0.961 . S
C4366 H4380 0.961 . S
C4367 C4364 1.539 . S
C4367 H4381 0.958 . S
C4367 H4382 0.961 . S
C4367 H4383 0.960 . S
H4368 C4352 0.931 1_554 S
H4369 C4357 0.929 . S
H4370 C4358 0.960 . S
H4371 C4358 0.962 . S
H4372 C4358 0.960 . S
H4373 C4359 0.961 . S
H4374 C4359 0.961 . S
H4375 C4359 0.961 . S
H4376 C4360 0.931 . S
H4377 C4365 0.930 . S
H4378 C4366 0.955 1_655 S
H4379 C4366 0.961 . S
H4380 C4366 0.961 . S
H4381 C4367 0.958 . S
H4382 C4367 0.961 . S
H4383 C4367 0.960 . S
C4384 C4385 1.391 . S
C4384 C4386 1.394 . S
C4384 H4400 0.931 . S
C4385 C4384 1.391 . S
C4385 C4389 1.376 . S
C4386 C4384 1.394 . S
C4386 C4387 1.369 . S
C4386 C4390 1.531 . S
C4387 C4386 1.369 . S
C4387 C4388 1.410 . S
C4387 C4395 1.503 . S
C4388 C4387 1.410 . S
C4388 C4389 1.392 . S
C4388 C4391 1.511 . S
C4389 C4385 1.376 . S
C4389 C4388 1.392 . S
C4389 H4401 0.929 . S
C4390 C4386 1.531 . S
C4390 H4402 0.960 . S
C4390 H4403 0.962 . S
C4390 H4404 0.960 . S
C4391 C4388 1.511 . S
C4391 H4405 0.961 . S
C4391 H4406 0.961 . S
C4391 H4407 0.961 . S
C4392 C4393 1.370 . S
C4392 C4394 1.363 . S
C4392 H4408 0.931 . S
C4393 C4392 1.370 . S
C4393 C4397 1.408 . S
C4394 C4392 1.363 . S
C4394 C4395 1.370 . S
C4394 C4398 1.524 . S
C4395 C4387 1.503 . S
C4395 C4394 1.370 . S
C4395 C4396 1.403 . S
C4396 C4395 1.403 . S
C4396 C4397 1.404 . S
C4396 C4399 1.539 . S
C4397 C4393 1.408 . S
C4397 C4396 1.404 . S
C4397 H4409 0.930 . S
C4398 C4394 1.524 . S
C4398 H4410 0.956 . S
C4398 H4411 0.961 . S
C4398 H4412 0.961 . S
C4399 C4396 1.539 . S
C4399 H4413 0.958 . S
C4399 H4414 0.961 . S
C4399 H4415 0.960 . S
H4400 C4384 0.931 . S
H4401 C4389 0.929 . S
H4402 C4390 0.960 . S
H4403 C4390 0.962 . S
H4404 C4390 0.960 . S
H4405 C4391 0.961 . S
H4406 C4391 0.961 . S
H4407 C4391 0.961 . S
H4408 C4392 0.931 . S
H4409 C4397 0.930 . S
H4410 C4398 0.956 . S
H4411 C4398 0.961 . S
H4412 C4398 0.961 . S
H4413 C4399 0.958 . S
H4414 C4399 0.961 . S
H4415 C4399 0.960 . S
C4416 C4417 1.391 . S
C4416 C4418 1.394 . S
C4416 H4432 0.931 . S
C4417 C4416 1.391 . S
C4417 C4421 1.376 . S
C4418 C4416 1.394 . S
C4418 C4419 1.369 . S
C4418 C4422 1.531 . S
C4419 C4418 1.369 . S
C4419 C4420 1.410 . S
C4419 C4427 1.503 . S
C4420 C4419 1.410 . S
C4420 C4421 1.392 . S
C4420 C4423 1.511 . S
C4421 C4417 1.376 . S
C4421 C4420 1.392 . S
C4421 H4433 0.929 . S
C4422 C4418 1.531 . S
C4422 H4434 0.960 . S
C4422 H4435 0.962 . S
C4422 H4436 0.960 . S
C4423 C4420 1.511 . S
C4423 H4437 0.961 . S
C4423 H4438 0.961 . S
C4423 H4439 0.961 . S
C4424 C4425 1.370 . S
C4424 C4426 1.363 . S
C4424 H4440 0.931 . S
C4425 C4424 1.370 . S
C4425 C4429 1.408 . S
C4426 C4424 1.363 . S
C4426 C4427 1.370 . S
C4426 C4430 1.524 . S
C4427 C4419 1.503 . S
C4427 C4426 1.370 . S
C4427 C4428 1.403 . S
C4428 C4427 1.403 . S
C4428 C4429 1.404 . S
C4428 C4431 1.539 . S
C4429 C4425 1.408 . S
C4429 C4428 1.404 . S
C4429 H4441 0.930 . S
C4430 C4426 1.524 . S
C4430 H4442 0.956 . S
C4430 H4443 0.961 . S
C4430 H4444 0.961 . S
C4431 C4428 1.539 . S
C4431 H4445 0.958 . S
C4431 H4446 0.961 . S
C4431 H4447 0.960 . S
H4432 C4416 0.931 . S
H4433 C4421 0.929 . S
H4434 C4422 0.960 . S
H4435 C4422 0.962 . S
H4436 C4422 0.960 . S
H4437 C4423 0.961 . S
H4438 C4423 0.961 . S
H4439 C4423 0.961 . S
H4440 C4424 0.931 . S
H4441 C4429 0.930 . S
H4442 C4430 0.956 . S
H4443 C4430 0.961 . S
H4444 C4430 0.961 . S
H4445 C4431 0.958 . S
H4446 C4431 0.961 . S
H4447 C4431 0.960 . S
C4448 C4449 1.392 . S
C4448 C4450 1.394 . S
C4448 H4464 0.925 1_655 S
C4449 C4448 1.392 . S
C4449 C4453 1.379 . S
C4450 C4448 1.394 . S
C4450 C4451 1.369 . S
C4450 C4454 1.531 . S
C4451 C4450 1.369 . S
C4451 C4452 1.410 . S
C4451 C4459 1.503 . S
C4452 C4451 1.410 . S
C4452 C4453 1.392 . S
C4452 C4455 1.511 . S
C4453 C4449 1.379 . S
C4453 C4452 1.392 . S
C4453 H4465 0.929 . S
C4454 C4450 1.531 . S
C4454 H4466 0.960 . S
C4454 H4467 0.962 . S
C4454 H4468 0.960 . S
C4455 C4452 1.511 . S
C4455 H4469 0.961 . S
C4455 H4470 0.961 . S
C4455 H4471 0.961 . S
C4456 C4457 1.370 . S
C4456 C4458 1.363 . S
C4456 H4472 0.931 . S
C4457 C4456 1.370 . S
C4457 C4461 1.408 . S
C4458 C4456 1.363 . S
C4458 C4459 1.370 . S
C4458 C4462 1.524 . S
C4459 C4451 1.503 . S
C4459 C4458 1.370 . S
C4459 C4460 1.403 . S
C4460 C4459 1.403 . S
C4460 C4461 1.404 . S
C4460 C4463 1.539 . S
C4461 C4457 1.408 . S
C4461 C4460 1.404 . S
C4461 H4473 0.930 . S
C4462 C4458 1.524 . S
C4462 H4474 0.956 . S
C4462 H4475 0.961 . S
C4462 H4476 0.961 . S
C4463 C4460 1.539 . S
C4463 H4477 0.958 . S
C4463 H4478 0.961 . S
C4463 H4479 0.960 . S
H4464 C4448 0.925 1_455 S
H4465 C4453 0.929 . S
H4466 C4454 0.960 . S
H4467 C4454 0.962 . S
H4468 C4454 0.960 . S
H4469 C4455 0.961 . S
H4470 C4455 0.961 . S
H4471 C4455 0.961 . S
H4472 C4456 0.931 . S
H4473 C4461 0.930 . S
H4474 C4462 0.956 . S
H4475 C4462 0.961 . S
H4476 C4462 0.961 . S
H4477 C4463 0.958 . S
H4478 C4463 0.961 . S
H4479 C4463 0.960 . S
C4480 C4481 1.391 . S
C4480 C4482 1.394 . S
C4480 H4496 0.931 . S
C4481 C4480 1.391 . S
C4481 C4485 1.376 1_655 S
C4482 C4480 1.394 . S
C4482 C4483 1.369 1_655 S
C4482 C4486 1.531 . S
C4483 C4482 1.369 1_455 S
C4483 C4484 1.410 . S
C4483 C4491 1.503 . S
C4484 C4483 1.410 . S
C4484 C4485 1.392 . S
C4484 C4487 1.511 . S
C4485 C4481 1.376 1_455 S
C4485 C4484 1.392 . S
C4485 H4497 0.929 . S
C4486 C4482 1.531 . S
C4486 H4498 0.960 . S
C4486 H4499 0.962 . S
C4486 H4500 0.960 . S
C4487 C4484 1.511 . S
C4487 H4501 0.961 . S
C4487 H4502 0.961 . S
C4487 H4503 0.961 . S
C4488 C4489 1.370 . S
C4488 C4490 1.363 . S
C4488 H4504 0.931 . S
C4489 C4488 1.370 . S
C4489 C4493 1.408 . S
C4490 C4488 1.363 . S
C4490 C4491 1.370 . S
C4490 C4494 1.524 . S
C4491 C4483 1.503 . S
C4491 C4490 1.370 . S
C4491 C4492 1.403 . S
C4492 C4491 1.403 . S
C4492 C4493 1.404 . S
C4492 C4495 1.539 . S
C4493 C4489 1.408 . S
C4493 C4492 1.404 . S
C4493 H4505 0.930 . S
C4494 C4490 1.524 . S
C4494 H4506 0.956 1_455 S
C4494 H4507 0.961 . S
C4494 H4508 0.961 . S
C4495 C4492 1.539 . S
C4495 H4509 0.958 . S
C4495 H4510 0.961 . S
C4495 H4511 0.960 . S
H4496 C4480 0.931 . S
H4497 C4485 0.929 . S
H4498 C4486 0.960 . S
H4499 C4486 0.962 . S
H4500 C4486 0.960 . S
H4501 C4487 0.961 . S
H4502 C4487 0.961 . S
H4503 C4487 0.961 . S
H4504 C4488 0.931 . S
H4505 C4493 0.930 . S
H4506 C4494 0.956 1_655 S
H4507 C4494 0.961 . S
H4508 C4494 0.961 . S
H4509 C4495 0.958 . S
H4510 C4495 0.961 . S
H4511 C4495 0.960 . S
C4512 C4513 1.391 . S
C4512 C4514 1.394 . S
C4512 H4528 0.931 . S
C4513 C4512 1.391 . S
C4513 C4517 1.376 . S
C4514 C4512 1.394 . S
C4514 C4515 1.369 . S
C4514 C4518 1.531 . S
C4515 C4514 1.369 . S
C4515 C4516 1.410 . S
C4515 C4523 1.503 . S
C4516 C4515 1.410 . S
C4516 C4517 1.392 . S
C4516 C4519 1.511 . S
C4517 C4513 1.376 . S
C4517 C4516 1.392 . S
C4517 H4529 0.929 . S
C4518 C4514 1.531 . S
C4518 H4530 0.960 . S
C4518 H4531 0.962 . S
C4518 H4532 0.960 . S
C4519 C4516 1.511 . S
C4519 H4533 0.961 . S
C4519 H4534 0.961 . S
C4519 H4535 0.961 . S
C4520 C4521 1.370 . S
C4520 C4522 1.363 . S
C4520 H4536 0.931 . S
C4521 C4520 1.370 . S
C4521 C4525 1.408 . S
C4522 C4520 1.363 . S
C4522 C4523 1.370 . S
C4522 C4526 1.524 . S
C4523 C4515 1.503 . S
C4523 C4522 1.370 . S
C4523 C4524 1.403 . S
C4524 C4523 1.403 . S
C4524 C4525 1.404 . S
C4524 C4527 1.539 . S
C4525 C4521 1.408 . S
C4525 C4524 1.404 . S
C4525 H4537 0.930 . S
C4526 C4522 1.524 . S
C4526 H4538 0.956 . S
C4526 H4539 0.961 . S
C4526 H4540 0.961 . S
C4527 C4524 1.539 . S
C4527 H4541 0.958 . S
C4527 H4542 0.961 . S
C4527 H4543 0.960 . S
H4528 C4512 0.931 . S
H4529 C4517 0.929 . S
H4530 C4518 0.960 . S
H4531 C4518 0.962 . S
H4532 C4518 0.960 . S
H4533 C4519 0.961 . S
H4534 C4519 0.961 . S
H4535 C4519 0.961 . S
H4536 C4520 0.931 . S
H4537 C4525 0.930 . S
H4538 C4526 0.956 . S
H4539 C4526 0.961 . S
H4540 C4526 0.961 . S
H4541 C4527 0.958 . S
H4542 C4527 0.961 . S
H4543 C4527 0.960 . S
C4544 C4545 1.391 . S
C4544 C4546 1.394 . S
C4544 H4560 0.931 . S
C4545 C4544 1.391 . S
C4545 C4549 1.376 . S
C4546 C4544 1.394 . S
C4546 C4547 1.369 . S
C4546 C4550 1.531 . S
C4547 C4546 1.369 . S
C4547 C4548 1.410 . S
C4547 C4555 1.503 . S
C4548 C4547 1.410 . S
C4548 C4549 1.392 . S
C4548 C4551 1.511 . S
C4549 C4545 1.376 . S
C4549 C4548 1.392 . S
C4549 H4561 0.929 . S
C4550 C4546 1.531 . S
C4550 H4562 0.960 . S
C4550 H4563 0.962 . S
C4550 H4564 0.960 . S
C4551 C4548 1.511 . S
C4551 H4565 0.961 . S
C4551 H4566 0.961 . S
C4551 H4567 0.961 . S
C4552 C4553 1.370 . S
C4552 C4554 1.363 . S
C4552 H4568 0.931 . S
C4553 C4552 1.370 . S
C4553 C4557 1.408 . S
C4554 C4552 1.363 . S
C4554 C4555 1.370 . S
C4554 C4558 1.524 . S
C4555 C4547 1.503 . S
C4555 C4554 1.370 . S
C4555 C4556 1.403 . S
C4556 C4555 1.403 . S
C4556 C4557 1.404 . S
C4556 C4559 1.539 . S
C4557 C4553 1.408 . S
C4557 C4556 1.404 . S
C4557 H4569 0.930 . S
C4558 C4554 1.524 . S
C4558 H4570 0.956 . S
C4558 H4571 0.961 . S
C4558 H4572 0.961 . S
C4559 C4556 1.539 . S
C4559 H4573 0.958 . S
C4559 H4574 0.961 . S
C4559 H4575 0.960 . S
H4560 C4544 0.931 . S
H4561 C4549 0.929 . S
H4562 C4550 0.960 . S
H4563 C4550 0.962 . S
H4564 C4550 0.960 . S
H4565 C4551 0.961 . S
H4566 C4551 0.961 . S
H4567 C4551 0.961 . S
H4568 C4552 0.931 . S
H4569 C4557 0.930 . S
H4570 C4558 0.956 . S
H4571 C4558 0.961 . S
H4572 C4558 0.961 . S
H4573 C4559 0.958 . S
H4574 C4559 0.961 . S
H4575 C4559 0.960 . S
C4576 C4577 1.391 . S
C4576 C4578 1.394 . S
C4576 H4592 0.931 . S
C4577 C4576 1.391 . S
C4577 C4581 1.376 . S
C4578 C4576 1.394 . S
C4578 C4579 1.369 . S
C4578 C4582 1.531 . S
C4579 C4578 1.369 . S
C4579 C4580 1.410 . S
C4579 C4587 1.503 . S
C4580 C4579 1.410 . S
C4580 C4581 1.392 . S
C4580 C4583 1.511 . S
C4581 C4577 1.376 . S
C4581 C4580 1.392 . S
C4581 H4593 0.929 . S
C4582 C4578 1.531 . S
C4582 H4594 0.960 . S
C4582 H4595 0.962 . S
C4582 H4596 0.960 . S
C4583 C4580 1.511 . S
C4583 H4597 0.961 . S
C4583 H4598 0.961 . S
C4583 H4599 0.961 . S
C4584 C4585 1.370 . S
C4584 C4586 1.363 . S
C4584 H4600 0.931 . S
C4585 C4584 1.370 . S
C4585 C4589 1.408 . S
C4586 C4584 1.363 . S
C4586 C4587 1.370 . S
C4586 C4590 1.524 . S
C4587 C4579 1.503 . S
C4587 C4586 1.370 . S
C4587 C4588 1.403 . S
C4588 C4587 1.403 . S
C4588 C4589 1.404 . S
C4588 C4591 1.539 . S
C4589 C4585 1.408 . S
C4589 C4588 1.404 . S
C4589 H4601 0.930 . S
C4590 C4586 1.524 . S
C4590 H4602 0.956 . S
C4590 H4603 0.961 . S
C4590 H4604 0.961 . S
C4591 C4588 1.539 . S
C4591 H4605 0.958 . S
C4591 H4606 0.961 . S
C4591 H4607 0.960 . S
H4592 C4576 0.931 . S
H4593 C4581 0.929 . S
H4594 C4582 0.960 . S
H4595 C4582 0.962 . S
H4596 C4582 0.960 . S
H4597 C4583 0.961 . S
H4598 C4583 0.961 . S
H4599 C4583 0.961 . S
H4600 C4584 0.931 . S
H4601 C4589 0.930 . S
H4602 C4590 0.956 . S
H4603 C4590 0.961 . S
H4604 C4590 0.961 . S
H4605 C4591 0.958 . S
H4606 C4591 0.961 . S
H4607 C4591 0.960 . S
C4608 C4609 1.391 . S
C4608 C4610 1.394 . S
C4608 H4624 0.931 . S
C4609 C4608 1.391 . S
C4609 C4613 1.376 . S
C4610 C4608 1.394 . S
C4610 C4611 1.369 . S
C4610 C4614 1.531 . S
C4611 C4610 1.369 . S
C4611 C4612 1.410 . S
C4611 C4619 1.503 . S
C4612 C4611 1.410 . S
C4612 C4613 1.392 . S
C4612 C4615 1.511 . S
C4613 C4609 1.376 . S
C4613 C4612 1.392 . S
C4613 H4625 0.929 . S
C4614 C4610 1.531 . S
C4614 H4626 0.960 . S
C4614 H4627 0.962 . S
C4614 H4628 0.960 . S
C4615 C4612 1.511 . S
C4615 H4629 0.961 . S
C4615 H4630 0.961 . S
C4615 H4631 0.961 . S
C4616 C4617 1.370 . S
C4616 C4618 1.363 . S
C4616 H4632 0.931 . S
C4617 C4616 1.370 . S
C4617 C4621 1.408 . S
C4618 C4616 1.363 . S
C4618 C4619 1.370 . S
C4618 C4622 1.524 . S
C4619 C4611 1.503 . S
C4619 C4618 1.370 . S
C4619 C4620 1.403 . S
C4620 C4619 1.403 . S
C4620 C4621 1.404 . S
C4620 C4623 1.539 . S
C4621 C4617 1.408 . S
C4621 C4620 1.404 . S
C4621 H4633 0.930 . S
C4622 C4618 1.524 . S
C4622 H4634 0.956 . S
C4622 H4635 0.961 . S
C4622 H4636 0.961 . S
C4623 C4620 1.539 . S
C4623 H4637 0.958 . S
C4623 H4638 0.961 . S
C4623 H4639 0.960 . S
H4624 C4608 0.931 . S
H4625 C4613 0.929 . S
H4626 C4614 0.960 . S
H4627 C4614 0.962 . S
H4628 C4614 0.960 . S
H4629 C4615 0.961 . S
H4630 C4615 0.961 . S
H4631 C4615 0.961 . S
H4632 C4616 0.931 . S
H4633 C4621 0.930 . S
H4634 C4622 0.956 . S
H4635 C4622 0.961 . S
H4636 C4622 0.961 . S
H4637 C4623 0.958 . S
H4638 C4623 0.961 . S
H4639 C4623 0.960 . S
C4640 C4641 1.391 . S
C4640 C4642 1.394 . S
C4640 H4656 0.931 . S
C4641 C4640 1.391 . S
C4641 C4645 1.376 . S
C4642 C4640 1.394 . S
C4642 C4643 1.369 . S
C4642 C4646 1.531 . S
C4643 C4642 1.369 . S
C4643 C4644 1.410 . S
C4643 C4651 1.503 . S
C4644 C4643 1.410 . S
C4644 C4645 1.392 . S
C4644 C4647 1.511 . S
C4645 C4641 1.376 . S
C4645 C4644 1.392 . S
C4645 H4657 0.929 . S
C4646 C4642 1.531 . S
C4646 H4658 0.960 . S
C4646 H4659 0.962 . S
C4646 H4660 0.960 . S
C4647 C4644 1.511 . S
C4647 H4661 0.961 . S
C4647 H4662 0.961 . S
C4647 H4663 0.961 . S
C4648 C4649 1.370 . S
C4648 C4650 1.363 . S
C4648 H4664 0.931 . S
C4649 C4648 1.370 . S
C4649 C4653 1.408 . S
C4650 C4648 1.363 . S
C4650 C4651 1.370 . S
C4650 C4654 1.524 . S
C4651 C4643 1.503 . S
C4651 C4650 1.370 . S
C4651 C4652 1.403 . S
C4652 C4651 1.403 . S
C4652 C4653 1.404 . S
C4652 C4655 1.539 . S
C4653 C4649 1.408 . S
C4653 C4652 1.404 . S
C4653 H4665 0.930 . S
C4654 C4650 1.524 . S
C4654 H4666 0.956 . S
C4654 H4667 0.961 . S
C4654 H4668 0.961 . S
C4655 C4652 1.539 . S
C4655 H4669 0.958 . S
C4655 H4670 0.961 . S
C4655 H4671 0.960 . S
H4656 C4640 0.931 . S
H4657 C4645 0.929 . S
H4658 C4646 0.960 . S
H4659 C4646 0.962 . S
H4660 C4646 0.960 . S
H4661 C4647 0.961 . S
H4662 C4647 0.961 . S
H4663 C4647 0.961 . S
H4664 C4648 0.931 . S
H4665 C4653 0.930 . S
H4666 C4654 0.956 . S
H4667 C4654 0.961 . S
H4668 C4654 0.961 . S
H4669 C4655 0.958 . S
H4670 C4655 0.961 . S
H4671 C4655 0.960 . S
C4672 C4673 1.391 . S
C4672 C4674 1.394 . S
C4672 H4688 0.931 . S
C4673 C4672 1.391 . S
C4673 C4677 1.376 . S
C4674 C4672 1.394 . S
C4674 C4675 1.369 . S
C4674 C4678 1.531 . S
C4675 C4674 1.369 . S
C4675 C4676 1.410 . S
C4675 C4683 1.503 . S
C4676 C4675 1.410 . S
C4676 C4677 1.392 . S
C4676 C4679 1.511 . S
C4677 C4673 1.376 . S
C4677 C4676 1.392 . S
C4677 H4689 0.929 . S
C4678 C4674 1.531 . S
C4678 H4690 0.960 . S
C4678 H4691 0.962 . S
C4678 H4692 0.960 . S
C4679 C4676 1.511 . S
C4679 H4693 0.961 . S
C4679 H4694 0.961 . S
C4679 H4695 0.961 . S
C4680 C4681 1.370 . S
C4680 C4682 1.363 . S
C4680 H4696 0.931 . S
C4681 C4680 1.370 . S
C4681 C4685 1.408 . S
C4682 C4680 1.363 . S
C4682 C4683 1.370 . S
C4682 C4686 1.524 . S
C4683 C4675 1.503 . S
C4683 C4682 1.370 . S
C4683 C4684 1.403 . S
C4684 C4683 1.403 . S
C4684 C4685 1.404 . S
C4684 C4687 1.539 . S
C4685 C4681 1.408 . S
C4685 C4684 1.404 . S
C4685 H4697 0.930 . S
C4686 C4682 1.524 . S
C4686 H4698 0.956 . S
C4686 H4699 0.961 . S
C4686 H4700 0.961 . S
C4687 C4684 1.539 . S
C4687 H4701 0.958 . S
C4687 H4702 0.961 . S
C4687 H4703 0.960 . S
H4688 C4672 0.931 . S
H4689 C4677 0.929 . S
H4690 C4678 0.960 . S
H4691 C4678 0.962 . S
H4692 C4678 0.960 . S
H4693 C4679 0.961 . S
H4694 C4679 0.961 . S
H4695 C4679 0.961 . S
H4696 C4680 0.931 . S
H4697 C4685 0.930 . S
H4698 C4686 0.956 . S
H4699 C4686 0.961 . S
H4700 C4686 0.961 . S
H4701 C4687 0.958 . S
H4702 C4687 0.961 . S
H4703 C4687 0.960 . S
C4704 C4705 1.391 . S
C4704 C4706 1.394 . S
C4704 H4720 0.931 . S
C4705 C4704 1.391 . S
C4705 C4709 1.376 . S
C4706 C4704 1.394 . S
C4706 C4707 1.369 . S
C4706 C4710 1.531 . S
C4707 C4706 1.369 . S
C4707 C4708 1.410 . S
C4707 C4715 1.503 . S
C4708 C4707 1.410 . S
C4708 C4709 1.392 . S
C4708 C4711 1.511 . S
C4709 C4705 1.376 . S
C4709 C4708 1.392 . S
C4709 H4721 0.929 . S
C4710 C4706 1.531 . S
C4710 H4722 0.960 . S
C4710 H4723 0.962 . S
C4710 H4724 0.960 . S
C4711 C4708 1.511 . S
C4711 H4725 0.961 . S
C4711 H4726 0.961 . S
C4711 H4727 0.961 . S
C4712 C4713 1.370 . S
C4712 C4714 1.363 . S
C4712 H4728 0.931 . S
C4713 C4712 1.370 . S
C4713 C4717 1.408 . S
C4714 C4712 1.363 . S
C4714 C4715 1.370 . S
C4714 C4718 1.524 . S
C4715 C4707 1.503 . S
C4715 C4714 1.370 . S
C4715 C4716 1.403 . S
C4716 C4715 1.403 . S
C4716 C4717 1.404 . S
C4716 C4719 1.539 . S
C4717 C4713 1.408 . S
C4717 C4716 1.404 . S
C4717 H4729 0.930 . S
C4718 C4714 1.524 . S
C4718 H4730 0.956 . S
C4718 H4731 0.961 . S
C4718 H4732 0.961 . S
C4719 C4716 1.539 . S
C4719 H4733 0.958 . S
C4719 H4734 0.961 . S
C4719 H4735 0.960 . S
H4720 C4704 0.931 . S
H4721 C4709 0.929 . S
H4722 C4710 0.960 . S
H4723 C4710 0.962 . S
H4724 C4710 0.960 . S
H4725 C4711 0.961 . S
H4726 C4711 0.961 . S
H4727 C4711 0.961 . S
H4728 C4712 0.931 . S
H4729 C4717 0.930 . S
H4730 C4718 0.956 . S
H4731 C4718 0.961 . S
H4732 C4718 0.961 . S
H4733 C4719 0.958 . S
H4734 C4719 0.961 . S
H4735 C4719 0.960 . S
C4736 C4737 1.391 . S
C4736 C4738 1.394 . S
C4736 H4752 0.931 . S
C4737 C4736 1.391 . S
C4737 C4741 1.376 . S
C4738 C4736 1.394 . S
C4738 C4739 1.369 . S
C4738 C4742 1.531 . S
C4739 C4738 1.369 . S
C4739 C4740 1.410 . S
C4739 C4747 1.503 . S
C4740 C4739 1.410 . S
C4740 C4741 1.392 . S
C4740 C4743 1.511 . S
C4741 C4737 1.376 . S
C4741 C4740 1.392 . S
C4741 H4753 0.929 . S
C4742 C4738 1.531 . S
C4742 H4754 0.960 . S
C4742 H4755 0.962 . S
C4742 H4756 0.960 . S
C4743 C4740 1.511 . S
C4743 H4757 0.961 . S
C4743 H4758 0.961 . S
C4743 H4759 0.961 . S
C4744 C4745 1.370 . S
C4744 C4746 1.363 . S
C4744 H4760 0.931 . S
C4745 C4744 1.370 . S
C4745 C4749 1.408 . S
C4746 C4744 1.363 . S
C4746 C4747 1.370 . S
C4746 C4750 1.524 . S
C4747 C4739 1.503 . S
C4747 C4746 1.370 . S
C4747 C4748 1.403 . S
C4748 C4747 1.403 . S
C4748 C4749 1.404 . S
C4748 C4751 1.539 . S
C4749 C4745 1.408 . S
C4749 C4748 1.404 . S
C4749 H4761 0.930 . S
C4750 C4746 1.524 . S
C4750 H4762 0.956 . S
C4750 H4763 0.961 . S
C4750 H4764 0.961 . S
C4751 C4748 1.539 . S
C4751 H4765 0.958 . S
C4751 H4766 0.961 . S
C4751 H4767 0.960 . S
H4752 C4736 0.931 . S
H4753 C4741 0.929 . S
H4754 C4742 0.960 . S
H4755 C4742 0.962 . S
H4756 C4742 0.960 . S
H4757 C4743 0.961 . S
H4758 C4743 0.961 . S
H4759 C4743 0.961 . S
H4760 C4744 0.931 . S
H4761 C4749 0.930 . S
H4762 C4750 0.956 . S
H4763 C4750 0.961 . S
H4764 C4750 0.961 . S
H4765 C4751 0.958 . S
H4766 C4751 0.961 . S
H4767 C4751 0.960 . S
C4768 C4769 1.391 . S
C4768 C4770 1.394 . S
C4768 H4784 0.931 . S
C4769 C4768 1.391 . S
C4769 C4773 1.376 . S
C4770 C4768 1.394 . S
C4770 C4771 1.369 . S
C4770 C4774 1.531 . S
C4771 C4770 1.369 . S
C4771 C4772 1.410 . S
C4771 C4779 1.503 . S
C4772 C4771 1.410 . S
C4772 C4773 1.392 . S
C4772 C4775 1.511 . S
C4773 C4769 1.376 . S
C4773 C4772 1.392 . S
C4773 H4785 0.929 . S
C4774 C4770 1.531 . S
C4774 H4786 0.960 . S
C4774 H4787 0.962 . S
C4774 H4788 0.960 . S
C4775 C4772 1.511 . S
C4775 H4789 0.961 . S
C4775 H4790 0.961 . S
C4775 H4791 0.961 . S
C4776 C4777 1.370 . S
C4776 C4778 1.363 . S
C4776 H4792 0.931 . S
C4777 C4776 1.370 . S
C4777 C4781 1.408 . S
C4778 C4776 1.363 . S
C4778 C4779 1.370 . S
C4778 C4782 1.524 . S
C4779 C4771 1.503 . S
C4779 C4778 1.370 . S
C4779 C4780 1.403 . S
C4780 C4779 1.403 . S
C4780 C4781 1.404 . S
C4780 C4783 1.539 . S
C4781 C4777 1.408 . S
C4781 C4780 1.404 . S
C4781 H4793 0.930 . S
C4782 C4778 1.524 . S
C4782 H4794 0.956 . S
C4782 H4795 0.961 . S
C4782 H4796 0.961 . S
C4783 C4780 1.539 . S
C4783 H4797 0.958 . S
C4783 H4798 0.961 . S
C4783 H4799 0.960 . S
H4784 C4768 0.931 . S
H4785 C4773 0.929 . S
H4786 C4774 0.960 . S
H4787 C4774 0.962 . S
H4788 C4774 0.960 . S
H4789 C4775 0.961 . S
H4790 C4775 0.961 . S
H4791 C4775 0.961 . S
H4792 C4776 0.931 . S
H4793 C4781 0.930 . S
H4794 C4782 0.956 . S
H4795 C4782 0.961 . S
H4796 C4782 0.961 . S
H4797 C4783 0.958 . S
H4798 C4783 0.961 . S
H4799 C4783 0.960 . S
C4800 C4801 1.391 . S
C4800 C4802 1.394 . S
C4800 H4816 0.931 . S
C4801 C4800 1.391 . S
C4801 C4805 1.376 . S
C4802 C4800 1.394 . S
C4802 C4803 1.369 . S
C4802 C4806 1.531 . S
C4803 C4802 1.369 . S
C4803 C4804 1.410 . S
C4803 C4811 1.503 . S
C4804 C4803 1.410 . S
C4804 C4805 1.392 . S
C4804 C4807 1.511 . S
C4805 C4801 1.376 . S
C4805 C4804 1.392 . S
C4805 H4817 0.929 . S
C4806 C4802 1.531 . S
C4806 H4818 0.960 . S
C4806 H4819 0.962 . S
C4806 H4820 0.960 . S
C4807 C4804 1.511 . S
C4807 H4821 0.961 . S
C4807 H4822 0.961 . S
C4807 H4823 0.961 . S
C4808 C4809 1.370 . S
C4808 C4810 1.363 . S
C4808 H4824 0.931 . S
C4809 C4808 1.370 . S
C4809 C4813 1.408 . S
C4810 C4808 1.363 . S
C4810 C4811 1.370 . S
C4810 C4814 1.524 . S
C4811 C4803 1.503 . S
C4811 C4810 1.370 . S
C4811 C4812 1.403 . S
C4812 C4811 1.403 . S
C4812 C4813 1.404 . S
C4812 C4815 1.539 . S
C4813 C4809 1.408 . S
C4813 C4812 1.404 . S
C4813 H4825 0.930 . S
C4814 C4810 1.524 . S
C4814 H4826 0.956 . S
C4814 H4827 0.961 . S
C4814 H4828 0.961 . S
C4815 C4812 1.539 . S
C4815 H4829 0.958 . S
C4815 H4830 0.961 . S
C4815 H4831 0.960 . S
H4816 C4800 0.931 . S
H4817 C4805 0.929 . S
H4818 C4806 0.960 . S
H4819 C4806 0.962 . S
H4820 C4806 0.960 . S
H4821 C4807 0.961 . S
H4822 C4807 0.961 . S
H4823 C4807 0.961 . S
H4824 C4808 0.931 . S
H4825 C4813 0.930 . S
H4826 C4814 0.956 . S
H4827 C4814 0.961 . S
H4828 C4814 0.961 . S
H4829 C4815 0.958 . S
H4830 C4815 0.961 . S
H4831 C4815 0.960 . S
C4832 C4833 1.391 . S
C4832 C4834 1.394 . S
C4832 H4848 0.931 . S
C4833 C4832 1.391 . S
C4833 C4837 1.376 . S
C4834 C4832 1.394 . S
C4834 C4835 1.369 . S
C4834 C4838 1.531 . S
C4835 C4834 1.369 . S
C4835 C4836 1.410 . S
C4835 C4843 1.503 . S
C4836 C4835 1.410 . S
C4836 C4837 1.392 . S
C4836 C4839 1.511 . S
C4837 C4833 1.376 . S
C4837 C4836 1.392 . S
C4837 H4849 0.929 . S
C4838 C4834 1.531 . S
C4838 H4850 0.960 . S
C4838 H4851 0.962 . S
C4838 H4852 0.960 . S
C4839 C4836 1.511 . S
C4839 H4853 0.961 . S
C4839 H4854 0.961 . S
C4839 H4855 0.961 . S
C4840 C4841 1.370 . S
C4840 C4842 1.363 . S
C4840 H4856 0.931 . S
C4841 C4840 1.370 . S
C4841 C4845 1.408 . S
C4842 C4840 1.363 . S
C4842 C4843 1.370 . S
C4842 C4846 1.524 . S
C4843 C4835 1.503 . S
C4843 C4842 1.370 . S
C4843 C4844 1.403 . S
C4844 C4843 1.403 . S
C4844 C4845 1.404 . S
C4844 C4847 1.539 . S
C4845 C4841 1.408 . S
C4845 C4844 1.404 . S
C4845 H4857 0.930 . S
C4846 C4842 1.524 . S
C4846 H4858 0.956 . S
C4846 H4859 0.961 . S
C4846 H4860 0.961 . S
C4847 C4844 1.539 . S
C4847 H4861 0.958 . S
C4847 H4862 0.961 . S
C4847 H4863 0.960 . S
H4848 C4832 0.931 . S
H4849 C4837 0.929 . S
H4850 C4838 0.960 . S
H4851 C4838 0.962 . S
H4852 C4838 0.960 . S
H4853 C4839 0.961 . S
H4854 C4839 0.961 . S
H4855 C4839 0.961 . S
H4856 C4840 0.931 . S
H4857 C4845 0.930 . S
H4858 C4846 0.956 . S
H4859 C4846 0.961 . S
H4860 C4846 0.961 . S
H4861 C4847 0.958 . S
H4862 C4847 0.961 . S
H4863 C4847 0.960 . S
C4864 C4865 1.391 . S
C4864 C4866 1.394 . S
C4864 H4880 0.931 . S
C4865 C4864 1.391 . S
C4865 C4869 1.376 . S
C4866 C4864 1.394 . S
C4866 C4867 1.369 . S
C4866 C4870 1.531 . S
C4867 C4866 1.369 . S
C4867 C4868 1.410 . S
C4867 C4875 1.503 . S
C4868 C4867 1.410 . S
C4868 C4869 1.392 . S
C4868 C4871 1.511 . S
C4869 C4865 1.376 . S
C4869 C4868 1.392 . S
C4869 H4881 0.929 . S
C4870 C4866 1.531 . S
C4870 H4882 0.960 . S
C4870 H4883 0.962 . S
C4870 H4884 0.960 . S
C4871 C4868 1.511 . S
C4871 H4885 0.961 . S
C4871 H4886 0.961 . S
C4871 H4887 0.961 . S
C4872 C4873 1.370 . S
C4872 C4874 1.363 . S
C4872 H4888 0.931 . S
C4873 C4872 1.370 . S
C4873 C4877 1.408 . S
C4874 C4872 1.363 . S
C4874 C4875 1.370 . S
C4874 C4878 1.524 . S
C4875 C4867 1.503 . S
C4875 C4874 1.370 . S
C4875 C4876 1.403 . S
C4876 C4875 1.403 . S
C4876 C4877 1.404 . S
C4876 C4879 1.539 . S
C4877 C4873 1.408 . S
C4877 C4876 1.404 . S
C4877 H4889 0.930 . S
C4878 C4874 1.524 . S
C4878 H4890 0.956 . S
C4878 H4891 0.961 . S
C4878 H4892 0.961 . S
C4879 C4876 1.539 . S
C4879 H4893 0.958 . S
C4879 H4894 0.961 . S
C4879 H4895 0.960 . S
H4880 C4864 0.931 . S
H4881 C4869 0.929 . S
H4882 C4870 0.960 . S
H4883 C4870 0.962 . S
H4884 C4870 0.960 . S
H4885 C4871 0.961 . S
H4886 C4871 0.961 . S
H4887 C4871 0.961 . S
H4888 C4872 0.931 . S
H4889 C4877 0.930 . S
H4890 C4878 0.956 . S
H4891 C4878 0.961 . S
H4892 C4878 0.961 . S
H4893 C4879 0.958 . S
H4894 C4879 0.961 . S
H4895 C4879 0.960 . S
C4896 C4897 1.391 . S
C4896 C4898 1.394 . S
C4896 H4912 0.931 . S
C4897 C4896 1.391 . S
C4897 C4901 1.348 1_565 S
C4898 C4896 1.394 . S
C4898 C4899 1.369 . S
C4898 C4902 1.531 . S
C4899 C4898 1.369 . S
C4899 C4900 1.410 1_565 S
C4899 C4907 1.503 . S
C4900 C4899 1.410 1_545 S
C4900 C4901 1.394 . S
C4900 C4903 1.511 . S
C4901 C4897 1.348 1_545 S
C4901 C4900 1.394 . S
C4901 H4913 0.955 . S
C4902 C4898 1.531 . S
C4902 H4914 0.960 . S
C4902 H4915 0.962 . S
C4902 H4916 0.960 . S
C4903 C4900 1.511 . S
C4903 H4917 0.961 . S
C4903 H4918 0.961 . S
C4903 H4919 0.961 1_554 S
C4904 C4905 1.370 . S
C4904 C4906 1.363 . S
C4904 H4920 0.931 . S
C4905 C4904 1.370 . S
C4905 C4909 1.407 1_544 S
C4906 C4904 1.363 . S
C4906 C4907 1.370 1_545 S
C4906 C4910 1.524 . S
C4907 C4899 1.503 . S
C4907 C4906 1.370 1_565 S
C4907 C4908 1.403 1_554 S
C4908 C4907 1.403 1_556 S
C4908 C4909 1.404 . S
C4908 C4911 1.539 . S
C4909 C4905 1.407 1_566 S
C4909 C4908 1.404 . S
C4909 H4921 0.931 . S
C4910 C4906 1.524 . S
C4910 H4922 0.956 . S
C4910 H4923 0.961 . S
C4910 H4924 0.961 . S
C4911 C4908 1.539 . S
C4911 H4925 0.958 . S
C4911 H4926 0.961 . S
C4911 H4927 0.960 . S
H4912 C4896 0.931 . S
H4913 C4901 0.955 . S
H4914 C4902 0.960 . S
H4915 C4902 0.962 . S
H4916 C4902 0.960 . S
H4917 C4903 0.961 . S
H4918 C4903 0.961 . S
H4919 C4903 0.961 1_556 S
H4920 C4904 0.931 . S
H4921 C4909 0.931 . S
H4922 C4910 0.956 . S
H4923 C4910 0.961 . S
H4924 C4910 0.961 . S
H4925 C4911 0.958 . S
H4926 C4911 0.961 . S
H4927 C4911 0.960 . S
C4928 C4929 1.391 . S
C4928 C4930 1.394 . S
C4928 H4944 0.931 . S
C4929 C4928 1.391 . S
C4929 C4933 1.376 . S
C4930 C4928 1.394 . S
C4930 C4931 1.369 . S
C4930 C4934 1.531 . S
C4931 C4930 1.369 . S
C4931 C4932 1.410 . S
C4931 C4939 1.503 . S
C4932 C4931 1.410 . S
C4932 C4933 1.392 . S
C4932 C4935 1.511 . S
C4933 C4929 1.376 . S
C4933 C4932 1.392 . S
C4933 H4945 0.929 . S
C4934 C4930 1.531 . S
C4934 H4946 0.960 . S
C4934 H4947 0.962 . S
C4934 H4948 0.960 . S
C4935 C4932 1.511 . S
C4935 H4949 0.961 . S
C4935 H4950 0.961 . S
C4935 H4951 0.961 . S
C4936 C4937 1.370 . S
C4936 C4938 1.363 . S
C4936 H4952 0.931 . S
C4937 C4936 1.370 . S
C4937 C4941 1.408 . S
C4938 C4936 1.363 . S
C4938 C4939 1.370 . S
C4938 C4942 1.524 . S
C4939 C4931 1.503 . S
C4939 C4938 1.370 . S
C4939 C4940 1.403 . S
C4940 C4939 1.403 . S
C4940 C4941 1.404 . S
C4940 C4943 1.539 . S
C4941 C4937 1.408 . S
C4941 C4940 1.404 . S
C4941 H4953 0.930 . S
C4942 C4938 1.524 . S
C4942 H4954 0.956 . S
C4942 H4955 0.961 . S
C4942 H4956 0.961 . S
C4943 C4940 1.539 . S
C4943 H4957 0.958 . S
C4943 H4958 0.961 . S
C4943 H4959 0.960 . S
H4944 C4928 0.931 . S
H4945 C4933 0.929 . S
H4946 C4934 0.960 . S
H4947 C4934 0.962 . S
H4948 C4934 0.960 . S
H4949 C4935 0.961 . S
H4950 C4935 0.961 . S
H4951 C4935 0.961 . S
H4952 C4936 0.931 . S
H4953 C4941 0.930 . S
H4954 C4942 0.956 . S
H4955 C4942 0.961 . S
H4956 C4942 0.961 . S
H4957 C4943 0.958 . S
H4958 C4943 0.961 . S
H4959 C4943 0.960 . S
C4960 C4961 1.391 1_556 S
C4960 C4962 1.394 1_556 S
C4960 H4976 0.931 . S
C4961 C4960 1.391 1_554 S
C4961 C4965 1.376 . S
C4962 C4960 1.394 1_554 S
C4962 C4963 1.369 . S
C4962 C4966 1.531 1_554 S
C4963 C4962 1.369 . S
C4963 C4964 1.410 . S
C4963 C4971 1.503 . S
C4964 C4963 1.410 . S
C4964 C4965 1.392 . S
C4964 C4967 1.511 . S
C4965 C4961 1.376 . S
C4965 C4964 1.392 . S
C4965 H4977 0.929 . S
C4966 C4962 1.531 1_556 S
C4966 H4978 0.960 . S
C4966 H4979 0.962 . S
C4966 H4980 0.960 . S
C4967 C4964 1.511 . S
C4967 H4981 0.961 . S
C4967 H4982 0.961 . S
C4967 H4983 0.961 . S
C4968 C4969 1.370 . S
C4968 C4970 1.363 . S
C4968 H4984 0.931 . S
C4969 C4968 1.370 . S
C4969 C4973 1.408 . S
C4970 C4968 1.363 . S
C4970 C4971 1.370 . S
C4970 C4974 1.524 . S
C4971 C4963 1.503 . S
C4971 C4970 1.370 . S
C4971 C4972 1.403 . S
C4972 C4971 1.403 . S
C4972 C4973 1.404 . S
C4972 C4975 1.539 . S
C4973 C4969 1.408 . S
C4973 C4972 1.404 . S
C4973 H4985 0.930 . S
C4974 C4970 1.524 . S
C4974 H4986 0.956 1_554 S
C4974 H4987 0.961 . S
C4974 H4988 0.961 . S
C4975 C4972 1.539 . S
C4975 H4989 0.958 . S
C4975 H4990 0.961 . S
C4975 H4991 0.960 . S
H4976 C4960 0.931 . S
H4977 C4965 0.929 . S
H4978 C4966 0.960 . S
H4979 C4966 0.962 . S
H4980 C4966 0.960 . S
H4981 C4967 0.961 . S
H4982 C4967 0.961 . S
H4983 C4967 0.961 . S
H4984 C4968 0.931 . S
H4985 C4973 0.930 . S
H4986 C4974 0.956 1_556 S
H4987 C4974 0.961 . S
H4988 C4974 0.961 . S
H4989 C4975 0.958 . S
H4990 C4975 0.961 . S
H4991 C4975 0.960 . S
C4992 C4993 1.391 . S
C4992 C4994 1.394 . S
C4992 H5008 0.931 . S
C4993 C4992 1.391 . S
C4993 C4997 1.376 . S
C4994 C4992 1.394 . S
C4994 C4995 1.369 . S
C4994 C4998 1.531 . S
C4995 C4994 1.369 . S
C4995 C4996 1.410 . S
C4995 C5003 1.503 . S
C4996 C4995 1.410 . S
C4996 C4997 1.392 . S
C4996 C4999 1.511 . S
C4997 C4993 1.376 . S
C4997 C4996 1.392 . S
C4997 H5009 0.929 . S
C4998 C4994 1.531 . S
C4998 H5010 0.960 . S
C4998 H5011 0.962 . S
C4998 H5012 0.960 . S
C4999 C4996 1.511 . S
C4999 H5013 0.961 . S
C4999 H5014 0.961 . S
C4999 H5015 0.961 . S
C5000 C5001 1.370 . S
C5000 C5002 1.363 . S
C5000 H5016 0.931 . S
C5001 C5000 1.370 . S
C5001 C5005 1.408 . S
C5002 C5000 1.363 . S
C5002 C5003 1.370 . S
C5002 C5006 1.524 . S
C5003 C4995 1.503 . S
C5003 C5002 1.370 . S
C5003 C5004 1.403 . S
C5004 C5003 1.403 . S
C5004 C5005 1.404 . S
C5004 C5007 1.539 . S
C5005 C5001 1.408 . S
C5005 C5004 1.404 . S
C5005 H5017 0.930 . S
C5006 C5002 1.524 . S
C5006 H5018 0.956 . S
C5006 H5019 0.961 . S
C5006 H5020 0.961 . S
C5007 C5004 1.539 . S
C5007 H5021 0.958 . S
C5007 H5022 0.961 . S
C5007 H5023 0.960 . S
H5008 C4992 0.931 . S
H5009 C4997 0.929 . S
H5010 C4998 0.960 . S
H5011 C4998 0.962 . S
H5012 C4998 0.960 . S
H5013 C4999 0.961 . S
H5014 C4999 0.961 . S
H5015 C4999 0.961 . S
H5016 C5000 0.931 . S
H5017 C5005 0.930 . S
H5018 C5006 0.956 . S
H5019 C5006 0.961 . S
H5020 C5006 0.961 . S
H5021 C5007 0.958 . S
H5022 C5007 0.961 . S
H5023 C5007 0.960 . S
C5024 C5025 1.391 . S
C5024 C5026 1.394 . S
C5024 H5040 0.931 . S
C5025 C5024 1.391 . S
C5025 C5029 1.376 . S
C5026 C5024 1.394 . S
C5026 C5027 1.369 . S
C5026 C5030 1.531 . S
C5027 C5026 1.369 . S
C5027 C5028 1.410 . S
C5027 C5035 1.503 . S
C5028 C5027 1.410 . S
C5028 C5029 1.392 . S
C5028 C5031 1.511 . S
C5029 C5025 1.376 . S
C5029 C5028 1.392 . S
C5029 H5041 0.929 . S
C5030 C5026 1.531 . S
C5030 H5042 0.960 . S
C5030 H5043 0.962 . S
C5030 H5044 0.960 . S
C5031 C5028 1.511 . S
C5031 H5045 0.961 . S
C5031 H5046 0.961 . S
C5031 H5047 0.961 . S
C5032 C5033 1.370 . S
C5032 C5034 1.363 . S
C5032 H5048 0.931 . S
C5033 C5032 1.370 . S
C5033 C5037 1.408 . S
C5034 C5032 1.363 . S
C5034 C5035 1.370 . S
C5034 C5038 1.524 . S
C5035 C5027 1.503 . S
C5035 C5034 1.370 . S
C5035 C5036 1.403 . S
C5036 C5035 1.403 . S
C5036 C5037 1.404 . S
C5036 C5039 1.539 . S
C5037 C5033 1.408 . S
C5037 C5036 1.404 . S
C5037 H5049 0.930 . S
C5038 C5034 1.524 . S
C5038 H5050 0.956 . S
C5038 H5051 0.961 . S
C5038 H5052 0.961 . S
C5039 C5036 1.539 . S
C5039 H5053 0.958 . S
C5039 H5054 0.961 . S
C5039 H5055 0.960 . S
H5040 C5024 0.931 . S
H5041 C5029 0.929 . S
H5042 C5030 0.960 . S
H5043 C5030 0.962 . S
H5044 C5030 0.960 . S
H5045 C5031 0.961 . S
H5046 C5031 0.961 . S
H5047 C5031 0.961 . S
H5048 C5032 0.931 . S
H5049 C5037 0.930 . S
H5050 C5038 0.956 . S
H5051 C5038 0.961 . S
H5052 C5038 0.961 . S
H5053 C5039 0.958 . S
H5054 C5039 0.961 . S
H5055 C5039 0.960 . S
C5056 C5057 1.391 . S
C5056 C5058 1.394 . S
C5056 H5072 0.931 . S
C5057 C5056 1.391 . S
C5057 C5061 1.376 . S
C5058 C5056 1.394 . S
C5058 C5059 1.369 . S
C5058 C5062 1.531 . S
C5059 C5058 1.369 . S
C5059 C5060 1.410 . S
C5059 C5067 1.503 . S
C5060 C5059 1.410 . S
C5060 C5061 1.392 . S
C5060 C5063 1.511 . S
C5061 C5057 1.376 . S
C5061 C5060 1.392 . S
C5061 H5073 0.929 . S
C5062 C5058 1.531 . S
C5062 H5074 0.960 . S
C5062 H5075 0.962 . S
C5062 H5076 0.960 . S
C5063 C5060 1.511 . S
C5063 H5077 0.961 . S
C5063 H5078 0.961 . S
C5063 H5079 0.961 . S
C5064 C5065 1.370 . S
C5064 C5066 1.363 . S
C5064 H5080 0.931 . S
C5065 C5064 1.370 . S
C5065 C5069 1.408 . S
C5066 C5064 1.363 . S
C5066 C5067 1.370 . S
C5066 C5070 1.524 . S
C5067 C5059 1.503 . S
C5067 C5066 1.370 . S
C5067 C5068 1.403 . S
C5068 C5067 1.403 . S
C5068 C5069 1.404 . S
C5068 C5071 1.539 . S
C5069 C5065 1.408 . S
C5069 C5068 1.404 . S
C5069 H5081 0.930 . S
C5070 C5066 1.524 . S
C5070 H5082 0.956 . S
C5070 H5083 0.961 . S
C5070 H5084 0.961 . S
C5071 C5068 1.539 . S
C5071 H5085 0.958 . S
C5071 H5086 0.961 . S
C5071 H5087 0.960 . S
H5072 C5056 0.931 . S
H5073 C5061 0.929 . S
H5074 C5062 0.960 . S
H5075 C5062 0.962 . S
H5076 C5062 0.960 . S
H5077 C5063 0.961 . S
H5078 C5063 0.961 . S
H5079 C5063 0.961 . S
H5080 C5064 0.931 . S
H5081 C5069 0.930 . S
H5082 C5070 0.956 . S
H5083 C5070 0.961 . S
H5084 C5070 0.961 . S
H5085 C5071 0.958 . S
H5086 C5071 0.961 . S
H5087 C5071 0.960 . S
C5088 C5089 1.391 . S
C5088 C5090 1.394 . S
C5088 H5104 0.931 . S
C5089 C5088 1.391 . S
C5089 C5093 1.376 . S
C5090 C5088 1.394 . S
C5090 C5091 1.369 . S
C5090 C5094 1.531 . S
C5091 C5090 1.369 . S
C5091 C5092 1.410 . S
C5091 C5099 1.503 . S
C5092 C5091 1.410 . S
C5092 C5093 1.392 . S
C5092 C5095 1.511 . S
C5093 C5089 1.376 . S
C5093 C5092 1.392 . S
C5093 H5105 0.929 . S
C5094 C5090 1.531 . S
C5094 H5106 0.960 . S
C5094 H5107 0.962 . S
C5094 H5108 0.960 . S
C5095 C5092 1.511 . S
C5095 H5109 0.961 . S
C5095 H5110 0.961 . S
C5095 H5111 0.961 . S
C5096 C5097 1.370 . S
C5096 C5098 1.363 . S
C5096 H5112 0.931 . S
C5097 C5096 1.370 . S
C5097 C5101 1.408 . S
C5098 C5096 1.363 . S
C5098 C5099 1.370 . S
C5098 C5102 1.524 . S
C5099 C5091 1.503 . S
C5099 C5098 1.370 . S
C5099 C5100 1.403 . S
C5100 C5099 1.403 . S
C5100 C5101 1.404 . S
C5100 C5103 1.539 . S
C5101 C5097 1.408 . S
C5101 C5100 1.404 . S
C5101 H5113 0.930 . S
C5102 C5098 1.524 . S
C5102 H5114 0.956 . S
C5102 H5115 0.961 . S
C5102 H5116 0.961 . S
C5103 C5100 1.539 . S
C5103 H5117 0.958 . S
C5103 H5118 0.961 . S
C5103 H5119 0.960 . S
H5104 C5088 0.931 . S
H5105 C5093 0.929 . S
H5106 C5094 0.960 . S
H5107 C5094 0.962 . S
H5108 C5094 0.960 . S
H5109 C5095 0.961 . S
H5110 C5095 0.961 . S
H5111 C5095 0.961 . S
H5112 C5096 0.931 . S
H5113 C5101 0.930 . S
H5114 C5102 0.956 . S
H5115 C5102 0.961 . S
H5116 C5102 0.961 . S
H5117 C5103 0.958 . S
H5118 C5103 0.961 . S
H5119 C5103 0.960 . S
C5120 C5121 1.391 . S
C5120 C5122 1.394 . S
C5120 H5136 0.931 . S
C5121 C5120 1.391 . S
C5121 C5125 1.376 . S
C5122 C5120 1.394 . S
C5122 C5123 1.369 . S
C5122 C5126 1.531 . S
C5123 C5122 1.369 . S
C5123 C5124 1.410 . S
C5123 C5131 1.503 . S
C5124 C5123 1.410 . S
C5124 C5125 1.392 . S
C5124 C5127 1.511 . S
C5125 C5121 1.376 . S
C5125 C5124 1.392 . S
C5125 H5137 0.929 . S
C5126 C5122 1.531 . S
C5126 H5138 0.960 1_554 S
C5126 H5139 0.962 . S
C5126 H5140 0.960 1_554 S
C5127 C5124 1.511 . S
C5127 H5141 0.961 . S
C5127 H5142 0.961 . S
C5127 H5143 0.961 . S
C5128 C5129 1.370 . S
C5128 C5130 1.363 . S
C5128 H5144 0.931 . S
C5129 C5128 1.370 . S
C5129 C5133 1.408 . S
C5130 C5128 1.363 . S
C5130 C5131 1.370 . S
C5130 C5134 1.524 . S
C5131 C5123 1.503 . S
C5131 C5130 1.370 . S
C5131 C5132 1.403 . S
C5132 C5131 1.403 . S
C5132 C5133 1.404 . S
C5132 C5135 1.539 1_554 S
C5133 C5129 1.408 . S
C5133 C5132 1.404 . S
C5133 H5145 0.930 1_554 S
C5134 C5130 1.524 . S
C5134 H5146 0.956 . S
C5134 H5147 0.961 . S
C5134 H5148 0.961 . S
C5135 C5132 1.539 1_556 S
C5135 H5149 0.958 . S
C5135 H5150 0.961 . S
C5135 H5151 0.960 1_556 S
H5136 C5120 0.931 . S
H5137 C5125 0.929 . S
H5138 C5126 0.960 1_556 S
H5139 C5126 0.962 . S
H5140 C5126 0.960 1_556 S
H5141 C5127 0.961 . S
H5142 C5127 0.961 . S
H5143 C5127 0.961 . S
H5144 C5128 0.931 . S
H5145 C5133 0.930 1_556 S
H5146 C5134 0.956 . S
H5147 C5134 0.961 . S
H5148 C5134 0.961 . S
H5149 C5135 0.958 . S
H5150 C5135 0.961 . S
H5151 C5135 0.960 1_554 S
C5152 C5153 1.391 . S
C5152 C5154 1.394 . S
C5152 H5168 0.931 . S
C5153 C5152 1.391 . S
C5153 C5157 1.376 . S
C5154 C5152 1.394 . S
C5154 C5155 1.369 . S
C5154 C5158 1.531 . S
C5155 C5154 1.369 . S
C5155 C5156 1.410 . S
C5155 C5163 1.503 . S
C5156 C5155 1.410 . S
C5156 C5157 1.392 . S
C5156 C5159 1.511 . S
C5157 C5153 1.376 . S
C5157 C5156 1.392 . S
C5157 H5169 0.929 . S
C5158 C5154 1.531 . S
C5158 H5170 0.960 . S
C5158 H5171 0.962 . S
C5158 H5172 0.960 . S
C5159 C5156 1.511 . S
C5159 H5173 0.961 . S
C5159 H5174 0.961 . S
C5159 H5175 0.961 . S
C5160 C5161 1.370 . S
C5160 C5162 1.363 . S
C5160 H5176 0.931 . S
C5161 C5160 1.370 . S
C5161 C5165 1.408 . S
C5162 C5160 1.363 . S
C5162 C5163 1.370 . S
C5162 C5166 1.524 . S
C5163 C5155 1.503 . S
C5163 C5162 1.370 . S
C5163 C5164 1.403 . S
C5164 C5163 1.403 . S
C5164 C5165 1.404 . S
C5164 C5167 1.539 . S
C5165 C5161 1.408 . S
C5165 C5164 1.404 . S
C5165 H5177 0.930 . S
C5166 C5162 1.524 . S
C5166 H5178 0.956 . S
C5166 H5179 0.961 . S
C5166 H5180 0.961 . S
C5167 C5164 1.539 . S
C5167 H5181 0.958 . S
C5167 H5182 0.961 . S
C5167 H5183 0.960 . S
H5168 C5152 0.931 . S
H5169 C5157 0.929 . S
H5170 C5158 0.960 . S
H5171 C5158 0.962 . S
H5172 C5158 0.960 . S
H5173 C5159 0.961 . S
H5174 C5159 0.961 . S
H5175 C5159 0.961 . S
H5176 C5160 0.931 . S
H5177 C5165 0.930 . S
H5178 C5166 0.956 . S
H5179 C5166 0.961 . S
H5180 C5166 0.961 . S
H5181 C5167 0.958 . S
H5182 C5167 0.961 . S
H5183 C5167 0.960 . S
C5184 C5185 1.391 . S
C5184 C5186 1.394 . S
C5184 H5200 0.931 . S
C5185 C5184 1.391 . S
C5185 C5189 1.376 . S
C5186 C5184 1.394 . S
C5186 C5187 1.369 . S
C5186 C5190 1.531 . S
C5187 C5186 1.369 . S
C5187 C5188 1.410 . S
C5187 C5195 1.503 . S
C5188 C5187 1.410 . S
C5188 C5189 1.392 . S
C5188 C5191 1.511 . S
C5189 C5185 1.376 . S
C5189 C5188 1.392 . S
C5189 H5201 0.929 . S
C5190 C5186 1.531 . S
C5190 H5202 0.960 . S
C5190 H5203 0.962 . S
C5190 H5204 0.960 . S
C5191 C5188 1.511 . S
C5191 H5205 0.961 . S
C5191 H5206 0.961 . S
C5191 H5207 0.961 . S
C5192 C5193 1.370 . S
C5192 C5194 1.363 . S
C5192 H5208 0.931 . S
C5193 C5192 1.370 . S
C5193 C5197 1.408 . S
C5194 C5192 1.363 . S
C5194 C5195 1.370 . S
C5194 C5198 1.524 . S
C5195 C5187 1.503 . S
C5195 C5194 1.370 . S
C5195 C5196 1.403 . S
C5196 C5195 1.403 . S
C5196 C5197 1.404 . S
C5196 C5199 1.539 . S
C5197 C5193 1.408 . S
C5197 C5196 1.404 . S
C5197 H5209 0.930 . S
C5198 C5194 1.524 . S
C5198 H5210 0.956 . S
C5198 H5211 0.961 . S
C5198 H5212 0.961 . S
C5199 C5196 1.539 . S
C5199 H5213 0.958 . S
C5199 H5214 0.961 . S
C5199 H5215 0.960 . S
H5200 C5184 0.931 . S
H5201 C5189 0.929 . S
H5202 C5190 0.960 . S
H5203 C5190 0.962 . S
H5204 C5190 0.960 . S
H5205 C5191 0.961 . S
H5206 C5191 0.961 . S
H5207 C5191 0.961 . S
H5208 C5192 0.931 . S
H5209 C5197 0.930 . S
H5210 C5198 0.956 . S
H5211 C5198 0.961 . S
H5212 C5198 0.961 . S
H5213 C5199 0.958 . S
H5214 C5199 0.961 . S
H5215 C5199 0.960 . S
C5216 C5217 1.391 . S
C5216 C5218 1.394 . S
C5216 H5232 0.931 . S
C5217 C5216 1.391 . S
C5217 C5221 1.376 . S
C5218 C5216 1.394 . S
C5218 C5219 1.369 . S
C5218 C5222 1.531 . S
C5219 C5218 1.369 . S
C5219 C5220 1.410 . S
C5219 C5227 1.503 . S
C5220 C5219 1.410 . S
C5220 C5221 1.392 . S
C5220 C5223 1.511 . S
C5221 C5217 1.376 . S
C5221 C5220 1.392 . S
C5221 H5233 0.929 . S
C5222 C5218 1.531 . S
C5222 H5234 0.960 . S
C5222 H5235 0.962 . S
C5222 H5236 0.960 . S
C5223 C5220 1.511 . S
C5223 H5237 0.961 . S
C5223 H5238 0.961 . S
C5223 H5239 0.961 . S
C5224 C5225 1.370 . S
C5224 C5226 1.363 . S
C5224 H5240 0.931 . S
C5225 C5224 1.370 . S
C5225 C5229 1.408 . S
C5226 C5224 1.363 . S
C5226 C5227 1.370 . S
C5226 C5230 1.524 . S
C5227 C5219 1.503 . S
C5227 C5226 1.370 . S
C5227 C5228 1.403 . S
C5228 C5227 1.403 . S
C5228 C5229 1.404 . S
C5228 C5231 1.539 . S
C5229 C5225 1.408 . S
C5229 C5228 1.404 . S
C5229 H5241 0.930 . S
C5230 C5226 1.524 . S
C5230 H5242 0.956 . S
C5230 H5243 0.961 . S
C5230 H5244 0.961 . S
C5231 C5228 1.539 . S
C5231 H5245 0.958 . S
C5231 H5246 0.961 . S
C5231 H5247 0.960 . S
H5232 C5216 0.931 . S
H5233 C5221 0.929 . S
H5234 C5222 0.960 . S
H5235 C5222 0.962 . S
H5236 C5222 0.960 . S
H5237 C5223 0.961 . S
H5238 C5223 0.961 . S
H5239 C5223 0.961 . S
H5240 C5224 0.931 . S
H5241 C5229 0.930 . S
H5242 C5230 0.956 . S
H5243 C5230 0.961 . S
H5244 C5230 0.961 . S
H5245 C5231 0.958 . S
H5246 C5231 0.961 . S
H5247 C5231 0.960 . S
C5248 C5249 1.391 . S
C5248 C5250 1.394 . S
C5248 H5264 0.931 . S
C5249 C5248 1.391 . S
C5249 C5253 1.376 . S
C5250 C5248 1.394 . S
C5250 C5251 1.369 . S
C5250 C5254 1.531 . S
C5251 C5250 1.369 . S
C5251 C5252 1.410 . S
C5251 C5259 1.503 . S
C5252 C5251 1.410 . S
C5252 C5253 1.392 . S
C5252 C5255 1.511 . S
C5253 C5249 1.376 . S
C5253 C5252 1.392 . S
C5253 H5265 0.929 . S
C5254 C5250 1.531 . S
C5254 H5266 0.960 . S
C5254 H5267 0.962 . S
C5254 H5268 0.960 . S
C5255 C5252 1.511 . S
C5255 H5269 0.961 . S
C5255 H5270 0.961 . S
C5255 H5271 0.961 . S
C5256 C5257 1.370 . S
C5256 C5258 1.363 . S
C5256 H5272 0.931 . S
C5257 C5256 1.370 . S
C5257 C5261 1.408 . S
C5258 C5256 1.363 . S
C5258 C5259 1.370 . S
C5258 C5262 1.524 . S
C5259 C5251 1.503 . S
C5259 C5258 1.370 . S
C5259 C5260 1.403 . S
C5260 C5259 1.403 . S
C5260 C5261 1.404 . S
C5260 C5263 1.539 . S
C5261 C5257 1.408 . S
C5261 C5260 1.404 . S
C5261 H5273 0.930 . S
C5262 C5258 1.524 . S
C5262 H5274 0.956 . S
C5262 H5275 0.961 . S
C5262 H5276 0.961 . S
C5263 C5260 1.539 . S
C5263 H5277 0.958 . S
C5263 H5278 0.961 . S
C5263 H5279 0.960 . S
H5264 C5248 0.931 . S
H5265 C5253 0.929 . S
H5266 C5254 0.960 . S
H5267 C5254 0.962 . S
H5268 C5254 0.960 . S
H5269 C5255 0.961 . S
H5270 C5255 0.961 . S
H5271 C5255 0.961 . S
H5272 C5256 0.931 . S
H5273 C5261 0.930 . S
H5274 C5262 0.956 . S
H5275 C5262 0.961 . S
H5276 C5262 0.961 . S
H5277 C5263 0.958 . S
H5278 C5263 0.961 . S
H5279 C5263 0.960 . S
C5280 C5281 1.391 . S
C5280 C5282 1.394 . S
C5280 H5296 0.931 . S
C5281 C5280 1.391 . S
C5281 C5285 1.376 . S
C5282 C5280 1.394 . S
C5282 C5283 1.369 . S
C5282 C5286 1.531 . S
C5283 C5282 1.369 . S
C5283 C5284 1.410 . S
C5283 C5291 1.503 . S
C5284 C5283 1.410 . S
C5284 C5285 1.392 . S
C5284 C5287 1.511 . S
C5285 C5281 1.376 . S
C5285 C5284 1.392 . S
C5285 H5297 0.929 . S
C5286 C5282 1.531 . S
C5286 H5298 0.960 . S
C5286 H5299 0.962 . S
C5286 H5300 0.960 . S
C5287 C5284 1.511 . S
C5287 H5301 0.961 . S
C5287 H5302 0.961 . S
C5287 H5303 0.961 . S
C5288 C5289 1.370 . S
C5288 C5290 1.363 . S
C5288 H5304 0.931 . S
C5289 C5288 1.370 . S
C5289 C5293 1.408 . S
C5290 C5288 1.363 . S
C5290 C5291 1.370 . S
C5290 C5294 1.524 . S
C5291 C5283 1.503 . S
C5291 C5290 1.370 . S
C5291 C5292 1.403 . S
C5292 C5291 1.403 . S
C5292 C5293 1.404 . S
C5292 C5295 1.539 . S
C5293 C5289 1.408 . S
C5293 C5292 1.404 . S
C5293 H5305 0.930 . S
C5294 C5290 1.524 . S
C5294 H5306 0.956 . S
C5294 H5307 0.961 . S
C5294 H5308 0.961 . S
C5295 C5292 1.539 . S
C5295 H5309 0.958 . S
C5295 H5310 0.961 . S
C5295 H5311 0.960 . S
H5296 C5280 0.931 . S
H5297 C5285 0.929 . S
H5298 C5286 0.960 . S
H5299 C5286 0.962 . S
H5300 C5286 0.960 . S
H5301 C5287 0.961 . S
H5302 C5287 0.961 . S
H5303 C5287 0.961 . S
H5304 C5288 0.931 . S
H5305 C5293 0.930 . S
H5306 C5294 0.956 . S
H5307 C5294 0.961 . S
H5308 C5294 0.961 . S
H5309 C5295 0.958 . S
H5310 C5295 0.961 . S
H5311 C5295 0.960 . S
C5312 C5313 1.391 . S
C5312 C5314 1.394 . S
C5312 H5328 0.931 . S
C5313 C5312 1.391 . S
C5313 C5317 1.376 . S
C5314 C5312 1.394 . S
C5314 C5315 1.369 . S
C5314 C5318 1.531 . S
C5315 C5314 1.369 . S
C5315 C5316 1.410 . S
C5315 C5323 1.503 . S
C5316 C5315 1.410 . S
C5316 C5317 1.392 . S
C5316 C5319 1.511 . S
C5317 C5313 1.376 . S
C5317 C5316 1.392 . S
C5317 H5329 0.929 . S
C5318 C5314 1.531 . S
C5318 H5330 0.960 . S
C5318 H5331 0.962 . S
C5318 H5332 0.960 . S
C5319 C5316 1.511 . S
C5319 H5333 0.961 . S
C5319 H5334 0.961 . S
C5319 H5335 0.961 . S
C5320 C5321 1.370 . S
C5320 C5322 1.363 . S
C5320 H5336 0.931 . S
C5321 C5320 1.370 . S
C5321 C5325 1.408 . S
C5322 C5320 1.363 . S
C5322 C5323 1.370 . S
C5322 C5326 1.524 . S
C5323 C5315 1.503 . S
C5323 C5322 1.370 . S
C5323 C5324 1.403 . S
C5324 C5323 1.403 . S
C5324 C5325 1.404 . S
C5324 C5327 1.539 . S
C5325 C5321 1.408 . S
C5325 C5324 1.404 . S
C5325 H5337 0.930 . S
C5326 C5322 1.524 . S
C5326 H5338 0.956 . S
C5326 H5339 0.961 . S
C5326 H5340 0.961 . S
C5327 C5324 1.539 . S
C5327 H5341 0.958 . S
C5327 H5342 0.961 . S
C5327 H5343 0.960 . S
H5328 C5312 0.931 . S
H5329 C5317 0.929 . S
H5330 C5318 0.960 . S
H5331 C5318 0.962 . S
H5332 C5318 0.960 . S
H5333 C5319 0.961 . S
H5334 C5319 0.961 . S
H5335 C5319 0.961 . S
H5336 C5320 0.931 . S
H5337 C5325 0.930 . S
H5338 C5326 0.956 . S
H5339 C5326 0.961 . S
H5340 C5326 0.961 . S
H5341 C5327 0.958 . S
H5342 C5327 0.961 . S
H5343 C5327 0.960 . S
C5344 C5345 1.391 . S
C5344 C5346 1.394 . S
C5344 H5360 0.931 . S
C5345 C5344 1.391 . S
C5345 C5349 1.376 . S
C5346 C5344 1.394 . S
C5346 C5347 1.369 . S
C5346 C5350 1.531 . S
C5347 C5346 1.369 . S
C5347 C5348 1.410 . S
C5347 C5355 1.503 . S
C5348 C5347 1.410 . S
C5348 C5349 1.392 . S
C5348 C5351 1.511 . S
C5349 C5345 1.376 . S
C5349 C5348 1.392 . S
C5349 H5361 0.929 . S
C5350 C5346 1.531 . S
C5350 H5362 0.960 . S
C5350 H5363 0.962 . S
C5350 H5364 0.960 . S
C5351 C5348 1.511 . S
C5351 H5365 0.961 . S
C5351 H5366 0.961 . S
C5351 H5367 0.961 . S
C5352 C5353 1.370 . S
C5352 C5354 1.363 . S
C5352 H5368 0.931 . S
C5353 C5352 1.370 . S
C5353 C5357 1.408 . S
C5354 C5352 1.363 . S
C5354 C5355 1.370 . S
C5354 C5358 1.524 . S
C5355 C5347 1.503 . S
C5355 C5354 1.370 . S
C5355 C5356 1.403 . S
C5356 C5355 1.403 . S
C5356 C5357 1.404 . S
C5356 C5359 1.539 . S
C5357 C5353 1.408 . S
C5357 C5356 1.404 . S
C5357 H5369 0.930 . S
C5358 C5354 1.524 . S
C5358 H5370 0.956 . S
C5358 H5371 0.961 . S
C5358 H5372 0.961 . S
C5359 C5356 1.539 . S
C5359 H5373 0.958 . S
C5359 H5374 0.961 . S
C5359 H5375 0.960 . S
H5360 C5344 0.931 . S
H5361 C5349 0.929 . S
H5362 C5350 0.960 . S
H5363 C5350 0.962 . S
H5364 C5350 0.960 . S
H5365 C5351 0.961 . S
H5366 C5351 0.961 . S
H5367 C5351 0.961 . S
H5368 C5352 0.931 . S
H5369 C5357 0.930 . S
H5370 C5358 0.956 . S
H5371 C5358 0.961 . S
H5372 C5358 0.961 . S
H5373 C5359 0.958 . S
H5374 C5359 0.961 . S
H5375 C5359 0.960 . S
C5376 C5377 1.391 . S
C5376 C5378 1.394 1_655 S
C5376 H5392 0.931 1_655 S
C5377 C5376 1.391 . S
C5377 C5381 1.376 . S
C5378 C5376 1.394 1_455 S
C5378 C5379 1.369 1_455 S
C5378 C5382 1.531 . S
C5379 C5378 1.369 1_655 S
C5379 C5380 1.410 . S
C5379 C5387 1.503 1_655 S
C5380 C5379 1.410 . S
C5380 C5381 1.392 . S
C5380 C5383 1.511 . S
C5381 C5377 1.376 . S
C5381 C5380 1.392 . S
C5381 H5393 0.929 . S
C5382 C5378 1.531 . S
C5382 H5394 0.960 . S
C5382 H5395 0.962 . S
C5382 H5396 0.960 . S
C5383 C5380 1.511 . S
C5383 H5397 0.961 . S
C5383 H5398 0.961 . S
C5383 H5399 0.961 . S
C5384 C5385 1.370 . S
C5384 C5386 1.363 . S
C5384 H5400 0.931 . S
C5385 C5384 1.370 . S
C5385 C5389 1.408 . S
C5386 C5384 1.363 . S
C5386 C5387 1.370 . S
C5386 C5390 1.524 . S
C5387 C5379 1.503 1_455 S
C5387 C5386 1.370 . S
C5387 C5388 1.403 . S
C5388 C5387 1.403 . S
C5388 C5389 1.404 . S
C5388 C5391 1.539 . S
C5389 C5385 1.408 . S
C5389 C5388 1.404 . S
C5389 H5401 0.930 . S
C5390 C5386 1.524 . S
C5390 H5402 0.956 . S
C5390 H5403 0.961 1_455 S
C5390 H5404 0.961 . S
C5391 C5388 1.539 . S
C5391 H5405 0.958 . S
C5391 H5406 0.934 1_455 S
C5391 H5407 0.960 1_455 S
H5392 C5376 0.931 1_455 S
H5393 C5381 0.929 . S
H5394 C5382 0.960 . S
H5395 C5382 0.962 . S
H5396 C5382 0.960 . S
H5397 C5383 0.961 . S
H5398 C5383 0.961 . S
H5399 C5383 0.961 . S
H5400 C5384 0.931 . S
H5401 C5389 0.930 . S
H5402 C5390 0.956 . S
H5403 C5390 0.961 1_655 S
H5404 C5390 0.961 . S
H5405 C5391 0.958 . S
H5406 C5391 0.934 1_655 S
H5407 C5391 0.960 1_655 S
C5408 C5409 1.391 . S
C5408 C5410 1.394 . S
C5408 H5424 0.931 . S
C5409 C5408 1.391 . S
C5409 C5413 1.376 . S
C5410 C5408 1.394 . S
C5410 C5411 1.369 . S
C5410 C5414 1.531 . S
C5411 C5410 1.369 . S
C5411 C5412 1.410 . S
C5411 C5419 1.503 . S
C5412 C5411 1.410 . S
C5412 C5413 1.392 . S
C5412 C5415 1.511 . S
C5413 C5409 1.376 . S
C5413 C5412 1.392 . S
C5413 H5425 0.929 . S
C5414 C5410 1.531 . S
C5414 H5426 0.960 . S
C5414 H5427 0.962 . S
C5414 H5428 0.960 . S
C5415 C5412 1.511 . S
C5415 H5429 0.961 . S
C5415 H5430 0.961 . S
C5415 H5431 0.961 . S
C5416 C5417 1.370 . S
C5416 C5418 1.363 . S
C5416 H5432 0.931 . S
C5417 C5416 1.370 . S
C5417 C5421 1.408 . S
C5418 C5416 1.363 . S
C5418 C5419 1.370 . S
C5418 C5422 1.524 . S
C5419 C5411 1.503 . S
C5419 C5418 1.370 . S
C5419 C5420 1.403 . S
C5420 C5419 1.403 . S
C5420 C5421 1.404 . S
C5420 C5423 1.539 . S
C5421 C5417 1.408 . S
C5421 C5420 1.404 . S
C5421 H5433 0.930 . S
C5422 C5418 1.524 . S
C5422 H5434 0.956 . S
C5422 H5435 0.961 . S
C5422 H5436 0.961 . S
C5423 C5420 1.539 . S
C5423 H5437 0.958 . S
C5423 H5438 0.961 . S
C5423 H5439 0.960 . S
H5424 C5408 0.931 . S
H5425 C5413 0.929 . S
H5426 C5414 0.960 . S
H5427 C5414 0.962 . S
H5428 C5414 0.960 . S
H5429 C5415 0.961 . S
H5430 C5415 0.961 . S
H5431 C5415 0.961 . S
H5432 C5416 0.931 . S
H5433 C5421 0.930 . S
H5434 C5422 0.956 . S
H5435 C5422 0.961 . S
H5436 C5422 0.961 . S
H5437 C5423 0.958 . S
H5438 C5423 0.961 . S
H5439 C5423 0.960 . S
C5440 C5441 1.391 . S
C5440 C5442 1.394 . S
C5440 H5456 0.931 . S
C5441 C5440 1.391 . S
C5441 C5445 1.376 . S
C5442 C5440 1.394 . S
C5442 C5443 1.369 . S
C5442 C5446 1.531 . S
C5443 C5442 1.369 . S
C5443 C5444 1.410 . S
C5443 C5451 1.503 . S
C5444 C5443 1.410 . S
C5444 C5445 1.392 . S
C5444 C5447 1.511 . S
C5445 C5441 1.376 . S
C5445 C5444 1.392 . S
C5445 H5457 0.929 . S
C5446 C5442 1.531 . S
C5446 H5458 0.960 . S
C5446 H5459 0.962 . S
C5446 H5460 0.960 . S
C5447 C5444 1.511 . S
C5447 H5461 0.961 . S
C5447 H5462 0.961 . S
C5447 H5463 0.961 . S
C5448 C5449 1.370 . S
C5448 C5450 1.363 . S
C5448 H5464 0.931 . S
C5449 C5448 1.370 . S
C5449 C5453 1.408 . S
C5450 C5448 1.363 . S
C5450 C5451 1.370 . S
C5450 C5454 1.524 . S
C5451 C5443 1.503 . S
C5451 C5450 1.370 . S
C5451 C5452 1.403 . S
C5452 C5451 1.403 . S
C5452 C5453 1.404 . S
C5452 C5455 1.539 . S
C5453 C5449 1.408 . S
C5453 C5452 1.404 . S
C5453 H5465 0.930 . S
C5454 C5450 1.524 . S
C5454 H5466 0.956 . S
C5454 H5467 0.961 . S
C5454 H5468 0.961 . S
C5455 C5452 1.539 . S
C5455 H5469 0.958 . S
C5455 H5470 0.961 . S
C5455 H5471 0.960 . S
H5456 C5440 0.931 . S
H5457 C5445 0.929 . S
H5458 C5446 0.960 . S
H5459 C5446 0.962 . S
H5460 C5446 0.960 . S
H5461 C5447 0.961 . S
H5462 C5447 0.961 . S
H5463 C5447 0.961 . S
H5464 C5448 0.931 . S
H5465 C5453 0.930 . S
H5466 C5454 0.956 . S
H5467 C5454 0.961 . S
H5468 C5454 0.961 . S
H5469 C5455 0.958 . S
H5470 C5455 0.961 . S
H5471 C5455 0.960 . S
C5472 C5473 1.391 . S
C5472 C5474 1.394 . S
C5472 H5488 0.931 . S
C5473 C5472 1.391 . S
C5473 C5477 1.376 . S
C5474 C5472 1.394 . S
C5474 C5475 1.369 . S
C5474 C5478 1.531 . S
C5475 C5474 1.369 . S
C5475 C5476 1.410 . S
C5475 C5483 1.503 . S
C5476 C5475 1.410 . S
C5476 C5477 1.392 . S
C5476 C5479 1.511 . S
C5477 C5473 1.376 . S
C5477 C5476 1.392 . S
C5477 H5489 0.929 . S
C5478 C5474 1.531 . S
C5478 H5490 0.960 . S
C5478 H5491 0.962 . S
C5478 H5492 0.960 . S
C5479 C5476 1.511 . S
C5479 H5493 0.961 . S
C5479 H5494 0.961 . S
C5479 H5495 0.961 . S
C5480 C5481 1.370 . S
C5480 C5482 1.363 . S
C5480 H5496 0.931 . S
C5481 C5480 1.370 . S
C5481 C5485 1.408 . S
C5482 C5480 1.363 . S
C5482 C5483 1.370 . S
C5482 C5486 1.524 . S
C5483 C5475 1.503 . S
C5483 C5482 1.370 . S
C5483 C5484 1.403 . S
C5484 C5483 1.403 . S
C5484 C5485 1.404 . S
C5484 C5487 1.539 . S
C5485 C5481 1.408 . S
C5485 C5484 1.404 . S
C5485 H5497 0.930 . S
C5486 C5482 1.524 . S
C5486 H5498 0.956 . S
C5486 H5499 0.961 . S
C5486 H5500 0.961 . S
C5487 C5484 1.539 . S
C5487 H5501 0.958 . S
C5487 H5502 0.961 . S
C5487 H5503 0.960 . S
H5488 C5472 0.931 . S
H5489 C5477 0.929 . S
H5490 C5478 0.960 . S
H5491 C5478 0.962 . S
H5492 C5478 0.960 . S
H5493 C5479 0.961 . S
H5494 C5479 0.961 . S
H5495 C5479 0.961 . S
H5496 C5480 0.931 . S
H5497 C5485 0.930 . S
H5498 C5486 0.956 . S
H5499 C5486 0.961 . S
H5500 C5486 0.961 . S
H5501 C5487 0.958 . S
H5502 C5487 0.961 . S
H5503 C5487 0.960 . S
C5504 C5505 1.391 . S
C5504 C5506 1.394 . S
C5504 H5520 0.931 . S
C5505 C5504 1.391 . S
C5505 C5509 1.376 . S
C5506 C5504 1.394 . S
C5506 C5507 1.369 . S
C5506 C5510 1.531 1_655 S
C5507 C5506 1.369 . S
C5507 C5508 1.410 . S
C5507 C5515 1.503 . S
C5508 C5507 1.410 . S
C5508 C5509 1.392 . S
C5508 C5511 1.511 . S
C5509 C5505 1.376 . S
C5509 C5508 1.392 . S
C5509 H5521 0.929 . S
C5510 C5506 1.531 1_455 S
C5510 H5522 0.960 . S
C5510 H5523 0.962 . S
C5510 H5524 0.960 . S
C5511 C5508 1.511 . S
C5511 H5525 0.961 . S
C5511 H5526 0.961 . S
C5511 H5527 0.961 . S
C5512 C5513 1.370 . S
C5512 C5514 1.363 . S
C5512 H5528 0.931 . S
C5513 C5512 1.370 . S
C5513 C5517 1.408 . S
C5514 C5512 1.363 . S
C5514 C5515 1.370 . S
C5514 C5518 1.524 . S
C5515 C5507 1.503 . S
C5515 C5514 1.370 . S
C5515 C5516 1.403 . S
C5516 C5515 1.403 . S
C5516 C5517 1.404 . S
C5516 C5519 1.539 . S
C5517 C5513 1.408 . S
C5517 C5516 1.404 . S
C5517 H5529 0.930 . S
C5518 C5514 1.524 . S
C5518 H5530 0.996 . S
C5518 H5531 0.961 . S
C5518 H5532 0.961 . S
C5519 C5516 1.539 . S
C5519 H5533 0.958 . S
C5519 H5534 0.961 . S
C5519 H5535 0.960 . S
H5520 C5504 0.931 . S
H5521 C5509 0.929 . S
H5522 C5510 0.960 . S
H5523 C5510 0.962 . S
H5524 C5510 0.960 . S
H5525 C5511 0.961 . S
H5526 C5511 0.961 . S
H5527 C5511 0.961 . S
H5528 C5512 0.931 . S
H5529 C5517 0.930 . S
H5530 C5518 0.996 . S
H5531 C5518 0.961 . S
H5532 C5518 0.961 . S
H5533 C5519 0.958 . S
H5534 C5519 0.961 . S
H5535 C5519 0.960 . S
C5536 C5537 1.391 . S
C5536 C5538 1.394 . S
C5536 H5552 0.931 . S
C5537 C5536 1.391 . S
C5537 C5541 1.376 . S
C5538 C5536 1.394 . S
C5538 C5539 1.369 . S
C5538 C5542 1.531 . S
C5539 C5538 1.369 . S
C5539 C5540 1.410 . S
C5539 C5547 1.503 . S
C5540 C5539 1.410 . S
C5540 C5541 1.392 . S
C5540 C5543 1.511 . S
C5541 C5537 1.376 . S
C5541 C5540 1.392 . S
C5541 H5553 0.929 . S
C5542 C5538 1.531 . S
C5542 H5554 0.960 . S
C5542 H5555 0.962 . S
C5542 H5556 0.960 . S
C5543 C5540 1.511 . S
C5543 H5557 0.961 . S
C5543 H5558 0.961 . S
C5543 H5559 0.961 . S
C5544 C5545 1.370 . S
C5544 C5546 1.363 . S
C5544 H5560 0.931 . S
C5545 C5544 1.370 . S
C5545 C5549 1.408 . S
C5546 C5544 1.363 . S
C5546 C5547 1.370 . S
C5546 C5550 1.524 . S
C5547 C5539 1.503 . S
C5547 C5546 1.370 . S
C5547 C5548 1.403 . S
C5548 C5547 1.403 . S
C5548 C5549 1.404 . S
C5548 C5551 1.539 . S
C5549 C5545 1.408 . S
C5549 C5548 1.404 . S
C5549 H5561 0.930 . S
C5550 C5546 1.524 . S
C5550 H5562 0.956 . S
C5550 H5563 0.961 . S
C5550 H5564 0.961 . S
C5551 C5548 1.539 . S
C5551 H5565 0.958 . S
C5551 H5566 0.961 . S
C5551 H5567 0.960 . S
H5552 C5536 0.931 . S
H5553 C5541 0.929 . S
H5554 C5542 0.960 . S
H5555 C5542 0.962 . S
H5556 C5542 0.960 . S
H5557 C5543 0.961 . S
H5558 C5543 0.961 . S
H5559 C5543 0.961 . S
H5560 C5544 0.931 . S
H5561 C5549 0.930 . S
H5562 C5550 0.956 . S
H5563 C5550 0.961 . S
H5564 C5550 0.961 . S
H5565 C5551 0.958 . S
H5566 C5551 0.961 . S
H5567 C5551 0.960 . S
C5568 C5569 1.391 . S
C5568 C5570 1.394 . S
C5568 H5584 0.931 . S
C5569 C5568 1.391 . S
C5569 C5573 1.376 . S
C5570 C5568 1.394 . S
C5570 C5571 1.369 . S
C5570 C5574 1.531 . S
C5571 C5570 1.369 . S
C5571 C5572 1.410 . S
C5571 C5579 1.503 . S
C5572 C5571 1.410 . S
C5572 C5573 1.392 . S
C5572 C5575 1.511 . S
C5573 C5569 1.376 . S
C5573 C5572 1.392 . S
C5573 H5585 0.929 . S
C5574 C5570 1.531 . S
C5574 H5586 0.960 . S
C5574 H5587 0.962 . S
C5574 H5588 0.960 . S
C5575 C5572 1.511 . S
C5575 H5589 0.961 . S
C5575 H5590 0.961 . S
C5575 H5591 0.961 . S
C5576 C5577 1.370 . S
C5576 C5578 1.363 . S
C5576 H5592 0.931 . S
C5577 C5576 1.370 . S
C5577 C5581 1.408 . S
C5578 C5576 1.363 . S
C5578 C5579 1.370 . S
C5578 C5582 1.524 . S
C5579 C5571 1.503 . S
C5579 C5578 1.370 . S
C5579 C5580 1.403 . S
C5580 C5579 1.403 . S
C5580 C5581 1.404 . S
C5580 C5583 1.539 . S
C5581 C5577 1.408 . S
C5581 C5580 1.404 . S
C5581 H5593 0.930 . S
C5582 C5578 1.524 . S
C5582 H5594 0.956 . S
C5582 H5595 0.961 . S
C5582 H5596 0.961 . S
C5583 C5580 1.539 . S
C5583 H5597 0.958 . S
C5583 H5598 0.961 . S
C5583 H5599 0.960 . S
H5584 C5568 0.931 . S
H5585 C5573 0.929 . S
H5586 C5574 0.960 . S
H5587 C5574 0.962 . S
H5588 C5574 0.960 . S
H5589 C5575 0.961 . S
H5590 C5575 0.961 . S
H5591 C5575 0.961 . S
H5592 C5576 0.931 . S
H5593 C5581 0.930 . S
H5594 C5582 0.956 . S
H5595 C5582 0.961 . S
H5596 C5582 0.961 . S
H5597 C5583 0.958 . S
H5598 C5583 0.961 . S
H5599 C5583 0.960 . S
C5600 C5601 1.391 . S
C5600 C5602 1.394 . S
C5600 H5616 0.931 . S
C5601 C5600 1.391 . S
C5601 C5605 1.376 . S
C5602 C5600 1.394 . S
C5602 C5603 1.369 . S
C5602 C5606 1.531 . S
C5603 C5602 1.369 . S
C5603 C5604 1.410 . S
C5603 C5611 1.503 . S
C5604 C5603 1.410 . S
C5604 C5605 1.392 . S
C5604 C5607 1.511 . S
C5605 C5601 1.376 . S
C5605 C5604 1.392 . S
C5605 H5617 0.929 . S
C5606 C5602 1.531 . S
C5606 H5618 0.960 1_565 S
C5606 H5619 0.962 . S
C5606 H5620 0.960 . S
C5607 C5604 1.511 . S
C5607 H5621 0.961 . S
C5607 H5622 0.961 . S
C5607 H5623 0.961 . S
C5608 C5609 1.370 1_565 S
C5608 C5610 1.363 . S
C5608 H5624 0.931 . S
C5609 C5608 1.370 1_545 S
C5609 C5613 1.408 . S
C5610 C5608 1.363 . S
C5610 C5611 1.370 . S
C5610 C5614 1.524 . S
C5611 C5603 1.503 . S
C5611 C5610 1.370 . S
C5611 C5612 1.403 . S
C5612 C5611 1.403 . S
C5612 C5613 1.404 1_565 S
C5612 C5615 1.539 1_565 S
C5613 C5609 1.408 . S
C5613 C5612 1.404 1_545 S
C5613 H5625 0.930 . S
C5614 C5610 1.524 . S
C5614 H5626 0.956 . S
C5614 H5627 0.961 . S
C5614 H5628 0.961 . S
C5615 C5612 1.539 1_545 S
C5615 H5629 0.958 . S
C5615 H5630 0.961 . S
C5615 H5631 0.960 1_545 S
H5616 C5600 0.931 . S
H5617 C5605 0.929 . S
H5618 C5606 0.960 1_545 S
H5619 C5606 0.962 . S
H5620 C5606 0.960 . S
H5621 C5607 0.961 . S
H5622 C5607 0.961 . S
H5623 C5607 0.961 . S
H5624 C5608 0.931 . S
H5625 C5613 0.930 . S
H5626 C5614 0.956 . S
H5627 C5614 0.961 . S
H5628 C5614 0.961 . S
H5629 C5615 0.958 . S
H5630 C5615 0.961 . S
H5631 C5615 0.960 1_565 S
C5632 C5633 1.391 . S
C5632 C5634 1.394 . S
C5632 H5648 0.931 . S
C5633 C5632 1.391 . S
C5633 C5637 1.376 . S
C5634 C5632 1.394 . S
C5634 C5635 1.369 . S
C5634 C5638 1.531 . S
C5635 C5634 1.369 . S
C5635 C5636 1.410 . S
C5635 C5643 1.503 . S
C5636 C5635 1.410 . S
C5636 C5637 1.392 . S
C5636 C5639 1.511 . S
C5637 C5633 1.376 . S
C5637 C5636 1.392 . S
C5637 H5649 0.929 . S
C5638 C5634 1.531 . S
C5638 H5650 0.960 . S
C5638 H5651 0.962 . S
C5638 H5652 0.960 . S
C5639 C5636 1.511 . S
C5639 H5653 0.961 . S
C5639 H5654 0.961 . S
C5639 H5655 0.961 . S
C5640 C5641 1.370 . S
C5640 C5642 1.363 . S
C5640 H5656 0.931 . S
C5641 C5640 1.370 . S
C5641 C5645 1.408 . S
C5642 C5640 1.363 . S
C5642 C5643 1.370 . S
C5642 C5646 1.524 . S
C5643 C5635 1.503 . S
C5643 C5642 1.370 . S
C5643 C5644 1.403 . S
C5644 C5643 1.403 . S
C5644 C5645 1.404 . S
C5644 C5647 1.539 . S
C5645 C5641 1.408 . S
C5645 C5644 1.404 . S
C5645 H5657 0.930 . S
C5646 C5642 1.524 . S
C5646 H5658 0.956 . S
C5646 H5659 0.961 . S
C5646 H5660 0.961 . S
C5647 C5644 1.539 . S
C5647 H5661 0.958 . S
C5647 H5662 0.961 . S
C5647 H5663 0.960 . S
H5648 C5632 0.931 . S
H5649 C5637 0.929 . S
H5650 C5638 0.960 . S
H5651 C5638 0.962 . S
H5652 C5638 0.960 . S
H5653 C5639 0.961 . S
H5654 C5639 0.961 . S
H5655 C5639 0.961 . S
H5656 C5640 0.931 . S
H5657 C5645 0.930 . S
H5658 C5646 0.956 . S
H5659 C5646 0.961 . S
H5660 C5646 0.961 . S
H5661 C5647 0.958 . S
H5662 C5647 0.961 . S
H5663 C5647 0.960 . S
C5664 C5665 1.391 . S
C5664 C5666 1.394 . S
C5664 H5680 0.931 . S
C5665 C5664 1.391 . S
C5665 C5669 1.376 1_556 S
C5666 C5664 1.394 . S
C5666 C5667 1.369 1_556 S
C5666 C5670 1.531 . S
C5667 C5666 1.369 1_554 S
C5667 C5668 1.410 . S
C5667 C5675 1.503 . S
C5668 C5667 1.410 . S
C5668 C5669 1.392 . S
C5668 C5671 1.511 . S
C5669 C5665 1.376 1_554 S
C5669 C5668 1.392 . S
C5669 H5681 0.929 . S
C5670 C5666 1.531 . S
C5670 H5682 0.960 . S
C5670 H5683 0.962 . S
C5670 H5684 0.960 . S
C5671 C5668 1.511 . S
C5671 H5685 0.961 . S
C5671 H5686 0.961 . S
C5671 H5687 0.961 . S
C5672 C5673 1.370 . S
C5672 C5674 1.363 . S
C5672 H5688 0.931 . S
C5673 C5672 1.370 . S
C5673 C5677 1.408 . S
C5674 C5672 1.363 . S
C5674 C5675 1.370 . S
C5674 C5678 1.524 . S
C5675 C5667 1.503 . S
C5675 C5674 1.370 . S
C5675 C5676 1.403 . S
C5676 C5675 1.403 . S
C5676 C5677 1.404 . S
C5676 C5679 1.539 . S
C5677 C5673 1.408 . S
C5677 C5676 1.404 . S
C5677 H5689 0.930 . S
C5678 C5674 1.524 . S
C5678 H5690 0.956 1_554 S
C5678 H5691 0.961 . S
C5678 H5692 0.961 . S
C5679 C5676 1.539 . S
C5679 H5693 0.958 1_554 S
C5679 H5694 0.961 . S
C5679 H5695 0.960 . S
H5680 C5664 0.931 . S
H5681 C5669 0.929 . S
H5682 C5670 0.960 . S
H5683 C5670 0.962 . S
H5684 C5670 0.960 . S
H5685 C5671 0.961 . S
H5686 C5671 0.961 . S
H5687 C5671 0.961 . S
H5688 C5672 0.931 . S
H5689 C5677 0.930 . S
H5690 C5678 0.956 1_556 S
H5691 C5678 0.961 . S
H5692 C5678 0.961 . S
H5693 C5679 0.958 1_556 S
H5694 C5679 0.961 . S
H5695 C5679 0.960 . S
C5696 C5697 1.391 . S
C5696 C5698 1.394 . S
C5696 H5712 0.931 . S
C5697 C5696 1.391 . S
C5697 C5701 1.376 . S
C5698 C5696 1.394 . S
C5698 C5699 1.369 . S
C5698 C5702 1.531 . S
C5699 C5698 1.369 . S
C5699 C5700 1.410 . S
C5699 C5707 1.503 . S
C5700 C5699 1.410 . S
C5700 C5701 1.392 . S
C5700 C5703 1.511 . S
C5701 C5697 1.376 . S
C5701 C5700 1.392 . S
C5701 H5713 0.929 . S
C5702 C5698 1.531 . S
C5702 H5714 0.960 . S
C5702 H5715 0.962 . S
C5702 H5716 0.960 . S
C5703 C5700 1.511 . S
C5703 H5717 0.961 . S
C5703 H5718 0.961 . S
C5703 H5719 0.961 . S
C5704 C5705 1.370 . S
C5704 C5706 1.363 . S
C5704 H5720 0.931 . S
C5705 C5704 1.370 . S
C5705 C5709 1.408 . S
C5706 C5704 1.363 . S
C5706 C5707 1.370 . S
C5706 C5710 1.524 . S
C5707 C5699 1.503 . S
C5707 C5706 1.370 . S
C5707 C5708 1.403 . S
C5708 C5707 1.403 . S
C5708 C5709 1.404 . S
C5708 C5711 1.539 . S
C5709 C5705 1.408 . S
C5709 C5708 1.404 . S
C5709 H5721 0.930 . S
C5710 C5706 1.524 . S
C5710 H5722 0.956 . S
C5710 H5723 0.961 . S
C5710 H5724 0.961 . S
C5711 C5708 1.539 . S
C5711 H5725 0.958 . S
C5711 H5726 0.961 . S
C5711 H5727 0.960 . S
H5712 C5696 0.931 . S
H5713 C5701 0.929 . S
H5714 C5702 0.960 . S
H5715 C5702 0.962 . S
H5716 C5702 0.960 . S
H5717 C5703 0.961 . S
H5718 C5703 0.961 . S
H5719 C5703 0.961 . S
H5720 C5704 0.931 . S
H5721 C5709 0.930 . S
H5722 C5710 0.956 . S
H5723 C5710 0.961 . S
H5724 C5710 0.961 . S
H5725 C5711 0.958 . S
H5726 C5711 0.961 . S
H5727 C5711 0.960 . S
C5728 C5729 1.391 . S
C5728 C5730 1.394 . S
C5728 H5744 0.931 . S
C5729 C5728 1.391 . S
C5729 C5733 1.376 1_554 S
C5730 C5728 1.394 . S
C5730 C5731 1.369 1_554 S
C5730 C5734 1.531 . S
C5731 C5730 1.369 1_556 S
C5731 C5732 1.410 . S
C5731 C5739 1.503 . S
C5732 C5731 1.410 . S
C5732 C5733 1.392 . S
C5732 C5735 1.511 . S
C5733 C5729 1.376 1_556 S
C5733 C5732 1.392 . S
C5733 H5745 0.929 . S
C5734 C5730 1.531 . S
C5734 H5746 0.960 . S
C5734 H5747 0.962 . S
C5734 H5748 0.960 . S
C5735 C5732 1.511 . S
C5735 H5749 0.961 . S
C5735 H5750 0.961 . S
C5735 H5751 0.961 . S
C5736 C5737 1.370 . S
C5736 C5738 1.363 1_556 S
C5736 H5752 0.931 1_556 S
C5737 C5736 1.370 . S
C5737 C5741 1.408 . S
C5738 C5736 1.363 1_554 S
C5738 C5739 1.370 1_554 S
C5738 C5742 1.524 . S
C5739 C5731 1.503 . S
C5739 C5738 1.370 1_556 S
C5739 C5740 1.403 . S
C5740 C5739 1.403 . S
C5740 C5741 1.404 . S
C5740 C5743 1.539 . S
C5741 C5737 1.408 . S
C5741 C5740 1.404 . S
C5741 H5753 0.930 . S
C5742 C5738 1.524 . S
C5742 H5754 0.956 . S
C5742 H5755 0.961 . S
C5742 H5756 0.961 . S
C5743 C5740 1.539 . S
C5743 H5757 0.958 . S
C5743 H5758 0.961 . S
C5743 H5759 0.960 . S
H5744 C5728 0.931 . S
H5745 C5733 0.929 . S
H5746 C5734 0.960 . S
H5747 C5734 0.962 . S
H5748 C5734 0.960 . S
H5749 C5735 0.961 . S
H5750 C5735 0.961 . S
H5751 C5735 0.961 . S
H5752 C5736 0.931 1_554 S
H5753 C5741 0.930 . S
H5754 C5742 0.956 . S
H5755 C5742 0.961 . S
H5756 C5742 0.961 . S
H5757 C5743 0.958 . S
H5758 C5743 0.961 . S
H5759 C5743 0.960 . S
C5760 C5761 1.391 . S
C5760 C5762 1.394 . S
C5760 H5776 0.931 . S
C5761 C5760 1.391 . S
C5761 C5765 1.376 . S
C5762 C5760 1.394 . S
C5762 C5763 1.369 . S
C5762 C5766 1.531 . S
C5763 C5762 1.369 . S
C5763 C5764 1.410 . S
C5763 C5771 1.503 . S
C5764 C5763 1.410 . S
C5764 C5765 1.392 . S
C5764 C5767 1.511 . S
C5765 C5761 1.376 . S
C5765 C5764 1.392 . S
C5765 H5777 0.929 . S
C5766 C5762 1.531 . S
C5766 H5778 0.960 . S
C5766 H5779 0.962 . S
C5766 H5780 0.960 . S
C5767 C5764 1.511 . S
C5767 H5781 0.961 . S
C5767 H5782 0.961 . S
C5767 H5783 0.961 . S
C5768 C5769 1.370 . S
C5768 C5770 1.363 . S
C5768 H5784 0.931 . S
C5769 C5768 1.370 . S
C5769 C5773 1.408 . S
C5770 C5768 1.363 . S
C5770 C5771 1.370 . S
C5770 C5774 1.524 . S
C5771 C5763 1.503 . S
C5771 C5770 1.370 . S
C5771 C5772 1.403 . S
C5772 C5771 1.403 . S
C5772 C5773 1.404 . S
C5772 C5775 1.539 . S
C5773 C5769 1.408 . S
C5773 C5772 1.404 . S
C5773 H5785 0.930 . S
C5774 C5770 1.524 . S
C5774 H5786 0.956 . S
C5774 H5787 0.961 . S
C5774 H5788 0.961 . S
C5775 C5772 1.539 . S
C5775 H5789 0.958 . S
C5775 H5790 0.961 . S
C5775 H5791 0.960 . S
H5776 C5760 0.931 . S
H5777 C5765 0.929 . S
H5778 C5766 0.960 . S
H5779 C5766 0.962 . S
H5780 C5766 0.960 . S
H5781 C5767 0.961 . S
H5782 C5767 0.961 . S
H5783 C5767 0.961 . S
H5784 C5768 0.931 . S
H5785 C5773 0.930 . S
H5786 C5774 0.956 . S
H5787 C5774 0.961 . S
H5788 C5774 0.961 . S
H5789 C5775 0.958 . S
H5790 C5775 0.961 . S
H5791 C5775 0.960 . S
C5792 C5793 1.391 . S
C5792 C5794 1.394 . S
C5792 H5808 0.931 . S
C5793 C5792 1.391 . S
C5793 C5797 1.376 . S
C5794 C5792 1.394 . S
C5794 C5795 1.369 . S
C5794 C5798 1.531 . S
C5795 C5794 1.369 . S
C5795 C5796 1.410 . S
C5795 C5803 1.503 . S
C5796 C5795 1.410 . S
C5796 C5797 1.392 . S
C5796 C5799 1.511 . S
C5797 C5793 1.376 . S
C5797 C5796 1.392 . S
C5797 H5809 0.929 . S
C5798 C5794 1.531 . S
C5798 H5810 0.960 . S
C5798 H5811 0.962 . S
C5798 H5812 0.960 . S
C5799 C5796 1.511 . S
C5799 H5813 0.961 . S
C5799 H5814 0.961 . S
C5799 H5815 0.961 . S
C5800 C5801 1.370 . S
C5800 C5802 1.363 . S
C5800 H5816 0.931 . S
C5801 C5800 1.370 . S
C5801 C5805 1.408 . S
C5802 C5800 1.363 . S
C5802 C5803 1.370 . S
C5802 C5806 1.524 . S
C5803 C5795 1.503 . S
C5803 C5802 1.370 . S
C5803 C5804 1.403 . S
C5804 C5803 1.403 . S
C5804 C5805 1.404 . S
C5804 C5807 1.539 . S
C5805 C5801 1.408 . S
C5805 C5804 1.404 . S
C5805 H5817 0.930 . S
C5806 C5802 1.524 . S
C5806 H5818 0.956 . S
C5806 H5819 0.961 . S
C5806 H5820 0.961 . S
C5807 C5804 1.539 . S
C5807 H5821 0.958 . S
C5807 H5822 0.961 . S
C5807 H5823 0.960 . S
H5808 C5792 0.931 . S
H5809 C5797 0.929 . S
H5810 C5798 0.960 . S
H5811 C5798 0.962 . S
H5812 C5798 0.960 . S
H5813 C5799 0.961 . S
H5814 C5799 0.961 . S
H5815 C5799 0.961 . S
H5816 C5800 0.931 . S
H5817 C5805 0.930 . S
H5818 C5806 0.956 . S
H5819 C5806 0.961 . S
H5820 C5806 0.961 . S
H5821 C5807 0.958 . S
H5822 C5807 0.961 . S
H5823 C5807 0.960 . S
C2753 C665 2.230 . S
C2761 C2122 2.233 1_556 S
C2785 C381 2.030 . S
C2793 C2170 2.023 . S
C2817 C460 1.077 . S
C2825 C2202 1.113 . S
C2857 C2247 1.373 . S
C2849 C585 1.362 . S
C2881 C108 1.275 . S
C2889 C2287 1.210 . S
C2921 C2318 0.266 . S
C2913 C196 0.354 . S
C2953 C2370 1.279 . S
C2945 C313 1.283 . S
C2977 C49 1.708 . S
C2985 C2402 1.663 . S
C3017 C2130 2.403 . S
C3009 C1457 2.434 . S
C3041 C1545 0.386 . S
C3049 C2167 0.387 . S
C3081 C2210 1.313 . S
C3073 C1721 1.311 . S
C3113 C2242 1.365 . S
C3105 C1113 1.300 . S
C3137 C1428 1.843 . S
C3145 C2282 1.896 . S
C3177 C2321 1.413 . S
C3169 C1516 1.435 . S
C3209 C2367 0.373 . S
C3201 C1692 0.276 . S
C3241 C2410 2.027 . S
C3233 C1085 2.030 . S
C3273 C2127 1.454 1_565 S
C3265 C988 1.474 . S
C3297 C1817 1.925 . S
C3305 C2450 1.928 . S
C3337 C2491 2.505 . S
C3329 C2081 2.579 . S
C3369 C2522 0.577 1_655 S
C3361 C1993 0.630 . S
C3393 C761 1.369 . S
C3401 C2407 1.347 . S
C3425 C821 1.520 . S
C3433 C2207 1.474 . S
C3457 C2053 2.266 . S
C3465 C2570 2.244 . S
C3497 C2602 0.428 . S
C3489 C1868 0.314 . S
C3529 C2131 2.225 . S
C3521 C372 2.208 . S
C3561 C2601 2.021 . S
C3553 C645 2.028 . S
C3585 C577 1.132 . S
C3593 C2211 1.121 . S
C3617 C497 1.377 . S
C3625 C2558 1.363 . S
C3657 C2278 1.218 . S
C3649 C57 1.270 . S
C3681 C293 0.408 . S
C3689 C2487 0.258 . S
C3721 C2361 1.250 1_556 S
C3713 C205 1.271 . S
C3753 C2651 1.665 . S
C3745 C145 1.698 . S
C3785 C2121 2.409 . S
C3777 C909 2.421 1_545 S
C3817 C2598 0.458 . S
C3809 C1956 0.294 . S
C3841 C724 1.314 . S
C3849 C2201 1.295 . S
C3873 C1780 1.334 . S
C3881 C2571 1.360 . S
C3905 C937 1.838 . S
C3913 C2291 1.879 . S
C3945 C2490 1.405 . S
C3937 C1985 1.447 . S
C3969 C753 0.142 . S
C3977 C2358 0.409 . S
C4001 C1809 2.049 . S
C4009 C2641 2.012 . S
C4033 C1173 1.461 . S
C4041 C2118 1.459 . S
C4065 C1105 1.932 . S
C4073 C2441 1.914 . S
C4097 C1633 2.575 . S
C4105 C2322 2.509 . S
C4129 C1553 0.612 . S
C4137 C2531 0.559 . S
C4169 C2638 1.354 . S
C4161 C1729 1.353 . S
C4193 C1340 1.496 . S
C4201 C2198 1.485 . S
C4233 C2241 2.234 . S
C4225 C1604 2.276 . S
C4265 C2171 0.436 . S
C4257 C1252 0.336 . S
C4289 C489 2.208 . S
C4297 C2682 2.228 . S
C4329 C2610 2.024 . S
C4321 C557 2.024 . S
C4353 C636 1.130 . S
C4361 C2722 1.128 . S
C4385 C409 1.370 . S
C4393 C2567 1.370 . S
C4417 C284 1.257 . S
C4425 C2447 1.217 . S
C4457 C2478 0.234 . S
C4449 C20 0.354 1_655 S
C4489 C2530 1.277 . S
C4481 C137 1.250 . S
C4521 C2642 1.651 . S
C4513 C225 1.700 . S
C4553 C2690 2.403 . S
C4545 C1641 2.433 . S
C4577 C1193 0.220 . S
C4585 C2607 0.473 . S
C4617 C2730 1.295 . S
C4609 C1289 1.331 . S
C4649 C2562 1.373 . S
C4641 C1377 1.354 . S
C4681 C2442 1.886 . S
C4673 C1613 1.868 . S
C4705 C1164 1.433 . S
C4713 C2481 1.416 . S
C4745 C2527 0.328 . S
C4737 C1261 0.283 . S
C4769 C1349 2.050 . S
C4777 C2650 2.017 . S
C4809 C2687 1.438 . S
C4801 C1965 1.485 . S
C4833 C849 1.939 . S
C4841 C2290 1.918 . S
C4873 C2331 2.506 . S
C4865 C929 2.579 . S
C4905 C2362 0.560 . S
C4897 C1017 0.545 . S
C4937 C2647 1.350 . S
C4929 C1897 1.371 . S
C4961 C1789 1.494 . S
C4969 C2727 1.491 . S
C5001 C2250 2.243 . S
C4993 C900 2.266 . S
C5033 C2162 0.360 . S
C5025 C733 0.312 . S
C5057 C548 2.230 . S
C5065 C2691 2.234 . S
C5097 C2161 2.025 . S
C5089 C469 2.009 . S
C5121 C401 1.122 . S
C5129 C2731 1.116 . S
C5153 C673 1.362 . S
C5161 C2238 1.369 . S
C5185 C233 1.257 . S
C5193 C2438 1.226 . S
C5225 C2327 0.248 . S
C5217 C117 0.399 . S
C5249 C29 1.268 . S
C5257 C2521 1.263 . S
C5281 C321 1.708 . S
C5289 C2411 1.664 . S
C5321 C2681 2.410 . S
C5313 C2044 2.417 . S
C5345 C997 0.269 . S
C5353 C2158 0.468 . S
C5385 C2721 1.305 . S
C5377 C1877 1.319 . S
C5409 C812 1.331 . S
C5417 C2251 1.360 . S
C5441 C2073 1.861 . S
C5449 C2451 1.881 . S
C5481 C2330 1.409 . S
C5473 C1025 1.448 . S
C5505 C1905 0.148 . S
C5513 C2518 0.409 . S
C5545 C2401 2.021 . S
C5537 C841 2.030 . S
C5577 C2678 1.442 . S
C5569 C1525 1.490 . S
C5609 C2281 1.916 1_655 S
C5601 C1369 1.935 . S
C5633 C1465 2.576 . S
C5641 C2482 2.507 . S
C5673 C2371 0.565 . S
C5665 C1201 0.634 . S
C5697 C1281 1.403 . S
C5705 C2398 1.331 . S
C5729 C1076 1.493 . S
C5737 C2718 1.491 . S
C5769 C2561 2.238 . S
C5761 C1437 2.273 . S
C5801 C2611 0.366 . S
C5793 C1701 0.266 . S
