# Generated by pormake.
# Topology apo, (3,6)-cn, num edge types: 1
# Building blocks:
#     Node 0, Type 0, BuildingBlock: OLANEW_clean_sbu_2, # of connection points: 3
#     Node 1, Type 0, BuildingBlock: OLANEW_clean_sbu_2, # of connection points: 3
#     Node 2, Type 0, BuildingBlock: OLANEW_clean_sbu_2, # of connection points: 3
#     Node 3, Type 0, BuildingBlock: OLANEW_clean_sbu_2, # of connection points: 3
#     Node 4, Type 0, BuildingBlock: OLANEW_clean_sbu_2, # of connection points: 3
#     Node 5, Type 0, BuildingBlock: OLANEW_clean_sbu_2, # of connection points: 3
#     Node 6, Type 0, BuildingBlock: OLANEW_clean_sbu_2, # of connection points: 3
#     Node 7, Type 0, BuildingBlock: OLANEW_clean_sbu_2, # of connection points: 3
#     Node 8, Type 1, BuildingBlock: MIDCAF_clean_sbu_0, # of connection points: 6
#     Node 9, Type 1, BuildingBlock: MIDCAF_clean_sbu_0, # of connection points: 6
#     Node 10, Type 1, BuildingBlock: MIDCAF_clean_sbu_0, # of connection points: 6
#     Node 11, Type 1, BuildingBlock: MIDCAF_clean_sbu_0, # of connection points: 6
#     Edge 12, Type (0, 1), BuildingBlock: AJUNOK_clean_linker_0, # of connection points: 2
#     Edge 13, Type (0, 1), BuildingBlock: AJUNOK_clean_linker_0, # of connection points: 2
#     Edge 14, Type (0, 1), BuildingBlock: AJUNOK_clean_linker_0, # of connection points: 2
#     Edge 15, Type (0, 1), BuildingBlock: AJUNOK_clean_linker_0, # of connection points: 2
#     Edge 16, Type (0, 1), BuildingBlock: AJUNOK_clean_linker_0, # of connection points: 2
#     Edge 17, Type (0, 1), BuildingBlock: AJUNOK_clean_linker_0, # of connection points: 2
#     Edge 18, Type (0, 1), BuildingBlock: AJUNOK_clean_linker_0, # of connection points: 2
#     Edge 19, Type (0, 1), BuildingBlock: AJUNOK_clean_linker_0, # of connection points: 2
#     Edge 20, Type (0, 1), BuildingBlock: AJUNOK_clean_linker_0, # of connection points: 2
#     Edge 21, Type (0, 1), BuildingBlock: AJUNOK_clean_linker_0, # of connection points: 2
#     Edge 22, Type (0, 1), BuildingBlock: AJUNOK_clean_linker_0, # of connection points: 2
#     Edge 23, Type (0, 1), BuildingBlock: AJUNOK_clean_linker_0, # of connection points: 2
#     Edge 24, Type (0, 1), BuildingBlock: AJUNOK_clean_linker_0, # of connection points: 2
#     Edge 25, Type (0, 1), BuildingBlock: AJUNOK_clean_linker_0, # of connection points: 2
#     Edge 26, Type (0, 1), BuildingBlock: AJUNOK_clean_linker_0, # of connection points: 2
#     Edge 27, Type (0, 1), BuildingBlock: AJUNOK_clean_linker_0, # of connection points: 2
#     Edge 28, Type (0, 1), BuildingBlock: AJUNOK_clean_linker_0, # of connection points: 2
#     Edge 29, Type (0, 1), BuildingBlock: AJUNOK_clean_linker_0, # of connection points: 2
#     Edge 30, Type (0, 1), BuildingBlock: AJUNOK_clean_linker_0, # of connection points: 2
#     Edge 31, Type (0, 1), BuildingBlock: AJUNOK_clean_linker_0, # of connection points: 2
#     Edge 32, Type (0, 1), BuildingBlock: AJUNOK_clean_linker_0, # of connection points: 2
#     Edge 33, Type (0, 1), BuildingBlock: AJUNOK_clean_linker_0, # of connection points: 2
#     Edge 34, Type (0, 1), BuildingBlock: AJUNOK_clean_linker_0, # of connection points: 2
#     Edge 35, Type (0, 1), BuildingBlock: AJUNOK_clean_linker_0, # of connection points: 2
# Relax obj value: 0.032
# Max RMSD: 0.081
# Mean RMSD: 0.068
data_MOF--net-apo--node1-OLANEW_clean_sbu_2--node2-MIDCAF_clean_sbu_0--edge1-AJUNOK_clean_linker_0
_symmetry_space_group_name_H-M    P1
_symmetry_Int_Tables_number       1
_symmetry_cell_setting            triclinic
loop_
_symmetry_equiv_pos_as_xyz
'x, y, z'
_cell_length_a     29.436308
_cell_length_b     32.526593
_cell_length_c     28.287744
_cell_angle_alpha  87.38921
_cell_angle_beta   90.196455
_cell_angle_gamma 90.271639
loop_
_atom_site_label
_atom_site_type_symbol
_atom_site_fract_x
_atom_site_fract_y
_atom_site_fract_z
_atom_type_partial_charge
O0 O 0.39221 0.35674 0.24671 0.0
Cd1 Cd 0.37656 0.28362 0.2329 0.0
O2 O 0.39696 0.34087 0.32264 0.0
Cd3 Cd 0.41196 0.34531 0.39878 0.0
O4 O 0.43066 0.34346 0.47422 0.0
C5 C 0.40617 0.35677 0.50722 0.0
O6 O 0.36667 0.37346 0.49661 0.0
C7 C 0.40028 0.36778 0.28855 0.0
C8 C 0.28653 0.25564 0.22713 0.0
O9 O 0.30549 0.26241 0.26691 0.0
O10 O 0.30955 0.26335 0.18935 0.0
O11 O 0.2002 0.27218 0.99018 0.0
Cd12 Cd 0.20329 0.30992 0.91207 0.0
O13 O 0.17889 0.2286 0.9388 0.0
Cd14 Cd 0.14791 0.1762 0.90624 0.0
O15 O 0.12948 0.12757 0.85986 0.0
C16 C 0.08819 0.11732 0.85484 0.0
O17 O 0.05687 0.13605 0.87878 0.0
C18 C 0.1846 0.23674 0.98196 0.0
C19 C 0.28451 0.31828 0.86132 0.0
O20 O 0.26838 0.34803 0.88417 0.0
O21 O 0.26348 0.28367 0.86394 0.0
O22 O 0.89175 0.15362 0.7385 0.0
Cd23 Cd 0.88318 0.22768 0.74862 0.0
O24 O 0.89414 0.1668 0.66214 0.0
Cd25 Cd 0.90477 0.16393 0.5853 0.0
O26 O 0.9185 0.16864 0.50902 0.0
C27 C 0.8926 0.15428 0.47758 0.0
O28 O 0.85511 0.13493 0.49066 0.0
C29 C 0.89717 0.14071 0.69708 0.0
C30 C 0.79605 0.25884 0.76127 0.0
O31 O 0.81069 0.25018 0.72029 0.0
O32 O 0.822 0.25125 0.79706 0.0
O33 O 0.68479 0.29431 0.05342 0.0
Cd34 Cd 0.69883 0.27779 0.13843 0.0
O35 O 0.70827 0.35754 0.06308 0.0
Cd36 Cd 0.71324 0.3522 0.14013 0.0
O37 O 0.67517 0.38663 0.19109 0.0
C38 C 0.63332 0.3907 0.18076 0.0
O39 O 0.617 0.37045 0.14524 0.0
C40 C 0.6932 0.33035 0.03607 0.0
C41 C 0.78228 0.24176 0.16299 0.0
O42 O 0.74612 0.21985 0.16043 0.0
O43 O 0.77929 0.28048 0.15295 0.0
O44 O 0.62875 0.67841 0.80684 0.0
Cd45 Cd 0.64273 0.7497 0.82586 0.0
O46 O 0.62861 0.69662 0.73099 0.0
Cd47 Cd 0.62669 0.68331 0.65554 0.0
O48 O 0.62167 0.66724 0.58114 0.0
C49 C 0.62629 0.69268 0.54589 0.0
O50 O 0.63483 0.73151 0.55345 0.0
C51 C 0.62475 0.66887 0.76394 0.0
C52 C 0.73091 0.77221 0.80104 0.0
O53 O 0.7213 0.76281 0.84434 0.0
O54 O 0.69893 0.77163 0.77025 0.0
O55 O 0.88297 0.86224 0.27888 0.0
Cd56 Cd 0.85542 0.79315 0.30737 0.0
O57 O 0.87933 0.84221 0.20617 0.0
Cd58 Cd 0.8898 0.84263 0.1294 0.0
O59 O 0.89908 0.85345 0.0532 0.0
C60 C 0.88881 0.82843 0.02149 0.0
O61 O 0.8709 0.79254 0.03407 0.0
C62 C 0.8902 0.8697 0.23494 0.0
C63 C 0.76415 0.76853 0.29878 0.0
O64 O 0.77999 0.77814 0.33908 0.0
O65 O 0.7906 0.77205 0.2629 0.0
O66 O 0.13509 0.83 0.21203 0.0
Cd67 Cd 0.15119 0.75671 0.2122 0.0
O68 O 0.14204 0.82548 0.28889 0.0
Cd69 Cd 0.14114 0.83879 0.36453 0.0
O70 O 0.13242 0.84608 0.44069 0.0
C71 C 0.12316 0.81481 0.46763 0.0
O72 O 0.12025 0.77855 0.44916 0.0
C73 C 0.13339 0.84732 0.25134 0.0
C74 C 0.24172 0.73925 0.23265 0.0
O75 O 0.22763 0.74188 0.1897 0.0
O76 O 0.21306 0.74503 0.26565 0.0
O77 O 0.36773 0.65248 0.79845 0.0
Cd78 Cd 0.32564 0.7144 0.81919 0.0
O79 O 0.41512 0.66098 0.85783 0.0
Cd80 Cd 0.38043 0.70823 0.89664 0.0
O81 O 0.38508 0.71762 0.97279 0.0
C82 C 0.37008 0.68892 1.00066 0.0
O83 O 0.3477 0.65843 0.98228 0.0
C84 C 0.40349 0.64193 0.8214 0.0
C85 C 0.24399 0.73602 0.77235 0.0
O86 O 0.28215 0.75055 0.75738 0.0
O87 O 0.24488 0.70993 0.80772 0.0
Zn88 Zn 0.07497 0.09697 0.29238 0.0
Zn89 Zn 0.00466 0.09842 0.13393 0.0
Zn90 Zn 0.03584 0.10407 0.21445 0.0
C91 C 0.08724 0.13083 0.11665 0.0
C92 C 0.9841 0.02344 0.17763 0.0
O93 O 0.98882 0.13157 0.26504 0.0
O94 O 0.02021 0.10538 0.33082 0.0
C95 C 0.12304 0.15701 0.24077 0.0
O96 O 0.08093 0.1367 0.161 0.0
O97 O 0.06123 0.10658 0.09559 0.0
O98 O 0.97195 0.0443 0.1411 0.0
O99 O 0.01402 0.03889 0.20539 0.0
O100 O 0.11623 0.14478 0.28313 0.0
O101 O 0.09914 0.14191 0.20739 0.0
O102 O 0.0551 0.03836 0.22973 0.0
O103 O 0.10189 0.04126 0.29053 0.0
C104 C 0.08421 0.02083 0.25832 0.0
O105 O 0.97153 0.13745 0.21765 0.0
O106 O 0.96506 0.14789 0.14026 0.0
C107 C 0.98822 0.12475 0.31022 0.0
C108 C 0.95192 0.15516 0.18153 0.0
Zn109 Zn 0.59059 0.4214 0.69613 0.0
Zn110 Zn 0.51012 0.40843 0.84594 0.0
Zn111 Zn 0.54681 0.41074 0.77366 0.0
C112 C 0.49058 0.48418 0.8107 0.0
C113 C 0.46355 0.35439 0.80011 0.0
O114 O 0.60949 0.37316 0.78318 0.0
O115 O 0.63463 0.37654 0.70951 0.0
C116 C 0.59062 0.49744 0.73157 0.0
O117 O 0.5277 0.47433 0.79013 0.0
O118 O 0.46912 0.45714 0.835 0.0
O119 O 0.48194 0.35301 0.84046 0.0
O120 O 0.48053 0.37862 0.76738 0.0
O121 O 0.61132 0.4797 0.69937 0.0
O122 O 0.56359 0.47698 0.75979 0.0
O123 O 0.5017 0.38416 0.72033 0.0
O124 O 0.53797 0.40744 0.65602 0.0
C125 C 0.50441 0.38897 0.67503 0.0
O126 O 0.59139 0.37951 0.82868 0.0
O127 O 0.56354 0.41232 0.88845 0.0
C128 C 0.63745 0.3617 0.75141 0.0
C129 C 0.59373 0.38947 0.87227 0.0
Zn130 Zn 0.04735 0.88892 0.79688 0.0
Zn131 Zn 0.94568 0.88643 0.66087 0.0
Zn132 Zn 0.99635 0.88678 0.73535 0.0
C133 C 0.95038 0.96843 0.68534 0.0
C134 C 0.90087 0.83923 0.73168 0.0
O135 O 0.05881 0.84897 0.72062 0.0
O136 O 0.07847 0.83581 0.79489 0.0
C137 C 0.0516 0.96469 0.76724 0.0
O138 O 0.97789 0.9519 0.71632 0.0
O139 O 0.93074 0.94609 0.65611 0.0
O140 O 0.89923 0.84825 0.68784 0.0
O141 O 0.93405 0.85232 0.75682 0.0
O142 O 0.08233 0.93965 0.77991 0.0
O143 O 0.01316 0.95094 0.75251 0.0
O144 O 0.96047 0.85911 0.79809 0.0
O145 O 0.00219 0.8934 0.84778 0.0
C146 C 0.96765 0.87163 0.84008 0.0
O147 O 0.03608 0.85841 0.67832 0.0
O148 O 0.98978 0.86444 0.61649 0.0
C149 C 0.08268 0.8284 0.75187 0.0
C150 C 0.02754 0.85375 0.63411 0.0
Zn151 Zn 0.55641 0.62791 0.19728 0.0
Zn152 Zn 0.46186 0.61522 0.34423 0.0
Zn153 Zn 0.50883 0.62158 0.2721 0.0
C154 C 0.54451 0.64096 0.37546 0.0
C155 C 0.45978 0.53746 0.31152 0.0
O156 O 0.46622 0.65118 0.21421 0.0
O157 O 0.51046 0.6473 0.15144 0.0
C158 C 0.60059 0.6774 0.25977 0.0
O159 O 0.54882 0.64869 0.33054 0.0
O160 O 0.51013 0.62176 0.39129 0.0
O161 O 0.43704 0.55921 0.33851 0.0
O162 O 0.49201 0.55448 0.28643 0.0
O163 O 0.60041 0.66913 0.21668 0.0
O164 O 0.57096 0.66028 0.28814 0.0
O165 O 0.52851 0.55829 0.25502 0.0
O166 O 0.57603 0.5701 0.19535 0.0
C167 C 0.55702 0.5453 0.22466 0.0
O168 O 0.4439 0.65471 0.25802 0.0
O169 O 0.41971 0.66162 0.33096 0.0
C170 C 0.47299 0.65671 0.16927 0.0
C171 C 0.41564 0.67002 0.28718 0.0
C172 C 0.12905 0.91417 0.29262 0.0
C173 C 0.12051 0.89153 0.25235 0.0
C174 C 0.11688 0.95568 0.29415 0.0
C175 C 0.09635 0.97673 0.25512 0.0
H176 H 0.14615 0.90031 0.32303 0.0
H177 H 0.12387 0.9714 0.32635 0.0
S178 S 0.07078 0.93305 0.13897 0.0
N179 N 0.09162 0.89408 0.17139 0.0
N180 N 0.07181 0.97266 0.17334 0.0
C181 C 0.08914 0.95501 0.21389 0.0
C182 C 0.10057 0.91241 0.21268 0.0
C183 C 0.40628 0.57073 0.79142 0.0
C184 C 0.42918 0.60445 0.81007 0.0
C185 C 0.42725 0.53213 0.78995 0.0
C186 C 0.47216 0.52621 0.80587 0.0
H187 H 0.37102 0.57342 0.78069 0.0
H188 H 0.40772 0.50638 0.77765 0.0
S189 S 0.54826 0.60497 0.85402 0.0
N190 N 0.50048 0.62978 0.84194 0.0
N191 N 0.53973 0.55728 0.83824 0.0
C192 C 0.4964 0.56006 0.82176 0.0
C193 C 0.47494 0.59921 0.82404 0.0
C194 C 0.64586 0.59494 0.77134 0.0
C195 C 0.6165 0.62569 0.75301 0.0
C196 C 0.63749 0.55333 0.76357 0.0
C197 C 0.59898 0.54128 0.7382 0.0
H198 H 0.67548 0.60315 0.79177 0.0
H199 H 0.6609 0.53038 0.77803 0.0
S200 S 0.51002 0.60952 0.68604 0.0
N201 N 0.54676 0.64125 0.70977 0.0
N202 N 0.5304 0.56269 0.69634 0.0
C203 C 0.56905 0.57155 0.72026 0.0
C204 C 0.578 0.61397 0.72736 0.0
C205 C 0.94826 0.92498 0.24707 0.0
C206 C 0.91384 0.90847 0.21877 0.0
C207 C 0.97152 0.96136 0.23303 0.0
C208 C 0.96172 0.98283 0.18981 0.0
H209 H 0.9574 0.90961 0.28051 0.0
H210 H 0.9968 0.97302 0.25686 0.0
S211 S 0.87162 0.95429 0.10453 0.0
N212 N 0.86855 0.91821 0.14735 0.0
N213 N 0.91348 0.98507 0.11951 0.0
C214 C 0.92711 0.9666 0.16122 0.0
C215 C 0.90297 0.92986 0.17598 0.0
C216 C 0.93244 0.07573 0.72967 0.0
C217 C 0.91049 0.09704 0.69168 0.0
C218 C 0.94548 0.03458 0.72684 0.0
C219 C 0.93843 0.01292 0.68572 0.0
H220 H 0.93931 0.09081 0.76234 0.0
H221 H 0.95949 0.01906 0.75783 0.0
S222 S 0.8778 0.05274 0.57774 0.0
N223 N 0.8777 0.09161 0.61326 0.0
N224 N 0.90544 0.01529 0.60656 0.0
C225 C 0.91592 0.03357 0.64749 0.0
C226 C 0.90144 0.07535 0.65076 0.0
C227 C 0.57222 0.44307 0.17117 0.0
C228 C 0.60694 0.42505 0.19942 0.0
C229 C 0.55355 0.48101 0.18176 0.0
C230 C 0.56763 0.50149 0.22186 0.0
H231 H 0.5617 0.42947 0.13862 0.0
H232 H 0.52954 0.49544 0.15714 0.0
S233 S 0.65208 0.46495 0.31117 0.0
N234 N 0.65127 0.42883 0.27191 0.0
N235 N 0.61463 0.49977 0.29245 0.0
C236 C 0.59931 0.4824 0.25261 0.0
C237 C 0.61926 0.44414 0.2413 0.0
C238 C 0.44257 0.43157 0.26143 0.0
C239 C 0.41584 0.41056 0.2961 0.0
C240 C 0.45756 0.47214 0.26709 0.0
C241 C 0.4469 0.49331 0.30779 0.0
H242 H 0.45182 0.41663 0.22941 0.0
H243 H 0.47615 0.48747 0.23855 0.0
S244 S 0.37462 0.45328 0.40738 0.0
N245 N 0.37613 0.41532 0.37068 0.0
N246 N 0.40648 0.49027 0.38294 0.0
C247 C 0.41994 0.47262 0.34267 0.0
C248 C 0.40401 0.4316 0.33648 0.0
C249 C 0.03684 0.05877 0.8377 0.0
C250 C 0.07623 0.08174 0.82657 0.0
C251 C 0.02782 0.02177 0.81608 0.0
C252 C 0.05676 0.00733 0.78119 0.0
H253 H 0.01414 0.06809 0.86527 0.0
H254 H -0.00087 0.0033 0.82846 0.0
S255 S 0.16266 0.05703 0.73699 0.0
N256 N 0.14363 0.08812 0.77698 0.0
N257 N 0.12556 0.01884 0.73555 0.0
C258 C 0.0953 0.03061 0.76842 0.0
C259 C 0.1051 0.06795 0.79103 0.0
C260 C 0.14753 0.22424 0.06112 0.0
C261 C 0.16808 0.20829 0.02096 0.0
C262 C 0.12407 0.19848 0.09417 0.0
C263 C 0.12036 0.15588 0.0882 0.0
H264 H 0.14721 0.25713 0.06562 0.0
H265 H 0.10643 0.21235 0.12294 0.0
S266 S 0.17696 0.09774 0.99548 0.0
N267 N 0.19035 0.14629 0.98238 0.0
N268 N 0.14468 0.09824 0.0431 0.0
C269 C 0.1438 0.13923 0.0504 0.0
C270 C 0.16813 0.16533 0.01718 0.0
C271 C 0.4091 0.38752 0.58711 0.0
C272 C 0.42467 0.35791 0.5561 0.0
C273 C 0.4321 0.39451 0.6297 0.0
C274 C 0.47081 0.37163 0.6429 0.0
H275 H 0.38106 0.40749 0.57689 0.0
H276 H 0.42177 0.42008 0.65039 0.0
S277 S 0.52055 0.28592 0.57894 0.0
N278 N 0.47766 0.30192 0.54523 0.0
N279 N 0.52054 0.3153 0.62503 0.0
C280 C 0.48409 0.33959 0.61453 0.0
C281 C 0.46108 0.33262 0.57117 0.0
C282 C 0.67422 0.38603 0.97569 0.0
C283 C 0.67786 0.34355 0.98741 0.0
C284 C 0.64972 0.40054 0.93593 0.0
C285 C 0.62889 0.3733 0.9054 0.0
H286 H 0.6875 0.4086 0.99917 0.0
H287 H 0.64501 0.43344 0.93041 0.0
S288 S 0.63535 0.25954 0.91415 0.0
N289 N 0.66349 0.2744 0.96112 0.0
N290 N 0.6182 0.30212 0.88552 0.0
C291 C 0.63585 0.33091 0.91373 0.0
C292 C 0.66025 0.31593 0.95489 0.0
C293 C 0.89501 0.12169 0.39905 0.0
C294 C 0.9083 0.15393 0.42782 0.0
C295 C 0.91745 0.11515 0.3563 0.0
C296 C 0.95298 0.1412 0.34053 0.0
H297 H 0.86988 0.09931 0.41144 0.0
H298 H 0.90966 0.08758 0.33768 0.0
S299 S 0.99472 0.23425 0.39782 0.0
N300 N 0.9549 0.21547 0.43383 0.0
N301 N 0.99651 0.20313 0.35334 0.0
C302 C 0.96322 0.17585 0.36632 0.0
C303 C 0.94097 0.18226 0.41005 0.0
C304 C 0.91261 0.88004 0.95865 0.0
C305 C 0.9007 0.83912 0.97144 0.0
C306 C 0.93092 0.8906 0.91425 0.0
C307 C 0.93798 0.86079 0.88066 0.0
H308 H 0.90955 0.90402 0.9838 0.0
H309 H 0.9417 0.92217 0.90698 0.0
S310 S 0.90802 0.7502 0.89392 0.0
N311 N 0.89324 0.76915 0.94483 0.0
N312 N 0.9287 0.78931 0.86133 0.0
C313 C 0.92351 0.8203 0.89143 0.0
C314 C 0.90454 0.80941 0.93685 0.0
C315 C 0.60228 0.70867 0.46166 0.0
C316 C 0.61587 0.67953 0.49738 0.0
C317 C 0.58341 0.69618 0.41882 0.0
C318 C 0.57804 0.65424 0.41037 0.0
H319 H 0.60318 0.74124 0.46805 0.0
H320 H 0.56971 0.71929 0.39399 0.0
S321 S 0.61647 0.56611 0.48763 0.0
N322 N 0.62896 0.60701 0.51773 0.0
N323 N 0.59331 0.5839 0.43759 0.0
C324 C 0.59544 0.62509 0.44364 0.0
C325 C 0.61448 0.63763 0.48708 0.0
C326 C 0.41743 0.71457 0.06719 0.0
C327 C 0.38673 0.68511 0.05047 0.0
C328 C 0.44229 0.70699 0.10907 0.0
C329 C 0.43681 0.67007 0.13615 0.0
H330 H 0.42476 0.74248 0.04621 0.0
H331 H 0.4682 0.72891 0.11863 0.0
S332 S 0.35703 0.58521 0.112 0.0
N333 N 0.34869 0.61942 0.06792 0.0
N334 N 0.39656 0.6051 0.14574 0.0
C335 C 0.40404 0.64175 0.12194 0.0
C336 C 0.37845 0.64943 0.0795 0.0
C337 C 0.07438 0.79311 0.53634 0.0
C338 C 0.10733 0.82026 0.51662 0.0
C339 C 0.05141 0.80215 0.57788 0.0
C340 C 0.06161 0.83788 0.60191 0.0
H341 H 0.06365 0.76635 0.5177 0.0
H342 H 0.02343 0.78248 0.58956 0.0
S343 S 0.15008 0.91528 0.56977 0.0
N344 N 0.1526 0.88194 0.52748 0.0
N345 N 0.11001 0.89809 0.60646 0.0
C346 C 0.0973 0.86319 0.58524 0.0
C347 C 0.12007 0.85457 0.54231 0.0
C348 C 0.22982 0.20843 0.19054 0.0
C349 C 0.24081 0.23634 0.22562 0.0
C350 C 0.19001 0.18426 0.19366 0.0
C351 C 0.15968 0.18773 0.23155 0.0
H352 H 0.25345 0.20336 0.16214 0.0
H353 H 0.1845 0.16102 0.16803 0.0
S354 S 0.16886 0.26144 0.3276 0.0
N355 N 0.21541 0.26941 0.29605 0.0
N356 N 0.14048 0.22495 0.30133 0.0
C357 C 0.16869 0.21778 0.26466 0.0
C358 C 0.20924 0.24188 0.26182 0.0
C359 C 0.36108 0.29334 0.83803 0.0
C360 C 0.32722 0.32365 0.83432 0.0
C361 C 0.4051 0.30148 0.82092 0.0
C362 C 0.41619 0.33963 0.79823 0.0
H363 H 0.35464 0.26456 0.8577 0.0
H364 H 0.43153 0.27912 0.8289 0.0
S365 S 0.33715 0.42609 0.77207 0.0
N366 N 0.30595 0.3911 0.80126 0.0
N367 N 0.38815 0.40572 0.76755 0.0
C368 C 0.38122 0.36826 0.7897 0.0
C369 C 0.33685 0.36051 0.80835 0.0
C370 C 0.71852 0.2753 0.73082 0.0
C371 C 0.75186 0.27988 0.76587 0.0
C372 C 0.67986 0.30016 0.72883 0.0
C373 C 0.67305 0.33072 0.76165 0.0
H374 H 0.72316 0.25342 0.7035 0.0
H375 H 0.65602 0.29667 0.69998 0.0
S376 S 0.74955 0.35481 0.86093 0.0
N377 N 0.7745 0.31611 0.83566 0.0
N378 N 0.70244 0.36402 0.83044 0.0
C379 C 0.70496 0.33453 0.79814 0.0
C380 C 0.74424 0.30874 0.80064 0.0
C381 C 0.86604 0.23787 0.15161 0.0
C382 C 0.8267 0.2226 0.17443 0.0
C383 C 0.90753 0.21717 0.15673 0.0
C384 C 0.9115 0.18125 0.18603 0.0
H385 H 0.86425 0.26467 0.1275 0.0
H386 H 0.93635 0.22844 0.13613 0.0
S387 S 0.8201 0.13165 0.25826 0.0
N388 N 0.79511 0.17125 0.23043 0.0
N389 N 0.87372 0.13316 0.24118 0.0
C390 C 0.87331 0.16732 0.21171 0.0
C391 C 0.83068 0.18777 0.20555 0.0
C392 C 0.80358 0.81025 0.8143 0.0
C393 C 0.77732 0.78423 0.78658 0.0
C394 C 0.84506 0.82656 0.79748 0.0
C395 C 0.86207 0.81636 0.75315 0.0
H396 H 0.79076 0.81998 0.84785 0.0
H397 H 0.86241 0.84912 0.81799 0.0
S398 S 0.80919 0.74445 0.67064 0.0
N399 N 0.77297 0.74601 0.71494 0.0
N400 N 0.85161 0.7752 0.68422 0.0
C401 C 0.83741 0.78818 0.72671 0.0
C402 C 0.7949 0.77239 0.74327 0.0
C403 C 0.70032 0.7219 0.32715 0.0
C404 C 0.71773 0.75132 0.29365 0.0
C405 C 0.66026 0.69957 0.31797 0.0
C406 C 0.63613 0.70649 0.27535 0.0
H407 H 0.71932 0.71416 0.35916 0.0
H408 H 0.64998 0.675 0.34279 0.0
S409 S 0.66308 0.78565 0.18058 0.0
N410 N 0.70481 0.78956 0.21926 0.0
N411 N 0.62929 0.74899 0.20262 0.0
C412 C 0.65133 0.73831 0.24367 0.0
C413 C 0.69218 0.76036 0.25263 0.0
C414 C 0.31238 0.7012 0.21405 0.0
C415 C 0.28891 0.72699 0.24408 0.0
C416 C 0.35452 0.68442 0.22733 0.0
C417 C 0.3753 0.69351 0.27036 0.0
H418 H 0.29695 0.69195 0.18134 0.0
H419 H 0.36939 0.66204 0.20531 0.0
S420 S 0.33056 0.76388 0.35863 0.0
N421 N 0.29108 0.76368 0.31702 0.0
N422 N 0.37102 0.73308 0.34115 0.0
C423 C 0.35336 0.7212 0.29942 0.0
C424 C 0.31006 0.73777 0.28639 0.0
C425 C 0.1994 0.79051 0.72664 0.0
C426 C 0.20007 0.75306 0.75395 0.0
C427 C 0.15895 0.81299 0.71981 0.0
C428 C 0.11795 0.79862 0.7399 0.0
H429 H 0.23083 0.80433 0.71382 0.0
H430 H 0.16071 0.84353 0.70291 0.0
S431 S 0.09916 0.69866 0.80501 0.0
N432 N 0.15418 0.69959 0.79376 0.0
N433 N 0.07883 0.7422 0.78148 0.0
C434 C 0.11724 0.75931 0.76246 0.0
C435 C 0.15814 0.73639 0.76935 0.0
loop_
_geom_bond_atom_site_label_1
_geom_bond_atom_site_label_2
_geom_bond_distance
_geom_bond_site_symmetry_2
_ccdc_geom_bond_type
O0 Cd1 2.300 . S
O0 C7 1.275 . S
Cd1 O0 2.300 . S
Cd1 O9 2.381 . S
Cd1 O10 2.378 . S
O2 Cd3 2.385 . S
O2 C7 1.255 . S
Cd3 O2 2.385 . S
Cd3 O4 2.317 . S
O4 Cd3 2.317 . S
O4 C5 1.232 . S
C5 O4 1.232 . S
C5 O6 1.218 . S
O6 C5 1.218 . S
C7 O0 1.275 . S
C7 O2 1.255 . S
C8 O9 1.258 . S
C8 O10 1.256 . S
O9 Cd1 2.381 . S
O9 C8 1.258 . S
O10 Cd1 2.378 . S
O10 C8 1.256 . S
O11 Cd12 2.300 . S
O11 C18 1.275 . S
Cd12 O11 2.300 . S
Cd12 O20 2.381 . S
Cd12 O21 2.378 . S
O13 Cd14 2.385 . S
O13 C18 1.255 . S
Cd14 O13 2.385 . S
Cd14 O15 2.317 . S
O15 Cd14 2.317 . S
O15 C16 1.232 . S
C16 O15 1.232 . S
C16 O17 1.218 . S
O17 C16 1.218 . S
C18 O11 1.275 . S
C18 O13 1.255 . S
C19 O20 1.258 . S
C19 O21 1.256 . S
O20 Cd12 2.381 . S
O20 C19 1.258 . S
O21 Cd12 2.378 . S
O21 C19 1.256 . S
O22 Cd23 2.300 . S
O22 C29 1.275 . S
Cd23 O22 2.300 . S
Cd23 O31 2.381 . S
Cd23 O32 2.378 . S
O24 Cd25 2.385 . S
O24 C29 1.255 . S
Cd25 O24 2.385 . S
Cd25 O26 2.317 . S
O26 Cd25 2.317 . S
O26 C27 1.232 . S
C27 O26 1.232 . S
C27 O28 1.218 . S
O28 C27 1.218 . S
C29 O22 1.275 . S
C29 O24 1.255 . S
C30 O31 1.258 . S
C30 O32 1.256 . S
O31 Cd23 2.381 . S
O31 C30 1.258 . S
O32 Cd23 2.378 . S
O32 C30 1.256 . S
O33 Cd34 2.300 . S
O33 C40 1.275 . S
Cd34 O33 2.300 . S
Cd34 O42 2.381 . S
Cd34 O43 2.378 . S
O35 Cd36 2.385 . S
O35 C40 1.255 . S
Cd36 O35 2.385 . S
Cd36 O37 2.317 . S
O37 Cd36 2.317 . S
O37 C38 1.232 . S
C38 O37 1.232 . S
C38 O39 1.218 . S
O39 C38 1.218 . S
C40 O33 1.275 . S
C40 O35 1.255 . S
C41 O42 1.258 . S
C41 O43 1.256 . S
O42 Cd34 2.381 . S
O42 C41 1.258 . S
O43 Cd34 2.378 . S
O43 C41 1.256 . S
O44 Cd45 2.300 . S
O44 C51 1.275 . S
Cd45 O44 2.300 . S
Cd45 O53 2.381 . S
Cd45 O54 2.378 . S
O46 Cd47 2.385 . S
O46 C51 1.255 . S
Cd47 O46 2.385 . S
Cd47 O48 2.317 . S
O48 Cd47 2.317 . S
O48 C49 1.232 . S
C49 O48 1.232 . S
C49 O50 1.218 . S
O50 C49 1.218 . S
C51 O44 1.275 . S
C51 O46 1.255 . S
C52 O53 1.258 . S
C52 O54 1.256 . S
O53 Cd45 2.381 . S
O53 C52 1.258 . S
O54 Cd45 2.378 . S
O54 C52 1.256 . S
O55 Cd56 2.300 . S
O55 C62 1.275 . S
Cd56 O55 2.300 . S
Cd56 O64 2.381 . S
Cd56 O65 2.378 . S
O57 Cd58 2.385 . S
O57 C62 1.255 . S
Cd58 O57 2.385 . S
Cd58 O59 2.317 . S
O59 Cd58 2.317 . S
O59 C60 1.232 1_554 S
C60 O59 1.232 1_556 S
C60 O61 1.218 . S
O61 C60 1.218 . S
C62 O55 1.275 . S
C62 O57 1.255 . S
C63 O64 1.258 . S
C63 O65 1.256 . S
O64 Cd56 2.381 . S
O64 C63 1.258 . S
O65 Cd56 2.378 . S
O65 C63 1.256 . S
O66 Cd67 2.300 . S
O66 C73 1.275 . S
Cd67 O66 2.300 . S
Cd67 O75 2.381 . S
Cd67 O76 2.378 . S
O68 Cd69 2.385 . S
O68 C73 1.255 . S
Cd69 O68 2.385 . S
Cd69 O70 2.317 . S
O70 Cd69 2.317 . S
O70 C71 1.232 . S
C71 O70 1.232 . S
C71 O72 1.218 . S
O72 C71 1.218 . S
C73 O66 1.275 . S
C73 O68 1.255 . S
C74 O75 1.258 . S
C74 O76 1.256 . S
O75 Cd67 2.381 . S
O75 C74 1.258 . S
O76 Cd67 2.378 . S
O76 C74 1.256 . S
O77 Cd78 2.300 . S
O77 C84 1.275 . S
Cd78 O77 2.300 . S
Cd78 O86 2.381 . S
Cd78 O87 2.378 . S
O79 Cd80 2.385 . S
O79 C84 1.255 . S
Cd80 O79 2.385 . S
Cd80 O81 2.317 . S
O81 Cd80 2.317 . S
O81 C82 1.231 . S
C82 O81 1.231 . S
C82 O83 1.218 1_556 S
O83 C82 1.218 1_554 S
C84 O77 1.275 . S
C84 O79 1.255 . S
C85 O86 1.258 . S
C85 O87 1.256 . S
O86 Cd78 2.381 . S
O86 C85 1.258 . S
O87 Cd78 2.378 . S
O87 C85 1.256 . S
Zn88 O94 1.920 . S
Zn88 O100 1.898 . S
Zn88 O103 1.905 . S
Zn89 O97 1.905 1_655 S
Zn89 O98 1.898 . S
Zn89 O106 1.920 . S
Zn90 O93 2.080 1_455 S
Zn90 O96 2.114 . S
Zn90 O99 2.120 1_455 S
Zn90 O101 2.120 . S
Zn90 O102 2.114 . S
Zn90 O105 2.080 1_455 S
C91 O96 1.166 . S
C91 O97 1.182 . S
C92 O98 1.167 . S
C92 O99 1.299 . S
O93 Zn90 2.080 1_655 S
O93 C107 1.305 . S
O94 Zn88 1.920 . S
O94 C107 1.234 1_455 S
C95 O100 1.167 . S
C95 O101 1.299 . S
O96 Zn90 2.114 . S
O96 C91 1.166 . S
O97 Zn89 1.905 1_455 S
O97 C91 1.182 . S
O98 Zn89 1.898 . S
O98 C92 1.167 . S
O99 Zn90 2.120 1_655 S
O99 C92 1.299 . S
O100 Zn88 1.898 . S
O100 C95 1.167 . S
O101 Zn90 2.120 . S
O101 C95 1.299 . S
O102 Zn90 2.114 . S
O102 C104 1.166 . S
O103 Zn88 1.905 . S
O103 C104 1.182 . S
C104 O102 1.166 . S
C104 O103 1.182 . S
O105 Zn90 2.080 1_655 S
O105 C108 1.305 . S
O106 Zn89 1.920 . S
O106 C108 1.234 . S
C107 O93 1.305 . S
C107 O94 1.234 1_655 S
C108 O105 1.305 . S
C108 O106 1.234 . S
Zn109 O115 1.920 . S
Zn109 O121 1.898 . S
Zn109 O124 1.905 . S
Zn110 O118 1.905 . S
Zn110 O119 1.898 . S
Zn110 O127 1.920 . S
Zn111 O114 2.080 . S
Zn111 O117 2.114 . S
Zn111 O120 2.120 . S
Zn111 O122 2.120 . S
Zn111 O123 2.114 . S
Zn111 O126 2.080 . S
C112 O117 1.166 . S
C112 O118 1.182 . S
C113 O119 1.167 . S
C113 O120 1.299 . S
O114 Zn111 2.080 . S
O114 C128 1.305 . S
O115 Zn109 1.920 . S
O115 C128 1.234 . S
C116 O121 1.167 . S
C116 O122 1.299 . S
O117 Zn111 2.114 . S
O117 C112 1.166 . S
O118 Zn110 1.905 . S
O118 C112 1.182 . S
O119 Zn110 1.898 . S
O119 C113 1.167 . S
O120 Zn111 2.120 . S
O120 C113 1.299 . S
O121 Zn109 1.898 . S
O121 C116 1.167 . S
O122 Zn111 2.120 . S
O122 C116 1.299 . S
O123 Zn111 2.114 . S
O123 C125 1.166 . S
O124 Zn109 1.905 . S
O124 C125 1.182 . S
C125 O123 1.166 . S
C125 O124 1.182 . S
O126 Zn111 2.080 . S
O126 C129 1.305 . S
O127 Zn110 1.920 . S
O127 C129 1.234 . S
C128 O114 1.305 . S
C128 O115 1.234 . S
C129 O126 1.305 . S
C129 O127 1.234 . S
Zn130 O136 1.920 . S
Zn130 O142 1.898 . S
Zn130 O145 1.926 . S
Zn131 O139 1.905 . S
Zn131 O140 1.898 . S
Zn131 O148 1.920 1_655 S
Zn132 O135 2.080 . S
Zn132 O138 2.114 1_455 S
Zn132 O141 2.120 1_455 S
Zn132 O143 2.120 . S
Zn132 O144 2.114 1_455 S
Zn132 O147 2.080 . S
C133 O138 1.166 . S
C133 O139 1.182 . S
C134 O140 1.167 . S
C134 O141 1.299 . S
O135 Zn132 2.080 . S
O135 C149 1.305 . S
O136 Zn130 1.920 . S
O136 C149 1.234 . S
C137 O142 1.167 . S
C137 O143 1.299 . S
O138 Zn132 2.114 1_655 S
O138 C133 1.166 . S
O139 Zn131 1.905 . S
O139 C133 1.182 . S
O140 Zn131 1.898 . S
O140 C134 1.167 . S
O141 Zn132 2.120 1_655 S
O141 C134 1.299 . S
O142 Zn130 1.898 . S
O142 C137 1.167 . S
O143 Zn132 2.120 . S
O143 C137 1.299 . S
O144 Zn132 2.114 1_655 S
O144 C146 1.166 . S
O145 Zn130 1.926 . S
O145 C146 1.166 1_455 S
C146 O144 1.166 . S
C146 O145 1.166 1_655 S
O147 Zn132 2.080 . S
O147 C150 1.305 . S
O148 Zn131 1.920 1_455 S
O148 C150 1.234 . S
C149 O135 1.305 . S
C149 O136 1.234 . S
C150 O147 1.305 . S
C150 O148 1.234 . S
Zn151 O157 1.920 . S
Zn151 O163 1.898 . S
Zn151 O166 1.905 . S
Zn152 O160 1.905 . S
Zn152 O161 1.898 . S
Zn152 O169 1.920 . S
Zn153 O156 2.080 . S
Zn153 O159 2.114 . S
Zn153 O162 2.120 . S
Zn153 O164 2.120 . S
Zn153 O165 2.114 . S
Zn153 O168 2.080 . S
C154 O159 1.166 . S
C154 O160 1.182 . S
C155 O161 1.167 . S
C155 O162 1.299 . S
O156 Zn153 2.080 . S
O156 C170 1.305 . S
O157 Zn151 1.920 . S
O157 C170 1.234 . S
C158 O163 1.167 . S
C158 O164 1.299 . S
O159 Zn153 2.114 . S
O159 C154 1.166 . S
O160 Zn152 1.905 . S
O160 C154 1.182 . S
O161 Zn152 1.898 . S
O161 C155 1.167 . S
O162 Zn153 2.120 . S
O162 C155 1.299 . S
O163 Zn151 1.898 . S
O163 C158 1.167 . S
O164 Zn153 2.120 . S
O164 C158 1.299 . S
O165 Zn153 2.114 . S
O165 C167 1.166 . S
O166 Zn151 1.905 . S
O166 C167 1.182 . S
C167 O165 1.166 . S
C167 O166 1.182 . S
O168 Zn153 2.080 . S
O168 C171 1.305 . S
O169 Zn152 1.920 . S
O169 C171 1.234 . S
C170 O156 1.305 . S
C170 O157 1.234 . S
C171 O168 1.305 . S
C171 O169 1.234 . S
C172 C173 1.369 . S
C172 C174 1.419 . S
C172 H176 0.930 . S
C173 C172 1.369 . S
C173 C182 1.429 . S
C174 C172 1.419 . S
C174 C175 1.363 1_565 S
C174 H177 0.938 . S
C175 C174 1.363 1_545 S
C175 C181 1.428 1_545 S
H176 C172 0.930 . S
H177 C174 0.938 . S
S178 N179 1.613 . S
S178 N180 1.610 1_565 S
N179 S178 1.613 . S
N179 C182 1.350 . S
N180 S178 1.610 1_545 S
N180 C181 1.351 1_545 S
C181 C175 1.428 1_565 S
C181 N180 1.351 1_565 S
C181 C182 1.434 . S
C182 C173 1.429 . S
C182 N179 1.350 . S
C182 C181 1.434 . S
C183 C184 1.369 . S
C183 C185 1.419 . S
C183 H187 0.930 . S
C184 C183 1.369 . S
C184 C193 1.429 . S
C185 C183 1.419 . S
C185 C186 1.363 . S
C185 H188 0.929 . S
C186 C185 1.363 . S
C186 C192 1.428 . S
H187 C183 0.930 . S
H188 C185 0.929 . S
S189 N190 1.613 . S
S189 N191 1.610 . S
N190 S189 1.613 . S
N190 C193 1.350 . S
N191 S189 1.610 . S
N191 C192 1.351 . S
C192 C186 1.428 . S
C192 N191 1.351 . S
C192 C193 1.434 . S
C193 C184 1.429 . S
C193 N190 1.350 . S
C193 C192 1.434 . S
C194 C195 1.369 . S
C194 C196 1.419 . S
C194 H198 0.930 . S
C195 C194 1.369 . S
C195 C204 1.429 . S
C196 C194 1.419 . S
C196 C197 1.363 . S
C196 H199 0.929 . S
C197 C196 1.363 . S
C197 C203 1.428 . S
H198 C194 0.930 . S
H199 C196 0.929 . S
S200 N201 1.613 . S
S200 N202 1.610 . S
N201 S200 1.613 . S
N201 C204 1.350 . S
N202 S200 1.610 . S
N202 C203 1.351 . S
C203 C197 1.428 . S
C203 N202 1.351 . S
C203 C204 1.434 . S
C204 C195 1.429 . S
C204 N201 1.350 . S
C204 C203 1.434 . S
C205 C206 1.369 . S
C205 C207 1.419 . S
C205 H209 0.930 . S
C206 C205 1.369 . S
C206 C215 1.429 . S
C207 C205 1.419 . S
C207 C208 1.363 1_565 S
C207 H210 0.929 1_655 S
C208 C207 1.363 1_545 S
C208 C214 1.428 . S
H209 C205 0.930 . S
H210 C207 0.929 1_455 S
S211 N212 1.613 1_545 S
S211 N213 1.610 . S
N212 S211 1.613 1_565 S
N212 C215 1.350 . S
N213 S211 1.610 . S
N213 C214 1.351 . S
C214 C208 1.428 . S
C214 N213 1.351 . S
C214 C215 1.434 1_545 S
C215 C206 1.429 . S
C215 N212 1.350 . S
C215 C214 1.434 1_565 S
C216 C217 1.369 . S
C216 C218 1.419 . S
C216 H220 0.930 . S
C217 C216 1.369 . S
C217 C226 1.429 . S
C218 C216 1.419 . S
C218 C219 1.363 . S
C218 H221 0.929 . S
C219 C218 1.363 . S
C219 C225 1.428 . S
H220 C216 0.930 . S
H221 C218 0.929 . S
S222 N223 1.613 . S
S222 N224 1.610 . S
N223 S222 1.613 . S
N223 C226 1.350 . S
N224 S222 1.610 . S
N224 C225 1.351 . S
C225 C219 1.428 . S
C225 N224 1.351 . S
C225 C226 1.434 . S
C226 C217 1.429 . S
C226 N223 1.350 . S
C226 C225 1.434 . S
C227 C228 1.369 . S
C227 C229 1.419 . S
C227 H231 0.930 . S
C228 C227 1.369 . S
C228 C237 1.429 . S
C229 C227 1.419 . S
C229 C230 1.363 . S
C229 H232 0.929 . S
C230 C229 1.363 . S
C230 C236 1.428 . S
H231 C227 0.930 . S
H232 C229 0.929 . S
S233 N234 1.613 . S
S233 N235 1.610 . S
N234 S233 1.613 . S
N234 C237 1.350 . S
N235 S233 1.610 . S
N235 C236 1.351 . S
C236 C230 1.428 . S
C236 N235 1.351 . S
C236 C237 1.434 . S
C237 C228 1.429 . S
C237 N234 1.350 . S
C237 C236 1.434 . S
C238 C239 1.369 . S
C238 C240 1.419 . S
C238 H242 0.930 . S
C239 C238 1.369 . S
C239 C248 1.429 . S
C240 C238 1.419 . S
C240 C241 1.363 . S
C240 H243 0.929 . S
C241 C240 1.363 . S
C241 C247 1.428 . S
H242 C238 0.930 . S
H243 C240 0.929 . S
S244 N245 1.613 . S
S244 N246 1.610 . S
N245 S244 1.613 . S
N245 C248 1.350 . S
N246 S244 1.610 . S
N246 C247 1.351 . S
C247 C241 1.428 . S
C247 N246 1.351 . S
C247 C248 1.434 . S
C248 C239 1.429 . S
C248 N245 1.350 . S
C248 C247 1.434 . S
C249 C250 1.369 . S
C249 C251 1.419 . S
C249 H253 0.930 . S
C250 C249 1.369 . S
C250 C259 1.429 . S
C251 C249 1.419 . S
C251 C252 1.390 . S
C251 H254 0.929 . S
C252 C251 1.390 . S
C252 C258 1.427 1_545 S
H253 C249 0.930 . S
H254 C251 0.929 . S
S255 N256 1.613 1_565 S
S255 N257 1.610 . S
N256 S255 1.613 1_545 S
N256 C259 1.350 . S
N257 S255 1.610 . S
N257 C258 1.351 . S
C258 C252 1.427 1_565 S
C258 N257 1.351 . S
C258 C259 1.434 1_565 S
C259 C250 1.429 . S
C259 N256 1.350 . S
C259 C258 1.434 1_545 S
C260 C261 1.369 . S
C260 C262 1.419 . S
C260 H264 0.930 . S
C261 C260 1.369 . S
C261 C270 1.429 . S
C262 C260 1.419 . S
C262 C263 1.363 . S
C262 H265 0.929 . S
C263 C262 1.363 . S
C263 C269 1.428 . S
H264 C260 0.930 . S
H265 C262 0.929 . S
S266 N267 1.613 . S
S266 N268 1.610 . S
N267 S266 1.613 . S
N267 C270 1.350 . S
N268 S266 1.610 . S
N268 C269 1.351 . S
C269 C263 1.428 . S
C269 N268 1.351 . S
C269 C270 1.434 . S
C270 C261 1.429 . S
C270 N267 1.350 . S
C270 C269 1.434 . S
C271 C272 1.369 . S
C271 C273 1.419 . S
C271 H275 0.930 . S
C272 C271 1.369 . S
C272 C281 1.429 . S
C273 C271 1.419 . S
C273 C274 1.363 . S
C273 H276 0.929 . S
C274 C273 1.363 . S
C274 C280 1.428 . S
H275 C271 0.930 . S
H276 C273 0.929 . S
S277 N278 1.613 . S
S277 N279 1.610 . S
N278 S277 1.613 . S
N278 C281 1.350 . S
N279 S277 1.610 . S
N279 C280 1.351 . S
C280 C274 1.428 . S
C280 N279 1.351 . S
C280 C281 1.434 . S
C281 C272 1.429 . S
C281 N278 1.350 . S
C281 C280 1.434 . S
C282 C283 1.369 . S
C282 C284 1.419 . S
C282 H286 0.930 . S
C283 C282 1.369 . S
C283 C292 1.429 . S
C284 C282 1.419 . S
C284 C285 1.363 . S
C284 H287 0.929 . S
C285 C284 1.363 . S
C285 C291 1.428 . S
H286 C282 0.930 . S
H287 C284 0.929 . S
S288 N289 1.613 . S
S288 N290 1.610 . S
N289 S288 1.613 . S
N289 C292 1.350 . S
N290 S288 1.610 . S
N290 C291 1.351 . S
C291 C285 1.428 . S
C291 N290 1.351 . S
C291 C292 1.434 . S
C292 C283 1.429 . S
C292 N289 1.350 . S
C292 C291 1.434 . S
C293 C294 1.369 . S
C293 C295 1.419 . S
C293 H297 0.930 . S
C294 C293 1.369 . S
C294 C303 1.429 . S
C295 C293 1.419 . S
C295 C296 1.363 . S
C295 H298 0.929 . S
C296 C295 1.363 . S
C296 C302 1.428 . S
H297 C293 0.930 . S
H298 C295 0.929 . S
S299 N300 1.613 . S
S299 N301 1.610 . S
N300 S299 1.613 . S
N300 C303 1.350 . S
N301 S299 1.610 . S
N301 C302 1.351 . S
C302 C296 1.428 . S
C302 N301 1.351 . S
C302 C303 1.434 . S
C303 C294 1.429 . S
C303 N300 1.350 . S
C303 C302 1.434 . S
C304 C305 1.369 . S
C304 C306 1.419 . S
C304 H308 0.930 . S
C305 C304 1.369 . S
C305 C314 1.429 . S
C306 C304 1.419 . S
C306 C307 1.363 . S
C306 H309 0.929 . S
C307 C306 1.363 . S
C307 C313 1.428 . S
H308 C304 0.930 . S
H309 C306 0.929 . S
S310 N311 1.613 . S
S310 N312 1.610 . S
N311 S310 1.613 . S
N311 C314 1.350 . S
N312 S310 1.610 . S
N312 C313 1.351 . S
C313 C307 1.428 . S
C313 N312 1.351 . S
C313 C314 1.434 . S
C314 C305 1.429 . S
C314 N311 1.350 . S
C314 C313 1.434 . S
C315 C316 1.369 . S
C315 C317 1.419 . S
C315 H319 0.930 . S
C316 C315 1.369 . S
C316 C325 1.429 . S
C317 C315 1.419 . S
C317 C318 1.363 . S
C317 H320 0.929 . S
C318 C317 1.363 . S
C318 C324 1.428 . S
H319 C315 0.930 . S
H320 C317 0.929 . S
S321 N322 1.613 . S
S321 N323 1.610 . S
N322 S321 1.613 . S
N322 C325 1.350 . S
N323 S321 1.610 . S
N323 C324 1.351 . S
C324 C318 1.428 . S
C324 N323 1.351 . S
C324 C325 1.434 . S
C325 C316 1.429 . S
C325 N322 1.350 . S
C325 C324 1.434 . S
C326 C327 1.369 . S
C326 C328 1.419 . S
C326 H330 0.930 . S
C327 C326 1.369 . S
C327 C336 1.429 . S
C328 C326 1.419 . S
C328 C329 1.363 . S
C328 H331 0.929 . S
C329 C328 1.363 . S
C329 C335 1.428 . S
H330 C326 0.930 . S
H331 C328 0.929 . S
S332 N333 1.613 . S
S332 N334 1.610 . S
N333 S332 1.613 . S
N333 C336 1.350 . S
N334 S332 1.610 . S
N334 C335 1.351 . S
C335 C329 1.428 . S
C335 N334 1.351 . S
C335 C336 1.434 . S
C336 C327 1.429 . S
C336 N333 1.350 . S
C336 C335 1.434 . S
C337 C338 1.369 . S
C337 C339 1.419 . S
C337 H341 0.930 . S
C338 C337 1.369 . S
C338 C347 1.429 . S
C339 C337 1.419 . S
C339 C340 1.363 . S
C339 H342 0.929 . S
C340 C339 1.363 . S
C340 C346 1.428 . S
H341 C337 0.930 . S
H342 C339 0.929 . S
S343 N344 1.613 . S
S343 N345 1.610 . S
N344 S343 1.613 . S
N344 C347 1.350 . S
N345 S343 1.610 . S
N345 C346 1.351 . S
C346 C340 1.428 . S
C346 N345 1.351 . S
C346 C347 1.434 . S
C347 C338 1.429 . S
C347 N344 1.350 . S
C347 C346 1.434 . S
C348 C349 1.369 . S
C348 C350 1.419 . S
C348 H352 0.930 . S
C349 C348 1.369 . S
C349 C358 1.429 . S
C350 C348 1.419 . S
C350 C351 1.363 . S
C350 H353 0.929 . S
C351 C350 1.363 . S
C351 C357 1.428 . S
H352 C348 0.930 . S
H353 C350 0.929 . S
S354 N355 1.613 . S
S354 N356 1.610 . S
N355 S354 1.613 . S
N355 C358 1.350 . S
N356 S354 1.610 . S
N356 C357 1.351 . S
C357 C351 1.428 . S
C357 N356 1.351 . S
C357 C358 1.434 . S
C358 C349 1.429 . S
C358 N355 1.350 . S
C358 C357 1.434 . S
C359 C360 1.369 . S
C359 C361 1.419 . S
C359 H363 0.930 . S
C360 C359 1.369 . S
C360 C369 1.429 . S
C361 C359 1.419 . S
C361 C362 1.363 . S
C361 H364 0.929 . S
C362 C361 1.363 . S
C362 C368 1.428 . S
H363 C359 0.930 . S
H364 C361 0.929 . S
S365 N366 1.613 . S
S365 N367 1.610 . S
N366 S365 1.613 . S
N366 C369 1.350 . S
N367 S365 1.610 . S
N367 C368 1.351 . S
C368 C362 1.428 . S
C368 N367 1.351 . S
C368 C369 1.434 . S
C369 C360 1.429 . S
C369 N366 1.350 . S
C369 C368 1.434 . S
C370 C371 1.369 . S
C370 C372 1.419 . S
C370 H374 0.930 . S
C371 C370 1.369 . S
C371 C380 1.429 . S
C372 C370 1.419 . S
C372 C373 1.363 . S
C372 H375 0.929 . S
C373 C372 1.363 . S
C373 C379 1.428 . S
H374 C370 0.930 . S
H375 C372 0.929 . S
S376 N377 1.613 . S
S376 N378 1.610 . S
N377 S376 1.613 . S
N377 C380 1.350 . S
N378 S376 1.610 . S
N378 C379 1.351 . S
C379 C373 1.428 . S
C379 N378 1.351 . S
C379 C380 1.434 . S
C380 C371 1.429 . S
C380 N377 1.350 . S
C380 C379 1.434 . S
C381 C382 1.369 . S
C381 C383 1.419 . S
C381 H385 0.930 . S
C382 C381 1.369 . S
C382 C391 1.429 . S
C383 C381 1.419 . S
C383 C384 1.363 . S
C383 H386 0.929 . S
C384 C383 1.363 . S
C384 C390 1.428 . S
H385 C381 0.930 . S
H386 C383 0.929 . S
S387 N388 1.613 . S
S387 N389 1.610 . S
N388 S387 1.613 . S
N388 C391 1.350 . S
N389 S387 1.610 . S
N389 C390 1.351 . S
C390 C384 1.428 . S
C390 N389 1.351 . S
C390 C391 1.434 . S
C391 C382 1.429 . S
C391 N388 1.350 . S
C391 C390 1.434 . S
C392 C393 1.369 . S
C392 C394 1.419 . S
C392 H396 0.930 . S
C393 C392 1.369 . S
C393 C402 1.429 . S
C394 C392 1.419 . S
C394 C395 1.363 . S
C394 H397 0.929 . S
C395 C394 1.363 . S
C395 C401 1.428 . S
H396 C392 0.930 . S
H397 C394 0.929 . S
S398 N399 1.613 . S
S398 N400 1.610 . S
N399 S398 1.613 . S
N399 C402 1.350 . S
N400 S398 1.610 . S
N400 C401 1.351 . S
C401 C395 1.428 . S
C401 N400 1.351 . S
C401 C402 1.434 . S
C402 C393 1.429 . S
C402 N399 1.350 . S
C402 C401 1.434 . S
C403 C404 1.369 . S
C403 C405 1.419 . S
C403 H407 0.930 . S
C404 C403 1.369 . S
C404 C413 1.429 . S
C405 C403 1.419 . S
C405 C406 1.363 . S
C405 H408 0.929 . S
C406 C405 1.363 . S
C406 C412 1.428 . S
H407 C403 0.930 . S
H408 C405 0.929 . S
S409 N410 1.613 . S
S409 N411 1.610 . S
N410 S409 1.613 . S
N410 C413 1.350 . S
N411 S409 1.610 . S
N411 C412 1.351 . S
C412 C406 1.428 . S
C412 N411 1.351 . S
C412 C413 1.434 . S
C413 C404 1.429 . S
C413 N410 1.350 . S
C413 C412 1.434 . S
C414 C415 1.369 . S
C414 C416 1.419 . S
C414 H418 0.930 . S
C415 C414 1.369 . S
C415 C424 1.429 . S
C416 C414 1.419 . S
C416 C417 1.363 . S
C416 H419 0.929 . S
C417 C416 1.363 . S
C417 C423 1.428 . S
H418 C414 0.930 . S
H419 C416 0.929 . S
S420 N421 1.613 . S
S420 N422 1.610 . S
N421 S420 1.613 . S
N421 C424 1.350 . S
N422 S420 1.610 . S
N422 C423 1.351 . S
C423 C417 1.428 . S
C423 N422 1.351 . S
C423 C424 1.434 . S
C424 C415 1.429 . S
C424 N421 1.350 . S
C424 C423 1.434 . S
C425 C426 1.369 . S
C425 C427 1.419 . S
C425 H429 0.930 . S
C426 C425 1.369 . S
C426 C435 1.429 . S
C427 C425 1.419 . S
C427 C428 1.363 . S
C427 H430 0.929 . S
C428 C427 1.363 . S
C428 C434 1.428 . S
H429 C425 0.930 . S
H430 C427 0.929 . S
S431 N432 1.613 . S
S431 N433 1.610 . S
N432 S431 1.613 . S
N432 C435 1.350 . S
N433 S431 1.610 . S
N433 C434 1.351 . S
C434 C428 1.428 . S
C434 N433 1.351 . S
C434 C435 1.434 . S
C435 C426 1.429 . S
C435 N432 1.350 . S
C435 C434 1.434 . S
C173 C73 1.415 . S
C175 C104 1.382 . S
C186 C112 1.516 . S
C184 C84 1.580 . S
C197 C116 1.377 . S
C195 C51 1.418 . S
C206 C62 1.565 . S
C208 C92 1.500 . S
C219 C133 1.446 1_545 S
C217 C29 1.528 . S
C230 C167 1.201 . S
C228 C38 1.097 . S
C239 C7 1.525 . S
C241 C155 1.437 . S
C250 C16 1.084 . S
C252 C137 1.161 1_545 S
C263 C91 1.454 . S
C261 C18 1.552 1_554 S
C274 C125 1.387 . S
C272 C5 1.399 . S
C285 C129 1.454 . S
C283 C40 1.556 1_556 S
C296 C107 1.380 . S
C294 C27 1.387 . S
C307 C146 1.210 . S
C305 C60 1.173 . S
C316 C49 1.175 . S
C318 C154 1.276 . S
C329 C170 1.207 . S
C327 C82 1.170 1_554 S
C338 C71 1.185 . S
C340 C150 1.277 . S
C351 C95 1.420 . S
C349 C8 1.611 . S
C362 C113 1.319 . S
C360 C19 1.497 . S
C371 C30 1.603 . S
C373 C128 1.429 . S
C384 C108 1.311 . S
C382 C41 1.491 . S
C395 C134 1.318 . S
C393 C52 1.423 . S
C404 C63 1.541 . S
C406 C158 1.424 . S
C415 C74 1.423 . S
C417 C171 1.315 . S
C426 C85 1.543 . S
C428 C149 1.435 . S
