# Generated by pormake.
# Topology gar, (4,6)-cn, num edge types: 1
# Building blocks:
#     Node 0, Type 0, BuildingBlock: CEKHIL_clean_sbu_0, # of connection points: 4
#     Node 1, Type 0, BuildingBlock: CEKHIL_clean_sbu_0, # of connection points: 4
#     Node 2, Type 0, BuildingBlock: CEKHIL_clean_sbu_0, # of connection points: 4
#     Node 3, Type 0, BuildingBlock: CEKHIL_clean_sbu_0, # of connection points: 4
#     Node 4, Type 0, BuildingBlock: CEKHIL_clean_sbu_0, # of connection points: 4
#     Node 5, Type 0, BuildingBlock: CEKHIL_clean_sbu_0, # of connection points: 4
#     Node 6, Type 0, BuildingBlock: CEKHIL_clean_sbu_0, # of connection points: 4
#     Node 7, Type 0, BuildingBlock: CEKHIL_clean_sbu_0, # of connection points: 4
#     Node 8, Type 0, BuildingBlock: CEKHIL_clean_sbu_0, # of connection points: 4
#     Node 9, Type 0, BuildingBlock: CEKHIL_clean_sbu_0, # of connection points: 4
#     Node 10, Type 0, BuildingBlock: CEKHIL_clean_sbu_0, # of connection points: 4
#     Node 11, Type 0, BuildingBlock: CEKHIL_clean_sbu_0, # of connection points: 4
#     Node 12, Type 0, BuildingBlock: CEKHIL_clean_sbu_0, # of connection points: 4
#     Node 13, Type 0, BuildingBlock: CEKHIL_clean_sbu_0, # of connection points: 4
#     Node 14, Type 0, BuildingBlock: CEKHIL_clean_sbu_0, # of connection points: 4
#     Node 15, Type 0, BuildingBlock: CEKHIL_clean_sbu_0, # of connection points: 4
#     Node 16, Type 0, BuildingBlock: CEKHIL_clean_sbu_0, # of connection points: 4
#     Node 17, Type 0, BuildingBlock: CEKHIL_clean_sbu_0, # of connection points: 4
#     Node 18, Type 0, BuildingBlock: CEKHIL_clean_sbu_0, # of connection points: 4
#     Node 19, Type 0, BuildingBlock: CEKHIL_clean_sbu_0, # of connection points: 4
#     Node 20, Type 0, BuildingBlock: CEKHIL_clean_sbu_0, # of connection points: 4
#     Node 21, Type 0, BuildingBlock: CEKHIL_clean_sbu_0, # of connection points: 4
#     Node 22, Type 0, BuildingBlock: CEKHIL_clean_sbu_0, # of connection points: 4
#     Node 23, Type 0, BuildingBlock: CEKHIL_clean_sbu_0, # of connection points: 4
#     Node 24, Type 1, BuildingBlock: PAMTOO_clean_sbu_0, # of connection points: 6
#     Node 25, Type 1, BuildingBlock: PAMTOO_clean_sbu_0, # of connection points: 6
#     Node 26, Type 1, BuildingBlock: PAMTOO_clean_sbu_0, # of connection points: 6
#     Node 27, Type 1, BuildingBlock: PAMTOO_clean_sbu_0, # of connection points: 6
#     Node 28, Type 1, BuildingBlock: PAMTOO_clean_sbu_0, # of connection points: 6
#     Node 29, Type 1, BuildingBlock: PAMTOO_clean_sbu_0, # of connection points: 6
#     Node 30, Type 1, BuildingBlock: PAMTOO_clean_sbu_0, # of connection points: 6
#     Node 31, Type 1, BuildingBlock: PAMTOO_clean_sbu_0, # of connection points: 6
#     Node 32, Type 1, BuildingBlock: PAMTOO_clean_sbu_0, # of connection points: 6
#     Node 33, Type 1, BuildingBlock: PAMTOO_clean_sbu_0, # of connection points: 6
#     Node 34, Type 1, BuildingBlock: PAMTOO_clean_sbu_0, # of connection points: 6
#     Node 35, Type 1, BuildingBlock: PAMTOO_clean_sbu_0, # of connection points: 6
#     Node 36, Type 1, BuildingBlock: PAMTOO_clean_sbu_0, # of connection points: 6
#     Node 37, Type 1, BuildingBlock: PAMTOO_clean_sbu_0, # of connection points: 6
#     Node 38, Type 1, BuildingBlock: PAMTOO_clean_sbu_0, # of connection points: 6
#     Node 39, Type 1, BuildingBlock: PAMTOO_clean_sbu_0, # of connection points: 6
#     Edge 40, Type (0, 1), BuildingBlock: KIFKEQ_clean_linker_1, # of connection points: 2
#     Edge 41, Type (0, 1), BuildingBlock: KIFKEQ_clean_linker_1, # of connection points: 2
#     Edge 42, Type (0, 1), BuildingBlock: KIFKEQ_clean_linker_1, # of connection points: 2
#     Edge 43, Type (0, 1), BuildingBlock: KIFKEQ_clean_linker_1, # of connection points: 2
#     Edge 44, Type (0, 1), BuildingBlock: KIFKEQ_clean_linker_1, # of connection points: 2
#     Edge 45, Type (0, 1), BuildingBlock: KIFKEQ_clean_linker_1, # of connection points: 2
#     Edge 46, Type (0, 1), BuildingBlock: KIFKEQ_clean_linker_1, # of connection points: 2
#     Edge 47, Type (0, 1), BuildingBlock: KIFKEQ_clean_linker_1, # of connection points: 2
#     Edge 48, Type (0, 1), BuildingBlock: KIFKEQ_clean_linker_1, # of connection points: 2
#     Edge 49, Type (0, 1), BuildingBlock: KIFKEQ_clean_linker_1, # of connection points: 2
#     Edge 50, Type (0, 1), BuildingBlock: KIFKEQ_clean_linker_1, # of connection points: 2
#     Edge 51, Type (0, 1), BuildingBlock: KIFKEQ_clean_linker_1, # of connection points: 2
#     Edge 52, Type (0, 1), BuildingBlock: KIFKEQ_clean_linker_1, # of connection points: 2
#     Edge 53, Type (0, 1), BuildingBlock: KIFKEQ_clean_linker_1, # of connection points: 2
#     Edge 54, Type (0, 1), BuildingBlock: KIFKEQ_clean_linker_1, # of connection points: 2
#     Edge 55, Type (0, 1), BuildingBlock: KIFKEQ_clean_linker_1, # of connection points: 2
#     Edge 56, Type (0, 1), BuildingBlock: KIFKEQ_clean_linker_1, # of connection points: 2
#     Edge 57, Type (0, 1), BuildingBlock: KIFKEQ_clean_linker_1, # of connection points: 2
#     Edge 58, Type (0, 1), BuildingBlock: KIFKEQ_clean_linker_1, # of connection points: 2
#     Edge 59, Type (0, 1), BuildingBlock: KIFKEQ_clean_linker_1, # of connection points: 2
#     Edge 60, Type (0, 1), BuildingBlock: KIFKEQ_clean_linker_1, # of connection points: 2
#     Edge 61, Type (0, 1), BuildingBlock: KIFKEQ_clean_linker_1, # of connection points: 2
#     Edge 62, Type (0, 1), BuildingBlock: KIFKEQ_clean_linker_1, # of connection points: 2
#     Edge 63, Type (0, 1), BuildingBlock: KIFKEQ_clean_linker_1, # of connection points: 2
#     Edge 64, Type (0, 1), BuildingBlock: KIFKEQ_clean_linker_1, # of connection points: 2
#     Edge 65, Type (0, 1), BuildingBlock: KIFKEQ_clean_linker_1, # of connection points: 2
#     Edge 66, Type (0, 1), BuildingBlock: KIFKEQ_clean_linker_1, # of connection points: 2
#     Edge 67, Type (0, 1), BuildingBlock: KIFKEQ_clean_linker_1, # of connection points: 2
#     Edge 68, Type (0, 1), BuildingBlock: KIFKEQ_clean_linker_1, # of connection points: 2
#     Edge 69, Type (0, 1), BuildingBlock: KIFKEQ_clean_linker_1, # of connection points: 2
#     Edge 70, Type (0, 1), BuildingBlock: KIFKEQ_clean_linker_1, # of connection points: 2
#     Edge 71, Type (0, 1), BuildingBlock: KIFKEQ_clean_linker_1, # of connection points: 2
#     Edge 72, Type (0, 1), BuildingBlock: KIFKEQ_clean_linker_1, # of connection points: 2
#     Edge 73, Type (0, 1), BuildingBlock: KIFKEQ_clean_linker_1, # of connection points: 2
#     Edge 74, Type (0, 1), BuildingBlock: KIFKEQ_clean_linker_1, # of connection points: 2
#     Edge 75, Type (0, 1), BuildingBlock: KIFKEQ_clean_linker_1, # of connection points: 2
#     Edge 76, Type (0, 1), BuildingBlock: KIFKEQ_clean_linker_1, # of connection points: 2
#     Edge 77, Type (0, 1), BuildingBlock: KIFKEQ_clean_linker_1, # of connection points: 2
#     Edge 78, Type (0, 1), BuildingBlock: KIFKEQ_clean_linker_1, # of connection points: 2
#     Edge 79, Type (0, 1), BuildingBlock: KIFKEQ_clean_linker_1, # of connection points: 2
#     Edge 80, Type (0, 1), BuildingBlock: KIFKEQ_clean_linker_1, # of connection points: 2
#     Edge 81, Type (0, 1), BuildingBlock: KIFKEQ_clean_linker_1, # of connection points: 2
#     Edge 82, Type (0, 1), BuildingBlock: KIFKEQ_clean_linker_1, # of connection points: 2
#     Edge 83, Type (0, 1), BuildingBlock: KIFKEQ_clean_linker_1, # of connection points: 2
#     Edge 84, Type (0, 1), BuildingBlock: KIFKEQ_clean_linker_1, # of connection points: 2
#     Edge 85, Type (0, 1), BuildingBlock: KIFKEQ_clean_linker_1, # of connection points: 2
#     Edge 86, Type (0, 1), BuildingBlock: KIFKEQ_clean_linker_1, # of connection points: 2
#     Edge 87, Type (0, 1), BuildingBlock: KIFKEQ_clean_linker_1, # of connection points: 2
#     Edge 88, Type (0, 1), BuildingBlock: KIFKEQ_clean_linker_1, # of connection points: 2
#     Edge 89, Type (0, 1), BuildingBlock: KIFKEQ_clean_linker_1, # of connection points: 2
#     Edge 90, Type (0, 1), BuildingBlock: KIFKEQ_clean_linker_1, # of connection points: 2
#     Edge 91, Type (0, 1), BuildingBlock: KIFKEQ_clean_linker_1, # of connection points: 2
#     Edge 92, Type (0, 1), BuildingBlock: KIFKEQ_clean_linker_1, # of connection points: 2
#     Edge 93, Type (0, 1), BuildingBlock: KIFKEQ_clean_linker_1, # of connection points: 2
#     Edge 94, Type (0, 1), BuildingBlock: KIFKEQ_clean_linker_1, # of connection points: 2
#     Edge 95, Type (0, 1), BuildingBlock: KIFKEQ_clean_linker_1, # of connection points: 2
#     Edge 96, Type (0, 1), BuildingBlock: KIFKEQ_clean_linker_1, # of connection points: 2
#     Edge 97, Type (0, 1), BuildingBlock: KIFKEQ_clean_linker_1, # of connection points: 2
#     Edge 98, Type (0, 1), BuildingBlock: KIFKEQ_clean_linker_1, # of connection points: 2
#     Edge 99, Type (0, 1), BuildingBlock: KIFKEQ_clean_linker_1, # of connection points: 2
#     Edge 100, Type (0, 1), BuildingBlock: KIFKEQ_clean_linker_1, # of connection points: 2
#     Edge 101, Type (0, 1), BuildingBlock: KIFKEQ_clean_linker_1, # of connection points: 2
#     Edge 102, Type (0, 1), BuildingBlock: KIFKEQ_clean_linker_1, # of connection points: 2
#     Edge 103, Type (0, 1), BuildingBlock: KIFKEQ_clean_linker_1, # of connection points: 2
#     Edge 104, Type (0, 1), BuildingBlock: KIFKEQ_clean_linker_1, # of connection points: 2
#     Edge 105, Type (0, 1), BuildingBlock: KIFKEQ_clean_linker_1, # of connection points: 2
#     Edge 106, Type (0, 1), BuildingBlock: KIFKEQ_clean_linker_1, # of connection points: 2
#     Edge 107, Type (0, 1), BuildingBlock: KIFKEQ_clean_linker_1, # of connection points: 2
#     Edge 108, Type (0, 1), BuildingBlock: KIFKEQ_clean_linker_1, # of connection points: 2
#     Edge 109, Type (0, 1), BuildingBlock: KIFKEQ_clean_linker_1, # of connection points: 2
#     Edge 110, Type (0, 1), BuildingBlock: KIFKEQ_clean_linker_1, # of connection points: 2
#     Edge 111, Type (0, 1), BuildingBlock: KIFKEQ_clean_linker_1, # of connection points: 2
#     Edge 112, Type (0, 1), BuildingBlock: KIFKEQ_clean_linker_1, # of connection points: 2
#     Edge 113, Type (0, 1), BuildingBlock: KIFKEQ_clean_linker_1, # of connection points: 2
#     Edge 114, Type (0, 1), BuildingBlock: KIFKEQ_clean_linker_1, # of connection points: 2
#     Edge 115, Type (0, 1), BuildingBlock: KIFKEQ_clean_linker_1, # of connection points: 2
#     Edge 116, Type (0, 1), BuildingBlock: KIFKEQ_clean_linker_1, # of connection points: 2
#     Edge 117, Type (0, 1), BuildingBlock: KIFKEQ_clean_linker_1, # of connection points: 2
#     Edge 118, Type (0, 1), BuildingBlock: KIFKEQ_clean_linker_1, # of connection points: 2
#     Edge 119, Type (0, 1), BuildingBlock: KIFKEQ_clean_linker_1, # of connection points: 2
#     Edge 120, Type (0, 1), BuildingBlock: KIFKEQ_clean_linker_1, # of connection points: 2
#     Edge 121, Type (0, 1), BuildingBlock: KIFKEQ_clean_linker_1, # of connection points: 2
#     Edge 122, Type (0, 1), BuildingBlock: KIFKEQ_clean_linker_1, # of connection points: 2
#     Edge 123, Type (0, 1), BuildingBlock: KIFKEQ_clean_linker_1, # of connection points: 2
#     Edge 124, Type (0, 1), BuildingBlock: KIFKEQ_clean_linker_1, # of connection points: 2
#     Edge 125, Type (0, 1), BuildingBlock: KIFKEQ_clean_linker_1, # of connection points: 2
#     Edge 126, Type (0, 1), BuildingBlock: KIFKEQ_clean_linker_1, # of connection points: 2
#     Edge 127, Type (0, 1), BuildingBlock: KIFKEQ_clean_linker_1, # of connection points: 2
#     Edge 128, Type (0, 1), BuildingBlock: KIFKEQ_clean_linker_1, # of connection points: 2
#     Edge 129, Type (0, 1), BuildingBlock: KIFKEQ_clean_linker_1, # of connection points: 2
#     Edge 130, Type (0, 1), BuildingBlock: KIFKEQ_clean_linker_1, # of connection points: 2
#     Edge 131, Type (0, 1), BuildingBlock: KIFKEQ_clean_linker_1, # of connection points: 2
#     Edge 132, Type (0, 1), BuildingBlock: KIFKEQ_clean_linker_1, # of connection points: 2
#     Edge 133, Type (0, 1), BuildingBlock: KIFKEQ_clean_linker_1, # of connection points: 2
#     Edge 134, Type (0, 1), BuildingBlock: KIFKEQ_clean_linker_1, # of connection points: 2
#     Edge 135, Type (0, 1), BuildingBlock: KIFKEQ_clean_linker_1, # of connection points: 2
# Relax obj value: 0.142
# Max RMSD: 0.267
# Mean RMSD: 0.156
data_MOF--net-gar--node1-CEKHIL_clean_sbu_0--node2-PAMTOO_clean_sbu_0--edge1-KIFKEQ_clean_linker_1
_symmetry_space_group_name_H-M    P1
_symmetry_Int_Tables_number       1
_symmetry_cell_setting            triclinic
loop_
_symmetry_equiv_pos_as_xyz
'x, y, z'
_cell_length_a     60.434084
_cell_length_b     59.729146
_cell_length_c     57.172304
_cell_angle_alpha  96.520794
_cell_angle_beta   96.065091
_cell_angle_gamma 104.69321
loop_
_atom_site_label
_atom_site_type_symbol
_atom_site_fract_x
_atom_site_fract_y
_atom_site_fract_z
_atom_type_partial_charge
Co0 Co 0.07352 0.341 0.3717 0.0
O1 O 0.10708 0.34445 0.37811 0.0
O2 O 0.08677 0.33018 0.3434 0.0
C3 C 0.07473 0.37741 0.3914 0.0
O4 O 0.03837 0.33553 0.35772 0.0
Co5 Co 0.04325 0.34396 0.41255 0.0
O6 O 1.01974 0.34695 0.38717 0.0
C7 C 0.05769 0.30071 0.40008 0.0
C8 C 0.10703 0.33572 0.35628 0.0
C9 C 0.02013 0.34018 0.36532 0.0
O10 O 0.06686 0.30848 0.38207 0.0
O11 O 0.0489 0.31273 0.41458 0.0
O12 O 0.0793 0.37516 0.36963 0.0
O13 O 0.07114 0.35837 0.40051 0.0
Co14 Co 0.02813 0.77167 0.70283 0.0
O15 O 0.99524 0.7707 0.6952 0.0
O16 O 1.00979 0.76481 0.72963 0.0
C17 C 0.04042 0.80579 0.68745 0.0
O18 O 0.0622 0.7731 0.71798 0.0
Co19 Co 0.06094 0.77275 0.66393 0.0
O20 O 0.08645 0.78098 0.69065 0.0
C21 C 0.02795 0.72789 0.66872 0.0
C22 C 0.99178 0.7674 0.71664 0.0
C23 C 0.08297 0.77804 0.71178 0.0
O24 O 0.02222 0.73692 0.68829 0.0
O25 O 0.04129 0.73984 0.65603 0.0
O26 O 0.03525 0.80627 0.70896 0.0
O27 O 0.03736 0.7852 0.67608 0.0
Co28 Co 0.57285 0.84166 0.87183 0.0
O29 O 0.60639 0.84494 0.87806 0.0
O30 O 0.58587 0.83062 0.84345 0.0
C31 C 0.57424 0.8782 0.89142 0.0
O32 O 0.53767 0.83619 0.85807 0.0
Co33 Co 0.54288 0.8449 0.91289 0.0
O34 O 0.51914 0.84763 0.8876 0.0
C35 C 0.55754 0.80176 0.90073 0.0
C36 C 0.60617 0.83604 0.85624 0.0
C37 C 0.51945 0.8408 0.86575 0.0
O38 O 0.56625 0.80925 0.8824 0.0
O39 O 0.54894 0.81389 0.91532 0.0
O40 O 0.57866 0.8758 0.8696 0.0
O41 O 0.57068 0.85921 0.90063 0.0
Co42 Co 0.52961 0.27416 0.20196 0.0
O43 O 0.49629 0.27174 0.19534 0.0
O44 O 0.51271 0.26831 0.22992 0.0
C45 C 0.54007 0.30771 0.18515 0.0
O46 O 0.56446 0.27715 0.21581 0.0
Co47 Co 0.55987 0.27449 0.16079 0.0
O48 O 0.58621 0.28572 0.18659 0.0
C49 C 0.52936 0.22953 0.16895 0.0
C50 C 0.49392 0.26954 0.21724 0.0
C51 C 0.58455 0.2832 0.20821 0.0
O52 O 0.52431 0.23913 0.18864 0.0
O53 O 0.54144 0.24111 0.15505 0.0
O54 O 0.53582 0.3087 0.20698 0.0
O55 O 0.53693 0.28691 0.17423 0.0
Co56 Co 0.08185 0.82493 0.13003 0.0
O57 O 0.0482 0.81898 0.12573 0.0
O58 O 0.06923 0.81509 0.15807 0.0
C59 C 0.08748 0.86111 0.11533 0.0
O60 O 0.11585 0.82999 0.145 0.0
Co61 Co 0.11228 0.8282 0.09442 0.0
O62 O 0.14012 0.83365 0.11833 0.0
C63 C 0.08738 0.7805 0.09955 0.0
C64 C 0.04897 0.8141 0.14735 0.0
C65 C 0.13649 0.83272 0.13969 0.0
O66 O 0.079 0.79021 0.11674 0.0
O67 O 0.10063 0.79305 0.08725 0.0
O68 O 0.08498 0.85879 0.13724 0.0
O69 O 0.08675 0.84153 0.10215 0.0
Co70 Co 0.52103 0.79167 0.45332 0.0
O71 O 0.55466 0.79932 0.45602 0.0
O72 O 0.53068 0.78132 0.42374 0.0
C73 C 0.51962 0.82856 0.47004 0.0
O74 O 0.48617 0.78252 0.44047 0.0
Co75 Co 0.49305 0.78942 0.49205 0.0
O76 O 0.46867 0.79548 0.46924 0.0
C77 C 0.51267 0.74961 0.48273 0.0
C78 C 0.55185 0.79031 0.43376 0.0
C79 C 0.46887 0.78912 0.44732 0.0
O80 O 0.52046 0.75958 0.46506 0.0
O81 O 0.50121 0.75917 0.49649 0.0
O82 O 0.52177 0.82366 0.44787 0.0
O83 O 0.51956 0.81147 0.4824 0.0
Co84 Co 0.58209 0.32435 0.62892 0.0
O85 O 0.54838 0.31824 0.62426 0.0
O86 O 0.56924 0.3144 0.65673 0.0
C87 C 0.58801 0.36077 0.61466 0.0
O88 O 0.61593 0.32953 0.64434 0.0
Co89 Co 0.613 0.32775 0.59386 0.0
O90 O 0.64061 0.33339 0.61809 0.0
C91 C 0.58796 0.28 0.59851 0.0
C92 C 0.54904 0.31345 0.64593 0.0
C93 C 0.63668 0.3324 0.63934 0.0
O94 O 0.57943 0.28969 0.61557 0.0
O95 O 0.60142 0.29259 0.58641 0.0
O96 O 0.5849 0.35804 0.63634 0.0
O97 O 0.58755 0.34136 0.60128 0.0
Co98 Co 0.02089 0.29157 0.95275 0.0
O99 O 0.05439 0.29827 0.95588 0.0
O100 O 0.03061 0.28024 0.92348 0.0
C101 C 0.0204 0.32907 0.96861 0.0
O102 O 0.9861 0.28343 0.94001 0.0
Co103 Co 0.99365 0.2912 0.99248 0.0
O104 O 0.96893 0.29625 0.96929 0.0
C105 C 1.01326 0.25124 0.98406 0.0
C106 C 0.05176 0.28891 0.93376 0.0
C107 C 0.96887 0.28985 0.94729 0.0
O108 O 1.01896 0.25947 0.96482 0.0
O109 O 1.00385 0.26236 0.9988 0.0
O110 O 0.02286 0.32354 0.94665 0.0
O111 O 1.01982 0.31221 0.98138 0.0
Co112 Co 0.41701 0.06768 0.32118 0.0
O113 O 0.41402 0.09525 0.30847 0.0
O114 O 0.38591 0.06247 0.30647 0.0
C115 C 0.43695 0.08582 0.35645 0.0
O116 O 0.41271 0.03621 0.33227 0.0
Co117 Co 0.4644 0.05817 0.33607 0.0
O118 O 0.4461 0.0288 0.3454 0.0
C119 C 0.44613 0.05481 0.28544 0.0
C120 C 0.39258 0.0836 0.30148 0.0
C121 C 0.42413 0.02308 0.34117 0.0
O122 O 0.42605 0.05531 0.29055 0.0
O123 O 0.46392 0.05842 0.30108 0.0
O124 O 0.41455 0.08163 0.35313 0.0
O125 O 0.44632 0.0806 0.33814 0.0
Co126 Co 0.29493 0.20394 0.52308 0.0
O127 O 0.32821 0.20927 0.52975 0.0
O128 O 0.30208 0.17741 0.53479 0.0
C129 C 0.29492 0.21622 0.48664 0.0
O130 O 0.26019 0.18974 0.51756 0.0
Co131 Co 0.26882 0.24055 0.51535 0.0
O132 O 0.24011 0.21458 0.50728 0.0
C133 C 0.28599 0.23608 0.56466 0.0
C134 C 0.32368 0.18827 0.53551 0.0
C135 C 0.24099 0.19427 0.51118 0.0
O136 O 0.29351 0.21867 0.55672 0.0
O137 O 0.27682 0.24773 0.55088 0.0
O138 O 0.29619 0.19525 0.48929 0.0
O139 O 0.2948 0.22961 0.50609 0.0
Co140 Co 0.14752 0.0582 0.80631 0.0
O141 O 0.14242 0.0245 0.79976 0.0
O142 O 0.17393 0.05094 0.79479 0.0
C143 C 0.13492 0.05842 0.84258 0.0
O144 O 0.16148 0.09334 0.81197 0.0
Co145 Co 0.1112 0.08451 0.81364 0.0
O146 O 0.13675 0.11367 0.82202 0.0
C147 C 0.11586 0.06648 0.76448 0.0
C148 C 0.16325 0.02907 0.7941 0.0
C149 C 0.15693 0.11275 0.81845 0.0
O150 O 0.13328 0.05936 0.77254 0.0
O151 O 0.10407 0.07562 0.77819 0.0
O152 O 0.15577 0.05736 0.84019 0.0
O153 O 0.12185 0.05824 0.82304 0.0
Co154 Co 0.28382 0.93762 1.00376 0.0
O155 O 0.25522 0.93972 0.01394 0.0
O156 O 0.28803 0.96829 0.0201 0.0
C157 C 0.26828 0.91956 0.96721 0.0
O158 O 0.31618 0.94283 0.996 0.0
Co159 Co 0.29507 0.8911 0.98708 0.0
O160 O 0.32525 0.91062 0.98094 0.0
C161 C 0.29202 0.90548 0.03753 0.0
C162 C 0.26638 0.9612 0.02262 0.0
C163 C 0.33047 0.93261 0.98762 0.0
O164 O 0.29291 0.92645 0.03392 0.0
O165 O 0.28995 0.88851 0.0209 0.0
O166 O 0.27294 0.94224 0.97176 0.0
O167 O 0.27231 0.90881 0.9848 0.0
Co168 Co 0.30528 0.40183 0.04573 0.0
O169 O 0.27201 0.39664 0.04119 0.0
O170 O 0.29736 0.4296 0.05826 0.0
C171 C 0.30795 0.38634 0.00818 0.0
O172 O 0.34015 0.41572 0.052 0.0
Co173 Co 0.33001 0.36292 0.04229 0.0
O174 O 0.35874 0.38836 0.04368 0.0
C175 C 0.30746 0.37086 0.08463 0.0
C176 C 0.27597 0.41838 0.05069 0.0
C177 C 0.35872 0.40959 0.04926 0.0
O178 O 0.30439 0.38993 0.07791 0.0
O179 O 0.31558 0.35673 0.07177 0.0
O180 O 0.30606 0.40751 0.01281 0.0
O181 O 0.30632 0.37448 0.02583 0.0
Co182 Co 0.80149 0.16112 0.06455 0.0
O183 O 0.83252 0.15994 0.06252 0.0
O184 O 0.8035 0.13021 0.06764 0.0
C185 C 0.79801 0.18028 0.03359 0.0
O186 O 0.76752 0.15503 0.06645 0.0
Co187 Co 0.78764 0.20788 0.07308 0.0
O188 O 0.75549 0.18753 0.06544 0.0
C189 C 0.8141 0.19187 0.11114 0.0
C190 C 0.82499 0.13797 0.06475 0.0
C191 C 0.75148 0.1655 0.0652 0.0
O192 O 0.80919 0.17108 0.09972 0.0
O193 O 0.80932 0.2092 0.1025 0.0
O194 O 0.79495 0.15774 0.02991 0.0
O195 O 0.80463 0.19032 0.05522 0.0
Co196 Co 0.18874 0.55238 0.27836 0.0
O197 O 0.19026 0.52081 0.27804 0.0
O198 O 0.21681 0.54959 0.26724 0.0
C199 C 0.17819 0.55714 0.31448 0.0
O200 O 0.194 0.58687 0.27745 0.0
Co201 Co 0.14321 0.56693 0.28247 0.0
O202 O 0.16334 0.59941 0.2861 0.0
C203 C 0.14953 0.53978 0.23855 0.0
C204 C 0.21021 0.52794 0.27079 0.0
C205 C 0.18418 0.60321 0.28198 0.0
O206 O 0.17141 0.54441 0.24521 0.0
O207 O 0.13533 0.54473 0.25205 0.0
O208 O 0.19986 0.55954 0.31246 0.0
O209 O 0.16386 0.54992 0.29515 0.0
Co210 Co 0.80432 0.90257 0.54663 0.0
O211 O 0.77108 0.89727 0.54193 0.0
O212 O 0.79627 0.93022 0.55933 0.0
C213 C 0.80701 0.88735 0.50892 0.0
O214 O 0.83919 0.91644 0.55326 0.0
Co215 Co 0.82906 0.86361 0.5424 0.0
O216 O 0.85725 0.88927 0.5425 0.0
C217 C 0.80753 0.87185 0.58561 0.0
C218 C 0.77494 0.91895 0.55156 0.0
C219 C 0.85757 0.91041 0.54931 0.0
O220 O 0.80338 0.89042 0.57866 0.0
O221 O 0.81608 0.8581 0.57275 0.0
O222 O 0.80523 0.90854 0.51374 0.0
O223 O 0.80535 0.87538 0.52647 0.0
Co224 Co 0.95317 0.04796 0.28605 0.0
O225 O 0.95824 0.08166 0.28968 0.0
O226 O 0.92564 0.05549 0.27358 0.0
C227 C 0.96918 0.04642 0.32345 0.0
O228 O 0.93944 1.01268 0.28054 0.0
Co229 Co 0.99123 0.02234 0.28967 0.0
O230 O 0.96592 0.9942 0.29141 0.0
C231 C 0.9828 0.04377 0.24656 0.0
C232 C 0.93673 0.07729 0.28026 0.0
C233 C 0.94506 0.9941 0.28502 0.0
O234 O 0.96439 0.04776 0.25366 0.0
O235 O 0.99661 0.03542 0.25929 0.0
O236 O 0.94822 0.04832 0.31933 0.0
O237 O 0.9804 0.04728 0.30537 0.0
Co238 Co 0.30085 0.65943 0.55691 0.0
O239 O 0.33186 0.66065 0.55209 0.0
O240 O 0.3071 0.63081 0.56351 0.0
C241 C 0.2908 0.67304 0.52386 0.0
O242 O 0.26759 0.65147 0.56264 0.0
Co243 Co 0.28488 0.70513 0.56321 0.0
O244 O 0.25406 0.68324 0.56305 0.0
C245 C 0.31846 0.69616 0.59881 0.0
C246 C 0.32745 0.63971 0.5579 0.0
C247 C 0.25117 0.66142 0.56366 0.0
O248 O 0.31169 0.67422 0.5908 0.0
O249 O 0.31265 0.71171 0.58781 0.0
O250 O 0.29055 0.6511 0.52264 0.0
O251 O 0.29938 0.68601 0.54393 0.0
Co252 Co 0.45249 0.54846 0.78514 0.0
O253 O 0.45723 0.58211 0.7886 0.0
O254 O 0.42486 0.55572 0.77235 0.0
C255 C 0.46823 0.54727 0.82283 0.0
O256 O 0.4391 0.51315 0.77979 0.0
Co257 Co 0.49085 0.52332 0.78954 0.0
O258 O 0.46571 0.49517 0.79159 0.0
C259 C 0.48216 0.54362 0.74564 0.0
C260 C 0.43573 0.57757 0.77911 0.0
C261 C 0.44486 0.49478 0.78479 0.0
O262 O 0.46397 0.54816 0.75279 0.0
O263 O 0.49585 0.53529 0.75855 0.0
O264 O 0.44722 0.54891 0.81836 0.0
O265 O 0.47967 0.54817 0.80491 0.0
Co266 Co 0.68808 0.04988 0.77365 0.0
O267 O 0.68861 0.01829 0.77516 0.0
O268 O 0.71718 0.04616 0.76606 0.0
C269 C 0.6738 0.05517 0.80775 0.0
O270 O 0.69428 0.08429 0.77143 0.0
Co271 Co 0.64227 0.06501 0.772 0.0
O272 O 0.66338 0.09711 0.77849 0.0
C273 C 0.6522 0.03641 0.73098 0.0
C274 C 0.7095 0.02473 0.76999 0.0
C275 C 0.68452 0.10081 0.7754 0.0
O276 O 0.67372 0.04137 0.73943 0.0
O277 O 0.6368 0.04175 0.74254 0.0
O278 O 0.69584 0.05746 0.80835 0.0
O279 O 0.66148 0.04809 0.78724 0.0
Co280 Co 0.79652 0.70375 0.0235 0.0
O281 O 0.82975 0.70884 0.03045 0.0
O282 O 0.80334 0.67684 0.03463 0.0
C283 C 0.79707 0.71696 0.98753 0.0
O284 O 0.76178 0.68971 0.01752 0.0
Co285 Co 0.77084 0.74079 0.0166 0.0
O286 O 0.7421 0.71489 0.00731 0.0
C287 C 0.78894 0.73621 0.06551 0.0
C288 C 0.825 0.68765 0.03574 0.0
C289 C 0.74273 0.69441 0.01087 0.0
O290 O 0.79487 0.71785 0.05728 0.0
O291 O 0.78069 0.74865 0.05194 0.0
O292 O 0.79808 0.6958 0.98966 0.0
O293 O 0.79683 0.72993 0.0072 0.0
Co294 Co 0.9188 0.56355 0.81995 0.0
O295 O 0.91703 0.5904 0.80513 0.0
O296 O 0.88738 0.56023 0.80763 0.0
C297 C 0.94224 0.58303 0.85301 0.0
O298 O 0.91294 0.53336 0.8339 0.0
Co299 Co 0.96441 0.54984 0.83286 0.0
O300 O 0.94541 0.52455 0.84755 0.0
C301 C 0.93974 0.53794 0.78353 0.0
C302 C 0.89496 0.58029 0.80048 0.0
C303 C 0.9235 0.52026 0.84418 0.0
O304 O 0.92352 0.54689 0.78918 0.0
O305 O 0.95755 0.53826 0.79794 0.0
O306 O 0.92016 0.58101 0.85126 0.0
O307 O 0.94949 0.57496 0.83426 0.0
Co308 Co 0.78426 0.43217 0.5029 0.0
O309 O 0.75592 0.43121 0.51546 0.0
O310 O 0.78739 0.46134 0.52207 0.0
C311 C 0.76787 0.41649 0.46584 0.0
O312 O 0.81603 0.44063 0.49331 0.0
Co313 Co 0.79787 0.38883 0.48035 0.0
O314 O 0.82583 0.41118 0.47304 0.0
C315 C 0.80071 0.39972 0.53268 0.0
C316 C 0.76624 0.45252 0.5255 0.0
C317 C 0.83026 0.43257 0.48212 0.0
O318 O 0.79614 0.41935 0.53093 0.0
O319 O 0.80034 0.38464 0.51473 0.0
O320 O 0.77119 0.43877 0.47257 0.0
O321 O 0.77349 0.40452 0.48175 0.0
Co322 Co 0.64581 0.55843 0.30654 0.0
O323 O 0.63935 0.52468 0.29896 0.0
O324 O 0.67154 0.55044 0.29434 0.0
C325 C 0.63332 0.55824 0.3428 0.0
O326 O 0.66103 0.59339 0.31309 0.0
Co327 Co 0.61067 0.58612 0.31461 0.0
O328 O 0.637 0.61464 0.32299 0.0
C329 C 0.61377 0.56706 0.26544 0.0
C330 C 0.66005 0.52873 0.29298 0.0
C331 C 0.65706 0.6131 0.3196 0.0
O332 O 0.63181 0.56082 0.27321 0.0
O333 O 0.6019 0.5758 0.27938 0.0
O334 O 0.6538 0.55614 0.34005 0.0
O335 O 0.62048 0.55922 0.32351 0.0
Dy336 Dy 0.07689 0.07039 0.05731 0.0
Dy337 Dy 0.02743 0.03876 0.02882 0.0
C338 C 0.07195 0.05028 1.00106 0.0
O339 O 0.06093 0.09799 0.04454 0.0
O340 O 0.02606 0.07591 0.02413 0.0
O341 O 0.10628 0.10025 0.06004 0.0
O342 O 0.10379 0.07782 0.08732 0.0
O343 O 0.02025 0.04685 0.06615 0.0
O344 O 0.05348 0.07401 0.08409 0.0
O345 O 0.04567 1.01116 0.03756 0.0
O346 O 0.07535 0.03351 0.06557 0.0
O347 O 0.99632 1.0113 0.02892 0.0
O348 O 1.00106 0.02883 0.99813 0.0
C349 C 0.04122 0.09643 0.03135 0.0
O350 O 0.08562 0.05889 0.02129 0.0
O351 O 0.04952 0.04236 1.00003 0.0
C352 C 0.14022 0.09187 0.07603 0.0
C353 C 0.17795 0.07444 0.0685 0.0
C354 C 0.16695 0.08307 0.05009 0.0
C355 C 0.1481 0.09162 0.05377 0.0
C356 C 0.15284 0.08573 0.09512 0.0
C357 C 0.17163 0.07695 0.09136 0.0
C358 C 0.11711 0.09453 0.07841 0.0
C359 C 0.03241 0.06149 0.08464 0.0
C360 C 0.06268 1.01274 0.05473 0.0
C361 C 0.96566 0.02341 0.01195 0.0
C362 C 0.9273 0.04013 0.01813 0.0
C363 C 0.94948 0.05421 0.02714 0.0
C364 C 0.96849 0.04584 0.02424 0.0
C365 C 0.94348 1.00904 1.00314 0.0
C366 C 0.92419 0.01738 1.00639 0.0
C367 C 0.98636 0.01568 0.00931 0.0
H368 H 0.17188 0.08163 0.03241 0.0
H369 H 0.13883 0.09642 0.03871 0.0
H370 H 0.14706 0.08592 0.11243 0.0
H371 H 0.17986 0.07032 0.10581 0.0
H372 H 0.95208 0.07169 0.03657 0.0
H373 H 0.98544 0.05691 0.03169 0.0
H374 H 0.94113 0.99157 0.99388 0.0
H375 H 0.90702 1.00635 0.99953 0.0
Dy376 Dy 0.31619 0.80933 0.27548 0.0
Dy377 Dy 0.28735 0.81827 0.31817 0.0
C378 C 0.32378 0.8597 0.30519 0.0
O379 O 0.33301 0.79512 0.30526 0.0
O380 O 0.32209 0.81638 0.33571 0.0
O381 O 0.34891 0.8165 0.26207 0.0
O382 O 0.31836 0.79381 0.24013 0.0
O383 O 0.28514 0.78035 0.31296 0.0
O384 O 0.28862 0.77621 0.2736 0.0
O385 O 0.26269 0.81483 0.28471 0.0
O386 O 0.28945 0.82614 0.26 0.0
O387 O 0.25567 0.8095 0.33345 0.0
O388 O 0.28541 0.83605 0.35265 0.0
C389 C 0.33555 0.80377 0.32791 0.0
O390 O 0.33373 0.84416 0.29656 0.0
O391 O 0.30229 0.85358 0.309 0.0
C392 C 0.34253 0.82157 0.22254 0.0
C393 C 0.34055 0.84744 0.18496 0.0
C394 C 0.33339 0.85441 0.20654 0.0
C395 C 0.33449 0.84163 0.22521 0.0
C396 C 0.35089 0.81519 0.20164 0.0
C397 C 0.35011 0.82822 0.18296 0.0
C398 C 0.33953 0.80633 0.2407 0.0
C399 C 0.28153 0.7674 0.29224 0.0
C400 C 0.26795 0.82192 0.26452 0.0
C401 C 0.26635 0.80708 0.37296 0.0
C402 C 0.26711 0.77634 0.40639 0.0
C403 C 0.28039 0.77618 0.38773 0.0
C404 C 0.28022 0.79157 0.37146 0.0
C405 C 0.25292 0.80746 0.39141 0.0
C406 C 0.25339 0.79219 0.40822 0.0
C407 C 0.26563 0.82146 0.35407 0.0
H408 H 0.32559 0.86883 0.2086 0.0
H409 H 0.32794 0.84671 0.24134 0.0
H410 H 0.35714 0.79971 0.19945 0.0
H411 H 0.35612 0.82271 0.16665 0.0
H412 H 0.29067 0.76386 0.38534 0.0
H413 H 0.29072 0.79103 0.35737 0.0
H414 H 0.24207 0.81934 0.39271 0.0
H415 H 0.24312 0.79281 0.42257 0.0
Dy416 Dy 0.52385 0.04867 0.54915 0.0
Dy417 Dy 0.57428 0.05575 0.52997 0.0
C418 C 0.53082 0.06009 0.49744 0.0
O419 O 0.52607 1.01122 0.54103 0.0
O420 O 0.55532 0.01754 0.51761 0.0
O421 O 0.48667 0.03518 0.54334 0.0
O422 O 0.50365 0.05789 0.57589 0.0
O423 O 0.57513 0.0363 0.56039 0.0
O424 O 0.54875 0.04847 0.58073 0.0
O425 O 0.57584 0.09107 0.55094 0.0
O426 O 0.53702 0.08748 0.54815 0.0
O427 O 0.61127 0.06884 0.5381 0.0
O428 O 0.59573 0.04987 0.50312 0.0
C429 C 0.53869 1.00317 0.52625 0.0
O430 O 0.51856 0.04598 0.50997 0.0
O431 O 0.553 0.06946 0.50389 0.0
C432 C 0.46825 0.0633 0.55897 0.0
C433 C 0.43886 0.09297 0.55341 0.0
C434 C 0.44186 0.07817 0.53374 0.0
C435 C 0.45644 0.06354 0.53646 0.0
C436 C 0.46521 0.07807 0.5786 0.0
C437 C 0.45075 0.0928 0.57585 0.0
C438 C 0.48409 0.04822 0.5622 0.0
C439 C 0.56622 0.03933 0.57987 0.0
C440 C 0.5585 0.10064 0.5529 0.0
C441 C 0.62978 0.04242 0.52075 0.0
C442 C 0.65972 1.01356 0.52765 0.0
C443 C 0.63972 1.01066 0.53882 0.0
C444 C 0.62487 0.02486 0.53531 0.0
C445 C 0.64946 0.04522 0.50932 0.0
C446 C 0.66427 0.03089 0.51266 0.0
C447 C 0.61474 0.05817 0.51814 0.0
H448 H 0.43312 0.07806 0.51616 0.0
H449 H 0.45848 0.05252 0.52088 0.0
H450 H 0.47405 0.07824 0.59615 0.0
H451 H 0.44857 0.10376 0.59141 0.0
H452 H 0.63576 0.99777 0.55072 0.0
H453 H 0.60971 0.02236 0.54428 0.0
H454 H 0.65347 0.0586 0.49794 0.0
H455 H 0.67925 0.03337 0.50341 0.0
Dy456 Dy 0.32357 0.29247 0.79201 0.0
Dy457 Dy 0.27512 0.30974 0.78808 0.0
C458 C 0.32321 0.34268 0.78071 0.0
O459 O 0.32357 0.31236 0.8282 0.0
O460 O 0.28457 0.30804 0.8263 0.0
O461 O 0.36055 0.30222 0.8024 0.0
O462 O 0.34344 0.26804 0.78255 0.0
O463 O 0.26495 0.27202 0.79197 0.0
O464 O 0.29914 0.26476 0.80704 0.0
O465 O 0.28217 0.30262 0.75037 0.0
O466 O 0.3029 0.27604 0.75667 0.0
O467 O 0.239 0.30399 0.77459 0.0
O468 O 0.25681 0.33488 0.79967 0.0
C469 C 0.30536 0.31407 0.83841 0.0
O470 O 0.32845 0.32346 0.77306 0.0
O471 O 0.30471 0.34182 0.79107 0.0
C472 C 0.38078 0.28693 0.77345 0.0
C473 C 0.41535 0.29284 0.74278 0.0
C474 C 0.41253 0.31211 0.75765 0.0
C475 C 0.3955 0.30922 0.77274 0.0
C476 C 0.38341 0.2677 0.75843 0.0
C477 C 0.40039 0.27062 0.74324 0.0
C478 C 0.36319 0.28349 0.79014 0.0
C479 C 0.27643 0.2591 0.80248 0.0
C480 C 0.2911 0.28579 0.74222 0.0
C481 C 0.21807 0.31704 0.80392 0.0
C482 C 0.18292 0.30933 0.8337 0.0
C483 C 0.19428 0.29199 0.8278 0.0
C484 C 0.21171 0.29584 0.81316 0.0
C485 C 0.20683 0.33434 0.80976 0.0
C486 C 0.18947 0.33056 0.82445 0.0
C487 C 0.23687 0.32172 0.78895 0.0
H488 H 0.42349 0.32953 0.75759 0.0
H489 H 0.39401 0.3245 0.78396 0.0
H490 H 0.37248 0.25029 0.75862 0.0
H491 H 0.40218 0.25534 0.73228 0.0
H492 H 0.18997 0.27557 0.83481 0.0
H493 H 0.22029 0.28229 0.80917 0.0
H494 H 0.21152 0.35086 0.80296 0.0
H495 H 0.18099 0.34421 0.82832 0.0
Dy496 Dy 0.06259 0.02658 0.53685 0.0
Dy497 Dy 0.04469 0.07457 0.54054 0.0
C498 C 1.01046 0.02615 0.5456 0.0
O499 O 0.05562 0.03247 0.49879 0.0
O500 O 0.02904 0.05326 0.50521 0.0
O501 O 0.05744 0.98967 0.52468 0.0
O502 O 0.08792 1.00911 0.54892 0.0
O503 O 0.07468 0.07995 0.52044 0.0
O504 O 0.09384 0.05669 0.53804 0.0
O505 O 0.06383 0.07488 0.5768 0.0
O506 O 0.05836 0.03541 0.57471 0.0
O507 O 0.05383 0.11199 0.55107 0.0
O508 O 0.02022 0.09425 0.53122 0.0
C509 C 0.03851 0.04086 0.49086 0.0
O510 O 0.02438 0.01586 0.53518 0.0
O511 O 1.01655 0.04874 0.55363 0.0
C512 C 0.07117 0.97031 0.55469 0.0
C513 C 0.06462 0.9359 0.58546 0.0
C514 C 0.05785 0.95659 0.59067 0.0
C515 C 0.06097 0.97355 0.57536 0.0
C516 C 0.07785 0.94972 0.54938 0.0
C517 C 0.07457 0.93266 0.56455 0.0
C518 C 0.07532 0.98846 0.53891 0.0
C519 C 0.09391 0.07468 0.52683 0.0
C520 C 0.06439 0.05636 0.58711 0.0
C521 C 0.03896 0.13138 0.52148 0.0
C522 C 0.04516 0.16389 0.48854 0.0
C523 C 0.0635 0.15511 0.49711 0.0
C524 C 0.06042 0.13897 0.51329 0.0
C525 C 0.02065 0.14006 0.51292 0.0
C526 C 0.02368 0.15608 0.49663 0.0
C527 C 0.03536 0.11433 0.53867 0.0
H528 H 0.04986 0.95955 0.6064 0.0
H529 H 0.05544 0.98922 0.57967 0.0
H530 H 0.08577 0.94689 0.53356 0.0
H531 H 0.08021 0.91708 0.56008 0.0
H532 H 0.08019 0.16049 0.49108 0.0
H533 H 0.07486 0.13244 0.51934 0.0
H534 H 1.00396 0.13449 0.51889 0.0
H535 H 1.00924 0.16265 0.49068 0.0
Dy536 Dy 0.3043 0.82844 0.77925 0.0
Dy537 Dy 0.29616 0.77754 0.79926 0.0
C538 C 0.29165 0.82168 0.83006 0.0
O539 O 0.34072 0.82492 0.78625 0.0
O540 O 0.33383 0.79747 0.81187 0.0
O541 O 0.31716 0.86608 0.7876 0.0
O542 O 0.29729 0.85039 0.75336 0.0
O543 O 0.31491 0.7764 0.76866 0.0
O544 O 0.30419 0.80296 0.7474 0.0
O545 O 0.26102 0.77631 0.77913 0.0
O546 O 0.26591 0.81573 0.77956 0.0
O547 O 0.28337 0.74006 0.79099 0.0
O548 O 0.30223 0.7559 0.82588 0.0
C549 C 0.34837 0.81307 0.80206 0.0
O550 O 0.30773 0.83231 0.81852 0.0
O551 O 0.28166 0.79936 0.8241 0.0
C552 C 0.28991 0.88504 0.77182 0.0
C553 C 0.25983 0.91409 0.77813 0.0
C554 C 0.27769 0.91465 0.79629 0.0
C555 C 0.29255 0.90033 0.79318 0.0
C556 C 0.27201 0.88443 0.75372 0.0
C557 C 0.25715 0.89873 0.75684 0.0
C558 C 0.30548 0.86957 0.76848 0.0
C559 C 0.31139 0.78414 0.74863 0.0
C560 C 0.25236 0.79422 0.77604 0.0
C561 C 0.30996 0.72164 0.80754 0.0
C562 C 0.33866 0.69163 0.79889 0.0
C563 C 0.34205 0.71281 0.78942 0.0
C564 C 0.32802 0.72773 0.79392 0.0
C565 C 0.30657 0.70073 0.81719 0.0
C566 C 0.32085 0.68594 0.81307 0.0
C567 C 0.29417 0.73663 0.81073 0.0
H568 H 0.2801 0.92607 0.81302 0.0
H569 H 0.30608 0.90124 0.80756 0.0
H570 H 0.26951 0.87295 0.73702 0.0
H571 H 0.24383 0.89808 0.74234 0.0
H572 H 0.35528 0.71776 0.77817 0.0
H573 H 0.33112 0.74393 0.78649 0.0
H574 H 0.2928 0.69576 0.82784 0.0
H575 H 0.31795 0.6701 0.82114 0.0
Dy576 Dy 0.53756 0.06697 0.00921 0.0
Dy577 Dy 0.5426 0.03501 0.05055 0.0
C578 C 0.54962 0.01804 0.9965 0.0
O579 O 0.50548 0.03807 1.00331 0.0
O580 O 0.50534 0.03355 0.0422 0.0
O581 O 0.5264 0.07199 0.97354 0.0
O582 O 0.54165 0.10191 1.00071 0.0
O583 O 0.54341 0.07003 0.07025 0.0
O584 O 0.52341 0.08232 0.04044 0.0
O585 O 0.57905 0.04896 0.04469 0.0
O586 O 0.57406 0.07962 0.02571 0.0
O587 O 0.55581 0.02899 0.08516 0.0
O588 O 0.53084 1.00106 0.06128 0.0
C589 C 0.49472 0.02984 0.02039 0.0
O590 O 0.55323 0.03972 0.99187 0.0
O591 O 0.54222 1.01234 0.01641 0.0
C592 C 0.55259 0.10362 0.9626 0.0
C593 C 0.58516 0.10634 0.93113 0.0
C594 C 0.59258 0.11163 0.95563 0.0
C595 C 0.57633 0.11024 0.97134 0.0
C596 C 0.54543 0.10107 0.93815 0.0
C597 C 0.56167 0.10247 0.92245 0.0
C598 C 0.53562 0.09454 0.97802 0.0
C599 C 0.53178 0.08439 0.06305 0.0
C600 C 0.58731 0.06854 0.03642 0.0
C601 C 0.52536 1.00585 0.10079 0.0
C602 C 0.49482 1.00184 0.13463 0.0
C603 C 0.49651 0.01948 0.1201 0.0
C604 C 0.51159 0.02141 0.10329 0.0
C605 C 0.5233 0.98774 0.11458 0.0
C606 C 0.50807 0.98572 0.13146 0.0
C607 C 0.54105 1.00844 0.08301 0.0
H608 H 0.61063 0.11455 0.96263 0.0
H609 H 0.58224 0.11244 0.99021 0.0
H610 H 0.52722 0.09596 0.93112 0.0
H611 H 0.55571 0.09849 0.90351 0.0
H612 H 0.48697 0.03249 0.1224 0.0
H613 H 0.51285 0.03536 0.09251 0.0
H614 H 0.5336 0.97539 0.11247 0.0
H615 H 0.50699 0.97188 0.14235 0.0
Dy616 Dy 0.28502 0.27517 0.27255 0.0
Dy617 Dy 0.31493 0.32494 0.30153 0.0
C618 C 0.30459 0.27992 0.32899 0.0
O619 O 0.25703 0.28793 0.28856 0.0
O620 O 0.27738 0.3258 0.30313 0.0
O621 O 0.263 0.24012 0.27042 0.0
O622 O 0.27404 0.25315 0.23859 0.0
O623 O 0.31084 0.32973 0.26312 0.0
O624 O 0.27775 0.3011 0.24962 0.0
O625 O 0.34293 0.30687 0.29472 0.0
O626 O 0.3219 0.27868 0.26446 0.0
O627 O 0.34252 0.35633 0.30274 0.0
O628 O 0.32123 0.35298 0.33085 0.0
C629 C 0.25772 0.30898 0.29901 0.0
O630 O 0.29522 0.26637 0.30871 0.0
O631 O 0.31301 0.3026 0.33024 0.0
C632 C 0.27286 0.21425 0.24236 0.0
C633 C 0.291 0.17545 0.23958 0.0
C634 C 0.30519 0.1978 0.23842 0.0
C635 C 0.2962 0.21703 0.23986 0.0
C636 C 0.25836 0.19188 0.24236 0.0
C637 C 0.26737 0.17253 0.24093 0.0
C638 C 0.2645 0.23485 0.24801 0.0
C639 C 0.29314 0.32002 0.24669 0.0
C640 C 0.34209 0.29071 0.27661 0.0
C641 C 0.32822 0.38759 0.31482 0.0
C642 C 0.31049 0.42475 0.3049 0.0
C643 C 0.29996 0.40227 0.29274 0.0
C644 C 0.3088 0.38382 0.29762 0.0
C645 C 0.33919 0.41017 0.32667 0.0
C646 C 0.33031 0.42885 0.32165 0.0
C647 C 0.33571 0.36727 0.32043 0.0
H648 H 0.32356 0.20071 0.2379 0.0
H649 H 0.30778 0.23421 0.24014 0.0
H650 H 0.24035 0.18953 0.24449 0.0
H651 H 0.25609 0.15545 0.24177 0.0
H652 H 0.28455 0.39892 0.27987 0.0
H653 H 0.30014 0.36646 0.28833 0.0
H654 H 0.35418 0.41322 0.34 0.0
H655 H 0.33839 0.44623 0.33124 0.0
Dy656 Dy 0.56228 0.52845 0.03595 0.0
Dy657 Dy 0.54462 0.5768 0.04214 0.0
C658 C 0.51175 0.52711 0.04799 0.0
O659 O 0.5421 0.52865 1.00047 0.0
O660 O 0.5477 0.56825 1.00389 0.0
O661 O 0.55439 0.49111 0.02489 0.0
O662 O 0.58829 0.51014 0.0432 0.0
O663 O 0.58287 0.58707 0.04434 0.0
O664 O 0.58897 0.55534 0.02214 0.0
O665 O 0.54995 0.56914 0.07959 0.0
O666 O 0.57483 0.54626 0.07336 0.0
O667 O 0.55072 0.61367 0.05491 0.0
O668 O 0.51964 0.59513 0.03097 0.0
C669 C 0.54091 0.54749 0.99104 0.0
O670 O 0.5303 0.52002 0.05281 0.0
O671 O 0.51276 0.54729 0.04051 0.0
C672 C 0.57199 0.4725 0.05281 0.0
C673 C 0.56752 0.43908 0.08476 0.0
C674 C 0.5635 0.46105 0.0912 0.0
C675 C 0.56567 0.47755 0.07538 0.0
C676 C 0.57597 0.45069 0.04628 0.0
C677 C 0.57375 0.43416 0.06203 0.0
C678 C 0.5739 0.4896 0.03584 0.0
C679 C 0.59551 0.5777 0.03102 0.0
C680 C 0.56518 0.5585 0.08774 0.0
C681 C 0.53709 0.63382 0.02514 0.0
C682 C 0.54353 0.66792 0.99386 0.0
C683 C 0.56214 0.65973 1.00293 0.0
C684 C 0.55894 0.6428 0.01831 0.0
C685 C 0.51851 0.64178 0.01599 0.0
C686 C 0.52164 0.65852 1.00051 0.0
C687 C 0.53297 0.61549 0.04086 0.0
H688 H 0.55894 0.46565 0.10857 0.0
H689 H 0.56239 0.49427 0.08075 0.0
H690 H 0.58065 0.44637 0.02889 0.0
H691 H 0.57658 0.41735 0.05618 0.0
H692 H 0.57928 0.66662 0.99845 0.0
H693 H 0.57357 0.63676 0.02483 0.0
H694 H 0.50144 0.63488 0.02068 0.0
H695 H 0.50672 0.66386 0.99355 0.0
Dy696 Dy 0.80698 0.33467 0.2785 0.0
Dy697 Dy 0.79602 0.27907 0.29933 0.0
C698 C 0.79105 0.32281 0.32722 0.0
O699 O 0.84255 0.3294 0.28809 0.0
O700 O 0.83472 0.29708 0.30868 0.0
O701 O 0.81571 0.37085 0.29456 0.0
O702 O 0.80477 0.36151 0.25666 0.0
O703 O 0.80631 0.28922 0.26662 0.0
O704 O 0.81536 0.31711 0.24508 0.0
O705 O 0.76016 0.28058 0.28428 0.0
O706 O 0.7682 0.31766 0.27244 0.0
O707 O 0.78546 0.24246 0.28482 0.0
O708 O 0.80122 0.25356 0.32182 0.0
C709 C 0.84941 0.31463 0.30113 0.0
O710 O 0.80909 0.33118 0.31695 0.0
O711 O 0.78253 0.30021 0.32521 0.0
C712 C 0.79218 0.39166 0.27638 0.0
C713 C 0.75919 0.41759 0.27748 0.0
C714 C 0.75482 0.39564 0.28542 0.0
C715 C 0.77119 0.38277 0.28486 0.0
C716 C 0.79671 0.41357 0.26869 0.0
C717 C 0.7804 0.42646 0.26928 0.0
C718 C 0.80913 0.37792 0.27491 0.0
C719 C 0.81249 0.29519 0.24693 0.0
C720 C 0.75346 0.29776 0.27526 0.0
C721 C 0.81035 0.2214 0.30064 0.0
C722 C 0.8399 0.19194 0.2942 0.0
C723 C 0.84202 0.21169 0.2824 0.0
C724 C 0.82748 0.22636 0.2857 0.0
C725 C 0.80832 0.20193 0.31256 0.0
C726 C 0.82297 0.18741 0.30948 0.0
C727 C 0.79454 0.23633 0.30406 0.0
H728 H 0.7386 0.3882 0.29165 0.0
H729 H 0.7674 0.3658 0.29086 0.0
H730 H 0.81284 0.42069 0.26215 0.0
H731 H 0.78451 0.44349 0.26345 0.0
H732 H 0.85467 0.21564 0.27033 0.0
H733 H 0.82956 0.2415 0.27655 0.0
H734 H 0.79538 0.19794 0.32432 0.0
H735 H 0.8211 0.17271 0.31928 0.0
Dy736 Dy 0.03855 0.5666 0.50805 0.0
Dy737 Dy 0.04103 0.53405 0.5492 0.0
C738 C 0.04896 0.51675 0.49608 0.0
O739 O 1.00515 0.53951 0.50134 0.0
O740 O 1.00391 0.53275 0.53972 0.0
O741 O 0.03091 0.57188 0.47167 0.0
O742 O 0.04492 0.60162 0.49924 0.0
O743 O 0.04118 0.56909 0.56842 0.0
O744 O 0.02296 0.58226 0.5379 0.0
O745 O 0.07766 0.5467 0.54312 0.0
O746 O 0.07331 0.57971 0.52884 0.0
O747 O 0.05429 0.52846 0.58394 0.0
O748 O 0.02874 0.50052 0.56062 0.0
C749 C 0.99378 0.53072 0.51785 0.0
O750 O 0.05435 0.53872 0.49226 0.0
O751 O 0.03985 0.51098 0.51514 0.0
C752 C 0.06068 0.60225 0.464 0.0
C753 C 0.09797 0.61441 0.43839 0.0
C754 C 0.09797 0.59878 0.455 0.0
C755 C 0.07952 0.59282 0.46769 0.0
C756 C 0.06094 0.61871 0.44842 0.0
C757 C 0.07956 0.62484 0.43569 0.0
C758 C 0.04097 0.59426 0.47648 0.0
C759 C 0.03013 0.58377 0.56077 0.0
C760 C 0.08643 0.56745 0.53751 0.0
C761 C 0.02443 0.50539 0.60051 0.0
C762 C 0.99387 0.49985 0.63429 0.0
C763 C 0.99629 0.51876 0.62136 0.0
C764 C 1.01139 0.52145 0.60453 0.0
C765 C 0.02194 0.48634 0.61306 0.0
C766 C 1.00673 0.48358 0.62991 0.0
C767 C 0.03948 0.50799 0.58215 0.0
H768 H 0.11149 0.58996 0.45724 0.0
H769 H 0.0796 0.58015 0.47982 0.0
H770 H 0.04657 0.62633 0.44569 0.0
H771 H 0.07919 0.63709 0.42316 0.0
H772 H 0.98695 0.53181 0.62466 0.0
H773 H 1.01297 0.53612 0.59468 0.0
H774 H 0.03168 0.47365 0.60979 0.0
H775 H 1.00505 0.46877 0.63955 0.0
Dy776 Dy 0.82507 0.79257 0.29388 0.0
Dy777 Dy 0.77567 0.80848 0.28852 0.0
C778 C 0.82345 0.842 0.28085 0.0
O779 O 0.8244 0.81297 0.32955 0.0
O780 O 0.78534 0.80881 0.32719 0.0
O781 O 0.86218 0.80389 0.30352 0.0
O782 O 0.84561 0.76826 0.28708 0.0
O783 O 0.76624 0.7711 0.29363 0.0
O784 O 0.80076 0.76465 0.30886 0.0
O785 O 0.78273 0.8004 0.25093 0.0
O786 O 0.80603 0.77613 0.25789 0.0
O787 O 0.73911 0.80082 0.2754 0.0
O788 O 0.75664 0.83351 0.29788 0.0
C789 C 0.8061 0.81502 0.33941 0.0
O790 O 0.82934 0.82294 0.27404 0.0
O791 O 0.8047 0.84097 0.29082 0.0
C792 C 0.88241 0.78622 0.27701 0.0
C793 C 0.91636 0.79054 0.24578 0.0
C794 C 0.89516 0.79559 0.23932 0.0
C795 C 0.87837 0.79346 0.25477 0.0
C796 C 0.90345 0.78122 0.28355 0.0
C797 C 0.92021 0.78336 0.26817 0.0
C798 C 0.86516 0.78424 0.29376 0.0
C799 C 0.77804 0.7586 0.30433 0.0
C800 C 0.79325 0.78473 0.24319 0.0
C801 C 0.71825 0.81546 0.30366 0.0
C802 C 0.68258 0.80896 0.33298 0.0
C803 C 0.70567 0.81118 0.34249 0.0
C804 C 0.72321 0.8142 0.32798 0.0
C805 C 0.69532 0.81301 0.29401 0.0
C806 C 0.6777 0.8097 0.30842 0.0
C807 C 0.73675 0.81934 0.28826 0.0
H808 H 0.89138 0.80092 0.2222 0.0
H809 H 0.86223 0.79745 0.24936 0.0
H810 H 0.90699 0.77579 0.30068 0.0
H811 H 0.93639 0.77972 0.27407 0.0
H812 H 0.71037 0.81102 0.36125 0.0
H813 H 0.74071 0.81572 0.33583 0.0
H814 H 0.69102 0.81366 0.27526 0.0
H815 H 0.66019 0.80751 0.30014 0.0
Dy816 Dy 0.81515 0.30968 0.77676 0.0
Dy817 Dy 0.78514 0.31666 0.81904 0.0
C818 C 0.82112 0.35931 0.8074 0.0
O819 O 0.83244 0.29605 0.80661 0.0
O820 O 0.82027 0.31615 0.83704 0.0
O821 O 0.84806 0.31671 0.76376 0.0
O822 O 0.81728 0.29555 0.7409 0.0
O823 O 0.78471 0.27925 0.81428 0.0
O824 O 0.78913 0.2755 0.77513 0.0
O825 O 0.76107 0.31308 0.7851 0.0
O826 O 0.78828 0.32634 0.7615 0.0
O827 O 0.75338 0.30505 0.83364 0.0
O828 O 0.78079 0.33431 0.85263 0.0
C829 C 0.83449 0.3044 0.82929 0.0
O830 O 0.83167 0.34447 0.79841 0.0
O831 O 0.79955 0.35248 0.81082 0.0
C832 C 0.84324 0.32265 0.72414 0.0
C833 C 0.84426 0.34974 0.68725 0.0
C834 C 0.84075 0.35871 0.7099 0.0
C835 C 0.84012 0.3452 0.72821 0.0
C836 C 0.84782 0.31404 0.70194 0.0
C837 C 0.84837 0.32753 0.68355 0.0
C838 C 0.83881 0.30728 0.74213 0.0
C839 C 0.78203 0.26635 0.79363 0.0
C840 C 0.7666 0.3212 0.76544 0.0
C841 C 0.76329 0.30531 0.87398 0.0
C842 C 0.76626 0.27793 0.91015 0.0
C843 C 0.78318 0.28158 0.89501 0.0
C844 C 0.7816 0.295 0.87702 0.0
C845 C 0.7461 0.30153 0.88882 0.0
C846 C 0.74754 0.28775 0.90689 0.0
C847 C 0.76189 0.31829 0.85397 0.0
H848 H 0.8377 0.37583 0.71324 0.0
H849 H 0.83628 0.35197 0.74528 0.0
H850 H 0.84993 0.29654 0.69854 0.0
H851 H 0.85073 0.32005 0.66613 0.0
H852 H 0.79753 0.27381 0.89693 0.0
H853 H 0.79461 0.29709 0.86527 0.0
H854 H 0.73162 0.30902 0.88634 0.0
H855 H 0.7343 0.28501 0.91845 0.0
Dy856 Dy 0.78438 0.77405 0.77411 0.0
Dy857 Dy 0.8136 0.82459 0.80178 0.0
C858 C 0.8042 0.7803 0.82964 0.0
O859 O 0.75585 0.79111 0.78212 0.0
O860 O 0.77693 0.8222 0.80966 0.0
O861 O 0.75912 0.74095 0.77291 0.0
O862 O 0.7764 0.74854 0.74242 0.0
O863 O 0.79862 0.83328 0.76736 0.0
O864 O 0.78784 0.79667 0.74562 0.0
O865 O 0.83999 0.81174 0.78259 0.0
O866 O 0.82202 0.77258 0.77561 0.0
O867 O 0.83808 0.85803 0.8023 0.0
O868 O 0.82427 0.84891 0.83439 0.0
C869 C 0.75676 0.80867 0.79883 0.0
O870 O 0.78778 0.76925 0.81232 0.0
O871 O 0.81913 0.79986 0.82725 0.0
C872 C 0.77188 0.71153 0.75292 0.0
C873 C 0.791 0.67368 0.75145 0.0
C874 C 0.80134 0.6939 0.76774 0.0
C875 C 0.7918 0.71271 0.76853 0.0
C876 C 0.76122 0.69115 0.73687 0.0
C877 C 0.77074 0.6721 0.73622 0.0
C878 C 0.76377 0.73245 0.75259 0.0
C879 C 0.79199 0.81942 0.74691 0.0
C880 C 0.84058 0.79009 0.77583 0.0
C881 C 0.82755 0.88704 0.82569 0.0
C882 C 0.80919 0.92484 0.8191 0.0
C883 C 0.79572 0.90472 0.82641 0.0
C884 C 0.8048 0.88598 0.82963 0.0
C885 C 0.84147 0.90758 0.81965 0.0
C886 C 0.83233 0.92641 0.81637 0.0
C887 C 0.83526 0.86566 0.82373 0.0
H888 H 0.81698 0.69521 0.77963 0.0
H889 H 0.80022 0.72838 0.781 0.0
H890 H 0.74593 0.69017 0.72465 0.0
H891 H 0.76269 0.65644 0.7236 0.0
H892 H 0.7777 0.90281 0.82823 0.0
H893 H 0.79354 0.87019 0.83389 0.0
H894 H 0.85897 0.90856 0.81626 0.0
H895 H 0.84307 0.94183 0.81088 0.0
Dy896 Dy 0.57832 0.56955 0.55665 0.0
Dy897 Dy 0.52932 0.5387 0.52871 0.0
C898 C 0.57304 0.55022 0.50138 0.0
O899 O 0.56129 0.59796 0.54816 0.0
O900 O 0.52991 0.57581 0.52192 0.0
O901 O 0.60969 0.59732 0.55926 0.0
O902 O 0.60407 0.57644 0.58763 0.0
O903 O 0.51949 0.55181 0.5635 0.0
O904 O 0.55557 0.56702 0.58492 0.0
O905 O 0.54223 0.51271 0.54841 0.0
O906 O 0.58072 0.53155 0.55455 0.0
O907 O 0.49671 0.51282 0.52671 0.0
O908 O 0.50663 0.52762 0.49534 0.0
C909 C 0.54339 0.59648 0.53209 0.0
O910 O 0.58257 0.56775 0.51829 0.0
O911 O 0.55528 0.53353 0.5046 0.0
C912 C 0.64093 0.58524 0.57664 0.0
C913 C 0.67494 0.56147 0.57246 0.0
C914 C 0.66431 0.56789 0.55223 0.0
C915 C 0.64731 0.57956 0.55426 0.0
C916 C 0.65311 0.58082 0.5971 0.0
C917 C 0.67007 0.56894 0.59503 0.0
C918 C 0.61906 0.59125 0.57825 0.0
C919 C 0.53304 0.56049 0.58376 0.0
C920 C 0.56374 0.51254 0.55484 0.0
C921 C 0.46854 0.52381 0.50329 0.0
C922 C 0.43357 0.54475 0.51352 0.0
C923 C 0.43155 0.52149 0.51702 0.0
C924 C 0.44902 0.51106 0.51194 0.0
C925 C 0.46936 0.5463 0.4977 0.0
C926 C 0.45197 0.55666 0.50276 0.0
C927 C 0.48972 0.51607 0.50533 0.0
H928 H 0.66817 0.56265 0.53468 0.0
H929 H 0.63818 0.58267 0.53812 0.0
H930 H 0.6483 0.58496 0.61448 0.0
H931 H 0.67809 0.56413 0.61086 0.0
H932 H 0.41742 0.51204 0.52531 0.0
H933 H 0.44819 0.49378 0.51654 0.0
H934 H 0.4842 0.55664 0.49108 0.0
H935 H 0.45358 0.5745 0.49955 0.0
Dy936 Dy 0.02521 0.5491 0.05072 0.0
Dy937 Dy 0.07547 0.55643 0.03152 0.0
C938 C 0.03259 0.56254 0.99936 0.0
O939 O 0.02879 0.51203 0.04336 0.0
O940 O 0.05494 0.51919 0.0169 0.0
O941 O 0.98812 0.53468 0.0449 0.0
O942 O 1.00471 0.55766 0.07743 0.0
O943 O 0.07649 0.53747 0.06244 0.0
O944 O 0.05044 0.55046 0.08246 0.0
O945 O 0.07685 0.59212 0.0516 0.0
O946 O 0.03799 0.58804 0.05057 0.0
O947 O 0.11252 0.569 0.03967 0.0
O948 O 0.09686 0.5501 1.00474 0.0
C949 C 0.03992 0.5043 0.02681 0.0
O950 O 1.01989 0.54853 0.01171 0.0
O951 O 0.05491 0.57102 1.00567 0.0
C952 C 0.96907 0.56231 0.06038 0.0
C953 C 0.93956 0.59181 0.05457 0.0
C954 C 0.943 0.57731 0.0349 0.0
C955 C 0.95766 0.56278 0.03774 0.0
C956 C 0.96553 0.57672 0.08003 0.0
C957 C 0.95101 0.59137 0.07716 0.0
C958 C 0.98525 0.5476 0.06371 0.0
C959 C 0.06805 0.54149 0.08205 0.0
C960 C 0.05942 0.60139 0.0544 0.0
C961 C 0.13091 0.54247 0.02218 0.0
C962 C 0.16077 0.51342 0.02859 0.0
C963 C 0.14132 0.5111 0.0406 0.0
C964 C 0.1265 0.52538 0.03731 0.0
C965 C 0.15002 0.54467 0.00991 0.0
C966 C 0.16478 0.53025 0.01301 0.0
C967 C 0.11591 0.55829 0.0197 0.0
H968 H 0.9346 0.57743 0.01723 0.0
H969 H 0.96012 0.55206 0.02215 0.0
H970 H 0.97409 0.57672 0.09766 0.0
H971 H 0.94848 0.60209 0.09271 0.0
H972 H 0.13778 0.4986 0.05296 0.0
H973 H 0.11173 0.52329 0.04682 0.0
H974 H 0.15362 0.55765 0.99805 0.0
H975 H 0.1793 0.53226 1.00311 0.0
H976 H 1.01718 0.2365 0.02786 0.0
H977 H 1.01929 0.21316 0.9542 0.0
H978 H 0.02358 0.2 0.0385 0.0
H979 H 0.02519 0.17603 0.96488 0.0
H980 H 1.01148 0.10208 0.99307 0.0
H981 H 1.00534 0.13849 0.98083 0.0
H982 H 0.05379 0.17835 0.04105 0.0
H983 H 0.06034 0.14219 0.05286 0.0
C984 C 1.01896 0.2236 0.01378 0.0
C985 C 1.01768 0.22827 0.99003 0.0
C986 C 0.02276 0.20247 0.01999 0.0
C987 C 0.02497 0.18461 1.00271 0.0
C988 C 0.02347 0.18907 0.97885 0.0
C989 C 0.0202 0.21057 0.97268 0.0
C990 C 0.02082 0.11858 1.00379 0.0
C991 C 0.0364 0.11879 0.02415 0.0
C992 C 1.01741 0.13963 0.99662 0.0
C993 C 0.02899 0.16179 0.00982 0.0
C994 C 0.04432 0.1619 0.03033 0.0
C995 C 0.04815 0.14096 0.03715 0.0
H996 H 0.18065 0.8309 0.13373 0.0
H997 H 0.13727 0.83481 0.18846 0.0
H998 H 0.21173 0.82859 0.16319 0.0
H999 H 0.16875 0.83362 0.2183 0.0
H1000 H 0.22098 0.8087 0.265 0.0
H1001 H 0.19017 0.8118 0.23566 0.0
H1002 H 0.24095 0.84542 0.19383 0.0
H1003 H 0.27173 0.84123 0.22284 0.0
C1004 C 0.17779 0.83164 0.15215 0.0
C1005 C 0.15621 0.8331 0.15848 0.0
C1006 C 0.19585 0.83044 0.16928 0.0
C1007 C 0.19323 0.83086 0.19358 0.0
C1008 C 0.17169 0.83273 0.19992 0.0
C1009 C 0.15351 0.83368 0.18271 0.0
C1010 C 0.22565 0.81681 0.24957 0.0
C1011 C 0.24907 0.82472 0.24652 0.0
C1012 C 0.20781 0.81879 0.23263 0.0
C1013 C 0.21259 0.82899 0.21197 0.0
C1014 C 0.23613 0.83707 0.20906 0.0
C1015 C 0.25399 0.83485 0.22592 0.0
H1016 H 0.54084 0.85388 0.51405 0.0
H1017 H 0.50077 0.8598 0.44924 0.0
H1018 H 0.54524 0.89555 0.52837 0.0
H1019 H 0.50423 0.90097 0.464 0.0
H1020 H 0.4977 0.96773 0.51761 0.0
H1021 H 0.4921 0.92556 0.50506 0.0
H1022 H 0.56569 0.93694 0.50815 0.0
H1023 H 0.57123 0.97912 0.51954 0.0
C1024 C 0.53256 0.86387 0.50304 0.0
C1025 C 0.52033 0.85323 0.48045 0.0
C1026 C 0.53521 0.88785 0.5112 0.0
C1027 C 0.52507 0.90179 0.4974 0.0
C1028 C 0.51221 0.89091 0.4752 0.0
C1029 C 0.51022 0.86722 0.46673 0.0
C1030 C 0.5127 0.96128 0.51564 0.0
C1031 C 0.53493 0.97708 0.51955 0.0
C1032 C 0.50948 0.93704 0.50838 0.0
C1033 C 0.52843 0.92765 0.50563 0.0
C1034 C 0.55067 0.94338 0.51014 0.0
C1035 C 0.55383 0.96766 0.5166 0.0
H1036 H 0.54783 0.30653 0.69206 0.0
H1037 H 0.50359 0.31007 0.62892 0.0
H1038 H 0.51524 0.30136 0.7143 0.0
H1039 H 0.47067 0.30495 0.65144 0.0
H1040 H 0.41376 0.27218 0.69675 0.0
H1041 H 0.4452 0.27639 0.67245 0.0
H1042 H 0.49101 0.32486 0.72973 0.0
H1043 H 0.45991 0.32028 0.7541 0.0
C1044 C 0.53109 0.3061 0.68283 0.0
C1045 C 0.5284 0.30877 0.65864 0.0
C1046 C 0.51238 0.30331 0.6957 0.0
C1047 C 0.49031 0.30298 0.68479 0.0
C1048 C 0.4874 0.30503 0.6604 0.0
C1049 C 0.50627 0.30802 0.6475 0.0
C1050 C 0.43058 0.28365 0.7042 0.0
C1051 C 0.43424 0.29584 0.72747 0.0
C1052 C 0.44855 0.28624 0.69016 0.0
C1053 C 0.47071 0.30088 0.69912 0.0
C1054 C 0.47427 0.31321 0.7223 0.0
C1055 C 0.45632 0.31077 0.73623 0.0
H1056 H 0.0355 0.85003 0.7001 0.0
H1057 H 0.05975 0.80863 0.6468 0.0
H1058 H 0.04135 0.88217 0.6763 0.0
H1059 H 0.06636 0.84065 0.6236 0.0
H1060 H 0.04937 0.88838 0.57314 0.0
H1061 H 0.04464 0.85846 0.59903 0.0
H1062 H 0.06768 0.91199 0.66052 0.0
H1063 H 0.07201 0.94205 0.63442 0.0
C1064 C 0.04253 0.84798 0.68358 0.0
C1065 C 0.04704 0.82673 0.67531 0.0
C1066 C 0.04589 0.8664 0.66988 0.0
C1067 C 0.05396 0.86397 0.6477 0.0
C1068 C 0.05947 0.84304 0.64016 0.0
C1069 C 0.05592 0.82469 0.65366 0.0
C1070 C 0.05359 0.89381 0.59217 0.0
C1071 C 0.06126 0.91767 0.60162 0.0
C1072 C 0.05094 0.8766 0.6071 0.0
C1073 C 0.05606 0.88266 0.632 0.0
C1074 C 0.06337 0.90657 0.64151 0.0
C1075 C 0.06589 0.92385 0.62651 0.0
H1076 H 0.49471 0.87254 0.86099 0.0
H1077 H 0.49175 0.80075 0.83697 0.0
H1078 H 0.45435 0.86572 0.84412 0.0
H1079 H 0.45094 0.79367 0.82005 0.0
H1080 H 0.37144 0.78425 0.82269 0.0
H1081 H 0.413 0.79062 0.83413 0.0
H1082 H 0.4258 0.85729 0.80854 0.0
H1083 H 0.38423 0.85081 0.7969 0.0
C1084 C 0.48563 0.85541 0.85137 0.0
C1085 C 0.49691 0.83742 0.84986 0.0
C1086 C 0.46227 0.85142 0.84175 0.0
C1087 C 0.44894 0.82906 0.83065 0.0
C1088 C 0.46038 0.81111 0.82856 0.0
C1089 C 0.484 0.81525 0.83789 0.0
C1090 C 0.38306 0.80031 0.81947 0.0
C1091 C 0.37414 0.81705 0.80893 0.0
C1092 C 0.40709 0.80388 0.82587 0.0
C1093 C 0.42318 0.82453 0.82239 0.0
C1094 C 0.41421 0.84124 0.81178 0.0
C1095 C 0.39021 0.83747 0.80498 0.0
H1096 H 0.49292 0.20364 0.13675 0.0
H1097 H 0.5534 0.19874 0.18059 0.0
H1098 H 0.49106 0.16659 0.11257 0.0
H1099 H 0.55234 0.1622 0.15608 0.0
H1100 H 0.54203 0.09113 0.11195 0.0
H1101 H 0.5375 0.12267 0.14053 0.0
H1102 H 0.50985 0.153 0.08287 0.0
H1103 H 0.51368 0.12106 0.05452 0.0
C1104 C 0.50522 0.19406 0.1419 0.0
C1105 C 0.52276 0.20378 0.16124 0.0
C1106 C 0.50459 0.17304 0.12759 0.0
C1107 C 0.5218 0.16123 0.13183 0.0
C1108 C 0.53855 0.17031 0.15213 0.0
C1109 C 0.53903 0.19126 0.16652 0.0
C1110 C 0.53483 0.10445 0.10535 0.0
C1111 C 0.52824 0.10337 0.08075 0.0
C1112 C 0.53233 0.12274 0.12184 0.0
C1113 C 0.52326 0.14074 0.11435 0.0
C1114 C 0.51647 0.13944 0.0897 0.0
C1115 C 0.51883 0.12108 0.07325 0.0
H1116 H 0.15204 0.3502 0.37904 0.0
H1117 H 0.11245 0.31315 0.31257 0.0
H1118 H 0.18735 0.34437 0.36522 0.0
H1119 H 0.14787 0.30733 0.29856 0.0
H1120 H 0.2127 0.28076 0.28841 0.0
H1121 H 0.17731 0.28729 0.30137 0.0
H1122 H 0.21627 0.35437 0.3401 0.0
H1123 H 0.25173 0.34772 0.32714 0.0
C1124 C 0.15076 0.34083 0.36137 0.0
C1125 C 0.12897 0.33222 0.34708 0.0
C1126 C 0.17128 0.33757 0.35328 0.0
C1127 C 0.17107 0.32531 0.33054 0.0
C1128 C 0.1492 0.31664 0.31625 0.0
C1129 C 0.12866 0.32012 0.32428 0.0
C1130 C 0.21386 0.29701 0.29963 0.0
C1131 C 0.23554 0.31365 0.30654 0.0
C1132 C 0.19328 0.30086 0.30705 0.0
C1133 C 0.19333 0.32144 0.32202 0.0
C1134 C 0.21507 0.33811 0.3289 0.0
C1135 C 0.23563 0.33436 0.32125 0.0
H1136 H 0.955 0.05159 0.20827 0.0
H1137 H 0.02413 0.047 0.23037 0.0
H1138 H 0.96535 0.05814 0.16867 0.0
H1139 H 0.03424 0.05338 0.19132 0.0
H1140 H 0.05393 0.08662 0.12771 0.0
H1141 H 0.04057 0.08449 0.16625 0.0
H1142 H 0.9761 0.03614 0.13292 0.0
H1143 H 0.98939 0.03835 0.09405 0.0
C1144 C 0.97238 0.0521 0.20479 0.0
C1145 C 0.98868 0.04873 0.22261 0.0
C1146 C 0.97827 0.05572 0.18207 0.0
C1147 C 1.00068 0.05643 0.17683 0.0
C1148 C 1.01694 0.05332 0.19476 0.0
C1149 C 1.01103 0.04947 0.21721 0.0
C1150 C 0.03676 0.07575 0.12841 0.0
C1151 C 0.02285 0.0625 0.10764 0.0
C1152 C 0.02914 0.07443 0.15062 0.0
C1153 C 1.00737 0.0599 0.15277 0.0
C1154 C 0.99293 0.04756 0.13192 0.0
C1155 C 1.00061 0.04877 0.10962 0.0
H1156 H 0.29273 0.66285 0.47662 0.0
H1157 H 0.26735 0.70587 0.52751 0.0
H1158 H 0.28321 0.68563 0.44565 0.0
H1159 H 0.25751 0.72798 0.49681 0.0
H1160 H 0.2311 0.75207 0.42686 0.0
H1161 H 0.23214 0.72258 0.45315 0.0
H1162 H 0.30483 0.73247 0.44927 0.0
H1163 H 0.30437 0.76276 0.42444 0.0
C1164 C 0.28445 0.6766 0.48095 0.0
C1165 C 0.28095 0.68285 0.50435 0.0
C1166 C 0.27909 0.68957 0.46339 0.0
C1167 C 0.26968 0.70838 0.4691 0.0
C1168 C 0.26455 0.71337 0.49207 0.0
C1169 C 0.27035 0.70082 0.50962 0.0
C1170 C 0.24735 0.74818 0.43189 0.0
C1171 C 0.2676 0.75957 0.42338 0.0
C1172 C 0.24782 0.73112 0.44655 0.0
C1173 C 0.2684 0.72499 0.45244 0.0
C1174 C 0.28863 0.73649 0.44423 0.0
C1175 C 0.28832 0.75383 0.43009 0.0
H1176 H 0.6707 0.05405 0.69376 0.0
H1177 H 0.61542 1.00043 0.71234 0.0
H1178 H 0.64895 0.04999 0.65409 0.0
H1179 H 0.59389 0.99629 0.67265 0.0
H1180 H 0.58939 1.00617 0.58153 0.0
H1181 H 0.61316 0.99958 0.61611 0.0
H1182 H 0.59234 0.05183 0.66039 0.0
H1183 H 0.56846 0.0586 0.62586 0.0
C1184 C 0.65458 0.04048 0.68885 0.0
C1185 C 0.64462 0.02748 0.70583 0.0
C1186 C 0.64212 0.03834 0.66637 0.0
C1187 C 0.61991 0.02295 0.66081 0.0
C1188 C 0.61108 1.00815 0.67682 0.0
C1189 C 0.62341 1.01042 0.69931 0.0
C1190 C 0.58968 0.01605 0.59873 0.0
C1191 C 0.57725 0.03297 0.60118 0.0
C1192 C 0.60325 1.01226 0.61832 0.0
C1193 C 0.6045 0.02539 0.64045 0.0
C1194 C 0.59143 0.04163 0.64321 0.0
C1195 C 0.57773 0.04534 0.62364 0.0
H1196 H 0.30216 0.40426 0.96692 0.0
H1197 H 0.3193 0.34544 0.99439 0.0
H1198 H 0.30355 0.38677 0.92659 0.0
H1199 H 0.32105 0.32804 0.95375 0.0
H1200 H 0.34164 0.31974 0.87467 0.0
H1201 H 0.34431 0.33719 0.91645 0.0
H1202 H 0.27711 0.34902 0.90112 0.0
H1203 H 0.27419 0.33152 0.86012 0.0
C1204 C 0.30647 0.3877 0.9644 0.0
C1205 C 0.31045 0.37618 0.9839 0.0
C1206 C 0.30722 0.37766 0.94125 0.0
C1207 C 0.31234 0.35599 0.93696 0.0
C1208 C 0.31718 0.34481 0.95651 0.0
C1209 C 0.31604 0.35471 0.97974 0.0
C1210 C 0.32744 0.32599 0.8803 0.0
C1211 C 0.30769 0.32411 0.86396 0.0
C1212 C 0.32894 0.3359 0.9042 0.0
C1213 C 0.31096 0.3446 0.91202 0.0
C1214 C 0.29134 0.34269 0.89565 0.0
C1215 C 0.28965 0.33248 0.87209 0.0
H1216 H 1.00819 0.03219 0.33509 0.0
H1217 H 0.95361 0.05423 0.36582 0.0
H1218 H 0.02496 0.0275 0.37443 0.0
H1219 H 0.97084 0.05095 0.40513 0.0
H1220 H 0.99351 0.02761 0.47208 0.0
H1221 H 0.97684 0.02622 0.43122 0.0
H1222 H 0.04551 0.04587 0.41131 0.0
H1223 H 0.06198 0.04566 0.4523 0.0
C1224 C 0.99985 0.03616 0.3503 0.0
C1225 C 0.97949 0.04346 0.3473 0.0
C1226 C 1.00955 0.03363 0.37296 0.0
C1227 C 0.99932 0.03866 0.39328 0.0
C1228 C 0.97903 0.0462 0.39008 0.0
C1229 C 0.96916 0.04832 0.36745 0.0
C1230 C 1.005 0.03116 0.45881 0.0
C1231 C 0.02901 0.03666 0.46531 0.0
C1232 C 0.99547 0.03072 0.43535 0.0
C1233 C 1.0097 0.03649 0.41773 0.0
C1234 C 0.03384 0.04114 0.42414 0.0
C1235 C 0.04337 0.04103 0.44766 0.0
H1236 H 0.30361 0.67611 0.63614 0.0
H1237 H 0.35334 0.73446 0.61702 0.0
H1238 H 0.30595 0.69782 0.67516 0.0
H1239 H 0.3567 0.75606 0.65669 0.0
H1240 H 0.31967 0.79801 0.70531 0.0
H1241 H 0.32867 0.77443 0.67154 0.0
H1242 H 0.32494 0.71727 0.71248 0.0
H1243 H 0.31454 0.73981 0.745 0.0
C1244 C 0.31614 0.69304 0.64087 0.0
C1245 C 0.32809 0.70385 0.62372 0.0
C1246 C 0.31739 0.70563 0.66319 0.0
C1247 C 0.33102 0.72896 0.66866 0.0
C1248 C 0.34551 0.7384 0.65259 0.0
C1249 C 0.34394 0.72593 0.63013 0.0
C1250 C 0.32071 0.78039 0.70688 0.0
C1251 C 0.31658 0.77084 0.72776 0.0
C1252 C 0.32624 0.76702 0.68781 0.0
C1253 C 0.32776 0.74406 0.68952 0.0
C1254 C 0.32384 0.7348 0.71055 0.0
C1255 C 0.31805 0.7479 0.72929 0.0
H1256 H 0.69471 0.07592 0.85307 0.0
H1257 H 0.62881 0.0527 0.80762 0.0
H1258 H 0.67532 0.08922 0.88568 0.0
H1259 H 0.61015 0.0665 0.83918 0.0
H1260 H 0.57739 0.06504 0.90367 0.0
H1261 H 0.60176 0.05261 0.87671 0.0
H1262 H 0.65249 0.1196 0.89607 0.0
H1263 H 0.62799 0.13189 0.92406 0.0
C1264 C 0.67624 0.0737 0.85007 0.0
C1265 C 0.66325 0.06315 0.82793 0.0
C1266 C 0.66525 0.08144 0.86855 0.0
C1267 C 0.64127 0.07858 0.86492 0.0
C1268 C 0.62858 0.06846 0.84263 0.0
C1269 C 0.63937 0.06067 0.82447 0.0
C1270 C 0.59369 0.07717 0.90208 0.0
C1271 C 0.6006 0.09966 0.91518 0.0
C1272 C 0.60769 0.07002 0.88682 0.0
C1273 C 0.62874 0.08535 0.88404 0.0
C1274 C 0.63628 0.10753 0.89797 0.0
C1275 C 0.62227 0.11463 0.91366 0.0
H1276 H 0.30347 0.39963 0.12471 0.0
H1277 H 0.29951 0.32778 0.09861 0.0
H1278 H 0.29762 0.38877 0.16427 0.0
H1279 H 0.29378 0.31712 0.13765 0.0
H1280 H 0.26514 0.29944 0.20477 0.0
H1281 H 0.26596 0.31295 0.16607 0.0
H1282 H 0.31926 0.37531 0.19734 0.0
H1283 H 0.31836 0.36188 0.23615 0.0
C1284 C 0.30111 0.38153 0.12729 0.0
C1285 C 0.30204 0.36464 0.10839 0.0
C1286 C 0.29791 0.37533 0.15 0.0
C1287 C 0.29517 0.35202 0.15422 0.0
C1288 C 0.29551 0.33514 0.13511 0.0
C1289 C 0.29898 0.34135 0.11266 0.0
C1290 C 0.27682 0.31619 0.20352 0.0
C1291 C 0.29179 0.32946 0.22364 0.0
C1292 C 0.2774 0.32389 0.18124 0.0
C1293 C 0.29283 0.34516 0.17845 0.0
C1294 C 0.30707 0.35893 0.19879 0.0
C1295 C 0.30664 0.35113 0.22105 0.0
H1296 H 0.22131 0.95167 0.02928 0.0
H1297 H 0.28502 1.00711 0.04036 0.0
H1298 H 0.20078 0.97973 0.043 0.0
H1299 H 0.26432 0.03519 0.05367 0.0
H1300 H 0.21911 0.07429 0.09333 0.0
H1301 H 0.24139 0.04588 0.08546 0.0
H1302 H 0.19193 1.01206 0.02335 0.0
H1303 H 0.16952 0.03971 0.0315 0.0
C1304 C 0.23094 0.96978 0.0349 0.0
C1305 C 0.25464 0.97735 0.03355 0.0
C1306 C 0.21921 0.98579 0.04264 0.0
C1307 C 0.23104 1.00953 0.04907 0.0
C1308 C 0.25494 0.0169 0.0489 0.0
C1309 C 0.26669 1.00088 0.04118 0.0
C1310 C 0.21319 0.0608 0.07799 0.0
C1311 C 0.19286 0.05927 0.06287 0.0
C1312 C 0.22585 0.04467 0.0735 0.0
C1313 C 0.21811 0.02677 0.05401 0.0
C1314 C 0.19799 0.02551 0.03873 0.0
C1315 C 0.18543 0.04158 0.04315 0.0
H1316 H 0.73743 0.64876 0.0178 0.0
H1317 H 0.69832 0.69757 1.00072 0.0
H1318 H 0.70172 0.61949 0.02018 0.0
H1319 H 0.66262 0.66808 1.00266 0.0
H1320 H 0.61053 0.62491 0.0433 0.0
H1321 H 0.64535 0.65146 0.03527 0.0
H1322 H 0.66483 0.59355 0.99874 0.0
H1323 H 0.62957 0.56646 0.0071 0.0
C1324 C 0.72121 0.65317 0.01418 0.0
C1325 C 0.72082 0.6757 0.00931 0.0
C1326 C 0.70071 0.63628 0.01541 0.0
C1327 C 0.67932 0.6415 0.01186 0.0
C1328 C 0.67885 0.66363 1.00591 0.0
C1329 C 0.69933 0.68051 1.00466 0.0
C1330 C 0.62212 0.61764 0.03354 0.0
C1331 C 0.6172 0.59342 0.02591 0.0
C1332 C 0.64207 0.63302 0.02872 0.0
C1333 C 0.6578 0.62472 0.01614 0.0
C1334 C 0.65306 0.60048 0.00854 0.0
C1335 C 0.63286 0.58498 0.01328 0.0
H1336 H 0.69938 0.53262 0.27314 0.0
H1337 H 0.64647 0.48273 0.29983 0.0
H1338 H 0.72105 0.50378 0.26786 0.0
H1339 H 0.6682 0.45346 0.29418 0.0
H1340 H 0.73158 0.42327 0.31164 0.0
H1341 H 0.70482 0.44775 0.31275 0.0
H1342 H 0.72061 0.46716 0.24465 0.0
H1343 H 0.74723 0.4427 0.24348 0.0
C1344 C 0.69218 0.51531 0.27752 0.0
C1345 C 0.67122 0.50994 0.2869 0.0
C1346 C 0.70457 0.49872 0.27437 0.0
C1347 C 0.69636 0.47631 0.2806 0.0
C1348 C 0.67505 0.47066 0.2894 0.0
C1349 C 0.66251 0.48731 0.29242 0.0
C1350 C 0.72907 0.43248 0.29674 0.0
C1351 C 0.74177 0.43126 0.27761 0.0
C1352 C 0.71369 0.44647 0.29736 0.0
C1353 C 0.71072 0.45952 0.27886 0.0
C1354 C 0.72283 0.45765 0.25938 0.0
C1355 C 0.73815 0.44369 0.25876 0.0
H1356 H 0.84604 0.4778 0.50359 0.0
H1357 H 0.86745 0.42313 0.4631 0.0
H1358 H 0.88563 0.50187 0.51111 0.0
H1359 H 0.90734 0.44781 0.47053 0.0
H1360 H 0.97133 0.51257 0.47333 0.0
H1361 H 0.93136 0.48912 0.46222 0.0
H1362 H 0.9215 0.49507 0.53614 0.0
H1363 H 0.96159 0.51835 0.54744 0.0
C1364 C 0.85908 0.471 0.49593 0.0
C1365 C 0.85357 0.44837 0.48289 0.0
C1366 C 0.88177 0.4848 0.50041 0.0
C1367 C 0.89939 0.47647 0.49168 0.0
C1368 C 0.8939 0.4545 0.47746 0.0
C1369 C 0.87112 0.44045 0.4732 0.0
C1370 C 0.9606 0.509 0.48722 0.0
C1371 C 0.96946 0.51739 0.51126 0.0
C1372 C 0.93785 0.49545 0.48083 0.0
C1373 C 0.92354 0.49042 0.49833 0.0
C1374 C 0.93229 0.49893 0.52234 0.0
C1375 C 0.95516 0.51217 0.52879 0.0
H1376 H 0.40244 0.1254 0.28491 0.0
H1377 H 0.34625 0.06507 0.28889 0.0
H1378 H 0.37523 0.14346 0.26517 0.0
H1379 H 0.31905 0.08314 0.26893 0.0
H1380 H 0.2822 0.14408 0.27064 0.0
H1381 H 0.30546 0.11823 0.2818 0.0
H1382 H 0.34804 0.13831 0.22749 0.0
H1383 H 0.32449 0.164 0.21597 0.0
C1384 C 0.38432 0.11593 0.28136 0.0
C1385 C 0.37639 0.09395 0.28852 0.0
C1386 C 0.3688 0.12614 0.26987 0.0
C1387 C 0.34513 0.11456 0.26545 0.0
C1388 C 0.33724 0.09238 0.27221 0.0
C1389 C 0.35279 0.08209 0.28359 0.0
C1390 C 0.29597 0.14233 0.26047 0.0
C1391 C 0.30169 0.15618 0.24257 0.0
C1392 C 0.30933 0.1276 0.26693 0.0
C1393 C 0.32864 0.12658 0.25565 0.0
C1394 C 0.3334 0.13913 0.23665 0.0
C1395 C 0.31995 0.15376 0.23008 0.0
H1396 H 0.37065 0.20465 0.53614 0.0
H1397 H 0.31745 0.14398 0.54569 0.0
H1398 H 0.39944 0.18238 0.54052 0.0
H1399 H 0.34599 0.12201 0.55013 0.0
H1400 H 0.39599 0.08154 0.52732 0.0
H1401 H 0.36932 0.10583 0.52362 0.0
H1402 H 0.4187 0.16282 0.57003 0.0
H1403 H 0.44573 0.13863 0.57329 0.0
C1404 C 0.36515 0.18671 0.53946 0.0
C1405 C 0.34177 0.17608 0.54052 0.0
C1406 C 0.38161 0.17398 0.54197 0.0
C1407 C 0.37491 0.15036 0.54538 0.0
C1408 C 0.35164 0.14003 0.54707 0.0
C1409 C 0.3353 0.15272 0.54472 0.0
C1410 C 0.40129 0.09933 0.53651 0.0
C1411 C 0.42295 0.10812 0.55065 0.0
C1412 C 0.38592 0.11318 0.5346 0.0
C1413 C 0.39184 0.13619 0.5467 0.0
C1414 C 0.41369 0.1452 0.56043 0.0
C1415 C 0.42905 0.13127 0.56247 0.0
H1416 H 0.70351 0.61699 0.32373 0.0
H1417 H 0.65414 0.65799 0.31934 0.0
H1418 H 0.73485 0.65198 0.32404 0.0
H1419 H 0.68513 0.69267 0.31838 0.0
H1420 H 0.74392 0.75601 0.3313 0.0
H1421 H 0.71644 0.72104 0.33894 0.0
H1422 H 0.75212 0.67818 0.29976 0.0
H1423 H 0.78051 0.71357 0.29361 0.0
C1424 C 0.69934 0.6335 0.32287 0.0
C1425 C 0.67628 0.63469 0.32158 0.0
C1426 C 0.71733 0.65358 0.32284 0.0
C1427 C 0.71272 0.67533 0.32119 0.0
C1428 C 0.68962 0.67646 0.32022 0.0
C1429 C 0.6717 0.65648 0.32063 0.0
C1430 C 0.74614 0.73904 0.32488 0.0
C1431 C 0.7643 0.73735 0.31202 0.0
C1432 C 0.7302 0.71895 0.32893 0.0
C1433 C 0.7316 0.6966 0.31957 0.0
C1434 C 0.75049 0.69499 0.30749 0.0
C1435 C 0.7668 0.71522 0.30392 0.0
H1436 H 0.87888 0.50886 0.85322 0.0
H1437 H 0.93607 0.47974 0.84202 0.0
H1438 H 0.8532 0.46955 0.84957 0.0
H1439 H 0.91046 0.44072 0.83671 0.0
H1440 H 0.86314 0.37084 0.83346 0.0
H1441 H 0.88734 0.4097 0.84978 0.0
H1442 H 0.83494 0.43976 0.81899 0.0
H1443 H 0.81005 0.40047 0.80446 0.0
C1444 C 0.88601 0.49401 0.85042 0.0
C1445 C 0.90943 0.49729 0.84789 0.0
C1446 C 0.87125 0.47148 0.84796 0.0
C1447 C 0.87954 0.45182 0.84234 0.0
C1448 C 0.90334 0.45526 0.84136 0.0
C1449 C 0.91815 0.47774 0.84439 0.0
C1450 C 0.85683 0.38586 0.8304 0.0
C1451 C 0.835 0.38293 0.81748 0.0
C1452 C 0.87071 0.40815 0.83964 0.0
C1453 C 0.86337 0.42806 0.83546 0.0
C1454 C 0.84113 0.42494 0.82296 0.0
C1455 C 0.82692 0.4025 0.81435 0.0
H1456 H 0.07882 0.86887 0.06816 0.0
H1457 H 0.0908 0.90462 0.13997 0.0
H1458 H 0.07342 0.90441 0.0533 0.0
H1459 H 0.08539 0.93995 0.12533 0.0
H1460 H 0.09305 1.00808 0.0928 0.0
H1461 H 0.09971 0.97267 0.10631 0.0
H1462 H 0.0494 0.93047 0.04858 0.0
H1463 H 0.04286 0.96602 0.03502 0.0
C1464 C 0.0805 0.88429 0.08088 0.0
C1465 C 0.08545 0.88346 0.10545 0.0
C1466 C 0.07717 0.90486 0.0723 0.0
C1467 C 0.0789 0.9257 0.08786 0.0
C1468 C 0.08414 0.9248 0.11241 0.0
C1469 C 0.08719 0.90424 0.12095 0.0
C1470 C 0.08339 0.99132 0.08281 0.0
C1471 C 0.06736 0.99044 0.0626 0.0
C1472 C 0.08712 0.97071 0.09076 0.0
C1473 C 0.07515 0.94805 0.07883 0.0
C1474 C 0.05932 0.94721 0.05839 0.0
C1475 C 0.05543 0.96785 0.05057 0.0
H1476 H 0.9357 0.31272 0.95449 0.0
H1477 H 0.95612 0.26887 0.90028 0.0
H1478 H 0.90417 0.31605 0.92649 0.0
H1479 H 0.92349 0.27084 0.87232 0.0
H1480 H 0.87471 0.29411 0.8196 0.0
H1481 H 0.90652 0.29033 0.84733 0.0
H1482 H 0.86874 0.30181 0.90574 0.0
H1483 H 0.83784 0.30715 0.87799 0.0
C1484 C 0.93322 0.30337 0.93662 0.0
C1485 C 0.94859 0.29042 0.92986 0.0
C1486 C 0.91481 0.30513 0.92038 0.0
C1487 C 0.91066 0.29365 0.89671 0.0
C1488 C 0.92598 0.28041 0.89005 0.0
C1489 C 0.94473 0.27903 0.90625 0.0
C1490 C 0.87321 0.29583 0.83839 0.0
C1491 C 0.85359 0.30101 0.84642 0.0
C1492 C 0.89153 0.29348 0.85448 0.0
C1493 C 0.89075 0.29577 0.87924 0.0
C1494 C 0.87074 0.30048 0.8871 0.0
C1495 C 0.85267 0.30333 0.87104 0.0
H1496 H 0.55618 0.24426 0.61488 0.0
H1497 H 0.6086 0.25483 0.56854 0.0
H1498 H 0.54921 0.20171 0.60475 0.0
H1499 H 0.60165 0.2128 0.55843 0.0
H1500 H 0.59988 0.13569 0.55979 0.0
H1501 H 0.60657 0.17781 0.57147 0.0
H1502 H 0.53377 0.16782 0.57466 0.0
H1503 H 0.52717 0.12575 0.56316 0.0
C1504 C 0.56625 0.23766 0.60254 0.0
C1505 C 0.583 0.25348 0.59264 0.0
C1506 C 0.56216 0.21306 0.59657 0.0
C1507 C 0.57487 0.20325 0.58069 0.0
C1508 C 0.59162 0.21918 0.57095 0.0
C1509 C 0.59551 0.2436 0.5767 0.0
C1510 C 0.58525 0.14238 0.56298 0.0
C1511 C 0.56293 0.12687 0.56034 0.0
C1512 C 0.58906 0.16679 0.56961 0.0
C1513 C 0.57077 0.17681 0.5741 0.0
C1514 C 0.54849 0.1612 0.57171 0.0
C1515 C 0.54465 0.13683 0.56489 0.0
H1516 H 0.59846 0.80245 0.45009 0.0
H1517 H 0.54964 0.78166 0.3856 0.0
H1518 H 0.63044 0.80667 0.42633 0.0
H1519 H 0.58142 0.78611 0.36204 0.0
H1520 H 0.6437 0.8252 0.32904 0.0
H1521 H 0.61275 0.81978 0.35353 0.0
H1522 H 0.64782 0.78186 0.39768 0.0
H1523 H 0.67847 0.78629 0.3726 0.0
C1524 C 0.59455 0.79866 0.4309 0.0
C1525 C 0.57148 0.79169 0.41978 0.0
C1526 C 0.61285 0.80103 0.41729 0.0
C1527 C 0.60848 0.79688 0.39227 0.0
C1528 C 0.5854 0.78971 0.38125 0.0
C1529 C 0.56717 0.787 0.3948 0.0
C1530 C 0.64478 0.81533 0.34366 0.0
C1531 C 0.66375 0.80606 0.34851 0.0
C1532 C 0.62701 0.81236 0.35784 0.0
C1533 C 0.62776 0.80034 0.37755 0.0
C1534 C 0.64682 0.79141 0.38276 0.0
C1535 C 0.66448 0.79407 0.36836 0.0
H1536 H 1.01975 0.26935 0.40798 0.0
H1537 H 0.09251 0.27873 0.40533 0.0
H1538 H 1.01781 0.23438 0.4263 0.0
H1539 H 0.09066 0.24301 0.42354 0.0
H1540 H 0.08234 0.20172 0.48872 0.0
H1541 H 0.08624 0.23165 0.46255 0.0
H1542 H 1.01934 0.1951 0.42316 0.0
H1543 H 1.01535 0.16546 0.44951 0.0
C1544 C 0.03522 0.26338 0.41061 0.0
C1545 C 0.05622 0.27662 0.40499 0.0
C1546 C 0.03413 0.24325 0.42115 0.0
C1547 C 0.05408 0.23575 0.42657 0.0
C1548 C 0.07498 0.24837 0.41985 0.0
C1549 C 0.07601 0.2686 0.40906 0.0
C1550 C 0.0686 0.19989 0.47427 0.0
C1551 C 0.04838 0.18128 0.47146 0.0
C1552 C 0.07089 0.21704 0.45915 0.0
C1553 C 0.05305 0.21599 0.44075 0.0
C1554 C 0.03326 0.19683 0.43739 0.0
C1555 C 0.03093 0.17979 0.45256 0.0
H1556 H 0.6241 0.3162 0.20652 0.0
H1557 H 0.59819 0.25823 0.24358 0.0
H1558 H 0.66317 0.31888 0.22328 0.0
H1559 H 0.63803 0.26141 0.26158 0.0
H1560 H 0.71562 0.25815 0.26907 0.0
H1561 H 0.67476 0.25519 0.25624 0.0
H1562 H 0.69231 0.32957 0.254 0.0
H1563 H 0.73263 0.33219 0.26563 0.0
C1564 C 0.62667 0.30433 0.21891 0.0
C1565 C 0.60756 0.28719 0.22376 0.0
C1566 C 0.64943 0.30593 0.22875 0.0
C1567 C 0.65447 0.29049 0.24416 0.0
C1568 C 0.63528 0.27362 0.2497 0.0
C1569 C 0.61221 0.27202 0.23971 0.0
C1570 C 0.71074 0.27387 0.26578 0.0
C1571 C 0.7279 0.29538 0.26819 0.0
C1572 C 0.68709 0.27222 0.25852 0.0
C1573 C 0.67961 0.29204 0.25357 0.0
C1574 C 0.69685 0.31358 0.25676 0.0
C1575 C 0.72033 0.31516 0.26369 0.0
H1576 H 0.57069 0.92003 0.87584 0.0
H1577 H 0.5729 0.88658 0.93872 0.0
H1578 H 0.56487 0.95461 0.89967 0.0
H1579 H 0.56814 0.92076 0.96234 0.0
H1580 H 0.53435 0.97109 0.99665 0.0
H1581 H 0.54018 0.93925 0.97027 0.0
H1582 H 0.57944 0.98851 0.93025 0.0
H1583 H 0.57269 0.02092 0.95664 0.0
C1584 C 0.57015 0.9201 0.89471 0.0
C1585 C 0.57202 0.9003 0.9052 0.0
C1586 C 0.5669 0.93999 0.90847 0.0
C1587 C 0.56554 0.94061 0.93309 0.0
C1588 C 0.56825 0.92099 0.94345 0.0
C1589 C 0.57121 0.90125 0.9298 0.0
C1590 C 0.54429 0.97537 0.98229 0.0
C1591 C 0.55324 0.99883 0.97913 0.0
C1592 C 0.54782 0.95689 0.96709 0.0
C1593 C 0.56078 0.96097 0.94816 0.0
C1594 C 0.56934 0.98446 0.94451 0.0
C1595 C 0.56556 1.00313 0.95975 0.0
H1596 H 0.9593 0.78782 0.69793 0.0
H1597 H 0.97271 0.75148 0.7565 0.0
H1598 H 0.92396 0.79271 0.71245 0.0
H1599 H 0.93658 0.75572 0.7707 0.0
H1600 H 0.85542 0.7492 0.77229 0.0
H1601 H 0.8913 0.74306 0.75924 0.0
H1602 H 0.9119 0.81484 0.74722 0.0
H1603 H 0.87665 0.82116 0.76086 0.0
C1604 C 0.95468 0.7806 0.71384 0.0
C1605 C 0.96927 0.76913 0.72582 0.0
C1606 C 0.93425 0.78355 0.72231 0.0
C1607 C 0.92695 0.77468 0.74291 0.0
C1608 C 0.94126 0.76276 0.75473 0.0
C1609 C 0.96216 0.76035 0.74657 0.0
C1610 C 0.86762 0.76376 0.76699 0.0
C1611 C 0.86274 0.78577 0.76784 0.0
C1612 C 0.8884 0.76024 0.75954 0.0
C1613 C 0.90491 0.77838 0.75196 0.0
C1614 C 0.89985 0.80027 0.75266 0.0
C1615 C 0.87946 0.80394 0.76066 0.0
H1616 H 0.0904 0.04213 0.85059 0.0
H1617 H 0.1594 0.07305 0.88728 0.0
H1618 H 0.07584 0.03873 0.88832 0.0
H1619 H 0.1448 0.07162 0.92538 0.0
H1620 H 0.11617 0.05054 0.99257 0.0
H1621 H 0.13142 0.05188 0.95473 0.0
H1622 H 0.06517 0.05531 0.92051 0.0
H1623 H 0.04984 0.05206 0.95766 0.0
C1624 C 0.10242 0.04866 0.86684 0.0
C1625 C 0.12604 0.05789 0.8659 0.0
C1626 C 0.09405 0.04691 0.88871 0.0
C1627 C 0.10893 0.05504 0.91047 0.0
C1628 C 0.13263 0.06465 0.90935 0.0
C1629 C 0.14108 0.06575 0.88741 0.0
C1630 C 0.10488 0.05129 0.97682 0.0
C1631 C 0.08169 0.05084 0.97815 0.0
C1632 C 0.11367 0.05233 0.955 0.0
C1633 C 0.09968 0.05362 0.93399 0.0
C1634 C 0.07656 0.05358 0.93571 0.0
C1635 C 0.06768 0.05189 0.95727 0.0
H1636 H 0.81525 0.36206 0.54327 0.0
H1637 H 0.8024 0.42578 0.57587 0.0
H1638 H 0.82825 0.35392 0.58214 0.0
H1639 H 0.81576 0.41752 0.615 0.0
H1640 H 0.81058 0.37137 0.6772 0.0
H1641 H 0.8017 0.38666 0.6407 0.0
H1642 H 0.8614 0.37093 0.61457 0.0
H1643 H 0.87045 0.35574 0.65124 0.0
C1644 C 0.81521 0.37437 0.5587 0.0
C1645 C 0.80778 0.39458 0.55646 0.0
C1646 C 0.8229 0.3698 0.58095 0.0
C1647 C 0.82328 0.38529 0.60142 0.0
C1648 C 0.81563 0.40537 0.59937 0.0
C1649 C 0.808 0.41004 0.57702 0.0
C1650 C 0.8222 0.37181 0.66397 0.0
C1651 C 0.84113 0.36225 0.66692 0.0
C1652 C 0.81708 0.38053 0.64309 0.0
C1653 C 0.83075 0.37969 0.62484 0.0
C1654 C 0.85041 0.37138 0.62833 0.0
C1655 C 0.85557 0.36271 0.64922 0.0
H1656 H 0.48329 0.1017 0.36656 0.0
H1657 H 0.4216 0.0795 0.39923 0.0
H1658 H 0.50691 0.09904 0.40261 0.0
H1659 H 0.44543 0.07763 0.43589 0.0
H1660 H 0.48875 0.03647 0.47379 0.0
H1661 H 0.46607 0.04862 0.44267 0.0
H1662 H 0.52151 0.1112 0.44436 0.0
H1663 H 0.54465 0.09865 0.47547 0.0
C1664 C 0.47485 0.09697 0.38179 0.0
C1665 C 0.45064 0.09038 0.38007 0.0
C1666 C 0.48842 0.0956 0.40249 0.0
C1667 C 0.47798 0.08769 0.42187 0.0
C1668 C 0.45386 0.0833 0.42095 0.0
C1669 C 0.44023 0.0846 0.40012 0.0
C1670 C 0.49618 0.05279 0.46748 0.0
C1671 C 0.51848 0.0666 0.47694 0.0
C1672 C 0.48303 0.05993 0.44989 0.0
C1673 C 0.49182 0.08112 0.44146 0.0
C1674 C 0.51431 0.0948 0.45061 0.0
C1675 C 0.5276 0.08755 0.46822 0.0
H1676 H 0.79681 0.71111 0.10184 0.0
H1677 H 0.78463 0.77712 0.08893 0.0
H1678 H 0.79679 0.72196 0.14436 0.0
H1679 H 0.78532 0.78822 0.13119 0.0
H1680 H 0.7656 0.7938 0.20578 0.0
H1681 H 0.76438 0.78142 0.16333 0.0
H1682 H 0.81744 0.74647 0.17922 0.0
H1683 H 0.81807 0.75813 0.22138 0.0
C1684 C 0.7944 0.72803 0.10804 0.0
C1685 C 0.79067 0.74314 0.09177 0.0
C1686 C 0.79443 0.73433 0.13251 0.0
C1687 C 0.79088 0.75599 0.14145 0.0
C1688 C 0.78758 0.7712 0.12514 0.0
C1689 C 0.7874 0.76486 0.10077 0.0
C1690 C 0.7769 0.78337 0.20021 0.0
C1691 C 0.79183 0.77694 0.21716 0.0
C1692 C 0.77635 0.77636 0.17578 0.0
C1693 C 0.79086 0.76289 0.16758 0.0
C1694 C 0.8057 0.75643 0.18463 0.0
C1695 C 0.80613 0.76329 0.20897 0.0
H1696 H 0.13145 0.04375 0.72722 0.0
H1697 H 0.08513 0.0864 0.74202 0.0
H1698 H 0.12001 0.0422 0.6845 0.0
H1699 H 0.07375 0.0847 0.69973 0.0
H1700 H 0.07428 0.09542 0.62142 0.0
H1701 H 0.08787 0.09832 0.66387 0.0
H1702 H 0.08632 0.02518 0.65405 0.0
H1703 H 0.07305 0.02231 0.61196 0.0
C1704 C 0.11886 0.05276 0.72145 0.0
C1705 C 0.1092 0.06508 0.73825 0.0
C1706 C 0.11222 0.05182 0.69693 0.0
C1707 C 0.09594 0.06338 0.68856 0.0
C1708 C 0.08652 0.07584 0.70539 0.0
C1709 C 0.09296 0.07661 0.72978 0.0
C1710 C 0.07682 0.07997 0.62833 0.0
C1711 C 0.07237 0.05861 0.61314 0.0
C1712 C 0.08456 0.0816 0.65271 0.0
C1713 C 0.08827 0.06197 0.66249 0.0
C1714 C 0.08398 0.04073 0.64722 0.0
C1715 C 0.0761 0.03906 0.62299 0.0
H1716 H 0.74704 0.37124 0.45028 0.0
H1717 H 0.77591 0.43687 0.42588 0.0
H1718 H 0.74681 0.35031 0.41156 0.0
H1719 H 0.77497 0.41584 0.38626 0.0
H1720 H 0.81323 0.36753 0.34649 0.0
H1721 H 0.80014 0.39281 0.37494 0.0
H1722 H 0.73548 0.33958 0.3703 0.0
H1723 H 0.7492 0.31381 0.34256 0.0
C1724 C 0.75258 0.38122 0.43625 0.0
C1725 C 0.76189 0.40553 0.44101 0.0
C1726 C 0.75223 0.36924 0.41392 0.0
C1727 C 0.76119 0.3814 0.39591 0.0
C1728 C 0.76832 0.40602 0.4 0.0
C1729 C 0.76868 0.41807 0.42252 0.0
C1730 C 0.79617 0.36131 0.35147 0.0
C1731 C 0.78248 0.33853 0.34309 0.0
C1732 C 0.78848 0.37595 0.36746 0.0
C1733 C 0.7668 0.36814 0.375 0.0
C1734 C 0.75244 0.3459 0.36515 0.0
C1735 C 0.76032 0.33111 0.34947 0.0
H1736 H 0.48543 0.06645 0.2659 0.0
H1737 H 0.41353 0.02739 0.24946 0.0
H1738 H 0.49286 0.04933 0.228 0.0
H1739 H 0.42117 1.01005 0.21106 0.0
H1740 H 0.45246 1.01058 0.13562 0.0
H1741 H 0.43682 0.02258 0.17133 0.0
H1742 H 0.49182 1.00639 0.21496 0.0
H1743 H 0.50798 0.9954 0.17972 0.0
C1744 C 0.47115 0.05438 0.25403 0.0
C1745 C 0.44901 0.04791 0.26072 0.0
C1746 C 0.47544 0.04449 0.23244 0.0
C1747 C 0.4577 0.0279 0.21712 0.0
C1748 C 0.43512 0.02265 0.22285 0.0
C1749 C 0.43077 0.03263 0.24465 0.0
C1750 C 0.46092 1.00918 0.15286 0.0
C1751 C 0.48171 1.00254 0.15494 0.0
C1752 C 0.45187 0.01588 0.17318 0.0
C1753 C 0.46352 0.01588 0.1957 0.0
C1754 C 0.48285 1.00691 0.19767 0.0
C1755 C 0.49193 1.00035 0.17746 0.0
H1756 H 0.7988 0.76157 0.9787 0.0
H1757 H 0.79773 0.69327 0.94379 0.0
H1758 H 0.80156 0.77683 0.94088 0.0
H1759 H 0.8008 0.70851 0.90611 0.0
H1760 H 0.78053 0.7373 0.83838 0.0
H1761 H 0.77887 0.72239 0.87617 0.0
H1762 H 0.82748 0.78653 0.91135 0.0
H1763 H 0.82889 0.8017 0.87334 0.0
C1764 C 0.79912 0.74979 0.96296 0.0
C1765 C 0.79795 0.72615 0.96433 0.0
C1766 C 0.80091 0.7586 0.94126 0.0
C1767 C 0.80146 0.74398 0.92029 0.0
C1768 C 0.80016 0.72029 0.92173 0.0
C1769 C 0.79847 0.71153 0.94342 0.0
C1770 C 0.79101 0.74826 0.8541 0.0
C1771 C 0.80488 0.77076 0.85268 0.0
C1772 C 0.79013 0.7396 0.87586 0.0
C1773 C 0.803 0.7532 0.89698 0.0
C1774 C 0.8171 0.77563 0.89555 0.0
C1775 C 0.8181 0.78426 0.87368 0.0
H1776 H 0.81152 0.09041 0.05898 0.0
H1777 H 0.87104 0.14962 0.06261 0.0
H1778 H 0.83429 0.06402 0.04642 0.0
H1779 H 0.89389 0.12323 0.05072 0.0
H1780 H 0.91894 0.077 0.99973 0.0
H1781 H 0.89294 0.0996 0.01266 0.0
H1782 H 0.86762 0.04899 0.05868 0.0
H1783 H 0.89348 0.02607 0.04512 0.0
C1784 C 0.82959 0.09772 0.05759 0.0
C1785 C 0.83953 0.12201 0.06142 0.0
C1786 C 0.84257 0.08262 0.05042 0.0
C1787 C 0.86561 0.09169 0.04711 0.0
C1788 C 0.87591 0.11589 0.05249 0.0
C1789 C 0.86293 0.13095 0.05949 0.0
C1790 C 0.90726 0.07044 0.01205 0.0
C1791 C 0.90788 0.04992 0.02143 0.0
C1792 C 0.89271 0.08347 0.01972 0.0
C1793 C 0.87876 0.07626 0.03707 0.0
C1794 C 0.87827 0.05487 0.0453 0.0
C1795 C 0.89284 0.04172 0.03748 0.0
H1796 H 0.36552 0.45388 0.0383 0.0
H1797 H 0.40166 0.40674 0.06595 0.0
H1798 H 0.40216 0.48288 0.03894 0.0
H1799 H 0.43822 0.43619 0.06848 0.0
H1800 H 0.50139 0.47994 0.0446 0.0
H1801 H 0.4646 0.45269 0.04595 0.0
H1802 H 0.43425 0.51052 0.05872 0.0
H1803 H 0.47116 0.5378 0.05557 0.0
C1804 C 0.38135 0.44995 0.045 0.0
C1805 C 0.38079 0.42799 0.05187 0.0
C1806 C 0.40244 0.46666 0.04554 0.0
C1807 C 0.42347 0.46202 0.05353 0.0
C1808 C 0.42263 0.44032 0.06143 0.0
C1809 C 0.40162 0.42342 0.06024 0.0
C1810 C 0.48688 0.48688 0.0478 0.0
C1811 C 0.4892 0.51104 0.05007 0.0
C1812 C 0.46567 0.47118 0.0488 0.0
C1813 C 0.44618 0.47917 0.05274 0.0
C1814 C 0.44863 0.5035 0.0553 0.0
C1815 C 0.46984 0.51924 0.05369 0.0
H1816 H 0.45022 0.62321 0.80065 0.0
H1817 H 0.39274 0.57313 0.75603 0.0
H1818 H 0.42721 0.65131 0.80385 0.0
H1819 H 0.37004 0.60136 0.75844 0.0
H1820 H 0.32622 0.64356 0.79267 0.0
H1821 H 0.3505 0.61742 0.78634 0.0
H1822 H 0.4088 0.67665 0.78555 0.0
H1823 H 0.38488 0.703 0.79369 0.0
C1824 C 0.43284 0.6184 0.7911 0.0
C1825 C 0.42326 0.5959 0.77823 0.0
C1826 C 0.41962 0.63453 0.79287 0.0
C1827 C 0.39657 0.62857 0.78167 0.0
C1828 C 0.38747 0.60643 0.76783 0.0
C1829 C 0.4006 0.59028 0.76624 0.0
C1830 C 0.34428 0.65113 0.79152 0.0
C1831 C 0.35349 0.67553 0.79395 0.0
C1832 C 0.35819 0.63604 0.78743 0.0
C1833 C 0.3817 0.64483 0.78531 0.0
C1834 C 0.39087 0.6692 0.78734 0.0
C1835 C 0.37699 0.68434 0.7917 0.0
H1836 H 0.2373 0.61386 0.56265 0.0
H1837 H 0.21175 0.67544 0.56508 0.0
H1838 H 0.19767 0.58916 0.55755 0.0
H1839 H 0.17244 0.65076 0.56035 0.0
H1840 H 0.1095 0.60231 0.51601 0.0
H1841 H 0.14983 0.62369 0.52475 0.0
H1842 H 0.16071 0.57916 0.5769 0.0
H1843 H 0.11976 0.55713 0.56778 0.0
C1844 C 0.22331 0.62216 0.56248 0.0
C1845 C 0.22765 0.64662 0.5639 0.0
C1846 C 0.20068 0.60799 0.55968 0.0
C1847 C 0.18212 0.61809 0.5582 0.0
C1848 C 0.18651 0.64255 0.56099 0.0
C1849 C 0.20904 0.65668 0.56379 0.0
C1850 C 0.12042 0.5969 0.52927 0.0
C1851 C 0.11146 0.57827 0.54148 0.0
C1852 C 0.1435 0.60927 0.53436 0.0
C1853 C 0.15816 0.60341 0.55191 0.0
C1854 C 0.14961 0.58404 0.56338 0.0
C1855 C 0.1263 0.57148 0.55817 0.0
H1856 H 0.69796 0.97995 0.77894 0.0
H1857 H 0.7554 0.03479 0.76559 0.0
H1858 H 0.72437 0.95701 0.78986 0.0
H1859 H 0.78187 1.01161 0.77662 0.0
H1860 H 0.81398 0.94682 0.77987 0.0
H1861 H 0.79055 0.97138 0.76486 0.0
H1862 H 0.75531 0.96679 0.82675 0.0
H1863 H 0.77899 0.94282 0.8421 0.0
C1864 C 0.71616 0.98691 0.77791 0.0
C1865 C 0.72472 1.00925 0.77174 0.0
C1866 C 0.73124 0.97386 0.7843 0.0
C1867 C 0.75506 0.9829 0.78452 0.0
C1868 C 0.76351 1.00444 0.77665 0.0
C1869 C 0.7484 0.01762 0.77034 0.0
C1870 C 0.80169 0.95163 0.79058 0.0
C1871 C 0.79812 0.94281 0.81206 0.0
C1872 C 0.78823 0.96548 0.78189 0.0
C1873 C 0.77096 0.97042 0.79448 0.0
C1874 C 0.76825 0.96268 0.81653 0.0
C1875 C 0.7818 0.94908 0.82531 0.0
H1876 H 0.77791 0.96289 0.57313 0.0
H1877 H 0.73052 0.90298 0.52873 0.0
H1878 H 0.74941 0.98501 0.56874 0.0
H1879 H 0.70218 0.92537 0.52363 0.0
H1880 H 0.64938 0.96703 0.53314 0.0
H1881 H 0.67613 0.94364 0.54148 0.0
H1882 H 0.7336 1.00319 0.53905 0.0
H1883 H 0.70702 0.02691 0.53223 0.0
C1884 C 0.76131 0.95437 0.56257 0.0
C1885 C 0.75648 0.93119 0.55126 0.0
C1886 C 0.74503 0.96715 0.55983 0.0
C1887 C 0.72357 0.95714 0.54554 0.0
C1888 C 0.71843 0.93362 0.53493 0.0
C1889 C 0.7347 0.92077 0.53781 0.0
C1890 C 0.66774 0.97524 0.53471 0.0
C1891 C 0.67598 0.99894 0.53201 0.0
C1892 C 0.68309 0.96171 0.53921 0.0
C1893 C 0.70708 0.97148 0.54103 0.0
C1894 C 0.71528 0.99512 0.53818 0.0
C1895 C 0.69997 1.00867 0.53385 0.0
H1896 H 0.39805 0.48758 0.77397 0.0
H1897 H 0.44993 0.4515 0.79115 0.0
H1898 H 0.36786 0.45116 0.77148 0.0
H1899 H 0.41972 0.41526 0.78901 0.0
H1900 H 0.3627 0.34983 0.76024 0.0
H1901 H 0.39132 0.38657 0.76001 0.0
H1902 H 0.34985 0.42382 0.79733 0.0
H1903 H 0.32083 0.3869 0.79726 0.0
C1904 C 0.40306 0.47191 0.77718 0.0
C1905 C 0.42649 0.47251 0.7827 0.0
C1906 C 0.38571 0.45106 0.77591 0.0
C1907 C 0.39136 0.4303 0.78002 0.0
C1908 C 0.41477 0.43088 0.78542 0.0
C1909 C 0.43211 0.45171 0.78677 0.0
C1910 C 0.35949 0.36584 0.76821 0.0
C1911 C 0.33943 0.36539 0.77881 0.0
C1912 C 0.37604 0.38691 0.76824 0.0
C1913 C 0.373 0.40811 0.77885 0.0
C1914 C 0.35263 0.4078 0.78885 0.0
C1915 C 0.33602 0.38664 0.78886 0.0
H1916 H 0.16979 0.64116 0.27139 0.0
H1917 H 0.23032 0.61943 0.29532 0.0
H1918 H 0.19412 0.68123 0.27295 0.0
H1919 H 0.2543 0.65935 0.29731 0.0
H1920 H 0.27738 0.73993 0.32704 0.0
H1921 H 0.25338 0.69979 0.32403 0.0
H1922 H 0.23125 0.69976 0.24973 0.0
H1923 H 0.25567 0.73985 0.25248 0.0
C1924 C 0.18821 0.645 0.27705 0.0
C1925 C 0.19825 0.62734 0.28316 0.0
C1926 C 0.20205 0.66774 0.2778 0.0
C1927 C 0.22592 0.67307 0.28519 0.0
C1928 C 0.23589 0.6555 0.29158 0.0
C1929 C 0.2222 0.63274 0.29035 0.0
C1930 C 0.26754 0.73128 0.31002 0.0
C1931 C 0.26838 0.74283 0.28995 0.0
C1932 C 0.25387 0.70843 0.30834 0.0
C1933 C 0.24052 0.69702 0.28671 0.0
C1934 C 0.24137 0.70846 0.2666 0.0
C1935 C 0.25543 0.73119 0.26814 0.0
H1936 H 0.54893 0.73013 0.47314 0.0
H1937 H 0.48632 0.71593 0.50509 0.0
H1938 H 0.55642 0.69395 0.48476 0.0
H1939 H 0.49341 0.6797 0.51601 0.0
H1940 H 0.50234 0.6036 0.51166 0.0
H1941 H 0.49505 0.63935 0.49911 0.0
H1942 H 0.56663 0.6761 0.52175 0.0
H1943 H 0.57376 0.64054 0.53494 0.0
C1944 C 0.53656 0.71925 0.48234 0.0
C1945 C 0.5169 0.72634 0.48797 0.0
C1946 C 0.54096 0.69842 0.48923 0.0
C1947 C 0.52558 0.68345 0.50146 0.0
C1948 C 0.5057 0.69034 0.50654 0.0
C1949 C 0.50164 0.71137 0.50025 0.0
C1950 C 0.51658 0.61928 0.51411 0.0
C1951 C 0.53868 0.61881 0.52461 0.0
C1952 C 0.51236 0.63999 0.50689 0.0
C1953 C 0.53019 0.66105 0.50918 0.0
C1954 C 0.55236 0.66046 0.51938 0.0
C1955 C 0.55644 0.63993 0.52718 0.0
H1956 H 0.68114 0.33123 0.63411 0.0
H1957 H 0.63662 0.33398 0.68795 0.0
H1958 H 0.71188 0.32892 0.66399 0.0
H1959 H 0.66774 0.33274 0.71821 0.0
H1960 H 0.71951 0.30714 0.76496 0.0
H1961 H 0.68903 0.31049 0.73534 0.0
H1962 H 0.74047 0.34608 0.6953 0.0
H1963 H 0.77093 0.34171 0.72455 0.0
C1964 C 0.67795 0.33172 0.65243 0.0
C1965 C 0.65617 0.33285 0.65839 0.0
C1966 C 0.69581 0.33051 0.66978 0.0
C1967 C 0.69273 0.33059 0.69394 0.0
C1968 C 0.671 0.33214 0.69994 0.0
C1969 C 0.65304 0.33312 0.68249 0.0
C1970 C 0.72439 0.31573 0.74986 0.0
C1971 C 0.74789 0.32413 0.74735 0.0
C1972 C 0.70675 0.31784 0.73278 0.0
C1973 C 0.71184 0.32865 0.71253 0.0
C1974 C 0.73545 0.33725 0.71019 0.0
C1975 C 0.75312 0.33492 0.7272 0.0
H1976 H 0.02468 0.36633 0.94419 0.0
H1977 H 1.01919 0.34939 0.01503 0.0
H1978 H 0.02834 0.4071 0.95843 0.0
H1979 H 0.02321 0.39084 0.02962 0.0
H1980 H 1.01236 0.46627 0.04379 0.0
H1981 H 1.00696 0.42434 0.03095 0.0
H1982 H 0.05403 0.44119 0.97984 0.0
H1983 H 0.05907 0.48262 0.99231 0.0
C1984 C 0.02427 0.37124 0.96293 0.0
C1985 C 0.02172 0.35418 0.97834 0.0
C1986 C 0.02658 0.39495 0.97123 0.0
C1987 C 0.02642 0.40288 0.99541 0.0
C1988 C 0.02335 0.38573 0.01087 0.0
C1989 C 0.02113 0.36182 1.0025 0.0
C1990 C 0.02149 0.46104 0.02973 0.0
C1991 C 0.03605 0.47824 0.01908 0.0
C1992 C 1.01851 0.43682 0.02242 0.0
C1993 C 0.02985 0.42885 1.00406 0.0
C1994 C 0.0445 0.44617 0.99363 0.0
C1995 C 0.04753 0.47023 1.00096 0.0
H1996 H 0.04609 0.7991 0.19048 0.0
H1997 H 1.0051 0.81764 0.13307 0.0
H1998 H 1.01346 0.79281 0.21272 0.0
H1999 H 0.97208 0.81105 0.15537 0.0
H2000 H 0.92861 0.82367 0.2161 0.0
H2001 H 0.95923 0.82802 0.19094 0.0
H2002 H 0.97588 0.76687 0.21326 0.0
H2003 H 0.94526 0.76237 0.23817 0.0
C2004 C 0.03001 0.80163 0.18247 0.0
C2005 C 0.02826 0.80884 0.15992 0.0
C2006 C 1.01119 0.79789 0.19522 0.0
C2007 C 0.99 0.80134 0.18591 0.0
C2008 C 0.98816 0.8084 0.16323 0.0
C2009 C 1.00703 0.81201 0.15034 0.0
C2010 C 0.93857 0.81094 0.21543 0.0
C2011 C 0.93446 0.79277 0.22946 0.0
C2012 C 0.95618 0.81345 0.20094 0.0
C2013 C 0.97023 0.79792 0.20012 0.0
C2014 C 0.96577 0.77947 0.21375 0.0
C2015 C 0.94817 0.77692 0.22814 0.0
H2016 H 0.54005 0.35326 0.19994 0.0
H2017 H 0.5545 0.30892 0.14174 0.0
H2018 H 0.54798 0.38626 0.17728 0.0
H2019 H 0.56212 0.34149 0.11919 0.0
H2020 H 0.59404 0.40865 0.0919 0.0
H2021 H 0.58918 0.37852 0.11765 0.0
H2022 H 0.53091 0.399 0.14182 0.0
H2023 H 0.53559 0.42908 0.11582 0.0
C2024 C 0.54514 0.35062 0.18246 0.0
C2025 C 0.5467 0.32847 0.17271 0.0
C2026 C 0.5495 0.36946 0.16937 0.0
C2027 C 0.55572 0.3666 0.14636 0.0
C2028 C 0.55772 0.34451 0.13694 0.0
C2029 C 0.55323 0.32575 0.14988 0.0
C2030 C 0.58006 0.40669 0.10253 0.0
C2031 C 0.5651 0.42129 0.10149 0.0
C2032 C 0.57731 0.38939 0.11741 0.0
C2033 C 0.55957 0.38618 0.13179 0.0
C2034 C 0.54494 0.40113 0.13124 0.0
C2035 C 0.54764 0.41842 0.11627 0.0
H2036 H 0.99258 0.30062 0.33553 0.0
H2037 H 0.99545 0.372 0.36133 0.0
H2038 H 0.9519 0.2939 0.31833 0.0
H2039 H 0.95524 0.36553 0.34439 0.0
H2040 H 0.88563 0.35292 0.29845 0.0
H2041 H 0.927 0.35872 0.30993 0.0
H2042 H 0.9136 0.28979 0.33055 0.0
H2043 H 0.87214 0.28396 0.31896 0.0
C2044 C 0.98484 0.31512 0.33682 0.0
C2045 C 0.9977 0.33707 0.34936 0.0
C2046 C 0.96127 0.31118 0.32733 0.0
C2047 C 0.94982 0.32911 0.32988 0.0
C2048 C 0.96313 0.35125 0.3416 0.0
C2049 C 0.98642 0.35504 0.35129 0.0
C2050 C 0.89139 0.3389 0.30537 0.0
C2051 C 0.87514 0.31801 0.30787 0.0
C2052 C 0.91532 0.34229 0.31212 0.0
C2053 C 0.92411 0.32482 0.32139 0.0
C2054 C 0.90786 0.30369 0.32337 0.0
C2055 C 0.88387 0.30041 0.31688 0.0
H2056 H 0.99266 0.70422 0.63412 0.0
H2057 H 0.04974 0.69539 0.68043 0.0
H2058 H 0.9905 0.66751 0.60914 0.0
H2059 H 0.04846 0.6592 0.65518 0.0
H2060 H 1.01406 0.62169 0.55196 0.0
H2061 H 1.01003 0.6535 0.58041 0.0
H2062 H 0.03279 0.62032 0.63827 0.0
H2063 H 0.03757 0.58898 0.60969 0.0
C2064 C 1.00409 0.69384 0.63957 0.0
C2065 C 0.02076 0.70234 0.65987 0.0
C2066 C 1.00333 0.67302 0.62484 0.0
C2067 C 1.01956 0.6602 0.62963 0.0
C2068 C 0.0354 0.6681 0.65077 0.0
C2069 C 0.036 0.68884 0.66557 0.0
C2070 C 1.01809 0.62107 0.57075 0.0
C2071 C 0.02625 0.60265 0.57834 0.0
C2072 C 1.0156 0.63936 0.58725 0.0
C2073 C 0.02101 0.63982 0.612 0.0
C2074 C 0.02875 0.62107 0.61953 0.0
C2075 C 0.03139 0.60288 0.60302 0.0
H2076 H 0.61192 0.81647 0.81124 0.0
H2077 H 0.65051 0.84655 0.8802 0.0
H2078 H 0.64714 0.81039 0.79707 0.0
H2079 H 0.68549 0.84009 0.86645 0.0
H2080 H 0.7512 0.84351 0.8324 0.0
H2081 H 0.7159 0.85025 0.84509 0.0
H2082 H 0.67551 0.79021 0.79558 0.0
H2083 H 0.71098 0.78391 0.78251 0.0
C2084 C 0.62787 0.82179 0.82349 0.0
C2085 C 0.62796 0.83214 0.847 0.0
C2086 C 0.64831 0.81813 0.81536 0.0
C2087 C 0.66987 0.82469 0.83034 0.0
C2088 C 0.66979 0.83503 0.85387 0.0
C2089 C 0.64941 0.83865 0.86196 0.0
C2090 C 0.73485 0.83171 0.82406 0.0
C2091 C 0.73444 0.8131 0.80623 0.0
C2092 C 0.71428 0.83548 0.83158 0.0
C2093 C 0.69215 0.82081 0.82172 0.0
C2094 C 0.69178 0.80229 0.80369 0.0
C2095 C 0.71239 0.79853 0.79616 0.0
H2096 H 0.45563 0.55442 0.70798 0.0
H2097 H 0.52205 0.54215 0.72808 0.0
H2098 H 0.4661 0.5604 0.66827 0.0
H2099 H 0.53217 0.54784 0.68898 0.0
H2100 H 0.55555 0.58206 0.62758 0.0
H2101 H 0.54176 0.57972 0.66579 0.0
H2102 H 0.47458 0.53852 0.63088 0.0
H2103 H 0.4884 0.54105 0.59213 0.0
C2104 C 0.47242 0.55306 0.70405 0.0
C2105 C 0.48797 0.54786 0.72143 0.0
C2106 C 0.47836 0.55635 0.68124 0.0
C2107 C 0.50008 0.55482 0.67544 0.0
C2108 C 0.51547 0.5496 0.69284 0.0
C2109 C 0.50954 0.54617 0.71537 0.0
C2110 C 0.53773 0.57268 0.62785 0.0
C2111 C 0.52319 0.56155 0.60663 0.0
C2112 C 0.52984 0.57125 0.64989 0.0
C2113 C 0.50715 0.55859 0.65154 0.0
C2114 C 0.49215 0.54845 0.63029 0.0
C2115 C 0.50009 0.54988 0.60807 0.0
H2116 H 0.80479 0.22702 0.0385 0.0
H2117 H 0.77726 0.16404 0.98756 0.0
H2118 H 0.79476 0.25023 0.0091 0.0
H2119 H 0.76745 0.18774 0.95766 0.0
H2120 H 0.73462 0.2401 0.92042 0.0
H2121 H 0.74097 0.21507 0.95037 0.0
H2122 H 0.81043 0.25947 0.97179 0.0
H2123 H 0.80398 0.2844 0.94243 0.0
C2124 C 0.79658 0.21811 0.02097 0.0
C2125 C 0.7919 0.19373 0.01521 0.0
C2126 C 0.7909 0.23145 1.00416 0.0
C2127 C 0.78046 0.22072 0.9812 0.0
C2128 C 0.77537 0.19629 0.97539 0.0
C2129 C 0.78114 0.18283 0.99233 0.0
C2130 C 0.75105 0.24456 0.93187 0.0
C2131 C 0.76881 0.26408 0.92937 0.0
C2132 C 0.75476 0.23018 0.94868 0.0
C2133 C 0.77616 0.23543 0.96324 0.0
C2134 C 0.79371 0.2552 0.9609 0.0
C2135 C 0.79006 0.2694 0.94412 0.0
H2136 H 0.1072 0.51117 0.22176 0.0
H2137 H 0.17005 0.54996 0.19933 0.0
H2138 H 0.08688 0.50702 0.18166 0.0
H2139 H 0.14958 0.54549 0.15897 0.0
H2140 H 0.06111 0.55375 0.12761 0.0
H2141 H 0.08211 0.54715 0.16396 0.0
H2142 H 0.12154 0.51105 0.12235 0.0
H2143 H 0.10035 0.51709 0.08593 0.0
C2144 C 0.11682 0.5181 0.20802 0.0
C2145 C 0.14004 0.53113 0.21356 0.0
C2146 C 0.1052 0.51576 0.18522 0.0
C2147 C 0.11672 0.52624 0.16764 0.0
C2148 C 0.14051 0.53723 0.17243 0.0
C2149 C 0.15219 0.53967 0.19539 0.0
C2150 C 0.07397 0.54408 0.12619 0.0
C2151 C 0.07918 0.53606 0.10397 0.0
C2152 C 0.08593 0.54032 0.14691 0.0
C2153 C 0.10327 0.52859 0.14566 0.0
C2154 C 0.10825 0.5202 0.12355 0.0
C2155 C 0.09614 0.52373 0.10282 0.0
H2156 H 0.8029 0.90617 0.46792 0.0
H2157 H 0.81725 0.84593 0.49488 0.0
H2158 H 0.80483 0.88904 0.42761 0.0
H2159 H 0.81939 0.82881 0.45431 0.0
H2160 H 0.84057 0.81812 0.37678 0.0
H2161 H 0.84284 0.83581 0.41838 0.0
H2162 H 0.77902 0.85385 0.40039 0.0
H2163 H 0.77674 0.83644 0.35949 0.0
C2164 C 0.80668 0.88935 0.46529 0.0
C2165 C 0.80975 0.87736 0.48465 0.0
C2166 C 0.80771 0.87949 0.44214 0.0
C2167 C 0.81215 0.85749 0.43769 0.0
C2168 C 0.81606 0.84583 0.45714 0.0
C2169 C 0.8147 0.85558 0.48035 0.0
C2170 C 0.82707 0.82586 0.38179 0.0
C2171 C 0.80836 0.82562 0.36477 0.0
C2172 C 0.82831 0.83589 0.4056 0.0
C2173 C 0.81114 0.84632 0.41269 0.0
C2174 C 0.79264 0.84618 0.39557 0.0
C2175 C 0.79123 0.83593 0.37207 0.0
H2176 H 0.50781 0.53429 0.83561 0.0
H2177 H 0.45183 0.55511 0.8648 0.0
H2178 H 0.52533 0.53236 0.87585 0.0
H2179 H 0.4695 0.55357 0.90483 0.0
H2180 H 0.52519 0.58051 0.9707 0.0
H2181 H 0.50751 0.57855 0.93009 0.0
H2182 H 0.51604 0.50933 0.91271 0.0
H2183 H 0.53362 0.51102 0.95399 0.0
C2184 C 0.49921 0.53836 0.85057 0.0
C2185 C 0.47847 0.54497 0.84699 0.0
C2186 C 0.50917 0.53712 0.87359 0.0
C2187 C 0.49885 0.54291 0.89352 0.0
C2188 C 0.47796 0.54917 0.88985 0.0
C2189 C 0.46781 0.54999 0.86689 0.0
C2190 C 0.52346 0.56482 0.95832 0.0
C2191 C 0.53094 0.54591 0.96571 0.0
C2192 C 0.51315 0.56368 0.93501 0.0
C2193 C 0.51027 0.54377 0.9182 0.0
C2194 C 0.5181 0.52494 0.92529 0.0
C2195 C 0.52809 0.52589 0.94891 0.0
H2196 H 0.78843 0.17791 0.14469 0.0
H2197 H 0.85599 0.21713 0.13373 0.0
H2198 H 0.7928 0.20123 0.18309 0.0
H2199 H 0.86145 0.2397 0.17324 0.0
H2200 H 0.83736 0.30141 0.20953 0.0
H2201 H 0.84445 0.27036 0.18206 0.0
H2202 H 0.80737 0.2185 0.2213 0.0
H2203 H 0.79842 0.249 0.24647 0.0
C2204 C 0.80493 0.19043 0.15138 0.0
C2205 C 0.82185 0.19597 0.13651 0.0
C2206 C 0.80749 0.20399 0.17341 0.0
C2207 C 0.82726 0.22293 0.18088 0.0
C2208 C 0.84573 0.22577 0.16754 0.0
C2209 C 0.84286 0.21258 0.1452 0.0
C2210 C 0.83063 0.28333 0.21192 0.0
C2211 C 0.81722 0.27754 0.22988 0.0
C2212 C 0.83511 0.26554 0.19666 0.0
C2213 C 0.82648 0.24184 0.19952 0.0
C2214 C 0.81401 0.23641 0.21831 0.0
C2215 C 0.80903 0.25401 0.23292 0.0
H2216 H 0.2035 0.5913 0.35056 0.0
H2217 H 0.13506 0.54605 0.32531 0.0
H2218 H 0.18769 0.61237 0.38133 0.0
H2219 H 0.11953 0.56667 0.3557 0.0
H2220 H 0.09028 0.61608 0.39088 0.0
H2221 H 0.11398 0.60664 0.36168 0.0
H2222 H 0.16723 0.6054 0.4178 0.0
H2223 H 0.14411 0.61649 0.44734 0.0
C2224 C 0.18524 0.5856 0.35193 0.0
C2225 C 0.1704 0.56721 0.33561 0.0
C2226 C 0.17622 0.59774 0.3693 0.0
C2227 C 0.15234 0.59157 0.3703 0.0
C2228 C 0.13789 0.57232 0.35476 0.0
C2229 C 0.14681 0.56032 0.33758 0.0
C2230 C 0.10747 0.61499 0.39714 0.0
C2231 C 0.11504 0.61638 0.42147 0.0
C2232 C 0.12092 0.60924 0.38036 0.0
C2233 C 0.14197 0.60445 0.38761 0.0
C2234 C 0.1509 0.60872 0.41181 0.0
C2235 C 0.13756 0.61485 0.42867 0.0
H2236 H 0.80864 0.83126 0.60246 0.0
H2237 H 0.79615 0.89827 0.62356 0.0
H2238 H 0.80304 0.82073 0.64133 0.0
H2239 H 0.79007 0.88731 0.66309 0.0
H2240 H 0.8093 0.86497 0.73878 0.0
H2241 H 0.81107 0.87908 0.70014 0.0
H2242 H 0.77268 0.8102 0.66502 0.0
H2243 H 0.77133 0.79612 0.70313 0.0
C2244 C 0.80453 0.8438 0.61533 0.0
C2245 C 0.80284 0.86569 0.60962 0.0
C2246 C 0.80112 0.83761 0.63776 0.0
C2247 C 0.79585 0.85301 0.65544 0.0
C2248 C 0.79418 0.87501 0.64994 0.0
C2249 C 0.7975 0.88124 0.62722 0.0
C2250 C 0.80096 0.85296 0.7228 0.0
C2251 C 0.79042 0.82931 0.72414 0.0
C2252 C 0.80193 0.86107 0.70063 0.0
C2253 C 0.79239 0.8457 0.67933 0.0
C2254 C 0.78076 0.82244 0.68092 0.0
C2255 C 0.77987 0.81436 0.7029 0.0
H2256 H 0.78251 0.49836 0.54436 0.0
H2257 H 0.72242 0.439 0.53621 0.0
H2258 H 0.76037 0.52375 0.56028 0.0
H2259 H 0.70042 0.46438 0.5529 0.0
H2260 H 0.66372 0.52156 0.54125 0.0
H2261 H 0.68637 0.49384 0.53493 0.0
H2262 H 0.73905 0.5345 0.59185 0.0
H2263 H 0.71652 0.563 0.59756 0.0
C2264 C 0.76472 0.49065 0.54651 0.0
C2265 C 0.75401 0.46683 0.53871 0.0
C2266 C 0.75211 0.50517 0.55582 0.0
C2267 C 0.72866 0.49602 0.55758 0.0
C2268 C 0.71841 0.47188 0.55133 0.0
C2269 C 0.73099 0.45738 0.54187 0.0
C2270 C 0.68023 0.52468 0.55229 0.0
C2271 C 0.6887 0.54459 0.56955 0.0
C2272 C 0.69298 0.50858 0.54899 0.0
C2273 C 0.71437 0.51198 0.56303 0.0
C2274 C 0.72262 0.53159 0.58075 0.0
C2275 C 0.70979 0.5478 0.58405 0.0
H2276 H 0.19672 0.19849 0.50785 0.0
H2277 H 0.23607 0.14763 0.51277 0.0
H2278 H 0.16162 0.16852 0.51024 0.0
H2279 H 0.20084 0.11745 0.5143 0.0
H2280 H 0.13819 0.07722 0.54601 0.0
H2281 H 0.17365 0.10536 0.54046 0.0
H2282 H 0.13434 0.13444 0.49021 0.0
H2283 H 0.09901 0.10697 0.49641 0.0
C2284 C 0.19784 0.18083 0.50902 0.0
C2285 C 0.21926 0.17554 0.51017 0.0
C2286 C 0.17765 0.16355 0.5103 0.0
C2287 C 0.17832 0.14048 0.51255 0.0
C2288 C 0.19968 0.13508 0.51303 0.0
C2289 C 0.21989 0.15239 0.51195 0.0
C2290 C 0.13721 0.08949 0.53362 0.0
C2291 C 0.11579 0.08995 0.52179 0.0
C2292 C 0.15755 0.1056 0.53035 0.0
C2293 C 0.15692 0.12238 0.515 0.0
C2294 C 0.13551 0.12219 0.50257 0.0
C2295 C 0.11522 0.10628 0.50601 0.0
H2296 H 0.14875 0.98225 0.79782 0.0
H2297 H 0.20564 0.03472 0.78009 0.0
H2298 H 0.17136 0.95359 0.79433 0.0
H2299 H 0.22789 1.00624 0.77623 0.0
H2300 H 0.2719 0.95988 0.79894 0.0
H2301 H 0.24737 0.98631 0.80243 0.0
H2302 H 0.18866 0.93114 0.76647 0.0
H2303 H 0.21309 0.9043 0.76384 0.0
C2304 C 0.16591 0.98756 0.79283 0.0
C2305 C 0.17542 1.01077 0.78932 0.0
C2306 C 0.17886 0.97116 0.79082 0.0
C2307 C 0.20158 0.97771 0.78532 0.0
C2308 C 0.21068 1.00072 0.78103 0.0
C2309 C 0.1978 0.01702 0.78303 0.0
C2310 C 0.25371 0.95323 0.79208 0.0
C2311 C 0.24453 0.92995 0.78102 0.0
C2312 C 0.23967 0.96849 0.7938 0.0
C2313 C 0.21608 0.96094 0.78446 0.0
C2314 C 0.20674 0.93752 0.7739 0.0
C2315 C 0.22081 0.92221 0.77217 0.0
H2316 H 0.34787 0.97841 1.00659 0.0
H2317 H 0.36755 0.9195 0.97193 0.0
H2318 H 0.38792 1.00105 0.01388 0.0
H2319 H 0.40804 0.94284 0.97906 0.0
H2320 H 0.47234 1.00794 0.97686 0.0
H2321 H 0.43262 0.98341 0.96711 0.0
H2322 H 0.4234 0.99441 0.04099 0.0
H2323 H 0.46327 0.0187 0.05095 0.0
C2324 C 0.36065 0.97032 1.00019 0.0
C2325 C 0.35447 0.947 0.98876 0.0
C2326 C 0.38361 0.98333 1.00457 0.0
C2327 C 0.40089 0.97349 0.99732 0.0
C2328 C 0.39484 0.95065 0.98486 0.0
C2329 C 0.37175 0.93739 0.98076 0.0
C2330 C 0.46182 1.00516 0.99102 0.0
C2331 C 0.47074 0.01538 0.01464 0.0
C2332 C 0.43925 0.99098 0.98544 0.0
C2333 C 0.42517 0.98715 1.00332 0.0
C2334 C 0.43405 0.99727 0.02693 0.0
C2335 C 0.45676 1.01113 0.0326 0.0
H2336 H 0.90436 0.62451 0.78945 0.0
H2337 H 0.84955 0.56067 0.78366 0.0
H2338 H 0.87702 0.64368 0.77201 0.0
H2339 H 0.82229 0.57961 0.76545 0.0
H2340 H 0.77984 0.6349 0.77237 0.0
H2341 H 0.8046 0.60923 0.78 0.0
H2342 H 0.85257 0.64537 0.73674 0.0
H2343 H 0.82801 0.67146 0.72998 0.0
C2344 C 0.88655 0.61448 0.78405 0.0
C2345 C 0.87899 0.59123 0.78807 0.0
C2346 C 0.87092 0.62537 0.77386 0.0
C2347 C 0.84752 0.61308 0.76732 0.0
C2348 C 0.84017 0.58955 0.77056 0.0
C2349 C 0.85577 0.57873 0.78093 0.0
C2350 C 0.79529 0.63666 0.76391 0.0
C2351 C 0.80216 0.65474 0.7505 0.0
C2352 C 0.80947 0.62207 0.76822 0.0
C2353 C 0.83063 0.62548 0.75912 0.0
C2354 C 0.83654 0.64261 0.74425 0.0
C2355 C 0.82245 0.65729 0.74013 0.0
H2356 H 0.87207 0.70396 0.03713 0.0
H2357 H 0.81836 0.64309 0.04519 0.0
H2358 H 0.9007 0.68154 0.04168 0.0
H2359 H 0.84675 0.62098 0.04981 0.0
H2360 H 0.8971 0.58066 0.02771 0.0
H2361 H 0.87055 0.60506 0.02371 0.0
H2362 H 0.91934 0.6616 0.07125 0.0
H2363 H 0.94623 0.6373 0.07483 0.0
C2364 C 0.86643 0.68594 0.04014 0.0
C2365 C 0.84295 0.67531 0.04075 0.0
C2366 C 0.8828 0.67312 0.04276 0.0
C2367 C 0.87592 0.64942 0.04582 0.0
C2368 C 0.85254 0.63907 0.04703 0.0
C2369 C 0.83629 0.65184 0.04457 0.0
C2370 C 0.90229 0.59838 0.0371 0.0
C2371 C 0.92374 0.60701 0.05165 0.0
C2372 C 0.88699 0.61228 0.035 0.0
C2373 C 0.89278 0.6352 0.04732 0.0
C2374 C 0.91443 0.64405 0.06147 0.0
C2375 C 0.92971 0.63006 0.0637 0.0
H2376 H 0.20349 0.11785 0.82372 0.0
H2377 H 0.15276 0.15709 0.81678 0.0
H2378 H 0.23422 0.15322 0.82373 0.0
H2379 H 0.18323 0.1922 0.81552 0.0
H2380 H 0.24149 0.25647 0.82841 0.0
H2381 H 0.21403 0.22146 0.836 0.0
H2382 H 0.25112 0.17875 0.79875 0.0
H2383 H 0.27934 0.21418 0.79251 0.0
C2384 C 0.1989 0.13407 0.82221 0.0
C2385 C 0.17566 0.13466 0.82028 0.0
C2386 C 0.21654 0.15436 0.82201 0.0
C2387 C 0.21138 0.17571 0.81951 0.0
C2388 C 0.18809 0.17629 0.81796 0.0
C2389 C 0.17049 0.15608 0.81856 0.0
C2390 C 0.24392 0.23953 0.82227 0.0
C2391 C 0.26242 0.23787 0.80991 0.0
C2392 C 0.22805 0.21942 0.82636 0.0
C2393 C 0.22995 0.19709 0.81762 0.0
C2394 C 0.24912 0.19555 0.80601 0.0
C2395 C 0.26533 0.2158 0.80237 0.0
H2396 H 0.3807 1.00912 0.35267 0.0
H2397 H 0.43767 0.98335 0.33286 0.0
H2398 H 0.35629 0.96916 0.34807 0.0
H2399 H 0.4131 0.94362 0.32655 0.0
H2400 H 0.36826 0.87216 0.32565 0.0
H2401 H 0.39274 0.91127 0.34022 0.0
H2402 H 0.33642 0.94006 0.31759 0.0
H2403 H 0.31149 0.90053 0.30475 0.0
C2404 C 0.38804 0.99481 0.34765 0.0
C2405 C 0.41104 0.99921 0.3432 0.0
C2406 C 0.37399 0.97192 0.34465 0.0
C2407 C 0.38248 0.95304 0.33648 0.0
C2408 C 0.40591 0.95753 0.33319 0.0
C2409 C 0.42009 0.98037 0.33679 0.0
C2410 C 0.36116 0.88693 0.32391 0.0
C2411 C 0.33814 0.88352 0.31387 0.0
C2412 C 0.37522 0.90938 0.33216 0.0
C2413 C 0.36677 0.92902 0.32991 0.0
C2414 C 0.34351 0.92545 0.32007 0.0
C2415 C 0.32923 0.90286 0.31245 0.0
H2416 H 0.56818 0.39408 0.63369 0.0
H2417 H 0.60201 0.37877 0.57357 0.0
H2418 H 0.56302 0.4295 0.61899 0.0
H2419 H 0.5975 0.41504 0.55914 0.0
H2420 H 0.60415 0.49736 0.55704 0.0
H2421 H 0.6105 0.46119 0.57001 0.0
H2422 H 0.54031 0.44116 0.5848 0.0
H2423 H 0.5338 0.47662 0.57125 0.0
C2424 C 0.57474 0.39826 0.61735 0.0
C2425 C 0.58559 0.38309 0.60501 0.0
C2426 C 0.57165 0.41876 0.60879 0.0
C2427 C 0.57979 0.42562 0.58772 0.0
C2428 C 0.59104 0.41072 0.57548 0.0
C2429 C 0.59357 0.38972 0.58375 0.0
C2430 C 0.59001 0.48524 0.56296 0.0
C2431 C 0.56838 0.49034 0.56291 0.0
C2432 C 0.59363 0.46427 0.57035 0.0
C2433 C 0.57599 0.44783 0.57867 0.0
C2434 C 0.5545 0.45314 0.57877 0.0
C2435 C 0.55072 0.47367 0.57083 0.0
H2436 H 0.45693 0.76836 0.40015 0.0
H2437 H 0.43531 0.8116 0.45392 0.0
H2438 H 0.42454 0.77015 0.37172 0.0
H2439 H 0.40399 0.81471 0.42551 0.0
H2440 H 0.33809 0.80544 0.37635 0.0
H2441 H 0.36878 0.80004 0.40436 0.0
H2442 H 0.40747 0.7895 0.34648 0.0
H2443 H 0.37587 0.79341 0.31846 0.0
C2444 C 0.44532 0.77834 0.40593 0.0
C2445 C 0.44878 0.78961 0.42956 0.0
C2446 C 0.4267 0.77961 0.38946 0.0
C2447 C 0.41109 0.79258 0.39588 0.0
C2448 C 0.41486 0.80397 0.41957 0.0
C2449 C 0.43314 0.80234 0.43606 0.0
C2450 C 0.35311 0.80184 0.36959 0.0
C2451 C 0.35438 0.79989 0.34504 0.0
C2452 C 0.37104 0.79894 0.38579 0.0
C2453 C 0.39126 0.79454 0.37817 0.0
C2454 C 0.39233 0.79246 0.35345 0.0
C2455 C 0.37414 0.79486 0.3372 0.0
H2456 H 0.10753 0.75549 0.06892 0.0
H2457 H 0.05644 0.74465 0.11675 0.0
H2458 H 0.10092 0.71353 0.05894 0.0
H2459 H 0.04984 0.70212 0.10675 0.0
H2460 H 0.02797 0.62601 0.06564 0.0
H2461 H 0.03419 0.66803 0.07704 0.0
H2462 H 0.10675 0.6789 0.07184 0.0
H2463 H 0.10043 0.63683 0.06021 0.0
C2464 C 0.09481 0.74422 0.07744 0.0
C2465 C 0.08256 0.754 0.09376 0.0
C2466 C 0.09113 0.71983 0.07177 0.0
C2467 C 0.07487 0.70384 0.08197 0.0
C2468 C 0.06241 0.71354 0.09822 0.0
C2469 C 0.06628 0.73812 0.1041 0.0
C2470 C 0.04532 0.63728 0.0669 0.0
C2471 C 0.06364 0.62759 0.06179 0.0
C2472 C 0.04894 0.66161 0.07367 0.0
C2473 C 0.07103 0.67744 0.07547 0.0
C2474 C 0.08937 0.66769 0.07044 0.0
C2475 C 0.08577 0.64332 0.06383 0.0
H2476 H 0.09763 0.31059 0.94895 0.0
H2477 H 0.05095 0.26966 0.8878 0.0
H2478 H 0.12976 0.31455 0.92572 0.0
H2479 H 0.08291 0.27388 0.8645 0.0
H2480 H 0.14858 0.26911 0.83405 0.0
H2481 H 0.11799 0.26284 0.85918 0.0
H2482 H 0.14401 0.33445 0.89353 0.0
H2483 H 0.17502 0.34048 0.86897 0.0
C2484 C 0.09424 0.30227 0.93061 0.0
C2485 C 0.07168 0.28977 0.92029 0.0
C2486 C 0.11265 0.30472 0.9172 0.0
C2487 C 0.10901 0.29464 0.89313 0.0
C2488 C 0.0865 0.28167 0.88301 0.0
C2489 C 0.0681 0.27932 0.89638 0.0
C2490 C 0.14797 0.28346 0.84715 0.0
C2491 C 0.16433 0.30534 0.84936 0.0
C2492 C 0.13024 0.27993 0.86143 0.0
C2493 C 0.1284 0.29813 0.87842 0.0
C2494 C 0.14494 0.31992 0.88084 0.0
C2495 C 0.16261 0.32348 0.8665 0.0
H2496 H 0.59318 0.78229 0.91185 0.0
H2497 H 0.51904 0.76848 0.90359 0.0
H2498 H 0.59061 0.74807 0.93271 0.0
H2499 H 0.5163 0.73435 0.92384 0.0
H2500 H 0.52271 0.70361 0.99256 0.0
H2501 H 0.52658 0.73276 0.96595 0.0
H2502 H 0.57622 0.70434 0.93238 0.0
H2503 H 0.57198 0.67448 0.95886 0.0
C2504 C 0.57633 0.77133 0.91356 0.0
C2505 C 0.55629 0.77782 0.9059 0.0
C2506 C 0.57482 0.75187 0.92568 0.0
C2507 C 0.55326 0.73875 0.9304 0.0
C2508 C 0.53321 0.74433 0.92101 0.0
C2509 C 0.53473 0.76367 0.90907 0.0
C2510 C 0.5342 0.70318 0.97932 0.0
C2511 C 0.54676 0.68632 0.9778 0.0
C2512 C 0.53646 0.72002 0.96401 0.0
C2513 C 0.55147 0.72072 0.94673 0.0
C2514 C 0.56453 0.70431 0.94549 0.0
C2515 C 0.56213 0.68724 0.96076 0.0
H2516 H 0.1144 0.81688 0.73718 0.0
H2517 H 0.102 0.74235 0.72087 0.0
H2518 H 0.15403 0.82033 0.75434 0.0
H2519 H 0.14194 0.7455 0.73691 0.0
H2520 H 0.21515 0.75516 0.77571 0.0
H2521 H 0.17391 0.75095 0.76447 0.0
H2522 H 0.19008 0.82126 0.74696 0.0
H2523 H 0.23071 0.82562 0.75922 0.0
C2524 C 0.11992 0.80106 0.73799 0.0
C2525 C 0.10445 0.77923 0.72847 0.0
C2526 C 0.14309 0.80302 0.74732 0.0
C2527 C 0.15209 0.78327 0.74697 0.0
C2528 C 0.13622 0.7613 0.73808 0.0
C2529 C 0.11298 0.75937 0.72896 0.0
C2530 C 0.20988 0.76974 0.76952 0.0
C2531 C 0.22666 0.79077 0.76858 0.0
C2532 C 0.18598 0.76732 0.76287 0.0
C2533 C 0.17783 0.78575 0.75473 0.0
C2534 C 0.19486 0.80666 0.75361 0.0
C2535 C 0.21858 0.80914 0.76052 0.0
H2536 H 0.07192 0.41953 0.37607 0.0
H2537 H 0.07218 0.38523 0.4385 0.0
H2538 H 0.06586 0.45398 0.3999 0.0
H2539 H 0.0671 0.41927 0.46212 0.0
H2540 H 0.03275 0.46973 0.49549 0.0
H2541 H 0.0389 0.43795 0.4692 0.0
H2542 H 0.08053 0.48746 0.43114 0.0
H2543 H 0.07356 0.51979 0.45742 0.0
C2544 C 0.07088 0.41938 0.39484 0.0
C2545 C 0.07231 0.39939 0.40521 0.0
C2546 C 0.0675 0.43919 0.40859 0.0
C2547 C 0.06552 0.43953 0.43306 0.0
C2548 C 0.06773 0.41971 0.44332 0.0
C2549 C 0.07087 0.40006 0.42968 0.0
C2550 C 0.04327 0.47406 0.48158 0.0
C2551 C 0.05282 0.49756 0.47891 0.0
C2552 C 0.04697 0.45564 0.46643 0.0
C2553 C 0.06066 0.45982 0.44808 0.0
C2554 C 0.06985 0.48335 0.44494 0.0
C2555 C 0.06595 0.50197 0.46013 0.0
H2556 H 0.48486 0.27531 0.26435 0.0
H2557 H 0.45155 0.26706 0.19232 0.0
H2558 H 0.44919 0.27974 0.27905 0.0
H2559 H 0.41619 0.27157 0.20677 0.0
H2560 H 0.34781 0.26188 0.23737 0.0
H2561 H 0.38323 0.25576 0.22426 0.0
H2562 H 0.42339 0.30392 0.28489 0.0
H2563 H 0.38775 0.30986 0.29811 0.0
C2564 C 0.46994 0.27419 0.25155 0.0
C2565 C 0.47147 0.27057 0.22697 0.0
C2566 C 0.44932 0.27699 0.26003 0.0
C2567 C 0.42918 0.27606 0.24433 0.0
C2568 C 0.43077 0.27213 0.21977 0.0
C2569 C 0.45137 0.26958 0.21135 0.0
C2570 C 0.36411 0.27116 0.24809 0.0
C2571 C 0.36441 0.28642 0.269 0.0
C2572 C 0.38474 0.26777 0.24038 0.0
C2573 C 0.40682 0.27934 0.25322 0.0
C2574 C 0.40708 0.29436 0.27436 0.0
C2575 C 0.38641 0.2979 0.28199 0.0
H2576 H 0.5962 0.57213 0.35671 0.0
H2577 H 0.65008 0.54135 0.38144 0.0
H2578 H 0.58125 0.56937 0.39495 0.0
H2579 H 0.63464 0.53803 0.41929 0.0
H2580 H 0.56713 0.51346 0.46525 0.0
H2581 H 0.5816 0.51491 0.4266 0.0
H2582 H 0.61236 0.58907 0.44562 0.0
H2583 H 0.59864 0.58772 0.48428 0.0
C2584 C 0.60479 0.56471 0.37023 0.0
C2585 C 0.6244 0.55707 0.36606 0.0
C2586 C 0.59619 0.56309 0.39204 0.0
C2587 C 0.6067 0.5533 0.40989 0.0
C2588 C 0.62616 0.54549 0.40572 0.0
C2589 C 0.63505 0.54754 0.38412 0.0
C2590 C 0.57706 0.53004 0.46123 0.0
C2591 C 0.58183 0.55042 0.47798 0.0
C2592 C 0.58531 0.53085 0.43914 0.0
C2593 C 0.598 0.55213 0.43321 0.0
C2594 C 0.60259 0.57248 0.44979 0.0
C2595 C 0.59479 0.57161 0.47196 0.0
H2596 H 0.26911 0.86786 0.05543 0.0
H2597 H 0.32339 0.93233 0.0738 0.0
H2598 H 0.28009 0.85595 0.0933 0.0
H2599 H 0.33546 0.9199 0.11118 0.0
H2600 H 0.34323 0.89368 0.18285 0.0
H2601 H 0.32821 0.90999 0.1494 0.0
H2602 H 0.31199 0.84219 0.10596 0.0
H2603 H 0.32504 0.82558 0.13966 0.0
C2604 C 0.28322 0.87955 0.06782 0.0
C2605 C 0.29563 0.90079 0.06187 0.0
C2606 C 0.28968 0.8727 0.08932 0.0
C2607 C 0.30908 0.88669 0.10484 0.0
C2608 C 0.32043 0.90877 0.09959 0.0
C2609 C 0.31358 0.91588 0.07825 0.0
C2610 C 0.33632 0.88228 0.16615 0.0
C2611 C 0.33521 0.85832 0.16393 0.0
C2612 C 0.32788 0.89166 0.14699 0.0
C2613 C 0.3185 0.87726 0.12522 0.0
C2614 C 0.31846 0.85359 0.12273 0.0
C2615 C 0.3265 0.84417 0.14192 0.0
H2616 H 0.98853 0.58903 0.86035 0.0
H2617 H 0.92975 0.58876 0.89744 0.0
H2618 H 1.01188 0.58863 0.89747 0.0
H2619 H 0.95345 0.58913 0.93489 0.0
H2620 H 0.98748 0.54548 0.98061 0.0
H2621 H 0.96713 0.55688 0.94732 0.0
H2622 H 0.03006 0.60674 0.93777 0.0
H2623 H 0.05085 0.59493 0.97128 0.0
C2624 C 0.98078 0.58953 0.87658 0.0
C2625 C 0.95721 0.5884 0.87601 0.0
C2626 C 0.99424 0.5895 0.89787 0.0
C2627 C 0.98435 0.58843 0.91896 0.0
C2628 C 0.96134 0.58948 0.91873 0.0
C2629 C 0.94782 0.58942 0.89737 0.0
C2630 C 0.99709 0.5589 0.97151 0.0
C2631 C 0.02084 0.56922 0.97848 0.0
C2632 C 0.9853 0.56567 0.95259 0.0
C2633 C 0.99692 0.58297 0.9402 0.0
C2634 C 0.0207 0.59335 0.94708 0.0
C2635 C 0.03259 0.58653 0.96613 0.0
H2636 H 0.31345 0.22629 0.60193 0.0
H2637 H 0.26011 0.26096 0.58678 0.0
H2638 H 0.31473 0.23847 0.64447 0.0
H2639 H 0.26045 0.27204 0.62888 0.0
H2640 H 0.28 0.30839 0.70516 0.0
H2641 H 0.27966 0.29669 0.66284 0.0
H2642 H 0.29655 0.23318 0.67796 0.0
H2643 H 0.29796 0.24552 0.72019 0.0
C2644 C 0.30188 0.23633 0.60765 0.0
C2645 C 0.28686 0.24278 0.5908 0.0
C2646 C 0.30245 0.24324 0.63213 0.0
C2647 C 0.28774 0.25645 0.64047 0.0
C2648 C 0.27251 0.26248 0.62347 0.0
C2649 C 0.2722 0.25592 0.59913 0.0
C2650 C 0.28349 0.29187 0.69941 0.0
C2651 C 0.28897 0.27795 0.71616 0.0
C2652 C 0.28323 0.28503 0.67502 0.0
C2653 C 0.28811 0.26386 0.66661 0.0
C2654 C 0.29319 0.24979 0.68349 0.0
C2655 C 0.29376 0.2568 0.70784 0.0
H2656 H 0.57374 0.57269 0.24277 0.0
H2657 H 0.63735 0.55686 0.22859 0.0
H2658 H 0.56205 0.57064 0.20048 0.0
H2659 H 0.62597 0.55557 0.18611 0.0
H2660 H 0.58941 0.53232 0.11017 0.0
H2661 H 0.60076 0.53391 0.15241 0.0
H2662 H 0.56865 0.58994 0.16716 0.0
H2663 H 0.55651 0.58773 0.12461 0.0
C2664 C 0.58534 0.56885 0.23065 0.0
C2665 C 0.60654 0.56492 0.23927 0.0
C2666 C 0.57867 0.56787 0.20626 0.0
C2667 C 0.59303 0.56308 0.18961 0.0
C2668 C 0.61421 0.559 0.19822 0.0
C2669 C 0.62084 0.55983 0.22268 0.0
C2670 C 0.58475 0.54505 0.12235 0.0
C2671 C 0.57203 0.55995 0.11384 0.0
C2672 C 0.59144 0.54606 0.14673 0.0
C2673 C 0.58582 0.56213 0.16347 0.0
C2674 C 0.57308 0.57707 0.15495 0.0
C2675 C 0.56619 0.57592 0.13048 0.0
H2676 H 0.27409 0.9363 0.92499 0.0
H2677 H 0.24893 0.87332 0.95556 0.0
H2678 H 0.27296 0.91247 0.88689 0.0
H2679 H 0.24865 0.8497 0.91825 0.0
H2680 H 0.25114 0.81027 0.8486 0.0
H2681 H 0.23718 0.83562 0.87677 0.0
H2682 H 0.30039 0.89038 0.87962 0.0
H2683 H 0.31386 0.86555 0.8513 0.0
C2684 C 0.26771 0.91745 0.92334 0.0
C2685 C 0.2622 0.90652 0.94318 0.0
C2686 C 0.26718 0.90382 0.90168 0.0
C2687 C 0.26127 0.87926 0.89983 0.0
C2688 C 0.25326 0.86855 0.91904 0.0
C2689 C 0.25369 0.8821 0.94053 0.0
C2690 C 0.26198 0.82771 0.8554 0.0
C2691 C 0.2837 0.83587 0.84817 0.0
C2692 C 0.25392 0.84227 0.87124 0.0
C2693 C 0.26758 0.86507 0.88016 0.0
C2694 C 0.28915 0.87318 0.87259 0.0
C2695 C 0.29709 0.85876 0.85671 0.0
H2696 H 0.93103 0.55508 0.74248 0.0
H2697 H 0.94522 0.49525 0.77037 0.0
H2698 H 0.93794 0.53981 0.70319 0.0
H2699 H 0.95088 0.47922 0.73101 0.0
H2700 H 1.00445 0.48966 0.67844 0.0
H2701 H 0.98396 0.49333 0.71214 0.0
H2702 H 0.93013 0.51088 0.66778 0.0
H2703 H 0.95092 0.50722 0.63373 0.0
C2704 C 0.93476 0.53823 0.73988 0.0
C2705 C 0.93814 0.52648 0.75924 0.0
C2706 C 0.93858 0.52939 0.71744 0.0
C2707 C 0.94542 0.50853 0.71418 0.0
C2708 C 0.94624 0.49563 0.73316 0.0
C2709 C 0.94294 0.50471 0.7556 0.0
C2710 C 0.9879 0.49358 0.67566 0.0
C2711 C 0.97936 0.49832 0.65354 0.0
C2712 C 0.97607 0.49564 0.695 0.0
C2713 C 0.95539 0.50241 0.69262 0.0
C2714 C 0.94615 0.50588 0.67016 0.0
C2715 C 0.95804 0.50382 0.65075 0.0
H2716 H 0.29296 0.25945 0.47631 0.0
H2717 H 0.29819 0.19255 0.4437 0.0
H2718 H 0.29543 0.27408 0.43827 0.0
H2719 H 0.30126 0.20729 0.40573 0.0
H2720 H 0.28428 0.23473 0.33569 0.0
H2721 H 0.28125 0.2191 0.3732 0.0
H2722 H 0.32176 0.28607 0.41127 0.0
H2723 H 0.32428 0.3018 0.37395 0.0
C2724 C 0.29464 0.24784 0.46101 0.0
C2725 C 0.29538 0.22481 0.46314 0.0
C2726 C 0.29626 0.2563 0.43915 0.0
C2727 C 0.29874 0.24199 0.41874 0.0
C2728 C 0.29914 0.21882 0.42086 0.0
C2729 C 0.29747 0.21036 0.44273 0.0
C2730 C 0.29271 0.24609 0.35204 0.0
C2731 C 0.30452 0.26958 0.35163 0.0
C2732 C 0.29101 0.23708 0.37364 0.0
C2733 C 0.30108 0.2513 0.3955 0.0
C2734 C 0.31332 0.27464 0.39497 0.0
C2735 C 0.31497 0.28364 0.37343 0.0
H2736 H 0.32221 0.59475 0.56617 0.0
H2737 H 0.37059 0.65385 0.54613 0.0
H2738 H 0.34875 0.57079 0.55916 0.0
H2739 H 0.39668 0.62986 0.53857 0.0
H2740 H 0.44639 0.58664 0.54162 0.0
H2741 H 0.42147 0.60922 0.55712 0.0
H2742 H 0.36136 0.55427 0.52345 0.0
H2743 H 0.3865 0.5314 0.50837 0.0
C2744 C 0.3386 0.60266 0.56052 0.0
C2745 C 0.34434 0.62605 0.55649 0.0
C2746 C 0.35367 0.58893 0.55638 0.0
C2747 C 0.37463 0.59845 0.54819 0.0
C2748 C 0.38074 0.62213 0.54515 0.0
C2749 C 0.36574 0.63583 0.54933 0.0
C2750 C 0.42783 0.57945 0.53755 0.0
C2751 C 0.41821 0.55759 0.52345 0.0
C2752 C 0.41362 0.5923 0.54646 0.0
C2753 C 0.38954 0.58356 0.54128 0.0
C2754 C 0.3799 0.56128 0.5279 0.0
C2755 C 0.39418 0.5483 0.51913 0.0
H2756 H 0.86492 0.95822 0.55427 0.0
H2757 H 0.90076 0.90409 0.55078 0.0
H2758 H 0.90151 0.98774 0.5549 0.0
H2759 H 0.93709 0.93343 0.55205 0.0
H2760 H 0.98989 0.98332 0.52059 0.0
H2761 H 0.95309 0.95707 0.52357 0.0
H2762 H 0.94067 1.008 0.57695 0.0
H2763 H 0.97805 0.03503 0.5736 0.0
C2764 C 0.88061 0.95263 0.55399 0.0
C2765 C 0.87985 0.92872 0.55214 0.0
C2766 C 0.90158 0.96958 0.55446 0.0
C2767 C 0.92216 0.96292 0.55315 0.0
C2768 C 0.92147 0.93913 0.55248 0.0
C2769 C 0.90061 0.92227 0.55186 0.0
C2770 C 0.97948 0.9891 0.53307 0.0
C2771 C 0.98713 1.01123 0.54713 0.0
C2772 C 0.95832 0.97388 0.53485 0.0
C2773 C 0.94413 0.98017 0.55088 0.0
C2774 C 0.95128 1.00262 0.56447 0.0
C2775 C 0.97265 0.01807 0.5626 0.0
H2776 H 0.89404 0.07298 0.25678 0.0
H2777 H 0.95153 0.12318 0.30128 0.0
H2778 H 0.87167 0.10149 0.25827 0.0
H2779 H 0.9288 0.15171 0.30342 0.0
H2780 H 0.88602 0.20322 0.28871 0.0
H2781 H 0.91039 0.17669 0.28281 0.0
H2782 H 0.85254 0.11807 0.28679 0.0
H2783 H 0.82801 0.14423 0.29125 0.0
C2784 C 0.90197 0.0902 0.26678 0.0
C2785 C 0.92452 0.09579 0.27902 0.0
C2786 C 0.88905 0.10652 0.26781 0.0
C2787 C 0.89825 0.12882 0.28129 0.0
C2788 C 0.92119 0.13476 0.29275 0.0
C2789 C 0.93423 0.11841 0.29158 0.0
C2790 C 0.87842 0.18463 0.28796 0.0
C2791 C 0.85499 0.17593 0.29051 0.0
C2792 C 0.89249 0.16944 0.28487 0.0
C2793 C 0.88346 0.1452 0.28424 0.0
C2794 C 0.86005 0.13656 0.28677 0.0
C2795 C 0.84601 0.15167 0.28973 0.0
H2796 H 0.73696 0.11979 0.07157 0.0
H2797 H 0.71184 0.17816 0.0533 0.0
H2798 H 0.69762 0.09472 0.06461 0.0
H2799 H 0.67242 0.15303 0.04673 0.0
H2800 H 0.61096 0.09636 0.0083 0.0
H2801 H 0.65094 0.11952 0.01642 0.0
H2802 H 0.66012 0.08905 0.0806 0.0
H2803 H 0.61974 0.06562 0.07231 0.0
C2804 C 0.72304 0.12734 0.06625 0.0
C2805 C 0.7275 0.15095 0.0628 0.0
C2806 C 0.70052 0.11297 0.06242 0.0
C2807 C 0.68209 0.12191 0.05496 0.0
C2808 C 0.68644 0.14564 0.05213 0.0
C2809 C 0.70896 0.16006 0.05606 0.0
C2810 C 0.6215 0.09457 0.02412 0.0
C2811 C 0.61225 0.07955 0.03991 0.0
C2812 C 0.64435 0.10788 0.0288 0.0
C2813 C 0.6584 0.10644 0.04939 0.0
C2814 C 0.64955 0.09049 0.06461 0.0
C2815 C 0.62656 0.07706 0.05986 0.0
H2816 H 0.19872 0.4807 0.26706 0.0
H2817 H 0.25694 0.54156 0.27313 0.0
H2818 H 0.22502 0.45654 0.27379 0.0
H2819 H 0.28331 0.51753 0.28082 0.0
H2820 H 0.32276 0.45993 0.27871 0.0
H2821 H 0.29879 0.48526 0.26628 0.0
H2822 H 0.24834 0.45461 0.31004 0.0
H2823 H 0.27196 0.42914 0.32169 0.0
C2824 C 0.21716 0.4888 0.2695 0.0
C2825 C 0.22587 0.51292 0.26987 0.0
C2826 C 0.23219 0.47507 0.27356 0.0
C2827 C 0.25613 0.48535 0.27847 0.0
C2828 C 0.26492 0.5092 0.27711 0.0
C2829 C 0.24984 0.52292 0.27271 0.0
C2830 C 0.30676 0.45917 0.28593 0.0
C2831 C 0.29906 0.44303 0.30121 0.0
C2832 C 0.29304 0.47344 0.27878 0.0
C2833 C 0.27154 0.4715 0.28683 0.0
C2834 C 0.26454 0.45602 0.30305 0.0
C2835 C 0.27814 0.44177 0.31004 0.0
H2836 H 0.27953 0.4627 0.07154 0.0
H2837 H 0.23109 0.40227 0.02901 0.0
H2838 H 0.25108 0.48491 0.06752 0.0
H2839 H 0.20272 0.42474 0.02434 0.0
H2840 H 0.15056 0.4672 0.03533 0.0
H2841 H 0.17736 0.4437 0.04309 0.0
H2842 H 0.23451 0.50244 0.03757 0.0
H2843 H 0.20795 0.52627 0.03125 0.0
C2844 C 0.26271 0.45409 0.06146 0.0
C2845 C 0.25759 0.43072 0.05056 0.0
C2846 C 0.24645 0.46691 0.05895 0.0
C2847 C 0.22467 0.45677 0.04531 0.0
C2848 C 0.21923 0.4331 0.03512 0.0
C2849 C 0.23551 0.4202 0.03775 0.0
C2850 C 0.16887 0.47521 0.03608 0.0
C2851 C 0.17702 0.49871 0.03266 0.0
C2852 C 0.18424 0.46161 0.04026 0.0
C2853 C 0.20815 0.47114 0.04105 0.0
C2854 C 0.21627 0.49458 0.03749 0.0
C2855 C 0.20094 0.50819 0.03346 0.0
H2856 H 0.89822 0.98741 0.275 0.0
H2857 H 0.9498 0.95049 0.29033 0.0
H2858 H 0.86781 0.95108 0.27225 0.0
H2859 H 0.9194 0.91437 0.28794 0.0
H2860 H 0.86218 0.84946 0.25914 0.0
H2861 H 0.89064 0.88628 0.2588 0.0
H2862 H 0.84988 0.92316 0.2977 0.0
H2863 H 0.82101 0.88613 0.29777 0.0
C2864 C 0.90312 0.97157 0.27774 0.0
C2865 C 0.92653 0.97191 0.28282 0.0
C2866 C 0.88564 0.95078 0.27632 0.0
C2867 C 0.89116 0.92981 0.27982 0.0
C2868 C 0.91455 0.93014 0.2848 0.0
C2869 C 0.932 0.95091 0.2863 0.0
C2870 C 0.85908 0.8654 0.26744 0.0
C2871 C 0.83931 0.86481 0.27857 0.0
C2872 C 0.87554 0.88652 0.26738 0.0
C2873 C 0.8727 0.90763 0.27847 0.0
C2874 C 0.85253 0.9072 0.28888 0.0
C2875 C 0.83599 0.88599 0.28895 0.0
H2876 H 0.6745 0.14088 0.79327 0.0
H2877 H 0.72683 0.11543 0.76111 0.0
H2878 H 0.69906 0.18081 0.79748 0.0
H2879 H 0.75133 0.15533 0.76552 0.0
H2880 H 0.77475 0.23328 0.75442 0.0
H2881 H 0.75104 0.19288 0.74939 0.0
H2882 H 0.7371 0.20305 0.82183 0.0
H2883 H 0.7606 0.24335 0.82695 0.0
C2884 C 0.69114 0.14381 0.78697 0.0
C2885 C 0.69873 0.12504 0.77688 0.0
C2886 C 0.70524 0.1666 0.78955 0.0
C2887 C 0.72706 0.17101 0.78191 0.0
C2888 C 0.73449 0.15234 0.77141 0.0
C2889 C 0.7205 0.12953 0.769 0.0
C2890 C 0.76677 0.22683 0.76931 0.0
C2891 C 0.76946 0.24148 0.79103 0.0
C2892 C 0.75327 0.20374 0.76644 0.0
C2893 C 0.74214 0.19505 0.78517 0.0
C2894 C 0.74524 0.20951 0.80702 0.0
C2895 C 0.75884 0.2325 0.80996 0.0
loop_
_geom_bond_atom_site_label_1
_geom_bond_atom_site_label_2
_geom_bond_distance
_geom_bond_site_symmetry_2
_ccdc_geom_bond_type
Co0 O1 2.216 . S
Co0 O2 2.091 . S
Co0 O4 2.004 . S
Co0 O10 2.021 . S
Co0 O12 2.137 . S
Co0 O13 2.244 . S
O1 Co0 2.216 . S
O1 C8 1.247 . S
O2 Co0 2.091 . S
O2 C8 1.261 . S
C3 O12 1.247 . S
C3 O13 1.272 . S
O4 Co0 2.004 . S
O4 C9 1.259 1_455 S
Co5 O6 2.061 1_455 S
Co5 O11 2.052 . S
Co5 O13 2.135 . S
O6 Co5 2.061 1_655 S
O6 C9 1.235 . S
C7 O10 1.238 . S
C7 O11 1.241 . S
C8 O1 1.247 . S
C8 O2 1.261 . S
C9 O4 1.259 1_655 S
C9 O6 1.235 . S
O10 Co0 2.021 . S
O10 C7 1.238 . S
O11 Co5 2.052 . S
O11 C7 1.241 . S
O12 Co0 2.137 . S
O12 C3 1.247 . S
O13 Co0 2.244 . S
O13 C3 1.272 . S
O13 Co5 2.135 . S
Co14 O15 2.216 1_455 S
Co14 O16 2.104 . S
Co14 O18 2.004 . S
Co14 O24 2.021 . S
Co14 O26 2.137 . S
Co14 O27 2.244 . S
O15 Co14 2.216 1_655 S
O15 C22 1.247 . S
O16 Co14 2.104 . S
O16 C22 1.246 1_455 S
C17 O26 1.247 . S
C17 O27 1.272 . S
O18 Co14 2.004 . S
O18 C23 1.259 . S
Co19 O20 2.061 . S
Co19 O25 2.052 . S
Co19 O27 2.135 . S
O20 Co19 2.061 . S
O20 C23 1.235 . S
C21 O24 1.238 . S
C21 O25 1.241 . S
C22 O15 1.247 . S
C22 O16 1.246 1_655 S
C23 O18 1.259 . S
C23 O20 1.235 . S
O24 Co14 2.021 . S
O24 C21 1.238 . S
O25 Co19 2.052 . S
O25 C21 1.241 . S
O26 Co14 2.137 . S
O26 C17 1.247 . S
O27 Co14 2.244 . S
O27 C17 1.272 . S
O27 Co19 2.135 . S
Co28 O29 2.216 . S
Co28 O30 2.091 . S
Co28 O32 2.004 . S
Co28 O38 2.021 . S
Co28 O40 2.137 . S
Co28 O41 2.244 . S
O29 Co28 2.216 . S
O29 C36 1.247 . S
O30 Co28 2.091 . S
O30 C36 1.261 . S
C31 O40 1.247 . S
C31 O41 1.272 . S
O32 Co28 2.004 . S
O32 C37 1.259 . S
Co33 O34 2.061 . S
Co33 O39 2.052 . S
Co33 O41 2.135 . S
O34 Co33 2.061 . S
O34 C37 1.235 . S
C35 O38 1.238 . S
C35 O39 1.241 . S
C36 O29 1.247 . S
C36 O30 1.261 . S
C37 O32 1.259 . S
C37 O34 1.235 . S
O38 Co28 2.021 . S
O38 C35 1.238 . S
O39 Co33 2.052 . S
O39 C35 1.241 . S
O40 Co28 2.137 . S
O40 C31 1.247 . S
O41 Co28 2.244 . S
O41 C31 1.272 . S
O41 Co33 2.135 . S
Co42 O43 2.216 . S
Co42 O44 2.091 . S
Co42 O46 2.004 . S
Co42 O52 2.021 . S
Co42 O54 2.137 . S
Co42 O55 2.244 . S
O43 Co42 2.216 . S
O43 C50 1.247 . S
O44 Co42 2.091 . S
O44 C50 1.261 . S
C45 O54 1.247 . S
C45 O55 1.272 . S
O46 Co42 2.004 . S
O46 C51 1.259 . S
Co47 O48 2.061 . S
Co47 O53 2.052 . S
Co47 O55 2.135 . S
O48 Co47 2.061 . S
O48 C51 1.235 . S
C49 O52 1.238 . S
C49 O53 1.241 . S
C50 O43 1.247 . S
C50 O44 1.261 . S
C51 O46 1.259 . S
C51 O48 1.235 . S
O52 Co42 2.021 . S
O52 C49 1.238 . S
O53 Co47 2.052 . S
O53 C49 1.241 . S
O54 Co42 2.137 . S
O54 C45 1.247 . S
O55 Co42 2.244 . S
O55 C45 1.272 . S
O55 Co47 2.135 . S
Co56 O57 2.216 . S
Co56 O58 2.091 . S
Co56 O60 2.004 . S
Co56 O66 2.021 . S
Co56 O68 2.137 . S
Co56 O69 2.244 . S
O57 Co56 2.216 . S
O57 C64 1.247 . S
O58 Co56 2.091 . S
O58 C64 1.261 . S
C59 O68 1.247 . S
C59 O69 1.272 . S
O60 Co56 2.004 . S
O60 C65 1.259 . S
Co61 O62 2.061 . S
Co61 O67 2.052 . S
Co61 O69 2.135 . S
O62 Co61 2.061 . S
O62 C65 1.235 . S
C63 O66 1.238 . S
C63 O67 1.241 . S
C64 O57 1.247 . S
C64 O58 1.261 . S
C65 O60 1.259 . S
C65 O62 1.235 . S
O66 Co56 2.021 . S
O66 C63 1.238 . S
O67 Co61 2.052 . S
O67 C63 1.241 . S
O68 Co56 2.137 . S
O68 C59 1.247 . S
O69 Co56 2.244 . S
O69 C59 1.272 . S
O69 Co61 2.135 . S
Co70 O71 2.216 . S
Co70 O72 2.091 . S
Co70 O74 2.004 . S
Co70 O80 2.021 . S
Co70 O82 2.137 . S
Co70 O83 2.244 . S
O71 Co70 2.216 . S
O71 C78 1.247 . S
O72 Co70 2.091 . S
O72 C78 1.261 . S
C73 O82 1.247 . S
C73 O83 1.272 . S
O74 Co70 2.004 . S
O74 C79 1.259 . S
Co75 O76 2.061 . S
Co75 O81 2.052 . S
Co75 O83 2.135 . S
O76 Co75 2.061 . S
O76 C79 1.235 . S
C77 O80 1.238 . S
C77 O81 1.241 . S
C78 O71 1.247 . S
C78 O72 1.261 . S
C79 O74 1.259 . S
C79 O76 1.235 . S
O80 Co70 2.021 . S
O80 C77 1.238 . S
O81 Co75 2.052 . S
O81 C77 1.241 . S
O82 Co70 2.137 . S
O82 C73 1.247 . S
O83 Co70 2.244 . S
O83 C73 1.272 . S
O83 Co75 2.135 . S
Co84 O85 2.216 . S
Co84 O86 2.091 . S
Co84 O88 2.004 . S
Co84 O94 2.021 . S
Co84 O96 2.137 . S
Co84 O97 2.244 . S
O85 Co84 2.216 . S
O85 C92 1.247 . S
O86 Co84 2.091 . S
O86 C92 1.261 . S
C87 O96 1.247 . S
C87 O97 1.272 . S
O88 Co84 2.004 . S
O88 C93 1.259 . S
Co89 O90 2.061 . S
Co89 O95 2.052 . S
Co89 O97 2.135 . S
O90 Co89 2.061 . S
O90 C93 1.235 . S
C91 O94 1.238 . S
C91 O95 1.241 . S
C92 O85 1.247 . S
C92 O86 1.261 . S
C93 O88 1.259 . S
C93 O90 1.235 . S
O94 Co84 2.021 . S
O94 C91 1.238 . S
O95 Co89 2.052 . S
O95 C91 1.241 . S
O96 Co84 2.137 . S
O96 C87 1.247 . S
O97 Co84 2.244 . S
O97 C87 1.272 . S
O97 Co89 2.135 . S
Co98 O99 2.216 . S
Co98 O100 2.091 . S
Co98 O102 2.004 1_455 S
Co98 O108 2.021 1_455 S
Co98 O110 2.137 . S
Co98 O111 2.228 1_455 S
O99 Co98 2.216 . S
O99 C106 1.247 . S
O100 Co98 2.091 . S
O100 C106 1.261 . S
C101 O110 1.247 . S
C101 O111 1.265 1_455 S
O102 Co98 2.004 1_655 S
O102 C107 1.259 . S
Co103 O104 2.107 . S
Co103 O109 2.053 . S
Co103 O111 2.188 . S
O104 Co103 2.107 . S
O104 C107 1.235 . S
C105 O108 1.238 . S
C105 O109 1.241 . S
C106 O99 1.247 . S
C106 O100 1.261 . S
C107 O102 1.259 . S
C107 O104 1.235 . S
O108 Co98 2.021 1_655 S
O108 C105 1.238 . S
O109 Co103 2.053 . S
O109 C105 1.241 . S
O110 Co98 2.137 . S
O110 C101 1.247 . S
O111 Co98 2.228 1_655 S
O111 C101 1.265 1_655 S
O111 Co103 2.188 . S
Co112 O113 2.216 . S
Co112 O114 2.091 . S
Co112 O116 2.004 1_545 S
Co112 O122 2.021 . S
Co112 O124 2.137 . S
Co112 O125 2.248 . S
O113 Co112 2.216 . S
O113 C120 1.247 . S
O114 Co112 2.091 . S
O114 C120 1.261 . S
C115 O124 1.247 . S
C115 O125 1.274 . S
O116 Co112 2.004 1_565 S
O116 C121 1.259 . S
Co117 O118 2.061 . S
Co117 O123 2.052 . S
Co117 O125 2.127 1_565 S
O118 Co117 2.061 . S
O118 C121 1.235 . S
C119 O122 1.238 1_565 S
C119 O123 1.241 . S
C120 O113 1.247 . S
C120 O114 1.261 . S
C121 O116 1.259 . S
C121 O118 1.235 . S
O122 Co112 2.021 . S
O122 C119 1.238 1_545 S
O123 Co117 2.052 . S
O123 C119 1.241 . S
O124 Co112 2.137 . S
O124 C115 1.247 . S
O125 Co112 2.248 . S
O125 C115 1.274 . S
O125 Co117 2.127 1_545 S
Co126 O127 2.216 . S
Co126 O128 2.091 . S
Co126 O130 2.004 . S
Co126 O136 2.021 . S
Co126 O138 2.137 . S
Co126 O139 2.244 . S
O127 Co126 2.216 . S
O127 C134 1.247 . S
O128 Co126 2.091 . S
O128 C134 1.261 . S
C129 O138 1.247 . S
C129 O139 1.272 . S
O130 Co126 2.004 . S
O130 C135 1.259 . S
Co131 O132 2.061 . S
Co131 O137 2.052 . S
Co131 O139 2.135 . S
O132 Co131 2.061 . S
O132 C135 1.235 . S
C133 O136 1.238 . S
C133 O137 1.241 . S
C134 O127 1.247 . S
C134 O128 1.261 . S
C135 O130 1.259 . S
C135 O132 1.235 . S
O136 Co126 2.021 . S
O136 C133 1.238 . S
O137 Co131 2.052 . S
O137 C133 1.241 . S
O138 Co126 2.137 . S
O138 C129 1.247 . S
O139 Co126 2.244 . S
O139 C129 1.272 . S
O139 Co131 2.135 . S
Co140 O141 2.216 . S
Co140 O142 2.091 . S
Co140 O144 2.004 . S
Co140 O150 2.021 . S
Co140 O152 2.137 . S
Co140 O153 2.244 . S
O141 Co140 2.216 . S
O141 C148 1.247 . S
O142 Co140 2.091 . S
O142 C148 1.261 . S
C143 O152 1.247 . S
C143 O153 1.272 . S
O144 Co140 2.004 . S
O144 C149 1.259 . S
Co145 O146 2.061 . S
Co145 O151 2.052 . S
Co145 O153 2.135 . S
O146 Co145 2.061 . S
O146 C149 1.235 . S
C147 O150 1.238 . S
C147 O151 1.241 . S
C148 O141 1.247 . S
C148 O142 1.261 . S
C149 O144 1.259 . S
C149 O146 1.235 . S
O150 Co140 2.021 . S
O150 C147 1.238 . S
O151 Co145 2.052 . S
O151 C147 1.241 . S
O152 Co140 2.137 . S
O152 C143 1.247 . S
O153 Co140 2.244 . S
O153 C143 1.272 . S
O153 Co145 2.135 . S
Co154 O155 2.216 . S
Co154 O156 2.091 1_556 S
Co154 O158 2.003 . S
Co154 O164 2.021 1_556 S
Co154 O166 2.137 . S
Co154 O167 2.244 . S
O155 Co154 2.216 . S
O155 C162 1.250 . S
O156 Co154 2.091 1_554 S
O156 C162 1.265 1_554 S
C157 O166 1.247 . S
C157 O167 1.272 . S
O158 Co154 2.003 . S
O158 C163 1.258 1_556 S
Co159 O160 2.061 1_556 S
Co159 O165 2.052 1_556 S
Co159 O167 2.135 . S
O160 Co159 2.061 1_554 S
O160 C163 1.235 . S
C161 O164 1.238 . S
C161 O165 1.241 . S
C162 O155 1.250 . S
C162 O156 1.265 1_556 S
C163 O158 1.258 1_554 S
C163 O160 1.235 . S
O164 Co154 2.021 1_554 S
O164 C161 1.238 . S
O165 Co159 2.052 1_554 S
O165 C161 1.241 . S
O166 Co154 2.137 . S
O166 C157 1.247 . S
O167 Co154 2.244 . S
O167 C157 1.272 . S
O167 Co159 2.135 . S
Co168 O169 2.216 . S
Co168 O170 2.091 . S
Co168 O172 2.004 . S
Co168 O178 2.021 . S
Co168 O180 2.137 1_554 S
Co168 O181 2.244 . S
O169 Co168 2.216 . S
O169 C176 1.247 . S
O170 Co168 2.091 . S
O170 C176 1.261 . S
C171 O180 1.247 . S
C171 O181 1.272 1_556 S
O172 Co168 2.004 . S
O172 C177 1.259 . S
Co173 O174 2.061 . S
Co173 O179 2.052 . S
Co173 O181 2.135 . S
O174 Co173 2.061 . S
O174 C177 1.235 . S
C175 O178 1.238 . S
C175 O179 1.241 . S
C176 O169 1.247 . S
C176 O170 1.261 . S
C177 O172 1.259 . S
C177 O174 1.235 . S
O178 Co168 2.021 . S
O178 C175 1.238 . S
O179 Co173 2.052 . S
O179 C175 1.241 . S
O180 Co168 2.137 1_556 S
O180 C171 1.247 . S
O181 Co168 2.244 . S
O181 C171 1.272 1_554 S
O181 Co173 2.135 . S
Co182 O183 2.216 . S
Co182 O184 2.091 . S
Co182 O186 2.004 . S
Co182 O192 2.021 . S
Co182 O194 2.137 . S
Co182 O195 2.244 . S
O183 Co182 2.216 . S
O183 C190 1.247 . S
O184 Co182 2.091 . S
O184 C190 1.261 . S
C185 O194 1.247 . S
C185 O195 1.272 . S
O186 Co182 2.004 . S
O186 C191 1.259 . S
Co187 O188 2.061 . S
Co187 O193 2.052 . S
Co187 O195 2.135 . S
O188 Co187 2.061 . S
O188 C191 1.235 . S
C189 O192 1.238 . S
C189 O193 1.241 . S
C190 O183 1.247 . S
C190 O184 1.261 . S
C191 O186 1.259 . S
C191 O188 1.235 . S
O192 Co182 2.021 . S
O192 C189 1.238 . S
O193 Co187 2.052 . S
O193 C189 1.241 . S
O194 Co182 2.137 . S
O194 C185 1.247 . S
O195 Co182 2.244 . S
O195 C185 1.272 . S
O195 Co187 2.135 . S
Co196 O197 2.216 . S
Co196 O198 2.091 . S
Co196 O200 2.004 . S
Co196 O206 2.021 . S
Co196 O208 2.137 . S
Co196 O209 2.244 . S
O197 Co196 2.216 . S
O197 C204 1.247 . S
O198 Co196 2.091 . S
O198 C204 1.261 . S
C199 O208 1.247 . S
C199 O209 1.272 . S
O200 Co196 2.004 . S
O200 C205 1.259 . S
Co201 O202 2.061 . S
Co201 O207 2.052 . S
Co201 O209 2.135 . S
O202 Co201 2.061 . S
O202 C205 1.235 . S
C203 O206 1.238 . S
C203 O207 1.241 . S
C204 O197 1.247 . S
C204 O198 1.261 . S
C205 O200 1.259 . S
C205 O202 1.235 . S
O206 Co196 2.021 . S
O206 C203 1.238 . S
O207 Co201 2.052 . S
O207 C203 1.241 . S
O208 Co196 2.137 . S
O208 C199 1.247 . S
O209 Co196 2.244 . S
O209 C199 1.272 . S
O209 Co201 2.135 . S
Co210 O211 2.216 . S
Co210 O212 2.091 . S
Co210 O214 2.004 . S
Co210 O220 2.021 . S
Co210 O222 2.137 . S
Co210 O223 2.244 . S
O211 Co210 2.216 . S
O211 C218 1.247 . S
O212 Co210 2.091 . S
O212 C218 1.261 . S
C213 O222 1.247 . S
C213 O223 1.272 . S
O214 Co210 2.004 . S
O214 C219 1.259 . S
Co215 O216 2.061 . S
Co215 O221 2.052 . S
Co215 O223 2.135 . S
O216 Co215 2.061 . S
O216 C219 1.235 . S
C217 O220 1.238 . S
C217 O221 1.241 . S
C218 O211 1.247 . S
C218 O212 1.261 . S
C219 O214 1.259 . S
C219 O216 1.235 . S
O220 Co210 2.021 . S
O220 C217 1.238 . S
O221 Co215 2.052 . S
O221 C217 1.241 . S
O222 Co210 2.137 . S
O222 C213 1.247 . S
O223 Co210 2.244 . S
O223 C213 1.272 . S
O223 Co215 2.135 . S
Co224 O225 2.216 . S
Co224 O226 2.091 . S
Co224 O228 1.994 1_545 S
Co224 O234 2.021 . S
Co224 O236 2.137 . S
Co224 O237 2.244 . S
O225 Co224 2.216 . S
O225 C232 1.247 . S
O226 Co224 2.091 . S
O226 C232 1.261 . S
C227 O236 1.247 . S
C227 O237 1.272 . S
O228 Co224 1.994 1_565 S
O228 C233 1.271 . S
Co229 O230 2.061 1_545 S
Co229 O235 2.052 . S
Co229 O237 2.135 . S
O230 Co229 2.061 1_565 S
O230 C233 1.235 . S
C231 O234 1.238 . S
C231 O235 1.241 . S
C232 O225 1.247 . S
C232 O226 1.261 . S
C233 O228 1.271 . S
C233 O230 1.235 . S
O234 Co224 2.021 . S
O234 C231 1.238 . S
O235 Co229 2.052 . S
O235 C231 1.241 . S
O236 Co224 2.137 . S
O236 C227 1.247 . S
O237 Co224 2.244 . S
O237 C227 1.272 . S
O237 Co229 2.135 . S
Co238 O239 2.216 . S
Co238 O240 2.091 . S
Co238 O242 2.004 . S
Co238 O248 2.021 . S
Co238 O250 2.137 . S
Co238 O251 2.244 . S
O239 Co238 2.216 . S
O239 C246 1.247 . S
O240 Co238 2.091 . S
O240 C246 1.261 . S
C241 O250 1.247 . S
C241 O251 1.272 . S
O242 Co238 2.004 . S
O242 C247 1.259 . S
Co243 O244 2.061 . S
Co243 O249 2.052 . S
Co243 O251 2.135 . S
O244 Co243 2.061 . S
O244 C247 1.235 . S
C245 O248 1.238 . S
C245 O249 1.241 . S
C246 O239 1.247 . S
C246 O240 1.261 . S
C247 O242 1.259 . S
C247 O244 1.235 . S
O248 Co238 2.021 . S
O248 C245 1.238 . S
O249 Co243 2.052 . S
O249 C245 1.241 . S
O250 Co238 2.137 . S
O250 C241 1.247 . S
O251 Co238 2.244 . S
O251 C241 1.272 . S
O251 Co243 2.135 . S
Co252 O253 2.216 . S
Co252 O254 2.091 . S
Co252 O256 2.004 . S
Co252 O262 2.021 . S
Co252 O264 2.137 . S
Co252 O265 2.244 . S
O253 Co252 2.216 . S
O253 C260 1.247 . S
O254 Co252 2.091 . S
O254 C260 1.261 . S
C255 O264 1.247 . S
C255 O265 1.272 . S
O256 Co252 2.004 . S
O256 C261 1.259 . S
Co257 O258 2.061 . S
Co257 O263 2.052 . S
Co257 O265 2.135 . S
O258 Co257 2.061 . S
O258 C261 1.235 . S
C259 O262 1.238 . S
C259 O263 1.241 . S
C260 O253 1.247 . S
C260 O254 1.261 . S
C261 O256 1.259 . S
C261 O258 1.235 . S
O262 Co252 2.021 . S
O262 C259 1.238 . S
O263 Co257 2.052 . S
O263 C259 1.241 . S
O264 Co252 2.137 . S
O264 C255 1.247 . S
O265 Co252 2.244 . S
O265 C255 1.272 . S
O265 Co257 2.135 . S
Co266 O267 2.216 . S
Co266 O268 2.091 . S
Co266 O270 2.004 . S
Co266 O276 2.021 . S
Co266 O278 2.137 . S
Co266 O279 2.244 . S
O267 Co266 2.216 . S
O267 C274 1.247 . S
O268 Co266 2.091 . S
O268 C274 1.261 . S
C269 O278 1.247 . S
C269 O279 1.272 . S
O270 Co266 2.004 . S
O270 C275 1.259 . S
Co271 O272 2.061 . S
Co271 O277 2.052 . S
Co271 O279 2.135 . S
O272 Co271 2.061 . S
O272 C275 1.235 . S
C273 O276 1.238 . S
C273 O277 1.241 . S
C274 O267 1.247 . S
C274 O268 1.261 . S
C275 O270 1.259 . S
C275 O272 1.235 . S
O276 Co266 2.021 . S
O276 C273 1.238 . S
O277 Co271 2.052 . S
O277 C273 1.241 . S
O278 Co266 2.137 . S
O278 C269 1.247 . S
O279 Co266 2.244 . S
O279 C269 1.272 . S
O279 Co271 2.135 . S
Co280 O281 2.216 . S
Co280 O282 2.091 . S
Co280 O284 2.004 . S
Co280 O290 2.021 . S
Co280 O292 2.137 1_554 S
Co280 O293 2.244 . S
O281 Co280 2.216 . S
O281 C288 1.247 . S
O282 Co280 2.091 . S
O282 C288 1.261 . S
C283 O292 1.247 . S
C283 O293 1.272 1_556 S
O284 Co280 2.004 . S
O284 C289 1.259 . S
Co285 O286 2.061 . S
Co285 O291 2.052 . S
Co285 O293 2.135 . S
O286 Co285 2.061 . S
O286 C289 1.235 . S
C287 O290 1.238 . S
C287 O291 1.241 . S
C288 O281 1.247 . S
C288 O282 1.261 . S
C289 O284 1.259 . S
C289 O286 1.235 . S
O290 Co280 2.021 . S
O290 C287 1.238 . S
O291 Co285 2.052 . S
O291 C287 1.241 . S
O292 Co280 2.137 1_556 S
O292 C283 1.247 . S
O293 Co280 2.244 . S
O293 C283 1.272 1_554 S
O293 Co285 2.135 . S
Co294 O295 2.216 . S
Co294 O296 2.091 . S
Co294 O298 2.004 . S
Co294 O304 2.021 . S
Co294 O306 2.137 . S
Co294 O307 2.244 . S
O295 Co294 2.216 . S
O295 C302 1.247 . S
O296 Co294 2.091 . S
O296 C302 1.261 . S
C297 O306 1.247 . S
C297 O307 1.272 . S
O298 Co294 2.004 . S
O298 C303 1.259 . S
Co299 O300 2.061 . S
Co299 O305 2.052 . S
Co299 O307 2.135 . S
O300 Co299 2.061 . S
O300 C303 1.235 . S
C301 O304 1.238 . S
C301 O305 1.241 . S
C302 O295 1.247 . S
C302 O296 1.261 . S
C303 O298 1.259 . S
C303 O300 1.235 . S
O304 Co294 2.021 . S
O304 C301 1.238 . S
O305 Co299 2.052 . S
O305 C301 1.241 . S
O306 Co294 2.137 . S
O306 C297 1.247 . S
O307 Co294 2.244 . S
O307 C297 1.272 . S
O307 Co299 2.135 . S
Co308 O309 2.216 . S
Co308 O310 2.091 . S
Co308 O312 2.004 . S
Co308 O318 2.021 . S
Co308 O320 2.137 . S
Co308 O321 2.244 . S
O309 Co308 2.216 . S
O309 C316 1.247 . S
O310 Co308 2.091 . S
O310 C316 1.261 . S
C311 O320 1.247 . S
C311 O321 1.272 . S
O312 Co308 2.004 . S
O312 C317 1.259 . S
Co313 O314 2.061 . S
Co313 O319 2.052 . S
Co313 O321 2.135 . S
O314 Co313 2.061 . S
O314 C317 1.235 . S
C315 O318 1.238 . S
C315 O319 1.241 . S
C316 O309 1.247 . S
C316 O310 1.261 . S
C317 O312 1.259 . S
C317 O314 1.235 . S
O318 Co308 2.021 . S
O318 C315 1.238 . S
O319 Co313 2.052 . S
O319 C315 1.241 . S
O320 Co308 2.137 . S
O320 C311 1.247 . S
O321 Co308 2.244 . S
O321 C311 1.272 . S
O321 Co313 2.135 . S
Co322 O323 2.216 . S
Co322 O324 2.091 . S
Co322 O326 2.004 . S
Co322 O332 2.021 . S
Co322 O334 2.137 . S
Co322 O335 2.244 . S
O323 Co322 2.216 . S
O323 C330 1.247 . S
O324 Co322 2.091 . S
O324 C330 1.261 . S
C325 O334 1.247 . S
C325 O335 1.272 . S
O326 Co322 2.004 . S
O326 C331 1.259 . S
Co327 O328 2.061 . S
Co327 O333 2.052 . S
Co327 O335 2.135 . S
O328 Co327 2.061 . S
O328 C331 1.235 . S
C329 O332 1.238 . S
C329 O333 1.241 . S
C330 O323 1.247 . S
C330 O324 1.261 . S
C331 O326 1.259 . S
C331 O328 1.235 . S
O332 Co322 2.021 . S
O332 C329 1.238 . S
O333 Co327 2.052 . S
O333 C329 1.241 . S
O334 Co322 2.137 . S
O334 C325 1.247 . S
O335 Co322 2.244 . S
O335 C325 1.272 . S
O335 Co327 2.135 . S
Dy336 O339 2.307 . S
Dy336 O341 2.395 . S
Dy336 O342 2.379 . S
Dy336 O344 2.339 . S
Dy336 O346 2.298 . S
Dy336 O350 2.275 . S
Dy336 C358 2.738 . S
Dy337 O340 2.298 1_655 S
Dy337 O343 2.275 1_655 S
Dy337 O345 2.307 1_655 S
Dy337 O347 2.395 . S
Dy337 O348 2.377 . S
Dy337 O351 2.339 1_654 S
Dy337 C367 2.738 . S
C338 O350 1.254 1_556 S
C338 O351 1.257 . S
O339 Dy336 2.307 . S
O339 C349 1.266 . S
O340 Dy337 2.298 1_455 S
O340 C349 1.236 . S
O341 Dy336 2.395 . S
O341 C358 1.255 . S
O342 Dy336 2.379 . S
O342 C358 1.249 . S
O343 Dy337 2.275 1_455 S
O343 C359 1.254 . S
O344 Dy336 2.339 . S
O344 C359 1.257 . S
O345 Dy337 2.307 1_455 S
O345 C360 1.266 1_545 S
O346 Dy336 2.298 . S
O346 C360 1.236 1_545 S
O347 Dy337 2.395 . S
O347 C367 1.255 . S
O348 Dy337 2.377 . S
O348 C367 1.247 . S
C349 O339 1.266 . S
C349 O340 1.236 . S
O350 Dy336 2.275 . S
O350 C338 1.254 1_554 S
O351 Dy337 2.339 1_456 S
O351 C338 1.257 . S
C352 C355 1.344 . S
C352 C356 1.328 . S
C352 C358 1.516 . S
C353 C354 1.304 . S
C353 C357 1.323 . S
C354 C353 1.304 . S
C354 C355 1.371 . S
C354 H368 0.930 1_545 S
C355 C352 1.344 . S
C355 C354 1.371 . S
C355 H369 0.931 . S
C356 C352 1.328 . S
C356 C357 1.433 . S
C356 H370 0.931 . S
C357 C353 1.323 . S
C357 C356 1.433 . S
C357 H371 0.933 . S
C358 Dy336 2.738 . S
C358 O341 1.255 . S
C358 O342 1.249 . S
C358 C352 1.516 . S
C359 O343 1.254 . S
C359 O344 1.257 . S
C360 O345 1.266 1_565 S
C360 O346 1.236 1_565 S
C361 C364 1.344 . S
C361 C365 1.328 1_554 S
C361 C367 1.516 . S
C362 C363 1.304 . S
C362 C366 1.323 1_554 S
C363 C362 1.304 . S
C363 C364 1.371 . S
C363 H372 0.930 . S
C364 C361 1.344 . S
C364 C363 1.371 . S
C364 H373 0.931 . S
C365 C361 1.328 1_556 S
C365 C366 1.433 . S
C365 H374 0.931 . S
C366 C362 1.323 1_556 S
C366 C365 1.433 . S
C366 H375 0.933 . S
C367 Dy337 2.738 . S
C367 O347 1.255 . S
C367 O348 1.247 . S
C367 C361 1.516 . S
H368 C354 0.930 1_565 S
H369 C355 0.931 . S
H370 C356 0.931 . S
H371 C357 0.933 . S
H372 C363 0.930 . S
H373 C364 0.931 . S
H374 C365 0.931 . S
H375 C366 0.933 . S
Dy376 O379 2.307 . S
Dy376 O381 2.395 . S
Dy376 O382 2.379 . S
Dy376 O384 2.339 . S
Dy376 O386 2.298 . S
Dy376 O390 2.275 . S
Dy376 C398 2.738 . S
Dy377 O380 2.298 . S
Dy377 O383 2.275 . S
Dy377 O385 2.307 . S
Dy377 O387 2.395 . S
Dy377 O388 2.379 . S
Dy377 O391 2.339 . S
Dy377 C407 2.738 . S
C378 O390 1.254 . S
C378 O391 1.257 . S
O379 Dy376 2.307 . S
O379 C389 1.266 . S
O380 Dy377 2.298 . S
O380 C389 1.236 . S
O381 Dy376 2.395 . S
O381 C398 1.255 . S
O382 Dy376 2.379 . S
O382 C398 1.249 . S
O383 Dy377 2.275 . S
O383 C399 1.254 . S
O384 Dy376 2.339 . S
O384 C399 1.257 . S
O385 Dy377 2.307 . S
O385 C400 1.266 . S
O386 Dy376 2.298 . S
O386 C400 1.236 . S
O387 Dy377 2.395 . S
O387 C407 1.255 . S
O388 Dy377 2.379 . S
O388 C407 1.249 . S
C389 O379 1.266 . S
C389 O380 1.236 . S
O390 Dy376 2.275 . S
O390 C378 1.254 . S
O391 Dy377 2.339 . S
O391 C378 1.257 . S
C392 C395 1.344 . S
C392 C396 1.328 . S
C392 C398 1.516 . S
C393 C394 1.304 . S
C393 C397 1.323 . S
C394 C393 1.304 . S
C394 C395 1.371 . S
C394 H408 0.930 . S
C395 C392 1.344 . S
C395 C394 1.371 . S
C395 H409 0.931 . S
C396 C392 1.328 . S
C396 C397 1.433 . S
C396 H410 0.931 . S
C397 C393 1.323 . S
C397 C396 1.433 . S
C397 H411 0.933 . S
C398 Dy376 2.738 . S
C398 O381 1.255 . S
C398 O382 1.249 . S
C398 C392 1.516 . S
C399 O383 1.254 . S
C399 O384 1.257 . S
C400 O385 1.266 . S
C400 O386 1.236 . S
C401 C404 1.344 . S
C401 C405 1.328 . S
C401 C407 1.516 . S
C402 C403 1.304 . S
C402 C406 1.323 . S
C403 C402 1.304 . S
C403 C404 1.371 . S
C403 H412 0.930 . S
C404 C401 1.344 . S
C404 C403 1.371 . S
C404 H413 0.931 . S
C405 C401 1.328 . S
C405 C406 1.433 . S
C405 H414 0.931 . S
C406 C402 1.323 . S
C406 C405 1.433 . S
C406 H415 0.933 . S
C407 Dy377 2.738 . S
C407 O387 1.255 . S
C407 O388 1.249 . S
C407 C401 1.516 . S
H408 C394 0.930 . S
H409 C395 0.931 . S
H410 C396 0.931 . S
H411 C397 0.933 . S
H412 C403 0.930 . S
H413 C404 0.931 . S
H414 C405 0.931 . S
H415 C406 0.933 . S
Dy416 O419 2.307 . S
Dy416 O421 2.395 . S
Dy416 O422 2.379 . S
Dy416 O424 2.339 . S
Dy416 O426 2.298 . S
Dy416 O430 2.275 . S
Dy416 C438 2.738 . S
Dy417 O420 2.298 . S
Dy417 O423 2.275 . S
Dy417 O425 2.307 . S
Dy417 O427 2.395 . S
Dy417 O428 2.379 . S
Dy417 O431 2.339 . S
Dy417 C447 2.738 . S
C418 O430 1.254 . S
C418 O431 1.257 . S
O419 Dy416 2.307 . S
O419 C429 1.266 1_545 S
O420 Dy417 2.298 . S
O420 C429 1.236 1_545 S
O421 Dy416 2.395 . S
O421 C438 1.255 . S
O422 Dy416 2.379 . S
O422 C438 1.249 . S
O423 Dy417 2.275 . S
O423 C439 1.254 . S
O424 Dy416 2.339 . S
O424 C439 1.257 . S
O425 Dy417 2.307 . S
O425 C440 1.266 . S
O426 Dy416 2.298 . S
O426 C440 1.236 . S
O427 Dy417 2.395 . S
O427 C447 1.255 . S
O428 Dy417 2.379 . S
O428 C447 1.249 . S
C429 O419 1.266 1_565 S
C429 O420 1.236 1_565 S
O430 Dy416 2.275 . S
O430 C418 1.254 . S
O431 Dy417 2.339 . S
O431 C418 1.257 . S
C432 C435 1.344 . S
C432 C436 1.328 . S
C432 C438 1.516 . S
C433 C434 1.304 . S
C433 C437 1.323 . S
C434 C433 1.304 . S
C434 C435 1.371 . S
C434 H448 0.930 . S
C435 C432 1.344 . S
C435 C434 1.371 . S
C435 H449 0.931 . S
C436 C432 1.328 . S
C436 C437 1.433 . S
C436 H450 0.931 . S
C437 C433 1.323 . S
C437 C436 1.433 . S
C437 H451 0.933 . S
C438 Dy416 2.738 . S
C438 O421 1.255 . S
C438 O422 1.249 . S
C438 C432 1.516 . S
C439 O423 1.254 . S
C439 O424 1.257 . S
C440 O425 1.266 . S
C440 O426 1.236 . S
C441 C444 1.344 1_545 S
C441 C445 1.328 . S
C441 C447 1.516 . S
C442 C443 1.304 . S
C442 C446 1.323 . S
C443 C442 1.304 . S
C443 C444 1.371 . S
C443 H452 0.930 . S
C444 C441 1.344 1_565 S
C444 C443 1.371 . S
C444 H453 0.931 . S
C445 C441 1.328 . S
C445 C446 1.433 1_545 S
C445 H454 0.931 . S
C446 C442 1.323 . S
C446 C445 1.433 1_565 S
C446 H455 0.933 . S
C447 Dy417 2.738 . S
C447 O427 1.255 . S
C447 O428 1.249 . S
C447 C441 1.516 . S
H448 C434 0.930 . S
H449 C435 0.931 . S
H450 C436 0.931 . S
H451 C437 0.933 . S
H452 C443 0.930 . S
H453 C444 0.931 . S
H454 C445 0.931 . S
H455 C446 0.933 . S
Dy456 O459 2.307 . S
Dy456 O461 2.395 . S
Dy456 O462 2.379 . S
Dy456 O464 2.339 . S
Dy456 O466 2.298 . S
Dy456 O470 2.275 . S
Dy456 C478 2.738 . S
Dy457 O460 2.298 . S
Dy457 O463 2.275 . S
Dy457 O465 2.307 . S
Dy457 O467 2.395 . S
Dy457 O468 2.379 . S
Dy457 O471 2.339 . S
Dy457 C487 2.738 . S
C458 O470 1.254 . S
C458 O471 1.257 . S
O459 Dy456 2.307 . S
O459 C469 1.266 . S
O460 Dy457 2.298 . S
O460 C469 1.236 . S
O461 Dy456 2.395 . S
O461 C478 1.255 . S
O462 Dy456 2.379 . S
O462 C478 1.249 . S
O463 Dy457 2.275 . S
O463 C479 1.254 . S
O464 Dy456 2.339 . S
O464 C479 1.257 . S
O465 Dy457 2.307 . S
O465 C480 1.266 . S
O466 Dy456 2.298 . S
O466 C480 1.236 . S
O467 Dy457 2.395 . S
O467 C487 1.255 . S
O468 Dy457 2.379 . S
O468 C487 1.249 . S
C469 O459 1.266 . S
C469 O460 1.236 . S
O470 Dy456 2.275 . S
O470 C458 1.254 . S
O471 Dy457 2.339 . S
O471 C458 1.257 . S
C472 C475 1.344 . S
C472 C476 1.328 . S
C472 C478 1.516 . S
C473 C474 1.304 . S
C473 C477 1.323 . S
C474 C473 1.304 . S
C474 C475 1.371 . S
C474 H488 0.930 . S
C475 C472 1.344 . S
C475 C474 1.371 . S
C475 H489 0.931 . S
C476 C472 1.328 . S
C476 C477 1.433 . S
C476 H490 0.931 . S
C477 C473 1.323 . S
C477 C476 1.433 . S
C477 H491 0.933 . S
C478 Dy456 2.738 . S
C478 O461 1.255 . S
C478 O462 1.249 . S
C478 C472 1.516 . S
C479 O463 1.254 . S
C479 O464 1.257 . S
C480 O465 1.266 . S
C480 O466 1.236 . S
C481 C484 1.344 . S
C481 C485 1.328 . S
C481 C487 1.516 . S
C482 C483 1.304 . S
C482 C486 1.323 . S
C483 C482 1.304 . S
C483 C484 1.371 . S
C483 H492 0.930 . S
C484 C481 1.344 . S
C484 C483 1.371 . S
C484 H493 0.931 . S
C485 C481 1.328 . S
C485 C486 1.433 . S
C485 H494 0.931 . S
C486 C482 1.323 . S
C486 C485 1.433 . S
C486 H495 0.933 . S
C487 Dy457 2.738 . S
C487 O467 1.255 . S
C487 O468 1.249 . S
C487 C481 1.516 . S
H488 C474 0.930 . S
H489 C475 0.931 . S
H490 C476 0.931 . S
H491 C477 0.933 . S
H492 C483 0.930 . S
H493 C484 0.931 . S
H494 C485 0.931 . S
H495 C486 0.933 . S
Dy496 O499 2.307 . S
Dy496 O501 2.395 1_545 S
Dy496 O502 2.379 1_545 S
Dy496 O504 2.339 . S
Dy496 O506 2.298 . S
Dy496 O510 2.275 . S
Dy496 C518 2.738 1_545 S
Dy497 O500 2.298 . S
Dy497 O503 2.275 . S
Dy497 O505 2.307 . S
Dy497 O507 2.395 . S
Dy497 O508 2.380 . S
Dy497 O511 2.339 1_455 S
Dy497 C527 2.738 . S
C498 O510 1.254 1_655 S
C498 O511 1.257 . S
O499 Dy496 2.307 . S
O499 C509 1.266 . S
O500 Dy497 2.298 . S
O500 C509 1.236 . S
O501 Dy496 2.395 1_565 S
O501 C518 1.255 . S
O502 Dy496 2.379 1_565 S
O502 C518 1.249 . S
O503 Dy497 2.275 . S
O503 C519 1.254 . S
O504 Dy496 2.339 . S
O504 C519 1.257 . S
O505 Dy497 2.307 . S
O505 C520 1.266 . S
O506 Dy496 2.298 . S
O506 C520 1.236 . S
O507 Dy497 2.395 . S
O507 C527 1.255 . S
O508 Dy497 2.380 . S
O508 C527 1.250 . S
C509 O499 1.266 . S
C509 O500 1.236 . S
O510 Dy496 2.275 . S
O510 C498 1.254 1_455 S
O511 Dy497 2.339 1_655 S
O511 C498 1.257 . S
C512 C515 1.344 . S
C512 C516 1.328 . S
C512 C518 1.516 . S
C513 C514 1.304 . S
C513 C517 1.323 . S
C514 C513 1.304 . S
C514 C515 1.371 . S
C514 H528 0.930 . S
C515 C512 1.344 . S
C515 C514 1.371 . S
C515 H529 0.931 . S
C516 C512 1.328 . S
C516 C517 1.433 . S
C516 H530 0.931 . S
C517 C513 1.323 . S
C517 C516 1.433 . S
C517 H531 0.933 . S
C518 Dy496 2.738 1_565 S
C518 O501 1.255 . S
C518 O502 1.249 . S
C518 C512 1.516 . S
C519 O503 1.254 . S
C519 O504 1.257 . S
C520 O505 1.266 . S
C520 O506 1.236 . S
C521 C524 1.344 . S
C521 C525 1.328 1_455 S
C521 C527 1.516 . S
C522 C523 1.304 . S
C522 C526 1.323 1_455 S
C523 C522 1.304 . S
C523 C524 1.371 . S
C523 H532 0.930 . S
C524 C521 1.344 . S
C524 C523 1.371 . S
C524 H533 0.931 . S
C525 C521 1.328 1_655 S
C525 C526 1.433 . S
C525 H534 0.931 . S
C526 C522 1.323 1_655 S
C526 C525 1.433 . S
C526 H535 0.933 . S
C527 Dy497 2.738 . S
C527 O507 1.255 . S
C527 O508 1.250 . S
C527 C521 1.516 . S
H528 C514 0.930 . S
H529 C515 0.931 . S
H530 C516 0.931 . S
H531 C517 0.933 . S
H532 C523 0.930 . S
H533 C524 0.931 . S
H534 C525 0.931 . S
H535 C526 0.933 . S
Dy536 O539 2.307 . S
Dy536 O541 2.395 . S
Dy536 O542 2.379 . S
Dy536 O544 2.339 . S
Dy536 O546 2.298 . S
Dy536 O550 2.275 . S
Dy536 C558 2.738 . S
Dy537 O540 2.298 . S
Dy537 O543 2.275 . S
Dy537 O545 2.307 . S
Dy537 O547 2.395 . S
Dy537 O548 2.379 . S
Dy537 O551 2.339 . S
Dy537 C567 2.738 . S
C538 O550 1.254 . S
C538 O551 1.257 . S
O539 Dy536 2.307 . S
O539 C549 1.266 . S
O540 Dy537 2.298 . S
O540 C549 1.236 . S
O541 Dy536 2.395 . S
O541 C558 1.255 . S
O542 Dy536 2.379 . S
O542 C558 1.249 . S
O543 Dy537 2.275 . S
O543 C559 1.254 . S
O544 Dy536 2.339 . S
O544 C559 1.257 . S
O545 Dy537 2.307 . S
O545 C560 1.266 . S
O546 Dy536 2.298 . S
O546 C560 1.236 . S
O547 Dy537 2.395 . S
O547 C567 1.255 . S
O548 Dy537 2.379 . S
O548 C567 1.249 . S
C549 O539 1.266 . S
C549 O540 1.236 . S
O550 Dy536 2.275 . S
O550 C538 1.254 . S
O551 Dy537 2.339 . S
O551 C538 1.257 . S
C552 C555 1.344 . S
C552 C556 1.328 . S
C552 C558 1.516 . S
C553 C554 1.304 . S
C553 C557 1.323 . S
C554 C553 1.304 . S
C554 C555 1.371 . S
C554 H568 0.930 . S
C555 C552 1.344 . S
C555 C554 1.371 . S
C555 H569 0.931 . S
C556 C552 1.328 . S
C556 C557 1.433 . S
C556 H570 0.931 . S
C557 C553 1.323 . S
C557 C556 1.433 . S
C557 H571 0.933 . S
C558 Dy536 2.738 . S
C558 O541 1.255 . S
C558 O542 1.249 . S
C558 C552 1.516 . S
C559 O543 1.254 . S
C559 O544 1.257 . S
C560 O545 1.266 . S
C560 O546 1.236 . S
C561 C564 1.344 . S
C561 C565 1.328 . S
C561 C567 1.516 . S
C562 C563 1.304 . S
C562 C566 1.323 . S
C563 C562 1.304 . S
C563 C564 1.371 . S
C563 H572 0.930 . S
C564 C561 1.344 . S
C564 C563 1.371 . S
C564 H573 0.931 . S
C565 C561 1.328 . S
C565 C566 1.433 . S
C565 H574 0.931 . S
C566 C562 1.323 . S
C566 C565 1.433 . S
C566 H575 0.933 . S
C567 Dy537 2.738 . S
C567 O547 1.255 . S
C567 O548 1.249 . S
C567 C561 1.516 . S
H568 C554 0.930 . S
H569 C555 0.931 . S
H570 C556 0.931 . S
H571 C557 0.933 . S
H572 C563 0.930 . S
H573 C564 0.931 . S
H574 C565 0.931 . S
H575 C566 0.933 . S
Dy576 O579 2.307 . S
Dy576 O581 2.395 1_554 S
Dy576 O582 2.379 1_554 S
Dy576 O584 2.339 . S
Dy576 O586 2.298 . S
Dy576 O590 2.275 . S
Dy576 C598 2.738 1_554 S
Dy577 O580 2.298 . S
Dy577 O583 2.275 . S
Dy577 O585 2.307 . S
Dy577 O587 2.395 . S
Dy577 O588 2.413 . S
Dy577 O591 2.339 1_545 S
Dy577 C607 2.738 . S
C578 O590 1.254 . S
C578 O591 1.257 1_545 S
O579 Dy576 2.307 . S
O579 C589 1.266 . S
O580 Dy577 2.298 . S
O580 C589 1.236 . S
O581 Dy576 2.395 1_556 S
O581 C598 1.255 . S
O582 Dy576 2.379 1_556 S
O582 C598 1.249 . S
O583 Dy577 2.275 . S
O583 C599 1.254 . S
O584 Dy576 2.339 . S
O584 C599 1.257 . S
O585 Dy577 2.307 . S
O585 C600 1.266 . S
O586 Dy576 2.298 . S
O586 C600 1.236 . S
O587 Dy577 2.395 . S
O587 C607 1.255 . S
O588 Dy577 2.413 . S
O588 C607 1.286 . S
C589 O579 1.266 . S
C589 O580 1.236 . S
O590 Dy576 2.275 . S
O590 C578 1.254 . S
O591 Dy577 2.339 1_565 S
O591 C578 1.257 1_565 S
C592 C595 1.344 . S
C592 C596 1.328 . S
C592 C598 1.516 . S
C593 C594 1.304 . S
C593 C597 1.323 . S
C594 C593 1.304 . S
C594 C595 1.371 . S
C594 H608 0.930 . S
C595 C592 1.344 . S
C595 C594 1.371 . S
C595 H609 0.931 . S
C596 C592 1.328 . S
C596 C597 1.433 . S
C596 H610 0.931 . S
C597 C593 1.323 . S
C597 C596 1.433 . S
C597 H611 0.933 . S
C598 Dy576 2.738 1_556 S
C598 O581 1.255 . S
C598 O582 1.249 . S
C598 C592 1.516 . S
C599 O583 1.254 . S
C599 O584 1.257 . S
C600 O585 1.266 . S
C600 O586 1.236 . S
C601 C604 1.344 . S
C601 C605 1.328 1_545 S
C601 C607 1.516 . S
C602 C603 1.304 1_565 S
C602 C606 1.323 . S
C603 C602 1.304 1_545 S
C603 C604 1.371 . S
C603 H612 0.930 . S
C604 C601 1.344 . S
C604 C603 1.371 . S
C604 H613 0.931 . S
C605 C601 1.328 1_565 S
C605 C606 1.433 . S
C605 H614 0.931 . S
C606 C602 1.323 . S
C606 C605 1.433 . S
C606 H615 0.933 . S
C607 Dy577 2.738 . S
C607 O587 1.255 . S
C607 O588 1.286 . S
C607 C601 1.516 . S
H608 C594 0.930 . S
H609 C595 0.931 . S
H610 C596 0.931 . S
H611 C597 0.933 . S
H612 C603 0.930 . S
H613 C604 0.931 . S
H614 C605 0.931 . S
H615 C606 0.933 . S
Dy616 O619 2.307 . S
Dy616 O621 2.395 . S
Dy616 O622 2.379 . S
Dy616 O624 2.339 . S
Dy616 O626 2.298 . S
Dy616 O630 2.275 . S
Dy616 C638 2.738 . S
Dy617 O620 2.298 . S
Dy617 O623 2.275 . S
Dy617 O625 2.307 . S
Dy617 O627 2.395 . S
Dy617 O628 2.379 . S
Dy617 O631 2.339 . S
Dy617 C647 2.738 . S
C618 O630 1.254 . S
C618 O631 1.257 . S
O619 Dy616 2.307 . S
O619 C629 1.266 . S
O620 Dy617 2.298 . S
O620 C629 1.236 . S
O621 Dy616 2.395 . S
O621 C638 1.255 . S
O622 Dy616 2.379 . S
O622 C638 1.249 . S
O623 Dy617 2.275 . S
O623 C639 1.254 . S
O624 Dy616 2.339 . S
O624 C639 1.257 . S
O625 Dy617 2.307 . S
O625 C640 1.266 . S
O626 Dy616 2.298 . S
O626 C640 1.236 . S
O627 Dy617 2.395 . S
O627 C647 1.255 . S
O628 Dy617 2.379 . S
O628 C647 1.249 . S
C629 O619 1.266 . S
C629 O620 1.236 . S
O630 Dy616 2.275 . S
O630 C618 1.254 . S
O631 Dy617 2.339 . S
O631 C618 1.257 . S
C632 C635 1.344 . S
C632 C636 1.328 . S
C632 C638 1.516 . S
C633 C634 1.304 . S
C633 C637 1.323 . S
C634 C633 1.304 . S
C634 C635 1.371 . S
C634 H648 0.930 . S
C635 C632 1.344 . S
C635 C634 1.371 . S
C635 H649 0.931 . S
C636 C632 1.328 . S
C636 C637 1.433 . S
C636 H650 0.931 . S
C637 C633 1.323 . S
C637 C636 1.433 . S
C637 H651 0.933 . S
C638 Dy616 2.738 . S
C638 O621 1.255 . S
C638 O622 1.249 . S
C638 C632 1.516 . S
C639 O623 1.254 . S
C639 O624 1.257 . S
C640 O625 1.266 . S
C640 O626 1.236 . S
C641 C644 1.344 . S
C641 C645 1.328 . S
C641 C647 1.516 . S
C642 C643 1.304 . S
C642 C646 1.323 . S
C643 C642 1.304 . S
C643 C644 1.371 . S
C643 H652 0.930 . S
C644 C641 1.344 . S
C644 C643 1.371 . S
C644 H653 0.931 . S
C645 C641 1.328 . S
C645 C646 1.433 . S
C645 H654 0.931 . S
C646 C642 1.323 . S
C646 C645 1.433 . S
C646 H655 0.933 . S
C647 Dy617 2.738 . S
C647 O627 1.255 . S
C647 O628 1.249 . S
C647 C641 1.516 . S
H648 C634 0.930 . S
H649 C635 0.931 . S
H650 C636 0.931 . S
H651 C637 0.933 . S
H652 C643 0.930 . S
H653 C644 0.931 . S
H654 C645 0.931 . S
H655 C646 0.933 . S
Dy656 O659 2.307 1_554 S
Dy656 O661 2.395 . S
Dy656 O662 2.379 . S
Dy656 O664 2.339 . S
Dy656 O666 2.298 . S
Dy656 O670 2.275 . S
Dy656 C678 2.738 . S
Dy657 O660 2.298 1_554 S
Dy657 O663 2.275 . S
Dy657 O665 2.307 . S
Dy657 O667 2.395 . S
Dy657 O668 2.379 . S
Dy657 O671 2.339 . S
Dy657 C687 2.738 . S
C658 O670 1.254 . S
C658 O671 1.257 . S
O659 Dy656 2.307 1_556 S
O659 C669 1.266 . S
O660 Dy657 2.298 1_556 S
O660 C669 1.236 . S
O661 Dy656 2.395 . S
O661 C678 1.255 . S
O662 Dy656 2.379 . S
O662 C678 1.249 . S
O663 Dy657 2.275 . S
O663 C679 1.254 . S
O664 Dy656 2.339 . S
O664 C679 1.257 . S
O665 Dy657 2.307 . S
O665 C680 1.266 . S
O666 Dy656 2.298 . S
O666 C680 1.236 . S
O667 Dy657 2.395 . S
O667 C687 1.255 . S
O668 Dy657 2.379 . S
O668 C687 1.249 . S
C669 O659 1.266 . S
C669 O660 1.236 . S
O670 Dy656 2.275 . S
O670 C658 1.254 . S
O671 Dy657 2.339 . S
O671 C658 1.257 . S
C672 C675 1.344 . S
C672 C676 1.328 . S
C672 C678 1.516 . S
C673 C674 1.304 . S
C673 C677 1.323 . S
C674 C673 1.304 . S
C674 C675 1.371 . S
C674 H688 0.930 . S
C675 C672 1.344 . S
C675 C674 1.371 . S
C675 H689 0.931 . S
C676 C672 1.328 . S
C676 C677 1.433 . S
C676 H690 0.931 . S
C677 C673 1.323 . S
C677 C676 1.433 . S
C677 H691 0.933 . S
C678 Dy656 2.738 . S
C678 O661 1.255 . S
C678 O662 1.249 . S
C678 C672 1.516 . S
C679 O663 1.254 . S
C679 O664 1.257 . S
C680 O665 1.266 . S
C680 O666 1.236 . S
C681 C684 1.344 . S
C681 C685 1.328 . S
C681 C687 1.516 1_556 S
C682 C683 1.304 . S
C682 C686 1.323 . S
C683 C682 1.304 . S
C683 C684 1.371 . S
C683 H692 0.930 . S
C684 C681 1.344 . S
C684 C683 1.371 . S
C684 H693 0.931 . S
C685 C681 1.328 . S
C685 C686 1.433 . S
C685 H694 0.931 1_556 S
C686 C682 1.323 . S
C686 C685 1.433 . S
C686 H695 0.933 . S
C687 Dy657 2.738 . S
C687 O667 1.255 . S
C687 O668 1.249 . S
C687 C681 1.516 1_554 S
H688 C674 0.930 . S
H689 C675 0.931 . S
H690 C676 0.931 . S
H691 C677 0.933 . S
H692 C683 0.930 . S
H693 C684 0.931 . S
H694 C685 0.931 1_554 S
H695 C686 0.933 . S
Dy696 O699 2.307 . S
Dy696 O701 2.395 . S
Dy696 O702 2.379 . S
Dy696 O704 2.339 . S
Dy696 O706 2.298 . S
Dy696 O710 2.275 . S
Dy696 C718 2.738 . S
Dy697 O700 2.298 . S
Dy697 O703 2.275 . S
Dy697 O705 2.307 . S
Dy697 O707 2.395 . S
Dy697 O708 2.379 . S
Dy697 O711 2.339 . S
Dy697 C727 2.738 . S
C698 O710 1.254 . S
C698 O711 1.257 . S
O699 Dy696 2.307 . S
O699 C709 1.266 . S
O700 Dy697 2.298 . S
O700 C709 1.236 . S
O701 Dy696 2.395 . S
O701 C718 1.255 . S
O702 Dy696 2.379 . S
O702 C718 1.249 . S
O703 Dy697 2.275 . S
O703 C719 1.254 . S
O704 Dy696 2.339 . S
O704 C719 1.257 . S
O705 Dy697 2.307 . S
O705 C720 1.266 . S
O706 Dy696 2.298 . S
O706 C720 1.236 . S
O707 Dy697 2.395 . S
O707 C727 1.255 . S
O708 Dy697 2.379 . S
O708 C727 1.249 . S
C709 O699 1.266 . S
C709 O700 1.236 . S
O710 Dy696 2.275 . S
O710 C698 1.254 . S
O711 Dy697 2.339 . S
O711 C698 1.257 . S
C712 C715 1.344 . S
C712 C716 1.328 . S
C712 C718 1.516 . S
C713 C714 1.304 . S
C713 C717 1.323 . S
C714 C713 1.304 . S
C714 C715 1.371 . S
C714 H728 0.930 . S
C715 C712 1.344 . S
C715 C714 1.371 . S
C715 H729 0.931 . S
C716 C712 1.328 . S
C716 C717 1.433 . S
C716 H730 0.931 . S
C717 C713 1.323 . S
C717 C716 1.433 . S
C717 H731 0.933 . S
C718 Dy696 2.738 . S
C718 O701 1.255 . S
C718 O702 1.249 . S
C718 C712 1.516 . S
C719 O703 1.254 . S
C719 O704 1.257 . S
C720 O705 1.266 . S
C720 O706 1.236 . S
C721 C724 1.344 . S
C721 C725 1.328 . S
C721 C727 1.516 . S
C722 C723 1.304 . S
C722 C726 1.323 . S
C723 C722 1.304 . S
C723 C724 1.371 . S
C723 H732 0.930 . S
C724 C721 1.344 . S
C724 C723 1.371 . S
C724 H733 0.931 . S
C725 C721 1.328 . S
C725 C726 1.433 . S
C725 H734 0.931 . S
C726 C722 1.323 . S
C726 C725 1.433 . S
C726 H735 0.933 . S
C727 Dy697 2.738 . S
C727 O707 1.255 . S
C727 O708 1.249 . S
C727 C721 1.516 . S
H728 C714 0.930 . S
H729 C715 0.931 . S
H730 C716 0.931 . S
H731 C717 0.933 . S
H732 C723 0.930 . S
H733 C724 0.931 . S
H734 C725 0.931 . S
H735 C726 0.933 . S
Dy736 O739 2.307 1_455 S
Dy736 O741 2.395 . S
Dy736 O742 2.379 . S
Dy736 O744 2.339 . S
Dy736 O746 2.298 . S
Dy736 O750 2.275 . S
Dy736 C758 2.738 . S
Dy737 O740 2.298 1_455 S
Dy737 O743 2.275 . S
Dy737 O745 2.307 . S
Dy737 O747 2.395 . S
Dy737 O748 2.379 . S
Dy737 O751 2.339 . S
Dy737 C767 2.738 . S
C738 O750 1.254 . S
C738 O751 1.257 . S
O739 Dy736 2.307 1_655 S
O739 C749 1.266 . S
O740 Dy737 2.298 1_655 S
O740 C749 1.236 . S
O741 Dy736 2.395 . S
O741 C758 1.255 . S
O742 Dy736 2.379 . S
O742 C758 1.249 . S
O743 Dy737 2.275 . S
O743 C759 1.254 . S
O744 Dy736 2.339 . S
O744 C759 1.257 . S
O745 Dy737 2.307 . S
O745 C760 1.266 . S
O746 Dy736 2.298 . S
O746 C760 1.236 . S
O747 Dy737 2.395 . S
O747 C767 1.255 . S
O748 Dy737 2.379 . S
O748 C767 1.249 . S
C749 O739 1.266 . S
C749 O740 1.236 . S
O750 Dy736 2.275 . S
O750 C738 1.254 . S
O751 Dy737 2.339 . S
O751 C738 1.257 . S
C752 C755 1.344 . S
C752 C756 1.328 . S
C752 C758 1.516 . S
C753 C754 1.304 . S
C753 C757 1.323 . S
C754 C753 1.304 . S
C754 C755 1.371 . S
C754 H768 0.930 . S
C755 C752 1.344 . S
C755 C754 1.371 . S
C755 H769 0.931 . S
C756 C752 1.328 . S
C756 C757 1.433 . S
C756 H770 0.931 . S
C757 C753 1.323 . S
C757 C756 1.433 . S
C757 H771 0.933 . S
C758 Dy736 2.738 . S
C758 O741 1.255 . S
C758 O742 1.249 . S
C758 C752 1.516 . S
C759 O743 1.254 . S
C759 O744 1.257 . S
C760 O745 1.266 . S
C760 O746 1.236 . S
C761 C764 1.344 . S
C761 C765 1.328 . S
C761 C767 1.516 1_655 S
C762 C763 1.304 . S
C762 C766 1.323 . S
C763 C762 1.304 . S
C763 C764 1.371 . S
C763 H772 0.930 . S
C764 C761 1.344 . S
C764 C763 1.371 . S
C764 H773 0.931 . S
C765 C761 1.328 . S
C765 C766 1.433 . S
C765 H774 0.931 . S
C766 C762 1.323 . S
C766 C765 1.433 . S
C766 H775 0.933 . S
C767 Dy737 2.738 . S
C767 O747 1.255 . S
C767 O748 1.249 . S
C767 C761 1.516 1_455 S
H768 C754 0.930 . S
H769 C755 0.931 . S
H770 C756 0.931 . S
H771 C757 0.933 . S
H772 C763 0.930 . S
H773 C764 0.931 . S
H774 C765 0.931 . S
H775 C766 0.933 . S
Dy776 O779 2.307 . S
Dy776 O781 2.395 . S
Dy776 O782 2.379 . S
Dy776 O784 2.339 . S
Dy776 O786 2.298 . S
Dy776 O790 2.275 . S
Dy776 C798 2.738 . S
Dy777 O780 2.298 . S
Dy777 O783 2.275 . S
Dy777 O785 2.307 . S
Dy777 O787 2.395 . S
Dy777 O788 2.379 . S
Dy777 O791 2.339 . S
Dy777 C807 2.738 . S
C778 O790 1.254 . S
C778 O791 1.257 . S
O779 Dy776 2.307 . S
O779 C789 1.266 . S
O780 Dy777 2.298 . S
O780 C789 1.236 . S
O781 Dy776 2.395 . S
O781 C798 1.255 . S
O782 Dy776 2.379 . S
O782 C798 1.249 . S
O783 Dy777 2.275 . S
O783 C799 1.254 . S
O784 Dy776 2.339 . S
O784 C799 1.257 . S
O785 Dy777 2.307 . S
O785 C800 1.266 . S
O786 Dy776 2.298 . S
O786 C800 1.236 . S
O787 Dy777 2.395 . S
O787 C807 1.255 . S
O788 Dy777 2.379 . S
O788 C807 1.249 . S
C789 O779 1.266 . S
C789 O780 1.236 . S
O790 Dy776 2.275 . S
O790 C778 1.254 . S
O791 Dy777 2.339 . S
O791 C778 1.257 . S
C792 C795 1.344 . S
C792 C796 1.328 . S
C792 C798 1.516 . S
C793 C794 1.304 . S
C793 C797 1.323 . S
C794 C793 1.304 . S
C794 C795 1.371 . S
C794 H808 0.930 . S
C795 C792 1.344 . S
C795 C794 1.371 . S
C795 H809 0.931 . S
C796 C792 1.328 . S
C796 C797 1.433 . S
C796 H810 0.931 . S
C797 C793 1.323 . S
C797 C796 1.433 . S
C797 H811 0.933 . S
C798 Dy776 2.738 . S
C798 O781 1.255 . S
C798 O782 1.249 . S
C798 C792 1.516 . S
C799 O783 1.254 . S
C799 O784 1.257 . S
C800 O785 1.266 . S
C800 O786 1.236 . S
C801 C804 1.344 . S
C801 C805 1.328 . S
C801 C807 1.516 . S
C802 C803 1.304 . S
C802 C806 1.323 . S
C803 C802 1.304 . S
C803 C804 1.371 . S
C803 H812 0.930 . S
C804 C801 1.344 . S
C804 C803 1.371 . S
C804 H813 0.931 . S
C805 C801 1.328 . S
C805 C806 1.433 . S
C805 H814 0.931 . S
C806 C802 1.323 . S
C806 C805 1.433 . S
C806 H815 0.933 . S
C807 Dy777 2.738 . S
C807 O787 1.255 . S
C807 O788 1.249 . S
C807 C801 1.516 . S
H808 C794 0.930 . S
H809 C795 0.931 . S
H810 C796 0.931 . S
H811 C797 0.933 . S
H812 C803 0.930 . S
H813 C804 0.931 . S
H814 C805 0.931 . S
H815 C806 0.933 . S
Dy816 O819 2.307 . S
Dy816 O821 2.395 . S
Dy816 O822 2.379 . S
Dy816 O824 2.339 . S
Dy816 O826 2.298 . S
Dy816 O830 2.275 . S
Dy816 C838 2.738 . S
Dy817 O820 2.298 . S
Dy817 O823 2.275 . S
Dy817 O825 2.307 . S
Dy817 O827 2.395 . S
Dy817 O828 2.379 . S
Dy817 O831 2.339 . S
Dy817 C847 2.738 . S
C818 O830 1.254 . S
C818 O831 1.257 . S
O819 Dy816 2.307 . S
O819 C829 1.266 . S
O820 Dy817 2.298 . S
O820 C829 1.236 . S
O821 Dy816 2.395 . S
O821 C838 1.255 . S
O822 Dy816 2.379 . S
O822 C838 1.249 . S
O823 Dy817 2.275 . S
O823 C839 1.254 . S
O824 Dy816 2.339 . S
O824 C839 1.257 . S
O825 Dy817 2.307 . S
O825 C840 1.266 . S
O826 Dy816 2.298 . S
O826 C840 1.236 . S
O827 Dy817 2.395 . S
O827 C847 1.255 . S
O828 Dy817 2.379 . S
O828 C847 1.249 . S
C829 O819 1.266 . S
C829 O820 1.236 . S
O830 Dy816 2.275 . S
O830 C818 1.254 . S
O831 Dy817 2.339 . S
O831 C818 1.257 . S
C832 C835 1.344 . S
C832 C836 1.328 . S
C832 C838 1.516 . S
C833 C834 1.304 . S
C833 C837 1.323 . S
C834 C833 1.304 . S
C834 C835 1.371 . S
C834 H848 0.930 . S
C835 C832 1.344 . S
C835 C834 1.371 . S
C835 H849 0.931 . S
C836 C832 1.328 . S
C836 C837 1.433 . S
C836 H850 0.931 . S
C837 C833 1.323 . S
C837 C836 1.433 . S
C837 H851 0.933 . S
C838 Dy816 2.738 . S
C838 O821 1.255 . S
C838 O822 1.249 . S
C838 C832 1.516 . S
C839 O823 1.254 . S
C839 O824 1.257 . S
C840 O825 1.266 . S
C840 O826 1.236 . S
C841 C844 1.344 . S
C841 C845 1.328 . S
C841 C847 1.516 . S
C842 C843 1.304 . S
C842 C846 1.323 . S
C843 C842 1.304 . S
C843 C844 1.371 . S
C843 H852 0.930 . S
C844 C841 1.344 . S
C844 C843 1.371 . S
C844 H853 0.931 . S
C845 C841 1.328 . S
C845 C846 1.433 . S
C845 H854 0.931 . S
C846 C842 1.323 . S
C846 C845 1.433 . S
C846 H855 0.933 . S
C847 Dy817 2.738 . S
C847 O827 1.255 . S
C847 O828 1.249 . S
C847 C841 1.516 . S
H848 C834 0.930 . S
H849 C835 0.931 . S
H850 C836 0.931 . S
H851 C837 0.933 . S
H852 C843 0.930 . S
H853 C844 0.931 . S
H854 C845 0.931 . S
H855 C846 0.933 . S
Dy856 O859 2.307 . S
Dy856 O861 2.395 . S
Dy856 O862 2.379 . S
Dy856 O864 2.339 . S
Dy856 O866 2.298 . S
Dy856 O870 2.275 . S
Dy856 C878 2.738 . S
Dy857 O860 2.298 . S
Dy857 O863 2.275 . S
Dy857 O865 2.307 . S
Dy857 O867 2.395 . S
Dy857 O868 2.379 . S
Dy857 O871 2.339 . S
Dy857 C887 2.738 . S
C858 O870 1.254 . S
C858 O871 1.257 . S
O859 Dy856 2.307 . S
O859 C869 1.266 . S
O860 Dy857 2.298 . S
O860 C869 1.236 . S
O861 Dy856 2.395 . S
O861 C878 1.255 . S
O862 Dy856 2.379 . S
O862 C878 1.249 . S
O863 Dy857 2.275 . S
O863 C879 1.254 . S
O864 Dy856 2.339 . S
O864 C879 1.257 . S
O865 Dy857 2.307 . S
O865 C880 1.266 . S
O866 Dy856 2.298 . S
O866 C880 1.236 . S
O867 Dy857 2.395 . S
O867 C887 1.255 . S
O868 Dy857 2.379 . S
O868 C887 1.249 . S
C869 O859 1.266 . S
C869 O860 1.236 . S
O870 Dy856 2.275 . S
O870 C858 1.254 . S
O871 Dy857 2.339 . S
O871 C858 1.257 . S
C872 C875 1.344 . S
C872 C876 1.328 . S
C872 C878 1.516 . S
C873 C874 1.304 . S
C873 C877 1.323 . S
C874 C873 1.304 . S
C874 C875 1.371 . S
C874 H888 0.930 . S
C875 C872 1.344 . S
C875 C874 1.371 . S
C875 H889 0.931 . S
C876 C872 1.328 . S
C876 C877 1.433 . S
C876 H890 0.931 . S
C877 C873 1.323 . S
C877 C876 1.433 . S
C877 H891 0.933 . S
C878 Dy856 2.738 . S
C878 O861 1.255 . S
C878 O862 1.249 . S
C878 C872 1.516 . S
C879 O863 1.254 . S
C879 O864 1.257 . S
C880 O865 1.266 . S
C880 O866 1.236 . S
C881 C884 1.344 . S
C881 C885 1.328 . S
C881 C887 1.516 . S
C882 C883 1.304 . S
C882 C886 1.323 . S
C883 C882 1.304 . S
C883 C884 1.371 . S
C883 H892 0.930 . S
C884 C881 1.344 . S
C884 C883 1.371 . S
C884 H893 0.931 . S
C885 C881 1.328 . S
C885 C886 1.433 . S
C885 H894 0.931 . S
C886 C882 1.323 . S
C886 C885 1.433 . S
C886 H895 0.933 . S
C887 Dy857 2.738 . S
C887 O867 1.255 . S
C887 O868 1.249 . S
C887 C881 1.516 . S
H888 C874 0.930 . S
H889 C875 0.931 . S
H890 C876 0.931 . S
H891 C877 0.933 . S
H892 C883 0.930 . S
H893 C884 0.931 . S
H894 C885 0.931 . S
H895 C886 0.933 . S
Dy896 O899 2.307 . S
Dy896 O901 2.395 . S
Dy896 O902 2.379 . S
Dy896 O904 2.339 . S
Dy896 O906 2.298 . S
Dy896 O910 2.275 . S
Dy896 C918 2.738 . S
Dy897 O900 2.298 . S
Dy897 O903 2.275 . S
Dy897 O905 2.307 . S
Dy897 O907 2.395 . S
Dy897 O908 2.379 . S
Dy897 O911 2.339 . S
Dy897 C927 2.738 . S
C898 O910 1.254 . S
C898 O911 1.257 . S
O899 Dy896 2.307 . S
O899 C909 1.266 . S
O900 Dy897 2.298 . S
O900 C909 1.236 . S
O901 Dy896 2.395 . S
O901 C918 1.255 . S
O902 Dy896 2.379 . S
O902 C918 1.249 . S
O903 Dy897 2.275 . S
O903 C919 1.254 . S
O904 Dy896 2.339 . S
O904 C919 1.257 . S
O905 Dy897 2.307 . S
O905 C920 1.266 . S
O906 Dy896 2.298 . S
O906 C920 1.236 . S
O907 Dy897 2.395 . S
O907 C927 1.255 . S
O908 Dy897 2.379 . S
O908 C927 1.249 . S
C909 O899 1.266 . S
C909 O900 1.236 . S
O910 Dy896 2.275 . S
O910 C898 1.254 . S
O911 Dy897 2.339 . S
O911 C898 1.257 . S
C912 C915 1.344 . S
C912 C916 1.328 . S
C912 C918 1.516 . S
C913 C914 1.304 . S
C913 C917 1.323 . S
C914 C913 1.304 . S
C914 C915 1.371 . S
C914 H928 0.930 . S
C915 C912 1.344 . S
C915 C914 1.371 . S
C915 H929 0.931 . S
C916 C912 1.328 . S
C916 C917 1.433 . S
C916 H930 0.931 . S
C917 C913 1.323 . S
C917 C916 1.433 . S
C917 H931 0.933 . S
C918 Dy896 2.738 . S
C918 O901 1.255 . S
C918 O902 1.249 . S
C918 C912 1.516 . S
C919 O903 1.254 . S
C919 O904 1.257 . S
C920 O905 1.266 . S
C920 O906 1.236 . S
C921 C924 1.344 . S
C921 C925 1.328 . S
C921 C927 1.516 . S
C922 C923 1.304 . S
C922 C926 1.323 . S
C923 C922 1.304 . S
C923 C924 1.371 . S
C923 H932 0.930 . S
C924 C921 1.344 . S
C924 C923 1.371 . S
C924 H933 0.931 . S
C925 C921 1.328 . S
C925 C926 1.433 . S
C925 H934 0.931 . S
C926 C922 1.323 . S
C926 C925 1.433 . S
C926 H935 0.933 . S
C927 Dy897 2.738 . S
C927 O907 1.255 . S
C927 O908 1.249 . S
C927 C921 1.516 . S
H928 C914 0.930 . S
H929 C915 0.931 . S
H930 C916 0.931 . S
H931 C917 0.933 . S
H932 C923 0.930 . S
H933 C924 0.931 . S
H934 C925 0.931 . S
H935 C926 0.933 . S
Dy936 O939 2.306 . S
Dy936 O941 2.397 1_455 S
Dy936 O942 2.381 1_455 S
Dy936 O944 2.337 . S
Dy936 O946 2.297 . S
Dy936 O950 2.274 . S
Dy936 C958 2.740 1_455 S
Dy937 O940 2.298 . S
Dy937 O943 2.275 . S
Dy937 O945 2.307 . S
Dy937 O947 2.395 . S
Dy937 O948 2.379 1_554 S
Dy937 O951 2.339 1_554 S
Dy937 C967 2.738 . S
C938 O950 1.254 1_556 S
C938 O951 1.257 . S
O939 Dy936 2.306 . S
O939 C949 1.266 . S
O940 Dy937 2.298 . S
O940 C949 1.236 . S
O941 Dy936 2.397 1_655 S
O941 C958 1.255 . S
O942 Dy936 2.381 1_655 S
O942 C958 1.249 . S
O943 Dy937 2.275 . S
O943 C959 1.254 . S
O944 Dy936 2.337 . S
O944 C959 1.257 . S
O945 Dy937 2.307 . S
O945 C960 1.266 . S
O946 Dy936 2.297 . S
O946 C960 1.236 . S
O947 Dy937 2.395 . S
O947 C967 1.255 . S
O948 Dy937 2.379 1_556 S
O948 C967 1.249 1_556 S
C949 O939 1.266 . S
C949 O940 1.236 . S
O950 Dy936 2.274 . S
O950 C938 1.254 1_554 S
O951 Dy937 2.339 1_556 S
O951 C938 1.257 . S
C952 C955 1.344 . S
C952 C956 1.328 . S
C952 C958 1.516 . S
C953 C954 1.304 . S
C953 C957 1.323 . S
C954 C953 1.304 . S
C954 C955 1.371 . S
C954 H968 0.930 . S
C955 C952 1.344 . S
C955 C954 1.371 . S
C955 H969 0.931 . S
C956 C952 1.328 . S
C956 C957 1.433 . S
C956 H970 0.931 . S
C957 C953 1.323 . S
C957 C956 1.433 . S
C957 H971 0.933 . S
C958 Dy936 2.740 1_655 S
C958 O941 1.255 . S
C958 O942 1.249 . S
C958 C952 1.516 . S
C959 O943 1.254 . S
C959 O944 1.257 . S
C960 O945 1.266 . S
C960 O946 1.236 . S
C961 C964 1.344 . S
C961 C965 1.328 1_554 S
C961 C967 1.516 . S
C962 C963 1.304 . S
C962 C966 1.323 1_554 S
C963 C962 1.304 . S
C963 C964 1.371 . S
C963 H972 0.930 . S
C964 C961 1.344 . S
C964 C963 1.371 . S
C964 H973 0.931 . S
C965 C961 1.328 1_556 S
C965 C966 1.433 . S
C965 H974 0.931 . S
C966 C962 1.323 1_556 S
C966 C965 1.433 . S
C966 H975 0.933 . S
C967 Dy937 2.738 . S
C967 O947 1.255 . S
C967 O948 1.249 1_554 S
C967 C961 1.516 . S
H968 C954 0.930 . S
H969 C955 0.931 . S
H970 C956 0.931 . S
H971 C957 0.933 . S
H972 C963 0.930 . S
H973 C964 0.931 . S
H974 C965 0.931 . S
H975 C966 0.933 . S
H976 C984 0.950 . S
H977 C989 0.950 1_655 S
H978 C986 0.950 . S
H979 C988 0.950 . S
H980 C990 0.950 1_556 S
H981 C992 0.950 . S
H982 C994 0.950 . S
H983 C995 0.950 . S
C984 H976 0.950 . S
C984 C985 1.386 1_454 S
C984 C986 1.391 . S
C985 C984 1.386 1_656 S
C985 C989 1.394 1_655 S
C986 H978 0.950 . S
C986 C984 1.391 . S
C986 C987 1.400 . S
C987 C986 1.400 . S
C987 C988 1.398 1_554 S
C987 C993 1.491 . S
C988 H979 0.950 . S
C988 C987 1.398 1_556 S
C988 C989 1.391 . S
C989 H977 0.950 1_455 S
C989 C985 1.394 1_455 S
C989 C988 1.391 . S
C990 H980 0.950 1_554 S
C990 C991 1.386 . S
C990 C992 1.391 1_554 S
C991 C990 1.386 . S
C991 C995 1.393 . S
C992 H981 0.950 . S
C992 C990 1.391 1_556 S
C992 C993 1.400 1_556 S
C993 C987 1.491 . S
C993 C992 1.400 1_554 S
C993 C994 1.398 . S
C994 H982 0.950 . S
C994 C993 1.398 . S
C994 C995 1.391 . S
C995 H983 0.950 . S
C995 C991 1.393 . S
C995 C994 1.391 . S
H996 C1004 0.950 . S
H997 C1009 0.950 . S
H998 C1006 0.950 . S
H999 C1008 0.950 . S
H1000 C1010 0.950 . S
H1001 C1012 0.950 . S
H1002 C1014 0.950 . S
H1003 C1015 0.950 . S
C1004 H996 0.950 . S
C1004 C1005 1.386 . S
C1004 C1006 1.391 . S
C1005 C1004 1.386 . S
C1005 C1009 1.393 . S
C1006 H998 0.950 . S
C1006 C1004 1.391 . S
C1006 C1007 1.400 . S
C1007 C1006 1.400 . S
C1007 C1008 1.398 . S
C1007 C1013 1.491 . S
C1008 H999 0.950 . S
C1008 C1007 1.398 . S
C1008 C1009 1.391 . S
C1009 H997 0.950 . S
C1009 C1005 1.393 . S
C1009 C1008 1.391 . S
C1010 H1000 0.950 . S
C1010 C1011 1.386 . S
C1010 C1012 1.391 . S
C1011 C1010 1.386 . S
C1011 C1015 1.393 . S
C1012 H1001 0.950 . S
C1012 C1010 1.391 . S
C1012 C1013 1.400 . S
C1013 C1007 1.491 . S
C1013 C1012 1.400 . S
C1013 C1014 1.398 . S
C1014 H1002 0.950 . S
C1014 C1013 1.398 . S
C1014 C1015 1.391 . S
C1015 H1003 0.950 . S
C1015 C1011 1.393 . S
C1015 C1014 1.391 . S
H1016 C1024 0.950 . S
H1017 C1029 0.950 . S
H1018 C1026 0.950 . S
H1019 C1028 0.950 . S
H1020 C1030 0.950 . S
H1021 C1032 0.950 . S
H1022 C1034 0.950 . S
H1023 C1035 0.950 . S
C1024 H1016 0.950 . S
C1024 C1025 1.386 . S
C1024 C1026 1.391 . S
C1025 C1024 1.386 . S
C1025 C1029 1.393 . S
C1026 H1018 0.950 . S
C1026 C1024 1.391 . S
C1026 C1027 1.400 . S
C1027 C1026 1.400 . S
C1027 C1028 1.398 . S
C1027 C1033 1.491 . S
C1028 H1019 0.950 . S
C1028 C1027 1.398 . S
C1028 C1029 1.391 . S
C1029 H1017 0.950 . S
C1029 C1025 1.393 . S
C1029 C1028 1.391 . S
C1030 H1020 0.950 . S
C1030 C1031 1.386 . S
C1030 C1032 1.391 . S
C1031 C1030 1.386 . S
C1031 C1035 1.393 . S
C1032 H1021 0.950 . S
C1032 C1030 1.391 . S
C1032 C1033 1.400 . S
C1033 C1027 1.491 . S
C1033 C1032 1.400 . S
C1033 C1034 1.398 . S
C1034 H1022 0.950 . S
C1034 C1033 1.398 . S
C1034 C1035 1.391 . S
C1035 H1023 0.950 . S
C1035 C1031 1.393 . S
C1035 C1034 1.391 . S
H1036 C1044 0.950 . S
H1037 C1049 0.950 . S
H1038 C1046 0.950 . S
H1039 C1048 0.950 . S
H1040 C1050 0.950 . S
H1041 C1052 0.950 . S
H1042 C1054 0.950 . S
H1043 C1055 0.950 . S
C1044 H1036 0.950 . S
C1044 C1045 1.386 . S
C1044 C1046 1.391 . S
C1045 C1044 1.386 . S
C1045 C1049 1.393 . S
C1046 H1038 0.950 . S
C1046 C1044 1.391 . S
C1046 C1047 1.400 . S
C1047 C1046 1.400 . S
C1047 C1048 1.398 . S
C1047 C1053 1.491 . S
C1048 H1039 0.950 . S
C1048 C1047 1.398 . S
C1048 C1049 1.391 . S
C1049 H1037 0.950 . S
C1049 C1045 1.393 . S
C1049 C1048 1.391 . S
C1050 H1040 0.950 . S
C1050 C1051 1.386 . S
C1050 C1052 1.391 . S
C1051 C1050 1.386 . S
C1051 C1055 1.393 . S
C1052 H1041 0.950 . S
C1052 C1050 1.391 . S
C1052 C1053 1.400 . S
C1053 C1047 1.491 . S
C1053 C1052 1.400 . S
C1053 C1054 1.398 . S
C1054 H1042 0.950 . S
C1054 C1053 1.398 . S
C1054 C1055 1.391 . S
C1055 H1043 0.950 . S
C1055 C1051 1.393 . S
C1055 C1054 1.391 . S
H1056 C1064 0.950 . S
H1057 C1069 0.950 . S
H1058 C1066 0.950 . S
H1059 C1068 0.950 . S
H1060 C1070 0.950 . S
H1061 C1072 0.950 . S
H1062 C1074 0.950 . S
H1063 C1075 0.950 . S
C1064 H1056 0.950 . S
C1064 C1065 1.386 . S
C1064 C1066 1.391 . S
C1065 C1064 1.386 . S
C1065 C1069 1.393 . S
C1066 H1058 0.950 . S
C1066 C1064 1.391 . S
C1066 C1067 1.400 . S
C1067 C1066 1.400 . S
C1067 C1068 1.398 . S
C1067 C1073 1.491 . S
C1068 H1059 0.950 . S
C1068 C1067 1.398 . S
C1068 C1069 1.391 . S
C1069 H1057 0.950 . S
C1069 C1065 1.393 . S
C1069 C1068 1.391 . S
C1070 H1060 0.950 . S
C1070 C1071 1.386 . S
C1070 C1072 1.391 . S
C1071 C1070 1.386 . S
C1071 C1075 1.393 . S
C1072 H1061 0.950 . S
C1072 C1070 1.391 . S
C1072 C1073 1.400 . S
C1073 C1067 1.491 . S
C1073 C1072 1.400 . S
C1073 C1074 1.398 . S
C1074 H1062 0.950 . S
C1074 C1073 1.398 . S
C1074 C1075 1.391 . S
C1075 H1063 0.950 . S
C1075 C1071 1.393 . S
C1075 C1074 1.391 . S
H1076 C1084 0.950 . S
H1077 C1089 0.950 . S
H1078 C1086 0.950 . S
H1079 C1088 0.950 . S
H1080 C1090 0.950 . S
H1081 C1092 0.950 . S
H1082 C1094 0.950 . S
H1083 C1095 0.950 . S
C1084 H1076 0.950 . S
C1084 C1085 1.386 . S
C1084 C1086 1.391 . S
C1085 C1084 1.386 . S
C1085 C1089 1.393 . S
C1086 H1078 0.950 . S
C1086 C1084 1.391 . S
C1086 C1087 1.400 . S
C1087 C1086 1.400 . S
C1087 C1088 1.398 . S
C1087 C1093 1.491 . S
C1088 H1079 0.950 . S
C1088 C1087 1.398 . S
C1088 C1089 1.391 . S
C1089 H1077 0.950 . S
C1089 C1085 1.393 . S
C1089 C1088 1.391 . S
C1090 H1080 0.950 . S
C1090 C1091 1.386 . S
C1090 C1092 1.391 . S
C1091 C1090 1.386 . S
C1091 C1095 1.393 . S
C1092 H1081 0.950 . S
C1092 C1090 1.391 . S
C1092 C1093 1.400 . S
C1093 C1087 1.491 . S
C1093 C1092 1.400 . S
C1093 C1094 1.398 . S
C1094 H1082 0.950 . S
C1094 C1093 1.398 . S
C1094 C1095 1.391 . S
C1095 H1083 0.950 . S
C1095 C1091 1.393 . S
C1095 C1094 1.391 . S
H1096 C1104 0.950 . S
H1097 C1109 0.950 . S
H1098 C1106 0.950 . S
H1099 C1108 0.950 . S
H1100 C1110 0.950 . S
H1101 C1112 0.950 . S
H1102 C1114 0.950 . S
H1103 C1115 0.950 . S
C1104 H1096 0.950 . S
C1104 C1105 1.386 . S
C1104 C1106 1.391 . S
C1105 C1104 1.386 . S
C1105 C1109 1.393 . S
C1106 H1098 0.950 . S
C1106 C1104 1.391 . S
C1106 C1107 1.400 . S
C1107 C1106 1.400 . S
C1107 C1108 1.398 . S
C1107 C1113 1.491 . S
C1108 H1099 0.950 . S
C1108 C1107 1.398 . S
C1108 C1109 1.391 . S
C1109 H1097 0.950 . S
C1109 C1105 1.393 . S
C1109 C1108 1.391 . S
C1110 H1100 0.950 . S
C1110 C1111 1.386 . S
C1110 C1112 1.391 . S
C1111 C1110 1.386 . S
C1111 C1115 1.393 . S
C1112 H1101 0.950 . S
C1112 C1110 1.391 . S
C1112 C1113 1.400 . S
C1113 C1107 1.491 . S
C1113 C1112 1.400 . S
C1113 C1114 1.398 . S
C1114 H1102 0.950 . S
C1114 C1113 1.398 . S
C1114 C1115 1.391 . S
C1115 H1103 0.950 . S
C1115 C1111 1.393 . S
C1115 C1114 1.391 . S
H1116 C1124 0.950 . S
H1117 C1129 0.950 . S
H1118 C1126 0.950 . S
H1119 C1128 0.950 . S
H1120 C1130 0.950 . S
H1121 C1132 0.950 . S
H1122 C1134 0.950 . S
H1123 C1135 0.950 . S
C1124 H1116 0.950 . S
C1124 C1125 1.386 . S
C1124 C1126 1.391 . S
C1125 C1124 1.386 . S
C1125 C1129 1.393 . S
C1126 H1118 0.950 . S
C1126 C1124 1.391 . S
C1126 C1127 1.400 . S
C1127 C1126 1.400 . S
C1127 C1128 1.398 . S
C1127 C1133 1.491 . S
C1128 H1119 0.950 . S
C1128 C1127 1.398 . S
C1128 C1129 1.391 . S
C1129 H1117 0.950 . S
C1129 C1125 1.393 . S
C1129 C1128 1.391 . S
C1130 H1120 0.950 . S
C1130 C1131 1.386 . S
C1130 C1132 1.391 . S
C1131 C1130 1.386 . S
C1131 C1135 1.393 . S
C1132 H1121 0.950 . S
C1132 C1130 1.391 . S
C1132 C1133 1.400 . S
C1133 C1127 1.491 . S
C1133 C1132 1.400 . S
C1133 C1134 1.398 . S
C1134 H1122 0.950 . S
C1134 C1133 1.398 . S
C1134 C1135 1.391 . S
C1135 H1123 0.950 . S
C1135 C1131 1.393 . S
C1135 C1134 1.391 . S
H1136 C1144 0.950 . S
H1137 C1149 0.950 . S
H1138 C1146 0.950 . S
H1139 C1148 0.950 1_455 S
H1140 C1150 0.950 . S
H1141 C1152 0.950 . S
H1142 C1154 0.950 . S
H1143 C1155 0.950 . S
C1144 H1136 0.950 . S
C1144 C1145 1.386 . S
C1144 C1146 1.391 . S
C1145 C1144 1.386 . S
C1145 C1149 1.393 . S
C1146 H1138 0.950 . S
C1146 C1144 1.391 . S
C1146 C1147 1.400 . S
C1147 C1146 1.400 . S
C1147 C1148 1.398 . S
C1147 C1153 1.491 . S
C1148 H1139 0.950 1_655 S
C1148 C1147 1.398 . S
C1148 C1149 1.391 . S
C1149 H1137 0.950 . S
C1149 C1145 1.393 . S
C1149 C1148 1.391 . S
C1150 H1140 0.950 . S
C1150 C1151 1.386 . S
C1150 C1152 1.391 . S
C1151 C1150 1.386 . S
C1151 C1155 1.393 1_455 S
C1152 H1141 0.950 . S
C1152 C1150 1.391 . S
C1152 C1153 1.400 1_455 S
C1153 C1147 1.491 . S
C1153 C1152 1.400 1_655 S
C1153 C1154 1.398 . S
C1154 H1142 0.950 . S
C1154 C1153 1.398 . S
C1154 C1155 1.391 . S
C1155 H1143 0.950 . S
C1155 C1151 1.393 1_655 S
C1155 C1154 1.391 . S
H1156 C1164 0.950 . S
H1157 C1169 0.950 . S
H1158 C1166 0.950 . S
H1159 C1168 0.950 . S
H1160 C1170 0.950 . S
H1161 C1172 0.950 . S
H1162 C1174 0.950 . S
H1163 C1175 0.950 . S
C1164 H1156 0.950 . S
C1164 C1165 1.386 . S
C1164 C1166 1.391 . S
C1165 C1164 1.386 . S
C1165 C1169 1.393 . S
C1166 H1158 0.950 . S
C1166 C1164 1.391 . S
C1166 C1167 1.400 . S
C1167 C1166 1.400 . S
C1167 C1168 1.398 . S
C1167 C1173 1.491 . S
C1168 H1159 0.950 . S
C1168 C1167 1.398 . S
C1168 C1169 1.391 . S
C1169 H1157 0.950 . S
C1169 C1165 1.393 . S
C1169 C1168 1.391 . S
C1170 H1160 0.950 . S
C1170 C1171 1.386 . S
C1170 C1172 1.391 . S
C1171 C1170 1.386 . S
C1171 C1175 1.393 . S
C1172 H1161 0.950 . S
C1172 C1170 1.391 . S
C1172 C1173 1.400 . S
C1173 C1167 1.491 . S
C1173 C1172 1.400 . S
C1173 C1174 1.398 . S
C1174 H1162 0.950 . S
C1174 C1173 1.398 . S
C1174 C1175 1.391 . S
C1175 H1163 0.950 . S
C1175 C1171 1.393 . S
C1175 C1174 1.391 . S
H1176 C1184 0.950 . S
H1177 C1189 0.950 . S
H1178 C1186 0.950 . S
H1179 C1188 0.950 . S
H1180 C1190 0.950 . S
H1181 C1192 0.950 . S
H1182 C1194 0.950 . S
H1183 C1195 0.950 . S
C1184 H1176 0.950 . S
C1184 C1185 1.386 . S
C1184 C1186 1.391 . S
C1185 C1184 1.386 . S
C1185 C1189 1.393 . S
C1186 H1178 0.950 . S
C1186 C1184 1.391 . S
C1186 C1187 1.400 . S
C1187 C1186 1.400 . S
C1187 C1188 1.398 . S
C1187 C1193 1.491 . S
C1188 H1179 0.950 . S
C1188 C1187 1.398 . S
C1188 C1189 1.391 . S
C1189 H1177 0.950 . S
C1189 C1185 1.393 . S
C1189 C1188 1.391 . S
C1190 H1180 0.950 . S
C1190 C1191 1.386 . S
C1190 C1192 1.391 . S
C1191 C1190 1.386 . S
C1191 C1195 1.393 . S
C1192 H1181 0.950 . S
C1192 C1190 1.391 . S
C1192 C1193 1.400 . S
C1193 C1187 1.491 . S
C1193 C1192 1.400 . S
C1193 C1194 1.398 . S
C1194 H1182 0.950 . S
C1194 C1193 1.398 . S
C1194 C1195 1.391 . S
C1195 H1183 0.950 . S
C1195 C1191 1.393 . S
C1195 C1194 1.391 . S
H1196 C1204 0.950 . S
H1197 C1209 0.950 . S
H1198 C1206 0.950 . S
H1199 C1208 0.950 . S
H1200 C1210 0.950 . S
H1201 C1212 0.950 . S
H1202 C1214 0.950 . S
H1203 C1215 0.950 . S
C1204 H1196 0.950 . S
C1204 C1205 1.386 . S
C1204 C1206 1.391 . S
C1205 C1204 1.386 . S
C1205 C1209 1.393 . S
C1206 H1198 0.950 . S
C1206 C1204 1.391 . S
C1206 C1207 1.400 . S
C1207 C1206 1.400 . S
C1207 C1208 1.398 . S
C1207 C1213 1.491 . S
C1208 H1199 0.950 . S
C1208 C1207 1.398 . S
C1208 C1209 1.391 . S
C1209 H1197 0.950 . S
C1209 C1205 1.393 . S
C1209 C1208 1.391 . S
C1210 H1200 0.950 . S
C1210 C1211 1.386 . S
C1210 C1212 1.391 . S
C1211 C1210 1.386 . S
C1211 C1215 1.393 . S
C1212 H1201 0.950 . S
C1212 C1210 1.391 . S
C1212 C1213 1.400 . S
C1213 C1207 1.491 . S
C1213 C1212 1.400 . S
C1213 C1214 1.398 . S
C1214 H1202 0.950 . S
C1214 C1213 1.398 . S
C1214 C1215 1.391 . S
C1215 H1203 0.950 . S
C1215 C1211 1.393 . S
C1215 C1214 1.391 . S
H1216 C1224 0.950 1_455 S
H1217 C1229 0.950 . S
H1218 C1226 0.950 . S
H1219 C1228 0.950 . S
H1220 C1230 0.950 . S
H1221 C1232 0.950 . S
H1222 C1234 0.950 . S
H1223 C1235 0.950 . S
C1224 H1216 0.950 1_655 S
C1224 C1225 1.386 . S
C1224 C1226 1.391 1_655 S
C1225 C1224 1.386 . S
C1225 C1229 1.393 . S
C1226 H1218 0.950 . S
C1226 C1224 1.391 1_455 S
C1226 C1227 1.400 1_455 S
C1227 C1226 1.400 1_655 S
C1227 C1228 1.398 . S
C1227 C1233 1.491 . S
C1228 H1219 0.950 . S
C1228 C1227 1.398 . S
C1228 C1229 1.391 . S
C1229 H1217 0.950 . S
C1229 C1225 1.393 . S
C1229 C1228 1.391 . S
C1230 H1220 0.950 . S
C1230 C1231 1.386 1_655 S
C1230 C1232 1.391 . S
C1231 C1230 1.386 1_455 S
C1231 C1235 1.393 . S
C1232 H1221 0.950 . S
C1232 C1230 1.391 . S
C1232 C1233 1.400 . S
C1233 C1227 1.491 . S
C1233 C1232 1.400 . S
C1233 C1234 1.398 1_655 S
C1234 H1222 0.950 . S
C1234 C1233 1.398 1_455 S
C1234 C1235 1.391 . S
C1235 H1223 0.950 . S
C1235 C1231 1.393 . S
C1235 C1234 1.391 . S
H1236 C1244 0.950 . S
H1237 C1249 0.950 . S
H1238 C1246 0.950 . S
H1239 C1248 0.950 . S
H1240 C1250 0.950 . S
H1241 C1252 0.950 . S
H1242 C1254 0.950 . S
H1243 C1255 0.950 . S
C1244 H1236 0.950 . S
C1244 C1245 1.386 . S
C1244 C1246 1.391 . S
C1245 C1244 1.386 . S
C1245 C1249 1.393 . S
C1246 H1238 0.950 . S
C1246 C1244 1.391 . S
C1246 C1247 1.400 . S
C1247 C1246 1.400 . S
C1247 C1248 1.398 . S
C1247 C1253 1.491 . S
C1248 H1239 0.950 . S
C1248 C1247 1.398 . S
C1248 C1249 1.391 . S
C1249 H1237 0.950 . S
C1249 C1245 1.393 . S
C1249 C1248 1.391 . S
C1250 H1240 0.950 . S
C1250 C1251 1.386 . S
C1250 C1252 1.391 . S
C1251 C1250 1.386 . S
C1251 C1255 1.393 . S
C1252 H1241 0.950 . S
C1252 C1250 1.391 . S
C1252 C1253 1.400 . S
C1253 C1247 1.491 . S
C1253 C1252 1.400 . S
C1253 C1254 1.398 . S
C1254 H1242 0.950 . S
C1254 C1253 1.398 . S
C1254 C1255 1.391 . S
C1255 H1243 0.950 . S
C1255 C1251 1.393 . S
C1255 C1254 1.391 . S
H1256 C1264 0.950 . S
H1257 C1269 0.950 . S
H1258 C1266 0.950 . S
H1259 C1268 0.950 . S
H1260 C1270 0.950 . S
H1261 C1272 0.950 . S
H1262 C1274 0.950 . S
H1263 C1275 0.950 . S
C1264 H1256 0.950 . S
C1264 C1265 1.386 . S
C1264 C1266 1.391 . S
C1265 C1264 1.386 . S
C1265 C1269 1.393 . S
C1266 H1258 0.950 . S
C1266 C1264 1.391 . S
C1266 C1267 1.400 . S
C1267 C1266 1.400 . S
C1267 C1268 1.398 . S
C1267 C1273 1.491 . S
C1268 H1259 0.950 . S
C1268 C1267 1.398 . S
C1268 C1269 1.391 . S
C1269 H1257 0.950 . S
C1269 C1265 1.393 . S
C1269 C1268 1.391 . S
C1270 H1260 0.950 . S
C1270 C1271 1.386 . S
C1270 C1272 1.391 . S
C1271 C1270 1.386 . S
C1271 C1275 1.393 . S
C1272 H1261 0.950 . S
C1272 C1270 1.391 . S
C1272 C1273 1.400 . S
C1273 C1267 1.491 . S
C1273 C1272 1.400 . S
C1273 C1274 1.398 . S
C1274 H1262 0.950 . S
C1274 C1273 1.398 . S
C1274 C1275 1.391 . S
C1275 H1263 0.950 . S
C1275 C1271 1.393 . S
C1275 C1274 1.391 . S
H1276 C1284 0.950 . S
H1277 C1289 0.950 . S
H1278 C1286 0.950 . S
H1279 C1288 0.950 . S
H1280 C1290 0.950 . S
H1281 C1292 0.950 . S
H1282 C1294 0.950 . S
H1283 C1295 0.950 . S
C1284 H1276 0.950 . S
C1284 C1285 1.386 . S
C1284 C1286 1.391 . S
C1285 C1284 1.386 . S
C1285 C1289 1.393 . S
C1286 H1278 0.950 . S
C1286 C1284 1.391 . S
C1286 C1287 1.400 . S
C1287 C1286 1.400 . S
C1287 C1288 1.398 . S
C1287 C1293 1.491 . S
C1288 H1279 0.950 . S
C1288 C1287 1.398 . S
C1288 C1289 1.391 . S
C1289 H1277 0.950 . S
C1289 C1285 1.393 . S
C1289 C1288 1.391 . S
C1290 H1280 0.950 . S
C1290 C1291 1.386 . S
C1290 C1292 1.391 . S
C1291 C1290 1.386 . S
C1291 C1295 1.393 . S
C1292 H1281 0.950 . S
C1292 C1290 1.391 . S
C1292 C1293 1.400 . S
C1293 C1287 1.491 . S
C1293 C1292 1.400 . S
C1293 C1294 1.398 . S
C1294 H1282 0.950 . S
C1294 C1293 1.398 . S
C1294 C1295 1.391 . S
C1295 H1283 0.950 . S
C1295 C1291 1.393 . S
C1295 C1294 1.391 . S
H1296 C1304 0.950 . S
H1297 C1309 0.930 1_556 S
H1298 C1306 0.950 . S
H1299 C1308 0.950 . S
H1300 C1310 0.950 . S
H1301 C1312 0.950 . S
H1302 C1314 0.950 . S
H1303 C1315 0.950 . S
C1304 H1296 0.950 . S
C1304 C1305 1.386 . S
C1304 C1306 1.391 . S
C1305 C1304 1.386 . S
C1305 C1309 1.393 . S
C1306 H1298 0.950 . S
C1306 C1304 1.391 . S
C1306 C1307 1.400 . S
C1307 C1306 1.400 . S
C1307 C1308 1.398 . S
C1307 C1313 1.491 . S
C1308 H1299 0.950 . S
C1308 C1307 1.398 . S
C1308 C1309 1.391 . S
C1309 H1297 0.930 1_554 S
C1309 C1305 1.393 . S
C1309 C1308 1.391 . S
C1310 H1300 0.950 . S
C1310 C1311 1.386 . S
C1310 C1312 1.391 . S
C1311 C1310 1.386 . S
C1311 C1315 1.393 1_545 S
C1312 H1301 0.950 . S
C1312 C1310 1.391 . S
C1312 C1313 1.400 1_545 S
C1313 C1307 1.491 . S
C1313 C1312 1.400 1_565 S
C1313 C1314 1.398 . S
C1314 H1302 0.950 . S
C1314 C1313 1.398 . S
C1314 C1315 1.391 . S
C1315 H1303 0.950 . S
C1315 C1311 1.393 1_565 S
C1315 C1314 1.391 . S
H1316 C1324 0.950 1_556 S
H1317 C1329 0.950 . S
H1318 C1326 0.950 1_556 S
H1319 C1328 0.950 . S
H1320 C1330 0.950 . S
H1321 C1332 0.950 . S
H1322 C1334 0.950 1_556 S
H1323 C1335 0.950 1_556 S
C1324 H1316 0.950 1_554 S
C1324 C1325 1.386 . S
C1324 C1326 1.391 . S
C1325 C1324 1.386 . S
C1325 C1329 1.393 . S
C1326 H1318 0.950 1_554 S
C1326 C1324 1.391 . S
C1326 C1327 1.400 . S
C1327 C1326 1.400 . S
C1327 C1328 1.398 . S
C1327 C1333 1.491 . S
C1328 H1319 0.950 . S
C1328 C1327 1.398 . S
C1328 C1329 1.391 . S
C1329 H1317 0.950 . S
C1329 C1325 1.393 . S
C1329 C1328 1.391 . S
C1330 H1320 0.950 . S
C1330 C1331 1.386 . S
C1330 C1332 1.391 . S
C1331 C1330 1.386 . S
C1331 C1335 1.393 . S
C1332 H1321 0.950 . S
C1332 C1330 1.391 . S
C1332 C1333 1.400 . S
C1333 C1327 1.491 . S
C1333 C1332 1.400 . S
C1333 C1334 1.398 . S
C1334 H1322 0.950 1_554 S
C1334 C1333 1.398 . S
C1334 C1335 1.391 . S
C1335 H1323 0.950 1_554 S
C1335 C1331 1.393 . S
C1335 C1334 1.391 . S
H1336 C1344 0.950 . S
H1337 C1349 0.950 . S
H1338 C1346 0.950 . S
H1339 C1348 0.950 . S
H1340 C1350 0.950 . S
H1341 C1352 0.950 . S
H1342 C1354 0.950 . S
H1343 C1355 0.950 . S
C1344 H1336 0.950 . S
C1344 C1345 1.386 . S
C1344 C1346 1.391 . S
C1345 C1344 1.386 . S
C1345 C1349 1.393 . S
C1346 H1338 0.950 . S
C1346 C1344 1.391 . S
C1346 C1347 1.400 . S
C1347 C1346 1.400 . S
C1347 C1348 1.398 . S
C1347 C1353 1.491 . S
C1348 H1339 0.950 . S
C1348 C1347 1.398 . S
C1348 C1349 1.391 . S
C1349 H1337 0.950 . S
C1349 C1345 1.393 . S
C1349 C1348 1.391 . S
C1350 H1340 0.950 . S
C1350 C1351 1.386 . S
C1350 C1352 1.391 . S
C1351 C1350 1.386 . S
C1351 C1355 1.393 . S
C1352 H1341 0.950 . S
C1352 C1350 1.391 . S
C1352 C1353 1.400 . S
C1353 C1347 1.491 . S
C1353 C1352 1.400 . S
C1353 C1354 1.398 . S
C1354 H1342 0.950 . S
C1354 C1353 1.398 . S
C1354 C1355 1.391 . S
C1355 H1343 0.950 . S
C1355 C1351 1.393 . S
C1355 C1354 1.391 . S
H1356 C1364 0.950 . S
H1357 C1369 0.950 . S
H1358 C1366 0.950 . S
H1359 C1368 0.950 . S
H1360 C1370 0.950 . S
H1361 C1372 0.950 . S
H1362 C1374 0.950 . S
H1363 C1375 0.950 . S
C1364 H1356 0.950 . S
C1364 C1365 1.386 . S
C1364 C1366 1.391 . S
C1365 C1364 1.386 . S
C1365 C1369 1.393 . S
C1366 H1358 0.950 . S
C1366 C1364 1.391 . S
C1366 C1367 1.400 . S
C1367 C1366 1.400 . S
C1367 C1368 1.398 . S
C1367 C1373 1.491 . S
C1368 H1359 0.950 . S
C1368 C1367 1.398 . S
C1368 C1369 1.391 . S
C1369 H1357 0.950 . S
C1369 C1365 1.393 . S
C1369 C1368 1.391 . S
C1370 H1360 0.950 . S
C1370 C1371 1.386 . S
C1370 C1372 1.391 . S
C1371 C1370 1.386 . S
C1371 C1375 1.393 . S
C1372 H1361 0.950 . S
C1372 C1370 1.391 . S
C1372 C1373 1.400 . S
C1373 C1367 1.491 . S
C1373 C1372 1.400 . S
C1373 C1374 1.398 . S
C1374 H1362 0.950 . S
C1374 C1373 1.398 . S
C1374 C1375 1.391 . S
C1375 H1363 0.950 . S
C1375 C1371 1.393 . S
C1375 C1374 1.391 . S
H1376 C1384 0.950 . S
H1377 C1389 0.950 . S
H1378 C1386 0.950 . S
H1379 C1388 0.950 . S
H1380 C1390 0.950 . S
H1381 C1392 0.950 . S
H1382 C1394 0.950 . S
H1383 C1395 0.950 . S
C1384 H1376 0.950 . S
C1384 C1385 1.386 . S
C1384 C1386 1.391 . S
C1385 C1384 1.386 . S
C1385 C1389 1.393 . S
C1386 H1378 0.950 . S
C1386 C1384 1.391 . S
C1386 C1387 1.400 . S
C1387 C1386 1.400 . S
C1387 C1388 1.398 . S
C1387 C1393 1.491 . S
C1388 H1379 0.950 . S
C1388 C1387 1.398 . S
C1388 C1389 1.391 . S
C1389 H1377 0.950 . S
C1389 C1385 1.393 . S
C1389 C1388 1.391 . S
C1390 H1380 0.950 . S
C1390 C1391 1.386 . S
C1390 C1392 1.391 . S
C1391 C1390 1.386 . S
C1391 C1395 1.393 . S
C1392 H1381 0.950 . S
C1392 C1390 1.391 . S
C1392 C1393 1.400 . S
C1393 C1387 1.491 . S
C1393 C1392 1.400 . S
C1393 C1394 1.398 . S
C1394 H1382 0.950 . S
C1394 C1393 1.398 . S
C1394 C1395 1.391 . S
C1395 H1383 0.950 . S
C1395 C1391 1.393 . S
C1395 C1394 1.391 . S
H1396 C1404 0.950 . S
H1397 C1409 0.950 . S
H1398 C1406 0.950 . S
H1399 C1408 0.950 . S
H1400 C1410 0.950 . S
H1401 C1412 0.950 . S
H1402 C1414 0.950 . S
H1403 C1415 0.950 . S
C1404 H1396 0.950 . S
C1404 C1405 1.386 . S
C1404 C1406 1.391 . S
C1405 C1404 1.386 . S
C1405 C1409 1.393 . S
C1406 H1398 0.950 . S
C1406 C1404 1.391 . S
C1406 C1407 1.400 . S
C1407 C1406 1.400 . S
C1407 C1408 1.398 . S
C1407 C1413 1.491 . S
C1408 H1399 0.950 . S
C1408 C1407 1.398 . S
C1408 C1409 1.391 . S
C1409 H1397 0.950 . S
C1409 C1405 1.393 . S
C1409 C1408 1.391 . S
C1410 H1400 0.950 . S
C1410 C1411 1.386 . S
C1410 C1412 1.391 . S
C1411 C1410 1.386 . S
C1411 C1415 1.393 . S
C1412 H1401 0.950 . S
C1412 C1410 1.391 . S
C1412 C1413 1.400 . S
C1413 C1407 1.491 . S
C1413 C1412 1.400 . S
C1413 C1414 1.398 . S
C1414 H1402 0.950 . S
C1414 C1413 1.398 . S
C1414 C1415 1.391 . S
C1415 H1403 0.950 . S
C1415 C1411 1.393 . S
C1415 C1414 1.391 . S
H1416 C1424 0.950 . S
H1417 C1429 0.950 . S
H1418 C1426 0.950 . S
H1419 C1428 0.950 . S
H1420 C1430 0.950 . S
H1421 C1432 0.950 . S
H1422 C1434 0.950 . S
H1423 C1435 0.950 . S
C1424 H1416 0.950 . S
C1424 C1425 1.386 . S
C1424 C1426 1.391 . S
C1425 C1424 1.386 . S
C1425 C1429 1.393 . S
C1426 H1418 0.950 . S
C1426 C1424 1.391 . S
C1426 C1427 1.400 . S
C1427 C1426 1.400 . S
C1427 C1428 1.398 . S
C1427 C1433 1.491 . S
C1428 H1419 0.950 . S
C1428 C1427 1.398 . S
C1428 C1429 1.391 . S
C1429 H1417 0.950 . S
C1429 C1425 1.393 . S
C1429 C1428 1.391 . S
C1430 H1420 0.950 . S
C1430 C1431 1.386 . S
C1430 C1432 1.391 . S
C1431 C1430 1.386 . S
C1431 C1435 1.393 . S
C1432 H1421 0.950 . S
C1432 C1430 1.391 . S
C1432 C1433 1.400 . S
C1433 C1427 1.491 . S
C1433 C1432 1.400 . S
C1433 C1434 1.398 . S
C1434 H1422 0.950 . S
C1434 C1433 1.398 . S
C1434 C1435 1.391 . S
C1435 H1423 0.950 . S
C1435 C1431 1.393 . S
C1435 C1434 1.391 . S
H1436 C1444 0.950 . S
H1437 C1449 0.950 . S
H1438 C1446 0.950 . S
H1439 C1448 0.950 . S
H1440 C1450 0.950 . S
H1441 C1452 0.950 . S
H1442 C1454 0.950 . S
H1443 C1455 0.950 . S
C1444 H1436 0.950 . S
C1444 C1445 1.386 . S
C1444 C1446 1.391 . S
C1445 C1444 1.386 . S
C1445 C1449 1.393 . S
C1446 H1438 0.950 . S
C1446 C1444 1.391 . S
C1446 C1447 1.400 . S
C1447 C1446 1.400 . S
C1447 C1448 1.398 . S
C1447 C1453 1.491 . S
C1448 H1439 0.950 . S
C1448 C1447 1.398 . S
C1448 C1449 1.391 . S
C1449 H1437 0.950 . S
C1449 C1445 1.393 . S
C1449 C1448 1.391 . S
C1450 H1440 0.950 . S
C1450 C1451 1.386 . S
C1450 C1452 1.391 . S
C1451 C1450 1.386 . S
C1451 C1455 1.393 . S
C1452 H1441 0.950 . S
C1452 C1450 1.391 . S
C1452 C1453 1.400 . S
C1453 C1447 1.491 . S
C1453 C1452 1.400 . S
C1453 C1454 1.398 . S
C1454 H1442 0.950 . S
C1454 C1453 1.398 . S
C1454 C1455 1.391 . S
C1455 H1443 0.950 . S
C1455 C1451 1.393 . S
C1455 C1454 1.391 . S
H1456 C1464 0.950 . S
H1457 C1469 0.950 . S
H1458 C1466 0.950 . S
H1459 C1468 0.950 . S
H1460 C1470 0.950 . S
H1461 C1472 0.950 . S
H1462 C1474 0.950 . S
H1463 C1475 0.950 . S
C1464 H1456 0.950 . S
C1464 C1465 1.386 . S
C1464 C1466 1.391 . S
C1465 C1464 1.386 . S
C1465 C1469 1.393 . S
C1466 H1458 0.950 . S
C1466 C1464 1.391 . S
C1466 C1467 1.400 . S
C1467 C1466 1.400 . S
C1467 C1468 1.398 . S
C1467 C1473 1.491 . S
C1468 H1459 0.950 . S
C1468 C1467 1.398 . S
C1468 C1469 1.391 . S
C1469 H1457 0.950 . S
C1469 C1465 1.393 . S
C1469 C1468 1.391 . S
C1470 H1460 0.950 . S
C1470 C1471 1.386 . S
C1470 C1472 1.391 . S
C1471 C1470 1.386 . S
C1471 C1475 1.393 . S
C1472 H1461 0.950 . S
C1472 C1470 1.391 . S
C1472 C1473 1.400 . S
C1473 C1467 1.491 . S
C1473 C1472 1.400 . S
C1473 C1474 1.398 . S
C1474 H1462 0.950 . S
C1474 C1473 1.398 . S
C1474 C1475 1.391 . S
C1475 H1463 0.950 . S
C1475 C1471 1.393 . S
C1475 C1474 1.391 . S
H1476 C1484 0.950 . S
H1477 C1489 0.950 . S
H1478 C1486 0.950 . S
H1479 C1488 0.950 . S
H1480 C1490 0.950 . S
H1481 C1492 0.950 . S
H1482 C1494 0.950 . S
H1483 C1495 0.950 . S
C1484 H1476 0.950 . S
C1484 C1485 1.386 . S
C1484 C1486 1.391 . S
C1485 C1484 1.386 . S
C1485 C1489 1.393 . S
C1486 H1478 0.950 . S
C1486 C1484 1.391 . S
C1486 C1487 1.400 . S
C1487 C1486 1.400 . S
C1487 C1488 1.398 . S
C1487 C1493 1.491 . S
C1488 H1479 0.950 . S
C1488 C1487 1.398 . S
C1488 C1489 1.391 . S
C1489 H1477 0.950 . S
C1489 C1485 1.393 . S
C1489 C1488 1.391 . S
C1490 H1480 0.950 . S
C1490 C1491 1.386 . S
C1490 C1492 1.391 . S
C1491 C1490 1.386 . S
C1491 C1495 1.393 . S
C1492 H1481 0.950 . S
C1492 C1490 1.391 . S
C1492 C1493 1.400 . S
C1493 C1487 1.491 . S
C1493 C1492 1.400 . S
C1493 C1494 1.398 . S
C1494 H1482 0.950 . S
C1494 C1493 1.398 . S
C1494 C1495 1.391 . S
C1495 H1483 0.950 . S
C1495 C1491 1.393 . S
C1495 C1494 1.391 . S
H1496 C1504 0.950 . S
H1497 C1509 0.950 . S
H1498 C1506 0.950 . S
H1499 C1508 0.950 . S
H1500 C1510 0.950 . S
H1501 C1512 0.950 . S
H1502 C1514 0.950 . S
H1503 C1515 0.950 . S
C1504 H1496 0.950 . S
C1504 C1505 1.386 . S
C1504 C1506 1.391 . S
C1505 C1504 1.386 . S
C1505 C1509 1.393 . S
C1506 H1498 0.950 . S
C1506 C1504 1.391 . S
C1506 C1507 1.400 . S
C1507 C1506 1.400 . S
C1507 C1508 1.398 . S
C1507 C1513 1.491 . S
C1508 H1499 0.950 . S
C1508 C1507 1.398 . S
C1508 C1509 1.391 . S
C1509 H1497 0.950 . S
C1509 C1505 1.393 . S
C1509 C1508 1.391 . S
C1510 H1500 0.950 . S
C1510 C1511 1.386 . S
C1510 C1512 1.391 . S
C1511 C1510 1.386 . S
C1511 C1515 1.393 . S
C1512 H1501 0.950 . S
C1512 C1510 1.391 . S
C1512 C1513 1.400 . S
C1513 C1507 1.491 . S
C1513 C1512 1.400 . S
C1513 C1514 1.398 . S
C1514 H1502 0.950 . S
C1514 C1513 1.398 . S
C1514 C1515 1.391 . S
C1515 H1503 0.950 . S
C1515 C1511 1.393 . S
C1515 C1514 1.391 . S
H1516 C1524 0.950 . S
H1517 C1529 0.950 . S
H1518 C1526 0.950 . S
H1519 C1528 0.950 . S
H1520 C1530 0.950 . S
H1521 C1532 0.950 . S
H1522 C1534 0.950 . S
H1523 C1535 0.950 . S
C1524 H1516 0.950 . S
C1524 C1525 1.386 . S
C1524 C1526 1.391 . S
C1525 C1524 1.386 . S
C1525 C1529 1.393 . S
C1526 H1518 0.950 . S
C1526 C1524 1.391 . S
C1526 C1527 1.400 . S
C1527 C1526 1.400 . S
C1527 C1528 1.398 . S
C1527 C1533 1.491 . S
C1528 H1519 0.950 . S
C1528 C1527 1.398 . S
C1528 C1529 1.391 . S
C1529 H1517 0.950 . S
C1529 C1525 1.393 . S
C1529 C1528 1.391 . S
C1530 H1520 0.950 . S
C1530 C1531 1.386 . S
C1530 C1532 1.391 . S
C1531 C1530 1.386 . S
C1531 C1535 1.393 . S
C1532 H1521 0.950 . S
C1532 C1530 1.391 . S
C1532 C1533 1.400 . S
C1533 C1527 1.491 . S
C1533 C1532 1.400 . S
C1533 C1534 1.398 . S
C1534 H1522 0.950 . S
C1534 C1533 1.398 . S
C1534 C1535 1.391 . S
C1535 H1523 0.950 . S
C1535 C1531 1.393 . S
C1535 C1534 1.391 . S
H1536 C1544 0.950 . S
H1537 C1549 0.950 . S
H1538 C1546 0.950 1_655 S
H1539 C1548 0.950 . S
H1540 C1550 0.950 . S
H1541 C1552 0.950 . S
H1542 C1554 0.950 . S
H1543 C1555 0.950 . S
C1544 H1536 0.950 . S
C1544 C1545 1.386 . S
C1544 C1546 1.391 . S
C1545 C1544 1.386 . S
C1545 C1549 1.393 . S
C1546 H1538 0.950 1_455 S
C1546 C1544 1.391 . S
C1546 C1547 1.400 . S
C1547 C1546 1.400 . S
C1547 C1548 1.398 . S
C1547 C1553 1.491 . S
C1548 H1539 0.950 . S
C1548 C1547 1.398 . S
C1548 C1549 1.391 . S
C1549 H1537 0.950 . S
C1549 C1545 1.393 . S
C1549 C1548 1.391 . S
C1550 H1540 0.950 . S
C1550 C1551 1.386 . S
C1550 C1552 1.391 . S
C1551 C1550 1.386 . S
C1551 C1555 1.393 1_455 S
C1552 H1541 0.950 . S
C1552 C1550 1.391 . S
C1552 C1553 1.400 . S
C1553 C1547 1.491 . S
C1553 C1552 1.400 . S
C1553 C1554 1.398 1_455 S
C1554 H1542 0.950 . S
C1554 C1553 1.398 1_655 S
C1554 C1555 1.391 . S
C1555 H1543 0.950 . S
C1555 C1551 1.393 1_655 S
C1555 C1554 1.391 . S
H1556 C1564 0.950 . S
H1557 C1569 0.950 . S
H1558 C1566 0.950 . S
H1559 C1568 0.950 . S
H1560 C1570 0.950 . S
H1561 C1572 0.950 . S
H1562 C1574 0.950 . S
H1563 C1575 0.950 . S
C1564 H1556 0.950 . S
C1564 C1565 1.386 . S
C1564 C1566 1.391 . S
C1565 C1564 1.386 . S
C1565 C1569 1.393 . S
C1566 H1558 0.950 . S
C1566 C1564 1.391 . S
C1566 C1567 1.400 . S
C1567 C1566 1.400 . S
C1567 C1568 1.398 . S
C1567 C1573 1.491 . S
C1568 H1559 0.950 . S
C1568 C1567 1.398 . S
C1568 C1569 1.391 . S
C1569 H1557 0.950 . S
C1569 C1565 1.393 . S
C1569 C1568 1.391 . S
C1570 H1560 0.950 . S
C1570 C1571 1.386 . S
C1570 C1572 1.391 . S
C1571 C1570 1.386 . S
C1571 C1575 1.393 . S
C1572 H1561 0.950 . S
C1572 C1570 1.391 . S
C1572 C1573 1.400 . S
C1573 C1567 1.491 . S
C1573 C1572 1.400 . S
C1573 C1574 1.398 . S
C1574 H1562 0.950 . S
C1574 C1573 1.398 . S
C1574 C1575 1.391 . S
C1575 H1563 0.950 . S
C1575 C1571 1.393 . S
C1575 C1574 1.391 . S
H1576 C1584 0.950 . S
H1577 C1589 0.950 . S
H1578 C1586 0.950 . S
H1579 C1588 0.950 . S
H1580 C1590 0.950 . S
H1581 C1592 0.950 . S
H1582 C1594 0.950 . S
H1583 C1595 0.951 . S
C1584 H1576 0.950 . S
C1584 C1585 1.386 . S
C1584 C1586 1.391 . S
C1585 C1584 1.386 . S
C1585 C1589 1.393 . S
C1586 H1578 0.950 . S
C1586 C1584 1.391 . S
C1586 C1587 1.400 . S
C1587 C1586 1.400 . S
C1587 C1588 1.398 . S
C1587 C1593 1.491 . S
C1588 H1579 0.950 . S
C1588 C1587 1.398 . S
C1588 C1589 1.391 . S
C1589 H1577 0.950 . S
C1589 C1585 1.393 . S
C1589 C1588 1.391 . S
C1590 H1580 0.950 . S
C1590 C1591 1.386 . S
C1590 C1592 1.391 . S
C1591 C1590 1.386 . S
C1591 C1595 1.393 . S
C1592 H1581 0.950 . S
C1592 C1590 1.391 . S
C1592 C1593 1.400 . S
C1593 C1587 1.491 . S
C1593 C1592 1.400 . S
C1593 C1594 1.398 . S
C1594 H1582 0.950 . S
C1594 C1593 1.398 . S
C1594 C1595 1.391 . S
C1595 H1583 0.951 . S
C1595 C1591 1.393 . S
C1595 C1594 1.391 . S
H1596 C1604 0.950 . S
H1597 C1609 0.950 . S
H1598 C1606 0.950 . S
H1599 C1608 0.950 . S
H1600 C1610 0.950 . S
H1601 C1612 0.950 . S
H1602 C1614 0.950 . S
H1603 C1615 0.950 . S
C1604 H1596 0.950 . S
C1604 C1605 1.386 . S
C1604 C1606 1.391 . S
C1605 C1604 1.386 . S
C1605 C1609 1.393 . S
C1606 H1598 0.950 . S
C1606 C1604 1.391 . S
C1606 C1607 1.400 . S
C1607 C1606 1.400 . S
C1607 C1608 1.398 . S
C1607 C1613 1.491 . S
C1608 H1599 0.950 . S
C1608 C1607 1.398 . S
C1608 C1609 1.391 . S
C1609 H1597 0.950 . S
C1609 C1605 1.393 . S
C1609 C1608 1.391 . S
C1610 H1600 0.950 . S
C1610 C1611 1.386 . S
C1610 C1612 1.391 . S
C1611 C1610 1.386 . S
C1611 C1615 1.393 . S
C1612 H1601 0.950 . S
C1612 C1610 1.391 . S
C1612 C1613 1.400 . S
C1613 C1607 1.491 . S
C1613 C1612 1.400 . S
C1613 C1614 1.398 . S
C1614 H1602 0.950 . S
C1614 C1613 1.398 . S
C1614 C1615 1.391 . S
C1615 H1603 0.950 . S
C1615 C1611 1.393 . S
C1615 C1614 1.391 . S
H1616 C1624 0.950 . S
H1617 C1629 0.950 . S
H1618 C1626 0.950 . S
H1619 C1628 0.950 . S
H1620 C1630 0.950 . S
H1621 C1632 0.950 . S
H1622 C1634 0.950 . S
H1623 C1635 0.950 . S
C1624 H1616 0.950 . S
C1624 C1625 1.386 . S
C1624 C1626 1.391 . S
C1625 C1624 1.386 . S
C1625 C1629 1.393 . S
C1626 H1618 0.950 . S
C1626 C1624 1.391 . S
C1626 C1627 1.400 . S
C1627 C1626 1.400 . S
C1627 C1628 1.398 . S
C1627 C1633 1.491 . S
C1628 H1619 0.950 . S
C1628 C1627 1.398 . S
C1628 C1629 1.391 . S
C1629 H1617 0.950 . S
C1629 C1625 1.393 . S
C1629 C1628 1.391 . S
C1630 H1620 0.950 . S
C1630 C1631 1.386 . S
C1630 C1632 1.391 . S
C1631 C1630 1.386 . S
C1631 C1635 1.393 . S
C1632 H1621 0.950 . S
C1632 C1630 1.391 . S
C1632 C1633 1.400 . S
C1633 C1627 1.491 . S
C1633 C1632 1.400 . S
C1633 C1634 1.398 . S
C1634 H1622 0.950 . S
C1634 C1633 1.398 . S
C1634 C1635 1.391 . S
C1635 H1623 0.950 . S
C1635 C1631 1.393 . S
C1635 C1634 1.391 . S
H1636 C1644 0.950 . S
H1637 C1649 0.950 . S
H1638 C1646 0.950 . S
H1639 C1648 0.950 . S
H1640 C1650 0.950 . S
H1641 C1652 0.950 . S
H1642 C1654 0.950 . S
H1643 C1655 0.950 . S
C1644 H1636 0.950 . S
C1644 C1645 1.386 . S
C1644 C1646 1.391 . S
C1645 C1644 1.386 . S
C1645 C1649 1.393 . S
C1646 H1638 0.950 . S
C1646 C1644 1.391 . S
C1646 C1647 1.400 . S
C1647 C1646 1.400 . S
C1647 C1648 1.398 . S
C1647 C1653 1.491 . S
C1648 H1639 0.950 . S
C1648 C1647 1.398 . S
C1648 C1649 1.391 . S
C1649 H1637 0.950 . S
C1649 C1645 1.393 . S
C1649 C1648 1.391 . S
C1650 H1640 0.950 . S
C1650 C1651 1.386 . S
C1650 C1652 1.391 . S
C1651 C1650 1.386 . S
C1651 C1655 1.393 . S
C1652 H1641 0.950 . S
C1652 C1650 1.391 . S
C1652 C1653 1.400 . S
C1653 C1647 1.491 . S
C1653 C1652 1.400 . S
C1653 C1654 1.398 . S
C1654 H1642 0.950 . S
C1654 C1653 1.398 . S
C1654 C1655 1.391 . S
C1655 H1643 0.950 . S
C1655 C1651 1.393 . S
C1655 C1654 1.391 . S
H1656 C1664 0.950 . S
H1657 C1669 0.950 . S
H1658 C1666 0.950 . S
H1659 C1668 0.950 1_565 S
H1660 C1670 0.950 . S
H1661 C1672 0.950 1_565 S
H1662 C1674 0.950 . S
H1663 C1675 0.950 . S
C1664 H1656 0.950 . S
C1664 C1665 1.386 . S
C1664 C1666 1.391 . S
C1665 C1664 1.386 . S
C1665 C1669 1.393 1_545 S
C1666 H1658 0.950 . S
C1666 C1664 1.391 . S
C1666 C1667 1.400 . S
C1667 C1666 1.400 . S
C1667 C1668 1.398 . S
C1667 C1673 1.491 . S
C1668 H1659 0.950 1_545 S
C1668 C1667 1.398 . S
C1668 C1669 1.391 1_545 S
C1669 H1657 0.950 . S
C1669 C1665 1.393 1_565 S
C1669 C1668 1.391 1_565 S
C1670 H1660 0.950 . S
C1670 C1671 1.386 . S
C1670 C1672 1.391 . S
C1671 C1670 1.386 . S
C1671 C1675 1.393 . S
C1672 H1661 0.950 1_545 S
C1672 C1670 1.391 . S
C1672 C1673 1.400 . S
C1673 C1667 1.491 . S
C1673 C1672 1.400 . S
C1673 C1674 1.398 . S
C1674 H1662 0.950 . S
C1674 C1673 1.398 . S
C1674 C1675 1.391 . S
C1675 H1663 0.950 . S
C1675 C1671 1.393 . S
C1675 C1674 1.391 . S
H1676 C1684 0.950 . S
H1677 C1689 0.950 . S
H1678 C1686 0.950 . S
H1679 C1688 0.950 . S
H1680 C1690 0.950 . S
H1681 C1692 0.950 . S
H1682 C1694 0.950 . S
H1683 C1695 0.950 . S
C1684 H1676 0.950 . S
C1684 C1685 1.386 . S
C1684 C1686 1.391 . S
C1685 C1684 1.386 . S
C1685 C1689 1.393 . S
C1686 H1678 0.950 . S
C1686 C1684 1.391 . S
C1686 C1687 1.400 . S
C1687 C1686 1.400 . S
C1687 C1688 1.398 . S
C1687 C1693 1.491 . S
C1688 H1679 0.950 . S
C1688 C1687 1.398 . S
C1688 C1689 1.391 . S
C1689 H1677 0.950 . S
C1689 C1685 1.393 . S
C1689 C1688 1.391 . S
C1690 H1680 0.950 . S
C1690 C1691 1.386 . S
C1690 C1692 1.391 . S
C1691 C1690 1.386 . S
C1691 C1695 1.393 . S
C1692 H1681 0.950 . S
C1692 C1690 1.391 . S
C1692 C1693 1.400 . S
C1693 C1687 1.491 . S
C1693 C1692 1.400 . S
C1693 C1694 1.398 . S
C1694 H1682 0.950 . S
C1694 C1693 1.398 . S
C1694 C1695 1.391 . S
C1695 H1683 0.950 . S
C1695 C1691 1.393 . S
C1695 C1694 1.391 . S
H1696 C1704 0.950 . S
H1697 C1709 0.950 . S
H1698 C1706 0.950 . S
H1699 C1708 0.950 . S
H1700 C1710 0.950 . S
H1701 C1712 0.950 . S
H1702 C1714 0.950 . S
H1703 C1715 0.950 . S
C1704 H1696 0.950 . S
C1704 C1705 1.386 . S
C1704 C1706 1.391 . S
C1705 C1704 1.386 . S
C1705 C1709 1.393 . S
C1706 H1698 0.950 . S
C1706 C1704 1.391 . S
C1706 C1707 1.400 . S
C1707 C1706 1.400 . S
C1707 C1708 1.398 . S
C1707 C1713 1.491 . S
C1708 H1699 0.950 . S
C1708 C1707 1.398 . S
C1708 C1709 1.391 . S
C1709 H1697 0.950 . S
C1709 C1705 1.393 . S
C1709 C1708 1.391 . S
C1710 H1700 0.950 . S
C1710 C1711 1.386 . S
C1710 C1712 1.391 . S
C1711 C1710 1.386 . S
C1711 C1715 1.393 . S
C1712 H1701 0.950 . S
C1712 C1710 1.391 . S
C1712 C1713 1.400 . S
C1713 C1707 1.491 . S
C1713 C1712 1.400 . S
C1713 C1714 1.398 . S
C1714 H1702 0.950 . S
C1714 C1713 1.398 . S
C1714 C1715 1.391 . S
C1715 H1703 0.950 . S
C1715 C1711 1.393 . S
C1715 C1714 1.391 . S
H1716 C1724 0.950 . S
H1717 C1729 0.950 . S
H1718 C1726 0.950 . S
H1719 C1728 0.950 . S
H1720 C1730 0.950 . S
H1721 C1732 0.950 . S
H1722 C1734 0.950 . S
H1723 C1735 0.950 . S
C1724 H1716 0.950 . S
C1724 C1725 1.386 . S
C1724 C1726 1.391 . S
C1725 C1724 1.386 . S
C1725 C1729 1.393 . S
C1726 H1718 0.950 . S
C1726 C1724 1.391 . S
C1726 C1727 1.400 . S
C1727 C1726 1.400 . S
C1727 C1728 1.398 . S
C1727 C1733 1.491 . S
C1728 H1719 0.950 . S
C1728 C1727 1.398 . S
C1728 C1729 1.391 . S
C1729 H1717 0.950 . S
C1729 C1725 1.393 . S
C1729 C1728 1.391 . S
C1730 H1720 0.950 . S
C1730 C1731 1.386 . S
C1730 C1732 1.391 . S
C1731 C1730 1.386 . S
C1731 C1735 1.393 . S
C1732 H1721 0.950 . S
C1732 C1730 1.391 . S
C1732 C1733 1.400 . S
C1733 C1727 1.491 . S
C1733 C1732 1.400 . S
C1733 C1734 1.398 . S
C1734 H1722 0.950 . S
C1734 C1733 1.398 . S
C1734 C1735 1.391 . S
C1735 H1723 0.950 . S
C1735 C1731 1.393 . S
C1735 C1734 1.391 . S
H1736 C1744 0.950 . S
H1737 C1749 0.950 . S
H1738 C1746 0.950 . S
H1739 C1748 0.950 . S
H1740 C1750 0.950 . S
H1741 C1752 0.950 . S
H1742 C1754 0.950 . S
H1743 C1755 0.950 1_545 S
C1744 H1736 0.950 . S
C1744 C1745 1.385 . S
C1744 C1746 1.391 . S
C1745 C1744 1.385 . S
C1745 C1749 1.391 1_545 S
C1746 H1738 0.950 . S
C1746 C1744 1.391 . S
C1746 C1747 1.400 1_545 S
C1747 C1746 1.400 1_565 S
C1747 C1748 1.398 . S
C1747 C1753 1.491 . S
C1748 H1739 0.950 . S
C1748 C1747 1.398 . S
C1748 C1749 1.391 . S
C1749 H1737 0.950 . S
C1749 C1745 1.391 1_565 S
C1749 C1748 1.391 . S
C1750 H1740 0.950 . S
C1750 C1751 1.386 . S
C1750 C1752 1.391 . S
C1751 C1750 1.386 . S
C1751 C1755 1.393 . S
C1752 H1741 0.950 . S
C1752 C1750 1.391 . S
C1752 C1753 1.400 . S
C1753 C1747 1.491 . S
C1753 C1752 1.400 . S
C1753 C1754 1.398 1_565 S
C1754 H1742 0.950 . S
C1754 C1753 1.398 1_545 S
C1754 C1755 1.391 1_545 S
C1755 H1743 0.950 1_565 S
C1755 C1751 1.393 . S
C1755 C1754 1.391 1_565 S
H1756 C1764 0.950 . S
H1757 C1769 0.950 . S
H1758 C1766 0.950 . S
H1759 C1768 0.950 . S
H1760 C1770 0.950 . S
H1761 C1772 0.950 . S
H1762 C1774 0.950 . S
H1763 C1775 0.950 . S
C1764 H1756 0.950 . S
C1764 C1765 1.386 . S
C1764 C1766 1.391 . S
C1765 C1764 1.386 . S
C1765 C1769 1.393 . S
C1766 H1758 0.950 . S
C1766 C1764 1.391 . S
C1766 C1767 1.400 . S
C1767 C1766 1.400 . S
C1767 C1768 1.398 . S
C1767 C1773 1.491 . S
C1768 H1759 0.950 . S
C1768 C1767 1.398 . S
C1768 C1769 1.391 . S
C1769 H1757 0.950 . S
C1769 C1765 1.393 . S
C1769 C1768 1.391 . S
C1770 H1760 0.950 . S
C1770 C1771 1.386 . S
C1770 C1772 1.391 . S
C1771 C1770 1.386 . S
C1771 C1775 1.393 . S
C1772 H1761 0.950 . S
C1772 C1770 1.391 . S
C1772 C1773 1.400 . S
C1773 C1767 1.491 . S
C1773 C1772 1.400 . S
C1773 C1774 1.398 . S
C1774 H1762 0.950 . S
C1774 C1773 1.398 . S
C1774 C1775 1.391 . S
C1775 H1763 0.950 . S
C1775 C1771 1.393 . S
C1775 C1774 1.391 . S
H1776 C1784 0.950 . S
H1777 C1789 0.950 . S
H1778 C1786 0.950 . S
H1779 C1788 0.950 . S
H1780 C1790 0.950 . S
H1781 C1792 0.950 . S
H1782 C1794 0.950 . S
H1783 C1795 0.950 1_556 S
C1784 H1776 0.950 . S
C1784 C1785 1.386 . S
C1784 C1786 1.391 . S
C1785 C1784 1.386 . S
C1785 C1789 1.393 . S
C1786 H1778 0.950 . S
C1786 C1784 1.391 . S
C1786 C1787 1.400 . S
C1787 C1786 1.400 . S
C1787 C1788 1.398 . S
C1787 C1793 1.491 . S
C1788 H1779 0.950 . S
C1788 C1787 1.398 . S
C1788 C1789 1.391 . S
C1789 H1777 0.950 . S
C1789 C1785 1.393 . S
C1789 C1788 1.391 . S
C1790 H1780 0.950 . S
C1790 C1791 1.386 . S
C1790 C1792 1.391 . S
C1791 C1790 1.386 . S
C1791 C1795 1.393 . S
C1792 H1781 0.950 . S
C1792 C1790 1.391 . S
C1792 C1793 1.400 . S
C1793 C1787 1.491 . S
C1793 C1792 1.400 . S
C1793 C1794 1.398 . S
C1794 H1782 0.950 . S
C1794 C1793 1.398 . S
C1794 C1795 1.391 . S
C1795 H1783 0.950 1_554 S
C1795 C1791 1.393 . S
C1795 C1794 1.391 . S
H1796 C1804 0.950 . S
H1797 C1809 0.950 . S
H1798 C1806 0.950 . S
H1799 C1808 0.950 . S
H1800 C1810 0.950 . S
H1801 C1812 0.950 . S
H1802 C1814 0.950 . S
H1803 C1815 0.950 . S
C1804 H1796 0.950 . S
C1804 C1805 1.386 . S
C1804 C1806 1.391 . S
C1805 C1804 1.386 . S
C1805 C1809 1.393 . S
C1806 H1798 0.950 . S
C1806 C1804 1.391 . S
C1806 C1807 1.400 . S
C1807 C1806 1.400 . S
C1807 C1808 1.398 . S
C1807 C1813 1.491 . S
C1808 H1799 0.950 . S
C1808 C1807 1.398 . S
C1808 C1809 1.391 . S
C1809 H1797 0.950 . S
C1809 C1805 1.393 . S
C1809 C1808 1.391 . S
C1810 H1800 0.950 . S
C1810 C1811 1.386 . S
C1810 C1812 1.391 . S
C1811 C1810 1.386 . S
C1811 C1815 1.393 . S
C1812 H1801 0.950 . S
C1812 C1810 1.391 . S
C1812 C1813 1.400 . S
C1813 C1807 1.491 . S
C1813 C1812 1.400 . S
C1813 C1814 1.398 . S
C1814 H1802 0.950 . S
C1814 C1813 1.398 . S
C1814 C1815 1.391 . S
C1815 H1803 0.950 . S
C1815 C1811 1.393 . S
C1815 C1814 1.391 . S
H1816 C1824 0.950 . S
H1817 C1829 0.950 . S
H1818 C1826 0.950 . S
H1819 C1828 0.950 . S
H1820 C1830 0.950 . S
H1821 C1832 0.950 . S
H1822 C1834 0.950 . S
H1823 C1835 0.950 . S
C1824 H1816 0.950 . S
C1824 C1825 1.386 . S
C1824 C1826 1.391 . S
C1825 C1824 1.386 . S
C1825 C1829 1.393 . S
C1826 H1818 0.950 . S
C1826 C1824 1.391 . S
C1826 C1827 1.400 . S
C1827 C1826 1.400 . S
C1827 C1828 1.398 . S
C1827 C1833 1.491 . S
C1828 H1819 0.950 . S
C1828 C1827 1.398 . S
C1828 C1829 1.391 . S
C1829 H1817 0.950 . S
C1829 C1825 1.393 . S
C1829 C1828 1.391 . S
C1830 H1820 0.950 . S
C1830 C1831 1.386 . S
C1830 C1832 1.391 . S
C1831 C1830 1.386 . S
C1831 C1835 1.393 . S
C1832 H1821 0.950 . S
C1832 C1830 1.391 . S
C1832 C1833 1.400 . S
C1833 C1827 1.491 . S
C1833 C1832 1.400 . S
C1833 C1834 1.398 . S
C1834 H1822 0.950 . S
C1834 C1833 1.398 . S
C1834 C1835 1.391 . S
C1835 H1823 0.950 . S
C1835 C1831 1.393 . S
C1835 C1834 1.391 . S
H1836 C1844 0.950 . S
H1837 C1849 0.950 . S
H1838 C1846 0.950 . S
H1839 C1848 0.950 . S
H1840 C1850 0.950 . S
H1841 C1852 0.950 . S
H1842 C1854 0.950 . S
H1843 C1855 0.950 . S
C1844 H1836 0.950 . S
C1844 C1845 1.386 . S
C1844 C1846 1.391 . S
C1845 C1844 1.386 . S
C1845 C1849 1.393 . S
C1846 H1838 0.950 . S
C1846 C1844 1.391 . S
C1846 C1847 1.400 . S
C1847 C1846 1.400 . S
C1847 C1848 1.398 . S
C1847 C1853 1.491 . S
C1848 H1839 0.950 . S
C1848 C1847 1.398 . S
C1848 C1849 1.391 . S
C1849 H1837 0.950 . S
C1849 C1845 1.393 . S
C1849 C1848 1.391 . S
C1850 H1840 0.950 . S
C1850 C1851 1.386 . S
C1850 C1852 1.391 . S
C1851 C1850 1.386 . S
C1851 C1855 1.393 . S
C1852 H1841 0.950 . S
C1852 C1850 1.391 . S
C1852 C1853 1.400 . S
C1853 C1847 1.491 . S
C1853 C1852 1.400 . S
C1853 C1854 1.398 . S
C1854 H1842 0.950 . S
C1854 C1853 1.398 . S
C1854 C1855 1.391 . S
C1855 H1843 0.950 . S
C1855 C1851 1.393 . S
C1855 C1854 1.391 . S
H1856 C1864 0.950 . S
H1857 C1869 0.950 . S
H1858 C1866 0.950 . S
H1859 C1868 0.950 . S
H1860 C1870 0.950 . S
H1861 C1872 0.950 . S
H1862 C1874 0.950 . S
H1863 C1875 0.950 . S
C1864 H1856 0.950 . S
C1864 C1865 1.388 1_565 S
C1864 C1866 1.389 . S
C1865 C1864 1.388 1_545 S
C1865 C1869 1.393 . S
C1866 H1858 0.950 . S
C1866 C1864 1.389 . S
C1866 C1867 1.400 . S
C1867 C1866 1.400 . S
C1867 C1868 1.398 1_565 S
C1867 C1873 1.491 . S
C1868 H1859 0.950 . S
C1868 C1867 1.398 1_545 S
C1868 C1869 1.391 . S
C1869 H1857 0.950 . S
C1869 C1865 1.393 . S
C1869 C1868 1.391 . S
C1870 H1860 0.950 . S
C1870 C1871 1.386 . S
C1870 C1872 1.391 . S
C1871 C1870 1.386 . S
C1871 C1875 1.393 . S
C1872 H1861 0.950 . S
C1872 C1870 1.391 . S
C1872 C1873 1.400 . S
C1873 C1867 1.491 . S
C1873 C1872 1.400 . S
C1873 C1874 1.398 . S
C1874 H1862 0.950 . S
C1874 C1873 1.398 . S
C1874 C1875 1.391 . S
C1875 H1863 0.950 . S
C1875 C1871 1.393 . S
C1875 C1874 1.391 . S
H1876 C1884 0.950 . S
H1877 C1889 0.950 . S
H1878 C1886 0.950 . S
H1879 C1888 0.950 . S
H1880 C1890 0.950 . S
H1881 C1892 0.950 . S
H1882 C1894 0.950 . S
H1883 C1895 0.950 . S
C1884 H1876 0.950 . S
C1884 C1885 1.386 . S
C1884 C1886 1.391 . S
C1885 C1884 1.386 . S
C1885 C1889 1.393 . S
C1886 H1878 0.950 . S
C1886 C1884 1.391 . S
C1886 C1887 1.400 . S
C1887 C1886 1.400 . S
C1887 C1888 1.398 . S
C1887 C1893 1.491 . S
C1888 H1879 0.950 . S
C1888 C1887 1.398 . S
C1888 C1889 1.391 . S
C1889 H1877 0.950 . S
C1889 C1885 1.393 . S
C1889 C1888 1.391 . S
C1890 H1880 0.950 . S
C1890 C1891 1.386 . S
C1890 C1892 1.391 . S
C1891 C1890 1.386 . S
C1891 C1895 1.393 . S
C1892 H1881 0.950 . S
C1892 C1890 1.391 . S
C1892 C1893 1.400 . S
C1893 C1887 1.491 . S
C1893 C1892 1.400 . S
C1893 C1894 1.398 . S
C1894 H1882 0.950 . S
C1894 C1893 1.398 . S
C1894 C1895 1.391 . S
C1895 H1883 0.950 . S
C1895 C1891 1.393 . S
C1895 C1894 1.391 . S
H1896 C1904 0.950 . S
H1897 C1909 0.950 . S
H1898 C1906 0.950 . S
H1899 C1908 0.950 . S
H1900 C1910 0.950 . S
H1901 C1912 0.950 . S
H1902 C1914 0.950 . S
H1903 C1915 0.950 . S
C1904 H1896 0.950 . S
C1904 C1905 1.386 . S
C1904 C1906 1.391 . S
C1905 C1904 1.386 . S
C1905 C1909 1.393 . S
C1906 H1898 0.950 . S
C1906 C1904 1.391 . S
C1906 C1907 1.400 . S
C1907 C1906 1.400 . S
C1907 C1908 1.398 . S
C1907 C1913 1.491 . S
C1908 H1899 0.950 . S
C1908 C1907 1.398 . S
C1908 C1909 1.391 . S
C1909 H1897 0.950 . S
C1909 C1905 1.393 . S
C1909 C1908 1.391 . S
C1910 H1900 0.950 . S
C1910 C1911 1.386 . S
C1910 C1912 1.391 . S
C1911 C1910 1.386 . S
C1911 C1915 1.393 . S
C1912 H1901 0.950 . S
C1912 C1910 1.391 . S
C1912 C1913 1.400 . S
C1913 C1907 1.491 . S
C1913 C1912 1.400 . S
C1913 C1914 1.398 . S
C1914 H1902 0.950 . S
C1914 C1913 1.398 . S
C1914 C1915 1.391 . S
C1915 H1903 0.950 . S
C1915 C1911 1.393 . S
C1915 C1914 1.391 . S
H1916 C1924 0.950 . S
H1917 C1929 0.950 . S
H1918 C1926 0.950 . S
H1919 C1928 0.950 . S
H1920 C1930 0.950 . S
H1921 C1932 0.950 . S
H1922 C1934 0.950 . S
H1923 C1935 0.950 . S
C1924 H1916 0.950 . S
C1924 C1925 1.386 . S
C1924 C1926 1.391 . S
C1925 C1924 1.386 . S
C1925 C1929 1.393 . S
C1926 H1918 0.950 . S
C1926 C1924 1.391 . S
C1926 C1927 1.400 . S
C1927 C1926 1.400 . S
C1927 C1928 1.398 . S
C1927 C1933 1.491 . S
C1928 H1919 0.950 . S
C1928 C1927 1.398 . S
C1928 C1929 1.391 . S
C1929 H1917 0.950 . S
C1929 C1925 1.393 . S
C1929 C1928 1.391 . S
C1930 H1920 0.950 . S
C1930 C1931 1.386 . S
C1930 C1932 1.391 . S
C1931 C1930 1.386 . S
C1931 C1935 1.393 . S
C1932 H1921 0.950 . S
C1932 C1930 1.391 . S
C1932 C1933 1.400 . S
C1933 C1927 1.491 . S
C1933 C1932 1.400 . S
C1933 C1934 1.398 . S
C1934 H1922 0.950 . S
C1934 C1933 1.398 . S
C1934 C1935 1.391 . S
C1935 H1923 0.950 . S
C1935 C1931 1.393 . S
C1935 C1934 1.391 . S
H1936 C1944 0.950 . S
H1937 C1949 0.950 . S
H1938 C1946 0.950 . S
H1939 C1948 0.950 . S
H1940 C1950 0.950 . S
H1941 C1952 0.950 . S
H1942 C1954 0.950 . S
H1943 C1955 0.950 . S
C1944 H1936 0.950 . S
C1944 C1945 1.386 . S
C1944 C1946 1.391 . S
C1945 C1944 1.386 . S
C1945 C1949 1.393 . S
C1946 H1938 0.950 . S
C1946 C1944 1.391 . S
C1946 C1947 1.400 . S
C1947 C1946 1.400 . S
C1947 C1948 1.398 . S
C1947 C1953 1.491 . S
C1948 H1939 0.950 . S
C1948 C1947 1.398 . S
C1948 C1949 1.391 . S
C1949 H1937 0.950 . S
C1949 C1945 1.393 . S
C1949 C1948 1.391 . S
C1950 H1940 0.950 . S
C1950 C1951 1.386 . S
C1950 C1952 1.391 . S
C1951 C1950 1.386 . S
C1951 C1955 1.393 . S
C1952 H1941 0.950 . S
C1952 C1950 1.391 . S
C1952 C1953 1.400 . S
C1953 C1947 1.491 . S
C1953 C1952 1.400 . S
C1953 C1954 1.398 . S
C1954 H1942 0.950 . S
C1954 C1953 1.398 . S
C1954 C1955 1.391 . S
C1955 H1943 0.950 . S
C1955 C1951 1.393 . S
C1955 C1954 1.391 . S
H1956 C1964 0.950 . S
H1957 C1969 0.950 . S
H1958 C1966 0.950 . S
H1959 C1968 0.950 . S
H1960 C1970 0.950 . S
H1961 C1972 0.950 . S
H1962 C1974 0.950 . S
H1963 C1975 0.950 . S
C1964 H1956 0.950 . S
C1964 C1965 1.386 . S
C1964 C1966 1.391 . S
C1965 C1964 1.386 . S
C1965 C1969 1.393 . S
C1966 H1958 0.950 . S
C1966 C1964 1.391 . S
C1966 C1967 1.400 . S
C1967 C1966 1.400 . S
C1967 C1968 1.398 . S
C1967 C1973 1.491 . S
C1968 H1959 0.950 . S
C1968 C1967 1.398 . S
C1968 C1969 1.391 . S
C1969 H1957 0.950 . S
C1969 C1965 1.393 . S
C1969 C1968 1.391 . S
C1970 H1960 0.950 . S
C1970 C1971 1.386 . S
C1970 C1972 1.391 . S
C1971 C1970 1.386 . S
C1971 C1975 1.393 . S
C1972 H1961 0.950 . S
C1972 C1970 1.391 . S
C1972 C1973 1.400 . S
C1973 C1967 1.491 . S
C1973 C1972 1.400 . S
C1973 C1974 1.398 . S
C1974 H1962 0.950 . S
C1974 C1973 1.398 . S
C1974 C1975 1.391 . S
C1975 H1963 0.950 . S
C1975 C1971 1.393 . S
C1975 C1974 1.391 . S
H1976 C1984 0.950 . S
H1977 C1989 0.950 . S
H1978 C1986 0.950 . S
H1979 C1988 0.950 . S
H1980 C1990 0.950 . S
H1981 C1992 0.950 . S
H1982 C1994 0.950 . S
H1983 C1995 0.950 1_556 S
C1984 H1976 0.950 . S
C1984 C1985 1.386 . S
C1984 C1986 1.391 . S
C1985 C1984 1.386 . S
C1985 C1989 1.393 1_556 S
C1986 H1978 0.950 . S
C1986 C1984 1.391 . S
C1986 C1987 1.400 1_556 S
C1987 C1986 1.400 1_554 S
C1987 C1988 1.398 . S
C1987 C1993 1.491 . S
C1988 H1979 0.950 . S
C1988 C1987 1.398 . S
C1988 C1989 1.391 . S
C1989 H1977 0.950 . S
C1989 C1985 1.393 1_554 S
C1989 C1988 1.391 . S
C1990 H1980 0.950 . S
C1990 C1991 1.386 . S
C1990 C1992 1.391 . S
C1991 C1990 1.386 . S
C1991 C1995 1.393 . S
C1992 H1981 0.950 . S
C1992 C1990 1.391 . S
C1992 C1993 1.400 . S
C1993 C1987 1.491 . S
C1993 C1992 1.400 . S
C1993 C1994 1.398 1_554 S
C1994 H1982 0.950 . S
C1994 C1993 1.398 1_556 S
C1994 C1995 1.391 1_556 S
C1995 H1983 0.950 1_554 S
C1995 C1991 1.393 . S
C1995 C1994 1.391 1_554 S
H1996 C2004 0.950 . S
H1997 C2009 0.950 1_455 S
H1998 C2006 0.950 . S
H1999 C2008 0.950 . S
H2000 C2010 0.950 . S
H2001 C2012 0.950 . S
H2002 C2014 0.950 . S
H2003 C2015 0.950 . S
C2004 H1996 0.950 . S
C2004 C2005 1.386 . S
C2004 C2006 1.391 . S
C2005 C2004 1.386 . S
C2005 C2009 1.393 . S
C2006 H1998 0.950 . S
C2006 C2004 1.391 . S
C2006 C2007 1.400 . S
C2007 C2006 1.400 . S
C2007 C2008 1.398 . S
C2007 C2013 1.491 . S
C2008 H1999 0.950 . S
C2008 C2007 1.398 . S
C2008 C2009 1.391 . S
C2009 H1997 0.950 1_655 S
C2009 C2005 1.393 . S
C2009 C2008 1.391 . S
C2010 H2000 0.950 . S
C2010 C2011 1.386 . S
C2010 C2012 1.391 . S
C2011 C2010 1.386 . S
C2011 C2015 1.393 . S
C2012 H2001 0.950 . S
C2012 C2010 1.391 . S
C2012 C2013 1.400 . S
C2013 C2007 1.491 . S
C2013 C2012 1.400 . S
C2013 C2014 1.398 . S
C2014 H2002 0.950 . S
C2014 C2013 1.398 . S
C2014 C2015 1.391 . S
C2015 H2003 0.950 . S
C2015 C2011 1.393 . S
C2015 C2014 1.391 . S
H2016 C2024 0.950 . S
H2017 C2029 0.950 . S
H2018 C2026 0.950 . S
H2019 C2028 0.950 . S
H2020 C2030 0.950 . S
H2021 C2032 0.950 . S
H2022 C2034 0.950 . S
H2023 C2035 0.950 . S
C2024 H2016 0.950 . S
C2024 C2025 1.386 . S
C2024 C2026 1.391 . S
C2025 C2024 1.386 . S
C2025 C2029 1.393 . S
C2026 H2018 0.950 . S
C2026 C2024 1.391 . S
C2026 C2027 1.400 . S
C2027 C2026 1.400 . S
C2027 C2028 1.398 . S
C2027 C2033 1.491 . S
C2028 H2019 0.950 . S
C2028 C2027 1.398 . S
C2028 C2029 1.391 . S
C2029 H2017 0.950 . S
C2029 C2025 1.393 . S
C2029 C2028 1.391 . S
C2030 H2020 0.950 . S
C2030 C2031 1.386 . S
C2030 C2032 1.391 . S
C2031 C2030 1.386 . S
C2031 C2035 1.393 . S
C2032 H2021 0.950 . S
C2032 C2030 1.391 . S
C2032 C2033 1.400 . S
C2033 C2027 1.491 . S
C2033 C2032 1.400 . S
C2033 C2034 1.398 . S
C2034 H2022 0.950 . S
C2034 C2033 1.398 . S
C2034 C2035 1.391 . S
C2035 H2023 0.950 . S
C2035 C2031 1.393 . S
C2035 C2034 1.391 . S
H2036 C2044 0.950 . S
H2037 C2049 0.950 . S
H2038 C2046 0.950 . S
H2039 C2048 0.950 . S
H2040 C2050 0.950 . S
H2041 C2052 0.950 . S
H2042 C2054 0.950 . S
H2043 C2055 0.950 . S
C2044 H2036 0.950 . S
C2044 C2045 1.386 . S
C2044 C2046 1.391 . S
C2045 C2044 1.386 . S
C2045 C2049 1.393 . S
C2046 H2038 0.950 . S
C2046 C2044 1.391 . S
C2046 C2047 1.400 . S
C2047 C2046 1.400 . S
C2047 C2048 1.398 . S
C2047 C2053 1.491 . S
C2048 H2039 0.950 . S
C2048 C2047 1.398 . S
C2048 C2049 1.391 . S
C2049 H2037 0.950 . S
C2049 C2045 1.393 . S
C2049 C2048 1.391 . S
C2050 H2040 0.950 . S
C2050 C2051 1.386 . S
C2050 C2052 1.391 . S
C2051 C2050 1.386 . S
C2051 C2055 1.393 . S
C2052 H2041 0.950 . S
C2052 C2050 1.391 . S
C2052 C2053 1.400 . S
C2053 C2047 1.491 . S
C2053 C2052 1.400 . S
C2053 C2054 1.398 . S
C2054 H2042 0.950 . S
C2054 C2053 1.398 . S
C2054 C2055 1.391 . S
C2055 H2043 0.950 . S
C2055 C2051 1.393 . S
C2055 C2054 1.391 . S
H2056 C2064 0.950 1_655 S
H2057 C2069 0.950 . S
H2058 C2066 0.950 1_655 S
H2059 C2068 0.950 . S
H2060 C2070 0.950 . S
H2061 C2072 0.950 . S
H2062 C2074 0.950 1_655 S
H2063 C2075 0.950 1_655 S
C2064 H2056 0.950 1_455 S
C2064 C2065 1.386 . S
C2064 C2066 1.391 . S
C2065 C2064 1.386 . S
C2065 C2069 1.393 . S
C2066 H2058 0.950 1_455 S
C2066 C2064 1.391 . S
C2066 C2067 1.400 . S
C2067 C2066 1.400 . S
C2067 C2068 1.398 . S
C2067 C2073 1.491 . S
C2068 H2059 0.950 . S
C2068 C2067 1.398 . S
C2068 C2069 1.391 . S
C2069 H2057 0.950 . S
C2069 C2065 1.393 . S
C2069 C2068 1.391 . S
C2070 H2060 0.950 . S
C2070 C2071 1.386 . S
C2070 C2072 1.391 . S
C2071 C2070 1.386 . S
C2071 C2075 1.393 . S
C2072 H2061 0.950 . S
C2072 C2070 1.391 . S
C2072 C2073 1.400 . S
C2073 C2067 1.491 . S
C2073 C2072 1.400 . S
C2073 C2074 1.398 . S
C2074 H2062 0.950 1_455 S
C2074 C2073 1.398 . S
C2074 C2075 1.391 . S
C2075 H2063 0.950 1_455 S
C2075 C2071 1.393 . S
C2075 C2074 1.391 . S
H2076 C2084 0.950 . S
H2077 C2089 0.950 . S
H2078 C2086 0.950 . S
H2079 C2088 0.950 . S
H2080 C2090 0.950 . S
H2081 C2092 0.950 . S
H2082 C2094 0.950 . S
H2083 C2095 0.950 . S
C2084 H2076 0.950 . S
C2084 C2085 1.386 . S
C2084 C2086 1.391 . S
C2085 C2084 1.386 . S
C2085 C2089 1.393 . S
C2086 H2078 0.950 . S
C2086 C2084 1.391 . S
C2086 C2087 1.400 . S
C2087 C2086 1.400 . S
C2087 C2088 1.398 . S
C2087 C2093 1.491 . S
C2088 H2079 0.950 . S
C2088 C2087 1.398 . S
C2088 C2089 1.391 . S
C2089 H2077 0.950 . S
C2089 C2085 1.393 . S
C2089 C2088 1.391 . S
C2090 H2080 0.950 . S
C2090 C2091 1.386 . S
C2090 C2092 1.391 . S
C2091 C2090 1.386 . S
C2091 C2095 1.393 . S
C2092 H2081 0.950 . S
C2092 C2090 1.391 . S
C2092 C2093 1.400 . S
C2093 C2087 1.491 . S
C2093 C2092 1.400 . S
C2093 C2094 1.398 . S
C2094 H2082 0.950 . S
C2094 C2093 1.398 . S
C2094 C2095 1.391 . S
C2095 H2083 0.950 . S
C2095 C2091 1.393 . S
C2095 C2094 1.391 . S
H2096 C2104 0.950 . S
H2097 C2109 0.950 . S
H2098 C2106 0.950 . S
H2099 C2108 0.950 . S
H2100 C2110 0.950 . S
H2101 C2112 0.950 . S
H2102 C2114 0.950 . S
H2103 C2115 0.950 . S
C2104 H2096 0.950 . S
C2104 C2105 1.386 . S
C2104 C2106 1.391 . S
C2105 C2104 1.386 . S
C2105 C2109 1.393 . S
C2106 H2098 0.950 . S
C2106 C2104 1.391 . S
C2106 C2107 1.400 . S
C2107 C2106 1.400 . S
C2107 C2108 1.398 . S
C2107 C2113 1.491 . S
C2108 H2099 0.950 . S
C2108 C2107 1.398 . S
C2108 C2109 1.391 . S
C2109 H2097 0.950 . S
C2109 C2105 1.393 . S
C2109 C2108 1.391 . S
C2110 H2100 0.950 . S
C2110 C2111 1.386 . S
C2110 C2112 1.391 . S
C2111 C2110 1.386 . S
C2111 C2115 1.393 . S
C2112 H2101 0.950 . S
C2112 C2110 1.391 . S
C2112 C2113 1.400 . S
C2113 C2107 1.491 . S
C2113 C2112 1.400 . S
C2113 C2114 1.398 . S
C2114 H2102 0.950 . S
C2114 C2113 1.398 . S
C2114 C2115 1.391 . S
C2115 H2103 0.950 . S
C2115 C2111 1.393 . S
C2115 C2114 1.391 . S
H2116 C2124 0.950 . S
H2117 C2129 0.950 . S
H2118 C2126 0.950 . S
H2119 C2128 0.950 . S
H2120 C2130 0.950 . S
H2121 C2132 0.950 . S
H2122 C2134 0.950 . S
H2123 C2135 0.950 . S
C2124 H2116 0.950 . S
C2124 C2125 1.386 . S
C2124 C2126 1.391 . S
C2125 C2124 1.386 . S
C2125 C2129 1.393 1_554 S
C2126 H2118 0.950 . S
C2126 C2124 1.391 . S
C2126 C2127 1.400 1_554 S
C2127 C2126 1.400 1_556 S
C2127 C2128 1.398 . S
C2127 C2133 1.491 . S
C2128 H2119 0.950 . S
C2128 C2127 1.398 . S
C2128 C2129 1.391 . S
C2129 H2117 0.950 . S
C2129 C2125 1.393 1_556 S
C2129 C2128 1.391 . S
C2130 H2120 0.950 . S
C2130 C2131 1.386 . S
C2130 C2132 1.391 . S
C2131 C2130 1.386 . S
C2131 C2135 1.393 . S
C2132 H2121 0.950 . S
C2132 C2130 1.391 . S
C2132 C2133 1.400 . S
C2133 C2127 1.491 . S
C2133 C2132 1.400 . S
C2133 C2134 1.398 . S
C2134 H2122 0.950 . S
C2134 C2133 1.398 . S
C2134 C2135 1.391 . S
C2135 H2123 0.950 . S
C2135 C2131 1.393 . S
C2135 C2134 1.391 . S
H2136 C2144 0.950 . S
H2137 C2149 0.950 . S
H2138 C2146 0.950 . S
H2139 C2148 0.950 . S
H2140 C2150 0.950 . S
H2141 C2152 0.950 . S
H2142 C2154 0.950 . S
H2143 C2155 0.950 . S
C2144 H2136 0.950 . S
C2144 C2145 1.386 . S
C2144 C2146 1.391 . S
C2145 C2144 1.386 . S
C2145 C2149 1.393 . S
C2146 H2138 0.950 . S
C2146 C2144 1.391 . S
C2146 C2147 1.400 . S
C2147 C2146 1.400 . S
C2147 C2148 1.398 . S
C2147 C2153 1.491 . S
C2148 H2139 0.950 . S
C2148 C2147 1.398 . S
C2148 C2149 1.391 . S
C2149 H2137 0.950 . S
C2149 C2145 1.393 . S
C2149 C2148 1.391 . S
C2150 H2140 0.950 . S
C2150 C2151 1.386 . S
C2150 C2152 1.391 . S
C2151 C2150 1.386 . S
C2151 C2155 1.393 . S
C2152 H2141 0.950 . S
C2152 C2150 1.391 . S
C2152 C2153 1.400 . S
C2153 C2147 1.491 . S
C2153 C2152 1.400 . S
C2153 C2154 1.398 . S
C2154 H2142 0.950 . S
C2154 C2153 1.398 . S
C2154 C2155 1.391 . S
C2155 H2143 0.950 . S
C2155 C2151 1.393 . S
C2155 C2154 1.391 . S
H2156 C2164 0.950 . S
H2157 C2169 0.950 . S
H2158 C2166 0.950 . S
H2159 C2168 0.950 . S
H2160 C2170 0.950 . S
H2161 C2172 0.950 . S
H2162 C2174 0.950 . S
H2163 C2175 0.950 . S
C2164 H2156 0.950 . S
C2164 C2165 1.386 . S
C2164 C2166 1.391 . S
C2165 C2164 1.386 . S
C2165 C2169 1.393 . S
C2166 H2158 0.950 . S
C2166 C2164 1.391 . S
C2166 C2167 1.400 . S
C2167 C2166 1.400 . S
C2167 C2168 1.398 . S
C2167 C2173 1.491 . S
C2168 H2159 0.950 . S
C2168 C2167 1.398 . S
C2168 C2169 1.391 . S
C2169 H2157 0.950 . S
C2169 C2165 1.393 . S
C2169 C2168 1.391 . S
C2170 H2160 0.950 . S
C2170 C2171 1.386 . S
C2170 C2172 1.391 . S
C2171 C2170 1.386 . S
C2171 C2175 1.393 . S
C2172 H2161 0.950 . S
C2172 C2170 1.391 . S
C2172 C2173 1.400 . S
C2173 C2167 1.491 . S
C2173 C2172 1.400 . S
C2173 C2174 1.398 . S
C2174 H2162 0.950 . S
C2174 C2173 1.398 . S
C2174 C2175 1.391 . S
C2175 H2163 0.950 . S
C2175 C2171 1.393 . S
C2175 C2174 1.391 . S
H2176 C2184 0.950 . S
H2177 C2189 0.950 . S
H2178 C2186 0.950 . S
H2179 C2188 0.950 . S
H2180 C2190 0.950 . S
H2181 C2192 0.950 . S
H2182 C2194 0.950 . S
H2183 C2195 0.950 . S
C2184 H2176 0.950 . S
C2184 C2185 1.386 . S
C2184 C2186 1.391 . S
C2185 C2184 1.386 . S
C2185 C2189 1.393 . S
C2186 H2178 0.950 . S
C2186 C2184 1.391 . S
C2186 C2187 1.400 . S
C2187 C2186 1.400 . S
C2187 C2188 1.398 . S
C2187 C2193 1.491 . S
C2188 H2179 0.950 . S
C2188 C2187 1.398 . S
C2188 C2189 1.391 . S
C2189 H2177 0.950 . S
C2189 C2185 1.393 . S
C2189 C2188 1.391 . S
C2190 H2180 0.950 . S
C2190 C2191 1.386 . S
C2190 C2192 1.391 . S
C2191 C2190 1.386 . S
C2191 C2195 1.393 . S
C2192 H2181 0.950 . S
C2192 C2190 1.391 . S
C2192 C2193 1.400 . S
C2193 C2187 1.491 . S
C2193 C2192 1.400 . S
C2193 C2194 1.398 . S
C2194 H2182 0.950 . S
C2194 C2193 1.398 . S
C2194 C2195 1.391 . S
C2195 H2183 0.950 . S
C2195 C2191 1.393 . S
C2195 C2194 1.391 . S
H2196 C2204 0.950 . S
H2197 C2209 0.950 . S
H2198 C2206 0.950 . S
H2199 C2208 0.950 . S
H2200 C2210 0.950 . S
H2201 C2212 0.950 . S
H2202 C2214 0.950 . S
H2203 C2215 0.950 . S
C2204 H2196 0.950 . S
C2204 C2205 1.386 . S
C2204 C2206 1.391 . S
C2205 C2204 1.386 . S
C2205 C2209 1.393 . S
C2206 H2198 0.950 . S
C2206 C2204 1.391 . S
C2206 C2207 1.400 . S
C2207 C2206 1.400 . S
C2207 C2208 1.398 . S
C2207 C2213 1.491 . S
C2208 H2199 0.950 . S
C2208 C2207 1.398 . S
C2208 C2209 1.391 . S
C2209 H2197 0.950 . S
C2209 C2205 1.393 . S
C2209 C2208 1.391 . S
C2210 H2200 0.950 . S
C2210 C2211 1.386 . S
C2210 C2212 1.391 . S
C2211 C2210 1.386 . S
C2211 C2215 1.393 . S
C2212 H2201 0.950 . S
C2212 C2210 1.391 . S
C2212 C2213 1.400 . S
C2213 C2207 1.491 . S
C2213 C2212 1.400 . S
C2213 C2214 1.398 . S
C2214 H2202 0.950 . S
C2214 C2213 1.398 . S
C2214 C2215 1.391 . S
C2215 H2203 0.950 . S
C2215 C2211 1.393 . S
C2215 C2214 1.391 . S
H2216 C2224 0.950 . S
H2217 C2229 0.950 . S
H2218 C2226 0.950 . S
H2219 C2228 0.950 . S
H2220 C2230 0.950 . S
H2221 C2232 0.950 . S
H2222 C2234 0.950 . S
H2223 C2235 0.950 . S
C2224 H2216 0.950 . S
C2224 C2225 1.386 . S
C2224 C2226 1.391 . S
C2225 C2224 1.386 . S
C2225 C2229 1.393 . S
C2226 H2218 0.950 . S
C2226 C2224 1.391 . S
C2226 C2227 1.400 . S
C2227 C2226 1.400 . S
C2227 C2228 1.398 . S
C2227 C2233 1.491 . S
C2228 H2219 0.950 . S
C2228 C2227 1.398 . S
C2228 C2229 1.391 . S
C2229 H2217 0.950 . S
C2229 C2225 1.393 . S
C2229 C2228 1.391 . S
C2230 H2220 0.950 . S
C2230 C2231 1.386 . S
C2230 C2232 1.391 . S
C2231 C2230 1.386 . S
C2231 C2235 1.393 . S
C2232 H2221 0.950 . S
C2232 C2230 1.391 . S
C2232 C2233 1.400 . S
C2233 C2227 1.491 . S
C2233 C2232 1.400 . S
C2233 C2234 1.398 . S
C2234 H2222 0.950 . S
C2234 C2233 1.398 . S
C2234 C2235 1.391 . S
C2235 H2223 0.950 . S
C2235 C2231 1.393 . S
C2235 C2234 1.391 . S
H2236 C2244 0.950 . S
H2237 C2249 0.950 . S
H2238 C2246 0.950 . S
H2239 C2248 0.950 . S
H2240 C2250 0.950 . S
H2241 C2252 0.950 . S
H2242 C2254 0.950 . S
H2243 C2255 0.950 . S
C2244 H2236 0.950 . S
C2244 C2245 1.386 . S
C2244 C2246 1.391 . S
C2245 C2244 1.386 . S
C2245 C2249 1.393 . S
C2246 H2238 0.950 . S
C2246 C2244 1.391 . S
C2246 C2247 1.400 . S
C2247 C2246 1.400 . S
C2247 C2248 1.398 . S
C2247 C2253 1.491 . S
C2248 H2239 0.950 . S
C2248 C2247 1.398 . S
C2248 C2249 1.391 . S
C2249 H2237 0.950 . S
C2249 C2245 1.393 . S
C2249 C2248 1.391 . S
C2250 H2240 0.950 . S
C2250 C2251 1.386 . S
C2250 C2252 1.391 . S
C2251 C2250 1.386 . S
C2251 C2255 1.393 . S
C2252 H2241 0.950 . S
C2252 C2250 1.391 . S
C2252 C2253 1.400 . S
C2253 C2247 1.491 . S
C2253 C2252 1.400 . S
C2253 C2254 1.398 . S
C2254 H2242 0.950 . S
C2254 C2253 1.398 . S
C2254 C2255 1.391 . S
C2255 H2243 0.950 . S
C2255 C2251 1.393 . S
C2255 C2254 1.391 . S
H2256 C2264 0.950 . S
H2257 C2269 0.950 . S
H2258 C2266 0.950 . S
H2259 C2268 0.950 . S
H2260 C2270 0.950 . S
H2261 C2272 0.950 . S
H2262 C2274 0.950 . S
H2263 C2275 0.950 . S
C2264 H2256 0.950 . S
C2264 C2265 1.386 . S
C2264 C2266 1.391 . S
C2265 C2264 1.386 . S
C2265 C2269 1.393 . S
C2266 H2258 0.950 . S
C2266 C2264 1.391 . S
C2266 C2267 1.400 . S
C2267 C2266 1.400 . S
C2267 C2268 1.398 . S
C2267 C2273 1.491 . S
C2268 H2259 0.950 . S
C2268 C2267 1.398 . S
C2268 C2269 1.391 . S
C2269 H2257 0.950 . S
C2269 C2265 1.393 . S
C2269 C2268 1.391 . S
C2270 H2260 0.950 . S
C2270 C2271 1.386 . S
C2270 C2272 1.391 . S
C2271 C2270 1.386 . S
C2271 C2275 1.393 . S
C2272 H2261 0.950 . S
C2272 C2270 1.391 . S
C2272 C2273 1.400 . S
C2273 C2267 1.491 . S
C2273 C2272 1.400 . S
C2273 C2274 1.398 . S
C2274 H2262 0.950 . S
C2274 C2273 1.398 . S
C2274 C2275 1.391 . S
C2275 H2263 0.950 . S
C2275 C2271 1.393 . S
C2275 C2274 1.391 . S
H2276 C2284 0.950 . S
H2277 C2289 0.950 . S
H2278 C2286 0.950 . S
H2279 C2288 0.950 . S
H2280 C2290 0.950 . S
H2281 C2292 0.950 . S
H2282 C2294 0.950 . S
H2283 C2295 0.950 . S
C2284 H2276 0.950 . S
C2284 C2285 1.386 . S
C2284 C2286 1.391 . S
C2285 C2284 1.386 . S
C2285 C2289 1.393 . S
C2286 H2278 0.950 . S
C2286 C2284 1.391 . S
C2286 C2287 1.400 . S
C2287 C2286 1.400 . S
C2287 C2288 1.398 . S
C2287 C2293 1.491 . S
C2288 H2279 0.950 . S
C2288 C2287 1.398 . S
C2288 C2289 1.391 . S
C2289 H2277 0.950 . S
C2289 C2285 1.393 . S
C2289 C2288 1.391 . S
C2290 H2280 0.950 . S
C2290 C2291 1.386 . S
C2290 C2292 1.391 . S
C2291 C2290 1.386 . S
C2291 C2295 1.393 . S
C2292 H2281 0.950 . S
C2292 C2290 1.391 . S
C2292 C2293 1.400 . S
C2293 C2287 1.491 . S
C2293 C2292 1.400 . S
C2293 C2294 1.398 . S
C2294 H2282 0.950 . S
C2294 C2293 1.398 . S
C2294 C2295 1.391 . S
C2295 H2283 0.950 . S
C2295 C2291 1.393 . S
C2295 C2294 1.391 . S
H2296 C2304 0.950 . S
H2297 C2309 0.950 1_545 S
H2298 C2306 0.950 . S
H2299 C2308 0.950 . S
H2300 C2310 0.950 . S
H2301 C2312 0.950 . S
H2302 C2314 0.950 . S
H2303 C2315 0.950 . S
C2304 H2296 0.950 . S
C2304 C2305 1.386 . S
C2304 C2306 1.391 . S
C2305 C2304 1.386 . S
C2305 C2309 1.393 . S
C2306 H2298 0.950 . S
C2306 C2304 1.391 . S
C2306 C2307 1.400 . S
C2307 C2306 1.400 . S
C2307 C2308 1.398 . S
C2307 C2313 1.491 . S
C2308 H2299 0.950 . S
C2308 C2307 1.398 . S
C2308 C2309 1.391 . S
C2309 H2297 0.950 1_565 S
C2309 C2305 1.393 . S
C2309 C2308 1.391 . S
C2310 H2300 0.950 . S
C2310 C2311 1.386 . S
C2310 C2312 1.391 . S
C2311 C2310 1.386 . S
C2311 C2315 1.393 . S
C2312 H2301 0.950 . S
C2312 C2310 1.391 . S
C2312 C2313 1.400 . S
C2313 C2307 1.491 . S
C2313 C2312 1.400 . S
C2313 C2314 1.398 . S
C2314 H2302 0.950 . S
C2314 C2313 1.398 . S
C2314 C2315 1.391 . S
C2315 H2303 0.950 . S
C2315 C2311 1.393 . S
C2315 C2314 1.391 . S
H2316 C2324 0.950 . S
H2317 C2329 0.950 1_556 S
H2318 C2326 0.916 1_545 S
H2319 C2328 0.950 . S
H2320 C2330 0.950 . S
H2321 C2332 0.950 . S
H2322 C2334 0.950 . S
H2323 C2335 0.950 . S
C2324 H2316 0.950 . S
C2324 C2325 1.386 . S
C2324 C2326 1.391 . S
C2325 C2324 1.386 . S
C2325 C2329 1.393 . S
C2326 H2318 0.916 1_565 S
C2326 C2324 1.391 . S
C2326 C2327 1.400 . S
C2327 C2326 1.400 . S
C2327 C2328 1.398 . S
C2327 C2333 1.491 . S
C2328 H2319 0.950 . S
C2328 C2327 1.398 . S
C2328 C2329 1.391 . S
C2329 H2317 0.950 1_554 S
C2329 C2325 1.393 . S
C2329 C2328 1.391 . S
C2330 H2320 0.950 . S
C2330 C2331 1.386 1_565 S
C2330 C2332 1.391 . S
C2331 C2330 1.386 1_545 S
C2331 C2335 1.393 . S
C2332 H2321 0.950 . S
C2332 C2330 1.391 . S
C2332 C2333 1.400 . S
C2333 C2327 1.491 . S
C2333 C2332 1.400 . S
C2333 C2334 1.398 1_565 S
C2334 H2322 0.950 . S
C2334 C2333 1.398 1_545 S
C2334 C2335 1.391 . S
C2335 H2323 0.950 . S
C2335 C2331 1.393 . S
C2335 C2334 1.391 . S
H2336 C2344 0.950 . S
H2337 C2349 0.950 . S
H2338 C2346 0.950 . S
H2339 C2348 0.950 . S
H2340 C2350 0.950 . S
H2341 C2352 0.950 . S
H2342 C2354 0.950 . S
H2343 C2355 0.950 . S
C2344 H2336 0.950 . S
C2344 C2345 1.386 . S
C2344 C2346 1.391 . S
C2345 C2344 1.386 . S
C2345 C2349 1.393 . S
C2346 H2338 0.950 . S
C2346 C2344 1.391 . S
C2346 C2347 1.400 . S
C2347 C2346 1.400 . S
C2347 C2348 1.398 . S
C2347 C2353 1.491 . S
C2348 H2339 0.950 . S
C2348 C2347 1.398 . S
C2348 C2349 1.391 . S
C2349 H2337 0.950 . S
C2349 C2345 1.393 . S
C2349 C2348 1.391 . S
C2350 H2340 0.950 . S
C2350 C2351 1.386 . S
C2350 C2352 1.391 . S
C2351 C2350 1.386 . S
C2351 C2355 1.393 . S
C2352 H2341 0.950 . S
C2352 C2350 1.391 . S
C2352 C2353 1.400 . S
C2353 C2347 1.491 . S
C2353 C2352 1.400 . S
C2353 C2354 1.398 . S
C2354 H2342 0.950 . S
C2354 C2353 1.398 . S
C2354 C2355 1.391 . S
C2355 H2343 0.950 . S
C2355 C2351 1.393 . S
C2355 C2354 1.391 . S
H2356 C2364 0.950 . S
H2357 C2369 0.950 . S
H2358 C2366 0.950 . S
H2359 C2368 0.950 . S
H2360 C2370 0.950 . S
H2361 C2372 0.950 . S
H2362 C2374 0.950 . S
H2363 C2375 0.950 . S
C2364 H2356 0.950 . S
C2364 C2365 1.386 . S
C2364 C2366 1.391 . S
C2365 C2364 1.386 . S
C2365 C2369 1.393 . S
C2366 H2358 0.950 . S
C2366 C2364 1.391 . S
C2366 C2367 1.400 . S
C2367 C2366 1.400 . S
C2367 C2368 1.398 . S
C2367 C2373 1.491 . S
C2368 H2359 0.950 . S
C2368 C2367 1.398 . S
C2368 C2369 1.391 . S
C2369 H2357 0.950 . S
C2369 C2365 1.393 . S
C2369 C2368 1.391 . S
C2370 H2360 0.950 . S
C2370 C2371 1.386 . S
C2370 C2372 1.391 . S
C2371 C2370 1.386 . S
C2371 C2375 1.393 . S
C2372 H2361 0.950 . S
C2372 C2370 1.391 . S
C2372 C2373 1.400 . S
C2373 C2367 1.491 . S
C2373 C2372 1.400 . S
C2373 C2374 1.398 . S
C2374 H2362 0.950 . S
C2374 C2373 1.398 . S
C2374 C2375 1.391 . S
C2375 H2363 0.950 . S
C2375 C2371 1.393 . S
C2375 C2374 1.391 . S
H2376 C2384 0.950 . S
H2377 C2389 0.950 . S
H2378 C2386 0.950 . S
H2379 C2388 0.950 . S
H2380 C2390 0.950 . S
H2381 C2392 0.950 . S
H2382 C2394 0.950 . S
H2383 C2395 0.950 . S
C2384 H2376 0.950 . S
C2384 C2385 1.386 . S
C2384 C2386 1.391 . S
C2385 C2384 1.386 . S
C2385 C2389 1.393 . S
C2386 H2378 0.950 . S
C2386 C2384 1.391 . S
C2386 C2387 1.400 . S
C2387 C2386 1.400 . S
C2387 C2388 1.398 . S
C2387 C2393 1.491 . S
C2388 H2379 0.950 . S
C2388 C2387 1.398 . S
C2388 C2389 1.391 . S
C2389 H2377 0.950 . S
C2389 C2385 1.393 . S
C2389 C2388 1.391 . S
C2390 H2380 0.950 . S
C2390 C2391 1.386 . S
C2390 C2392 1.391 . S
C2391 C2390 1.386 . S
C2391 C2395 1.393 . S
C2392 H2381 0.950 . S
C2392 C2390 1.391 . S
C2392 C2393 1.400 . S
C2393 C2387 1.491 . S
C2393 C2392 1.400 . S
C2393 C2394 1.398 . S
C2394 H2382 0.950 . S
C2394 C2393 1.398 . S
C2394 C2395 1.391 . S
C2395 H2383 0.950 . S
C2395 C2391 1.393 . S
C2395 C2394 1.391 . S
H2396 C2404 0.950 . S
H2397 C2409 0.950 . S
H2398 C2406 0.950 . S
H2399 C2408 0.950 . S
H2400 C2410 0.950 . S
H2401 C2412 0.950 . S
H2402 C2414 0.950 . S
H2403 C2415 0.950 . S
C2404 H2396 0.950 . S
C2404 C2405 1.386 . S
C2404 C2406 1.391 . S
C2405 C2404 1.386 . S
C2405 C2409 1.393 . S
C2406 H2398 0.950 . S
C2406 C2404 1.391 . S
C2406 C2407 1.400 . S
C2407 C2406 1.400 . S
C2407 C2408 1.398 . S
C2407 C2413 1.491 . S
C2408 H2399 0.950 . S
C2408 C2407 1.398 . S
C2408 C2409 1.391 . S
C2409 H2397 0.950 . S
C2409 C2405 1.393 . S
C2409 C2408 1.391 . S
C2410 H2400 0.950 . S
C2410 C2411 1.386 . S
C2410 C2412 1.391 . S
C2411 C2410 1.386 . S
C2411 C2415 1.393 . S
C2412 H2401 0.950 . S
C2412 C2410 1.391 . S
C2412 C2413 1.400 . S
C2413 C2407 1.491 . S
C2413 C2412 1.400 . S
C2413 C2414 1.398 . S
C2414 H2402 0.950 . S
C2414 C2413 1.398 . S
C2414 C2415 1.391 . S
C2415 H2403 0.950 . S
C2415 C2411 1.393 . S
C2415 C2414 1.391 . S
H2416 C2424 0.950 . S
H2417 C2429 0.950 . S
H2418 C2426 0.950 . S
H2419 C2428 0.950 . S
H2420 C2430 0.950 . S
H2421 C2432 0.950 . S
H2422 C2434 0.950 . S
H2423 C2435 0.950 . S
C2424 H2416 0.950 . S
C2424 C2425 1.386 . S
C2424 C2426 1.391 . S
C2425 C2424 1.386 . S
C2425 C2429 1.393 . S
C2426 H2418 0.950 . S
C2426 C2424 1.391 . S
C2426 C2427 1.400 . S
C2427 C2426 1.400 . S
C2427 C2428 1.398 . S
C2427 C2433 1.491 . S
C2428 H2419 0.950 . S
C2428 C2427 1.398 . S
C2428 C2429 1.391 . S
C2429 H2417 0.950 . S
C2429 C2425 1.393 . S
C2429 C2428 1.391 . S
C2430 H2420 0.950 . S
C2430 C2431 1.386 . S
C2430 C2432 1.391 . S
C2431 C2430 1.386 . S
C2431 C2435 1.393 . S
C2432 H2421 0.950 . S
C2432 C2430 1.391 . S
C2432 C2433 1.400 . S
C2433 C2427 1.491 . S
C2433 C2432 1.400 . S
C2433 C2434 1.398 . S
C2434 H2422 0.950 . S
C2434 C2433 1.398 . S
C2434 C2435 1.391 . S
C2435 H2423 0.950 . S
C2435 C2431 1.393 . S
C2435 C2434 1.391 . S
H2436 C2444 0.950 . S
H2437 C2449 0.950 . S
H2438 C2446 0.950 . S
H2439 C2448 0.950 . S
H2440 C2450 0.950 . S
H2441 C2452 0.950 . S
H2442 C2454 0.950 . S
H2443 C2455 0.950 . S
C2444 H2436 0.950 . S
C2444 C2445 1.386 . S
C2444 C2446 1.391 . S
C2445 C2444 1.386 . S
C2445 C2449 1.393 . S
C2446 H2438 0.950 . S
C2446 C2444 1.391 . S
C2446 C2447 1.400 . S
C2447 C2446 1.400 . S
C2447 C2448 1.398 . S
C2447 C2453 1.491 . S
C2448 H2439 0.950 . S
C2448 C2447 1.398 . S
C2448 C2449 1.391 . S
C2449 H2437 0.950 . S
C2449 C2445 1.393 . S
C2449 C2448 1.391 . S
C2450 H2440 0.950 . S
C2450 C2451 1.386 . S
C2450 C2452 1.391 . S
C2451 C2450 1.386 . S
C2451 C2455 1.393 . S
C2452 H2441 0.950 . S
C2452 C2450 1.391 . S
C2452 C2453 1.400 . S
C2453 C2447 1.491 . S
C2453 C2452 1.400 . S
C2453 C2454 1.398 . S
C2454 H2442 0.950 . S
C2454 C2453 1.398 . S
C2454 C2455 1.391 . S
C2455 H2443 0.950 . S
C2455 C2451 1.393 . S
C2455 C2454 1.391 . S
H2456 C2464 0.950 . S
H2457 C2469 0.950 . S
H2458 C2466 0.950 . S
H2459 C2468 0.950 . S
H2460 C2470 0.950 . S
H2461 C2472 0.950 . S
H2462 C2474 0.950 . S
H2463 C2475 0.950 . S
C2464 H2456 0.950 . S
C2464 C2465 1.386 . S
C2464 C2466 1.391 . S
C2465 C2464 1.386 . S
C2465 C2469 1.393 . S
C2466 H2458 0.950 . S
C2466 C2464 1.391 . S
C2466 C2467 1.400 . S
C2467 C2466 1.400 . S
C2467 C2468 1.398 . S
C2467 C2473 1.491 . S
C2468 H2459 0.950 . S
C2468 C2467 1.398 . S
C2468 C2469 1.391 . S
C2469 H2457 0.950 . S
C2469 C2465 1.393 . S
C2469 C2468 1.391 . S
C2470 H2460 0.950 . S
C2470 C2471 1.386 . S
C2470 C2472 1.391 . S
C2471 C2470 1.386 . S
C2471 C2475 1.393 . S
C2472 H2461 0.950 . S
C2472 C2470 1.391 . S
C2472 C2473 1.400 . S
C2473 C2467 1.491 . S
C2473 C2472 1.400 . S
C2473 C2474 1.398 . S
C2474 H2462 0.950 . S
C2474 C2473 1.398 . S
C2474 C2475 1.391 . S
C2475 H2463 0.950 . S
C2475 C2471 1.393 . S
C2475 C2474 1.391 . S
H2476 C2484 0.950 . S
H2477 C2489 0.950 . S
H2478 C2486 0.950 . S
H2479 C2488 0.950 . S
H2480 C2490 0.950 . S
H2481 C2492 0.950 . S
H2482 C2494 0.950 . S
H2483 C2495 0.950 . S
C2484 H2476 0.950 . S
C2484 C2485 1.386 . S
C2484 C2486 1.391 . S
C2485 C2484 1.386 . S
C2485 C2489 1.393 . S
C2486 H2478 0.950 . S
C2486 C2484 1.391 . S
C2486 C2487 1.400 . S
C2487 C2486 1.400 . S
C2487 C2488 1.398 . S
C2487 C2493 1.491 . S
C2488 H2479 0.950 . S
C2488 C2487 1.398 . S
C2488 C2489 1.391 . S
C2489 H2477 0.950 . S
C2489 C2485 1.393 . S
C2489 C2488 1.391 . S
C2490 H2480 0.950 . S
C2490 C2491 1.386 . S
C2490 C2492 1.391 . S
C2491 C2490 1.386 . S
C2491 C2495 1.393 . S
C2492 H2481 0.950 . S
C2492 C2490 1.391 . S
C2492 C2493 1.400 . S
C2493 C2487 1.491 . S
C2493 C2492 1.400 . S
C2493 C2494 1.398 . S
C2494 H2482 0.950 . S
C2494 C2493 1.398 . S
C2494 C2495 1.391 . S
C2495 H2483 0.950 . S
C2495 C2491 1.393 . S
C2495 C2494 1.391 . S
H2496 C2504 0.950 . S
H2497 C2509 0.950 . S
H2498 C2506 0.950 . S
H2499 C2508 0.950 . S
H2500 C2510 0.950 . S
H2501 C2512 0.950 . S
H2502 C2514 0.950 . S
H2503 C2515 0.950 . S
C2504 H2496 0.950 . S
C2504 C2505 1.386 . S
C2504 C2506 1.391 . S
C2505 C2504 1.386 . S
C2505 C2509 1.393 . S
C2506 H2498 0.950 . S
C2506 C2504 1.391 . S
C2506 C2507 1.400 . S
C2507 C2506 1.400 . S
C2507 C2508 1.398 . S
C2507 C2513 1.491 . S
C2508 H2499 0.950 . S
C2508 C2507 1.398 . S
C2508 C2509 1.391 . S
C2509 H2497 0.950 . S
C2509 C2505 1.393 . S
C2509 C2508 1.391 . S
C2510 H2500 0.950 . S
C2510 C2511 1.386 . S
C2510 C2512 1.391 . S
C2511 C2510 1.386 . S
C2511 C2515 1.393 . S
C2512 H2501 0.950 . S
C2512 C2510 1.391 . S
C2512 C2513 1.400 . S
C2513 C2507 1.491 . S
C2513 C2512 1.400 . S
C2513 C2514 1.398 . S
C2514 H2502 0.950 . S
C2514 C2513 1.398 . S
C2514 C2515 1.391 . S
C2515 H2503 0.950 . S
C2515 C2511 1.393 . S
C2515 C2514 1.391 . S
H2516 C2524 0.950 . S
H2517 C2529 0.950 . S
H2518 C2526 0.950 . S
H2519 C2528 0.950 . S
H2520 C2530 0.950 . S
H2521 C2532 0.950 . S
H2522 C2534 0.950 . S
H2523 C2535 0.950 . S
C2524 H2516 0.950 . S
C2524 C2525 1.386 . S
C2524 C2526 1.391 . S
C2525 C2524 1.386 . S
C2525 C2529 1.393 . S
C2526 H2518 0.950 . S
C2526 C2524 1.391 . S
C2526 C2527 1.400 . S
C2527 C2526 1.400 . S
C2527 C2528 1.398 . S
C2527 C2533 1.491 . S
C2528 H2519 0.950 . S
C2528 C2527 1.398 . S
C2528 C2529 1.391 . S
C2529 H2517 0.950 . S
C2529 C2525 1.393 . S
C2529 C2528 1.391 . S
C2530 H2520 0.950 . S
C2530 C2531 1.386 . S
C2530 C2532 1.391 . S
C2531 C2530 1.386 . S
C2531 C2535 1.393 . S
C2532 H2521 0.950 . S
C2532 C2530 1.391 . S
C2532 C2533 1.400 . S
C2533 C2527 1.491 . S
C2533 C2532 1.400 . S
C2533 C2534 1.398 . S
C2534 H2522 0.950 . S
C2534 C2533 1.398 . S
C2534 C2535 1.391 . S
C2535 H2523 0.950 . S
C2535 C2531 1.393 . S
C2535 C2534 1.391 . S
H2536 C2544 0.950 . S
H2537 C2549 0.950 . S
H2538 C2546 0.950 . S
H2539 C2548 0.950 . S
H2540 C2550 0.950 . S
H2541 C2552 0.950 . S
H2542 C2554 0.950 . S
H2543 C2555 0.950 . S
C2544 H2536 0.950 . S
C2544 C2545 1.386 . S
C2544 C2546 1.391 . S
C2545 C2544 1.386 . S
C2545 C2549 1.393 . S
C2546 H2538 0.950 . S
C2546 C2544 1.391 . S
C2546 C2547 1.400 . S
C2547 C2546 1.400 . S
C2547 C2548 1.398 . S
C2547 C2553 1.491 . S
C2548 H2539 0.950 . S
C2548 C2547 1.398 . S
C2548 C2549 1.391 . S
C2549 H2537 0.950 . S
C2549 C2545 1.393 . S
C2549 C2548 1.391 . S
C2550 H2540 0.950 . S
C2550 C2551 1.386 . S
C2550 C2552 1.391 . S
C2551 C2550 1.386 . S
C2551 C2555 1.393 . S
C2552 H2541 0.950 . S
C2552 C2550 1.391 . S
C2552 C2553 1.400 . S
C2553 C2547 1.491 . S
C2553 C2552 1.400 . S
C2553 C2554 1.398 . S
C2554 H2542 0.950 . S
C2554 C2553 1.398 . S
C2554 C2555 1.391 . S
C2555 H2543 0.950 . S
C2555 C2551 1.393 . S
C2555 C2554 1.391 . S
H2556 C2564 0.950 . S
H2557 C2569 0.950 . S
H2558 C2566 0.950 . S
H2559 C2568 0.950 . S
H2560 C2570 0.950 . S
H2561 C2572 0.950 . S
H2562 C2574 0.950 . S
H2563 C2575 0.950 . S
C2564 H2556 0.950 . S
C2564 C2565 1.386 . S
C2564 C2566 1.391 . S
C2565 C2564 1.386 . S
C2565 C2569 1.393 . S
C2566 H2558 0.950 . S
C2566 C2564 1.391 . S
C2566 C2567 1.400 . S
C2567 C2566 1.400 . S
C2567 C2568 1.398 . S
C2567 C2573 1.491 . S
C2568 H2559 0.950 . S
C2568 C2567 1.398 . S
C2568 C2569 1.391 . S
C2569 H2557 0.950 . S
C2569 C2565 1.393 . S
C2569 C2568 1.391 . S
C2570 H2560 0.950 . S
C2570 C2571 1.386 . S
C2570 C2572 1.391 . S
C2571 C2570 1.386 . S
C2571 C2575 1.393 . S
C2572 H2561 0.950 . S
C2572 C2570 1.391 . S
C2572 C2573 1.400 . S
C2573 C2567 1.491 . S
C2573 C2572 1.400 . S
C2573 C2574 1.398 . S
C2574 H2562 0.950 . S
C2574 C2573 1.398 . S
C2574 C2575 1.391 . S
C2575 H2563 0.950 . S
C2575 C2571 1.393 . S
C2575 C2574 1.391 . S
H2576 C2584 0.950 . S
H2577 C2589 0.950 . S
H2578 C2586 0.950 . S
H2579 C2588 0.950 . S
H2580 C2590 0.950 . S
H2581 C2592 0.950 . S
H2582 C2594 0.950 . S
H2583 C2595 0.950 . S
C2584 H2576 0.950 . S
C2584 C2585 1.386 . S
C2584 C2586 1.391 . S
C2585 C2584 1.386 . S
C2585 C2589 1.393 . S
C2586 H2578 0.950 . S
C2586 C2584 1.391 . S
C2586 C2587 1.400 . S
C2587 C2586 1.400 . S
C2587 C2588 1.398 . S
C2587 C2593 1.491 . S
C2588 H2579 0.950 . S
C2588 C2587 1.398 . S
C2588 C2589 1.391 . S
C2589 H2577 0.950 . S
C2589 C2585 1.393 . S
C2589 C2588 1.391 . S
C2590 H2580 0.950 . S
C2590 C2591 1.386 . S
C2590 C2592 1.391 . S
C2591 C2590 1.386 . S
C2591 C2595 1.393 . S
C2592 H2581 0.950 . S
C2592 C2590 1.391 . S
C2592 C2593 1.400 . S
C2593 C2587 1.491 . S
C2593 C2592 1.400 . S
C2593 C2594 1.398 . S
C2594 H2582 0.950 . S
C2594 C2593 1.398 . S
C2594 C2595 1.391 . S
C2595 H2583 0.950 . S
C2595 C2591 1.393 . S
C2595 C2594 1.391 . S
H2596 C2604 0.950 . S
H2597 C2609 0.950 . S
H2598 C2606 0.950 . S
H2599 C2608 0.950 . S
H2600 C2610 0.950 . S
H2601 C2612 0.950 . S
H2602 C2614 0.950 . S
H2603 C2615 0.950 . S
C2604 H2596 0.950 . S
C2604 C2605 1.386 . S
C2604 C2606 1.391 . S
C2605 C2604 1.386 . S
C2605 C2609 1.393 . S
C2606 H2598 0.950 . S
C2606 C2604 1.391 . S
C2606 C2607 1.400 . S
C2607 C2606 1.400 . S
C2607 C2608 1.398 . S
C2607 C2613 1.491 . S
C2608 H2599 0.950 . S
C2608 C2607 1.398 . S
C2608 C2609 1.391 . S
C2609 H2597 0.950 . S
C2609 C2605 1.393 . S
C2609 C2608 1.391 . S
C2610 H2600 0.950 . S
C2610 C2611 1.386 . S
C2610 C2612 1.391 . S
C2611 C2610 1.386 . S
C2611 C2615 1.393 . S
C2612 H2601 0.950 . S
C2612 C2610 1.391 . S
C2612 C2613 1.400 . S
C2613 C2607 1.491 . S
C2613 C2612 1.400 . S
C2613 C2614 1.398 . S
C2614 H2602 0.950 . S
C2614 C2613 1.398 . S
C2614 C2615 1.391 . S
C2615 H2603 0.950 . S
C2615 C2611 1.393 . S
C2615 C2614 1.391 . S
H2616 C2624 0.950 . S
H2617 C2629 0.950 . S
H2618 C2626 0.950 . S
H2619 C2628 0.950 . S
H2620 C2630 0.950 . S
H2621 C2632 0.950 . S
H2622 C2634 0.950 . S
H2623 C2635 0.950 . S
C2624 H2616 0.950 . S
C2624 C2625 1.386 . S
C2624 C2626 1.391 . S
C2625 C2624 1.386 . S
C2625 C2629 1.393 . S
C2626 H2618 0.950 . S
C2626 C2624 1.391 . S
C2626 C2627 1.400 . S
C2627 C2626 1.400 . S
C2627 C2628 1.398 . S
C2627 C2633 1.491 . S
C2628 H2619 0.950 . S
C2628 C2627 1.398 . S
C2628 C2629 1.391 . S
C2629 H2617 0.950 . S
C2629 C2625 1.393 . S
C2629 C2628 1.391 . S
C2630 H2620 0.950 . S
C2630 C2631 1.424 . S
C2630 C2632 1.391 . S
C2631 C2630 1.424 . S
C2631 C2635 1.384 1_655 S
C2632 H2621 0.950 . S
C2632 C2630 1.391 . S
C2632 C2633 1.400 . S
C2633 C2627 1.491 . S
C2633 C2632 1.400 . S
C2633 C2634 1.398 . S
C2634 H2622 0.950 . S
C2634 C2633 1.398 . S
C2634 C2635 1.391 1_655 S
C2635 H2623 0.950 . S
C2635 C2631 1.384 1_455 S
C2635 C2634 1.391 1_455 S
H2636 C2644 0.950 . S
H2637 C2649 0.950 . S
H2638 C2646 0.950 . S
H2639 C2648 0.950 . S
H2640 C2650 0.950 . S
H2641 C2652 0.950 . S
H2642 C2654 0.950 . S
H2643 C2655 0.950 . S
C2644 H2636 0.950 . S
C2644 C2645 1.386 . S
C2644 C2646 1.391 . S
C2645 C2644 1.386 . S
C2645 C2649 1.393 . S
C2646 H2638 0.950 . S
C2646 C2644 1.391 . S
C2646 C2647 1.400 . S
C2647 C2646 1.400 . S
C2647 C2648 1.398 . S
C2647 C2653 1.491 . S
C2648 H2639 0.950 . S
C2648 C2647 1.398 . S
C2648 C2649 1.391 . S
C2649 H2637 0.950 . S
C2649 C2645 1.393 . S
C2649 C2648 1.391 . S
C2650 H2640 0.950 . S
C2650 C2651 1.386 . S
C2650 C2652 1.391 . S
C2651 C2650 1.386 . S
C2651 C2655 1.393 . S
C2652 H2641 0.950 . S
C2652 C2650 1.391 . S
C2652 C2653 1.400 . S
C2653 C2647 1.491 . S
C2653 C2652 1.400 . S
C2653 C2654 1.398 . S
C2654 H2642 0.950 . S
C2654 C2653 1.398 . S
C2654 C2655 1.391 . S
C2655 H2643 0.950 . S
C2655 C2651 1.393 . S
C2655 C2654 1.391 . S
H2656 C2664 0.950 . S
H2657 C2669 0.950 . S
H2658 C2666 0.950 . S
H2659 C2668 0.950 . S
H2660 C2670 0.950 . S
H2661 C2672 0.950 . S
H2662 C2674 0.950 . S
H2663 C2675 0.950 . S
C2664 H2656 0.950 . S
C2664 C2665 1.386 . S
C2664 C2666 1.391 . S
C2665 C2664 1.386 . S
C2665 C2669 1.393 . S
C2666 H2658 0.950 . S
C2666 C2664 1.391 . S
C2666 C2667 1.400 . S
C2667 C2666 1.400 . S
C2667 C2668 1.398 . S
C2667 C2673 1.491 . S
C2668 H2659 0.950 . S
C2668 C2667 1.398 . S
C2668 C2669 1.391 . S
C2669 H2657 0.950 . S
C2669 C2665 1.393 . S
C2669 C2668 1.391 . S
C2670 H2660 0.950 . S
C2670 C2671 1.386 . S
C2670 C2672 1.391 . S
C2671 C2670 1.386 . S
C2671 C2675 1.393 . S
C2672 H2661 0.950 . S
C2672 C2670 1.391 . S
C2672 C2673 1.400 . S
C2673 C2667 1.491 . S
C2673 C2672 1.400 . S
C2673 C2674 1.398 . S
C2674 H2662 0.950 . S
C2674 C2673 1.398 . S
C2674 C2675 1.391 . S
C2675 H2663 0.950 . S
C2675 C2671 1.393 . S
C2675 C2674 1.391 . S
H2676 C2684 0.950 . S
H2677 C2689 0.950 . S
H2678 C2686 0.950 . S
H2679 C2688 0.950 . S
H2680 C2690 0.950 . S
H2681 C2692 0.950 . S
H2682 C2694 0.950 . S
H2683 C2695 0.950 . S
C2684 H2676 0.950 . S
C2684 C2685 1.386 . S
C2684 C2686 1.391 . S
C2685 C2684 1.386 . S
C2685 C2689 1.393 . S
C2686 H2678 0.950 . S
C2686 C2684 1.391 . S
C2686 C2687 1.400 . S
C2687 C2686 1.400 . S
C2687 C2688 1.398 . S
C2687 C2693 1.491 . S
C2688 H2679 0.950 . S
C2688 C2687 1.398 . S
C2688 C2689 1.391 . S
C2689 H2677 0.950 . S
C2689 C2685 1.393 . S
C2689 C2688 1.391 . S
C2690 H2680 0.950 . S
C2690 C2691 1.386 . S
C2690 C2692 1.391 . S
C2691 C2690 1.386 . S
C2691 C2695 1.393 . S
C2692 H2681 0.950 . S
C2692 C2690 1.391 . S
C2692 C2693 1.400 . S
C2693 C2687 1.491 . S
C2693 C2692 1.400 . S
C2693 C2694 1.398 . S
C2694 H2682 0.950 . S
C2694 C2693 1.398 . S
C2694 C2695 1.391 . S
C2695 H2683 0.950 . S
C2695 C2691 1.393 . S
C2695 C2694 1.391 . S
H2696 C2704 0.950 . S
H2697 C2709 0.950 . S
H2698 C2706 0.950 . S
H2699 C2708 0.950 . S
H2700 C2710 0.950 . S
H2701 C2712 0.950 . S
H2702 C2714 0.950 . S
H2703 C2715 0.950 . S
C2704 H2696 0.950 . S
C2704 C2705 1.386 . S
C2704 C2706 1.391 . S
C2705 C2704 1.386 . S
C2705 C2709 1.393 . S
C2706 H2698 0.950 . S
C2706 C2704 1.391 . S
C2706 C2707 1.400 . S
C2707 C2706 1.400 . S
C2707 C2708 1.398 . S
C2707 C2713 1.491 . S
C2708 H2699 0.950 . S
C2708 C2707 1.398 . S
C2708 C2709 1.391 . S
C2709 H2697 0.950 . S
C2709 C2705 1.393 . S
C2709 C2708 1.391 . S
C2710 H2700 0.950 . S
C2710 C2711 1.386 . S
C2710 C2712 1.391 . S
C2711 C2710 1.386 . S
C2711 C2715 1.393 . S
C2712 H2701 0.950 . S
C2712 C2710 1.391 . S
C2712 C2713 1.400 . S
C2713 C2707 1.491 . S
C2713 C2712 1.400 . S
C2713 C2714 1.398 . S
C2714 H2702 0.950 . S
C2714 C2713 1.398 . S
C2714 C2715 1.391 . S
C2715 H2703 0.950 . S
C2715 C2711 1.393 . S
C2715 C2714 1.391 . S
H2716 C2724 0.950 . S
H2717 C2729 0.950 . S
H2718 C2726 0.950 . S
H2719 C2728 0.950 . S
H2720 C2730 0.950 . S
H2721 C2732 0.950 . S
H2722 C2734 0.950 . S
H2723 C2735 0.950 . S
C2724 H2716 0.950 . S
C2724 C2725 1.386 . S
C2724 C2726 1.391 . S
C2725 C2724 1.386 . S
C2725 C2729 1.393 . S
C2726 H2718 0.950 . S
C2726 C2724 1.391 . S
C2726 C2727 1.400 . S
C2727 C2726 1.400 . S
C2727 C2728 1.398 . S
C2727 C2733 1.491 . S
C2728 H2719 0.950 . S
C2728 C2727 1.398 . S
C2728 C2729 1.391 . S
C2729 H2717 0.950 . S
C2729 C2725 1.393 . S
C2729 C2728 1.391 . S
C2730 H2720 0.950 . S
C2730 C2731 1.386 . S
C2730 C2732 1.391 . S
C2731 C2730 1.386 . S
C2731 C2735 1.393 . S
C2732 H2721 0.950 . S
C2732 C2730 1.391 . S
C2732 C2733 1.400 . S
C2733 C2727 1.491 . S
C2733 C2732 1.400 . S
C2733 C2734 1.398 . S
C2734 H2722 0.950 . S
C2734 C2733 1.398 . S
C2734 C2735 1.391 . S
C2735 H2723 0.950 . S
C2735 C2731 1.393 . S
C2735 C2734 1.391 . S
H2736 C2744 0.950 . S
H2737 C2749 0.950 . S
H2738 C2746 0.950 . S
H2739 C2748 0.950 . S
H2740 C2750 0.950 . S
H2741 C2752 0.950 . S
H2742 C2754 0.950 . S
H2743 C2755 0.950 . S
C2744 H2736 0.950 . S
C2744 C2745 1.386 . S
C2744 C2746 1.391 . S
C2745 C2744 1.386 . S
C2745 C2749 1.393 . S
C2746 H2738 0.950 . S
C2746 C2744 1.391 . S
C2746 C2747 1.400 . S
C2747 C2746 1.400 . S
C2747 C2748 1.398 . S
C2747 C2753 1.491 . S
C2748 H2739 0.950 . S
C2748 C2747 1.398 . S
C2748 C2749 1.391 . S
C2749 H2737 0.950 . S
C2749 C2745 1.393 . S
C2749 C2748 1.391 . S
C2750 H2740 0.950 . S
C2750 C2751 1.386 . S
C2750 C2752 1.391 . S
C2751 C2750 1.386 . S
C2751 C2755 1.393 . S
C2752 H2741 0.950 . S
C2752 C2750 1.391 . S
C2752 C2753 1.400 . S
C2753 C2747 1.491 . S
C2753 C2752 1.400 . S
C2753 C2754 1.398 . S
C2754 H2742 0.950 . S
C2754 C2753 1.398 . S
C2754 C2755 1.391 . S
C2755 H2743 0.950 . S
C2755 C2751 1.393 . S
C2755 C2754 1.391 . S
H2756 C2764 0.950 . S
H2757 C2769 0.950 . S
H2758 C2766 0.950 . S
H2759 C2768 0.950 . S
H2760 C2770 0.950 . S
H2761 C2772 0.950 . S
H2762 C2774 0.950 . S
H2763 C2775 0.950 . S
C2764 H2756 0.950 . S
C2764 C2765 1.386 . S
C2764 C2766 1.391 . S
C2765 C2764 1.386 . S
C2765 C2769 1.393 . S
C2766 H2758 0.950 . S
C2766 C2764 1.391 . S
C2766 C2767 1.400 . S
C2767 C2766 1.400 . S
C2767 C2768 1.398 . S
C2767 C2773 1.491 . S
C2768 H2759 0.950 . S
C2768 C2767 1.398 . S
C2768 C2769 1.391 . S
C2769 H2757 0.950 . S
C2769 C2765 1.393 . S
C2769 C2768 1.391 . S
C2770 H2760 0.950 . S
C2770 C2771 1.386 1_565 S
C2770 C2772 1.391 . S
C2771 C2770 1.386 1_545 S
C2771 C2775 1.393 . S
C2772 H2761 0.950 . S
C2772 C2770 1.391 . S
C2772 C2773 1.400 . S
C2773 C2767 1.491 . S
C2773 C2772 1.400 . S
C2773 C2774 1.398 . S
C2774 H2762 0.950 . S
C2774 C2773 1.398 . S
C2774 C2775 1.391 1_565 S
C2775 H2763 0.950 . S
C2775 C2771 1.393 . S
C2775 C2774 1.391 1_545 S
H2776 C2784 0.950 . S
H2777 C2789 0.950 . S
H2778 C2786 0.950 . S
H2779 C2788 0.950 . S
H2780 C2790 0.950 . S
H2781 C2792 0.950 . S
H2782 C2794 0.950 . S
H2783 C2795 0.950 . S
C2784 H2776 0.950 . S
C2784 C2785 1.386 . S
C2784 C2786 1.391 . S
C2785 C2784 1.386 . S
C2785 C2789 1.393 . S
C2786 H2778 0.950 . S
C2786 C2784 1.391 . S
C2786 C2787 1.400 . S
C2787 C2786 1.400 . S
C2787 C2788 1.398 . S
C2787 C2793 1.491 . S
C2788 H2779 0.950 . S
C2788 C2787 1.398 . S
C2788 C2789 1.391 . S
C2789 H2777 0.950 . S
C2789 C2785 1.393 . S
C2789 C2788 1.391 . S
C2790 H2780 0.950 . S
C2790 C2791 1.386 . S
C2790 C2792 1.391 . S
C2791 C2790 1.386 . S
C2791 C2795 1.393 . S
C2792 H2781 0.950 . S
C2792 C2790 1.391 . S
C2792 C2793 1.400 . S
C2793 C2787 1.491 . S
C2793 C2792 1.400 . S
C2793 C2794 1.398 . S
C2794 H2782 0.950 . S
C2794 C2793 1.398 . S
C2794 C2795 1.391 . S
C2795 H2783 0.950 . S
C2795 C2791 1.393 . S
C2795 C2794 1.391 . S
H2796 C2804 0.950 . S
H2797 C2809 0.950 . S
H2798 C2806 0.950 . S
H2799 C2808 0.950 . S
H2800 C2810 0.950 . S
H2801 C2812 0.950 . S
H2802 C2814 0.950 . S
H2803 C2815 0.950 . S
C2804 H2796 0.950 . S
C2804 C2805 1.386 . S
C2804 C2806 1.391 . S
C2805 C2804 1.386 . S
C2805 C2809 1.393 . S
C2806 H2798 0.950 . S
C2806 C2804 1.391 . S
C2806 C2807 1.400 . S
C2807 C2806 1.400 . S
C2807 C2808 1.398 . S
C2807 C2813 1.491 . S
C2808 H2799 0.950 . S
C2808 C2807 1.398 . S
C2808 C2809 1.391 . S
C2809 H2797 0.950 . S
C2809 C2805 1.393 . S
C2809 C2808 1.391 . S
C2810 H2800 0.950 . S
C2810 C2811 1.386 . S
C2810 C2812 1.391 . S
C2811 C2810 1.386 . S
C2811 C2815 1.393 . S
C2812 H2801 0.950 . S
C2812 C2810 1.391 . S
C2812 C2813 1.400 . S
C2813 C2807 1.491 . S
C2813 C2812 1.400 . S
C2813 C2814 1.398 . S
C2814 H2802 0.950 . S
C2814 C2813 1.398 . S
C2814 C2815 1.391 . S
C2815 H2803 0.950 . S
C2815 C2811 1.393 . S
C2815 C2814 1.391 . S
H2816 C2824 0.950 . S
H2817 C2829 0.950 . S
H2818 C2826 0.950 . S
H2819 C2828 0.950 . S
H2820 C2830 0.950 . S
H2821 C2832 0.950 . S
H2822 C2834 0.950 . S
H2823 C2835 0.950 . S
C2824 H2816 0.950 . S
C2824 C2825 1.386 . S
C2824 C2826 1.391 . S
C2825 C2824 1.386 . S
C2825 C2829 1.393 . S
C2826 H2818 0.950 . S
C2826 C2824 1.391 . S
C2826 C2827 1.400 . S
C2827 C2826 1.400 . S
C2827 C2828 1.398 . S
C2827 C2833 1.491 . S
C2828 H2819 0.950 . S
C2828 C2827 1.398 . S
C2828 C2829 1.391 . S
C2829 H2817 0.950 . S
C2829 C2825 1.393 . S
C2829 C2828 1.391 . S
C2830 H2820 0.950 . S
C2830 C2831 1.386 . S
C2830 C2832 1.391 . S
C2831 C2830 1.386 . S
C2831 C2835 1.393 . S
C2832 H2821 0.950 . S
C2832 C2830 1.391 . S
C2832 C2833 1.400 . S
C2833 C2827 1.491 . S
C2833 C2832 1.400 . S
C2833 C2834 1.398 . S
C2834 H2822 0.950 . S
C2834 C2833 1.398 . S
C2834 C2835 1.391 . S
C2835 H2823 0.950 . S
C2835 C2831 1.393 . S
C2835 C2834 1.391 . S
H2836 C2844 0.950 . S
H2837 C2849 0.950 . S
H2838 C2846 0.950 . S
H2839 C2848 0.950 . S
H2840 C2850 0.950 . S
H2841 C2852 0.950 . S
H2842 C2854 0.950 . S
H2843 C2855 0.950 . S
C2844 H2836 0.950 . S
C2844 C2845 1.386 . S
C2844 C2846 1.391 . S
C2845 C2844 1.386 . S
C2845 C2849 1.393 . S
C2846 H2838 0.950 . S
C2846 C2844 1.391 . S
C2846 C2847 1.400 . S
C2847 C2846 1.400 . S
C2847 C2848 1.398 . S
C2847 C2853 1.491 . S
C2848 H2839 0.950 . S
C2848 C2847 1.398 . S
C2848 C2849 1.391 . S
C2849 H2837 0.950 . S
C2849 C2845 1.393 . S
C2849 C2848 1.391 . S
C2850 H2840 0.950 . S
C2850 C2851 1.386 . S
C2850 C2852 1.391 . S
C2851 C2850 1.386 . S
C2851 C2855 1.393 . S
C2852 H2841 0.950 . S
C2852 C2850 1.391 . S
C2852 C2853 1.400 . S
C2853 C2847 1.491 . S
C2853 C2852 1.400 . S
C2853 C2854 1.398 . S
C2854 H2842 0.950 . S
C2854 C2853 1.398 . S
C2854 C2855 1.391 . S
C2855 H2843 0.950 . S
C2855 C2851 1.393 . S
C2855 C2854 1.391 . S
H2856 C2864 0.950 . S
H2857 C2869 0.950 . S
H2858 C2866 0.950 . S
H2859 C2868 0.950 . S
H2860 C2870 0.950 . S
H2861 C2872 0.950 . S
H2862 C2874 0.950 . S
H2863 C2875 0.950 . S
C2864 H2856 0.950 . S
C2864 C2865 1.386 . S
C2864 C2866 1.391 . S
C2865 C2864 1.386 . S
C2865 C2869 1.393 . S
C2866 H2858 0.950 . S
C2866 C2864 1.391 . S
C2866 C2867 1.400 . S
C2867 C2866 1.400 . S
C2867 C2868 1.398 . S
C2867 C2873 1.491 . S
C2868 H2859 0.950 . S
C2868 C2867 1.398 . S
C2868 C2869 1.391 . S
C2869 H2857 0.950 . S
C2869 C2865 1.393 . S
C2869 C2868 1.391 . S
C2870 H2860 0.950 . S
C2870 C2871 1.386 . S
C2870 C2872 1.391 . S
C2871 C2870 1.386 . S
C2871 C2875 1.393 . S
C2872 H2861 0.950 . S
C2872 C2870 1.391 . S
C2872 C2873 1.400 . S
C2873 C2867 1.491 . S
C2873 C2872 1.400 . S
C2873 C2874 1.398 . S
C2874 H2862 0.950 . S
C2874 C2873 1.398 . S
C2874 C2875 1.391 . S
C2875 H2863 0.950 . S
C2875 C2871 1.393 . S
C2875 C2874 1.391 . S
H2876 C2884 0.950 . S
H2877 C2889 0.950 . S
H2878 C2886 0.950 . S
H2879 C2888 0.950 . S
H2880 C2890 0.950 . S
H2881 C2892 0.950 . S
H2882 C2894 0.950 . S
H2883 C2895 0.950 . S
C2884 H2876 0.950 . S
C2884 C2885 1.386 . S
C2884 C2886 1.391 . S
C2885 C2884 1.386 . S
C2885 C2889 1.393 . S
C2886 H2878 0.950 . S
C2886 C2884 1.391 . S
C2886 C2887 1.400 . S
C2887 C2886 1.400 . S
C2887 C2888 1.398 . S
C2887 C2893 1.491 . S
C2888 H2879 0.950 . S
C2888 C2887 1.398 . S
C2888 C2889 1.391 . S
C2889 H2877 0.950 . S
C2889 C2885 1.393 . S
C2889 C2888 1.391 . S
C2890 H2880 0.950 . S
C2890 C2891 1.386 . S
C2890 C2892 1.391 . S
C2891 C2890 1.386 . S
C2891 C2895 1.393 . S
C2892 H2881 0.950 . S
C2892 C2890 1.391 . S
C2892 C2893 1.400 . S
C2893 C2887 1.491 . S
C2893 C2892 1.400 . S
C2893 C2894 1.398 . S
C2894 H2882 0.950 . S
C2894 C2893 1.398 . S
C2894 C2895 1.391 . S
C2895 H2883 0.950 . S
C2895 C2891 1.393 . S
C2895 C2894 1.391 . S
C985 C105 2.245 . S
C991 C349 2.204 . S
C1005 C65 2.105 . S
C1011 C400 2.076 . S
C1025 C73 1.611 . S
C1031 C429 1.620 . S
C1051 C473 1.471 . S
C1045 C92 1.504 . S
C1065 C17 1.424 . S
C1071 C513 1.370 . S
C1091 C549 1.614 . S
C1085 C37 1.613 . S
C1111 C599 1.883 . S
C1105 C49 1.753 . S
C1125 C8 2.312 . S
C1131 C629 2.278 . S
C1151 C359 1.917 . S
C1145 C231 1.938 . S
C1165 C241 0.639 . S
C1171 C402 0.684 . S
C1191 C439 1.255 . S
C1185 C273 1.224 . S
C1211 C469 1.413 . S
C1205 C171 1.410 . S
C1225 C227 1.452 . S
C1231 C509 1.441 . S
C1251 C559 0.899 . S
C1245 C245 0.911 . S
C1271 C593 0.816 . S
C1265 C269 0.851 . S
C1291 C639 1.899 . S
C1285 C175 1.912 . S
C1311 C353 1.151 . S
C1305 C162 1.199 1_554 S
C1325 C289 1.729 . S
C1331 C679 1.727 . S
C1351 C713 1.442 . S
C1345 C330 1.482 . S
C1371 C749 0.871 . S
C1365 C317 0.888 . S
C1385 C120 1.402 . S
C1391 C633 1.335 . S
C1405 C134 1.556 . S
C1411 C433 1.500 . S
C1425 C331 1.615 . S
C1431 C799 1.611 . S
C1451 C818 0.230 . S
C1445 C303 0.229 . S
C1471 C360 2.223 . S
C1465 C59 2.219 . S
C1491 C829 2.132 . S
C1485 C107 2.136 . S
C1505 C91 1.663 . S
C1511 C440 1.668 . S
C1525 C78 1.500 . S
C1531 C802 1.472 . S
C1551 C522 1.413 . S
C1545 C7 1.400 . S
C1565 C51 1.653 . S
C1571 C720 1.663 . S
C1591 C578 1.918 1_566 S
C1585 C31 1.919 . S
C1611 C880 2.302 . S
C1605 C22 2.318 . S
C1631 C338 1.956 . S
C1625 C143 1.977 . S
C1651 C833 0.672 . S
C1645 C315 0.665 . S
C1665 C115 1.294 . S
C1671 C418 1.278 . S
C1685 C287 1.447 . S
C1691 C800 1.455 . S
C1705 C147 1.483 . S
C1711 C520 1.491 . S
C1731 C698 0.935 . S
C1725 C311 0.952 . S
C1745 C119 0.837 1_545 S
C1751 C602 0.837 . S
C1765 C283 1.951 . S
C1771 C858 1.927 . S
C1785 C190 1.189 . S
C1791 C362 1.159 . S
C1805 C177 1.765 . S
C1811 C658 1.753 . S
C1825 C260 1.476 . S
C1831 C562 1.455 . S
C1845 C247 0.917 . S
C1851 C760 0.925 . S
C1871 C882 1.367 . S
C1865 C274 1.399 . S
C1885 C218 1.538 . S
C1891 C442 1.500 . S
C1911 C458 1.648 . S
C1905 C261 1.652 . S
C1931 C399 0.259 . S
C1925 C205 0.259 . S
C1945 C77 2.243 . S
C1951 C909 2.195 . S
C1971 C840 2.076 . S
C1965 C93 2.103 . S
C1985 C101 1.618 . S
C1991 C949 1.613 . S
C2005 C64 1.488 1_655 S
C2011 C793 1.448 . S
C2025 C45 1.426 . S
C2031 C673 1.382 . S
C2051 C709 1.623 . S
C2045 C9 1.601 . S
C2071 C759 1.880 . S
C2065 C21 1.762 . S
C2091 C869 2.269 . S
C2085 C36 2.315 . S
C2111 C919 1.919 . S
C2105 C259 1.935 . S
C2125 C185 0.636 . S
C2131 C842 0.680 . S
C2151 C959 1.255 . S
C2145 C203 1.199 . S
C2171 C789 1.413 . S
C2165 C213 1.411 . S
C2191 C669 1.432 . S
C2185 C255 1.456 . S
C2205 C189 0.913 . S
C2211 C719 0.899 . S
C2231 C753 0.819 . S
C2225 C199 0.851 . S
C2245 C217 1.907 . S
C2251 C879 1.908 . S
C2271 C913 1.193 . S
C2265 C316 1.237 . S
C2285 C135 1.731 . S
C2291 C519 1.724 . S
C2311 C553 1.435 . S
C2305 C148 1.482 1_565 S
C2331 C589 0.879 . S
C2325 C163 0.884 . S
C2351 C873 1.336 . S
C2345 C302 1.403 . S
C2365 C288 1.556 . S
C2371 C953 1.500 . S
C2391 C479 1.613 . S
C2385 C149 1.614 . S
C2411 C378 0.232 . S
C2405 C121 0.221 . S
C2425 C87 2.226 . S
C2431 C920 2.231 . S
C2451 C389 2.131 . S
C2445 C79 2.142 . S
C2465 C63 1.671 . S
C2471 C960 1.680 . S
C2485 C106 1.517 . S
C2491 C482 1.489 . S
C2505 C35 1.378 . S
C2511 C682 1.397 . S
C2531 C560 1.662 . S
C2525 C23 1.654 . S
C2545 C3 1.914 . S
C2551 C738 1.922 . S
C2565 C50 2.307 . S
C2571 C640 2.297 . S
C2591 C898 1.958 . S
C2585 C325 1.979 . S
C2605 C161 0.630 . S
C2611 C393 0.631 . S
C2631 C938 1.247 1_655 S
C2625 C297 1.293 . S
C2645 C133 1.431 . S
C2651 C480 1.449 . S
C2665 C329 1.469 . S
C2671 C680 1.499 . S
C2691 C538 0.956 . S
C2685 C157 0.955 . S
C2705 C301 0.859 . S
C2711 C762 0.869 . S
C2731 C618 1.927 . S
C2725 C129 1.951 . S
C2751 C922 1.142 . S
C2745 C246 1.177 . S
C2771 C498 1.753 . S
C2765 C219 1.765 . S
C2785 C232 1.466 . S
C2791 C722 1.434 . S
C2811 C600 0.926 . S
C2805 C191 0.913 . S
C2825 C204 1.388 . S
C2831 C642 1.351 . S
C2845 C176 1.540 . S
C2851 C962 1.502 . S
C2871 C778 1.646 . S
C2865 C233 1.653 . S
C2891 C839 0.291 . S
C2885 C275 0.289 . S
