# Generated by pormake.
# Topology gar, (4,6)-cn, num edge types: 1
# Building blocks:
#     Node 0, Type 0, BuildingBlock: QUQFOY_clean_sbu_3, # of connection points: 4
#     Node 1, Type 0, BuildingBlock: QUQFOY_clean_sbu_3, # of connection points: 4
#     Node 2, Type 0, BuildingBlock: QUQFOY_clean_sbu_3, # of connection points: 4
#     Node 3, Type 0, BuildingBlock: QUQFOY_clean_sbu_3, # of connection points: 4
#     Node 4, Type 0, BuildingBlock: QUQFOY_clean_sbu_3, # of connection points: 4
#     Node 5, Type 0, BuildingBlock: QUQFOY_clean_sbu_3, # of connection points: 4
#     Node 6, Type 0, BuildingBlock: QUQFOY_clean_sbu_3, # of connection points: 4
#     Node 7, Type 0, BuildingBlock: QUQFOY_clean_sbu_3, # of connection points: 4
#     Node 8, Type 0, BuildingBlock: QUQFOY_clean_sbu_3, # of connection points: 4
#     Node 9, Type 0, BuildingBlock: QUQFOY_clean_sbu_3, # of connection points: 4
#     Node 10, Type 0, BuildingBlock: QUQFOY_clean_sbu_3, # of connection points: 4
#     Node 11, Type 0, BuildingBlock: QUQFOY_clean_sbu_3, # of connection points: 4
#     Node 12, Type 0, BuildingBlock: QUQFOY_clean_sbu_3, # of connection points: 4
#     Node 13, Type 0, BuildingBlock: QUQFOY_clean_sbu_3, # of connection points: 4
#     Node 14, Type 0, BuildingBlock: QUQFOY_clean_sbu_3, # of connection points: 4
#     Node 15, Type 0, BuildingBlock: QUQFOY_clean_sbu_3, # of connection points: 4
#     Node 16, Type 0, BuildingBlock: QUQFOY_clean_sbu_3, # of connection points: 4
#     Node 17, Type 0, BuildingBlock: QUQFOY_clean_sbu_3, # of connection points: 4
#     Node 18, Type 0, BuildingBlock: QUQFOY_clean_sbu_3, # of connection points: 4
#     Node 19, Type 0, BuildingBlock: QUQFOY_clean_sbu_3, # of connection points: 4
#     Node 20, Type 0, BuildingBlock: QUQFOY_clean_sbu_3, # of connection points: 4
#     Node 21, Type 0, BuildingBlock: QUQFOY_clean_sbu_3, # of connection points: 4
#     Node 22, Type 0, BuildingBlock: QUQFOY_clean_sbu_3, # of connection points: 4
#     Node 23, Type 0, BuildingBlock: QUQFOY_clean_sbu_3, # of connection points: 4
#     Node 24, Type 1, BuildingBlock: BETDAH_clean_sbu_0, # of connection points: 6
#     Node 25, Type 1, BuildingBlock: BETDAH_clean_sbu_0, # of connection points: 6
#     Node 26, Type 1, BuildingBlock: BETDAH_clean_sbu_0, # of connection points: 6
#     Node 27, Type 1, BuildingBlock: BETDAH_clean_sbu_0, # of connection points: 6
#     Node 28, Type 1, BuildingBlock: BETDAH_clean_sbu_0, # of connection points: 6
#     Node 29, Type 1, BuildingBlock: BETDAH_clean_sbu_0, # of connection points: 6
#     Node 30, Type 1, BuildingBlock: BETDAH_clean_sbu_0, # of connection points: 6
#     Node 31, Type 1, BuildingBlock: BETDAH_clean_sbu_0, # of connection points: 6
#     Node 32, Type 1, BuildingBlock: BETDAH_clean_sbu_0, # of connection points: 6
#     Node 33, Type 1, BuildingBlock: BETDAH_clean_sbu_0, # of connection points: 6
#     Node 34, Type 1, BuildingBlock: BETDAH_clean_sbu_0, # of connection points: 6
#     Node 35, Type 1, BuildingBlock: BETDAH_clean_sbu_0, # of connection points: 6
#     Node 36, Type 1, BuildingBlock: BETDAH_clean_sbu_0, # of connection points: 6
#     Node 37, Type 1, BuildingBlock: BETDAH_clean_sbu_0, # of connection points: 6
#     Node 38, Type 1, BuildingBlock: BETDAH_clean_sbu_0, # of connection points: 6
#     Node 39, Type 1, BuildingBlock: BETDAH_clean_sbu_0, # of connection points: 6
#     Edge 40, Type (0, 1), BuildingBlock: UVAHIK_clean_linker_0, # of connection points: 2
#     Edge 41, Type (0, 1), BuildingBlock: UVAHIK_clean_linker_0, # of connection points: 2
#     Edge 42, Type (0, 1), BuildingBlock: UVAHIK_clean_linker_0, # of connection points: 2
#     Edge 43, Type (0, 1), BuildingBlock: UVAHIK_clean_linker_0, # of connection points: 2
#     Edge 44, Type (0, 1), BuildingBlock: UVAHIK_clean_linker_0, # of connection points: 2
#     Edge 45, Type (0, 1), BuildingBlock: UVAHIK_clean_linker_0, # of connection points: 2
#     Edge 46, Type (0, 1), BuildingBlock: UVAHIK_clean_linker_0, # of connection points: 2
#     Edge 47, Type (0, 1), BuildingBlock: UVAHIK_clean_linker_0, # of connection points: 2
#     Edge 48, Type (0, 1), BuildingBlock: UVAHIK_clean_linker_0, # of connection points: 2
#     Edge 49, Type (0, 1), BuildingBlock: UVAHIK_clean_linker_0, # of connection points: 2
#     Edge 50, Type (0, 1), BuildingBlock: UVAHIK_clean_linker_0, # of connection points: 2
#     Edge 51, Type (0, 1), BuildingBlock: UVAHIK_clean_linker_0, # of connection points: 2
#     Edge 52, Type (0, 1), BuildingBlock: UVAHIK_clean_linker_0, # of connection points: 2
#     Edge 53, Type (0, 1), BuildingBlock: UVAHIK_clean_linker_0, # of connection points: 2
#     Edge 54, Type (0, 1), BuildingBlock: UVAHIK_clean_linker_0, # of connection points: 2
#     Edge 55, Type (0, 1), BuildingBlock: UVAHIK_clean_linker_0, # of connection points: 2
#     Edge 56, Type (0, 1), BuildingBlock: UVAHIK_clean_linker_0, # of connection points: 2
#     Edge 57, Type (0, 1), BuildingBlock: UVAHIK_clean_linker_0, # of connection points: 2
#     Edge 58, Type (0, 1), BuildingBlock: UVAHIK_clean_linker_0, # of connection points: 2
#     Edge 59, Type (0, 1), BuildingBlock: UVAHIK_clean_linker_0, # of connection points: 2
#     Edge 60, Type (0, 1), BuildingBlock: UVAHIK_clean_linker_0, # of connection points: 2
#     Edge 61, Type (0, 1), BuildingBlock: UVAHIK_clean_linker_0, # of connection points: 2
#     Edge 62, Type (0, 1), BuildingBlock: UVAHIK_clean_linker_0, # of connection points: 2
#     Edge 63, Type (0, 1), BuildingBlock: UVAHIK_clean_linker_0, # of connection points: 2
#     Edge 64, Type (0, 1), BuildingBlock: UVAHIK_clean_linker_0, # of connection points: 2
#     Edge 65, Type (0, 1), BuildingBlock: UVAHIK_clean_linker_0, # of connection points: 2
#     Edge 66, Type (0, 1), BuildingBlock: UVAHIK_clean_linker_0, # of connection points: 2
#     Edge 67, Type (0, 1), BuildingBlock: UVAHIK_clean_linker_0, # of connection points: 2
#     Edge 68, Type (0, 1), BuildingBlock: UVAHIK_clean_linker_0, # of connection points: 2
#     Edge 69, Type (0, 1), BuildingBlock: UVAHIK_clean_linker_0, # of connection points: 2
#     Edge 70, Type (0, 1), BuildingBlock: UVAHIK_clean_linker_0, # of connection points: 2
#     Edge 71, Type (0, 1), BuildingBlock: UVAHIK_clean_linker_0, # of connection points: 2
#     Edge 72, Type (0, 1), BuildingBlock: UVAHIK_clean_linker_0, # of connection points: 2
#     Edge 73, Type (0, 1), BuildingBlock: UVAHIK_clean_linker_0, # of connection points: 2
#     Edge 74, Type (0, 1), BuildingBlock: UVAHIK_clean_linker_0, # of connection points: 2
#     Edge 75, Type (0, 1), BuildingBlock: UVAHIK_clean_linker_0, # of connection points: 2
#     Edge 76, Type (0, 1), BuildingBlock: UVAHIK_clean_linker_0, # of connection points: 2
#     Edge 77, Type (0, 1), BuildingBlock: UVAHIK_clean_linker_0, # of connection points: 2
#     Edge 78, Type (0, 1), BuildingBlock: UVAHIK_clean_linker_0, # of connection points: 2
#     Edge 79, Type (0, 1), BuildingBlock: UVAHIK_clean_linker_0, # of connection points: 2
#     Edge 80, Type (0, 1), BuildingBlock: UVAHIK_clean_linker_0, # of connection points: 2
#     Edge 81, Type (0, 1), BuildingBlock: UVAHIK_clean_linker_0, # of connection points: 2
#     Edge 82, Type (0, 1), BuildingBlock: UVAHIK_clean_linker_0, # of connection points: 2
#     Edge 83, Type (0, 1), BuildingBlock: UVAHIK_clean_linker_0, # of connection points: 2
#     Edge 84, Type (0, 1), BuildingBlock: UVAHIK_clean_linker_0, # of connection points: 2
#     Edge 85, Type (0, 1), BuildingBlock: UVAHIK_clean_linker_0, # of connection points: 2
#     Edge 86, Type (0, 1), BuildingBlock: UVAHIK_clean_linker_0, # of connection points: 2
#     Edge 87, Type (0, 1), BuildingBlock: UVAHIK_clean_linker_0, # of connection points: 2
#     Edge 88, Type (0, 1), BuildingBlock: UVAHIK_clean_linker_0, # of connection points: 2
#     Edge 89, Type (0, 1), BuildingBlock: UVAHIK_clean_linker_0, # of connection points: 2
#     Edge 90, Type (0, 1), BuildingBlock: UVAHIK_clean_linker_0, # of connection points: 2
#     Edge 91, Type (0, 1), BuildingBlock: UVAHIK_clean_linker_0, # of connection points: 2
#     Edge 92, Type (0, 1), BuildingBlock: UVAHIK_clean_linker_0, # of connection points: 2
#     Edge 93, Type (0, 1), BuildingBlock: UVAHIK_clean_linker_0, # of connection points: 2
#     Edge 94, Type (0, 1), BuildingBlock: UVAHIK_clean_linker_0, # of connection points: 2
#     Edge 95, Type (0, 1), BuildingBlock: UVAHIK_clean_linker_0, # of connection points: 2
#     Edge 96, Type (0, 1), BuildingBlock: UVAHIK_clean_linker_0, # of connection points: 2
#     Edge 97, Type (0, 1), BuildingBlock: UVAHIK_clean_linker_0, # of connection points: 2
#     Edge 98, Type (0, 1), BuildingBlock: UVAHIK_clean_linker_0, # of connection points: 2
#     Edge 99, Type (0, 1), BuildingBlock: UVAHIK_clean_linker_0, # of connection points: 2
#     Edge 100, Type (0, 1), BuildingBlock: UVAHIK_clean_linker_0, # of connection points: 2
#     Edge 101, Type (0, 1), BuildingBlock: UVAHIK_clean_linker_0, # of connection points: 2
#     Edge 102, Type (0, 1), BuildingBlock: UVAHIK_clean_linker_0, # of connection points: 2
#     Edge 103, Type (0, 1), BuildingBlock: UVAHIK_clean_linker_0, # of connection points: 2
#     Edge 104, Type (0, 1), BuildingBlock: UVAHIK_clean_linker_0, # of connection points: 2
#     Edge 105, Type (0, 1), BuildingBlock: UVAHIK_clean_linker_0, # of connection points: 2
#     Edge 106, Type (0, 1), BuildingBlock: UVAHIK_clean_linker_0, # of connection points: 2
#     Edge 107, Type (0, 1), BuildingBlock: UVAHIK_clean_linker_0, # of connection points: 2
#     Edge 108, Type (0, 1), BuildingBlock: UVAHIK_clean_linker_0, # of connection points: 2
#     Edge 109, Type (0, 1), BuildingBlock: UVAHIK_clean_linker_0, # of connection points: 2
#     Edge 110, Type (0, 1), BuildingBlock: UVAHIK_clean_linker_0, # of connection points: 2
#     Edge 111, Type (0, 1), BuildingBlock: UVAHIK_clean_linker_0, # of connection points: 2
#     Edge 112, Type (0, 1), BuildingBlock: UVAHIK_clean_linker_0, # of connection points: 2
#     Edge 113, Type (0, 1), BuildingBlock: UVAHIK_clean_linker_0, # of connection points: 2
#     Edge 114, Type (0, 1), BuildingBlock: UVAHIK_clean_linker_0, # of connection points: 2
#     Edge 115, Type (0, 1), BuildingBlock: UVAHIK_clean_linker_0, # of connection points: 2
#     Edge 116, Type (0, 1), BuildingBlock: UVAHIK_clean_linker_0, # of connection points: 2
#     Edge 117, Type (0, 1), BuildingBlock: UVAHIK_clean_linker_0, # of connection points: 2
#     Edge 118, Type (0, 1), BuildingBlock: UVAHIK_clean_linker_0, # of connection points: 2
#     Edge 119, Type (0, 1), BuildingBlock: UVAHIK_clean_linker_0, # of connection points: 2
#     Edge 120, Type (0, 1), BuildingBlock: UVAHIK_clean_linker_0, # of connection points: 2
#     Edge 121, Type (0, 1), BuildingBlock: UVAHIK_clean_linker_0, # of connection points: 2
#     Edge 122, Type (0, 1), BuildingBlock: UVAHIK_clean_linker_0, # of connection points: 2
#     Edge 123, Type (0, 1), BuildingBlock: UVAHIK_clean_linker_0, # of connection points: 2
#     Edge 124, Type (0, 1), BuildingBlock: UVAHIK_clean_linker_0, # of connection points: 2
#     Edge 125, Type (0, 1), BuildingBlock: UVAHIK_clean_linker_0, # of connection points: 2
#     Edge 126, Type (0, 1), BuildingBlock: UVAHIK_clean_linker_0, # of connection points: 2
#     Edge 127, Type (0, 1), BuildingBlock: UVAHIK_clean_linker_0, # of connection points: 2
#     Edge 128, Type (0, 1), BuildingBlock: UVAHIK_clean_linker_0, # of connection points: 2
#     Edge 129, Type (0, 1), BuildingBlock: UVAHIK_clean_linker_0, # of connection points: 2
#     Edge 130, Type (0, 1), BuildingBlock: UVAHIK_clean_linker_0, # of connection points: 2
#     Edge 131, Type (0, 1), BuildingBlock: UVAHIK_clean_linker_0, # of connection points: 2
#     Edge 132, Type (0, 1), BuildingBlock: UVAHIK_clean_linker_0, # of connection points: 2
#     Edge 133, Type (0, 1), BuildingBlock: UVAHIK_clean_linker_0, # of connection points: 2
#     Edge 134, Type (0, 1), BuildingBlock: UVAHIK_clean_linker_0, # of connection points: 2
#     Edge 135, Type (0, 1), BuildingBlock: UVAHIK_clean_linker_0, # of connection points: 2
# Relax obj value: 0.161
# Max RMSD: 0.293
# Mean RMSD: 0.149
data_MOF--net-gar--node1-QUQFOY_clean_sbu_3--node2-BETDAH_clean_sbu_0--edge1-UVAHIK_clean_linker_0
_symmetry_space_group_name_H-M    P1
_symmetry_Int_Tables_number       1
_symmetry_cell_setting            triclinic
loop_
_symmetry_equiv_pos_as_xyz
'x, y, z'
_cell_length_a     78.518973
_cell_length_b     73.092769
_cell_length_c     73.006184
_cell_angle_alpha  98.719759
_cell_angle_beta   94.617796
_cell_angle_gamma 102.34416
loop_
_atom_site_label
_atom_site_type_symbol
_atom_site_fract_x
_atom_site_fract_y
_atom_site_fract_z
_atom_type_partial_charge
C0 C 0.06126 0.3214 0.33594 0.0
O1 O 0.07174 0.33384 0.3293 0.0
Cd2 Cd 0.10153 0.34825 0.34089 0.0
O3 O 0.06612 0.31498 0.35033 0.0
Cd4 Cd 0.09287 0.31785 0.37237 0.0
C5 C 0.09631 0.36555 0.38639 0.0
O6 O 0.10986 0.32066 0.34751 0.0
O7 O 0.12531 0.32017 0.37294 0.0
O8 O 0.08038 0.28464 0.37399 0.0
C9 C 0.12482 0.32203 0.35594 0.0
O10 O 0.10003 0.3686 0.37028 0.0
C11 C 0.08359 0.28675 0.39162 0.0
O12 O 0.09285 0.34879 0.39014 0.0
O13 O 0.09134 0.30327 0.40018 0.0
C14 C 0.96357 0.72743 0.67684 0.0
O15 O 0.97433 0.72002 0.68542 0.0
Cd16 Cd 0.00494 0.72524 0.68245 0.0
O17 O 0.96863 0.73842 0.66535 0.0
Cd18 Cd 0.99615 0.75055 0.65236 0.0
C19 C 0.00093 0.7057 0.63666 0.0
O20 O 0.01353 0.75881 0.68245 0.0
O21 O 0.0283 0.76135 0.65899 0.0
O22 O 0.98848 0.78066 0.64819 0.0
C23 C 0.02815 0.76421 0.67654 0.0
O24 O 0.00624 0.70453 0.65329 0.0
C25 C 0.99039 0.77871 0.63093 0.0
O26 O 0.99587 0.72032 0.63312 0.0
O27 O 0.99436 0.76349 0.62371 0.0
C28 C 0.55239 0.80184 0.81502 0.0
O29 O 0.56229 0.81549 0.80932 0.0
Cd30 Cd 0.5891 0.83563 0.82521 0.0
O31 O 0.55619 0.79742 0.83086 0.0
Cd32 Cd 0.57935 0.80724 0.85804 0.0
C33 C 0.5727 0.85266 0.8651 0.0
O34 O 0.60154 0.81325 0.83835 0.0
O35 O 0.61187 0.81729 0.8672 0.0
O36 O 0.57256 0.77399 0.86202 0.0
C37 C 0.61473 0.81848 0.85054 0.0
O38 O 0.57945 0.85571 0.85023 0.0
C39 C 0.57142 0.77766 0.87941 0.0
O40 O 0.57079 0.8365 0.87021 0.0
O41 O 0.57414 0.79509 0.88678 0.0
C42 C 0.47615 0.23961 0.19227 0.0
O43 O 0.48959 0.23708 0.20155 0.0
Cd44 Cd 0.51913 0.24805 0.19568 0.0
O45 O 0.47772 0.24871 0.17866 0.0
Cd46 Cd 0.50181 0.26485 0.16254 0.0
C47 C 0.51627 0.22429 0.15115 0.0
O48 O 0.52077 0.2801 0.19096 0.0
O49 O 0.53257 0.28231 0.16555 0.0
O50 O 0.48702 0.29003 0.15683 0.0
C51 C 0.53383 0.28711 0.18311 0.0
O52 O 0.52241 0.22613 0.16816 0.0
C53 C 0.4878 0.28742 0.13935 0.0
O54 O 0.50776 0.23591 0.14581 0.0
O55 O 0.49427 0.27371 0.13263 0.0
C56 C 0.04594 0.80928 0.15919 0.0
O57 O 0.05643 0.80227 0.16863 0.0
Cd58 Cd 0.08387 0.7972 0.15963 0.0
O59 O 0.05005 0.81503 0.14414 0.0
Cd60 Cd 0.07562 0.8179 0.12552 0.0
C61 C 0.06932 0.7702 0.11585 0.0
O62 O 0.09926 0.82583 0.15116 0.0
O63 O 0.10687 0.81687 0.12421 0.0
O64 O 0.07277 0.84992 0.12267 0.0
C65 C 0.11144 0.82308 0.14148 0.0
O66 O 0.07644 0.7718 0.1325 0.0
C67 C 0.07208 0.84768 0.10503 0.0
O68 O 0.066 0.7846 0.10963 0.0
O69 O 0.07291 0.83138 0.09666 0.0
C70 C 0.47484 0.77454 0.37081 0.0
O71 O 0.48709 0.78606 0.36532 0.0
Cd72 Cd 0.518 0.7907 0.37365 0.0
O73 O 0.47827 0.7643 0.38269 0.0
Cd74 Cd 0.50601 0.76239 0.40126 0.0
C75 C 0.51845 0.80989 0.41899 0.0
O76 O 0.52358 0.76019 0.3752 0.0
O77 O 0.53796 0.76445 0.40243 0.0
O78 O 0.49479 0.7285 0.40171 0.0
C79 C 0.53794 0.76107 0.38488 0.0
O80 O 0.52444 0.81197 0.40356 0.0
C81 C 0.49752 0.72987 0.4193 0.0
O82 O 0.5097 0.79377 0.42138 0.0
O83 O 0.50345 0.74651 0.4286 0.0
C84 C 0.55099 0.3186 0.6621 0.0
O85 O 0.5617 0.31266 0.67237 0.0
Cd86 Cd 0.58735 0.30372 0.66227 0.0
O87 O 0.55431 0.32162 0.64585 0.0
Cd88 Cd 0.57856 0.32079 0.6256 0.0
C89 C 0.56905 0.27292 0.6211 0.0
O90 O 0.60355 0.32921 0.64956 0.0
O91 O 0.60882 0.31677 0.62255 0.0
O92 O 0.57979 0.35305 0.62016 0.0
C93 C 0.61466 0.3243 0.63933 0.0
O94 O 0.57605 0.2759 0.63796 0.0
C95 C 0.5751 0.3487 0.60272 0.0
O96 O 0.56753 0.28677 0.61284 0.0
O97 O 0.57196 0.33115 0.59564 0.0
C98 C 0.97247 0.27234 0.87099 0.0
O99 O 0.98401 0.28337 0.86406 0.0
Cd100 Cd 0.01514 0.28883 0.8705 0.0
O101 O 0.97687 0.26296 0.88324 0.0
Cd102 Cd 0.00563 0.26167 0.90023 0.0
C103 C 0.018 0.30938 0.91619 0.0
O104 O 0.02213 0.25919 0.87332 0.0
O105 O 0.0376 0.26564 0.90016 0.0
O106 O 0.99587 0.22777 0.90135 0.0
C107 C 0.03701 0.26158 0.88258 0.0
O108 O 0.02218 0.31087 0.8999 0.0
C109 C 0.99883 0.22951 0.91896 0.0
O110 O 0.01034 0.29336 0.91989 0.0
O111 O 0.00434 0.24632 0.92799 0.0
C112 C 0.45985 0.04781 0.31523 0.0
O113 O 0.4687 0.04188 0.30273 0.0
Cd114 Cd 0.46087 0.03686 0.2698 0.0
O115 O 0.44499 0.05138 0.31087 0.0
Cd116 Cd 0.42554 0.05005 0.28218 0.0
C117 C 0.42286 1.00298 0.2667 0.0
O118 O 0.44884 0.06355 0.26598 0.0
O119 O 0.42428 0.05278 0.24868 0.0
O120 O 0.41472 0.07713 0.29612 0.0
C121 C 0.44037 0.06104 0.25003 0.0
O122 O 0.43834 1.007 0.26203 0.0
C123 C 0.39865 0.06843 0.29306 0.0
O124 O 0.41622 0.01581 0.27517 0.0
O125 O 0.39521 0.05115 0.2851 0.0
C126 C 0.29256 0.14449 0.49453 0.0
O127 O 0.28054 0.13601 0.50295 0.0
Cd128 Cd 0.25353 0.14519 0.50768 0.0
O129 O 0.2907 0.159 0.48751 0.0
Cd130 Cd 0.26768 0.17777 0.48494 0.0
C131 C 0.26945 0.1908 0.5317 0.0
O132 O 0.24182 0.15149 0.47883 0.0
O133 O 0.23674 0.17916 0.48737 0.0
O134 O 0.26993 0.17924 0.45205 0.0
C135 C 0.23065 0.16154 0.48137 0.0
O136 O 0.26047 0.17399 0.53128 0.0
C137 C 0.27528 0.19715 0.45413 0.0
O138 O 0.27536 0.19593 0.51705 0.0
O139 O 0.27746 0.20632 0.47071 0.0
C140 C 0.13076 0.02107 0.80736 0.0
O141 O 0.12303 0.02932 0.79627 0.0
Cd142 Cd 0.13079 0.03515 0.76591 0.0
O143 O 0.14381 0.01416 0.80207 0.0
Cd144 Cd 0.15977 0.01119 0.76991 0.0
C145 C 0.17381 0.06121 0.77123 0.0
O146 O 0.13255 1.00663 0.74584 0.0
O147 O 0.15716 0.01379 0.73521 0.0
O148 O 0.16231 0.97614 0.76928 0.0
C149 C 0.14055 0.00966 0.73174 0.0
O150 O 0.15747 0.06019 0.76747 0.0
C151 C 0.1789 0.97854 0.76978 0.0
O152 O 0.17898 0.04627 0.77442 0.0
O153 O 0.1869 0.9958 0.77055 0.0
C154 C 0.31569 0.95718 0.01868 0.0
O155 O 0.30538 0.96515 0.01015 0.0
Cd156 Cd 0.27553 0.94826 1.00094 0.0
O157 O 0.31017 0.94066 0.02244 0.0
Cd158 Cd 0.28441 0.91454 0.02078 0.0
C159 C 0.28143 0.908 0.97357 0.0
O160 O 0.26743 0.93687 0.02924 0.0
O161 O 0.25214 0.90799 0.02216 0.0
O162 O 0.30061 0.91186 0.04944 0.0
C163 C 0.25273 0.92538 0.02811 0.0
O164 O 0.27703 0.92385 0.97406 0.0
C165 C 0.29865 0.89396 0.04559 0.0
O166 O 0.28499 0.90203 0.98855 0.0
O167 O 0.28892 0.88539 0.03069 0.0
C168 C 0.33237 0.43552 0.03033 0.0
O169 O 0.3227 0.44471 0.02257 0.0
Cd170 Cd 0.29179 0.43382 0.0144 0.0
O171 O 0.32563 0.41973 0.03517 0.0
Cd172 Cd 0.29566 0.3992 0.0351 0.0
C173 C 0.29106 0.39022 0.98785 0.0
O174 O 0.28071 0.42506 0.04205 0.0
O175 O 0.26377 0.3972 0.03345 0.0
O176 O 0.30697 0.39536 0.06615 0.0
C177 C 0.26528 0.41473 0.03949 0.0
O178 O 0.28855 0.40699 0.98895 0.0
C179 C 0.29999 0.37774 0.06422 0.0
O180 O 0.29483 0.38376 1.00255 0.0
O181 O 0.29135 0.36986 0.04851 0.0
C182 C 0.78349 0.10532 0.0235 0.0
O183 O 0.76941 0.09686 0.0289 0.0
Cd184 Cd 0.74294 0.10848 0.02803 0.0
O185 O 0.78427 0.12085 0.01737 0.0
Cd186 Cd 0.76446 0.1419 0.01262 0.0
C187 C 0.75557 0.15073 0.05727 0.0
O188 O 0.7383 0.11769 0.99796 0.0
O189 O 0.73545 0.14664 0.00467 0.0
O190 O 0.77588 0.15108 0.98455 0.0
C191 C 0.72902 0.12974 0.99643 0.0
O192 O 0.74573 0.13408 0.05463 0.0
C193 C 0.78026 0.16872 0.99128 0.0
O194 O 0.76455 0.15636 0.04464 0.0
O195 O 0.77864 0.17353 0.00837 0.0
C196 C 0.13136 0.54033 0.25839 0.0
O197 O 0.12023 0.54195 0.24546 0.0
Cd198 Cd 0.1233 0.53576 0.21311 0.0
O199 O 0.14492 0.53417 0.25462 0.0
Cd200 Cd 0.15903 0.52308 0.22726 0.0
C201 C 0.16276 0.5679 0.21789 0.0
O202 O 0.13205 0.50611 0.20986 0.0
O203 O 0.15364 0.50859 0.19345 0.0
O204 O 0.16883 0.50033 0.24433 0.0
C205 C 0.13747 0.50191 0.19431 0.0
O206 O 0.14652 0.5637 0.21166 0.0
C207 C 0.18489 0.50578 0.24204 0.0
O208 O 0.16987 0.5558 0.2244 0.0
O209 O 0.18875 0.51896 0.23253 0.0
C210 C 0.83303 0.92894 0.52592 0.0
O211 O 0.82296 0.93721 0.51744 0.0
Cd212 Cd 0.79183 0.92735 0.5116 0.0
O213 O 0.82667 0.91415 0.53269 0.0
Cd214 Cd 0.79648 0.89468 0.53458 0.0
C215 C 0.78897 0.88228 0.48751 0.0
O216 O 0.78222 0.92127 0.54062 0.0
O217 O 0.7648 0.89357 0.53355 0.0
O218 O 0.80743 0.89169 0.56616 0.0
C219 C 0.76671 0.91126 0.53893 0.0
O220 O 0.78642 0.89894 0.48775 0.0
C221 C 0.79986 0.87427 0.56476 0.0
O222 O 0.79392 0.87705 0.50256 0.0
O223 O 0.79138 0.8661 0.54906 0.0
C224 C 0.94451 0.05265 0.29098 0.0
O225 O 0.95145 0.04322 0.27883 0.0
Cd226 Cd 0.94193 0.03485 0.24613 0.0
O227 O 0.93187 0.06012 0.28547 0.0
Cd228 Cd 0.91451 0.06031 0.25139 0.0
C229 C 0.89978 0.01003 0.24851 0.0
O230 O 0.9406 0.06234 0.2318 0.0
O231 O 0.91564 0.05334 0.21551 0.0
O232 O 0.91198 0.09559 0.25918 0.0
C233 C 0.93218 0.05807 0.21554 0.0
O234 O 0.91542 0.00979 0.24526 0.0
C235 C 0.89546 0.09312 0.25511 0.0
O236 O 0.89527 0.02606 0.25153 0.0
O237 O 0.88756 0.07577 0.24964 0.0
C238 C 0.28272 0.61 0.52459 0.0
O239 O 0.26893 0.60063 0.52978 0.0
Cd240 Cd 0.24138 0.6098 0.52825 0.0
O241 O 0.28259 0.62545 0.51855 0.0
Cd242 Cd 0.26037 0.64426 0.51424 0.0
C243 C 0.25091 0.65071 0.55889 0.0
O244 O 0.23672 0.61812 0.49758 0.0
O245 O 0.22991 0.64504 0.50546 0.0
O246 O 0.27366 0.65784 0.48856 0.0
C247 C 0.22582 0.62844 0.49591 0.0
O248 O 0.24157 0.63381 0.55579 0.0
C249 C 0.27472 0.67491 0.4963 0.0
O250 O 0.25979 0.65698 0.54649 0.0
O251 O 0.27006 0.6774 0.51254 0.0
C252 C 0.44491 0.5554 0.79222 0.0
O253 O 0.45301 0.54701 0.78049 0.0
Cd254 Cd 0.44205 0.53653 0.74811 0.0
O255 O 0.43114 0.56082 0.78625 0.0
Cd256 Cd 0.41397 0.56058 0.75222 0.0
C257 C 0.39999 0.51059 0.75019 0.0
O258 O 0.43988 0.56287 0.73234 0.0
O259 O 0.41478 0.55271 0.7164 0.0
O260 O 0.41212 0.596 0.75975 0.0
C261 C 0.43127 0.55791 0.71618 0.0
O262 O 0.41582 0.51085 0.74729 0.0
C263 C 0.39562 0.59389 0.75591 0.0
O264 O 0.39507 0.5264 0.75295 0.0
O265 O 0.38736 0.57662 0.75066 0.0
C266 C 0.62222 0.02892 0.75366 0.0
O267 O 0.61404 0.0289 0.73791 0.0
Cd268 Cd 0.62593 0.02518 0.70901 0.0
O269 O 0.63747 0.02544 0.75488 0.0
Cd270 Cd 0.65934 0.01755 0.73424 0.0
C271 C 0.66196 0.06189 0.72407 0.0
O272 O 0.63859 0.99827 0.70964 0.0
O273 O 0.66431 1.00672 0.70152 0.0
O274 O 0.66801 0.99572 0.75345 0.0
C275 C 0.64856 0.9974 0.69697 0.0
O276 O 0.64763 0.05576 0.71324 0.0
C277 C 0.68421 1.00403 0.75568 0.0
O278 O 0.66825 0.05095 0.73329 0.0
O279 O 0.68864 0.01837 0.74779 0.0
C280 C 0.7901 0.6427 0.99774 0.0
O281 O 0.77732 0.63417 0.00516 0.0
Cd282 Cd 0.75002 0.64333 0.00732 0.0
O283 O 0.78887 0.65712 0.99026 0.0
Cd284 Cd 0.76617 0.67562 0.98483 0.0
C285 C 0.76585 0.68908 0.03112 0.0
O286 O 0.74064 0.64902 0.97732 0.0
O287 O 0.73484 0.67655 0.98409 0.0
O288 O 0.7742 0.67656 0.95336 0.0
C289 C 0.72917 0.65883 0.97843 0.0
O290 O 0.75637 0.67246 0.03049 0.0
C291 C 0.77662 0.69444 0.95446 0.0
O292 O 0.77269 0.69391 0.01681 0.0
O293 O 0.77448 0.7038 0.96992 0.0
C294 C 0.96624 0.5507 0.81903 0.0
O295 O 0.97267 0.54376 0.80488 0.0
Cd296 Cd 0.95988 0.53599 0.77318 0.0
O297 O 0.95094 0.5541 0.81744 0.0
Cd298 Cd 0.92731 0.55088 0.79142 0.0
C299 C 0.92276 0.50327 0.77758 0.0
O300 O 0.94701 0.56202 0.77024 0.0
O301 O 0.92044 0.55107 0.75759 0.0
O302 O 0.9187 0.57969 0.8049 0.0
C303 C 0.93612 0.55879 0.75579 0.0
O304 O 0.93704 0.50679 0.77028 0.0
C305 C 0.90256 0.57172 0.80431 0.0
O306 O 0.91731 0.51655 0.78702 0.0
O307 O 0.89817 0.55389 0.79857 0.0
C308 C 0.83404 0.47117 0.51089 0.0
O309 O 0.82649 0.47817 0.4985 0.0
Cd310 Cd 0.79668 0.46407 0.48501 0.0
O311 O 0.82616 0.45618 0.51627 0.0
Cd312 Cd 0.79852 0.43236 0.51214 0.0
C313 C 0.80091 0.41969 0.46565 0.0
O314 O 0.78242 0.45638 0.5117 0.0
O315 O 0.76634 0.42812 0.50978 0.0
O316 O 0.80801 0.431 0.5442 0.0
C317 C 0.76722 0.44571 0.51012 0.0
O318 O 0.79845 0.4358 0.46296 0.0
C319 C 0.80567 0.41301 0.54153 0.0
O320 O 0.80188 0.41563 0.48196 0.0
O321 O 0.79897 0.40402 0.52539 0.0
C322 C 0.62841 0.51921 0.30704 0.0
O323 O 0.62068 0.52765 0.29613 0.0
Cd324 Cd 0.62797 0.53382 0.26566 0.0
O325 O 0.64131 0.51213 0.30156 0.0
Cd326 Cd 0.65727 0.50895 0.26943 0.0
C327 C 0.67135 0.55918 0.27079 0.0
O328 O 0.62998 0.50533 0.24588 0.0
O329 O 0.65437 0.51018 0.23443 0.0
O330 O 0.65945 0.47377 0.2688 0.0
C331 C 0.63779 0.50744 0.23148 0.0
O332 O 0.65499 0.55833 0.26737 0.0
C333 C 0.67603 0.47599 0.26939 0.0
O334 O 0.67649 0.54412 0.27365 0.0
O335 O 0.6842 0.49322 0.27028 0.0
Ho336 Ho 0.01504 0.02643 1.00352 0.0
Ho337 Ho 0.05265 0.05126 0.02196 0.0
C338 C 0.02477 0.07191 0.00399 0.0
C339 C 0.9822 0.00983 0.99914 0.0
C340 C 0.96676 0.01583 0.00551 0.0
C341 C 0.96859 0.03408 0.01583 0.0
C342 C 0.95379 0.04049 0.02062 0.0
C343 C 0.93691 0.0288 0.01498 0.0
C344 C 0.9352 0.01026 0.00517 0.0
C345 C 0.95006 1.00383 1.00044 0.0
C346 C 0.03906 0.02611 0.97742 0.0
C347 C 0.04288 1.0057 0.02152 0.0
C348 C 0.08574 0.06672 0.02616 0.0
C349 C 0.10047 0.05837 0.02137 0.0
C350 C 0.09708 0.03941 0.01233 0.0
C351 C 0.11074 0.03019 0.01018 0.0
C352 C 0.1281 0.03978 0.01701 0.0
C353 C 0.13156 0.05913 0.02523 0.0
C354 C 0.11778 0.06834 0.02747 0.0
C355 C 0.02872 0.0517 0.04809 0.0
O356 O 0.01218 0.05641 1.0032 0.0
O357 O 0.04146 0.07277 0.00936 0.0
O358 O 0.98976 0.01938 0.98704 0.0
O359 O 0.99343 1.00734 0.01227 0.0
O360 O 0.02263 0.01732 0.97453 0.0
O361 O 0.04151 0.03416 0.99446 0.0
O362 O 0.05535 0.0214 0.02301 0.0
O363 O 0.02627 1.00473 0.01574 0.0
O364 O 0.0775 0.05971 0.03932 0.0
O365 O 0.07501 0.06811 0.012 0.0
O366 O 0.04506 0.06082 0.05079 0.0
O367 O 0.02615 0.04343 0.0311 0.0
H368 H 0.98144 0.04352 0.01981 0.0
H369 H 0.95552 0.05474 0.0284 0.0
H370 H 0.92236 1.00102 1.00047 0.0
H371 H 0.94849 0.98972 0.9924 0.0
H372 H 0.08377 0.03146 0.00765 0.0
H373 H 0.10751 0.01524 0.00409 0.0
H374 H 0.14483 0.06697 0.03041 0.0
H375 H 0.12057 0.08299 0.03453 0.0
Ho376 Ho 0.28959 0.77756 0.24042 0.0
Ho377 Ho 0.28621 0.7991 0.28097 0.0
C378 C 0.31007 0.82192 0.25403 0.0
C379 C 0.29241 0.76634 0.2058 0.0
C380 C 0.30487 0.77349 0.19317 0.0
C381 C 0.31203 0.79305 0.19494 0.0
C382 C 0.32372 0.79987 0.18287 0.0
C383 C 0.32844 0.78727 0.1687 0.0
C384 C 0.32166 0.76761 0.16727 0.0
C385 C 0.30999 0.76077 0.1795 0.0
C386 C 0.31028 0.7724 0.26967 0.0
C387 C 0.26157 0.75762 0.26436 0.0
C388 C 0.29239 0.8108 0.31645 0.0
C389 C 0.28401 0.80822 0.33336 0.0
C390 C 0.27231 0.79109 0.33436 0.0
C391 C 0.2676 0.78712 0.35161 0.0
C392 C 0.27452 0.80027 0.36805 0.0
C393 C 0.28476 0.8182 0.36665 0.0
C394 C 0.28955 0.8221 0.3494 0.0
C395 C 0.25997 0.80198 0.25578 0.0
O396 O 0.30589 0.8069 0.2405 0.0
O397 O 0.30479 0.82196 0.27079 0.0
O398 O 0.29904 0.75928 0.21939 0.0
O399 O 0.28193 0.77728 0.2113 0.0
O400 O 0.30312 0.75899 0.25572 0.0
O401 O 0.30641 0.78771 0.26707 0.0
O402 O 0.27016 0.76914 0.2797 0.0
O403 O 0.26501 0.75992 0.24731 0.0
O404 O 0.2855 0.82017 0.30503 0.0
O405 O 0.29707 0.79584 0.3079 0.0
O406 O 0.26159 0.80924 0.2734 0.0
O407 O 0.27221 0.79361 0.25324 0.0
H408 H 0.30827 0.80316 0.20534 0.0
H409 H 0.32834 0.81512 0.1841 0.0
H410 H 0.32507 0.75758 0.15647 0.0
H411 H 0.30473 0.74559 0.17809 0.0
H412 H 0.2678 0.78026 0.32203 0.0
H413 H 0.25977 0.77313 0.35218 0.0
H414 H 0.29001 0.82873 0.37903 0.0
H415 H 0.29847 0.83548 0.34879 0.0
Ho416 Ho 0.55492 0.04089 0.5278 0.0
Ho417 Ho 0.51397 0.03303 0.5252 0.0
C418 C 0.53104 0.9975 0.51553 0.0
C419 C 0.58796 0.04216 0.53508 0.0
C420 C 0.59966 0.02924 0.53757 0.0
C421 C 0.61338 0.03471 0.5522 0.0
C422 C 0.62557 0.02355 0.55411 0.0
C423 C 0.62432 1.0067 0.54136 0.0
C424 C 0.61013 1.00086 0.52711 0.0
C425 C 0.59788 0.01203 0.52524 0.0
C426 C 0.53839 0.04734 0.4967 0.0
C427 C 0.53806 0.07634 0.53746 0.0
C428 C 0.48114 0.0325 0.51742 0.0
C429 C 0.46989 0.04562 0.5133 0.0
C430 C 0.46146 0.05397 0.52749 0.0
C431 C 0.44956 0.06495 0.52344 0.0
C432 C 0.44568 0.06774 0.50506 0.0
C433 C 0.45439 0.05973 0.49092 0.0
C434 C 0.46635 0.04878 0.49498 0.0
C435 C 0.53074 0.02723 0.55664 0.0
O436 O 0.54655 1.00878 0.52239 0.0
O437 O 0.51658 1.00389 0.51341 0.0
O438 O 0.58024 0.04101 0.51823 0.0
O439 O 0.57763 0.04444 0.54799 0.0
O440 O 0.55371 0.05736 0.50429 0.0
O441 O 0.53326 0.03381 0.50519 0.0
O442 O 0.52262 0.06526 0.52994 0.0
O443 O 0.55217 0.06958 0.54042 0.0
O444 O 0.48887 0.03506 0.5345 0.0
O445 O 0.49122 0.02802 0.50483 0.0
O446 O 0.51547 0.01691 0.54918 0.0
O447 O 0.53556 0.0404 0.54766 0.0
H448 H 0.61487 0.04785 0.56196 0.0
H449 H 0.63612 0.02824 0.56547 0.0
H450 H 0.60882 0.98802 0.517 0.0
H451 H 0.58729 1.00744 0.51391 0.0
H452 H 0.46369 0.05161 0.54169 0.0
H453 H 0.44288 0.07063 0.53462 0.0
H454 H 0.45182 0.06175 0.47665 0.0
H455 H 0.47252 0.04248 0.48367 0.0
Ho456 Ho 0.2687 0.28615 0.75786 0.0
Ho457 Ho 0.30775 0.28303 0.76371 0.0
C458 C 0.28968 0.29691 0.79937 0.0
C459 C 0.23489 0.2771 0.75612 0.0
C460 C 0.22085 0.28155 0.76705 0.0
C461 C 0.22197 0.28155 0.78636 0.0
C462 C 0.20751 0.28291 0.79601 0.0
C463 C 0.19165 0.28447 0.78661 0.0
C464 C 0.19094 0.28554 0.76747 0.0
C465 C 0.20537 0.28399 0.75779 0.0
C466 C 0.29074 0.32146 0.75892 0.0
C467 C 0.28812 0.27791 0.7218 0.0
C468 C 0.34107 0.28525 0.76408 0.0
C469 C 0.35591 0.29211 0.75379 0.0
C470 C 0.35593 0.2853 0.73471 0.0
C471 C 0.37096 0.29072 0.7259 0.0
C472 C 0.38621 0.30301 0.73599 0.0
C473 C 0.38583 0.31036 0.75487 0.0
C474 C 0.37088 0.3049 0.76367 0.0
C475 C 0.28317 0.25163 0.76822 0.0
O476 O 0.2743 0.29086 0.78903 0.0
O477 O 0.30472 0.29743 0.79226 0.0
O478 O 0.24324 0.29034 0.74771 0.0
O479 O 0.24527 0.26778 0.76368 0.0
O480 O 0.2737 0.31804 0.75702 0.0
O481 O 0.29464 0.30581 0.76045 0.0
O482 O 0.30327 0.2829 0.73272 0.0
O483 O 0.27284 0.27607 0.72855 0.0
O484 O 0.32907 0.27026 0.75585 0.0
O485 O 0.33449 0.29826 0.77351 0.0
O486 O 0.29847 0.25784 0.77791 0.0
O487 O 0.28204 0.26213 0.75603 0.0
H488 H 0.23379 0.27974 0.79389 0.0
H489 H 0.20855 0.28185 0.81067 0.0
H490 H 0.17909 0.28716 0.75985 0.0
H491 H 0.20424 0.28409 0.74291 0.0
H492 H 0.34454 0.27545 0.72671 0.0
H493 H 0.37083 0.28471 0.71137 0.0
H494 H 0.3972 0.32016 0.76297 0.0
H495 H 0.37116 0.31037 0.77837 0.0
Ho496 Ho 0.037 0.05532 0.52367 0.0
Ho497 Ho 0.03884 0.01566 0.50642 0.0
C498 C 0.02258 0.03958 0.47886 0.0
C499 C 0.03911 0.09148 0.53112 0.0
C500 C 0.04106 0.10692 0.51993 0.0
C501 C 0.05774 0.11594 0.51606 0.0
C502 C 0.0595 0.13004 0.50496 0.0
C503 C 0.04465 0.13549 0.49751 0.0
C504 C 0.028 0.12673 0.50167 0.0
C505 C 0.02623 0.11263 0.51281 0.0
C506 C 0.01122 0.0274 0.53094 0.0
C507 C 0.05357 0.0316 0.55104 0.0
C508 C 0.03574 0.97933 0.49891 0.0
C509 C 0.03147 0.9639 0.50968 0.0
C510 C 0.0222 0.96605 0.52522 0.0
C511 C 0.01765 0.95108 0.53503 0.0
C512 C 0.02241 0.93373 0.52956 0.0
C513 C 0.03201 0.93183 0.51417 0.0
C514 C 0.03645 0.94678 0.50429 0.0
C515 C 0.06478 0.04346 0.49922 0.0
O516 O 0.02859 0.05448 0.49251 0.0
O517 O 0.02373 0.02229 0.48146 0.0
O518 O 0.02419 0.07881 0.52793 0.0
O519 O 0.05257 0.08381 0.53324 0.0
O520 O 0.01823 0.04288 0.54268 0.0
O521 O 0.0174 0.02815 0.51562 0.0
O522 O 0.04675 0.0166 0.53771 0.0
O523 O 0.05302 0.04897 0.54816 0.0
O524 O 0.05083 0.99143 0.50426 0.0
O525 O 0.023 0.98766 0.49525 0.0
O526 O 0.05815 0.02776 0.48766 0.0
O527 O 0.05841 0.04278 0.51444 0.0
H528 H 0.06947 0.11208 0.5215 0.0
H529 H 0.07255 0.13677 0.50234 0.0
H530 H 0.0163 0.13052 0.49605 0.0
H531 H 0.01322 0.10606 0.51566 0.0
H532 H 0.01831 0.97924 0.52964 0.0
H533 H 0.0101 0.95299 0.54666 0.0
H534 H 0.03618 0.91881 0.50979 0.0
H535 H 0.04372 0.94495 0.4924 0.0
Ho536 Ho 0.30488 0.80046 0.76222 0.0
Ho537 Ho 0.27225 0.77411 0.76906 0.0
C538 C 0.30611 0.75578 0.76657 0.0
C539 C 0.33702 0.81884 0.76463 0.0
C540 C 0.35335 0.81195 0.76377 0.0
C541 C 0.359 0.80247 0.77766 0.0
C542 C 0.37359 0.79459 0.77598 0.0
C543 C 0.38284 0.7959 0.76036 0.0
C544 C 0.37732 0.80559 0.74657 0.0
C545 C 0.36275 0.81359 0.74831 0.0
C546 C 0.28447 0.78073 0.73116 0.0
C547 C 0.27103 0.81877 0.76429 0.0
C548 C 0.24045 0.75467 0.76728 0.0
C549 C 0.22347 0.76001 0.76758 0.0
C550 C 0.22002 0.77444 0.75817 0.0
C551 C 0.2039 0.77945 0.75844 0.0
C552 C 0.19087 0.77012 0.76811 0.0
C553 C 0.19446 0.75589 0.77781 0.0
C554 C 0.21068 0.7509 0.77756 0.0
C555 C 0.29273 0.79378 0.80024 0.0
O556 O 0.31495 0.77366 0.76701 0.0
O557 O 0.28871 0.75192 0.76574 0.0
O558 O 0.32639 0.81486 0.74909 0.0
O559 O 0.32874 0.81627 0.77924 0.0
O560 O 0.29317 0.7982 0.73249 0.0
O561 O 0.28788 0.77456 0.74586 0.0
O562 O 0.26222 0.8009 0.76408 0.0
O563 O 0.28843 0.82267 0.76508 0.0
O564 O 0.25103 0.76008 0.78284 0.0
O565 O 0.24849 0.75738 0.75256 0.0
O566 O 0.28462 0.77602 0.79833 0.0
O567 O 0.28918 0.80007 0.78562 0.0
H568 H 0.35207 0.80089 0.78977 0.0
H569 H 0.37771 0.78763 0.78708 0.0
H570 H 0.3841 0.80677 0.73431 0.0
H571 H 0.35861 0.82074 0.73737 0.0
H572 H 0.22967 0.78168 0.75032 0.0
H573 H 0.20144 0.79021 0.75053 0.0
H574 H 0.1847 0.74854 0.78547 0.0
H575 H 0.21318 0.73985 0.78504 0.0
Ho576 Ho 0.53727 0.0342 0.01839 0.0
Ho577 Ho 0.51598 0.03603 0.98261 0.0
C578 C 0.49701 0.0148 0.01386 0.0
C579 C 0.55682 0.03938 0.04982 0.0
C580 C 0.55256 0.03591 0.06828 0.0
C581 C 0.53512 0.02834 0.07071 0.0
C582 C 0.53056 0.02604 0.08834 0.0
C583 C 0.54339 0.03119 0.10394 0.0
C584 C 0.56102 0.03819 0.10136 0.0
C585 C 0.56557 0.04055 0.08358 0.0
C586 C 0.53399 1.00436 0.99079 0.0
C587 C 0.55572 0.0564 0.98721 0.0
C588 C 0.49828 0.03036 0.95027 0.0
C589 C 0.50516 0.0328 0.9324 0.0
C590 C 0.51783 0.02305 0.92631 0.0
C591 C 0.52789 0.02891 0.91256 0.0
C592 C 0.52533 0.04446 0.90445 0.0
C593 C 0.51168 0.0532 0.90927 0.0
C594 C 0.50167 0.04744 0.92326 0.0
C595 C 0.51922 0.06602 0.01018 0.0
O596 O 0.51045 0.02381 0.02632 0.0
O597 O 0.49727 0.0156 0.99591 0.0
O598 O 0.55442 0.02412 0.03716 0.0
O599 O 0.55045 0.05278 0.04376 0.0
O600 O 0.53341 1.00286 0.00818 0.0
O601 O 0.53683 0.02154 0.98894 0.0
O602 O 0.54256 0.04693 0.97468 0.0
O603 O 0.55552 0.05531 0.00512 0.0
O604 O 0.50044 0.04614 0.96224 0.0
O605 O 0.5022 0.01653 0.95804 0.0
O606 O 0.51894 0.06736 0.99268 0.0
O607 O 0.51665 0.04889 0.01204 0.0
H608 H 0.52492 0.02467 0.05904 0.0
H609 H 0.5168 0.02105 0.08982 0.0
H610 H 0.57119 0.0422 0.11311 0.0
H611 H 0.57913 0.04632 0.08184 0.0
H612 H 0.52072 0.01157 0.93287 0.0
H613 H 0.5381 0.02168 0.90868 0.0
H614 H 0.50942 0.06511 0.90299 0.0
H615 H 0.49198 0.05518 0.92774 0.0
Ho616 Ho 0.30878 0.30639 0.26472 0.0
Ho617 Ho 0.28294 0.26779 0.25418 0.0
C618 C 0.26673 0.30338 0.2644 0.0
C619 C 0.32458 0.34166 0.26772 0.0
C620 C 0.31733 0.35868 0.26876 0.0
C621 C 0.30096 0.35766 0.25891 0.0
C622 C 0.29281 0.37281 0.26188 0.0
C623 C 0.30091 0.38934 0.27468 0.0
C624 C 0.31761 0.39069 0.28402 0.0
C625 C 0.32572 0.37537 0.28116 0.0
C626 C 0.30441 0.28633 0.29276 0.0
C627 C 0.32483 0.27083 0.25634 0.0
C628 C 0.26691 0.23273 0.2521 0.0
C629 C 0.2724 0.21758 0.26044 0.0
C630 C 0.28438 0.22232 0.27666 0.0
C631 C 0.29072 0.20829 0.28404 0.0
C632 C 0.28565 0.18923 0.27501 0.0
C633 C 0.27338 0.18445 0.25888 0.0
C634 C 0.26677 0.19856 0.25167 0.0
C635 C 0.28719 0.28789 0.22615 0.0
O636 O 0.28245 0.31409 0.26376 0.0
O637 O 0.26378 0.28474 0.26279 0.0
O638 O 0.3226 0.33296 0.28203 0.0
O639 O 0.32087 0.32987 0.25181 0.0
O640 O 0.31921 0.29725 0.29061 0.0
O641 O 0.29249 0.28742 0.28059 0.0
O642 O 0.30938 0.26076 0.25895 0.0
O643 O 0.3275 0.28909 0.25541 0.0
O644 O 0.27626 0.23879 0.23926 0.0
O645 O 0.2639 0.24665 0.26398 0.0
O646 O 0.27255 0.27659 0.2281 0.0
O647 O 0.29912 0.28675 0.23827 0.0
H648 H 0.2942 0.34495 0.24923 0.0
H649 H 0.28007 0.37155 0.25425 0.0
H650 H 0.32411 0.40332 0.29395 0.0
H651 H 0.33829 0.37633 0.28901 0.0
H652 H 0.28917 0.23697 0.28342 0.0
H653 H 0.2999 0.21247 0.29665 0.0
H654 H 0.26938 0.16996 0.25143 0.0
H655 H 0.25768 0.1947 0.23899 0.0
Ho656 Ho 0.53702 0.55548 0.02335 0.0
Ho657 Ho 0.53677 0.51497 0.00634 0.0
C658 C 0.52138 0.53948 0.97892 0.0
C659 C 0.54006 0.59181 0.0302 0.0
C660 C 0.54124 0.60628 0.01816 0.0
C661 C 0.54794 0.6035 1.00096 0.0
C662 C 0.54848 0.617 0.98927 0.0
C663 C 0.54223 0.63348 0.99451 0.0
C664 C 0.53547 0.63613 0.01176 0.0
C665 C 0.53499 0.62263 0.02348 0.0
C666 C 0.51056 0.52882 0.03136 0.0
C667 C 0.55252 0.53118 0.05081 0.0
C668 C 0.53155 0.47837 0.99947 0.0
C669 C 0.52577 0.46353 0.01058 0.0
C670 C 0.51517 0.46659 0.0248 0.0
C671 C 0.50927 0.4523 0.03501 0.0
C672 C 0.51412 0.43476 0.03145 0.0
C673 C 0.52502 0.43191 0.01737 0.0
C674 C 0.53073 0.44616 0.00698 0.0
C675 C 0.56352 0.54134 0.99837 0.0
O676 O 0.52864 0.55441 0.99215 0.0
O677 O 0.52133 0.52201 0.98185 0.0
O678 O 0.52497 0.57952 0.02812 0.0
O679 O 0.55341 0.58381 0.03137 0.0
O680 O 0.5183 0.54414 0.04296 0.0
O681 O 0.51645 0.52908 0.01586 0.0
O682 O 0.54516 0.51621 0.0376 0.0
O683 O 0.55263 0.54868 0.04786 0.0
O684 O 0.54704 0.48957 0.00507 0.0
O685 O 0.51976 0.48763 0.99499 0.0
O686 O 0.55623 0.52562 0.98707 0.0
O687 O 0.55736 0.54133 0.01375 0.0
H688 H 0.55273 0.59088 0.99654 0.0
H689 H 0.55399 0.61463 0.97622 0.0
H690 H 0.53033 0.64852 0.01609 0.0
H691 H 0.52961 0.62486 0.03663 0.0
H692 H 0.51132 0.48 0.02791 0.0
H693 H 0.50072 0.45496 0.04554 0.0
H694 H 0.52932 0.41875 0.01448 0.0
H695 H 0.53903 0.44363 0.99615 0.0
Ho696 Ho 0.8015 0.29755 0.26264 0.0
Ho697 Ho 0.76787 0.26994 0.26656 0.0
C698 C 0.80218 0.25218 0.26505 0.0
C699 C 0.83329 0.31762 0.26852 0.0
C700 C 0.85045 0.31273 0.27041 0.0
C701 C 0.85259 0.29714 0.27873 0.0
C702 C 0.86885 0.2924 0.28025 0.0
C703 C 0.88331 0.30326 0.27363 0.0
C704 C 0.88108 0.31881 0.2652 0.0
C705 C 0.86474 0.32347 0.26356 0.0
C706 C 0.78257 0.27922 0.23031 0.0
C707 C 0.76706 0.3152 0.26342 0.0
C708 C 0.73574 0.25112 0.2617 0.0
C709 C 0.71956 0.25804 0.26251 0.0
C710 C 0.71917 0.27448 0.27513 0.0
C711 C 0.70511 0.28323 0.27342 0.0
C712 C 0.69141 0.27583 0.25891 0.0
C713 C 0.69143 0.2589 0.24685 0.0
C714 C 0.70541 0.25006 0.24867 0.0
C715 C 0.78693 0.28835 0.29882 0.0
O716 O 0.81107 0.27027 0.26675 0.0
O717 O 0.78471 0.24808 0.26304 0.0
O718 O 0.82443 0.31243 0.25191 0.0
O719 O 0.82355 0.31417 0.28189 0.0
O720 O 0.79154 0.29672 0.23262 0.0
O721 O 0.7851 0.27228 0.24475 0.0
O722 O 0.7582 0.29723 0.26263 0.0
O723 O 0.7845 0.31926 0.26479 0.0
O724 O 0.74583 0.25365 0.27748 0.0
O725 O 0.7445 0.25571 0.24793 0.0
O726 O 0.77816 0.27079 0.29648 0.0
O727 O 0.78417 0.29524 0.2844 0.0
H728 H 0.84174 0.28867 0.28417 0.0
H729 H 0.87009 0.28022 0.28663 0.0
H730 H 0.89204 0.32765 0.26023 0.0
H731 H 0.8633 0.33553 0.25709 0.0
H732 H 0.73013 0.28111 0.28572 0.0
H733 H 0.70543 0.29632 0.2828 0.0
H734 H 0.68087 0.2528 0.2357 0.0
H735 H 0.70559 0.23752 0.2387 0.0
Ho736 Ho 0.04686 0.55088 0.5184 0.0
Ho737 Ho 0.02546 0.5216 0.48541 0.0
C738 C 0.01333 0.51802 0.52443 0.0
C739 C 0.05486 0.57416 0.54942 0.0
C740 C 0.04599 0.57264 0.56635 0.0
C741 C 0.0353 0.58517 0.57172 0.0
C742 C 0.0241 0.58161 0.58532 0.0
C743 C 0.02344 0.56548 0.59376 0.0
C744 C 0.03463 0.55338 0.58898 0.0
C745 C 0.04579 0.5569 0.57539 0.0
C746 C 0.06005 0.52048 0.50799 0.0
C747 C 0.05869 0.55497 0.47901 0.0
C748 C 0.01649 0.49855 0.4543 0.0
C749 C 0.02303 0.50201 0.43651 0.0
C750 C 0.03391 0.49086 0.42853 0.0
C751 C 0.04477 0.49739 0.41554 0.0
C752 C 0.0448 0.51511 0.41027 0.0
C753 C 0.0328 0.52543 0.417 0.0
C754 C 0.02201 0.51896 0.43001 0.0
C755 C 0.01255 0.55232 0.49608 0.0
O756 O 0.0228 0.53564 0.5298 0.0
O757 O 0.01462 0.50777 0.50831 0.0
O758 O 0.06361 0.56118 0.54453 0.0
O759 O 0.04527 0.57731 0.53526 0.0
O760 O 0.06976 0.53746 0.51378 0.0
O761 O 0.04409 0.5204 0.50885 0.0
O762 O 0.04863 0.53768 0.47315 0.0
O763 O 0.05856 0.56461 0.49582 0.0
O764 O 0.00649 0.50951 0.4611 0.0
O765 O 0.02852 0.49677 0.46695 0.0
O766 O 0.0027 0.53536 0.49064 0.0
O767 O 0.02834 0.55196 0.49489 0.0
H768 H 0.03509 0.5973 0.56488 0.0
H769 H 0.01589 0.59139 0.58919 0.0
H770 H 0.03435 0.54087 0.59533 0.0
H771 H 0.0537 0.5468 0.57146 0.0
H772 H 0.03502 0.47783 0.43341 0.0
H773 H 0.0537 0.48899 0.41025 0.0
H774 H 0.03258 0.53916 0.41322 0.0
H775 H 0.01388 0.52802 0.43598 0.0
Ho776 Ho 0.76893 0.78735 0.25782 0.0
Ho777 Ho 0.8041 0.78147 0.26326 0.0
C778 C 0.78726 0.79223 0.29962 0.0
C779 C 0.73611 0.78813 0.2582 0.0
C780 C 0.72189 0.78343 0.26995 0.0
C781 C 0.70614 0.77074 0.26186 0.0
C782 C 0.69202 0.76687 0.27225 0.0
C783 C 0.69327 0.77577 0.29096 0.0
C784 C 0.70925 0.78815 0.2992 0.0
C785 C 0.72344 0.79191 0.28882 0.0
C786 C 0.79384 0.81846 0.253 0.0
C787 C 0.78528 0.77602 0.22141 0.0
C788 C 0.83704 0.78103 0.26336 0.0
C789 C 0.85167 0.78652 0.25237 0.0
C790 C 0.84953 0.78256 0.23277 0.0
C791 C 0.86394 0.78729 0.22286 0.0
C792 C 0.88067 0.79617 0.23239 0.0
C793 C 0.88261 0.80038 0.252 0.0
C794 C 0.86827 0.79558 0.26186 0.0
C795 C 0.77922 0.75038 0.2681 0.0
O796 O 0.77235 0.78654 0.28855 0.0
O797 O 0.80236 0.79403 0.29269 0.0
O798 O 0.74904 0.80271 0.2649 0.0
O799 O 0.74146 0.77383 0.24946 0.0
O800 O 0.77872 0.81193 0.24309 0.0
O801 O 0.79496 0.80831 0.26551 0.0
O802 O 0.80036 0.78177 0.23225 0.0
O803 O 0.77033 0.77442 0.2286 0.0
O804 O 0.82426 0.76666 0.25567 0.0
O805 O 0.83144 0.79494 0.27245 0.0
O806 O 0.79436 0.75686 0.27797 0.0
O807 O 0.7781 0.7605 0.25555 0.0
H808 H 0.70466 0.76397 0.24737 0.0
H809 H 0.68007 0.75695 0.26554 0.0
H810 H 0.71066 0.79537 0.31351 0.0
H811 H 0.73547 0.80172 0.29548 0.0
H812 H 0.83681 0.77567 0.22512 0.0
H813 H 0.862 0.78401 0.20776 0.0
H814 H 0.89534 0.80695 0.25978 0.0
H815 H 0.87019 0.79871 0.27697 0.0
Ho816 Ho 0.78954 0.2761 0.7434 0.0
Ho817 Ho 0.78164 0.29527 0.78317 0.0
C818 C 0.80735 0.32061 0.75994 0.0
C819 C 0.79668 0.26708 0.70985 0.0
C820 C 0.80509 0.27845 0.69682 0.0
C821 C 0.80504 0.2978 0.69869 0.0
C822 C 0.81416 0.30901 0.68726 0.0
C823 C 0.82343 0.30104 0.67367 0.0
C824 C 0.82341 0.28161 0.67176 0.0
C825 C 0.81437 0.2704 0.68338 0.0
C826 C 0.80664 0.26902 0.77422 0.0
C827 C 0.75876 0.2538 0.76294 0.0
C828 C 0.78357 0.30533 0.81875 0.0
C829 C 0.77298 0.30116 0.83387 0.0
C830 C 0.76295 0.28277 0.83357 0.0
C831 C 0.75631 0.27779 0.8497 0.0
C832 C 0.75944 0.29118 0.86636 0.0
C833 C 0.76772 0.31016 0.86589 0.0
C834 C 0.7746 0.31506 0.84977 0.0
C835 C 0.75881 0.30028 0.75544 0.0
O836 O 0.80311 0.30686 0.74516 0.0
O837 O 0.8021 0.31867 0.77644 0.0
O838 O 0.80706 0.26675 0.72466 0.0
O839 O 0.78125 0.2696 0.71374 0.0
O840 O 0.8007 0.25633 0.75935 0.0
O841 O 0.80335 0.28462 0.77175 0.0
O842 O 0.76521 0.26514 0.77913 0.0
O843 O 0.76462 0.25658 0.74686 0.0
O844 O 0.77774 0.31499 0.80691 0.0
O845 O 0.78987 0.29127 0.81075 0.0
O846 O 0.75836 0.30639 0.77302 0.0
O847 O 0.77112 0.29183 0.75422 0.0
H848 H 0.79794 0.30427 0.70899 0.0
H849 H 0.81361 0.32384 0.68876 0.0
H850 H 0.83043 0.27514 0.66136 0.0
H851 H 0.81469 0.25551 0.68195 0.0
H852 H 0.76135 0.27189 0.82129 0.0
H853 H 0.75012 0.26301 0.84943 0.0
H854 H 0.76996 0.32094 0.87831 0.0
H855 H 0.7821 0.32942 0.85011 0.0
Ho856 Ho 0.80557 0.80839 0.76824 0.0
Ho857 Ho 0.77912 0.76993 0.75813 0.0
C858 C 0.76392 0.80548 0.7721 0.0
C859 C 0.82135 0.84375 0.77225 0.0
C860 C 0.81433 0.86081 0.77653 0.0
C861 C 0.79743 0.86088 0.76867 0.0
C862 C 0.78979 0.87596 0.77439 0.0
C863 C 0.79886 0.89133 0.78808 0.0
C864 C 0.816 0.89159 0.79555 0.0
C865 C 0.82365 0.87635 0.78988 0.0
C866 C 0.80348 0.78668 0.79504 0.0
C867 C 0.82022 0.77304 0.75404 0.0
C868 C 0.76426 0.73463 0.75665 0.0
C869 C 0.77162 0.71989 0.76382 0.0
C870 C 0.78542 0.72529 0.7784 0.0
C871 C 0.79353 0.71182 0.78455 0.0
C872 C 0.7883 0.69263 0.77596 0.0
C873 C 0.77424 0.68715 0.76152 0.0
C874 C 0.76596 0.70072 0.75549 0.0
C875 C 0.78131 0.79113 0.73083 0.0
O876 O 0.7795 0.81626 0.77094 0.0
O877 O 0.76069 0.78675 0.76919 0.0
O878 O 0.82163 0.83383 0.78569 0.0
O879 O 0.8155 0.83306 0.75596 0.0
O880 O 0.81805 0.79737 0.79192 0.0
O881 O 0.79082 0.78871 0.78441 0.0
O882 O 0.80586 0.76302 0.75919 0.0
O883 O 0.82239 0.79141 0.75386 0.0
O884 O 0.77162 0.7411 0.74275 0.0
O885 O 0.76199 0.74825 0.76942 0.0
O886 O 0.76699 0.77951 0.73327 0.0
O887 O 0.79385 0.78954 0.7419 0.0
H888 H 0.78992 0.84908 0.75835 0.0
H889 H 0.77671 0.87556 0.76808 0.0
H890 H 0.82326 0.90331 0.80611 0.0
H891 H 0.83663 0.87646 0.79622 0.0
H892 H 0.79019 0.74005 0.78482 0.0
H893 H 0.80407 0.71652 0.79592 0.0
H894 H 0.77002 0.67251 0.75449 0.0
H895 H 0.75546 0.69635 0.74406 0.0
Ho896 Ho 0.5126 0.52589 0.50309 0.0
Ho897 Ho 0.55004 0.55075 0.52166 0.0
C898 C 0.52247 0.57137 0.50321 0.0
C899 C 0.47961 0.50994 0.49886 0.0
C900 C 0.46441 0.51683 0.5048 0.0
C901 C 0.46683 0.53519 0.5151 0.0
C902 C 0.45237 0.54252 0.51941 0.0
C903 C 0.43525 0.53164 0.51338 0.0
C904 C 0.4329 0.513 0.50355 0.0
C905 C 0.44742 0.50566 0.49925 0.0
C906 C 0.53657 0.52564 0.47698 0.0
C907 C 0.54052 0.50495 0.52038 0.0
C908 C 0.58317 0.56593 0.52637 0.0
C909 C 0.59766 0.55762 0.52063 0.0
C910 C 0.59388 0.53962 0.50932 0.0
C911 C 0.60726 0.5304 0.50544 0.0
C912 C 0.62465 0.53885 0.51311 0.0
C913 C 0.62849 0.55718 0.52401 0.0
C914 C 0.61503 0.56651 0.52776 0.0
C915 C 0.52613 0.55112 0.54776 0.0
O916 O 0.50988 0.55585 0.50234 0.0
O917 O 0.53911 0.57229 0.50884 0.0
O918 O 0.48743 0.51864 0.48636 0.0
O919 O 0.49066 0.50769 0.51231 0.0
O920 O 0.52016 0.51671 0.47415 0.0
O921 O 0.53908 0.53382 0.494 0.0
O922 O 0.55282 0.52087 0.52243 0.0
O923 O 0.52392 0.50374 0.51437 0.0
O924 O 0.57488 0.55795 0.539 0.0
O925 O 0.57248 0.56852 0.51276 0.0
O926 O 0.54243 0.56034 0.55042 0.0
O927 O 0.52355 0.54283 0.53077 0.0
H928 H 0.47991 0.54401 0.51945 0.0
H929 H 0.45459 0.55682 0.52723 0.0
H930 H 0.41986 0.50436 0.49857 0.0
H931 H 0.44538 0.49148 0.4912 0.0
H932 H 0.58048 0.53243 0.50396 0.0
H933 H 0.60392 0.51644 0.49677 0.0
H934 H 0.64175 0.56395 0.53027 0.0
H935 H 0.61808 0.5803 0.53672 0.0
Ho936 Ho 0.05091 0.53832 0.03464 0.0
Ho937 Ho 0.01185 0.5308 0.0182 0.0
C938 C 0.02995 0.49561 0.01416 0.0
C939 C 0.08051 0.53832 0.05298 0.0
C940 C 0.09359 0.52667 0.05237 0.0
C941 C 0.10758 0.53098 0.06663 0.0
C942 C 0.12059 0.52061 0.06599 0.0
C943 C 0.11984 0.50572 0.05105 0.0
C944 C 0.1055 0.50115 0.03698 0.0
C945 C 0.09247 0.51157 0.03763 0.0
C946 C 0.04483 0.54367 0.99924 0.0
C947 C 0.03307 0.57348 0.03866 0.0
C948 C 0.98206 0.5302 0.99998 0.0
C949 C 0.96852 0.54133 1.00016 0.0
C950 C 0.97269 0.56118 0.00566 0.0
C951 C 0.95936 0.57122 0.00596 0.0
C952 C 0.94169 0.56151 1.00094 0.0
C953 C 0.93768 0.54165 0.99534 0.0
C954 C 0.95098 0.53169 0.99495 0.0
C955 C 0.01799 0.52466 0.0534 0.0
O956 O 0.04314 0.50621 0.02631 0.0
O957 O 0.01759 0.50293 0.00664 0.0
O958 O 0.07918 0.5475 0.03908 0.0
O959 O 0.06525 0.53049 0.05763 0.0
O960 O 0.05794 0.55404 0.01084 0.0
O961 O 0.03655 0.53062 0.00661 0.0
O962 O 0.0199 0.56304 0.02635 0.0
O963 O 0.04515 0.56597 0.04636 0.0
O964 O 0.98357 0.52146 0.01418 0.0
O965 O 0.99723 0.53793 0.99499 0.0
O966 O 0.00507 0.51443 0.04149 0.0
O967 O 0.0261 0.53803 0.04625 0.0
H968 H 0.10854 0.54251 0.07818 0.0
H969 H 0.13127 0.52427 0.07722 0.0
H970 H 0.10459 0.48985 0.02523 0.0
H971 H 0.08168 0.50804 0.02653 0.0
H972 H 0.98618 0.56887 0.00983 0.0
H973 H 0.96282 0.5865 0.01045 0.0
H974 H 0.92424 0.5338 0.99112 0.0
H975 H 0.94753 0.51638 0.99063 0.0
C976 C 0.99464 0.19439 0.91764 0.0
C977 C 0.99729 0.21268 0.9283 0.0
C978 C 0.9953 0.17873 0.9263 0.0
C979 C 0.99301 0.16065 0.97069 0.0
H980 H 0.02466 0.13052 0.95097 0.0
C981 C 0.00265 0.08996 0.99403 0.0
C982 C 0.02024 0.08877 0.99755 0.0
C983 C 0.99855 0.10523 0.98647 0.0
C984 C 0.01578 0.1388 0.95663 0.0
H985 H 0.00181 0.22871 0.95647 0.0
H986 H 0.00275 0.20123 0.97162 0.0
H987 H 0.01899 0.15645 0.93573 0.0
H988 H 0.04729 0.10301 0.99628 0.0
H989 H 0.04009 0.12934 0.98295 0.0
H990 H 0.9899 0.14287 0.99166 0.0
C991 C 0.00022 0.19908 0.95655 0.0
C992 C 0.01241 0.15353 0.94781 0.0
C993 C -0.00024 0.21481 0.94787 0.0
C994 C 0.03361 0.10342 0.99378 0.0
C995 C 0.0295 0.11848 0.98602 0.0
C996 C 0.99619 0.14566 0.97938 0.0
C997 C 0.99843 0.18096 0.94582 0.0
C998 C 0.00112 0.16472 0.95482 0.0
C999 C 0.01195 0.11942 0.98204 0.0
C1000 C 0.00779 0.13476 0.97255 0.0
H1001 H 0.99266 0.19224 0.90254 0.0
H1002 H 0.99369 0.16489 0.9177 0.0
H1003 H 0.98421 0.16902 0.97634 0.0
H1004 H 0.99204 0.07895 0.99682 0.0
H1005 H 0.98491 0.10562 0.9835 0.0
C1006 C 0.14065 0.81434 0.14073 0.0
C1007 C 0.12908 0.82329 0.15047 0.0
C1008 C 0.15658 0.81296 0.14989 0.0
C1009 C 0.18834 0.83367 0.19183 0.0
H1010 H 0.19874 0.78375 0.1874 0.0
C1011 C 0.2348 0.8157 0.24717 0.0
C1012 C 0.24629 0.80414 0.24171 0.0
C1013 C 0.22196 0.81848 0.23423 0.0
C1014 C 0.19623 0.79785 0.18855 0.0
H1015 H 0.1254 0.83842 0.17724 0.0
H1016 H 0.1532 0.83623 0.19313 0.0
H1017 H 0.17392 0.78847 0.16769 0.0
H1018 H 0.25307 0.78598 0.21853 0.0
H1019 H 0.23066 0.79102 0.1956 0.0
H1020 H 0.21043 0.84308 0.21279 0.0
C1021 C 0.15 0.83025 0.17844 0.0
C1022 C 0.18199 0.80055 0.17726 0.0
C1023 C 0.13403 0.83143 0.16936 0.0
C1024 C 0.24453 0.79515 0.22303 0.0
C1025 C 0.23162 0.79794 0.20998 0.0
C1026 C 0.20258 0.83101 0.203 0.0
C1027 C 0.16134 0.82076 0.1689 0.0
C1028 C 0.17765 0.81839 0.17913 0.0
C1029 C 0.22027 0.80979 0.21543 0.0
C1030 C 0.20643 0.81296 0.20188 0.0
H1031 H 0.13718 0.80789 0.12614 0.0
H1032 H 0.16512 0.80568 0.14215 0.0
H1033 H 0.1855 0.84765 0.19333 0.0
H1034 H 0.23575 0.82272 0.26152 0.0
H1035 H 0.21321 0.8273 0.23906 0.0
C1036 C 0.5352 0.8423 0.43445 0.0
C1037 C 0.52084 0.82685 0.43368 0.0
C1038 C 0.53657 0.85923 0.44685 0.0
C1039 C 0.50949 0.88834 0.46776 0.0
H1040 H 0.55196 0.91622 0.49936 0.0
C1041 C 0.51386 0.96368 0.5081 0.0
C1042 C 0.52994 0.97697 0.50957 0.0
C1043 C 0.51267 0.94438 0.5017 0.0
C1044 C 0.54005 0.90877 0.49045 0.0
H1045 H 0.49689 0.81681 0.44559 0.0
H1046 H 0.49905 0.84678 0.46696 0.0
H1047 H 0.55034 0.88404 0.4831 0.0
H1048 H 0.55744 0.98043 0.50564 0.0
H1049 H 0.55527 0.94704 0.49366 0.0
H1050 H 0.49947 0.91322 0.47396 0.0
C1051 C 0.50932 0.84559 0.4581 0.0
C1052 C 0.5391 0.89026 0.48129 0.0
C1053 C 0.50814 0.82846 0.44596 0.0
C1054 C 0.54487 0.97052 0.50477 0.0
C1055 C 0.54362 0.95127 0.49801 0.0
C1056 C 0.51053 0.90696 0.47661 0.0
C1057 C 0.52344 0.86119 0.45846 0.0
C1058 C 0.52388 0.87997 0.46972 0.0
C1059 C 0.52746 0.93791 0.49623 0.0
C1060 C 0.52592 0.91756 0.48792 0.0
H1061 H 0.54521 0.84143 0.42518 0.0
H1062 H 0.54752 0.87109 0.44677 0.0
H1063 H 0.49768 0.88078 0.45869 0.0
H1064 H 0.50216 0.96819 0.51194 0.0
H1065 H 0.50008 0.93455 0.50099 0.0
C1066 C 0.53147 0.3198 0.68749 0.0
C1067 C 0.53419 0.32111 0.66889 0.0
C1068 C 0.51531 0.32079 0.69375 0.0
C1069 C 0.46851 0.31195 0.67721 0.0
H1070 H 0.46614 0.33777 0.72711 0.0
C1071 C 0.40267 0.31073 0.70879 0.0
C1072 C 0.40277 0.30741 0.72728 0.0
C1073 C 0.41837 0.31457 0.70073 0.0
C1074 C 0.46658 0.33042 0.71317 0.0
H1075 H 0.52209 0.32488 0.64236 0.0
H1076 H 0.49374 0.32658 0.65337 0.0
H1077 H 0.49433 0.34109 0.7147 0.0
H1078 H 0.41946 0.30503 0.75157 0.0
H1079 H 0.44666 0.31177 0.73763 0.0
H1080 H 0.44078 0.3009 0.67589 0.0
C1081 C 0.50417 0.3247 0.66304 0.0
C1082 C 0.48272 0.33234 0.70606 0.0
C1083 C 0.52044 0.32384 0.65678 0.0
C1084 C 0.41891 0.30797 0.73747 0.0
C1085 C 0.43454 0.31183 0.72945 0.0
C1086 C 0.45232 0.31001 0.68435 0.0
C1087 C 0.50141 0.32304 0.68157 0.0
C1088 C 0.48395 0.32279 0.68817 0.0
C1089 C 0.43449 0.31521 0.71101 0.0
C1090 C 0.45125 0.31887 0.70258 0.0
H1091 H 0.54176 0.3177 0.69722 0.0
H1092 H 0.51356 0.3192 0.70804 0.0
H1093 H 0.46904 0.30428 0.66344 0.0
H1094 H 0.39048 0.31056 0.70061 0.0
H1095 H 0.41791 0.31723 0.68652 0.0
C1096 C 0.99039 0.81263 0.629 0.0
C1097 C 0.98947 0.79398 0.62001 0.0
C1098 C 0.99188 0.8275 0.61878 0.0
C1099 C 0.0066 0.8395 0.57432 0.0
H1100 H 0.98678 0.88337 0.58707 0.0
C1101 C 0.01194 0.89883 0.52995 0.0
C1102 C 0.01725 0.91761 0.53973 0.0
C1103 C 0.0073 0.88365 0.53948 0.0
C1104 C 0.99246 0.87124 0.58344 0.0
H1105 H 0.98827 0.77606 0.59318 0.0
H1106 H 0.99026 0.80182 0.57531 0.0
H1107 H 0.98001 0.85673 0.60391 0.0
H1108 H 0.0218 0.93509 0.56728 0.0
H1109 H 0.01342 0.90855 0.58385 0.0
H1110 H 0.01897 0.85396 0.55382 0.0
C1111 C 0.99043 0.80513 0.5903 0.0
C1112 C 0.98862 0.85599 0.59309 0.0
C1113 C 0.98914 0.79033 0.60052 0.0
C1114 C 0.01755 0.92085 0.55927 0.0
C1115 C 0.01277 0.90566 0.56878 0.0
C1116 C 0.01031 0.85464 0.5646 0.0
C1117 C 0.9923 0.82398 0.59935 0.0
C1118 C 0.9957 0.83995 0.58869 0.0
C1119 C 0.00772 0.8869 0.55899 0.0
C1120 C 0.00336 0.8707 0.56911 0.0
H1121 H 0.99073 0.81588 0.64402 0.0
H1122 H 0.99344 0.84184 0.62625 0.0
H1123 H 0.01264 0.82761 0.57082 0.0
H1124 H 0.0112 0.89584 0.51489 0.0
H1125 H 0.00323 0.86935 0.53155 0.0
C1126 C 0.52455 0.77635 0.80903 0.0
C1127 C 0.53557 0.79199 0.80367 0.0
C1128 C 0.50769 0.76876 0.79966 0.0
C1129 C 0.47728 0.77237 0.75868 0.0
H1130 H 0.44291 0.76756 0.79396 0.0
C1131 C 0.41365 0.79793 0.75264 0.0
C1132 C 0.3986 0.78783 0.75898 0.0
C1133 C 0.4292 0.79162 0.75361 0.0
C1134 C 0.45225 0.76838 0.7838 0.0
H1135 H 0.53797 0.81105 0.78344 0.0
H1136 H 0.5086 0.79838 0.76764 0.0
H1137 H 0.47325 0.76843 0.80422 0.0
H1138 H 0.38766 0.76229 0.76979 0.0
H1139 H 0.41509 0.75163 0.77204 0.0
H1140 H 0.45629 0.77389 0.7387 0.0
C1141 C 0.51294 0.79163 0.7788 0.0
C1142 C 0.4697 0.76883 0.78967 0.0
C1143 C 0.52981 0.79907 0.78803 0.0
C1144 C 0.39916 0.77066 0.76525 0.0
C1145 C 0.41478 0.76446 0.7664 0.0
C1146 C 0.45984 0.77217 0.75289 0.0
C1147 C 0.50147 0.77677 0.78485 0.0
C1148 C 0.48257 0.77167 0.7774 0.0
C1149 C 0.43006 0.77516 0.76105 0.0
C1150 C 0.44733 0.77092 0.76561 0.0
H1151 H 0.52871 0.77038 0.82087 0.0
H1152 H 0.49931 0.75708 0.80446 0.0
H1153 H 0.48678 0.77409 0.74875 0.0
H1154 H 0.41374 0.81128 0.7479 0.0
H1155 H 0.44085 0.8003 0.74964 0.0
C1156 C 0.52309 0.19227 0.14343 0.0
C1157 C 0.51871 0.20826 0.13745 0.0
C1158 C 0.52463 0.17677 0.13041 0.0
C1159 C 0.53312 0.16302 0.08245 0.0
H1160 H 0.50584 0.113 0.08591 0.0
C1161 C 0.52162 0.10042 0.02148 0.0
C1162 C 0.5206 0.08208 0.02544 0.0
C1163 C 0.52262 0.11569 0.03584 0.0
C1164 C 0.51382 0.12678 0.08491 0.0
H1165 H 0.51295 0.22076 0.11321 0.0
H1166 H 0.51595 0.19378 0.09052 0.0
H1167 H 0.50584 0.14006 0.10998 0.0
H1168 H 0.51996 0.06517 0.04744 0.0
H1169 H 0.52238 0.09195 0.07268 0.0
H1170 H 0.54134 0.14986 0.05758 0.0
C1171 C 0.51809 0.19325 0.10526 0.0
C1172 C 0.51374 0.14227 0.09866 0.0
C1173 C 0.51628 0.20862 0.11824 0.0
C1174 C 0.52078 0.07922 0.04403 0.0
C1175 C 0.52201 0.09455 0.05846 0.0
C1176 C 0.5334 0.1475 0.06883 0.0
C1177 C 0.52212 0.17713 0.11123 0.0
C1178 C 0.52319 0.16055 0.09739 0.0
C1179 C 0.52285 0.11297 0.05452 0.0
C1180 C 0.52352 0.12923 0.06972 0.0
H1181 H 0.525 0.19157 0.15814 0.0
H1182 H 0.52783 0.16451 0.13533 0.0
H1183 H 0.54069 0.17697 0.08131 0.0
H1184 H 0.52142 0.10297 0.00723 0.0
H1185 H 0.52288 0.12957 0.03222 0.0
C1186 C 0.13941 0.33585 0.33061 0.0
C1187 C 0.1407 0.32793 0.3469 0.0
C1188 C 0.15396 0.34039 0.32109 0.0
C1189 C 0.20215 0.34429 0.32344 0.0
H1190 H 0.19088 0.32446 0.27044 0.0
C1191 C 0.25586 0.3318 0.27752 0.0
C1192 C 0.25232 0.31266 0.26877 0.0
C1193 C 0.24244 0.33952 0.28466 0.0
C1194 C 0.19423 0.33031 0.28516 0.0
H1195 H 0.15831 0.31931 0.36651 0.0
H1196 H 0.18372 0.32641 0.34936 0.0
H1197 H 0.16736 0.32718 0.28955 0.0
H1198 H 0.23185 0.28711 0.25912 0.0
H1199 H 0.20855 0.30048 0.2715 0.0
H1200 H 0.22902 0.34594 0.31913 0.0
C1201 C 0.17155 0.32959 0.3442 0.0
C1202 C 0.18077 0.33202 0.29613 0.0
C1203 C 0.15699 0.32534 0.35394 0.0
C1204 C 0.23498 0.30184 0.26597 0.0
C1205 C 0.2216 0.30958 0.27292 0.0
C1206 C 0.21564 0.3425 0.31243 0.0
C1207 C 0.17006 0.33675 0.32743 0.0
C1208 C 0.18454 0.33834 0.31552 0.0
C1209 C 0.2253 0.32826 0.28289 0.0
C1210 C 0.21172 0.33473 0.29335 0.0
H1211 H 0.12706 0.33829 0.32499 0.0
H1212 H 0.15246 0.34625 0.30845 0.0
H1213 H 0.20547 0.34954 0.33827 0.0
H1214 H 0.26912 0.3405 0.27983 0.0
H1215 H 0.24558 0.354 0.29218 0.0
C1216 C 0.93177 0.04905 0.17994 0.0
C1217 C 0.94121 0.05713 0.19769 0.0
C1218 C 0.94023 0.04796 0.16343 0.0
C1219 C 0.98196 0.06913 0.14384 0.0
H1220 H 0.96729 0.02589 0.10367 0.0
C1221 C 0.02398 0.06162 0.08163 0.0
C1222 C 0.01681 0.05137 0.0637 0.0
C1223 C 0.01417 0.0619 0.09699 0.0
C1224 C 0.97156 0.03828 0.11451 0.0
H1225 H 0.9674 0.07042 0.2113 0.0
H1226 H 0.98196 0.06881 0.18288 0.0
H1227 H 0.95189 0.0272 0.13153 0.0
H1228 H 0.99302 0.03293 0.04852 0.0
H1229 H 0.97553 0.03385 0.07511 0.0
H1230 H 0.00121 0.08059 0.12693 0.0
C1231 C 0.9679 0.06327 0.18159 0.0
C1232 C 0.96262 0.03902 0.13075 0.0
C1233 C 0.95949 0.06414 0.1981 0.0
C1234 C 0.99912 0.04123 0.06187 0.0
C1235 C 0.98909 0.04165 0.07739 0.0
C1236 C 0.99072 0.06851 0.1276 0.0
C1237 C 0.95852 0.05514 0.1638 0.0
C1238 C 0.96774 0.05438 0.14594 0.0
C1239 C 0.99638 0.05211 0.09541 0.0
C1240 C 0.986 0.05296 0.11254 0.0
H1241 H 0.91773 0.04342 0.17877 0.0
H1242 H 0.93228 0.04172 0.15025 0.0
H1243 H 0.98626 0.0815 0.15472 0.0
H1244 H 0.03755 0.06949 0.084 0.0
H1245 H 0.02088 0.06969 0.11031 0.0
C1246 C 0.28252 0.68803 0.46757 0.0
C1247 C 0.27902 0.691 0.48622 0.0
C1248 C 0.2837 0.70274 0.45721 0.0
C1249 C 0.26649 0.74468 0.45435 0.0
H1250 H 0.30142 0.75576 0.42053 0.0
C1251 C 0.28933 0.7978 0.39876 0.0
C1252 C 0.27383 0.79392 0.38636 0.0
C1253 C 0.29017 0.78831 0.41384 0.0
C1254 C 0.29169 0.75299 0.43009 0.0
H1255 H 0.27501 0.71195 0.50895 0.0
H1256 H 0.27702 0.73752 0.4908 0.0
H1257 H 0.30394 0.73279 0.44104 0.0
H1258 H 0.2466 0.77844 0.38108 0.0
H1259 H 0.24814 0.7617 0.40753 0.0
H1260 H 0.25399 0.76454 0.443 0.0
C1261 C 0.27867 0.7238 0.48419 0.0
C1262 C 0.29307 0.73974 0.44166 0.0
C1263 C 0.27764 0.70919 0.49458 0.0
C1264 C 0.25876 0.78155 0.39029 0.0
C1265 C 0.25961 0.77207 0.40547 0.0
C1266 C 0.265 0.7578 0.4426 0.0
C1267 C 0.28128 0.72057 0.46531 0.0
C1268 C 0.28043 0.73539 0.45381 0.0
C1269 C 0.27556 0.77478 0.41685 0.0
C1270 C 0.27756 0.76199 0.43032 0.0
H1271 H 0.28362 0.67417 0.46076 0.0
H1272 H 0.28568 0.6999 0.44263 0.0
H1273 H 0.25646 0.7414 0.46348 0.0
H1274 H 0.30123 0.8071 0.39607 0.0
H1275 H 0.30255 0.79082 0.42259 0.0
C1276 C 0.62411 0.98027 0.67263 0.0
C1277 C 0.6406 0.99295 0.6774 0.0
C1278 C 0.6137 0.98043 0.65626 0.0
C1279 C 0.60338 0.01627 0.63427 0.0
H1280 H 0.57712 0.97813 0.5932 0.0
C1281 C 0.55742 0.03582 0.57947 0.0
C1282 C 0.54239 0.02227 0.5709 0.0
C1283 C 0.5698 0.03084 0.59129 0.0
C1284 C 0.58415 0.98886 0.60476 0.0
H1285 H 0.65995 0.01434 0.66799 0.0
H1286 H 0.64151 0.01494 0.63957 0.0
H1287 H 0.5994 0.97012 0.61412 0.0
H1288 H 0.52776 0.99319 0.56877 0.0
H1289 H 0.54893 0.98463 0.59047 0.0
H1290 H 0.58768 0.03469 0.62606 0.0
C1291 C 0.63677 1.00477 0.64841 0.0
C1292 C 0.59703 0.98431 0.61652 0.0
C1293 C 0.64732 1.00436 0.66462 0.0
C1294 C 0.53935 1.00387 0.57517 0.0
C1295 C 0.55162 0.99892 0.58737 0.0
C1296 C 0.59032 0.02068 0.62286 0.0
C1297 C 0.6196 0.99347 0.64464 0.0
C1298 C 0.60682 0.99808 0.63122 0.0
C1299 C 0.56714 0.01229 0.59536 0.0
C1300 C 0.58061 1.00713 0.60784 0.0
H1301 H 0.61868 0.97134 0.6823 0.0
H1302 H 0.60045 0.97168 0.65362 0.0
H1303 H 0.61049 0.02694 0.64587 0.0
H1304 H 0.55986 0.05022 0.57662 0.0
H1305 H 0.58166 0.04149 0.59688 0.0
C1306 C 0.29412 0.36055 0.96702 0.0
C1307 C 0.29007 0.37854 0.96913 0.0
C1308 C 0.29371 0.35001 0.9492 0.0
C1309 C 0.27544 0.34595 0.89999 0.0
H1310 H 0.31292 0.32065 0.88851 0.0
C1311 C 0.3056 0.31322 0.83083 0.0
C1312 C 0.28987 0.30374 0.81959 0.0
C1313 C 0.30546 0.32061 0.84966 0.0
C1314 C 0.3024 0.3277 0.89148 0.0
H1315 H 0.28231 0.39946 0.95408 0.0
H1316 H 0.28171 0.38125 0.92326 0.0
H1317 H 0.31279 0.33705 0.92026 0.0
H1318 H 0.26174 0.2939 0.81961 0.0
H1319 H 0.26157 0.30648 0.85234 0.0
H1320 H 0.26533 0.33723 0.8712 0.0
C1321 C 0.285 0.37514 0.93531 0.0
C1322 C 0.30222 0.3369 0.90972 0.0
C1323 C 0.28545 0.38564 0.95304 0.0
C1324 C 0.2741 0.30131 0.82776 0.0
C1325 C 0.27397 0.30861 0.84655 0.0
C1326 C 0.27563 0.33677 0.88181 0.0
C1327 C 0.28914 0.35721 0.93315 0.0
C1328 C 0.28883 0.34633 0.91412 0.0
C1329 C 0.2896 0.31861 0.85767 0.0
C1330 C 0.28917 0.32765 0.87727 0.0
H1331 H 0.29774 0.35465 0.97911 0.0
H1332 H 0.29682 0.33618 0.948 0.0
H1333 H 0.26482 0.35286 0.90294 0.0
H1334 H 0.31799 0.31536 0.825 0.0
H1335 H 0.31772 0.32839 0.85777 0.0
C1336 C 0.95005 0.0672 0.32644 0.0
C1337 C 0.95091 0.05294 0.31136 0.0
C1338 C 0.9575 0.06701 0.3449 0.0
C1339 C 0.98872 0.04291 0.37079 0.0
H1340 H 0.9718 0.06503 0.41534 0.0
C1341 C 0.01097 0.0275 0.44442 0.0
C1342 C 0.0144 0.04227 0.46007 0.0
C1343 C 0.00335 0.02979 0.42692 0.0
C1344 C 0.97683 0.05885 0.40309 0.0
H1345 H 0.95968 0.02674 0.3048 0.0
H1346 H 0.97159 0.02601 0.33602 0.0
H1347 H 0.95829 0.06726 0.38452 0.0
H1348 H 0.01202 0.07118 0.46899 0.0
H1349 H 0.99854 0.07504 0.43869 0.0
H1350 H 0.007 0.03421 0.38925 0.0
C1351 C 0.96605 0.03797 0.3339 0.0
C1352 C 0.96904 0.06018 0.38521 0.0
C1353 C 0.95892 0.0383 0.31568 0.0
C1354 C 0.00971 0.0594 0.45745 0.0
C1355 C 0.00182 0.06159 0.43996 0.0
C1356 C 0.9963 0.04138 0.38856 0.0
C1357 C 0.96593 0.05246 0.34901 0.0
C1358 C 0.97466 0.05203 0.36855 0.0
C1359 C 0.99856 0.04686 0.42424 0.0
C1360 C 0.99048 0.04915 0.40515 0.0
H1361 H 0.94406 0.07876 0.32393 0.0
H1362 H 0.95696 0.07857 0.35585 0.0
H1363 H 0.99417 0.03696 0.35875 0.0
H1364 H 0.01426 0.01405 0.44562 0.0
H1365 H 0.00098 0.01793 0.41546 0.0
C1366 C 0.25871 0.68313 0.57831 0.0
C1367 C 0.25129 0.66357 0.5767 0.0
C1368 C 0.2594 0.69549 0.59501 0.0
C1369 C 0.26123 0.69687 0.64505 0.0
H1370 H 0.25038 0.74631 0.64573 0.0
C1371 C 0.26863 0.74897 0.71373 0.0
C1372 C 0.27657 0.76804 0.71352 0.0
C1373 C 0.2628 0.73619 0.6971 0.0
C1374 C 0.25359 0.73263 0.64576 0.0
H1375 H 0.23864 0.64168 0.59135 0.0
H1376 H 0.24008 0.6634 0.6208 0.0
H1377 H 0.24528 0.72367 0.61648 0.0
H1378 H 0.28419 0.78893 0.69583 0.0
H1379 H 0.27448 0.76645 0.66661 0.0
H1380 H 0.27018 0.70593 0.67406 0.0
C1381 C 0.24531 0.66906 0.60901 0.0
C1382 C 0.2506 0.71965 0.62904 0.0
C1383 C 0.24445 0.65666 0.59217 0.0
C1384 C 0.27805 0.7743 0.69636 0.0
C1385 C 0.2724 0.76142 0.67964 0.0
C1386 C 0.26435 0.70988 0.66172 0.0
C1387 C 0.25282 0.68859 0.61056 0.0
C1388 C 0.25456 0.70173 0.6285 0.0
C1389 C 0.26503 0.74212 0.67984 0.0
C1390 C 0.26071 0.72798 0.66226 0.0
H1391 H 0.26405 0.68896 0.56665 0.0
H1392 H 0.26546 0.71042 0.59588 0.0
H1393 H 0.26466 0.68327 0.64498 0.0
H1394 H 0.26733 0.74375 0.72678 0.0
H1395 H 0.25684 0.72154 0.69778 0.0
C1396 C 0.59728 0.03732 0.76961 0.0
C1397 C 0.61444 0.03446 0.77079 0.0
C1398 C 0.5902 0.04354 0.78567 0.0
C1399 C 0.5945 0.04394 0.83588 0.0
H1400 H 0.56263 0.07783 0.83539 0.0
C1401 C 0.55571 0.05567 0.89703 0.0
C1402 C 0.53756 0.05179 0.89162 0.0
C1403 C 0.56748 0.05953 0.88408 0.0
C1404 C 0.57157 0.06844 0.83574 0.0
H1405 H 0.63772 0.0361 0.78971 0.0
H1406 H 0.62532 0.04704 0.81777 0.0
H1407 H 0.57916 0.0725 0.80887 0.0
H1408 H 0.51738 0.05041 0.86913 0.0
H1409 H 0.53796 0.05674 0.8462 0.0
H1410 H 0.58653 0.03928 0.86234 0.0
C1411 C 0.61731 0.04428 0.80443 0.0
C1412 C 0.58098 0.06533 0.82058 0.0
C1413 C 0.62438 0.03798 0.78836 0.0
C1414 C 0.53135 0.05331 0.87351 0.0
C1415 C 0.54314 0.05704 0.86047 0.0
C1416 C 0.58517 0.04707 0.85102 0.0
C1417 C 0.60014 0.04711 0.80323 0.0
C1418 C 0.59213 0.05261 0.82028 0.0
C1419 C 0.56127 0.05941 0.86548 0.0
C1420 C 0.57324 0.05893 0.85088 0.0
H1421 H 0.58926 0.03474 0.75629 0.0
H1422 H 0.57679 0.04519 0.78433 0.0
H1423 H 0.60283 0.03389 0.83599 0.0
H1424 H 0.56075 0.05493 0.9111 0.0
H1425 H 0.58139 0.0617 0.88841 0.0
C1426 C 0.28861 0.35036 0.08014 0.0
C1427 C 0.30105 0.36724 0.07992 0.0
C1428 C 0.28859 0.34138 0.09574 0.0
C1429 C 0.30555 0.35092 0.14639 0.0
H1430 H 0.28808 0.29641 0.14144 0.0
C1431 C 0.30657 0.30825 0.20773 0.0
C1432 C 0.29005 0.2972 0.20969 0.0
C1433 C 0.30906 0.31685 0.19195 0.0
C1434 C 0.29299 0.31165 0.14299 0.0
H1435 H 0.32372 0.38751 0.0955 0.0
H1436 H 0.3243 0.37139 0.12231 0.0
H1437 H 0.2911 0.3108 0.11351 0.0
H1438 H 0.26325 0.28624 0.19663 0.0
H1439 H 0.26777 0.30074 0.16885 0.0
H1440 H 0.30783 0.35147 0.17598 0.0
C1441 C 0.31409 0.3654 0.1108 0.0
C1442 C 0.29462 0.31997 0.127 0.0
C1443 C 0.31387 0.37459 0.09534 0.0
C1444 C 0.27613 0.29471 0.19552 0.0
C1445 C 0.27871 0.30294 0.1796 0.0
C1446 C 0.30426 0.34252 0.16236 0.0
C1447 C 0.30125 0.34884 0.1114 0.0
C1448 C 0.30065 0.33978 0.12844 0.0
C1449 C 0.29517 0.31411 0.17769 0.0
C1450 C 0.29771 0.32286 0.1608 0.0
H1451 H 0.27846 0.34445 0.06852 0.0
H1452 H 0.27828 0.32889 0.09569 0.0
H1453 H 0.30994 0.36622 0.14819 0.0
H1454 H 0.31759 0.31013 0.21827 0.0
H1455 H 0.3219 0.32532 0.19072 0.0
C1456 C 0.22215 0.92639 0.01702 0.0
C1457 C 0.23699 0.93283 0.03031 0.0
C1458 C 0.20915 0.93681 0.01655 0.0
C1459 C 0.2058 0.98641 0.03051 0.0
H1460 H 0.15624 0.96626 0.01397 0.0
C1461 C 0.15442 0.0321 0.03305 0.0
C1462 C 0.14208 0.02899 0.01719 0.0
C1463 C 0.16608 0.02028 0.03437 0.0
C1464 C 0.1701 0.97202 0.01846 0.0
H1465 H 0.24927 0.95381 0.05454 0.0
H1466 H 0.22621 0.97137 0.05444 0.0
H1467 H 0.17522 0.9444 0.01854 0.0
H1468 H 0.13297 0.01165 0.98986 0.0
H1469 H 0.15319 0.99075 0.99241 0.0
H1470 H 0.20062 0.014 0.0307 0.0
C1471 C 0.22486 0.95887 0.04386 0.0
C1472 C 0.18094 0.95954 0.02109 0.0
C1473 C 0.23796 0.94873 0.04408 0.0
C1474 C 0.14211 0.01422 1.0024 0.0
C1475 C 0.15364 1.00225 1.00383 0.0
C1476 C 0.19495 0.99884 0.02808 0.0
C1477 C 0.21077 0.95362 0.02953 0.0
C1478 C 0.19892 0.96662 0.02721 0.0
C1479 C 0.16552 1.00502 0.01995 0.0
C1480 C 0.17703 0.99176 0.02203 0.0
H1481 H 0.22126 0.91423 0.00617 0.0
H1482 H 0.19849 0.93238 0.0053 0.0
H1483 H 0.21967 0.99236 0.0347 0.0
H1484 H 0.15457 0.04311 0.04483 0.0
H1485 H 0.17508 0.02262 0.047 0.0
C1486 C 0.70395 0.63101 0.96731 0.0
C1487 C 0.71039 0.64951 0.9774 0.0
C1488 C 0.68667 0.6213 0.9679 0.0
C1489 C 0.65411 0.61612 0.99935 0.0
H1490 H 0.62068 0.59129 0.95614 0.0
C1491 C 0.58633 0.57163 0.00832 0.0
C1492 C 0.57898 0.55536 0.99495 0.0
C1493 C 0.60115 0.58475 0.00526 0.0
C1494 C 0.62992 0.59788 0.96837 0.0
H1495 H 0.70372 0.67256 0.99569 0.0
H1496 H 0.67361 0.65526 0.99721 0.0
H1497 H 0.64885 0.61118 0.95195 0.0
H1498 H 0.5814 0.53987 0.96791 0.0
H1499 H 0.60785 0.56203 0.96298 0.0
H1500 H 0.63599 0.6021 0.0158 0.0
C1501 C 0.68192 0.64846 0.98864 0.0
C1502 C 0.64597 0.60941 0.96593 0.0
C1503 C 0.69908 0.65834 0.9877 0.0
C1504 C 0.58675 0.55238 0.97844 0.0
C1505 C 0.60184 0.56525 0.97555 0.0
C1506 C 0.63826 0.60429 1.00178 0.0
C1507 C 0.67566 0.62977 0.97893 0.0
C1508 C 0.6582 0.61857 0.9814 0.0
C1509 C 0.60932 0.58161 0.98896 0.0
C1510 C 0.62593 0.5949 0.98633 0.0
H1511 H 0.7124 0.62389 0.95925 0.0
H1512 H 0.68216 0.60685 0.9604 0.0
H1513 H 0.66346 0.62284 0.01147 0.0
H1514 H 0.58077 0.57417 0.02128 0.0
H1515 H 0.6062 0.5973 0.01579 0.0
C1516 C 0.70372 0.4622 0.26971 0.0
C1517 C 0.68526 0.45938 0.26888 0.0
C1518 C 0.71223 0.4468 0.26906 0.0
C1519 C 0.70469 0.39373 0.27291 0.0
H1520 H 0.74934 0.39784 0.25311 0.0
C1521 C 0.7388 0.32814 0.26231 0.0
C1522 C 0.75732 0.33139 0.26359 0.0
C1523 C 0.72997 0.34331 0.26284 0.0
C1524 C 0.73699 0.39628 0.25896 0.0
H1525 H 0.66158 0.43725 0.26662 0.0
H1526 H 0.6761 0.41072 0.26526 0.0
H1527 H 0.7347 0.42407 0.2543 0.0
H1528 H 0.78072 0.35404 0.26652 0.0
H1529 H 0.76568 0.38004 0.26758 0.0
H1530 H 0.70699 0.36587 0.2775 0.0
C1531 C 0.68425 0.42492 0.26672 0.0
C1532 C 0.72843 0.41163 0.25967 0.0
C1533 C 0.67576 0.44034 0.26739 0.0
C1534 C 0.76652 0.35058 0.26537 0.0
C1535 C 0.75772 0.36571 0.26587 0.0
C1536 C 0.71325 0.37835 0.27219 0.0
C1537 C 0.70276 0.42766 0.26752 0.0
C1538 C 0.71203 0.41087 0.2667 0.0
C1539 C 0.73918 0.36257 0.26463 0.0
C1540 C 0.7297 0.37918 0.26524 0.0
H1541 H 0.71172 0.47646 0.27091 0.0
H1542 H 0.72641 0.45008 0.27004 0.0
H1543 H 0.69234 0.39217 0.27875 0.0
H1544 H 0.73101 0.31376 0.26085 0.0
H1545 H 0.71577 0.33975 0.26157 0.0
C1546 C 0.85971 0.47411 0.53452 0.0
C1547 C 0.85249 0.47962 0.51853 0.0
C1548 C 0.87768 0.4799 0.54035 0.0
C1549 C 0.91681 0.50058 0.55194 0.0
H1550 H 0.94225 0.48712 0.51045 0.0
C1551 C 0.99126 0.52431 0.54583 0.0
C1552 C 0.99837 0.51118 0.53449 0.0
C1553 C 0.97392 0.51922 0.54974 0.0
C1554 C 0.93531 0.49072 0.52224 0.0
H1555 H 0.85818 0.49659 0.49689 0.0
H1556 H 0.8897 0.50645 0.50693 0.0
H1557 H 0.9107 0.48351 0.50512 0.0
H1558 H 0.99423 0.48169 0.52128 0.0
H1559 H 0.96408 0.4728 0.5283 0.0
H1560 H 0.94178 0.50817 0.56895 0.0
C1561 C 0.88139 0.49764 0.51489 0.0
C1562 C 0.91731 0.48896 0.51911 0.0
C1563 C 0.86338 0.49202 0.50917 0.0
C1564 C 0.98892 0.49221 0.52965 0.0
C1565 C 0.97168 0.48711 0.53367 0.0
C1566 C 0.93502 0.50265 0.55504 0.0
C1567 C 0.88872 0.49114 0.53017 0.0
C1568 C 0.90791 0.49392 0.53387 0.0
C1569 C 0.96367 0.50094 0.54247 0.0
C1570 C 0.94436 0.4976 0.54019 0.0
H1571 H 0.85158 0.46473 0.54215 0.0
H1572 H 0.88307 0.47466 0.55211 0.0
H1573 H 0.90973 0.50441 0.56353 0.0
H1574 H 0.99834 0.53901 0.54998 0.0
H1575 H 0.96805 0.53011 0.55666 0.0
C1576 C 0.36686 0.06824 0.29396 0.0
C1577 C 0.38452 0.07822 0.29749 0.0
C1578 C 0.35342 0.07791 0.29621 0.0
C1579 C 0.3444 0.12463 0.31525 0.0
H1580 H 0.30915 0.11264 0.27215 0.0
C1581 C 0.31206 0.17965 0.28842 0.0
C1582 C 0.29409 0.17477 0.28174 0.0
C1583 C 0.32037 0.16611 0.29411 0.0
C1584 C 0.31864 0.11591 0.28449 0.0
H1585 H 0.402 0.10593 0.30704 0.0
H1586 H 0.37864 0.12284 0.31059 0.0
H1587 H 0.329 0.09167 0.2758 0.0
H1588 H 0.2707 0.15181 0.27615 0.0
H1589 H 0.2855 0.12787 0.28563 0.0
H1590 H 0.33461 0.14949 0.3233 0.0
C1591 C 0.3751 0.10753 0.30636 0.0
C1592 C 0.33001 0.10389 0.28661 0.0
C1593 C 0.38851 0.09787 0.30418 0.0
C1594 C 0.28459 0.15598 0.28102 0.0
C1595 C 0.29301 0.14232 0.28655 0.0
C1596 C 0.33309 0.13669 0.31306 0.0
C1597 C 0.35741 0.09773 0.30198 0.0
C1598 C 0.34341 0.10848 0.30168 0.0
C1599 C 0.31099 0.14728 0.29307 0.0
C1600 C 0.32051 0.13277 0.29733 0.0
H1601 H 0.36338 0.05305 0.28895 0.0
H1602 H 0.33992 0.06993 0.29298 0.0
H1603 H 0.35435 0.12833 0.3272 0.0
H1604 H 0.31992 0.19383 0.28872 0.0
H1605 H 0.33434 0.17022 0.29865 0.0
C1606 C 0.32294 0.14695 0.48483 0.0
C1607 C 0.30887 0.13743 0.49313 0.0
C1608 C 0.33836 0.14027 0.48389 0.0
C1609 C 0.35537 0.09708 0.48622 0.0
H1610 H 0.40077 0.13231 0.49932 0.0
C1611 C 0.41932 0.07072 0.48482 0.0
C1612 C 0.43179 0.07793 0.50061 0.0
C1613 C 0.4052 0.07912 0.48164 0.0
C1614 C 0.38819 0.12229 0.49563 0.0
H1615 H 0.30003 0.11338 0.50694 0.0
H1616 H 0.32678 0.1019 0.5054 0.0
H1617 H 0.37408 0.14446 0.4983 0.0
H1618 H 0.43967 0.10027 0.52488 0.0
H1619 H 0.41486 0.11473 0.5195 0.0
H1620 H 0.36931 0.07487 0.48417 0.0
C1621 C 0.32588 0.11438 0.49939 0.0
C1622 C 0.37291 0.12927 0.49487 0.0
C1623 C 0.31055 0.12106 0.50038 0.0
C1624 C 0.43017 0.09422 0.51271 0.0
C1625 C 0.41605 0.10264 0.50951 0.0
C1626 C 0.3706 0.09012 0.48694 0.0
C1627 C 0.33997 0.12387 0.49114 0.0
C1628 C 0.35631 0.1167 0.49046 0.0
C1629 C 0.40319 0.09495 0.49415 0.0
C1630 C 0.38719 0.10261 0.49191 0.0
H1631 H 0.32209 0.1596 0.4791 0.0
H1632 H 0.34894 0.14782 0.47734 0.0
H1633 H 0.3428 0.08703 0.48253 0.0
H1634 H 0.42009 0.05812 0.47528 0.0
H1635 H 0.39565 0.073 0.46953 0.0
C1636 C 0.70155 0.58297 0.27851 0.0
C1637 C 0.68387 0.57808 0.27047 0.0
C1638 C 0.7124 0.60118 0.27831 0.0
C1639 C 0.71611 0.64329 0.25339 0.0
H1640 H 0.74671 0.67148 0.29737 0.0
C1641 C 0.75195 0.72339 0.25686 0.0
C1642 C 0.7681 0.73075 0.26815 0.0
C1643 C 0.74196 0.70484 0.25713 0.0
C1644 C 0.73852 0.66386 0.28474 0.0
H1645 H 0.66422 0.58897 0.25555 0.0
H1646 H 0.68285 0.61988 0.25501 0.0
H1647 H 0.73009 0.63927 0.29755 0.0
H1648 H 0.78626 0.72392 0.28856 0.0
H1649 H 0.76952 0.6919 0.2886 0.0
H1650 H 0.72465 0.66754 0.24037 0.0
C1651 C 0.68847 0.60984 0.26155 0.0
C1652 C 0.72886 0.64519 0.28491 0.0
C1653 C 0.67765 0.59193 0.262 0.0
C1654 C 0.77389 0.71893 0.27968 0.0
C1655 C 0.76407 0.70039 0.27982 0.0
C1656 C 0.72591 0.66185 0.25312 0.0
C1657 C 0.70605 0.61494 0.26973 0.0
C1658 C 0.71733 0.63457 0.26929 0.0
C1659 C 0.74783 0.69284 0.26859 0.0
C1660 C 0.73728 0.67269 0.26883 0.0
H1661 H 0.70693 0.57286 0.2852 0.0
H1662 H 0.72587 0.6044 0.28471 0.0
H1663 H 0.70763 0.63566 0.24092 0.0
H1664 H 0.74695 0.73201 0.24785 0.0
H1665 H 0.72949 0.70006 0.24844 0.0
C1666 C 0.89698 0.47933 0.78376 0.0
C1667 C 0.91173 0.48371 0.77418 0.0
C1668 C 0.88578 0.46132 0.77967 0.0
C1669 C 0.88269 0.41159 0.75807 0.0
H1670 H 0.83281 0.40878 0.75829 0.0
C1671 C 0.8293 0.34064 0.74369 0.0
C1672 C 0.81859 0.33903 0.75817 0.0
C1673 C 0.84047 0.35811 0.74278 0.0
C1674 C 0.8467 0.40938 0.7581 0.0
H1675 H 0.9265 0.47245 0.75305 0.0
H1676 H 0.90673 0.44096 0.74576 0.0
H1677 H 0.85319 0.43972 0.76242 0.0
H1678 H 0.81072 0.35449 0.78264 0.0
H1679 H 0.82995 0.38484 0.78088 0.0
H1680 H 0.87603 0.3811 0.75391 0.0
C1681 C 0.90396 0.45146 0.75655 0.0
C1682 C 0.85838 0.42706 0.76059 0.0
C1683 C 0.91526 0.46951 0.76072 0.0
C1684 C 0.8189 0.35524 0.77139 0.0
C1685 C 0.82981 0.37265 0.77031 0.0
C1686 C 0.87094 0.39384 0.75543 0.0
C1687 C 0.88896 0.44727 0.76582 0.0
C1688 C 0.87655 0.42839 0.76116 0.0
C1689 C 0.84079 0.37423 0.75612 0.0
C1690 C 0.85291 0.39265 0.75594 0.0
H1691 H 0.89397 0.48988 0.79433 0.0
H1692 H 0.87459 0.4584 0.78741 0.0
H1693 H 0.89662 0.41214 0.75851 0.0
H1694 H 0.82933 0.32837 0.73331 0.0
H1695 H 0.84882 0.35904 0.73169 0.0
C1696 C 0.0694 0.88114 0.10474 0.0
C1697 C 0.07047 0.86343 0.09487 0.0
C1698 C 0.06792 0.89611 0.09535 0.0
C1699 C 0.05436 0.9064 0.04916 0.0
H1700 H 0.07818 0.95802 0.07164 0.0
C1701 C 0.03446 0.97209 0.02708 0.0
C1702 C 0.04758 0.98857 0.02717 0.0
C1703 C 0.03859 0.95637 0.0336 0.0
C1704 C 0.07161 0.94369 0.06502 0.0
H1705 H 0.07093 0.8476 0.06736 0.0
H1706 H 0.06846 0.87384 0.05091 0.0
H1707 H 0.08328 0.93161 0.08635 0.0
H1708 H 0.0755 1.00111 0.0336 0.0
H1709 H 0.08271 0.97357 0.04481 0.0
H1710 H 0.04275 0.9185 0.02777 0.0
C1711 C 0.06859 0.87606 0.06594 0.0
C1712 C 0.07436 0.92855 0.07359 0.0
C1713 C 0.07007 0.86105 0.07536 0.0
C1714 C 0.06503 0.98872 0.03345 0.0
C1715 C 0.06916 0.97296 0.03997 0.0
C1716 C 0.05161 0.92156 0.04057 0.0
C1717 C 0.0675 0.89379 0.07583 0.0
C1718 C 0.06556 0.90974 0.06593 0.0
C1719 C 0.05595 0.95667 0.04034 0.0
C1720 C 0.06 0.94042 0.04855 0.0
H1721 H 0.06961 0.88345 0.11978 0.0
H1722 H 0.0668 0.90944 0.1034 0.0
H1723 H 0.04729 0.89212 0.04293 0.0
H1724 H 0.02087 0.97142 0.02238 0.0
H1725 H 0.02803 0.94419 0.0339 0.0
C1726 C 0.94868 0.28724 0.86041 0.0
C1727 C 0.9538 0.27104 0.86484 0.0
C1728 C 0.93147 0.28616 0.85314 0.0
C1729 C 0.88608 0.25505 0.84383 0.0
H1730 H 0.88162 0.2874 0.80707 0.0
C1731 C 0.82506 0.25004 0.7893 0.0
C1732 C 0.82036 0.26745 0.78859 0.0
C1733 C 0.83989 0.24934 0.80098 0.0
C1734 C 0.88266 0.27838 0.81741 0.0
H1735 H 0.94486 0.24108 0.86568 0.0
H1736 H 0.91478 0.23886 0.85202 0.0
H1737 H 0.91044 0.2881 0.82221 0.0
H1738 H 0.82677 0.29752 0.80032 0.0
H1739 H 0.85281 0.29632 0.82033 0.0
H1740 H 0.85804 0.24477 0.83803 0.0
C1741 C 0.92396 0.25257 0.85463 0.0
C1742 C 0.89919 0.27886 0.82624 0.0
C1743 C 0.9412 0.25378 0.86238 0.0
C1744 C 0.83012 0.28391 0.80051 0.0
C1745 C 0.84502 0.28325 0.81193 0.0
C1746 C 0.86947 0.25432 0.83465 0.0
C1747 C 0.91897 0.26871 0.84955 0.0
C1748 C 0.90116 0.26745 0.83983 0.0
C1749 C 0.85031 0.26607 0.81189 0.0
C1750 C 0.86765 0.26621 0.82157 0.0
H1751 H 0.95806 0.30082 0.86249 0.0
H1752 H 0.92806 0.29907 0.85013 0.0
H1753 H 0.88701 0.24613 0.85426 0.0
H1754 H 0.81771 0.23713 0.78029 0.0
H1755 H 0.84377 0.23594 0.80069 0.0
C1756 C 0.55885 0.24874 0.59164 0.0
C1757 C 0.56301 0.25303 0.61115 0.0
C1758 C 0.5545 0.22979 0.58241 0.0
C1759 C 0.56175 0.18305 0.58922 0.0
H1760 H 0.52577 0.16268 0.54717 0.0
C1761 C 0.55657 0.10922 0.54735 0.0
C1762 C 0.53978 0.09705 0.54303 0.0
C1763 C 0.55855 0.12856 0.55388 0.0
C1764 C 0.5358 0.16817 0.55896 0.0
H1765 H 0.56486 0.24074 0.63631 0.0
H1766 H 0.55709 0.20798 0.62033 0.0
H1767 H 0.53011 0.19588 0.5625 0.0
H1768 H 0.51185 0.09585 0.5414 0.0
H1769 H 0.51534 0.1298 0.55323 0.0
H1770 H 0.56728 0.1555 0.5861 0.0
C1771 C 0.55761 0.21917 0.61208 0.0
C1772 C 0.53839 0.1872 0.56762 0.0
C1773 C 0.56202 0.238 0.62125 0.0
C1774 C 0.52496 0.10484 0.54469 0.0
C1775 C 0.52696 0.12429 0.55137 0.0
C1776 C 0.55918 0.16416 0.58062 0.0
C1777 C 0.55421 0.21483 0.59253 0.0
C1778 C 0.55135 0.1948 0.58292 0.0
C1779 C 0.54381 0.13627 0.55642 0.0
C1780 C 0.54623 0.15647 0.56536 0.0
H1781 H 0.55946 0.26 0.58346 0.0
H1782 H 0.552 0.2269 0.56732 0.0
H1783 H 0.57202 0.1885 0.60078 0.0
H1784 H 0.56828 0.10379 0.54591 0.0
H1785 H 0.5717 0.13747 0.55719 0.0
C1786 C 0.55397 0.759 0.35667 0.0
C1787 C 0.55423 0.76055 0.37611 0.0
C1788 C 0.56937 0.75916 0.34831 0.0
C1789 C 0.61768 0.77412 0.35849 0.0
H1790 H 0.61617 0.74279 0.31023 0.0
C1791 C 0.67963 0.77143 0.32062 0.0
C1792 C 0.67774 0.77266 0.30153 0.0
C1793 C 0.66497 0.7688 0.33047 0.0
C1794 C 0.61678 0.75169 0.32367 0.0
H1795 H 0.57082 0.76318 0.40202 0.0
H1796 H 0.59774 0.76318 0.38739 0.0
H1797 H 0.58985 0.73994 0.32614 0.0
H1798 H 0.65888 0.77249 0.27803 0.0
H1799 H 0.63342 0.76762 0.29509 0.0
H1800 H 0.64465 0.78588 0.3559 0.0
C1801 C 0.58565 0.76213 0.37863 0.0
C1802 C 0.60169 0.75009 0.33278 0.0
C1803 C 0.57021 0.76203 0.38701 0.0
C1804 C 0.66083 0.77117 0.29258 0.0
C1805 C 0.6462 0.76842 0.30237 0.0
C1806 C 0.63281 0.77564 0.3494 0.0
C1807 C 0.58542 0.76079 0.35917 0.0
C1808 C 0.60186 0.76151 0.35017 0.0
C1809 C 0.64809 0.76722 0.32142 0.0
C1810 C 0.63244 0.76465 0.33175 0.0
H1811 H 0.54188 0.75791 0.34787 0.0
H1812 H 0.56873 0.75841 0.33333 0.0
H1813 H 0.61824 0.78329 0.37175 0.0
H1814 H 0.69242 0.77228 0.32791 0.0
H1815 H 0.66681 0.76778 0.34511 0.0
C1816 C 0.06731 0.25356 0.39262 0.0
C1817 C 0.07832 0.27083 0.40179 0.0
C1818 C 0.06209 0.23864 0.40237 0.0
C1819 C 0.05897 0.22826 0.45038 0.0
H1820 H 0.0571 0.17663 0.4265 0.0
C1821 C 0.03671 0.1642 0.48724 0.0
C1822 C 0.04661 0.15025 0.48543 0.0
C1823 C 0.03901 0.17841 0.47624 0.0
C1824 C 0.05764 0.19098 0.43341 0.0
H1825 H 0.09264 0.28598 0.42829 0.0
H1826 H 0.08396 0.25985 0.44516 0.0
H1827 H 0.06463 0.20259 0.40916 0.0
H1828 H 0.06628 0.13994 0.47022 0.0
H1829 H 0.07068 0.16499 0.45148 0.0
H1830 H 0.05273 0.21675 0.47489 0.0
C1831 C 0.07898 0.25792 0.43056 0.0
C1832 C 0.06175 0.20585 0.42338 0.0
C1833 C 0.08407 0.27287 0.42086 0.0
C1834 C 0.05863 0.15064 0.47216 0.0
C1835 C 0.06097 0.16486 0.46122 0.0
C1836 C 0.05497 0.21341 0.46044 0.0
C1837 C 0.06788 0.24064 0.42146 0.0
C1838 C 0.06265 0.2247 0.43181 0.0
C1839 C 0.05128 0.179 0.4632 0.0
C1840 C 0.05444 0.19461 0.45214 0.0
H1841 H 0.06256 0.25161 0.37795 0.0
H1842 H 0.05335 0.22563 0.39497 0.0
H1843 H 0.05927 0.24257 0.45722 0.0
H1844 H 0.02742 0.16437 0.49743 0.0
H1845 H 0.03119 0.18895 0.47797 0.0
C1846 C 0.56617 0.30029 0.18568 0.0
C1847 C 0.55065 0.29711 0.19422 0.0
C1848 C 0.58241 0.30686 0.19657 0.0
C1849 C 0.60168 0.30283 0.24231 0.0
H1850 H 0.64419 0.32852 0.22482 0.0
C1851 C 0.6688 0.29305 0.27019 0.0
C1852 C 0.67763 0.28628 0.25556 0.0
C1853 C 0.65494 0.3017 0.26653 0.0
C1854 C 0.63242 0.32151 0.23002 0.0
H1855 H 0.53976 0.30008 0.22063 0.0
H1856 H 0.56817 0.31182 0.23955 0.0
H1857 H 0.61568 0.33145 0.2111 0.0
H1858 H 0.67992 0.2845 0.22599 0.0
H1859 H 0.65565 0.29929 0.21953 0.0
H1860 H 0.61828 0.29204 0.26046 0.0
C1861 C 0.56782 0.30881 0.22456 0.0
C1862 C 0.61612 0.32315 0.22215 0.0
C1863 C 0.55159 0.30211 0.21368 0.0
C1864 C 0.67308 0.28927 0.23745 0.0
C1865 C 0.65937 0.29803 0.23382 0.0
C1866 C 0.61795 0.30128 0.25021 0.0
C1867 C 0.58344 0.3105 0.21615 0.0
C1868 C 0.60055 0.31304 0.22757 0.0
C1869 C 0.64988 0.30391 0.24823 0.0
C1870 C 0.63342 0.30982 0.24349 0.0
H1871 H 0.56585 0.29671 0.17076 0.0
H1872 H 0.59418 0.3078 0.18961 0.0
H1873 H 0.58999 0.29471 0.24673 0.0
H1874 H 0.67217 0.29099 0.28429 0.0
H1875 H 0.64786 0.30617 0.27789 0.0
C1876 C 0.56885 0.88611 0.87123 0.0
C1877 C 0.567 0.86819 0.87665 0.0
C1878 C 0.56369 0.90084 0.88224 0.0
C1879 C 0.53618 0.91063 0.91958 0.0
H1880 H 0.56755 0.96069 0.92893 0.0
C1881 C 0.53163 0.96996 0.97941 0.0
C1882 C 0.535 0.9887 0.97603 0.0
C1883 C 0.53382 0.95523 0.9659 0.0
C1884 C 0.55851 0.94688 0.92622 0.0
H1885 H 0.55813 0.85169 0.89785 0.0
H1886 H 0.54932 0.87749 0.91714 0.0
H1887 H 0.57483 0.93495 0.90801 0.0
H1888 H 0.54296 1.00685 0.9559 0.0
H1889 H 0.54652 0.98105 0.93209 0.0
H1890 H 0.52001 0.92253 0.93806 0.0
C1891 C 0.55456 0.88005 0.90425 0.0
C1892 C 0.56269 0.93213 0.91424 0.0
C1893 C 0.55973 0.8653 0.89324 0.0
C1894 C 0.54016 0.99246 0.95876 0.0
C1895 C 0.54236 0.97774 0.94524 0.0
C1896 C 0.532 0.92539 0.93156 0.0
C1897 C 0.55656 0.89799 0.8989 0.0
C1898 C 0.55165 0.91381 0.91093 0.0
C1899 C 0.53946 0.95901 0.94878 0.0
C1900 C 0.54321 0.94362 0.93513 0.0
H1901 H 0.57433 0.8888 0.85848 0.0
H1902 H 0.5652 0.91445 0.87765 0.0
H1903 H 0.52729 0.89673 0.91706 0.0
H1904 H 0.52764 0.96673 0.99265 0.0
H1905 H 0.53168 0.94098 0.96912 0.0
C1906 C 0.93394 0.73476 0.6744 0.0
C1907 C 0.94522 0.7241 0.68106 0.0
C1908 C 0.9173 0.7333 0.68019 0.0
C1909 C 0.89486 0.72258 0.72048 0.0
H1910 H 0.85647 0.73432 0.69115 0.0
C1911 C 0.83348 0.74465 0.74964 0.0
C1912 C 0.83314 0.76306 0.74637 0.0
C1913 C 0.8448 0.7347 0.74086 0.0
C1914 C 0.86698 0.73072 0.6994 0.0
H1915 H 0.94742 0.70246 0.69792 0.0
H1916 H 0.9182 0.69974 0.70782 0.0
H1917 H 0.88026 0.72448 0.67562 0.0
H1918 H 0.84428 0.78546 0.73145 0.0
H1919 H 0.86375 0.76798 0.71602 0.0
H1920 H 0.88169 0.72946 0.74432 0.0
C1921 C 0.92239 0.70953 0.69844 0.0
C1922 C 0.88062 0.72522 0.69058 0.0
C1923 C 0.93911 0.71108 0.69274 0.0
C1924 C 0.84434 0.77138 0.73436 0.0
C1925 C 0.85533 0.76132 0.72536 0.0
C1926 C 0.88106 0.72784 0.72926 0.0
C1927 C 0.9115 0.72102 0.69266 0.0
C1928 C 0.89515 0.72205 0.70115 0.0
C1929 C 0.85553 0.74288 0.72841 0.0
C1930 C 0.86749 0.7328 0.71886 0.0
H1931 H 0.93822 0.74488 0.66536 0.0
H1932 H 0.90938 0.7426 0.67567 0.0
H1933 H 0.90589 0.72037 0.72907 0.0
H1934 H 0.82494 0.73792 0.75883 0.0
H1935 H 0.84493 0.72053 0.74348 0.0
C1936 C 0.10519 0.01746 0.82665 0.0
C1937 C 0.12342 0.01946 0.826 0.0
C1938 C 0.09767 0.01822 0.8436 0.0
C1939 C 0.1069 0.02005 0.89658 0.0
H1940 H 0.06223 0.03451 0.89589 0.0
C1941 C 0.06931 0.03473 0.96439 0.0
C1942 C 0.05103 0.02679 0.96188 0.0
C1943 C 0.07949 0.03433 0.949 0.0
C1944 C 0.07466 0.03032 0.8965 0.0
H1945 H 0.1479 0.02376 0.84366 0.0
H1946 H 0.13497 0.02563 0.87335 0.0
H1947 H 0.07691 0.03297 0.868 0.0
H1948 H 0.02952 0.01239 0.94057 0.0
H1949 H 0.04671 0.0122 0.91442 0.0
H1950 H 0.10457 0.01817 0.92565 0.0
C1951 C 0.12626 0.02303 0.86051 0.0
C1952 C 0.0832 0.02922 0.88015 0.0
C1953 C 0.13382 0.02191 0.84331 0.0
C1954 C 0.04346 0.01872 0.94341 0.0
C1955 C 0.05342 0.01866 0.92817 0.0
C1956 C 0.09841 0.02147 0.91313 0.0
C1957 C 0.10795 0.02155 0.86113 0.0
C1958 C 0.0994 0.02365 0.8795 0.0
C1959 C 0.07167 0.02641 0.93046 0.0
C1960 C 0.0819 0.02632 0.91336 0.0
H1961 H 0.09654 0.0154 0.81382 0.0
H1962 H 0.08356 0.01616 0.84273 0.0
H1963 H 0.11922 0.01567 0.89718 0.0
H1964 H 0.07578 0.04123 0.97819 0.0
H1965 H 0.09344 0.04059 0.95157 0.0
C1966 C 0.82099 0.41359 0.57301 0.0
C1967 C 0.81179 0.40315 0.55603 0.0
C1968 C 0.82798 0.40435 0.58615 0.0
C1969 C 0.84012 0.35903 0.59143 0.0
H1970 H 0.83057 0.37166 0.64249 0.0
C1971 C 0.82834 0.30619 0.64136 0.0
C1972 C 0.83174 0.31283 0.66066 0.0
C1973 C 0.83258 0.31868 0.6289 0.0
C1974 C 0.83383 0.36825 0.62843 0.0
H1975 H 0.80256 0.3749 0.53951 0.0
H1976 H 0.81438 0.35874 0.56263 0.0
H1977 H 0.82408 0.39115 0.61997 0.0
H1978 H 0.84411 0.33701 0.6821 0.0
H1979 H 0.8516 0.35889 0.66027 0.0
H1980 H 0.84908 0.33552 0.59979 0.0
C1981 C 0.81654 0.37409 0.56562 0.0
C1982 C 0.83002 0.3794 0.61549 0.0
C1983 C 0.80957 0.38332 0.55249 0.0
C1984 C 0.84103 0.33167 0.66725 0.0
C1985 C 0.84532 0.34416 0.65479 0.0
C1986 C 0.84394 0.34784 0.60439 0.0
C1987 C 0.82589 0.38452 0.58254 0.0
C1988 C 0.83255 0.37451 0.59673 0.0
C1989 C 0.84032 0.338 0.63556 0.0
C1990 C 0.84024 0.35197 0.62287 0.0
H1991 H 0.82304 0.42892 0.57605 0.0
H1992 H 0.83518 0.41275 0.59904 0.0
H1993 H 0.84255 0.35519 0.57711 0.0
H1994 H 0.82113 0.29175 0.63592 0.0
H1995 H 0.82843 0.31352 0.61417 0.0
C1996 C 0.48328 0.04663 0.33992 0.0
C1997 C 0.46704 0.0508 0.33503 0.0
C1998 C 0.4902 0.04945 0.35856 0.0
C1999 C 0.47746 0.05263 0.40579 0.0
H2000 H 0.52767 0.07112 0.4195 0.0
C2001 C 0.53397 0.06802 0.47351 0.0
C2002 C 0.52862 0.05094 0.48018 0.0
C2003 C 0.52518 0.07107 0.45727 0.0
C2004 C 0.51358 0.06625 0.41602 0.0
H2005 H 0.44535 0.06134 0.3459 0.0
H2006 H 0.45756 0.06635 0.37857 0.0
H2007 H 0.51497 0.0713 0.38805 0.0
H2008 H 0.50989 0.02375 0.47549 0.0
H2009 H 0.49464 0.0289 0.447 0.0
H2010 H 0.47612 0.0475 0.43379 0.0
C2011 C 0.46482 0.06076 0.36791 0.0
C2012 C 0.50635 0.06613 0.39793 0.0
C2013 C 0.45788 0.05793 0.34921 0.0
C2014 C 0.51412 0.03713 0.47069 0.0
C2015 C 0.50535 0.04013 0.45444 0.0
C2016 C 0.4847 0.0528 0.42393 0.0
C2017 C 0.48106 0.05654 0.37275 0.0
C2018 C 0.4883 0.05885 0.3925 0.0
C2019 C 0.51096 0.05701 0.44741 0.0
C2020 C 0.50289 0.05918 0.42908 0.0
H2021 H 0.49066 0.04106 0.32936 0.0
H2022 H 0.50258 0.04572 0.36188 0.0
H2023 H 0.46351 0.04688 0.40198 0.0
H2024 H 0.54505 0.07894 0.48073 0.0
H2025 H 0.52965 0.0843 0.4523 0.0
C2026 C 0.78458 0.71684 0.05375 0.0
C2027 C 0.76898 0.70264 0.04892 0.0
C2028 C 0.78791 0.72853 0.07134 0.0
C2029 C 0.76641 0.74706 0.11039 0.0
H2030 H 0.80757 0.74536 0.14264 0.0
C2031 C 0.76898 0.76267 0.18977 0.0
C2032 C 0.78495 0.77124 0.20091 0.0
C2033 C 0.76845 0.75755 0.17051 0.0
C2034 C 0.79621 0.74639 0.13376 0.0
H2035 H 0.74437 0.69005 0.05836 0.0
H2036 H 0.74996 0.71075 0.08873 0.0
H2037 H 0.80412 0.73112 0.10964 0.0
H2038 H 0.81293 0.78149 0.20045 0.0
H2039 H 0.81197 0.77281 0.16662 0.0
H2040 H 0.75834 0.76216 0.13431 0.0
C2041 C 0.75968 0.71272 0.07905 0.0
C2042 C 0.79424 0.73819 0.11486 0.0
C2043 C 0.75654 0.70081 0.06171 0.0
C2044 C 0.80041 0.77481 0.19226 0.0
C2045 C 0.79987 0.76978 0.17288 0.0
C2046 C 0.76847 0.75546 0.12917 0.0
C2047 C 0.77548 0.7265 0.08414 0.0
C2048 C 0.77905 0.73794 0.10318 0.0
C2049 C 0.78386 0.761 0.16176 0.0
C2050 C 0.78309 0.75465 0.14126 0.0
H2051 H 0.79443 0.71849 0.04417 0.0
H2052 H 0.80019 0.73908 0.07499 0.0
H2053 H 0.75468 0.74725 0.10159 0.0
H2054 H 0.75682 0.75957 0.19594 0.0
H2055 H 0.75593 0.75042 0.16254 0.0
C2056 C 0.14087 0.0172 0.69866 0.0
C2057 C 0.13127 0.01092 0.71298 0.0
C2058 C 0.13239 0.01911 0.68142 0.0
C2059 C 0.08888 1.00451 0.65037 0.0
H2060 H 0.10978 0.04562 0.62562 0.0
C2061 C 0.06148 0.01066 0.57418 0.0
C2062 C 0.06205 0.0289 0.56967 0.0
C2063 C 0.06955 1.00827 0.59148 0.0
C2064 C 0.10357 0.03407 0.63226 0.0
H2065 H 0.1048 1.0016 0.71971 0.0
H2066 H 0.09008 1.00475 0.68982 0.0
H2067 H 0.12398 0.042 0.65539 0.0
H2068 H 0.0719 0.05894 0.58056 0.0
H2069 H 0.08584 0.05485 0.61032 0.0
H2070 H 0.06839 0.99668 0.62726 0.0
C2071 C 0.10428 1.00817 0.69185 0.0
C2072 C 0.11193 0.03183 0.64944 0.0
C2073 C 0.11278 1.00641 0.70919 0.0
C2074 C 0.07106 0.04462 0.58324 0.0
C2075 C 0.07925 0.04224 0.60045 0.0
C2076 C 0.0806 1.00664 0.63308 0.0
C2077 C 0.11389 0.01469 0.67758 0.0
C2078 C 0.10479 0.01702 0.65896 0.0
C2079 C 0.07872 0.02401 0.60501 0.0
C2080 C 0.08771 0.02152 0.62362 0.0
H2081 H 0.15508 0.02085 0.70082 0.0
H2082 H 0.14048 0.0239 0.67097 0.0
H2083 H 0.08285 0.99278 0.65689 0.0
H2084 H 0.05476 0.9981 0.56429 0.0
H2085 H 0.06885 0.99395 0.59407 0.0
C2086 C 0.80434 0.41022 0.43192 0.0
C2087 C 0.80266 0.40539 0.4497 0.0
C2088 C 0.80592 0.3966 0.41691 0.0
C2089 C 0.79439 0.3455 0.40012 0.0
H2090 H 0.82724 0.35755 0.3644 0.0
C2091 C 0.79379 0.29223 0.33342 0.0
C2092 C 0.79394 0.3002 0.31711 0.0
C2093 C 0.79832 0.30398 0.3509 0.0
C2094 C 0.81797 0.35398 0.37424 0.0
H2095 H 0.80144 0.38246 0.46568 0.0
H2096 H 0.80402 0.3587 0.43941 0.0
H2097 H 0.82799 0.38063 0.39256 0.0
H2098 H 0.79976 0.32649 0.30609 0.0
H2099 H 0.80735 0.34693 0.33638 0.0
H2100 H 0.78381 0.31925 0.38152 0.0
C2101 C 0.80412 0.37303 0.43713 0.0
C2102 C 0.81841 0.36719 0.39033 0.0
C2103 C 0.80269 0.38667 0.45216 0.0
C2104 C 0.79955 0.31996 0.31846 0.0
C2105 C 0.80401 0.33168 0.33586 0.0
C2106 C 0.79385 0.33235 0.38397 0.0
C2107 C 0.80571 0.37785 0.41936 0.0
C2108 C 0.80639 0.36322 0.40322 0.0
C2109 C 0.80305 0.32387 0.3523 0.0
C2110 C 0.80538 0.33661 0.37063 0.0
H2111 H 0.8044 0.42452 0.42957 0.0
H2112 H 0.80691 0.40063 0.40329 0.0
H2113 H 0.78488 0.34213 0.40977 0.0
H2114 H 0.78961 0.27699 0.33271 0.0
H2115 H 0.79771 0.29752 0.3633 0.0
C2116 C 0.46693 0.07294 0.23527 0.0
C2117 C 0.45005 0.06112 0.23365 0.0
C2118 C 0.47799 0.07013 0.22163 0.0
C2119 C 0.48721 0.03191 0.18958 0.0
H2120 H 0.51432 0.07156 0.16702 0.0
C2121 C 0.5236 0.01716 0.1259 0.0
C2122 C 0.53776 0.0313 0.12283 0.0
C2123 C 0.51504 0.01989 0.14174 0.0
C2124 C 0.5072 0.06037 0.17353 0.0
H2125 H 0.43106 0.03783 0.21614 0.0
H2126 H 0.45057 0.03283 0.19228 0.0
H2127 H 0.49369 0.07935 0.18843 0.0
H2128 H 0.55548 0.05826 0.13509 0.0
H2129 H 0.54116 0.0625 0.16323 0.0
H2130 H 0.50085 0.01294 0.175 0.0
C2131 C 0.45517 0.04422 0.20413 0.0
C2132 C 0.49523 0.06484 0.18559 0.0
C2133 C 0.44398 0.04722 0.21763 0.0
C2134 C 0.54454 0.04712 0.13697 0.0
C2135 C 0.53614 0.04971 0.15297 0.0
C2136 C 0.49937 0.02747 0.17771 0.0
C2137 C 0.47241 0.05529 0.20634 0.0
C2138 C 0.48498 0.0506 0.19349 0.0
C2139 C 0.5207 0.03667 0.15499 0.0
C2140 C 0.50934 0.04161 0.16936 0.0
H2141 H 0.47188 0.08371 0.24755 0.0
H2142 H 0.49125 0.07884 0.22361 0.0
H2143 H 0.47967 0.02077 0.19585 0.0
H2144 H 0.51837 1.00457 0.11545 0.0
H2145 H 0.50325 0.00948 0.14282 0.0
C2146 C 0.78235 0.6927 0.92107 0.0
C2147 C 0.78113 0.70372 0.93824 0.0
C2148 C 0.78573 0.70123 0.90545 0.0
C2149 C 0.80334 0.74721 0.89097 0.0
H2150 H 0.7757 0.72307 0.84369 0.0
C2151 C 0.81644 0.77486 0.82207 0.0
C2152 C 0.80158 0.7761 0.81071 0.0
C2153 C 0.81459 0.76536 0.8373 0.0
C2154 C 0.78348 0.73001 0.8568 0.0
H2155 H 0.78283 0.73241 0.95258 0.0
H2156 H 0.78872 0.74732 0.92527 0.0
H2157 H 0.77135 0.70819 0.87122 0.0
H2158 H 0.77315 0.7683 0.8062 0.0
H2159 H 0.76989 0.75167 0.83274 0.0
H2160 H 0.81523 0.76923 0.8766 0.0
C2161 C 0.78716 0.73208 0.92393 0.0
C2162 C 0.78112 0.72139 0.87253 0.0
C2163 C 0.78371 0.72352 0.93955 0.0
C2164 C 0.78484 0.76748 0.81469 0.0
C2165 C 0.78299 0.75789 0.82983 0.0
C2166 C 0.80577 0.75578 0.8752 0.0
C2167 C 0.78805 0.721 0.90665 0.0
C2168 C 0.79095 0.72995 0.88983 0.0
C2169 C 0.79783 0.75686 0.84141 0.0
C2170 C 0.79577 0.74735 0.85797 0.0
H2171 H 0.78048 0.67741 0.91959 0.0
H2172 H 0.78657 0.69233 0.89242 0.0
H2173 H 0.81123 0.75407 0.90404 0.0
H2174 H 0.8295 0.78132 0.81925 0.0
H2175 H 0.82628 0.76462 0.84583 0.0
C2176 C 0.79832 0.07923 0.02936 0.0
C2177 C 0.79909 0.09706 0.02404 0.0
C2178 C 0.81301 0.07129 0.02925 0.0
C2179 C 0.85413 0.07393 0.0079 0.0
H2180 H 0.86803 0.04883 0.04789 0.0
C2181 C 0.92089 0.05479 0.01461 0.0
C2182 C 0.92119 0.03645 0.01804 0.0
C2183 C 0.90579 0.06171 0.01618 0.0
C2184 C 0.86417 0.05564 0.03656 0.0
H2185 H 0.81601 0.12075 0.01489 0.0
H2186 H 0.84157 0.10701 0.01492 0.0
H2187 H 0.84181 0.06184 0.04903 0.0
H2188 H 0.90608 0.0112 0.02634 0.0
H2189 H 0.87946 0.02333 0.02895 0.0
H2190 H 0.87647 0.06789 0.99547 0.0
C2191 C 0.82955 0.099 0.01884 0.0
C2192 C 0.84919 0.06305 0.03719 0.0
C2193 C 0.81491 0.10691 0.01892 0.0
C2194 C 0.90616 0.02533 0.02348 0.0
C2195 C 0.891 0.03231 0.02512 0.0
C2196 C 0.86907 0.06658 0.00729 0.0
C2197 C 0.82871 0.08103 0.02381 0.0
C2198 C 0.84415 0.07246 0.02296 0.0
C2199 C 0.89062 0.05046 0.0212 0.0
C2200 C 0.87436 0.05755 0.0217 0.0
H2201 H 0.78632 0.07128 0.03338 0.0
H2202 H 0.81195 0.05735 0.03302 0.0
H2203 H 0.85035 0.08071 0.99651 0.0
H2204 H 0.93219 0.06361 0.01017 0.0
H2205 H 0.90593 0.07586 0.01332 0.0
C2206 C 0.36315 0.43225 0.03893 0.0
C2207 C 0.3516 0.4433 0.03356 0.0
C2208 C 0.38133 0.43964 0.04131 0.0
C2209 C 0.41455 0.48503 0.04977 0.0
H2210 H 0.44485 0.45587 0.02552 0.0
C2211 C 0.48474 0.50179 0.01962 0.0
C2212 C 0.49444 0.5156 0.03439 0.0
C2213 C 0.46854 0.49059 0.02201 0.0
C2214 C 0.43655 0.46415 0.03243 0.0
H2215 H 0.35015 0.47088 0.02676 0.0
H2216 H 0.38167 0.48368 0.03097 0.0
H2217 H 0.41368 0.44125 0.02513 0.0
H2218 H 0.49542 0.52779 0.06352 0.0
H2219 H 0.46711 0.5082 0.06775 0.0
H2220 H 0.43709 0.50815 0.05644 0.0
C2221 C 0.37671 0.46936 0.03344 0.0
C2222 C 0.41876 0.45573 0.03234 0.0
C2223 C 0.35862 0.46195 0.0309 0.0
C2224 C 0.48809 0.51738 0.05185 0.0
C2225 C 0.47188 0.5062 0.05424 0.0
C2226 C 0.43229 0.4934 0.04993 0.0
C2227 C 0.38828 0.45829 0.03861 0.0
C2228 C 0.4075 0.46626 0.04063 0.0
C2229 C 0.46172 0.49302 0.03921 0.0
C2230 C 0.44343 0.4832 0.04092 0.0
H2231 H 0.35816 0.41781 0.04106 0.0
H2232 H 0.38996 0.43083 0.04537 0.0
H2233 H 0.40623 0.49343 0.05647 0.0
H2234 H 0.48938 0.5001 0.00602 0.0
H2235 H 0.46099 0.48069 0.01011 0.0
C2236 C 0.36815 0.6079 0.75409 0.0
C2237 C 0.38659 0.61066 0.7573 0.0
C2238 C 0.3598 0.62343 0.75524 0.0
C2239 C 0.36813 0.67767 0.77153 0.0
H2240 H 0.32252 0.67117 0.74375 0.0
C2241 C 0.33426 0.7427 0.76741 0.0
C2242 C 0.31574 0.73951 0.766 0.0
C2243 C 0.34298 0.72743 0.76651 0.0
C2244 C 0.33517 0.67341 0.75186 0.0
H2245 H 0.41045 0.63278 0.76421 0.0
H2246 H 0.39623 0.65952 0.76582 0.0
H2247 H 0.33695 0.64476 0.74184 0.0
H2248 H 0.29221 0.71693 0.76248 0.0
H2249 H 0.30712 0.69077 0.76098 0.0
H2250 H 0.36635 0.70649 0.78131 0.0
C2251 C 0.38794 0.64531 0.76275 0.0
C2252 C 0.34361 0.65796 0.75079 0.0
C2253 C 0.39626 0.62976 0.7617 0.0
C2254 C 0.30642 0.72031 0.76364 0.0
C2255 C 0.3151 0.70508 0.76262 0.0
C2256 C 0.35972 0.69317 0.7725 0.0
C2257 C 0.36943 0.64264 0.75955 0.0
C2258 C 0.36032 0.65956 0.76064 0.0
C2259 C 0.33363 0.70816 0.764 0.0
C2260 C 0.34295 0.69147 0.76276 0.0
H2261 H 0.36003 0.59359 0.75074 0.0
H2262 H 0.34562 0.62018 0.75295 0.0
H2263 H 0.38074 0.67996 0.77971 0.0
H2264 H 0.34213 0.75708 0.76915 0.0
H2265 H 0.35717 0.73083 0.76747 0.0
C2266 C 0.19591 0.63178 0.48489 0.0
C2267 C 0.20892 0.62128 0.48396 0.0
C2268 C 0.17951 0.62451 0.47449 0.0
C2269 C 0.15047 0.5784 0.45511 0.0
H2270 H 0.11953 0.6105 0.4422 0.0
C2271 C 0.0776 0.55108 0.45339 0.0
C2272 C 0.07176 0.56302 0.46726 0.0
C2273 C 0.09287 0.55794 0.44558 0.0
C2274 C 0.12806 0.60127 0.4454 0.0
H2275 H 0.21546 0.59555 0.47047 0.0
H2276 H 0.18686 0.58295 0.45204 0.0
H2277 H 0.15125 0.62338 0.44725 0.0
H2278 H 0.07578 0.59198 0.48194 0.0
H2279 H 0.10228 0.60388 0.46841 0.0
H2280 H 0.12736 0.55667 0.45435 0.0
C2281 C 0.18919 0.59661 0.46112 0.0
C2282 C 0.14619 0.60866 0.44843 0.0
C2283 C 0.20555 0.60381 0.47169 0.0
C2284 C 0.08018 0.58237 0.47153 0.0
C2285 C 0.09528 0.58925 0.46359 0.0
C2286 C 0.1324 0.571 0.45195 0.0
C2287 C 0.17581 0.60665 0.46276 0.0
C2288 C 0.1575 0.59763 0.45442 0.0
C2289 C 0.10233 0.57686 0.45135 0.0
C2290 C 0.12096 0.5827 0.44817 0.0
H2291 H 0.19816 0.64534 0.49416 0.0
H2292 H 0.16947 0.63251 0.4764 0.0
H2293 H 0.15871 0.56947 0.45976 0.0
H2294 H 0.07124 0.53611 0.44966 0.0
H2295 H 0.09799 0.54814 0.43608 0.0
C2296 C 0.71505 1.00726 0.76954 0.0
C2297 C 0.69747 0.99702 0.7664 0.0
C2298 C 0.72793 0.99992 0.77823 0.0
C2299 C 0.73515 0.962 0.8046 0.0
H2300 H 0.77504 0.96245 0.7765 0.0
C2301 C 0.77256 0.90289 0.7973 0.0
C2302 C 0.79028 0.90701 0.79413 0.0
C2303 C 0.76349 0.91734 0.79995 0.0
C2304 C 0.76428 0.96256 0.78488 0.0
H2305 H 0.67942 0.97152 0.77072 0.0
H2306 H 0.70197 0.95846 0.78551 0.0
H2307 H 0.75447 0.98163 0.76973 0.0
H2308 H 0.81281 0.92961 0.7928 0.0
H2309 H 0.79698 0.95502 0.79769 0.0
H2310 H 0.74464 0.94216 0.81916 0.0
C2311 C 0.70579 0.97231 0.78152 0.0
C2312 C 0.75243 0.97356 0.78096 0.0
C2313 C 0.69288 0.9797 0.77289 0.0
C2314 C 0.79914 0.92604 0.79514 0.0
C2315 C 0.79005 0.94054 0.7978 0.0
C2316 C 0.74704 0.95098 0.80855 0.0
C2317 C 0.72351 0.98214 0.78388 0.0
C2318 C 0.73743 0.97294 0.79035 0.0
C2319 C 0.77197 0.93624 0.79954 0.0
C2320 C 0.76142 0.95067 0.79829 0.0
H2321 H 0.71895 0.02078 0.7649 0.0
H2322 H 0.74143 1.00795 0.78011 0.0
H2323 H 0.72386 0.96149 0.81229 0.0
H2324 H 0.7655 0.88835 0.79693 0.0
H2325 H 0.74957 0.91347 0.80112 0.0
C2326 C 0.73427 0.90885 0.53755 0.0
C2327 C 0.7515 0.92009 0.54077 0.0
C2328 C 0.71993 0.91732 0.53867 0.0
C2329 C 0.70769 0.962 0.55772 0.0
H2330 H 0.66781 0.94406 0.51948 0.0
C2331 C 0.65599 1.00552 0.54639 0.0
C2332 C 0.63825 0.99583 0.54242 0.0
C2333 C 0.66922 0.99549 0.54705 0.0
C2334 C 0.67874 0.94907 0.53041 0.0
H2335 H 0.76721 0.949 0.54784 0.0
H2336 H 0.74224 0.96376 0.54963 0.0
H2337 H 0.69203 0.92796 0.51918 0.0
H2338 H 0.62051 0.96795 0.53618 0.0
H2339 H 0.6437 0.95038 0.53727 0.0
H2340 H 0.69451 0.98324 0.56882 0.0
C2341 C 0.73978 0.94839 0.54646 0.0
C2342 C 0.69261 0.93984 0.53025 0.0
C2343 C 0.7541 0.93993 0.54534 0.0
C2344 C 0.63406 0.97583 0.53909 0.0
C2345 C 0.64733 0.96578 0.53972 0.0
C2346 C 0.69383 0.97122 0.55788 0.0
C2347 C 0.72252 0.9372 0.54306 0.0
C2348 C 0.70734 0.94634 0.54379 0.0
C2349 C 0.66507 0.97551 0.54371 0.0
C2350 C 0.67929 0.96499 0.54411 0.0
H2351 H 0.73185 0.89351 0.53405 0.0
H2352 H 0.7068 0.90829 0.53618 0.0
H2353 H 0.71868 0.96715 0.56855 0.0
H2354 H 0.65972 0.02091 0.54862 0.0
H2355 H 0.68276 1.00342 0.5498 0.0
C2356 C 0.39482 0.475 0.74942 0.0
C2357 C 0.38797 0.49148 0.75099 0.0
C2358 C 0.38438 0.45703 0.75046 0.0
C2359 C 0.34124 0.43245 0.76495 0.0
H2360 H 0.35243 0.38746 0.73792 0.0
C2361 C 0.29534 0.3567 0.75897 0.0
C2362 C 0.30265 0.34067 0.75892 0.0
C2363 C 0.30577 0.37483 0.75842 0.0
C2364 C 0.34917 0.39977 0.7458 0.0
H2365 H 0.36419 0.50132 0.75491 0.0
H2366 H 0.34581 0.46993 0.75634 0.0
H2367 H 0.36945 0.41884 0.73555 0.0
H2368 H 0.32707 0.33152 0.7582 0.0
H2369 H 0.34537 0.36315 0.75718 0.0
H2370 H 0.32075 0.41326 0.77493 0.0
C2371 C 0.35952 0.471 0.75458 0.0
C2372 C 0.35904 0.41802 0.74446 0.0
C2373 C 0.37008 0.48914 0.75362 0.0
C2374 C 0.32091 0.34345 0.75832 0.0
C2375 C 0.3314 0.36167 0.7576 0.0
C2376 C 0.33129 0.41419 0.76618 0.0
C2377 C 0.36646 0.4545 0.75299 0.0
C2378 C 0.35538 0.43482 0.75407 0.0
C2379 C 0.32402 0.37777 0.75765 0.0
C2380 C 0.33504 0.39743 0.75665 0.0
H2381 H 0.4085 0.47591 0.74756 0.0
H2382 H 0.39062 0.44514 0.7496 0.0
H2383 H 0.33797 0.44472 0.77288 0.0
H2384 H 0.28136 0.35525 0.75934 0.0
H2385 H 0.29935 0.38652 0.7582 0.0
C2386 C 0.16505 0.60203 0.21479 0.0
C2387 C 0.17282 0.58785 0.22044 0.0
C2388 C 0.17343 0.62123 0.22023 0.0
C2389 C 0.2042 0.65278 0.25778 0.0
H2390 H 0.20968 0.6888 0.22366 0.0
C2391 C 0.25165 0.7268 0.27499 0.0
C2392 C 0.24778 0.74108 0.2657 0.0
C2393 C 0.24028 0.70877 0.27163 0.0
C2394 C 0.20792 0.67906 0.23351 0.0
H2395 H 0.19598 0.5827 0.23532 0.0
H2396 H 0.21048 0.61613 0.24475 0.0
H2397 H 0.19481 0.6558 0.21206 0.0
H2398 H 0.22857 0.74873 0.24716 0.0
H2399 H 0.20822 0.71769 0.2421 0.0
H2400 H 0.21723 0.67599 0.27927 0.0
C2401 C 0.19781 0.61238 0.23636 0.0
C2402 C 0.19951 0.66013 0.22678 0.0
C2403 C 0.18956 0.59323 0.23078 0.0
C2404 C 0.23176 0.73779 0.25442 0.0
C2405 C 0.22025 0.71996 0.25135 0.0
C2406 C 0.21245 0.67178 0.26457 0.0
C2407 C 0.18963 0.62654 0.23154 0.0
C2408 C 0.19781 0.64677 0.23879 0.0
C2409 C 0.22482 0.70495 0.2591 0.0
C2410 C 0.2146 0.68512 0.25247 0.0
H2411 H 0.15218 0.59837 0.20682 0.0
H2412 H 0.1669 0.63192 0.21629 0.0
H2413 H 0.2028 0.64275 0.26738 0.0
H2414 H 0.2641 0.72906 0.28355 0.0
H2415 H 0.24427 0.69755 0.27777 0.0
C2416 C 0.49266 0.69461 0.41743 0.0
C2417 C 0.49546 0.7128 0.42833 0.0
C2418 C 0.4931 0.67874 0.42584 0.0
C2419 C 0.49066 0.66006 0.46997 0.0
H2420 H 0.52218 0.62996 0.4499 0.0
C2421 C 0.50036 0.58938 0.49319 0.0
C2422 C 0.51795 0.58816 0.49662 0.0
C2423 C 0.49624 0.60462 0.48558 0.0
C2424 C 0.51333 0.63823 0.45565 0.0
H2425 H 0.49994 0.72844 0.45667 0.0
H2426 H 0.50047 0.70061 0.47137 0.0
H2427 H 0.5165 0.65603 0.43487 0.0
H2428 H 0.54498 0.60226 0.4951 0.0
H2429 H 0.53774 0.62855 0.48168 0.0
H2430 H 0.4876 0.64216 0.49084 0.0
C2431 C 0.49801 0.69868 0.45631 0.0
C2432 C 0.50995 0.65303 0.44696 0.0
C2433 C 0.49777 0.71462 0.44788 0.0
C2434 C 0.5313 0.60271 0.49267 0.0
C2435 C 0.52717 0.61774 0.48486 0.0
C2436 C 0.49384 0.645 0.47854 0.0
C2437 C 0.49614 0.68066 0.44535 0.0
C2438 C 0.49872 0.66424 0.45411 0.0
C2439 C 0.50961 0.61873 0.48101 0.0
C2440 C 0.50541 0.63412 0.47159 0.0
H2441 H 0.49081 0.69271 0.40233 0.0
H2442 H 0.49142 0.66498 0.41706 0.0
H2443 H 0.4819 0.66843 0.47574 0.0
H2444 H 0.48976 0.57845 0.49612 0.0
H2445 H 0.48259 0.60504 0.48272 0.0
C2446 C 0.64294 0.31356 0.63772 0.0
C2447 C 0.63248 0.3241 0.64752 0.0
C2448 C 0.65907 0.31202 0.64631 0.0
C2449 C 0.69308 0.33415 0.68625 0.0
H2450 H 0.70104 0.28341 0.6849 0.0
C2451 C 0.73571 0.31573 0.74446 0.0
C2452 C 0.74685 0.30342 0.74019 0.0
C2453 C 0.72405 0.31897 0.73056 0.0
C2454 C 0.69922 0.29771 0.68513 0.0
H2455 H 0.63098 0.34181 0.67372 0.0
H2456 H 0.65903 0.33924 0.6886 0.0
H2457 H 0.6764 0.28821 0.66492 0.0
H2458 H 0.75448 0.2847 0.71806 0.0
H2459 H 0.73384 0.29028 0.69347 0.0
H2460 H 0.71551 0.34361 0.70682 0.0
C2461 C 0.65487 0.3322 0.67429 0.0
C2462 C 0.6851 0.30047 0.67369 0.0
C2463 C 0.63873 0.33358 0.6658 0.0
C2464 C 0.74611 0.29434 0.72166 0.0
C2465 C 0.73426 0.29748 0.70766 0.0
C2466 C 0.70716 0.33141 0.69761 0.0
C2467 C 0.66512 0.32119 0.66476 0.0
C2468 C 0.68157 0.31864 0.67459 0.0
C2469 C 0.72314 0.30991 0.712 0.0
C2470 C 0.71005 0.31308 0.69765 0.0
H2471 H 0.63846 0.30606 0.62361 0.0
H2472 H 0.66674 0.30354 0.63858 0.0
H2473 H 0.69092 0.34838 0.68697 0.0
H2474 H 0.73594 0.32289 0.75863 0.0
H2475 H 0.71544 0.32831 0.73448 0.0
C2476 C 0.03203 0.3438 0.92714 0.0
C2477 C 0.02154 0.32679 0.93059 0.0
C2478 C 0.03442 0.36067 0.93985 0.0
C2479 C 0.01242 0.38395 0.97558 0.0
H2480 H 0.05615 0.42229 0.98366 0.0
C2481 C 0.0153 0.46364 0.99564 0.0
C2482 C 0.02943 0.47522 0.00808 0.0
C2483 C 0.0149 0.44451 0.98944 0.0
C2484 C 0.0439 0.41167 0.98181 0.0
H2485 H 0.00581 0.31409 0.95048 0.0
H2486 H 0.00996 0.34374 0.97277 0.0
H2487 H 0.05528 0.3903 0.96749 0.0
H2488 H 0.05408 0.47561 0.02409 0.0
H2489 H 0.05336 0.44213 0.01316 0.0
H2490 H 0.00097 0.40541 0.98963 0.0
C2491 C 0.01624 0.34394 0.9601 0.0
C2492 C 0.04337 0.39339 0.97238 0.0
C2493 C 0.01394 0.32695 0.94738 0.0
C2494 C 0.04303 0.46712 0.01442 0.0
C2495 C 0.04266 0.44795 0.00814 0.0
C2496 C 0.01294 0.40224 0.98497 0.0
C2497 C 0.02634 0.36103 0.95634 0.0
C2498 C 0.02752 0.37947 0.96873 0.0
C2499 C 0.02862 0.43647 0.99549 0.0
C2500 C 0.02858 0.41645 0.98776 0.0
H2501 H 0.03817 0.34421 0.91439 0.0
H2502 H 0.04207 0.37361 0.93639 0.0
H2503 H -2e-05 0.3736 0.97291 0.0
H2504 H 0.00458 0.46936 0.99049 0.0
H2505 H 0.00403 0.43616 0.97947 0.0
C2506 C 0.02465 0.80492 0.18278 0.0
C2507 C 0.02871 0.81038 0.1657 0.0
C2508 C 0.00835 0.80544 0.1889 0.0
C2509 C 0.96266 0.80454 0.17232 0.0
H2510 H 0.96019 0.82119 0.22486 0.0
C2511 C 0.89907 0.78684 0.20754 0.0
C2512 C 0.89626 0.80038 0.22215 0.0
C2513 C 0.91464 0.78999 0.19922 0.0
C2514 C 0.96061 0.81672 0.21009 0.0
H2515 H 0.01873 0.8208 0.14168 0.0
H2516 H 0.99017 0.82176 0.15245 0.0
H2517 H 0.98868 0.82356 0.21338 0.0
H2518 H 0.90711 0.82834 0.23867 0.0
H2519 H 0.9342 0.83389 0.2241 0.0
H2520 H 0.93451 0.79768 0.16909 0.0
C2521 C -0.00035 0.81695 0.16102 0.0
C2522 C 0.97696 0.81787 0.20355 0.0
C2523 C 0.01604 0.81649 0.15491 0.0
C2524 C 0.90903 0.81748 0.22768 0.0
C2525 C 0.92455 0.82065 0.21935 0.0
C2526 C 0.94625 0.80335 0.17888 0.0
C2527 C 0.99563 0.81142 0.1781 0.0
C2528 C 0.9782 0.81154 0.18465 0.0
C2529 C 0.92772 0.80677 0.20529 0.0
C2530 C 0.94504 0.80923 0.1979 0.0
H2531 H 0.03404 0.80008 0.19146 0.0
H2532 H 0.00559 0.80081 0.20198 0.0
H2533 H 0.96316 0.79944 0.15769 0.0
H2534 H 0.88958 0.77344 0.20307 0.0
H2535 H 0.91672 0.77891 0.18857 0.0
C2536 C 0.48085 0.31868 0.13614 0.0
C2537 C 0.4835 0.30106 0.12772 0.0
C2538 C 0.48018 0.33302 0.12562 0.0
C2539 C 0.47585 0.34386 0.07788 0.0
H2540 H 0.50994 0.39045 0.09941 0.0
C2541 C 0.50357 0.40032 0.03402 0.0
C2542 C 0.50792 0.41959 0.04247 0.0
C2543 C 0.49813 0.38608 0.04448 0.0
C2544 C 0.50009 0.37775 0.09329 0.0
H2545 H 0.48612 0.28412 0.10146 0.0
H2546 H 0.48479 0.30912 0.08308 0.0
H2547 H 0.50332 0.36507 0.11749 0.0
H2548 H 0.5098 0.43891 0.06864 0.0
H2549 H 0.49961 0.41422 0.08662 0.0
H2550 H 0.47266 0.35651 0.05362 0.0
C2551 C 0.48331 0.31187 0.0978 0.0
C2552 C 0.49631 0.36317 0.10368 0.0
C2553 C 0.48415 0.29758 0.10835 0.0
C2554 C 0.50638 0.42426 0.06157 0.0
C2555 C 0.50075 0.41005 0.07198 0.0
C2556 C 0.47948 0.35856 0.06752 0.0
C2557 C 0.48196 0.32994 0.10647 0.0
C2558 C 0.48435 0.34599 0.09601 0.0
C2559 C 0.49674 0.39076 0.06363 0.0
C2560 C 0.49186 0.37558 0.075 0.0
H2561 H 0.48024 0.32178 0.15102 0.0
H2562 H 0.4789 0.34676 0.13259 0.0
H2563 H 0.46649 0.33079 0.07168 0.0
H2564 H 0.50432 0.39618 0.01927 0.0
H2565 H 0.49538 0.37139 0.0376 0.0
C2566 C 0.02966 0.30566 0.33611 0.0
C2567 C 0.04318 0.31428 0.3266 0.0
C2568 C 0.01237 0.30021 0.32752 0.0
C2569 C 0.98454 0.31242 0.29045 0.0
H2570 H 0.94988 0.26988 0.30063 0.0
C2571 C 0.9122 0.3006 0.26245 0.0
C2572 C 0.90085 0.29899 0.27635 0.0
C2573 C 0.92933 0.2984 0.2658 0.0
C2574 C 0.95947 0.28175 0.29763 0.0
H2575 H 0.04945 0.32277 0.30026 0.0
H2576 H 0.01945 0.31281 0.28514 0.0
H2577 H 0.98085 0.2735 0.31172 0.0
H2578 H 0.89837 0.2931 0.3044 0.0
H2579 H 0.92822 0.28919 0.31019 0.0
H2580 H 0.96322 0.32091 0.27673 0.0
C2581 C 0.02205 0.31082 0.29942 0.0
C2582 C 0.97715 0.28388 0.30402 0.0
C2583 C 0.03925 0.31649 0.30807 0.0
C2584 C 0.90671 0.29422 0.29332 0.0
C2585 C 0.92381 0.29195 0.29664 0.0
C2586 C 0.96694 0.31021 0.28396 0.0
C2587 C 0.00834 0.30307 0.30919 0.0
C2588 C 0.98984 0.29947 0.30082 0.0
C2589 C 0.9354 0.29448 0.28309 0.0
C2590 C 0.95419 0.2951 0.28781 0.0
H2591 H 0.03234 0.30375 0.3504 0.0
H2592 H 0.0021 0.29448 0.33552 0.0
H2593 H 0.99388 0.3248 0.28803 0.0
H2594 H 0.90793 0.30389 0.24909 0.0
H2595 H 0.93797 0.30021 0.25505 0.0
C2596 C 0.00661 0.67383 0.62451 0.0
C2597 C 6e-05 0.68966 0.62133 0.0
C2598 C 0.00547 0.65861 0.61001 0.0
C2599 C 0.00065 0.64687 0.55872 0.0
H2600 H 0.99105 0.59486 0.56759 0.0
C2601 C 0.01784 0.5865 0.50948 0.0
C2602 C 0.00715 0.56813 0.50717 0.0
C2603 C 0.01443 0.60122 0.52209 0.0
C2604 C 0.99354 0.60928 0.56482 0.0
H2605 H 0.98691 0.70177 0.60046 0.0
H2606 H 0.98476 0.67517 0.5753 0.0
H2607 H 0.99012 0.62059 0.59274 0.0
H2608 H 0.98406 0.55072 0.51542 0.0
H2609 H 0.97784 0.57663 0.53739 0.0
H2610 H 0.00403 0.63561 0.53084 0.0
C2611 C 0.99104 0.67464 0.58892 0.0
C2612 C 0.99322 0.62404 0.5793 0.0
C2613 C 0.99224 0.68988 0.60337 0.0
C2614 C 0.99245 0.56484 0.51696 0.0
C2615 C 0.98902 0.5796 0.52965 0.0
C2616 C 0.00098 0.63213 0.54428 0.0
C2617 C 0.9977 0.65887 0.59204 0.0
C2618 C 0.99702 0.64303 0.57647 0.0
C2619 C 0.00019 0.59788 0.53259 0.0
C2620 C 0.99778 0.61321 0.54727 0.0
H2621 H 0.01272 0.67322 0.63818 0.0
H2622 H 0.01097 0.64679 0.61281 0.0
H2623 H 0.00376 0.66133 0.5561 0.0
H2624 H 0.02927 0.58932 0.50205 0.0
H2625 H 0.02346 0.61501 0.5242 0.0
C2626 C 0.64743 0.824 0.85448 0.0
C2627 C 0.63205 0.82704 0.84558 0.0
C2628 C 0.66348 0.82967 0.84755 0.0
C2629 C 0.67818 0.83638 0.80223 0.0
H2630 H 0.72427 0.84491 0.82982 0.0
C2631 C 0.75382 0.83325 0.78838 0.0
C2632 C 0.74986 0.81469 0.77801 0.0
C2633 C 0.74054 0.84092 0.79595 0.0
C2634 C 0.71154 0.84298 0.82193 0.0
H2635 H 0.62147 0.84019 0.82395 0.0
H2636 H 0.64943 0.85086 0.81246 0.0
H2637 H 0.69917 0.84866 0.84661 0.0
H2638 H 0.7289 0.79009 0.76647 0.0
H2639 H 0.70582 0.80349 0.77944 0.0
H2640 H 0.6904 0.83006 0.77767 0.0
C2641 C 0.64914 0.84338 0.82419 0.0
C2642 C 0.69714 0.84489 0.83154 0.0
C2643 C 0.63311 0.8373 0.83079 0.0
C2644 C 0.73235 0.80437 0.77449 0.0
C2645 C 0.71912 0.81211 0.7818 0.0
C2646 C 0.69252 0.83454 0.79268 0.0
C2647 C 0.66435 0.8388 0.83186 0.0
C2648 C 0.68019 0.84085 0.82184 0.0
C2649 C 0.72312 0.83027 0.79292 0.0
C2650 C 0.70916 0.83697 0.8025 0.0
H2651 H 0.64688 0.81618 0.86598 0.0
H2652 H 0.6749 0.82578 0.85374 0.0
H2653 H 0.66535 0.83296 0.79423 0.0
H2654 H 0.76725 0.8415 0.79133 0.0
H2655 H 0.74391 0.85497 0.80445 0.0
C2656 C 0.4305 0.54835 0.68062 0.0
C2657 C 0.44006 0.55691 0.6982 0.0
C2658 C 0.43876 0.54721 0.66398 0.0
C2659 C 0.47984 0.56892 0.64363 0.0
H2660 H 0.46551 0.52509 0.60404 0.0
C2661 C 0.52152 0.56116 0.58128 0.0
C2662 C 0.51428 0.55082 0.5634 0.0
C2663 C 0.5118 0.56147 0.5967 0.0
C2664 C 0.46967 0.53764 0.61473 0.0
H2665 H 0.46623 0.57098 0.7114 0.0
H2666 H 0.48043 0.56925 0.68276 0.0
H2667 H 0.45042 0.52645 0.63213 0.0
H2668 H 0.49046 0.53227 0.54836 0.0
H2669 H 0.47315 0.53318 0.57512 0.0
H2670 H 0.4987 0.58045 0.62634 0.0
C2671 C 0.46644 0.5634 0.68169 0.0
C2672 C 0.46092 0.53841 0.63108 0.0
C2673 C 0.45823 0.56433 0.69833 0.0
C2674 C 0.49662 0.54061 0.56168 0.0
C2675 C 0.4867 0.54104 0.57728 0.0
C2676 C 0.48843 0.56826 0.62728 0.0
C2677 C 0.45694 0.5548 0.66406 0.0
C2678 C 0.46593 0.55399 0.64606 0.0
C2679 C 0.49406 0.5516 0.59524 0.0
C2680 C 0.48382 0.55249 0.61244 0.0
H2681 H 0.41653 0.54239 0.67968 0.0
H2682 H 0.43072 0.5406 0.65093 0.0
H2683 H 0.48404 0.58146 0.65434 0.0
H2684 H 0.53506 0.56909 0.58355 0.0
H2685 H 0.51855 0.56935 0.60997 0.0
C2686 C 0.78894 0.20251 0.98697 0.0
C2687 C 0.78355 0.18313 0.97913 0.0
C2688 C 0.78757 0.21636 0.97605 0.0
C2689 C 0.77759 0.22334 0.92709 0.0
H2690 H 0.75912 0.26491 0.95111 0.0
C2691 C 0.74424 0.26831 0.88557 0.0
C2692 C 0.75737 0.28443 0.88443 0.0
C2693 C 0.74591 0.25806 0.9 0.0
C2694 C 0.76419 0.25329 0.94433 0.0
H2695 H 0.77377 0.16304 0.9535 0.0
H2696 H 0.77092 0.18699 0.93464 0.0
H2697 H 0.76785 0.2424 0.96956 0.0
H2698 H 0.78119 0.30383 0.89911 0.0
H2699 H 0.7835 0.28629 0.92455 0.0
H2700 H 0.77326 0.23395 0.90177 0.0
C2701 C 0.77648 0.19168 0.94908 0.0
C2702 C 0.76944 0.24057 0.95485 0.0
C2703 C 0.77811 0.17788 0.95991 0.0
C2704 C 0.77076 0.29156 0.89945 0.0
C2705 C 0.7722 0.28149 0.91404 0.0
C2706 C 0.77204 0.23581 0.91658 0.0
C2707 C 0.78056 0.21106 0.95717 0.0
C2708 C 0.77616 0.22539 0.94632 0.0
C2709 C 0.76037 0.26415 0.91375 0.0
C2710 C 0.76524 0.25076 0.92512 0.0
H2711 H 0.79332 0.20696 1.00174 0.0
H2712 H 0.79134 0.23118 0.9826 0.0
H2713 H 0.783 0.2121 0.92011 0.0
H2714 H 0.7335 0.26273 0.87452 0.0
H2715 H 0.73663 0.24467 0.89967 0.0
C2716 C 0.10721 0.4864 0.17956 0.0
C2717 C 0.12465 0.49474 0.17751 0.0
C2718 C 0.09397 0.48371 0.16488 0.0
C2719 C 0.07042 0.49996 0.14053 0.0
H2720 H 0.07173 0.48533 0.08743 0.0
C2721 C 0.03618 0.53052 0.0839 0.0
C2722 C 0.02619 0.51756 0.06875 0.0
C2723 C 0.04617 0.52422 0.09723 0.0
C2724 C 0.07111 0.4892 0.10225 0.0
H2725 H 0.14222 0.50502 0.15798 0.0
H2726 H 0.11894 0.50046 0.13224 0.0
H2727 H 0.09375 0.47866 0.10976 0.0
H2728 H 0.01848 0.48794 0.05552 0.0
H2729 H 0.03638 0.47691 0.07878 0.0
H2730 H 0.04834 0.51126 0.13307 0.0
C2731 C 0.11555 0.49597 0.14521 0.0
C2732 C 0.08372 0.48551 0.11496 0.0
C2733 C 0.12887 0.49862 0.15995 0.0
C2734 C 0.02593 0.49813 0.06729 0.0
C2735 C 0.03625 0.49186 0.08042 0.0
C2736 C 0.05802 0.50385 0.12786 0.0
C2737 C 0.0979 0.48935 0.14788 0.0
C2738 C 0.08359 0.49107 0.13422 0.0
C2739 C 0.04657 0.50491 0.09537 0.0
C2740 C 0.05842 0.49877 0.10864 0.0
H2741 H 0.10363 0.483 0.19288 0.0
H2742 H 0.0805 0.47824 0.16717 0.0
H2743 H 0.07016 0.50469 0.15529 0.0
H2744 H 0.03666 0.54559 0.08511 0.0
H2745 H 0.05416 0.53454 0.10859 0.0
C2746 C 0.79147 0.85171 0.46784 0.0
C2747 C 0.78677 0.86935 0.46932 0.0
C2748 C 0.79025 0.84021 0.45035 0.0
C2749 C 0.76975 0.83316 0.40135 0.0
H2750 H 0.80897 0.81097 0.38928 0.0
C2751 C 0.8022 0.80634 0.33188 0.0
C2752 C 0.78685 0.79695 0.32 0.0
C2753 C 0.80148 0.81215 0.35091 0.0
C2754 C 0.79793 0.81711 0.39242 0.0
H2755 H 0.77674 0.88851 0.45356 0.0
H2756 H 0.7748 0.86871 0.42335 0.0
H2757 H 0.80856 0.82704 0.42104 0.0
H2758 H 0.75884 0.78544 0.31893 0.0
H2759 H 0.75767 0.79517 0.3521 0.0
H2760 H 0.75951 0.82417 0.37265 0.0
C2761 C 0.77923 0.86357 0.43562 0.0
C2762 C 0.79759 0.82611 0.41069 0.0
C2763 C 0.78048 0.87502 0.453 0.0
C2764 C 0.77089 0.79283 0.32766 0.0
C2765 C 0.77021 0.79849 0.34669 0.0
C2766 C 0.77012 0.82425 0.38312 0.0
C2767 C 0.78421 0.84609 0.43403 0.0
C2768 C 0.78367 0.83459 0.41526 0.0
C2769 C 0.78542 0.80857 0.3585 0.0
C2770 C 0.78436 0.81641 0.37832 0.0
H2771 H 0.79635 0.8469 0.48013 0.0
H2772 H 0.79405 0.82674 0.44961 0.0
H2773 H 0.7587 0.83929 0.40447 0.0
H2774 H 0.81469 0.80977 0.32641 0.0
H2775 H 0.81343 0.82008 0.35951 0.0
C2776 C 0.44079 0.55607 0.82705 0.0
C2777 C 0.4518 0.55775 0.81273 0.0
C2778 C 0.4476 0.55524 0.84551 0.0
C2779 C 0.49 0.5657 0.87814 0.0
H2780 H 0.46436 0.52931 0.90525 0.0
C2781 C 0.5152 0.56057 0.95523 0.0
C2782 C 0.51307 0.54238 0.9603 0.0
C2783 C 0.50743 0.56313 0.93786 0.0
C2784 C 0.47182 0.53955 0.89795 0.0
H2785 H 0.47887 0.56038 0.80731 0.0
H2786 H 0.49057 0.55952 0.83898 0.0
H2787 H 0.45144 0.533 0.87473 0.0
H2788 H 0.50064 0.51265 0.95045 0.0
H2789 H 0.48712 0.51709 0.92058 0.0
H2790 H 0.5104 0.57219 0.90123 0.0
C2791 C 0.47666 0.55875 0.83615 0.0
C2792 C 0.46425 0.54183 0.88037 0.0
C2793 C 0.46986 0.55922 0.81779 0.0
C2794 C 0.50273 0.52691 0.94729 0.0
C2795 C 0.49479 0.5295 0.93004 0.0
C2796 C 0.49745 0.56361 0.89581 0.0
C2797 C 0.4657 0.55643 0.85042 0.0
C2798 C 0.47325 0.55481 0.86995 0.0
C2799 C 0.49699 0.54766 0.92487 0.0
C2800 C 0.48863 0.55035 0.90606 0.0
H2801 H 0.42681 0.5546 0.82384 0.0
H2802 H 0.4386 0.55359 0.85595 0.0
H2803 H 0.49745 0.576 0.87088 0.0
H2804 H 0.52297 0.57293 0.96469 0.0
H2805 H 0.50945 0.5774 0.93474 0.0
C2806 C 0.7645 0.18332 0.07645 0.0
C2807 C 0.75626 0.16398 0.07488 0.0
C2808 C 0.76507 0.19599 0.09294 0.0
C2809 C 0.76439 0.19774 0.14289 0.0
H2810 H 0.75447 0.24749 0.14259 0.0
C2811 C 0.76701 0.24818 0.21133 0.0
C2812 C 0.77551 0.26727 0.21209 0.0
C2813 C 0.7622 0.23593 0.19427 0.0
C2814 C 0.75742 0.23372 0.14288 0.0
H2815 H 0.74209 0.14278 0.08937 0.0
H2816 H 0.74332 0.16496 0.11835 0.0
H2817 H 0.75104 0.22514 0.11328 0.0
H2818 H 0.78507 0.2888 0.19567 0.0
H2819 H 0.77718 0.2672 0.16571 0.0
H2820 H 0.77136 0.20634 0.17225 0.0
C2821 C 0.7493 0.17024 0.10674 0.0
C2822 C 0.75541 0.22093 0.12613 0.0
C2823 C 0.74857 0.15758 0.09016 0.0
C2824 C 0.77849 0.27413 0.19542 0.0
C2825 C 0.77389 0.26177 0.17829 0.0
C2826 C 0.76655 0.21054 0.15957 0.0
C2827 C 0.75756 0.18955 0.10826 0.0
C2828 C 0.75893 0.20286 0.126 0.0
C2829 C 0.76609 0.2424 0.17758 0.0
C2830 C 0.76311 0.22869 0.15979 0.0
H2831 H 0.7705 0.18874 0.06491 0.0
H2832 H 0.77171 0.21076 0.09383 0.0
H2833 H 0.76748 0.18402 0.14313 0.0
H2834 H 0.76458 0.24249 0.22398 0.0
H2835 H 0.75583 0.22123 0.19421 0.0
C2836 C 0.14028 0.5434 0.29264 0.0
C2837 C 0.12839 0.54541 0.27803 0.0
C2838 C 0.13663 0.54671 0.31109 0.0
C2839 C 0.1059 0.56498 0.34154 0.0
H2840 H 0.10755 0.52049 0.36396 0.0
C2841 C 0.05364 0.53286 0.38454 0.0
C2842 C 0.05821 0.52353 0.39899 0.0
C2843 C 0.06636 0.54079 0.37396 0.0
C2844 C 0.10737 0.5333 0.35825 0.0
H2845 H 0.10398 0.55373 0.27141 0.0
H2846 H 0.09743 0.559 0.30341 0.0
H2847 H 0.12348 0.52589 0.33749 0.0
H2848 H 0.07977 0.51614 0.41448 0.0
H2849 H 0.10202 0.52993 0.3959 0.0
H2850 H 0.08886 0.57169 0.36174 0.0
C2851 C 0.10968 0.55513 0.30073 0.0
C2852 C 0.11655 0.53642 0.34305 0.0
C2853 C 0.11332 0.55185 0.28232 0.0
C2854 C 0.07582 0.52282 0.40308 0.0
C2855 C 0.08857 0.53084 0.39257 0.0
C2856 C 0.0967 0.56185 0.35677 0.0
C2857 C 0.12104 0.55208 0.31525 0.0
C2858 C 0.11523 0.55179 0.334 0.0
C2859 C 0.08391 0.53961 0.37769 0.0
C2860 C 0.0967 0.54548 0.36469 0.0
H2861 H 0.15215 0.53873 0.28981 0.0
H2862 H 0.1457 0.54445 0.32205 0.0
H2863 H 0.10495 0.57715 0.33504 0.0
H2864 H 0.04015 0.53358 0.38109 0.0
H2865 H 0.06229 0.54713 0.36236 0.0
C2866 C 0.81206 0.87191 0.59689 0.0
C2867 C 0.79974 0.86445 0.58107 0.0
C2868 C 0.81097 0.86355 0.61291 0.0
C2869 C 0.78838 0.82004 0.63046 0.0
H2870 H 0.80162 0.85327 0.67853 0.0
C2871 C 0.76937 0.7977 0.70031 0.0
C2872 C 0.78353 0.80036 0.71424 0.0
C2873 C 0.7717 0.80552 0.68409 0.0
C2874 C 0.79795 0.84384 0.66518 0.0
H2875 H 0.77668 0.84232 0.56954 0.0
H2876 H 0.77427 0.82824 0.59758 0.0
H2877 H 0.80516 0.86656 0.65003 0.0
H2878 H 0.81118 0.81328 0.72215 0.0
H2879 H 0.81504 0.82766 0.69415 0.0
H2880 H 0.78049 0.79749 0.64586 0.0
C2881 C 0.78518 0.84014 0.59758 0.0
C2882 C 0.8001 0.85139 0.6488 0.0
C2883 C 0.78649 0.84828 0.58146 0.0
C2884 C 0.79997 0.81127 0.71181 0.0
C2885 C 0.80221 0.81943 0.69577 0.0
C2886 C 0.78591 0.81259 0.64685 0.0
C2887 C 0.7973 0.84775 0.61363 0.0
C2888 C 0.79537 0.8396 0.63116 0.0
C2889 C 0.78814 0.81644 0.68168 0.0
C2890 C 0.79069 0.82441 0.66434 0.0
H2891 H 0.82249 0.88432 0.59695 0.0
H2892 H 0.82084 0.86959 0.62474 0.0
H2893 H 0.78492 0.81037 0.61726 0.0
H2894 H 0.75656 0.78931 0.70178 0.0
H2895 H 0.76064 0.80311 0.67345 0.0
C2896 C 0.73469 0.44212 0.50868 0.0
C2897 C 0.75148 0.45348 0.50832 0.0
C2898 C 0.71993 0.44986 0.50737 0.0
C2899 C 0.70436 0.48982 0.49216 0.0
H2900 H 0.67165 0.4819 0.52881 0.0
C2901 C 0.65533 0.53695 0.50734 0.0
C2902 C 0.63846 0.52803 0.51066 0.0
C2903 C 0.66837 0.52669 0.50554 0.0
C2904 C 0.6805 0.48402 0.51829 0.0
H2905 H 0.76601 0.48168 0.50598 0.0
H2906 H 0.74032 0.49513 0.50373 0.0
H2907 H 0.69557 0.46544 0.52792 0.0
H2908 H 0.62204 0.50141 0.51489 0.0
H2909 H 0.64463 0.48344 0.51125 0.0
H2910 H 0.68943 0.50854 0.48264 0.0
C2911 C 0.73852 0.48026 0.5049 0.0
C2912 C 0.69417 0.47458 0.51778 0.0
C2913 C 0.75324 0.47258 0.50634 0.0
C2914 C 0.63485 0.50863 0.51204 0.0
C2915 C 0.64784 0.49838 0.5102 0.0
C2916 C 0.69066 0.4992 0.49261 0.0
C2917 C 0.72175 0.46902 0.5055 0.0
C2918 C 0.70637 0.47762 0.50489 0.0
C2919 C 0.66476 0.50732 0.50704 0.0
C2920 C 0.67874 0.49659 0.50585 0.0
H2921 H 0.73298 0.42734 0.51017 0.0
H2922 H 0.7071 0.44089 0.50776 0.0
H2923 H 0.71348 0.4922 0.48191 0.0
H2924 H 0.65845 0.55185 0.50609 0.0
H2925 H 0.68137 0.53402 0.50332 0.0
C2926 C 0.20488 0.13434 0.47028 0.0
C2927 C 0.21186 0.15251 0.4809 0.0
C2928 C 0.18753 0.12496 0.47101 0.0
C2929 C 0.15484 0.11984 0.50268 0.0
H2930 H 0.12182 0.09584 0.45891 0.0
C2931 C 0.08683 0.0743 0.5099 0.0
C2932 C 0.08004 0.05805 0.49629 0.0
C2933 C 0.10156 0.08784 0.50731 0.0
C2934 C 0.13093 0.10222 0.4713 0.0
H2935 H 0.20609 0.17529 0.50035 0.0
H2936 H 0.17581 0.15855 0.50205 0.0
H2937 H 0.15016 0.11574 0.45534 0.0
H2938 H 0.08332 0.04315 0.46929 0.0
H2939 H 0.10953 0.06607 0.46516 0.0
H2940 H 0.13633 0.10558 0.51865 0.0
C2941 C 0.18376 0.15174 0.493 0.0
C2942 C 0.14709 0.11375 0.46922 0.0
C2943 C 0.20103 0.16132 0.49196 0.0
C2944 C 0.08823 0.0556 0.48 0.0
C2945 C 0.10319 0.06891 0.47756 0.0
C2946 C 0.13884 0.10801 0.50476 0.0
C2947 C 0.17693 0.13341 0.48266 0.0
C2948 C 0.15923 0.12252 0.48488 0.0
C2949 C 0.11015 0.0852 0.49123 0.0
C2950 C 0.1267 0.09885 0.48908 0.0
H2951 H 0.21293 0.12724 0.46162 0.0
H2952 H 0.18259 0.11078 0.46301 0.0
H2953 H 0.16409 0.12628 0.51496 0.0
H2954 H 0.0809 0.07647 0.52268 0.0
H2955 H 0.10623 0.10031 0.51801 0.0
C2956 C 0.17902 0.94307 0.76838 0.0
C2957 C 0.18832 0.9621 0.76932 0.0
C2958 C 0.18769 0.92781 0.76781 0.0
C2959 C 0.23165 0.91463 0.75964 0.0
H2960 H 0.21163 0.86988 0.77983 0.0
C2961 C 0.27039 0.85402 0.76515 0.0
C2962 C 0.26129 0.83495 0.76445 0.0
C2963 C 0.26157 0.86913 0.76565 0.0
C2964 C 0.21749 0.88205 0.77384 0.0
H2965 H 0.2146 0.97935 0.77041 0.0
H2966 H 0.2296 0.9532 0.76963 0.0
H2967 H 0.19675 0.89597 0.78092 0.0
H2968 H 0.23513 0.81754 0.76379 0.0
H2969 H 0.21986 0.84343 0.76436 0.0
H2970 H 0.25235 0.90072 0.75251 0.0
C2971 C 0.21544 0.94982 0.76907 0.0
C2972 C 0.20879 0.89731 0.77448 0.0
C2973 C 0.20676 0.96508 0.76966 0.0
C2974 C 0.24285 0.8318 0.76428 0.0
C2975 C 0.234 0.84693 0.76478 0.0
C2976 C 0.24033 0.89937 0.75898 0.0
C2977 C 0.20618 0.93071 0.76811 0.0
C2978 C 0.21562 0.91408 0.76741 0.0
C2979 C 0.24309 0.86608 0.76548 0.0
C2980 C 0.23354 0.88262 0.76609 0.0
H2981 H 0.16487 0.93987 0.76801 0.0
H2982 H 0.17971 0.91359 0.76682 0.0
H2983 H 0.2375 0.9268 0.75363 0.0
H2984 H 0.28454 0.8574 0.76545 0.0
H2985 H 0.26945 0.88338 0.76651 0.0
C2986 C 0.34552 0.95778 0.03364 0.0
C2987 C 0.33437 0.96669 0.02392 0.0
C2988 C 0.36351 0.9656 0.037 0.0
C2989 C 0.4014 0.98749 0.0466 0.0
H2990 H 0.42 1.00065 1.00152 0.0
C2991 C 0.47553 0.0135 0.03731 0.0
C2992 C 0.48018 1.00632 0.01992 0.0
C2993 C 0.45806 1.00888 0.04098 0.0
C2994 C 0.41499 0.99697 0.01421 0.0
H2995 H 0.33314 0.99149 0.01133 0.0
H2996 H 0.36468 1.00521 0.01729 0.0
H2997 H 0.38858 0.99465 1.00293 0.0
H2998 H 0.4709 0.98709 0.99367 0.0
H2999 H 0.44059 0.97875 1.00022 0.0
H3000 H 0.42802 0.98918 0.0575 0.0
C3001 C 0.35947 0.99202 0.02203 0.0
C3002 C 0.39702 0.99385 0.01514 0.0
C3003 C 0.34143 0.98418 0.01863 0.0
C3004 C 0.46757 0.99306 0.00706 0.0
C3005 C 0.45023 0.98838 0.01075 0.0
C3006 C 0.41949 0.99068 0.04568 0.0
C3007 C 0.37073 0.98249 0.03075 0.0
C3008 C 0.38998 0.98867 0.03117 0.0
C3009 C 0.44517 0.99698 0.02732 0.0
C3010 C 0.42633 0.99492 0.02925 0.0
H3011 H 0.34048 0.94438 0.03809 0.0
H3012 H 0.37185 0.95781 0.04357 0.0
H3013 H 0.3963 0.98366 0.0592 0.0
H3014 H 0.48505 0.02376 0.04747 0.0
H3015 H 0.45445 0.01559 0.05391 0.0
C3016 C 0.87135 0.57388 0.80618 0.0
C3017 C 0.88925 0.58293 0.80807 0.0
C3018 C 0.85857 0.58457 0.80669 0.0
C3019 C 0.85205 0.63388 0.81776 0.0
H3020 H 0.81447 0.61618 0.77691 0.0
C3021 C 0.81645 0.68414 0.78586 0.0
C3022 C 0.79808 0.67874 0.78165 0.0
C3023 C 0.82581 0.67145 0.79165 0.0
C3024 C 0.82469 0.62115 0.78858 0.0
H3025 H 0.90783 0.61027 0.81305 0.0
H3026 H 0.88561 0.62888 0.81366 0.0
H3027 H 0.83412 0.59571 0.78355 0.0
H3028 H 0.7752 0.65561 0.78002 0.0
H3029 H 0.79175 0.63318 0.78979 0.0
H3030 H 0.84304 0.65967 0.82219 0.0
C3031 C 0.88138 0.61356 0.812 0.0
C3032 C 0.83594 0.60942 0.79244 0.0
C3033 C 0.89415 0.60288 0.81156 0.0
C3034 C 0.78934 0.66016 0.78304 0.0
C3035 C 0.79878 0.64737 0.7887 0.0
C3036 C 0.84088 0.64564 0.81381 0.0
C3037 C 0.86343 0.60452 0.80905 0.0
C3038 C 0.85002 0.61584 0.80678 0.0
C3039 C 0.8171 0.65298 0.7932 0.0
C3040 C 0.82738 0.63957 0.79889 0.0
H3041 H 0.86717 0.55851 0.80359 0.0
H3042 H 0.84486 0.5772 0.8047 0.0
H3043 H 0.86255 0.63911 0.82912 0.0
H3044 H 0.82367 0.69814 0.78446 0.0
H3045 H 0.83997 0.67601 0.79458 0.0
C3046 C 0.82111 0.64488 0.99011 0.0
C3047 C 0.80647 0.63567 0.99783 0.0
C3048 C 0.83642 0.63794 0.99016 0.0
C3049 C 0.85161 0.594 0.99313 0.0
H3050 H 0.89782 0.62746 0.00705 0.0
C3051 C 0.91187 0.56432 0.00892 0.0
C3052 C 0.92734 0.57183 1.00159 0.0
C3053 C 0.89779 0.57314 0.00843 0.0
C3054 C 0.88502 0.61797 1.00293 0.0
H3055 H 0.79659 0.61209 0.01188 0.0
H3056 H 0.82316 0.60014 0.01201 0.0
H3057 H 0.87186 0.64095 0.00579 0.0
H3058 H 0.94038 0.59481 0.98846 0.0
H3059 H 0.91563 0.61026 0.98753 0.0
H3060 H 0.8646 0.57104 0.99028 0.0
C3061 C 0.82277 0.61256 0.0057 0.0
C3062 C 0.87016 0.62568 1.0022 0.0
C3063 C 0.80755 0.6195 0.0057 0.0
C3064 C 0.92864 0.58875 0.9943 0.0
C3065 C 0.91448 0.59759 0.99377 0.0
C3066 C 0.86639 0.58632 0.99384 0.0
C3067 C 0.83734 0.6216 0.99783 0.0
C3068 C 0.85328 0.61374 0.99755 0.0
C3069 C 0.89879 0.58967 1.00055 0.0
C3070 C 0.88325 0.59816 0.99901 0.0
H3071 H 0.82074 0.65739 0.98396 0.0
H3072 H 0.84741 0.64514 0.9839 0.0
H3073 H 0.83881 0.58444 0.9891 0.0
H3074 H 0.91061 0.55153 0.01499 0.0
H3075 H 0.88605 0.56693 0.0142 0.0
C3076 C 0.1803 0.0938 0.76206 0.0
C3077 C 0.18634 0.0801 0.77095 0.0
C3078 C 0.19118 0.11167 0.76159 0.0
C3079 C 0.23111 0.1473 0.78558 0.0
H3080 H 0.22838 0.1689 0.74042 0.0
C3081 C 0.27691 0.22061 0.78053 0.0
C3082 C 0.27168 0.23221 0.76841 0.0
C3083 C 0.26688 0.20219 0.78071 0.0
C3084 C 0.22922 0.16343 0.75334 0.0
H3085 H 0.20912 0.07512 0.78641 0.0
H3086 H 0.22814 0.10661 0.78594 0.0
H3087 H 0.21111 0.13715 0.74104 0.0
H3088 H 0.25135 0.23309 0.74695 0.0
H3089 H 0.23346 0.20141 0.74771 0.0
H3090 H 0.24874 0.17367 0.79814 0.0
C3091 C 0.21478 0.10329 0.7792 0.0
C3092 C 0.21927 0.14494 0.75364 0.0
C3093 C 0.20388 0.08512 0.77941 0.0
C3094 C 0.25587 0.22472 0.75654 0.0
C3095 C 0.24565 0.20629 0.75688 0.0
C3096 C 0.24089 0.1659 0.78537 0.0
C3097 C 0.20862 0.1169 0.7702 0.0
C3098 C 0.21998 0.13648 0.76977 0.0
C3099 C 0.25096 0.19451 0.76894 0.0
C3100 C 0.24021 0.17446 0.76923 0.0
H3101 H 0.16697 0.09072 0.75528 0.0
H3102 H 0.18572 0.12161 0.75471 0.0
H3103 H 0.23192 0.14158 0.79838 0.0
H3104 H 0.28903 0.22569 0.78983 0.0
H3105 H 0.27194 0.19387 0.78997 0.0
C3106 C 0.39554 0.97885 0.26824 0.0
C3107 C 0.41205 0.98334 0.26178 0.0
C3108 C 0.38486 0.96064 0.2632 0.0
C3109 C 0.38543 0.91089 0.24722 0.0
H3110 H 0.33512 0.90608 0.23878 0.0
C3111 C 0.33325 0.83904 0.23701 0.0
C3112 C 0.32146 0.83952 0.2505 0.0
C3113 C 0.34446 0.85586 0.23438 0.0
C3114 C 0.34915 0.90722 0.24092 0.0
H3115 H 0.43036 0.97212 0.24507 0.0
H3116 H 0.41148 0.94011 0.23615 0.0
H3117 H 0.35496 0.9372 0.24139 0.0
H3118 H 0.31176 0.85785 0.27139 0.0
H3119 H 0.33104 0.88712 0.26654 0.0
H3120 H 0.37941 0.88082 0.24714 0.0
C3121 C 0.40694 0.95078 0.2452 0.0
C3122 C 0.3605 0.925 0.24252 0.0
C3123 C 0.41772 0.96909 0.2503 0.0
C3124 C 0.32078 0.85705 0.26097 0.0
C3125 C 0.3317 0.8738 0.25811 0.0
C3126 C 0.37403 0.89301 0.24543 0.0
C3127 C 0.39032 0.94645 0.25148 0.0
C3128 C 0.37871 0.92715 0.24646 0.0
C3129 C 0.3437 0.87335 0.2449 0.0
C3130 C 0.35579 0.89121 0.24298 0.0
H3131 H 0.3908 0.9894 0.27723 0.0
H3132 H 0.37233 0.95764 0.26869 0.0
H3133 H 0.3994 0.91212 0.25028 0.0
H3134 H 0.3341 0.82568 0.22882 0.0
H3135 H 0.35367 0.85523 0.22415 0.0
C3136 C 0.56265 0.35878 0.57411 0.0
C3137 C 0.5731 0.36348 0.59146 0.0
C3138 C 0.55993 0.37306 0.56416 0.0
C3139 C 0.57827 0.42193 0.55807 0.0
H3140 H 0.5301 0.4244 0.54493 0.0
C3141 C 0.56075 0.48955 0.5378 0.0
C3142 C 0.5455 0.48782 0.52559 0.0
C3143 C 0.56475 0.47355 0.54389 0.0
C3144 C 0.54366 0.42379 0.54807 0.0
H3145 H 0.58938 0.38671 0.61167 0.0
H3146 H 0.58498 0.41154 0.59408 0.0
H3147 H 0.53615 0.39769 0.5585 0.0
H3148 H 0.52294 0.46779 0.50947 0.0
H3149 H 0.53028 0.43982 0.51939 0.0
H3150 H 0.58591 0.44778 0.54743 0.0
C3151 C 0.57878 0.39686 0.58827 0.0
C3152 C 0.54709 0.40847 0.55595 0.0
C3153 C 0.58121 0.38265 0.59837 0.0
C3154 C 0.53468 0.46964 0.51907 0.0
C3155 C 0.53885 0.45359 0.52489 0.0
C3156 C 0.57487 0.43708 0.54988 0.0
C3157 C 0.56793 0.39224 0.5712 0.0
C3158 C 0.56441 0.40756 0.5613 0.0
C3159 C 0.55378 0.45534 0.53767 0.0
C3160 C 0.5575 0.43843 0.54506 0.0
H3161 H 0.55621 0.34413 0.56846 0.0
H3162 H 0.55155 0.36915 0.551 0.0
H3163 H 0.59177 0.42145 0.56193 0.0
H3164 H 0.56932 0.50337 0.54318 0.0
H3165 H 0.5762 0.47564 0.55395 0.0
C3166 C 0.44348 0.75657 0.36106 0.0
C3167 C 0.45651 0.77349 0.36333 0.0
C3168 C 0.42659 0.75556 0.35244 0.0
C3169 C 0.40356 0.78122 0.32158 0.0
H3170 H 0.36123 0.74982 0.33419 0.0
C3171 C 0.33535 0.78809 0.29406 0.0
C3172 C 0.32462 0.77131 0.28355 0.0
C3173 C 0.35034 0.78747 0.30538 0.0
C3174 C 0.37299 0.75859 0.33055 0.0
H3175 H 0.46181 0.80292 0.35953 0.0
H3176 H 0.43241 0.80153 0.34553 0.0
H3177 H 0.38972 0.75069 0.35119 0.0
H3178 H 0.3205 0.74063 0.27748 0.0
H3179 H 0.3467 0.73953 0.29772 0.0
H3180 H 0.3868 0.78952 0.30137 0.0
C3181 C 0.43525 0.7887 0.34946 0.0
C3182 C 0.38932 0.75904 0.34018 0.0
C3183 C 0.45213 0.78957 0.35765 0.0
C3184 C 0.3286 0.75378 0.2854 0.0
C3185 C 0.34351 0.75313 0.29699 0.0
C3186 C 0.3873 0.78103 0.31226 0.0
C3187 C 0.42234 0.77156 0.34624 0.0
C3188 C 0.40484 0.77051 0.33591 0.0
C3189 C 0.35476 0.77004 0.30665 0.0
C3190 C 0.37186 0.76982 0.3167 0.0
H3191 H 0.44653 0.74395 0.36531 0.0
H3192 H 0.41707 0.74208 0.35014 0.0
H3193 H 0.41517 0.78973 0.31737 0.0
H3194 H 0.33257 0.8018 0.29296 0.0
H3195 H 0.35875 0.80068 0.31282 0.0
C3196 C 0.0522 0.74672 0.08818 0.0
C3197 C 0.06497 0.75122 0.10384 0.0
C3198 C 0.04776 0.72833 0.07757 0.0
C3199 C 0.06499 0.6855 0.06656 0.0
H3200 H 0.01664 0.65671 0.05968 0.0
C3201 C 0.04846 0.60495 0.05744 0.0
C3202 C 0.03473 0.59424 0.04399 0.0
C3203 C 0.05111 0.62464 0.06177 0.0
C3204 C 0.03014 0.66466 0.06117 0.0
H3205 H 0.08338 0.74013 0.12032 0.0
H3206 H 0.07587 0.7084 0.10175 0.0
H3207 H 0.02355 0.69092 0.07209 0.0
H3208 H 0.01273 0.5959 0.02483 0.0
H3209 H 0.01737 0.63061 0.03259 0.0
H3210 H 0.07174 0.65936 0.0562 0.0
C3211 C 0.06923 0.71898 0.09768 0.0
C3212 C 0.03409 0.68421 0.06825 0.0
C3213 C 0.07345 0.73714 0.1084 0.0
C3214 C 0.02341 0.60372 0.03528 0.0
C3215 C 0.02606 0.62357 0.0397 0.0
C3216 C 0.06106 0.66608 0.05946 0.0
C3217 C 0.05629 0.71432 0.08224 0.0
C3218 C 0.05163 0.69463 0.07162 0.0
C3219 C 0.04015 0.63423 0.05278 0.0
C3220 C 0.04369 0.6553 0.05734 0.0
H3221 H 0.04541 0.75727 0.08438 0.0
H3222 H 0.03774 0.72507 0.06571 0.0
H3223 H 0.07858 0.69327 0.06871 0.0
H3224 H 0.05738 0.59819 0.06458 0.0
H3225 H 0.06182 0.63238 0.07224 0.0
C3226 C 0.05206 0.25723 0.85384 0.0
C3227 C 0.05316 0.26291 0.87325 0.0
C3228 C 0.06722 0.25939 0.84482 0.0
C3229 C 0.11226 0.28781 0.84932 0.0
H3230 H 0.11919 0.24715 0.812 0.0
C3231 C 0.17681 0.29197 0.8153 0.0
C3232 C 0.17565 0.28363 0.79643 0.0
C3233 C 0.16195 0.2898 0.82484 0.0
C3234 C 0.11736 0.25878 0.82217 0.0
H3235 H 0.07103 0.27512 0.89846 0.0
H3236 H 0.09753 0.27904 0.88264 0.0
H3237 H 0.0932 0.24225 0.82838 0.0
H3238 H 0.1577 0.26664 0.77279 0.0
H3239 H 0.13179 0.26363 0.7891 0.0
H3240 H 0.1362 0.3045 0.84288 0.0
C3241 C 0.08491 0.27296 0.87443 0.0
C3242 C 0.1025 0.25591 0.83162 0.0
C3243 C 0.06976 0.2706 0.88349 0.0
C3244 C 0.15913 0.2735 0.78723 0.0
C3245 C 0.14427 0.27148 0.7967 0.0
C3246 C 0.12706 0.29076 0.83974 0.0
C3247 C 0.08379 0.26746 0.85499 0.0
C3248 C 0.09978 0.27039 0.84527 0.0
C3249 C 0.14551 0.27934 0.81571 0.0
C3250 C 0.12979 0.27629 0.826 0.0
H3251 H 0.03946 0.25126 0.84557 0.0
H3252 H 0.06595 0.25516 0.82981 0.0
H3253 H 0.11039 0.29931 0.85962 0.0
H3254 H 0.18925 0.30008 0.82279 0.0
H3255 H 0.16347 0.29595 0.83949 0.0
C3256 C 0.56229 0.74322 0.88193 0.0
C3257 C 0.56702 0.7624 0.89058 0.0
C3258 C 0.55807 0.72884 0.89253 0.0
C3259 C 0.54513 0.72039 0.93889 0.0
H3260 H 0.56243 0.67463 0.92702 0.0
C3261 C 0.54773 0.66742 0.98961 0.0
C3262 C 0.54297 0.6479 0.9821 0.0
C3263 C 0.5491 0.68099 0.97791 0.0
C3264 C 0.55731 0.68721 0.93036 0.0
H3265 H 0.57105 0.78156 0.91712 0.0
H3266 H 0.56409 0.75651 0.93564 0.0
H3267 H 0.56796 0.69908 0.90757 0.0
H3268 H 0.53529 0.62738 0.95641 0.0
H3269 H 0.53795 0.65111 0.93599 0.0
H3270 H 0.53485 0.70864 0.96196 0.0
C3271 C 0.56328 0.75254 0.92064 0.0
C3272 C 0.56046 0.70123 0.9192 0.0
C3273 C 0.56741 0.76691 0.91003 0.0
C3274 C 0.53932 0.64229 0.96263 0.0
C3275 C 0.54079 0.65586 0.95093 0.0
C3276 C 0.54208 0.70642 0.95011 0.0
C3277 C 0.55856 0.73333 0.91203 0.0
C3278 C 0.55453 0.71806 0.92342 0.0
C3279 C 0.54582 0.67534 0.95845 0.0
C3280 C 0.54826 0.68976 0.94604 0.0
H3281 H 0.56176 0.7393 0.86694 0.0
H3282 H 0.55426 0.7142 0.88542 0.0
H3283 H 0.5401 0.73301 0.94234 0.0
H3284 H 0.55087 0.67224 0.00452 0.0
H3285 H 0.55322 0.6959 0.98409 0.0
C3286 C 0.0435 0.77442 0.70892 0.0
C3287 C 0.04439 0.77122 0.68958 0.0
C3288 C 0.05881 0.77948 0.72142 0.0
C3289 C 0.1073 0.79566 0.72487 0.0
H3290 H 0.10668 0.76474 0.76366 0.0
C3291 C 0.15822 0.75914 0.76286 0.0
C3292 C 0.17319 0.77419 0.7666 0.0
C3293 C 0.14175 0.76257 0.75827 0.0
C3294 C 0.10703 0.77359 0.75301 0.0
H3295 H 0.06194 0.7717 0.66813 0.0
H3296 H 0.08869 0.78013 0.68993 0.0
H3297 H 0.07936 0.7644 0.74519 0.0
H3298 H 0.18248 0.80481 0.77004 0.0
H3299 H 0.1536 0.81081 0.76191 0.0
H3300 H 0.13514 0.80383 0.73185 0.0
C3301 C 0.07619 0.779 0.69547 0.0
C3302 C 0.09136 0.77356 0.74253 0.0
C3303 C 0.06087 0.774 0.68296 0.0
C3304 C 0.17119 0.7929 0.76688 0.0
C3305 C 0.15469 0.79633 0.76226 0.0
C3306 C 0.12299 0.79566 0.73532 0.0
C3307 C 0.0753 0.7814 0.71483 0.0
C3308 C 0.09142 0.78408 0.72792 0.0
C3309 C 0.1399 0.78113 0.75733 0.0
C3310 C 0.12307 0.7841 0.74905 0.0
H3311 H 0.03096 0.7726 0.71443 0.0
H3312 H 0.05772 0.7815 0.73625 0.0
H3313 H 0.10771 0.80414 0.7139 0.0
H3314 H 0.15934 0.74456 0.76231 0.0
H3315 H 0.13066 0.75051 0.75429 0.0
C3316 C 0.09452 0.39932 0.396 0.0
C3317 C 0.09566 0.38174 0.4009 0.0
C3318 C 0.0931 0.41437 0.40959 0.0
C3319 C 0.08003 0.42407 0.45695 0.0
H3320 H 0.09926 0.47629 0.45198 0.0
C3321 C 0.08391 0.50648 0.4954 0.0
C3322 C 0.06645 0.50416 0.4993 0.0
C3323 C 0.08953 0.49129 0.4857 0.0
C3324 C 0.09405 0.46181 0.45382 0.0
H3325 H 0.09688 0.36632 0.42395 0.0
H3326 H 0.09496 0.39277 0.44776 0.0
H3327 H 0.10619 0.45057 0.43089 0.0
H3328 H 0.04141 0.48408 0.49714 0.0
H3329 H 0.0509 0.45782 0.47953 0.0
H3330 H 0.06825 0.43531 0.48018 0.0
C3331 C 0.09465 0.3948 0.43336 0.0
C3332 C 0.0978 0.44703 0.44151 0.0
C3333 C 0.09583 0.37965 0.41972 0.0
C3334 C 0.0549 0.48627 0.49406 0.0
C3335 C 0.06042 0.47117 0.48416 0.0
C3336 C 0.07648 0.43885 0.46942 0.0
C3337 C 0.09304 0.41227 0.42842 0.0
C3338 C 0.09051 0.42798 0.44265 0.0
C3339 C 0.07774 0.47355 0.47963 0.0
C3340 C 0.08311 0.45789 0.46774 0.0
H3341 H 0.09426 0.40133 0.38159 0.0
H3342 H 0.09155 0.42748 0.4052 0.0
H3343 H 0.07406 0.40958 0.45818 0.0
H3344 H 0.09311 0.52014 0.49945 0.0
H3345 H 0.10305 0.49352 0.48276 0.0
C3346 C 0.44364 0.23644 0.18877 0.0
C3347 C 0.45867 0.2332 0.19832 0.0
C3348 C 0.42759 0.23292 0.19604 0.0
C3349 C 0.41229 0.23542 0.24135 0.0
H3350 H 0.36644 0.22098 0.21231 0.0
C3351 C 0.33605 0.24141 0.24844 0.0
C3352 C 0.3394 0.26126 0.25392 0.0
C3353 C 0.34975 0.23264 0.24417 0.0
C3354 C 0.37909 0.22466 0.22071 0.0
H3355 H 0.46834 0.22225 0.22218 0.0
H3356 H 0.44031 0.21628 0.2349 0.0
H3357 H 0.39184 0.2134 0.19818 0.0
H3358 H 0.3597 0.28733 0.26036 0.0
H3359 H 0.38357 0.27201 0.25314 0.0
H3360 H 0.39974 0.24767 0.26349 0.0
C3361 C 0.44102 0.22169 0.22189 0.0
C3362 C 0.39362 0.22046 0.21259 0.0
C3363 C 0.45706 0.22513 0.21459 0.0
C3364 C 0.35673 0.27203 0.25603 0.0
C3365 C 0.37041 0.26325 0.25207 0.0
C3366 C 0.39782 0.23973 0.24939 0.0
C3367 C 0.42629 0.22615 0.21302 0.0
C3368 C 0.41045 0.22648 0.22261 0.0
C3369 C 0.36699 0.24355 0.2457 0.0
C3370 C 0.38124 0.23507 0.23889 0.0
H3371 H 0.4444 0.2425 0.17613 0.0
H3372 H 0.41649 0.23667 0.18898 0.0
H3373 H 0.42512 0.24036 0.24938 0.0
H3374 H 0.32279 0.23275 0.24672 0.0
H3375 H 0.34684 0.21742 0.23929 0.0
C3376 C 0.60282 0.51388 0.32616 0.0
C3377 C 0.62116 0.51748 0.32568 0.0
C3378 C 0.59523 0.51473 0.34308 0.0
C3379 C 0.6051 0.52066 0.3966 0.0
H3380 H 0.55807 0.52933 0.39434 0.0
C3381 C 0.56635 0.5359 0.46345 0.0
C3382 C 0.54859 0.5259 0.46147 0.0
C3383 C 0.57652 0.53537 0.44805 0.0
C3384 C 0.57119 0.5268 0.39539 0.0
H3385 H 0.6458 0.52492 0.34358 0.0
H3386 H 0.63274 0.527 0.37315 0.0
H3387 H 0.57273 0.5276 0.36644 0.0
H3388 H 0.52797 0.50769 0.44106 0.0
H3389 H 0.5451 0.50727 0.41485 0.0
H3390 H 0.6034 0.5207 0.42609 0.0
C3391 C 0.624 0.52297 0.36026 0.0
C3392 C 0.57973 0.52557 0.37906 0.0
C3393 C 0.63164 0.52171 0.34312 0.0
C3394 C 0.5415 0.51563 0.4435 0.0
C3395 C 0.55142 0.51542 0.42821 0.0
C3396 C 0.59658 0.52225 0.41312 0.0
C3397 C 0.60551 0.51984 0.36071 0.0
C3398 C 0.59681 0.52206 0.37899 0.0
C3399 C 0.56916 0.52525 0.42999 0.0
C3400 C 0.57927 0.52503 0.41282 0.0
H3401 H 0.59414 0.51052 0.3132 0.0
H3402 H 0.58106 0.51137 0.34208 0.0
H3403 H 0.61811 0.51792 0.3977 0.0
H3404 H 0.57235 0.54434 0.47676 0.0
H3405 H 0.59005 0.54331 0.4502 0.0
C3406 C 0.32156 0.89416 0.07142 0.0
C3407 C 0.30837 0.88386 0.05719 0.0
C3408 C 0.33147 0.88473 0.08178 0.0
C3409 C 0.34211 0.83759 0.08298 0.0
H3410 H 0.34577 0.85362 0.13649 0.0
C3411 C 0.33167 0.78825 0.13518 0.0
C3412 C 0.33819 0.79508 0.15401 0.0
C3413 C 0.33675 0.79917 0.12162 0.0
C3414 C 0.34545 0.84919 0.1216 0.0
H3415 H 0.29531 0.85566 0.04251 0.0
H3416 H 0.31212 0.83911 0.06106 0.0
H3417 H 0.33659 0.8736 0.11596 0.0
H3418 H 0.35725 0.81701 0.17302 0.0
H3419 H 0.36607 0.83618 0.14928 0.0
H3420 H 0.34978 0.81245 0.08882 0.0
C3421 C 0.31516 0.85451 0.0639 0.0
C3422 C 0.34008 0.86067 0.10978 0.0
C3423 C 0.30534 0.86396 0.05345 0.0
C3424 C 0.35169 0.81167 0.15865 0.0
C3425 C 0.35676 0.82261 0.14507 0.0
C3426 C 0.34743 0.82604 0.09484 0.0
C3427 C 0.32831 0.86478 0.07821 0.0
C3428 C 0.33755 0.85457 0.09036 0.0
C3429 C 0.3484 0.81709 0.1267 0.0
C3430 C 0.34833 0.83132 0.11427 0.0
H3431 H 0.32438 0.90955 0.07444 0.0
H3432 H 0.3416 0.89306 0.09259 0.0
H3433 H 0.34071 0.83276 0.06804 0.0
H3434 H 0.32126 0.77552 0.13115 0.0
H3435 H 0.33002 0.79449 0.1076 0.0
C3436 C 0.96949 0.55994 0.85395 0.0
C3437 C 0.97669 0.55443 0.83754 0.0
C3438 C 0.97913 0.56202 0.87141 0.0
C3439 C 0.01338 0.5431 0.89323 0.0
H3440 H 0.01366 0.58189 0.93596 0.0
C3441 C 0.0456 0.56448 0.97492 0.0
C3442 C 0.0395 0.54691 0.98049 0.0
C3443 C 0.03961 0.56748 0.95728 0.0
C3444 C 0.01384 0.57112 0.92406 0.0
H3445 H 2e-05 0.54786 0.82659 0.0
H3446 H 0.0167 0.5515 0.85692 0.0
H3447 H 0.0 0.5843 0.90523 0.0
H3448 H 0.02265 0.51868 0.97218 0.0
H3449 H 0.01246 0.52379 0.9414 0.0
H3450 H 0.0268 0.52967 0.91201 0.0
C3451 C 0.00354 0.55393 0.85631 0.0
C3452 C 0.00592 0.5724 0.90658 0.0
C3453 C 0.99396 0.55186 0.83893 0.0
C3454 C 0.02758 0.53235 0.96818 0.0
C3455 C 0.0218 0.53524 0.95056 0.0
C3456 C 0.02113 0.54175 0.91065 0.0
C3457 C 0.9961 0.5586 0.87273 0.0
C3458 C 0.00546 0.55826 0.89105 0.0
C3459 C 0.02771 0.55281 0.94496 0.0
C3460 C 0.02119 0.55557 0.92627 0.0
H3461 H 0.95625 0.56212 0.85334 0.0
H3462 H 0.97303 0.56551 0.88386 0.0
H3463 H 0.01307 0.53188 0.88157 0.0
H3464 H 0.05473 0.57594 0.98429 0.0
H3465 H 0.04435 0.58114 0.9532 0.0
C3466 C 0.28834 0.21865 0.55415 0.0
C3467 C 0.27282 0.20431 0.54955 0.0
C3468 C 0.29178 0.23041 0.57173 0.0
C3469 C 0.27064 0.24951 0.61056 0.0
H3470 H 0.31106 0.24701 0.64348 0.0
C3471 C 0.27213 0.26562 0.6898 0.0
C3472 C 0.28806 0.27351 0.70127 0.0
C3473 C 0.27185 0.26057 0.67056 0.0
C3474 C 0.29992 0.24828 0.63441 0.0
H3475 H 0.24849 0.1915 0.55938 0.0
H3476 H 0.25424 0.21237 0.58968 0.0
H3477 H 0.30781 0.23255 0.61055 0.0
H3478 H 0.31624 0.28268 0.70134 0.0
H3479 H 0.31571 0.27421 0.66755 0.0
H3480 H 0.26259 0.26512 0.63417 0.0
C3481 C 0.26383 0.21436 0.57985 0.0
C3482 C 0.29807 0.23995 0.61556 0.0
C3483 C 0.26059 0.20236 0.56256 0.0
C3484 C 0.30373 0.27657 0.69292 0.0
C3485 C 0.30343 0.27162 0.67355 0.0
C3486 C 0.2726 0.25809 0.62928 0.0
C3487 C 0.27952 0.22833 0.5847 0.0
C3488 C 0.28312 0.23997 0.60364 0.0
C3489 C 0.28747 0.26343 0.66212 0.0
C3490 C 0.28693 0.25698 0.64164 0.0
H3491 H 0.29802 0.22039 0.5444 0.0
H3492 H 0.30399 0.24109 0.5752 0.0
H3493 H 0.25908 0.24988 0.60157 0.0
H3494 H 0.2598 0.26291 0.69569 0.0
H3495 H 0.25934 0.25389 0.66238 0.0
C3496 C 0.61078 0.51027 0.2108 0.0
C3497 C 0.62847 0.50884 0.2128 0.0
C3498 C 0.60242 0.5124 0.19355 0.0
C3499 C 0.60568 0.50584 0.14157 0.0
H3500 H 0.57333 0.53907 0.14092 0.0
C3501 C 0.56348 0.51033 0.07229 0.0
C3502 C 0.56079 0.52825 0.06945 0.0
C3503 C 0.57151 0.50776 0.08953 0.0
C3504 C 0.58237 0.52975 0.14069 0.0
H3505 H 0.65095 0.50842 0.19753 0.0
H3506 H 0.63645 0.51177 0.16767 0.0
H3507 H 0.58745 0.53504 0.17068 0.0
H3508 H 0.56458 0.55747 0.08328 0.0
H3509 H 0.57821 0.55299 0.11309 0.0
H3510 H 0.6006 0.50056 0.11158 0.0
C3511 C 0.62893 0.51125 0.17945 0.0
C3512 C 0.59041 0.52727 0.15795 0.0
C3513 C 0.63735 0.50939 0.19675 0.0
C3514 C 0.56631 0.54342 0.08467 0.0
C3515 C 0.57412 0.5408 0.10198 0.0
C3516 C 0.59745 0.50812 0.12432 0.0
C3517 C 0.61129 0.51293 0.17744 0.0
C3518 C 0.60234 0.51533 0.15881 0.0
C3519 C 0.57699 0.52293 0.10481 0.0
C3520 C 0.58566 0.52021 0.12346 0.0
H3521 H 0.60339 0.50999 0.2227 0.0
H3522 H 0.58883 0.51342 0.19281 0.0
H3523 H 0.61458 0.49638 0.14135 0.0
H3524 H 0.55949 0.4982 0.0611 0.0
H3525 H 0.5732 0.49371 0.09094 0.0
C3526 C 0.28351 0.90417 0.93907 0.0
C3527 C 0.28311 0.89649 0.9556 0.0
C3528 C 0.2862 0.89342 0.92244 0.0
C3529 C 0.2821 0.84417 0.8994 0.0
H3530 H 0.31581 0.86632 0.86828 0.0
C3531 C 0.2974 0.79826 0.83498 0.0
C3532 C 0.29736 0.80617 0.81865 0.0
C3533 C 0.2983 0.80973 0.85234 0.0
C3534 C 0.30628 0.85996 0.87676 0.0
H3535 H 0.2849 0.87139 0.96753 0.0
H3536 H 0.28944 0.85274 0.93861 0.0
H3537 H 0.3108 0.88565 0.89685 0.0
H3538 H 0.29961 0.83243 0.80765 0.0
H3539 H 0.30084 0.85238 0.83782 0.0
H3540 H 0.27719 0.81867 0.87928 0.0
C3541 C 0.28767 0.86702 0.93847 0.0
C3542 C 0.30338 0.87105 0.89307 0.0
C3543 C 0.28514 0.87777 0.95507 0.0
C3544 C 0.29954 0.82594 0.82004 0.0
C3545 C 0.30031 0.83739 0.83737 0.0
C3546 C 0.28489 0.83314 0.88308 0.0
C3547 C 0.28834 0.87476 0.92202 0.0
C3548 C 0.29126 0.86324 0.90454 0.0
C3549 C 0.29908 0.82931 0.85364 0.0
C3550 C 0.29701 0.84088 0.87154 0.0
H3551 H 0.28204 0.91857 0.93905 0.0
H3552 H 0.2865 0.89966 0.90989 0.0
H3553 H 0.2725 0.83785 0.90784 0.0
H3554 H 0.29591 0.78308 0.83429 0.0
H3555 H 0.29778 0.80314 0.86467 0.0
C3556 C 0.93054 0.55468 0.72089 0.0
C3557 C 0.94227 0.55992 0.73738 0.0
C3558 C 0.93688 0.55481 0.70351 0.0
C3559 C 0.97642 0.57496 0.68249 0.0
H3560 H 0.95956 0.53246 0.64173 0.0
C3561 C 0.01754 0.55739 0.62492 0.0
C3562 C 0.0113 0.56148 0.60781 0.0
C3563 C 0.00661 0.55543 0.63893 0.0
C3564 C 0.96419 0.54444 0.65301 0.0
H3565 H 0.96975 0.56933 0.74866 0.0
H3566 H 0.98071 0.56923 0.71865 0.0
H3567 H 0.94489 0.53369 0.67028 0.0
H3568 H 0.98852 0.56536 0.5913 0.0
H3569 H 0.96927 0.56185 0.61609 0.0
H3570 H 0.99618 0.58521 0.66566 0.0
C3571 C 0.96664 0.56542 0.71899 0.0
C3572 C 0.95581 0.54523 0.66923 0.0
C3573 C 0.96035 0.56539 0.73623 0.0
C3574 C 0.99365 0.56248 0.60452 0.0
C3575 C 0.98264 0.56029 0.61852 0.0
C3576 C 0.98487 0.57403 0.66649 0.0
C3577 C 0.95501 0.56022 0.70244 0.0
C3578 C 0.96216 0.5603 0.6843 0.0
C3579 C 0.98924 0.55728 0.63594 0.0
C3580 C 0.97903 0.55862 0.65184 0.0
H3581 H 0.91653 0.55033 0.7214 0.0
H3582 H 0.92763 0.55081 0.69097 0.0
H3583 H 0.98135 0.58699 0.69366 0.0
H3584 H 0.03109 0.55659 0.62778 0.0
H3585 H 0.01188 0.55318 0.65238 0.0
C3586 C 0.28977 0.22482 0.4399 0.0
C3587 C 0.27843 0.20675 0.43787 0.0
C3588 C 0.29281 0.23361 0.42432 0.0
C3589 C 0.27345 0.23927 0.38045 0.0
H3590 H 0.31932 0.2467 0.36292 0.0
C3591 C 0.28485 0.2659 0.31085 0.0
C3592 C 0.30139 0.27705 0.30921 0.0
C3593 C 0.28212 0.25712 0.32646 0.0
C3594 C 0.3065 0.24513 0.36775 0.0
H3595 H 0.26112 0.1839 0.41808 0.0
H3596 H 0.26598 0.19965 0.39102 0.0
H3597 H 0.31455 0.23277 0.39093 0.0
H3598 H 0.32792 0.28828 0.32283 0.0
H3599 H 0.32299 0.27404 0.35049 0.0
H3600 H 0.2654 0.25226 0.35797 0.0
C3601 C 0.2727 0.20678 0.4046 0.0
C3602 C 0.30379 0.23701 0.38375 0.0
C3603 C 0.27 0.19779 0.42005 0.0
C3604 C 0.31506 0.27958 0.32363 0.0
C3605 C 0.31224 0.27122 0.33945 0.0
C3606 C 0.27623 0.2478 0.36471 0.0
C3607 C 0.28421 0.22468 0.4066 0.0
C3608 C 0.28723 0.23392 0.39013 0.0
C3609 C 0.29575 0.25975 0.34109 0.0
C3610 C 0.29278 0.25076 0.35802 0.0
H3611 H 0.29647 0.23202 0.45346 0.0
H3612 H 0.30173 0.24746 0.42612 0.0
H3613 H 0.26057 0.23706 0.38523 0.0
H3614 H 0.27405 0.26378 0.29998 0.0
H3615 H 0.26933 0.24813 0.32691 0.0
C3616 C 0.31442 0.61315 0.52004 0.0
C3617 C 0.29887 0.60267 0.52512 0.0
C3618 C 0.32948 0.60588 0.51988 0.0
C3619 C 0.35006 0.56999 0.53764 0.0
H3620 H 0.37717 0.57559 0.49588 0.0
C3621 C 0.40459 0.52965 0.52176 0.0
C3622 C 0.41997 0.54014 0.51636 0.0
C3623 C 0.39 0.53756 0.52377 0.0
C3624 C 0.36984 0.5741 0.50774 0.0
H3625 H 0.28702 0.57644 0.53427 0.0
H3626 H 0.31322 0.56368 0.53374 0.0
H3627 H 0.35142 0.58905 0.49775 0.0
H3628 H 0.43213 0.5671 0.50881 0.0
H3629 H 0.40679 0.58096 0.51257 0.0
H3630 H 0.36846 0.55483 0.54748 0.0
C3631 C 0.31384 0.57762 0.53012 0.0
C3632 C 0.35511 0.58183 0.50883 0.0
C3633 C 0.29879 0.5849 0.53032 0.0
C3634 C 0.42054 0.55874 0.5132 0.0
C3635 C 0.40596 0.5666 0.51514 0.0
C3636 C 0.36479 0.5622 0.53651 0.0
C3637 C 0.32931 0.58797 0.52476 0.0
C3638 C 0.34507 0.5799 0.5238 0.0
C3639 C 0.3905 0.55605 0.52029 0.0
C3640 C 0.37484 0.56422 0.52157 0.0
H3641 H 0.31497 0.62693 0.51607 0.0
H3642 H 0.34128 0.61433 0.51597 0.0
H3643 H 0.34271 0.56846 0.54946 0.0
H3644 H 0.40384 0.51533 0.52441 0.0
H3645 H 0.3782 0.52906 0.52764 0.0
C3646 C 0.85887 0.95354 0.52089 0.0
C3647 C 0.85226 0.93687 0.52792 0.0
C3648 C 0.87684 0.96152 0.52296 0.0
C3649 C 0.92029 0.95164 0.53005 0.0
H3650 H 0.9348 1.00629 0.54616 0.0
C3651 C 0.98683 0.01685 0.5496 0.0
C3652 C 0.99501 0.01389 0.53335 0.0
C3653 C 0.97042 1.00548 0.55104 0.0
C3654 C 0.93102 0.99099 0.54187 0.0
H3655 H 0.85954 0.91531 0.54234 0.0
H3656 H 0.89119 0.92937 0.54589 0.0
H3657 H 0.904 0.99037 0.54456 0.0
H3658 H 0.99299 0.99608 0.50633 0.0
H3659 H 0.96436 0.97605 0.50891 0.0
H3660 H 0.94741 0.95245 0.52697 0.0
C3661 C 0.88228 0.93617 0.53879 0.0
C3662 C 0.91335 0.98191 0.54079 0.0
C3663 C 0.86418 0.92818 0.53681 0.0
C3664 C 0.98696 0.99868 0.519 0.0
C3665 C 0.97061 0.98717 0.52052 0.0
C3666 C 0.93803 0.9608 0.53095 0.0
C3667 C 0.88873 0.95305 0.53206 0.0
C3668 C 0.90775 0.96219 0.53462 0.0
C3669 C 0.96195 0.99081 0.53633 0.0
C3670 C 0.94352 0.98061 0.53671 0.0
H3671 H 0.85015 0.96058 0.51384 0.0
H3672 H 0.88145 0.97436 0.51736 0.0
H3673 H 0.91631 0.93643 0.52519 0.0
H3674 H 0.99281 0.02838 0.56094 0.0
H3675 H 0.96415 1.00846 0.56348 0.0
C3676 C 0.86753 0.10629 0.25268 0.0
C3677 C 0.88598 0.10955 0.25645 0.0
C3678 C 0.85874 0.12148 0.25375 0.0
C3679 C 0.86546 0.17539 0.27101 0.0
H3680 H 0.82051 0.16828 0.24166 0.0
C3681 C 0.83054 0.23952 0.26683 0.0
C3682 C 0.81199 0.23603 0.26449 0.0
C3683 C 0.8395 0.22446 0.26603 0.0
C3684 C 0.83295 0.17068 0.25022 0.0
H3685 H 0.90936 0.1322 0.26431 0.0
H3686 H 0.89438 0.15836 0.26585 0.0
H3687 H 0.83564 0.14241 0.2399 0.0
H3688 H 0.78868 0.21306 0.25935 0.0
H3689 H 0.80402 0.18721 0.25801 0.0
H3690 H 0.86278 0.20378 0.28115 0.0
C3691 C 0.88642 0.144 0.26236 0.0
C3692 C 0.8418 0.15555 0.24922 0.0
C3693 C 0.89519 0.12879 0.26135 0.0
C3694 C 0.80289 0.21669 0.26126 0.0
C3695 C 0.81184 0.20165 0.26034 0.0
C3696 C 0.85664 0.19056 0.27193 0.0
C3697 C 0.86791 0.14083 0.25858 0.0
C3698 C 0.85832 0.15739 0.25962 0.0
C3699 C 0.83042 0.20507 0.26268 0.0
C3700 C 0.8401 0.18865 0.2616 0.0
H3701 H 0.85974 0.09186 0.24891 0.0
H3702 H 0.84457 0.11786 0.25099 0.0
H3703 H 0.87787 0.17782 0.27963 0.0
H3704 H 0.83826 0.25399 0.26923 0.0
H3705 H 0.85371 0.22815 0.26772 0.0
C3706 C 0.70213 0.10519 0.98217 0.0
C3707 C 0.71124 0.12431 0.98627 0.0
C3708 C 0.68459 0.10034 0.97442 0.0
C3709 C 0.64669 0.12178 0.97471 0.0
H3710 H 0.62334 0.07133 0.94848 0.0
C3711 C 0.57424 0.06592 0.96229 0.0
C3712 C 0.57136 0.06791 0.98119 0.0
C3713 C 0.58982 0.07591 0.95702 0.0
C3714 C 0.62959 0.08567 0.95539 0.0
H3715 H 0.70984 0.15319 0.98394 0.0
H3716 H 0.67935 0.14469 0.96996 0.0
H3717 H 0.65483 0.08271 0.94809 0.0
H3718 H 0.58199 0.08262 0.0092 0.0
H3719 H 0.60902 0.09979 1.0001 0.0
H3720 H 0.62158 0.1245 0.9825 0.0
C3721 C 0.68552 0.13348 0.97325 0.0
C3722 C 0.64766 0.09209 0.95538 0.0
C3723 C 0.70296 0.13835 0.98126 0.0
C3724 C 0.58389 0.08065 0.99455 0.0
C3725 C 0.5993 0.0907 0.98929 0.0
C3726 C 0.62865 0.11542 0.97459 0.0
C3727 C 0.67593 0.1145 0.97038 0.0
C3728 C 0.65655 0.10978 0.96594 0.0
C3729 C 0.60259 0.08821 0.97055 0.0
C3730 C 0.62013 0.09689 0.96588 0.0
H3731 H 0.70825 0.09408 0.98582 0.0
H3732 H 0.67759 0.0856 0.97267 0.0
H3733 H 0.65303 0.13548 0.98302 0.0
H3734 H 0.56474 0.05624 0.95166 0.0
H3735 H 0.59203 0.07376 0.94247 0.0
C3736 C 0.19383 0.48069 0.25787 0.0
C3737 C 0.19851 0.49722 0.25008 0.0
C3738 C 0.20675 0.47222 0.26481 0.0
C3739 C 0.25225 0.46918 0.25934 0.0
H3740 H 0.24669 0.44169 0.30073 0.0
C3741 C 0.3002 0.42374 0.27754 0.0
C3742 C 0.29169 0.40494 0.27818 0.0
C3743 C 0.29075 0.43796 0.27843 0.0
C3744 C 0.24845 0.44939 0.28921 0.0
H3745 H 0.22038 0.51836 0.2442 0.0
H3746 H 0.24293 0.50382 0.25664 0.0
H3747 H 0.22628 0.46142 0.29396 0.0
H3748 H 0.26706 0.38645 0.2817 0.0
H3749 H 0.25053 0.4112 0.28312 0.0
H3750 H 0.27412 0.45681 0.25429 0.0
C3751 C 0.22928 0.49711 0.25699 0.0
C3752 C 0.23673 0.46061 0.28527 0.0
C3753 C 0.21636 0.50547 0.2499 0.0
C3754 C 0.27386 0.40082 0.28091 0.0
C3755 C 0.26445 0.41502 0.28194 0.0
C3756 C 0.26401 0.45808 0.26334 0.0
C3757 C 0.22463 0.48022 0.26425 0.0
C3758 C 0.23824 0.47023 0.26998 0.0
C3759 C 0.27268 0.43362 0.28016 0.0
C3760 C 0.26196 0.4477 0.27801 0.0
H3761 H 0.18017 0.47403 0.25821 0.0
H3762 H 0.20268 0.45906 0.27004 0.0
H3763 H 0.25367 0.47615 0.24729 0.0
H3764 H 0.31395 0.42726 0.27545 0.0
H3765 H 0.29743 0.45223 0.27719 0.0
C3766 C 0.23269 0.41163 0.03728 0.0
C3767 C 0.24981 0.42309 0.04154 0.0
C3768 C 0.21813 0.41972 0.03877 0.0
C3769 C 0.20484 0.46265 0.06095 0.0
H3770 H 0.16566 0.44696 0.02177 0.0
C3771 C 0.15181 0.50549 0.05465 0.0
C3772 C 0.13424 0.49543 0.04999 0.0
C3773 C 0.16543 0.49595 0.05387 0.0
C3774 C 0.17639 0.45132 0.03295 0.0
H3775 H 0.26506 0.45198 0.05078 0.0
H3776 H 0.23972 0.46606 0.05325 0.0
H3777 H 0.1903 0.43151 0.02019 0.0
H3778 H 0.1172 0.4674 0.04083 0.0
H3779 H 0.14104 0.4507 0.03948 0.0
H3780 H 0.19104 0.48253 0.07366 0.0
C3781 C 0.23751 0.45081 0.04897 0.0
C3782 C 0.19051 0.44247 0.03205 0.0
C3783 C 0.25205 0.44275 0.04746 0.0
C3784 C 0.13061 0.47559 0.04434 0.0
C3785 C 0.14426 0.46602 0.04357 0.0
C3786 C 0.19075 0.47148 0.06186 0.0
C3787 C 0.22038 0.43942 0.0446 0.0
C3788 C 0.20498 0.44817 0.04595 0.0
C3789 C 0.16183 0.4761 0.04841 0.0
C3790 C 0.17643 0.46607 0.04778 0.0
H3791 H 0.23053 0.39643 0.03271 0.0
H3792 H 0.2051 0.41053 0.03549 0.0
H3793 H 0.21563 0.46713 0.07207 0.0
H3794 H 0.1551 0.52082 0.05868 0.0
H3795 H 0.17882 0.5042 0.05732 0.0
C3796 C 0.895 0.97618 0.25433 0.0
C3797 C 0.88767 0.99125 0.24993 0.0
C3798 C 0.88445 0.95829 0.2554 0.0
C3799 C 0.84124 0.92547 0.23838 0.0
H3800 H 0.85205 0.89961 0.27887 0.0
C3801 C 0.7979 0.85094 0.24363 0.0
C3802 C 0.80472 0.83828 0.25327 0.0
C3803 C 0.80757 0.86958 0.24373 0.0
C3804 C 0.84888 0.90626 0.26719 0.0
H3805 H 0.86298 0.99875 0.24314 0.0
H3806 H 0.84446 0.96719 0.24444 0.0
H3807 H 0.86898 0.93148 0.27809 0.0
H3808 H 0.82753 0.83563 0.27039 0.0
H3809 H 0.84479 0.86765 0.26992 0.0
H3810 H 0.82176 0.90017 0.22689 0.0
C3811 C 0.85858 0.96946 0.24727 0.0
C3812 C 0.85863 0.92483 0.26685 0.0
C3813 C 0.8692 0.98765 0.24661 0.0
C3814 C 0.82173 0.84492 0.26289 0.0
C3815 C 0.83161 0.86354 0.2627 0.0
C3816 C 0.8317 0.90675 0.23849 0.0
C3817 C 0.86604 0.95446 0.25176 0.0
C3818 C 0.855 0.93482 0.25246 0.0
C3819 C 0.82474 0.8764 0.25315 0.0
C3820 C 0.83522 0.89663 0.25294 0.0
H3821 H 0.9091 0.97821 0.25708 0.0
H3822 H 0.89082 0.94726 0.25873 0.0
H3823 H 0.83815 0.93244 0.22688 0.0
H3824 H 0.78482 0.84653 0.23613 0.0
H3825 H 0.80126 0.87869 0.23654 0.0
C3826 C 0.66475 0.09497 0.71714 0.0
C3827 C 0.67066 0.08234 0.72748 0.0
C3828 C 0.67222 0.11449 0.72157 0.0
C3829 C 0.69609 0.1515 0.76022 0.0
H3830 H 0.71258 0.17926 0.72147 0.0
C3831 C 0.7452 0.22471 0.77528 0.0
C3832 C 0.74457 0.23691 0.7623 0.0
C3833 C 0.73362 0.2068 0.7722 0.0
C3834 C 0.70771 0.17189 0.73246 0.0
H3835 H 0.68921 0.08032 0.75044 0.0
H3836 H 0.7021 0.11426 0.75808 0.0
H3837 H 0.69735 0.14598 0.71316 0.0
H3838 H 0.73055 0.24108 0.73705 0.0
H3839 H 0.70983 0.21036 0.73216 0.0
H3840 H 0.70646 0.17738 0.77957 0.0
C3841 C 0.69162 0.10908 0.74668 0.0
C3842 C 0.69906 0.15278 0.72765 0.0
C3843 C 0.68433 0.08961 0.74215 0.0
C3844 C 0.73139 0.23171 0.7471 0.0
C3845 C 0.71964 0.21406 0.74423 0.0
C3846 C 0.70459 0.17071 0.76503 0.0
C3847 C 0.68555 0.12171 0.73655 0.0
C3848 C 0.69342 0.14233 0.74151 0.0
C3849 C 0.7211 0.20104 0.75626 0.0
C3850 C 0.71072 0.18108 0.75123 0.0
H3851 H 0.65422 0.08982 0.7058 0.0
H3852 H 0.66733 0.12399 0.71354 0.0
H3853 H 0.69167 0.14376 0.77115 0.0
H3854 H 0.75535 0.22846 0.78705 0.0
H3855 H 0.73518 0.19712 0.78172 0.0
loop_
_geom_bond_atom_site_label_1
_geom_bond_atom_site_label_2
_geom_bond_distance
_geom_bond_site_symmetry_2
_ccdc_geom_bond_type
C0 O1 1.306 . S
C0 O3 1.160 . S
O1 C0 1.306 . S
O1 Cd2 2.228 . S
Cd2 O1 2.228 . S
Cd2 O6 2.273 . S
Cd2 O10 2.277 . S
O3 C0 1.160 . S
O3 Cd4 2.203 . S
Cd4 O3 2.203 . S
Cd4 O6 2.411 . S
Cd4 O7 2.333 . S
Cd4 O8 2.352 . S
Cd4 O12 2.277 . S
Cd4 O13 2.356 . S
C5 O10 1.209 . S
C5 O12 1.226 . S
O6 Cd2 2.273 . S
O6 Cd4 2.411 . S
O6 C9 1.320 . S
O7 Cd4 2.333 . S
O7 C9 1.214 . S
O8 Cd4 2.352 . S
O8 C11 1.258 . S
C9 O6 1.320 . S
C9 O7 1.214 . S
O10 Cd2 2.277 . S
O10 C5 1.209 . S
C11 O8 1.258 . S
C11 O13 1.282 . S
O12 Cd4 2.277 . S
O12 C5 1.226 . S
O13 Cd4 2.356 . S
O13 C11 1.282 . S
C14 O15 1.306 . S
C14 O17 1.160 . S
O15 C14 1.306 . S
O15 Cd16 2.228 1_655 S
Cd16 O15 2.228 1_455 S
Cd16 O20 2.273 . S
Cd16 O24 2.277 1_455 S
O17 C14 1.160 . S
O17 Cd18 2.149 1_655 S
Cd18 O17 2.149 1_455 S
Cd18 O20 2.438 . S
Cd18 O21 2.389 . S
Cd18 O22 2.343 . S
Cd18 O26 2.281 1_455 S
Cd18 O27 2.360 . S
C19 O24 1.209 . S
C19 O26 1.226 . S
O20 Cd16 2.273 . S
O20 Cd18 2.438 . S
O20 C23 1.320 . S
O21 Cd18 2.389 . S
O21 C23 1.214 . S
O22 Cd18 2.343 . S
O22 C25 1.258 . S
C23 O20 1.320 . S
C23 O21 1.214 . S
O24 Cd16 2.277 1_655 S
O24 C19 1.209 . S
C25 O22 1.258 . S
C25 O27 1.282 . S
O26 Cd18 2.281 1_655 S
O26 C19 1.226 . S
O27 Cd18 2.360 . S
O27 C25 1.282 . S
C28 O29 1.306 . S
C28 O31 1.160 . S
O29 C28 1.306 . S
O29 Cd30 2.228 . S
Cd30 O29 2.228 . S
Cd30 O34 2.273 . S
Cd30 O38 2.277 . S
O31 C28 1.160 . S
O31 Cd32 2.203 . S
Cd32 O31 2.203 . S
Cd32 O34 2.411 . S
Cd32 O35 2.333 . S
Cd32 O36 2.352 . S
Cd32 O40 2.277 . S
Cd32 O41 2.356 . S
C33 O38 1.209 . S
C33 O40 1.226 . S
O34 Cd30 2.273 . S
O34 Cd32 2.411 . S
O34 C37 1.320 . S
O35 Cd32 2.333 . S
O35 C37 1.214 . S
O36 Cd32 2.352 . S
O36 C39 1.258 . S
C37 O34 1.320 . S
C37 O35 1.214 . S
O38 Cd30 2.277 . S
O38 C33 1.209 . S
C39 O36 1.258 . S
C39 O41 1.282 . S
O40 Cd32 2.277 . S
O40 C33 1.226 . S
O41 Cd32 2.356 . S
O41 C39 1.282 . S
C42 O43 1.306 . S
C42 O45 1.160 . S
O43 C42 1.306 . S
O43 Cd44 2.228 . S
Cd44 O43 2.228 . S
Cd44 O48 2.273 . S
Cd44 O52 2.277 . S
O45 C42 1.160 . S
O45 Cd46 2.203 . S
Cd46 O45 2.203 . S
Cd46 O48 2.411 . S
Cd46 O49 2.333 . S
Cd46 O50 2.352 . S
Cd46 O54 2.277 . S
Cd46 O55 2.356 . S
C47 O52 1.209 . S
C47 O54 1.226 . S
O48 Cd44 2.273 . S
O48 Cd46 2.411 . S
O48 C51 1.320 . S
O49 Cd46 2.333 . S
O49 C51 1.214 . S
O50 Cd46 2.352 . S
O50 C53 1.258 . S
C51 O48 1.320 . S
C51 O49 1.214 . S
O52 Cd44 2.277 . S
O52 C47 1.209 . S
C53 O50 1.258 . S
C53 O55 1.282 . S
O54 Cd46 2.277 . S
O54 C47 1.226 . S
O55 Cd46 2.356 . S
O55 C53 1.282 . S
C56 O57 1.306 . S
C56 O59 1.160 . S
O57 C56 1.306 . S
O57 Cd58 2.228 . S
Cd58 O57 2.228 . S
Cd58 O62 2.273 . S
Cd58 O66 2.277 . S
O59 C56 1.160 . S
O59 Cd60 2.203 . S
Cd60 O59 2.203 . S
Cd60 O62 2.411 . S
Cd60 O63 2.333 . S
Cd60 O64 2.352 . S
Cd60 O68 2.277 . S
Cd60 O69 2.356 . S
C61 O66 1.209 . S
C61 O68 1.226 . S
O62 Cd58 2.273 . S
O62 Cd60 2.411 . S
O62 C65 1.320 . S
O63 Cd60 2.333 . S
O63 C65 1.214 . S
O64 Cd60 2.352 . S
O64 C67 1.258 . S
C65 O62 1.320 . S
C65 O63 1.214 . S
O66 Cd58 2.277 . S
O66 C61 1.209 . S
C67 O64 1.258 . S
C67 O69 1.282 . S
O68 Cd60 2.277 . S
O68 C61 1.226 . S
O69 Cd60 2.356 . S
O69 C67 1.282 . S
C70 O71 1.306 . S
C70 O73 1.160 . S
O71 C70 1.306 . S
O71 Cd72 2.228 . S
Cd72 O71 2.228 . S
Cd72 O76 2.273 . S
Cd72 O80 2.277 . S
O73 C70 1.160 . S
O73 Cd74 2.203 . S
Cd74 O73 2.203 . S
Cd74 O76 2.411 . S
Cd74 O77 2.333 . S
Cd74 O78 2.352 . S
Cd74 O82 2.277 . S
Cd74 O83 2.356 . S
C75 O80 1.209 . S
C75 O82 1.226 . S
O76 Cd72 2.273 . S
O76 Cd74 2.411 . S
O76 C79 1.320 . S
O77 Cd74 2.333 . S
O77 C79 1.214 . S
O78 Cd74 2.352 . S
O78 C81 1.258 . S
C79 O76 1.320 . S
C79 O77 1.214 . S
O80 Cd72 2.277 . S
O80 C75 1.209 . S
C81 O78 1.258 . S
C81 O83 1.282 . S
O82 Cd74 2.277 . S
O82 C75 1.226 . S
O83 Cd74 2.356 . S
O83 C81 1.282 . S
C84 O85 1.306 . S
C84 O87 1.160 . S
O85 C84 1.306 . S
O85 Cd86 2.228 . S
Cd86 O85 2.228 . S
Cd86 O90 2.273 . S
Cd86 O94 2.277 . S
O87 C84 1.160 . S
O87 Cd88 2.203 . S
Cd88 O87 2.203 . S
Cd88 O90 2.411 . S
Cd88 O91 2.333 . S
Cd88 O92 2.352 . S
Cd88 O96 2.277 . S
Cd88 O97 2.356 . S
C89 O94 1.209 . S
C89 O96 1.226 . S
O90 Cd86 2.273 . S
O90 Cd88 2.411 . S
O90 C93 1.320 . S
O91 Cd88 2.333 . S
O91 C93 1.214 . S
O92 Cd88 2.352 . S
O92 C95 1.258 . S
C93 O90 1.320 . S
C93 O91 1.214 . S
O94 Cd86 2.277 . S
O94 C89 1.209 . S
C95 O92 1.258 . S
C95 O97 1.282 . S
O96 Cd88 2.277 . S
O96 C89 1.226 . S
O97 Cd88 2.356 . S
O97 C95 1.282 . S
C98 O99 1.306 . S
C98 O101 1.160 . S
O99 C98 1.306 . S
O99 Cd100 2.228 1_655 S
Cd100 O99 2.228 1_455 S
Cd100 O104 2.273 . S
Cd100 O108 2.277 . S
O101 C98 1.160 . S
O101 Cd102 2.203 1_655 S
Cd102 O101 2.203 1_455 S
Cd102 O104 2.411 . S
Cd102 O105 2.333 . S
Cd102 O106 2.352 . S
Cd102 O110 2.277 . S
Cd102 O111 2.356 . S
C103 O108 1.209 . S
C103 O110 1.226 . S
O104 Cd100 2.273 . S
O104 Cd102 2.411 . S
O104 C107 1.320 . S
O105 Cd102 2.333 . S
O105 C107 1.214 . S
O106 Cd102 2.352 . S
O106 C109 1.258 . S
C107 O104 1.320 . S
C107 O105 1.214 . S
O108 Cd100 2.277 . S
O108 C103 1.209 . S
C109 O106 1.258 . S
C109 O111 1.282 . S
O110 Cd102 2.277 . S
O110 C103 1.226 . S
O111 Cd102 2.356 . S
O111 C109 1.282 . S
C112 O113 1.306 . S
C112 O115 1.160 . S
O113 C112 1.306 . S
O113 Cd114 2.228 1_545 S
Cd114 O113 2.228 1_565 S
Cd114 O118 2.273 1_565 S
Cd114 O122 2.277 . S
O115 C112 1.160 . S
O115 Cd116 2.203 . S
Cd116 O115 2.203 . S
Cd116 O118 2.411 . S
Cd116 O119 2.333 . S
Cd116 O120 2.352 . S
Cd116 O124 2.277 1_545 S
Cd116 O125 2.356 . S
C117 O122 1.209 . S
C117 O124 1.226 . S
O118 Cd114 2.273 1_545 S
O118 Cd116 2.411 . S
O118 C121 1.320 . S
O119 Cd116 2.333 . S
O119 C121 1.214 . S
O120 Cd116 2.352 . S
O120 C123 1.258 . S
C121 O118 1.320 . S
C121 O119 1.214 . S
O122 Cd114 2.277 . S
O122 C117 1.209 . S
C123 O120 1.258 . S
C123 O125 1.282 . S
O124 Cd116 2.277 1_565 S
O124 C117 1.226 . S
O125 Cd116 2.356 . S
O125 C123 1.282 . S
C126 O127 1.306 . S
C126 O129 1.160 . S
O127 C126 1.306 . S
O127 Cd128 2.228 . S
Cd128 O127 2.228 . S
Cd128 O132 2.273 . S
Cd128 O136 2.277 . S
O129 C126 1.160 . S
O129 Cd130 2.203 . S
Cd130 O129 2.203 . S
Cd130 O132 2.411 . S
Cd130 O133 2.333 . S
Cd130 O134 2.352 . S
Cd130 O138 2.277 . S
Cd130 O139 2.356 . S
C131 O136 1.209 . S
C131 O138 1.226 . S
O132 Cd128 2.273 . S
O132 Cd130 2.411 . S
O132 C135 1.320 . S
O133 Cd130 2.333 . S
O133 C135 1.214 . S
O134 Cd130 2.352 . S
O134 C137 1.258 . S
C135 O132 1.320 . S
C135 O133 1.214 . S
O136 Cd128 2.277 . S
O136 C131 1.209 . S
C137 O134 1.258 . S
C137 O139 1.282 . S
O138 Cd130 2.277 . S
O138 C131 1.226 . S
O139 Cd130 2.356 . S
O139 C137 1.282 . S
C140 O141 1.306 . S
C140 O143 1.171 . S
O141 C140 1.306 . S
O141 Cd142 2.228 . S
Cd142 O141 2.228 . S
Cd142 O146 2.273 1_545 S
Cd142 O150 2.277 . S
O143 C140 1.171 . S
O143 Cd144 2.204 1_545 S
Cd144 O143 2.204 1_565 S
Cd144 O146 2.411 . S
Cd144 O147 2.333 . S
Cd144 O148 2.352 . S
Cd144 O152 2.277 1_565 S
Cd144 O153 2.356 . S
C145 O150 1.209 . S
C145 O152 1.226 . S
O146 Cd142 2.273 1_565 S
O146 Cd144 2.411 . S
O146 C149 1.320 . S
O147 Cd144 2.333 . S
O147 C149 1.214 . S
O148 Cd144 2.352 . S
O148 C151 1.258 . S
C149 O146 1.320 . S
C149 O147 1.214 . S
O150 Cd142 2.277 . S
O150 C145 1.209 . S
C151 O148 1.258 . S
C151 O153 1.282 . S
O152 Cd144 2.277 1_545 S
O152 C145 1.226 . S
O153 Cd144 2.356 . S
O153 C151 1.282 . S
C154 O155 1.306 . S
C154 O157 1.160 . S
O155 C154 1.306 . S
O155 Cd156 2.228 1_554 S
Cd156 O155 2.228 1_556 S
Cd156 O160 2.273 1_556 S
Cd156 O164 2.277 . S
O157 C154 1.160 . S
O157 Cd158 2.203 . S
Cd158 O157 2.203 . S
Cd158 O160 2.411 . S
Cd158 O161 2.333 . S
Cd158 O162 2.352 . S
Cd158 O166 2.277 1_554 S
Cd158 O167 2.356 . S
C159 O164 1.209 . S
C159 O166 1.226 . S
O160 Cd156 2.273 1_554 S
O160 Cd158 2.411 . S
O160 C163 1.320 . S
O161 Cd158 2.333 . S
O161 C163 1.214 . S
O162 Cd158 2.352 . S
O162 C165 1.258 . S
C163 O160 1.320 . S
C163 O161 1.214 . S
O164 Cd156 2.277 . S
O164 C159 1.209 . S
C165 O162 1.258 . S
C165 O167 1.282 . S
O166 Cd158 2.277 1_556 S
O166 C159 1.226 . S
O167 Cd158 2.356 . S
O167 C165 1.282 . S
C168 O169 1.306 . S
C168 O171 1.160 . S
O169 C168 1.306 . S
O169 Cd170 2.228 1_554 S
Cd170 O169 2.228 1_556 S
Cd170 O174 2.273 1_556 S
Cd170 O178 2.277 . S
O171 C168 1.160 . S
O171 Cd172 2.203 . S
Cd172 O171 2.203 . S
Cd172 O174 2.411 . S
Cd172 O175 2.333 . S
Cd172 O176 2.352 . S
Cd172 O180 2.277 1_554 S
Cd172 O181 2.356 . S
C173 O178 1.209 . S
C173 O180 1.226 . S
O174 Cd170 2.273 1_554 S
O174 Cd172 2.411 . S
O174 C177 1.320 . S
O175 Cd172 2.333 . S
O175 C177 1.214 . S
O176 Cd172 2.352 . S
O176 C179 1.258 . S
C177 O174 1.320 . S
C177 O175 1.214 . S
O178 Cd170 2.277 . S
O178 C173 1.209 . S
C179 O176 1.258 . S
C179 O181 1.282 . S
O180 Cd172 2.277 1_556 S
O180 C173 1.226 . S
O181 Cd172 2.356 . S
O181 C179 1.282 . S
C182 O183 1.306 . S
C182 O185 1.160 . S
O183 C182 1.306 . S
O183 Cd184 2.228 . S
Cd184 O183 2.228 . S
Cd184 O188 2.273 . S
Cd184 O192 2.277 . S
O185 C182 1.160 . S
O185 Cd186 2.203 . S
Cd186 O185 2.203 . S
Cd186 O188 2.411 . S
Cd186 O189 2.333 . S
Cd186 O190 2.352 1_554 S
Cd186 O194 2.277 . S
Cd186 O195 2.356 1_554 S
C187 O192 1.209 . S
C187 O194 1.226 . S
O188 Cd184 2.273 . S
O188 Cd186 2.411 . S
O188 C191 1.320 . S
O189 Cd186 2.333 . S
O189 C191 1.214 . S
O190 Cd186 2.352 1_556 S
O190 C193 1.258 . S
C191 O188 1.320 . S
C191 O189 1.214 . S
O192 Cd184 2.277 . S
O192 C187 1.209 . S
C193 O190 1.258 . S
C193 O195 1.282 . S
O194 Cd186 2.277 . S
O194 C187 1.226 . S
O195 Cd186 2.356 1_556 S
O195 C193 1.282 . S
C196 O197 1.306 . S
C196 O199 1.160 . S
O197 C196 1.306 . S
O197 Cd198 2.228 . S
Cd198 O197 2.228 . S
Cd198 O202 2.273 . S
Cd198 O206 2.277 . S
O199 C196 1.160 . S
O199 Cd200 2.203 . S
Cd200 O199 2.203 . S
Cd200 O202 2.411 . S
Cd200 O203 2.333 . S
Cd200 O204 2.352 . S
Cd200 O208 2.277 . S
Cd200 O209 2.356 . S
C201 O206 1.209 . S
C201 O208 1.226 . S
O202 Cd198 2.273 . S
O202 Cd200 2.411 . S
O202 C205 1.320 . S
O203 Cd200 2.333 . S
O203 C205 1.214 . S
O204 Cd200 2.352 . S
O204 C207 1.258 . S
C205 O202 1.320 . S
C205 O203 1.214 . S
O206 Cd198 2.277 . S
O206 C201 1.209 . S
C207 O204 1.258 . S
C207 O209 1.282 . S
O208 Cd200 2.277 . S
O208 C201 1.226 . S
O209 Cd200 2.356 . S
O209 C207 1.282 . S
C210 O211 1.306 . S
C210 O213 1.160 . S
O211 C210 1.306 . S
O211 Cd212 2.228 . S
Cd212 O211 2.228 . S
Cd212 O216 2.273 . S
Cd212 O220 2.277 . S
O213 C210 1.160 . S
O213 Cd214 2.203 . S
Cd214 O213 2.203 . S
Cd214 O216 2.411 . S
Cd214 O217 2.333 . S
Cd214 O218 2.352 . S
Cd214 O222 2.277 . S
Cd214 O223 2.356 . S
C215 O220 1.209 . S
C215 O222 1.226 . S
O216 Cd212 2.273 . S
O216 Cd214 2.411 . S
O216 C219 1.320 . S
O217 Cd214 2.333 . S
O217 C219 1.214 . S
O218 Cd214 2.352 . S
O218 C221 1.258 . S
C219 O216 1.320 . S
C219 O217 1.214 . S
O220 Cd212 2.277 . S
O220 C215 1.209 . S
C221 O218 1.258 . S
C221 O223 1.282 . S
O222 Cd214 2.277 . S
O222 C215 1.226 . S
O223 Cd214 2.356 . S
O223 C221 1.282 . S
C224 O225 1.306 . S
C224 O227 1.160 . S
O225 C224 1.306 . S
O225 Cd226 2.228 . S
Cd226 O225 2.228 . S
Cd226 O230 2.273 . S
Cd226 O234 2.277 . S
O227 C224 1.160 . S
O227 Cd228 2.203 . S
Cd228 O227 2.203 . S
Cd228 O230 2.411 . S
Cd228 O231 2.333 . S
Cd228 O232 2.352 . S
Cd228 O236 2.277 . S
Cd228 O237 2.356 . S
C229 O234 1.209 . S
C229 O236 1.226 . S
O230 Cd226 2.273 . S
O230 Cd228 2.411 . S
O230 C233 1.320 . S
O231 Cd228 2.333 . S
O231 C233 1.214 . S
O232 Cd228 2.352 . S
O232 C235 1.258 . S
C233 O230 1.320 . S
C233 O231 1.214 . S
O234 Cd226 2.277 . S
O234 C229 1.209 . S
C235 O232 1.258 . S
C235 O237 1.282 . S
O236 Cd228 2.277 . S
O236 C229 1.226 . S
O237 Cd228 2.356 . S
O237 C235 1.282 . S
C238 O239 1.306 . S
C238 O241 1.160 . S
O239 C238 1.306 . S
O239 Cd240 2.228 . S
Cd240 O239 2.228 . S
Cd240 O244 2.273 . S
Cd240 O248 2.277 . S
O241 C238 1.160 . S
O241 Cd242 2.203 . S
Cd242 O241 2.203 . S
Cd242 O244 2.411 . S
Cd242 O245 2.333 . S
Cd242 O246 2.352 . S
Cd242 O250 2.277 . S
Cd242 O251 2.356 . S
C243 O248 1.209 . S
C243 O250 1.226 . S
O244 Cd240 2.273 . S
O244 Cd242 2.411 . S
O244 C247 1.320 . S
O245 Cd242 2.333 . S
O245 C247 1.214 . S
O246 Cd242 2.352 . S
O246 C249 1.258 . S
C247 O244 1.320 . S
C247 O245 1.214 . S
O248 Cd240 2.277 . S
O248 C243 1.209 . S
C249 O246 1.258 . S
C249 O251 1.282 . S
O250 Cd242 2.277 . S
O250 C243 1.226 . S
O251 Cd242 2.356 . S
O251 C249 1.282 . S
C252 O253 1.306 . S
C252 O255 1.160 . S
O253 C252 1.306 . S
O253 Cd254 2.228 . S
Cd254 O253 2.228 . S
Cd254 O258 2.273 . S
Cd254 O262 2.277 . S
O255 C252 1.160 . S
O255 Cd256 2.203 . S
Cd256 O255 2.203 . S
Cd256 O258 2.411 . S
Cd256 O259 2.333 . S
Cd256 O260 2.352 . S
Cd256 O264 2.277 . S
Cd256 O265 2.356 . S
C257 O262 1.209 . S
C257 O264 1.226 . S
O258 Cd254 2.273 . S
O258 Cd256 2.411 . S
O258 C261 1.320 . S
O259 Cd256 2.333 . S
O259 C261 1.214 . S
O260 Cd256 2.352 . S
O260 C263 1.258 . S
C261 O258 1.320 . S
C261 O259 1.214 . S
O262 Cd254 2.277 . S
O262 C257 1.209 . S
C263 O260 1.258 . S
C263 O265 1.282 . S
O264 Cd256 2.277 . S
O264 C257 1.226 . S
O265 Cd256 2.356 . S
O265 C263 1.282 . S
C266 O267 1.306 . S
C266 O269 1.160 . S
O267 C266 1.306 . S
O267 Cd268 2.228 . S
Cd268 O267 2.228 . S
Cd268 O272 2.273 . S
Cd268 O276 2.277 . S
O269 C266 1.160 . S
O269 Cd270 2.203 . S
Cd270 O269 2.203 . S
Cd270 O272 2.411 . S
Cd270 O273 2.333 . S
Cd270 O274 2.352 . S
Cd270 O278 2.277 . S
Cd270 O279 2.356 . S
C271 O276 1.209 . S
C271 O278 1.226 . S
O272 Cd268 2.273 . S
O272 Cd270 2.411 . S
O272 C275 1.320 . S
O273 Cd270 2.333 . S
O273 C275 1.214 . S
O274 Cd270 2.352 . S
O274 C277 1.258 . S
C275 O272 1.320 . S
C275 O273 1.214 . S
O276 Cd268 2.277 . S
O276 C271 1.209 . S
C277 O274 1.258 . S
C277 O279 1.282 . S
O278 Cd270 2.277 . S
O278 C271 1.226 . S
O279 Cd270 2.356 . S
O279 C277 1.282 . S
C280 O281 1.306 . S
C280 O283 1.160 . S
O281 C280 1.306 . S
O281 Cd282 2.228 . S
Cd282 O281 2.228 . S
Cd282 O286 2.273 . S
Cd282 O290 2.277 . S
O283 C280 1.160 . S
O283 Cd284 2.203 . S
Cd284 O283 2.203 . S
Cd284 O286 2.411 . S
Cd284 O287 2.334 1_554 S
Cd284 O288 2.352 1_554 S
Cd284 O292 2.277 . S
Cd284 O293 2.356 1_554 S
C285 O290 1.209 . S
C285 O292 1.226 . S
O286 Cd282 2.273 . S
O286 Cd284 2.411 . S
O286 C289 1.321 1_554 S
O287 Cd284 2.334 1_556 S
O287 C289 1.207 . S
O288 Cd284 2.352 1_556 S
O288 C291 1.258 . S
C289 O286 1.321 1_556 S
C289 O287 1.207 . S
O290 Cd282 2.277 . S
O290 C285 1.209 . S
C291 O288 1.258 . S
C291 O293 1.282 . S
O292 Cd284 2.277 . S
O292 C285 1.226 . S
O293 Cd284 2.356 1_556 S
O293 C291 1.282 . S
C294 O295 1.306 . S
C294 O297 1.160 . S
O295 C294 1.306 . S
O295 Cd296 2.228 . S
Cd296 O295 2.228 . S
Cd296 O300 2.273 . S
Cd296 O304 2.277 . S
O297 C294 1.160 . S
O297 Cd298 2.203 . S
Cd298 O297 2.203 . S
Cd298 O300 2.411 . S
Cd298 O301 2.333 . S
Cd298 O302 2.352 . S
Cd298 O306 2.277 . S
Cd298 O307 2.356 . S
C299 O304 1.209 . S
C299 O306 1.226 . S
O300 Cd296 2.273 . S
O300 Cd298 2.411 . S
O300 C303 1.320 . S
O301 Cd298 2.333 . S
O301 C303 1.214 . S
O302 Cd298 2.352 . S
O302 C305 1.258 . S
C303 O300 1.320 . S
C303 O301 1.214 . S
O304 Cd296 2.277 . S
O304 C299 1.209 . S
C305 O302 1.258 . S
C305 O307 1.282 . S
O306 Cd298 2.277 . S
O306 C299 1.226 . S
O307 Cd298 2.356 . S
O307 C305 1.282 . S
C308 O309 1.306 . S
C308 O311 1.160 . S
O309 C308 1.306 . S
O309 Cd310 2.228 . S
Cd310 O309 2.228 . S
Cd310 O314 2.273 . S
Cd310 O318 2.277 . S
O311 C308 1.160 . S
O311 Cd312 2.203 . S
Cd312 O311 2.203 . S
Cd312 O314 2.411 . S
Cd312 O315 2.333 . S
Cd312 O316 2.352 . S
Cd312 O320 2.277 . S
Cd312 O321 2.356 . S
C313 O318 1.209 . S
C313 O320 1.226 . S
O314 Cd310 2.273 . S
O314 Cd312 2.411 . S
O314 C317 1.320 . S
O315 Cd312 2.333 . S
O315 C317 1.214 . S
O316 Cd312 2.352 . S
O316 C319 1.258 . S
C317 O314 1.320 . S
C317 O315 1.214 . S
O318 Cd310 2.277 . S
O318 C313 1.209 . S
C319 O316 1.258 . S
C319 O321 1.282 . S
O320 Cd312 2.277 . S
O320 C313 1.226 . S
O321 Cd312 2.356 . S
O321 C319 1.282 . S
C322 O323 1.306 . S
C322 O325 1.160 . S
O323 C322 1.306 . S
O323 Cd324 2.228 . S
Cd324 O323 2.228 . S
Cd324 O328 2.273 . S
Cd324 O332 2.277 . S
O325 C322 1.160 . S
O325 Cd326 2.203 . S
Cd326 O325 2.203 . S
Cd326 O328 2.411 . S
Cd326 O329 2.333 . S
Cd326 O330 2.352 . S
Cd326 O334 2.277 . S
Cd326 O335 2.356 . S
C327 O332 1.209 . S
C327 O334 1.226 . S
O328 Cd324 2.273 . S
O328 Cd326 2.411 . S
O328 C331 1.320 . S
O329 Cd326 2.333 . S
O329 C331 1.214 . S
O330 Cd326 2.352 . S
O330 C333 1.258 . S
C331 O328 1.320 . S
C331 O329 1.214 . S
O332 Cd324 2.277 . S
O332 C327 1.209 . S
C333 O330 1.258 . S
C333 O335 1.282 . S
O334 Cd326 2.277 . S
O334 C327 1.226 . S
O335 Cd326 2.356 . S
O335 C333 1.282 . S
Ho336 C339 2.811 1_454 S
Ho336 O356 2.322 1_554 S
Ho336 O358 2.379 1_454 S
Ho336 O359 2.523 1_455 S
Ho336 O360 2.382 1_554 S
Ho336 O361 2.670 1_554 S
Ho336 O363 2.345 1_545 S
Ho336 O367 2.303 . S
Ho337 C348 2.811 . S
Ho337 O357 2.346 . S
Ho337 O361 2.305 1_554 S
Ho337 O362 2.322 . S
Ho337 O364 2.378 . S
Ho337 O365 2.524 . S
Ho337 O366 2.381 . S
Ho337 O367 2.669 . S
C338 O356 1.259 1_554 S
C338 O357 1.268 . S
C339 Ho336 2.811 1_656 S
C339 C340 1.488 . S
C339 O358 1.215 . S
C339 O359 1.289 1_556 S
C340 C339 1.488 . S
C340 C341 1.348 1_556 S
C340 C345 1.413 . S
C341 C340 1.348 1_554 S
C341 C342 1.442 1_554 S
C341 H368 0.930 . S
C342 C341 1.442 1_556 S
C342 C343 1.381 . S
C342 H369 0.931 1_556 S
C343 C342 1.381 . S
C343 C344 1.321 . S
C344 C343 1.321 . S
C344 C345 1.403 . S
C344 H370 0.934 . S
C345 C340 1.413 . S
C345 C344 1.403 . S
C345 H371 0.930 . S
C346 O360 1.275 . S
C346 O361 1.256 . S
C347 O362 1.259 1_565 S
C347 O363 1.268 . S
C348 Ho337 2.811 . S
C348 C349 1.488 . S
C348 O364 1.215 . S
C348 O365 1.289 . S
C349 C348 1.488 . S
C349 C350 1.348 . S
C349 C354 1.413 . S
C350 C349 1.348 . S
C350 C351 1.442 1_545 S
C350 H372 0.930 1_545 S
C351 C350 1.442 1_565 S
C351 C352 1.380 1_565 S
C351 H373 0.931 . S
C352 C351 1.380 1_545 S
C352 C353 1.339 . S
C353 C352 1.339 . S
C353 C354 1.403 . S
C353 H374 0.934 . S
C354 C349 1.413 . S
C354 C353 1.403 . S
C354 H375 0.930 . S
C355 O366 1.275 . S
C355 O367 1.256 . S
O356 Ho336 2.322 1_556 S
O356 C338 1.259 1_556 S
O357 Ho337 2.346 . S
O357 C338 1.268 . S
O358 Ho336 2.379 1_656 S
O358 C339 1.215 . S
O359 Ho336 2.523 1_655 S
O359 C339 1.289 1_554 S
O360 Ho336 2.382 1_556 S
O360 C346 1.275 . S
O361 Ho336 2.670 1_556 S
O361 Ho337 2.305 1_556 S
O361 C346 1.256 . S
O362 Ho337 2.322 . S
O362 C347 1.259 1_545 S
O363 Ho336 2.345 1_565 S
O363 C347 1.268 . S
O364 Ho337 2.378 . S
O364 C348 1.215 . S
O365 Ho337 2.524 . S
O365 C348 1.289 . S
O366 Ho337 2.381 . S
O366 C355 1.275 . S
O367 Ho336 2.303 . S
O367 Ho337 2.669 . S
O367 C355 1.256 . S
H368 C341 0.930 . S
H369 C342 0.931 1_554 S
H370 C344 0.934 . S
H371 C345 0.930 . S
H372 C350 0.930 1_565 S
H373 C351 0.931 . S
H374 C353 0.934 . S
H375 C354 0.930 . S
Ho376 C379 2.811 . S
Ho376 O396 2.322 . S
Ho376 O398 2.378 . S
Ho376 O399 2.524 . S
Ho376 O400 2.381 . S
Ho376 O401 2.669 . S
Ho376 O403 2.346 . S
Ho376 O407 2.305 . S
Ho377 C388 2.811 . S
Ho377 O397 2.346 . S
Ho377 O401 2.305 . S
Ho377 O402 2.322 . S
Ho377 O404 2.378 . S
Ho377 O405 2.524 . S
Ho377 O406 2.381 . S
Ho377 O407 2.669 . S
C378 O396 1.259 . S
C378 O397 1.268 . S
C379 Ho376 2.811 . S
C379 C380 1.488 . S
C379 O398 1.215 . S
C379 O399 1.289 . S
C380 C379 1.488 . S
C380 C381 1.348 . S
C380 C385 1.413 . S
C381 C380 1.348 . S
C381 C382 1.442 . S
C381 H408 0.930 . S
C382 C381 1.442 . S
C382 C383 1.381 . S
C382 H409 0.931 . S
C383 C382 1.381 . S
C383 C384 1.321 . S
C384 C383 1.321 . S
C384 C385 1.403 . S
C384 H410 0.934 . S
C385 C380 1.413 . S
C385 C384 1.403 . S
C385 H411 0.930 . S
C386 O400 1.275 . S
C386 O401 1.256 . S
C387 O402 1.259 . S
C387 O403 1.268 . S
C388 Ho377 2.811 . S
C388 C389 1.488 . S
C388 O404 1.215 . S
C388 O405 1.289 . S
C389 C388 1.488 . S
C389 C390 1.348 . S
C389 C394 1.413 . S
C390 C389 1.348 . S
C390 C391 1.442 . S
C390 H412 0.930 . S
C391 C390 1.442 . S
C391 C392 1.381 . S
C391 H413 0.931 . S
C392 C391 1.381 . S
C392 C393 1.321 . S
C393 C392 1.321 . S
C393 C394 1.403 . S
C393 H414 0.934 . S
C394 C389 1.413 . S
C394 C393 1.403 . S
C394 H415 0.930 . S
C395 O406 1.275 . S
C395 O407 1.256 . S
O396 Ho376 2.322 . S
O396 C378 1.259 . S
O397 Ho377 2.346 . S
O397 C378 1.268 . S
O398 Ho376 2.378 . S
O398 C379 1.215 . S
O399 Ho376 2.524 . S
O399 C379 1.289 . S
O400 Ho376 2.381 . S
O400 C386 1.275 . S
O401 Ho376 2.669 . S
O401 Ho377 2.305 . S
O401 C386 1.256 . S
O402 Ho377 2.322 . S
O402 C387 1.259 . S
O403 Ho376 2.346 . S
O403 C387 1.268 . S
O404 Ho377 2.378 . S
O404 C388 1.215 . S
O405 Ho377 2.524 . S
O405 C388 1.289 . S
O406 Ho377 2.381 . S
O406 C395 1.275 . S
O407 Ho376 2.305 . S
O407 Ho377 2.669 . S
O407 C395 1.256 . S
H408 C381 0.930 . S
H409 C382 0.931 . S
H410 C384 0.934 . S
H411 C385 0.930 . S
H412 C390 0.930 . S
H413 C391 0.931 . S
H414 C393 0.934 . S
H415 C394 0.930 . S
Ho416 C419 2.811 . S
Ho416 O436 2.315 1_545 S
Ho416 O438 2.378 . S
Ho416 O439 2.524 . S
Ho416 O440 2.381 . S
Ho416 O441 2.669 . S
Ho416 O443 2.346 . S
Ho416 O447 2.305 . S
Ho417 C428 2.811 . S
Ho417 O437 2.346 1_545 S
Ho417 O441 2.305 . S
Ho417 O442 2.322 . S
Ho417 O444 2.378 . S
Ho417 O445 2.524 . S
Ho417 O446 2.381 . S
Ho417 O447 2.669 . S
C418 O436 1.263 . S
C418 O437 1.268 . S
C419 Ho416 2.811 . S
C419 C420 1.488 1_545 S
C419 O438 1.215 . S
C419 O439 1.289 . S
C420 C419 1.488 1_565 S
C420 C421 1.348 . S
C420 C425 1.413 . S
C421 C420 1.348 . S
C421 C422 1.442 . S
C421 H448 0.930 . S
C422 C421 1.442 . S
C422 C423 1.381 . S
C422 H449 0.931 . S
C423 C422 1.381 . S
C423 C424 1.321 . S
C424 C423 1.321 . S
C424 C425 1.403 . S
C424 H450 0.934 . S
C425 C420 1.413 . S
C425 C424 1.403 . S
C425 H451 0.955 . S
C426 O440 1.275 . S
C426 O441 1.256 . S
C427 O442 1.259 . S
C427 O443 1.268 . S
C428 Ho417 2.811 . S
C428 C429 1.488 . S
C428 O444 1.215 . S
C428 O445 1.289 . S
C429 C428 1.488 . S
C429 C430 1.348 . S
C429 C434 1.413 . S
C430 C429 1.348 . S
C430 C431 1.442 . S
C430 H452 0.930 . S
C431 C430 1.442 . S
C431 C432 1.381 . S
C431 H453 0.931 . S
C432 C431 1.381 . S
C432 C433 1.321 . S
C433 C432 1.321 . S
C433 C434 1.403 . S
C433 H454 0.934 . S
C434 C429 1.413 . S
C434 C433 1.403 . S
C434 H455 0.930 . S
C435 O446 1.275 . S
C435 O447 1.256 . S
O436 Ho416 2.315 1_565 S
O436 C418 1.263 . S
O437 Ho417 2.346 1_565 S
O437 C418 1.268 . S
O438 Ho416 2.378 . S
O438 C419 1.215 . S
O439 Ho416 2.524 . S
O439 C419 1.289 . S
O440 Ho416 2.381 . S
O440 C426 1.275 . S
O441 Ho416 2.669 . S
O441 Ho417 2.305 . S
O441 C426 1.256 . S
O442 Ho417 2.322 . S
O442 C427 1.259 . S
O443 Ho416 2.346 . S
O443 C427 1.268 . S
O444 Ho417 2.378 . S
O444 C428 1.215 . S
O445 Ho417 2.524 . S
O445 C428 1.289 . S
O446 Ho417 2.381 . S
O446 C435 1.275 . S
O447 Ho416 2.305 . S
O447 Ho417 2.669 . S
O447 C435 1.256 . S
H448 C421 0.930 . S
H449 C422 0.931 . S
H450 C424 0.934 . S
H451 C425 0.955 . S
H452 C430 0.930 . S
H453 C431 0.931 . S
H454 C433 0.934 . S
H455 C434 0.930 . S
Ho456 C459 2.811 . S
Ho456 O476 2.322 . S
Ho456 O478 2.378 . S
Ho456 O479 2.524 . S
Ho456 O480 2.381 . S
Ho456 O481 2.669 . S
Ho456 O483 2.346 . S
Ho456 O487 2.305 . S
Ho457 C468 2.811 . S
Ho457 O477 2.346 . S
Ho457 O481 2.305 . S
Ho457 O482 2.322 . S
Ho457 O484 2.378 . S
Ho457 O485 2.524 . S
Ho457 O486 2.381 . S
Ho457 O487 2.669 . S
C458 O476 1.259 . S
C458 O477 1.268 . S
C459 Ho456 2.811 . S
C459 C460 1.488 . S
C459 O478 1.215 . S
C459 O479 1.289 . S
C460 C459 1.488 . S
C460 C461 1.348 . S
C460 C465 1.413 . S
C461 C460 1.348 . S
C461 C462 1.442 . S
C461 H488 0.930 . S
C462 C461 1.442 . S
C462 C463 1.381 . S
C462 H489 0.931 . S
C463 C462 1.381 . S
C463 C464 1.321 . S
C464 C463 1.321 . S
C464 C465 1.403 . S
C464 H490 0.934 . S
C465 C460 1.413 . S
C465 C464 1.403 . S
C465 H491 0.930 . S
C466 O480 1.275 . S
C466 O481 1.256 . S
C467 O482 1.259 . S
C467 O483 1.268 . S
C468 Ho457 2.811 . S
C468 C469 1.488 . S
C468 O484 1.215 . S
C468 O485 1.289 . S
C469 C468 1.488 . S
C469 C470 1.348 . S
C469 C474 1.413 . S
C470 C469 1.348 . S
C470 C471 1.442 . S
C470 H492 0.930 . S
C471 C470 1.442 . S
C471 C472 1.381 . S
C471 H493 0.931 . S
C472 C471 1.381 . S
C472 C473 1.321 . S
C473 C472 1.321 . S
C473 C474 1.403 . S
C473 H494 0.934 . S
C474 C469 1.413 . S
C474 C473 1.403 . S
C474 H495 0.930 . S
C475 O486 1.275 . S
C475 O487 1.256 . S
O476 Ho456 2.322 . S
O476 C458 1.259 . S
O477 Ho457 2.346 . S
O477 C458 1.268 . S
O478 Ho456 2.378 . S
O478 C459 1.215 . S
O479 Ho456 2.524 . S
O479 C459 1.289 . S
O480 Ho456 2.381 . S
O480 C466 1.275 . S
O481 Ho456 2.669 . S
O481 Ho457 2.305 . S
O481 C466 1.256 . S
O482 Ho457 2.322 . S
O482 C467 1.259 . S
O483 Ho456 2.346 . S
O483 C467 1.268 . S
O484 Ho457 2.378 . S
O484 C468 1.215 . S
O485 Ho457 2.524 . S
O485 C468 1.289 . S
O486 Ho457 2.381 . S
O486 C475 1.275 . S
O487 Ho456 2.305 . S
O487 Ho457 2.669 . S
O487 C475 1.256 . S
H488 C461 0.930 . S
H489 C462 0.931 . S
H490 C464 0.934 . S
H491 C465 0.930 . S
H492 C470 0.930 . S
H493 C471 0.931 . S
H494 C473 0.934 . S
H495 C474 0.930 . S
Ho496 C499 2.811 . S
Ho496 O516 2.322 . S
Ho496 O518 2.378 . S
Ho496 O519 2.524 . S
Ho496 O520 2.381 . S
Ho496 O521 2.669 . S
Ho496 O523 2.346 . S
Ho496 O527 2.305 . S
Ho497 C508 2.811 1_545 S
Ho497 O517 2.346 . S
Ho497 O521 2.305 . S
Ho497 O522 2.322 . S
Ho497 O524 2.378 1_545 S
Ho497 O525 2.524 1_545 S
Ho497 O526 2.381 . S
Ho497 O527 2.669 . S
C498 O516 1.259 . S
C498 O517 1.268 . S
C499 Ho496 2.811 . S
C499 C500 1.488 . S
C499 O518 1.215 . S
C499 O519 1.289 . S
C500 C499 1.488 . S
C500 C501 1.348 . S
C500 C505 1.413 . S
C501 C500 1.348 . S
C501 C502 1.442 . S
C501 H528 0.930 . S
C502 C501 1.442 . S
C502 C503 1.381 . S
C502 H529 0.931 . S
C503 C502 1.381 . S
C503 C504 1.321 . S
C504 C503 1.321 . S
C504 C505 1.403 . S
C504 H530 0.934 . S
C505 C500 1.413 . S
C505 C504 1.403 . S
C505 H531 0.930 . S
C506 O520 1.275 . S
C506 O521 1.256 . S
C507 O522 1.259 . S
C507 O523 1.268 . S
C508 Ho497 2.811 1_565 S
C508 C509 1.488 . S
C508 O524 1.215 . S
C508 O525 1.289 . S
C509 C508 1.488 . S
C509 C510 1.348 . S
C509 C514 1.413 . S
C510 C509 1.348 . S
C510 C511 1.442 . S
C510 H532 0.930 . S
C511 C510 1.442 . S
C511 C512 1.381 . S
C511 H533 0.931 . S
C512 C511 1.381 . S
C512 C513 1.321 . S
C513 C512 1.321 . S
C513 C514 1.403 . S
C513 H534 0.934 . S
C514 C509 1.413 . S
C514 C513 1.403 . S
C514 H535 0.930 . S
C515 O526 1.275 . S
C515 O527 1.256 . S
O516 Ho496 2.322 . S
O516 C498 1.259 . S
O517 Ho497 2.346 . S
O517 C498 1.268 . S
O518 Ho496 2.378 . S
O518 C499 1.215 . S
O519 Ho496 2.524 . S
O519 C499 1.289 . S
O520 Ho496 2.381 . S
O520 C506 1.275 . S
O521 Ho496 2.669 . S
O521 Ho497 2.305 . S
O521 C506 1.256 . S
O522 Ho497 2.322 . S
O522 C507 1.259 . S
O523 Ho496 2.346 . S
O523 C507 1.268 . S
O524 Ho497 2.378 1_565 S
O524 C508 1.215 . S
O525 Ho497 2.524 1_565 S
O525 C508 1.289 . S
O526 Ho497 2.381 . S
O526 C515 1.275 . S
O527 Ho496 2.305 . S
O527 Ho497 2.669 . S
O527 C515 1.256 . S
H528 C501 0.930 . S
H529 C502 0.931 . S
H530 C504 0.934 . S
H531 C505 0.930 . S
H532 C510 0.930 . S
H533 C511 0.931 . S
H534 C513 0.934 . S
H535 C514 0.930 . S
Ho536 C539 2.811 . S
Ho536 O556 2.322 . S
Ho536 O558 2.378 . S
Ho536 O559 2.524 . S
Ho536 O560 2.381 . S
Ho536 O561 2.669 . S
Ho536 O563 2.346 . S
Ho536 O567 2.305 . S
Ho537 C548 2.811 . S
Ho537 O557 2.346 . S
Ho537 O561 2.305 . S
Ho537 O562 2.322 . S
Ho537 O564 2.378 . S
Ho537 O565 2.524 . S
Ho537 O566 2.381 . S
Ho537 O567 2.669 . S
C538 O556 1.259 . S
C538 O557 1.268 . S
C539 Ho536 2.811 . S
C539 C540 1.488 . S
C539 O558 1.215 . S
C539 O559 1.289 . S
C540 C539 1.488 . S
C540 C541 1.348 . S
C540 C545 1.413 . S
C541 C540 1.348 . S
C541 C542 1.442 . S
C541 H568 0.930 . S
C542 C541 1.442 . S
C542 C543 1.381 . S
C542 H569 0.931 . S
C543 C542 1.381 . S
C543 C544 1.321 . S
C544 C543 1.321 . S
C544 C545 1.403 . S
C544 H570 0.934 . S
C545 C540 1.413 . S
C545 C544 1.403 . S
C545 H571 0.930 . S
C546 O560 1.275 . S
C546 O561 1.256 . S
C547 O562 1.259 . S
C547 O563 1.268 . S
C548 Ho537 2.811 . S
C548 C549 1.488 . S
C548 O564 1.215 . S
C548 O565 1.289 . S
C549 C548 1.488 . S
C549 C550 1.348 . S
C549 C554 1.413 . S
C550 C549 1.348 . S
C550 C551 1.442 . S
C550 H572 0.930 . S
C551 C550 1.442 . S
C551 C552 1.381 . S
C551 H573 0.931 . S
C552 C551 1.381 . S
C552 C553 1.321 . S
C553 C552 1.321 . S
C553 C554 1.403 . S
C553 H574 0.934 . S
C554 C549 1.413 . S
C554 C553 1.403 . S
C554 H575 0.930 . S
C555 O566 1.275 . S
C555 O567 1.256 . S
O556 Ho536 2.322 . S
O556 C538 1.259 . S
O557 Ho537 2.346 . S
O557 C538 1.268 . S
O558 Ho536 2.378 . S
O558 C539 1.215 . S
O559 Ho536 2.524 . S
O559 C539 1.289 . S
O560 Ho536 2.381 . S
O560 C546 1.275 . S
O561 Ho536 2.669 . S
O561 Ho537 2.305 . S
O561 C546 1.256 . S
O562 Ho537 2.322 . S
O562 C547 1.259 . S
O563 Ho536 2.346 . S
O563 C547 1.268 . S
O564 Ho537 2.378 . S
O564 C548 1.215 . S
O565 Ho537 2.524 . S
O565 C548 1.289 . S
O566 Ho537 2.381 . S
O566 C555 1.275 . S
O567 Ho536 2.305 . S
O567 Ho537 2.669 . S
O567 C555 1.256 . S
H568 C541 0.930 . S
H569 C542 0.931 . S
H570 C544 0.934 . S
H571 C545 0.930 . S
H572 C550 0.930 . S
H573 C551 0.931 . S
H574 C553 0.934 . S
H575 C554 0.930 . S
Ho576 C579 2.811 . S
Ho576 O596 2.322 . S
Ho576 O598 2.378 . S
Ho576 O599 2.524 . S
Ho576 O600 2.381 1_545 S
Ho576 O601 2.669 1_554 S
Ho576 O603 2.346 . S
Ho576 O607 2.305 . S
Ho577 C588 2.811 . S
Ho577 O597 2.346 . S
Ho577 O601 2.305 . S
Ho577 O602 2.322 . S
Ho577 O604 2.378 . S
Ho577 O605 2.524 . S
Ho577 O606 2.381 1_556 S
Ho577 O607 2.669 1_556 S
C578 O596 1.259 . S
C578 O597 1.268 1_554 S
C579 Ho576 2.811 . S
C579 C580 1.488 . S
C579 O598 1.215 . S
C579 O599 1.289 . S
C580 C579 1.488 . S
C580 C581 1.348 . S
C580 C585 1.413 1_545 S
C581 C580 1.348 . S
C581 C582 1.442 . S
C581 H608 0.930 . S
C582 C581 1.442 . S
C582 C583 1.381 1_545 S
C582 H609 0.931 . S
C583 C582 1.381 1_565 S
C583 C584 1.321 . S
C584 C583 1.321 . S
C584 C585 1.403 . S
C584 H610 0.934 . S
C585 C580 1.413 1_565 S
C585 C584 1.403 . S
C585 H611 0.930 . S
C586 O600 1.267 1_556 S
C586 O601 1.259 1_565 S
C587 O602 1.259 1_554 S
C587 O603 1.268 . S
C588 Ho577 2.811 . S
C588 C589 1.488 . S
C588 O604 1.215 . S
C588 O605 1.289 . S
C589 C588 1.488 . S
C589 C590 1.348 . S
C589 C594 1.413 . S
C590 C589 1.348 . S
C590 C591 1.442 . S
C590 H612 0.930 . S
C591 C590 1.442 . S
C591 C592 1.381 . S
C591 H613 0.931 . S
C592 C591 1.381 . S
C592 C593 1.321 . S
C593 C592 1.321 . S
C593 C594 1.403 . S
C593 H614 0.934 . S
C594 C589 1.413 . S
C594 C593 1.403 . S
C594 H615 0.930 . S
C595 O606 1.275 . S
C595 O607 1.256 . S
O596 Ho576 2.322 . S
O596 C578 1.259 . S
O597 Ho577 2.346 . S
O597 C578 1.268 1_556 S
O598 Ho576 2.378 . S
O598 C579 1.215 . S
O599 Ho576 2.524 . S
O599 C579 1.289 . S
O600 Ho576 2.381 1_565 S
O600 C586 1.267 1_554 S
O601 Ho576 2.669 1_556 S
O601 Ho577 2.305 . S
O601 C586 1.259 1_545 S
O602 Ho577 2.322 . S
O602 C587 1.259 1_556 S
O603 Ho576 2.346 . S
O603 C587 1.268 . S
O604 Ho577 2.378 . S
O604 C588 1.215 . S
O605 Ho577 2.524 . S
O605 C588 1.289 . S
O606 Ho577 2.381 1_554 S
O606 C595 1.275 . S
O607 Ho576 2.305 . S
O607 Ho577 2.669 1_554 S
O607 C595 1.256 . S
H608 C581 0.930 . S
H609 C582 0.931 . S
H610 C584 0.934 . S
H611 C585 0.930 . S
H612 C590 0.930 . S
H613 C591 0.931 . S
H614 C593 0.934 . S
H615 C594 0.930 . S
Ho616 C619 2.811 . S
Ho616 O636 2.322 . S
Ho616 O638 2.378 . S
Ho616 O639 2.524 . S
Ho616 O640 2.381 . S
Ho616 O641 2.669 . S
Ho616 O643 2.346 . S
Ho616 O647 2.305 . S
Ho617 C628 2.811 . S
Ho617 O637 2.346 . S
Ho617 O641 2.305 . S
Ho617 O642 2.322 . S
Ho617 O644 2.378 . S
Ho617 O645 2.524 . S
Ho617 O646 2.381 . S
Ho617 O647 2.669 . S
C618 O636 1.259 . S
C618 O637 1.268 . S
C619 Ho616 2.811 . S
C619 C620 1.488 . S
C619 O638 1.215 . S
C619 O639 1.289 . S
C620 C619 1.488 . S
C620 C621 1.348 . S
C620 C625 1.413 . S
C621 C620 1.348 . S
C621 C622 1.442 . S
C621 H648 0.930 . S
C622 C621 1.442 . S
C622 C623 1.381 . S
C622 H649 0.931 . S
C623 C622 1.381 . S
C623 C624 1.321 . S
C624 C623 1.321 . S
C624 C625 1.403 . S
C624 H650 0.934 . S
C625 C620 1.413 . S
C625 C624 1.403 . S
C625 H651 0.930 . S
C626 O640 1.275 . S
C626 O641 1.256 . S
C627 O642 1.259 . S
C627 O643 1.268 . S
C628 Ho617 2.811 . S
C628 C629 1.488 . S
C628 O644 1.215 . S
C628 O645 1.289 . S
C629 C628 1.488 . S
C629 C630 1.348 . S
C629 C634 1.413 . S
C630 C629 1.348 . S
C630 C631 1.442 . S
C630 H652 0.930 . S
C631 C630 1.442 . S
C631 C632 1.381 . S
C631 H653 0.931 . S
C632 C631 1.381 . S
C632 C633 1.321 . S
C633 C632 1.321 . S
C633 C634 1.403 . S
C633 H654 0.934 . S
C634 C629 1.413 . S
C634 C633 1.403 . S
C634 H655 0.930 . S
C635 O646 1.275 . S
C635 O647 1.256 . S
O636 Ho616 2.322 . S
O636 C618 1.259 . S
O637 Ho617 2.346 . S
O637 C618 1.268 . S
O638 Ho616 2.378 . S
O638 C619 1.215 . S
O639 Ho616 2.524 . S
O639 C619 1.289 . S
O640 Ho616 2.381 . S
O640 C626 1.275 . S
O641 Ho616 2.669 . S
O641 Ho617 2.305 . S
O641 C626 1.256 . S
O642 Ho617 2.322 . S
O642 C627 1.259 . S
O643 Ho616 2.346 . S
O643 C627 1.268 . S
O644 Ho617 2.378 . S
O644 C628 1.215 . S
O645 Ho617 2.524 . S
O645 C628 1.289 . S
O646 Ho617 2.381 . S
O646 C635 1.275 . S
O647 Ho616 2.305 . S
O647 Ho617 2.669 . S
O647 C635 1.256 . S
H648 C621 0.930 . S
H649 C622 0.931 . S
H650 C624 0.934 . S
H651 C625 0.930 . S
H652 C630 0.930 . S
H653 C631 0.931 . S
H654 C633 0.934 . S
H655 C634 0.930 . S
Ho656 C659 2.781 1_554 S
Ho656 O676 2.322 1_554 S
Ho656 O678 2.378 . S
Ho656 O679 2.524 1_554 S
Ho656 O680 2.381 . S
Ho656 O681 2.669 . S
Ho656 O683 2.346 . S
Ho656 O687 2.305 . S
Ho657 C668 2.831 . S
Ho657 O677 2.317 1_554 S
Ho657 O681 2.317 . S
Ho657 O682 2.352 . S
Ho657 O684 2.390 . S
Ho657 O685 2.548 . S
Ho657 O686 2.376 . S
Ho657 O687 2.667 . S
C658 O676 1.259 . S
C658 O677 1.268 . S
C659 Ho656 2.781 1_556 S
C659 C660 1.520 . S
C659 O678 1.180 1_556 S
C659 O679 1.297 . S
C660 C659 1.520 . S
C660 C661 1.348 . S
C660 C665 1.413 . S
C661 C660 1.348 . S
C661 C662 1.442 . S
C661 H688 0.930 . S
C662 C661 1.442 . S
C662 C663 1.381 . S
C662 H689 0.931 . S
C663 C662 1.381 . S
C663 C664 1.321 . S
C664 C663 1.321 . S
C664 C665 1.403 . S
C664 H690 0.934 . S
C665 C660 1.413 . S
C665 C664 1.403 . S
C665 H691 0.930 . S
C666 O680 1.275 . S
C666 O681 1.256 . S
C667 O682 1.259 . S
C667 O683 1.268 . S
C668 Ho657 2.831 . S
C668 C669 1.488 . S
C668 O684 1.215 . S
C668 O685 1.289 . S
C669 C668 1.488 . S
C669 C670 1.348 . S
C669 C674 1.413 . S
C670 C669 1.348 . S
C670 C671 1.442 . S
C670 H692 0.930 . S
C671 C670 1.442 . S
C671 C672 1.381 . S
C671 H693 0.931 . S
C672 C671 1.381 . S
C672 C673 1.321 . S
C673 C672 1.321 . S
C673 C674 1.403 . S
C673 H694 0.934 . S
C674 C669 1.413 . S
C674 C673 1.403 . S
C674 H695 0.930 . S
C675 O686 1.275 . S
C675 O687 1.256 . S
O676 Ho656 2.322 1_556 S
O676 C658 1.259 . S
O677 Ho657 2.317 1_556 S
O677 C658 1.268 . S
O678 Ho656 2.378 . S
O678 C659 1.180 1_554 S
O679 Ho656 2.524 1_556 S
O679 C659 1.297 . S
O680 Ho656 2.381 . S
O680 C666 1.275 . S
O681 Ho656 2.669 . S
O681 Ho657 2.317 . S
O681 C666 1.256 . S
O682 Ho657 2.352 . S
O682 C667 1.259 . S
O683 Ho656 2.346 . S
O683 C667 1.268 . S
O684 Ho657 2.390 . S
O684 C668 1.215 . S
O685 Ho657 2.548 . S
O685 C668 1.289 . S
O686 Ho657 2.376 . S
O686 C675 1.275 . S
O687 Ho656 2.305 . S
O687 Ho657 2.667 . S
O687 C675 1.256 . S
H688 C661 0.930 . S
H689 C662 0.931 . S
H690 C664 0.934 . S
H691 C665 0.930 . S
H692 C670 0.930 . S
H693 C671 0.931 . S
H694 C673 0.934 . S
H695 C674 0.930 . S
Ho696 C699 2.811 . S
Ho696 O716 2.322 . S
Ho696 O718 2.378 . S
Ho696 O719 2.524 . S
Ho696 O720 2.381 . S
Ho696 O721 2.669 . S
Ho696 O723 2.346 . S
Ho696 O727 2.305 . S
Ho697 C708 2.811 . S
Ho697 O717 2.346 . S
Ho697 O721 2.305 . S
Ho697 O722 2.322 . S
Ho697 O724 2.378 . S
Ho697 O725 2.524 . S
Ho697 O726 2.381 . S
Ho697 O727 2.669 . S
C698 O716 1.259 . S
C698 O717 1.268 . S
C699 Ho696 2.811 . S
C699 C700 1.488 . S
C699 O718 1.215 . S
C699 O719 1.289 . S
C700 C699 1.488 . S
C700 C701 1.348 . S
C700 C705 1.413 . S
C701 C700 1.348 . S
C701 C702 1.442 . S
C701 H728 0.930 . S
C702 C701 1.442 . S
C702 C703 1.381 . S
C702 H729 0.931 . S
C703 C702 1.381 . S
C703 C704 1.321 . S
C704 C703 1.321 . S
C704 C705 1.403 . S
C704 H730 0.934 . S
C705 C700 1.413 . S
C705 C704 1.403 . S
C705 H731 0.930 . S
C706 O720 1.275 . S
C706 O721 1.256 . S
C707 O722 1.259 . S
C707 O723 1.268 . S
C708 Ho697 2.811 . S
C708 C709 1.488 . S
C708 O724 1.215 . S
C708 O725 1.289 . S
C709 C708 1.488 . S
C709 C710 1.348 . S
C709 C714 1.413 . S
C710 C709 1.348 . S
C710 C711 1.442 . S
C710 H732 0.930 . S
C711 C710 1.442 . S
C711 C712 1.381 . S
C711 H733 0.931 . S
C712 C711 1.381 . S
C712 C713 1.321 . S
C713 C712 1.321 . S
C713 C714 1.403 . S
C713 H734 0.934 . S
C714 C709 1.413 . S
C714 C713 1.403 . S
C714 H735 0.930 . S
C715 O726 1.275 . S
C715 O727 1.256 . S
O716 Ho696 2.322 . S
O716 C698 1.259 . S
O717 Ho697 2.346 . S
O717 C698 1.268 . S
O718 Ho696 2.378 . S
O718 C699 1.215 . S
O719 Ho696 2.524 . S
O719 C699 1.289 . S
O720 Ho696 2.381 . S
O720 C706 1.275 . S
O721 Ho696 2.669 . S
O721 Ho697 2.305 . S
O721 C706 1.256 . S
O722 Ho697 2.322 . S
O722 C707 1.259 . S
O723 Ho696 2.346 . S
O723 C707 1.268 . S
O724 Ho697 2.378 . S
O724 C708 1.215 . S
O725 Ho697 2.524 . S
O725 C708 1.289 . S
O726 Ho697 2.381 . S
O726 C715 1.275 . S
O727 Ho696 2.305 . S
O727 Ho697 2.669 . S
O727 C715 1.256 . S
H728 C701 0.930 . S
H729 C702 0.931 . S
H730 C704 0.934 . S
H731 C705 0.930 . S
H732 C710 0.930 . S
H733 C711 0.931 . S
H734 C713 0.934 . S
H735 C714 0.930 . S
Ho736 C739 2.811 . S
Ho736 O756 2.322 . S
Ho736 O758 2.378 . S
Ho736 O759 2.524 . S
Ho736 O760 2.381 . S
Ho736 O761 2.669 . S
Ho736 O763 2.346 . S
Ho736 O767 2.305 . S
Ho737 C748 2.811 . S
Ho737 O757 2.346 . S
Ho737 O761 2.305 . S
Ho737 O762 2.322 . S
Ho737 O764 2.378 . S
Ho737 O765 2.524 . S
Ho737 O766 2.381 . S
Ho737 O767 2.669 . S
C738 O756 1.259 . S
C738 O757 1.268 . S
C739 Ho736 2.811 . S
C739 C740 1.488 . S
C739 O758 1.215 . S
C739 O759 1.289 . S
C740 C739 1.488 . S
C740 C741 1.348 1_455 S
C740 C745 1.413 . S
C741 C740 1.348 1_655 S
C741 C742 1.442 . S
C741 H768 0.930 . S
C742 C741 1.442 . S
C742 C743 1.381 . S
C742 H769 0.931 . S
C743 C742 1.381 . S
C743 C744 1.321 1_655 S
C744 C743 1.321 1_455 S
C744 C745 1.403 . S
C744 H770 0.934 . S
C745 C740 1.413 . S
C745 C744 1.403 . S
C745 H771 0.930 . S
C746 O760 1.275 . S
C746 O761 1.256 . S
C747 O762 1.259 . S
C747 O763 1.268 . S
C748 Ho737 2.811 . S
C748 C749 1.488 . S
C748 O764 1.215 . S
C748 O765 1.289 . S
C749 C748 1.488 . S
C749 C750 1.348 . S
C749 C754 1.413 . S
C750 C749 1.348 . S
C750 C751 1.442 . S
C750 H772 0.930 . S
C751 C750 1.442 . S
C751 C752 1.381 . S
C751 H773 0.931 . S
C752 C751 1.381 . S
C752 C753 1.321 . S
C753 C752 1.321 . S
C753 C754 1.403 . S
C753 H774 0.934 . S
C754 C749 1.413 . S
C754 C753 1.403 . S
C754 H775 0.930 . S
C755 O766 1.275 . S
C755 O767 1.256 . S
O756 Ho736 2.322 . S
O756 C738 1.259 . S
O757 Ho737 2.346 . S
O757 C738 1.268 . S
O758 Ho736 2.378 . S
O758 C739 1.215 . S
O759 Ho736 2.524 . S
O759 C739 1.289 . S
O760 Ho736 2.381 . S
O760 C746 1.275 . S
O761 Ho736 2.669 . S
O761 Ho737 2.305 . S
O761 C746 1.256 . S
O762 Ho737 2.322 . S
O762 C747 1.259 . S
O763 Ho736 2.346 . S
O763 C747 1.268 . S
O764 Ho737 2.378 . S
O764 C748 1.215 . S
O765 Ho737 2.524 . S
O765 C748 1.289 . S
O766 Ho737 2.381 . S
O766 C755 1.275 . S
O767 Ho736 2.305 . S
O767 Ho737 2.669 . S
O767 C755 1.256 . S
H768 C741 0.930 . S
H769 C742 0.931 . S
H770 C744 0.934 . S
H771 C745 0.930 . S
H772 C750 0.930 . S
H773 C751 0.931 . S
H774 C753 0.934 . S
H775 C754 0.930 . S
Ho776 C779 2.811 . S
Ho776 O796 2.322 . S
Ho776 O798 2.378 . S
Ho776 O799 2.524 . S
Ho776 O800 2.381 . S
Ho776 O801 2.669 . S
Ho776 O803 2.346 . S
Ho776 O807 2.305 . S
Ho777 C788 2.811 . S
Ho777 O797 2.346 . S
Ho777 O801 2.305 . S
Ho777 O802 2.322 . S
Ho777 O804 2.378 . S
Ho777 O805 2.524 . S
Ho777 O806 2.381 . S
Ho777 O807 2.669 . S
C778 O796 1.259 . S
C778 O797 1.268 . S
C779 Ho776 2.811 . S
C779 C780 1.488 . S
C779 O798 1.215 . S
C779 O799 1.289 . S
C780 C779 1.488 . S
C780 C781 1.348 . S
C780 C785 1.413 . S
C781 C780 1.348 . S
C781 C782 1.442 . S
C781 H808 0.930 . S
C782 C781 1.442 . S
C782 C783 1.381 . S
C782 H809 0.931 . S
C783 C782 1.381 . S
C783 C784 1.321 . S
C784 C783 1.321 . S
C784 C785 1.403 . S
C784 H810 0.934 . S
C785 C780 1.413 . S
C785 C784 1.403 . S
C785 H811 0.930 . S
C786 O800 1.275 . S
C786 O801 1.256 . S
C787 O802 1.259 . S
C787 O803 1.268 . S
C788 Ho777 2.811 . S
C788 C789 1.488 . S
C788 O804 1.215 . S
C788 O805 1.289 . S
C789 C788 1.488 . S
C789 C790 1.348 . S
C789 C794 1.413 . S
C790 C789 1.348 . S
C790 C791 1.442 . S
C790 H812 0.930 . S
C791 C790 1.442 . S
C791 C792 1.381 . S
C791 H813 0.931 . S
C792 C791 1.381 . S
C792 C793 1.321 . S
C793 C792 1.321 . S
C793 C794 1.403 . S
C793 H814 0.934 . S
C794 C789 1.413 . S
C794 C793 1.403 . S
C794 H815 0.930 . S
C795 O806 1.275 . S
C795 O807 1.256 . S
O796 Ho776 2.322 . S
O796 C778 1.259 . S
O797 Ho777 2.346 . S
O797 C778 1.268 . S
O798 Ho776 2.378 . S
O798 C779 1.215 . S
O799 Ho776 2.524 . S
O799 C779 1.289 . S
O800 Ho776 2.381 . S
O800 C786 1.275 . S
O801 Ho776 2.669 . S
O801 Ho777 2.305 . S
O801 C786 1.256 . S
O802 Ho777 2.322 . S
O802 C787 1.259 . S
O803 Ho776 2.346 . S
O803 C787 1.268 . S
O804 Ho777 2.378 . S
O804 C788 1.215 . S
O805 Ho777 2.524 . S
O805 C788 1.289 . S
O806 Ho777 2.381 . S
O806 C795 1.275 . S
O807 Ho776 2.305 . S
O807 Ho777 2.669 . S
O807 C795 1.256 . S
H808 C781 0.930 . S
H809 C782 0.931 . S
H810 C784 0.934 . S
H811 C785 0.930 . S
H812 C790 0.930 . S
H813 C791 0.931 . S
H814 C793 0.934 . S
H815 C794 0.930 . S
Ho816 C819 2.811 . S
Ho816 O836 2.322 . S
Ho816 O838 2.378 . S
Ho816 O839 2.524 . S
Ho816 O840 2.381 . S
Ho816 O841 2.669 . S
Ho816 O843 2.346 . S
Ho816 O847 2.305 . S
Ho817 C828 2.811 . S
Ho817 O837 2.346 . S
Ho817 O841 2.305 . S
Ho817 O842 2.322 . S
Ho817 O844 2.378 . S
Ho817 O845 2.524 . S
Ho817 O846 2.381 . S
Ho817 O847 2.669 . S
C818 O836 1.259 . S
C818 O837 1.268 . S
C819 Ho816 2.811 . S
C819 C820 1.488 . S
C819 O838 1.215 . S
C819 O839 1.289 . S
C820 C819 1.488 . S
C820 C821 1.348 . S
C820 C825 1.413 . S
C821 C820 1.348 . S
C821 C822 1.442 . S
C821 H848 0.930 . S
C822 C821 1.442 . S
C822 C823 1.381 . S
C822 H849 0.931 . S
C823 C822 1.381 . S
C823 C824 1.321 . S
C824 C823 1.321 . S
C824 C825 1.403 . S
C824 H850 0.934 . S
C825 C820 1.413 . S
C825 C824 1.403 . S
C825 H851 0.930 . S
C826 O840 1.275 . S
C826 O841 1.256 . S
C827 O842 1.259 . S
C827 O843 1.268 . S
C828 Ho817 2.811 . S
C828 C829 1.488 . S
C828 O844 1.215 . S
C828 O845 1.289 . S
C829 C828 1.488 . S
C829 C830 1.348 . S
C829 C834 1.413 . S
C830 C829 1.348 . S
C830 C831 1.442 . S
C830 H852 0.930 . S
C831 C830 1.442 . S
C831 C832 1.381 . S
C831 H853 0.931 . S
C832 C831 1.381 . S
C832 C833 1.321 . S
C833 C832 1.321 . S
C833 C834 1.403 . S
C833 H854 0.934 . S
C834 C829 1.413 . S
C834 C833 1.403 . S
C834 H855 0.930 . S
C835 O846 1.275 . S
C835 O847 1.256 . S
O836 Ho816 2.322 . S
O836 C818 1.259 . S
O837 Ho817 2.346 . S
O837 C818 1.268 . S
O838 Ho816 2.378 . S
O838 C819 1.215 . S
O839 Ho816 2.524 . S
O839 C819 1.289 . S
O840 Ho816 2.381 . S
O840 C826 1.275 . S
O841 Ho816 2.669 . S
O841 Ho817 2.305 . S
O841 C826 1.256 . S
O842 Ho817 2.322 . S
O842 C827 1.259 . S
O843 Ho816 2.346 . S
O843 C827 1.268 . S
O844 Ho817 2.378 . S
O844 C828 1.215 . S
O845 Ho817 2.524 . S
O845 C828 1.289 . S
O846 Ho817 2.381 . S
O846 C835 1.275 . S
O847 Ho816 2.305 . S
O847 Ho817 2.669 . S
O847 C835 1.256 . S
H848 C821 0.930 . S
H849 C822 0.931 . S
H850 C824 0.934 . S
H851 C825 0.930 . S
H852 C830 0.930 . S
H853 C831 0.931 . S
H854 C833 0.934 . S
H855 C834 0.930 . S
Ho856 C859 2.811 . S
Ho856 O876 2.322 . S
Ho856 O878 2.378 . S
Ho856 O879 2.524 . S
Ho856 O880 2.381 . S
Ho856 O881 2.669 . S
Ho856 O883 2.346 . S
Ho856 O887 2.305 . S
Ho857 C868 2.811 . S
Ho857 O877 2.346 . S
Ho857 O881 2.305 . S
Ho857 O882 2.322 . S
Ho857 O884 2.378 . S
Ho857 O885 2.524 . S
Ho857 O886 2.381 . S
Ho857 O887 2.669 . S
C858 O876 1.259 . S
C858 O877 1.268 . S
C859 Ho856 2.811 . S
C859 C860 1.488 . S
C859 O878 1.215 . S
C859 O879 1.289 . S
C860 C859 1.488 . S
C860 C861 1.348 . S
C860 C865 1.413 . S
C861 C860 1.348 . S
C861 C862 1.442 . S
C861 H888 0.930 . S
C862 C861 1.442 . S
C862 C863 1.381 . S
C862 H889 0.931 . S
C863 C862 1.381 . S
C863 C864 1.321 . S
C864 C863 1.321 . S
C864 C865 1.403 . S
C864 H890 0.934 . S
C865 C860 1.413 . S
C865 C864 1.403 . S
C865 H891 0.930 . S
C866 O880 1.275 . S
C866 O881 1.256 . S
C867 O882 1.259 . S
C867 O883 1.268 . S
C868 Ho857 2.811 . S
C868 C869 1.488 . S
C868 O884 1.215 . S
C868 O885 1.289 . S
C869 C868 1.488 . S
C869 C870 1.348 . S
C869 C874 1.413 . S
C870 C869 1.348 . S
C870 C871 1.442 . S
C870 H892 0.930 . S
C871 C870 1.442 . S
C871 C872 1.381 . S
C871 H893 0.931 . S
C872 C871 1.381 . S
C872 C873 1.321 . S
C873 C872 1.321 . S
C873 C874 1.403 . S
C873 H894 0.934 . S
C874 C869 1.413 . S
C874 C873 1.403 . S
C874 H895 0.930 . S
C875 O886 1.275 . S
C875 O887 1.256 . S
O876 Ho856 2.322 . S
O876 C858 1.259 . S
O877 Ho857 2.346 . S
O877 C858 1.268 . S
O878 Ho856 2.378 . S
O878 C859 1.215 . S
O879 Ho856 2.524 . S
O879 C859 1.289 . S
O880 Ho856 2.381 . S
O880 C866 1.275 . S
O881 Ho856 2.669 . S
O881 Ho857 2.305 . S
O881 C866 1.256 . S
O882 Ho857 2.322 . S
O882 C867 1.259 . S
O883 Ho856 2.346 . S
O883 C867 1.268 . S
O884 Ho857 2.378 . S
O884 C868 1.215 . S
O885 Ho857 2.524 . S
O885 C868 1.289 . S
O886 Ho857 2.381 . S
O886 C875 1.275 . S
O887 Ho856 2.305 . S
O887 Ho857 2.669 . S
O887 C875 1.256 . S
H888 C861 0.930 . S
H889 C862 0.931 . S
H890 C864 0.934 . S
H891 C865 0.930 . S
H892 C870 0.930 . S
H893 C871 0.931 . S
H894 C873 0.934 . S
H895 C874 0.930 . S
Ho896 C899 2.811 . S
Ho896 O916 2.322 . S
Ho896 O918 2.378 . S
Ho896 O919 2.524 . S
Ho896 O920 2.381 . S
Ho896 O921 2.669 . S
Ho896 O923 2.346 . S
Ho896 O927 2.305 . S
Ho897 C908 2.811 . S
Ho897 O917 2.346 . S
Ho897 O921 2.305 . S
Ho897 O922 2.322 . S
Ho897 O924 2.378 . S
Ho897 O925 2.524 . S
Ho897 O926 2.381 . S
Ho897 O927 2.669 . S
C898 O916 1.259 . S
C898 O917 1.268 . S
C899 Ho896 2.811 . S
C899 C900 1.488 . S
C899 O918 1.215 . S
C899 O919 1.289 . S
C900 C899 1.488 . S
C900 C901 1.348 . S
C900 C905 1.413 . S
C901 C900 1.348 . S
C901 C902 1.442 . S
C901 H928 0.930 . S
C902 C901 1.442 . S
C902 C903 1.381 . S
C902 H929 0.931 . S
C903 C902 1.381 . S
C903 C904 1.321 . S
C904 C903 1.321 . S
C904 C905 1.403 . S
C904 H930 0.934 . S
C905 C900 1.413 . S
C905 C904 1.403 . S
C905 H931 0.930 . S
C906 O920 1.275 . S
C906 O921 1.256 . S
C907 O922 1.259 . S
C907 O923 1.268 . S
C908 Ho897 2.811 . S
C908 C909 1.488 . S
C908 O924 1.215 . S
C908 O925 1.289 . S
C909 C908 1.488 . S
C909 C910 1.348 . S
C909 C914 1.413 . S
C910 C909 1.348 . S
C910 C911 1.442 . S
C910 H932 0.930 . S
C911 C910 1.442 . S
C911 C912 1.381 . S
C911 H933 0.931 . S
C912 C911 1.381 . S
C912 C913 1.321 . S
C913 C912 1.321 . S
C913 C914 1.403 . S
C913 H934 0.934 . S
C914 C909 1.413 . S
C914 C913 1.403 . S
C914 H935 0.930 . S
C915 O926 1.275 . S
C915 O927 1.256 . S
O916 Ho896 2.322 . S
O916 C898 1.259 . S
O917 Ho897 2.346 . S
O917 C898 1.268 . S
O918 Ho896 2.378 . S
O918 C899 1.215 . S
O919 Ho896 2.524 . S
O919 C899 1.289 . S
O920 Ho896 2.381 . S
O920 C906 1.275 . S
O921 Ho896 2.669 . S
O921 Ho897 2.305 . S
O921 C906 1.256 . S
O922 Ho897 2.322 . S
O922 C907 1.259 . S
O923 Ho896 2.346 . S
O923 C907 1.268 . S
O924 Ho897 2.378 . S
O924 C908 1.215 . S
O925 Ho897 2.524 . S
O925 C908 1.289 . S
O926 Ho897 2.381 . S
O926 C915 1.275 . S
O927 Ho896 2.305 . S
O927 Ho897 2.669 . S
O927 C915 1.256 . S
H928 C901 0.930 . S
H929 C902 0.931 . S
H930 C904 0.934 . S
H931 C905 0.930 . S
H932 C910 0.930 . S
H933 C911 0.931 . S
H934 C913 0.934 . S
H935 C914 0.930 . S
Ho936 C939 2.811 1_554 S
Ho936 O956 2.322 1_554 S
Ho936 O958 2.378 1_554 S
Ho936 O959 2.524 . S
Ho936 O960 2.381 1_554 S
Ho936 O961 2.669 1_554 S
Ho936 O963 2.346 . S
Ho936 O967 2.305 . S
Ho937 C948 2.811 1_455 S
Ho937 O957 2.346 . S
Ho937 O961 2.305 1_554 S
Ho937 O962 2.322 . S
Ho937 O964 2.378 1_455 S
Ho937 O965 2.524 1_455 S
Ho937 O966 2.381 . S
Ho937 O967 2.669 . S
C938 O956 1.259 1_554 S
C938 O957 1.268 . S
C939 Ho936 2.811 1_556 S
C939 C940 1.488 . S
C939 O958 1.215 . S
C939 O959 1.289 1_556 S
C940 C939 1.488 . S
C940 C941 1.348 1_556 S
C940 C945 1.413 . S
C941 C940 1.348 1_554 S
C941 C942 1.442 . S
C941 H968 0.930 . S
C942 C941 1.442 . S
C942 C943 1.381 1_554 S
C942 H969 0.931 . S
C943 C942 1.381 1_556 S
C943 C944 1.321 . S
C944 C943 1.321 . S
C944 C945 1.403 . S
C944 H970 0.934 . S
C945 C940 1.413 . S
C945 C944 1.403 . S
C945 H971 0.930 . S
C946 O960 1.275 . S
C946 O961 1.256 . S
C947 O962 1.259 . S
C947 O963 1.268 . S
C948 Ho937 2.811 1_655 S
C948 C949 1.488 . S
C948 O964 1.215 . S
C948 O965 1.289 . S
C949 C948 1.488 . S
C949 C950 1.348 . S
C949 C954 1.413 . S
C950 C949 1.348 . S
C950 C951 1.442 . S
C950 H972 0.930 . S
C951 C950 1.442 . S
C951 C952 1.381 . S
C951 H973 0.931 . S
C952 C951 1.381 . S
C952 C953 1.321 . S
C953 C952 1.321 . S
C953 C954 1.403 . S
C953 H974 0.934 . S
C954 C949 1.413 . S
C954 C953 1.403 . S
C954 H975 0.930 . S
C955 O966 1.275 . S
C955 O967 1.256 . S
O956 Ho936 2.322 1_556 S
O956 C938 1.259 1_556 S
O957 Ho937 2.346 . S
O957 C938 1.268 . S
O958 Ho936 2.378 1_556 S
O958 C939 1.215 . S
O959 Ho936 2.524 . S
O959 C939 1.289 1_554 S
O960 Ho936 2.381 1_556 S
O960 C946 1.275 . S
O961 Ho936 2.669 1_556 S
O961 Ho937 2.305 1_556 S
O961 C946 1.256 . S
O962 Ho937 2.322 . S
O962 C947 1.259 . S
O963 Ho936 2.346 . S
O963 C947 1.268 . S
O964 Ho937 2.378 1_655 S
O964 C948 1.215 . S
O965 Ho937 2.524 1_655 S
O965 C948 1.289 . S
O966 Ho937 2.381 . S
O966 C955 1.275 . S
O967 Ho936 2.305 . S
O967 Ho937 2.669 . S
O967 C955 1.256 . S
H968 C941 0.930 . S
H969 C942 0.931 . S
H970 C944 0.934 . S
H971 C945 0.930 . S
H972 C950 0.930 . S
H973 C951 0.931 . S
H974 C953 0.934 . S
H975 C954 0.930 . S
C976 C977 1.349 . S
C976 C978 1.327 . S
C976 H1001 0.950 . S
C977 C976 1.349 . S
C977 C993 1.349 . S
C978 C976 1.327 . S
C978 C997 1.429 . S
C978 H1002 0.950 . S
C979 C996 1.574 . S
C979 C998 1.368 . S
C979 H1003 0.938 1_455 S
H980 C984 0.949 . S
C981 C982 1.349 1_554 S
C981 C983 1.327 1_554 S
C981 H1004 0.950 . S
C982 C981 1.349 1_556 S
C982 C994 1.349 . S
C983 C981 1.327 1_556 S
C983 C999 1.429 . S
C983 H1005 0.950 1_556 S
C984 H980 0.949 . S
C984 C992 1.574 . S
C984 C1000 1.368 . S
H985 C993 0.950 1_655 S
H986 C991 0.950 1_655 S
H987 C992 0.949 . S
H988 C994 0.950 . S
H989 C995 0.950 . S
H990 C996 0.949 . S
C991 H986 0.950 1_455 S
C991 C993 1.327 . S
C991 C997 1.429 . S
C992 C984 1.574 . S
C992 H987 0.949 . S
C992 C998 1.368 . S
C993 C977 1.349 . S
C993 H985 0.950 1_455 S
C993 C991 1.327 . S
C994 C982 1.349 . S
C994 H988 0.950 . S
C994 C995 1.327 . S
C995 H989 0.950 . S
C995 C994 1.327 . S
C995 C999 1.429 . S
C996 C979 1.574 . S
C996 H990 0.949 . S
C996 C1000 1.368 . S
C997 C978 1.429 . S
C997 C991 1.429 . S
C997 C998 1.523 . S
C998 C979 1.368 . S
C998 C992 1.368 . S
C998 C997 1.523 . S
C999 C983 1.429 . S
C999 C995 1.429 . S
C999 C1000 1.523 . S
C1000 C984 1.368 . S
C1000 C996 1.368 . S
C1000 C999 1.523 . S
H1001 C976 0.950 . S
H1002 C978 0.950 . S
H1003 C979 0.938 1_655 S
H1004 C981 0.950 . S
H1005 C983 0.950 1_554 S
C1006 C1007 1.349 . S
C1006 C1008 1.327 . S
C1006 H1031 0.950 . S
C1007 C1006 1.349 . S
C1007 C1023 1.349 . S
C1008 C1006 1.327 . S
C1008 C1027 1.429 . S
C1008 H1032 0.950 . S
C1009 C1026 1.574 . S
C1009 C1028 1.368 . S
C1009 H1033 0.949 . S
H1010 C1014 0.949 . S
C1011 C1012 1.349 . S
C1011 C1013 1.327 . S
C1011 H1034 0.950 . S
C1012 C1011 1.349 . S
C1012 C1024 1.349 . S
C1013 C1011 1.327 . S
C1013 C1029 1.429 . S
C1013 H1035 0.950 . S
C1014 H1010 0.949 . S
C1014 C1022 1.574 . S
C1014 C1030 1.368 . S
H1015 C1023 0.950 . S
H1016 C1021 0.950 . S
H1017 C1022 0.949 . S
H1018 C1024 0.950 . S
H1019 C1025 0.950 . S
H1020 C1026 0.949 . S
C1021 H1016 0.950 . S
C1021 C1023 1.327 . S
C1021 C1027 1.429 . S
C1022 C1014 1.574 . S
C1022 H1017 0.949 . S
C1022 C1028 1.368 . S
C1023 C1007 1.349 . S
C1023 H1015 0.950 . S
C1023 C1021 1.327 . S
C1024 C1012 1.349 . S
C1024 H1018 0.950 . S
C1024 C1025 1.327 . S
C1025 H1019 0.950 . S
C1025 C1024 1.327 . S
C1025 C1029 1.429 . S
C1026 C1009 1.574 . S
C1026 H1020 0.949 . S
C1026 C1030 1.368 . S
C1027 C1008 1.429 . S
C1027 C1021 1.429 . S
C1027 C1028 1.523 . S
C1028 C1009 1.368 . S
C1028 C1022 1.368 . S
C1028 C1027 1.523 . S
C1029 C1013 1.429 . S
C1029 C1025 1.429 . S
C1029 C1030 1.523 . S
C1030 C1014 1.368 . S
C1030 C1026 1.368 . S
C1030 C1029 1.523 . S
H1031 C1006 0.950 . S
H1032 C1008 0.950 . S
H1033 C1009 0.949 . S
H1034 C1011 0.950 . S
H1035 C1013 0.950 . S
C1036 C1037 1.349 . S
C1036 C1038 1.327 . S
C1036 H1061 0.950 . S
C1037 C1036 1.349 . S
C1037 C1053 1.349 . S
C1038 C1036 1.327 . S
C1038 C1057 1.429 . S
C1038 H1062 0.950 . S
C1039 C1056 1.574 . S
C1039 C1058 1.368 . S
C1039 H1063 0.949 . S
H1040 C1044 0.949 . S
C1041 C1042 1.349 . S
C1041 C1043 1.327 . S
C1041 H1064 0.950 . S
C1042 C1041 1.349 . S
C1042 C1054 1.349 . S
C1043 C1041 1.327 . S
C1043 C1059 1.429 . S
C1043 H1065 0.950 . S
C1044 H1040 0.949 . S
C1044 C1052 1.574 . S
C1044 C1060 1.368 . S
H1045 C1053 0.950 . S
H1046 C1051 0.950 . S
H1047 C1052 0.949 . S
H1048 C1054 0.950 . S
H1049 C1055 0.950 . S
H1050 C1056 0.949 . S
C1051 H1046 0.950 . S
C1051 C1053 1.327 . S
C1051 C1057 1.429 . S
C1052 C1044 1.574 . S
C1052 H1047 0.949 . S
C1052 C1058 1.368 . S
C1053 C1037 1.349 . S
C1053 H1045 0.950 . S
C1053 C1051 1.327 . S
C1054 C1042 1.349 . S
C1054 H1048 0.950 . S
C1054 C1055 1.327 . S
C1055 H1049 0.950 . S
C1055 C1054 1.327 . S
C1055 C1059 1.429 . S
C1056 C1039 1.574 . S
C1056 H1050 0.949 . S
C1056 C1060 1.368 . S
C1057 C1038 1.429 . S
C1057 C1051 1.429 . S
C1057 C1058 1.523 . S
C1058 C1039 1.368 . S
C1058 C1052 1.368 . S
C1058 C1057 1.523 . S
C1059 C1043 1.429 . S
C1059 C1055 1.429 . S
C1059 C1060 1.523 . S
C1060 C1044 1.368 . S
C1060 C1056 1.368 . S
C1060 C1059 1.523 . S
H1061 C1036 0.950 . S
H1062 C1038 0.950 . S
H1063 C1039 0.949 . S
H1064 C1041 0.950 . S
H1065 C1043 0.950 . S
C1066 C1067 1.349 . S
C1066 C1068 1.327 . S
C1066 H1091 0.950 . S
C1067 C1066 1.349 . S
C1067 C1083 1.349 . S
C1068 C1066 1.327 . S
C1068 C1087 1.429 . S
C1068 H1092 0.950 . S
C1069 C1086 1.574 . S
C1069 C1088 1.368 . S
C1069 H1093 0.949 . S
H1070 C1074 0.949 . S
C1071 C1072 1.349 . S
C1071 C1073 1.327 . S
C1071 H1094 0.950 . S
C1072 C1071 1.349 . S
C1072 C1084 1.349 . S
C1073 C1071 1.327 . S
C1073 C1089 1.429 . S
C1073 H1095 0.950 . S
C1074 H1070 0.949 . S
C1074 C1082 1.574 . S
C1074 C1090 1.368 . S
H1075 C1083 0.950 . S
H1076 C1081 0.950 . S
H1077 C1082 0.949 . S
H1078 C1084 0.950 . S
H1079 C1085 0.950 . S
H1080 C1086 0.949 . S
C1081 H1076 0.950 . S
C1081 C1083 1.327 . S
C1081 C1087 1.429 . S
C1082 C1074 1.574 . S
C1082 H1077 0.949 . S
C1082 C1088 1.368 . S
C1083 C1067 1.349 . S
C1083 H1075 0.950 . S
C1083 C1081 1.327 . S
C1084 C1072 1.349 . S
C1084 H1078 0.950 . S
C1084 C1085 1.327 . S
C1085 H1079 0.950 . S
C1085 C1084 1.327 . S
C1085 C1089 1.429 . S
C1086 C1069 1.574 . S
C1086 H1080 0.949 . S
C1086 C1090 1.368 . S
C1087 C1068 1.429 . S
C1087 C1081 1.429 . S
C1087 C1088 1.523 . S
C1088 C1069 1.368 . S
C1088 C1082 1.368 . S
C1088 C1087 1.523 . S
C1089 C1073 1.429 . S
C1089 C1085 1.429 . S
C1089 C1090 1.523 . S
C1090 C1074 1.368 . S
C1090 C1086 1.368 . S
C1090 C1089 1.523 . S
H1091 C1066 0.950 . S
H1092 C1068 0.950 . S
H1093 C1069 0.949 . S
H1094 C1071 0.950 . S
H1095 C1073 0.950 . S
C1096 C1097 1.349 . S
C1096 C1098 1.327 . S
C1096 H1121 0.950 . S
C1097 C1096 1.349 . S
C1097 C1113 1.349 . S
C1098 C1096 1.327 . S
C1098 C1117 1.429 . S
C1098 H1122 0.950 . S
C1099 C1116 1.574 . S
C1099 C1118 1.368 . S
C1099 H1123 0.949 . S
H1100 C1104 0.949 . S
C1101 C1102 1.349 . S
C1101 C1103 1.327 . S
C1101 H1124 0.950 . S
C1102 C1101 1.349 . S
C1102 C1114 1.349 . S
C1103 C1101 1.327 . S
C1103 C1119 1.429 . S
C1103 H1125 0.950 . S
C1104 H1100 0.949 . S
C1104 C1112 1.574 . S
C1104 C1120 1.368 . S
H1105 C1113 0.950 . S
H1106 C1111 0.950 . S
H1107 C1112 0.949 . S
H1108 C1114 0.950 . S
H1109 C1115 0.950 . S
H1110 C1116 0.949 . S
C1111 H1106 0.950 . S
C1111 C1113 1.327 . S
C1111 C1117 1.429 . S
C1112 C1104 1.574 . S
C1112 H1107 0.949 . S
C1112 C1118 1.368 . S
C1113 C1097 1.349 . S
C1113 H1105 0.950 . S
C1113 C1111 1.327 . S
C1114 C1102 1.349 . S
C1114 H1108 0.950 . S
C1114 C1115 1.327 . S
C1115 H1109 0.950 . S
C1115 C1114 1.327 . S
C1115 C1119 1.429 . S
C1116 C1099 1.574 . S
C1116 H1110 0.949 . S
C1116 C1120 1.368 . S
C1117 C1098 1.429 . S
C1117 C1111 1.429 . S
C1117 C1118 1.523 . S
C1118 C1099 1.368 . S
C1118 C1112 1.368 . S
C1118 C1117 1.523 . S
C1119 C1103 1.429 . S
C1119 C1115 1.429 . S
C1119 C1120 1.523 . S
C1120 C1104 1.368 . S
C1120 C1116 1.368 . S
C1120 C1119 1.523 . S
H1121 C1096 0.950 . S
H1122 C1098 0.950 . S
H1123 C1099 0.949 . S
H1124 C1101 0.950 . S
H1125 C1103 0.950 . S
C1126 C1127 1.349 . S
C1126 C1128 1.327 . S
C1126 H1151 0.950 . S
C1127 C1126 1.349 . S
C1127 C1143 1.349 . S
C1128 C1126 1.327 . S
C1128 C1147 1.429 . S
C1128 H1152 0.950 . S
C1129 C1146 1.574 . S
C1129 C1148 1.368 . S
C1129 H1153 0.949 . S
H1130 C1134 0.949 . S
C1131 C1132 1.349 . S
C1131 C1133 1.327 . S
C1131 H1154 0.950 . S
C1132 C1131 1.349 . S
C1132 C1144 1.349 . S
C1133 C1131 1.327 . S
C1133 C1149 1.429 . S
C1133 H1155 0.950 . S
C1134 H1130 0.949 . S
C1134 C1142 1.574 . S
C1134 C1150 1.368 . S
H1135 C1143 0.950 . S
H1136 C1141 0.950 . S
H1137 C1142 0.949 . S
H1138 C1144 0.950 . S
H1139 C1145 0.950 . S
H1140 C1146 0.949 . S
C1141 H1136 0.950 . S
C1141 C1143 1.327 . S
C1141 C1147 1.429 . S
C1142 C1134 1.574 . S
C1142 H1137 0.949 . S
C1142 C1148 1.368 . S
C1143 C1127 1.349 . S
C1143 H1135 0.950 . S
C1143 C1141 1.327 . S
C1144 C1132 1.349 . S
C1144 H1138 0.950 . S
C1144 C1145 1.327 . S
C1145 H1139 0.950 . S
C1145 C1144 1.327 . S
C1145 C1149 1.429 . S
C1146 C1129 1.574 . S
C1146 H1140 0.949 . S
C1146 C1150 1.368 . S
C1147 C1128 1.429 . S
C1147 C1141 1.429 . S
C1147 C1148 1.523 . S
C1148 C1129 1.368 . S
C1148 C1142 1.368 . S
C1148 C1147 1.523 . S
C1149 C1133 1.429 . S
C1149 C1145 1.429 . S
C1149 C1150 1.523 . S
C1150 C1134 1.368 . S
C1150 C1146 1.368 . S
C1150 C1149 1.523 . S
H1151 C1126 0.950 . S
H1152 C1128 0.950 . S
H1153 C1129 0.949 . S
H1154 C1131 0.950 . S
H1155 C1133 0.950 . S
C1156 C1157 1.349 . S
C1156 C1158 1.327 . S
C1156 H1181 0.950 . S
C1157 C1156 1.349 . S
C1157 C1173 1.349 . S
C1158 C1156 1.327 . S
C1158 C1177 1.429 . S
C1158 H1182 0.950 . S
C1159 C1176 1.574 . S
C1159 C1178 1.368 . S
C1159 H1183 0.949 . S
H1160 C1164 0.949 . S
C1161 C1162 1.349 . S
C1161 C1163 1.327 . S
C1161 H1184 0.950 . S
C1162 C1161 1.349 . S
C1162 C1174 1.349 . S
C1163 C1161 1.327 . S
C1163 C1179 1.429 . S
C1163 H1185 0.950 . S
C1164 H1160 0.949 . S
C1164 C1172 1.574 . S
C1164 C1180 1.368 . S
H1165 C1173 0.950 . S
H1166 C1171 0.950 . S
H1167 C1172 0.949 . S
H1168 C1174 0.950 . S
H1169 C1175 0.950 . S
H1170 C1176 0.949 . S
C1171 H1166 0.950 . S
C1171 C1173 1.327 . S
C1171 C1177 1.429 . S
C1172 C1164 1.574 . S
C1172 H1167 0.949 . S
C1172 C1178 1.368 . S
C1173 C1157 1.349 . S
C1173 H1165 0.950 . S
C1173 C1171 1.327 . S
C1174 C1162 1.349 . S
C1174 H1168 0.950 . S
C1174 C1175 1.327 . S
C1175 H1169 0.950 . S
C1175 C1174 1.327 . S
C1175 C1179 1.429 . S
C1176 C1159 1.574 . S
C1176 H1170 0.949 . S
C1176 C1180 1.368 . S
C1177 C1158 1.429 . S
C1177 C1171 1.429 . S
C1177 C1178 1.523 . S
C1178 C1159 1.368 . S
C1178 C1172 1.368 . S
C1178 C1177 1.523 . S
C1179 C1163 1.429 . S
C1179 C1175 1.429 . S
C1179 C1180 1.523 . S
C1180 C1164 1.368 . S
C1180 C1176 1.368 . S
C1180 C1179 1.523 . S
H1181 C1156 0.950 . S
H1182 C1158 0.950 . S
H1183 C1159 0.949 . S
H1184 C1161 0.950 . S
H1185 C1163 0.950 . S
C1186 C1187 1.349 . S
C1186 C1188 1.327 . S
C1186 H1211 0.950 . S
C1187 C1186 1.349 . S
C1187 C1203 1.349 . S
C1188 C1186 1.327 . S
C1188 C1207 1.429 . S
C1188 H1212 0.950 . S
C1189 C1206 1.574 . S
C1189 C1208 1.368 . S
C1189 H1213 0.949 . S
H1190 C1194 0.949 . S
C1191 C1192 1.349 . S
C1191 C1193 1.327 . S
C1191 H1214 0.950 . S
C1192 C1191 1.349 . S
C1192 C1204 1.349 . S
C1193 C1191 1.327 . S
C1193 C1209 1.429 . S
C1193 H1215 0.950 . S
C1194 H1190 0.949 . S
C1194 C1202 1.574 . S
C1194 C1210 1.368 . S
H1195 C1203 0.950 . S
H1196 C1201 0.950 . S
H1197 C1202 0.949 . S
H1198 C1204 0.950 . S
H1199 C1205 0.950 . S
H1200 C1206 0.949 . S
C1201 H1196 0.950 . S
C1201 C1203 1.327 . S
C1201 C1207 1.429 . S
C1202 C1194 1.574 . S
C1202 H1197 0.949 . S
C1202 C1208 1.368 . S
C1203 C1187 1.349 . S
C1203 H1195 0.950 . S
C1203 C1201 1.327 . S
C1204 C1192 1.349 . S
C1204 H1198 0.950 . S
C1204 C1205 1.327 . S
C1205 H1199 0.950 . S
C1205 C1204 1.327 . S
C1205 C1209 1.429 . S
C1206 C1189 1.574 . S
C1206 H1200 0.949 . S
C1206 C1210 1.368 . S
C1207 C1188 1.429 . S
C1207 C1201 1.429 . S
C1207 C1208 1.523 . S
C1208 C1189 1.368 . S
C1208 C1202 1.368 . S
C1208 C1207 1.523 . S
C1209 C1193 1.429 . S
C1209 C1205 1.429 . S
C1209 C1210 1.523 . S
C1210 C1194 1.368 . S
C1210 C1206 1.368 . S
C1210 C1209 1.523 . S
H1211 C1186 0.950 . S
H1212 C1188 0.950 . S
H1213 C1189 0.949 . S
H1214 C1191 0.950 . S
H1215 C1193 0.950 . S
C1216 C1217 1.349 . S
C1216 C1218 1.327 . S
C1216 H1241 0.950 . S
C1217 C1216 1.349 . S
C1217 C1233 1.349 . S
C1218 C1216 1.327 . S
C1218 C1237 1.429 . S
C1218 H1242 0.950 . S
C1219 C1236 1.574 1_655 S
C1219 C1238 1.368 . S
C1219 H1243 0.949 . S
H1220 C1224 0.949 . S
C1221 C1222 1.349 . S
C1221 C1223 1.327 . S
C1221 H1244 0.950 . S
C1222 C1221 1.349 . S
C1222 C1234 1.349 . S
C1223 C1221 1.327 . S
C1223 C1239 1.429 . S
C1223 H1245 0.950 . S
C1224 H1220 0.949 . S
C1224 C1232 1.574 . S
C1224 C1240 1.368 . S
H1225 C1233 0.950 . S
H1226 C1231 0.950 . S
H1227 C1232 0.949 . S
H1228 C1234 0.950 . S
H1229 C1235 0.950 . S
H1230 C1236 0.949 . S
C1231 H1226 0.950 . S
C1231 C1233 1.327 . S
C1231 C1237 1.429 . S
C1232 C1224 1.574 . S
C1232 H1227 0.949 . S
C1232 C1238 1.368 . S
C1233 C1217 1.349 . S
C1233 H1225 0.950 . S
C1233 C1231 1.327 . S
C1234 C1222 1.349 . S
C1234 H1228 0.950 . S
C1234 C1235 1.327 1_455 S
C1235 H1229 0.950 . S
C1235 C1234 1.327 1_655 S
C1235 C1239 1.429 1_655 S
C1236 C1219 1.574 1_455 S
C1236 H1230 0.949 . S
C1236 C1240 1.368 1_455 S
C1237 C1218 1.429 . S
C1237 C1231 1.429 . S
C1237 C1238 1.523 . S
C1238 C1219 1.368 . S
C1238 C1232 1.368 . S
C1238 C1237 1.523 . S
C1239 C1223 1.429 . S
C1239 C1235 1.429 1_455 S
C1239 C1240 1.523 1_455 S
C1240 C1224 1.368 . S
C1240 C1236 1.368 1_655 S
C1240 C1239 1.523 1_655 S
H1241 C1216 0.950 . S
H1242 C1218 0.950 . S
H1243 C1219 0.949 . S
H1244 C1221 0.950 . S
H1245 C1223 0.950 . S
C1246 C1247 1.349 . S
C1246 C1248 1.327 . S
C1246 H1271 0.950 . S
C1247 C1246 1.349 . S
C1247 C1263 1.349 . S
C1248 C1246 1.327 . S
C1248 C1267 1.429 . S
C1248 H1272 0.950 . S
C1249 C1266 1.574 . S
C1249 C1268 1.368 . S
C1249 H1273 0.949 . S
H1250 C1254 0.949 . S
C1251 C1252 1.349 . S
C1251 C1253 1.327 . S
C1251 H1274 0.950 . S
C1252 C1251 1.349 . S
C1252 C1264 1.349 . S
C1253 C1251 1.327 . S
C1253 C1269 1.429 . S
C1253 H1275 0.950 . S
C1254 H1250 0.949 . S
C1254 C1262 1.574 . S
C1254 C1270 1.368 . S
H1255 C1263 0.950 . S
H1256 C1261 0.950 . S
H1257 C1262 0.949 . S
H1258 C1264 0.950 . S
H1259 C1265 0.950 . S
H1260 C1266 0.949 . S
C1261 H1256 0.950 . S
C1261 C1263 1.327 . S
C1261 C1267 1.429 . S
C1262 C1254 1.574 . S
C1262 H1257 0.949 . S
C1262 C1268 1.368 . S
C1263 C1247 1.349 . S
C1263 H1255 0.950 . S
C1263 C1261 1.327 . S
C1264 C1252 1.349 . S
C1264 H1258 0.950 . S
C1264 C1265 1.327 . S
C1265 H1259 0.950 . S
C1265 C1264 1.327 . S
C1265 C1269 1.429 . S
C1266 C1249 1.574 . S
C1266 H1260 0.949 . S
C1266 C1270 1.368 . S
C1267 C1248 1.429 . S
C1267 C1261 1.429 . S
C1267 C1268 1.523 . S
C1268 C1249 1.368 . S
C1268 C1262 1.368 . S
C1268 C1267 1.523 . S
C1269 C1253 1.429 . S
C1269 C1265 1.429 . S
C1269 C1270 1.523 . S
C1270 C1254 1.368 . S
C1270 C1266 1.368 . S
C1270 C1269 1.523 . S
H1271 C1246 0.950 . S
H1272 C1248 0.950 . S
H1273 C1249 0.949 . S
H1274 C1251 0.950 . S
H1275 C1253 0.950 . S
C1276 C1277 1.349 . S
C1276 C1278 1.327 . S
C1276 H1301 0.950 . S
C1277 C1276 1.349 . S
C1277 C1293 1.349 . S
C1278 C1276 1.327 . S
C1278 C1297 1.429 . S
C1278 H1302 0.950 . S
C1279 C1296 1.574 . S
C1279 C1298 1.368 . S
C1279 H1303 0.949 . S
H1280 C1284 0.949 . S
C1281 C1282 1.349 . S
C1281 C1283 1.327 . S
C1281 H1304 0.950 . S
C1282 C1281 1.349 . S
C1282 C1294 1.349 . S
C1283 C1281 1.327 . S
C1283 C1299 1.429 . S
C1283 H1305 0.950 . S
C1284 H1280 0.949 . S
C1284 C1292 1.574 . S
C1284 C1300 1.368 . S
H1285 C1293 0.950 . S
H1286 C1291 0.950 . S
H1287 C1292 0.949 . S
H1288 C1294 0.950 . S
H1289 C1295 0.950 . S
H1290 C1296 0.949 . S
C1291 H1286 0.950 . S
C1291 C1293 1.327 . S
C1291 C1297 1.429 . S
C1292 C1284 1.574 . S
C1292 H1287 0.949 . S
C1292 C1298 1.368 . S
C1293 C1277 1.349 . S
C1293 H1285 0.950 . S
C1293 C1291 1.327 . S
C1294 C1282 1.349 . S
C1294 H1288 0.950 . S
C1294 C1295 1.327 . S
C1295 H1289 0.950 . S
C1295 C1294 1.327 . S
C1295 C1299 1.429 . S
C1296 C1279 1.574 . S
C1296 H1290 0.949 . S
C1296 C1300 1.368 . S
C1297 C1278 1.429 . S
C1297 C1291 1.429 . S
C1297 C1298 1.523 . S
C1298 C1279 1.368 . S
C1298 C1292 1.368 . S
C1298 C1297 1.523 . S
C1299 C1283 1.429 . S
C1299 C1295 1.429 . S
C1299 C1300 1.523 . S
C1300 C1284 1.368 . S
C1300 C1296 1.368 . S
C1300 C1299 1.523 . S
H1301 C1276 0.950 . S
H1302 C1278 0.950 . S
H1303 C1279 0.949 . S
H1304 C1281 0.950 . S
H1305 C1283 0.950 . S
C1306 C1307 1.349 . S
C1306 C1308 1.327 . S
C1306 H1331 0.950 . S
C1307 C1306 1.349 . S
C1307 C1323 1.349 . S
C1308 C1306 1.327 . S
C1308 C1327 1.429 . S
C1308 H1332 0.950 . S
C1309 C1326 1.574 . S
C1309 C1328 1.368 . S
C1309 H1333 0.949 . S
H1310 C1314 0.949 . S
C1311 C1312 1.349 . S
C1311 C1313 1.327 . S
C1311 H1334 0.950 . S
C1312 C1311 1.349 . S
C1312 C1324 1.349 . S
C1313 C1311 1.327 . S
C1313 C1329 1.429 . S
C1313 H1335 0.950 . S
C1314 H1310 0.949 . S
C1314 C1322 1.574 . S
C1314 C1330 1.368 . S
H1315 C1323 0.950 . S
H1316 C1321 0.950 . S
H1317 C1322 0.949 . S
H1318 C1324 0.950 . S
H1319 C1325 0.950 . S
H1320 C1326 0.949 . S
C1321 H1316 0.950 . S
C1321 C1323 1.327 . S
C1321 C1327 1.429 . S
C1322 C1314 1.574 . S
C1322 H1317 0.949 . S
C1322 C1328 1.368 . S
C1323 C1307 1.349 . S
C1323 H1315 0.950 . S
C1323 C1321 1.327 . S
C1324 C1312 1.349 . S
C1324 H1318 0.950 . S
C1324 C1325 1.327 . S
C1325 H1319 0.950 . S
C1325 C1324 1.327 . S
C1325 C1329 1.429 . S
C1326 C1309 1.574 . S
C1326 H1320 0.949 . S
C1326 C1330 1.368 . S
C1327 C1308 1.429 . S
C1327 C1321 1.429 . S
C1327 C1328 1.523 . S
C1328 C1309 1.368 . S
C1328 C1322 1.368 . S
C1328 C1327 1.523 . S
C1329 C1313 1.429 . S
C1329 C1325 1.429 . S
C1329 C1330 1.523 . S
C1330 C1314 1.368 . S
C1330 C1326 1.368 . S
C1330 C1329 1.523 . S
H1331 C1306 0.950 . S
H1332 C1308 0.950 . S
H1333 C1309 0.949 . S
H1334 C1311 0.950 . S
H1335 C1313 0.950 . S
C1336 C1337 1.349 . S
C1336 C1338 1.327 . S
C1336 H1361 0.950 . S
C1337 C1336 1.349 . S
C1337 C1353 1.349 . S
C1338 C1336 1.327 . S
C1338 C1357 1.429 . S
C1338 H1362 0.950 . S
C1339 C1356 1.574 . S
C1339 C1358 1.368 . S
C1339 H1363 0.949 . S
H1340 C1344 0.949 . S
C1341 C1342 1.349 . S
C1341 C1343 1.327 . S
C1341 H1364 0.950 . S
C1342 C1341 1.349 . S
C1342 C1354 1.349 . S
C1343 C1341 1.327 . S
C1343 C1359 1.429 . S
C1343 H1365 0.950 1_455 S
C1344 H1340 0.949 . S
C1344 C1352 1.574 1_455 S
C1344 C1360 1.368 1_455 S
H1345 C1353 0.950 . S
H1346 C1351 0.950 . S
H1347 C1352 0.949 . S
H1348 C1354 0.950 . S
H1349 C1355 0.950 . S
H1350 C1356 0.949 . S
C1351 H1346 0.950 . S
C1351 C1353 1.327 . S
C1351 C1357 1.429 . S
C1352 C1344 1.574 1_655 S
C1352 H1347 0.949 . S
C1352 C1358 1.368 . S
C1353 C1337 1.349 . S
C1353 H1345 0.950 . S
C1353 C1351 1.327 . S
C1354 C1342 1.349 . S
C1354 H1348 0.950 . S
C1354 C1355 1.327 . S
C1355 H1349 0.950 . S
C1355 C1354 1.327 . S
C1355 C1359 1.429 . S
C1356 C1339 1.574 . S
C1356 H1350 0.949 . S
C1356 C1360 1.368 . S
C1357 C1338 1.429 . S
C1357 C1351 1.429 . S
C1357 C1358 1.523 . S
C1358 C1339 1.368 . S
C1358 C1352 1.368 . S
C1358 C1357 1.523 . S
C1359 C1343 1.429 . S
C1359 C1355 1.429 . S
C1359 C1360 1.523 1_455 S
C1360 C1344 1.368 1_655 S
C1360 C1356 1.368 . S
C1360 C1359 1.523 1_655 S
H1361 C1336 0.950 . S
H1362 C1338 0.950 . S
H1363 C1339 0.949 . S
H1364 C1341 0.950 . S
H1365 C1343 0.950 1_655 S
C1366 C1367 1.349 . S
C1366 C1368 1.327 . S
C1366 H1391 0.950 . S
C1367 C1366 1.349 . S
C1367 C1383 1.349 . S
C1368 C1366 1.327 . S
C1368 C1387 1.429 . S
C1368 H1392 0.950 . S
C1369 C1386 1.574 . S
C1369 C1388 1.368 . S
C1369 H1393 0.949 . S
H1370 C1374 0.949 . S
C1371 C1372 1.349 . S
C1371 C1373 1.327 . S
C1371 H1394 0.950 . S
C1372 C1371 1.349 . S
C1372 C1384 1.349 . S
C1373 C1371 1.327 . S
C1373 C1389 1.429 . S
C1373 H1395 0.950 . S
C1374 H1370 0.949 . S
C1374 C1382 1.574 . S
C1374 C1390 1.368 . S
H1375 C1383 0.950 . S
H1376 C1381 0.950 . S
H1377 C1382 0.949 . S
H1378 C1384 0.950 . S
H1379 C1385 0.950 . S
H1380 C1386 0.949 . S
C1381 H1376 0.950 . S
C1381 C1383 1.327 . S
C1381 C1387 1.429 . S
C1382 C1374 1.574 . S
C1382 H1377 0.949 . S
C1382 C1388 1.368 . S
C1383 C1367 1.349 . S
C1383 H1375 0.950 . S
C1383 C1381 1.327 . S
C1384 C1372 1.349 . S
C1384 H1378 0.950 . S
C1384 C1385 1.327 . S
C1385 H1379 0.950 . S
C1385 C1384 1.327 . S
C1385 C1389 1.429 . S
C1386 C1369 1.574 . S
C1386 H1380 0.949 . S
C1386 C1390 1.368 . S
C1387 C1368 1.429 . S
C1387 C1381 1.429 . S
C1387 C1388 1.523 . S
C1388 C1369 1.368 . S
C1388 C1382 1.368 . S
C1388 C1387 1.523 . S
C1389 C1373 1.429 . S
C1389 C1385 1.429 . S
C1389 C1390 1.523 . S
C1390 C1374 1.368 . S
C1390 C1386 1.368 . S
C1390 C1389 1.523 . S
H1391 C1366 0.950 . S
H1392 C1368 0.950 . S
H1393 C1369 0.949 . S
H1394 C1371 0.950 . S
H1395 C1373 0.950 . S
C1396 C1397 1.349 . S
C1396 C1398 1.327 . S
C1396 H1421 0.950 . S
C1397 C1396 1.349 . S
C1397 C1413 1.349 . S
C1398 C1396 1.327 . S
C1398 C1417 1.429 . S
C1398 H1422 0.950 . S
C1399 C1416 1.574 . S
C1399 C1418 1.368 . S
C1399 H1423 0.949 . S
H1400 C1404 0.949 . S
C1401 C1402 1.349 . S
C1401 C1403 1.327 . S
C1401 H1424 0.950 . S
C1402 C1401 1.349 . S
C1402 C1414 1.349 . S
C1403 C1401 1.327 . S
C1403 C1419 1.429 . S
C1403 H1425 0.950 . S
C1404 H1400 0.949 . S
C1404 C1412 1.574 . S
C1404 C1420 1.368 . S
H1405 C1413 0.950 . S
H1406 C1411 0.950 . S
H1407 C1412 0.949 . S
H1408 C1414 0.950 . S
H1409 C1415 0.950 . S
H1410 C1416 0.949 . S
C1411 H1406 0.950 . S
C1411 C1413 1.327 . S
C1411 C1417 1.429 . S
C1412 C1404 1.574 . S
C1412 H1407 0.949 . S
C1412 C1418 1.368 . S
C1413 C1397 1.349 . S
C1413 H1405 0.950 . S
C1413 C1411 1.327 . S
C1414 C1402 1.349 . S
C1414 H1408 0.950 . S
C1414 C1415 1.327 . S
C1415 H1409 0.950 . S
C1415 C1414 1.327 . S
C1415 C1419 1.429 . S
C1416 C1399 1.574 . S
C1416 H1410 0.949 . S
C1416 C1420 1.368 . S
C1417 C1398 1.429 . S
C1417 C1411 1.429 . S
C1417 C1418 1.523 . S
C1418 C1399 1.368 . S
C1418 C1412 1.368 . S
C1418 C1417 1.523 . S
C1419 C1403 1.429 . S
C1419 C1415 1.429 . S
C1419 C1420 1.523 . S
C1420 C1404 1.368 . S
C1420 C1416 1.368 . S
C1420 C1419 1.523 . S
H1421 C1396 0.950 . S
H1422 C1398 0.950 . S
H1423 C1399 0.949 . S
H1424 C1401 0.950 . S
H1425 C1403 0.950 . S
C1426 C1427 1.349 . S
C1426 C1428 1.327 . S
C1426 H1451 0.950 . S
C1427 C1426 1.349 . S
C1427 C1443 1.349 . S
C1428 C1426 1.327 . S
C1428 C1447 1.429 . S
C1428 H1452 0.950 . S
C1429 C1446 1.574 . S
C1429 C1448 1.368 . S
C1429 H1453 0.949 . S
H1430 C1434 0.949 . S
C1431 C1432 1.349 . S
C1431 C1433 1.327 . S
C1431 H1454 0.950 . S
C1432 C1431 1.349 . S
C1432 C1444 1.349 . S
C1433 C1431 1.327 . S
C1433 C1449 1.429 . S
C1433 H1455 0.950 . S
C1434 H1430 0.949 . S
C1434 C1442 1.574 . S
C1434 C1450 1.368 . S
H1435 C1443 0.950 . S
H1436 C1441 0.950 . S
H1437 C1442 0.949 . S
H1438 C1444 0.950 . S
H1439 C1445 0.950 . S
H1440 C1446 0.949 . S
C1441 H1436 0.950 . S
C1441 C1443 1.327 . S
C1441 C1447 1.429 . S
C1442 C1434 1.574 . S
C1442 H1437 0.949 . S
C1442 C1448 1.368 . S
C1443 C1427 1.349 . S
C1443 H1435 0.950 . S
C1443 C1441 1.327 . S
C1444 C1432 1.349 . S
C1444 H1438 0.950 . S
C1444 C1445 1.327 . S
C1445 H1439 0.950 . S
C1445 C1444 1.327 . S
C1445 C1449 1.429 . S
C1446 C1429 1.574 . S
C1446 H1440 0.949 . S
C1446 C1450 1.368 . S
C1447 C1428 1.429 . S
C1447 C1441 1.429 . S
C1447 C1448 1.523 . S
C1448 C1429 1.368 . S
C1448 C1442 1.368 . S
C1448 C1447 1.523 . S
C1449 C1433 1.429 . S
C1449 C1445 1.429 . S
C1449 C1450 1.523 . S
C1450 C1434 1.368 . S
C1450 C1446 1.368 . S
C1450 C1449 1.523 . S
H1451 C1426 0.950 . S
H1452 C1428 0.950 . S
H1453 C1429 0.949 . S
H1454 C1431 0.950 . S
H1455 C1433 0.950 . S
C1456 C1457 1.349 1_556 S
C1456 C1458 1.317 1_556 S
C1456 H1481 0.950 . S
C1457 C1456 1.349 1_554 S
C1457 C1473 1.349 . S
C1458 C1456 1.317 1_554 S
C1458 C1477 1.482 . S
C1458 H1482 0.908 1_554 S
C1459 C1476 1.574 . S
C1459 C1478 1.368 . S
C1459 H1483 0.949 . S
H1460 C1464 0.949 . S
C1461 C1462 1.349 . S
C1461 C1463 1.327 . S
C1461 H1484 0.950 1_565 S
C1462 C1461 1.349 . S
C1462 C1474 1.349 . S
C1463 C1461 1.327 . S
C1463 C1479 1.429 . S
C1463 H1485 0.950 . S
C1464 H1460 0.949 . S
C1464 C1472 1.574 . S
C1464 C1480 1.368 . S
H1465 C1473 0.950 . S
H1466 C1471 0.950 . S
H1467 C1472 0.949 1_556 S
H1468 C1474 0.950 . S
H1469 C1475 0.950 . S
H1470 C1476 0.949 . S
C1471 H1466 0.950 . S
C1471 C1473 1.327 . S
C1471 C1477 1.429 . S
C1472 C1464 1.574 . S
C1472 H1467 0.949 1_554 S
C1472 C1478 1.368 . S
C1473 C1457 1.349 . S
C1473 H1465 0.950 . S
C1473 C1471 1.327 . S
C1474 C1462 1.349 . S
C1474 H1468 0.950 . S
C1474 C1475 1.327 . S
C1475 H1469 0.950 . S
C1475 C1474 1.327 . S
C1475 C1479 1.429 . S
C1476 C1459 1.574 . S
C1476 H1470 0.949 . S
C1476 C1480 1.368 . S
C1477 C1458 1.482 . S
C1477 C1471 1.429 . S
C1477 C1478 1.523 . S
C1478 C1459 1.368 . S
C1478 C1472 1.368 . S
C1478 C1477 1.523 . S
C1479 C1463 1.429 . S
C1479 C1475 1.429 . S
C1479 C1480 1.523 . S
C1480 C1464 1.368 . S
C1480 C1476 1.368 . S
C1480 C1479 1.523 . S
H1481 C1456 0.950 . S
H1482 C1458 0.908 1_556 S
H1483 C1459 0.949 . S
H1484 C1461 0.950 1_545 S
H1485 C1463 0.950 . S
C1486 C1487 1.346 1_556 S
C1486 C1488 1.327 . S
C1486 H1511 0.950 . S
C1487 C1486 1.346 1_554 S
C1487 C1503 1.352 . S
C1488 C1486 1.327 . S
C1488 C1507 1.388 1_556 S
C1488 H1512 0.950 . S
C1489 C1506 1.574 . S
C1489 C1508 1.368 . S
C1489 H1513 0.949 . S
H1490 C1494 0.949 . S
C1491 C1492 1.349 . S
C1491 C1493 1.327 . S
C1491 H1514 0.950 . S
C1492 C1491 1.349 . S
C1492 C1504 1.349 1_554 S
C1493 C1491 1.327 . S
C1493 C1509 1.429 . S
C1493 H1515 0.950 . S
C1494 H1490 0.949 . S
C1494 C1502 1.574 . S
C1494 C1510 1.368 1_556 S
H1495 C1503 0.950 . S
H1496 C1501 0.950 . S
H1497 C1502 0.949 . S
H1498 C1504 0.950 . S
H1499 C1505 0.950 . S
H1500 C1506 0.949 . S
C1501 H1496 0.950 . S
C1501 C1503 1.327 . S
C1501 C1507 1.458 . S
C1502 C1494 1.574 . S
C1502 H1497 0.949 . S
C1502 C1508 1.368 1_556 S
C1503 C1487 1.352 . S
C1503 H1495 0.950 . S
C1503 C1501 1.327 . S
C1504 C1492 1.349 1_556 S
C1504 H1498 0.950 . S
C1504 C1505 1.327 . S
C1505 H1499 0.950 . S
C1505 C1504 1.327 . S
C1505 C1509 1.429 1_556 S
C1506 C1489 1.574 . S
C1506 H1500 0.949 . S
C1506 C1510 1.368 . S
C1507 C1488 1.388 1_554 S
C1507 C1501 1.458 . S
C1507 C1508 1.534 . S
C1508 C1489 1.368 . S
C1508 C1502 1.368 1_554 S
C1508 C1507 1.534 . S
C1509 C1493 1.429 . S
C1509 C1505 1.429 1_554 S
C1509 C1510 1.523 . S
C1510 C1494 1.368 1_554 S
C1510 C1506 1.368 . S
C1510 C1509 1.523 . S
H1511 C1486 0.950 . S
H1512 C1488 0.950 . S
H1513 C1489 0.949 . S
H1514 C1491 0.950 . S
H1515 C1493 0.950 . S
C1516 C1517 1.349 . S
C1516 C1518 1.327 . S
C1516 H1541 0.950 . S
C1517 C1516 1.349 . S
C1517 C1533 1.349 . S
C1518 C1516 1.327 . S
C1518 C1537 1.429 . S
C1518 H1542 0.950 . S
C1519 C1536 1.574 . S
C1519 C1538 1.368 . S
C1519 H1543 0.949 . S
H1520 C1524 0.949 . S
C1521 C1522 1.349 . S
C1521 C1523 1.327 . S
C1521 H1544 0.950 . S
C1522 C1521 1.349 . S
C1522 C1534 1.349 . S
C1523 C1521 1.327 . S
C1523 C1539 1.429 . S
C1523 H1545 0.950 . S
C1524 H1520 0.949 . S
C1524 C1532 1.574 . S
C1524 C1540 1.368 . S
H1525 C1533 0.950 . S
H1526 C1531 0.950 . S
H1527 C1532 0.949 . S
H1528 C1534 0.950 . S
H1529 C1535 0.950 . S
H1530 C1536 0.949 . S
C1531 H1526 0.950 . S
C1531 C1533 1.327 . S
C1531 C1537 1.429 . S
C1532 C1524 1.574 . S
C1532 H1527 0.949 . S
C1532 C1538 1.368 . S
C1533 C1517 1.349 . S
C1533 H1525 0.950 . S
C1533 C1531 1.327 . S
C1534 C1522 1.349 . S
C1534 H1528 0.950 . S
C1534 C1535 1.327 . S
C1535 H1529 0.950 . S
C1535 C1534 1.327 . S
C1535 C1539 1.429 . S
C1536 C1519 1.574 . S
C1536 H1530 0.949 . S
C1536 C1540 1.368 . S
C1537 C1518 1.429 . S
C1537 C1531 1.429 . S
C1537 C1538 1.523 . S
C1538 C1519 1.368 . S
C1538 C1532 1.368 . S
C1538 C1537 1.523 . S
C1539 C1523 1.429 . S
C1539 C1535 1.429 . S
C1539 C1540 1.523 . S
C1540 C1524 1.368 . S
C1540 C1536 1.368 . S
C1540 C1539 1.523 . S
H1541 C1516 0.950 . S
H1542 C1518 0.950 . S
H1543 C1519 0.949 . S
H1544 C1521 0.950 . S
H1545 C1523 0.950 . S
C1546 C1547 1.349 . S
C1546 C1548 1.327 . S
C1546 H1571 0.950 . S
C1547 C1546 1.349 . S
C1547 C1563 1.349 . S
C1548 C1546 1.327 . S
C1548 C1567 1.429 . S
C1548 H1572 0.950 . S
C1549 C1566 1.574 . S
C1549 C1568 1.368 . S
C1549 H1573 0.949 . S
H1550 C1554 0.949 . S
C1551 C1552 1.349 . S
C1551 C1553 1.327 . S
C1551 H1574 0.950 . S
C1552 C1551 1.349 . S
C1552 C1564 1.349 . S
C1553 C1551 1.327 . S
C1553 C1569 1.429 . S
C1553 H1575 0.950 . S
C1554 H1550 0.949 . S
C1554 C1562 1.574 . S
C1554 C1570 1.368 . S
H1555 C1563 0.950 . S
H1556 C1561 0.950 . S
H1557 C1562 0.949 . S
H1558 C1564 0.950 . S
H1559 C1565 0.950 . S
H1560 C1566 0.949 . S
C1561 H1556 0.950 . S
C1561 C1563 1.327 . S
C1561 C1567 1.429 . S
C1562 C1554 1.574 . S
C1562 H1557 0.949 . S
C1562 C1568 1.368 . S
C1563 C1547 1.349 . S
C1563 H1555 0.950 . S
C1563 C1561 1.327 . S
C1564 C1552 1.349 . S
C1564 H1558 0.950 . S
C1564 C1565 1.327 . S
C1565 H1559 0.950 . S
C1565 C1564 1.327 . S
C1565 C1569 1.429 . S
C1566 C1549 1.574 . S
C1566 H1560 0.949 . S
C1566 C1570 1.368 . S
C1567 C1548 1.429 . S
C1567 C1561 1.429 . S
C1567 C1568 1.523 . S
C1568 C1549 1.368 . S
C1568 C1562 1.368 . S
C1568 C1567 1.523 . S
C1569 C1553 1.429 . S
C1569 C1565 1.429 . S
C1569 C1570 1.523 . S
C1570 C1554 1.368 . S
C1570 C1566 1.368 . S
C1570 C1569 1.523 . S
H1571 C1546 0.950 . S
H1572 C1548 0.950 . S
H1573 C1549 0.949 . S
H1574 C1551 0.950 . S
H1575 C1553 0.950 . S
C1576 C1577 1.349 . S
C1576 C1578 1.327 . S
C1576 H1601 0.950 . S
C1577 C1576 1.349 . S
C1577 C1593 1.349 . S
C1578 C1576 1.327 . S
C1578 C1597 1.429 . S
C1578 H1602 0.950 . S
C1579 C1596 1.574 . S
C1579 C1598 1.368 . S
C1579 H1603 0.949 . S
H1580 C1584 0.949 . S
C1581 C1582 1.349 . S
C1581 C1583 1.327 . S
C1581 H1604 0.950 . S
C1582 C1581 1.349 . S
C1582 C1594 1.349 . S
C1583 C1581 1.327 . S
C1583 C1599 1.429 . S
C1583 H1605 0.950 . S
C1584 H1580 0.949 . S
C1584 C1592 1.574 . S
C1584 C1600 1.368 . S
H1585 C1593 0.950 . S
H1586 C1591 0.950 . S
H1587 C1592 0.949 . S
H1588 C1594 0.950 . S
H1589 C1595 0.950 . S
H1590 C1596 0.949 . S
C1591 H1586 0.950 . S
C1591 C1593 1.327 . S
C1591 C1597 1.429 . S
C1592 C1584 1.574 . S
C1592 H1587 0.949 . S
C1592 C1598 1.368 . S
C1593 C1577 1.349 . S
C1593 H1585 0.950 . S
C1593 C1591 1.327 . S
C1594 C1582 1.349 . S
C1594 H1588 0.950 . S
C1594 C1595 1.327 . S
C1595 H1589 0.950 . S
C1595 C1594 1.327 . S
C1595 C1599 1.429 . S
C1596 C1579 1.574 . S
C1596 H1590 0.949 . S
C1596 C1600 1.368 . S
C1597 C1578 1.429 . S
C1597 C1591 1.429 . S
C1597 C1598 1.523 . S
C1598 C1579 1.368 . S
C1598 C1592 1.368 . S
C1598 C1597 1.523 . S
C1599 C1583 1.429 . S
C1599 C1595 1.429 . S
C1599 C1600 1.523 . S
C1600 C1584 1.368 . S
C1600 C1596 1.368 . S
C1600 C1599 1.523 . S
H1601 C1576 0.950 . S
H1602 C1578 0.950 . S
H1603 C1579 0.949 . S
H1604 C1581 0.950 . S
H1605 C1583 0.950 . S
C1606 C1607 1.349 . S
C1606 C1608 1.327 . S
C1606 H1631 0.950 . S
C1607 C1606 1.349 . S
C1607 C1623 1.349 . S
C1608 C1606 1.327 . S
C1608 C1627 1.429 . S
C1608 H1632 0.950 . S
C1609 C1626 1.574 . S
C1609 C1628 1.368 . S
C1609 H1633 0.949 . S
H1610 C1614 0.949 . S
C1611 C1612 1.349 . S
C1611 C1613 1.327 . S
C1611 H1634 0.950 . S
C1612 C1611 1.349 . S
C1612 C1624 1.349 . S
C1613 C1611 1.327 . S
C1613 C1629 1.429 . S
C1613 H1635 0.950 . S
C1614 H1610 0.949 . S
C1614 C1622 1.574 . S
C1614 C1630 1.368 . S
H1615 C1623 0.950 . S
H1616 C1621 0.950 . S
H1617 C1622 0.949 . S
H1618 C1624 0.950 . S
H1619 C1625 0.950 . S
H1620 C1626 0.949 . S
C1621 H1616 0.950 . S
C1621 C1623 1.327 . S
C1621 C1627 1.429 . S
C1622 C1614 1.574 . S
C1622 H1617 0.949 . S
C1622 C1628 1.368 . S
C1623 C1607 1.349 . S
C1623 H1615 0.950 . S
C1623 C1621 1.327 . S
C1624 C1612 1.349 . S
C1624 H1618 0.950 . S
C1624 C1625 1.327 . S
C1625 H1619 0.950 . S
C1625 C1624 1.327 . S
C1625 C1629 1.429 . S
C1626 C1609 1.574 . S
C1626 H1620 0.949 . S
C1626 C1630 1.368 . S
C1627 C1608 1.429 . S
C1627 C1621 1.429 . S
C1627 C1628 1.523 . S
C1628 C1609 1.368 . S
C1628 C1622 1.368 . S
C1628 C1627 1.523 . S
C1629 C1613 1.429 . S
C1629 C1625 1.429 . S
C1629 C1630 1.523 . S
C1630 C1614 1.368 . S
C1630 C1626 1.368 . S
C1630 C1629 1.523 . S
H1631 C1606 0.950 . S
H1632 C1608 0.950 . S
H1633 C1609 0.949 . S
H1634 C1611 0.950 . S
H1635 C1613 0.950 . S
C1636 C1637 1.349 . S
C1636 C1638 1.327 . S
C1636 H1661 0.950 . S
C1637 C1636 1.349 . S
C1637 C1653 1.349 . S
C1638 C1636 1.327 . S
C1638 C1657 1.429 . S
C1638 H1662 0.950 . S
C1639 C1656 1.574 . S
C1639 C1658 1.368 . S
C1639 H1663 0.949 . S
H1640 C1644 0.949 . S
C1641 C1642 1.349 . S
C1641 C1643 1.327 . S
C1641 H1664 0.950 . S
C1642 C1641 1.349 . S
C1642 C1654 1.349 . S
C1643 C1641 1.327 . S
C1643 C1659 1.429 . S
C1643 H1665 0.950 . S
C1644 H1640 0.949 . S
C1644 C1652 1.574 . S
C1644 C1660 1.368 . S
H1645 C1653 0.950 . S
H1646 C1651 0.950 . S
H1647 C1652 0.949 . S
H1648 C1654 0.950 . S
H1649 C1655 0.950 . S
H1650 C1656 0.949 . S
C1651 H1646 0.950 . S
C1651 C1653 1.327 . S
C1651 C1657 1.429 . S
C1652 C1644 1.574 . S
C1652 H1647 0.949 . S
C1652 C1658 1.368 . S
C1653 C1637 1.349 . S
C1653 H1645 0.950 . S
C1653 C1651 1.327 . S
C1654 C1642 1.349 . S
C1654 H1648 0.950 . S
C1654 C1655 1.327 . S
C1655 H1649 0.950 . S
C1655 C1654 1.327 . S
C1655 C1659 1.429 . S
C1656 C1639 1.574 . S
C1656 H1650 0.949 . S
C1656 C1660 1.368 . S
C1657 C1638 1.429 . S
C1657 C1651 1.429 . S
C1657 C1658 1.523 . S
C1658 C1639 1.368 . S
C1658 C1652 1.368 . S
C1658 C1657 1.523 . S
C1659 C1643 1.429 . S
C1659 C1655 1.429 . S
C1659 C1660 1.523 . S
C1660 C1644 1.368 . S
C1660 C1656 1.368 . S
C1660 C1659 1.523 . S
H1661 C1636 0.950 . S
H1662 C1638 0.950 . S
H1663 C1639 0.949 . S
H1664 C1641 0.950 . S
H1665 C1643 0.950 . S
C1666 C1667 1.349 . S
C1666 C1668 1.327 . S
C1666 H1691 0.950 . S
C1667 C1666 1.349 . S
C1667 C1683 1.349 . S
C1668 C1666 1.327 . S
C1668 C1687 1.429 . S
C1668 H1692 0.950 . S
C1669 C1686 1.574 . S
C1669 C1688 1.368 . S
C1669 H1693 0.949 . S
H1670 C1674 0.949 . S
C1671 C1672 1.349 . S
C1671 C1673 1.327 . S
C1671 H1694 0.950 . S
C1672 C1671 1.349 . S
C1672 C1684 1.349 . S
C1673 C1671 1.327 . S
C1673 C1689 1.429 . S
C1673 H1695 0.950 . S
C1674 H1670 0.949 . S
C1674 C1682 1.574 . S
C1674 C1690 1.368 . S
H1675 C1683 0.950 . S
H1676 C1681 0.950 . S
H1677 C1682 0.949 . S
H1678 C1684 0.950 . S
H1679 C1685 0.950 . S
H1680 C1686 0.949 . S
C1681 H1676 0.950 . S
C1681 C1683 1.327 . S
C1681 C1687 1.429 . S
C1682 C1674 1.574 . S
C1682 H1677 0.949 . S
C1682 C1688 1.368 . S
C1683 C1667 1.349 . S
C1683 H1675 0.950 . S
C1683 C1681 1.327 . S
C1684 C1672 1.349 . S
C1684 H1678 0.950 . S
C1684 C1685 1.327 . S
C1685 H1679 0.950 . S
C1685 C1684 1.327 . S
C1685 C1689 1.429 . S
C1686 C1669 1.574 . S
C1686 H1680 0.949 . S
C1686 C1690 1.368 . S
C1687 C1668 1.429 . S
C1687 C1681 1.429 . S
C1687 C1688 1.523 . S
C1688 C1669 1.368 . S
C1688 C1682 1.368 . S
C1688 C1687 1.523 . S
C1689 C1673 1.429 . S
C1689 C1685 1.429 . S
C1689 C1690 1.523 . S
C1690 C1674 1.368 . S
C1690 C1686 1.368 . S
C1690 C1689 1.523 . S
H1691 C1666 0.950 . S
H1692 C1668 0.950 . S
H1693 C1669 0.949 . S
H1694 C1671 0.950 . S
H1695 C1673 0.950 . S
C1696 C1697 1.349 . S
C1696 C1698 1.327 . S
C1696 H1721 0.950 . S
C1697 C1696 1.349 . S
C1697 C1713 1.349 . S
C1698 C1696 1.327 . S
C1698 C1717 1.429 . S
C1698 H1722 0.950 . S
C1699 C1716 1.574 . S
C1699 C1718 1.368 . S
C1699 H1723 0.949 . S
H1700 C1704 0.949 . S
C1701 C1702 1.349 . S
C1701 C1703 1.327 . S
C1701 H1724 0.950 1_554 S
C1702 C1701 1.349 . S
C1702 C1714 1.349 . S
C1703 C1701 1.327 . S
C1703 C1719 1.429 . S
C1703 H1725 0.950 . S
C1704 H1700 0.949 . S
C1704 C1712 1.574 . S
C1704 C1720 1.368 . S
H1705 C1713 0.950 . S
H1706 C1711 0.950 . S
H1707 C1712 0.949 . S
H1708 C1714 0.950 . S
H1709 C1715 0.950 . S
H1710 C1716 0.949 . S
C1711 H1706 0.950 . S
C1711 C1713 1.327 . S
C1711 C1717 1.429 . S
C1712 C1704 1.574 . S
C1712 H1707 0.949 . S
C1712 C1718 1.368 . S
C1713 C1697 1.349 . S
C1713 H1705 0.950 . S
C1713 C1711 1.327 . S
C1714 C1702 1.349 . S
C1714 H1708 0.950 . S
C1714 C1715 1.327 . S
C1715 H1709 0.950 . S
C1715 C1714 1.327 . S
C1715 C1719 1.429 . S
C1716 C1699 1.574 . S
C1716 H1710 0.949 . S
C1716 C1720 1.368 . S
C1717 C1698 1.429 . S
C1717 C1711 1.429 . S
C1717 C1718 1.523 . S
C1718 C1699 1.368 . S
C1718 C1712 1.368 . S
C1718 C1717 1.523 . S
C1719 C1703 1.429 . S
C1719 C1715 1.429 . S
C1719 C1720 1.523 . S
C1720 C1704 1.368 . S
C1720 C1716 1.368 . S
C1720 C1719 1.523 . S
H1721 C1696 0.950 . S
H1722 C1698 0.950 . S
H1723 C1699 0.949 . S
H1724 C1701 0.950 1_556 S
H1725 C1703 0.950 . S
C1726 C1727 1.349 . S
C1726 C1728 1.327 . S
C1726 H1751 0.950 . S
C1727 C1726 1.349 . S
C1727 C1743 1.349 . S
C1728 C1726 1.327 . S
C1728 C1747 1.429 . S
C1728 H1752 0.950 . S
C1729 C1746 1.574 . S
C1729 C1748 1.368 . S
C1729 H1753 0.949 . S
H1730 C1734 0.949 . S
C1731 C1732 1.349 . S
C1731 C1733 1.327 . S
C1731 H1754 0.950 . S
C1732 C1731 1.349 . S
C1732 C1744 1.349 . S
C1733 C1731 1.327 . S
C1733 C1749 1.429 . S
C1733 H1755 0.950 . S
C1734 H1730 0.949 . S
C1734 C1742 1.574 . S
C1734 C1750 1.368 . S
H1735 C1743 0.950 . S
H1736 C1741 0.950 . S
H1737 C1742 0.949 . S
H1738 C1744 0.950 . S
H1739 C1745 0.950 . S
H1740 C1746 0.949 . S
C1741 H1736 0.950 . S
C1741 C1743 1.327 . S
C1741 C1747 1.429 . S
C1742 C1734 1.574 . S
C1742 H1737 0.949 . S
C1742 C1748 1.368 . S
C1743 C1727 1.349 . S
C1743 H1735 0.950 . S
C1743 C1741 1.327 . S
C1744 C1732 1.349 . S
C1744 H1738 0.950 . S
C1744 C1745 1.327 . S
C1745 H1739 0.950 . S
C1745 C1744 1.327 . S
C1745 C1749 1.429 . S
C1746 C1729 1.574 . S
C1746 H1740 0.949 . S
C1746 C1750 1.368 . S
C1747 C1728 1.429 . S
C1747 C1741 1.429 . S
C1747 C1748 1.523 . S
C1748 C1729 1.368 . S
C1748 C1742 1.368 . S
C1748 C1747 1.523 . S
C1749 C1733 1.429 . S
C1749 C1745 1.429 . S
C1749 C1750 1.523 . S
C1750 C1734 1.368 . S
C1750 C1746 1.368 . S
C1750 C1749 1.523 . S
H1751 C1726 0.950 . S
H1752 C1728 0.950 . S
H1753 C1729 0.949 . S
H1754 C1731 0.950 . S
H1755 C1733 0.950 . S
C1756 C1757 1.349 . S
C1756 C1758 1.327 . S
C1756 H1781 0.950 . S
C1757 C1756 1.349 . S
C1757 C1773 1.349 . S
C1758 C1756 1.327 . S
C1758 C1777 1.429 . S
C1758 H1782 0.950 . S
C1759 C1776 1.574 . S
C1759 C1778 1.368 . S
C1759 H1783 0.949 . S
H1760 C1764 0.949 . S
C1761 C1762 1.349 . S
C1761 C1763 1.327 . S
C1761 H1784 0.950 . S
C1762 C1761 1.349 . S
C1762 C1774 1.349 . S
C1763 C1761 1.327 . S
C1763 C1779 1.429 . S
C1763 H1785 0.950 . S
C1764 H1760 0.949 . S
C1764 C1772 1.574 . S
C1764 C1780 1.368 . S
H1765 C1773 0.950 . S
H1766 C1771 0.950 . S
H1767 C1772 0.949 . S
H1768 C1774 0.950 . S
H1769 C1775 0.950 . S
H1770 C1776 0.949 . S
C1771 H1766 0.950 . S
C1771 C1773 1.327 . S
C1771 C1777 1.429 . S
C1772 C1764 1.574 . S
C1772 H1767 0.949 . S
C1772 C1778 1.368 . S
C1773 C1757 1.349 . S
C1773 H1765 0.950 . S
C1773 C1771 1.327 . S
C1774 C1762 1.349 . S
C1774 H1768 0.950 . S
C1774 C1775 1.327 . S
C1775 H1769 0.950 . S
C1775 C1774 1.327 . S
C1775 C1779 1.429 . S
C1776 C1759 1.574 . S
C1776 H1770 0.949 . S
C1776 C1780 1.368 . S
C1777 C1758 1.429 . S
C1777 C1771 1.429 . S
C1777 C1778 1.523 . S
C1778 C1759 1.368 . S
C1778 C1772 1.368 . S
C1778 C1777 1.523 . S
C1779 C1763 1.429 . S
C1779 C1775 1.429 . S
C1779 C1780 1.523 . S
C1780 C1764 1.368 . S
C1780 C1776 1.368 . S
C1780 C1779 1.523 . S
H1781 C1756 0.950 . S
H1782 C1758 0.950 . S
H1783 C1759 0.949 . S
H1784 C1761 0.950 . S
H1785 C1763 0.950 . S
C1786 C1787 1.349 . S
C1786 C1788 1.327 . S
C1786 H1811 0.950 . S
C1787 C1786 1.349 . S
C1787 C1803 1.349 . S
C1788 C1786 1.327 . S
C1788 C1807 1.429 . S
C1788 H1812 0.950 . S
C1789 C1806 1.574 . S
C1789 C1808 1.368 . S
C1789 H1813 0.949 . S
H1790 C1794 0.949 . S
C1791 C1792 1.349 . S
C1791 C1793 1.327 . S
C1791 H1814 0.950 . S
C1792 C1791 1.349 . S
C1792 C1804 1.349 . S
C1793 C1791 1.327 . S
C1793 C1809 1.429 . S
C1793 H1815 0.950 . S
C1794 H1790 0.949 . S
C1794 C1802 1.574 . S
C1794 C1810 1.368 . S
H1795 C1803 0.950 . S
H1796 C1801 0.950 . S
H1797 C1802 0.949 . S
H1798 C1804 0.950 . S
H1799 C1805 0.950 . S
H1800 C1806 0.949 . S
C1801 H1796 0.950 . S
C1801 C1803 1.327 . S
C1801 C1807 1.429 . S
C1802 C1794 1.574 . S
C1802 H1797 0.949 . S
C1802 C1808 1.368 . S
C1803 C1787 1.349 . S
C1803 H1795 0.950 . S
C1803 C1801 1.327 . S
C1804 C1792 1.349 . S
C1804 H1798 0.950 . S
C1804 C1805 1.327 . S
C1805 H1799 0.950 . S
C1805 C1804 1.327 . S
C1805 C1809 1.429 . S
C1806 C1789 1.574 . S
C1806 H1800 0.949 . S
C1806 C1810 1.368 . S
C1807 C1788 1.429 . S
C1807 C1801 1.429 . S
C1807 C1808 1.523 . S
C1808 C1789 1.368 . S
C1808 C1802 1.368 . S
C1808 C1807 1.523 . S
C1809 C1793 1.429 . S
C1809 C1805 1.429 . S
C1809 C1810 1.523 . S
C1810 C1794 1.368 . S
C1810 C1806 1.368 . S
C1810 C1809 1.523 . S
H1811 C1786 0.950 . S
H1812 C1788 0.950 . S
H1813 C1789 0.949 . S
H1814 C1791 0.950 . S
H1815 C1793 0.950 . S
C1816 C1817 1.349 . S
C1816 C1818 1.327 . S
C1816 H1841 0.950 . S
C1817 C1816 1.349 . S
C1817 C1833 1.349 . S
C1818 C1816 1.327 . S
C1818 C1837 1.429 . S
C1818 H1842 0.950 . S
C1819 C1836 1.574 . S
C1819 C1838 1.368 . S
C1819 H1843 0.949 . S
H1820 C1824 0.949 . S
C1821 C1822 1.349 . S
C1821 C1823 1.327 . S
C1821 H1844 0.950 . S
C1822 C1821 1.349 . S
C1822 C1834 1.349 . S
C1823 C1821 1.327 . S
C1823 C1839 1.429 . S
C1823 H1845 0.950 . S
C1824 H1820 0.949 . S
C1824 C1832 1.574 . S
C1824 C1840 1.368 . S
H1825 C1833 0.950 . S
H1826 C1831 0.950 . S
H1827 C1832 0.949 . S
H1828 C1834 0.950 . S
H1829 C1835 0.950 . S
H1830 C1836 0.949 . S
C1831 H1826 0.950 . S
C1831 C1833 1.327 . S
C1831 C1837 1.429 . S
C1832 C1824 1.574 . S
C1832 H1827 0.949 . S
C1832 C1838 1.368 . S
C1833 C1817 1.349 . S
C1833 H1825 0.950 . S
C1833 C1831 1.327 . S
C1834 C1822 1.349 . S
C1834 H1828 0.950 . S
C1834 C1835 1.327 . S
C1835 H1829 0.950 . S
C1835 C1834 1.327 . S
C1835 C1839 1.429 . S
C1836 C1819 1.574 . S
C1836 H1830 0.949 . S
C1836 C1840 1.368 . S
C1837 C1818 1.429 . S
C1837 C1831 1.429 . S
C1837 C1838 1.523 . S
C1838 C1819 1.368 . S
C1838 C1832 1.368 . S
C1838 C1837 1.523 . S
C1839 C1823 1.429 . S
C1839 C1835 1.429 . S
C1839 C1840 1.523 . S
C1840 C1824 1.368 . S
C1840 C1836 1.368 . S
C1840 C1839 1.523 . S
H1841 C1816 0.950 . S
H1842 C1818 0.950 . S
H1843 C1819 0.949 . S
H1844 C1821 0.950 . S
H1845 C1823 0.950 . S
C1846 C1847 1.349 . S
C1846 C1848 1.327 . S
C1846 H1871 0.950 . S
C1847 C1846 1.349 . S
C1847 C1863 1.349 . S
C1848 C1846 1.327 . S
C1848 C1867 1.429 . S
C1848 H1872 0.950 . S
C1849 C1866 1.574 . S
C1849 C1868 1.368 . S
C1849 H1873 0.949 . S
H1850 C1854 0.949 . S
C1851 C1852 1.349 . S
C1851 C1853 1.327 . S
C1851 H1874 0.950 . S
C1852 C1851 1.349 . S
C1852 C1864 1.349 . S
C1853 C1851 1.327 . S
C1853 C1869 1.429 . S
C1853 H1875 0.950 . S
C1854 H1850 0.949 . S
C1854 C1862 1.574 . S
C1854 C1870 1.368 . S
H1855 C1863 0.950 . S
H1856 C1861 0.950 . S
H1857 C1862 0.949 . S
H1858 C1864 0.950 . S
H1859 C1865 0.950 . S
H1860 C1866 0.949 . S
C1861 H1856 0.950 . S
C1861 C1863 1.327 . S
C1861 C1867 1.429 . S
C1862 C1854 1.574 . S
C1862 H1857 0.949 . S
C1862 C1868 1.368 . S
C1863 C1847 1.349 . S
C1863 H1855 0.950 . S
C1863 C1861 1.327 . S
C1864 C1852 1.349 . S
C1864 H1858 0.950 . S
C1864 C1865 1.327 . S
C1865 H1859 0.950 . S
C1865 C1864 1.327 . S
C1865 C1869 1.429 . S
C1866 C1849 1.574 . S
C1866 H1860 0.949 . S
C1866 C1870 1.368 . S
C1867 C1848 1.429 . S
C1867 C1861 1.429 . S
C1867 C1868 1.523 . S
C1868 C1849 1.368 . S
C1868 C1862 1.368 . S
C1868 C1867 1.523 . S
C1869 C1853 1.429 . S
C1869 C1865 1.429 . S
C1869 C1870 1.523 . S
C1870 C1854 1.368 . S
C1870 C1866 1.368 . S
C1870 C1869 1.523 . S
H1871 C1846 0.950 . S
H1872 C1848 0.950 . S
H1873 C1849 0.949 . S
H1874 C1851 0.950 . S
H1875 C1853 0.950 . S
C1876 C1877 1.349 . S
C1876 C1878 1.327 . S
C1876 H1901 0.950 . S
C1877 C1876 1.349 . S
C1877 C1893 1.349 . S
C1878 C1876 1.327 . S
C1878 C1897 1.429 . S
C1878 H1902 0.950 . S
C1879 C1896 1.574 . S
C1879 C1898 1.368 . S
C1879 H1903 0.949 . S
H1880 C1884 0.949 . S
C1881 C1882 1.349 . S
C1881 C1883 1.327 . S
C1881 H1904 0.950 1_556 S
C1882 C1881 1.349 . S
C1882 C1894 1.349 . S
C1883 C1881 1.327 . S
C1883 C1899 1.429 . S
C1883 H1905 0.950 . S
C1884 H1880 0.949 . S
C1884 C1892 1.574 . S
C1884 C1900 1.368 . S
H1885 C1893 0.950 . S
H1886 C1891 0.950 . S
H1887 C1892 0.949 . S
H1888 C1894 0.950 . S
H1889 C1895 0.950 . S
H1890 C1896 0.949 . S
C1891 H1886 0.950 . S
C1891 C1893 1.327 . S
C1891 C1897 1.429 . S
C1892 C1884 1.574 . S
C1892 H1887 0.949 . S
C1892 C1898 1.368 . S
C1893 C1877 1.349 . S
C1893 H1885 0.950 . S
C1893 C1891 1.327 . S
C1894 C1882 1.349 . S
C1894 H1888 0.950 . S
C1894 C1895 1.327 . S
C1895 H1889 0.950 . S
C1895 C1894 1.327 . S
C1895 C1899 1.429 . S
C1896 C1879 1.574 . S
C1896 H1890 0.949 . S
C1896 C1900 1.368 . S
C1897 C1878 1.429 . S
C1897 C1891 1.429 . S
C1897 C1898 1.523 . S
C1898 C1879 1.368 . S
C1898 C1892 1.368 . S
C1898 C1897 1.523 . S
C1899 C1883 1.429 . S
C1899 C1895 1.429 . S
C1899 C1900 1.523 . S
C1900 C1884 1.368 . S
C1900 C1896 1.368 . S
C1900 C1899 1.523 . S
H1901 C1876 0.950 . S
H1902 C1878 0.950 . S
H1903 C1879 0.949 . S
H1904 C1881 0.950 1_554 S
H1905 C1883 0.950 . S
C1906 C1907 1.349 . S
C1906 C1908 1.327 . S
C1906 H1931 0.950 . S
C1907 C1906 1.349 . S
C1907 C1923 1.349 . S
C1908 C1906 1.327 . S
C1908 C1927 1.429 . S
C1908 H1932 0.950 . S
C1909 C1926 1.574 . S
C1909 C1928 1.368 . S
C1909 H1933 0.949 . S
H1910 C1914 0.949 . S
C1911 C1912 1.349 . S
C1911 C1913 1.327 . S
C1911 H1934 0.950 . S
C1912 C1911 1.349 . S
C1912 C1924 1.349 . S
C1913 C1911 1.327 . S
C1913 C1929 1.429 . S
C1913 H1935 0.950 . S
C1914 H1910 0.949 . S
C1914 C1922 1.574 . S
C1914 C1930 1.368 . S
H1915 C1923 0.950 . S
H1916 C1921 0.950 . S
H1917 C1922 0.949 . S
H1918 C1924 0.950 . S
H1919 C1925 0.950 . S
H1920 C1926 0.949 . S
C1921 H1916 0.950 . S
C1921 C1923 1.327 . S
C1921 C1927 1.429 . S
C1922 C1914 1.574 . S
C1922 H1917 0.949 . S
C1922 C1928 1.368 . S
C1923 C1907 1.349 . S
C1923 H1915 0.950 . S
C1923 C1921 1.327 . S
C1924 C1912 1.349 . S
C1924 H1918 0.950 . S
C1924 C1925 1.327 . S
C1925 H1919 0.950 . S
C1925 C1924 1.327 . S
C1925 C1929 1.429 . S
C1926 C1909 1.574 . S
C1926 H1920 0.949 . S
C1926 C1930 1.368 . S
C1927 C1908 1.429 . S
C1927 C1921 1.429 . S
C1927 C1928 1.523 . S
C1928 C1909 1.368 . S
C1928 C1922 1.368 . S
C1928 C1927 1.523 . S
C1929 C1913 1.429 . S
C1929 C1925 1.429 . S
C1929 C1930 1.523 . S
C1930 C1914 1.368 . S
C1930 C1926 1.368 . S
C1930 C1929 1.523 . S
H1931 C1906 0.950 . S
H1932 C1908 0.950 . S
H1933 C1909 0.949 . S
H1934 C1911 0.950 . S
H1935 C1913 0.950 . S
C1936 C1937 1.349 . S
C1936 C1938 1.327 . S
C1936 H1961 0.950 . S
C1937 C1936 1.349 . S
C1937 C1953 1.349 1_545 S
C1938 C1936 1.327 . S
C1938 C1957 1.429 . S
C1938 H1962 0.950 . S
C1939 C1956 1.574 . S
C1939 C1958 1.368 1_565 S
C1939 H1963 0.949 . S
H1940 C1944 0.949 . S
C1941 C1942 1.349 . S
C1941 C1943 1.327 . S
C1941 H1964 0.950 1_545 S
C1942 C1941 1.349 . S
C1942 C1954 1.349 . S
C1943 C1941 1.327 . S
C1943 C1959 1.429 . S
C1943 H1965 0.950 1_545 S
C1944 H1940 0.949 . S
C1944 C1952 1.574 . S
C1944 C1960 1.368 . S
H1945 C1953 0.950 . S
H1946 C1951 0.950 . S
H1947 C1952 0.949 . S
H1948 C1954 0.950 . S
H1949 C1955 0.950 . S
H1950 C1956 0.949 . S
C1951 H1946 0.950 . S
C1951 C1953 1.327 . S
C1951 C1957 1.429 1_565 S
C1952 C1944 1.574 . S
C1952 H1947 0.949 . S
C1952 C1958 1.368 . S
C1953 C1937 1.349 1_565 S
C1953 H1945 0.950 . S
C1953 C1951 1.327 . S
C1954 C1942 1.349 . S
C1954 H1948 0.950 . S
C1954 C1955 1.327 . S
C1955 H1949 0.950 . S
C1955 C1954 1.327 . S
C1955 C1959 1.429 . S
C1956 C1939 1.574 . S
C1956 H1950 0.949 . S
C1956 C1960 1.368 1_565 S
C1957 C1938 1.429 . S
C1957 C1951 1.429 1_545 S
C1957 C1958 1.523 . S
C1958 C1939 1.368 1_545 S
C1958 C1952 1.368 . S
C1958 C1957 1.523 . S
C1959 C1943 1.429 . S
C1959 C1955 1.429 . S
C1959 C1960 1.523 . S
C1960 C1944 1.368 . S
C1960 C1956 1.368 1_545 S
C1960 C1959 1.523 . S
H1961 C1936 0.950 . S
H1962 C1938 0.950 . S
H1963 C1939 0.949 . S
H1964 C1941 0.950 1_565 S
H1965 C1943 0.950 1_565 S
C1966 C1967 1.349 . S
C1966 C1968 1.327 . S
C1966 H1991 0.950 . S
C1967 C1966 1.349 . S
C1967 C1983 1.349 . S
C1968 C1966 1.327 . S
C1968 C1987 1.429 . S
C1968 H1992 0.950 . S
C1969 C1986 1.574 . S
C1969 C1988 1.368 . S
C1969 H1993 0.949 . S
H1970 C1974 0.949 . S
C1971 C1972 1.349 . S
C1971 C1973 1.327 . S
C1971 H1994 0.950 . S
C1972 C1971 1.349 . S
C1972 C1984 1.349 . S
C1973 C1971 1.327 . S
C1973 C1989 1.429 . S
C1973 H1995 0.950 . S
C1974 H1970 0.949 . S
C1974 C1982 1.574 . S
C1974 C1990 1.368 . S
H1975 C1983 0.950 . S
H1976 C1981 0.950 . S
H1977 C1982 0.949 . S
H1978 C1984 0.950 . S
H1979 C1985 0.950 . S
H1980 C1986 0.949 . S
C1981 H1976 0.950 . S
C1981 C1983 1.327 . S
C1981 C1987 1.429 . S
C1982 C1974 1.574 . S
C1982 H1977 0.949 . S
C1982 C1988 1.368 . S
C1983 C1967 1.349 . S
C1983 H1975 0.950 . S
C1983 C1981 1.327 . S
C1984 C1972 1.349 . S
C1984 H1978 0.950 . S
C1984 C1985 1.327 . S
C1985 H1979 0.950 . S
C1985 C1984 1.327 . S
C1985 C1989 1.429 . S
C1986 C1969 1.574 . S
C1986 H1980 0.949 . S
C1986 C1990 1.368 . S
C1987 C1968 1.429 . S
C1987 C1981 1.429 . S
C1987 C1988 1.523 . S
C1988 C1969 1.368 . S
C1988 C1982 1.368 . S
C1988 C1987 1.523 . S
C1989 C1973 1.429 . S
C1989 C1985 1.429 . S
C1989 C1990 1.523 . S
C1990 C1974 1.368 . S
C1990 C1986 1.368 . S
C1990 C1989 1.523 . S
H1991 C1966 0.950 . S
H1992 C1968 0.950 . S
H1993 C1969 0.949 . S
H1994 C1971 0.950 . S
H1995 C1973 0.950 . S
C1996 C1997 1.339 1_565 S
C1996 C1998 1.330 1_565 S
C1996 H2021 0.958 . S
C1997 C1996 1.339 1_545 S
C1997 C2013 1.349 . S
C1998 C1996 1.330 1_545 S
C1998 C2017 1.429 . S
C1998 H2022 0.950 1_545 S
C1999 C2016 1.574 . S
C1999 C2018 1.368 . S
C1999 H2023 0.949 . S
H2000 C2004 0.949 1_565 S
C2001 C2002 1.349 . S
C2001 C2003 1.327 . S
C2001 H2024 0.950 . S
C2002 C2001 1.349 . S
C2002 C2014 1.349 . S
C2003 C2001 1.327 . S
C2003 C2019 1.429 . S
C2003 H2025 0.950 . S
C2004 H2000 0.949 1_545 S
C2004 C2012 1.574 . S
C2004 C2020 1.368 . S
H2005 C2013 0.950 . S
H2006 C2011 0.950 . S
H2007 C2012 0.949 1_565 S
H2008 C2014 0.950 . S
H2009 C2015 0.986 . S
H2010 C2016 0.949 . S
C2011 H2006 0.950 . S
C2011 C2013 1.327 . S
C2011 C2017 1.429 . S
C2012 C2004 1.574 . S
C2012 H2007 0.949 1_545 S
C2012 C2018 1.368 . S
C2013 C1997 1.349 . S
C2013 H2005 0.950 . S
C2013 C2011 1.327 . S
C2014 C2002 1.349 . S
C2014 H2008 0.950 . S
C2014 C2015 1.327 . S
C2015 H2009 0.986 . S
C2015 C2014 1.327 . S
C2015 C2019 1.429 . S
C2016 C1999 1.574 . S
C2016 H2010 0.949 . S
C2016 C2020 1.368 . S
C2017 C1998 1.429 . S
C2017 C2011 1.429 . S
C2017 C2018 1.523 . S
C2018 C1999 1.368 . S
C2018 C2012 1.368 . S
C2018 C2017 1.523 . S
C2019 C2003 1.429 . S
C2019 C2015 1.429 . S
C2019 C2020 1.523 . S
C2020 C2004 1.368 . S
C2020 C2016 1.368 . S
C2020 C2019 1.523 . S
H2021 C1996 0.958 . S
H2022 C1998 0.950 1_565 S
H2023 C1999 0.949 . S
H2024 C2001 0.950 . S
H2025 C2003 0.950 . S
C2026 C2027 1.349 . S
C2026 C2028 1.327 . S
C2026 H2051 0.950 . S
C2027 C2026 1.349 . S
C2027 C2043 1.349 . S
C2028 C2026 1.327 . S
C2028 C2047 1.429 . S
C2028 H2052 0.950 . S
C2029 C2046 1.574 . S
C2029 C2048 1.368 . S
C2029 H2053 0.949 . S
H2030 C2034 0.949 . S
C2031 C2032 1.349 . S
C2031 C2033 1.327 . S
C2031 H2054 0.950 . S
C2032 C2031 1.349 . S
C2032 C2044 1.349 . S
C2033 C2031 1.327 . S
C2033 C2049 1.429 . S
C2033 H2055 0.950 . S
C2034 H2030 0.949 . S
C2034 C2042 1.574 . S
C2034 C2050 1.368 . S
H2035 C2043 0.950 . S
H2036 C2041 0.950 . S
H2037 C2042 0.949 . S
H2038 C2044 0.950 . S
H2039 C2045 0.950 . S
H2040 C2046 0.949 . S
C2041 H2036 0.950 . S
C2041 C2043 1.327 . S
C2041 C2047 1.429 . S
C2042 C2034 1.574 . S
C2042 H2037 0.949 . S
C2042 C2048 1.368 . S
C2043 C2027 1.349 . S
C2043 H2035 0.950 . S
C2043 C2041 1.327 . S
C2044 C2032 1.349 . S
C2044 H2038 0.950 . S
C2044 C2045 1.327 . S
C2045 H2039 0.950 . S
C2045 C2044 1.327 . S
C2045 C2049 1.429 . S
C2046 C2029 1.574 . S
C2046 H2040 0.949 . S
C2046 C2050 1.368 . S
C2047 C2028 1.429 . S
C2047 C2041 1.429 . S
C2047 C2048 1.523 . S
C2048 C2029 1.368 . S
C2048 C2042 1.368 . S
C2048 C2047 1.523 . S
C2049 C2033 1.429 . S
C2049 C2045 1.429 . S
C2049 C2050 1.523 . S
C2050 C2034 1.368 . S
C2050 C2046 1.368 . S
C2050 C2049 1.523 . S
H2051 C2026 0.950 . S
H2052 C2028 0.950 . S
H2053 C2029 0.949 . S
H2054 C2031 0.950 . S
H2055 C2033 0.950 . S
C2056 C2057 1.349 1_545 S
C2056 C2058 1.327 . S
C2056 H2081 0.950 . S
C2057 C2056 1.349 1_565 S
C2057 C2073 1.349 . S
C2058 C2056 1.327 . S
C2058 C2077 1.429 . S
C2058 H2082 0.950 . S
C2059 C2076 1.574 . S
C2059 C2078 1.368 1_565 S
C2059 H2083 0.949 . S
H2060 C2064 0.949 . S
C2061 C2062 1.349 . S
C2061 C2063 1.327 . S
C2061 H2084 0.950 1_545 S
C2062 C2061 1.349 . S
C2062 C2074 1.349 . S
C2063 C2061 1.327 . S
C2063 C2079 1.429 . S
C2063 H2085 0.950 1_545 S
C2064 H2060 0.949 . S
C2064 C2072 1.574 . S
C2064 C2080 1.368 . S
H2065 C2073 0.950 . S
H2066 C2071 0.950 . S
H2067 C2072 0.949 . S
H2068 C2074 0.950 . S
H2069 C2075 0.950 . S
H2070 C2076 0.949 . S
C2071 H2066 0.950 . S
C2071 C2073 1.327 . S
C2071 C2077 1.429 1_565 S
C2072 C2064 1.574 . S
C2072 H2067 0.949 . S
C2072 C2078 1.368 . S
C2073 C2057 1.349 . S
C2073 H2065 0.950 . S
C2073 C2071 1.327 . S
C2074 C2062 1.349 . S
C2074 H2068 0.950 . S
C2074 C2075 1.327 . S
C2075 H2069 0.950 . S
C2075 C2074 1.327 . S
C2075 C2079 1.429 . S
C2076 C2059 1.574 . S
C2076 H2070 0.949 . S
C2076 C2080 1.368 1_565 S
C2077 C2058 1.429 . S
C2077 C2071 1.429 1_545 S
C2077 C2078 1.523 . S
C2078 C2059 1.368 1_545 S
C2078 C2072 1.368 . S
C2078 C2077 1.523 . S
C2079 C2063 1.429 . S
C2079 C2075 1.429 . S
C2079 C2080 1.523 . S
C2080 C2064 1.368 . S
C2080 C2076 1.368 1_545 S
C2080 C2079 1.523 . S
H2081 C2056 0.950 . S
H2082 C2058 0.950 . S
H2083 C2059 0.949 . S
H2084 C2061 0.950 1_565 S
H2085 C2063 0.950 1_565 S
C2086 C2087 1.349 . S
C2086 C2088 1.327 . S
C2086 H2111 0.950 . S
C2087 C2086 1.349 . S
C2087 C2103 1.349 . S
C2088 C2086 1.327 . S
C2088 C2107 1.429 . S
C2088 H2112 0.950 . S
C2089 C2106 1.574 . S
C2089 C2108 1.368 . S
C2089 H2113 0.949 . S
H2090 C2094 0.949 . S
C2091 C2092 1.349 . S
C2091 C2093 1.327 . S
C2091 H2114 0.950 . S
C2092 C2091 1.349 . S
C2092 C2104 1.349 . S
C2093 C2091 1.327 . S
C2093 C2109 1.429 . S
C2093 H2115 0.950 . S
C2094 H2090 0.949 . S
C2094 C2102 1.574 . S
C2094 C2110 1.368 . S
H2095 C2103 0.950 . S
H2096 C2101 0.950 . S
H2097 C2102 0.949 . S
H2098 C2104 0.950 . S
H2099 C2105 0.950 . S
H2100 C2106 0.949 . S
C2101 H2096 0.950 . S
C2101 C2103 1.327 . S
C2101 C2107 1.429 . S
C2102 C2094 1.574 . S
C2102 H2097 0.949 . S
C2102 C2108 1.368 . S
C2103 C2087 1.349 . S
C2103 H2095 0.950 . S
C2103 C2101 1.327 . S
C2104 C2092 1.349 . S
C2104 H2098 0.950 . S
C2104 C2105 1.327 . S
C2105 H2099 0.950 . S
C2105 C2104 1.327 . S
C2105 C2109 1.429 . S
C2106 C2089 1.574 . S
C2106 H2100 0.949 . S
C2106 C2110 1.368 . S
C2107 C2088 1.429 . S
C2107 C2101 1.429 . S
C2107 C2108 1.523 . S
C2108 C2089 1.368 . S
C2108 C2102 1.368 . S
C2108 C2107 1.523 . S
C2109 C2093 1.429 . S
C2109 C2105 1.429 . S
C2109 C2110 1.523 . S
C2110 C2094 1.368 . S
C2110 C2106 1.368 . S
C2110 C2109 1.523 . S
H2111 C2086 0.950 . S
H2112 C2088 0.950 . S
H2113 C2089 0.949 . S
H2114 C2091 0.950 . S
H2115 C2093 0.950 . S
C2116 C2117 1.349 . S
C2116 C2118 1.327 . S
C2116 H2141 0.950 . S
C2117 C2116 1.349 . S
C2117 C2133 1.349 1_545 S
C2118 C2116 1.327 . S
C2118 C2137 1.429 . S
C2118 H2142 0.950 . S
C2119 C2136 1.574 . S
C2119 C2138 1.374 . S
C2119 H2143 0.949 . S
H2120 C2124 0.949 . S
C2121 C2122 1.349 . S
C2121 C2123 1.327 . S
C2121 H2144 0.950 . S
C2122 C2121 1.349 . S
C2122 C2134 1.349 1_565 S
C2123 C2121 1.327 . S
C2123 C2139 1.429 . S
C2123 H2145 0.950 . S
C2124 H2120 0.949 . S
C2124 C2132 1.574 . S
C2124 C2140 1.368 1_545 S
H2125 C2133 0.950 . S
H2126 C2131 0.950 . S
H2127 C2132 0.949 . S
H2128 C2134 0.950 . S
H2129 C2135 0.950 . S
H2130 C2136 0.949 . S
C2131 H2126 0.950 . S
C2131 C2133 1.327 . S
C2131 C2137 1.429 1_565 S
C2132 C2124 1.574 . S
C2132 H2127 0.949 . S
C2132 C2138 1.363 1_545 S
C2133 C2117 1.349 1_565 S
C2133 H2125 0.950 . S
C2133 C2131 1.327 . S
C2134 C2122 1.349 1_545 S
C2134 H2128 0.950 . S
C2134 C2135 1.327 . S
C2135 H2129 0.950 . S
C2135 C2134 1.327 . S
C2135 C2139 1.429 1_545 S
C2136 C2119 1.574 . S
C2136 H2130 0.949 . S
C2136 C2140 1.368 . S
C2137 C2118 1.429 . S
C2137 C2131 1.429 1_545 S
C2137 C2138 1.523 1_545 S
C2138 C2119 1.374 . S
C2138 C2132 1.363 1_565 S
C2138 C2137 1.523 1_565 S
C2139 C2123 1.429 . S
C2139 C2135 1.429 1_565 S
C2139 C2140 1.523 . S
C2140 C2124 1.368 1_565 S
C2140 C2136 1.368 . S
C2140 C2139 1.523 . S
H2141 C2116 0.950 . S
H2142 C2118 0.950 . S
H2143 C2119 0.949 . S
H2144 C2121 0.950 . S
H2145 C2123 0.950 . S
C2146 C2147 1.349 . S
C2146 C2148 1.327 . S
C2146 H2171 0.950 . S
C2147 C2146 1.349 . S
C2147 C2163 1.349 . S
C2148 C2146 1.327 . S
C2148 C2167 1.429 . S
C2148 H2172 0.950 . S
C2149 C2166 1.574 . S
C2149 C2168 1.368 . S
C2149 H2173 0.949 . S
H2150 C2154 0.949 . S
C2151 C2152 1.349 . S
C2151 C2153 1.327 . S
C2151 H2174 0.950 . S
C2152 C2151 1.349 . S
C2152 C2164 1.349 . S
C2153 C2151 1.327 . S
C2153 C2169 1.429 . S
C2153 H2175 0.950 . S
C2154 H2150 0.949 . S
C2154 C2162 1.574 . S
C2154 C2170 1.368 . S
H2155 C2163 0.950 . S
H2156 C2161 0.950 . S
H2157 C2162 0.949 . S
H2158 C2164 0.950 . S
H2159 C2165 0.950 . S
H2160 C2166 0.949 . S
C2161 H2156 0.950 . S
C2161 C2163 1.327 . S
C2161 C2167 1.429 . S
C2162 C2154 1.574 . S
C2162 H2157 0.949 . S
C2162 C2168 1.368 . S
C2163 C2147 1.349 . S
C2163 H2155 0.950 . S
C2163 C2161 1.327 . S
C2164 C2152 1.349 . S
C2164 H2158 0.950 . S
C2164 C2165 1.327 . S
C2165 H2159 0.950 . S
C2165 C2164 1.327 . S
C2165 C2169 1.429 . S
C2166 C2149 1.574 . S
C2166 H2160 0.949 . S
C2166 C2170 1.368 . S
C2167 C2148 1.429 . S
C2167 C2161 1.429 . S
C2167 C2168 1.523 . S
C2168 C2149 1.368 . S
C2168 C2162 1.368 . S
C2168 C2167 1.523 . S
C2169 C2153 1.429 . S
C2169 C2165 1.429 . S
C2169 C2170 1.523 . S
C2170 C2154 1.368 . S
C2170 C2166 1.368 . S
C2170 C2169 1.523 . S
H2171 C2146 0.950 . S
H2172 C2148 0.950 . S
H2173 C2149 0.949 . S
H2174 C2151 0.950 . S
H2175 C2153 0.950 . S
C2176 C2177 1.349 . S
C2176 C2178 1.327 . S
C2176 H2201 0.950 . S
C2177 C2176 1.349 . S
C2177 C2193 1.349 1_554 S
C2178 C2176 1.327 . S
C2178 C2197 1.453 . S
C2178 H2202 0.950 . S
C2179 C2196 1.574 . S
C2179 C2198 1.368 . S
C2179 H2203 0.949 . S
H2180 C2184 0.949 . S
C2181 C2182 1.349 . S
C2181 C2183 1.327 . S
C2181 H2204 0.950 . S
C2182 C2181 1.349 . S
C2182 C2194 1.349 . S
C2183 C2181 1.327 . S
C2183 C2199 1.429 . S
C2183 H2205 0.950 . S
C2184 H2180 0.949 . S
C2184 C2192 1.574 . S
C2184 C2200 1.368 1_554 S
H2185 C2193 0.950 . S
H2186 C2191 0.950 . S
H2187 C2192 0.949 . S
H2188 C2194 0.950 . S
H2189 C2195 0.950 1_554 S
H2190 C2196 0.949 . S
C2191 H2186 0.950 . S
C2191 C2193 1.327 . S
C2191 C2197 1.411 1_556 S
C2192 C2184 1.574 . S
C2192 H2187 0.949 . S
C2192 C2198 1.368 1_554 S
C2193 C2177 1.349 1_556 S
C2193 H2185 0.950 . S
C2193 C2191 1.327 . S
C2194 C2182 1.349 . S
C2194 H2188 0.950 . S
C2194 C2195 1.327 . S
C2195 H2189 0.950 1_556 S
C2195 C2194 1.327 . S
C2195 C2199 1.429 . S
C2196 C2179 1.574 . S
C2196 H2190 0.949 . S
C2196 C2200 1.368 . S
C2197 C2178 1.453 . S
C2197 C2191 1.411 1_554 S
C2197 C2198 1.517 1_554 S
C2198 C2179 1.368 . S
C2198 C2192 1.368 1_556 S
C2198 C2197 1.517 1_556 S
C2199 C2183 1.429 . S
C2199 C2195 1.429 . S
C2199 C2200 1.523 . S
C2200 C2184 1.368 1_556 S
C2200 C2196 1.368 . S
C2200 C2199 1.523 . S
H2201 C2176 0.950 . S
H2202 C2178 0.950 . S
H2203 C2179 0.949 . S
H2204 C2181 0.950 . S
H2205 C2183 0.950 . S
C2206 C2207 1.349 . S
C2206 C2208 1.327 . S
C2206 H2231 0.950 . S
C2207 C2206 1.349 . S
C2207 C2223 1.349 . S
C2208 C2206 1.327 . S
C2208 C2227 1.429 . S
C2208 H2232 0.950 . S
C2209 C2226 1.574 . S
C2209 C2228 1.368 . S
C2209 H2233 0.949 1_554 S
H2210 C2214 0.949 . S
C2211 C2212 1.349 . S
C2211 C2213 1.327 . S
C2211 H2234 0.950 1_554 S
C2212 C2211 1.349 . S
C2212 C2224 1.349 . S
C2213 C2211 1.327 . S
C2213 C2229 1.429 . S
C2213 H2235 0.950 1_554 S
C2214 H2210 0.949 . S
C2214 C2222 1.574 . S
C2214 C2230 1.368 . S
H2215 C2223 0.950 1_556 S
H2216 C2221 0.950 1_556 S
H2217 C2222 0.949 . S
H2218 C2224 0.950 . S
H2219 C2225 0.950 . S
H2220 C2226 0.949 1_556 S
C2221 H2216 0.950 1_554 S
C2221 C2223 1.327 . S
C2221 C2227 1.429 . S
C2222 C2214 1.574 . S
C2222 H2217 0.949 . S
C2222 C2228 1.368 . S
C2223 C2207 1.349 . S
C2223 H2215 0.950 1_554 S
C2223 C2221 1.327 . S
C2224 C2212 1.349 . S
C2224 H2218 0.950 . S
C2224 C2225 1.327 . S
C2225 H2219 0.950 . S
C2225 C2224 1.327 . S
C2225 C2229 1.429 . S
C2226 C2209 1.574 . S
C2226 H2220 0.949 1_554 S
C2226 C2230 1.368 . S
C2227 C2208 1.429 . S
C2227 C2221 1.429 . S
C2227 C2228 1.523 . S
C2228 C2209 1.368 . S
C2228 C2222 1.368 . S
C2228 C2227 1.523 . S
C2229 C2213 1.429 . S
C2229 C2225 1.429 . S
C2229 C2230 1.523 . S
C2230 C2214 1.368 . S
C2230 C2226 1.368 . S
C2230 C2229 1.523 . S
H2231 C2206 0.950 . S
H2232 C2208 0.950 . S
H2233 C2209 0.949 1_556 S
H2234 C2211 0.950 1_556 S
H2235 C2213 0.950 1_556 S
C2236 C2237 1.349 . S
C2236 C2238 1.327 . S
C2236 H2261 0.950 . S
C2237 C2236 1.349 . S
C2237 C2253 1.349 . S
C2238 C2236 1.327 . S
C2238 C2257 1.429 . S
C2238 H2262 0.950 . S
C2239 C2256 1.574 . S
C2239 C2258 1.368 . S
C2239 H2263 0.949 . S
H2240 C2244 0.949 . S
C2241 C2242 1.349 . S
C2241 C2243 1.327 . S
C2241 H2264 0.950 . S
C2242 C2241 1.349 . S
C2242 C2254 1.349 . S
C2243 C2241 1.327 . S
C2243 C2259 1.429 . S
C2243 H2265 0.950 . S
C2244 H2240 0.949 . S
C2244 C2252 1.574 . S
C2244 C2260 1.368 . S
H2245 C2253 0.950 . S
H2246 C2251 0.950 . S
H2247 C2252 0.949 . S
H2248 C2254 0.950 . S
H2249 C2255 0.950 . S
H2250 C2256 0.949 . S
C2251 H2246 0.950 . S
C2251 C2253 1.327 . S
C2251 C2257 1.429 . S
C2252 C2244 1.574 . S
C2252 H2247 0.949 . S
C2252 C2258 1.368 . S
C2253 C2237 1.349 . S
C2253 H2245 0.950 . S
C2253 C2251 1.327 . S
C2254 C2242 1.349 . S
C2254 H2248 0.950 . S
C2254 C2255 1.327 . S
C2255 H2249 0.950 . S
C2255 C2254 1.327 . S
C2255 C2259 1.429 . S
C2256 C2239 1.574 . S
C2256 H2250 0.949 . S
C2256 C2260 1.368 . S
C2257 C2238 1.429 . S
C2257 C2251 1.429 . S
C2257 C2258 1.523 . S
C2258 C2239 1.368 . S
C2258 C2252 1.368 . S
C2258 C2257 1.523 . S
C2259 C2243 1.429 . S
C2259 C2255 1.429 . S
C2259 C2260 1.523 . S
C2260 C2244 1.368 . S
C2260 C2256 1.368 . S
C2260 C2259 1.523 . S
H2261 C2236 0.950 . S
H2262 C2238 0.950 . S
H2263 C2239 0.949 . S
H2264 C2241 0.950 . S
H2265 C2243 0.950 . S
C2266 C2267 1.349 . S
C2266 C2268 1.327 . S
C2266 H2291 0.950 . S
C2267 C2266 1.349 . S
C2267 C2283 1.349 . S
C2268 C2266 1.327 . S
C2268 C2287 1.429 . S
C2268 H2292 0.950 . S
C2269 C2286 1.574 . S
C2269 C2288 1.368 . S
C2269 H2293 0.949 . S
H2270 C2274 0.949 . S
C2271 C2272 1.349 . S
C2271 C2273 1.327 . S
C2271 H2294 0.950 . S
C2272 C2271 1.349 . S
C2272 C2284 1.349 . S
C2273 C2271 1.327 . S
C2273 C2289 1.429 . S
C2273 H2295 0.950 . S
C2274 H2270 0.949 . S
C2274 C2282 1.574 . S
C2274 C2290 1.368 . S
H2275 C2283 0.950 . S
H2276 C2281 0.950 . S
H2277 C2282 0.949 . S
H2278 C2284 0.950 . S
H2279 C2285 0.950 . S
H2280 C2286 0.949 . S
C2281 H2276 0.950 . S
C2281 C2283 1.327 . S
C2281 C2287 1.429 . S
C2282 C2274 1.574 . S
C2282 H2277 0.949 . S
C2282 C2288 1.368 . S
C2283 C2267 1.349 . S
C2283 H2275 0.950 . S
C2283 C2281 1.327 . S
C2284 C2272 1.349 . S
C2284 H2278 0.950 . S
C2284 C2285 1.327 . S
C2285 H2279 0.950 . S
C2285 C2284 1.327 . S
C2285 C2289 1.429 . S
C2286 C2269 1.574 . S
C2286 H2280 0.949 . S
C2286 C2290 1.368 . S
C2287 C2268 1.429 . S
C2287 C2281 1.429 . S
C2287 C2288 1.523 . S
C2288 C2269 1.368 . S
C2288 C2282 1.368 . S
C2288 C2287 1.523 . S
C2289 C2273 1.429 . S
C2289 C2285 1.429 . S
C2289 C2290 1.523 . S
C2290 C2274 1.368 . S
C2290 C2286 1.368 . S
C2290 C2289 1.523 . S
H2291 C2266 0.950 . S
H2292 C2268 0.950 . S
H2293 C2269 0.949 . S
H2294 C2271 0.950 . S
H2295 C2273 0.950 . S
C2296 C2297 1.337 1_565 S
C2296 C2298 1.371 . S
C2296 H2321 0.919 1_565 S
C2297 C2296 1.337 1_545 S
C2297 C2313 1.349 1_545 S
C2298 C2296 1.371 . S
C2298 C2317 1.429 . S
C2298 H2322 0.950 . S
C2299 C2316 1.574 . S
C2299 C2318 1.368 . S
C2299 H2323 0.949 . S
H2300 C2304 0.949 . S
C2301 C2302 1.349 . S
C2301 C2303 1.327 . S
C2301 H2324 0.950 . S
C2302 C2301 1.349 . S
C2302 C2314 1.349 . S
C2303 C2301 1.327 . S
C2303 C2319 1.429 . S
C2303 H2325 0.950 . S
C2304 H2300 0.949 . S
C2304 C2312 1.574 . S
C2304 C2320 1.368 . S
H2305 C2313 0.950 . S
H2306 C2311 0.950 . S
H2307 C2312 0.949 . S
H2308 C2314 0.950 . S
H2309 C2315 0.950 . S
H2310 C2316 0.949 . S
C2311 H2306 0.950 . S
C2311 C2313 1.327 . S
C2311 C2317 1.429 . S
C2312 C2304 1.574 . S
C2312 H2307 0.949 . S
C2312 C2318 1.368 . S
C2313 C2297 1.349 1_565 S
C2313 H2305 0.950 . S
C2313 C2311 1.327 . S
C2314 C2302 1.349 . S
C2314 H2308 0.950 . S
C2314 C2315 1.327 . S
C2315 H2309 0.950 . S
C2315 C2314 1.327 . S
C2315 C2319 1.429 . S
C2316 C2299 1.574 . S
C2316 H2310 0.949 . S
C2316 C2320 1.368 . S
C2317 C2298 1.429 . S
C2317 C2311 1.429 . S
C2317 C2318 1.523 . S
C2318 C2299 1.368 . S
C2318 C2312 1.368 . S
C2318 C2317 1.523 . S
C2319 C2303 1.429 . S
C2319 C2315 1.429 . S
C2319 C2320 1.523 . S
C2320 C2304 1.368 . S
C2320 C2316 1.368 . S
C2320 C2319 1.523 . S
H2321 C2296 0.919 1_545 S
H2322 C2298 0.950 . S
H2323 C2299 0.949 . S
H2324 C2301 0.950 . S
H2325 C2303 0.950 . S
C2326 C2327 1.349 . S
C2326 C2328 1.327 . S
C2326 H2351 0.950 . S
C2327 C2326 1.349 . S
C2327 C2343 1.349 . S
C2328 C2326 1.327 . S
C2328 C2347 1.429 . S
C2328 H2352 0.950 . S
C2329 C2346 1.574 . S
C2329 C2348 1.368 . S
C2329 H2353 0.949 . S
H2330 C2334 0.949 . S
C2331 C2332 1.349 . S
C2331 C2333 1.327 . S
C2331 H2354 0.950 . S
C2332 C2331 1.349 . S
C2332 C2344 1.349 . S
C2333 C2331 1.327 . S
C2333 C2349 1.429 . S
C2333 H2355 0.950 . S
C2334 H2330 0.949 . S
C2334 C2342 1.574 . S
C2334 C2350 1.368 . S
H2335 C2343 0.950 . S
H2336 C2341 0.950 . S
H2337 C2342 0.949 . S
H2338 C2344 0.950 . S
H2339 C2345 0.950 . S
H2340 C2346 0.949 . S
C2341 H2336 0.950 . S
C2341 C2343 1.327 . S
C2341 C2347 1.429 . S
C2342 C2334 1.574 . S
C2342 H2337 0.949 . S
C2342 C2348 1.368 . S
C2343 C2327 1.349 . S
C2343 H2335 0.950 . S
C2343 C2341 1.327 . S
C2344 C2332 1.349 . S
C2344 H2338 0.950 . S
C2344 C2345 1.327 . S
C2345 H2339 0.950 . S
C2345 C2344 1.327 . S
C2345 C2349 1.429 . S
C2346 C2329 1.574 . S
C2346 H2340 0.949 . S
C2346 C2350 1.368 . S
C2347 C2328 1.429 . S
C2347 C2341 1.429 . S
C2347 C2348 1.523 . S
C2348 C2329 1.368 . S
C2348 C2342 1.368 . S
C2348 C2347 1.523 . S
C2349 C2333 1.429 . S
C2349 C2345 1.429 . S
C2349 C2350 1.523 . S
C2350 C2334 1.368 . S
C2350 C2346 1.368 . S
C2350 C2349 1.523 . S
H2351 C2326 0.950 . S
H2352 C2328 0.950 . S
H2353 C2329 0.949 . S
H2354 C2331 0.950 . S
H2355 C2333 0.950 . S
C2356 C2357 1.349 . S
C2356 C2358 1.327 . S
C2356 H2381 0.950 . S
C2357 C2356 1.349 . S
C2357 C2373 1.349 . S
C2358 C2356 1.327 . S
C2358 C2377 1.429 . S
C2358 H2382 0.950 . S
C2359 C2376 1.574 . S
C2359 C2378 1.368 . S
C2359 H2383 0.949 . S
H2360 C2364 0.949 . S
C2361 C2362 1.349 . S
C2361 C2363 1.327 . S
C2361 H2384 0.950 . S
C2362 C2361 1.349 . S
C2362 C2374 1.349 . S
C2363 C2361 1.327 . S
C2363 C2379 1.429 . S
C2363 H2385 0.950 . S
C2364 H2360 0.949 . S
C2364 C2372 1.574 . S
C2364 C2380 1.368 . S
H2365 C2373 0.950 . S
H2366 C2371 0.950 . S
H2367 C2372 0.949 . S
H2368 C2374 0.950 . S
H2369 C2375 0.950 . S
H2370 C2376 0.949 . S
C2371 H2366 0.950 . S
C2371 C2373 1.327 . S
C2371 C2377 1.429 . S
C2372 C2364 1.574 . S
C2372 H2367 0.949 . S
C2372 C2378 1.368 . S
C2373 C2357 1.349 . S
C2373 H2365 0.950 . S
C2373 C2371 1.327 . S
C2374 C2362 1.349 . S
C2374 H2368 0.950 . S
C2374 C2375 1.327 . S
C2375 H2369 0.950 . S
C2375 C2374 1.327 . S
C2375 C2379 1.429 . S
C2376 C2359 1.574 . S
C2376 H2370 0.949 . S
C2376 C2380 1.368 . S
C2377 C2358 1.429 . S
C2377 C2371 1.429 . S
C2377 C2378 1.523 . S
C2378 C2359 1.368 . S
C2378 C2372 1.368 . S
C2378 C2377 1.523 . S
C2379 C2363 1.429 . S
C2379 C2375 1.429 . S
C2379 C2380 1.523 . S
C2380 C2364 1.368 . S
C2380 C2376 1.368 . S
C2380 C2379 1.523 . S
H2381 C2356 0.950 . S
H2382 C2358 0.950 . S
H2383 C2359 0.949 . S
H2384 C2361 0.950 . S
H2385 C2363 0.950 . S
C2386 C2387 1.349 . S
C2386 C2388 1.327 . S
C2386 H2411 0.950 . S
C2387 C2386 1.349 . S
C2387 C2403 1.349 . S
C2388 C2386 1.327 . S
C2388 C2407 1.429 . S
C2388 H2412 0.950 . S
C2389 C2406 1.574 . S
C2389 C2408 1.368 . S
C2389 H2413 0.949 . S
H2390 C2394 0.949 . S
C2391 C2392 1.349 . S
C2391 C2393 1.327 . S
C2391 H2414 0.950 . S
C2392 C2391 1.349 . S
C2392 C2404 1.349 . S
C2393 C2391 1.327 . S
C2393 C2409 1.429 . S
C2393 H2415 0.950 . S
C2394 H2390 0.949 . S
C2394 C2402 1.574 . S
C2394 C2410 1.368 . S
H2395 C2403 0.950 . S
H2396 C2401 0.950 . S
H2397 C2402 0.949 . S
H2398 C2404 0.950 . S
H2399 C2405 0.950 . S
H2400 C2406 0.949 . S
C2401 H2396 0.950 . S
C2401 C2403 1.327 . S
C2401 C2407 1.429 . S
C2402 C2394 1.574 . S
C2402 H2397 0.949 . S
C2402 C2408 1.368 . S
C2403 C2387 1.349 . S
C2403 H2395 0.950 . S
C2403 C2401 1.327 . S
C2404 C2392 1.349 . S
C2404 H2398 0.950 . S
C2404 C2405 1.327 . S
C2405 H2399 0.950 . S
C2405 C2404 1.327 . S
C2405 C2409 1.429 . S
C2406 C2389 1.574 . S
C2406 H2400 0.949 . S
C2406 C2410 1.368 . S
C2407 C2388 1.429 . S
C2407 C2401 1.429 . S
C2407 C2408 1.523 . S
C2408 C2389 1.368 . S
C2408 C2402 1.368 . S
C2408 C2407 1.523 . S
C2409 C2393 1.429 . S
C2409 C2405 1.429 . S
C2409 C2410 1.523 . S
C2410 C2394 1.368 . S
C2410 C2406 1.368 . S
C2410 C2409 1.523 . S
H2411 C2386 0.950 . S
H2412 C2388 0.950 . S
H2413 C2389 0.949 . S
H2414 C2391 0.950 . S
H2415 C2393 0.950 . S
C2416 C2417 1.349 . S
C2416 C2418 1.327 . S
C2416 H2441 0.950 . S
C2417 C2416 1.349 . S
C2417 C2433 1.349 . S
C2418 C2416 1.327 . S
C2418 C2437 1.429 . S
C2418 H2442 0.950 . S
C2419 C2436 1.574 . S
C2419 C2438 1.368 . S
C2419 H2443 0.949 . S
H2420 C2424 0.949 . S
C2421 C2422 1.349 . S
C2421 C2423 1.327 . S
C2421 H2444 0.950 . S
C2422 C2421 1.349 . S
C2422 C2434 1.349 . S
C2423 C2421 1.327 . S
C2423 C2439 1.429 . S
C2423 H2445 0.950 . S
C2424 H2420 0.949 . S
C2424 C2432 1.574 . S
C2424 C2440 1.368 . S
H2425 C2433 0.950 . S
H2426 C2431 0.950 . S
H2427 C2432 0.949 . S
H2428 C2434 0.950 . S
H2429 C2435 0.950 . S
H2430 C2436 0.949 . S
C2431 H2426 0.950 . S
C2431 C2433 1.327 . S
C2431 C2437 1.429 . S
C2432 C2424 1.574 . S
C2432 H2427 0.949 . S
C2432 C2438 1.368 . S
C2433 C2417 1.349 . S
C2433 H2425 0.950 . S
C2433 C2431 1.327 . S
C2434 C2422 1.349 . S
C2434 H2428 0.950 . S
C2434 C2435 1.327 . S
C2435 H2429 0.950 . S
C2435 C2434 1.327 . S
C2435 C2439 1.429 . S
C2436 C2419 1.574 . S
C2436 H2430 0.949 . S
C2436 C2440 1.368 . S
C2437 C2418 1.429 . S
C2437 C2431 1.429 . S
C2437 C2438 1.523 . S
C2438 C2419 1.368 . S
C2438 C2432 1.368 . S
C2438 C2437 1.523 . S
C2439 C2423 1.429 . S
C2439 C2435 1.429 . S
C2439 C2440 1.523 . S
C2440 C2424 1.368 . S
C2440 C2436 1.368 . S
C2440 C2439 1.523 . S
H2441 C2416 0.950 . S
H2442 C2418 0.950 . S
H2443 C2419 0.949 . S
H2444 C2421 0.950 . S
H2445 C2423 0.950 . S
C2446 C2447 1.349 . S
C2446 C2448 1.327 . S
C2446 H2471 0.950 . S
C2447 C2446 1.349 . S
C2447 C2463 1.349 . S
C2448 C2446 1.327 . S
C2448 C2467 1.429 . S
C2448 H2472 0.950 . S
C2449 C2466 1.574 . S
C2449 C2468 1.368 . S
C2449 H2473 0.949 . S
H2450 C2454 0.949 . S
C2451 C2452 1.349 . S
C2451 C2453 1.327 . S
C2451 H2474 0.950 . S
C2452 C2451 1.349 . S
C2452 C2464 1.349 . S
C2453 C2451 1.327 . S
C2453 C2469 1.429 . S
C2453 H2475 0.950 . S
C2454 H2450 0.949 . S
C2454 C2462 1.574 . S
C2454 C2470 1.368 . S
H2455 C2463 0.950 . S
H2456 C2461 0.950 . S
H2457 C2462 0.949 . S
H2458 C2464 0.950 . S
H2459 C2465 0.950 . S
H2460 C2466 0.949 . S
C2461 H2456 0.950 . S
C2461 C2463 1.327 . S
C2461 C2467 1.429 . S
C2462 C2454 1.574 . S
C2462 H2457 0.949 . S
C2462 C2468 1.368 . S
C2463 C2447 1.349 . S
C2463 H2455 0.950 . S
C2463 C2461 1.327 . S
C2464 C2452 1.349 . S
C2464 H2458 0.950 . S
C2464 C2465 1.327 . S
C2465 H2459 0.950 . S
C2465 C2464 1.327 . S
C2465 C2469 1.429 . S
C2466 C2449 1.574 . S
C2466 H2460 0.949 . S
C2466 C2470 1.368 . S
C2467 C2448 1.429 . S
C2467 C2461 1.429 . S
C2467 C2468 1.523 . S
C2468 C2449 1.368 . S
C2468 C2462 1.368 . S
C2468 C2467 1.523 . S
C2469 C2453 1.429 . S
C2469 C2465 1.429 . S
C2469 C2470 1.523 . S
C2470 C2454 1.368 . S
C2470 C2466 1.368 . S
C2470 C2469 1.523 . S
H2471 C2446 0.950 . S
H2472 C2448 0.950 . S
H2473 C2449 0.949 . S
H2474 C2451 0.950 . S
H2475 C2453 0.950 . S
C2476 C2477 1.349 . S
C2476 C2478 1.327 . S
C2476 H2501 0.950 . S
C2477 C2476 1.349 . S
C2477 C2493 1.349 . S
C2478 C2476 1.327 . S
C2478 C2497 1.429 . S
C2478 H2502 0.950 . S
C2479 C2496 1.574 . S
C2479 C2498 1.368 . S
C2479 H2503 0.949 . S
H2480 C2484 0.949 . S
C2481 C2482 1.317 1_556 S
C2481 C2483 1.327 . S
C2481 H2504 0.950 . S
C2482 C2481 1.317 1_554 S
C2482 C2494 1.369 . S
C2483 C2481 1.327 . S
C2483 C2499 1.429 . S
C2483 H2505 0.950 . S
C2484 H2480 0.949 . S
C2484 C2492 1.574 . S
C2484 C2500 1.368 . S
H2485 C2493 0.950 1_655 S
H2486 C2491 0.920 1_655 S
H2487 C2492 0.949 . S
H2488 C2494 0.950 . S
H2489 C2495 0.950 1_554 S
H2490 C2496 0.949 . S
C2491 H2486 0.920 1_455 S
C2491 C2493 1.327 . S
C2491 C2497 1.429 . S
C2492 C2484 1.574 . S
C2492 H2487 0.949 . S
C2492 C2498 1.368 . S
C2493 C2477 1.349 . S
C2493 H2485 0.950 1_455 S
C2493 C2491 1.327 . S
C2494 C2482 1.369 . S
C2494 H2488 0.950 . S
C2494 C2495 1.327 1_554 S
C2495 H2489 0.950 1_556 S
C2495 C2494 1.327 1_556 S
C2495 C2499 1.429 . S
C2496 C2479 1.574 . S
C2496 H2490 0.949 . S
C2496 C2500 1.368 . S
C2497 C2478 1.429 . S
C2497 C2491 1.429 . S
C2497 C2498 1.523 . S
C2498 C2479 1.368 . S
C2498 C2492 1.368 . S
C2498 C2497 1.523 . S
C2499 C2483 1.429 . S
C2499 C2495 1.429 . S
C2499 C2500 1.523 . S
C2500 C2484 1.368 . S
C2500 C2496 1.368 . S
C2500 C2499 1.523 . S
H2501 C2476 0.950 . S
H2502 C2478 0.950 . S
H2503 C2479 0.949 . S
H2504 C2481 0.950 . S
H2505 C2483 0.950 . S
C2506 C2507 1.349 . S
C2506 C2508 1.327 1_455 S
C2506 H2531 0.950 . S
C2507 C2506 1.349 . S
C2507 C2523 1.349 . S
C2508 C2506 1.327 1_655 S
C2508 C2527 1.429 . S
C2508 H2532 0.950 . S
C2509 C2526 1.574 . S
C2509 C2528 1.368 . S
C2509 H2533 0.949 . S
H2510 C2514 0.949 . S
C2511 C2512 1.349 . S
C2511 C2513 1.327 . S
C2511 H2534 0.950 . S
C2512 C2511 1.349 . S
C2512 C2524 1.349 . S
C2513 C2511 1.327 . S
C2513 C2529 1.429 . S
C2513 H2535 0.950 . S
C2514 H2510 0.949 . S
C2514 C2522 1.574 . S
C2514 C2530 1.368 . S
H2515 C2523 0.950 . S
H2516 C2521 0.950 . S
H2517 C2522 0.949 . S
H2518 C2524 0.950 . S
H2519 C2525 0.950 . S
H2520 C2526 0.949 . S
C2521 H2516 0.950 . S
C2521 C2523 1.327 1_655 S
C2521 C2527 1.429 . S
C2522 C2514 1.574 . S
C2522 H2517 0.949 . S
C2522 C2528 1.368 . S
C2523 C2507 1.349 . S
C2523 H2515 0.950 . S
C2523 C2521 1.327 1_455 S
C2524 C2512 1.349 . S
C2524 H2518 0.950 . S
C2524 C2525 1.327 . S
C2525 H2519 0.950 . S
C2525 C2524 1.327 . S
C2525 C2529 1.429 . S
C2526 C2509 1.574 . S
C2526 H2520 0.949 . S
C2526 C2530 1.368 . S
C2527 C2508 1.429 . S
C2527 C2521 1.429 . S
C2527 C2528 1.523 . S
C2528 C2509 1.368 . S
C2528 C2522 1.368 . S
C2528 C2527 1.523 . S
C2529 C2513 1.429 . S
C2529 C2525 1.429 . S
C2529 C2530 1.523 . S
C2530 C2514 1.368 . S
C2530 C2526 1.368 . S
C2530 C2529 1.523 . S
H2531 C2506 0.950 . S
H2532 C2508 0.950 . S
H2533 C2509 0.949 . S
H2534 C2511 0.950 . S
H2535 C2513 0.950 . S
C2536 C2537 1.349 . S
C2536 C2538 1.327 . S
C2536 H2561 0.950 . S
C2537 C2536 1.349 . S
C2537 C2553 1.349 . S
C2538 C2536 1.327 . S
C2538 C2557 1.429 . S
C2538 H2562 0.950 . S
C2539 C2556 1.574 . S
C2539 C2558 1.368 . S
C2539 H2563 0.949 . S
H2540 C2544 0.949 . S
C2541 C2542 1.349 . S
C2541 C2543 1.327 . S
C2541 H2564 0.950 . S
C2542 C2541 1.349 . S
C2542 C2554 1.349 . S
C2543 C2541 1.327 . S
C2543 C2559 1.429 . S
C2543 H2565 0.950 . S
C2544 H2540 0.949 . S
C2544 C2552 1.574 . S
C2544 C2560 1.368 . S
H2545 C2553 0.950 . S
H2546 C2551 0.950 . S
H2547 C2552 0.949 . S
H2548 C2554 0.950 . S
H2549 C2555 0.950 . S
H2550 C2556 0.949 . S
C2551 H2546 0.950 . S
C2551 C2553 1.327 . S
C2551 C2557 1.429 . S
C2552 C2544 1.574 . S
C2552 H2547 0.949 . S
C2552 C2558 1.368 . S
C2553 C2537 1.349 . S
C2553 H2545 0.950 . S
C2553 C2551 1.327 . S
C2554 C2542 1.349 . S
C2554 H2548 0.950 . S
C2554 C2555 1.327 . S
C2555 H2549 0.950 . S
C2555 C2554 1.327 . S
C2555 C2559 1.429 . S
C2556 C2539 1.574 . S
C2556 H2550 0.949 . S
C2556 C2560 1.368 . S
C2557 C2538 1.429 . S
C2557 C2551 1.429 . S
C2557 C2558 1.523 . S
C2558 C2539 1.368 . S
C2558 C2552 1.368 . S
C2558 C2557 1.523 . S
C2559 C2543 1.429 . S
C2559 C2555 1.429 . S
C2559 C2560 1.523 . S
C2560 C2544 1.368 . S
C2560 C2556 1.368 . S
C2560 C2559 1.523 . S
H2561 C2536 0.950 . S
H2562 C2538 0.950 . S
H2563 C2539 0.949 . S
H2564 C2541 0.950 . S
H2565 C2543 0.950 . S
C2566 C2567 1.349 . S
C2566 C2568 1.327 . S
C2566 H2591 0.950 . S
C2567 C2566 1.349 . S
C2567 C2583 1.349 . S
C2568 C2566 1.327 . S
C2568 C2587 1.429 . S
C2568 H2592 1.001 . S
C2569 C2586 1.574 . S
C2569 C2588 1.368 . S
C2569 H2593 0.949 . S
H2570 C2574 0.949 . S
C2571 C2572 1.349 . S
C2571 C2573 1.327 . S
C2571 H2594 0.950 . S
C2572 C2571 1.349 . S
C2572 C2584 1.349 . S
C2573 C2571 1.327 . S
C2573 C2589 1.429 . S
C2573 H2595 0.950 . S
C2574 H2570 0.949 . S
C2574 C2582 1.574 . S
C2574 C2590 1.368 . S
H2575 C2583 0.950 . S
H2576 C2581 0.950 . S
H2577 C2582 0.949 . S
H2578 C2584 0.950 . S
H2579 C2585 0.950 . S
H2580 C2586 0.949 . S
C2581 H2576 0.950 . S
C2581 C2583 1.327 . S
C2581 C2587 1.429 . S
C2582 C2574 1.574 . S
C2582 H2577 0.949 . S
C2582 C2588 1.368 . S
C2583 C2567 1.349 . S
C2583 H2575 0.950 . S
C2583 C2581 1.327 . S
C2584 C2572 1.349 . S
C2584 H2578 0.950 . S
C2584 C2585 1.327 . S
C2585 H2579 0.950 . S
C2585 C2584 1.327 . S
C2585 C2589 1.429 . S
C2586 C2569 1.574 . S
C2586 H2580 0.949 . S
C2586 C2590 1.368 . S
C2587 C2568 1.429 . S
C2587 C2581 1.429 . S
C2587 C2588 1.523 1_455 S
C2588 C2569 1.368 . S
C2588 C2582 1.368 . S
C2588 C2587 1.523 1_655 S
C2589 C2573 1.429 . S
C2589 C2585 1.429 . S
C2589 C2590 1.523 . S
C2590 C2574 1.368 . S
C2590 C2586 1.368 . S
C2590 C2589 1.523 . S
H2591 C2566 0.950 . S
H2592 C2568 1.001 . S
H2593 C2569 0.949 . S
H2594 C2571 0.950 . S
H2595 C2573 0.950 . S
C2596 C2597 1.349 . S
C2596 C2598 1.327 . S
C2596 H2621 0.950 . S
C2597 C2596 1.349 . S
C2597 C2613 1.349 1_655 S
C2598 C2596 1.327 . S
C2598 C2617 1.429 1_655 S
C2598 H2622 0.950 . S
C2599 C2616 1.574 . S
C2599 C2618 1.368 . S
C2599 H2623 0.949 . S
H2600 C2604 0.941 1_655 S
C2601 C2602 1.349 . S
C2601 C2603 1.327 . S
C2601 H2624 0.950 . S
C2602 C2601 1.349 . S
C2602 C2614 1.349 . S
C2603 C2601 1.327 . S
C2603 C2619 1.429 . S
C2603 H2625 0.950 . S
C2604 H2600 0.941 1_455 S
C2604 C2612 1.561 1_455 S
C2604 C2620 1.391 . S
H2605 C2613 0.950 . S
H2606 C2611 0.950 . S
H2607 C2612 0.949 . S
H2608 C2614 0.950 . S
H2609 C2615 0.919 1_655 S
H2610 C2616 0.949 . S
C2611 H2606 0.950 . S
C2611 C2613 1.327 . S
C2611 C2617 1.429 . S
C2612 C2604 1.561 1_655 S
C2612 H2607 0.949 . S
C2612 C2618 1.368 1_655 S
C2613 C2597 1.349 1_455 S
C2613 H2605 0.950 . S
C2613 C2611 1.327 . S
C2614 C2602 1.349 . S
C2614 H2608 0.950 . S
C2614 C2615 1.327 . S
C2615 H2609 0.919 1_455 S
C2615 C2614 1.327 . S
C2615 C2619 1.429 . S
C2616 C2599 1.574 . S
C2616 H2610 0.949 . S
C2616 C2620 1.368 . S
C2617 C2598 1.429 1_455 S
C2617 C2611 1.429 . S
C2617 C2618 1.523 . S
C2618 C2599 1.368 . S
C2618 C2612 1.368 1_455 S
C2618 C2617 1.523 . S
C2619 C2603 1.429 . S
C2619 C2615 1.429 . S
C2619 C2620 1.523 . S
C2620 C2604 1.391 . S
C2620 C2616 1.368 . S
C2620 C2619 1.523 . S
H2621 C2596 0.950 . S
H2622 C2598 0.950 . S
H2623 C2599 0.949 . S
H2624 C2601 0.950 . S
H2625 C2603 0.950 . S
C2626 C2627 1.349 . S
C2626 C2628 1.327 . S
C2626 H2651 0.950 . S
C2627 C2626 1.349 . S
C2627 C2643 1.349 . S
C2628 C2626 1.327 . S
C2628 C2647 1.429 . S
C2628 H2652 0.950 . S
C2629 C2646 1.574 . S
C2629 C2648 1.368 . S
C2629 H2653 0.949 . S
H2630 C2634 0.949 . S
C2631 C2632 1.349 . S
C2631 C2633 1.327 . S
C2631 H2654 0.950 . S
C2632 C2631 1.349 . S
C2632 C2644 1.349 . S
C2633 C2631 1.327 . S
C2633 C2649 1.429 . S
C2633 H2655 0.950 . S
C2634 H2630 0.949 . S
C2634 C2642 1.574 . S
C2634 C2650 1.368 . S
H2635 C2643 0.950 . S
H2636 C2641 0.950 . S
H2637 C2642 0.949 . S
H2638 C2644 0.950 . S
H2639 C2645 0.950 . S
H2640 C2646 0.949 . S
C2641 H2636 0.950 . S
C2641 C2643 1.327 . S
C2641 C2647 1.429 . S
C2642 C2634 1.574 . S
C2642 H2637 0.949 . S
C2642 C2648 1.368 . S
C2643 C2627 1.349 . S
C2643 H2635 0.950 . S
C2643 C2641 1.327 . S
C2644 C2632 1.349 . S
C2644 H2638 0.950 . S
C2644 C2645 1.327 . S
C2645 H2639 0.950 . S
C2645 C2644 1.327 . S
C2645 C2649 1.429 . S
C2646 C2629 1.574 . S
C2646 H2640 0.949 . S
C2646 C2650 1.368 . S
C2647 C2628 1.429 . S
C2647 C2641 1.429 . S
C2647 C2648 1.523 . S
C2648 C2629 1.368 . S
C2648 C2642 1.368 . S
C2648 C2647 1.523 . S
C2649 C2633 1.429 . S
C2649 C2645 1.429 . S
C2649 C2650 1.523 . S
C2650 C2634 1.368 . S
C2650 C2646 1.368 . S
C2650 C2649 1.523 . S
H2651 C2626 0.950 . S
H2652 C2628 0.950 . S
H2653 C2629 0.949 . S
H2654 C2631 0.950 . S
H2655 C2633 0.950 . S
C2656 C2657 1.349 . S
C2656 C2658 1.327 . S
C2656 H2681 0.950 . S
C2657 C2656 1.349 . S
C2657 C2673 1.349 . S
C2658 C2656 1.327 . S
C2658 C2677 1.429 . S
C2658 H2682 0.950 . S
C2659 C2676 1.574 . S
C2659 C2678 1.368 . S
C2659 H2683 0.949 . S
H2660 C2664 0.949 . S
C2661 C2662 1.349 . S
C2661 C2663 1.327 . S
C2661 H2684 0.950 . S
C2662 C2661 1.349 . S
C2662 C2674 1.349 . S
C2663 C2661 1.327 . S
C2663 C2679 1.429 . S
C2663 H2685 0.950 . S
C2664 H2660 0.949 . S
C2664 C2672 1.574 . S
C2664 C2680 1.368 . S
H2665 C2673 0.950 . S
H2666 C2671 0.950 . S
H2667 C2672 0.949 . S
H2668 C2674 0.950 . S
H2669 C2675 0.950 . S
H2670 C2676 0.949 . S
C2671 H2666 0.950 . S
C2671 C2673 1.327 . S
C2671 C2677 1.429 . S
C2672 C2664 1.574 . S
C2672 H2667 0.949 . S
C2672 C2678 1.368 . S
C2673 C2657 1.349 . S
C2673 H2665 0.950 . S
C2673 C2671 1.327 . S
C2674 C2662 1.349 . S
C2674 H2668 0.950 . S
C2674 C2675 1.327 . S
C2675 H2669 0.950 . S
C2675 C2674 1.327 . S
C2675 C2679 1.429 . S
C2676 C2659 1.574 . S
C2676 H2670 0.949 . S
C2676 C2680 1.368 . S
C2677 C2658 1.429 . S
C2677 C2671 1.429 . S
C2677 C2678 1.523 . S
C2678 C2659 1.368 . S
C2678 C2672 1.368 . S
C2678 C2677 1.523 . S
C2679 C2663 1.429 . S
C2679 C2675 1.429 . S
C2679 C2680 1.523 . S
C2680 C2664 1.368 . S
C2680 C2676 1.368 . S
C2680 C2679 1.523 . S
H2681 C2656 0.950 . S
H2682 C2658 0.950 . S
H2683 C2659 0.949 . S
H2684 C2661 0.950 . S
H2685 C2663 0.950 . S
C2686 C2687 1.349 . S
C2686 C2688 1.327 . S
C2686 H2711 0.950 . S
C2687 C2686 1.349 . S
C2687 C2703 1.349 . S
C2688 C2686 1.327 . S
C2688 C2707 1.429 . S
C2688 H2712 0.950 . S
C2689 C2706 1.574 . S
C2689 C2708 1.368 . S
C2689 H2713 0.949 . S
H2690 C2694 0.949 . S
C2691 C2692 1.349 . S
C2691 C2693 1.327 . S
C2691 H2714 0.950 . S
C2692 C2691 1.349 . S
C2692 C2704 1.349 . S
C2693 C2691 1.327 . S
C2693 C2709 1.429 . S
C2693 H2715 0.950 . S
C2694 H2690 0.949 . S
C2694 C2702 1.574 . S
C2694 C2710 1.368 . S
H2695 C2703 0.950 . S
H2696 C2701 0.950 . S
H2697 C2702 0.949 . S
H2698 C2704 0.950 . S
H2699 C2705 0.950 . S
H2700 C2706 0.949 . S
C2701 H2696 0.950 . S
C2701 C2703 1.327 . S
C2701 C2707 1.429 . S
C2702 C2694 1.574 . S
C2702 H2697 0.949 . S
C2702 C2708 1.368 . S
C2703 C2687 1.349 . S
C2703 H2695 0.950 . S
C2703 C2701 1.327 . S
C2704 C2692 1.349 . S
C2704 H2698 0.950 . S
C2704 C2705 1.327 . S
C2705 H2699 0.950 . S
C2705 C2704 1.327 . S
C2705 C2709 1.429 . S
C2706 C2689 1.574 . S
C2706 H2700 0.949 . S
C2706 C2710 1.368 . S
C2707 C2688 1.429 . S
C2707 C2701 1.429 . S
C2707 C2708 1.523 . S
C2708 C2689 1.368 . S
C2708 C2702 1.368 . S
C2708 C2707 1.523 . S
C2709 C2693 1.429 . S
C2709 C2705 1.429 . S
C2709 C2710 1.523 . S
C2710 C2694 1.368 . S
C2710 C2706 1.368 . S
C2710 C2709 1.523 . S
H2711 C2686 0.950 . S
H2712 C2688 0.950 . S
H2713 C2689 0.949 . S
H2714 C2691 0.950 . S
H2715 C2693 0.950 . S
C2716 C2717 1.349 . S
C2716 C2718 1.327 . S
C2716 H2741 0.950 . S
C2717 C2716 1.349 . S
C2717 C2733 1.349 . S
C2718 C2716 1.327 . S
C2718 C2737 1.429 . S
C2718 H2742 0.950 . S
C2719 C2736 1.574 . S
C2719 C2738 1.368 . S
C2719 H2743 0.949 . S
H2720 C2724 0.949 . S
C2721 C2722 1.349 . S
C2721 C2723 1.327 . S
C2721 H2744 0.950 . S
C2722 C2721 1.349 . S
C2722 C2734 1.349 . S
C2723 C2721 1.327 . S
C2723 C2739 1.429 . S
C2723 H2745 0.950 . S
C2724 H2720 0.949 . S
C2724 C2732 1.574 . S
C2724 C2740 1.368 . S
H2725 C2733 0.950 . S
H2726 C2731 0.950 . S
H2727 C2732 0.949 . S
H2728 C2734 0.950 . S
H2729 C2735 0.950 . S
H2730 C2736 0.949 . S
C2731 H2726 0.950 . S
C2731 C2733 1.327 . S
C2731 C2737 1.429 . S
C2732 C2724 1.574 . S
C2732 H2727 0.949 . S
C2732 C2738 1.368 . S
C2733 C2717 1.349 . S
C2733 H2725 0.950 . S
C2733 C2731 1.327 . S
C2734 C2722 1.349 . S
C2734 H2728 0.950 . S
C2734 C2735 1.327 . S
C2735 H2729 0.950 . S
C2735 C2734 1.327 . S
C2735 C2739 1.429 . S
C2736 C2719 1.574 . S
C2736 H2730 0.949 . S
C2736 C2740 1.368 . S
C2737 C2718 1.429 . S
C2737 C2731 1.429 . S
C2737 C2738 1.523 . S
C2738 C2719 1.368 . S
C2738 C2732 1.368 . S
C2738 C2737 1.523 . S
C2739 C2723 1.429 . S
C2739 C2735 1.429 . S
C2739 C2740 1.523 . S
C2740 C2724 1.368 . S
C2740 C2736 1.368 . S
C2740 C2739 1.523 . S
H2741 C2716 0.950 . S
H2742 C2718 0.950 . S
H2743 C2719 0.949 . S
H2744 C2721 0.950 . S
H2745 C2723 0.950 . S
C2746 C2747 1.349 . S
C2746 C2748 1.327 . S
C2746 H2771 0.950 . S
C2747 C2746 1.349 . S
C2747 C2763 1.349 . S
C2748 C2746 1.327 . S
C2748 C2767 1.429 . S
C2748 H2772 0.950 . S
C2749 C2766 1.574 . S
C2749 C2768 1.368 . S
C2749 H2773 0.949 . S
H2750 C2754 0.949 . S
C2751 C2752 1.349 . S
C2751 C2753 1.327 . S
C2751 H2774 0.950 . S
C2752 C2751 1.349 . S
C2752 C2764 1.349 . S
C2753 C2751 1.327 . S
C2753 C2769 1.429 . S
C2753 H2775 0.950 . S
C2754 H2750 0.949 . S
C2754 C2762 1.574 . S
C2754 C2770 1.368 . S
H2755 C2763 0.950 . S
H2756 C2761 0.950 . S
H2757 C2762 0.949 . S
H2758 C2764 0.950 . S
H2759 C2765 0.950 . S
H2760 C2766 0.949 . S
C2761 H2756 0.950 . S
C2761 C2763 1.327 . S
C2761 C2767 1.429 . S
C2762 C2754 1.574 . S
C2762 H2757 0.949 . S
C2762 C2768 1.368 . S
C2763 C2747 1.349 . S
C2763 H2755 0.950 . S
C2763 C2761 1.327 . S
C2764 C2752 1.349 . S
C2764 H2758 0.950 . S
C2764 C2765 1.327 . S
C2765 H2759 0.950 . S
C2765 C2764 1.327 . S
C2765 C2769 1.429 . S
C2766 C2749 1.574 . S
C2766 H2760 0.949 . S
C2766 C2770 1.368 . S
C2767 C2748 1.429 . S
C2767 C2761 1.429 . S
C2767 C2768 1.523 . S
C2768 C2749 1.368 . S
C2768 C2762 1.368 . S
C2768 C2767 1.523 . S
C2769 C2753 1.429 . S
C2769 C2765 1.429 . S
C2769 C2770 1.523 . S
C2770 C2754 1.368 . S
C2770 C2766 1.368 . S
C2770 C2769 1.523 . S
H2771 C2746 0.950 . S
H2772 C2748 0.950 . S
H2773 C2749 0.949 . S
H2774 C2751 0.950 . S
H2775 C2753 0.950 . S
C2776 C2777 1.349 . S
C2776 C2778 1.327 . S
C2776 H2801 0.950 . S
C2777 C2776 1.349 . S
C2777 C2793 1.349 . S
C2778 C2776 1.327 . S
C2778 C2797 1.429 . S
C2778 H2802 0.950 . S
C2779 C2796 1.574 . S
C2779 C2798 1.368 . S
C2779 H2803 0.949 . S
H2780 C2784 0.949 . S
C2781 C2782 1.349 . S
C2781 C2783 1.327 . S
C2781 H2804 0.950 . S
C2782 C2781 1.349 . S
C2782 C2794 1.349 . S
C2783 C2781 1.327 . S
C2783 C2799 1.429 . S
C2783 H2805 0.950 . S
C2784 H2780 0.949 . S
C2784 C2792 1.574 . S
C2784 C2800 1.368 . S
H2785 C2793 0.950 . S
H2786 C2791 0.950 . S
H2787 C2792 0.949 . S
H2788 C2794 0.950 . S
H2789 C2795 0.950 . S
H2790 C2796 0.949 . S
C2791 H2786 0.950 . S
C2791 C2793 1.327 . S
C2791 C2797 1.429 . S
C2792 C2784 1.574 . S
C2792 H2787 0.949 . S
C2792 C2798 1.368 . S
C2793 C2777 1.349 . S
C2793 H2785 0.950 . S
C2793 C2791 1.327 . S
C2794 C2782 1.349 . S
C2794 H2788 0.950 . S
C2794 C2795 1.327 . S
C2795 H2789 0.950 . S
C2795 C2794 1.327 . S
C2795 C2799 1.429 . S
C2796 C2779 1.574 . S
C2796 H2790 0.949 . S
C2796 C2800 1.368 . S
C2797 C2778 1.429 . S
C2797 C2791 1.429 . S
C2797 C2798 1.523 . S
C2798 C2779 1.368 . S
C2798 C2792 1.368 . S
C2798 C2797 1.523 . S
C2799 C2783 1.429 . S
C2799 C2795 1.429 . S
C2799 C2800 1.523 . S
C2800 C2784 1.368 . S
C2800 C2796 1.368 . S
C2800 C2799 1.523 . S
H2801 C2776 0.950 . S
H2802 C2778 0.950 . S
H2803 C2779 0.949 . S
H2804 C2781 0.950 . S
H2805 C2783 0.950 . S
C2806 C2807 1.349 . S
C2806 C2808 1.327 . S
C2806 H2831 0.950 . S
C2807 C2806 1.349 . S
C2807 C2823 1.349 . S
C2808 C2806 1.327 . S
C2808 C2827 1.429 . S
C2808 H2832 0.950 . S
C2809 C2826 1.574 . S
C2809 C2828 1.368 . S
C2809 H2833 0.949 . S
H2810 C2814 0.949 . S
C2811 C2812 1.349 . S
C2811 C2813 1.327 . S
C2811 H2834 0.950 . S
C2812 C2811 1.349 . S
C2812 C2824 1.349 . S
C2813 C2811 1.327 . S
C2813 C2829 1.429 . S
C2813 H2835 0.950 . S
C2814 H2810 0.949 . S
C2814 C2822 1.574 . S
C2814 C2830 1.368 . S
H2815 C2823 0.950 . S
H2816 C2821 0.950 . S
H2817 C2822 0.949 . S
H2818 C2824 0.950 . S
H2819 C2825 0.950 . S
H2820 C2826 0.949 . S
C2821 H2816 0.950 . S
C2821 C2823 1.327 . S
C2821 C2827 1.429 . S
C2822 C2814 1.574 . S
C2822 H2817 0.949 . S
C2822 C2828 1.368 . S
C2823 C2807 1.349 . S
C2823 H2815 0.950 . S
C2823 C2821 1.327 . S
C2824 C2812 1.349 . S
C2824 H2818 0.950 . S
C2824 C2825 1.327 . S
C2825 H2819 0.950 . S
C2825 C2824 1.327 . S
C2825 C2829 1.429 . S
C2826 C2809 1.574 . S
C2826 H2820 0.949 . S
C2826 C2830 1.368 . S
C2827 C2808 1.429 . S
C2827 C2821 1.429 . S
C2827 C2828 1.523 . S
C2828 C2809 1.368 . S
C2828 C2822 1.368 . S
C2828 C2827 1.523 . S
C2829 C2813 1.429 . S
C2829 C2825 1.429 . S
C2829 C2830 1.523 . S
C2830 C2814 1.368 . S
C2830 C2826 1.368 . S
C2830 C2829 1.523 . S
H2831 C2806 0.950 . S
H2832 C2808 0.950 . S
H2833 C2809 0.949 . S
H2834 C2811 0.950 . S
H2835 C2813 0.950 . S
C2836 C2837 1.349 . S
C2836 C2838 1.327 . S
C2836 H2861 0.950 . S
C2837 C2836 1.349 . S
C2837 C2853 1.349 . S
C2838 C2836 1.327 . S
C2838 C2857 1.429 . S
C2838 H2862 0.950 . S
C2839 C2856 1.574 . S
C2839 C2858 1.368 . S
C2839 H2863 0.949 . S
H2840 C2844 0.949 . S
C2841 C2842 1.349 . S
C2841 C2843 1.327 . S
C2841 H2864 0.950 . S
C2842 C2841 1.349 . S
C2842 C2854 1.349 . S
C2843 C2841 1.327 . S
C2843 C2859 1.429 . S
C2843 H2865 0.950 . S
C2844 H2840 0.949 . S
C2844 C2852 1.574 . S
C2844 C2860 1.368 . S
H2845 C2853 0.950 . S
H2846 C2851 0.950 . S
H2847 C2852 0.949 . S
H2848 C2854 0.950 . S
H2849 C2855 0.950 . S
H2850 C2856 0.949 . S
C2851 H2846 0.950 . S
C2851 C2853 1.327 . S
C2851 C2857 1.429 . S
C2852 C2844 1.574 . S
C2852 H2847 0.949 . S
C2852 C2858 1.368 . S
C2853 C2837 1.349 . S
C2853 H2845 0.950 . S
C2853 C2851 1.327 . S
C2854 C2842 1.349 . S
C2854 H2848 0.950 . S
C2854 C2855 1.327 . S
C2855 H2849 0.950 . S
C2855 C2854 1.327 . S
C2855 C2859 1.429 . S
C2856 C2839 1.574 . S
C2856 H2850 0.949 . S
C2856 C2860 1.368 . S
C2857 C2838 1.429 . S
C2857 C2851 1.429 . S
C2857 C2858 1.523 . S
C2858 C2839 1.368 . S
C2858 C2852 1.368 . S
C2858 C2857 1.523 . S
C2859 C2843 1.429 . S
C2859 C2855 1.429 . S
C2859 C2860 1.523 . S
C2860 C2844 1.368 . S
C2860 C2856 1.368 . S
C2860 C2859 1.523 . S
H2861 C2836 0.950 . S
H2862 C2838 0.950 . S
H2863 C2839 0.949 . S
H2864 C2841 0.950 . S
H2865 C2843 0.950 . S
C2866 C2867 1.349 . S
C2866 C2868 1.327 . S
C2866 H2891 0.950 . S
C2867 C2866 1.349 . S
C2867 C2883 1.349 . S
C2868 C2866 1.327 . S
C2868 C2887 1.429 . S
C2868 H2892 0.950 . S
C2869 C2886 1.574 . S
C2869 C2888 1.368 . S
C2869 H2893 0.949 . S
H2870 C2874 0.949 . S
C2871 C2872 1.349 . S
C2871 C2873 1.327 . S
C2871 H2894 0.950 . S
C2872 C2871 1.349 . S
C2872 C2884 1.349 . S
C2873 C2871 1.327 . S
C2873 C2889 1.429 . S
C2873 H2895 0.950 . S
C2874 H2870 0.949 . S
C2874 C2882 1.574 . S
C2874 C2890 1.368 . S
H2875 C2883 0.950 . S
H2876 C2881 0.950 . S
H2877 C2882 0.949 . S
H2878 C2884 0.950 . S
H2879 C2885 0.950 . S
H2880 C2886 0.949 . S
C2881 H2876 0.950 . S
C2881 C2883 1.327 . S
C2881 C2887 1.429 . S
C2882 C2874 1.574 . S
C2882 H2877 0.949 . S
C2882 C2888 1.368 . S
C2883 C2867 1.349 . S
C2883 H2875 0.950 . S
C2883 C2881 1.327 . S
C2884 C2872 1.349 . S
C2884 H2878 0.950 . S
C2884 C2885 1.327 . S
C2885 H2879 0.950 . S
C2885 C2884 1.327 . S
C2885 C2889 1.429 . S
C2886 C2869 1.574 . S
C2886 H2880 0.949 . S
C2886 C2890 1.368 . S
C2887 C2868 1.429 . S
C2887 C2881 1.429 . S
C2887 C2888 1.523 . S
C2888 C2869 1.368 . S
C2888 C2882 1.368 . S
C2888 C2887 1.523 . S
C2889 C2873 1.429 . S
C2889 C2885 1.429 . S
C2889 C2890 1.523 . S
C2890 C2874 1.368 . S
C2890 C2886 1.368 . S
C2890 C2889 1.523 . S
H2891 C2866 0.950 . S
H2892 C2868 0.950 . S
H2893 C2869 0.949 . S
H2894 C2871 0.950 . S
H2895 C2873 0.950 . S
C2896 C2897 1.349 . S
C2896 C2898 1.327 . S
C2896 H2921 0.950 . S
C2897 C2896 1.349 . S
C2897 C2913 1.349 . S
C2898 C2896 1.327 . S
C2898 C2917 1.429 . S
C2898 H2922 0.950 . S
C2899 C2916 1.574 . S
C2899 C2918 1.368 . S
C2899 H2923 0.949 . S
H2900 C2904 0.949 . S
C2901 C2902 1.349 . S
C2901 C2903 1.327 . S
C2901 H2924 0.950 . S
C2902 C2901 1.349 . S
C2902 C2914 1.349 . S
C2903 C2901 1.327 . S
C2903 C2919 1.429 . S
C2903 H2925 0.950 . S
C2904 H2900 0.949 . S
C2904 C2912 1.574 . S
C2904 C2920 1.368 . S
H2905 C2913 0.950 . S
H2906 C2911 0.950 . S
H2907 C2912 0.949 . S
H2908 C2914 0.950 . S
H2909 C2915 0.950 . S
H2910 C2916 0.949 . S
C2911 H2906 0.950 . S
C2911 C2913 1.327 . S
C2911 C2917 1.429 . S
C2912 C2904 1.574 . S
C2912 H2907 0.949 . S
C2912 C2918 1.368 . S
C2913 C2897 1.349 . S
C2913 H2905 0.950 . S
C2913 C2911 1.327 . S
C2914 C2902 1.349 . S
C2914 H2908 0.950 . S
C2914 C2915 1.327 . S
C2915 H2909 0.950 . S
C2915 C2914 1.327 . S
C2915 C2919 1.429 . S
C2916 C2899 1.574 . S
C2916 H2910 0.949 . S
C2916 C2920 1.368 . S
C2917 C2898 1.429 . S
C2917 C2911 1.429 . S
C2917 C2918 1.523 . S
C2918 C2899 1.368 . S
C2918 C2912 1.368 . S
C2918 C2917 1.523 . S
C2919 C2903 1.429 . S
C2919 C2915 1.429 . S
C2919 C2920 1.523 . S
C2920 C2904 1.368 . S
C2920 C2916 1.368 . S
C2920 C2919 1.523 . S
H2921 C2896 0.950 . S
H2922 C2898 0.950 . S
H2923 C2899 0.949 . S
H2924 C2901 0.950 . S
H2925 C2903 0.950 . S
C2926 C2927 1.349 . S
C2926 C2928 1.327 . S
C2926 H2951 0.950 . S
C2927 C2926 1.349 . S
C2927 C2943 1.349 . S
C2928 C2926 1.327 . S
C2928 C2947 1.429 . S
C2928 H2952 0.950 . S
C2929 C2946 1.574 . S
C2929 C2948 1.368 . S
C2929 H2953 0.949 . S
H2930 C2934 0.949 . S
C2931 C2932 1.349 . S
C2931 C2933 1.327 . S
C2931 H2954 0.950 . S
C2932 C2931 1.349 . S
C2932 C2944 1.349 . S
C2933 C2931 1.327 . S
C2933 C2949 1.429 . S
C2933 H2955 0.950 . S
C2934 H2930 0.949 . S
C2934 C2942 1.574 . S
C2934 C2950 1.368 . S
H2935 C2943 0.950 . S
H2936 C2941 0.950 . S
H2937 C2942 0.949 . S
H2938 C2944 0.950 . S
H2939 C2945 0.950 . S
H2940 C2946 0.949 . S
C2941 H2936 0.950 . S
C2941 C2943 1.327 . S
C2941 C2947 1.429 . S
C2942 C2934 1.574 . S
C2942 H2937 0.949 . S
C2942 C2948 1.368 . S
C2943 C2927 1.349 . S
C2943 H2935 0.950 . S
C2943 C2941 1.327 . S
C2944 C2932 1.349 . S
C2944 H2938 0.950 . S
C2944 C2945 1.327 . S
C2945 H2939 0.950 . S
C2945 C2944 1.327 . S
C2945 C2949 1.429 . S
C2946 C2929 1.574 . S
C2946 H2940 0.949 . S
C2946 C2950 1.368 . S
C2947 C2928 1.429 . S
C2947 C2941 1.429 . S
C2947 C2948 1.523 . S
C2948 C2929 1.368 . S
C2948 C2942 1.368 . S
C2948 C2947 1.523 . S
C2949 C2933 1.429 . S
C2949 C2945 1.429 . S
C2949 C2950 1.523 . S
C2950 C2934 1.368 . S
C2950 C2946 1.368 . S
C2950 C2949 1.523 . S
H2951 C2926 0.950 . S
H2952 C2928 0.950 . S
H2953 C2929 0.949 . S
H2954 C2931 0.950 . S
H2955 C2933 0.950 . S
C2956 C2957 1.349 . S
C2956 C2958 1.327 . S
C2956 H2981 0.950 . S
C2957 C2956 1.349 . S
C2957 C2973 1.349 . S
C2958 C2956 1.327 . S
C2958 C2977 1.429 . S
C2958 H2982 0.950 . S
C2959 C2976 1.574 . S
C2959 C2978 1.368 . S
C2959 H2983 0.949 . S
H2960 C2964 0.949 . S
C2961 C2962 1.349 . S
C2961 C2963 1.327 . S
C2961 H2984 0.950 . S
C2962 C2961 1.349 . S
C2962 C2974 1.349 . S
C2963 C2961 1.327 . S
C2963 C2979 1.429 . S
C2963 H2985 0.950 . S
C2964 H2960 0.949 . S
C2964 C2972 1.574 . S
C2964 C2980 1.368 . S
H2965 C2973 0.950 . S
H2966 C2971 0.950 . S
H2967 C2972 0.949 . S
H2968 C2974 0.950 . S
H2969 C2975 0.950 . S
H2970 C2976 0.949 . S
C2971 H2966 0.950 . S
C2971 C2973 1.327 . S
C2971 C2977 1.429 . S
C2972 C2964 1.574 . S
C2972 H2967 0.949 . S
C2972 C2978 1.368 . S
C2973 C2957 1.349 . S
C2973 H2965 0.950 . S
C2973 C2971 1.327 . S
C2974 C2962 1.349 . S
C2974 H2968 0.950 . S
C2974 C2975 1.327 . S
C2975 H2969 0.950 . S
C2975 C2974 1.327 . S
C2975 C2979 1.429 . S
C2976 C2959 1.574 . S
C2976 H2970 0.949 . S
C2976 C2980 1.368 . S
C2977 C2958 1.429 . S
C2977 C2971 1.429 . S
C2977 C2978 1.523 . S
C2978 C2959 1.368 . S
C2978 C2972 1.368 . S
C2978 C2977 1.523 . S
C2979 C2963 1.429 . S
C2979 C2975 1.429 . S
C2979 C2980 1.523 . S
C2980 C2964 1.368 . S
C2980 C2976 1.368 . S
C2980 C2979 1.523 . S
H2981 C2956 0.950 . S
H2982 C2958 0.950 . S
H2983 C2959 0.949 . S
H2984 C2961 0.950 . S
H2985 C2963 0.950 . S
C2986 C2987 1.365 . S
C2986 C2988 1.320 1_554 S
C2986 H3011 0.938 1_554 S
C2987 C2986 1.365 . S
C2987 C3003 1.349 . S
C2988 C2986 1.320 1_556 S
C2988 C3007 1.418 1_556 S
C2988 H3012 0.964 . S
C2989 C3006 1.574 . S
C2989 C3008 1.368 . S
C2989 H3013 0.949 . S
H2990 C2994 0.949 . S
C2991 C2992 1.349 . S
C2991 C2993 1.327 1_545 S
C2991 H3014 0.950 . S
C2992 C2991 1.349 . S
C2992 C3004 1.349 1_554 S
C2993 C2991 1.327 1_565 S
C2993 C3009 1.429 . S
C2993 H3015 0.950 . S
C2994 H2990 0.949 . S
C2994 C3002 1.574 . S
C2994 C3010 1.368 1_556 S
H2995 C3003 0.950 . S
H2996 C3001 0.950 . S
H2997 C3002 0.949 . S
H2998 C3004 0.950 . S
H2999 C3005 0.950 . S
H3000 C3006 0.949 . S
C3001 H2996 0.950 . S
C3001 C3003 1.327 . S
C3001 C3007 1.429 . S
C3002 C2994 1.574 . S
C3002 H2997 0.949 . S
C3002 C3008 1.368 1_556 S
C3003 C2987 1.349 . S
C3003 H2995 0.950 . S
C3003 C3001 1.327 . S
C3004 C2992 1.349 1_556 S
C3004 H2998 0.950 . S
C3004 C3005 1.327 . S
C3005 H2999 0.950 . S
C3005 C3004 1.327 . S
C3005 C3009 1.429 1_546 S
C3006 C2989 1.574 . S
C3006 H3000 0.949 . S
C3006 C3010 1.368 . S
C3007 C2988 1.418 1_554 S
C3007 C3001 1.429 . S
C3007 C3008 1.523 . S
C3008 C2989 1.368 . S
C3008 C3002 1.368 1_554 S
C3008 C3007 1.523 . S
C3009 C2993 1.429 . S
C3009 C3005 1.429 1_564 S
C3009 C3010 1.523 . S
C3010 C2994 1.368 1_554 S
C3010 C3006 1.368 . S
C3010 C3009 1.523 . S
H3011 C2986 0.938 1_556 S
H3012 C2988 0.964 . S
H3013 C2989 0.949 . S
H3014 C2991 0.950 . S
H3015 C2993 0.950 . S
C3016 C3017 1.349 . S
C3016 C3018 1.327 . S
C3016 H3041 0.950 . S
C3017 C3016 1.349 . S
C3017 C3033 1.349 . S
C3018 C3016 1.327 . S
C3018 C3037 1.429 . S
C3018 H3042 0.950 . S
C3019 C3036 1.574 . S
C3019 C3038 1.368 . S
C3019 H3043 0.949 . S
H3020 C3024 0.949 . S
C3021 C3022 1.349 . S
C3021 C3023 1.327 . S
C3021 H3044 0.950 . S
C3022 C3021 1.349 . S
C3022 C3034 1.349 . S
C3023 C3021 1.327 . S
C3023 C3039 1.429 . S
C3023 H3045 0.950 . S
C3024 H3020 0.949 . S
C3024 C3032 1.574 . S
C3024 C3040 1.368 . S
H3025 C3033 0.950 . S
H3026 C3031 0.950 . S
H3027 C3032 0.949 . S
H3028 C3034 0.950 . S
H3029 C3035 0.950 . S
H3030 C3036 0.949 . S
C3031 H3026 0.950 . S
C3031 C3033 1.327 . S
C3031 C3037 1.429 . S
C3032 C3024 1.574 . S
C3032 H3027 0.949 . S
C3032 C3038 1.368 . S
C3033 C3017 1.349 . S
C3033 H3025 0.950 . S
C3033 C3031 1.327 . S
C3034 C3022 1.349 . S
C3034 H3028 0.950 . S
C3034 C3035 1.327 . S
C3035 H3029 0.950 . S
C3035 C3034 1.327 . S
C3035 C3039 1.429 . S
C3036 C3019 1.574 . S
C3036 H3030 0.949 . S
C3036 C3040 1.368 . S
C3037 C3018 1.429 . S
C3037 C3031 1.429 . S
C3037 C3038 1.523 . S
C3038 C3019 1.368 . S
C3038 C3032 1.368 . S
C3038 C3037 1.523 . S
C3039 C3023 1.429 . S
C3039 C3035 1.429 . S
C3039 C3040 1.523 . S
C3040 C3024 1.368 . S
C3040 C3036 1.368 . S
C3040 C3039 1.523 . S
H3041 C3016 0.950 . S
H3042 C3018 0.950 . S
H3043 C3019 0.949 . S
H3044 C3021 0.950 . S
H3045 C3023 0.950 . S
C3046 C3047 1.349 1_556 S
C3046 C3048 1.327 . S
C3046 H3071 0.950 . S
C3047 C3046 1.349 1_554 S
C3047 C3063 1.349 . S
C3048 C3046 1.327 . S
C3048 C3067 1.429 1_556 S
C3048 H3072 0.950 . S
C3049 C3066 1.574 . S
C3049 C3068 1.368 . S
C3049 H3073 0.949 . S
H3050 C3054 0.949 1_556 S
C3051 C3052 1.349 . S
C3051 C3053 1.327 . S
C3051 H3074 0.950 . S
C3052 C3051 1.349 . S
C3052 C3064 1.349 . S
C3053 C3051 1.327 . S
C3053 C3069 1.429 . S
C3053 H3075 0.950 . S
C3054 H3050 0.949 1_554 S
C3054 C3062 1.574 . S
C3054 C3070 1.368 . S
H3055 C3063 0.950 . S
H3056 C3061 0.950 . S
H3057 C3062 0.949 1_556 S
H3058 C3064 0.950 . S
H3059 C3065 0.950 . S
H3060 C3066 0.949 . S
C3061 H3056 0.950 . S
C3061 C3063 1.327 . S
C3061 C3067 1.429 . S
C3062 C3054 1.574 . S
C3062 H3057 0.949 1_554 S
C3062 C3068 1.368 . S
C3063 C3047 1.349 . S
C3063 H3055 0.950 . S
C3063 C3061 1.327 . S
C3064 C3052 1.349 . S
C3064 H3058 0.950 . S
C3064 C3065 1.327 . S
C3065 H3059 0.950 . S
C3065 C3064 1.327 . S
C3065 C3069 1.429 . S
C3066 C3049 1.574 . S
C3066 H3060 0.949 . S
C3066 C3070 1.368 . S
C3067 C3048 1.429 1_554 S
C3067 C3061 1.429 . S
C3067 C3068 1.523 . S
C3068 C3049 1.368 . S
C3068 C3062 1.368 . S
C3068 C3067 1.523 . S
C3069 C3053 1.429 . S
C3069 C3065 1.429 . S
C3069 C3070 1.523 . S
C3070 C3054 1.368 . S
C3070 C3066 1.368 . S
C3070 C3069 1.523 . S
H3071 C3046 0.950 . S
H3072 C3048 0.950 . S
H3073 C3049 0.949 . S
H3074 C3051 0.950 . S
H3075 C3053 0.950 . S
C3076 C3077 1.349 . S
C3076 C3078 1.327 . S
C3076 H3101 0.950 . S
C3077 C3076 1.349 . S
C3077 C3093 1.349 . S
C3078 C3076 1.327 . S
C3078 C3097 1.429 . S
C3078 H3102 0.950 . S
C3079 C3096 1.574 . S
C3079 C3098 1.368 . S
C3079 H3103 0.949 . S
H3080 C3084 0.949 . S
C3081 C3082 1.349 . S
C3081 C3083 1.327 . S
C3081 H3104 0.950 . S
C3082 C3081 1.349 . S
C3082 C3094 1.349 . S
C3083 C3081 1.327 . S
C3083 C3099 1.429 . S
C3083 H3105 0.950 . S
C3084 H3080 0.949 . S
C3084 C3092 1.574 . S
C3084 C3100 1.368 . S
H3085 C3093 0.950 . S
H3086 C3091 0.950 . S
H3087 C3092 0.949 . S
H3088 C3094 0.950 . S
H3089 C3095 0.950 . S
H3090 C3096 0.949 . S
C3091 H3086 0.950 . S
C3091 C3093 1.327 . S
C3091 C3097 1.429 . S
C3092 C3084 1.574 . S
C3092 H3087 0.949 . S
C3092 C3098 1.368 . S
C3093 C3077 1.349 . S
C3093 H3085 0.950 . S
C3093 C3091 1.327 . S
C3094 C3082 1.349 . S
C3094 H3088 0.950 . S
C3094 C3095 1.327 . S
C3095 H3089 0.950 . S
C3095 C3094 1.327 . S
C3095 C3099 1.429 . S
C3096 C3079 1.574 . S
C3096 H3090 0.949 . S
C3096 C3100 1.368 . S
C3097 C3078 1.429 . S
C3097 C3091 1.429 . S
C3097 C3098 1.523 . S
C3098 C3079 1.368 . S
C3098 C3092 1.368 . S
C3098 C3097 1.523 . S
C3099 C3083 1.429 . S
C3099 C3095 1.429 . S
C3099 C3100 1.523 . S
C3100 C3084 1.368 . S
C3100 C3096 1.368 . S
C3100 C3099 1.523 . S
H3101 C3076 0.950 . S
H3102 C3078 0.950 . S
H3103 C3079 0.949 . S
H3104 C3081 0.950 . S
H3105 C3083 0.950 . S
C3106 C3107 1.349 . S
C3106 C3108 1.327 . S
C3106 H3131 0.950 . S
C3107 C3106 1.349 . S
C3107 C3123 1.349 . S
C3108 C3106 1.327 . S
C3108 C3127 1.429 . S
C3108 H3132 0.950 . S
C3109 C3126 1.574 . S
C3109 C3128 1.368 . S
C3109 H3133 0.949 . S
H3110 C3114 0.949 . S
C3111 C3112 1.349 . S
C3111 C3113 1.327 . S
C3111 H3134 0.950 . S
C3112 C3111 1.349 . S
C3112 C3124 1.349 . S
C3113 C3111 1.327 . S
C3113 C3129 1.429 . S
C3113 H3135 0.950 . S
C3114 H3110 0.949 . S
C3114 C3122 1.574 . S
C3114 C3130 1.368 . S
H3115 C3123 0.950 . S
H3116 C3121 0.950 . S
H3117 C3122 0.949 . S
H3118 C3124 0.950 . S
H3119 C3125 0.950 . S
H3120 C3126 0.949 . S
C3121 H3116 0.950 . S
C3121 C3123 1.327 . S
C3121 C3127 1.429 . S
C3122 C3114 1.574 . S
C3122 H3117 0.949 . S
C3122 C3128 1.368 . S
C3123 C3107 1.349 . S
C3123 H3115 0.950 . S
C3123 C3121 1.327 . S
C3124 C3112 1.349 . S
C3124 H3118 0.950 . S
C3124 C3125 1.327 . S
C3125 H3119 0.950 . S
C3125 C3124 1.327 . S
C3125 C3129 1.429 . S
C3126 C3109 1.574 . S
C3126 H3120 0.949 . S
C3126 C3130 1.368 . S
C3127 C3108 1.429 . S
C3127 C3121 1.429 . S
C3127 C3128 1.523 . S
C3128 C3109 1.368 . S
C3128 C3122 1.368 . S
C3128 C3127 1.523 . S
C3129 C3113 1.429 . S
C3129 C3125 1.429 . S
C3129 C3130 1.523 . S
C3130 C3114 1.368 . S
C3130 C3126 1.368 . S
C3130 C3129 1.523 . S
H3131 C3106 0.950 . S
H3132 C3108 0.950 . S
H3133 C3109 0.949 . S
H3134 C3111 0.950 . S
H3135 C3113 0.950 . S
C3136 C3137 1.349 . S
C3136 C3138 1.327 . S
C3136 H3161 0.950 . S
C3137 C3136 1.349 . S
C3137 C3153 1.349 . S
C3138 C3136 1.327 . S
C3138 C3157 1.429 . S
C3138 H3162 0.950 . S
C3139 C3156 1.574 . S
C3139 C3158 1.368 . S
C3139 H3163 0.949 . S
H3140 C3144 0.949 . S
C3141 C3142 1.349 . S
C3141 C3143 1.327 . S
C3141 H3164 0.950 . S
C3142 C3141 1.349 . S
C3142 C3154 1.349 . S
C3143 C3141 1.327 . S
C3143 C3159 1.429 . S
C3143 H3165 0.950 . S
C3144 H3140 0.949 . S
C3144 C3152 1.574 . S
C3144 C3160 1.368 . S
H3145 C3153 0.950 . S
H3146 C3151 0.950 . S
H3147 C3152 0.949 . S
H3148 C3154 0.950 . S
H3149 C3155 0.950 . S
H3150 C3156 0.949 . S
C3151 H3146 0.950 . S
C3151 C3153 1.327 . S
C3151 C3157 1.429 . S
C3152 C3144 1.574 . S
C3152 H3147 0.949 . S
C3152 C3158 1.368 . S
C3153 C3137 1.349 . S
C3153 H3145 0.950 . S
C3153 C3151 1.327 . S
C3154 C3142 1.349 . S
C3154 H3148 0.950 . S
C3154 C3155 1.327 . S
C3155 H3149 0.950 . S
C3155 C3154 1.327 . S
C3155 C3159 1.429 . S
C3156 C3139 1.574 . S
C3156 H3150 0.949 . S
C3156 C3160 1.368 . S
C3157 C3138 1.429 . S
C3157 C3151 1.429 . S
C3157 C3158 1.523 . S
C3158 C3139 1.368 . S
C3158 C3152 1.368 . S
C3158 C3157 1.523 . S
C3159 C3143 1.429 . S
C3159 C3155 1.429 . S
C3159 C3160 1.523 . S
C3160 C3144 1.368 . S
C3160 C3156 1.368 . S
C3160 C3159 1.523 . S
H3161 C3136 0.950 . S
H3162 C3138 0.950 . S
H3163 C3139 0.949 . S
H3164 C3141 0.950 . S
H3165 C3143 0.950 . S
C3166 C3167 1.349 . S
C3166 C3168 1.327 . S
C3166 H3191 0.950 . S
C3167 C3166 1.349 . S
C3167 C3183 1.349 . S
C3168 C3166 1.327 . S
C3168 C3187 1.429 . S
C3168 H3192 0.950 . S
C3169 C3186 1.574 . S
C3169 C3188 1.368 . S
C3169 H3193 0.949 . S
H3170 C3174 0.949 . S
C3171 C3172 1.349 . S
C3171 C3173 1.327 . S
C3171 H3194 0.950 . S
C3172 C3171 1.349 . S
C3172 C3184 1.349 . S
C3173 C3171 1.327 . S
C3173 C3189 1.429 . S
C3173 H3195 0.950 . S
C3174 H3170 0.949 . S
C3174 C3182 1.574 . S
C3174 C3190 1.368 . S
H3175 C3183 0.950 . S
H3176 C3181 0.950 . S
H3177 C3182 0.949 . S
H3178 C3184 0.950 . S
H3179 C3185 0.950 . S
H3180 C3186 0.949 . S
C3181 H3176 0.950 . S
C3181 C3183 1.327 . S
C3181 C3187 1.429 . S
C3182 C3174 1.574 . S
C3182 H3177 0.949 . S
C3182 C3188 1.368 . S
C3183 C3167 1.349 . S
C3183 H3175 0.950 . S
C3183 C3181 1.327 . S
C3184 C3172 1.349 . S
C3184 H3178 0.950 . S
C3184 C3185 1.327 . S
C3185 H3179 0.950 . S
C3185 C3184 1.327 . S
C3185 C3189 1.429 . S
C3186 C3169 1.574 . S
C3186 H3180 0.949 . S
C3186 C3190 1.368 . S
C3187 C3168 1.429 . S
C3187 C3181 1.429 . S
C3187 C3188 1.523 . S
C3188 C3169 1.368 . S
C3188 C3182 1.368 . S
C3188 C3187 1.523 . S
C3189 C3173 1.429 . S
C3189 C3185 1.429 . S
C3189 C3190 1.523 . S
C3190 C3174 1.368 . S
C3190 C3186 1.368 . S
C3190 C3189 1.523 . S
H3191 C3166 0.950 . S
H3192 C3168 0.950 . S
H3193 C3169 0.949 . S
H3194 C3171 0.950 . S
H3195 C3173 0.950 . S
C3196 C3197 1.349 . S
C3196 C3198 1.327 . S
C3196 H3221 0.950 . S
C3197 C3196 1.349 . S
C3197 C3213 1.349 . S
C3198 C3196 1.327 . S
C3198 C3217 1.429 . S
C3198 H3222 0.950 . S
C3199 C3216 1.574 . S
C3199 C3218 1.368 . S
C3199 H3223 0.949 . S
H3200 C3204 0.949 . S
C3201 C3202 1.349 . S
C3201 C3203 1.327 . S
C3201 H3224 0.993 . S
C3202 C3201 1.349 . S
C3202 C3214 1.349 . S
C3203 C3201 1.327 . S
C3203 C3219 1.429 . S
C3203 H3225 0.950 . S
C3204 H3200 0.949 . S
C3204 C3212 1.574 . S
C3204 C3220 1.368 . S
H3205 C3213 0.950 . S
H3206 C3211 0.950 . S
H3207 C3212 0.949 . S
H3208 C3214 0.950 . S
H3209 C3215 0.950 . S
H3210 C3216 0.949 . S
C3211 H3206 0.950 . S
C3211 C3213 1.327 . S
C3211 C3217 1.429 . S
C3212 C3204 1.574 . S
C3212 H3207 0.949 . S
C3212 C3218 1.368 . S
C3213 C3197 1.349 . S
C3213 H3205 0.950 . S
C3213 C3211 1.327 . S
C3214 C3202 1.349 . S
C3214 H3208 0.950 . S
C3214 C3215 1.327 . S
C3215 H3209 0.950 . S
C3215 C3214 1.327 . S
C3215 C3219 1.429 . S
C3216 C3199 1.574 . S
C3216 H3210 0.949 . S
C3216 C3220 1.368 . S
C3217 C3198 1.429 . S
C3217 C3211 1.429 . S
C3217 C3218 1.523 . S
C3218 C3199 1.368 . S
C3218 C3212 1.368 . S
C3218 C3217 1.523 . S
C3219 C3203 1.429 . S
C3219 C3215 1.429 . S
C3219 C3220 1.523 . S
C3220 C3204 1.368 . S
C3220 C3216 1.368 . S
C3220 C3219 1.523 . S
H3221 C3196 0.950 . S
H3222 C3198 0.950 . S
H3223 C3199 0.949 . S
H3224 C3201 0.993 . S
H3225 C3203 0.950 . S
C3226 C3227 1.349 . S
C3226 C3228 1.327 . S
C3226 H3251 0.950 . S
C3227 C3226 1.349 . S
C3227 C3243 1.349 . S
C3228 C3226 1.327 . S
C3228 C3247 1.429 . S
C3228 H3252 0.950 . S
C3229 C3246 1.574 . S
C3229 C3248 1.368 . S
C3229 H3253 0.949 . S
H3230 C3234 0.949 . S
C3231 C3232 1.349 . S
C3231 C3233 1.327 . S
C3231 H3254 0.950 . S
C3232 C3231 1.349 . S
C3232 C3244 1.349 . S
C3233 C3231 1.327 . S
C3233 C3249 1.429 . S
C3233 H3255 0.950 . S
C3234 H3230 0.949 . S
C3234 C3242 1.574 . S
C3234 C3250 1.368 . S
H3235 C3243 0.950 . S
H3236 C3241 0.950 . S
H3237 C3242 0.949 . S
H3238 C3244 0.950 . S
H3239 C3245 0.950 . S
H3240 C3246 0.949 . S
C3241 H3236 0.950 . S
C3241 C3243 1.327 . S
C3241 C3247 1.429 . S
C3242 C3234 1.574 . S
C3242 H3237 0.949 . S
C3242 C3248 1.368 . S
C3243 C3227 1.349 . S
C3243 H3235 0.950 . S
C3243 C3241 1.327 . S
C3244 C3232 1.349 . S
C3244 H3238 0.950 . S
C3244 C3245 1.327 . S
C3245 H3239 0.950 . S
C3245 C3244 1.327 . S
C3245 C3249 1.429 . S
C3246 C3229 1.574 . S
C3246 H3240 0.949 . S
C3246 C3250 1.368 . S
C3247 C3228 1.429 . S
C3247 C3241 1.429 . S
C3247 C3248 1.523 . S
C3248 C3229 1.368 . S
C3248 C3242 1.368 . S
C3248 C3247 1.523 . S
C3249 C3233 1.429 . S
C3249 C3245 1.429 . S
C3249 C3250 1.523 . S
C3250 C3234 1.368 . S
C3250 C3246 1.368 . S
C3250 C3249 1.523 . S
H3251 C3226 0.950 . S
H3252 C3228 0.950 . S
H3253 C3229 0.949 . S
H3254 C3231 0.950 . S
H3255 C3233 0.950 . S
C3256 C3257 1.349 . S
C3256 C3258 1.327 . S
C3256 H3281 0.950 . S
C3257 C3256 1.349 . S
C3257 C3273 1.349 . S
C3258 C3256 1.327 . S
C3258 C3277 1.429 . S
C3258 H3282 0.950 . S
C3259 C3276 1.574 . S
C3259 C3278 1.368 . S
C3259 H3283 0.949 . S
H3260 C3264 0.949 . S
C3261 C3262 1.349 . S
C3261 C3263 1.327 . S
C3261 H3284 0.950 . S
C3262 C3261 1.349 . S
C3262 C3274 1.349 . S
C3263 C3261 1.327 . S
C3263 C3279 1.429 . S
C3263 H3285 0.950 . S
C3264 H3260 0.949 . S
C3264 C3272 1.574 . S
C3264 C3280 1.368 . S
H3265 C3273 0.950 . S
H3266 C3271 0.950 . S
H3267 C3272 0.949 . S
H3268 C3274 0.950 . S
H3269 C3275 0.950 . S
H3270 C3276 0.949 . S
C3271 H3266 0.950 . S
C3271 C3273 1.327 . S
C3271 C3277 1.429 . S
C3272 C3264 1.574 . S
C3272 H3267 0.949 . S
C3272 C3278 1.368 . S
C3273 C3257 1.349 . S
C3273 H3265 0.950 . S
C3273 C3271 1.327 . S
C3274 C3262 1.349 . S
C3274 H3268 0.950 . S
C3274 C3275 1.327 . S
C3275 H3269 0.950 . S
C3275 C3274 1.327 . S
C3275 C3279 1.429 . S
C3276 C3259 1.574 . S
C3276 H3270 0.949 . S
C3276 C3280 1.368 . S
C3277 C3258 1.429 . S
C3277 C3271 1.429 . S
C3277 C3278 1.523 . S
C3278 C3259 1.368 . S
C3278 C3272 1.368 . S
C3278 C3277 1.523 . S
C3279 C3263 1.429 . S
C3279 C3275 1.429 . S
C3279 C3280 1.523 . S
C3280 C3264 1.368 . S
C3280 C3276 1.368 . S
C3280 C3279 1.523 . S
H3281 C3256 0.950 . S
H3282 C3258 0.950 . S
H3283 C3259 0.949 . S
H3284 C3261 0.950 . S
H3285 C3263 0.950 . S
C3286 C3287 1.349 . S
C3286 C3288 1.327 . S
C3286 H3311 0.950 . S
C3287 C3286 1.349 . S
C3287 C3303 1.349 . S
C3288 C3286 1.327 . S
C3288 C3307 1.429 . S
C3288 H3312 0.950 . S
C3289 C3306 1.574 . S
C3289 C3308 1.368 . S
C3289 H3313 0.949 . S
H3290 C3294 0.949 . S
C3291 C3292 1.349 . S
C3291 C3293 1.327 . S
C3291 H3314 0.950 . S
C3292 C3291 1.349 . S
C3292 C3304 1.349 . S
C3293 C3291 1.327 . S
C3293 C3309 1.429 . S
C3293 H3315 0.950 . S
C3294 H3290 0.949 . S
C3294 C3302 1.574 . S
C3294 C3310 1.368 . S
H3295 C3303 0.950 . S
H3296 C3301 0.950 . S
H3297 C3302 0.949 . S
H3298 C3304 0.950 . S
H3299 C3305 0.950 . S
H3300 C3306 0.949 . S
C3301 H3296 0.950 . S
C3301 C3303 1.327 . S
C3301 C3307 1.429 . S
C3302 C3294 1.574 . S
C3302 H3297 0.949 . S
C3302 C3308 1.368 . S
C3303 C3287 1.349 . S
C3303 H3295 0.950 . S
C3303 C3301 1.327 . S
C3304 C3292 1.349 . S
C3304 H3298 0.950 . S
C3304 C3305 1.327 . S
C3305 H3299 0.950 . S
C3305 C3304 1.327 . S
C3305 C3309 1.429 . S
C3306 C3289 1.574 . S
C3306 H3300 0.949 . S
C3306 C3310 1.368 . S
C3307 C3288 1.429 . S
C3307 C3301 1.429 . S
C3307 C3308 1.523 . S
C3308 C3289 1.368 . S
C3308 C3302 1.368 . S
C3308 C3307 1.523 . S
C3309 C3293 1.429 . S
C3309 C3305 1.429 . S
C3309 C3310 1.523 . S
C3310 C3294 1.368 . S
C3310 C3306 1.368 . S
C3310 C3309 1.523 . S
H3311 C3286 0.950 . S
H3312 C3288 0.950 . S
H3313 C3289 0.949 . S
H3314 C3291 0.950 . S
H3315 C3293 0.950 . S
C3316 C3317 1.349 . S
C3316 C3318 1.327 . S
C3316 H3341 0.950 . S
C3317 C3316 1.349 . S
C3317 C3333 1.349 . S
C3318 C3316 1.327 . S
C3318 C3337 1.429 . S
C3318 H3342 0.950 . S
C3319 C3336 1.574 . S
C3319 C3338 1.368 . S
C3319 H3343 0.949 . S
H3320 C3324 0.949 . S
C3321 C3322 1.349 . S
C3321 C3323 1.327 . S
C3321 H3344 0.950 . S
C3322 C3321 1.349 . S
C3322 C3334 1.349 . S
C3323 C3321 1.327 . S
C3323 C3339 1.429 . S
C3323 H3345 0.950 . S
C3324 H3320 0.949 . S
C3324 C3332 1.574 . S
C3324 C3340 1.368 . S
H3325 C3333 0.950 . S
H3326 C3331 0.950 . S
H3327 C3332 0.949 . S
H3328 C3334 0.950 . S
H3329 C3335 0.950 . S
H3330 C3336 0.949 . S
C3331 H3326 0.950 . S
C3331 C3333 1.327 . S
C3331 C3337 1.429 . S
C3332 C3324 1.574 . S
C3332 H3327 0.949 . S
C3332 C3338 1.368 . S
C3333 C3317 1.349 . S
C3333 H3325 0.950 . S
C3333 C3331 1.327 . S
C3334 C3322 1.349 . S
C3334 H3328 0.950 . S
C3334 C3335 1.327 . S
C3335 H3329 0.950 . S
C3335 C3334 1.327 . S
C3335 C3339 1.429 . S
C3336 C3319 1.574 . S
C3336 H3330 0.949 . S
C3336 C3340 1.368 . S
C3337 C3318 1.429 . S
C3337 C3331 1.429 . S
C3337 C3338 1.523 . S
C3338 C3319 1.368 . S
C3338 C3332 1.368 . S
C3338 C3337 1.523 . S
C3339 C3323 1.429 . S
C3339 C3335 1.429 . S
C3339 C3340 1.523 . S
C3340 C3324 1.368 . S
C3340 C3336 1.368 . S
C3340 C3339 1.523 . S
H3341 C3316 0.950 . S
H3342 C3318 0.950 . S
H3343 C3319 0.949 . S
H3344 C3321 0.950 . S
H3345 C3323 0.950 . S
C3346 C3347 1.349 . S
C3346 C3348 1.327 . S
C3346 H3371 0.950 . S
C3347 C3346 1.349 . S
C3347 C3363 1.349 . S
C3348 C3346 1.327 . S
C3348 C3367 1.429 . S
C3348 H3372 0.950 . S
C3349 C3366 1.574 . S
C3349 C3368 1.368 . S
C3349 H3373 0.949 . S
H3350 C3354 0.949 . S
C3351 C3352 1.349 . S
C3351 C3353 1.327 . S
C3351 H3374 0.950 . S
C3352 C3351 1.349 . S
C3352 C3364 1.349 . S
C3353 C3351 1.327 . S
C3353 C3369 1.429 . S
C3353 H3375 0.950 . S
C3354 H3350 0.949 . S
C3354 C3362 1.574 . S
C3354 C3370 1.368 . S
H3355 C3363 0.950 . S
H3356 C3361 0.950 . S
H3357 C3362 0.949 . S
H3358 C3364 0.950 . S
H3359 C3365 0.950 . S
H3360 C3366 0.949 . S
C3361 H3356 0.950 . S
C3361 C3363 1.327 . S
C3361 C3367 1.429 . S
C3362 C3354 1.574 . S
C3362 H3357 0.949 . S
C3362 C3368 1.368 . S
C3363 C3347 1.349 . S
C3363 H3355 0.950 . S
C3363 C3361 1.327 . S
C3364 C3352 1.349 . S
C3364 H3358 0.950 . S
C3364 C3365 1.327 . S
C3365 H3359 0.950 . S
C3365 C3364 1.327 . S
C3365 C3369 1.429 . S
C3366 C3349 1.574 . S
C3366 H3360 0.949 . S
C3366 C3370 1.368 . S
C3367 C3348 1.429 . S
C3367 C3361 1.429 . S
C3367 C3368 1.523 . S
C3368 C3349 1.368 . S
C3368 C3362 1.368 . S
C3368 C3367 1.523 . S
C3369 C3353 1.429 . S
C3369 C3365 1.429 . S
C3369 C3370 1.523 . S
C3370 C3354 1.368 . S
C3370 C3366 1.368 . S
C3370 C3369 1.523 . S
H3371 C3346 0.950 . S
H3372 C3348 0.950 . S
H3373 C3349 0.949 . S
H3374 C3351 0.950 . S
H3375 C3353 0.950 . S
C3376 C3377 1.349 . S
C3376 C3378 1.327 . S
C3376 H3401 0.950 . S
C3377 C3376 1.349 . S
C3377 C3393 1.349 . S
C3378 C3376 1.327 . S
C3378 C3397 1.429 . S
C3378 H3402 0.950 . S
C3379 C3396 1.574 . S
C3379 C3398 1.368 . S
C3379 H3403 0.949 . S
H3380 C3384 0.949 . S
C3381 C3382 1.349 . S
C3381 C3383 1.327 . S
C3381 H3404 0.950 . S
C3382 C3381 1.349 . S
C3382 C3394 1.349 . S
C3383 C3381 1.327 . S
C3383 C3399 1.429 . S
C3383 H3405 0.950 . S
C3384 H3380 0.949 . S
C3384 C3392 1.574 . S
C3384 C3400 1.368 . S
H3385 C3393 0.950 . S
H3386 C3391 0.950 . S
H3387 C3392 0.949 . S
H3388 C3394 0.950 . S
H3389 C3395 0.950 . S
H3390 C3396 0.949 . S
C3391 H3386 0.950 . S
C3391 C3393 1.327 . S
C3391 C3397 1.429 . S
C3392 C3384 1.574 . S
C3392 H3387 0.949 . S
C3392 C3398 1.368 . S
C3393 C3377 1.349 . S
C3393 H3385 0.950 . S
C3393 C3391 1.327 . S
C3394 C3382 1.349 . S
C3394 H3388 0.950 . S
C3394 C3395 1.327 . S
C3395 H3389 0.950 . S
C3395 C3394 1.327 . S
C3395 C3399 1.429 . S
C3396 C3379 1.574 . S
C3396 H3390 0.949 . S
C3396 C3400 1.368 . S
C3397 C3378 1.429 . S
C3397 C3391 1.429 . S
C3397 C3398 1.523 . S
C3398 C3379 1.368 . S
C3398 C3392 1.368 . S
C3398 C3397 1.523 . S
C3399 C3383 1.429 . S
C3399 C3395 1.429 . S
C3399 C3400 1.523 . S
C3400 C3384 1.368 . S
C3400 C3396 1.368 . S
C3400 C3399 1.523 . S
H3401 C3376 0.950 . S
H3402 C3378 0.950 . S
H3403 C3379 0.949 . S
H3404 C3381 0.950 . S
H3405 C3383 0.950 . S
C3406 C3407 1.349 . S
C3406 C3408 1.327 . S
C3406 H3431 0.950 . S
C3407 C3406 1.349 . S
C3407 C3423 1.349 . S
C3408 C3406 1.327 . S
C3408 C3427 1.429 . S
C3408 H3432 0.950 . S
C3409 C3426 1.574 . S
C3409 C3428 1.368 . S
C3409 H3433 0.949 . S
H3410 C3414 0.949 . S
C3411 C3412 1.349 . S
C3411 C3413 1.327 . S
C3411 H3434 0.950 . S
C3412 C3411 1.349 . S
C3412 C3424 1.349 . S
C3413 C3411 1.327 . S
C3413 C3429 1.429 . S
C3413 H3435 0.950 . S
C3414 H3410 0.949 . S
C3414 C3422 1.574 . S
C3414 C3430 1.368 . S
H3415 C3423 0.950 . S
H3416 C3421 0.950 . S
H3417 C3422 0.949 . S
H3418 C3424 0.950 . S
H3419 C3425 0.950 . S
H3420 C3426 0.949 . S
C3421 H3416 0.950 . S
C3421 C3423 1.327 . S
C3421 C3427 1.429 . S
C3422 C3414 1.574 . S
C3422 H3417 0.949 . S
C3422 C3428 1.368 . S
C3423 C3407 1.349 . S
C3423 H3415 0.950 . S
C3423 C3421 1.327 . S
C3424 C3412 1.349 . S
C3424 H3418 0.950 . S
C3424 C3425 1.327 . S
C3425 H3419 0.950 . S
C3425 C3424 1.327 . S
C3425 C3429 1.429 . S
C3426 C3409 1.574 . S
C3426 H3420 0.949 . S
C3426 C3430 1.368 . S
C3427 C3408 1.429 . S
C3427 C3421 1.429 . S
C3427 C3428 1.523 . S
C3428 C3409 1.368 . S
C3428 C3422 1.368 . S
C3428 C3427 1.523 . S
C3429 C3413 1.429 . S
C3429 C3425 1.429 . S
C3429 C3430 1.523 . S
C3430 C3414 1.368 . S
C3430 C3426 1.368 . S
C3430 C3429 1.523 . S
H3431 C3406 0.950 . S
H3432 C3408 0.950 . S
H3433 C3409 0.949 . S
H3434 C3411 0.950 . S
H3435 C3413 0.950 . S
C3436 C3437 1.349 . S
C3436 C3438 1.327 . S
C3436 H3461 0.950 . S
C3437 C3436 1.349 . S
C3437 C3453 1.349 . S
C3438 C3436 1.327 . S
C3438 C3457 1.429 . S
C3438 H3462 0.950 . S
C3439 C3456 1.575 . S
C3439 C3458 1.368 . S
C3439 H3463 0.949 . S
H3440 C3444 0.949 . S
C3441 C3442 1.349 . S
C3441 C3443 1.327 . S
C3441 H3464 0.950 . S
C3442 C3441 1.349 . S
C3442 C3454 1.349 . S
C3443 C3441 1.327 . S
C3443 C3459 1.434 . S
C3443 H3465 0.950 . S
C3444 H3440 0.949 . S
C3444 C3452 1.574 . S
C3444 C3460 1.368 . S
H3445 C3453 0.950 . S
H3446 C3451 0.950 . S
H3447 C3452 0.949 . S
H3448 C3454 0.950 1_655 S
H3449 C3455 0.950 . S
H3450 C3456 0.946 1_455 S
C3451 H3446 0.950 . S
C3451 C3453 1.327 . S
C3451 C3457 1.429 . S
C3452 C3444 1.574 . S
C3452 H3447 0.949 . S
C3452 C3458 1.368 . S
C3453 C3437 1.349 . S
C3453 H3445 0.950 . S
C3453 C3451 1.327 . S
C3454 C3442 1.349 . S
C3454 H3448 0.950 1_455 S
C3454 C3455 1.327 1_455 S
C3455 H3449 0.950 . S
C3455 C3454 1.327 1_655 S
C3455 C3459 1.426 1_655 S
C3456 C3439 1.575 . S
C3456 H3450 0.946 1_655 S
C3456 C3460 1.370 . S
C3457 C3438 1.429 . S
C3457 C3451 1.429 . S
C3457 C3458 1.523 . S
C3458 C3439 1.368 . S
C3458 C3452 1.368 . S
C3458 C3457 1.523 . S
C3459 C3443 1.434 . S
C3459 C3455 1.426 1_455 S
C3459 C3460 1.520 1_455 S
C3460 C3444 1.368 . S
C3460 C3456 1.370 . S
C3460 C3459 1.520 1_655 S
H3461 C3436 0.950 . S
H3462 C3438 0.950 . S
H3463 C3439 0.949 . S
H3464 C3441 0.950 . S
H3465 C3443 0.950 . S
C3466 C3467 1.349 . S
C3466 C3468 1.327 . S
C3466 H3491 0.950 . S
C3467 C3466 1.349 . S
C3467 C3483 1.349 . S
C3468 C3466 1.327 . S
C3468 C3487 1.429 . S
C3468 H3492 0.950 . S
C3469 C3486 1.574 . S
C3469 C3488 1.368 . S
C3469 H3493 0.949 . S
H3470 C3474 0.949 . S
C3471 C3472 1.349 . S
C3471 C3473 1.327 . S
C3471 H3494 0.950 . S
C3472 C3471 1.349 . S
C3472 C3484 1.349 . S
C3473 C3471 1.327 . S
C3473 C3489 1.429 . S
C3473 H3495 0.950 . S
C3474 H3470 0.949 . S
C3474 C3482 1.574 . S
C3474 C3490 1.368 . S
H3475 C3483 0.950 . S
H3476 C3481 0.950 . S
H3477 C3482 0.949 . S
H3478 C3484 0.950 . S
H3479 C3485 0.950 . S
H3480 C3486 0.949 . S
C3481 H3476 0.950 . S
C3481 C3483 1.327 . S
C3481 C3487 1.429 . S
C3482 C3474 1.574 . S
C3482 H3477 0.949 . S
C3482 C3488 1.368 . S
C3483 C3467 1.349 . S
C3483 H3475 0.950 . S
C3483 C3481 1.327 . S
C3484 C3472 1.349 . S
C3484 H3478 0.950 . S
C3484 C3485 1.327 . S
C3485 H3479 0.950 . S
C3485 C3484 1.327 . S
C3485 C3489 1.429 . S
C3486 C3469 1.574 . S
C3486 H3480 0.949 . S
C3486 C3490 1.368 . S
C3487 C3468 1.429 . S
C3487 C3481 1.429 . S
C3487 C3488 1.523 . S
C3488 C3469 1.368 . S
C3488 C3482 1.368 . S
C3488 C3487 1.523 . S
C3489 C3473 1.429 . S
C3489 C3485 1.429 . S
C3489 C3490 1.523 . S
C3490 C3474 1.368 . S
C3490 C3486 1.368 . S
C3490 C3489 1.523 . S
H3491 C3466 0.950 . S
H3492 C3468 0.950 . S
H3493 C3469 0.949 . S
H3494 C3471 0.950 . S
H3495 C3473 0.950 . S
C3496 C3497 1.349 . S
C3496 C3498 1.327 . S
C3496 H3521 0.950 . S
C3497 C3496 1.349 . S
C3497 C3513 1.349 . S
C3498 C3496 1.327 . S
C3498 C3517 1.429 . S
C3498 H3522 0.950 . S
C3499 C3516 1.574 . S
C3499 C3518 1.368 . S
C3499 H3523 0.949 . S
H3500 C3504 0.949 . S
C3501 C3502 1.349 . S
C3501 C3503 1.327 . S
C3501 H3524 0.950 . S
C3502 C3501 1.349 . S
C3502 C3514 1.349 . S
C3503 C3501 1.327 . S
C3503 C3519 1.429 . S
C3503 H3525 0.950 . S
C3504 H3500 0.949 . S
C3504 C3512 1.574 . S
C3504 C3520 1.368 . S
H3505 C3513 0.950 . S
H3506 C3511 0.950 . S
H3507 C3512 0.949 . S
H3508 C3514 0.950 . S
H3509 C3515 0.950 . S
H3510 C3516 0.949 . S
C3511 H3506 0.950 . S
C3511 C3513 1.327 . S
C3511 C3517 1.429 . S
C3512 C3504 1.574 . S
C3512 H3507 0.949 . S
C3512 C3518 1.368 . S
C3513 C3497 1.349 . S
C3513 H3505 0.950 . S
C3513 C3511 1.327 . S
C3514 C3502 1.349 . S
C3514 H3508 0.950 . S
C3514 C3515 1.327 . S
C3515 H3509 0.950 . S
C3515 C3514 1.327 . S
C3515 C3519 1.429 . S
C3516 C3499 1.574 . S
C3516 H3510 0.949 . S
C3516 C3520 1.368 . S
C3517 C3498 1.429 . S
C3517 C3511 1.429 . S
C3517 C3518 1.523 . S
C3518 C3499 1.368 . S
C3518 C3512 1.368 . S
C3518 C3517 1.523 . S
C3519 C3503 1.429 . S
C3519 C3515 1.429 . S
C3519 C3520 1.523 . S
C3520 C3504 1.368 . S
C3520 C3516 1.368 . S
C3520 C3519 1.523 . S
H3521 C3496 0.950 . S
H3522 C3498 0.950 . S
H3523 C3499 0.949 . S
H3524 C3501 0.950 . S
H3525 C3503 0.950 . S
C3526 C3527 1.349 . S
C3526 C3528 1.327 . S
C3526 H3551 0.950 . S
C3527 C3526 1.349 . S
C3527 C3543 1.349 . S
C3528 C3526 1.327 . S
C3528 C3547 1.429 . S
C3528 H3552 0.950 . S
C3529 C3546 1.574 . S
C3529 C3548 1.368 . S
C3529 H3553 0.949 . S
H3530 C3534 0.949 . S
C3531 C3532 1.349 . S
C3531 C3533 1.327 . S
C3531 H3554 0.950 . S
C3532 C3531 1.349 . S
C3532 C3544 1.349 . S
C3533 C3531 1.327 . S
C3533 C3549 1.429 . S
C3533 H3555 0.950 . S
C3534 H3530 0.949 . S
C3534 C3542 1.574 . S
C3534 C3550 1.368 . S
H3535 C3543 0.950 . S
H3536 C3541 0.950 . S
H3537 C3542 0.949 . S
H3538 C3544 0.950 . S
H3539 C3545 0.950 . S
H3540 C3546 0.949 . S
C3541 H3536 0.950 . S
C3541 C3543 1.327 . S
C3541 C3547 1.429 . S
C3542 C3534 1.574 . S
C3542 H3537 0.949 . S
C3542 C3548 1.368 . S
C3543 C3527 1.349 . S
C3543 H3535 0.950 . S
C3543 C3541 1.327 . S
C3544 C3532 1.349 . S
C3544 H3538 0.950 . S
C3544 C3545 1.327 . S
C3545 H3539 0.950 . S
C3545 C3544 1.327 . S
C3545 C3549 1.429 . S
C3546 C3529 1.574 . S
C3546 H3540 0.949 . S
C3546 C3550 1.368 . S
C3547 C3528 1.429 . S
C3547 C3541 1.429 . S
C3547 C3548 1.523 . S
C3548 C3529 1.368 . S
C3548 C3542 1.368 . S
C3548 C3547 1.523 . S
C3549 C3533 1.429 . S
C3549 C3545 1.429 . S
C3549 C3550 1.523 . S
C3550 C3534 1.368 . S
C3550 C3546 1.368 . S
C3550 C3549 1.523 . S
H3551 C3526 0.950 . S
H3552 C3528 0.950 . S
H3553 C3529 0.949 . S
H3554 C3531 0.950 . S
H3555 C3533 0.950 . S
C3556 C3557 1.349 . S
C3556 C3558 1.327 . S
C3556 H3581 0.950 . S
C3557 C3556 1.349 . S
C3557 C3573 1.349 . S
C3558 C3556 1.327 . S
C3558 C3577 1.429 . S
C3558 H3582 0.950 . S
C3559 C3576 1.574 . S
C3559 C3578 1.368 . S
C3559 H3583 0.949 . S
H3560 C3564 0.949 . S
C3561 C3562 1.349 . S
C3561 C3563 1.327 . S
C3561 H3584 0.950 1_655 S
C3562 C3561 1.349 . S
C3562 C3574 1.349 . S
C3563 C3561 1.327 . S
C3563 C3579 1.429 . S
C3563 H3585 0.950 . S
C3564 H3560 0.949 . S
C3564 C3572 1.574 . S
C3564 C3580 1.368 . S
H3565 C3573 0.950 . S
H3566 C3571 0.950 . S
H3567 C3572 0.949 . S
H3568 C3574 0.950 . S
H3569 C3575 0.950 . S
H3570 C3576 0.949 . S
C3571 H3566 0.950 . S
C3571 C3573 1.327 . S
C3571 C3577 1.429 . S
C3572 C3564 1.574 . S
C3572 H3567 0.949 . S
C3572 C3578 1.368 . S
C3573 C3557 1.349 . S
C3573 H3565 0.950 . S
C3573 C3571 1.327 . S
C3574 C3562 1.349 . S
C3574 H3568 0.950 . S
C3574 C3575 1.327 . S
C3575 H3569 0.950 . S
C3575 C3574 1.327 . S
C3575 C3579 1.429 . S
C3576 C3559 1.574 . S
C3576 H3570 0.949 . S
C3576 C3580 1.368 . S
C3577 C3558 1.429 . S
C3577 C3571 1.429 . S
C3577 C3578 1.523 . S
C3578 C3559 1.368 . S
C3578 C3572 1.368 . S
C3578 C3577 1.523 . S
C3579 C3563 1.429 . S
C3579 C3575 1.429 . S
C3579 C3580 1.523 . S
C3580 C3564 1.368 . S
C3580 C3576 1.368 . S
C3580 C3579 1.523 . S
H3581 C3556 0.950 . S
H3582 C3558 0.950 . S
H3583 C3559 0.949 . S
H3584 C3561 0.950 1_455 S
H3585 C3563 0.950 . S
C3586 C3587 1.349 . S
C3586 C3588 1.327 . S
C3586 H3611 0.950 . S
C3587 C3586 1.349 . S
C3587 C3603 1.349 . S
C3588 C3586 1.327 . S
C3588 C3607 1.429 . S
C3588 H3612 0.950 . S
C3589 C3606 1.574 . S
C3589 C3608 1.368 . S
C3589 H3613 0.949 . S
H3590 C3594 0.949 . S
C3591 C3592 1.349 . S
C3591 C3593 1.327 . S
C3591 H3614 0.950 . S
C3592 C3591 1.349 . S
C3592 C3604 1.349 . S
C3593 C3591 1.327 . S
C3593 C3609 1.429 . S
C3593 H3615 0.950 . S
C3594 H3590 0.949 . S
C3594 C3602 1.574 . S
C3594 C3610 1.368 . S
H3595 C3603 0.950 . S
H3596 C3601 0.950 . S
H3597 C3602 0.949 . S
H3598 C3604 0.950 . S
H3599 C3605 0.950 . S
H3600 C3606 0.949 . S
C3601 H3596 0.950 . S
C3601 C3603 1.327 . S
C3601 C3607 1.429 . S
C3602 C3594 1.574 . S
C3602 H3597 0.949 . S
C3602 C3608 1.368 . S
C3603 C3587 1.349 . S
C3603 H3595 0.950 . S
C3603 C3601 1.327 . S
C3604 C3592 1.349 . S
C3604 H3598 0.950 . S
C3604 C3605 1.327 . S
C3605 H3599 0.950 . S
C3605 C3604 1.327 . S
C3605 C3609 1.429 . S
C3606 C3589 1.574 . S
C3606 H3600 0.949 . S
C3606 C3610 1.368 . S
C3607 C3588 1.429 . S
C3607 C3601 1.429 . S
C3607 C3608 1.523 . S
C3608 C3589 1.368 . S
C3608 C3602 1.368 . S
C3608 C3607 1.523 . S
C3609 C3593 1.429 . S
C3609 C3605 1.429 . S
C3609 C3610 1.523 . S
C3610 C3594 1.368 . S
C3610 C3606 1.368 . S
C3610 C3609 1.523 . S
H3611 C3586 0.950 . S
H3612 C3588 0.950 . S
H3613 C3589 0.949 . S
H3614 C3591 0.950 . S
H3615 C3593 0.950 . S
C3616 C3617 1.349 . S
C3616 C3618 1.327 . S
C3616 H3641 0.950 . S
C3617 C3616 1.349 . S
C3617 C3633 1.349 . S
C3618 C3616 1.327 . S
C3618 C3637 1.429 . S
C3618 H3642 0.950 . S
C3619 C3636 1.574 . S
C3619 C3638 1.368 . S
C3619 H3643 0.949 . S
H3620 C3624 0.949 . S
C3621 C3622 1.349 . S
C3621 C3623 1.327 . S
C3621 H3644 0.950 . S
C3622 C3621 1.349 . S
C3622 C3634 1.349 . S
C3623 C3621 1.327 . S
C3623 C3639 1.429 . S
C3623 H3645 0.950 . S
C3624 H3620 0.949 . S
C3624 C3632 1.574 . S
C3624 C3640 1.368 . S
H3625 C3633 0.950 . S
H3626 C3631 0.950 . S
H3627 C3632 0.949 . S
H3628 C3634 0.950 . S
H3629 C3635 0.950 . S
H3630 C3636 0.949 . S
C3631 H3626 0.950 . S
C3631 C3633 1.327 . S
C3631 C3637 1.429 . S
C3632 C3624 1.574 . S
C3632 H3627 0.949 . S
C3632 C3638 1.368 . S
C3633 C3617 1.349 . S
C3633 H3625 0.950 . S
C3633 C3631 1.327 . S
C3634 C3622 1.349 . S
C3634 H3628 0.950 . S
C3634 C3635 1.327 . S
C3635 H3629 0.950 . S
C3635 C3634 1.327 . S
C3635 C3639 1.429 . S
C3636 C3619 1.574 . S
C3636 H3630 0.949 . S
C3636 C3640 1.368 . S
C3637 C3618 1.429 . S
C3637 C3631 1.429 . S
C3637 C3638 1.523 . S
C3638 C3619 1.368 . S
C3638 C3632 1.368 . S
C3638 C3637 1.523 . S
C3639 C3623 1.429 . S
C3639 C3635 1.429 . S
C3639 C3640 1.523 . S
C3640 C3624 1.368 . S
C3640 C3636 1.368 . S
C3640 C3639 1.523 . S
H3641 C3616 0.950 . S
H3642 C3618 0.950 . S
H3643 C3619 0.949 . S
H3644 C3621 0.950 . S
H3645 C3623 0.950 . S
C3646 C3647 1.349 . S
C3646 C3648 1.327 . S
C3646 H3671 0.950 . S
C3647 C3646 1.349 . S
C3647 C3663 1.349 . S
C3648 C3646 1.327 . S
C3648 C3667 1.429 . S
C3648 H3672 0.950 . S
C3649 C3666 1.574 . S
C3649 C3668 1.368 . S
C3649 H3673 0.949 . S
H3650 C3654 0.949 . S
C3651 C3652 1.345 1_565 S
C3651 C3653 1.327 . S
C3651 H3674 0.950 1_565 S
C3652 C3651 1.345 1_545 S
C3652 C3664 1.343 1_545 S
C3653 C3651 1.327 . S
C3653 C3669 1.429 . S
C3653 H3675 0.950 . S
C3654 H3650 0.949 . S
C3654 C3662 1.574 . S
C3654 C3670 1.368 . S
H3655 C3663 0.950 . S
H3656 C3661 0.950 . S
H3657 C3662 0.949 . S
H3658 C3664 0.950 . S
H3659 C3665 0.950 . S
H3660 C3666 0.949 . S
C3661 H3656 0.950 . S
C3661 C3663 1.327 . S
C3661 C3667 1.429 . S
C3662 C3654 1.574 . S
C3662 H3657 0.949 . S
C3662 C3668 1.368 . S
C3663 C3647 1.349 . S
C3663 H3655 0.950 . S
C3663 C3661 1.327 . S
C3664 C3652 1.343 1_565 S
C3664 H3658 0.950 . S
C3664 C3665 1.327 . S
C3665 H3659 0.950 . S
C3665 C3664 1.327 . S
C3665 C3669 1.429 . S
C3666 C3649 1.574 . S
C3666 H3660 0.949 . S
C3666 C3670 1.368 . S
C3667 C3648 1.429 . S
C3667 C3661 1.429 . S
C3667 C3668 1.523 . S
C3668 C3649 1.368 . S
C3668 C3662 1.368 . S
C3668 C3667 1.523 . S
C3669 C3653 1.429 . S
C3669 C3665 1.429 . S
C3669 C3670 1.523 . S
C3670 C3654 1.368 . S
C3670 C3666 1.368 . S
C3670 C3669 1.523 . S
H3671 C3646 0.950 . S
H3672 C3648 0.950 . S
H3673 C3649 0.949 . S
H3674 C3651 0.950 1_545 S
H3675 C3653 0.950 . S
C3676 C3677 1.349 . S
C3676 C3678 1.327 . S
C3676 H3701 0.950 . S
C3677 C3676 1.349 . S
C3677 C3693 1.349 . S
C3678 C3676 1.327 . S
C3678 C3697 1.429 . S
C3678 H3702 0.950 . S
C3679 C3696 1.574 . S
C3679 C3698 1.368 . S
C3679 H3703 0.949 . S
H3680 C3684 0.949 . S
C3681 C3682 1.349 . S
C3681 C3683 1.327 . S
C3681 H3704 0.950 . S
C3682 C3681 1.349 . S
C3682 C3694 1.349 . S
C3683 C3681 1.327 . S
C3683 C3699 1.429 . S
C3683 H3705 0.950 . S
C3684 H3680 0.949 . S
C3684 C3692 1.574 . S
C3684 C3700 1.368 . S
H3685 C3693 0.950 . S
H3686 C3691 0.950 . S
H3687 C3692 0.949 . S
H3688 C3694 0.950 . S
H3689 C3695 0.950 . S
H3690 C3696 0.949 . S
C3691 H3686 0.950 . S
C3691 C3693 1.327 . S
C3691 C3697 1.429 . S
C3692 C3684 1.574 . S
C3692 H3687 0.949 . S
C3692 C3698 1.368 . S
C3693 C3677 1.349 . S
C3693 H3685 0.950 . S
C3693 C3691 1.327 . S
C3694 C3682 1.349 . S
C3694 H3688 0.950 . S
C3694 C3695 1.327 . S
C3695 H3689 0.950 . S
C3695 C3694 1.327 . S
C3695 C3699 1.429 . S
C3696 C3679 1.574 . S
C3696 H3690 0.949 . S
C3696 C3700 1.368 . S
C3697 C3678 1.429 . S
C3697 C3691 1.429 . S
C3697 C3698 1.523 . S
C3698 C3679 1.368 . S
C3698 C3692 1.368 . S
C3698 C3697 1.523 . S
C3699 C3683 1.429 . S
C3699 C3695 1.429 . S
C3699 C3700 1.523 . S
C3700 C3684 1.368 . S
C3700 C3696 1.368 . S
C3700 C3699 1.523 . S
H3701 C3676 0.950 . S
H3702 C3678 0.950 . S
H3703 C3679 0.949 . S
H3704 C3681 0.950 . S
H3705 C3683 0.950 . S
C3706 C3707 1.349 . S
C3706 C3708 1.327 . S
C3706 H3731 0.950 . S
C3707 C3706 1.349 . S
C3707 C3723 1.349 1_554 S
C3708 C3706 1.327 . S
C3708 C3727 1.429 . S
C3708 H3732 0.950 . S
C3709 C3726 1.574 . S
C3709 C3728 1.368 1_556 S
C3709 H3733 0.949 . S
H3710 C3714 0.949 . S
C3711 C3712 1.349 1_556 S
C3711 C3713 1.327 . S
C3711 H3734 0.950 . S
C3712 C3711 1.349 1_554 S
C3712 C3724 1.349 . S
C3713 C3711 1.327 . S
C3713 C3729 1.429 1_556 S
C3713 H3735 0.950 . S
C3714 H3710 0.949 . S
C3714 C3722 1.574 . S
C3714 C3730 1.368 . S
H3715 C3723 0.950 . S
H3716 C3721 0.950 . S
H3717 C3722 0.949 . S
H3718 C3724 0.950 . S
H3719 C3725 0.950 . S
H3720 C3726 0.949 . S
C3721 H3716 0.950 . S
C3721 C3723 1.327 . S
C3721 C3727 1.429 1_556 S
C3722 C3714 1.574 . S
C3722 H3717 0.949 . S
C3722 C3728 1.368 . S
C3723 C3707 1.349 1_556 S
C3723 H3715 0.950 . S
C3723 C3721 1.327 . S
C3724 C3712 1.349 . S
C3724 H3718 0.950 . S
C3724 C3725 1.327 . S
C3725 H3719 0.950 . S
C3725 C3724 1.327 . S
C3725 C3729 1.429 . S
C3726 C3709 1.574 . S
C3726 H3720 0.949 . S
C3726 C3730 1.368 1_556 S
C3727 C3708 1.429 . S
C3727 C3721 1.429 1_554 S
C3727 C3728 1.523 . S
C3728 C3709 1.368 1_554 S
C3728 C3722 1.368 . S
C3728 C3727 1.523 . S
C3729 C3713 1.429 1_554 S
C3729 C3725 1.429 . S
C3729 C3730 1.523 . S
C3730 C3714 1.368 . S
C3730 C3726 1.368 1_554 S
C3730 C3729 1.523 . S
H3731 C3706 0.950 . S
H3732 C3708 0.950 . S
H3733 C3709 0.949 . S
H3734 C3711 0.950 . S
H3735 C3713 0.950 . S
C3736 C3737 1.349 . S
C3736 C3738 1.327 . S
C3736 H3761 0.950 . S
C3737 C3736 1.349 . S
C3737 C3753 1.349 . S
C3738 C3736 1.327 . S
C3738 C3757 1.429 . S
C3738 H3762 0.950 . S
C3739 C3756 1.574 . S
C3739 C3758 1.368 . S
C3739 H3763 0.949 . S
H3740 C3744 0.949 . S
C3741 C3742 1.349 . S
C3741 C3743 1.327 . S
C3741 H3764 0.950 . S
C3742 C3741 1.349 . S
C3742 C3754 1.349 . S
C3743 C3741 1.327 . S
C3743 C3759 1.429 . S
C3743 H3765 0.950 . S
C3744 H3740 0.949 . S
C3744 C3752 1.574 . S
C3744 C3760 1.368 . S
H3745 C3753 0.950 . S
H3746 C3751 0.950 . S
H3747 C3752 0.949 . S
H3748 C3754 0.950 . S
H3749 C3755 0.950 . S
H3750 C3756 0.949 . S
C3751 H3746 0.950 . S
C3751 C3753 1.327 . S
C3751 C3757 1.429 . S
C3752 C3744 1.574 . S
C3752 H3747 0.949 . S
C3752 C3758 1.368 . S
C3753 C3737 1.349 . S
C3753 H3745 0.950 . S
C3753 C3751 1.327 . S
C3754 C3742 1.349 . S
C3754 H3748 0.950 . S
C3754 C3755 1.327 . S
C3755 H3749 0.950 . S
C3755 C3754 1.327 . S
C3755 C3759 1.429 . S
C3756 C3739 1.574 . S
C3756 H3750 0.949 . S
C3756 C3760 1.368 . S
C3757 C3738 1.429 . S
C3757 C3751 1.429 . S
C3757 C3758 1.523 . S
C3758 C3739 1.368 . S
C3758 C3752 1.368 . S
C3758 C3757 1.523 . S
C3759 C3743 1.429 . S
C3759 C3755 1.429 . S
C3759 C3760 1.523 . S
C3760 C3744 1.368 . S
C3760 C3756 1.368 . S
C3760 C3759 1.523 . S
H3761 C3736 0.950 . S
H3762 C3738 0.950 . S
H3763 C3739 0.949 . S
H3764 C3741 0.950 . S
H3765 C3743 0.950 . S
C3766 C3767 1.349 1_556 S
C3766 C3768 1.327 . S
C3766 H3791 0.950 . S
C3767 C3766 1.349 1_554 S
C3767 C3783 1.349 . S
C3768 C3766 1.327 . S
C3768 C3787 1.429 1_556 S
C3768 H3792 0.950 . S
C3769 C3786 1.574 . S
C3769 C3788 1.368 . S
C3769 H3793 0.949 . S
H3770 C3774 0.949 . S
C3771 C3772 1.309 1_554 S
C3771 C3773 1.341 . S
C3771 H3794 0.980 . S
C3772 C3771 1.309 1_556 S
C3772 C3784 1.349 . S
C3773 C3771 1.341 . S
C3773 C3789 1.429 1_554 S
C3773 H3795 0.950 . S
C3774 H3770 0.949 . S
C3774 C3782 1.574 . S
C3774 C3790 1.368 . S
H3775 C3783 0.950 . S
H3776 C3781 0.950 . S
H3777 C3782 0.949 . S
H3778 C3784 0.950 . S
H3779 C3785 0.950 . S
H3780 C3786 0.949 . S
C3781 H3776 0.950 . S
C3781 C3783 1.327 . S
C3781 C3787 1.429 . S
C3782 C3774 1.574 . S
C3782 H3777 0.949 . S
C3782 C3788 1.368 1_556 S
C3783 C3767 1.349 . S
C3783 H3775 0.950 . S
C3783 C3781 1.327 . S
C3784 C3772 1.349 . S
C3784 H3778 0.950 . S
C3784 C3785 1.327 . S
C3785 H3779 0.950 . S
C3785 C3784 1.327 . S
C3785 C3789 1.429 . S
C3786 C3769 1.574 . S
C3786 H3780 0.949 . S
C3786 C3790 1.368 1_554 S
C3787 C3768 1.429 1_554 S
C3787 C3781 1.429 . S
C3787 C3788 1.523 . S
C3788 C3769 1.368 . S
C3788 C3782 1.368 1_554 S
C3788 C3787 1.523 . S
C3789 C3773 1.429 1_556 S
C3789 C3785 1.429 . S
C3789 C3790 1.523 . S
C3790 C3774 1.368 . S
C3790 C3786 1.368 1_556 S
C3790 C3789 1.523 . S
H3791 C3766 0.950 . S
H3792 C3768 0.950 . S
H3793 C3769 0.949 . S
H3794 C3771 0.980 . S
H3795 C3773 0.950 . S
C3796 C3797 1.349 . S
C3796 C3798 1.327 . S
C3796 H3821 0.950 . S
C3797 C3796 1.349 . S
C3797 C3813 1.349 . S
C3798 C3796 1.327 . S
C3798 C3817 1.429 . S
C3798 H3822 0.950 . S
C3799 C3816 1.574 . S
C3799 C3818 1.368 . S
C3799 H3823 0.949 . S
H3800 C3804 0.949 . S
C3801 C3802 1.349 . S
C3801 C3803 1.327 . S
C3801 H3824 0.950 . S
C3802 C3801 1.349 . S
C3802 C3814 1.349 . S
C3803 C3801 1.327 . S
C3803 C3819 1.429 . S
C3803 H3825 0.950 . S
C3804 H3800 0.949 . S
C3804 C3812 1.574 . S
C3804 C3820 1.368 . S
H3805 C3813 0.950 . S
H3806 C3811 0.950 . S
H3807 C3812 0.949 . S
H3808 C3814 0.950 . S
H3809 C3815 0.950 . S
H3810 C3816 0.949 . S
C3811 H3806 0.950 . S
C3811 C3813 1.327 . S
C3811 C3817 1.429 . S
C3812 C3804 1.574 . S
C3812 H3807 0.949 . S
C3812 C3818 1.368 . S
C3813 C3797 1.349 . S
C3813 H3805 0.950 . S
C3813 C3811 1.327 . S
C3814 C3802 1.349 . S
C3814 H3808 0.950 . S
C3814 C3815 1.327 . S
C3815 H3809 0.950 . S
C3815 C3814 1.327 . S
C3815 C3819 1.429 . S
C3816 C3799 1.574 . S
C3816 H3810 0.949 . S
C3816 C3820 1.368 . S
C3817 C3798 1.429 . S
C3817 C3811 1.429 . S
C3817 C3818 1.523 . S
C3818 C3799 1.368 . S
C3818 C3812 1.368 . S
C3818 C3817 1.523 . S
C3819 C3803 1.429 . S
C3819 C3815 1.429 . S
C3819 C3820 1.523 . S
C3820 C3804 1.368 . S
C3820 C3816 1.368 . S
C3820 C3819 1.523 . S
H3821 C3796 0.950 . S
H3822 C3798 0.950 . S
H3823 C3799 0.949 . S
H3824 C3801 0.950 . S
H3825 C3803 0.950 . S
C3826 C3827 1.349 . S
C3826 C3828 1.327 . S
C3826 H3851 0.950 . S
C3827 C3826 1.349 . S
C3827 C3843 1.349 . S
C3828 C3826 1.327 . S
C3828 C3847 1.429 . S
C3828 H3852 0.950 . S
C3829 C3846 1.574 . S
C3829 C3848 1.368 . S
C3829 H3853 0.949 . S
H3830 C3834 0.949 . S
C3831 C3832 1.349 . S
C3831 C3833 1.327 . S
C3831 H3854 0.950 . S
C3832 C3831 1.349 . S
C3832 C3844 1.349 . S
C3833 C3831 1.327 . S
C3833 C3849 1.429 . S
C3833 H3855 0.950 . S
C3834 H3830 0.949 . S
C3834 C3842 1.574 . S
C3834 C3850 1.368 . S
H3835 C3843 0.950 . S
H3836 C3841 0.950 . S
H3837 C3842 0.949 . S
H3838 C3844 0.950 . S
H3839 C3845 0.950 . S
H3840 C3846 0.949 . S
C3841 H3836 0.950 . S
C3841 C3843 1.327 . S
C3841 C3847 1.429 . S
C3842 C3834 1.574 . S
C3842 H3837 0.949 . S
C3842 C3848 1.368 . S
C3843 C3827 1.349 . S
C3843 H3835 0.950 . S
C3843 C3841 1.327 . S
C3844 C3832 1.349 . S
C3844 H3838 0.950 . S
C3844 C3845 1.327 . S
C3845 H3839 0.950 . S
C3845 C3844 1.327 . S
C3845 C3849 1.429 . S
C3846 C3829 1.574 . S
C3846 H3840 0.949 . S
C3846 C3850 1.368 . S
C3847 C3828 1.429 . S
C3847 C3841 1.429 . S
C3847 C3848 1.523 . S
C3848 C3829 1.368 . S
C3848 C3842 1.368 . S
C3848 C3847 1.523 . S
C3849 C3833 1.429 . S
C3849 C3845 1.429 . S
C3849 C3850 1.523 . S
C3850 C3834 1.368 . S
C3850 C3846 1.368 . S
C3850 C3849 1.523 . S
H3851 C3826 0.950 . S
H3852 C3828 0.950 . S
H3853 C3829 0.949 . S
H3854 C3831 0.950 . S
H3855 C3833 0.950 . S
C977 C109 2.164 . S
C982 C338 2.129 1_556 S
C1007 C65 2.075 . S
C1012 C395 2.071 . S
C1037 C75 1.039 . S
C1042 C418 1.021 . S
C1072 C472 1.439 . S
C1067 C84 1.439 . S
C1097 C25 1.208 . S
C1102 C512 1.196 . S
C1132 C543 0.283 . S
C1127 C28 0.274 . S
C1162 C595 1.191 . S
C1157 C47 1.174 . S
C1187 C9 1.738 . S
C1192 C618 1.686 . S
C1222 C355 2.503 . S
C1217 C233 2.515 . S
C1247 C249 0.299 . S
C1252 C392 0.365 . S
C1282 C435 1.390 . S
C1277 C275 1.399 . S
C1312 C458 1.167 . S
C1307 C173 1.182 . S
C1337 C224 1.793 . S
C1342 C498 1.797 . S
C1372 C546 1.468 . S
C1367 C243 1.491 . S
C1402 C592 0.270 . S
C1397 C266 0.187 . S
C1432 C635 1.912 . S
C1427 C179 1.926 . S
C1462 C352 1.467 1_565 S
C1457 C163 1.494 . S
C1487 C289 1.996 1_554 S
C1492 C675 1.989 . S
C1522 C707 2.542 . S
C1517 C333 2.579 . S
C1552 C738 0.479 1_655 S
C1547 C308 0.470 . S
C1577 C123 1.330 . S
C1582 C632 1.318 . S
C1607 C126 1.550 . S
C1612 C432 1.554 . S
C1637 C327 2.342 . S
C1642 C795 2.326 . S
C1672 C818 0.549 . S
C1667 C299 0.508 . S
C1702 C347 2.142 . S
C1697 C67 2.184 . S
C1732 C826 2.111 . S
C1727 C98 2.075 . S
C1757 C89 1.079 . S
C1762 C427 1.061 . S
C1787 C79 1.499 . S
C1792 C783 1.487 . S
C1822 C503 1.197 . S
C1817 C11 1.216 . S
C1847 C51 0.279 . S
C1852 C712 0.303 . S
C1882 C586 1.270 . S
C1877 C33 1.250 . S
C1912 C867 1.678 . S
C1907 C14 1.746 . S
C1942 C346 2.489 . S
C1937 C140 2.492 . S
C1972 C823 0.354 . S
C1967 C319 0.267 . S
C1997 C112 1.413 . S
C2002 C426 1.413 . S
C2027 C285 1.212 . S
C2032 C787 1.199 . S
C2057 C149 1.851 . S
C2062 C507 1.824 . S
C2092 C715 1.508 . S
C2087 C313 1.532 . S
C2117 C121 0.145 . S
C2122 C583 0.268 . S
C2147 C291 1.967 . S
C2152 C866 1.949 . S
C2177 C182 1.503 . S
C2182 C343 1.473 . S
C2207 C168 1.996 . S
C2212 C666 2.016 . S
C2237 C263 2.632 . S
C2242 C538 2.596 . S
C2267 C247 0.544 . S
C2272 C747 0.553 . S
C2302 C863 1.302 . S
C2297 C277 1.322 . S
C2327 C219 1.598 . S
C2332 C423 1.575 . S
C2362 C466 2.375 . S
C2357 C257 2.393 . S
C2392 C387 0.553 . S
C2387 C201 0.519 . S
C2417 C81 2.164 . S
C2422 C898 2.130 . S
C2452 C835 2.071 . S
C2447 C93 2.075 . S
C2477 C103 1.039 . S
C2482 C938 1.019 . S
C2507 C56 1.439 . S
C2512 C792 1.439 . S
C2537 C53 1.209 . S
C2542 C672 1.196 . S
C2572 C703 0.283 . S
C2567 C0 0.274 . S
C2602 C755 1.191 . S
C2597 C19 1.172 . S
C2632 C858 1.687 . S
C2627 C37 1.738 . S
C2662 C915 2.503 . S
C2657 C261 2.515 . S
C2687 C193 0.299 . S
C2692 C832 0.365 . S
C2722 C955 1.389 . S
C2717 C205 1.399 . S
C2752 C778 1.166 . S
C2747 C215 1.182 . S
C2782 C658 1.797 . S
C2777 C252 1.793 . S
C2807 C187 1.491 . S
C2812 C706 1.468 . S
C2842 C752 0.270 . S
C2837 C196 0.187 . S
C2867 C221 1.926 . S
C2872 C875 1.912 . S
C2902 C912 1.481 . S
C2897 C317 1.494 . S
C2927 C135 1.996 . S
C2932 C515 1.989 . S
C2962 C547 2.542 . S
C2957 C151 2.584 . S
C2992 C578 0.478 . S
C2987 C154 0.469 . S
C3022 C872 1.318 . S
C3017 C305 1.330 . S
C3047 C280 1.550 . S
C3052 C952 1.554 . S
C3082 C475 2.326 . S
C3077 C145 2.337 . S
C3112 C378 0.549 . S
C3107 C117 0.509 . S
C3137 C95 2.184 . S
C3142 C907 2.142 . S
C3172 C386 2.110 . S
C3167 C70 2.075 . S
C3197 C61 1.079 . S
C3202 C947 1.061 . S
C3227 C107 1.499 . S
C3232 C463 1.487 . S
C3257 C39 1.216 . S
C3262 C663 1.197 . S
C3292 C552 0.302 . S
C3287 C23 0.273 . S
C3317 C5 1.250 . S
C3322 C746 1.265 . S
C3347 C42 1.738 . S
C3352 C627 1.678 . S
C3382 C906 2.489 . S
C3377 C322 2.492 . S
C3407 C165 0.267 . S
C3412 C383 0.354 . S
C3442 C946 1.413 . S
C3437 C294 1.414 . S
C3467 C131 1.212 . S
C3472 C467 1.199 . S
C3497 C331 1.851 . S
C3502 C667 1.826 . S
C3532 C555 1.508 . S
C3527 C159 1.532 . S
C3557 C303 0.145 . S
C3562 C743 0.268 . S
C3592 C626 1.949 . S
C3587 C137 1.967 . S
C3622 C903 1.473 . S
C3617 C238 1.503 . S
C3652 C506 2.028 1_655 S
C3647 C210 1.996 . S
C3677 C235 2.632 . S
C3682 C698 2.596 . S
C3712 C587 0.553 . S
C3707 C191 0.543 . S
C3737 C207 1.322 . S
C3742 C623 1.302 . S
C3767 C177 1.598 . S
C3772 C943 1.575 . S
C3802 C786 2.375 . S
C3797 C229 2.393 1_565 S
C3832 C827 0.553 . S
C3827 C271 0.519 . S
