# Generated by pormake.
# Topology pth, (4,4)-cn, num edge types: 1
# Building blocks:
#     Node 0, Type 0, BuildingBlock: KUFVIS_clean_sbu_0, # of connection points: 4
#     Node 1, Type 0, BuildingBlock: KUFVIS_clean_sbu_0, # of connection points: 4
#     Node 2, Type 0, BuildingBlock: KUFVIS_clean_sbu_0, # of connection points: 4
#     Node 3, Type 1, BuildingBlock: KOZSID_clean_sbu_0, # of connection points: 4
#     Node 4, Type 1, BuildingBlock: KOZSID_clean_sbu_0, # of connection points: 4
#     Node 5, Type 1, BuildingBlock: KOZSID_clean_sbu_0, # of connection points: 4
#     Edge 6, Type (0, 1), BuildingBlock: ZUJKAS_clean_linker_0, # of connection points: 2
#     Edge 7, Type (0, 1), BuildingBlock: ZUJKAS_clean_linker_0, # of connection points: 2
#     Edge 8, Type (0, 1), BuildingBlock: ZUJKAS_clean_linker_0, # of connection points: 2
#     Edge 9, Type (0, 1), BuildingBlock: ZUJKAS_clean_linker_0, # of connection points: 2
#     Edge 10, Type (0, 1), BuildingBlock: ZUJKAS_clean_linker_0, # of connection points: 2
#     Edge 11, Type (0, 1), BuildingBlock: ZUJKAS_clean_linker_0, # of connection points: 2
#     Edge 12, Type (0, 1), BuildingBlock: ZUJKAS_clean_linker_0, # of connection points: 2
#     Edge 13, Type (0, 1), BuildingBlock: ZUJKAS_clean_linker_0, # of connection points: 2
#     Edge 14, Type (0, 1), BuildingBlock: ZUJKAS_clean_linker_0, # of connection points: 2
#     Edge 15, Type (0, 1), BuildingBlock: ZUJKAS_clean_linker_0, # of connection points: 2
#     Edge 16, Type (0, 1), BuildingBlock: ZUJKAS_clean_linker_0, # of connection points: 2
#     Edge 17, Type (0, 1), BuildingBlock: ZUJKAS_clean_linker_0, # of connection points: 2
# Relax obj value: 0.010
# Max RMSD: 0.082
# Mean RMSD: 0.051
data_MOF--net-pth--node1-KUFVIS_clean_sbu_0--node2-KOZSID_clean_sbu_0--edge1-ZUJKAS_clean_linker_0
_symmetry_space_group_name_H-M    P1
_symmetry_Int_Tables_number       1
_symmetry_cell_setting            triclinic
loop_
_symmetry_equiv_pos_as_xyz
'x, y, z'
_cell_length_a     33.384761
_cell_length_b     33.468061
_cell_length_c     77.333531
_cell_angle_alpha  88.231104
_cell_angle_beta   89.634818
_cell_angle_gamma 120.25282
loop_
_atom_site_label
_atom_site_type_symbol
_atom_site_fract_x
_atom_site_fract_y
_atom_site_fract_z
_atom_type_partial_charge
Mn0 Mn 0.07723 0.05434 0.04633 0.0
Mn1 Mn 0.02402 0.09992 0.02283 0.0
C2 C 0.03311 0.01558 0.02284 0.0
C3 C 0.07796 0.0079 0.06949 0.0
C4 C 0.12673 0.13374 0.01895 0.0
O5 O 0.0786 0.10244 0.06239 0.0
O6 O 0.04182 0.12926 0.04559 0.0
C7 C 0.9392 0.0647 0.04488 0.0
N8 N 0.95959 0.06857 0.02913 0.0
C9 C 0.88552 0.02924 0.01558 0.0
C10 C 0.86367 0.02494 0.03164 0.0
C11 C 0.89063 0.0425 0.04637 0.0
C12 C 0.93398 0.05111 0.01494 0.0
H13 H 0.95985 0.07862 0.05618 0.0
C14 C 0.06208 0.1291 0.05958 0.0
O15 O 0.11616 0.04084 0.06231 0.0
O16 O 0.03953 0.00309 0.06362 0.0
N17 N 0.00432 0.07509 1.00052 0.0
C18 C 0.0307 0.08015 0.9862 0.0
C19 C 0.00903 0.06371 0.9704 0.0
C20 C 0.96064 0.04313 0.96942 0.0
C21 C 0.93424 0.0384 0.98434 0.0
C22 C 0.95771 0.055 0.99975 0.0
H23 H 0.06799 0.0968 0.98682 0.0
O24 O 0.06502 0.00768 0.02856 0.0
O25 O 0.0276 0.04583 0.03111 0.0
O26 O 0.12775 0.10612 0.03048 0.0
O27 O 0.08972 0.13402 0.01513 0.0
C28 C 0.88559 0.01798 0.98453 0.0
C29 C 0.86119 0.01282 1.00017 0.0
H30 H 0.82624 0.00816 0.03281 0.0
H31 H 0.87403 0.03926 0.05882 0.0
H32 H 0.02961 0.0674 0.95896 0.0
H33 H 0.94413 0.03095 0.95716 0.0
H34 H 0.86651 0.00559 0.97274 0.0
H35 H 0.82371 0.99623 1.0002 0.0
Mn36 Mn 0.04139 0.06364 0.37905 0.0
Mn37 Mn 0.10005 0.16399 0.39964 0.0
C38 C 0.08847 0.06905 0.4019 0.0
C39 C 0.03712 0.01596 0.35674 0.0
C40 C 0.99654 0.09724 0.40508 0.0
O41 O 0.03846 0.11068 0.3623 0.0
O42 O 0.08408 0.17629 0.37612 0.0
C43 C 0.18585 0.20995 0.3778 0.0
N44 N 0.16464 0.19428 0.39365 0.0
C45 C 0.23801 0.22284 0.40745 0.0
C46 C 0.26069 0.23954 0.39128 0.0
C47 C 0.23447 0.23293 0.37639 0.0
C48 C 0.1895 0.20028 0.40805 0.0
H49 H 0.16579 0.2049 0.36633 0.0
C50 C 0.05971 0.15475 0.36321 0.0
O51 O 0.99998 0.01069 0.36445 0.0
O52 O 0.07642 0.0499 0.36156 0.0
N53 N 0.11807 0.15749 0.42251 0.0
C54 C 0.09076 0.13691 0.43693 0.0
C55 C 0.11154 0.13997 0.45293 0.0
C56 C 0.16009 0.16431 0.45395 0.0
C57 C 0.18748 0.18469 0.4389 0.0
C58 C 0.16482 0.1811 0.42336 0.0
H59 H 0.05341 0.11858 0.43626 0.0
O60 O 0.05562 0.02907 0.39721 0.0
O61 O 0.09311 0.1048 0.39296 0.0
O62 O 0.99374 0.06571 0.39542 0.0
O63 O 0.03418 0.13545 0.40703 0.0
C64 C 0.23633 0.20809 0.43868 0.0
C65 C 0.26158 0.22697 0.42295 0.0
H66 H 0.29817 0.25714 0.39014 0.0
H67 H 0.2517 0.24553 0.36386 0.0
H68 H 0.0902 0.12388 0.46448 0.0
H69 H 0.17599 0.16698 0.46635 0.0
H70 H 0.2548 0.21123 0.45049 0.0
H71 H 0.2991 0.24428 0.4229 0.0
Mn72 Mn 0.08025 0.05173 0.71364 0.0
Mn73 Mn 0.03428 0.1065 0.73486 0.0
C74 C 0.11944 0.09872 0.7364 0.0
C75 C 0.12602 0.04882 0.69114 0.0
C76 C 1.00206 0.00496 0.74144 0.0
O77 O 0.03085 0.04725 0.69699 0.0
O78 O 0.00343 0.0845 0.71248 0.0
C79 C 0.06713 0.18719 0.71034 0.0
N80 N 0.06452 0.16967 0.72671 0.0
C81 C 0.10374 0.24589 0.73806 0.0
C82 C 0.10675 0.26482 0.72134 0.0
C83 C 0.08864 0.23533 0.7074 0.0
C84 C 0.08269 0.19774 0.74014 0.0
H85 H 0.05274 0.16459 0.69963 0.0
C86 C 0.00323 0.06276 0.69913 0.0
O87 O 0.09387 0.01143 0.69908 0.0
O88 O 0.13056 0.08768 0.69591 0.0
N89 N 0.0602 0.13022 0.75674 0.0
C90 C 0.05558 0.10646 0.77195 0.0
C91 C 0.07232 0.13085 0.78716 0.0
C92 C 0.09255 0.17923 0.78664 0.0
C93 C 0.09656 0.20289 0.77085 0.0
C94 C 0.07986 0.1768 0.75609 0.0
H95 H 0.03905 0.06917 0.77247 0.0
O96 O 0.12797 0.06686 0.73166 0.0
O97 O 0.08862 0.1028 0.72752 0.0
O98 O 0.02933 0.00296 0.73027 0.0
O99 O 1.00156 0.04211 0.74429 0.0
C100 C 0.1162 0.25131 0.76918 0.0
C101 C 0.12044 0.27286 0.75277 0.0
H102 H 0.12288 0.3019 0.71906 0.0
H103 H 0.09087 0.24965 0.69446 0.0
H104 H 0.06907 0.11237 0.7993 0.0
H105 H 0.10492 0.19786 0.79845 0.0
H106 H 0.12863 0.27239 0.78042 0.0
H107 H 0.13638 0.31017 0.75163 0.0
C108 C 0.1036 0.64921 0.18748 0.0
C109 C 0.14784 0.68434 0.18249 0.0
C110 C 0.1781 0.67815 0.19238 0.0
C111 C 0.15076 0.63967 0.20275 0.0
N112 N 0.10486 0.62028 0.19986 0.0
Co113 Co 0.05283 0.56521 0.21264 0.0
N114 N 0.09721 0.55806 0.22805 0.0
C115 C 0.14403 0.5845 0.22759 0.0
C116 C 0.16534 0.56975 0.2391 0.0
C117 C 0.13013 0.53102 0.24721 0.0
C118 C 0.08921 0.52446 0.24015 0.0
N119 N 1.00074 0.51076 0.22568 0.0
C120 C 1.00192 0.48206 0.23818 0.0
C121 C 0.95769 0.44776 0.24353 0.0
C122 C 0.9274 0.4545 0.23386 0.0
C123 C 0.95477 0.49245 0.22323 0.0
N124 N 0.00851 0.57172 0.19697 0.0
C125 C 0.96182 0.54412 0.19704 0.0
C126 C 0.94044 0.55811 0.18527 0.0
C127 C 0.97542 0.5973 0.17732 0.0
C128 C 0.01642 0.60495 0.18468 0.0
N129 N 0.05691 0.5225 0.19626 0.0
C130 C 0.06243 0.45716 0.17558 0.0
C131 C 0.01958 0.45146 0.18069 0.0
C132 C 0.01763 0.48438 0.19081 0.0
C133 C 0.10248 0.49695 0.18055 0.0
C134 C 0.09897 0.52883 0.19081 0.0
N135 N 0.04876 0.60787 0.22905 0.0
C136 C 0.00437 0.63769 0.24288 0.0
C137 C 0.0441 0.67272 0.25039 0.0
C138 C 0.08601 0.67383 0.24734 0.0
C139 C 0.08755 0.64148 0.23674 0.0
C140 C 0.0074 0.60584 0.23245 0.0
H141 H 0.12066 0.64469 0.23482 0.0
H142 H 0.97586 0.58033 0.22709 0.0
H143 H 0.98388 0.47788 0.19423 0.0
H144 H 0.13082 0.55792 0.1944 0.0
C145 C 0.16703 0.6218 0.21569 0.0
C146 C 0.06154 0.64579 0.18044 0.0
C147 C 0.0439 0.48458 0.24476 0.0
C148 C 0.93869 0.50858 0.20963 0.0
H149 H 0.15722 0.71207 0.17289 0.0
H150 H 0.2155 0.6997 0.19228 0.0
H151 H 0.20217 0.58466 0.24103 0.0
H152 H 0.13415 0.50941 0.25693 0.0
H153 H 0.94837 0.41999 0.25311 0.0
H154 H 0.88997 0.43318 0.23406 0.0
H155 H 0.9036 0.54284 0.18326 0.0
H156 H 0.9709 0.61861 0.16763 0.0
H157 H 0.98751 0.42171 0.17686 0.0
H158 H 0.13654 0.50295 0.17693 0.0
H159 H 0.97102 0.63531 0.24465 0.0
H160 H 0.11772 0.6995 0.25313 0.0
C161 C 0.46704 0.00331 0.57325 0.0
C162 C 0.43262 0.96018 0.57968 0.0
C163 C 0.43718 0.92803 0.57082 0.0
C164 C 0.47386 0.95316 0.5595 0.0
N165 N 0.49346 0.99952 0.56071 0.0
Co166 Co 0.5465 0.04875 0.54613 0.0
N167 N 0.54973 1.0014 0.53181 0.0
C168 C 0.52135 0.95495 0.53318 0.0
C169 C 0.53181 0.93128 0.52156 0.0
C170 C 0.56946 0.96451 0.5123 0.0
C171 C 0.58005 0.00671 0.51894 0.0
N172 N 0.60015 0.098 0.53178 0.0
C173 C 0.62656 0.09418 0.51924 0.0
C174 C 0.66263 0.13731 0.51352 0.0
C175 C 0.65889 0.16942 0.52271 0.0
C176 C 0.6212 0.14432 0.53358 0.0
N177 N 0.54256 0.09613 0.56021 0.0
C178 C 0.56989 0.14267 0.55849 0.0
C179 C 0.55777 0.16637 0.56949 0.0
C180 C 0.51986 0.13305 0.5786 0.0
C181 C 0.51096 0.09079 0.57256 0.0
N182 N 0.59137 0.04663 0.56246 0.0
C183 C 0.65992 0.04436 0.58303 0.0
C184 C 0.66224 0.0862 0.57846 0.0
C185 C 0.62776 0.08651 0.5684 0.0
C186 C 0.62185 0.00353 0.57759 0.0
C187 C 0.58832 0.00544 0.56739 0.0
N188 N 0.50181 0.0509 0.52974 0.0
C189 C 0.47703 0.0948 0.51189 0.0
C190 C 0.43609 0.05457 0.50783 0.0
C191 C 0.42921 0.01236 0.51472 0.0
C192 C 0.4623 0.01131 0.52543 0.0
C193 C 0.50893 0.09223 0.52281 0.0
H194 H 0.4548 0.97803 0.53022 0.0
H195 H 0.53897 0.12425 0.52554 0.0
H196 H 0.63167 0.11954 0.56544 0.0
H197 H 0.56068 0.97316 0.56342 0.0
C198 C 0.48745 0.93443 0.54636 0.0
C199 C 0.47136 0.04671 0.57866 0.0
C200 C 0.6201 0.05062 0.51293 0.0
C201 C 0.60571 0.16313 0.54603 0.0
H202 H 0.40597 0.9526 0.58937 0.0
H203 H 0.41511 0.89078 0.57197 0.0
H204 H 0.51484 0.89418 0.52027 0.0
H205 H 0.58763 0.95833 0.50203 0.0
H206 H 0.68962 0.14496 0.50398 0.0
H207 H 0.68163 0.20661 0.52186 0.0
H208 H 0.57399 0.20349 0.57052 0.0
H209 H 0.50047 0.13917 0.5884 0.0
H210 H 0.69051 0.11872 0.5827 0.0
H211 H 0.61847 0.97021 0.5808 0.0
H212 H 0.48475 0.12838 0.50665 0.0
H213 H 0.39797 0.9801 0.5122 0.0
C214 C 0.67233 0.57874 0.85394 0.0
C215 C 0.70725 0.57137 0.84791 0.0
C216 C 0.70245 0.53347 0.85693 0.0
C217 C 0.66515 0.51999 0.86795 0.0
N218 N 0.64537 0.54661 0.86639 0.0
Co219 Co 0.59185 0.54066 0.88058 0.0
N220 N 0.58657 0.48656 0.89456 0.0
C221 C 0.61302 0.46679 0.89277 0.0
C222 C 0.60023 0.42922 0.9038 0.0
C223 C 0.56301 0.4243 0.91308 0.0
C224 C 0.55527 0.45933 0.90715 0.0
N225 N 0.53877 0.53518 0.89493 0.0
C226 C 0.51249 0.50375 0.90765 0.0
C227 C 0.47865 0.51214 0.91413 0.0
C228 C 0.4833 0.54989 0.90504 0.0
C229 C 0.5196 0.5624 0.89361 0.0
N230 N 0.59672 0.59438 0.86648 0.0
C231 C 0.5692 0.61311 0.86785 0.0
C232 C 0.58132 0.65004 0.85657 0.0
C233 C 0.61916 0.65561 0.84754 0.0
C234 C 0.62805 0.62171 0.85393 0.0
N235 N 0.54716 0.49695 0.86392 0.0
C236 C 0.48001 0.43099 0.84235 0.0
C237 C 0.47471 0.46647 0.84891 0.0
C238 C 0.50858 0.49904 0.85941 0.0
C239 C 0.52015 0.42983 0.84631 0.0
C240 C 0.55289 0.46271 0.85712 0.0
N241 N 0.63643 0.58425 0.89727 0.0
C242 C 0.66429 0.65275 0.91405 0.0
C243 C 0.70149 0.64846 0.91991 0.0
C244 C 0.7053 0.61114 0.91437 0.0
C245 C 0.6725 0.57954 0.90323 0.0
C246 C 0.63259 0.62069 0.90283 0.0
H247 H 0.6772 0.55174 0.89956 0.0
H248 H 0.60557 0.62648 0.89868 0.0
H249 H 0.50243 0.52524 0.86387 0.0
H250 H 0.58215 0.45925 0.85998 0.0
C251 C 0.64884 0.48354 0.88031 0.0
C252 C 0.66746 0.61781 0.84798 0.0
C253 C 0.51698 0.46443 0.91354 0.0
C254 C 0.53447 0.5975 0.88073 0.0
H255 H 0.73398 0.59179 0.83821 0.0
H256 H 0.72417 0.51816 0.85584 0.0
H257 H 0.61567 0.40754 0.90478 0.0
H258 H 0.54335 0.39759 0.92294 0.0
H259 H 0.45268 0.49241 0.92415 0.0
H260 H 0.46199 0.5656 0.90631 0.0
H261 H 0.56533 0.67118 0.85537 0.0
H262 H 0.63856 0.68216 0.8376 0.0
H263 H 0.4445 0.46923 0.84592 0.0
H264 H 0.52569 0.40287 0.84151 0.0
H265 H 0.66013 0.68141 0.9178 0.0
H266 H 0.73327 0.60607 0.9187 0.0
H267 H 0.09069 0.13416 0.09332 0.0
H268 H 0.0922 0.18614 0.1154 0.0
H269 H 0.04376 0.24973 0.07818 0.0
H270 H 0.04138 0.19808 0.0563 0.0
H271 H 0.1394 0.28259 0.11651 0.0
H272 H 0.94979 0.2126 0.11785 0.0
H273 H 0.97614 0.18327 0.10774 0.0
H274 H 0.97459 0.23025 0.09639 0.0
C275 C 0.08038 0.15922 0.08985 0.0
C276 C 0.06543 0.16144 0.07304 0.0
C277 C 0.08127 0.1889 0.10248 0.0
C278 C 0.06711 0.22115 0.09855 0.0
C279 C 0.05364 0.22433 0.08167 0.0
H280 H 0.11932 0.47089 0.14756 0.0
H281 H 0.12205 0.41218 0.13032 0.0
C282 C 0.05254 0.19476 0.06912 0.0
C283 C 0.06639 0.25191 0.11188 0.0
H284 H 0.99604 0.28643 0.13025 0.0
C285 C 0.10798 0.28312 0.11968 0.0
C286 C 0.02525 0.2521 0.11626 0.0
C287 C 0.97883 0.21742 0.10926 0.0
C288 C 0.10987 0.31578 0.13119 0.0
C289 C 0.06926 0.31788 0.1347 0.0
C290 C 0.02735 0.28537 0.12742 0.0
C291 C 0.0693 0.35377 0.14564 0.0
C292 C 0.1553 0.34747 0.13953 0.0
C293 C 0.03795 0.34068 0.15976 0.0
C294 C 0.0359 0.37419 0.16949 0.0
C295 C 0.06519 0.42162 0.16533 0.0
C296 C 0.09676 0.43469 0.15125 0.0
C297 C 0.09852 0.40112 0.14143 0.0
H298 H 0.17804 0.33211 0.14 0.0
H299 H 0.17386 0.38054 0.13179 0.0
H300 H 0.14972 0.35521 0.1529 0.0
H301 H 0.01491 0.30442 0.16324 0.0
H302 H 0.01156 0.36296 0.18037 0.0
H303 H 0.91578 0.01497 0.41241 0.0
H304 H 0.84909 0.00276 0.43008 0.0
H305 H 0.91542 0.14966 0.43733 0.0
H306 H 0.98253 0.16193 0.42025 0.0
H307 H 0.88225 0.10373 0.46706 0.0
H308 H 0.7449 0.02521 0.4185 0.0
H309 H 0.77523 0.99422 0.42198 0.0
H310 H 0.80576 0.05236 0.41277 0.0
C311 C 0.91595 0.0447 0.41763 0.0
C312 C 0.95458 0.08943 0.41488 0.0
C313 C 0.87763 0.0377 0.42767 0.0
C314 C 0.87679 0.07536 0.43487 0.0
C315 C 0.91511 0.12002 0.43193 0.0
H316 H 0.64167 0.08384 0.4794 0.0
H317 H 0.70349 0.08819 0.46062 0.0
C318 C 0.95354 0.12697 0.42212 0.0
C319 C 0.83723 0.06853 0.44611 0.0
H320 H 0.7199 0.02447 0.44742 0.0
C321 C 0.84677 0.08644 0.46273 0.0
C322 C 0.79092 0.04646 0.44043 0.0
C323 C 0.77853 0.02886 0.42239 0.0
C324 C 0.81156 0.08308 0.47379 0.0
C325 C 0.76505 0.05976 0.46833 0.0
C326 C 0.75544 0.04187 0.4517 0.0
C327 C 0.72623 0.05506 0.47946 0.0
C328 C 0.82493 0.10593 0.49099 0.0
C329 C 0.71767 0.03408 0.49615 0.0
C330 C 0.68293 0.03231 0.50693 0.0
C331 C 0.65564 0.05079 0.50112 0.0
C332 C 0.66275 0.0699 0.48419 0.0
C333 C 0.69785 0.07219 0.47348 0.0
H334 H 0.86217 0.13316 0.49102 0.0
H335 H 0.8038 0.12187 0.49429 0.0
H336 H 0.81906 0.07953 0.50127 0.0
H337 H 0.73813 0.01942 0.50091 0.0
H338 H 0.67764 0.01694 0.51989 0.0
H339 H 0.99339 0.91853 0.74145 0.0
H340 H 0.93735 0.84863 0.75819 0.0
H341 H 0.87978 0.92481 0.78133 0.0
H342 H 0.93516 0.99449 0.76478 0.0
H343 H 0.9226 0.83547 0.7954 0.0
H344 H 0.76627 0.81045 0.76133 0.0
H345 H 0.82433 0.84659 0.75242 0.0
H346 H 0.80241 0.86782 0.76889 0.0
C347 C 0.96877 0.92044 0.75007 0.0
C348 C 0.96878 0.96227 0.75164 0.0
C349 C 0.9368 0.88044 0.75964 0.0
C350 C 0.90398 0.88139 0.7708 0.0
C351 C 0.90427 0.9231 0.77256 0.0
H352 H 0.73538 0.70335 0.85659 0.0
H353 H 0.79419 0.76526 0.83732 0.0
C354 C 0.93622 0.96303 0.76311 0.0
C355 C 0.86968 0.83918 0.78089 0.0
H356 H 0.75323 0.76656 0.78774 0.0
C357 C 0.88558 0.82011 0.79364 0.0
C358 C 0.82142 0.81889 0.77844 0.0
C359 C 0.80245 0.83664 0.76443 0.0
C360 C 0.85439 0.78226 0.80442 0.0
C361 C 0.80608 0.76333 0.80248 0.0
C362 C 0.79025 0.78137 0.78932 0.0
C363 C 0.77134 0.72547 0.81422 0.0
C364 C 0.87338 0.76284 0.81778 0.0
C365 C 0.7384 0.68291 0.80758 0.0
C366 C 0.70484 0.64771 0.81856 0.0
C367 C 0.70355 0.65472 0.8363 0.0
C368 C 0.73615 0.69728 0.84294 0.0
C369 C 0.76979 0.73241 0.83198 0.0
H370 H 0.90979 0.77266 0.8146 0.0
H371 H 0.87283 0.77679 0.83056 0.0
H372 H 0.85192 0.7245 0.81894 0.0
H373 H 0.73874 0.67695 0.7939 0.0
H374 H 0.67973 0.61513 0.81323 0.0
H375 H 0.00327 0.92957 0.08342 0.0
H376 H 0.0034 0.872 0.10355 0.0
H377 H 0.15239 0.95406 0.10607 0.0
H378 H 0.15262 0.01135 0.0855 0.0
H379 H 0.12529 0.86541 0.10136 0.0
H380 H 0.01934 0.87329 0.15495 0.0
H381 H 0.99002 0.86194 0.13479 0.0
H382 H 0.04276 0.91622 0.13739 0.0
C383 C 0.03606 0.93574 0.08842 0.0
C384 C 0.07794 0.9752 0.0829 0.0
C385 C 0.03605 0.90283 0.10003 0.0
C386 C 0.07782 0.90894 0.1066 0.0
C387 C 0.11968 0.94864 0.10127 0.0
H388 H 0.08617 0.73209 0.19064 0.0
H389 H 0.09305 0.79747 0.17286 0.0
C390 C 0.11976 0.98144 0.08954 0.0
C391 C 0.07797 0.87268 0.11824 0.0
H392 H 0.02935 0.80727 0.15546 0.0
C393 C 0.10461 0.85299 0.11326 0.0
C394 C 0.05156 0.85682 0.13393 0.0
C395 C 0.02471 0.87851 0.14068 0.0
C396 C 0.10461 0.81719 0.12326 0.0
C397 C 0.07622 0.79963 0.13846 0.0
C398 C 0.0506 0.82018 0.14369 0.0
C399 C 0.07266 0.7601 0.14914 0.0
C400 C 0.13559 0.79905 0.11754 0.0
C401 C 0.05853 0.71718 0.14181 0.0
C402 C 0.05507 0.68009 0.15192 0.0
C403 C 0.06479 0.68497 0.16961 0.0
C404 C 0.07844 0.72762 0.17701 0.0
C405 C 0.08228 0.76484 0.16687 0.0
H406 H 0.16491 0.82497 0.10914 0.0
H407 H 0.14993 0.78949 0.12881 0.0
H408 H 0.11515 0.76776 0.10994 0.0
H409 H 0.04983 0.71222 0.12828 0.0
H410 H 0.0446 0.64748 0.14597 0.0
H411 H 0.07393 0.01993 0.43225 0.0
H412 H 0.13227 0.01688 0.4504 0.0
H413 H 0.24074 0.11903 0.41619 0.0
H414 H 0.18204 0.11813 0.39721 0.0
H415 H 0.26133 0.05871 0.42367 0.0
H416 H 0.21038 0.09909 0.48589 0.0
H417 H 0.16429 0.04571 0.4783 0.0
H418 H 0.18235 0.09897 0.4661 0.0
C419 C 0.11033 0.04212 0.42881 0.0
C420 C 0.12374 0.07121 0.41386 0.0
C421 C 0.14374 0.04071 0.43926 0.0
C422 C 0.19132 0.06898 0.43511 0.0
C423 C 0.20447 0.09737 0.41992 0.0
H424 H 0.41134 0.12146 0.50647 0.0
H425 H 0.35408 0.1253 0.48818 0.0
C426 C 0.17099 0.09767 0.40924 0.0
C427 C 0.22735 0.06711 0.44592 0.0
H428 H 0.26337 0.07053 0.48742 0.0
C429 C 0.26189 0.06179 0.4376 0.0
C430 C 0.22859 0.07118 0.46414 0.0
C431 C 0.19464 0.07951 0.47408 0.0
C432 C 0.29731 0.06048 0.44687 0.0
C433 C 0.29747 0.0629 0.46511 0.0
C434 C 0.26312 0.06832 0.47345 0.0
C435 C 0.33333 0.0608 0.47581 0.0
C436 C 0.33482 0.05769 0.43692 0.0
C437 C 0.34075 0.02314 0.47508 0.0
C438 C 0.37432 0.02131 0.48528 0.0
C439 C 0.40071 0.05672 0.49671 0.0
C440 C 0.39258 0.09403 0.49759 0.0
C441 C 0.3594 0.09606 0.48724 0.0
H442 H 0.33775 0.0704 0.42326 0.0
H443 H 0.36907 0.07821 0.44296 0.0
H444 H 0.32615 0.02105 0.43678 0.0
H445 H 0.32034 0.99489 0.4667 0.0
H446 H 0.37972 0.99221 0.48408 0.0
H447 H 0.14547 0.08232 0.76778 0.0
H448 H 0.20503 0.13893 0.78637 0.0
H449 H 0.22734 0.24895 0.74993 0.0
H450 H 0.16669 0.19246 0.73173 0.0
H451 H 0.29451 0.19327 0.7796 0.0
H452 H 0.2222 0.30635 0.79372 0.0
H453 H 0.18783 0.24839 0.78636 0.0
H454 H 0.223 0.29549 0.77117 0.0
C455 C 0.16237 0.11878 0.76402 0.0
C456 C 0.15058 0.13329 0.74863 0.0
C457 C 0.19656 0.15109 0.77457 0.0
C458 C 0.22037 0.19851 0.76977 0.0
C459 C 0.2086 0.21293 0.7543 0.0
H460 H 0.49004 0.39885 0.81139 0.0
H461 H 0.42857 0.34176 0.79355 0.0
C462 C 0.17392 0.18064 0.74387 0.0
C463 C 0.25925 0.23225 0.78041 0.0
H464 H 0.29955 0.33359 0.80124 0.0
C465 C 0.29546 0.22384 0.7844 0.0
C466 C 0.26059 0.27203 0.78687 0.0
C467 C 0.22121 0.28116 0.78446 0.0
C468 C 0.33269 0.25395 0.79461 0.0
C469 C 0.33458 0.29445 0.80056 0.0
C470 C 0.29846 0.30284 0.79655 0.0
C471 C 0.37256 0.32795 0.8115 0.0
C472 C 0.3688 0.24126 0.79928 0.0
C473 C 0.36167 0.34021 0.82733 0.0
C474 C 0.39659 0.37347 0.83732 0.0
C475 C 0.44329 0.39501 0.83178 0.0
C476 C 0.45437 0.3824 0.81606 0.0
C477 C 0.41927 0.34955 0.80591 0.0
H478 H 0.35532 0.20359 0.79818 0.0
H479 H 0.39914 0.26004 0.79025 0.0
H480 H 0.38078 0.25092 0.81267 0.0
H481 H 0.32597 0.32413 0.83195 0.0
H482 H 0.38707 0.38219 0.84946 0.0
H483 H 0.92712 0.07176 0.70285 0.0
H484 H 0.87213 0.06497 0.6811 0.0
H485 H 0.94585 0.03304 0.64307 0.0
H486 H 1.00116 0.03885 0.66509 0.0
H487 H 0.89009 0.11743 0.65182 0.0
H488 H 0.81189 0.9323 0.63612 0.0
H489 H 0.84703 0.95608 0.65484 0.0
H490 H 0.87397 0.9661 0.63374 0.0
C491 C 0.93174 0.06299 0.6899 0.0
C492 C 0.96882 0.05599 0.68574 0.0
C493 C 0.9001 0.05911 0.67745 0.0
C494 C 0.90456 0.04824 0.66045 0.0
C495 C 0.94118 0.04067 0.65618 0.0
H496 H 0.75378 0.1007 0.57869 0.0
H497 H 0.81497 0.10105 0.59604 0.0
C498 C 0.97289 0.0442 0.66876 0.0
C499 C 0.87169 0.04711 0.64729 0.0
H500 H 0.78649 0.97647 0.62017 0.0
C501 C 0.8676 0.08665 0.64483 0.0
C502 C 0.84203 0.00682 0.63831 0.0
C503 C 0.84349 0.96272 0.64094 0.0
C504 C 0.83424 0.08684 0.63393 0.0
C505 C 0.8048 0.04671 0.62481 0.0
C506 C 0.80925 0.0073 0.62707 0.0
C507 C 0.76794 0.04451 0.61347 0.0
C508 C 0.82969 0.12951 0.63284 0.0
C509 C 0.72117 0.01148 0.61706 0.0
C510 C 0.6861 0.01096 0.60706 0.0
C511 C 0.69712 0.04356 0.59328 0.0
C512 C 0.74408 0.07578 0.58944 0.0
C513 C 0.77911 0.07601 0.59935 0.0
H514 H 0.84604 0.15208 0.64393 0.0
H515 H 0.84734 0.14995 0.62079 0.0
H516 H 0.7927 0.12009 0.63254 0.0
H517 H 0.71169 0.98676 0.62787 0.0
H518 H 0.65029 0.9858 0.61039 0.0
H519 H 0.05111 0.98428 0.99347 0.0
H520 H 0.99497 0.92248 0.97546 0.0
H521 H 0.88286 0.90983 0.00764 0.0
H522 H 0.93895 0.97112 0.0257 0.0
H523 H 0.93159 0.83089 0.98739 0.0
H524 H 0.83846 0.91433 0.95861 0.0
H525 H 0.89581 0.94673 0.96719 0.0
H526 H 0.84583 0.91872 0.98161 0.0
C527 C 0.01439 0.96892 0.99642 0.0
C528 C 0.99919 0.98353 0.01058 0.0
C529 C 0.9824 0.93355 0.98619 0.0
C530 C 0.93462 0.91192 0.99003 0.0
C531 C 0.9194 0.92672 0.00414 0.0
H532 H 0.68567 0.6871 0.94789 0.0
H533 H 0.74303 0.74827 0.96556 0.0
C534 C 0.95142 0.96199 0.01439 0.0
C535 C 0.90099 0.87196 0.97997 0.0
H536 H 0.80669 0.83483 0.95438 0.0
C537 C 0.90439 0.83177 0.9801 0.0
C538 C 0.86537 0.87297 0.97053 0.0
C539 C 0.86108 0.91557 0.9693 0.0
C540 C 0.87258 0.79238 0.97131 0.0
C541 C 0.83699 0.79356 0.96186 0.0
C542 C 0.83379 0.8338 0.96169 0.0
C543 C 0.80258 0.75375 0.95196 0.0
C544 C 0.87668 0.74952 0.97262 0.0
C545 C 0.81688 0.73628 0.93846 0.0
C546 C 0.78409 0.70117 0.92835 0.0
C547 C 0.73635 0.68331 0.93141 0.0
C548 C 0.72217 0.70046 0.94509 0.0
C549 C 0.75492 0.73529 0.95524 0.0
H550 H 0.89664 0.74964 0.98408 0.0
H551 H 0.84196 0.71769 0.97344 0.0
H552 H 0.89527 0.74817 0.96091 0.0
H553 H 0.8534 0.75073 0.93538 0.0
H554 H 0.79614 0.68918 0.91776 0.0
H555 H 0.96259 0.93233 0.34877 0.0
H556 H 0.96243 0.87414 0.33025 0.0
H557 H 0.10714 0.9666 0.31732 0.0
H558 H 0.10788 0.02427 0.33616 0.0
H559 H 0.98082 0.87284 0.29608 0.0
H560 H 0.10917 0.85307 0.33489 0.0
H561 H 0.082 0.88451 0.34231 0.0
H562 H 0.13047 0.91159 0.32718 0.0
C563 C 0.9943 0.94037 0.34189 0.0
C564 C 0.03537 0.98276 0.34407 0.0
C565 C 0.99418 0.90704 0.33132 0.0
C566 C 0.03507 0.91547 0.32272 0.0
C567 C 0.07551 0.95868 0.32423 0.0
H568 H 0.10875 0.76526 0.25203 0.0
H569 H 0.10522 0.82302 0.26955 0.0
C570 C 0.07577 0.99181 0.3349 0.0
C571 C 0.03563 0.87898 0.31234 0.0
H572 H 0.09052 0.81675 0.3078 0.0
C573 C 0.00461 0.86039 0.29871 0.0
C574 C 0.06648 0.86243 0.31583 0.0
C575 C 0.09858 0.87856 0.33095 0.0
C576 C 0.00443 0.82662 0.28826 0.0
C577 C 0.0359 0.8109 0.29157 0.0
C578 C 0.06666 0.82916 0.30523 0.0
C579 C 0.03759 0.77554 0.28095 0.0
C580 C 0.97123 0.80858 0.27353 0.0
C581 C 1.00097 0.72951 0.28173 0.0
C582 C 0.00312 0.69612 0.27193 0.0
C583 C 0.04196 0.70811 0.26108 0.0
C584 C 0.07862 0.75442 0.26041 0.0
C585 C 0.07655 0.78766 0.27031 0.0
H586 H 0.95497 0.82995 0.27079 0.0
H587 H 0.98938 0.80769 0.26159 0.0
H588 H 0.94327 0.77265 0.27689 0.0
H589 H 0.97091 0.71929 0.29008 0.0
H590 H 0.97458 0.66076 0.27306 0.0
H591 H 0.19509 0.12166 0.67221 0.0
H592 H 0.25118 0.12056 0.65201 0.0
H593 H 0.18686 0.97277 0.6606 0.0
H594 H 0.13009 0.97348 0.6806 0.0
H595 H 0.31465 0.09436 0.65878 0.0
H596 H 0.19669 0.9854 0.60817 0.0
H597 H 0.17859 0.01043 0.62466 0.0
H598 H 0.18081 0.95867 0.6295 0.0
C599 C 0.19247 0.08881 0.66964 0.0
C600 C 0.15794 0.04761 0.67798 0.0
C601 C 0.22467 0.08826 0.65811 0.0
C602 C 0.22301 0.04653 0.6546 0.0
C603 C 0.18831 0.00527 0.66279 0.0
H604 H 0.45279 0.02155 0.613 0.0
H605 H 0.39246 0.02139 0.63143 0.0
C606 C 0.15597 0.00576 0.67429 0.0
C607 C 0.25899 0.04667 0.64306 0.0
H608 H 0.27448 1.00077 0.60645 0.0
C609 C 0.30584 0.07401 0.6473 0.0
C610 C 0.24763 0.02056 0.62796 0.0
C611 C 0.19825 0.99245 0.62217 0.0
C612 C 0.3415 0.07544 0.63704 0.0
C613 C 0.33003 0.04809 0.62228 0.0
C614 C 0.28325 0.02133 0.61787 0.0
C615 C 0.36613 0.04729 0.61113 0.0
C616 C 0.39119 0.10693 0.64195 0.0
C617 C 0.37067 0.06072 0.59349 0.0
C618 C 0.40477 0.06037 0.58297 0.0
C619 C 0.43468 0.04628 0.58987 0.0
C620 C 0.43 0.03251 0.60745 0.0
C621 C 0.39583 0.03275 0.61797 0.0
H622 H 0.39458 0.13443 0.65053 0.0
H623 H 0.40386 0.08627 0.64903 0.0
H624 H 0.41388 0.12359 0.63028 0.0
H625 H 0.34811 0.07194 0.58791 0.0
H626 H 0.4079 0.07117 0.56944 0.0
H627 H 0.21487 0.14757 0.02285 0.0
H628 H 0.28591 0.2035 0.00677 0.0
H629 H 0.20806 0.25078 0.97694 0.0
H630 H 0.13735 0.19572 0.99287 0.0
H631 H 0.30557 0.21273 0.97067 0.0
H632 H 0.31482 0.37092 0.99525 0.0
H633 H 0.27879 0.31432 0.00549 0.0
H634 H 0.25966 0.33141 0.98643 0.0
C635 C 0.21285 0.16997 0.01292 0.0
C636 C 0.17026 0.16723 0.0093 0.0
C637 C 0.25351 0.20188 0.00373 0.0
C638 C 0.25242 0.23185 0.99086 0.0
C639 C 0.20994 0.22873 0.98707 0.0
H640 H 0.43707 0.38791 0.90491 0.0
H641 H 0.37542 0.33012 0.9245 0.0
C642 C 0.16941 0.19695 0.99619 0.0
C643 C 0.29527 0.2659 0.98108 0.0
H644 H 0.36263 0.38129 0.97047 0.0
C645 C 0.31836 0.24962 0.97074 0.0
C646 C 0.31228 0.31409 0.98135 0.0
C647 C 0.29041 0.33386 0.99285 0.0
C648 C 0.35694 0.28013 0.96018 0.0
C649 C 0.37247 0.32809 0.9598 0.0
C650 C 0.35044 0.34449 0.97063 0.0
C651 C 0.4107 0.36176 0.94796 0.0
C652 C 0.38076 0.26078 0.94952 0.0
C653 C 0.45063 0.39917 0.95462 0.0
C654 C 0.48563 0.43216 0.94344 0.0
C655 C 0.48102 0.42834 0.92546 0.0
C656 C 0.44129 0.39105 0.91877 0.0
C657 C 0.40633 0.35804 0.92994 0.0
H658 H 0.37327 0.22635 0.95478 0.0
H659 H 0.36801 0.25649 0.93611 0.0
H660 H 0.41891 0.28455 0.94899 0.0
H661 H 0.45457 0.40292 0.96847 0.0
H662 H 0.51602 0.46094 0.94878 0.0
H663 H 0.11367 0.24808 0.35729 0.0
H664 H 0.10578 0.29649 0.335 0.0
H665 H 0.99026 0.17584 0.31411 0.0
H666 H 0.99772 0.12657 0.33658 0.0
H667 H 0.10833 0.29166 0.29793 0.0
H668 H 0.94062 0.26592 0.32389 0.0
H669 H 0.97769 0.25239 0.33664 0.0
H670 H 0.94365 0.21477 0.31996 0.0
C671 C 0.08651 0.23156 0.34799 0.0
C672 C 0.05606 0.1833 0.34886 0.0
C673 C 0.08219 0.25941 0.3352 0.0
C674 C 0.04715 0.23988 0.32303 0.0
C675 C 0.01721 0.19166 0.32354 0.0
H676 H 0.03858 0.40558 0.23397 0.0
H677 H 0.03646 0.34254 0.25195 0.0
C678 C 0.02169 0.16355 0.33632 0.0
C679 C 0.04214 0.27068 0.31008 0.0
H680 H 0.97387 0.3165 0.29949 0.0
C681 C 0.07871 0.29674 0.29811 0.0
C682 C 0.00371 0.27762 0.31053 0.0
C683 C 0.96419 0.25153 0.32348 0.0
C684 C 0.07821 0.33005 0.28673 0.0
C685 C 0.03992 0.33723 0.28725 0.0
C686 C 0.00305 0.31073 0.29906 0.0
C687 C 0.0388 0.37387 0.27629 0.0
C688 C 0.11945 0.35854 0.27469 0.0
C689 C 0.03968 0.41176 0.28401 0.0
C690 C 0.0408 0.44754 0.27377 0.0
C691 C 0.04074 0.44576 0.25568 0.0
C692 C 0.0388 0.40749 0.24793 0.0
C693 C 0.03778 0.37173 0.25817 0.0
H694 H 0.14982 0.35517 0.27828 0.0
H695 H 0.11001 0.34668 0.26131 0.0
H696 H 0.12974 0.39569 0.27471 0.0
H697 H 0.04041 0.41405 0.29796 0.0
H698 H 0.04225 0.47686 0.27993 0.0
loop_
_geom_bond_atom_site_label_1
_geom_bond_atom_site_label_2
_geom_bond_distance
_geom_bond_site_symmetry_2
_ccdc_geom_bond_type
Mn0 O5 2.095 . S
Mn0 O15 2.162 . S
Mn0 O16 2.297 1_545 S
Mn0 O24 2.385 1_545 S
Mn0 O25 2.209 . S
Mn0 O26 2.094 . S
Mn1 O6 2.121 . S
Mn1 N8 2.257 1_455 S
Mn1 N17 2.282 1_554 S
Mn1 O25 2.215 . S
Mn1 O27 2.117 . S
C2 O24 1.234 . S
C2 O25 1.283 1_565 S
C3 O15 1.281 1_565 S
C3 O16 1.236 . S
C4 O26 1.240 . S
C4 O27 1.264 . S
O5 Mn0 2.095 . S
O5 C14 1.250 . S
O6 Mn1 2.121 . S
O6 C14 1.258 . S
C7 N8 1.326 . S
C7 C11 1.460 . S
C7 H13 0.929 . S
N8 Mn1 2.257 1_655 S
N8 C7 1.326 . S
N8 C12 1.362 . S
C9 C10 1.258 . S
C9 C12 1.431 . S
C9 C29 1.449 1_554 S
C10 C9 1.258 . S
C10 C11 1.477 . S
C10 H30 0.931 . S
C11 C7 1.460 . S
C11 C10 1.477 . S
C11 H31 0.930 . S
C12 N8 1.362 . S
C12 C9 1.431 . S
C12 C22 1.476 1_554 S
H13 C7 0.929 . S
C14 O5 1.250 . S
C14 O6 1.258 . S
O15 Mn0 2.162 . S
O15 C3 1.281 1_545 S
O16 Mn0 2.297 1_565 S
O16 C3 1.236 . S
N17 Mn1 2.282 1_556 S
N17 C18 1.328 . S
N17 C22 1.318 1_455 S
C18 N17 1.328 . S
C18 C19 1.457 . S
C18 H23 0.929 . S
C19 C18 1.457 . S
C19 C20 1.291 1_455 S
C19 H32 0.931 . S
C20 C19 1.291 1_655 S
C20 C21 1.373 . S
C20 H33 0.929 . S
C21 C20 1.373 . S
C21 C22 1.396 . S
C21 C28 1.403 . S
C22 C12 1.476 1_556 S
C22 N17 1.318 1_655 S
C22 C21 1.396 . S
H23 C18 0.929 . S
O24 Mn0 2.385 1_565 S
O24 C2 1.234 . S
O25 Mn0 2.209 . S
O25 Mn1 2.215 . S
O25 C2 1.283 1_545 S
O26 Mn0 2.094 . S
O26 C4 1.240 . S
O27 Mn1 2.117 . S
O27 C4 1.264 . S
C28 C21 1.403 . S
C28 C29 1.399 . S
C28 H34 0.929 . S
C29 C9 1.449 1_556 S
C29 C28 1.399 . S
C29 H35 0.930 . S
H30 C10 0.931 . S
H31 C11 0.930 . S
H32 C19 0.931 . S
H33 C20 0.929 . S
H34 C28 0.929 . S
H35 C29 0.930 . S
Mn36 O41 2.095 . S
Mn36 O51 2.162 1_445 S
Mn36 O52 2.297 . S
Mn36 O60 2.385 . S
Mn36 O61 2.209 . S
Mn36 O62 2.094 1_455 S
Mn37 O42 2.121 . S
Mn37 N44 2.257 . S
Mn37 N53 2.282 . S
Mn37 O61 2.215 . S
Mn37 O63 2.117 . S
C38 O60 1.234 . S
C38 O61 1.283 . S
C39 O51 1.281 1_455 S
C39 O52 1.236 1_565 S
C40 O62 1.240 . S
C40 O63 1.264 1_655 S
O41 Mn36 2.095 . S
O41 C50 1.250 . S
O42 Mn37 2.121 . S
O42 C50 1.258 . S
C43 N44 1.326 . S
C43 C47 1.460 . S
C43 H49 0.929 . S
N44 Mn37 2.257 . S
N44 C43 1.326 . S
N44 C48 1.362 . S
C45 C46 1.258 . S
C45 C48 1.431 . S
C45 C65 1.449 . S
C46 C45 1.258 . S
C46 C47 1.477 . S
C46 H66 0.931 . S
C47 C43 1.460 . S
C47 C46 1.477 . S
C47 H67 0.930 . S
C48 N44 1.362 . S
C48 C45 1.431 . S
C48 C58 1.476 . S
H49 C43 0.929 . S
C50 O41 1.250 . S
C50 O42 1.258 . S
O51 Mn36 2.162 1_665 S
O51 C39 1.281 1_655 S
O52 Mn36 2.297 . S
O52 C39 1.236 1_545 S
N53 Mn37 2.282 . S
N53 C54 1.328 . S
N53 C58 1.318 . S
C54 N53 1.328 . S
C54 C55 1.457 . S
C54 H59 0.929 . S
C55 C54 1.457 . S
C55 C56 1.291 . S
C55 H68 0.931 . S
C56 C55 1.291 . S
C56 C57 1.373 . S
C56 H69 0.929 . S
C57 C56 1.373 . S
C57 C58 1.396 . S
C57 C64 1.403 . S
C58 C48 1.476 . S
C58 N53 1.318 . S
C58 C57 1.396 . S
H59 C54 0.929 . S
O60 Mn36 2.385 . S
O60 C38 1.234 . S
O61 Mn36 2.209 . S
O61 Mn37 2.215 . S
O61 C38 1.283 . S
O62 Mn36 2.094 1_655 S
O62 C40 1.240 . S
O63 Mn37 2.117 . S
O63 C40 1.264 1_455 S
C64 C57 1.403 . S
C64 C65 1.399 . S
C64 H70 0.929 . S
C65 C45 1.449 . S
C65 C64 1.399 . S
C65 H71 0.930 . S
H66 C46 0.931 . S
H67 C47 0.930 . S
H68 C55 0.931 . S
H69 C56 0.929 . S
H70 C64 0.929 . S
H71 C65 0.930 . S
Mn72 O77 2.095 . S
Mn72 O87 2.156 1_545 S
Mn72 O88 2.297 . S
Mn72 O96 2.385 . S
Mn72 O97 2.209 . S
Mn72 O98 2.094 1_545 S
Mn73 O78 2.115 1_455 S
Mn73 N80 2.257 . S
Mn73 N89 2.282 . S
Mn73 O97 2.215 . S
Mn73 O99 2.117 1_455 S
C74 O96 1.234 . S
C74 O97 1.283 . S
C75 O87 1.276 1_545 S
C75 O88 1.236 . S
C76 O98 1.240 1_655 S
C76 O99 1.264 1_565 S
O77 Mn72 2.095 . S
O77 C86 1.257 . S
O78 Mn73 2.115 1_655 S
O78 C86 1.246 1_655 S
C79 N80 1.326 . S
C79 C83 1.460 . S
C79 H85 0.929 . S
N80 Mn73 2.257 . S
N80 C79 1.326 . S
N80 C84 1.362 . S
C81 C82 1.258 . S
C81 C84 1.431 . S
C81 C101 1.449 . S
C82 C81 1.258 . S
C82 C83 1.477 . S
C82 H102 0.931 . S
C83 C79 1.460 . S
C83 C82 1.477 . S
C83 H103 0.930 . S
C84 N80 1.362 . S
C84 C81 1.431 . S
C84 C94 1.476 . S
H85 C79 0.929 . S
C86 O77 1.257 . S
C86 O78 1.246 1_455 S
O87 Mn72 2.156 1_565 S
O87 C75 1.276 1_565 S
O88 Mn72 2.297 . S
O88 C75 1.236 . S
N89 Mn73 2.282 . S
N89 C90 1.328 . S
N89 C94 1.318 . S
C90 N89 1.328 . S
C90 C91 1.457 . S
C90 H95 0.929 . S
C91 C90 1.457 . S
C91 C92 1.291 . S
C91 H104 0.931 . S
C92 C91 1.291 . S
C92 C93 1.373 . S
C92 H105 0.929 . S
C93 C92 1.373 . S
C93 C94 1.396 . S
C93 C100 1.403 . S
C94 C84 1.476 . S
C94 N89 1.318 . S
C94 C93 1.396 . S
H95 C90 0.929 . S
O96 Mn72 2.385 . S
O96 C74 1.234 . S
O97 Mn72 2.209 . S
O97 Mn73 2.215 . S
O97 C74 1.283 . S
O98 Mn72 2.094 1_565 S
O98 C76 1.240 1_455 S
O99 Mn73 2.117 1_655 S
O99 C76 1.264 1_545 S
C100 C93 1.403 . S
C100 C101 1.399 . S
C100 H106 0.929 . S
C101 C81 1.449 . S
C101 C100 1.399 . S
C101 H107 0.930 . S
H102 C82 0.931 . S
H103 C83 0.930 . S
H104 C91 0.931 . S
H105 C92 0.929 . S
H106 C100 0.929 . S
H107 C101 0.930 . S
C108 C109 1.443 . S
C108 N112 1.376 . S
C108 C146 1.389 . S
C109 C108 1.443 . S
C109 C110 1.340 . S
C109 H149 0.951 . S
C110 C109 1.340 . S
C110 C111 1.439 . S
C110 H150 0.950 . S
C111 C110 1.439 . S
C111 N112 1.374 . S
C111 C145 1.395 . S
N112 C108 1.376 . S
N112 C111 1.374 . S
N112 Co113 2.008 . S
Co113 N112 2.008 . S
Co113 N114 1.995 . S
Co113 N119 2.008 1_455 S
Co113 N124 1.971 1_455 S
Co113 N129 2.282 . S
Co113 N135 2.282 . S
N114 Co113 1.995 . S
N114 C115 1.376 . S
N114 C118 1.383 . S
C115 N114 1.376 . S
C115 C116 1.446 . S
C115 C145 1.391 . S
C116 C115 1.446 . S
C116 C117 1.339 . S
C116 H151 0.949 . S
C117 C116 1.339 . S
C117 C118 1.439 . S
C117 H152 0.950 . S
C118 N114 1.383 . S
C118 C117 1.439 . S
C118 C147 1.392 . S
N119 Co113 2.008 1_655 S
N119 C120 1.376 . S
N119 C123 1.374 . S
C120 N119 1.376 . S
C120 C121 1.443 . S
C120 C147 1.389 1_655 S
C121 C120 1.443 . S
C121 C122 1.340 . S
C121 H153 0.951 . S
C122 C121 1.340 . S
C122 C123 1.439 . S
C122 H154 0.950 . S
C123 N119 1.374 . S
C123 C122 1.439 . S
C123 C148 1.395 . S
N124 Co113 1.971 1_655 S
N124 C125 1.399 . S
N124 C128 1.391 1_655 S
C125 N124 1.399 . S
C125 C126 1.446 . S
C125 C148 1.391 . S
C126 C125 1.446 . S
C126 C127 1.339 . S
C126 H155 0.949 . S
C127 C126 1.339 . S
C127 C128 1.439 1_655 S
C127 H156 0.950 . S
C128 N124 1.391 1_455 S
C128 C127 1.439 1_455 S
C128 C146 1.392 . S
N129 Co113 2.282 . S
N129 C132 1.332 . S
N129 C134 1.332 . S
C130 C131 1.386 . S
C130 C133 1.388 . S
C131 C130 1.386 . S
C131 C132 1.382 . S
C131 H157 0.950 1_455 S
C132 N129 1.332 . S
C132 C131 1.382 . S
C132 H143 0.952 1_455 S
C133 C130 1.388 . S
C133 C134 1.382 . S
C133 H158 0.950 . S
C134 N129 1.332 . S
C134 C133 1.382 . S
C134 H144 0.948 . S
N135 Co113 2.282 . S
N135 C139 1.332 . S
N135 C140 1.332 . S
C136 C137 1.384 1_655 S
C136 C140 1.379 1_655 S
C136 H159 0.957 . S
C137 C136 1.384 1_455 S
C137 C138 1.386 . S
C138 C137 1.386 . S
C138 C139 1.382 . S
C138 H160 0.950 . S
C139 N135 1.332 . S
C139 C138 1.382 . S
C139 H141 0.952 . S
C140 N135 1.332 . S
C140 C136 1.379 1_455 S
C140 H142 0.948 1_455 S
H141 C139 0.952 . S
H142 C140 0.948 1_655 S
H143 C132 0.952 1_655 S
H144 C134 0.948 . S
C145 C111 1.395 . S
C145 C115 1.391 . S
C146 C108 1.389 . S
C146 C128 1.392 . S
C147 C118 1.392 . S
C147 C120 1.389 1_455 S
C148 C123 1.395 . S
C148 C125 1.391 . S
H149 C109 0.951 . S
H150 C110 0.950 . S
H151 C116 0.949 . S
H152 C117 0.950 . S
H153 C121 0.951 . S
H154 C122 0.950 . S
H155 C126 0.949 . S
H156 C127 0.950 . S
H157 C131 0.950 1_655 S
H158 C133 0.950 . S
H159 C136 0.957 . S
H160 C138 0.950 . S
C161 C162 1.443 . S
C161 N165 1.376 . S
C161 C199 1.389 . S
C162 C161 1.443 . S
C162 C163 1.340 1_545 S
C162 H202 0.951 1_545 S
C163 C162 1.340 1_565 S
C163 C164 1.439 . S
C163 H203 0.950 . S
C164 C163 1.439 . S
C164 N165 1.374 1_565 S
C164 C198 1.395 . S
N165 C161 1.376 . S
N165 C164 1.374 1_545 S
N165 Co166 2.008 . S
Co166 N165 2.008 . S
Co166 N167 1.995 . S
Co166 N172 2.008 . S
Co166 N177 1.995 . S
Co166 N182 2.282 . S
Co166 N188 2.282 . S
N167 Co166 1.995 . S
N167 C168 1.376 1_545 S
N167 C171 1.383 . S
C168 N167 1.376 1_565 S
C168 C169 1.446 . S
C168 C198 1.391 . S
C169 C168 1.446 . S
C169 C170 1.339 1_565 S
C169 H204 0.949 . S
C170 C169 1.339 1_545 S
C170 C171 1.439 . S
C170 H205 0.950 . S
C171 N167 1.383 . S
C171 C170 1.439 . S
C171 C200 1.392 . S
N172 Co166 2.008 . S
N172 C173 1.376 . S
N172 C176 1.374 . S
C173 N172 1.376 . S
C173 C174 1.443 . S
C173 C200 1.389 . S
C174 C173 1.443 . S
C174 C175 1.340 . S
C174 H206 0.951 . S
C175 C174 1.340 . S
C175 C176 1.439 . S
C175 H207 0.950 . S
C176 N172 1.374 . S
C176 C175 1.439 . S
C176 C201 1.395 . S
N177 Co166 1.995 . S
N177 C178 1.376 . S
N177 C181 1.383 . S
C178 N177 1.376 . S
C178 C179 1.446 . S
C178 C201 1.391 . S
C179 C178 1.446 . S
C179 C180 1.339 . S
C179 H208 0.949 . S
C180 C179 1.339 . S
C180 C181 1.439 . S
C180 H209 0.950 . S
C181 N177 1.383 . S
C181 C180 1.439 . S
C181 C199 1.392 . S
N182 Co166 2.282 . S
N182 C185 1.332 . S
N182 C187 1.332 . S
C183 C184 1.386 . S
C183 C186 1.388 . S
C184 C183 1.386 . S
C184 C185 1.382 . S
C184 H210 0.950 . S
C185 N182 1.332 . S
C185 C184 1.382 . S
C185 H196 0.952 . S
C186 C183 1.388 . S
C186 C187 1.382 . S
C186 H211 0.950 . S
C187 N182 1.332 . S
C187 C186 1.382 . S
C187 H197 0.948 . S
N188 Co166 2.282 . S
N188 C192 1.332 . S
N188 C193 1.332 . S
C189 C190 1.388 . S
C189 C193 1.382 . S
C189 H212 0.950 . S
C190 C189 1.388 . S
C190 C191 1.386 . S
C191 C190 1.386 . S
C191 C192 1.382 . S
C191 H213 0.950 . S
C192 N188 1.332 . S
C192 C191 1.382 . S
C192 H194 0.952 . S
C193 N188 1.332 . S
C193 C189 1.382 . S
C193 H195 0.948 . S
H194 C192 0.952 . S
H195 C193 0.948 . S
H196 C185 0.952 . S
H197 C187 0.948 . S
C198 C164 1.395 . S
C198 C168 1.391 . S
C199 C161 1.389 . S
C199 C181 1.392 . S
C200 C171 1.392 . S
C200 C173 1.389 . S
C201 C176 1.395 . S
C201 C178 1.391 . S
H202 C162 0.951 1_565 S
H203 C163 0.950 . S
H204 C169 0.949 . S
H205 C170 0.950 . S
H206 C174 0.951 . S
H207 C175 0.950 . S
H208 C179 0.949 . S
H209 C180 0.950 . S
H210 C184 0.950 . S
H211 C186 0.950 . S
H212 C189 0.950 . S
H213 C191 0.950 . S
C214 C215 1.443 . S
C214 N218 1.376 . S
C214 C252 1.389 . S
C215 C214 1.443 . S
C215 C216 1.340 . S
C215 H255 0.951 . S
C216 C215 1.340 . S
C216 C217 1.439 . S
C216 H256 0.950 . S
C217 C216 1.439 . S
C217 N218 1.374 . S
C217 C251 1.395 . S
N218 C214 1.376 . S
N218 C217 1.374 . S
N218 Co219 2.008 . S
Co219 N218 2.008 . S
Co219 N220 1.995 . S
Co219 N225 2.008 . S
Co219 N230 1.995 . S
Co219 N235 2.282 . S
Co219 N241 2.282 . S
N220 Co219 1.995 . S
N220 C221 1.376 . S
N220 C224 1.383 . S
C221 N220 1.376 . S
C221 C222 1.446 . S
C221 C251 1.391 . S
C222 C221 1.446 . S
C222 C223 1.339 . S
C222 H257 0.949 . S
C223 C222 1.339 . S
C223 C224 1.439 . S
C223 H258 0.950 . S
C224 N220 1.383 . S
C224 C223 1.439 . S
C224 C253 1.392 . S
N225 Co219 2.008 . S
N225 C226 1.376 . S
N225 C229 1.374 . S
C226 N225 1.376 . S
C226 C227 1.443 . S
C226 C253 1.389 . S
C227 C226 1.443 . S
C227 C228 1.340 . S
C227 H259 0.951 . S
C228 C227 1.340 . S
C228 C229 1.439 . S
C228 H260 0.950 . S
C229 N225 1.374 . S
C229 C228 1.439 . S
C229 C254 1.395 . S
N230 Co219 1.995 . S
N230 C231 1.376 . S
N230 C234 1.383 . S
C231 N230 1.376 . S
C231 C232 1.446 . S
C231 C254 1.391 . S
C232 C231 1.446 . S
C232 C233 1.339 . S
C232 H261 0.949 . S
C233 C232 1.339 . S
C233 C234 1.439 . S
C233 H262 0.950 . S
C234 N230 1.383 . S
C234 C233 1.439 . S
C234 C252 1.392 . S
N235 Co219 2.282 . S
N235 C238 1.332 . S
N235 C240 1.332 . S
C236 C237 1.386 . S
C236 C239 1.388 . S
C237 C236 1.386 . S
C237 C238 1.382 . S
C237 H263 0.950 . S
C238 N235 1.332 . S
C238 C237 1.382 . S
C238 H249 0.952 . S
C239 C236 1.388 . S
C239 C240 1.382 . S
C239 H264 0.950 . S
C240 N235 1.332 . S
C240 C239 1.382 . S
C240 H250 0.948 . S
N241 Co219 2.282 . S
N241 C245 1.332 . S
N241 C246 1.332 . S
C242 C243 1.388 . S
C242 C246 1.382 . S
C242 H265 0.950 . S
C243 C242 1.388 . S
C243 C244 1.386 . S
C244 C243 1.386 . S
C244 C245 1.382 . S
C244 H266 0.950 . S
C245 N241 1.332 . S
C245 C244 1.382 . S
C245 H247 0.952 . S
C246 N241 1.332 . S
C246 C242 1.382 . S
C246 H248 0.948 . S
H247 C245 0.952 . S
H248 C246 0.948 . S
H249 C238 0.952 . S
H250 C240 0.948 . S
C251 C217 1.395 . S
C251 C221 1.391 . S
C252 C214 1.389 . S
C252 C234 1.392 . S
C253 C224 1.392 . S
C253 C226 1.389 . S
C254 C229 1.395 . S
C254 C231 1.391 . S
H255 C215 0.951 . S
H256 C216 0.950 . S
H257 C222 0.949 . S
H258 C223 0.950 . S
H259 C227 0.951 . S
H260 C228 0.950 . S
H261 C232 0.949 . S
H262 C233 0.950 . S
H263 C237 0.950 . S
H264 C239 0.950 . S
H265 C242 0.950 . S
H266 C244 0.950 . S
H267 C275 0.929 . S
H268 C277 0.930 . S
H269 C279 0.930 . S
H270 C282 0.929 . S
H271 C285 0.930 . S
H272 C287 0.960 1_655 S
H273 C287 0.960 1_655 S
H274 C287 0.960 . S
C275 H267 0.929 . S
C275 C276 1.377 . S
C275 C277 1.384 . S
C276 C275 1.377 . S
C276 C282 1.390 . S
C277 H268 0.930 . S
C277 C275 1.384 . S
C277 C278 1.372 . S
C278 C277 1.372 . S
C278 C279 1.400 . S
C278 C283 1.490 . S
C279 H269 0.930 . S
C279 C278 1.400 . S
C279 C282 1.386 . S
H280 C296 0.930 . S
H281 C297 0.931 . S
C282 H270 0.929 . S
C282 C276 1.390 . S
C282 C279 1.386 . S
C283 C278 1.490 . S
C283 C285 1.395 . S
C283 C286 1.403 . S
H284 C290 0.930 . S
C285 H271 0.930 . S
C285 C283 1.395 . S
C285 C288 1.403 . S
C286 C283 1.403 . S
C286 C287 1.524 . S
C286 C290 1.400 . S
C287 H272 0.960 1_455 S
C287 H273 0.960 1_455 S
C287 H274 0.960 . S
C287 C286 1.524 . S
C288 C285 1.403 . S
C288 C289 1.392 . S
C288 C292 1.495 . S
C289 C288 1.392 . S
C289 C290 1.385 . S
C289 C291 1.478 . S
C290 H284 0.930 . S
C290 C286 1.400 . S
C290 C289 1.385 . S
C291 C289 1.478 . S
C291 C293 1.381 . S
C291 C297 1.383 . S
C292 C288 1.495 . S
C292 H298 0.959 . S
C292 H299 0.961 . S
C292 H300 0.960 . S
C293 C291 1.381 . S
C293 C294 1.394 . S
C293 H301 0.930 . S
C294 C293 1.394 . S
C294 C295 1.383 . S
C294 H302 0.929 . S
C295 C294 1.383 . S
C295 C296 1.377 . S
C296 H280 0.930 . S
C296 C295 1.377 . S
C296 C297 1.379 . S
C297 H281 0.931 . S
C297 C291 1.383 . S
C297 C296 1.379 . S
H298 C292 0.959 . S
H299 C292 0.961 . S
H300 C292 0.960 . S
H301 C293 0.930 . S
H302 C294 0.929 . S
H303 C311 0.929 1_565 S
H304 C313 0.930 1_565 S
H305 C315 0.930 . S
H306 C318 0.929 . S
H307 C321 0.930 . S
H308 C323 0.960 . S
H309 C323 0.960 . S
H310 C323 0.960 . S
C311 H303 0.929 1_545 S
C311 C312 1.377 . S
C311 C313 1.384 . S
C312 C311 1.377 . S
C312 C318 1.390 . S
C313 H304 0.930 1_545 S
C313 C311 1.384 . S
C313 C314 1.372 . S
C314 C313 1.372 . S
C314 C315 1.400 . S
C314 C319 1.490 . S
C315 H305 0.930 . S
C315 C314 1.400 . S
C315 C318 1.386 . S
H316 C332 0.930 . S
H317 C333 0.931 . S
C318 H306 0.929 . S
C318 C312 1.390 . S
C318 C315 1.386 . S
C319 C314 1.490 . S
C319 C321 1.395 . S
C319 C322 1.403 . S
H320 C326 0.930 . S
C321 H307 0.930 . S
C321 C319 1.395 . S
C321 C324 1.403 . S
C322 C319 1.403 . S
C322 C323 1.524 . S
C322 C326 1.400 . S
C323 H308 0.960 . S
C323 H309 0.960 . S
C323 H310 0.960 . S
C323 C322 1.524 . S
C324 C321 1.403 . S
C324 C325 1.392 . S
C324 C328 1.495 . S
C325 C324 1.392 . S
C325 C326 1.385 . S
C325 C327 1.478 . S
C326 H320 0.930 . S
C326 C322 1.400 . S
C326 C325 1.385 . S
C327 C325 1.478 . S
C327 C329 1.381 . S
C327 C333 1.383 . S
C328 C324 1.495 . S
C328 H334 0.959 . S
C328 H335 0.961 . S
C328 H336 0.960 . S
C329 C327 1.381 . S
C329 C330 1.394 . S
C329 H337 0.930 . S
C330 C329 1.394 . S
C330 C331 1.383 . S
C330 H338 0.929 . S
C331 C330 1.383 . S
C331 C332 1.377 . S
C332 H316 0.930 . S
C332 C331 1.377 . S
C332 C333 1.379 . S
C333 H317 0.931 . S
C333 C327 1.383 . S
C333 C332 1.379 . S
H334 C328 0.959 . S
H335 C328 0.961 . S
H336 C328 0.960 . S
H337 C329 0.930 . S
H338 C330 0.929 . S
H339 C347 0.929 . S
H340 C349 0.930 . S
H341 C351 0.930 . S
H342 C354 0.929 . S
H343 C357 0.930 . S
H344 C359 0.960 . S
H345 C359 0.960 . S
H346 C359 0.960 . S
C347 H339 0.929 . S
C347 C348 1.377 . S
C347 C349 1.384 . S
C348 C347 1.377 . S
C348 C354 1.390 . S
C349 H340 0.930 . S
C349 C347 1.384 . S
C349 C350 1.372 . S
C350 C349 1.372 . S
C350 C351 1.400 . S
C350 C355 1.490 . S
C351 H341 0.930 . S
C351 C350 1.400 . S
C351 C354 1.386 . S
H352 C368 0.930 . S
H353 C369 0.931 . S
C354 H342 0.929 . S
C354 C348 1.390 . S
C354 C351 1.386 . S
C355 C350 1.490 . S
C355 C357 1.395 . S
C355 C358 1.403 . S
H356 C362 0.930 . S
C357 H343 0.930 . S
C357 C355 1.395 . S
C357 C360 1.403 . S
C358 C355 1.403 . S
C358 C359 1.524 . S
C358 C362 1.400 . S
C359 H344 0.960 . S
C359 H345 0.960 . S
C359 H346 0.960 . S
C359 C358 1.524 . S
C360 C357 1.403 . S
C360 C361 1.392 . S
C360 C364 1.495 . S
C361 C360 1.392 . S
C361 C362 1.385 . S
C361 C363 1.478 . S
C362 H356 0.930 . S
C362 C358 1.400 . S
C362 C361 1.385 . S
C363 C361 1.478 . S
C363 C365 1.381 . S
C363 C369 1.383 . S
C364 C360 1.495 . S
C364 H370 0.959 . S
C364 H371 0.961 . S
C364 H372 0.960 . S
C365 C363 1.381 . S
C365 C366 1.394 . S
C365 H373 0.930 . S
C366 C365 1.394 . S
C366 C367 1.383 . S
C366 H374 0.929 . S
C367 C366 1.383 . S
C367 C368 1.377 . S
C368 H352 0.930 . S
C368 C367 1.377 . S
C368 C369 1.379 . S
C369 H353 0.931 . S
C369 C363 1.383 . S
C369 C368 1.379 . S
H370 C364 0.959 . S
H371 C364 0.961 . S
H372 C364 0.960 . S
H373 C365 0.930 . S
H374 C366 0.929 . S
H375 C383 0.929 . S
H376 C385 0.930 . S
H377 C387 0.930 . S
H378 C390 0.929 . S
H379 C393 0.930 . S
H380 C395 0.960 . S
H381 C395 0.960 . S
H382 C395 0.960 . S
C383 H375 0.929 . S
C383 C384 1.377 . S
C383 C385 1.384 . S
C384 C383 1.377 . S
C384 C390 1.390 . S
C385 H376 0.930 . S
C385 C383 1.384 . S
C385 C386 1.372 . S
C386 C385 1.372 . S
C386 C387 1.400 . S
C386 C391 1.490 . S
C387 H377 0.930 . S
C387 C386 1.400 . S
C387 C390 1.386 . S
H388 C404 0.930 . S
H389 C405 0.931 . S
C390 H378 0.929 . S
C390 C384 1.390 . S
C390 C387 1.386 . S
C391 C386 1.490 . S
C391 C393 1.395 . S
C391 C394 1.403 . S
H392 C398 0.930 . S
C393 H379 0.930 . S
C393 C391 1.395 . S
C393 C396 1.403 . S
C394 C391 1.403 . S
C394 C395 1.524 . S
C394 C398 1.400 . S
C395 H380 0.960 . S
C395 H381 0.960 . S
C395 H382 0.960 . S
C395 C394 1.524 . S
C396 C393 1.403 . S
C396 C397 1.392 . S
C396 C400 1.495 . S
C397 C396 1.392 . S
C397 C398 1.385 . S
C397 C399 1.478 . S
C398 H392 0.930 . S
C398 C394 1.400 . S
C398 C397 1.385 . S
C399 C397 1.478 . S
C399 C401 1.381 . S
C399 C405 1.383 . S
C400 C396 1.495 . S
C400 H406 0.959 . S
C400 H407 0.961 . S
C400 H408 0.960 . S
C401 C399 1.381 . S
C401 C402 1.394 . S
C401 H409 0.925 1_455 S
C402 C401 1.394 . S
C402 C403 1.383 . S
C402 H410 0.929 1_455 S
C403 C402 1.383 . S
C403 C404 1.377 . S
C404 H388 0.930 . S
C404 C403 1.377 . S
C404 C405 1.379 . S
C405 H389 0.931 . S
C405 C399 1.383 . S
C405 C404 1.379 . S
H406 C400 0.959 . S
H407 C400 0.961 . S
H408 C400 0.960 . S
H409 C401 0.925 1_655 S
H410 C402 0.929 1_655 S
H411 C419 0.929 . S
H412 C421 0.930 . S
H413 C423 0.930 . S
H414 C426 0.929 . S
H415 C429 0.930 . S
H416 C431 0.960 . S
H417 C431 0.960 . S
H418 C431 0.960 . S
C419 H411 0.929 . S
C419 C420 1.377 . S
C419 C421 1.384 . S
C420 C419 1.377 . S
C420 C426 1.390 . S
C421 H412 0.930 . S
C421 C419 1.384 . S
C421 C422 1.372 . S
C422 C421 1.372 . S
C422 C423 1.400 . S
C422 C427 1.490 . S
C423 H413 0.930 . S
C423 C422 1.400 . S
C423 C426 1.386 . S
H424 C440 0.930 . S
H425 C441 0.931 . S
C426 H414 0.929 . S
C426 C420 1.390 . S
C426 C423 1.386 . S
C427 C422 1.490 . S
C427 C429 1.395 . S
C427 C430 1.403 . S
H428 C434 0.930 . S
C429 H415 0.930 . S
C429 C427 1.395 . S
C429 C432 1.403 . S
C430 C427 1.403 . S
C430 C431 1.524 . S
C430 C434 1.400 . S
C431 H416 0.960 . S
C431 H417 0.960 . S
C431 H418 0.960 . S
C431 C430 1.524 . S
C432 C429 1.403 . S
C432 C433 1.392 . S
C432 C436 1.495 . S
C433 C432 1.392 . S
C433 C434 1.385 . S
C433 C435 1.478 . S
C434 H428 0.930 . S
C434 C430 1.400 . S
C434 C433 1.385 . S
C435 C433 1.478 . S
C435 C437 1.381 . S
C435 C441 1.383 . S
C436 C432 1.495 . S
C436 H442 0.959 . S
C436 H443 0.961 . S
C436 H444 0.960 . S
C437 C435 1.381 . S
C437 C438 1.394 . S
C437 H445 0.930 . S
C438 C437 1.394 . S
C438 C439 1.383 . S
C438 H446 0.929 . S
C439 C438 1.383 . S
C439 C440 1.377 . S
C440 H424 0.930 . S
C440 C439 1.377 . S
C440 C441 1.379 . S
C441 H425 0.931 . S
C441 C435 1.383 . S
C441 C440 1.379 . S
H442 C436 0.959 . S
H443 C436 0.961 . S
H444 C436 0.960 . S
H445 C437 0.930 . S
H446 C438 0.929 . S
H447 C455 0.929 . S
H448 C457 0.930 . S
H449 C459 0.930 . S
H450 C462 0.929 . S
H451 C465 0.930 . S
H452 C467 0.960 . S
H453 C467 0.960 . S
H454 C467 0.960 . S
C455 H447 0.929 . S
C455 C456 1.377 . S
C455 C457 1.384 . S
C456 C455 1.377 . S
C456 C462 1.390 . S
C457 H448 0.930 . S
C457 C455 1.384 . S
C457 C458 1.372 . S
C458 C457 1.372 . S
C458 C459 1.400 . S
C458 C463 1.490 . S
C459 H449 0.930 . S
C459 C458 1.400 . S
C459 C462 1.386 . S
H460 C476 0.930 . S
H461 C477 0.931 . S
C462 H450 0.929 . S
C462 C456 1.390 . S
C462 C459 1.386 . S
C463 C458 1.490 . S
C463 C465 1.395 . S
C463 C466 1.403 . S
H464 C470 0.930 . S
C465 H451 0.930 . S
C465 C463 1.395 . S
C465 C468 1.403 . S
C466 C463 1.403 . S
C466 C467 1.524 . S
C466 C470 1.400 . S
C467 H452 0.960 . S
C467 H453 0.960 . S
C467 H454 0.960 . S
C467 C466 1.524 . S
C468 C465 1.403 . S
C468 C469 1.392 . S
C468 C472 1.495 . S
C469 C468 1.392 . S
C469 C470 1.385 . S
C469 C471 1.478 . S
C470 H464 0.930 . S
C470 C466 1.400 . S
C470 C469 1.385 . S
C471 C469 1.478 . S
C471 C473 1.381 . S
C471 C477 1.383 . S
C472 C468 1.495 . S
C472 H478 0.959 . S
C472 H479 0.961 . S
C472 H480 0.960 . S
C473 C471 1.381 . S
C473 C474 1.394 . S
C473 H481 0.930 . S
C474 C473 1.394 . S
C474 C475 1.383 . S
C474 H482 0.929 . S
C475 C474 1.383 . S
C475 C476 1.377 . S
C476 H460 0.930 . S
C476 C475 1.377 . S
C476 C477 1.379 . S
C477 H461 0.931 . S
C477 C471 1.383 . S
C477 C476 1.379 . S
H478 C472 0.959 . S
H479 C472 0.961 . S
H480 C472 0.960 . S
H481 C473 0.930 . S
H482 C474 0.929 . S
H483 C491 0.929 . S
H484 C493 0.930 . S
H485 C495 0.930 . S
H486 C498 0.929 1_455 S
H487 C501 0.930 . S
H488 C503 0.960 . S
H489 C503 0.960 . S
H490 C503 0.960 . S
C491 H483 0.929 . S
C491 C492 1.377 . S
C491 C493 1.384 . S
C492 C491 1.377 . S
C492 C498 1.390 . S
C493 H484 0.930 . S
C493 C491 1.384 . S
C493 C494 1.372 . S
C494 C493 1.372 . S
C494 C495 1.400 . S
C494 C499 1.490 . S
C495 H485 0.930 . S
C495 C494 1.400 . S
C495 C498 1.386 . S
H496 C512 0.930 . S
H497 C513 0.931 . S
C498 H486 0.929 1_655 S
C498 C492 1.390 . S
C498 C495 1.386 . S
C499 C494 1.490 . S
C499 C501 1.395 . S
C499 C502 1.403 . S
H500 C506 0.930 . S
C501 H487 0.930 . S
C501 C499 1.395 . S
C501 C504 1.403 . S
C502 C499 1.403 . S
C502 C503 1.524 . S
C502 C506 1.400 . S
C503 H488 0.960 . S
C503 H489 0.960 . S
C503 H490 0.960 . S
C503 C502 1.524 . S
C504 C501 1.403 . S
C504 C505 1.392 . S
C504 C508 1.495 . S
C505 C504 1.392 . S
C505 C506 1.385 . S
C505 C507 1.478 . S
C506 H500 0.930 . S
C506 C502 1.400 . S
C506 C505 1.385 . S
C507 C505 1.478 . S
C507 C509 1.381 . S
C507 C513 1.383 . S
C508 C504 1.495 . S
C508 H514 0.959 . S
C508 H515 0.961 . S
C508 H516 0.960 . S
C509 C507 1.381 . S
C509 C510 1.394 . S
C509 H517 0.930 . S
C510 C509 1.394 . S
C510 C511 1.383 . S
C510 H518 0.929 . S
C511 C510 1.383 . S
C511 C512 1.377 . S
C512 H496 0.930 . S
C512 C511 1.377 . S
C512 C513 1.379 . S
C513 H497 0.931 . S
C513 C507 1.383 . S
C513 C512 1.379 . S
H514 C508 0.959 . S
H515 C508 0.961 . S
H516 C508 0.960 . S
H517 C509 0.930 . S
H518 C510 0.929 . S
H519 C527 0.931 . S
H520 C529 0.930 . S
H521 C531 0.930 . S
H522 C534 0.929 . S
H523 C537 0.930 . S
H524 C539 0.960 . S
H525 C539 0.960 . S
H526 C539 0.960 . S
C527 H519 0.931 . S
C527 C528 1.377 1_455 S
C527 C529 1.384 1_454 S
C528 C527 1.377 1_655 S
C528 C534 1.390 . S
C529 H520 0.930 . S
C529 C527 1.384 1_656 S
C529 C530 1.372 . S
C530 C529 1.372 . S
C530 C531 1.400 1_556 S
C530 C535 1.490 . S
C531 H521 0.930 . S
C531 C530 1.400 1_554 S
C531 C534 1.386 . S
H532 C548 0.930 . S
H533 C549 0.931 . S
C534 H522 0.929 . S
C534 C528 1.390 . S
C534 C531 1.386 . S
C535 C530 1.490 . S
C535 C537 1.395 . S
C535 C538 1.403 . S
H536 C542 0.930 . S
C537 H523 0.930 . S
C537 C535 1.395 . S
C537 C540 1.403 . S
C538 C535 1.403 . S
C538 C539 1.524 . S
C538 C542 1.400 . S
C539 H524 0.960 . S
C539 H525 0.960 . S
C539 H526 0.960 . S
C539 C538 1.524 . S
C540 C537 1.403 . S
C540 C541 1.392 . S
C540 C544 1.495 . S
C541 C540 1.392 . S
C541 C542 1.385 . S
C541 C543 1.478 . S
C542 H536 0.930 . S
C542 C538 1.400 . S
C542 C541 1.385 . S
C543 C541 1.478 . S
C543 C545 1.381 . S
C543 C549 1.383 . S
C544 C540 1.495 . S
C544 H550 0.959 . S
C544 H551 0.961 . S
C544 H552 0.960 . S
C545 C543 1.381 . S
C545 C546 1.394 . S
C545 H553 0.930 . S
C546 C545 1.394 . S
C546 C547 1.383 . S
C546 H554 0.929 . S
C547 C546 1.383 . S
C547 C548 1.377 . S
C548 H532 0.930 . S
C548 C547 1.377 . S
C548 C549 1.379 . S
C549 H533 0.931 . S
C549 C543 1.383 . S
C549 C548 1.379 . S
H550 C544 0.959 . S
H551 C544 0.961 . S
H552 C544 0.960 . S
H553 C545 0.930 . S
H554 C546 0.929 . S
H555 C563 0.929 . S
H556 C565 0.930 . S
H557 C567 0.930 . S
H558 C570 0.929 . S
H559 C573 0.930 . S
H560 C575 0.960 . S
H561 C575 0.960 . S
H562 C575 0.960 . S
C563 H555 0.929 . S
C563 C564 1.377 1_655 S
C563 C565 1.384 . S
C564 C563 1.377 1_455 S
C564 C570 1.390 . S
C565 H556 0.930 . S
C565 C563 1.384 . S
C565 C566 1.372 1_655 S
C566 C565 1.372 1_455 S
C566 C567 1.400 . S
C566 C571 1.490 . S
C567 H557 0.930 . S
C567 C566 1.400 . S
C567 C570 1.386 . S
H568 C584 0.930 . S
H569 C585 0.931 . S
C570 H558 0.929 . S
C570 C564 1.390 . S
C570 C567 1.386 . S
C571 C566 1.490 . S
C571 C573 1.395 1_455 S
C571 C574 1.403 . S
H572 C578 0.930 . S
C573 H559 0.930 . S
C573 C571 1.395 1_655 S
C573 C576 1.403 . S
C574 C571 1.403 . S
C574 C575 1.524 . S
C574 C578 1.400 . S
C575 H560 0.960 . S
C575 H561 0.960 . S
C575 H562 0.960 . S
C575 C574 1.524 . S
C576 C573 1.403 . S
C576 C577 1.392 1_655 S
C576 C580 1.495 . S
C577 C576 1.392 1_455 S
C577 C578 1.385 . S
C577 C579 1.478 . S
C578 H572 0.930 . S
C578 C574 1.400 . S
C578 C577 1.385 . S
C579 C577 1.478 . S
C579 C581 1.381 1_455 S
C579 C585 1.383 . S
C580 C576 1.495 . S
C580 H586 0.959 . S
C580 H587 0.961 . S
C580 H588 0.960 . S
C581 C579 1.381 1_655 S
C581 C582 1.394 . S
C581 H589 0.930 . S
C582 C581 1.394 . S
C582 C583 1.383 1_655 S
C582 H590 0.929 . S
C583 C582 1.383 1_455 S
C583 C584 1.377 . S
C584 H568 0.930 . S
C584 C583 1.377 . S
C584 C585 1.379 . S
C585 H569 0.931 . S
C585 C579 1.383 . S
C585 C584 1.379 . S
H586 C580 0.959 . S
H587 C580 0.961 . S
H588 C580 0.960 . S
H589 C581 0.930 . S
H590 C582 0.929 . S
H591 C599 0.929 . S
H592 C601 0.930 . S
H593 C603 0.930 . S
H594 C606 0.929 . S
H595 C609 0.930 . S
H596 C611 0.960 . S
H597 C611 0.960 . S
H598 C611 0.960 . S
C599 H591 0.929 . S
C599 C600 1.377 . S
C599 C601 1.384 . S
C600 C599 1.377 . S
C600 C606 1.390 . S
C601 H592 0.930 . S
C601 C599 1.384 . S
C601 C602 1.372 . S
C602 C601 1.372 . S
C602 C603 1.400 . S
C602 C607 1.490 . S
C603 H593 0.930 . S
C603 C602 1.400 . S
C603 C606 1.386 . S
H604 C620 0.930 . S
H605 C621 0.931 . S
C606 H594 0.929 . S
C606 C600 1.390 . S
C606 C603 1.386 . S
C607 C602 1.490 . S
C607 C609 1.395 . S
C607 C610 1.403 . S
H608 C614 0.930 . S
C609 H595 0.930 . S
C609 C607 1.395 . S
C609 C612 1.403 . S
C610 C607 1.403 . S
C610 C611 1.524 1_545 S
C610 C614 1.400 . S
C611 H596 0.960 . S
C611 H597 0.960 . S
C611 H598 0.960 . S
C611 C610 1.524 1_565 S
C612 C609 1.403 . S
C612 C613 1.392 . S
C612 C616 1.495 . S
C613 C612 1.392 . S
C613 C614 1.385 . S
C613 C615 1.478 . S
C614 H608 0.930 . S
C614 C610 1.400 . S
C614 C613 1.385 . S
C615 C613 1.478 . S
C615 C617 1.381 . S
C615 C621 1.383 . S
C616 C612 1.495 . S
C616 H622 0.959 . S
C616 H623 0.961 . S
C616 H624 0.960 . S
C617 C615 1.381 . S
C617 C618 1.394 . S
C617 H625 0.930 . S
C618 C617 1.394 . S
C618 C619 1.383 . S
C618 H626 0.929 . S
C619 C618 1.383 . S
C619 C620 1.377 . S
C620 H604 0.930 . S
C620 C619 1.377 . S
C620 C621 1.379 . S
C621 H605 0.931 . S
C621 C615 1.383 . S
C621 C620 1.379 . S
H622 C616 0.959 . S
H623 C616 0.961 . S
H624 C616 0.960 . S
H625 C617 0.930 . S
H626 C618 0.929 . S
H627 C635 0.929 . S
H628 C637 0.930 . S
H629 C639 0.930 . S
H630 C642 0.929 . S
H631 C645 0.930 . S
H632 C647 0.960 . S
H633 C647 0.960 . S
H634 C647 0.960 . S
C635 H627 0.929 . S
C635 C636 1.377 . S
C635 C637 1.384 . S
C636 C635 1.377 . S
C636 C642 1.390 1_554 S
C637 H628 0.930 . S
C637 C635 1.384 . S
C637 C638 1.372 1_554 S
C638 C637 1.372 1_556 S
C638 C639 1.400 . S
C638 C643 1.490 . S
C639 H629 0.930 . S
C639 C638 1.400 . S
C639 C642 1.386 . S
H640 C656 0.930 . S
H641 C657 0.931 . S
C642 H630 0.929 . S
C642 C636 1.390 1_556 S
C642 C639 1.386 . S
C643 C638 1.490 . S
C643 C645 1.395 . S
C643 C646 1.403 . S
H644 C650 0.930 . S
C645 H631 0.930 . S
C645 C643 1.395 . S
C645 C648 1.403 . S
C646 C643 1.403 . S
C646 C647 1.524 . S
C646 C650 1.400 . S
C647 H632 0.960 . S
C647 H633 0.960 . S
C647 H634 0.960 . S
C647 C646 1.524 . S
C648 C645 1.403 . S
C648 C649 1.392 . S
C648 C652 1.495 . S
C649 C648 1.392 . S
C649 C650 1.385 . S
C649 C651 1.478 . S
C650 H644 0.930 . S
C650 C646 1.400 . S
C650 C649 1.385 . S
C651 C649 1.478 . S
C651 C653 1.381 . S
C651 C657 1.383 . S
C652 C648 1.495 . S
C652 H658 0.959 . S
C652 H659 0.961 . S
C652 H660 0.960 . S
C653 C651 1.381 . S
C653 C654 1.394 . S
C653 H661 0.930 . S
C654 C653 1.394 . S
C654 C655 1.383 . S
C654 H662 0.929 . S
C655 C654 1.383 . S
C655 C656 1.377 . S
C656 H640 0.930 . S
C656 C655 1.377 . S
C656 C657 1.379 . S
C657 H641 0.931 . S
C657 C651 1.383 . S
C657 C656 1.379 . S
H658 C652 0.959 . S
H659 C652 0.961 . S
H660 C652 0.960 . S
H661 C653 0.930 . S
H662 C654 0.929 . S
H663 C671 0.929 . S
H664 C673 0.930 . S
H665 C675 0.930 1_655 S
H666 C678 0.916 1_655 S
H667 C681 0.930 . S
H668 C683 0.960 . S
H669 C683 0.960 1_455 S
H670 C683 0.960 . S
C671 H663 0.929 . S
C671 C672 1.377 . S
C671 C673 1.384 . S
C672 C671 1.377 . S
C672 C678 1.414 . S
C673 H664 0.930 . S
C673 C671 1.384 . S
C673 C674 1.372 . S
C674 C673 1.372 . S
C674 C675 1.400 . S
C674 C679 1.490 . S
C675 H665 0.930 1_455 S
C675 C674 1.400 . S
C675 C678 1.375 . S
H676 C692 0.930 1_655 S
H677 C693 0.931 1_655 S
C678 H666 0.916 1_455 S
C678 C672 1.414 . S
C678 C675 1.375 . S
C679 C674 1.490 . S
C679 C681 1.395 . S
C679 C682 1.403 . S
H680 C686 0.930 . S
C681 H667 0.930 . S
C681 C679 1.395 . S
C681 C684 1.403 . S
C682 C679 1.403 . S
C682 C683 1.524 1_455 S
C682 C686 1.400 . S
C683 H668 0.960 . S
C683 H669 0.960 1_655 S
C683 H670 0.960 . S
C683 C682 1.524 1_655 S
C684 C681 1.403 . S
C684 C685 1.392 . S
C684 C688 1.495 . S
C685 C684 1.392 . S
C685 C686 1.385 . S
C685 C687 1.478 . S
C686 H680 0.930 . S
C686 C682 1.400 . S
C686 C685 1.385 . S
C687 C685 1.478 . S
C687 C689 1.381 . S
C687 C693 1.383 . S
C688 C684 1.495 . S
C688 H694 0.959 . S
C688 H695 0.961 . S
C688 H696 0.960 . S
C689 C687 1.381 . S
C689 C690 1.394 . S
C689 H697 0.930 . S
C690 C689 1.394 . S
C690 C691 1.383 . S
C690 H698 0.929 . S
C691 C690 1.383 . S
C691 C692 1.377 . S
C692 H676 0.930 1_455 S
C692 C691 1.377 . S
C692 C693 1.379 . S
C693 H677 0.931 1_455 S
C693 C687 1.383 . S
C693 C692 1.379 . S
H694 C688 0.959 . S
H695 C688 0.961 . S
H696 C688 0.960 . S
H697 C689 0.930 . S
H698 C690 0.929 . S
C295 C130 1.472 . S
C276 C14 1.429 . S
C312 C40 1.490 . S
C331 C200 1.501 . S
C348 C76 1.463 . S
C367 C252 1.471 . S
C384 C3 1.458 . S
C403 C146 1.450 . S
C439 C190 1.493 . S
C420 C38 1.483 . S
C456 C74 1.455 . S
C475 C236 1.464 . S
C511 C183 1.446 . S
C492 C86 1.401 1_655 S
C528 C2 1.453 1_655 S
C547 C243 1.464 . S
C583 C137 1.454 . S
C564 C39 1.456 . S
C619 C199 1.464 . S
C600 C75 1.463 . S
C655 C253 1.470 . S
C636 C4 1.461 . S
C672 C50 1.417 . S
C691 C147 1.470 . S
