# Generated by pormake.
# Topology pto, (3,4)-cn, num edge types: 1
# Building blocks:
#     Node 0, Type 0, BuildingBlock: WUSLED_clean_sbu_0, # of connection points: 3
#     Node 1, Type 0, BuildingBlock: WUSLED_clean_sbu_0, # of connection points: 3
#     Node 2, Type 0, BuildingBlock: WUSLED_clean_sbu_0, # of connection points: 3
#     Node 3, Type 0, BuildingBlock: WUSLED_clean_sbu_0, # of connection points: 3
#     Node 4, Type 0, BuildingBlock: WUSLED_clean_sbu_0, # of connection points: 3
#     Node 5, Type 0, BuildingBlock: WUSLED_clean_sbu_0, # of connection points: 3
#     Node 6, Type 0, BuildingBlock: WUSLED_clean_sbu_0, # of connection points: 3
#     Node 7, Type 0, BuildingBlock: WUSLED_clean_sbu_0, # of connection points: 3
#     Node 8, Type 1, BuildingBlock: NAWXER_clean_sbu_0, # of connection points: 4
#     Node 9, Type 1, BuildingBlock: NAWXER_clean_sbu_0, # of connection points: 4
#     Node 10, Type 1, BuildingBlock: NAWXER_clean_sbu_0, # of connection points: 4
#     Node 11, Type 1, BuildingBlock: NAWXER_clean_sbu_0, # of connection points: 4
#     Node 12, Type 1, BuildingBlock: NAWXER_clean_sbu_0, # of connection points: 4
#     Node 13, Type 1, BuildingBlock: NAWXER_clean_sbu_0, # of connection points: 4
#     Edge 14, Type (0, 1), BuildingBlock: TEMPAE_clean_linker_10, # of connection points: 2
#     Edge 15, Type (0, 1), BuildingBlock: TEMPAE_clean_linker_10, # of connection points: 2
#     Edge 16, Type (0, 1), BuildingBlock: TEMPAE_clean_linker_10, # of connection points: 2
#     Edge 17, Type (0, 1), BuildingBlock: TEMPAE_clean_linker_10, # of connection points: 2
#     Edge 18, Type (0, 1), BuildingBlock: TEMPAE_clean_linker_10, # of connection points: 2
#     Edge 19, Type (0, 1), BuildingBlock: TEMPAE_clean_linker_10, # of connection points: 2
#     Edge 20, Type (0, 1), BuildingBlock: TEMPAE_clean_linker_10, # of connection points: 2
#     Edge 21, Type (0, 1), BuildingBlock: TEMPAE_clean_linker_10, # of connection points: 2
#     Edge 22, Type (0, 1), BuildingBlock: TEMPAE_clean_linker_10, # of connection points: 2
#     Edge 23, Type (0, 1), BuildingBlock: TEMPAE_clean_linker_10, # of connection points: 2
#     Edge 24, Type (0, 1), BuildingBlock: TEMPAE_clean_linker_10, # of connection points: 2
#     Edge 25, Type (0, 1), BuildingBlock: TEMPAE_clean_linker_10, # of connection points: 2
#     Edge 26, Type (0, 1), BuildingBlock: TEMPAE_clean_linker_10, # of connection points: 2
#     Edge 27, Type (0, 1), BuildingBlock: TEMPAE_clean_linker_10, # of connection points: 2
#     Edge 28, Type (0, 1), BuildingBlock: TEMPAE_clean_linker_10, # of connection points: 2
#     Edge 29, Type (0, 1), BuildingBlock: TEMPAE_clean_linker_10, # of connection points: 2
#     Edge 30, Type (0, 1), BuildingBlock: TEMPAE_clean_linker_10, # of connection points: 2
#     Edge 31, Type (0, 1), BuildingBlock: TEMPAE_clean_linker_10, # of connection points: 2
#     Edge 32, Type (0, 1), BuildingBlock: TEMPAE_clean_linker_10, # of connection points: 2
#     Edge 33, Type (0, 1), BuildingBlock: TEMPAE_clean_linker_10, # of connection points: 2
#     Edge 34, Type (0, 1), BuildingBlock: TEMPAE_clean_linker_10, # of connection points: 2
#     Edge 35, Type (0, 1), BuildingBlock: TEMPAE_clean_linker_10, # of connection points: 2
#     Edge 36, Type (0, 1), BuildingBlock: TEMPAE_clean_linker_10, # of connection points: 2
#     Edge 37, Type (0, 1), BuildingBlock: TEMPAE_clean_linker_10, # of connection points: 2
# Relax obj value: 0.000
# Max RMSD: 0.007
# Mean RMSD: 0.004
data_MOF--net-pto--node1-WUSLED_clean_sbu_0--node2-NAWXER_clean_sbu_0--edge1-TEMPAE_clean_linker_10
_symmetry_space_group_name_H-M    P1
_symmetry_Int_Tables_number       1
_symmetry_cell_setting            triclinic
loop_
_symmetry_equiv_pos_as_xyz
'x, y, z'
_cell_length_a     56.602473
_cell_length_b     53.561446
_cell_length_c     50.180221
_cell_angle_alpha  89.410488
_cell_angle_beta   90.433024
_cell_angle_gamma 90.463948
loop_
_atom_site_label
_atom_site_type_symbol
_atom_site_fract_x
_atom_site_fract_y
_atom_site_fract_z
_atom_type_partial_charge
C0 C 0.24477 0.236 0.30766 0.0
C1 C 0.2622 0.2343 0.32773 0.0
C2 C 0.2461 0.19418 0.34272 0.0
C3 C 0.26282 0.21365 0.34508 0.0
C4 C 0.22898 0.1957 0.32232 0.0
C5 C 0.22828 0.21642 0.3051 0.0
U6 U 0.26758 0.28386 0.25529 0.0
O7 O 0.24843 0.30182 0.22195 0.0
O8 O 0.26372 0.32467 0.25385 0.0
C9 C 0.25036 0.32422 0.2323 0.0
C10 C 0.24248 0.25851 0.29035 0.0
C11 C 0.22884 0.33992 0.2325 0.0
C12 C 0.1901 0.3508 0.21436 0.0
C13 C 0.20932 0.33451 0.21593 0.0
C14 C 0.20939 0.37815 0.24598 0.0
C15 C 0.19003 0.37298 0.22914 0.0
C16 C 0.22857 0.36191 0.24755 0.0
C17 C 0.32918 0.27848 0.22526 0.0
C18 C 0.3424 0.30347 0.18735 0.0
C19 C 0.37023 0.27745 0.21154 0.0
C20 C 0.35222 0.26959 0.22869 0.0
C21 C 0.36554 0.29436 0.19053 0.0
C22 C 0.3244 0.29566 0.20463 0.0
C23 C 0.31039 0.26943 0.24317 0.0
O24 O 0.25561 0.27803 0.29649 0.0
O25 O 0.24112 0.25463 0.26455 0.0
O26 O 0.29122 0.26077 0.23142 0.0
O27 O 0.30586 0.28379 0.26355 0.0
H28 H 0.27521 0.24904 0.33029 0.0
H29 H 0.27642 0.2129 0.36036 0.0
H30 H 0.21571 0.18117 0.32011 0.0
H31 H 0.21452 0.21735 0.28999 0.0
H32 H 0.1756 0.34636 0.20098 0.0
H33 H 0.20908 0.31796 0.2037 0.0
H34 H 0.20978 0.39486 0.25796 0.0
H35 H 0.24341 0.36686 0.26024 0.0
H36 H 0.33824 0.31667 0.17154 0.0
H37 H 0.38773 0.26978 0.21433 0.0
H38 H 0.35624 0.25632 0.2445 0.0
H39 H 0.30671 0.30286 0.20178 0.0
C40 C 0.24161 0.80189 0.71556 0.0
C41 C 0.26023 0.80473 0.69735 0.0
C42 C 0.24275 0.84304 0.67962 0.0
C43 C 0.26074 0.82504 0.67952 0.0
C44 C 0.22437 0.84035 0.69817 0.0
C45 C 0.22378 0.81996 0.71584 0.0
U46 U 0.26647 0.75609 0.76851 0.0
O47 O 0.24895 0.73931 0.80347 0.0
O48 O 0.26245 0.7153 0.77194 0.0
C49 C 0.25083 0.71646 0.79446 0.0
C50 C 0.2398 0.77991 0.73364 0.0
C51 C 0.22964 0.70051 0.79639 0.0
C52 C 0.18888 0.69045 0.7849 0.0
C53 C 0.20851 0.70652 0.78309 0.0
C54 C 0.21136 0.66246 0.81339 0.0
C55 C 0.19017 0.66811 0.79991 0.0
C56 C 0.23086 0.6785 0.81163 0.0
C57 C 0.32878 0.7624 0.79637 0.0
C58 C 0.34213 0.73659 0.83362 0.0
C59 C 0.36971 0.76433 0.81116 0.0
C60 C 0.35169 0.77218 0.79384 0.0
C61 C 0.36513 0.74656 0.83138 0.0
C62 C 0.32414 0.74439 0.81621 0.0
C63 C 0.30985 0.77125 0.77841 0.0
O64 O 0.25256 0.76033 0.72769 0.0
O65 O 0.23965 0.78463 0.75931 0.0
O66 O 0.29126 0.78042 0.79028 0.0
O67 O 0.30434 0.75624 0.75873 0.0
H68 H 0.27432 0.79119 0.6967 0.0
H69 H 0.27531 0.82674 0.66573 0.0
H70 H 0.21013 0.85372 0.69862 0.0
H71 H 0.20917 0.81813 0.72958 0.0
H72 H 0.17289 0.69522 0.77408 0.0
H73 H 0.20729 0.72344 0.77116 0.0
H74 H 0.21286 0.64561 0.8254 0.0
H75 H 0.24703 0.67362 0.82208 0.0
H76 H 0.33806 0.72272 0.84879 0.0
H77 H 0.38712 0.77264 0.80911 0.0
H78 H 0.35559 0.7861 0.77865 0.0
H79 H 0.30655 0.73652 0.81834 0.0
C80 C 0.71102 0.75779 0.22367 0.0
C81 C 0.71525 0.76144 0.19631 0.0
C82 C 0.67786 0.74101 0.18506 0.0
C83 C 0.69887 0.75319 0.17728 0.0
C84 C 0.67384 0.73704 0.21243 0.0
C85 C 0.69018 0.74542 0.23149 0.0
U86 U 0.77086 0.75728 0.25991 0.0
O87 O 0.79365 0.78846 0.27296 0.0
O88 O 0.77964 0.76174 0.30241 0.0
C89 C 0.7908 0.78308 0.29837 0.0
C90 C 0.72764 0.76748 0.24419 0.0
C91 C 0.78437 0.80428 0.31565 0.0
C92 C 0.76012 0.82288 0.35007 0.0
C93 C 0.76512 0.80291 0.33322 0.0
C94 C 0.79319 0.8461 0.33181 0.0
C95 C 0.77414 0.8447 0.34963 0.0
C96 C 0.79828 0.82611 0.31512 0.0
C97 C 0.8152 0.7073 0.23531 0.0
C98 C 0.85587 0.70091 0.24967 0.0
C99 C 0.8374 0.67214 0.21878 0.0
C100 C 0.81663 0.68599 0.21947 0.0
C101 C 0.85725 0.67929 0.23398 0.0
C102 C 0.83495 0.71479 0.25039 0.0
C103 C 0.79276 0.72099 0.23557 0.0
O104 O 0.73237 0.75231 0.26426 0.0
O105 O 0.74637 0.77965 0.2355 0.0
O106 O 0.79342 0.74436 0.22735 0.0
O107 O 0.77936 0.71741 0.25655 0.0
H108 H 0.73105 0.771 0.1895 0.0
H109 H 0.70241 0.75701 0.15645 0.0
H110 H 0.65799 0.72751 0.21917 0.0
H111 H 0.6864 0.74242 0.25242 0.0
H112 H 0.74522 0.82127 0.36341 0.0
H113 H 0.754 0.78639 0.33412 0.0
H114 H 0.80456 0.86246 0.33122 0.0
H115 H 0.81332 0.8276 0.30195 0.0
H116 H 0.87078 0.7068 0.26177 0.0
H117 H 0.83794 0.65586 0.20617 0.0
H118 H 0.80159 0.68 0.2076 0.0
H119 H 0.83413 0.73121 0.26277 0.0
C120 C 0.75038 0.22473 0.72733 0.0
C121 C 0.73724 0.22715 0.70357 0.0
C122 C 0.75213 0.18742 0.68766 0.0
C123 C 0.73819 0.20881 0.68392 0.0
C124 C 0.7654 0.18506 0.71137 0.0
C125 C 0.76454 0.20347 0.73097 0.0
U126 U 0.77293 0.27933 0.77099 0.0
O127 O 0.75401 0.3126 0.78448 0.0
O128 O 0.7682 0.28591 0.81381 0.0
C129 C 0.75582 0.30626 0.80978 0.0
C130 C 0.74782 0.24358 0.74865 0.0
C131 C 0.7343 0.30848 0.82579 0.0
C132 C 0.69387 0.29664 0.83641 0.0
C133 C 0.71382 0.2945 0.82021 0.0
C134 C 0.71472 0.32682 0.86369 0.0
C135 C 0.69419 0.31269 0.8585 0.0
C136 C 0.73455 0.32472 0.84749 0.0
C137 C 0.83455 0.3071 0.76314 0.0
C138 C 0.84721 0.34311 0.78891 0.0
C139 C 0.87457 0.32333 0.75899 0.0
C140 C 0.85707 0.30598 0.75188 0.0
C141 C 0.86984 0.34219 0.77751 0.0
C142 C 0.82974 0.32569 0.78182 0.0
C143 C 0.8162 0.28897 0.75515 0.0
O144 O 0.76043 0.24034 0.77053 0.0
O145 O 0.74686 0.26709 0.74089 0.0
O146 O 0.79738 0.29858 0.74363 0.0
O147 O 0.81107 0.27172 0.77304 0.0
H148 H 0.7259 0.24311 0.70032 0.0
H149 H 0.72753 0.2111 0.66606 0.0
H150 H 0.77654 0.16898 0.71477 0.0
H151 H 0.77481 0.20084 0.74907 0.0
H152 H 0.67841 0.28532 0.83204 0.0
H153 H 0.71337 0.28179 0.80354 0.0
H154 H 0.71546 0.33958 0.88028 0.0
H155 H 0.75021 0.33571 0.85203 0.0
H156 H 0.84305 0.35722 0.80341 0.0
H157 H 0.89166 0.32229 0.74952 0.0
H158 H 0.86108 0.29178 0.7374 0.0
H159 H 0.81244 0.32677 0.79082 0.0
C160 C 0.82412 0.69344 0.77599 0.0
C161 C 0.84797 0.70015 0.77989 0.0
C162 C 0.86076 0.66037 0.76187 0.0
C163 C 0.86603 0.68381 0.77298 0.0
C164 C 0.83688 0.65374 0.75788 0.0
C165 C 0.8188 0.67004 0.76495 0.0
U166 U 0.79078 0.75439 0.76591 0.0
O167 O 0.75279 0.76274 0.76525 0.0
O168 O 0.77608 0.78099 0.79448 0.0
C169 C 0.75426 0.77745 0.78606 0.0
C170 C 0.8047 0.71051 0.78325 0.0
C171 C 0.73587 0.77471 0.80681 0.0
C172 C 0.69913 0.7564 0.8232 0.0
C173 C 0.71778 0.75663 0.805 0.0
C174 C 0.71655 0.79187 0.84573 0.0
C175 C 0.69814 0.77421 0.8436 0.0
C176 C 0.73512 0.79217 0.82749 0.0
C177 C 0.81308 0.79923 0.71089 0.0
C178 C 0.79478 0.82461 0.67603 0.0
C179 C 0.83113 0.83864 0.69697 0.0
C180 C 0.83121 0.81719 0.7131 0.0
C181 C 0.81304 0.84243 0.67806 0.0
C182 C 0.79476 0.80326 0.69227 0.0
C183 C 0.81431 0.77591 0.72693 0.0
O184 O 0.81089 0.73159 0.7947 0.0
O185 O 0.7879 0.71334 0.76525 0.0
O186 O 0.79733 0.75939 0.72311 0.0
O187 O 0.82022 0.77833 0.75217 0.0
H188 H 0.85278 0.71799 0.78842 0.0
H189 H 0.88415 0.68941 0.77684 0.0
H190 H 0.83212 0.63599 0.74912 0.0
H191 H 0.8006 0.66436 0.76172 0.0
H192 H 0.68538 0.74234 0.82122 0.0
H193 H 0.71773 0.74297 0.78924 0.0
H194 H 0.71622 0.80601 0.86099 0.0
H195 H 0.74862 0.80654 0.82913 0.0
H196 H 0.78045 0.82718 0.66185 0.0
H197 H 0.84555 0.85195 0.69881 0.0
H198 H 0.84567 0.81444 0.72707 0.0
H199 H 0.78051 0.78982 0.68996 0.0
C200 C 0.7339 0.26126 0.22779 0.0
C201 C 0.73555 0.27645 0.2049 0.0
C202 C 0.6963 0.26263 0.19037 0.0
C203 C 0.71691 0.27709 0.18631 0.0
C204 C 0.69478 0.24764 0.21348 0.0
C205 C 0.71338 0.24698 0.23195 0.0
U206 U 0.79053 0.28419 0.26472 0.0
O207 O 0.79917 0.2803 0.30736 0.0
O208 O 0.8211 0.26191 0.27764 0.0
C209 C 0.81666 0.26491 0.30308 0.0
C210 C 0.75339 0.25923 0.24733 0.0
C211 C 0.81661 0.24209 0.31954 0.0
C212 C 0.80095 0.20091 0.33046 0.0
C213 C 0.80107 0.22222 0.31407 0.0
C214 C 0.8319 0.21919 0.35782 0.0
C215 C 0.81627 0.19924 0.35264 0.0
C216 C 0.83206 0.2404 0.34139 0.0
C217 C 0.82203 0.34555 0.25218 0.0
C218 C 0.85745 0.35552 0.27785 0.0
C219 C 0.84259 0.38501 0.24499 0.0
C220 C 0.82399 0.36858 0.2389 0.0
C221 C 0.8596 0.37866 0.2645 0.0
C222 C 0.83883 0.33914 0.27176 0.0
C223 C 0.80253 0.32824 0.24561 0.0
O224 O 0.77474 0.25656 0.23764 0.0
O225 O 0.75271 0.2745 0.26764 0.0
O226 O 0.78676 0.32506 0.26445 0.0
O227 O 0.80894 0.30718 0.23465 0.0
H228 H 0.75124 0.28767 0.20135 0.0
H229 H 0.71854 0.28906 0.16889 0.0
H230 H 0.67936 0.23602 0.2171 0.0
H231 H 0.71183 0.23504 0.24943 0.0
H232 H 0.78853 0.18598 0.32613 0.0
H233 H 0.78894 0.2233 0.2973 0.0
H234 H 0.84409 0.21835 0.37454 0.0
H235 H 0.84417 0.25558 0.34585 0.0
H236 H 0.87005 0.35014 0.29316 0.0
H237 H 0.84389 0.40249 0.23404 0.0
H238 H 0.81121 0.37382 0.2237 0.0
H239 H 0.83753 0.32143 0.2823 0.0
C240 C 0.2692 0.23989 0.70281 0.0
C241 C 0.2895 0.23978 0.68676 0.0
C242 C 0.27953 0.19814 0.67102 0.0
C243 C 0.29456 0.21914 0.671 0.0
C244 C 0.25928 0.19824 0.68706 0.0
C245 C 0.25412 0.21894 0.70267 0.0
U246 U 0.28148 0.28119 0.76293 0.0
O247 O 0.28039 0.32207 0.76691 0.0
O248 O 0.25718 0.29831 0.79132 0.0
C249 C 0.26249 0.32115 0.78344 0.0
C250 C 0.26342 0.26161 0.71955 0.0
C251 C 0.2422 0.3369 0.77602 0.0
C252 C 0.20729 0.34495 0.74873 0.0
C253 C 0.22667 0.32994 0.7554 0.0
C254 C 0.21894 0.37417 0.78302 0.0
C255 C 0.20317 0.36726 0.76248 0.0
C256 C 0.23825 0.35913 0.7897 0.0
C257 C 0.3358 0.26025 0.80596 0.0
C258 C 0.35078 0.27782 0.84732 0.0
C259 C 0.37141 0.24373 0.8266 0.0
C260 C 0.35458 0.2434 0.80613 0.0
C261 C 0.36982 0.261 0.84741 0.0
C262 C 0.33389 0.27748 0.82669 0.0
C263 C 0.31862 0.25903 0.78388 0.0
O264 O 0.25554 0.25632 0.74356 0.0
O265 O 0.27855 0.28038 0.71924 0.0
O266 O 0.32006 0.27673 0.76561 0.0
O267 O 0.29677 0.25306 0.79013 0.0
H268 H 0.30152 0.25561 0.68631 0.0
H269 H 0.31035 0.21954 0.65893 0.0
H270 H 0.24716 0.18249 0.68716 0.0
H271 H 0.23825 0.21858 0.71461 0.0
H272 H 0.19565 0.33919 0.73267 0.0
H273 H 0.22951 0.31287 0.74452 0.0
H274 H 0.21613 0.391 0.7943 0.0
H275 H 0.25003 0.36478 0.8057 0.0
H276 H 0.34916 0.29149 0.86294 0.0
H277 H 0.38558 0.23027 0.82624 0.0
H278 H 0.35625 0.22987 0.79035 0.0
H279 H 0.31946 0.29064 0.82685 0.0
C280 C 0.23268 0.72376 0.2849 0.0
C281 C 0.2143 0.72447 0.26588 0.0
C282 C 0.19594 0.68747 0.28591 0.0
C283 C 0.19616 0.70653 0.2664 0.0
C284 C 0.21456 0.68652 0.3046 0.0
C285 C 0.23263 0.70453 0.30417 0.0
U286 U 0.28711 0.76168 0.2597 0.0
O287 O 0.29339 0.80221 0.26027 0.0
O288 O 0.31674 0.77724 0.28303 0.0
C289 C 0.31117 0.80043 0.27714 0.0
C290 C 0.2508 0.74392 0.28648 0.0
C291 C 0.3108 0.81783 0.29953 0.0
C292 C 0.29301 0.83371 0.33979 0.0
C293 C 0.29346 0.81617 0.31929 0.0
C294 C 0.32737 0.85445 0.32102 0.0
C295 C 0.30985 0.8532 0.34071 0.0
C296 C 0.32782 0.83692 0.30063 0.0
C297 C 0.31995 0.74831 0.19642 0.0
C298 C 0.35451 0.77352 0.18532 0.0
C299 C 0.34118 0.74105 0.15537 0.0
C300 C 0.32263 0.73514 0.17268 0.0
C301 C 0.35741 0.76026 0.16152 0.0
C302 C 0.33594 0.76762 0.20258 0.0
C303 C 0.30061 0.74187 0.21476 0.0
O304 O 0.27269 0.73691 0.29107 0.0
O305 O 0.24923 0.76237 0.26906 0.0
O306 O 0.28375 0.75853 0.21613 0.0
O307 O 0.30736 0.73342 0.23828 0.0
H308 H 0.21366 0.73907 0.25082 0.0
H309 H 0.18224 0.70761 0.2515 0.0
H310 H 0.21481 0.67226 0.32005 0.0
H311 H 0.24635 0.7037 0.31932 0.0
H312 H 0.27915 0.83239 0.35452 0.0
H313 H 0.28013 0.80154 0.31864 0.0
H314 H 0.34076 0.86901 0.32137 0.0
H315 H 0.34136 0.83842 0.28553 0.0
H316 H 0.36652 0.78857 0.19054 0.0
H317 H 0.34308 0.73023 0.13741 0.0
H318 H 0.31048 0.72016 0.16763 0.0
H319 H 0.33407 0.77807 0.22081 0.0
C320 C 0.99716 0.49941 0.27514 0.0
C321 C 0.06132 0.56209 0.2778 0.0
O322 O 1.00697 0.50818 0.296 0.0
Zn323 Zn 0.02905 0.53088 0.27792 0.0
O324 O 1.00404 0.50714 0.2522 0.0
Zn325 Zn 0.02903 0.53265 0.23514 0.0
O326 O 0.04926 0.51031 0.21528 0.0
O327 O 0.05236 0.50541 0.25886 0.0
O328 O 0.05445 0.55633 0.25423 0.0
O329 O 0.05119 0.55197 0.29779 0.0
O330 O 1.0055 0.55766 0.26066 0.0
O331 O 1.00838 0.55643 0.21691 0.0
C332 C 0.05857 0.49927 0.2353 0.0
C333 C 0.99906 0.56565 0.23758 0.0
C334 C 0.9973 0.47438 0.78955 0.0
C335 C 0.05668 0.54194 0.7927 0.0
O336 O 1.00607 0.48418 0.81046 0.0
Zn337 Zn 0.02721 0.50799 0.79265 0.0
O338 O 1.00425 0.48212 0.76664 0.0
Zn339 Zn 0.02791 0.50898 0.74971 0.0
O340 O 0.0507 0.48805 0.73127 0.0
O341 O 0.05276 0.48436 0.77501 0.0
O342 O 0.05069 0.53531 0.76911 0.0
O343 O 0.04741 0.53089 0.81269 0.0
O344 O 1.00293 0.53316 0.77415 0.0
O345 O 1.00597 0.53089 0.73043 0.0
C346 C 0.06023 0.47832 0.75193 0.0
C347 C 0.99634 0.54031 0.75082 0.0
C348 C 0.25271 0.98591 0.54607 0.0
C349 C 0.25377 0.05059 0.47559 0.0
O350 O 0.235 0.99526 0.53393 0.0
Zn351 Zn 0.25236 0.0182 0.51066 0.0
O352 O 0.27354 0.99355 0.54004 0.0
Zn353 Zn 0.29 0.01957 0.51307 0.0
O354 O 0.30563 0.04264 0.53715 0.0
O355 O 0.26675 0.04497 0.53787 0.0
O356 O 0.2744 0.04453 0.4841 0.0
O357 O 0.23569 0.03982 0.48551 0.0
O358 O 0.27029 0.99318 0.4848 0.0
O359 O 0.30868 0.99777 0.4911 0.0
C360 C 0.28703 0.0526 0.54613 0.0
C361 C 0.29153 0.98705 0.47922 0.0
C362 C 0.55645 0.73065 0.03843 0.0
C363 C 0.4967 0.73257 0.96665 0.0
O364 O 0.54669 0.71165 0.02779 0.0
Zn365 Zn 0.52664 0.73002 1.00255 0.0
O366 O 0.55048 0.75258 0.03064 0.0
Zn367 Zn 0.52732 0.77032 1.00272 0.0
O368 O 0.50554 0.78792 0.026 0.0
O369 O 0.50207 0.74694 0.02868 0.0
O370 O 0.50367 0.75409 0.97455 0.0
O371 O 0.50551 0.71306 0.97734 0.0
O372 O 0.55236 0.74713 0.97707 0.0
O373 O 0.54971 0.78809 0.97983 0.0
C374 C 0.49552 0.76865 0.03599 0.0
C375 C 0.55959 0.76897 0.97011 0.0
C376 C 0.80365 0.98884 0.55055 0.0
C377 C 0.80332 0.05316 0.48076 0.0
O378 O 0.78277 0.99481 0.54283 0.0
Zn379 Zn 0.7664 0.01969 0.51442 0.0
O380 O 0.82144 0.99952 0.53992 0.0
Zn381 Zn 0.80404 0.02086 0.51561 0.0
O382 O 0.78695 0.04611 0.54218 0.0
O383 O 0.74842 0.0416 0.53739 0.0
O384 O 0.82116 0.04329 0.49211 0.0
O385 O 0.7825 0.04592 0.48736 0.0
O386 O 0.75034 0.99645 0.49038 0.0
O387 O 0.78913 0.99415 0.48864 0.0
C388 C 0.76593 0.05231 0.54865 0.0
C389 C 0.76873 0.98651 0.48081 0.0
C390 C 0.5608 0.27026 0.05732 0.0
C391 C 0.49744 0.26959 0.98959 0.0
O392 O 0.55093 0.25111 0.04719 0.0
Zn393 Zn 0.52888 0.26866 0.0237 0.0
O394 O 0.55385 0.29206 0.05012 0.0
Zn395 Zn 0.5286 0.30878 0.02355 0.0
O396 O 0.50742 0.32598 0.0478 0.0
O397 O 0.50505 0.28498 0.05112 0.0
O398 O 0.50406 0.2915 0.99669 0.0
O399 O 0.5072 0.25059 1.00026 0.0
O400 O 0.55226 0.28624 0.9959 0.0
O401 O 0.54918 0.32713 0.99899 0.0
C402 C 0.49827 0.30658 0.05851 0.0
C403 C 0.55854 0.3082 0.98826 0.0
C404 C 0.17461 0.41673 0.22576 0.0
C405 C 0.1701 0.39093 0.22678 0.0
C406 C 0.15609 0.43401 0.22491 0.0
C407 C 0.13239 0.42535 0.22498 0.0
C408 C 0.12768 0.39933 0.22513 0.0
C409 C 0.14658 0.38244 0.22605 0.0
C410 C 0.16191 0.46158 0.22475 0.0
C411 C 0.10267 0.38933 0.22525 0.0
C412 C 0.08731 0.46885 0.25482 0.0
C413 C 0.07683 0.47974 0.2321 0.0
C414 C 0.1051 0.45094 0.25269 0.0
C415 C 0.11269 0.44353 0.22719 0.0
C416 C 0.10198 0.45409 0.20411 0.0
C417 C 0.0842 0.47213 0.20683 0.0
C418 C 0.11607 0.44025 0.27783 0.0
C419 C 0.10953 0.44656 0.17658 0.0
H420 H 0.19272 0.42348 0.22575 0.0
H421 H 0.1429 0.36256 0.227 0.0
H422 H 0.15271 0.47107 0.20793 0.0
H423 H 0.15557 0.4701 0.24342 0.0
H424 H 0.18119 0.46527 0.22306 0.0
H425 H 0.10195 0.36872 0.22305 0.0
H426 H 0.09405 0.39424 0.24426 0.0
H427 H 0.09223 0.39803 0.20888 0.0
H428 H 0.08179 0.47452 0.27448 0.0
H429 H 0.07619 0.48037 0.18917 0.0
H430 H 0.13521 0.44485 0.27847 0.0
H431 H 0.11438 0.4196 0.27799 0.0
H432 H 0.10776 0.44752 0.29615 0.0
H433 H 0.12839 0.45156 0.17359 0.0
H434 H 0.09885 0.45574 0.16066 0.0
H435 H 0.10791 0.42602 0.17441 0.0
C436 C 0.14669 0.65894 0.80443 0.0
C437 C 0.16981 0.65034 0.80101 0.0
C438 C 0.1274 0.64222 0.80513 0.0
C439 C 0.13131 0.61631 0.80218 0.0
C440 C 0.15464 0.60751 0.79904 0.0
C441 C 0.17356 0.6246 0.79851 0.0
C442 C 0.1028 0.65232 0.80858 0.0
C443 C 0.15958 0.58008 0.79552 0.0
C444 C 0.08438 0.56783 0.82096 0.0
C445 C 0.07473 0.56202 0.79593 0.0
C446 C 0.10245 0.58593 0.82347 0.0
C447 C 0.11099 0.59848 0.80043 0.0
C448 C 0.10086 0.59313 0.77525 0.0
C449 C 0.08293 0.57503 0.77332 0.0
C450 C 0.11279 0.59118 0.85066 0.0
C451 C 0.10939 0.60607 0.75017 0.0
H452 H 0.14368 0.67876 0.80669 0.0
H453 H 0.19132 0.61782 0.79549 0.0
H454 H 0.09206 0.64851 0.79047 0.0
H455 H 0.09396 0.64274 0.82554 0.0
H456 H 0.10286 0.67275 0.81216 0.0
H457 H 0.17879 0.57613 0.79471 0.0
H458 H 0.15177 0.56906 0.81214 0.0
H459 H 0.15119 0.57347 0.77679 0.0
H460 H 0.07816 0.55792 0.83853 0.0
H461 H 0.07552 0.57086 0.75387 0.0
H462 H 0.11223 0.61148 0.85475 0.0
H463 H 0.13163 0.5856 0.85123 0.0
H464 H 0.10328 0.58099 0.86677 0.0
H465 H 0.10833 0.62662 0.75234 0.0
H466 H 0.09897 0.60057 0.73229 0.0
H467 H 0.1282 0.60148 0.74675 0.0
C468 C 0.87731 0.6377 0.23464 0.0
C469 C 0.87905 0.66385 0.23364 0.0
C470 C 0.89753 0.62271 0.23404 0.0
C471 C 0.92015 0.63408 0.2324 0.0
C472 C 0.92207 0.66046 0.23128 0.0
C473 C 0.90151 0.67504 0.23199 0.0
C474 C 0.89467 0.59467 0.23558 0.0
C475 C 0.94586 0.67328 0.22949 0.0
C476 C 0.97094 0.59496 0.25899 0.0
C477 C 0.98014 0.5847 0.23563 0.0
C478 C 0.95192 0.61158 0.25811 0.0
C479 C 0.94173 0.61825 0.23324 0.0
C480 C 0.95134 0.60861 0.20948 0.0
C481 C 0.97043 0.59193 0.21095 0.0
C482 C 0.94226 0.62138 0.28393 0.0
C483 C 0.94099 0.61534 0.18257 0.0
H484 H 0.86007 0.62889 0.23632 0.0
H485 H 0.90299 0.69521 0.23091 0.0
H486 H 0.90331 0.58591 0.21829 0.0
H487 H 0.90349 0.58739 0.25386 0.0
H488 H 0.87582 0.58873 0.23589 0.0
H489 H 0.94433 0.69391 0.22789 0.0
H490 H 0.95664 0.66865 0.2474 0.0
H491 H 0.95557 0.66645 0.21192 0.0
H492 H 0.97833 0.58965 0.27819 0.0
H493 H 0.97741 0.58416 0.1928 0.0
H494 H 0.92387 0.61454 0.28668 0.0
H495 H 0.94168 0.64207 0.28331 0.0
H496 H 0.95296 0.61546 0.3015 0.0
H497 H 0.92267 0.60795 0.18106 0.0
H498 H 0.95145 0.6077 0.16593 0.0
H499 H 0.94007 0.63593 0.1802 0.0
C500 C 0.88242 0.3866 0.78571 0.0
C501 C 0.88827 0.36124 0.78415 0.0
C502 C 0.89993 0.40499 0.78966 0.0
C503 C 0.92391 0.39789 0.79212 0.0
C504 C 0.92981 0.37225 0.79174 0.0
C505 C 0.91195 0.35427 0.78774 0.0
C506 C 0.89287 0.43211 0.78985 0.0
C507 C 0.95512 0.36386 0.79439 0.0
C508 C 0.97001 0.44416 0.76718 0.0
C509 C 0.97885 0.45448 0.79091 0.0
C510 C 0.95226 0.42578 0.76743 0.0
C511 C 0.94296 0.41731 0.79204 0.0
C512 C 0.95183 0.42746 0.81614 0.0
C513 C 0.96969 0.44595 0.81531 0.0
C514 C 0.94335 0.41551 0.74124 0.0
C515 C 0.94235 0.41888 0.84275 0.0
H516 H 0.86423 0.39221 0.78275 0.0
H517 H 0.91658 0.33469 0.78705 0.0
H518 H 0.9009 0.4417 0.80722 0.0
H519 H 0.89956 0.4416 0.77162 0.0
H520 H 0.87339 0.4344 0.79052 0.0
H521 H 0.95654 0.34325 0.79635 0.0
H522 H 0.96518 0.37002 0.77657 0.0
H523 H 0.96366 0.37258 0.812 0.0
H524 H 0.97691 0.45053 0.74818 0.0
H525 H 0.97637 0.45381 0.83373 0.0
H526 H 0.92412 0.41893 0.7391 0.0
H527 H 0.94594 0.39501 0.74079 0.0
H528 H 0.95249 0.42404 0.72383 0.0
H529 H 0.92313 0.42262 0.84374 0.0
H530 H 0.9513 0.42835 0.85969 0.0
H531 H 0.94464 0.39842 0.84511 0.0
C532 C 0.24303 0.1481 0.35267 0.0
C533 C 0.24624 0.1726 0.36177 0.0
C534 C 0.24328 0.12763 0.37046 0.0
C535 C 0.24666 0.13171 0.39808 0.0
C536 C 0.24961 0.15642 0.40742 0.0
C537 C 0.24944 0.17652 0.38918 0.0
C538 C 0.24032 0.10159 0.35963 0.0
C539 C 0.25312 0.16163 0.43671 0.0
C540 C 0.22944 0.08087 0.44837 0.0
C541 C 0.25147 0.07051 0.45486 0.0
C542 C 0.22753 0.10062 0.42974 0.0
C543 C 0.2481 0.11012 0.41713 0.0
C544 C 0.27029 0.09938 0.4232 0.0
C545 C 0.27171 0.07983 0.44199 0.0
C546 C 0.20356 0.11164 0.4239 0.0
C547 C 0.29265 0.10877 0.4101 0.0
H548 H 0.24076 0.14489 0.33151 0.0
H549 H 0.25158 0.1954 0.39644 0.0
H550 H 0.25642 0.09055 0.36403 0.0
H551 H 0.22532 0.09193 0.36955 0.0
H552 H 0.23713 0.1016 0.33776 0.0
H553 H 0.25433 0.18193 0.44087 0.0
H554 H 0.23826 0.15351 0.44831 0.0
H555 H 0.26955 0.1526 0.44399 0.0
H556 H 0.21371 0.07387 0.45822 0.0
H557 H 0.28882 0.07192 0.44671 0.0
H558 H 0.19967 0.11083 0.40222 0.0
H559 H 0.2035 0.13161 0.42957 0.0
H560 H 0.18921 0.10176 0.43481 0.0
H561 H 0.2908 0.1079 0.38811 0.0
H562 H 0.30839 0.09782 0.41627 0.0
H563 H 0.29578 0.12861 0.4153 0.0
C564 C 0.37937 0.73776 0.87804 0.0
C565 C 0.38409 0.73931 0.85066 0.0
C566 C 0.39754 0.73339 0.89671 0.0
C567 C 0.42104 0.73044 0.88781 0.0
C568 C 0.42572 0.73073 0.86013 0.0
C569 C 0.40722 0.73521 0.8419 0.0
C570 C 0.39178 0.73336 0.92604 0.0
C571 C 0.45047 0.72752 0.84978 0.0
C572 C 0.46955 0.75347 0.93416 0.0
C573 C 0.47799 0.73124 0.94573 0.0
C574 C 0.45124 0.75332 0.91524 0.0
C575 C 0.44098 0.73034 0.90744 0.0
C576 C 0.44955 0.70773 0.91867 0.0
C577 C 0.46798 0.70843 0.93772 0.0
C578 C 0.44269 0.77789 0.90382 0.0
C579 C 0.43907 0.68287 0.91078 0.0
H580 H 0.3616 0.74108 0.88502 0.0
H581 H 0.41095 0.73594 0.82075 0.0
H582 H 0.39977 0.71697 0.93622 0.0
H583 H 0.39939 0.75035 0.93535 0.0
H584 H 0.37243 0.73306 0.92961 0.0
H585 H 0.45077 0.72529 0.8278 0.0
H586 H 0.46135 0.74411 0.85501 0.0
H587 H 0.45891 0.71101 0.85926 0.0
H588 H 0.47713 0.77124 0.94007 0.0
H589 H 0.47435 0.69117 0.94654 0.0
H590 H 0.42372 0.78035 0.90846 0.0
H591 H 0.44434 0.77798 0.88181 0.0
H592 H 0.45273 0.79412 0.9118 0.0
H593 H 0.4201 0.68212 0.91617 0.0
H594 H 0.44821 0.66694 0.92062 0.0
H595 H 0.44006 0.68061 0.88886 0.0
C596 C 0.77084 0.89052 0.35929 0.0
C597 C 0.76954 0.86564 0.36823 0.0
C598 C 0.76835 0.91048 0.37702 0.0
C599 C 0.76463 0.90549 0.40446 0.0
C600 C 0.76248 0.88042 0.41346 0.0
C601 C 0.76489 0.86082 0.39525 0.0
C602 C 0.77054 0.9369 0.36652 0.0
C603 C 0.7587 0.87424 0.44254 0.0
C604 C 0.78784 0.95364 0.45346 0.0
C605 C 0.76717 0.9659 0.46116 0.0
C606 C 0.78715 0.934 0.43519 0.0
C607 C 0.76525 0.92635 0.42403 0.0
C608 C 0.74428 0.93863 0.43159 0.0
C609 C 0.74546 0.95822 0.45014 0.0
C610 C 0.80994 0.92137 0.42786 0.0
C611 C 0.72061 0.93112 0.42002 0.0
H612 H 0.77406 0.89441 0.33838 0.0
H613 H 0.76405 0.84167 0.40239 0.0
H614 H 0.7554 0.94821 0.37322 0.0
H615 H 0.78686 0.94569 0.37461 0.0
H616 H 0.77126 0.9377 0.34441 0.0
H617 H 0.75541 0.854 0.446 0.0
H618 H 0.77455 0.87989 0.45423 0.0
H619 H 0.74352 0.88483 0.45033 0.0
H620 H 0.80472 0.95928 0.46187 0.0
H621 H 0.72941 0.96756 0.45591 0.0
H622 H 0.81294 0.92322 0.4061 0.0
H623 H 0.80879 0.90113 0.43263 0.0
H624 H 0.82548 0.92937 0.43852 0.0
H625 H 0.72093 0.93308 0.39799 0.0
H626 H 0.70596 0.94256 0.42781 0.0
H627 H 0.71689 0.91119 0.42469 0.0
C628 C 0.67696 0.3143 0.90433 0.0
C629 C 0.67352 0.31423 0.8766 0.0
C630 C 0.65775 0.31516 0.92182 0.0
C631 C 0.63445 0.31601 0.91139 0.0
C632 C 0.63085 0.31641 0.88342 0.0
C633 C 0.65042 0.31542 0.86636 0.0
C634 C 0.66238 0.3144 0.9515 0.0
C635 C 0.60629 0.3174 0.87152 0.0
C636 C 0.58664 0.2893 0.95622 0.0
C637 C 0.57705 0.31082 0.96753 0.0
C638 C 0.60491 0.29083 0.93757 0.0
C639 C 0.61393 0.31449 0.92983 0.0
C640 C 0.60403 0.33638 0.94065 0.0
C641 C 0.58571 0.3343 0.95942 0.0
C642 C 0.61495 0.267 0.92661 0.0
C643 C 0.61313 0.36195 0.93277 0.0
H644 H 0.69472 0.31305 0.91243 0.0
H645 H 0.64764 0.31568 0.84496 0.0
H646 H 0.65356 0.33026 0.96126 0.0
H647 H 0.65484 0.29696 0.96015 0.0
H648 H 0.68155 0.31517 0.9564 0.0
H649 H 0.60654 0.31926 0.84946 0.0
H650 H 0.59639 0.30013 0.8769 0.0
H651 H 0.59646 0.33335 0.87981 0.0
H652 H 0.58008 0.27103 0.9622 0.0
H653 H 0.57841 0.35102 0.96798 0.0
H654 H 0.63384 0.26542 0.93241 0.0
H655 H 0.61409 0.26733 0.90452 0.0
H656 H 0.60541 0.25011 0.93395 0.0
H657 H 0.63183 0.36403 0.93922 0.0
H658 H 0.6027 0.37714 0.94177 0.0
H659 H 0.61266 0.3642 0.91077 0.0
C660 C 0.24836 0.86044 0.63337 0.0
C661 C 0.24299 0.86436 0.66026 0.0
C662 C 0.24874 0.88034 0.61488 0.0
C663 C 0.2438 0.90486 0.62346 0.0
C664 C 0.23819 0.90893 0.65053 0.0
C665 C 0.23777 0.88864 0.66856 0.0
C666 C 0.25466 0.87515 0.58619 0.0
C667 C 0.23308 0.93479 0.66057 0.0
C668 C 0.26942 0.95817 0.58185 0.0
C669 C 0.24982 0.96593 0.56665 0.0
C670 C 0.26757 0.93866 0.60064 0.0
C671 C 0.2456 0.92636 0.60433 0.0
C672 C 0.22563 0.93427 0.58934 0.0
C673 C 0.22795 0.95401 0.57075 0.0
C674 C 0.28927 0.93101 0.61631 0.0
C675 C 0.20192 0.92157 0.59263 0.0
H676 H 0.25207 0.8417 0.62671 0.0
H677 H 0.23382 0.89187 0.68933 0.0
H678 H 0.24037 0.88211 0.57287 0.0
H679 H 0.2711 0.88526 0.58062 0.0
H680 H 0.25714 0.85493 0.58249 0.0
H681 H 0.22821 0.93471 0.68197 0.0
H682 H 0.24886 0.94695 0.65788 0.0
H683 H 0.21846 0.94324 0.64882 0.0
H684 H 0.28639 0.96729 0.57899 0.0
H685 H 0.21272 0.95981 0.55909 0.0
H686 H 0.29375 0.91138 0.61179 0.0
H687 H 0.28573 0.93193 0.63799 0.0
H688 H 0.30485 0.94302 0.61176 0.0
H689 H 0.20329 0.90159 0.58728 0.0
H690 H 0.18799 0.9303 0.58 0.0
H691 H 0.19636 0.92227 0.61376 0.0
C692 C 0.6666 0.72448 0.13988 0.0
C693 C 0.65977 0.73376 0.16472 0.0
C694 C 0.64994 0.72033 0.11946 0.0
C695 C 0.6258 0.72543 0.124 0.0
C696 C 0.61861 0.73337 0.14949 0.0
C697 C 0.63566 0.73755 0.16947 0.0
C698 C 0.65838 0.71187 0.09258 0.0
C699 C 0.59305 0.73894 0.15521 0.0
C700 C 0.5886 0.74923 0.06616 0.0
C701 C 0.57481 0.72825 0.05957 0.0
C702 C 0.60547 0.74829 0.08668 0.0
C703 C 0.60867 0.72582 0.10128 0.0
C704 C 0.59512 0.70438 0.09454 0.0
C705 C 0.57838 0.7058 0.07363 0.0
C706 C 0.61967 0.77155 0.09296 0.0
C707 C 0.59798 0.68014 0.10976 0.0
H708 H 0.68511 0.72098 0.13616 0.0
H709 H 0.63014 0.74491 0.18845 0.0
H710 H 0.64726 0.69621 0.08521 0.0
H711 H 0.65673 0.72745 0.07796 0.0
H712 H 0.6771 0.70583 0.09318 0.0
H713 H 0.58991 0.74181 0.17679 0.0
H714 H 0.58773 0.75611 0.14423 0.0
H715 H 0.58146 0.7235 0.14822 0.0
H716 H 0.58619 0.76662 0.05527 0.0
H717 H 0.56779 0.68953 0.06868 0.0
H718 H 0.63884 0.76759 0.09179 0.0
H719 H 0.61602 0.77755 0.11361 0.0
H720 H 0.61557 0.78729 0.07914 0.0
H721 H 0.61674 0.6743 0.10965 0.0
H722 H 0.58692 0.66488 0.10133 0.0
H723 H 0.593 0.6828 0.13088 0.0
C724 C 0.75405 0.17376 0.63987 0.0
C725 C 0.75264 0.16751 0.66705 0.0
C726 C 0.75499 0.15517 0.62031 0.0
C727 C 0.75443 0.12965 0.62805 0.0
C728 C 0.75261 0.12323 0.65542 0.0
C729 C 0.75178 0.1422 0.67455 0.0
C730 C 0.7571 0.16284 0.59139 0.0
C731 C 0.75187 0.09628 0.66453 0.0
C732 C 0.73998 0.08034 0.57576 0.0
C733 C 0.76258 0.07195 0.56905 0.0
C734 C 0.73701 0.09912 0.5949 0.0
C735 C 0.75708 0.10972 0.60768 0.0
C736 C 0.77989 0.10124 0.60103 0.0
C737 C 0.78235 0.08255 0.58186 0.0
C738 C 0.71239 0.10767 0.60142 0.0
C739 C 0.80178 0.11195 0.61417 0.0
H740 H 0.75495 0.19324 0.63389 0.0
H741 H 0.75031 0.13718 0.69546 0.0
H742 H 0.77415 0.15626 0.58338 0.0
H743 H 0.74281 0.15398 0.57945 0.0
H744 H 0.75619 0.18341 0.58852 0.0
H745 H 0.74943 0.09438 0.68641 0.0
H746 H 0.73726 0.08622 0.65429 0.0
H747 H 0.76857 0.08695 0.6591 0.0
H748 H 0.7246 0.07233 0.56599 0.0
H749 H 0.79991 0.07624 0.57693 0.0
H750 H 0.71077 0.12796 0.59719 0.0
H751 H 0.70895 0.10479 0.62297 0.0
H752 H 0.69861 0.09755 0.58982 0.0
H753 H 0.80278 0.13239 0.61046 0.0
H754 H 0.81824 0.10334 0.60678 0.0
H755 H 0.80092 0.10904 0.63606 0.0
C756 C 0.38008 0.30196 0.14393 0.0
C757 C 0.38457 0.30153 0.17147 0.0
C758 C 0.3984 0.30603 0.1256 0.0
C759 C 0.42181 0.3098 0.135 0.0
C760 C 0.42624 0.31069 0.16279 0.0
C761 C 0.4076 0.30651 0.18066 0.0
C762 C 0.3929 0.30485 0.09615 0.0
C763 C 0.45089 0.31482 0.17367 0.0
C764 C 0.47088 0.28618 0.09101 0.0
C765 C 0.47937 0.30819 0.07884 0.0
C766 C 0.45238 0.2866 0.10937 0.0
C767 C 0.44194 0.30963 0.11594 0.0
C768 C 0.45056 0.33202 0.10409 0.0
C769 C 0.46921 0.33105 0.08566 0.0
C770 C 0.44381 0.26226 0.12154 0.0
C771 C 0.43989 0.35692 0.11065 0.0
H772 H 0.3624 0.29796 0.13662 0.0
H773 H 0.41115 0.30666 0.20192 0.0
H774 H 0.40095 0.32102 0.0855 0.0
H775 H 0.40064 0.28768 0.08778 0.0
H776 H 0.37359 0.30463 0.09204 0.0
H777 H 0.45098 0.31788 0.19553 0.0
H778 H 0.46187 0.29827 0.16945 0.0
H779 H 0.45935 0.33114 0.16373 0.0
H780 H 0.47859 0.26839 0.08602 0.0
H781 H 0.4756 0.34814 0.07636 0.0
H782 H 0.42491 0.25921 0.11645 0.0
H783 H 0.44523 0.26301 0.14358 0.0
H784 H 0.454 0.24598 0.11454 0.0
H785 H 0.42099 0.35706 0.10466 0.0
H786 H 0.44907 0.37269 0.10044 0.0
H787 H 0.44065 0.35999 0.13247 0.0
C788 C 0.90153 0.65151 0.74466 0.0
C789 C 0.88011 0.64269 0.75532 0.0
C790 C 0.92059 0.63536 0.74055 0.0
C791 C 0.91819 0.60969 0.74707 0.0
C792 C 0.89629 0.60045 0.75665 0.0
C793 C 0.87759 0.61704 0.76077 0.0
C794 C 0.94363 0.646 0.73036 0.0
C795 C 0.89294 0.5732 0.76379 0.0
C796 C 0.96408 0.56235 0.72503 0.0
C797 C 0.97741 0.55926 0.7485 0.0
C798 C 0.94493 0.57902 0.724 0.0
C799 C 0.93922 0.59305 0.74685 0.0
C800 C 0.95316 0.59057 0.77023 0.0
C801 C 0.97194 0.57369 0.77079 0.0
C802 C 0.9304 0.58109 0.69875 0.0
C803 C 0.94794 0.60536 0.79496 0.0
H804 H 0.90354 0.67118 0.73984 0.0
H805 H 0.86127 0.60999 0.76925 0.0
H806 H 0.95722 0.64502 0.74638 0.0
H807 H 0.95012 0.63483 0.71346 0.0
H808 H 0.94196 0.66576 0.72374 0.0
H809 H 0.87422 0.5685 0.76821 0.0
H810 H 0.89897 0.56126 0.74728 0.0
H811 H 0.90384 0.56853 0.78159 0.0
H812 H 0.96817 0.55123 0.70777 0.0
H813 H 0.98229 0.57166 0.78894 0.0
H814 H 0.92909 0.6009 0.69229 0.0
H815 H 0.91216 0.57426 0.70257 0.0
H816 H 0.93795 0.57011 0.68224 0.0
H817 H 0.94769 0.62562 0.79013 0.0
H818 H 0.96114 0.6021 0.8111 0.0
H819 H 0.9302 0.60018 0.80259 0.0
C820 C 0.87626 0.42177 0.27175 0.0
C821 C 0.87978 0.3959 0.27039 0.0
C822 C 0.89534 0.43835 0.27545 0.0
C823 C 0.91857 0.42891 0.27784 0.0
C824 C 0.92215 0.40277 0.27753 0.0
C825 C 0.90274 0.3866 0.27379 0.0
C826 C 0.89073 0.46607 0.27575 0.0
C827 C 0.94661 0.39191 0.27992 0.0
C828 C 0.968 0.47111 0.25285 0.0
C829 C 0.97758 0.48075 0.27656 0.0
C830 C 0.94904 0.45413 0.25313 0.0
C831 C 0.93923 0.44642 0.27775 0.0
C832 C 0.94893 0.45575 0.30185 0.0
C833 C 0.96801 0.47283 0.30098 0.0
C834 C 0.93933 0.44464 0.22695 0.0
C835 C 0.93897 0.4479 0.32848 0.0
H836 H 0.85855 0.4291 0.26964 0.0
H837 H 0.9057 0.36668 0.27256 0.0
H838 H 0.89927 0.47468 0.29342 0.0
H839 H 0.89857 0.47501 0.2578 0.0
H840 H 0.87155 0.47032 0.27601 0.0
H841 H 0.9462 0.37125 0.28211 0.0
H842 H 0.95693 0.39685 0.26188 0.0
H843 H 0.95613 0.39991 0.2973 0.0
H844 H 0.97524 0.47697 0.23383 0.0
H845 H 0.97526 0.48014 0.31939 0.0
H846 H 0.92052 0.44998 0.22472 0.0
H847 H 0.94006 0.42396 0.22659 0.0
H848 H 0.94922 0.45215 0.20954 0.0
H849 H 0.9202 0.45354 0.32971 0.0
H850 H 0.94886 0.45628 0.34541 0.0
H851 H 0.93942 0.42727 0.33061 0.0
C852 C 0.18424 0.40918 0.75557 0.0
C853 C 0.18222 0.38304 0.75603 0.0
C854 C 0.16433 0.42434 0.75175 0.0
C855 C 0.14176 0.41316 0.74829 0.0
C856 C 0.13974 0.38679 0.74755 0.0
C857 C 0.15997 0.37206 0.75144 0.0
C858 C 0.16732 0.45236 0.75258 0.0
C859 C 0.11604 0.3741 0.74396 0.0
C860 C 0.08982 0.45022 0.77366 0.0
C861 C 0.08035 0.46069 0.75016 0.0
C862 C 0.1095 0.43451 0.77316 0.0
C863 C 0.12013 0.42894 0.74852 0.0
C864 C 0.11046 0.439 0.7246 0.0
C865 C 0.09067 0.45479 0.72569 0.0
C866 C 0.11916 0.42423 0.79916 0.0
C867 C 0.12124 0.43338 0.69795 0.0
H868 H 0.20141 0.41783 0.75858 0.0
H869 H 0.15816 0.3519 0.75193 0.0
H870 H 0.1586 0.46119 0.73505 0.0
H871 H 0.15867 0.45966 0.77065 0.0
H872 H 0.1862 0.45817 0.75297 0.0
H873 H 0.11774 0.35369 0.74081 0.0
H874 H 0.10513 0.37702 0.76192 0.0
H875 H 0.10638 0.38237 0.72674 0.0
H876 H 0.08202 0.45451 0.79271 0.0
H877 H 0.0835 0.46275 0.70744 0.0
H878 H 0.13758 0.43093 0.80221 0.0
H879 H 0.11962 0.40354 0.79857 0.0
H880 H 0.1085 0.42986 0.81656 0.0
H881 H 0.1396 0.44077 0.69729 0.0
H882 H 0.11105 0.4417 0.68111 0.0
H883 H 0.12219 0.4129 0.69512 0.0
C884 C 0.15268 0.67671 0.28376 0.0
C885 C 0.17616 0.66894 0.28703 0.0
C886 C 0.13385 0.65944 0.28424 0.0
C887 C 0.13856 0.6337 0.28793 0.0
C888 C 0.16218 0.62577 0.29172 0.0
C889 C 0.18067 0.64347 0.2913 0.0
C890 C 0.10894 0.66872 0.28027 0.0
C891 C 0.16799 0.59849 0.29545 0.0
C892 C 0.08761 0.58962 0.30606 0.0
C893 C 0.0812 0.58018 0.28102 0.0
C894 C 0.1063 0.607 0.30872 0.0
C895 C 0.11896 0.61497 0.28583 0.0
C896 C 0.1127 0.60527 0.2606 0.0
C897 C 0.09393 0.58814 0.25851 0.0
C898 C 0.11237 0.61701 0.33594 0.0
C899 C 0.12579 0.61309 0.2357 0.0
H900 H 0.149 0.69639 0.28092 0.0
H901 H 0.19875 0.63728 0.29364 0.0
H902 H 0.10147 0.66114 0.26149 0.0
H903 H 0.09754 0.66197 0.29677 0.0
H904 H 0.10811 0.68942 0.2793 0.0
H905 H 0.18705 0.59551 0.29972 0.0
H906 H 0.15753 0.59033 0.31204 0.0
H907 H 0.16313 0.58811 0.27715 0.0
H908 H 0.07791 0.58361 0.32355 0.0
H909 H 0.08928 0.5809 0.23905 0.0
H910 H 0.11033 0.6376 0.33597 0.0
H911 H 0.13111 0.61303 0.34088 0.0
H912 H 0.10103 0.6088 0.35178 0.0
H913 H 0.12412 0.63352 0.23246 0.0
H914 H 0.11906 0.60341 0.21767 0.0
H915 H 0.14489 0.60902 0.23804 0.0
C916 C 0.81816 0.8885 0.67012 0.0
C917 C 0.81342 0.86462 0.66006 0.0
C918 C 0.81789 0.90964 0.65332 0.0
C919 C 0.81295 0.90678 0.6258 0.0
C920 C 0.80863 0.88266 0.61548 0.0
C921 C 0.80884 0.8619 0.63274 0.0
C922 C 0.82235 0.93509 0.6651 0.0
C923 C 0.80346 0.8788 0.58623 0.0
C924 C 0.78696 0.96023 0.58534 0.0
C925 C 0.80664 0.96903 0.57111 0.0
C926 C 0.78895 0.94048 0.60375 0.0
C927 C 0.81114 0.92905 0.60793 0.0
C928 C 0.83121 0.93817 0.59411 0.0
C929 C 0.82875 0.95815 0.57593 0.0
C930 C 0.76715 0.93145 0.61825 0.0
C931 C 0.85514 0.92637 0.59797 0.0
H932 H 0.82154 0.8907 0.69126 0.0
H933 H 0.80553 0.84343 0.62482 0.0
H934 H 0.83695 0.94472 0.65441 0.0
H935 H 0.80637 0.94677 0.66258 0.0
H936 H 0.82692 0.93403 0.68664 0.0
H937 H 0.80152 0.85873 0.58119 0.0
H938 H 0.78691 0.88851 0.58053 0.0
H939 H 0.81786 0.88704 0.574 0.0
H940 H 0.76983 0.96863 0.58192 0.0
H941 H 0.84403 0.96481 0.56499 0.0
H942 H 0.7704 0.93132 0.64008 0.0
H943 H 0.76293 0.91199 0.6124 0.0
H944 H 0.75151 0.94325 0.61387 0.0
H945 H 0.86003 0.92603 0.61942 0.0
H946 H 0.8692 0.93642 0.58675 0.0
H947 H 0.85446 0.90671 0.59121 0.0
C948 C 0.65291 0.26345 0.1793 0.0
C949 C 0.67643 0.26299 0.17064 0.0
C950 C 0.63397 0.26352 0.16103 0.0
C951 C 0.63858 0.26315 0.13334 0.0
C952 C 0.66227 0.26255 0.12444 0.0
C953 C 0.68089 0.2625 0.14317 0.0
C954 C 0.60901 0.26438 0.17137 0.0
C955 C 0.66794 0.26214 0.0951 0.0
C956 C 0.58862 0.24461 0.08576 0.0
C957 C 0.58056 0.268 0.07691 0.0
C958 C 0.60753 0.24269 0.10408 0.0
C959 C 0.61866 0.26466 0.11372 0.0
C960 C 0.6106 0.28827 0.10482 0.0
C961 C 0.59171 0.28964 0.08662 0.0
C962 C 0.61558 0.21717 0.11316 0.0
C963 C 0.62195 0.31216 0.11453 0.0
H964 H 0.64928 0.26416 0.20045 0.0
H965 H 0.69897 0.26179 0.13629 0.0
H966 H 0.60037 0.28182 0.16444 0.0
H967 H 0.59851 0.24853 0.16335 0.0
H968 H 0.60836 0.2636 0.19349 0.0
H969 H 0.68723 0.26093 0.09143 0.0
H970 H 0.65901 0.24601 0.08554 0.0
H971 H 0.66117 0.2793 0.08521 0.0
H972 H 0.58017 0.22779 0.07839 0.0
H973 H 0.58572 0.30784 0.07992 0.0
H974 H 0.61391 0.21539 0.13512 0.0
H975 H 0.63451 0.21471 0.10835 0.0
H976 H 0.6052 0.20191 0.10371 0.0
H977 H 0.62053 0.31326 0.13653 0.0
H978 H 0.61369 0.32904 0.10556 0.0
H979 H 0.64104 0.31238 0.10967 0.0
C980 C 0.29067 0.18013 0.62702 0.0
C981 C 0.28449 0.17644 0.65379 0.0
C982 C 0.29351 0.1598 0.60992 0.0
C983 C 0.29022 0.1352 0.61989 0.0
C984 C 0.28501 0.13133 0.64718 0.0
C985 C 0.28209 0.152 0.66378 0.0
C986 C 0.29887 0.16473 0.5809 0.0
C987 C 0.2816 0.10538 0.65863 0.0
C988 C 0.26764 0.08646 0.57153 0.0
C989 C 0.28827 0.07342 0.56537 0.0
C990 C 0.26814 0.10655 0.58918 0.0
C991 C 0.28977 0.11375 0.60125 0.0
C992 C 0.31068 0.1006 0.59535 0.0
C993 C 0.30971 0.08062 0.57734 0.0
C994 C 0.24546 0.12019 0.59476 0.0
C995 C 0.33403 0.10765 0.60803 0.0
H996 H 0.29238 0.19898 0.61916 0.0
H997 H 0.27767 0.14906 0.68456 0.0
H998 H 0.31404 0.15332 0.57452 0.0
H999 H 0.28341 0.15921 0.5685 0.0
H1000 H 0.30298 0.18472 0.57682 0.0
H1001 H 0.27999 0.10544 0.68068 0.0
H1002 H 0.26533 0.09686 0.65009 0.0
H1003 H 0.29661 0.09331 0.65319 0.0
H1004 H 0.25099 0.08116 0.56232 0.0
H1005 H 0.32571 0.07062 0.57273 0.0
H1006 H 0.24743 0.14021 0.58927 0.0
H1007 H 0.24151 0.11922 0.61637 0.0
H1008 H 0.23014 0.11234 0.5836 0.0
H1009 H 0.33868 0.12723 0.60274 0.0
H1010 H 0.3486 0.09533 0.60167 0.0
H1011 H 0.33261 0.10658 0.63006 0.0
C1012 C 0.37441 0.76619 0.11573 0.0
C1013 C 0.37762 0.76593 0.14348 0.0
C1014 C 0.39361 0.76963 0.09846 0.0
C1015 C 0.41666 0.77285 0.10916 0.0
C1016 C 0.41989 0.77365 0.13715 0.0
C1017 C 0.40036 0.77017 0.15396 0.0
C1018 C 0.38937 0.76874 0.06874 0.0
C1019 C 0.44415 0.77695 0.14939 0.0
C1020 C 0.46679 0.74858 0.06718 0.0
C1021 C 0.47604 0.77051 0.05556 0.0
C1022 C 0.44775 0.74924 0.08483 0.0
C1023 C 0.43754 0.77242 0.09119 0.0
C1024 C 0.44696 0.79474 0.07996 0.0
C1025 C 0.46614 0.79353 0.06226 0.0
C1026 C 0.43836 0.72499 0.09639 0.0
C1027 C 0.43656 0.8198 0.08636 0.0
H1028 H 0.35685 0.76339 0.10746 0.0
H1029 H 0.40307 0.76981 0.17537 0.0
H1030 H 0.3978 0.78507 0.05877 0.0
H1031 H 0.39755 0.75172 0.06057 0.0
H1032 H 0.37025 0.76849 0.06357 0.0
H1033 H 0.44338 0.77999 0.17124 0.0
H1034 H 0.45481 0.76005 0.14575 0.0
H1035 H 0.4535 0.793 0.13999 0.0
H1036 H 0.47431 0.73066 0.06233 0.0
H1037 H 0.47315 0.81056 0.05341 0.0
H1038 H 0.41966 0.72224 0.09023 0.0
H1039 H 0.4388 0.72561 0.11848 0.0
H1040 H 0.44863 0.70858 0.08989 0.0
H1041 H 0.4179 0.82045 0.07949 0.0
H1042 H 0.44643 0.83548 0.07682 0.0
H1043 H 0.43657 0.8226 0.10824 0.0
C1044 C 0.81612 0.1802 0.39845 0.0
C1045 C 0.81561 0.17708 0.37072 0.0
C1046 C 0.81507 0.15957 0.41587 0.0
C1047 C 0.81352 0.13519 0.40534 0.0
C1048 C 0.81329 0.13187 0.37738 0.0
C1049 C 0.81426 0.15287 0.3604 0.0
C1050 C 0.81513 0.16392 0.44556 0.0
C1051 C 0.81177 0.10615 0.36542 0.0
C1052 C 0.82869 0.08131 0.45234 0.0
C1053 C 0.80619 0.0734 0.4606 0.0
C1054 C 0.83137 0.10109 0.43393 0.0
C1055 C 0.81108 0.1133 0.42368 0.0
C1056 C 0.78835 0.10516 0.43165 0.0
C1057 C 0.78618 0.08531 0.44993 0.0
C1058 C 0.8559 0.10918 0.42576 0.0
C1059 C 0.76627 0.11774 0.42127 0.0
H1060 H 0.81684 0.19887 0.40656 0.0
H1061 H 0.81413 0.15034 0.33899 0.0
H1062 H 0.79834 0.1569 0.45425 0.0
H1063 H 0.8297 0.15338 0.45523 0.0
H1064 H 0.81719 0.18399 0.45054 0.0
H1065 H 0.81269 0.1067 0.34331 0.0
H1066 H 0.82634 0.09437 0.37322 0.0
H1067 H 0.79493 0.09696 0.37128 0.0
H1068 H 0.84424 0.07219 0.4604 0.0
H1069 H 0.7687 0.07937 0.45615 0.0
H1070 H 0.85923 0.12868 0.43209 0.0
H1071 H 0.85746 0.10884 0.40374 0.0
H1072 H 0.8698 0.09707 0.43461 0.0
H1073 H 0.76635 0.13763 0.42721 0.0
H1074 H 0.74989 0.10872 0.4289 0.0
H1075 H 0.76583 0.11733 0.39918 0.0
C1076 C 0.41217 0.25899 0.86239 0.0
C1077 C 0.38821 0.26145 0.86883 0.0
C1078 C 0.42979 0.25906 0.88223 0.0
C1079 C 0.42337 0.26169 0.90926 0.0
C1080 C 0.39922 0.26404 0.91595 0.0
C1081 C 0.38193 0.26395 0.89566 0.0
C1082 C 0.45533 0.25678 0.87419 0.0
C1083 C 0.39166 0.26686 0.94454 0.0
C1084 C 0.46881 0.24371 0.96253 0.0
C1085 C 0.47846 0.26708 0.96913 0.0
C1086 C 0.45065 0.24164 0.9433 0.0
C1087 C 0.44207 0.26341 0.93029 0.0
C1088 C 0.45177 0.28699 0.93689 0.0
C1089 C 0.46974 0.28853 0.9562 0.0
C1090 C 0.44069 0.21618 0.93683 0.0
C1091 C 0.44327 0.31066 0.9234 0.0
H1092 H 0.41722 0.2574 0.84169 0.0
H1093 H 0.36345 0.26555 0.90083 0.0
H1094 H 0.4652 0.27396 0.87975 0.0
H1095 H 0.46368 0.24094 0.88501 0.0
H1096 H 0.45731 0.25386 0.85243 0.0
H1097 H 0.37214 0.26749 0.94655 0.0
H1098 H 0.39846 0.25109 0.95681 0.0
H1099 H 0.39932 0.28427 0.95285 0.0
H1100 H 0.47535 0.22706 0.97245 0.0
H1101 H 0.47705 0.3067 0.96106 0.0
H1102 H 0.44357 0.21207 0.91548 0.0
H1103 H 0.42133 0.21585 0.94015 0.0
H1104 H 0.44889 0.20114 0.94909 0.0
H1105 H 0.44615 0.30958 0.9016 0.0
H1106 H 0.45249 0.32757 0.931 0.0
H1107 H 0.42401 0.31282 0.92649 0.0
C1108 C 0.31191 0.89789 0.35485 0.0
C1109 C 0.30881 0.8726 0.36164 0.0
C1110 C 0.31043 0.91656 0.37416 0.0
C1111 C 0.30574 0.90981 0.40096 0.0
C1112 C 0.30297 0.8843 0.40805 0.0
C1113 C 0.30447 0.866 0.38829 0.0
C1114 C 0.31326 0.94357 0.36574 0.0
C1115 C 0.29803 0.87636 0.43644 0.0
C1116 C 0.3182 0.95785 0.45483 0.0
C1117 C 0.29557 0.96744 0.45913 0.0
C1118 C 0.32181 0.93893 0.43609 0.0
C1119 C 0.30236 0.92955 0.42121 0.0
C1120 C 0.27953 0.93926 0.4254 0.0
C1121 C 0.27641 0.95799 0.44431 0.0
C1122 C 0.34639 0.92895 0.43221 0.0
C1123 C 0.25835 0.9299 0.40982 0.0
H1124 H 0.31496 0.90316 0.33424 0.0
H1125 H 0.30234 0.84647 0.39371 0.0
H1126 H 0.29655 0.95368 0.36921 0.0
H1127 H 0.3272 0.95275 0.37794 0.0
H1128 H 0.31795 0.94563 0.34437 0.0
H1129 H 0.29749 0.85573 0.43892 0.0
H1130 H 0.31179 0.88407 0.44998 0.0
H1131 H 0.28083 0.88399 0.44279 0.0
H1132 H 0.33307 0.96498 0.46625 0.0
H1133 H 0.25886 0.9653 0.4474 0.0
H1134 H 0.35191 0.93196 0.41125 0.0
H1135 H 0.34653 0.90852 0.43609 0.0
H1136 H 0.35958 0.938 0.44555 0.0
H1137 H 0.26124 0.93287 0.38817 0.0
H1138 H 0.24179 0.93942 0.41545 0.0
H1139 H 0.25599 0.90953 0.41317 0.0
C1140 C 0.68124 0.77868 0.88951 0.0
C1141 C 0.67769 0.77483 0.86213 0.0
C1142 C 0.6621 0.77922 0.90718 0.0
C1143 C 0.63879 0.77594 0.89727 0.0
C1144 C 0.63506 0.77244 0.86961 0.0
C1145 C 0.65453 0.77187 0.85241 0.0
C1146 C 0.66686 0.78274 0.93655 0.0
C1147 C 0.61051 0.76897 0.85821 0.0
C1148 C 0.59219 0.74981 0.94419 0.0
C1149 C 0.57975 0.77128 0.95138 0.0
C1150 C 0.61144 0.75116 0.92678 0.0
C1151 C 0.61845 0.77455 0.916 0.0
C1152 C 0.60599 0.79634 0.92307 0.0
C1153 C 0.58684 0.79447 0.94078 0.0
C1154 C 0.62429 0.72748 0.91996 0.0
C1155 C 0.61288 0.8216 0.91186 0.0
H1156 H 0.69908 0.78078 0.89722 0.0
H1157 H 0.6516 0.76931 0.83124 0.0
H1158 H 0.65651 0.79865 0.94407 0.0
H1159 H 0.66111 0.76584 0.94779 0.0
H1160 H 0.68587 0.78622 0.94091 0.0
H1161 H 0.6105 0.76771 0.83613 0.0
H1162 H 0.60242 0.75165 0.8665 0.0
H1163 H 0.59912 0.78474 0.86402 0.0
H1164 H 0.58701 0.73178 0.95234 0.0
H1165 H 0.57735 0.81115 0.94618 0.0
H1166 H 0.64323 0.72924 0.92553 0.0
H1167 H 0.62342 0.72436 0.89815 0.0
H1168 H 0.61679 0.7108 0.93028 0.0
H1169 H 0.63146 0.82603 0.91731 0.0
H1170 H 0.60139 0.83673 0.91921 0.0
H1171 H 0.6118 0.82133 0.88977 0.0
loop_
_geom_bond_atom_site_label_1
_geom_bond_atom_site_label_2
_geom_bond_distance
_geom_bond_site_symmetry_2
_ccdc_geom_bond_type
C0 C1 1.264 . S
C0 C5 1.479 . S
C0 C10 1.465 . S
C1 C0 1.264 . S
C1 C3 1.339 . S
C1 H28 0.931 . S
C2 C3 1.395 . S
C2 C4 1.320 . S
C3 C1 1.339 . S
C3 C2 1.395 . S
C3 H29 0.929 . S
C4 C2 1.320 . S
C4 C5 1.405 . S
C4 H30 0.930 . S
C5 C0 1.479 . S
C5 C4 1.405 . S
C5 H31 0.931 . S
U6 O7 2.454 . S
U6 O8 2.458 . S
U6 C9 2.984 . S
U6 C10 2.847 . S
U6 C23 2.882 . S
U6 O24 2.441 . S
U6 O25 2.420 . S
U6 O26 2.455 . S
U6 O27 2.449 . S
O7 U6 2.454 . S
O7 C9 1.353 . S
O8 U6 2.458 . S
O8 C9 1.286 . S
C9 U6 2.984 . S
C9 O7 1.353 . S
C9 O8 1.286 . S
C9 C11 1.363 . S
C10 C0 1.465 . S
C10 U6 2.847 . S
C10 O24 1.249 . S
C10 O25 1.202 . S
C11 C9 1.363 . S
C11 C13 1.408 . S
C11 C16 1.342 . S
C12 C13 1.310 . S
C12 C15 1.461 . S
C12 H32 0.932 . S
C13 C11 1.408 . S
C13 C12 1.310 . S
C13 H33 0.930 . S
C14 C15 1.474 . S
C14 C16 1.285 . S
C14 H34 0.929 . S
C15 C12 1.461 . S
C15 C14 1.474 . S
C16 C11 1.342 . S
C16 C14 1.285 . S
C16 H35 0.930 . S
C17 C20 1.424 . S
C17 C22 1.245 . S
C17 C23 1.428 . S
C18 C21 1.260 . S
C18 C22 1.477 . S
C18 H36 0.932 . S
C19 C20 1.384 . S
C19 C21 1.479 . S
C19 H37 0.929 . S
C20 C17 1.424 . S
C20 C19 1.384 . S
C20 H38 0.928 . S
C21 C18 1.260 . S
C21 C19 1.479 . S
C22 C17 1.245 . S
C22 C18 1.477 . S
C22 H39 0.932 . S
C23 U6 2.882 . S
C23 C17 1.428 . S
C23 O26 1.301 . S
C23 O27 1.282 . S
O24 U6 2.441 . S
O24 C10 1.249 . S
O25 U6 2.420 . S
O25 C10 1.202 . S
O26 U6 2.455 . S
O26 C23 1.301 . S
O27 U6 2.449 . S
O27 C23 1.282 . S
H28 C1 0.931 . S
H29 C3 0.929 . S
H30 C4 0.930 . S
H31 C5 0.931 . S
H32 C12 0.932 . S
H33 C13 0.930 . S
H34 C14 0.929 . S
H35 C16 0.930 . S
H36 C18 0.932 . S
H37 C19 0.929 . S
H38 C20 0.928 . S
H39 C22 0.932 . S
C40 C41 1.264 . S
C40 C45 1.479 . S
C40 C50 1.465 . S
C41 C40 1.264 . S
C41 C43 1.339 . S
C41 H68 0.931 . S
C42 C43 1.395 . S
C42 C44 1.320 . S
C43 C41 1.339 . S
C43 C42 1.395 . S
C43 H69 0.929 . S
C44 C42 1.320 . S
C44 C45 1.405 . S
C44 H70 0.930 . S
C45 C40 1.479 . S
C45 C44 1.405 . S
C45 H71 0.931 . S
U46 O47 2.454 . S
U46 O48 2.458 . S
U46 C49 2.984 . S
U46 C50 2.847 . S
U46 C63 2.882 . S
U46 O64 2.441 . S
U46 O65 2.420 . S
U46 O66 2.455 . S
U46 O67 2.449 . S
O47 U46 2.454 . S
O47 C49 1.353 . S
O48 U46 2.458 . S
O48 C49 1.286 . S
C49 U46 2.984 . S
C49 O47 1.353 . S
C49 O48 1.286 . S
C49 C51 1.363 . S
C50 C40 1.465 . S
C50 U46 2.847 . S
C50 O64 1.249 . S
C50 O65 1.202 . S
C51 C49 1.363 . S
C51 C53 1.408 . S
C51 C56 1.342 . S
C52 C53 1.310 . S
C52 C55 1.461 . S
C52 H72 0.932 . S
C53 C51 1.408 . S
C53 C52 1.310 . S
C53 H73 0.930 . S
C54 C55 1.474 . S
C54 C56 1.285 . S
C54 H74 0.929 . S
C55 C52 1.461 . S
C55 C54 1.474 . S
C56 C51 1.342 . S
C56 C54 1.285 . S
C56 H75 0.930 . S
C57 C60 1.424 . S
C57 C62 1.245 . S
C57 C63 1.428 . S
C58 C61 1.260 . S
C58 C62 1.477 . S
C58 H76 0.932 . S
C59 C60 1.384 . S
C59 C61 1.479 . S
C59 H77 0.929 . S
C60 C57 1.424 . S
C60 C59 1.384 . S
C60 H78 0.928 . S
C61 C58 1.260 . S
C61 C59 1.479 . S
C62 C57 1.245 . S
C62 C58 1.477 . S
C62 H79 0.932 . S
C63 U46 2.882 . S
C63 C57 1.428 . S
C63 O66 1.301 . S
C63 O67 1.282 . S
O64 U46 2.441 . S
O64 C50 1.249 . S
O65 U46 2.420 . S
O65 C50 1.202 . S
O66 U46 2.455 . S
O66 C63 1.301 . S
O67 U46 2.449 . S
O67 C63 1.282 . S
H68 C41 0.931 . S
H69 C43 0.929 . S
H70 C44 0.930 . S
H71 C45 0.931 . S
H72 C52 0.932 . S
H73 C53 0.930 . S
H74 C54 0.929 . S
H75 C56 0.930 . S
H76 C58 0.932 . S
H77 C59 0.929 . S
H78 C60 0.928 . S
H79 C62 0.932 . S
C80 C81 1.264 . S
C80 C85 1.479 . S
C80 C90 1.465 . S
C81 C80 1.264 . S
C81 C83 1.339 . S
C81 H108 0.931 . S
C82 C83 1.395 . S
C82 C84 1.320 . S
C83 C81 1.339 . S
C83 C82 1.395 . S
C83 H109 0.929 . S
C84 C82 1.320 . S
C84 C85 1.405 . S
C84 H110 0.930 . S
C85 C80 1.479 . S
C85 C84 1.405 . S
C85 H111 0.931 . S
U86 O87 2.454 . S
U86 O88 2.458 . S
U86 C89 2.984 . S
U86 C90 2.847 . S
U86 C103 2.882 . S
U86 O104 2.441 . S
U86 O105 2.420 . S
U86 O106 2.455 . S
U86 O107 2.449 . S
O87 U86 2.454 . S
O87 C89 1.353 . S
O88 U86 2.458 . S
O88 C89 1.286 . S
C89 U86 2.984 . S
C89 O87 1.353 . S
C89 O88 1.286 . S
C89 C91 1.363 . S
C90 C80 1.465 . S
C90 U86 2.847 . S
C90 O104 1.249 . S
C90 O105 1.202 . S
C91 C89 1.363 . S
C91 C93 1.408 . S
C91 C96 1.342 . S
C92 C93 1.310 . S
C92 C95 1.461 . S
C92 H112 0.932 . S
C93 C91 1.408 . S
C93 C92 1.310 . S
C93 H113 0.930 . S
C94 C95 1.474 . S
C94 C96 1.285 . S
C94 H114 0.929 . S
C95 C92 1.461 . S
C95 C94 1.474 . S
C96 C91 1.342 . S
C96 C94 1.285 . S
C96 H115 0.930 . S
C97 C100 1.424 . S
C97 C102 1.245 . S
C97 C103 1.428 . S
C98 C101 1.260 . S
C98 C102 1.477 . S
C98 H116 0.932 . S
C99 C100 1.384 . S
C99 C101 1.479 . S
C99 H117 0.929 . S
C100 C97 1.424 . S
C100 C99 1.384 . S
C100 H118 0.928 . S
C101 C98 1.260 . S
C101 C99 1.479 . S
C102 C97 1.245 . S
C102 C98 1.477 . S
C102 H119 0.932 . S
C103 U86 2.882 . S
C103 C97 1.428 . S
C103 O106 1.301 . S
C103 O107 1.282 . S
O104 U86 2.441 . S
O104 C90 1.249 . S
O105 U86 2.420 . S
O105 C90 1.202 . S
O106 U86 2.455 . S
O106 C103 1.301 . S
O107 U86 2.449 . S
O107 C103 1.282 . S
H108 C81 0.931 . S
H109 C83 0.929 . S
H110 C84 0.930 . S
H111 C85 0.931 . S
H112 C92 0.932 . S
H113 C93 0.930 . S
H114 C94 0.929 . S
H115 C96 0.930 . S
H116 C98 0.932 . S
H117 C99 0.929 . S
H118 C100 0.928 . S
H119 C102 0.932 . S
C120 C121 1.264 . S
C120 C125 1.479 . S
C120 C130 1.465 . S
C121 C120 1.264 . S
C121 C123 1.339 . S
C121 H148 0.931 . S
C122 C123 1.395 . S
C122 C124 1.320 . S
C123 C121 1.339 . S
C123 C122 1.395 . S
C123 H149 0.929 . S
C124 C122 1.320 . S
C124 C125 1.405 . S
C124 H150 0.930 . S
C125 C120 1.479 . S
C125 C124 1.405 . S
C125 H151 0.931 . S
U126 O127 2.454 . S
U126 O128 2.458 . S
U126 C129 2.984 . S
U126 C130 2.847 . S
U126 C143 2.882 . S
U126 O144 2.441 . S
U126 O145 2.420 . S
U126 O146 2.455 . S
U126 O147 2.449 . S
O127 U126 2.454 . S
O127 C129 1.353 . S
O128 U126 2.458 . S
O128 C129 1.286 . S
C129 U126 2.984 . S
C129 O127 1.353 . S
C129 O128 1.286 . S
C129 C131 1.363 . S
C130 C120 1.465 . S
C130 U126 2.847 . S
C130 O144 1.249 . S
C130 O145 1.202 . S
C131 C129 1.363 . S
C131 C133 1.408 . S
C131 C136 1.342 . S
C132 C133 1.310 . S
C132 C135 1.461 . S
C132 H152 0.932 . S
C133 C131 1.408 . S
C133 C132 1.310 . S
C133 H153 0.930 . S
C134 C135 1.474 . S
C134 C136 1.285 . S
C134 H154 0.929 . S
C135 C132 1.461 . S
C135 C134 1.474 . S
C136 C131 1.342 . S
C136 C134 1.285 . S
C136 H155 0.930 . S
C137 C140 1.424 . S
C137 C142 1.245 . S
C137 C143 1.428 . S
C138 C141 1.260 . S
C138 C142 1.477 . S
C138 H156 0.932 . S
C139 C140 1.384 . S
C139 C141 1.479 . S
C139 H157 0.929 . S
C140 C137 1.424 . S
C140 C139 1.384 . S
C140 H158 0.928 . S
C141 C138 1.260 . S
C141 C139 1.479 . S
C142 C137 1.245 . S
C142 C138 1.477 . S
C142 H159 0.932 . S
C143 U126 2.882 . S
C143 C137 1.428 . S
C143 O146 1.301 . S
C143 O147 1.282 . S
O144 U126 2.441 . S
O144 C130 1.249 . S
O145 U126 2.420 . S
O145 C130 1.202 . S
O146 U126 2.455 . S
O146 C143 1.301 . S
O147 U126 2.449 . S
O147 C143 1.282 . S
H148 C121 0.931 . S
H149 C123 0.929 . S
H150 C124 0.930 . S
H151 C125 0.931 . S
H152 C132 0.932 . S
H153 C133 0.930 . S
H154 C134 0.929 . S
H155 C136 0.930 . S
H156 C138 0.932 . S
H157 C139 0.929 . S
H158 C140 0.928 . S
H159 C142 0.932 . S
C160 C161 1.264 . S
C160 C165 1.479 . S
C160 C170 1.465 . S
C161 C160 1.264 . S
C161 C163 1.339 . S
C161 H188 0.931 . S
C162 C163 1.395 . S
C162 C164 1.320 . S
C163 C161 1.339 . S
C163 C162 1.395 . S
C163 H189 0.929 . S
C164 C162 1.320 . S
C164 C165 1.405 . S
C164 H190 0.930 . S
C165 C160 1.479 . S
C165 C164 1.405 . S
C165 H191 0.931 . S
U166 O167 2.454 . S
U166 O168 2.458 . S
U166 C169 2.984 . S
U166 C170 2.847 . S
U166 C183 2.882 . S
U166 O184 2.441 . S
U166 O185 2.420 . S
U166 O186 2.455 . S
U166 O187 2.449 . S
O167 U166 2.454 . S
O167 C169 1.353 . S
O168 U166 2.458 . S
O168 C169 1.286 . S
C169 U166 2.984 . S
C169 O167 1.353 . S
C169 O168 1.286 . S
C169 C171 1.363 . S
C170 C160 1.465 . S
C170 U166 2.847 . S
C170 O184 1.249 . S
C170 O185 1.202 . S
C171 C169 1.363 . S
C171 C173 1.408 . S
C171 C176 1.342 . S
C172 C173 1.310 . S
C172 C175 1.461 . S
C172 H192 0.932 . S
C173 C171 1.408 . S
C173 C172 1.310 . S
C173 H193 0.930 . S
C174 C175 1.474 . S
C174 C176 1.285 . S
C174 H194 0.929 . S
C175 C172 1.461 . S
C175 C174 1.474 . S
C176 C171 1.342 . S
C176 C174 1.285 . S
C176 H195 0.930 . S
C177 C180 1.424 . S
C177 C182 1.245 . S
C177 C183 1.428 . S
C178 C181 1.260 . S
C178 C182 1.477 . S
C178 H196 0.932 . S
C179 C180 1.384 . S
C179 C181 1.479 . S
C179 H197 0.929 . S
C180 C177 1.424 . S
C180 C179 1.384 . S
C180 H198 0.928 . S
C181 C178 1.260 . S
C181 C179 1.479 . S
C182 C177 1.245 . S
C182 C178 1.477 . S
C182 H199 0.932 . S
C183 U166 2.882 . S
C183 C177 1.428 . S
C183 O186 1.301 . S
C183 O187 1.282 . S
O184 U166 2.441 . S
O184 C170 1.249 . S
O185 U166 2.420 . S
O185 C170 1.202 . S
O186 U166 2.455 . S
O186 C183 1.301 . S
O187 U166 2.449 . S
O187 C183 1.282 . S
H188 C161 0.931 . S
H189 C163 0.929 . S
H190 C164 0.930 . S
H191 C165 0.931 . S
H192 C172 0.932 . S
H193 C173 0.930 . S
H194 C174 0.929 . S
H195 C176 0.930 . S
H196 C178 0.932 . S
H197 C179 0.929 . S
H198 C180 0.928 . S
H199 C182 0.932 . S
C200 C201 1.264 . S
C200 C205 1.479 . S
C200 C210 1.465 . S
C201 C200 1.264 . S
C201 C203 1.339 . S
C201 H228 0.931 . S
C202 C203 1.395 . S
C202 C204 1.320 . S
C203 C201 1.339 . S
C203 C202 1.395 . S
C203 H229 0.929 . S
C204 C202 1.320 . S
C204 C205 1.405 . S
C204 H230 0.930 . S
C205 C200 1.479 . S
C205 C204 1.405 . S
C205 H231 0.931 . S
U206 O207 2.454 . S
U206 O208 2.458 . S
U206 C209 2.984 . S
U206 C210 2.847 . S
U206 C223 2.882 . S
U206 O224 2.441 . S
U206 O225 2.420 . S
U206 O226 2.455 . S
U206 O227 2.449 . S
O207 U206 2.454 . S
O207 C209 1.353 . S
O208 U206 2.458 . S
O208 C209 1.286 . S
C209 U206 2.984 . S
C209 O207 1.353 . S
C209 O208 1.286 . S
C209 C211 1.363 . S
C210 C200 1.465 . S
C210 U206 2.847 . S
C210 O224 1.249 . S
C210 O225 1.202 . S
C211 C209 1.363 . S
C211 C213 1.408 . S
C211 C216 1.342 . S
C212 C213 1.310 . S
C212 C215 1.461 . S
C212 H232 0.932 . S
C213 C211 1.408 . S
C213 C212 1.310 . S
C213 H233 0.930 . S
C214 C215 1.474 . S
C214 C216 1.285 . S
C214 H234 0.929 . S
C215 C212 1.461 . S
C215 C214 1.474 . S
C216 C211 1.342 . S
C216 C214 1.285 . S
C216 H235 0.930 . S
C217 C220 1.424 . S
C217 C222 1.245 . S
C217 C223 1.428 . S
C218 C221 1.260 . S
C218 C222 1.477 . S
C218 H236 0.932 . S
C219 C220 1.384 . S
C219 C221 1.479 . S
C219 H237 0.929 . S
C220 C217 1.424 . S
C220 C219 1.384 . S
C220 H238 0.928 . S
C221 C218 1.260 . S
C221 C219 1.479 . S
C222 C217 1.245 . S
C222 C218 1.477 . S
C222 H239 0.932 . S
C223 U206 2.882 . S
C223 C217 1.428 . S
C223 O226 1.301 . S
C223 O227 1.282 . S
O224 U206 2.441 . S
O224 C210 1.249 . S
O225 U206 2.420 . S
O225 C210 1.202 . S
O226 U206 2.455 . S
O226 C223 1.301 . S
O227 U206 2.449 . S
O227 C223 1.282 . S
H228 C201 0.931 . S
H229 C203 0.929 . S
H230 C204 0.930 . S
H231 C205 0.931 . S
H232 C212 0.932 . S
H233 C213 0.930 . S
H234 C214 0.929 . S
H235 C216 0.930 . S
H236 C218 0.932 . S
H237 C219 0.929 . S
H238 C220 0.928 . S
H239 C222 0.932 . S
C240 C241 1.264 . S
C240 C245 1.479 . S
C240 C250 1.465 . S
C241 C240 1.264 . S
C241 C243 1.339 . S
C241 H268 0.931 . S
C242 C243 1.395 . S
C242 C244 1.320 . S
C243 C241 1.339 . S
C243 C242 1.395 . S
C243 H269 0.929 . S
C244 C242 1.320 . S
C244 C245 1.405 . S
C244 H270 0.930 . S
C245 C240 1.479 . S
C245 C244 1.405 . S
C245 H271 0.931 . S
U246 O247 2.454 . S
U246 O248 2.458 . S
U246 C249 2.984 . S
U246 C250 2.847 . S
U246 C263 2.882 . S
U246 O264 2.441 . S
U246 O265 2.420 . S
U246 O266 2.455 . S
U246 O267 2.449 . S
O247 U246 2.454 . S
O247 C249 1.353 . S
O248 U246 2.458 . S
O248 C249 1.286 . S
C249 U246 2.984 . S
C249 O247 1.353 . S
C249 O248 1.286 . S
C249 C251 1.363 . S
C250 C240 1.465 . S
C250 U246 2.847 . S
C250 O264 1.249 . S
C250 O265 1.202 . S
C251 C249 1.363 . S
C251 C253 1.408 . S
C251 C256 1.342 . S
C252 C253 1.310 . S
C252 C255 1.461 . S
C252 H272 0.932 . S
C253 C251 1.408 . S
C253 C252 1.310 . S
C253 H273 0.930 . S
C254 C255 1.474 . S
C254 C256 1.285 . S
C254 H274 0.929 . S
C255 C252 1.461 . S
C255 C254 1.474 . S
C256 C251 1.342 . S
C256 C254 1.285 . S
C256 H275 0.930 . S
C257 C260 1.424 . S
C257 C262 1.245 . S
C257 C263 1.428 . S
C258 C261 1.260 . S
C258 C262 1.477 . S
C258 H276 0.932 . S
C259 C260 1.384 . S
C259 C261 1.479 . S
C259 H277 0.929 . S
C260 C257 1.424 . S
C260 C259 1.384 . S
C260 H278 0.928 . S
C261 C258 1.260 . S
C261 C259 1.479 . S
C262 C257 1.245 . S
C262 C258 1.477 . S
C262 H279 0.932 . S
C263 U246 2.882 . S
C263 C257 1.428 . S
C263 O266 1.301 . S
C263 O267 1.282 . S
O264 U246 2.441 . S
O264 C250 1.249 . S
O265 U246 2.420 . S
O265 C250 1.202 . S
O266 U246 2.455 . S
O266 C263 1.301 . S
O267 U246 2.449 . S
O267 C263 1.282 . S
H268 C241 0.931 . S
H269 C243 0.929 . S
H270 C244 0.930 . S
H271 C245 0.931 . S
H272 C252 0.932 . S
H273 C253 0.930 . S
H274 C254 0.929 . S
H275 C256 0.930 . S
H276 C258 0.932 . S
H277 C259 0.929 . S
H278 C260 0.928 . S
H279 C262 0.932 . S
C280 C281 1.264 . S
C280 C285 1.479 . S
C280 C290 1.465 . S
C281 C280 1.264 . S
C281 C283 1.339 . S
C281 H308 0.931 . S
C282 C283 1.395 . S
C282 C284 1.320 . S
C283 C281 1.339 . S
C283 C282 1.395 . S
C283 H309 0.929 . S
C284 C282 1.320 . S
C284 C285 1.405 . S
C284 H310 0.930 . S
C285 C280 1.479 . S
C285 C284 1.405 . S
C285 H311 0.931 . S
U286 O287 2.454 . S
U286 O288 2.458 . S
U286 C289 2.984 . S
U286 C290 2.847 . S
U286 C303 2.882 . S
U286 O304 2.441 . S
U286 O305 2.420 . S
U286 O306 2.455 . S
U286 O307 2.449 . S
O287 U286 2.454 . S
O287 C289 1.353 . S
O288 U286 2.458 . S
O288 C289 1.286 . S
C289 U286 2.984 . S
C289 O287 1.353 . S
C289 O288 1.286 . S
C289 C291 1.363 . S
C290 C280 1.465 . S
C290 U286 2.847 . S
C290 O304 1.249 . S
C290 O305 1.202 . S
C291 C289 1.363 . S
C291 C293 1.408 . S
C291 C296 1.342 . S
C292 C293 1.310 . S
C292 C295 1.461 . S
C292 H312 0.932 . S
C293 C291 1.408 . S
C293 C292 1.310 . S
C293 H313 0.930 . S
C294 C295 1.474 . S
C294 C296 1.285 . S
C294 H314 0.929 . S
C295 C292 1.461 . S
C295 C294 1.474 . S
C296 C291 1.342 . S
C296 C294 1.285 . S
C296 H315 0.930 . S
C297 C300 1.424 . S
C297 C302 1.245 . S
C297 C303 1.428 . S
C298 C301 1.260 . S
C298 C302 1.477 . S
C298 H316 0.932 . S
C299 C300 1.384 . S
C299 C301 1.479 . S
C299 H317 0.929 . S
C300 C297 1.424 . S
C300 C299 1.384 . S
C300 H318 0.928 . S
C301 C298 1.260 . S
C301 C299 1.479 . S
C302 C297 1.245 . S
C302 C298 1.477 . S
C302 H319 0.932 . S
C303 U286 2.882 . S
C303 C297 1.428 . S
C303 O306 1.301 . S
C303 O307 1.282 . S
O304 U286 2.441 . S
O304 C290 1.249 . S
O305 U286 2.420 . S
O305 C290 1.202 . S
O306 U286 2.455 . S
O306 C303 1.301 . S
O307 U286 2.449 . S
O307 C303 1.282 . S
H308 C281 0.931 . S
H309 C283 0.929 . S
H310 C284 0.930 . S
H311 C285 0.931 . S
H312 C292 0.932 . S
H313 C293 0.930 . S
H314 C294 0.929 . S
H315 C296 0.930 . S
H316 C298 0.932 . S
H317 C299 0.929 . S
H318 C300 0.928 . S
H319 C302 0.932 . S
C320 O322 1.247 . S
C320 O324 1.258 . S
C321 O328 1.247 . S
C321 O329 1.258 . S
O322 C320 1.247 . S
O322 Zn323 2.028 1_655 S
Zn323 O322 2.028 1_455 S
Zn323 O327 2.035 . S
Zn323 O329 2.035 . S
Zn323 O330 2.028 1_455 S
O324 C320 1.258 . S
O324 Zn325 2.035 1_655 S
Zn325 O324 2.035 1_455 S
Zn325 O326 2.028 . S
Zn325 O328 2.028 . S
Zn325 O331 2.035 1_455 S
O326 Zn325 2.028 . S
O326 C332 1.247 . S
O327 Zn323 2.035 . S
O327 C332 1.258 . S
O328 C321 1.247 . S
O328 Zn325 2.028 . S
O329 C321 1.258 . S
O329 Zn323 2.035 . S
O330 Zn323 2.028 1_655 S
O330 C333 1.247 . S
O331 Zn325 2.035 1_655 S
O331 C333 1.258 . S
C332 O326 1.247 . S
C332 O327 1.258 . S
C333 O330 1.247 . S
C333 O331 1.258 . S
C334 O336 1.247 . S
C334 O338 1.258 . S
C335 O342 1.247 . S
C335 O343 1.258 . S
O336 C334 1.247 . S
O336 Zn337 2.028 1_655 S
Zn337 O336 2.028 1_455 S
Zn337 O341 2.035 . S
Zn337 O343 2.035 . S
Zn337 O344 2.028 1_455 S
O338 C334 1.258 . S
O338 Zn339 2.035 1_655 S
Zn339 O338 2.035 1_455 S
Zn339 O340 2.028 . S
Zn339 O342 2.028 . S
Zn339 O345 2.035 1_455 S
O340 Zn339 2.028 . S
O340 C346 1.247 . S
O341 Zn337 2.035 . S
O341 C346 1.258 . S
O342 C335 1.247 . S
O342 Zn339 2.028 . S
O343 C335 1.258 . S
O343 Zn337 2.035 . S
O344 Zn337 2.028 1_655 S
O344 C347 1.247 . S
O345 Zn339 2.035 1_655 S
O345 C347 1.258 . S
C346 O340 1.247 . S
C346 O341 1.258 . S
C347 O344 1.247 . S
C347 O345 1.258 . S
C348 O350 1.247 . S
C348 O352 1.258 . S
C349 O356 1.247 . S
C349 O357 1.258 . S
O350 C348 1.247 . S
O350 Zn351 2.028 1_565 S
Zn351 O350 2.028 1_545 S
Zn351 O355 2.035 . S
Zn351 O357 2.035 . S
Zn351 O358 2.028 1_545 S
O352 C348 1.258 . S
O352 Zn353 2.035 1_565 S
Zn353 O352 2.035 1_545 S
Zn353 O354 2.028 . S
Zn353 O356 2.028 . S
Zn353 O359 2.035 1_545 S
O354 Zn353 2.028 . S
O354 C360 1.247 . S
O355 Zn351 2.035 . S
O355 C360 1.258 . S
O356 C349 1.247 . S
O356 Zn353 2.028 . S
O357 C349 1.258 . S
O357 Zn351 2.035 . S
O358 Zn351 2.028 1_565 S
O358 C361 1.247 . S
O359 Zn353 2.035 1_565 S
O359 C361 1.258 . S
C360 O354 1.247 . S
C360 O355 1.258 . S
C361 O358 1.247 . S
C361 O359 1.258 . S
C362 O364 1.247 . S
C362 O366 1.258 . S
C363 O370 1.247 . S
C363 O371 1.258 . S
O364 C362 1.247 . S
O364 Zn365 2.028 . S
Zn365 O364 2.028 . S
Zn365 O369 2.035 . S
Zn365 O371 2.035 1_554 S
Zn365 O372 2.028 1_554 S
O366 C362 1.258 . S
O366 Zn367 2.035 . S
Zn367 O366 2.035 . S
Zn367 O368 2.028 . S
Zn367 O370 2.028 1_554 S
Zn367 O373 2.035 1_554 S
O368 Zn367 2.028 . S
O368 C374 1.247 . S
O369 Zn365 2.035 . S
O369 C374 1.258 . S
O370 C363 1.247 . S
O370 Zn367 2.028 1_556 S
O371 C363 1.258 . S
O371 Zn365 2.035 1_556 S
O372 Zn365 2.028 1_556 S
O372 C375 1.247 . S
O373 Zn367 2.035 1_556 S
O373 C375 1.258 . S
C374 O368 1.247 . S
C374 O369 1.258 . S
C375 O372 1.247 . S
C375 O373 1.258 . S
C376 O378 1.247 . S
C376 O380 1.258 . S
C377 O384 1.247 . S
C377 O385 1.258 . S
O378 C376 1.247 . S
O378 Zn379 2.026 . S
Zn379 O378 2.026 . S
Zn379 O383 2.038 1_565 S
Zn379 O385 2.038 1_565 S
Zn379 O386 2.026 . S
O380 C376 1.258 . S
O380 Zn381 2.010 1_565 S
Zn381 O380 2.010 1_545 S
Zn381 O382 2.053 . S
Zn381 O384 2.053 . S
Zn381 O387 2.010 1_545 S
O382 Zn381 2.053 . S
O382 C388 1.247 . S
O383 Zn379 2.038 1_545 S
O383 C388 1.258 . S
O384 C377 1.247 . S
O384 Zn381 2.053 . S
O385 C377 1.258 . S
O385 Zn379 2.038 1_545 S
O386 Zn379 2.026 . S
O386 C389 1.247 . S
O387 Zn381 2.010 1_565 S
O387 C389 1.258 . S
C388 O382 1.247 . S
C388 O383 1.258 . S
C389 O386 1.247 . S
C389 O387 1.258 . S
C390 O392 1.247 . S
C390 O394 1.258 . S
C391 O398 1.247 . S
C391 O399 1.258 . S
O392 C390 1.247 . S
O392 Zn393 2.028 . S
Zn393 O392 2.028 . S
Zn393 O397 2.035 . S
Zn393 O399 2.035 1_554 S
Zn393 O400 2.028 1_554 S
O394 C390 1.258 . S
O394 Zn395 2.055 . S
Zn395 O394 2.055 . S
Zn395 O396 2.048 . S
Zn395 O398 2.008 1_554 S
Zn395 O401 2.015 1_554 S
O396 Zn395 2.048 . S
O396 C402 1.247 . S
O397 Zn393 2.035 . S
O397 C402 1.258 . S
O398 C391 1.247 . S
O398 Zn395 2.008 1_556 S
O399 C391 1.258 . S
O399 Zn393 2.035 1_556 S
O400 Zn393 2.028 1_556 S
O400 C403 1.247 . S
O401 Zn395 2.015 1_556 S
O401 C403 1.258 . S
C402 O396 1.247 . S
C402 O397 1.258 . S
C403 O400 1.247 . S
C403 O401 1.258 . S
C404 C405 1.391 . S
C404 C406 1.394 . S
C404 H420 0.931 . S
C405 C404 1.391 . S
C405 C409 1.376 . S
C406 C404 1.394 . S
C406 C407 1.369 . S
C406 C410 1.531 . S
C407 C406 1.369 . S
C407 C408 1.410 . S
C407 C415 1.503 . S
C408 C407 1.410 . S
C408 C409 1.392 . S
C408 C411 1.511 . S
C409 C405 1.376 . S
C409 C408 1.392 . S
C409 H421 0.929 . S
C410 C406 1.531 . S
C410 H422 0.960 . S
C410 H423 0.962 . S
C410 H424 0.960 . S
C411 C408 1.511 . S
C411 H425 0.961 . S
C411 H426 0.961 . S
C411 H427 0.961 . S
C412 C413 1.370 . S
C412 C414 1.363 . S
C412 H428 0.931 . S
C413 C412 1.370 . S
C413 C417 1.408 . S
C414 C412 1.363 . S
C414 C415 1.370 . S
C414 C418 1.524 . S
C415 C407 1.503 . S
C415 C414 1.370 . S
C415 C416 1.403 . S
C416 C415 1.403 . S
C416 C417 1.404 . S
C416 C419 1.539 . S
C417 C413 1.408 . S
C417 C416 1.404 . S
C417 H429 0.930 . S
C418 C414 1.524 . S
C418 H430 0.956 . S
C418 H431 0.961 . S
C418 H432 0.961 . S
C419 C416 1.539 . S
C419 H433 0.958 . S
C419 H434 0.961 . S
C419 H435 0.960 . S
H420 C404 0.931 . S
H421 C409 0.929 . S
H422 C410 0.960 . S
H423 C410 0.962 . S
H424 C410 0.960 . S
H425 C411 0.961 . S
H426 C411 0.961 . S
H427 C411 0.961 . S
H428 C412 0.931 . S
H429 C417 0.930 . S
H430 C418 0.956 . S
H431 C418 0.961 . S
H432 C418 0.961 . S
H433 C419 0.958 . S
H434 C419 0.961 . S
H435 C419 0.960 . S
C436 C437 1.391 . S
C436 C438 1.394 . S
C436 H452 0.931 . S
C437 C436 1.391 . S
C437 C441 1.376 . S
C438 C436 1.394 . S
C438 C439 1.369 . S
C438 C442 1.531 . S
C439 C438 1.369 . S
C439 C440 1.410 . S
C439 C447 1.503 . S
C440 C439 1.410 . S
C440 C441 1.392 . S
C440 C443 1.511 . S
C441 C437 1.376 . S
C441 C440 1.392 . S
C441 H453 0.929 . S
C442 C438 1.531 . S
C442 H454 0.960 . S
C442 H455 0.962 . S
C442 H456 0.960 . S
C443 C440 1.511 . S
C443 H457 0.961 . S
C443 H458 0.961 . S
C443 H459 0.961 . S
C444 C445 1.370 . S
C444 C446 1.363 . S
C444 H460 0.931 . S
C445 C444 1.370 . S
C445 C449 1.408 . S
C446 C444 1.363 . S
C446 C447 1.370 . S
C446 C450 1.524 . S
C447 C439 1.503 . S
C447 C446 1.370 . S
C447 C448 1.403 . S
C448 C447 1.403 . S
C448 C449 1.404 . S
C448 C451 1.539 . S
C449 C445 1.408 . S
C449 C448 1.404 . S
C449 H461 0.930 . S
C450 C446 1.524 . S
C450 H462 0.956 . S
C450 H463 0.961 . S
C450 H464 0.961 . S
C451 C448 1.539 . S
C451 H465 0.958 . S
C451 H466 0.961 . S
C451 H467 0.960 . S
H452 C436 0.931 . S
H453 C441 0.929 . S
H454 C442 0.960 . S
H455 C442 0.962 . S
H456 C442 0.960 . S
H457 C443 0.961 . S
H458 C443 0.961 . S
H459 C443 0.961 . S
H460 C444 0.931 . S
H461 C449 0.930 . S
H462 C450 0.956 . S
H463 C450 0.961 . S
H464 C450 0.961 . S
H465 C451 0.958 . S
H466 C451 0.961 . S
H467 C451 0.960 . S
C468 C469 1.391 . S
C468 C470 1.394 . S
C468 H484 0.931 . S
C469 C468 1.391 . S
C469 C473 1.376 . S
C470 C468 1.394 . S
C470 C471 1.369 . S
C470 C474 1.531 . S
C471 C470 1.369 . S
C471 C472 1.410 . S
C471 C479 1.503 . S
C472 C471 1.410 . S
C472 C473 1.392 . S
C472 C475 1.511 . S
C473 C469 1.376 . S
C473 C472 1.392 . S
C473 H485 0.929 . S
C474 C470 1.531 . S
C474 H486 0.960 . S
C474 H487 0.962 . S
C474 H488 0.960 . S
C475 C472 1.511 . S
C475 H489 0.961 . S
C475 H490 0.961 . S
C475 H491 0.961 . S
C476 C477 1.370 . S
C476 C478 1.363 . S
C476 H492 0.931 . S
C477 C476 1.370 . S
C477 C481 1.408 . S
C478 C476 1.363 . S
C478 C479 1.370 . S
C478 C482 1.524 . S
C479 C471 1.503 . S
C479 C478 1.370 . S
C479 C480 1.403 . S
C480 C479 1.403 . S
C480 C481 1.404 . S
C480 C483 1.539 . S
C481 C477 1.408 . S
C481 C480 1.404 . S
C481 H493 0.930 . S
C482 C478 1.524 . S
C482 H494 0.956 . S
C482 H495 0.961 . S
C482 H496 0.961 . S
C483 C480 1.539 . S
C483 H497 0.958 . S
C483 H498 0.961 . S
C483 H499 0.960 . S
H484 C468 0.931 . S
H485 C473 0.929 . S
H486 C474 0.960 . S
H487 C474 0.962 . S
H488 C474 0.960 . S
H489 C475 0.961 . S
H490 C475 0.961 . S
H491 C475 0.961 . S
H492 C476 0.931 . S
H493 C481 0.930 . S
H494 C482 0.956 . S
H495 C482 0.961 . S
H496 C482 0.961 . S
H497 C483 0.958 . S
H498 C483 0.961 . S
H499 C483 0.960 . S
C500 C501 1.391 . S
C500 C502 1.394 . S
C500 H516 0.931 . S
C501 C500 1.391 . S
C501 C505 1.376 . S
C502 C500 1.394 . S
C502 C503 1.369 . S
C502 C506 1.531 . S
C503 C502 1.369 . S
C503 C504 1.410 . S
C503 C511 1.503 . S
C504 C503 1.410 . S
C504 C505 1.392 . S
C504 C507 1.511 . S
C505 C501 1.376 . S
C505 C504 1.392 . S
C505 H517 0.929 . S
C506 C502 1.531 . S
C506 H518 0.960 . S
C506 H519 0.962 . S
C506 H520 0.960 . S
C507 C504 1.511 . S
C507 H521 0.961 . S
C507 H522 0.961 . S
C507 H523 0.961 . S
C508 C509 1.370 . S
C508 C510 1.363 . S
C508 H524 0.931 . S
C509 C508 1.370 . S
C509 C513 1.408 . S
C510 C508 1.363 . S
C510 C511 1.370 . S
C510 C514 1.524 . S
C511 C503 1.503 . S
C511 C510 1.370 . S
C511 C512 1.403 . S
C512 C511 1.403 . S
C512 C513 1.404 . S
C512 C515 1.539 . S
C513 C509 1.408 . S
C513 C512 1.404 . S
C513 H525 0.930 . S
C514 C510 1.524 . S
C514 H526 0.956 . S
C514 H527 0.961 . S
C514 H528 0.961 . S
C515 C512 1.539 . S
C515 H529 0.958 . S
C515 H530 0.961 . S
C515 H531 0.960 . S
H516 C500 0.931 . S
H517 C505 0.929 . S
H518 C506 0.960 . S
H519 C506 0.962 . S
H520 C506 0.960 . S
H521 C507 0.961 . S
H522 C507 0.961 . S
H523 C507 0.961 . S
H524 C508 0.931 . S
H525 C513 0.930 . S
H526 C514 0.956 . S
H527 C514 0.961 . S
H528 C514 0.961 . S
H529 C515 0.958 . S
H530 C515 0.961 . S
H531 C515 0.960 . S
C532 C533 1.391 . S
C532 C534 1.394 . S
C532 H548 0.931 . S
C533 C532 1.391 . S
C533 C537 1.376 . S
C534 C532 1.394 . S
C534 C535 1.369 . S
C534 C538 1.531 . S
C535 C534 1.369 . S
C535 C536 1.410 . S
C535 C543 1.503 . S
C536 C535 1.410 . S
C536 C537 1.392 . S
C536 C539 1.511 . S
C537 C533 1.376 . S
C537 C536 1.392 . S
C537 H549 0.929 . S
C538 C534 1.531 . S
C538 H550 0.960 . S
C538 H551 0.962 . S
C538 H552 0.960 . S
C539 C536 1.511 . S
C539 H553 0.961 . S
C539 H554 0.961 . S
C539 H555 0.961 . S
C540 C541 1.370 . S
C540 C542 1.363 . S
C540 H556 0.931 . S
C541 C540 1.370 . S
C541 C545 1.408 . S
C542 C540 1.363 . S
C542 C543 1.370 . S
C542 C546 1.524 . S
C543 C535 1.503 . S
C543 C542 1.370 . S
C543 C544 1.403 . S
C544 C543 1.403 . S
C544 C545 1.404 . S
C544 C547 1.539 . S
C545 C541 1.408 . S
C545 C544 1.404 . S
C545 H557 0.930 . S
C546 C542 1.524 . S
C546 H558 0.956 . S
C546 H559 0.961 . S
C546 H560 0.961 . S
C547 C544 1.539 . S
C547 H561 0.958 . S
C547 H562 0.961 . S
C547 H563 0.960 . S
H548 C532 0.931 . S
H549 C537 0.929 . S
H550 C538 0.960 . S
H551 C538 0.962 . S
H552 C538 0.960 . S
H553 C539 0.961 . S
H554 C539 0.961 . S
H555 C539 0.961 . S
H556 C540 0.931 . S
H557 C545 0.930 . S
H558 C546 0.956 . S
H559 C546 0.961 . S
H560 C546 0.961 . S
H561 C547 0.958 . S
H562 C547 0.961 . S
H563 C547 0.960 . S
C564 C565 1.391 . S
C564 C566 1.394 . S
C564 H580 0.931 . S
C565 C564 1.391 . S
C565 C569 1.376 . S
C566 C564 1.394 . S
C566 C567 1.369 . S
C566 C570 1.531 . S
C567 C566 1.369 . S
C567 C568 1.410 . S
C567 C575 1.503 . S
C568 C567 1.410 . S
C568 C569 1.392 . S
C568 C571 1.511 . S
C569 C565 1.376 . S
C569 C568 1.392 . S
C569 H581 0.929 . S
C570 C566 1.531 . S
C570 H582 0.960 . S
C570 H583 0.962 . S
C570 H584 0.960 . S
C571 C568 1.511 . S
C571 H585 0.961 . S
C571 H586 0.961 . S
C571 H587 0.961 . S
C572 C573 1.370 . S
C572 C574 1.363 . S
C572 H588 0.931 . S
C573 C572 1.370 . S
C573 C577 1.408 . S
C574 C572 1.363 . S
C574 C575 1.370 . S
C574 C578 1.524 . S
C575 C567 1.503 . S
C575 C574 1.370 . S
C575 C576 1.403 . S
C576 C575 1.403 . S
C576 C577 1.404 . S
C576 C579 1.539 . S
C577 C573 1.408 . S
C577 C576 1.404 . S
C577 H589 0.930 . S
C578 C574 1.524 . S
C578 H590 0.956 . S
C578 H591 0.961 . S
C578 H592 0.961 . S
C579 C576 1.539 . S
C579 H593 0.958 . S
C579 H594 0.961 . S
C579 H595 0.960 . S
H580 C564 0.931 . S
H581 C569 0.929 . S
H582 C570 0.960 . S
H583 C570 0.962 . S
H584 C570 0.960 . S
H585 C571 0.961 . S
H586 C571 0.961 . S
H587 C571 0.961 . S
H588 C572 0.931 . S
H589 C577 0.930 . S
H590 C578 0.956 . S
H591 C578 0.961 . S
H592 C578 0.961 . S
H593 C579 0.958 . S
H594 C579 0.961 . S
H595 C579 0.960 . S
C596 C597 1.391 . S
C596 C598 1.394 . S
C596 H612 0.931 . S
C597 C596 1.391 . S
C597 C601 1.376 . S
C598 C596 1.394 . S
C598 C599 1.369 . S
C598 C602 1.531 . S
C599 C598 1.369 . S
C599 C600 1.410 . S
C599 C607 1.503 . S
C600 C599 1.410 . S
C600 C601 1.392 . S
C600 C603 1.511 . S
C601 C597 1.376 . S
C601 C600 1.392 . S
C601 H613 0.929 . S
C602 C598 1.531 . S
C602 H614 0.960 . S
C602 H615 0.962 . S
C602 H616 0.960 . S
C603 C600 1.511 . S
C603 H617 0.961 . S
C603 H618 0.961 . S
C603 H619 0.961 . S
C604 C605 1.370 . S
C604 C606 1.363 . S
C604 H620 0.931 . S
C605 C604 1.370 . S
C605 C609 1.408 . S
C606 C604 1.363 . S
C606 C607 1.370 . S
C606 C610 1.524 . S
C607 C599 1.503 . S
C607 C606 1.370 . S
C607 C608 1.403 . S
C608 C607 1.403 . S
C608 C609 1.404 . S
C608 C611 1.539 . S
C609 C605 1.408 . S
C609 C608 1.404 . S
C609 H621 0.930 . S
C610 C606 1.524 . S
C610 H622 0.956 . S
C610 H623 0.961 . S
C610 H624 0.961 . S
C611 C608 1.539 . S
C611 H625 0.958 . S
C611 H626 0.961 . S
C611 H627 0.960 . S
H612 C596 0.931 . S
H613 C601 0.929 . S
H614 C602 0.960 . S
H615 C602 0.962 . S
H616 C602 0.960 . S
H617 C603 0.961 . S
H618 C603 0.961 . S
H619 C603 0.961 . S
H620 C604 0.931 . S
H621 C609 0.930 . S
H622 C610 0.956 . S
H623 C610 0.961 . S
H624 C610 0.961 . S
H625 C611 0.958 . S
H626 C611 0.961 . S
H627 C611 0.960 . S
C628 C629 1.391 . S
C628 C630 1.394 . S
C628 H644 0.931 . S
C629 C628 1.391 . S
C629 C633 1.376 . S
C630 C628 1.394 . S
C630 C631 1.369 . S
C630 C634 1.531 . S
C631 C630 1.369 . S
C631 C632 1.410 . S
C631 C639 1.503 . S
C632 C631 1.410 . S
C632 C633 1.392 . S
C632 C635 1.511 . S
C633 C629 1.376 . S
C633 C632 1.392 . S
C633 H645 0.929 . S
C634 C630 1.531 . S
C634 H646 0.960 . S
C634 H647 0.962 . S
C634 H648 0.960 . S
C635 C632 1.511 . S
C635 H649 0.961 . S
C635 H650 0.961 . S
C635 H651 0.961 . S
C636 C637 1.370 . S
C636 C638 1.363 . S
C636 H652 0.931 . S
C637 C636 1.370 . S
C637 C641 1.408 . S
C638 C636 1.363 . S
C638 C639 1.370 . S
C638 C642 1.524 . S
C639 C631 1.503 . S
C639 C638 1.370 . S
C639 C640 1.403 . S
C640 C639 1.403 . S
C640 C641 1.404 . S
C640 C643 1.539 . S
C641 C637 1.408 . S
C641 C640 1.404 . S
C641 H653 0.930 . S
C642 C638 1.524 . S
C642 H654 0.956 . S
C642 H655 0.961 . S
C642 H656 0.961 . S
C643 C640 1.539 . S
C643 H657 0.958 . S
C643 H658 0.961 . S
C643 H659 0.960 . S
H644 C628 0.931 . S
H645 C633 0.929 . S
H646 C634 0.960 . S
H647 C634 0.962 . S
H648 C634 0.960 . S
H649 C635 0.961 . S
H650 C635 0.961 . S
H651 C635 0.961 . S
H652 C636 0.931 . S
H653 C641 0.930 . S
H654 C642 0.956 . S
H655 C642 0.961 . S
H656 C642 0.961 . S
H657 C643 0.958 . S
H658 C643 0.961 . S
H659 C643 0.960 . S
C660 C661 1.391 . S
C660 C662 1.394 . S
C660 H676 0.931 . S
C661 C660 1.391 . S
C661 C665 1.376 . S
C662 C660 1.394 . S
C662 C663 1.369 . S
C662 C666 1.531 . S
C663 C662 1.369 . S
C663 C664 1.410 . S
C663 C671 1.503 . S
C664 C663 1.410 . S
C664 C665 1.392 . S
C664 C667 1.511 . S
C665 C661 1.376 . S
C665 C664 1.392 . S
C665 H677 0.929 . S
C666 C662 1.531 . S
C666 H678 0.960 . S
C666 H679 0.962 . S
C666 H680 0.960 . S
C667 C664 1.511 . S
C667 H681 0.961 . S
C667 H682 0.961 . S
C667 H683 0.961 . S
C668 C669 1.370 . S
C668 C670 1.363 . S
C668 H684 0.931 . S
C669 C668 1.370 . S
C669 C673 1.408 . S
C670 C668 1.363 . S
C670 C671 1.370 . S
C670 C674 1.524 . S
C671 C663 1.503 . S
C671 C670 1.370 . S
C671 C672 1.403 . S
C672 C671 1.403 . S
C672 C673 1.404 . S
C672 C675 1.539 . S
C673 C669 1.408 . S
C673 C672 1.404 . S
C673 H685 0.930 . S
C674 C670 1.524 . S
C674 H686 0.956 . S
C674 H687 0.961 . S
C674 H688 0.961 . S
C675 C672 1.539 . S
C675 H689 0.958 . S
C675 H690 0.961 . S
C675 H691 0.960 . S
H676 C660 0.931 . S
H677 C665 0.929 . S
H678 C666 0.960 . S
H679 C666 0.962 . S
H680 C666 0.960 . S
H681 C667 0.961 . S
H682 C667 0.961 . S
H683 C667 0.961 . S
H684 C668 0.931 . S
H685 C673 0.930 . S
H686 C674 0.956 . S
H687 C674 0.961 . S
H688 C674 0.961 . S
H689 C675 0.958 . S
H690 C675 0.961 . S
H691 C675 0.960 . S
C692 C693 1.391 . S
C692 C694 1.394 . S
C692 H708 0.931 . S
C693 C692 1.391 . S
C693 C697 1.376 . S
C694 C692 1.394 . S
C694 C695 1.369 . S
C694 C698 1.531 . S
C695 C694 1.369 . S
C695 C696 1.410 . S
C695 C703 1.503 . S
C696 C695 1.410 . S
C696 C697 1.392 . S
C696 C699 1.511 . S
C697 C693 1.376 . S
C697 C696 1.392 . S
C697 H709 0.929 . S
C698 C694 1.531 . S
C698 H710 0.960 . S
C698 H711 0.962 . S
C698 H712 0.960 . S
C699 C696 1.511 . S
C699 H713 0.961 . S
C699 H714 0.961 . S
C699 H715 0.961 . S
C700 C701 1.370 . S
C700 C702 1.363 . S
C700 H716 0.931 . S
C701 C700 1.370 . S
C701 C705 1.408 . S
C702 C700 1.363 . S
C702 C703 1.370 . S
C702 C706 1.524 . S
C703 C695 1.503 . S
C703 C702 1.370 . S
C703 C704 1.403 . S
C704 C703 1.403 . S
C704 C705 1.404 . S
C704 C707 1.539 . S
C705 C701 1.408 . S
C705 C704 1.404 . S
C705 H717 0.930 . S
C706 C702 1.524 . S
C706 H718 0.956 . S
C706 H719 0.961 . S
C706 H720 0.961 . S
C707 C704 1.539 . S
C707 H721 0.958 . S
C707 H722 0.961 . S
C707 H723 0.960 . S
H708 C692 0.931 . S
H709 C697 0.929 . S
H710 C698 0.960 . S
H711 C698 0.962 . S
H712 C698 0.960 . S
H713 C699 0.961 . S
H714 C699 0.961 . S
H715 C699 0.961 . S
H716 C700 0.931 . S
H717 C705 0.930 . S
H718 C706 0.956 . S
H719 C706 0.961 . S
H720 C706 0.961 . S
H721 C707 0.958 . S
H722 C707 0.961 . S
H723 C707 0.960 . S
C724 C725 1.391 . S
C724 C726 1.394 . S
C724 H740 0.931 . S
C725 C724 1.391 . S
C725 C729 1.376 . S
C726 C724 1.394 . S
C726 C727 1.369 . S
C726 C730 1.531 . S
C727 C726 1.369 . S
C727 C728 1.410 . S
C727 C735 1.503 . S
C728 C727 1.410 . S
C728 C729 1.392 . S
C728 C731 1.511 . S
C729 C725 1.376 . S
C729 C728 1.392 . S
C729 H741 0.929 . S
C730 C726 1.531 . S
C730 H742 0.960 . S
C730 H743 0.962 . S
C730 H744 0.960 . S
C731 C728 1.511 . S
C731 H745 0.961 . S
C731 H746 0.961 . S
C731 H747 0.961 . S
C732 C733 1.370 . S
C732 C734 1.363 . S
C732 H748 0.931 . S
C733 C732 1.370 . S
C733 C737 1.408 . S
C734 C732 1.363 . S
C734 C735 1.370 . S
C734 C738 1.524 . S
C735 C727 1.503 . S
C735 C734 1.370 . S
C735 C736 1.403 . S
C736 C735 1.403 . S
C736 C737 1.404 . S
C736 C739 1.539 . S
C737 C733 1.408 . S
C737 C736 1.404 . S
C737 H749 0.930 . S
C738 C734 1.524 . S
C738 H750 0.956 . S
C738 H751 0.961 . S
C738 H752 0.961 . S
C739 C736 1.539 . S
C739 H753 0.958 . S
C739 H754 0.961 . S
C739 H755 0.960 . S
H740 C724 0.931 . S
H741 C729 0.929 . S
H742 C730 0.960 . S
H743 C730 0.962 . S
H744 C730 0.960 . S
H745 C731 0.961 . S
H746 C731 0.961 . S
H747 C731 0.961 . S
H748 C732 0.931 . S
H749 C737 0.930 . S
H750 C738 0.956 . S
H751 C738 0.961 . S
H752 C738 0.961 . S
H753 C739 0.958 . S
H754 C739 0.961 . S
H755 C739 0.960 . S
C756 C757 1.391 . S
C756 C758 1.394 . S
C756 H772 0.931 . S
C757 C756 1.391 . S
C757 C761 1.376 . S
C758 C756 1.394 . S
C758 C759 1.369 . S
C758 C762 1.531 . S
C759 C758 1.369 . S
C759 C760 1.410 . S
C759 C767 1.503 . S
C760 C759 1.410 . S
C760 C761 1.392 . S
C760 C763 1.511 . S
C761 C757 1.376 . S
C761 C760 1.392 . S
C761 H773 0.929 . S
C762 C758 1.531 . S
C762 H774 0.960 . S
C762 H775 0.962 . S
C762 H776 0.960 . S
C763 C760 1.511 . S
C763 H777 0.961 . S
C763 H778 0.961 . S
C763 H779 0.961 . S
C764 C765 1.370 . S
C764 C766 1.363 . S
C764 H780 0.931 . S
C765 C764 1.370 . S
C765 C769 1.408 . S
C766 C764 1.363 . S
C766 C767 1.370 . S
C766 C770 1.524 . S
C767 C759 1.503 . S
C767 C766 1.370 . S
C767 C768 1.403 . S
C768 C767 1.403 . S
C768 C769 1.404 . S
C768 C771 1.539 . S
C769 C765 1.408 . S
C769 C768 1.404 . S
C769 H781 0.930 . S
C770 C766 1.524 . S
C770 H782 0.956 . S
C770 H783 0.961 . S
C770 H784 0.961 . S
C771 C768 1.539 . S
C771 H785 0.958 . S
C771 H786 0.961 . S
C771 H787 0.960 . S
H772 C756 0.931 . S
H773 C761 0.929 . S
H774 C762 0.960 . S
H775 C762 0.962 . S
H776 C762 0.960 . S
H777 C763 0.961 . S
H778 C763 0.961 . S
H779 C763 0.961 . S
H780 C764 0.931 . S
H781 C769 0.930 . S
H782 C770 0.956 . S
H783 C770 0.961 . S
H784 C770 0.961 . S
H785 C771 0.958 . S
H786 C771 0.961 . S
H787 C771 0.960 . S
C788 C789 1.391 . S
C788 C790 1.394 . S
C788 H804 0.931 . S
C789 C788 1.391 . S
C789 C793 1.376 . S
C790 C788 1.394 . S
C790 C791 1.369 . S
C790 C794 1.531 . S
C791 C790 1.369 . S
C791 C792 1.410 . S
C791 C799 1.503 . S
C792 C791 1.410 . S
C792 C793 1.392 . S
C792 C795 1.511 . S
C793 C789 1.376 . S
C793 C792 1.392 . S
C793 H805 0.929 . S
C794 C790 1.531 . S
C794 H806 0.960 . S
C794 H807 0.962 . S
C794 H808 0.960 . S
C795 C792 1.511 . S
C795 H809 0.961 . S
C795 H810 0.961 . S
C795 H811 0.961 . S
C796 C797 1.370 . S
C796 C798 1.363 . S
C796 H812 0.931 . S
C797 C796 1.370 . S
C797 C801 1.408 . S
C798 C796 1.363 . S
C798 C799 1.370 . S
C798 C802 1.524 . S
C799 C791 1.503 . S
C799 C798 1.370 . S
C799 C800 1.403 . S
C800 C799 1.403 . S
C800 C801 1.404 . S
C800 C803 1.539 . S
C801 C797 1.408 . S
C801 C800 1.404 . S
C801 H813 0.930 . S
C802 C798 1.524 . S
C802 H814 0.956 . S
C802 H815 0.961 . S
C802 H816 0.961 . S
C803 C800 1.539 . S
C803 H817 0.958 . S
C803 H818 0.961 . S
C803 H819 0.960 . S
H804 C788 0.931 . S
H805 C793 0.929 . S
H806 C794 0.960 . S
H807 C794 0.962 . S
H808 C794 0.960 . S
H809 C795 0.961 . S
H810 C795 0.961 . S
H811 C795 0.961 . S
H812 C796 0.931 . S
H813 C801 0.930 . S
H814 C802 0.956 . S
H815 C802 0.961 . S
H816 C802 0.961 . S
H817 C803 0.958 . S
H818 C803 0.961 . S
H819 C803 0.960 . S
C820 C821 1.391 . S
C820 C822 1.394 . S
C820 H836 0.931 . S
C821 C820 1.391 . S
C821 C825 1.376 . S
C822 C820 1.394 . S
C822 C823 1.369 . S
C822 C826 1.531 . S
C823 C822 1.369 . S
C823 C824 1.410 . S
C823 C831 1.503 . S
C824 C823 1.410 . S
C824 C825 1.392 . S
C824 C827 1.511 . S
C825 C821 1.376 . S
C825 C824 1.392 . S
C825 H837 0.929 . S
C826 C822 1.531 . S
C826 H838 0.960 . S
C826 H839 0.962 . S
C826 H840 0.960 . S
C827 C824 1.511 . S
C827 H841 0.961 . S
C827 H842 0.961 . S
C827 H843 0.961 . S
C828 C829 1.370 . S
C828 C830 1.363 . S
C828 H844 0.931 . S
C829 C828 1.370 . S
C829 C833 1.408 . S
C830 C828 1.363 . S
C830 C831 1.370 . S
C830 C834 1.524 . S
C831 C823 1.503 . S
C831 C830 1.370 . S
C831 C832 1.403 . S
C832 C831 1.403 . S
C832 C833 1.404 . S
C832 C835 1.539 . S
C833 C829 1.408 . S
C833 C832 1.404 . S
C833 H845 0.930 . S
C834 C830 1.524 . S
C834 H846 0.956 . S
C834 H847 0.961 . S
C834 H848 0.961 . S
C835 C832 1.539 . S
C835 H849 0.958 . S
C835 H850 0.961 . S
C835 H851 0.960 . S
H836 C820 0.931 . S
H837 C825 0.929 . S
H838 C826 0.960 . S
H839 C826 0.962 . S
H840 C826 0.960 . S
H841 C827 0.961 . S
H842 C827 0.961 . S
H843 C827 0.961 . S
H844 C828 0.931 . S
H845 C833 0.930 . S
H846 C834 0.956 . S
H847 C834 0.961 . S
H848 C834 0.961 . S
H849 C835 0.958 . S
H850 C835 0.961 . S
H851 C835 0.960 . S
C852 C853 1.391 . S
C852 C854 1.394 . S
C852 H868 0.931 . S
C853 C852 1.391 . S
C853 C857 1.376 . S
C854 C852 1.394 . S
C854 C855 1.369 . S
C854 C858 1.531 . S
C855 C854 1.369 . S
C855 C856 1.410 . S
C855 C863 1.503 . S
C856 C855 1.410 . S
C856 C857 1.392 . S
C856 C859 1.511 . S
C857 C853 1.376 . S
C857 C856 1.392 . S
C857 H869 0.929 . S
C858 C854 1.531 . S
C858 H870 0.960 . S
C858 H871 0.962 . S
C858 H872 0.960 . S
C859 C856 1.511 . S
C859 H873 0.961 . S
C859 H874 0.961 . S
C859 H875 0.961 . S
C860 C861 1.370 . S
C860 C862 1.363 . S
C860 H876 0.931 . S
C861 C860 1.370 . S
C861 C865 1.408 . S
C862 C860 1.363 . S
C862 C863 1.370 . S
C862 C866 1.524 . S
C863 C855 1.503 . S
C863 C862 1.370 . S
C863 C864 1.403 . S
C864 C863 1.403 . S
C864 C865 1.404 . S
C864 C867 1.539 . S
C865 C861 1.408 . S
C865 C864 1.404 . S
C865 H877 0.930 . S
C866 C862 1.524 . S
C866 H878 0.956 . S
C866 H879 0.961 . S
C866 H880 0.961 . S
C867 C864 1.539 . S
C867 H881 0.958 . S
C867 H882 0.961 . S
C867 H883 0.960 . S
H868 C852 0.931 . S
H869 C857 0.929 . S
H870 C858 0.960 . S
H871 C858 0.962 . S
H872 C858 0.960 . S
H873 C859 0.961 . S
H874 C859 0.961 . S
H875 C859 0.961 . S
H876 C860 0.931 . S
H877 C865 0.930 . S
H878 C866 0.956 . S
H879 C866 0.961 . S
H880 C866 0.961 . S
H881 C867 0.958 . S
H882 C867 0.961 . S
H883 C867 0.960 . S
C884 C885 1.391 . S
C884 C886 1.394 . S
C884 H900 0.931 . S
C885 C884 1.391 . S
C885 C889 1.376 . S
C886 C884 1.394 . S
C886 C887 1.369 . S
C886 C890 1.531 . S
C887 C886 1.369 . S
C887 C888 1.410 . S
C887 C895 1.503 . S
C888 C887 1.410 . S
C888 C889 1.392 . S
C888 C891 1.511 . S
C889 C885 1.376 . S
C889 C888 1.392 . S
C889 H901 0.929 . S
C890 C886 1.531 . S
C890 H902 0.960 . S
C890 H903 0.962 . S
C890 H904 0.960 . S
C891 C888 1.511 . S
C891 H905 0.961 . S
C891 H906 0.961 . S
C891 H907 0.961 . S
C892 C893 1.370 . S
C892 C894 1.363 . S
C892 H908 0.931 . S
C893 C892 1.370 . S
C893 C897 1.408 . S
C894 C892 1.363 . S
C894 C895 1.370 . S
C894 C898 1.524 . S
C895 C887 1.503 . S
C895 C894 1.370 . S
C895 C896 1.403 . S
C896 C895 1.403 . S
C896 C897 1.404 . S
C896 C899 1.539 . S
C897 C893 1.408 . S
C897 C896 1.404 . S
C897 H909 0.930 . S
C898 C894 1.524 . S
C898 H910 0.956 . S
C898 H911 0.961 . S
C898 H912 0.961 . S
C899 C896 1.539 . S
C899 H913 0.958 . S
C899 H914 0.961 . S
C899 H915 0.960 . S
H900 C884 0.931 . S
H901 C889 0.929 . S
H902 C890 0.960 . S
H903 C890 0.962 . S
H904 C890 0.960 . S
H905 C891 0.961 . S
H906 C891 0.961 . S
H907 C891 0.961 . S
H908 C892 0.931 . S
H909 C897 0.930 . S
H910 C898 0.956 . S
H911 C898 0.961 . S
H912 C898 0.961 . S
H913 C899 0.958 . S
H914 C899 0.961 . S
H915 C899 0.960 . S
C916 C917 1.391 . S
C916 C918 1.394 . S
C916 H932 0.931 . S
C917 C916 1.391 . S
C917 C921 1.376 . S
C918 C916 1.394 . S
C918 C919 1.369 . S
C918 C922 1.531 . S
C919 C918 1.369 . S
C919 C920 1.410 . S
C919 C927 1.503 . S
C920 C919 1.410 . S
C920 C921 1.392 . S
C920 C923 1.511 . S
C921 C917 1.376 . S
C921 C920 1.392 . S
C921 H933 0.929 . S
C922 C918 1.531 . S
C922 H934 0.960 . S
C922 H935 0.962 . S
C922 H936 0.960 . S
C923 C920 1.511 . S
C923 H937 0.961 . S
C923 H938 0.961 . S
C923 H939 0.961 . S
C924 C925 1.370 . S
C924 C926 1.363 . S
C924 H940 0.931 . S
C925 C924 1.370 . S
C925 C929 1.408 . S
C926 C924 1.363 . S
C926 C927 1.370 . S
C926 C930 1.524 . S
C927 C919 1.503 . S
C927 C926 1.370 . S
C927 C928 1.403 . S
C928 C927 1.403 . S
C928 C929 1.404 . S
C928 C931 1.539 . S
C929 C925 1.408 . S
C929 C928 1.404 . S
C929 H941 0.930 . S
C930 C926 1.524 . S
C930 H942 0.956 . S
C930 H943 0.961 . S
C930 H944 0.961 . S
C931 C928 1.539 . S
C931 H945 0.958 . S
C931 H946 0.961 . S
C931 H947 0.960 . S
H932 C916 0.931 . S
H933 C921 0.929 . S
H934 C922 0.960 . S
H935 C922 0.962 . S
H936 C922 0.960 . S
H937 C923 0.961 . S
H938 C923 0.961 . S
H939 C923 0.961 . S
H940 C924 0.931 . S
H941 C929 0.930 . S
H942 C930 0.956 . S
H943 C930 0.961 . S
H944 C930 0.961 . S
H945 C931 0.958 . S
H946 C931 0.961 . S
H947 C931 0.960 . S
C948 C949 1.391 . S
C948 C950 1.394 . S
C948 H964 0.931 . S
C949 C948 1.391 . S
C949 C953 1.376 . S
C950 C948 1.394 . S
C950 C951 1.369 . S
C950 C954 1.531 . S
C951 C950 1.369 . S
C951 C952 1.410 . S
C951 C959 1.503 . S
C952 C951 1.410 . S
C952 C953 1.392 . S
C952 C955 1.511 . S
C953 C949 1.376 . S
C953 C952 1.392 . S
C953 H965 0.929 . S
C954 C950 1.531 . S
C954 H966 0.960 . S
C954 H967 0.962 . S
C954 H968 0.960 . S
C955 C952 1.511 . S
C955 H969 0.961 . S
C955 H970 0.961 . S
C955 H971 0.961 . S
C956 C957 1.370 . S
C956 C958 1.363 . S
C956 H972 0.931 . S
C957 C956 1.370 . S
C957 C961 1.408 . S
C958 C956 1.363 . S
C958 C959 1.370 . S
C958 C962 1.524 . S
C959 C951 1.503 . S
C959 C958 1.370 . S
C959 C960 1.403 . S
C960 C959 1.403 . S
C960 C961 1.404 . S
C960 C963 1.539 . S
C961 C957 1.408 . S
C961 C960 1.404 . S
C961 H973 0.930 . S
C962 C958 1.524 . S
C962 H974 0.956 . S
C962 H975 0.961 . S
C962 H976 0.961 . S
C963 C960 1.539 . S
C963 H977 0.958 . S
C963 H978 0.961 . S
C963 H979 0.960 . S
H964 C948 0.931 . S
H965 C953 0.929 . S
H966 C954 0.960 . S
H967 C954 0.962 . S
H968 C954 0.960 . S
H969 C955 0.961 . S
H970 C955 0.961 . S
H971 C955 0.961 . S
H972 C956 0.931 . S
H973 C961 0.930 . S
H974 C962 0.956 . S
H975 C962 0.961 . S
H976 C962 0.961 . S
H977 C963 0.958 . S
H978 C963 0.961 . S
H979 C963 0.960 . S
C980 C981 1.391 . S
C980 C982 1.394 . S
C980 H996 0.931 . S
C981 C980 1.391 . S
C981 C985 1.376 . S
C982 C980 1.394 . S
C982 C983 1.369 . S
C982 C986 1.531 . S
C983 C982 1.369 . S
C983 C984 1.410 . S
C983 C991 1.503 . S
C984 C983 1.410 . S
C984 C985 1.392 . S
C984 C987 1.511 . S
C985 C981 1.376 . S
C985 C984 1.392 . S
C985 H997 0.929 . S
C986 C982 1.531 . S
C986 H998 0.960 . S
C986 H999 0.962 . S
C986 H1000 0.960 . S
C987 C984 1.511 . S
C987 H1001 0.961 . S
C987 H1002 0.961 . S
C987 H1003 0.961 . S
C988 C989 1.370 . S
C988 C990 1.363 . S
C988 H1004 0.931 . S
C989 C988 1.370 . S
C989 C993 1.408 . S
C990 C988 1.363 . S
C990 C991 1.370 . S
C990 C994 1.524 . S
C991 C983 1.503 . S
C991 C990 1.370 . S
C991 C992 1.403 . S
C992 C991 1.403 . S
C992 C993 1.404 . S
C992 C995 1.539 . S
C993 C989 1.408 . S
C993 C992 1.404 . S
C993 H1005 0.930 . S
C994 C990 1.524 . S
C994 H1006 0.956 . S
C994 H1007 0.961 . S
C994 H1008 0.961 . S
C995 C992 1.539 . S
C995 H1009 0.958 . S
C995 H1010 0.961 . S
C995 H1011 0.960 . S
H996 C980 0.931 . S
H997 C985 0.929 . S
H998 C986 0.960 . S
H999 C986 0.962 . S
H1000 C986 0.960 . S
H1001 C987 0.961 . S
H1002 C987 0.961 . S
H1003 C987 0.961 . S
H1004 C988 0.931 . S
H1005 C993 0.930 . S
H1006 C994 0.956 . S
H1007 C994 0.961 . S
H1008 C994 0.961 . S
H1009 C995 0.958 . S
H1010 C995 0.961 . S
H1011 C995 0.960 . S
C1012 C1013 1.391 . S
C1012 C1014 1.394 . S
C1012 H1028 0.931 . S
C1013 C1012 1.391 . S
C1013 C1017 1.376 . S
C1014 C1012 1.394 . S
C1014 C1015 1.369 . S
C1014 C1018 1.531 . S
C1015 C1014 1.369 . S
C1015 C1016 1.410 . S
C1015 C1023 1.503 . S
C1016 C1015 1.410 . S
C1016 C1017 1.392 . S
C1016 C1019 1.511 . S
C1017 C1013 1.376 . S
C1017 C1016 1.392 . S
C1017 H1029 0.929 . S
C1018 C1014 1.531 . S
C1018 H1030 0.960 . S
C1018 H1031 0.962 . S
C1018 H1032 0.960 . S
C1019 C1016 1.511 . S
C1019 H1033 0.961 . S
C1019 H1034 0.961 . S
C1019 H1035 0.961 . S
C1020 C1021 1.370 . S
C1020 C1022 1.363 . S
C1020 H1036 0.931 . S
C1021 C1020 1.370 . S
C1021 C1025 1.408 . S
C1022 C1020 1.363 . S
C1022 C1023 1.370 . S
C1022 C1026 1.524 . S
C1023 C1015 1.503 . S
C1023 C1022 1.370 . S
C1023 C1024 1.403 . S
C1024 C1023 1.403 . S
C1024 C1025 1.404 . S
C1024 C1027 1.539 . S
C1025 C1021 1.408 . S
C1025 C1024 1.404 . S
C1025 H1037 0.930 . S
C1026 C1022 1.524 . S
C1026 H1038 0.956 . S
C1026 H1039 0.961 . S
C1026 H1040 0.961 . S
C1027 C1024 1.539 . S
C1027 H1041 0.958 . S
C1027 H1042 0.961 . S
C1027 H1043 0.960 . S
H1028 C1012 0.931 . S
H1029 C1017 0.929 . S
H1030 C1018 0.960 . S
H1031 C1018 0.962 . S
H1032 C1018 0.960 . S
H1033 C1019 0.961 . S
H1034 C1019 0.961 . S
H1035 C1019 0.961 . S
H1036 C1020 0.931 . S
H1037 C1025 0.930 . S
H1038 C1026 0.956 . S
H1039 C1026 0.961 . S
H1040 C1026 0.961 . S
H1041 C1027 0.958 . S
H1042 C1027 0.961 . S
H1043 C1027 0.960 . S
C1044 C1045 1.391 . S
C1044 C1046 1.394 . S
C1044 H1060 0.931 . S
C1045 C1044 1.391 . S
C1045 C1049 1.376 . S
C1046 C1044 1.394 . S
C1046 C1047 1.369 . S
C1046 C1050 1.531 . S
C1047 C1046 1.369 . S
C1047 C1048 1.410 . S
C1047 C1055 1.503 . S
C1048 C1047 1.410 . S
C1048 C1049 1.392 . S
C1048 C1051 1.511 . S
C1049 C1045 1.376 . S
C1049 C1048 1.392 . S
C1049 H1061 0.929 . S
C1050 C1046 1.531 . S
C1050 H1062 0.960 . S
C1050 H1063 0.962 . S
C1050 H1064 0.960 . S
C1051 C1048 1.511 . S
C1051 H1065 0.961 . S
C1051 H1066 0.961 . S
C1051 H1067 0.961 . S
C1052 C1053 1.370 . S
C1052 C1054 1.363 . S
C1052 H1068 0.931 . S
C1053 C1052 1.370 . S
C1053 C1057 1.408 . S
C1054 C1052 1.363 . S
C1054 C1055 1.370 . S
C1054 C1058 1.524 . S
C1055 C1047 1.503 . S
C1055 C1054 1.370 . S
C1055 C1056 1.403 . S
C1056 C1055 1.403 . S
C1056 C1057 1.404 . S
C1056 C1059 1.539 . S
C1057 C1053 1.408 . S
C1057 C1056 1.404 . S
C1057 H1069 0.930 . S
C1058 C1054 1.524 . S
C1058 H1070 0.956 . S
C1058 H1071 0.961 . S
C1058 H1072 0.961 . S
C1059 C1056 1.539 . S
C1059 H1073 0.958 . S
C1059 H1074 0.961 . S
C1059 H1075 0.960 . S
H1060 C1044 0.931 . S
H1061 C1049 0.929 . S
H1062 C1050 0.960 . S
H1063 C1050 0.962 . S
H1064 C1050 0.960 . S
H1065 C1051 0.961 . S
H1066 C1051 0.961 . S
H1067 C1051 0.961 . S
H1068 C1052 0.931 . S
H1069 C1057 0.930 . S
H1070 C1058 0.956 . S
H1071 C1058 0.961 . S
H1072 C1058 0.961 . S
H1073 C1059 0.958 . S
H1074 C1059 0.961 . S
H1075 C1059 0.960 . S
C1076 C1077 1.391 . S
C1076 C1078 1.394 . S
C1076 H1092 0.931 . S
C1077 C1076 1.391 . S
C1077 C1081 1.376 . S
C1078 C1076 1.394 . S
C1078 C1079 1.369 . S
C1078 C1082 1.531 . S
C1079 C1078 1.369 . S
C1079 C1080 1.410 . S
C1079 C1087 1.503 . S
C1080 C1079 1.410 . S
C1080 C1081 1.392 . S
C1080 C1083 1.511 . S
C1081 C1077 1.376 . S
C1081 C1080 1.392 . S
C1081 H1093 0.929 . S
C1082 C1078 1.531 . S
C1082 H1094 0.960 . S
C1082 H1095 0.962 . S
C1082 H1096 0.960 . S
C1083 C1080 1.511 . S
C1083 H1097 0.961 . S
C1083 H1098 0.961 . S
C1083 H1099 0.961 . S
C1084 C1085 1.370 . S
C1084 C1086 1.363 . S
C1084 H1100 0.931 . S
C1085 C1084 1.370 . S
C1085 C1089 1.408 . S
C1086 C1084 1.363 . S
C1086 C1087 1.370 . S
C1086 C1090 1.524 . S
C1087 C1079 1.503 . S
C1087 C1086 1.370 . S
C1087 C1088 1.403 . S
C1088 C1087 1.403 . S
C1088 C1089 1.404 . S
C1088 C1091 1.539 . S
C1089 C1085 1.408 . S
C1089 C1088 1.404 . S
C1089 H1101 0.930 . S
C1090 C1086 1.524 . S
C1090 H1102 0.956 . S
C1090 H1103 0.961 . S
C1090 H1104 0.961 . S
C1091 C1088 1.539 . S
C1091 H1105 0.958 . S
C1091 H1106 0.961 . S
C1091 H1107 0.960 . S
H1092 C1076 0.931 . S
H1093 C1081 0.929 . S
H1094 C1082 0.960 . S
H1095 C1082 0.962 . S
H1096 C1082 0.960 . S
H1097 C1083 0.961 . S
H1098 C1083 0.961 . S
H1099 C1083 0.961 . S
H1100 C1084 0.931 . S
H1101 C1089 0.930 . S
H1102 C1090 0.956 . S
H1103 C1090 0.961 . S
H1104 C1090 0.961 . S
H1105 C1091 0.958 . S
H1106 C1091 0.961 . S
H1107 C1091 0.960 . S
C1108 C1109 1.391 . S
C1108 C1110 1.394 . S
C1108 H1124 0.931 . S
C1109 C1108 1.391 . S
C1109 C1113 1.376 . S
C1110 C1108 1.394 . S
C1110 C1111 1.369 . S
C1110 C1114 1.531 . S
C1111 C1110 1.369 . S
C1111 C1112 1.410 . S
C1111 C1119 1.503 . S
C1112 C1111 1.410 . S
C1112 C1113 1.392 . S
C1112 C1115 1.511 . S
C1113 C1109 1.376 . S
C1113 C1112 1.392 . S
C1113 H1125 0.929 . S
C1114 C1110 1.531 . S
C1114 H1126 0.960 . S
C1114 H1127 0.962 . S
C1114 H1128 0.960 . S
C1115 C1112 1.511 . S
C1115 H1129 0.961 . S
C1115 H1130 0.961 . S
C1115 H1131 0.961 . S
C1116 C1117 1.370 . S
C1116 C1118 1.363 . S
C1116 H1132 0.931 . S
C1117 C1116 1.370 . S
C1117 C1121 1.408 . S
C1118 C1116 1.363 . S
C1118 C1119 1.370 . S
C1118 C1122 1.524 . S
C1119 C1111 1.503 . S
C1119 C1118 1.370 . S
C1119 C1120 1.403 . S
C1120 C1119 1.403 . S
C1120 C1121 1.404 . S
C1120 C1123 1.539 . S
C1121 C1117 1.408 . S
C1121 C1120 1.404 . S
C1121 H1133 0.930 . S
C1122 C1118 1.524 . S
C1122 H1134 0.956 . S
C1122 H1135 0.961 . S
C1122 H1136 0.961 . S
C1123 C1120 1.539 . S
C1123 H1137 0.958 . S
C1123 H1138 0.961 . S
C1123 H1139 0.960 . S
H1124 C1108 0.931 . S
H1125 C1113 0.929 . S
H1126 C1114 0.960 . S
H1127 C1114 0.962 . S
H1128 C1114 0.960 . S
H1129 C1115 0.961 . S
H1130 C1115 0.961 . S
H1131 C1115 0.961 . S
H1132 C1116 0.931 . S
H1133 C1121 0.930 . S
H1134 C1122 0.956 . S
H1135 C1122 0.961 . S
H1136 C1122 0.961 . S
H1137 C1123 0.958 . S
H1138 C1123 0.961 . S
H1139 C1123 0.960 . S
C1140 C1141 1.391 . S
C1140 C1142 1.394 . S
C1140 H1156 0.931 . S
C1141 C1140 1.391 . S
C1141 C1145 1.376 . S
C1142 C1140 1.394 . S
C1142 C1143 1.369 . S
C1142 C1146 1.531 . S
C1143 C1142 1.369 . S
C1143 C1144 1.410 . S
C1143 C1151 1.503 . S
C1144 C1143 1.410 . S
C1144 C1145 1.392 . S
C1144 C1147 1.511 . S
C1145 C1141 1.376 . S
C1145 C1144 1.392 . S
C1145 H1157 0.929 . S
C1146 C1142 1.531 . S
C1146 H1158 0.960 . S
C1146 H1159 0.962 . S
C1146 H1160 0.960 . S
C1147 C1144 1.511 . S
C1147 H1161 0.961 . S
C1147 H1162 0.961 . S
C1147 H1163 0.961 . S
C1148 C1149 1.370 . S
C1148 C1150 1.363 . S
C1148 H1164 0.931 . S
C1149 C1148 1.370 . S
C1149 C1153 1.408 . S
C1150 C1148 1.363 . S
C1150 C1151 1.370 . S
C1150 C1154 1.524 . S
C1151 C1143 1.503 . S
C1151 C1150 1.370 . S
C1151 C1152 1.403 . S
C1152 C1151 1.403 . S
C1152 C1153 1.404 . S
C1152 C1155 1.539 . S
C1153 C1149 1.408 . S
C1153 C1152 1.404 . S
C1153 H1165 0.930 . S
C1154 C1150 1.524 . S
C1154 H1166 0.956 . S
C1154 H1167 0.961 . S
C1154 H1168 0.961 . S
C1155 C1152 1.539 . S
C1155 H1169 0.958 . S
C1155 H1170 0.961 . S
C1155 H1171 0.960 . S
H1156 C1140 0.931 . S
H1157 C1145 0.929 . S
H1158 C1146 0.960 . S
H1159 C1146 0.962 . S
H1160 C1146 0.960 . S
H1161 C1147 0.961 . S
H1162 C1147 0.961 . S
H1163 C1147 0.961 . S
H1164 C1148 0.931 . S
H1165 C1153 0.930 . S
H1166 C1154 0.956 . S
H1167 C1154 0.961 . S
H1168 C1154 0.961 . S
H1169 C1155 0.958 . S
H1170 C1155 0.961 . S
H1171 C1155 0.960 . S
C413 C332 1.517 . S
C405 C15 1.511 . S
C445 C335 1.473 . S
C437 C55 1.473 . S
C477 C333 1.538 . S
C469 C101 1.499 . S
C509 C334 1.498 . S
C501 C141 1.499 . S
C541 C349 1.499 . S
C533 C2 1.483 . S
C573 C363 1.499 . S
C565 C61 1.499 . S
C597 C95 1.511 . S
C605 C389 1.513 . S
C637 C403 1.497 . S
C629 C135 1.494 . S
C669 C348 1.490 . S
C661 C42 1.471 . S
C693 C82 1.516 . S
C701 C362 1.518 . S
C733 C388 1.505 . S
C725 C122 1.504 . S
C765 C402 1.524 . S
C757 C21 1.524 . S
C789 C162 1.496 . S
C797 C347 1.493 . S
C829 C320 1.529 . S
C821 C221 1.522 . S
C853 C255 1.477 . S
C861 C346 1.477 . S
C885 C282 1.516 . S
C893 C321 1.519 . S
C925 C376 1.520 . S
C917 C181 1.503 . S
C957 C390 1.517 . S
C949 C202 1.504 . S
C989 C360 1.492 . S
C981 C242 1.493 . S
C1013 C301 1.507 . S
C1021 C374 1.520 . S
C1053 C377 1.517 . S
C1045 C215 1.518 . S
C1085 C391 1.508 . S
C1077 C261 1.483 . S
C1117 C361 1.498 . S
C1109 C295 1.494 . S
C1141 C175 1.496 . S
C1149 C375 1.492 . S
