# Generated by pormake.
# Topology cor, (4,6)-cn, num edge types: 1
# Building blocks:
#     Node 0, Type 0, BuildingBlock: CEKHIL_clean_sbu_0, # of connection points: 4
#     Node 1, Type 0, BuildingBlock: CEKHIL_clean_sbu_0, # of connection points: 4
#     Node 2, Type 0, BuildingBlock: CEKHIL_clean_sbu_0, # of connection points: 4
#     Node 3, Type 0, BuildingBlock: CEKHIL_clean_sbu_0, # of connection points: 4
#     Node 4, Type 0, BuildingBlock: CEKHIL_clean_sbu_0, # of connection points: 4
#     Node 5, Type 0, BuildingBlock: CEKHIL_clean_sbu_0, # of connection points: 4
#     Node 6, Type 0, BuildingBlock: CEKHIL_clean_sbu_0, # of connection points: 4
#     Node 7, Type 0, BuildingBlock: CEKHIL_clean_sbu_0, # of connection points: 4
#     Node 8, Type 0, BuildingBlock: CEKHIL_clean_sbu_0, # of connection points: 4
#     Node 9, Type 0, BuildingBlock: CEKHIL_clean_sbu_0, # of connection points: 4
#     Node 10, Type 0, BuildingBlock: CEKHIL_clean_sbu_0, # of connection points: 4
#     Node 11, Type 0, BuildingBlock: CEKHIL_clean_sbu_0, # of connection points: 4
#     Node 12, Type 0, BuildingBlock: CEKHIL_clean_sbu_0, # of connection points: 4
#     Node 13, Type 0, BuildingBlock: CEKHIL_clean_sbu_0, # of connection points: 4
#     Node 14, Type 0, BuildingBlock: CEKHIL_clean_sbu_0, # of connection points: 4
#     Node 15, Type 0, BuildingBlock: CEKHIL_clean_sbu_0, # of connection points: 4
#     Node 16, Type 0, BuildingBlock: CEKHIL_clean_sbu_0, # of connection points: 4
#     Node 17, Type 0, BuildingBlock: CEKHIL_clean_sbu_0, # of connection points: 4
#     Node 18, Type 1, BuildingBlock: MIDCAF_clean_sbu_0, # of connection points: 6
#     Node 19, Type 1, BuildingBlock: MIDCAF_clean_sbu_0, # of connection points: 6
#     Node 20, Type 1, BuildingBlock: MIDCAF_clean_sbu_0, # of connection points: 6
#     Node 21, Type 1, BuildingBlock: MIDCAF_clean_sbu_0, # of connection points: 6
#     Node 22, Type 1, BuildingBlock: MIDCAF_clean_sbu_0, # of connection points: 6
#     Node 23, Type 1, BuildingBlock: MIDCAF_clean_sbu_0, # of connection points: 6
#     Node 24, Type 1, BuildingBlock: MIDCAF_clean_sbu_0, # of connection points: 6
#     Node 25, Type 1, BuildingBlock: MIDCAF_clean_sbu_0, # of connection points: 6
#     Node 26, Type 1, BuildingBlock: MIDCAF_clean_sbu_0, # of connection points: 6
#     Node 27, Type 1, BuildingBlock: MIDCAF_clean_sbu_0, # of connection points: 6
#     Node 28, Type 1, BuildingBlock: MIDCAF_clean_sbu_0, # of connection points: 6
#     Node 29, Type 1, BuildingBlock: MIDCAF_clean_sbu_0, # of connection points: 6
#     Edge 30, Type (0, 1), BuildingBlock: UVAHIK_clean_linker_0, # of connection points: 2
#     Edge 31, Type (0, 1), BuildingBlock: UVAHIK_clean_linker_0, # of connection points: 2
#     Edge 32, Type (0, 1), BuildingBlock: UVAHIK_clean_linker_0, # of connection points: 2
#     Edge 33, Type (0, 1), BuildingBlock: UVAHIK_clean_linker_0, # of connection points: 2
#     Edge 34, Type (0, 1), BuildingBlock: UVAHIK_clean_linker_0, # of connection points: 2
#     Edge 35, Type (0, 1), BuildingBlock: UVAHIK_clean_linker_0, # of connection points: 2
#     Edge 36, Type (0, 1), BuildingBlock: UVAHIK_clean_linker_0, # of connection points: 2
#     Edge 37, Type (0, 1), BuildingBlock: UVAHIK_clean_linker_0, # of connection points: 2
#     Edge 38, Type (0, 1), BuildingBlock: UVAHIK_clean_linker_0, # of connection points: 2
#     Edge 39, Type (0, 1), BuildingBlock: UVAHIK_clean_linker_0, # of connection points: 2
#     Edge 40, Type (0, 1), BuildingBlock: UVAHIK_clean_linker_0, # of connection points: 2
#     Edge 41, Type (0, 1), BuildingBlock: UVAHIK_clean_linker_0, # of connection points: 2
#     Edge 42, Type (0, 1), BuildingBlock: UVAHIK_clean_linker_0, # of connection points: 2
#     Edge 43, Type (0, 1), BuildingBlock: UVAHIK_clean_linker_0, # of connection points: 2
#     Edge 44, Type (0, 1), BuildingBlock: UVAHIK_clean_linker_0, # of connection points: 2
#     Edge 45, Type (0, 1), BuildingBlock: UVAHIK_clean_linker_0, # of connection points: 2
#     Edge 46, Type (0, 1), BuildingBlock: UVAHIK_clean_linker_0, # of connection points: 2
#     Edge 47, Type (0, 1), BuildingBlock: UVAHIK_clean_linker_0, # of connection points: 2
#     Edge 48, Type (0, 1), BuildingBlock: UVAHIK_clean_linker_0, # of connection points: 2
#     Edge 49, Type (0, 1), BuildingBlock: UVAHIK_clean_linker_0, # of connection points: 2
#     Edge 50, Type (0, 1), BuildingBlock: UVAHIK_clean_linker_0, # of connection points: 2
#     Edge 51, Type (0, 1), BuildingBlock: UVAHIK_clean_linker_0, # of connection points: 2
#     Edge 52, Type (0, 1), BuildingBlock: UVAHIK_clean_linker_0, # of connection points: 2
#     Edge 53, Type (0, 1), BuildingBlock: UVAHIK_clean_linker_0, # of connection points: 2
#     Edge 54, Type (0, 1), BuildingBlock: UVAHIK_clean_linker_0, # of connection points: 2
#     Edge 55, Type (0, 1), BuildingBlock: UVAHIK_clean_linker_0, # of connection points: 2
#     Edge 56, Type (0, 1), BuildingBlock: UVAHIK_clean_linker_0, # of connection points: 2
#     Edge 57, Type (0, 1), BuildingBlock: UVAHIK_clean_linker_0, # of connection points: 2
#     Edge 58, Type (0, 1), BuildingBlock: UVAHIK_clean_linker_0, # of connection points: 2
#     Edge 59, Type (0, 1), BuildingBlock: UVAHIK_clean_linker_0, # of connection points: 2
#     Edge 60, Type (0, 1), BuildingBlock: UVAHIK_clean_linker_0, # of connection points: 2
#     Edge 61, Type (0, 1), BuildingBlock: UVAHIK_clean_linker_0, # of connection points: 2
#     Edge 62, Type (0, 1), BuildingBlock: UVAHIK_clean_linker_0, # of connection points: 2
#     Edge 63, Type (0, 1), BuildingBlock: UVAHIK_clean_linker_0, # of connection points: 2
#     Edge 64, Type (0, 1), BuildingBlock: UVAHIK_clean_linker_0, # of connection points: 2
#     Edge 65, Type (0, 1), BuildingBlock: UVAHIK_clean_linker_0, # of connection points: 2
#     Edge 66, Type (0, 1), BuildingBlock: UVAHIK_clean_linker_0, # of connection points: 2
#     Edge 67, Type (0, 1), BuildingBlock: UVAHIK_clean_linker_0, # of connection points: 2
#     Edge 68, Type (0, 1), BuildingBlock: UVAHIK_clean_linker_0, # of connection points: 2
#     Edge 69, Type (0, 1), BuildingBlock: UVAHIK_clean_linker_0, # of connection points: 2
#     Edge 70, Type (0, 1), BuildingBlock: UVAHIK_clean_linker_0, # of connection points: 2
#     Edge 71, Type (0, 1), BuildingBlock: UVAHIK_clean_linker_0, # of connection points: 2
#     Edge 72, Type (0, 1), BuildingBlock: UVAHIK_clean_linker_0, # of connection points: 2
#     Edge 73, Type (0, 1), BuildingBlock: UVAHIK_clean_linker_0, # of connection points: 2
#     Edge 74, Type (0, 1), BuildingBlock: UVAHIK_clean_linker_0, # of connection points: 2
#     Edge 75, Type (0, 1), BuildingBlock: UVAHIK_clean_linker_0, # of connection points: 2
#     Edge 76, Type (0, 1), BuildingBlock: UVAHIK_clean_linker_0, # of connection points: 2
#     Edge 77, Type (0, 1), BuildingBlock: UVAHIK_clean_linker_0, # of connection points: 2
#     Edge 78, Type (0, 1), BuildingBlock: UVAHIK_clean_linker_0, # of connection points: 2
#     Edge 79, Type (0, 1), BuildingBlock: UVAHIK_clean_linker_0, # of connection points: 2
#     Edge 80, Type (0, 1), BuildingBlock: UVAHIK_clean_linker_0, # of connection points: 2
#     Edge 81, Type (0, 1), BuildingBlock: UVAHIK_clean_linker_0, # of connection points: 2
#     Edge 82, Type (0, 1), BuildingBlock: UVAHIK_clean_linker_0, # of connection points: 2
#     Edge 83, Type (0, 1), BuildingBlock: UVAHIK_clean_linker_0, # of connection points: 2
#     Edge 84, Type (0, 1), BuildingBlock: UVAHIK_clean_linker_0, # of connection points: 2
#     Edge 85, Type (0, 1), BuildingBlock: UVAHIK_clean_linker_0, # of connection points: 2
#     Edge 86, Type (0, 1), BuildingBlock: UVAHIK_clean_linker_0, # of connection points: 2
#     Edge 87, Type (0, 1), BuildingBlock: UVAHIK_clean_linker_0, # of connection points: 2
#     Edge 88, Type (0, 1), BuildingBlock: UVAHIK_clean_linker_0, # of connection points: 2
#     Edge 89, Type (0, 1), BuildingBlock: UVAHIK_clean_linker_0, # of connection points: 2
#     Edge 90, Type (0, 1), BuildingBlock: UVAHIK_clean_linker_0, # of connection points: 2
#     Edge 91, Type (0, 1), BuildingBlock: UVAHIK_clean_linker_0, # of connection points: 2
#     Edge 92, Type (0, 1), BuildingBlock: UVAHIK_clean_linker_0, # of connection points: 2
#     Edge 93, Type (0, 1), BuildingBlock: UVAHIK_clean_linker_0, # of connection points: 2
#     Edge 94, Type (0, 1), BuildingBlock: UVAHIK_clean_linker_0, # of connection points: 2
#     Edge 95, Type (0, 1), BuildingBlock: UVAHIK_clean_linker_0, # of connection points: 2
#     Edge 96, Type (0, 1), BuildingBlock: UVAHIK_clean_linker_0, # of connection points: 2
#     Edge 97, Type (0, 1), BuildingBlock: UVAHIK_clean_linker_0, # of connection points: 2
#     Edge 98, Type (0, 1), BuildingBlock: UVAHIK_clean_linker_0, # of connection points: 2
#     Edge 99, Type (0, 1), BuildingBlock: UVAHIK_clean_linker_0, # of connection points: 2
#     Edge 100, Type (0, 1), BuildingBlock: UVAHIK_clean_linker_0, # of connection points: 2
#     Edge 101, Type (0, 1), BuildingBlock: UVAHIK_clean_linker_0, # of connection points: 2
# Relax obj value: 0.113
# Max RMSD: 0.161
# Mean RMSD: 0.107
data_MOF--net-cor--node1-CEKHIL_clean_sbu_0--node2-MIDCAF_clean_sbu_0--edge1-UVAHIK_clean_linker_0
_symmetry_space_group_name_H-M    P1
_symmetry_Int_Tables_number       1
_symmetry_cell_setting            triclinic
loop_
_symmetry_equiv_pos_as_xyz
'x, y, z'
_cell_length_a     49.32344
_cell_length_b     49.131258
_cell_length_c     129.94226
_cell_angle_alpha  90.658222
_cell_angle_beta   89.663601
_cell_angle_gamma 120.68245
loop_
_atom_site_label
_atom_site_type_symbol
_atom_site_fract_x
_atom_site_fract_y
_atom_site_fract_z
_atom_type_partial_charge
Co0 Co 0.71569 0.00868 0.25349 0.0
O1 O 0.69867 0.02418 0.24332 0.0
O2 O 0.74179 0.05434 0.25242 0.0
C3 C 0.66986 0.97578 0.26153 0.0
O4 O 0.73964 0.00133 0.26493 0.0
Co5 Co 0.69494 0.93727 0.25431 0.0
O6 O 0.71439 0.94915 0.26818 0.0
C7 C 0.73796 0.97751 0.23787 0.0
C8 C 0.72219 0.05229 0.24537 0.0
C9 C 0.73467 0.9777 0.27055 0.0
O10 O 0.74102 0.00252 0.24234 0.0
O11 O 0.71911 0.94944 0.24108 0.0
O12 O 0.68503 0.00583 0.26382 0.0
O13 O 0.68119 0.96766 0.25393 0.0
Co14 Co 0.02754 0.73308 0.25008 0.0
O15 O 0.03706 0.71063 0.26017 0.0
O16 O 0.07255 0.75025 0.25075 0.0
C17 C 0.98696 0.69051 0.24229 0.0
O18 O 0.02697 0.7613 0.23877 0.0
Co19 Co 0.96352 0.73058 0.25031 0.0
O20 O 0.97698 0.74953 0.23641 0.0
C21 C 0.0101 0.76574 0.2666 0.0
C22 C 0.06656 0.72977 0.25796 0.0
C23 C 0.00579 0.76328 0.23362 0.0
O24 O 0.03093 0.76363 0.26121 0.0
O25 O 0.98096 0.7518 0.26403 0.0
O26 O 0.01589 0.69927 0.23984 0.0
O27 O 0.98382 0.70561 0.24997 0.0
Co28 Co 0.31327 0.32285 0.2506 0.0
O29 O 0.34976 0.34074 0.24175 0.0
O30 O 0.33079 0.29526 0.24986 0.0
C31 C 0.32552 0.36725 0.25963 0.0
O32 O 0.27694 0.29786 0.26074 0.0
Co33 Co 0.26615 0.34732 0.24932 0.0
O34 O 0.24875 0.3222 0.26203 0.0
C35 C 0.27045 0.30989 0.23229 0.0
C36 C 0.35177 0.31595 0.24363 0.0
C37 C 0.25533 0.3016 0.26504 0.0
O38 O 0.28545 0.30099 0.23817 0.0
O39 O 0.26375 0.33091 0.23499 0.0
O40 O 0.33816 0.3506 0.26215 0.0
O41 O 0.30941 0.35853 0.25124 0.0
Co42 Co 0.31398 0.0311 0.75627 0.0
O43 O 0.33653 0.02016 0.76577 0.0
O44 O 0.29622 0.98549 0.75631 0.0
C45 C 0.35649 0.07149 0.74866 0.0
O46 O 0.28653 0.03489 0.74521 0.0
Co47 Co 0.32009 0.09697 0.75856 0.0
O48 O 0.30401 0.08705 0.74419 0.0
C49 C 0.28241 0.04757 0.77359 0.0
C50 C 0.31764 0.99087 0.76316 0.0
C51 C 0.28859 0.05895 0.74054 0.0
O52 O 0.28411 0.02725 0.76769 0.0
O53 O 0.29746 0.07731 0.77179 0.0
O54 O 0.34669 0.04245 0.74585 0.0
O55 O 0.34274 0.07466 0.7567 0.0
Co56 Co 0.00774 0.3086 0.7553 0.0
O57 O 0.9904 0.32499 0.74564 0.0
O58 O 0.96231 0.28147 0.75474 0.0
C59 C 0.04068 0.35474 0.76334 0.0
O60 O 0.01766 0.28528 0.76627 0.0
Co61 Co 0.07858 0.32991 0.75425 0.0
O62 O 0.07035 0.31068 0.76812 0.0
C63 C 0.03546 0.28576 0.73853 0.0
C64 C 0.96301 0.30076 0.74781 0.0
C65 C 0.04264 0.2905 0.77114 0.0
O66 O 0.01212 0.2832 0.74379 0.0
O67 O 0.06426 0.30471 0.74104 0.0
O68 O 0.01103 0.33879 0.76587 0.0
O69 O 0.04845 0.34407 0.75541 0.0
Co70 Co 0.73167 0.7183 0.75491 0.0
O71 O 0.69642 0.69435 0.76386 0.0
O72 O 0.70273 0.73394 0.75416 0.0
C73 C 0.73303 0.67737 0.74763 0.0
O74 O 0.76468 0.74693 0.74434 0.0
Co75 Co 0.79279 0.71654 0.7588 0.0
O76 O 0.80405 0.7364 0.74502 0.0
C77 C 0.77493 0.75087 0.77324 0.0
C78 C 0.68591 0.7124 0.76093 0.0
C79 C 0.79018 0.7492 0.74071 0.0
O80 O 0.75467 0.74878 0.76662 0.0
O81 O 0.79074 0.73698 0.77203 0.0
O82 O 0.71324 0.68533 0.74432 0.0
O83 O 0.74803 0.69159 0.75595 0.0
Co84 Co 0.38963 0.34895 0.58567 0.0
O85 O 0.36935 0.36456 0.57689 0.0
O86 O 0.41182 0.39479 0.58629 0.0
C87 C 0.34613 0.3099 0.59332 0.0
O88 O 0.41622 0.34094 0.59586 0.0
Co89 Co 0.37735 0.28111 0.582 0.0
O90 O 0.3987 0.28873 0.59555 0.0
C91 C 0.41694 0.33098 0.5674 0.0
C92 C 0.39136 0.39284 0.57958 0.0
C93 C 0.4155 0.31627 0.59952 0.0
O94 O 0.41714 0.35133 0.57376 0.0
O95 O 0.40019 0.30108 0.56881 0.0
O96 O 0.35844 0.339 0.59655 0.0
O97 O 0.35802 0.30624 0.58489 0.0
Co98 Co 0.68607 0.05496 0.5848 0.0
O99 O 0.70112 0.03813 0.59513 0.0
O100 O 0.73195 0.07803 0.58498 0.0
C101 C 0.64874 0.00841 0.57792 0.0
O102 O 0.67821 0.07766 0.57304 0.0
Co103 Co 0.61667 0.04006 0.58604 0.0
O104 O 0.6255 0.05507 0.57162 0.0
C105 C 0.66398 0.08651 0.60043 0.0
C106 C 0.72947 0.05961 0.59251 0.0
C107 C 0.65333 0.07277 0.56816 0.0
O108 O 0.68591 0.08537 0.59538 0.0
O109 O 0.63464 0.06857 0.59838 0.0
O110 O 0.67803 0.0206 0.57513 0.0
O111 O 0.64401 0.02266 0.58549 0.0
Co112 Co 0.97811 0.65142 0.58396 0.0
O113 O 0.01516 0.67273 0.57545 0.0
O114 O 0.00159 0.62968 0.58448 0.0
C115 C 0.98212 0.69437 0.59194 0.0
O116 O 0.94232 0.62363 0.59385 0.0
Co117 Co 0.92251 0.663 0.58049 0.0
O118 O 0.90531 0.63749 0.59313 0.0
C119 C 0.93405 0.62512 0.5654 0.0
C120 C 0.02095 0.6507 0.57799 0.0
C121 C 0.91659 0.62169 0.59705 0.0
O122 O 0.95388 0.62459 0.57166 0.0
O123 O 0.92072 0.64126 0.56712 0.0
O124 O 0.99856 0.68223 0.59517 0.0
O125 O 0.96716 0.68263 0.5834 0.0
Co126 Co 0.98571 0.36647 0.08658 0.0
O127 O 0.00843 0.35616 0.09618 0.0
O128 O 0.96515 0.32079 0.08805 0.0
C129 C 0.02766 0.40215 0.07742 0.0
O130 O 0.95747 0.3697 0.07572 0.0
Co131 Co 0.99726 0.43455 0.08748 0.0
O132 O 0.9778 0.42207 0.07359 0.0
C133 C 0.9589 0.39006 0.10359 0.0
C134 C 0.98752 0.32667 0.09458 0.0
C135 C 0.96013 0.39341 0.07064 0.0
O136 O 0.95913 0.36798 0.09825 0.0
O137 O 0.97496 0.41927 0.10109 0.0
O138 O 0.01526 0.37203 0.07566 0.0
O139 O 0.017 0.40935 0.08551 0.0
Co140 Co 0.68366 0.64896 0.09071 0.0
O141 O 0.66878 0.66742 0.08103 0.0
O142 O 0.63807 0.62381 0.08983 0.0
C143 C 0.7174 0.69369 0.09916 0.0
O144 O 0.69162 0.62418 0.10162 0.0
Co145 Co 0.75348 0.66703 0.08931 0.0
O146 O 0.7443 0.6472 0.10312 0.0
C147 C 0.70933 0.62564 0.07344 0.0
C148 C 0.64066 0.64411 0.08296 0.0
C149 C 0.7164 0.62824 0.10633 0.0
O150 O 0.68689 0.62301 0.0792 0.0
O151 O 0.73845 0.6443 0.07564 0.0
O152 O 0.68752 0.67888 0.10136 0.0
O153 O 0.72508 0.68319 0.09114 0.0
Co154 Co 0.39451 0.0513 0.08983 0.0
O155 O 0.35828 0.02857 0.09846 0.0
O156 O 0.3706 0.07271 0.09027 0.0
C157 C 0.38969 0.00979 0.08086 0.0
O158 O 0.42973 0.07973 0.07983 0.0
Co159 Co 0.44946 0.03875 0.09273 0.0
O160 O 0.46326 0.06136 0.07943 0.0
C161 C 0.43952 0.07624 0.10829 0.0
C162 C 0.35157 0.05025 0.09646 0.0
C163 C 0.45324 0.07868 0.07584 0.0
O164 O 0.4196 0.077 0.10214 0.0
O165 O 0.45252 0.05987 0.10639 0.0
O166 O 0.37309 0.02245 0.07839 0.0
O167 O 0.40503 0.01973 0.08945 0.0
Co168 Co 0.05094 0.67251 0.91849 0.0
O169 O 0.03048 0.68858 0.90992 0.0
O170 O 0.07725 0.71807 0.91715 0.0
C171 C 0.009 0.64041 0.92842 0.0
O172 O 0.07905 0.66461 0.92806 0.0
Co173 Co 0.02892 0.60074 0.91797 0.0
O174 O 0.05774 0.61207 0.9299 0.0
C175 C 0.06621 0.64109 0.90074 0.0
C176 C 0.05515 0.71647 0.9113 0.0
C177 C 0.07826 0.64056 0.93229 0.0
O178 O 0.07119 0.66583 0.90587 0.0
O179 O 0.04783 0.61285 0.90388 0.0
O180 O 0.02549 0.67058 0.93046 0.0
O181 O 0.01618 0.63169 0.91994 0.0
Co182 Co 0.34749 0.39432 0.91688 0.0
O183 O 0.35862 0.37655 0.92821 0.0
O184 O 0.39256 0.41802 0.91918 0.0
C185 C 0.31418 0.34783 0.90889 0.0
O186 O 0.34624 0.41901 0.90446 0.0
Co187 Co 0.27908 0.37883 0.91245 0.0
O188 O 0.29644 0.39717 0.89878 0.0
C189 C 0.31517 0.42143 0.92985 0.0
C190 C 0.38771 0.39854 0.9266 0.0
C191 C 0.32598 0.41584 0.89762 0.0
O192 O 0.34061 0.42216 0.92693 0.0
O193 O 0.28841 0.40416 0.92548 0.0
O194 O 0.34444 0.36114 0.90743 0.0
O195 O 0.30569 0.3617 0.91552 0.0
Co196 Co 0.63833 0.99182 0.91659 0.0
O197 O 0.67272 0.00925 0.9068 0.0
O198 O 0.65625 0.96478 0.91529 0.0
C199 C 0.65265 0.03739 0.92528 0.0
O200 O 0.60497 0.96689 0.92758 0.0
Co201 Co 0.58963 0.01421 0.91799 0.0
O202 O 0.58006 0.99325 0.93159 0.0
C203 C 0.58678 0.97327 0.9006 0.0
C204 C 0.67576 0.98503 0.90866 0.0
C205 C 0.58674 0.97192 0.93345 0.0
O206 O 0.60742 0.96847 0.90497 0.0
O207 O 0.57861 0.99236 0.90425 0.0
O208 O 0.66591 0.02107 0.92745 0.0
O209 O 0.63373 0.02714 0.91754 0.0
Co210 Co 0.64905 0.68974 0.42213 0.0
O211 O 0.66826 0.67345 0.43113 0.0
O212 O 0.62507 0.64392 0.42196 0.0
C213 C 0.69291 0.72647 0.41401 0.0
O214 O 0.6233 0.6981 0.41168 0.0
Co215 Co 0.66405 0.7587 0.42467 0.0
O216 O 0.64494 0.75085 0.41075 0.0
C217 C 0.62234 0.71145 0.43969 0.0
C218 C 0.64537 0.64539 0.42863 0.0
C219 C 0.62663 0.72299 0.40724 0.0
O220 O 0.62268 0.68997 0.43404 0.0
O221 O 0.63879 0.74098 0.43764 0.0
O222 O 0.67914 0.69689 0.41119 0.0
O223 O 0.68223 0.73211 0.42239 0.0
Co224 Co 0.35496 0.98473 0.42113 0.0
O225 O 0.33924 0.0041 0.412 0.0
O226 O 0.30929 0.96076 0.42097 0.0
C227 C 0.39152 0.02884 0.42935 0.0
O228 O 0.36312 0.95889 0.4316 0.0
Co229 Co 0.4242 0.00043 0.419 0.0
O230 O 0.41573 0.9808 0.43282 0.0
C231 C 0.37768 0.96023 0.40336 0.0
C232 C 0.31116 0.98118 0.41428 0.0
C233 C 0.38789 0.96229 0.43615 0.0
O234 O 0.35569 0.95835 0.40923 0.0
O235 O 0.407 0.97788 0.40549 0.0
O236 O 0.36206 0.01531 0.43209 0.0
O237 O 0.39693 0.01768 0.42105 0.0
Co238 Co 0.05242 0.38032 0.42353 0.0
O239 O 0.01694 0.36218 0.4328 0.0
O240 O 0.03131 0.40426 0.42313 0.0
C241 C 0.04475 0.33573 0.41579 0.0
O242 O 0.08626 0.40475 0.41277 0.0
Co243 Co 0.10639 0.36611 0.4262 0.0
O244 O 0.12179 0.38885 0.41294 0.0
C245 C 0.09847 0.40575 0.44146 0.0
C246 C 0.01233 0.38486 0.43004 0.0
C247 C 0.11033 0.40448 0.40899 0.0
O248 O 0.08002 0.40835 0.43512 0.0
O249 O 0.10918 0.38722 0.43983 0.0
O250 O 0.02859 0.34856 0.41294 0.0
O251 O 0.06135 0.34762 0.42406 0.0
Zn252 Zn 0.01878 0.02516 0.13551 0.0
Zn253 Zn 0.02583 0.03472 0.17267 0.0
Zn254 Zn 0.02252 0.02998 0.15321 0.0
C255 C 0.05251 0.99842 0.16696 0.0
C256 C 0.05935 0.09612 0.165 0.0
O257 O 0.03107 0.07583 0.14707 0.0
O258 O 1.0002 0.05232 0.13377 0.0
C259 C 0.97005 0.9708 0.14216 0.0
O260 O 0.04971 0.00737 0.15793 0.0
O261 O 0.04283 0.0064 0.17479 0.0
O262 O 0.055 0.08086 0.17319 0.0
O263 O 0.04671 0.08148 0.15649 0.0
O264 O 0.99083 0.97846 0.13528 0.0
O265 O 0.97447 0.9909 0.14935 0.0
O266 O 0.05913 0.01954 0.14803 0.0
O267 O 0.06472 0.04396 0.13342 0.0
C268 C 0.0756 0.03329 0.13997 0.0
O269 O 0.97318 0.00397 0.15871 0.0
O270 O 0.98045 0.01844 0.17513 0.0
C271 C 0.01429 0.07633 0.13958 0.0
C272 C 0.96213 0.00492 0.16763 0.0
Zn273 Zn 0.03065 0.01813 0.33293 0.0
Zn274 Zn 0.01733 0.01607 0.37287 0.0
Zn275 Zn 0.02353 0.0179 0.35258 0.0
C276 C 0.0462 0.07977 0.36709 0.0
C277 C 0.95686 0.97857 0.36473 0.0
O278 O 0.04627 0.98971 0.34851 0.0
O279 O 0.04962 0.99173 0.33152 0.0
C280 C 0.06465 0.08093 0.33886 0.0
O281 O 0.04448 0.06763 0.35809 0.0
O282 O 0.03578 0.06223 0.37488 0.0
O283 O 0.97106 0.98725 0.37325 0.0
O284 O 0.97227 0.98856 0.35622 0.0
O285 O 0.05867 0.06362 0.33098 0.0
O286 O 0.05295 0.06859 0.34768 0.0
O287 O 0.97546 0.99623 0.3457 0.0
O288 O 0.98603 0.99935 0.32905 0.0
C289 C 0.96624 0.99195 0.33624 0.0
O290 O 0.04928 0.99563 0.35914 0.0
O291 O 0.0436 0.99739 0.376 0.0
C292 C 0.05391 0.98194 0.33992 0.0
C293 C 0.05491 0.9904 0.36837 0.0
Zn294 Zn 0.01337 0.0145 0.87559 0.0
Zn295 Zn 0.00442 0.99808 0.83562 0.0
Zn296 Zn 0.01025 0.00866 0.85521 0.0
C297 C 0.03548 0.06386 0.83827 0.0
C298 C 0.94383 0.9692 0.84286 0.0
O299 O 0.03252 0.98216 0.86115 0.0
O300 O 0.0327 0.98814 0.87805 0.0
C301 C 0.05008 0.07555 0.86694 0.0
O302 O 0.03214 0.05613 0.84785 0.0
O303 O 0.026 0.0427 0.83136 0.0
O304 O 0.95838 0.97386 0.83447 0.0
O305 O 0.95908 0.98031 0.85137 0.0
O306 O 0.04142 0.06128 0.87543 0.0
O307 O 0.04016 0.06 0.8584 0.0
O308 O 0.96158 0.98962 0.86171 0.0
O309 O 0.96779 0.99653 0.87857 0.0
C310 C 0.94992 0.9876 0.8708 0.0
O311 O 0.0372 0.9852 0.85034 0.0
O312 O 0.02762 0.97564 0.8337 0.0
C313 C 0.03862 0.97646 0.87025 0.0
C314 C 0.04155 0.97478 0.84168 0.0
Zn315 Zn 0.01233 0.01777 0.67301 0.0
Zn316 Zn 0.01758 0.02201 0.63333 0.0
Zn317 Zn 0.01557 0.02084 0.65345 0.0
C318 C 0.98569 0.95855 0.63846 0.0
C319 C 0.08009 0.05349 0.64007 0.0
O320 O 0.99431 0.04925 0.65879 0.0
O321 O 0.98911 0.03989 0.67549 0.0
C322 C 0.97844 0.9561 0.66693 0.0
O323 O 0.9917 0.97113 0.64755 0.0
O324 O 0.99361 0.97588 0.63062 0.0
O325 O 0.06396 0.04433 0.63191 0.0
O326 O 0.06629 0.04693 0.64892 0.0
O327 O 0.98921 0.97192 0.67513 0.0
O328 O 0.98541 0.97016 0.65816 0.0
O329 O 0.06475 0.04167 0.65962 0.0
O330 O 0.05738 0.04079 0.67644 0.0
C331 C 0.07578 0.04747 0.66888 0.0
O332 O 0.99095 0.04577 0.64796 0.0
O333 O 0.99611 0.04614 0.63104 0.0
C334 C 0.98558 0.05317 0.66779 0.0
C335 C 0.98575 0.053 0.63895 0.0
Zn336 Zn 0.68588 0.3615 0.50665 0.0
Zn337 Zn 0.68303 0.35088 0.46636 0.0
Zn338 Zn 0.68532 0.35602 0.48679 0.0
C339 C 0.74673 0.38407 0.47195 0.0
C340 C 0.65109 0.28942 0.47419 0.0
O341 O 0.65723 0.37813 0.49139 0.0
O342 O 0.66377 0.38525 0.50823 0.0
C343 C 0.74862 0.39267 0.50062 0.0
O344 O 0.73451 0.37923 0.48102 0.0
O345 O 0.72927 0.37469 0.46408 0.0
O346 O 0.65987 0.30395 0.46575 0.0
O347 O 0.65869 0.30497 0.48277 0.0
O348 O 0.7318 0.38436 0.50863 0.0
O349 O 0.73557 0.38484 0.49167 0.0
O350 O 0.66453 0.3078 0.49349 0.0
O351 O 0.66291 0.31614 0.51017 0.0
C352 C 0.65779 0.29728 0.50276 0.0
O353 O 0.66136 0.38058 0.48062 0.0
O354 O 0.65939 0.37284 0.46376 0.0
C355 C 0.6519 0.38788 0.50001 0.0
C356 C 0.65362 0.38469 0.47154 0.0
Zn357 Zn 0.68603 0.35009 0.70823 0.0
Zn358 Zn 0.69019 0.35312 0.65321 0.0
Zn359 Zn 0.6873 0.35073 0.68909 0.0
C360 C 0.64091 0.3329 0.67223 0.0
C361 C 0.71681 0.3992 0.67296 0.0
O362 O 0.70978 0.32324 0.69319 0.0
O363 O 0.70299 0.32124 0.71004 0.0
C364 C 0.62315 0.32255 0.70166 0.0
O365 O 0.64032 0.33187 0.68208 0.0
O366 O 0.66775 0.34242 0.66799 0.0
O367 O 0.70021 0.37248 0.66842 0.0
O368 O 0.71639 0.39892 0.6828 0.0
O369 O 0.63969 0.33218 0.70974 0.0
O370 O 0.63654 0.32684 0.69282 0.0
O371 O 0.71477 0.40096 0.69355 0.0
O372 O 0.7151 0.39647 0.71044 0.0
C373 C 0.72336 0.41368 0.70254 0.0
O374 O 0.70681 0.32319 0.6824 0.0
O375 O 0.69781 0.34059 0.66825 0.0
C376 C 0.71293 0.31399 0.7021 0.0
C377 C 0.70747 0.32375 0.67255 0.0
Zn378 Zn 0.68993 0.3511 0.20987 0.0
Zn379 Zn 0.6809 0.33827 0.1698 0.0
Zn380 Zn 0.68689 0.34701 0.18941 0.0
C381 C 0.70937 0.40357 0.17326 0.0
C382 C 0.62061 0.30471 0.17696 0.0
O383 O 0.71137 0.32218 0.19468 0.0
O384 O 0.71108 0.32613 0.21165 0.0
C385 C 0.7229 0.4132 0.20199 0.0
O386 O 0.70661 0.39498 0.18273 0.0
O387 O 0.70026 0.38316 0.16612 0.0
O388 O 0.63506 0.31162 0.1685 0.0
O389 O 0.63587 0.31572 0.18548 0.0
O390 O 0.71558 0.39812 0.21034 0.0
O391 O 0.71369 0.39826 0.19332 0.0
O392 O 0.63791 0.32463 0.19588 0.0
O393 O 0.64401 0.33052 0.21277 0.0
C394 C 0.6261 0.32127 0.20501 0.0
O395 O 0.71696 0.32752 0.18389 0.0
O396 O 0.70663 0.3188 0.16725 0.0
C397 C 0.71771 0.31584 0.20365 0.0
C398 C 0.72183 0.31868 0.175 0.0
Zn399 Zn 0.66979 0.36052 0.00729 0.0
Zn400 Zn 0.68159 0.36163 0.96747 0.0
Zn401 Zn 0.67699 0.36004 0.98765 0.0
C402 C 0.65356 0.29791 0.97331 0.0
C403 C 0.74313 0.39624 0.97539 0.0
O404 O 0.65736 0.3911 0.99154 0.0
O405 O 0.65708 0.39207 0.00856 0.0
C406 C 0.63185 0.2983 1.00112 0.0
O407 O 0.65565 0.31003 0.98233 0.0
O408 O 0.66294 0.31543 0.96549 0.0
O409 O 0.72819 0.38864 0.96698 0.0
O410 O 0.72814 0.38693 0.98399 0.0
O411 O 0.63673 0.31606 0.00881 0.0
O412 O 0.64635 0.30985 0.99256 0.0
O413 O 0.72472 0.37998 0.99452 0.0
O414 O 0.71358 0.37378 0.01115 0.0
C415 C 0.73346 0.3818 0.00396 0.0
O416 O 0.65082 0.38236 0.98112 0.0
O417 O 0.65533 0.38035 0.96423 0.0
C418 C 0.65272 0.40158 1.00012 0.0
C419 C 0.64418 0.38712 0.97195 0.0
Zn420 Zn 0.36365 0.69521 0.83467 0.0
Zn421 Zn 0.34791 0.6826 0.79974 0.0
Zn422 Zn 0.35446 0.68871 0.81713 0.0
C423 C 0.40475 0.68872 0.80316 0.0
C424 C 0.2984 0.6297 0.80736 0.0
O425 O 0.30685 0.66555 0.82378 0.0
O426 O 0.32458 0.6969 0.83739 0.0
C427 C 0.40352 0.75263 0.82687 0.0
O428 O 0.38976 0.67667 0.81161 0.0
O429 O 0.39295 0.69867 0.79669 0.0
O430 O 0.31794 0.63619 0.80014 0.0
O431 O 0.30479 0.65041 0.81453 0.0
O432 O 0.40461 0.73504 0.83363 0.0
O433 O 0.38105 0.74069 0.82019 0.0
O434 O 0.37999 0.6636 0.82124 0.0
O435 O 0.36508 0.65667 0.83751 0.0
C436 C 0.37691 0.65 0.82996 0.0
O437 O 0.36341 0.73503 0.81126 0.0
O438 O 0.33145 0.71174 0.79818 0.0
C439 C 0.30175 0.6781 0.83173 0.0
C440 C 0.3464 0.73585 0.8039 0.0
Zn441 Zn 0.3475 0.68281 0.03834 0.0
Zn442 Zn 0.38461 0.68541 0.00629 0.0
Zn443 Zn 0.35932 0.68641 0.02051 0.0
C444 C 0.32519 0.67554 1.00025 0.0
C445 C 0.41536 0.74444 0.01041 0.0
O446 O 0.3914 0.67372 0.02686 0.0
O447 O 0.37172 0.66191 0.04244 0.0
C448 C 0.28964 0.64428 0.02773 0.0
O449 O 0.32032 0.66375 0.00937 0.0
O450 O 0.35327 0.69015 0.9969 0.0
O451 O 0.42548 0.72545 0.00957 0.0
O452 O 0.38681 0.73362 0.01346 0.0
O453 O 0.30081 0.65668 0.03642 0.0
O454 O 0.30828 0.65067 0.01996 0.0
O455 O 0.36816 0.73385 0.02343 0.0
O456 O 0.36712 0.72961 0.04031 0.0
C457 C 0.37209 0.74637 0.03241 0.0
O458 O 0.3286 0.63916 0.01346 0.0
O459 O 0.37263 0.64035 0.00953 0.0
C460 C 0.39098 0.66295 0.03577 0.0
C461 C 0.34302 0.62438 0.01085 0.0
Zn462 Zn 0.35193 0.68375 0.54029 0.0
Zn463 Zn 0.34373 0.67199 0.50053 0.0
Zn464 Zn 0.34902 0.67887 0.52003 0.0
C465 C 0.37548 0.73663 0.50382 0.0
C466 C 0.28291 0.64085 0.50726 0.0
O467 O 0.37334 0.65415 0.52567 0.0
O468 O 0.3754 0.6615 0.54255 0.0
C469 C 0.38435 0.74536 0.53253 0.0
O470 O 0.37049 0.72725 0.51324 0.0
O471 O 0.36715 0.71666 0.49658 0.0
O472 O 0.29778 0.64953 0.49888 0.0
O473 O 0.29801 0.64917 0.51588 0.0
O474 O 0.37556 0.73059 0.54091 0.0
O475 O 0.37656 0.73011 0.52389 0.0
O476 O 0.30021 0.65691 0.52643 0.0
O477 O 0.30621 0.66118 0.54334 0.0
C478 C 0.28836 0.6525 0.53557 0.0
O479 O 0.37625 0.65622 0.51482 0.0
O480 O 0.36526 0.64801 0.49823 0.0
C481 C 0.38125 0.64995 0.53471 0.0
C482 C 0.37954 0.64611 0.50596 0.0
Zn483 Zn 0.34695 0.67998 0.30257 0.0
Zn484 Zn 0.34467 0.68805 0.33972 0.0
Zn485 Zn 0.34517 0.68338 0.32226 0.0
C486 C 0.39803 0.68879 0.33659 0.0
C487 C 0.29315 0.6325 0.3361 0.0
O488 O 0.32013 0.70669 0.31591 0.0
O489 O 0.32131 0.6992 0.29914 0.0
C490 C 0.40951 0.71664 0.30922 0.0
O491 O 0.39352 0.70017 0.32832 0.0
O492 O 0.37576 0.67516 0.34295 0.0
O493 O 0.29945 0.6563 0.34163 0.0
O494 O 0.31172 0.63583 0.32858 0.0
O495 O 0.39334 0.70654 0.30108 0.0
O496 O 0.39587 0.70922 0.31808 0.0
O497 O 0.32095 0.632 0.31861 0.0
O498 O 0.32705 0.63341 0.3017 0.0
C499 C 0.31764 0.61775 0.30991 0.0
O500 O 0.3293 0.71716 0.32609 0.0
O501 O 0.35823 0.73369 0.34013 0.0
C502 C 0.31253 0.70937 0.30665 0.0
C503 C 0.34257 0.73786 0.33335 0.0
C504 C 0.25428 0.31145 0.21428 0.0
C505 C 0.25884 0.29465 0.2221 0.0
C506 C 0.23926 0.2964 0.20511 0.0
C507 C 0.20812 0.22162 0.18975 0.0
H508 H 0.14449 0.24146 0.18179 0.0
C509 C 0.11204 0.14177 0.16104 0.0
C510 C 0.08213 0.13022 0.16544 0.0
C511 C 0.1381 0.16931 0.165 0.0
C512 C 0.16233 0.23583 0.18383 0.0
H513 H 0.25286 0.24932 0.22621 0.0
H514 H 0.2256 0.22254 0.21029 0.0
H515 H 0.18287 0.27332 0.19493 0.0
H516 H 0.05512 0.13956 0.17658 0.0
H517 H 0.1 0.18793 0.18325 0.0
H518 H 0.18602 0.18271 0.17912 0.0
C519 C 0.23416 0.24759 0.21116 0.0
C520 C 0.18458 0.25427 0.19132 0.0
C521 C 0.24966 0.26285 0.22032 0.0
C522 C 0.07793 0.14838 0.17297 0.0
C523 C 0.10377 0.17604 0.17682 0.0
C524 C 0.18576 0.20309 0.18226 0.0
C525 C 0.22793 0.26399 0.20358 0.0
C526 C 0.20722 0.24687 0.1946 0.0
C527 C 0.13441 0.18576 0.17331 0.0
C528 C 0.16198 0.20939 0.17945 0.0
H529 H 0.26164 0.33618 0.21535 0.0
H530 H 0.2357 0.31002 0.19935 0.0
H531 H 0.2255 0.21554 0.19196 0.0
H532 H 0.11587 0.12776 0.15536 0.0
H533 H 0.16136 0.17645 0.16205 0.0
C534 C 0.75962 0.95496 0.22517 0.0
C535 C 0.75695 0.98076 0.22858 0.0
C536 C 0.77676 0.95715 0.21634 0.0
C537 C 0.83916 0.01515 0.19924 0.0
H538 H 0.81448 0.93974 0.18271 0.0
C539 C 0.91876 0.01591 0.16695 0.0
C540 C 0.92879 0.99452 0.16911 0.0
C541 C 0.89178 0.01272 0.17169 0.0
C542 C 0.82146 0.96103 0.18719 0.0
H543 H 0.77015 0.02916 0.22529 0.0
H544 H 0.79976 0.03285 0.20967 0.0
H545 H 0.77919 0.9388 0.19614 0.0
H546 H 0.91786 0.95199 0.17725 0.0
H547 H 0.8698 0.94547 0.18521 0.0
H548 H 0.88156 0.0372 0.1903 0.0
C549 C 0.78891 0.01101 0.21396 0.0
C550 C 0.80144 0.96049 0.19495 0.0
C551 C 0.77191 0.00891 0.22291 0.0
C552 C 0.91006 0.96831 0.17531 0.0
C553 C 0.88272 0.96473 0.17989 0.0
C554 C 0.85893 0.01581 0.19137 0.0
C555 C 0.79149 0.98509 0.21056 0.0
C556 C 0.81052 0.98721 0.20132 0.0
C557 C 0.87429 0.98783 0.17854 0.0
C558 C 0.85068 0.98849 0.18548 0.0
H559 H 0.7487 0.93299 0.22939 0.0
H560 H 0.7789 0.93698 0.21417 0.0
H561 H 0.84716 0.03607 0.20402 0.0
H562 H 0.93336 0.03671 0.16236 0.0
H563 H 0.88572 0.03077 0.17051 0.0
C564 C 0.04529 0.81027 0.22351 0.0
C565 C 0.0152 0.78317 0.2243 0.0
C566 C 0.05314 0.83039 0.21506 0.0
C567 C 0.01455 0.84976 0.19399 0.0
H568 H 0.10112 0.90551 0.18548 0.0
C569 C 0.04352 0.94453 0.16387 0.0
C570 C 0.06175 0.97457 0.16844 0.0
C571 C 0.04242 0.91808 0.16828 0.0
C572 C 0.07681 0.8898 0.1877 0.0
H573 H 0.97039 0.75478 0.21656 0.0
H574 H 0.98447 0.78864 0.20159 0.0
H575 H 0.08899 0.86398 0.19797 0.0
H576 H 0.0955 0.0012 0.18044 0.0
H577 H 0.09483 0.95538 0.18783 0.0
H578 H 0.00251 0.87564 0.18369 0.0
C579 C 0.0017 0.79545 0.20767 0.0
C580 C 0.06981 0.8662 0.19497 0.0
C581 C 0.99362 0.77581 0.21624 0.0
C582 C 0.08162 0.97832 0.1767 0.0
C583 C 0.0811 0.95205 0.18096 0.0
C584 C 0.02149 0.87285 0.18659 0.0
C585 C 0.03132 0.82352 0.20705 0.0
C586 C 0.03863 0.84634 0.19844 0.0
C587 C 0.06009 0.92147 0.17717 0.0
C588 C 0.05275 0.89361 0.18355 0.0
H589 H 0.06237 0.81663 0.22963 0.0
H590 H 0.07598 0.8519 0.21503 0.0
H591 H 0.99036 0.83564 0.19654 0.0
H592 H 0.02755 0.94096 0.15762 0.0
H593 H 0.02611 0.89475 0.1652 0.0
C594 C 0.21028 0.28197 0.27746 0.0
C595 C 0.23723 0.28173 0.27396 0.0
C596 C 0.19353 0.26449 0.28604 0.0
C597 C 0.19954 0.22646 0.30952 0.0
H598 H 0.10844 0.17746 0.30742 0.0
C599 C 0.11951 0.12386 0.33666 0.0
C600 C 0.08762 0.11475 0.33756 0.0
C601 C 0.14016 0.1502 0.33081 0.0
C602 C 0.13378 0.19157 0.3083 0.0
H603 H 0.26769 0.26282 0.27687 0.0
H604 H 0.23817 0.23203 0.29192 0.0
H605 H 0.13932 0.20954 0.29304 0.0
H606 H 0.05284 0.12745 0.33391 0.0
H607 H 0.0892 0.17464 0.32422 0.0
H608 H 0.19394 0.2083 0.3248 0.0
C609 C 0.23024 0.24604 0.28798 0.0
C610 C 0.15156 0.20981 0.29997 0.0
C611 C 0.24697 0.26343 0.27931 0.0
C612 C 0.07748 0.13435 0.33349 0.0
C613 C 0.09822 0.16097 0.32774 0.0
C614 C 0.1817 0.20835 0.31792 0.0
C615 C 0.20324 0.24631 0.29142 0.0
C616 C 0.18465 0.22728 0.30043 0.0
C617 C 0.12928 0.16802 0.32576 0.0
C618 C 0.14852 0.19038 0.31739 0.0
H619 H 0.202 0.29577 0.27359 0.0
H620 H 0.17307 0.26551 0.28853 0.0
H621 H 0.22499 0.24 0.31016 0.0
H622 H 0.12765 0.10862 0.33951 0.0
H623 H 0.16376 0.15462 0.32949 0.0
C624 C 0.74457 0.95922 0.28724 0.0
C625 C 0.75435 0.98309 0.27981 0.0
C626 C 0.76443 0.96227 0.29535 0.0
C627 C 0.84819 0.99861 0.30045 0.0
H628 H 0.82204 0.96763 0.32823 0.0
C629 C 0.9217 0.96469 0.32407 0.0
C630 C 0.93347 0.98163 0.33333 0.0
C631 C 0.89601 0.96346 0.31921 0.0
C632 C 0.82962 0.9765 0.32052 0.0
H633 H 0.79205 0.02975 0.27546 0.0
H634 H 0.82698 0.03493 0.28961 0.0
H635 H 0.78528 0.97218 0.31665 0.0
H636 H 0.92566 0.00784 0.34533 0.0
H637 H 0.88009 0.00547 0.33677 0.0
H638 H 0.89206 0.00217 0.30414 0.0
C639 C 0.80389 0.01377 0.28909 0.0
C640 C 0.80865 0.97903 0.31389 0.0
C641 C 0.78385 0.01086 0.28101 0.0
C642 C 0.91692 0.99447 0.33822 0.0
C643 C 0.89102 0.9933 0.3333 0.0
C644 C 0.86886 0.99571 0.307 0.0
C645 C 0.7947 0.98915 0.2962 0.0
C646 C 0.81762 0.98975 0.30373 0.0
C647 C 0.88153 0.97923 0.32348 0.0
C648 C 0.85965 0.98408 0.31702 0.0
H649 H 0.72183 0.93766 0.28662 0.0
H650 H 0.75669 0.94279 0.30064 0.0
H651 H 0.85576 0.00658 0.29266 0.0
H652 H 0.93387 0.95435 0.32018 0.0
H653 H 0.8887 0.95184 0.31176 0.0
C654 C 0.0525 0.80628 0.27817 0.0
C655 C 0.02032 0.78509 0.2762 0.0
C656 C 0.06207 0.82483 0.28715 0.0
C657 C 0.03727 0.8321 0.31338 0.0
H658 H 0.09027 0.92228 0.30909 0.0
C659 C 0.03788 0.9257 0.34025 0.0
C660 C 0.06222 0.95725 0.33928 0.0
C661 C 0.03932 0.90164 0.33487 0.0
C662 C 0.07628 0.89718 0.3106 0.0
H663 H 0.97309 0.7661 0.28234 0.0
H664 H 0.98991 0.79838 0.29803 0.0
H665 H 0.07943 0.88599 0.29484 0.0
H666 H 0.10894 0.98812 0.33325 0.0
H667 H 0.11288 0.94596 0.3246 0.0
H668 H 0.03383 0.84324 0.32914 0.0
C669 C 0.00767 0.80058 0.2926 0.0
C670 C 0.06986 0.87634 0.30234 0.0
C671 C 0.99804 0.78234 0.28356 0.0
C672 C 0.08994 0.96386 0.33414 0.0
C673 C 0.0918 0.93972 0.32899 0.0
C674 C 0.0441 0.85296 0.32172 0.0
C675 C 0.03975 0.82227 0.29444 0.0
C676 C 0.04959 0.84368 0.30357 0.0
C677 C 0.06548 0.90875 0.32858 0.0
C678 C 0.06297 0.88593 0.32039 0.0
H679 H 0.07032 0.80893 0.2727 0.0
H680 H 0.08697 0.84129 0.28838 0.0
H681 H 0.02188 0.80694 0.31457 0.0
H682 H 0.01604 0.92016 0.34405 0.0
H683 H 0.01852 0.87824 0.33483 0.0
C684 C 0.76992 0.79223 0.78321 0.0
C685 C 0.7805 0.77053 0.78262 0.0
C686 C 0.77635 0.81163 0.79191 0.0
C687 C 0.8009 0.82208 0.8192 0.0
H688 H 0.84595 0.91153 0.81301 0.0
C689 C 0.89867 0.91519 0.84448 0.0
C690 C 0.90971 0.9472 0.84263 0.0
C691 C 0.87121 0.89178 0.83966 0.0
C692 C 0.83257 0.88676 0.81503 0.0
H693 H 0.80492 0.75128 0.79093 0.0
H694 H 0.81597 0.78503 0.80609 0.0
H695 H 0.82025 0.87324 0.79927 0.0
H696 H 0.89893 0.98024 0.83563 0.0
H697 H 0.84963 0.93952 0.82785 0.0
H698 H 0.81377 0.83553 0.83495 0.0
C699 C 0.80269 0.787 0.79982 0.0
C700 C 0.81796 0.86473 0.80707 0.0
C701 C 0.79666 0.76791 0.79108 0.0
C702 C 0.89068 0.95559 0.83718 0.0
C703 C 0.86278 0.9322 0.83256 0.0
C704 C 0.81512 0.84416 0.82722 0.0
C705 C 0.79303 0.80938 0.80027 0.0
C706 C 0.80306 0.8322 0.809 0.0
C707 C 0.85416 0.90012 0.83302 0.0
C708 C 0.83234 0.87683 0.82518 0.0
H709 H 0.75729 0.79478 0.77686 0.0
H710 H 0.7686 0.82867 0.79206 0.0
H711 H 0.7891 0.79707 0.82093 0.0
H712 H 0.9133 0.90826 0.84854 0.0
H713 H 0.86556 0.86749 0.84027 0.0
C714 C 0.26763 0.05639 0.79129 0.0
C715 C 0.2618 0.03611 0.78282 0.0
C716 C 0.2478 0.04605 0.79989 0.0
C717 C 0.18075 0.97352 0.81209 0.0
H718 H 0.16481 0.03559 0.82494 0.0
C719 C 0.06585 0.94844 0.83215 0.0
C720 C 0.0677 0.96864 0.84022 0.0
C721 C 0.09326 0.95188 0.82767 0.0
C722 C 0.16945 0.01805 0.82161 0.0
H723 H 0.23072 0.98884 0.7768 0.0
H724 H 0.19518 0.97125 0.79152 0.0
H725 H 0.20476 0.05208 0.8117 0.0
H726 H 0.09945 0.00562 0.85074 0.0
H727 H 0.14746 0.01184 0.84286 0.0
H728 H 0.14347 0.93916 0.82162 0.0
C729 C 0.21565 0.99487 0.79173 0.0
C730 C 0.1925 0.02751 0.81397 0.0
C731 C 0.23591 0.00504 0.78322 0.0
C732 C 0.09729 0.98963 0.84456 0.0
C733 C 0.12479 0.99345 0.83997 0.0
C734 C 0.15725 0.96397 0.81964 0.0
C735 C 0.2211 0.01533 0.80018 0.0
C736 C 0.19823 0.00536 0.80896 0.0
C737 C 0.12303 0.97587 0.8311 0.0
C738 C 0.15107 0.98609 0.82438 0.0
H739 H 0.28768 0.08032 0.7913 0.0
H740 H 0.25345 0.06234 0.8063 0.0
H741 H 0.18482 0.95579 0.80861 0.0
H742 H 0.04332 0.93209 0.82865 0.0
H743 H 0.09106 0.93793 0.82087 0.0
C744 C 0.06545 0.28176 0.78708 0.0
C745 C 0.03976 0.27142 0.78031 0.0
C746 C 0.06436 0.26264 0.79515 0.0
C747 C 0.02849 0.17923 0.80122 0.0
H748 H 0.06446 0.20912 0.82841 0.0
C749 C 0.06208 0.10595 0.82531 0.0
C750 C 0.04685 0.09656 0.83488 0.0
C751 C 0.06365 0.13135 0.82011 0.0
C752 C 0.05425 0.2005 0.82086 0.0
H753 H 0.99216 0.2334 0.77705 0.0
H754 H 0.99041 0.19975 0.7911 0.0
H755 H 0.05892 0.24487 0.81665 0.0
H756 H 0.02427 0.10841 0.84702 0.0
H757 H 0.02734 0.1535 0.83788 0.0
H758 H 0.02441 0.13524 0.80526 0.0
C759 C 0.01144 0.22272 0.79011 0.0
C760 C 0.05116 0.22091 0.81413 0.0
C761 C 0.01239 0.24204 0.78209 0.0
C762 C 0.03629 0.11528 0.83967 0.0
C763 C 0.03785 0.1409 0.83442 0.0
C764 C 0.03196 0.15911 0.80786 0.0
C765 C 0.03766 0.23256 0.7966 0.0
C766 C 0.03847 0.21052 0.80419 0.0
C767 C 0.05002 0.14798 0.82434 0.0
C768 C 0.04529 0.1696 0.81769 0.0
H769 H 0.08682 0.30441 0.78601 0.0
H770 H 0.08502 0.27083 0.79995 0.0
H771 H 0.01897 0.17058 0.7936 0.0
H772 H 0.07065 0.09209 0.82147 0.0
H773 H 0.07382 0.13676 0.81246 0.0
C774 C 0.83358 0.77168 0.72768 0.0
C775 C 0.804 0.76634 0.73094 0.0
C776 C 0.84628 0.7858 0.71826 0.0
C777 C 0.86159 0.80026 0.69586 0.0
H778 H 0.86188 0.87636 0.68819 0.0
C779 C 0.96118 0.90365 0.67431 0.0
C780 C 0.95452 0.92244 0.66798 0.0
C781 C 0.93676 0.8767 0.67895 0.0
C782 C 0.86138 0.85468 0.69006 0.0
H783 H 0.76476 0.77215 0.72675 0.0
H784 H 0.78716 0.79707 0.71017 0.0
H785 H 0.83044 0.84576 0.70285 0.0
H786 H 0.91739 0.92666 0.66082 0.0
H787 H 0.8744 0.87952 0.66904 0.0
H788 H 0.89405 0.8103 0.68344 0.0
C789 C 0.80046 0.79026 0.71501 0.0
C790 C 0.84339 0.83717 0.6985 0.0
C791 C 0.78765 0.77603 0.72452 0.0
C792 C 0.92304 0.91219 0.66554 0.0
C793 C 0.8985 0.88551 0.67036 0.0
C794 C 0.87971 0.81787 0.68748 0.0
C795 C 0.82982 0.79498 0.71172 0.0
C796 C 0.84425 0.81042 0.70175 0.0
C797 C 0.90521 0.86844 0.6775 0.0
C798 C 0.88067 0.84588 0.68471 0.0
H799 H 0.8471 0.76485 0.73241 0.0
H800 H 0.86932 0.78986 0.71615 0.0
H801 H 0.86213 0.77928 0.69798 0.0
H802 H 0.98531 0.91142 0.67641 0.0
H803 H 0.94278 0.86422 0.68444 0.0
C804 C 0.24259 0.02949 0.72841 0.0
C805 C 0.27302 0.05495 0.73047 0.0
C806 C 0.22671 0.02905 0.71941 0.0
C807 C 0.2279 0.08573 0.70045 0.0
H808 H 0.16291 0.00967 0.68695 0.0
C809 C 0.12357 0.07963 0.67939 0.0
C810 C 0.10899 0.05818 0.67121 0.0
C811 C 0.1498 0.08206 0.68431 0.0
C812 C 0.18142 0.03123 0.69049 0.0
H813 H 0.31177 0.09838 0.72436 0.0
H814 H 0.2849 0.097 0.70858 0.0
H815 H 0.19607 0.00573 0.70004 0.0
H816 H 0.11168 0.02412 0.66122 0.0
H817 H 0.15799 0.02844 0.6698 0.0
H818 H 0.21322 0.11121 0.69099 0.0
C819 C 0.27252 0.07803 0.71404 0.0
C820 C 0.20012 0.0289 0.69812 0.0
C821 C 0.28805 0.07873 0.72306 0.0
C822 C 0.12279 0.04116 0.66743 0.0
C823 C 0.14894 0.04326 0.67246 0.0
C824 C 0.20936 0.08804 0.69282 0.0
C825 C 0.2412 0.05385 0.71223 0.0
C826 C 0.22319 0.05609 0.70338 0.0
C827 C 0.16192 0.0628 0.68123 0.0
C828 C 0.1853 0.06079 0.68792 0.0
H829 H 0.23046 0.01088 0.734 0.0
H830 H 0.20257 0.01009 0.71834 0.0
H831 H 0.24507 0.10725 0.70436 0.0
H832 H 0.11316 0.09276 0.68252 0.0
H833 H 0.15891 0.0972 0.69106 0.0
C834 C 0.05111 0.259 0.72518 0.0
C835 C 0.02851 0.26554 0.72921 0.0
C836 C 0.04393 0.23867 0.7167 0.0
C837 C 0.99212 0.20274 0.69434 0.0
H838 H 0.00518 0.13244 0.69901 0.0
C839 C 0.95564 0.07156 0.67808 0.0
C840 C 0.97644 0.07697 0.66989 0.0
C841 C 0.95687 0.09692 0.68343 0.0
C842 C 0.00147 0.152 0.6976 0.0
H843 H 0.98111 0.25699 0.72718 0.0
H844 H 0.96883 0.22176 0.71226 0.0
H845 H 0.0205 0.17332 0.71225 0.0
H846 H 0.01166 0.11271 0.65993 0.0
H847 H 0.01362 0.15738 0.66931 0.0
H848 H 0.97338 0.18115 0.67954 0.0
C849 C 0.99198 0.23227 0.71573 0.0
C850 C 0.01041 0.17546 0.70514 0.0
C851 C 0.99896 0.25219 0.72433 0.0
C852 C 0.99522 0.10792 0.66618 0.0
C853 C 0.99648 0.13346 0.67157 0.0
C854 C 0.98367 0.17941 0.68667 0.0
C855 C 0.01421 0.22489 0.71195 0.0
C856 C 0.00567 0.20096 0.70363 0.0
C857 C 0.97876 0.1281 0.68062 0.0
C858 C 0.98797 0.15369 0.68833 0.0
H859 H 0.07409 0.26892 0.72874 0.0
H860 H 0.06152 0.23341 0.71391 0.0
H861 H 0.9883 0.22225 0.693 0.0
H862 H 0.94089 0.0479 0.68107 0.0
H863 H 0.9429 0.09228 0.69036 0.0
C864 C 0.89851 0.5987 0.55029 0.0
C865 C 0.9257 0.60567 0.55584 0.0
C866 C 0.88984 0.5795 0.54149 0.0
C867 C 0.87992 0.54722 0.52096 0.0
H868 H 0.88713 0.47247 0.52242 0.0
C869 C 0.79957 0.44112 0.4959 0.0
C870 C 0.78284 0.41406 0.50198 0.0
C871 C 0.8283 0.46661 0.49943 0.0
C872 C 0.88502 0.49328 0.52183 0.0
H873 H 0.96582 0.59887 0.55625 0.0
H874 H 0.95107 0.56591 0.54073 0.0
H875 H 0.914 0.51456 0.53508 0.0
H876 H 0.78466 0.39046 0.51569 0.0
H877 H 0.83387 0.43428 0.52187 0.0
H878 H 0.84848 0.52468 0.50836 0.0
C879 C 0.93601 0.57469 0.54332 0.0
C880 C 0.90079 0.5177 0.52906 0.0
C881 C 0.9445 0.59365 0.55222 0.0
C882 C 0.79702 0.41124 0.51091 0.0
C883 C 0.82551 0.43649 0.51442 0.0
C884 C 0.86372 0.52258 0.51385 0.0
C885 C 0.90833 0.56704 0.5379 0.0
C886 C 0.8972 0.54433 0.52902 0.0
C887 C 0.84057 0.46528 0.50907 0.0
C888 C 0.86477 0.49457 0.51452 0.0
H889 H 0.88337 0.6074 0.55288 0.0
H890 H 0.86796 0.57361 0.53773 0.0
H891 H 0.87748 0.56785 0.52045 0.0
H892 H 0.78914 0.44383 0.48896 0.0
H893 H 0.83966 0.48811 0.49497 0.0
C894 C 0.46041 0.3753 0.55739 0.0
C895 C 0.43775 0.34291 0.55822 0.0
C896 C 0.4812 0.38645 0.54905 0.0
C897 C 0.49575 0.36777 0.52273 0.0
H898 H 0.58355 0.41556 0.53084 0.0
C899 C 0.59613 0.37308 0.49849 0.0
C900 C 0.62725 0.39613 0.50096 0.0
C901 C 0.57093 0.37357 0.50332 0.0
C902 C 0.55928 0.40314 0.52828 0.0
H903 H 0.41838 0.29711 0.55065 0.0
H904 H 0.45474 0.31671 0.53607 0.0
H905 H 0.543 0.40219 0.54362 0.0
H906 H 0.65669 0.44017 0.5091 0.0
H907 H 0.61289 0.44278 0.5168 0.0
H908 H 0.51203 0.36852 0.50736 0.0
C909 C 0.45629 0.3334 0.5419 0.0
C910 C 0.53593 0.39522 0.53569 0.0
C911 C 0.43567 0.32215 0.5503 0.0
C912 C 0.63281 0.42207 0.50712 0.0
C913 C 0.60764 0.42314 0.51169 0.0
C914 C 0.51919 0.37615 0.51523 0.0
C915 C 0.47964 0.36558 0.54128 0.0
C916 C 0.50395 0.37682 0.53306 0.0
C917 C 0.57653 0.39758 0.51052 0.0
C918 C 0.55136 0.39327 0.51794 0.0
H919 H 0.46263 0.39206 0.56329 0.0
H920 H 0.49884 0.41141 0.54874 0.0
H921 H 0.47121 0.35385 0.52047 0.0
H922 H 0.59133 0.35265 0.49384 0.0
H923 H 0.54747 0.35345 0.50214 0.0
C924 C 0.63137 0.07541 0.55122 0.0
C925 C 0.65621 0.08927 0.55838 0.0
C926 C 0.63093 0.09237 0.54275 0.0
C927 C 0.67805 0.16638 0.5277 0.0
H928 H 0.59639 0.1585 0.52384 0.0
C929 C 0.62977 0.25058 0.5141 0.0
C930 C 0.64801 0.26426 0.50526 0.0
C931 C 0.62743 0.22349 0.51833 0.0
C932 C 0.61931 0.16084 0.52475 0.0
H933 H 0.70105 0.13119 0.56192 0.0
H934 H 0.70003 0.16134 0.5472 0.0
H935 H 0.60158 0.12352 0.53568 0.0
H936 H 0.67631 0.2591 0.49346 0.0
H937 H 0.67231 0.21147 0.5009 0.0
H938 H 0.69595 0.205 0.51714 0.0
C939 C 0.68103 0.1371 0.54807 0.0
C940 C 0.62229 0.14057 0.53149 0.0
C941 C 0.68163 0.11988 0.55653 0.0
C942 C 0.66191 0.2489 0.50025 0.0
C943 C 0.65995 0.2219 0.50458 0.0
C944 C 0.67503 0.1867 0.52093 0.0
C945 C 0.65513 0.12385 0.54126 0.0
C946 C 0.65181 0.14347 0.53323 0.0
C947 C 0.64357 0.20959 0.51387 0.0
C948 C 0.64575 0.18466 0.51958 0.0
H949 H 0.61167 0.05162 0.55234 0.0
H950 H 0.61106 0.08107 0.53753 0.0
H951 H 0.70105 0.16905 0.52875 0.0
H952 H 0.61886 0.26198 0.51812 0.0
H953 H 0.61477 0.21482 0.52551 0.0
C954 C 0.91354 0.59225 0.61319 0.0
C955 C 0.89853 0.59978 0.6055 0.0
C956 C 0.89599 0.57229 0.62131 0.0
C957 C 0.81934 0.50646 0.62728 0.0
H958 H 0.83124 0.5345 0.65578 0.0
C959 C 0.72722 0.43033 0.65707 0.0
C960 C 0.73726 0.4276 0.66686 0.0
C961 C 0.748 0.45357 0.65032 0.0
C962 C 0.82787 0.52608 0.64789 0.0
H963 H 0.85341 0.59192 0.60021 0.0
H964 H 0.82289 0.55636 0.61413 0.0
H965 H 0.86715 0.56983 0.64251 0.0
H966 H 0.77641 0.44777 0.67754 0.0
H967 H 0.81347 0.48793 0.66556 0.0
H968 H 0.78092 0.46261 0.63245 0.0
C969 C 0.8482 0.5663 0.61397 0.0
C970 C 0.84842 0.54636 0.64031 0.0
C971 C 0.8657 0.58669 0.60603 0.0
C972 C 0.76811 0.44959 0.67002 0.0
C973 C 0.78929 0.47255 0.66314 0.0
C974 C 0.79924 0.48607 0.63482 0.0
C975 C 0.86314 0.55901 0.6217 0.0
C976 C 0.84389 0.53685 0.62993 0.0
C977 C 0.77972 0.47416 0.65307 0.0
C978 C 0.80266 0.49579 0.64521 0.0
H979 H 0.93882 0.60216 0.61301 0.0
H980 H 0.90794 0.56683 0.62718 0.0
H981 H 0.81561 0.49852 0.61932 0.0
H982 H 0.7034 0.41384 0.6545 0.0
H983 H 0.73929 0.45477 0.64281 0.0
C984 C 0.45913 0.34953 0.6121 0.0
C985 C 0.43547 0.31962 0.60852 0.0
C986 C 0.47902 0.35212 0.62019 0.0
C987 C 0.48798 0.30723 0.64151 0.0
H988 H 0.57738 0.36401 0.63704 0.0
C989 C 0.58678 0.32584 0.67051 0.0
C990 C 0.61349 0.32736 0.66597 0.0
C991 C 0.56307 0.32495 0.66433 0.0
C992 C 0.55248 0.34802 0.63841 0.0
H993 H 0.41348 0.26902 0.61099 0.0
H994 H 0.44811 0.27361 0.62495 0.0
H995 H 0.53955 0.36352 0.62497 0.0
H996 H 0.63502 0.32683 0.65143 0.0
H997 H 0.5941 0.32539 0.64077 0.0
H998 H 0.50118 0.29114 0.65483 0.0
C999 C 0.45125 0.29508 0.62157 0.0
C1000 C 0.53077 0.34802 0.63155 0.0
C1001 C 0.43155 0.29248 0.61347 0.0
C1002 C 0.61519 0.32639 0.65519 0.0
C1003 C 0.59174 0.32567 0.64906 0.0
C1004 C 0.50976 0.30738 0.64843 0.0
C1005 C 0.47554 0.32489 0.62494 0.0
C1006 C 0.49827 0.3272 0.6329 0.0
C1007 C 0.56578 0.32572 0.65353 0.0
C1008 C 0.54228 0.32729 0.64682 0.0
H1009 H 0.46275 0.37093 0.60852 0.0
H1010 H 0.49733 0.37546 0.62268 0.0
H1011 H 0.46307 0.29114 0.64283 0.0
H1012 H 0.58476 0.3265 0.6788 0.0
H1013 H 0.54325 0.32486 0.668 0.0
C1014 C 0.70437 0.1288 0.61217 0.0
C1015 C 0.67292 0.1104 0.6088 0.0
C1016 C 0.71269 0.15234 0.61972 0.0
C1017 C 0.71766 0.18966 0.63985 0.0
H1018 H 0.68407 0.24466 0.63513 0.0
C1019 C 0.71186 0.27545 0.67008 0.0
C1020 C 0.7156 0.3038 0.66625 0.0
C1021 C 0.71297 0.2535 0.66336 0.0
C1022 C 0.69396 0.22977 0.63652 0.0
H1023 H 0.62547 0.10179 0.61099 0.0
H1024 H 0.64008 0.1428 0.62401 0.0
H1025 H 0.67253 0.20221 0.62296 0.0
H1026 H 0.72711 0.33316 0.65274 0.0
H1027 H 0.7294 0.29525 0.6411 0.0
H1028 H 0.73878 0.21732 0.65355 0.0
C1029 C 0.6583 0.13915 0.62078 0.0
C1030 C 0.68704 0.20523 0.6296 0.0
C1031 C 0.64994 0.11555 0.61333 0.0
C1032 C 0.72336 0.31114 0.65584 0.0
C1033 C 0.72466 0.28943 0.64918 0.0
C1034 C 0.72438 0.2142 0.64688 0.0
C1035 C 0.68978 0.15809 0.62395 0.0
C1036 C 0.69855 0.18476 0.63122 0.0
C1037 C 0.71802 0.25979 0.65276 0.0
C1038 C 0.71255 0.23448 0.64526 0.0
H1039 H 0.72264 0.12533 0.60889 0.0
H1040 H 0.73716 0.16671 0.62201 0.0
H1041 H 0.72674 0.17411 0.64128 0.0
H1042 H 0.70598 0.26931 0.67809 0.0
H1043 H 0.70781 0.23084 0.66634 0.0
C1044 C 0.43827 0.11792 0.11928 0.0
C1045 C 0.4483 0.09598 0.1178 0.0
C1046 C 0.44776 0.13775 0.12795 0.0
C1047 C 0.4813 0.14999 0.1541 0.0
H1048 H 0.52069 0.23896 0.14756 0.0
C1049 C 0.57924 0.24877 0.17842 0.0
C1050 C 0.58717 0.2801 0.17673 0.0
C1051 C 0.55261 0.22377 0.1737 0.0
C1052 C 0.509 0.21429 0.1497 0.0
H1053 H 0.47514 0.07687 0.12458 0.0
H1054 H 0.49166 0.11157 0.13973 0.0
H1055 H 0.49318 0.19962 0.13425 0.0
H1056 H 0.57177 0.30999 0.17004 0.0
H1057 H 0.52386 0.26636 0.16248 0.0
H1058 H 0.49749 0.16468 0.16956 0.0
C1059 C 0.47638 0.11328 0.13415 0.0
C1060 C 0.49337 0.19165 0.14198 0.0
C1061 C 0.46714 0.09361 0.12542 0.0
C1062 C 0.56594 0.28592 0.17148 0.0
C1063 C 0.53885 0.26089 0.16698 0.0
C1064 C 0.49659 0.17268 0.16191 0.0
C1065 C 0.46723 0.13593 0.13541 0.0
C1066 C 0.48012 0.15932 0.14401 0.0
C1067 C 0.53323 0.22976 0.16732 0.0
C1068 C 0.51153 0.20524 0.15974 0.0
H1069 H 0.4236 0.12034 0.11363 0.0
H1070 H 0.44017 0.15483 0.12875 0.0
H1071 H 0.4709 0.12516 0.15592 0.0
H1072 H 0.59562 0.24384 0.18231 0.0
H1073 H 0.5493 0.2003 0.17421 0.0
C1074 C 0.94393 0.40327 0.12071 0.0
C1075 C 0.93861 0.38097 0.11293 0.0
C1076 C 0.92464 0.39453 0.12946 0.0
C1077 C 0.86197 0.32334 0.1436 0.0
H1078 H 0.84218 0.38444 0.15497 0.0
C1079 C 0.74771 0.29455 0.16513 0.0
C1080 C 0.74945 0.31523 0.17301 0.0
C1081 C 0.77502 0.29952 0.16012 0.0
C1082 C 0.84792 0.36725 0.15203 0.0
H1083 H 0.90865 0.33189 0.10828 0.0
H1084 H 0.8743 0.31702 0.1232 0.0
H1085 H 0.88077 0.40011 0.14124 0.0
H1086 H 0.78128 0.35542 0.18249 0.0
H1087 H 0.82911 0.36437 0.17364 0.0
H1088 H 0.82726 0.28997 0.15404 0.0
C1089 C 0.89397 0.34107 0.1228 0.0
C1090 C 0.87017 0.37624 0.14412 0.0
C1091 C 0.91358 0.34969 0.11414 0.0
C1092 C 0.77925 0.33889 0.17652 0.0
C1093 C 0.80659 0.34429 0.17136 0.0
C1094 C 0.83929 0.31422 0.15141 0.0
C1095 C 0.89912 0.36334 0.13061 0.0
C1096 C 0.87723 0.35432 0.13965 0.0
C1097 C 0.80456 0.32562 0.16277 0.0
C1098 C 0.83173 0.33598 0.15562 0.0
H1099 H 0.96321 0.42749 0.12008 0.0
H1100 H 0.92992 0.41231 0.13535 0.0
H1101 H 0.86718 0.30588 0.14059 0.0
H1102 H 0.725 0.27629 0.16222 0.0
H1103 H 0.77263 0.28473 0.15353 0.0
C1104 C 0.68501 0.58107 0.11769 0.0
C1105 C 0.71303 0.60963 0.11565 0.0
C1106 C 0.68345 0.56213 0.12591 0.0
C1107 C 0.72329 0.56053 0.14993 0.0
H1108 H 0.69473 0.47409 0.14152 0.0
C1109 C 0.70831 0.45385 0.17519 0.0
C1110 C 0.72016 0.43643 0.17027 0.0
C1111 C 0.70938 0.47957 0.17017 0.0
C1112 C 0.70266 0.49814 0.144 0.0
H1113 H 0.76063 0.64174 0.1211 0.0
H1114 H 0.75782 0.60881 0.13539 0.0
H1115 H 0.6891 0.5091 0.12976 0.0
H1116 H 0.74572 0.43432 0.15697 0.0
H1117 H 0.74793 0.47912 0.14835 0.0
H1118 H 0.73734 0.54925 0.16416 0.0
C1119 C 0.7371 0.60097 0.13064 0.0
C1120 C 0.69912 0.51809 0.13731 0.0
C1121 C 0.73879 0.61967 0.12237 0.0
C1122 C 0.73619 0.44722 0.16088 0.0
C1123 C 0.73727 0.47269 0.15592 0.0
C1124 C 0.72644 0.5403 0.15672 0.0
C1125 C 0.70973 0.57161 0.13235 0.0
C1126 C 0.70994 0.54969 0.14009 0.0
C1127 C 0.72235 0.48796 0.16023 0.0
C1128 C 0.71685 0.50916 0.15368 0.0
H1129 H 0.66472 0.57273 0.11269 0.0
H1130 H 0.66194 0.53969 0.1271 0.0
H1131 H 0.73171 0.58476 0.1523 0.0
H1132 H 0.69567 0.44584 0.1824 0.0
H1133 H 0.69786 0.49115 0.17366 0.0
C1134 C 0.49576 0.09719 0.06253 0.0
C1135 C 0.46934 0.09753 0.06654 0.0
C1136 C 0.51076 0.1138 0.05364 0.0
C1137 C 0.50062 0.15084 0.03053 0.0
H1138 H 0.59199 0.19903 0.03094 0.0
C1139 C 0.57716 0.25631 0.00427 0.0
C1140 C 0.60847 0.26463 1.00237 0.0
C1141 C 0.55707 0.22908 0.00981 0.0
C1142 C 0.56651 0.18511 0.03054 0.0
H1143 H 0.43794 0.11565 0.06418 0.0
H1144 H 0.46463 0.14522 0.04864 0.0
H1145 H 0.56351 0.16717 0.04566 0.0
H1146 H 0.64273 0.24994 0.00389 0.0
H1147 H 0.60731 0.20151 0.01326 0.0
H1148 H 0.50379 0.16951 0.01545 0.0
C1149 C 0.47339 0.13166 0.0524 0.0
C1150 C 0.55012 0.16696 0.03905 0.0
C1151 C 0.45828 0.11497 0.06135 0.0
C1152 C 0.61847 0.24364 0.00511 0.0
C1153 C 0.59833 0.21627 0.01064 0.0
C1154 C 0.51708 0.16899 0.02197 0.0
C1155 C 0.49992 0.13135 0.04847 0.0
C1156 C 0.51699 0.14988 0.03921 0.0
C1157 C 0.56806 0.20977 0.01361 0.0
C1158 C 0.55027 0.1867 0.02192 0.0
H1159 H 0.50495 0.08392 0.06622 0.0
H1160 H 0.53082 0.11265 0.05076 0.0
H1161 H 0.4751 0.13756 0.03035 0.0
H1162 H 0.56921 0.27255 1.0024 0.0
H1163 H 0.53407 0.22504 0.01195 0.0
C1164 C 0.91127 0.36293 0.05972 0.0
C1165 C 0.94224 0.38837 0.06099 0.0
C1166 C 0.89323 0.36189 0.05123 0.0
C1167 C 0.8892 0.41771 0.03343 0.0
H1168 H 0.82297 0.34182 0.0202 0.0
C1169 C 0.77935 0.40917 0.01566 0.0
C1170 C 0.76593 0.39076 0.00676 0.0
C1171 C 0.80598 0.41124 0.02012 0.0
C1172 C 0.84175 0.36329 0.02369 0.0
H1173 H 0.97959 0.43093 0.05393 0.0
H1174 H 0.9487 0.42865 0.0391 0.0
H1175 H 0.85913 0.33801 0.03214 0.0
H1176 H 0.77062 0.36134 0.9952 0.0
H1177 H 0.8174 0.36461 1.00314 0.0
H1178 H 0.87148 0.44289 0.02521 0.0
C1179 C 0.93777 0.41012 0.04478 0.0
C1180 C 0.86219 0.36105 0.03063 0.0
C1181 C 0.95553 0.41135 0.05327 0.0
C1182 C 0.7808 0.37599 1.00201 0.0
C1183 C 0.80726 0.37755 0.00661 0.0
C1184 C 0.86878 0.41991 0.02655 0.0
C1185 C 0.90602 0.3861 0.04383 0.0
C1186 C 0.88585 0.3882 0.03573 0.0
C1187 C 0.81955 0.39449 0.01589 0.0
C1188 C 0.84437 0.39268 0.02177 0.0
H1189 H 0.90045 0.34491 0.06556 0.0
H1190 H 0.86881 0.34306 0.05077 0.0
H1191 H 0.90683 0.43913 0.03728 0.0
H1192 H 0.76816 0.42058 0.0195 0.0
H1193 H 0.81466 0.4243 0.02729 0.0
C1194 C 0.72347 0.60911 0.05672 0.0
C1195 C 0.70055 0.60607 0.06387 0.0
C1196 C 0.71462 0.59046 0.04773 0.0
C1197 C 0.65152 0.51418 0.03789 0.0
H1198 H 0.68849 0.54579 0.01108 0.0
C1199 C 0.62148 0.42533 0.00576 0.0
C1200 C 0.64805 0.42874 1.0006 0.0
C1201 C 0.62302 0.45107 0.01102 0.0
C1202 C 0.67795 0.53654 0.01851 0.0
H1203 H 0.65019 0.58137 0.06697 0.0
H1204 H 0.63506 0.54898 0.05144 0.0
H1205 H 0.70269 0.58256 0.02567 0.0
H1206 H 0.69577 0.46203 0.99589 0.0
H1207 H 0.69901 0.5067 0.00525 0.0
H1208 H 0.62809 0.46818 0.03109 0.0
C1209 C 0.65985 0.5656 0.05281 0.0
C1210 C 0.68615 0.55763 0.02687 0.0
C1211 C 0.66861 0.58427 0.06172 0.0
C1212 C 0.67479 0.45901 0.99969 0.0
C1213 C 0.67666 0.48462 0.00515 0.0
C1214 C 0.64359 0.49314 0.02962 0.0
C1215 C 0.68271 0.56825 0.04575 0.0
C1216 C 0.67323 0.54658 0.03667 0.0
C1217 C 0.65154 0.48036 0.01149 0.0
C1218 C 0.6569 0.50387 0.01981 0.0
H1219 H 0.74824 0.62576 0.05808 0.0
H1220 H 0.7328 0.59283 0.04247 0.0
H1221 H 0.64151 0.50481 0.04537 0.0
H1222 H 0.60068 0.4021 0.00662 0.0
H1223 H 0.60274 0.44717 0.01547 0.0
C1224 C 0.5465 0.9591 0.88677 0.0
C1225 C 0.57112 0.95605 0.89093 0.0
C1226 C 0.53117 0.94305 0.87777 0.0
C1227 C 0.53768 0.90274 0.85462 0.0
H1228 H 0.44634 0.8576 0.85549 0.0
C1229 C 0.45845 0.79541 0.82919 0.0
C1230 C 0.42683 0.78658 0.82771 0.0
C1231 C 0.47911 0.82348 0.83436 0.0
C1232 C 0.4718 0.87072 0.85494 0.0
H1233 H 0.59922 0.93398 0.88867 0.0
H1234 H 0.57209 0.90562 0.87286 0.0
H1235 H 0.4763 0.89036 0.87002 0.0
H1236 H 0.3927 0.8015 0.82942 0.0
H1237 H 0.42916 0.85147 0.83813 0.0
H1238 H 0.53311 0.88263 0.83956 0.0
C1239 C 0.56494 0.92075 0.87662 0.0
C1240 C 0.48902 0.88933 0.86335 0.0
C1241 C 0.5803 0.93678 0.88572 0.0
C1242 C 0.41712 0.80804 0.83035 0.0
C1243 C 0.43788 0.83633 0.83552 0.0
C1244 C 0.52041 0.88427 0.84614 0.0
C1245 C 0.53999 0.92351 0.87262 0.0
C1246 C 0.52212 0.90512 0.86337 0.0
C1247 C 0.4685 0.84332 0.83818 0.0
C1248 C 0.48719 0.86747 0.84627 0.0
H1249 H 0.53874 0.97378 0.8905 0.0
H1250 H 0.51232 0.94598 0.87482 0.0
H1251 H 0.56318 0.91504 0.85436 0.0
H1252 H 0.46632 0.779 0.82731 0.0
H1253 H 0.50234 0.82781 0.83625 0.0
C1254 C 0.08204 0.61885 0.88596 0.0
C1255 C 0.08393 0.64524 0.89104 0.0
C1256 C 0.10102 0.62277 0.87743 0.0
C1257 C 0.17684 0.68222 0.86641 0.0
H1258 H 0.15246 0.62205 0.84376 0.0
C1259 C 0.2676 0.69943 0.83629 0.0
C1260 C 0.27038 0.6729 0.83422 0.0
C1261 C 0.24064 0.69602 0.84101 0.0
C1262 C 0.15958 0.63899 0.85005 0.0
H1263 H 0.10603 0.69637 0.89069 0.0
H1264 H 0.13881 0.70315 0.87571 0.0
H1265 H 0.11277 0.61693 0.85625 0.0
H1266 H 0.24667 0.62183 0.83475 0.0
H1267 H 0.19931 0.61567 0.84332 0.0
H1268 H 0.22359 0.70385 0.86045 0.0
C1269 C 0.12309 0.67943 0.87849 0.0
C1270 C 0.13689 0.63608 0.8572 0.0
C1271 C 0.10419 0.67554 0.88706 0.0
C1272 C 0.24482 0.64257 0.83623 0.0
C1273 C 0.21781 0.63913 0.84113 0.0
C1274 C 0.19937 0.68515 0.85928 0.0
C1275 C 0.1223 0.65315 0.87372 0.0
C1276 C 0.14537 0.65752 0.86553 0.0
C1277 C 0.21612 0.66601 0.84398 0.0
C1278 C 0.19113 0.66348 0.85105 0.0
H1279 H 0.06666 0.59511 0.88877 0.0
H1280 H 0.09998 0.60202 0.87404 0.0
H1281 H 0.18444 0.6987 0.87284 0.0
H1282 H 0.28703 0.72305 0.83472 0.0
H1283 H 0.23973 0.71712 0.84283 0.0
C1284 C 0.31776 0.42654 0.87944 0.0
C1285 C 0.33689 0.43573 0.88826 0.0
C1286 C 0.32665 0.44619 0.87086 0.0
C1287 C 0.39366 0.51972 0.85931 0.0
H1288 H 0.32557 0.52434 0.84633 0.0
C1289 C 0.4057 0.62958 0.83958 0.0
C1290 C 0.38519 0.62552 0.83149 0.0
C1291 C 0.40495 0.60344 0.84402 0.0
C1292 C 0.34487 0.52292 0.84968 0.0
H1293 H 0.38091 0.47246 0.89487 0.0
H1294 H 0.39592 0.50737 0.88008 0.0
H1295 H 0.31354 0.48464 0.85928 0.0
H1296 H 0.34939 0.59142 0.8212 0.0
H1297 H 0.34798 0.54542 0.82895 0.0
H1298 H 0.42499 0.55954 0.85004 0.0
C1299 C 0.37435 0.48459 0.87964 0.0
C1300 C 0.33798 0.50006 0.85716 0.0
C1301 C 0.36566 0.46464 0.88818 0.0
C1302 C 0.36588 0.59516 0.82729 0.0
C1303 C 0.36478 0.56886 0.83183 0.0
C1304 C 0.40057 0.54288 0.85189 0.0
C1305 C 0.35469 0.47589 0.87091 0.0
C1306 C 0.36226 0.49843 0.86223 0.0
C1307 C 0.38319 0.57263 0.84058 0.0
C1308 C 0.37625 0.54509 0.84712 0.0
H1309 H 0.29566 0.40417 0.87918 0.0
H1310 H 0.31124 0.43818 0.86422 0.0
H1311 H 0.413 0.51888 0.86287 0.0
H1312 H 0.42036 0.65275 0.84306 0.0
H1313 H 0.4193 0.60723 0.85077 0.0
C1314 C 0.56457 0.91999 0.94257 0.0
C1315 C 0.57183 0.95161 0.94253 0.0
C1316 C 0.54837 0.90039 0.9509 0.0
C1317 C 0.5321 0.89936 0.97827 0.0
H1318 H 0.45386 0.82125 0.97242 0.0
C1319 C 0.46712 0.79061 0.00519 0.0
C1320 C 0.43418 0.77629 0.00591 0.0
C1321 C 0.48443 0.81646 0.99873 0.0
C1322 C 0.47553 0.84312 0.97417 0.0
H1323 H 0.56903 0.98786 0.95135 0.0
H1324 H 0.54168 0.95384 0.96602 0.0
H1325 H 0.48431 0.85632 0.95829 0.0
H1326 H 0.39377 0.77902 1.00095 0.0
H1327 H 0.42404 0.8238 0.98943 0.0
H1328 H 0.52382 0.88546 0.99413 0.0
C1329 C 0.54806 0.94415 0.95954 0.0
C1330 C 0.49307 0.86297 0.96609 0.0
C1331 C 0.56357 0.96352 0.95113 0.0
C1332 C 0.41915 0.7897 1.0006 0.0
C1333 C 0.43639 0.81512 0.99394 0.0
C1334 C 0.51489 0.8791 0.98634 0.0
C1335 C 0.53986 0.91228 0.95943 0.0
C1336 C 0.52153 0.89125 0.96805 0.0
C1337 C 0.46904 0.82804 0.99271 0.0
C1338 C 0.4864 0.85082 0.98436 0.0
H1339 H 0.57056 0.91014 0.93605 0.0
H1340 H 0.54243 0.8759 0.95067 0.0
H1341 H 0.554 0.92104 0.97997 0.0
H1342 H 0.47929 0.78073 0.00919 0.0
H1343 H 0.50955 0.82594 0.9979 0.0
C1344 C 0.10467 0.61969 0.94349 0.0
C1345 C 0.10264 0.64562 0.94 0.0
C1346 C 0.12782 0.62393 0.95052 0.0
C1347 C 0.20544 0.68465 0.96103 0.0
H1348 H 0.18674 0.61942 0.98105 0.0
C1349 C 0.30418 0.68091 0.98336 0.0
C1350 C 0.29875 0.67112 0.99366 0.0
C1351 C 0.27973 0.67837 0.97725 0.0
C1352 C 0.19238 0.6381 0.9756 0.0
H1353 H 0.12342 0.69646 0.94138 0.0
H1354 H 0.16359 0.70383 0.95386 0.0
H1355 H 0.14491 0.61511 0.9701 0.0
H1356 H 0.26321 0.65082 0.00562 0.0
H1357 H 0.22067 0.64693 0.99504 0.0
H1358 H 0.25274 0.70807 0.96673 0.0
C1359 C 0.14748 0.6802 0.95097 0.0
C1360 C 0.1684 0.63541 0.9692 0.0
C1361 C 0.12433 0.67597 0.94385 0.0
C1362 C 0.26817 0.65842 0.99769 0.0
C1363 C 0.24373 0.65609 0.9916 0.0
C1364 C 0.22939 0.68746 0.96748 0.0
C1365 C 0.14958 0.6542 0.95438 0.0
C1366 C 0.17468 0.65839 0.96171 0.0
C1367 C 0.24921 0.66621 0.9813 0.0
C1368 C 0.22331 0.66399 0.97477 0.0
H1369 H 0.0886 0.59594 0.94067 0.0
H1370 H 0.12901 0.6034 0.95276 0.0
H1371 H 0.21131 0.70272 0.95532 0.0
H1372 H 0.32741 0.69069 0.97999 0.0
H1373 H 0.28479 0.68576 0.96931 0.0
C1374 C 0.29165 0.4477 0.94001 0.0
C1375 C 0.31587 0.44075 0.93881 0.0
C1376 C 0.29017 0.46357 0.94876 0.0
C1377 C 0.31435 0.48022 0.97581 0.0
H1378 H 0.29865 0.54939 0.97269 0.0
C1379 C 0.34187 0.57447 0.00691 0.0
C1380 C 0.32638 0.59178 0.00673 0.0
C1381 C 0.33361 0.54958 0.99998 0.0
C1382 C 0.30221 0.52961 0.97377 0.0
H1383 H 0.35778 0.4454 0.94584 0.0
H1384 H 0.35517 0.47336 0.96126 0.0
H1385 H 0.30104 0.52129 0.95753 0.0
H1386 H 0.28771 0.59441 1.00003 0.0
H1387 H 0.27239 0.55004 0.98809 0.0
H1388 H 0.31569 0.48865 0.99205 0.0
C1389 C 0.33726 0.46624 0.95538 0.0
C1390 C 0.30391 0.5137 0.96504 0.0
C1391 C 0.33895 0.45056 0.94652 0.0
C1392 C 0.29995 0.58135 1.00037 0.0
C1393 C 0.29158 0.55629 0.9934 0.0
C1394 C 0.31238 0.49598 0.98457 0.0
C1395 C 0.31272 0.47275 0.95659 0.0
C1396 C 0.31044 0.48914 0.96594 0.0
C1397 C 0.30957 0.54141 0.99272 0.0
C1398 C 0.3068 0.52125 0.98365 0.0
H1399 H 0.27351 0.44059 0.93421 0.0
H1400 H 0.27089 0.46805 0.94949 0.0
H1401 H 0.31885 0.461 0.97675 0.0
H1402 H 0.36234 0.58208 0.01177 0.0
H1403 H 0.34807 0.53884 0.99972 0.0
C1404 C 0.11897 0.41662 0.45957 0.0
C1405 C 0.10814 0.42542 0.45097 0.0
C1406 C 0.12872 0.4355 0.46847 0.0
C1407 C 0.13058 0.50575 0.48107 0.0
H1408 H 0.20552 0.51521 0.49402 0.0
C1409 C 0.23098 0.61917 0.49881 0.0
C1410 C 0.24908 0.61698 0.50669 0.0
C1411 C 0.2039 0.59214 0.49522 0.0
C1412 C 0.18411 0.51233 0.4907 0.0
H1413 H 0.09855 0.46074 0.44505 0.0
H1414 H 0.11699 0.49446 0.46031 0.0
H1415 H 0.17876 0.47482 0.48091 0.0
H1416 H 0.25121 0.58588 0.51789 0.0
H1417 H 0.20393 0.53829 0.51152 0.0
H1418 H 0.13783 0.54527 0.49041 0.0
C1419 C 0.11705 0.47247 0.46038 0.0
C1420 C 0.16867 0.48908 0.48312 0.0
C1421 C 0.10675 0.45326 0.45155 0.0
C1422 C 0.23755 0.58815 0.51182 0.0
C1423 C 0.21069 0.5609 0.50811 0.0
C1424 C 0.14637 0.52939 0.48856 0.0
C1425 C 0.1285 0.46404 0.46894 0.0
C1426 C 0.14218 0.48599 0.47798 0.0
C1427 C 0.19479 0.56239 0.49937 0.0
C1428 C 0.17378 0.53343 0.49326 0.0
H1429 H 0.11983 0.39502 0.45944 0.0
H1430 H 0.13664 0.42773 0.47495 0.0
H1431 H 0.10981 0.50364 0.47749 0.0
H1432 H 0.23948 0.64119 0.49473 0.0
H1433 H 0.19222 0.59411 0.48848 0.0
C1434 C 0.59232 0.72131 0.45347 0.0
C1435 C 0.60164 0.70131 0.44891 0.0
C1436 C 0.57176 0.71116 0.46189 0.0
C1437 C 0.5374 0.69055 0.48221 0.0
H1438 H 0.46904 0.60322 0.48211 0.0
C1439 C 0.43297 0.65377 0.50929 0.0
C1440 C 0.40406 0.63782 0.50403 0.0
C1441 C 0.45989 0.65533 0.505 0.0
C1442 C 0.48798 0.6277 0.48229 0.0
H1443 H 0.5976 0.65533 0.44991 0.0
H1444 H 0.56266 0.63804 0.46477 0.0
H1445 H 0.51065 0.62051 0.46938 0.0
H1446 H 0.37967 0.60746 0.49096 0.0
H1447 H 0.42598 0.61025 0.48349 0.0
H1448 H 0.51338 0.69834 0.49457 0.0
C1449 C 0.57039 0.66124 0.46167 0.0
C1450 C 0.51219 0.6376 0.47503 0.0
C1451 C 0.59058 0.67122 0.45315 0.0
C1452 C 0.40172 0.62018 0.49515 0.0
C1453 C 0.42846 0.62175 0.49086 0.0
C1454 C 0.51296 0.68075 0.48937 0.0
C1455 C 0.56032 0.68089 0.4661 0.0
C1456 C 0.53677 0.66942 0.47467 0.0
C1457 C 0.45828 0.6409 0.49539 0.0
C1458 C 0.48733 0.64941 0.48931 0.0
H1459 H 0.60025 0.74456 0.45037 0.0
H1460 H 0.56415 0.72682 0.4649 0.0
H1461 H 0.55632 0.71503 0.48239 0.0
H1462 H 0.4355 0.66755 0.51617 0.0
H1463 H 0.4823 0.66957 0.50886 0.0
C1464 C 0.35635 0.91513 0.44751 0.0
C1465 C 0.38449 0.94355 0.44544 0.0
C1466 C 0.35465 0.89622 0.45577 0.0
C1467 C 0.39371 0.89476 0.47995 0.0
H1468 H 0.3649 0.80802 0.47185 0.0
C1469 C 0.37515 0.7873 0.50561 0.0
C1470 C 0.38735 0.76982 0.50096 0.0
C1471 C 0.3771 0.81331 0.5005 0.0
C1472 C 0.37289 0.83217 0.47424 0.0
H1473 H 0.43218 0.97542 0.45086 0.0
H1474 H 0.42907 0.94257 0.46523 0.0
H1475 H 0.36014 0.84302 0.45983 0.0
H1476 H 0.41447 0.76796 0.48809 0.0
H1477 H 0.41816 0.81324 0.47931 0.0
H1478 H 0.40682 0.88355 0.49439 0.0
C1479 C 0.4084 0.9348 0.46046 0.0
C1480 C 0.36987 0.85211 0.46739 0.0
C1481 C 0.41025 0.95345 0.45215 0.0
C1482 C 0.40467 0.7809 0.4918 0.0
C1483 C 0.40659 0.80666 0.48674 0.0
C1484 C 0.3963 0.87453 0.4869 0.0
C1485 C 0.38086 0.90561 0.46222 0.0
C1486 C 0.38076 0.88379 0.47008 0.0
C1487 C 0.39132 0.82195 0.49074 0.0
C1488 C 0.38658 0.84327 0.48398 0.0
H1489 H 0.33606 0.9069 0.44252 0.0
H1490 H 0.33302 0.8739 0.45699 0.0
H1491 H 0.40219 0.91907 0.48224 0.0
H1492 H 0.36151 0.77909 0.51264 0.0
H1493 H 0.36527 0.82489 0.50375 0.0
C1494 C 0.10611 0.42447 0.39183 0.0
C1495 C 0.12484 0.42227 0.39948 0.0
C1496 C 0.11966 0.44034 0.38265 0.0
C1497 C 0.19565 0.47779 0.36759 0.0
H1498 H 0.16039 0.52476 0.35558 0.0
C1499 C 0.26532 0.57299 0.33708 0.0
C1500 C 0.26611 0.60152 0.33911 0.0
C1501 C 0.24276 0.54499 0.34191 0.0
C1502 C 0.17069 0.5119 0.35884 0.0
H1503 H 0.17236 0.43501 0.40361 0.0
H1504 H 0.19643 0.46456 0.38801 0.0
H1505 H 0.13318 0.48925 0.36963 0.0
H1506 H 0.24239 0.62263 0.34703 0.0
H1507 H 0.20419 0.5749 0.35552 0.0
H1508 H 0.23472 0.50292 0.35741 0.0
C1509 C 0.17107 0.45292 0.38877 0.0
C1510 C 0.15472 0.49098 0.36685 0.0
C1511 C 0.15737 0.4363 0.39781 0.0
C1512 C 0.24261 0.60107 0.34538 0.0
C1513 C 0.22033 0.5734 0.35019 0.0
C1514 C 0.21203 0.49934 0.35973 0.0
C1515 C 0.15244 0.45518 0.38102 0.0
C1516 C 0.16742 0.47431 0.37158 0.0
C1517 C 0.22063 0.54514 0.34881 0.0
C1518 C 0.20031 0.51754 0.3555 0.0
H1519 H 0.08084 0.41334 0.39285 0.0
H1520 H 0.10427 0.44077 0.37684 0.0
H1521 H 0.20576 0.46464 0.37074 0.0
H1522 H 0.28316 0.57266 0.33228 0.0
H1523 H 0.24339 0.52355 0.34052 0.0
C1524 C 0.61636 0.74643 0.39179 0.0
C1525 C 0.6085 0.71964 0.39775 0.0
C1526 C 0.59897 0.74395 0.38302 0.0
C1527 C 0.5398 0.68624 0.36443 0.0
H1528 H 0.51849 0.75152 0.36123 0.0
C1529 C 0.4284 0.66675 0.34429 0.0
C1530 C 0.42852 0.6918 0.33917 0.0
C1531 C 0.45568 0.67096 0.34894 0.0
C1532 C 0.52478 0.73345 0.36184 0.0
H1533 H 0.57653 0.66903 0.39897 0.0
H1534 H 0.54561 0.6648 0.38378 0.0
H1535 H 0.55516 0.75699 0.37463 0.0
H1536 H 0.45758 0.74035 0.3343 0.0
H1537 H 0.50575 0.748 0.34254 0.0
H1538 H 0.5082 0.6621 0.35188 0.0
C1539 C 0.56562 0.68769 0.38581 0.0
C1540 C 0.54578 0.73652 0.36956 0.0
C1541 C 0.58321 0.69014 0.39457 0.0
C1542 C 0.457 0.72062 0.33814 0.0
C1543 C 0.4844 0.72503 0.34294 0.0
C1544 C 0.51868 0.68313 0.35672 0.0
C1545 C 0.57308 0.71467 0.37999 0.0
C1546 C 0.55303 0.71262 0.37112 0.0
C1547 C 0.48371 0.7005 0.34868 0.0
C1548 C 0.51034 0.70635 0.35549 0.0
H1549 H 0.636 0.76949 0.39389 0.0
H1550 H 0.60581 0.76511 0.37863 0.0
H1551 H 0.54534 0.6677 0.36526 0.0
H1552 H 0.40668 0.64426 0.34517 0.0
H1553 H 0.45415 0.65165 0.35335 0.0
C1554 C 0.39182 0.94288 0.38696 0.0
C1555 C 0.36859 0.941 0.39373 0.0
C1556 C 0.38337 0.92451 0.37796 0.0
C1557 C 0.31969 0.85024 0.36712 0.0
H1558 H 0.36987 0.88108 0.34227 0.0
C1559 C 0.30973 0.76258 0.33601 0.0
C1560 C 0.33936 0.76587 0.33433 0.0
C1561 C 0.30761 0.7876 0.34044 0.0
C1562 C 0.35541 0.87217 0.34911 0.0
H1563 H 0.31809 0.91871 0.39616 0.0
H1564 H 0.30344 0.88656 0.38047 0.0
H1565 H 0.37738 0.91815 0.35617 0.0
H1566 H 0.38975 0.79817 0.33493 0.0
H1567 H 0.38625 0.84183 0.34238 0.0
H1568 H 0.29889 0.80407 0.36031 0.0
C1569 C 0.32821 0.90216 0.38218 0.0
C1570 C 0.35983 0.89336 0.35709 0.0
C1571 C 0.33666 0.92063 0.39117 0.0
C1572 C 0.36665 0.79528 0.33611 0.0
C1573 C 0.36457 0.82031 0.34036 0.0
C1574 C 0.31529 0.82905 0.35914 0.0
C1575 C 0.35148 0.90375 0.3755 0.0
C1576 C 0.3429 0.88244 0.36635 0.0
C1577 C 0.33512 0.81623 0.3431 0.0
C1578 C 0.33401 0.83958 0.35021 0.0
H1579 H 0.41664 0.95831 0.38863 0.0
H1580 H 0.40192 0.92592 0.37308 0.0
H1581 H 0.30637 0.84099 0.37416 0.0
H1582 H 0.28841 0.73991 0.33481 0.0
H1583 H 0.28458 0.78388 0.34238 0.0
C1584 C 0.31672 0.07306 0.09959 0.0
C1585 C 0.32401 0.04939 0.10137 0.0
C1586 C 0.29086 0.07203 0.1045 0.0
C1587 C 0.23704 0.03687 0.12679 0.0
H1588 H 0.18238 0.05572 0.11098 0.0
C1589 C 0.11447 0.01448 0.14096 0.0
C1590 C 0.10686 0.03717 0.13799 0.0
C1591 C 0.14241 0.01655 0.13739 0.0
C1592 C 0.19761 0.05075 0.11555 0.0
H1593 H 0.3099 0.00605 0.10969 0.0
H1594 H 0.26487 0.00415 0.11811 0.0
H1595 H 0.22829 0.0588 0.10279 0.0
H1596 H 0.1235 0.08116 0.12981 0.0
H1597 H 0.17207 0.08516 0.12389 0.0
H1598 H 0.20604 0.02869 0.13955 0.0
C1599 C 0.27926 0.02373 0.11305 0.0
C1600 C 0.22396 0.05256 0.11085 0.0
C1601 C 0.30498 0.02473 0.10815 0.0
C1602 C 0.12848 0.06296 0.13205 0.0
C1603 C 0.15625 0.06517 0.1286 0.0
C1604 C 0.21059 0.03508 0.13152 0.0
C1605 C 0.27187 0.04734 0.1113 0.0
C1606 C 0.24407 0.04577 0.11641 0.0
C1607 C 0.16305 0.04145 0.13089 0.0
C1608 C 0.19072 0.04225 0.12596 0.0
H1609 H 0.33103 0.09243 0.09445 0.0
H1610 H 0.28593 0.09075 0.10306 0.0
H1611 H 0.25224 0.03173 0.13131 0.0
H1612 H 0.09817 0.99438 0.14554 0.0
H1613 H 0.1471 0.99795 0.13931 0.0
C1614 C 0.96661 0.26943 0.09889 0.0
C1615 C 0.98953 0.30157 0.10013 0.0
C1616 C 0.96903 0.24624 0.10432 0.0
C1617 C 0.02705 0.23268 0.11782 0.0
H1618 H 0.95263 0.161 0.12943 0.0
C1619 C 0.0332 0.1348 0.14061 0.0
C1620 C 0.01079 0.10392 0.13743 0.0
C1621 C 0.03052 0.16059 0.13745 0.0
C1622 C 0.97365 0.18086 0.12622 0.0
H1623 H 0.03287 0.33455 0.10809 0.0
H1624 H 0.03691 0.29438 0.11751 0.0
H1625 H 0.94795 0.20205 0.12066 0.0
H1626 H 0.96722 0.07575 0.12891 0.0
H1627 H 0.96267 0.12014 0.12347 0.0
H1628 H 0.05264 0.21115 0.12321 0.0
C1629 C 0.01727 0.28692 0.11229 0.0
C1630 C 0.97092 0.20429 0.12114 0.0
C1631 C 0.01482 0.31 0.10691 0.0
C1632 C 0.98507 0.09926 0.13144 0.0
C1633 C 0.98226 0.12476 0.12839 0.0
C1634 C 0.02977 0.2092 0.12288 0.0
C1635 C 0.99448 0.25475 0.11106 0.0
C1636 C 0.9975 0.23029 0.11676 0.0
C1637 C 0.00514 0.1558 0.13119 0.0
C1638 C 0.00302 0.18273 0.12699 0.0
H1639 H 0.94686 0.26219 0.09374 0.0
H1640 H 0.95123 0.22161 0.10312 0.0
H1641 H 0.04798 0.25224 0.11445 0.0
H1642 H 0.05326 0.1391 0.14522 0.0
H1643 H 0.04843 0.18427 0.1398 0.0
C1644 C 0.73082 0.73338 0.11332 0.0
C1645 C 0.7408 0.71982 0.10571 0.0
C1646 C 0.7528 0.7581 0.11956 0.0
C1647 C 0.83388 0.79488 0.12926 0.0
H1648 H 0.83082 0.87212 0.1312 0.0
C1649 C 0.9431 0.91502 0.13615 0.0
C1650 C 0.94153 0.93902 0.14161 0.0
C1651 C 0.91611 0.88579 0.13441 0.0
C1652 C 0.83161 0.85049 0.13098 0.0
H1653 H 0.78149 0.7212 0.09874 0.0
H1654 H 0.81993 0.76424 0.10972 0.0
H1655 H 0.788 0.82544 0.12269 0.0
H1656 H 0.91066 0.95076 0.14996 0.0
H1657 H 0.86279 0.8991 0.14682 0.0
H1658 H 0.87772 0.81996 0.13732 0.0
C1659 C 0.79508 0.75568 0.11086 0.0
C1660 C 0.80717 0.82382 0.12605 0.0
C1661 C 0.77314 0.73123 0.10452 0.0
C1662 C 0.91249 0.93265 0.14572 0.0
C1663 C 0.88515 0.90322 0.14387 0.0
C1664 C 0.85811 0.82139 0.13425 0.0
C1665 C 0.78513 0.76942 0.11842 0.0
C1666 C 0.80866 0.79614 0.12484 0.0
C1667 C 0.88668 0.87968 0.13804 0.0
C1668 C 0.85787 0.84988 0.13482 0.0
H1669 H 0.70601 0.72504 0.11441 0.0
H1670 H 0.74449 0.7682 0.12535 0.0
H1671 H 0.83525 0.77361 0.12862 0.0
H1672 H 0.9652 0.9191 0.13296 0.0
H1673 H 0.91818 0.86849 0.12976 0.0
C1674 C 0.06574 0.29958 0.41247 0.0
C1675 C 0.04779 0.31267 0.40919 0.0
C1676 C 0.06977 0.27883 0.40607 0.0
C1677 C 0.03471 0.22508 0.3836 0.0
H1678 H 0.1135 0.22545 0.38426 0.0
C1679 C 0.04885 0.13002 0.36186 0.0
C1680 C 0.05786 0.11382 0.36857 0.0
C1681 C 0.05285 0.15945 0.36478 0.0
C1682 C 0.09142 0.22519 0.38394 0.0
H1683 H 0.02016 0.31446 0.39658 0.0
H1684 H 0.02744 0.2785 0.38536 0.0
H1685 H 0.10898 0.26634 0.39359 0.0
H1686 H 0.08043 0.1166 0.3831 0.0
H1687 H 0.08813 0.16796 0.38806 0.0
H1688 H 0.01701 0.18349 0.37412 0.0
C1689 C 0.03805 0.28388 0.39294 0.0
C1690 C 0.08873 0.24846 0.38935 0.0
C1691 C 0.03392 0.30455 0.39937 0.0
C1692 C 0.07331 0.12864 0.37779 0.0
C1693 C 0.07778 0.15812 0.38061 0.0
C1694 C 0.03749 0.20191 0.37814 0.0
C1695 C 0.0561 0.27079 0.3962 0.0
C1696 C 0.06005 0.24818 0.3895 0.0
C1697 C 0.06646 0.17329 0.37435 0.0
C1698 C 0.0656 0.20119 0.37848 0.0
H1699 H 0.07672 0.30536 0.42 0.0
H1700 H 0.08329 0.26876 0.40894 0.0
H1701 H 0.01219 0.22392 0.3836 0.0
H1702 H 0.03663 0.11895 0.35475 0.0
H1703 H 0.04411 0.17073 0.35976 0.0
C1704 C 0.73511 0.78304 0.4112 0.0
C1705 C 0.71643 0.75207 0.40737 0.0
C1706 C 0.75741 0.80708 0.40489 0.0
C1707 C 0.8018 0.81891 0.38031 0.0
H1708 H 0.82632 0.90644 0.38525 0.0
C1709 C 0.89854 0.95578 0.3661 0.0
C1710 C 0.92439 0.95151 0.36489 0.0
C1711 C 0.86917 0.9304 0.36916 0.0
C1712 C 0.81945 0.88213 0.38357 0.0
H1713 H 0.70557 0.72221 0.39381 0.0
H1714 H 0.74333 0.7641 0.38271 0.0
H1715 H 0.78247 0.86489 0.39475 0.0
H1716 H 0.94012 0.91783 0.3657 0.0
H1717 H 0.88981 0.8741 0.37126 0.0
H1718 H 0.83792 0.83595 0.36888 0.0
C1719 C 0.74183 0.76987 0.39067 0.0
C1720 C 0.79456 0.85819 0.38921 0.0
C1721 C 0.71997 0.74577 0.39704 0.0
C1722 C 0.92021 0.92139 0.36633 0.0
C1723 C 0.8912 0.89627 0.36953 0.0
C1724 C 0.82626 0.84276 0.37455 0.0
C1725 C 0.76119 0.80087 0.39452 0.0
C1726 C 0.78586 0.82625 0.38786 0.0
C1727 C 0.86541 0.90054 0.37131 0.0
C1728 C 0.83613 0.87484 0.37629 0.0
H1729 H 0.73288 0.78861 0.41914 0.0
H1730 H 0.77211 0.83038 0.40824 0.0
H1731 H 0.7962 0.79478 0.37904 0.0
H1732 H 0.90145 0.97902 0.36519 0.0
H1733 H 0.84979 0.93456 0.37024 0.0
C1734 C 0.25242 0.95525 0.41221 0.0
C1735 C 0.28302 0.97773 0.40899 0.0
C1736 C 0.22605 0.95191 0.40702 0.0
C1737 C 0.20017 0.96748 0.38227 0.0
H1738 H 0.13413 0.96725 0.3986 0.0
C1739 C 0.10521 0.9907 0.36519 0.0
C1740 C 0.07637 0.97842 0.37041 0.0
C1741 C 0.12879 0.9855 0.36896 0.0
C1742 C 0.15188 0.96651 0.39387 0.0
H1743 H 0.30991 0.01394 0.39769 0.0
H1744 H 0.26398 0.00796 0.38864 0.0
H1745 H 0.17812 0.96799 0.40714 0.0
H1746 H 0.0482 0.94853 0.38294 0.0
H1747 H 0.08825 0.93781 0.38911 0.0
H1748 H 0.1739 0.96593 0.36897 0.0
C1749 C 0.26036 0.9929 0.39515 0.0
C1750 C 0.17726 0.96711 0.39881 0.0
C1751 C 0.28667 0.99651 0.40041 0.0
C1752 C 0.07041 0.95856 0.37885 0.0
C1753 C 0.09359 0.95279 0.38246 0.0
C1754 C 0.17453 0.96649 0.3773 0.0
C1755 C 0.22975 0.97066 0.39842 0.0
C1756 C 0.20187 0.96796 0.39308 0.0
C1757 C 0.12368 0.96748 0.37791 0.0
C1758 C 0.15011 0.96628 0.38304 0.0
H1759 H 0.24884 0.94033 0.41876 0.0
H1760 H 0.20274 0.93445 0.40968 0.0
H1761 H 0.21869 0.96782 0.37765 0.0
H1762 H 0.11042 0.00626 0.3587 0.0
H1763 H 0.15159 0.99728 0.36522 0.0
C1764 C 0.70973 0.96052 0.90749 0.0
C1765 C 0.70045 0.98097 0.90349 0.0
C1766 C 0.73394 0.95778 0.90281 0.0
C1767 C 0.80104 0.99948 0.88422 0.0
H1768 H 0.80324 0.92194 0.88606 0.0
C1769 C 0.90053 0.98638 0.8653 0.0
C1770 C 0.91631 0.97776 0.87234 0.0
C1771 C 0.87123 0.98293 0.86785 0.0
C1772 C 0.80287 0.94371 0.88546 0.0
H1773 H 0.70857 0.01374 0.89121 0.0
H1774 H 0.7496 0.00802 0.8828 0.0
H1775 H 0.75796 0.92374 0.89288 0.0
H1776 H 0.91292 0.95695 0.88725 0.0
H1777 H 0.86153 0.95005 0.89153 0.0
H1778 H 0.84586 0.01919 0.87668 0.0
C1779 C 0.73918 0.99488 0.88977 0.0
C1780 C 0.77701 0.94491 0.88946 0.0
C1781 C 0.7154 0.99803 0.89456 0.0
C1782 C 0.9013 0.96375 0.88166 0.0
C1783 C 0.87183 0.95975 0.88411 0.0
C1784 C 0.82658 0.99808 0.88008 0.0
C1785 C 0.74919 0.97502 0.89388 0.0
C1786 C 0.77588 0.97299 0.88906 0.0
C1787 C 0.85691 0.97022 0.87739 0.0
C1788 C 0.82804 0.97035 0.88078 0.0
H1789 H 0.69879 0.94717 0.9144 0.0
H1790 H 0.74114 0.94266 0.90637 0.0
H1791 H 0.80164 0.02179 0.88391 0.0
H1792 H 0.91166 0.9976 0.85812 0.0
H1793 H 0.86019 0.99104 0.86248 0.0
C1794 C 0.03739 0.74122 0.8982 0.0
C1795 C 0.05797 0.74478 0.90624 0.0
C1796 C 0.03976 0.76773 0.8934 0.0
C1797 C 0.06518 0.85078 0.89815 0.0
H1798 H 0.06158 0.85612 0.86848 0.0
C1799 C 0.06997 0.95933 0.88037 0.0
C1800 C 0.05012 0.95431 0.87197 0.0
C1801 C 0.07578 0.93568 0.88352 0.0
C1802 C 0.06227 0.85494 0.87678 0.0
H1803 H 0.09731 0.77906 0.9155 0.0
H1804 H 0.10096 0.82544 0.90727 0.0
H1805 H 0.06144 0.81082 0.87612 0.0
H1806 H 0.02206 0.92119 0.85993 0.0
H1807 H 0.03107 0.87922 0.86564 0.0
H1808 H 0.06446 0.89376 0.89897 0.0
C1809 C 0.08311 0.80206 0.90465 0.0
C1810 C 0.06233 0.82898 0.88115 0.0
C1811 C 0.08107 0.77551 0.90935 0.0
C1812 C 0.03766 0.92578 0.86639 0.0
C1813 C 0.04288 0.9017 0.86969 0.0
C1814 C 0.06464 0.87642 0.89381 0.0
C1815 C 0.06245 0.79846 0.89663 0.0
C1816 C 0.06371 0.82658 0.89189 0.0
C1817 C 0.06116 0.90592 0.87854 0.0
C1818 C 0.06315 0.87898 0.88305 0.0
H1819 H 0.01941 0.71788 0.89559 0.0
H1820 H 0.02332 0.76416 0.88731 0.0
H1821 H 0.06575 0.84939 0.90645 0.0
H1822 H 0.08015 0.98126 0.88475 0.0
H1823 H 0.09097 0.94049 0.89011 0.0
C1824 C 0.29729 0.30915 0.89389 0.0
C1825 C 0.29004 0.32042 0.90288 0.0
C1826 C 0.2732 0.28367 0.88828 0.0
C1827 C 0.19359 0.21523 0.89202 0.0
H1828 H 0.17966 0.21771 0.86277 0.0
C1829 C 0.07486 0.12812 0.87548 0.0
C1830 C 0.0747 0.10939 0.86723 0.0
C1831 C 0.10223 0.15636 0.87804 0.0
C1832 C 0.18348 0.21665 0.87092 0.0
H1833 H 0.25198 0.31389 0.91297 0.0
H1834 H 0.2107 0.26998 0.90335 0.0
H1835 H 0.22747 0.26108 0.87094 0.0
H1836 H 0.10204 0.10692 0.85453 0.0
H1837 H 0.15043 0.15663 0.85908 0.0
H1838 H 0.14983 0.17145 0.89217 0.0
C1839 C 0.23474 0.28047 0.90062 0.0
C1840 C 0.21083 0.24132 0.87558 0.0
C1841 C 0.25849 0.3058 0.90612 0.0
C1842 C 0.10153 0.12106 0.86091 0.0
C1843 C 0.12924 0.14939 0.86354 0.0
C1844 C 0.16649 0.19087 0.88742 0.0
C1845 C 0.24171 0.26893 0.89168 0.0
C1846 C 0.21565 0.24119 0.88624 0.0
C1847 C 0.13023 0.16633 0.87248 0.0
C1848 C 0.16059 0.19167 0.87689 0.0
H1849 H 0.32138 0.32014 0.89117 0.0
H1850 H 0.2792 0.2752 0.8814 0.0
H1851 H 0.19697 0.2141 0.9002 0.0
H1852 H 0.05441 0.11978 0.88043 0.0
H1853 H 0.10203 0.16938 0.8848 0.0
C1854 C 0.95995 0.72983 0.59411 0.0
C1855 C 0.97866 0.71824 0.59794 0.0
C1856 C 0.95668 0.75255 0.59962 0.0
C1857 C 0.96585 0.78964 0.62532 0.0
H1858 H 0.97263 0.85891 0.60931 0.0
C1859 C 0.98473 0.90842 0.64257 0.0
C1860 C 0.97314 0.92437 0.63683 0.0
C1861 C 0.98055 0.87944 0.63901 0.0
C1862 C 0.97002 0.83948 0.61391 0.0
H1863 H 0.00809 0.72089 0.61069 0.0
H1864 H 0.00262 0.76101 0.62031 0.0
H1865 H 0.97597 0.81669 0.60073 0.0
H1866 H 0.94507 0.92109 0.62362 0.0
H1867 H 0.93639 0.87008 0.6177 0.0
H1868 H 0.96021 0.81292 0.63855 0.0
C1869 C 0.99029 0.75227 0.61306 0.0
C1870 C 0.97208 0.81526 0.60897 0.0
C1871 C 0.99362 0.72949 0.60751 0.0
C1872 C 0.95452 0.9094 0.62813 0.0
C1873 C 0.9499 0.88035 0.62468 0.0
C1874 C 0.96367 0.81397 0.6303 0.0
C1875 C 0.97204 0.76431 0.60911 0.0
C1876 C 0.96991 0.78997 0.61458 0.0
C1877 C 0.96439 0.86589 0.62972 0.0
C1878 C 0.96556 0.83913 0.62463 0.0
H1879 H 0.94789 0.72148 0.5868 0.0
H1880 H 0.94205 0.76094 0.59643 0.0
H1881 H 0.96392 0.77037 0.62985 0.0
H1882 H 0.99935 0.91958 0.64928 0.0
H1883 H 0.99194 0.86894 0.64311 0.0
C1884 C 0.31044 0.28744 0.60865 0.0
C1885 C 0.32208 0.28268 0.59932 0.0
C1886 C 0.28765 0.26162 0.61427 0.0
C1887 C 0.22566 0.17792 0.61078 0.0
H1888 H 0.22602 0.17509 0.6406 0.0
C1889 C 0.13005 0.06898 0.63093 0.0
C1890 C 0.11447 0.07463 0.639 0.0
C1891 C 0.15945 0.09295 0.62753 0.0
C1892 C 0.22554 0.1756 0.63228 0.0
H1893 H 0.31946 0.24708 0.58869 0.0
H1894 H 0.27997 0.20216 0.59849 0.0
H1895 H 0.2689 0.22027 0.63161 0.0
H1896 H 0.11846 0.10878 0.65046 0.0
H1897 H 0.1698 0.15121 0.64439 0.0
H1898 H 0.18223 0.13392 0.61135 0.0
C1899 C 0.28805 0.22581 0.60142 0.0
C1900 C 0.25007 0.2015 0.62712 0.0
C1901 C 0.31079 0.25158 0.5958 0.0
C1902 C 0.13014 0.10379 0.64426 0.0
C1903 C 0.1595 0.12811 0.64074 0.0
C1904 C 0.20127 0.1522 0.61591 0.0
C1905 C 0.27597 0.23047 0.61068 0.0
C1906 C 0.2504 0.20293 0.6163 0.0
C1907 C 0.17368 0.1234 0.63198 0.0
C1908 C 0.20084 0.15056 0.62672 0.0
H1909 H 0.31876 0.31114 0.61158 0.0
H1910 H 0.27865 0.2661 0.62132 0.0
H1911 H 0.2247 0.17852 0.60247 0.0
H1912 H 0.11852 0.04659 0.62678 0.0
H1913 H 0.17015 0.08813 0.621 0.0
C1914 C 0.7881 0.08309 0.59475 0.0
C1915 C 0.75713 0.06343 0.59828 0.0
C1916 C 0.81381 0.08619 0.60036 0.0
C1917 C 0.83297 0.04568 0.62077 0.0
H1918 H 0.91353 0.12416 0.62129 0.0
C1919 C 0.93743 0.05535 0.64346 0.0
C1920 C 0.96452 0.06566 0.63738 0.0
C1921 C 0.91307 0.06008 0.64019 0.0
C1922 C 0.89113 0.10211 0.62124 0.0
H1923 H 0.72896 0.03242 0.61066 0.0
H1924 H 0.77336 0.03847 0.6205 0.0
H1925 H 0.86897 0.12169 0.61227 0.0
H1926 H 0.98866 0.0915 0.62365 0.0
H1927 H 0.94671 0.10027 0.61809 0.0
H1928 H 0.85515 0.02608 0.62968 0.0
C1929 C 0.77805 0.0508 0.61326 0.0
C1930 C 0.86561 0.10059 0.616 0.0
C1931 C 0.75248 0.04743 0.60762 0.0
C1932 C 0.96801 0.08324 0.6285 0.0
C1933 C 0.94395 0.08832 0.62531 0.0
C1934 C 0.85834 0.04731 0.62608 0.0
C1935 C 0.80912 0.06995 0.60969 0.0
C1936 C 0.83622 0.07222 0.61558 0.0
C1937 C 0.91561 0.0756 0.63087 0.0
C1938 C 0.88786 0.0754 0.62629 0.0
H1939 H 0.79247 0.09576 0.58759 0.0
H1940 H 0.83729 0.10085 0.59726 0.0
H1941 H 0.81103 0.0232 0.62048 0.0
H1942 H 0.93395 0.04153 0.6503 0.0
H1943 H 0.89166 0.05034 0.64471 0.0
C1944 C 0.97198 0.37226 0.44382 0.0
C1945 C 0.98778 0.3894 0.43498 0.0
C1946 C 0.94958 0.37731 0.44872 0.0
C1947 C 0.89413 0.40394 0.4437 0.0
H1948 H 0.89145 0.41108 0.4734 0.0
C1949 C 0.7957 0.41632 0.46188 0.0
C1950 C 0.78081 0.39726 0.47044 0.0
C1951 C 0.82525 0.42218 0.45869 0.0
C1952 C 0.8917 0.40892 0.4651 0.0
H1953 H 0.99254 0.42533 0.42437 0.0
H1954 H 0.95294 0.4337 0.43283 0.0
H1955 H 0.93393 0.40648 0.46537 0.0
H1956 H 0.7859 0.37121 0.48285 0.0
H1957 H 0.83707 0.38034 0.4771 0.0
H1958 H 0.85142 0.40483 0.44332 0.0
C1959 C 0.95799 0.41643 0.43597 0.0
C1960 C 0.91608 0.40634 0.46051 0.0
C1961 C 0.98066 0.41165 0.43114 0.0
C1962 C 0.79704 0.38618 0.47625 0.0
C1963 C 0.8264 0.39145 0.47293 0.0
C1964 C 0.86963 0.40613 0.44827 0.0
C1965 C 0.94225 0.39935 0.44483 0.0
C1966 C 0.9174 0.40362 0.44976 0.0
C1967 C 0.8402 0.40832 0.46382 0.0
C1968 C 0.86792 0.40851 0.45905 0.0
H1969 H 0.97708 0.35508 0.447 0.0
H1970 H 0.93758 0.36355 0.45546 0.0
H1971 H 0.89424 0.4014 0.43541 0.0
H1972 H 0.78373 0.42537 0.45733 0.0
H1973 H 0.83561 0.43628 0.45188 0.0
C1974 C 0.6603 0.61966 0.44222 0.0
C1975 C 0.64183 0.61673 0.43361 0.0
C1976 C 0.65655 0.59279 0.44715 0.0
C1977 C 0.63058 0.50946 0.44253 0.0
H1978 H 0.62873 0.50383 0.47231 0.0
C1979 C 0.62146 0.40057 0.46134 0.0
C1980 C 0.64127 0.40607 0.46979 0.0
C1981 C 0.61573 0.42407 0.45798 0.0
C1982 C 0.62946 0.50508 0.46399 0.0
H1983 H 0.60485 0.58324 0.42343 0.0
H1984 H 0.59871 0.53621 0.43194 0.0
H1985 H 0.63112 0.5496 0.46415 0.0
H1986 H 0.669 0.43967 0.48178 0.0
H1987 H 0.65991 0.48124 0.47574 0.0
H1988 H 0.63034 0.46595 0.44225 0.0
C1989 C 0.61604 0.55938 0.43488 0.0
C1990 C 0.63076 0.5313 0.45932 0.0
C1991 C 0.61953 0.58629 0.43002 0.0
C1992 C 0.65343 0.43472 0.47528 0.0
C1993 C 0.6482 0.45857 0.47179 0.0
C1994 C 0.62966 0.48349 0.44718 0.0
C1995 C 0.63448 0.56234 0.44352 0.0
C1996 C 0.63151 0.53385 0.44853 0.0
C1997 C 0.63031 0.454 0.46282 0.0
C1998 C 0.62922 0.48092 0.45798 0.0
H1999 H 0.67759 0.64277 0.44521 0.0
H2000 H 0.67135 0.59587 0.45371 0.0
H2001 H 0.63162 0.51094 0.43421 0.0
H2002 H 0.61153 0.37854 0.45702 0.0
H2003 H 0.60088 0.41915 0.45129 0.0
C2004 C 0.44891 0.06468 0.43292 0.0
C2005 C 0.41745 0.05188 0.43606 0.0
C2006 C 0.47363 0.08542 0.43936 0.0
C2007 C 0.49255 0.14109 0.46104 0.0
H2008 H 0.57024 0.13926 0.46131 0.0
C2009 C 0.6033 0.24078 0.48073 0.0
C2010 C 0.62875 0.25494 0.47383 0.0
C2011 C 0.57754 0.21053 0.47864 0.0
C2012 C 0.54864 0.13995 0.46137 0.0
H2013 H 0.38719 0.05069 0.44843 0.0
H2014 H 0.43049 0.08703 0.45971 0.0
H2015 H 0.52399 0.09722 0.45247 0.0
H2016 H 0.64874 0.2476 0.45993 0.0
H2017 H 0.60432 0.19495 0.45636 0.0
H2018 H 0.51753 0.18439 0.46965 0.0
C2019 C 0.43601 0.08117 0.45223 0.0
C2020 C 0.52219 0.11599 0.45626 0.0
C2021 C 0.41121 0.06035 0.44577 0.0
C2022 C 0.62938 0.23724 0.46537 0.0
C2023 C 0.60392 0.20699 0.46335 0.0
C2024 C 0.519 0.16502 0.46618 0.0
C2025 C 0.46754 0.09388 0.44911 0.0
C2026 C 0.49414 0.11682 0.45575 0.0
C2027 C 0.57709 0.19387 0.46969 0.0
C2028 C 0.54763 0.16526 0.46612 0.0
H2029 H 0.45451 0.05867 0.42548 0.0
H2030 H 0.49757 0.09525 0.43661 0.0
H2031 H 0.47142 0.14261 0.46075 0.0
H2032 H 0.60209 0.25398 0.48727 0.0
H2033 H 0.55733 0.20086 0.48373 0.0
C2034 C 0.76112 0.6473 0.74569 0.0
C2035 C 0.73979 0.65554 0.74181 0.0
C2036 C 0.76705 0.62614 0.74029 0.0
C2037 C 0.75928 0.58788 0.71491 0.0
H2038 H 0.75299 0.51948 0.73129 0.0
C2039 C 0.73016 0.46619 0.69833 0.0
C2040 C 0.73946 0.44821 0.70401 0.0
C2041 C 0.73827 0.49657 0.70172 0.0
C2042 C 0.75568 0.53875 0.72658 0.0
H2043 H 0.70869 0.64893 0.72908 0.0
H2044 H 0.71882 0.61167 0.71969 0.0
H2045 H 0.75125 0.56276 0.7397 0.0
H2046 H 0.76765 0.44894 0.71683 0.0
H2047 H 0.78335 0.50247 0.7224 0.0
H2048 H 0.76315 0.56338 0.70174 0.0
C2049 C 0.73114 0.62177 0.72687 0.0
C2050 C 0.75451 0.56355 0.73143 0.0
C2051 C 0.72511 0.64286 0.73229 0.0
C2052 C 0.75986 0.46226 0.71241 0.0
C2053 C 0.76854 0.49278 0.71565 0.0
C2054 C 0.7607 0.56307 0.71003 0.0
C2055 C 0.75185 0.61288 0.73088 0.0
C2056 C 0.75584 0.58815 0.72566 0.0
C2057 C 0.75625 0.50954 0.71074 0.0
C2058 C 0.75849 0.53796 0.71581 0.0
H2059 H 0.773 0.65692 0.75297 0.0
H2060 H 0.78337 0.61995 0.74353 0.0
H2061 H 0.76065 0.60673 0.71028 0.0
H2062 H 0.71432 0.45577 0.69184 0.0
H2063 H 0.72836 0.50872 0.69773 0.0
C2064 C 0.3921 0.09423 0.73338 0.0
C2065 C 0.37968 0.09884 0.74256 0.0
C2066 C 0.41429 0.12014 0.72768 0.0
C2067 C 0.47452 0.2039 0.73101 0.0
H2068 H 0.47533 0.20576 0.70117 0.0
C2069 C 0.57396 0.30997 0.71087 0.0
C2070 C 0.58867 0.30294 0.70286 0.0
C2071 C 0.54392 0.28728 0.71422 0.0
C2072 C 0.4755 0.20556 0.7095 0.0
H2073 H 0.38008 0.13418 0.7528 0.0
H2074 H 0.4188 0.17937 0.74287 0.0
H2075 H 0.43192 0.16109 0.71015 0.0
H2076 H 0.58266 0.26782 0.69146 0.0
H2077 H 0.53043 0.22757 0.69752 0.0
H2078 H 0.51835 0.24744 0.73049 0.0
C2079 C 0.41166 0.15574 0.74013 0.0
C2080 C 0.45065 0.17996 0.71464 0.0
C2081 C 0.38943 0.12985 0.74582 0.0
C2082 C 0.57169 0.27384 0.69762 0.0
C2083 C 0.54176 0.25077 0.70113 0.0
C2084 C 0.49933 0.22927 0.7259 0.0
C2085 C 0.4246 0.15122 0.73105 0.0
C2086 C 0.44999 0.17882 0.72546 0.0
C2087 C 0.52825 0.25673 0.70981 0.0
C2088 C 0.50028 0.23049 0.71507 0.0
H2089 H 0.38491 0.07059 0.73065 0.0
H2090 H 0.42402 0.11585 0.72078 0.0
H2091 H 0.47513 0.20348 0.73934 0.0
H2092 H 0.58651 0.33238 0.71497 0.0
H2093 H 0.5338 0.29311 0.72068 0.0
C2094 C 0.93736 0.31276 0.73346 0.0
C2095 C 0.93442 0.29498 0.74224 0.0
C2096 C 0.91069 0.30751 0.72806 0.0
C2097 C 0.82735 0.27965 0.73164 0.0
H2098 H 0.82481 0.27901 0.7018 0.0
C2099 C 0.72366 0.27694 0.71162 0.0
C2100 C 0.73146 0.29842 0.70354 0.0
C2101 C 0.74524 0.26865 0.71503 0.0
C2102 C 0.82517 0.2793 0.71013 0.0
H2103 H 0.90119 0.25746 0.75217 0.0
H2104 H 0.85434 0.24866 0.74281 0.0
H2105 H 0.86926 0.28053 0.71059 0.0
H2106 H 0.76682 0.32622 0.69216 0.0
H2107 H 0.80515 0.31278 0.69833 0.0
H2108 H 0.78442 0.28014 0.73133 0.0
C2109 C 0.8774 0.26661 0.74012 0.0
C2110 C 0.8506 0.28008 0.71516 0.0
C2111 C 0.90419 0.27162 0.74546 0.0
C2112 C 0.76019 0.30944 0.69837 0.0
C2113 C 0.78216 0.30169 0.70193 0.0
C2114 C 0.80216 0.27924 0.72664 0.0
C2115 C 0.8804 0.28455 0.73136 0.0
C2116 C 0.85214 0.28069 0.72598 0.0
C2117 C 0.77549 0.28234 0.71063 0.0
C2118 C 0.80085 0.27944 0.71581 0.0
H2119 H 0.96033 0.33083 0.73074 0.0
H2120 H 0.91375 0.32199 0.72143 0.0
H2121 H 0.82809 0.28058 0.73998 0.0
H2122 H 0.70149 0.26789 0.71568 0.0
H2123 H 0.73875 0.25277 0.72149 0.0
C2124 C 0.38556 0.29106 0.24269 0.0
C2125 C 0.37644 0.31155 0.23862 0.0
C2126 C 0.40978 0.28818 0.23805 0.0
C2127 C 0.47675 0.32985 0.21938 0.0
H2128 H 0.47938 0.25252 0.22108 0.0
C2129 C 0.57555 0.31789 0.1997 0.0
C2130 C 0.59217 0.30995 0.20662 0.0
C2131 C 0.54607 0.31365 0.20243 0.0
C2132 C 0.47886 0.27422 0.22051 0.0
H2133 H 0.38461 0.34402 0.22624 0.0
H2134 H 0.42541 0.33798 0.2179 0.0
H2135 H 0.4343 0.25423 0.22819 0.0
H2136 H 0.58994 0.28923 0.22146 0.0
H2137 H 0.53822 0.28096 0.22606 0.0
H2138 H 0.52116 0.34958 0.21159 0.0
C2139 C 0.41507 0.32504 0.22491 0.0
C2140 C 0.45314 0.27537 0.22468 0.0
C2141 C 0.39139 0.32837 0.22966 0.0
C2142 C 0.57769 0.29555 0.21596 0.0
C2143 C 0.54803 0.29077 0.2186 0.0
C2144 C 0.50211 0.32849 0.21507 0.0
C2145 C 0.42508 0.3053 0.2291 0.0
C2146 C 0.45182 0.30335 0.22429 0.0
C2147 C 0.53239 0.30082 0.21203 0.0
C2148 C 0.50368 0.30081 0.21568 0.0
H2149 H 0.37452 0.27784 0.24961 0.0
H2150 H 0.41693 0.27307 0.24164 0.0
H2151 H 0.47729 0.35212 0.21909 0.0
H2152 H 0.58622 0.32935 0.1925 0.0
H2153 H 0.53444 0.32142 0.19718 0.0
C2154 C 0.70963 0.07632 0.23062 0.0
C2155 C 0.72646 0.08034 0.23974 0.0
C2156 C 0.71307 0.10249 0.22529 0.0
C2157 C 0.76367 0.19077 0.22348 0.0
H2158 H 0.689 0.18251 0.21066 0.0
C2159 C 0.74586 0.29527 0.21394 0.0
C2160 C 0.72928 0.29356 0.20496 0.0
C2161 C 0.7506 0.2705 0.21656 0.0
C2162 C 0.71023 0.18509 0.21403 0.0
H2163 H 0.76029 0.11507 0.25042 0.0
H2164 H 0.76544 0.16079 0.24139 0.0
H2165 H 0.68623 0.13691 0.21882 0.0
H2166 H 0.70632 0.26536 0.19136 0.0
H2167 H 0.7143 0.22171 0.19601 0.0
H2168 H 0.78707 0.23959 0.21908 0.0
C2169 C 0.75016 0.13744 0.23815 0.0
C2170 C 0.70869 0.15886 0.21873 0.0
C2171 C 0.74705 0.1112 0.2434 0.0
C2172 C 0.71937 0.26746 0.19829 0.0
C2173 C 0.72365 0.24235 0.20101 0.0
C2174 C 0.76506 0.21714 0.21889 0.0
C2175 C 0.73308 0.13347 0.22903 0.0
C2176 C 0.7353 0.16131 0.22361 0.0
C2177 C 0.73846 0.24319 0.21034 0.0
C2178 C 0.73827 0.21465 0.21419 0.0
H2179 H 0.69385 0.05286 0.22752 0.0
H2180 H 0.70004 0.09831 0.2182 0.0
H2181 H 0.78486 0.19358 0.22695 0.0
H2182 H 0.75379 0.31511 0.21923 0.0
H2183 H 0.76197 0.27186 0.22381 0.0
C2184 C 0.96299 0.65048 0.22788 0.0
C2185 C 0.95931 0.66566 0.23655 0.0
C2186 C 0.93654 0.62631 0.22274 0.0
C2187 C 0.85372 0.56656 0.22763 0.0
H2188 H 0.84557 0.55765 0.19794 0.0
C2189 C 0.74124 0.46514 0.21051 0.0
C2190 C 0.7448 0.44772 0.20254 0.0
C2191 C 0.76597 0.49525 0.21317 0.0
C2192 C 0.84756 0.55969 0.20624 0.0
H2193 H 0.92499 0.66798 0.24646 0.0
H2194 H 0.87911 0.62597 0.23757 0.0
H2195 H 0.89244 0.60293 0.20561 0.0
H2196 H 0.77601 0.44888 0.19057 0.0
H2197 H 0.81988 0.5013 0.19539 0.0
H2198 H 0.80978 0.5232 0.22842 0.0
C2199 C 0.90236 0.63246 0.23477 0.0
C2200 C 0.87442 0.58562 0.21063 0.0
C2201 C 0.92869 0.65663 0.23985 0.0
C2202 C 0.77264 0.462 0.1967 0.0
C2203 C 0.79779 0.49202 0.1995 0.0
C2204 C 0.82715 0.54068 0.22328 0.0
C2205 C 0.90591 0.61671 0.22623 0.0
C2206 C 0.87769 0.58939 0.22139 0.0
C2207 C 0.79524 0.50834 0.2081 0.0
C2208 C 0.82349 0.53689 0.21253 0.0
H2209 H 0.98629 0.657 0.22513 0.0
H2210 H 0.94007 0.6145 0.21622 0.0
H2211 H 0.85578 0.56832 0.23594 0.0
H2212 H 0.71989 0.45469 0.21509 0.0
H2213 H 0.76265 0.50754 0.21957 0.0
C2214 C 0.66781 0.06959 0.94181 0.0
C2215 C 0.65516 0.0635 0.9318 0.0
C2216 C 0.66805 0.09354 0.94792 0.0
C2217 C 0.66507 0.16668 0.94536 0.0
H2218 H 0.63278 0.1527 0.97329 0.0
C2219 C 0.62918 0.24925 0.96253 0.0
C2220 C 0.64393 0.26431 0.9718 0.0
C2221 C 0.62868 0.22188 0.95928 0.0
C2222 C 0.64209 0.15694 0.96553 0.0
H2223 H 0.63297 0.07769 0.92038 0.0
H2224 H 0.63353 0.11896 0.93089 0.0
H2225 H 0.63869 0.11156 0.96432 0.0
H2226 H 0.66725 0.26105 0.9854 0.0
H2227 H 0.66631 0.21268 0.97967 0.0
H2228 H 0.66794 0.21146 0.94637 0.0
C2229 C 0.64347 0.10564 0.93405 0.0
C2230 C 0.64562 0.13354 0.96042 0.0
C2231 C 0.64304 0.08182 0.92803 0.0
C2232 C 0.65545 0.2497 0.97826 0.0
C2233 C 0.6551 0.22218 0.97495 0.0
C2234 C 0.66144 0.18978 0.9504 0.0
C2235 C 0.65602 0.11193 0.94405 0.0
C2236 C 0.65634 0.13789 0.95016 0.0
C2237 C 0.64318 0.20905 0.96517 0.0
C2238 C 0.64908 0.18488 0.96042 0.0
H2239 H 0.67707 0.05563 0.94494 0.0
H2240 H 0.67791 0.0979 0.9556 0.0
H2241 H 0.67411 0.17109 0.93756 0.0
H2242 H 0.61996 0.25991 0.95743 0.0
H2243 H 0.61865 0.21183 0.95181 0.0
C2244 C 0.97972 0.62627 0.9453 0.0
C2245 C 0.98612 0.61695 0.93575 0.0
C2246 C 0.95837 0.60354 0.95219 0.0
C2247 C 0.91845 0.51744 0.95783 0.0
H2248 H 0.85328 0.52912 0.97014 0.0
C2249 C 0.79451 0.41605 0.96659 0.0
C2250 C 0.7776 0.41798 0.97501 0.0
C2251 C 0.82514 0.44049 0.96459 0.0
C2252 C 0.87173 0.52574 0.96698 0.0
H2253 H 0.97507 0.57653 0.92596 0.0
H2254 H 0.93796 0.53726 0.93784 0.0
H2255 H 0.89689 0.57281 0.96099 0.0
H2256 H 0.78005 0.44599 0.98834 0.0
H2257 H 0.83389 0.48938 0.98473 0.0
H2258 H 0.89249 0.46992 0.96337 0.0
C2259 C 0.94969 0.56196 0.94013 0.0
C2260 C 0.89671 0.55078 0.9617 0.0
C2261 C 0.97081 0.58456 0.93326 0.0
C2262 C 0.7927 0.44387 0.98183 0.0
C2263 C 0.82333 0.46878 0.97971 0.0
C2264 C 0.8935 0.49245 0.96306 0.0
C2265 C 0.94321 0.57107 0.94969 0.0
C2266 C 0.91973 0.54653 0.95674 0.0
C2267 C 0.83947 0.46773 0.97088 0.0
C2268 C 0.86926 0.49595 0.96738 0.0
H2269 H 0.99123 0.65107 0.94745 0.0
H2270 H 0.95395 0.61135 0.95951 0.0
H2271 H 0.93622 0.51361 0.95431 0.0
H2272 H 0.78339 0.39633 0.96121 0.0
H2273 H 0.83673 0.43898 0.95768 0.0
C2274 C 0.44551 0.42072 0.92967 0.0
C2275 C 0.41412 0.40107 0.93282 0.0
C2276 C 0.47043 0.4225 0.93535 0.0
C2277 C 0.48779 0.37917 0.95527 0.0
H2278 H 0.5696 0.45627 0.95546 0.0
C2279 C 0.59516 0.38821 0.97663 0.0
C2280 C 0.62133 0.39773 0.97014 0.0
C2281 C 0.57016 0.39229 0.97361 0.0
C2282 C 0.54686 0.4346 0.95551 0.0
H2283 H 0.38435 0.36844 0.9446 0.0
H2284 H 0.42772 0.37226 0.95469 0.0
H2285 H 0.525 0.45574 0.94725 0.0
H2286 H 0.64285 0.42098 0.95579 0.0
H2287 H 0.59993 0.42894 0.95072 0.0
H2288 H 0.5099 0.3582 0.96357 0.0
C2289 C 0.43321 0.38571 0.94767 0.0
C2290 C 0.52125 0.43416 0.95072 0.0
C2291 C 0.40826 0.38363 0.9419 0.0
C2292 C 0.623 0.41339 0.96096 0.0
C2293 C 0.59841 0.41801 0.95805 0.0
C2294 C 0.51332 0.37977 0.96018 0.0
C2295 C 0.46472 0.405 0.94444 0.0
C2296 C 0.49144 0.40624 0.95032 0.0
C2297 C 0.57122 0.40659 0.96417 0.0
C2298 C 0.5433 0.4073 0.96018 0.0
H2299 H 0.45087 0.43434 0.92268 0.0
H2300 H 0.49416 0.43714 0.93244 0.0
H2301 H 0.46549 0.35705 0.95503 0.0
H2302 H 0.59309 0.37586 0.98371 0.0
H2303 H 0.5496 0.38347 0.97852 0.0
C2304 C 0.64046 0.68614 0.77309 0.0
C2305 C 0.65677 0.70899 0.76548 0.0
C2306 C 0.61343 0.68314 0.7777 0.0
C2307 C 0.55033 0.70087 0.77355 0.0
H2308 H 0.53762 0.68934 0.80306 0.0
C2309 C 0.45495 0.71435 0.79345 0.0
C2310 C 0.43538 0.69158 0.80067 0.0
C2311 C 0.48228 0.71577 0.78993 0.0
C2312 C 0.54067 0.69214 0.7948 0.0
H2313 H 0.65751 0.74667 0.75675 0.0
H2314 H 0.61017 0.74146 0.7648 0.0
H2315 H 0.58482 0.69355 0.79518 0.0
H2316 H 0.43002 0.65343 0.81029 0.0
H2317 H 0.4783 0.65566 0.80397 0.0
H2318 H 0.5064 0.69952 0.77312 0.0
C2319 C 0.61822 0.72566 0.76714 0.0
C2320 C 0.56769 0.69461 0.79028 0.0
C2321 C 0.64538 0.72874 0.76255 0.0
C2322 C 0.44464 0.67114 0.8047 0.0
C2323 C 0.47221 0.67245 0.80108 0.0
C2324 C 0.52341 0.69836 0.77805 0.0
C2325 C 0.60197 0.70285 0.77478 0.0
C2326 C 0.57299 0.6994 0.77962 0.0
C2327 C 0.49081 0.69428 0.79344 0.0
C2328 C 0.51847 0.69447 0.78874 0.0
H2329 H 0.64862 0.67053 0.77554 0.0
H2330 H 0.60127 0.66508 0.78345 0.0
H2331 H 0.5533 0.7038 0.7653 0.0
H2332 H 0.44886 0.73092 0.79035 0.0
H2333 H 0.49656 0.73352 0.78429 0.0
C2334 C 0.34588 0.97315 0.77473 0.0
C2335 C 0.32066 0.96532 0.76799 0.0
C2336 C 0.34896 0.94955 0.77952 0.0
C2337 C 0.30359 0.86565 0.78702 0.0
H2338 H 0.38563 0.87307 0.78862 0.0
C2339 C 0.31775 0.75975 0.79597 0.0
C2340 C 0.34348 0.76388 0.80183 0.0
C2341 C 0.31517 0.78557 0.79313 0.0
C2342 C 0.36266 0.8709 0.78842 0.0
H2343 H 0.2789 0.92643 0.76096 0.0
H2344 H 0.28427 0.88499 0.76933 0.0
H2345 H 0.38066 0.91513 0.78068 0.0
H2346 H 0.38647 0.79851 0.80949 0.0
H2347 H 0.38191 0.84419 0.80454 0.0
H2348 H 0.28551 0.82139 0.79468 0.0
C2349 C 0.30156 0.90953 0.77096 0.0
C2350 C 0.35976 0.89495 0.78382 0.0
C2351 C 0.29857 0.93323 0.76612 0.0
C2352 C 0.36629 0.79459 0.80503 0.0
C2353 C 0.36379 0.8207 0.80211 0.0
C2354 C 0.30649 0.84171 0.79165 0.0
C2355 C 0.32682 0.91744 0.77773 0.0
C2356 C 0.3301 0.89238 0.78292 0.0
C2357 C 0.33826 0.81644 0.79604 0.0
C2358 C 0.33597 0.84374 0.79225 0.0
H2359 H 0.36333 0.99764 0.77637 0.0
H2360 H 0.36846 0.9565 0.78476 0.0
H2361 H 0.28052 0.86324 0.78666 0.0
H2362 H 0.29961 0.73642 0.79341 0.0
H2363 H 0.29547 0.78132 0.78833 0.0
C2364 C 0.055 0.39491 0.77755 0.0
C2365 C 0.06422 0.38252 0.76934 0.0
C2366 C 0.07747 0.42168 0.78303 0.0
C2367 C 0.15858 0.48999 0.78026 0.0
H2368 H 0.15747 0.497 0.81003 0.0
C2369 C 0.26877 0.57348 0.802 0.0
C2370 C 0.26856 0.599 0.80689 0.0
C2371 C 0.24071 0.54648 0.79916 0.0
C2372 C 0.1577 0.49543 0.80171 0.0
H2373 H 0.10424 0.38787 0.76063 0.0
H2374 H 0.1433 0.43393 0.77023 0.0
H2375 H 0.11431 0.4507 0.80118 0.0
H2376 H 0.23881 0.6153 0.81346 0.0
H2377 H 0.18896 0.56726 0.80845 0.0
H2378 H 0.20243 0.53388 0.78079 0.0
C2379 C 0.11871 0.42358 0.77232 0.0
C2380 C 0.13309 0.46903 0.79664 0.0
C2381 C 0.09632 0.39701 0.76684 0.0
C2382 C 0.23955 0.59587 0.80972 0.0
C2383 C 0.21115 0.56855 0.80684 0.0
C2384 C 0.18309 0.51603 0.7853 0.0
C2385 C 0.10958 0.43654 0.7804 0.0
C2386 C 0.13373 0.46567 0.78586 0.0
C2387 C 0.21173 0.5443 0.80116 0.0
C2388 C 0.18325 0.51866 0.79607 0.0
H2389 H 0.03039 0.38417 0.77967 0.0
H2390 H 0.06963 0.43112 0.78917 0.0
H2391 H 0.15942 0.48868 0.77195 0.0
H2392 H 0.2908 0.57508 0.79985 0.0
H2393 H 0.24169 0.5279 0.7949 0.0
C2394 C 0.37899 0.98139 0.06399 0.0
C2395 C 0.39292 0.9879 0.07379 0.0
C2396 C 0.38183 0.96068 0.05724 0.0
C2397 C 0.42713 0.92015 0.05264 0.0
H2398 H 0.35074 0.85711 0.03885 0.0
C2399 C 0.39973 0.7956 0.04286 0.0
C2400 C 0.38301 0.78021 0.03388 0.0
C2401 C 0.40665 0.82616 0.04523 0.0
C2402 C 0.37249 0.875 0.04242 0.0
H2403 H 0.42118 0.97829 0.08418 0.0
H2404 H 0.4255 0.94143 0.0725 0.0
H2405 H 0.3511 0.90047 0.04823 0.0
H2406 H 0.36198 0.78524 0.01998 0.0
H2407 H 0.37344 0.83901 0.0243 0.0
H2408 H 0.44791 0.89353 0.04727 0.0
C2409 C 0.41286 0.95279 0.06993 0.0
C2410 C 0.3727 0.89983 0.04784 0.0
C2411 C 0.41014 0.97365 0.07667 0.0
C2412 C 0.37481 0.79663 0.02698 0.0
C2413 C 0.38128 0.82724 0.02946 0.0
C2414 C 0.42686 0.89523 0.04727 0.0
C2415 C 0.39857 0.94591 0.06015 0.0
C2416 C 0.39973 0.92213 0.05328 0.0
C2417 C 0.39667 0.84196 0.03873 0.0
C2418 C 0.39923 0.87186 0.04239 0.0
H2419 H 0.36584 0.9923 0.06151 0.0
H2420 H 0.37089 0.95625 0.04972 0.0
H2421 H 0.44855 0.93736 0.05654 0.0
H2422 H 0.40663 0.7836 0.04827 0.0
H2423 H 0.41822 0.83669 0.05248 0.0
C2424 C 0.06154 0.41612 0.06173 0.0
C2425 C 0.05056 0.42593 0.07018 0.0
C2426 C 0.0831 0.43816 0.0548 0.0
C2427 C 0.11626 0.52012 0.04553 0.0
H2428 H 0.18864 0.51291 0.03816 0.0
C2429 C 0.23494 0.62521 0.03339 0.0
C2430 C 0.25572 0.62046 0.02726 0.0
C2431 C 0.2051 0.59998 0.03581 0.0
C2432 C 0.16824 0.51494 0.03989 0.0
H2433 H 0.0532 0.46657 0.07787 0.0
H2434 H 0.09113 0.50526 0.06576 0.0
H2435 H 0.14653 0.4719 0.04843 0.0
H2436 H 0.26075 0.58625 0.0181 0.0
H2437 H 0.20809 0.5418 0.02221 0.0
H2438 H 0.13835 0.56356 0.03718 0.0
C2439 C 0.08282 0.4804 0.06447 0.0
C2440 C 0.14413 0.49146 0.04585 0.0
C2441 C 0.06132 0.4583 0.07146 0.0
C2442 C 0.24505 0.59056 0.02277 0.0
C2443 C 0.21508 0.56508 0.02526 0.0
C2444 C 0.14031 0.54354 0.03951 0.0
C2445 C 0.09412 0.47059 0.05609 0.0
C2446 C 0.11823 0.49415 0.04897 0.0
C2447 C 0.19535 0.56925 0.0322 0.0
C2448 C 0.16705 0.5417 0.03685 0.0
H2449 H 0.05357 0.39131 0.06048 0.0
H2450 H 0.09104 0.42976 0.04837 0.0
H2451 H 0.09631 0.52257 0.04763 0.0
H2452 H 0.24267 0.64807 0.03695 0.0
H2453 H 0.19083 0.60423 0.04121 0.0
C2454 C 0.58245 0.62187 0.08072 0.0
C2455 C 0.61347 0.64066 0.07714 0.0
C2456 C 0.55728 0.6203 0.07525 0.0
C2457 C 0.54175 0.66556 0.05586 0.0
H2458 H 0.45873 0.59019 0.05458 0.0
C2459 C 0.44143 0.66322 0.03289 0.0
C2460 C 0.41387 0.65343 0.03867 0.0
C2461 C 0.46482 0.65759 0.03645 0.0
C2462 C 0.48185 0.61137 0.05486 0.0
H2463 H 0.64239 0.67105 0.06476 0.0
H2464 H 0.5988 0.66749 0.0551 0.0
H2465 H 0.50168 0.58826 0.0632 0.0
H2466 H 0.38823 0.6282 0.05233 0.0
H2467 H 0.42889 0.61827 0.05848 0.0
H2468 H 0.52198 0.68866 0.04756 0.0
C2469 C 0.59374 0.6549 0.0623 0.0
C2470 C 0.50639 0.61035 0.05985 0.0
C2471 C 0.61877 0.65683 0.06783 0.0
C2472 C 0.40934 0.63629 0.04774 0.0
C2473 C 0.43252 0.63037 0.05124 0.0
C2474 C 0.51739 0.66647 0.05079 0.0
C2475 C 0.56273 0.63717 0.06603 0.0
C2476 C 0.5366 0.63754 0.06048 0.0
C2477 C 0.46085 0.64171 0.04578 0.0
C2478 C 0.48713 0.6395 0.05032 0.0
H2479 H 0.57774 0.6091 0.08788 0.0
H2480 H 0.53373 0.60661 0.07839 0.0
H2481 H 0.56446 0.68719 0.05637 0.0
H2482 H 0.44553 0.67637 0.02585 0.0
H2483 H 0.48636 0.66632 0.03205 0.0
C2484 C 0.05649 0.62802 0.57682 0.0
C2485 C 0.04677 0.64832 0.57301 0.0
C2486 C 0.08004 0.62503 0.57177 0.0
C2487 C 0.1442 0.66507 0.55224 0.0
H2488 H 0.1426 0.58535 0.55246 0.0
C2489 C 0.23819 0.65023 0.53069 0.0
C2490 C 0.25452 0.64097 0.53725 0.0
C2491 C 0.20915 0.64646 0.53372 0.0
C2492 C 0.14323 0.60771 0.5523 0.0
H2493 H 0.05366 0.6809 0.56078 0.0
H2494 H 0.09367 0.67496 0.55181 0.0
H2495 H 0.0999 0.58913 0.56064 0.0
H2496 H 0.25217 0.61812 0.55167 0.0
H2497 H 0.20122 0.61077 0.5568 0.0
H2498 H 0.18743 0.68348 0.54383 0.0
C2499 C 0.08406 0.66206 0.55888 0.0
C2500 C 0.11893 0.61002 0.55707 0.0
C2501 C 0.06094 0.6654 0.56401 0.0
C2502 C 0.24008 0.62548 0.54646 0.0
C2503 C 0.21087 0.62122 0.54939 0.0
C2504 C 0.16817 0.6626 0.54734 0.0
C2505 C 0.09409 0.64191 0.56268 0.0
C2506 C 0.11927 0.63888 0.55724 0.0
C2507 C 0.19573 0.63286 0.54327 0.0
C2508 C 0.16819 0.63403 0.54742 0.0
H2509 H 0.046 0.61453 0.58374 0.0
H2510 H 0.08743 0.60972 0.57507 0.0
H2511 H 0.14582 0.68789 0.55234 0.0
H2512 H 0.24889 0.66253 0.52361 0.0
H2513 H 0.19784 0.65541 0.52881 0.0
C2514 C 0.37501 0.4176 0.56611 0.0
C2515 C 0.39412 0.42117 0.57461 0.0
C2516 C 0.37846 0.44405 0.56098 0.0
C2517 C 0.4058 0.52817 0.56466 0.0
H2518 H 0.40494 0.52999 0.53482 0.0
C2519 C 0.41477 0.63522 0.5446 0.0
C2520 C 0.39393 0.62884 0.53639 0.0
C2521 C 0.42059 0.61196 0.54814 0.0
C2522 C 0.40499 0.52981 0.54315 0.0
H2523 H 0.43178 0.45541 0.58442 0.0
H2524 H 0.43743 0.50178 0.57557 0.0
H2525 H 0.40262 0.485 0.54352 0.0
H2526 H 0.36453 0.59394 0.52495 0.0
H2527 H 0.3738 0.55277 0.53131 0.0
H2528 H 0.40683 0.57208 0.56442 0.0
C2529 C 0.41982 0.4784 0.57286 0.0
C2530 C 0.40371 0.50403 0.54813 0.0
C2531 C 0.4166 0.45187 0.57793 0.0
C2532 C 0.38089 0.59953 0.53125 0.0
C2533 C 0.38622 0.57592 0.53494 0.0
C2534 C 0.40674 0.55374 0.5597 0.0
C2535 C 0.4009 0.47477 0.56429 0.0
C2536 C 0.40389 0.50283 0.55895 0.0
C2537 C 0.40508 0.58142 0.54372 0.0
C2538 C 0.4062 0.55492 0.54887 0.0
H2539 H 0.35753 0.39429 0.56331 0.0
H2540 H 0.36323 0.44045 0.5545 0.0
H2541 H 0.4055 0.52776 0.57299 0.0
H2542 H 0.42536 0.65777 0.54863 0.0
H2543 H 0.43617 0.61755 0.55467 0.0
C2544 C 0.62689 0.97091 0.56276 0.0
C2545 C 0.62207 0.98319 0.57196 0.0
C2546 C 0.60111 0.9478 0.55708 0.0
C2547 C 0.51733 0.88682 0.56041 0.0
H2548 H 0.51213 0.88806 0.53066 0.0
C2549 C 0.4039 0.79747 0.54099 0.0
C2550 C 0.40708 0.77965 0.53308 0.0
C2551 C 0.42963 0.8264 0.54407 0.0
C2552 C 0.51334 0.8874 0.53896 0.0
H2553 H 0.5865 0.98116 0.58235 0.0
H2554 H 0.54193 0.94139 0.57249 0.0
H2555 H 0.55918 0.92947 0.5396 0.0
H2556 H 0.43854 0.77936 0.52145 0.0
H2557 H 0.48402 0.82993 0.52697 0.0
H2558 H 0.47204 0.8449 0.5599 0.0
C2559 C 0.56548 0.94912 0.56969 0.0
C2560 C 0.54029 0.911 0.54408 0.0
C2561 C 0.59109 0.97206 0.57534 0.0
C2562 C 0.4355 0.7928 0.52755 0.0
C2563 C 0.46156 0.82169 0.53075 0.0
C2564 C 0.49058 0.86346 0.55535 0.0
C2565 C 0.57009 0.93652 0.56054 0.0
C2566 C 0.5424 0.91109 0.55488 0.0
C2567 C 0.45929 0.83782 0.53943 0.0
C2568 C 0.488 0.86358 0.54458 0.0
H2569 H 0.65052 0.9792 0.55994 0.0
H2570 H 0.60545 0.9384 0.55009 0.0
H2571 H 0.51847 0.88567 0.56871 0.0
H2572 H 0.38213 0.78789 0.54532 0.0
H2573 H 0.42684 0.83875 0.55057 0.0
C2574 C 0.33829 0.39799 0.27639 0.0
C2575 C 0.32518 0.39143 0.26645 0.0
C2576 C 0.33632 0.42024 0.28277 0.0
C2577 C 0.32386 0.48823 0.28099 0.0
H2578 H 0.3009 0.47395 0.30986 0.0
C2579 C 0.28734 0.56635 0.30088 0.0
C2580 C 0.3066 0.58373 0.30921 0.0
C2581 C 0.28607 0.53868 0.29752 0.0
C2582 C 0.30742 0.47818 0.30182 0.0
H2583 H 0.29955 0.40281 0.25546 0.0
H2584 H 0.29577 0.44069 0.26647 0.0
H2585 H 0.30843 0.43512 0.30005 0.0
H2586 H 0.33718 0.5844 0.32121 0.0
H2587 H 0.33499 0.53563 0.31529 0.0
H2588 H 0.32239 0.53072 0.2826 0.0
C2589 C 0.30808 0.42933 0.26936 0.0
C2590 C 0.31193 0.45614 0.29622 0.0
C2591 C 0.3101 0.40738 0.26304 0.0
C2592 C 0.32185 0.57114 0.31484 0.0
C2593 C 0.32075 0.54338 0.31142 0.0
C2594 C 0.3191 0.50988 0.2865 0.0
C2595 C 0.32134 0.4363 0.27927 0.0
C2596 C 0.31956 0.46067 0.28567 0.0
C2597 C 0.30434 0.52806 0.30236 0.0
C2598 C 0.31019 0.50483 0.29691 0.0
H2599 H 0.34987 0.38588 0.27925 0.0
H2600 H 0.34687 0.42517 0.29035 0.0
H2601 H 0.33064 0.49299 0.27297 0.0
H2602 H 0.27543 0.57563 0.2964 0.0
H2603 H 0.27277 0.52697 0.29062 0.0
C2604 C 0.63562 0.9586 0.27744 0.0
C2605 C 0.64417 0.95138 0.26789 0.0
C2606 C 0.612 0.93444 0.28344 0.0
C2607 C 0.54377 0.85342 0.28073 0.0
H2608 H 0.55312 0.84454 0.30992 0.0
C2609 C 0.45986 0.73802 0.29972 0.0
C2610 C 0.4433 0.74029 0.30817 0.0
C2611 C 0.48783 0.76439 0.29647 0.0
C2612 C 0.55022 0.8469 0.30179 0.0
H2613 H 0.63482 0.91329 0.25721 0.0
H2614 H 0.59426 0.87171 0.26757 0.0
H2615 H 0.59403 0.89119 0.30074 0.0
H2616 H 0.4443 0.77095 0.32046 0.0
H2617 H 0.4935 0.81747 0.31472 0.0
H2618 H 0.50046 0.80936 0.28162 0.0
C2619 C 0.6053 0.89585 0.27042 0.0
C2620 C 0.57347 0.8736 0.29656 0.0
C2621 C 0.62873 0.91975 0.26449 0.0
C2622 C 0.45684 0.76854 0.31397 0.0
C2623 C 0.48488 0.79518 0.31066 0.0
C2624 C 0.52085 0.8269 0.2859 0.0
C2625 C 0.59646 0.90282 0.27993 0.0
C2626 C 0.57074 0.87672 0.28591 0.0
C2627 C 0.4996 0.79372 0.30154 0.0
C2628 C 0.52408 0.82293 0.29642 0.0
H2629 H 0.64732 0.98277 0.28029 0.0
H2630 H 0.60559 0.9405 0.29074 0.0
H2631 H 0.54053 0.8555 0.2726 0.0
H2632 H 0.44996 0.71645 0.29515 0.0
H2633 H 0.49911 0.76239 0.28956 0.0
C2634 C 0.08522 0.71291 0.27316 0.0
C2635 C 0.09207 0.72972 0.26391 0.0
C2636 C 0.1094 0.71425 0.27913 0.0
C2637 C 0.19683 0.76104 0.28277 0.0
H2638 H 0.18258 0.6857 0.29686 0.0
C2639 C 0.29474 0.73736 0.29517 0.0
C2640 C 0.29159 0.72193 0.30452 0.0
C2641 C 0.27134 0.74324 0.29187 0.0
C2642 C 0.18676 0.70711 0.29313 0.0
H2643 H 0.12963 0.76076 0.25359 0.0
H2644 H 0.1717 0.76216 0.26375 0.0
H2645 H 0.13963 0.68461 0.28736 0.0
H2646 H 0.26234 0.70202 0.31802 0.0
H2647 H 0.22084 0.71182 0.31214 0.0
H2648 H 0.24452 0.7829 0.28816 0.0
C2649 C 0.14777 0.74864 0.2666 0.0
C2650 C 0.16211 0.70653 0.28766 0.0
C2651 C 0.12359 0.74759 0.26069 0.0
C2652 C 0.26545 0.71418 0.31082 0.0
C2653 C 0.24162 0.71952 0.30742 0.0
C2654 C 0.22157 0.76147 0.28814 0.0
C2655 C 0.14106 0.73216 0.27595 0.0
C2656 C 0.16689 0.73335 0.28227 0.0
C2657 C 0.24397 0.73331 0.29776 0.0
C2658 C 0.2169 0.73439 0.29326 0.0
H2659 H 0.06119 0.69918 0.27592 0.0
H2660 H 0.10323 0.70163 0.28634 0.0
H2661 H 0.20131 0.78241 0.27895 0.0
H2662 H 0.31467 0.74357 0.29016 0.0
H2663 H 0.27378 0.75373 0.28438 0.0
loop_
_geom_bond_atom_site_label_1
_geom_bond_atom_site_label_2
_geom_bond_distance
_geom_bond_site_symmetry_2
_ccdc_geom_bond_type
Co0 O1 2.216 . S
Co0 O2 2.091 . S
Co0 O4 2.004 . S
Co0 O10 2.021 . S
Co0 O12 2.137 . S
Co0 O13 2.244 1_545 S
O1 Co0 2.216 . S
O1 C8 1.247 . S
O2 Co0 2.091 . S
O2 C8 1.261 . S
C3 O12 1.247 1_565 S
C3 O13 1.272 . S
O4 Co0 2.004 . S
O4 C9 1.259 . S
Co5 O6 2.061 . S
Co5 O11 2.052 . S
Co5 O13 2.135 . S
O6 Co5 2.061 . S
O6 C9 1.235 1_565 S
C7 O10 1.238 . S
C7 O11 1.241 1_545 S
C8 O1 1.247 . S
C8 O2 1.261 . S
C9 O4 1.259 . S
C9 O6 1.235 1_545 S
O10 Co0 2.021 . S
O10 C7 1.238 . S
O11 Co5 2.052 . S
O11 C7 1.241 1_565 S
O12 Co0 2.137 . S
O12 C3 1.247 1_545 S
O13 Co0 2.244 1_565 S
O13 C3 1.272 . S
O13 Co5 2.135 . S
Co14 O15 2.216 . S
Co14 O16 2.091 . S
Co14 O18 2.004 . S
Co14 O24 2.021 . S
Co14 O26 2.137 . S
Co14 O27 2.244 1_455 S
O15 Co14 2.216 . S
O15 C22 1.247 . S
O16 Co14 2.091 . S
O16 C22 1.261 . S
C17 O26 1.247 1_655 S
C17 O27 1.272 . S
O18 Co14 2.004 . S
O18 C23 1.259 . S
Co19 O20 2.061 . S
Co19 O25 2.052 . S
Co19 O27 2.135 . S
O20 Co19 2.061 . S
O20 C23 1.235 1_655 S
C21 O24 1.238 . S
C21 O25 1.241 1_455 S
C22 O15 1.247 . S
C22 O16 1.261 . S
C23 O18 1.259 . S
C23 O20 1.235 1_455 S
O24 Co14 2.021 . S
O24 C21 1.238 . S
O25 Co19 2.052 . S
O25 C21 1.241 1_655 S
O26 Co14 2.137 . S
O26 C17 1.247 1_455 S
O27 Co14 2.244 1_655 S
O27 C17 1.272 . S
O27 Co19 2.135 . S
Co28 O29 2.216 . S
Co28 O30 2.091 . S
Co28 O32 2.004 . S
Co28 O38 2.021 . S
Co28 O40 2.137 . S
Co28 O41 2.244 . S
O29 Co28 2.216 . S
O29 C36 1.247 . S
O30 Co28 2.091 . S
O30 C36 1.261 . S
C31 O40 1.247 . S
C31 O41 1.272 . S
O32 Co28 2.004 . S
O32 C37 1.259 . S
Co33 O34 2.061 . S
Co33 O39 2.052 . S
Co33 O41 2.135 . S
O34 Co33 2.061 . S
O34 C37 1.235 . S
C35 O38 1.238 . S
C35 O39 1.241 . S
C36 O29 1.247 . S
C36 O30 1.261 . S
C37 O32 1.259 . S
C37 O34 1.235 . S
O38 Co28 2.021 . S
O38 C35 1.238 . S
O39 Co33 2.052 . S
O39 C35 1.241 . S
O40 Co28 2.137 . S
O40 C31 1.247 . S
O41 Co28 2.244 . S
O41 C31 1.272 . S
O41 Co33 2.135 . S
Co42 O43 2.216 . S
Co42 O44 2.091 1_545 S
Co42 O46 2.004 . S
Co42 O52 2.021 . S
Co42 O54 2.137 . S
Co42 O55 2.244 . S
O43 Co42 2.216 . S
O43 C50 1.247 1_545 S
O44 Co42 2.091 1_565 S
O44 C50 1.261 . S
C45 O54 1.247 . S
C45 O55 1.272 . S
O46 Co42 2.004 . S
O46 C51 1.259 . S
Co47 O48 2.061 . S
Co47 O53 2.052 . S
Co47 O55 2.135 . S
O48 Co47 2.061 . S
O48 C51 1.235 . S
C49 O52 1.238 . S
C49 O53 1.241 . S
C50 O43 1.247 1_565 S
C50 O44 1.261 . S
C51 O46 1.259 . S
C51 O48 1.235 . S
O52 Co42 2.021 . S
O52 C49 1.238 . S
O53 Co47 2.052 . S
O53 C49 1.241 . S
O54 Co42 2.137 . S
O54 C45 1.247 . S
O55 Co42 2.244 . S
O55 C45 1.272 . S
O55 Co47 2.135 . S
Co56 O57 2.214 . S
Co56 O58 2.091 1_455 S
Co56 O60 2.004 . S
Co56 O66 2.021 . S
Co56 O68 2.137 . S
Co56 O69 2.244 . S
O57 Co56 2.214 . S
O57 C64 1.251 1_455 S
O58 Co56 2.091 1_655 S
O58 C64 1.261 . S
C59 O68 1.247 . S
C59 O69 1.272 . S
O60 Co56 2.004 . S
O60 C65 1.259 . S
Co61 O62 2.061 . S
Co61 O67 2.052 . S
Co61 O69 2.135 . S
O62 Co61 2.061 . S
O62 C65 1.235 . S
C63 O66 1.238 . S
C63 O67 1.241 . S
C64 O57 1.251 1_655 S
C64 O58 1.261 . S
C65 O60 1.259 . S
C65 O62 1.235 . S
O66 Co56 2.021 . S
O66 C63 1.238 . S
O67 Co61 2.052 . S
O67 C63 1.241 . S
O68 Co56 2.137 . S
O68 C59 1.247 . S
O69 Co56 2.244 . S
O69 C59 1.272 . S
O69 Co61 2.135 . S
Co70 O71 2.216 . S
Co70 O72 2.091 . S
Co70 O74 2.004 . S
Co70 O80 2.021 . S
Co70 O82 2.137 . S
Co70 O83 2.244 . S
O71 Co70 2.216 . S
O71 C78 1.247 . S
O72 Co70 2.091 . S
O72 C78 1.261 . S
C73 O82 1.247 . S
C73 O83 1.272 . S
O74 Co70 2.004 . S
O74 C79 1.259 . S
Co75 O76 2.061 . S
Co75 O81 2.052 . S
Co75 O83 2.135 . S
O76 Co75 2.061 . S
O76 C79 1.235 . S
C77 O80 1.238 . S
C77 O81 1.241 . S
C78 O71 1.247 . S
C78 O72 1.261 . S
C79 O74 1.259 . S
C79 O76 1.235 . S
O80 Co70 2.021 . S
O80 C77 1.238 . S
O81 Co75 2.052 . S
O81 C77 1.241 . S
O82 Co70 2.137 . S
O82 C73 1.247 . S
O83 Co70 2.244 . S
O83 C73 1.272 . S
O83 Co75 2.135 . S
Co84 O85 2.216 . S
Co84 O86 2.091 . S
Co84 O88 2.004 . S
Co84 O94 2.021 . S
Co84 O96 2.137 . S
Co84 O97 2.244 . S
O85 Co84 2.216 . S
O85 C92 1.247 . S
O86 Co84 2.091 . S
O86 C92 1.261 . S
C87 O96 1.247 . S
C87 O97 1.272 . S
O88 Co84 2.004 . S
O88 C93 1.259 . S
Co89 O90 2.061 . S
Co89 O95 2.052 . S
Co89 O97 2.135 . S
O90 Co89 2.061 . S
O90 C93 1.235 . S
C91 O94 1.238 . S
C91 O95 1.241 . S
C92 O85 1.247 . S
C92 O86 1.261 . S
C93 O88 1.259 . S
C93 O90 1.235 . S
O94 Co84 2.021 . S
O94 C91 1.238 . S
O95 Co89 2.052 . S
O95 C91 1.241 . S
O96 Co84 2.137 . S
O96 C87 1.247 . S
O97 Co84 2.244 . S
O97 C87 1.272 . S
O97 Co89 2.135 . S
Co98 O99 2.216 . S
Co98 O100 2.091 . S
Co98 O102 2.004 . S
Co98 O108 2.021 . S
Co98 O110 2.137 . S
Co98 O111 2.244 . S
O99 Co98 2.216 . S
O99 C106 1.247 . S
O100 Co98 2.091 . S
O100 C106 1.261 . S
C101 O110 1.247 . S
C101 O111 1.272 . S
O102 Co98 2.004 . S
O102 C107 1.259 . S
Co103 O104 2.061 . S
Co103 O109 2.052 . S
Co103 O111 2.135 . S
O104 Co103 2.061 . S
O104 C107 1.235 . S
C105 O108 1.238 . S
C105 O109 1.241 . S
C106 O99 1.247 . S
C106 O100 1.261 . S
C107 O102 1.259 . S
C107 O104 1.235 . S
O108 Co98 2.021 . S
O108 C105 1.238 . S
O109 Co103 2.052 . S
O109 C105 1.241 . S
O110 Co98 2.137 . S
O110 C101 1.247 . S
O111 Co98 2.244 . S
O111 C101 1.272 . S
O111 Co103 2.135 . S
Co112 O113 2.216 1_655 S
Co112 O114 2.091 1_655 S
Co112 O116 2.004 . S
Co112 O122 2.021 . S
Co112 O124 2.138 . S
Co112 O125 2.244 . S
O113 Co112 2.216 1_455 S
O113 C120 1.247 . S
O114 Co112 2.091 1_455 S
O114 C120 1.261 . S
C115 O124 1.257 . S
C115 O125 1.272 . S
O116 Co112 2.004 . S
O116 C121 1.259 . S
Co117 O118 2.061 . S
Co117 O123 2.052 . S
Co117 O125 2.135 . S
O118 Co117 2.061 . S
O118 C121 1.235 . S
C119 O122 1.238 . S
C119 O123 1.241 . S
C120 O113 1.247 . S
C120 O114 1.261 . S
C121 O116 1.259 . S
C121 O118 1.235 . S
O122 Co112 2.021 . S
O122 C119 1.238 . S
O123 Co117 2.052 . S
O123 C119 1.241 . S
O124 Co112 2.138 . S
O124 C115 1.257 . S
O125 Co112 2.244 . S
O125 C115 1.272 . S
O125 Co117 2.135 . S
Co126 O127 2.216 . S
Co126 O128 2.091 . S
Co126 O130 2.004 . S
Co126 O136 2.021 . S
Co126 O138 2.137 1_655 S
Co126 O139 2.244 . S
O127 Co126 2.216 . S
O127 C134 1.247 . S
O128 Co126 2.091 . S
O128 C134 1.261 . S
C129 O138 1.247 . S
C129 O139 1.272 1_455 S
O130 Co126 2.004 . S
O130 C135 1.259 . S
Co131 O132 2.061 . S
Co131 O137 2.052 . S
Co131 O139 2.135 . S
O132 Co131 2.061 . S
O132 C135 1.235 . S
C133 O136 1.238 . S
C133 O137 1.241 . S
C134 O127 1.247 . S
C134 O128 1.261 . S
C135 O130 1.259 . S
C135 O132 1.235 . S
O136 Co126 2.021 . S
O136 C133 1.238 . S
O137 Co131 2.052 . S
O137 C133 1.241 . S
O138 Co126 2.137 1_455 S
O138 C129 1.247 . S
O139 Co126 2.244 . S
O139 C129 1.272 1_655 S
O139 Co131 2.135 . S
Co140 O141 2.216 . S
Co140 O142 2.091 . S
Co140 O144 2.004 . S
Co140 O150 2.021 . S
Co140 O152 2.137 . S
Co140 O153 2.244 . S
O141 Co140 2.216 . S
O141 C148 1.247 . S
O142 Co140 2.091 . S
O142 C148 1.261 . S
C143 O152 1.247 . S
C143 O153 1.272 . S
O144 Co140 2.004 . S
O144 C149 1.259 . S
Co145 O146 2.061 . S
Co145 O151 2.052 . S
Co145 O153 2.135 . S
O146 Co145 2.061 . S
O146 C149 1.235 . S
C147 O150 1.238 . S
C147 O151 1.241 . S
C148 O141 1.247 . S
C148 O142 1.261 . S
C149 O144 1.259 . S
C149 O146 1.235 . S
O150 Co140 2.021 . S
O150 C147 1.238 . S
O151 Co145 2.052 . S
O151 C147 1.241 . S
O152 Co140 2.137 . S
O152 C143 1.247 . S
O153 Co140 2.244 . S
O153 C143 1.272 . S
O153 Co145 2.135 . S
Co154 O155 2.216 . S
Co154 O156 2.091 . S
Co154 O158 2.004 . S
Co154 O164 2.021 . S
Co154 O166 2.137 . S
Co154 O167 2.244 . S
O155 Co154 2.216 . S
O155 C162 1.247 . S
O156 Co154 2.091 . S
O156 C162 1.261 . S
C157 O166 1.247 . S
C157 O167 1.272 . S
O158 Co154 2.004 . S
O158 C163 1.259 . S
Co159 O160 2.061 . S
Co159 O165 2.052 . S
Co159 O167 2.135 . S
O160 Co159 2.061 . S
O160 C163 1.235 . S
C161 O164 1.238 . S
C161 O165 1.241 . S
C162 O155 1.247 . S
C162 O156 1.261 . S
C163 O158 1.259 . S
C163 O160 1.235 . S
O164 Co154 2.021 . S
O164 C161 1.238 . S
O165 Co159 2.052 . S
O165 C161 1.241 . S
O166 Co154 2.137 . S
O166 C157 1.247 . S
O167 Co154 2.244 . S
O167 C157 1.272 . S
O167 Co159 2.135 . S
Co168 O169 2.216 . S
Co168 O170 2.091 . S
Co168 O172 2.004 . S
Co168 O178 2.021 . S
Co168 O180 2.137 . S
Co168 O181 2.244 . S
O169 Co168 2.216 . S
O169 C176 1.247 . S
O170 Co168 2.091 . S
O170 C176 1.261 . S
C171 O180 1.247 . S
C171 O181 1.272 . S
O172 Co168 2.004 . S
O172 C177 1.259 . S
Co173 O174 2.061 . S
Co173 O179 2.052 . S
Co173 O181 2.135 . S
O174 Co173 2.061 . S
O174 C177 1.235 . S
C175 O178 1.238 . S
C175 O179 1.241 . S
C176 O169 1.247 . S
C176 O170 1.261 . S
C177 O172 1.259 . S
C177 O174 1.235 . S
O178 Co168 2.021 . S
O178 C175 1.238 . S
O179 Co173 2.052 . S
O179 C175 1.241 . S
O180 Co168 2.137 . S
O180 C171 1.247 . S
O181 Co168 2.244 . S
O181 C171 1.272 . S
O181 Co173 2.135 . S
Co182 O183 2.216 . S
Co182 O184 2.091 . S
Co182 O186 2.004 . S
Co182 O192 2.021 . S
Co182 O194 2.137 . S
Co182 O195 2.244 . S
O183 Co182 2.216 . S
O183 C190 1.247 . S
O184 Co182 2.091 . S
O184 C190 1.261 . S
C185 O194 1.247 . S
C185 O195 1.272 . S
O186 Co182 2.004 . S
O186 C191 1.259 . S
Co187 O188 2.061 . S
Co187 O193 2.052 . S
Co187 O195 2.135 . S
O188 Co187 2.061 . S
O188 C191 1.235 . S
C189 O192 1.238 . S
C189 O193 1.241 . S
C190 O183 1.247 . S
C190 O184 1.261 . S
C191 O186 1.259 . S
C191 O188 1.235 . S
O192 Co182 2.021 . S
O192 C189 1.238 . S
O193 Co187 2.052 . S
O193 C189 1.241 . S
O194 Co182 2.137 . S
O194 C185 1.247 . S
O195 Co182 2.244 . S
O195 C185 1.272 . S
O195 Co187 2.135 . S
Co196 O197 2.216 . S
Co196 O198 2.091 . S
Co196 O200 2.004 . S
Co196 O206 2.021 . S
Co196 O208 2.137 1_565 S
Co196 O209 2.244 1_565 S
O197 Co196 2.216 . S
O197 C204 1.247 . S
O198 Co196 2.091 . S
O198 C204 1.261 . S
C199 O208 1.247 . S
C199 O209 1.272 . S
O200 Co196 2.004 . S
O200 C205 1.259 . S
Co201 O202 2.061 . S
Co201 O207 2.052 . S
Co201 O209 2.135 1_565 S
O202 Co201 2.061 . S
O202 C205 1.235 . S
C203 O206 1.238 . S
C203 O207 1.241 . S
C204 O197 1.247 . S
C204 O198 1.261 . S
C205 O200 1.259 . S
C205 O202 1.235 . S
O206 Co196 2.021 . S
O206 C203 1.238 . S
O207 Co201 2.052 . S
O207 C203 1.241 . S
O208 Co196 2.137 1_545 S
O208 C199 1.247 . S
O209 Co196 2.244 1_545 S
O209 C199 1.272 . S
O209 Co201 2.135 1_545 S
Co210 O211 2.216 . S
Co210 O212 2.091 . S
Co210 O214 2.004 . S
Co210 O220 2.021 . S
Co210 O222 2.137 . S
Co210 O223 2.244 . S
O211 Co210 2.216 . S
O211 C218 1.247 . S
O212 Co210 2.091 . S
O212 C218 1.261 . S
C213 O222 1.247 . S
C213 O223 1.272 . S
O214 Co210 2.004 . S
O214 C219 1.259 . S
Co215 O216 2.061 . S
Co215 O221 2.052 . S
Co215 O223 2.135 . S
O216 Co215 2.061 . S
O216 C219 1.235 . S
C217 O220 1.238 . S
C217 O221 1.241 . S
C218 O211 1.247 . S
C218 O212 1.261 . S
C219 O214 1.259 . S
C219 O216 1.235 . S
O220 Co210 2.021 . S
O220 C217 1.238 . S
O221 Co215 2.052 . S
O221 C217 1.241 . S
O222 Co210 2.137 . S
O222 C213 1.247 . S
O223 Co210 2.244 . S
O223 C213 1.272 . S
O223 Co215 2.135 . S
Co224 O225 2.216 . S
Co224 O226 2.091 . S
Co224 O228 2.004 . S
Co224 O234 2.021 . S
Co224 O236 2.137 1_565 S
Co224 O237 2.244 1_565 S
O225 Co224 2.216 . S
O225 C232 1.247 . S
O226 Co224 2.091 . S
O226 C232 1.261 . S
C227 O236 1.247 . S
C227 O237 1.272 . S
O228 Co224 2.004 . S
O228 C233 1.259 . S
Co229 O230 2.061 . S
Co229 O235 2.052 . S
Co229 O237 2.135 1_565 S
O230 Co229 2.061 . S
O230 C233 1.235 . S
C231 O234 1.238 . S
C231 O235 1.241 . S
C232 O225 1.247 . S
C232 O226 1.261 . S
C233 O228 1.259 . S
C233 O230 1.235 . S
O234 Co224 2.021 . S
O234 C231 1.238 . S
O235 Co229 2.052 . S
O235 C231 1.241 . S
O236 Co224 2.137 1_545 S
O236 C227 1.247 . S
O237 Co224 2.244 1_545 S
O237 C227 1.272 . S
O237 Co229 2.135 1_545 S
Co238 O239 2.216 . S
Co238 O240 2.091 . S
Co238 O242 2.004 . S
Co238 O248 2.021 . S
Co238 O250 2.137 . S
Co238 O251 2.244 . S
O239 Co238 2.216 . S
O239 C246 1.247 . S
O240 Co238 2.091 . S
O240 C246 1.261 . S
C241 O250 1.247 . S
C241 O251 1.272 . S
O242 Co238 2.004 . S
O242 C247 1.259 . S
Co243 O244 2.061 . S
Co243 O249 2.052 . S
Co243 O251 2.135 . S
O244 Co243 2.061 . S
O244 C247 1.235 . S
C245 O248 1.238 . S
C245 O249 1.241 . S
C246 O239 1.247 . S
C246 O240 1.261 . S
C247 O242 1.259 . S
C247 O244 1.235 . S
O248 Co238 2.021 . S
O248 C245 1.238 . S
O249 Co243 2.052 . S
O249 C245 1.241 . S
O250 Co238 2.137 . S
O250 C241 1.247 . S
O251 Co238 2.244 . S
O251 C241 1.272 . S
O251 Co243 2.135 . S
Zn252 O258 1.920 1_455 S
Zn252 O264 1.898 1_445 S
Zn252 O267 1.905 . S
Zn253 O261 1.905 1_545 S
Zn253 O262 1.898 . S
Zn253 O270 1.920 1_455 S
Zn254 O257 2.080 . S
Zn254 O260 2.114 1_545 S
Zn254 O263 2.120 . S
Zn254 O265 2.120 1_445 S
Zn254 O266 2.114 . S
Zn254 O269 2.080 1_455 S
C255 O260 1.166 . S
C255 O261 1.182 . S
C256 O262 1.167 . S
C256 O263 1.299 . S
O257 Zn254 2.080 . S
O257 C271 1.311 . S
O258 Zn252 1.920 1_655 S
O258 C271 1.235 1_655 S
C259 O264 1.167 . S
C259 O265 1.299 . S
O260 Zn254 2.114 1_565 S
O260 C255 1.166 . S
O261 Zn253 1.905 1_565 S
O261 C255 1.182 . S
O262 Zn253 1.898 . S
O262 C256 1.167 . S
O263 Zn254 2.120 . S
O263 C256 1.299 . S
O264 Zn252 1.898 1_665 S
O264 C259 1.167 . S
O265 Zn254 2.120 1_665 S
O265 C259 1.299 . S
O266 Zn254 2.114 . S
O266 C268 1.166 . S
O267 Zn252 1.905 . S
O267 C268 1.182 . S
C268 O266 1.166 . S
C268 O267 1.182 . S
O269 Zn254 2.080 1_655 S
O269 C272 1.305 . S
O270 Zn253 1.920 1_655 S
O270 C272 1.234 . S
C271 O257 1.311 . S
C271 O258 1.235 1_455 S
C272 O269 1.305 . S
C272 O270 1.234 . S
Zn273 O279 1.920 1_545 S
Zn273 O285 1.898 . S
Zn273 O288 1.905 1_455 S
Zn274 O282 1.905 . S
Zn274 O283 1.898 1_445 S
Zn274 O291 1.920 . S
Zn275 O278 2.080 1_545 S
Zn275 O281 2.114 . S
Zn275 O284 2.120 1_445 S
Zn275 O286 2.120 . S
Zn275 O287 2.114 1_455 S
Zn275 O290 2.080 . S
C276 O281 1.166 . S
C276 O282 1.182 . S
C277 O283 1.167 . S
C277 O284 1.299 . S
O278 Zn275 2.080 1_565 S
O278 C292 1.305 . S
O279 Zn273 1.920 1_565 S
O279 C292 1.234 . S
C280 O285 1.167 . S
C280 O286 1.299 . S
O281 Zn275 2.114 . S
O281 C276 1.166 . S
O282 Zn274 1.905 . S
O282 C276 1.182 . S
O283 Zn274 1.898 1_665 S
O283 C277 1.167 . S
O284 Zn275 2.120 1_665 S
O284 C277 1.299 . S
O285 Zn273 1.898 . S
O285 C280 1.167 . S
O286 Zn275 2.120 . S
O286 C280 1.299 . S
O287 Zn275 2.114 1_655 S
O287 C289 1.166 . S
O288 Zn273 1.905 1_655 S
O288 C289 1.182 . S
C289 O287 1.166 . S
C289 O288 1.182 . S
O290 Zn275 2.080 . S
O290 C293 1.305 . S
O291 Zn274 1.920 . S
O291 C293 1.234 . S
C292 O278 1.305 . S
C292 O279 1.234 . S
C293 O290 1.305 . S
C293 O291 1.234 . S
Zn294 O300 1.920 1_545 S
Zn294 O306 1.898 . S
Zn294 O309 1.905 1_455 S
Zn295 O303 1.905 . S
Zn295 O304 1.898 1_445 S
Zn295 O312 1.920 . S
Zn296 O299 2.080 1_545 S
Zn296 O302 2.114 . S
Zn296 O305 2.120 1_445 S
Zn296 O307 2.120 . S
Zn296 O308 2.114 1_455 S
Zn296 O311 2.080 . S
C297 O302 1.166 . S
C297 O303 1.182 . S
C298 O304 1.167 . S
C298 O305 1.299 . S
O299 Zn296 2.080 1_565 S
O299 C313 1.305 . S
O300 Zn294 1.920 1_565 S
O300 C313 1.234 . S
C301 O306 1.167 . S
C301 O307 1.299 . S
O302 Zn296 2.114 . S
O302 C297 1.166 . S
O303 Zn295 1.905 . S
O303 C297 1.182 . S
O304 Zn295 1.898 1_665 S
O304 C298 1.167 . S
O305 Zn296 2.120 1_665 S
O305 C298 1.299 . S
O306 Zn294 1.898 . S
O306 C301 1.167 . S
O307 Zn296 2.120 . S
O307 C301 1.299 . S
O308 Zn296 2.114 1_655 S
O308 C310 1.166 . S
O309 Zn294 1.905 1_655 S
O309 C310 1.182 . S
C310 O308 1.166 . S
C310 O309 1.182 . S
O311 Zn296 2.080 . S
O311 C314 1.305 . S
O312 Zn295 1.920 . S
O312 C314 1.234 . S
C313 O299 1.305 . S
C313 O300 1.234 . S
C314 O311 1.305 . S
C314 O312 1.234 . S
Zn315 O321 1.920 . S
Zn315 O327 1.898 1_445 S
Zn315 O330 1.905 . S
Zn316 O324 1.901 1_545 S
Zn316 O325 1.898 . S
Zn316 O333 1.920 1_455 S
Zn317 O320 2.080 . S
Zn317 O323 2.114 1_545 S
Zn317 O326 2.120 . S
Zn317 O328 2.120 1_445 S
Zn317 O329 2.114 . S
Zn317 O332 2.080 1_455 S
C318 O323 1.166 . S
C318 O324 1.194 . S
C319 O325 1.167 . S
C319 O326 1.299 . S
O320 Zn317 2.080 . S
O320 C334 1.305 . S
O321 Zn315 1.920 . S
O321 C334 1.234 . S
C322 O327 1.167 . S
C322 O328 1.299 . S
O323 Zn317 2.114 1_565 S
O323 C318 1.166 . S
O324 Zn316 1.901 1_565 S
O324 C318 1.194 . S
O325 Zn316 1.898 . S
O325 C319 1.167 . S
O326 Zn317 2.120 . S
O326 C319 1.299 . S
O327 Zn315 1.898 1_665 S
O327 C322 1.167 . S
O328 Zn317 2.120 1_665 S
O328 C322 1.299 . S
O329 Zn317 2.114 . S
O329 C331 1.166 . S
O330 Zn315 1.905 . S
O330 C331 1.182 . S
C331 O329 1.166 . S
C331 O330 1.182 . S
O332 Zn317 2.080 1_655 S
O332 C335 1.305 . S
O333 Zn316 1.920 1_655 S
O333 C335 1.234 . S
C334 O320 1.305 . S
C334 O321 1.234 . S
C335 O332 1.305 . S
C335 O333 1.234 . S
Zn336 O342 1.920 . S
Zn336 O348 1.898 . S
Zn336 O351 1.905 . S
Zn337 O345 1.905 . S
Zn337 O346 1.898 . S
Zn337 O354 1.920 . S
Zn338 O341 2.080 . S
Zn338 O344 2.114 . S
Zn338 O347 2.120 . S
Zn338 O349 2.120 . S
Zn338 O350 2.114 . S
Zn338 O353 2.080 . S
C339 O344 1.166 . S
C339 O345 1.182 . S
C340 O346 1.167 . S
C340 O347 1.299 . S
O341 Zn338 2.080 . S
O341 C355 1.305 . S
O342 Zn336 1.920 . S
O342 C355 1.234 . S
C343 O348 1.167 . S
C343 O349 1.299 . S
O344 Zn338 2.114 . S
O344 C339 1.166 . S
O345 Zn337 1.905 . S
O345 C339 1.182 . S
O346 Zn337 1.898 . S
O346 C340 1.167 . S
O347 Zn338 2.120 . S
O347 C340 1.299 . S
O348 Zn336 1.898 . S
O348 C343 1.167 . S
O349 Zn338 2.120 . S
O349 C343 1.299 . S
O350 Zn338 2.114 . S
O350 C352 1.166 . S
O351 Zn336 1.905 . S
O351 C352 1.182 . S
C352 O350 1.166 . S
C352 O351 1.182 . S
O353 Zn338 2.080 . S
O353 C356 1.305 . S
O354 Zn337 1.920 . S
O354 C356 1.234 . S
C355 O341 1.305 . S
C355 O342 1.234 . S
C356 O353 1.305 . S
C356 O354 1.234 . S
Zn357 O363 1.920 . S
Zn357 O369 1.898 . S
Zn357 O372 1.905 . S
Zn358 O366 1.905 . S
Zn358 O367 1.898 . S
Zn358 O375 1.920 . S
Zn359 O362 2.080 . S
Zn359 O365 2.114 . S
Zn359 O368 2.120 . S
Zn359 O370 2.120 . S
Zn359 O371 2.114 . S
Zn359 O374 2.080 . S
C360 O365 1.166 . S
C360 O366 1.182 . S
C361 O367 1.167 . S
C361 O368 1.299 . S
O362 Zn359 2.080 . S
O362 C376 1.305 . S
O363 Zn357 1.920 . S
O363 C376 1.234 . S
C364 O369 1.167 . S
C364 O370 1.299 . S
O365 Zn359 2.114 . S
O365 C360 1.166 . S
O366 Zn358 1.905 . S
O366 C360 1.182 . S
O367 Zn358 1.898 . S
O367 C361 1.167 . S
O368 Zn359 2.120 . S
O368 C361 1.299 . S
O369 Zn357 1.898 . S
O369 C364 1.167 . S
O370 Zn359 2.120 . S
O370 C364 1.299 . S
O371 Zn359 2.114 . S
O371 C373 1.166 . S
O372 Zn357 1.905 . S
O372 C373 1.182 . S
C373 O371 1.166 . S
C373 O372 1.182 . S
O374 Zn359 2.080 . S
O374 C377 1.305 . S
O375 Zn358 1.920 . S
O375 C377 1.234 . S
C376 O362 1.305 . S
C376 O363 1.234 . S
C377 O374 1.305 . S
C377 O375 1.234 . S
Zn378 O384 1.920 . S
Zn378 O390 1.898 . S
Zn378 O393 1.905 . S
Zn379 O387 1.905 . S
Zn379 O388 1.898 . S
Zn379 O396 1.920 . S
Zn380 O383 2.080 . S
Zn380 O386 2.114 . S
Zn380 O389 2.120 . S
Zn380 O391 2.120 . S
Zn380 O392 2.114 . S
Zn380 O395 2.080 . S
C381 O386 1.166 . S
C381 O387 1.182 . S
C382 O388 1.167 . S
C382 O389 1.299 . S
O383 Zn380 2.080 . S
O383 C397 1.305 . S
O384 Zn378 1.920 . S
O384 C397 1.234 . S
C385 O390 1.167 . S
C385 O391 1.299 . S
O386 Zn380 2.114 . S
O386 C381 1.166 . S
O387 Zn379 1.905 . S
O387 C381 1.182 . S
O388 Zn379 1.898 . S
O388 C382 1.167 . S
O389 Zn380 2.120 . S
O389 C382 1.299 . S
O390 Zn378 1.898 . S
O390 C385 1.167 . S
O391 Zn380 2.120 . S
O391 C385 1.299 . S
O392 Zn380 2.114 . S
O392 C394 1.166 . S
O393 Zn378 1.905 . S
O393 C394 1.182 . S
C394 O392 1.166 . S
C394 O393 1.182 . S
O395 Zn380 2.080 . S
O395 C398 1.305 . S
O396 Zn379 1.920 . S
O396 C398 1.234 . S
C397 O383 1.305 . S
C397 O384 1.234 . S
C398 O395 1.305 . S
C398 O396 1.234 . S
Zn399 O405 1.920 . S
Zn399 O411 1.898 . S
Zn399 O414 1.905 . S
Zn400 O408 1.905 . S
Zn400 O409 1.898 . S
Zn400 O417 1.920 . S
Zn401 O404 2.080 . S
Zn401 O407 2.114 . S
Zn401 O410 2.120 . S
Zn401 O412 2.120 . S
Zn401 O413 2.114 . S
Zn401 O416 2.080 . S
C402 O407 1.166 . S
C402 O408 1.182 . S
C403 O409 1.167 . S
C403 O410 1.299 . S
O404 Zn401 2.080 . S
O404 C418 1.301 . S
O405 Zn399 1.920 . S
O405 C418 1.239 1_554 S
C406 O411 1.161 1_556 S
C406 O412 1.304 . S
O407 Zn401 2.114 . S
O407 C402 1.166 . S
O408 Zn400 1.905 . S
O408 C402 1.182 . S
O409 Zn400 1.898 . S
O409 C403 1.167 . S
O410 Zn401 2.120 . S
O410 C403 1.299 . S
O411 Zn399 1.898 . S
O411 C406 1.161 1_554 S
O412 Zn401 2.120 . S
O412 C406 1.304 . S
O413 Zn401 2.114 . S
O413 C415 1.210 . S
O414 Zn399 1.905 . S
O414 C415 1.133 1_554 S
C415 O413 1.210 . S
C415 O414 1.133 1_556 S
O416 Zn401 2.080 . S
O416 C419 1.305 . S
O417 Zn400 1.920 . S
O417 C419 1.234 . S
C418 O404 1.301 . S
C418 O405 1.239 1_556 S
C419 O416 1.305 . S
C419 O417 1.234 . S
Zn420 O426 1.920 . S
Zn420 O432 1.898 . S
Zn420 O435 1.905 . S
Zn421 O429 1.905 . S
Zn421 O430 1.898 . S
Zn421 O438 1.920 . S
Zn422 O425 2.080 . S
Zn422 O428 2.114 . S
Zn422 O431 2.120 . S
Zn422 O433 2.120 . S
Zn422 O434 2.114 . S
Zn422 O437 2.080 . S
C423 O428 1.166 . S
C423 O429 1.182 . S
C424 O430 1.167 . S
C424 O431 1.299 . S
O425 Zn422 2.080 . S
O425 C439 1.305 . S
O426 Zn420 1.920 . S
O426 C439 1.234 . S
C427 O432 1.167 . S
C427 O433 1.299 . S
O428 Zn422 2.114 . S
O428 C423 1.166 . S
O429 Zn421 1.905 . S
O429 C423 1.182 . S
O430 Zn421 1.898 . S
O430 C424 1.167 . S
O431 Zn422 2.120 . S
O431 C424 1.299 . S
O432 Zn420 1.898 . S
O432 C427 1.167 . S
O433 Zn422 2.120 . S
O433 C427 1.299 . S
O434 Zn422 2.114 . S
O434 C436 1.166 . S
O435 Zn420 1.905 . S
O435 C436 1.182 . S
C436 O434 1.166 . S
C436 O435 1.182 . S
O437 Zn422 2.080 . S
O437 C440 1.305 . S
O438 Zn421 1.920 . S
O438 C440 1.234 . S
C439 O425 1.305 . S
C439 O426 1.234 . S
C440 O437 1.305 . S
C440 O438 1.234 . S
Zn441 O447 1.920 . S
Zn441 O453 1.898 . S
Zn441 O456 1.905 . S
Zn442 O450 1.905 . S
Zn442 O451 1.898 . S
Zn442 O459 1.920 . S
Zn443 O446 2.080 . S
Zn443 O449 2.114 . S
Zn443 O452 2.120 . S
Zn443 O454 2.120 . S
Zn443 O455 2.114 . S
Zn443 O458 2.080 . S
C444 O449 1.210 . S
C444 O450 1.132 1_554 S
C445 O451 1.160 1_554 S
C445 O452 1.304 . S
O446 Zn443 2.080 . S
O446 C460 1.305 . S
O447 Zn441 1.920 . S
O447 C460 1.234 . S
C448 O453 1.167 . S
C448 O454 1.299 . S
O449 Zn443 2.114 . S
O449 C444 1.210 . S
O450 Zn442 1.905 . S
O450 C444 1.132 1_556 S
O451 Zn442 1.898 . S
O451 C445 1.160 1_556 S
O452 Zn443 2.120 . S
O452 C445 1.304 . S
O453 Zn441 1.898 . S
O453 C448 1.167 . S
O454 Zn443 2.120 . S
O454 C448 1.299 . S
O455 Zn443 2.114 . S
O455 C457 1.166 . S
O456 Zn441 1.905 . S
O456 C457 1.182 . S
C457 O455 1.166 . S
C457 O456 1.182 . S
O458 Zn443 2.080 . S
O458 C461 1.301 . S
O459 Zn442 1.920 . S
O459 C461 1.239 1_556 S
C460 O446 1.305 . S
C460 O447 1.234 . S
C461 O458 1.301 . S
C461 O459 1.239 1_554 S
Zn462 O468 1.920 . S
Zn462 O474 1.898 . S
Zn462 O477 1.905 . S
Zn463 O471 1.905 . S
Zn463 O472 1.898 . S
Zn463 O480 1.920 . S
Zn464 O467 2.080 . S
Zn464 O470 2.114 . S
Zn464 O473 2.120 . S
Zn464 O475 2.120 . S
Zn464 O476 2.114 . S
Zn464 O479 2.080 . S
C465 O470 1.166 . S
C465 O471 1.182 . S
C466 O472 1.167 . S
C466 O473 1.299 . S
O467 Zn464 2.080 . S
O467 C481 1.305 . S
O468 Zn462 1.920 . S
O468 C481 1.234 . S
C469 O474 1.167 . S
C469 O475 1.299 . S
O470 Zn464 2.114 . S
O470 C465 1.166 . S
O471 Zn463 1.905 . S
O471 C465 1.182 . S
O472 Zn463 1.898 . S
O472 C466 1.167 . S
O473 Zn464 2.120 . S
O473 C466 1.299 . S
O474 Zn462 1.898 . S
O474 C469 1.167 . S
O475 Zn464 2.120 . S
O475 C469 1.299 . S
O476 Zn464 2.114 . S
O476 C478 1.166 . S
O477 Zn462 1.905 . S
O477 C478 1.182 . S
C478 O476 1.166 . S
C478 O477 1.182 . S
O479 Zn464 2.080 . S
O479 C482 1.305 . S
O480 Zn463 1.920 . S
O480 C482 1.234 . S
C481 O467 1.305 . S
C481 O468 1.234 . S
C482 O479 1.305 . S
C482 O480 1.234 . S
Zn483 O489 1.920 . S
Zn483 O495 1.898 . S
Zn483 O498 1.905 . S
Zn484 O492 1.905 . S
Zn484 O493 1.898 . S
Zn484 O501 1.920 . S
Zn485 O488 2.080 . S
Zn485 O491 2.114 . S
Zn485 O494 2.120 . S
Zn485 O496 2.120 . S
Zn485 O497 2.114 . S
Zn485 O500 2.080 . S
C486 O491 1.166 . S
C486 O492 1.182 . S
C487 O493 1.167 . S
C487 O494 1.299 . S
O488 Zn485 2.080 . S
O488 C502 1.305 . S
O489 Zn483 1.920 . S
O489 C502 1.234 . S
C490 O495 1.167 . S
C490 O496 1.299 . S
O491 Zn485 2.114 . S
O491 C486 1.166 . S
O492 Zn484 1.905 . S
O492 C486 1.182 . S
O493 Zn484 1.898 . S
O493 C487 1.167 . S
O494 Zn485 2.120 . S
O494 C487 1.299 . S
O495 Zn483 1.898 . S
O495 C490 1.167 . S
O496 Zn485 2.120 . S
O496 C490 1.299 . S
O497 Zn485 2.114 . S
O497 C499 1.166 . S
O498 Zn483 1.905 . S
O498 C499 1.182 . S
C499 O497 1.166 . S
C499 O498 1.182 . S
O500 Zn485 2.080 . S
O500 C503 1.305 . S
O501 Zn484 1.920 . S
O501 C503 1.234 . S
C502 O488 1.305 . S
C502 O489 1.234 . S
C503 O500 1.305 . S
C503 O501 1.234 . S
C504 C505 1.349 . S
C504 C506 1.327 . S
C504 H529 0.950 . S
C505 C504 1.349 . S
C505 C521 1.349 . S
C506 C504 1.327 . S
C506 C525 1.429 . S
C506 H530 0.950 . S
C507 C524 1.574 . S
C507 C526 1.368 . S
C507 H531 0.949 . S
H508 C512 0.949 . S
C509 C510 1.349 . S
C509 C511 1.327 . S
C509 H532 0.950 . S
C510 C509 1.349 . S
C510 C522 1.349 . S
C511 C509 1.327 . S
C511 C527 1.429 . S
C511 H533 0.950 . S
C512 H508 0.949 . S
C512 C520 1.574 . S
C512 C528 1.368 . S
H513 C521 0.950 . S
H514 C519 0.950 . S
H515 C520 0.949 . S
H516 C522 0.950 . S
H517 C523 0.950 . S
H518 C524 0.949 . S
C519 H514 0.950 . S
C519 C521 1.327 . S
C519 C525 1.429 . S
C520 C512 1.574 . S
C520 H515 0.949 . S
C520 C526 1.368 . S
C521 C505 1.349 . S
C521 H513 0.950 . S
C521 C519 1.327 . S
C522 C510 1.349 . S
C522 H516 0.950 . S
C522 C523 1.327 . S
C523 H517 0.950 . S
C523 C522 1.327 . S
C523 C527 1.429 . S
C524 C507 1.574 . S
C524 H518 0.949 . S
C524 C528 1.368 . S
C525 C506 1.429 . S
C525 C519 1.429 . S
C525 C526 1.523 . S
C526 C507 1.368 . S
C526 C520 1.368 . S
C526 C525 1.523 . S
C527 C511 1.429 . S
C527 C523 1.429 . S
C527 C528 1.523 . S
C528 C512 1.368 . S
C528 C524 1.368 . S
C528 C527 1.523 . S
H529 C504 0.950 . S
H530 C506 0.950 . S
H531 C507 0.949 . S
H532 C509 0.950 . S
H533 C511 0.950 . S
C534 C535 1.349 1_565 S
C534 C536 1.327 . S
C534 H559 0.950 . S
C535 C534 1.349 1_545 S
C535 C551 1.349 . S
C536 C534 1.327 . S
C536 C555 1.429 1_565 S
C536 H560 0.950 . S
C537 C554 1.574 . S
C537 C556 1.368 . S
C537 H561 0.949 . S
H538 C542 0.949 1_565 S
C539 C540 1.349 . S
C539 C541 1.327 . S
C539 H562 0.950 . S
C540 C539 1.349 . S
C540 C552 1.349 . S
C541 C539 1.327 . S
C541 C557 1.429 . S
C541 H563 0.950 . S
C542 H538 0.949 1_545 S
C542 C550 1.580 1_545 S
C542 C558 1.368 . S
H543 C551 0.950 . S
H544 C549 0.950 . S
H545 C550 0.953 . S
H546 C552 0.950 1_565 S
H547 C553 0.950 1_565 S
H548 C554 0.949 . S
C549 H544 0.950 . S
C549 C551 1.327 . S
C549 C555 1.429 . S
C550 C542 1.580 1_565 S
C550 H545 0.953 . S
C550 C556 1.358 1_565 S
C551 C535 1.349 . S
C551 H543 0.950 . S
C551 C549 1.327 . S
C552 C540 1.349 . S
C552 H546 0.950 1_545 S
C552 C553 1.327 . S
C553 H547 0.950 1_545 S
C553 C552 1.327 . S
C553 C557 1.429 . S
C554 C537 1.574 . S
C554 H548 0.949 . S
C554 C558 1.368 . S
C555 C536 1.429 1_545 S
C555 C549 1.429 . S
C555 C556 1.523 . S
C556 C537 1.368 . S
C556 C550 1.358 1_545 S
C556 C555 1.523 . S
C557 C541 1.429 . S
C557 C553 1.429 . S
C557 C558 1.523 . S
C558 C542 1.368 . S
C558 C554 1.368 . S
C558 C557 1.523 . S
H559 C534 0.950 . S
H560 C536 0.950 . S
H561 C537 0.949 . S
H562 C539 0.950 . S
H563 C541 0.950 . S
C564 C565 1.349 . S
C564 C566 1.327 . S
C564 H589 0.950 . S
C565 C564 1.349 . S
C565 C581 1.349 1_455 S
C566 C564 1.327 . S
C566 C585 1.429 . S
C566 H590 0.950 . S
C567 C584 1.574 . S
C567 C586 1.368 1_655 S
C567 H591 0.949 . S
H568 C572 0.949 . S
C569 C570 1.349 1_655 S
C569 C571 1.327 . S
C569 H592 0.950 . S
C570 C569 1.349 1_455 S
C570 C582 1.349 . S
C571 C569 1.327 . S
C571 C587 1.429 1_655 S
C571 H593 0.950 . S
C572 H568 0.949 . S
C572 C580 1.574 . S
C572 C588 1.368 . S
H573 C581 0.950 . S
H574 C579 0.950 . S
H575 C580 0.949 . S
H576 C582 0.950 . S
H577 C583 0.950 . S
H578 C584 0.949 . S
C579 H574 0.950 . S
C579 C581 1.327 . S
C579 C585 1.429 1_655 S
C580 C572 1.574 . S
C580 H575 0.949 . S
C580 C586 1.368 . S
C581 C565 1.349 1_655 S
C581 H573 0.950 . S
C581 C579 1.327 . S
C582 C570 1.349 . S
C582 H576 0.950 . S
C582 C583 1.327 . S
C583 H577 0.950 . S
C583 C582 1.327 . S
C583 C587 1.429 . S
C584 C567 1.574 . S
C584 H578 0.949 . S
C584 C588 1.368 1_655 S
C585 C566 1.429 . S
C585 C579 1.429 1_455 S
C585 C586 1.523 . S
C586 C567 1.368 1_455 S
C586 C580 1.368 . S
C586 C585 1.523 . S
C587 C571 1.429 1_455 S
C587 C583 1.429 . S
C587 C588 1.523 . S
C588 C572 1.368 . S
C588 C584 1.368 1_455 S
C588 C587 1.523 . S
H589 C564 0.950 . S
H590 C566 0.950 . S
H591 C567 0.949 . S
H592 C569 0.950 . S
H593 C571 0.950 . S
C594 C595 1.349 . S
C594 C596 1.327 . S
C594 H619 0.950 . S
C595 C594 1.349 . S
C595 C611 1.349 . S
C596 C594 1.327 . S
C596 C615 1.429 . S
C596 H620 0.950 . S
C597 C614 1.574 . S
C597 C616 1.368 . S
C597 H621 0.949 . S
H598 C602 0.949 . S
C599 C600 1.349 . S
C599 C601 1.327 . S
C599 H622 0.950 . S
C600 C599 1.349 . S
C600 C612 1.349 . S
C601 C599 1.327 . S
C601 C617 1.429 . S
C601 H623 0.950 . S
C602 H598 0.949 . S
C602 C610 1.574 . S
C602 C618 1.368 . S
H603 C611 0.950 . S
H604 C609 0.950 . S
H605 C610 0.949 . S
H606 C612 0.950 . S
H607 C613 0.950 . S
H608 C614 0.949 . S
C609 H604 0.950 . S
C609 C611 1.327 . S
C609 C615 1.429 . S
C610 C602 1.574 . S
C610 H605 0.949 . S
C610 C616 1.368 . S
C611 C595 1.349 . S
C611 H603 0.950 . S
C611 C609 1.327 . S
C612 C600 1.349 . S
C612 H606 0.950 . S
C612 C613 1.327 . S
C613 H607 0.950 . S
C613 C612 1.327 . S
C613 C617 1.429 . S
C614 C597 1.574 . S
C614 H608 0.949 . S
C614 C618 1.368 . S
C615 C596 1.429 . S
C615 C609 1.429 . S
C615 C616 1.523 . S
C616 C597 1.368 . S
C616 C610 1.368 . S
C616 C615 1.523 . S
C617 C601 1.429 . S
C617 C613 1.429 . S
C617 C618 1.523 . S
C618 C602 1.368 . S
C618 C614 1.368 . S
C618 C617 1.523 . S
H619 C594 0.950 . S
H620 C596 0.950 . S
H621 C597 0.949 . S
H622 C599 0.950 . S
H623 C601 0.950 . S
C624 C625 1.349 . S
C624 C626 1.327 . S
C624 H649 0.950 . S
C625 C624 1.349 . S
C625 C641 1.364 . S
C626 C624 1.327 . S
C626 C645 1.429 . S
C626 H650 0.950 . S
C627 C644 1.574 . S
C627 C646 1.368 1_565 S
C627 H651 0.949 . S
H628 C632 0.949 . S
C629 C630 1.349 1_565 S
C629 C631 1.327 . S
C629 H652 0.950 . S
C630 C629 1.349 1_545 S
C630 C642 1.349 . S
C631 C629 1.327 . S
C631 C647 1.429 1_565 S
C631 H653 0.950 . S
C632 H628 0.949 . S
C632 C640 1.574 . S
C632 C648 1.368 . S
H633 C641 0.942 1_565 S
H634 C639 0.950 . S
H635 C640 0.949 . S
H636 C642 0.950 . S
H637 C643 0.950 . S
H638 C644 0.949 . S
C639 H634 0.950 . S
C639 C641 1.320 1_565 S
C639 C645 1.429 1_565 S
C640 C632 1.574 . S
C640 H635 0.949 . S
C640 C646 1.368 . S
C641 C625 1.364 . S
C641 H633 0.942 1_545 S
C641 C639 1.320 1_545 S
C642 C630 1.349 . S
C642 H636 0.950 . S
C642 C643 1.327 . S
C643 H637 0.950 . S
C643 C642 1.327 . S
C643 C647 1.429 . S
C644 C627 1.574 . S
C644 H638 0.949 . S
C644 C648 1.368 1_565 S
C645 C626 1.429 . S
C645 C639 1.429 1_545 S
C645 C646 1.523 . S
C646 C627 1.368 1_545 S
C646 C640 1.368 . S
C646 C645 1.523 . S
C647 C631 1.429 1_545 S
C647 C643 1.429 . S
C647 C648 1.523 . S
C648 C632 1.368 . S
C648 C644 1.368 1_545 S
C648 C647 1.523 . S
H649 C624 0.950 . S
H650 C626 0.950 . S
H651 C627 0.949 . S
H652 C629 0.950 . S
H653 C631 0.950 . S
C654 C655 1.349 . S
C654 C656 1.327 . S
C654 H679 0.950 . S
C655 C654 1.349 . S
C655 C671 1.349 . S
C656 C654 1.327 . S
C656 C675 1.429 . S
C656 H680 0.950 . S
C657 C674 1.574 . S
C657 C676 1.368 . S
C657 H681 0.949 . S
H658 C662 0.949 . S
C659 C660 1.349 . S
C659 C661 1.327 . S
C659 H682 0.950 . S
C660 C659 1.349 . S
C660 C672 1.349 . S
C661 C659 1.327 . S
C661 C677 1.429 . S
C661 H683 0.950 . S
C662 H658 0.949 . S
C662 C670 1.574 . S
C662 C678 1.368 . S
H663 C671 0.950 . S
H664 C669 0.950 . S
H665 C670 0.949 . S
H666 C672 0.950 . S
H667 C673 0.950 . S
H668 C674 0.949 . S
C669 H664 0.950 . S
C669 C671 1.327 . S
C669 C675 1.429 . S
C670 C662 1.574 . S
C670 H665 0.949 . S
C670 C676 1.368 . S
C671 C655 1.349 . S
C671 H663 0.950 . S
C671 C669 1.327 . S
C672 C660 1.349 . S
C672 H666 0.950 . S
C672 C673 1.327 . S
C673 H667 0.950 . S
C673 C672 1.327 . S
C673 C677 1.429 . S
C674 C657 1.574 . S
C674 H668 0.949 . S
C674 C678 1.368 . S
C675 C656 1.429 . S
C675 C669 1.429 . S
C675 C676 1.523 . S
C676 C657 1.368 . S
C676 C670 1.368 . S
C676 C675 1.523 . S
C677 C661 1.429 . S
C677 C673 1.429 . S
C677 C678 1.523 . S
C678 C662 1.368 . S
C678 C674 1.368 . S
C678 C677 1.523 . S
H679 C654 0.950 . S
H680 C656 0.950 . S
H681 C657 0.949 . S
H682 C659 0.950 . S
H683 C661 0.950 . S
C684 C685 1.349 . S
C684 C686 1.327 . S
C684 H709 0.950 . S
C685 C684 1.349 . S
C685 C701 1.349 . S
C686 C684 1.327 . S
C686 C705 1.429 . S
C686 H710 0.950 . S
C687 C704 1.574 . S
C687 C706 1.368 . S
C687 H711 0.949 . S
H688 C692 0.949 . S
C689 C690 1.349 . S
C689 C691 1.327 . S
C689 H712 0.950 . S
C690 C689 1.349 . S
C690 C702 1.349 . S
C691 C689 1.327 . S
C691 C707 1.429 . S
C691 H713 0.950 . S
C692 H688 0.949 . S
C692 C700 1.574 . S
C692 C708 1.368 . S
H693 C701 0.950 . S
H694 C699 0.950 . S
H695 C700 0.949 . S
H696 C702 0.950 . S
H697 C703 0.950 . S
H698 C704 0.949 . S
C699 H694 0.950 . S
C699 C701 1.327 . S
C699 C705 1.429 . S
C700 C692 1.574 . S
C700 H695 0.949 . S
C700 C706 1.368 . S
C701 C685 1.349 . S
C701 H693 0.950 . S
C701 C699 1.327 . S
C702 C690 1.349 . S
C702 H696 0.950 . S
C702 C703 1.327 . S
C703 H697 0.950 . S
C703 C702 1.327 . S
C703 C707 1.429 . S
C704 C687 1.574 . S
C704 H698 0.949 . S
C704 C708 1.368 . S
C705 C686 1.429 . S
C705 C699 1.429 . S
C705 C706 1.523 . S
C706 C687 1.368 . S
C706 C700 1.368 . S
C706 C705 1.523 . S
C707 C691 1.429 . S
C707 C703 1.429 . S
C707 C708 1.523 . S
C708 C692 1.368 . S
C708 C704 1.368 . S
C708 C707 1.523 . S
H709 C684 0.950 . S
H710 C686 0.950 . S
H711 C687 0.949 . S
H712 C689 0.950 . S
H713 C691 0.950 . S
C714 C715 1.349 . S
C714 C716 1.327 . S
C714 H739 0.950 . S
C715 C714 1.349 . S
C715 C731 1.349 1_545 S
C716 C714 1.327 . S
C716 C735 1.429 . S
C716 H740 0.950 . S
C717 C734 1.574 . S
C717 C736 1.368 1_565 S
C717 H741 0.949 . S
H718 C722 0.949 . S
C719 C720 1.349 1_565 S
C719 C721 1.327 . S
C719 H742 0.950 . S
C720 C719 1.349 1_545 S
C720 C732 1.349 . S
C721 C719 1.327 . S
C721 C737 1.429 1_565 S
C721 H743 0.950 . S
C722 H718 0.949 . S
C722 C730 1.574 . S
C722 C738 1.368 . S
H723 C731 0.950 . S
H724 C729 0.950 . S
H725 C730 0.949 . S
H726 C732 0.950 . S
H727 C733 0.950 . S
H728 C734 0.949 . S
C729 H724 0.950 . S
C729 C731 1.327 . S
C729 C735 1.429 1_565 S
C730 C722 1.574 . S
C730 H725 0.949 . S
C730 C736 1.368 . S
C731 C715 1.349 1_565 S
C731 H723 0.950 . S
C731 C729 1.327 . S
C732 C720 1.349 . S
C732 H726 0.950 . S
C732 C733 1.327 . S
C733 H727 0.950 . S
C733 C732 1.327 . S
C733 C737 1.429 . S
C734 C717 1.574 . S
C734 H728 0.949 . S
C734 C738 1.368 1_565 S
C735 C716 1.429 . S
C735 C729 1.429 1_545 S
C735 C736 1.523 . S
C736 C717 1.368 1_545 S
C736 C730 1.368 . S
C736 C735 1.523 . S
C737 C721 1.429 1_545 S
C737 C733 1.429 . S
C737 C738 1.523 . S
C738 C722 1.368 . S
C738 C734 1.368 1_545 S
C738 C737 1.523 . S
H739 C714 0.950 . S
H740 C716 0.950 . S
H741 C717 0.949 . S
H742 C719 0.950 . S
H743 C721 0.950 . S
C744 C745 1.349 1_655 S
C744 C746 1.327 . S
C744 H769 0.950 . S
C745 C744 1.349 1_455 S
C745 C761 1.349 . S
C746 C744 1.327 . S
C746 C765 1.429 1_655 S
C746 H770 0.950 . S
C747 C764 1.574 . S
C747 C766 1.368 . S
C747 H771 0.949 . S
H748 C752 0.949 1_655 S
C749 C750 1.349 . S
C749 C751 1.327 . S
C749 H772 0.950 . S
C750 C749 1.349 . S
C750 C762 1.349 . S
C751 C749 1.327 . S
C751 C767 1.429 . S
C751 H773 0.950 . S
C752 H748 0.949 1_455 S
C752 C760 1.593 . S
C752 C768 1.368 . S
H753 C761 0.950 . S
H754 C759 0.950 . S
H755 C760 0.908 1_655 S
H756 C762 0.950 1_655 S
H757 C763 0.950 1_655 S
H758 C764 0.949 . S
C759 H754 0.950 . S
C759 C761 1.327 . S
C759 C765 1.429 . S
C760 C752 1.593 . S
C760 H755 0.908 1_455 S
C760 C766 1.396 . S
C761 C745 1.349 . S
C761 H753 0.950 . S
C761 C759 1.327 . S
C762 C750 1.349 . S
C762 H756 0.950 1_455 S
C762 C763 1.327 . S
C763 H757 0.950 1_455 S
C763 C762 1.327 . S
C763 C767 1.429 . S
C764 C747 1.574 . S
C764 H758 0.949 . S
C764 C768 1.368 . S
C765 C746 1.429 1_455 S
C765 C759 1.429 . S
C765 C766 1.523 . S
C766 C747 1.368 . S
C766 C760 1.396 . S
C766 C765 1.523 . S
C767 C751 1.429 . S
C767 C763 1.429 . S
C767 C768 1.523 . S
C768 C752 1.368 . S
C768 C764 1.368 . S
C768 C767 1.523 . S
H769 C744 0.950 . S
H770 C746 0.950 . S
H771 C747 0.949 . S
H772 C749 0.950 . S
H773 C751 0.950 . S
C774 C775 1.349 . S
C774 C776 1.327 . S
C774 H799 0.950 . S
C775 C774 1.349 . S
C775 C791 1.349 . S
C776 C774 1.327 . S
C776 C795 1.429 . S
C776 H800 0.950 . S
C777 C794 1.574 . S
C777 C796 1.368 . S
C777 H801 0.949 . S
H778 C782 0.949 . S
C779 C780 1.349 . S
C779 C781 1.327 . S
C779 H802 0.950 . S
C780 C779 1.349 . S
C780 C792 1.349 . S
C781 C779 1.327 . S
C781 C797 1.429 . S
C781 H803 0.950 . S
C782 H778 0.949 . S
C782 C790 1.574 . S
C782 C798 1.368 . S
H783 C791 0.950 . S
H784 C789 0.950 . S
H785 C790 0.949 . S
H786 C792 0.950 . S
H787 C793 0.950 . S
H788 C794 0.949 . S
C789 H784 0.950 . S
C789 C791 1.327 . S
C789 C795 1.429 . S
C790 C782 1.574 . S
C790 H785 0.949 . S
C790 C796 1.368 . S
C791 C775 1.349 . S
C791 H783 0.950 . S
C791 C789 1.327 . S
C792 C780 1.349 . S
C792 H786 0.950 . S
C792 C793 1.327 . S
C793 H787 0.950 . S
C793 C792 1.327 . S
C793 C797 1.429 . S
C794 C777 1.574 . S
C794 H788 0.949 . S
C794 C798 1.368 . S
C795 C776 1.429 . S
C795 C789 1.429 . S
C795 C796 1.523 . S
C796 C777 1.368 . S
C796 C790 1.368 . S
C796 C795 1.523 . S
C797 C781 1.429 . S
C797 C793 1.429 . S
C797 C798 1.523 . S
C798 C782 1.368 . S
C798 C794 1.368 . S
C798 C797 1.523 . S
H799 C774 0.950 . S
H800 C776 0.950 . S
H801 C777 0.949 . S
H802 C779 0.950 . S
H803 C781 0.950 . S
C804 C805 1.349 1_565 S
C804 C806 1.327 . S
C804 H829 0.950 . S
C805 C804 1.349 1_545 S
C805 C821 1.349 . S
C806 C804 1.327 . S
C806 C825 1.429 1_565 S
C806 H830 0.950 . S
C807 C824 1.574 . S
C807 C826 1.368 . S
C807 H831 0.949 . S
H808 C812 0.949 1_565 S
C809 C810 1.349 . S
C809 C811 1.327 . S
C809 H832 0.950 . S
C810 C809 1.349 . S
C810 C822 1.349 . S
C811 C809 1.327 . S
C811 C827 1.429 . S
C811 H833 0.950 . S
C812 H808 0.949 1_545 S
C812 C820 1.566 1_545 S
C812 C828 1.368 . S
H813 C821 0.950 . S
H814 C819 0.950 . S
H815 C820 0.962 . S
H816 C822 0.950 1_565 S
H817 C823 0.950 1_565 S
H818 C824 0.949 . S
C819 H814 0.950 . S
C819 C821 1.327 . S
C819 C825 1.429 . S
C820 C812 1.566 1_565 S
C820 H815 0.962 . S
C820 C826 1.363 1_565 S
C821 C805 1.349 . S
C821 H813 0.950 . S
C821 C819 1.327 . S
C822 C810 1.349 . S
C822 H816 0.950 1_545 S
C822 C823 1.327 . S
C823 H817 0.950 1_545 S
C823 C822 1.327 . S
C823 C827 1.429 . S
C824 C807 1.574 . S
C824 H818 0.949 . S
C824 C828 1.368 . S
C825 C806 1.429 1_545 S
C825 C819 1.429 . S
C825 C826 1.523 . S
C826 C807 1.368 . S
C826 C820 1.363 1_545 S
C826 C825 1.523 . S
C827 C811 1.429 . S
C827 C823 1.429 . S
C827 C828 1.523 . S
C828 C812 1.368 . S
C828 C824 1.368 . S
C828 C827 1.523 . S
H829 C804 0.950 . S
H830 C806 0.950 . S
H831 C807 0.949 . S
H832 C809 0.950 . S
H833 C811 0.950 . S
C834 C835 1.349 . S
C834 C836 1.327 . S
C834 H859 0.950 . S
C835 C834 1.349 . S
C835 C851 1.349 . S
C836 C834 1.327 . S
C836 C855 1.429 . S
C836 H860 0.950 . S
C837 C854 1.574 . S
C837 C856 1.368 . S
C837 H861 0.949 1_455 S
H838 C842 0.949 . S
C839 C840 1.349 1_655 S
C839 C841 1.327 . S
C839 H862 0.950 . S
C840 C839 1.349 1_455 S
C840 C852 1.349 . S
C841 C839 1.327 . S
C841 C857 1.429 1_655 S
C841 H863 0.950 . S
C842 H838 0.949 . S
C842 C850 1.574 . S
C842 C858 1.368 . S
H843 C851 0.950 . S
H844 C849 0.950 1_655 S
H845 C850 0.949 . S
H846 C852 0.950 . S
H847 C853 0.950 . S
H848 C854 0.949 1_655 S
C849 H844 0.950 1_455 S
C849 C851 1.327 . S
C849 C855 1.429 . S
C850 C842 1.574 . S
C850 H845 0.949 . S
C850 C856 1.368 . S
C851 C835 1.349 . S
C851 H843 0.950 . S
C851 C849 1.327 . S
C852 C840 1.349 . S
C852 H846 0.950 . S
C852 C853 1.327 . S
C853 H847 0.950 . S
C853 C852 1.327 . S
C853 C857 1.429 . S
C854 C837 1.574 . S
C854 H848 0.949 1_455 S
C854 C858 1.368 . S
C855 C836 1.429 . S
C855 C849 1.429 . S
C855 C856 1.523 . S
C856 C837 1.368 . S
C856 C850 1.368 . S
C856 C855 1.523 . S
C857 C841 1.429 1_455 S
C857 C853 1.429 . S
C857 C858 1.523 . S
C858 C842 1.368 . S
C858 C854 1.368 . S
C858 C857 1.523 . S
H859 C834 0.950 . S
H860 C836 0.950 . S
H861 C837 0.949 1_655 S
H862 C839 0.950 . S
H863 C841 0.950 . S
C864 C865 1.349 . S
C864 C866 1.327 . S
C864 H889 0.950 . S
C865 C864 1.349 . S
C865 C881 1.349 . S
C866 C864 1.327 . S
C866 C885 1.429 . S
C866 H890 0.950 . S
C867 C884 1.574 . S
C867 C886 1.368 . S
C867 H891 0.949 . S
H868 C872 0.949 . S
C869 C870 1.349 . S
C869 C871 1.327 . S
C869 H892 0.950 . S
C870 C869 1.349 . S
C870 C882 1.349 . S
C871 C869 1.327 . S
C871 C887 1.429 . S
C871 H893 0.950 . S
C872 H868 0.949 . S
C872 C880 1.574 . S
C872 C888 1.368 . S
H873 C881 0.950 . S
H874 C879 0.950 . S
H875 C880 0.949 . S
H876 C882 0.950 . S
H877 C883 0.950 . S
H878 C884 0.949 . S
C879 H874 0.950 . S
C879 C881 1.327 . S
C879 C885 1.429 . S
C880 C872 1.574 . S
C880 H875 0.949 . S
C880 C886 1.368 . S
C881 C865 1.349 . S
C881 H873 0.950 . S
C881 C879 1.327 . S
C882 C870 1.349 . S
C882 H876 0.950 . S
C882 C883 1.327 . S
C883 H877 0.950 . S
C883 C882 1.327 . S
C883 C887 1.429 . S
C884 C867 1.574 . S
C884 H878 0.949 . S
C884 C888 1.368 . S
C885 C866 1.429 . S
C885 C879 1.429 . S
C885 C886 1.523 . S
C886 C867 1.368 . S
C886 C880 1.368 . S
C886 C885 1.523 . S
C887 C871 1.429 . S
C887 C883 1.429 . S
C887 C888 1.523 . S
C888 C872 1.368 . S
C888 C884 1.368 . S
C888 C887 1.523 . S
H889 C864 0.950 . S
H890 C866 0.950 . S
H891 C867 0.949 . S
H892 C869 0.950 . S
H893 C871 0.950 . S
C894 C895 1.349 . S
C894 C896 1.327 . S
C894 H919 0.950 . S
C895 C894 1.349 . S
C895 C911 1.349 . S
C896 C894 1.327 . S
C896 C915 1.429 . S
C896 H920 0.950 . S
C897 C914 1.574 . S
C897 C916 1.368 . S
C897 H921 0.949 . S
H898 C902 0.949 . S
C899 C900 1.349 . S
C899 C901 1.327 . S
C899 H922 0.950 . S
C900 C899 1.349 . S
C900 C912 1.349 . S
C901 C899 1.327 . S
C901 C917 1.429 . S
C901 H923 0.950 . S
C902 H898 0.949 . S
C902 C910 1.574 . S
C902 C918 1.368 . S
H903 C911 0.950 . S
H904 C909 0.950 . S
H905 C910 0.949 . S
H906 C912 0.950 . S
H907 C913 0.950 . S
H908 C914 0.949 . S
C909 H904 0.950 . S
C909 C911 1.327 . S
C909 C915 1.429 . S
C910 C902 1.574 . S
C910 H905 0.949 . S
C910 C916 1.368 . S
C911 C895 1.349 . S
C911 H903 0.950 . S
C911 C909 1.327 . S
C912 C900 1.349 . S
C912 H906 0.950 . S
C912 C913 1.327 . S
C913 H907 0.950 . S
C913 C912 1.327 . S
C913 C917 1.429 . S
C914 C897 1.574 . S
C914 H908 0.949 . S
C914 C918 1.368 . S
C915 C896 1.429 . S
C915 C909 1.429 . S
C915 C916 1.523 . S
C916 C897 1.368 . S
C916 C910 1.368 . S
C916 C915 1.523 . S
C917 C901 1.429 . S
C917 C913 1.429 . S
C917 C918 1.523 . S
C918 C902 1.368 . S
C918 C914 1.368 . S
C918 C917 1.523 . S
H919 C894 0.950 . S
H920 C896 0.950 . S
H921 C897 0.949 . S
H922 C899 0.950 . S
H923 C901 0.950 . S
C924 C925 1.349 . S
C924 C926 1.327 . S
C924 H949 0.950 . S
C925 C924 1.349 . S
C925 C941 1.349 . S
C926 C924 1.327 . S
C926 C945 1.429 . S
C926 H950 0.950 . S
C927 C944 1.574 . S
C927 C946 1.368 . S
C927 H951 0.949 . S
H928 C932 0.949 . S
C929 C930 1.349 . S
C929 C931 1.327 . S
C929 H952 0.950 . S
C930 C929 1.349 . S
C930 C942 1.349 . S
C931 C929 1.327 . S
C931 C947 1.429 . S
C931 H953 0.950 . S
C932 H928 0.949 . S
C932 C940 1.574 . S
C932 C948 1.368 . S
H933 C941 0.950 . S
H934 C939 0.950 . S
H935 C940 0.949 . S
H936 C942 0.950 . S
H937 C943 0.950 . S
H938 C944 0.949 . S
C939 H934 0.950 . S
C939 C941 1.327 . S
C939 C945 1.429 . S
C940 C932 1.574 . S
C940 H935 0.949 . S
C940 C946 1.368 . S
C941 C925 1.349 . S
C941 H933 0.950 . S
C941 C939 1.327 . S
C942 C930 1.349 . S
C942 H936 0.950 . S
C942 C943 1.327 . S
C943 H937 0.950 . S
C943 C942 1.327 . S
C943 C947 1.429 . S
C944 C927 1.574 . S
C944 H938 0.949 . S
C944 C948 1.368 . S
C945 C926 1.429 . S
C945 C939 1.429 . S
C945 C946 1.523 . S
C946 C927 1.368 . S
C946 C940 1.368 . S
C946 C945 1.523 . S
C947 C931 1.429 . S
C947 C943 1.429 . S
C947 C948 1.523 . S
C948 C932 1.368 . S
C948 C944 1.368 . S
C948 C947 1.523 . S
H949 C924 0.950 . S
H950 C926 0.950 . S
H951 C927 0.949 . S
H952 C929 0.950 . S
H953 C931 0.950 . S
C954 C955 1.349 . S
C954 C956 1.327 . S
C954 H979 0.950 . S
C955 C954 1.349 . S
C955 C971 1.349 . S
C956 C954 1.327 . S
C956 C975 1.429 . S
C956 H980 0.950 . S
C957 C974 1.574 . S
C957 C976 1.368 . S
C957 H981 0.949 . S
H958 C962 0.949 . S
C959 C960 1.349 . S
C959 C961 1.327 . S
C959 H982 0.950 . S
C960 C959 1.349 . S
C960 C972 1.349 . S
C961 C959 1.327 . S
C961 C977 1.429 . S
C961 H983 0.950 . S
C962 H958 0.949 . S
C962 C970 1.574 . S
C962 C978 1.368 . S
H963 C971 0.950 . S
H964 C969 0.950 . S
H965 C970 0.949 . S
H966 C972 0.950 . S
H967 C973 0.950 . S
H968 C974 0.949 . S
C969 H964 0.950 . S
C969 C971 1.327 . S
C969 C975 1.429 . S
C970 C962 1.574 . S
C970 H965 0.949 . S
C970 C976 1.368 . S
C971 C955 1.349 . S
C971 H963 0.950 . S
C971 C969 1.327 . S
C972 C960 1.349 . S
C972 H966 0.950 . S
C972 C973 1.327 . S
C973 H967 0.950 . S
C973 C972 1.327 . S
C973 C977 1.429 . S
C974 C957 1.574 . S
C974 H968 0.949 . S
C974 C978 1.368 . S
C975 C956 1.429 . S
C975 C969 1.429 . S
C975 C976 1.523 . S
C976 C957 1.368 . S
C976 C970 1.368 . S
C976 C975 1.523 . S
C977 C961 1.429 . S
C977 C973 1.429 . S
C977 C978 1.523 . S
C978 C962 1.368 . S
C978 C974 1.368 . S
C978 C977 1.523 . S
H979 C954 0.950 . S
H980 C956 0.950 . S
H981 C957 0.949 . S
H982 C959 0.950 . S
H983 C961 0.950 . S
C984 C985 1.349 . S
C984 C986 1.327 . S
C984 H1009 0.950 . S
C985 C984 1.349 . S
C985 C1001 1.349 . S
C986 C984 1.327 . S
C986 C1005 1.429 . S
C986 H1010 0.950 . S
C987 C1004 1.574 . S
C987 C1006 1.368 . S
C987 H1011 0.949 . S
H988 C992 0.949 . S
C989 C990 1.349 . S
C989 C991 1.327 . S
C989 H1012 0.950 . S
C990 C989 1.349 . S
C990 C1002 1.349 . S
C991 C989 1.327 . S
C991 C1007 1.429 . S
C991 H1013 0.950 . S
C992 H988 0.949 . S
C992 C1000 1.574 . S
C992 C1008 1.368 . S
H993 C1001 0.950 . S
H994 C999 0.950 . S
H995 C1000 0.949 . S
H996 C1002 0.950 . S
H997 C1003 0.950 . S
H998 C1004 0.949 . S
C999 H994 0.950 . S
C999 C1001 1.327 . S
C999 C1005 1.429 . S
C1000 C992 1.574 . S
C1000 H995 0.949 . S
C1000 C1006 1.368 . S
C1001 C985 1.349 . S
C1001 H993 0.950 . S
C1001 C999 1.327 . S
C1002 C990 1.349 . S
C1002 H996 0.950 . S
C1002 C1003 1.327 . S
C1003 H997 0.950 . S
C1003 C1002 1.327 . S
C1003 C1007 1.429 . S
C1004 C987 1.574 . S
C1004 H998 0.949 . S
C1004 C1008 1.368 . S
C1005 C986 1.429 . S
C1005 C999 1.429 . S
C1005 C1006 1.523 . S
C1006 C987 1.368 . S
C1006 C1000 1.368 . S
C1006 C1005 1.523 . S
C1007 C991 1.429 . S
C1007 C1003 1.429 . S
C1007 C1008 1.523 . S
C1008 C992 1.368 . S
C1008 C1004 1.368 . S
C1008 C1007 1.523 . S
H1009 C984 0.950 . S
H1010 C986 0.950 . S
H1011 C987 0.949 . S
H1012 C989 0.950 . S
H1013 C991 0.950 . S
C1014 C1015 1.349 . S
C1014 C1016 1.327 . S
C1014 H1039 0.950 . S
C1015 C1014 1.349 . S
C1015 C1031 1.349 . S
C1016 C1014 1.327 . S
C1016 C1035 1.429 . S
C1016 H1040 0.950 . S
C1017 C1034 1.574 . S
C1017 C1036 1.368 . S
C1017 H1041 0.949 . S
H1018 C1022 0.949 . S
C1019 C1020 1.349 . S
C1019 C1021 1.327 . S
C1019 H1042 0.950 . S
C1020 C1019 1.349 . S
C1020 C1032 1.349 . S
C1021 C1019 1.327 . S
C1021 C1037 1.429 . S
C1021 H1043 0.950 . S
C1022 H1018 0.949 . S
C1022 C1030 1.574 . S
C1022 C1038 1.368 . S
H1023 C1031 0.950 . S
H1024 C1029 0.950 . S
H1025 C1030 0.949 . S
H1026 C1032 0.950 . S
H1027 C1033 0.950 . S
H1028 C1034 0.949 . S
C1029 H1024 0.950 . S
C1029 C1031 1.327 . S
C1029 C1035 1.429 . S
C1030 C1022 1.574 . S
C1030 H1025 0.949 . S
C1030 C1036 1.368 . S
C1031 C1015 1.349 . S
C1031 H1023 0.950 . S
C1031 C1029 1.327 . S
C1032 C1020 1.349 . S
C1032 H1026 0.950 . S
C1032 C1033 1.327 . S
C1033 H1027 0.950 . S
C1033 C1032 1.327 . S
C1033 C1037 1.429 . S
C1034 C1017 1.574 . S
C1034 H1028 0.949 . S
C1034 C1038 1.368 . S
C1035 C1016 1.429 . S
C1035 C1029 1.429 . S
C1035 C1036 1.523 . S
C1036 C1017 1.368 . S
C1036 C1030 1.368 . S
C1036 C1035 1.523 . S
C1037 C1021 1.429 . S
C1037 C1033 1.429 . S
C1037 C1038 1.523 . S
C1038 C1022 1.368 . S
C1038 C1034 1.368 . S
C1038 C1037 1.523 . S
H1039 C1014 0.950 . S
H1040 C1016 0.950 . S
H1041 C1017 0.949 . S
H1042 C1019 0.950 . S
H1043 C1021 0.950 . S
C1044 C1045 1.349 . S
C1044 C1046 1.327 . S
C1044 H1069 0.950 . S
C1045 C1044 1.349 . S
C1045 C1061 1.349 . S
C1046 C1044 1.327 . S
C1046 C1065 1.429 . S
C1046 H1070 0.950 . S
C1047 C1064 1.574 . S
C1047 C1066 1.368 . S
C1047 H1071 0.949 . S
H1048 C1052 0.949 . S
C1049 C1050 1.349 . S
C1049 C1051 1.327 . S
C1049 H1072 0.950 . S
C1050 C1049 1.349 . S
C1050 C1062 1.349 . S
C1051 C1049 1.327 . S
C1051 C1067 1.429 . S
C1051 H1073 0.950 . S
C1052 H1048 0.949 . S
C1052 C1060 1.574 . S
C1052 C1068 1.368 . S
H1053 C1061 0.950 . S
H1054 C1059 0.950 . S
H1055 C1060 0.949 . S
H1056 C1062 0.950 . S
H1057 C1063 0.950 . S
H1058 C1064 0.949 . S
C1059 H1054 0.950 . S
C1059 C1061 1.327 . S
C1059 C1065 1.429 . S
C1060 C1052 1.574 . S
C1060 H1055 0.949 . S
C1060 C1066 1.368 . S
C1061 C1045 1.349 . S
C1061 H1053 0.950 . S
C1061 C1059 1.327 . S
C1062 C1050 1.349 . S
C1062 H1056 0.950 . S
C1062 C1063 1.327 . S
C1063 H1057 0.950 . S
C1063 C1062 1.327 . S
C1063 C1067 1.429 . S
C1064 C1047 1.574 . S
C1064 H1058 0.949 . S
C1064 C1068 1.368 . S
C1065 C1046 1.429 . S
C1065 C1059 1.429 . S
C1065 C1066 1.523 . S
C1066 C1047 1.368 . S
C1066 C1060 1.368 . S
C1066 C1065 1.523 . S
C1067 C1051 1.429 . S
C1067 C1063 1.429 . S
C1067 C1068 1.523 . S
C1068 C1052 1.368 . S
C1068 C1064 1.368 . S
C1068 C1067 1.523 . S
H1069 C1044 0.950 . S
H1070 C1046 0.950 . S
H1071 C1047 0.949 . S
H1072 C1049 0.950 . S
H1073 C1051 0.950 . S
C1074 C1075 1.349 . S
C1074 C1076 1.327 . S
C1074 H1099 0.950 . S
C1075 C1074 1.349 . S
C1075 C1091 1.349 . S
C1076 C1074 1.327 . S
C1076 C1095 1.429 . S
C1076 H1100 0.950 . S
C1077 C1094 1.574 . S
C1077 C1096 1.368 . S
C1077 H1101 0.949 . S
H1078 C1082 0.949 . S
C1079 C1080 1.349 . S
C1079 C1081 1.327 . S
C1079 H1102 0.950 . S
C1080 C1079 1.349 . S
C1080 C1092 1.349 . S
C1081 C1079 1.327 . S
C1081 C1097 1.429 . S
C1081 H1103 0.950 . S
C1082 H1078 0.949 . S
C1082 C1090 1.574 . S
C1082 C1098 1.368 . S
H1083 C1091 0.950 . S
H1084 C1089 0.950 . S
H1085 C1090 0.949 . S
H1086 C1092 0.950 . S
H1087 C1093 0.950 . S
H1088 C1094 0.949 . S
C1089 H1084 0.950 . S
C1089 C1091 1.327 . S
C1089 C1095 1.429 . S
C1090 C1082 1.574 . S
C1090 H1085 0.949 . S
C1090 C1096 1.368 . S
C1091 C1075 1.349 . S
C1091 H1083 0.950 . S
C1091 C1089 1.327 . S
C1092 C1080 1.349 . S
C1092 H1086 0.950 . S
C1092 C1093 1.327 . S
C1093 H1087 0.950 . S
C1093 C1092 1.327 . S
C1093 C1097 1.429 . S
C1094 C1077 1.574 . S
C1094 H1088 0.949 . S
C1094 C1098 1.368 . S
C1095 C1076 1.429 . S
C1095 C1089 1.429 . S
C1095 C1096 1.523 . S
C1096 C1077 1.368 . S
C1096 C1090 1.368 . S
C1096 C1095 1.523 . S
C1097 C1081 1.429 . S
C1097 C1093 1.429 . S
C1097 C1098 1.523 . S
C1098 C1082 1.368 . S
C1098 C1094 1.368 . S
C1098 C1097 1.523 . S
H1099 C1074 0.950 . S
H1100 C1076 0.950 . S
H1101 C1077 0.949 . S
H1102 C1079 0.950 . S
H1103 C1081 0.950 . S
C1104 C1105 1.349 . S
C1104 C1106 1.327 . S
C1104 H1129 0.950 . S
C1105 C1104 1.349 . S
C1105 C1121 1.349 . S
C1106 C1104 1.327 . S
C1106 C1125 1.429 . S
C1106 H1130 0.950 . S
C1107 C1124 1.574 . S
C1107 C1126 1.368 . S
C1107 H1131 0.949 . S
H1108 C1112 0.949 . S
C1109 C1110 1.349 . S
C1109 C1111 1.327 . S
C1109 H1132 0.950 . S
C1110 C1109 1.349 . S
C1110 C1122 1.349 . S
C1111 C1109 1.327 . S
C1111 C1127 1.429 . S
C1111 H1133 0.950 . S
C1112 H1108 0.949 . S
C1112 C1120 1.574 . S
C1112 C1128 1.368 . S
H1113 C1121 0.950 . S
H1114 C1119 0.950 . S
H1115 C1120 0.949 . S
H1116 C1122 0.950 . S
H1117 C1123 0.950 . S
H1118 C1124 0.949 . S
C1119 H1114 0.950 . S
C1119 C1121 1.327 . S
C1119 C1125 1.429 . S
C1120 C1112 1.574 . S
C1120 H1115 0.949 . S
C1120 C1126 1.368 . S
C1121 C1105 1.349 . S
C1121 H1113 0.950 . S
C1121 C1119 1.327 . S
C1122 C1110 1.349 . S
C1122 H1116 0.950 . S
C1122 C1123 1.327 . S
C1123 H1117 0.950 . S
C1123 C1122 1.327 . S
C1123 C1127 1.429 . S
C1124 C1107 1.574 . S
C1124 H1118 0.949 . S
C1124 C1128 1.368 . S
C1125 C1106 1.429 . S
C1125 C1119 1.429 . S
C1125 C1126 1.523 . S
C1126 C1107 1.368 . S
C1126 C1120 1.368 . S
C1126 C1125 1.523 . S
C1127 C1111 1.429 . S
C1127 C1123 1.429 . S
C1127 C1128 1.523 . S
C1128 C1112 1.368 . S
C1128 C1124 1.368 . S
C1128 C1127 1.523 . S
H1129 C1104 0.950 . S
H1130 C1106 0.950 . S
H1131 C1107 0.949 . S
H1132 C1109 0.950 . S
H1133 C1111 0.950 . S
C1134 C1135 1.349 . S
C1134 C1136 1.327 . S
C1134 H1159 0.950 . S
C1135 C1134 1.349 . S
C1135 C1151 1.349 . S
C1136 C1134 1.327 . S
C1136 C1155 1.429 . S
C1136 H1160 0.950 . S
C1137 C1154 1.574 . S
C1137 C1156 1.368 . S
C1137 H1161 0.949 . S
H1138 C1142 0.949 . S
C1139 C1140 1.328 1_556 S
C1139 C1141 1.327 1_556 S
C1139 H1162 0.950 . S
C1140 C1139 1.328 1_554 S
C1140 C1152 1.432 . S
C1141 C1139 1.327 1_554 S
C1141 C1157 1.429 . S
C1141 H1163 0.950 . S
C1142 H1138 0.949 . S
C1142 C1150 1.574 . S
C1142 C1158 1.368 . S
H1143 C1151 0.950 . S
H1144 C1149 0.950 . S
H1145 C1150 0.949 . S
H1146 C1152 0.950 . S
H1147 C1153 0.950 . S
H1148 C1154 0.949 . S
C1149 H1144 0.950 . S
C1149 C1151 1.327 . S
C1149 C1155 1.429 . S
C1150 C1142 1.574 . S
C1150 H1145 0.949 . S
C1150 C1156 1.368 . S
C1151 C1135 1.349 . S
C1151 H1143 0.950 . S
C1151 C1149 1.327 . S
C1152 C1140 1.432 . S
C1152 H1146 0.950 . S
C1152 C1153 1.327 . S
C1153 H1147 0.950 . S
C1153 C1152 1.327 . S
C1153 C1157 1.429 . S
C1154 C1137 1.574 . S
C1154 H1148 0.949 . S
C1154 C1158 1.368 . S
C1155 C1136 1.429 . S
C1155 C1149 1.429 . S
C1155 C1156 1.523 . S
C1156 C1137 1.368 . S
C1156 C1150 1.368 . S
C1156 C1155 1.523 . S
C1157 C1141 1.429 . S
C1157 C1153 1.429 . S
C1157 C1158 1.523 . S
C1158 C1142 1.368 . S
C1158 C1154 1.368 . S
C1158 C1157 1.523 . S
H1159 C1134 0.950 . S
H1160 C1136 0.950 . S
H1161 C1137 0.949 . S
H1162 C1139 0.950 . S
H1163 C1141 0.950 . S
C1164 C1165 1.349 . S
C1164 C1166 1.327 . S
C1164 H1189 0.950 . S
C1165 C1164 1.349 . S
C1165 C1181 1.349 . S
C1166 C1164 1.327 . S
C1166 C1185 1.429 . S
C1166 H1190 0.950 . S
C1167 C1184 1.574 . S
C1167 C1186 1.368 . S
C1167 H1191 0.949 . S
H1168 C1172 0.949 . S
C1169 C1170 1.336 1_556 S
C1169 C1171 1.327 1_556 S
C1169 H1192 0.950 . S
C1170 C1169 1.336 1_554 S
C1170 C1182 1.425 . S
C1171 C1169 1.327 1_554 S
C1171 C1187 1.429 . S
C1171 H1193 0.950 . S
C1172 H1168 0.949 . S
C1172 C1180 1.574 . S
C1172 C1188 1.368 . S
H1173 C1181 0.950 . S
H1174 C1179 0.950 . S
H1175 C1180 0.949 . S
H1176 C1182 0.950 . S
H1177 C1183 0.950 . S
H1178 C1184 0.949 . S
C1179 H1174 0.950 . S
C1179 C1181 1.327 . S
C1179 C1185 1.429 . S
C1180 C1172 1.574 . S
C1180 H1175 0.949 . S
C1180 C1186 1.368 . S
C1181 C1165 1.349 . S
C1181 H1173 0.950 . S
C1181 C1179 1.327 . S
C1182 C1170 1.425 . S
C1182 H1176 0.950 . S
C1182 C1183 1.327 . S
C1183 H1177 0.950 . S
C1183 C1182 1.327 . S
C1183 C1187 1.429 . S
C1184 C1167 1.574 . S
C1184 H1178 0.949 . S
C1184 C1188 1.368 . S
C1185 C1166 1.429 . S
C1185 C1179 1.429 . S
C1185 C1186 1.523 . S
C1186 C1167 1.368 . S
C1186 C1180 1.368 . S
C1186 C1185 1.523 . S
C1187 C1171 1.429 . S
C1187 C1183 1.429 . S
C1187 C1188 1.523 . S
C1188 C1172 1.368 . S
C1188 C1184 1.368 . S
C1188 C1187 1.523 . S
H1189 C1164 0.950 . S
H1190 C1166 0.950 . S
H1191 C1167 0.949 . S
H1192 C1169 0.950 . S
H1193 C1171 0.950 . S
C1194 C1195 1.349 . S
C1194 C1196 1.327 . S
C1194 H1219 0.950 . S
C1195 C1194 1.349 . S
C1195 C1211 1.349 . S
C1196 C1194 1.327 . S
C1196 C1215 1.429 . S
C1196 H1220 0.950 . S
C1197 C1214 1.574 . S
C1197 C1216 1.368 . S
C1197 H1221 0.949 . S
H1198 C1202 0.949 . S
C1199 C1200 1.349 . S
C1199 C1201 1.327 . S
C1199 H1222 0.950 . S
C1200 C1199 1.349 . S
C1200 C1212 1.349 . S
C1201 C1199 1.327 . S
C1201 C1217 1.429 . S
C1201 H1223 0.950 . S
C1202 H1198 0.949 . S
C1202 C1210 1.574 . S
C1202 C1218 1.368 . S
H1203 C1211 0.950 . S
H1204 C1209 0.950 . S
H1205 C1210 0.949 . S
H1206 C1212 0.950 1_556 S
H1207 C1213 0.950 . S
H1208 C1214 0.949 . S
C1209 H1204 0.950 . S
C1209 C1211 1.327 . S
C1209 C1215 1.429 . S
C1210 C1202 1.574 . S
C1210 H1205 0.949 . S
C1210 C1216 1.368 . S
C1211 C1195 1.349 . S
C1211 H1203 0.950 . S
C1211 C1209 1.327 . S
C1212 C1200 1.349 . S
C1212 H1206 0.950 1_554 S
C1212 C1213 1.327 . S
C1213 H1207 0.950 . S
C1213 C1212 1.327 . S
C1213 C1217 1.429 . S
C1214 C1197 1.574 . S
C1214 H1208 0.949 . S
C1214 C1218 1.368 . S
C1215 C1196 1.429 . S
C1215 C1209 1.429 . S
C1215 C1216 1.523 . S
C1216 C1197 1.368 . S
C1216 C1210 1.368 . S
C1216 C1215 1.523 . S
C1217 C1201 1.429 . S
C1217 C1213 1.429 . S
C1217 C1218 1.523 . S
C1218 C1202 1.368 . S
C1218 C1214 1.368 . S
C1218 C1217 1.523 . S
H1219 C1194 0.950 . S
H1220 C1196 0.950 . S
H1221 C1197 0.949 . S
H1222 C1199 0.950 . S
H1223 C1201 0.950 . S
C1224 C1225 1.349 . S
C1224 C1226 1.327 . S
C1224 H1249 0.950 . S
C1225 C1224 1.349 . S
C1225 C1241 1.349 . S
C1226 C1224 1.327 . S
C1226 C1245 1.429 . S
C1226 H1250 0.950 . S
C1227 C1244 1.574 . S
C1227 C1246 1.368 . S
C1227 H1251 0.949 . S
H1228 C1232 0.949 . S
C1229 C1230 1.349 . S
C1229 C1231 1.327 . S
C1229 H1252 0.950 . S
C1230 C1229 1.349 . S
C1230 C1242 1.349 . S
C1231 C1229 1.327 . S
C1231 C1247 1.429 . S
C1231 H1253 0.950 . S
C1232 H1228 0.949 . S
C1232 C1240 1.574 . S
C1232 C1248 1.368 . S
H1233 C1241 0.950 . S
H1234 C1239 0.950 . S
H1235 C1240 0.949 . S
H1236 C1242 0.950 . S
H1237 C1243 0.950 . S
H1238 C1244 0.949 . S
C1239 H1234 0.950 . S
C1239 C1241 1.327 . S
C1239 C1245 1.429 . S
C1240 C1232 1.574 . S
C1240 H1235 0.949 . S
C1240 C1246 1.368 . S
C1241 C1225 1.349 . S
C1241 H1233 0.950 . S
C1241 C1239 1.327 . S
C1242 C1230 1.349 . S
C1242 H1236 0.950 . S
C1242 C1243 1.327 . S
C1243 H1237 0.950 . S
C1243 C1242 1.327 . S
C1243 C1247 1.429 . S
C1244 C1227 1.574 . S
C1244 H1238 0.949 . S
C1244 C1248 1.368 . S
C1245 C1226 1.429 . S
C1245 C1239 1.429 . S
C1245 C1246 1.523 . S
C1246 C1227 1.368 . S
C1246 C1240 1.368 . S
C1246 C1245 1.523 . S
C1247 C1231 1.429 . S
C1247 C1243 1.429 . S
C1247 C1248 1.523 . S
C1248 C1232 1.368 . S
C1248 C1244 1.368 . S
C1248 C1247 1.523 . S
H1249 C1224 0.950 . S
H1250 C1226 0.950 . S
H1251 C1227 0.949 . S
H1252 C1229 0.950 . S
H1253 C1231 0.950 . S
C1254 C1255 1.349 . S
C1254 C1256 1.327 . S
C1254 H1279 0.950 . S
C1255 C1254 1.349 . S
C1255 C1271 1.349 . S
C1256 C1254 1.327 . S
C1256 C1275 1.429 . S
C1256 H1280 0.950 . S
C1257 C1274 1.574 . S
C1257 C1276 1.368 . S
C1257 H1281 0.949 . S
H1258 C1262 0.949 . S
C1259 C1260 1.349 . S
C1259 C1261 1.327 . S
C1259 H1282 0.950 . S
C1260 C1259 1.349 . S
C1260 C1272 1.349 . S
C1261 C1259 1.327 . S
C1261 C1277 1.429 . S
C1261 H1283 0.950 . S
C1262 H1258 0.949 . S
C1262 C1270 1.574 . S
C1262 C1278 1.368 . S
H1263 C1271 0.950 . S
H1264 C1269 0.950 . S
H1265 C1270 0.949 . S
H1266 C1272 0.950 . S
H1267 C1273 0.950 . S
H1268 C1274 0.949 . S
C1269 H1264 0.950 . S
C1269 C1271 1.327 . S
C1269 C1275 1.429 . S
C1270 C1262 1.574 . S
C1270 H1265 0.949 . S
C1270 C1276 1.368 . S
C1271 C1255 1.349 . S
C1271 H1263 0.950 . S
C1271 C1269 1.327 . S
C1272 C1260 1.349 . S
C1272 H1266 0.950 . S
C1272 C1273 1.327 . S
C1273 H1267 0.950 . S
C1273 C1272 1.327 . S
C1273 C1277 1.429 . S
C1274 C1257 1.574 . S
C1274 H1268 0.949 . S
C1274 C1278 1.368 . S
C1275 C1256 1.429 . S
C1275 C1269 1.429 . S
C1275 C1276 1.523 . S
C1276 C1257 1.368 . S
C1276 C1270 1.368 . S
C1276 C1275 1.523 . S
C1277 C1261 1.429 . S
C1277 C1273 1.429 . S
C1277 C1278 1.523 . S
C1278 C1262 1.368 . S
C1278 C1274 1.368 . S
C1278 C1277 1.523 . S
H1279 C1254 0.950 . S
H1280 C1256 0.950 . S
H1281 C1257 0.949 . S
H1282 C1259 0.950 . S
H1283 C1261 0.950 . S
C1284 C1285 1.349 . S
C1284 C1286 1.327 . S
C1284 H1309 0.950 . S
C1285 C1284 1.349 . S
C1285 C1301 1.349 . S
C1286 C1284 1.327 . S
C1286 C1305 1.429 . S
C1286 H1310 0.950 . S
C1287 C1304 1.574 . S
C1287 C1306 1.368 . S
C1287 H1311 0.949 . S
H1288 C1292 0.949 . S
C1289 C1290 1.349 . S
C1289 C1291 1.327 . S
C1289 H1312 0.950 . S
C1290 C1289 1.349 . S
C1290 C1302 1.349 . S
C1291 C1289 1.327 . S
C1291 C1307 1.429 . S
C1291 H1313 0.950 . S
C1292 H1288 0.949 . S
C1292 C1300 1.574 . S
C1292 C1308 1.368 . S
H1293 C1301 0.950 . S
H1294 C1299 0.950 . S
H1295 C1300 0.949 . S
H1296 C1302 0.950 . S
H1297 C1303 0.950 . S
H1298 C1304 0.949 . S
C1299 H1294 0.950 . S
C1299 C1301 1.327 . S
C1299 C1305 1.429 . S
C1300 C1292 1.574 . S
C1300 H1295 0.949 . S
C1300 C1306 1.368 . S
C1301 C1285 1.349 . S
C1301 H1293 0.950 . S
C1301 C1299 1.327 . S
C1302 C1290 1.349 . S
C1302 H1296 0.950 . S
C1302 C1303 1.327 . S
C1303 H1297 0.950 . S
C1303 C1302 1.327 . S
C1303 C1307 1.429 . S
C1304 C1287 1.574 . S
C1304 H1298 0.949 . S
C1304 C1308 1.368 . S
C1305 C1286 1.429 . S
C1305 C1299 1.429 . S
C1305 C1306 1.523 . S
C1306 C1287 1.368 . S
C1306 C1300 1.368 . S
C1306 C1305 1.523 . S
C1307 C1291 1.429 . S
C1307 C1303 1.429 . S
C1307 C1308 1.523 . S
C1308 C1292 1.368 . S
C1308 C1304 1.368 . S
C1308 C1307 1.523 . S
H1309 C1284 0.950 . S
H1310 C1286 0.950 . S
H1311 C1287 0.949 . S
H1312 C1289 0.950 . S
H1313 C1291 0.950 . S
C1314 C1315 1.349 . S
C1314 C1316 1.327 . S
C1314 H1339 0.950 . S
C1315 C1314 1.349 . S
C1315 C1331 1.349 . S
C1316 C1314 1.327 . S
C1316 C1335 1.429 . S
C1316 H1340 0.950 . S
C1317 C1334 1.574 . S
C1317 C1336 1.368 . S
C1317 H1341 0.949 . S
H1318 C1322 0.949 . S
C1319 C1320 1.346 . S
C1319 C1321 1.325 . S
C1319 H1342 0.952 1_556 S
C1320 C1319 1.346 . S
C1320 C1332 1.416 . S
C1321 C1319 1.325 . S
C1321 C1337 1.429 . S
C1321 H1343 0.950 . S
C1322 H1318 0.949 . S
C1322 C1330 1.574 . S
C1322 C1338 1.368 . S
H1323 C1331 0.950 . S
H1324 C1329 0.950 . S
H1325 C1330 0.949 . S
H1326 C1332 0.950 . S
H1327 C1333 0.950 . S
H1328 C1334 0.949 . S
C1329 H1324 0.950 . S
C1329 C1331 1.327 . S
C1329 C1335 1.429 . S
C1330 C1322 1.574 . S
C1330 H1325 0.949 . S
C1330 C1336 1.368 . S
C1331 C1315 1.349 . S
C1331 H1323 0.950 . S
C1331 C1329 1.327 . S
C1332 C1320 1.416 . S
C1332 H1326 0.950 . S
C1332 C1333 1.327 . S
C1333 H1327 0.950 . S
C1333 C1332 1.327 . S
C1333 C1337 1.429 . S
C1334 C1317 1.574 . S
C1334 H1328 0.949 . S
C1334 C1338 1.368 . S
C1335 C1316 1.429 . S
C1335 C1329 1.429 . S
C1335 C1336 1.523 . S
C1336 C1317 1.368 . S
C1336 C1330 1.368 . S
C1336 C1335 1.523 . S
C1337 C1321 1.429 . S
C1337 C1333 1.429 . S
C1337 C1338 1.523 . S
C1338 C1322 1.368 . S
C1338 C1334 1.368 . S
C1338 C1337 1.523 . S
H1339 C1314 0.950 . S
H1340 C1316 0.950 . S
H1341 C1317 0.949 . S
H1342 C1319 0.952 1_554 S
H1343 C1321 0.950 . S
C1344 C1345 1.349 . S
C1344 C1346 1.327 . S
C1344 H1369 0.950 . S
C1345 C1344 1.349 . S
C1345 C1361 1.349 . S
C1346 C1344 1.327 . S
C1346 C1365 1.429 . S
C1346 H1370 0.950 . S
C1347 C1364 1.574 . S
C1347 C1366 1.368 . S
C1347 H1371 0.949 . S
H1348 C1352 0.949 . S
C1349 C1350 1.349 . S
C1349 C1351 1.362 . S
C1349 H1372 0.915 1_556 S
C1350 C1349 1.349 . S
C1350 C1362 1.412 . S
C1351 C1349 1.362 . S
C1351 C1367 1.429 . S
C1351 H1373 0.950 . S
C1352 H1348 0.949 . S
C1352 C1360 1.574 . S
C1352 C1368 1.368 . S
H1353 C1361 0.950 . S
H1354 C1359 0.950 . S
H1355 C1360 0.949 . S
H1356 C1362 0.950 . S
H1357 C1363 0.950 . S
H1358 C1364 0.949 . S
C1359 H1354 0.950 . S
C1359 C1361 1.327 . S
C1359 C1365 1.429 . S
C1360 C1352 1.574 . S
C1360 H1355 0.949 . S
C1360 C1366 1.368 . S
C1361 C1345 1.349 . S
C1361 H1353 0.950 . S
C1361 C1359 1.327 . S
C1362 C1350 1.412 . S
C1362 H1356 0.950 . S
C1362 C1363 1.327 . S
C1363 H1357 0.950 . S
C1363 C1362 1.327 . S
C1363 C1367 1.429 . S
C1364 C1347 1.574 . S
C1364 H1358 0.949 . S
C1364 C1368 1.368 . S
C1365 C1346 1.429 . S
C1365 C1359 1.429 . S
C1365 C1366 1.523 . S
C1366 C1347 1.368 . S
C1366 C1360 1.368 . S
C1366 C1365 1.523 . S
C1367 C1351 1.429 . S
C1367 C1363 1.429 . S
C1367 C1368 1.523 . S
C1368 C1352 1.368 . S
C1368 C1364 1.368 . S
C1368 C1367 1.523 . S
H1369 C1344 0.950 . S
H1370 C1346 0.950 . S
H1371 C1347 0.949 . S
H1372 C1349 0.915 1_554 S
H1373 C1351 0.950 . S
C1374 C1375 1.349 . S
C1374 C1376 1.327 . S
C1374 H1399 0.950 . S
C1375 C1374 1.349 . S
C1375 C1391 1.349 . S
C1376 C1374 1.327 . S
C1376 C1395 1.429 . S
C1376 H1400 0.950 . S
C1377 C1394 1.574 . S
C1377 C1396 1.368 . S
C1377 H1401 0.949 . S
H1378 C1382 0.949 . S
C1379 C1380 1.348 . S
C1379 C1381 1.319 . S
C1379 H1402 0.959 1_556 S
C1380 C1379 1.348 . S
C1380 C1392 1.349 . S
C1381 C1379 1.319 . S
C1381 C1397 1.429 . S
C1381 H1403 0.950 . S
C1382 H1378 0.949 . S
C1382 C1390 1.574 . S
C1382 C1398 1.368 . S
H1383 C1391 0.950 . S
H1384 C1389 0.950 . S
H1385 C1390 0.949 . S
H1386 C1392 0.950 . S
H1387 C1393 0.950 . S
H1388 C1394 0.949 . S
C1389 H1384 0.950 . S
C1389 C1391 1.327 . S
C1389 C1395 1.429 . S
C1390 C1382 1.574 . S
C1390 H1385 0.949 . S
C1390 C1396 1.368 . S
C1391 C1375 1.349 . S
C1391 H1383 0.950 . S
C1391 C1389 1.327 . S
C1392 C1380 1.349 . S
C1392 H1386 0.950 . S
C1392 C1393 1.327 . S
C1393 H1387 0.950 . S
C1393 C1392 1.327 . S
C1393 C1397 1.429 . S
C1394 C1377 1.574 . S
C1394 H1388 0.949 . S
C1394 C1398 1.368 . S
C1395 C1376 1.429 . S
C1395 C1389 1.429 . S
C1395 C1396 1.523 . S
C1396 C1377 1.368 . S
C1396 C1390 1.368 . S
C1396 C1395 1.523 . S
C1397 C1381 1.429 . S
C1397 C1393 1.429 . S
C1397 C1398 1.523 . S
C1398 C1382 1.368 . S
C1398 C1394 1.368 . S
C1398 C1397 1.523 . S
H1399 C1374 0.950 . S
H1400 C1376 0.950 . S
H1401 C1377 0.949 . S
H1402 C1379 0.959 1_554 S
H1403 C1381 0.950 . S
C1404 C1405 1.349 . S
C1404 C1406 1.327 . S
C1404 H1429 0.950 . S
C1405 C1404 1.349 . S
C1405 C1421 1.349 . S
C1406 C1404 1.327 . S
C1406 C1425 1.429 . S
C1406 H1430 0.950 . S
C1407 C1424 1.574 . S
C1407 C1426 1.368 . S
C1407 H1431 0.949 . S
H1408 C1412 0.949 . S
C1409 C1410 1.349 . S
C1409 C1411 1.327 . S
C1409 H1432 0.950 . S
C1410 C1409 1.349 . S
C1410 C1422 1.349 . S
C1411 C1409 1.327 . S
C1411 C1427 1.429 . S
C1411 H1433 0.950 . S
C1412 H1408 0.949 . S
C1412 C1420 1.574 . S
C1412 C1428 1.368 . S
H1413 C1421 0.950 . S
H1414 C1419 0.950 . S
H1415 C1420 0.949 . S
H1416 C1422 0.950 . S
H1417 C1423 0.950 . S
H1418 C1424 0.949 . S
C1419 H1414 0.950 . S
C1419 C1421 1.327 . S
C1419 C1425 1.429 . S
C1420 C1412 1.574 . S
C1420 H1415 0.949 . S
C1420 C1426 1.368 . S
C1421 C1405 1.349 . S
C1421 H1413 0.950 . S
C1421 C1419 1.327 . S
C1422 C1410 1.349 . S
C1422 H1416 0.950 . S
C1422 C1423 1.327 . S
C1423 H1417 0.950 . S
C1423 C1422 1.327 . S
C1423 C1427 1.429 . S
C1424 C1407 1.574 . S
C1424 H1418 0.949 . S
C1424 C1428 1.368 . S
C1425 C1406 1.429 . S
C1425 C1419 1.429 . S
C1425 C1426 1.523 . S
C1426 C1407 1.368 . S
C1426 C1420 1.368 . S
C1426 C1425 1.523 . S
C1427 C1411 1.429 . S
C1427 C1423 1.429 . S
C1427 C1428 1.523 . S
C1428 C1412 1.368 . S
C1428 C1424 1.368 . S
C1428 C1427 1.523 . S
H1429 C1404 0.950 . S
H1430 C1406 0.950 . S
H1431 C1407 0.949 . S
H1432 C1409 0.950 . S
H1433 C1411 0.950 . S
C1434 C1435 1.349 . S
C1434 C1436 1.327 . S
C1434 H1459 0.950 . S
C1435 C1434 1.349 . S
C1435 C1451 1.349 . S
C1436 C1434 1.327 . S
C1436 C1455 1.429 . S
C1436 H1460 0.950 . S
C1437 C1454 1.574 . S
C1437 C1456 1.368 . S
C1437 H1461 0.949 . S
H1438 C1442 0.949 . S
C1439 C1440 1.349 . S
C1439 C1441 1.327 . S
C1439 H1462 0.950 . S
C1440 C1439 1.349 . S
C1440 C1452 1.349 . S
C1441 C1439 1.327 . S
C1441 C1457 1.429 . S
C1441 H1463 0.950 . S
C1442 H1438 0.949 . S
C1442 C1450 1.574 . S
C1442 C1458 1.368 . S
H1443 C1451 0.950 . S
H1444 C1449 0.950 . S
H1445 C1450 0.949 . S
H1446 C1452 0.950 . S
H1447 C1453 0.950 . S
H1448 C1454 0.949 . S
C1449 H1444 0.950 . S
C1449 C1451 1.327 . S
C1449 C1455 1.429 . S
C1450 C1442 1.574 . S
C1450 H1445 0.949 . S
C1450 C1456 1.368 . S
C1451 C1435 1.349 . S
C1451 H1443 0.950 . S
C1451 C1449 1.327 . S
C1452 C1440 1.349 . S
C1452 H1446 0.950 . S
C1452 C1453 1.327 . S
C1453 H1447 0.950 . S
C1453 C1452 1.327 . S
C1453 C1457 1.429 . S
C1454 C1437 1.574 . S
C1454 H1448 0.949 . S
C1454 C1458 1.368 . S
C1455 C1436 1.429 . S
C1455 C1449 1.429 . S
C1455 C1456 1.523 . S
C1456 C1437 1.368 . S
C1456 C1450 1.368 . S
C1456 C1455 1.523 . S
C1457 C1441 1.429 . S
C1457 C1453 1.429 . S
C1457 C1458 1.523 . S
C1458 C1442 1.368 . S
C1458 C1454 1.368 . S
C1458 C1457 1.523 . S
H1459 C1434 0.950 . S
H1460 C1436 0.950 . S
H1461 C1437 0.949 . S
H1462 C1439 0.950 . S
H1463 C1441 0.950 . S
C1464 C1465 1.349 . S
C1464 C1466 1.327 . S
C1464 H1489 0.950 . S
C1465 C1464 1.349 . S
C1465 C1481 1.349 . S
C1466 C1464 1.327 . S
C1466 C1485 1.429 . S
C1466 H1490 0.950 . S
C1467 C1484 1.574 . S
C1467 C1486 1.368 . S
C1467 H1491 0.949 . S
H1468 C1472 0.949 . S
C1469 C1470 1.349 . S
C1469 C1471 1.327 . S
C1469 H1492 0.950 . S
C1470 C1469 1.349 . S
C1470 C1482 1.349 . S
C1471 C1469 1.327 . S
C1471 C1487 1.429 . S
C1471 H1493 0.950 . S
C1472 H1468 0.949 . S
C1472 C1480 1.574 . S
C1472 C1488 1.368 . S
H1473 C1481 0.950 . S
H1474 C1479 0.950 . S
H1475 C1480 0.949 . S
H1476 C1482 0.950 . S
H1477 C1483 0.950 . S
H1478 C1484 0.949 . S
C1479 H1474 0.950 . S
C1479 C1481 1.327 . S
C1479 C1485 1.429 . S
C1480 C1472 1.574 . S
C1480 H1475 0.949 . S
C1480 C1486 1.368 . S
C1481 C1465 1.349 . S
C1481 H1473 0.950 . S
C1481 C1479 1.327 . S
C1482 C1470 1.349 . S
C1482 H1476 0.950 . S
C1482 C1483 1.327 . S
C1483 H1477 0.950 . S
C1483 C1482 1.327 . S
C1483 C1487 1.429 . S
C1484 C1467 1.574 . S
C1484 H1478 0.949 . S
C1484 C1488 1.368 . S
C1485 C1466 1.429 . S
C1485 C1479 1.429 . S
C1485 C1486 1.523 . S
C1486 C1467 1.368 . S
C1486 C1480 1.368 . S
C1486 C1485 1.523 . S
C1487 C1471 1.429 . S
C1487 C1483 1.429 . S
C1487 C1488 1.523 . S
C1488 C1472 1.368 . S
C1488 C1484 1.368 . S
C1488 C1487 1.523 . S
H1489 C1464 0.950 . S
H1490 C1466 0.950 . S
H1491 C1467 0.949 . S
H1492 C1469 0.950 . S
H1493 C1471 0.950 . S
C1494 C1495 1.349 . S
C1494 C1496 1.327 . S
C1494 H1519 0.950 . S
C1495 C1494 1.349 . S
C1495 C1511 1.349 . S
C1496 C1494 1.327 . S
C1496 C1515 1.429 . S
C1496 H1520 0.950 . S
C1497 C1514 1.574 . S
C1497 C1516 1.368 . S
C1497 H1521 0.949 . S
H1498 C1502 0.949 . S
C1499 C1500 1.349 . S
C1499 C1501 1.327 . S
C1499 H1522 0.950 . S
C1500 C1499 1.349 . S
C1500 C1512 1.349 . S
C1501 C1499 1.327 . S
C1501 C1517 1.429 . S
C1501 H1523 0.950 . S
C1502 H1498 0.949 . S
C1502 C1510 1.574 . S
C1502 C1518 1.368 . S
H1503 C1511 0.950 . S
H1504 C1509 0.950 . S
H1505 C1510 0.949 . S
H1506 C1512 0.950 . S
H1507 C1513 0.950 . S
H1508 C1514 0.949 . S
C1509 H1504 0.950 . S
C1509 C1511 1.327 . S
C1509 C1515 1.429 . S
C1510 C1502 1.574 . S
C1510 H1505 0.949 . S
C1510 C1516 1.368 . S
C1511 C1495 1.349 . S
C1511 H1503 0.950 . S
C1511 C1509 1.327 . S
C1512 C1500 1.349 . S
C1512 H1506 0.950 . S
C1512 C1513 1.327 . S
C1513 H1507 0.950 . S
C1513 C1512 1.327 . S
C1513 C1517 1.429 . S
C1514 C1497 1.574 . S
C1514 H1508 0.949 . S
C1514 C1518 1.368 . S
C1515 C1496 1.429 . S
C1515 C1509 1.429 . S
C1515 C1516 1.523 . S
C1516 C1497 1.368 . S
C1516 C1510 1.368 . S
C1516 C1515 1.523 . S
C1517 C1501 1.429 . S
C1517 C1513 1.429 . S
C1517 C1518 1.523 . S
C1518 C1502 1.368 . S
C1518 C1514 1.368 . S
C1518 C1517 1.523 . S
H1519 C1494 0.950 . S
H1520 C1496 0.950 . S
H1521 C1497 0.949 . S
H1522 C1499 0.950 . S
H1523 C1501 0.950 . S
C1524 C1525 1.349 . S
C1524 C1526 1.327 . S
C1524 H1549 0.950 . S
C1525 C1524 1.349 . S
C1525 C1541 1.349 . S
C1526 C1524 1.327 . S
C1526 C1545 1.429 . S
C1526 H1550 0.950 . S
C1527 C1544 1.574 . S
C1527 C1546 1.368 . S
C1527 H1551 0.949 . S
H1528 C1532 0.949 . S
C1529 C1530 1.349 . S
C1529 C1531 1.327 . S
C1529 H1552 0.950 . S
C1530 C1529 1.349 . S
C1530 C1542 1.349 . S
C1531 C1529 1.327 . S
C1531 C1547 1.429 . S
C1531 H1553 0.950 . S
C1532 H1528 0.949 . S
C1532 C1540 1.574 . S
C1532 C1548 1.368 . S
H1533 C1541 0.950 . S
H1534 C1539 0.950 . S
H1535 C1540 0.949 . S
H1536 C1542 0.950 . S
H1537 C1543 0.950 . S
H1538 C1544 0.949 . S
C1539 H1534 0.950 . S
C1539 C1541 1.327 . S
C1539 C1545 1.429 . S
C1540 C1532 1.574 . S
C1540 H1535 0.949 . S
C1540 C1546 1.368 . S
C1541 C1525 1.349 . S
C1541 H1533 0.950 . S
C1541 C1539 1.327 . S
C1542 C1530 1.349 . S
C1542 H1536 0.950 . S
C1542 C1543 1.327 . S
C1543 H1537 0.950 . S
C1543 C1542 1.327 . S
C1543 C1547 1.429 . S
C1544 C1527 1.574 . S
C1544 H1538 0.949 . S
C1544 C1548 1.368 . S
C1545 C1526 1.429 . S
C1545 C1539 1.429 . S
C1545 C1546 1.523 . S
C1546 C1527 1.368 . S
C1546 C1540 1.368 . S
C1546 C1545 1.523 . S
C1547 C1531 1.429 . S
C1547 C1543 1.429 . S
C1547 C1548 1.523 . S
C1548 C1532 1.368 . S
C1548 C1544 1.368 . S
C1548 C1547 1.523 . S
H1549 C1524 0.950 . S
H1550 C1526 0.950 . S
H1551 C1527 0.949 . S
H1552 C1529 0.950 . S
H1553 C1531 0.950 . S
C1554 C1555 1.349 . S
C1554 C1556 1.327 . S
C1554 H1579 0.950 . S
C1555 C1554 1.349 . S
C1555 C1571 1.349 . S
C1556 C1554 1.327 . S
C1556 C1575 1.429 . S
C1556 H1580 0.950 . S
C1557 C1574 1.574 . S
C1557 C1576 1.368 . S
C1557 H1581 0.949 . S
H1558 C1562 0.949 . S
C1559 C1560 1.349 . S
C1559 C1561 1.327 . S
C1559 H1582 0.950 . S
C1560 C1559 1.349 . S
C1560 C1572 1.349 . S
C1561 C1559 1.327 . S
C1561 C1577 1.429 . S
C1561 H1583 0.950 . S
C1562 H1558 0.949 . S
C1562 C1570 1.574 . S
C1562 C1578 1.368 . S
H1563 C1571 0.950 . S
H1564 C1569 0.950 . S
H1565 C1570 0.949 . S
H1566 C1572 0.950 . S
H1567 C1573 0.950 . S
H1568 C1574 0.949 . S
C1569 H1564 0.950 . S
C1569 C1571 1.327 . S
C1569 C1575 1.429 . S
C1570 C1562 1.574 . S
C1570 H1565 0.949 . S
C1570 C1576 1.368 . S
C1571 C1555 1.349 . S
C1571 H1563 0.950 . S
C1571 C1569 1.327 . S
C1572 C1560 1.349 . S
C1572 H1566 0.950 . S
C1572 C1573 1.327 . S
C1573 H1567 0.950 . S
C1573 C1572 1.327 . S
C1573 C1577 1.429 . S
C1574 C1557 1.574 . S
C1574 H1568 0.949 . S
C1574 C1578 1.368 . S
C1575 C1556 1.429 . S
C1575 C1569 1.429 . S
C1575 C1576 1.523 . S
C1576 C1557 1.368 . S
C1576 C1570 1.368 . S
C1576 C1575 1.523 . S
C1577 C1561 1.429 . S
C1577 C1573 1.429 . S
C1577 C1578 1.523 . S
C1578 C1562 1.368 . S
C1578 C1574 1.368 . S
C1578 C1577 1.523 . S
H1579 C1554 0.950 . S
H1580 C1556 0.950 . S
H1581 C1557 0.949 . S
H1582 C1559 0.950 . S
H1583 C1561 0.950 . S
C1584 C1585 1.349 . S
C1584 C1586 1.327 . S
C1584 H1609 0.950 . S
C1585 C1584 1.349 . S
C1585 C1601 1.349 . S
C1586 C1584 1.327 . S
C1586 C1605 1.429 . S
C1586 H1610 0.950 . S
C1587 C1604 1.574 . S
C1587 C1606 1.368 . S
C1587 H1611 0.949 . S
H1588 C1592 0.949 . S
C1589 C1590 1.349 . S
C1589 C1591 1.327 . S
C1589 H1612 0.962 . S
C1590 C1589 1.349 . S
C1590 C1602 1.349 . S
C1591 C1589 1.327 . S
C1591 C1607 1.429 . S
C1591 H1613 0.950 . S
C1592 H1588 0.949 . S
C1592 C1600 1.574 . S
C1592 C1608 1.368 . S
H1593 C1601 0.950 . S
H1594 C1599 0.950 . S
H1595 C1600 0.949 . S
H1596 C1602 0.950 . S
H1597 C1603 0.950 . S
H1598 C1604 0.949 . S
C1599 H1594 0.950 . S
C1599 C1601 1.327 . S
C1599 C1605 1.429 . S
C1600 C1592 1.574 . S
C1600 H1595 0.949 . S
C1600 C1606 1.368 . S
C1601 C1585 1.349 . S
C1601 H1593 0.950 . S
C1601 C1599 1.327 . S
C1602 C1590 1.349 . S
C1602 H1596 0.950 . S
C1602 C1603 1.327 . S
C1603 H1597 0.950 . S
C1603 C1602 1.327 . S
C1603 C1607 1.429 . S
C1604 C1587 1.574 . S
C1604 H1598 0.949 . S
C1604 C1608 1.368 . S
C1605 C1586 1.429 . S
C1605 C1599 1.429 . S
C1605 C1606 1.523 . S
C1606 C1587 1.368 . S
C1606 C1600 1.368 . S
C1606 C1605 1.523 . S
C1607 C1591 1.429 . S
C1607 C1603 1.429 . S
C1607 C1608 1.523 . S
C1608 C1592 1.368 . S
C1608 C1604 1.368 . S
C1608 C1607 1.523 . S
H1609 C1584 0.950 . S
H1610 C1586 0.950 . S
H1611 C1587 0.949 . S
H1612 C1589 0.962 . S
H1613 C1591 0.950 . S
C1614 C1615 1.349 . S
C1614 C1616 1.327 . S
C1614 H1639 0.950 . S
C1615 C1614 1.349 . S
C1615 C1631 1.349 1_655 S
C1616 C1614 1.327 . S
C1616 C1635 1.429 . S
C1616 H1640 0.950 . S
C1617 C1634 1.574 . S
C1617 C1636 1.368 1_455 S
C1617 H1641 0.949 . S
H1618 C1622 0.949 . S
C1619 C1620 1.349 1_455 S
C1619 C1621 1.327 . S
C1619 H1642 0.950 . S
C1620 C1619 1.349 1_655 S
C1620 C1632 1.349 . S
C1621 C1619 1.327 . S
C1621 C1637 1.429 1_455 S
C1621 H1643 0.950 . S
C1622 H1618 0.949 . S
C1622 C1630 1.574 . S
C1622 C1638 1.368 . S
H1623 C1631 0.950 . S
H1624 C1629 0.950 . S
H1625 C1630 0.949 . S
H1626 C1632 0.950 . S
H1627 C1633 0.950 . S
H1628 C1634 0.949 . S
C1629 H1624 0.950 . S
C1629 C1631 1.327 . S
C1629 C1635 1.429 1_455 S
C1630 C1622 1.574 . S
C1630 H1625 0.949 . S
C1630 C1636 1.368 . S
C1631 C1615 1.349 1_455 S
C1631 H1623 0.950 . S
C1631 C1629 1.327 . S
C1632 C1620 1.349 . S
C1632 H1626 0.950 . S
C1632 C1633 1.327 . S
C1633 H1627 0.950 . S
C1633 C1632 1.327 . S
C1633 C1637 1.429 . S
C1634 C1617 1.574 . S
C1634 H1628 0.949 . S
C1634 C1638 1.368 1_455 S
C1635 C1616 1.429 . S
C1635 C1629 1.429 1_655 S
C1635 C1636 1.523 . S
C1636 C1617 1.368 1_655 S
C1636 C1630 1.368 . S
C1636 C1635 1.523 . S
C1637 C1621 1.429 1_655 S
C1637 C1633 1.429 . S
C1637 C1638 1.523 . S
C1638 C1622 1.368 . S
C1638 C1634 1.368 1_655 S
C1638 C1637 1.523 . S
H1639 C1614 0.950 . S
H1640 C1616 0.950 . S
H1641 C1617 0.949 . S
H1642 C1619 0.950 . S
H1643 C1621 0.950 . S
C1644 C1645 1.349 . S
C1644 C1646 1.327 . S
C1644 H1669 0.950 . S
C1645 C1644 1.349 . S
C1645 C1661 1.349 . S
C1646 C1644 1.327 . S
C1646 C1665 1.429 . S
C1646 H1670 0.950 . S
C1647 C1664 1.574 . S
C1647 C1666 1.368 . S
C1647 H1671 0.949 . S
H1648 C1652 0.949 . S
C1649 C1650 1.349 . S
C1649 C1651 1.327 . S
C1649 H1672 0.950 . S
C1650 C1649 1.349 . S
C1650 C1662 1.349 . S
C1651 C1649 1.327 . S
C1651 C1667 1.429 . S
C1651 H1673 0.950 . S
C1652 H1648 0.949 . S
C1652 C1660 1.574 . S
C1652 C1668 1.368 . S
H1653 C1661 0.950 . S
H1654 C1659 0.950 . S
H1655 C1660 0.949 . S
H1656 C1662 0.950 . S
H1657 C1663 0.950 . S
H1658 C1664 0.949 . S
C1659 H1654 0.950 . S
C1659 C1661 1.327 . S
C1659 C1665 1.429 . S
C1660 C1652 1.574 . S
C1660 H1655 0.949 . S
C1660 C1666 1.368 . S
C1661 C1645 1.349 . S
C1661 H1653 0.950 . S
C1661 C1659 1.327 . S
C1662 C1650 1.349 . S
C1662 H1656 0.950 . S
C1662 C1663 1.327 . S
C1663 H1657 0.950 . S
C1663 C1662 1.327 . S
C1663 C1667 1.429 . S
C1664 C1647 1.574 . S
C1664 H1658 0.949 . S
C1664 C1668 1.368 . S
C1665 C1646 1.429 . S
C1665 C1659 1.429 . S
C1665 C1666 1.523 . S
C1666 C1647 1.368 . S
C1666 C1660 1.368 . S
C1666 C1665 1.523 . S
C1667 C1651 1.429 . S
C1667 C1663 1.429 . S
C1667 C1668 1.523 . S
C1668 C1652 1.368 . S
C1668 C1664 1.368 . S
C1668 C1667 1.523 . S
H1669 C1644 0.950 . S
H1670 C1646 0.950 . S
H1671 C1647 0.949 . S
H1672 C1649 0.950 . S
H1673 C1651 0.950 . S
C1674 C1675 1.349 . S
C1674 C1676 1.327 . S
C1674 H1699 0.950 . S
C1675 C1674 1.349 . S
C1675 C1691 1.349 . S
C1676 C1674 1.327 . S
C1676 C1695 1.429 . S
C1676 H1700 0.950 . S
C1677 C1694 1.574 . S
C1677 C1696 1.368 . S
C1677 H1701 0.949 . S
H1678 C1682 0.949 . S
C1679 C1680 1.349 . S
C1679 C1681 1.327 . S
C1679 H1702 0.950 . S
C1680 C1679 1.349 . S
C1680 C1692 1.349 . S
C1681 C1679 1.327 . S
C1681 C1697 1.429 . S
C1681 H1703 0.950 . S
C1682 H1678 0.949 . S
C1682 C1690 1.574 . S
C1682 C1698 1.368 . S
H1683 C1691 0.950 . S
H1684 C1689 0.950 . S
H1685 C1690 0.949 . S
H1686 C1692 0.950 . S
H1687 C1693 0.950 . S
H1688 C1694 0.949 . S
C1689 H1684 0.950 . S
C1689 C1691 1.327 . S
C1689 C1695 1.429 . S
C1690 C1682 1.574 . S
C1690 H1685 0.949 . S
C1690 C1696 1.368 . S
C1691 C1675 1.349 . S
C1691 H1683 0.950 . S
C1691 C1689 1.327 . S
C1692 C1680 1.349 . S
C1692 H1686 0.950 . S
C1692 C1693 1.327 . S
C1693 H1687 0.950 . S
C1693 C1692 1.327 . S
C1693 C1697 1.429 . S
C1694 C1677 1.574 . S
C1694 H1688 0.949 . S
C1694 C1698 1.368 . S
C1695 C1676 1.429 . S
C1695 C1689 1.429 . S
C1695 C1696 1.523 . S
C1696 C1677 1.368 . S
C1696 C1690 1.368 . S
C1696 C1695 1.523 . S
C1697 C1681 1.429 . S
C1697 C1693 1.429 . S
C1697 C1698 1.523 . S
C1698 C1682 1.368 . S
C1698 C1694 1.368 . S
C1698 C1697 1.523 . S
H1699 C1674 0.950 . S
H1700 C1676 0.950 . S
H1701 C1677 0.949 . S
H1702 C1679 0.950 . S
H1703 C1681 0.950 . S
C1704 C1705 1.349 . S
C1704 C1706 1.327 . S
C1704 H1729 0.950 . S
C1705 C1704 1.349 . S
C1705 C1721 1.349 . S
C1706 C1704 1.327 . S
C1706 C1725 1.429 . S
C1706 H1730 0.950 . S
C1707 C1724 1.574 . S
C1707 C1726 1.368 . S
C1707 H1731 0.949 . S
H1708 C1712 0.949 . S
C1709 C1710 1.349 . S
C1709 C1711 1.327 . S
C1709 H1732 0.950 . S
C1710 C1709 1.349 . S
C1710 C1722 1.349 . S
C1711 C1709 1.327 . S
C1711 C1727 1.429 . S
C1711 H1733 0.950 . S
C1712 H1708 0.949 . S
C1712 C1720 1.574 . S
C1712 C1728 1.368 . S
H1713 C1721 0.950 . S
H1714 C1719 0.950 . S
H1715 C1720 0.949 . S
H1716 C1722 0.950 . S
H1717 C1723 0.950 . S
H1718 C1724 0.949 . S
C1719 H1714 0.950 . S
C1719 C1721 1.327 . S
C1719 C1725 1.429 . S
C1720 C1712 1.574 . S
C1720 H1715 0.949 . S
C1720 C1726 1.368 . S
C1721 C1705 1.349 . S
C1721 H1713 0.950 . S
C1721 C1719 1.327 . S
C1722 C1710 1.349 . S
C1722 H1716 0.950 . S
C1722 C1723 1.327 . S
C1723 H1717 0.950 . S
C1723 C1722 1.327 . S
C1723 C1727 1.429 . S
C1724 C1707 1.574 . S
C1724 H1718 0.949 . S
C1724 C1728 1.368 . S
C1725 C1706 1.429 . S
C1725 C1719 1.429 . S
C1725 C1726 1.523 . S
C1726 C1707 1.368 . S
C1726 C1720 1.368 . S
C1726 C1725 1.523 . S
C1727 C1711 1.429 . S
C1727 C1723 1.429 . S
C1727 C1728 1.523 . S
C1728 C1712 1.368 . S
C1728 C1724 1.368 . S
C1728 C1727 1.523 . S
H1729 C1704 0.950 . S
H1730 C1706 0.950 . S
H1731 C1707 0.949 . S
H1732 C1709 0.950 . S
H1733 C1711 0.950 . S
C1734 C1735 1.349 . S
C1734 C1736 1.327 . S
C1734 H1759 0.950 . S
C1735 C1734 1.349 . S
C1735 C1751 1.349 1_565 S
C1736 C1734 1.327 . S
C1736 C1755 1.429 . S
C1736 H1760 0.950 . S
C1737 C1754 1.574 . S
C1737 C1756 1.368 1_545 S
C1737 H1761 0.949 . S
H1738 C1742 0.949 . S
C1739 C1740 1.349 1_545 S
C1739 C1741 1.327 . S
C1739 H1762 0.950 . S
C1740 C1739 1.349 1_565 S
C1740 C1752 1.349 . S
C1741 C1739 1.327 . S
C1741 C1757 1.429 1_545 S
C1741 H1763 0.950 . S
C1742 H1738 0.949 . S
C1742 C1750 1.574 . S
C1742 C1758 1.368 . S
H1743 C1751 0.950 . S
H1744 C1749 0.950 . S
H1745 C1750 0.949 . S
H1746 C1752 0.950 . S
H1747 C1753 0.950 . S
H1748 C1754 0.949 . S
C1749 H1744 0.950 . S
C1749 C1751 1.327 . S
C1749 C1755 1.429 1_545 S
C1750 C1742 1.574 . S
C1750 H1745 0.949 . S
C1750 C1756 1.368 . S
C1751 C1735 1.349 1_545 S
C1751 H1743 0.950 . S
C1751 C1749 1.327 . S
C1752 C1740 1.349 . S
C1752 H1746 0.950 . S
C1752 C1753 1.327 . S
C1753 H1747 0.950 . S
C1753 C1752 1.327 . S
C1753 C1757 1.429 . S
C1754 C1737 1.574 . S
C1754 H1748 0.949 . S
C1754 C1758 1.368 1_545 S
C1755 C1736 1.429 . S
C1755 C1749 1.429 1_565 S
C1755 C1756 1.523 . S
C1756 C1737 1.368 1_565 S
C1756 C1750 1.368 . S
C1756 C1755 1.523 . S
C1757 C1741 1.429 1_565 S
C1757 C1753 1.429 . S
C1757 C1758 1.523 . S
C1758 C1742 1.368 . S
C1758 C1754 1.368 1_565 S
C1758 C1757 1.523 . S
H1759 C1734 0.950 . S
H1760 C1736 0.950 . S
H1761 C1737 0.949 . S
H1762 C1739 0.950 . S
H1763 C1741 0.950 . S
C1764 C1765 1.349 . S
C1764 C1766 1.327 . S
C1764 H1789 0.950 . S
C1765 C1764 1.349 . S
C1765 C1781 1.349 1_565 S
C1766 C1764 1.327 . S
C1766 C1785 1.429 . S
C1766 H1790 0.950 . S
C1767 C1784 1.574 . S
C1767 C1786 1.368 1_545 S
C1767 H1791 0.949 . S
H1768 C1772 0.949 . S
C1769 C1770 1.359 . S
C1769 C1771 1.327 . S
C1769 H1792 0.950 . S
C1770 C1769 1.359 . S
C1770 C1782 1.345 1_545 S
C1771 C1769 1.327 . S
C1771 C1787 1.429 1_545 S
C1771 H1793 0.950 . S
C1772 H1768 0.949 . S
C1772 C1780 1.574 . S
C1772 C1788 1.368 . S
H1773 C1781 0.950 . S
H1774 C1779 0.950 . S
H1775 C1780 0.949 . S
H1776 C1782 0.950 . S
H1777 C1783 0.950 . S
H1778 C1784 0.949 . S
C1779 H1774 0.950 . S
C1779 C1781 1.327 . S
C1779 C1785 1.429 1_545 S
C1780 C1772 1.574 . S
C1780 H1775 0.949 . S
C1780 C1786 1.368 . S
C1781 C1765 1.349 1_545 S
C1781 H1773 0.950 . S
C1781 C1779 1.327 . S
C1782 C1770 1.345 1_565 S
C1782 H1776 0.950 . S
C1782 C1783 1.327 . S
C1783 H1777 0.950 . S
C1783 C1782 1.327 . S
C1783 C1787 1.429 . S
C1784 C1767 1.574 . S
C1784 H1778 0.949 . S
C1784 C1788 1.368 1_545 S
C1785 C1766 1.429 . S
C1785 C1779 1.429 1_565 S
C1785 C1786 1.523 . S
C1786 C1767 1.368 1_565 S
C1786 C1780 1.368 . S
C1786 C1785 1.523 . S
C1787 C1771 1.429 1_565 S
C1787 C1783 1.429 . S
C1787 C1788 1.523 . S
C1788 C1772 1.368 . S
C1788 C1784 1.368 1_565 S
C1788 C1787 1.523 . S
H1789 C1764 0.950 . S
H1790 C1766 0.950 . S
H1791 C1767 0.949 . S
H1792 C1769 0.950 . S
H1793 C1771 0.950 . S
C1794 C1795 1.349 . S
C1794 C1796 1.327 . S
C1794 H1819 0.950 . S
C1795 C1794 1.349 . S
C1795 C1811 1.349 . S
C1796 C1794 1.327 . S
C1796 C1815 1.429 . S
C1796 H1820 0.950 . S
C1797 C1814 1.574 . S
C1797 C1816 1.368 . S
C1797 H1821 0.949 . S
H1798 C1802 0.949 . S
C1799 C1800 1.349 . S
C1799 C1801 1.327 . S
C1799 H1822 0.950 . S
C1800 C1799 1.349 . S
C1800 C1812 1.349 . S
C1801 C1799 1.327 . S
C1801 C1817 1.429 . S
C1801 H1823 0.950 . S
C1802 H1798 0.949 . S
C1802 C1810 1.574 . S
C1802 C1818 1.368 . S
H1803 C1811 0.950 . S
H1804 C1809 0.950 . S
H1805 C1810 0.949 . S
H1806 C1812 0.950 . S
H1807 C1813 0.950 . S
H1808 C1814 0.949 . S
C1809 H1804 0.950 . S
C1809 C1811 1.327 . S
C1809 C1815 1.429 . S
C1810 C1802 1.574 . S
C1810 H1805 0.949 . S
C1810 C1816 1.368 . S
C1811 C1795 1.349 . S
C1811 H1803 0.950 . S
C1811 C1809 1.327 . S
C1812 C1800 1.349 . S
C1812 H1806 0.950 . S
C1812 C1813 1.327 . S
C1813 H1807 0.950 . S
C1813 C1812 1.327 . S
C1813 C1817 1.429 . S
C1814 C1797 1.574 . S
C1814 H1808 0.949 . S
C1814 C1818 1.368 . S
C1815 C1796 1.429 . S
C1815 C1809 1.429 . S
C1815 C1816 1.523 . S
C1816 C1797 1.368 . S
C1816 C1810 1.368 . S
C1816 C1815 1.523 . S
C1817 C1801 1.429 . S
C1817 C1813 1.429 . S
C1817 C1818 1.523 . S
C1818 C1802 1.368 . S
C1818 C1814 1.368 . S
C1818 C1817 1.523 . S
H1819 C1794 0.950 . S
H1820 C1796 0.950 . S
H1821 C1797 0.949 . S
H1822 C1799 0.950 . S
H1823 C1801 0.950 . S
C1824 C1825 1.349 . S
C1824 C1826 1.327 . S
C1824 H1849 0.950 . S
C1825 C1824 1.349 . S
C1825 C1841 1.349 . S
C1826 C1824 1.327 . S
C1826 C1845 1.429 . S
C1826 H1850 0.950 . S
C1827 C1844 1.574 . S
C1827 C1846 1.368 . S
C1827 H1851 0.949 . S
H1828 C1832 0.949 . S
C1829 C1830 1.349 . S
C1829 C1831 1.327 . S
C1829 H1852 0.950 . S
C1830 C1829 1.349 . S
C1830 C1842 1.349 . S
C1831 C1829 1.327 . S
C1831 C1847 1.429 . S
C1831 H1853 0.950 . S
C1832 H1828 0.949 . S
C1832 C1840 1.574 . S
C1832 C1848 1.368 . S
H1833 C1841 0.950 . S
H1834 C1839 0.950 . S
H1835 C1840 0.949 . S
H1836 C1842 0.950 . S
H1837 C1843 0.950 . S
H1838 C1844 0.949 . S
C1839 H1834 0.950 . S
C1839 C1841 1.327 . S
C1839 C1845 1.429 . S
C1840 C1832 1.574 . S
C1840 H1835 0.949 . S
C1840 C1846 1.368 . S
C1841 C1825 1.349 . S
C1841 H1833 0.950 . S
C1841 C1839 1.327 . S
C1842 C1830 1.349 . S
C1842 H1836 0.950 . S
C1842 C1843 1.327 . S
C1843 H1837 0.950 . S
C1843 C1842 1.327 . S
C1843 C1847 1.429 . S
C1844 C1827 1.574 . S
C1844 H1838 0.949 . S
C1844 C1848 1.368 . S
C1845 C1826 1.429 . S
C1845 C1839 1.429 . S
C1845 C1846 1.523 . S
C1846 C1827 1.368 . S
C1846 C1840 1.368 . S
C1846 C1845 1.523 . S
C1847 C1831 1.429 . S
C1847 C1843 1.429 . S
C1847 C1848 1.523 . S
C1848 C1832 1.368 . S
C1848 C1844 1.368 . S
C1848 C1847 1.523 . S
H1849 C1824 0.950 . S
H1850 C1826 0.950 . S
H1851 C1827 0.949 . S
H1852 C1829 0.950 . S
H1853 C1831 0.950 . S
C1854 C1855 1.349 . S
C1854 C1856 1.327 . S
C1854 H1879 0.950 . S
C1855 C1854 1.349 . S
C1855 C1871 1.349 . S
C1856 C1854 1.327 . S
C1856 C1875 1.429 . S
C1856 H1880 0.950 . S
C1857 C1874 1.574 . S
C1857 C1876 1.368 1_455 S
C1857 H1881 0.949 . S
H1858 C1862 0.949 . S
C1859 C1860 1.349 1_455 S
C1859 C1861 1.327 . S
C1859 H1882 0.950 . S
C1860 C1859 1.349 1_655 S
C1860 C1872 1.349 . S
C1861 C1859 1.327 . S
C1861 C1877 1.429 1_455 S
C1861 H1883 0.950 . S
C1862 H1858 0.949 . S
C1862 C1870 1.574 . S
C1862 C1878 1.368 . S
H1863 C1871 0.950 1_455 S
H1864 C1869 0.950 1_455 S
H1865 C1870 0.949 . S
H1866 C1872 0.950 . S
H1867 C1873 0.950 . S
H1868 C1874 0.949 . S
C1869 H1864 0.950 1_655 S
C1869 C1871 1.327 . S
C1869 C1875 1.429 . S
C1870 C1862 1.574 . S
C1870 H1865 0.949 . S
C1870 C1876 1.368 . S
C1871 C1855 1.349 . S
C1871 H1863 0.950 1_655 S
C1871 C1869 1.327 . S
C1872 C1860 1.349 . S
C1872 H1866 0.950 . S
C1872 C1873 1.327 . S
C1873 H1867 0.950 . S
C1873 C1872 1.327 . S
C1873 C1877 1.429 . S
C1874 C1857 1.574 . S
C1874 H1868 0.949 . S
C1874 C1878 1.368 1_455 S
C1875 C1856 1.429 . S
C1875 C1869 1.429 . S
C1875 C1876 1.523 . S
C1876 C1857 1.368 1_655 S
C1876 C1870 1.368 . S
C1876 C1875 1.523 . S
C1877 C1861 1.429 1_655 S
C1877 C1873 1.429 . S
C1877 C1878 1.523 . S
C1878 C1862 1.368 . S
C1878 C1874 1.368 1_655 S
C1878 C1877 1.523 . S
H1879 C1854 0.950 . S
H1880 C1856 0.950 . S
H1881 C1857 0.949 . S
H1882 C1859 0.950 . S
H1883 C1861 0.950 . S
C1884 C1885 1.349 . S
C1884 C1886 1.327 . S
C1884 H1909 0.950 . S
C1885 C1884 1.349 . S
C1885 C1901 1.349 . S
C1886 C1884 1.327 . S
C1886 C1905 1.429 . S
C1886 H1910 0.950 . S
C1887 C1904 1.574 . S
C1887 C1906 1.368 . S
C1887 H1911 0.949 . S
H1888 C1892 0.949 . S
C1889 C1890 1.349 . S
C1889 C1891 1.327 . S
C1889 H1912 0.950 . S
C1890 C1889 1.349 . S
C1890 C1902 1.349 . S
C1891 C1889 1.327 . S
C1891 C1907 1.429 . S
C1891 H1913 0.950 . S
C1892 H1888 0.949 . S
C1892 C1900 1.574 . S
C1892 C1908 1.368 . S
H1893 C1901 0.950 . S
H1894 C1899 0.950 . S
H1895 C1900 0.949 . S
H1896 C1902 0.950 . S
H1897 C1903 0.950 . S
H1898 C1904 0.949 . S
C1899 H1894 0.950 . S
C1899 C1901 1.327 . S
C1899 C1905 1.429 . S
C1900 C1892 1.574 . S
C1900 H1895 0.949 . S
C1900 C1906 1.368 . S
C1901 C1885 1.349 . S
C1901 H1893 0.950 . S
C1901 C1899 1.327 . S
C1902 C1890 1.349 . S
C1902 H1896 0.950 . S
C1902 C1903 1.327 . S
C1903 H1897 0.950 . S
C1903 C1902 1.327 . S
C1903 C1907 1.429 . S
C1904 C1887 1.574 . S
C1904 H1898 0.949 . S
C1904 C1908 1.368 . S
C1905 C1886 1.429 . S
C1905 C1899 1.429 . S
C1905 C1906 1.523 . S
C1906 C1887 1.368 . S
C1906 C1900 1.368 . S
C1906 C1905 1.523 . S
C1907 C1891 1.429 . S
C1907 C1903 1.429 . S
C1907 C1908 1.523 . S
C1908 C1892 1.368 . S
C1908 C1904 1.368 . S
C1908 C1907 1.523 . S
H1909 C1884 0.950 . S
H1910 C1886 0.950 . S
H1911 C1887 0.949 . S
H1912 C1889 0.950 . S
H1913 C1891 0.950 . S
C1914 C1915 1.349 . S
C1914 C1916 1.327 . S
C1914 H1939 0.950 . S
C1915 C1914 1.349 . S
C1915 C1931 1.349 . S
C1916 C1914 1.327 . S
C1916 C1935 1.429 . S
C1916 H1940 0.950 . S
C1917 C1934 1.574 . S
C1917 C1936 1.368 . S
C1917 H1941 0.949 . S
H1918 C1922 0.949 . S
C1919 C1920 1.349 . S
C1919 C1921 1.327 . S
C1919 H1942 0.950 . S
C1920 C1919 1.349 . S
C1920 C1932 1.349 . S
C1921 C1919 1.327 . S
C1921 C1937 1.429 . S
C1921 H1943 0.950 . S
C1922 H1918 0.949 . S
C1922 C1930 1.574 . S
C1922 C1938 1.368 . S
H1923 C1931 0.950 . S
H1924 C1929 0.950 . S
H1925 C1930 0.949 . S
H1926 C1932 0.950 . S
H1927 C1933 0.950 . S
H1928 C1934 0.949 . S
C1929 H1924 0.950 . S
C1929 C1931 1.327 . S
C1929 C1935 1.429 . S
C1930 C1922 1.574 . S
C1930 H1925 0.949 . S
C1930 C1936 1.368 . S
C1931 C1915 1.349 . S
C1931 H1923 0.950 . S
C1931 C1929 1.327 . S
C1932 C1920 1.349 . S
C1932 H1926 0.950 . S
C1932 C1933 1.327 . S
C1933 H1927 0.950 . S
C1933 C1932 1.327 . S
C1933 C1937 1.429 . S
C1934 C1917 1.574 . S
C1934 H1928 0.949 . S
C1934 C1938 1.368 . S
C1935 C1916 1.429 . S
C1935 C1929 1.429 . S
C1935 C1936 1.523 . S
C1936 C1917 1.368 . S
C1936 C1930 1.368 . S
C1936 C1935 1.523 . S
C1937 C1921 1.429 . S
C1937 C1933 1.429 . S
C1937 C1938 1.523 . S
C1938 C1922 1.368 . S
C1938 C1934 1.368 . S
C1938 C1937 1.523 . S
H1939 C1914 0.950 . S
H1940 C1916 0.950 . S
H1941 C1917 0.949 . S
H1942 C1919 0.950 . S
H1943 C1921 0.950 . S
C1944 C1945 1.349 . S
C1944 C1946 1.327 . S
C1944 H1969 0.950 . S
C1945 C1944 1.349 . S
C1945 C1961 1.349 . S
C1946 C1944 1.327 . S
C1946 C1965 1.429 . S
C1946 H1970 0.950 . S
C1947 C1964 1.574 . S
C1947 C1966 1.368 . S
C1947 H1971 0.949 . S
H1948 C1952 0.949 . S
C1949 C1950 1.349 . S
C1949 C1951 1.327 . S
C1949 H1972 0.950 . S
C1950 C1949 1.349 . S
C1950 C1962 1.349 . S
C1951 C1949 1.327 . S
C1951 C1967 1.429 . S
C1951 H1973 0.950 . S
C1952 H1948 0.949 . S
C1952 C1960 1.574 . S
C1952 C1968 1.368 . S
H1953 C1961 0.950 . S
H1954 C1959 0.950 . S
H1955 C1960 0.949 . S
H1956 C1962 0.950 . S
H1957 C1963 0.950 . S
H1958 C1964 0.949 . S
C1959 H1954 0.950 . S
C1959 C1961 1.327 . S
C1959 C1965 1.429 . S
C1960 C1952 1.574 . S
C1960 H1955 0.949 . S
C1960 C1966 1.368 . S
C1961 C1945 1.349 . S
C1961 H1953 0.950 . S
C1961 C1959 1.327 . S
C1962 C1950 1.349 . S
C1962 H1956 0.950 . S
C1962 C1963 1.327 . S
C1963 H1957 0.950 . S
C1963 C1962 1.327 . S
C1963 C1967 1.429 . S
C1964 C1947 1.574 . S
C1964 H1958 0.949 . S
C1964 C1968 1.368 . S
C1965 C1946 1.429 . S
C1965 C1959 1.429 . S
C1965 C1966 1.523 . S
C1966 C1947 1.368 . S
C1966 C1960 1.368 . S
C1966 C1965 1.523 . S
C1967 C1951 1.429 . S
C1967 C1963 1.429 . S
C1967 C1968 1.523 . S
C1968 C1952 1.368 . S
C1968 C1964 1.368 . S
C1968 C1967 1.523 . S
H1969 C1944 0.950 . S
H1970 C1946 0.950 . S
H1971 C1947 0.949 . S
H1972 C1949 0.950 . S
H1973 C1951 0.950 . S
C1974 C1975 1.349 . S
C1974 C1976 1.327 . S
C1974 H1999 0.950 . S
C1975 C1974 1.349 . S
C1975 C1991 1.349 . S
C1976 C1974 1.327 . S
C1976 C1995 1.429 . S
C1976 H2000 0.950 . S
C1977 C1994 1.574 . S
C1977 C1996 1.368 . S
C1977 H2001 0.949 . S
H1978 C1982 0.949 . S
C1979 C1980 1.349 . S
C1979 C1981 1.327 . S
C1979 H2002 0.950 . S
C1980 C1979 1.349 . S
C1980 C1992 1.349 . S
C1981 C1979 1.327 . S
C1981 C1997 1.429 . S
C1981 H2003 0.950 . S
C1982 H1978 0.949 . S
C1982 C1990 1.574 . S
C1982 C1998 1.368 . S
H1983 C1991 0.950 . S
H1984 C1989 0.950 . S
H1985 C1990 0.949 . S
H1986 C1992 0.950 . S
H1987 C1993 0.950 . S
H1988 C1994 0.949 . S
C1989 H1984 0.950 . S
C1989 C1991 1.327 . S
C1989 C1995 1.429 . S
C1990 C1982 1.574 . S
C1990 H1985 0.949 . S
C1990 C1996 1.368 . S
C1991 C1975 1.349 . S
C1991 H1983 0.950 . S
C1991 C1989 1.327 . S
C1992 C1980 1.349 . S
C1992 H1986 0.950 . S
C1992 C1993 1.327 . S
C1993 H1987 0.950 . S
C1993 C1992 1.327 . S
C1993 C1997 1.429 . S
C1994 C1977 1.574 . S
C1994 H1988 0.949 . S
C1994 C1998 1.368 . S
C1995 C1976 1.429 . S
C1995 C1989 1.429 . S
C1995 C1996 1.523 . S
C1996 C1977 1.368 . S
C1996 C1990 1.368 . S
C1996 C1995 1.523 . S
C1997 C1981 1.429 . S
C1997 C1993 1.429 . S
C1997 C1998 1.523 . S
C1998 C1982 1.368 . S
C1998 C1994 1.368 . S
C1998 C1997 1.523 . S
H1999 C1974 0.950 . S
H2000 C1976 0.950 . S
H2001 C1977 0.949 . S
H2002 C1979 0.950 . S
H2003 C1981 0.950 . S
C2004 C2005 1.349 . S
C2004 C2006 1.327 . S
C2004 H2029 0.950 . S
C2005 C2004 1.349 . S
C2005 C2021 1.349 . S
C2006 C2004 1.327 . S
C2006 C2025 1.429 . S
C2006 H2030 0.950 . S
C2007 C2024 1.574 . S
C2007 C2026 1.368 . S
C2007 H2031 0.949 . S
H2008 C2012 0.949 . S
C2009 C2010 1.349 . S
C2009 C2011 1.327 . S
C2009 H2032 0.950 . S
C2010 C2009 1.349 . S
C2010 C2022 1.349 . S
C2011 C2009 1.327 . S
C2011 C2027 1.429 . S
C2011 H2033 0.950 . S
C2012 H2008 0.949 . S
C2012 C2020 1.574 . S
C2012 C2028 1.368 . S
H2013 C2021 0.950 . S
H2014 C2019 0.950 . S
H2015 C2020 0.949 . S
H2016 C2022 0.950 . S
H2017 C2023 0.950 . S
H2018 C2024 0.949 . S
C2019 H2014 0.950 . S
C2019 C2021 1.327 . S
C2019 C2025 1.429 . S
C2020 C2012 1.574 . S
C2020 H2015 0.949 . S
C2020 C2026 1.368 . S
C2021 C2005 1.349 . S
C2021 H2013 0.950 . S
C2021 C2019 1.327 . S
C2022 C2010 1.349 . S
C2022 H2016 0.950 . S
C2022 C2023 1.327 . S
C2023 H2017 0.950 . S
C2023 C2022 1.327 . S
C2023 C2027 1.429 . S
C2024 C2007 1.574 . S
C2024 H2018 0.949 . S
C2024 C2028 1.368 . S
C2025 C2006 1.429 . S
C2025 C2019 1.429 . S
C2025 C2026 1.523 . S
C2026 C2007 1.368 . S
C2026 C2020 1.368 . S
C2026 C2025 1.523 . S
C2027 C2011 1.429 . S
C2027 C2023 1.429 . S
C2027 C2028 1.523 . S
C2028 C2012 1.368 . S
C2028 C2024 1.368 . S
C2028 C2027 1.523 . S
H2029 C2004 0.950 . S
H2030 C2006 0.950 . S
H2031 C2007 0.949 . S
H2032 C2009 0.950 . S
H2033 C2011 0.950 . S
C2034 C2035 1.349 . S
C2034 C2036 1.327 . S
C2034 H2059 0.950 . S
C2035 C2034 1.349 . S
C2035 C2051 1.349 . S
C2036 C2034 1.327 . S
C2036 C2055 1.429 . S
C2036 H2060 0.950 . S
C2037 C2054 1.574 . S
C2037 C2056 1.368 . S
C2037 H2061 0.949 . S
H2038 C2042 0.949 . S
C2039 C2040 1.349 . S
C2039 C2041 1.327 . S
C2039 H2062 0.950 . S
C2040 C2039 1.349 . S
C2040 C2052 1.349 . S
C2041 C2039 1.327 . S
C2041 C2057 1.429 . S
C2041 H2063 0.950 . S
C2042 H2038 0.949 . S
C2042 C2050 1.574 . S
C2042 C2058 1.368 . S
H2043 C2051 0.950 . S
H2044 C2049 0.950 . S
H2045 C2050 0.949 . S
H2046 C2052 0.950 . S
H2047 C2053 0.950 . S
H2048 C2054 0.949 . S
C2049 H2044 0.950 . S
C2049 C2051 1.327 . S
C2049 C2055 1.429 . S
C2050 C2042 1.574 . S
C2050 H2045 0.949 . S
C2050 C2056 1.368 . S
C2051 C2035 1.349 . S
C2051 H2043 0.950 . S
C2051 C2049 1.327 . S
C2052 C2040 1.349 . S
C2052 H2046 0.950 . S
C2052 C2053 1.327 . S
C2053 H2047 0.950 . S
C2053 C2052 1.327 . S
C2053 C2057 1.429 . S
C2054 C2037 1.574 . S
C2054 H2048 0.949 . S
C2054 C2058 1.368 . S
C2055 C2036 1.429 . S
C2055 C2049 1.429 . S
C2055 C2056 1.523 . S
C2056 C2037 1.368 . S
C2056 C2050 1.368 . S
C2056 C2055 1.523 . S
C2057 C2041 1.429 . S
C2057 C2053 1.429 . S
C2057 C2058 1.523 . S
C2058 C2042 1.368 . S
C2058 C2054 1.368 . S
C2058 C2057 1.523 . S
H2059 C2034 0.950 . S
H2060 C2036 0.950 . S
H2061 C2037 0.949 . S
H2062 C2039 0.950 . S
H2063 C2041 0.950 . S
C2064 C2065 1.349 . S
C2064 C2066 1.327 . S
C2064 H2089 0.950 . S
C2065 C2064 1.349 . S
C2065 C2081 1.349 . S
C2066 C2064 1.327 . S
C2066 C2085 1.429 . S
C2066 H2090 0.950 . S
C2067 C2084 1.574 . S
C2067 C2086 1.368 . S
C2067 H2091 0.949 . S
H2068 C2072 0.949 . S
C2069 C2070 1.349 . S
C2069 C2071 1.327 . S
C2069 H2092 0.950 . S
C2070 C2069 1.349 . S
C2070 C2082 1.349 . S
C2071 C2069 1.327 . S
C2071 C2087 1.429 . S
C2071 H2093 0.950 . S
C2072 H2068 0.949 . S
C2072 C2080 1.574 . S
C2072 C2088 1.368 . S
H2073 C2081 0.950 . S
H2074 C2079 0.950 . S
H2075 C2080 0.949 . S
H2076 C2082 0.950 . S
H2077 C2083 0.950 . S
H2078 C2084 0.949 . S
C2079 H2074 0.950 . S
C2079 C2081 1.327 . S
C2079 C2085 1.429 . S
C2080 C2072 1.574 . S
C2080 H2075 0.949 . S
C2080 C2086 1.368 . S
C2081 C2065 1.349 . S
C2081 H2073 0.950 . S
C2081 C2079 1.327 . S
C2082 C2070 1.349 . S
C2082 H2076 0.950 . S
C2082 C2083 1.327 . S
C2083 H2077 0.950 . S
C2083 C2082 1.327 . S
C2083 C2087 1.429 . S
C2084 C2067 1.574 . S
C2084 H2078 0.949 . S
C2084 C2088 1.368 . S
C2085 C2066 1.429 . S
C2085 C2079 1.429 . S
C2085 C2086 1.523 . S
C2086 C2067 1.368 . S
C2086 C2080 1.368 . S
C2086 C2085 1.523 . S
C2087 C2071 1.429 . S
C2087 C2083 1.429 . S
C2087 C2088 1.523 . S
C2088 C2072 1.368 . S
C2088 C2084 1.368 . S
C2088 C2087 1.523 . S
H2089 C2064 0.950 . S
H2090 C2066 0.950 . S
H2091 C2067 0.949 . S
H2092 C2069 0.950 . S
H2093 C2071 0.950 . S
C2094 C2095 1.349 . S
C2094 C2096 1.327 . S
C2094 H2119 0.950 . S
C2095 C2094 1.349 . S
C2095 C2111 1.349 . S
C2096 C2094 1.327 . S
C2096 C2115 1.429 . S
C2096 H2120 0.950 . S
C2097 C2114 1.574 . S
C2097 C2116 1.368 . S
C2097 H2121 0.949 . S
H2098 C2102 0.949 . S
C2099 C2100 1.349 . S
C2099 C2101 1.327 . S
C2099 H2122 0.950 . S
C2100 C2099 1.349 . S
C2100 C2112 1.349 . S
C2101 C2099 1.327 . S
C2101 C2117 1.429 . S
C2101 H2123 0.950 . S
C2102 H2098 0.949 . S
C2102 C2110 1.574 . S
C2102 C2118 1.368 . S
H2103 C2111 0.950 . S
H2104 C2109 0.950 . S
H2105 C2110 0.949 . S
H2106 C2112 0.950 . S
H2107 C2113 0.950 . S
H2108 C2114 0.949 . S
C2109 H2104 0.950 . S
C2109 C2111 1.327 . S
C2109 C2115 1.429 . S
C2110 C2102 1.574 . S
C2110 H2105 0.949 . S
C2110 C2116 1.368 . S
C2111 C2095 1.349 . S
C2111 H2103 0.950 . S
C2111 C2109 1.327 . S
C2112 C2100 1.349 . S
C2112 H2106 0.950 . S
C2112 C2113 1.327 . S
C2113 H2107 0.950 . S
C2113 C2112 1.327 . S
C2113 C2117 1.429 . S
C2114 C2097 1.574 . S
C2114 H2108 0.949 . S
C2114 C2118 1.368 . S
C2115 C2096 1.429 . S
C2115 C2109 1.429 . S
C2115 C2116 1.523 . S
C2116 C2097 1.368 . S
C2116 C2110 1.368 . S
C2116 C2115 1.523 . S
C2117 C2101 1.429 . S
C2117 C2113 1.429 . S
C2117 C2118 1.523 . S
C2118 C2102 1.368 . S
C2118 C2114 1.368 . S
C2118 C2117 1.523 . S
H2119 C2094 0.950 . S
H2120 C2096 0.950 . S
H2121 C2097 0.949 . S
H2122 C2099 0.950 . S
H2123 C2101 0.950 . S
C2124 C2125 1.349 . S
C2124 C2126 1.327 . S
C2124 H2149 0.950 . S
C2125 C2124 1.349 . S
C2125 C2141 1.349 . S
C2126 C2124 1.327 . S
C2126 C2145 1.429 . S
C2126 H2150 0.950 . S
C2127 C2144 1.574 . S
C2127 C2146 1.368 . S
C2127 H2151 0.949 . S
H2128 C2132 0.949 . S
C2129 C2130 1.349 . S
C2129 C2131 1.327 . S
C2129 H2152 0.950 . S
C2130 C2129 1.349 . S
C2130 C2142 1.349 . S
C2131 C2129 1.327 . S
C2131 C2147 1.429 . S
C2131 H2153 0.950 . S
C2132 H2128 0.949 . S
C2132 C2140 1.574 . S
C2132 C2148 1.368 . S
H2133 C2141 0.950 . S
H2134 C2139 0.950 . S
H2135 C2140 0.949 . S
H2136 C2142 0.950 . S
H2137 C2143 0.950 . S
H2138 C2144 0.949 . S
C2139 H2134 0.950 . S
C2139 C2141 1.327 . S
C2139 C2145 1.429 . S
C2140 C2132 1.574 . S
C2140 H2135 0.949 . S
C2140 C2146 1.368 . S
C2141 C2125 1.349 . S
C2141 H2133 0.950 . S
C2141 C2139 1.327 . S
C2142 C2130 1.349 . S
C2142 H2136 0.950 . S
C2142 C2143 1.327 . S
C2143 H2137 0.950 . S
C2143 C2142 1.327 . S
C2143 C2147 1.429 . S
C2144 C2127 1.574 . S
C2144 H2138 0.949 . S
C2144 C2148 1.368 . S
C2145 C2126 1.429 . S
C2145 C2139 1.429 . S
C2145 C2146 1.523 . S
C2146 C2127 1.368 . S
C2146 C2140 1.368 . S
C2146 C2145 1.523 . S
C2147 C2131 1.429 . S
C2147 C2143 1.429 . S
C2147 C2148 1.523 . S
C2148 C2132 1.368 . S
C2148 C2144 1.368 . S
C2148 C2147 1.523 . S
H2149 C2124 0.950 . S
H2150 C2126 0.950 . S
H2151 C2127 0.949 . S
H2152 C2129 0.950 . S
H2153 C2131 0.950 . S
C2154 C2155 1.349 . S
C2154 C2156 1.327 . S
C2154 H2179 0.950 . S
C2155 C2154 1.349 . S
C2155 C2171 1.349 . S
C2156 C2154 1.327 . S
C2156 C2175 1.429 . S
C2156 H2180 0.950 . S
C2157 C2174 1.574 . S
C2157 C2176 1.368 . S
C2157 H2181 0.949 . S
H2158 C2162 0.949 . S
C2159 C2160 1.349 . S
C2159 C2161 1.327 . S
C2159 H2182 0.950 . S
C2160 C2159 1.349 . S
C2160 C2172 1.349 . S
C2161 C2159 1.327 . S
C2161 C2177 1.429 . S
C2161 H2183 0.950 . S
C2162 H2158 0.949 . S
C2162 C2170 1.574 . S
C2162 C2178 1.368 . S
H2163 C2171 0.950 . S
H2164 C2169 0.950 . S
H2165 C2170 0.949 . S
H2166 C2172 0.950 . S
H2167 C2173 0.950 . S
H2168 C2174 0.949 . S
C2169 H2164 0.950 . S
C2169 C2171 1.327 . S
C2169 C2175 1.429 . S
C2170 C2162 1.574 . S
C2170 H2165 0.949 . S
C2170 C2176 1.368 . S
C2171 C2155 1.349 . S
C2171 H2163 0.950 . S
C2171 C2169 1.327 . S
C2172 C2160 1.349 . S
C2172 H2166 0.950 . S
C2172 C2173 1.327 . S
C2173 H2167 0.950 . S
C2173 C2172 1.327 . S
C2173 C2177 1.429 . S
C2174 C2157 1.574 . S
C2174 H2168 0.949 . S
C2174 C2178 1.368 . S
C2175 C2156 1.429 . S
C2175 C2169 1.429 . S
C2175 C2176 1.523 . S
C2176 C2157 1.368 . S
C2176 C2170 1.368 . S
C2176 C2175 1.523 . S
C2177 C2161 1.429 . S
C2177 C2173 1.429 . S
C2177 C2178 1.523 . S
C2178 C2162 1.368 . S
C2178 C2174 1.368 . S
C2178 C2177 1.523 . S
H2179 C2154 0.950 . S
H2180 C2156 0.950 . S
H2181 C2157 0.949 . S
H2182 C2159 0.950 . S
H2183 C2161 0.950 . S
C2184 C2185 1.349 . S
C2184 C2186 1.327 . S
C2184 H2209 0.950 . S
C2185 C2184 1.349 . S
C2185 C2201 1.349 . S
C2186 C2184 1.327 . S
C2186 C2205 1.429 . S
C2186 H2210 0.950 . S
C2187 C2204 1.574 . S
C2187 C2206 1.368 . S
C2187 H2211 0.949 . S
H2188 C2192 0.949 . S
C2189 C2190 1.349 . S
C2189 C2191 1.327 . S
C2189 H2212 0.950 . S
C2190 C2189 1.349 . S
C2190 C2202 1.349 . S
C2191 C2189 1.327 . S
C2191 C2207 1.429 . S
C2191 H2213 0.950 . S
C2192 H2188 0.949 . S
C2192 C2200 1.574 . S
C2192 C2208 1.368 . S
H2193 C2201 0.950 . S
H2194 C2199 0.950 . S
H2195 C2200 0.949 . S
H2196 C2202 0.950 . S
H2197 C2203 0.950 . S
H2198 C2204 0.949 . S
C2199 H2194 0.950 . S
C2199 C2201 1.327 . S
C2199 C2205 1.429 . S
C2200 C2192 1.574 . S
C2200 H2195 0.949 . S
C2200 C2206 1.368 . S
C2201 C2185 1.349 . S
C2201 H2193 0.950 . S
C2201 C2199 1.327 . S
C2202 C2190 1.349 . S
C2202 H2196 0.950 . S
C2202 C2203 1.327 . S
C2203 H2197 0.950 . S
C2203 C2202 1.327 . S
C2203 C2207 1.429 . S
C2204 C2187 1.574 . S
C2204 H2198 0.949 . S
C2204 C2208 1.368 . S
C2205 C2186 1.429 . S
C2205 C2199 1.429 . S
C2205 C2206 1.523 . S
C2206 C2187 1.368 . S
C2206 C2200 1.368 . S
C2206 C2205 1.523 . S
C2207 C2191 1.429 . S
C2207 C2203 1.429 . S
C2207 C2208 1.523 . S
C2208 C2192 1.368 . S
C2208 C2204 1.368 . S
C2208 C2207 1.523 . S
H2209 C2184 0.950 . S
H2210 C2186 0.950 . S
H2211 C2187 0.949 . S
H2212 C2189 0.950 . S
H2213 C2191 0.950 . S
C2214 C2215 1.349 . S
C2214 C2216 1.327 . S
C2214 H2239 0.950 . S
C2215 C2214 1.349 . S
C2215 C2231 1.349 . S
C2216 C2214 1.327 . S
C2216 C2235 1.429 . S
C2216 H2240 0.950 . S
C2217 C2234 1.574 . S
C2217 C2236 1.368 . S
C2217 H2241 0.949 . S
H2218 C2222 0.949 . S
C2219 C2220 1.349 . S
C2219 C2221 1.327 . S
C2219 H2242 0.950 . S
C2220 C2219 1.349 . S
C2220 C2232 1.349 . S
C2221 C2219 1.327 . S
C2221 C2237 1.429 . S
C2221 H2243 0.950 . S
C2222 H2218 0.949 . S
C2222 C2230 1.574 . S
C2222 C2238 1.368 . S
H2223 C2231 0.950 . S
H2224 C2229 0.950 . S
H2225 C2230 0.949 . S
H2226 C2232 0.950 . S
H2227 C2233 0.950 . S
H2228 C2234 0.949 . S
C2229 H2224 0.950 . S
C2229 C2231 1.327 . S
C2229 C2235 1.429 . S
C2230 C2222 1.574 . S
C2230 H2225 0.949 . S
C2230 C2236 1.368 . S
C2231 C2215 1.349 . S
C2231 H2223 0.950 . S
C2231 C2229 1.327 . S
C2232 C2220 1.349 . S
C2232 H2226 0.950 . S
C2232 C2233 1.327 . S
C2233 H2227 0.950 . S
C2233 C2232 1.327 . S
C2233 C2237 1.429 . S
C2234 C2217 1.574 . S
C2234 H2228 0.949 . S
C2234 C2238 1.368 . S
C2235 C2216 1.429 . S
C2235 C2229 1.429 . S
C2235 C2236 1.523 . S
C2236 C2217 1.368 . S
C2236 C2230 1.368 . S
C2236 C2235 1.523 . S
C2237 C2221 1.429 . S
C2237 C2233 1.429 . S
C2237 C2238 1.523 . S
C2238 C2222 1.368 . S
C2238 C2234 1.368 . S
C2238 C2237 1.523 . S
H2239 C2214 0.950 . S
H2240 C2216 0.950 . S
H2241 C2217 0.949 . S
H2242 C2219 0.950 . S
H2243 C2221 0.950 . S
C2244 C2245 1.349 . S
C2244 C2246 1.327 . S
C2244 H2269 0.950 . S
C2245 C2244 1.349 . S
C2245 C2261 1.349 . S
C2246 C2244 1.327 . S
C2246 C2265 1.429 . S
C2246 H2270 0.950 . S
C2247 C2264 1.574 . S
C2247 C2266 1.368 . S
C2247 H2271 0.949 . S
H2248 C2252 0.949 . S
C2249 C2250 1.349 . S
C2249 C2251 1.327 . S
C2249 H2272 0.950 . S
C2250 C2249 1.349 . S
C2250 C2262 1.349 . S
C2251 C2249 1.327 . S
C2251 C2267 1.429 . S
C2251 H2273 0.950 . S
C2252 H2248 0.949 . S
C2252 C2260 1.574 . S
C2252 C2268 1.368 . S
H2253 C2261 0.950 1_455 S
H2254 C2259 0.950 . S
H2255 C2260 0.949 . S
H2256 C2262 0.950 . S
H2257 C2263 0.950 . S
H2258 C2264 0.949 . S
C2259 H2254 0.950 . S
C2259 C2261 1.327 . S
C2259 C2265 1.429 . S
C2260 C2252 1.574 . S
C2260 H2255 0.949 . S
C2260 C2266 1.368 . S
C2261 C2245 1.349 . S
C2261 H2253 0.950 1_655 S
C2261 C2259 1.327 . S
C2262 C2250 1.349 . S
C2262 H2256 0.950 . S
C2262 C2263 1.327 . S
C2263 H2257 0.950 . S
C2263 C2262 1.327 . S
C2263 C2267 1.429 . S
C2264 C2247 1.574 . S
C2264 H2258 0.949 . S
C2264 C2268 1.368 . S
C2265 C2246 1.429 . S
C2265 C2259 1.429 . S
C2265 C2266 1.523 . S
C2266 C2247 1.368 . S
C2266 C2260 1.368 . S
C2266 C2265 1.523 . S
C2267 C2251 1.429 . S
C2267 C2263 1.429 . S
C2267 C2268 1.523 . S
C2268 C2252 1.368 . S
C2268 C2264 1.368 . S
C2268 C2267 1.523 . S
H2269 C2244 0.950 . S
H2270 C2246 0.950 . S
H2271 C2247 0.949 . S
H2272 C2249 0.950 . S
H2273 C2251 0.950 . S
C2274 C2275 1.349 . S
C2274 C2276 1.327 . S
C2274 H2299 0.950 . S
C2275 C2274 1.349 . S
C2275 C2291 1.349 . S
C2276 C2274 1.327 . S
C2276 C2295 1.429 . S
C2276 H2300 0.950 . S
C2277 C2294 1.574 . S
C2277 C2296 1.368 . S
C2277 H2301 0.949 . S
H2278 C2282 0.949 . S
C2279 C2280 1.349 . S
C2279 C2281 1.327 . S
C2279 H2302 0.950 . S
C2280 C2279 1.349 . S
C2280 C2292 1.349 . S
C2281 C2279 1.327 . S
C2281 C2297 1.429 . S
C2281 H2303 0.950 . S
C2282 H2278 0.949 . S
C2282 C2290 1.574 . S
C2282 C2298 1.368 . S
H2283 C2291 0.950 . S
H2284 C2289 0.950 . S
H2285 C2290 0.949 . S
H2286 C2292 0.950 . S
H2287 C2293 0.950 . S
H2288 C2294 0.949 . S
C2289 H2284 0.950 . S
C2289 C2291 1.327 . S
C2289 C2295 1.429 . S
C2290 C2282 1.574 . S
C2290 H2285 0.949 . S
C2290 C2296 1.368 . S
C2291 C2275 1.349 . S
C2291 H2283 0.950 . S
C2291 C2289 1.327 . S
C2292 C2280 1.349 . S
C2292 H2286 0.950 . S
C2292 C2293 1.327 . S
C2293 H2287 0.950 . S
C2293 C2292 1.327 . S
C2293 C2297 1.429 . S
C2294 C2277 1.574 . S
C2294 H2288 0.949 . S
C2294 C2298 1.368 . S
C2295 C2276 1.429 . S
C2295 C2289 1.429 . S
C2295 C2296 1.523 . S
C2296 C2277 1.368 . S
C2296 C2290 1.368 . S
C2296 C2295 1.523 . S
C2297 C2281 1.429 . S
C2297 C2293 1.429 . S
C2297 C2298 1.523 . S
C2298 C2282 1.368 . S
C2298 C2294 1.368 . S
C2298 C2297 1.523 . S
H2299 C2274 0.950 . S
H2300 C2276 0.950 . S
H2301 C2277 0.949 . S
H2302 C2279 0.950 . S
H2303 C2281 0.950 . S
C2304 C2305 1.349 . S
C2304 C2306 1.327 . S
C2304 H2329 0.950 . S
C2305 C2304 1.349 . S
C2305 C2321 1.349 . S
C2306 C2304 1.327 . S
C2306 C2325 1.429 . S
C2306 H2330 0.950 . S
C2307 C2324 1.574 . S
C2307 C2326 1.368 . S
C2307 H2331 0.949 . S
H2308 C2312 0.949 . S
C2309 C2310 1.349 . S
C2309 C2311 1.327 . S
C2309 H2332 0.950 . S
C2310 C2309 1.349 . S
C2310 C2322 1.349 . S
C2311 C2309 1.327 . S
C2311 C2327 1.429 . S
C2311 H2333 0.950 . S
C2312 H2308 0.949 . S
C2312 C2320 1.574 . S
C2312 C2328 1.368 . S
H2313 C2321 0.950 . S
H2314 C2319 0.950 . S
H2315 C2320 0.949 . S
H2316 C2322 0.950 . S
H2317 C2323 0.950 . S
H2318 C2324 0.949 . S
C2319 H2314 0.950 . S
C2319 C2321 1.327 . S
C2319 C2325 1.429 . S
C2320 C2312 1.574 . S
C2320 H2315 0.949 . S
C2320 C2326 1.368 . S
C2321 C2305 1.349 . S
C2321 H2313 0.950 . S
C2321 C2319 1.327 . S
C2322 C2310 1.349 . S
C2322 H2316 0.950 . S
C2322 C2323 1.327 . S
C2323 H2317 0.950 . S
C2323 C2322 1.327 . S
C2323 C2327 1.429 . S
C2324 C2307 1.574 . S
C2324 H2318 0.949 . S
C2324 C2328 1.368 . S
C2325 C2306 1.429 . S
C2325 C2319 1.429 . S
C2325 C2326 1.523 . S
C2326 C2307 1.368 . S
C2326 C2320 1.368 . S
C2326 C2325 1.523 . S
C2327 C2311 1.429 . S
C2327 C2323 1.429 . S
C2327 C2328 1.523 . S
C2328 C2312 1.368 . S
C2328 C2324 1.368 . S
C2328 C2327 1.523 . S
H2329 C2304 0.950 . S
H2330 C2306 0.950 . S
H2331 C2307 0.949 . S
H2332 C2309 0.950 . S
H2333 C2311 0.950 . S
C2334 C2335 1.349 . S
C2334 C2336 1.327 . S
C2334 H2359 0.950 . S
C2335 C2334 1.349 . S
C2335 C2351 1.349 . S
C2336 C2334 1.327 . S
C2336 C2355 1.429 . S
C2336 H2360 0.950 . S
C2337 C2354 1.574 . S
C2337 C2356 1.368 . S
C2337 H2361 0.949 . S
H2338 C2342 0.949 . S
C2339 C2340 1.349 . S
C2339 C2341 1.327 . S
C2339 H2362 0.950 . S
C2340 C2339 1.349 . S
C2340 C2352 1.349 . S
C2341 C2339 1.327 . S
C2341 C2357 1.429 . S
C2341 H2363 0.950 . S
C2342 H2338 0.949 . S
C2342 C2350 1.574 . S
C2342 C2358 1.368 . S
H2343 C2351 0.950 . S
H2344 C2349 0.950 . S
H2345 C2350 0.949 . S
H2346 C2352 0.950 . S
H2347 C2353 0.950 . S
H2348 C2354 0.949 . S
C2349 H2344 0.950 . S
C2349 C2351 1.327 . S
C2349 C2355 1.429 . S
C2350 C2342 1.574 . S
C2350 H2345 0.949 . S
C2350 C2356 1.368 . S
C2351 C2335 1.349 . S
C2351 H2343 0.950 . S
C2351 C2349 1.327 . S
C2352 C2340 1.349 . S
C2352 H2346 0.950 . S
C2352 C2353 1.327 . S
C2353 H2347 0.950 . S
C2353 C2352 1.327 . S
C2353 C2357 1.429 . S
C2354 C2337 1.574 . S
C2354 H2348 0.949 . S
C2354 C2358 1.368 . S
C2355 C2336 1.429 . S
C2355 C2349 1.429 . S
C2355 C2356 1.523 . S
C2356 C2337 1.368 . S
C2356 C2350 1.368 . S
C2356 C2355 1.523 . S
C2357 C2341 1.429 . S
C2357 C2353 1.429 . S
C2357 C2358 1.523 . S
C2358 C2342 1.368 . S
C2358 C2354 1.368 . S
C2358 C2357 1.523 . S
H2359 C2334 0.950 . S
H2360 C2336 0.950 . S
H2361 C2337 0.949 . S
H2362 C2339 0.950 . S
H2363 C2341 0.950 . S
C2364 C2365 1.349 . S
C2364 C2366 1.327 . S
C2364 H2389 0.950 . S
C2365 C2364 1.349 . S
C2365 C2381 1.349 . S
C2366 C2364 1.327 . S
C2366 C2385 1.429 . S
C2366 H2390 0.950 . S
C2367 C2384 1.574 . S
C2367 C2386 1.368 . S
C2367 H2391 0.949 . S
H2368 C2372 0.949 . S
C2369 C2370 1.349 . S
C2369 C2371 1.327 . S
C2369 H2392 0.950 . S
C2370 C2369 1.349 . S
C2370 C2382 1.349 . S
C2371 C2369 1.327 . S
C2371 C2387 1.429 . S
C2371 H2393 0.950 . S
C2372 H2368 0.949 . S
C2372 C2380 1.574 . S
C2372 C2388 1.368 . S
H2373 C2381 0.950 . S
H2374 C2379 0.950 . S
H2375 C2380 0.949 . S
H2376 C2382 0.950 . S
H2377 C2383 0.950 . S
H2378 C2384 0.949 . S
C2379 H2374 0.950 . S
C2379 C2381 1.327 . S
C2379 C2385 1.429 . S
C2380 C2372 1.574 . S
C2380 H2375 0.949 . S
C2380 C2386 1.368 . S
C2381 C2365 1.349 . S
C2381 H2373 0.950 . S
C2381 C2379 1.327 . S
C2382 C2370 1.349 . S
C2382 H2376 0.950 . S
C2382 C2383 1.327 . S
C2383 H2377 0.950 . S
C2383 C2382 1.327 . S
C2383 C2387 1.429 . S
C2384 C2367 1.574 . S
C2384 H2378 0.949 . S
C2384 C2388 1.368 . S
C2385 C2366 1.429 . S
C2385 C2379 1.429 . S
C2385 C2386 1.523 . S
C2386 C2367 1.368 . S
C2386 C2380 1.368 . S
C2386 C2385 1.523 . S
C2387 C2371 1.429 . S
C2387 C2383 1.429 . S
C2387 C2388 1.523 . S
C2388 C2372 1.368 . S
C2388 C2384 1.368 . S
C2388 C2387 1.523 . S
H2389 C2364 0.950 . S
H2390 C2366 0.950 . S
H2391 C2367 0.949 . S
H2392 C2369 0.950 . S
H2393 C2371 0.950 . S
C2394 C2395 1.349 . S
C2394 C2396 1.327 . S
C2394 H2419 0.950 1_565 S
C2395 C2394 1.349 . S
C2395 C2411 1.349 . S
C2396 C2394 1.327 . S
C2396 C2415 1.429 . S
C2396 H2420 0.950 . S
C2397 C2414 1.574 . S
C2397 C2416 1.368 . S
C2397 H2421 0.949 . S
H2398 C2402 0.949 . S
C2399 C2400 1.349 . S
C2399 C2401 1.327 . S
C2399 H2422 0.950 . S
C2400 C2399 1.349 . S
C2400 C2412 1.349 . S
C2401 C2399 1.327 . S
C2401 C2417 1.429 . S
C2401 H2423 0.950 . S
C2402 H2398 0.949 . S
C2402 C2410 1.574 . S
C2402 C2418 1.368 . S
H2403 C2411 0.950 . S
H2404 C2409 0.950 . S
H2405 C2410 0.949 . S
H2406 C2412 0.950 . S
H2407 C2413 0.950 . S
H2408 C2414 0.949 . S
C2409 H2404 0.950 . S
C2409 C2411 1.327 . S
C2409 C2415 1.429 . S
C2410 C2402 1.574 . S
C2410 H2405 0.949 . S
C2410 C2416 1.368 . S
C2411 C2395 1.349 . S
C2411 H2403 0.950 . S
C2411 C2409 1.327 . S
C2412 C2400 1.349 . S
C2412 H2406 0.950 . S
C2412 C2413 1.327 . S
C2413 H2407 0.950 . S
C2413 C2412 1.327 . S
C2413 C2417 1.429 . S
C2414 C2397 1.574 . S
C2414 H2408 0.949 . S
C2414 C2418 1.368 . S
C2415 C2396 1.429 . S
C2415 C2409 1.429 . S
C2415 C2416 1.523 . S
C2416 C2397 1.368 . S
C2416 C2410 1.368 . S
C2416 C2415 1.523 . S
C2417 C2401 1.429 . S
C2417 C2413 1.429 . S
C2417 C2418 1.523 . S
C2418 C2402 1.368 . S
C2418 C2414 1.368 . S
C2418 C2417 1.523 . S
H2419 C2394 0.950 1_545 S
H2420 C2396 0.950 . S
H2421 C2397 0.949 . S
H2422 C2399 0.950 . S
H2423 C2401 0.950 . S
C2424 C2425 1.349 . S
C2424 C2426 1.327 . S
C2424 H2449 0.950 . S
C2425 C2424 1.349 . S
C2425 C2441 1.349 . S
C2426 C2424 1.327 . S
C2426 C2445 1.429 . S
C2426 H2450 0.950 . S
C2427 C2444 1.574 . S
C2427 C2446 1.368 . S
C2427 H2451 0.949 . S
H2428 C2432 0.949 . S
C2429 C2430 1.349 . S
C2429 C2431 1.327 . S
C2429 H2452 0.950 . S
C2430 C2429 1.349 . S
C2430 C2442 1.349 . S
C2431 C2429 1.327 . S
C2431 C2447 1.429 . S
C2431 H2453 0.950 . S
C2432 H2428 0.949 . S
C2432 C2440 1.574 . S
C2432 C2448 1.368 . S
H2433 C2441 0.950 . S
H2434 C2439 0.950 . S
H2435 C2440 0.949 . S
H2436 C2442 0.950 . S
H2437 C2443 0.950 . S
H2438 C2444 0.949 . S
C2439 H2434 0.950 . S
C2439 C2441 1.327 . S
C2439 C2445 1.429 . S
C2440 C2432 1.574 . S
C2440 H2435 0.949 . S
C2440 C2446 1.368 . S
C2441 C2425 1.349 . S
C2441 H2433 0.950 . S
C2441 C2439 1.327 . S
C2442 C2430 1.349 . S
C2442 H2436 0.950 . S
C2442 C2443 1.327 . S
C2443 H2437 0.950 . S
C2443 C2442 1.327 . S
C2443 C2447 1.429 . S
C2444 C2427 1.574 . S
C2444 H2438 0.949 . S
C2444 C2448 1.368 . S
C2445 C2426 1.429 . S
C2445 C2439 1.429 . S
C2445 C2446 1.523 . S
C2446 C2427 1.368 . S
C2446 C2440 1.368 . S
C2446 C2445 1.523 . S
C2447 C2431 1.429 . S
C2447 C2443 1.429 . S
C2447 C2448 1.523 . S
C2448 C2432 1.368 . S
C2448 C2444 1.368 . S
C2448 C2447 1.523 . S
H2449 C2424 0.950 . S
H2450 C2426 0.950 . S
H2451 C2427 0.949 . S
H2452 C2429 0.950 . S
H2453 C2431 0.950 . S
C2454 C2455 1.349 . S
C2454 C2456 1.327 . S
C2454 H2479 0.950 . S
C2455 C2454 1.349 . S
C2455 C2471 1.349 . S
C2456 C2454 1.327 . S
C2456 C2475 1.429 . S
C2456 H2480 0.950 . S
C2457 C2474 1.574 . S
C2457 C2476 1.368 . S
C2457 H2481 0.949 . S
H2458 C2462 0.949 . S
C2459 C2460 1.349 . S
C2459 C2461 1.327 . S
C2459 H2482 0.950 . S
C2460 C2459 1.349 . S
C2460 C2472 1.349 . S
C2461 C2459 1.327 . S
C2461 C2477 1.429 . S
C2461 H2483 0.950 . S
C2462 H2458 0.949 . S
C2462 C2470 1.574 . S
C2462 C2478 1.368 . S
H2463 C2471 0.950 . S
H2464 C2469 0.950 . S
H2465 C2470 0.949 . S
H2466 C2472 0.950 . S
H2467 C2473 0.950 . S
H2468 C2474 0.949 . S
C2469 H2464 0.950 . S
C2469 C2471 1.327 . S
C2469 C2475 1.429 . S
C2470 C2462 1.574 . S
C2470 H2465 0.949 . S
C2470 C2476 1.368 . S
C2471 C2455 1.349 . S
C2471 H2463 0.950 . S
C2471 C2469 1.327 . S
C2472 C2460 1.349 . S
C2472 H2466 0.950 . S
C2472 C2473 1.327 . S
C2473 H2467 0.950 . S
C2473 C2472 1.327 . S
C2473 C2477 1.429 . S
C2474 C2457 1.574 . S
C2474 H2468 0.949 . S
C2474 C2478 1.368 . S
C2475 C2456 1.429 . S
C2475 C2469 1.429 . S
C2475 C2476 1.523 . S
C2476 C2457 1.368 . S
C2476 C2470 1.368 . S
C2476 C2475 1.523 . S
C2477 C2461 1.429 . S
C2477 C2473 1.429 . S
C2477 C2478 1.523 . S
C2478 C2462 1.368 . S
C2478 C2474 1.368 . S
C2478 C2477 1.523 . S
H2479 C2454 0.950 . S
H2480 C2456 0.950 . S
H2481 C2457 0.949 . S
H2482 C2459 0.950 . S
H2483 C2461 0.950 . S
C2484 C2485 1.349 . S
C2484 C2486 1.327 . S
C2484 H2509 0.950 . S
C2485 C2484 1.349 . S
C2485 C2501 1.349 . S
C2486 C2484 1.327 . S
C2486 C2505 1.429 . S
C2486 H2510 0.950 . S
C2487 C2504 1.574 . S
C2487 C2506 1.368 . S
C2487 H2511 0.949 . S
H2488 C2492 0.949 . S
C2489 C2490 1.349 . S
C2489 C2491 1.327 . S
C2489 H2512 0.950 . S
C2490 C2489 1.349 . S
C2490 C2502 1.349 . S
C2491 C2489 1.327 . S
C2491 C2507 1.429 . S
C2491 H2513 0.950 . S
C2492 H2488 0.949 . S
C2492 C2500 1.574 . S
C2492 C2508 1.368 . S
H2493 C2501 0.950 . S
H2494 C2499 0.950 . S
H2495 C2500 0.949 . S
H2496 C2502 0.950 . S
H2497 C2503 0.950 . S
H2498 C2504 0.949 . S
C2499 H2494 0.950 . S
C2499 C2501 1.327 . S
C2499 C2505 1.429 . S
C2500 C2492 1.574 . S
C2500 H2495 0.949 . S
C2500 C2506 1.368 . S
C2501 C2485 1.349 . S
C2501 H2493 0.950 . S
C2501 C2499 1.327 . S
C2502 C2490 1.349 . S
C2502 H2496 0.950 . S
C2502 C2503 1.327 . S
C2503 H2497 0.950 . S
C2503 C2502 1.327 . S
C2503 C2507 1.429 . S
C2504 C2487 1.574 . S
C2504 H2498 0.949 . S
C2504 C2508 1.368 . S
C2505 C2486 1.429 . S
C2505 C2499 1.429 . S
C2505 C2506 1.523 . S
C2506 C2487 1.368 . S
C2506 C2500 1.368 . S
C2506 C2505 1.523 . S
C2507 C2491 1.429 . S
C2507 C2503 1.429 . S
C2507 C2508 1.523 . S
C2508 C2492 1.368 . S
C2508 C2504 1.368 . S
C2508 C2507 1.523 . S
H2509 C2484 0.950 . S
H2510 C2486 0.950 . S
H2511 C2487 0.949 . S
H2512 C2489 0.950 . S
H2513 C2491 0.950 . S
C2514 C2515 1.349 . S
C2514 C2516 1.327 . S
C2514 H2539 0.950 . S
C2515 C2514 1.349 . S
C2515 C2531 1.349 . S
C2516 C2514 1.327 . S
C2516 C2535 1.429 . S
C2516 H2540 0.950 . S
C2517 C2534 1.574 . S
C2517 C2536 1.368 . S
C2517 H2541 0.949 . S
H2518 C2522 0.949 . S
C2519 C2520 1.349 . S
C2519 C2521 1.327 . S
C2519 H2542 0.950 . S
C2520 C2519 1.349 . S
C2520 C2532 1.349 . S
C2521 C2519 1.327 . S
C2521 C2537 1.429 . S
C2521 H2543 0.950 . S
C2522 H2518 0.949 . S
C2522 C2530 1.574 . S
C2522 C2538 1.368 . S
H2523 C2531 0.950 . S
H2524 C2529 0.950 . S
H2525 C2530 0.949 . S
H2526 C2532 0.950 . S
H2527 C2533 0.950 . S
H2528 C2534 0.949 . S
C2529 H2524 0.950 . S
C2529 C2531 1.327 . S
C2529 C2535 1.429 . S
C2530 C2522 1.574 . S
C2530 H2525 0.949 . S
C2530 C2536 1.368 . S
C2531 C2515 1.349 . S
C2531 H2523 0.950 . S
C2531 C2529 1.327 . S
C2532 C2520 1.349 . S
C2532 H2526 0.950 . S
C2532 C2533 1.327 . S
C2533 H2527 0.950 . S
C2533 C2532 1.327 . S
C2533 C2537 1.429 . S
C2534 C2517 1.574 . S
C2534 H2528 0.949 . S
C2534 C2538 1.368 . S
C2535 C2516 1.429 . S
C2535 C2529 1.429 . S
C2535 C2536 1.523 . S
C2536 C2517 1.368 . S
C2536 C2530 1.368 . S
C2536 C2535 1.523 . S
C2537 C2521 1.429 . S
C2537 C2533 1.429 . S
C2537 C2538 1.523 . S
C2538 C2522 1.368 . S
C2538 C2534 1.368 . S
C2538 C2537 1.523 . S
H2539 C2514 0.950 . S
H2540 C2516 0.950 . S
H2541 C2517 0.949 . S
H2542 C2519 0.950 . S
H2543 C2521 0.950 . S
C2544 C2545 1.349 . S
C2544 C2546 1.327 . S
C2544 H2569 0.950 . S
C2545 C2544 1.349 . S
C2545 C2561 1.349 . S
C2546 C2544 1.327 . S
C2546 C2565 1.429 . S
C2546 H2570 0.950 . S
C2547 C2564 1.574 . S
C2547 C2566 1.368 . S
C2547 H2571 0.949 . S
H2548 C2552 0.949 . S
C2549 C2550 1.349 . S
C2549 C2551 1.327 . S
C2549 H2572 0.950 . S
C2550 C2549 1.349 . S
C2550 C2562 1.349 . S
C2551 C2549 1.327 . S
C2551 C2567 1.429 . S
C2551 H2573 0.950 . S
C2552 H2548 0.949 . S
C2552 C2560 1.574 . S
C2552 C2568 1.368 . S
H2553 C2561 0.950 . S
H2554 C2559 0.950 . S
H2555 C2560 0.949 . S
H2556 C2562 0.950 . S
H2557 C2563 0.950 . S
H2558 C2564 0.949 . S
C2559 H2554 0.950 . S
C2559 C2561 1.327 . S
C2559 C2565 1.429 . S
C2560 C2552 1.574 . S
C2560 H2555 0.949 . S
C2560 C2566 1.368 . S
C2561 C2545 1.349 . S
C2561 H2553 0.950 . S
C2561 C2559 1.327 . S
C2562 C2550 1.349 . S
C2562 H2556 0.950 . S
C2562 C2563 1.327 . S
C2563 H2557 0.950 . S
C2563 C2562 1.327 . S
C2563 C2567 1.429 . S
C2564 C2547 1.574 . S
C2564 H2558 0.949 . S
C2564 C2568 1.368 . S
C2565 C2546 1.429 . S
C2565 C2559 1.429 . S
C2565 C2566 1.523 . S
C2566 C2547 1.368 . S
C2566 C2560 1.368 . S
C2566 C2565 1.523 . S
C2567 C2551 1.429 . S
C2567 C2563 1.429 . S
C2567 C2568 1.523 . S
C2568 C2552 1.368 . S
C2568 C2564 1.368 . S
C2568 C2567 1.523 . S
H2569 C2544 0.950 . S
H2570 C2546 0.950 . S
H2571 C2547 0.949 . S
H2572 C2549 0.950 . S
H2573 C2551 0.950 . S
C2574 C2575 1.349 . S
C2574 C2576 1.327 . S
C2574 H2599 0.950 . S
C2575 C2574 1.349 . S
C2575 C2591 1.349 . S
C2576 C2574 1.327 . S
C2576 C2595 1.429 . S
C2576 H2600 0.950 . S
C2577 C2594 1.574 . S
C2577 C2596 1.368 . S
C2577 H2601 0.949 . S
H2578 C2582 0.949 . S
C2579 C2580 1.349 . S
C2579 C2581 1.327 . S
C2579 H2602 0.950 . S
C2580 C2579 1.349 . S
C2580 C2592 1.349 . S
C2581 C2579 1.327 . S
C2581 C2597 1.429 . S
C2581 H2603 0.950 . S
C2582 H2578 0.949 . S
C2582 C2590 1.574 . S
C2582 C2598 1.368 . S
H2583 C2591 0.950 . S
H2584 C2589 0.950 . S
H2585 C2590 0.949 . S
H2586 C2592 0.950 . S
H2587 C2593 0.950 . S
H2588 C2594 0.949 . S
C2589 H2584 0.950 . S
C2589 C2591 1.327 . S
C2589 C2595 1.429 . S
C2590 C2582 1.574 . S
C2590 H2585 0.949 . S
C2590 C2596 1.368 . S
C2591 C2575 1.349 . S
C2591 H2583 0.950 . S
C2591 C2589 1.327 . S
C2592 C2580 1.349 . S
C2592 H2586 0.950 . S
C2592 C2593 1.327 . S
C2593 H2587 0.950 . S
C2593 C2592 1.327 . S
C2593 C2597 1.429 . S
C2594 C2577 1.574 . S
C2594 H2588 0.949 . S
C2594 C2598 1.368 . S
C2595 C2576 1.429 . S
C2595 C2589 1.429 . S
C2595 C2596 1.523 . S
C2596 C2577 1.368 . S
C2596 C2590 1.368 . S
C2596 C2595 1.523 . S
C2597 C2581 1.429 . S
C2597 C2593 1.429 . S
C2597 C2598 1.523 . S
C2598 C2582 1.368 . S
C2598 C2594 1.368 . S
C2598 C2597 1.523 . S
H2599 C2574 0.950 . S
H2600 C2576 0.950 . S
H2601 C2577 0.949 . S
H2602 C2579 0.950 . S
H2603 C2581 0.950 . S
C2604 C2605 1.349 . S
C2604 C2606 1.327 . S
C2604 H2629 0.950 . S
C2605 C2604 1.349 . S
C2605 C2621 1.349 . S
C2606 C2604 1.327 . S
C2606 C2625 1.429 . S
C2606 H2630 0.950 . S
C2607 C2624 1.574 . S
C2607 C2626 1.368 . S
C2607 H2631 0.949 . S
H2608 C2612 0.949 . S
C2609 C2610 1.349 . S
C2609 C2611 1.327 . S
C2609 H2632 0.950 . S
C2610 C2609 1.349 . S
C2610 C2622 1.349 . S
C2611 C2609 1.327 . S
C2611 C2627 1.429 . S
C2611 H2633 0.950 . S
C2612 H2608 0.949 . S
C2612 C2620 1.574 . S
C2612 C2628 1.368 . S
H2613 C2621 0.950 . S
H2614 C2619 0.950 . S
H2615 C2620 0.949 . S
H2616 C2622 0.950 . S
H2617 C2623 0.950 . S
H2618 C2624 0.949 . S
C2619 H2614 0.950 . S
C2619 C2621 1.327 . S
C2619 C2625 1.429 . S
C2620 C2612 1.574 . S
C2620 H2615 0.949 . S
C2620 C2626 1.368 . S
C2621 C2605 1.349 . S
C2621 H2613 0.950 . S
C2621 C2619 1.327 . S
C2622 C2610 1.349 . S
C2622 H2616 0.950 . S
C2622 C2623 1.327 . S
C2623 H2617 0.950 . S
C2623 C2622 1.327 . S
C2623 C2627 1.429 . S
C2624 C2607 1.574 . S
C2624 H2618 0.949 . S
C2624 C2628 1.368 . S
C2625 C2606 1.429 . S
C2625 C2619 1.429 . S
C2625 C2626 1.523 . S
C2626 C2607 1.368 . S
C2626 C2620 1.368 . S
C2626 C2625 1.523 . S
C2627 C2611 1.429 . S
C2627 C2623 1.429 . S
C2627 C2628 1.523 . S
C2628 C2612 1.368 . S
C2628 C2624 1.368 . S
C2628 C2627 1.523 . S
H2629 C2604 0.950 . S
H2630 C2606 0.950 . S
H2631 C2607 0.949 . S
H2632 C2609 0.950 . S
H2633 C2611 0.950 . S
C2634 C2635 1.349 . S
C2634 C2636 1.327 . S
C2634 H2659 0.950 . S
C2635 C2634 1.349 . S
C2635 C2651 1.349 . S
C2636 C2634 1.327 . S
C2636 C2655 1.429 . S
C2636 H2660 0.950 . S
C2637 C2654 1.574 . S
C2637 C2656 1.368 . S
C2637 H2661 0.949 . S
H2638 C2642 0.949 . S
C2639 C2640 1.349 . S
C2639 C2641 1.327 . S
C2639 H2662 0.950 . S
C2640 C2639 1.349 . S
C2640 C2652 1.349 . S
C2641 C2639 1.327 . S
C2641 C2657 1.429 . S
C2641 H2663 0.950 . S
C2642 H2638 0.949 . S
C2642 C2650 1.574 . S
C2642 C2658 1.368 . S
H2643 C2651 0.950 . S
H2644 C2649 0.950 . S
H2645 C2650 0.949 . S
H2646 C2652 0.950 . S
H2647 C2653 0.950 . S
H2648 C2654 0.949 . S
C2649 H2644 0.950 . S
C2649 C2651 1.327 . S
C2649 C2655 1.429 . S
C2650 C2642 1.574 . S
C2650 H2645 0.949 . S
C2650 C2656 1.368 . S
C2651 C2635 1.349 . S
C2651 H2643 0.950 . S
C2651 C2649 1.327 . S
C2652 C2640 1.349 . S
C2652 H2646 0.950 . S
C2652 C2653 1.327 . S
C2653 H2647 0.950 . S
C2653 C2652 1.327 . S
C2653 C2657 1.429 . S
C2654 C2637 1.574 . S
C2654 H2648 0.949 . S
C2654 C2658 1.368 . S
C2655 C2636 1.429 . S
C2655 C2649 1.429 . S
C2655 C2656 1.523 . S
C2656 C2637 1.368 . S
C2656 C2650 1.368 . S
C2656 C2655 1.523 . S
C2657 C2641 1.429 . S
C2657 C2653 1.429 . S
C2657 C2658 1.523 . S
C2658 C2642 1.368 . S
C2658 C2654 1.368 . S
C2658 C2657 1.523 . S
H2659 C2634 0.950 . S
H2660 C2636 0.950 . S
H2661 C2637 0.949 . S
H2662 C2639 0.950 . S
H2663 C2641 0.950 . S
C505 C35 1.201 . S
C510 C256 1.059 . S
C535 C7 1.194 . S
C540 C272 1.056 . S
C570 C255 1.069 . S
C565 C23 1.201 . S
C600 C280 1.049 . S
C595 C37 1.190 . S
C625 C9 1.219 . S
C630 C289 1.084 . S
C660 C292 1.058 . S
C655 C21 1.196 . S
C685 C77 1.201 . S
C690 C298 1.058 . S
C720 C314 1.056 . S
C715 C49 1.193 . S
C750 C297 1.069 . S
C745 C65 1.201 . S
C775 C79 1.190 . S
C780 C322 1.050 . S
C810 C331 1.084 . S
C805 C51 1.220 . S
C840 C334 1.058 . S
C835 C63 1.196 . S
C870 C343 1.058 . S
C865 C119 1.201 . S
C900 C355 1.056 . S
C895 C91 1.194 . S
C930 C352 1.070 . S
C925 C107 1.201 . S
C955 C121 1.189 . S
C960 C361 1.049 . S
C990 C360 1.084 . S
C985 C93 1.219 . S
C1015 C105 1.195 . S
C1020 C377 1.058 . S
C1050 C382 1.059 . S
C1045 C161 1.202 . S
C1080 C398 1.056 . S
C1075 C133 1.193 . S
C1105 C149 1.201 . S
C1110 C381 1.069 . S
C1140 C406 1.041 1_554 S
C1135 C163 1.189 . S
C1170 C415 1.071 1_554 S
C1165 C135 1.219 . S
C1195 C147 1.195 . S
C1200 C418 1.059 1_554 S
C1225 C203 1.202 . S
C1230 C427 1.059 . S
C1260 C439 1.056 . S
C1255 C175 1.193 . S
C1290 C436 1.069 . S
C1285 C191 1.201 . S
C1315 C205 1.189 . S
C1320 C445 1.041 1_556 S
C1350 C444 1.071 1_556 S
C1345 C177 1.219 . S
C1375 C189 1.196 . S
C1380 C461 1.059 1_556 S
C1410 C466 1.058 . S
C1405 C245 1.201 . S
C1440 C482 1.056 . S
C1435 C217 1.194 . S
C1465 C233 1.201 . S
C1470 C465 1.069 . S
C1500 C487 1.049 . S
C1495 C247 1.190 . S
C1530 C486 1.084 . S
C1525 C219 1.219 . S
C1560 C503 1.058 . S
C1555 C231 1.195 . S
C1590 C268 1.506 . S
C1585 C162 1.608 . S
C1615 C134 1.609 . S
C1620 C271 1.496 1_655 S
C1650 C259 1.449 . S
C1645 C143 1.561 . S
C1675 C241 1.610 . S
C1680 C276 1.509 . S
C1705 C213 1.601 . S
C1710 C277 1.488 . S
C1740 C293 1.518 1_565 S
C1735 C232 1.620 . S
C1770 C310 1.502 . S
C1765 C204 1.608 . S
C1800 C313 1.502 . S
C1795 C176 1.609 . S
C1825 C185 1.561 . S
C1830 C301 1.449 . S
C1860 C318 1.509 1_655 S
C1855 C115 1.610 . S
C1885 C87 1.601 . S
C1890 C319 1.488 . S
C1915 C106 1.620 . S
C1920 C335 1.518 . S
C1945 C246 1.608 1_655 S
C1950 C339 1.507 . S
C1975 C218 1.609 . S
C1980 C356 1.502 . S
C2010 C340 1.449 . S
C2005 C227 1.560 . S
C2040 C373 1.509 . S
C2035 C73 1.610 . S
C2070 C364 1.488 . S
C2065 C45 1.601 . S
C2095 C64 1.620 . S
C2100 C376 1.518 . S
C2130 C394 1.507 . S
C2125 C36 1.608 . S
C2160 C397 1.502 . S
C2155 C8 1.609 . S
C2185 C17 1.561 . S
C2190 C385 1.449 . S
C2220 C402 1.510 . S
C2215 C199 1.611 . S
C2250 C403 1.488 . S
C2245 C171 1.601 1_655 S
C2280 C419 1.518 . S
C2275 C190 1.620 . S
C2310 C423 1.506 . S
C2305 C78 1.607 . S
C2340 C440 1.502 . S
C2335 C50 1.609 . S
C2365 C59 1.561 . S
C2370 C424 1.449 . S
C2395 C157 1.610 1_565 S
C2400 C457 1.509 . S
C2425 C129 1.600 . S
C2430 C448 1.488 . S
C2460 C460 1.518 . S
C2455 C148 1.620 . S
C2485 C120 1.608 . S
C2490 C478 1.507 . S
C2515 C92 1.609 . S
C2520 C481 1.502 . S
C2550 C469 1.449 . S
C2545 C101 1.561 1_565 S
C2580 C499 1.509 . S
C2575 C31 1.610 . S
C2610 C490 1.488 . S
C2605 C3 1.601 . S
C2635 C22 1.620 . S
C2640 C502 1.518 . S
