# Generated by pormake.
# Topology rtl, (3,6)-cn, num edge types: 1
# Building blocks:
#     Node 0, Type 0, BuildingBlock: WUSLED_clean_sbu_0, # of connection points: 3
#     Node 1, Type 0, BuildingBlock: WUSLED_clean_sbu_0, # of connection points: 3
#     Node 2, Type 0, BuildingBlock: WUSLED_clean_sbu_0, # of connection points: 3
#     Node 3, Type 0, BuildingBlock: WUSLED_clean_sbu_0, # of connection points: 3
#     Node 4, Type 1, BuildingBlock: KUMJIN_clean_sbu_1, # of connection points: 6
#     Node 5, Type 1, BuildingBlock: KUMJIN_clean_sbu_1, # of connection points: 6
#     Edge 6, Type (0, 1), BuildingBlock: TEMPAE_clean_linker_10, # of connection points: 2
#     Edge 7, Type (0, 1), BuildingBlock: TEMPAE_clean_linker_10, # of connection points: 2
#     Edge 8, Type (0, 1), BuildingBlock: TEMPAE_clean_linker_10, # of connection points: 2
#     Edge 9, Type (0, 1), BuildingBlock: TEMPAE_clean_linker_10, # of connection points: 2
#     Edge 10, Type (0, 1), BuildingBlock: TEMPAE_clean_linker_10, # of connection points: 2
#     Edge 11, Type (0, 1), BuildingBlock: TEMPAE_clean_linker_10, # of connection points: 2
#     Edge 12, Type (0, 1), BuildingBlock: TEMPAE_clean_linker_10, # of connection points: 2
#     Edge 13, Type (0, 1), BuildingBlock: TEMPAE_clean_linker_10, # of connection points: 2
#     Edge 14, Type (0, 1), BuildingBlock: TEMPAE_clean_linker_10, # of connection points: 2
#     Edge 15, Type (0, 1), BuildingBlock: TEMPAE_clean_linker_10, # of connection points: 2
#     Edge 16, Type (0, 1), BuildingBlock: TEMPAE_clean_linker_10, # of connection points: 2
#     Edge 17, Type (0, 1), BuildingBlock: TEMPAE_clean_linker_10, # of connection points: 2
# Relax obj value: 0.016
# Max RMSD: 0.102
# Mean RMSD: 0.058
data_MOF--net-rtl--node1-WUSLED_clean_sbu_0--node2-KUMJIN_clean_sbu_1--edge1-TEMPAE_clean_linker_10
_symmetry_space_group_name_H-M    P1
_symmetry_Int_Tables_number       1
_symmetry_cell_setting            triclinic
loop_
_symmetry_equiv_pos_as_xyz
'x, y, z'
_cell_length_a     42.796107
_cell_length_b     43.278671
_cell_length_c     36.905049
_cell_angle_alpha  81.114653
_cell_angle_beta   99.260757
_cell_angle_gamma 90.696729
loop_
_atom_site_label
_atom_site_type_symbol
_atom_site_fract_x
_atom_site_fract_y
_atom_site_fract_z
_atom_type_partial_charge
C0 C 0.20178 0.84364 0.12338 0.0
C1 C 0.17406 0.86194 0.11208 0.0
C2 C 0.17288 0.86875 0.17625 0.0
C3 C 0.1597 0.87432 0.13829 0.0
C4 C 0.20088 0.85067 0.18729 0.0
C5 C 0.21515 0.83821 0.16107 0.0
U6 U 0.21021 0.83754 0.02337 0.0
O7 O 0.2529 0.83255 0.99824 0.0
O8 O 0.2164 0.79644 0.99682 0.0
C9 C 0.24472 0.80485 0.9898 0.0
C10 C 0.21682 0.82998 0.09623 0.0
C11 C 0.26972 0.78041 0.99915 0.0
C12 C 0.2917 0.73082 0.03356 0.0
C13 C 0.26872 0.75467 0.02727 0.0
C14 C 0.31741 0.75856 0.98451 0.0
C15 C 0.31618 0.73238 0.01203 0.0
C16 C 0.29439 0.78226 0.97813 0.0
C17 C 0.15805 0.88892 0.94338 0.0
C18 C 0.15242 0.88077 0.87891 0.0
C19 C 0.13088 0.92774 0.89421 0.0
C20 C 0.14189 0.91758 0.93188 0.0
C21 C 0.13572 0.90934 0.86723 0.0
C22 C 0.16354 0.87068 0.91666 0.0
C23 C 0.16866 0.87837 0.98329 0.0
O24 O 0.19845 0.81246 0.07587 0.0
O25 O 0.23425 0.84915 0.0769 0.0
O26 O 0.19775 0.88576 0.99622 0.0
O27 O 0.1615 0.84948 0.9958 0.0
H28 H 0.16351 0.86655 0.08302 0.0
H29 H 0.13841 0.88848 0.12879 0.0
H30 H 0.21146 0.84568 0.2163 0.0
H31 H 0.23654 0.82414 0.17027 0.0
H32 H 0.29031 0.71114 0.05524 0.0
H33 H 0.25 0.75278 0.04402 0.0
H34 H 0.33569 0.76033 0.96715 0.0
H35 H 0.29553 0.80183 0.95621 0.0
H36 H 0.15634 0.86589 0.85898 0.0
H37 H 0.11867 0.95012 0.88621 0.0
H38 H 0.13765 0.93207 0.9521 0.0
H39 H 0.17612 0.8485 0.92504 0.0
C40 C 0.67211 0.6838 0.71499 0.0
C41 C 0.64395 0.66792 0.70521 0.0
C42 C 0.63919 0.65309 0.77072 0.0
C43 C 0.62761 0.65277 0.7328 0.0
C44 C 0.66757 0.66893 0.78021 0.0
C45 C 0.68379 0.68412 0.75264 0.0
U46 U 0.69066 0.69792 0.61576 0.0
O47 O 0.70052 0.74132 0.58001 0.0
O48 O 0.73652 0.70384 0.59568 0.0
C49 C 0.72962 0.73255 0.57884 0.0
C50 C 0.68979 0.6998 0.68646 0.0
C51 C 0.75493 0.75601 0.58331 0.0
C52 C 0.77289 0.80812 0.59355 0.0
C53 C 0.74957 0.78506 0.59402 0.0
C54 C 0.80757 0.77322 0.57273 0.0
C55 C 0.80203 0.80265 0.58236 0.0
C56 C 0.78429 0.75026 0.57313 0.0
C57 C 0.64555 0.65094 0.54413 0.0
C58 C 0.64727 0.66076 0.47774 0.0
C59 C 0.62331 0.61351 0.50467 0.0
C60 C 0.63011 0.62274 0.53971 0.0
C61 C 0.63183 0.63236 0.47323 0.0
C62 C 0.65419 0.66993 0.51296 0.0
C63 C 0.65242 0.65984 0.58151 0.0
O64 O 0.70954 0.68204 0.67478 0.0
O65 O 0.6732 0.7191 0.65935 0.0
O66 O 0.64429 0.68847 0.58427 0.0
O67 O 0.6804 0.6512 0.60054 0.0
H68 H 0.63458 0.66729 0.67626 0.0
H69 H 0.60571 0.64111 0.72437 0.0
H70 H 0.67756 0.66924 0.80904 0.0
H71 H 0.70561 0.69605 0.76076 0.0
H72 H 0.76797 0.83036 0.6016 0.0
H73 H 0.72716 0.79028 0.60196 0.0
H74 H 0.8295 0.76827 0.5635 0.0
H75 H 0.7889 0.72823 0.56433 0.0
H76 H 0.65435 0.67567 0.45415 0.0
H77 H 0.61098 0.59176 0.50213 0.0
H78 H 0.62322 0.60781 0.56343 0.0
H79 H 0.6663 0.69175 0.51589 0.0
C80 C 0.8279 0.15974 0.15798 0.0
C81 C 0.84589 0.13309 0.15696 0.0
C82 C 0.86035 0.12561 0.2245 0.0
C83 C 0.862 0.11613 0.18999 0.0
C84 C 0.84231 0.15244 0.2251 0.0
C85 C 0.82624 0.16927 0.19218 0.0
U86 U 0.80832 0.18227 0.05169 0.0
O87 O 0.76248 0.19558 0.01669 0.0
O88 O 0.801 0.22951 0.01909 0.0
C89 C 0.77079 0.22482 1.00811 0.0
C90 C 0.81101 0.1783 0.12389 0.0
C91 C 0.74891 0.2488 0.01447 0.0
C92 C 0.71067 0.26628 0.04941 0.0
C93 C 0.73154 0.24338 0.04402 0.0
C94 C 0.72488 0.30065 0.99644 0.0
C95 C 0.70707 0.29516 0.02564 0.0
C96 C 0.74552 0.27764 0.99086 0.0
C97 C 0.84901 0.13849 0.98769 0.0
C98 C 0.86842 0.15464 0.92919 0.0
C99 C 0.85483 0.10056 0.94686 0.0
C100 C 0.84625 0.10787 0.97956 0.0
C101 C 0.86665 0.12371 0.92158 0.0
C102 C 0.85968 0.16197 0.96188 0.0
C103 C 0.84278 0.14465 0.02426 0.0
O104 O 0.82858 0.19738 0.10467 0.0
O105 O 0.79024 0.16324 0.10303 0.0
O106 O 0.8145 0.13737 0.0323 0.0
O107 O 0.85329 0.17108 0.0348 0.0
H108 H 0.84748 0.12545 0.1307 0.0
H109 H 0.87548 0.09546 0.18855 0.0
H110 H 0.84099 0.16079 0.25102 0.0
H111 H 0.81262 0.18993 0.19342 0.0
H112 H 0.69754 0.2615 0.07238 0.0
H113 H 0.73404 0.22144 0.06292 0.0
H114 H 0.72241 0.32256 0.97747 0.0
H115 H 0.75879 0.28232 0.96799 0.0
H116 H 0.87769 0.17301 0.91058 0.0
H117 H 0.85262 0.07662 0.94163 0.0
H118 H 0.83807 0.08935 0.99898 0.0
H119 H 0.86206 0.18584 0.96733 0.0
C120 C 0.35134 0.33457 0.35353 0.0
C121 C 0.37952 0.35046 0.3632 0.0
C122 C 0.38397 0.36542 0.29761 0.0
C123 C 0.39572 0.36569 0.33551 0.0
C124 C 0.35559 0.34956 0.28825 0.0
C125 C 0.33951 0.3343 0.31591 0.0
U126 U 0.33312 0.31917 0.45311 0.0
O127 O 0.28714 0.31376 0.47301 0.0
O128 O 0.32229 0.27546 0.48756 0.0
C129 C 0.29347 0.28477 0.48916 0.0
C130 C 0.3337 0.31855 0.38208 0.0
C131 C 0.26765 0.2619 0.48446 0.0
C132 C 0.24828 0.21074 0.47213 0.0
C133 C 0.27184 0.23354 0.47157 0.0
C134 C 0.21563 0.24462 0.49733 0.0
C135 C 0.22007 0.21579 0.48559 0.0
C136 C 0.23915 0.26732 0.49682 0.0
C137 C 0.37869 0.36284 0.52784 0.0
C138 C 0.36223 0.38368 0.57958 0.0
C139 C 0.41692 0.3682 0.58294 0.0
C140 C 0.40965 0.35943 0.54762 0.0
C141 C 0.39338 0.38086 0.59909 0.0
C142 C 0.35492 0.37466 0.5444 0.0
C143 C 0.37209 0.35526 0.48956 0.0
O144 O 0.3501 0.29867 0.40871 0.0
O145 O 0.31446 0.33643 0.39438 0.0
O146 O 0.34479 0.36512 0.46957 0.0
O147 O 0.37978 0.3268 0.48558 0.0
H148 H 0.389 0.35103 0.39214 0.0
H149 H 0.41762 0.37738 0.34383 0.0
H150 H 0.34547 0.3493 0.25945 0.0
H151 H 0.31767 0.32238 0.30787 0.0
H152 H 0.25231 0.18898 0.46241 0.0
H153 H 0.29358 0.22863 0.46191 0.0
H154 H 0.19447 0.24922 0.50833 0.0
H155 H 0.23548 0.28882 0.5073 0.0
H156 H 0.34352 0.39304 0.59147 0.0
H157 H 0.44119 0.36602 0.59711 0.0
H158 H 0.42841 0.35049 0.53544 0.0
H159 H 0.33074 0.37741 0.53003 0.0
Eu160 Eu 0.03497 0.97689 0.5162 0.0
C161 C 0.958 0.10164 0.50397 0.0
N162 N 0.98573 0.0931 0.52685 0.0
C163 C 1.00655 0.14424 0.51146 0.0
C164 C 0.95376 0.13198 0.48333 0.0
C165 C 1.0097 0.11391 0.53132 0.0
C166 C 0.97851 0.15329 0.48724 0.0
C167 C 0.90542 0.08775 0.47612 0.0
C168 C 0.93416 0.0796 0.50027 0.0
C169 C 0.90111 0.118 0.4557 0.0
C170 C 0.92521 0.14001 0.45922 0.0
Eu171 Eu 0.98946 0.04119 0.55811 0.0
N172 N 0.93922 0.05018 0.51981 0.0
C173 C 0.88173 0.0653 0.47333 0.0
C174 C 0.91535 0.02897 0.51896 0.0
C175 C 0.88658 0.03594 0.49523 0.0
H176 H 0.03103 0.10727 0.55073 0.0
H177 H 0.86796 0.01879 0.49425 0.0
H178 H 0.99551 0.90982 0.52667 0.0
H179 H 0.15511 1.00444 0.57945 0.0
H180 H 0.91777 0.00694 0.53709 0.0
H181 H 0.85938 0.07062 0.45501 0.0
H182 H 0.10585 0.01298 0.53473 0.0
H183 H 0.02569 0.16064 0.51496 0.0
H184 H 0.87914 0.12466 0.43716 0.0
H185 H 0.92156 0.16318 0.4431 0.0
H186 H 1.00171 0.85781 0.56583 0.0
H187 H 0.97616 0.17679 0.4718 0.0
H188 H 0.16402 0.95482 0.62321 0.0
N189 N 0.04003 0.92595 0.55029 0.0
C190 C 0.06752 0.91898 0.5743 0.0
C191 C 0.02034 0.87483 0.56859 0.0
C192 C 0.07208 0.88964 0.59725 0.0
C193 C 0.01676 0.90434 0.54667 0.0
C194 C 0.04804 0.8675 0.59414 0.0
N195 N 0.08503 0.97036 0.55536 0.0
C196 C 0.10843 0.99204 0.55481 0.0
C197 C 0.11891 0.93556 0.60253 0.0
C198 C 0.09055 0.94186 0.57708 0.0
C199 C 0.14195 0.95873 0.60401 0.0
C200 C 0.1369 0.98686 0.57958 0.0
H201 H 0.05064 0.8447 0.61132 0.0
H202 H 0.10393 0.8612 0.64097 0.0
H203 H 0.145 0.90128 0.64539 0.0
O204 O 0.06591 0.98118 0.47403 0.0
O205 O 0.03085 0.9694 0.57767 0.0
O206 O 0.03461 0.01888 0.59213 0.0
O207 O 0.0346 0.94203 0.47898 0.0
O208 O 0.05066 0.02781 0.50663 0.0
O209 O 0.04202 0.04854 0.55835 0.0
O210 O 0.96284 0.03318 0.60464 0.0
O211 O 0.99096 0.04866 0.49605 0.0
O212 O 0.99044 0.99928 0.48052 0.0
O213 O 0.98702 0.07667 0.59372 0.0
O214 O 0.97163 0.99084 0.5651 0.0
O215 O 0.9824 0.96886 0.51483 0.0
C216 C 0.0395 0.98866 0.60143 0.0
C217 C 0.04578 0.96148 0.41915 0.0
C218 C 0.0571 0.95527 0.35778 0.0
C219 C 0.02926 0.9724 0.34154 0.0
C220 C 0.01825 0.97849 0.40226 0.0
C221 C 0.01001 0.98386 0.3637 0.0
C222 C 0.06516 0.94979 0.39687 0.0
C223 C 0.05632 0.04883 0.52922 0.0
C224 C 0.05476 0.95678 0.45988 0.0
C225 C 0.10011 0.88353 0.62293 0.0
C226 C 0.12345 0.90641 0.62554 0.0
C227 C 0.98338 0.02923 0.47217 0.0
C228 C 0.98321 0.0579 0.65602 0.0
C229 C 0.97627 0.06665 0.71814 0.0
C230 C 1.00767 0.05629 0.73148 0.0
C231 C 0.01453 0.04817 0.6699 0.0
C232 C 0.96403 0.06704 0.68022 0.0
C233 C 0.0266 0.04718 0.70746 0.0
C234 C 0.96667 0.96959 0.54265 0.0
C235 C 0.97096 0.05956 0.61615 0.0
H236 H 0.02215 0.97661 0.31165 0.0
H237 H 1.00323 0.98765 0.41896 0.0
H238 H 0.98861 0.99694 0.35095 0.0
H239 H 0.08667 0.93694 0.4099 0.0
H240 H 0.0176 0.0552 0.76056 0.0
H241 H 0.02971 0.04176 0.65153 0.0
H242 H 0.93999 0.07515 0.66936 0.0
H243 H 0.0508 0.03961 0.71793 0.0
Eu244 Eu 0.47776 0.49137 0.99827 0.0
C245 C 0.60838 0.55378 0.04219 0.0
N246 N 0.59768 0.52709 0.06057 0.0
C247 C 0.64828 0.50223 0.06586 0.0
C248 C 0.63957 0.55542 0.03426 0.0
C249 C 0.61716 0.50169 0.07301 0.0
C250 C 0.6595 0.52917 0.04625 0.0
C251 C 0.59802 0.60697 1.01039 0.0
C252 C 0.5877 0.57923 0.03021 0.0
C253 C 0.6291 0.60868 1.00259 0.0
C254 C 0.64978 0.58298 0.0144 0.0
Eu255 Eu 0.54444 0.52761 0.06974 0.0
N256 N 0.55738 0.57662 0.03725 0.0
C257 C 0.57679 0.63224 0.99903 0.0
C258 C 0.53733 0.60188 0.02827 0.0
C259 C 0.54647 0.6298 1.00847 0.0
H260 H 0.60883 0.48117 0.08898 0.0
H261 H 0.53023 0.64958 1.00089 0.0
H262 H 0.41322 0.53732 0.98374 0.0
H263 H 0.49443 0.36832 0.06254 0.0
H264 H 0.51455 0.60111 0.03697 0.0
H265 H 0.58378 0.6539 0.98365 0.0
H266 H 0.50882 0.41775 0.02736 0.0
H267 H 0.66361 0.48193 0.07559 0.0
H268 H 0.63743 0.62983 0.9875 0.0
H269 H 0.67363 0.58463 1.00797 0.0
H270 H 0.35901 0.53513 0.999 0.0
H271 H 0.6836 0.5295 0.04064 0.0
H272 H 0.44168 0.3627 0.08181 0.0
N273 N 0.42518 0.49086 1.00977 0.0
C274 C 0.41516 0.46356 0.02757 0.0
C275 C 0.3746 0.51489 1.00735 0.0
C276 C 0.38433 0.46114 0.03656 0.0
C277 C 0.40539 0.51622 0.99911 0.0
C278 C 0.36405 0.48727 0.02629 0.0
N279 N 0.46623 0.44157 0.02995 0.0
C280 C 0.48648 0.41646 0.03715 0.0
C281 C 0.42663 0.40994 0.05728 0.0
C282 C 0.43626 0.43829 0.03806 0.0
C283 C 0.44815 0.38482 0.06695 0.0
C284 C 0.47803 0.38798 0.05637 0.0
H285 H 0.34021 0.48635 0.03277 0.0
H286 H 0.35126 0.43071 0.06306 0.0
H287 H 0.38808 0.3858 0.08066 0.0
O288 O 0.48337 0.46454 0.95398 0.0
O289 O 0.46947 0.49185 0.0577 0.0
O290 O 0.51887 0.48447 0.09262 0.0
O291 O 0.4426 0.49472 0.94784 0.0
O292 O 0.52786 0.47089 1.00883 0.0
O293 O 0.54914 0.47557 0.06947 0.0
O294 O 0.53826 0.55594 0.11238 0.0
O295 O 0.55285 0.52767 1.01023 0.0
O296 O 0.50343 0.5343 0.97501 0.0
O297 O 0.57816 0.52431 0.12147 0.0
O298 O 0.49437 0.54852 0.05872 0.0
O299 O 0.47352 0.5434 0.99809 0.0
C300 C 0.48806 0.481 0.08882 0.0
C301 C 0.46246 0.48879 0.89337 0.0
C302 C 0.45902 0.48157 0.82837 0.0
C303 C 0.47012 0.51225 0.82021 0.0
C304 C 0.47332 0.51925 0.88442 0.0
C305 C 0.4773 0.53082 0.84809 0.0
C306 C 0.45539 0.46996 0.86535 0.0
C307 C 0.54853 0.46254 0.03936 0.0
C308 C 0.45829 0.47671 0.93181 0.0
C309 C 0.37483 0.43298 0.05585 0.0
C310 C 0.39588 0.40745 0.06606 0.0
C311 C 0.53424 0.53789 0.97888 0.0
C312 C 0.55687 0.53301 0.17411 0.0
C313 C 0.5606 0.54134 0.23871 0.0
C314 C 0.54509 0.51277 0.24651 0.0
C315 C 0.54163 0.50462 0.18268 0.0
C316 C 0.56645 0.55132 0.20219 0.0
C317 C 0.53572 0.4946 0.21865 0.0
C318 C 0.474 0.55679 0.02789 0.0
C319 C 0.56253 0.54359 0.13587 0.0
H320 H 0.47265 0.52223 0.79208 0.0
H321 H 0.47838 0.53413 0.9055 0.0
H322 H 0.48561 0.55442 0.8414 0.0
H323 H 0.44721 0.44633 0.87243 0.0
H324 H 0.54069 0.50416 0.27436 0.0
H325 H 0.53451 0.49019 0.16154 0.0
H326 H 0.57812 0.57336 0.19553 0.0
H327 H 0.52405 0.47256 0.22501 0.0
C328 C 0.16348 0.19805 0.48102 0.0
C329 C 0.19599 0.1907 0.4892 0.0
C330 C 0.14061 0.17497 0.48667 0.0
C331 C 0.15038 0.14367 0.50075 0.0
C332 C 0.18309 0.13595 0.50839 0.0
C333 C 0.20546 0.15952 0.50257 0.0
C334 C 0.10596 0.18415 0.47804 0.0
C335 C 0.19449 0.10287 0.52343 0.0
C336 C 0.09378 0.09013 0.54994 0.0
C337 C 0.08052 0.07298 0.52208 0.0
C338 C 0.11645 0.11321 0.54335 0.0
C339 C 0.12639 0.11914 0.50814 0.0
C340 C 0.11334 0.10167 0.48003 0.0
C341 C 0.09059 0.07883 0.48732 0.0
C342 C 0.12973 0.13132 0.57408 0.0
C343 C 0.12335 0.10716 0.44217 0.0
H344 H 0.15588 0.22196 0.47022 0.0
H345 H 0.23047 0.15362 0.50951 0.0
H346 H 0.09326 0.17023 0.45755 0.0
H347 H 0.09507 0.17892 0.5036 0.0
H348 H 0.10222 0.20939 0.46675 0.0
H349 H 0.22065 0.10047 0.52675 0.0
H350 H 0.18705 0.09534 0.55086 0.0
H351 H 0.18356 0.08667 0.5046 0.0
H352 H 0.08648 0.0855 0.57704 0.0
H353 H 0.08052 0.0657 0.4656 0.0
H354 H 0.12487 0.15668 0.56485 0.0
H355 H 0.15581 0.1281 0.58069 0.0
H356 H 0.11952 0.12393 0.59985 0.0
H357 H 0.11813 0.13175 0.42895 0.0
H358 H 0.11117 0.09143 0.42343 0.0
H359 H 0.14929 0.10344 0.44497 0.0
C360 C 0.33012 0.67519 0.02134 0.0
C361 C 0.33982 0.70646 0.01725 0.0
C362 C 0.35192 0.65057 0.02408 0.0
C363 C 0.38422 0.65737 0.02286 0.0
C364 C 0.39427 0.68883 0.01948 0.0
C365 C 0.37196 0.71297 0.01667 0.0
C366 C 0.34027 0.61733 0.02751 0.0
C367 C 0.42853 0.69701 0.01833 0.0
C368 C 0.44565 0.59251 0.0595 0.0
C369 C 0.45126 0.58272 0.02657 0.0
C370 C 0.42392 0.61676 0.05873 0.0
C371 C 0.4074 0.63162 0.02421 0.0
C372 C 0.41309 0.62196 0.99087 0.0
C373 C 0.43503 0.59774 0.99245 0.0
C374 C 0.41855 0.62641 0.09488 0.0
C375 C 0.39597 0.63721 0.95349 0.0
H376 H 0.30529 0.66998 0.02136 0.0
H377 H 0.37969 0.73704 0.014 0.0
H378 H 0.34469 0.60672 1.00326 0.0
H379 H 0.35352 0.60304 0.05273 0.0
H380 H 0.31457 0.61591 0.02908 0.0
H381 H 0.43265 0.72256 0.01662 0.0
H382 H 0.44376 0.68474 0.0435 0.0
H383 H 0.43618 0.68903 0.99393 0.0
H384 H 0.45805 0.58103 0.08601 0.0
H385 H 0.43947 0.59057 0.96684 0.0
H386 H 0.39332 0.6233 0.09807 0.0
H387 H 0.42389 0.65158 0.09472 0.0
H388 H 0.43345 0.61267 0.11936 0.0
H389 H 0.37002 0.63476 0.95249 0.0
H390 H 0.40295 0.62686 0.93019 0.0
H391 H 0.40101 0.6626 0.94924 0.0
C392 C 0.81663 0.85867 0.56352 0.0
C393 C 0.82604 0.82784 0.57902 0.0
C394 C 0.83906 0.88226 0.55813 0.0
C395 C 0.87176 0.87495 0.56843 0.0
C396 C 0.88143 0.84403 0.58464 0.0
C397 C 0.8585 0.8209 0.58976 0.0
C398 C 0.82776 0.91492 0.54073 0.0
C399 C 0.91606 0.83528 0.59618 0.0
C400 C 0.93072 0.92722 0.52167 0.0
C401 C 0.94209 0.94565 0.54898 0.0
C402 C 0.90787 0.90418 0.52763 0.0
C403 C 0.89589 0.8995 0.56166 0.0
C404 C 0.90705 0.9182 0.58921 0.0
C405 C 0.92997 0.94101 0.58255 0.0
C406 C 0.89663 0.88477 0.49751 0.0
C407 C 0.89488 0.914 0.62584 0.0
H408 H 0.79169 0.86422 0.55463 0.0
H409 H 0.86603 0.79728 0.6022 0.0
H410 H 0.83733 0.93196 0.55913 0.0
H411 H 0.83671 0.92154 0.51403 0.0
H412 H 0.80152 0.91706 0.53534 0.0
H413 H 0.91969 0.81033 0.60888 0.0
H414 H 0.9284 0.83968 0.57167 0.0
H415 H 0.92741 0.85009 0.61646 0.0
H416 H 0.93967 0.9308 0.4955 0.0
H417 H 0.93858 0.95506 0.60389 0.0
H418 H 0.87062 0.88754 0.48898 0.0
H419 H 0.90161 0.85964 0.50828 0.0
H420 H 0.90819 0.89137 0.47259 0.0
H421 H 0.86881 0.91746 0.62094 0.0
H422 H 0.90575 0.93059 0.64425 0.0
H423 H 0.89992 0.88979 0.64054 0.0
C424 C 0.69323 0.35076 0.02889 0.0
C425 C 0.68441 0.31929 0.03082 0.0
C426 C 0.67167 0.37392 0.03243 0.0
C427 C 0.64043 0.36547 0.03759 0.0
C428 C 0.63154 0.33368 0.04012 0.0
C429 C 0.65368 0.31097 0.03687 0.0
C430 C 0.68217 0.40752 0.03002 0.0
C431 C 0.59838 0.32377 0.04523 0.0
C432 C 0.58948 0.42236 0.07266 0.0
C433 C 0.57178 0.43734 0.03938 0.0
C434 C 0.61205 0.39905 0.07256 0.0
C435 C 0.61661 0.39009 0.03843 0.0
C436 C 0.59839 0.40472 1.00485 0.0
C437 C 0.57633 0.42819 1.00572 0.0
C438 C 0.63116 0.38415 0.10893 0.0
C439 C 0.60229 0.39566 0.96789 0.0
H440 H 0.71707 0.35726 0.0247 0.0
H441 H 0.64665 0.28673 0.03803 0.0
H442 H 0.66834 0.42183 1.00522 0.0
H443 H 0.6775 0.41732 0.05473 0.0
H444 H 0.70774 0.40999 0.02812 0.0
H445 H 0.59561 0.29798 0.04821 0.0
H446 H 0.59206 0.33194 0.0702 0.0
H447 H 0.58123 0.33475 0.02098 0.0
H448 H 0.58577 0.42889 0.09885 0.0
H449 H 0.56277 0.43954 0.97983 0.0
H450 H 0.65678 0.3877 0.10819 0.0
H451 H 0.62723 0.35855 0.11328 0.0
H452 H 0.62496 0.39391 0.13302 0.0
H453 H 0.62691 0.4001 0.96277 0.0
H454 H 0.58581 0.40881 0.94438 0.0
H455 H 0.59806 0.37027 0.96828 0.0
C456 C 0.17532 0.8948 0.23303 0.0
C457 C 0.15729 0.88144 0.20426 0.0
C458 C 0.16083 0.90688 0.25955 0.0
C459 C 0.12751 0.9055 0.25736 0.0
C460 C 0.10922 0.89189 0.22853 0.0
C461 C 0.12431 0.88008 0.20235 0.0
C462 C 0.18114 0.9214 0.2897 0.0
C463 C 0.07365 0.88984 0.22529 0.0
C464 C 0.08893 0.91224 0.34196 0.0
C465 C 0.07727 0.94311 0.33368 0.0
C466 C 0.10595 0.89987 0.3178 0.0
C467 C 0.11157 0.91886 0.28466 0.0
C468 C 0.10072 0.95033 0.27678 0.0
C469 C 0.0837 0.96203 0.30133 0.0
C470 C 0.1171 0.8662 0.32718 0.0
C471 C 0.10645 0.97146 0.24196 0.0
H472 H 0.20078 0.89626 0.23447 0.0
H473 H 0.11025 0.8694 0.18055 0.0
H474 H 0.1742 0.9463 0.28767 0.0
H475 H 0.17732 0.90941 0.31743 0.0
H476 H 0.20676 0.92014 0.28798 0.0
H477 H 0.0629 0.87813 0.2016 0.0
H478 H 0.0672 0.87671 0.25126 0.0
H479 H 0.06313 0.91365 0.22154 0.0
H480 H 0.08385 0.89742 0.36675 0.0
H481 H 0.0752 0.98606 0.29507 0.0
H482 H 0.14288 0.86465 0.32669 0.0
H483 H 0.10495 0.85265 0.30596 0.0
H484 H 0.11236 0.85506 0.35493 0.0
H485 H 0.13209 0.97203 0.24022 0.0
H486 H 0.09789 0.99577 0.24085 0.0
H487 H 0.09416 0.96216 0.21714 0.0
C488 C 0.62004 0.65032 0.83223 0.0
C489 C 0.622 0.63687 0.80035 0.0
C490 C 0.60498 0.63488 0.86097 0.0
C491 C 0.59136 0.60524 0.85784 0.0
C492 C 0.59264 0.59177 0.82548 0.0
C493 C 0.608 0.60767 0.79722 0.0
C494 C 0.60415 0.65005 0.895 0.0
C495 C 0.57821 0.5603 0.82097 0.0
C496 C 0.58078 0.55075 0.9463 0.0
C497 C 0.54857 0.55498 0.94769 0.0
C498 C 0.59502 0.56715 0.91748 0.0
C499 C 0.57652 0.58796 0.88887 0.0
C500 C 0.54395 0.59226 0.89006 0.0
C501 C 0.53046 0.57597 0.91964 0.0
C502 C 0.62993 0.56224 0.91774 0.0
C503 C 0.52338 0.61419 0.86015 0.0
H504 H 0.63024 0.67309 0.83473 0.0
H505 H 0.60963 0.59684 0.77299 0.0
H506 H 0.57945 0.65177 0.90015 0.0
H507 H 0.61762 0.63533 0.91968 0.0
H508 H 0.61447 0.67381 0.89245 0.0
H509 H 0.58003 0.55359 0.79351 0.0
H510 H 0.59031 0.54206 0.84307 0.0
H511 H 0.55287 0.56053 0.82414 0.0
H512 H 0.59492 0.53447 0.96777 0.0
H513 H 0.50575 0.57995 0.92098 0.0
H514 H 0.64241 0.58481 0.91838 0.0
H515 H 0.63359 0.5536 0.89194 0.0
H516 H 0.64096 0.54527 0.94203 0.0
H517 H 0.53249 0.63834 0.85939 0.0
H518 H 0.49831 0.61427 0.86457 0.0
H519 H 0.5242 0.60735 0.83255 0.0
C520 C 0.86365 0.10352 0.29205 0.0
C521 C 0.87772 0.10813 0.25982 0.0
C522 C 0.88043 0.08912 0.32621 0.0
C523 C 0.91203 0.07888 0.32824 0.0
C524 C 0.92606 0.08249 0.29563 0.0
C525 C 0.90876 0.09712 0.26182 0.0
C526 C 0.86464 0.08571 0.36036 0.0
C527 C 0.95962 0.0716 0.29666 0.0
C528 C 0.96624 0.07361 0.42123 0.0
C529 C 0.96559 0.0416 0.43503 0.0
C530 C 0.9488 0.08602 0.38665 0.0
C531 C 0.93084 0.06582 0.36485 0.0
C532 C 0.93048 0.03337 0.37834 0.0
C533 C 0.94757 0.02171 0.41349 0.0
C534 C 0.94941 0.12083 0.37362 0.0
C535 C 0.91193 0.01103 0.35576 0.0
H536 H 0.83948 0.11139 0.29065 0.0
H537 H 0.91993 0.10079 0.23718 0.0
H538 H 0.8657 0.06097 0.37406 0.0
H539 H 0.87752 0.09967 0.38064 0.0
H540 H 0.83949 0.09363 0.35385 0.0
H541 H 0.96665 0.07496 0.26864 0.0
H542 H 0.97622 0.08465 0.31491 0.0
H543 H 0.96231 0.04645 0.30862 0.0
H544 H 0.98043 0.08907 0.43749 0.0
H545 H 0.94669 0.99699 0.42416 0.0
H546 H 0.9251 0.13078 0.36958 0.0
H547 H 0.95782 0.12553 0.34642 0.0
H548 H 0.96494 0.13324 0.39369 0.0
H549 H 0.88637 0.01725 0.35093 0.0
H550 H 0.91503 0.98634 0.36966 0.0
H551 H 0.9195 0.01293 0.32813 0.0
C552 C 0.42136 0.37491 0.66521 0.0
C553 C 0.40164 0.39253 0.63527 0.0
C554 C 0.43052 0.38655 0.69882 0.0
C555 C 0.42006 0.4167 0.7024 0.0
C556 C 0.39972 0.43434 0.67247 0.0
C557 C 0.39066 0.42199 0.63939 0.0
C558 C 0.45181 0.36683 0.73027 0.0
C559 C 0.38828 0.4667 0.67497 0.0
C560 C 0.42336 0.44382 0.79632 0.0
C561 C 0.45055 0.46239 0.79797 0.0
C562 C 0.41378 0.4278 0.76609 0.0
C563 C 0.43159 0.43066 0.73657 0.0
C564 C 0.45959 0.4485 0.73865 0.0
C565 C 0.46882 0.46392 0.76937 0.0
C566 C 0.38401 0.40868 0.76514 0.0
C567 C 0.47926 0.45221 0.70778 0.0
H568 H 0.42963 0.35198 0.66231 0.0
H569 H 0.37572 0.43588 0.61622 0.0
H570 H 0.47489 0.37853 0.73603 0.0
H571 H 0.44113 0.36435 0.75603 0.0
H572 H 0.45622 0.34314 0.72395 0.0
H573 H 0.37172 0.47694 0.64972 0.0
H574 H 0.37613 0.46599 0.69946 0.0
H575 H 0.40881 0.48245 0.67882 0.0
H576 H 0.40891 0.44264 0.81804 0.0
H577 H 0.49025 0.47759 0.77073 0.0
H578 H 0.38861 0.38496 0.75913 0.0
H579 H 0.36554 0.41991 0.7425 0.0
H580 H 0.37455 0.40634 0.79175 0.0
H581 H 0.4862 0.42894 0.70239 0.0
H582 H 0.50104 0.46586 0.71429 0.0
H583 H 0.46503 0.46429 0.68174 0.0
C584 C 0.61143 0.6434 0.40454 0.0
C585 C 0.6243 0.62222 0.43603 0.0
C586 C 0.60206 0.63338 0.36994 0.0
C587 C 0.60567 0.60146 0.36678 0.0
C588 C 0.61967 0.58025 0.39817 0.0
C589 C 0.62881 0.59088 0.43233 0.0
C590 C 0.5873 0.65673 0.33712 0.0
C591 C 0.62416 0.54606 0.39599 0.0
C592 C 0.55124 0.56342 0.29503 0.0
C593 C 0.57109 0.55999 0.2691 0.0
C594 C 0.56181 0.57801 0.32612 0.0
C595 C 0.59304 0.58956 0.33149 0.0
C596 C 0.61275 0.58748 0.30454 0.0
C597 C 0.60154 0.57272 0.27365 0.0
C598 C 0.53992 0.57993 0.35399 0.0
C599 C 0.64613 0.59964 0.30915 0.0
H600 H 0.60769 0.66761 0.4072 0.0
H601 H 0.63929 0.5745 0.45635 0.0
H602 H 0.59923 0.65549 0.31282 0.0
H603 H 0.56206 0.65097 0.32906 0.0
H604 H 0.58862 0.68108 0.34328 0.0
H605 H 0.63689 0.53295 0.4224 0.0
H606 H 0.60075 0.53516 0.38936 0.0
H607 H 0.63766 0.54352 0.37333 0.0
H608 H 0.52748 0.55417 0.29133 0.0
H609 H 0.61709 0.57002 0.25386 0.0
H610 H 0.53829 0.60433 0.35936 0.0
H611 H 0.5496 0.56531 0.3808 0.0
H612 H 0.51569 0.57181 0.34449 0.0
H613 H 0.6464 0.62397 0.3152 0.0
H614 H 0.65725 0.59915 0.28404 0.0
H615 H 0.66081 0.58514 0.33314 0.0
C616 C 0.89671 0.0877 0.89202 0.0
C617 C 0.8788 0.11526 0.88864 0.0
C618 C 0.91001 0.08012 0.86209 0.0
C619 C 0.90551 0.10067 0.82784 0.0
C620 C 0.88685 0.12815 0.82386 0.0
C621 C 0.87372 0.13512 0.85429 0.0
C622 C 0.92979 0.0506 0.86756 0.0
C623 C 0.88143 0.15059 0.78776 0.0
C624 C 0.97032 0.09667 0.76947 0.0
C625 C 0.95688 0.07739 0.74398 0.0
C626 C 0.95343 0.10525 0.79602 0.0
C627 C 0.92226 0.09429 0.79725 0.0
C628 C 0.9081 0.07571 0.77076 0.0
C629 C 0.92557 0.06753 0.74437 0.0
C630 C 0.96935 0.12531 0.82351 0.0
C631 C 0.87493 0.06357 0.77116 0.0
H632 H 0.90125 0.07242 0.91853 0.0
H633 H 0.85957 0.15624 0.85122 0.0
H634 H 0.92119 0.03631 0.84556 0.0
H635 H 0.95471 0.05671 0.86521 0.0
H636 H 0.92932 0.03612 0.89508 0.0
H637 H 0.8647 0.16986 0.78838 0.0
H638 H 0.90428 0.16094 0.78189 0.0
H639 H 0.87198 0.13799 0.76442 0.0
H640 H 0.99429 0.10486 0.76886 0.0
H641 H 0.91511 0.05252 0.72485 0.0
H642 H 0.97235 0.11183 0.852 0.0
H643 H 0.95435 0.14609 0.82326 0.0
H644 H 0.99298 0.13339 0.81748 0.0
H645 H 0.87431 0.04671 0.79694 0.0
H646 H 0.86638 0.05166 0.74689 0.0
H647 H 0.85831 0.08301 0.77127 0.0
C648 C 0.40282 0.36832 0.23593 0.0
C649 C 0.40097 0.38174 0.26786 0.0
C650 C 0.41768 0.38385 0.20707 0.0
C651 C 0.43117 0.41355 0.21007 0.0
C652 C 0.42993 0.42702 0.24246 0.0
C653 C 0.41483 0.41102 0.27088 0.0
C654 C 0.41832 0.36872 0.17296 0.0
C655 C 0.44424 0.45855 0.24688 0.0
C656 C 0.49185 0.44272 0.14792 0.0
C657 C 0.47372 0.46378 0.11996 0.0
C658 C 0.47845 0.4265 0.17762 0.0
C659 C 0.44592 0.43085 0.17896 0.0
C660 C 0.42738 0.45168 0.15042 0.0
C661 C 0.44157 0.46811 0.12156 0.0
C662 C 0.49911 0.40464 0.20753 0.0
C663 C 0.3925 0.45662 0.1503 0.0
H664 H 0.3927 0.34552 0.2335 0.0
H665 H 0.41328 0.42181 0.29515 0.0
H666 H 0.40401 0.38306 0.1486 0.0
H667 H 0.44285 0.36774 0.167 0.0
H668 H 0.40873 0.34466 0.17592 0.0
H669 H 0.44174 0.46564 0.27395 0.0
H670 H 0.46977 0.45806 0.24466 0.0
H671 H 0.43271 0.47664 0.2242 0.0
H672 H 0.51659 0.43884 0.14657 0.0
H673 H 0.42743 0.48452 0.10025 0.0
H674 H 0.49003 0.38047 0.20834 0.0
H675 H 0.49831 0.41151 0.23511 0.0
H676 H 0.52416 0.4046 0.20305 0.0
H677 H 0.38 0.43404 0.14981 0.0
H678 H 0.3814 0.47353 0.12599 0.0
H679 H 0.38893 0.46535 0.17608 0.0
C680 C 0.14047 0.91576 0.79929 0.0
C681 C 0.12283 0.91978 0.82724 0.0
C682 C 0.12852 0.92589 0.76158 0.0
C683 C 0.09824 0.94042 0.75159 0.0
C684 C 0.08025 0.94434 0.7796 0.0
C685 C 0.0927 0.9339 0.81699 0.0
C686 C 0.14823 0.92101 0.73242 0.0
C687 C 0.04788 0.95978 0.7701 0.0
C688 C 0.0762 0.99466 0.65985 0.0
C689 C 0.05586 0.97592 0.6391 0.0
C690 C 0.09079 0.98316 0.69621 0.0
C691 C 0.0853 0.95198 0.71194 0.0
C692 C 0.06587 0.93254 0.69045 0.0
C693 C 0.05119 0.94482 0.6544 0.0
C694 C 0.11167 1.00451 0.71803 0.0
C695 C 0.05986 0.89901 0.70587 0.0
H696 H 0.16386 0.90511 0.80691 0.0
H697 H 0.07862 0.93659 0.83826 0.0
H698 H 0.13563 0.90539 0.71389 0.0
H699 H 0.15166 0.94359 0.71479 0.0
H700 H 0.17182 0.91049 0.74481 0.0
H701 H 0.03674 0.9607 0.79511 0.0
H702 H 0.04977 0.98399 0.7556 0.0
H703 H 0.03202 0.94695 0.75086 0.0
H704 H 0.08058 0.01845 0.64772 0.0
H705 H 0.03554 0.9302 0.63842 0.0
H706 H 0.13596 0.99443 0.72608 0.0
H707 H 0.10256 0.0066 0.74406 0.0
H708 H 0.11303 0.0283 0.70202 0.0
H709 H 0.08261 0.88641 0.71715 0.0
H710 H 0.0464 0.8863 0.68453 0.0
H711 H 0.04626 0.89837 0.72915 0.0
loop_
_geom_bond_atom_site_label_1
_geom_bond_atom_site_label_2
_geom_bond_distance
_geom_bond_site_symmetry_2
_ccdc_geom_bond_type
C0 C1 1.264 . S
C0 C5 1.479 . S
C0 C10 1.465 . S
C1 C0 1.264 . S
C1 C3 1.339 . S
C1 H28 0.931 . S
C2 C3 1.395 . S
C2 C4 1.320 . S
C3 C1 1.339 . S
C3 C2 1.395 . S
C3 H29 0.929 . S
C4 C2 1.320 . S
C4 C5 1.405 . S
C4 H30 0.930 . S
C5 C0 1.479 . S
C5 C4 1.405 . S
C5 H31 0.931 . S
U6 O7 2.454 . S
U6 O8 2.459 1_554 S
U6 C9 2.984 . S
U6 C10 2.847 . S
U6 C23 2.882 1_554 S
U6 O24 2.441 . S
U6 O25 2.420 . S
U6 O26 2.455 1_554 S
U6 O27 2.449 1_554 S
O7 U6 2.454 . S
O7 C9 1.353 . S
O8 U6 2.459 1_556 S
O8 C9 1.288 1_556 S
C9 U6 2.984 . S
C9 O7 1.353 . S
C9 O8 1.288 1_554 S
C9 C11 1.363 . S
C10 C0 1.465 . S
C10 U6 2.847 . S
C10 O24 1.249 . S
C10 O25 1.202 . S
C11 C9 1.363 . S
C11 C13 1.408 . S
C11 C16 1.342 . S
C12 C13 1.310 . S
C12 C15 1.461 . S
C12 H32 0.932 . S
C13 C11 1.408 . S
C13 C12 1.310 . S
C13 H33 0.930 . S
C14 C15 1.474 . S
C14 C16 1.285 . S
C14 H34 0.929 1_554 S
C15 C12 1.461 . S
C15 C14 1.474 . S
C16 C11 1.342 . S
C16 C14 1.285 . S
C16 H35 0.930 1_554 S
C17 C20 1.424 . S
C17 C22 1.245 . S
C17 C23 1.428 . S
C18 C21 1.260 . S
C18 C22 1.477 . S
C18 H36 0.932 . S
C19 C20 1.384 . S
C19 C21 1.479 . S
C19 H37 0.929 . S
C20 C17 1.424 . S
C20 C19 1.384 . S
C20 H38 0.928 . S
C21 C18 1.260 . S
C21 C19 1.479 . S
C22 C17 1.245 . S
C22 C18 1.477 . S
C22 H39 0.932 . S
C23 U6 2.882 1_556 S
C23 C17 1.428 . S
C23 O26 1.301 . S
C23 O27 1.282 . S
O24 U6 2.441 . S
O24 C10 1.249 . S
O25 U6 2.420 . S
O25 C10 1.202 . S
O26 U6 2.455 1_556 S
O26 C23 1.301 . S
O27 U6 2.449 1_556 S
O27 C23 1.282 . S
H28 C1 0.931 . S
H29 C3 0.929 . S
H30 C4 0.930 . S
H31 C5 0.931 . S
H32 C12 0.932 . S
H33 C13 0.930 . S
H34 C14 0.929 1_556 S
H35 C16 0.930 1_556 S
H36 C18 0.932 . S
H37 C19 0.929 . S
H38 C20 0.928 . S
H39 C22 0.932 . S
C40 C41 1.264 . S
C40 C45 1.479 . S
C40 C50 1.465 . S
C41 C40 1.264 . S
C41 C43 1.339 . S
C41 H68 0.931 . S
C42 C43 1.395 . S
C42 C44 1.320 . S
C43 C41 1.339 . S
C43 C42 1.395 . S
C43 H69 0.929 . S
C44 C42 1.320 . S
C44 C45 1.405 . S
C44 H70 0.930 . S
C45 C40 1.479 . S
C45 C44 1.405 . S
C45 H71 0.931 . S
U46 O47 2.454 . S
U46 O48 2.458 . S
U46 C49 2.984 . S
U46 C50 2.847 . S
U46 C63 2.882 . S
U46 O64 2.441 . S
U46 O65 2.420 . S
U46 O66 2.455 . S
U46 O67 2.449 . S
O47 U46 2.454 . S
O47 C49 1.353 . S
O48 U46 2.458 . S
O48 C49 1.286 . S
C49 U46 2.984 . S
C49 O47 1.353 . S
C49 O48 1.286 . S
C49 C51 1.363 . S
C50 C40 1.465 . S
C50 U46 2.847 . S
C50 O64 1.249 . S
C50 O65 1.202 . S
C51 C49 1.363 . S
C51 C53 1.408 . S
C51 C56 1.342 . S
C52 C53 1.310 . S
C52 C55 1.461 . S
C52 H72 0.932 . S
C53 C51 1.408 . S
C53 C52 1.310 . S
C53 H73 0.930 . S
C54 C55 1.474 . S
C54 C56 1.285 . S
C54 H74 0.929 . S
C55 C52 1.461 . S
C55 C54 1.474 . S
C56 C51 1.342 . S
C56 C54 1.285 . S
C56 H75 0.930 . S
C57 C60 1.424 . S
C57 C62 1.245 . S
C57 C63 1.428 . S
C58 C61 1.260 . S
C58 C62 1.477 . S
C58 H76 0.932 . S
C59 C60 1.384 . S
C59 C61 1.479 . S
C59 H77 0.929 . S
C60 C57 1.424 . S
C60 C59 1.384 . S
C60 H78 0.928 . S
C61 C58 1.260 . S
C61 C59 1.479 . S
C62 C57 1.245 . S
C62 C58 1.477 . S
C62 H79 0.932 . S
C63 U46 2.882 . S
C63 C57 1.428 . S
C63 O66 1.301 . S
C63 O67 1.282 . S
O64 U46 2.441 . S
O64 C50 1.249 . S
O65 U46 2.420 . S
O65 C50 1.202 . S
O66 U46 2.455 . S
O66 C63 1.301 . S
O67 U46 2.449 . S
O67 C63 1.282 . S
H68 C41 0.931 . S
H69 C43 0.929 . S
H70 C44 0.930 . S
H71 C45 0.931 . S
H72 C52 0.932 . S
H73 C53 0.930 . S
H74 C54 0.929 . S
H75 C56 0.930 . S
H76 C58 0.932 . S
H77 C59 0.929 . S
H78 C60 0.928 . S
H79 C62 0.932 . S
C80 C81 1.264 . S
C80 C85 1.479 . S
C80 C90 1.465 . S
C81 C80 1.264 . S
C81 C83 1.339 . S
C81 H108 0.931 . S
C82 C83 1.395 . S
C82 C84 1.320 . S
C83 C81 1.339 . S
C83 C82 1.395 . S
C83 H109 0.929 . S
C84 C82 1.320 . S
C84 C85 1.405 . S
C84 H110 0.930 . S
C85 C80 1.479 . S
C85 C84 1.405 . S
C85 H111 0.931 . S
U86 O87 2.454 . S
U86 O88 2.456 1_554 S
U86 C89 2.984 . S
U86 C90 2.847 . S
U86 C103 2.882 1_554 S
U86 O104 2.441 . S
U86 O105 2.420 . S
U86 O106 2.455 1_554 S
U86 O107 2.449 . S
O87 U86 2.454 . S
O87 C89 1.353 . S
O88 U86 2.456 1_556 S
O88 C89 1.280 1_556 S
C89 U86 2.984 . S
C89 O87 1.353 . S
C89 O88 1.280 1_554 S
C89 C91 1.363 . S
C90 C80 1.465 . S
C90 U86 2.847 . S
C90 O104 1.249 . S
C90 O105 1.202 . S
C91 C89 1.363 . S
C91 C93 1.408 . S
C91 C96 1.342 1_554 S
C92 C93 1.310 . S
C92 C95 1.461 . S
C92 H112 0.932 . S
C93 C91 1.408 . S
C93 C92 1.310 . S
C93 H113 0.930 . S
C94 C95 1.474 1_556 S
C94 C96 1.285 . S
C94 H114 0.929 . S
C95 C92 1.461 . S
C95 C94 1.474 1_554 S
C96 C91 1.342 1_556 S
C96 C94 1.285 . S
C96 H115 0.930 . S
C97 C100 1.424 . S
C97 C102 1.245 . S
C97 C103 1.428 . S
C98 C101 1.260 . S
C98 C102 1.477 . S
C98 H116 0.932 . S
C99 C100 1.384 . S
C99 C101 1.479 . S
C99 H117 0.929 . S
C100 C97 1.424 . S
C100 C99 1.384 . S
C100 H118 0.928 . S
C101 C98 1.260 . S
C101 C99 1.479 . S
C102 C97 1.245 . S
C102 C98 1.477 . S
C102 H119 0.932 . S
C103 U86 2.882 1_556 S
C103 C97 1.428 . S
C103 O106 1.301 . S
C103 O107 1.282 1_556 S
O104 U86 2.441 . S
O104 C90 1.249 . S
O105 U86 2.420 . S
O105 C90 1.202 . S
O106 U86 2.455 1_556 S
O106 C103 1.301 . S
O107 U86 2.449 . S
O107 C103 1.282 1_554 S
H108 C81 0.931 . S
H109 C83 0.929 . S
H110 C84 0.930 . S
H111 C85 0.931 . S
H112 C92 0.932 . S
H113 C93 0.930 . S
H114 C94 0.929 . S
H115 C96 0.930 . S
H116 C98 0.932 . S
H117 C99 0.929 . S
H118 C100 0.928 . S
H119 C102 0.932 . S
C120 C121 1.264 . S
C120 C125 1.479 . S
C120 C130 1.465 . S
C121 C120 1.264 . S
C121 C123 1.339 . S
C121 H148 0.931 . S
C122 C123 1.395 . S
C122 C124 1.320 . S
C123 C121 1.339 . S
C123 C122 1.395 . S
C123 H149 0.929 . S
C124 C122 1.320 . S
C124 C125 1.405 . S
C124 H150 0.930 . S
C125 C120 1.479 . S
C125 C124 1.405 . S
C125 H151 0.931 . S
U126 O127 2.454 . S
U126 O128 2.458 . S
U126 C129 2.984 . S
U126 C130 2.847 . S
U126 C143 2.882 . S
U126 O144 2.441 . S
U126 O145 2.420 . S
U126 O146 2.455 . S
U126 O147 2.449 . S
O127 U126 2.454 . S
O127 C129 1.353 . S
O128 U126 2.458 . S
O128 C129 1.286 . S
C129 U126 2.984 . S
C129 O127 1.353 . S
C129 O128 1.286 . S
C129 C131 1.363 . S
C130 C120 1.465 . S
C130 U126 2.847 . S
C130 O144 1.249 . S
C130 O145 1.202 . S
C131 C129 1.363 . S
C131 C133 1.408 . S
C131 C136 1.342 . S
C132 C133 1.310 . S
C132 C135 1.461 . S
C132 H152 0.932 . S
C133 C131 1.408 . S
C133 C132 1.310 . S
C133 H153 0.930 . S
C134 C135 1.474 . S
C134 C136 1.285 . S
C134 H154 0.929 . S
C135 C132 1.461 . S
C135 C134 1.474 . S
C136 C131 1.342 . S
C136 C134 1.285 . S
C136 H155 0.930 . S
C137 C140 1.424 . S
C137 C142 1.245 . S
C137 C143 1.428 . S
C138 C141 1.260 . S
C138 C142 1.477 . S
C138 H156 0.932 . S
C139 C140 1.384 . S
C139 C141 1.479 . S
C139 H157 0.929 . S
C140 C137 1.424 . S
C140 C139 1.384 . S
C140 H158 0.928 . S
C141 C138 1.260 . S
C141 C139 1.479 . S
C142 C137 1.245 . S
C142 C138 1.477 . S
C142 H159 0.932 . S
C143 U126 2.882 . S
C143 C137 1.428 . S
C143 O146 1.301 . S
C143 O147 1.282 . S
O144 U126 2.441 . S
O144 C130 1.249 . S
O145 U126 2.420 . S
O145 C130 1.202 . S
O146 U126 2.455 . S
O146 C143 1.301 . S
O147 U126 2.449 . S
O147 C143 1.282 . S
H148 C121 0.931 . S
H149 C123 0.929 . S
H150 C124 0.930 . S
H151 C125 0.931 . S
H152 C132 0.932 . S
H153 C133 0.930 . S
H154 C134 0.929 . S
H155 C136 0.930 . S
H156 C138 0.932 . S
H157 C139 0.929 . S
H158 C140 0.928 . S
H159 C142 0.932 . S
Eu160 N189 2.600 . S
Eu160 N195 2.562 . S
Eu160 O204 2.462 . S
Eu160 O205 2.373 . S
Eu160 O207 2.432 . S
Eu160 O208 2.291 1_565 S
Eu160 O212 2.353 1_455 S
Eu160 O215 2.372 1_455 S
Eu160 C224 2.787 . S
C161 N162 1.365 . S
C161 C164 1.405 . S
C161 C168 1.448 . S
N162 C161 1.365 . S
N162 C165 1.319 1_655 S
N162 Eu171 2.600 . S
C163 C165 1.398 1_655 S
C163 C166 1.382 . S
C163 H183 0.916 1_655 S
C164 C161 1.405 . S
C164 C166 1.403 . S
C164 C170 1.439 . S
C165 N162 1.319 1_455 S
C165 C163 1.398 1_455 S
C165 H176 0.930 . S
C166 C163 1.382 . S
C166 C164 1.403 . S
C166 H187 0.929 . S
C167 C168 1.430 . S
C167 C169 1.387 . S
C167 C173 1.404 . S
C168 C161 1.448 . S
C168 C167 1.430 . S
C168 N172 1.351 . S
C169 C167 1.387 . S
C169 C170 1.374 . S
C169 H184 0.931 . S
C170 C164 1.439 . S
C170 C169 1.374 . S
C170 H185 0.931 . S
Eu171 N162 2.600 . S
Eu171 N172 2.562 . S
Eu171 O206 2.335 1_655 S
Eu171 O209 2.372 1_655 S
Eu171 O210 2.462 . S
Eu171 O211 2.373 . S
Eu171 O213 2.432 . S
Eu171 O214 2.291 1_545 S
Eu171 C235 2.787 . S
N172 C168 1.351 . S
N172 Eu171 2.562 . S
N172 C174 1.325 . S
C173 C167 1.404 . S
C173 C175 1.366 . S
C173 H181 0.930 . S
C174 N172 1.325 . S
C174 C175 1.416 . S
C174 H180 0.929 . S
C175 C173 1.366 . S
C175 C174 1.416 . S
C175 H177 0.930 . S
H176 C165 0.930 . S
H177 C175 0.930 . S
H178 C193 0.930 1_655 S
H179 C200 0.930 . S
H180 C174 0.929 . S
H181 C173 0.930 . S
H182 C196 0.929 . S
H183 C163 0.916 1_455 S
H184 C169 0.931 . S
H185 C170 0.931 . S
H186 C191 0.931 1_655 S
H187 C166 0.929 . S
H188 C199 0.930 . S
N189 Eu160 2.600 . S
N189 C190 1.365 . S
N189 C193 1.319 . S
C190 N189 1.365 . S
C190 C192 1.405 . S
C190 C198 1.448 . S
C191 H186 0.931 1_455 S
C191 C193 1.397 . S
C191 C194 1.367 . S
C192 C190 1.405 . S
C192 C194 1.403 . S
C192 C225 1.439 . S
C193 H178 0.930 1_455 S
C193 N189 1.319 . S
C193 C191 1.397 . S
C194 C191 1.367 . S
C194 C192 1.403 . S
C194 H201 0.929 . S
N195 Eu160 2.562 . S
N195 C196 1.325 . S
N195 C198 1.351 . S
C196 H182 0.929 . S
C196 N195 1.325 . S
C196 C200 1.416 . S
C197 C198 1.430 . S
C197 C199 1.404 . S
C197 C226 1.387 . S
C198 C190 1.448 . S
C198 N195 1.351 . S
C198 C197 1.430 . S
C199 H188 0.930 . S
C199 C197 1.404 . S
C199 C200 1.366 . S
C200 H179 0.930 . S
C200 C196 1.416 . S
C200 C199 1.366 . S
H201 C194 0.929 . S
H202 C225 0.931 . S
H203 C226 0.931 . S
O204 Eu160 2.462 . S
O204 C224 1.252 . S
O205 Eu160 2.373 . S
O205 C216 1.249 . S
O206 Eu171 2.335 1_455 S
O206 C216 1.264 1_545 S
O207 Eu160 2.432 . S
O207 C224 1.268 . S
O208 Eu160 2.291 1_545 S
O208 C223 1.255 . S
O209 Eu171 2.372 1_455 S
O209 C223 1.257 . S
O210 Eu171 2.462 . S
O210 C235 1.252 . S
O211 Eu171 2.373 . S
O211 C227 1.249 . S
O212 Eu160 2.353 1_655 S
O212 C227 1.235 1_565 S
O213 Eu171 2.432 . S
O213 C235 1.268 . S
O214 Eu171 2.291 1_565 S
O214 C234 1.255 . S
O215 Eu160 2.372 1_655 S
O215 C234 1.257 . S
C216 O205 1.249 . S
C216 O206 1.264 1_565 S
C217 C220 1.382 . S
C217 C222 1.390 . S
C217 C224 1.506 . S
C218 C219 1.398 . S
C218 C222 1.392 . S
C219 C218 1.398 . S
C219 C221 1.372 . S
C219 H236 0.931 . S
C220 C217 1.382 . S
C220 C221 1.390 . S
C220 H237 0.931 . S
C221 C219 1.372 . S
C221 C220 1.390 . S
C221 H238 0.929 . S
C222 C217 1.390 . S
C222 C218 1.392 . S
C222 H239 0.930 . S
C223 O208 1.255 . S
C223 O209 1.257 . S
C224 Eu160 2.787 . S
C224 O204 1.252 . S
C224 O207 1.268 . S
C224 C217 1.506 . S
C225 C192 1.439 . S
C225 H202 0.931 . S
C225 C226 1.374 . S
C226 C197 1.387 . S
C226 H203 0.931 . S
C226 C225 1.374 . S
C227 O211 1.249 . S
C227 O212 1.235 1_545 S
C228 C231 1.382 . S
C228 C232 1.390 . S
C228 C235 1.506 . S
C229 C230 1.398 . S
C229 C232 1.392 . S
C230 C229 1.398 . S
C230 C233 1.372 . S
C230 H240 0.931 . S
C231 C228 1.382 . S
C231 C233 1.390 . S
C231 H241 0.931 . S
C232 C228 1.390 . S
C232 C229 1.392 . S
C232 H242 0.930 . S
C233 C230 1.372 . S
C233 C231 1.390 . S
C233 H243 0.929 . S
C234 O214 1.255 . S
C234 O215 1.257 . S
C235 Eu171 2.787 . S
C235 O210 1.252 . S
C235 O213 1.268 . S
C235 C228 1.506 . S
H236 C219 0.931 . S
H237 C220 0.931 . S
H238 C221 0.929 . S
H239 C222 0.930 . S
H240 C230 0.931 . S
H241 C231 0.931 . S
H242 C232 0.930 . S
H243 C233 0.929 . S
Eu244 N273 2.600 . S
Eu244 N279 2.562 1_556 S
Eu244 O288 2.462 . S
Eu244 O289 2.373 1_556 S
Eu244 O291 2.432 . S
Eu244 O292 2.291 1_556 S
Eu244 O296 2.335 . S
Eu244 O299 2.372 . S
Eu244 C308 2.787 . S
C245 N246 1.365 . S
C245 C248 1.405 . S
C245 C252 1.448 . S
N246 C245 1.365 . S
N246 C249 1.319 . S
N246 Eu255 2.600 . S
C247 C249 1.397 . S
C247 C250 1.367 . S
C247 H267 0.931 . S
C248 C245 1.405 . S
C248 C250 1.403 . S
C248 C254 1.439 . S
C249 N246 1.319 . S
C249 C247 1.397 . S
C249 H260 0.930 . S
C250 C247 1.367 . S
C250 C248 1.403 . S
C250 H271 0.929 . S
C251 C252 1.430 . S
C251 C253 1.387 . S
C251 C257 1.404 . S
C252 C245 1.448 . S
C252 C251 1.430 . S
C252 N256 1.351 . S
C253 C251 1.387 . S
C253 C254 1.374 . S
C253 H268 0.931 . S
C254 C248 1.439 . S
C254 C253 1.374 . S
C254 H269 0.931 . S
Eu255 N246 2.600 . S
Eu255 N256 2.562 . S
Eu255 O290 2.335 . S
Eu255 O293 2.372 . S
Eu255 O294 2.462 . S
Eu255 O295 2.373 1_554 S
Eu255 O297 2.432 . S
Eu255 O298 2.291 . S
Eu255 C319 2.787 . S
N256 C252 1.351 . S
N256 Eu255 2.562 . S
N256 C258 1.325 . S
C257 C251 1.404 . S
C257 C259 1.366 . S
C257 H265 0.930 . S
C258 N256 1.325 . S
C258 C259 1.416 . S
C258 H264 0.929 . S
C259 C257 1.366 . S
C259 C258 1.416 . S
C259 H261 0.930 . S
H260 C249 0.930 . S
H261 C259 0.930 . S
H262 C277 0.930 . S
H263 C284 0.930 . S
H264 C258 0.929 . S
H265 C257 0.930 . S
H266 C280 0.929 . S
H267 C247 0.931 . S
H268 C253 0.931 . S
H269 C254 0.931 . S
H270 C275 0.931 . S
H271 C250 0.929 . S
H272 C283 0.930 . S
N273 Eu244 2.600 . S
N273 C274 1.365 1_556 S
N273 C277 1.319 . S
C274 N273 1.365 1_554 S
C274 C276 1.405 . S
C274 C282 1.448 . S
C275 H270 0.931 . S
C275 C277 1.397 . S
C275 C278 1.367 1_556 S
C276 C274 1.405 . S
C276 C278 1.403 . S
C276 C309 1.439 . S
C277 H262 0.930 . S
C277 N273 1.319 . S
C277 C275 1.397 . S
C278 C275 1.367 1_554 S
C278 C276 1.403 . S
C278 H285 0.929 . S
N279 Eu244 2.562 1_554 S
N279 C280 1.325 . S
N279 C282 1.351 . S
C280 H266 0.929 . S
C280 N279 1.325 . S
C280 C284 1.416 . S
C281 C282 1.430 . S
C281 C283 1.404 . S
C281 C310 1.387 . S
C282 C274 1.448 . S
C282 N279 1.351 . S
C282 C281 1.430 . S
C283 H272 0.930 . S
C283 C281 1.404 . S
C283 C284 1.366 . S
C284 H263 0.930 . S
C284 C280 1.416 . S
C284 C283 1.366 . S
H285 C278 0.929 . S
H286 C309 0.931 . S
H287 C310 0.931 . S
O288 Eu244 2.462 . S
O288 C308 1.252 . S
O289 Eu244 2.373 1_554 S
O289 C300 1.249 . S
O290 Eu255 2.335 . S
O290 C300 1.264 . S
O291 Eu244 2.432 . S
O291 C308 1.268 . S
O292 Eu244 2.291 1_554 S
O292 C307 1.255 . S
O293 Eu255 2.372 . S
O293 C307 1.257 . S
O294 Eu255 2.462 . S
O294 C319 1.252 . S
O295 Eu255 2.373 1_556 S
O295 C311 1.249 . S
O296 Eu244 2.335 . S
O296 C311 1.264 . S
O297 Eu255 2.432 . S
O297 C319 1.268 . S
O298 Eu255 2.291 . S
O298 C318 1.255 . S
O299 Eu244 2.372 . S
O299 C318 1.257 1_556 S
C300 O289 1.249 . S
C300 O290 1.264 . S
C301 C304 1.382 . S
C301 C306 1.390 . S
C301 C308 1.506 . S
C302 C303 1.398 . S
C302 C306 1.392 . S
C303 C302 1.398 . S
C303 C305 1.372 . S
C303 H320 0.931 . S
C304 C301 1.382 . S
C304 C305 1.390 . S
C304 H321 0.931 . S
C305 C303 1.372 . S
C305 C304 1.390 . S
C305 H322 0.929 . S
C306 C301 1.390 . S
C306 C302 1.392 . S
C306 H323 0.930 . S
C307 O292 1.255 . S
C307 O293 1.257 . S
C308 Eu244 2.787 . S
C308 O288 1.252 . S
C308 O291 1.268 . S
C308 C301 1.506 . S
C309 C276 1.439 . S
C309 H286 0.931 . S
C309 C310 1.374 . S
C310 C281 1.387 . S
C310 H287 0.931 . S
C310 C309 1.374 . S
C311 O295 1.249 . S
C311 O296 1.264 . S
C312 C315 1.382 . S
C312 C316 1.390 . S
C312 C319 1.506 . S
C313 C314 1.398 . S
C313 C316 1.392 . S
C314 C313 1.398 . S
C314 C317 1.372 . S
C314 H324 0.931 . S
C315 C312 1.382 . S
C315 C317 1.390 . S
C315 H325 0.931 . S
C316 C312 1.390 . S
C316 C313 1.392 . S
C316 H326 0.930 . S
C317 C314 1.372 . S
C317 C315 1.390 . S
C317 H327 0.929 . S
C318 O298 1.255 . S
C318 O299 1.257 1_554 S
C319 Eu255 2.787 . S
C319 O294 1.252 . S
C319 O297 1.268 . S
C319 C312 1.506 . S
H320 C303 0.931 . S
H321 C304 0.931 . S
H322 C305 0.929 . S
H323 C306 0.930 . S
H324 C314 0.931 . S
H325 C315 0.931 . S
H326 C316 0.930 . S
H327 C317 0.929 . S
C328 C329 1.391 . S
C328 C330 1.394 . S
C328 H344 0.931 . S
C329 C328 1.391 . S
C329 C333 1.376 . S
C330 C328 1.394 . S
C330 C331 1.369 . S
C330 C334 1.531 . S
C331 C330 1.369 . S
C331 C332 1.410 . S
C331 C339 1.503 . S
C332 C331 1.410 . S
C332 C333 1.392 . S
C332 C335 1.511 . S
C333 C329 1.376 . S
C333 C332 1.392 . S
C333 H345 0.929 . S
C334 C330 1.531 . S
C334 H346 0.960 . S
C334 H347 0.962 . S
C334 H348 0.960 . S
C335 C332 1.511 . S
C335 H349 0.961 . S
C335 H350 0.961 . S
C335 H351 0.961 . S
C336 C337 1.370 . S
C336 C338 1.363 . S
C336 H352 0.931 . S
C337 C336 1.370 . S
C337 C341 1.408 . S
C338 C336 1.363 . S
C338 C339 1.370 . S
C338 C342 1.524 . S
C339 C331 1.503 . S
C339 C338 1.370 . S
C339 C340 1.403 . S
C340 C339 1.403 . S
C340 C341 1.404 . S
C340 C343 1.539 . S
C341 C337 1.408 . S
C341 C340 1.404 . S
C341 H353 0.930 . S
C342 C338 1.524 . S
C342 H354 0.956 . S
C342 H355 0.961 . S
C342 H356 0.961 . S
C343 C340 1.539 . S
C343 H357 0.958 . S
C343 H358 0.961 . S
C343 H359 0.960 . S
H344 C328 0.931 . S
H345 C333 0.929 . S
H346 C334 0.960 . S
H347 C334 0.962 . S
H348 C334 0.960 . S
H349 C335 0.961 . S
H350 C335 0.961 . S
H351 C335 0.961 . S
H352 C336 0.931 . S
H353 C341 0.930 . S
H354 C342 0.956 . S
H355 C342 0.961 . S
H356 C342 0.961 . S
H357 C343 0.958 . S
H358 C343 0.961 . S
H359 C343 0.960 . S
C360 C361 1.391 . S
C360 C362 1.394 . S
C360 H376 0.931 . S
C361 C360 1.391 . S
C361 C365 1.376 . S
C362 C360 1.394 . S
C362 C363 1.369 . S
C362 C366 1.531 . S
C363 C362 1.369 . S
C363 C364 1.410 . S
C363 C371 1.503 . S
C364 C363 1.410 . S
C364 C365 1.392 . S
C364 C367 1.511 . S
C365 C361 1.376 . S
C365 C364 1.392 . S
C365 H377 0.929 . S
C366 C362 1.531 . S
C366 H378 0.960 . S
C366 H379 0.962 . S
C366 H380 0.960 . S
C367 C364 1.511 . S
C367 H381 0.961 . S
C367 H382 0.961 . S
C367 H383 0.961 1_554 S
C368 C369 1.370 . S
C368 C370 1.363 . S
C368 H384 0.931 . S
C369 C368 1.370 . S
C369 C373 1.408 1_554 S
C370 C368 1.363 . S
C370 C371 1.370 . S
C370 C374 1.524 . S
C371 C363 1.503 . S
C371 C370 1.370 . S
C371 C372 1.403 1_554 S
C372 C371 1.403 1_556 S
C372 C373 1.404 . S
C372 C375 1.539 . S
C373 C369 1.408 1_556 S
C373 C372 1.404 . S
C373 H385 0.930 . S
C374 C370 1.524 . S
C374 H386 0.956 . S
C374 H387 0.961 . S
C374 H388 0.961 . S
C375 C372 1.539 . S
C375 H389 0.958 . S
C375 H390 0.961 . S
C375 H391 0.960 . S
H376 C360 0.931 . S
H377 C365 0.929 . S
H378 C366 0.960 . S
H379 C366 0.962 . S
H380 C366 0.960 . S
H381 C367 0.961 . S
H382 C367 0.961 . S
H383 C367 0.961 1_556 S
H384 C368 0.931 . S
H385 C373 0.930 . S
H386 C374 0.956 . S
H387 C374 0.961 . S
H388 C374 0.961 . S
H389 C375 0.958 . S
H390 C375 0.961 . S
H391 C375 0.960 . S
C392 C393 1.391 . S
C392 C394 1.394 . S
C392 H408 0.931 . S
C393 C392 1.391 . S
C393 C397 1.376 . S
C394 C392 1.394 . S
C394 C395 1.369 . S
C394 C398 1.531 . S
C395 C394 1.369 . S
C395 C396 1.410 . S
C395 C403 1.503 . S
C396 C395 1.410 . S
C396 C397 1.392 . S
C396 C399 1.511 . S
C397 C393 1.376 . S
C397 C396 1.392 . S
C397 H409 0.929 . S
C398 C394 1.531 . S
C398 H410 0.960 . S
C398 H411 0.962 . S
C398 H412 0.960 . S
C399 C396 1.511 . S
C399 H413 0.961 . S
C399 H414 0.961 . S
C399 H415 0.961 . S
C400 C401 1.370 . S
C400 C402 1.363 . S
C400 H416 0.931 . S
C401 C400 1.370 . S
C401 C405 1.408 . S
C402 C400 1.363 . S
C402 C403 1.370 . S
C402 C406 1.524 . S
C403 C395 1.503 . S
C403 C402 1.370 . S
C403 C404 1.403 . S
C404 C403 1.403 . S
C404 C405 1.404 . S
C404 C407 1.539 . S
C405 C401 1.408 . S
C405 C404 1.404 . S
C405 H417 0.930 . S
C406 C402 1.524 . S
C406 H418 0.956 . S
C406 H419 0.961 . S
C406 H420 0.961 . S
C407 C404 1.539 . S
C407 H421 0.958 . S
C407 H422 0.961 . S
C407 H423 0.960 . S
H408 C392 0.931 . S
H409 C397 0.929 . S
H410 C398 0.960 . S
H411 C398 0.962 . S
H412 C398 0.960 . S
H413 C399 0.961 . S
H414 C399 0.961 . S
H415 C399 0.961 . S
H416 C400 0.931 . S
H417 C405 0.930 . S
H418 C406 0.956 . S
H419 C406 0.961 . S
H420 C406 0.961 . S
H421 C407 0.958 . S
H422 C407 0.961 . S
H423 C407 0.960 . S
C424 C425 1.392 . S
C424 C426 1.399 . S
C424 H440 0.920 1_554 S
C425 C424 1.392 . S
C425 C429 1.376 . S
C426 C424 1.399 . S
C426 C427 1.369 . S
C426 C430 1.531 1_554 S
C427 C426 1.369 . S
C427 C428 1.410 . S
C427 C435 1.503 . S
C428 C427 1.410 . S
C428 C429 1.392 . S
C428 C431 1.511 . S
C429 C425 1.376 . S
C429 C428 1.392 . S
C429 H441 0.929 . S
C430 C426 1.531 1_556 S
C430 H442 0.963 . S
C430 H443 0.952 1_556 S
C430 H444 0.968 . S
C431 C428 1.511 . S
C431 H445 0.961 . S
C431 H446 0.961 . S
C431 H447 0.961 1_554 S
C432 C433 1.370 . S
C432 C434 1.363 . S
C432 H448 0.931 . S
C433 C432 1.370 . S
C433 C437 1.408 1_554 S
C434 C432 1.363 . S
C434 C435 1.370 . S
C434 C438 1.524 . S
C435 C427 1.503 . S
C435 C434 1.370 . S
C435 C436 1.403 1_554 S
C436 C435 1.403 1_556 S
C436 C437 1.404 . S
C436 C439 1.539 . S
C437 C433 1.408 1_556 S
C437 C436 1.404 . S
C437 H449 0.930 . S
C438 C434 1.524 . S
C438 H450 0.956 . S
C438 H451 0.961 . S
C438 H452 0.961 . S
C439 C436 1.539 . S
C439 H453 0.958 . S
C439 H454 0.961 . S
C439 H455 0.960 . S
H440 C424 0.920 1_556 S
H441 C429 0.929 . S
H442 C430 0.963 . S
H443 C430 0.952 1_554 S
H444 C430 0.968 . S
H445 C431 0.961 . S
H446 C431 0.961 . S
H447 C431 0.961 1_556 S
H448 C432 0.931 . S
H449 C437 0.930 . S
H450 C438 0.956 . S
H451 C438 0.961 . S
H452 C438 0.961 . S
H453 C439 0.958 . S
H454 C439 0.961 . S
H455 C439 0.960 . S
C456 C457 1.391 . S
C456 C458 1.394 . S
C456 H472 0.931 . S
C457 C456 1.391 . S
C457 C461 1.376 . S
C458 C456 1.394 . S
C458 C459 1.369 . S
C458 C462 1.531 . S
C459 C458 1.369 . S
C459 C460 1.410 . S
C459 C467 1.503 . S
C460 C459 1.410 . S
C460 C461 1.392 . S
C460 C463 1.511 . S
C461 C457 1.376 . S
C461 C460 1.392 . S
C461 H473 0.929 . S
C462 C458 1.531 . S
C462 H474 0.960 . S
C462 H475 0.962 . S
C462 H476 0.960 . S
C463 C460 1.511 . S
C463 H477 0.961 . S
C463 H478 0.961 . S
C463 H479 0.961 . S
C464 C465 1.370 . S
C464 C466 1.363 . S
C464 H480 0.931 . S
C465 C464 1.370 . S
C465 C469 1.408 . S
C466 C464 1.363 . S
C466 C467 1.370 . S
C466 C470 1.524 . S
C467 C459 1.503 . S
C467 C466 1.370 . S
C467 C468 1.403 . S
C468 C467 1.403 . S
C468 C469 1.404 . S
C468 C471 1.539 1_565 S
C469 C465 1.408 . S
C469 C468 1.404 . S
C469 H481 0.930 1_565 S
C470 C466 1.524 . S
C470 H482 0.956 . S
C470 H483 0.961 . S
C470 H484 0.961 . S
C471 C468 1.539 1_545 S
C471 H485 0.958 . S
C471 H486 0.961 . S
C471 H487 0.960 1_545 S
H472 C456 0.931 . S
H473 C461 0.929 . S
H474 C462 0.960 . S
H475 C462 0.962 . S
H476 C462 0.960 . S
H477 C463 0.961 . S
H478 C463 0.961 . S
H479 C463 0.961 . S
H480 C464 0.931 . S
H481 C469 0.930 1_545 S
H482 C470 0.956 . S
H483 C470 0.961 . S
H484 C470 0.961 . S
H485 C471 0.958 . S
H486 C471 0.961 . S
H487 C471 0.960 1_565 S
C488 C489 1.391 . S
C488 C490 1.394 . S
C488 H504 0.931 . S
C489 C488 1.391 . S
C489 C493 1.376 . S
C490 C488 1.394 . S
C490 C491 1.369 . S
C490 C494 1.531 . S
C491 C490 1.369 . S
C491 C492 1.410 . S
C491 C499 1.503 . S
C492 C491 1.410 . S
C492 C493 1.392 . S
C492 C495 1.511 . S
C493 C489 1.376 . S
C493 C492 1.392 . S
C493 H505 0.929 . S
C494 C490 1.531 . S
C494 H506 0.960 . S
C494 H507 0.962 . S
C494 H508 0.960 . S
C495 C492 1.511 . S
C495 H509 0.961 . S
C495 H510 0.961 . S
C495 H511 0.961 . S
C496 C497 1.370 . S
C496 C498 1.363 . S
C496 H512 0.931 . S
C497 C496 1.370 . S
C497 C501 1.408 . S
C498 C496 1.363 . S
C498 C499 1.370 . S
C498 C502 1.524 . S
C499 C491 1.503 . S
C499 C498 1.370 . S
C499 C500 1.403 . S
C500 C499 1.403 . S
C500 C501 1.404 . S
C500 C503 1.539 . S
C501 C497 1.408 . S
C501 C500 1.404 . S
C501 H513 0.930 . S
C502 C498 1.524 . S
C502 H514 0.956 . S
C502 H515 0.961 . S
C502 H516 0.961 . S
C503 C500 1.539 . S
C503 H517 0.958 . S
C503 H518 0.961 . S
C503 H519 0.960 . S
H504 C488 0.931 . S
H505 C493 0.929 . S
H506 C494 0.960 . S
H507 C494 0.962 . S
H508 C494 0.960 . S
H509 C495 0.961 . S
H510 C495 0.961 . S
H511 C495 0.961 . S
H512 C496 0.931 . S
H513 C501 0.930 . S
H514 C502 0.956 . S
H515 C502 0.961 . S
H516 C502 0.961 . S
H517 C503 0.958 . S
H518 C503 0.961 . S
H519 C503 0.960 . S
C520 C521 1.391 . S
C520 C522 1.394 . S
C520 H536 0.931 . S
C521 C520 1.391 . S
C521 C525 1.376 . S
C522 C520 1.394 . S
C522 C523 1.369 . S
C522 C526 1.531 . S
C523 C522 1.369 . S
C523 C524 1.410 . S
C523 C531 1.503 . S
C524 C523 1.410 . S
C524 C525 1.392 . S
C524 C527 1.511 . S
C525 C521 1.376 . S
C525 C524 1.392 . S
C525 H537 0.929 . S
C526 C522 1.531 . S
C526 H538 0.946 1_545 S
C526 H539 0.962 . S
C526 H540 0.960 1_545 S
C527 C524 1.511 . S
C527 H541 0.961 . S
C527 H542 0.961 . S
C527 H543 0.961 . S
C528 C529 1.370 . S
C528 C530 1.363 . S
C528 H544 0.931 . S
C529 C528 1.370 . S
C529 C533 1.408 . S
C530 C528 1.363 . S
C530 C531 1.370 . S
C530 C534 1.524 . S
C531 C523 1.503 . S
C531 C530 1.370 . S
C531 C532 1.403 . S
C532 C531 1.403 . S
C532 C533 1.404 . S
C532 C535 1.539 1_545 S
C533 C529 1.408 . S
C533 C532 1.404 . S
C533 H545 0.930 1_545 S
C534 C530 1.524 . S
C534 H546 0.956 . S
C534 H547 0.961 . S
C534 H548 0.961 . S
C535 C532 1.539 1_565 S
C535 H549 0.958 . S
C535 H550 0.961 . S
C535 H551 0.960 . S
H536 C520 0.931 . S
H537 C525 0.929 . S
H538 C526 0.946 1_565 S
H539 C526 0.962 . S
H540 C526 0.960 1_565 S
H541 C527 0.961 . S
H542 C527 0.961 . S
H543 C527 0.961 . S
H544 C528 0.931 . S
H545 C533 0.930 1_565 S
H546 C534 0.956 . S
H547 C534 0.961 . S
H548 C534 0.961 . S
H549 C535 0.958 . S
H550 C535 0.961 . S
H551 C535 0.960 . S
C552 C553 1.391 . S
C552 C554 1.394 . S
C552 H568 0.931 . S
C553 C552 1.391 . S
C553 C557 1.376 . S
C554 C552 1.394 . S
C554 C555 1.369 . S
C554 C558 1.531 . S
C555 C554 1.369 . S
C555 C556 1.410 . S
C555 C563 1.503 . S
C556 C555 1.410 . S
C556 C557 1.392 . S
C556 C559 1.511 . S
C557 C553 1.376 . S
C557 C556 1.392 . S
C557 H569 0.929 . S
C558 C554 1.531 . S
C558 H570 0.960 . S
C558 H571 0.962 . S
C558 H572 0.960 . S
C559 C556 1.511 . S
C559 H573 0.961 . S
C559 H574 0.961 . S
C559 H575 0.961 . S
C560 C561 1.370 . S
C560 C562 1.363 . S
C560 H576 0.931 . S
C561 C560 1.370 . S
C561 C565 1.408 . S
C562 C560 1.363 . S
C562 C563 1.370 . S
C562 C566 1.524 . S
C563 C555 1.503 . S
C563 C562 1.370 . S
C563 C564 1.403 . S
C564 C563 1.403 . S
C564 C565 1.404 . S
C564 C567 1.539 . S
C565 C561 1.408 . S
C565 C564 1.404 . S
C565 H577 0.930 . S
C566 C562 1.524 . S
C566 H578 0.956 . S
C566 H579 0.961 . S
C566 H580 0.961 . S
C567 C564 1.539 . S
C567 H581 0.958 . S
C567 H582 0.961 . S
C567 H583 0.960 . S
H568 C552 0.931 . S
H569 C557 0.929 . S
H570 C558 0.960 . S
H571 C558 0.962 . S
H572 C558 0.960 . S
H573 C559 0.961 . S
H574 C559 0.961 . S
H575 C559 0.961 . S
H576 C560 0.931 . S
H577 C565 0.930 . S
H578 C566 0.956 . S
H579 C566 0.961 . S
H580 C566 0.961 . S
H581 C567 0.958 . S
H582 C567 0.961 . S
H583 C567 0.960 . S
C584 C585 1.391 . S
C584 C586 1.394 . S
C584 H600 0.931 . S
C585 C584 1.391 . S
C585 C589 1.376 . S
C586 C584 1.394 . S
C586 C587 1.369 . S
C586 C590 1.531 . S
C587 C586 1.369 . S
C587 C588 1.410 . S
C587 C595 1.503 . S
C588 C587 1.410 . S
C588 C589 1.392 . S
C588 C591 1.511 . S
C589 C585 1.376 . S
C589 C588 1.392 . S
C589 H601 0.929 . S
C590 C586 1.531 . S
C590 H602 0.960 . S
C590 H603 0.962 . S
C590 H604 0.960 . S
C591 C588 1.511 . S
C591 H605 0.961 . S
C591 H606 0.961 . S
C591 H607 0.961 . S
C592 C593 1.370 . S
C592 C594 1.363 . S
C592 H608 0.931 . S
C593 C592 1.370 . S
C593 C597 1.408 . S
C594 C592 1.363 . S
C594 C595 1.370 . S
C594 C598 1.524 . S
C595 C587 1.503 . S
C595 C594 1.370 . S
C595 C596 1.403 . S
C596 C595 1.403 . S
C596 C597 1.404 . S
C596 C599 1.539 . S
C597 C593 1.408 . S
C597 C596 1.404 . S
C597 H609 0.930 . S
C598 C594 1.524 . S
C598 H610 0.956 . S
C598 H611 0.961 . S
C598 H612 0.961 . S
C599 C596 1.539 . S
C599 H613 0.958 . S
C599 H614 0.961 . S
C599 H615 0.960 . S
H600 C584 0.931 . S
H601 C589 0.929 . S
H602 C590 0.960 . S
H603 C590 0.962 . S
H604 C590 0.960 . S
H605 C591 0.961 . S
H606 C591 0.961 . S
H607 C591 0.961 . S
H608 C592 0.931 . S
H609 C597 0.930 . S
H610 C598 0.956 . S
H611 C598 0.961 . S
H612 C598 0.961 . S
H613 C599 0.958 . S
H614 C599 0.961 . S
H615 C599 0.960 . S
C616 C617 1.391 . S
C616 C618 1.394 . S
C616 H632 0.931 . S
C617 C616 1.391 . S
C617 C621 1.376 . S
C618 C616 1.394 . S
C618 C619 1.369 . S
C618 C622 1.531 . S
C619 C618 1.369 . S
C619 C620 1.410 . S
C619 C627 1.503 . S
C620 C619 1.410 . S
C620 C621 1.392 . S
C620 C623 1.511 . S
C621 C617 1.376 . S
C621 C620 1.392 . S
C621 H633 0.929 . S
C622 C618 1.531 . S
C622 H634 0.960 . S
C622 H635 0.962 . S
C622 H636 0.960 . S
C623 C620 1.511 . S
C623 H637 0.961 . S
C623 H638 0.961 . S
C623 H639 0.961 . S
C624 C625 1.370 . S
C624 C626 1.363 . S
C624 H640 0.931 . S
C625 C624 1.370 . S
C625 C629 1.408 . S
C626 C624 1.363 . S
C626 C627 1.370 . S
C626 C630 1.524 . S
C627 C619 1.503 . S
C627 C626 1.370 . S
C627 C628 1.403 . S
C628 C627 1.403 . S
C628 C629 1.404 . S
C628 C631 1.539 . S
C629 C625 1.408 . S
C629 C628 1.404 . S
C629 H641 0.930 . S
C630 C626 1.524 . S
C630 H642 0.956 . S
C630 H643 0.961 . S
C630 H644 0.961 . S
C631 C628 1.539 . S
C631 H645 0.958 1_545 S
C631 H646 0.961 1_545 S
C631 H647 0.960 . S
H632 C616 0.931 . S
H633 C621 0.929 . S
H634 C622 0.960 . S
H635 C622 0.962 . S
H636 C622 0.960 . S
H637 C623 0.961 . S
H638 C623 0.961 . S
H639 C623 0.961 . S
H640 C624 0.931 . S
H641 C629 0.930 . S
H642 C630 0.956 . S
H643 C630 0.961 . S
H644 C630 0.961 . S
H645 C631 0.958 1_565 S
H646 C631 0.961 1_565 S
H647 C631 0.960 . S
C648 C649 1.391 . S
C648 C650 1.394 . S
C648 H664 0.931 . S
C649 C648 1.391 . S
C649 C653 1.376 . S
C650 C648 1.394 . S
C650 C651 1.369 . S
C650 C654 1.531 . S
C651 C650 1.369 . S
C651 C652 1.410 . S
C651 C659 1.503 . S
C652 C651 1.410 . S
C652 C653 1.392 . S
C652 C655 1.511 . S
C653 C649 1.376 . S
C653 C652 1.392 . S
C653 H665 0.929 . S
C654 C650 1.531 . S
C654 H666 0.960 . S
C654 H667 0.962 . S
C654 H668 0.960 . S
C655 C652 1.511 . S
C655 H669 0.961 . S
C655 H670 0.961 . S
C655 H671 0.961 . S
C656 C657 1.370 . S
C656 C658 1.363 . S
C656 H672 0.931 . S
C657 C656 1.370 . S
C657 C661 1.408 . S
C658 C656 1.363 . S
C658 C659 1.370 . S
C658 C662 1.524 . S
C659 C651 1.503 . S
C659 C658 1.370 . S
C659 C660 1.403 . S
C660 C659 1.403 . S
C660 C661 1.404 . S
C660 C663 1.539 . S
C661 C657 1.408 . S
C661 C660 1.404 . S
C661 H673 0.930 . S
C662 C658 1.524 . S
C662 H674 0.956 . S
C662 H675 0.961 . S
C662 H676 0.961 . S
C663 C660 1.539 . S
C663 H677 0.958 . S
C663 H678 0.961 . S
C663 H679 0.960 . S
H664 C648 0.931 . S
H665 C653 0.929 . S
H666 C654 0.960 . S
H667 C654 0.962 . S
H668 C654 0.960 . S
H669 C655 0.961 . S
H670 C655 0.961 . S
H671 C655 0.961 . S
H672 C656 0.931 . S
H673 C661 0.930 . S
H674 C662 0.956 . S
H675 C662 0.961 . S
H676 C662 0.961 . S
H677 C663 0.958 . S
H678 C663 0.961 . S
H679 C663 0.960 . S
C680 C681 1.391 . S
C680 C682 1.394 . S
C680 H696 0.931 . S
C681 C680 1.391 . S
C681 C685 1.376 . S
C682 C680 1.394 . S
C682 C683 1.369 . S
C682 C686 1.531 . S
C683 C682 1.369 . S
C683 C684 1.410 . S
C683 C691 1.503 . S
C684 C683 1.410 . S
C684 C685 1.392 . S
C684 C687 1.511 . S
C685 C681 1.376 . S
C685 C684 1.392 . S
C685 H697 0.929 . S
C686 C682 1.531 . S
C686 H698 0.960 . S
C686 H699 0.962 . S
C686 H700 0.960 . S
C687 C684 1.511 . S
C687 H701 0.961 . S
C687 H702 0.961 . S
C687 H703 0.961 . S
C688 C689 1.370 . S
C688 C690 1.363 . S
C688 H704 0.931 1_565 S
C689 C688 1.370 . S
C689 C693 1.408 . S
C690 C688 1.363 . S
C690 C691 1.370 . S
C690 C694 1.524 1_565 S
C691 C683 1.503 . S
C691 C690 1.370 . S
C691 C692 1.403 . S
C692 C691 1.403 . S
C692 C693 1.404 . S
C692 C695 1.539 . S
C693 C689 1.408 . S
C693 C692 1.404 . S
C693 H705 0.930 . S
C694 C690 1.524 1_545 S
C694 H706 0.956 . S
C694 H707 0.961 . S
C694 H708 0.961 . S
C695 C692 1.539 . S
C695 H709 0.958 . S
C695 H710 0.961 . S
C695 H711 0.960 . S
H696 C680 0.931 . S
H697 C685 0.929 . S
H698 C686 0.960 . S
H699 C686 0.962 . S
H700 C686 0.960 . S
H701 C687 0.961 . S
H702 C687 0.961 . S
H703 C687 0.961 . S
H704 C688 0.931 1_545 S
H705 C693 0.930 . S
H706 C694 0.956 . S
H707 C694 0.961 . S
H708 C694 0.961 . S
H709 C695 0.958 . S
H710 C695 0.961 . S
H711 C695 0.960 . S
C337 C223 1.676 . S
C329 C135 1.665 . S
C361 C15 1.634 . S
C369 C318 1.647 . S
C393 C55 1.662 . S
C401 C234 1.666 . S
C425 C95 1.669 . S
C433 C307 1.675 . S
C465 C218 1.436 . S
C457 C2 1.560 . S
C497 C311 1.622 . S
C489 C42 1.616 . S
C521 C82 1.631 . S
C529 C227 1.630 . S
C553 C141 1.514 . S
C561 C302 1.407 . S
C593 C313 1.419 . S
C585 C61 1.556 . S
C625 C229 1.471 . S
C617 C101 1.583 . S
C657 C300 1.648 . S
C649 C122 1.600 . S
C681 C21 1.652 . S
C689 C216 1.663 . S
