# Generated by pormake.
# Topology gar, (4,6)-cn, num edge types: 1
# Building blocks:
#     Node 0, Type 0, BuildingBlock: TATPOV_clean_sbu_0, # of connection points: 4
#     Node 1, Type 0, BuildingBlock: TATPOV_clean_sbu_0, # of connection points: 4
#     Node 2, Type 0, BuildingBlock: TATPOV_clean_sbu_0, # of connection points: 4
#     Node 3, Type 0, BuildingBlock: TATPOV_clean_sbu_0, # of connection points: 4
#     Node 4, Type 0, BuildingBlock: TATPOV_clean_sbu_0, # of connection points: 4
#     Node 5, Type 0, BuildingBlock: TATPOV_clean_sbu_0, # of connection points: 4
#     Node 6, Type 0, BuildingBlock: TATPOV_clean_sbu_0, # of connection points: 4
#     Node 7, Type 0, BuildingBlock: TATPOV_clean_sbu_0, # of connection points: 4
#     Node 8, Type 0, BuildingBlock: TATPOV_clean_sbu_0, # of connection points: 4
#     Node 9, Type 0, BuildingBlock: TATPOV_clean_sbu_0, # of connection points: 4
#     Node 10, Type 0, BuildingBlock: TATPOV_clean_sbu_0, # of connection points: 4
#     Node 11, Type 0, BuildingBlock: TATPOV_clean_sbu_0, # of connection points: 4
#     Node 12, Type 0, BuildingBlock: TATPOV_clean_sbu_0, # of connection points: 4
#     Node 13, Type 0, BuildingBlock: TATPOV_clean_sbu_0, # of connection points: 4
#     Node 14, Type 0, BuildingBlock: TATPOV_clean_sbu_0, # of connection points: 4
#     Node 15, Type 0, BuildingBlock: TATPOV_clean_sbu_0, # of connection points: 4
#     Node 16, Type 0, BuildingBlock: TATPOV_clean_sbu_0, # of connection points: 4
#     Node 17, Type 0, BuildingBlock: TATPOV_clean_sbu_0, # of connection points: 4
#     Node 18, Type 0, BuildingBlock: TATPOV_clean_sbu_0, # of connection points: 4
#     Node 19, Type 0, BuildingBlock: TATPOV_clean_sbu_0, # of connection points: 4
#     Node 20, Type 0, BuildingBlock: TATPOV_clean_sbu_0, # of connection points: 4
#     Node 21, Type 0, BuildingBlock: TATPOV_clean_sbu_0, # of connection points: 4
#     Node 22, Type 0, BuildingBlock: TATPOV_clean_sbu_0, # of connection points: 4
#     Node 23, Type 0, BuildingBlock: TATPOV_clean_sbu_0, # of connection points: 4
#     Node 24, Type 1, BuildingBlock: GEDQOX_clean_sbu_0, # of connection points: 6
#     Node 25, Type 1, BuildingBlock: GEDQOX_clean_sbu_0, # of connection points: 6
#     Node 26, Type 1, BuildingBlock: GEDQOX_clean_sbu_0, # of connection points: 6
#     Node 27, Type 1, BuildingBlock: GEDQOX_clean_sbu_0, # of connection points: 6
#     Node 28, Type 1, BuildingBlock: GEDQOX_clean_sbu_0, # of connection points: 6
#     Node 29, Type 1, BuildingBlock: GEDQOX_clean_sbu_0, # of connection points: 6
#     Node 30, Type 1, BuildingBlock: GEDQOX_clean_sbu_0, # of connection points: 6
#     Node 31, Type 1, BuildingBlock: GEDQOX_clean_sbu_0, # of connection points: 6
#     Node 32, Type 1, BuildingBlock: GEDQOX_clean_sbu_0, # of connection points: 6
#     Node 33, Type 1, BuildingBlock: GEDQOX_clean_sbu_0, # of connection points: 6
#     Node 34, Type 1, BuildingBlock: GEDQOX_clean_sbu_0, # of connection points: 6
#     Node 35, Type 1, BuildingBlock: GEDQOX_clean_sbu_0, # of connection points: 6
#     Node 36, Type 1, BuildingBlock: GEDQOX_clean_sbu_0, # of connection points: 6
#     Node 37, Type 1, BuildingBlock: GEDQOX_clean_sbu_0, # of connection points: 6
#     Node 38, Type 1, BuildingBlock: GEDQOX_clean_sbu_0, # of connection points: 6
#     Node 39, Type 1, BuildingBlock: GEDQOX_clean_sbu_0, # of connection points: 6
#     Edge 40, Type (0, 1), BuildingBlock: MIFKUJ_clean_linker_0, # of connection points: 2
#     Edge 41, Type (0, 1), BuildingBlock: MIFKUJ_clean_linker_0, # of connection points: 2
#     Edge 42, Type (0, 1), BuildingBlock: MIFKUJ_clean_linker_0, # of connection points: 2
#     Edge 43, Type (0, 1), BuildingBlock: MIFKUJ_clean_linker_0, # of connection points: 2
#     Edge 44, Type (0, 1), BuildingBlock: MIFKUJ_clean_linker_0, # of connection points: 2
#     Edge 45, Type (0, 1), BuildingBlock: MIFKUJ_clean_linker_0, # of connection points: 2
#     Edge 46, Type (0, 1), BuildingBlock: MIFKUJ_clean_linker_0, # of connection points: 2
#     Edge 47, Type (0, 1), BuildingBlock: MIFKUJ_clean_linker_0, # of connection points: 2
#     Edge 48, Type (0, 1), BuildingBlock: MIFKUJ_clean_linker_0, # of connection points: 2
#     Edge 49, Type (0, 1), BuildingBlock: MIFKUJ_clean_linker_0, # of connection points: 2
#     Edge 50, Type (0, 1), BuildingBlock: MIFKUJ_clean_linker_0, # of connection points: 2
#     Edge 51, Type (0, 1), BuildingBlock: MIFKUJ_clean_linker_0, # of connection points: 2
#     Edge 52, Type (0, 1), BuildingBlock: MIFKUJ_clean_linker_0, # of connection points: 2
#     Edge 53, Type (0, 1), BuildingBlock: MIFKUJ_clean_linker_0, # of connection points: 2
#     Edge 54, Type (0, 1), BuildingBlock: MIFKUJ_clean_linker_0, # of connection points: 2
#     Edge 55, Type (0, 1), BuildingBlock: MIFKUJ_clean_linker_0, # of connection points: 2
#     Edge 56, Type (0, 1), BuildingBlock: MIFKUJ_clean_linker_0, # of connection points: 2
#     Edge 57, Type (0, 1), BuildingBlock: MIFKUJ_clean_linker_0, # of connection points: 2
#     Edge 58, Type (0, 1), BuildingBlock: MIFKUJ_clean_linker_0, # of connection points: 2
#     Edge 59, Type (0, 1), BuildingBlock: MIFKUJ_clean_linker_0, # of connection points: 2
#     Edge 60, Type (0, 1), BuildingBlock: MIFKUJ_clean_linker_0, # of connection points: 2
#     Edge 61, Type (0, 1), BuildingBlock: MIFKUJ_clean_linker_0, # of connection points: 2
#     Edge 62, Type (0, 1), BuildingBlock: MIFKUJ_clean_linker_0, # of connection points: 2
#     Edge 63, Type (0, 1), BuildingBlock: MIFKUJ_clean_linker_0, # of connection points: 2
#     Edge 64, Type (0, 1), BuildingBlock: MIFKUJ_clean_linker_0, # of connection points: 2
#     Edge 65, Type (0, 1), BuildingBlock: MIFKUJ_clean_linker_0, # of connection points: 2
#     Edge 66, Type (0, 1), BuildingBlock: MIFKUJ_clean_linker_0, # of connection points: 2
#     Edge 67, Type (0, 1), BuildingBlock: MIFKUJ_clean_linker_0, # of connection points: 2
#     Edge 68, Type (0, 1), BuildingBlock: MIFKUJ_clean_linker_0, # of connection points: 2
#     Edge 69, Type (0, 1), BuildingBlock: MIFKUJ_clean_linker_0, # of connection points: 2
#     Edge 70, Type (0, 1), BuildingBlock: MIFKUJ_clean_linker_0, # of connection points: 2
#     Edge 71, Type (0, 1), BuildingBlock: MIFKUJ_clean_linker_0, # of connection points: 2
#     Edge 72, Type (0, 1), BuildingBlock: MIFKUJ_clean_linker_0, # of connection points: 2
#     Edge 73, Type (0, 1), BuildingBlock: MIFKUJ_clean_linker_0, # of connection points: 2
#     Edge 74, Type (0, 1), BuildingBlock: MIFKUJ_clean_linker_0, # of connection points: 2
#     Edge 75, Type (0, 1), BuildingBlock: MIFKUJ_clean_linker_0, # of connection points: 2
#     Edge 76, Type (0, 1), BuildingBlock: MIFKUJ_clean_linker_0, # of connection points: 2
#     Edge 77, Type (0, 1), BuildingBlock: MIFKUJ_clean_linker_0, # of connection points: 2
#     Edge 78, Type (0, 1), BuildingBlock: MIFKUJ_clean_linker_0, # of connection points: 2
#     Edge 79, Type (0, 1), BuildingBlock: MIFKUJ_clean_linker_0, # of connection points: 2
#     Edge 80, Type (0, 1), BuildingBlock: MIFKUJ_clean_linker_0, # of connection points: 2
#     Edge 81, Type (0, 1), BuildingBlock: MIFKUJ_clean_linker_0, # of connection points: 2
#     Edge 82, Type (0, 1), BuildingBlock: MIFKUJ_clean_linker_0, # of connection points: 2
#     Edge 83, Type (0, 1), BuildingBlock: MIFKUJ_clean_linker_0, # of connection points: 2
#     Edge 84, Type (0, 1), BuildingBlock: MIFKUJ_clean_linker_0, # of connection points: 2
#     Edge 85, Type (0, 1), BuildingBlock: MIFKUJ_clean_linker_0, # of connection points: 2
#     Edge 86, Type (0, 1), BuildingBlock: MIFKUJ_clean_linker_0, # of connection points: 2
#     Edge 87, Type (0, 1), BuildingBlock: MIFKUJ_clean_linker_0, # of connection points: 2
#     Edge 88, Type (0, 1), BuildingBlock: MIFKUJ_clean_linker_0, # of connection points: 2
#     Edge 89, Type (0, 1), BuildingBlock: MIFKUJ_clean_linker_0, # of connection points: 2
#     Edge 90, Type (0, 1), BuildingBlock: MIFKUJ_clean_linker_0, # of connection points: 2
#     Edge 91, Type (0, 1), BuildingBlock: MIFKUJ_clean_linker_0, # of connection points: 2
#     Edge 92, Type (0, 1), BuildingBlock: MIFKUJ_clean_linker_0, # of connection points: 2
#     Edge 93, Type (0, 1), BuildingBlock: MIFKUJ_clean_linker_0, # of connection points: 2
#     Edge 94, Type (0, 1), BuildingBlock: MIFKUJ_clean_linker_0, # of connection points: 2
#     Edge 95, Type (0, 1), BuildingBlock: MIFKUJ_clean_linker_0, # of connection points: 2
#     Edge 96, Type (0, 1), BuildingBlock: MIFKUJ_clean_linker_0, # of connection points: 2
#     Edge 97, Type (0, 1), BuildingBlock: MIFKUJ_clean_linker_0, # of connection points: 2
#     Edge 98, Type (0, 1), BuildingBlock: MIFKUJ_clean_linker_0, # of connection points: 2
#     Edge 99, Type (0, 1), BuildingBlock: MIFKUJ_clean_linker_0, # of connection points: 2
#     Edge 100, Type (0, 1), BuildingBlock: MIFKUJ_clean_linker_0, # of connection points: 2
#     Edge 101, Type (0, 1), BuildingBlock: MIFKUJ_clean_linker_0, # of connection points: 2
#     Edge 102, Type (0, 1), BuildingBlock: MIFKUJ_clean_linker_0, # of connection points: 2
#     Edge 103, Type (0, 1), BuildingBlock: MIFKUJ_clean_linker_0, # of connection points: 2
#     Edge 104, Type (0, 1), BuildingBlock: MIFKUJ_clean_linker_0, # of connection points: 2
#     Edge 105, Type (0, 1), BuildingBlock: MIFKUJ_clean_linker_0, # of connection points: 2
#     Edge 106, Type (0, 1), BuildingBlock: MIFKUJ_clean_linker_0, # of connection points: 2
#     Edge 107, Type (0, 1), BuildingBlock: MIFKUJ_clean_linker_0, # of connection points: 2
#     Edge 108, Type (0, 1), BuildingBlock: MIFKUJ_clean_linker_0, # of connection points: 2
#     Edge 109, Type (0, 1), BuildingBlock: MIFKUJ_clean_linker_0, # of connection points: 2
#     Edge 110, Type (0, 1), BuildingBlock: MIFKUJ_clean_linker_0, # of connection points: 2
#     Edge 111, Type (0, 1), BuildingBlock: MIFKUJ_clean_linker_0, # of connection points: 2
#     Edge 112, Type (0, 1), BuildingBlock: MIFKUJ_clean_linker_0, # of connection points: 2
#     Edge 113, Type (0, 1), BuildingBlock: MIFKUJ_clean_linker_0, # of connection points: 2
#     Edge 114, Type (0, 1), BuildingBlock: MIFKUJ_clean_linker_0, # of connection points: 2
#     Edge 115, Type (0, 1), BuildingBlock: MIFKUJ_clean_linker_0, # of connection points: 2
#     Edge 116, Type (0, 1), BuildingBlock: MIFKUJ_clean_linker_0, # of connection points: 2
#     Edge 117, Type (0, 1), BuildingBlock: MIFKUJ_clean_linker_0, # of connection points: 2
#     Edge 118, Type (0, 1), BuildingBlock: MIFKUJ_clean_linker_0, # of connection points: 2
#     Edge 119, Type (0, 1), BuildingBlock: MIFKUJ_clean_linker_0, # of connection points: 2
#     Edge 120, Type (0, 1), BuildingBlock: MIFKUJ_clean_linker_0, # of connection points: 2
#     Edge 121, Type (0, 1), BuildingBlock: MIFKUJ_clean_linker_0, # of connection points: 2
#     Edge 122, Type (0, 1), BuildingBlock: MIFKUJ_clean_linker_0, # of connection points: 2
#     Edge 123, Type (0, 1), BuildingBlock: MIFKUJ_clean_linker_0, # of connection points: 2
#     Edge 124, Type (0, 1), BuildingBlock: MIFKUJ_clean_linker_0, # of connection points: 2
#     Edge 125, Type (0, 1), BuildingBlock: MIFKUJ_clean_linker_0, # of connection points: 2
#     Edge 126, Type (0, 1), BuildingBlock: MIFKUJ_clean_linker_0, # of connection points: 2
#     Edge 127, Type (0, 1), BuildingBlock: MIFKUJ_clean_linker_0, # of connection points: 2
#     Edge 128, Type (0, 1), BuildingBlock: MIFKUJ_clean_linker_0, # of connection points: 2
#     Edge 129, Type (0, 1), BuildingBlock: MIFKUJ_clean_linker_0, # of connection points: 2
#     Edge 130, Type (0, 1), BuildingBlock: MIFKUJ_clean_linker_0, # of connection points: 2
#     Edge 131, Type (0, 1), BuildingBlock: MIFKUJ_clean_linker_0, # of connection points: 2
#     Edge 132, Type (0, 1), BuildingBlock: MIFKUJ_clean_linker_0, # of connection points: 2
#     Edge 133, Type (0, 1), BuildingBlock: MIFKUJ_clean_linker_0, # of connection points: 2
#     Edge 134, Type (0, 1), BuildingBlock: MIFKUJ_clean_linker_0, # of connection points: 2
#     Edge 135, Type (0, 1), BuildingBlock: MIFKUJ_clean_linker_0, # of connection points: 2
# Relax obj value: 0.231
# Max RMSD: 0.381
# Mean RMSD: 0.181
data_MOF--net-gar--node1-TATPOV_clean_sbu_0--node2-GEDQOX_clean_sbu_0--edge1-MIFKUJ_clean_linker_0
_symmetry_space_group_name_H-M    P1
_symmetry_Int_Tables_number       1
_symmetry_cell_setting            triclinic
loop_
_symmetry_equiv_pos_as_xyz
'x, y, z'
_cell_length_a     77.123333
_cell_length_b     74.833516
_cell_length_c     69.836973
_cell_angle_alpha  97.450191
_cell_angle_beta   97.72386
_cell_angle_gamma 101.85812
loop_
_atom_site_label
_atom_site_type_symbol
_atom_site_fract_x
_atom_site_fract_y
_atom_site_fract_z
_atom_type_partial_charge
Zn0 Zn 0.06811 0.36109 0.50432 0.0
Zn1 Zn 0.08301 0.35048 0.47419 0.0
O2 O 0.09521 0.37757 0.48409 0.0
O3 O 0.08851 0.3835 0.51336 0.0
O4 O 0.09496 0.34301 0.45184 0.0
O5 O 0.06783 0.33724 0.51427 0.0
O6 O 0.08152 0.32915 0.48998 0.0
C7 C 0.09646 0.38885 0.49971 0.0
C8 C 0.04534 0.3554 0.46642 0.0
O9 O 0.05844 0.34973 0.46057 0.0
O10 O 0.04628 0.36196 0.48432 0.0
C11 C 0.09737 0.3534 0.43897 0.0
O12 O 0.09293 0.36949 0.44118 0.0
C13 C 0.07426 0.32534 0.50474 0.0
Zn14 Zn 0.98643 0.73417 0.64579 0.0
Zn15 Zn 0.99484 0.77034 0.64005 0.0
O16 O 0.97619 0.77041 0.65769 0.0
O17 O 0.9683 0.74137 0.6621 0.0
O18 O 1.00321 0.7962 0.63683 0.0
O19 O 0.0127 0.73744 0.65926 0.0
O20 O 0.01783 0.76576 0.6525 0.0
C21 C 0.96687 0.75802 0.66531 0.0
C22 C 0.98168 0.74081 0.60493 0.0
O23 O 0.98736 0.75774 0.61222 0.0
O24 O 0.97998 0.72852 0.61591 0.0
C25 C 0.9937 0.80466 0.62678 0.0
O26 O 0.97684 0.79673 0.6196 0.0
C27 C 0.02344 0.75281 0.65949 0.0
Zn28 Zn 0.56053 0.85467 0.00812 0.0
Zn29 Zn 0.57927 0.84758 0.97967 0.0
O30 O 0.59362 0.87268 0.99484 0.0
O31 O 0.57957 0.87696 0.01987 0.0
O32 O 0.59252 0.84177 0.95764 0.0
O33 O 0.56053 0.83061 0.01649 0.0
O34 O 0.57519 0.82409 0.99243 0.0
C35 C 0.59213 0.88244 0.01061 0.0
C36 C 0.54129 0.85276 0.96954 0.0
O37 O 0.55581 0.84974 0.96459 0.0
O38 O 0.53977 0.85556 0.98745 0.0
C39 C 0.59707 0.85364 0.94669 0.0
O40 O 0.59425 0.87034 0.95077 0.0
C41 C 0.56717 0.81932 0.00641 0.0
Zn42 Zn 0.49335 0.23604 0.15289 0.0
Zn43 Zn 0.49463 0.27103 0.14382 0.0
O44 O 0.47637 0.26788 0.16197 0.0
O45 O 0.47422 0.23953 0.16886 0.0
O46 O 0.49842 0.29687 0.13952 0.0
O47 O 0.5198 0.2449 0.16588 0.0
O48 O 0.51966 0.27179 0.15645 0.0
C49 C 0.46946 0.25478 0.17046 0.0
C50 C 0.48333 0.23922 0.11132 0.0
O51 O 0.48702 0.25658 0.11656 0.0
O52 O 0.48518 0.22847 0.12367 0.0
C53 C 0.49061 0.30236 0.12502 0.0
O54 O 0.47694 0.29104 0.11324 0.0
C55 C 0.5279 0.26121 0.16487 0.0
Zn56 Zn 0.04562 0.79447 0.19204 0.0
Zn57 Zn 0.02104 0.79367 0.21374 0.0
O58 O 0.01967 0.8153 0.19724 0.0
O59 O 0.03781 0.81196 0.17582 0.0
O60 O 0.99761 0.79203 0.22664 0.0
O61 O 0.03873 0.76768 0.1818 0.0
O62 O 0.01533 0.76708 0.19688 0.0
C63 C 0.02647 0.82 0.1824 0.0
C64 C 0.06215 0.80267 0.23162 0.0
O65 O 0.04574 0.79828 0.23451 0.0
O66 O 0.06546 0.80352 0.2145 0.0
C67 C 0.99329 0.80359 0.23929 0.0
O68 O 1.00531 0.81873 0.24743 0.0
C69 C 0.02413 0.75896 0.18566 0.0
Zn70 Zn 0.51532 0.81133 0.4053 0.0
Zn71 Zn 0.53903 0.81783 0.38573 0.0
O72 O 0.54357 0.84327 0.40444 0.0
O73 O 0.52566 0.83399 0.4249 0.0
O74 O 0.56164 0.81978 0.37092 0.0
O75 O 0.51692 0.78731 0.41251 0.0
O76 O 0.54259 0.79625 0.40237 0.0
C77 C 0.53708 0.84659 0.42011 0.0
C78 C 0.49753 0.81389 0.36953 0.0
O79 O 0.51359 0.81494 0.36558 0.0
O80 O 0.49471 0.8125 0.38667 0.0
C81 C 0.57732 0.82341 0.38144 0.0
O82 O 0.57832 0.82642 0.40056 0.0
C83 C 0.53252 0.78526 0.41109 0.0
Zn84 Zn 0.54392 0.29739 0.69098 0.0
Zn85 Zn 0.52134 0.29368 0.7127 0.0
O86 O 0.51856 0.31598 0.6973 0.0
O87 O 0.54375 0.32244 0.68547 0.0
O88 O 0.49854 0.2907 0.72686 0.0
O89 O 0.53126 0.27582 0.67077 0.0
O90 O 0.516 0.26805 0.69396 0.0
C91 C 0.52907 0.32628 0.6884 0.0
C92 C 0.56189 0.29572 0.72794 0.0
O93 O 0.54659 0.29724 0.7327 0.0
O94 O 0.56366 0.29415 0.71014 0.0
C95 C 0.49198 0.30403 0.73395 0.0
O96 O 0.50096 0.32109 0.73451 0.0
C97 C 0.52033 0.26395 0.67716 0.0
Zn98 Zn 0.01074 0.32193 0.91785 0.0
Zn99 Zn 0.04175 0.32237 0.8878 0.0
O100 O 0.05077 0.35079 0.89909 0.0
O101 O 0.02891 0.34163 0.91382 0.0
O102 O 0.06245 0.31784 0.8717 0.0
O103 O 0.0225 0.30437 0.92923 0.0
O104 O 0.04364 0.30546 0.9101 0.0
C105 C 0.04082 0.35462 0.91122 0.0
C106 C 0.99811 0.31309 0.87501 0.0
O107 O 0.0143 0.31664 0.87093 0.0
O108 O 0.99524 0.31355 0.89251 0.0
C109 C 0.07846 0.32368 0.88142 0.0
O110 O 0.08015 0.33126 0.89983 0.0
C111 C 0.03636 0.29966 0.92438 0.0
Zn112 Zn 0.4565 0.10194 0.29631 0.0
Zn113 Zn 0.4347 0.12237 0.29441 0.0
O114 O 0.44878 0.12632 0.32419 0.0
O115 O 0.47186 0.11363 0.32158 0.0
O116 O 0.41931 0.14189 0.29124 0.0
O117 O 0.46549 0.10385 0.27141 0.0
O118 O 0.44708 0.12263 0.26895 0.0
C119 C 0.46327 0.12236 0.33214 0.0
C120 C 0.41946 0.08229 0.29283 0.0
O121 O 0.41605 0.09789 0.29049 0.0
O122 O 0.43559 0.08077 0.29645 0.0
C123 C 0.40966 0.14755 0.30313 0.0
O124 O 0.40979 0.14147 0.31997 0.0
C125 C 0.45837 0.11441 0.26184 0.0
Zn126 Zn 0.23037 0.16423 0.48319 0.0
Zn127 Zn 0.25856 0.14722 0.48618 0.0
O128 O 0.26182 0.16156 0.46348 0.0
O129 O 0.23821 0.17392 0.45956 0.0
O130 O 0.28071 0.13732 0.48967 0.0
O131 O 0.24094 0.17904 0.51044 0.0
O132 O 0.26269 0.16405 0.51193 0.0
C133 C 0.25273 0.17124 0.45451 0.0
C134 C 0.22015 0.12459 0.48157 0.0
O135 O 0.23697 0.12543 0.48406 0.0
O136 O 0.21415 0.13899 0.48027 0.0
C137 C 0.28151 0.12129 0.49322 0.0
O138 O 0.2666 0.10901 0.49301 0.0
C139 C 0.25505 0.17595 0.51968 0.0
Zn140 Zn 0.14645 0.06226 0.8225 0.0
Zn141 Zn 0.16522 0.03974 0.81932 0.0
O142 O 0.1505 0.0364 0.84527 0.0
O143 O 0.13338 0.05648 0.84384 0.0
O144 O 0.17824 0.01562 0.81559 0.0
O145 O 0.13228 0.05687 0.79607 0.0
O146 O 0.14777 0.03577 0.79067 0.0
C147 C 0.13837 0.04397 0.8521 0.0
C148 C 0.18117 0.08393 0.82463 0.0
O149 O 0.18447 0.06754 0.82157 0.0
O150 O 0.16548 0.08504 0.82707 0.0
C151 C 0.19164 0.01134 0.82581 0.0
O152 O 0.20022 0.02316 0.84144 0.0
C153 C 0.13588 0.04442 0.78432 0.0
Zn154 Zn 0.24237 0.88954 0.06233 0.0
Zn155 Zn 0.22085 0.90893 0.05722 0.0
O156 O 0.21941 0.89229 0.02872 0.0
O157 O 0.24047 0.87721 0.03554 0.0
O158 O 0.19998 0.92323 0.05562 0.0
O159 O 0.23353 0.87482 0.08177 0.0
O160 O 0.22018 0.89805 0.08437 0.0
C161 C 0.22899 0.88102 0.02304 0.0
C162 C 0.25982 0.92771 0.06836 0.0
O163 O 0.24414 0.92917 0.0613 0.0
O164 O 0.26238 0.91215 0.07169 0.0
C165 C 0.20259 0.93999 0.0642 0.0
O166 O 0.21872 0.94817 0.07377 0.0
C167 C 0.22496 0.8844 0.09132 0.0
Zn168 Zn 0.33081 0.45739 0.12427 0.0
Zn169 Zn 0.30289 0.47268 0.12116 0.0
O170 O 0.2979 0.45489 0.09597 0.0
O171 O 0.32294 0.44522 0.09573 0.0
O172 O 0.28162 0.48417 0.11709 0.0
O173 O 0.32135 0.4439 0.14479 0.0
O174 O 0.29893 0.458 0.14379 0.0
C175 C 0.30742 0.4456 0.08734 0.0
C176 C 0.34214 0.49535 0.12615 0.0
O177 O 0.32525 0.49356 0.12137 0.0
O178 O 0.34826 0.48187 0.13101 0.0
C179 C 0.2792 0.48996 0.10083 0.0
O180 O 0.29157 0.49009 0.08958 0.0
C181 C 0.30708 0.44642 0.15064 0.0
Zn182 Zn 0.82487 0.22963 0.05872 0.0
Zn183 Zn 0.84443 0.20973 0.05465 0.0
O184 O 0.84396 0.22384 0.02913 0.0
O185 O 0.82451 0.24048 0.03547 0.0
O186 O 0.86424 0.19406 0.05398 0.0
O187 O 0.83415 0.24669 0.08281 0.0
O188 O 0.84887 0.22462 0.08489 0.0
C189 C 0.83424 0.23504 0.02396 0.0
C190 C 0.80494 0.193 0.05146 0.0
O191 O 0.82024 0.18982 0.04918 0.0
O192 O 0.8037 0.20926 0.05752 0.0
C193 C 0.87192 0.19013 0.03934 0.0
O194 O 0.86766 0.19666 0.0232 0.0
C195 C 0.84435 0.23911 0.09295 0.0
Zn196 Zn 0.10481 0.51533 0.30303 0.0
Zn197 Zn 0.12578 0.4938 0.29967 0.0
O198 O 0.1144 0.49146 0.32549 0.0
O199 O 0.09141 0.5046 0.32247 0.0
O200 O 0.13996 0.4731 0.29849 0.0
O201 O 0.09286 0.51066 0.27566 0.0
O202 O 0.11002 0.49082 0.27128 0.0
C203 C 0.10065 0.49552 0.33184 0.0
C204 C 0.14233 0.53433 0.31081 0.0
O205 O 0.14473 0.51835 0.30473 0.0
O206 O 0.12665 0.53644 0.3123 0.0
C207 C 0.15577 0.47569 0.30822 0.0
O208 O 0.16319 0.49201 0.31873 0.0
C209 C 0.09788 0.49883 0.26444 0.0
Zn210 Zn 0.828 0.9591 0.61933 0.0
Zn211 Zn 0.80383 0.97448 0.62115 0.0
O212 O 0.79554 0.95584 0.59635 0.0
O213 O 0.82213 0.954 0.58966 0.0
O214 O 0.7832 0.98715 0.61906 0.0
O215 O 0.81784 0.94022 0.63414 0.0
O216 O 0.80222 0.95992 0.64448 0.0
C217 C 0.8053 0.95094 0.58436 0.0
C218 C 0.84327 0.99392 0.62546 0.0
O219 O 0.8271 0.99356 0.6182 0.0
O220 O 0.84627 0.98082 0.63407 0.0
C221 C 0.78042 0.99293 0.60283 0.0
O222 O 0.79241 0.99276 0.59113 0.0
C223 C 0.80758 0.94495 0.64551 0.0
Zn224 Zn 0.92022 0.05708 0.28553 0.0
Zn225 Zn 0.89786 0.07779 0.28497 0.0
O226 O 0.91389 0.08416 0.31403 0.0
O227 O 0.9347 0.06817 0.31161 0.0
O228 O 0.88382 0.10106 0.28474 0.0
O229 O 0.9318 0.06169 0.26247 0.0
O230 O 0.91323 0.08033 0.25977 0.0
C231 C 0.928 0.07936 0.32174 0.0
C232 C 0.88481 0.03399 0.28412 0.0
O233 O 0.87996 0.04958 0.28355 0.0
O234 O 0.90127 0.03402 0.28446 0.0
C235 C 0.87717 0.10916 0.29862 0.0
O236 O 0.87729 0.10224 0.31498 0.0
C237 C 0.92583 0.07327 0.25342 0.0
Zn238 Zn 0.3273 0.73369 0.552 0.0
Zn239 Zn 0.34322 0.70796 0.55138 0.0
O240 O 0.34402 0.72027 0.52527 0.0
O241 O 0.33561 0.74653 0.53083 0.0
O242 O 0.36295 0.69238 0.5516 0.0
O243 O 0.33439 0.74651 0.57927 0.0
O244 O 0.34605 0.72218 0.58106 0.0
C245 C 0.34127 0.73525 0.51962 0.0
C246 C 0.30398 0.69572 0.54376 0.0
O247 O 0.31855 0.69012 0.5463 0.0
O248 O 0.30457 0.71294 0.54515 0.0
C249 C 0.36093 0.67657 0.54102 0.0
O250 O 0.34548 0.66939 0.52946 0.0
C251 C 0.34216 0.73684 0.58947 0.0
Zn252 Zn 0.41557 0.55329 0.78277 0.0
Zn253 Zn 0.39802 0.57737 0.78497 0.0
O254 O 0.41507 0.58269 0.81377 0.0
O255 O 0.42874 0.55982 0.80992 0.0
O256 O 0.38277 0.59988 0.78629 0.0
O257 O 0.42922 0.55901 0.76177 0.0
O258 O 0.41371 0.5804 0.75964 0.0
C259 C 0.42606 0.57343 0.82087 0.0
C260 C 0.3812 0.53259 0.78008 0.0
O261 O 0.37891 0.54941 0.78324 0.0
O262 O 0.39656 0.53036 0.77759 0.0
C263 C 0.38981 0.6175 0.79063 0.0
O264 O 0.40744 0.62256 0.79435 0.0
C265 C 0.42552 0.57198 0.75333 0.0
Zn266 Zn 0.60866 0.02241 0.8036 0.0
Zn267 Zn 0.62471 0.9955 0.80097 0.0
O268 O 0.61075 0.9935 0.82513 0.0
O269 O 0.59385 0.01378 0.82272 0.0
O270 O 0.63699 0.97319 0.80066 0.0
O271 O 0.5974 0.01719 0.77579 0.0
O272 O 0.60945 0.99291 0.77246 0.0
C273 C 0.5986 1.00116 0.83102 0.0
C274 C 0.64632 0.03576 0.81157 0.0
O275 O 0.6459 0.01872 0.80605 0.0
O276 O 0.63194 0.04109 0.81288 0.0
C277 C 0.65267 0.97496 0.81041 0.0
O278 O 0.661 0.99123 0.8205 0.0
C279 C 0.59961 1.00309 0.7652 0.0
Zn280 Zn 0.73303 0.66865 0.98413 0.0
Zn281 Zn 0.75704 0.64691 0.9864 0.0
O282 O 0.76195 0.659 0.9623 0.0
O283 O 0.74159 0.67581 0.9599 0.0
O284 O 0.77572 0.6323 0.99058 0.0
O285 O 0.74528 0.68341 0.01068 0.0
O286 O 0.76409 0.66497 0.01176 0.0
C287 C 0.75446 0.67009 0.95366 0.0
C288 C 0.71702 0.6301 0.98273 0.0
O289 O 0.73316 0.62822 0.98468 0.0
O290 O 0.71357 0.64584 0.98189 0.0
C291 C 0.79186 0.64021 0.99018 0.0
O292 O 0.79529 0.65664 0.98492 0.0
C293 C 0.75861 0.67862 0.01952 0.0
Zn294 Zn 0.94951 0.59738 0.79482 0.0
Zn295 Zn 0.93292 0.6212 0.7949 0.0
O296 O 0.94867 0.62559 0.82393 0.0
O297 O 0.95985 0.60072 0.82234 0.0
O298 O 0.91885 0.64249 0.79353 0.0
O299 O 0.96603 0.60475 0.77725 0.0
O300 O 0.94532 0.61968 0.76883 0.0
C301 C 0.95791 0.61532 0.83215 0.0
C302 C 0.91344 0.58069 0.78634 0.0
O303 O 0.91294 0.5974 0.79219 0.0
O304 O 0.92823 0.57667 0.78409 0.0
C305 C 0.90197 0.63948 0.79406 0.0
O306 O 0.89363 0.62287 0.79613 0.0
C307 C 0.95862 0.61281 0.76484 0.0
Zn308 Zn 0.74459 0.39226 0.55559 0.0
Zn309 Zn 0.72041 0.40817 0.5554 0.0
O310 O 0.71755 0.39354 0.52579 0.0
O311 O 0.74262 0.38361 0.52752 0.0
O312 O 0.69886 0.42126 0.55705 0.0
O313 O 0.73801 0.37416 0.57254 0.0
O314 O 0.72208 0.3942 0.58071 0.0
C315 C 0.72844 0.38543 0.51748 0.0
C316 C 0.75883 0.43013 0.56611 0.0
O317 O 0.74258 0.4302 0.55965 0.0
O318 O 0.76326 0.41501 0.5678 0.0
C319 C 0.69898 0.43671 0.55099 0.0
O320 O 0.71251 0.44376 0.54263 0.0
C321 C 0.7294 0.38087 0.58467 0.0
Zn322 Zn 0.6465 0.56317 0.32192 0.0
Zn323 Zn 0.66681 0.53926 0.31925 0.0
O324 O 0.65251 0.53642 0.34526 0.0
O325 O 0.63537 0.55667 0.34499 0.0
O326 O 0.68262 0.51729 0.31752 0.0
O327 O 0.63217 0.55385 0.29503 0.0
O328 O 0.6494 0.53404 0.29082 0.0
C329 C 0.64082 0.54413 0.35286 0.0
C330 C 0.68228 0.58357 0.32317 0.0
O331 O 0.68504 0.56696 0.32074 0.0
O332 O 0.66673 0.58569 0.32519 0.0
C333 C 0.67646 0.49978 0.31734 0.0
O334 O 0.65938 0.49441 0.31859 0.0
C335 C 0.63655 0.5413 0.28403 0.0
Nd336 Nd 0.04672 0.08041 0.05956 0.0
Nd337 Nd 0.02011 0.04036 0.04761 0.0
C338 C 0.0606 0.11544 0.0743 0.0
C339 C 0.06082 0.13202 0.0647 0.0
C340 C 0.05105 0.145 0.07085 0.0
C341 C 0.04877 0.15911 0.06005 0.0
C342 C 0.05627 0.16057 0.04286 0.0
C343 C 0.06661 0.14799 0.03717 0.0
C344 C 0.06881 0.13386 0.04789 0.0
C345 C 0.04904 0.06574 0.0211 0.0
C346 C 1.00399 0.0763 0.03913 0.0
C347 C 1.00683 0.00524 0.0328 0.0
C348 C 1.00767 0.98916 0.04283 0.0
C349 C 0.01014 0.97261 0.03279 0.0
C350 C 0.01333 0.95834 0.04305 0.0
C351 C 0.01434 0.96055 0.06354 0.0
C352 C 0.01155 0.97704 0.07341 0.0
C353 C 1.00829 0.99115 0.0632 0.0
C354 C 0.01745 0.05493 0.08597 0.0
C355 C 0.06263 0.04434 0.06845 0.0
O356 O 0.04471 0.10675 0.07677 0.0
O357 O 0.07038 0.10408 0.06835 0.0
O358 O 0.05801 0.08178 0.03038 0.0
O359 O 0.0388 0.0587 0.03232 0.0
O360 O 0.01972 0.08701 0.04768 0.0
O361 O 1.00116 0.05797 0.03537 0.0
O362 O 0.02239 0.01435 0.02991 0.0
O363 O 0.99688 0.01621 0.03921 0.0
O364 O 1.00882 0.03883 0.07656 0.0
O365 O 0.02784 0.06223 0.07497 0.0
O366 O 0.04695 0.03387 0.05952 0.0
O367 O 0.06547 0.06267 0.07239 0.0
H368 H 0.0446 0.14381 0.08363 0.0
H369 H 0.04062 0.16846 0.06481 0.0
H370 H 0.07291 0.14892 0.02426 0.0
H371 H 0.07635 0.12406 0.04262 0.0
H372 H 0.01006 0.97091 0.01714 0.0
H373 H 0.01551 0.94582 0.03505 0.0
H374 H 0.01191 0.97907 0.08912 0.0
H375 H 1.00667 1.00381 0.07139 0.0
Nd376 Nd 0.28113 0.82881 0.31687 0.0
Nd377 Nd 0.27761 0.78905 0.29668 0.0
C378 C 0.27844 0.8633 0.32685 0.0
C379 C 0.28717 0.88091 0.32154 0.0
C380 C 0.27765 0.89479 0.31935 0.0
C381 C 0.28592 0.91143 0.31396 0.0
C382 C 0.30384 0.91439 0.3108 0.0
C383 C 0.3132 0.9003 0.31273 0.0
C384 C 0.30492 0.88369 0.31795 0.0
C385 C 0.3135 0.81833 0.31813 0.0
C386 C 0.27786 0.82048 0.26864 0.0
C387 C 0.2841 0.75631 0.28612 0.0
C388 C 0.27534 0.73799 0.28996 0.0
C389 C 0.28564 0.72542 0.2952 0.0
C390 C 0.27751 0.70885 0.30089 0.0
C391 C 0.25899 0.70473 0.30163 0.0
C392 C 0.24873 0.71727 0.2961 0.0
C393 C 0.25681 0.73371 0.29037 0.0
C394 C 0.24306 0.79355 0.29989 0.0
C395 C 0.27808 0.79751 0.34406 0.0
O396 O 0.26733 0.85168 0.31275 0.0
O397 O 0.28887 0.85528 0.33745 0.0
O398 O 0.30919 0.82878 0.33214 0.0
O399 O 0.30108 0.81432 0.30325 0.0
O400 O 0.28035 0.83286 0.28464 0.0
O401 O 0.27709 0.80276 0.26918 0.0
O402 O 0.29321 0.76779 0.30164 0.0
O403 O 0.27438 0.76416 0.27439 0.0
O404 O 0.24669 0.77817 0.29276 0.0
O405 O 0.2576 0.80542 0.30579 0.0
O406 O 0.28216 0.7871 0.32941 0.0
O407 O 0.27381 0.81344 0.34206 0.0
H408 H 0.26387 0.89276 0.32184 0.0
H409 H 0.27843 0.92209 0.3126 0.0
H410 H 0.32692 0.90207 0.31004 0.0
H411 H 0.31241 0.873 0.31915 0.0
H412 H 0.3 0.7286 0.29529 0.0
H413 H 0.28579 0.6995 0.30519 0.0
H414 H 0.23439 0.71437 0.29614 0.0
H415 H 0.24854 0.7432 0.28656 0.0
Nd416 Nd 0.54497 0.06455 0.5438 0.0
Nd417 Nd 0.51015 0.04756 0.55029 0.0
C418 C 0.5757 0.07318 0.53102 0.0
C419 C 0.59098 0.06408 0.53307 0.0
C420 C 0.59578 0.05489 0.51644 0.0
C421 C 0.60877 0.04436 0.51844 0.0
C422 C 0.61717 0.04285 0.53713 0.0
C423 C 0.61251 0.05227 0.55372 0.0
C424 C 0.59955 0.06271 0.55174 0.0
C425 C 0.54613 0.05104 0.57898 0.0
C426 C 0.52914 0.02071 0.52696 0.0
C427 C 0.48032 0.03839 0.56487 0.0
C428 C 0.46632 0.04871 0.5669 0.0
C429 C 0.45269 0.04312 0.57766 0.0
C430 C 0.43913 0.05288 0.57887 0.0
C431 C 0.43914 0.06837 0.56938 0.0
C432 C 0.45322 0.07423 0.55917 0.0
C433 C 0.46671 0.06451 0.55798 0.0
C434 C 0.50855 0.06074 0.51492 0.0
C435 C 0.52638 0.09148 0.56718 0.0
O436 O 0.56106 0.06329 0.51978 0.0
O437 O 0.57246 0.08199 0.54709 0.0
O438 O 0.55609 0.06639 0.57646 0.0
O439 O 0.53671 0.04264 0.56298 0.0
O440 O 0.53826 0.03646 0.52336 0.0
O441 O 0.51862 0.02081 0.54029 0.0
O442 O 0.49585 0.04616 0.57572 0.0
O443 O 0.48176 0.03239 0.54686 0.0
O444 O 0.49896 0.04526 0.51769 0.0
O445 O 0.51827 0.06938 0.53079 0.0
O446 O 0.51707 0.07576 0.57063 0.0
O447 O 0.53652 0.0914 0.55349 0.0
H448 H 0.58918 0.0555 0.50191 0.0
H449 H 0.61202 0.03716 0.50539 0.0
H450 H 0.619 0.05171 0.56832 0.0
H451 H 0.59606 0.06942 0.56491 0.0
H452 H 0.45239 0.03108 0.58483 0.0
H453 H 0.42848 0.04816 0.58693 0.0
H454 H 0.4534 0.08587 0.55138 0.0
H455 H 0.47727 0.06907 0.54972 0.0
Nd456 Nd 0.29183 0.31124 0.8209 0.0
Nd457 Nd 0.27383 0.30513 0.78514 0.0
C458 C 0.30338 0.31341 0.85869 0.0
C459 C 0.29737 0.31927 0.87703 0.0
C460 C 0.27999 0.31191 0.8805 0.0
C461 C 0.27434 0.31867 0.89763 0.0
C462 C 0.286 0.33283 0.91141 0.0
C463 C 0.30337 0.34006 0.90787 0.0
C464 C 0.30902 0.33327 0.89088 0.0
C465 C 0.29982 0.34345 0.80426 0.0
C466 C 0.24963 0.31581 0.81578 0.0
C467 C 0.26473 0.30345 0.74714 0.0
C468 C 0.27292 0.29631 0.73082 0.0
C469 C 0.28078 0.30848 0.71909 0.0
C470 C 0.2896 0.30214 0.70433 0.0
C471 C 0.29061 0.28349 0.70101 0.0
C472 C 0.28305 0.27141 0.71301 0.0
C473 C 0.27432 0.27776 0.72781 0.0
C474 C 0.26542 0.27291 0.80146 0.0
C475 C 0.31569 0.29965 0.79013 0.0
O476 O 0.29381 0.29827 0.84762 0.0
O477 O 0.30854 0.32653 0.84874 0.0
O478 O 0.31161 0.33541 0.81224 0.0
O479 O 0.2841 0.33373 0.80395 0.0
O480 O 0.26325 0.31319 0.82791 0.0
O481 O 0.25108 0.31569 0.79728 0.0
O482 O 0.27456 0.31827 0.75853 0.0
O483 O 0.25679 0.29134 0.75688 0.0
O484 O 0.25382 0.28074 0.79274 0.0
O485 O 0.28127 0.28259 0.80222 0.0
O486 O 0.3019 0.30165 0.77791 0.0
O487 O 0.31472 0.30091 0.8088 0.0
H488 H 0.27068 0.30118 0.86992 0.0
H489 H 0.26089 0.31291 0.90006 0.0
H490 H 0.31248 0.35131 0.91803 0.0
H491 H 0.32239 0.33924 0.88833 0.0
H492 H 0.28014 0.32292 0.7214 0.0
H493 H 0.2954 0.31174 0.69531 0.0
H494 H 0.2833 0.25687 0.71051 0.0
H495 H 0.26865 0.26808 0.73681 0.0
Nd496 Nd 0.0285 0.07661 0.56121 0.0
Nd497 Nd 0.0368 0.04156 0.54034 0.0
C498 C 0.01478 0.10525 0.571 0.0
C499 C 0.01188 0.11981 0.55943 0.0
C500 C 0.99564 0.12562 0.55798 0.0
C501 C 0.99262 0.1387 0.54602 0.0
C502 C 1.0058 0.14609 0.53529 0.0
C503 C 0.02189 0.13993 0.53657 0.0
C504 C 0.02483 0.12687 0.54837 0.0
C505 C 0.06113 0.08065 0.54872 0.0
C506 C 0.01559 0.06421 0.51313 0.0
C507 C 0.05348 0.01616 0.52752 0.0
C508 C 0.05635 0.99892 0.53418 0.0
C509 C 0.0709 0.99918 0.54881 0.0
C510 C 0.07144 0.98368 0.5579 0.0
C511 C 0.05738 0.9679 0.55249 0.0
C512 C 0.04376 0.96706 0.5367 0.0
C513 C 0.04332 0.98238 0.52751 0.0
C514 C 1.00382 0.03606 0.55157 0.0
C515 C 0.04758 0.05284 0.58934 0.0
O516 O 1.00482 0.08878 0.56394 0.0
O517 O 0.03154 0.10501 0.57704 0.0
O518 O 0.05913 0.08929 0.5653 0.0
O519 O 0.04635 0.07138 0.53943 0.0
O520 O 0.01198 0.07222 0.52971 0.0
O521 O 0.02766 0.054 0.5133 0.0
O522 O 0.06184 0.03166 0.53902 0.0
O523 O 0.03685 0.01617 0.52044 0.0
O524 O 1.00706 0.0262 0.53632 0.0
O525 O 0.01797 0.04647 0.56141 0.0
O526 O 0.05059 0.04376 0.57287 0.0
O527 O 0.03707 0.06479 0.58886 0.0
H528 H 0.9853 0.12 0.56605 0.0
H529 H 0.98007 0.14313 0.54527 0.0
H530 H 0.03252 0.14563 0.52891 0.0
H531 H 0.03734 0.12235 0.54886 0.0
H532 H 0.08128 0.01166 0.55405 0.0
H533 H 0.08213 0.98447 0.56997 0.0
H534 H 0.03296 0.95481 0.53211 0.0
H535 H 0.03215 0.98159 0.51598 0.0
Nd536 Nd 0.30211 0.82306 0.81263 0.0
Nd537 Nd 0.26854 0.79931 0.79688 0.0
C538 C 0.3336 0.84663 0.82042 0.0
C539 C 0.35194 0.8439 0.82347 0.0
C540 C 0.35607 0.82789 0.81401 0.0
C541 C 0.37216 0.82306 0.82053 0.0
C542 C 0.38403 0.83406 0.8367 0.0
C543 C 0.38033 0.85055 0.8454 0.0
C544 C 0.36441 0.85547 0.83876 0.0
C545 C 0.2816 0.8161 0.84155 0.0
C546 C 0.30255 0.77884 0.80771 0.0
C547 C 0.23709 0.77601 0.79093 0.0
C548 C 0.21918 0.77974 0.78977 0.0
C549 C 0.21703 0.79703 0.79843 0.0
C550 C 0.20099 0.80248 0.79345 0.0
C551 C 0.18698 0.79054 0.78005 0.0
C552 C 0.18881 0.7729 0.77223 0.0
C553 C 0.2049 0.76756 0.77699 0.0
C554 C 0.28819 0.80657 0.76747 0.0
C555 C 0.26813 0.84343 0.80063 0.0
O556 O 0.32437 0.84153 0.80269 0.0
O557 O 0.32439 0.84141 0.83388 0.0
O558 O 0.2983 0.81494 0.84289 0.0
O559 O 0.27619 0.81966 0.82493 0.0
O560 O 0.31278 0.7958 0.81029 0.0
O561 O 0.28483 0.77686 0.80457 0.0
O562 O 0.24736 0.78073 0.80812 0.0
O563 O 0.24536 0.78109 0.77671 0.0
O564 O 0.2713 0.80676 0.76647 0.0
O565 O 0.29428 0.80321 0.78403 0.0
O566 O 0.25787 0.82648 0.79783 0.0
O567 O 0.28586 0.84549 0.80458 0.0
H568 H 0.34644 0.81859 0.80238 0.0
H569 H 0.37485 0.81028 0.81374 0.0
H570 H 0.38945 0.8592 0.85788 0.0
H571 H 0.3613 0.86769 0.84639 0.0
H572 H 0.22805 0.80669 0.80817 0.0
H573 H 0.19974 0.81616 0.79948 0.0
H574 H 0.17813 0.76368 0.76161 0.0
H575 H 0.20653 0.75439 0.76987 0.0
Nd576 Nd 0.50629 0.05909 0.03143 0.0
Nd577 Nd 0.54554 0.06616 0.05405 0.0
C578 C 0.4729 0.06113 0.02023 0.0
C579 C 0.45598 0.0531 0.02669 0.0
C580 C 0.4447 0.0645 0.03262 0.0
C581 C 0.42886 0.05701 0.03923 0.0
C582 C 0.42422 0.03802 0.04026 0.0
C583 C 0.4357 0.02671 0.03461 0.0
C584 C 0.45142 0.03416 0.02792 0.0
C585 C 0.51844 0.02797 0.03603 0.0
C586 C 0.51452 0.06463 0.08025 0.0
C587 C 0.57973 0.06756 0.06639 0.0
C588 C 0.59678 0.07574 0.06013 0.0
C589 C 0.60335 0.06603 0.04513 0.0
C590 C 0.61928 0.07409 0.0391 0.0
C591 C 0.62892 0.09187 0.04788 0.0
C592 C 0.62236 0.10167 0.06272 0.0
C593 C 0.60649 0.09364 0.06888 0.0
C594 C 0.53291 0.09671 0.04694 0.0
C595 C 0.53766 0.05891 0.00549 0.0
O596 O 0.4843 0.07401 0.033 0.0
O597 O 0.48063 0.04943 0.01092 0.0
O598 O 0.50601 0.02869 0.02183 0.0
O599 O 0.52167 0.04236 0.04871 0.0
O600 O 0.50357 0.06518 0.06414 0.0
O601 O 0.53094 0.06211 0.08 0.0
O602 O 0.56905 0.0533 0.05471 0.0
O603 O 0.57104 0.07926 0.07396 0.0
O604 O 0.54327 0.09615 0.06295 0.0
O605 O 0.53056 0.08198 0.03526 0.0
O606 O 0.54827 0.05832 0.02182 0.0
O607 O 0.52145 0.06226 0.00553 0.0
H608 H 0.44824 0.07922 0.03233 0.0
H609 H 0.42036 0.06608 0.04375 0.0
H610 H 0.43238 0.012 0.03506 0.0
H611 H 0.46001 0.02505 0.02378 0.0
H612 H 0.59619 0.05226 0.03801 0.0
H613 H 0.62412 0.0666 0.02745 0.0
H614 H 0.6297 0.11539 0.06984 0.0
H615 H 0.60184 0.10147 0.08052 0.0
Nd616 Nd 0.25551 0.28892 0.28379 0.0
Nd617 Nd 0.29287 0.31751 0.30448 0.0
C618 C 0.22525 0.26881 0.26346 0.0
C619 C 0.20705 0.26979 0.26759 0.0
C620 C 0.1981 0.28241 0.25959 0.0
C621 C 0.18386 0.28751 0.26769 0.0
C622 C 0.17821 0.28005 0.28388 0.0
C623 C 0.18603 0.26613 0.29061 0.0
C624 C 0.2002 0.26097 0.28248 0.0
C625 C 0.26355 0.2933 0.32389 0.0
C626 C 0.25513 0.3316 0.30217 0.0
C627 C 0.32327 0.33414 0.32749 0.0
C628 C 0.34086 0.32963 0.32616 0.0
C629 C 0.34319 0.31178 0.32828 0.0
C630 C 0.35625 0.3048 0.31971 0.0
C631 C 0.3672 0.31558 0.30905 0.0
C632 C 0.36655 0.33421 0.30923 0.0
C633 C 0.35348 0.34122 0.31782 0.0
C634 C 0.28534 0.3186 0.26484 0.0
C635 C 0.29392 0.27495 0.285 0.0
O636 O 0.23425 0.28348 0.25767 0.0
O637 O 0.23523 0.26237 0.27646 0.0
O638 O 0.24731 0.29035 0.31435 0.0
O639 O 0.27444 0.293 0.31206 0.0
O640 O 0.24731 0.31682 0.28887 0.0
O641 O 0.27161 0.33379 0.31202 0.0
O642 O 0.31116 0.32163 0.33285 0.0
O643 O 0.31665 0.34097 0.31255 0.0
O644 O 0.2998 0.3285 0.27601 0.0
O645 O 0.2766 0.30873 0.27491 0.0
O646 O 0.3025 0.29089 0.29613 0.0
O647 O 0.27656 0.2715 0.27721 0.0
H648 H 0.20289 0.28931 0.24797 0.0
H649 H 0.17785 0.29797 0.26187 0.0
H650 H 0.18214 0.26012 0.30313 0.0
H651 H 0.20663 0.2511 0.28894 0.0
H652 H 0.33389 0.30253 0.33487 0.0
H653 H 0.35687 0.29052 0.32012 0.0
H654 H 0.37498 0.34282 0.30118 0.0
H655 H 0.35206 0.35506 0.31611 0.0
Nd656 Nd 0.52598 0.57569 0.0637 0.0
Nd657 Nd 0.53439 0.54184 0.04216 0.0
C658 C 0.51091 0.60291 0.07446 0.0
C659 C 0.50756 0.61764 0.06327 0.0
C660 C 0.49442 0.61364 0.04624 0.0
C661 C 0.49462 0.62596 0.03281 0.0
C662 C 0.50804 0.64231 0.03616 0.0
C663 C 0.52011 0.64704 0.05392 0.0
C664 C 0.51978 0.63489 0.06743 0.0
C665 C 0.5589 0.58095 0.05206 0.0
C666 C 0.51422 0.56508 0.01468 0.0
C667 C 0.5506 0.51564 0.03096 0.0
C668 C 0.55364 0.50086 0.04176 0.0
C669 C 0.56355 0.48821 0.03538 0.0
C670 C 0.56451 0.47312 0.04508 0.0
C671 C 0.55546 0.4707 0.06106 0.0
C672 C 0.54649 0.48403 0.06804 0.0
C673 C 0.54556 0.49898 0.05844 0.0
C674 C 0.50121 0.53592 0.05333 0.0
C675 C 0.5463 0.5526 0.09105 0.0
O676 O 0.50154 0.58614 0.06725 0.0
O677 O 0.52788 0.60341 0.08039 0.0
O678 O 0.55651 0.58855 0.06899 0.0
O679 O 0.54434 0.57181 0.042 0.0
O680 O 0.51166 0.57402 0.03142 0.0
O681 O 0.52478 0.55324 0.01469 0.0
O682 O 0.55941 0.53222 0.03953 0.0
O683 O 0.53365 0.51482 0.02464 0.0
O684 O 0.5043 0.5275 0.03715 0.0
O685 O 0.51553 0.5456 0.06355 0.0
O686 O 0.54965 0.54464 0.07424 0.0
O687 O 0.53482 0.56352 0.09106 0.0
H688 H 0.48467 0.60052 0.04266 0.0
H689 H 0.48498 0.62224 0.01934 0.0
H690 H 0.53021 0.65992 0.05709 0.0
H691 H 0.5299 0.63847 0.08051 0.0
H692 H 0.56989 0.4896 0.02255 0.0
H693 H 0.57137 0.46282 0.03945 0.0
H694 H 0.53943 0.48237 0.08035 0.0
H695 H 0.53781 0.50864 0.06352 0.0
Nd696 Nd 0.80255 0.32315 0.30635 0.0
Nd697 Nd 0.76927 0.29766 0.30425 0.0
C698 C 0.83546 0.3403 0.30369 0.0
C699 C 0.85321 0.33769 0.31164 0.0
C700 C 0.85759 0.32031 0.30837 0.0
C701 C 0.87305 0.31723 0.31908 0.0
C702 C 0.88407 0.33141 0.3333 0.0
C703 C 0.88018 0.34899 0.33581 0.0
C704 C 0.86492 0.35213 0.32497 0.0
C705 C 0.79011 0.3259 0.34168 0.0
C706 C 0.80346 0.27897 0.31091 0.0
C707 C 0.73616 0.2801 0.30537 0.0
C708 C 0.71901 0.28554 0.30135 0.0
C709 C 0.71729 0.30338 0.30878 0.0
C710 C 0.70256 0.30995 0.30119 0.0
C711 C 0.6895 0.29871 0.28623 0.0
C712 C 0.69069 0.28059 0.27956 0.0
C713 C 0.70536 0.27402 0.28711 0.0
C714 C 0.78305 0.29443 0.26982 0.0
C715 C 0.76828 0.3419 0.30061 0.0
O716 O 0.82542 0.32739 0.28994 0.0
O717 O 0.82648 0.34598 0.31686 0.0
O718 O 0.79789 0.33971 0.33422 0.0
O719 O 0.78974 0.31068 0.33103 0.0
O720 O 0.81214 0.29509 0.30718 0.0
O721 O 0.78654 0.27711 0.31357 0.0
O722 O 0.74736 0.289 0.32104 0.0
O723 O 0.744 0.27798 0.29008 0.0
O724 O 0.77593 0.28072 0.27787 0.0
O725 O 0.78237 0.30973 0.27966 0.0
O726 O 0.75989 0.32588 0.3048 0.0
O727 O 0.78497 0.34356 0.29715 0.0
H728 H 0.84873 0.3089 0.29821 0.0
H729 H 0.87592 0.3036 0.31693 0.0
H730 H 0.88872 0.36017 0.34655 0.0
H731 H 0.86177 0.3656 0.32773 0.0
H732 H 0.72773 0.31257 0.31969 0.0
H733 H 0.70168 0.32396 0.30645 0.0
H734 H 0.68065 0.27183 0.26791 0.0
H735 H 0.70659 0.26034 0.28102 0.0
Nd736 Nd 1.00693 0.55586 0.53313 0.0
Nd737 Nd 0.0465 0.5627 0.55395 0.0
C738 C 0.97416 0.55345 0.51468 0.0
C739 C 0.95616 0.5466 0.51963 0.0
C740 C 0.94994 0.5564 0.53489 0.0
C741 C 0.93364 0.54899 0.54059 0.0
C742 C 0.92318 0.53163 0.5312 0.0
C743 C 0.9292 0.52205 0.51565 0.0
C744 C 0.94547 0.52949 0.50989 0.0
C745 C 0.01599 0.52698 0.54975 0.0
C746 C 0.01556 0.56626 0.57987 0.0
C747 C 0.07994 0.56044 0.56544 0.0
C748 C 0.09746 0.56973 0.56101 0.0
C749 C 0.10805 0.55931 0.55173 0.0
C750 C 0.12425 0.56806 0.54664 0.0
C751 C 0.13021 0.58747 0.55069 0.0
C752 C 0.11966 0.5978 0.56032 0.0
C753 C 0.10347 0.58908 0.56531 0.0
C754 C 0.03579 0.59449 0.5494 0.0
C755 C 0.03865 0.55573 0.50605 0.0
O756 O 0.98404 0.56865 0.52549 0.0
O757 O 0.98341 0.54096 0.5108 0.0
O758 O 1.00003 0.53018 0.54861 0.0
O759 O 0.02538 0.53767 0.54088 0.0
O760 O 1.00641 0.56973 0.56396 0.0
O761 O 0.02995 0.55923 0.5791 0.0
O762 O 0.06913 0.54886 0.55105 0.0
O763 O 0.07154 0.5707 0.57572 0.0
O764 O 0.04799 0.5933 0.56356 0.0
O765 O 0.03107 0.57982 0.53694 0.0
O766 O 0.05086 0.56165 0.52202 0.0
O767 O 0.02119 0.55219 0.50647 0.0
H768 H 0.95778 0.56967 0.54269 0.0
H769 H 0.92924 0.55686 0.55239 0.0
H770 H 0.92157 0.50856 0.50822 0.0
H771 H 0.94992 0.52162 0.49811 0.0
H772 H 0.1037 0.54438 0.54821 0.0
H773 H 0.13195 0.55956 0.53936 0.0
H774 H 0.12395 0.61269 0.56426 0.0
H775 H 0.09565 0.59757 0.57246 0.0
Nd776 Nd 0.79044 0.81019 0.32058 0.0
Nd777 Nd 0.77327 0.80594 0.28442 0.0
C778 C 0.79963 0.80907 0.35811 0.0
C779 C 0.79522 0.81867 0.37566 0.0
C780 C 0.79384 0.81004 0.3922 0.0
C781 C 0.78893 0.81904 0.40871 0.0
C782 C 0.78549 0.83675 0.40873 0.0
C783 C 0.78656 0.84515 0.39197 0.0
C784 C 0.79128 0.83612 0.3755 0.0
C785 C 0.7997 0.84388 0.30676 0.0
C786 C 0.74878 0.81654 0.31503 0.0
C787 C 0.7647 0.80532 0.24649 0.0
C788 C 0.77208 0.79724 0.22997 0.0
C789 C 0.78066 0.80882 0.21815 0.0
C790 C 0.78909 0.8016 0.20347 0.0
C791 C 0.78899 0.78264 0.20035 0.0
C792 C 0.78043 0.77108 0.21223 0.0
C793 C 0.77211 0.77832 0.22695 0.0
C794 C 0.76492 0.77262 0.2991 0.0
C795 C 0.81487 0.79995 0.28994 0.0
O796 O 0.78611 0.79733 0.34689 0.0
O797 O 0.80966 0.81944 0.34831 0.0
O798 O 0.81078 0.83581 0.31593 0.0
O799 O 0.78375 0.83392 0.30459 0.0
O800 O 0.76206 0.81336 0.32717 0.0
O801 O 0.75057 0.81676 0.29663 0.0
O802 O 0.77568 0.8193 0.25809 0.0
O803 O 0.75568 0.79377 0.25603 0.0
O804 O 0.75326 0.78039 0.29042 0.0
O805 O 0.78062 0.78262 0.30022 0.0
O806 O 0.80189 0.80376 0.27794 0.0
O807 O 0.8127 0.79892 0.30807 0.0
H808 H 0.79656 0.79641 0.39232 0.0
H809 H 0.78821 0.8124 0.42156 0.0
H810 H 0.78373 0.85872 0.39165 0.0
H811 H 0.79186 0.84277 0.36263 0.0
H812 H 0.78103 0.82351 0.22044 0.0
H813 H 0.79566 0.81081 0.19455 0.0
H814 H 0.77979 0.75635 0.20987 0.0
H815 H 0.7658 0.76906 0.23599 0.0
Nd816 Nd 0.78115 0.3274 0.81796 0.0
Nd817 Nd 0.78027 0.29354 0.79504 0.0
C818 C 0.77852 0.36147 0.83088 0.0
C819 C 0.7871 0.37986 0.8268 0.0
C820 C 0.77682 0.39 0.81631 0.0
C821 C 0.78501 0.40686 0.81132 0.0
C822 C 0.80362 0.41398 0.81689 0.0
C823 C 0.81384 0.4039 0.82753 0.0
C824 C 0.8057 0.38704 0.83241 0.0
C825 C 0.81549 0.32136 0.81801 0.0
C826 C 0.77943 0.32498 0.77037 0.0
C827 C 0.7825 0.25925 0.78259 0.0
C828 C 0.77386 0.24107 0.78729 0.0
C829 C 0.78229 0.23342 0.80235 0.0
C830 C 0.77369 0.21674 0.80743 0.0
C831 C 0.75654 0.20727 0.79746 0.0
C832 C 0.74818 0.21485 0.78233 0.0
C833 C 0.75674 0.2315 0.77728 0.0
C834 C 0.74594 0.2996 0.79463 0.0
C835 C 0.78225 0.29576 0.84249 0.0
O836 O 0.76722 0.35054 0.81645 0.0
O837 O 0.78882 0.35267 0.84048 0.0
O838 O 0.80943 0.32774 0.83318 0.0
O839 O 0.80363 0.3185 0.80278 0.0
O840 O 0.77443 0.33245 0.78623 0.0
O841 O 0.78658 0.31051 0.77089 0.0
O842 O 0.79424 0.27044 0.79647 0.0
O843 O 0.77207 0.26793 0.77298 0.0
O844 O 0.75208 0.29281 0.7797 0.0
O845 O 0.75769 0.30265 0.81001 0.0
O846 O 0.78717 0.28842 0.82656 0.0
O847 O 0.77511 0.31025 0.84215 0.0
H848 H 0.76247 0.38477 0.81177 0.0
H849 H 0.77678 0.41439 0.80322 0.0
H850 H 0.82825 0.40888 0.83176 0.0
H851 H 0.81407 0.37953 0.84034 0.0
H852 H 0.79551 0.24038 0.81031 0.0
H853 H 0.78058 0.21114 0.81898 0.0
H854 H 0.73489 0.20801 0.77451 0.0
H855 H 0.74982 0.23696 0.76563 0.0
Nd856 Nd 0.75267 0.78805 0.7864 0.0
Nd857 Nd 0.79084 0.81679 0.80398 0.0
C858 C 0.7215 0.7685 0.76773 0.0
C859 C 0.70376 0.77167 0.7714 0.0
C860 C 0.69762 0.78683 0.7653 0.0
C861 C 0.68392 0.79312 0.77342 0.0
C862 C 0.67606 0.78443 0.78785 0.0
C863 C 0.68106 0.76826 0.79255 0.0
C864 C 0.69465 0.76189 0.78432 0.0
C865 C 0.76356 0.79321 0.82628 0.0
C866 C 0.75325 0.83157 0.80234 0.0
C867 C 0.82208 0.83314 0.82566 0.0
C868 C 0.83949 0.82795 0.82513 0.0
C869 C 0.84082 0.8096 0.82595 0.0
C870 C 0.85503 0.80313 0.81935 0.0
C871 C 0.86808 0.81482 0.81163 0.0
C872 C 0.86779 0.83365 0.81277 0.0
C873 C 0.8536 0.84016 0.81951 0.0
C874 C 0.78117 0.81635 0.76451 0.0
C875 C 0.79052 0.77355 0.78495 0.0
O876 O 0.73142 0.78136 0.76017 0.0
O877 O 0.73079 0.76283 0.78197 0.0
O878 O 0.74694 0.79084 0.81798 0.0
O879 O 0.77337 0.79264 0.81333 0.0
O880 O 0.74465 0.81591 0.79088 0.0
O881 O 0.77029 0.83448 0.81097 0.0
O882 O 0.80969 0.82179 0.83211 0.0
O883 O 0.81575 0.8389 0.80983 0.0
O884 O 0.79601 0.82665 0.77463 0.0
O885 O 0.77305 0.80705 0.77549 0.0
O886 O 0.79992 0.79006 0.79414 0.0
O887 O 0.7727 0.76958 0.77977 0.0
H888 H 0.70416 0.79463 0.7552 0.0
H889 H 0.6801 0.80533 0.76906 0.0
H890 H 0.67544 0.7612 0.80366 0.0
H891 H 0.69897 0.75012 0.78927 0.0
H892 H 0.83018 0.79979 0.8302 0.0
H893 H 0.85508 0.78862 0.81893 0.0
H894 H 0.87762 0.84298 0.80686 0.0
H895 H 0.85283 0.85435 0.81868 0.0
Nd896 Nd 0.54878 0.58236 0.56096 0.0
Nd897 Nd 0.52285 0.54244 0.54909 0.0
C898 C 0.56292 0.61725 0.57663 0.0
C899 C 0.56402 0.63404 0.56738 0.0
C900 C 0.56056 0.65019 0.57726 0.0
C901 C 0.55891 0.66512 0.56742 0.0
C902 C 0.5604 0.66395 0.54747 0.0
C903 C 0.56436 0.64798 0.53782 0.0
C904 C 0.56618 0.63323 0.54766 0.0
C905 C 0.55209 0.56861 0.52262 0.0
C906 C 0.50591 0.57811 0.5415 0.0
C907 C 0.5095 0.50726 0.53418 0.0
C908 C 0.50999 0.49089 0.5439 0.0
C909 C 0.51319 0.47469 0.53385 0.0
C910 C 0.51599 0.46013 0.54386 0.0
C911 C 0.51585 0.46168 0.56416 0.0
C912 C 0.51229 0.4778 0.57401 0.0
C913 C 0.50944 0.4922 0.56404 0.0
C914 C 0.52035 0.55651 0.58765 0.0
C915 C 0.56531 0.54668 0.56964 0.0
O916 O 0.54663 0.60878 0.57793 0.0
O917 O 0.5726 0.60574 0.57087 0.0
O918 O 0.55974 0.58496 0.53211 0.0
O919 O 0.54169 0.56053 0.53323 0.0
O920 O 0.52155 0.58865 0.55043 0.0
O921 O 0.50349 0.55987 0.53675 0.0
O922 O 0.52517 0.51633 0.53156 0.0
O923 O 0.49959 0.51829 0.54056 0.0
O924 O 0.51209 0.54022 0.57847 0.0
O925 O 0.53029 0.56416 0.57651 0.0
O926 O 0.5497 0.53588 0.56106 0.0
O927 O 0.56795 0.56497 0.57327 0.0
H928 H 0.55857 0.65101 0.59239 0.0
H929 H 0.55578 0.67726 0.57517 0.0
H930 H 0.56581 0.6468 0.52252 0.0
H931 H 0.56873 0.62095 0.5396 0.0
H932 H 0.51399 0.47348 0.51838 0.0
H933 H 0.51876 0.44792 0.53586 0.0
H934 H 0.51174 0.47934 0.58954 0.0
H935 H 0.50718 0.50454 0.57226 0.0
Nd936 Nd 0.04523 0.56406 0.0445 0.0
Nd937 Nd 0.0093 0.54783 0.05068 0.0
C938 C 0.07596 0.57109 0.03136 0.0
C939 C 0.09057 0.56098 0.03266 0.0
C940 C 0.09311 0.54966 0.01605 0.0
C941 C 0.10549 0.5384 0.0177 0.0
C942 C 0.11553 0.53825 0.03601 0.0
C943 C 0.11323 0.54988 0.05251 0.0
C944 C 0.10092 0.56109 0.05088 0.0
C945 C 0.04528 0.55224 0.08045 0.0
C946 C 0.02894 0.51983 0.02991 0.0
C947 C 0.97925 0.53943 0.06492 0.0
C948 C 0.96444 0.54901 0.06496 0.0
C949 C 0.95659 0.55172 0.08179 0.0
C950 C 0.94376 0.5625 0.08237 0.0
C951 C 0.93876 0.57077 0.06616 0.0
C952 C 0.94649 0.56774 0.04926 0.0
C953 C 0.95928 0.55711 0.04871 0.0
C954 C 1.00906 0.55936 0.01458 0.0
C955 C 0.02577 0.59246 0.06485 0.0
O956 O 0.06089 0.56223 0.02013 0.0
O957 O 0.07338 0.57986 0.04782 0.0
O958 O 0.05577 0.56703 0.07734 0.0
O959 O 0.03582 0.54348 0.06458 0.0
O960 O 0.03903 0.53505 0.02634 0.0
O961 O 0.01739 0.52062 0.04205 0.0
O962 O 0.99442 0.54858 0.07573 0.0
O963 O 0.98136 0.53164 0.04776 0.0
O964 O 0.99851 0.54465 0.01787 0.0
O965 O 0.01865 0.56828 0.03038 0.0
O966 O 0.01477 0.57747 0.06776 0.0
O967 O 0.03785 0.5915 0.0534 0.0
H968 H 0.08523 0.54919 0.00186 0.0
H969 H 0.10699 0.52959 0.00473 0.0
H970 H 0.12108 0.55044 0.06675 0.0
H971 H 0.09933 0.56958 0.06403 0.0
H972 H 0.96065 0.54582 0.09457 0.0
H973 H 0.938 0.56462 0.09557 0.0
H974 H 0.94258 0.57354 0.03635 0.0
H975 H 0.96531 0.55548 0.03564 0.0
H976 H 0.04121 0.30325 0.96356 0.0
H977 H 0.04553 0.27955 0.98339 0.0
H978 H 0.05086 0.24362 0.93202 0.0
H979 H 0.0463 0.26754 0.91189 0.0
H980 H 0.02518 0.22737 0.954 0.0
H981 H 0.08705 0.2631 0.96702 0.0
H982 H 0.11007 0.29225 0.97719 0.0
H983 H 0.09309 0.29947 0.03322 0.0
H984 H 0.0698 0.2705 0.02329 0.0
H985 H 0.04979 0.1569 0.00282 0.0
H986 H 0.0466 0.18081 0.98285 0.0
H987 H 0.05145 0.22044 0.0351 0.0
H988 H 0.05549 0.19674 0.05524 0.0
H989 H 0.07186 0.23524 0.0126 0.0
H990 H 0.01128 0.20372 0.00336 0.0
H991 H 0.98434 0.17812 0.99586 0.0
H992 H 0.99372 0.16642 0.9368 0.0
H993 H 0.02092 0.19177 0.94401 0.0
C994 C 0.04385 0.2905 0.95658 0.0
C995 C 0.04365 0.28723 0.93626 0.0
C996 C 0.04625 0.27695 0.96792 0.0
C997 C 0.04858 0.25986 0.9592 0.0
C998 C 0.04913 0.25679 0.939 0.0
C999 C 0.0468 0.27048 0.92758 0.0
C1000 C 0.04935 0.24497 0.97116 0.0
C1001 C 0.03561 0.22881 0.96655 0.0
C1002 C 0.0623 0.24749 0.98825 0.0
C1003 C 0.07665 0.26465 0.99437 0.0
C1004 C 0.08819 0.27093 0.98148 0.0
C1005 C 0.10128 0.28743 0.9872 0.0
C1006 C 0.10303 0.29771 0.00583 0.0
C1007 C 0.09173 0.29149 0.0188 0.0
C1008 C 0.07861 0.27501 0.01314 0.0
C1009 C 0.0503 0.17073 0.01011 0.0
C1010 C 0.05313 0.17492 0.03069 0.0
C1011 C 0.0482 0.18435 0.99863 0.0
C1012 C 0.04868 0.20245 0.00742 0.0
C1013 C 0.05106 0.20658 0.02795 0.0
C1014 C 0.05324 0.19297 0.03946 0.0
C1015 C 0.04787 0.21727 0.99526 0.0
C1016 C 0.06151 0.23353 0.99991 0.0
C1017 C 0.03441 0.21512 0.97863 0.0
C1018 C 0.01833 0.1995 0.97432 0.0
C1019 C 1.00776 0.19553 0.98884 0.0
C1020 C 0.9924 0.1811 0.98462 0.0
C1021 C 0.98736 0.1706 0.96589 0.0
C1022 C 0.99767 0.17453 0.95132 0.0
C1023 C 0.01307 0.18894 0.95546 0.0
H1024 H 0.97544 0.15946 0.96264 0.0
H1025 H 0.11316 0.3105 0.01022 0.0
H1026 H 0.07245 0.77648 0.25149 0.0
H1027 H 0.10319 0.77716 0.26663 0.0
H1028 H 0.11959 0.83432 0.25968 0.0
H1029 H 0.08902 0.83328 0.24382 0.0
H1030 H 0.14261 0.81776 0.24728 0.0
H1031 H 0.11767 0.81838 0.30639 0.0
H1032 H 0.09621 0.80787 0.32799 0.0
H1033 H 0.11011 0.75495 0.32277 0.0
H1034 H 0.13148 0.76506 0.3009 0.0
H1035 H 0.23245 0.8266 0.29921 0.0
H1036 H 0.20157 0.8308 0.29121 0.0
H1037 H 0.18104 0.77205 0.28679 0.0
H1038 H 0.21168 0.76783 0.29446 0.0
H1039 H 0.16087 0.79182 0.30662 0.0
H1040 H 0.18548 0.79156 0.24685 0.0
H1041 H 0.20708 0.80245 0.22552 0.0
H1042 H 0.19392 0.85569 0.23239 0.0
H1043 H 0.17253 0.84526 0.25415 0.0
C1044 C 0.08241 0.78943 0.25408 0.0
C1045 C 0.0781 0.80502 0.24706 0.0
C1046 C 0.10014 0.7898 0.26258 0.0
C1047 C 0.11399 0.80586 0.26453 0.0
C1048 C 0.10938 0.82171 0.25841 0.0
C1049 C 0.09175 0.82124 0.24968 0.0
C1050 C 0.13336 0.8058 0.27161 0.0
C1051 C 0.14658 0.81241 0.26049 0.0
C1052 C 0.1388 0.79851 0.28862 0.0
C1053 C 0.12607 0.79243 0.30188 0.0
C1054 C 0.11607 0.80446 0.30975 0.0
C1055 C 0.10393 0.79858 0.32205 0.0
C1056 C 0.10176 0.78074 0.32672 0.0
C1057 C 0.11178 0.76876 0.31913 0.0
C1058 C 0.12392 0.77457 0.3068 0.0
C1059 C 0.22131 0.81465 0.29684 0.0
C1060 C 0.22453 0.79689 0.2976 0.0
C1061 C 0.20366 0.81703 0.29209 0.0
C1062 C 0.18885 0.80172 0.28823 0.0
C1063 C 0.19211 0.7841 0.28968 0.0
C1064 C 0.20968 0.78171 0.2941 0.0
C1065 C 0.16997 0.80374 0.28231 0.0
C1066 C 0.15687 0.7974 0.29357 0.0
C1067 C 0.1647 0.8114 0.26551 0.0
C1068 C 0.17758 0.8177 0.2524 0.0
C1069 C 0.18734 0.80566 0.24402 0.0
C1070 C 0.19953 0.81174 0.23182 0.0
C1071 C 0.20192 0.82977 0.22767 0.0
C1072 C 0.1921 0.84174 0.23567 0.0
C1073 C 0.17995 0.83576 0.24796 0.0
H1074 H 0.21135 0.83443 0.2182 0.0
H1075 H 0.09235 0.77621 0.33624 0.0
H1076 H 0.528 0.8557 0.45569 0.0
H1077 H 0.52882 0.88634 0.47273 0.0
H1078 H 0.55503 0.91103 0.42867 0.0
H1079 H 0.55403 0.88 0.41104 0.0
H1080 H 0.56889 0.92865 0.47005 0.0
H1081 H 0.51363 0.90953 0.42406 0.0
H1082 H 0.48521 0.88833 0.40741 0.0
H1083 H 0.46604 0.88742 0.4623 0.0
H1084 H 0.49445 0.90841 0.47933 0.0
H1085 H 0.54976 0.01642 0.49862 0.0
H1086 H 0.55356 0.98765 0.48078 0.0
H1087 H 0.51795 0.95642 0.51339 0.0
H1088 H 0.51379 0.98526 0.53116 0.0
H1089 H 0.50951 0.94284 0.47574 0.0
H1090 H 0.56402 0.9603 0.52231 0.0
H1091 H 0.59268 0.98005 0.5404 0.0
H1092 H 0.61338 0.98315 0.48657 0.0
H1093 H 0.58478 0.96359 0.4681 0.0
C1094 C 0.53418 0.86757 0.44963 0.0
C1095 C 0.54082 0.86535 0.43185 0.0
C1096 C 0.53457 0.8851 0.45942 0.0
C1097 C 0.5417 0.90089 0.45178 0.0
C1098 C 0.54938 0.89893 0.4347 0.0
C1099 C 0.54887 0.88123 0.42471 0.0
C1100 C 0.54027 0.91921 0.46147 0.0
C1101 C 0.55596 0.93199 0.471 0.0
C1102 C 0.52332 0.92318 0.46319 0.0
C1103 C 0.50626 0.91041 0.453 0.0
C1104 C 0.50344 0.90467 0.43261 0.0
C1105 C 0.4873 0.89272 0.4231 0.0
C1106 C 0.47385 0.8865 0.4338 0.0
C1107 C 0.47648 0.89223 0.45403 0.0
C1108 C 0.49259 0.90417 0.46362 0.0
C1109 C 0.54273 1.00345 0.50206 0.0
C1110 C 0.5314 1.00313 0.51629 0.0
C1111 C 0.54505 0.98699 0.49192 0.0
C1112 C 0.53624 0.96987 0.4959 0.0
C1113 C 0.52493 0.96949 0.51011 0.0
C1114 C 0.52255 0.98598 0.52025 0.0
C1115 C 0.53815 0.95236 0.48458 0.0
C1116 C 0.5225 0.93968 0.47472 0.0
C1117 C 0.55514 0.94844 0.48276 0.0
C1118 C 0.57217 0.96064 0.49379 0.0
C1119 C 0.5746 0.96537 0.51429 0.0
C1120 C 0.59086 0.97649 0.52462 0.0
C1121 C 0.60481 0.98289 0.51462 0.0
C1122 C 0.60254 0.97821 0.49428 0.0
C1123 C 0.58632 0.9671 0.48388 0.0
H1124 H 0.61743 0.99133 0.52262 0.0
H1125 H 0.46136 0.87726 0.4264 0.0
H1126 H 0.47885 0.32767 0.75843 0.0
H1127 H 0.44866 0.32392 0.76685 0.0
H1128 H 0.43291 0.26994 0.73124 0.0
H1129 H 0.46342 0.27343 0.72307 0.0
H1130 H 0.40729 0.29428 0.72528 0.0
H1131 H 0.43814 0.27032 0.77723 0.0
H1132 H 0.46281 0.27116 0.80399 0.0
H1133 H 0.4526 0.32047 0.83474 0.0
H1134 H 0.42802 0.32005 0.80803 0.0
H1135 H 0.32108 0.27844 0.75687 0.0
H1136 H 0.34978 0.27557 0.74675 0.0
H1137 H 0.37805 0.31585 0.79702 0.0
H1138 H 0.34957 0.31712 0.808 0.0
H1139 H 0.39727 0.2948 0.79395 0.0
H1140 H 0.36885 0.32164 0.74216 0.0
H1141 H 0.34506 0.32296 0.7153 0.0
H1142 H 0.35128 0.27191 0.68415 0.0
H1143 H 0.37492 0.27014 0.71095 0.0
C1144 C 0.46907 0.31488 0.75249 0.0
C1145 C 0.47376 0.30081 0.74013 0.0
C1146 C 0.45171 0.31277 0.75732 0.0
C1147 C 0.43831 0.29666 0.74969 0.0
C1148 C 0.44289 0.28254 0.73731 0.0
C1149 C 0.46044 0.2845 0.73277 0.0
C1150 C 0.4197 0.29475 0.75485 0.0
C1151 C 0.40501 0.29415 0.74026 0.0
C1152 C 0.41663 0.29502 0.77442 0.0
C1153 C 0.43134 0.29523 0.79055 0.0
C1154 C 0.44125 0.28142 0.78962 0.0
C1155 C 0.4552 0.28181 0.8048 0.0
C1156 C 0.4593 0.29588 0.82104 0.0
C1157 C 0.44942 0.30958 0.82215 0.0
C1158 C 0.43547 0.30926 0.80701 0.0
C1159 C 0.33348 0.28657 0.76578 0.0
C1160 C 0.33299 0.29793 0.78333 0.0
C1161 C 0.35002 0.28514 0.75984 0.0
C1162 C 0.36655 0.2958 0.77073 0.0
C1163 C 0.36584 0.30727 0.78819 0.0
C1164 C 0.34942 0.30809 0.7945 0.0
C1165 C 0.38459 0.295 0.76449 0.0
C1166 C 0.3993 0.29499 0.77891 0.0
C1167 C 0.3877 0.29459 0.74478 0.0
C1168 C 0.37354 0.29568 0.72864 0.0
C1169 C 0.36508 0.31065 0.72962 0.0
C1170 C 0.35162 0.31148 0.71441 0.0
C1171 C 0.34666 0.29753 0.69804 0.0
C1172 C 0.35513 0.28271 0.69684 0.0
C1173 C 0.36856 0.28178 0.71204 0.0
H1174 H 0.33629 0.29824 0.68626 0.0
H1175 H 0.4701 0.29616 0.83277 0.0
H1176 H 0.02944 0.81763 0.628 0.0
H1177 H 0.04416 0.84547 0.61686 0.0
H1178 H 0.99276 0.85901 0.60191 0.0
H1179 H 0.97778 0.83059 0.61229 0.0
H1180 H 0.01177 0.8635 0.57376 0.0
H1181 H 0.02378 0.88062 0.64448 0.0
H1182 H 0.0351 0.87605 0.67782 0.0
H1183 H 0.08805 0.88023 0.66345 0.0
H1184 H 0.07698 0.88457 0.62992 0.0
H1185 H 0.02896 0.95582 0.5696 0.0
H1186 H 0.02325 0.92856 0.58554 0.0
H1187 H 0.07564 0.91941 0.57853 0.0
H1188 H 0.0815 0.94702 0.56246 0.0
H1189 H 0.06065 0.91147 0.61663 0.0
H1190 H 0.04836 0.89657 0.54613 0.0
H1191 H 0.03641 0.90196 0.51335 0.0
H1192 H 0.98331 0.89381 0.52794 0.0
H1193 H 0.99502 0.88876 0.56097 0.0
C1194 C 0.02126 0.82661 0.6225 0.0
C1195 C 1.00246 0.82208 0.62114 0.0
C1196 C 0.02972 0.84252 0.61617 0.0
C1197 C 0.01958 0.85442 0.60888 0.0
C1198 C 1.00081 0.84997 0.60756 0.0
C1199 C 0.99228 0.83383 0.61355 0.0
C1200 C 0.02846 0.87135 0.60221 0.0
C1201 C 0.02239 0.874 0.58319 0.0
C1202 C 0.04275 0.88474 0.61431 0.0
C1203 C 0.04952 0.88277 0.63466 0.0
C1204 C 0.03783 0.88051 0.64842 0.0
C1205 C 0.0442 0.87795 0.66734 0.0
C1206 C 0.06228 0.87781 0.67274 0.0
C1207 C 0.07405 0.88032 0.65925 0.0
C1208 C 0.06774 0.88286 0.64029 0.0
C1209 C 0.03936 0.94814 0.57172 0.0
C1210 C 0.05548 0.9531 0.56448 0.0
C1211 C 0.03616 0.93274 0.58094 0.0
C1212 C 0.04897 0.922 0.58293 0.0
C1213 C 0.06567 0.92766 0.57707 0.0
C1214 C 0.06894 0.94326 0.56786 0.0
C1215 C 0.04354 0.90368 0.5885 0.0
C1216 C 0.05025 0.90076 0.60719 0.0
C1217 C 0.02979 0.88998 0.57615 0.0
C1218 C 0.0226 0.89241 0.55607 0.0
C1219 C 0.03415 0.89605 0.54239 0.0
C1220 C 0.02742 0.89904 0.52376 0.0
C1221 C 1.00911 0.89826 0.51858 0.0
C1222 C 0.99749 0.89442 0.53198 0.0
C1223 C 1.00417 0.89148 0.55066 0.0
H1224 H 1.00393 0.90061 0.50415 0.0
H1225 H 0.06717 0.87579 0.68738 0.0
H1226 H 0.54105 0.85182 0.93038 0.0
H1227 H 0.51476 0.84491 0.90459 0.0
H1228 H 0.48002 0.84237 0.94817 0.0
H1229 H 0.50624 0.84938 0.97413 0.0
H1230 H 0.47081 0.81141 0.91785 0.0
H1231 H 0.48467 0.87782 0.9264 0.0
H1232 H 0.50405 0.90887 0.92857 0.0
H1233 H 0.51293 0.89501 0.86962 0.0
H1234 H 0.4938 0.86374 0.8672 0.0
H1235 H 0.3887 0.82447 0.87252 0.0
H1236 H 0.41669 0.82106 0.89095 0.0
H1237 H 0.44239 0.8269 0.84013 0.0
H1238 H 0.41414 0.83039 0.82162 0.0
H1239 H 0.45837 0.8532 0.87068 0.0
H1240 H 0.44381 0.78672 0.8619 0.0
H1241 H 0.42547 0.75527 0.86057 0.0
H1242 H 0.417 0.76961 0.91959 0.0
H1243 H 0.43576 0.80098 0.92146 0.0
C1244 C 0.52782 0.85003 0.9345 0.0
C1245 C 0.52567 0.85107 0.95425 0.0
C1246 C 0.51286 0.84606 0.91976 0.0
C1247 C 0.49555 0.84304 0.92457 0.0
C1248 C 0.49334 0.84456 0.94427 0.0
C1249 C 0.50831 0.84871 0.95904 0.0
C1250 C 0.47971 0.83784 0.90899 0.0
C1251 C 0.46797 0.82056 0.90758 0.0
C1252 C 0.47648 0.84957 0.89529 0.0
C1253 C 0.488 0.86835 0.89671 0.0
C1254 C 0.49091 0.88132 0.91397 0.0
C1255 C 0.50181 0.89897 0.91523 0.0
C1256 C 0.50977 0.90389 0.89927 0.0
C1257 C 0.50679 0.89117 0.88199 0.0
C1258 C 0.49592 0.87348 0.88066 0.0
C1259 C 0.40021 0.82442 0.86516 0.0
C1260 C 0.39953 0.82788 0.84586 0.0
C1261 C 0.41613 0.82228 0.8756 0.0
C1262 C 0.4316 0.82366 0.86687 0.0
C1263 C 0.43054 0.8257 0.84705 0.0
C1264 C 0.4145 0.82771 0.83653 0.0
C1265 C 0.44922 0.82676 0.87955 0.0
C1266 C 0.46135 0.84379 0.88059 0.0
C1267 C 0.45277 0.81482 0.89294 0.0
C1268 C 0.44106 0.7962 0.89175 0.0
C1269 C 0.43795 0.78318 0.87455 0.0
C1270 C 0.42758 0.76534 0.87375 0.0
C1271 C 0.41995 0.76049 0.88992 0.0
C1272 C 0.42288 0.7734 0.90705 0.0
C1273 C 0.43351 0.79115 0.90805 0.0
H1274 H 0.4118 0.74672 0.8892 0.0
H1275 H 0.5182 0.91757 0.90027 0.0
H1276 H 0.45348 0.21367 0.09448 0.0
H1277 H 0.45364 0.18933 0.06785 0.0
H1278 H 0.50307 0.22127 0.05584 0.0
H1279 H 0.50292 0.24573 0.08258 0.0
H1280 H 0.46407 0.17641 0.02961 0.0
H1281 H 0.52926 0.20678 0.07493 0.0
H1282 H 0.54554 0.22505 0.10664 0.0
H1283 H 0.50352 0.19977 0.13569 0.0
H1284 H 0.4868 0.18179 0.10403 0.0
H1285 H 0.52154 0.11247 0.01629 0.0
H1286 H 0.50274 0.13526 0.01671 0.0
H1287 H 0.49503 0.12773 0.07554 0.0
H1288 H 0.51475 0.10611 0.07557 0.0
H1289 H 0.51173 0.16063 0.07511 0.0
H1290 H 0.45841 0.12075 0.03761 0.0
H1291 H 0.43896 0.09836 0.01014 0.0
H1292 H 0.45283 0.13595 0.97028 0.0
H1293 H 0.47225 0.15864 0.99746 0.0
C1294 C 0.46368 0.21602 0.08524 0.0
C1295 C 0.47845 0.23111 0.0907 0.0
C1296 C 0.4637 0.20218 0.06993 0.0
C1297 C 0.4787 0.20333 0.06049 0.0
C1298 C 0.49147 0.22017 0.06319 0.0
C1299 C 0.49142 0.23412 0.07851 0.0
C1300 C 0.48434 0.18602 0.05532 0.0
C1301 C 0.47474 0.17295 0.03919 0.0
C1302 C 0.49751 0.18125 0.06856 0.0
C1303 C 0.50668 0.1933 0.08717 0.0
C1304 C 0.52339 0.2054 0.08806 0.0
C1305 C 0.53269 0.21567 0.106 0.0
C1306 C 0.52551 0.21366 0.12315 0.0
C1307 C 0.50901 0.2014 0.12239 0.0
C1308 C 0.49954 0.19132 0.10444 0.0
C1309 C 0.51559 0.11565 0.02916 0.0
C1310 C 0.52002 0.10839 0.04618 0.0
C1311 C 0.50459 0.1283 0.02925 0.0
C1312 C 0.49761 0.13324 0.04621 0.0
C1313 C 0.50042 0.12418 0.06237 0.0
C1314 C 0.51188 0.11212 0.06252 0.0
C1315 C 0.49169 0.15072 0.04909 0.0
C1316 C 0.50124 0.16391 0.06506 0.0
C1317 C 0.47818 0.15515 0.03597 0.0
C1318 C 0.46694 0.14132 0.01954 0.0
C1319 C 0.45747 0.12416 0.02296 0.0
C1320 C 0.44641 0.11144 0.00746 0.0
C1321 C 0.44478 0.11567 0.98849 0.0
C1322 C 0.45414 0.13267 0.98497 0.0
C1323 C 0.46512 0.1455 1.00042 0.0
H1324 H 0.43621 0.1058 0.97653 0.0
H1325 H 0.53279 0.2215 0.13704 0.0
H1326 H 0.11262 0.37421 0.41356 0.0
H1327 H 0.12452 0.3632 0.38456 0.0
H1328 H 0.10847 0.30699 0.39496 0.0
H1329 H 0.0973 0.31797 0.42427 0.0
H1330 H 0.14114 0.31337 0.38826 0.0
H1331 H 0.08552 0.32545 0.35712 0.0
H1332 H 0.06416 0.34523 0.35061 0.0
H1333 H 0.10434 0.38282 0.32941 0.0
H1334 H 0.12601 0.36336 0.336 0.0
H1335 H 0.15159 0.26198 0.30155 0.0
H1336 H 0.13571 0.27593 0.32534 0.0
H1337 H 0.16073 0.33029 0.31557 0.0
H1338 H 0.17724 0.31659 0.2924 0.0
H1339 H 0.12472 0.32706 0.32144 0.0
H1340 H 0.1796 0.31413 0.35101 0.0
H1341 H 0.20167 0.29558 0.35921 0.0
H1342 H 0.16312 0.26018 0.38472 0.0
H1343 H 0.14071 0.27839 0.37642 0.0
C1344 C 0.11163 0.35951 0.40959 0.0
C1345 C 0.1042 0.34695 0.42123 0.0
C1346 C 0.1183 0.35322 0.39295 0.0
C1347 C 0.11724 0.33424 0.38747 0.0
C1348 C 0.10951 0.32171 0.39894 0.0
C1349 C 0.10316 0.32799 0.41571 0.0
C1350 C 0.12499 0.32729 0.37046 0.0
C1351 C 0.13729 0.31612 0.3736 0.0
C1352 C 0.12053 0.33151 0.35148 0.0
C1353 C 0.10741 0.34302 0.34718 0.0
C1354 C 0.08982 0.33798 0.35115 0.0
C1355 C 0.07766 0.34913 0.34744 0.0
C1356 C 0.0829 0.36529 0.33964 0.0
C1357 C 0.1003 0.3703 0.33546 0.0
C1358 C 0.11252 0.3592 0.33914 0.0
C1359 C 0.15362 0.2769 0.30433 0.0
C1360 C 0.16589 0.28814 0.29524 0.0
C1361 C 0.14446 0.28484 0.31784 0.0
C1362 C 0.14732 0.30414 0.32244 0.0
C1363 C 0.15844 0.31537 0.3123 0.0
C1364 C 0.16777 0.30747 0.29893 0.0
C1365 C 0.14022 0.31252 0.33921 0.0
C1366 C 0.12833 0.32416 0.33608 0.0
C1367 C 0.14503 0.30875 0.3583 0.0
C1368 C 0.1584 0.29754 0.36291 0.0
C1369 C 0.17575 0.3023 0.3582 0.0
C1370 C 0.18834 0.29186 0.3629 0.0
C1371 C 0.18379 0.27668 0.37244 0.0
C1372 C 0.16662 0.27192 0.3773 0.0
C1373 C 0.15397 0.2823 0.37259 0.0
H1374 H 0.19357 0.26864 0.37611 0.0
H1375 H 0.07348 0.37392 0.3368 0.0
H1376 H 0.91064 0.07132 0.21437 0.0
H1377 H 0.92659 0.07246 0.18604 0.0
H1378 H 0.97735 0.08625 0.22507 0.0
H1379 H 0.9615 0.08503 0.25312 0.0
H1380 H 0.98128 0.10441 0.19482 0.0
H1381 H 0.95862 0.0417 0.20162 0.0
H1382 H 0.9359 0.01405 0.20425 0.0
H1383 H 0.90742 0.01552 0.14744 0.0
H1384 H 0.92985 0.04337 0.14461 0.0
H1385 H 0.03477 0.07201 0.1238 0.0
H1386 H 0.02013 0.07948 0.15226 0.0
H1387 H 0.96856 0.06442 0.11464 0.0
H1388 H 0.98304 0.05692 0.08663 0.0
H1389 H 0.96563 0.04784 0.14472 0.0
H1390 H 0.99044 0.11066 0.13785 0.0
H1391 H 0.01438 0.13758 0.13607 0.0
H1392 H 0.04036 0.13517 0.19374 0.0
H1393 H 0.01671 0.10805 0.19575 0.0
C1394 C 0.92518 0.0752 0.21694 0.0
C1395 C 0.93468 0.0784 0.23622 0.0
C1396 C 0.93439 0.07559 0.20064 0.0
C1397 C 0.9534 0.07922 0.20309 0.0
C1398 C 0.9628 0.08342 0.22242 0.0
C1399 C 0.95365 0.0828 0.23859 0.0
C1400 C 0.96349 0.0775 0.1858 0.0
C1401 C 0.97787 0.09196 0.18396 0.0
C1402 C 0.95935 0.06138 0.17132 0.0
C1403 C 0.94577 0.04475 0.17301 0.0
C1404 C 0.94741 0.03623 0.18977 0.0
C1405 C 0.93461 0.02051 0.19128 0.0
C1406 C 0.92019 0.01307 0.17605 0.0
C1407 C 0.91857 0.02133 0.15925 0.0
C1408 C 0.93132 0.03708 0.15768 0.0
C1409 C 0.0204 0.07091 0.12153 0.0
C1410 C 0.01019 0.06412 0.10271 0.0
C1411 C 0.01192 0.07507 0.13791 0.0
C1412 C 0.993 0.07252 0.13595 0.0
C1413 C 0.98305 0.06646 0.11695 0.0
C1414 C 0.99144 0.06233 0.10076 0.0
C1415 C 0.98321 0.07488 0.15341 0.0
C1416 C 0.96896 0.06042 0.15541 0.0
C1417 C 0.98763 0.09093 0.16807 0.0
C1418 C 1.0019 0.10718 0.16685 0.0
C1419 C 1.00134 0.11575 0.15008 0.0
C1420 C 0.01485 0.13107 0.14905 0.0
C1421 C 0.02891 0.13804 0.16476 0.0
C1422 C 0.02948 0.12973 0.18157 0.0
C1423 C 0.01602 0.11439 0.18266 0.0
H1424 H 0.03934 0.14991 0.16394 0.0
H1425 H 0.9103 1.00088 0.17724 0.0
H1426 H 0.36007 0.763 0.50369 0.0
H1427 H 0.35046 0.77212 0.47222 0.0
H1428 H 0.30674 0.72368 0.45876 0.0
H1429 H 0.31735 0.71387 0.48941 0.0
H1430 H 0.31429 0.73104 0.42648 0.0
H1431 H 0.30385 0.76959 0.48253 0.0
H1432 H 0.31229 0.79052 0.51429 0.0
H1433 H 0.34745 0.8298 0.48909 0.0
H1434 H 0.33937 0.80901 0.45723 0.0
H1435 H 0.26044 0.76781 0.35813 0.0
H1436 H 0.27068 0.75626 0.38799 0.0
H1437 H 0.31626 0.80294 0.40218 0.0
H1438 H 0.30515 0.81509 0.37322 0.0
H1439 H 0.30681 0.79571 0.43398 0.0
H1440 H 0.31511 0.75532 0.37646 0.0
H1441 H 0.30381 0.73392 0.34519 0.0
H1442 H 0.26938 0.69732 0.37388 0.0
H1443 H 0.28027 0.71862 0.40524 0.0
C1444 C 0.34896 0.75389 0.49353 0.0
C1445 C 0.33965 0.73758 0.49882 0.0
C1446 C 0.34318 0.75929 0.4757 0.0
C1447 C 0.32735 0.74904 0.46331 0.0
C1448 C 0.31888 0.732 0.46797 0.0
C1449 C 0.32505 0.72628 0.48547 0.0
C1450 C 0.31883 0.75665 0.44648 0.0
C1451 C 0.31258 0.74516 0.42821 0.0
C1452 C 0.31643 0.77508 0.44849 0.0
C1453 C 0.32113 0.78768 0.46757 0.0
C1454 C 0.31343 0.78266 0.4838 0.0
C1455 C 0.31815 0.7945 0.50181 0.0
C1456 C 0.33043 0.81146 0.50372 0.0
C1457 C 0.33796 0.81665 0.4876 0.0
C1458 C 0.33331 0.80486 0.46956 0.0
C1459 C 0.2723 0.77584 0.36805 0.0
C1460 C 0.28184 0.79248 0.36366 0.0
C1461 C 0.27838 0.76908 0.38492 0.0
C1462 C 0.29465 0.77834 0.39716 0.0
C1463 C 0.30374 0.7954 0.39307 0.0
C1464 C 0.29733 0.80244 0.37657 0.0
C1465 C 0.30261 0.77025 0.41387 0.0
C1466 C 0.30866 0.78163 0.43219 0.0
C1467 C 0.30452 0.75164 0.41195 0.0
C1468 C 0.29844 0.73862 0.39317 0.0
C1469 C 0.30512 0.74272 0.37608 0.0
C1470 C 0.29876 0.73063 0.35834 0.0
C1471 C 0.28588 0.71429 0.35757 0.0
C1472 C 0.27935 0.70998 0.37452 0.0
C1473 C 0.28562 0.72205 0.39227 0.0
H1474 H 0.28098 0.70493 0.34385 0.0
H1475 H 0.33407 0.82059 0.51768 0.0
H1476 H 0.56693 0.00781 0.75054 0.0
H1477 H 0.55612 0.01089 0.71695 0.0
H1478 H 0.6031 0.99561 0.69883 0.0
H1479 H 0.61406 0.99252 0.73276 0.0
H1480 H 0.59797 0.02954 0.68939 0.0
H1481 H 0.56052 0.96733 0.68291 0.0
H1482 H 0.53813 0.94387 0.69375 0.0
H1483 H 0.49996 0.97818 0.68888 0.0
H1484 H 0.52217 1.00192 0.67821 0.0
H1485 H 0.57702 0.04118 0.59186 0.0
H1486 H 0.58431 0.02816 0.62152 0.0
H1487 H 0.53163 0.02932 0.63551 0.0
H1488 H 0.52401 0.04115 0.605 0.0
H1489 H 0.53924 1.0012 0.64702 0.0
H1490 H 0.57178 0.06314 0.65818 0.0
H1491 H 0.59172 0.09151 0.65242 0.0
H1492 H 0.63588 0.0646 0.65465 0.0
H1493 H 0.61614 0.03597 0.66018 0.0
C1494 C 0.5747 1.00451 0.73928 0.0
C1495 C 0.59132 0.99985 0.74427 0.0
C1496 C 0.56847 0.00627 0.72005 0.0
C1497 C 0.57874 1.00345 0.70528 0.0
C1498 C 0.5949 0.99778 0.70997 0.0
C1499 C 0.60108 0.99583 0.7293 0.0
C1500 C 0.57358 0.00854 0.68568 0.0
C1501 C 0.58533 0.02301 0.67986 0.0
C1502 C 0.55653 1.00096 0.67391 0.0
C1503 C 0.54305 0.98643 0.67981 0.0
C1504 C 0.54737 0.96989 0.6842 0.0
C1505 C 0.53471 0.95654 0.69032 0.0
C1506 C 0.51764 0.95954 0.69202 0.0
C1507 C 0.51318 0.97586 0.68754 0.0
C1508 C 0.52578 0.98925 0.68141 0.0
C1509 C 0.56697 0.03842 0.6012 0.0
C1510 C 0.54999 0.04214 0.59625 0.0
C1511 C 0.57117 0.03114 0.61827 0.0
C1512 C 0.55874 0.02814 0.63122 0.0
C1513 C 0.54154 0.03148 0.62593 0.0
C1514 C 0.53717 0.03828 0.60852 0.0
C1515 C 0.56387 0.02198 0.65038 0.0
C1516 C 0.55205 0.00753 0.65628 0.0
C1517 C 0.5805 0.03022 0.66282 0.0
C1518 C 0.59243 0.04734 0.65936 0.0
C1519 C 0.58571 0.06322 0.65727 0.0
C1520 C 0.59698 0.07936 0.65408 0.0
C1521 C 0.61504 0.07983 0.65311 0.0
C1522 C 0.62188 0.06419 0.65537 0.0
C1523 C 0.61066 0.04801 0.65855 0.0
H1524 H 0.62376 0.09234 0.65065 0.0
H1525 H 0.50788 0.94921 0.6968 0.0
H1526 H 0.27263 0.43729 0.06887 0.0
H1527 H 0.26039 0.41923 0.03633 0.0
H1528 H 0.31348 0.41283 0.02861 0.0
H1529 H 0.32584 0.43072 0.06114 0.0
H1530 H 0.29371 0.42168 0.99556 0.0
H1531 H 0.28779 0.37938 0.043 0.0
H1532 H 0.27713 0.3686 0.07214 0.0
H1533 H 0.22253 0.36429 0.04572 0.0
H1534 H 0.23293 0.37526 0.01644 0.0
H1535 H 0.3046 0.34089 0.94842 0.0
H1536 H 0.29805 0.3603 0.97611 0.0
H1537 H 0.24755 0.36226 0.9424 0.0
H1538 H 0.25424 0.34312 0.9142 0.0
H1539 H 0.25589 0.35864 0.99191 0.0
H1540 H 0.26526 0.39578 0.93981 0.0
H1541 H 0.28002 0.40369 0.91183 0.0
H1542 H 0.33165 0.41618 0.94864 0.0
H1543 H 0.31722 0.40793 0.97672 0.0
C1544 C 0.28171 0.43212 0.06019 0.0
C1545 C 0.30018 0.43525 0.06756 0.0
C1546 C 0.27469 0.42187 0.04164 0.0
C1547 C 0.28607 0.4148 0.03021 0.0
C1548 C 0.30455 0.41833 0.03729 0.0
C1549 C 0.31156 0.42839 0.05589 0.0
C1550 C 0.2788 0.40267 0.01134 0.0
C1551 C 0.2851 0.40805 0.9946 0.0
C1552 C 0.26742 0.38501 0.0102 0.0
C1553 C 0.26113 0.37838 0.02769 0.0
C1554 C 0.27352 0.37629 0.04349 0.0
C1555 C 0.26753 0.37012 0.06001 0.0
C1556 C 0.24916 0.36585 0.06084 0.0
C1557 C 0.23675 0.36767 0.04509 0.0
C1558 C 0.24268 0.37385 0.02852 0.0
C1559 C 0.29195 0.34517 0.94699 0.0
C1560 C 0.28008 0.34086 0.92911 0.0
C1561 C 0.28818 0.35609 0.96282 0.0
C1562 C 0.27244 0.36274 0.96105 0.0
C1563 C 0.25975 0.35716 0.94386 0.0
C1564 C 0.26358 0.34625 0.92787 0.0
C1565 C 0.27109 0.37757 0.97629 0.0
C1566 C 0.26347 0.37268 0.9925 0.0
C1567 C 0.28146 0.39564 0.97705 0.0
C1568 C 0.29015 0.40111 0.96032 0.0
C1569 C 0.27977 0.40007 0.94189 0.0
C1570 C 0.28807 0.40462 0.92602 0.0
C1571 C 0.30676 0.4104 0.92844 0.0
C1572 C 0.31718 0.41169 0.94677 0.0
C1573 C 0.30894 0.40709 0.96267 0.0
H1574 H 0.31317 0.41391 0.91614 0.0
H1575 H 0.24455 0.36107 0.07365 0.0
H1576 H 0.96315 0.09332 0.33716 0.0
H1577 H 0.97775 0.09409 0.37066 0.0
H1578 H 0.92596 0.07579 0.38732 0.0
H1579 H 0.91127 0.07594 0.35384 0.0
H1580 H 0.94769 0.09775 0.41762 0.0
H1581 H 0.95389 0.04513 0.3729 0.0
H1582 H 0.96275 0.02995 0.34341 0.0
H1583 H 0.01753 0.05951 0.36309 0.0
H1584 H 1.00895 0.07502 0.39258 0.0
H1585 H 0.97988 0.0627 0.5022 0.0
H1586 H 0.96453 0.06689 0.47063 0.0
H1587 H 0.01542 0.07833 0.45006 0.0
H1588 H 0.03041 0.07239 0.48104 0.0
H1589 H 0.99381 0.06034 0.42173 0.0
H1590 H 0.9886 0.11333 0.46611 0.0
H1591 H 0.98056 0.12854 0.49609 0.0
H1592 H 0.92547 0.09957 0.47768 0.0
H1593 H 0.93321 0.08402 0.44768 0.0
C1594 C 0.95483 0.09012 0.34815 0.0
C1595 C 0.93603 0.08479 0.34286 0.0
C1596 C 0.96322 0.09025 0.36729 0.0
C1597 C 0.95309 0.08437 0.38157 0.0
C1598 C 0.93419 0.08025 0.37667 0.0
C1599 C 0.92575 0.0805 0.35752 0.0
C1600 C 0.9622 0.08142 0.40103 0.0
C1601 C 0.95767 0.08944 0.41848 0.0
C1602 C 0.97556 0.07088 0.40245 0.0
C1603 C 0.98075 0.06134 0.38486 0.0
C1604 C 0.96781 0.04844 0.37089 0.0
C1605 C 0.97278 0.03978 0.35418 0.0
C1606 C 0.99068 0.04379 0.35136 0.0
C1607 C 1.00366 0.05643 0.36528 0.0
C1608 C 0.99876 0.06514 0.382 0.0
C1609 C 0.98774 0.06612 0.49089 0.0
C1610 C 1.00635 0.06729 0.49411 0.0
C1611 C 0.97898 0.06874 0.47283 0.0
C1612 C 0.98872 0.07354 0.45781 0.0
C1613 C 1.0074 0.0747 0.46117 0.0
C1614 C 0.01604 0.07137 0.47896 0.0
C1615 C 0.97954 0.07688 0.4385 0.0
C1616 C 0.98398 0.06883 0.421 0.0
C1617 C 0.96628 0.08756 0.43707 0.0
C1618 C 0.9615 0.09745 0.45471 0.0
C1619 C 0.97477 0.11021 0.46846 0.0
C1620 C 0.97028 0.11888 0.48546 0.0
C1621 C 0.95253 0.11502 0.4888 0.0
C1622 C 0.93921 0.10255 0.47508 0.0
C1623 C 0.94363 0.09384 0.45805 0.0
H1624 H 0.9491 0.1217 0.50201 0.0
H1625 H 0.9945 0.03709 0.33841 0.0
H1626 H 0.32331 0.71644 0.61235 0.0
H1627 H 0.31668 0.72806 0.64448 0.0
H1628 H 0.35517 0.77924 0.64667 0.0
H1629 H 0.36123 0.76795 0.61415 0.0
H1630 H 0.35178 0.76057 0.6856 0.0
H1631 H 0.31987 0.78331 0.63134 0.0
H1632 H 0.30006 0.77858 0.59944 0.0
H1633 H 0.25816 0.74398 0.62145 0.0
H1634 H 0.27794 0.74805 0.6533 0.0
H1635 H 0.32274 0.81611 0.76031 0.0
H1636 H 0.33467 0.80474 0.73138 0.0
H1637 H 0.28218 0.77031 0.70682 0.0
H1638 H 0.27011 0.78298 0.73472 0.0
H1639 H 0.29404 0.78042 0.67894 0.0
H1640 H 0.32197 0.75504 0.73111 0.0
H1641 H 0.33962 0.75572 0.76348 0.0
H1642 H 0.38578 0.78926 0.74712 0.0
H1643 H 0.36833 0.78893 0.7147 0.0
C1644 C 0.33095 0.72983 0.62009 0.0
C1645 C 0.34314 0.74111 0.61096 0.0
C1646 C 0.327 0.73654 0.63836 0.0
C1647 C 0.33542 0.75453 0.64801 0.0
C1648 C 0.34861 0.76528 0.6396 0.0
C1649 C 0.35219 0.75876 0.62108 0.0
C1650 C 0.32896 0.76289 0.66553 0.0
C1651 C 0.33924 0.76509 0.68421 0.0
C1652 C 0.31232 0.76822 0.6638 0.0
C1653 C 0.3005 0.76574 0.6446 0.0
C1654 C 0.30655 0.77445 0.62928 0.0
C1655 C 0.29531 0.77191 0.61122 0.0
C1656 C 0.2779 0.76088 0.60838 0.0
C1657 C 0.27169 0.75241 0.62362 0.0
C1658 C 0.28292 0.7548 0.64166 0.0
C1659 C 0.31377 0.80633 0.74853 0.0
C1660 C 0.29547 0.80061 0.74967 0.0
C1661 C 0.32063 0.79957 0.73207 0.0
C1662 C 0.30952 0.7862 0.71683 0.0
C1663 C 0.29118 0.78062 0.7181 0.0
C1664 C 0.28423 0.78788 0.73414 0.0
C1665 C 0.3167 0.77806 0.69947 0.0
C1666 C 0.30657 0.77591 0.68064 0.0
C1667 C 0.33316 0.77214 0.70121 0.0
C1668 C 0.34379 0.77211 0.72055 0.0
C1669 C 0.33586 0.76262 0.73445 0.0
C1670 C 0.34583 0.76295 0.75281 0.0
C1671 C 0.36379 0.77259 0.75739 0.0
C1672 C 0.37185 0.78183 0.74357 0.0
C1673 C 0.36194 0.78156 0.72519 0.0
H1674 H 0.37147 0.77285 0.77163 0.0
H1675 H 0.26921 0.75897 0.5944 0.0
H1676 H 0.61747 1.00206 0.8672 0.0
H1677 H 0.60661 0.00919 0.89812 0.0
H1678 H 0.55293 1.00158 0.86636 0.0
H1679 H 0.56384 0.99489 0.83557 0.0
H1680 H 0.56464 0.03566 0.88713 0.0
H1681 H 0.56329 0.97317 0.90013 0.0
H1682 H 0.5761 0.94609 0.9047 0.0
H1683 H 0.61668 0.97939 0.951 0.0
H1684 H 0.6043 0.0067 0.94647 0.0
H1685 H 0.51781 0.04794 0.9686 0.0
H1686 H 0.52842 0.03653 0.93876 0.0
H1687 H 0.58259 0.04925 0.97032 0.0
H1688 H 0.57215 0.05995 1.00024 0.0
H1689 H 0.57096 0.01229 0.95034 0.0
H1690 H 0.57436 0.07408 0.93906 0.0
H1691 H 0.56385 0.10264 0.93572 0.0
H1692 H 0.5233 0.07338 0.88731 0.0
H1693 H 0.53337 0.04451 0.89058 0.0
C1694 C 0.60321 1.00098 0.86697 0.0
C1695 C 0.59145 0.99784 0.84907 0.0
C1696 C 0.59702 0.00522 0.88462 0.0
C1697 C 0.57897 0.00612 0.88454 0.0
C1698 C 0.56693 1.00112 0.86678 0.0
C1699 C 0.57312 0.99708 0.84921 0.0
C1700 C 0.57308 0.0147 0.90222 0.0
C1701 C 0.56578 0.03035 0.90087 0.0
C1702 C 0.57533 0.00836 0.92041 0.0
C1703 C 0.58292 0.99199 0.9229 0.0
C1704 C 0.57504 0.97474 0.91117 0.0
C1705 C 0.58221 0.95935 0.91377 0.0
C1706 C 0.59721 0.96102 0.92811 0.0
C1707 C 0.60507 0.9781 0.93989 0.0
C1708 C 0.59796 0.99353 0.93734 0.0
C1709 C 0.53201 0.04849 0.96911 0.0
C1710 C 0.54411 0.05467 0.98681 0.0
C1711 C 0.53804 0.04192 0.95209 0.0
C1712 C 0.55624 0.04161 0.95252 0.0
C1713 C 0.56843 0.04873 0.96989 0.0
C1714 C 0.56244 0.05508 0.98691 0.0
C1715 C 0.56249 0.03309 0.93514 0.0
C1716 C 0.56987 0.01756 0.93658 0.0
C1717 C 0.56072 0.03979 0.91716 0.0
C1718 C 0.55446 0.05706 0.91524 0.0
C1719 C 0.56305 0.07366 0.92786 0.0
C1720 C 0.55721 0.08993 0.92594 0.0
C1721 C 0.54287 0.08981 0.91136 0.0
C1722 C 0.53437 0.07343 0.89863 0.0
C1723 C 0.54014 0.05711 0.90051 0.0
H1724 H 0.53838 0.10243 0.90988 0.0
H1725 H 0.60273 0.94909 0.93011 0.0
H1726 H 0.32253 0.42343 0.17066 0.0
H1727 H 0.30716 0.39647 0.18271 0.0
H1728 H 0.25654 0.4117 0.16875 0.0
H1729 H 0.27186 0.43887 0.15622 0.0
H1730 H 0.26477 0.39956 0.20723 0.0
H1731 H 0.25979 0.37827 0.13926 0.0
H1732 H 0.27036 0.37538 0.10748 0.0
H1733 H 0.31066 0.34841 0.13072 0.0
H1734 H 0.30056 0.35143 0.16275 0.0
H1735 H 0.25103 0.31852 0.24903 0.0
H1736 H 0.24265 0.33415 0.22155 0.0
H1737 H 0.29705 0.34264 0.20986 0.0
H1738 H 0.30544 0.32748 0.2374 0.0
H1739 H 0.27254 0.33883 0.17612 0.0
H1740 H 0.28715 0.37208 0.24327 0.0
H1741 H 0.28311 0.38024 0.27748 0.0
H1742 H 0.23033 0.38786 0.25772 0.0
H1743 H 0.23396 0.37939 0.22336 0.0
C1744 C 0.30817 0.4213 0.17041 0.0
C1745 C 0.2984 0.4332 0.16232 0.0
C1746 C 0.2994 0.40577 0.17712 0.0
C1747 C 0.2807 0.40187 0.17599 0.0
C1748 C 0.27097 0.4144 0.16936 0.0
C1749 C 0.27977 0.42999 0.16246 0.0
C1750 C 0.27182 0.38465 0.18212 0.0
C1751 C 0.26568 0.3861 0.20006 0.0
C1752 C 0.27338 0.36723 0.1728 0.0
C1753 C 0.27937 0.36507 0.15344 0.0
C1754 C 0.27096 0.37179 0.13763 0.0
C1755 C 0.27687 0.37012 0.11955 0.0
C1756 C 0.29116 0.36169 0.11706 0.0
C1757 C 0.29956 0.35489 0.13265 0.0
C1758 C 0.29371 0.35655 0.15076 0.0
C1759 C 0.26093 0.323 0.23999 0.0
C1760 C 0.27889 0.32202 0.24527 0.0
C1761 C 0.25615 0.33196 0.22437 0.0
C1762 C 0.26929 0.33972 0.21385 0.0
C1763 C 0.2867 0.33671 0.21776 0.0
C1764 C 0.29152 0.32812 0.23352 0.0
C1765 C 0.26644 0.35399 0.20175 0.0
C1766 C 0.27045 0.35201 0.1827 0.0
C1767 C 0.26341 0.37109 0.21025 0.0
C1768 C 0.26067 0.37476 0.23082 0.0
C1769 C 0.27455 0.37513 0.24625 0.0
C1770 C 0.27237 0.37989 0.26564 0.0
C1771 C 0.2565 0.38458 0.26974 0.0
C1772 C 0.24262 0.3842 0.2545 0.0
C1773 C 0.24469 0.37936 0.23508 0.0
H1774 H 0.25508 0.38875 0.2847 0.0
H1775 H 0.29574 0.36043 0.10307 0.0
H1776 H 0.16568 0.92687 0.05346 0.0
H1777 H 0.14225 0.94455 0.05526 0.0
H1778 H 0.18299 0.99476 0.076 0.0
H1779 H 0.20622 0.97716 0.0749 0.0
H1780 H 0.15836 0.99623 0.09617 0.0
H1781 H 0.15682 0.98226 0.02687 0.0
H1782 H 0.1541 0.96268 0.99487 0.0
H1783 H 0.10122 0.93396 1.00042 0.0
H1784 H 0.1037 0.95325 0.03256 0.0
H1785 H 0.09949 0.05897 0.07792 0.0
H1786 H 0.12352 0.04179 0.0784 0.0
H1787 H 0.0838 0.99027 0.06661 0.0
H1788 H 0.05997 0.00711 0.06632 0.0
H1789 H 0.10797 0.99001 0.04183 0.0
H1790 H 0.10994 0.00512 0.11127 0.0
H1791 H 0.11287 0.02585 0.14257 0.0
H1792 H 0.16563 0.05381 0.13578 0.0
H1793 H 0.16291 0.0334 0.10428 0.0
C1794 C 0.16964 0.94169 0.05829 0.0
C1795 C 0.18794 0.9505 0.06401 0.0
C1796 C 0.15619 0.95188 0.05925 0.0
C1797 C 0.16066 0.97121 0.06559 0.0
C1798 C 0.17896 0.97994 0.07113 0.0
C1799 C 0.19233 0.96979 0.07041 0.0
C1800 C 0.14649 0.9824 0.06688 0.0
C1801 C 0.14751 0.99499 0.08411 0.0
C1802 C 0.13198 0.9808 0.05143 0.0
C1803 C 0.13053 0.96906 0.03222 0.0
C1804 C 0.14467 0.97166 0.02134 0.0
C1805 C 0.14316 0.96064 0.00316 0.0
C1806 C 0.12752 0.94705 0.99564 0.0
C1807 C 0.11334 0.94447 0.00627 0.0
C1808 C 0.11479 0.95545 0.02446 0.0
C1809 C 0.09588 0.044 0.07587 0.0
C1810 C 0.07766 0.03456 0.07208 0.0
C1811 C 0.10967 0.03414 0.07604 0.0
C1812 C 0.10557 0.01461 0.0724 0.0
C1813 C 0.08743 0.00526 0.06928 0.0
C1814 C 0.07375 0.01503 0.06923 0.0
C1815 C 0.11991 1.00375 0.07105 0.0
C1816 C 0.11888 0.99124 0.05383 0.0
C1817 C 0.13449 0.00557 0.0864 0.0
C1818 C 0.13613 0.01788 0.1053 0.0
C1819 C 0.1221 0.01581 0.11636 0.0
C1820 C 0.12373 0.02747 0.13416 0.0
C1821 C 0.1394 0.04117 0.14113 0.0
C1822 C 0.15349 0.04321 0.13034 0.0
C1823 C 0.15191 0.03159 0.11252 0.0
H1824 H 0.14065 0.05018 0.15492 0.0
H1825 H 0.12636 0.93854 0.98156 0.0
H1826 H 0.68271 0.62299 0.96403 0.0
H1827 H 0.65669 0.60582 0.97542 0.0
H1828 H 0.69171 0.58674 0.01772 0.0
H1829 H 0.71793 0.60367 0.00604 0.0
H1830 H 0.65476 0.56187 0.00323 0.0
H1831 H 0.68534 0.62415 0.03367 0.0
H1832 H 0.69983 0.65671 0.03344 0.0
H1833 H 0.65056 0.66511 0.0033 0.0
H1834 H 0.63589 0.63247 0.00299 0.0
H1835 H 0.59202 0.58915 0.07502 0.0
H1836 H 0.62099 0.58926 0.06389 0.0
H1837 H 0.59369 0.57349 0.00412 0.0
H1838 H 0.56485 0.57265 0.0151 0.0
H1839 H 0.6299 0.61327 0.03249 0.0
H1840 H 0.60408 0.54651 0.99493 0.0
H1841 H 0.5906 0.5141 0.9971 0.0
H1842 H 0.63252 0.51501 0.04462 0.0
H1843 H 0.64589 0.54766 0.04311 0.0
C1844 C 0.68483 0.61443 0.97511 0.0
C1845 C 0.70223 0.61485 0.98443 0.0
C1846 C 0.66998 0.60461 0.98157 0.0
C1847 C 0.67239 0.59541 0.99765 0.0
C1848 C 0.68967 0.59381 0.00529 0.0
C1849 C 0.70461 0.60348 0.99862 0.0
C1850 C 0.65756 0.59143 0.00886 0.0
C1851 C 0.64938 0.57307 0.00975 0.0
C1852 C 0.65085 0.60611 0.01775 0.0
C1853 C 0.65957 0.62582 0.01814 0.0
C1854 C 0.67764 0.63289 0.02684 0.0
C1855 C 0.68588 0.65137 0.02683 0.0
C1856 C 0.67613 0.66296 0.01833 0.0
C1857 C 0.6581 0.6561 0.00986 0.0
C1858 C 0.64982 0.63762 0.00977 0.0
C1859 C 0.59227 0.58547 0.05955 0.0
C1860 C 0.57633 0.58098 0.04586 0.0
C1861 C 0.60871 0.58531 0.05327 0.0
C1862 C 0.60932 0.5807 0.03328 0.0
C1863 C 0.59338 0.57621 0.01967 0.0
C1864 C 0.57698 0.57607 0.02593 0.0
C1865 C 0.62662 0.58374 0.02616 0.0
C1866 C 0.63538 0.60205 0.02617 0.0
C1867 C 0.63384 0.56907 0.01828 0.0
C1868 C 0.62571 0.54959 0.0192 0.0
C1869 C 0.61021 0.53991 0.00608 0.0
C1870 C 0.60263 0.52148 0.00714 0.0
C1871 C 0.61064 0.51253 0.02106 0.0
C1872 C 0.62626 0.52199 0.03394 0.0
C1873 C 0.63379 0.54047 0.03303 0.0
H1874 H 0.60482 0.49824 0.02181 0.0
H1875 H 0.68253 0.67726 0.01834 0.0
H1876 H 0.71256 0.50199 0.31135 0.0
H1877 H 0.72887 0.47687 0.30845 0.0
H1878 H 0.68182 0.43805 0.31636 0.0
H1879 H 0.6658 0.46279 0.31949 0.0
H1880 H 0.70799 0.42863 0.33544 0.0
H1881 H 0.69933 0.44184 0.26959 0.0
H1882 H 0.70197 0.46124 0.24367 0.0
H1883 H 0.75949 0.47329 0.25843 0.0
H1884 H 0.75718 0.45412 0.28459 0.0
H1885 H 0.7337 0.34353 0.30686 0.0
H1886 H 0.71947 0.36991 0.3093 0.0
H1887 H 0.76785 0.40513 0.29904 0.0
H1888 H 0.78194 0.3785 0.29607 0.0
H1889 H 0.74237 0.41734 0.28182 0.0
H1890 H 0.75171 0.40489 0.34724 0.0
H1891 H 0.75008 0.38652 0.37395 0.0
H1892 H 0.69242 0.37404 0.3612 0.0
H1893 H 0.69375 0.39234 0.33423 0.0
C1894 C 0.70565 0.48813 0.3125 0.0
C1895 C 0.68759 0.48486 0.31568 0.0
C1896 C 0.71503 0.47352 0.31067 0.0
C1897 C 0.70681 0.45495 0.3119 0.0
C1898 C 0.68889 0.45188 0.31531 0.0
C1899 C 0.67957 0.46633 0.31705 0.0
C1900 C 0.71648 0.43873 0.30993 0.0
C1901 C 0.71527 0.42618 0.32347 0.0
C1902 C 0.72667 0.43518 0.29482 0.0
C1903 C 0.72807 0.44672 0.27918 0.0
C1904 C 0.71253 0.44874 0.2674 0.0
C1905 C 0.71397 0.45967 0.25265 0.0
C1906 C 0.73088 0.46854 0.24945 0.0
C1907 C 0.7464 0.46645 0.26095 0.0
C1908 C 0.74503 0.45554 0.27573 0.0
C1909 C 0.7414 0.35681 0.30501 0.0
C1910 C 0.75918 0.35843 0.30121 0.0
C1911 C 0.7332 0.37221 0.30664 0.0
C1912 C 0.74241 0.39021 0.30484 0.0
C1913 C 0.76009 0.39176 0.30064 0.0
C1914 C 0.76828 0.37631 0.29893 0.0
C1915 C 0.73372 0.40715 0.30723 0.0
C1916 C 0.7351 0.4198 0.29379 0.0
C1917 C 0.72376 0.4109 0.32251 0.0
C1918 C 0.72284 0.39979 0.33858 0.0
C1919 C 0.73868 0.39811 0.35004 0.0
C1920 C 0.7378 0.38772 0.36526 0.0
C1921 C 0.72114 0.37899 0.36923 0.0
C1922 C 0.70532 0.38076 0.35806 0.0
C1923 C 0.70613 0.39116 0.34282 0.0
H1924 H 0.72046 0.37087 0.38095 0.0
H1925 H 0.73197 0.47699 0.23802 0.0
H1926 H 0.76471 0.45406 0.54052 0.0
H1927 H 0.79357 0.47492 0.53983 0.0
H1928 H 0.81467 0.46401 0.59641 0.0
H1929 H 0.78609 0.44246 0.59675 0.0
H1930 H 0.82359 0.50601 0.58102 0.0
H1931 H 0.82939 0.44169 0.57578 0.0
H1932 H 0.81839 0.40827 0.56359 0.0
H1933 H 0.8149 0.41866 0.50431 0.0
H1934 H 0.82547 0.45223 0.51621 0.0
H1935 H 0.91644 0.53179 0.56881 0.0
H1936 H 0.88857 0.51754 0.57938 0.0
H1937 H 0.86378 0.49839 0.51904 0.0
H1938 H 0.89145 0.51272 0.50837 0.0
H1939 H 0.85795 0.47125 0.5407 0.0
H1940 H 0.85447 0.53571 0.54654 0.0
H1941 H 0.8649 0.56914 0.55901 0.0
H1942 H 0.86465 0.55864 0.61799 0.0
H1943 H 0.85443 0.52511 0.60587 0.0
C1944 C 0.77526 0.45673 0.55315 0.0
C1945 C 0.77329 0.4468 0.56872 0.0
C1946 C 0.79173 0.46852 0.55269 0.0
C1947 C 0.80617 0.4708 0.56801 0.0
C1948 C 0.80363 0.46236 0.5845 0.0
C1949 C 0.78733 0.45017 0.5847 0.0
C1950 C 0.82441 0.4796 0.56531 0.0
C1951 C 0.83132 0.49843 0.57251 0.0
C1952 C 0.83428 0.46961 0.5541 0.0
C1953 C 0.82787 0.44948 0.54688 0.0
C1954 C 0.82599 0.43687 0.56016 0.0
C1955 C 0.8199 0.4179 0.5533 0.0
C1956 C 0.81586 0.41135 0.53318 0.0
C1957 C 0.81795 0.42377 0.51989 0.0
C1958 C 0.82397 0.44277 0.52668 0.0
C1959 C 0.90497 0.52476 0.55778 0.0
C1960 C 0.90617 0.5234 0.53772 0.0
C1961 C 0.88908 0.51658 0.56386 0.0
C1962 C 0.87407 0.507 0.54999 0.0
C1963 C 0.87523 0.50567 0.52999 0.0
C1964 C 0.89107 0.51382 0.52391 0.0
C1965 C 0.85721 0.49793 0.55611 0.0
C1966 C 0.85047 0.47892 0.54948 0.0
C1967 C 0.84766 0.50777 0.56805 0.0
C1968 C 0.8539 0.5279 0.57531 0.0
C1969 C 0.8568 0.54052 0.56218 0.0
C1970 C 0.86264 0.55949 0.56918 0.0
C1971 C 0.86549 0.566 0.58929 0.0
C1972 C 0.86247 0.55357 0.60243 0.0
C1973 C 0.85665 0.53459 0.5955 0.0
H1974 H 0.86999 0.58069 0.59468 0.0
H1975 H 0.81118 0.39666 0.5279 0.0
H1976 H 0.3998 0.15704 0.26694 0.0
H1977 H 0.37873 0.1764 0.25833 0.0
H1978 H 0.37149 0.18616 0.31866 0.0
H1979 H 0.39195 0.16646 0.32716 0.0
H1980 H 0.34019 0.1785 0.29607 0.0
H1981 H 0.39912 0.21648 0.2926 0.0
H1982 H 0.42687 0.22344 0.27844 0.0
H1983 H 0.39589 0.22366 0.22264 0.0
H1984 H 0.3679 0.21608 0.23627 0.0
H1985 H 0.32493 0.27299 0.30753 0.0
H1986 H 0.34226 0.24929 0.30453 0.0
H1987 H 0.30441 0.21949 0.25377 0.0
H1988 H 0.2866 0.24323 0.25695 0.0
H1989 H 0.35546 0.2343 0.26495 0.0
H1990 H 0.29794 0.19031 0.26407 0.0
H1991 H 0.26909 0.17923 0.27497 0.0
H1992 H 0.29624 0.18723 0.33434 0.0
H1993 H 0.32518 0.19898 0.32381 0.0
C1994 C 0.39379 0.1634 0.27839 0.0
C1995 C 0.39765 0.16015 0.29779 0.0
C1996 C 0.38173 0.17454 0.27344 0.0
C1997 C 0.3735 0.183 0.28783 0.0
C1998 C 0.37752 0.17984 0.3072 0.0
C1999 C 0.38934 0.16857 0.31208 0.0
C2000 C 0.36044 0.19485 0.2831 0.0
C2001 C 0.34362 0.19066 0.2892 0.0
C2002 C 0.36439 0.21041 0.27337 0.0
C2003 C 0.38135 0.21533 0.2654 0.0
C2004 C 0.39818 0.21769 0.27723 0.0
C2005 C 0.41397 0.22173 0.26928 0.0
C2006 C 0.41312 0.22374 0.24959 0.0
C2007 C 0.39651 0.22192 0.23785 0.0
C2008 C 0.38068 0.21772 0.24568 0.0
C2009 C 0.32027 0.26152 0.29559 0.0
C2010 C 0.30434 0.2602 0.28242 0.0
C2011 C 0.33019 0.24785 0.29398 0.0
C2012 C 0.32455 0.23236 0.27916 0.0
C2013 C 0.30884 0.23104 0.26567 0.0
C2014 C 0.29871 0.24471 0.26742 0.0
C2015 C 0.33547 0.21796 0.27819 0.0
C2016 C 0.35197 0.22185 0.27136 0.0
C2017 C 0.33107 0.20177 0.28663 0.0
C2018 C 0.31361 0.19608 0.29323 0.0
C2019 C 0.29767 0.19024 0.27952 0.0
C2020 C 0.28133 0.18368 0.2856 0.0
C2021 C 0.28081 0.1826 0.30535 0.0
C2022 C 0.29665 0.18811 0.31905 0.0
C2023 C 0.313 0.19483 0.31305 0.0
H2024 H 0.26816 0.17745 0.31003 0.0
H2025 H 0.42535 0.22685 0.24347 0.0
H2026 H 0.28902 0.08844 0.50052 0.0
H2027 H 0.31742 0.08361 0.5167 0.0
H2028 H 0.34193 0.14141 0.51975 0.0
H2029 H 0.3138 0.14625 0.50306 0.0
H2030 H 0.36499 0.12105 0.51171 0.0
H2031 H 0.32721 0.12561 0.55966 0.0
H2032 H 0.29931 0.11869 0.57359 0.0
H2033 H 0.30313 0.06208 0.57189 0.0
H2034 H 0.33091 0.06859 0.55767 0.0
H2035 H 0.43951 0.10539 0.57392 0.0
H2036 H 0.41396 0.11933 0.56544 0.0
H2037 H 0.37842 0.06506 0.55328 0.0
H2038 H 0.40377 0.05118 0.56162 0.0
H2039 H 0.36271 0.09019 0.57039 0.0
H2040 H 0.39829 0.08604 0.51717 0.0
H2041 H 0.4261 0.09386 0.50319 0.0
H2042 H 0.42675 0.15168 0.51629 0.0
H2043 H 0.39904 0.1442 0.53054 0.0
C2044 C 0.30051 0.10006 0.50441 0.0
C2045 C 0.29911 0.11774 0.5007 0.0
C2046 C 0.3167 0.09732 0.51377 0.0
C2047 C 0.33163 0.11227 0.51988 0.0
C2048 C 0.33053 0.12973 0.51531 0.0
C2049 C 0.31442 0.13244 0.50576 0.0
C2050 C 0.34819 0.10971 0.53152 0.0
C2051 C 0.36456 0.1146 0.52474 0.0
C2052 C 0.34766 0.10149 0.54864 0.0
C2053 C 0.3311 0.09757 0.55749 0.0
C2054 C 0.32205 0.11166 0.56216 0.0
C2055 C 0.30626 0.10781 0.57011 0.0
C2056 C 0.29944 0.08995 0.57359 0.0
C2057 C 0.30843 0.07591 0.56918 0.0
C2058 C 0.32421 0.07968 0.5612 0.0
C2059 C 0.42619 0.09652 0.56964 0.0
C2060 C 0.42363 0.0772 0.56813 0.0
C2061 C 0.41164 0.10448 0.56486 0.0
C2062 C 0.39437 0.09317 0.55836 0.0
C2063 C 0.39165 0.07403 0.55822 0.0
C2064 C 0.40614 0.0661 0.56306 0.0
C2065 C 0.37928 0.10072 0.55005 0.0
C2066 C 0.36318 0.09693 0.55756 0.0
C2067 C 0.38013 0.11013 0.53374 0.0
C2068 C 0.39671 0.11457 0.52508 0.0
C2069 C 0.40443 0.10042 0.51716 0.0
C2070 C 0.42016 0.10479 0.50917 0.0
C2071 C 0.42818 0.12325 0.50885 0.0
C2072 C 0.42051 0.13739 0.51654 0.0
C2073 C 0.4048 0.13309 0.52457 0.0
H2074 H 0.44034 0.1266 0.50263 0.0
H2075 H 0.2872 0.087 0.57973 0.0
H2076 H 0.69214 0.61478 0.35063 0.0
H2077 H 0.70855 0.64561 0.34761 0.0
H2078 H 0.71842 0.62418 0.29078 0.0
H2079 H 0.70258 0.59292 0.29431 0.0
H2080 H 0.74617 0.65091 0.30647 0.0
H2081 H 0.68274 0.64908 0.29992 0.0
H2082 H 0.65299 0.64385 0.31027 0.0
H2083 H 0.67443 0.68414 0.3621 0.0
H2084 H 0.70435 0.68945 0.35217 0.0
H2085 H 0.7661 0.74033 0.27569 0.0
H2086 H 0.75447 0.70825 0.28001 0.0
H2087 H 0.74056 0.728 0.33542 0.0
H2088 H 0.7515 0.76004 0.33054 0.0
H2089 H 0.71503 0.70175 0.31998 0.0
H2090 H 0.77815 0.70385 0.32756 0.0
H2091 H 0.80836 0.70918 0.31837 0.0
H2092 H 0.78836 0.66895 0.26623 0.0
H2093 H 0.75798 0.66353 0.27501 0.0
C2094 C 0.69828 0.61645 0.33772 0.0
C2095 C 0.69623 0.60104 0.32294 0.0
C2096 C 0.70745 0.63434 0.33578 0.0
C2097 C 0.71445 0.63785 0.31862 0.0
C2098 C 0.7132 0.62227 0.30419 0.0
C2099 C 0.70423 0.6042 0.30629 0.0
C2100 C 0.72242 0.65764 0.31562 0.0
C2101 C 0.73916 0.66191 0.30921 0.0
C2102 C 0.71383 0.67256 0.31952 0.0
C2103 C 0.6958 0.66954 0.32537 0.0
C2104 C 0.68112 0.65676 0.31356 0.0
C2105 C 0.66423 0.65378 0.31936 0.0
C2106 C 0.66184 0.66362 0.33686 0.0
C2107 C 0.67631 0.67651 0.34856 0.0
C2108 C 0.69322 0.67953 0.34285 0.0
C2109 C 0.76089 0.73781 0.28898 0.0
C2110 C 0.7602 0.75291 0.30298 0.0
C2111 C 0.7542 0.7193 0.29153 0.0
C2112 C 0.74674 0.71511 0.30832 0.0
C2113 C 0.74617 0.73035 0.32232 0.0
C2114 C 0.75265 0.74884 0.31963 0.0
C2115 C 0.73891 0.69515 0.311 0.0
C2116 C 0.72212 0.69081 0.31728 0.0
C2117 C 0.74753 0.68024 0.30713 0.0
C2118 C 0.76577 0.68342 0.30185 0.0
C2119 C 0.78018 0.69623 0.31408 0.0
C2120 C 0.79733 0.69925 0.30895 0.0
C2121 C 0.80026 0.68945 0.29171 0.0
C2122 C 0.78606 0.67655 0.27958 0.0
C2123 C 0.76888 0.67349 0.28463 0.0
H2124 H 0.81355 0.69181 0.28776 0.0
H2125 H 0.64876 0.66129 0.34133 0.0
H2126 H 0.90346 0.5499 0.75876 0.0
H2127 H 0.88099 0.52174 0.75971 0.0
H2128 H 0.86678 0.54859 0.81189 0.0
H2129 H 0.88862 0.57703 0.81046 0.0
H2130 H 0.88486 0.50576 0.79802 0.0
H2131 H 0.83476 0.54233 0.80221 0.0
H2132 H 0.81969 0.56414 0.78667 0.0
H2133 H 0.81219 0.52961 0.7307 0.0
H2134 H 0.82768 0.50787 0.74592 0.0
H2135 H 0.82902 0.44197 0.84013 0.0
H2136 H 0.845 0.47045 0.83101 0.0
H2137 H 0.81447 0.45479 0.77256 0.0
H2138 H 0.79824 0.42625 0.78173 0.0
H2139 H 0.81817 0.49086 0.78469 0.0
H2140 H 0.85742 0.44969 0.78128 0.0
H2141 H 0.87465 0.42737 0.79196 0.0
H2142 H 0.90488 0.4683 0.84018 0.0
H2143 H 0.88766 0.4908 0.82995 0.0
C2144 C 0.89504 0.54995 0.76999 0.0
C2145 C 0.89756 0.56556 0.78445 0.0
C2146 C 0.88229 0.53391 0.77053 0.0
C2147 C 0.87209 0.53326 0.78568 0.0
C2148 C 0.87412 0.54907 0.79973 0.0
C2149 C 0.8866 0.56526 0.79893 0.0
C2150 C 0.86124 0.5154 0.78838 0.0
C2151 C 0.87027 0.5025 0.79532 0.0
C2152 C 0.84234 0.511 0.78404 0.0
C2153 C 0.8325 0.52365 0.77513 0.0
C2154 C 0.83002 0.5395 0.78658 0.0
C2155 C 0.82142 0.55184 0.77784 0.0
C2156 C 0.81502 0.54829 0.7577 0.0
C2157 C 0.81719 0.53237 0.74628 0.0
C2158 C 0.82591 0.52006 0.75495 0.0
C2159 C 0.82573 0.44455 0.82532 0.0
C2160 C 0.81251 0.43177 0.81157 0.0
C2161 C 0.83487 0.46083 0.82012 0.0
C2162 C 0.83117 0.46458 0.801 0.0
C2163 C 0.81758 0.45214 0.78738 0.0
C2164 C 0.80831 0.43586 0.79263 0.0
C2165 C 0.84176 0.48137 0.79534 0.0
C2166 C 0.83274 0.49402 0.78757 0.0
C2167 C 0.86079 0.48541 0.79862 0.0
C2168 C 0.87112 0.47188 0.80494 0.0
C2169 C 0.86763 0.45389 0.79427 0.0
C2170 C 0.87742 0.44121 0.80022 0.0
C2171 C 0.89082 0.4464 0.81677 0.0
C2172 C 0.89448 0.46429 0.82738 0.0
C2173 C 0.88472 0.47702 0.8215 0.0
H2174 H 0.89839 0.43657 0.82135 0.0
H2175 H 0.80836 0.55785 0.75096 0.0
H2176 H 1.0065 0.81679 0.14679 0.0
H2177 H 1.00525 0.84141 0.12707 0.0
H2178 H 0.03729 0.88154 0.17552 0.0
H2179 H 0.03783 0.85689 0.19549 0.0
H2180 H 0.01406 0.89661 0.15733 0.0
H2181 H 0.0558 0.86251 0.13693 0.0
H2182 H 0.06702 0.83514 0.12544 0.0
H2183 H 0.02835 0.82379 0.07257 0.0
H2184 H 0.01669 0.85093 0.08388 0.0
H2185 H 0.03731 0.96473 0.09803 0.0
H2186 H 0.04093 0.94125 0.1186 0.0
H2187 H 1.0037 0.89973 0.0753 0.0
H2188 H 1.00007 0.92319 0.05458 0.0
H2189 H 0.03188 0.8865 0.09178 0.0
H2190 H 0.98993 0.92145 0.11492 0.0
H2191 H 0.98134 0.95029 0.12711 0.0
H2192 H 0.02426 0.96152 0.17611 0.0
H2193 H 0.03327 0.93288 0.16405 0.0
C2194 C 0.01271 0.83099 0.15339 0.0
C2195 C 0.02194 0.8351 0.17271 0.0
C2196 C 0.01228 0.845 0.14203 0.0
C2197 C 0.02159 0.86329 0.14961 0.0
C2198 C 0.03006 0.86754 0.1693 0.0
C2199 C 0.03024 0.85352 0.18077 0.0
C2200 C 0.02292 0.8778 0.1368 0.0
C2201 C 0.01819 0.89445 0.14312 0.0
C2202 C 0.02831 0.87507 0.11819 0.0
C2203 C 0.03524 0.85867 0.11136 0.0
C2204 C 0.04957 0.85409 0.12293 0.0
C2205 C 0.05604 0.83863 0.11644 0.0
C2206 C 0.04837 0.8277 0.09831 0.0
C2207 C 0.03426 0.83224 0.08662 0.0
C2208 C 0.02772 0.84767 0.09307 0.0
C2209 C 0.02994 0.95057 0.09285 0.0
C2210 C 0.01815 0.94586 0.07482 0.0
C2211 C 0.03205 0.93717 0.10461 0.0
C2212 C 0.02228 0.91881 0.09869 0.0
C2213 C 0.0113 0.91384 0.08021 0.0
C2214 C 1.00925 0.92725 0.06837 0.0
C2215 C 0.02265 0.90503 0.11219 0.0
C2216 C 0.02779 0.88858 0.10602 0.0
C2217 C 0.01798 0.90808 0.13109 0.0
C2218 C 0.01235 0.92511 0.1385 0.0
C2219 C 0.99759 0.93013 0.12824 0.0
C2220 C 0.99264 0.94643 0.13512 0.0
C2221 C 1.00227 0.95775 0.15235 0.0
C2222 C 0.01683 0.95276 0.16276 0.0
C2223 C 0.02185 0.93648 0.15591 0.0
H2224 H 0.99842 0.97038 0.15765 0.0
H2225 H 0.0534 0.81575 0.0933 0.0
H2226 H 0.99006 0.32909 0.84172 0.0
H2227 H 0.95955 0.3286 0.82534 0.0
H2228 H 0.93747 0.29081 0.86235 0.0
H2229 H 0.96725 0.28948 0.87636 0.0
H2230 H 0.91547 0.28272 0.83527 0.0
H2231 H 0.94337 0.34413 0.86859 0.0
H2232 H 0.96534 0.37418 0.87665 0.0
H2233 H 0.95229 0.38435 0.8179 0.0
H2234 H 0.93037 0.35428 0.80945 0.0
H2235 H 0.83704 0.31723 0.85025 0.0
H2236 H 0.86825 0.31432 0.85388 0.0
H2237 H 0.86833 0.31734 0.7927 0.0
H2238 H 0.83662 0.31988 0.78883 0.0
H2239 H 0.90044 0.34267 0.82626 0.0
H2240 H 0.86635 0.27827 0.80076 0.0
H2241 H 0.84227 0.25168 0.80323 0.0
H2242 H 0.86647 0.25174 0.86233 0.0
H2243 H 0.89054 0.27846 0.86028 0.0
C2244 C 0.97866 0.31997 0.84551 0.0
C2245 C 0.98124 0.30925 0.86033 0.0
C2246 C 0.96107 0.3201 0.83658 0.0
C2247 C 0.94571 0.31014 0.84287 0.0
C2248 C 0.9486 0.29864 0.8568 0.0
C2249 C 0.96591 0.2979 0.86497 0.0
C2250 C 0.92668 0.31184 0.83593 0.0
C2251 C 0.91248 0.296 0.8335 0.0
C2252 C 0.92205 0.32896 0.8334 0.0
C2253 C 0.93546 0.34684 0.83831 0.0
C2254 C 0.94532 0.35271 0.85735 0.0
C2255 C 0.95773 0.36975 0.862 0.0
C2256 C 0.96027 0.38112 0.84776 0.0
C2257 C 0.95036 0.37549 0.82888 0.0
C2258 C 0.93795 0.35846 0.82415 0.0
C2259 C 0.84363 0.31726 0.83749 0.0
C2260 C 0.8343 0.31883 0.81923 0.0
C2261 C 0.86154 0.31562 0.83963 0.0
C2262 C 0.87075 0.31575 0.82363 0.0
C2263 C 0.86153 0.31732 0.8053 0.0
C2264 C 0.84339 0.31864 0.80306 0.0
C2265 C 0.88985 0.31379 0.82624 0.0
C2266 C 0.90384 0.32952 0.82787 0.0
C2267 C 0.89431 0.29692 0.82952 0.0
C2268 C 0.88022 0.28037 0.83035 0.0
C2269 C 0.8665 0.27263 0.81428 0.0
C2270 C 0.85286 0.25754 0.81561 0.0
C2271 C 0.85284 0.25003 0.83292 0.0
C2272 C 0.86651 0.25754 0.84892 0.0
C2273 C 0.88018 0.27263 0.84766 0.0
H2274 H 0.84224 0.23839 0.83394 0.0
H2275 H 0.96987 0.39431 0.85137 0.0
H2276 H 0.51105 0.23102 0.69078 0.0
H2277 H 0.50867 0.19999 0.67259 0.0
H2278 H 0.51548 0.22338 0.62004 0.0
H2279 H 0.51765 0.25414 0.63796 0.0
H2280 H 0.49284 0.19073 0.61092 0.0
H2281 H 0.55095 0.21626 0.64964 0.0
H2282 H 0.5728 0.2297 0.67976 0.0
H2283 H 0.55652 0.18034 0.70421 0.0
H2284 H 0.53432 0.16673 0.67433 0.0
H2285 H 0.53383 0.12661 0.55824 0.0
H2286 H 0.53028 0.15506 0.5777 0.0
H2287 H 0.5133 0.12411 0.62248 0.0
H2288 H 0.51646 0.0957 0.60306 0.0
H2289 H 0.53951 0.15903 0.63643 0.0
H2290 H 0.4831 0.1329 0.59307 0.0
H2291 H 0.46478 0.12081 0.56047 0.0
H2292 H 0.48097 0.17355 0.54244 0.0
H2293 H 0.49998 0.18581 0.57468 0.0
C2294 C 0.51148 0.22943 0.67523 0.0
C2295 C 0.51471 0.24501 0.66583 0.0
C2296 C 0.51029 0.21173 0.66488 0.0
C2297 C 0.51226 0.20941 0.64502 0.0
C2298 C 0.51401 0.2248 0.63534 0.0
C2299 C 0.5153 0.2424 0.64564 0.0
C2300 C 0.51412 0.19144 0.63461 0.0
C2301 C 0.50307 0.18383 0.6165 0.0
C2302 C 0.5275 0.18241 0.64184 0.0
C2303 C 0.54077 0.19058 0.65987 0.0
C2304 C 0.55189 0.20834 0.66152 0.0
C2305 C 0.56436 0.21598 0.67853 0.0
C2306 C 0.566 0.20591 0.69392 0.0
C2307 C 0.55519 0.18815 0.6923 0.0
C2308 C 0.54265 0.18047 0.67534 0.0
C2309 C 0.52944 0.12593 0.57227 0.0
C2310 C 0.5253 0.10894 0.57907 0.0
C2311 C 0.5274 0.14214 0.58334 0.0
C2312 C 0.52145 0.14161 0.60147 0.0
C2313 C 0.51789 0.12478 0.60854 0.0
C2314 C 0.51962 0.10856 0.59736 0.0
C2315 C 0.51829 0.15846 0.6128 0.0
C2316 C 0.52913 0.16583 0.63103 0.0
C2317 C 0.505 0.16748 0.60547 0.0
C2318 C 0.49314 0.16023 0.58627 0.0
C2319 C 0.4829 0.14189 0.58212 0.0
C2320 C 0.47237 0.135 0.5637 0.0
C2321 C 0.47169 0.1464 0.54942 0.0
C2322 C 0.48153 0.16473 0.55352 0.0
C2323 C 0.49222 0.17165 0.57185 0.0
H2324 H 0.46354 0.14104 0.53518 0.0
H2325 H 0.57568 0.21184 0.70708 0.0
H2326 H 0.61181 0.83382 0.40127 0.0
H2327 H 0.63991 0.83349 0.38926 0.0
H2328 H 0.61088 0.81366 0.33065 0.0
H2329 H 0.5823 0.81373 0.3428 0.0
H2330 H 0.63669 0.79528 0.33725 0.0
H2331 H 0.63672 0.85958 0.34616 0.0
H2332 H 0.63469 0.88987 0.36325 0.0
H2333 H 0.67965 0.88971 0.40673 0.0
H2334 H 0.68179 0.85929 0.39005 0.0
H2335 H 0.71581 0.813 0.29243 0.0
H2336 H 0.68703 0.81452 0.30297 0.0
H2337 H 0.71299 0.82627 0.36324 0.0
H2338 H 0.74187 0.82434 0.35277 0.0
H2339 H 0.68869 0.84918 0.35482 0.0
H2340 H 0.68821 0.78475 0.34636 0.0
H2341 H 0.69073 0.75477 0.32902 0.0
H2342 H 0.64688 0.75557 0.28442 0.0
H2343 H 0.64429 0.78574 0.30135 0.0
C2344 C 0.61122 0.82945 0.38575 0.0
C2345 C 0.59451 0.82385 0.37308 0.0
C2346 C 0.62752 0.82938 0.37883 0.0
C2347 C 0.62788 0.82381 0.35889 0.0
C2348 C 0.61121 0.81812 0.3461 0.0
C2349 C 0.59478 0.81824 0.35306 0.0
C2350 C 0.64561 0.82355 0.35174 0.0
C2351 C 0.64789 0.80724 0.34083 0.0
C2352 C 0.66069 0.83888 0.35672 0.0
C2353 C 0.65929 0.85705 0.36696 0.0
C2354 C 0.64606 0.86591 0.35947 0.0
C2355 C 0.64491 0.88313 0.36907 0.0
C2356 C 0.657 0.89168 0.3861 0.0
C2357 C 0.67027 0.88305 0.39355 0.0
C2358 C 0.67147 0.86583 0.38403 0.0
C2359 C 0.7155 0.81601 0.30795 0.0
C2360 C 0.73135 0.81858 0.32169 0.0
C2361 C 0.69891 0.81678 0.31399 0.0
C2362 C 0.69759 0.82042 0.33397 0.0
C2363 C 0.71347 0.82343 0.34774 0.0
C2364 C 0.73005 0.82229 0.34171 0.0
C2365 C 0.67968 0.82096 0.34039 0.0
C2366 C 0.67741 0.83729 0.35118 0.0
C2367 C 0.66462 0.80569 0.33529 0.0
C2368 C 0.6662 0.78762 0.325 0.0
C2369 C 0.67923 0.77864 0.33274 0.0
C2370 C 0.68064 0.76159 0.32301 0.0
C2371 C 0.66901 0.7533 0.3056 0.0
C2372 C 0.65591 0.76203 0.29789 0.0
C2373 C 0.65446 0.7791 0.30755 0.0
H2374 H 0.67011 0.74009 0.29809 0.0
H2375 H 0.65611 0.90502 0.39348 0.0
H2376 H 0.07719 0.29438 0.48099 0.0
H2377 H 0.062 0.26248 0.48178 0.0
H2378 H 0.04389 0.28048 0.5353 0.0
H2379 H 0.05909 0.31231 0.53476 0.0
H2380 H 0.05575 0.2492 0.53642 0.0
H2381 H 0.01588 0.27268 0.49197 0.0
H2382 H 1.00702 0.28656 0.46306 0.0
H2383 H 0.01768 0.24144 0.42533 0.0
H2384 H 0.0268 0.22739 0.45404 0.0
H2385 H 0.99263 0.17616 0.54695 0.0
H2386 H 0.99919 0.20578 0.53541 0.0
H2387 H 0.02242 0.1815 0.48859 0.0
H2388 H 0.01534 0.15152 0.49964 0.0
H2389 H 1.00757 0.21509 0.48168 0.0
H2390 H 0.04982 0.19331 0.52614 0.0
H2391 H 0.05766 0.17873 0.55483 0.0
H2392 H 0.04251 0.22116 0.59218 0.0
H2393 H 0.03425 0.23578 0.56359 0.0
C2394 C 0.07038 0.2915 0.49321 0.0
C2395 C 0.06931 0.30591 0.5078 0.0
C2396 C 0.06147 0.2733 0.49345 0.0
C2397 C 0.05147 0.26926 0.50832 0.0
C2398 C 0.05139 0.28339 0.52358 0.0
C2399 C 0.06022 0.30156 0.52333 0.0
C2400 C 0.04114 0.25029 0.50822 0.0
C2401 C 0.04512 0.24187 0.52451 0.0
C2402 C 0.02752 0.24056 0.49245 0.0
C2403 C 0.02222 0.24909 0.47518 0.0
C2404 C 0.01651 0.26581 0.47752 0.0
C2405 C 0.01139 0.27368 0.46117 0.0
C2406 C 0.01184 0.26491 0.44238 0.0
C2407 C 0.01737 0.24823 0.4399 0.0
C2408 C 0.02249 0.2403 0.4562 0.0
C2409 C 0.99827 0.17681 0.53361 0.0
C2410 C 1.00404 0.16168 0.5246 0.0
C2411 C 1.00201 0.19379 0.52702 0.0
C2412 C 0.01167 0.19584 0.51148 0.0
C2413 C 0.01506 0.18017 0.5007 0.0
C2414 C 0.01123 0.16313 0.50721 0.0
C2415 C 0.02206 0.21437 0.51004 0.0
C2416 C 0.01821 0.22255 0.4935 0.0
C2417 C 0.03592 0.224 0.5255 0.0
C2418 C 0.04127 0.21552 0.54275 0.0
C2419 C 0.04806 0.19945 0.54046 0.0
C2420 C 0.05258 0.19119 0.55669 0.0
C2421 C 0.05055 0.199 0.57531 0.0
C2422 C 0.04405 0.21512 0.57774 0.0
C2423 C 0.03945 0.2234 0.56154 0.0
H2424 H 0.05406 0.19259 0.58787 0.0
H2425 H 1.00786 0.27102 0.42974 0.0
H2426 H 0.54391 0.25265 0.19857 0.0
H2427 H 0.57295 0.26906 0.21824 0.0
H2428 H 0.58218 0.30415 0.17459 0.0
H2429 H 0.55291 0.2882 0.15509 0.0
H2430 H 0.61063 0.28207 0.19069 0.0
H2431 H 0.57627 0.32705 0.20742 0.0
H2432 H 0.55063 0.33809 0.21829 0.0
H2433 H 0.56041 0.3178 0.27256 0.0
H2434 H 0.58589 0.30633 0.26188 0.0
H2435 H 0.69111 0.3178 0.256 0.0
H2436 H 0.66522 0.32193 0.2338 0.0
H2437 H 0.62981 0.29844 0.27154 0.0
H2438 H 0.65566 0.29458 0.2937 0.0
H2439 H 0.61629 0.32324 0.25401 0.0
H2440 H 0.64294 0.27154 0.2361 0.0
H2441 H 0.6667 0.25622 0.22689 0.0
H2442 H 0.66936 0.28388 0.17683 0.0
H2443 H 0.64583 0.29966 0.186 0.0
C2444 C 0.55223 0.26369 0.19307 0.0
C2445 C 0.5463 0.26909 0.17529 0.0
C2446 C 0.56863 0.27319 0.2044 0.0
C2447 C 0.57939 0.28794 0.19792 0.0
C2448 C 0.57384 0.29294 0.17986 0.0
C2449 C 0.55726 0.28374 0.16873 0.0
C2450 C 0.59697 0.29723 0.20963 0.0
C2451 C 0.61206 0.29153 0.20427 0.0
C2452 C 0.5985 0.30916 0.22748 0.0
C2453 C 0.58289 0.31564 0.23373 0.0
C2454 C 0.5728 0.3247 0.22155 0.0
C2455 C 0.55833 0.3311 0.22771 0.0
C2456 C 0.55386 0.3286 0.24608 0.0
C2457 C 0.56386 0.3197 0.25832 0.0
C2458 C 0.57832 0.31325 0.25222 0.0
C2459 C 0.67781 0.31429 0.25984 0.0
C2460 C 0.67511 0.3059 0.27636 0.0
C2461 C 0.66309 0.31655 0.24718 0.0
C2462 C 0.64563 0.31019 0.25089 0.0
C2463 C 0.64318 0.30345 0.26843 0.0
C2464 C 0.65787 0.30121 0.28105 0.0
C2465 C 0.62986 0.30754 0.23543 0.0
C2466 C 0.61507 0.3144 0.24007 0.0
C2467 C 0.62841 0.29614 0.21717 0.0
C2468 C 0.64289 0.28706 0.21195 0.0
C2469 C 0.64877 0.27455 0.22329 0.0
C2470 C 0.66216 0.26575 0.21805 0.0
C2471 C 0.6696 0.26914 0.20134 0.0
C2472 C 0.66365 0.28134 0.18983 0.0
C2473 C 0.65032 0.29025 0.19506 0.0
H2474 H 0.67992 0.26225 0.19726 0.0
H2475 H 0.54269 0.33361 0.25084 0.0
H2476 H 0.60045 0.90466 0.04601 0.0
H2477 H 0.59557 0.93598 0.04959 0.0
H2478 H 0.59639 0.93638 0.98804 0.0
H2479 H 0.60123 0.905 0.98431 0.0
H2480 H 0.60724 0.97278 0.01335 0.0
H2481 H 0.55788 0.92056 0.99324 0.0
H2482 H 0.53796 0.89016 0.99258 0.0
H2483 H 0.53212 0.906 0.0523 0.0
H2484 H 0.5518 0.93674 0.05314 0.0
H2485 H 0.52367 0.01118 1.00115 0.0
H2486 H 0.54577 0.99279 0.99541 0.0
H2487 H 0.56584 1.00225 0.0574 0.0
H2488 H 0.54366 0.0208 0.06333 0.0
H2489 H 0.54518 0.96188 0.02842 0.0
H2490 H 0.61339 0.00955 0.04061 0.0
H2491 H 0.63241 0.03625 0.03049 0.0
H2492 H 0.59755 0.02608 0.97506 0.0
H2493 H 0.57815 0.99946 0.98495 0.0
C2494 C 0.60076 0.91185 0.03351 0.0
C2495 C 0.60057 0.90227 0.01478 0.0
C2496 C 0.59777 0.92965 0.03553 0.0
C2497 C 0.59499 0.93802 0.01892 0.0
C2498 C 0.59829 0.92991 1.00094 0.0
C2499 C 0.60127 0.91204 0.9989 0.0
C2500 C 0.5852 0.95289 0.01961 0.0
C2501 C 0.59371 0.97048 0.01675 0.0
C2502 C 0.56731 0.94957 0.02322 0.0
C2503 C 0.55661 0.93075 0.02339 0.0
C2504 C 0.55262 0.91743 0.00634 0.0
C2505 C 0.54129 0.90017 0.0059 0.0
C2506 C 0.53397 0.896 0.02248 0.0
C2507 C 0.5379 0.90918 0.03951 0.0
C2508 C 0.54909 0.92655 0.03996 0.0
C2509 C 0.53287 0.00944 0.01357 0.0
C2510 C 0.53182 0.01705 0.03276 0.0
C2511 C 0.54571 0.9993 0.01019 0.0
C2512 C 0.55765 0.99665 0.02594 0.0
C2513 C 0.55698 1.00465 0.04506 0.0
C2514 C 0.54417 0.01491 0.04846 0.0
C2515 C 0.56751 0.98202 0.02305 0.0
C2516 C 0.55884 0.9643 0.02538 0.0
C2517 C 0.58489 0.98507 0.01813 0.0
C2518 C 0.59414 1.00292 0.01372 0.0
C2519 C 0.60951 0.01339 0.02649 0.0
C2520 C 0.6204 0.0284 0.02072 0.0
C2521 C 0.616 0.03303 0.00221 0.0
C2522 C 0.60061 0.02276 0.98953 0.0
C2523 C 0.58963 0.00777 0.99524 0.0
H2524 H 0.62459 0.04447 0.99761 0.0
H2525 H 0.52516 0.88264 0.02208 0.0
H2526 H 0.93761 0.73644 0.67564 0.0
H2527 H 0.92058 0.74536 0.70118 0.0
H2528 H 0.95462 0.80032 0.71306 0.0
H2529 H 0.97132 0.79178 0.68727 0.0
H2530 H 0.94854 0.77704 0.74694 0.0
H2531 H 0.92023 0.80259 0.69348 0.0
H2532 H 0.90544 0.79971 0.6593 0.0
H2533 H 0.86321 0.75596 0.6684 0.0
H2534 H 0.87794 0.75841 0.7026 0.0
H2535 H 0.90391 0.8282 0.81021 0.0
H2536 H 0.92115 0.8167 0.78617 0.0
H2537 H 0.87548 0.77202 0.76121 0.0
H2538 H 0.85813 0.78417 0.78433 0.0
H2539 H 0.88744 0.78894 0.73358 0.0
H2540 H 0.91753 0.75751 0.78199 0.0
H2541 H 0.93407 0.7548 0.81392 0.0
H2542 H 0.97137 0.80603 0.81409 0.0
H2543 H 0.9556 0.80851 0.78165 0.0
C2544 C 0.94129 0.75047 0.68356 0.0
C2545 C 0.95568 0.76346 0.67946 0.0
C2546 C 0.93162 0.7555 0.6981 0.0
C2547 C 0.93649 0.77343 0.70888 0.0
C2548 C 0.95077 0.78643 0.70479 0.0
C2549 C 0.96017 0.78155 0.69 0.0
C2550 C 0.92689 0.7786 0.72476 0.0
C2551 C 0.93526 0.77987 0.7441 0.0
C2552 C 0.90944 0.78169 0.72085 0.0
C2553 C 0.90026 0.78057 0.70052 0.0
C2554 C 0.90785 0.79227 0.68815 0.0
C2555 C 0.89947 0.79074 0.66879 0.0
C2556 C 0.88341 0.77763 0.66167 0.0
C2557 C 0.87566 0.7661 0.67394 0.0
C2558 C 0.88401 0.76757 0.69332 0.0
C2559 C 0.89771 0.81576 0.79978 0.0
C2560 C 0.87975 0.80678 0.79938 0.0
C2561 C 0.90759 0.80909 0.78618 0.0
C2562 C 0.89967 0.79333 0.77205 0.0
C2563 C 0.88194 0.78409 0.77206 0.0
C2564 C 0.8721 0.79083 0.78549 0.0
C2565 C 0.90912 0.78756 0.75604 0.0
C2566 C 0.90071 0.78613 0.73656 0.0
C2567 C 0.92647 0.78409 0.75977 0.0
C2568 C 0.93526 0.78336 0.77968 0.0
C2569 C 0.92915 0.76828 0.78898 0.0
C2570 C 0.93843 0.76673 0.80708 0.0
C2571 C 0.95355 0.7804 0.8162 0.0
C2572 C 0.95959 0.79552 0.80708 0.0
C2573 C 0.9506 0.79692 0.78876 0.0
H2574 H 0.96067 0.77918 0.83025 0.0
H2575 H 0.87696 0.77643 0.64666 0.0
H2576 H 0.15229 0.03741 0.88938 0.0
H2577 H 0.13688 0.03691 0.91826 0.0
H2578 H 0.08799 0.04014 0.88232 0.0
H2579 H 0.10312 0.04057 0.85393 0.0
H2580 H 0.09381 0.06536 0.91338 0.0
H2581 H 0.09382 1.00077 0.90284 0.0
H2582 H 0.10671 0.97322 0.89934 0.0
H2583 H 0.13713 0.99055 0.95737 0.0
H2584 H 0.12465 0.01839 0.96109 0.0
H2585 H 0.03346 0.05871 0.98203 0.0
H2586 H 0.04781 0.05089 0.95363 0.0
H2587 H 0.09439 0.04598 0.99245 0.0
H2588 H 0.07988 0.05347 0.02068 0.0
H2589 H 0.09064 0.02139 0.96077 0.0
H2590 H 0.09169 0.08614 0.97109 0.0
H2591 H 0.07892 0.11376 0.97514 0.0
H2592 H 0.04718 0.09639 0.91777 0.0
H2593 H 0.05958 0.06851 0.9135 0.0
C2594 C 0.13812 0.03737 0.88753 0.0
C2595 C 0.12903 0.03887 0.86906 0.0
C2596 C 0.12926 0.03726 0.90417 0.0
C2597 C 0.11108 0.03867 0.90283 0.0
C2598 C 0.10195 0.03925 0.88417 0.0
C2599 C 0.11068 0.03933 0.86775 0.0
C2600 C 0.10161 0.04071 0.9206 0.0
C2601 C 0.09299 0.05552 0.92353 0.0
C2602 C 0.1007 0.02835 0.93449 0.0
C2603 C 0.10848 0.01181 0.93214 0.0
C2604 C 0.10343 0.99884 0.91477 0.0
C2605 C 0.11063 0.98314 0.91276 0.0
C2606 C 0.12279 0.98018 0.92809 0.0
C2607 C 0.12776 0.9929 0.94548 0.0
C2608 C 0.12062 0.00864 0.94754 0.0
C2609 C 0.04648 0.0553 0.98448 0.0
C2610 C 0.05524 0.05626 0.00375 0.0
C2611 C 0.05491 0.05112 0.96816 0.0
C2612 C 0.07255 0.04809 0.97056 0.0
C2613 C 0.08089 0.04819 0.98983 0.0
C2614 C 0.07247 0.05237 0.00609 0.0
C2615 C 0.08266 0.04589 0.95332 0.0
C2616 C 0.09145 0.03117 0.95056 0.0
C2617 C 0.08385 0.05838 0.93958 0.0
C2618 C 0.07642 0.07514 0.94206 0.0
C2619 C 0.08189 0.08815 0.95939 0.0
C2620 C 0.07474 0.10385 0.96172 0.0
C2621 C 0.06221 0.1068 0.94674 0.0
C2622 C 0.05686 0.09407 0.92938 0.0
C2623 C 0.06395 0.07832 0.92699 0.0
H2624 H 0.05669 0.11897 0.94857 0.0
H2625 H 0.12832 0.96799 0.92652 0.0
H2626 H 0.75723 0.36833 0.60096 0.0
H2627 H 0.76313 0.35998 0.63299 0.0
H2628 H 0.71386 0.37318 0.64659 0.0
H2629 H 0.70805 0.38255 0.614 0.0
H2630 H 0.74251 0.3847 0.67835 0.0
H2631 H 0.71563 0.32783 0.63419 0.0
H2632 H 0.71202 0.306 0.60351 0.0
H2633 H 0.76657 0.30102 0.61773 0.0
H2634 H 0.77056 0.32298 0.64839 0.0
H2635 H 0.75139 0.34072 0.76161 0.0
H2636 H 0.74059 0.34966 0.73078 0.0
H2637 H 0.78387 0.33247 0.70565 0.0
H2638 H 0.7942 0.32237 0.7365 0.0
H2639 H 0.75485 0.3223 0.67994 0.0
H2640 H 0.78339 0.38021 0.72132 0.0
H2641 H 0.7889 0.40216 0.75217 0.0
H2642 H 0.73362 0.40582 0.74339 0.0
H2643 H 0.72775 0.38369 0.71252 0.0
C2644 C 0.74741 0.36937 0.61053 0.0
C2645 C 0.73184 0.37568 0.60458 0.0
C2646 C 0.7509 0.36457 0.62899 0.0
C2647 C 0.73873 0.36538 0.64207 0.0
C2648 C 0.72336 0.37222 0.63662 0.0
C2649 C 0.71998 0.37746 0.618 0.0
C2650 C 0.74241 0.35864 0.66109 0.0
C2651 C 0.74481 0.37093 0.67874 0.0
C2652 C 0.74598 0.34084 0.66166 0.0
C2653 C 0.74339 0.32708 0.64358 0.0
C2654 C 0.72685 0.32209 0.63077 0.0
C2655 C 0.72475 0.3097 0.61337 0.0
C2656 C 0.73906 0.30213 0.60867 0.0
C2657 C 0.75548 0.30687 0.6214 0.0
C2658 C 0.75766 0.31925 0.63882 0.0
C2659 C 0.75877 0.33898 0.7496 0.0
C2660 C 0.77387 0.33111 0.7516 0.0
C2661 C 0.75257 0.34418 0.73193 0.0
C2662 C 0.76164 0.34226 0.71592 0.0
C2663 C 0.77667 0.33423 0.71779 0.0
C2664 C 0.78265 0.32855 0.73544 0.0
C2665 C 0.75524 0.34842 0.69723 0.0
C2666 C 0.75234 0.33601 0.67963 0.0
C2667 C 0.75143 0.36615 0.69673 0.0
C2668 C 0.75512 0.38025 0.71467 0.0
C2669 C 0.77242 0.38573 0.72596 0.0
C2670 C 0.7756 0.39818 0.74346 0.0
C2671 C 0.76161 0.40539 0.74976 0.0
C2672 C 0.74444 0.40024 0.73848 0.0
C2673 C 0.74119 0.38778 0.72095 0.0
H2674 H 0.76408 0.41496 0.76337 0.0
H2675 H 0.73742 0.29259 0.59517 0.0
H2676 H 0.44099 0.11619 0.35921 0.0
H2677 H 0.44924 0.1083 0.39165 0.0
H2678 H 0.50523 0.12211 0.38594 0.0
H2679 H 0.49692 0.12929 0.35327 0.0
H2680 H 0.49913 0.09055 0.3969 0.0
H2681 H 0.48473 0.14795 0.42019 0.0
H2682 H 0.46615 0.17106 0.42265 0.0
H2683 H 0.42548 0.13226 0.44177 0.0
H2684 H 0.44371 0.10882 0.43914 0.0
H2685 H 0.53105 0.0868 0.49982 0.0
H2686 H 0.52415 0.09957 0.46956 0.0
H2687 H 0.46994 0.06673 0.46008 0.0
H2688 H 0.47694 0.05342 0.48964 0.0
H2689 H 0.47599 0.10851 0.45773 0.0
H2690 H 0.49017 0.05099 0.43311 0.0
H2691 H 0.50883 0.02799 0.43067 0.0
H2692 H 0.55047 0.06777 0.41426 0.0
H2693 H 0.53218 0.09116 0.41701 0.0
C2694 C 0.45509 0.11827 0.36521 0.0
C2695 C 0.4683 0.12364 0.35372 0.0
C2696 C 0.45984 0.1136 0.38379 0.0
C2697 C 0.47795 0.11454 0.39148 0.0
C2698 C 0.49118 0.12107 0.38046 0.0
C2699 C 0.48642 0.12546 0.36183 0.0
C2700 C 0.48306 0.1075 0.4102 0.0
C2701 C 0.49428 0.09482 0.41025 0.0
C2702 C 0.47649 0.11252 0.42769 0.0
C2703 C 0.46551 0.12658 0.42928 0.0
C2704 C 0.47176 0.1443 0.42476 0.0
C2705 C 0.4613 0.15747 0.42621 0.0
C2706 C 0.44463 0.15311 0.43231 0.0
C2707 C 0.43839 0.1356 0.43702 0.0
C2708 C 0.44878 0.12237 0.43556 0.0
C2709 C 0.51768 0.08234 0.49124 0.0
C2710 C 0.50455 0.06912 0.4971 0.0
C2711 C 0.51376 0.08959 0.47396 0.0
C2712 C 0.49651 0.0841 0.46254 0.0
C2713 C 0.48332 0.07117 0.46862 0.0
C2714 C 0.48737 0.06355 0.48552 0.0
C2715 C 0.49207 0.09185 0.4443 0.0
C2716 C 0.48094 0.10452 0.44436 0.0
C2717 C 0.49877 0.08688 0.42696 0.0
C2718 C 0.50993 0.07294 0.42563 0.0
C2719 C 0.50342 0.05494 0.42931 0.0
C2720 C 0.51391 0.0418 0.42779 0.0
C2721 C 0.53087 0.04644 0.42241 0.0
C2722 C 0.53736 0.06422 0.41851 0.0
C2723 C 0.52694 0.07743 0.42005 0.0
H2724 H 0.53895 0.03623 0.42119 0.0
H2725 H 0.43655 0.16333 0.43343 0.0
H2726 H 0.75455 0.71164 0.03775 0.0
H2727 H 0.77012 0.72862 0.06973 0.0
H2728 H 0.79935 0.68596 0.07699 0.0
H2729 H 0.78397 0.66887 0.04483 0.0
H2730 H 0.7807 0.69729 0.10914 0.0
H2731 H 0.82336 0.72322 0.07037 0.0
H2732 H 0.83216 0.73696 0.04188 0.0
H2733 H 0.80902 0.78297 0.05856 0.0
H2734 H 0.79986 0.7694 0.08699 0.0
H2735 H 0.8092 0.75648 0.1996 0.0
H2736 H 0.81526 0.73855 0.1703 0.0
H2737 H 0.79074 0.77235 0.13429 0.0
H2738 H 0.78475 0.7902 0.16326 0.0
H2739 H 0.81679 0.76176 0.11829 0.0
H2740 H 0.76599 0.7336 0.147 0.0
H2741 H 0.75156 0.72086 0.17328 0.0
H2742 H 0.7838 0.6804 0.17346 0.0
H2743 H 0.79864 0.69315 0.14737 0.0
C2744 C 0.76432 0.70588 0.04608 0.0
C2745 C 0.76801 0.68892 0.0388 0.0
C2746 C 0.77327 0.71564 0.06427 0.0
C2747 C 0.78597 0.70857 0.07548 0.0
C2748 C 0.78966 0.69162 0.06838 0.0
C2749 C 0.78086 0.68192 0.05006 0.0
C2750 C 0.79449 0.71864 0.0951 0.0
C2751 C 0.78912 0.71117 0.11131 0.0
C2752 C 0.80506 0.73685 0.09766 0.0
C2753 C 0.81093 0.74527 0.08082 0.0
C2754 C 0.8201 0.73624 0.06792 0.0
C2755 C 0.82515 0.744 0.05179 0.0
C2756 C 0.82116 0.76083 0.04842 0.0
C2757 C 0.81214 0.76996 0.06121 0.0
C2758 C 0.80705 0.76225 0.07736 0.0
C2759 C 0.80548 0.76028 0.18542 0.0
C2760 C 0.79622 0.7745 0.18362 0.0
C2761 C 0.80902 0.75011 0.16877 0.0
C2762 C 0.80315 0.75394 0.15015 0.0
C2763 C 0.79541 0.76919 0.14853 0.0
C2764 C 0.79197 0.77939 0.16513 0.0
C2765 C 0.80235 0.74073 0.13225 0.0
C2766 C 0.80913 0.74758 0.11633 0.0
C2767 C 0.79248 0.72216 0.1298 0.0
C2768 C 0.78362 0.7145 0.14549 0.0
C2769 C 0.77011 0.72209 0.15277 0.0
C2770 C 0.76185 0.71487 0.16762 0.0
C2771 C 0.76681 0.69988 0.17509 0.0
C2772 C 0.78002 0.69206 0.16771 0.0
C2773 C 0.78838 0.6993 0.15291 0.0
H2774 H 0.76038 0.69428 0.18657 0.0
H2775 H 0.82505 0.7668 0.03589 0.0
H2776 H 0.11603 0.06633 0.76813 0.0
H2777 H 0.10109 0.06371 0.73496 0.0
H2778 H 0.11914 0.01396 0.71851 0.0
H2779 H 0.13501 0.01682 0.75241 0.0
H2780 H 0.12173 0.03566 0.69021 0.0
H2781 H 0.07392 0.01307 0.72436 0.0
H2782 H 0.0559 0.01365 0.75098 0.0
H2783 H 0.04347 0.06457 0.73795 0.0
H2784 H 0.06158 0.06442 0.71142 0.0
H2785 H 0.06553 0.02553 0.59696 0.0
H2786 H 0.07942 0.0201 0.62868 0.0
H2787 H 0.06311 0.06695 0.65756 0.0
H2788 H 0.04868 0.07201 0.62601 0.0
H2789 H 0.05844 0.04162 0.67877 0.0
H2790 H 0.10828 0.06688 0.64823 0.0
H2791 H 0.12734 0.06848 0.62254 0.0
H2792 H 0.13656 0.0148 0.62929 0.0
H2793 H 0.11735 0.01279 0.65485 0.0
C2794 C 0.11688 0.05463 0.75769 0.0
C2795 C 0.1267 0.04163 0.76333 0.0
C2796 C 0.10811 0.05313 0.73851 0.0
C2797 C 0.1084 0.03837 0.72407 0.0
C2798 C 0.11846 0.02542 0.72935 0.0
C2799 C 0.12752 0.02702 0.74879 0.0
C2800 C 0.09843 0.03712 0.70363 0.0
C2801 C 0.10777 0.03653 0.68767 0.0
C2802 C 0.08027 0.03876 0.70012 0.0
C2803 C 0.06918 0.03876 0.71594 0.0
C2804 C 0.06741 0.02443 0.72723 0.0
C2805 C 0.05717 0.02468 0.7423 0.0
C2806 C 0.04856 0.03915 0.74616 0.0
C2807 C 0.05014 0.05337 0.73493 0.0
C2808 C 0.06036 0.05319 0.71985 0.0
C2809 C 0.06488 0.0347 0.61005 0.0
C2810 C 0.05599 0.0493 0.60876 0.0
C2811 C 0.07296 0.03163 0.62828 0.0
C2812 C 0.07273 0.04328 0.64577 0.0
C2813 C 0.06362 0.0577 0.64447 0.0
C2814 C 0.05536 0.06064 0.6263 0.0
C2815 C 0.08186 0.04061 0.66539 0.0
C2816 C 0.07233 0.04047 0.68121 0.0
C2817 C 0.09987 0.03851 0.66879 0.0
C2818 C 0.11126 0.03962 0.65332 0.0
C2819 C 0.11426 0.05536 0.64412 0.0
C2820 C 0.1251 0.05635 0.6296 0.0
C2821 C 0.13315 0.04175 0.6243 0.0
C2822 C 0.13031 0.0261 0.63342 0.0
C2823 C 0.11946 0.02503 0.64793 0.0
H2824 H 0.14167 0.04262 0.6132 0.0
H2825 H 0.04066 0.03932 0.75785 0.0
H2826 H 0.74583 0.40453 0.49316 0.0
H2827 H 0.75229 0.39197 0.46166 0.0
H2828 H 0.71519 0.34039 0.46224 0.0
H2829 H 0.70942 0.35291 0.49454 0.0
H2830 H 0.74407 0.33265 0.45285 0.0
H2831 H 0.70843 0.3723 0.42765 0.0
H2832 H 0.69811 0.40109 0.42489 0.0
H2833 H 0.75027 0.42784 0.41515 0.0
H2834 H 0.76098 0.39932 0.41811 0.0
H2835 H 0.76524 0.30139 0.35686 0.0
H2836 H 0.75028 0.30887 0.38493 0.0
H2837 H 0.78362 0.36422 0.39652 0.0
H2838 H 0.79775 0.3571 0.36833 0.0
H2839 H 0.75144 0.36673 0.39723 0.0
H2840 H 0.78772 0.32818 0.42574 0.0
H2841 H 0.79808 0.29932 0.42788 0.0
H2842 H 0.74442 0.27049 0.43044 0.0
H2843 H 0.73371 0.29914 0.42806 0.0
C2844 C 0.73839 0.39081 0.48614 0.0
C2845 C 0.72659 0.37997 0.49601 0.0
C2846 C 0.74218 0.38353 0.46807 0.0
C2847 C 0.73407 0.3652 0.45913 0.0
C2848 C 0.7216 0.35458 0.46861 0.0
C2849 C 0.718 0.36185 0.48692 0.0
C2850 C 0.73989 0.3569 0.44091 0.0
C2851 C 0.74529 0.33997 0.4405 0.0
C2852 C 0.74189 0.3664 0.42476 0.0
C2853 C 0.73554 0.38369 0.42326 0.0
C2854 C 0.71774 0.38437 0.42509 0.0
C2855 C 0.71182 0.40064 0.42345 0.0
C2856 C 0.72354 0.41629 0.41988 0.0
C2857 C 0.74121 0.41571 0.41793 0.0
C2858 C 0.74721 0.3995 0.41958 0.0
C2859 C 0.76941 0.31507 0.36551 0.0
C2860 C 0.78256 0.32868 0.36016 0.0
C2861 C 0.76092 0.31935 0.38167 0.0
C2862 C 0.7657 0.33722 0.39301 0.0
C2863 C 0.77941 0.35043 0.38805 0.0
C2864 C 0.7876 0.34627 0.37188 0.0
C2865 C 0.7561 0.34289 0.40938 0.0
C2866 C 0.74995 0.35932 0.40943 0.0
C2867 C 0.75344 0.33293 0.42509 0.0
C2868 C 0.75988 0.31574 0.42648 0.0
C2869 C 0.77811 0.31564 0.42659 0.0
C2870 C 0.78405 0.29933 0.42788 0.0
C2871 C 0.7719 0.28306 0.42922 0.0
C2872 C 0.7538 0.28309 0.42934 0.0
C2873 C 0.7478 0.29936 0.42804 0.0
H2874 H 0.77653 0.27045 0.43023 0.0
H2875 H 0.71891 0.42886 0.4186 0.0
H2876 H 0.44321 0.08552 0.23381 0.0
H2877 H 0.45138 0.07901 0.20144 0.0
H2878 H 0.48664 0.13324 0.21074 0.0
H2879 H 0.47848 0.13977 0.24353 0.0
H2880 H 0.46586 0.11808 0.16921 0.0
H2881 H 0.50612 0.10376 0.22113 0.0
H2882 H 0.51342 0.09017 0.25068 0.0
H2883 H 0.48674 0.03605 0.21961 0.0
H2884 H 0.47896 0.04939 0.18996 0.0
H2885 H 0.53042 0.09322 0.1091 0.0
H2886 H 0.51898 0.10312 0.13897 0.0
H2887 H 0.47426 0.05579 0.12389 0.0
H2888 H 0.48519 0.0464 0.0934 0.0
H2889 H 0.50011 0.06861 0.16795 0.0
H2890 H 0.45817 0.08272 0.11689 0.0
H2891 H 0.45118 0.09567 0.08683 0.0
H2892 H 0.48095 0.14951 0.1158 0.0
H2893 H 0.48851 0.13674 0.14593 0.0
C2894 C 0.45224 0.0963 0.22867 0.0
C2895 C 0.46011 0.1132 0.24099 0.0
C2896 C 0.45694 0.09254 0.21022 0.0
C2897 C 0.46969 0.10558 0.20374 0.0
C2898 C 0.47669 0.12304 0.21545 0.0
C2899 C 0.47201 0.12679 0.2341 0.0
C2900 C 0.47722 0.09984 0.18604 0.0
C2901 C 0.47353 0.10744 0.169 0.0
C2902 C 0.48696 0.0857 0.18565 0.0
C2903 C 0.49179 0.07761 0.20339 0.0
C2904 C 0.50166 0.08899 0.22065 0.0
C2905 C 0.5059 0.08133 0.23741 0.0
C2906 C 0.50051 0.06226 0.23704 0.0
C2907 C 0.49089 0.05082 0.21988 0.0
C2908 C 0.48656 0.05842 0.2031 0.0
C2909 C 0.51828 0.08484 0.11234 0.0
C2910 C 0.50873 0.06898 0.09919 0.0
C2911 C 0.51172 0.09054 0.12928 0.0
C2912 C 0.49575 0.08023 0.13351 0.0
C2913 C 0.48656 0.06396 0.12076 0.0
C2914 C 0.49281 0.05858 0.10347 0.0
C2915 C 0.4886 0.08669 0.15114 0.0
C2916 C 0.49245 0.07926 0.16819 0.0
C2917 C 0.47896 0.10088 0.15147 0.0
C2918 C 0.47415 0.10871 0.13356 0.0
C2919 C 0.46343 0.09727 0.11678 0.0
C2920 C 0.45932 0.10458 0.09975 0.0
C2921 C 0.46565 0.1234 0.09939 0.0
C2922 C 0.47608 0.13494 0.1161 0.0
C2923 C 0.48029 0.12766 0.13315 0.0
H2924 H 0.46246 0.12905 0.08619 0.0
H2925 H 0.50382 0.05636 0.25002 0.0
H2926 H 0.7353 0.676 0.92092 0.0
H2927 H 0.7461 0.69659 0.89867 0.0
H2928 H 0.80046 0.70437 0.92871 0.0
H2929 H 0.78957 0.68334 0.95104 0.0
H2930 H 0.78882 0.73733 0.92738 0.0
H2931 H 0.79289 0.68662 0.88199 0.0
H2932 H 0.78376 0.655 0.86322 0.0
H2933 H 0.73638 0.6678 0.83376 0.0
H2934 H 0.74507 0.69942 0.85252 0.0
H2935 H 0.79675 0.79149 0.84379 0.0
H2936 H 0.80325 0.77147 0.86751 0.0
H2937 H 0.7471 0.7571 0.87219 0.0
H2938 H 0.74053 0.77761 0.84903 0.0
H2939 H 0.77028 0.72771 0.85527 0.0
H2940 H 0.76291 0.77423 0.90889 0.0
H2941 H 0.77157 0.8058 0.92785 0.0
H2942 H 0.82607 0.80039 0.94115 0.0
H2943 H 0.81774 0.76884 0.92198 0.0
C2944 C 0.74962 0.68155 0.9223 0.0
C2945 C 0.76164 0.67813 0.93754 0.0
C2946 C 0.7558 0.69329 0.9096 0.0
C2947 C 0.77408 0.70194 0.91205 0.0
C2948 C 0.78633 0.6977 0.92657 0.0
C2949 C 0.78013 0.68562 0.93915 0.0
C2950 C 0.77947 0.71713 0.90103 0.0
C2951 C 0.78535 0.73521 0.91155 0.0
C2952 C 0.77484 0.71434 0.88042 0.0
C2953 C 0.76967 0.69544 0.86869 0.0
C2954 C 0.78049 0.68269 0.87155 0.0
C2955 C 0.77539 0.66475 0.86091 0.0
C2956 C 0.7595 0.65939 0.84731 0.0
C2957 C 0.74871 0.67198 0.84427 0.0
C2958 C 0.75375 0.68994 0.85487 0.0
C2959 C 0.78592 0.78479 0.85057 0.0
C2960 C 0.76812 0.78609 0.84453 0.0
C2961 C 0.78965 0.77324 0.86396 0.0
C2962 C 0.77561 0.76281 0.87133 0.0
C2963 C 0.75807 0.76516 0.86657 0.0
C2964 C 0.75436 0.77694 0.85343 0.0
C2965 C 0.77865 0.74763 0.88178 0.0
C2966 C 0.77441 0.7297 0.87103 0.0
C2967 C 0.78483 0.75055 0.90209 0.0
C2968 C 0.78977 0.76933 0.91382 0.0
C2969 C 0.77678 0.77986 0.9157 0.0
C2970 C 0.78161 0.79772 0.92652 0.0
C2971 C 0.79937 0.80512 0.93564 0.0
C2972 C 0.81232 0.79465 0.93404 0.0
C2973 C 0.80755 0.77678 0.92321 0.0
H2974 H 0.8031 0.81896 0.94401 0.0
H2975 H 0.75555 0.64549 0.83912 0.0
H2976 H 0.88155 0.17007 0.06818 0.0
H2977 H 0.90266 0.14959 0.06809 0.0
H2978 H 0.91394 0.16242 0.01197 0.0
H2979 H 0.89261 0.18237 0.01174 0.0
H2980 H 0.91155 0.12777 0.01056 0.0
H2981 H 0.94383 0.18047 0.05788 0.0
H2982 H 0.94917 0.2039 0.0876 0.0
H2983 H 0.94402 0.16102 0.12318 0.0
H2984 H 0.93843 0.13731 0.09363 0.0
H2985 H 1.0038 0.10911 0.02574 0.0
H2986 H 0.98012 0.12668 0.02554 0.0
H2987 H 0.94668 0.0833 0.04778 0.0
H2988 H 0.96998 0.06528 0.04714 0.0
H2989 H 0.95982 0.13185 0.06664 0.0
H2990 H 0.92483 0.07908 0.01686 0.0
H2991 H 0.92211 0.05717 0.98644 0.0
H2992 H 0.93469 0.10257 0.95502 0.0
H2993 H 0.93791 0.12474 0.98543 0.0
C2994 C 0.88857 0.16859 0.05585 0.0
C2995 C 0.88527 0.17801 0.03999 0.0
C2996 C 0.90077 0.15688 0.05583 0.0
C2997 C 0.91024 0.15442 0.04009 0.0
C2998 C 0.90692 0.16386 0.02431 0.0
C2999 C 0.89467 0.17542 0.02425 0.0
C3000 C 0.92338 0.14194 0.03977 0.0
C3001 C 0.92208 0.12882 0.0229 0.0
C3002 C 0.93726 0.14291 0.05576 0.0
C3003 C 0.94049 0.15712 0.07352 0.0
C3004 C 0.94368 0.17604 0.07203 0.0
C3005 C 0.94679 0.18936 0.08885 0.0
C3006 C 0.94688 0.18395 0.10726 0.0
C3007 C 0.94391 0.16519 0.1089 0.0
C3008 C 0.94078 0.1518 0.09213 0.0
C3009 C 0.99119 0.10307 0.03007 0.0
C3010 C 0.98864 0.08556 0.03599 0.0
C3011 C 0.97771 0.11321 0.0301 0.0
C3012 C 0.9615 0.10632 0.03653 0.0
C3013 C 0.9589 0.08882 0.04245 0.0
C3014 C 0.97219 0.07845 0.04191 0.0
C3015 C 0.94768 0.11775 0.03766 0.0
C3016 C 0.94905 0.13076 0.05453 0.0
C3017 C 0.93395 0.11679 0.02171 0.0
C3018 C 0.93191 0.10353 0.00345 0.0
C3019 C 0.92728 0.08438 0.00353 0.0
C3020 C 0.92559 0.07192 0.98628 0.0
C3021 C 0.92831 0.07847 0.96882 0.0
C3022 C 0.93266 0.09751 0.96857 0.0
C3023 C 0.93443 0.11003 0.98581 0.0
H3024 H 0.92697 0.0688 0.95548 0.0
H3025 H 0.9493 0.19429 0.12027 0.0
H3026 H 0.33989 0.50542 0.09048 0.0
H3027 H 0.36585 0.51816 0.07584 0.0
H3028 H 0.39928 0.53044 0.13265 0.0
H3029 H 0.37355 0.5166 0.14721 0.0
H3030 H 0.40091 0.55509 0.09004 0.0
H3031 H 0.41032 0.5015 0.12621 0.0
H3032 H 0.39795 0.47071 0.13408 0.0
H3033 H 0.37954 0.44969 0.07292 0.0
H3034 H 0.39135 0.48057 0.06479 0.0
H3035 H 0.49273 0.55558 0.08491 0.0
H3036 H 0.46295 0.55404 0.09396 0.0
H3037 H 0.4396 0.51207 0.04355 0.0
H3038 H 0.46935 0.51395 0.03407 0.0
H3039 H 0.43051 0.5025 0.0789 0.0
H3040 H 0.42993 0.55077 0.04214 0.0
H3041 H 0.44078 0.58019 0.03067 0.0
H3042 H 0.44056 0.61028 0.08729 0.0
H3043 H 0.43008 0.581 0.09927 0.0
C3044 C 0.35256 0.51174 0.10001 0.0
C3045 C 0.35479 0.51011 0.11998 0.0
C3046 C 0.36739 0.51887 0.09159 0.0
C3047 C 0.38444 0.52492 0.10317 0.0
C3048 C 0.38619 0.52566 0.12352 0.0
C3049 C 0.37149 0.51795 0.13186 0.0
C3050 C 0.40059 0.52694 0.09375 0.0
C3051 C 0.40759 0.54375 0.0878 0.0
C3052 C 0.40866 0.51179 0.09001 0.0
C3053 C 0.40128 0.49341 0.09496 0.0
C3054 C 0.40332 0.4904 0.11449 0.0
C3055 C 0.39647 0.47293 0.11899 0.0
C3056 C 0.38785 0.45828 0.10402 0.0
C3057 C 0.38609 0.46108 0.08451 0.0
C3058 C 0.39279 0.47858 0.07996 0.0
C3059 C 0.48122 0.54618 0.07563 0.0
C3060 C 0.48329 0.53488 0.05879 0.0
C3061 C 0.46423 0.54539 0.08076 0.0
C3062 C 0.44911 0.53307 0.06931 0.0
C3063 C 0.45114 0.52175 0.05248 0.0
C3064 C 0.4681 0.52278 0.04715 0.0
C3065 C 0.4315 0.53099 0.07594 0.0
C3066 C 0.42401 0.51399 0.08117 0.0
C3067 C 0.42294 0.54593 0.07872 0.0
C3068 C 0.42943 0.56363 0.07169 0.0
C3069 C 0.43242 0.56363 0.05225 0.0
C3070 C 0.43846 0.5803 0.04563 0.0
C3071 C 0.44142 0.59709 0.05826 0.0
C3072 C 0.43831 0.59726 0.07753 0.0
C3073 C 0.43231 0.58062 0.08425 0.0
H3074 H 0.44608 0.60998 0.0531 0.0
H3075 H 0.38264 0.44474 0.10752 0.0
H3076 H 0.35226 0.61567 0.78714 0.0
H3077 H 0.3368 0.64143 0.79027 0.0
H3078 H 0.38782 0.68054 0.79974 0.0
H3079 H 0.40308 0.6552 0.7972 0.0
H3080 H 0.37086 0.69558 0.82201 0.0
H3081 H 0.3524 0.66926 0.75444 0.0
H3082 H 0.33896 0.64517 0.72572 0.0
H3083 H 0.28816 0.63709 0.74594 0.0
H3084 H 0.30138 0.66099 0.77492 0.0
H3085 H 0.33835 0.77719 0.80812 0.0
H3086 H 0.35167 0.75021 0.80471 0.0
H3087 H 0.29964 0.71425 0.80129 0.0
H3088 H 0.28614 0.74131 0.80402 0.0
H3089 H 0.31623 0.69735 0.77667 0.0
H3090 H 0.33731 0.72272 0.84637 0.0
H3091 H 0.35102 0.74933 0.87259 0.0
H3092 H 0.39719 0.76173 0.84436 0.0
H3093 H 0.38412 0.73474 0.81851 0.0
C3094 C 0.36023 0.62973 0.78983 0.0
C3095 C 0.37917 0.63288 0.79182 0.0
C3096 C 0.35128 0.64471 0.79153 0.0
C3097 C 0.36082 0.66357 0.7951 0.0
C3098 C 0.3797 0.66654 0.79711 0.0
C3099 C 0.38856 0.65172 0.79551 0.0
C3100 C 0.35162 0.6802 0.797 0.0
C3101 C 0.359 0.69577 0.81183 0.0
C3102 C 0.33588 0.68124 0.78421 0.0
C3103 C 0.32793 0.66674 0.76697 0.0
C3104 C 0.3384 0.66223 0.75285 0.0
C3105 C 0.33082 0.64863 0.73651 0.0
C3106 C 0.31273 0.63956 0.73405 0.0
C3107 C 0.30218 0.64409 0.7479 0.0
C3108 C 0.30971 0.65767 0.76428 0.0
C3109 C 0.32964 0.7636 0.80687 0.0
C3110 C 0.31099 0.76187 0.80667 0.0
C3111 C 0.33741 0.74791 0.80503 0.0
C3112 C 0.32702 0.72961 0.80319 0.0
C3113 C 0.30833 0.72787 0.80277 0.0
C3114 C 0.30052 0.74357 0.80447 0.0
C3115 C 0.3355 0.71251 0.8016 0.0
C3116 C 0.32801 0.69695 0.78686 0.0
C3117 C 0.35127 0.71153 0.81426 0.0
C3118 C 0.35979 0.72674 0.8306 0.0
C3119 C 0.35052 0.73098 0.84597 0.0
C3120 C 0.35821 0.74608 0.8608 0.0
C3121 C 0.37507 0.75712 0.86027 0.0
C3122 C 0.38433 0.75297 0.845 0.0
C3123 C 0.37687 0.73768 0.83036 0.0
H3124 H 0.38092 0.76894 0.87161 0.0
H3125 H 0.30688 0.62905 0.72138 0.0
H3126 H 0.27132 0.70381 0.53492 0.0
H3127 H 0.2418 0.68342 0.53176 0.0
H3128 H 0.26625 0.63759 0.54049 0.0
H3129 H 0.2962 0.65805 0.5437 0.0
H3130 H 0.23315 0.62922 0.51043 0.0
H3131 H 0.25513 0.65686 0.57826 0.0
H3132 H 0.2689 0.68327 0.60458 0.0
H3133 H 0.22554 0.70941 0.58914 0.0
H3134 H 0.21163 0.68323 0.56253 0.0
H3135 H 0.16155 0.57522 0.55014 0.0
H3136 H 0.19027 0.592 0.54366 0.0
H3137 H 0.16727 0.63847 0.53367 0.0
H3138 H 0.13817 0.62147 0.53885 0.0
H3139 H 0.19962 0.64606 0.5634 0.0
H3140 H 0.17709 0.61992 0.49682 0.0
H3141 H 0.16302 0.5954 0.46872 0.0
H3142 H 0.20621 0.56801 0.48007 0.0
H3143 H 0.22047 0.59234 0.5084 0.0
C3144 C 0.27053 0.68936 0.53599 0.0
C3145 C 0.28618 0.68262 0.53987 0.0
C3146 C 0.2536 0.67772 0.5341 0.0
C3147 C 0.25187 0.65908 0.53608 0.0
C3148 C 0.26735 0.65197 0.5389 0.0
C3149 C 0.28443 0.66368 0.54083 0.0
C3150 C 0.23397 0.6477 0.53704 0.0
C3151 C 0.22592 0.63265 0.52217 0.0
C3152 C 0.22435 0.65263 0.55203 0.0
C3153 C 0.23241 0.66815 0.56833 0.0
C3154 C 0.24858 0.66828 0.58042 0.0
C3155 C 0.2564 0.6832 0.59539 0.0
C3156 C 0.24811 0.69801 0.59851 0.0
C3157 C 0.23194 0.69792 0.5867 0.0
C3158 C 0.22407 0.68303 0.57169 0.0
C3159 C 0.16236 0.58879 0.54606 0.0
C3160 C 0.14745 0.59701 0.54532 0.0
C3161 C 0.17887 0.5984 0.54246 0.0
C3162 C 0.18086 0.61648 0.53831 0.0
C3163 C 0.16598 0.62456 0.53699 0.0
C3164 C 0.1494 0.61484 0.54018 0.0
C3165 C 0.1988 0.62744 0.53688 0.0
C3166 C 0.20687 0.64249 0.55171 0.0
C3167 C 0.20829 0.62259 0.52176 0.0
C3168 C 0.19972 0.60781 0.5049 0.0
C3169 C 0.18348 0.60855 0.49347 0.0
C3170 C 0.1755 0.59473 0.47746 0.0
C3171 C 0.18366 0.5801 0.47267 0.0
C3172 C 0.19987 0.57933 0.48384 0.0
C3173 C 0.20793 0.59315 0.49986 0.0
H3174 H 0.17746 0.5694 0.46027 0.0
H3175 H 0.2542 0.70954 0.61011 0.0
H3176 H 0.63776 0.93731 0.80279 0.0
H3177 H 0.65375 0.91197 0.80354 0.0
H3178 H 0.70437 0.95191 0.8182 0.0
H3179 H 0.68862 0.9771 0.81812 0.0
H3180 H 0.69747 0.92033 0.78254 0.0
H3181 H 0.69358 0.93475 0.85147 0.0
H3182 H 0.67849 0.93701 0.8803 0.0
H3183 H 0.65504 0.87871 0.86732 0.0
H3184 H 0.66931 0.8762 0.83783 0.0
H3185 H 0.76551 0.86932 0.80667 0.0
H3186 H 0.74745 0.89297 0.80768 0.0
H3187 H 0.69982 0.8506 0.80586 0.0
H3188 H 0.71753 0.82694 0.80377 0.0
H3189 H 0.70327 0.88189 0.83471 0.0
H3190 H 0.70379 0.865 0.76817 0.0
H3191 H 0.71258 0.85934 0.73576 0.0
H3192 H 0.73567 0.9173 0.73999 0.0
H3193 H 0.72806 0.9232 0.773 0.0
C3194 C 0.65229 0.94066 0.80624 0.0
C3195 C 0.6619 0.95927 0.81036 0.0
C3196 C 0.6614 0.92617 0.80679 0.0
C3197 C 0.68027 0.93005 0.81111 0.0
C3198 C 0.68982 0.94858 0.81501 0.0
C3199 C 0.68076 0.96298 0.81491 0.0
C3200 C 0.69033 0.915 0.81024 0.0
C3201 C 0.69903 0.91211 0.79409 0.0
C3202 C 0.69151 0.90364 0.82487 0.0
C3203 C 0.68223 0.90539 0.84211 0.0
C3204 C 0.68482 0.92249 0.8544 0.0
C3205 C 0.67645 0.9238 0.87093 0.0
C3206 C 0.66567 0.90804 0.87552 0.0
C3207 C 0.66324 0.89094 0.86361 0.0
C3208 C 0.6714 0.88959 0.84694 0.0
C3209 C 0.75121 0.86511 0.80653 0.0
C3210 C 0.74298 0.84628 0.8051 0.0
C3211 C 0.74087 0.87859 0.80702 0.0
C3212 C 0.7222 0.87353 0.80674 0.0
C3213 C 0.71414 0.85481 0.80603 0.0
C3214 C 0.72431 0.84132 0.80487 0.0
C3215 C 0.71099 0.88763 0.80726 0.0
C3216 C 0.70194 0.89023 0.82323 0.0
C3217 C 0.70897 0.89832 0.79213 0.0
C3218 C 0.71562 0.89451 0.77335 0.0
C3219 C 0.71129 0.87648 0.76256 0.0
C3220 C 0.71597 0.87323 0.74397 0.0
C3221 C 0.7246 0.88795 0.73578 0.0
C3222 C 0.72892 0.90591 0.74633 0.0
C3223 C 0.72463 0.90918 0.76509 0.0
H3224 H 0.72802 0.88544 0.72129 0.0
H3225 H 0.6593 0.90906 0.8884 0.0
H3226 H 0.77135 0.00669 0.56965 0.0
H3227 H 0.74198 0.01108 0.55614 0.0
H3228 H 0.72024 0.9922 0.60562 0.0
H3229 H 0.74972 0.98758 0.61929 0.0
H3230 H 0.69739 0.97721 0.56891 0.0
H3231 H 0.72972 0.03643 0.60539 0.0
H3232 H 0.75558 0.06314 0.6152 0.0
H3233 H 0.75079 0.07431 0.55616 0.0
H3234 H 0.72504 0.04749 0.54595 0.0
H3235 H 0.62196 0.01978 0.56379 0.0
H3236 H 0.64813 0.00668 0.57138 0.0
H3237 H 0.67039 0.02847 0.52347 0.0
H3238 H 0.64448 0.04198 0.51607 0.0
H3239 H 0.69267 0.04042 0.55816 0.0
H3240 H 0.65832 0.9829 0.52208 0.0
H3241 H 0.63224 0.95648 0.51228 0.0
H3242 H 0.64002 0.94198 0.56981 0.0
H3243 H 0.66603 0.9685 0.58009 0.0
C3244 C 0.76038 1.00355 0.57777 0.0
C3245 C 0.76293 0.99696 0.59566 0.0
C3246 C 0.74358 0.00599 0.56996 0.0
C3247 C 0.72897 1.00198 0.57989 0.0
C3248 C 0.73136 0.99529 0.5977 0.0
C3249 C 0.74824 0.99289 0.60559 0.0
C3250 C 0.7115 0.00571 0.57201 0.0
C3251 C 0.69623 0.99104 0.56675 0.0
C3252 C 0.71017 0.02367 0.56876 0.0
C3253 C 0.72558 0.03986 0.57488 0.0
C3254 C 0.73428 0.0445 0.59448 0.0
C3255 C 0.74889 0.05967 0.60011 0.0
C3256 C 0.75485 0.07039 0.5863 0.0
C3257 C 0.74617 0.06598 0.56684 0.0
C3258 C 0.73156 0.05081 0.56112 0.0
C3259 C 0.63236 0.02162 0.55475 0.0
C3260 C 0.63134 0.03221 0.53956 0.0
C3261 C 0.64718 0.01392 0.55894 0.0
C3262 C 0.66121 0.01666 0.54801 0.0
C3263 C 0.65968 0.02621 0.53207 0.0
C3264 C 0.64484 0.03386 0.52782 0.0
C3265 C 0.67845 0.01194 0.55491 0.0
C3266 C 0.69374 0.02651 0.56012 0.0
C3267 C 0.67967 0.9939 0.55807 0.0
C3268 C 0.66406 0.97785 0.55193 0.0
C3269 C 0.6544 0.9742 0.53272 0.0
C3270 C 0.63964 0.95917 0.52706 0.0
C3271 C 0.63443 0.9476 0.54044 0.0
C3272 C 0.64404 0.95098 0.55948 0.0
C3273 C 0.65882 0.966 0.56522 0.0
H3274 H 0.62299 0.93599 0.53603 0.0
H3275 H 0.76617 0.08213 0.59069 0.0
H3276 H 0.35479 0.52485 0.80405 0.0
H3277 H 0.33789 0.494 0.80775 0.0
H3278 H 0.36097 0.46893 0.76124 0.0
H3279 H 0.37707 0.49932 0.7572 0.0
H3280 H 0.33109 0.4489 0.7571 0.0
H3281 H 0.37489 0.47061 0.81436 0.0
H3282 H 0.39185 0.48972 0.84525 0.0
H3283 H 0.34394 0.48202 0.8711 0.0
H3284 H 0.32662 0.46307 0.84026 0.0
H3285 H 0.33033 0.36007 0.79178 0.0
H3286 H 0.34022 0.39222 0.7867 0.0
H3287 H 0.29155 0.40432 0.80317 0.0
H3288 H 0.28121 0.37177 0.80748 0.0
H3289 H 0.33162 0.43071 0.82287 0.0
H3290 H 0.28984 0.40479 0.76204 0.0
H3291 H 0.27848 0.3817 0.73207 0.0
H3292 H 0.32982 0.39493 0.71352 0.0
H3293 H 0.34159 0.41785 0.74357 0.0
C3294 C 0.35578 0.51282 0.79419 0.0
C3295 C 0.36726 0.51493 0.7801 0.0
C3296 C 0.34634 0.49495 0.79657 0.0
C3297 C 0.34815 0.47853 0.78506 0.0
C3298 C 0.359 0.4809 0.77046 0.0
C3299 C 0.3683 0.49856 0.7681 0.0
C3300 C 0.33928 0.45894 0.78807 0.0
C3301 C 0.33136 0.44516 0.77161 0.0
C3302 C 0.33933 0.45328 0.80681 0.0
C3303 C 0.3494 0.46565 0.82491 0.0
C3304 C 0.3679 0.47325 0.82653 0.0
C3305 C 0.3776 0.48398 0.84405 0.0
C3306 C 0.36897 0.48708 0.86011 0.0
C3307 C 0.35059 0.47962 0.85863 0.0
C3308 C 0.34082 0.4689 0.84113 0.0
C3309 C 0.32157 0.36947 0.79412 0.0
C3310 C 0.30484 0.36306 0.79993 0.0
C3311 C 0.32732 0.38799 0.79126 0.0
C3312 C 0.3168 0.40105 0.79459 0.0
C3313 C 0.30006 0.39473 0.80046 0.0
C3314 C 0.29405 0.37599 0.80281 0.0
C3315 C 0.32345 0.42111 0.79201 0.0
C3316 C 0.33112 0.43478 0.80849 0.0
C3317 C 0.32379 0.42654 0.7733 0.0
C3318 C 0.31665 0.41289 0.75517 0.0
C3319 C 0.29877 0.40263 0.75168 0.0
C3320 C 0.29224 0.3896 0.73465 0.0
C3321 C 0.30343 0.38681 0.72092 0.0
C3322 C 0.32117 0.39708 0.72417 0.0
C3323 C 0.32777 0.41009 0.7412 0.0
H3324 H 0.29835 0.37672 0.70775 0.0
H3325 H 0.37655 0.49509 0.87375 0.0
H3326 H 0.14376 0.56693 0.33382 0.0
H3327 H 0.16662 0.5956 0.33798 0.0
H3328 H 0.19771 0.56794 0.30213 0.0
H3329 H 0.17497 0.5389 0.29831 0.0
H3330 H 0.21923 0.59429 0.33268 0.0
H3331 H 0.1689 0.59071 0.2814 0.0
H3332 H 0.13666 0.5861 0.26841 0.0
H3333 H 0.13304 0.63177 0.31059 0.0
H3334 H 0.16522 0.6365 0.32399 0.0
H3335 H 0.26409 0.6698 0.29158 0.0
H3336 H 0.24704 0.64088 0.29901 0.0
H3337 H 0.2167 0.67147 0.33291 0.0
H3338 H 0.23385 0.70044 0.32577 0.0
H3339 H 0.19508 0.64421 0.30594 0.0
H3340 H 0.24528 0.6502 0.35549 0.0
H3341 H 0.27725 0.65523 0.36972 0.0
H3342 H 0.28117 0.60611 0.33286 0.0
H3343 H 0.24927 0.60095 0.31814 0.0
C3344 C 0.15558 0.56685 0.32704 0.0
C3345 C 0.15743 0.55076 0.31543 0.0
C3346 C 0.16864 0.58324 0.32947 0.0
C3347 C 0.18364 0.58398 0.32001 0.0
C3348 C 0.18617 0.56766 0.30948 0.0
C3349 C 0.17316 0.55112 0.30725 0.0
C3350 C 0.1956 0.60209 0.31949 0.0
C3351 C 0.21403 0.60516 0.32666 0.0
C3352 C 0.18868 0.61643 0.31214 0.0
C3353 C 0.16943 0.61387 0.30379 0.0
C3354 C 0.16121 0.59972 0.28795 0.0
C3355 C 0.14294 0.59708 0.28052 0.0
C3356 C 0.1328 0.60861 0.28869 0.0
C3357 C 0.14091 0.62285 0.30428 0.0
C3358 C 0.15916 0.62552 0.31178 0.0
C3359 C 0.25406 0.67039 0.30097 0.0
C3360 C 0.25016 0.68737 0.30788 0.0
C3361 C 0.24432 0.65386 0.3052 0.0
C3362 C 0.23059 0.65404 0.31649 0.0
C3363 C 0.22716 0.67103 0.32406 0.0
C3364 C 0.23691 0.68754 0.31988 0.0
C3365 C 0.21882 0.63645 0.319 0.0
C3366 C 0.20035 0.63344 0.31211 0.0
C3367 C 0.22573 0.62229 0.32674 0.0
C3368 C 0.24491 0.62528 0.33557 0.0
C3369 C 0.25299 0.64055 0.35028 0.0
C3370 C 0.2711 0.64341 0.35846 0.0
C3371 C 0.28125 0.63101 0.35217 0.0
C3372 C 0.2733 0.61571 0.3377 0.0
C3373 C 0.25519 0.6128 0.32944 0.0
H3374 H 0.29527 0.63325 0.35852 0.0
H3375 H 0.11866 0.60654 0.28293 0.0
H3376 H 0.56477 0.79046 0.43523 0.0
H3377 H 0.57148 0.77215 0.46088 0.0
H3378 H 0.52146 0.73235 0.43865 0.0
H3379 H 0.51456 0.75088 0.41357 0.0
H3380 H 0.52369 0.74216 0.47621 0.0
H3381 H 0.56359 0.72311 0.43437 0.0
H3382 H 0.5883 0.72784 0.41521 0.0
H3383 H 0.62524 0.75539 0.46726 0.0
H3384 H 0.60067 0.75104 0.48669 0.0
H3385 H 0.53845 0.66032 0.51267 0.0
H3386 H 0.53517 0.68423 0.49251 0.0
H3387 H 0.5723 0.72512 0.53643 0.0
H3388 H 0.57541 0.70119 0.55697 0.0
H3389 H 0.57873 0.71891 0.49245 0.0
H3390 H 0.53807 0.73468 0.53456 0.0
H3391 H 0.51262 0.72942 0.55265 0.0
H3392 H 0.47644 0.70627 0.4988 0.0
H3393 H 0.50171 0.7112 0.4804 0.0
C3394 C 0.55558 0.77745 0.43542 0.0
C3395 C 0.53924 0.77196 0.42232 0.0
C3396 C 0.55932 0.76706 0.4502 0.0
C3397 C 0.5469 0.75089 0.45183 0.0
C3398 C 0.53116 0.74485 0.43788 0.0
C3399 C 0.52733 0.75531 0.42337 0.0
C3400 C 0.5496 0.74068 0.46857 0.0
C3401 C 0.5357 0.73698 0.47963 0.0
C3402 C 0.56547 0.7344 0.47354 0.0
C3403 C 0.58026 0.73696 0.46193 0.0
C3404 C 0.57695 0.73031 0.44169 0.0
C3405 C 0.59094 0.7329 0.43079 0.0
C3406 C 0.60832 0.74197 0.44 0.0
C3407 C 0.61176 0.74841 0.46014 0.0
C3408 C 0.59782 0.74588 0.47111 0.0
C3409 C 0.54578 0.67445 0.51813 0.0
C3410 C 0.55729 0.6789 0.5363 0.0
C3411 C 0.54382 0.68808 0.50666 0.0
C3412 C 0.55348 0.70639 0.51301 0.0
C3413 C 0.56471 0.71104 0.53134 0.0
C3414 C 0.56643 0.69741 0.54304 0.0
C3415 C 0.55268 0.72011 0.49962 0.0
C3416 C 0.56688 0.72439 0.48916 0.0
C3417 C 0.537 0.72674 0.49505 0.0
C3418 C 0.52183 0.72318 0.50611 0.0
C3419 C 0.52473 0.72826 0.52659 0.0
C3420 C 0.51031 0.72544 0.53689 0.0
C3421 C 0.49292 0.71759 0.52687 0.0
C3422 C 0.48991 0.71243 0.50654 0.0
C3423 C 0.50428 0.71525 0.49616 0.0
H3424 H 0.48178 0.7154 0.53487 0.0
H3425 H 0.61913 0.74396 0.43153 0.0
H3426 H 0.58407 0.27284 0.72301 0.0
H3427 H 0.61428 0.2758 0.74011 0.0
H3428 H 0.6081 0.32124 0.78138 0.0
H3429 H 0.57747 0.31864 0.76351 0.0
H3430 H 0.64096 0.32901 0.76846 0.0
H3431 H 0.60925 0.27774 0.79494 0.0
H3432 H 0.58801 0.24767 0.79251 0.0
H3433 H 0.61923 0.22149 0.75599 0.0
H3434 H 0.64053 0.25141 0.75802 0.0
H3435 H 0.72948 0.3216 0.8183 0.0
H3436 H 0.69752 0.32343 0.81291 0.0
H3437 H 0.68715 0.28097 0.76215 0.0
H3438 H 0.71858 0.27938 0.76715 0.0
H3439 H 0.66211 0.27435 0.78691 0.0
H3440 H 0.69041 0.32285 0.75538 0.0
H3441 H 0.71131 0.35184 0.75284 0.0
H3442 H 0.68693 0.38216 0.79394 0.0
H3443 H 0.66609 0.35325 0.79702 0.0
C3444 C 0.58888 0.28321 0.73603 0.0
C3445 C 0.57814 0.29529 0.74204 0.0
C3446 C 0.6063 0.28491 0.74585 0.0
C3447 C 0.61363 0.29858 0.76231 0.0
C3448 C 0.60281 0.31047 0.7688 0.0
C3449 C 0.58517 0.3088 0.7588 0.0
C3450 C 0.63277 0.30045 0.77191 0.0
C3451 C 0.6455 0.3172 0.77305 0.0
C3452 C 0.63899 0.28495 0.77736 0.0
C3453 C 0.62648 0.26684 0.77664 0.0
C3454 C 0.61157 0.26557 0.78638 0.0
C3455 C 0.59951 0.24855 0.78506 0.0
C3456 C 0.60227 0.23268 0.7741 0.0
C3457 C 0.61713 0.23378 0.7645 0.0
C3458 C 0.62922 0.25076 0.76578 0.0
C3459 C 0.72028 0.31256 0.80615 0.0
C3460 C 0.72658 0.30022 0.79328 0.0
C3461 C 0.70206 0.31372 0.80296 0.0
C3462 C 0.68983 0.30232 0.78707 0.0
C3463 C 0.69618 0.28987 0.77452 0.0
C3464 C 0.71425 0.28898 0.77745 0.0
C3465 C 0.6703 0.30277 0.78325 0.0
C3466 C 0.65752 0.28637 0.78301 0.0
C3467 C 0.66416 0.31846 0.77826 0.0
C3468 C 0.67691 0.33581 0.77673 0.0
C3469 C 0.68968 0.33564 0.76413 0.0
C3470 C 0.70148 0.35208 0.76252 0.0
C3471 C 0.7005 0.36882 0.7733 0.0
C3472 C 0.68771 0.36916 0.78567 0.0
C3473 C 0.67592 0.35275 0.78736 0.0
H3474 H 0.70961 0.38154 0.772 0.0
H3475 H 0.59289 0.21953 0.77305 0.0
H3476 H 0.01504 0.36401 0.92972 0.0
H3477 H 0.01562 0.39238 0.95048 0.0
H3478 H 0.0684 0.41599 0.93904 0.0
H3479 H 0.06825 0.38658 0.91807 0.0
H3480 H 0.06366 0.42197 0.9798 0.0
H3481 H 0.03464 0.42967 0.91711 0.0
H3482 H 0.01317 0.42006 0.88614 0.0
H3483 H 0.96909 0.41364 0.91813 0.0
H3484 H 0.99029 0.42296 0.94932 0.0
H3485 H 0.05809 0.51335 0.01498 0.0
H3486 H 0.06131 0.48477 0.99627 0.0
H3487 H 1.00833 0.4574 0.00398 0.0
H3488 H 1.00497 0.4862 0.02293 0.0
H3489 H 0.0142 0.4539 0.96482 0.0
H3490 H 0.04191 0.44187 0.02648 0.0
H3491 H 0.06218 0.45146 0.05832 0.0
H3492 H 0.10708 0.46675 0.02887 0.0
H3493 H 0.08716 0.45673 0.99685 0.0
C3494 C 0.02691 0.37512 0.93144 0.0
C3495 C 0.04167 0.37304 0.92218 0.0
C3496 C 0.02712 0.39141 0.94335 0.0
C3497 C 0.04192 0.40629 0.94608 0.0
C3498 C 0.05682 0.40453 0.93694 0.0
C3499 C 0.05667 0.38791 0.92488 0.0
C3500 C 0.04122 0.4235 0.95854 0.0
C3501 C 0.05314 0.42925 0.97634 0.0
C3502 C 0.02694 0.43239 0.95434 0.0
C3503 C 0.01409 0.42697 0.93557 0.0
C3504 C 0.02037 0.42611 0.91755 0.0
C3505 C 1.00825 0.42072 0.89996 0.0
C3506 C 0.98978 0.41624 0.90017 0.0
C3507 C 0.9834 0.41714 0.91799 0.0
C3508 C 0.99547 0.42251 0.93564 0.0
C3509 C 0.04715 0.50122 0.01286 0.0
C3510 C 0.03119 0.50199 0.02025 0.0
C3511 C 0.04908 0.48488 0.0023 0.0
C3512 C 0.0351 0.46903 0.99887 0.0
C3513 C 0.01927 0.46956 0.00658 0.0
C3514 C 0.01739 0.48593 0.01741 0.0
C3515 C 0.0367 0.45244 0.98597 0.0
C3516 C 0.02484 0.44674 0.96817 0.0
C3517 C 0.0509 0.44354 0.99021 0.0
C3518 C 0.06308 0.44857 0.00932 0.0
C3519 C 0.05615 0.44714 0.02682 0.0
C3520 C 0.06758 0.45257 0.04489 0.0
C3521 C 0.08595 0.45956 0.04562 0.0
C3522 C 0.09292 0.46104 0.02828 0.0
C3523 C 0.08159 0.45538 0.01017 0.0
H3524 H 0.09478 0.46391 0.05961 0.0
H3525 H 0.98042 0.41211 0.88654 0.0
H3526 H 0.96182 0.78082 0.218 0.0
H3527 H 0.93102 0.7782 0.22493 0.0
H3528 H 0.95125 0.81743 0.27805 0.0
H3529 H 0.98189 0.82037 0.27106 0.0
H3530 H 0.92553 0.78609 0.28311 0.0
H3531 H 0.9318 0.83067 0.23803 0.0
H3532 H 0.93738 0.84041 0.20656 0.0
H3533 H 0.89355 0.79661 0.17588 0.0
H3534 H 0.88788 0.78644 0.20715 0.0
H3535 H 0.84814 0.80922 0.31246 0.0
H3536 H 0.87714 0.80843 0.3027 0.0
H3537 H 0.8508 0.78554 0.2435 0.0
H3538 H 0.82172 0.78786 0.25308 0.0
H3539 H 0.87903 0.80543 0.23947 0.0
H3540 H 0.8711 0.75984 0.28061 0.0
H3541 H 0.86469 0.74606 0.30984 0.0
H3542 H 0.91001 0.7852 0.34497 0.0
H3543 H 0.91656 0.79938 0.316 0.0
C3544 C 0.95975 0.78881 0.23123 0.0
C3545 C 0.9745 0.80081 0.24395 0.0
C3546 C 0.94205 0.78738 0.23513 0.0
C3547 C 0.93861 0.7977 0.25201 0.0
C3548 C 0.95338 0.80931 0.26493 0.0
C3549 C 0.97098 0.81099 0.26088 0.0
C3550 C 0.91979 0.79659 0.25633 0.0
C3551 C 0.91541 0.79049 0.27365 0.0
C3552 C 0.90616 0.80147 0.24365 0.0
C3553 C 0.90955 0.80768 0.22491 0.0
C3554 C 0.92345 0.82302 0.22456 0.0
C3555 C 0.92661 0.82864 0.20676 0.0
C3556 C 0.91586 0.8191 0.18923 0.0
C3557 C 0.90189 0.80396 0.18946 0.0
C3558 C 0.89869 0.79828 0.20722 0.0
C3559 C 0.84846 0.80388 0.29737 0.0
C3560 C 0.83246 0.79837 0.28366 0.0
C3561 C 0.86519 0.80326 0.29176 0.0
C3562 C 0.86655 0.7963 0.27238 0.0
C3563 C 0.85047 0.79088 0.25859 0.0
C3564 C 0.83372 0.7921 0.2641 0.0
C3565 C 0.88467 0.79518 0.26659 0.0
C3566 C 0.88898 0.80085 0.24897 0.0
C3567 C 0.89808 0.78925 0.27868 0.0
C3568 C 0.89422 0.78077 0.29615 0.0
C3569 C 0.87963 0.76558 0.29459 0.0
C3570 C 0.87598 0.75769 0.31111 0.0
C3571 C 0.88691 0.76478 0.32926 0.0
C3572 C 0.90155 0.77974 0.33091 0.0
C3573 C 0.90524 0.7877 0.31444 0.0
H3574 H 0.88407 0.75866 0.34203 0.0
H3575 H 0.91833 0.82347 0.17547 0.0
H3576 H 0.47685 0.32182 0.09852 0.0
H3577 H 0.49302 0.34938 0.0876 0.0
H3578 H 0.54106 0.34844 0.12677 0.0
H3579 H 0.52489 0.32164 0.13834 0.0
H3580 H 0.53735 0.38153 0.12928 0.0
H3581 H 0.53613 0.33462 0.07588 0.0
H3582 H 0.52327 0.30797 0.04958 0.0
H3583 H 0.48988 0.33948 0.02128 0.0
H3584 H 0.50236 0.36624 0.04752 0.0
H3585 H 0.58099 0.45383 0.07708 0.0
H3586 H 0.57536 0.42398 0.08934 0.0
H3587 H 0.51827 0.41858 0.07347 0.0
H3588 H 0.52375 0.44814 0.06163 0.0
H3589 H 0.53408 0.38704 0.05894 0.0
H3590 H 0.5308 0.43018 0.11768 0.0
H3591 H 0.54328 0.45605 0.14493 0.0
H3592 H 0.58665 0.43063 0.1625 0.0
H3593 H 0.57434 0.40452 0.13538 0.0
C3594 C 0.49081 0.32763 0.10487 0.0
C3595 C 0.49956 0.31968 0.11931 0.0
C3596 C 0.5001 0.34319 0.09848 0.0
C3597 C 0.51836 0.35067 0.10609 0.0
C3598 C 0.52701 0.34284 0.12066 0.0
C3599 C 0.51769 0.32757 0.12732 0.0
C3600 C 0.52821 0.36723 0.09958 0.0
C3601 C 0.537 0.38254 0.11388 0.0
C3602 C 0.52781 0.36856 0.07951 0.0
C3603 C 0.52013 0.35242 0.06375 0.0
C3604 C 0.52595 0.33582 0.06413 0.0
C3605 C 0.51874 0.3207 0.04921 0.0
C3606 C 0.50575 0.32202 0.03379 0.0
C3607 C 0.49994 0.33847 0.03324 0.0
C3608 C 0.5071 0.35363 0.04811 0.0
C3609 C 0.56731 0.44617 0.07631 0.0
C3610 C 0.55277 0.4531 0.06856 0.0
C3611 C 0.56413 0.4293 0.08331 0.0
C3612 C 0.54643 0.41928 0.08219 0.0
C3613 C 0.53199 0.42622 0.07438 0.0
C3614 C 0.53513 0.44306 0.06771 0.0
C3615 C 0.54247 0.40123 0.08862 0.0
C3616 C 0.53486 0.38567 0.0743 0.0
C3617 C 0.54408 0.39959 0.10861 0.0
C3618 C 0.55186 0.41562 0.12433 0.0
C3619 C 0.54314 0.43026 0.12718 0.0
C3620 C 0.55014 0.44492 0.14265 0.0
C3621 C 0.56584 0.4451 0.15532 0.0
C3622 C 0.57454 0.43054 0.15261 0.0
C3623 C 0.56755 0.41579 0.13723 0.0
H3624 H 0.5712 0.45645 0.16731 0.0
H3625 H 0.50019 0.3103 0.02225 0.0
H3626 H 0.04057 0.34448 0.42708 0.0
H3627 H 0.01272 0.33778 0.40387 0.0
H3628 H 0.9847 0.35457 0.45012 0.0
H3629 H 0.01266 0.36109 0.47375 0.0
H3630 H 0.96726 0.32101 0.42777 0.0
H3631 H 0.99377 0.38214 0.41666 0.0
H3632 H 0.01771 0.40657 0.40961 0.0
H3633 H 0.01823 0.37342 0.35477 0.0
H3634 H 0.99442 0.34871 0.3616 0.0
H3635 H 0.88982 0.33728 0.37284 0.0
H3636 H 0.91706 0.3363 0.39461 0.0
H3637 H 0.93973 0.31698 0.34476 0.0
H3638 H 0.91229 0.31792 0.32284 0.0
H3639 H 0.96048 0.34914 0.36744 0.0
H3640 H 0.93147 0.28945 0.37688 0.0
H3641 H 0.90732 0.2652 0.38372 0.0
H3642 H 0.91119 0.29523 0.44143 0.0
H3643 H 0.93515 0.31988 0.43483 0.0
C3644 C 0.02854 0.3469 0.43237 0.0
C3645 C 0.02877 0.35322 0.45228 0.0
C3646 C 0.01265 0.34311 0.41904 0.0
C3647 C 0.99673 0.34574 0.42531 0.0
C3648 C 0.99692 0.35243 0.44508 0.0
C3649 C 0.01288 0.35624 0.4585 0.0
C3650 C 0.97982 0.34088 0.41122 0.0
C3651 C 0.96562 0.32732 0.4147 0.0
C3652 C 0.9781 0.34864 0.39385 0.0
C3653 C 0.99243 0.3635 0.38973 0.0
C3654 C 0.99909 0.38 0.40317 0.0
C3655 C 0.01261 0.39391 0.3992 0.0
C3656 C 0.01951 0.39153 0.38177 0.0
C3657 C 0.01288 0.37524 0.36827 0.0
C3658 C 0.99936 0.36129 0.37217 0.0
C3659 C 0.90051 0.3325 0.36661 0.0
C3660 C 0.89923 0.32793 0.34626 0.0
C3661 C 0.91595 0.33179 0.37902 0.0
C3662 C 0.93033 0.32656 0.37124 0.0
C3663 C 0.92869 0.32101 0.35096 0.0
C3664 C 0.9131 0.32153 0.33852 0.0
C3665 C 0.94776 0.32944 0.38409 0.0
C3666 C 0.96212 0.34268 0.38041 0.0
C3667 C 0.94957 0.32139 0.40126 0.0
C3668 C 0.93505 0.30663 0.40529 0.0
C3669 C 0.92707 0.29101 0.39097 0.0
C3670 C 0.91342 0.27716 0.39481 0.0
C3671 C 0.9077 0.27869 0.41298 0.0
C3672 C 0.91563 0.29407 0.42735 0.0
C3673 C 0.92926 0.30798 0.42357 0.0
H3674 H 0.89714 0.26794 0.41594 0.0
H3675 H 0.02998 0.40232 0.37872 0.0
H3676 H 0.00967 0.75095 0.58672 0.0
H3677 H 0.01796 0.72934 0.56269 0.0
H3678 H 0.96375 0.69602 0.55174 0.0
H3679 H 0.95605 0.71668 0.5776 0.0
H3680 H 0.98586 0.68265 0.57486 0.0
H3681 H 0.99221 0.70873 0.51405 0.0
H3682 H 1.00441 0.73396 0.49668 0.0
H3683 H 0.0581 0.73344 0.52227 0.0
H3684 H 0.04625 0.70836 0.5399 0.0
H3685 H 1.00274 0.59909 0.53606 0.0
H3686 H 0.99313 0.62824 0.53661 0.0
H3687 H 0.0478 0.65834 0.558 0.0
H3688 H 0.05728 0.62895 0.55808 0.0
H3689 H 0.02746 0.67391 0.52806 0.0
H3690 H 0.02826 0.6577 0.58981 0.0
H3691 H 0.02431 0.64214 0.6184 0.0
H3692 H 0.96704 0.63304 0.60311 0.0
H3693 H 0.97061 0.64815 0.57404 0.0
C3694 C 0.99923 0.7396 0.57835 0.0
C3695 C 0.98244 0.73497 0.58434 0.0
C3696 C 1.00396 0.72726 0.56436 0.0
C3697 C 0.99163 0.71067 0.55588 0.0
C3698 C 0.97357 0.70858 0.55847 0.0
C3699 C 0.96912 0.72035 0.57326 0.0
C3700 C 0.9985 0.69375 0.5518 0.0
C3701 C 0.99429 0.68042 0.56393 0.0
C3702 C 0.0113 0.6919 0.53935 0.0
C3703 C 0.01831 0.70665 0.52828 0.0
C3704 C 1.0066 0.71402 0.516 0.0
C3705 C 0.01347 0.7283 0.5061 0.0
C3706 C 0.03202 0.7353 0.50837 0.0
C3707 C 0.04375 0.72799 0.52048 0.0
C3708 C 0.03696 0.71371 0.53037 0.0
C3709 C 0.01269 0.61187 0.5404 0.0
C3710 C 0.03062 0.61186 0.54693 0.0
C3711 C 1.00724 0.62849 0.54081 0.0
C3712 C 0.01981 0.6453 0.54733 0.0
C3713 C 0.03798 0.64542 0.55284 0.0
C3714 C 0.04332 0.62872 0.55294 0.0
C3715 C 0.0135 0.6625 0.54997 0.0
C3716 C 0.01825 0.67591 0.53817 0.0
C3717 C 1.0021 0.66522 0.5637 0.0
C3718 C 0.9997 0.65378 0.57947 0.0
C3719 C 0.01479 0.65187 0.59214 0.0
C3720 C 0.01263 0.64328 0.60855 0.0
C3721 C 0.99545 0.63671 0.61261 0.0
C3722 C 0.98035 0.63818 0.59994 0.0
C3723 C 0.98243 0.6467 0.58345 0.0
H3724 H 0.99386 0.63072 0.62572 0.0
H3725 H 0.03729 0.74638 0.50074 0.0
H3726 H 0.59452 0.81879 0.9279 0.0
H3727 H 0.60613 0.80964 0.89828 0.0
H3728 H 0.62773 0.86699 0.8953 0.0
H3729 H 0.61543 0.87632 0.9247 0.0
H3730 H 0.61412 0.84784 0.85916 0.0
H3731 H 0.65513 0.84072 0.91351 0.0
H3732 H 0.66394 0.83065 0.94492 0.0
H3733 H 0.64281 0.77387 0.91843 0.0
H3734 H 0.63365 0.78361 0.88691 0.0
H3735 H 0.6791 0.82142 0.8002 0.0
H3736 H 0.66343 0.83557 0.82405 0.0
H3737 H 0.63161 0.78173 0.82699 0.0
H3738 H 0.64675 0.76751 0.80263 0.0
H3739 H 0.6521 0.80195 0.86317 0.0
H3740 H 0.61265 0.81063 0.8074 0.0
H3741 H 0.60501 0.82222 0.77664 0.0
H3742 H 0.6251 0.87819 0.8062 0.0
H3743 H 0.63295 0.86692 0.83708 0.0
C3744 C 0.60176 0.82948 0.92099 0.0
C3745 C 0.60431 0.84827 0.9288 0.0
C3746 C 0.60838 0.82423 0.90402 0.0
C3747 C 0.61812 0.83761 0.89478 0.0
C3748 C 0.62031 0.85643 0.90223 0.0
C3749 C 0.61339 0.86173 0.91908 0.0
C3750 C 0.62658 0.8317 0.87788 0.0
C3751 C 0.62265 0.83802 0.86006 0.0
C3752 C 0.63769 0.81887 0.87908 0.0
C3753 C 0.64361 0.8129 0.89788 0.0
C3754 C 0.65231 0.82608 0.9144 0.0
C3755 C 0.65736 0.82044 0.93222 0.0
C3756 C 0.65391 0.80163 0.93368 0.0
C3757 C 0.64547 0.78843 0.91728 0.0
C3758 C 0.64038 0.794 0.89942 0.0
C3759 C 0.66838 0.81262 0.80539 0.0
C3760 C 0.66438 0.79326 0.79962 0.0
C3761 C 0.65948 0.82075 0.81911 0.0
C3762 C 0.64645 0.80967 0.82734 0.0
C3763 C 0.64172 0.7905 0.82085 0.0
C3764 C 0.65047 0.78238 0.80702 0.0
C3765 C 0.63923 0.81763 0.84425 0.0
C3766 C 0.64361 0.81181 0.86221 0.0
C3767 C 0.62885 0.83114 0.84315 0.0
C3768 C 0.62386 0.8379 0.82453 0.0
C3769 C 0.6157 0.8254 0.80731 0.0
C3770 C 0.61122 0.83192 0.78985 0.0
C3771 C 0.61468 0.85092 0.78942 0.0
C3772 C 0.62251 0.86346 0.8065 0.0
C3773 C 0.62698 0.85701 0.824 0.0
H3774 H 0.61121 0.85594 0.77589 0.0
H3775 H 0.65781 0.79728 0.9475 0.0
H3776 H 0.41816 0.59092 0.72132 0.0
H3777 H 0.43472 0.59395 0.69345 0.0
H3778 H 0.47218 0.56474 0.71919 0.0
H3779 H 0.45653 0.56243 0.74671 0.0
H3780 H 0.49096 0.58853 0.70488 0.0
H3781 H 0.43399 0.54599 0.67715 0.0
H3782 H 0.40102 0.53656 0.66771 0.0
H3783 H 0.40199 0.58008 0.63311 0.0
H3784 H 0.43496 0.5899 0.64255 0.0
H3785 H 0.52311 0.54497 0.62315 0.0
H3786 H 0.5082 0.55311 0.65088 0.0
H3787 H 0.48756 0.59304 0.62085 0.0
H3788 H 0.50307 0.58526 0.59325 0.0
H3789 H 0.4604 0.56929 0.63599 0.0
H3790 H 0.51806 0.60861 0.66046 0.0
H3791 H 0.55105 0.61717 0.66941 0.0
H3792 H 0.5488 0.5787 0.71009 0.0
H3793 H 0.51579 0.56969 0.70116 0.0
C3794 C 0.43007 0.5854 0.72115 0.0
C3795 C 0.43571 0.57631 0.73657 0.0
C3796 C 0.43951 0.58692 0.70497 0.0
C3797 C 0.45485 0.57931 0.70362 0.0
C3798 C 0.46061 0.57083 0.71937 0.0
C3799 C 0.45138 0.56941 0.73532 0.0
C3800 C 0.46509 0.57969 0.68624 0.0
C3801 C 0.4841 0.58412 0.68988 0.0
C3802 C 0.45665 0.5746 0.66627 0.0
C3803 C 0.43688 0.56883 0.66076 0.0
C3804 C 0.42714 0.55364 0.66766 0.0
C3805 C 0.40847 0.54821 0.66229 0.0
C3806 C 0.39941 0.55776 0.64988 0.0
C3807 C 0.40902 0.57274 0.64277 0.0
C3808 C 0.42769 0.57824 0.64813 0.0
C3809 C 0.51597 0.556 0.62274 0.0
C3810 C 0.51494 0.56489 0.60615 0.0
C3811 C 0.50722 0.56054 0.63861 0.0
C3812 C 0.49657 0.57377 0.63828 0.0
C3813 C 0.49563 0.58283 0.62175 0.0
C3814 C 0.50479 0.57858 0.60603 0.0
C3815 C 0.48609 0.57744 0.65485 0.0
C3816 C 0.46715 0.57379 0.65102 0.0
C3817 C 0.49456 0.58308 0.67469 0.0
C3818 C 0.51443 0.58834 0.67999 0.0
C3819 C 0.5246 0.60183 0.67117 0.0
C3820 C 0.54331 0.6068 0.67627 0.0
C3821 C 0.55202 0.59845 0.69027 0.0
C3822 C 0.54203 0.58514 0.69923 0.0
C3823 C 0.52332 0.5801 0.69416 0.0
H3824 H 0.56651 0.60233 0.69422 0.0
H3825 H 0.38496 0.55352 0.64573 0.0
H3826 H 0.81006 0.25375 0.01024 0.0
H3827 H 0.80338 0.26141 0.97812 0.0
H3828 H 0.84568 0.23723 0.95948 0.0
H3829 H 0.85249 0.22878 0.99241 0.0
H3830 H 0.8432 0.27521 0.9492 0.0
H3831 H 0.80802 0.21376 0.9415 0.0
H3832 H 0.78734 0.18712 0.94967 0.0
H3833 H 0.74583 0.21756 0.94944 0.0
H3834 H 0.76634 0.24451 0.94158 0.0
H3835 H 0.80858 0.27739 0.84968 0.0
H3836 H 0.81889 0.26685 0.87978 0.0
H3837 H 0.77914 0.28833 0.90763 0.0
H3838 H 0.76883 0.29949 0.87729 0.0
H3839 H 0.78185 0.2494 0.91136 0.0
H3840 H 0.81783 0.31152 0.9223 0.0
H3841 H 0.83793 0.33803 0.91314 0.0
H3842 H 0.87747 0.30582 0.9064 0.0
H3843 H 0.8575 0.27903 0.91535 0.0
C3844 C 0.81821 0.25 0.99957 0.0
C3845 C 0.83196 0.24058 0.00415 0.0
C3846 C 0.8142 0.25439 0.98104 0.0
C3847 C 0.82385 0.24976 0.96634 0.0
C3848 C 0.83799 0.24084 0.97069 0.0
C3849 C 0.8419 0.23606 0.98946 0.0
C3850 C 0.81866 0.2546 0.94672 0.0
C3851 C 0.82998 0.26923 0.94064 0.0
C3852 C 0.80112 0.24727 0.93594 0.0
C3853 C 0.78881 0.23124 0.94112 0.0
C3854 C 0.79456 0.21487 0.94343 0.0
C3855 C 0.78284 0.19968 0.94795 0.0
C3856 C 0.7653 0.20066 0.95012 0.0
C3857 C 0.75943 0.21683 0.94777 0.0
C3858 C 0.7711 0.23206 0.94327 0.0
C3859 C 0.80187 0.27985 0.86212 0.0
C3860 C 0.78772 0.28916 0.86102 0.0
C3861 C 0.80791 0.27388 0.87937 0.0
C3862 C 0.79983 0.27683 0.89592 0.0
C3863 C 0.78555 0.28594 0.89495 0.0
C3864 C 0.77969 0.2923 0.87767 0.0
C3865 C 0.80632 0.27005 0.91401 0.0
C3866 C 0.79517 0.25516 0.91979 0.0
C3867 C 0.82398 0.27711 0.92447 0.0
C3868 C 0.83611 0.29322 0.9193 0.0
C3869 C 0.83076 0.31004 0.91872 0.0
C3870 C 0.84214 0.32513 0.91361 0.0
C3871 C 0.85895 0.32359 0.90914 0.0
C3872 C 0.86444 0.30698 0.90985 0.0
C3873 C 0.85311 0.29185 0.91498 0.0
H3874 H 0.86774 0.33528 0.90516 0.0
H3875 H 0.75624 0.18887 0.95357 0.0
H3876 H 0.06413 0.49936 0.24829 0.0
H3877 H 0.05408 0.50419 0.21512 0.0
H3878 H 0.10534 0.49917 0.19962 0.0
H3879 H 0.11554 0.49434 0.23311 0.0
H3880 H 0.09553 0.53214 0.19252 0.0
H3881 H 0.06643 0.46629 0.17943 0.0
H3882 H 0.04632 0.43894 0.18713 0.0
H3883 H 1.00235 0.46607 0.18187 0.0
H3884 H 0.02224 0.49364 0.17434 0.0
H3885 H 0.07786 0.54793 0.0963 0.0
H3886 H 0.08548 0.53456 0.12552 0.0
H3887 H 0.02998 0.5247 0.13371 0.0
H3888 H 0.02219 0.5368 0.10338 0.0
H3889 H 0.04142 0.49852 0.14487 0.0
H3890 H 0.06515 0.56272 0.16122 0.0
H3891 H 0.0818 0.59389 0.15848 0.0
H3892 H 0.13122 0.5756 0.16374 0.0
H3893 H 0.11482 0.54422 0.16625 0.0
C3894 C 0.07307 0.49866 0.23764 0.0
C3895 C 0.0906 0.49637 0.24328 0.0
C3896 C 0.0673 0.50145 0.21865 0.0
C3897 C 0.07891 0.50203 0.20481 0.0
C3898 C 0.09611 0.49871 0.21005 0.0
C3899 C 0.10187 0.49574 0.2291 0.0
C3900 C 0.07373 0.50803 0.18572 0.0
C3901 C 0.08395 0.52456 0.18185 0.0
C3902 C 0.05788 0.49887 0.17247 0.0
C3903 C 0.04584 0.48204 0.17638 0.0
C3904 C 0.05248 0.46643 0.17996 0.0
C3905 C 0.04112 0.45089 0.18429 0.0
C3906 C 0.02307 0.45078 0.18501 0.0
C3907 C 0.01633 0.46617 0.18129 0.0
C3908 C 0.02763 0.48173 0.17694 0.0
C3909 C 0.06729 0.54278 0.10431 0.0
C3910 C 0.04948 0.54351 0.09776 0.0
C3911 C 0.07166 0.53528 0.12114 0.0
C3912 C 0.05846 0.52908 0.13237 0.0
C3913 C 0.0405 0.52942 0.12549 0.0
C3914 C 0.03603 0.53639 0.10821 0.0
C3915 C 0.06352 0.52249 0.15128 0.0
C3916 C 0.05318 0.50602 0.1553 0.0
C3917 C 0.07876 0.53222 0.16524 0.0
C3918 C 0.08872 0.55106 0.16371 0.0
C3919 C 0.07955 0.5653 0.16164 0.0
C3920 C 0.08894 0.58302 0.16015 0.0
C3921 C 0.10755 0.58671 0.16088 0.0
C3922 C 0.1168 0.57271 0.16315 0.0
C3923 C 0.10747 0.55496 0.16462 0.0
H3924 H 0.1148 0.60043 0.15972 0.0
H3925 H 0.01432 0.43876 0.18842 0.0
H3926 H 0.77226 0.928 0.57467 0.0
H3927 H 0.75958 0.90766 0.54336 0.0
H3928 H 0.80641 0.93047 0.51934 0.0
H3929 H 0.81948 0.95039 0.55081 0.0
H3930 H 0.76919 0.92313 0.49366 0.0
H3931 H 0.81138 0.89676 0.53416 0.0
H3932 H 0.82253 0.88679 0.56487 0.0
H3933 H 0.77131 0.84983 0.56205 0.0
H3934 H 0.75978 0.85991 0.53148 0.0
H3935 H 0.80222 0.87146 0.42587 0.0
H3936 H 0.79587 0.88932 0.45472 0.0
H3937 H 0.75398 0.84318 0.46047 0.0
H3938 H 0.76049 0.82501 0.43138 0.0
H3939 H 0.77737 0.85916 0.49518 0.0
H3940 H 0.74094 0.87973 0.44606 0.0
H3941 H 0.73403 0.88984 0.41424 0.0
H3942 H 0.77718 0.93806 0.43214 0.0
H3943 H 0.7845 0.92814 0.46398 0.0
C3944 C 0.77969 0.92887 0.56258 0.0
C3945 C 0.79689 0.94052 0.56504 0.0
C3946 C 0.77241 0.91735 0.54479 0.0
C3947 C 0.7821 0.91775 0.52925 0.0
C3948 C 0.79877 0.9302 0.53128 0.0
C3949 C 0.80626 0.94138 0.54921 0.0
C3950 C 0.77618 0.90363 0.51172 0.0
C3951 C 0.77068 0.90905 0.49389 0.0
C3952 C 0.77785 0.88527 0.51235 0.0
C3953 C 0.78464 0.8793 0.53077 0.0
C3954 C 0.80243 0.8867 0.54025 0.0
C3955 C 0.80884 0.881 0.55759 0.0
C3956 C 0.79762 0.86775 0.56547 0.0
C3957 C 0.77997 0.86016 0.55599 0.0
C3958 C 0.77349 0.86588 0.53867 0.0
C3959 C 0.79155 0.8652 0.43318 0.0
C3960 C 0.78168 0.84703 0.42642 0.0
C3961 C 0.78787 0.8754 0.44955 0.0
C3962 C 0.77413 0.86768 0.45929 0.0
C3963 C 0.76446 0.84937 0.45288 0.0
C3964 C 0.76822 0.83905 0.43644 0.0
C3965 C 0.77095 0.87877 0.47687 0.0
C3966 C 0.77485 0.87287 0.49486 0.0
C3967 C 0.768 0.89675 0.47631 0.0
C3968 C 0.76323 0.9032 0.45746 0.0
C3969 C 0.74896 0.89249 0.44322 0.0
C3970 C 0.74498 0.89818 0.42516 0.0
C3971 C 0.75515 0.91459 0.42118 0.0
C3972 C 0.76928 0.92538 0.43527 0.0
C3973 C 0.77331 0.91976 0.45336 0.0
H3974 H 0.75209 0.91894 0.40717 0.0
H3975 H 0.80265 0.86329 0.57885 0.0
H3976 H 0.44357 0.55076 0.83908 0.0
H3977 H 0.45779 0.55424 0.8728 0.0
H3978 H 0.44432 0.60712 0.8853 0.0
H3979 H 0.42944 0.60363 0.85084 0.0
H3980 H 0.48398 0.60214 0.90217 0.0
H3981 H 0.42121 0.58056 0.90337 0.0
H3982 H 0.3908 0.56137 0.89072 0.0
H3983 H 0.41026 0.51212 0.89587 0.0
H3984 H 0.4409 0.53105 0.90835 0.0
H3985 H 0.5021 0.59587 0.00657 0.0
H3986 H 0.48705 0.60114 0.97515 0.0
H3987 H 0.49055 0.5472 0.94801 0.0
H3988 H 0.50593 0.54204 0.97923 0.0
H3989 H 0.45441 0.55683 0.94048 0.0
H3990 H 0.51701 0.57823 0.9296 0.0
H3991 H 0.54794 0.59589 0.94308 0.0
H3992 H 0.52815 0.64434 0.95915 0.0
H3993 H 0.49716 0.62715 0.945 0.0
C3994 C 0.4436 0.56332 0.84875 0.0
C3995 C 0.43519 0.57693 0.84193 0.0
C3996 C 0.45187 0.56525 0.8682 0.0
C3997 C 0.45228 0.58093 0.88172 0.0
C3998 C 0.44431 0.5949 0.87512 0.0
C3999 C 0.4357 0.59285 0.85543 0.0
C4000 C 0.46007 0.58152 0.90278 0.0
C4001 C 0.47724 0.59262 0.91073 0.0
C4002 C 0.45172 0.56872 0.91392 0.0
C4003 C 0.43335 0.55722 0.90668 0.0
C4004 C 0.41903 0.56563 0.90168 0.0
C4005 C 0.40176 0.55481 0.89457 0.0
C4006 C 0.39861 0.53555 0.89249 0.0
C4007 C 0.41273 0.52706 0.89752 0.0
C4008 C 0.43005 0.53782 0.90465 0.0
C4009 C 0.49964 0.58512 0.99393 0.0
C4010 C 0.5052 0.5685 0.99553 0.0
C4011 C 0.49108 0.58818 0.97592 0.0
C4012 C 0.48756 0.57455 0.95912 0.0
C4013 C 0.49303 0.55792 0.9607 0.0
C4014 C 0.5019 0.55502 0.9786 0.0
C4015 C 0.47816 0.57753 0.93991 0.0
C4016 C 0.46087 0.56678 0.93217 0.0
C4017 C 0.48632 0.59069 0.92908 0.0
C4018 C 0.5049 0.6015 0.93613 0.0
C4019 C 0.51934 0.59275 0.93572 0.0
C4020 C 0.53685 0.60268 0.9434 0.0
C4021 C 0.54003 0.62131 0.95171 0.0
C4022 C 0.52569 0.63005 0.95228 0.0
C4023 C 0.50817 0.62026 0.94432 0.0
H4024 H 0.55357 0.62895 0.95784 0.0
H4025 H 0.3852 0.52727 0.88704 0.0
H4026 H 0.85322 0.27467 0.11103 0.0
H4027 H 0.84662 0.28606 0.1429 0.0
H4028 H 0.83418 0.2302 0.15502 0.0
H4029 H 0.84044 0.21869 0.12266 0.0
H4030 H 0.80702 0.24658 0.15948 0.0
H4031 H 0.87116 0.2652 0.18171 0.0
H4032 H 0.90195 0.28082 0.17895 0.0
H4033 H 0.88651 0.33292 0.18159 0.0
H4034 H 0.85556 0.31758 0.18413 0.0
H4035 H 0.79015 0.26234 0.25433 0.0
H4036 H 0.80451 0.25578 0.22622 0.0
H4037 H 0.81217 0.31283 0.21806 0.0
H4038 H 0.79782 0.3197 0.24697 0.0
H4039 H 0.84184 0.29819 0.21104 0.0
H4040 H 0.77907 0.28165 0.18875 0.0
H4041 H 0.74732 0.26757 0.18915 0.0
H4042 H 0.75889 0.21359 0.18376 0.0
H4043 H 0.79081 0.22738 0.18364 0.0
C4044 C 0.8499 0.26487 0.12085 0.0
C4045 C 0.84761 0.24577 0.11438 0.0
C4046 C 0.846 0.27142 0.13911 0.0
C4047 C 0.83984 0.25907 0.15154 0.0
C4048 C 0.83889 0.24007 0.14575 0.0
C4049 C 0.8428 0.23348 0.12737 0.0
C4050 C 0.83257 0.26574 0.16936 0.0
C4051 C 0.81481 0.25761 0.17092 0.0
C4052 C 0.84227 0.28088 0.18384 0.0
C4053 C 0.86102 0.29022 0.18302 0.0
C4054 C 0.87432 0.27998 0.18166 0.0
C4055 C 0.8918 0.28879 0.18012 0.0
C4056 C 0.89617 0.30785 0.18007 0.0
C4057 C 0.8831 0.31816 0.18165 0.0
C4058 C 0.8656 0.30942 0.18318 0.0
C4059 C 0.79483 0.27361 0.24664 0.0
C4060 C 0.79251 0.29153 0.25277 0.0
C4061 C 0.80309 0.26978 0.23048 0.0
C4062 C 0.80917 0.28366 0.21967 0.0
C4063 C 0.80751 0.30182 0.22607 0.0
C4064 C 0.79923 0.30573 0.24251 0.0
C4065 C 0.81651 0.27858 0.20139 0.0
C4066 C 0.83414 0.28708 0.19964 0.0
C4067 C 0.8066 0.26399 0.18645 0.0
C4068 C 0.78738 0.25557 0.18636 0.0
C4069 C 0.77488 0.26679 0.1878 0.0
C4070 C 0.75685 0.25886 0.18795 0.0
C4071 C 0.7511 0.2397 0.18652 0.0
C4072 C 0.76337 0.22843 0.18488 0.0
C4073 C 0.78144 0.23629 0.18475 0.0
H4074 H 0.73713 0.23359 0.18665 0.0
H4075 H 0.9097 0.31463 0.17882 0.0
H4076 H 0.07302 0.47523 0.34597 0.0
H4077 H 0.06417 0.48386 0.3777 0.0
H4078 H 0.11276 0.52693 0.39393 0.0
H4079 H 0.12227 0.51703 0.36317 0.0
H4080 H 0.10484 0.51911 0.42484 0.0
H4081 H 0.06972 0.53294 0.36978 0.0
H4082 H 0.05008 0.52709 0.33764 0.0
H4083 H 1.00906 0.49135 0.35972 0.0
H4084 H 0.02857 0.49679 0.39192 0.0
H4085 H 0.06829 0.57398 0.4932 0.0
H4086 H 0.08015 0.56417 0.46371 0.0
H4087 H 0.03578 0.51632 0.44849 0.0
H4088 H 0.02325 0.52694 0.477 0.0
H4089 H 0.04257 0.5283 0.41715 0.0
H4090 H 0.08371 0.51916 0.47533 0.0
H4091 H 0.1055 0.53209 0.50577 0.0
H4092 H 0.13762 0.56842 0.47471 0.0
H4093 H 0.11598 0.55591 0.44424 0.0
C4094 C 0.0822 0.48581 0.35684 0.0
C4095 C 0.09843 0.49528 0.35235 0.0
C4096 C 0.07697 0.49108 0.37478 0.0
C4097 C 0.08739 0.50663 0.38796 0.0
C4098 C 0.10434 0.51499 0.3841 0.0
C4099 C 0.10988 0.50922 0.36654 0.0
C4100 C 0.08007 0.51522 0.40473 0.0
C4101 C 0.09122 0.52113 0.42306 0.0
C4102 C 0.06245 0.51842 0.40253 0.0
C4103 C 0.05068 0.5151 0.38319 0.0
C4104 C 0.05656 0.52373 0.36773 0.0
C4105 C 0.04544 0.5205 0.34951 0.0
C4106 C 0.02835 0.50882 0.34662 0.0
C4107 C 0.02232 0.50037 0.36197 0.0
C4108 C 0.03339 0.50352 0.38021 0.0
C4109 C 0.06097 0.56155 0.48332 0.0
C4110 C 0.04487 0.55121 0.48732 0.0
C4111 C 0.06787 0.55579 0.46661 0.0
C4112 C 0.05923 0.5391 0.45414 0.0
C4113 C 0.04281 0.52916 0.45787 0.0
C4114 C 0.03561 0.53526 0.47416 0.0
C4115 C 0.06714 0.53162 0.43733 0.0
C4116 C 0.05611 0.52604 0.41892 0.0
C4117 C 0.08515 0.5296 0.43922 0.0
C4118 C 0.09821 0.53665 0.45756 0.0
C4119 C 0.09542 0.52992 0.47504 0.0
C4120 C 0.10773 0.5372 0.49229 0.0
C4121 C 0.12293 0.55106 0.49214 0.0
C4122 C 0.12586 0.55769 0.47479 0.0
C4123 C 0.1136 0.5505 0.45755 0.0
H4124 H 0.13251 0.55665 0.50541 0.0
H4125 H 0.01976 0.50634 0.33251 0.0
H4126 H 0.82274 0.91769 0.65668 0.0
H4127 H 0.80968 0.89252 0.67276 0.0
H4128 H 0.76441 0.91699 0.67941 0.0
H4129 H 0.77741 0.94248 0.6629 0.0
H4130 H 0.78203 0.90413 0.71366 0.0
H4131 H 0.75755 0.88186 0.64462 0.0
H4132 H 0.76032 0.87506 0.60977 0.0
H4133 H 0.79555 0.83932 0.62367 0.0
H4134 H 0.79322 0.84608 0.65859 0.0
H4135 H 0.75029 0.82724 0.75506 0.0
H4136 H 0.74568 0.84606 0.72943 0.0
H4137 H 0.79119 0.83238 0.70599 0.0
H4138 H 0.79617 0.81424 0.73199 0.0
H4139 H 0.76636 0.83973 0.67774 0.0
H4140 H 0.79748 0.86274 0.74264 0.0
H4141 H 0.80248 0.87034 0.77855 0.0
H4142 H 0.76665 0.90719 0.77502 0.0
H4143 H 0.76143 0.89963 0.73897 0.0
C4144 C 0.81006 0.91787 0.66167 0.0
C4145 C 0.80098 0.93196 0.65839 0.0
C4146 C 0.80258 0.90339 0.67071 0.0
C4147 C 0.7859 0.90272 0.67666 0.0
C4148 C 0.7772 0.91725 0.67453 0.0
C4149 C 0.78469 0.93183 0.66533 0.0
C4150 C 0.77808 0.88691 0.68566 0.0
C4151 C 0.77795 0.89005 0.7058 0.0
C4152 C 0.77389 0.8686 0.67533 0.0
C4153 C 0.77518 0.86449 0.65425 0.0
C4154 C 0.76596 0.87263 0.64026 0.0
C4155 C 0.76745 0.86877 0.62049 0.0
C4156 C 0.77807 0.85674 0.61453 0.0
C4157 C 0.78729 0.84859 0.62831 0.0
C4158 C 0.78585 0.85241 0.64808 0.0
C4159 C 0.75862 0.82743 0.74375 0.0
C4160 C 0.77363 0.81952 0.74535 0.0
C4161 C 0.75605 0.83825 0.72922 0.0
C4162 C 0.76835 0.84086 0.71618 0.0
C4163 C 0.78162 0.83055 0.716 0.0
C4164 C 0.78445 0.82016 0.73079 0.0
C4165 C 0.77012 0.85691 0.70584 0.0
C4166 C 0.76951 0.85382 0.68553 0.0
C4167 C 0.77476 0.87529 0.71625 0.0
C4168 C 0.77804 0.87968 0.73804 0.0
C4169 C 0.79016 0.87196 0.74946 0.0
C4170 C 0.79326 0.87645 0.76988 0.0
C4171 C 0.78469 0.88905 0.77909 0.0
C4172 C 0.77308 0.89722 0.7679 0.0
C4173 C 0.76995 0.89274 0.74748 0.0
H4174 H 0.78727 0.89269 0.79488 0.0
H4175 H 0.77911 0.85368 0.59923 0.0
H4176 H 0.66904 0.42809 0.56912 0.0
H4177 H 0.64673 0.44668 0.57443 0.0
H4178 H 0.67441 0.48812 0.54479 0.0
H4179 H 0.69662 0.46986 0.53965 0.0
H4180 H 0.6659 0.5047 0.57649 0.0
H4181 H 0.6345 0.45632 0.52389 0.0
H4182 H 0.62103 0.42443 0.50711 0.0
H4183 H 0.58656 0.41657 0.55014 0.0
H4184 H 0.60021 0.44818 0.5676 0.0
H4185 H 0.59921 0.55768 0.56142 0.0
H4186 H 0.62198 0.53934 0.55966 0.0
H4187 H 0.58884 0.49626 0.58287 0.0
H4188 H 0.56556 0.51408 0.58321 0.0
H4189 H 0.60037 0.48027 0.55568 0.0
H4190 H 0.63219 0.5283 0.60901 0.0
H4191 H 0.64513 0.56045 0.6254 0.0
H4192 H 0.67804 0.56914 0.58101 0.0
H4193 H 0.66515 0.53711 0.56423 0.0
C4194 C 0.67032 0.44111 0.56365 0.0
C4195 C 0.68472 0.44735 0.55389 0.0
C4196 C 0.6575 0.45177 0.56666 0.0
C4197 C 0.6587 0.46891 0.55995 0.0
C4198 C 0.67307 0.47507 0.55023 0.0
C4199 C 0.6858 0.46448 0.54721 0.0
C4200 C 0.64527 0.48065 0.56308 0.0
C4201 C 0.65157 0.49933 0.57181 0.0
C4202 C 0.62645 0.47377 0.55741 0.0
C4203 C 0.6186 0.45455 0.54724 0.0
C4204 C 0.62426 0.44769 0.52998 0.0
C4205 C 0.61657 0.42966 0.52034 0.0
C4206 C 0.60303 0.41843 0.52765 0.0
C4207 C 0.59715 0.42521 0.54461 0.0
C4208 C 0.60489 0.44317 0.55441 0.0
C4209 C 0.59703 0.54453 0.56667 0.0
C4210 C 0.5807 0.53753 0.57284 0.0
C4211 C 0.61012 0.53395 0.56566 0.0
C4212 C 0.60752 0.51633 0.57144 0.0
C4213 C 0.59139 0.5097 0.57827 0.0
C4214 C 0.57811 0.52002 0.57871 0.0
C4215 C 0.62094 0.50433 0.56934 0.0
C4216 C 0.61467 0.48561 0.56066 0.0
C4217 C 0.63977 0.51114 0.57516 0.0
C4218 C 0.64761 0.53035 0.58531 0.0
C4219 C 0.64212 0.5371 0.6027 0.0
C4220 C 0.64945 0.5553 0.61206 0.0
C4221 C 0.66237 0.56684 0.60423 0.0
C4222 C 0.66803 0.56019 0.58705 0.0
C4223 C 0.66073 0.54201 0.57763 0.0
H4224 H 0.66802 0.58093 0.61149 0.0
H4225 H 0.59702 0.4045 0.52011 0.0
H4226 H 0.19136 0.1031 0.45624 0.0
H4227 H 0.16466 0.08551 0.46637 0.0
H4228 H 0.19305 0.09491 0.52574 0.0
H4229 H 0.2201 0.11092 0.51518 0.0
H4230 H 0.1674 0.0667 0.5225 0.0
H4231 H 0.17131 0.12765 0.50613 0.0
H4232 H 0.17515 0.15185 0.4852 0.0
H4233 H 0.12896 0.12081 0.4441 0.0
H4234 H 0.12501 0.0963 0.46468 0.0
H4235 H 0.09511 0.09435 0.56946 0.0
H4236 H 0.12356 0.09311 0.55758 0.0
H4237 H 0.09401 0.063 0.50197 0.0
H4238 H 0.06576 0.06403 0.51366 0.0
H4239 H 0.11936 0.09903 0.50294 0.0
H4240 H 0.11523 0.03924 0.52451 0.0
H4241 H 0.11288 0.01797 0.54872 0.0
H4242 H 0.16051 0.05209 0.58514 0.0
H4243 H 0.16319 0.07353 0.56111 0.0
C4244 C 0.19214 0.10034 0.47115 0.0
C4245 C 0.20762 0.10827 0.48499 0.0
C4246 C 0.17685 0.09056 0.47703 0.0
C4247 C 0.17662 0.08968 0.497 0.0
C4248 C 0.1928 0.09558 0.5103 0.0
C4249 C 0.2083 0.10468 0.50425 0.0
C4250 C 0.15933 0.0859 0.5045 0.0
C4251 C 0.15692 0.07378 0.51821 0.0
C4252 C 0.14567 0.09533 0.49919 0.0
C4253 C 0.14801 0.11005 0.4868 0.0
C4254 C 0.16205 0.12594 0.49257 0.0
C4255 C 0.16424 0.13971 0.48077 0.0
C4256 C 0.15234 0.13784 0.4633 0.0
C4257 C 0.13819 0.12222 0.45761 0.0
C4258 C 0.13598 0.10838 0.46932 0.0
C4259 C 0.09477 0.08735 0.55478 0.0
C4260 C 0.07833 0.07953 0.54235 0.0
C4261 C 0.11094 0.08646 0.54812 0.0
C4262 C 0.11075 0.07784 0.52898 0.0
C4263 C 0.09434 0.06958 0.51682 0.0
C4264 C 0.07826 0.07032 0.52349 0.0
C4265 C 0.12742 0.07971 0.52059 0.0
C4266 C 0.12976 0.09172 0.50691 0.0
C4267 C 0.14114 0.07071 0.52647 0.0
C4268 C 0.13933 0.05805 0.5411 0.0
C4269 C 0.1251 0.0423 0.53777 0.0
C4270 C 0.12373 0.03019 0.55143 0.0
C4271 C 0.13647 0.03372 0.5685 0.0
C4272 C 0.15064 0.04937 0.57193 0.0
C4273 C 0.15212 0.06147 0.55826 0.0
H4274 H 0.1354 0.02427 0.579 0.0
H4275 H 0.15405 0.14852 0.45419 0.0
H4276 H 0.22267 1.0025 0.84214 0.0
H4277 H 0.2336 0.97432 0.83618 0.0
H4278 H 0.18671 0.94986 0.79277 0.0
H4279 H 0.17555 0.97849 0.79873 0.0
H4280 H 0.19526 0.9232 0.81464 0.0
H4281 H 0.22863 0.96484 0.77955 0.0
H4282 H 0.24751 0.9942 0.77462 0.0
H4283 H 0.2891 0.98929 0.81979 0.0
H4284 H 0.27037 0.96 0.82517 0.0
H4285 H 0.23348 0.84551 0.78513 0.0
H4286 H 0.21968 0.87222 0.78663 0.0
H4287 H 0.26887 0.90658 0.82041 0.0
H4288 H 0.28302 0.8801 0.8176 0.0
H4289 H 0.25735 0.92782 0.80114 0.0
H4290 H 0.22294 0.8867 0.83761 0.0
H4291 H 0.20423 0.85686 0.84162 0.0
H4292 H 0.16459 0.86033 0.79362 0.0
H4293 H 0.18316 0.89011 0.78922 0.0
C4294 C 0.21452 0.99128 0.83119 0.0
C4295 C 0.19808 0.99332 0.82092 0.0
C4296 C 0.22094 0.97491 0.82772 0.0
C4297 C 0.21131 0.95948 0.8138 0.0
C4298 C 0.19469 0.96126 0.80361 0.0
C4299 C 0.18828 0.97786 0.80697 0.0
C4300 C 0.2189 0.94197 0.81001 0.0
C4301 C 0.20878 0.92429 0.81145 0.0
C4302 C 0.23669 0.94277 0.8061 0.0
C4303 C 0.24803 0.96031 0.80288 0.0
C4304 C 0.24175 0.97009 0.78853 0.0
C4305 C 0.25243 0.9867 0.78564 0.0
C4306 C 0.26947 0.99362 0.79692 0.0
C4307 C 0.27589 0.98392 0.81108 0.0
C4308 C 0.26525 0.9673 0.81404 0.0
C4309 C 0.24148 0.85876 0.7928 0.0
C4310 C 0.25959 0.86029 0.80114 0.0
C4311 C 0.23338 0.87426 0.79396 0.0
C4312 C 0.24272 0.89199 0.80421 0.0
C4313 C 0.26092 0.89346 0.81238 0.0
C4314 C 0.26915 0.87808 0.81078 0.0
C4315 C 0.23395 0.90893 0.80625 0.0
C4316 C 0.24386 0.9266 0.80444 0.0
C4317 C 0.21598 0.90807 0.80988 0.0
C4318 C 0.20451 0.89055 0.81299 0.0
C4319 C 0.21024 0.88109 0.82791 0.0
C4320 C 0.19967 0.86418 0.83024 0.0
C4321 C 0.18326 0.85668 0.81785 0.0
C4322 C 0.17732 0.86614 0.8032 0.0
C4323 C 0.18784 0.88305 0.8008 0.0
H4324 H 0.17513 0.84356 0.81961 0.0
H4325 H 0.27772 0.00649 0.79466 0.0
H4326 H 0.29319 0.93047 0.08862 0.0
H4327 H 0.3205 0.95321 0.08774 0.0
H4328 H 0.28965 0.98302 0.05281 0.0
H4329 H 0.26211 0.96006 0.05341 0.0
H4330 H 0.31714 0.97341 0.0359 0.0
H4331 H 0.31039 1.00204 0.09978 0.0
H4332 H 0.30588 1.00201 0.13408 0.0
H4333 H 0.35404 0.98241 0.14692 0.0
H4334 H 0.35873 0.98211 0.11264 0.0
H4335 H 0.39087 0.04398 0.02913 0.0
H4336 H 0.36244 0.02827 0.03746 0.0
H4337 H 0.39074 0.9974 0.0737 0.0
H4338 H 0.41927 0.01328 0.06567 0.0
H4339 H 0.36425 0.00886 0.09086 0.0
H4340 H 0.37077 0.97695 0.03002 0.0
H4341 H 0.37601 0.97238 0.99586 0.0
H4342 H 0.32951 0.99296 0.97742 0.0
H4343 H 0.32414 0.99792 0.01156 0.0
C4344 C 0.29213 0.94207 0.08106 0.0
C4345 C 0.27553 0.94338 0.07089 0.0
C4346 C 0.30776 0.95513 0.0807 0.0
C4347 C 0.30709 0.96982 0.07026 0.0
C4348 C 0.29041 0.97176 0.06098 0.0
C4349 C 0.2747 0.95869 0.06139 0.0
C4350 C 0.32397 0.98176 0.06717 0.0
C4351 C 0.32725 0.98158 0.04788 0.0
C4352 C 0.33751 0.99152 0.08291 0.0
C4353 C 0.33486 0.99197 0.10361 0.0
C4354 C 0.31997 0.99763 0.10989 0.0
C4355 C 0.31739 0.99769 0.12934 0.0
C4356 C 0.32966 0.99219 0.14266 0.0
C4357 C 0.34456 0.98667 0.13658 0.0
C4358 C 0.3472 0.9866 0.11716 0.0
C4359 C 0.39106 0.03409 0.03914 0.0
C4360 C 0.40724 0.02976 0.04667 0.0
C4361 C 0.37482 0.02503 0.04377 0.0
C4362 C 0.37451 0.01155 0.05602 0.0
C4363 C 0.39072 0.00774 0.06419 0.0
C4364 C 0.40695 0.01671 0.05949 0.0
C4365 C 0.35719 1.00085 0.05956 0.0
C4366 C 0.35395 1.00104 0.07888 0.0
C4367 C 0.34382 0.99064 0.04389 0.0
C4368 C 0.34721 0.98808 0.0234 0.0
C4369 C 0.36179 0.98073 0.01873 0.0
C4370 C 0.36476 0.97802 0.99936 0.0
C4371 C 0.35314 0.98245 0.98449 0.0
C4372 C 0.33853 0.98959 0.98897 0.0
C4373 C 0.33552 0.99236 0.00832 0.0
H4374 H 0.35544 0.9803 0.9695 0.0
H4375 H 0.32762 0.99222 0.1577 0.0
H4376 H 0.91329 0.67624 0.78933 0.0
H4377 H 0.89473 0.69912 0.78573 0.0
H4378 H 0.84789 0.6583 0.79078 0.0
H4379 H 0.86606 0.63561 0.79409 0.0
H4380 H 0.83913 0.67572 0.76268 0.0
H4381 H 0.87212 0.69365 0.82768 0.0
H4382 H 0.89752 0.70497 0.85485 0.0
H4383 H 0.911 0.75638 0.83334 0.0
H4384 H 0.88653 0.74491 0.80518 0.0
H4385 H 0.77918 0.73592 0.7839 0.0
H4386 H 0.79768 0.71279 0.78309 0.0
H4387 H 0.84324 0.75445 0.77697 0.0
H4388 H 0.82515 0.77785 0.77878 0.0
H4389 H 0.85287 0.73705 0.80487 0.0
H4390 H 0.8206 0.71836 0.73905 0.0
H4391 H 0.79372 0.70789 0.71344 0.0
H4392 H 0.77737 0.6592 0.73895 0.0
H4393 H 0.80404 0.6695 0.76487 0.0
C4394 C 0.89905 0.67217 0.7897 0.0
C4395 C 0.89129 0.65399 0.79207 0.0
C4396 C 0.88841 0.6853 0.78769 0.0
C4397 C 0.86978 0.68058 0.78806 0.0
C4398 C 0.86213 0.66242 0.79034 0.0
C4399 C 0.87266 0.6494 0.79233 0.0
C4400 C 0.85803 0.69422 0.78604 0.0
C4401 C 0.84215 0.68908 0.77205 0.0
C4402 C 0.86193 0.71191 0.79794 0.0
C4403 C 0.87764 0.7182 0.81401 0.0
C4404 C 0.88082 0.70714 0.82834 0.0
C4405 C 0.89511 0.71359 0.84393 0.0
C4406 C 0.90605 0.73128 0.84565 0.0
C4407 C 0.90277 0.74252 0.83174 0.0
C4408 C 0.88878 0.73599 0.81588 0.0
C4409 C 0.79309 0.74012 0.78212 0.0
C4410 C 0.8007 0.75879 0.78152 0.0
C4411 C 0.8037 0.72685 0.78165 0.0
C4412 C 0.82205 0.73192 0.78016 0.0
C4413 C 0.82931 0.75036 0.77859 0.0
C4414 C 0.81889 0.76365 0.77946 0.0
C4415 C 0.83417 0.71859 0.78148 0.0
C4416 C 0.85004 0.72376 0.79537 0.0
C4417 C 0.83028 0.70098 0.76956 0.0
C4418 C 0.81423 0.69479 0.75401 0.0
C4419 C 0.8112 0.70549 0.73929 0.0
C4420 C 0.79601 0.69958 0.7247 0.0
C4421 C 0.78382 0.68292 0.7246 0.0
C4422 C 0.78681 0.67212 0.73906 0.0
C4423 C 0.80196 0.67798 0.75369 0.0
H4424 H 0.77208 0.67836 0.71329 0.0
H4425 H 0.91695 0.73634 0.85787 0.0
H4426 H 0.79058 0.61492 0.01505 0.0
H4427 H 0.81594 0.60486 0.03186 0.0
H4428 H 0.85197 0.63808 1.00127 0.0
H4429 H 0.82672 0.64852 0.98463 0.0
H4430 H 0.85654 0.60099 0.00211 0.0
H4431 H 0.85138 0.65476 0.04464 0.0
H4432 H 0.83543 0.67388 0.0641 0.0
H4433 H 0.82489 0.63202 0.10032 0.0
H4434 H 0.84045 0.61245 0.08079 0.0
H4435 H 0.93998 0.60351 0.05274 0.0
H4436 H 0.91462 0.61763 0.04483 0.0
H4437 H 0.88137 0.57801 0.07193 0.0
H4438 H 0.9066 0.56339 0.07945 0.0
H4439 H 0.87477 0.61796 0.07429 0.0
H4440 H 0.8782 0.56347 0.03043 0.0
H4441 H 0.89472 0.54466 0.01141 0.0
H4442 H 0.90824 0.58809 0.97771 0.0
H4443 H 0.89216 0.60737 0.99691 0.0
C4444 C 0.80387 0.61991 0.01171 0.0
C4445 C 0.80672 0.6325 0.99853 0.0
C4446 C 0.81832 0.61426 0.02143 0.0
C4447 C 0.83575 0.62092 0.0179 0.0
C4448 C 0.83856 0.6329 0.0042 0.0
C4449 C 0.82417 0.63882 0.99472 0.0
C4450 C 0.85112 0.61544 0.02859 0.0
C4451 C 0.8606 0.60483 0.01785 0.0
C4452 C 0.85612 0.6202 0.04919 0.0
C4453 C 0.84688 0.63201 0.06107 0.0
C4454 C 0.84549 0.64953 0.05661 0.0
C4455 C 0.83654 0.66047 0.06768 0.0
C4456 C 0.8291 0.65414 0.0834 0.0
C4457 C 0.83063 0.63688 0.08811 0.0
C4458 C 0.83951 0.62585 0.07704 0.0
C4459 C 0.92737 0.59803 0.05739 0.0
C4460 C 0.92507 0.58203 0.06619 0.0
C4461 C 0.91299 0.60624 0.05305 0.0
C4462 C 0.89617 0.59866 0.0576 0.0
C4463 C 0.89433 0.58401 0.06837 0.0
C4464 C 0.90873 0.57567 0.0726 0.0
C4465 C 0.88012 0.60361 0.04774 0.0
C4466 C 0.87057 0.61407 0.05857 0.0
C4467 C 0.87492 0.59867 0.0272 0.0
C4468 C 0.88418 0.58694 0.01527 0.0
C4469 C 0.88485 0.56908 0.0191 0.0
C4470 C 0.89412 0.55833 0.00828 0.0
C4471 C 0.90258 0.5652 0.9934 0.0
C4472 C 0.90172 0.58281 0.98928 0.0
C4473 C 0.89254 0.59366 1.00013 0.0
H4474 H 0.90975 0.55686 0.98504 0.0
H4475 H 0.82218 0.66263 0.09195 0.0
H4476 H 0.21694 0.09232 0.81614 0.0
H4477 H 0.2347 0.12312 0.81279 0.0
H4478 H 0.1916 0.14798 0.82744 0.0
H4479 H 0.17445 0.11831 0.83136 0.0
H4480 H 0.20279 0.15903 0.79427 0.0
H4481 H 0.22849 0.15523 0.85957 0.0
H4482 H 0.24439 0.14179 0.8851 0.0
H4483 H 0.29084 0.14858 0.85672 0.0
H4484 H 0.27508 0.16182 0.83082 0.0
H4485 H 0.23289 0.25566 0.80875 0.0
H4486 H 0.22226 0.22386 0.81366 0.0
H4487 H 0.27436 0.2131 0.80844 0.0
H4488 H 0.28537 0.24562 0.80447 0.0
H4489 H 0.26118 0.19313 0.83399 0.0
H4490 H 0.235 0.19873 0.76912 0.0
H4491 H 0.21843 0.21281 0.74469 0.0
H4492 H 0.17205 0.20263 0.77295 0.0
H4493 H 0.1884 0.18864 0.79766 0.0
C4494 C 0.21136 0.10437 0.81893 0.0
C4495 C 0.194 0.10232 0.82401 0.0
C4496 C 0.22155 0.1221 0.81694 0.0
C4497 C 0.21455 0.13821 0.81966 0.0
C4498 C 0.19747 0.13607 0.82503 0.0
C4499 C 0.18759 0.11874 0.82733 0.0
C4500 C 0.22423 0.15732 0.81657 0.0
C4501 C 0.21556 0.16641 0.80303 0.0
C4502 C 0.24105 0.16726 0.82765 0.0
C4503 C 0.25052 0.15925 0.8431 0.0
C4504 C 0.24202 0.15366 0.85864 0.0
C4505 C 0.25102 0.14612 0.87321 0.0
C4506 C 0.26859 0.14426 0.87249 0.0
C4507 C 0.27721 0.14998 0.85722 0.0
C4508 C 0.26825 0.1575 0.8426 0.0
C4509 C 0.24222 0.24663 0.80875 0.0
C4510 C 0.26003 0.25343 0.80601 0.0
C4511 C 0.23602 0.22818 0.8114 0.0
C4512 C 0.24714 0.21537 0.8108 0.0
C4513 C 0.26523 0.22231 0.80881 0.0
C4514 C 0.27159 0.24104 0.80651 0.0
C4515 C 0.23962 0.19494 0.81177 0.0
C4516 C 0.24858 0.18566 0.82496 0.0
C4517 C 0.22296 0.18473 0.80039 0.0
C4518 C 0.21296 0.19272 0.78528 0.0
C4519 C 0.22128 0.19953 0.77014 0.0
C4520 C 0.21193 0.20749 0.75625 0.0
C4521 C 0.19421 0.20863 0.75728 0.0
C4522 C 0.18577 0.20173 0.77216 0.0
C4523 C 0.19506 0.19375 0.78609 0.0
H4524 H 0.187 0.21483 0.74654 0.0
H4525 H 0.27554 0.13844 0.88379 0.0
H4526 H 0.38509 0.07483 0.27238 0.0
H4527 H 0.36197 0.04608 0.26901 0.0
H4528 H 0.39812 0.02431 0.30755 0.0
H4529 H 0.42124 0.05239 0.31022 0.0
H4530 H 0.38298 0.99907 0.27784 0.0
H4531 H 0.36199 0.04323 0.32207 0.0
H4532 H 0.35172 0.072 0.33024 0.0
H4533 H 0.30843 0.05428 0.28151 0.0
H4534 H 0.31857 0.02549 0.27295 0.0
H4535 H 0.33727 0.93469 0.32671 0.0
H4536 H 0.35335 0.96311 0.31762 0.0
H4537 H 0.3074 0.96293 0.27482 0.0
H4538 H 0.29112 0.93426 0.28391 0.0
H4539 H 0.3232 0.99794 0.29714 0.0
H4540 H 0.34182 0.9499 0.25865 0.0
H4541 H 0.35268 0.92122 0.25275 0.0
H4542 H 0.40148 0.94642 0.29281 0.0
H4543 H 0.39081 0.97516 0.29919 0.0
C4544 C 0.38798 0.06388 0.28015 0.0
C4545 C 0.40493 0.06577 0.29152 0.0
C4546 C 0.3748 0.0475 0.27823 0.0
C4547 C 0.3783 0.03304 0.28806 0.0
C4548 C 0.39515 0.03516 0.29964 0.0
C4549 C 0.40835 0.05127 0.30124 0.0
C4550 C 0.36469 0.01557 0.28667 0.0
C4551 C 0.36991 0.99883 0.28207 0.0
C4552 C 0.34736 0.01519 0.29143 0.0
C4553 C 0.34114 0.03234 0.29675 0.0
C4554 C 0.35033 0.04553 0.31305 0.0
C4555 C 0.34453 0.06183 0.31775 0.0
C4556 C 0.32946 0.06499 0.30637 0.0
C4557 C 0.32012 0.05183 0.2903 0.0
C4558 C 0.32587 0.03552 0.28552 0.0
C4559 C 0.33061 0.94063 0.31529 0.0
C4560 C 0.31304 0.93217 0.30585 0.0
C4561 C 0.33979 0.95686 0.31013 0.0
C4562 C 0.33166 0.96489 0.2953 0.0
C4563 C 0.31391 0.95685 0.28623 0.0
C4564 C 0.30464 0.94055 0.29146 0.0
C4565 C 0.34201 0.98165 0.28948 0.0
C4566 C 0.3361 0.99817 0.29249 0.0
C4567 C 0.35886 0.98188 0.28352 0.0
C4568 C 0.36547 0.96469 0.27943 0.0
C4569 C 0.35483 0.94931 0.26627 0.0
C4570 C 0.36095 0.93303 0.26284 0.0
C4571 C 0.37775 0.93199 0.27241 0.0
C4572 C 0.38848 0.94724 0.28539 0.0
C4573 C 0.38241 0.96355 0.28889 0.0
H4574 H 0.38245 0.91937 0.26976 0.0
H4575 H 0.32501 0.07762 0.31002 0.0
H4576 H 0.5466 0.36222 0.69436 0.0
H4577 H 0.54276 0.38477 0.67251 0.0
H4578 H 0.49726 0.34545 0.63725 0.0
H4579 H 0.50074 0.32304 0.65955 0.0
H4580 H 0.52804 0.36206 0.6172 0.0
H4581 H 0.48657 0.37892 0.65863 0.0
H4582 H 0.4779 0.38741 0.69072 0.0
H4583 H 0.52168 0.43534 0.70369 0.0
H4584 H 0.53073 0.42699 0.67174 0.0
H4585 H 0.5028 0.4241 0.55372 0.0
H4586 H 0.50536 0.40026 0.57423 0.0
H4587 H 0.53929 0.44166 0.62027 0.0
H4588 H 0.53682 0.46545 0.59988 0.0
H4589 H 0.5129 0.42279 0.63438 0.0
H4590 H 0.55756 0.40615 0.59866 0.0
H4591 H 0.57166 0.39762 0.57023 0.0
H4592 H 0.52714 0.35129 0.54877 0.0
H4593 H 0.51294 0.35934 0.5774 0.0
C4594 C 0.53535 0.35872 0.6824 0.0
C4595 C 0.52368 0.34115 0.67887 0.0
C4596 C 0.53329 0.37148 0.66982 0.0
C4597 C 0.5198 0.3667 0.65323 0.0
C4598 C 0.50774 0.34936 0.65 0.0
C4599 C 0.50955 0.33672 0.66288 0.0
C4600 C 0.51903 0.37959 0.63887 0.0
C4601 C 0.52433 0.37517 0.62071 0.0
C4602 C 0.51502 0.39699 0.64387 0.0
C4603 C 0.50938 0.40227 0.66287 0.0
C4604 C 0.4944 0.39121 0.66837 0.0
C4605 C 0.48941 0.39601 0.68652 0.0
C4606 C 0.49925 0.41189 0.69925 0.0
C4607 C 0.51407 0.42304 0.69381 0.0
C4608 C 0.51911 0.41831 0.67567 0.0
C4609 C 0.51111 0.42804 0.56805 0.0
C4610 C 0.51933 0.44673 0.5753 0.0
C4611 C 0.5126 0.41439 0.57977 0.0
C4612 C 0.52242 0.41915 0.59889 0.0
C4613 C 0.53146 0.43765 0.60568 0.0
C4614 C 0.52997 0.45126 0.59402 0.0
C4615 C 0.52188 0.40534 0.61249 0.0
C4616 C 0.51638 0.4096 0.63062 0.0
C4617 C 0.52613 0.38797 0.60762 0.0
C4618 C 0.53409 0.38349 0.58997 0.0
C4619 C 0.55069 0.39426 0.58775 0.0
C4620 C 0.55874 0.38947 0.57166 0.0
C4621 C 0.55023 0.37404 0.55757 0.0
C4622 C 0.53369 0.36328 0.55965 0.0
C4623 C 0.52568 0.36789 0.57586 0.0
H4624 H 0.55649 0.37036 0.54511 0.0
H4625 H 0.49539 0.41557 0.71331 0.0
H4626 H 0.47831 0.83946 0.37556 0.0
H4627 H 0.44729 0.83764 0.36106 0.0
H4628 H 0.44878 0.7908 0.31892 0.0
H4629 H 0.48004 0.79217 0.33404 0.0
H4630 H 0.4288 0.83042 0.31236 0.0
H4631 H 0.43007 0.77231 0.34018 0.0
H4632 H 0.44017 0.7564 0.36694 0.0
H4633 H 0.41884 0.79082 0.40743 0.0
H4634 H 0.4091 0.80729 0.381 0.0
H4635 H 0.33154 0.80789 0.28802 0.0
H4636 H 0.36323 0.80549 0.29119 0.0
H4637 H 0.36903 0.81951 0.35394 0.0
H4638 H 0.33779 0.82185 0.35085 0.0
H4639 H 0.38547 0.79324 0.34641 0.0
H4640 H 0.38531 0.8511 0.32616 0.0
H4641 H 0.37704 0.87353 0.30574 0.0
H4642 H 0.39712 0.84714 0.2578 0.0
H4643 H 0.40527 0.82434 0.27788 0.0
C4644 C 0.47232 0.82916 0.36271 0.0
C4645 C 0.48184 0.81615 0.35579 0.0
C4646 C 0.45446 0.82805 0.35454 0.0
C4647 C 0.44553 0.81396 0.33905 0.0
C4648 C 0.45535 0.80176 0.33096 0.0
C4649 C 0.47333 0.80271 0.33939 0.0
C4650 C 0.42565 0.81139 0.33288 0.0
C4651 C 0.41923 0.8218 0.31929 0.0
C4652 C 0.41321 0.80113 0.34283 0.0
C4653 C 0.41916 0.79125 0.35868 0.0
C4654 C 0.42783 0.77671 0.35485 0.0
C4655 C 0.43344 0.76755 0.36995 0.0
C4656 C 0.43023 0.77265 0.38889 0.0
C4657 C 0.42139 0.78692 0.39277 0.0
C4658 C 0.41586 0.79619 0.37774 0.0
C4659 C 0.33957 0.81027 0.30246 0.0
C4660 C 0.33209 0.81511 0.31916 0.0
C4661 C 0.35775 0.80902 0.30428 0.0
C4662 C 0.36876 0.81243 0.32285 0.0
C4663 C 0.36102 0.81675 0.33945 0.0
C4664 C 0.34306 0.81815 0.33763 0.0
C4665 C 0.38834 0.81181 0.32532 0.0
C4666 C 0.39482 0.80123 0.3387 0.0
C4667 C 0.40088 0.82246 0.3157 0.0
C4668 C 0.39562 0.83582 0.30341 0.0
C4669 C 0.38774 0.84992 0.31118 0.0
C4670 C 0.38313 0.86274 0.29969 0.0
C4671 C 0.38647 0.86171 0.28045 0.0
C4672 C 0.39447 0.84787 0.27268 0.0
C4673 C 0.39908 0.83499 0.28411 0.0
H4674 H 0.38294 0.87168 0.2716 0.0
H4675 H 0.43453 0.7655 0.40054 0.0
H4676 H 0.99573 0.74244 0.1568 0.0
H4677 H 0.99243 0.71232 0.13607 0.0
H4678 H 0.03697 0.70193 0.17401 0.0
H4679 H 0.04036 0.73194 0.19444 0.0
H4680 H 0.04237 0.70202 0.13582 0.0
H4681 H 0.99553 0.67559 0.17046 0.0
H4682 H 0.96656 0.67267 0.18237 0.0
H4683 H 0.93873 0.66403 0.12323 0.0
H4684 H 0.96757 0.66718 0.11097 0.0
H4685 H 0.05041 0.61412 0.09417 0.0
H4686 H 0.04726 0.64181 0.1149 0.0
H4687 H 0.99588 0.63877 0.07962 0.0
H4688 H 0.99852 0.61011 0.05992 0.0
H4689 H 0.99235 0.64664 0.11442 0.0
H4690 H 0.03736 0.67274 0.07884 0.0
H4691 H 0.0656 0.67621 0.06533 0.0
H4692 H 0.09595 0.68714 0.12348 0.0
H4693 H 0.06789 0.68352 0.13734 0.0
C4694 C 1.00423 0.73329 0.16112 0.0
C4695 C 0.01815 0.73927 0.17726 0.0
C4696 C 1.00242 0.71618 0.14924 0.0
C4697 C 0.01454 0.70496 0.15346 0.0
C4698 C 0.02753 0.71039 0.17048 0.0
C4699 C 0.02936 0.72744 0.18222 0.0
C4700 C 0.01552 0.689 0.13898 0.0
C4701 C 0.0315 0.68979 0.13128 0.0
C4702 C 1.00104 0.67349 0.13239 0.0
C4703 C 0.98374 0.67187 0.13982 0.0
C4704 C 0.98326 0.67329 0.16001 0.0
C4705 C 0.96685 0.67154 0.16682 0.0
C4706 C 0.95082 0.66823 0.15358 0.0
C4707 C 0.95116 0.66664 0.13348 0.0
C4708 C 0.96753 0.6684 0.12659 0.0
C4709 C 0.03861 0.61961 0.09075 0.0
C4710 C 0.02483 0.61035 0.0754 0.0
C4711 C 0.03682 0.63548 0.10251 0.0
C4712 C 0.0215 0.64276 0.09861 0.0
C4713 C 1.00784 0.63354 0.08294 0.0
C4714 C 0.0094 0.6173 0.07158 0.0
C4715 C 0.01941 0.65943 0.11146 0.0
C4716 C 1.00321 0.65888 0.11878 0.0
C4717 C 0.03358 0.6754 0.11742 0.0
C4718 C 0.0505 0.67773 0.10912 0.0
C4719 C 0.05005 0.67578 0.08874 0.0
C4720 C 0.06603 0.67779 0.08102 0.0
C4721 C 0.08255 0.68186 0.09353 0.0
C4722 C 0.08314 0.68399 0.1138 0.0
C4723 C 0.06721 0.68199 0.1216 0.0
H4724 H 0.0949 0.6834 0.08753 0.0
H4725 H 0.93813 0.66685 0.15888 0.0
H4726 H 0.11311 0.33906 0.89884 0.0
H4727 H 0.14094 0.3377 0.8867 0.0
H4728 H 0.11102 0.30467 0.83269 0.0
H4729 H 0.08264 0.30588 0.84499 0.0
H4730 H 0.13997 0.29113 0.84446 0.0
H4731 H 0.13197 0.35091 0.83527 0.0
H4732 H 0.1265 0.38209 0.8435 0.0
H4733 H 0.17375 0.39699 0.88761 0.0
H4734 H 0.17938 0.36579 0.87985 0.0
H4735 H 0.21609 0.30779 0.79356 0.0
H4736 H 0.1872 0.3087 0.80412 0.0
H4737 H 0.2142 0.32826 0.86354 0.0
H4738 H 0.24323 0.32672 0.85314 0.0
H4739 H 0.18653 0.34857 0.84761 0.0
H4740 H 0.19389 0.28789 0.85636 0.0
H4741 H 0.19987 0.25728 0.84601 0.0
H4742 H 0.15371 0.24463 0.80059 0.0
H4743 H 0.14765 0.27535 0.81043 0.0
C4744 C 0.11224 0.33148 0.88431 0.0
C4745 C 0.09535 0.32262 0.87295 0.0
C4746 C 0.12836 0.33082 0.8773 0.0
C4747 C 0.12838 0.32131 0.85858 0.0
C4748 C 0.11157 0.3122 0.84716 0.0
C4749 C 0.09526 0.31295 0.85419 0.0
C4750 C 0.146 0.32087 0.85135 0.0
C4751 C 0.14998 0.30376 0.84489 0.0
C4752 C 0.15948 0.33723 0.85214 0.0
C4753 C 0.15598 0.35592 0.85712 0.0
C4754 C 0.14109 0.36076 0.84688 0.0
C4755 C 0.13798 0.37846 0.85142 0.0
C4756 C 0.14974 0.39149 0.8661 0.0
C4757 C 0.16464 0.38686 0.87626 0.0
C4758 C 0.1678 0.36917 0.87179 0.0
C4759 C 0.21597 0.31237 0.80889 0.0
C4760 C 0.23214 0.31728 0.82244 0.0
C4761 C 0.19934 0.31281 0.81493 0.0
C4762 C 0.19835 0.31854 0.83466 0.0
C4763 C 0.2145 0.3238 0.84822 0.0
C4764 C 0.23114 0.3229 0.84226 0.0
C4765 C 0.18045 0.3189 0.84099 0.0
C4766 C 0.17646 0.33599 0.84721 0.0
C4767 C 0.16695 0.30257 0.83983 0.0
C4768 C 0.17045 0.28403 0.83398 0.0
C4769 C 0.18512 0.27867 0.84403 0.0
C4770 C 0.18851 0.26128 0.83828 0.0
C4771 C 0.17722 0.24904 0.8226 0.0
C4772 C 0.16247 0.25415 0.8127 0.0
C4773 C 0.15905 0.27155 0.81836 0.0
H4774 H 0.17986 0.23559 0.81816 0.0
H4775 H 0.14733 0.4052 0.86957 0.0
H4776 H 0.53286 0.80318 0.00511 0.0
H4777 H 0.51939 0.77044 1.00161 0.0
H4778 H 0.57198 0.75825 0.00468 0.0
H4779 H 0.58551 0.79143 0.00656 0.0
H4780 H 0.54893 0.73429 0.9777 0.0
H4781 H 0.54697 0.75917 0.04527 0.0
H4782 H 0.5391 0.78057 0.07093 0.0
H4783 H 0.48333 0.76239 0.04537 0.0
H4784 H 0.49088 0.74102 0.01947 0.0
H4785 H 0.53827 0.65545 0.02188 0.0
H4786 H 0.54364 0.68193 0.00485 0.0
H4787 H 0.48746 0.68306 0.99956 0.0
H4788 H 0.48214 0.6566 0.01702 0.0
H4789 H 0.50768 0.7123 0.02268 0.0
H4790 H 0.50823 0.6854 0.95759 0.0
H4791 H 0.51479 0.66553 0.92969 0.0
H4792 H 0.57138 0.68694 0.94919 0.0
H4793 H 0.56516 0.70705 0.97711 0.0
C4794 C 0.5416 0.79354 0.00534 0.0
C4795 C 0.56024 0.79969 0.00662 0.0
C4796 C 0.53387 0.77483 0.00334 0.0
C4797 C 0.54471 0.76195 0.00349 0.0
C4798 C 0.56341 0.76805 0.00471 0.0
C4799 C 0.57115 0.78688 0.00598 0.0
C4800 C 0.53634 0.74215 0.0022 0.0
C4801 C 0.5401 0.72938 0.98769 0.0
C4802 C 0.52403 0.73594 0.01455 0.0
C4803 C 0.51951 0.7486 0.03036 0.0
C4804 C 0.53304 0.75979 0.04509 0.0
C4805 C 0.52863 0.77191 0.05968 0.0
C4806 C 0.51073 0.77287 0.05975 0.0
C4807 C 0.49719 0.76165 0.04529 0.0
C4808 C 0.50152 0.74951 0.03068 0.0
C4809 C 0.52697 0.66101 0.01651 0.0
C4810 C 0.50993 0.65451 0.02126 0.0
C4811 C 0.52998 0.67595 0.00647 0.0
C4812 C 0.51598 0.68459 1.00109 0.0
C4813 C 0.49845 0.67657 0.00362 0.0
C4814 C 0.49543 0.66155 0.01367 0.0
C4815 C 0.52067 0.70417 0.99852 0.0
C4816 C 0.51628 0.71708 0.01241 0.0
C4817 C 0.53233 0.71043 0.9856 0.0
C4818 C 0.53621 0.69763 0.96951 0.0
C4819 C 0.52207 0.68574 0.95603 0.0
C4820 C 0.52573 0.67457 0.94011 0.0
C4821 C 0.54349 0.67497 0.93767 0.0
C4822 C 0.55763 0.68663 0.9511 0.0
C4823 C 0.55405 0.69799 0.96691 0.0
H4824 H 0.54629 0.66623 0.9254 0.0
H4825 H 0.50735 0.78228 0.07104 0.0
H4826 H 0.05147 0.77664 0.6506 0.0
H4827 H 0.08087 0.78913 0.67096 0.0
H4828 H 0.06707 0.75163 0.71138 0.0
H4829 H 0.03745 0.739 0.69097 0.0
H4830 H 0.07835 0.79 0.72839 0.0
H4831 H 0.09734 0.74479 0.68347 0.0
H4832 H 0.10094 0.73061 0.65075 0.0
H4833 H 0.13102 0.78291 0.64152 0.0
H4834 H 0.12743 0.79744 0.67411 0.0
H4835 H 0.15323 0.77829 0.78639 0.0
H4836 H 0.12593 0.78087 0.76595 0.0
H4837 H 0.15763 0.81817 0.7349 0.0
H4838 H 0.18509 0.81552 0.75557 0.0
H4839 H 0.13827 0.78831 0.71081 0.0
H4840 H 0.12521 0.83259 0.75657 0.0
H4841 H 0.12298 0.84845 0.78903 0.0
H4842 H 0.08266 0.80193 0.79606 0.0
H4843 H 0.08484 0.78562 0.76376 0.0
C4844 C 0.05486 0.77076 0.66361 0.0
C4845 C 0.04221 0.75694 0.66934 0.0
C4846 C 0.07163 0.77793 0.67519 0.0
C4847 C 0.07598 0.7714 0.69269 0.0
C4848 C 0.0638 0.75687 0.69792 0.0
C4849 C 0.04702 0.74954 0.6862 0.0
C4850 C 0.09275 0.78055 0.70617 0.0
C4851 C 0.09149 0.78954 0.72468 0.0
C4852 C 0.10979 0.78101 0.70069 0.0
C4853 C 0.11193 0.77224 0.68112 0.0
C4854 C 0.10459 0.7533 0.67439 0.0
C4855 C 0.10666 0.74519 0.65588 0.0
C4856 C 0.11615 0.75587 0.64403 0.0
C4857 C 0.12364 0.77466 0.65069 0.0
C4858 C 0.12161 0.78283 0.66918 0.0
C4859 C 0.15422 0.78766 0.77579 0.0
C4860 C 0.17101 0.79672 0.77242 0.0
C4861 C 0.13868 0.7892 0.76414 0.0
C4862 C 0.13978 0.79972 0.7489 0.0
C4863 C 0.15654 0.81005 0.74663 0.0
C4864 C 0.17213 0.80862 0.75846 0.0
C4865 C 0.12391 0.7969 0.73353 0.0
C4866 C 0.12521 0.78921 0.71449 0.0
C4867 C 0.10694 0.79802 0.73838 0.0
C4868 C 0.10521 0.80785 0.7577 0.0
C4869 C 0.11591 0.82569 0.76506 0.0
C4870 C 0.11466 0.83477 0.78344 0.0
C4871 C 0.10268 0.82621 0.7946 0.0
C4872 C 0.09191 0.80856 0.78737 0.0
C4873 C 0.09312 0.7994 0.769 0.0
H4874 H 0.10175 0.83325 0.80884 0.0
H4875 H 0.11774 0.74957 0.62972 0.0
H4876 H 0.07751 0.40125 0.47183 0.0
H4877 H 0.06432 0.42701 0.47946 0.0
H4878 H 0.10552 0.44795 0.5305 0.0
H4879 H 0.11667 0.41978 0.5246 0.0
H4880 H 0.07812 0.44301 0.54297 0.0
H4881 H 0.08967 0.47347 0.48641 0.0
H4882 H 0.09002 0.47519 0.45138 0.0
H4883 H 0.0334 0.451 0.43804 0.0
H4884 H 0.03269 0.44918 0.47294 0.0
H4885 H 0.04564 0.5222 0.57095 0.0
H4886 H 0.06018 0.49713 0.56202 0.0
H4887 H 0.01182 0.46753 0.52268 0.0
H4888 H 0.99725 0.49292 0.53161 0.0
H4889 H 0.04048 0.47601 0.50399 0.0
H4890 H 0.02895 0.4478 0.56013 0.0
H4891 H 0.02789 0.44757 0.59523 0.0
H4892 H 0.08501 0.46876 0.60893 0.0
H4893 H 0.08639 0.46933 0.57393 0.0
C4894 C 0.08439 0.41182 0.48416 0.0
C4895 C 0.09781 0.40834 0.49792 0.0
C4896 C 0.07679 0.42687 0.48851 0.0
C4897 C 0.08356 0.43954 0.50589 0.0
C4898 C 0.09959 0.43807 0.51733 0.0
C4899 C 0.1063 0.42217 0.51379 0.0
C4900 C 0.0719 0.45095 0.51451 0.0
C4901 C 0.0704 0.45067 0.53438 0.0
C4902 C 0.06065 0.45997 0.50329 0.0
C4903 C 0.06117 0.46112 0.4823 0.0
C4904 C 0.07732 0.46846 0.476 0.0
C4905 C 0.07756 0.46949 0.45616 0.0
C4906 C 0.06175 0.46319 0.4425 0.0
C4907 C 0.04563 0.45591 0.44863 0.0
C4908 C 0.04529 0.45495 0.46844 0.0
C4909 C 0.03778 0.50981 0.56134 0.0
C4910 C 0.02039 0.5093 0.55203 0.0
C4911 C 0.04612 0.49555 0.5561 0.0
C4912 C 0.03711 0.48057 0.54155 0.0
C4913 C 0.01897 0.47904 0.53391 0.0
C4914 C 0.01056 0.49334 0.53925 0.0
C4915 C 0.04759 0.46852 0.53226 0.0
C4916 C 0.0486 0.46852 0.51235 0.0
C4917 C 0.05852 0.45938 0.54338 0.0
C4918 C 0.05775 0.45868 0.56441 0.0
C4919 C 0.04127 0.45249 0.57063 0.0
C4920 C 0.04062 0.45229 0.59051 0.0
C4921 C 0.05637 0.45817 0.6043 0.0
C4922 C 0.07282 0.4642 0.59823 0.0
C4923 C 0.07355 0.46442 0.57837 0.0
H4924 H 0.05583 0.45804 0.61969 0.0
H4925 H 0.06199 0.46397 0.42716 0.0
H4926 H 0.43439 0.23768 0.16805 0.0
H4927 H 0.41438 0.24458 0.19136 0.0
H4928 H 0.45836 0.28592 0.22683 0.0
H4929 H 0.47805 0.27942 0.2034 0.0
H4930 H 0.43869 0.26224 0.24807 0.0
H4931 H 0.43146 0.30049 0.19944 0.0
H4932 H 0.42523 0.30689 0.16579 0.0
H4933 H 0.37138 0.27428 0.15901 0.0
H4934 H 0.37745 0.2673 0.19255 0.0
H4935 H 0.40215 0.32699 0.30436 0.0
H4936 H 0.41737 0.31295 0.27966 0.0
H4937 H 0.36899 0.27083 0.25741 0.0
H4938 H 0.3538 0.28461 0.28213 0.0
H4939 H 0.38789 0.29094 0.22837 0.0
H4940 H 0.39679 0.25825 0.28251 0.0
H4941 H 0.40626 0.25477 0.31665 0.0
H4942 H 0.46059 0.28127 0.31384 0.0
H4943 H 0.45138 0.28527 0.27978 0.0
C4944 C 0.43962 0.24819 0.18089 0.0
C4945 C 0.45749 0.25823 0.18412 0.0
C4946 C 0.4283 0.25208 0.19408 0.0
C4947 C 0.43501 0.26574 0.21067 0.0
C4948 C 0.45304 0.27533 0.21408 0.0
C4949 C 0.46418 0.27174 0.20073 0.0
C4950 C 0.42327 0.27073 0.22432 0.0
C4951 C 0.42754 0.26847 0.24383 0.0
C4952 C 0.40881 0.27882 0.21851 0.0
C4953 C 0.405 0.28311 0.19841 0.0
C4954 C 0.41835 0.29448 0.1907 0.0
C4955 C 0.41485 0.29825 0.17166 0.0
C4956 C 0.39794 0.29093 0.16023 0.0
C4957 C 0.38449 0.27988 0.16786 0.0
C4958 C 0.38796 0.276 0.18689 0.0
C4959 C 0.39487 0.31466 0.29429 0.0
C4960 C 0.37697 0.30668 0.29528 0.0
C4961 C 0.40349 0.30673 0.28022 0.0
C4962 C 0.3942 0.29094 0.26684 0.0
C4963 C 0.37628 0.28305 0.26765 0.0
C4964 C 0.36775 0.29078 0.2819 0.0
C4965 C 0.4034 0.28252 0.25222 0.0
C4966 C 0.39872 0.28426 0.23254 0.0
C4967 C 0.41784 0.27438 0.25796 0.0
C4968 C 0.42332 0.27224 0.2786 0.0
C4969 C 0.4107 0.26364 0.28925 0.0
C4970 C 0.41604 0.26149 0.30858 0.0
C4971 C 0.43401 0.26785 0.31744 0.0
C4972 C 0.44667 0.27636 0.30697 0.0
C4973 C 0.44139 0.27855 0.28764 0.0
H4974 H 0.43813 0.26614 0.3324 0.0
H4975 H 0.39524 0.29388 0.14549 0.0
H4976 H 0.60677 0.52517 0.35399 0.0
H4977 H 0.59086 0.52443 0.38207 0.0
H4978 H 0.63976 0.55395 0.42028 0.0
H4979 H 0.6558 0.55408 0.39209 0.0
H4980 H 0.62194 0.532 0.44061 0.0
H4981 H 0.60343 0.57477 0.4006 0.0
H4982 H 0.59091 0.58453 0.3703 0.0
H4983 H 0.54128 0.54492 0.36729 0.0
H4984 H 0.5536 0.53476 0.39745 0.0
H4985 H 0.58646 0.57714 0.5167 0.0
H4986 H 0.59985 0.56819 0.48842 0.0
H4987 H 0.54885 0.53349 0.45983 0.0
H4988 H 0.53518 0.54246 0.48877 0.0
H4989 H 0.5657 0.5547 0.43416 0.0
H4990 H 0.58313 0.51422 0.47618 0.0
H4991 H 0.59522 0.50564 0.50733 0.0
H4992 H 0.6465 0.54123 0.50714 0.0
H4993 H 0.63464 0.55029 0.47614 0.0
C4994 C 0.61434 0.53089 0.36848 0.0
C4995 C 0.63283 0.53913 0.37064 0.0
C4996 C 0.60507 0.53083 0.38465 0.0
C4997 C 0.61374 0.53957 0.40368 0.0
C4998 C 0.63245 0.54709 0.40601 0.0
C4999 C 0.64177 0.54699 0.38979 0.0
C5000 C 0.6033 0.54154 0.42079 0.0
C5001 C 0.60975 0.53714 0.43909 0.0
C5002 C 0.58694 0.54777 0.41925 0.0
C5003 C 0.57951 0.55387 0.40115 0.0
C5004 C 0.58989 0.56806 0.3934 0.0
C5005 C 0.58282 0.57367 0.37626 0.0
C5006 C 0.56533 0.56531 0.36685 0.0
C5007 C 0.55484 0.55135 0.37458 0.0
C5008 C 0.56186 0.54567 0.39169 0.0
C5009 C 0.57797 0.56739 0.50456 0.0
C5010 C 0.55963 0.56051 0.50534 0.0
C5011 C 0.58578 0.56221 0.48823 0.0
C5012 C 0.57562 0.54999 0.47166 0.0
C5013 C 0.5572 0.54291 0.47228 0.0
C5014 C 0.54935 0.54792 0.48898 0.0
C5015 C 0.58445 0.54532 0.45389 0.0
C5016 C 0.57777 0.54934 0.43555 0.0
C5017 C 0.60058 0.53875 0.45541 0.0
C5018 C 0.60793 0.53306 0.47386 0.0
C5019 C 0.59696 0.52032 0.48282 0.0
C5020 C 0.60377 0.51536 0.50046 0.0
C5021 C 0.62161 0.52292 0.50924 0.0
C5022 C 0.63268 0.53539 0.50033 0.0
C5023 C 0.62592 0.54043 0.48271 0.0
H5024 H 0.62685 0.51908 0.52291 0.0
H5025 H 0.55988 0.56967 0.35358 0.0
H5026 H 0.20256 0.86101 0.10932 0.0
H5027 H 0.21087 0.85224 0.14157 0.0
H5028 H 0.2604 0.89369 0.15134 0.0
H5029 H 0.25177 0.903 0.11973 0.0
H5030 H 0.26038 0.85134 0.15073 0.0
H5031 H 0.24253 0.90429 0.18057 0.0
H5032 H 0.22252 0.92544 0.18659 0.0
H5033 H 0.1846 0.88162 0.20259 0.0
H5034 H 0.20425 0.86008 0.19624 0.0
H5035 H 0.29476 0.85151 0.25591 0.0
H5036 H 0.28506 0.86326 0.22585 0.0
H5037 H 0.24044 0.81593 0.20959 0.0
H5038 H 0.2506 0.80369 0.23902 0.0
H5039 H 0.23839 0.86185 0.2139 0.0
H5040 H 0.25791 0.80851 0.18173 0.0
H5041 H 0.28032 0.78974 0.17741 0.0
H5042 H 0.3176 0.83726 0.16716 0.0
H5043 H 0.29551 0.85641 0.17188 0.0
C5044 C 0.21473 0.86886 0.11885 0.0
C5045 C 0.22626 0.88306 0.11234 0.0
C5046 C 0.21959 0.86371 0.13713 0.0
C5047 C 0.23627 0.87232 0.14883 0.0
C5048 C 0.24742 0.88699 0.14266 0.0
C5049 C 0.24236 0.89244 0.1247 0.0
C5050 C 0.24299 0.8647 0.1663 0.0
C5051 C 0.2556 0.8537 0.16455 0.0
C5052 C 0.23683 0.8678 0.18434 0.0
C5053 C 0.22469 0.88048 0.18755 0.0
C5054 C 0.22977 0.89907 0.18501 0.0
C5055 C 0.21853 0.91116 0.18858 0.0
C5056 C 0.20224 0.90486 0.19487 0.0
C5057 C 0.19718 0.88646 0.19763 0.0
C5058 C 0.20836 0.8743 0.19403 0.0
C5059 C 0.28316 0.84342 0.24564 0.0
C5060 C 0.27364 0.82652 0.24955 0.0
C5061 C 0.27759 0.85017 0.22857 0.0
C5062 C 0.26211 0.84039 0.21545 0.0
C5063 C 0.25256 0.82354 0.21938 0.0
C5064 C 0.25845 0.81651 0.2361 0.0
C5065 C 0.25544 0.84819 0.19815 0.0
C5066 C 0.24298 0.85934 0.19998 0.0
C5067 C 0.26188 0.8454 0.18024 0.0
C5068 C 0.27519 0.83396 0.17754 0.0
C5069 C 0.27099 0.81503 0.1789 0.0
C5070 C 0.28361 0.8043 0.1763 0.0
C5071 C 0.30041 0.81232 0.17211 0.0
C5072 C 0.30461 0.83108 0.17048 0.0
C5073 C 0.29205 0.84188 0.17314 0.0
H5074 H 0.31014 0.80399 0.17006 0.0
H5075 H 0.19359 0.91425 0.19769 0.0
H5076 H 0.94101 0.61963 0.86396 0.0
H5077 H 0.95184 0.6138 0.89677 0.0
H5078 H 1.00321 0.6112 0.87998 0.0
H5079 H 0.99225 0.6166 0.84725 0.0
H5080 H 0.99167 0.58179 0.89452 0.0
H5081 H 0.99823 0.6461 0.91577 0.0
H5082 H 0.98922 0.67595 0.91926 0.0
H5083 H 0.94698 0.65365 0.94963 0.0
H5084 H 0.9556 0.62356 0.9461 0.0
H5085 H 0.03307 0.57773 0.99429 0.0
H5086 H 0.02623 0.59044 0.96397 0.0
H5087 H 0.96959 0.57312 0.96523 0.0
H5088 H 0.97633 0.5597 0.99484 0.0
H5089 H 0.98568 0.61369 0.95931 0.0
H5090 H 0.97977 0.54837 0.93585 0.0
H5091 H 0.99031 0.51937 0.93206 0.0
H5092 H 0.03396 0.54534 0.90562 0.0
H5093 H 0.02388 0.57465 0.90964 0.0
C5094 C 0.95486 0.61871 0.86762 0.0
C5095 C 0.96588 0.61892 0.85316 0.0
C5096 C 0.96103 0.61515 0.88633 0.0
C5097 C 0.97838 0.61192 0.89095 0.0
C5098 C 0.98976 0.61348 0.87687 0.0
C5099 C 0.98357 0.61688 0.85822 0.0
C5100 C 0.98415 0.60533 0.90965 0.0
C5101 C 0.99061 0.58901 0.90868 0.0
C5102 C 0.98264 0.61446 0.92823 0.0
C5103 C 0.97746 0.63253 0.93051 0.0
C5104 C 0.98694 0.64752 0.92307 0.0
C5105 C 0.98192 0.66449 0.92508 0.0
C5106 C 0.96751 0.66668 0.93462 0.0
C5107 C 0.95812 0.65192 0.94223 0.0
C5108 C 0.96309 0.63491 0.94025 0.0
C5109 C 0.01919 0.57668 0.98804 0.0
C5110 C 1.00523 0.56772 0.99683 0.0
C5111 C 0.0153 0.5839 0.97076 0.0
C5112 C 0.99739 0.58273 0.96237 0.0
C5113 C 0.98348 0.57417 0.97144 0.0
C5114 C 0.98735 0.56647 0.98831 0.0
C5115 C 0.99305 0.59025 0.94402 0.0
C5116 C 0.98684 0.60667 0.9451 0.0
C5117 C 0.99505 0.58136 0.92557 0.0
C5118 C 1.00126 0.56381 0.92339 0.0
C5119 C 0.99178 0.548 0.92953 0.0
C5120 C 0.99764 0.53148 0.92726 0.0
C5121 C 0.01285 0.53054 0.91869 0.0
C5122 C 0.02222 0.54611 0.91233 0.0
C5123 C 0.01645 0.56269 0.91461 0.0
H5124 H 0.01733 0.51772 0.91691 0.0
H5125 H 0.96363 0.67983 0.93615 0.0
H5126 H 0.2468 0.2068 0.5383 0.0
H5127 H 0.26175 0.22513 0.56998 0.0
H5128 H 0.29662 0.18733 0.57691 0.0
H5129 H 0.28185 0.16892 0.54524 0.0
H5130 H 0.28014 0.19739 0.61052 0.0
H5131 H 0.31484 0.22582 0.56538 0.0
H5132 H 0.31803 0.23921 0.53522 0.0
H5133 H 0.29144 0.28148 0.55513 0.0
H5134 H 0.28788 0.26821 0.58527 0.0
H5135 H 0.31266 0.2591 0.69839 0.0
H5136 H 0.31731 0.24149 0.66811 0.0
H5137 H 0.28723 0.27284 0.63432 0.0
H5138 H 0.28307 0.29062 0.6642 0.0
H5139 H 0.31047 0.26337 0.61467 0.0
H5140 H 0.26713 0.23214 0.6514 0.0
H5141 H 0.25811 0.21901 0.68016 0.0
H5142 H 0.29444 0.18282 0.67507 0.0
H5143 H 0.30386 0.19597 0.64644 0.0
C5144 C 0.25759 0.20234 0.54659 0.0
C5145 C 0.26321 0.1865 0.53924 0.0
C5146 C 0.26616 0.21285 0.56459 0.0
C5147 C 0.28041 0.20764 0.57551 0.0
C5148 C 0.28573 0.19157 0.56854 0.0
C5149 C 0.27727 0.18113 0.55046 0.0
C5150 C 0.28954 0.21901 0.59434 0.0
C5151 C 0.28721 0.21169 0.61152 0.0
C5152 C 0.29846 0.23768 0.59544 0.0
C5153 C 0.30108 0.246 0.57757 0.0
C5154 C 0.30963 0.23794 0.5633 0.0
C5155 C 0.3115 0.24551 0.5462 0.0
C5156 C 0.30493 0.26118 0.54325 0.0
C5157 C 0.29655 0.26936 0.55743 0.0
C5158 C 0.29464 0.26185 0.57455 0.0
C5159 C 0.30749 0.26248 0.68444 0.0
C5160 C 0.29725 0.27598 0.68356 0.0
C5161 C 0.31016 0.25246 0.6672 0.0
C5162 C 0.3022 0.25552 0.64898 0.0
C5163 C 0.29349 0.2702 0.64819 0.0
C5164 C 0.29109 0.28038 0.66533 0.0
C5165 C 0.30027 0.24207 0.63093 0.0
C5166 C 0.30403 0.2489 0.61379 0.0
C5167 C 0.29202 0.22311 0.62981 0.0
C5168 C 0.28638 0.21521 0.647 0.0
C5169 C 0.27327 0.22147 0.65652 0.0
C5170 C 0.26809 0.21403 0.67278 0.0
C5171 C 0.27574 0.20013 0.67948 0.0
C5172 C 0.28857 0.19363 0.66991 0.0
C5173 C 0.29385 0.20108 0.65368 0.0
H5174 H 0.2717 0.19437 0.69206 0.0
H5175 H 0.30635 0.26699 0.52999 0.0
H5176 H 0.64981 0.53172 0.24991 0.0
H5177 H 0.63514 0.53045 0.21597 0.0
H5178 H 0.58732 0.54012 0.23704 0.0
H5179 H 0.60181 0.54142 0.27062 0.0
H5180 H 0.57771 0.51605 0.20374 0.0
H5181 H 0.61835 0.57524 0.22538 0.0
H5182 H 0.64755 0.59687 0.23826 0.0
H5183 H 0.66941 0.57567 0.18899 0.0
H5184 H 0.64038 0.5537 0.17597 0.0
H5185 H 0.5371 0.55819 0.12783 0.0
H5186 H 0.55266 0.55284 0.15889 0.0
H5187 H 0.59274 0.53453 0.12893 0.0
H5188 H 0.57699 0.53935 0.09771 0.0
H5189 H 0.60725 0.56083 0.16501 0.0
H5190 H 0.56478 0.50346 0.14196 0.0
H5191 H 0.53472 0.48366 0.12895 0.0
H5192 H 0.51563 0.50248 0.18122 0.0
H5193 H 0.54547 0.52287 0.19431 0.0
C5194 C 0.63602 0.53309 0.24725 0.0
C5195 C 0.62704 0.53661 0.26313 0.0
C5196 C 0.62766 0.53259 0.2278 0.0
C5197 C 0.61007 0.53545 0.22371 0.0
C5198 C 0.60083 0.5379 0.23953 0.0
C5199 C 0.60919 0.53862 0.25885 0.0
C5200 C 0.60147 0.53689 0.20333 0.0
C5201 C 0.5842 0.52593 0.19538 0.0
C5202 C 0.6098 0.54957 0.19201 0.0
C5203 C 0.62728 0.56266 0.19985 0.0
C5204 C 0.62944 0.57507 0.2174 0.0
C5205 C 0.64595 0.58741 0.2247 0.0
C5206 C 0.66035 0.5876 0.21449 0.0
C5207 C 0.65826 0.57547 0.19692 0.0
C5208 C 0.64178 0.56307 0.18957 0.0
C5209 C 0.5492 0.55298 0.12778 0.0
C5210 C 0.55571 0.54922 0.11012 0.0
C5211 C 0.55811 0.54989 0.14562 0.0
C5212 C 0.57398 0.54327 0.14642 0.0
C5213 C 0.5806 0.53968 0.12884 0.0
C5214 C 0.57149 0.54238 0.11093 0.0
C5215 C 0.58354 0.54009 0.16557 0.0
C5216 C 0.6009 0.55079 0.17329 0.0
C5217 C 0.57524 0.52727 0.17673 0.0
C5218 C 0.55733 0.51487 0.16903 0.0
C5219 C 0.55413 0.50355 0.1506 0.0
C5220 C 0.53712 0.49222 0.1432 0.0
C5221 C 0.52327 0.49182 0.15424 0.0
C5222 C 0.52638 0.5028 0.17268 0.0
C5223 C 0.54333 0.51429 0.18008 0.0
H5224 H 0.51013 0.48297 0.14852 0.0
H5225 H 0.67312 0.59718 0.22016 0.0
H5226 H 0.24431 0.85337 0.00971 0.0
H5227 H 0.24969 0.84417 0.97688 0.0
H5228 H 0.21886 0.88132 0.95506 0.0
H5229 H 0.2138 0.89137 0.98864 0.0
H5230 H 0.21479 0.83838 0.93243 0.0
H5231 H 0.25459 0.89831 0.95502 0.0
H5232 H 0.27648 0.92221 0.97901 0.0
H5233 H 0.31301 0.88605 0.9823 0.0
H5234 H 0.29117 0.86177 0.95862 0.0
H5235 H 0.24987 0.82695 0.84226 0.0
H5236 H 0.23773 0.83849 0.87081 0.0
H5237 H 0.28215 0.82816 0.90897 0.0
H5238 H 0.29455 0.81697 0.88038 0.0
H5239 H 0.27726 0.86096 0.92157 0.0
H5240 H 0.23792 0.80065 0.90216 0.0
H5241 H 0.2165 0.77527 0.87942 0.0
H5242 H 0.1797 0.81062 0.87095 0.0
H5243 H 0.20101 0.83629 0.8935 0.0
C5244 C 0.23841 0.85959 0.99804 0.0
C5245 C 0.22869 0.87332 0.00205 0.0
C5246 C 0.24155 0.85423 0.97917 0.0
C5247 C 0.23488 0.86214 0.9635 0.0
C5248 C 0.22421 0.87505 0.96699 0.0
C5249 C 0.22123 0.88071 0.98616 0.0
C5250 C 0.24015 0.85727 0.944 0.0
C5251 C 0.22828 0.84368 0.92977 0.0
C5252 C 0.25799 0.86362 0.94084 0.0
C5253 C 0.27112 0.87813 0.95522 0.0
C5254 C 0.26718 0.89535 0.96105 0.0
C5255 C 0.27961 0.90899 0.97456 0.0
C5256 C 0.2961 0.90563 0.98222 0.0
C5257 C 0.30021 0.88862 0.97638 0.0
C5258 C 0.28781 0.87492 0.96292 0.0
C5259 C 0.25695 0.82691 0.85673 0.0
C5260 C 0.2732 0.82098 0.85899 0.0
C5261 C 0.24995 0.8335 0.87311 0.0
C5262 C 0.2589 0.83417 0.89222 0.0
C5263 C 0.27495 0.82789 0.89447 0.0
C5264 C 0.28199 0.82135 0.87808 0.0
C5265 C 0.25193 0.84193 0.90984 0.0
C5266 C 0.26361 0.85591 0.92389 0.0
C5267 C 0.23396 0.83583 0.91286 0.0
C5268 C 0.22113 0.82043 0.89934 0.0
C5269 C 0.22531 0.80305 0.89533 0.0
C5270 C 0.21319 0.7886 0.88251 0.0
C5271 C 0.19677 0.79134 0.8737 0.0
C5272 C 0.19243 0.80852 0.87776 0.0
C5273 C 0.20452 0.82302 0.89057 0.0
H5274 H 0.1874 0.78014 0.86377 0.0
H5275 H 0.30572 0.91622 0.99264 0.0
H5276 H 0.95254 0.63178 0.73338 0.0
H5277 H 0.96087 0.62511 0.70061 0.0
H5278 H 0.98203 0.57968 0.71852 0.0
H5279 H 0.97469 0.58651 0.75057 0.0
H5280 H 1.00508 0.59868 0.70213 0.0
H5281 H 0.94058 0.5748 0.6874 0.0
H5282 H 0.90866 0.57621 0.68393 0.0
H5283 H 0.91719 0.61528 0.64431 0.0
H5284 H 0.94923 0.61432 0.64777 0.0
H5285 H 0.02087 0.5513 0.6136 0.0
H5286 H 0.00931 0.55867 0.64399 0.0
H5287 H 0.98463 0.59881 0.6186 0.0
H5288 H 0.99559 0.59118 0.58832 0.0
H5289 H 0.96381 0.58492 0.63864 0.0
H5290 H 0.02922 0.60832 0.65426 0.0
H5291 H 0.06055 0.60475 0.65714 0.0
H5292 H 0.04952 0.56462 0.69522 0.0
H5293 H 0.01812 0.56785 0.69243 0.0
C5294 C 0.95911 0.62052 0.73025 0.0
C5295 C 0.96331 0.61004 0.74484 0.0
C5296 C 0.96373 0.6166 0.71151 0.0
C5297 C 0.97222 0.60191 0.70708 0.0
C5298 C 0.97583 0.59126 0.72153 0.0
C5299 C 0.97162 0.59532 0.74004 0.0
C5300 C 0.97818 0.5975 0.68791 0.0
C5301 C 0.99599 0.59563 0.68825 0.0
C5302 C 0.96651 0.59376 0.6697 0.0
C5303 C 0.94737 0.59471 0.6681 0.0
C5304 C 0.93571 0.58388 0.67816 0.0
C5305 C 0.91757 0.58455 0.67614 0.0
C5306 C 0.91092 0.59588 0.66397 0.0
C5307 C 0.92238 0.60656 0.65378 0.0
C5308 C 0.94052 0.60597 0.65578 0.0
C5309 C 0.01316 0.56186 0.61467 0.0
C5310 C 0.00938 0.57084 0.59868 0.0
C5311 C 1.0066 0.56616 0.63208 0.0
C5312 C 0.9967 0.58 0.63406 0.0
C5313 C 0.99261 0.58853 0.61782 0.0
C5314 C 0.99887 0.58406 0.60041 0.0
C5315 C 0.99071 0.58595 0.65289 0.0
C5316 C 0.97296 0.58817 0.65249 0.0
C5317 C 1.00238 0.58989 0.67115 0.0
C5318 C 0.02133 0.58825 0.67304 0.0
C5319 C 0.0335 0.59872 0.66321 0.0
C5320 C 0.05125 0.59674 0.66482 0.0
C5321 C 0.05701 0.58444 0.67633 0.0
C5322 C 0.04505 0.57414 0.68631 0.0
C5323 C 0.02729 0.57606 0.68475 0.0
H5324 H 0.07075 0.58291 0.67753 0.0
H5325 H 0.89687 0.59634 0.66238 0.0
H5326 H 0.28487 0.19539 0.46095 0.0
H5327 H 0.29414 0.21978 0.44161 0.0
H5328 H 0.24699 0.19637 0.39794 0.0
H5329 H 0.23726 0.17253 0.4177 0.0
H5330 H 0.28188 0.21108 0.38384 0.0
H5331 H 0.24051 0.22494 0.42807 0.0
H5332 H 0.23112 0.22975 0.46036 0.0
H5333 H 0.27865 0.27278 0.48142 0.0
H5334 H 0.28851 0.26792 0.44932 0.0
H5335 H 0.23951 0.28128 0.34731 0.0
H5336 H 0.24518 0.26458 0.37451 0.0
H5337 H 0.30183 0.27719 0.37176 0.0
H5338 H 0.29615 0.29279 0.34386 0.0
H5339 H 0.26888 0.27043 0.41204 0.0
H5340 H 0.31283 0.24562 0.36711 0.0
H5341 H 0.31854 0.24142 0.33302 0.0
H5342 H 0.26211 0.22014 0.31223 0.0
H5343 H 0.2561 0.22445 0.34623 0.0
C5344 C 0.27686 0.19513 0.44687 0.0
C5345 C 0.26046 0.18217 0.44059 0.0
C5346 C 0.28211 0.20906 0.43595 0.0
C5347 C 0.27118 0.20978 0.41848 0.0
C5348 C 0.25558 0.19588 0.41139 0.0
C5349 C 0.25005 0.18232 0.42259 0.0
C5350 C 0.27455 0.22615 0.40879 0.0
C5351 C 0.27947 0.22419 0.39019 0.0
C5352 C 0.27119 0.24314 0.41706 0.0
C5353 C 0.26543 0.24579 0.43644 0.0
C5354 C 0.24912 0.2352 0.43968 0.0
C5355 C 0.24367 0.23799 0.45793 0.0
C5356 C 0.25433 0.2515 0.47297 0.0
C5357 C 0.27045 0.26226 0.46979 0.0
C5358 C 0.27599 0.25947 0.45158 0.0
C5359 C 0.25323 0.28096 0.35288 0.0
C5360 C 0.26739 0.28822 0.34339 0.0
C5361 C 0.25645 0.27149 0.36844 0.0
C5362 C 0.27387 0.26942 0.37479 0.0
C5363 C 0.28827 0.27843 0.36679 0.0
C5364 C 0.28502 0.28756 0.351 0.0
C5365 C 0.27633 0.25539 0.38721 0.0
C5366 C 0.27221 0.25765 0.40615 0.0
C5367 C 0.28041 0.23867 0.37932 0.0
C5368 C 0.28404 0.23541 0.35907 0.0
C5369 C 0.30168 0.24001 0.35523 0.0
C5370 C 0.30495 0.23774 0.33595 0.0
C5371 C 0.29066 0.2307 0.32046 0.0
C5372 C 0.27312 0.22578 0.32423 0.0
C5373 C 0.26978 0.22814 0.34348 0.0
H5374 H 0.2932 0.2288 0.30556 0.0
H5375 H 0.25006 0.25368 0.48707 0.0
H5376 H 0.35956 0.64187 0.52171 0.0
H5377 H 0.38347 0.62501 0.52116 0.0
H5378 H 0.42002 0.67064 0.56008 0.0
H5379 H 0.39604 0.68775 0.56061 0.0
H5380 H 0.43604 0.6579 0.53064 0.0
H5381 H 0.40219 0.62989 0.57617 0.0
H5382 H 0.37491 0.61432 0.58746 0.0
H5383 H 0.36696 0.56872 0.54059 0.0
H5384 H 0.39408 0.58413 0.52887 0.0
H5385 H 0.50621 0.61407 0.55505 0.0
H5386 H 0.48161 0.62951 0.55424 0.0
H5387 H 0.44556 0.58005 0.52115 0.0
H5388 H 0.4704 0.56389 0.52283 0.0
H5389 H 0.42872 0.59434 0.54655 0.0
H5390 H 0.46104 0.62237 0.49973 0.0
H5391 H 0.48763 0.63794 0.4872 0.0
H5392 H 0.49825 0.6826 0.53549 0.0
H5393 H 0.47147 0.66753 0.54806 0.0
C5394 C 0.37264 0.64838 0.53026 0.0
C5395 C 0.37574 0.66626 0.54126 0.0
C5396 C 0.38636 0.63861 0.52999 0.0
C5397 C 0.40364 0.64634 0.54075 0.0
C5398 C 0.40685 0.66425 0.55167 0.0
C5399 C 0.39307 0.67404 0.55201 0.0
C5400 C 0.41837 0.63588 0.54021 0.0
C5401 C 0.43448 0.6441 0.53438 0.0
C5402 C 0.41633 0.61758 0.54446 0.0
C5403 C 0.40007 0.60825 0.55154 0.0
C5404 C 0.39455 0.6166 0.56819 0.0
C5405 C 0.37913 0.6078 0.57468 0.0
C5406 C 0.36918 0.59057 0.56472 0.0
C5407 C 0.37467 0.58208 0.54828 0.0
C5408 C 0.39007 0.59083 0.54172 0.0
C5409 C 0.49316 0.60633 0.54731 0.0
C5410 C 0.49054 0.58761 0.53877 0.0
C5411 C 0.47896 0.61538 0.54676 0.0
C5412 C 0.46158 0.60631 0.53717 0.0
C5413 C 0.4588 0.58757 0.52854 0.0
C5414 C 0.47308 0.57832 0.52937 0.0
C5415 C 0.44644 0.61634 0.53693 0.0
C5416 C 0.43026 0.60809 0.54268 0.0
C5417 C 0.44833 0.63457 0.53244 0.0
C5418 C 0.4643 0.6438 0.52484 0.0
C5419 C 0.46903 0.63554 0.50764 0.0
C5420 C 0.48407 0.64432 0.50049 0.0
C5421 C 0.49451 0.66133 0.51046 0.0
C5422 C 0.48998 0.66957 0.52764 0.0
C5423 C 0.47483 0.66097 0.53473 0.0
H5424 H 0.50608 0.66814 0.50485 0.0
H5425 H 0.35724 0.58377 0.56977 0.0
H5426 H 0.86986 0.9797 0.61379 0.0
H5427 H 0.89497 0.9942 0.59976 0.0
H5428 H 0.87624 0.04483 0.60319 0.0
H5429 H 0.85001 0.02984 0.61706 0.0
H5430 H 0.89165 0.03008 0.56558 0.0
H5431 H 0.90774 0.04916 0.63542 0.0
H5432 H 0.90701 0.0433 0.66929 0.0
H5433 H 0.9344 0.99938 0.65893 0.0
H5434 H 0.93508 1.00481 0.62493 0.0
H5435 H 0.98236 0.06005 0.548 0.0
H5436 H 0.95413 0.05946 0.56063 0.0
H5437 H 0.95683 0.00728 0.57959 0.0
H5438 H 0.98559 0.00843 0.5677 0.0
H5439 H 0.94934 0.03228 0.6081 0.0
H5440 H 0.92896 0.0086 0.53921 0.0
H5441 H 0.92765 0.00998 0.50397 0.0
H5442 H 0.90734 0.0593 0.51128 0.0
H5443 H 0.90876 0.05834 0.54666 0.0
C5444 C 0.871 0.99399 0.61178 0.0
C5445 C 0.8583 1.0039 0.6172 0.0
C5446 C 0.88528 1.00216 0.6035 0.0
C5447 C 0.88756 0.0206 0.60075 0.0
C5448 C 0.87463 0.03055 0.60533 0.0
C5449 C 0.85986 0.02211 0.6134 0.0
C5450 C 0.9045 0.02912 0.59464 0.0
C5451 C 0.90437 0.03135 0.575 0.0
C5452 C 0.92096 0.03009 0.60687 0.0
C5453 C 0.92154 0.02748 0.62765 0.0
C5454 C 0.91365 0.03829 0.64039 0.0
C5455 C 0.91321 0.03501 0.65959 0.0
C5456 C 0.92068 0.02099 0.66626 0.0
C5457 C 0.92868 0.01028 0.65376 0.0
C5458 C 0.92915 0.01349 0.63454 0.0
C5459 C 0.97702 0.04869 0.55519 0.0
C5460 C 0.98617 0.03455 0.55742 0.0
C5461 C 0.96083 0.04821 0.56212 0.0
C5462 C 0.95346 0.03338 0.57109 0.0
C5463 C 0.96242 0.01894 0.57285 0.0
C5464 C 0.97869 0.0195 0.56599 0.0
C5465 C 0.93653 0.03295 0.57891 0.0
C5466 C 0.93678 0.032 0.59884 0.0
C5467 C 0.92024 0.03308 0.5669 0.0
C5468 C 0.91916 0.03353 0.54561 0.0
C5469 C 0.92434 0.01982 0.53333 0.0
C5470 C 0.92356 0.02051 0.51333 0.0
C5471 C 0.91747 0.03476 0.5054 0.0
C5472 C 0.91208 0.0483 0.51745 0.0
C5473 C 0.91286 0.04768 0.53747 0.0
H5474 H 0.91688 0.03528 0.48992 0.0
H5475 H 0.92026 0.01843 0.68111 0.0
H5476 H 0.85303 0.12126 0.31975 0.0
H5477 H 0.84199 0.14966 0.32068 0.0
H5478 H 0.87335 0.1664 0.2769 0.0
H5479 H 0.88429 0.13747 0.2756 0.0
H5480 H 0.87541 0.19689 0.30863 0.0
H5481 H 0.82885 0.15241 0.26418 0.0
H5482 H 0.80665 0.12276 0.25342 0.0
H5483 H 0.77998 0.13427 0.30222 0.0
H5484 H 0.80217 0.1639 0.31342 0.0
H5485 H 0.83442 0.27425 0.29641 0.0
H5486 H 0.84725 0.24694 0.29304 0.0
H5487 H 0.80586 0.21801 0.32086 0.0
H5488 H 0.7925 0.24508 0.32329 0.0
H5489 H 0.80999 0.19375 0.29582 0.0
H5490 H 0.85628 0.23676 0.34194 0.0
H5491 H 0.87848 0.26616 0.35455 0.0
H5492 H 0.90582 0.25761 0.30567 0.0
H5493 H 0.88369 0.22823 0.29268 0.0
C5494 C 0.85757 0.13079 0.31008 0.0
C5495 C 0.86959 0.12655 0.29744 0.0
C5496 C 0.85116 0.14727 0.31068 0.0
C5497 C 0.85663 0.16067 0.29891 0.0
C5498 C 0.86875 0.15661 0.28628 0.0
C5499 C 0.87494 0.13982 0.28539 0.0
C5500 C 0.84937 0.17846 0.29982 0.0
C5501 C 0.8611 0.19613 0.30551 0.0
C5502 C 0.83066 0.17804 0.29646 0.0
C5503 C 0.81726 0.1603 0.28973 0.0
C5504 C 0.81833 0.14856 0.2727 0.0
C5505 C 0.80573 0.13176 0.2665 0.0
C5506 C 0.79194 0.12661 0.27715 0.0
C5507 C 0.79068 0.13827 0.29399 0.0
C5508 C 0.80325 0.15507 0.30026 0.0
C5509 C 0.82808 0.26219 0.30206 0.0
C5510 C 0.81233 0.26234 0.31035 0.0
C5511 C 0.83561 0.24634 0.30021 0.0
C5512 C 0.82805 0.22988 0.30699 0.0
C5513 C 0.81232 0.23012 0.31537 0.0
C5514 C 0.80463 0.24587 0.31692 0.0
C5515 C 0.83596 0.21241 0.30488 0.0
C5516 C 0.82433 0.19468 0.29898 0.0
C5517 C 0.85477 0.21283 0.30837 0.0
C5518 C 0.86821 0.23037 0.31624 0.0
C5519 C 0.86697 0.24119 0.33383 0.0
C5520 C 0.87955 0.25785 0.34105 0.0
C5521 C 0.89351 0.26377 0.33089 0.0
C5522 C 0.89498 0.25301 0.31352 0.0
C5523 C 0.88244 0.23634 0.30623 0.0
H5524 H 0.90322 0.27668 0.33649 0.0
H5525 H 0.7822 0.1136 0.27233 0.0
H5526 H 0.79735 0.15558 0.05398 0.0
H5527 H 0.76713 0.13465 0.04676 0.0
H5528 H 0.74481 0.17833 0.02606 0.0
H5529 H 0.77439 0.19897 0.03327 0.0
H5530 H 0.73085 0.16537 0.0575 0.0
H5531 H 0.74344 0.14346 0.9948 0.0
H5532 H 0.7597 0.1294 0.97108 0.0
H5533 H 0.74976 0.07879 0.99476 0.0
H5534 H 0.7337 0.09267 0.01889 0.0
H5535 H 0.63907 0.12524 0.03615 0.0
H5536 H 0.66892 0.1396 0.03001 0.0
H5537 H 0.68779 0.091 0.04176 0.0
H5538 H 0.65772 0.07631 0.04694 0.0
H5539 H 0.70384 0.10546 0.014 0.0
H5540 H 0.69211 0.12952 0.07806 0.0
H5541 H 0.67521 0.14454 0.10039 0.0
H5542 H 0.68348 0.19266 0.07231 0.0
H5543 H 0.70021 0.17782 0.04965 0.0
C5544 C 0.78599 0.16046 0.04752 0.0
C5545 C 0.78805 0.17896 0.04465 0.0
C5546 C 0.76882 0.14855 0.04334 0.0
C5547 C 0.75379 0.15508 0.03606 0.0
C5548 C 0.75621 0.1731 0.03181 0.0
C5549 C 0.77312 0.18489 0.03608 0.0
C5550 C 0.73525 0.14453 0.03552 0.0
C5551 C 0.72491 0.15233 0.04786 0.0
C5552 C 0.72765 0.12747 0.0231 0.0
C5553 C 0.73761 0.11921 0.00888 0.0
C5554 C 0.74495 0.12943 0.99516 0.0
C5555 C 0.75407 0.12147 0.98159 0.0
C5556 C 0.75583 0.10324 0.98147 0.0
C5557 C 0.74844 0.09293 0.99491 0.0
C5558 C 0.73932 0.10084 0.00854 0.0
C5559 C 0.64957 0.11759 0.03713 0.0
C5560 C 0.64629 0.09984 0.04227 0.0
C5561 C 0.66658 0.12576 0.03365 0.0
C5562 C 0.6807 0.11654 0.03593 0.0
C5563 C 0.67713 0.09839 0.04 0.0
C5564 C 0.66001 0.09006 0.04304 0.0
C5565 C 0.69946 0.12639 0.03595 0.0
C5566 C 0.70985 0.11847 0.02365 0.0
C5567 C 0.70718 0.14353 0.04828 0.0
C5568 C 0.69728 0.1525 0.06208 0.0
C5569 C 0.69025 0.14327 0.0766 0.0
C5570 C 0.6807 0.15175 0.08931 0.0
C5571 C 0.67824 0.16953 0.08775 0.0
C5572 C 0.68537 0.17888 0.0735 0.0
C5573 C 0.69489 0.17045 0.06073 0.0
H5574 H 0.67084 0.17607 0.0976 0.0
H5575 H 0.76287 0.09709 0.97092 0.0
H5576 H 0.19154 0.47902 0.32086 0.0
H5577 H 0.20821 0.45459 0.32162 0.0
H5578 H 0.15965 0.41365 0.29689 0.0
H5579 H 0.14279 0.43816 0.29584 0.0
H5580 H 0.18114 0.40429 0.32999 0.0
H5581 H 0.1883 0.42499 0.26817 0.0
H5582 H 0.19633 0.44822 0.24693 0.0
H5583 H 0.25036 0.4636 0.27845 0.0
H5584 H 0.24257 0.44063 0.30007 0.0
H5585 H 0.21899 0.32902 0.292 0.0
H5586 H 0.20253 0.35355 0.29639 0.0
H5587 H 0.25154 0.39212 0.32472 0.0
H5588 H 0.26816 0.36759 0.32063 0.0
H5589 H 0.23078 0.40356 0.29178 0.0
H5590 H 0.22602 0.3827 0.35149 0.0
H5591 H 0.21979 0.36203 0.3756 0.0
H5592 H 0.16353 0.3496 0.35224 0.0
H5593 H 0.16946 0.36944 0.32724 0.0
C5594 C 0.18434 0.46484 0.31552 0.0
C5595 C 0.16579 0.46061 0.3082 0.0
C5596 C 0.19394 0.45086 0.31597 0.0
C5597 C 0.18523 0.43226 0.30927 0.0
C5598 C 0.16667 0.4279 0.30216 0.0
C5599 C 0.15707 0.44194 0.30145 0.0
C5600 C 0.19565 0.41748 0.30946 0.0
C5601 C 0.19174 0.40384 0.32131 0.0
C5602 C 0.21008 0.41744 0.29889 0.0
C5603 C 0.21479 0.43124 0.28589 0.0
C5604 C 0.20185 0.43344 0.27069 0.0
C5605 C 0.20637 0.44654 0.25856 0.0
C5606 C 0.22383 0.45742 0.26138 0.0
C5607 C 0.23683 0.45519 0.27631 0.0
C5608 C 0.23237 0.44213 0.2885 0.0
C5609 C 0.22631 0.34268 0.29929 0.0
C5610 C 0.24498 0.34632 0.30585 0.0
C5611 C 0.21682 0.35668 0.30187 0.0
C5612 C 0.22579 0.3747 0.31084 0.0
C5613 C 0.24434 0.37831 0.31779 0.0
C5614 C 0.25382 0.36425 0.31544 0.0
C5615 C 0.21595 0.38992 0.3118 0.0
C5616 C 0.22004 0.40374 0.30026 0.0
C5617 C 0.20188 0.39023 0.32289 0.0
C5618 C 0.19827 0.37734 0.33714 0.0
C5619 C 0.21236 0.37518 0.35107 0.0
C5620 C 0.20887 0.36362 0.36496 0.0
C5621 C 0.19128 0.35437 0.36535 0.0
C5622 C 0.17716 0.35661 0.35178 0.0
C5623 C 0.18059 0.36796 0.33768 0.0
H5624 H 0.18857 0.34557 0.37623 0.0
H5625 H 0.2273 0.46755 0.25197 0.0
H5626 H 0.26914 0.49956 0.06539 0.0
H5627 H 0.23974 0.50377 0.05176 0.0
H5628 H 0.22025 0.49342 0.10528 0.0
H5629 H 0.24967 0.48882 0.11899 0.0
H5630 H 0.19607 0.47493 0.07269 0.0
H5631 H 0.23097 0.53706 0.09591 0.0
H5632 H 0.25709 0.56319 0.09893 0.0
H5633 H 0.24716 0.56237 0.03679 0.0
H5634 H 0.22111 0.53608 0.03337 0.0
H5635 H 0.12174 0.5177 0.06478 0.0
H5636 H 0.14775 0.50437 0.0719 0.0
H5637 H 0.16556 0.51896 0.01882 0.0
H5638 H 0.1399 0.53298 0.01201 0.0
H5639 H 0.1905 0.53359 0.04919 0.0
H5640 H 0.15514 0.47226 0.02558 0.0
H5641 H 0.1295 0.44553 0.02194 0.0
H5642 H 0.13967 0.44477 0.08377 0.0
H5643 H 0.16551 0.47138 0.08774 0.0
C5644 C 0.25867 0.49831 0.07437 0.0
C5645 C 0.26179 0.49398 0.09334 0.0
C5646 C 0.24186 0.50069 0.06652 0.0
C5647 C 0.22786 0.49902 0.07755 0.0
C5648 C 0.23089 0.49473 0.09652 0.0
C5649 C 0.24773 0.49227 0.10438 0.0
C5650 C 0.21017 0.50205 0.06932 0.0
C5651 C 0.19477 0.48781 0.06773 0.0
C5652 C 0.2086 0.51864 0.06232 0.0
C5653 C 0.22421 0.5345 0.06437 0.0
C5654 C 0.23444 0.54237 0.08287 0.0
C5655 C 0.24921 0.55722 0.08466 0.0
C5656 C 0.25381 0.5644 0.06805 0.0
C5657 C 0.2436 0.55678 0.04963 0.0
C5658 C 0.22882 0.54192 0.04777 0.0
C5659 C 0.13107 0.51783 0.05447 0.0
C5660 C 0.12901 0.52676 0.03806 0.0
C5661 C 0.1458 0.50995 0.05842 0.0
C5662 C 0.15865 0.51069 0.04592 0.0
C5663 C 0.15583 0.51827 0.02869 0.0
C5664 C 0.14111 0.52621 0.02477 0.0
C5665 C 0.17625 0.50646 0.05244 0.0
C5666 C 0.19172 0.52056 0.05388 0.0
C5667 C 0.17782 0.48975 0.05922 0.0
C5668 C 0.16216 0.47391 0.05697 0.0
C5669 C 0.15185 0.46646 0.03841 0.0
C5670 C 0.13735 0.45126 0.03628 0.0
C5671 C 0.1329 0.44352 0.05262 0.0
C5672 C 0.14309 0.45082 0.07112 0.0
C5673 C 0.15773 0.46588 0.07331 0.0
H5674 H 0.12159 0.43184 0.05095 0.0
H5675 H 0.26525 0.5759 0.06947 0.0
H5676 H 0.84656 0.02197 0.27921 0.0
H5677 H 0.8289 0.99076 0.281 0.0
H5678 H 0.87802 0.97267 0.29458 0.0
H5679 H 0.89525 1.00282 0.29237 0.0
H5680 H 0.85809 0.94643 0.27126 0.0
H5681 H 0.84688 0.98239 0.32896 0.0
H5682 H 0.83603 0.00727 0.34712 0.0
H5683 H 0.78287 0.98547 0.31449 0.0
H5684 H 0.79346 0.96057 0.29599 0.0
H5685 H 0.83384 0.86504 0.31207 0.0
H5686 H 0.84459 0.89669 0.30682 0.0
H5687 H 0.79019 0.90034 0.28746 0.0
H5688 H 0.77922 0.86824 0.29298 0.0
H5689 H 0.8089 0.93341 0.3099 0.0
H5690 H 0.82057 0.89535 0.25467 0.0
H5691 H 0.8322 0.87053 0.23754 0.0
H5692 H 0.88578 0.89676 0.26665 0.0
H5693 H 0.87445 0.92161 0.28417 0.0
C5694 C 0.85358 0.01135 0.28258 0.0
C5695 C 0.87258 0.01539 0.28545 0.0
C5696 C 0.84342 0.99334 0.28373 0.0
C5697 C 0.85188 0.97878 0.288 0.0
C5698 C 0.87077 0.98307 0.29103 0.0
C5699 C 0.88076 1.00073 0.28978 0.0
C5700 C 0.84177 0.95904 0.28914 0.0
C5701 C 0.84746 0.9438 0.27994 0.0
C5702 C 0.82738 0.95487 0.29986 0.0
C5703 C 0.821 0.96977 0.31095 0.0
C5704 C 0.8329 0.98299 0.32557 0.0
C5705 C 0.8268 0.99708 0.33594 0.0
C5706 C 0.80878 0.99799 0.33192 0.0
C5707 C 0.79682 0.98477 0.31756 0.0
C5708 C 0.80287 0.97067 0.30714 0.0
C5709 C 0.82401 0.87243 0.30667 0.0
C5710 C 0.80553 0.86369 0.30295 0.0
C5711 C 0.83027 0.89075 0.30354 0.0
C5712 C 0.81842 0.90133 0.29639 0.0
C5713 C 0.79985 0.89278 0.29291 0.0
C5714 C 0.79352 0.87426 0.296 0.0
C5715 C 0.82568 0.92101 0.29254 0.0
C5716 C 0.81946 0.93614 0.30117 0.0
C5717 C 0.83976 0.92517 0.28143 0.0
C5718 C 0.84663 0.91028 0.27085 0.0
C5719 C 0.83482 0.89577 0.25752 0.0
C5720 C 0.84136 0.8817 0.24773 0.0
C5721 C 0.85971 0.88205 0.25103 0.0
C5722 C 0.87157 0.8965 0.26411 0.0
C5723 C 0.86509 0.91059 0.27396 0.0
H5724 H 0.86475 0.87114 0.24344 0.0
H5725 H 0.80408 0.0089 0.33996 0.0
H5726 H 0.66302 0.05827 0.84547 0.0
H5727 H 0.68683 0.08635 0.84889 0.0
H5728 H 0.6892 0.07445 0.7872 0.0
H5729 H 0.66643 0.04574 0.78428 0.0
H5730 H 0.72049 0.09067 0.80448 0.0
H5731 H 0.66154 0.1036 0.80894 0.0
H5732 H 0.63413 0.10257 0.82379 0.0
H5733 H 0.66609 0.13109 0.87855 0.0
H5734 H 0.6937 0.13211 0.86406 0.0
H5735 H 0.73825 0.17615 0.77221 0.0
H5736 H 0.72333 0.14661 0.78007 0.0
H5737 H 0.73947 0.16789 0.84173 0.0
H5738 H 0.7543 0.19779 0.83395 0.0
H5739 H 0.70286 0.14791 0.83094 0.0
H5740 H 0.76147 0.13932 0.82306 0.0
H5741 H 0.78778 0.14115 0.80626 0.0
H5742 H 0.75506 0.10496 0.75582 0.0
H5743 H 0.72849 0.10311 0.77222 0.0
C5744 C 0.66917 0.06141 0.83288 0.0
C5745 C 0.66312 0.04992 0.81466 0.0
C5746 C 0.68256 0.07757 0.83474 0.0
C5747 C 0.68944 0.08291 0.81817 0.0
C5748 C 0.68411 0.07074 0.80022 0.0
C5749 C 0.67114 0.05431 0.79852 0.0
C5750 C 0.70103 0.10166 0.81891 0.0
C5751 C 0.71656 0.10314 0.81023 0.0
C5752 C 0.69627 0.11809 0.82689 0.0
C5753 C 0.67967 0.11776 0.83548 0.0
C5754 C 0.66271 0.10959 0.82416 0.0
C5755 C 0.64715 0.10901 0.83251 0.0
C5756 C 0.64837 0.11672 0.85211 0.0
C5757 C 0.66516 0.1251 0.86338 0.0
C5758 C 0.68076 0.12569 0.85511 0.0
C5759 C 0.73853 0.17464 0.78745 0.0
C5760 C 0.74749 0.18932 0.80245 0.0
C5761 C 0.7301 0.1577 0.79192 0.0
C5762 C 0.73047 0.15501 0.81147 0.0
C5763 C 0.73912 0.16968 0.82655 0.0
C5764 C 0.74768 0.18667 0.82207 0.0
C5765 C 0.7218 0.13673 0.81587 0.0
C5766 C 0.7069 0.13539 0.82554 0.0
C5767 C 0.72696 0.12043 0.80858 0.0
C5768 C 0.74299 0.12113 0.79885 0.0
C5769 C 0.75987 0.13181 0.80836 0.0
C5770 C 0.77483 0.13285 0.79891 0.0
C5771 C 0.77309 0.12319 0.77998 0.0
C5772 C 0.75639 0.11242 0.77048 0.0
C5773 C 0.74139 0.11134 0.77987 0.0
H5774 H 0.78468 0.12404 0.77267 0.0
H5775 H 0.63632 0.11623 0.85856 0.0
loop_
_geom_bond_atom_site_label_1
_geom_bond_atom_site_label_2
_geom_bond_distance
_geom_bond_site_symmetry_2
_ccdc_geom_bond_type
Zn0 O3 2.031 . S
Zn0 O5 2.049 . S
Zn0 O10 2.067 . S
Zn1 O2 1.962 . S
Zn1 O4 1.986 . S
Zn1 O6 1.996 . S
Zn1 O9 1.943 . S
O2 Zn1 1.962 . S
O2 C7 1.254 . S
O3 Zn0 2.031 . S
O3 C7 1.269 . S
O4 Zn1 1.986 . S
O4 C11 1.262 . S
O5 Zn0 2.049 . S
O5 C13 1.260 . S
O6 Zn1 1.996 . S
O6 C13 1.257 . S
C7 O2 1.254 . S
C7 O3 1.269 . S
C8 O9 1.249 . S
C8 O10 1.270 . S
O9 Zn1 1.943 . S
O9 C8 1.249 . S
O10 Zn0 2.067 . S
O10 C8 1.270 . S
C11 O4 1.262 . S
C11 O12 1.232 . S
O12 C11 1.232 . S
C13 O5 1.260 . S
C13 O6 1.257 . S
Zn14 O17 2.031 1_455 S
Zn14 O19 2.049 . S
Zn14 O24 2.067 . S
Zn15 O16 1.939 1_455 S
Zn15 O18 1.996 . S
Zn15 O20 2.014 . S
Zn15 O23 1.948 1_455 S
O16 Zn15 1.939 1_655 S
O16 C21 1.254 . S
O17 Zn14 2.031 1_655 S
O17 C21 1.269 . S
O18 Zn15 1.996 . S
O18 C25 1.262 . S
O19 Zn14 2.049 . S
O19 C27 1.260 . S
O20 Zn15 2.014 . S
O20 C27 1.257 . S
C21 O16 1.254 . S
C21 O17 1.269 . S
C22 O23 1.249 . S
C22 O24 1.270 1_655 S
O23 Zn15 1.948 1_655 S
O23 C22 1.249 . S
O24 Zn14 2.067 . S
O24 C22 1.270 1_455 S
C25 O18 1.262 . S
C25 O26 1.232 1_455 S
O26 C25 1.232 1_655 S
C27 O19 1.260 . S
C27 O20 1.257 . S
Zn28 O31 2.031 . S
Zn28 O33 2.049 . S
Zn28 O38 2.067 . S
Zn29 O30 1.962 . S
Zn29 O32 1.986 . S
Zn29 O34 1.996 . S
Zn29 O37 1.943 . S
O30 Zn29 1.962 . S
O30 C35 1.254 . S
O31 Zn28 2.031 . S
O31 C35 1.269 . S
O32 Zn29 1.986 . S
O32 C39 1.262 . S
O33 Zn28 2.049 . S
O33 C41 1.260 . S
O34 Zn29 1.996 . S
O34 C41 1.257 . S
C35 O30 1.254 . S
C35 O31 1.269 . S
C36 O37 1.249 . S
C36 O38 1.270 . S
O37 Zn29 1.943 . S
O37 C36 1.249 . S
O38 Zn28 2.067 . S
O38 C36 1.270 . S
C39 O32 1.262 . S
C39 O40 1.232 . S
O40 C39 1.232 . S
C41 O33 1.260 . S
C41 O34 1.257 . S
Zn42 O45 2.031 . S
Zn42 O47 2.049 . S
Zn42 O52 2.067 . S
Zn43 O44 1.962 . S
Zn43 O46 1.986 . S
Zn43 O48 1.996 . S
Zn43 O51 1.943 . S
O44 Zn43 1.962 . S
O44 C49 1.254 . S
O45 Zn42 2.031 . S
O45 C49 1.269 . S
O46 Zn43 1.986 . S
O46 C53 1.262 . S
O47 Zn42 2.049 . S
O47 C55 1.260 . S
O48 Zn43 1.996 . S
O48 C55 1.257 . S
C49 O44 1.254 . S
C49 O45 1.269 . S
C50 O51 1.249 . S
C50 O52 1.270 . S
O51 Zn43 1.943 . S
O51 C50 1.249 . S
O52 Zn42 2.067 . S
O52 C50 1.270 . S
C53 O46 1.262 . S
C53 O54 1.232 . S
O54 C53 1.232 . S
C55 O47 1.260 . S
C55 O48 1.257 . S
Zn56 O59 2.031 . S
Zn56 O61 2.049 . S
Zn56 O66 2.067 . S
Zn57 O58 1.962 . S
Zn57 O60 1.986 1_455 S
Zn57 O62 1.996 . S
Zn57 O65 1.943 . S
O58 Zn57 1.962 . S
O58 C63 1.254 . S
O59 Zn56 2.031 . S
O59 C63 1.269 . S
O60 Zn57 1.986 1_655 S
O60 C67 1.262 . S
O61 Zn56 2.049 . S
O61 C69 1.260 . S
O62 Zn57 1.996 . S
O62 C69 1.257 . S
C63 O58 1.254 . S
C63 O59 1.269 . S
C64 O65 1.249 . S
C64 O66 1.270 . S
O65 Zn57 1.943 . S
O65 C64 1.249 . S
O66 Zn56 2.067 . S
O66 C64 1.270 . S
C67 O60 1.262 . S
C67 O68 1.232 . S
O68 C67 1.232 . S
C69 O61 1.260 . S
C69 O62 1.257 . S
Zn70 O73 2.031 . S
Zn70 O75 2.049 . S
Zn70 O80 2.067 . S
Zn71 O72 1.962 . S
Zn71 O74 1.986 . S
Zn71 O76 1.996 . S
Zn71 O79 1.943 . S
O72 Zn71 1.962 . S
O72 C77 1.254 . S
O73 Zn70 2.031 . S
O73 C77 1.269 . S
O74 Zn71 1.986 . S
O74 C81 1.262 . S
O75 Zn70 2.049 . S
O75 C83 1.260 . S
O76 Zn71 1.996 . S
O76 C83 1.257 . S
C77 O72 1.254 . S
C77 O73 1.269 . S
C78 O79 1.249 . S
C78 O80 1.270 . S
O79 Zn71 1.943 . S
O79 C78 1.249 . S
O80 Zn70 2.067 . S
O80 C78 1.270 . S
C81 O74 1.262 . S
C81 O82 1.232 . S
O82 C81 1.232 . S
C83 O75 1.260 . S
C83 O76 1.257 . S
Zn84 O87 2.031 . S
Zn84 O89 2.049 . S
Zn84 O94 2.067 . S
Zn85 O86 1.962 . S
Zn85 O88 1.986 . S
Zn85 O90 1.996 . S
Zn85 O93 1.943 . S
O86 Zn85 1.962 . S
O86 C91 1.254 . S
O87 Zn84 2.031 . S
O87 C91 1.269 . S
O88 Zn85 1.986 . S
O88 C95 1.262 . S
O89 Zn84 2.049 . S
O89 C97 1.260 . S
O90 Zn85 1.996 . S
O90 C97 1.257 . S
C91 O86 1.254 . S
C91 O87 1.269 . S
C92 O93 1.249 . S
C92 O94 1.270 . S
O93 Zn85 1.943 . S
O93 C92 1.249 . S
O94 Zn84 2.067 . S
O94 C92 1.270 . S
C95 O88 1.262 . S
C95 O96 1.232 . S
O96 C95 1.232 . S
C97 O89 1.260 . S
C97 O90 1.257 . S
Zn98 O101 2.031 . S
Zn98 O103 2.049 . S
Zn98 O108 2.067 1_455 S
Zn99 O100 1.962 . S
Zn99 O102 1.986 . S
Zn99 O104 1.996 . S
Zn99 O107 1.943 . S
O100 Zn99 1.962 . S
O100 C105 1.254 . S
O101 Zn98 2.031 . S
O101 C105 1.269 . S
O102 Zn99 1.986 . S
O102 C109 1.262 . S
O103 Zn98 2.049 . S
O103 C111 1.260 . S
O104 Zn99 1.996 . S
O104 C111 1.257 . S
C105 O100 1.254 . S
C105 O101 1.269 . S
C106 O107 1.249 1_655 S
C106 O108 1.270 . S
O107 Zn99 1.943 . S
O107 C106 1.249 1_455 S
O108 Zn98 2.067 1_655 S
O108 C106 1.270 . S
C109 O102 1.262 . S
C109 O110 1.232 . S
O110 C109 1.232 . S
C111 O103 1.260 . S
C111 O104 1.257 . S
Zn112 O115 2.031 . S
Zn112 O117 2.049 . S
Zn112 O122 2.067 . S
Zn113 O114 1.962 . S
Zn113 O116 1.986 . S
Zn113 O118 1.996 . S
Zn113 O121 1.943 . S
O114 Zn113 1.962 . S
O114 C119 1.254 . S
O115 Zn112 2.031 . S
O115 C119 1.269 . S
O116 Zn113 1.986 . S
O116 C123 1.262 . S
O117 Zn112 2.049 . S
O117 C125 1.260 . S
O118 Zn113 1.996 . S
O118 C125 1.257 . S
C119 O114 1.254 . S
C119 O115 1.269 . S
C120 O121 1.249 . S
C120 O122 1.270 . S
O121 Zn113 1.943 . S
O121 C120 1.249 . S
O122 Zn112 2.067 . S
O122 C120 1.270 . S
C123 O116 1.262 . S
C123 O124 1.232 . S
O124 C123 1.232 . S
C125 O117 1.260 . S
C125 O118 1.257 . S
Zn126 O129 2.031 . S
Zn126 O131 2.049 . S
Zn126 O136 2.067 . S
Zn127 O128 1.962 . S
Zn127 O130 1.986 . S
Zn127 O132 1.996 . S
Zn127 O135 1.943 . S
O128 Zn127 1.962 . S
O128 C133 1.254 . S
O129 Zn126 2.031 . S
O129 C133 1.269 . S
O130 Zn127 1.986 . S
O130 C137 1.262 . S
O131 Zn126 2.049 . S
O131 C139 1.260 . S
O132 Zn127 1.996 . S
O132 C139 1.257 . S
C133 O128 1.254 . S
C133 O129 1.269 . S
C134 O135 1.249 . S
C134 O136 1.270 . S
O135 Zn127 1.943 . S
O135 C134 1.249 . S
O136 Zn126 2.067 . S
O136 C134 1.270 . S
C137 O130 1.262 . S
C137 O138 1.232 . S
O138 C137 1.232 . S
C139 O131 1.260 . S
C139 O132 1.257 . S
Zn140 O143 2.031 . S
Zn140 O145 2.049 . S
Zn140 O150 2.067 . S
Zn141 O142 1.962 . S
Zn141 O144 2.040 . S
Zn141 O146 1.996 . S
Zn141 O149 1.943 . S
O142 Zn141 1.962 . S
O142 C147 1.254 . S
O143 Zn140 2.031 . S
O143 C147 1.269 . S
O144 Zn141 2.040 . S
O144 C151 1.230 1_545 S
O145 Zn140 2.049 . S
O145 C153 1.260 . S
O146 Zn141 1.996 . S
O146 C153 1.257 . S
C147 O142 1.254 . S
C147 O143 1.269 . S
C148 O149 1.249 . S
C148 O150 1.270 . S
O149 Zn141 1.943 . S
O149 C148 1.249 . S
O150 Zn140 2.067 . S
O150 C148 1.270 . S
C151 O144 1.230 1_565 S
C151 O152 1.218 1_565 S
O152 C151 1.218 1_545 S
C153 O145 1.260 . S
C153 O146 1.257 . S
Zn154 O157 2.031 . S
Zn154 O159 2.049 . S
Zn154 O164 2.067 . S
Zn155 O156 1.962 . S
Zn155 O158 1.986 . S
Zn155 O160 1.996 . S
Zn155 O163 1.943 . S
O156 Zn155 1.962 . S
O156 C161 1.254 . S
O157 Zn154 2.031 . S
O157 C161 1.269 . S
O158 Zn155 1.986 . S
O158 C165 1.262 . S
O159 Zn154 2.049 . S
O159 C167 1.260 . S
O160 Zn155 1.996 . S
O160 C167 1.257 . S
C161 O156 1.254 . S
C161 O157 1.269 . S
C162 O163 1.249 . S
C162 O164 1.270 . S
O163 Zn155 1.943 . S
O163 C162 1.249 . S
O164 Zn154 2.067 . S
O164 C162 1.270 . S
C165 O158 1.262 . S
C165 O166 1.232 . S
O166 C165 1.232 . S
C167 O159 1.260 . S
C167 O160 1.257 . S
Zn168 O171 2.031 . S
Zn168 O173 2.049 . S
Zn168 O178 2.067 . S
Zn169 O170 1.962 . S
Zn169 O172 1.986 . S
Zn169 O174 1.996 . S
Zn169 O177 1.943 . S
O170 Zn169 1.962 . S
O170 C175 1.254 . S
O171 Zn168 2.031 . S
O171 C175 1.269 . S
O172 Zn169 1.986 . S
O172 C179 1.262 . S
O173 Zn168 2.049 . S
O173 C181 1.260 . S
O174 Zn169 1.996 . S
O174 C181 1.257 . S
C175 O170 1.254 . S
C175 O171 1.269 . S
C176 O177 1.249 . S
C176 O178 1.270 . S
O177 Zn169 1.943 . S
O177 C176 1.249 . S
O178 Zn168 2.067 . S
O178 C176 1.270 . S
C179 O172 1.262 . S
C179 O180 1.232 . S
O180 C179 1.232 . S
C181 O173 1.260 . S
C181 O174 1.257 . S
Zn182 O185 2.031 . S
Zn182 O187 2.049 . S
Zn182 O192 2.067 . S
Zn183 O184 1.962 . S
Zn183 O186 1.986 . S
Zn183 O188 1.996 . S
Zn183 O191 1.943 . S
O184 Zn183 1.962 . S
O184 C189 1.254 . S
O185 Zn182 2.031 . S
O185 C189 1.269 . S
O186 Zn183 1.986 . S
O186 C193 1.262 . S
O187 Zn182 2.049 . S
O187 C195 1.260 . S
O188 Zn183 1.996 . S
O188 C195 1.257 . S
C189 O184 1.254 . S
C189 O185 1.269 . S
C190 O191 1.249 . S
C190 O192 1.270 . S
O191 Zn183 1.943 . S
O191 C190 1.249 . S
O192 Zn182 2.067 . S
O192 C190 1.270 . S
C193 O186 1.262 . S
C193 O194 1.232 . S
O194 C193 1.232 . S
C195 O187 1.260 . S
C195 O188 1.257 . S
Zn196 O199 2.031 . S
Zn196 O201 2.049 . S
Zn196 O206 2.067 . S
Zn197 O198 1.962 . S
Zn197 O200 1.986 . S
Zn197 O202 1.996 . S
Zn197 O205 1.943 . S
O198 Zn197 1.962 . S
O198 C203 1.254 . S
O199 Zn196 2.031 . S
O199 C203 1.269 . S
O200 Zn197 1.986 . S
O200 C207 1.262 . S
O201 Zn196 2.049 . S
O201 C209 1.260 . S
O202 Zn197 1.996 . S
O202 C209 1.257 . S
C203 O198 1.254 . S
C203 O199 1.269 . S
C204 O205 1.249 . S
C204 O206 1.270 . S
O205 Zn197 1.943 . S
O205 C204 1.249 . S
O206 Zn196 2.067 . S
O206 C204 1.270 . S
C207 O200 1.262 . S
C207 O208 1.232 . S
O208 C207 1.232 . S
C209 O201 1.260 . S
C209 O202 1.257 . S
Zn210 O213 2.031 . S
Zn210 O215 2.049 . S
Zn210 O220 2.067 . S
Zn211 O212 1.962 . S
Zn211 O214 1.986 . S
Zn211 O216 1.996 . S
Zn211 O219 1.943 . S
O212 Zn211 1.962 . S
O212 C217 1.254 . S
O213 Zn210 2.031 . S
O213 C217 1.269 . S
O214 Zn211 1.986 . S
O214 C221 1.262 . S
O215 Zn210 2.049 . S
O215 C223 1.260 . S
O216 Zn211 1.996 . S
O216 C223 1.257 . S
C217 O212 1.254 . S
C217 O213 1.269 . S
C218 O219 1.249 . S
C218 O220 1.270 . S
O219 Zn211 1.943 . S
O219 C218 1.249 . S
O220 Zn210 2.067 . S
O220 C218 1.270 . S
C221 O214 1.262 . S
C221 O222 1.232 . S
O222 C221 1.232 . S
C223 O215 1.260 . S
C223 O216 1.257 . S
Zn224 O227 2.031 . S
Zn224 O229 2.049 . S
Zn224 O234 2.067 . S
Zn225 O226 1.962 . S
Zn225 O228 1.986 . S
Zn225 O230 1.996 . S
Zn225 O233 1.943 . S
O226 Zn225 1.962 . S
O226 C231 1.254 . S
O227 Zn224 2.031 . S
O227 C231 1.269 . S
O228 Zn225 1.986 . S
O228 C235 1.262 . S
O229 Zn224 2.049 . S
O229 C237 1.260 . S
O230 Zn225 1.996 . S
O230 C237 1.257 . S
C231 O226 1.254 . S
C231 O227 1.269 . S
C232 O233 1.249 . S
C232 O234 1.270 . S
O233 Zn225 1.943 . S
O233 C232 1.249 . S
O234 Zn224 2.067 . S
O234 C232 1.270 . S
C235 O228 1.262 . S
C235 O236 1.232 . S
O236 C235 1.232 . S
C237 O229 1.260 . S
C237 O230 1.257 . S
Zn238 O241 2.031 . S
Zn238 O243 2.049 . S
Zn238 O248 2.067 . S
Zn239 O240 1.962 . S
Zn239 O242 1.986 . S
Zn239 O244 1.996 . S
Zn239 O247 1.943 . S
O240 Zn239 1.962 . S
O240 C245 1.254 . S
O241 Zn238 2.031 . S
O241 C245 1.269 . S
O242 Zn239 1.986 . S
O242 C249 1.262 . S
O243 Zn238 2.049 . S
O243 C251 1.260 . S
O244 Zn239 1.996 . S
O244 C251 1.257 . S
C245 O240 1.254 . S
C245 O241 1.269 . S
C246 O247 1.249 . S
C246 O248 1.270 . S
O247 Zn239 1.943 . S
O247 C246 1.249 . S
O248 Zn238 2.067 . S
O248 C246 1.270 . S
C249 O242 1.262 . S
C249 O250 1.232 . S
O250 C249 1.232 . S
C251 O243 1.260 . S
C251 O244 1.257 . S
Zn252 O255 2.031 . S
Zn252 O257 2.049 . S
Zn252 O262 2.067 . S
Zn253 O254 1.962 . S
Zn253 O256 1.986 . S
Zn253 O258 1.996 . S
Zn253 O261 1.943 . S
O254 Zn253 1.962 . S
O254 C259 1.254 . S
O255 Zn252 2.031 . S
O255 C259 1.269 . S
O256 Zn253 1.986 . S
O256 C263 1.262 . S
O257 Zn252 2.049 . S
O257 C265 1.260 . S
O258 Zn253 1.996 . S
O258 C265 1.257 . S
C259 O254 1.254 . S
C259 O255 1.269 . S
C260 O261 1.249 . S
C260 O262 1.270 . S
O261 Zn253 1.943 . S
O261 C260 1.249 . S
O262 Zn252 2.067 . S
O262 C260 1.270 . S
C263 O256 1.262 . S
C263 O264 1.232 . S
O264 C263 1.232 . S
C265 O257 1.260 . S
C265 O258 1.257 . S
Zn266 O269 2.031 . S
Zn266 O271 2.049 . S
Zn266 O276 2.067 . S
Zn267 O268 1.962 . S
Zn267 O270 1.986 . S
Zn267 O272 1.996 . S
Zn267 O275 1.943 1_565 S
O268 Zn267 1.962 . S
O268 C273 1.254 1_565 S
O269 Zn266 2.031 . S
O269 C273 1.269 . S
O270 Zn267 1.986 . S
O270 C277 1.262 . S
O271 Zn266 2.049 . S
O271 C279 1.260 . S
O272 Zn267 1.996 . S
O272 C279 1.257 1_565 S
C273 O268 1.254 1_545 S
C273 O269 1.269 . S
C274 O275 1.249 . S
C274 O276 1.270 . S
O275 Zn267 1.943 1_545 S
O275 C274 1.249 . S
O276 Zn266 2.067 . S
O276 C274 1.270 . S
C277 O270 1.262 . S
C277 O278 1.232 . S
O278 C277 1.232 . S
C279 O271 1.260 . S
C279 O272 1.257 1_545 S
Zn280 O283 2.031 1_554 S
Zn280 O285 2.049 . S
Zn280 O290 2.067 . S
Zn281 O282 1.974 . S
Zn281 O284 1.980 1_556 S
Zn281 O286 1.987 1_556 S
Zn281 O289 1.941 . S
O282 Zn281 1.974 . S
O282 C287 1.254 . S
O283 Zn280 2.031 1_556 S
O283 C287 1.269 . S
O284 Zn281 1.980 1_554 S
O284 C291 1.236 1_554 S
O285 Zn280 2.049 . S
O285 C293 1.260 . S
O286 Zn281 1.987 1_554 S
O286 C293 1.257 . S
C287 O282 1.254 . S
C287 O283 1.269 . S
C288 O289 1.249 . S
C288 O290 1.270 1_556 S
O289 Zn281 1.941 . S
O289 C288 1.249 . S
O290 Zn280 2.067 . S
O290 C288 1.270 1_554 S
C291 O284 1.236 1_556 S
C291 O292 1.263 . S
O292 C291 1.263 . S
C293 O285 1.260 . S
C293 O286 1.257 . S
Zn294 O297 2.031 . S
Zn294 O299 2.049 . S
Zn294 O304 2.067 . S
Zn295 O296 1.962 . S
Zn295 O298 1.986 . S
Zn295 O300 1.996 . S
Zn295 O303 1.943 . S
O296 Zn295 1.962 . S
O296 C301 1.254 . S
O297 Zn294 2.031 . S
O297 C301 1.269 . S
O298 Zn295 1.986 . S
O298 C305 1.262 . S
O299 Zn294 2.049 . S
O299 C307 1.260 . S
O300 Zn295 1.996 . S
O300 C307 1.257 . S
C301 O296 1.254 . S
C301 O297 1.269 . S
C302 O303 1.249 . S
C302 O304 1.270 . S
O303 Zn295 1.943 . S
O303 C302 1.249 . S
O304 Zn294 2.067 . S
O304 C302 1.270 . S
C305 O298 1.262 . S
C305 O306 1.232 . S
O306 C305 1.232 . S
C307 O299 1.260 . S
C307 O300 1.257 . S
Zn308 O311 2.031 . S
Zn308 O313 2.049 . S
Zn308 O318 2.067 . S
Zn309 O310 1.962 . S
Zn309 O312 1.986 . S
Zn309 O314 1.996 . S
Zn309 O317 1.943 . S
O310 Zn309 1.962 . S
O310 C315 1.254 . S
O311 Zn308 2.031 . S
O311 C315 1.269 . S
O312 Zn309 1.986 . S
O312 C319 1.262 . S
O313 Zn308 2.049 . S
O313 C321 1.260 . S
O314 Zn309 1.996 . S
O314 C321 1.257 . S
C315 O310 1.254 . S
C315 O311 1.269 . S
C316 O317 1.249 . S
C316 O318 1.270 . S
O317 Zn309 1.943 . S
O317 C316 1.249 . S
O318 Zn308 2.067 . S
O318 C316 1.270 . S
C319 O312 1.262 . S
C319 O320 1.232 . S
O320 C319 1.232 . S
C321 O313 1.260 . S
C321 O314 1.257 . S
Zn322 O325 2.031 . S
Zn322 O327 2.049 . S
Zn322 O332 2.067 . S
Zn323 O324 1.962 . S
Zn323 O326 1.986 . S
Zn323 O328 1.996 . S
Zn323 O331 1.943 . S
O324 Zn323 1.962 . S
O324 C329 1.254 . S
O325 Zn322 2.031 . S
O325 C329 1.269 . S
O326 Zn323 1.986 . S
O326 C333 1.262 . S
O327 Zn322 2.049 . S
O327 C335 1.260 . S
O328 Zn323 1.996 . S
O328 C335 1.257 . S
C329 O324 1.254 . S
C329 O325 1.269 . S
C330 O331 1.249 . S
C330 O332 1.270 . S
O331 Zn323 1.943 . S
O331 C330 1.249 . S
O332 Zn322 2.067 . S
O332 C330 1.270 . S
C333 O326 1.262 . S
C333 O334 1.232 . S
O334 C333 1.232 . S
C335 O327 1.260 . S
C335 O328 1.257 . S
Nd336 C338 2.836 . S
Nd336 O356 2.500 . S
Nd336 O357 2.492 . S
Nd336 O358 2.487 . S
Nd336 O359 2.682 . S
Nd336 O360 2.410 . S
Nd336 O365 2.414 . S
Nd336 O367 2.424 . S
Nd337 C347 2.836 1_545 S
Nd337 O359 2.414 . S
Nd337 O361 2.424 1_455 S
Nd337 O362 2.500 . S
Nd337 O363 2.492 . S
Nd337 O364 2.487 . S
Nd337 O365 2.682 . S
Nd337 O366 2.410 . S
C338 Nd336 2.836 . S
C338 C339 1.498 . S
C338 O356 1.258 . S
C338 O357 1.239 . S
C339 C338 1.498 . S
C339 C340 1.366 . S
C339 C344 1.407 . S
C340 C339 1.366 . S
C340 C341 1.392 . S
C340 H368 0.930 . S
C341 C340 1.392 . S
C341 C342 1.398 . S
C341 H369 0.929 . S
C342 C341 1.398 . S
C342 C343 1.352 . S
C343 C342 1.352 . S
C343 C344 1.384 . S
C343 H370 0.930 . S
C344 C339 1.407 . S
C344 C343 1.384 . S
C344 H371 0.929 . S
C345 O358 1.241 . S
C345 O359 1.273 . S
C346 O360 1.251 1_655 S
C346 O361 1.268 . S
C347 Nd337 2.836 1_565 S
C347 C348 1.498 . S
C347 O362 1.258 1_565 S
C347 O363 1.239 1_565 S
C348 C347 1.498 . S
C348 C349 1.366 . S
C348 C353 1.407 . S
C349 C348 1.366 . S
C349 C350 1.392 . S
C349 H372 0.930 . S
C350 C349 1.392 . S
C350 C351 1.398 . S
C350 H373 0.929 . S
C351 C350 1.398 . S
C351 C352 1.352 . S
C352 C351 1.352 . S
C352 C353 1.384 . S
C352 H374 0.930 . S
C353 C348 1.407 . S
C353 C352 1.384 . S
C353 H375 0.929 . S
C354 O364 1.241 . S
C354 O365 1.273 . S
C355 O366 1.251 . S
C355 O367 1.268 . S
O356 Nd336 2.500 . S
O356 C338 1.258 . S
O357 Nd336 2.492 . S
O357 C338 1.239 . S
O358 Nd336 2.487 . S
O358 C345 1.241 . S
O359 Nd336 2.682 . S
O359 Nd337 2.414 . S
O359 C345 1.273 . S
O360 Nd336 2.410 . S
O360 C346 1.251 1_455 S
O361 Nd337 2.424 1_655 S
O361 C346 1.268 . S
O362 Nd337 2.500 . S
O362 C347 1.258 1_545 S
O363 Nd337 2.492 . S
O363 C347 1.239 1_545 S
O364 Nd337 2.487 . S
O364 C354 1.241 . S
O365 Nd336 2.414 . S
O365 Nd337 2.682 . S
O365 C354 1.273 . S
O366 Nd337 2.410 . S
O366 C355 1.251 . S
O367 Nd336 2.424 . S
O367 C355 1.268 . S
H368 C340 0.930 . S
H369 C341 0.929 . S
H370 C343 0.930 . S
H371 C344 0.929 . S
H372 C349 0.930 . S
H373 C350 0.929 . S
H374 C352 0.930 . S
H375 C353 0.929 . S
Nd376 C378 2.836 . S
Nd376 O396 2.500 . S
Nd376 O397 2.492 . S
Nd376 O398 2.487 . S
Nd376 O399 2.682 . S
Nd376 O400 2.410 . S
Nd376 O405 2.414 . S
Nd376 O407 2.424 . S
Nd377 C387 2.836 . S
Nd377 O399 2.414 . S
Nd377 O401 2.424 . S
Nd377 O402 2.500 . S
Nd377 O403 2.492 . S
Nd377 O404 2.487 . S
Nd377 O405 2.682 . S
Nd377 O406 2.410 . S
C378 Nd376 2.836 . S
C378 C379 1.498 . S
C378 O396 1.258 . S
C378 O397 1.239 . S
C379 C378 1.498 . S
C379 C380 1.366 . S
C379 C384 1.407 . S
C380 C379 1.366 . S
C380 C381 1.392 . S
C380 H408 0.930 . S
C381 C380 1.392 . S
C381 C382 1.398 . S
C381 H409 0.929 . S
C382 C381 1.398 . S
C382 C383 1.352 . S
C383 C382 1.352 . S
C383 C384 1.384 . S
C383 H410 0.930 . S
C384 C379 1.407 . S
C384 C383 1.384 . S
C384 H411 0.929 . S
C385 O398 1.241 . S
C385 O399 1.273 . S
C386 O400 1.251 . S
C386 O401 1.268 . S
C387 Nd377 2.836 . S
C387 C388 1.498 . S
C387 O402 1.258 . S
C387 O403 1.239 . S
C388 C387 1.498 . S
C388 C389 1.366 . S
C388 C393 1.407 . S
C389 C388 1.366 . S
C389 C390 1.392 . S
C389 H412 0.930 . S
C390 C389 1.392 . S
C390 C391 1.398 . S
C390 H413 0.929 . S
C391 C390 1.398 . S
C391 C392 1.352 . S
C392 C391 1.352 . S
C392 C393 1.384 . S
C392 H414 0.930 . S
C393 C388 1.407 . S
C393 C392 1.384 . S
C393 H415 0.929 . S
C394 O404 1.241 . S
C394 O405 1.273 . S
C395 O406 1.251 . S
C395 O407 1.268 . S
O396 Nd376 2.500 . S
O396 C378 1.258 . S
O397 Nd376 2.492 . S
O397 C378 1.239 . S
O398 Nd376 2.487 . S
O398 C385 1.241 . S
O399 Nd376 2.682 . S
O399 Nd377 2.414 . S
O399 C385 1.273 . S
O400 Nd376 2.410 . S
O400 C386 1.251 . S
O401 Nd377 2.424 . S
O401 C386 1.268 . S
O402 Nd377 2.500 . S
O402 C387 1.258 . S
O403 Nd377 2.492 . S
O403 C387 1.239 . S
O404 Nd377 2.487 . S
O404 C394 1.241 . S
O405 Nd376 2.414 . S
O405 Nd377 2.682 . S
O405 C394 1.273 . S
O406 Nd377 2.410 . S
O406 C395 1.251 . S
O407 Nd376 2.424 . S
O407 C395 1.268 . S
H408 C380 0.930 . S
H409 C381 0.929 . S
H410 C383 0.930 . S
H411 C384 0.929 . S
H412 C389 0.930 . S
H413 C390 0.929 . S
H414 C392 0.930 . S
H415 C393 0.929 . S
Nd416 C418 2.836 . S
Nd416 O436 2.500 . S
Nd416 O437 2.492 . S
Nd416 O438 2.487 . S
Nd416 O439 2.682 . S
Nd416 O440 2.410 . S
Nd416 O445 2.414 . S
Nd416 O447 2.424 . S
Nd417 C427 2.836 . S
Nd417 O439 2.414 . S
Nd417 O441 2.424 . S
Nd417 O442 2.500 . S
Nd417 O443 2.492 . S
Nd417 O444 2.487 . S
Nd417 O445 2.682 . S
Nd417 O446 2.410 . S
C418 Nd416 2.836 . S
C418 C419 1.498 . S
C418 O436 1.258 . S
C418 O437 1.239 . S
C419 C418 1.498 . S
C419 C420 1.366 . S
C419 C424 1.407 . S
C420 C419 1.366 . S
C420 C421 1.392 . S
C420 H448 0.930 . S
C421 C420 1.392 . S
C421 C422 1.398 . S
C421 H449 0.929 . S
C422 C421 1.398 . S
C422 C423 1.352 . S
C423 C422 1.352 . S
C423 C424 1.384 . S
C423 H450 0.930 . S
C424 C419 1.407 . S
C424 C423 1.384 . S
C424 H451 0.929 . S
C425 O438 1.241 . S
C425 O439 1.273 . S
C426 O440 1.251 . S
C426 O441 1.268 . S
C427 Nd417 2.836 . S
C427 C428 1.498 . S
C427 O442 1.258 . S
C427 O443 1.239 . S
C428 C427 1.498 . S
C428 C429 1.366 . S
C428 C433 1.407 . S
C429 C428 1.366 . S
C429 C430 1.392 . S
C429 H452 0.930 . S
C430 C429 1.392 . S
C430 C431 1.398 . S
C430 H453 0.929 . S
C431 C430 1.398 . S
C431 C432 1.352 . S
C432 C431 1.352 . S
C432 C433 1.384 . S
C432 H454 0.930 . S
C433 C428 1.407 . S
C433 C432 1.384 . S
C433 H455 0.929 . S
C434 O444 1.241 . S
C434 O445 1.273 . S
C435 O446 1.251 . S
C435 O447 1.268 . S
O436 Nd416 2.500 . S
O436 C418 1.258 . S
O437 Nd416 2.492 . S
O437 C418 1.239 . S
O438 Nd416 2.487 . S
O438 C425 1.241 . S
O439 Nd416 2.682 . S
O439 Nd417 2.414 . S
O439 C425 1.273 . S
O440 Nd416 2.410 . S
O440 C426 1.251 . S
O441 Nd417 2.424 . S
O441 C426 1.268 . S
O442 Nd417 2.500 . S
O442 C427 1.258 . S
O443 Nd417 2.492 . S
O443 C427 1.239 . S
O444 Nd417 2.487 . S
O444 C434 1.241 . S
O445 Nd416 2.414 . S
O445 Nd417 2.682 . S
O445 C434 1.273 . S
O446 Nd417 2.410 . S
O446 C435 1.251 . S
O447 Nd416 2.424 . S
O447 C435 1.268 . S
H448 C420 0.930 . S
H449 C421 0.929 . S
H450 C423 0.930 . S
H451 C424 0.929 . S
H452 C429 0.930 . S
H453 C430 0.929 . S
H454 C432 0.930 . S
H455 C433 0.929 . S
Nd456 C458 2.836 . S
Nd456 O476 2.500 . S
Nd456 O477 2.492 . S
Nd456 O478 2.487 . S
Nd456 O479 2.682 . S
Nd456 O480 2.410 . S
Nd456 O485 2.414 . S
Nd456 O487 2.424 . S
Nd457 C467 2.836 . S
Nd457 O479 2.414 . S
Nd457 O481 2.424 . S
Nd457 O482 2.500 . S
Nd457 O483 2.492 . S
Nd457 O484 2.487 . S
Nd457 O485 2.682 . S
Nd457 O486 2.410 . S
C458 Nd456 2.836 . S
C458 C459 1.498 . S
C458 O476 1.258 . S
C458 O477 1.239 . S
C459 C458 1.498 . S
C459 C460 1.366 . S
C459 C464 1.407 . S
C460 C459 1.366 . S
C460 C461 1.392 . S
C460 H488 0.930 . S
C461 C460 1.392 . S
C461 C462 1.398 . S
C461 H489 0.929 . S
C462 C461 1.398 . S
C462 C463 1.352 . S
C463 C462 1.352 . S
C463 C464 1.384 . S
C463 H490 0.930 . S
C464 C459 1.407 . S
C464 C463 1.384 . S
C464 H491 0.929 . S
C465 O478 1.241 . S
C465 O479 1.273 . S
C466 O480 1.251 . S
C466 O481 1.268 . S
C467 Nd457 2.836 . S
C467 C468 1.498 . S
C467 O482 1.258 . S
C467 O483 1.239 . S
C468 C467 1.498 . S
C468 C469 1.366 . S
C468 C473 1.407 . S
C469 C468 1.366 . S
C469 C470 1.392 . S
C469 H492 0.930 . S
C470 C469 1.392 . S
C470 C471 1.398 . S
C470 H493 0.929 . S
C471 C470 1.398 . S
C471 C472 1.352 . S
C472 C471 1.352 . S
C472 C473 1.384 . S
C472 H494 0.930 . S
C473 C468 1.407 . S
C473 C472 1.384 . S
C473 H495 0.929 . S
C474 O484 1.241 . S
C474 O485 1.273 . S
C475 O486 1.251 . S
C475 O487 1.268 . S
O476 Nd456 2.500 . S
O476 C458 1.258 . S
O477 Nd456 2.492 . S
O477 C458 1.239 . S
O478 Nd456 2.487 . S
O478 C465 1.241 . S
O479 Nd456 2.682 . S
O479 Nd457 2.414 . S
O479 C465 1.273 . S
O480 Nd456 2.410 . S
O480 C466 1.251 . S
O481 Nd457 2.424 . S
O481 C466 1.268 . S
O482 Nd457 2.500 . S
O482 C467 1.258 . S
O483 Nd457 2.492 . S
O483 C467 1.239 . S
O484 Nd457 2.487 . S
O484 C474 1.241 . S
O485 Nd456 2.414 . S
O485 Nd457 2.682 . S
O485 C474 1.273 . S
O486 Nd457 2.410 . S
O486 C475 1.251 . S
O487 Nd456 2.424 . S
O487 C475 1.268 . S
H488 C460 0.930 . S
H489 C461 0.929 . S
H490 C463 0.930 . S
H491 C464 0.929 . S
H492 C469 0.930 . S
H493 C470 0.929 . S
H494 C472 0.930 . S
H495 C473 0.929 . S
Nd496 C498 2.836 . S
Nd496 O516 2.500 . S
Nd496 O517 2.492 . S
Nd496 O518 2.487 . S
Nd496 O519 2.682 . S
Nd496 O520 2.410 . S
Nd496 O525 2.414 . S
Nd496 O527 2.424 . S
Nd497 C507 2.836 1_545 S
Nd497 O519 2.414 . S
Nd497 O521 2.424 . S
Nd497 O522 2.500 . S
Nd497 O523 2.492 1_545 S
Nd497 O524 2.487 1_455 S
Nd497 O525 2.682 . S
Nd497 O526 2.410 . S
C498 Nd496 2.836 . S
C498 C499 1.498 . S
C498 O516 1.258 . S
C498 O517 1.239 . S
C499 C498 1.498 . S
C499 C500 1.366 1_455 S
C499 C504 1.407 . S
C500 C499 1.366 1_655 S
C500 C501 1.392 . S
C500 H528 0.930 . S
C501 C500 1.392 . S
C501 C502 1.398 1_655 S
C501 H529 0.929 . S
C502 C501 1.398 1_455 S
C502 C503 1.352 . S
C503 C502 1.352 . S
C503 C504 1.384 . S
C503 H530 0.930 . S
C504 C499 1.407 . S
C504 C503 1.384 . S
C504 H531 0.929 . S
C505 O518 1.241 . S
C505 O519 1.273 . S
C506 O520 1.251 . S
C506 O521 1.268 . S
C507 Nd497 2.836 1_565 S
C507 C508 1.498 . S
C507 O522 1.258 1_565 S
C507 O523 1.239 . S
C508 C507 1.498 . S
C508 C509 1.366 . S
C508 C513 1.407 . S
C509 C508 1.366 . S
C509 C510 1.392 . S
C509 H532 0.930 . S
C510 C509 1.392 . S
C510 C511 1.398 . S
C510 H533 0.929 . S
C511 C510 1.398 . S
C511 C512 1.352 . S
C512 C511 1.352 . S
C512 C513 1.384 . S
C512 H534 0.930 . S
C513 C508 1.407 . S
C513 C512 1.384 . S
C513 H535 0.929 . S
C514 O524 1.241 . S
C514 O525 1.273 1_655 S
C515 O526 1.251 . S
C515 O527 1.268 . S
O516 Nd496 2.500 . S
O516 C498 1.258 . S
O517 Nd496 2.492 . S
O517 C498 1.239 . S
O518 Nd496 2.487 . S
O518 C505 1.241 . S
O519 Nd496 2.682 . S
O519 Nd497 2.414 . S
O519 C505 1.273 . S
O520 Nd496 2.410 . S
O520 C506 1.251 . S
O521 Nd497 2.424 . S
O521 C506 1.268 . S
O522 Nd497 2.500 . S
O522 C507 1.258 1_545 S
O523 Nd497 2.492 1_565 S
O523 C507 1.239 . S
O524 Nd497 2.487 1_655 S
O524 C514 1.241 . S
O525 Nd496 2.414 . S
O525 Nd497 2.682 . S
O525 C514 1.273 1_455 S
O526 Nd497 2.410 . S
O526 C515 1.251 . S
O527 Nd496 2.424 . S
O527 C515 1.268 . S
H528 C500 0.930 . S
H529 C501 0.929 . S
H530 C503 0.930 . S
H531 C504 0.929 . S
H532 C509 0.930 . S
H533 C510 0.929 . S
H534 C512 0.930 . S
H535 C513 0.929 . S
Nd536 C538 2.836 . S
Nd536 O556 2.500 . S
Nd536 O557 2.492 . S
Nd536 O558 2.487 . S
Nd536 O559 2.682 . S
Nd536 O560 2.410 . S
Nd536 O565 2.414 . S
Nd536 O567 2.424 . S
Nd537 C547 2.836 . S
Nd537 O559 2.414 . S
Nd537 O561 2.424 . S
Nd537 O562 2.500 . S
Nd537 O563 2.492 . S
Nd537 O564 2.487 . S
Nd537 O565 2.682 . S
Nd537 O566 2.410 . S
C538 Nd536 2.836 . S
C538 C539 1.498 . S
C538 O556 1.258 . S
C538 O557 1.239 . S
C539 C538 1.498 . S
C539 C540 1.366 . S
C539 C544 1.407 . S
C540 C539 1.366 . S
C540 C541 1.392 . S
C540 H568 0.930 . S
C541 C540 1.392 . S
C541 C542 1.398 . S
C541 H569 0.929 . S
C542 C541 1.398 . S
C542 C543 1.352 . S
C543 C542 1.352 . S
C543 C544 1.384 . S
C543 H570 0.930 . S
C544 C539 1.407 . S
C544 C543 1.384 . S
C544 H571 0.929 . S
C545 O558 1.241 . S
C545 O559 1.273 . S
C546 O560 1.251 . S
C546 O561 1.268 . S
C547 Nd537 2.836 . S
C547 C548 1.498 . S
C547 O562 1.258 . S
C547 O563 1.239 . S
C548 C547 1.498 . S
C548 C549 1.366 . S
C548 C553 1.407 . S
C549 C548 1.366 . S
C549 C550 1.392 . S
C549 H572 0.930 . S
C550 C549 1.392 . S
C550 C551 1.398 . S
C550 H573 0.929 . S
C551 C550 1.398 . S
C551 C552 1.352 . S
C552 C551 1.352 . S
C552 C553 1.384 . S
C552 H574 0.930 . S
C553 C548 1.407 . S
C553 C552 1.384 . S
C553 H575 0.929 . S
C554 O564 1.241 . S
C554 O565 1.273 . S
C555 O566 1.251 . S
C555 O567 1.268 . S
O556 Nd536 2.500 . S
O556 C538 1.258 . S
O557 Nd536 2.492 . S
O557 C538 1.239 . S
O558 Nd536 2.487 . S
O558 C545 1.241 . S
O559 Nd536 2.682 . S
O559 Nd537 2.414 . S
O559 C545 1.273 . S
O560 Nd536 2.410 . S
O560 C546 1.251 . S
O561 Nd537 2.424 . S
O561 C546 1.268 . S
O562 Nd537 2.500 . S
O562 C547 1.258 . S
O563 Nd537 2.492 . S
O563 C547 1.239 . S
O564 Nd537 2.487 . S
O564 C554 1.241 . S
O565 Nd536 2.414 . S
O565 Nd537 2.682 . S
O565 C554 1.273 . S
O566 Nd537 2.410 . S
O566 C555 1.251 . S
O567 Nd536 2.424 . S
O567 C555 1.268 . S
H568 C540 0.930 . S
H569 C541 0.929 . S
H570 C543 0.930 . S
H571 C544 0.929 . S
H572 C549 0.930 . S
H573 C550 0.929 . S
H574 C552 0.930 . S
H575 C553 0.929 . S
Nd576 C578 2.836 . S
Nd576 O596 2.500 . S
Nd576 O597 2.492 . S
Nd576 O598 2.487 . S
Nd576 O599 2.682 . S
Nd576 O600 2.410 . S
Nd576 O605 2.414 . S
Nd576 O607 2.424 . S
Nd577 C587 2.836 . S
Nd577 O599 2.414 . S
Nd577 O601 2.424 . S
Nd577 O602 2.500 . S
Nd577 O603 2.492 . S
Nd577 O604 2.487 . S
Nd577 O605 2.682 . S
Nd577 O606 2.410 . S
C578 Nd576 2.836 . S
C578 C579 1.498 . S
C578 O596 1.258 . S
C578 O597 1.239 . S
C579 C578 1.498 . S
C579 C580 1.366 . S
C579 C584 1.407 . S
C580 C579 1.366 . S
C580 C581 1.392 . S
C580 H608 0.930 . S
C581 C580 1.392 . S
C581 C582 1.398 . S
C581 H609 0.929 . S
C582 C581 1.398 . S
C582 C583 1.352 . S
C583 C582 1.352 . S
C583 C584 1.384 . S
C583 H610 0.930 1_545 S
C584 C579 1.407 . S
C584 C583 1.384 . S
C584 H611 0.929 . S
C585 O598 1.241 . S
C585 O599 1.273 . S
C586 O600 1.251 . S
C586 O601 1.268 . S
C587 Nd577 2.836 . S
C587 C588 1.498 . S
C587 O602 1.258 . S
C587 O603 1.239 . S
C588 C587 1.498 . S
C588 C589 1.366 . S
C588 C593 1.407 . S
C589 C588 1.366 . S
C589 C590 1.392 . S
C589 H612 0.930 . S
C590 C589 1.392 . S
C590 C591 1.398 . S
C590 H613 0.929 . S
C591 C590 1.398 . S
C591 C592 1.352 . S
C592 C591 1.352 . S
C592 C593 1.384 . S
C592 H614 0.930 . S
C593 C588 1.407 . S
C593 C592 1.384 . S
C593 H615 0.929 . S
C594 O604 1.241 . S
C594 O605 1.273 . S
C595 O606 1.251 . S
C595 O607 1.268 . S
O596 Nd576 2.500 . S
O596 C578 1.258 . S
O597 Nd576 2.492 . S
O597 C578 1.239 . S
O598 Nd576 2.487 . S
O598 C585 1.241 . S
O599 Nd576 2.682 . S
O599 Nd577 2.414 . S
O599 C585 1.273 . S
O600 Nd576 2.410 . S
O600 C586 1.251 . S
O601 Nd577 2.424 . S
O601 C586 1.268 . S
O602 Nd577 2.500 . S
O602 C587 1.258 . S
O603 Nd577 2.492 . S
O603 C587 1.239 . S
O604 Nd577 2.487 . S
O604 C594 1.241 . S
O605 Nd576 2.414 . S
O605 Nd577 2.682 . S
O605 C594 1.273 . S
O606 Nd577 2.410 . S
O606 C595 1.251 . S
O607 Nd576 2.424 . S
O607 C595 1.268 . S
H608 C580 0.930 . S
H609 C581 0.929 . S
H610 C583 0.930 1_565 S
H611 C584 0.929 . S
H612 C589 0.930 . S
H613 C590 0.929 . S
H614 C592 0.930 . S
H615 C593 0.929 . S
Nd616 C618 2.836 . S
Nd616 O636 2.500 . S
Nd616 O637 2.492 . S
Nd616 O638 2.487 . S
Nd616 O639 2.682 . S
Nd616 O640 2.410 . S
Nd616 O645 2.414 . S
Nd616 O647 2.424 . S
Nd617 C627 2.836 . S
Nd617 O639 2.414 . S
Nd617 O641 2.424 . S
Nd617 O642 2.500 . S
Nd617 O643 2.492 . S
Nd617 O644 2.487 . S
Nd617 O645 2.682 . S
Nd617 O646 2.410 . S
C618 Nd616 2.836 . S
C618 C619 1.498 . S
C618 O636 1.258 . S
C618 O637 1.239 . S
C619 C618 1.498 . S
C619 C620 1.366 . S
C619 C624 1.407 . S
C620 C619 1.366 . S
C620 C621 1.392 . S
C620 H648 0.930 . S
C621 C620 1.392 . S
C621 C622 1.398 . S
C621 H649 0.929 . S
C622 C621 1.398 . S
C622 C623 1.352 . S
C623 C622 1.352 . S
C623 C624 1.384 . S
C623 H650 0.930 . S
C624 C619 1.407 . S
C624 C623 1.384 . S
C624 H651 0.929 . S
C625 O638 1.241 . S
C625 O639 1.273 . S
C626 O640 1.251 . S
C626 O641 1.268 . S
C627 Nd617 2.836 . S
C627 C628 1.498 . S
C627 O642 1.258 . S
C627 O643 1.239 . S
C628 C627 1.498 . S
C628 C629 1.366 . S
C628 C633 1.407 . S
C629 C628 1.366 . S
C629 C630 1.392 . S
C629 H652 0.930 . S
C630 C629 1.392 . S
C630 C631 1.398 . S
C630 H653 0.929 . S
C631 C630 1.398 . S
C631 C632 1.352 . S
C632 C631 1.352 . S
C632 C633 1.384 . S
C632 H654 0.930 . S
C633 C628 1.407 . S
C633 C632 1.384 . S
C633 H655 0.929 . S
C634 O644 1.241 . S
C634 O645 1.273 . S
C635 O646 1.251 . S
C635 O647 1.268 . S
O636 Nd616 2.500 . S
O636 C618 1.258 . S
O637 Nd616 2.492 . S
O637 C618 1.239 . S
O638 Nd616 2.487 . S
O638 C625 1.241 . S
O639 Nd616 2.682 . S
O639 Nd617 2.414 . S
O639 C625 1.273 . S
O640 Nd616 2.410 . S
O640 C626 1.251 . S
O641 Nd617 2.424 . S
O641 C626 1.268 . S
O642 Nd617 2.500 . S
O642 C627 1.258 . S
O643 Nd617 2.492 . S
O643 C627 1.239 . S
O644 Nd617 2.487 . S
O644 C634 1.241 . S
O645 Nd616 2.414 . S
O645 Nd617 2.682 . S
O645 C634 1.273 . S
O646 Nd617 2.410 . S
O646 C635 1.251 . S
O647 Nd616 2.424 . S
O647 C635 1.268 . S
H648 C620 0.930 . S
H649 C621 0.929 . S
H650 C623 0.930 . S
H651 C624 0.929 . S
H652 C629 0.930 . S
H653 C630 0.929 . S
H654 C632 0.930 . S
H655 C633 0.929 . S
Nd656 C658 2.836 . S
Nd656 O676 2.500 . S
Nd656 O677 2.492 . S
Nd656 O678 2.487 . S
Nd656 O679 2.682 . S
Nd656 O680 2.410 . S
Nd656 O685 2.414 . S
Nd656 O687 2.424 . S
Nd657 C667 2.836 . S
Nd657 O679 2.414 . S
Nd657 O681 2.424 . S
Nd657 O682 2.500 . S
Nd657 O683 2.492 . S
Nd657 O684 2.487 . S
Nd657 O685 2.682 . S
Nd657 O686 2.410 . S
C658 Nd656 2.836 . S
C658 C659 1.498 . S
C658 O676 1.258 . S
C658 O677 1.239 . S
C659 C658 1.498 . S
C659 C660 1.366 . S
C659 C664 1.407 . S
C660 C659 1.366 . S
C660 C661 1.392 . S
C660 H688 0.930 . S
C661 C660 1.392 . S
C661 C662 1.398 . S
C661 H689 0.929 . S
C662 C661 1.398 . S
C662 C663 1.352 . S
C663 C662 1.352 . S
C663 C664 1.384 . S
C663 H690 0.930 . S
C664 C659 1.407 . S
C664 C663 1.384 . S
C664 H691 0.929 . S
C665 O678 1.241 . S
C665 O679 1.273 . S
C666 O680 1.251 . S
C666 O681 1.268 . S
C667 Nd657 2.836 . S
C667 C668 1.498 . S
C667 O682 1.258 . S
C667 O683 1.239 . S
C668 C667 1.498 . S
C668 C669 1.366 . S
C668 C673 1.407 . S
C669 C668 1.366 . S
C669 C670 1.392 . S
C669 H692 0.930 . S
C670 C669 1.392 . S
C670 C671 1.398 . S
C670 H693 0.929 . S
C671 C670 1.398 . S
C671 C672 1.352 . S
C672 C671 1.352 . S
C672 C673 1.384 . S
C672 H694 0.930 . S
C673 C668 1.407 . S
C673 C672 1.384 . S
C673 H695 0.929 . S
C674 O684 1.241 . S
C674 O685 1.273 . S
C675 O686 1.251 . S
C675 O687 1.268 . S
O676 Nd656 2.500 . S
O676 C658 1.258 . S
O677 Nd656 2.492 . S
O677 C658 1.239 . S
O678 Nd656 2.487 . S
O678 C665 1.241 . S
O679 Nd656 2.682 . S
O679 Nd657 2.414 . S
O679 C665 1.273 . S
O680 Nd656 2.410 . S
O680 C666 1.251 . S
O681 Nd657 2.424 . S
O681 C666 1.268 . S
O682 Nd657 2.500 . S
O682 C667 1.258 . S
O683 Nd657 2.492 . S
O683 C667 1.239 . S
O684 Nd657 2.487 . S
O684 C674 1.241 . S
O685 Nd656 2.414 . S
O685 Nd657 2.682 . S
O685 C674 1.273 . S
O686 Nd657 2.410 . S
O686 C675 1.251 . S
O687 Nd656 2.424 . S
O687 C675 1.268 . S
H688 C660 0.930 . S
H689 C661 0.929 . S
H690 C663 0.930 . S
H691 C664 0.929 . S
H692 C669 0.930 . S
H693 C670 0.929 . S
H694 C672 0.930 . S
H695 C673 0.929 . S
Nd696 C698 2.836 . S
Nd696 O716 2.500 . S
Nd696 O717 2.492 . S
Nd696 O718 2.487 . S
Nd696 O719 2.682 . S
Nd696 O720 2.410 . S
Nd696 O725 2.414 . S
Nd696 O727 2.424 . S
Nd697 C707 2.836 . S
Nd697 O719 2.414 . S
Nd697 O721 2.424 . S
Nd697 O722 2.500 . S
Nd697 O723 2.492 . S
Nd697 O724 2.487 . S
Nd697 O725 2.682 . S
Nd697 O726 2.410 . S
C698 Nd696 2.836 . S
C698 C699 1.498 . S
C698 O716 1.258 . S
C698 O717 1.239 . S
C699 C698 1.498 . S
C699 C700 1.366 . S
C699 C704 1.407 . S
C700 C699 1.366 . S
C700 C701 1.392 . S
C700 H728 0.930 . S
C701 C700 1.392 . S
C701 C702 1.398 . S
C701 H729 0.929 . S
C702 C701 1.398 . S
C702 C703 1.352 . S
C703 C702 1.352 . S
C703 C704 1.384 . S
C703 H730 0.930 . S
C704 C699 1.407 . S
C704 C703 1.384 . S
C704 H731 0.929 . S
C705 O718 1.241 . S
C705 O719 1.273 . S
C706 O720 1.251 . S
C706 O721 1.268 . S
C707 Nd697 2.836 . S
C707 C708 1.498 . S
C707 O722 1.258 . S
C707 O723 1.239 . S
C708 C707 1.498 . S
C708 C709 1.366 . S
C708 C713 1.407 . S
C709 C708 1.366 . S
C709 C710 1.392 . S
C709 H732 0.930 . S
C710 C709 1.392 . S
C710 C711 1.398 . S
C710 H733 0.929 . S
C711 C710 1.398 . S
C711 C712 1.352 . S
C712 C711 1.352 . S
C712 C713 1.384 . S
C712 H734 0.930 . S
C713 C708 1.407 . S
C713 C712 1.384 . S
C713 H735 0.929 . S
C714 O724 1.241 . S
C714 O725 1.273 . S
C715 O726 1.251 . S
C715 O727 1.268 . S
O716 Nd696 2.500 . S
O716 C698 1.258 . S
O717 Nd696 2.492 . S
O717 C698 1.239 . S
O718 Nd696 2.487 . S
O718 C705 1.241 . S
O719 Nd696 2.682 . S
O719 Nd697 2.414 . S
O719 C705 1.273 . S
O720 Nd696 2.410 . S
O720 C706 1.251 . S
O721 Nd697 2.424 . S
O721 C706 1.268 . S
O722 Nd697 2.500 . S
O722 C707 1.258 . S
O723 Nd697 2.492 . S
O723 C707 1.239 . S
O724 Nd697 2.487 . S
O724 C714 1.241 . S
O725 Nd696 2.414 . S
O725 Nd697 2.682 . S
O725 C714 1.273 . S
O726 Nd697 2.410 . S
O726 C715 1.251 . S
O727 Nd696 2.424 . S
O727 C715 1.268 . S
H728 C700 0.930 . S
H729 C701 0.929 . S
H730 C703 0.930 . S
H731 C704 0.929 . S
H732 C709 0.930 . S
H733 C710 0.929 . S
H734 C712 0.930 . S
H735 C713 0.929 . S
Nd736 C738 2.836 . S
Nd736 O756 2.500 . S
Nd736 O757 2.492 . S
Nd736 O758 2.487 1_655 S
Nd736 O759 2.682 1_655 S
Nd736 O760 2.410 . S
Nd736 O765 2.414 1_655 S
Nd736 O767 2.424 1_655 S
Nd737 C747 2.836 . S
Nd737 O759 2.414 . S
Nd737 O761 2.424 . S
Nd737 O762 2.500 . S
Nd737 O763 2.492 . S
Nd737 O764 2.487 . S
Nd737 O765 2.682 . S
Nd737 O766 2.410 . S
C738 Nd736 2.836 . S
C738 C739 1.498 . S
C738 O756 1.258 . S
C738 O757 1.239 . S
C739 C738 1.498 . S
C739 C740 1.366 . S
C739 C744 1.407 . S
C740 C739 1.366 . S
C740 C741 1.392 . S
C740 H768 0.930 . S
C741 C740 1.392 . S
C741 C742 1.398 . S
C741 H769 0.929 . S
C742 C741 1.398 . S
C742 C743 1.352 . S
C743 C742 1.352 . S
C743 C744 1.384 . S
C743 H770 0.930 . S
C744 C739 1.407 . S
C744 C743 1.384 . S
C744 H771 0.929 . S
C745 O758 1.241 . S
C745 O759 1.273 . S
C746 O760 1.251 1_455 S
C746 O761 1.268 . S
C747 Nd737 2.836 . S
C747 C748 1.498 . S
C747 O762 1.258 . S
C747 O763 1.239 . S
C748 C747 1.498 . S
C748 C749 1.366 . S
C748 C753 1.407 . S
C749 C748 1.366 . S
C749 C750 1.392 . S
C749 H772 0.930 . S
C750 C749 1.392 . S
C750 C751 1.398 . S
C750 H773 0.929 . S
C751 C750 1.398 . S
C751 C752 1.352 . S
C752 C751 1.352 . S
C752 C753 1.384 . S
C752 H774 0.930 . S
C753 C748 1.407 . S
C753 C752 1.384 . S
C753 H775 0.929 . S
C754 O764 1.241 . S
C754 O765 1.273 . S
C755 O766 1.251 . S
C755 O767 1.268 . S
O756 Nd736 2.500 . S
O756 C738 1.258 . S
O757 Nd736 2.492 . S
O757 C738 1.239 . S
O758 Nd736 2.487 1_455 S
O758 C745 1.241 . S
O759 Nd736 2.682 1_455 S
O759 Nd737 2.414 . S
O759 C745 1.273 . S
O760 Nd736 2.410 . S
O760 C746 1.251 1_655 S
O761 Nd737 2.424 . S
O761 C746 1.268 . S
O762 Nd737 2.500 . S
O762 C747 1.258 . S
O763 Nd737 2.492 . S
O763 C747 1.239 . S
O764 Nd737 2.487 . S
O764 C754 1.241 . S
O765 Nd736 2.414 1_455 S
O765 Nd737 2.682 . S
O765 C754 1.273 . S
O766 Nd737 2.410 . S
O766 C755 1.251 . S
O767 Nd736 2.424 1_455 S
O767 C755 1.268 . S
H768 C740 0.930 . S
H769 C741 0.929 . S
H770 C743 0.930 . S
H771 C744 0.929 . S
H772 C749 0.930 . S
H773 C750 0.929 . S
H774 C752 0.930 . S
H775 C753 0.929 . S
Nd776 C778 2.836 . S
Nd776 O796 2.500 . S
Nd776 O797 2.492 . S
Nd776 O798 2.487 . S
Nd776 O799 2.682 . S
Nd776 O800 2.410 . S
Nd776 O805 2.414 . S
Nd776 O807 2.424 . S
Nd777 C787 2.836 . S
Nd777 O799 2.414 . S
Nd777 O801 2.424 . S
Nd777 O802 2.500 . S
Nd777 O803 2.492 . S
Nd777 O804 2.487 . S
Nd777 O805 2.682 . S
Nd777 O806 2.410 . S
C778 Nd776 2.836 . S
C778 C779 1.498 . S
C778 O796 1.258 . S
C778 O797 1.239 . S
C779 C778 1.498 . S
C779 C780 1.366 . S
C779 C784 1.407 . S
C780 C779 1.366 . S
C780 C781 1.392 . S
C780 H808 0.930 . S
C781 C780 1.392 . S
C781 C782 1.398 . S
C781 H809 0.929 . S
C782 C781 1.398 . S
C782 C783 1.352 . S
C783 C782 1.352 . S
C783 C784 1.384 . S
C783 H810 0.930 . S
C784 C779 1.407 . S
C784 C783 1.384 . S
C784 H811 0.929 . S
C785 O798 1.241 . S
C785 O799 1.273 . S
C786 O800 1.251 . S
C786 O801 1.268 . S
C787 Nd777 2.836 . S
C787 C788 1.498 . S
C787 O802 1.258 . S
C787 O803 1.239 . S
C788 C787 1.498 . S
C788 C789 1.366 . S
C788 C793 1.407 . S
C789 C788 1.366 . S
C789 C790 1.392 . S
C789 H812 0.930 . S
C790 C789 1.392 . S
C790 C791 1.398 . S
C790 H813 0.929 . S
C791 C790 1.398 . S
C791 C792 1.352 . S
C792 C791 1.352 . S
C792 C793 1.384 . S
C792 H814 0.930 . S
C793 C788 1.407 . S
C793 C792 1.384 . S
C793 H815 0.929 . S
C794 O804 1.241 . S
C794 O805 1.273 . S
C795 O806 1.251 . S
C795 O807 1.268 . S
O796 Nd776 2.500 . S
O796 C778 1.258 . S
O797 Nd776 2.492 . S
O797 C778 1.239 . S
O798 Nd776 2.487 . S
O798 C785 1.241 . S
O799 Nd776 2.682 . S
O799 Nd777 2.414 . S
O799 C785 1.273 . S
O800 Nd776 2.410 . S
O800 C786 1.251 . S
O801 Nd777 2.424 . S
O801 C786 1.268 . S
O802 Nd777 2.500 . S
O802 C787 1.258 . S
O803 Nd777 2.492 . S
O803 C787 1.239 . S
O804 Nd777 2.487 . S
O804 C794 1.241 . S
O805 Nd776 2.414 . S
O805 Nd777 2.682 . S
O805 C794 1.273 . S
O806 Nd777 2.410 . S
O806 C795 1.251 . S
O807 Nd776 2.424 . S
O807 C795 1.268 . S
H808 C780 0.930 . S
H809 C781 0.929 . S
H810 C783 0.930 . S
H811 C784 0.929 . S
H812 C789 0.930 . S
H813 C790 0.929 . S
H814 C792 0.930 . S
H815 C793 0.929 . S
Nd816 C818 2.836 . S
Nd816 O836 2.500 . S
Nd816 O837 2.492 . S
Nd816 O838 2.487 . S
Nd816 O839 2.682 . S
Nd816 O840 2.410 . S
Nd816 O845 2.414 . S
Nd816 O847 2.424 . S
Nd817 C827 2.836 . S
Nd817 O839 2.414 . S
Nd817 O841 2.424 . S
Nd817 O842 2.500 . S
Nd817 O843 2.492 . S
Nd817 O844 2.487 . S
Nd817 O845 2.682 . S
Nd817 O846 2.410 . S
C818 Nd816 2.836 . S
C818 C819 1.498 . S
C818 O836 1.258 . S
C818 O837 1.239 . S
C819 C818 1.498 . S
C819 C820 1.366 . S
C819 C824 1.407 . S
C820 C819 1.366 . S
C820 C821 1.392 . S
C820 H848 0.930 . S
C821 C820 1.392 . S
C821 C822 1.398 . S
C821 H849 0.929 . S
C822 C821 1.398 . S
C822 C823 1.352 . S
C823 C822 1.352 . S
C823 C824 1.384 . S
C823 H850 0.930 . S
C824 C819 1.407 . S
C824 C823 1.384 . S
C824 H851 0.929 . S
C825 O838 1.241 . S
C825 O839 1.273 . S
C826 O840 1.251 . S
C826 O841 1.268 . S
C827 Nd817 2.836 . S
C827 C828 1.498 . S
C827 O842 1.258 . S
C827 O843 1.239 . S
C828 C827 1.498 . S
C828 C829 1.366 . S
C828 C833 1.407 . S
C829 C828 1.366 . S
C829 C830 1.392 . S
C829 H852 0.930 . S
C830 C829 1.392 . S
C830 C831 1.398 . S
C830 H853 0.929 . S
C831 C830 1.398 . S
C831 C832 1.352 . S
C832 C831 1.352 . S
C832 C833 1.384 . S
C832 H854 0.930 . S
C833 C828 1.407 . S
C833 C832 1.384 . S
C833 H855 0.929 . S
C834 O844 1.241 . S
C834 O845 1.273 . S
C835 O846 1.251 . S
C835 O847 1.268 . S
O836 Nd816 2.500 . S
O836 C818 1.258 . S
O837 Nd816 2.492 . S
O837 C818 1.239 . S
O838 Nd816 2.487 . S
O838 C825 1.241 . S
O839 Nd816 2.682 . S
O839 Nd817 2.414 . S
O839 C825 1.273 . S
O840 Nd816 2.410 . S
O840 C826 1.251 . S
O841 Nd817 2.424 . S
O841 C826 1.268 . S
O842 Nd817 2.500 . S
O842 C827 1.258 . S
O843 Nd817 2.492 . S
O843 C827 1.239 . S
O844 Nd817 2.487 . S
O844 C834 1.241 . S
O845 Nd816 2.414 . S
O845 Nd817 2.682 . S
O845 C834 1.273 . S
O846 Nd817 2.410 . S
O846 C835 1.251 . S
O847 Nd816 2.424 . S
O847 C835 1.268 . S
H848 C820 0.930 . S
H849 C821 0.929 . S
H850 C823 0.930 . S
H851 C824 0.929 . S
H852 C829 0.930 . S
H853 C830 0.929 . S
H854 C832 0.930 . S
H855 C833 0.929 . S
Nd856 C858 2.836 . S
Nd856 O876 2.500 . S
Nd856 O877 2.492 . S
Nd856 O878 2.487 . S
Nd856 O879 2.682 . S
Nd856 O880 2.410 . S
Nd856 O885 2.414 . S
Nd856 O887 2.424 . S
Nd857 C867 2.836 . S
Nd857 O879 2.414 . S
Nd857 O881 2.424 . S
Nd857 O882 2.500 . S
Nd857 O883 2.492 . S
Nd857 O884 2.487 . S
Nd857 O885 2.682 . S
Nd857 O886 2.410 . S
C858 Nd856 2.836 . S
C858 C859 1.498 . S
C858 O876 1.258 . S
C858 O877 1.239 . S
C859 C858 1.498 . S
C859 C860 1.366 . S
C859 C864 1.407 . S
C860 C859 1.366 . S
C860 C861 1.392 . S
C860 H888 0.930 . S
C861 C860 1.392 . S
C861 C862 1.398 . S
C861 H889 0.929 . S
C862 C861 1.398 . S
C862 C863 1.352 . S
C863 C862 1.352 . S
C863 C864 1.384 . S
C863 H890 0.930 . S
C864 C859 1.407 . S
C864 C863 1.384 . S
C864 H891 0.929 . S
C865 O878 1.241 . S
C865 O879 1.273 . S
C866 O880 1.251 . S
C866 O881 1.268 . S
C867 Nd857 2.836 . S
C867 C868 1.498 . S
C867 O882 1.258 . S
C867 O883 1.239 . S
C868 C867 1.498 . S
C868 C869 1.366 . S
C868 C873 1.407 . S
C869 C868 1.366 . S
C869 C870 1.392 . S
C869 H892 0.930 . S
C870 C869 1.392 . S
C870 C871 1.398 . S
C870 H893 0.929 . S
C871 C870 1.398 . S
C871 C872 1.352 . S
C872 C871 1.352 . S
C872 C873 1.384 . S
C872 H894 0.930 . S
C873 C868 1.407 . S
C873 C872 1.384 . S
C873 H895 0.929 . S
C874 O884 1.241 . S
C874 O885 1.273 . S
C875 O886 1.251 . S
C875 O887 1.268 . S
O876 Nd856 2.500 . S
O876 C858 1.258 . S
O877 Nd856 2.492 . S
O877 C858 1.239 . S
O878 Nd856 2.487 . S
O878 C865 1.241 . S
O879 Nd856 2.682 . S
O879 Nd857 2.414 . S
O879 C865 1.273 . S
O880 Nd856 2.410 . S
O880 C866 1.251 . S
O881 Nd857 2.424 . S
O881 C866 1.268 . S
O882 Nd857 2.500 . S
O882 C867 1.258 . S
O883 Nd857 2.492 . S
O883 C867 1.239 . S
O884 Nd857 2.487 . S
O884 C874 1.241 . S
O885 Nd856 2.414 . S
O885 Nd857 2.682 . S
O885 C874 1.273 . S
O886 Nd857 2.410 . S
O886 C875 1.251 . S
O887 Nd856 2.424 . S
O887 C875 1.268 . S
H888 C860 0.930 . S
H889 C861 0.929 . S
H890 C863 0.930 . S
H891 C864 0.929 . S
H892 C869 0.930 . S
H893 C870 0.929 . S
H894 C872 0.930 . S
H895 C873 0.929 . S
Nd896 C898 2.836 . S
Nd896 O916 2.500 . S
Nd896 O917 2.492 . S
Nd896 O918 2.487 . S
Nd896 O919 2.682 . S
Nd896 O920 2.410 . S
Nd896 O925 2.414 . S
Nd896 O927 2.424 . S
Nd897 C907 2.836 . S
Nd897 O919 2.414 . S
Nd897 O921 2.424 . S
Nd897 O922 2.500 . S
Nd897 O923 2.492 . S
Nd897 O924 2.487 . S
Nd897 O925 2.682 . S
Nd897 O926 2.410 . S
C898 Nd896 2.836 . S
C898 C899 1.498 . S
C898 O916 1.258 . S
C898 O917 1.239 . S
C899 C898 1.498 . S
C899 C900 1.366 . S
C899 C904 1.407 . S
C900 C899 1.366 . S
C900 C901 1.392 . S
C900 H928 0.930 . S
C901 C900 1.392 . S
C901 C902 1.398 . S
C901 H929 0.929 . S
C902 C901 1.398 . S
C902 C903 1.352 . S
C903 C902 1.352 . S
C903 C904 1.384 . S
C903 H930 0.930 . S
C904 C899 1.407 . S
C904 C903 1.384 . S
C904 H931 0.929 . S
C905 O918 1.241 . S
C905 O919 1.273 . S
C906 O920 1.251 . S
C906 O921 1.268 . S
C907 Nd897 2.836 . S
C907 C908 1.498 . S
C907 O922 1.258 . S
C907 O923 1.239 . S
C908 C907 1.498 . S
C908 C909 1.366 . S
C908 C913 1.407 . S
C909 C908 1.366 . S
C909 C910 1.392 . S
C909 H932 0.930 . S
C910 C909 1.392 . S
C910 C911 1.398 . S
C910 H933 0.929 . S
C911 C910 1.398 . S
C911 C912 1.352 . S
C912 C911 1.352 . S
C912 C913 1.384 . S
C912 H934 0.930 . S
C913 C908 1.407 . S
C913 C912 1.384 . S
C913 H935 0.929 . S
C914 O924 1.241 . S
C914 O925 1.273 . S
C915 O926 1.251 . S
C915 O927 1.268 . S
O916 Nd896 2.500 . S
O916 C898 1.258 . S
O917 Nd896 2.492 . S
O917 C898 1.239 . S
O918 Nd896 2.487 . S
O918 C905 1.241 . S
O919 Nd896 2.682 . S
O919 Nd897 2.414 . S
O919 C905 1.273 . S
O920 Nd896 2.410 . S
O920 C906 1.251 . S
O921 Nd897 2.424 . S
O921 C906 1.268 . S
O922 Nd897 2.500 . S
O922 C907 1.258 . S
O923 Nd897 2.492 . S
O923 C907 1.239 . S
O924 Nd897 2.487 . S
O924 C914 1.241 . S
O925 Nd896 2.414 . S
O925 Nd897 2.682 . S
O925 C914 1.273 . S
O926 Nd897 2.410 . S
O926 C915 1.251 . S
O927 Nd896 2.424 . S
O927 C915 1.268 . S
H928 C900 0.930 . S
H929 C901 0.929 . S
H930 C903 0.930 . S
H931 C904 0.929 . S
H932 C909 0.930 . S
H933 C910 0.929 . S
H934 C912 0.930 . S
H935 C913 0.929 . S
Nd936 C938 2.836 . S
Nd936 O956 2.500 . S
Nd936 O957 2.492 . S
Nd936 O958 2.487 . S
Nd936 O959 2.682 . S
Nd936 O960 2.410 . S
Nd936 O965 2.414 . S
Nd936 O967 2.424 . S
Nd937 C947 2.836 . S
Nd937 O959 2.414 1_655 S
Nd937 O961 2.424 1_655 S
Nd937 O962 2.500 . S
Nd937 O963 2.492 . S
Nd937 O964 2.487 . S
Nd937 O965 2.682 1_655 S
Nd937 O966 2.410 1_655 S
C938 Nd936 2.836 . S
C938 C939 1.498 . S
C938 O956 1.258 . S
C938 O957 1.239 . S
C939 C938 1.498 . S
C939 C940 1.366 . S
C939 C944 1.407 . S
C940 C939 1.366 . S
C940 C941 1.392 . S
C940 H968 0.930 . S
C941 C940 1.392 . S
C941 C942 1.398 . S
C941 H969 0.929 1_554 S
C942 C941 1.398 . S
C942 C943 1.352 . S
C943 C942 1.352 . S
C943 C944 1.384 . S
C943 H970 0.930 . S
C944 C939 1.407 . S
C944 C943 1.384 . S
C944 H971 0.929 . S
C945 O958 1.241 . S
C945 O959 1.273 . S
C946 O960 1.251 . S
C946 O961 1.268 . S
C947 Nd937 2.836 . S
C947 C948 1.498 . S
C947 O962 1.258 . S
C947 O963 1.239 . S
C948 C947 1.498 . S
C948 C949 1.366 . S
C948 C953 1.407 . S
C949 C948 1.366 . S
C949 C950 1.392 . S
C949 H972 0.930 . S
C950 C949 1.392 . S
C950 C951 1.398 . S
C950 H973 0.929 . S
C951 C950 1.398 . S
C951 C952 1.352 . S
C952 C951 1.352 . S
C952 C953 1.384 . S
C952 H974 0.930 . S
C953 C948 1.407 . S
C953 C952 1.384 . S
C953 H975 0.929 . S
C954 O964 1.241 1_455 S
C954 O965 1.273 . S
C955 O966 1.251 . S
C955 O967 1.268 . S
O956 Nd936 2.500 . S
O956 C938 1.258 . S
O957 Nd936 2.492 . S
O957 C938 1.239 . S
O958 Nd936 2.487 . S
O958 C945 1.241 . S
O959 Nd936 2.682 . S
O959 Nd937 2.414 1_455 S
O959 C945 1.273 . S
O960 Nd936 2.410 . S
O960 C946 1.251 . S
O961 Nd937 2.424 1_455 S
O961 C946 1.268 . S
O962 Nd937 2.500 . S
O962 C947 1.258 . S
O963 Nd937 2.492 . S
O963 C947 1.239 . S
O964 Nd937 2.487 . S
O964 C954 1.241 1_655 S
O965 Nd936 2.414 . S
O965 Nd937 2.682 1_455 S
O965 C954 1.273 . S
O966 Nd937 2.410 1_455 S
O966 C955 1.251 . S
O967 Nd936 2.424 . S
O967 C955 1.268 . S
H968 C940 0.930 . S
H969 C941 0.929 1_556 S
H970 C943 0.930 . S
H971 C944 0.929 . S
H972 C949 0.930 . S
H973 C950 0.929 . S
H974 C952 0.930 . S
H975 C953 0.929 . S
H976 C994 0.951 . S
H977 C996 0.951 . S
H978 C998 0.950 . S
H979 C999 0.950 . S
H980 C1001 0.950 . S
H981 C1004 0.950 . S
H982 C1005 0.950 . S
H983 C1007 0.950 . S
H984 C1008 0.950 . S
H985 C1009 0.951 . S
H986 C1011 0.951 1_556 S
H987 C1013 0.950 . S
H988 C1014 0.950 . S
H989 C1016 0.960 . S
H990 C1019 0.996 . S
H991 C1020 0.950 . S
H992 C1022 0.950 . S
H993 C1023 0.950 1_455 S
C994 H976 0.951 . S
C994 C995 1.366 . S
C994 C996 1.388 . S
C995 C994 1.366 . S
C995 C999 1.385 . S
C996 H977 0.951 . S
C996 C994 1.388 . S
C996 C997 1.366 . S
C997 C996 1.366 . S
C997 C998 1.414 . S
C997 C1000 1.499 . S
C998 H978 0.950 . S
C998 C997 1.414 . S
C998 C999 1.374 . S
C999 H979 0.950 . S
C999 C995 1.385 . S
C999 C998 1.374 . S
C1000 C997 1.499 . S
C1000 C1001 1.373 . S
C1000 C1002 1.389 . S
C1001 H980 0.950 . S
C1001 C1000 1.373 . S
C1001 C1017 1.377 . S
C1002 C1000 1.389 . S
C1002 C1003 1.524 . S
C1002 C1016 1.367 1_556 S
C1003 C1002 1.524 . S
C1003 C1004 1.397 . S
C1003 C1008 1.363 1_556 S
C1004 H981 0.950 . S
C1004 C1003 1.397 . S
C1004 C1005 1.334 . S
C1005 H982 0.950 . S
C1005 C1004 1.334 . S
C1005 C1006 1.325 . S
C1006 C1005 1.325 . S
C1006 C1007 1.485 1_556 S
C1006 H1025 0.917 1_556 S
C1007 H983 0.950 . S
C1007 C1006 1.485 1_554 S
C1007 C1008 1.415 . S
C1008 H984 0.950 . S
C1008 C1003 1.363 1_554 S
C1008 C1007 1.415 . S
C1009 H985 0.951 . S
C1009 C1010 1.366 . S
C1009 C1011 1.388 . S
C1010 C1009 1.366 . S
C1010 C1014 1.385 . S
C1011 H986 0.951 1_554 S
C1011 C1009 1.388 . S
C1011 C1012 1.366 . S
C1012 C1011 1.366 . S
C1012 C1013 1.414 . S
C1012 C1015 1.499 1_554 S
C1013 H987 0.950 . S
C1013 C1012 1.414 . S
C1013 C1014 1.374 . S
C1014 H988 0.950 . S
C1014 C1010 1.385 . S
C1014 C1013 1.374 . S
C1015 C1012 1.499 1_556 S
C1015 C1016 1.373 1_556 S
C1015 C1017 1.389 . S
C1016 H989 0.960 . S
C1016 C1002 1.367 1_554 S
C1016 C1015 1.373 1_554 S
C1017 C1001 1.377 . S
C1017 C1015 1.389 . S
C1017 C1018 1.524 . S
C1018 C1017 1.524 . S
C1018 C1019 1.397 1_455 S
C1018 C1023 1.363 1_455 S
C1019 H990 0.996 . S
C1019 C1018 1.397 1_655 S
C1019 C1020 1.334 . S
C1020 H991 0.950 . S
C1020 C1019 1.334 . S
C1020 C1021 1.287 . S
C1021 C1020 1.287 . S
C1021 C1022 1.524 . S
C1021 H1024 0.999 . S
C1022 H992 0.950 . S
C1022 C1021 1.524 . S
C1022 C1023 1.415 . S
C1023 H993 0.950 1_655 S
C1023 C1018 1.363 1_655 S
C1023 C1022 1.415 . S
H1024 C1021 0.999 . S
H1025 C1006 0.917 1_554 S
H1026 C1044 0.951 . S
H1027 C1046 0.951 . S
H1028 C1048 0.950 . S
H1029 C1049 0.950 . S
H1030 C1051 0.950 . S
H1031 C1054 0.950 . S
H1032 C1055 0.950 . S
H1033 C1057 0.950 . S
H1034 C1058 0.950 . S
H1035 C1059 0.951 . S
H1036 C1061 0.951 . S
H1037 C1063 0.950 . S
H1038 C1064 0.950 . S
H1039 C1066 0.950 . S
H1040 C1069 0.950 . S
H1041 C1070 0.950 . S
H1042 C1072 0.950 . S
H1043 C1073 0.950 . S
C1044 H1026 0.951 . S
C1044 C1045 1.366 . S
C1044 C1046 1.388 . S
C1045 C1044 1.366 . S
C1045 C1049 1.385 . S
C1046 H1027 0.951 . S
C1046 C1044 1.388 . S
C1046 C1047 1.366 . S
C1047 C1046 1.366 . S
C1047 C1048 1.414 . S
C1047 C1050 1.499 . S
C1048 H1028 0.950 . S
C1048 C1047 1.414 . S
C1048 C1049 1.374 . S
C1049 H1029 0.950 . S
C1049 C1045 1.385 . S
C1049 C1048 1.374 . S
C1050 C1047 1.499 . S
C1050 C1051 1.373 . S
C1050 C1052 1.389 . S
C1051 H1030 0.950 . S
C1051 C1050 1.373 . S
C1051 C1067 1.377 . S
C1052 C1050 1.389 . S
C1052 C1053 1.524 . S
C1052 C1066 1.377 . S
C1053 C1052 1.524 . S
C1053 C1054 1.397 . S
C1053 C1058 1.363 . S
C1054 H1031 0.950 . S
C1054 C1053 1.397 . S
C1054 C1055 1.334 . S
C1055 H1032 0.950 . S
C1055 C1054 1.334 . S
C1055 C1056 1.287 . S
C1056 C1055 1.287 . S
C1056 C1057 1.524 . S
C1056 H1075 0.913 . S
C1057 H1033 0.950 . S
C1057 C1056 1.524 . S
C1057 C1058 1.415 . S
C1058 H1034 0.950 . S
C1058 C1053 1.363 . S
C1058 C1057 1.415 . S
C1059 H1035 0.951 . S
C1059 C1060 1.366 . S
C1059 C1061 1.388 . S
C1060 C1059 1.366 . S
C1060 C1064 1.385 . S
C1061 H1036 0.951 . S
C1061 C1059 1.388 . S
C1061 C1062 1.366 . S
C1062 C1061 1.366 . S
C1062 C1063 1.414 . S
C1062 C1065 1.499 . S
C1063 H1037 0.950 . S
C1063 C1062 1.414 . S
C1063 C1064 1.374 . S
C1064 H1038 0.950 . S
C1064 C1060 1.385 . S
C1064 C1063 1.374 . S
C1065 C1062 1.499 . S
C1065 C1066 1.373 . S
C1065 C1067 1.389 . S
C1066 H1039 0.950 . S
C1066 C1052 1.377 . S
C1066 C1065 1.373 . S
C1067 C1051 1.377 . S
C1067 C1065 1.389 . S
C1067 C1068 1.524 . S
C1068 C1067 1.524 . S
C1068 C1069 1.397 . S
C1068 C1073 1.363 . S
C1069 H1040 0.950 . S
C1069 C1068 1.397 . S
C1069 C1070 1.334 . S
C1070 H1041 0.950 . S
C1070 C1069 1.334 . S
C1070 C1071 1.287 . S
C1071 C1070 1.287 . S
C1071 C1072 1.524 . S
C1071 H1074 0.999 . S
C1072 H1042 0.950 . S
C1072 C1071 1.524 . S
C1072 C1073 1.415 . S
C1073 H1043 0.950 . S
C1073 C1068 1.363 . S
C1073 C1072 1.415 . S
H1074 C1071 0.999 . S
H1075 C1056 0.913 . S
H1076 C1094 0.951 . S
H1077 C1096 0.951 . S
H1078 C1098 0.950 . S
H1079 C1099 0.950 . S
H1080 C1101 0.950 . S
H1081 C1104 0.950 . S
H1082 C1105 0.950 . S
H1083 C1107 0.950 . S
H1084 C1108 0.950 . S
H1085 C1109 0.951 . S
H1086 C1111 0.951 . S
H1087 C1113 0.950 . S
H1088 C1114 0.950 . S
H1089 C1116 0.950 . S
H1090 C1119 0.950 . S
H1091 C1120 0.950 . S
H1092 C1122 0.950 . S
H1093 C1123 0.950 . S
C1094 H1076 0.951 . S
C1094 C1095 1.366 . S
C1094 C1096 1.388 . S
C1095 C1094 1.366 . S
C1095 C1099 1.385 . S
C1096 H1077 0.951 . S
C1096 C1094 1.388 . S
C1096 C1097 1.366 . S
C1097 C1096 1.366 . S
C1097 C1098 1.414 . S
C1097 C1100 1.499 . S
C1098 H1078 0.950 . S
C1098 C1097 1.414 . S
C1098 C1099 1.374 . S
C1099 H1079 0.950 . S
C1099 C1095 1.385 . S
C1099 C1098 1.374 . S
C1100 C1097 1.499 . S
C1100 C1101 1.373 . S
C1100 C1102 1.389 . S
C1101 H1080 0.950 . S
C1101 C1100 1.373 . S
C1101 C1117 1.377 . S
C1102 C1100 1.389 . S
C1102 C1103 1.524 . S
C1102 C1116 1.377 . S
C1103 C1102 1.524 . S
C1103 C1104 1.397 . S
C1103 C1108 1.363 . S
C1104 H1081 0.950 . S
C1104 C1103 1.397 . S
C1104 C1105 1.334 . S
C1105 H1082 0.950 . S
C1105 C1104 1.334 . S
C1105 C1106 1.287 . S
C1106 C1105 1.287 . S
C1106 C1107 1.524 . S
C1106 H1125 0.913 . S
C1107 H1083 0.950 . S
C1107 C1106 1.524 . S
C1107 C1108 1.415 . S
C1108 H1084 0.950 . S
C1108 C1103 1.363 . S
C1108 C1107 1.415 . S
C1109 H1085 0.951 . S
C1109 C1110 1.366 . S
C1109 C1111 1.388 1_545 S
C1110 C1109 1.366 . S
C1110 C1114 1.385 1_545 S
C1111 H1086 0.951 . S
C1111 C1109 1.388 1_565 S
C1111 C1112 1.366 . S
C1112 C1111 1.366 . S
C1112 C1113 1.414 . S
C1112 C1115 1.499 . S
C1113 H1087 0.950 . S
C1113 C1112 1.414 . S
C1113 C1114 1.374 . S
C1114 H1088 0.950 . S
C1114 C1110 1.385 1_565 S
C1114 C1113 1.374 . S
C1115 C1112 1.499 . S
C1115 C1116 1.373 . S
C1115 C1117 1.389 . S
C1116 H1089 0.950 . S
C1116 C1102 1.377 . S
C1116 C1115 1.373 . S
C1117 C1101 1.377 . S
C1117 C1115 1.389 . S
C1117 C1118 1.524 . S
C1118 C1117 1.524 . S
C1118 C1119 1.397 . S
C1118 C1123 1.363 . S
C1119 H1090 0.950 . S
C1119 C1118 1.397 . S
C1119 C1120 1.334 . S
C1120 H1091 0.950 . S
C1120 C1119 1.334 . S
C1120 C1121 1.287 . S
C1121 C1120 1.287 . S
C1121 C1122 1.524 . S
C1121 H1124 0.999 . S
C1122 H1092 0.950 . S
C1122 C1121 1.524 . S
C1122 C1123 1.415 . S
C1123 H1093 0.950 . S
C1123 C1118 1.363 . S
C1123 C1122 1.415 . S
H1124 C1121 0.999 . S
H1125 C1106 0.913 . S
H1126 C1144 0.951 . S
H1127 C1146 0.951 . S
H1128 C1148 0.950 . S
H1129 C1149 0.950 . S
H1130 C1151 0.950 . S
H1131 C1154 0.950 . S
H1132 C1155 0.950 . S
H1133 C1157 0.950 . S
H1134 C1158 0.950 . S
H1135 C1159 0.951 . S
H1136 C1161 0.951 . S
H1137 C1163 0.950 . S
H1138 C1164 0.950 . S
H1139 C1166 0.950 . S
H1140 C1169 0.950 . S
H1141 C1170 0.950 . S
H1142 C1172 0.950 . S
H1143 C1173 0.950 . S
C1144 H1126 0.951 . S
C1144 C1145 1.366 . S
C1144 C1146 1.388 . S
C1145 C1144 1.366 . S
C1145 C1149 1.385 . S
C1146 H1127 0.951 . S
C1146 C1144 1.388 . S
C1146 C1147 1.366 . S
C1147 C1146 1.366 . S
C1147 C1148 1.414 . S
C1147 C1150 1.499 . S
C1148 H1128 0.950 . S
C1148 C1147 1.414 . S
C1148 C1149 1.374 . S
C1149 H1129 0.950 . S
C1149 C1145 1.385 . S
C1149 C1148 1.374 . S
C1150 C1147 1.499 . S
C1150 C1151 1.373 . S
C1150 C1152 1.389 . S
C1151 H1130 0.950 . S
C1151 C1150 1.373 . S
C1151 C1167 1.377 . S
C1152 C1150 1.389 . S
C1152 C1153 1.524 . S
C1152 C1166 1.377 . S
C1153 C1152 1.524 . S
C1153 C1154 1.397 . S
C1153 C1158 1.363 . S
C1154 H1131 0.950 . S
C1154 C1153 1.397 . S
C1154 C1155 1.334 . S
C1155 H1132 0.950 . S
C1155 C1154 1.334 . S
C1155 C1156 1.287 . S
C1156 C1155 1.287 . S
C1156 C1157 1.524 . S
C1156 H1175 0.913 . S
C1157 H1133 0.950 . S
C1157 C1156 1.524 . S
C1157 C1158 1.415 . S
C1158 H1134 0.950 . S
C1158 C1153 1.363 . S
C1158 C1157 1.415 . S
C1159 H1135 0.951 . S
C1159 C1160 1.366 . S
C1159 C1161 1.388 . S
C1160 C1159 1.366 . S
C1160 C1164 1.385 . S
C1161 H1136 0.951 . S
C1161 C1159 1.388 . S
C1161 C1162 1.366 . S
C1162 C1161 1.366 . S
C1162 C1163 1.414 . S
C1162 C1165 1.499 . S
C1163 H1137 0.950 . S
C1163 C1162 1.414 . S
C1163 C1164 1.374 . S
C1164 H1138 0.950 . S
C1164 C1160 1.385 . S
C1164 C1163 1.374 . S
C1165 C1162 1.499 . S
C1165 C1166 1.373 . S
C1165 C1167 1.389 . S
C1166 H1139 0.950 . S
C1166 C1152 1.377 . S
C1166 C1165 1.373 . S
C1167 C1151 1.377 . S
C1167 C1165 1.389 . S
C1167 C1168 1.524 . S
C1168 C1167 1.524 . S
C1168 C1169 1.397 . S
C1168 C1173 1.363 . S
C1169 H1140 0.950 . S
C1169 C1168 1.397 . S
C1169 C1170 1.334 . S
C1170 H1141 0.950 . S
C1170 C1169 1.334 . S
C1170 C1171 1.287 . S
C1171 C1170 1.287 . S
C1171 C1172 1.524 . S
C1171 H1174 0.999 . S
C1172 H1142 0.950 . S
C1172 C1171 1.524 . S
C1172 C1173 1.415 . S
C1173 H1143 0.950 . S
C1173 C1168 1.363 . S
C1173 C1172 1.415 . S
H1174 C1171 0.999 . S
H1175 C1156 0.913 . S
H1176 C1194 0.951 . S
H1177 C1196 0.951 . S
H1178 C1198 0.950 . S
H1179 C1199 0.950 . S
H1180 C1201 0.978 . S
H1181 C1204 0.950 . S
H1182 C1205 0.950 . S
H1183 C1207 0.950 . S
H1184 C1208 0.950 . S
H1185 C1209 0.951 . S
H1186 C1211 0.951 . S
H1187 C1213 0.950 . S
H1188 C1214 0.950 . S
H1189 C1216 0.950 . S
H1190 C1219 0.950 . S
H1191 C1220 0.950 . S
H1192 C1222 0.950 . S
H1193 C1223 0.950 . S
C1194 H1176 0.951 . S
C1194 C1195 1.366 . S
C1194 C1196 1.388 . S
C1195 C1194 1.366 . S
C1195 C1199 1.385 1_455 S
C1196 H1177 0.951 . S
C1196 C1194 1.388 . S
C1196 C1197 1.366 . S
C1197 C1196 1.366 . S
C1197 C1198 1.414 1_455 S
C1197 C1200 1.499 . S
C1198 H1178 0.950 . S
C1198 C1197 1.414 1_655 S
C1198 C1199 1.374 . S
C1199 H1179 0.950 . S
C1199 C1195 1.385 1_655 S
C1199 C1198 1.374 . S
C1200 C1197 1.499 . S
C1200 C1201 1.373 . S
C1200 C1202 1.389 . S
C1201 H1180 0.978 . S
C1201 C1200 1.373 . S
C1201 C1217 1.377 . S
C1202 C1200 1.389 . S
C1202 C1203 1.524 . S
C1202 C1216 1.377 . S
C1203 C1202 1.524 . S
C1203 C1204 1.397 . S
C1203 C1208 1.363 . S
C1204 H1181 0.950 . S
C1204 C1203 1.397 . S
C1204 C1205 1.334 . S
C1205 H1182 0.950 . S
C1205 C1204 1.334 . S
C1205 C1206 1.287 . S
C1206 C1205 1.287 . S
C1206 C1207 1.524 . S
C1206 H1225 0.913 . S
C1207 H1183 0.950 . S
C1207 C1206 1.524 . S
C1207 C1208 1.415 . S
C1208 H1184 0.950 . S
C1208 C1203 1.363 . S
C1208 C1207 1.415 . S
C1209 H1185 0.951 . S
C1209 C1210 1.366 . S
C1209 C1211 1.388 . S
C1210 C1209 1.366 . S
C1210 C1214 1.385 . S
C1211 H1186 0.951 . S
C1211 C1209 1.388 . S
C1211 C1212 1.366 . S
C1212 C1211 1.366 . S
C1212 C1213 1.414 . S
C1212 C1215 1.499 . S
C1213 H1187 0.950 . S
C1213 C1212 1.414 . S
C1213 C1214 1.374 . S
C1214 H1188 0.950 . S
C1214 C1210 1.385 . S
C1214 C1213 1.374 . S
C1215 C1212 1.499 . S
C1215 C1216 1.373 . S
C1215 C1217 1.389 . S
C1216 H1189 0.950 . S
C1216 C1202 1.377 . S
C1216 C1215 1.373 . S
C1217 C1201 1.377 . S
C1217 C1215 1.389 . S
C1217 C1218 1.524 . S
C1218 C1217 1.524 . S
C1218 C1219 1.397 . S
C1218 C1223 1.363 1_455 S
C1219 H1190 0.950 . S
C1219 C1218 1.397 . S
C1219 C1220 1.334 . S
C1220 H1191 0.950 . S
C1220 C1219 1.334 . S
C1220 C1221 1.287 1_455 S
C1221 C1220 1.287 1_655 S
C1221 C1222 1.524 . S
C1221 H1224 0.999 . S
C1222 H1192 0.950 . S
C1222 C1221 1.524 . S
C1222 C1223 1.415 . S
C1223 H1193 0.950 . S
C1223 C1218 1.363 1_655 S
C1223 C1222 1.415 . S
H1224 C1221 0.999 . S
H1225 C1206 0.913 . S
H1226 C1244 0.951 . S
H1227 C1246 0.951 . S
H1228 C1248 0.950 . S
H1229 C1249 0.950 . S
H1230 C1251 0.950 . S
H1231 C1254 0.950 . S
H1232 C1255 0.950 . S
H1233 C1257 0.950 . S
H1234 C1258 0.950 . S
H1235 C1259 0.951 . S
H1236 C1261 0.951 . S
H1237 C1263 0.950 . S
H1238 C1264 0.950 . S
H1239 C1266 0.950 . S
H1240 C1269 0.950 . S
H1241 C1270 0.950 . S
H1242 C1272 0.950 . S
H1243 C1273 0.950 . S
C1244 H1226 0.951 . S
C1244 C1245 1.366 . S
C1244 C1246 1.388 . S
C1245 C1244 1.366 . S
C1245 C1249 1.385 . S
C1246 H1227 0.951 . S
C1246 C1244 1.388 . S
C1246 C1247 1.366 . S
C1247 C1246 1.366 . S
C1247 C1248 1.414 . S
C1247 C1250 1.499 . S
C1248 H1228 0.950 . S
C1248 C1247 1.414 . S
C1248 C1249 1.374 . S
C1249 H1229 0.950 . S
C1249 C1245 1.385 . S
C1249 C1248 1.374 . S
C1250 C1247 1.499 . S
C1250 C1251 1.373 . S
C1250 C1252 1.389 . S
C1251 H1230 0.950 . S
C1251 C1250 1.373 . S
C1251 C1267 1.377 . S
C1252 C1250 1.389 . S
C1252 C1253 1.524 . S
C1252 C1266 1.377 . S
C1253 C1252 1.524 . S
C1253 C1254 1.397 . S
C1253 C1258 1.363 . S
C1254 H1231 0.950 . S
C1254 C1253 1.397 . S
C1254 C1255 1.334 . S
C1255 H1232 0.950 . S
C1255 C1254 1.334 . S
C1255 C1256 1.287 . S
C1256 C1255 1.287 . S
C1256 C1257 1.524 . S
C1256 H1275 0.913 . S
C1257 H1233 0.950 . S
C1257 C1256 1.524 . S
C1257 C1258 1.415 . S
C1258 H1234 0.950 . S
C1258 C1253 1.363 . S
C1258 C1257 1.415 . S
C1259 H1235 0.951 . S
C1259 C1260 1.366 . S
C1259 C1261 1.388 . S
C1260 C1259 1.366 . S
C1260 C1264 1.385 . S
C1261 H1236 0.951 . S
C1261 C1259 1.388 . S
C1261 C1262 1.366 . S
C1262 C1261 1.366 . S
C1262 C1263 1.414 . S
C1262 C1265 1.499 . S
C1263 H1237 0.950 . S
C1263 C1262 1.414 . S
C1263 C1264 1.374 . S
C1264 H1238 0.950 . S
C1264 C1260 1.385 . S
C1264 C1263 1.374 . S
C1265 C1262 1.499 . S
C1265 C1266 1.373 . S
C1265 C1267 1.389 . S
C1266 H1239 0.950 . S
C1266 C1252 1.377 . S
C1266 C1265 1.373 . S
C1267 C1251 1.377 . S
C1267 C1265 1.389 . S
C1267 C1268 1.524 . S
C1268 C1267 1.524 . S
C1268 C1269 1.397 . S
C1268 C1273 1.363 . S
C1269 H1240 0.950 . S
C1269 C1268 1.397 . S
C1269 C1270 1.334 . S
C1270 H1241 0.950 . S
C1270 C1269 1.334 . S
C1270 C1271 1.287 . S
C1271 C1270 1.287 . S
C1271 C1272 1.524 . S
C1271 H1274 0.999 . S
C1272 H1242 0.950 . S
C1272 C1271 1.524 . S
C1272 C1273 1.415 . S
C1273 H1243 0.950 . S
C1273 C1268 1.363 . S
C1273 C1272 1.415 . S
H1274 C1271 0.999 . S
H1275 C1256 0.913 . S
H1276 C1294 0.951 . S
H1277 C1296 0.951 . S
H1278 C1298 0.950 . S
H1279 C1299 0.950 . S
H1280 C1301 0.950 . S
H1281 C1304 0.950 . S
H1282 C1305 0.950 . S
H1283 C1307 0.950 . S
H1284 C1308 0.950 . S
H1285 C1309 0.951 . S
H1286 C1311 0.951 . S
H1287 C1313 0.950 . S
H1288 C1314 0.950 . S
H1289 C1316 0.950 . S
H1290 C1319 0.950 . S
H1291 C1320 0.950 . S
H1292 C1322 0.945 . S
H1293 C1323 0.950 . S
C1294 H1276 0.951 . S
C1294 C1295 1.366 . S
C1294 C1296 1.388 . S
C1295 C1294 1.366 . S
C1295 C1299 1.385 . S
C1296 H1277 0.951 . S
C1296 C1294 1.388 . S
C1296 C1297 1.366 . S
C1297 C1296 1.366 . S
C1297 C1298 1.414 . S
C1297 C1300 1.499 . S
C1298 H1278 0.950 . S
C1298 C1297 1.414 . S
C1298 C1299 1.374 . S
C1299 H1279 0.950 . S
C1299 C1295 1.385 . S
C1299 C1298 1.374 . S
C1300 C1297 1.499 . S
C1300 C1301 1.373 . S
C1300 C1302 1.389 . S
C1301 H1280 0.950 . S
C1301 C1300 1.373 . S
C1301 C1317 1.377 . S
C1302 C1300 1.389 . S
C1302 C1303 1.524 . S
C1302 C1316 1.377 . S
C1303 C1302 1.524 . S
C1303 C1304 1.397 . S
C1303 C1308 1.363 . S
C1304 H1281 0.950 . S
C1304 C1303 1.397 . S
C1304 C1305 1.334 . S
C1305 H1282 0.950 . S
C1305 C1304 1.334 . S
C1305 C1306 1.287 . S
C1306 C1305 1.287 . S
C1306 C1307 1.524 . S
C1306 H1325 0.913 . S
C1307 H1283 0.950 . S
C1307 C1306 1.524 . S
C1307 C1308 1.415 . S
C1308 H1284 0.950 . S
C1308 C1303 1.363 . S
C1308 C1307 1.415 . S
C1309 H1285 0.951 . S
C1309 C1310 1.366 . S
C1309 C1311 1.388 . S
C1310 C1309 1.366 . S
C1310 C1314 1.385 . S
C1311 H1286 0.951 . S
C1311 C1309 1.388 . S
C1311 C1312 1.366 . S
C1312 C1311 1.366 . S
C1312 C1313 1.414 . S
C1312 C1315 1.499 . S
C1313 H1287 0.950 . S
C1313 C1312 1.414 . S
C1313 C1314 1.374 . S
C1314 H1288 0.950 . S
C1314 C1310 1.385 . S
C1314 C1313 1.374 . S
C1315 C1312 1.499 . S
C1315 C1316 1.373 . S
C1315 C1317 1.389 . S
C1316 H1289 0.950 . S
C1316 C1302 1.377 . S
C1316 C1315 1.373 . S
C1317 C1301 1.377 . S
C1317 C1315 1.389 . S
C1317 C1318 1.524 . S
C1318 C1317 1.524 . S
C1318 C1319 1.397 . S
C1318 C1323 1.363 . S
C1319 H1290 0.950 . S
C1319 C1318 1.397 . S
C1319 C1320 1.334 . S
C1320 H1291 0.950 . S
C1320 C1319 1.334 . S
C1320 C1321 1.287 . S
C1321 C1320 1.287 . S
C1321 C1322 1.524 . S
C1321 H1324 0.999 . S
C1322 H1292 0.945 . S
C1322 C1321 1.524 . S
C1322 C1323 1.415 . S
C1323 H1293 0.950 . S
C1323 C1318 1.363 . S
C1323 C1322 1.415 . S
H1324 C1321 0.999 . S
H1325 C1306 0.913 . S
H1326 C1344 0.951 . S
H1327 C1346 0.951 . S
H1328 C1348 0.950 . S
H1329 C1349 0.950 . S
H1330 C1351 0.950 . S
H1331 C1354 0.950 . S
H1332 C1355 0.950 . S
H1333 C1357 0.950 . S
H1334 C1358 0.950 . S
H1335 C1359 0.951 . S
H1336 C1361 0.951 . S
H1337 C1363 0.950 . S
H1338 C1364 0.950 . S
H1339 C1366 0.950 . S
H1340 C1369 0.950 . S
H1341 C1370 0.950 . S
H1342 C1372 0.950 . S
H1343 C1373 0.950 . S
C1344 H1326 0.951 . S
C1344 C1345 1.366 . S
C1344 C1346 1.388 . S
C1345 C1344 1.366 . S
C1345 C1349 1.385 . S
C1346 H1327 0.951 . S
C1346 C1344 1.388 . S
C1346 C1347 1.366 . S
C1347 C1346 1.366 . S
C1347 C1348 1.414 . S
C1347 C1350 1.499 . S
C1348 H1328 0.950 . S
C1348 C1347 1.414 . S
C1348 C1349 1.374 . S
C1349 H1329 0.950 . S
C1349 C1345 1.385 . S
C1349 C1348 1.374 . S
C1350 C1347 1.499 . S
C1350 C1351 1.373 . S
C1350 C1352 1.389 . S
C1351 H1330 0.950 . S
C1351 C1350 1.373 . S
C1351 C1367 1.377 . S
C1352 C1350 1.389 . S
C1352 C1353 1.524 . S
C1352 C1366 1.377 . S
C1353 C1352 1.524 . S
C1353 C1354 1.397 . S
C1353 C1358 1.363 . S
C1354 H1331 0.950 . S
C1354 C1353 1.397 . S
C1354 C1355 1.334 . S
C1355 H1332 0.950 . S
C1355 C1354 1.334 . S
C1355 C1356 1.287 . S
C1356 C1355 1.287 . S
C1356 C1357 1.524 . S
C1356 H1375 0.913 . S
C1357 H1333 0.950 . S
C1357 C1356 1.524 . S
C1357 C1358 1.415 . S
C1358 H1334 0.950 . S
C1358 C1353 1.363 . S
C1358 C1357 1.415 . S
C1359 H1335 0.951 . S
C1359 C1360 1.366 . S
C1359 C1361 1.388 . S
C1360 C1359 1.366 . S
C1360 C1364 1.385 . S
C1361 H1336 0.951 . S
C1361 C1359 1.388 . S
C1361 C1362 1.366 . S
C1362 C1361 1.366 . S
C1362 C1363 1.414 . S
C1362 C1365 1.499 . S
C1363 H1337 0.950 . S
C1363 C1362 1.414 . S
C1363 C1364 1.374 . S
C1364 H1338 0.950 . S
C1364 C1360 1.385 . S
C1364 C1363 1.374 . S
C1365 C1362 1.499 . S
C1365 C1366 1.373 . S
C1365 C1367 1.389 . S
C1366 H1339 0.950 . S
C1366 C1352 1.377 . S
C1366 C1365 1.373 . S
C1367 C1351 1.377 . S
C1367 C1365 1.389 . S
C1367 C1368 1.524 . S
C1368 C1367 1.524 . S
C1368 C1369 1.397 . S
C1368 C1373 1.363 . S
C1369 H1340 0.950 . S
C1369 C1368 1.397 . S
C1369 C1370 1.334 . S
C1370 H1341 0.950 . S
C1370 C1369 1.334 . S
C1370 C1371 1.287 . S
C1371 C1370 1.287 . S
C1371 C1372 1.524 . S
C1371 H1374 0.999 . S
C1372 H1342 0.950 . S
C1372 C1371 1.524 . S
C1372 C1373 1.415 . S
C1373 H1343 0.950 . S
C1373 C1368 1.363 . S
C1373 C1372 1.415 . S
H1374 C1371 0.999 . S
H1375 C1356 0.913 . S
H1376 C1394 0.951 . S
H1377 C1396 0.951 . S
H1378 C1398 0.950 . S
H1379 C1399 0.950 . S
H1380 C1401 0.950 . S
H1381 C1404 0.950 . S
H1382 C1405 0.950 . S
H1383 C1407 0.950 . S
H1384 C1408 0.950 . S
H1385 C1409 0.951 . S
H1386 C1411 0.951 . S
H1387 C1413 0.950 . S
H1388 C1414 0.950 . S
H1389 C1416 0.950 . S
H1390 C1419 0.950 . S
H1391 C1420 0.950 . S
H1392 C1422 0.950 . S
H1393 C1423 0.950 . S
C1394 H1376 0.951 . S
C1394 C1395 1.366 . S
C1394 C1396 1.388 . S
C1395 C1394 1.366 . S
C1395 C1399 1.385 . S
C1396 H1377 0.951 . S
C1396 C1394 1.388 . S
C1396 C1397 1.366 . S
C1397 C1396 1.366 . S
C1397 C1398 1.414 . S
C1397 C1400 1.499 . S
C1398 H1378 0.950 . S
C1398 C1397 1.414 . S
C1398 C1399 1.374 . S
C1399 H1379 0.950 . S
C1399 C1395 1.385 . S
C1399 C1398 1.374 . S
C1400 C1397 1.499 . S
C1400 C1401 1.373 . S
C1400 C1402 1.389 . S
C1401 H1380 0.950 . S
C1401 C1400 1.373 . S
C1401 C1417 1.377 . S
C1402 C1400 1.389 . S
C1402 C1403 1.524 . S
C1402 C1416 1.377 . S
C1403 C1402 1.524 . S
C1403 C1404 1.397 . S
C1403 C1408 1.363 . S
C1404 H1381 0.950 . S
C1404 C1403 1.397 . S
C1404 C1405 1.334 . S
C1405 H1382 0.950 . S
C1405 C1404 1.334 . S
C1405 C1406 1.287 . S
C1406 C1405 1.287 . S
C1406 C1407 1.524 . S
C1406 H1425 0.867 1_545 S
C1407 H1383 0.950 . S
C1407 C1406 1.524 . S
C1407 C1408 1.415 . S
C1408 H1384 0.950 . S
C1408 C1403 1.363 . S
C1408 C1407 1.415 . S
C1409 H1385 0.951 . S
C1409 C1410 1.366 . S
C1409 C1411 1.388 . S
C1410 C1409 1.366 . S
C1410 C1414 1.385 1_455 S
C1411 H1386 0.951 . S
C1411 C1409 1.388 . S
C1411 C1412 1.366 1_455 S
C1412 C1411 1.366 1_655 S
C1412 C1413 1.414 . S
C1412 C1415 1.499 . S
C1413 H1387 0.950 . S
C1413 C1412 1.414 . S
C1413 C1414 1.374 . S
C1414 H1388 0.950 . S
C1414 C1410 1.385 1_655 S
C1414 C1413 1.374 . S
C1415 C1412 1.499 . S
C1415 C1416 1.373 . S
C1415 C1417 1.389 . S
C1416 H1389 0.950 . S
C1416 C1402 1.377 . S
C1416 C1415 1.373 . S
C1417 C1401 1.377 . S
C1417 C1415 1.389 . S
C1417 C1418 1.524 . S
C1418 C1417 1.524 . S
C1418 C1419 1.397 . S
C1418 C1423 1.363 1_655 S
C1419 H1390 0.950 . S
C1419 C1418 1.397 . S
C1419 C1420 1.334 1_655 S
C1420 H1391 0.950 . S
C1420 C1419 1.334 1_455 S
C1420 C1421 1.287 . S
C1421 C1420 1.287 . S
C1421 C1422 1.524 . S
C1421 H1424 0.999 . S
C1422 H1392 0.950 . S
C1422 C1421 1.524 . S
C1422 C1423 1.415 . S
C1423 H1393 0.950 . S
C1423 C1418 1.363 1_455 S
C1423 C1422 1.415 . S
H1424 C1421 0.999 . S
H1425 C1406 0.867 1_565 S
H1426 C1444 0.951 . S
H1427 C1446 0.951 . S
H1428 C1448 0.950 . S
H1429 C1449 0.950 . S
H1430 C1451 0.950 . S
H1431 C1454 0.950 . S
H1432 C1455 0.950 . S
H1433 C1457 0.950 . S
H1434 C1458 0.950 . S
H1435 C1459 0.951 . S
H1436 C1461 0.951 . S
H1437 C1463 0.950 . S
H1438 C1464 0.950 . S
H1439 C1466 0.950 . S
H1440 C1469 0.950 . S
H1441 C1470 0.950 . S
H1442 C1472 0.950 . S
H1443 C1473 0.950 . S
C1444 H1426 0.951 . S
C1444 C1445 1.366 . S
C1444 C1446 1.388 . S
C1445 C1444 1.366 . S
C1445 C1449 1.385 . S
C1446 H1427 0.951 . S
C1446 C1444 1.388 . S
C1446 C1447 1.366 . S
C1447 C1446 1.366 . S
C1447 C1448 1.414 . S
C1447 C1450 1.499 . S
C1448 H1428 0.950 . S
C1448 C1447 1.414 . S
C1448 C1449 1.374 . S
C1449 H1429 0.950 . S
C1449 C1445 1.385 . S
C1449 C1448 1.374 . S
C1450 C1447 1.499 . S
C1450 C1451 1.373 . S
C1450 C1452 1.389 . S
C1451 H1430 0.950 . S
C1451 C1450 1.373 . S
C1451 C1467 1.377 . S
C1452 C1450 1.389 . S
C1452 C1453 1.524 . S
C1452 C1466 1.377 . S
C1453 C1452 1.524 . S
C1453 C1454 1.397 . S
C1453 C1458 1.363 . S
C1454 H1431 0.950 . S
C1454 C1453 1.397 . S
C1454 C1455 1.334 . S
C1455 H1432 0.950 . S
C1455 C1454 1.334 . S
C1455 C1456 1.287 . S
C1456 C1455 1.287 . S
C1456 C1457 1.524 . S
C1456 H1475 0.913 . S
C1457 H1433 0.950 . S
C1457 C1456 1.524 . S
C1457 C1458 1.415 . S
C1458 H1434 0.950 . S
C1458 C1453 1.363 . S
C1458 C1457 1.415 . S
C1459 H1435 0.951 . S
C1459 C1460 1.366 . S
C1459 C1461 1.388 . S
C1460 C1459 1.366 . S
C1460 C1464 1.385 . S
C1461 H1436 0.951 . S
C1461 C1459 1.388 . S
C1461 C1462 1.366 . S
C1462 C1461 1.366 . S
C1462 C1463 1.414 . S
C1462 C1465 1.499 . S
C1463 H1437 0.950 . S
C1463 C1462 1.414 . S
C1463 C1464 1.374 . S
C1464 H1438 0.950 . S
C1464 C1460 1.385 . S
C1464 C1463 1.374 . S
C1465 C1462 1.499 . S
C1465 C1466 1.373 . S
C1465 C1467 1.389 . S
C1466 H1439 0.950 . S
C1466 C1452 1.377 . S
C1466 C1465 1.373 . S
C1467 C1451 1.377 . S
C1467 C1465 1.389 . S
C1467 C1468 1.524 . S
C1468 C1467 1.524 . S
C1468 C1469 1.397 . S
C1468 C1473 1.363 . S
C1469 H1440 0.950 . S
C1469 C1468 1.397 . S
C1469 C1470 1.334 . S
C1470 H1441 0.950 . S
C1470 C1469 1.334 . S
C1470 C1471 1.287 . S
C1471 C1470 1.287 . S
C1471 C1472 1.524 . S
C1471 H1474 0.999 . S
C1472 H1442 0.950 . S
C1472 C1471 1.524 . S
C1472 C1473 1.415 . S
C1473 H1443 0.950 . S
C1473 C1468 1.363 . S
C1473 C1472 1.415 . S
H1474 C1471 0.999 . S
H1475 C1456 0.913 . S
H1476 C1494 0.951 . S
H1477 C1496 0.951 . S
H1478 C1498 0.950 . S
H1479 C1499 0.967 . S
H1480 C1501 0.950 . S
H1481 C1504 0.950 . S
H1482 C1505 0.950 . S
H1483 C1507 0.950 . S
H1484 C1508 0.950 1_545 S
H1485 C1509 0.951 . S
H1486 C1511 0.951 . S
H1487 C1513 0.950 . S
H1488 C1514 0.950 . S
H1489 C1516 0.950 . S
H1490 C1519 0.950 . S
H1491 C1520 0.950 . S
H1492 C1522 0.950 . S
H1493 C1523 0.950 . S
C1494 H1476 0.951 . S
C1494 C1495 1.368 . S
C1494 C1496 1.388 . S
C1495 C1494 1.368 . S
C1495 C1499 1.383 1_545 S
C1496 H1477 0.951 . S
C1496 C1494 1.388 . S
C1496 C1497 1.366 . S
C1497 C1496 1.366 . S
C1497 C1498 1.414 . S
C1497 C1500 1.499 . S
C1498 H1478 0.950 . S
C1498 C1497 1.414 . S
C1498 C1499 1.360 1_545 S
C1499 H1479 0.967 . S
C1499 C1495 1.383 1_565 S
C1499 C1498 1.360 1_565 S
C1500 C1497 1.499 . S
C1500 C1501 1.373 . S
C1500 C1502 1.389 . S
C1501 H1480 0.950 . S
C1501 C1500 1.373 . S
C1501 C1517 1.377 . S
C1502 C1500 1.389 . S
C1502 C1503 1.524 1_545 S
C1502 C1516 1.377 . S
C1503 C1502 1.524 1_565 S
C1503 C1504 1.397 . S
C1503 C1508 1.363 . S
C1504 H1481 0.950 . S
C1504 C1503 1.397 . S
C1504 C1505 1.334 . S
C1505 H1482 0.950 . S
C1505 C1504 1.334 . S
C1505 C1506 1.287 . S
C1506 C1505 1.287 . S
C1506 C1507 1.524 . S
C1506 H1525 0.913 . S
C1507 H1483 0.950 . S
C1507 C1506 1.524 . S
C1507 C1508 1.415 . S
C1508 H1484 0.950 1_565 S
C1508 C1503 1.363 . S
C1508 C1507 1.415 . S
C1509 H1485 0.951 . S
C1509 C1510 1.366 . S
C1509 C1511 1.388 . S
C1510 C1509 1.366 . S
C1510 C1514 1.385 . S
C1511 H1486 0.951 . S
C1511 C1509 1.388 . S
C1511 C1512 1.366 . S
C1512 C1511 1.366 . S
C1512 C1513 1.414 . S
C1512 C1515 1.499 . S
C1513 H1487 0.950 . S
C1513 C1512 1.414 . S
C1513 C1514 1.374 . S
C1514 H1488 0.950 . S
C1514 C1510 1.385 . S
C1514 C1513 1.374 . S
C1515 C1512 1.499 . S
C1515 C1516 1.373 . S
C1515 C1517 1.389 . S
C1516 H1489 0.950 . S
C1516 C1502 1.377 . S
C1516 C1515 1.373 . S
C1517 C1501 1.377 . S
C1517 C1515 1.389 . S
C1517 C1518 1.524 . S
C1518 C1517 1.524 . S
C1518 C1519 1.397 . S
C1518 C1523 1.363 . S
C1519 H1490 0.950 . S
C1519 C1518 1.397 . S
C1519 C1520 1.334 . S
C1520 H1491 0.950 . S
C1520 C1519 1.334 . S
C1520 C1521 1.287 . S
C1521 C1520 1.287 . S
C1521 C1522 1.524 . S
C1521 H1524 0.999 . S
C1522 H1492 0.950 . S
C1522 C1521 1.524 . S
C1522 C1523 1.415 . S
C1523 H1493 0.950 . S
C1523 C1518 1.363 . S
C1523 C1522 1.415 . S
H1524 C1521 0.999 . S
H1525 C1506 0.913 . S
H1526 C1544 0.951 . S
H1527 C1546 0.951 . S
H1528 C1548 0.950 . S
H1529 C1549 0.950 . S
H1530 C1551 0.950 . S
H1531 C1554 0.950 . S
H1532 C1555 0.950 . S
H1533 C1557 0.950 . S
H1534 C1558 0.950 . S
H1535 C1559 0.951 . S
H1536 C1561 0.951 . S
H1537 C1563 0.950 . S
H1538 C1564 0.950 . S
H1539 C1566 0.950 . S
H1540 C1569 0.950 . S
H1541 C1570 0.950 . S
H1542 C1572 0.950 . S
H1543 C1573 0.950 . S
C1544 H1526 0.951 . S
C1544 C1545 1.366 . S
C1544 C1546 1.388 . S
C1545 C1544 1.366 . S
C1545 C1549 1.385 . S
C1546 H1527 0.951 . S
C1546 C1544 1.388 . S
C1546 C1547 1.366 . S
C1547 C1546 1.366 . S
C1547 C1548 1.414 . S
C1547 C1550 1.499 . S
C1548 H1528 0.950 . S
C1548 C1547 1.414 . S
C1548 C1549 1.374 . S
C1549 H1529 0.950 . S
C1549 C1545 1.385 . S
C1549 C1548 1.374 . S
C1550 C1547 1.499 . S
C1550 C1551 1.373 1_554 S
C1550 C1552 1.389 . S
C1551 H1530 0.950 . S
C1551 C1550 1.373 1_556 S
C1551 C1567 1.377 . S
C1552 C1550 1.389 . S
C1552 C1553 1.524 . S
C1552 C1566 1.377 1_554 S
C1553 C1552 1.524 . S
C1553 C1554 1.397 . S
C1553 C1558 1.363 . S
C1554 H1531 0.950 . S
C1554 C1553 1.397 . S
C1554 C1555 1.334 . S
C1555 H1532 0.950 . S
C1555 C1554 1.334 . S
C1555 C1556 1.287 . S
C1556 C1555 1.287 . S
C1556 C1557 1.524 . S
C1556 H1575 0.913 . S
C1557 H1533 0.950 . S
C1557 C1556 1.524 . S
C1557 C1558 1.415 . S
C1558 H1534 0.950 . S
C1558 C1553 1.363 . S
C1558 C1557 1.415 . S
C1559 H1535 0.951 . S
C1559 C1560 1.366 . S
C1559 C1561 1.388 . S
C1560 C1559 1.366 . S
C1560 C1564 1.385 . S
C1561 H1536 0.951 . S
C1561 C1559 1.388 . S
C1561 C1562 1.366 . S
C1562 C1561 1.366 . S
C1562 C1563 1.414 . S
C1562 C1565 1.499 . S
C1563 H1537 0.950 . S
C1563 C1562 1.414 . S
C1563 C1564 1.374 . S
C1564 H1538 0.950 . S
C1564 C1560 1.385 . S
C1564 C1563 1.374 . S
C1565 C1562 1.499 . S
C1565 C1566 1.373 . S
C1565 C1567 1.389 . S
C1566 H1539 0.950 . S
C1566 C1552 1.377 1_556 S
C1566 C1565 1.373 . S
C1567 C1551 1.377 . S
C1567 C1565 1.389 . S
C1567 C1568 1.524 . S
C1568 C1567 1.524 . S
C1568 C1569 1.397 . S
C1568 C1573 1.363 . S
C1569 H1540 0.950 . S
C1569 C1568 1.397 . S
C1569 C1570 1.334 . S
C1570 H1541 0.950 . S
C1570 C1569 1.334 . S
C1570 C1571 1.287 . S
C1571 C1570 1.287 . S
C1571 C1572 1.524 . S
C1571 H1574 0.999 . S
C1572 H1542 0.950 . S
C1572 C1571 1.524 . S
C1572 C1573 1.415 . S
C1573 H1543 0.950 . S
C1573 C1568 1.363 . S
C1573 C1572 1.415 . S
H1574 C1571 0.999 . S
H1575 C1556 0.913 . S
H1576 C1594 0.951 . S
H1577 C1596 0.951 . S
H1578 C1598 0.950 . S
H1579 C1599 0.950 . S
H1580 C1601 0.950 . S
H1581 C1604 0.950 . S
H1582 C1605 0.950 . S
H1583 C1607 0.950 . S
H1584 C1608 0.950 1_455 S
H1585 C1609 0.951 . S
H1586 C1611 0.951 . S
H1587 C1613 0.943 1_455 S
H1588 C1614 0.950 . S
H1589 C1616 0.950 . S
H1590 C1619 0.950 . S
H1591 C1620 0.950 . S
H1592 C1622 0.950 . S
H1593 C1623 0.950 . S
C1594 H1576 0.951 . S
C1594 C1595 1.366 . S
C1594 C1596 1.388 . S
C1595 C1594 1.366 . S
C1595 C1599 1.385 . S
C1596 H1577 0.951 . S
C1596 C1594 1.388 . S
C1596 C1597 1.366 . S
C1597 C1596 1.366 . S
C1597 C1598 1.414 . S
C1597 C1600 1.499 . S
C1598 H1578 0.950 . S
C1598 C1597 1.414 . S
C1598 C1599 1.374 . S
C1599 H1579 0.950 . S
C1599 C1595 1.385 . S
C1599 C1598 1.374 . S
C1600 C1597 1.499 . S
C1600 C1601 1.373 . S
C1600 C1602 1.389 . S
C1601 H1580 0.950 . S
C1601 C1600 1.373 . S
C1601 C1617 1.377 . S
C1602 C1600 1.389 . S
C1602 C1603 1.524 . S
C1602 C1616 1.377 . S
C1603 C1602 1.524 . S
C1603 C1604 1.397 . S
C1603 C1608 1.363 . S
C1604 H1581 0.950 . S
C1604 C1603 1.397 . S
C1604 C1605 1.334 . S
C1605 H1582 0.950 . S
C1605 C1604 1.334 . S
C1605 C1606 1.287 . S
C1606 C1605 1.287 . S
C1606 C1607 1.524 1_655 S
C1606 H1625 0.913 . S
C1607 H1583 0.950 . S
C1607 C1606 1.524 1_455 S
C1607 C1608 1.415 1_455 S
C1608 H1584 0.950 1_655 S
C1608 C1603 1.363 . S
C1608 C1607 1.415 1_655 S
C1609 H1585 0.951 . S
C1609 C1610 1.366 . S
C1609 C1611 1.388 . S
C1610 C1609 1.366 . S
C1610 C1614 1.385 1_655 S
C1611 H1586 0.951 . S
C1611 C1609 1.388 . S
C1611 C1612 1.366 . S
C1612 C1611 1.366 . S
C1612 C1613 1.425 . S
C1612 C1615 1.499 . S
C1613 H1587 0.943 1_655 S
C1613 C1612 1.425 . S
C1613 C1614 1.369 1_655 S
C1614 H1588 0.950 . S
C1614 C1610 1.385 1_455 S
C1614 C1613 1.369 1_455 S
C1615 C1612 1.499 . S
C1615 C1616 1.373 . S
C1615 C1617 1.389 . S
C1616 H1589 0.950 . S
C1616 C1602 1.377 . S
C1616 C1615 1.373 . S
C1617 C1601 1.377 . S
C1617 C1615 1.389 . S
C1617 C1618 1.524 . S
C1618 C1617 1.524 . S
C1618 C1619 1.397 . S
C1618 C1623 1.363 . S
C1619 H1590 0.950 . S
C1619 C1618 1.397 . S
C1619 C1620 1.334 . S
C1620 H1591 0.950 . S
C1620 C1619 1.334 . S
C1620 C1621 1.287 . S
C1621 C1620 1.287 . S
C1621 C1622 1.524 . S
C1621 H1624 0.999 . S
C1622 H1592 0.950 . S
C1622 C1621 1.524 . S
C1622 C1623 1.415 . S
C1623 H1593 0.950 . S
C1623 C1618 1.363 . S
C1623 C1622 1.415 . S
H1624 C1621 0.999 . S
H1625 C1606 0.913 . S
H1626 C1644 0.951 . S
H1627 C1646 0.951 . S
H1628 C1648 0.950 . S
H1629 C1649 0.950 . S
H1630 C1651 0.950 . S
H1631 C1654 0.950 . S
H1632 C1655 0.950 . S
H1633 C1657 0.950 . S
H1634 C1658 0.950 . S
H1635 C1659 0.951 . S
H1636 C1661 0.951 . S
H1637 C1663 0.950 . S
H1638 C1664 0.950 . S
H1639 C1666 0.950 . S
H1640 C1669 0.950 . S
H1641 C1670 0.950 . S
H1642 C1672 0.950 . S
H1643 C1673 0.950 . S
C1644 H1626 0.951 . S
C1644 C1645 1.366 . S
C1644 C1646 1.388 . S
C1645 C1644 1.366 . S
C1645 C1649 1.385 . S
C1646 H1627 0.951 . S
C1646 C1644 1.388 . S
C1646 C1647 1.366 . S
C1647 C1646 1.366 . S
C1647 C1648 1.414 . S
C1647 C1650 1.499 . S
C1648 H1628 0.950 . S
C1648 C1647 1.414 . S
C1648 C1649 1.374 . S
C1649 H1629 0.950 . S
C1649 C1645 1.385 . S
C1649 C1648 1.374 . S
C1650 C1647 1.499 . S
C1650 C1651 1.373 . S
C1650 C1652 1.389 . S
C1651 H1630 0.950 . S
C1651 C1650 1.373 . S
C1651 C1667 1.377 . S
C1652 C1650 1.389 . S
C1652 C1653 1.524 . S
C1652 C1666 1.377 . S
C1653 C1652 1.524 . S
C1653 C1654 1.397 . S
C1653 C1658 1.363 . S
C1654 H1631 0.950 . S
C1654 C1653 1.397 . S
C1654 C1655 1.334 . S
C1655 H1632 0.950 . S
C1655 C1654 1.334 . S
C1655 C1656 1.287 . S
C1656 C1655 1.287 . S
C1656 C1657 1.524 . S
C1656 H1675 0.913 . S
C1657 H1633 0.950 . S
C1657 C1656 1.524 . S
C1657 C1658 1.415 . S
C1658 H1634 0.950 . S
C1658 C1653 1.363 . S
C1658 C1657 1.415 . S
C1659 H1635 0.951 . S
C1659 C1660 1.366 . S
C1659 C1661 1.388 . S
C1660 C1659 1.366 . S
C1660 C1664 1.385 . S
C1661 H1636 0.951 . S
C1661 C1659 1.388 . S
C1661 C1662 1.366 . S
C1662 C1661 1.366 . S
C1662 C1663 1.414 . S
C1662 C1665 1.499 . S
C1663 H1637 0.950 . S
C1663 C1662 1.414 . S
C1663 C1664 1.374 . S
C1664 H1638 0.950 . S
C1664 C1660 1.385 . S
C1664 C1663 1.374 . S
C1665 C1662 1.499 . S
C1665 C1666 1.373 . S
C1665 C1667 1.389 . S
C1666 H1639 0.950 . S
C1666 C1652 1.377 . S
C1666 C1665 1.373 . S
C1667 C1651 1.377 . S
C1667 C1665 1.389 . S
C1667 C1668 1.524 . S
C1668 C1667 1.524 . S
C1668 C1669 1.397 . S
C1668 C1673 1.363 . S
C1669 H1640 0.950 . S
C1669 C1668 1.397 . S
C1669 C1670 1.334 . S
C1670 H1641 0.950 . S
C1670 C1669 1.334 . S
C1670 C1671 1.287 . S
C1671 C1670 1.287 . S
C1671 C1672 1.524 . S
C1671 H1674 0.999 . S
C1672 H1642 0.950 . S
C1672 C1671 1.524 . S
C1672 C1673 1.415 . S
C1673 H1643 0.950 . S
C1673 C1668 1.363 . S
C1673 C1672 1.415 . S
H1674 C1671 0.999 . S
H1675 C1656 0.913 . S
H1676 C1694 0.951 . S
H1677 C1696 0.951 . S
H1678 C1698 0.950 . S
H1679 C1699 0.950 . S
H1680 C1701 0.950 . S
H1681 C1704 0.950 . S
H1682 C1705 0.950 . S
H1683 C1707 0.950 . S
H1684 C1708 0.950 . S
H1685 C1709 0.951 . S
H1686 C1711 0.951 . S
H1687 C1713 0.950 . S
H1688 C1714 0.950 1_554 S
H1689 C1716 0.950 . S
H1690 C1719 0.950 . S
H1691 C1720 0.950 . S
H1692 C1722 0.950 . S
H1693 C1723 0.950 . S
C1694 H1676 0.951 . S
C1694 C1695 1.366 . S
C1694 C1696 1.388 . S
C1695 C1694 1.366 . S
C1695 C1699 1.385 . S
C1696 H1677 0.951 . S
C1696 C1694 1.388 . S
C1696 C1697 1.366 . S
C1697 C1696 1.366 . S
C1697 C1698 1.414 . S
C1697 C1700 1.499 . S
C1698 H1678 0.950 . S
C1698 C1697 1.414 . S
C1698 C1699 1.374 . S
C1699 H1679 0.950 . S
C1699 C1695 1.385 . S
C1699 C1698 1.374 . S
C1700 C1697 1.499 . S
C1700 C1701 1.373 . S
C1700 C1702 1.389 . S
C1701 H1680 0.950 . S
C1701 C1700 1.373 . S
C1701 C1717 1.377 . S
C1702 C1700 1.389 . S
C1702 C1703 1.524 . S
C1702 C1716 1.377 . S
C1703 C1702 1.524 . S
C1703 C1704 1.397 1_545 S
C1703 C1708 1.363 . S
C1704 H1681 0.950 . S
C1704 C1703 1.397 1_565 S
C1704 C1705 1.334 . S
C1705 H1682 0.950 . S
C1705 C1704 1.334 . S
C1705 C1706 1.287 . S
C1706 C1705 1.287 . S
C1706 C1707 1.524 . S
C1706 H1725 0.913 . S
C1707 H1683 0.950 . S
C1707 C1706 1.524 . S
C1707 C1708 1.415 1_565 S
C1708 H1684 0.950 . S
C1708 C1703 1.363 . S
C1708 C1707 1.415 1_545 S
C1709 H1685 0.951 . S
C1709 C1710 1.366 . S
C1709 C1711 1.388 . S
C1710 C1709 1.366 . S
C1710 C1714 1.385 . S
C1711 H1686 0.951 . S
C1711 C1709 1.388 . S
C1711 C1712 1.366 . S
C1712 C1711 1.366 . S
C1712 C1713 1.414 . S
C1712 C1715 1.499 . S
C1713 H1687 0.950 . S
C1713 C1712 1.414 . S
C1713 C1714 1.374 . S
C1714 H1688 0.950 1_556 S
C1714 C1710 1.385 . S
C1714 C1713 1.374 . S
C1715 C1712 1.499 . S
C1715 C1716 1.373 . S
C1715 C1717 1.389 . S
C1716 H1689 0.950 . S
C1716 C1702 1.377 . S
C1716 C1715 1.373 . S
C1717 C1701 1.377 . S
C1717 C1715 1.389 . S
C1717 C1718 1.524 . S
C1718 C1717 1.524 . S
C1718 C1719 1.397 . S
C1718 C1723 1.363 . S
C1719 H1690 0.950 . S
C1719 C1718 1.397 . S
C1719 C1720 1.334 . S
C1720 H1691 0.950 . S
C1720 C1719 1.334 . S
C1720 C1721 1.287 . S
C1721 C1720 1.287 . S
C1721 C1722 1.524 . S
C1721 H1724 0.999 . S
C1722 H1692 0.950 . S
C1722 C1721 1.524 . S
C1722 C1723 1.415 . S
C1723 H1693 0.950 . S
C1723 C1718 1.363 . S
C1723 C1722 1.415 . S
H1724 C1721 0.999 . S
H1725 C1706 0.913 . S
H1726 C1744 0.951 . S
H1727 C1746 0.951 . S
H1728 C1748 0.950 . S
H1729 C1749 0.950 . S
H1730 C1751 0.950 . S
H1731 C1754 0.950 . S
H1732 C1755 0.950 . S
H1733 C1757 0.950 . S
H1734 C1758 0.950 . S
H1735 C1759 0.951 . S
H1736 C1761 0.951 . S
H1737 C1763 0.950 . S
H1738 C1764 0.950 . S
H1739 C1766 0.950 . S
H1740 C1769 0.950 . S
H1741 C1770 0.950 . S
H1742 C1772 0.950 . S
H1743 C1773 0.950 . S
C1744 H1726 0.951 . S
C1744 C1745 1.366 . S
C1744 C1746 1.388 . S
C1745 C1744 1.366 . S
C1745 C1749 1.385 . S
C1746 H1727 0.951 . S
C1746 C1744 1.388 . S
C1746 C1747 1.366 . S
C1747 C1746 1.366 . S
C1747 C1748 1.414 . S
C1747 C1750 1.499 . S
C1748 H1728 0.950 . S
C1748 C1747 1.414 . S
C1748 C1749 1.374 . S
C1749 H1729 0.950 . S
C1749 C1745 1.385 . S
C1749 C1748 1.374 . S
C1750 C1747 1.499 . S
C1750 C1751 1.373 . S
C1750 C1752 1.389 . S
C1751 H1730 0.950 . S
C1751 C1750 1.373 . S
C1751 C1767 1.377 . S
C1752 C1750 1.389 . S
C1752 C1753 1.524 . S
C1752 C1766 1.377 . S
C1753 C1752 1.524 . S
C1753 C1754 1.397 . S
C1753 C1758 1.363 . S
C1754 H1731 0.950 . S
C1754 C1753 1.397 . S
C1754 C1755 1.334 . S
C1755 H1732 0.950 . S
C1755 C1754 1.334 . S
C1755 C1756 1.287 . S
C1756 C1755 1.287 . S
C1756 C1757 1.524 . S
C1756 H1775 0.913 . S
C1757 H1733 0.950 . S
C1757 C1756 1.524 . S
C1757 C1758 1.415 . S
C1758 H1734 0.950 . S
C1758 C1753 1.363 . S
C1758 C1757 1.415 . S
C1759 H1735 0.951 . S
C1759 C1760 1.366 . S
C1759 C1761 1.388 . S
C1760 C1759 1.366 . S
C1760 C1764 1.385 . S
C1761 H1736 0.951 . S
C1761 C1759 1.388 . S
C1761 C1762 1.366 . S
C1762 C1761 1.366 . S
C1762 C1763 1.414 . S
C1762 C1765 1.499 . S
C1763 H1737 0.950 . S
C1763 C1762 1.414 . S
C1763 C1764 1.374 . S
C1764 H1738 0.950 . S
C1764 C1760 1.385 . S
C1764 C1763 1.374 . S
C1765 C1762 1.499 . S
C1765 C1766 1.373 . S
C1765 C1767 1.389 . S
C1766 H1739 0.950 . S
C1766 C1752 1.377 . S
C1766 C1765 1.373 . S
C1767 C1751 1.377 . S
C1767 C1765 1.389 . S
C1767 C1768 1.524 . S
C1768 C1767 1.524 . S
C1768 C1769 1.397 . S
C1768 C1773 1.363 . S
C1769 H1740 0.950 . S
C1769 C1768 1.397 . S
C1769 C1770 1.334 . S
C1770 H1741 0.950 . S
C1770 C1769 1.334 . S
C1770 C1771 1.287 . S
C1771 C1770 1.287 . S
C1771 C1772 1.524 . S
C1771 H1774 0.999 . S
C1772 H1742 0.950 . S
C1772 C1771 1.524 . S
C1772 C1773 1.415 . S
C1773 H1743 0.950 . S
C1773 C1768 1.363 . S
C1773 C1772 1.415 . S
H1774 C1771 0.999 . S
H1775 C1756 0.913 . S
H1776 C1794 0.951 . S
H1777 C1796 0.951 . S
H1778 C1798 0.950 . S
H1779 C1799 0.950 . S
H1780 C1801 0.950 . S
H1781 C1804 0.950 . S
H1782 C1805 0.926 1_556 S
H1783 C1807 0.951 1_556 S
H1784 C1808 0.950 . S
H1785 C1809 0.951 . S
H1786 C1811 0.951 . S
H1787 C1813 1.000 . S
H1788 C1814 0.950 . S
H1789 C1816 0.950 . S
H1790 C1819 0.950 1_565 S
H1791 C1820 0.950 . S
H1792 C1822 0.950 . S
H1793 C1823 0.950 . S
C1794 H1776 0.951 . S
C1794 C1795 1.366 . S
C1794 C1796 1.388 . S
C1795 C1794 1.366 . S
C1795 C1799 1.385 . S
C1796 H1777 0.951 . S
C1796 C1794 1.388 . S
C1796 C1797 1.366 . S
C1797 C1796 1.366 . S
C1797 C1798 1.414 . S
C1797 C1800 1.499 . S
C1798 H1778 0.950 . S
C1798 C1797 1.414 . S
C1798 C1799 1.374 . S
C1799 H1779 0.950 . S
C1799 C1795 1.385 . S
C1799 C1798 1.374 . S
C1800 C1797 1.499 . S
C1800 C1801 1.373 . S
C1800 C1802 1.389 . S
C1801 H1780 0.950 . S
C1801 C1800 1.373 . S
C1801 C1817 1.377 . S
C1802 C1800 1.389 . S
C1802 C1803 1.524 . S
C1802 C1816 1.377 . S
C1803 C1802 1.524 . S
C1803 C1804 1.397 . S
C1803 C1808 1.363 . S
C1804 H1781 0.950 . S
C1804 C1803 1.397 . S
C1804 C1805 1.334 . S
C1805 H1782 0.926 1_554 S
C1805 C1804 1.334 . S
C1805 C1806 1.287 1_554 S
C1806 C1805 1.287 1_556 S
C1806 C1807 1.524 1_556 S
C1806 H1825 0.913 . S
C1807 H1783 0.951 1_554 S
C1807 C1806 1.524 1_554 S
C1807 C1808 1.415 . S
C1808 H1784 0.950 . S
C1808 C1803 1.363 . S
C1808 C1807 1.415 . S
C1809 H1785 0.951 . S
C1809 C1810 1.366 . S
C1809 C1811 1.388 . S
C1810 C1809 1.366 . S
C1810 C1814 1.385 . S
C1811 H1786 0.951 . S
C1811 C1809 1.388 . S
C1811 C1812 1.366 . S
C1812 C1811 1.366 . S
C1812 C1813 1.406 1_545 S
C1812 C1815 1.499 1_545 S
C1813 H1787 1.000 . S
C1813 C1812 1.406 1_565 S
C1813 C1814 1.333 1_565 S
C1814 H1788 0.950 . S
C1814 C1810 1.385 . S
C1814 C1813 1.333 1_545 S
C1815 C1812 1.499 1_565 S
C1815 C1816 1.373 . S
C1815 C1817 1.389 . S
C1816 H1789 0.950 . S
C1816 C1802 1.377 . S
C1816 C1815 1.373 . S
C1817 C1801 1.377 . S
C1817 C1815 1.389 . S
C1817 C1818 1.524 1_565 S
C1818 C1817 1.524 1_545 S
C1818 C1819 1.397 . S
C1818 C1823 1.363 . S
C1819 H1790 0.950 1_545 S
C1819 C1818 1.397 . S
C1819 C1820 1.334 . S
C1820 H1791 0.950 . S
C1820 C1819 1.334 . S
C1820 C1821 1.287 . S
C1821 C1820 1.287 . S
C1821 C1822 1.524 . S
C1821 H1824 0.999 . S
C1822 H1792 0.950 . S
C1822 C1821 1.524 . S
C1822 C1823 1.415 . S
C1823 H1793 0.950 . S
C1823 C1818 1.363 . S
C1823 C1822 1.415 . S
H1824 C1821 0.999 . S
H1825 C1806 0.913 . S
H1826 C1844 0.951 . S
H1827 C1846 0.951 . S
H1828 C1848 0.950 . S
H1829 C1849 0.950 . S
H1830 C1851 0.950 . S
H1831 C1854 0.950 . S
H1832 C1855 0.950 . S
H1833 C1857 0.950 . S
H1834 C1858 0.964 . S
H1835 C1859 0.951 . S
H1836 C1861 0.951 . S
H1837 C1863 0.950 . S
H1838 C1864 0.950 . S
H1839 C1866 0.950 . S
H1840 C1869 0.939 1_556 S
H1841 C1870 0.950 . S
H1842 C1872 0.950 . S
H1843 C1873 0.950 . S
C1844 H1826 0.951 . S
C1844 C1845 1.366 . S
C1844 C1846 1.388 . S
C1845 C1844 1.366 . S
C1845 C1849 1.385 1_556 S
C1846 H1827 0.951 . S
C1846 C1844 1.388 . S
C1846 C1847 1.366 1_556 S
C1847 C1846 1.366 1_554 S
C1847 C1848 1.414 . S
C1847 C1850 1.499 . S
C1848 H1828 0.950 . S
C1848 C1847 1.414 . S
C1848 C1849 1.374 . S
C1849 H1829 0.950 . S
C1849 C1845 1.385 1_554 S
C1849 C1848 1.374 . S
C1850 C1847 1.499 . S
C1850 C1851 1.373 . S
C1850 C1852 1.389 . S
C1851 H1830 0.950 . S
C1851 C1850 1.373 . S
C1851 C1867 1.377 . S
C1852 C1850 1.389 . S
C1852 C1853 1.524 . S
C1852 C1866 1.377 . S
C1853 C1852 1.524 . S
C1853 C1854 1.397 . S
C1853 C1858 1.363 . S
C1854 H1831 0.950 . S
C1854 C1853 1.397 . S
C1854 C1855 1.334 . S
C1855 H1832 0.950 . S
C1855 C1854 1.334 . S
C1855 C1856 1.287 . S
C1856 C1855 1.287 . S
C1856 C1857 1.524 . S
C1856 H1875 0.913 . S
C1857 H1833 0.950 . S
C1857 C1856 1.524 . S
C1857 C1858 1.415 . S
C1858 H1834 0.964 . S
C1858 C1853 1.363 . S
C1858 C1857 1.415 . S
C1859 H1835 0.951 . S
C1859 C1860 1.366 . S
C1859 C1861 1.388 . S
C1860 C1859 1.366 . S
C1860 C1864 1.385 . S
C1861 H1836 0.951 . S
C1861 C1859 1.388 . S
C1861 C1862 1.366 . S
C1862 C1861 1.366 . S
C1862 C1863 1.414 . S
C1862 C1865 1.499 . S
C1863 H1837 0.950 . S
C1863 C1862 1.414 . S
C1863 C1864 1.374 . S
C1864 H1838 0.950 . S
C1864 C1860 1.385 . S
C1864 C1863 1.374 . S
C1865 C1862 1.499 . S
C1865 C1866 1.373 . S
C1865 C1867 1.389 . S
C1866 H1839 0.950 . S
C1866 C1852 1.377 . S
C1866 C1865 1.373 . S
C1867 C1851 1.377 . S
C1867 C1865 1.389 . S
C1867 C1868 1.524 . S
C1868 C1867 1.524 . S
C1868 C1869 1.408 . S
C1868 C1873 1.363 . S
C1869 H1840 0.939 1_554 S
C1869 C1868 1.408 . S
C1869 C1870 1.335 1_554 S
C1870 H1841 0.950 . S
C1870 C1869 1.335 1_556 S
C1870 C1871 1.287 1_556 S
C1871 C1870 1.287 1_554 S
C1871 C1872 1.524 . S
C1871 H1874 0.999 . S
C1872 H1842 0.950 . S
C1872 C1871 1.524 . S
C1872 C1873 1.415 . S
C1873 H1843 0.950 . S
C1873 C1868 1.363 . S
C1873 C1872 1.415 . S
H1874 C1871 0.999 . S
H1875 C1856 0.913 . S
H1876 C1894 0.951 . S
H1877 C1896 0.951 . S
H1878 C1898 0.950 . S
H1879 C1899 0.950 . S
H1880 C1901 0.950 . S
H1881 C1904 0.950 . S
H1882 C1905 0.950 . S
H1883 C1907 0.950 . S
H1884 C1908 0.950 . S
H1885 C1909 0.951 . S
H1886 C1911 0.951 . S
H1887 C1913 0.950 . S
H1888 C1914 0.950 . S
H1889 C1916 0.950 . S
H1890 C1919 0.950 . S
H1891 C1920 0.950 . S
H1892 C1922 0.950 . S
H1893 C1923 0.950 . S
C1894 H1876 0.951 . S
C1894 C1895 1.366 . S
C1894 C1896 1.388 . S
C1895 C1894 1.366 . S
C1895 C1899 1.385 . S
C1896 H1877 0.951 . S
C1896 C1894 1.388 . S
C1896 C1897 1.366 . S
C1897 C1896 1.366 . S
C1897 C1898 1.414 . S
C1897 C1900 1.499 . S
C1898 H1878 0.950 . S
C1898 C1897 1.414 . S
C1898 C1899 1.374 . S
C1899 H1879 0.950 . S
C1899 C1895 1.385 . S
C1899 C1898 1.374 . S
C1900 C1897 1.499 . S
C1900 C1901 1.373 . S
C1900 C1902 1.389 . S
C1901 H1880 0.950 . S
C1901 C1900 1.373 . S
C1901 C1917 1.377 . S
C1902 C1900 1.389 . S
C1902 C1903 1.524 . S
C1902 C1916 1.377 . S
C1903 C1902 1.524 . S
C1903 C1904 1.397 . S
C1903 C1908 1.363 . S
C1904 H1881 0.950 . S
C1904 C1903 1.397 . S
C1904 C1905 1.334 . S
C1905 H1882 0.950 . S
C1905 C1904 1.334 . S
C1905 C1906 1.287 . S
C1906 C1905 1.287 . S
C1906 C1907 1.524 . S
C1906 H1925 0.913 . S
C1907 H1883 0.950 . S
C1907 C1906 1.524 . S
C1907 C1908 1.415 . S
C1908 H1884 0.950 . S
C1908 C1903 1.363 . S
C1908 C1907 1.415 . S
C1909 H1885 0.951 . S
C1909 C1910 1.366 . S
C1909 C1911 1.388 . S
C1910 C1909 1.366 . S
C1910 C1914 1.385 . S
C1911 H1886 0.951 . S
C1911 C1909 1.388 . S
C1911 C1912 1.366 . S
C1912 C1911 1.366 . S
C1912 C1913 1.414 . S
C1912 C1915 1.499 . S
C1913 H1887 0.950 . S
C1913 C1912 1.414 . S
C1913 C1914 1.374 . S
C1914 H1888 0.950 . S
C1914 C1910 1.385 . S
C1914 C1913 1.374 . S
C1915 C1912 1.499 . S
C1915 C1916 1.373 . S
C1915 C1917 1.389 . S
C1916 H1889 0.950 . S
C1916 C1902 1.377 . S
C1916 C1915 1.373 . S
C1917 C1901 1.377 . S
C1917 C1915 1.389 . S
C1917 C1918 1.524 . S
C1918 C1917 1.524 . S
C1918 C1919 1.397 . S
C1918 C1923 1.363 . S
C1919 H1890 0.950 . S
C1919 C1918 1.397 . S
C1919 C1920 1.334 . S
C1920 H1891 0.950 . S
C1920 C1919 1.334 . S
C1920 C1921 1.287 . S
C1921 C1920 1.287 . S
C1921 C1922 1.524 . S
C1921 H1924 0.999 . S
C1922 H1892 0.950 . S
C1922 C1921 1.524 . S
C1922 C1923 1.415 . S
C1923 H1893 0.950 . S
C1923 C1918 1.363 . S
C1923 C1922 1.415 . S
H1924 C1921 0.999 . S
H1925 C1906 0.913 . S
H1926 C1944 0.951 . S
H1927 C1946 0.951 . S
H1928 C1948 0.950 . S
H1929 C1949 0.950 . S
H1930 C1951 0.950 . S
H1931 C1954 0.950 . S
H1932 C1955 0.950 . S
H1933 C1957 0.950 . S
H1934 C1958 0.950 . S
H1935 C1959 0.951 . S
H1936 C1961 0.951 . S
H1937 C1963 0.950 . S
H1938 C1964 0.950 . S
H1939 C1966 0.950 . S
H1940 C1969 0.950 . S
H1941 C1970 0.950 . S
H1942 C1972 0.950 . S
H1943 C1973 0.950 . S
C1944 H1926 0.951 . S
C1944 C1945 1.366 . S
C1944 C1946 1.388 . S
C1945 C1944 1.366 . S
C1945 C1949 1.385 . S
C1946 H1927 0.951 . S
C1946 C1944 1.388 . S
C1946 C1947 1.366 . S
C1947 C1946 1.366 . S
C1947 C1948 1.414 . S
C1947 C1950 1.499 . S
C1948 H1928 0.950 . S
C1948 C1947 1.414 . S
C1948 C1949 1.374 . S
C1949 H1929 0.950 . S
C1949 C1945 1.385 . S
C1949 C1948 1.374 . S
C1950 C1947 1.499 . S
C1950 C1951 1.373 . S
C1950 C1952 1.389 . S
C1951 H1930 0.950 . S
C1951 C1950 1.373 . S
C1951 C1967 1.377 . S
C1952 C1950 1.389 . S
C1952 C1953 1.524 . S
C1952 C1966 1.377 . S
C1953 C1952 1.524 . S
C1953 C1954 1.397 . S
C1953 C1958 1.363 . S
C1954 H1931 0.950 . S
C1954 C1953 1.397 . S
C1954 C1955 1.334 . S
C1955 H1932 0.950 . S
C1955 C1954 1.334 . S
C1955 C1956 1.287 . S
C1956 C1955 1.287 . S
C1956 C1957 1.524 . S
C1956 H1975 0.913 . S
C1957 H1933 0.950 . S
C1957 C1956 1.524 . S
C1957 C1958 1.415 . S
C1958 H1934 0.950 . S
C1958 C1953 1.363 . S
C1958 C1957 1.415 . S
C1959 H1935 0.951 . S
C1959 C1960 1.366 . S
C1959 C1961 1.388 . S
C1960 C1959 1.366 . S
C1960 C1964 1.385 . S
C1961 H1936 0.951 . S
C1961 C1959 1.388 . S
C1961 C1962 1.366 . S
C1962 C1961 1.366 . S
C1962 C1963 1.414 . S
C1962 C1965 1.499 . S
C1963 H1937 0.950 . S
C1963 C1962 1.414 . S
C1963 C1964 1.374 . S
C1964 H1938 0.950 . S
C1964 C1960 1.385 . S
C1964 C1963 1.374 . S
C1965 C1962 1.499 . S
C1965 C1966 1.373 . S
C1965 C1967 1.389 . S
C1966 H1939 0.950 . S
C1966 C1952 1.377 . S
C1966 C1965 1.373 . S
C1967 C1951 1.377 . S
C1967 C1965 1.389 . S
C1967 C1968 1.524 . S
C1968 C1967 1.524 . S
C1968 C1969 1.397 . S
C1968 C1973 1.363 . S
C1969 H1940 0.950 . S
C1969 C1968 1.397 . S
C1969 C1970 1.334 . S
C1970 H1941 0.950 . S
C1970 C1969 1.334 . S
C1970 C1971 1.287 . S
C1971 C1970 1.287 . S
C1971 C1972 1.524 . S
C1971 H1974 0.999 . S
C1972 H1942 0.950 . S
C1972 C1971 1.524 . S
C1972 C1973 1.415 . S
C1973 H1943 0.950 . S
C1973 C1968 1.363 . S
C1973 C1972 1.415 . S
H1974 C1971 0.999 . S
H1975 C1956 0.913 . S
H1976 C1994 0.951 . S
H1977 C1996 0.951 . S
H1978 C1998 0.950 . S
H1979 C1999 0.950 . S
H1980 C2001 0.950 . S
H1981 C2004 0.950 . S
H1982 C2005 0.950 . S
H1983 C2007 0.950 . S
H1984 C2008 0.950 . S
H1985 C2009 0.951 . S
H1986 C2011 0.951 . S
H1987 C2013 0.950 . S
H1988 C2014 0.950 . S
H1989 C2016 0.950 . S
H1990 C2019 0.950 . S
H1991 C2020 0.950 . S
H1992 C2022 0.950 . S
H1993 C2023 0.950 . S
C1994 H1976 0.951 . S
C1994 C1995 1.366 . S
C1994 C1996 1.388 . S
C1995 C1994 1.366 . S
C1995 C1999 1.385 . S
C1996 H1977 0.951 . S
C1996 C1994 1.388 . S
C1996 C1997 1.366 . S
C1997 C1996 1.366 . S
C1997 C1998 1.414 . S
C1997 C2000 1.499 . S
C1998 H1978 0.950 . S
C1998 C1997 1.414 . S
C1998 C1999 1.374 . S
C1999 H1979 0.950 . S
C1999 C1995 1.385 . S
C1999 C1998 1.374 . S
C2000 C1997 1.499 . S
C2000 C2001 1.373 . S
C2000 C2002 1.389 . S
C2001 H1980 0.950 . S
C2001 C2000 1.373 . S
C2001 C2017 1.377 . S
C2002 C2000 1.389 . S
C2002 C2003 1.524 . S
C2002 C2016 1.377 . S
C2003 C2002 1.524 . S
C2003 C2004 1.397 . S
C2003 C2008 1.363 . S
C2004 H1981 0.950 . S
C2004 C2003 1.397 . S
C2004 C2005 1.334 . S
C2005 H1982 0.950 . S
C2005 C2004 1.334 . S
C2005 C2006 1.287 . S
C2006 C2005 1.287 . S
C2006 C2007 1.524 . S
C2006 H2025 0.913 . S
C2007 H1983 0.950 . S
C2007 C2006 1.524 . S
C2007 C2008 1.415 . S
C2008 H1984 0.950 . S
C2008 C2003 1.363 . S
C2008 C2007 1.415 . S
C2009 H1985 0.951 . S
C2009 C2010 1.366 . S
C2009 C2011 1.388 . S
C2010 C2009 1.366 . S
C2010 C2014 1.385 . S
C2011 H1986 0.951 . S
C2011 C2009 1.388 . S
C2011 C2012 1.366 . S
C2012 C2011 1.366 . S
C2012 C2013 1.414 . S
C2012 C2015 1.499 . S
C2013 H1987 0.950 . S
C2013 C2012 1.414 . S
C2013 C2014 1.374 . S
C2014 H1988 0.950 . S
C2014 C2010 1.385 . S
C2014 C2013 1.374 . S
C2015 C2012 1.499 . S
C2015 C2016 1.373 . S
C2015 C2017 1.389 . S
C2016 H1989 0.950 . S
C2016 C2002 1.377 . S
C2016 C2015 1.373 . S
C2017 C2001 1.377 . S
C2017 C2015 1.389 . S
C2017 C2018 1.524 . S
C2018 C2017 1.524 . S
C2018 C2019 1.397 . S
C2018 C2023 1.363 . S
C2019 H1990 0.950 . S
C2019 C2018 1.397 . S
C2019 C2020 1.334 . S
C2020 H1991 0.950 . S
C2020 C2019 1.334 . S
C2020 C2021 1.287 . S
C2021 C2020 1.287 . S
C2021 C2022 1.524 . S
C2021 H2024 0.999 . S
C2022 H1992 0.950 . S
C2022 C2021 1.524 . S
C2022 C2023 1.415 . S
C2023 H1993 0.950 . S
C2023 C2018 1.363 . S
C2023 C2022 1.415 . S
H2024 C2021 0.999 . S
H2025 C2006 0.913 . S
H2026 C2044 0.951 . S
H2027 C2046 0.951 . S
H2028 C2048 0.950 . S
H2029 C2049 0.950 . S
H2030 C2051 0.950 . S
H2031 C2054 0.950 . S
H2032 C2055 0.950 . S
H2033 C2057 0.950 . S
H2034 C2058 0.950 . S
H2035 C2059 0.951 . S
H2036 C2061 0.951 . S
H2037 C2063 0.950 . S
H2038 C2064 0.950 . S
H2039 C2066 0.950 . S
H2040 C2069 0.950 . S
H2041 C2070 0.950 . S
H2042 C2072 0.950 . S
H2043 C2073 0.950 . S
C2044 H2026 0.951 . S
C2044 C2045 1.366 . S
C2044 C2046 1.388 . S
C2045 C2044 1.366 . S
C2045 C2049 1.385 . S
C2046 H2027 0.951 . S
C2046 C2044 1.388 . S
C2046 C2047 1.366 . S
C2047 C2046 1.366 . S
C2047 C2048 1.414 . S
C2047 C2050 1.499 . S
C2048 H2028 0.950 . S
C2048 C2047 1.414 . S
C2048 C2049 1.374 . S
C2049 H2029 0.950 . S
C2049 C2045 1.385 . S
C2049 C2048 1.374 . S
C2050 C2047 1.499 . S
C2050 C2051 1.373 . S
C2050 C2052 1.389 . S
C2051 H2030 0.950 . S
C2051 C2050 1.373 . S
C2051 C2067 1.377 . S
C2052 C2050 1.389 . S
C2052 C2053 1.524 . S
C2052 C2066 1.377 . S
C2053 C2052 1.524 . S
C2053 C2054 1.397 . S
C2053 C2058 1.363 . S
C2054 H2031 0.950 . S
C2054 C2053 1.397 . S
C2054 C2055 1.334 . S
C2055 H2032 0.950 . S
C2055 C2054 1.334 . S
C2055 C2056 1.287 . S
C2056 C2055 1.287 . S
C2056 C2057 1.524 . S
C2056 H2075 0.913 . S
C2057 H2033 0.950 . S
C2057 C2056 1.524 . S
C2057 C2058 1.415 . S
C2058 H2034 0.950 . S
C2058 C2053 1.363 . S
C2058 C2057 1.415 . S
C2059 H2035 0.951 . S
C2059 C2060 1.366 . S
C2059 C2061 1.388 . S
C2060 C2059 1.366 . S
C2060 C2064 1.385 . S
C2061 H2036 0.951 . S
C2061 C2059 1.388 . S
C2061 C2062 1.366 . S
C2062 C2061 1.366 . S
C2062 C2063 1.414 . S
C2062 C2065 1.499 . S
C2063 H2037 0.950 . S
C2063 C2062 1.414 . S
C2063 C2064 1.374 . S
C2064 H2038 0.950 . S
C2064 C2060 1.385 . S
C2064 C2063 1.374 . S
C2065 C2062 1.499 . S
C2065 C2066 1.373 . S
C2065 C2067 1.389 . S
C2066 H2039 0.950 . S
C2066 C2052 1.377 . S
C2066 C2065 1.373 . S
C2067 C2051 1.377 . S
C2067 C2065 1.389 . S
C2067 C2068 1.524 . S
C2068 C2067 1.524 . S
C2068 C2069 1.397 . S
C2068 C2073 1.363 . S
C2069 H2040 0.950 . S
C2069 C2068 1.397 . S
C2069 C2070 1.334 . S
C2070 H2041 0.950 . S
C2070 C2069 1.334 . S
C2070 C2071 1.287 . S
C2071 C2070 1.287 . S
C2071 C2072 1.524 . S
C2071 H2074 0.999 . S
C2072 H2042 0.950 . S
C2072 C2071 1.524 . S
C2072 C2073 1.415 . S
C2073 H2043 0.950 . S
C2073 C2068 1.363 . S
C2073 C2072 1.415 . S
H2074 C2071 0.999 . S
H2075 C2056 0.913 . S
H2076 C2094 0.951 . S
H2077 C2096 0.951 . S
H2078 C2098 0.950 . S
H2079 C2099 0.950 . S
H2080 C2101 0.950 . S
H2081 C2104 0.950 . S
H2082 C2105 0.950 . S
H2083 C2107 0.950 . S
H2084 C2108 0.950 . S
H2085 C2109 0.951 . S
H2086 C2111 0.951 . S
H2087 C2113 0.950 . S
H2088 C2114 0.950 . S
H2089 C2116 0.950 . S
H2090 C2119 0.950 . S
H2091 C2120 0.950 . S
H2092 C2122 0.950 . S
H2093 C2123 0.950 . S
C2094 H2076 0.951 . S
C2094 C2095 1.366 . S
C2094 C2096 1.388 . S
C2095 C2094 1.366 . S
C2095 C2099 1.385 . S
C2096 H2077 0.951 . S
C2096 C2094 1.388 . S
C2096 C2097 1.366 . S
C2097 C2096 1.366 . S
C2097 C2098 1.414 . S
C2097 C2100 1.499 . S
C2098 H2078 0.950 . S
C2098 C2097 1.414 . S
C2098 C2099 1.374 . S
C2099 H2079 0.950 . S
C2099 C2095 1.385 . S
C2099 C2098 1.374 . S
C2100 C2097 1.499 . S
C2100 C2101 1.373 . S
C2100 C2102 1.389 . S
C2101 H2080 0.950 . S
C2101 C2100 1.373 . S
C2101 C2117 1.377 . S
C2102 C2100 1.389 . S
C2102 C2103 1.524 . S
C2102 C2116 1.377 . S
C2103 C2102 1.524 . S
C2103 C2104 1.397 . S
C2103 C2108 1.363 . S
C2104 H2081 0.950 . S
C2104 C2103 1.397 . S
C2104 C2105 1.334 . S
C2105 H2082 0.950 . S
C2105 C2104 1.334 . S
C2105 C2106 1.287 . S
C2106 C2105 1.287 . S
C2106 C2107 1.524 . S
C2106 H2125 0.913 . S
C2107 H2083 0.950 . S
C2107 C2106 1.524 . S
C2107 C2108 1.415 . S
C2108 H2084 0.950 . S
C2108 C2103 1.363 . S
C2108 C2107 1.415 . S
C2109 H2085 0.951 . S
C2109 C2110 1.366 . S
C2109 C2111 1.388 . S
C2110 C2109 1.366 . S
C2110 C2114 1.385 . S
C2111 H2086 0.951 . S
C2111 C2109 1.388 . S
C2111 C2112 1.366 . S
C2112 C2111 1.366 . S
C2112 C2113 1.414 . S
C2112 C2115 1.499 . S
C2113 H2087 0.950 . S
C2113 C2112 1.414 . S
C2113 C2114 1.374 . S
C2114 H2088 0.950 . S
C2114 C2110 1.385 . S
C2114 C2113 1.374 . S
C2115 C2112 1.499 . S
C2115 C2116 1.373 . S
C2115 C2117 1.389 . S
C2116 H2089 0.950 . S
C2116 C2102 1.377 . S
C2116 C2115 1.373 . S
C2117 C2101 1.377 . S
C2117 C2115 1.389 . S
C2117 C2118 1.524 . S
C2118 C2117 1.524 . S
C2118 C2119 1.397 . S
C2118 C2123 1.363 . S
C2119 H2090 0.950 . S
C2119 C2118 1.397 . S
C2119 C2120 1.334 . S
C2120 H2091 0.950 . S
C2120 C2119 1.334 . S
C2120 C2121 1.287 . S
C2121 C2120 1.287 . S
C2121 C2122 1.524 . S
C2121 H2124 0.999 . S
C2122 H2092 0.950 . S
C2122 C2121 1.524 . S
C2122 C2123 1.415 . S
C2123 H2093 0.950 . S
C2123 C2118 1.363 . S
C2123 C2122 1.415 . S
H2124 C2121 0.999 . S
H2125 C2106 0.913 . S
H2126 C2144 0.951 . S
H2127 C2146 0.951 . S
H2128 C2148 0.950 . S
H2129 C2149 0.950 . S
H2130 C2151 0.950 . S
H2131 C2154 0.950 . S
H2132 C2155 0.950 . S
H2133 C2157 0.950 . S
H2134 C2158 0.950 . S
H2135 C2159 0.951 . S
H2136 C2161 0.951 . S
H2137 C2163 0.950 . S
H2138 C2164 0.950 . S
H2139 C2166 0.950 . S
H2140 C2169 0.950 . S
H2141 C2170 0.950 . S
H2142 C2172 0.950 . S
H2143 C2173 0.950 . S
C2144 H2126 0.951 . S
C2144 C2145 1.366 . S
C2144 C2146 1.388 . S
C2145 C2144 1.366 . S
C2145 C2149 1.385 . S
C2146 H2127 0.951 . S
C2146 C2144 1.388 . S
C2146 C2147 1.366 . S
C2147 C2146 1.366 . S
C2147 C2148 1.414 . S
C2147 C2150 1.499 . S
C2148 H2128 0.950 . S
C2148 C2147 1.414 . S
C2148 C2149 1.374 . S
C2149 H2129 0.950 . S
C2149 C2145 1.385 . S
C2149 C2148 1.374 . S
C2150 C2147 1.499 . S
C2150 C2151 1.373 . S
C2150 C2152 1.389 . S
C2151 H2130 0.950 . S
C2151 C2150 1.373 . S
C2151 C2167 1.377 . S
C2152 C2150 1.389 . S
C2152 C2153 1.524 . S
C2152 C2166 1.377 . S
C2153 C2152 1.524 . S
C2153 C2154 1.397 . S
C2153 C2158 1.363 . S
C2154 H2131 0.950 . S
C2154 C2153 1.397 . S
C2154 C2155 1.334 . S
C2155 H2132 0.950 . S
C2155 C2154 1.334 . S
C2155 C2156 1.287 . S
C2156 C2155 1.287 . S
C2156 C2157 1.524 . S
C2156 H2175 0.913 . S
C2157 H2133 0.950 . S
C2157 C2156 1.524 . S
C2157 C2158 1.415 . S
C2158 H2134 0.950 . S
C2158 C2153 1.363 . S
C2158 C2157 1.415 . S
C2159 H2135 0.951 . S
C2159 C2160 1.366 . S
C2159 C2161 1.388 . S
C2160 C2159 1.366 . S
C2160 C2164 1.385 . S
C2161 H2136 0.951 . S
C2161 C2159 1.388 . S
C2161 C2162 1.366 . S
C2162 C2161 1.366 . S
C2162 C2163 1.414 . S
C2162 C2165 1.499 . S
C2163 H2137 0.950 . S
C2163 C2162 1.414 . S
C2163 C2164 1.374 . S
C2164 H2138 0.950 . S
C2164 C2160 1.385 . S
C2164 C2163 1.374 . S
C2165 C2162 1.499 . S
C2165 C2166 1.373 . S
C2165 C2167 1.389 . S
C2166 H2139 0.950 . S
C2166 C2152 1.377 . S
C2166 C2165 1.373 . S
C2167 C2151 1.377 . S
C2167 C2165 1.389 . S
C2167 C2168 1.524 . S
C2168 C2167 1.524 . S
C2168 C2169 1.397 . S
C2168 C2173 1.363 . S
C2169 H2140 0.950 . S
C2169 C2168 1.397 . S
C2169 C2170 1.334 . S
C2170 H2141 0.950 . S
C2170 C2169 1.334 . S
C2170 C2171 1.287 . S
C2171 C2170 1.287 . S
C2171 C2172 1.524 . S
C2171 H2174 0.999 . S
C2172 H2142 0.950 . S
C2172 C2171 1.524 . S
C2172 C2173 1.415 . S
C2173 H2143 0.950 . S
C2173 C2168 1.363 . S
C2173 C2172 1.415 . S
H2174 C2171 0.999 . S
H2175 C2156 0.913 . S
H2176 C2194 0.951 . S
H2177 C2196 0.951 . S
H2178 C2198 0.950 . S
H2179 C2199 0.950 . S
H2180 C2201 0.950 . S
H2181 C2204 0.950 . S
H2182 C2205 0.950 . S
H2183 C2207 0.950 . S
H2184 C2208 0.950 . S
H2185 C2209 0.951 . S
H2186 C2211 0.951 . S
H2187 C2213 0.950 . S
H2188 C2214 0.950 . S
H2189 C2216 0.950 . S
H2190 C2219 0.950 . S
H2191 C2220 0.950 . S
H2192 C2222 0.950 . S
H2193 C2223 0.950 . S
C2194 H2176 0.951 . S
C2194 C2195 1.366 . S
C2194 C2196 1.388 . S
C2195 C2194 1.366 . S
C2195 C2199 1.385 . S
C2196 H2177 0.951 . S
C2196 C2194 1.388 . S
C2196 C2197 1.366 . S
C2197 C2196 1.366 . S
C2197 C2198 1.414 . S
C2197 C2200 1.499 . S
C2198 H2178 0.950 . S
C2198 C2197 1.414 . S
C2198 C2199 1.374 . S
C2199 H2179 0.950 . S
C2199 C2195 1.385 . S
C2199 C2198 1.374 . S
C2200 C2197 1.499 . S
C2200 C2201 1.373 . S
C2200 C2202 1.389 . S
C2201 H2180 0.950 . S
C2201 C2200 1.373 . S
C2201 C2217 1.377 . S
C2202 C2200 1.389 . S
C2202 C2203 1.524 . S
C2202 C2216 1.377 . S
C2203 C2202 1.524 . S
C2203 C2204 1.397 . S
C2203 C2208 1.363 . S
C2204 H2181 0.950 . S
C2204 C2203 1.397 . S
C2204 C2205 1.334 . S
C2205 H2182 0.950 . S
C2205 C2204 1.334 . S
C2205 C2206 1.287 . S
C2206 C2205 1.287 . S
C2206 C2207 1.524 . S
C2206 H2225 0.913 . S
C2207 H2183 0.950 . S
C2207 C2206 1.524 . S
C2207 C2208 1.415 . S
C2208 H2184 0.950 . S
C2208 C2203 1.363 . S
C2208 C2207 1.415 . S
C2209 H2185 0.951 . S
C2209 C2210 1.366 . S
C2209 C2211 1.388 . S
C2210 C2209 1.366 . S
C2210 C2214 1.385 . S
C2211 H2186 0.951 . S
C2211 C2209 1.388 . S
C2211 C2212 1.366 . S
C2212 C2211 1.366 . S
C2212 C2213 1.414 . S
C2212 C2215 1.499 . S
C2213 H2187 0.950 . S
C2213 C2212 1.414 . S
C2213 C2214 1.374 . S
C2214 H2188 0.950 . S
C2214 C2210 1.385 . S
C2214 C2213 1.374 . S
C2215 C2212 1.499 . S
C2215 C2216 1.373 . S
C2215 C2217 1.389 . S
C2216 H2189 0.950 . S
C2216 C2202 1.377 . S
C2216 C2215 1.373 . S
C2217 C2201 1.377 . S
C2217 C2215 1.389 . S
C2217 C2218 1.524 . S
C2218 C2217 1.524 . S
C2218 C2219 1.397 1_455 S
C2218 C2223 1.363 . S
C2219 H2190 0.950 . S
C2219 C2218 1.397 1_655 S
C2219 C2220 1.334 . S
C2220 H2191 0.950 . S
C2220 C2219 1.334 . S
C2220 C2221 1.287 . S
C2221 C2220 1.287 . S
C2221 C2222 1.524 1_655 S
C2221 H2224 0.999 . S
C2222 H2192 0.950 . S
C2222 C2221 1.524 1_455 S
C2222 C2223 1.415 . S
C2223 H2193 0.950 . S
C2223 C2218 1.363 . S
C2223 C2222 1.415 . S
H2224 C2221 0.999 . S
H2225 C2206 0.913 . S
H2226 C2244 0.951 . S
H2227 C2246 0.951 . S
H2228 C2248 0.950 . S
H2229 C2249 0.950 . S
H2230 C2251 0.950 . S
H2231 C2254 0.950 . S
H2232 C2255 0.950 . S
H2233 C2257 0.950 . S
H2234 C2258 0.950 . S
H2235 C2259 0.951 . S
H2236 C2261 0.951 . S
H2237 C2263 0.950 . S
H2238 C2264 0.950 . S
H2239 C2266 0.950 . S
H2240 C2269 0.950 . S
H2241 C2270 0.950 . S
H2242 C2272 0.950 . S
H2243 C2273 0.950 . S
C2244 H2226 0.951 . S
C2244 C2245 1.366 . S
C2244 C2246 1.388 . S
C2245 C2244 1.366 . S
C2245 C2249 1.385 . S
C2246 H2227 0.951 . S
C2246 C2244 1.388 . S
C2246 C2247 1.366 . S
C2247 C2246 1.366 . S
C2247 C2248 1.414 . S
C2247 C2250 1.499 . S
C2248 H2228 0.950 . S
C2248 C2247 1.414 . S
C2248 C2249 1.374 . S
C2249 H2229 0.950 . S
C2249 C2245 1.385 . S
C2249 C2248 1.374 . S
C2250 C2247 1.499 . S
C2250 C2251 1.373 . S
C2250 C2252 1.389 . S
C2251 H2230 0.950 . S
C2251 C2250 1.373 . S
C2251 C2267 1.377 . S
C2252 C2250 1.389 . S
C2252 C2253 1.524 . S
C2252 C2266 1.377 . S
C2253 C2252 1.524 . S
C2253 C2254 1.397 . S
C2253 C2258 1.363 . S
C2254 H2231 0.950 . S
C2254 C2253 1.397 . S
C2254 C2255 1.334 . S
C2255 H2232 0.950 . S
C2255 C2254 1.334 . S
C2255 C2256 1.287 . S
C2256 C2255 1.287 . S
C2256 C2257 1.524 . S
C2256 H2275 0.913 . S
C2257 H2233 0.950 . S
C2257 C2256 1.524 . S
C2257 C2258 1.415 . S
C2258 H2234 0.950 . S
C2258 C2253 1.363 . S
C2258 C2257 1.415 . S
C2259 H2235 0.951 . S
C2259 C2260 1.366 . S
C2259 C2261 1.388 . S
C2260 C2259 1.366 . S
C2260 C2264 1.385 . S
C2261 H2236 0.951 . S
C2261 C2259 1.388 . S
C2261 C2262 1.366 . S
C2262 C2261 1.366 . S
C2262 C2263 1.414 . S
C2262 C2265 1.499 . S
C2263 H2237 0.950 . S
C2263 C2262 1.414 . S
C2263 C2264 1.374 . S
C2264 H2238 0.950 . S
C2264 C2260 1.385 . S
C2264 C2263 1.374 . S
C2265 C2262 1.499 . S
C2265 C2266 1.373 . S
C2265 C2267 1.389 . S
C2266 H2239 0.950 . S
C2266 C2252 1.377 . S
C2266 C2265 1.373 . S
C2267 C2251 1.377 . S
C2267 C2265 1.389 . S
C2267 C2268 1.524 . S
C2268 C2267 1.524 . S
C2268 C2269 1.397 . S
C2268 C2273 1.363 . S
C2269 H2240 0.950 . S
C2269 C2268 1.397 . S
C2269 C2270 1.334 . S
C2270 H2241 0.950 . S
C2270 C2269 1.334 . S
C2270 C2271 1.287 . S
C2271 C2270 1.287 . S
C2271 C2272 1.524 . S
C2271 H2274 0.999 . S
C2272 H2242 0.950 . S
C2272 C2271 1.524 . S
C2272 C2273 1.415 . S
C2273 H2243 0.950 . S
C2273 C2268 1.363 . S
C2273 C2272 1.415 . S
H2274 C2271 0.999 . S
H2275 C2256 0.913 . S
H2276 C2294 0.951 . S
H2277 C2296 0.951 . S
H2278 C2298 0.950 . S
H2279 C2299 0.950 . S
H2280 C2301 0.950 . S
H2281 C2304 0.950 . S
H2282 C2305 0.950 . S
H2283 C2307 0.950 . S
H2284 C2308 0.950 . S
H2285 C2309 0.951 . S
H2286 C2311 0.951 . S
H2287 C2313 0.950 . S
H2288 C2314 0.950 . S
H2289 C2316 0.950 . S
H2290 C2319 0.950 . S
H2291 C2320 0.950 . S
H2292 C2322 0.950 . S
H2293 C2323 0.950 . S
C2294 H2276 0.951 . S
C2294 C2295 1.366 . S
C2294 C2296 1.388 . S
C2295 C2294 1.366 . S
C2295 C2299 1.385 . S
C2296 H2277 0.951 . S
C2296 C2294 1.388 . S
C2296 C2297 1.366 . S
C2297 C2296 1.366 . S
C2297 C2298 1.414 . S
C2297 C2300 1.499 . S
C2298 H2278 0.950 . S
C2298 C2297 1.414 . S
C2298 C2299 1.374 . S
C2299 H2279 0.950 . S
C2299 C2295 1.385 . S
C2299 C2298 1.374 . S
C2300 C2297 1.499 . S
C2300 C2301 1.373 . S
C2300 C2302 1.389 . S
C2301 H2280 0.950 . S
C2301 C2300 1.373 . S
C2301 C2317 1.377 . S
C2302 C2300 1.389 . S
C2302 C2303 1.524 . S
C2302 C2316 1.377 . S
C2303 C2302 1.524 . S
C2303 C2304 1.397 . S
C2303 C2308 1.363 . S
C2304 H2281 0.950 . S
C2304 C2303 1.397 . S
C2304 C2305 1.334 . S
C2305 H2282 0.950 . S
C2305 C2304 1.334 . S
C2305 C2306 1.287 . S
C2306 C2305 1.287 . S
C2306 C2307 1.524 . S
C2306 H2325 0.913 . S
C2307 H2283 0.950 . S
C2307 C2306 1.524 . S
C2307 C2308 1.415 . S
C2308 H2284 0.950 . S
C2308 C2303 1.363 . S
C2308 C2307 1.415 . S
C2309 H2285 0.951 . S
C2309 C2310 1.366 . S
C2309 C2311 1.388 . S
C2310 C2309 1.366 . S
C2310 C2314 1.385 . S
C2311 H2286 0.951 . S
C2311 C2309 1.388 . S
C2311 C2312 1.366 . S
C2312 C2311 1.366 . S
C2312 C2313 1.414 . S
C2312 C2315 1.499 . S
C2313 H2287 0.950 . S
C2313 C2312 1.414 . S
C2313 C2314 1.374 . S
C2314 H2288 0.950 . S
C2314 C2310 1.385 . S
C2314 C2313 1.374 . S
C2315 C2312 1.499 . S
C2315 C2316 1.373 . S
C2315 C2317 1.389 . S
C2316 H2289 0.950 . S
C2316 C2302 1.377 . S
C2316 C2315 1.373 . S
C2317 C2301 1.377 . S
C2317 C2315 1.389 . S
C2317 C2318 1.524 . S
C2318 C2317 1.524 . S
C2318 C2319 1.397 . S
C2318 C2323 1.363 . S
C2319 H2290 0.950 . S
C2319 C2318 1.397 . S
C2319 C2320 1.334 . S
C2320 H2291 0.950 . S
C2320 C2319 1.334 . S
C2320 C2321 1.287 . S
C2321 C2320 1.287 . S
C2321 C2322 1.524 . S
C2321 H2324 0.999 . S
C2322 H2292 0.950 . S
C2322 C2321 1.524 . S
C2322 C2323 1.415 . S
C2323 H2293 0.950 . S
C2323 C2318 1.363 . S
C2323 C2322 1.415 . S
H2324 C2321 0.999 . S
H2325 C2306 0.913 . S
H2326 C2344 0.951 . S
H2327 C2346 0.951 . S
H2328 C2348 0.950 . S
H2329 C2349 0.950 . S
H2330 C2351 0.950 . S
H2331 C2354 0.950 . S
H2332 C2355 0.950 . S
H2333 C2357 0.950 . S
H2334 C2358 0.950 . S
H2335 C2359 0.951 . S
H2336 C2361 0.951 . S
H2337 C2363 0.950 . S
H2338 C2364 0.950 . S
H2339 C2366 0.950 . S
H2340 C2369 0.950 . S
H2341 C2370 0.950 . S
H2342 C2372 0.950 . S
H2343 C2373 0.950 . S
C2344 H2326 0.951 . S
C2344 C2345 1.366 . S
C2344 C2346 1.388 . S
C2345 C2344 1.366 . S
C2345 C2349 1.385 . S
C2346 H2327 0.951 . S
C2346 C2344 1.388 . S
C2346 C2347 1.366 . S
C2347 C2346 1.366 . S
C2347 C2348 1.414 . S
C2347 C2350 1.499 . S
C2348 H2328 0.950 . S
C2348 C2347 1.414 . S
C2348 C2349 1.374 . S
C2349 H2329 0.950 . S
C2349 C2345 1.385 . S
C2349 C2348 1.374 . S
C2350 C2347 1.499 . S
C2350 C2351 1.373 . S
C2350 C2352 1.389 . S
C2351 H2330 0.950 . S
C2351 C2350 1.373 . S
C2351 C2367 1.377 . S
C2352 C2350 1.389 . S
C2352 C2353 1.524 . S
C2352 C2366 1.377 . S
C2353 C2352 1.524 . S
C2353 C2354 1.397 . S
C2353 C2358 1.363 . S
C2354 H2331 0.950 . S
C2354 C2353 1.397 . S
C2354 C2355 1.334 . S
C2355 H2332 0.950 . S
C2355 C2354 1.334 . S
C2355 C2356 1.287 . S
C2356 C2355 1.287 . S
C2356 C2357 1.524 . S
C2356 H2375 0.913 . S
C2357 H2333 0.950 . S
C2357 C2356 1.524 . S
C2357 C2358 1.415 . S
C2358 H2334 0.950 . S
C2358 C2353 1.363 . S
C2358 C2357 1.415 . S
C2359 H2335 0.951 . S
C2359 C2360 1.366 . S
C2359 C2361 1.388 . S
C2360 C2359 1.366 . S
C2360 C2364 1.385 . S
C2361 H2336 0.951 . S
C2361 C2359 1.388 . S
C2361 C2362 1.366 . S
C2362 C2361 1.366 . S
C2362 C2363 1.414 . S
C2362 C2365 1.499 . S
C2363 H2337 0.950 . S
C2363 C2362 1.414 . S
C2363 C2364 1.374 . S
C2364 H2338 0.950 . S
C2364 C2360 1.385 . S
C2364 C2363 1.374 . S
C2365 C2362 1.499 . S
C2365 C2366 1.373 . S
C2365 C2367 1.389 . S
C2366 H2339 0.950 . S
C2366 C2352 1.377 . S
C2366 C2365 1.373 . S
C2367 C2351 1.377 . S
C2367 C2365 1.389 . S
C2367 C2368 1.524 . S
C2368 C2367 1.524 . S
C2368 C2369 1.397 . S
C2368 C2373 1.363 . S
C2369 H2340 0.950 . S
C2369 C2368 1.397 . S
C2369 C2370 1.334 . S
C2370 H2341 0.950 . S
C2370 C2369 1.334 . S
C2370 C2371 1.287 . S
C2371 C2370 1.287 . S
C2371 C2372 1.524 . S
C2371 H2374 0.999 . S
C2372 H2342 0.950 . S
C2372 C2371 1.524 . S
C2372 C2373 1.415 . S
C2373 H2343 0.950 . S
C2373 C2368 1.363 . S
C2373 C2372 1.415 . S
H2374 C2371 0.999 . S
H2375 C2356 0.913 . S
H2376 C2394 0.951 . S
H2377 C2396 0.951 . S
H2378 C2398 0.950 . S
H2379 C2399 0.950 . S
H2380 C2401 0.950 . S
H2381 C2404 0.966 . S
H2382 C2405 0.950 . S
H2383 C2407 0.950 . S
H2384 C2408 0.950 . S
H2385 C2409 0.938 1_655 S
H2386 C2411 0.951 . S
H2387 C2413 0.950 . S
H2388 C2414 0.950 . S
H2389 C2416 0.950 . S
H2390 C2419 0.950 . S
H2391 C2420 0.950 . S
H2392 C2422 0.950 . S
H2393 C2423 0.950 . S
C2394 H2376 0.951 . S
C2394 C2395 1.366 . S
C2394 C2396 1.388 . S
C2395 C2394 1.366 . S
C2395 C2399 1.385 . S
C2396 H2377 0.951 . S
C2396 C2394 1.388 . S
C2396 C2397 1.366 . S
C2397 C2396 1.366 . S
C2397 C2398 1.414 . S
C2397 C2400 1.499 . S
C2398 H2378 0.950 . S
C2398 C2397 1.414 . S
C2398 C2399 1.374 . S
C2399 H2379 0.950 . S
C2399 C2395 1.385 . S
C2399 C2398 1.374 . S
C2400 C2397 1.499 . S
C2400 C2401 1.373 . S
C2400 C2402 1.389 . S
C2401 H2380 0.950 . S
C2401 C2400 1.373 . S
C2401 C2417 1.377 . S
C2402 C2400 1.389 . S
C2402 C2403 1.524 . S
C2402 C2416 1.377 . S
C2403 C2402 1.524 . S
C2403 C2404 1.363 1_455 S
C2403 C2408 1.363 . S
C2404 H2381 0.966 . S
C2404 C2403 1.363 1_655 S
C2404 C2405 1.353 . S
C2405 H2382 0.950 . S
C2405 C2404 1.353 . S
C2405 C2406 1.287 . S
C2406 C2405 1.287 . S
C2406 C2407 1.524 1_655 S
C2406 H2425 0.913 . S
C2407 H2383 0.950 . S
C2407 C2406 1.524 1_455 S
C2407 C2408 1.415 . S
C2408 H2384 0.950 . S
C2408 C2403 1.363 . S
C2408 C2407 1.415 . S
C2409 H2385 0.938 1_455 S
C2409 C2410 1.376 . S
C2409 C2411 1.391 . S
C2410 C2409 1.376 . S
C2410 C2414 1.385 . S
C2411 H2386 0.951 . S
C2411 C2409 1.391 . S
C2411 C2412 1.366 . S
C2412 C2411 1.366 . S
C2412 C2413 1.414 . S
C2412 C2415 1.499 . S
C2413 H2387 0.950 . S
C2413 C2412 1.414 . S
C2413 C2414 1.374 . S
C2414 H2388 0.950 . S
C2414 C2410 1.385 . S
C2414 C2413 1.374 . S
C2415 C2412 1.499 . S
C2415 C2416 1.373 . S
C2415 C2417 1.389 . S
C2416 H2389 0.950 . S
C2416 C2402 1.377 . S
C2416 C2415 1.373 . S
C2417 C2401 1.377 . S
C2417 C2415 1.389 . S
C2417 C2418 1.524 . S
C2418 C2417 1.524 . S
C2418 C2419 1.397 . S
C2418 C2423 1.363 . S
C2419 H2390 0.950 . S
C2419 C2418 1.397 . S
C2419 C2420 1.334 . S
C2420 H2391 0.950 . S
C2420 C2419 1.334 . S
C2420 C2421 1.287 . S
C2421 C2420 1.287 . S
C2421 C2422 1.524 . S
C2421 H2424 0.999 . S
C2422 H2392 0.950 . S
C2422 C2421 1.524 . S
C2422 C2423 1.415 . S
C2423 H2393 0.950 . S
C2423 C2418 1.363 . S
C2423 C2422 1.415 . S
H2424 C2421 0.999 . S
H2425 C2406 0.913 . S
H2426 C2444 0.951 . S
H2427 C2446 0.951 . S
H2428 C2448 0.950 . S
H2429 C2449 0.950 . S
H2430 C2451 0.950 . S
H2431 C2454 0.950 . S
H2432 C2455 0.950 . S
H2433 C2457 0.950 . S
H2434 C2458 0.950 . S
H2435 C2459 0.951 . S
H2436 C2461 0.951 . S
H2437 C2463 0.950 . S
H2438 C2464 0.950 . S
H2439 C2466 0.950 . S
H2440 C2469 0.950 . S
H2441 C2470 0.950 . S
H2442 C2472 0.950 . S
H2443 C2473 0.950 . S
C2444 H2426 0.951 . S
C2444 C2445 1.366 . S
C2444 C2446 1.388 . S
C2445 C2444 1.366 . S
C2445 C2449 1.385 . S
C2446 H2427 0.951 . S
C2446 C2444 1.388 . S
C2446 C2447 1.366 . S
C2447 C2446 1.366 . S
C2447 C2448 1.414 . S
C2447 C2450 1.499 . S
C2448 H2428 0.950 . S
C2448 C2447 1.414 . S
C2448 C2449 1.374 . S
C2449 H2429 0.950 . S
C2449 C2445 1.385 . S
C2449 C2448 1.374 . S
C2450 C2447 1.499 . S
C2450 C2451 1.373 . S
C2450 C2452 1.389 . S
C2451 H2430 0.950 . S
C2451 C2450 1.373 . S
C2451 C2467 1.377 . S
C2452 C2450 1.389 . S
C2452 C2453 1.524 . S
C2452 C2466 1.377 . S
C2453 C2452 1.524 . S
C2453 C2454 1.397 . S
C2453 C2458 1.363 . S
C2454 H2431 0.950 . S
C2454 C2453 1.397 . S
C2454 C2455 1.334 . S
C2455 H2432 0.950 . S
C2455 C2454 1.334 . S
C2455 C2456 1.287 . S
C2456 C2455 1.287 . S
C2456 C2457 1.524 . S
C2456 H2475 0.913 . S
C2457 H2433 0.950 . S
C2457 C2456 1.524 . S
C2457 C2458 1.415 . S
C2458 H2434 0.950 . S
C2458 C2453 1.363 . S
C2458 C2457 1.415 . S
C2459 H2435 0.951 . S
C2459 C2460 1.366 . S
C2459 C2461 1.388 . S
C2460 C2459 1.366 . S
C2460 C2464 1.385 . S
C2461 H2436 0.951 . S
C2461 C2459 1.388 . S
C2461 C2462 1.366 . S
C2462 C2461 1.366 . S
C2462 C2463 1.414 . S
C2462 C2465 1.499 . S
C2463 H2437 0.950 . S
C2463 C2462 1.414 . S
C2463 C2464 1.374 . S
C2464 H2438 0.950 . S
C2464 C2460 1.385 . S
C2464 C2463 1.374 . S
C2465 C2462 1.499 . S
C2465 C2466 1.373 . S
C2465 C2467 1.389 . S
C2466 H2439 0.950 . S
C2466 C2452 1.377 . S
C2466 C2465 1.373 . S
C2467 C2451 1.377 . S
C2467 C2465 1.389 . S
C2467 C2468 1.524 . S
C2468 C2467 1.524 . S
C2468 C2469 1.397 . S
C2468 C2473 1.363 . S
C2469 H2440 0.950 . S
C2469 C2468 1.397 . S
C2469 C2470 1.334 . S
C2470 H2441 0.950 . S
C2470 C2469 1.334 . S
C2470 C2471 1.287 . S
C2471 C2470 1.287 . S
C2471 C2472 1.524 . S
C2471 H2474 0.999 . S
C2472 H2442 0.950 . S
C2472 C2471 1.524 . S
C2472 C2473 1.415 . S
C2473 H2443 0.950 . S
C2473 C2468 1.363 . S
C2473 C2472 1.415 . S
H2474 C2471 0.999 . S
H2475 C2456 0.913 . S
H2476 C2494 0.951 . S
H2477 C2496 0.951 . S
H2478 C2498 0.950 . S
H2479 C2499 0.950 . S
H2480 C2501 0.950 1_556 S
H2481 C2504 0.950 1_556 S
H2482 C2505 0.951 1_556 S
H2483 C2507 0.950 . S
H2484 C2508 0.950 . S
H2485 C2509 0.951 . S
H2486 C2511 0.906 1_566 S
H2487 C2513 0.950 . S
H2488 C2514 0.950 . S
H2489 C2516 0.950 . S
H2490 C2519 0.937 1_565 S
H2491 C2520 0.950 . S
H2492 C2522 0.950 . S
H2493 C2523 0.950 . S
C2494 H2476 0.951 . S
C2494 C2495 1.366 1_554 S
C2494 C2496 1.388 . S
C2495 C2494 1.366 1_556 S
C2495 C2499 1.385 . S
C2496 H2477 0.951 . S
C2496 C2494 1.388 . S
C2496 C2497 1.366 . S
C2497 C2496 1.366 . S
C2497 C2498 1.414 1_554 S
C2497 C2500 1.499 . S
C2498 H2478 0.950 . S
C2498 C2497 1.414 1_556 S
C2498 C2499 1.374 . S
C2499 H2479 0.950 . S
C2499 C2495 1.385 . S
C2499 C2498 1.374 . S
C2500 C2497 1.499 . S
C2500 C2501 1.373 . S
C2500 C2502 1.389 . S
C2501 H2480 0.950 1_554 S
C2501 C2500 1.373 . S
C2501 C2517 1.377 . S
C2502 C2500 1.389 . S
C2502 C2503 1.524 . S
C2502 C2516 1.377 . S
C2503 C2502 1.524 . S
C2503 C2504 1.397 . S
C2503 C2508 1.363 . S
C2504 H2481 0.950 1_554 S
C2504 C2503 1.397 . S
C2504 C2505 1.334 . S
C2505 H2482 0.951 1_554 S
C2505 C2504 1.334 . S
C2505 C2506 1.287 . S
C2506 C2505 1.287 . S
C2506 C2507 1.524 . S
C2506 H2525 0.913 . S
C2507 H2483 0.950 . S
C2507 C2506 1.524 . S
C2507 C2508 1.415 . S
C2508 H2484 0.950 . S
C2508 C2503 1.363 . S
C2508 C2507 1.415 . S
C2509 H2485 0.951 . S
C2509 C2510 1.366 . S
C2509 C2511 1.388 . S
C2510 C2509 1.366 . S
C2510 C2514 1.385 . S
C2511 H2486 0.906 1_544 S
C2511 C2509 1.388 . S
C2511 C2512 1.366 1_545 S
C2512 C2511 1.366 1_565 S
C2512 C2513 1.414 . S
C2512 C2515 1.499 . S
C2513 H2487 0.950 . S
C2513 C2512 1.414 . S
C2513 C2514 1.374 1_565 S
C2514 H2488 0.950 . S
C2514 C2510 1.385 . S
C2514 C2513 1.374 1_545 S
C2515 C2512 1.499 . S
C2515 C2516 1.373 . S
C2515 C2517 1.389 . S
C2516 H2489 0.950 . S
C2516 C2502 1.377 . S
C2516 C2515 1.373 . S
C2517 C2501 1.377 . S
C2517 C2515 1.389 . S
C2517 C2518 1.524 . S
C2518 C2517 1.524 . S
C2518 C2519 1.387 1_565 S
C2518 C2523 1.363 1_554 S
C2519 H2490 0.937 1_545 S
C2519 C2518 1.387 1_545 S
C2519 C2520 1.348 . S
C2520 H2491 0.950 . S
C2520 C2519 1.348 . S
C2520 C2521 1.280 . S
C2521 C2520 1.280 . S
C2521 C2522 1.529 1_554 S
C2521 H2524 1.002 1_554 S
C2522 H2492 0.950 . S
C2522 C2521 1.529 1_556 S
C2522 C2523 1.415 1_545 S
C2523 H2493 0.950 . S
C2523 C2518 1.363 1_556 S
C2523 C2522 1.415 1_565 S
H2524 C2521 1.002 1_556 S
H2525 C2506 0.913 . S
H2526 C2544 0.951 . S
H2527 C2546 0.951 . S
H2528 C2548 0.950 . S
H2529 C2549 0.950 . S
H2530 C2551 0.950 . S
H2531 C2554 0.950 . S
H2532 C2555 0.950 . S
H2533 C2557 0.950 . S
H2534 C2558 0.950 . S
H2535 C2559 0.951 . S
H2536 C2561 0.951 . S
H2537 C2563 0.950 . S
H2538 C2564 0.950 . S
H2539 C2566 0.950 . S
H2540 C2569 0.950 . S
H2541 C2570 0.950 . S
H2542 C2572 0.950 . S
H2543 C2573 0.950 . S
C2544 H2526 0.951 . S
C2544 C2545 1.366 . S
C2544 C2546 1.388 . S
C2545 C2544 1.366 . S
C2545 C2549 1.385 . S
C2546 H2527 0.951 . S
C2546 C2544 1.388 . S
C2546 C2547 1.366 . S
C2547 C2546 1.366 . S
C2547 C2548 1.414 . S
C2547 C2550 1.499 . S
C2548 H2528 0.950 . S
C2548 C2547 1.414 . S
C2548 C2549 1.374 . S
C2549 H2529 0.950 . S
C2549 C2545 1.385 . S
C2549 C2548 1.374 . S
C2550 C2547 1.499 . S
C2550 C2551 1.373 . S
C2550 C2552 1.389 . S
C2551 H2530 0.950 . S
C2551 C2550 1.373 . S
C2551 C2567 1.377 . S
C2552 C2550 1.389 . S
C2552 C2553 1.524 . S
C2552 C2566 1.377 . S
C2553 C2552 1.524 . S
C2553 C2554 1.397 . S
C2553 C2558 1.363 . S
C2554 H2531 0.950 . S
C2554 C2553 1.397 . S
C2554 C2555 1.334 . S
C2555 H2532 0.950 . S
C2555 C2554 1.334 . S
C2555 C2556 1.287 . S
C2556 C2555 1.287 . S
C2556 C2557 1.524 . S
C2556 H2575 0.913 . S
C2557 H2533 0.950 . S
C2557 C2556 1.524 . S
C2557 C2558 1.415 . S
C2558 H2534 0.950 . S
C2558 C2553 1.363 . S
C2558 C2557 1.415 . S
C2559 H2535 0.951 . S
C2559 C2560 1.366 . S
C2559 C2561 1.388 . S
C2560 C2559 1.366 . S
C2560 C2564 1.385 . S
C2561 H2536 0.951 . S
C2561 C2559 1.388 . S
C2561 C2562 1.366 . S
C2562 C2561 1.366 . S
C2562 C2563 1.414 . S
C2562 C2565 1.499 . S
C2563 H2537 0.950 . S
C2563 C2562 1.414 . S
C2563 C2564 1.374 . S
C2564 H2538 0.950 . S
C2564 C2560 1.385 . S
C2564 C2563 1.374 . S
C2565 C2562 1.499 . S
C2565 C2566 1.373 . S
C2565 C2567 1.389 . S
C2566 H2539 0.950 . S
C2566 C2552 1.377 . S
C2566 C2565 1.373 . S
C2567 C2551 1.377 . S
C2567 C2565 1.389 . S
C2567 C2568 1.524 . S
C2568 C2567 1.524 . S
C2568 C2569 1.397 . S
C2568 C2573 1.363 . S
C2569 H2540 0.950 . S
C2569 C2568 1.397 . S
C2569 C2570 1.334 . S
C2570 H2541 0.950 . S
C2570 C2569 1.334 . S
C2570 C2571 1.287 . S
C2571 C2570 1.287 . S
C2571 C2572 1.524 . S
C2571 H2574 0.999 . S
C2572 H2542 0.950 . S
C2572 C2571 1.524 . S
C2572 C2573 1.415 . S
C2573 H2543 0.950 . S
C2573 C2568 1.363 . S
C2573 C2572 1.415 . S
H2574 C2571 0.999 . S
H2575 C2556 0.913 . S
H2576 C2594 0.951 . S
H2577 C2596 0.951 . S
H2578 C2598 0.950 . S
H2579 C2599 0.950 . S
H2580 C2601 0.950 . S
H2581 C2604 0.950 . S
H2582 C2605 0.950 . S
H2583 C2607 0.950 . S
H2584 C2608 0.950 . S
H2585 C2609 0.951 . S
H2586 C2611 0.951 . S
H2587 C2613 0.950 . S
H2588 C2614 0.981 . S
H2589 C2616 0.950 . S
H2590 C2619 0.950 . S
H2591 C2620 0.950 . S
H2592 C2622 0.950 . S
H2593 C2623 0.950 . S
C2594 H2576 0.951 . S
C2594 C2595 1.366 . S
C2594 C2596 1.388 . S
C2595 C2594 1.366 . S
C2595 C2599 1.385 . S
C2596 H2577 0.951 . S
C2596 C2594 1.388 . S
C2596 C2597 1.366 . S
C2597 C2596 1.366 . S
C2597 C2598 1.414 . S
C2597 C2600 1.499 . S
C2598 H2578 0.950 . S
C2598 C2597 1.414 . S
C2598 C2599 1.374 . S
C2599 H2579 0.950 . S
C2599 C2595 1.385 . S
C2599 C2598 1.374 . S
C2600 C2597 1.499 . S
C2600 C2601 1.373 . S
C2600 C2602 1.389 . S
C2601 H2580 0.950 . S
C2601 C2600 1.373 . S
C2601 C2617 1.377 . S
C2602 C2600 1.389 . S
C2602 C2603 1.524 . S
C2602 C2616 1.377 . S
C2603 C2602 1.524 . S
C2603 C2604 1.397 1_545 S
C2603 C2608 1.363 . S
C2604 H2581 0.950 . S
C2604 C2603 1.397 1_565 S
C2604 C2605 1.334 . S
C2605 H2582 0.950 . S
C2605 C2604 1.334 . S
C2605 C2606 1.287 . S
C2606 C2605 1.287 . S
C2606 C2607 1.524 . S
C2606 H2625 0.913 . S
C2607 H2583 0.950 . S
C2607 C2606 1.524 . S
C2607 C2608 1.415 1_565 S
C2608 H2584 0.950 . S
C2608 C2603 1.363 . S
C2608 C2607 1.415 1_545 S
C2609 H2585 0.951 . S
C2609 C2610 1.366 . S
C2609 C2611 1.388 . S
C2610 C2609 1.366 . S
C2610 C2614 1.384 1_556 S
C2611 H2586 0.951 . S
C2611 C2609 1.388 . S
C2611 C2612 1.366 . S
C2612 C2611 1.366 . S
C2612 C2613 1.414 . S
C2612 C2615 1.499 . S
C2613 H2587 0.950 . S
C2613 C2612 1.414 . S
C2613 C2614 1.344 1_556 S
C2614 H2588 0.981 . S
C2614 C2610 1.384 1_554 S
C2614 C2613 1.344 1_554 S
C2615 C2612 1.499 . S
C2615 C2616 1.373 . S
C2615 C2617 1.389 . S
C2616 H2589 0.950 . S
C2616 C2602 1.377 . S
C2616 C2615 1.373 . S
C2617 C2601 1.377 . S
C2617 C2615 1.389 . S
C2617 C2618 1.524 . S
C2618 C2617 1.524 . S
C2618 C2619 1.397 . S
C2618 C2623 1.363 . S
C2619 H2590 0.950 . S
C2619 C2618 1.397 . S
C2619 C2620 1.334 . S
C2620 H2591 0.950 . S
C2620 C2619 1.334 . S
C2620 C2621 1.287 . S
C2621 C2620 1.287 . S
C2621 C2622 1.524 . S
C2621 H2624 0.999 . S
C2622 H2592 0.950 . S
C2622 C2621 1.524 . S
C2622 C2623 1.415 . S
C2623 H2593 0.950 . S
C2623 C2618 1.363 . S
C2623 C2622 1.415 . S
H2624 C2621 0.999 . S
H2625 C2606 0.913 . S
H2626 C2644 0.951 . S
H2627 C2646 0.951 . S
H2628 C2648 0.950 . S
H2629 C2649 0.950 . S
H2630 C2651 0.950 . S
H2631 C2654 0.950 . S
H2632 C2655 0.950 . S
H2633 C2657 0.950 . S
H2634 C2658 0.950 . S
H2635 C2659 0.951 . S
H2636 C2661 0.951 . S
H2637 C2663 0.950 . S
H2638 C2664 0.950 . S
H2639 C2666 0.950 . S
H2640 C2669 0.950 . S
H2641 C2670 0.950 . S
H2642 C2672 0.950 . S
H2643 C2673 0.950 . S
C2644 H2626 0.951 . S
C2644 C2645 1.366 . S
C2644 C2646 1.388 . S
C2645 C2644 1.366 . S
C2645 C2649 1.385 . S
C2646 H2627 0.951 . S
C2646 C2644 1.388 . S
C2646 C2647 1.366 . S
C2647 C2646 1.366 . S
C2647 C2648 1.414 . S
C2647 C2650 1.499 . S
C2648 H2628 0.950 . S
C2648 C2647 1.414 . S
C2648 C2649 1.374 . S
C2649 H2629 0.950 . S
C2649 C2645 1.385 . S
C2649 C2648 1.374 . S
C2650 C2647 1.499 . S
C2650 C2651 1.373 . S
C2650 C2652 1.389 . S
C2651 H2630 0.950 . S
C2651 C2650 1.373 . S
C2651 C2667 1.377 . S
C2652 C2650 1.389 . S
C2652 C2653 1.524 . S
C2652 C2666 1.377 . S
C2653 C2652 1.524 . S
C2653 C2654 1.397 . S
C2653 C2658 1.363 . S
C2654 H2631 0.950 . S
C2654 C2653 1.397 . S
C2654 C2655 1.334 . S
C2655 H2632 0.950 . S
C2655 C2654 1.334 . S
C2655 C2656 1.287 . S
C2656 C2655 1.287 . S
C2656 C2657 1.524 . S
C2656 H2675 0.913 . S
C2657 H2633 0.950 . S
C2657 C2656 1.524 . S
C2657 C2658 1.415 . S
C2658 H2634 0.950 . S
C2658 C2653 1.363 . S
C2658 C2657 1.415 . S
C2659 H2635 0.951 . S
C2659 C2660 1.366 . S
C2659 C2661 1.388 . S
C2660 C2659 1.366 . S
C2660 C2664 1.385 . S
C2661 H2636 0.951 . S
C2661 C2659 1.388 . S
C2661 C2662 1.366 . S
C2662 C2661 1.366 . S
C2662 C2663 1.414 . S
C2662 C2665 1.499 . S
C2663 H2637 0.950 . S
C2663 C2662 1.414 . S
C2663 C2664 1.374 . S
C2664 H2638 0.950 . S
C2664 C2660 1.385 . S
C2664 C2663 1.374 . S
C2665 C2662 1.499 . S
C2665 C2666 1.373 . S
C2665 C2667 1.389 . S
C2666 H2639 0.950 . S
C2666 C2652 1.377 . S
C2666 C2665 1.373 . S
C2667 C2651 1.377 . S
C2667 C2665 1.389 . S
C2667 C2668 1.524 . S
C2668 C2667 1.524 . S
C2668 C2669 1.397 . S
C2668 C2673 1.363 . S
C2669 H2640 0.950 . S
C2669 C2668 1.397 . S
C2669 C2670 1.334 . S
C2670 H2641 0.950 . S
C2670 C2669 1.334 . S
C2670 C2671 1.287 . S
C2671 C2670 1.287 . S
C2671 C2672 1.524 . S
C2671 H2674 0.999 . S
C2672 H2642 0.950 . S
C2672 C2671 1.524 . S
C2672 C2673 1.415 . S
C2673 H2643 0.950 . S
C2673 C2668 1.363 . S
C2673 C2672 1.415 . S
H2674 C2671 0.999 . S
H2675 C2656 0.913 . S
H2676 C2694 0.951 . S
H2677 C2696 0.951 . S
H2678 C2698 0.950 . S
H2679 C2699 0.950 . S
H2680 C2701 0.950 . S
H2681 C2704 0.950 . S
H2682 C2705 0.950 . S
H2683 C2707 0.950 . S
H2684 C2708 0.950 . S
H2685 C2709 0.951 . S
H2686 C2711 0.951 . S
H2687 C2713 0.950 . S
H2688 C2714 0.950 . S
H2689 C2716 0.950 . S
H2690 C2719 0.950 . S
H2691 C2720 0.950 . S
H2692 C2722 0.950 . S
H2693 C2723 0.950 . S
C2694 H2676 0.951 . S
C2694 C2695 1.366 . S
C2694 C2696 1.388 . S
C2695 C2694 1.366 . S
C2695 C2699 1.385 . S
C2696 H2677 0.951 . S
C2696 C2694 1.388 . S
C2696 C2697 1.366 . S
C2697 C2696 1.366 . S
C2697 C2698 1.414 . S
C2697 C2700 1.499 . S
C2698 H2678 0.950 . S
C2698 C2697 1.414 . S
C2698 C2699 1.374 . S
C2699 H2679 0.950 . S
C2699 C2695 1.385 . S
C2699 C2698 1.374 . S
C2700 C2697 1.499 . S
C2700 C2701 1.373 . S
C2700 C2702 1.389 . S
C2701 H2680 0.950 . S
C2701 C2700 1.373 . S
C2701 C2717 1.377 . S
C2702 C2700 1.389 . S
C2702 C2703 1.524 . S
C2702 C2716 1.377 . S
C2703 C2702 1.524 . S
C2703 C2704 1.397 . S
C2703 C2708 1.363 . S
C2704 H2681 0.950 . S
C2704 C2703 1.397 . S
C2704 C2705 1.334 . S
C2705 H2682 0.950 . S
C2705 C2704 1.334 . S
C2705 C2706 1.287 . S
C2706 C2705 1.287 . S
C2706 C2707 1.524 . S
C2706 H2725 0.913 . S
C2707 H2683 0.950 . S
C2707 C2706 1.524 . S
C2707 C2708 1.415 . S
C2708 H2684 0.950 . S
C2708 C2703 1.363 . S
C2708 C2707 1.415 . S
C2709 H2685 0.951 . S
C2709 C2710 1.366 . S
C2709 C2711 1.388 . S
C2710 C2709 1.366 . S
C2710 C2714 1.385 . S
C2711 H2686 0.951 . S
C2711 C2709 1.388 . S
C2711 C2712 1.366 . S
C2712 C2711 1.366 . S
C2712 C2713 1.414 . S
C2712 C2715 1.499 . S
C2713 H2687 0.950 . S
C2713 C2712 1.414 . S
C2713 C2714 1.374 . S
C2714 H2688 0.950 . S
C2714 C2710 1.385 . S
C2714 C2713 1.374 . S
C2715 C2712 1.499 . S
C2715 C2716 1.373 . S
C2715 C2717 1.389 . S
C2716 H2689 0.950 . S
C2716 C2702 1.377 . S
C2716 C2715 1.373 . S
C2717 C2701 1.377 . S
C2717 C2715 1.389 . S
C2717 C2718 1.524 . S
C2718 C2717 1.524 . S
C2718 C2719 1.397 . S
C2718 C2723 1.363 . S
C2719 H2690 0.950 . S
C2719 C2718 1.397 . S
C2719 C2720 1.334 . S
C2720 H2691 0.950 . S
C2720 C2719 1.334 . S
C2720 C2721 1.287 . S
C2721 C2720 1.287 . S
C2721 C2722 1.524 . S
C2721 H2724 0.999 . S
C2722 H2692 0.950 . S
C2722 C2721 1.524 . S
C2722 C2723 1.415 . S
C2723 H2693 0.950 . S
C2723 C2718 1.363 . S
C2723 C2722 1.415 . S
H2724 C2721 0.999 . S
H2725 C2706 0.913 . S
H2726 C2744 0.951 . S
H2727 C2746 0.951 . S
H2728 C2748 0.950 . S
H2729 C2749 0.950 . S
H2730 C2751 0.950 . S
H2731 C2754 0.950 . S
H2732 C2755 0.950 . S
H2733 C2757 0.950 . S
H2734 C2758 0.950 . S
H2735 C2759 0.951 . S
H2736 C2761 0.951 . S
H2737 C2763 0.950 . S
H2738 C2764 0.950 . S
H2739 C2766 0.950 . S
H2740 C2769 0.950 . S
H2741 C2770 0.950 . S
H2742 C2772 0.950 . S
H2743 C2773 0.950 . S
C2744 H2726 0.951 . S
C2744 C2745 1.366 . S
C2744 C2746 1.388 . S
C2745 C2744 1.366 . S
C2745 C2749 1.385 . S
C2746 H2727 0.951 . S
C2746 C2744 1.388 . S
C2746 C2747 1.366 . S
C2747 C2746 1.366 . S
C2747 C2748 1.414 . S
C2747 C2750 1.499 . S
C2748 H2728 0.950 . S
C2748 C2747 1.414 . S
C2748 C2749 1.374 . S
C2749 H2729 0.950 . S
C2749 C2745 1.385 . S
C2749 C2748 1.374 . S
C2750 C2747 1.499 . S
C2750 C2751 1.373 . S
C2750 C2752 1.389 . S
C2751 H2730 0.950 . S
C2751 C2750 1.373 . S
C2751 C2767 1.377 . S
C2752 C2750 1.389 . S
C2752 C2753 1.524 . S
C2752 C2766 1.377 . S
C2753 C2752 1.524 . S
C2753 C2754 1.397 . S
C2753 C2758 1.363 . S
C2754 H2731 0.950 . S
C2754 C2753 1.397 . S
C2754 C2755 1.334 . S
C2755 H2732 0.950 . S
C2755 C2754 1.334 . S
C2755 C2756 1.287 . S
C2756 C2755 1.287 . S
C2756 C2757 1.524 . S
C2756 H2775 0.913 . S
C2757 H2733 0.950 . S
C2757 C2756 1.524 . S
C2757 C2758 1.415 . S
C2758 H2734 0.950 . S
C2758 C2753 1.363 . S
C2758 C2757 1.415 . S
C2759 H2735 0.951 . S
C2759 C2760 1.366 . S
C2759 C2761 1.388 . S
C2760 C2759 1.366 . S
C2760 C2764 1.385 . S
C2761 H2736 0.951 . S
C2761 C2759 1.388 . S
C2761 C2762 1.366 . S
C2762 C2761 1.366 . S
C2762 C2763 1.414 . S
C2762 C2765 1.499 . S
C2763 H2737 0.950 . S
C2763 C2762 1.414 . S
C2763 C2764 1.374 . S
C2764 H2738 0.950 . S
C2764 C2760 1.385 . S
C2764 C2763 1.374 . S
C2765 C2762 1.499 . S
C2765 C2766 1.373 . S
C2765 C2767 1.389 . S
C2766 H2739 0.950 . S
C2766 C2752 1.377 . S
C2766 C2765 1.373 . S
C2767 C2751 1.377 . S
C2767 C2765 1.389 . S
C2767 C2768 1.524 . S
C2768 C2767 1.524 . S
C2768 C2769 1.397 . S
C2768 C2773 1.363 . S
C2769 H2740 0.950 . S
C2769 C2768 1.397 . S
C2769 C2770 1.334 . S
C2770 H2741 0.950 . S
C2770 C2769 1.334 . S
C2770 C2771 1.287 . S
C2771 C2770 1.287 . S
C2771 C2772 1.524 . S
C2771 H2774 0.999 . S
C2772 H2742 0.950 . S
C2772 C2771 1.524 . S
C2772 C2773 1.415 . S
C2773 H2743 0.950 . S
C2773 C2768 1.363 . S
C2773 C2772 1.415 . S
H2774 C2771 0.999 . S
H2775 C2756 0.913 . S
H2776 C2794 0.951 . S
H2777 C2796 0.951 . S
H2778 C2798 0.950 . S
H2779 C2799 0.950 . S
H2780 C2801 0.950 . S
H2781 C2804 0.950 . S
H2782 C2805 0.950 . S
H2783 C2807 0.950 . S
H2784 C2808 0.950 . S
H2785 C2809 0.951 . S
H2786 C2811 0.951 . S
H2787 C2813 0.950 . S
H2788 C2814 0.950 . S
H2789 C2816 0.950 . S
H2790 C2819 0.950 . S
H2791 C2820 0.950 . S
H2792 C2822 0.950 . S
H2793 C2823 0.950 . S
C2794 H2776 0.951 . S
C2794 C2795 1.366 . S
C2794 C2796 1.388 . S
C2795 C2794 1.366 . S
C2795 C2799 1.385 . S
C2796 H2777 0.951 . S
C2796 C2794 1.388 . S
C2796 C2797 1.366 . S
C2797 C2796 1.366 . S
C2797 C2798 1.414 . S
C2797 C2800 1.499 . S
C2798 H2778 0.950 . S
C2798 C2797 1.414 . S
C2798 C2799 1.374 . S
C2799 H2779 0.950 . S
C2799 C2795 1.385 . S
C2799 C2798 1.374 . S
C2800 C2797 1.499 . S
C2800 C2801 1.373 . S
C2800 C2802 1.389 . S
C2801 H2780 0.950 . S
C2801 C2800 1.373 . S
C2801 C2817 1.377 . S
C2802 C2800 1.389 . S
C2802 C2803 1.524 . S
C2802 C2816 1.377 . S
C2803 C2802 1.524 . S
C2803 C2804 1.397 . S
C2803 C2808 1.363 . S
C2804 H2781 0.950 . S
C2804 C2803 1.397 . S
C2804 C2805 1.334 . S
C2805 H2782 0.950 . S
C2805 C2804 1.334 . S
C2805 C2806 1.287 . S
C2806 C2805 1.287 . S
C2806 C2807 1.524 . S
C2806 H2825 0.913 . S
C2807 H2783 0.950 . S
C2807 C2806 1.524 . S
C2807 C2808 1.415 . S
C2808 H2784 0.950 . S
C2808 C2803 1.363 . S
C2808 C2807 1.415 . S
C2809 H2785 0.951 . S
C2809 C2810 1.366 . S
C2809 C2811 1.388 . S
C2810 C2809 1.366 . S
C2810 C2814 1.385 . S
C2811 H2786 0.951 . S
C2811 C2809 1.388 . S
C2811 C2812 1.366 . S
C2812 C2811 1.366 . S
C2812 C2813 1.414 . S
C2812 C2815 1.499 . S
C2813 H2787 0.950 . S
C2813 C2812 1.414 . S
C2813 C2814 1.374 . S
C2814 H2788 0.950 . S
C2814 C2810 1.385 . S
C2814 C2813 1.374 . S
C2815 C2812 1.499 . S
C2815 C2816 1.373 . S
C2815 C2817 1.389 . S
C2816 H2789 0.950 . S
C2816 C2802 1.377 . S
C2816 C2815 1.373 . S
C2817 C2801 1.377 . S
C2817 C2815 1.389 . S
C2817 C2818 1.524 . S
C2818 C2817 1.524 . S
C2818 C2819 1.397 . S
C2818 C2823 1.363 . S
C2819 H2790 0.950 . S
C2819 C2818 1.397 . S
C2819 C2820 1.334 . S
C2820 H2791 0.950 . S
C2820 C2819 1.334 . S
C2820 C2821 1.287 . S
C2821 C2820 1.287 . S
C2821 C2822 1.524 . S
C2821 H2824 0.999 . S
C2822 H2792 0.950 . S
C2822 C2821 1.524 . S
C2822 C2823 1.415 . S
C2823 H2793 0.950 . S
C2823 C2818 1.363 . S
C2823 C2822 1.415 . S
H2824 C2821 0.999 . S
H2825 C2806 0.913 . S
H2826 C2844 0.951 . S
H2827 C2846 0.951 . S
H2828 C2848 0.950 . S
H2829 C2849 0.950 . S
H2830 C2851 0.950 . S
H2831 C2854 0.950 . S
H2832 C2855 0.950 . S
H2833 C2857 0.950 . S
H2834 C2858 0.950 . S
H2835 C2859 0.951 . S
H2836 C2861 0.951 . S
H2837 C2863 0.950 . S
H2838 C2864 0.950 . S
H2839 C2866 0.950 . S
H2840 C2869 0.950 . S
H2841 C2870 0.950 . S
H2842 C2872 0.950 . S
H2843 C2873 0.950 . S
C2844 H2826 0.951 . S
C2844 C2845 1.366 . S
C2844 C2846 1.388 . S
C2845 C2844 1.366 . S
C2845 C2849 1.385 . S
C2846 H2827 0.951 . S
C2846 C2844 1.388 . S
C2846 C2847 1.366 . S
C2847 C2846 1.366 . S
C2847 C2848 1.414 . S
C2847 C2850 1.499 . S
C2848 H2828 0.950 . S
C2848 C2847 1.414 . S
C2848 C2849 1.374 . S
C2849 H2829 0.950 . S
C2849 C2845 1.385 . S
C2849 C2848 1.374 . S
C2850 C2847 1.499 . S
C2850 C2851 1.373 . S
C2850 C2852 1.389 . S
C2851 H2830 0.950 . S
C2851 C2850 1.373 . S
C2851 C2867 1.377 . S
C2852 C2850 1.389 . S
C2852 C2853 1.524 . S
C2852 C2866 1.377 . S
C2853 C2852 1.524 . S
C2853 C2854 1.397 . S
C2853 C2858 1.363 . S
C2854 H2831 0.950 . S
C2854 C2853 1.397 . S
C2854 C2855 1.334 . S
C2855 H2832 0.950 . S
C2855 C2854 1.334 . S
C2855 C2856 1.287 . S
C2856 C2855 1.287 . S
C2856 C2857 1.524 . S
C2856 H2875 0.913 . S
C2857 H2833 0.950 . S
C2857 C2856 1.524 . S
C2857 C2858 1.415 . S
C2858 H2834 0.950 . S
C2858 C2853 1.363 . S
C2858 C2857 1.415 . S
C2859 H2835 0.951 . S
C2859 C2860 1.366 . S
C2859 C2861 1.388 . S
C2860 C2859 1.366 . S
C2860 C2864 1.385 . S
C2861 H2836 0.951 . S
C2861 C2859 1.388 . S
C2861 C2862 1.366 . S
C2862 C2861 1.366 . S
C2862 C2863 1.414 . S
C2862 C2865 1.499 . S
C2863 H2837 0.950 . S
C2863 C2862 1.414 . S
C2863 C2864 1.374 . S
C2864 H2838 0.950 . S
C2864 C2860 1.385 . S
C2864 C2863 1.374 . S
C2865 C2862 1.499 . S
C2865 C2866 1.373 . S
C2865 C2867 1.389 . S
C2866 H2839 0.950 . S
C2866 C2852 1.377 . S
C2866 C2865 1.373 . S
C2867 C2851 1.377 . S
C2867 C2865 1.389 . S
C2867 C2868 1.524 . S
C2868 C2867 1.524 . S
C2868 C2869 1.397 . S
C2868 C2873 1.363 . S
C2869 H2840 0.950 . S
C2869 C2868 1.397 . S
C2869 C2870 1.334 . S
C2870 H2841 0.950 . S
C2870 C2869 1.334 . S
C2870 C2871 1.287 . S
C2871 C2870 1.287 . S
C2871 C2872 1.524 . S
C2871 H2874 0.999 . S
C2872 H2842 0.950 . S
C2872 C2871 1.524 . S
C2872 C2873 1.415 . S
C2873 H2843 0.950 . S
C2873 C2868 1.363 . S
C2873 C2872 1.415 . S
H2874 C2871 0.999 . S
H2875 C2856 0.913 . S
H2876 C2894 0.951 . S
H2877 C2896 0.951 . S
H2878 C2898 0.950 . S
H2879 C2899 0.950 . S
H2880 C2901 0.950 . S
H2881 C2904 0.950 . S
H2882 C2905 0.950 . S
H2883 C2907 0.950 . S
H2884 C2908 0.950 . S
H2885 C2909 0.951 . S
H2886 C2911 0.951 . S
H2887 C2913 0.950 . S
H2888 C2914 0.950 . S
H2889 C2916 0.950 . S
H2890 C2919 0.950 . S
H2891 C2920 0.950 . S
H2892 C2922 0.950 . S
H2893 C2923 0.950 . S
C2894 H2876 0.951 . S
C2894 C2895 1.366 . S
C2894 C2896 1.388 . S
C2895 C2894 1.366 . S
C2895 C2899 1.385 . S
C2896 H2877 0.951 . S
C2896 C2894 1.388 . S
C2896 C2897 1.366 . S
C2897 C2896 1.366 . S
C2897 C2898 1.414 . S
C2897 C2900 1.499 . S
C2898 H2878 0.950 . S
C2898 C2897 1.414 . S
C2898 C2899 1.374 . S
C2899 H2879 0.950 . S
C2899 C2895 1.385 . S
C2899 C2898 1.374 . S
C2900 C2897 1.499 . S
C2900 C2901 1.373 . S
C2900 C2902 1.389 . S
C2901 H2880 0.950 . S
C2901 C2900 1.373 . S
C2901 C2917 1.377 . S
C2902 C2900 1.389 . S
C2902 C2903 1.524 . S
C2902 C2916 1.377 . S
C2903 C2902 1.524 . S
C2903 C2904 1.397 . S
C2903 C2908 1.363 . S
C2904 H2881 0.950 . S
C2904 C2903 1.397 . S
C2904 C2905 1.334 . S
C2905 H2882 0.950 . S
C2905 C2904 1.334 . S
C2905 C2906 1.287 . S
C2906 C2905 1.287 . S
C2906 C2907 1.524 . S
C2906 H2925 0.913 . S
C2907 H2883 0.950 . S
C2907 C2906 1.524 . S
C2907 C2908 1.415 . S
C2908 H2884 0.950 . S
C2908 C2903 1.363 . S
C2908 C2907 1.415 . S
C2909 H2885 0.951 . S
C2909 C2910 1.366 . S
C2909 C2911 1.388 . S
C2910 C2909 1.366 . S
C2910 C2914 1.385 . S
C2911 H2886 0.951 . S
C2911 C2909 1.388 . S
C2911 C2912 1.366 . S
C2912 C2911 1.366 . S
C2912 C2913 1.414 . S
C2912 C2915 1.499 . S
C2913 H2887 0.950 . S
C2913 C2912 1.414 . S
C2913 C2914 1.374 . S
C2914 H2888 0.950 . S
C2914 C2910 1.385 . S
C2914 C2913 1.374 . S
C2915 C2912 1.499 . S
C2915 C2916 1.373 . S
C2915 C2917 1.389 . S
C2916 H2889 0.950 . S
C2916 C2902 1.377 . S
C2916 C2915 1.373 . S
C2917 C2901 1.377 . S
C2917 C2915 1.389 . S
C2917 C2918 1.524 . S
C2918 C2917 1.524 . S
C2918 C2919 1.397 . S
C2918 C2923 1.363 . S
C2919 H2890 0.950 . S
C2919 C2918 1.397 . S
C2919 C2920 1.334 . S
C2920 H2891 0.950 . S
C2920 C2919 1.334 . S
C2920 C2921 1.287 . S
C2921 C2920 1.287 . S
C2921 C2922 1.524 . S
C2921 H2924 0.999 . S
C2922 H2892 0.950 . S
C2922 C2921 1.524 . S
C2922 C2923 1.415 . S
C2923 H2893 0.950 . S
C2923 C2918 1.363 . S
C2923 C2922 1.415 . S
H2924 C2921 0.999 . S
H2925 C2906 0.913 . S
H2926 C2944 0.951 . S
H2927 C2946 0.951 . S
H2928 C2948 0.950 . S
H2929 C2949 0.950 . S
H2930 C2951 0.950 . S
H2931 C2954 0.950 . S
H2932 C2955 0.950 . S
H2933 C2957 0.950 . S
H2934 C2958 0.950 . S
H2935 C2959 0.951 . S
H2936 C2961 0.951 . S
H2937 C2963 0.950 . S
H2938 C2964 0.950 . S
H2939 C2966 0.950 . S
H2940 C2969 0.950 . S
H2941 C2970 0.950 . S
H2942 C2972 0.950 . S
H2943 C2973 0.950 . S
C2944 H2926 0.951 . S
C2944 C2945 1.366 . S
C2944 C2946 1.388 . S
C2945 C2944 1.366 . S
C2945 C2949 1.385 . S
C2946 H2927 0.951 . S
C2946 C2944 1.388 . S
C2946 C2947 1.366 . S
C2947 C2946 1.366 . S
C2947 C2948 1.414 . S
C2947 C2950 1.499 . S
C2948 H2928 0.950 . S
C2948 C2947 1.414 . S
C2948 C2949 1.374 . S
C2949 H2929 0.950 . S
C2949 C2945 1.385 . S
C2949 C2948 1.374 . S
C2950 C2947 1.499 . S
C2950 C2951 1.373 . S
C2950 C2952 1.389 . S
C2951 H2930 0.950 . S
C2951 C2950 1.373 . S
C2951 C2967 1.377 . S
C2952 C2950 1.389 . S
C2952 C2953 1.524 . S
C2952 C2966 1.377 . S
C2953 C2952 1.524 . S
C2953 C2954 1.397 . S
C2953 C2958 1.363 . S
C2954 H2931 0.950 . S
C2954 C2953 1.397 . S
C2954 C2955 1.334 . S
C2955 H2932 0.950 . S
C2955 C2954 1.334 . S
C2955 C2956 1.287 . S
C2956 C2955 1.287 . S
C2956 C2957 1.524 . S
C2956 H2975 0.913 . S
C2957 H2933 0.950 . S
C2957 C2956 1.524 . S
C2957 C2958 1.415 . S
C2958 H2934 0.950 . S
C2958 C2953 1.363 . S
C2958 C2957 1.415 . S
C2959 H2935 0.951 . S
C2959 C2960 1.366 . S
C2959 C2961 1.388 . S
C2960 C2959 1.366 . S
C2960 C2964 1.385 . S
C2961 H2936 0.951 . S
C2961 C2959 1.388 . S
C2961 C2962 1.366 . S
C2962 C2961 1.366 . S
C2962 C2963 1.414 . S
C2962 C2965 1.499 . S
C2963 H2937 0.950 . S
C2963 C2962 1.414 . S
C2963 C2964 1.374 . S
C2964 H2938 0.950 . S
C2964 C2960 1.385 . S
C2964 C2963 1.374 . S
C2965 C2962 1.499 . S
C2965 C2966 1.373 . S
C2965 C2967 1.389 . S
C2966 H2939 0.950 . S
C2966 C2952 1.377 . S
C2966 C2965 1.373 . S
C2967 C2951 1.377 . S
C2967 C2965 1.389 . S
C2967 C2968 1.524 . S
C2968 C2967 1.524 . S
C2968 C2969 1.397 . S
C2968 C2973 1.363 . S
C2969 H2940 0.950 . S
C2969 C2968 1.397 . S
C2969 C2970 1.334 . S
C2970 H2941 0.950 . S
C2970 C2969 1.334 . S
C2970 C2971 1.287 . S
C2971 C2970 1.287 . S
C2971 C2972 1.524 . S
C2971 H2974 0.999 . S
C2972 H2942 0.950 . S
C2972 C2971 1.524 . S
C2972 C2973 1.415 . S
C2973 H2943 0.950 . S
C2973 C2968 1.363 . S
C2973 C2972 1.415 . S
H2974 C2971 0.999 . S
H2975 C2956 0.913 . S
H2976 C2994 0.951 . S
H2977 C2996 0.951 . S
H2978 C2998 0.950 . S
H2979 C2999 0.950 . S
H2980 C3001 0.950 . S
H2981 C3004 0.950 . S
H2982 C3005 0.950 . S
H2983 C3007 0.950 . S
H2984 C3008 0.950 . S
H2985 C3009 0.951 . S
H2986 C3011 0.951 . S
H2987 C3013 0.950 . S
H2988 C3014 0.950 . S
H2989 C3016 0.950 . S
H2990 C3019 0.950 . S
H2991 C3020 0.950 . S
H2992 C3022 0.950 . S
H2993 C3023 0.950 . S
C2994 H2976 0.951 . S
C2994 C2995 1.366 . S
C2994 C2996 1.388 . S
C2995 C2994 1.366 . S
C2995 C2999 1.385 . S
C2996 H2977 0.951 . S
C2996 C2994 1.388 . S
C2996 C2997 1.366 . S
C2997 C2996 1.366 . S
C2997 C2998 1.414 . S
C2997 C3000 1.499 . S
C2998 H2978 0.950 . S
C2998 C2997 1.414 . S
C2998 C2999 1.374 . S
C2999 H2979 0.950 . S
C2999 C2995 1.385 . S
C2999 C2998 1.374 . S
C3000 C2997 1.499 . S
C3000 C3001 1.373 . S
C3000 C3002 1.389 . S
C3001 H2980 0.950 . S
C3001 C3000 1.373 . S
C3001 C3017 1.377 . S
C3002 C3000 1.389 . S
C3002 C3003 1.524 . S
C3002 C3016 1.377 . S
C3003 C3002 1.524 . S
C3003 C3004 1.397 . S
C3003 C3008 1.363 . S
C3004 H2981 0.950 . S
C3004 C3003 1.397 . S
C3004 C3005 1.334 . S
C3005 H2982 0.950 . S
C3005 C3004 1.334 . S
C3005 C3006 1.287 . S
C3006 C3005 1.287 . S
C3006 C3007 1.524 . S
C3006 H3025 0.913 . S
C3007 H2983 0.950 . S
C3007 C3006 1.524 . S
C3007 C3008 1.415 . S
C3008 H2984 0.950 . S
C3008 C3003 1.363 . S
C3008 C3007 1.415 . S
C3009 H2985 0.951 . S
C3009 C3010 1.366 . S
C3009 C3011 1.388 . S
C3010 C3009 1.366 . S
C3010 C3014 1.385 . S
C3011 H2986 0.951 . S
C3011 C3009 1.388 . S
C3011 C3012 1.366 . S
C3012 C3011 1.366 . S
C3012 C3013 1.414 . S
C3012 C3015 1.499 . S
C3013 H2987 0.950 . S
C3013 C3012 1.414 . S
C3013 C3014 1.374 . S
C3014 H2988 0.950 . S
C3014 C3010 1.385 . S
C3014 C3013 1.374 . S
C3015 C3012 1.499 . S
C3015 C3016 1.373 . S
C3015 C3017 1.389 . S
C3016 H2989 0.950 . S
C3016 C3002 1.377 . S
C3016 C3015 1.373 . S
C3017 C3001 1.377 . S
C3017 C3015 1.389 . S
C3017 C3018 1.524 . S
C3018 C3017 1.524 . S
C3018 C3019 1.397 . S
C3018 C3023 1.363 1_554 S
C3019 H2990 0.950 . S
C3019 C3018 1.397 . S
C3019 C3020 1.334 1_554 S
C3020 H2991 0.950 . S
C3020 C3019 1.334 1_556 S
C3020 C3021 1.287 . S
C3021 C3020 1.287 . S
C3021 C3022 1.524 . S
C3021 H3024 0.999 . S
C3022 H2992 0.950 . S
C3022 C3021 1.524 . S
C3022 C3023 1.415 . S
C3023 H2993 0.950 . S
C3023 C3018 1.363 1_556 S
C3023 C3022 1.415 . S
H3024 C3021 0.999 . S
H3025 C3006 0.913 . S
H3026 C3044 0.951 . S
H3027 C3046 0.951 . S
H3028 C3048 0.950 . S
H3029 C3049 0.950 . S
H3030 C3051 0.950 . S
H3031 C3054 0.950 . S
H3032 C3055 0.950 . S
H3033 C3057 0.950 . S
H3034 C3058 0.950 . S
H3035 C3059 0.951 . S
H3036 C3061 0.951 . S
H3037 C3063 0.950 . S
H3038 C3064 0.950 . S
H3039 C3066 0.950 . S
H3040 C3069 0.950 . S
H3041 C3070 0.950 . S
H3042 C3072 0.950 . S
H3043 C3073 0.950 . S
C3044 H3026 0.951 . S
C3044 C3045 1.366 . S
C3044 C3046 1.388 . S
C3045 C3044 1.366 . S
C3045 C3049 1.385 . S
C3046 H3027 0.951 . S
C3046 C3044 1.388 . S
C3046 C3047 1.366 . S
C3047 C3046 1.366 . S
C3047 C3048 1.414 . S
C3047 C3050 1.499 . S
C3048 H3028 0.950 . S
C3048 C3047 1.414 . S
C3048 C3049 1.374 . S
C3049 H3029 0.950 . S
C3049 C3045 1.385 . S
C3049 C3048 1.374 . S
C3050 C3047 1.499 . S
C3050 C3051 1.373 . S
C3050 C3052 1.389 . S
C3051 H3030 0.950 . S
C3051 C3050 1.373 . S
C3051 C3067 1.377 . S
C3052 C3050 1.389 . S
C3052 C3053 1.524 . S
C3052 C3066 1.377 . S
C3053 C3052 1.524 . S
C3053 C3054 1.397 . S
C3053 C3058 1.363 . S
C3054 H3031 0.950 . S
C3054 C3053 1.397 . S
C3054 C3055 1.334 . S
C3055 H3032 0.950 . S
C3055 C3054 1.334 . S
C3055 C3056 1.287 . S
C3056 C3055 1.287 . S
C3056 C3057 1.524 . S
C3056 H3075 0.913 . S
C3057 H3033 0.950 . S
C3057 C3056 1.524 . S
C3057 C3058 1.415 . S
C3058 H3034 0.950 . S
C3058 C3053 1.363 . S
C3058 C3057 1.415 . S
C3059 H3035 0.951 . S
C3059 C3060 1.366 . S
C3059 C3061 1.388 . S
C3060 C3059 1.366 . S
C3060 C3064 1.385 . S
C3061 H3036 0.951 . S
C3061 C3059 1.388 . S
C3061 C3062 1.366 . S
C3062 C3061 1.366 . S
C3062 C3063 1.414 . S
C3062 C3065 1.499 . S
C3063 H3037 0.950 . S
C3063 C3062 1.414 . S
C3063 C3064 1.374 . S
C3064 H3038 0.950 . S
C3064 C3060 1.385 . S
C3064 C3063 1.374 . S
C3065 C3062 1.499 . S
C3065 C3066 1.373 . S
C3065 C3067 1.389 . S
C3066 H3039 0.950 . S
C3066 C3052 1.377 . S
C3066 C3065 1.373 . S
C3067 C3051 1.377 . S
C3067 C3065 1.389 . S
C3067 C3068 1.524 . S
C3068 C3067 1.524 . S
C3068 C3069 1.397 . S
C3068 C3073 1.363 . S
C3069 H3040 0.950 . S
C3069 C3068 1.397 . S
C3069 C3070 1.334 . S
C3070 H3041 0.950 . S
C3070 C3069 1.334 . S
C3070 C3071 1.287 . S
C3071 C3070 1.287 . S
C3071 C3072 1.524 . S
C3071 H3074 0.999 . S
C3072 H3042 0.950 . S
C3072 C3071 1.524 . S
C3072 C3073 1.415 . S
C3073 H3043 0.950 . S
C3073 C3068 1.363 . S
C3073 C3072 1.415 . S
H3074 C3071 0.999 . S
H3075 C3056 0.913 . S
H3076 C3094 0.951 . S
H3077 C3096 0.951 . S
H3078 C3098 0.950 . S
H3079 C3099 0.950 . S
H3080 C3101 0.950 . S
H3081 C3104 0.950 . S
H3082 C3105 0.950 . S
H3083 C3107 0.950 . S
H3084 C3108 0.950 . S
H3085 C3109 0.951 . S
H3086 C3111 0.951 . S
H3087 C3113 0.950 . S
H3088 C3114 0.950 . S
H3089 C3116 0.950 . S
H3090 C3119 0.950 . S
H3091 C3120 0.950 . S
H3092 C3122 0.950 . S
H3093 C3123 0.950 . S
C3094 H3076 0.951 . S
C3094 C3095 1.366 . S
C3094 C3096 1.388 . S
C3095 C3094 1.366 . S
C3095 C3099 1.385 . S
C3096 H3077 0.951 . S
C3096 C3094 1.388 . S
C3096 C3097 1.366 . S
C3097 C3096 1.366 . S
C3097 C3098 1.414 . S
C3097 C3100 1.499 . S
C3098 H3078 0.950 . S
C3098 C3097 1.414 . S
C3098 C3099 1.374 . S
C3099 H3079 0.950 . S
C3099 C3095 1.385 . S
C3099 C3098 1.374 . S
C3100 C3097 1.499 . S
C3100 C3101 1.373 . S
C3100 C3102 1.389 . S
C3101 H3080 0.950 . S
C3101 C3100 1.373 . S
C3101 C3117 1.377 . S
C3102 C3100 1.389 . S
C3102 C3103 1.524 . S
C3102 C3116 1.377 . S
C3103 C3102 1.524 . S
C3103 C3104 1.397 . S
C3103 C3108 1.363 . S
C3104 H3081 0.950 . S
C3104 C3103 1.397 . S
C3104 C3105 1.334 . S
C3105 H3082 0.950 . S
C3105 C3104 1.334 . S
C3105 C3106 1.287 . S
C3106 C3105 1.287 . S
C3106 C3107 1.524 . S
C3106 H3125 0.913 . S
C3107 H3083 0.950 . S
C3107 C3106 1.524 . S
C3107 C3108 1.415 . S
C3108 H3084 0.950 . S
C3108 C3103 1.363 . S
C3108 C3107 1.415 . S
C3109 H3085 0.951 . S
C3109 C3110 1.366 . S
C3109 C3111 1.388 . S
C3110 C3109 1.366 . S
C3110 C3114 1.385 . S
C3111 H3086 0.951 . S
C3111 C3109 1.388 . S
C3111 C3112 1.366 . S
C3112 C3111 1.366 . S
C3112 C3113 1.414 . S
C3112 C3115 1.499 . S
C3113 H3087 0.950 . S
C3113 C3112 1.414 . S
C3113 C3114 1.374 . S
C3114 H3088 0.950 . S
C3114 C3110 1.385 . S
C3114 C3113 1.374 . S
C3115 C3112 1.499 . S
C3115 C3116 1.373 . S
C3115 C3117 1.389 . S
C3116 H3089 0.950 . S
C3116 C3102 1.377 . S
C3116 C3115 1.373 . S
C3117 C3101 1.377 . S
C3117 C3115 1.389 . S
C3117 C3118 1.524 . S
C3118 C3117 1.524 . S
C3118 C3119 1.397 . S
C3118 C3123 1.363 . S
C3119 H3090 0.950 . S
C3119 C3118 1.397 . S
C3119 C3120 1.334 . S
C3120 H3091 0.950 . S
C3120 C3119 1.334 . S
C3120 C3121 1.287 . S
C3121 C3120 1.287 . S
C3121 C3122 1.524 . S
C3121 H3124 0.999 . S
C3122 H3092 0.950 . S
C3122 C3121 1.524 . S
C3122 C3123 1.415 . S
C3123 H3093 0.950 . S
C3123 C3118 1.363 . S
C3123 C3122 1.415 . S
H3124 C3121 0.999 . S
H3125 C3106 0.913 . S
H3126 C3144 0.951 . S
H3127 C3146 0.951 . S
H3128 C3148 0.950 . S
H3129 C3149 0.950 . S
H3130 C3151 0.950 . S
H3131 C3154 0.950 . S
H3132 C3155 0.950 . S
H3133 C3157 0.950 . S
H3134 C3158 0.950 . S
H3135 C3159 0.951 . S
H3136 C3161 0.951 . S
H3137 C3163 0.950 . S
H3138 C3164 0.950 . S
H3139 C3166 0.950 . S
H3140 C3169 0.950 . S
H3141 C3170 0.950 . S
H3142 C3172 0.950 . S
H3143 C3173 0.950 . S
C3144 H3126 0.951 . S
C3144 C3145 1.366 . S
C3144 C3146 1.388 . S
C3145 C3144 1.366 . S
C3145 C3149 1.385 . S
C3146 H3127 0.951 . S
C3146 C3144 1.388 . S
C3146 C3147 1.366 . S
C3147 C3146 1.366 . S
C3147 C3148 1.414 . S
C3147 C3150 1.499 . S
C3148 H3128 0.950 . S
C3148 C3147 1.414 . S
C3148 C3149 1.374 . S
C3149 H3129 0.950 . S
C3149 C3145 1.385 . S
C3149 C3148 1.374 . S
C3150 C3147 1.499 . S
C3150 C3151 1.373 . S
C3150 C3152 1.389 . S
C3151 H3130 0.950 . S
C3151 C3150 1.373 . S
C3151 C3167 1.377 . S
C3152 C3150 1.389 . S
C3152 C3153 1.524 . S
C3152 C3166 1.377 . S
C3153 C3152 1.524 . S
C3153 C3154 1.397 . S
C3153 C3158 1.363 . S
C3154 H3131 0.950 . S
C3154 C3153 1.397 . S
C3154 C3155 1.334 . S
C3155 H3132 0.950 . S
C3155 C3154 1.334 . S
C3155 C3156 1.287 . S
C3156 C3155 1.287 . S
C3156 C3157 1.524 . S
C3156 H3175 0.913 . S
C3157 H3133 0.950 . S
C3157 C3156 1.524 . S
C3157 C3158 1.415 . S
C3158 H3134 0.950 . S
C3158 C3153 1.363 . S
C3158 C3157 1.415 . S
C3159 H3135 0.951 . S
C3159 C3160 1.366 . S
C3159 C3161 1.388 . S
C3160 C3159 1.366 . S
C3160 C3164 1.385 . S
C3161 H3136 0.951 . S
C3161 C3159 1.388 . S
C3161 C3162 1.366 . S
C3162 C3161 1.366 . S
C3162 C3163 1.414 . S
C3162 C3165 1.499 . S
C3163 H3137 0.950 . S
C3163 C3162 1.414 . S
C3163 C3164 1.374 . S
C3164 H3138 0.950 . S
C3164 C3160 1.385 . S
C3164 C3163 1.374 . S
C3165 C3162 1.499 . S
C3165 C3166 1.373 . S
C3165 C3167 1.389 . S
C3166 H3139 0.950 . S
C3166 C3152 1.377 . S
C3166 C3165 1.373 . S
C3167 C3151 1.377 . S
C3167 C3165 1.389 . S
C3167 C3168 1.524 . S
C3168 C3167 1.524 . S
C3168 C3169 1.397 . S
C3168 C3173 1.363 . S
C3169 H3140 0.950 . S
C3169 C3168 1.397 . S
C3169 C3170 1.334 . S
C3170 H3141 0.950 . S
C3170 C3169 1.334 . S
C3170 C3171 1.287 . S
C3171 C3170 1.287 . S
C3171 C3172 1.524 . S
C3171 H3174 0.999 . S
C3172 H3142 0.950 . S
C3172 C3171 1.524 . S
C3172 C3173 1.415 . S
C3173 H3143 0.950 . S
C3173 C3168 1.363 . S
C3173 C3172 1.415 . S
H3174 C3171 0.999 . S
H3175 C3156 0.913 . S
H3176 C3194 0.951 . S
H3177 C3196 0.951 . S
H3178 C3198 0.950 . S
H3179 C3199 0.950 . S
H3180 C3201 0.950 . S
H3181 C3204 0.950 . S
H3182 C3205 0.950 . S
H3183 C3207 0.950 . S
H3184 C3208 0.950 . S
H3185 C3209 0.951 . S
H3186 C3211 0.951 . S
H3187 C3213 0.950 . S
H3188 C3214 0.950 . S
H3189 C3216 0.950 . S
H3190 C3219 0.950 . S
H3191 C3220 0.950 . S
H3192 C3222 0.950 . S
H3193 C3223 0.950 . S
C3194 H3176 0.951 . S
C3194 C3195 1.366 . S
C3194 C3196 1.388 . S
C3195 C3194 1.366 . S
C3195 C3199 1.385 . S
C3196 H3177 0.951 . S
C3196 C3194 1.388 . S
C3196 C3197 1.366 . S
C3197 C3196 1.366 . S
C3197 C3198 1.414 . S
C3197 C3200 1.499 . S
C3198 H3178 0.950 . S
C3198 C3197 1.414 . S
C3198 C3199 1.374 . S
C3199 H3179 0.950 . S
C3199 C3195 1.385 . S
C3199 C3198 1.374 . S
C3200 C3197 1.499 . S
C3200 C3201 1.373 . S
C3200 C3202 1.389 . S
C3201 H3180 0.950 . S
C3201 C3200 1.373 . S
C3201 C3217 1.377 . S
C3202 C3200 1.389 . S
C3202 C3203 1.524 . S
C3202 C3216 1.377 . S
C3203 C3202 1.524 . S
C3203 C3204 1.397 . S
C3203 C3208 1.363 . S
C3204 H3181 0.950 . S
C3204 C3203 1.397 . S
C3204 C3205 1.334 . S
C3205 H3182 0.950 . S
C3205 C3204 1.334 . S
C3205 C3206 1.287 . S
C3206 C3205 1.287 . S
C3206 C3207 1.524 . S
C3206 H3225 0.913 . S
C3207 H3183 0.950 . S
C3207 C3206 1.524 . S
C3207 C3208 1.415 . S
C3208 H3184 0.950 . S
C3208 C3203 1.363 . S
C3208 C3207 1.415 . S
C3209 H3185 0.951 . S
C3209 C3210 1.366 . S
C3209 C3211 1.388 . S
C3210 C3209 1.366 . S
C3210 C3214 1.385 . S
C3211 H3186 0.951 . S
C3211 C3209 1.388 . S
C3211 C3212 1.366 . S
C3212 C3211 1.366 . S
C3212 C3213 1.414 . S
C3212 C3215 1.499 . S
C3213 H3187 0.950 . S
C3213 C3212 1.414 . S
C3213 C3214 1.374 . S
C3214 H3188 0.950 . S
C3214 C3210 1.385 . S
C3214 C3213 1.374 . S
C3215 C3212 1.499 . S
C3215 C3216 1.373 . S
C3215 C3217 1.389 . S
C3216 H3189 0.950 . S
C3216 C3202 1.377 . S
C3216 C3215 1.373 . S
C3217 C3201 1.377 . S
C3217 C3215 1.389 . S
C3217 C3218 1.524 . S
C3218 C3217 1.524 . S
C3218 C3219 1.397 . S
C3218 C3223 1.363 . S
C3219 H3190 0.950 . S
C3219 C3218 1.397 . S
C3219 C3220 1.334 . S
C3220 H3191 0.950 . S
C3220 C3219 1.334 . S
C3220 C3221 1.287 . S
C3221 C3220 1.287 . S
C3221 C3222 1.524 . S
C3221 H3224 0.999 . S
C3222 H3192 0.950 . S
C3222 C3221 1.524 . S
C3222 C3223 1.415 . S
C3223 H3193 0.950 . S
C3223 C3218 1.363 . S
C3223 C3222 1.415 . S
H3224 C3221 0.999 . S
H3225 C3206 0.913 . S
H3226 C3244 0.951 . S
H3227 C3246 0.944 1_545 S
H3228 C3248 0.950 . S
H3229 C3249 0.950 . S
H3230 C3251 0.950 . S
H3231 C3254 0.950 . S
H3232 C3255 0.950 . S
H3233 C3257 0.950 . S
H3234 C3258 0.950 . S
H3235 C3259 0.951 . S
H3236 C3261 0.951 1_565 S
H3237 C3263 0.950 . S
H3238 C3264 0.950 . S
H3239 C3266 0.950 . S
H3240 C3269 0.950 . S
H3241 C3270 0.950 . S
H3242 C3272 0.950 . S
H3243 C3273 0.950 . S
C3244 H3226 0.951 . S
C3244 C3245 1.366 . S
C3244 C3246 1.388 . S
C3245 C3244 1.366 . S
C3245 C3249 1.385 . S
C3246 H3227 0.944 1_565 S
C3246 C3244 1.388 . S
C3246 C3247 1.366 . S
C3247 C3246 1.366 . S
C3247 C3248 1.414 . S
C3247 C3250 1.499 . S
C3248 H3228 0.950 . S
C3248 C3247 1.414 . S
C3248 C3249 1.374 . S
C3249 H3229 0.950 . S
C3249 C3245 1.385 . S
C3249 C3248 1.374 . S
C3250 C3247 1.499 . S
C3250 C3251 1.373 . S
C3250 C3252 1.389 1_565 S
C3251 H3230 0.950 . S
C3251 C3250 1.373 . S
C3251 C3267 1.377 . S
C3252 C3250 1.389 1_545 S
C3252 C3253 1.524 . S
C3252 C3266 1.377 . S
C3253 C3252 1.524 . S
C3253 C3254 1.397 . S
C3253 C3258 1.363 . S
C3254 H3231 0.950 . S
C3254 C3253 1.397 . S
C3254 C3255 1.334 . S
C3255 H3232 0.950 . S
C3255 C3254 1.334 . S
C3255 C3256 1.287 . S
C3256 C3255 1.287 . S
C3256 C3257 1.524 . S
C3256 H3275 0.913 . S
C3257 H3233 0.950 . S
C3257 C3256 1.524 . S
C3257 C3258 1.415 . S
C3258 H3234 0.950 . S
C3258 C3253 1.363 . S
C3258 C3257 1.415 . S
C3259 H3235 0.951 . S
C3259 C3260 1.366 . S
C3259 C3261 1.388 . S
C3260 C3259 1.366 . S
C3260 C3264 1.385 . S
C3261 H3236 0.951 1_545 S
C3261 C3259 1.388 . S
C3261 C3262 1.366 . S
C3262 C3261 1.366 . S
C3262 C3263 1.414 . S
C3262 C3265 1.499 . S
C3263 H3237 0.950 . S
C3263 C3262 1.414 . S
C3263 C3264 1.374 . S
C3264 H3238 0.950 . S
C3264 C3260 1.385 . S
C3264 C3263 1.374 . S
C3265 C3262 1.499 . S
C3265 C3266 1.373 . S
C3265 C3267 1.389 1_545 S
C3266 H3239 0.950 . S
C3266 C3252 1.377 . S
C3266 C3265 1.373 . S
C3267 C3251 1.377 . S
C3267 C3265 1.389 1_565 S
C3267 C3268 1.524 . S
C3268 C3267 1.524 . S
C3268 C3269 1.397 . S
C3268 C3273 1.363 . S
C3269 H3240 0.950 . S
C3269 C3268 1.397 . S
C3269 C3270 1.334 . S
C3270 H3241 0.950 . S
C3270 C3269 1.334 . S
C3270 C3271 1.287 . S
C3271 C3270 1.287 . S
C3271 C3272 1.524 . S
C3271 H3274 0.999 . S
C3272 H3242 0.950 . S
C3272 C3271 1.524 . S
C3272 C3273 1.415 . S
C3273 H3243 0.950 . S
C3273 C3268 1.363 . S
C3273 C3272 1.415 . S
H3274 C3271 0.999 . S
H3275 C3256 0.913 . S
H3276 C3294 0.951 . S
H3277 C3296 0.951 . S
H3278 C3298 0.950 . S
H3279 C3299 0.950 . S
H3280 C3301 0.950 . S
H3281 C3304 0.950 . S
H3282 C3305 0.950 . S
H3283 C3307 0.950 . S
H3284 C3308 0.950 . S
H3285 C3309 0.951 . S
H3286 C3311 0.951 . S
H3287 C3313 0.950 . S
H3288 C3314 0.950 . S
H3289 C3316 0.950 . S
H3290 C3319 0.950 . S
H3291 C3320 0.950 . S
H3292 C3322 0.950 . S
H3293 C3323 0.950 . S
C3294 H3276 0.951 . S
C3294 C3295 1.366 . S
C3294 C3296 1.388 . S
C3295 C3294 1.366 . S
C3295 C3299 1.385 . S
C3296 H3277 0.951 . S
C3296 C3294 1.388 . S
C3296 C3297 1.366 . S
C3297 C3296 1.366 . S
C3297 C3298 1.414 . S
C3297 C3300 1.499 . S
C3298 H3278 0.950 . S
C3298 C3297 1.414 . S
C3298 C3299 1.374 . S
C3299 H3279 0.950 . S
C3299 C3295 1.385 . S
C3299 C3298 1.374 . S
C3300 C3297 1.499 . S
C3300 C3301 1.373 . S
C3300 C3302 1.389 . S
C3301 H3280 0.950 . S
C3301 C3300 1.373 . S
C3301 C3317 1.377 . S
C3302 C3300 1.389 . S
C3302 C3303 1.524 . S
C3302 C3316 1.377 . S
C3303 C3302 1.524 . S
C3303 C3304 1.397 . S
C3303 C3308 1.363 . S
C3304 H3281 0.950 . S
C3304 C3303 1.397 . S
C3304 C3305 1.334 . S
C3305 H3282 0.950 . S
C3305 C3304 1.334 . S
C3305 C3306 1.287 . S
C3306 C3305 1.287 . S
C3306 C3307 1.524 . S
C3306 H3325 0.913 . S
C3307 H3283 0.950 . S
C3307 C3306 1.524 . S
C3307 C3308 1.415 . S
C3308 H3284 0.950 . S
C3308 C3303 1.363 . S
C3308 C3307 1.415 . S
C3309 H3285 0.951 . S
C3309 C3310 1.366 . S
C3309 C3311 1.388 . S
C3310 C3309 1.366 . S
C3310 C3314 1.385 . S
C3311 H3286 0.951 . S
C3311 C3309 1.388 . S
C3311 C3312 1.366 . S
C3312 C3311 1.366 . S
C3312 C3313 1.414 . S
C3312 C3315 1.499 . S
C3313 H3287 0.950 . S
C3313 C3312 1.414 . S
C3313 C3314 1.374 . S
C3314 H3288 0.950 . S
C3314 C3310 1.385 . S
C3314 C3313 1.374 . S
C3315 C3312 1.499 . S
C3315 C3316 1.373 . S
C3315 C3317 1.389 . S
C3316 H3289 0.950 . S
C3316 C3302 1.377 . S
C3316 C3315 1.373 . S
C3317 C3301 1.377 . S
C3317 C3315 1.389 . S
C3317 C3318 1.524 . S
C3318 C3317 1.524 . S
C3318 C3319 1.397 . S
C3318 C3323 1.363 . S
C3319 H3290 0.950 . S
C3319 C3318 1.397 . S
C3319 C3320 1.334 . S
C3320 H3291 0.950 . S
C3320 C3319 1.334 . S
C3320 C3321 1.287 . S
C3321 C3320 1.287 . S
C3321 C3322 1.524 . S
C3321 H3324 0.999 . S
C3322 H3292 0.950 . S
C3322 C3321 1.524 . S
C3322 C3323 1.415 . S
C3323 H3293 0.950 . S
C3323 C3318 1.363 . S
C3323 C3322 1.415 . S
H3324 C3321 0.999 . S
H3325 C3306 0.913 . S
H3326 C3344 0.951 . S
H3327 C3346 0.951 . S
H3328 C3348 0.950 . S
H3329 C3349 0.950 . S
H3330 C3351 0.950 . S
H3331 C3354 0.950 . S
H3332 C3355 0.950 . S
H3333 C3357 0.950 . S
H3334 C3358 0.950 . S
H3335 C3359 0.951 . S
H3336 C3361 0.951 . S
H3337 C3363 0.950 . S
H3338 C3364 0.950 . S
H3339 C3366 0.950 . S
H3340 C3369 0.950 . S
H3341 C3370 0.950 . S
H3342 C3372 0.950 . S
H3343 C3373 0.950 . S
C3344 H3326 0.951 . S
C3344 C3345 1.366 . S
C3344 C3346 1.388 . S
C3345 C3344 1.366 . S
C3345 C3349 1.385 . S
C3346 H3327 0.951 . S
C3346 C3344 1.388 . S
C3346 C3347 1.366 . S
C3347 C3346 1.366 . S
C3347 C3348 1.414 . S
C3347 C3350 1.499 . S
C3348 H3328 0.950 . S
C3348 C3347 1.414 . S
C3348 C3349 1.374 . S
C3349 H3329 0.950 . S
C3349 C3345 1.385 . S
C3349 C3348 1.374 . S
C3350 C3347 1.499 . S
C3350 C3351 1.373 . S
C3350 C3352 1.389 . S
C3351 H3330 0.950 . S
C3351 C3350 1.373 . S
C3351 C3367 1.377 . S
C3352 C3350 1.389 . S
C3352 C3353 1.524 . S
C3352 C3366 1.377 . S
C3353 C3352 1.524 . S
C3353 C3354 1.397 . S
C3353 C3358 1.363 . S
C3354 H3331 0.950 . S
C3354 C3353 1.397 . S
C3354 C3355 1.334 . S
C3355 H3332 0.950 . S
C3355 C3354 1.334 . S
C3355 C3356 1.287 . S
C3356 C3355 1.287 . S
C3356 C3357 1.524 . S
C3356 H3375 0.913 . S
C3357 H3333 0.950 . S
C3357 C3356 1.524 . S
C3357 C3358 1.415 . S
C3358 H3334 0.950 . S
C3358 C3353 1.363 . S
C3358 C3357 1.415 . S
C3359 H3335 0.951 . S
C3359 C3360 1.366 . S
C3359 C3361 1.388 . S
C3360 C3359 1.366 . S
C3360 C3364 1.385 . S
C3361 H3336 0.951 . S
C3361 C3359 1.388 . S
C3361 C3362 1.366 . S
C3362 C3361 1.366 . S
C3362 C3363 1.414 . S
C3362 C3365 1.499 . S
C3363 H3337 0.950 . S
C3363 C3362 1.414 . S
C3363 C3364 1.374 . S
C3364 H3338 0.950 . S
C3364 C3360 1.385 . S
C3364 C3363 1.374 . S
C3365 C3362 1.499 . S
C3365 C3366 1.373 . S
C3365 C3367 1.389 . S
C3366 H3339 0.950 . S
C3366 C3352 1.377 . S
C3366 C3365 1.373 . S
C3367 C3351 1.377 . S
C3367 C3365 1.389 . S
C3367 C3368 1.524 . S
C3368 C3367 1.524 . S
C3368 C3369 1.397 . S
C3368 C3373 1.363 . S
C3369 H3340 0.950 . S
C3369 C3368 1.397 . S
C3369 C3370 1.334 . S
C3370 H3341 0.950 . S
C3370 C3369 1.334 . S
C3370 C3371 1.287 . S
C3371 C3370 1.287 . S
C3371 C3372 1.524 . S
C3371 H3374 0.999 . S
C3372 H3342 0.950 . S
C3372 C3371 1.524 . S
C3372 C3373 1.415 . S
C3373 H3343 0.950 . S
C3373 C3368 1.363 . S
C3373 C3372 1.415 . S
H3374 C3371 0.999 . S
H3375 C3356 0.913 . S
H3376 C3394 0.951 . S
H3377 C3396 0.951 . S
H3378 C3398 0.950 . S
H3379 C3399 0.950 . S
H3380 C3401 0.950 . S
H3381 C3404 0.950 . S
H3382 C3405 0.950 . S
H3383 C3407 0.950 . S
H3384 C3408 0.950 . S
H3385 C3409 0.951 . S
H3386 C3411 0.951 . S
H3387 C3413 0.950 . S
H3388 C3414 0.950 . S
H3389 C3416 0.950 . S
H3390 C3419 0.950 . S
H3391 C3420 0.950 . S
H3392 C3422 0.950 . S
H3393 C3423 0.950 . S
C3394 H3376 0.951 . S
C3394 C3395 1.366 . S
C3394 C3396 1.388 . S
C3395 C3394 1.366 . S
C3395 C3399 1.385 . S
C3396 H3377 0.951 . S
C3396 C3394 1.388 . S
C3396 C3397 1.366 . S
C3397 C3396 1.366 . S
C3397 C3398 1.414 . S
C3397 C3400 1.499 . S
C3398 H3378 0.950 . S
C3398 C3397 1.414 . S
C3398 C3399 1.374 . S
C3399 H3379 0.950 . S
C3399 C3395 1.385 . S
C3399 C3398 1.374 . S
C3400 C3397 1.499 . S
C3400 C3401 1.373 . S
C3400 C3402 1.389 . S
C3401 H3380 0.950 . S
C3401 C3400 1.373 . S
C3401 C3417 1.377 . S
C3402 C3400 1.389 . S
C3402 C3403 1.524 . S
C3402 C3416 1.377 . S
C3403 C3402 1.524 . S
C3403 C3404 1.397 . S
C3403 C3408 1.363 . S
C3404 H3381 0.950 . S
C3404 C3403 1.397 . S
C3404 C3405 1.334 . S
C3405 H3382 0.950 . S
C3405 C3404 1.334 . S
C3405 C3406 1.287 . S
C3406 C3405 1.287 . S
C3406 C3407 1.524 . S
C3406 H3425 0.913 . S
C3407 H3383 0.950 . S
C3407 C3406 1.524 . S
C3407 C3408 1.415 . S
C3408 H3384 0.950 . S
C3408 C3403 1.363 . S
C3408 C3407 1.415 . S
C3409 H3385 0.951 . S
C3409 C3410 1.366 . S
C3409 C3411 1.388 . S
C3410 C3409 1.366 . S
C3410 C3414 1.385 . S
C3411 H3386 0.951 . S
C3411 C3409 1.388 . S
C3411 C3412 1.366 . S
C3412 C3411 1.366 . S
C3412 C3413 1.414 . S
C3412 C3415 1.499 . S
C3413 H3387 0.950 . S
C3413 C3412 1.414 . S
C3413 C3414 1.374 . S
C3414 H3388 0.950 . S
C3414 C3410 1.385 . S
C3414 C3413 1.374 . S
C3415 C3412 1.499 . S
C3415 C3416 1.373 . S
C3415 C3417 1.389 . S
C3416 H3389 0.950 . S
C3416 C3402 1.377 . S
C3416 C3415 1.373 . S
C3417 C3401 1.377 . S
C3417 C3415 1.389 . S
C3417 C3418 1.524 . S
C3418 C3417 1.524 . S
C3418 C3419 1.397 . S
C3418 C3423 1.363 . S
C3419 H3390 0.950 . S
C3419 C3418 1.397 . S
C3419 C3420 1.334 . S
C3420 H3391 0.950 . S
C3420 C3419 1.334 . S
C3420 C3421 1.287 . S
C3421 C3420 1.287 . S
C3421 C3422 1.524 . S
C3421 H3424 0.999 . S
C3422 H3392 0.950 . S
C3422 C3421 1.524 . S
C3422 C3423 1.415 . S
C3423 H3393 0.950 . S
C3423 C3418 1.363 . S
C3423 C3422 1.415 . S
H3424 C3421 0.999 . S
H3425 C3406 0.913 . S
H3426 C3444 0.951 . S
H3427 C3446 0.951 . S
H3428 C3448 0.950 . S
H3429 C3449 0.950 . S
H3430 C3451 0.950 . S
H3431 C3454 0.950 . S
H3432 C3455 0.950 . S
H3433 C3457 0.950 . S
H3434 C3458 0.950 . S
H3435 C3459 0.951 . S
H3436 C3461 0.951 . S
H3437 C3463 0.950 . S
H3438 C3464 0.950 . S
H3439 C3466 0.950 . S
H3440 C3469 0.950 . S
H3441 C3470 0.950 . S
H3442 C3472 0.950 . S
H3443 C3473 0.950 . S
C3444 H3426 0.951 . S
C3444 C3445 1.366 . S
C3444 C3446 1.388 . S
C3445 C3444 1.366 . S
C3445 C3449 1.385 . S
C3446 H3427 0.951 . S
C3446 C3444 1.388 . S
C3446 C3447 1.366 . S
C3447 C3446 1.366 . S
C3447 C3448 1.414 . S
C3447 C3450 1.499 . S
C3448 H3428 0.950 . S
C3448 C3447 1.414 . S
C3448 C3449 1.374 . S
C3449 H3429 0.950 . S
C3449 C3445 1.385 . S
C3449 C3448 1.374 . S
C3450 C3447 1.499 . S
C3450 C3451 1.373 . S
C3450 C3452 1.389 . S
C3451 H3430 0.950 . S
C3451 C3450 1.373 . S
C3451 C3467 1.377 . S
C3452 C3450 1.389 . S
C3452 C3453 1.524 . S
C3452 C3466 1.377 . S
C3453 C3452 1.524 . S
C3453 C3454 1.397 . S
C3453 C3458 1.363 . S
C3454 H3431 0.950 . S
C3454 C3453 1.397 . S
C3454 C3455 1.334 . S
C3455 H3432 0.950 . S
C3455 C3454 1.334 . S
C3455 C3456 1.287 . S
C3456 C3455 1.287 . S
C3456 C3457 1.524 . S
C3456 H3475 0.913 . S
C3457 H3433 0.950 . S
C3457 C3456 1.524 . S
C3457 C3458 1.415 . S
C3458 H3434 0.950 . S
C3458 C3453 1.363 . S
C3458 C3457 1.415 . S
C3459 H3435 0.951 . S
C3459 C3460 1.366 . S
C3459 C3461 1.388 . S
C3460 C3459 1.366 . S
C3460 C3464 1.385 . S
C3461 H3436 0.951 . S
C3461 C3459 1.388 . S
C3461 C3462 1.366 . S
C3462 C3461 1.366 . S
C3462 C3463 1.414 . S
C3462 C3465 1.499 . S
C3463 H3437 0.950 . S
C3463 C3462 1.414 . S
C3463 C3464 1.374 . S
C3464 H3438 0.950 . S
C3464 C3460 1.385 . S
C3464 C3463 1.374 . S
C3465 C3462 1.499 . S
C3465 C3466 1.373 . S
C3465 C3467 1.389 . S
C3466 H3439 0.950 . S
C3466 C3452 1.377 . S
C3466 C3465 1.373 . S
C3467 C3451 1.377 . S
C3467 C3465 1.389 . S
C3467 C3468 1.524 . S
C3468 C3467 1.524 . S
C3468 C3469 1.397 . S
C3468 C3473 1.363 . S
C3469 H3440 0.950 . S
C3469 C3468 1.397 . S
C3469 C3470 1.334 . S
C3470 H3441 0.950 . S
C3470 C3469 1.334 . S
C3470 C3471 1.287 . S
C3471 C3470 1.287 . S
C3471 C3472 1.524 . S
C3471 H3474 0.999 . S
C3472 H3442 0.950 . S
C3472 C3471 1.524 . S
C3472 C3473 1.415 . S
C3473 H3443 0.950 . S
C3473 C3468 1.363 . S
C3473 C3472 1.415 . S
H3474 C3471 0.999 . S
H3475 C3456 0.913 . S
H3476 C3494 0.951 . S
H3477 C3496 0.951 . S
H3478 C3498 0.950 . S
H3479 C3499 0.950 . S
H3480 C3501 0.950 . S
H3481 C3504 0.950 . S
H3482 C3505 0.918 1_455 S
H3483 C3507 0.950 . S
H3484 C3508 0.950 . S
H3485 C3509 0.951 . S
H3486 C3511 0.951 . S
H3487 C3513 0.957 1_655 S
H3488 C3514 0.950 1_655 S
H3489 C3516 0.950 . S
H3490 C3519 0.950 . S
H3491 C3520 0.950 . S
H3492 C3522 0.950 . S
H3493 C3523 0.950 . S
C3494 H3476 0.951 . S
C3494 C3495 1.366 . S
C3494 C3496 1.388 . S
C3495 C3494 1.366 . S
C3495 C3499 1.385 . S
C3496 H3477 0.951 . S
C3496 C3494 1.388 . S
C3496 C3497 1.366 . S
C3497 C3496 1.366 . S
C3497 C3498 1.414 . S
C3497 C3500 1.499 . S
C3498 H3478 0.950 . S
C3498 C3497 1.414 . S
C3498 C3499 1.374 . S
C3499 H3479 0.950 . S
C3499 C3495 1.385 . S
C3499 C3498 1.374 . S
C3500 C3497 1.499 . S
C3500 C3501 1.373 . S
C3500 C3502 1.389 . S
C3501 H3480 0.950 . S
C3501 C3500 1.373 . S
C3501 C3517 1.377 . S
C3502 C3500 1.389 . S
C3502 C3503 1.524 . S
C3502 C3516 1.377 . S
C3503 C3502 1.524 . S
C3503 C3504 1.397 . S
C3503 C3508 1.363 1_455 S
C3504 H3481 0.950 . S
C3504 C3503 1.397 . S
C3504 C3505 1.313 1_455 S
C3505 H3482 0.918 1_655 S
C3505 C3504 1.313 1_655 S
C3505 C3506 1.343 . S
C3506 C3505 1.343 . S
C3506 C3507 1.524 . S
C3506 H3525 0.913 . S
C3507 H3483 0.950 . S
C3507 C3506 1.524 . S
C3507 C3508 1.415 . S
C3508 H3484 0.950 . S
C3508 C3503 1.363 1_655 S
C3508 C3507 1.415 . S
C3509 H3485 0.951 . S
C3509 C3510 1.366 . S
C3509 C3511 1.388 . S
C3510 C3509 1.366 . S
C3510 C3514 1.385 . S
C3511 H3486 0.951 . S
C3511 C3509 1.388 . S
C3511 C3512 1.366 . S
C3512 C3511 1.366 . S
C3512 C3513 1.414 . S
C3512 C3515 1.499 1_554 S
C3513 H3487 0.957 1_455 S
C3513 C3512 1.414 . S
C3513 C3514 1.374 . S
C3514 H3488 0.950 1_455 S
C3514 C3510 1.385 . S
C3514 C3513 1.374 . S
C3515 C3512 1.499 1_556 S
C3515 C3516 1.373 . S
C3515 C3517 1.389 . S
C3516 H3489 0.950 . S
C3516 C3502 1.377 . S
C3516 C3515 1.373 . S
C3517 C3501 1.377 . S
C3517 C3515 1.389 . S
C3517 C3518 1.524 1_556 S
C3518 C3517 1.524 1_554 S
C3518 C3519 1.397 . S
C3518 C3523 1.363 . S
C3519 H3490 0.950 . S
C3519 C3518 1.397 . S
C3519 C3520 1.334 . S
C3520 H3491 0.950 . S
C3520 C3519 1.334 . S
C3520 C3521 1.287 . S
C3521 C3520 1.287 . S
C3521 C3522 1.524 . S
C3521 H3524 0.999 . S
C3522 H3492 0.950 . S
C3522 C3521 1.524 . S
C3522 C3523 1.415 . S
C3523 H3493 0.950 . S
C3523 C3518 1.363 . S
C3523 C3522 1.415 . S
H3524 C3521 0.999 . S
H3525 C3506 0.913 . S
H3526 C3544 0.951 . S
H3527 C3546 0.951 . S
H3528 C3548 0.950 . S
H3529 C3549 0.950 . S
H3530 C3551 0.950 . S
H3531 C3554 0.950 . S
H3532 C3555 0.950 . S
H3533 C3557 0.950 . S
H3534 C3558 0.950 . S
H3535 C3559 0.951 . S
H3536 C3561 0.951 . S
H3537 C3563 0.950 . S
H3538 C3564 0.950 . S
H3539 C3566 0.950 . S
H3540 C3569 0.950 . S
H3541 C3570 0.950 . S
H3542 C3572 0.950 . S
H3543 C3573 0.950 . S
C3544 H3526 0.951 . S
C3544 C3545 1.366 . S
C3544 C3546 1.388 . S
C3545 C3544 1.366 . S
C3545 C3549 1.385 . S
C3546 H3527 0.951 . S
C3546 C3544 1.388 . S
C3546 C3547 1.366 . S
C3547 C3546 1.366 . S
C3547 C3548 1.414 . S
C3547 C3550 1.499 . S
C3548 H3528 0.950 . S
C3548 C3547 1.414 . S
C3548 C3549 1.374 . S
C3549 H3529 0.950 . S
C3549 C3545 1.385 . S
C3549 C3548 1.374 . S
C3550 C3547 1.499 . S
C3550 C3551 1.373 . S
C3550 C3552 1.389 . S
C3551 H3530 0.950 . S
C3551 C3550 1.373 . S
C3551 C3567 1.377 . S
C3552 C3550 1.389 . S
C3552 C3553 1.524 . S
C3552 C3566 1.377 . S
C3553 C3552 1.524 . S
C3553 C3554 1.397 . S
C3553 C3558 1.363 . S
C3554 H3531 0.950 . S
C3554 C3553 1.397 . S
C3554 C3555 1.334 . S
C3555 H3532 0.950 . S
C3555 C3554 1.334 . S
C3555 C3556 1.287 . S
C3556 C3555 1.287 . S
C3556 C3557 1.524 . S
C3556 H3575 0.913 . S
C3557 H3533 0.950 . S
C3557 C3556 1.524 . S
C3557 C3558 1.415 . S
C3558 H3534 0.950 . S
C3558 C3553 1.363 . S
C3558 C3557 1.415 . S
C3559 H3535 0.951 . S
C3559 C3560 1.366 . S
C3559 C3561 1.388 . S
C3560 C3559 1.366 . S
C3560 C3564 1.385 . S
C3561 H3536 0.951 . S
C3561 C3559 1.388 . S
C3561 C3562 1.366 . S
C3562 C3561 1.366 . S
C3562 C3563 1.414 . S
C3562 C3565 1.499 . S
C3563 H3537 0.950 . S
C3563 C3562 1.414 . S
C3563 C3564 1.374 . S
C3564 H3538 0.950 . S
C3564 C3560 1.385 . S
C3564 C3563 1.374 . S
C3565 C3562 1.499 . S
C3565 C3566 1.373 . S
C3565 C3567 1.389 . S
C3566 H3539 0.950 . S
C3566 C3552 1.377 . S
C3566 C3565 1.373 . S
C3567 C3551 1.377 . S
C3567 C3565 1.389 . S
C3567 C3568 1.524 . S
C3568 C3567 1.524 . S
C3568 C3569 1.397 . S
C3568 C3573 1.363 . S
C3569 H3540 0.950 . S
C3569 C3568 1.397 . S
C3569 C3570 1.334 . S
C3570 H3541 0.950 . S
C3570 C3569 1.334 . S
C3570 C3571 1.287 . S
C3571 C3570 1.287 . S
C3571 C3572 1.524 . S
C3571 H3574 0.999 . S
C3572 H3542 0.950 . S
C3572 C3571 1.524 . S
C3572 C3573 1.415 . S
C3573 H3543 0.950 . S
C3573 C3568 1.363 . S
C3573 C3572 1.415 . S
H3574 C3571 0.999 . S
H3575 C3556 0.913 . S
H3576 C3594 0.951 . S
H3577 C3596 0.951 . S
H3578 C3598 0.950 . S
H3579 C3599 0.950 . S
H3580 C3601 0.950 . S
H3581 C3604 0.950 . S
H3582 C3605 0.950 . S
H3583 C3607 0.950 . S
H3584 C3608 0.950 . S
H3585 C3609 0.951 . S
H3586 C3611 0.951 . S
H3587 C3613 0.950 . S
H3588 C3614 0.950 . S
H3589 C3616 0.950 . S
H3590 C3619 0.950 . S
H3591 C3620 0.950 . S
H3592 C3622 0.950 . S
H3593 C3623 0.950 . S
C3594 H3576 0.951 . S
C3594 C3595 1.366 . S
C3594 C3596 1.388 . S
C3595 C3594 1.366 . S
C3595 C3599 1.385 . S
C3596 H3577 0.951 . S
C3596 C3594 1.388 . S
C3596 C3597 1.366 . S
C3597 C3596 1.366 . S
C3597 C3598 1.414 . S
C3597 C3600 1.499 . S
C3598 H3578 0.950 . S
C3598 C3597 1.414 . S
C3598 C3599 1.374 . S
C3599 H3579 0.950 . S
C3599 C3595 1.385 . S
C3599 C3598 1.374 . S
C3600 C3597 1.499 . S
C3600 C3601 1.373 . S
C3600 C3602 1.389 . S
C3601 H3580 0.950 . S
C3601 C3600 1.373 . S
C3601 C3617 1.377 . S
C3602 C3600 1.389 . S
C3602 C3603 1.524 . S
C3602 C3616 1.377 . S
C3603 C3602 1.524 . S
C3603 C3604 1.397 . S
C3603 C3608 1.363 . S
C3604 H3581 0.950 . S
C3604 C3603 1.397 . S
C3604 C3605 1.334 . S
C3605 H3582 0.950 . S
C3605 C3604 1.334 . S
C3605 C3606 1.287 . S
C3606 C3605 1.287 . S
C3606 C3607 1.524 . S
C3606 H3625 0.913 . S
C3607 H3583 0.950 . S
C3607 C3606 1.524 . S
C3607 C3608 1.415 . S
C3608 H3584 0.950 . S
C3608 C3603 1.363 . S
C3608 C3607 1.415 . S
C3609 H3585 0.951 . S
C3609 C3610 1.366 . S
C3609 C3611 1.388 . S
C3610 C3609 1.366 . S
C3610 C3614 1.385 . S
C3611 H3586 0.951 . S
C3611 C3609 1.388 . S
C3611 C3612 1.366 . S
C3612 C3611 1.366 . S
C3612 C3613 1.414 . S
C3612 C3615 1.499 . S
C3613 H3587 0.950 . S
C3613 C3612 1.414 . S
C3613 C3614 1.374 . S
C3614 H3588 0.950 . S
C3614 C3610 1.385 . S
C3614 C3613 1.374 . S
C3615 C3612 1.499 . S
C3615 C3616 1.373 . S
C3615 C3617 1.389 . S
C3616 H3589 0.950 . S
C3616 C3602 1.377 . S
C3616 C3615 1.373 . S
C3617 C3601 1.377 . S
C3617 C3615 1.389 . S
C3617 C3618 1.524 . S
C3618 C3617 1.524 . S
C3618 C3619 1.397 . S
C3618 C3623 1.363 . S
C3619 H3590 0.950 . S
C3619 C3618 1.397 . S
C3619 C3620 1.334 . S
C3620 H3591 0.950 . S
C3620 C3619 1.334 . S
C3620 C3621 1.287 . S
C3621 C3620 1.287 . S
C3621 C3622 1.524 . S
C3621 H3624 0.999 . S
C3622 H3592 0.950 . S
C3622 C3621 1.524 . S
C3622 C3623 1.415 . S
C3623 H3593 0.950 . S
C3623 C3618 1.363 . S
C3623 C3622 1.415 . S
H3624 C3621 0.999 . S
H3625 C3606 0.913 . S
H3626 C3644 0.951 . S
H3627 C3646 0.951 . S
H3628 C3648 0.950 . S
H3629 C3649 0.950 . S
H3630 C3651 0.950 . S
H3631 C3654 0.950 . S
H3632 C3655 0.950 . S
H3633 C3657 0.950 . S
H3634 C3658 0.950 . S
H3635 C3659 0.951 . S
H3636 C3661 0.951 . S
H3637 C3663 0.950 . S
H3638 C3664 0.950 . S
H3639 C3666 0.950 . S
H3640 C3669 0.950 . S
H3641 C3670 0.950 . S
H3642 C3672 0.950 . S
H3643 C3673 0.950 . S
C3644 H3626 0.951 . S
C3644 C3645 1.366 . S
C3644 C3646 1.388 . S
C3645 C3644 1.366 . S
C3645 C3649 1.385 . S
C3646 H3627 0.951 . S
C3646 C3644 1.388 . S
C3646 C3647 1.366 1_455 S
C3647 C3646 1.366 1_655 S
C3647 C3648 1.414 . S
C3647 C3650 1.499 . S
C3648 H3628 0.950 . S
C3648 C3647 1.414 . S
C3648 C3649 1.374 1_655 S
C3649 H3629 0.950 . S
C3649 C3645 1.385 . S
C3649 C3648 1.374 1_455 S
C3650 C3647 1.499 . S
C3650 C3651 1.373 . S
C3650 C3652 1.389 . S
C3651 H3630 0.950 . S
C3651 C3650 1.373 . S
C3651 C3667 1.377 . S
C3652 C3650 1.389 . S
C3652 C3653 1.524 . S
C3652 C3666 1.377 . S
C3653 C3652 1.524 . S
C3653 C3654 1.397 . S
C3653 C3658 1.363 . S
C3654 H3631 0.950 . S
C3654 C3653 1.397 . S
C3654 C3655 1.334 1_655 S
C3655 H3632 0.950 . S
C3655 C3654 1.334 1_455 S
C3655 C3656 1.287 . S
C3656 C3655 1.287 . S
C3656 C3657 1.524 . S
C3656 H3675 0.913 . S
C3657 H3633 0.950 . S
C3657 C3656 1.524 . S
C3657 C3658 1.415 1_455 S
C3658 H3634 0.950 . S
C3658 C3653 1.363 . S
C3658 C3657 1.415 1_655 S
C3659 H3635 0.951 . S
C3659 C3660 1.366 . S
C3659 C3661 1.388 . S
C3660 C3659 1.366 . S
C3660 C3664 1.385 . S
C3661 H3636 0.951 . S
C3661 C3659 1.388 . S
C3661 C3662 1.366 . S
C3662 C3661 1.366 . S
C3662 C3663 1.414 . S
C3662 C3665 1.499 . S
C3663 H3637 0.950 . S
C3663 C3662 1.414 . S
C3663 C3664 1.374 . S
C3664 H3638 0.950 . S
C3664 C3660 1.385 . S
C3664 C3663 1.374 . S
C3665 C3662 1.499 . S
C3665 C3666 1.373 . S
C3665 C3667 1.389 . S
C3666 H3639 0.950 . S
C3666 C3652 1.377 . S
C3666 C3665 1.373 . S
C3667 C3651 1.377 . S
C3667 C3665 1.389 . S
C3667 C3668 1.524 . S
C3668 C3667 1.524 . S
C3668 C3669 1.397 . S
C3668 C3673 1.363 . S
C3669 H3640 0.950 . S
C3669 C3668 1.397 . S
C3669 C3670 1.334 . S
C3670 H3641 0.950 . S
C3670 C3669 1.334 . S
C3670 C3671 1.287 . S
C3671 C3670 1.287 . S
C3671 C3672 1.524 . S
C3671 H3674 0.999 . S
C3672 H3642 0.950 . S
C3672 C3671 1.524 . S
C3672 C3673 1.415 . S
C3673 H3643 0.950 . S
C3673 C3668 1.363 . S
C3673 C3672 1.415 . S
H3674 C3671 0.999 . S
H3675 C3656 0.913 . S
H3676 C3694 0.951 . S
H3677 C3696 0.951 . S
H3678 C3698 0.950 . S
H3679 C3699 0.950 . S
H3680 C3701 0.950 . S
H3681 C3704 0.950 1_655 S
H3682 C3705 0.950 . S
H3683 C3707 0.950 . S
H3684 C3708 0.950 . S
H3685 C3709 0.951 . S
H3686 C3711 0.951 . S
H3687 C3713 0.950 . S
H3688 C3714 0.950 . S
H3689 C3716 0.950 . S
H3690 C3719 0.950 1_455 S
H3691 C3720 0.908 1_455 S
H3692 C3722 0.950 . S
H3693 C3723 0.950 . S
C3694 H3676 0.951 . S
C3694 C3695 1.366 1_455 S
C3694 C3696 1.388 . S
C3695 C3694 1.366 1_655 S
C3695 C3699 1.385 . S
C3696 H3677 0.951 . S
C3696 C3694 1.388 . S
C3696 C3697 1.366 1_455 S
C3697 C3696 1.366 1_655 S
C3697 C3698 1.414 . S
C3697 C3700 1.499 . S
C3698 H3678 0.950 . S
C3698 C3697 1.414 . S
C3698 C3699 1.374 . S
C3699 H3679 0.950 . S
C3699 C3695 1.385 . S
C3699 C3698 1.374 . S
C3700 C3697 1.499 . S
C3700 C3701 1.373 . S
C3700 C3702 1.389 1_655 S
C3701 H3680 0.950 . S
C3701 C3700 1.373 . S
C3701 C3717 1.377 . S
C3702 C3700 1.389 1_455 S
C3702 C3703 1.524 . S
C3702 C3716 1.377 . S
C3703 C3702 1.524 . S
C3703 C3704 1.397 . S
C3703 C3708 1.363 . S
C3704 H3681 0.950 1_455 S
C3704 C3703 1.397 . S
C3704 C3705 1.334 . S
C3705 H3682 0.950 . S
C3705 C3704 1.334 . S
C3705 C3706 1.287 . S
C3706 C3705 1.287 . S
C3706 C3707 1.524 . S
C3706 H3725 0.913 . S
C3707 H3683 0.950 . S
C3707 C3706 1.524 . S
C3707 C3708 1.415 . S
C3708 H3684 0.950 . S
C3708 C3703 1.363 . S
C3708 C3707 1.415 . S
C3709 H3685 0.951 . S
C3709 C3710 1.366 1_655 S
C3709 C3711 1.388 . S
C3710 C3709 1.366 1_455 S
C3710 C3714 1.385 . S
C3711 H3686 0.951 . S
C3711 C3709 1.388 . S
C3711 C3712 1.366 1_655 S
C3712 C3711 1.366 1_455 S
C3712 C3713 1.414 . S
C3712 C3715 1.499 . S
C3713 H3687 0.950 . S
C3713 C3712 1.414 . S
C3713 C3714 1.374 . S
C3714 H3688 0.950 . S
C3714 C3710 1.385 . S
C3714 C3713 1.374 . S
C3715 C3712 1.499 . S
C3715 C3716 1.373 . S
C3715 C3717 1.389 1_455 S
C3716 H3689 0.950 . S
C3716 C3702 1.377 . S
C3716 C3715 1.373 . S
C3717 C3701 1.377 . S
C3717 C3715 1.389 1_655 S
C3717 C3718 1.524 . S
C3718 C3717 1.524 . S
C3718 C3719 1.397 . S
C3718 C3723 1.363 . S
C3719 H3690 0.950 1_655 S
C3719 C3718 1.397 . S
C3719 C3720 1.334 . S
C3720 H3691 0.908 1_655 S
C3720 C3719 1.334 . S
C3720 C3721 1.287 . S
C3721 C3720 1.287 . S
C3721 C3722 1.524 . S
C3721 H3724 0.999 . S
C3722 H3692 0.950 . S
C3722 C3721 1.524 . S
C3722 C3723 1.415 . S
C3723 H3693 0.950 . S
C3723 C3718 1.363 . S
C3723 C3722 1.415 . S
H3724 C3721 0.999 . S
H3725 C3706 0.913 . S
H3726 C3744 0.951 . S
H3727 C3746 0.951 . S
H3728 C3748 0.950 . S
H3729 C3749 0.950 . S
H3730 C3751 0.950 . S
H3731 C3754 0.950 . S
H3732 C3755 0.950 . S
H3733 C3757 0.950 . S
H3734 C3758 0.950 . S
H3735 C3759 0.951 . S
H3736 C3761 0.951 . S
H3737 C3763 0.950 . S
H3738 C3764 0.950 . S
H3739 C3766 0.950 . S
H3740 C3769 0.950 . S
H3741 C3770 0.950 . S
H3742 C3772 0.950 . S
H3743 C3773 0.950 . S
C3744 H3726 0.951 . S
C3744 C3745 1.366 . S
C3744 C3746 1.388 . S
C3745 C3744 1.366 . S
C3745 C3749 1.385 . S
C3746 H3727 0.951 . S
C3746 C3744 1.388 . S
C3746 C3747 1.366 . S
C3747 C3746 1.366 . S
C3747 C3748 1.414 . S
C3747 C3750 1.499 . S
C3748 H3728 0.950 . S
C3748 C3747 1.414 . S
C3748 C3749 1.374 . S
C3749 H3729 0.950 . S
C3749 C3745 1.385 . S
C3749 C3748 1.374 . S
C3750 C3747 1.499 . S
C3750 C3751 1.373 . S
C3750 C3752 1.389 . S
C3751 H3730 0.950 . S
C3751 C3750 1.373 . S
C3751 C3767 1.377 . S
C3752 C3750 1.389 . S
C3752 C3753 1.524 . S
C3752 C3766 1.377 . S
C3753 C3752 1.524 . S
C3753 C3754 1.397 . S
C3753 C3758 1.363 . S
C3754 H3731 0.950 . S
C3754 C3753 1.397 . S
C3754 C3755 1.334 . S
C3755 H3732 0.950 . S
C3755 C3754 1.334 . S
C3755 C3756 1.287 . S
C3756 C3755 1.287 . S
C3756 C3757 1.524 . S
C3756 H3775 0.913 . S
C3757 H3733 0.950 . S
C3757 C3756 1.524 . S
C3757 C3758 1.415 . S
C3758 H3734 0.950 . S
C3758 C3753 1.363 . S
C3758 C3757 1.415 . S
C3759 H3735 0.951 . S
C3759 C3760 1.366 . S
C3759 C3761 1.388 . S
C3760 C3759 1.366 . S
C3760 C3764 1.385 . S
C3761 H3736 0.951 . S
C3761 C3759 1.388 . S
C3761 C3762 1.366 . S
C3762 C3761 1.366 . S
C3762 C3763 1.414 . S
C3762 C3765 1.499 . S
C3763 H3737 0.950 . S
C3763 C3762 1.414 . S
C3763 C3764 1.374 . S
C3764 H3738 0.950 . S
C3764 C3760 1.385 . S
C3764 C3763 1.374 . S
C3765 C3762 1.499 . S
C3765 C3766 1.373 . S
C3765 C3767 1.389 . S
C3766 H3739 0.950 . S
C3766 C3752 1.377 . S
C3766 C3765 1.373 . S
C3767 C3751 1.377 . S
C3767 C3765 1.389 . S
C3767 C3768 1.524 . S
C3768 C3767 1.524 . S
C3768 C3769 1.397 . S
C3768 C3773 1.363 . S
C3769 H3740 0.950 . S
C3769 C3768 1.397 . S
C3769 C3770 1.334 . S
C3770 H3741 0.950 . S
C3770 C3769 1.334 . S
C3770 C3771 1.287 . S
C3771 C3770 1.287 . S
C3771 C3772 1.524 . S
C3771 H3774 0.999 . S
C3772 H3742 0.950 . S
C3772 C3771 1.524 . S
C3772 C3773 1.415 . S
C3773 H3743 0.950 . S
C3773 C3768 1.363 . S
C3773 C3772 1.415 . S
H3774 C3771 0.999 . S
H3775 C3756 0.913 . S
H3776 C3794 0.951 . S
H3777 C3796 0.951 . S
H3778 C3798 0.950 . S
H3779 C3799 0.950 . S
H3780 C3801 0.950 . S
H3781 C3804 0.950 . S
H3782 C3805 0.950 . S
H3783 C3807 0.950 . S
H3784 C3808 0.950 . S
H3785 C3809 0.951 . S
H3786 C3811 0.951 . S
H3787 C3813 0.950 . S
H3788 C3814 0.950 . S
H3789 C3816 0.950 . S
H3790 C3819 0.950 . S
H3791 C3820 0.950 . S
H3792 C3822 0.950 . S
H3793 C3823 0.950 . S
C3794 H3776 0.951 . S
C3794 C3795 1.366 . S
C3794 C3796 1.388 . S
C3795 C3794 1.366 . S
C3795 C3799 1.385 . S
C3796 H3777 0.951 . S
C3796 C3794 1.388 . S
C3796 C3797 1.366 . S
C3797 C3796 1.366 . S
C3797 C3798 1.414 . S
C3797 C3800 1.499 . S
C3798 H3778 0.950 . S
C3798 C3797 1.414 . S
C3798 C3799 1.374 . S
C3799 H3779 0.950 . S
C3799 C3795 1.385 . S
C3799 C3798 1.374 . S
C3800 C3797 1.499 . S
C3800 C3801 1.373 . S
C3800 C3802 1.389 . S
C3801 H3780 0.950 . S
C3801 C3800 1.373 . S
C3801 C3817 1.377 . S
C3802 C3800 1.389 . S
C3802 C3803 1.524 . S
C3802 C3816 1.377 . S
C3803 C3802 1.524 . S
C3803 C3804 1.397 . S
C3803 C3808 1.363 . S
C3804 H3781 0.950 . S
C3804 C3803 1.397 . S
C3804 C3805 1.334 . S
C3805 H3782 0.950 . S
C3805 C3804 1.334 . S
C3805 C3806 1.287 . S
C3806 C3805 1.287 . S
C3806 C3807 1.524 . S
C3806 H3825 0.913 . S
C3807 H3783 0.950 . S
C3807 C3806 1.524 . S
C3807 C3808 1.415 . S
C3808 H3784 0.950 . S
C3808 C3803 1.363 . S
C3808 C3807 1.415 . S
C3809 H3785 0.951 . S
C3809 C3810 1.366 . S
C3809 C3811 1.388 . S
C3810 C3809 1.366 . S
C3810 C3814 1.385 . S
C3811 H3786 0.951 . S
C3811 C3809 1.388 . S
C3811 C3812 1.366 . S
C3812 C3811 1.366 . S
C3812 C3813 1.414 . S
C3812 C3815 1.499 . S
C3813 H3787 0.950 . S
C3813 C3812 1.414 . S
C3813 C3814 1.374 . S
C3814 H3788 0.950 . S
C3814 C3810 1.385 . S
C3814 C3813 1.374 . S
C3815 C3812 1.499 . S
C3815 C3816 1.373 . S
C3815 C3817 1.389 . S
C3816 H3789 0.950 . S
C3816 C3802 1.377 . S
C3816 C3815 1.373 . S
C3817 C3801 1.377 . S
C3817 C3815 1.389 . S
C3817 C3818 1.524 . S
C3818 C3817 1.524 . S
C3818 C3819 1.397 . S
C3818 C3823 1.363 . S
C3819 H3790 0.950 . S
C3819 C3818 1.397 . S
C3819 C3820 1.334 . S
C3820 H3791 0.950 . S
C3820 C3819 1.334 . S
C3820 C3821 1.287 . S
C3821 C3820 1.287 . S
C3821 C3822 1.524 . S
C3821 H3824 0.999 . S
C3822 H3792 0.950 . S
C3822 C3821 1.524 . S
C3822 C3823 1.415 . S
C3823 H3793 0.950 . S
C3823 C3818 1.363 . S
C3823 C3822 1.415 . S
H3824 C3821 0.999 . S
H3825 C3806 0.913 . S
H3826 C3844 0.951 1_554 S
H3827 C3846 0.951 . S
H3828 C3848 0.950 . S
H3829 C3849 0.950 . S
H3830 C3851 0.950 . S
H3831 C3854 0.950 . S
H3832 C3855 0.950 . S
H3833 C3857 0.950 . S
H3834 C3858 0.950 . S
H3835 C3859 0.951 . S
H3836 C3861 0.951 . S
H3837 C3863 0.950 . S
H3838 C3864 0.950 . S
H3839 C3866 0.950 . S
H3840 C3869 0.950 . S
H3841 C3870 0.950 . S
H3842 C3872 0.950 . S
H3843 C3873 0.950 . S
C3844 H3826 0.951 1_556 S
C3844 C3845 1.366 . S
C3844 C3846 1.388 . S
C3845 C3844 1.366 . S
C3845 C3849 1.385 . S
C3846 H3827 0.951 . S
C3846 C3844 1.388 . S
C3846 C3847 1.366 . S
C3847 C3846 1.366 . S
C3847 C3848 1.414 . S
C3847 C3850 1.499 . S
C3848 H3828 0.950 . S
C3848 C3847 1.414 . S
C3848 C3849 1.374 . S
C3849 H3829 0.950 . S
C3849 C3845 1.385 . S
C3849 C3848 1.374 . S
C3850 C3847 1.499 . S
C3850 C3851 1.373 . S
C3850 C3852 1.389 . S
C3851 H3830 0.950 . S
C3851 C3850 1.373 . S
C3851 C3867 1.377 . S
C3852 C3850 1.389 . S
C3852 C3853 1.524 . S
C3852 C3866 1.377 . S
C3853 C3852 1.524 . S
C3853 C3854 1.397 . S
C3853 C3858 1.363 . S
C3854 H3831 0.950 . S
C3854 C3853 1.397 . S
C3854 C3855 1.334 . S
C3855 H3832 0.950 . S
C3855 C3854 1.334 . S
C3855 C3856 1.287 . S
C3856 C3855 1.287 . S
C3856 C3857 1.524 . S
C3856 H3875 0.913 . S
C3857 H3833 0.950 . S
C3857 C3856 1.524 . S
C3857 C3858 1.415 . S
C3858 H3834 0.950 . S
C3858 C3853 1.363 . S
C3858 C3857 1.415 . S
C3859 H3835 0.951 . S
C3859 C3860 1.366 . S
C3859 C3861 1.388 . S
C3860 C3859 1.366 . S
C3860 C3864 1.385 . S
C3861 H3836 0.951 . S
C3861 C3859 1.388 . S
C3861 C3862 1.366 . S
C3862 C3861 1.366 . S
C3862 C3863 1.414 . S
C3862 C3865 1.499 . S
C3863 H3837 0.950 . S
C3863 C3862 1.414 . S
C3863 C3864 1.374 . S
C3864 H3838 0.950 . S
C3864 C3860 1.385 . S
C3864 C3863 1.374 . S
C3865 C3862 1.499 . S
C3865 C3866 1.373 . S
C3865 C3867 1.389 . S
C3866 H3839 0.950 . S
C3866 C3852 1.377 . S
C3866 C3865 1.373 . S
C3867 C3851 1.377 . S
C3867 C3865 1.389 . S
C3867 C3868 1.524 . S
C3868 C3867 1.524 . S
C3868 C3869 1.397 . S
C3868 C3873 1.363 . S
C3869 H3840 0.950 . S
C3869 C3868 1.397 . S
C3869 C3870 1.334 . S
C3870 H3841 0.950 . S
C3870 C3869 1.334 . S
C3870 C3871 1.287 . S
C3871 C3870 1.287 . S
C3871 C3872 1.524 . S
C3871 H3874 0.999 . S
C3872 H3842 0.950 . S
C3872 C3871 1.524 . S
C3872 C3873 1.415 . S
C3873 H3843 0.950 . S
C3873 C3868 1.363 . S
C3873 C3872 1.415 . S
H3874 C3871 0.999 . S
H3875 C3856 0.913 . S
H3876 C3894 0.951 . S
H3877 C3896 0.951 . S
H3878 C3898 0.950 . S
H3879 C3899 0.950 . S
H3880 C3901 0.950 . S
H3881 C3904 0.950 . S
H3882 C3905 0.950 . S
H3883 C3907 0.950 1_655 S
H3884 C3908 0.950 . S
H3885 C3909 0.951 . S
H3886 C3911 0.951 . S
H3887 C3913 0.950 . S
H3888 C3914 0.950 . S
H3889 C3916 0.950 . S
H3890 C3919 0.950 . S
H3891 C3920 0.950 . S
H3892 C3922 0.950 . S
H3893 C3923 0.950 . S
C3894 H3876 0.951 . S
C3894 C3895 1.366 . S
C3894 C3896 1.388 . S
C3895 C3894 1.366 . S
C3895 C3899 1.385 . S
C3896 H3877 0.951 . S
C3896 C3894 1.388 . S
C3896 C3897 1.366 . S
C3897 C3896 1.366 . S
C3897 C3898 1.414 . S
C3897 C3900 1.499 . S
C3898 H3878 0.950 . S
C3898 C3897 1.414 . S
C3898 C3899 1.374 . S
C3899 H3879 0.950 . S
C3899 C3895 1.385 . S
C3899 C3898 1.374 . S
C3900 C3897 1.499 . S
C3900 C3901 1.373 . S
C3900 C3902 1.389 . S
C3901 H3880 0.950 . S
C3901 C3900 1.373 . S
C3901 C3917 1.377 . S
C3902 C3900 1.389 . S
C3902 C3903 1.524 . S
C3902 C3916 1.377 . S
C3903 C3902 1.524 . S
C3903 C3904 1.397 . S
C3903 C3908 1.363 . S
C3904 H3881 0.950 . S
C3904 C3903 1.397 . S
C3904 C3905 1.334 . S
C3905 H3882 0.950 . S
C3905 C3904 1.334 . S
C3905 C3906 1.287 . S
C3906 C3905 1.287 . S
C3906 C3907 1.524 . S
C3906 H3925 0.913 . S
C3907 H3883 0.950 1_455 S
C3907 C3906 1.524 . S
C3907 C3908 1.415 . S
C3908 H3884 0.950 . S
C3908 C3903 1.363 . S
C3908 C3907 1.415 . S
C3909 H3885 0.951 . S
C3909 C3910 1.366 . S
C3909 C3911 1.388 . S
C3910 C3909 1.366 . S
C3910 C3914 1.385 . S
C3911 H3886 0.951 . S
C3911 C3909 1.388 . S
C3911 C3912 1.366 . S
C3912 C3911 1.366 . S
C3912 C3913 1.414 . S
C3912 C3915 1.499 . S
C3913 H3887 0.950 . S
C3913 C3912 1.414 . S
C3913 C3914 1.374 . S
C3914 H3888 0.950 . S
C3914 C3910 1.385 . S
C3914 C3913 1.374 . S
C3915 C3912 1.499 . S
C3915 C3916 1.373 . S
C3915 C3917 1.389 . S
C3916 H3889 0.950 . S
C3916 C3902 1.377 . S
C3916 C3915 1.373 . S
C3917 C3901 1.377 . S
C3917 C3915 1.389 . S
C3917 C3918 1.524 . S
C3918 C3917 1.524 . S
C3918 C3919 1.397 . S
C3918 C3923 1.363 . S
C3919 H3890 0.950 . S
C3919 C3918 1.397 . S
C3919 C3920 1.334 . S
C3920 H3891 0.950 . S
C3920 C3919 1.334 . S
C3920 C3921 1.287 . S
C3921 C3920 1.287 . S
C3921 C3922 1.524 . S
C3921 H3924 0.999 . S
C3922 H3892 0.950 . S
C3922 C3921 1.524 . S
C3922 C3923 1.415 . S
C3923 H3893 0.950 . S
C3923 C3918 1.363 . S
C3923 C3922 1.415 . S
H3924 C3921 0.999 . S
H3925 C3906 0.913 . S
H3926 C3944 0.951 . S
H3927 C3946 0.951 . S
H3928 C3948 0.950 . S
H3929 C3949 0.950 . S
H3930 C3951 0.950 . S
H3931 C3954 0.950 . S
H3932 C3955 0.950 . S
H3933 C3957 0.950 . S
H3934 C3958 0.950 . S
H3935 C3959 0.951 . S
H3936 C3961 0.951 . S
H3937 C3963 0.950 . S
H3938 C3964 0.950 . S
H3939 C3966 0.950 . S
H3940 C3969 0.950 . S
H3941 C3970 0.950 . S
H3942 C3972 0.950 . S
H3943 C3973 0.950 . S
C3944 H3926 0.951 . S
C3944 C3945 1.366 . S
C3944 C3946 1.388 . S
C3945 C3944 1.366 . S
C3945 C3949 1.385 . S
C3946 H3927 0.951 . S
C3946 C3944 1.388 . S
C3946 C3947 1.366 . S
C3947 C3946 1.366 . S
C3947 C3948 1.414 . S
C3947 C3950 1.499 . S
C3948 H3928 0.950 . S
C3948 C3947 1.414 . S
C3948 C3949 1.374 . S
C3949 H3929 0.950 . S
C3949 C3945 1.385 . S
C3949 C3948 1.374 . S
C3950 C3947 1.499 . S
C3950 C3951 1.373 . S
C3950 C3952 1.389 . S
C3951 H3930 0.950 . S
C3951 C3950 1.373 . S
C3951 C3967 1.377 . S
C3952 C3950 1.389 . S
C3952 C3953 1.524 . S
C3952 C3966 1.377 . S
C3953 C3952 1.524 . S
C3953 C3954 1.397 . S
C3953 C3958 1.363 . S
C3954 H3931 0.950 . S
C3954 C3953 1.397 . S
C3954 C3955 1.334 . S
C3955 H3932 0.950 . S
C3955 C3954 1.334 . S
C3955 C3956 1.287 . S
C3956 C3955 1.287 . S
C3956 C3957 1.524 . S
C3956 H3975 0.913 . S
C3957 H3933 0.950 . S
C3957 C3956 1.524 . S
C3957 C3958 1.415 . S
C3958 H3934 0.950 . S
C3958 C3953 1.363 . S
C3958 C3957 1.415 . S
C3959 H3935 0.951 . S
C3959 C3960 1.366 . S
C3959 C3961 1.388 . S
C3960 C3959 1.366 . S
C3960 C3964 1.385 . S
C3961 H3936 0.951 . S
C3961 C3959 1.388 . S
C3961 C3962 1.366 . S
C3962 C3961 1.366 . S
C3962 C3963 1.414 . S
C3962 C3965 1.499 . S
C3963 H3937 0.950 . S
C3963 C3962 1.414 . S
C3963 C3964 1.374 . S
C3964 H3938 0.950 . S
C3964 C3960 1.385 . S
C3964 C3963 1.374 . S
C3965 C3962 1.499 . S
C3965 C3966 1.373 . S
C3965 C3967 1.389 . S
C3966 H3939 0.950 . S
C3966 C3952 1.377 . S
C3966 C3965 1.373 . S
C3967 C3951 1.377 . S
C3967 C3965 1.389 . S
C3967 C3968 1.524 . S
C3968 C3967 1.524 . S
C3968 C3969 1.397 . S
C3968 C3973 1.363 . S
C3969 H3940 0.950 . S
C3969 C3968 1.397 . S
C3969 C3970 1.334 . S
C3970 H3941 0.950 . S
C3970 C3969 1.334 . S
C3970 C3971 1.287 . S
C3971 C3970 1.287 . S
C3971 C3972 1.524 . S
C3971 H3974 0.999 . S
C3972 H3942 0.950 . S
C3972 C3971 1.524 . S
C3972 C3973 1.415 . S
C3973 H3943 0.950 . S
C3973 C3968 1.363 . S
C3973 C3972 1.415 . S
H3974 C3971 0.999 . S
H3975 C3956 0.913 . S
H3976 C3994 0.951 . S
H3977 C3996 0.951 . S
H3978 C3998 0.950 . S
H3979 C3999 0.950 . S
H3980 C4001 0.950 . S
H3981 C4004 0.950 . S
H3982 C4005 0.950 . S
H3983 C4007 0.950 . S
H3984 C4008 0.950 . S
H3985 C4009 0.951 . S
H3986 C4011 0.951 . S
H3987 C4013 0.950 . S
H3988 C4014 0.950 . S
H3989 C4016 0.950 . S
H3990 C4019 0.950 . S
H3991 C4020 0.950 . S
H3992 C4022 0.950 . S
H3993 C4023 0.950 . S
C3994 H3976 0.951 . S
C3994 C3995 1.366 . S
C3994 C3996 1.388 . S
C3995 C3994 1.366 . S
C3995 C3999 1.385 . S
C3996 H3977 0.951 . S
C3996 C3994 1.388 . S
C3996 C3997 1.366 . S
C3997 C3996 1.366 . S
C3997 C3998 1.414 . S
C3997 C4000 1.499 . S
C3998 H3978 0.950 . S
C3998 C3997 1.414 . S
C3998 C3999 1.374 . S
C3999 H3979 0.950 . S
C3999 C3995 1.385 . S
C3999 C3998 1.374 . S
C4000 C3997 1.499 . S
C4000 C4001 1.373 . S
C4000 C4002 1.389 . S
C4001 H3980 0.950 . S
C4001 C4000 1.373 . S
C4001 C4017 1.377 . S
C4002 C4000 1.389 . S
C4002 C4003 1.524 . S
C4002 C4016 1.377 . S
C4003 C4002 1.524 . S
C4003 C4004 1.397 . S
C4003 C4008 1.363 . S
C4004 H3981 0.950 . S
C4004 C4003 1.397 . S
C4004 C4005 1.334 . S
C4005 H3982 0.950 . S
C4005 C4004 1.334 . S
C4005 C4006 1.287 . S
C4006 C4005 1.287 . S
C4006 C4007 1.524 . S
C4006 H4025 0.913 . S
C4007 H3983 0.950 . S
C4007 C4006 1.524 . S
C4007 C4008 1.415 . S
C4008 H3984 0.950 . S
C4008 C4003 1.363 . S
C4008 C4007 1.415 . S
C4009 H3985 0.951 . S
C4009 C4010 1.366 . S
C4009 C4011 1.388 . S
C4010 C4009 1.366 . S
C4010 C4014 1.385 . S
C4011 H3986 0.951 . S
C4011 C4009 1.388 . S
C4011 C4012 1.366 . S
C4012 C4011 1.366 . S
C4012 C4013 1.414 . S
C4012 C4015 1.499 . S
C4013 H3987 0.950 . S
C4013 C4012 1.414 . S
C4013 C4014 1.374 . S
C4014 H3988 0.950 . S
C4014 C4010 1.385 . S
C4014 C4013 1.374 . S
C4015 C4012 1.499 . S
C4015 C4016 1.373 . S
C4015 C4017 1.389 . S
C4016 H3989 0.950 . S
C4016 C4002 1.377 . S
C4016 C4015 1.373 . S
C4017 C4001 1.377 . S
C4017 C4015 1.389 . S
C4017 C4018 1.524 . S
C4018 C4017 1.524 . S
C4018 C4019 1.397 . S
C4018 C4023 1.363 . S
C4019 H3990 0.950 . S
C4019 C4018 1.397 . S
C4019 C4020 1.334 . S
C4020 H3991 0.950 . S
C4020 C4019 1.334 . S
C4020 C4021 1.287 . S
C4021 C4020 1.287 . S
C4021 C4022 1.524 . S
C4021 H4024 0.999 . S
C4022 H3992 0.950 . S
C4022 C4021 1.524 . S
C4022 C4023 1.415 . S
C4023 H3993 0.950 . S
C4023 C4018 1.363 . S
C4023 C4022 1.415 . S
H4024 C4021 0.999 . S
H4025 C4006 0.913 . S
H4026 C4044 0.951 . S
H4027 C4046 0.951 . S
H4028 C4048 0.950 . S
H4029 C4049 0.950 . S
H4030 C4051 0.950 . S
H4031 C4054 0.950 . S
H4032 C4055 0.950 . S
H4033 C4057 0.950 . S
H4034 C4058 0.950 . S
H4035 C4059 0.951 . S
H4036 C4061 0.951 . S
H4037 C4063 0.950 . S
H4038 C4064 0.950 . S
H4039 C4066 0.950 . S
H4040 C4069 0.950 . S
H4041 C4070 0.950 . S
H4042 C4072 0.950 . S
H4043 C4073 0.950 . S
C4044 H4026 0.951 . S
C4044 C4045 1.366 . S
C4044 C4046 1.388 . S
C4045 C4044 1.366 . S
C4045 C4049 1.385 . S
C4046 H4027 0.951 . S
C4046 C4044 1.388 . S
C4046 C4047 1.366 . S
C4047 C4046 1.366 . S
C4047 C4048 1.414 . S
C4047 C4050 1.499 . S
C4048 H4028 0.950 . S
C4048 C4047 1.414 . S
C4048 C4049 1.374 . S
C4049 H4029 0.950 . S
C4049 C4045 1.385 . S
C4049 C4048 1.374 . S
C4050 C4047 1.499 . S
C4050 C4051 1.373 . S
C4050 C4052 1.389 . S
C4051 H4030 0.950 . S
C4051 C4050 1.373 . S
C4051 C4067 1.377 . S
C4052 C4050 1.389 . S
C4052 C4053 1.524 . S
C4052 C4066 1.377 . S
C4053 C4052 1.524 . S
C4053 C4054 1.397 . S
C4053 C4058 1.363 . S
C4054 H4031 0.950 . S
C4054 C4053 1.397 . S
C4054 C4055 1.334 . S
C4055 H4032 0.950 . S
C4055 C4054 1.334 . S
C4055 C4056 1.287 . S
C4056 C4055 1.287 . S
C4056 C4057 1.524 . S
C4056 H4075 0.913 . S
C4057 H4033 0.950 . S
C4057 C4056 1.524 . S
C4057 C4058 1.415 . S
C4058 H4034 0.950 . S
C4058 C4053 1.363 . S
C4058 C4057 1.415 . S
C4059 H4035 0.951 . S
C4059 C4060 1.366 . S
C4059 C4061 1.388 . S
C4060 C4059 1.366 . S
C4060 C4064 1.385 . S
C4061 H4036 0.951 . S
C4061 C4059 1.388 . S
C4061 C4062 1.366 . S
C4062 C4061 1.366 . S
C4062 C4063 1.414 . S
C4062 C4065 1.499 . S
C4063 H4037 0.950 . S
C4063 C4062 1.414 . S
C4063 C4064 1.374 . S
C4064 H4038 0.950 . S
C4064 C4060 1.385 . S
C4064 C4063 1.374 . S
C4065 C4062 1.499 . S
C4065 C4066 1.373 . S
C4065 C4067 1.389 . S
C4066 H4039 0.950 . S
C4066 C4052 1.377 . S
C4066 C4065 1.373 . S
C4067 C4051 1.377 . S
C4067 C4065 1.389 . S
C4067 C4068 1.524 . S
C4068 C4067 1.524 . S
C4068 C4069 1.397 . S
C4068 C4073 1.363 . S
C4069 H4040 0.950 . S
C4069 C4068 1.397 . S
C4069 C4070 1.334 . S
C4070 H4041 0.950 . S
C4070 C4069 1.334 . S
C4070 C4071 1.287 . S
C4071 C4070 1.287 . S
C4071 C4072 1.524 . S
C4071 H4074 0.999 . S
C4072 H4042 0.950 . S
C4072 C4071 1.524 . S
C4072 C4073 1.415 . S
C4073 H4043 0.950 . S
C4073 C4068 1.363 . S
C4073 C4072 1.415 . S
H4074 C4071 0.999 . S
H4075 C4056 0.913 . S
H4076 C4094 0.951 . S
H4077 C4096 0.951 . S
H4078 C4098 0.950 . S
H4079 C4099 0.950 . S
H4080 C4101 0.950 . S
H4081 C4104 0.950 . S
H4082 C4105 0.950 . S
H4083 C4107 0.936 1_655 S
H4084 C4108 0.950 . S
H4085 C4109 0.951 . S
H4086 C4111 0.951 . S
H4087 C4113 0.950 . S
H4088 C4114 0.950 . S
H4089 C4116 0.950 . S
H4090 C4119 0.950 . S
H4091 C4120 0.950 . S
H4092 C4122 0.950 . S
H4093 C4123 0.950 . S
C4094 H4076 0.951 . S
C4094 C4095 1.366 . S
C4094 C4096 1.388 . S
C4095 C4094 1.366 . S
C4095 C4099 1.385 . S
C4096 H4077 0.951 . S
C4096 C4094 1.388 . S
C4096 C4097 1.366 . S
C4097 C4096 1.366 . S
C4097 C4098 1.414 . S
C4097 C4100 1.499 . S
C4098 H4078 0.950 . S
C4098 C4097 1.414 . S
C4098 C4099 1.374 . S
C4099 H4079 0.950 . S
C4099 C4095 1.385 . S
C4099 C4098 1.374 . S
C4100 C4097 1.499 . S
C4100 C4101 1.373 . S
C4100 C4102 1.389 . S
C4101 H4080 0.950 . S
C4101 C4100 1.373 . S
C4101 C4117 1.377 . S
C4102 C4100 1.389 . S
C4102 C4103 1.524 . S
C4102 C4116 1.377 . S
C4103 C4102 1.524 . S
C4103 C4104 1.397 . S
C4103 C4108 1.363 . S
C4104 H4081 0.950 . S
C4104 C4103 1.397 . S
C4104 C4105 1.334 . S
C4105 H4082 0.950 . S
C4105 C4104 1.334 . S
C4105 C4106 1.287 . S
C4106 C4105 1.287 . S
C4106 C4107 1.524 . S
C4106 H4125 0.913 . S
C4107 H4083 0.936 1_455 S
C4107 C4106 1.524 . S
C4107 C4108 1.415 . S
C4108 H4084 0.950 . S
C4108 C4103 1.363 . S
C4108 C4107 1.415 . S
C4109 H4085 0.951 . S
C4109 C4110 1.366 . S
C4109 C4111 1.388 . S
C4110 C4109 1.366 . S
C4110 C4114 1.385 . S
C4111 H4086 0.951 . S
C4111 C4109 1.388 . S
C4111 C4112 1.366 . S
C4112 C4111 1.366 . S
C4112 C4113 1.414 . S
C4112 C4115 1.499 . S
C4113 H4087 0.950 . S
C4113 C4112 1.414 . S
C4113 C4114 1.374 . S
C4114 H4088 0.950 . S
C4114 C4110 1.385 . S
C4114 C4113 1.374 . S
C4115 C4112 1.499 . S
C4115 C4116 1.373 . S
C4115 C4117 1.389 . S
C4116 H4089 0.950 . S
C4116 C4102 1.377 . S
C4116 C4115 1.373 . S
C4117 C4101 1.377 . S
C4117 C4115 1.389 . S
C4117 C4118 1.524 . S
C4118 C4117 1.524 . S
C4118 C4119 1.397 . S
C4118 C4123 1.363 . S
C4119 H4090 0.950 . S
C4119 C4118 1.397 . S
C4119 C4120 1.334 . S
C4120 H4091 0.950 . S
C4120 C4119 1.334 . S
C4120 C4121 1.287 . S
C4121 C4120 1.287 . S
C4121 C4122 1.524 . S
C4121 H4124 0.999 . S
C4122 H4092 0.950 . S
C4122 C4121 1.524 . S
C4122 C4123 1.415 . S
C4123 H4093 0.950 . S
C4123 C4118 1.363 . S
C4123 C4122 1.415 . S
H4124 C4121 0.999 . S
H4125 C4106 0.913 . S
H4126 C4144 0.951 . S
H4127 C4146 0.951 . S
H4128 C4148 0.950 . S
H4129 C4149 0.950 . S
H4130 C4151 0.950 . S
H4131 C4154 0.950 . S
H4132 C4155 0.950 . S
H4133 C4157 0.950 . S
H4134 C4158 0.950 . S
H4135 C4159 0.951 . S
H4136 C4161 0.951 . S
H4137 C4163 0.950 . S
H4138 C4164 0.950 . S
H4139 C4166 0.950 . S
H4140 C4169 0.950 . S
H4141 C4170 0.950 . S
H4142 C4172 0.950 . S
H4143 C4173 0.950 . S
C4144 H4126 0.951 . S
C4144 C4145 1.366 . S
C4144 C4146 1.388 . S
C4145 C4144 1.366 . S
C4145 C4149 1.385 . S
C4146 H4127 0.951 . S
C4146 C4144 1.388 . S
C4146 C4147 1.366 . S
C4147 C4146 1.366 . S
C4147 C4148 1.414 . S
C4147 C4150 1.499 . S
C4148 H4128 0.950 . S
C4148 C4147 1.414 . S
C4148 C4149 1.374 . S
C4149 H4129 0.950 . S
C4149 C4145 1.385 . S
C4149 C4148 1.374 . S
C4150 C4147 1.499 . S
C4150 C4151 1.373 . S
C4150 C4152 1.389 . S
C4151 H4130 0.950 . S
C4151 C4150 1.373 . S
C4151 C4167 1.377 . S
C4152 C4150 1.389 . S
C4152 C4153 1.524 . S
C4152 C4166 1.377 . S
C4153 C4152 1.524 . S
C4153 C4154 1.397 . S
C4153 C4158 1.363 . S
C4154 H4131 0.950 . S
C4154 C4153 1.397 . S
C4154 C4155 1.334 . S
C4155 H4132 0.950 . S
C4155 C4154 1.334 . S
C4155 C4156 1.287 . S
C4156 C4155 1.287 . S
C4156 C4157 1.524 . S
C4156 H4175 0.913 . S
C4157 H4133 0.950 . S
C4157 C4156 1.524 . S
C4157 C4158 1.415 . S
C4158 H4134 0.950 . S
C4158 C4153 1.363 . S
C4158 C4157 1.415 . S
C4159 H4135 0.951 . S
C4159 C4160 1.366 . S
C4159 C4161 1.388 . S
C4160 C4159 1.366 . S
C4160 C4164 1.385 . S
C4161 H4136 0.951 . S
C4161 C4159 1.388 . S
C4161 C4162 1.366 . S
C4162 C4161 1.366 . S
C4162 C4163 1.414 . S
C4162 C4165 1.499 . S
C4163 H4137 0.950 . S
C4163 C4162 1.414 . S
C4163 C4164 1.374 . S
C4164 H4138 0.950 . S
C4164 C4160 1.385 . S
C4164 C4163 1.374 . S
C4165 C4162 1.499 . S
C4165 C4166 1.373 . S
C4165 C4167 1.389 . S
C4166 H4139 0.950 . S
C4166 C4152 1.377 . S
C4166 C4165 1.373 . S
C4167 C4151 1.377 . S
C4167 C4165 1.389 . S
C4167 C4168 1.524 . S
C4168 C4167 1.524 . S
C4168 C4169 1.397 . S
C4168 C4173 1.363 . S
C4169 H4140 0.950 . S
C4169 C4168 1.397 . S
C4169 C4170 1.334 . S
C4170 H4141 0.950 . S
C4170 C4169 1.334 . S
C4170 C4171 1.287 . S
C4171 C4170 1.287 . S
C4171 C4172 1.524 . S
C4171 H4174 0.999 . S
C4172 H4142 0.950 . S
C4172 C4171 1.524 . S
C4172 C4173 1.415 . S
C4173 H4143 0.950 . S
C4173 C4168 1.363 . S
C4173 C4172 1.415 . S
H4174 C4171 0.999 . S
H4175 C4156 0.913 . S
H4176 C4194 0.951 . S
H4177 C4196 0.951 . S
H4178 C4198 0.950 . S
H4179 C4199 0.950 . S
H4180 C4201 0.950 . S
H4181 C4204 0.950 . S
H4182 C4205 0.950 . S
H4183 C4207 0.950 . S
H4184 C4208 0.950 . S
H4185 C4209 0.951 . S
H4186 C4211 0.951 . S
H4187 C4213 0.950 . S
H4188 C4214 0.950 . S
H4189 C4216 0.950 . S
H4190 C4219 0.950 . S
H4191 C4220 0.950 . S
H4192 C4222 0.950 . S
H4193 C4223 0.950 . S
C4194 H4176 0.951 . S
C4194 C4195 1.366 . S
C4194 C4196 1.388 . S
C4195 C4194 1.366 . S
C4195 C4199 1.385 . S
C4196 H4177 0.951 . S
C4196 C4194 1.388 . S
C4196 C4197 1.366 . S
C4197 C4196 1.366 . S
C4197 C4198 1.414 . S
C4197 C4200 1.499 . S
C4198 H4178 0.950 . S
C4198 C4197 1.414 . S
C4198 C4199 1.374 . S
C4199 H4179 0.950 . S
C4199 C4195 1.385 . S
C4199 C4198 1.374 . S
C4200 C4197 1.499 . S
C4200 C4201 1.373 . S
C4200 C4202 1.389 . S
C4201 H4180 0.950 . S
C4201 C4200 1.373 . S
C4201 C4217 1.377 . S
C4202 C4200 1.389 . S
C4202 C4203 1.524 . S
C4202 C4216 1.377 . S
C4203 C4202 1.524 . S
C4203 C4204 1.397 . S
C4203 C4208 1.363 . S
C4204 H4181 0.950 . S
C4204 C4203 1.397 . S
C4204 C4205 1.334 . S
C4205 H4182 0.950 . S
C4205 C4204 1.334 . S
C4205 C4206 1.287 . S
C4206 C4205 1.287 . S
C4206 C4207 1.524 . S
C4206 H4225 0.913 . S
C4207 H4183 0.950 . S
C4207 C4206 1.524 . S
C4207 C4208 1.415 . S
C4208 H4184 0.950 . S
C4208 C4203 1.363 . S
C4208 C4207 1.415 . S
C4209 H4185 0.951 . S
C4209 C4210 1.366 . S
C4209 C4211 1.388 . S
C4210 C4209 1.366 . S
C4210 C4214 1.385 . S
C4211 H4186 0.951 . S
C4211 C4209 1.388 . S
C4211 C4212 1.366 . S
C4212 C4211 1.366 . S
C4212 C4213 1.414 . S
C4212 C4215 1.499 . S
C4213 H4187 0.950 . S
C4213 C4212 1.414 . S
C4213 C4214 1.374 . S
C4214 H4188 0.950 . S
C4214 C4210 1.385 . S
C4214 C4213 1.374 . S
C4215 C4212 1.499 . S
C4215 C4216 1.373 . S
C4215 C4217 1.389 . S
C4216 H4189 0.950 . S
C4216 C4202 1.377 . S
C4216 C4215 1.373 . S
C4217 C4201 1.377 . S
C4217 C4215 1.389 . S
C4217 C4218 1.524 . S
C4218 C4217 1.524 . S
C4218 C4219 1.397 . S
C4218 C4223 1.363 . S
C4219 H4190 0.950 . S
C4219 C4218 1.397 . S
C4219 C4220 1.334 . S
C4220 H4191 0.950 . S
C4220 C4219 1.334 . S
C4220 C4221 1.287 . S
C4221 C4220 1.287 . S
C4221 C4222 1.524 . S
C4221 H4224 0.999 . S
C4222 H4192 0.950 . S
C4222 C4221 1.524 . S
C4222 C4223 1.415 . S
C4223 H4193 0.950 . S
C4223 C4218 1.363 . S
C4223 C4222 1.415 . S
H4224 C4221 0.999 . S
H4225 C4206 0.913 . S
H4226 C4244 0.951 . S
H4227 C4246 0.951 . S
H4228 C4248 0.950 . S
H4229 C4249 0.950 . S
H4230 C4251 0.950 . S
H4231 C4254 0.950 . S
H4232 C4255 0.950 . S
H4233 C4257 0.950 . S
H4234 C4258 0.950 . S
H4235 C4259 0.951 . S
H4236 C4261 0.951 . S
H4237 C4263 0.950 . S
H4238 C4264 0.950 . S
H4239 C4266 0.950 . S
H4240 C4269 0.950 . S
H4241 C4270 0.950 . S
H4242 C4272 0.950 . S
H4243 C4273 0.950 . S
C4244 H4226 0.951 . S
C4244 C4245 1.366 . S
C4244 C4246 1.388 . S
C4245 C4244 1.366 . S
C4245 C4249 1.385 . S
C4246 H4227 0.951 . S
C4246 C4244 1.388 . S
C4246 C4247 1.366 . S
C4247 C4246 1.366 . S
C4247 C4248 1.414 . S
C4247 C4250 1.499 . S
C4248 H4228 0.950 . S
C4248 C4247 1.414 . S
C4248 C4249 1.374 . S
C4249 H4229 0.950 . S
C4249 C4245 1.385 . S
C4249 C4248 1.374 . S
C4250 C4247 1.499 . S
C4250 C4251 1.373 . S
C4250 C4252 1.389 . S
C4251 H4230 0.950 . S
C4251 C4250 1.373 . S
C4251 C4267 1.377 . S
C4252 C4250 1.389 . S
C4252 C4253 1.524 . S
C4252 C4266 1.377 . S
C4253 C4252 1.524 . S
C4253 C4254 1.397 . S
C4253 C4258 1.363 . S
C4254 H4231 0.950 . S
C4254 C4253 1.397 . S
C4254 C4255 1.334 . S
C4255 H4232 0.950 . S
C4255 C4254 1.334 . S
C4255 C4256 1.287 . S
C4256 C4255 1.287 . S
C4256 C4257 1.524 . S
C4256 H4275 0.913 . S
C4257 H4233 0.950 . S
C4257 C4256 1.524 . S
C4257 C4258 1.415 . S
C4258 H4234 0.950 . S
C4258 C4253 1.363 . S
C4258 C4257 1.415 . S
C4259 H4235 0.951 . S
C4259 C4260 1.366 . S
C4259 C4261 1.388 . S
C4260 C4259 1.366 . S
C4260 C4264 1.385 . S
C4261 H4236 0.951 . S
C4261 C4259 1.388 . S
C4261 C4262 1.366 . S
C4262 C4261 1.366 . S
C4262 C4263 1.414 . S
C4262 C4265 1.499 . S
C4263 H4237 0.950 . S
C4263 C4262 1.414 . S
C4263 C4264 1.374 . S
C4264 H4238 0.950 . S
C4264 C4260 1.385 . S
C4264 C4263 1.374 . S
C4265 C4262 1.499 . S
C4265 C4266 1.373 . S
C4265 C4267 1.389 . S
C4266 H4239 0.950 . S
C4266 C4252 1.377 . S
C4266 C4265 1.373 . S
C4267 C4251 1.377 . S
C4267 C4265 1.389 . S
C4267 C4268 1.524 . S
C4268 C4267 1.524 . S
C4268 C4269 1.397 . S
C4268 C4273 1.363 . S
C4269 H4240 0.950 . S
C4269 C4268 1.397 . S
C4269 C4270 1.334 . S
C4270 H4241 0.950 . S
C4270 C4269 1.334 . S
C4270 C4271 1.287 . S
C4271 C4270 1.287 . S
C4271 C4272 1.524 . S
C4271 H4274 0.999 . S
C4272 H4242 0.950 . S
C4272 C4271 1.524 . S
C4272 C4273 1.415 . S
C4273 H4243 0.950 . S
C4273 C4268 1.363 . S
C4273 C4272 1.415 . S
H4274 C4271 0.999 . S
H4275 C4256 0.913 . S
H4276 C4294 0.951 . S
H4277 C4296 0.951 . S
H4278 C4298 0.950 . S
H4279 C4299 0.950 . S
H4280 C4301 0.950 . S
H4281 C4304 0.950 . S
H4282 C4305 0.950 . S
H4283 C4307 0.950 . S
H4284 C4308 0.950 . S
H4285 C4309 0.951 . S
H4286 C4311 0.951 . S
H4287 C4313 0.950 . S
H4288 C4314 0.950 . S
H4289 C4316 0.950 . S
H4290 C4319 0.950 . S
H4291 C4320 0.950 . S
H4292 C4322 0.950 . S
H4293 C4323 0.950 . S
C4294 H4276 0.951 . S
C4294 C4295 1.366 . S
C4294 C4296 1.388 . S
C4295 C4294 1.366 . S
C4295 C4299 1.385 . S
C4296 H4277 0.951 . S
C4296 C4294 1.388 . S
C4296 C4297 1.366 . S
C4297 C4296 1.366 . S
C4297 C4298 1.414 . S
C4297 C4300 1.499 . S
C4298 H4278 0.950 . S
C4298 C4297 1.414 . S
C4298 C4299 1.374 . S
C4299 H4279 0.950 . S
C4299 C4295 1.385 . S
C4299 C4298 1.374 . S
C4300 C4297 1.499 . S
C4300 C4301 1.373 . S
C4300 C4302 1.389 . S
C4301 H4280 0.950 . S
C4301 C4300 1.373 . S
C4301 C4317 1.377 . S
C4302 C4300 1.389 . S
C4302 C4303 1.524 . S
C4302 C4316 1.377 . S
C4303 C4302 1.524 . S
C4303 C4304 1.397 . S
C4303 C4308 1.363 . S
C4304 H4281 0.950 . S
C4304 C4303 1.397 . S
C4304 C4305 1.334 . S
C4305 H4282 0.950 . S
C4305 C4304 1.334 . S
C4305 C4306 1.287 . S
C4306 C4305 1.287 . S
C4306 C4307 1.524 . S
C4306 H4325 0.913 . S
C4307 H4283 0.950 . S
C4307 C4306 1.524 . S
C4307 C4308 1.415 . S
C4308 H4284 0.950 . S
C4308 C4303 1.363 . S
C4308 C4307 1.415 . S
C4309 H4285 0.951 . S
C4309 C4310 1.366 . S
C4309 C4311 1.388 . S
C4310 C4309 1.366 . S
C4310 C4314 1.385 . S
C4311 H4286 0.951 . S
C4311 C4309 1.388 . S
C4311 C4312 1.366 . S
C4312 C4311 1.366 . S
C4312 C4313 1.414 . S
C4312 C4315 1.499 . S
C4313 H4287 0.950 . S
C4313 C4312 1.414 . S
C4313 C4314 1.374 . S
C4314 H4288 0.950 . S
C4314 C4310 1.385 . S
C4314 C4313 1.374 . S
C4315 C4312 1.499 . S
C4315 C4316 1.373 . S
C4315 C4317 1.389 . S
C4316 H4289 0.950 . S
C4316 C4302 1.377 . S
C4316 C4315 1.373 . S
C4317 C4301 1.377 . S
C4317 C4315 1.389 . S
C4317 C4318 1.524 . S
C4318 C4317 1.524 . S
C4318 C4319 1.397 . S
C4318 C4323 1.363 . S
C4319 H4290 0.950 . S
C4319 C4318 1.397 . S
C4319 C4320 1.334 . S
C4320 H4291 0.950 . S
C4320 C4319 1.334 . S
C4320 C4321 1.287 . S
C4321 C4320 1.287 . S
C4321 C4322 1.524 . S
C4321 H4324 0.999 . S
C4322 H4292 0.950 . S
C4322 C4321 1.524 . S
C4322 C4323 1.415 . S
C4323 H4293 0.950 . S
C4323 C4318 1.363 . S
C4323 C4322 1.415 . S
H4324 C4321 0.999 . S
H4325 C4306 0.913 . S
H4326 C4344 0.951 . S
H4327 C4346 0.951 . S
H4328 C4348 0.950 . S
H4329 C4349 0.950 . S
H4330 C4351 0.950 . S
H4331 C4354 0.950 . S
H4332 C4355 0.950 . S
H4333 C4357 0.950 . S
H4334 C4358 0.950 . S
H4335 C4359 0.951 . S
H4336 C4361 0.951 . S
H4337 C4363 0.950 . S
H4338 C4364 0.950 . S
H4339 C4366 0.950 . S
H4340 C4369 0.950 . S
H4341 C4370 0.950 . S
H4342 C4372 0.950 . S
H4343 C4373 0.950 . S
C4344 H4326 0.951 . S
C4344 C4345 1.366 . S
C4344 C4346 1.388 . S
C4345 C4344 1.366 . S
C4345 C4349 1.385 . S
C4346 H4327 0.951 . S
C4346 C4344 1.388 . S
C4346 C4347 1.366 . S
C4347 C4346 1.366 . S
C4347 C4348 1.414 . S
C4347 C4350 1.499 . S
C4348 H4328 0.950 . S
C4348 C4347 1.414 . S
C4348 C4349 1.374 . S
C4349 H4329 0.950 . S
C4349 C4345 1.385 . S
C4349 C4348 1.374 . S
C4350 C4347 1.499 . S
C4350 C4351 1.373 . S
C4350 C4352 1.389 . S
C4351 H4330 0.950 . S
C4351 C4350 1.373 . S
C4351 C4367 1.377 . S
C4352 C4350 1.389 . S
C4352 C4353 1.524 . S
C4352 C4366 1.377 . S
C4353 C4352 1.524 . S
C4353 C4354 1.397 . S
C4353 C4358 1.363 . S
C4354 H4331 0.950 . S
C4354 C4353 1.397 . S
C4354 C4355 1.334 . S
C4355 H4332 0.950 . S
C4355 C4354 1.334 . S
C4355 C4356 1.287 . S
C4356 C4355 1.287 . S
C4356 C4357 1.524 . S
C4356 H4375 0.913 . S
C4357 H4333 0.950 . S
C4357 C4356 1.524 . S
C4357 C4358 1.415 . S
C4358 H4334 0.950 . S
C4358 C4353 1.363 . S
C4358 C4357 1.415 . S
C4359 H4335 0.951 . S
C4359 C4360 1.366 . S
C4359 C4361 1.388 . S
C4360 C4359 1.366 . S
C4360 C4364 1.385 . S
C4361 H4336 0.951 . S
C4361 C4359 1.388 . S
C4361 C4362 1.366 1_545 S
C4362 C4361 1.366 1_565 S
C4362 C4363 1.414 . S
C4362 C4365 1.499 . S
C4363 H4337 0.950 . S
C4363 C4362 1.414 . S
C4363 C4364 1.374 1_565 S
C4364 H4338 0.950 . S
C4364 C4360 1.385 . S
C4364 C4363 1.374 1_545 S
C4365 C4362 1.499 . S
C4365 C4366 1.373 . S
C4365 C4367 1.389 . S
C4366 H4339 0.950 . S
C4366 C4352 1.377 . S
C4366 C4365 1.373 . S
C4367 C4351 1.377 . S
C4367 C4365 1.389 . S
C4367 C4368 1.524 . S
C4368 C4367 1.524 . S
C4368 C4369 1.397 . S
C4368 C4373 1.363 . S
C4369 H4340 0.950 . S
C4369 C4368 1.397 . S
C4369 C4370 1.334 1_554 S
C4370 H4341 0.950 . S
C4370 C4369 1.334 1_556 S
C4370 C4371 1.287 . S
C4371 C4370 1.287 . S
C4371 C4372 1.524 . S
C4371 H4374 0.999 . S
C4372 H4342 0.950 . S
C4372 C4371 1.524 . S
C4372 C4373 1.415 1_556 S
C4373 H4343 0.950 . S
C4373 C4368 1.363 . S
C4373 C4372 1.415 1_554 S
H4374 C4371 0.999 . S
H4375 C4356 0.913 . S
H4376 C4394 0.951 . S
H4377 C4396 0.951 . S
H4378 C4398 0.950 . S
H4379 C4399 0.950 . S
H4380 C4401 0.950 . S
H4381 C4404 0.950 . S
H4382 C4405 0.950 . S
H4383 C4407 0.950 . S
H4384 C4408 0.950 . S
H4385 C4409 0.951 . S
H4386 C4411 0.951 . S
H4387 C4413 0.950 . S
H4388 C4414 0.950 . S
H4389 C4416 0.950 . S
H4390 C4419 0.950 . S
H4391 C4420 0.950 . S
H4392 C4422 0.950 . S
H4393 C4423 0.950 . S
C4394 H4376 0.951 . S
C4394 C4395 1.366 . S
C4394 C4396 1.388 . S
C4395 C4394 1.366 . S
C4395 C4399 1.385 . S
C4396 H4377 0.951 . S
C4396 C4394 1.388 . S
C4396 C4397 1.366 . S
C4397 C4396 1.366 . S
C4397 C4398 1.414 . S
C4397 C4400 1.499 . S
C4398 H4378 0.950 . S
C4398 C4397 1.414 . S
C4398 C4399 1.374 . S
C4399 H4379 0.950 . S
C4399 C4395 1.385 . S
C4399 C4398 1.374 . S
C4400 C4397 1.499 . S
C4400 C4401 1.373 . S
C4400 C4402 1.389 . S
C4401 H4380 0.950 . S
C4401 C4400 1.373 . S
C4401 C4417 1.377 . S
C4402 C4400 1.389 . S
C4402 C4403 1.524 . S
C4402 C4416 1.377 . S
C4403 C4402 1.524 . S
C4403 C4404 1.397 . S
C4403 C4408 1.363 . S
C4404 H4381 0.950 . S
C4404 C4403 1.397 . S
C4404 C4405 1.334 . S
C4405 H4382 0.950 . S
C4405 C4404 1.334 . S
C4405 C4406 1.287 . S
C4406 C4405 1.287 . S
C4406 C4407 1.524 . S
C4406 H4425 0.913 . S
C4407 H4383 0.950 . S
C4407 C4406 1.524 . S
C4407 C4408 1.415 . S
C4408 H4384 0.950 . S
C4408 C4403 1.363 . S
C4408 C4407 1.415 . S
C4409 H4385 0.951 . S
C4409 C4410 1.366 . S
C4409 C4411 1.388 . S
C4410 C4409 1.366 . S
C4410 C4414 1.385 . S
C4411 H4386 0.951 . S
C4411 C4409 1.388 . S
C4411 C4412 1.366 . S
C4412 C4411 1.366 . S
C4412 C4413 1.414 . S
C4412 C4415 1.499 . S
C4413 H4387 0.950 . S
C4413 C4412 1.414 . S
C4413 C4414 1.374 . S
C4414 H4388 0.950 . S
C4414 C4410 1.385 . S
C4414 C4413 1.374 . S
C4415 C4412 1.499 . S
C4415 C4416 1.373 . S
C4415 C4417 1.389 . S
C4416 H4389 0.950 . S
C4416 C4402 1.377 . S
C4416 C4415 1.373 . S
C4417 C4401 1.377 . S
C4417 C4415 1.389 . S
C4417 C4418 1.524 . S
C4418 C4417 1.524 . S
C4418 C4419 1.397 . S
C4418 C4423 1.363 . S
C4419 H4390 0.950 . S
C4419 C4418 1.397 . S
C4419 C4420 1.334 . S
C4420 H4391 0.950 . S
C4420 C4419 1.334 . S
C4420 C4421 1.287 . S
C4421 C4420 1.287 . S
C4421 C4422 1.524 . S
C4421 H4424 0.999 . S
C4422 H4392 0.950 . S
C4422 C4421 1.524 . S
C4422 C4423 1.415 . S
C4423 H4393 0.950 . S
C4423 C4418 1.363 . S
C4423 C4422 1.415 . S
H4424 C4421 0.999 . S
H4425 C4406 0.913 . S
H4426 C4444 0.951 . S
H4427 C4446 0.951 . S
H4428 C4448 0.950 1_556 S
H4429 C4449 0.950 . S
H4430 C4451 0.950 . S
H4431 C4454 0.950 . S
H4432 C4455 0.950 . S
H4433 C4457 0.950 . S
H4434 C4458 0.950 . S
H4435 C4459 0.951 . S
H4436 C4461 0.951 . S
H4437 C4463 0.950 . S
H4438 C4464 0.950 . S
H4439 C4466 0.950 . S
H4440 C4469 0.950 . S
H4441 C4470 0.950 . S
H4442 C4472 0.950 . S
H4443 C4473 0.950 . S
C4444 H4426 0.951 . S
C4444 C4445 1.366 . S
C4444 C4446 1.388 . S
C4445 C4444 1.366 . S
C4445 C4449 1.385 1_554 S
C4446 H4427 0.951 . S
C4446 C4444 1.388 . S
C4446 C4447 1.366 . S
C4447 C4446 1.366 . S
C4447 C4448 1.414 . S
C4447 C4450 1.499 . S
C4448 H4428 0.950 1_554 S
C4448 C4447 1.414 . S
C4448 C4449 1.374 1_554 S
C4449 H4429 0.950 . S
C4449 C4445 1.385 1_556 S
C4449 C4448 1.374 1_556 S
C4450 C4447 1.499 . S
C4450 C4451 1.373 . S
C4450 C4452 1.389 . S
C4451 H4430 0.950 . S
C4451 C4450 1.373 . S
C4451 C4467 1.377 . S
C4452 C4450 1.389 . S
C4452 C4453 1.524 . S
C4452 C4466 1.377 . S
C4453 C4452 1.524 . S
C4453 C4454 1.397 . S
C4453 C4458 1.363 . S
C4454 H4431 0.950 . S
C4454 C4453 1.397 . S
C4454 C4455 1.334 . S
C4455 H4432 0.950 . S
C4455 C4454 1.334 . S
C4455 C4456 1.287 . S
C4456 C4455 1.287 . S
C4456 C4457 1.524 . S
C4456 H4475 0.913 . S
C4457 H4433 0.950 . S
C4457 C4456 1.524 . S
C4457 C4458 1.415 . S
C4458 H4434 0.950 . S
C4458 C4453 1.363 . S
C4458 C4457 1.415 . S
C4459 H4435 0.951 . S
C4459 C4460 1.366 . S
C4459 C4461 1.388 . S
C4460 C4459 1.366 . S
C4460 C4464 1.385 . S
C4461 H4436 0.951 . S
C4461 C4459 1.388 . S
C4461 C4462 1.366 . S
C4462 C4461 1.366 . S
C4462 C4463 1.414 . S
C4462 C4465 1.499 . S
C4463 H4437 0.950 . S
C4463 C4462 1.414 . S
C4463 C4464 1.374 . S
C4464 H4438 0.950 . S
C4464 C4460 1.385 . S
C4464 C4463 1.374 . S
C4465 C4462 1.499 . S
C4465 C4466 1.373 . S
C4465 C4467 1.389 . S
C4466 H4439 0.950 . S
C4466 C4452 1.377 . S
C4466 C4465 1.373 . S
C4467 C4451 1.377 . S
C4467 C4465 1.389 . S
C4467 C4468 1.524 . S
C4468 C4467 1.524 . S
C4468 C4469 1.397 . S
C4468 C4473 1.363 1_554 S
C4469 H4440 0.950 . S
C4469 C4468 1.397 . S
C4469 C4470 1.334 . S
C4470 H4441 0.950 . S
C4470 C4469 1.334 . S
C4470 C4471 1.287 1_554 S
C4471 C4470 1.287 1_556 S
C4471 C4472 1.524 . S
C4471 H4474 0.999 . S
C4472 H4442 0.950 . S
C4472 C4471 1.524 . S
C4472 C4473 1.415 . S
C4473 H4443 0.950 . S
C4473 C4468 1.363 1_556 S
C4473 C4472 1.415 . S
H4474 C4471 0.999 . S
H4475 C4456 0.913 . S
H4476 C4494 0.951 . S
H4477 C4496 0.951 . S
H4478 C4498 0.950 . S
H4479 C4499 0.950 . S
H4480 C4501 0.950 . S
H4481 C4504 0.950 . S
H4482 C4505 0.950 . S
H4483 C4507 0.950 . S
H4484 C4508 0.950 . S
H4485 C4509 0.951 . S
H4486 C4511 0.951 . S
H4487 C4513 0.950 . S
H4488 C4514 0.950 . S
H4489 C4516 0.950 . S
H4490 C4519 0.950 . S
H4491 C4520 0.950 . S
H4492 C4522 0.950 . S
H4493 C4523 0.950 . S
C4494 H4476 0.951 . S
C4494 C4495 1.366 . S
C4494 C4496 1.388 . S
C4495 C4494 1.366 . S
C4495 C4499 1.385 . S
C4496 H4477 0.951 . S
C4496 C4494 1.388 . S
C4496 C4497 1.366 . S
C4497 C4496 1.366 . S
C4497 C4498 1.414 . S
C4497 C4500 1.499 . S
C4498 H4478 0.950 . S
C4498 C4497 1.414 . S
C4498 C4499 1.374 . S
C4499 H4479 0.950 . S
C4499 C4495 1.385 . S
C4499 C4498 1.374 . S
C4500 C4497 1.499 . S
C4500 C4501 1.373 . S
C4500 C4502 1.389 . S
C4501 H4480 0.950 . S
C4501 C4500 1.373 . S
C4501 C4517 1.377 . S
C4502 C4500 1.389 . S
C4502 C4503 1.524 . S
C4502 C4516 1.377 . S
C4503 C4502 1.524 . S
C4503 C4504 1.397 . S
C4503 C4508 1.363 . S
C4504 H4481 0.950 . S
C4504 C4503 1.397 . S
C4504 C4505 1.334 . S
C4505 H4482 0.950 . S
C4505 C4504 1.334 . S
C4505 C4506 1.287 . S
C4506 C4505 1.287 . S
C4506 C4507 1.524 . S
C4506 H4525 0.913 . S
C4507 H4483 0.950 . S
C4507 C4506 1.524 . S
C4507 C4508 1.415 . S
C4508 H4484 0.950 . S
C4508 C4503 1.363 . S
C4508 C4507 1.415 . S
C4509 H4485 0.951 . S
C4509 C4510 1.366 . S
C4509 C4511 1.388 . S
C4510 C4509 1.366 . S
C4510 C4514 1.385 . S
C4511 H4486 0.951 . S
C4511 C4509 1.388 . S
C4511 C4512 1.366 . S
C4512 C4511 1.366 . S
C4512 C4513 1.414 . S
C4512 C4515 1.499 . S
C4513 H4487 0.950 . S
C4513 C4512 1.414 . S
C4513 C4514 1.374 . S
C4514 H4488 0.950 . S
C4514 C4510 1.385 . S
C4514 C4513 1.374 . S
C4515 C4512 1.499 . S
C4515 C4516 1.373 . S
C4515 C4517 1.389 . S
C4516 H4489 0.950 . S
C4516 C4502 1.377 . S
C4516 C4515 1.373 . S
C4517 C4501 1.377 . S
C4517 C4515 1.389 . S
C4517 C4518 1.524 . S
C4518 C4517 1.524 . S
C4518 C4519 1.397 . S
C4518 C4523 1.363 . S
C4519 H4490 0.950 . S
C4519 C4518 1.397 . S
C4519 C4520 1.334 . S
C4520 H4491 0.950 . S
C4520 C4519 1.334 . S
C4520 C4521 1.287 . S
C4521 C4520 1.287 . S
C4521 C4522 1.524 . S
C4521 H4524 0.999 . S
C4522 H4492 0.950 . S
C4522 C4521 1.524 . S
C4522 C4523 1.415 . S
C4523 H4493 0.950 . S
C4523 C4518 1.363 . S
C4523 C4522 1.415 . S
H4524 C4521 0.999 . S
H4525 C4506 0.913 . S
H4526 C4544 0.951 . S
H4527 C4546 0.951 . S
H4528 C4548 0.950 . S
H4529 C4549 0.950 . S
H4530 C4551 0.950 . S
H4531 C4554 0.950 . S
H4532 C4555 0.950 . S
H4533 C4557 0.950 . S
H4534 C4558 0.950 . S
H4535 C4559 0.951 . S
H4536 C4561 0.951 . S
H4537 C4563 0.950 . S
H4538 C4564 0.950 . S
H4539 C4566 0.950 . S
H4540 C4569 0.950 . S
H4541 C4570 0.950 . S
H4542 C4572 0.950 . S
H4543 C4573 0.950 . S
C4544 H4526 0.951 . S
C4544 C4545 1.366 . S
C4544 C4546 1.388 . S
C4545 C4544 1.366 . S
C4545 C4549 1.385 . S
C4546 H4527 0.951 . S
C4546 C4544 1.388 . S
C4546 C4547 1.366 . S
C4547 C4546 1.366 . S
C4547 C4548 1.414 . S
C4547 C4550 1.499 . S
C4548 H4528 0.950 . S
C4548 C4547 1.414 . S
C4548 C4549 1.374 . S
C4549 H4529 0.950 . S
C4549 C4545 1.385 . S
C4549 C4548 1.374 . S
C4550 C4547 1.499 . S
C4550 C4551 1.373 1_545 S
C4550 C4552 1.389 . S
C4551 H4530 0.950 . S
C4551 C4550 1.373 1_565 S
C4551 C4567 1.377 . S
C4552 C4550 1.389 . S
C4552 C4553 1.524 . S
C4552 C4566 1.377 1_545 S
C4553 C4552 1.524 . S
C4553 C4554 1.397 . S
C4553 C4558 1.363 . S
C4554 H4531 0.950 . S
C4554 C4553 1.397 . S
C4554 C4555 1.334 . S
C4555 H4532 0.950 . S
C4555 C4554 1.334 . S
C4555 C4556 1.287 . S
C4556 C4555 1.287 . S
C4556 C4557 1.524 . S
C4556 H4575 0.913 . S
C4557 H4533 0.950 . S
C4557 C4556 1.524 . S
C4557 C4558 1.415 . S
C4558 H4534 0.950 . S
C4558 C4553 1.363 . S
C4558 C4557 1.415 . S
C4559 H4535 0.951 . S
C4559 C4560 1.366 . S
C4559 C4561 1.388 . S
C4560 C4559 1.366 . S
C4560 C4564 1.385 . S
C4561 H4536 0.951 . S
C4561 C4559 1.388 . S
C4561 C4562 1.366 . S
C4562 C4561 1.366 . S
C4562 C4563 1.414 . S
C4562 C4565 1.499 . S
C4563 H4537 0.950 . S
C4563 C4562 1.414 . S
C4563 C4564 1.374 . S
C4564 H4538 0.950 . S
C4564 C4560 1.385 . S
C4564 C4563 1.374 . S
C4565 C4562 1.499 . S
C4565 C4566 1.373 . S
C4565 C4567 1.389 . S
C4566 H4539 0.950 . S
C4566 C4552 1.377 1_565 S
C4566 C4565 1.373 . S
C4567 C4551 1.377 . S
C4567 C4565 1.389 . S
C4567 C4568 1.524 . S
C4568 C4567 1.524 . S
C4568 C4569 1.397 . S
C4568 C4573 1.363 . S
C4569 H4540 0.950 . S
C4569 C4568 1.397 . S
C4569 C4570 1.334 . S
C4570 H4541 0.950 . S
C4570 C4569 1.334 . S
C4570 C4571 1.287 . S
C4571 C4570 1.287 . S
C4571 C4572 1.524 . S
C4571 H4574 0.999 . S
C4572 H4542 0.950 . S
C4572 C4571 1.524 . S
C4572 C4573 1.415 . S
C4573 H4543 0.950 . S
C4573 C4568 1.363 . S
C4573 C4572 1.415 . S
H4574 C4571 0.999 . S
H4575 C4556 0.913 . S
H4576 C4594 0.951 . S
H4577 C4596 0.951 . S
H4578 C4598 0.950 . S
H4579 C4599 0.950 . S
H4580 C4601 0.950 . S
H4581 C4604 0.950 . S
H4582 C4605 0.950 . S
H4583 C4607 0.950 . S
H4584 C4608 0.950 . S
H4585 C4609 0.951 . S
H4586 C4611 0.951 . S
H4587 C4613 0.950 . S
H4588 C4614 0.950 . S
H4589 C4616 0.950 . S
H4590 C4619 0.950 . S
H4591 C4620 0.950 . S
H4592 C4622 0.950 . S
H4593 C4623 0.950 . S
C4594 H4576 0.951 . S
C4594 C4595 1.366 . S
C4594 C4596 1.388 . S
C4595 C4594 1.366 . S
C4595 C4599 1.385 . S
C4596 H4577 0.951 . S
C4596 C4594 1.388 . S
C4596 C4597 1.366 . S
C4597 C4596 1.366 . S
C4597 C4598 1.414 . S
C4597 C4600 1.499 . S
C4598 H4578 0.950 . S
C4598 C4597 1.414 . S
C4598 C4599 1.374 . S
C4599 H4579 0.950 . S
C4599 C4595 1.385 . S
C4599 C4598 1.374 . S
C4600 C4597 1.499 . S
C4600 C4601 1.373 . S
C4600 C4602 1.389 . S
C4601 H4580 0.950 . S
C4601 C4600 1.373 . S
C4601 C4617 1.377 . S
C4602 C4600 1.389 . S
C4602 C4603 1.524 . S
C4602 C4616 1.377 . S
C4603 C4602 1.524 . S
C4603 C4604 1.397 . S
C4603 C4608 1.363 . S
C4604 H4581 0.950 . S
C4604 C4603 1.397 . S
C4604 C4605 1.334 . S
C4605 H4582 0.950 . S
C4605 C4604 1.334 . S
C4605 C4606 1.287 . S
C4606 C4605 1.287 . S
C4606 C4607 1.524 . S
C4606 H4625 0.913 . S
C4607 H4583 0.950 . S
C4607 C4606 1.524 . S
C4607 C4608 1.415 . S
C4608 H4584 0.950 . S
C4608 C4603 1.363 . S
C4608 C4607 1.415 . S
C4609 H4585 0.951 . S
C4609 C4610 1.366 . S
C4609 C4611 1.388 . S
C4610 C4609 1.366 . S
C4610 C4614 1.385 . S
C4611 H4586 0.951 . S
C4611 C4609 1.388 . S
C4611 C4612 1.366 . S
C4612 C4611 1.366 . S
C4612 C4613 1.414 . S
C4612 C4615 1.499 . S
C4613 H4587 0.950 . S
C4613 C4612 1.414 . S
C4613 C4614 1.374 . S
C4614 H4588 0.950 . S
C4614 C4610 1.385 . S
C4614 C4613 1.374 . S
C4615 C4612 1.499 . S
C4615 C4616 1.373 . S
C4615 C4617 1.389 . S
C4616 H4589 0.950 . S
C4616 C4602 1.377 . S
C4616 C4615 1.373 . S
C4617 C4601 1.377 . S
C4617 C4615 1.389 . S
C4617 C4618 1.524 . S
C4618 C4617 1.524 . S
C4618 C4619 1.397 . S
C4618 C4623 1.363 . S
C4619 H4590 0.950 . S
C4619 C4618 1.397 . S
C4619 C4620 1.334 . S
C4620 H4591 0.950 . S
C4620 C4619 1.334 . S
C4620 C4621 1.287 . S
C4621 C4620 1.287 . S
C4621 C4622 1.524 . S
C4621 H4624 0.999 . S
C4622 H4592 0.950 . S
C4622 C4621 1.524 . S
C4622 C4623 1.415 . S
C4623 H4593 0.950 . S
C4623 C4618 1.363 . S
C4623 C4622 1.415 . S
H4624 C4621 0.999 . S
H4625 C4606 0.913 . S
H4626 C4644 0.951 . S
H4627 C4646 0.951 . S
H4628 C4648 0.950 . S
H4629 C4649 0.950 . S
H4630 C4651 0.950 . S
H4631 C4654 0.950 . S
H4632 C4655 0.950 . S
H4633 C4657 0.950 . S
H4634 C4658 0.950 . S
H4635 C4659 0.951 . S
H4636 C4661 0.951 . S
H4637 C4663 0.950 . S
H4638 C4664 0.950 . S
H4639 C4666 0.950 . S
H4640 C4669 0.950 . S
H4641 C4670 0.950 . S
H4642 C4672 0.950 . S
H4643 C4673 0.950 . S
C4644 H4626 0.951 . S
C4644 C4645 1.366 . S
C4644 C4646 1.388 . S
C4645 C4644 1.366 . S
C4645 C4649 1.385 . S
C4646 H4627 0.951 . S
C4646 C4644 1.388 . S
C4646 C4647 1.366 . S
C4647 C4646 1.366 . S
C4647 C4648 1.414 . S
C4647 C4650 1.499 . S
C4648 H4628 0.950 . S
C4648 C4647 1.414 . S
C4648 C4649 1.374 . S
C4649 H4629 0.950 . S
C4649 C4645 1.385 . S
C4649 C4648 1.374 . S
C4650 C4647 1.499 . S
C4650 C4651 1.373 . S
C4650 C4652 1.389 . S
C4651 H4630 0.950 . S
C4651 C4650 1.373 . S
C4651 C4667 1.377 . S
C4652 C4650 1.389 . S
C4652 C4653 1.524 . S
C4652 C4666 1.377 . S
C4653 C4652 1.524 . S
C4653 C4654 1.397 . S
C4653 C4658 1.363 . S
C4654 H4631 0.950 . S
C4654 C4653 1.397 . S
C4654 C4655 1.334 . S
C4655 H4632 0.950 . S
C4655 C4654 1.334 . S
C4655 C4656 1.287 . S
C4656 C4655 1.287 . S
C4656 C4657 1.524 . S
C4656 H4675 0.913 . S
C4657 H4633 0.950 . S
C4657 C4656 1.524 . S
C4657 C4658 1.415 . S
C4658 H4634 0.950 . S
C4658 C4653 1.363 . S
C4658 C4657 1.415 . S
C4659 H4635 0.951 . S
C4659 C4660 1.366 . S
C4659 C4661 1.388 . S
C4660 C4659 1.366 . S
C4660 C4664 1.385 . S
C4661 H4636 0.951 . S
C4661 C4659 1.388 . S
C4661 C4662 1.366 . S
C4662 C4661 1.366 . S
C4662 C4663 1.414 . S
C4662 C4665 1.499 . S
C4663 H4637 0.950 . S
C4663 C4662 1.414 . S
C4663 C4664 1.374 . S
C4664 H4638 0.950 . S
C4664 C4660 1.385 . S
C4664 C4663 1.374 . S
C4665 C4662 1.499 . S
C4665 C4666 1.373 . S
C4665 C4667 1.389 . S
C4666 H4639 0.950 . S
C4666 C4652 1.377 . S
C4666 C4665 1.373 . S
C4667 C4651 1.377 . S
C4667 C4665 1.389 . S
C4667 C4668 1.524 . S
C4668 C4667 1.524 . S
C4668 C4669 1.397 . S
C4668 C4673 1.363 . S
C4669 H4640 0.950 . S
C4669 C4668 1.397 . S
C4669 C4670 1.334 . S
C4670 H4641 0.950 . S
C4670 C4669 1.334 . S
C4670 C4671 1.287 . S
C4671 C4670 1.287 . S
C4671 C4672 1.524 . S
C4671 H4674 0.999 . S
C4672 H4642 0.950 . S
C4672 C4671 1.524 . S
C4672 C4673 1.415 . S
C4673 H4643 0.950 . S
C4673 C4668 1.363 . S
C4673 C4672 1.415 . S
H4674 C4671 0.999 . S
H4675 C4656 0.913 . S
H4676 C4694 0.951 . S
H4677 C4696 0.951 . S
H4678 C4698 0.950 . S
H4679 C4699 0.950 . S
H4680 C4701 0.950 . S
H4681 C4704 0.950 . S
H4682 C4705 0.950 . S
H4683 C4707 0.950 . S
H4684 C4708 0.950 . S
H4685 C4709 0.951 . S
H4686 C4711 0.951 . S
H4687 C4713 0.900 1_655 S
H4688 C4714 0.950 1_655 S
H4689 C4716 0.950 . S
H4690 C4719 0.950 . S
H4691 C4720 0.950 . S
H4692 C4722 0.950 . S
H4693 C4723 0.950 . S
C4694 H4676 0.951 . S
C4694 C4695 1.366 1_655 S
C4694 C4696 1.388 . S
C4695 C4694 1.366 1_455 S
C4695 C4699 1.385 . S
C4696 H4677 0.951 . S
C4696 C4694 1.388 . S
C4696 C4697 1.366 1_655 S
C4697 C4696 1.366 1_455 S
C4697 C4698 1.414 . S
C4697 C4700 1.499 . S
C4698 H4678 0.950 . S
C4698 C4697 1.414 . S
C4698 C4699 1.374 . S
C4699 H4679 0.950 . S
C4699 C4695 1.385 . S
C4699 C4698 1.374 . S
C4700 C4697 1.499 . S
C4700 C4701 1.373 . S
C4700 C4702 1.389 1_455 S
C4701 H4680 0.950 . S
C4701 C4700 1.373 . S
C4701 C4717 1.377 . S
C4702 C4700 1.389 1_655 S
C4702 C4703 1.524 . S
C4702 C4716 1.377 . S
C4703 C4702 1.524 . S
C4703 C4704 1.397 . S
C4703 C4708 1.363 . S
C4704 H4681 0.950 . S
C4704 C4703 1.397 . S
C4704 C4705 1.334 . S
C4705 H4682 0.950 . S
C4705 C4704 1.334 . S
C4705 C4706 1.287 . S
C4706 C4705 1.287 . S
C4706 C4707 1.524 . S
C4706 H4725 0.913 . S
C4707 H4683 0.950 . S
C4707 C4706 1.524 . S
C4707 C4708 1.415 . S
C4708 H4684 0.950 . S
C4708 C4703 1.363 . S
C4708 C4707 1.415 . S
C4709 H4685 0.951 . S
C4709 C4710 1.366 . S
C4709 C4711 1.388 . S
C4710 C4709 1.366 . S
C4710 C4714 1.385 . S
C4711 H4686 0.951 . S
C4711 C4709 1.388 . S
C4711 C4712 1.366 . S
C4712 C4711 1.366 . S
C4712 C4713 1.447 . S
C4712 C4715 1.499 . S
C4713 H4687 0.900 1_455 S
C4713 C4712 1.447 . S
C4713 C4714 1.394 . S
C4714 H4688 0.950 1_455 S
C4714 C4710 1.385 . S
C4714 C4713 1.394 . S
C4715 C4712 1.499 . S
C4715 C4716 1.373 1_455 S
C4715 C4717 1.389 . S
C4716 H4689 0.950 . S
C4716 C4702 1.377 . S
C4716 C4715 1.373 1_655 S
C4717 C4701 1.377 . S
C4717 C4715 1.389 . S
C4717 C4718 1.524 . S
C4718 C4717 1.524 . S
C4718 C4719 1.397 . S
C4718 C4723 1.363 . S
C4719 H4690 0.950 . S
C4719 C4718 1.397 . S
C4719 C4720 1.334 . S
C4720 H4691 0.950 . S
C4720 C4719 1.334 . S
C4720 C4721 1.287 . S
C4721 C4720 1.287 . S
C4721 C4722 1.524 . S
C4721 H4724 0.999 . S
C4722 H4692 0.950 . S
C4722 C4721 1.524 . S
C4722 C4723 1.415 . S
C4723 H4693 0.950 . S
C4723 C4718 1.363 . S
C4723 C4722 1.415 . S
H4724 C4721 0.999 . S
H4725 C4706 0.913 . S
H4726 C4744 0.951 . S
H4727 C4746 0.951 . S
H4728 C4748 0.950 . S
H4729 C4749 0.950 . S
H4730 C4751 0.950 . S
H4731 C4754 0.950 . S
H4732 C4755 0.950 . S
H4733 C4757 0.950 . S
H4734 C4758 0.950 . S
H4735 C4759 0.951 . S
H4736 C4761 0.951 . S
H4737 C4763 0.950 . S
H4738 C4764 0.950 . S
H4739 C4766 0.950 . S
H4740 C4769 0.950 . S
H4741 C4770 0.950 . S
H4742 C4772 0.950 . S
H4743 C4773 0.950 . S
C4744 H4726 0.951 . S
C4744 C4745 1.366 . S
C4744 C4746 1.388 . S
C4745 C4744 1.366 . S
C4745 C4749 1.385 . S
C4746 H4727 0.951 . S
C4746 C4744 1.388 . S
C4746 C4747 1.366 . S
C4747 C4746 1.366 . S
C4747 C4748 1.414 . S
C4747 C4750 1.499 . S
C4748 H4728 0.950 . S
C4748 C4747 1.414 . S
C4748 C4749 1.374 . S
C4749 H4729 0.950 . S
C4749 C4745 1.385 . S
C4749 C4748 1.374 . S
C4750 C4747 1.499 . S
C4750 C4751 1.373 . S
C4750 C4752 1.389 . S
C4751 H4730 0.950 . S
C4751 C4750 1.373 . S
C4751 C4767 1.377 . S
C4752 C4750 1.389 . S
C4752 C4753 1.524 . S
C4752 C4766 1.377 . S
C4753 C4752 1.524 . S
C4753 C4754 1.397 . S
C4753 C4758 1.363 . S
C4754 H4731 0.950 . S
C4754 C4753 1.397 . S
C4754 C4755 1.334 . S
C4755 H4732 0.950 . S
C4755 C4754 1.334 . S
C4755 C4756 1.287 . S
C4756 C4755 1.287 . S
C4756 C4757 1.524 . S
C4756 H4775 0.913 . S
C4757 H4733 0.950 . S
C4757 C4756 1.524 . S
C4757 C4758 1.415 . S
C4758 H4734 0.950 . S
C4758 C4753 1.363 . S
C4758 C4757 1.415 . S
C4759 H4735 0.951 . S
C4759 C4760 1.366 . S
C4759 C4761 1.388 . S
C4760 C4759 1.366 . S
C4760 C4764 1.385 . S
C4761 H4736 0.951 . S
C4761 C4759 1.388 . S
C4761 C4762 1.366 . S
C4762 C4761 1.366 . S
C4762 C4763 1.414 . S
C4762 C4765 1.499 . S
C4763 H4737 0.950 . S
C4763 C4762 1.414 . S
C4763 C4764 1.374 . S
C4764 H4738 0.950 . S
C4764 C4760 1.385 . S
C4764 C4763 1.374 . S
C4765 C4762 1.499 . S
C4765 C4766 1.373 . S
C4765 C4767 1.389 . S
C4766 H4739 0.950 . S
C4766 C4752 1.377 . S
C4766 C4765 1.373 . S
C4767 C4751 1.377 . S
C4767 C4765 1.389 . S
C4767 C4768 1.524 . S
C4768 C4767 1.524 . S
C4768 C4769 1.397 . S
C4768 C4773 1.363 . S
C4769 H4740 0.950 . S
C4769 C4768 1.397 . S
C4769 C4770 1.334 . S
C4770 H4741 0.950 . S
C4770 C4769 1.334 . S
C4770 C4771 1.287 . S
C4771 C4770 1.287 . S
C4771 C4772 1.524 . S
C4771 H4774 0.999 . S
C4772 H4742 0.950 . S
C4772 C4771 1.524 . S
C4772 C4773 1.415 . S
C4773 H4743 0.950 . S
C4773 C4768 1.363 . S
C4773 C4772 1.415 . S
H4774 C4771 0.999 . S
H4775 C4756 0.913 . S
H4776 C4794 0.951 . S
H4777 C4796 0.951 . S
H4778 C4798 0.950 1_554 S
H4779 C4799 0.950 . S
H4780 C4801 0.950 . S
H4781 C4804 0.950 . S
H4782 C4805 0.950 . S
H4783 C4807 0.950 . S
H4784 C4808 0.950 . S
H4785 C4809 0.951 . S
H4786 C4811 0.951 . S
H4787 C4813 0.950 . S
H4788 C4814 0.950 . S
H4789 C4816 0.950 . S
H4790 C4819 0.950 . S
H4791 C4820 0.950 . S
H4792 C4822 0.950 . S
H4793 C4823 0.950 . S
C4794 H4776 0.951 . S
C4794 C4795 1.366 . S
C4794 C4796 1.388 . S
C4795 C4794 1.366 . S
C4795 C4799 1.385 . S
C4796 H4777 0.951 . S
C4796 C4794 1.388 . S
C4796 C4797 1.366 . S
C4797 C4796 1.366 . S
C4797 C4798 1.414 . S
C4797 C4800 1.491 1_556 S
C4798 H4778 0.950 1_556 S
C4798 C4797 1.414 . S
C4798 C4799 1.374 . S
C4799 H4779 0.950 . S
C4799 C4795 1.385 . S
C4799 C4798 1.374 . S
C4800 C4797 1.491 1_554 S
C4800 C4801 1.361 1_554 S
C4800 C4802 1.408 . S
C4801 H4780 0.950 . S
C4801 C4800 1.361 1_556 S
C4801 C4817 1.377 . S
C4802 C4800 1.408 . S
C4802 C4803 1.524 . S
C4802 C4816 1.377 . S
C4803 C4802 1.524 . S
C4803 C4804 1.397 . S
C4803 C4808 1.363 . S
C4804 H4781 0.950 . S
C4804 C4803 1.397 . S
C4804 C4805 1.334 . S
C4805 H4782 0.950 . S
C4805 C4804 1.334 . S
C4805 C4806 1.287 . S
C4806 C4805 1.287 . S
C4806 C4807 1.524 . S
C4806 H4825 0.913 . S
C4807 H4783 0.950 . S
C4807 C4806 1.524 . S
C4807 C4808 1.415 . S
C4808 H4784 0.950 . S
C4808 C4803 1.363 . S
C4808 C4807 1.415 . S
C4809 H4785 0.951 . S
C4809 C4810 1.366 . S
C4809 C4811 1.388 . S
C4810 C4809 1.366 . S
C4810 C4814 1.385 . S
C4811 H4786 0.951 . S
C4811 C4809 1.388 . S
C4811 C4812 1.366 . S
C4812 C4811 1.366 . S
C4812 C4813 1.414 . S
C4812 C4815 1.499 . S
C4813 H4787 0.950 . S
C4813 C4812 1.414 . S
C4813 C4814 1.374 . S
C4814 H4788 0.950 . S
C4814 C4810 1.385 . S
C4814 C4813 1.374 . S
C4815 C4812 1.499 . S
C4815 C4816 1.373 . S
C4815 C4817 1.389 1_554 S
C4816 H4789 0.950 . S
C4816 C4802 1.377 . S
C4816 C4815 1.373 . S
C4817 C4801 1.377 . S
C4817 C4815 1.389 1_556 S
C4817 C4818 1.524 . S
C4818 C4817 1.524 . S
C4818 C4819 1.397 . S
C4818 C4823 1.363 . S
C4819 H4790 0.950 . S
C4819 C4818 1.397 . S
C4819 C4820 1.334 . S
C4820 H4791 0.950 . S
C4820 C4819 1.334 . S
C4820 C4821 1.287 . S
C4821 C4820 1.287 . S
C4821 C4822 1.524 . S
C4821 H4824 0.999 . S
C4822 H4792 0.950 . S
C4822 C4821 1.524 . S
C4822 C4823 1.415 . S
C4823 H4793 0.950 . S
C4823 C4818 1.363 . S
C4823 C4822 1.415 . S
H4824 C4821 0.999 . S
H4825 C4806 0.913 . S
H4826 C4844 0.951 . S
H4827 C4846 0.951 . S
H4828 C4848 0.950 . S
H4829 C4849 0.950 . S
H4830 C4851 0.950 . S
H4831 C4854 0.950 . S
H4832 C4855 0.950 . S
H4833 C4857 0.950 . S
H4834 C4858 0.950 . S
H4835 C4859 0.951 . S
H4836 C4861 0.951 . S
H4837 C4863 0.950 . S
H4838 C4864 0.950 . S
H4839 C4866 0.950 . S
H4840 C4869 0.950 . S
H4841 C4870 0.950 . S
H4842 C4872 0.950 . S
H4843 C4873 0.950 . S
C4844 H4826 0.951 . S
C4844 C4845 1.366 . S
C4844 C4846 1.388 . S
C4845 C4844 1.366 . S
C4845 C4849 1.385 . S
C4846 H4827 0.951 . S
C4846 C4844 1.388 . S
C4846 C4847 1.366 . S
C4847 C4846 1.366 . S
C4847 C4848 1.414 . S
C4847 C4850 1.499 . S
C4848 H4828 0.950 . S
C4848 C4847 1.414 . S
C4848 C4849 1.374 . S
C4849 H4829 0.950 . S
C4849 C4845 1.385 . S
C4849 C4848 1.374 . S
C4850 C4847 1.499 . S
C4850 C4851 1.373 . S
C4850 C4852 1.389 . S
C4851 H4830 0.950 . S
C4851 C4850 1.373 . S
C4851 C4867 1.377 . S
C4852 C4850 1.389 . S
C4852 C4853 1.524 . S
C4852 C4866 1.377 . S
C4853 C4852 1.524 . S
C4853 C4854 1.397 . S
C4853 C4858 1.363 . S
C4854 H4831 0.950 . S
C4854 C4853 1.397 . S
C4854 C4855 1.334 . S
C4855 H4832 0.950 . S
C4855 C4854 1.334 . S
C4855 C4856 1.287 . S
C4856 C4855 1.287 . S
C4856 C4857 1.524 . S
C4856 H4875 0.913 . S
C4857 H4833 0.950 . S
C4857 C4856 1.524 . S
C4857 C4858 1.415 . S
C4858 H4834 0.950 . S
C4858 C4853 1.363 . S
C4858 C4857 1.415 . S
C4859 H4835 0.951 . S
C4859 C4860 1.366 . S
C4859 C4861 1.388 . S
C4860 C4859 1.366 . S
C4860 C4864 1.385 . S
C4861 H4836 0.951 . S
C4861 C4859 1.388 . S
C4861 C4862 1.366 . S
C4862 C4861 1.366 . S
C4862 C4863 1.414 . S
C4862 C4865 1.499 . S
C4863 H4837 0.950 . S
C4863 C4862 1.414 . S
C4863 C4864 1.374 . S
C4864 H4838 0.950 . S
C4864 C4860 1.385 . S
C4864 C4863 1.374 . S
C4865 C4862 1.499 . S
C4865 C4866 1.373 . S
C4865 C4867 1.389 . S
C4866 H4839 0.950 . S
C4866 C4852 1.377 . S
C4866 C4865 1.373 . S
C4867 C4851 1.377 . S
C4867 C4865 1.389 . S
C4867 C4868 1.524 . S
C4868 C4867 1.524 . S
C4868 C4869 1.397 . S
C4868 C4873 1.363 . S
C4869 H4840 0.950 . S
C4869 C4868 1.397 . S
C4869 C4870 1.334 . S
C4870 H4841 0.950 . S
C4870 C4869 1.334 . S
C4870 C4871 1.287 . S
C4871 C4870 1.287 . S
C4871 C4872 1.524 . S
C4871 H4874 0.999 . S
C4872 H4842 0.950 . S
C4872 C4871 1.524 . S
C4872 C4873 1.415 . S
C4873 H4843 0.950 . S
C4873 C4868 1.363 . S
C4873 C4872 1.415 . S
H4874 C4871 0.999 . S
H4875 C4856 0.913 . S
H4876 C4894 0.951 . S
H4877 C4896 0.951 . S
H4878 C4898 0.950 . S
H4879 C4899 0.950 . S
H4880 C4901 0.950 . S
H4881 C4904 0.950 . S
H4882 C4905 0.950 . S
H4883 C4907 0.950 . S
H4884 C4908 0.950 . S
H4885 C4909 0.951 . S
H4886 C4911 0.951 . S
H4887 C4913 0.950 . S
H4888 C4914 0.888 1_655 S
H4889 C4916 0.950 . S
H4890 C4919 0.950 . S
H4891 C4920 0.950 . S
H4892 C4922 0.950 . S
H4893 C4923 0.950 . S
C4894 H4876 0.951 . S
C4894 C4895 1.366 . S
C4894 C4896 1.388 . S
C4895 C4894 1.366 . S
C4895 C4899 1.385 . S
C4896 H4877 0.951 . S
C4896 C4894 1.388 . S
C4896 C4897 1.366 . S
C4897 C4896 1.366 . S
C4897 C4898 1.414 . S
C4897 C4900 1.499 . S
C4898 H4878 0.950 . S
C4898 C4897 1.414 . S
C4898 C4899 1.374 . S
C4899 H4879 0.950 . S
C4899 C4895 1.385 . S
C4899 C4898 1.374 . S
C4900 C4897 1.499 . S
C4900 C4901 1.373 . S
C4900 C4902 1.389 . S
C4901 H4880 0.950 . S
C4901 C4900 1.373 . S
C4901 C4917 1.377 . S
C4902 C4900 1.389 . S
C4902 C4903 1.524 . S
C4902 C4916 1.377 . S
C4903 C4902 1.524 . S
C4903 C4904 1.397 . S
C4903 C4908 1.363 . S
C4904 H4881 0.950 . S
C4904 C4903 1.397 . S
C4904 C4905 1.334 . S
C4905 H4882 0.950 . S
C4905 C4904 1.334 . S
C4905 C4906 1.287 . S
C4906 C4905 1.287 . S
C4906 C4907 1.524 . S
C4906 H4925 0.913 . S
C4907 H4883 0.950 . S
C4907 C4906 1.524 . S
C4907 C4908 1.415 . S
C4908 H4884 0.950 . S
C4908 C4903 1.363 . S
C4908 C4907 1.415 . S
C4909 H4885 0.951 . S
C4909 C4910 1.366 . S
C4909 C4911 1.388 . S
C4910 C4909 1.366 . S
C4910 C4914 1.385 . S
C4911 H4886 0.951 . S
C4911 C4909 1.388 . S
C4911 C4912 1.366 . S
C4912 C4911 1.366 . S
C4912 C4913 1.414 . S
C4912 C4915 1.499 . S
C4913 H4887 0.950 . S
C4913 C4912 1.414 . S
C4913 C4914 1.374 . S
C4914 H4888 0.888 1_455 S
C4914 C4910 1.385 . S
C4914 C4913 1.374 . S
C4915 C4912 1.499 . S
C4915 C4916 1.373 . S
C4915 C4917 1.389 . S
C4916 H4889 0.950 . S
C4916 C4902 1.377 . S
C4916 C4915 1.373 . S
C4917 C4901 1.377 . S
C4917 C4915 1.389 . S
C4917 C4918 1.524 . S
C4918 C4917 1.524 . S
C4918 C4919 1.397 . S
C4918 C4923 1.363 . S
C4919 H4890 0.950 . S
C4919 C4918 1.397 . S
C4919 C4920 1.334 . S
C4920 H4891 0.950 . S
C4920 C4919 1.334 . S
C4920 C4921 1.287 . S
C4921 C4920 1.287 . S
C4921 C4922 1.524 . S
C4921 H4924 0.999 . S
C4922 H4892 0.950 . S
C4922 C4921 1.524 . S
C4922 C4923 1.415 . S
C4923 H4893 0.950 . S
C4923 C4918 1.363 . S
C4923 C4922 1.415 . S
H4924 C4921 0.999 . S
H4925 C4906 0.913 . S
H4926 C4944 0.951 . S
H4927 C4946 0.951 . S
H4928 C4948 0.950 . S
H4929 C4949 0.950 . S
H4930 C4951 0.950 . S
H4931 C4954 0.950 . S
H4932 C4955 0.950 . S
H4933 C4957 0.950 . S
H4934 C4958 0.950 . S
H4935 C4959 0.951 . S
H4936 C4961 0.951 . S
H4937 C4963 0.950 . S
H4938 C4964 0.950 . S
H4939 C4966 0.950 . S
H4940 C4969 0.950 . S
H4941 C4970 0.950 . S
H4942 C4972 0.950 . S
H4943 C4973 0.950 . S
C4944 H4926 0.951 . S
C4944 C4945 1.366 . S
C4944 C4946 1.388 . S
C4945 C4944 1.366 . S
C4945 C4949 1.385 . S
C4946 H4927 0.951 . S
C4946 C4944 1.388 . S
C4946 C4947 1.366 . S
C4947 C4946 1.366 . S
C4947 C4948 1.414 . S
C4947 C4950 1.499 . S
C4948 H4928 0.950 . S
C4948 C4947 1.414 . S
C4948 C4949 1.374 . S
C4949 H4929 0.950 . S
C4949 C4945 1.385 . S
C4949 C4948 1.374 . S
C4950 C4947 1.499 . S
C4950 C4951 1.373 . S
C4950 C4952 1.389 . S
C4951 H4930 0.950 . S
C4951 C4950 1.373 . S
C4951 C4967 1.377 . S
C4952 C4950 1.389 . S
C4952 C4953 1.524 . S
C4952 C4966 1.377 . S
C4953 C4952 1.524 . S
C4953 C4954 1.397 . S
C4953 C4958 1.363 . S
C4954 H4931 0.950 . S
C4954 C4953 1.397 . S
C4954 C4955 1.334 . S
C4955 H4932 0.950 . S
C4955 C4954 1.334 . S
C4955 C4956 1.287 . S
C4956 C4955 1.287 . S
C4956 C4957 1.524 . S
C4956 H4975 0.913 . S
C4957 H4933 0.950 . S
C4957 C4956 1.524 . S
C4957 C4958 1.415 . S
C4958 H4934 0.950 . S
C4958 C4953 1.363 . S
C4958 C4957 1.415 . S
C4959 H4935 0.951 . S
C4959 C4960 1.366 . S
C4959 C4961 1.388 . S
C4960 C4959 1.366 . S
C4960 C4964 1.385 . S
C4961 H4936 0.951 . S
C4961 C4959 1.388 . S
C4961 C4962 1.366 . S
C4962 C4961 1.366 . S
C4962 C4963 1.414 . S
C4962 C4965 1.499 . S
C4963 H4937 0.950 . S
C4963 C4962 1.414 . S
C4963 C4964 1.374 . S
C4964 H4938 0.950 . S
C4964 C4960 1.385 . S
C4964 C4963 1.374 . S
C4965 C4962 1.499 . S
C4965 C4966 1.373 . S
C4965 C4967 1.389 . S
C4966 H4939 0.950 . S
C4966 C4952 1.377 . S
C4966 C4965 1.373 . S
C4967 C4951 1.377 . S
C4967 C4965 1.389 . S
C4967 C4968 1.524 . S
C4968 C4967 1.524 . S
C4968 C4969 1.397 . S
C4968 C4973 1.363 . S
C4969 H4940 0.950 . S
C4969 C4968 1.397 . S
C4969 C4970 1.334 . S
C4970 H4941 0.950 . S
C4970 C4969 1.334 . S
C4970 C4971 1.287 . S
C4971 C4970 1.287 . S
C4971 C4972 1.524 . S
C4971 H4974 0.999 . S
C4972 H4942 0.950 . S
C4972 C4971 1.524 . S
C4972 C4973 1.415 . S
C4973 H4943 0.950 . S
C4973 C4968 1.363 . S
C4973 C4972 1.415 . S
H4974 C4971 0.999 . S
H4975 C4956 0.913 . S
H4976 C4994 0.951 . S
H4977 C4996 0.951 . S
H4978 C4998 0.950 . S
H4979 C4999 0.950 . S
H4980 C5001 0.950 . S
H4981 C5004 0.950 . S
H4982 C5005 0.950 . S
H4983 C5007 0.950 . S
H4984 C5008 0.950 . S
H4985 C5009 0.951 . S
H4986 C5011 0.951 . S
H4987 C5013 0.950 . S
H4988 C5014 0.950 . S
H4989 C5016 0.950 . S
H4990 C5019 0.950 . S
H4991 C5020 0.950 . S
H4992 C5022 0.950 . S
H4993 C5023 0.950 . S
C4994 H4976 0.951 . S
C4994 C4995 1.366 . S
C4994 C4996 1.388 . S
C4995 C4994 1.366 . S
C4995 C4999 1.385 . S
C4996 H4977 0.951 . S
C4996 C4994 1.388 . S
C4996 C4997 1.366 . S
C4997 C4996 1.366 . S
C4997 C4998 1.414 . S
C4997 C5000 1.499 . S
C4998 H4978 0.950 . S
C4998 C4997 1.414 . S
C4998 C4999 1.374 . S
C4999 H4979 0.950 . S
C4999 C4995 1.385 . S
C4999 C4998 1.374 . S
C5000 C4997 1.499 . S
C5000 C5001 1.373 . S
C5000 C5002 1.389 . S
C5001 H4980 0.950 . S
C5001 C5000 1.373 . S
C5001 C5017 1.377 . S
C5002 C5000 1.389 . S
C5002 C5003 1.524 . S
C5002 C5016 1.377 . S
C5003 C5002 1.524 . S
C5003 C5004 1.397 . S
C5003 C5008 1.363 . S
C5004 H4981 0.950 . S
C5004 C5003 1.397 . S
C5004 C5005 1.334 . S
C5005 H4982 0.950 . S
C5005 C5004 1.334 . S
C5005 C5006 1.287 . S
C5006 C5005 1.287 . S
C5006 C5007 1.524 . S
C5006 H5025 0.913 . S
C5007 H4983 0.950 . S
C5007 C5006 1.524 . S
C5007 C5008 1.415 . S
C5008 H4984 0.950 . S
C5008 C5003 1.363 . S
C5008 C5007 1.415 . S
C5009 H4985 0.951 . S
C5009 C5010 1.366 . S
C5009 C5011 1.388 . S
C5010 C5009 1.366 . S
C5010 C5014 1.385 . S
C5011 H4986 0.951 . S
C5011 C5009 1.388 . S
C5011 C5012 1.366 . S
C5012 C5011 1.366 . S
C5012 C5013 1.414 . S
C5012 C5015 1.499 . S
C5013 H4987 0.950 . S
C5013 C5012 1.414 . S
C5013 C5014 1.374 . S
C5014 H4988 0.950 . S
C5014 C5010 1.385 . S
C5014 C5013 1.374 . S
C5015 C5012 1.499 . S
C5015 C5016 1.373 . S
C5015 C5017 1.389 . S
C5016 H4989 0.950 . S
C5016 C5002 1.377 . S
C5016 C5015 1.373 . S
C5017 C5001 1.377 . S
C5017 C5015 1.389 . S
C5017 C5018 1.524 . S
C5018 C5017 1.524 . S
C5018 C5019 1.397 . S
C5018 C5023 1.363 . S
C5019 H4990 0.950 . S
C5019 C5018 1.397 . S
C5019 C5020 1.334 . S
C5020 H4991 0.950 . S
C5020 C5019 1.334 . S
C5020 C5021 1.287 . S
C5021 C5020 1.287 . S
C5021 C5022 1.524 . S
C5021 H5024 0.999 . S
C5022 H4992 0.950 . S
C5022 C5021 1.524 . S
C5022 C5023 1.415 . S
C5023 H4993 0.950 . S
C5023 C5018 1.363 . S
C5023 C5022 1.415 . S
H5024 C5021 0.999 . S
H5025 C5006 0.913 . S
H5026 C5044 0.951 . S
H5027 C5046 0.951 . S
H5028 C5048 0.950 . S
H5029 C5049 0.950 . S
H5030 C5051 0.950 . S
H5031 C5054 0.950 . S
H5032 C5055 0.950 . S
H5033 C5057 0.950 . S
H5034 C5058 0.950 . S
H5035 C5059 0.951 . S
H5036 C5061 0.951 . S
H5037 C5063 0.950 . S
H5038 C5064 0.950 . S
H5039 C5066 0.950 . S
H5040 C5069 0.950 . S
H5041 C5070 0.950 . S
H5042 C5072 0.950 . S
H5043 C5073 0.950 . S
C5044 H5026 0.951 . S
C5044 C5045 1.366 . S
C5044 C5046 1.388 . S
C5045 C5044 1.366 . S
C5045 C5049 1.385 . S
C5046 H5027 0.951 . S
C5046 C5044 1.388 . S
C5046 C5047 1.366 . S
C5047 C5046 1.366 . S
C5047 C5048 1.414 . S
C5047 C5050 1.499 . S
C5048 H5028 0.950 . S
C5048 C5047 1.414 . S
C5048 C5049 1.374 . S
C5049 H5029 0.950 . S
C5049 C5045 1.385 . S
C5049 C5048 1.374 . S
C5050 C5047 1.499 . S
C5050 C5051 1.373 . S
C5050 C5052 1.389 . S
C5051 H5030 0.950 . S
C5051 C5050 1.373 . S
C5051 C5067 1.377 . S
C5052 C5050 1.389 . S
C5052 C5053 1.524 . S
C5052 C5066 1.377 . S
C5053 C5052 1.524 . S
C5053 C5054 1.397 . S
C5053 C5058 1.363 . S
C5054 H5031 0.950 . S
C5054 C5053 1.397 . S
C5054 C5055 1.334 . S
C5055 H5032 0.950 . S
C5055 C5054 1.334 . S
C5055 C5056 1.287 . S
C5056 C5055 1.287 . S
C5056 C5057 1.524 . S
C5056 H5075 0.913 . S
C5057 H5033 0.950 . S
C5057 C5056 1.524 . S
C5057 C5058 1.415 . S
C5058 H5034 0.950 . S
C5058 C5053 1.363 . S
C5058 C5057 1.415 . S
C5059 H5035 0.951 . S
C5059 C5060 1.366 . S
C5059 C5061 1.388 . S
C5060 C5059 1.366 . S
C5060 C5064 1.385 . S
C5061 H5036 0.951 . S
C5061 C5059 1.388 . S
C5061 C5062 1.366 . S
C5062 C5061 1.366 . S
C5062 C5063 1.414 . S
C5062 C5065 1.499 . S
C5063 H5037 0.950 . S
C5063 C5062 1.414 . S
C5063 C5064 1.374 . S
C5064 H5038 0.950 . S
C5064 C5060 1.385 . S
C5064 C5063 1.374 . S
C5065 C5062 1.499 . S
C5065 C5066 1.373 . S
C5065 C5067 1.389 . S
C5066 H5039 0.950 . S
C5066 C5052 1.377 . S
C5066 C5065 1.373 . S
C5067 C5051 1.377 . S
C5067 C5065 1.389 . S
C5067 C5068 1.524 . S
C5068 C5067 1.524 . S
C5068 C5069 1.397 . S
C5068 C5073 1.363 . S
C5069 H5040 0.950 . S
C5069 C5068 1.397 . S
C5069 C5070 1.334 . S
C5070 H5041 0.950 . S
C5070 C5069 1.334 . S
C5070 C5071 1.287 . S
C5071 C5070 1.287 . S
C5071 C5072 1.524 . S
C5071 H5074 0.999 . S
C5072 H5042 0.950 . S
C5072 C5071 1.524 . S
C5072 C5073 1.415 . S
C5073 H5043 0.950 . S
C5073 C5068 1.363 . S
C5073 C5072 1.415 . S
H5074 C5071 0.999 . S
H5075 C5056 0.913 . S
H5076 C5094 0.951 . S
H5077 C5096 0.951 . S
H5078 C5098 0.950 . S
H5079 C5099 0.950 . S
H5080 C5101 0.950 . S
H5081 C5104 0.950 . S
H5082 C5105 0.950 . S
H5083 C5107 0.950 . S
H5084 C5108 0.950 . S
H5085 C5109 0.951 . S
H5086 C5111 0.951 . S
H5087 C5113 0.950 . S
H5088 C5114 0.950 . S
H5089 C5116 0.950 . S
H5090 C5119 0.950 . S
H5091 C5120 0.950 . S
H5092 C5122 0.950 . S
H5093 C5123 0.950 . S
C5094 H5076 0.951 . S
C5094 C5095 1.366 . S
C5094 C5096 1.388 . S
C5095 C5094 1.366 . S
C5095 C5099 1.385 . S
C5096 H5077 0.951 . S
C5096 C5094 1.388 . S
C5096 C5097 1.366 . S
C5097 C5096 1.366 . S
C5097 C5098 1.414 . S
C5097 C5100 1.499 . S
C5098 H5078 0.950 . S
C5098 C5097 1.414 . S
C5098 C5099 1.374 . S
C5099 H5079 0.950 . S
C5099 C5095 1.385 . S
C5099 C5098 1.374 . S
C5100 C5097 1.499 . S
C5100 C5101 1.373 . S
C5100 C5102 1.389 . S
C5101 H5080 0.950 . S
C5101 C5100 1.373 . S
C5101 C5117 1.377 . S
C5102 C5100 1.389 . S
C5102 C5103 1.524 . S
C5102 C5116 1.377 . S
C5103 C5102 1.524 . S
C5103 C5104 1.397 . S
C5103 C5108 1.363 . S
C5104 H5081 0.950 . S
C5104 C5103 1.397 . S
C5104 C5105 1.334 . S
C5105 H5082 0.950 . S
C5105 C5104 1.334 . S
C5105 C5106 1.287 . S
C5106 C5105 1.287 . S
C5106 C5107 1.524 . S
C5106 H5125 0.913 . S
C5107 H5083 0.950 . S
C5107 C5106 1.524 . S
C5107 C5108 1.415 . S
C5108 H5084 0.950 . S
C5108 C5103 1.363 . S
C5108 C5107 1.415 . S
C5109 H5085 0.951 . S
C5109 C5110 1.366 . S
C5109 C5111 1.388 . S
C5110 C5109 1.366 . S
C5110 C5114 1.385 1_455 S
C5111 H5086 0.951 . S
C5111 C5109 1.388 . S
C5111 C5112 1.366 1_455 S
C5112 C5111 1.366 1_655 S
C5112 C5113 1.414 . S
C5112 C5115 1.499 . S
C5113 H5087 0.950 . S
C5113 C5112 1.414 . S
C5113 C5114 1.374 . S
C5114 H5088 0.950 . S
C5114 C5110 1.385 1_655 S
C5114 C5113 1.374 . S
C5115 C5112 1.499 . S
C5115 C5116 1.373 . S
C5115 C5117 1.389 . S
C5116 H5089 0.950 . S
C5116 C5102 1.377 . S
C5116 C5115 1.373 . S
C5117 C5101 1.377 . S
C5117 C5115 1.389 . S
C5117 C5118 1.524 . S
C5118 C5117 1.524 . S
C5118 C5119 1.397 . S
C5118 C5123 1.363 1_655 S
C5119 H5090 0.950 . S
C5119 C5118 1.397 . S
C5119 C5120 1.334 . S
C5120 H5091 0.950 . S
C5120 C5119 1.334 . S
C5120 C5121 1.287 1_655 S
C5121 C5120 1.287 1_455 S
C5121 C5122 1.524 . S
C5121 H5124 0.999 . S
C5122 H5092 0.950 . S
C5122 C5121 1.524 . S
C5122 C5123 1.415 . S
C5123 H5093 0.950 . S
C5123 C5118 1.363 1_455 S
C5123 C5122 1.415 . S
H5124 C5121 0.999 . S
H5125 C5106 0.913 . S
H5126 C5144 0.951 . S
H5127 C5146 0.951 . S
H5128 C5148 0.950 . S
H5129 C5149 0.950 . S
H5130 C5151 0.950 . S
H5131 C5154 0.950 . S
H5132 C5155 0.950 . S
H5133 C5157 0.950 . S
H5134 C5158 0.950 . S
H5135 C5159 0.951 . S
H5136 C5161 0.951 . S
H5137 C5163 0.950 . S
H5138 C5164 0.950 . S
H5139 C5166 0.950 . S
H5140 C5169 0.950 . S
H5141 C5170 0.950 . S
H5142 C5172 0.950 . S
H5143 C5173 0.950 . S
C5144 H5126 0.951 . S
C5144 C5145 1.366 . S
C5144 C5146 1.388 . S
C5145 C5144 1.366 . S
C5145 C5149 1.385 . S
C5146 H5127 0.951 . S
C5146 C5144 1.388 . S
C5146 C5147 1.366 . S
C5147 C5146 1.366 . S
C5147 C5148 1.414 . S
C5147 C5150 1.499 . S
C5148 H5128 0.950 . S
C5148 C5147 1.414 . S
C5148 C5149 1.374 . S
C5149 H5129 0.950 . S
C5149 C5145 1.385 . S
C5149 C5148 1.374 . S
C5150 C5147 1.499 . S
C5150 C5151 1.373 . S
C5150 C5152 1.389 . S
C5151 H5130 0.950 . S
C5151 C5150 1.373 . S
C5151 C5167 1.377 . S
C5152 C5150 1.389 . S
C5152 C5153 1.524 . S
C5152 C5166 1.377 . S
C5153 C5152 1.524 . S
C5153 C5154 1.397 . S
C5153 C5158 1.363 . S
C5154 H5131 0.950 . S
C5154 C5153 1.397 . S
C5154 C5155 1.334 . S
C5155 H5132 0.950 . S
C5155 C5154 1.334 . S
C5155 C5156 1.287 . S
C5156 C5155 1.287 . S
C5156 C5157 1.524 . S
C5156 H5175 0.913 . S
C5157 H5133 0.950 . S
C5157 C5156 1.524 . S
C5157 C5158 1.415 . S
C5158 H5134 0.950 . S
C5158 C5153 1.363 . S
C5158 C5157 1.415 . S
C5159 H5135 0.951 . S
C5159 C5160 1.366 . S
C5159 C5161 1.388 . S
C5160 C5159 1.366 . S
C5160 C5164 1.385 . S
C5161 H5136 0.951 . S
C5161 C5159 1.388 . S
C5161 C5162 1.366 . S
C5162 C5161 1.366 . S
C5162 C5163 1.414 . S
C5162 C5165 1.499 . S
C5163 H5137 0.950 . S
C5163 C5162 1.414 . S
C5163 C5164 1.374 . S
C5164 H5138 0.950 . S
C5164 C5160 1.385 . S
C5164 C5163 1.374 . S
C5165 C5162 1.499 . S
C5165 C5166 1.373 . S
C5165 C5167 1.389 . S
C5166 H5139 0.950 . S
C5166 C5152 1.377 . S
C5166 C5165 1.373 . S
C5167 C5151 1.377 . S
C5167 C5165 1.389 . S
C5167 C5168 1.524 . S
C5168 C5167 1.524 . S
C5168 C5169 1.397 . S
C5168 C5173 1.363 . S
C5169 H5140 0.950 . S
C5169 C5168 1.397 . S
C5169 C5170 1.334 . S
C5170 H5141 0.950 . S
C5170 C5169 1.334 . S
C5170 C5171 1.287 . S
C5171 C5170 1.287 . S
C5171 C5172 1.524 . S
C5171 H5174 0.999 . S
C5172 H5142 0.950 . S
C5172 C5171 1.524 . S
C5172 C5173 1.415 . S
C5173 H5143 0.950 . S
C5173 C5168 1.363 . S
C5173 C5172 1.415 . S
H5174 C5171 0.999 . S
H5175 C5156 0.913 . S
H5176 C5194 0.951 . S
H5177 C5196 0.951 . S
H5178 C5198 0.950 . S
H5179 C5199 0.950 . S
H5180 C5201 0.950 . S
H5181 C5204 0.950 . S
H5182 C5205 0.950 . S
H5183 C5207 0.950 . S
H5184 C5208 0.950 . S
H5185 C5209 0.951 . S
H5186 C5211 0.951 . S
H5187 C5213 0.950 . S
H5188 C5214 0.950 . S
H5189 C5216 0.950 . S
H5190 C5219 0.950 . S
H5191 C5220 0.950 . S
H5192 C5222 0.950 . S
H5193 C5223 0.950 . S
C5194 H5176 0.951 . S
C5194 C5195 1.366 . S
C5194 C5196 1.388 . S
C5195 C5194 1.366 . S
C5195 C5199 1.385 . S
C5196 H5177 0.951 . S
C5196 C5194 1.388 . S
C5196 C5197 1.366 . S
C5197 C5196 1.366 . S
C5197 C5198 1.414 . S
C5197 C5200 1.499 . S
C5198 H5178 0.950 . S
C5198 C5197 1.414 . S
C5198 C5199 1.374 . S
C5199 H5179 0.950 . S
C5199 C5195 1.385 . S
C5199 C5198 1.374 . S
C5200 C5197 1.499 . S
C5200 C5201 1.373 . S
C5200 C5202 1.389 . S
C5201 H5180 0.950 . S
C5201 C5200 1.373 . S
C5201 C5217 1.377 . S
C5202 C5200 1.389 . S
C5202 C5203 1.524 . S
C5202 C5216 1.377 . S
C5203 C5202 1.524 . S
C5203 C5204 1.397 . S
C5203 C5208 1.363 . S
C5204 H5181 0.950 . S
C5204 C5203 1.397 . S
C5204 C5205 1.334 . S
C5205 H5182 0.950 . S
C5205 C5204 1.334 . S
C5205 C5206 1.287 . S
C5206 C5205 1.287 . S
C5206 C5207 1.524 . S
C5206 H5225 0.913 . S
C5207 H5183 0.950 . S
C5207 C5206 1.524 . S
C5207 C5208 1.415 . S
C5208 H5184 0.950 . S
C5208 C5203 1.363 . S
C5208 C5207 1.415 . S
C5209 H5185 0.951 . S
C5209 C5210 1.366 . S
C5209 C5211 1.388 . S
C5210 C5209 1.366 . S
C5210 C5214 1.385 . S
C5211 H5186 0.951 . S
C5211 C5209 1.388 . S
C5211 C5212 1.366 . S
C5212 C5211 1.366 . S
C5212 C5213 1.414 . S
C5212 C5215 1.499 . S
C5213 H5187 0.950 . S
C5213 C5212 1.414 . S
C5213 C5214 1.374 . S
C5214 H5188 0.950 . S
C5214 C5210 1.385 . S
C5214 C5213 1.374 . S
C5215 C5212 1.499 . S
C5215 C5216 1.373 . S
C5215 C5217 1.389 . S
C5216 H5189 0.950 . S
C5216 C5202 1.377 . S
C5216 C5215 1.373 . S
C5217 C5201 1.377 . S
C5217 C5215 1.389 . S
C5217 C5218 1.524 . S
C5218 C5217 1.524 . S
C5218 C5219 1.397 . S
C5218 C5223 1.363 . S
C5219 H5190 0.950 . S
C5219 C5218 1.397 . S
C5219 C5220 1.334 . S
C5220 H5191 0.950 . S
C5220 C5219 1.334 . S
C5220 C5221 1.287 . S
C5221 C5220 1.287 . S
C5221 C5222 1.524 . S
C5221 H5224 0.999 . S
C5222 H5192 0.950 . S
C5222 C5221 1.524 . S
C5222 C5223 1.415 . S
C5223 H5193 0.950 . S
C5223 C5218 1.363 . S
C5223 C5222 1.415 . S
H5224 C5221 0.999 . S
H5225 C5206 0.913 . S
H5226 C5244 0.951 . S
H5227 C5246 0.951 . S
H5228 C5248 0.950 . S
H5229 C5249 0.950 . S
H5230 C5251 0.950 . S
H5231 C5254 0.950 . S
H5232 C5255 0.950 . S
H5233 C5257 0.950 . S
H5234 C5258 0.950 . S
H5235 C5259 0.951 . S
H5236 C5261 0.951 . S
H5237 C5263 0.950 . S
H5238 C5264 0.950 . S
H5239 C5266 0.950 . S
H5240 C5269 0.950 . S
H5241 C5270 0.950 . S
H5242 C5272 0.950 . S
H5243 C5273 0.950 . S
C5244 H5226 0.951 . S
C5244 C5245 1.366 . S
C5244 C5246 1.388 1_554 S
C5245 C5244 1.366 . S
C5245 C5249 1.385 1_554 S
C5246 H5227 0.951 . S
C5246 C5244 1.388 1_556 S
C5246 C5247 1.366 . S
C5247 C5246 1.366 . S
C5247 C5248 1.414 . S
C5247 C5250 1.499 . S
C5248 H5228 0.950 . S
C5248 C5247 1.414 . S
C5248 C5249 1.374 . S
C5249 H5229 0.950 . S
C5249 C5245 1.385 1_556 S
C5249 C5248 1.374 . S
C5250 C5247 1.499 . S
C5250 C5251 1.373 . S
C5250 C5252 1.389 . S
C5251 H5230 0.950 . S
C5251 C5250 1.373 . S
C5251 C5267 1.377 . S
C5252 C5250 1.389 . S
C5252 C5253 1.524 . S
C5252 C5266 1.377 . S
C5253 C5252 1.524 . S
C5253 C5254 1.397 . S
C5253 C5258 1.363 . S
C5254 H5231 0.950 . S
C5254 C5253 1.397 . S
C5254 C5255 1.334 . S
C5255 H5232 0.950 . S
C5255 C5254 1.334 . S
C5255 C5256 1.287 . S
C5256 C5255 1.287 . S
C5256 C5257 1.524 . S
C5256 H5275 0.913 . S
C5257 H5233 0.950 . S
C5257 C5256 1.524 . S
C5257 C5258 1.415 . S
C5258 H5234 0.950 . S
C5258 C5253 1.363 . S
C5258 C5257 1.415 . S
C5259 H5235 0.951 . S
C5259 C5260 1.366 . S
C5259 C5261 1.388 . S
C5260 C5259 1.366 . S
C5260 C5264 1.385 . S
C5261 H5236 0.951 . S
C5261 C5259 1.388 . S
C5261 C5262 1.366 . S
C5262 C5261 1.366 . S
C5262 C5263 1.414 . S
C5262 C5265 1.499 . S
C5263 H5237 0.950 . S
C5263 C5262 1.414 . S
C5263 C5264 1.374 . S
C5264 H5238 0.950 . S
C5264 C5260 1.385 . S
C5264 C5263 1.374 . S
C5265 C5262 1.499 . S
C5265 C5266 1.373 . S
C5265 C5267 1.389 . S
C5266 H5239 0.950 . S
C5266 C5252 1.377 . S
C5266 C5265 1.373 . S
C5267 C5251 1.377 . S
C5267 C5265 1.389 . S
C5267 C5268 1.524 . S
C5268 C5267 1.524 . S
C5268 C5269 1.397 . S
C5268 C5273 1.363 . S
C5269 H5240 0.950 . S
C5269 C5268 1.397 . S
C5269 C5270 1.334 . S
C5270 H5241 0.950 . S
C5270 C5269 1.334 . S
C5270 C5271 1.287 . S
C5271 C5270 1.287 . S
C5271 C5272 1.524 . S
C5271 H5274 0.999 . S
C5272 H5242 0.950 . S
C5272 C5271 1.524 . S
C5272 C5273 1.415 . S
C5273 H5243 0.950 . S
C5273 C5268 1.363 . S
C5273 C5272 1.415 . S
H5274 C5271 0.999 . S
H5275 C5256 0.913 . S
H5276 C5294 0.951 . S
H5277 C5296 0.951 . S
H5278 C5298 0.950 . S
H5279 C5299 0.950 . S
H5280 C5301 0.950 . S
H5281 C5304 0.950 . S
H5282 C5305 0.950 . S
H5283 C5307 0.950 . S
H5284 C5308 0.950 . S
H5285 C5309 0.961 . S
H5286 C5311 0.951 . S
H5287 C5313 0.950 . S
H5288 C5314 0.950 . S
H5289 C5316 0.950 . S
H5290 C5319 0.950 . S
H5291 C5320 0.950 . S
H5292 C5322 0.950 . S
H5293 C5323 0.950 . S
C5294 H5276 0.951 . S
C5294 C5295 1.366 . S
C5294 C5296 1.388 . S
C5295 C5294 1.366 . S
C5295 C5299 1.385 . S
C5296 H5277 0.951 . S
C5296 C5294 1.388 . S
C5296 C5297 1.366 . S
C5297 C5296 1.366 . S
C5297 C5298 1.414 . S
C5297 C5300 1.499 . S
C5298 H5278 0.950 . S
C5298 C5297 1.414 . S
C5298 C5299 1.374 . S
C5299 H5279 0.950 . S
C5299 C5295 1.385 . S
C5299 C5298 1.374 . S
C5300 C5297 1.499 . S
C5300 C5301 1.373 . S
C5300 C5302 1.389 . S
C5301 H5280 0.950 . S
C5301 C5300 1.373 . S
C5301 C5317 1.377 . S
C5302 C5300 1.389 . S
C5302 C5303 1.524 . S
C5302 C5316 1.377 . S
C5303 C5302 1.524 . S
C5303 C5304 1.397 . S
C5303 C5308 1.363 . S
C5304 H5281 0.950 . S
C5304 C5303 1.397 . S
C5304 C5305 1.334 . S
C5305 H5282 0.950 . S
C5305 C5304 1.334 . S
C5305 C5306 1.287 . S
C5306 C5305 1.287 . S
C5306 C5307 1.524 . S
C5306 H5325 0.913 . S
C5307 H5283 0.950 . S
C5307 C5306 1.524 . S
C5307 C5308 1.415 . S
C5308 H5284 0.950 . S
C5308 C5303 1.363 . S
C5308 C5307 1.415 . S
C5309 H5285 0.961 . S
C5309 C5310 1.366 . S
C5309 C5311 1.388 . S
C5310 C5309 1.366 . S
C5310 C5314 1.385 . S
C5311 H5286 0.951 . S
C5311 C5309 1.388 . S
C5311 C5312 1.366 . S
C5312 C5311 1.366 . S
C5312 C5313 1.414 . S
C5312 C5315 1.499 . S
C5313 H5287 0.950 . S
C5313 C5312 1.414 . S
C5313 C5314 1.374 . S
C5314 H5288 0.950 . S
C5314 C5310 1.385 . S
C5314 C5313 1.374 . S
C5315 C5312 1.499 . S
C5315 C5316 1.373 . S
C5315 C5317 1.389 . S
C5316 H5289 0.950 . S
C5316 C5302 1.377 . S
C5316 C5315 1.373 . S
C5317 C5301 1.377 . S
C5317 C5315 1.389 . S
C5317 C5318 1.524 1_655 S
C5318 C5317 1.524 1_455 S
C5318 C5319 1.397 . S
C5318 C5323 1.363 . S
C5319 H5290 0.950 . S
C5319 C5318 1.397 . S
C5319 C5320 1.334 . S
C5320 H5291 0.950 . S
C5320 C5319 1.334 . S
C5320 C5321 1.287 . S
C5321 C5320 1.287 . S
C5321 C5322 1.524 . S
C5321 H5324 0.999 . S
C5322 H5292 0.950 . S
C5322 C5321 1.524 . S
C5322 C5323 1.415 . S
C5323 H5293 0.950 . S
C5323 C5318 1.363 . S
C5323 C5322 1.415 . S
H5324 C5321 0.999 . S
H5325 C5306 0.913 . S
H5326 C5344 0.951 . S
H5327 C5346 0.951 . S
H5328 C5348 0.950 . S
H5329 C5349 0.950 . S
H5330 C5351 0.950 . S
H5331 C5354 0.950 . S
H5332 C5355 0.950 . S
H5333 C5357 0.950 . S
H5334 C5358 0.950 . S
H5335 C5359 0.951 . S
H5336 C5361 0.951 . S
H5337 C5363 0.950 . S
H5338 C5364 0.950 . S
H5339 C5366 0.950 . S
H5340 C5369 0.950 . S
H5341 C5370 0.950 . S
H5342 C5372 0.950 . S
H5343 C5373 0.950 . S
C5344 H5326 0.951 . S
C5344 C5345 1.366 . S
C5344 C5346 1.388 . S
C5345 C5344 1.366 . S
C5345 C5349 1.385 . S
C5346 H5327 0.951 . S
C5346 C5344 1.388 . S
C5346 C5347 1.366 . S
C5347 C5346 1.366 . S
C5347 C5348 1.414 . S
C5347 C5350 1.499 . S
C5348 H5328 0.950 . S
C5348 C5347 1.414 . S
C5348 C5349 1.374 . S
C5349 H5329 0.950 . S
C5349 C5345 1.385 . S
C5349 C5348 1.374 . S
C5350 C5347 1.499 . S
C5350 C5351 1.373 . S
C5350 C5352 1.389 . S
C5351 H5330 0.950 . S
C5351 C5350 1.373 . S
C5351 C5367 1.377 . S
C5352 C5350 1.389 . S
C5352 C5353 1.524 . S
C5352 C5366 1.377 . S
C5353 C5352 1.524 . S
C5353 C5354 1.397 . S
C5353 C5358 1.363 . S
C5354 H5331 0.950 . S
C5354 C5353 1.397 . S
C5354 C5355 1.334 . S
C5355 H5332 0.950 . S
C5355 C5354 1.334 . S
C5355 C5356 1.287 . S
C5356 C5355 1.287 . S
C5356 C5357 1.524 . S
C5356 H5375 0.913 . S
C5357 H5333 0.950 . S
C5357 C5356 1.524 . S
C5357 C5358 1.415 . S
C5358 H5334 0.950 . S
C5358 C5353 1.363 . S
C5358 C5357 1.415 . S
C5359 H5335 0.951 . S
C5359 C5360 1.366 . S
C5359 C5361 1.388 . S
C5360 C5359 1.366 . S
C5360 C5364 1.385 . S
C5361 H5336 0.951 . S
C5361 C5359 1.388 . S
C5361 C5362 1.366 . S
C5362 C5361 1.366 . S
C5362 C5363 1.414 . S
C5362 C5365 1.499 . S
C5363 H5337 0.950 . S
C5363 C5362 1.414 . S
C5363 C5364 1.374 . S
C5364 H5338 0.950 . S
C5364 C5360 1.385 . S
C5364 C5363 1.374 . S
C5365 C5362 1.499 . S
C5365 C5366 1.373 . S
C5365 C5367 1.389 . S
C5366 H5339 0.950 . S
C5366 C5352 1.377 . S
C5366 C5365 1.373 . S
C5367 C5351 1.377 . S
C5367 C5365 1.389 . S
C5367 C5368 1.524 . S
C5368 C5367 1.524 . S
C5368 C5369 1.397 . S
C5368 C5373 1.363 . S
C5369 H5340 0.950 . S
C5369 C5368 1.397 . S
C5369 C5370 1.334 . S
C5370 H5341 0.950 . S
C5370 C5369 1.334 . S
C5370 C5371 1.287 . S
C5371 C5370 1.287 . S
C5371 C5372 1.524 . S
C5371 H5374 0.999 . S
C5372 H5342 0.950 . S
C5372 C5371 1.524 . S
C5372 C5373 1.415 . S
C5373 H5343 0.950 . S
C5373 C5368 1.363 . S
C5373 C5372 1.415 . S
H5374 C5371 0.999 . S
H5375 C5356 0.913 . S
H5376 C5394 0.951 . S
H5377 C5396 0.951 . S
H5378 C5398 0.950 . S
H5379 C5399 0.950 . S
H5380 C5401 0.950 . S
H5381 C5404 0.950 . S
H5382 C5405 0.950 . S
H5383 C5407 0.950 . S
H5384 C5408 0.950 . S
H5385 C5409 0.951 . S
H5386 C5411 0.951 . S
H5387 C5413 0.950 . S
H5388 C5414 0.950 . S
H5389 C5416 0.950 . S
H5390 C5419 0.950 . S
H5391 C5420 0.950 . S
H5392 C5422 0.950 . S
H5393 C5423 0.950 . S
C5394 H5376 0.951 . S
C5394 C5395 1.366 . S
C5394 C5396 1.388 . S
C5395 C5394 1.366 . S
C5395 C5399 1.385 . S
C5396 H5377 0.951 . S
C5396 C5394 1.388 . S
C5396 C5397 1.366 . S
C5397 C5396 1.366 . S
C5397 C5398 1.414 . S
C5397 C5400 1.499 . S
C5398 H5378 0.950 . S
C5398 C5397 1.414 . S
C5398 C5399 1.374 . S
C5399 H5379 0.950 . S
C5399 C5395 1.385 . S
C5399 C5398 1.374 . S
C5400 C5397 1.499 . S
C5400 C5401 1.373 . S
C5400 C5402 1.389 . S
C5401 H5380 0.950 . S
C5401 C5400 1.373 . S
C5401 C5417 1.377 . S
C5402 C5400 1.389 . S
C5402 C5403 1.524 . S
C5402 C5416 1.377 . S
C5403 C5402 1.524 . S
C5403 C5404 1.397 . S
C5403 C5408 1.363 . S
C5404 H5381 0.950 . S
C5404 C5403 1.397 . S
C5404 C5405 1.334 . S
C5405 H5382 0.950 . S
C5405 C5404 1.334 . S
C5405 C5406 1.287 . S
C5406 C5405 1.287 . S
C5406 C5407 1.524 . S
C5406 H5425 0.913 . S
C5407 H5383 0.950 . S
C5407 C5406 1.524 . S
C5407 C5408 1.415 . S
C5408 H5384 0.950 . S
C5408 C5403 1.363 . S
C5408 C5407 1.415 . S
C5409 H5385 0.951 . S
C5409 C5410 1.366 . S
C5409 C5411 1.388 . S
C5410 C5409 1.366 . S
C5410 C5414 1.385 . S
C5411 H5386 0.951 . S
C5411 C5409 1.388 . S
C5411 C5412 1.366 . S
C5412 C5411 1.366 . S
C5412 C5413 1.414 . S
C5412 C5415 1.499 . S
C5413 H5387 0.950 . S
C5413 C5412 1.414 . S
C5413 C5414 1.374 . S
C5414 H5388 0.950 . S
C5414 C5410 1.385 . S
C5414 C5413 1.374 . S
C5415 C5412 1.499 . S
C5415 C5416 1.373 . S
C5415 C5417 1.389 . S
C5416 H5389 0.950 . S
C5416 C5402 1.377 . S
C5416 C5415 1.373 . S
C5417 C5401 1.377 . S
C5417 C5415 1.389 . S
C5417 C5418 1.524 . S
C5418 C5417 1.524 . S
C5418 C5419 1.397 . S
C5418 C5423 1.363 . S
C5419 H5390 0.950 . S
C5419 C5418 1.397 . S
C5419 C5420 1.334 . S
C5420 H5391 0.950 . S
C5420 C5419 1.334 . S
C5420 C5421 1.287 . S
C5421 C5420 1.287 . S
C5421 C5422 1.524 . S
C5421 H5424 0.999 . S
C5422 H5392 0.950 . S
C5422 C5421 1.524 . S
C5422 C5423 1.415 . S
C5423 H5393 0.950 . S
C5423 C5418 1.363 . S
C5423 C5422 1.415 . S
H5424 C5421 0.999 . S
H5425 C5406 0.913 . S
H5426 C5444 0.951 . S
H5427 C5446 0.951 . S
H5428 C5448 0.950 . S
H5429 C5449 0.950 . S
H5430 C5451 0.950 . S
H5431 C5454 0.950 . S
H5432 C5455 0.950 . S
H5433 C5457 0.950 . S
H5434 C5458 0.950 . S
H5435 C5459 0.951 . S
H5436 C5461 0.951 . S
H5437 C5463 0.950 . S
H5438 C5464 0.950 . S
H5439 C5466 0.950 . S
H5440 C5469 0.950 . S
H5441 C5470 0.950 . S
H5442 C5472 0.950 . S
H5443 C5473 0.950 . S
C5444 H5426 0.951 . S
C5444 C5445 1.366 . S
C5444 C5446 1.388 . S
C5445 C5444 1.366 . S
C5445 C5449 1.385 1_565 S
C5446 H5427 0.951 . S
C5446 C5444 1.388 . S
C5446 C5447 1.356 1_565 S
C5447 C5446 1.356 1_545 S
C5447 C5448 1.421 . S
C5447 C5450 1.501 . S
C5448 H5428 0.950 . S
C5448 C5447 1.421 . S
C5448 C5449 1.374 . S
C5449 H5429 0.950 . S
C5449 C5445 1.385 1_545 S
C5449 C5448 1.374 . S
C5450 C5447 1.501 . S
C5450 C5451 1.373 . S
C5450 C5452 1.389 . S
C5451 H5430 0.950 . S
C5451 C5450 1.373 . S
C5451 C5467 1.377 . S
C5452 C5450 1.389 . S
C5452 C5453 1.524 . S
C5452 C5466 1.377 . S
C5453 C5452 1.524 . S
C5453 C5454 1.397 . S
C5453 C5458 1.363 1_545 S
C5454 H5431 0.950 . S
C5454 C5453 1.397 . S
C5454 C5455 1.334 . S
C5455 H5432 0.950 . S
C5455 C5454 1.334 . S
C5455 C5456 1.287 . S
C5456 C5455 1.287 . S
C5456 C5457 1.524 1_545 S
C5456 H5475 0.913 . S
C5457 H5433 0.950 . S
C5457 C5456 1.524 1_565 S
C5457 C5458 1.415 . S
C5458 H5434 0.950 . S
C5458 C5453 1.363 1_565 S
C5458 C5457 1.415 . S
C5459 H5435 0.951 . S
C5459 C5460 1.366 . S
C5459 C5461 1.388 . S
C5460 C5459 1.366 . S
C5460 C5464 1.385 . S
C5461 H5436 0.951 . S
C5461 C5459 1.388 . S
C5461 C5462 1.366 . S
C5462 C5461 1.366 . S
C5462 C5463 1.414 . S
C5462 C5465 1.499 . S
C5463 H5437 0.950 . S
C5463 C5462 1.414 . S
C5463 C5464 1.374 . S
C5464 H5438 0.950 . S
C5464 C5460 1.385 . S
C5464 C5463 1.374 . S
C5465 C5462 1.499 . S
C5465 C5466 1.373 . S
C5465 C5467 1.389 . S
C5466 H5439 0.950 . S
C5466 C5452 1.377 . S
C5466 C5465 1.373 . S
C5467 C5451 1.377 . S
C5467 C5465 1.389 . S
C5467 C5468 1.524 . S
C5468 C5467 1.524 . S
C5468 C5469 1.397 . S
C5468 C5473 1.363 . S
C5469 H5440 0.950 . S
C5469 C5468 1.397 . S
C5469 C5470 1.334 . S
C5470 H5441 0.950 . S
C5470 C5469 1.334 . S
C5470 C5471 1.287 . S
C5471 C5470 1.287 . S
C5471 C5472 1.524 . S
C5471 H5474 0.999 . S
C5472 H5442 0.950 . S
C5472 C5471 1.524 . S
C5472 C5473 1.415 . S
C5473 H5443 0.950 . S
C5473 C5468 1.363 . S
C5473 C5472 1.415 . S
H5474 C5471 0.999 . S
H5475 C5456 0.913 . S
H5476 C5494 0.951 . S
H5477 C5496 0.951 . S
H5478 C5498 0.950 . S
H5479 C5499 0.950 . S
H5480 C5501 0.950 . S
H5481 C5504 0.950 . S
H5482 C5505 0.950 . S
H5483 C5507 0.950 . S
H5484 C5508 0.950 . S
H5485 C5509 0.951 . S
H5486 C5511 0.951 . S
H5487 C5513 0.950 . S
H5488 C5514 0.950 . S
H5489 C5516 0.950 . S
H5490 C5519 0.950 . S
H5491 C5520 0.950 . S
H5492 C5522 0.950 . S
H5493 C5523 0.950 . S
C5494 H5476 0.951 . S
C5494 C5495 1.366 . S
C5494 C5496 1.388 . S
C5495 C5494 1.366 . S
C5495 C5499 1.385 . S
C5496 H5477 0.951 . S
C5496 C5494 1.388 . S
C5496 C5497 1.366 . S
C5497 C5496 1.366 . S
C5497 C5498 1.414 . S
C5497 C5500 1.499 . S
C5498 H5478 0.950 . S
C5498 C5497 1.414 . S
C5498 C5499 1.374 . S
C5499 H5479 0.950 . S
C5499 C5495 1.385 . S
C5499 C5498 1.374 . S
C5500 C5497 1.499 . S
C5500 C5501 1.373 . S
C5500 C5502 1.389 . S
C5501 H5480 0.950 . S
C5501 C5500 1.373 . S
C5501 C5517 1.377 . S
C5502 C5500 1.389 . S
C5502 C5503 1.524 . S
C5502 C5516 1.377 . S
C5503 C5502 1.524 . S
C5503 C5504 1.397 . S
C5503 C5508 1.363 . S
C5504 H5481 0.950 . S
C5504 C5503 1.397 . S
C5504 C5505 1.334 . S
C5505 H5482 0.950 . S
C5505 C5504 1.334 . S
C5505 C5506 1.287 . S
C5506 C5505 1.287 . S
C5506 C5507 1.524 . S
C5506 H5525 0.913 . S
C5507 H5483 0.950 . S
C5507 C5506 1.524 . S
C5507 C5508 1.415 . S
C5508 H5484 0.950 . S
C5508 C5503 1.363 . S
C5508 C5507 1.415 . S
C5509 H5485 0.951 . S
C5509 C5510 1.366 . S
C5509 C5511 1.388 . S
C5510 C5509 1.366 . S
C5510 C5514 1.385 . S
C5511 H5486 0.951 . S
C5511 C5509 1.388 . S
C5511 C5512 1.366 . S
C5512 C5511 1.366 . S
C5512 C5513 1.414 . S
C5512 C5515 1.499 . S
C5513 H5487 0.950 . S
C5513 C5512 1.414 . S
C5513 C5514 1.374 . S
C5514 H5488 0.950 . S
C5514 C5510 1.385 . S
C5514 C5513 1.374 . S
C5515 C5512 1.499 . S
C5515 C5516 1.373 . S
C5515 C5517 1.389 . S
C5516 H5489 0.950 . S
C5516 C5502 1.377 . S
C5516 C5515 1.373 . S
C5517 C5501 1.377 . S
C5517 C5515 1.389 . S
C5517 C5518 1.524 . S
C5518 C5517 1.524 . S
C5518 C5519 1.397 . S
C5518 C5523 1.363 . S
C5519 H5490 0.950 . S
C5519 C5518 1.397 . S
C5519 C5520 1.334 . S
C5520 H5491 0.950 . S
C5520 C5519 1.334 . S
C5520 C5521 1.287 . S
C5521 C5520 1.287 . S
C5521 C5522 1.524 . S
C5521 H5524 0.999 . S
C5522 H5492 0.950 . S
C5522 C5521 1.524 . S
C5522 C5523 1.415 . S
C5523 H5493 0.950 . S
C5523 C5518 1.363 . S
C5523 C5522 1.415 . S
H5524 C5521 0.999 . S
H5525 C5506 0.913 . S
H5526 C5544 0.951 . S
H5527 C5546 0.951 . S
H5528 C5548 0.950 . S
H5529 C5549 0.950 . S
H5530 C5551 0.950 . S
H5531 C5554 0.950 . S
H5532 C5555 0.950 . S
H5533 C5557 0.950 . S
H5534 C5558 0.950 . S
H5535 C5559 0.951 . S
H5536 C5561 0.951 . S
H5537 C5563 0.950 . S
H5538 C5564 0.950 . S
H5539 C5566 0.950 . S
H5540 C5569 0.950 . S
H5541 C5570 0.950 . S
H5542 C5572 0.950 . S
H5543 C5573 0.950 . S
C5544 H5526 0.951 . S
C5544 C5545 1.366 . S
C5544 C5546 1.388 . S
C5545 C5544 1.366 . S
C5545 C5549 1.385 . S
C5546 H5527 0.951 . S
C5546 C5544 1.388 . S
C5546 C5547 1.366 . S
C5547 C5546 1.366 . S
C5547 C5548 1.414 . S
C5547 C5550 1.499 . S
C5548 H5528 0.950 . S
C5548 C5547 1.414 . S
C5548 C5549 1.374 . S
C5549 H5529 0.950 . S
C5549 C5545 1.385 . S
C5549 C5548 1.374 . S
C5550 C5547 1.499 . S
C5550 C5551 1.373 . S
C5550 C5552 1.389 . S
C5551 H5530 0.950 . S
C5551 C5550 1.373 . S
C5551 C5567 1.377 . S
C5552 C5550 1.389 . S
C5552 C5553 1.524 . S
C5552 C5566 1.377 . S
C5553 C5552 1.524 . S
C5553 C5554 1.397 1_554 S
C5553 C5558 1.363 . S
C5554 H5531 0.950 . S
C5554 C5553 1.397 1_556 S
C5554 C5555 1.334 . S
C5555 H5532 0.950 . S
C5555 C5554 1.334 . S
C5555 C5556 1.287 . S
C5556 C5555 1.287 . S
C5556 C5557 1.524 . S
C5556 H5575 0.913 . S
C5557 H5533 0.950 . S
C5557 C5556 1.524 . S
C5557 C5558 1.415 1_556 S
C5558 H5534 0.950 . S
C5558 C5553 1.363 . S
C5558 C5557 1.415 1_554 S
C5559 H5535 0.951 . S
C5559 C5560 1.366 . S
C5559 C5561 1.388 . S
C5560 C5559 1.366 . S
C5560 C5564 1.385 . S
C5561 H5536 0.951 . S
C5561 C5559 1.388 . S
C5561 C5562 1.366 . S
C5562 C5561 1.366 . S
C5562 C5563 1.414 . S
C5562 C5565 1.499 . S
C5563 H5537 0.950 . S
C5563 C5562 1.414 . S
C5563 C5564 1.374 . S
C5564 H5538 0.950 . S
C5564 C5560 1.385 . S
C5564 C5563 1.374 . S
C5565 C5562 1.499 . S
C5565 C5566 1.373 . S
C5565 C5567 1.389 . S
C5566 H5539 0.950 . S
C5566 C5552 1.377 . S
C5566 C5565 1.373 . S
C5567 C5551 1.377 . S
C5567 C5565 1.389 . S
C5567 C5568 1.524 . S
C5568 C5567 1.524 . S
C5568 C5569 1.397 . S
C5568 C5573 1.363 . S
C5569 H5540 0.950 . S
C5569 C5568 1.397 . S
C5569 C5570 1.334 . S
C5570 H5541 0.950 . S
C5570 C5569 1.334 . S
C5570 C5571 1.287 . S
C5571 C5570 1.287 . S
C5571 C5572 1.524 . S
C5571 H5574 0.999 . S
C5572 H5542 0.950 . S
C5572 C5571 1.524 . S
C5572 C5573 1.415 . S
C5573 H5543 0.950 . S
C5573 C5568 1.363 . S
C5573 C5572 1.415 . S
H5574 C5571 0.999 . S
H5575 C5556 0.913 . S
H5576 C5594 0.951 . S
H5577 C5596 0.951 . S
H5578 C5598 0.950 . S
H5579 C5599 0.950 . S
H5580 C5601 0.950 . S
H5581 C5604 0.950 . S
H5582 C5605 0.950 . S
H5583 C5607 0.950 . S
H5584 C5608 0.950 . S
H5585 C5609 0.951 . S
H5586 C5611 0.951 . S
H5587 C5613 0.950 . S
H5588 C5614 0.950 . S
H5589 C5616 0.950 . S
H5590 C5619 0.950 . S
H5591 C5620 0.950 . S
H5592 C5622 0.950 . S
H5593 C5623 0.950 . S
C5594 H5576 0.951 . S
C5594 C5595 1.366 . S
C5594 C5596 1.388 . S
C5595 C5594 1.366 . S
C5595 C5599 1.385 . S
C5596 H5577 0.951 . S
C5596 C5594 1.388 . S
C5596 C5597 1.366 . S
C5597 C5596 1.366 . S
C5597 C5598 1.414 . S
C5597 C5600 1.499 . S
C5598 H5578 0.950 . S
C5598 C5597 1.414 . S
C5598 C5599 1.374 . S
C5599 H5579 0.950 . S
C5599 C5595 1.385 . S
C5599 C5598 1.374 . S
C5600 C5597 1.499 . S
C5600 C5601 1.373 . S
C5600 C5602 1.389 . S
C5601 H5580 0.950 . S
C5601 C5600 1.373 . S
C5601 C5617 1.377 . S
C5602 C5600 1.389 . S
C5602 C5603 1.524 . S
C5602 C5616 1.377 . S
C5603 C5602 1.524 . S
C5603 C5604 1.397 . S
C5603 C5608 1.363 . S
C5604 H5581 0.950 . S
C5604 C5603 1.397 . S
C5604 C5605 1.334 . S
C5605 H5582 0.950 . S
C5605 C5604 1.334 . S
C5605 C5606 1.287 . S
C5606 C5605 1.287 . S
C5606 C5607 1.524 . S
C5606 H5625 0.913 . S
C5607 H5583 0.950 . S
C5607 C5606 1.524 . S
C5607 C5608 1.415 . S
C5608 H5584 0.950 . S
C5608 C5603 1.363 . S
C5608 C5607 1.415 . S
C5609 H5585 0.951 . S
C5609 C5610 1.366 . S
C5609 C5611 1.388 . S
C5610 C5609 1.366 . S
C5610 C5614 1.385 . S
C5611 H5586 0.951 . S
C5611 C5609 1.388 . S
C5611 C5612 1.366 . S
C5612 C5611 1.366 . S
C5612 C5613 1.414 . S
C5612 C5615 1.499 . S
C5613 H5587 0.950 . S
C5613 C5612 1.414 . S
C5613 C5614 1.374 . S
C5614 H5588 0.950 . S
C5614 C5610 1.385 . S
C5614 C5613 1.374 . S
C5615 C5612 1.499 . S
C5615 C5616 1.373 . S
C5615 C5617 1.389 . S
C5616 H5589 0.950 . S
C5616 C5602 1.377 . S
C5616 C5615 1.373 . S
C5617 C5601 1.377 . S
C5617 C5615 1.389 . S
C5617 C5618 1.524 . S
C5618 C5617 1.524 . S
C5618 C5619 1.397 . S
C5618 C5623 1.363 . S
C5619 H5590 0.950 . S
C5619 C5618 1.397 . S
C5619 C5620 1.334 . S
C5620 H5591 0.950 . S
C5620 C5619 1.334 . S
C5620 C5621 1.287 . S
C5621 C5620 1.287 . S
C5621 C5622 1.524 . S
C5621 H5624 0.999 . S
C5622 H5592 0.950 . S
C5622 C5621 1.524 . S
C5622 C5623 1.415 . S
C5623 H5593 0.950 . S
C5623 C5618 1.363 . S
C5623 C5622 1.415 . S
H5624 C5621 0.999 . S
H5625 C5606 0.913 . S
H5626 C5644 0.951 . S
H5627 C5646 0.951 . S
H5628 C5648 0.950 . S
H5629 C5649 0.950 . S
H5630 C5651 0.950 . S
H5631 C5654 0.950 . S
H5632 C5655 0.950 . S
H5633 C5657 0.950 . S
H5634 C5658 0.950 . S
H5635 C5659 0.951 . S
H5636 C5661 0.951 . S
H5637 C5663 0.950 . S
H5638 C5664 0.971 . S
H5639 C5666 0.950 . S
H5640 C5669 0.950 . S
H5641 C5670 0.950 . S
H5642 C5672 0.950 . S
H5643 C5673 0.950 . S
C5644 H5626 0.951 . S
C5644 C5645 1.366 . S
C5644 C5646 1.388 . S
C5645 C5644 1.366 . S
C5645 C5649 1.385 . S
C5646 H5627 0.951 . S
C5646 C5644 1.388 . S
C5646 C5647 1.366 . S
C5647 C5646 1.366 . S
C5647 C5648 1.414 . S
C5647 C5650 1.499 . S
C5648 H5628 0.950 . S
C5648 C5647 1.414 . S
C5648 C5649 1.374 . S
C5649 H5629 0.950 . S
C5649 C5645 1.385 . S
C5649 C5648 1.374 . S
C5650 C5647 1.499 . S
C5650 C5651 1.373 . S
C5650 C5652 1.389 . S
C5651 H5630 0.950 . S
C5651 C5650 1.373 . S
C5651 C5667 1.377 . S
C5652 C5650 1.389 . S
C5652 C5653 1.524 . S
C5652 C5666 1.377 . S
C5653 C5652 1.524 . S
C5653 C5654 1.397 . S
C5653 C5658 1.363 . S
C5654 H5631 0.950 . S
C5654 C5653 1.397 . S
C5654 C5655 1.334 . S
C5655 H5632 0.950 . S
C5655 C5654 1.334 . S
C5655 C5656 1.287 . S
C5656 C5655 1.287 . S
C5656 C5657 1.524 . S
C5656 H5675 0.913 . S
C5657 H5633 0.950 . S
C5657 C5656 1.524 . S
C5657 C5658 1.415 . S
C5658 H5634 0.950 . S
C5658 C5653 1.363 . S
C5658 C5657 1.415 . S
C5659 H5635 0.951 . S
C5659 C5660 1.366 . S
C5659 C5661 1.388 . S
C5660 C5659 1.366 . S
C5660 C5664 1.385 . S
C5661 H5636 0.951 . S
C5661 C5659 1.388 . S
C5661 C5662 1.366 . S
C5662 C5661 1.366 . S
C5662 C5663 1.414 . S
C5662 C5665 1.499 . S
C5663 H5637 0.950 . S
C5663 C5662 1.414 . S
C5663 C5664 1.374 . S
C5664 H5638 0.971 . S
C5664 C5660 1.385 . S
C5664 C5663 1.374 . S
C5665 C5662 1.499 . S
C5665 C5666 1.373 . S
C5665 C5667 1.389 . S
C5666 H5639 0.950 . S
C5666 C5652 1.377 . S
C5666 C5665 1.373 . S
C5667 C5651 1.377 . S
C5667 C5665 1.389 . S
C5667 C5668 1.524 . S
C5668 C5667 1.524 . S
C5668 C5669 1.397 . S
C5668 C5673 1.363 . S
C5669 H5640 0.950 . S
C5669 C5668 1.397 . S
C5669 C5670 1.334 . S
C5670 H5641 0.950 . S
C5670 C5669 1.334 . S
C5670 C5671 1.287 . S
C5671 C5670 1.287 . S
C5671 C5672 1.524 . S
C5671 H5674 0.999 . S
C5672 H5642 0.950 . S
C5672 C5671 1.524 . S
C5672 C5673 1.415 . S
C5673 H5643 0.950 . S
C5673 C5668 1.363 . S
C5673 C5672 1.415 . S
H5674 C5671 0.999 . S
H5675 C5656 0.913 . S
H5676 C5694 0.951 . S
H5677 C5696 0.951 . S
H5678 C5698 0.950 . S
H5679 C5699 0.950 . S
H5680 C5701 0.950 . S
H5681 C5704 0.950 . S
H5682 C5705 0.950 1_545 S
H5683 C5707 0.950 . S
H5684 C5708 0.950 . S
H5685 C5709 0.951 . S
H5686 C5711 0.951 . S
H5687 C5713 0.950 . S
H5688 C5714 0.950 . S
H5689 C5716 0.950 . S
H5690 C5719 0.950 . S
H5691 C5720 0.950 . S
H5692 C5722 0.950 . S
H5693 C5723 0.950 . S
C5694 H5676 0.951 . S
C5694 C5695 1.366 . S
C5694 C5696 1.388 1_545 S
C5695 C5694 1.366 . S
C5695 C5699 1.385 . S
C5696 H5677 0.951 . S
C5696 C5694 1.388 1_565 S
C5696 C5697 1.366 . S
C5697 C5696 1.366 . S
C5697 C5698 1.414 . S
C5697 C5700 1.499 . S
C5698 H5678 0.950 . S
C5698 C5697 1.414 . S
C5698 C5699 1.374 1_565 S
C5699 H5679 0.950 . S
C5699 C5695 1.385 . S
C5699 C5698 1.374 1_545 S
C5700 C5697 1.499 . S
C5700 C5701 1.373 . S
C5700 C5702 1.389 . S
C5701 H5680 0.950 . S
C5701 C5700 1.373 . S
C5701 C5717 1.377 . S
C5702 C5700 1.389 . S
C5702 C5703 1.524 . S
C5702 C5716 1.377 . S
C5703 C5702 1.524 . S
C5703 C5704 1.397 . S
C5703 C5708 1.363 . S
C5704 H5681 0.950 . S
C5704 C5703 1.397 . S
C5704 C5705 1.334 . S
C5705 H5682 0.950 1_565 S
C5705 C5704 1.334 . S
C5705 C5706 1.287 . S
C5706 C5705 1.287 . S
C5706 C5707 1.524 . S
C5706 H5725 0.913 1_565 S
C5707 H5683 0.950 . S
C5707 C5706 1.524 . S
C5707 C5708 1.415 . S
C5708 H5684 0.950 . S
C5708 C5703 1.363 . S
C5708 C5707 1.415 . S
C5709 H5685 0.951 . S
C5709 C5710 1.366 . S
C5709 C5711 1.388 . S
C5710 C5709 1.366 . S
C5710 C5714 1.385 . S
C5711 H5686 0.951 . S
C5711 C5709 1.388 . S
C5711 C5712 1.366 . S
C5712 C5711 1.366 . S
C5712 C5713 1.414 . S
C5712 C5715 1.499 . S
C5713 H5687 0.950 . S
C5713 C5712 1.414 . S
C5713 C5714 1.374 . S
C5714 H5688 0.950 . S
C5714 C5710 1.385 . S
C5714 C5713 1.374 . S
C5715 C5712 1.499 . S
C5715 C5716 1.373 . S
C5715 C5717 1.389 . S
C5716 H5689 0.950 . S
C5716 C5702 1.377 . S
C5716 C5715 1.373 . S
C5717 C5701 1.377 . S
C5717 C5715 1.389 . S
C5717 C5718 1.524 . S
C5718 C5717 1.524 . S
C5718 C5719 1.397 . S
C5718 C5723 1.363 . S
C5719 H5690 0.950 . S
C5719 C5718 1.397 . S
C5719 C5720 1.334 . S
C5720 H5691 0.950 . S
C5720 C5719 1.334 . S
C5720 C5721 1.287 . S
C5721 C5720 1.287 . S
C5721 C5722 1.524 . S
C5721 H5724 0.999 . S
C5722 H5692 0.950 . S
C5722 C5721 1.524 . S
C5722 C5723 1.415 . S
C5723 H5693 0.950 . S
C5723 C5718 1.363 . S
C5723 C5722 1.415 . S
H5724 C5721 0.999 . S
H5725 C5706 0.913 1_545 S
H5726 C5744 0.951 . S
H5727 C5746 0.951 . S
H5728 C5748 0.950 . S
H5729 C5749 0.950 . S
H5730 C5751 0.950 . S
H5731 C5754 0.950 . S
H5732 C5755 0.950 . S
H5733 C5757 0.950 . S
H5734 C5758 0.950 . S
H5735 C5759 0.951 . S
H5736 C5761 0.951 . S
H5737 C5763 0.950 . S
H5738 C5764 0.950 . S
H5739 C5766 0.950 . S
H5740 C5769 0.950 . S
H5741 C5770 0.950 . S
H5742 C5772 0.950 . S
H5743 C5773 0.950 . S
C5744 H5726 0.951 . S
C5744 C5745 1.366 . S
C5744 C5746 1.388 . S
C5745 C5744 1.366 . S
C5745 C5749 1.385 . S
C5746 H5727 0.951 . S
C5746 C5744 1.388 . S
C5746 C5747 1.366 . S
C5747 C5746 1.366 . S
C5747 C5748 1.414 . S
C5747 C5750 1.499 . S
C5748 H5728 0.950 . S
C5748 C5747 1.414 . S
C5748 C5749 1.374 . S
C5749 H5729 0.950 . S
C5749 C5745 1.385 . S
C5749 C5748 1.374 . S
C5750 C5747 1.499 . S
C5750 C5751 1.373 . S
C5750 C5752 1.389 . S
C5751 H5730 0.950 . S
C5751 C5750 1.373 . S
C5751 C5767 1.377 . S
C5752 C5750 1.389 . S
C5752 C5753 1.524 . S
C5752 C5766 1.377 . S
C5753 C5752 1.524 . S
C5753 C5754 1.397 . S
C5753 C5758 1.363 . S
C5754 H5731 0.950 . S
C5754 C5753 1.397 . S
C5754 C5755 1.334 . S
C5755 H5732 0.950 . S
C5755 C5754 1.334 . S
C5755 C5756 1.287 . S
C5756 C5755 1.287 . S
C5756 C5757 1.524 . S
C5756 H5775 0.913 . S
C5757 H5733 0.950 . S
C5757 C5756 1.524 . S
C5757 C5758 1.415 . S
C5758 H5734 0.950 . S
C5758 C5753 1.363 . S
C5758 C5757 1.415 . S
C5759 H5735 0.951 . S
C5759 C5760 1.366 . S
C5759 C5761 1.388 . S
C5760 C5759 1.366 . S
C5760 C5764 1.385 . S
C5761 H5736 0.951 . S
C5761 C5759 1.388 . S
C5761 C5762 1.366 . S
C5762 C5761 1.366 . S
C5762 C5763 1.414 . S
C5762 C5765 1.499 . S
C5763 H5737 0.950 . S
C5763 C5762 1.414 . S
C5763 C5764 1.374 . S
C5764 H5738 0.950 . S
C5764 C5760 1.385 . S
C5764 C5763 1.374 . S
C5765 C5762 1.499 . S
C5765 C5766 1.373 . S
C5765 C5767 1.389 . S
C5766 H5739 0.950 . S
C5766 C5752 1.377 . S
C5766 C5765 1.373 . S
C5767 C5751 1.377 . S
C5767 C5765 1.389 . S
C5767 C5768 1.524 . S
C5768 C5767 1.524 . S
C5768 C5769 1.397 . S
C5768 C5773 1.363 . S
C5769 H5740 0.950 . S
C5769 C5768 1.397 . S
C5769 C5770 1.334 . S
C5770 H5741 0.950 . S
C5770 C5769 1.334 . S
C5770 C5771 1.287 . S
C5771 C5770 1.287 . S
C5771 C5772 1.524 . S
C5771 H5774 0.999 . S
C5772 H5742 0.950 . S
C5772 C5771 1.524 . S
C5772 C5773 1.415 . S
C5773 H5743 0.950 . S
C5773 C5768 1.363 . S
C5773 C5772 1.415 . S
H5774 C5771 0.999 . S
H5775 C5756 0.913 . S
C995 C111 1.051 . S
C1010 C342 1.086 . S
C1045 C64 1.853 . S
C1060 C394 1.817 . S
C1095 C77 1.120 . S
C1110 C426 1.131 . S
C1160 C475 2.311 . S
C1145 C95 2.271 . S
C1195 C25 0.637 . S
C1210 C511 0.644 . S
C1260 C542 0.291 . S
C1245 C36 0.331 . S
C1310 C594 0.463 . S
C1295 C50 0.515 . S
C1345 C11 1.002 . S
C1360 C622 0.952 . S
C1410 C354 1.750 . S
C1395 C237 1.758 . S
C1445 C245 1.434 . S
C1460 C395 1.451 . S
C1510 C425 1.768 . S
C1495 C279 1.730 . S
C1560 C462 0.344 . S
C1545 C175 0.236 . S
C1595 C231 1.620 . S
C1610 C506 1.630 1_655 S
C1660 C554 1.897 . S
C1645 C251 1.794 . S
C1710 C595 1.384 1_556 S
C1695 C273 1.369 . S
C1760 C634 1.417 . S
C1745 C181 1.456 . S
C1810 C355 2.094 . S
C1795 C165 2.097 . S
C1845 C288 1.527 . S
C1860 C665 1.565 . S
C1910 C715 2.324 . S
C1895 C333 2.327 . S
C1960 C742 0.914 . S
C1945 C316 0.914 . S
C1995 C123 2.328 . S
C2010 C635 2.304 . S
C2045 C137 0.730 . S
C2060 C431 0.735 . S
C2095 C330 2.411 . S
C2110 C794 2.409 . S
C2160 C822 0.888 . S
C2145 C302 0.901 . S
C2210 C351 1.149 . S
C2195 C63 1.174 . S
C2260 C825 1.856 . S
C2245 C106 1.875 . S
C2295 C97 1.175 . S
C2310 C435 1.277 . S
C2345 C81 2.443 . S
C2360 C786 2.460 . S
C2410 C502 0.844 . S
C2395 C13 0.835 . S
C2445 C55 0.511 . S
C2460 C711 0.295 . S
C2510 C585 0.395 . S
C2495 C35 0.350 . S
C2560 C871 0.880 . S
C2545 C21 0.891 . S
C2610 C345 1.891 1_556 S
C2595 C147 2.022 . S
C2660 C826 1.501 . S
C2645 C321 1.366 . S
C2695 C119 1.993 . S
C2710 C434 1.892 . S
C2745 C293 0.517 . S
C2760 C791 0.312 . S
C2795 C153 1.732 . S
C2810 C515 1.880 . S
C2860 C705 1.940 . S
C2845 C315 1.976 . S
C2895 C125 1.312 . S
C2910 C586 1.427 . S
C2945 C287 1.581 . S
C2960 C865 1.470 . S
C2995 C193 2.205 . S
C3010 C346 2.207 . S
C3045 C176 1.715 . S
C3060 C674 1.672 . S
C3095 C263 2.318 . S
C3110 C546 2.332 . S
C3145 C246 1.020 . S
C3160 C751 1.049 . S
C3210 C866 2.415 . S
C3195 C277 2.424 . S
C3245 C221 0.822 . S
C3260 C422 0.820 . S
C3310 C465 2.479 . S
C3295 C260 2.521 . S
C3360 C391 0.983 . S
C3345 C204 0.982 . S
C3395 C83 1.050 . S
C3410 C902 1.085 . S
C3460 C834 1.816 . S
C3445 C92 1.853 . S
C3495 C105 1.119 . S
C3510 C946 1.131 . S
C3545 C67 2.271 . S
C3560 C795 2.311 . S
C3595 C53 0.635 . S
C3610 C671 0.643 . S
C3660 C702 0.292 . S
C3645 C8 0.330 . S
C3710 C754 0.466 . S
C3695 C22 0.512 . S
C3760 C862 0.950 . S
C3745 C39 1.001 . S
C3810 C914 1.750 . S
C3795 C265 1.758 . S
C3845 C189 1.434 1_556 S
C3860 C835 1.451 . S
C3910 C945 1.768 . S
C3895 C209 1.731 . S
C3960 C782 0.342 . S
C3945 C217 0.236 . S
C4010 C666 1.631 1_556 S
C3995 C259 1.619 . S
C4045 C195 1.792 . S
C4060 C714 1.897 . S
C4110 C755 1.384 . S
C4095 C203 1.370 . S
C4145 C223 1.457 . S
C4160 C874 1.418 . S
C4210 C915 2.094 . S
C4195 C319 2.097 . S
C4245 C134 1.526 . S
C4260 C505 1.568 . S
C4310 C555 2.324 . S
C4295 C151 2.355 . S
C4360 C582 0.915 . S
C4345 C162 0.913 . S
C4410 C875 2.304 . S
C4395 C305 2.328 . S
C4445 C291 0.726 1_554 S
C4460 C951 0.738 . S
C4510 C474 2.410 . S
C4495 C148 2.410 . S
C4560 C382 0.888 . S
C4545 C120 0.901 . S
C4595 C91 1.173 . S
C4610 C911 1.148 . S
C4660 C385 1.857 . S
C4645 C78 1.876 . S
C4695 C69 1.173 . S
C4710 C955 1.278 . S
C4745 C109 2.443 . S
C4760 C466 2.460 . S
C4795 C41 0.835 . S
C4810 C662 0.843 . S
C4860 C551 0.290 . S
C4845 C27 0.510 . S
C4895 C7 0.348 . S
C4910 C745 0.395 . S
C4945 C49 0.892 . S
C4960 C631 0.880 . S
C5010 C905 1.890 . S
C4995 C329 2.022 . S
C5045 C167 1.365 . S
C5060 C386 1.501 . S
C5110 C954 1.892 1_556 S
C5095 C301 1.993 . S
C5145 C139 0.518 . S
C5160 C471 0.316 . S
C5195 C335 1.732 . S
C5210 C675 1.880 . S
C5260 C545 1.940 . S
C5245 C161 1.976 . S
C5295 C307 1.311 . S
C5310 C746 1.427 1_655 S
C5360 C625 1.464 . S
C5345 C133 1.581 . S
C5410 C906 2.207 . S
C5395 C249 2.205 . S
C5460 C514 1.673 . S
C5445 C218 1.714 . S
C5495 C235 2.318 . S
C5510 C706 2.332 . S
C5560 C591 1.050 . S
C5545 C190 1.018 . S
C5595 C207 2.424 . S
C5610 C626 2.415 . S
C5645 C179 0.823 . S
C5660 C942 0.820 . S
C5710 C785 2.479 . S
C5695 C232 2.521 . S
C5760 C831 0.983 . S
C5745 C274 0.982 . S
