# Generated by pormake.
# Topology ssa, (4,4)-cn, num edge types: 1
# Building blocks:
#     Node 0, Type 0, BuildingBlock: NAWXER_clean_sbu_0, # of connection points: 4
#     Node 1, Type 0, BuildingBlock: NAWXER_clean_sbu_0, # of connection points: 4
#     Node 2, Type 0, BuildingBlock: NAWXER_clean_sbu_0, # of connection points: 4
#     Node 3, Type 0, BuildingBlock: NAWXER_clean_sbu_0, # of connection points: 4
#     Node 4, Type 0, BuildingBlock: NAWXER_clean_sbu_0, # of connection points: 4
#     Node 5, Type 0, BuildingBlock: NAWXER_clean_sbu_0, # of connection points: 4
#     Node 6, Type 1, BuildingBlock: KOZSID_clean_sbu_0, # of connection points: 4
#     Node 7, Type 1, BuildingBlock: KOZSID_clean_sbu_0, # of connection points: 4
#     Node 8, Type 1, BuildingBlock: KOZSID_clean_sbu_0, # of connection points: 4
#     Node 9, Type 1, BuildingBlock: KOZSID_clean_sbu_0, # of connection points: 4
#     Node 10, Type 1, BuildingBlock: KOZSID_clean_sbu_0, # of connection points: 4
#     Node 11, Type 1, BuildingBlock: KOZSID_clean_sbu_0, # of connection points: 4
#     Edge 12, Type (0, 1), BuildingBlock: CIFDUS_clean_linker_0, # of connection points: 2
#     Edge 13, Type (0, 1), BuildingBlock: CIFDUS_clean_linker_0, # of connection points: 2
#     Edge 14, Type (0, 1), BuildingBlock: CIFDUS_clean_linker_0, # of connection points: 2
#     Edge 15, Type (0, 1), BuildingBlock: CIFDUS_clean_linker_0, # of connection points: 2
#     Edge 16, Type (0, 1), BuildingBlock: CIFDUS_clean_linker_0, # of connection points: 2
#     Edge 17, Type (0, 1), BuildingBlock: CIFDUS_clean_linker_0, # of connection points: 2
#     Edge 18, Type (0, 1), BuildingBlock: CIFDUS_clean_linker_0, # of connection points: 2
#     Edge 19, Type (0, 1), BuildingBlock: CIFDUS_clean_linker_0, # of connection points: 2
#     Edge 20, Type (0, 1), BuildingBlock: CIFDUS_clean_linker_0, # of connection points: 2
#     Edge 21, Type (0, 1), BuildingBlock: CIFDUS_clean_linker_0, # of connection points: 2
#     Edge 22, Type (0, 1), BuildingBlock: CIFDUS_clean_linker_0, # of connection points: 2
#     Edge 23, Type (0, 1), BuildingBlock: CIFDUS_clean_linker_0, # of connection points: 2
#     Edge 24, Type (0, 1), BuildingBlock: CIFDUS_clean_linker_0, # of connection points: 2
#     Edge 25, Type (0, 1), BuildingBlock: CIFDUS_clean_linker_0, # of connection points: 2
#     Edge 26, Type (0, 1), BuildingBlock: CIFDUS_clean_linker_0, # of connection points: 2
#     Edge 27, Type (0, 1), BuildingBlock: CIFDUS_clean_linker_0, # of connection points: 2
#     Edge 28, Type (0, 1), BuildingBlock: CIFDUS_clean_linker_0, # of connection points: 2
#     Edge 29, Type (0, 1), BuildingBlock: CIFDUS_clean_linker_0, # of connection points: 2
#     Edge 30, Type (0, 1), BuildingBlock: CIFDUS_clean_linker_0, # of connection points: 2
#     Edge 31, Type (0, 1), BuildingBlock: CIFDUS_clean_linker_0, # of connection points: 2
#     Edge 32, Type (0, 1), BuildingBlock: CIFDUS_clean_linker_0, # of connection points: 2
#     Edge 33, Type (0, 1), BuildingBlock: CIFDUS_clean_linker_0, # of connection points: 2
#     Edge 34, Type (0, 1), BuildingBlock: CIFDUS_clean_linker_0, # of connection points: 2
#     Edge 35, Type (0, 1), BuildingBlock: CIFDUS_clean_linker_0, # of connection points: 2
# Relax obj value: 0.021
# Max RMSD: 0.063
# Mean RMSD: 0.029
data_MOF--net-ssa--node1-NAWXER_clean_sbu_0--node2-KOZSID_clean_sbu_0--edge1-CIFDUS_clean_linker_0
_symmetry_space_group_name_H-M    P1
_symmetry_Int_Tables_number       1
_symmetry_cell_setting            triclinic
loop_
_symmetry_equiv_pos_as_xyz
'x, y, z'
_cell_length_a     46.747526
_cell_length_b     46.704399
_cell_length_c     32.721559
_cell_angle_alpha  93.792754
_cell_angle_beta   93.956602
_cell_angle_gamma 120.09245
loop_
_atom_site_label
_atom_site_type_symbol
_atom_site_fract_x
_atom_site_fract_y
_atom_site_fract_z
_atom_type_partial_charge
C0 C 0.06128 0.57882 0.9901 0.0
C1 C 0.99157 0.46591 0.92112 0.0
O2 O 0.0369 0.5599 0.00939 0.0
Zn3 Zn 0.99611 0.51024 0.00309 0.0
O4 O 0.06475 0.56758 0.95548 0.0
Zn5 Zn 0.02663 0.52284 0.95393 0.0
O6 O 0.98454 0.53002 0.94479 0.0
O7 O 0.95737 0.51562 0.99922 0.0
O8 O 0.01663 0.48958 0.90785 0.0
O9 O 0.98233 0.47096 0.95548 0.0
O10 O 0.007 0.49349 0.05098 0.0
O11 O 0.04233 0.50446 0.0049 0.0
C12 C 0.96002 0.52615 0.964 0.0
C13 C 0.03298 0.49444 0.03983 0.0
C14 C 0.49093 0.03253 0.56687 0.0
C15 C 0.52412 0.9655 0.48012 0.0
O16 O 0.49299 0.00762 0.57672 0.0
Zn17 Zn 0.50651 0.99729 0.52511 0.0
O18 O 0.497 0.04153 0.53074 0.0
Zn19 Zn 0.51237 0.02779 0.47589 0.0
O20 O 0.47486 0.01379 0.43401 0.0
O21 O 0.4634 0.98027 0.48275 0.0
O22 O 0.52384 0.98935 0.46318 0.0
O23 O 0.51588 0.96081 0.51645 0.0
O24 O 0.55403 0.04046 0.52613 0.0
O25 O 0.55511 0.06825 0.47366 0.0
C26 C 0.45431 0.988 0.4495 0.0
C27 C 0.56977 0.06548 0.50612 0.0
C28 C 0.48975 0.44733 0.98644 0.0
C29 C 0.52607 0.55823 0.0607 0.0
O30 O 0.48379 0.46633 0.9653 0.0
Zn31 Zn 0.48994 0.51529 0.97247 0.0
O32 O 0.50227 0.45732 0.02405 0.0
Zn33 Zn 0.50695 0.50154 0.02648 0.0
O34 O 0.45694 0.49059 0.02285 0.0
O35 O 0.4449 0.50741 0.96608 0.0
O36 O 0.52769 0.53461 0.07592 0.0
O37 O 0.51297 0.55352 0.02338 0.0
O38 O 0.51931 0.53584 0.93117 0.0
O39 O 0.54188 0.52302 0.98318 0.0
C40 C 0.43624 0.49413 0.99913 0.0
C41 C 0.54387 0.5346 0.9484 0.0
C42 C 0.04327 0.56381 0.48136 0.0
C43 C 0.97501 0.46348 0.55079 0.0
O44 O 0.04842 0.56043 0.51901 0.0
Zn45 Zn 0.00934 0.51537 0.51939 0.0
O46 O 0.01696 0.54084 0.45915 0.0
Zn47 Zn 0.97466 0.49301 0.46441 0.0
O48 O 0.93649 0.49907 0.45831 0.0
O49 O 0.96896 0.52406 0.51684 0.0
O50 O 0.96377 0.4619 0.51335 0.0
O51 O 1.00094 0.49013 0.56755 0.0
O52 O 0.01929 0.48631 0.47514 0.0
O53 O 0.98036 0.46706 0.42138 0.0
C54 C 0.9428 0.51652 0.49276 0.0
C55 C 0.00671 0.46966 0.43939 0.0
C56 C 0.54907 0.98988 0.07111 0.0
C57 C 0.50573 0.05725 0.01752 0.0
O58 O 0.55512 0.01826 0.08682 0.0
Zn59 Zn 0.52862 0.02478 0.04428 0.0
O60 O 0.53145 0.97729 0.03596 0.0
Zn61 Zn 0.50501 0.98922 0.99104 0.0
O62 O 0.5291 0.99536 0.94251 0.0
O63 O 0.55752 0.03606 0.99282 0.0
O64 O 0.49706 0.03069 0.99346 0.0
O65 O 0.52398 0.06358 0.05139 0.0
O66 O 0.47881 0.98434 0.04976 0.0
O67 O 0.46015 0.95133 0.991 0.0
C68 C 0.55495 0.02321 0.9559 0.0
C69 C 0.45572 0.95794 0.02762 0.0
C70 C 0.53312 0.51312 0.5641 0.0
C71 C 0.42598 0.47934 0.48186 0.0
O72 O 0.51026 0.51811 0.57534 0.0
Zn73 Zn 0.47838 0.49515 0.52579 0.0
O74 O 0.52848 0.49677 0.52882 0.0
Zn75 Zn 0.49065 0.47185 0.47692 0.0
O76 O 0.51347 0.49635 0.43259 0.0
O77 O 0.50436 0.52588 0.48012 0.0
O78 O 0.4437 0.46948 0.46418 0.0
O79 O 0.43606 0.49431 0.51839 0.0
O80 O 0.46442 0.44479 0.53126 0.0
O81 O 0.47984 0.42602 0.47851 0.0
C82 C 0.51608 0.52377 0.44651 0.0
C83 C 0.46673 0.42137 0.51201 0.0
C84 C 0.20026 0.49922 0.18252 0.0
C85 C 0.20753 0.53037 0.17226 0.0
C86 C 0.23638 0.55317 0.19592 0.0
C87 C 0.24505 0.53478 0.21921 0.0
N88 N 0.22368 0.50152 0.21165 0.0
Co89 Co 0.22643 0.46586 0.23988 0.0
N90 N 0.26714 0.49972 0.27756 0.0
C91 C 0.28242 0.53325 0.27864 0.0
C92 C 0.31007 0.55018 0.30711 0.0
C93 C 0.31283 0.52611 0.32529 0.0
C94 C 0.28648 0.49566 0.30689 0.0
N95 N 0.22962 0.43024 0.26766 0.0
C96 C 0.25274 0.43266 0.29746 0.0
C97 C 0.24572 0.40152 0.30738 0.0
C98 C 0.21757 0.37859 0.28259 0.0
C99 C 0.20892 0.39691 0.2591 0.0
N100 N 0.18527 0.43206 0.20288 0.0
C101 C 0.16947 0.39856 0.2024 0.0
C102 C 0.14093 0.38184 0.17523 0.0
C103 C 0.13801 0.4061 0.15766 0.0
C104 C 0.16504 0.43635 0.17523 0.0
N105 N 0.25483 0.46386 0.19875 0.0
C106 C 0.29479 0.4607 0.14021 0.0
C107 C 0.26791 0.43172 0.15064 0.0
C108 C 0.24829 0.43387 0.17952 0.0
C109 C 0.30126 0.49132 0.15921 0.0
C110 C 0.28127 0.49232 0.1884 0.0
N111 N 0.19755 0.46764 0.28023 0.0
C112 C 0.14653 0.43874 0.31123 0.0
C113 C 0.14674 0.46845 0.31993 0.0
C114 C 0.17431 0.49812 0.31223 0.0
C115 C 0.19967 0.4972 0.29321 0.0
C116 C 0.17213 0.43892 0.29159 0.0
H117 H 0.22005 0.52055 0.28787 0.0
H118 H 0.16997 0.41534 0.28439 0.0
H119 H 0.22809 0.41088 0.18588 0.0
H120 H 0.28791 0.51636 0.20244 0.0
C121 C 0.27144 0.54809 0.25082 0.0
C122 C 0.17005 0.46842 0.16508 0.0
C123 C 0.28189 0.46367 0.31701 0.0
C124 C 0.18143 0.38361 0.22889 0.0
H125 H 0.19305 0.53612 0.15067 0.0
H126 H 0.24893 0.58003 0.19701 0.0
H127 H 0.32674 0.57686 0.3132 0.0
H128 H 0.33248 0.53057 0.34882 0.0
H129 H 0.25964 0.39596 0.3301 0.0
H130 H 0.20498 0.35175 0.28168 0.0
H131 H 0.12392 0.35521 0.16947 0.0
H132 H 0.11801 0.40206 0.13493 0.0
H133 H 0.262 0.40745 0.13653 0.0
H134 H 0.32225 0.51441 0.15246 0.0
H135 H 0.12587 0.41525 0.31756 0.0
H136 H 0.17594 0.52185 0.32003 0.0
C137 C 0.72447 0.21463 0.68405 0.0
C138 C 0.6968 0.21795 0.67524 0.0
C139 C 0.69481 0.23522 0.70933 0.0
C140 C 0.72121 0.24153 0.73707 0.0
N141 N 0.74012 0.22987 0.72226 0.0
Co142 Co 0.77932 0.2322 0.7535 0.0
N143 N 0.78321 0.26667 0.79573 0.0
C144 C 0.75941 0.27368 0.80355 0.0
C145 C 0.77035 0.29983 0.83402 0.0
C146 C 0.80308 0.3098 0.84585 0.0
C147 C 0.81014 0.28903 0.82181 0.0
N148 N 0.81849 0.23474 0.78478 0.0
C149 C 0.84239 0.25996 0.81171 0.0
C150 C 0.86632 0.2527 0.82625 0.0
C151 C 0.85693 0.22167 0.80721 0.0
C152 C 0.82789 0.21187 0.78231 0.0
N153 N 0.77565 0.19756 0.71159 0.0
C154 C 0.79079 0.17957 0.71538 0.0
C155 C 0.78489 0.15853 0.68051 0.0
C156 C 0.76426 0.16306 0.65342 0.0
C157 C 0.75831 0.1864 0.67355 0.0
N158 N 0.80927 0.26744 0.72162 0.0
C159 C 0.85652 0.32203 0.68513 0.0
C160 C 0.85894 0.29342 0.68731 0.0
C161 C 0.83526 0.26657 0.70592 0.0
C162 C 0.8293 0.32218 0.70031 0.0
C163 C 0.80583 0.29461 0.71785 0.0
N164 N 0.74944 0.19745 0.78626 0.0
C165 C 0.69631 0.14875 0.79259 0.0
C166 C 0.7034 0.1532 0.83575 0.0
C167 C 0.73498 0.17932 0.85305 0.0
C168 C 0.75735 0.2011 0.82804 0.0
C169 C 0.71965 0.1709 0.76853 0.0
H170 H 0.78074 0.2216 0.84284 0.0
H171 H 0.71304 0.16713 0.73568 0.0
H172 H 0.83853 0.24548 0.70858 0.0
H173 H 0.78535 0.29572 0.72942 0.0
C174 C 0.73057 0.26066 0.77564 0.0
C175 C 0.73146 0.19218 0.65854 0.0
C176 C 0.84212 0.29032 0.82454 0.0
C177 C 0.8137 0.18618 0.74972 0.0
H178 H 0.67905 0.20786 0.64775 0.0
H179 H 0.67631 0.2423 0.71336 0.0
H180 H 0.75688 0.31164 0.84455 0.0
H181 H 0.81989 0.33028 0.86891 0.0
H182 H 0.88842 0.26837 0.84776 0.0
H183 H 0.87079 0.20885 0.80924 0.0
H184 H 0.79478 0.14222 0.67516 0.0
H185 H 0.75351 0.14958 0.62297 0.0
H186 H 0.87957 0.29223 0.67591 0.0
H187 H 0.82612 0.34353 0.69865 0.0
H188 H 0.6724 0.12911 0.77742 0.0
H189 H 0.74238 0.18346 0.88598 0.0
C190 C 0.52207 0.71149 0.21438 0.0
C191 C 0.49242 0.68626 0.19275 0.0
C192 C 0.46764 0.69032 0.20649 0.0
C193 C 0.48352 0.71773 0.2355 0.0
N194 N 0.51703 0.73192 0.24043 0.0
Co195 Co 0.54974 0.77104 0.28099 0.0
N196 N 0.51299 0.77279 0.30727 0.0
C197 C 0.47986 0.75229 0.29647 0.0
C198 C 0.46058 0.75964 0.31965 0.0
C199 C 0.48263 0.78653 0.34684 0.0
C200 C 0.5143 0.79406 0.33874 0.0
N201 N 0.58243 0.81054 0.32112 0.0
C202 C 0.57724 0.82879 0.35062 0.0
C203 C 0.60707 0.85484 0.37083 0.0
C204 C 0.63196 0.85332 0.35316 0.0
C205 C 0.61605 0.82651 0.32333 0.0
N206 N 0.58632 0.76845 0.25538 0.0
C207 C 0.61947 0.78911 0.26543 0.0
C208 C 0.63839 0.77928 0.24513 0.0
C209 C 0.616 0.75013 0.2215 0.0
C210 C 0.58463 0.7439 0.22875 0.0
N211 N 0.55037 0.80205 0.24163 0.0
C212 C 0.55121 0.84679 0.18733 0.0
C213 C 0.58079 0.85101 0.20664 0.0
C214 C 0.57982 0.82834 0.2331 0.0
C215 C 0.52122 0.81987 0.19546 0.0
C216 C 0.52136 0.79817 0.22269 0.0
N217 N 0.54938 0.74014 0.31974 0.0
C218 C 0.57975 0.72191 0.36294 0.0
C219 C 0.5511 0.69094 0.36256 0.0
C220 C 0.52117 0.68559 0.34275 0.0
C221 C 0.52075 0.71067 0.32232 0.0
C222 C 0.57837 0.74601 0.34128 0.0
H223 H 0.49719 0.70537 0.30789 0.0
H224 H 0.60126 0.76877 0.3414 0.0
H225 H 0.60327 0.83274 0.24623 0.0
H226 H 0.49764 0.77864 0.22803 0.0
C227 C 0.46757 0.72761 0.26282 0.0
C228 C 0.55397 0.71345 0.21164 0.0
C229 C 0.54472 0.82263 0.36047 0.0
C230 C 0.63188 0.81548 0.29709 0.0
H231 H 0.48896 0.66614 0.1707 0.0
H232 H 0.4411 0.67405 0.19816 0.0
H233 H 0.43369 0.74741 0.31649 0.0
H234 H 0.47603 0.79952 0.36945 0.0
H235 H 0.61046 0.87313 0.39569 0.0
H236 H 0.65851 0.86987 0.36103 0.0
H237 H 0.66525 0.79104 0.24862 0.0
H238 H 0.62201 0.73459 0.20223 0.0
H239 H 0.60462 0.87145 0.20088 0.0
H240 H 0.49764 0.81588 0.18138 0.0
H241 H 0.6033 0.72708 0.37866 0.0
H242 H 0.49823 0.66213 0.34294 0.0
C243 C 0.73268 0.57687 0.69832 0.0
C244 C 0.736 0.60701 0.68969 0.0
C245 C 0.7654 0.63147 0.71088 0.0
C246 C 0.77837 0.61497 0.73108 0.0
N247 N 0.75917 0.58139 0.72382 0.0
Co248 Co 0.76832 0.54786 0.74794 0.0
N249 N 0.81008 0.58379 0.78209 0.0
C250 C 0.82253 0.61706 0.78392 0.0
C251 C 0.85145 0.63558 0.8101 0.0
C252 C 0.85798 0.61285 0.82589 0.0
C253 C 0.83266 0.58163 0.80823 0.0
N254 N 0.7776 0.51429 0.77173 0.0
C255 C 0.80333 0.51865 0.79858 0.0
C256 C 0.80056 0.4884 0.80569 0.0
C257 C 0.77211 0.46411 0.78274 0.0
C258 C 0.75924 0.48076 0.7628 0.0
N259 N 0.72629 0.51185 0.71444 0.0
C260 C 0.71356 0.47858 0.71312 0.0
C261 C 0.68359 0.4599 0.68905 0.0
C262 C 0.67648 0.48253 0.67435 0.0
C263 C 0.70274 0.51388 0.69024 0.0
N264 N 0.79443 0.54929 0.70197 0.0
C265 C 0.83479 0.55188 0.64063 0.0
C266 C 0.8092 0.52138 0.64989 0.0
C267 C 0.78942 0.52066 0.6804 0.0
C268 C 0.83888 0.58101 0.66128 0.0
C269 C 0.8186 0.57916 0.69146 0.0
N270 N 0.74217 0.5466 0.79352 0.0
C271 C 0.6976 0.51517 0.83403 0.0
C272 C 0.69798 0.54409 0.84876 0.0
C273 C 0.72206 0.57446 0.83762 0.0
C274 C 0.74413 0.57519 0.81068 0.0
C275 C 0.71979 0.51697 0.8065 0.0
H276 H 0.76195 0.59911 0.80339 0.0
H277 H 0.71773 0.49401 0.79524 0.0
H278 H 0.77073 0.49667 0.68653 0.0
H279 H 0.82342 0.6023 0.70626 0.0
C280 C 0.80716 0.63018 0.75946 0.0
C281 C 0.70365 0.54469 0.68208 0.0
C282 C 0.8314 0.55076 0.81714 0.0
C283 C 0.72983 0.46557 0.73582 0.0
H284 H 0.71867 0.61089 0.67059 0.0
H285 H 0.77567 0.65812 0.71226 0.0
H286 H 0.86622 0.66244 0.8166 0.0
H287 H 0.87912 0.6186 0.84776 0.0
H288 H 0.81748 0.48423 0.82514 0.0
H289 H 0.7621 0.43747 0.78064 0.0
H290 H 0.66843 0.43301 0.68348 0.0
H291 H 0.65419 0.47656 0.65464 0.0
H292 H 0.80522 0.49809 0.63484 0.0
H293 H 0.85806 0.60526 0.65466 0.0
H294 H 0.67937 0.49112 0.84234 0.0
H295 H 0.72359 0.59751 0.84927 0.0
C296 C 0.26474 0.838 0.30957 0.0
C297 C 0.25879 0.8617 0.32846 0.0
C298 C 0.22644 0.85215 0.31507 0.0
C299 C 0.21461 0.82341 0.28871 0.0
N300 N 0.2375 0.81431 0.28507 0.0
Co301 Co 0.23232 0.77593 0.24901 0.0
N302 N 0.1949 0.77341 0.2135 0.0
C303 C 0.17743 0.78825 0.22299 0.0
C304 C 0.15389 0.78325 0.19151 0.0
C305 C 0.15631 0.76359 0.16062 0.0
C306 C 0.18102 0.75727 0.17523 0.0
N307 N 0.22682 0.73697 0.21372 0.0
C308 C 0.20877 0.72231 0.17648 0.0
C309 C 0.21052 0.69422 0.16396 0.0
C310 C 0.2299 0.69113 0.19469 0.0
C311 C 0.23892 0.71729 0.22429 0.0
N312 N 0.27021 0.77936 0.28421 0.0
C313 C 0.2779 0.75546 0.28768 0.0
C314 C 0.30687 0.76642 0.31338 0.0
C315 C 0.31794 0.79928 0.32656 0.0
C316 C 0.29503 0.8064 0.30798 0.0
N317 N 0.20094 0.74517 0.2845 0.0
C318 C 0.15855 0.69633 0.3329 0.0
C319 C 0.18838 0.72475 0.35095 0.0
C320 C 0.20895 0.74895 0.32636 0.0
C321 C 0.14989 0.69425 0.29035 0.0
C322 C 0.17138 0.71838 0.26692 0.0
N323 N 0.26381 0.80625 0.2136 0.0
C324 C 0.31093 0.82188 0.17541 0.0
C325 C 0.31111 0.85079 0.16606 0.0
C326 C 0.28675 0.85667 0.18056 0.0
C327 C 0.26314 0.83395 0.20379 0.0
C328 C 0.2874 0.80021 0.19944 0.0
H329 H 0.24462 0.83906 0.21428 0.0
H330 H 0.28871 0.7788 0.20712 0.0
H331 H 0.23185 0.77026 0.3411 0.0
H332 H 0.16421 0.71472 0.23423 0.0
C333 C 0.18663 0.81001 0.2593 0.0
C334 C 0.29619 0.83827 0.31462 0.0
C335 C 0.18612 0.73131 0.15512 0.0
C336 C 0.26179 0.72642 0.25968 0.0
H337 H 0.27611 0.884 0.34872 0.0
H338 H 0.21402 0.86599 0.32126 0.0
H339 H 0.13733 0.79315 0.19079 0.0
H340 H 0.14069 0.75381 0.13132 0.0
H341 H 0.19833 0.67711 0.13611 0.0
H342 H 0.2369 0.67228 0.1951 0.0
H343 H 0.3195 0.75285 0.31985 0.0
H344 H 0.34033 0.81612 0.34705 0.0
H345 H 0.19644 0.72791 0.38356 0.0
H346 H 0.12671 0.67379 0.27467 0.0
H347 H 0.32953 0.81655 0.16531 0.0
H348 H 0.28588 0.87865 0.17391 0.0
C349 C 0.4376 0.26573 0.81463 0.0
C350 C 0.40668 0.26121 0.82141 0.0
C351 C 0.38338 0.23207 0.79865 0.0
C352 C 0.40124 0.22036 0.77944 0.0
N353 N 0.43463 0.24021 0.7886 0.0
Co354 Co 0.46969 0.23212 0.76762 0.0
N355 N 0.43528 0.18885 0.73465 0.0
C356 C 0.40182 0.1749 0.73214 0.0
C357 C 0.38453 0.14502 0.70755 0.0
C358 C 0.40832 0.13942 0.69353 0.0
C359 C 0.43888 0.16634 0.71042 0.0
N360 N 0.50478 0.22408 0.74658 0.0
C361 C 0.50183 0.19824 0.72129 0.0
C362 C 0.53273 0.2026 0.7147 0.0
C363 C 0.55603 0.23216 0.7366 0.0
C364 C 0.53816 0.24414 0.75522 0.0
N365 N 0.50412 0.27521 0.80088 0.0
C366 C 0.53757 0.28915 0.80324 0.0
C367 C 0.55497 0.31884 0.82811 0.0
C368 C 0.53128 0.3243 0.84265 0.0
C369 C 0.5006 0.2974 0.82589 0.0
N370 N 0.46863 0.20772 0.81541 0.0
C371 C 0.46677 0.16761 0.87686 0.0
C372 C 0.4971 0.19309 0.86703 0.0
C373 C 0.49745 0.21278 0.83652 0.0
C374 C 0.43746 0.16392 0.85725 0.0
C375 C 0.43896 0.18417 0.82703 0.0
N376 N 0.47061 0.25637 0.71954 0.0
C377 C 0.50103 0.29791 0.67446 0.0
C378 C 0.4714 0.29149 0.65222 0.0
C379 C 0.44144 0.26675 0.6638 0.0
C380 C 0.44162 0.24969 0.69718 0.0
C381 C 0.50008 0.28022 0.70771 0.0
H382 H 0.41792 0.23134 0.70435 0.0
H383 H 0.52348 0.28653 0.72358 0.0
H384 H 0.5213 0.2313 0.82976 0.0
H385 H 0.41572 0.17968 0.81287 0.0
C386 C 0.38739 0.19049 0.75332 0.0
C387 C 0.46894 0.2946 0.83391 0.0
C388 C 0.47054 0.16921 0.70251 0.0
C389 C 0.55196 0.27383 0.78154 0.0
H390 H 0.40149 0.27726 0.84098 0.0
H391 H 0.35658 0.22065 0.79659 0.0
H392 H 0.3578 0.12915 0.70072 0.0
H393 H 0.40373 0.11791 0.67325 0.0
H394 H 0.53788 0.18607 0.69603 0.0
H395 H 0.58283 0.24349 0.73885 0.0
H396 H 0.58171 0.33472 0.83471 0.0
H397 H 0.53613 0.34583 0.86308 0.0
H398 H 0.52051 0.19687 0.88137 0.0
H399 H 0.41336 0.14494 0.86449 0.0
H400 H 0.52492 0.31712 0.66701 0.0
H401 H 0.4178 0.26049 0.64721 0.0
H402 H 0.08715 0.49032 0.02273 0.0
H403 H 0.0251 0.47896 0.11933 0.0
H404 H 0.06097 0.46821 0.16596 0.0
H405 H 0.11189 0.46473 0.18049 0.0
H406 H 0.17367 0.47646 0.08391 0.0
H407 H 0.13603 0.4842 0.03602 0.0
C408 C 0.08128 0.48531 0.0539 0.0
C409 C 0.05344 0.48564 0.06742 0.0
C410 C 0.10208 0.47924 0.08061 0.0
C411 C 0.0463 0.47891 0.10796 0.0
C412 C 0.06687 0.47281 0.13474 0.0
C413 C 0.11671 0.46859 0.14878 0.0
C414 C 0.14531 0.47 0.13546 0.0
C415 C 0.09504 0.47327 0.12157 0.0
C416 C 0.15166 0.4752 0.09453 0.0
C417 C 0.13024 0.47973 0.0673 0.0
H418 H 0.6057 0.06224 0.57119 0.0
H419 H 0.60975 0.12808 0.48231 0.0
H420 H 0.66224 0.17321 0.52015 0.0
H421 H 0.7045 0.19483 0.5825 0.0
H422 H 0.69481 0.1282 0.67285 0.0
H423 H 0.64681 0.08245 0.63046 0.0
C424 C 0.61801 0.08635 0.55967 0.0
C425 C 0.60363 0.09184 0.52415 0.0
C426 C 0.6471 0.11213 0.58217 0.0
C427 C 0.6203 0.1232 0.50962 0.0
C428 C 0.65016 0.14903 0.53141 0.0
C429 C 0.69186 0.17017 0.59246 0.0
C430 C 0.70321 0.16472 0.63048 0.0
C431 C 0.6634 0.14397 0.56833 0.0
C432 C 0.68665 0.13285 0.64354 0.0
C433 C 0.65918 0.10671 0.61938 0.0
H434 H 0.53255 0.57299 0.14492 0.0
H435 H 0.54559 0.61719 0.03091 0.0
H436 H 0.55854 0.67 0.06795 0.0
H437 H 0.56146 0.70265 0.13186 0.0
H438 H 0.54602 0.65873 0.24569 0.0
H439 H 0.53901 0.6072 0.21014 0.0
C440 C 0.53879 0.59436 0.12838 0.0
C441 C 0.53792 0.59099 0.08512 0.0
C442 C 0.54561 0.62478 0.14991 0.0
C443 C 0.54578 0.61892 0.06412 0.0
C444 C 0.55321 0.64922 0.08528 0.0
C445 C 0.55723 0.68195 0.14883 0.0
C446 C 0.55458 0.68434 0.19119 0.0
C447 C 0.55251 0.65228 0.12799 0.0
C448 C 0.54849 0.65734 0.21303 0.0
C449 C 0.54431 0.62788 0.19267 0.0
H450 H 0.95536 0.56431 0.55371 0.0
H451 H 0.87589 0.48664 0.4675 0.0
H452 H 0.83485 0.49258 0.50415 0.0
H453 H 0.82165 0.5154 0.56574 0.0
H454 H 0.90207 0.59155 0.65262 0.0
H455 H 0.94263 0.59075 0.61052 0.0
C456 C 0.92908 0.54903 0.54249 0.0
C457 C 0.91862 0.52479 0.50832 0.0
C458 C 0.90578 0.55206 0.56415 0.0
C459 C 0.88455 0.50551 0.49376 0.0
C460 C 0.86108 0.50868 0.51495 0.0
C461 C 0.84806 0.53193 0.57521 0.0
C462 C 0.85882 0.55335 0.61236 0.0
C463 C 0.87139 0.53108 0.55103 0.0
C464 C 0.8931 0.57503 0.62401 0.0
C465 C 0.91635 0.57447 0.60008 0.0
H466 H 0.43204 0.97047 0.09639 0.0
H467 H 0.4113 0.89219 1.00077 0.0
H468 H 0.36471 0.85226 0.03467 0.0
H469 H 0.33109 0.83892 0.09335 0.0
H470 H 0.35062 0.91779 0.18724 0.0
H471 H 0.39619 0.958 0.15223 0.0
C472 C 0.4172 0.94472 0.08276 0.0
C473 C 0.42539 0.93441 0.04609 0.0
C474 C 0.39021 0.92189 0.10228 0.0
C475 C 0.40561 0.90094 0.02882 0.0
C476 C 0.37901 0.87801 0.04834 0.0
C477 C 0.34529 0.86495 0.106 0.0
C478 C 0.3375 0.87531 0.14297 0.0
C479 C 0.37129 0.88808 0.08536 0.0
C480 C 0.35591 0.90919 0.15874 0.0
C481 C 0.38209 0.93218 0.13881 0.0
H482 H 0.49796 0.38554 0.51159 0.0
H483 H 0.41731 0.39129 0.56012 0.0
H484 H 0.40996 0.34937 0.60573 0.0
H485 H 0.43058 0.3162 0.63733 0.0
H486 H 0.51301 0.31205 0.59174 0.0
H487 H 0.5159 0.34857 0.53991 0.0
C488 C 0.47821 0.37688 0.53136 0.0
C489 C 0.45807 0.39128 0.53242 0.0
C490 C 0.47498 0.35367 0.5587 0.0
C491 C 0.43303 0.38043 0.55876 0.0
C492 C 0.42897 0.35665 0.58502 0.0
C493 C 0.44875 0.32269 0.61553 0.0
C494 C 0.47162 0.3115 0.61857 0.0
C495 C 0.45045 0.34387 0.58613 0.0
C496 C 0.49541 0.32071 0.59049 0.0
C497 C 0.49695 0.34143 0.56068 0.0
H498 H 0.51761 0.90571 0.49787 0.0
H499 H 0.55004 0.97531 0.40705 0.0
H500 H 0.5606 0.93826 0.3634 0.0
H501 H 0.55813 0.88473 0.34866 0.0
H502 H 0.52552 0.81439 0.43791 0.0
H503 H 0.51768 0.85281 0.48436 0.0
C504 C 0.52729 0.9129 0.46874 0.0
C505 C 0.5328 0.94332 0.45589 0.0
C506 C 0.53316 0.89118 0.44326 0.0
C507 C 0.5453 0.95206 0.41786 0.0
C508 C 0.5514 0.93085 0.39269 0.0
C509 C 0.54964 0.8781 0.3785 0.0
C510 C 0.54234 0.84693 0.39 0.0
C511 C 0.54503 0.90018 0.40476 0.0
C512 C 0.53125 0.83835 0.42859 0.0
C513 C 0.52672 0.86027 0.45502 0.0
H514 H 0.5902 0.51813 0.96799 0.0
H515 H 0.56353 0.56881 0.88085 0.0
H516 H 0.6107 0.5781 0.84363 0.0
H517 H 0.65757 0.56894 0.83413 0.0
H518 H 0.68105 0.5149 0.91913 0.0
H519 H 0.63673 0.50969 0.95926 0.0
C520 C 0.59483 0.5316 0.94114 0.0
C521 C 0.57349 0.54292 0.92726 0.0
C522 C 0.62121 0.53598 0.9195 0.0
C523 C 0.57965 0.5599 0.89212 0.0
C524 C 0.60653 0.56514 0.87085 0.0
C525 C 0.65311 0.55639 0.86175 0.0
C526 C 0.67241 0.5424 0.87399 0.0
C527 C 0.62718 0.55289 0.88401 0.0
C528 C 0.6663 0.52571 0.90929 0.0
C529 C 0.64109 0.5228 0.93215 0.0
H530 H 0.05669 0.56296 0.40265 0.0
H531 H 0.08579 0.629 0.51534 0.0
H532 H 0.12409 0.67605 0.4799 0.0
H533 H 0.14774 0.69857 0.41551 0.0
H534 H 0.12129 0.62962 0.30553 0.0
H535 H 0.08348 0.58405 0.34117 0.0
C536 C 0.07137 0.58768 0.41954 0.0
C537 C 0.06799 0.59253 0.46147 0.0
C538 C 0.09372 0.61429 0.39924 0.0
C539 C 0.0878 0.62458 0.48304 0.0
C540 C 0.10965 0.65149 0.46269 0.0
C541 C 0.13404 0.6736 0.39932 0.0
C542 C 0.137 0.66827 0.35705 0.0
C543 C 0.11268 0.64672 0.42058 0.0
C544 C 0.11886 0.63531 0.33725 0.0
C545 C 0.09732 0.60888 0.35781 0.0
H546 H 0.45705 0.04547 0.95794 0.0
H547 H 0.53618 0.12404 0.04366 0.0
H548 H 0.52913 0.16561 0.00959 0.0
H549 H 0.50467 0.17968 0.95037 0.0
H550 H 0.42669 0.10032 0.86412 0.0
H551 H 0.4289 0.05902 0.90374 0.0
C552 C 0.47245 0.07166 0.9696 0.0
C553 C 0.49738 0.08172 0.00288 0.0
C554 C 0.46865 0.0953 0.94952 0.0
C555 C 0.51681 0.11567 0.01803 0.0
C556 C 0.51297 0.13946 0.99835 0.0
C557 C 0.48801 0.15334 0.94053 0.0
C558 C 0.46571 0.14311 0.90422 0.0
C559 C 0.48968 0.1296 0.96323 0.0
C560 C 0.44389 0.1089 0.89212 0.0
C561 C 0.44528 0.08522 0.9146 0.0
H562 H 0.40274 0.45483 0.40117 0.0
H563 H 0.38123 0.49622 0.50852 0.0
H564 H 0.33419 0.49407 0.46757 0.0
H565 H 0.30022 0.48234 0.40011 0.0
H566 H 0.32326 0.44254 0.29309 0.0
H567 H 0.36847 0.442 0.33494 0.0
C568 C 0.38765 0.46313 0.41586 0.0
C569 C 0.39566 0.47564 0.45807 0.0
C570 C 0.36091 0.46224 0.39199 0.0
C571 C 0.37574 0.48641 0.47623 0.0
C572 C 0.34884 0.48528 0.45275 0.0
C573 C 0.31518 0.47349 0.38618 0.0
C574 C 0.3086 0.46258 0.3436 0.0
C575 C 0.34138 0.47358 0.41048 0.0
C576 C 0.32796 0.45104 0.32578 0.0
C577 C 0.35379 0.45079 0.34969 0.0
H578 H 0.95135 0.4081 0.94987 0.0
H579 H 0.98493 0.45052 0.83728 0.0
H580 H 0.94238 0.39819 0.79676 0.0
H581 H 0.89164 0.34242 0.79395 0.0
H582 H 0.85816 0.30156 0.90716 0.0
H583 H 0.90471 0.35142 0.94726 0.0
C584 C 0.94967 0.40578 0.91644 0.0
C585 C 0.97089 0.43315 0.89649 0.0
C586 C 0.92495 0.37609 0.89366 0.0
C587 C 0.96884 0.4297 0.85326 0.0
C588 C 0.94436 0.39992 0.83015 0.0
C589 C 0.89502 0.34454 0.82739 0.0
C590 C 0.8718 0.31901 0.84803 0.0
C591 C 0.92168 0.37332 0.85006 0.0
C592 C 0.87595 0.32136 0.89114 0.0
C593 C 0.90243 0.34971 0.91387 0.0
H594 H 0.96011 0.55099 0.8908 0.0
H595 H 0.90153 0.51467 0.9918 0.0
H596 H 0.8574 0.52079 0.95646 0.0
H597 H 0.83401 0.53377 0.89488 0.0
H598 H 0.89245 0.56946 0.79404 0.0
H599 H 0.93813 0.56656 0.83126 0.0
C600 C 0.93782 0.5446 0.90531 0.0
C601 C 0.93422 0.53222 0.94395 0.0
C602 C 0.91244 0.54806 0.88471 0.0
C603 C 0.90509 0.52423 0.96215 0.0
C604 C 0.87975 0.52766 0.94189 0.0
C605 C 0.85697 0.54122 0.88145 0.0
C606 C 0.86006 0.55182 0.84189 0.0
C607 C 0.88296 0.53917 0.90294 0.0
C608 C 0.88972 0.56135 0.82453 0.0
C609 C 0.91571 0.55955 0.84573 0.0
H610 H 0.43646 0.96765 0.36739 0.0
H611 H 0.39802 0.9545 0.48506 0.0
H612 H 0.34508 0.90701 0.45336 0.0
H613 H 0.31155 0.86624 0.39355 0.0
H614 H 0.34963 0.87752 0.27598 0.0
H615 H 0.40125 0.92829 0.30612 0.0
C616 C 0.4161 0.95487 0.38568 0.0
C617 C 0.42084 0.96455 0.42831 0.0
C618 C 0.3861 0.92681 0.36747 0.0
C619 C 0.3947 0.94744 0.45209 0.0
C620 C 0.36458 0.92017 0.4341 0.0
C621 C 0.33115 0.88013 0.37466 0.0
C622 C 0.32717 0.86868 0.33286 0.0
C623 C 0.36035 0.90912 0.39211 0.0
C624 C 0.35255 0.88623 0.30837 0.0
C625 C 0.38184 0.91522 0.32552 0.0
H626 H 0.46629 0.422 0.90616 0.0
H627 H 0.50206 0.40108 0.01892 0.0
H628 H 0.49777 0.35139 0.98215 0.0
H629 H 0.48604 0.315 0.91675 0.0
H630 H 0.45169 0.33744 0.8045 0.0
H631 H 0.45317 0.38534 0.84217 0.0
C632 C 0.47293 0.4065 0.92295 0.0
C633 C 0.48452 0.41545 0.96542 0.0
C634 C 0.47079 0.37825 0.90152 0.0
C635 C 0.49301 0.3949 0.98635 0.0
C636 C 0.49066 0.36649 0.96526 0.0
C637 C 0.47876 0.3304 0.90079 0.0
C638 C 0.46877 0.32286 0.85797 0.0
C639 C 0.47996 0.35812 0.92272 0.0
C640 C 0.45938 0.34284 0.83744 0.0
C641 C 0.46028 0.3702 0.85897 0.0
H642 H 0.02711 0.48543 0.36554 0.0
H643 H 0.03236 0.43254 0.46603 0.0
H644 H 0.0752 0.42523 0.4359 0.0
H645 H 0.11502 0.43912 0.38468 0.0
H646 H 0.11346 0.49719 0.28836 0.0
H647 H 0.06563 0.49781 0.31328 0.0
C648 C 0.03701 0.47144 0.38 0.0
C649 C 0.0264 0.45886 0.41724 0.0
C650 C 0.06282 0.46911 0.36381 0.0
C651 C 0.04001 0.44185 0.43685 0.0
C652 C 0.06465 0.43801 0.41989 0.0
C653 C 0.10393 0.45163 0.36907 0.0
C654 C 0.1177 0.46831 0.33508 0.0
C655 C 0.07691 0.45239 0.38403 0.0
C656 C 0.10344 0.48465 0.31506 0.0
C657 C 0.07601 0.48479 0.32906 0.0
H658 H 0.60536 0.08775 0.97051 0.0
H659 H 0.56342 1.00139 0.87981 0.0
H660 H 0.60563 0.03337 0.83498 0.0
H661 H 0.65454 0.08634 0.82135 0.0
H662 H 0.69347 0.17295 0.91153 0.0
H663 H 0.65281 0.14026 0.95656 0.0
C664 C 0.60547 0.07572 0.94106 0.0
C665 C 0.58121 0.04202 0.92883 0.0
C666 C 0.6295 0.09438 0.91519 0.0
C667 C 0.58174 0.0272 0.89022 0.0
C668 C 0.60591 0.04554 0.8645 0.0
C669 C 0.65408 0.09821 0.8507 0.0
C670 C 0.67777 0.13226 0.86289 0.0
C671 C 0.6299 0.07927 0.87656 0.0
C672 C 0.6765 0.14677 0.90139 0.0
C673 C 0.65291 0.12811 0.92722 0.0
H674 H 0.54899 0.58817 0.47787 0.0
H675 H 0.51146 0.52384 0.36281 0.0
H676 H 0.52106 0.57121 0.32562 0.0
H677 H 0.53354 0.62943 0.32759 0.0
H678 H 0.57151 0.69338 0.44292 0.0
H679 H 0.56831 0.64758 0.47859 0.0
C680 C 0.54358 0.58472 0.44452 0.0
C681 C 0.52926 0.55269 0.42302 0.0
C682 C 0.54871 0.61181 0.42368 0.0
C683 C 0.52265 0.54839 0.37988 0.0
C684 C 0.52778 0.57536 0.35874 0.0
C685 C 0.54134 0.63322 0.36047 0.0
C686 C 0.5522 0.66429 0.38297 0.0
C687 C 0.53966 0.60689 0.38057 0.0
C688 C 0.5629 0.66946 0.42529 0.0
C689 C 0.56104 0.64335 0.44559 0.0
H690 H 0.48115 0.08393 0.55268 0.0
H691 H 0.48516 0.0272 0.64953 0.0
H692 H 0.47812 0.06372 0.69989 0.0
H693 H 0.47339 0.11376 0.71703 0.0
H694 H 0.46965 0.16998 0.61982 0.0
H695 H 0.47402 0.1318 0.56897 0.0
C696 C 0.48027 0.07931 0.58475 0.0
C697 C 0.48381 0.05278 0.59718 0.0
C698 C 0.47641 0.10051 0.61354 0.0
C699 C 0.48246 0.0473 0.63894 0.0
C700 C 0.47855 0.06829 0.66784 0.0
C701 C 0.47328 0.11731 0.68461 0.0
C702 C 0.47119 0.14447 0.6719 0.0
C703 C 0.47589 0.09523 0.6556 0.0
C704 C 0.47116 0.14913 0.63002 0.0
C705 C 0.47371 0.12736 0.60107 0.0
H706 H 0.40293 0.44848 0.04992 0.0
H707 H 0.39807 0.52198 0.98139 0.0
H708 H 0.35166 0.5165 0.01753 0.0
H709 H 0.31704 0.49536 0.07448 0.0
H710 H 0.32283 0.42209 0.14263 0.0
H711 H 0.36433 0.42283 0.10068 0.0
C712 C 0.39132 0.46288 0.04239 0.0
C713 C 0.40405 0.48586 0.01348 0.0
C714 C 0.36515 0.45993 0.0636 0.0
C715 C 0.38859 0.50407 0.00352 0.0
C716 C 0.3623 0.50117 0.02446 0.0
C717 C 0.32726 0.47941 0.07979 0.0
C718 C 0.31724 0.45895 0.11176 0.0
C719 C 0.35115 0.47998 0.05552 0.0
C720 C 0.33016 0.43797 0.11809 0.0
C721 C 0.35395 0.43847 0.09425 0.0
H722 H 0.96019 0.46206 0.63057 0.0
H723 H 0.94776 0.39874 0.52078 0.0
H724 H 0.91199 0.34929 0.55341 0.0
H725 H 0.88094 0.32389 0.61141 0.0
H726 H 0.88959 0.38698 0.7194 0.0
H727 H 0.92976 0.43633 0.68956 0.0
C728 C 0.95009 0.43739 0.61419 0.0
C729 C 0.95686 0.43406 0.57343 0.0
C730 C 0.92841 0.40893 0.6327 0.0
C731 C 0.943 0.40195 0.55221 0.0
C732 C 0.92244 0.37364 0.57081 0.0
C733 C 0.89191 0.34843 0.62853 0.0
C734 C 0.8822 0.35174 0.66751 0.0
C735 C 0.91445 0.37679 0.61076 0.0
C736 C 0.89639 0.38378 0.68915 0.0
C737 C 0.91945 0.41201 0.67215 0.0
H738 H 0.52778 0.92461 0.05212 0.0
H739 H 0.58979 0.00819 0.14435 0.0
H740 H 0.5981 0.97138 0.18737 0.0
H741 H 0.58377 0.91446 0.20102 0.0
H742 H 0.51868 0.83118 0.11003 0.0
H743 H 0.51543 0.86892 0.06419 0.0
C744 C 0.54355 0.93501 0.08135 0.0
C745 C 0.55813 0.96915 0.09499 0.0
C746 C 0.54732 0.91363 0.10632 0.0
C747 C 0.57827 0.98201 0.13311 0.0
C748 C 0.58291 0.96094 0.15779 0.0
C749 C 0.56926 0.90475 0.17091 0.0
C750 C 0.55136 0.87016 0.15885 0.0
C751 C 0.56696 0.92658 0.14507 0.0
C752 C 0.53236 0.85771 0.12002 0.0
C753 C 0.53059 0.87926 0.09381 0.0
H754 H 0.58952 0.51603 0.54294 0.0
H755 H 0.54751 0.5358 0.64695 0.0
H756 H 0.59766 0.54955 0.6925 0.0
H757 H 0.65221 0.55222 0.70337 0.0
H758 H 0.69321 0.53212 0.59883 0.0
H759 H 0.64484 0.52238 0.55276 0.0
C760 C 0.59131 0.52353 0.57554 0.0
C761 C 0.56456 0.52456 0.5915 0.0
C762 C 0.6201 0.53128 0.60145 0.0
C763 C 0.56764 0.53474 0.63379 0.0
C764 C 0.59629 0.5425 0.65988 0.0
C765 C 0.65058 0.54619 0.6704 0.0
C766 C 0.67602 0.54284 0.65425 0.0
C767 C 0.62249 0.54036 0.64417 0.0
C768 C 0.67384 0.53486 0.61165 0.0
C769 C 0.64618 0.52918 0.58545 0.0
H770 H 0.05727 0.60827 0.06106 0.0
H771 H 0.1222 0.6239 0.9668 0.0
H772 H 0.16637 0.6748 0.00835 0.0
H773 H 0.18792 0.71188 0.075 0.0
H774 H 0.12281 0.69144 0.16989 0.0
H775 H 0.07725 0.64527 0.12457 0.0
C776 C 0.08094 0.62287 0.0492 0.0
C777 C 0.08651 0.61212 0.01104 0.0
C778 C 0.10627 0.65116 0.07363 0.0
C779 C 0.11727 0.63162 0.99614 0.0
C780 C 0.14258 0.66059 0.02 0.0
C781 C 0.16356 0.69744 0.08523 0.0
C782 C 0.15843 0.70511 0.12534 0.0
C783 C 0.13761 0.67014 0.0593 0.0
C784 C 0.12706 0.68614 0.13888 0.0
C785 C 0.10109 0.65971 0.11309 0.0
loop_
_geom_bond_atom_site_label_1
_geom_bond_atom_site_label_2
_geom_bond_distance
_geom_bond_site_symmetry_2
_ccdc_geom_bond_type
C0 O2 1.247 . S
C0 O4 1.258 . S
C1 O8 1.247 . S
C1 O9 1.258 . S
O2 C0 1.247 . S
O2 Zn3 2.028 1_455 S
Zn3 O2 2.028 1_655 S
Zn3 O7 2.035 1_554 S
Zn3 O9 2.035 1_554 S
Zn3 O10 2.028 1_655 S
O4 C0 1.258 . S
O4 Zn5 2.035 1_554 S
Zn5 O4 2.035 1_556 S
Zn5 O6 2.028 1_455 S
Zn5 O8 2.028 1_455 S
Zn5 O11 2.035 1_556 S
O6 Zn5 2.028 1_655 S
O6 C12 1.247 . S
O7 Zn3 2.035 1_556 S
O7 C12 1.258 . S
O8 C1 1.247 . S
O8 Zn5 2.028 1_655 S
O9 C1 1.258 . S
O9 Zn3 2.035 1_556 S
O10 Zn3 2.028 1_455 S
O10 C13 1.247 . S
O11 Zn5 2.035 1_554 S
O11 C13 1.258 . S
C12 O6 1.247 . S
C12 O7 1.258 . S
C13 O10 1.247 . S
C13 O11 1.258 . S
C14 O16 1.247 . S
C14 O18 1.258 . S
C15 O22 1.247 . S
C15 O23 1.258 . S
O16 C14 1.247 . S
O16 Zn17 2.028 1_545 S
Zn17 O16 2.028 1_565 S
Zn17 O21 2.035 . S
Zn17 O23 2.035 . S
Zn17 O24 2.028 1_565 S
O18 C14 1.258 . S
O18 Zn19 2.035 . S
Zn19 O18 2.035 . S
Zn19 O20 2.028 1_545 S
Zn19 O22 2.028 1_545 S
Zn19 O25 2.035 . S
O20 Zn19 2.028 1_565 S
O20 C26 1.247 . S
O21 Zn17 2.035 . S
O21 C26 1.258 . S
O22 C15 1.247 . S
O22 Zn19 2.028 1_565 S
O23 C15 1.258 . S
O23 Zn17 2.035 . S
O24 Zn17 2.028 1_545 S
O24 C27 1.247 . S
O25 Zn19 2.035 . S
O25 C27 1.258 . S
C26 O20 1.247 . S
C26 O21 1.258 . S
C27 O24 1.247 . S
C27 O25 1.258 . S
C28 O30 1.247 . S
C28 O32 1.258 . S
C29 O36 1.247 . S
C29 O37 1.258 . S
O30 C28 1.247 . S
O30 Zn31 2.028 . S
Zn31 O30 2.028 . S
Zn31 O35 2.035 1_556 S
Zn31 O37 2.035 1_556 S
Zn31 O38 2.028 . S
O32 C28 1.258 . S
O32 Zn33 2.035 1_556 S
Zn33 O32 2.035 1_554 S
Zn33 O34 2.028 . S
Zn33 O36 2.028 . S
Zn33 O39 2.035 1_554 S
O34 Zn33 2.028 . S
O34 C40 1.247 . S
O35 Zn31 2.035 1_554 S
O35 C40 1.258 . S
O36 C29 1.247 . S
O36 Zn33 2.028 . S
O37 C29 1.258 . S
O37 Zn31 2.035 1_554 S
O38 Zn31 2.028 . S
O38 C41 1.247 . S
O39 Zn33 2.035 1_556 S
O39 C41 1.258 . S
C40 O34 1.247 . S
C40 O35 1.258 . S
C41 O38 1.247 . S
C41 O39 1.258 . S
C42 O44 1.247 . S
C42 O46 1.258 . S
C43 O50 1.247 . S
C43 O51 1.258 . S
O44 C42 1.247 . S
O44 Zn45 2.028 . S
Zn45 O44 2.028 . S
Zn45 O49 2.035 1_455 S
Zn45 O51 2.035 1_455 S
Zn45 O52 2.028 . S
O46 C42 1.258 . S
O46 Zn47 2.035 1_455 S
Zn47 O46 2.035 1_655 S
Zn47 O48 2.028 . S
Zn47 O50 2.028 . S
Zn47 O53 2.035 1_655 S
O48 Zn47 2.028 . S
O48 C54 1.247 . S
O49 Zn45 2.035 1_655 S
O49 C54 1.258 . S
O50 C43 1.247 . S
O50 Zn47 2.028 . S
O51 C43 1.258 . S
O51 Zn45 2.035 1_655 S
O52 Zn45 2.028 . S
O52 C55 1.247 . S
O53 Zn47 2.035 1_455 S
O53 C55 1.258 . S
C54 O48 1.247 . S
C54 O49 1.258 . S
C55 O52 1.247 . S
C55 O53 1.258 . S
C56 O58 1.273 . S
C56 O60 1.258 . S
C57 O64 1.247 . S
C57 O65 1.258 . S
O58 C56 1.273 . S
O58 Zn59 2.001 1_565 S
Zn59 O58 2.001 1_545 S
Zn59 O63 2.035 1_554 S
Zn59 O65 2.035 1_554 S
Zn59 O66 2.029 . S
O60 C56 1.258 . S
O60 Zn61 2.035 1_554 S
Zn61 O60 2.035 1_556 S
Zn61 O62 2.028 1_565 S
Zn61 O64 2.028 1_565 S
Zn61 O67 2.035 1_556 S
O62 Zn61 2.028 1_545 S
O62 C68 1.247 . S
O63 Zn59 2.035 1_556 S
O63 C68 1.258 . S
O64 C57 1.247 . S
O64 Zn61 2.028 1_545 S
O65 C57 1.258 . S
O65 Zn59 2.035 1_556 S
O66 Zn59 2.029 . S
O66 C69 1.245 1_545 S
O67 Zn61 2.035 1_554 S
O67 C69 1.258 . S
C68 O62 1.247 . S
C68 O63 1.258 . S
C69 O66 1.245 1_565 S
C69 O67 1.258 . S
C70 O72 1.247 . S
C70 O74 1.258 . S
C71 O78 1.247 . S
C71 O79 1.258 . S
O72 C70 1.247 . S
O72 Zn73 2.028 . S
Zn73 O72 2.028 . S
Zn73 O77 2.035 . S
Zn73 O79 2.035 . S
Zn73 O80 2.028 . S
O74 C70 1.258 . S
O74 Zn75 2.035 . S
Zn75 O74 2.035 . S
Zn75 O76 2.028 . S
Zn75 O78 2.028 . S
Zn75 O81 2.035 . S
O76 Zn75 2.028 . S
O76 C82 1.247 . S
O77 Zn73 2.035 . S
O77 C82 1.258 . S
O78 C71 1.247 . S
O78 Zn75 2.028 . S
O79 C71 1.258 . S
O79 Zn73 2.035 . S
O80 Zn73 2.028 . S
O80 C83 1.247 . S
O81 Zn75 2.035 . S
O81 C83 1.258 . S
C82 O76 1.247 . S
C82 O77 1.258 . S
C83 O80 1.247 . S
C83 O81 1.258 . S
C84 C85 1.443 . S
C84 N88 1.376 . S
C84 C122 1.389 . S
C85 C84 1.443 . S
C85 C86 1.340 . S
C85 H125 0.951 . S
C86 C85 1.340 . S
C86 C87 1.439 . S
C86 H126 0.950 . S
C87 C86 1.439 . S
C87 N88 1.374 . S
C87 C121 1.395 . S
N88 C84 1.376 . S
N88 C87 1.374 . S
N88 Co89 2.008 . S
Co89 N88 2.008 . S
Co89 N90 1.995 . S
Co89 N95 2.008 . S
Co89 N100 1.995 . S
Co89 N105 2.282 . S
Co89 N111 2.282 . S
N90 Co89 1.995 . S
N90 C91 1.376 . S
N90 C94 1.383 . S
C91 N90 1.376 . S
C91 C92 1.446 . S
C91 C121 1.391 . S
C92 C91 1.446 . S
C92 C93 1.339 . S
C92 H127 0.949 . S
C93 C92 1.339 . S
C93 C94 1.439 . S
C93 H128 0.950 . S
C94 N90 1.383 . S
C94 C93 1.439 . S
C94 C123 1.392 . S
N95 Co89 2.008 . S
N95 C96 1.376 . S
N95 C99 1.374 . S
C96 N95 1.376 . S
C96 C97 1.443 . S
C96 C123 1.389 . S
C97 C96 1.443 . S
C97 C98 1.340 . S
C97 H129 0.951 . S
C98 C97 1.340 . S
C98 C99 1.439 . S
C98 H130 0.950 . S
C99 N95 1.374 . S
C99 C98 1.439 . S
C99 C124 1.395 . S
N100 Co89 1.995 . S
N100 C101 1.376 . S
N100 C104 1.383 . S
C101 N100 1.376 . S
C101 C102 1.446 . S
C101 C124 1.391 . S
C102 C101 1.446 . S
C102 C103 1.339 . S
C102 H131 0.949 . S
C103 C102 1.339 . S
C103 C104 1.439 . S
C103 H132 0.950 . S
C104 N100 1.383 . S
C104 C103 1.439 . S
C104 C122 1.392 . S
N105 Co89 2.282 . S
N105 C108 1.332 . S
N105 C110 1.332 . S
C106 C107 1.386 . S
C106 C109 1.388 . S
C107 C106 1.386 . S
C107 C108 1.382 . S
C107 H133 0.950 . S
C108 N105 1.332 . S
C108 C107 1.382 . S
C108 H119 0.952 . S
C109 C106 1.388 . S
C109 C110 1.382 . S
C109 H134 0.950 . S
C110 N105 1.332 . S
C110 C109 1.382 . S
C110 H120 0.948 . S
N111 Co89 2.282 . S
N111 C115 1.332 . S
N111 C116 1.332 . S
C112 C113 1.388 . S
C112 C116 1.382 . S
C112 H135 0.950 . S
C113 C112 1.388 . S
C113 C114 1.386 . S
C114 C113 1.386 . S
C114 C115 1.382 . S
C114 H136 0.950 . S
C115 N111 1.332 . S
C115 C114 1.382 . S
C115 H117 0.952 . S
C116 N111 1.332 . S
C116 C112 1.382 . S
C116 H118 0.948 . S
H117 C115 0.952 . S
H118 C116 0.948 . S
H119 C108 0.952 . S
H120 C110 0.948 . S
C121 C87 1.395 . S
C121 C91 1.391 . S
C122 C84 1.389 . S
C122 C104 1.392 . S
C123 C94 1.392 . S
C123 C96 1.389 . S
C124 C99 1.395 . S
C124 C101 1.391 . S
H125 C85 0.951 . S
H126 C86 0.950 . S
H127 C92 0.949 . S
H128 C93 0.950 . S
H129 C97 0.951 . S
H130 C98 0.950 . S
H131 C102 0.949 . S
H132 C103 0.950 . S
H133 C107 0.950 . S
H134 C109 0.950 . S
H135 C112 0.950 . S
H136 C114 0.950 . S
C137 C138 1.443 . S
C137 N141 1.376 . S
C137 C175 1.389 . S
C138 C137 1.443 . S
C138 C139 1.340 . S
C138 H178 0.951 . S
C139 C138 1.340 . S
C139 C140 1.439 . S
C139 H179 0.950 . S
C140 C139 1.439 . S
C140 N141 1.374 . S
C140 C174 1.395 . S
N141 C137 1.376 . S
N141 C140 1.374 . S
N141 Co142 2.008 . S
Co142 N141 2.008 . S
Co142 N143 1.995 . S
Co142 N148 2.008 . S
Co142 N153 1.995 . S
Co142 N158 2.282 . S
Co142 N164 2.282 . S
N143 Co142 1.995 . S
N143 C144 1.376 . S
N143 C147 1.383 . S
C144 N143 1.376 . S
C144 C145 1.446 . S
C144 C174 1.391 . S
C145 C144 1.446 . S
C145 C146 1.339 . S
C145 H180 0.949 . S
C146 C145 1.339 . S
C146 C147 1.439 . S
C146 H181 0.950 . S
C147 N143 1.383 . S
C147 C146 1.439 . S
C147 C176 1.392 . S
N148 Co142 2.008 . S
N148 C149 1.376 . S
N148 C152 1.374 . S
C149 N148 1.376 . S
C149 C150 1.443 . S
C149 C176 1.389 . S
C150 C149 1.443 . S
C150 C151 1.340 . S
C150 H182 0.951 . S
C151 C150 1.340 . S
C151 C152 1.439 . S
C151 H183 0.950 . S
C152 N148 1.374 . S
C152 C151 1.439 . S
C152 C177 1.395 . S
N153 Co142 1.995 . S
N153 C154 1.376 . S
N153 C157 1.383 . S
C154 N153 1.376 . S
C154 C155 1.446 . S
C154 C177 1.391 . S
C155 C154 1.446 . S
C155 C156 1.339 . S
C155 H184 0.949 . S
C156 C155 1.339 . S
C156 C157 1.439 . S
C156 H185 0.950 . S
C157 N153 1.383 . S
C157 C156 1.439 . S
C157 C175 1.392 . S
N158 Co142 2.282 . S
N158 C161 1.332 . S
N158 C163 1.332 . S
C159 C160 1.386 . S
C159 C162 1.388 . S
C160 C159 1.386 . S
C160 C161 1.382 . S
C160 H186 0.950 . S
C161 N158 1.332 . S
C161 C160 1.382 . S
C161 H172 0.952 . S
C162 C159 1.388 . S
C162 C163 1.382 . S
C162 H187 0.950 . S
C163 N158 1.332 . S
C163 C162 1.382 . S
C163 H173 0.948 . S
N164 Co142 2.282 . S
N164 C168 1.332 . S
N164 C169 1.332 . S
C165 C166 1.388 . S
C165 C169 1.382 . S
C165 H188 0.950 . S
C166 C165 1.388 . S
C166 C167 1.386 . S
C167 C166 1.386 . S
C167 C168 1.382 . S
C167 H189 0.950 . S
C168 N164 1.332 . S
C168 C167 1.382 . S
C168 H170 0.952 . S
C169 N164 1.332 . S
C169 C165 1.382 . S
C169 H171 0.948 . S
H170 C168 0.952 . S
H171 C169 0.948 . S
H172 C161 0.952 . S
H173 C163 0.948 . S
C174 C140 1.395 . S
C174 C144 1.391 . S
C175 C137 1.389 . S
C175 C157 1.392 . S
C176 C147 1.392 . S
C176 C149 1.389 . S
C177 C152 1.395 . S
C177 C154 1.391 . S
H178 C138 0.951 . S
H179 C139 0.950 . S
H180 C145 0.949 . S
H181 C146 0.950 . S
H182 C150 0.951 . S
H183 C151 0.950 . S
H184 C155 0.949 . S
H185 C156 0.950 . S
H186 C160 0.950 . S
H187 C162 0.950 . S
H188 C165 0.950 . S
H189 C167 0.950 . S
C190 C191 1.443 . S
C190 N194 1.376 . S
C190 C228 1.389 . S
C191 C190 1.443 . S
C191 C192 1.340 . S
C191 H231 0.951 . S
C192 C191 1.340 . S
C192 C193 1.439 . S
C192 H232 0.950 . S
C193 C192 1.439 . S
C193 N194 1.374 . S
C193 C227 1.395 . S
N194 C190 1.376 . S
N194 C193 1.374 . S
N194 Co195 2.008 . S
Co195 N194 2.008 . S
Co195 N196 1.995 . S
Co195 N201 2.008 . S
Co195 N206 1.995 . S
Co195 N211 2.282 . S
Co195 N217 2.282 . S
N196 Co195 1.995 . S
N196 C197 1.376 . S
N196 C200 1.383 . S
C197 N196 1.376 . S
C197 C198 1.446 . S
C197 C227 1.391 . S
C198 C197 1.446 . S
C198 C199 1.339 . S
C198 H233 0.949 . S
C199 C198 1.339 . S
C199 C200 1.439 . S
C199 H234 0.950 . S
C200 N196 1.383 . S
C200 C199 1.439 . S
C200 C229 1.392 . S
N201 Co195 2.008 . S
N201 C202 1.376 . S
N201 C205 1.374 . S
C202 N201 1.376 . S
C202 C203 1.443 . S
C202 C229 1.389 . S
C203 C202 1.443 . S
C203 C204 1.340 . S
C203 H235 0.951 . S
C204 C203 1.340 . S
C204 C205 1.439 . S
C204 H236 0.950 . S
C205 N201 1.374 . S
C205 C204 1.439 . S
C205 C230 1.395 . S
N206 Co195 1.995 . S
N206 C207 1.376 . S
N206 C210 1.383 . S
C207 N206 1.376 . S
C207 C208 1.446 . S
C207 C230 1.391 . S
C208 C207 1.446 . S
C208 C209 1.339 . S
C208 H237 0.949 . S
C209 C208 1.339 . S
C209 C210 1.439 . S
C209 H238 0.950 . S
C210 N206 1.383 . S
C210 C209 1.439 . S
C210 C228 1.392 . S
N211 Co195 2.282 . S
N211 C214 1.332 . S
N211 C216 1.332 . S
C212 C213 1.386 . S
C212 C215 1.388 . S
C213 C212 1.386 . S
C213 C214 1.382 . S
C213 H239 0.950 . S
C214 N211 1.332 . S
C214 C213 1.382 . S
C214 H225 0.952 . S
C215 C212 1.388 . S
C215 C216 1.382 . S
C215 H240 0.950 . S
C216 N211 1.332 . S
C216 C215 1.382 . S
C216 H226 0.948 . S
N217 Co195 2.282 . S
N217 C221 1.332 . S
N217 C222 1.332 . S
C218 C219 1.388 . S
C218 C222 1.382 . S
C218 H241 0.950 . S
C219 C218 1.388 . S
C219 C220 1.386 . S
C220 C219 1.386 . S
C220 C221 1.382 . S
C220 H242 0.950 . S
C221 N217 1.332 . S
C221 C220 1.382 . S
C221 H223 0.952 . S
C222 N217 1.332 . S
C222 C218 1.382 . S
C222 H224 0.948 . S
H223 C221 0.952 . S
H224 C222 0.948 . S
H225 C214 0.952 . S
H226 C216 0.948 . S
C227 C193 1.395 . S
C227 C197 1.391 . S
C228 C190 1.389 . S
C228 C210 1.392 . S
C229 C200 1.392 . S
C229 C202 1.389 . S
C230 C205 1.395 . S
C230 C207 1.391 . S
H231 C191 0.951 . S
H232 C192 0.950 . S
H233 C198 0.949 . S
H234 C199 0.950 . S
H235 C203 0.951 . S
H236 C204 0.950 . S
H237 C208 0.949 . S
H238 C209 0.950 . S
H239 C213 0.950 . S
H240 C215 0.950 . S
H241 C218 0.950 . S
H242 C220 0.950 . S
C243 C244 1.443 . S
C243 N247 1.376 . S
C243 C281 1.389 . S
C244 C243 1.443 . S
C244 C245 1.340 . S
C244 H284 0.951 . S
C245 C244 1.340 . S
C245 C246 1.439 . S
C245 H285 0.950 . S
C246 C245 1.439 . S
C246 N247 1.374 . S
C246 C280 1.395 . S
N247 C243 1.376 . S
N247 C246 1.374 . S
N247 Co248 2.008 . S
Co248 N247 2.008 . S
Co248 N249 1.995 . S
Co248 N254 2.008 . S
Co248 N259 1.995 . S
Co248 N264 2.282 . S
Co248 N270 2.282 . S
N249 Co248 1.995 . S
N249 C250 1.376 . S
N249 C253 1.383 . S
C250 N249 1.376 . S
C250 C251 1.446 . S
C250 C280 1.391 . S
C251 C250 1.446 . S
C251 C252 1.339 . S
C251 H286 0.949 . S
C252 C251 1.339 . S
C252 C253 1.439 . S
C252 H287 0.950 . S
C253 N249 1.383 . S
C253 C252 1.439 . S
C253 C282 1.392 . S
N254 Co248 2.008 . S
N254 C255 1.376 . S
N254 C258 1.374 . S
C255 N254 1.376 . S
C255 C256 1.443 . S
C255 C282 1.389 . S
C256 C255 1.443 . S
C256 C257 1.340 . S
C256 H288 0.951 . S
C257 C256 1.340 . S
C257 C258 1.439 . S
C257 H289 0.950 . S
C258 N254 1.374 . S
C258 C257 1.439 . S
C258 C283 1.395 . S
N259 Co248 1.995 . S
N259 C260 1.376 . S
N259 C263 1.383 . S
C260 N259 1.376 . S
C260 C261 1.446 . S
C260 C283 1.391 . S
C261 C260 1.446 . S
C261 C262 1.339 . S
C261 H290 0.949 . S
C262 C261 1.339 . S
C262 C263 1.439 . S
C262 H291 0.950 . S
C263 N259 1.383 . S
C263 C262 1.439 . S
C263 C281 1.392 . S
N264 Co248 2.282 . S
N264 C267 1.332 . S
N264 C269 1.332 . S
C265 C266 1.386 . S
C265 C268 1.388 . S
C266 C265 1.386 . S
C266 C267 1.382 . S
C266 H292 0.950 . S
C267 N264 1.332 . S
C267 C266 1.382 . S
C267 H278 0.952 . S
C268 C265 1.388 . S
C268 C269 1.382 . S
C268 H293 0.950 . S
C269 N264 1.332 . S
C269 C268 1.382 . S
C269 H279 0.948 . S
N270 Co248 2.282 . S
N270 C274 1.332 . S
N270 C275 1.332 . S
C271 C272 1.388 . S
C271 C275 1.382 . S
C271 H294 0.950 . S
C272 C271 1.388 . S
C272 C273 1.386 . S
C273 C272 1.386 . S
C273 C274 1.382 . S
C273 H295 0.950 . S
C274 N270 1.332 . S
C274 C273 1.382 . S
C274 H276 0.952 . S
C275 N270 1.332 . S
C275 C271 1.382 . S
C275 H277 0.948 . S
H276 C274 0.952 . S
H277 C275 0.948 . S
H278 C267 0.952 . S
H279 C269 0.948 . S
C280 C246 1.395 . S
C280 C250 1.391 . S
C281 C243 1.389 . S
C281 C263 1.392 . S
C282 C253 1.392 . S
C282 C255 1.389 . S
C283 C258 1.395 . S
C283 C260 1.391 . S
H284 C244 0.951 . S
H285 C245 0.950 . S
H286 C251 0.949 . S
H287 C252 0.950 . S
H288 C256 0.951 . S
H289 C257 0.950 . S
H290 C261 0.949 . S
H291 C262 0.950 . S
H292 C266 0.950 . S
H293 C268 0.950 . S
H294 C271 0.950 . S
H295 C273 0.950 . S
C296 C297 1.443 . S
C296 N300 1.376 . S
C296 C334 1.389 . S
C297 C296 1.443 . S
C297 C298 1.340 . S
C297 H337 0.951 . S
C298 C297 1.340 . S
C298 C299 1.439 . S
C298 H338 0.950 . S
C299 C298 1.439 . S
C299 N300 1.374 . S
C299 C333 1.395 . S
N300 C296 1.376 . S
N300 C299 1.374 . S
N300 Co301 2.008 . S
Co301 N300 2.008 . S
Co301 N302 1.995 . S
Co301 N307 2.008 . S
Co301 N312 1.995 . S
Co301 N317 2.282 . S
Co301 N323 2.282 . S
N302 Co301 1.995 . S
N302 C303 1.376 . S
N302 C306 1.383 . S
C303 N302 1.376 . S
C303 C304 1.446 . S
C303 C333 1.391 . S
C304 C303 1.446 . S
C304 C305 1.339 . S
C304 H339 0.949 . S
C305 C304 1.339 . S
C305 C306 1.439 . S
C305 H340 0.950 . S
C306 N302 1.383 . S
C306 C305 1.439 . S
C306 C335 1.392 . S
N307 Co301 2.008 . S
N307 C308 1.376 . S
N307 C311 1.374 . S
C308 N307 1.376 . S
C308 C309 1.443 . S
C308 C335 1.389 . S
C309 C308 1.443 . S
C309 C310 1.340 . S
C309 H341 0.951 . S
C310 C309 1.340 . S
C310 C311 1.439 . S
C310 H342 0.950 . S
C311 N307 1.374 . S
C311 C310 1.439 . S
C311 C336 1.395 . S
N312 Co301 1.995 . S
N312 C313 1.376 . S
N312 C316 1.383 . S
C313 N312 1.376 . S
C313 C314 1.446 . S
C313 C336 1.391 . S
C314 C313 1.446 . S
C314 C315 1.339 . S
C314 H343 0.949 . S
C315 C314 1.339 . S
C315 C316 1.439 . S
C315 H344 0.950 . S
C316 N312 1.383 . S
C316 C315 1.439 . S
C316 C334 1.392 . S
N317 Co301 2.282 . S
N317 C320 1.332 . S
N317 C322 1.332 . S
C318 C319 1.386 . S
C318 C321 1.388 . S
C319 C318 1.386 . S
C319 C320 1.382 . S
C319 H345 0.950 . S
C320 N317 1.332 . S
C320 C319 1.382 . S
C320 H331 0.952 . S
C321 C318 1.388 . S
C321 C322 1.382 . S
C321 H346 0.950 . S
C322 N317 1.332 . S
C322 C321 1.382 . S
C322 H332 0.948 . S
N323 Co301 2.282 . S
N323 C327 1.332 . S
N323 C328 1.332 . S
C324 C325 1.388 . S
C324 C328 1.382 . S
C324 H347 0.950 . S
C325 C324 1.388 . S
C325 C326 1.386 . S
C326 C325 1.386 . S
C326 C327 1.382 . S
C326 H348 0.950 . S
C327 N323 1.332 . S
C327 C326 1.382 . S
C327 H329 0.952 . S
C328 N323 1.332 . S
C328 C324 1.382 . S
C328 H330 0.948 . S
H329 C327 0.952 . S
H330 C328 0.948 . S
H331 C320 0.952 . S
H332 C322 0.948 . S
C333 C299 1.395 . S
C333 C303 1.391 . S
C334 C296 1.389 . S
C334 C316 1.392 . S
C335 C306 1.392 . S
C335 C308 1.389 . S
C336 C311 1.395 . S
C336 C313 1.391 . S
H337 C297 0.951 . S
H338 C298 0.950 . S
H339 C304 0.949 . S
H340 C305 0.950 . S
H341 C309 0.951 . S
H342 C310 0.950 . S
H343 C314 0.949 . S
H344 C315 0.950 . S
H345 C319 0.950 . S
H346 C321 0.950 . S
H347 C324 0.950 . S
H348 C326 0.950 . S
C349 C350 1.443 . S
C349 N353 1.376 . S
C349 C387 1.389 . S
C350 C349 1.443 . S
C350 C351 1.340 . S
C350 H390 0.951 . S
C351 C350 1.340 . S
C351 C352 1.439 . S
C351 H391 0.950 . S
C352 C351 1.439 . S
C352 N353 1.374 . S
C352 C386 1.395 . S
N353 C349 1.376 . S
N353 C352 1.374 . S
N353 Co354 2.008 . S
Co354 N353 2.008 . S
Co354 N355 1.995 . S
Co354 N360 2.008 . S
Co354 N365 1.995 . S
Co354 N370 2.282 . S
Co354 N376 2.282 . S
N355 Co354 1.995 . S
N355 C356 1.376 . S
N355 C359 1.383 . S
C356 N355 1.376 . S
C356 C357 1.446 . S
C356 C386 1.391 . S
C357 C356 1.446 . S
C357 C358 1.339 . S
C357 H392 0.949 . S
C358 C357 1.339 . S
C358 C359 1.439 . S
C358 H393 0.950 . S
C359 N355 1.383 . S
C359 C358 1.439 . S
C359 C388 1.392 . S
N360 Co354 2.008 . S
N360 C361 1.376 . S
N360 C364 1.374 . S
C361 N360 1.376 . S
C361 C362 1.443 . S
C361 C388 1.389 . S
C362 C361 1.443 . S
C362 C363 1.340 . S
C362 H394 0.951 . S
C363 C362 1.340 . S
C363 C364 1.439 . S
C363 H395 0.950 . S
C364 N360 1.374 . S
C364 C363 1.439 . S
C364 C389 1.395 . S
N365 Co354 1.995 . S
N365 C366 1.376 . S
N365 C369 1.383 . S
C366 N365 1.376 . S
C366 C367 1.446 . S
C366 C389 1.391 . S
C367 C366 1.446 . S
C367 C368 1.339 . S
C367 H396 0.949 . S
C368 C367 1.339 . S
C368 C369 1.439 . S
C368 H397 0.950 . S
C369 N365 1.383 . S
C369 C368 1.439 . S
C369 C387 1.392 . S
N370 Co354 2.282 . S
N370 C373 1.332 . S
N370 C375 1.332 . S
C371 C372 1.386 . S
C371 C374 1.388 . S
C372 C371 1.386 . S
C372 C373 1.382 . S
C372 H398 0.950 . S
C373 N370 1.332 . S
C373 C372 1.382 . S
C373 H384 0.952 . S
C374 C371 1.388 . S
C374 C375 1.382 . S
C374 H399 0.950 . S
C375 N370 1.332 . S
C375 C374 1.382 . S
C375 H385 0.948 . S
N376 Co354 2.282 . S
N376 C380 1.332 . S
N376 C381 1.332 . S
C377 C378 1.388 . S
C377 C381 1.382 . S
C377 H400 0.950 . S
C378 C377 1.388 . S
C378 C379 1.386 . S
C379 C378 1.386 . S
C379 C380 1.382 . S
C379 H401 0.950 . S
C380 N376 1.332 . S
C380 C379 1.382 . S
C380 H382 0.952 . S
C381 N376 1.332 . S
C381 C377 1.382 . S
C381 H383 0.948 . S
H382 C380 0.952 . S
H383 C381 0.948 . S
H384 C373 0.952 . S
H385 C375 0.948 . S
C386 C352 1.395 . S
C386 C356 1.391 . S
C387 C349 1.389 . S
C387 C369 1.392 . S
C388 C359 1.392 . S
C388 C361 1.389 . S
C389 C364 1.395 . S
C389 C366 1.391 . S
H390 C350 0.951 . S
H391 C351 0.950 . S
H392 C357 0.949 . S
H393 C358 0.950 . S
H394 C362 0.951 . S
H395 C363 0.950 . S
H396 C367 0.949 . S
H397 C368 0.950 . S
H398 C372 0.950 . S
H399 C374 0.950 . S
H400 C377 0.950 . S
H401 C379 0.950 . S
H402 C408 0.930 . S
H403 C411 0.930 . S
H404 C412 0.930 . S
H405 C413 0.930 . S
H406 C416 0.930 . S
H407 C417 0.930 . S
C408 H402 0.930 . S
C408 C409 1.355 . S
C408 C410 1.415 . S
C409 C408 1.355 . S
C409 C411 1.419 . S
C410 C408 1.415 . S
C410 C415 1.425 . S
C410 C417 1.409 . S
C411 H403 0.930 . S
C411 C409 1.419 . S
C411 C412 1.362 . S
C412 H404 0.930 . S
C412 C411 1.362 . S
C412 C415 1.409 . S
C413 H405 0.930 . S
C413 C414 1.355 . S
C413 C415 1.415 . S
C414 C413 1.355 . S
C414 C416 1.419 . S
C415 C410 1.425 . S
C415 C412 1.409 . S
C415 C413 1.415 . S
C416 H406 0.930 . S
C416 C414 1.419 . S
C416 C417 1.362 . S
C417 H407 0.930 . S
C417 C410 1.409 . S
C417 C416 1.362 . S
H418 C424 0.930 . S
H419 C427 0.930 . S
H420 C428 0.930 . S
H421 C429 0.930 . S
H422 C432 0.930 . S
H423 C433 0.930 . S
C424 H418 0.930 . S
C424 C425 1.355 . S
C424 C426 1.415 . S
C425 C424 1.355 . S
C425 C427 1.419 . S
C426 C424 1.415 . S
C426 C431 1.425 . S
C426 C433 1.409 . S
C427 H419 0.930 . S
C427 C425 1.419 . S
C427 C428 1.362 . S
C428 H420 0.930 . S
C428 C427 1.362 . S
C428 C431 1.409 . S
C429 H421 0.930 . S
C429 C430 1.355 . S
C429 C431 1.415 . S
C430 C429 1.355 . S
C430 C432 1.419 . S
C431 C426 1.425 . S
C431 C428 1.409 . S
C431 C429 1.415 . S
C432 H422 0.930 . S
C432 C430 1.419 . S
C432 C433 1.362 . S
C433 H423 0.930 . S
C433 C426 1.409 . S
C433 C432 1.362 . S
H434 C440 0.930 . S
H435 C443 0.930 . S
H436 C444 0.930 . S
H437 C445 0.930 . S
H438 C448 0.930 . S
H439 C449 0.930 . S
C440 H434 0.930 . S
C440 C441 1.355 . S
C440 C442 1.415 . S
C441 C440 1.355 . S
C441 C443 1.419 . S
C442 C440 1.415 . S
C442 C447 1.425 . S
C442 C449 1.409 . S
C443 H435 0.930 . S
C443 C441 1.419 . S
C443 C444 1.362 . S
C444 H436 0.930 . S
C444 C443 1.362 . S
C444 C447 1.409 . S
C445 H437 0.930 . S
C445 C446 1.355 . S
C445 C447 1.415 . S
C446 C445 1.355 . S
C446 C448 1.419 . S
C447 C442 1.425 . S
C447 C444 1.409 . S
C447 C445 1.415 . S
C448 H438 0.930 . S
C448 C446 1.419 . S
C448 C449 1.362 . S
C449 H439 0.930 . S
C449 C442 1.409 . S
C449 C448 1.362 . S
H450 C456 0.930 . S
H451 C459 0.930 . S
H452 C460 0.930 . S
H453 C461 0.930 . S
H454 C464 0.930 . S
H455 C465 0.930 . S
C456 H450 0.930 . S
C456 C457 1.355 . S
C456 C458 1.415 . S
C457 C456 1.355 . S
C457 C459 1.419 . S
C458 C456 1.415 . S
C458 C463 1.425 . S
C458 C465 1.409 . S
C459 H451 0.930 . S
C459 C457 1.419 . S
C459 C460 1.362 . S
C460 H452 0.930 . S
C460 C459 1.362 . S
C460 C463 1.409 . S
C461 H453 0.930 . S
C461 C462 1.355 . S
C461 C463 1.415 . S
C462 C461 1.355 . S
C462 C464 1.419 . S
C463 C458 1.425 . S
C463 C460 1.409 . S
C463 C461 1.415 . S
C464 H454 0.930 . S
C464 C462 1.419 . S
C464 C465 1.362 . S
C465 H455 0.930 . S
C465 C458 1.409 . S
C465 C464 1.362 . S
H466 C472 0.930 . S
H467 C475 0.930 . S
H468 C476 0.930 . S
H469 C477 0.930 . S
H470 C480 0.930 . S
H471 C481 0.930 . S
C472 H466 0.930 . S
C472 C473 1.355 . S
C472 C474 1.415 . S
C473 C472 1.355 . S
C473 C475 1.419 . S
C474 C472 1.415 . S
C474 C479 1.425 . S
C474 C481 1.409 . S
C475 H467 0.930 . S
C475 C473 1.419 . S
C475 C476 1.362 . S
C476 H468 0.930 . S
C476 C475 1.362 . S
C476 C479 1.409 . S
C477 H469 0.930 . S
C477 C478 1.355 . S
C477 C479 1.415 . S
C478 C477 1.355 . S
C478 C480 1.419 . S
C479 C474 1.425 . S
C479 C476 1.409 . S
C479 C477 1.415 . S
C480 H470 0.930 . S
C480 C478 1.419 . S
C480 C481 1.362 . S
C481 H471 0.930 . S
C481 C474 1.409 . S
C481 C480 1.362 . S
H482 C488 0.930 . S
H483 C491 0.930 . S
H484 C492 0.930 . S
H485 C493 0.930 . S
H486 C496 0.930 . S
H487 C497 0.930 . S
C488 H482 0.930 . S
C488 C489 1.355 . S
C488 C490 1.415 . S
C489 C488 1.355 . S
C489 C491 1.419 . S
C490 C488 1.415 . S
C490 C495 1.425 . S
C490 C497 1.409 . S
C491 H483 0.930 . S
C491 C489 1.419 . S
C491 C492 1.362 . S
C492 H484 0.930 . S
C492 C491 1.362 . S
C492 C495 1.409 . S
C493 H485 0.930 . S
C493 C494 1.355 . S
C493 C495 1.415 . S
C494 C493 1.355 . S
C494 C496 1.419 . S
C495 C490 1.425 . S
C495 C492 1.409 . S
C495 C493 1.415 . S
C496 H486 0.930 . S
C496 C494 1.419 . S
C496 C497 1.362 . S
C497 H487 0.930 . S
C497 C490 1.409 . S
C497 C496 1.362 . S
H498 C504 0.930 . S
H499 C507 0.930 . S
H500 C508 0.930 . S
H501 C509 0.930 . S
H502 C512 0.930 . S
H503 C513 0.930 . S
C504 H498 0.930 . S
C504 C505 1.355 . S
C504 C506 1.415 . S
C505 C504 1.355 . S
C505 C507 1.419 . S
C506 C504 1.415 . S
C506 C511 1.425 . S
C506 C513 1.409 . S
C507 H499 0.930 . S
C507 C505 1.419 . S
C507 C508 1.362 . S
C508 H500 0.930 . S
C508 C507 1.362 . S
C508 C511 1.409 . S
C509 H501 0.930 . S
C509 C510 1.355 . S
C509 C511 1.415 . S
C510 C509 1.355 . S
C510 C512 1.419 . S
C511 C506 1.425 . S
C511 C508 1.409 . S
C511 C509 1.415 . S
C512 H502 0.930 . S
C512 C510 1.419 . S
C512 C513 1.362 . S
C513 H503 0.930 . S
C513 C506 1.409 . S
C513 C512 1.362 . S
H514 C520 0.930 . S
H515 C523 0.930 . S
H516 C524 0.930 . S
H517 C525 0.930 . S
H518 C528 0.930 . S
H519 C529 0.930 . S
C520 H514 0.930 . S
C520 C521 1.355 . S
C520 C522 1.415 . S
C521 C520 1.355 . S
C521 C523 1.419 . S
C522 C520 1.415 . S
C522 C527 1.425 . S
C522 C529 1.409 . S
C523 H515 0.930 . S
C523 C521 1.419 . S
C523 C524 1.362 . S
C524 H516 0.930 . S
C524 C523 1.362 . S
C524 C527 1.409 . S
C525 H517 0.930 . S
C525 C526 1.355 . S
C525 C527 1.415 . S
C526 C525 1.355 . S
C526 C528 1.419 . S
C527 C522 1.425 . S
C527 C524 1.409 . S
C527 C525 1.415 . S
C528 H518 0.930 . S
C528 C526 1.419 . S
C528 C529 1.362 . S
C529 H519 0.930 . S
C529 C522 1.409 . S
C529 C528 1.362 . S
H530 C536 0.930 . S
H531 C539 0.930 . S
H532 C540 0.930 . S
H533 C541 0.930 . S
H534 C544 0.930 . S
H535 C545 0.930 . S
C536 H530 0.930 . S
C536 C537 1.355 . S
C536 C538 1.415 . S
C537 C536 1.355 . S
C537 C539 1.419 . S
C538 C536 1.415 . S
C538 C543 1.425 . S
C538 C545 1.409 . S
C539 H531 0.930 . S
C539 C537 1.419 . S
C539 C540 1.362 . S
C540 H532 0.930 . S
C540 C539 1.362 . S
C540 C543 1.409 . S
C541 H533 0.930 . S
C541 C542 1.355 . S
C541 C543 1.415 . S
C542 C541 1.355 . S
C542 C544 1.419 . S
C543 C538 1.425 . S
C543 C540 1.409 . S
C543 C541 1.415 . S
C544 H534 0.930 . S
C544 C542 1.419 . S
C544 C545 1.362 . S
C545 H535 0.930 . S
C545 C538 1.409 . S
C545 C544 1.362 . S
H546 C552 0.930 . S
H547 C555 0.930 . S
H548 C556 0.930 . S
H549 C557 0.930 . S
H550 C560 0.930 . S
H551 C561 0.930 . S
C552 H546 0.930 . S
C552 C553 1.355 . S
C552 C554 1.415 . S
C553 C552 1.355 . S
C553 C555 1.419 . S
C554 C552 1.415 . S
C554 C559 1.425 . S
C554 C561 1.409 . S
C555 H547 0.930 . S
C555 C553 1.419 . S
C555 C556 1.362 . S
C556 H548 0.930 . S
C556 C555 1.362 . S
C556 C559 1.409 . S
C557 H549 0.930 . S
C557 C558 1.355 . S
C557 C559 1.415 . S
C558 C557 1.355 . S
C558 C560 1.419 . S
C559 C554 1.425 . S
C559 C556 1.409 . S
C559 C557 1.415 . S
C560 H550 0.930 . S
C560 C558 1.419 . S
C560 C561 1.362 . S
C561 H551 0.930 . S
C561 C554 1.409 . S
C561 C560 1.362 . S
H562 C568 0.930 . S
H563 C571 0.930 . S
H564 C572 0.930 . S
H565 C573 0.930 . S
H566 C576 0.930 . S
H567 C577 0.930 . S
C568 H562 0.930 . S
C568 C569 1.355 . S
C568 C570 1.415 . S
C569 C568 1.355 . S
C569 C571 1.419 . S
C570 C568 1.415 . S
C570 C575 1.425 . S
C570 C577 1.409 . S
C571 H563 0.930 . S
C571 C569 1.419 . S
C571 C572 1.362 . S
C572 H564 0.930 . S
C572 C571 1.362 . S
C572 C575 1.409 . S
C573 H565 0.930 . S
C573 C574 1.355 . S
C573 C575 1.415 . S
C574 C573 1.355 . S
C574 C576 1.419 . S
C575 C570 1.425 . S
C575 C572 1.409 . S
C575 C573 1.415 . S
C576 H566 0.930 . S
C576 C574 1.419 . S
C576 C577 1.362 . S
C577 H567 0.930 . S
C577 C570 1.409 . S
C577 C576 1.362 . S
H578 C584 0.930 . S
H579 C587 0.930 . S
H580 C588 0.930 . S
H581 C589 0.930 . S
H582 C592 0.930 . S
H583 C593 0.930 . S
C584 H578 0.930 . S
C584 C585 1.355 . S
C584 C586 1.415 . S
C585 C584 1.355 . S
C585 C587 1.419 . S
C586 C584 1.415 . S
C586 C591 1.425 . S
C586 C593 1.409 . S
C587 H579 0.930 . S
C587 C585 1.419 . S
C587 C588 1.362 . S
C588 H580 0.930 . S
C588 C587 1.362 . S
C588 C591 1.409 . S
C589 H581 0.930 . S
C589 C590 1.355 . S
C589 C591 1.415 . S
C590 C589 1.355 . S
C590 C592 1.419 . S
C591 C586 1.425 . S
C591 C588 1.409 . S
C591 C589 1.415 . S
C592 H582 0.930 . S
C592 C590 1.419 . S
C592 C593 1.362 . S
C593 H583 0.930 . S
C593 C586 1.409 . S
C593 C592 1.362 . S
H594 C600 0.930 . S
H595 C603 0.930 . S
H596 C604 0.930 . S
H597 C605 0.930 . S
H598 C608 0.930 . S
H599 C609 0.930 . S
C600 H594 0.930 . S
C600 C601 1.355 . S
C600 C602 1.415 . S
C601 C600 1.355 . S
C601 C603 1.419 . S
C602 C600 1.415 . S
C602 C607 1.425 . S
C602 C609 1.409 . S
C603 H595 0.930 . S
C603 C601 1.419 . S
C603 C604 1.362 . S
C604 H596 0.930 . S
C604 C603 1.362 . S
C604 C607 1.409 . S
C605 H597 0.930 . S
C605 C606 1.355 . S
C605 C607 1.415 . S
C606 C605 1.355 . S
C606 C608 1.419 . S
C607 C602 1.425 . S
C607 C604 1.409 . S
C607 C605 1.415 . S
C608 H598 0.930 . S
C608 C606 1.419 . S
C608 C609 1.362 . S
C609 H599 0.930 . S
C609 C602 1.409 . S
C609 C608 1.362 . S
H610 C616 0.930 . S
H611 C619 0.930 . S
H612 C620 0.930 . S
H613 C621 0.930 . S
H614 C624 0.930 . S
H615 C625 0.930 . S
C616 H610 0.930 . S
C616 C617 1.355 . S
C616 C618 1.415 . S
C617 C616 1.355 . S
C617 C619 1.419 . S
C618 C616 1.415 . S
C618 C623 1.425 . S
C618 C625 1.409 . S
C619 H611 0.930 . S
C619 C617 1.419 . S
C619 C620 1.362 . S
C620 H612 0.930 . S
C620 C619 1.362 . S
C620 C623 1.409 . S
C621 H613 0.930 . S
C621 C622 1.355 . S
C621 C623 1.415 . S
C622 C621 1.355 . S
C622 C624 1.419 . S
C623 C618 1.425 . S
C623 C620 1.409 . S
C623 C621 1.415 . S
C624 H614 0.930 . S
C624 C622 1.419 . S
C624 C625 1.362 . S
C625 H615 0.930 . S
C625 C618 1.409 . S
C625 C624 1.362 . S
H626 C632 0.930 . S
H627 C635 0.930 . S
H628 C636 0.930 . S
H629 C637 0.930 . S
H630 C640 0.930 . S
H631 C641 0.930 . S
C632 H626 0.930 . S
C632 C633 1.355 . S
C632 C634 1.415 . S
C633 C632 1.355 . S
C633 C635 1.419 . S
C634 C632 1.415 . S
C634 C639 1.425 . S
C634 C641 1.409 . S
C635 H627 0.930 . S
C635 C633 1.419 . S
C635 C636 1.362 . S
C636 H628 0.930 . S
C636 C635 1.362 . S
C636 C639 1.409 . S
C637 H629 0.930 . S
C637 C638 1.355 . S
C637 C639 1.415 . S
C638 C637 1.355 . S
C638 C640 1.419 . S
C639 C634 1.425 . S
C639 C636 1.409 . S
C639 C637 1.415 . S
C640 H630 0.930 . S
C640 C638 1.419 . S
C640 C641 1.362 . S
C641 H631 0.930 . S
C641 C634 1.409 . S
C641 C640 1.362 . S
H642 C648 0.930 . S
H643 C651 0.930 . S
H644 C652 0.930 . S
H645 C653 0.930 . S
H646 C656 0.930 . S
H647 C657 0.930 . S
C648 H642 0.930 . S
C648 C649 1.355 . S
C648 C650 1.415 . S
C649 C648 1.355 . S
C649 C651 1.419 . S
C650 C648 1.415 . S
C650 C655 1.425 . S
C650 C657 1.409 . S
C651 H643 0.930 . S
C651 C649 1.419 . S
C651 C652 1.362 . S
C652 H644 0.930 . S
C652 C651 1.362 . S
C652 C655 1.409 . S
C653 H645 0.930 . S
C653 C654 1.355 . S
C653 C655 1.415 . S
C654 C653 1.355 . S
C654 C656 1.419 . S
C655 C650 1.425 . S
C655 C652 1.409 . S
C655 C653 1.415 . S
C656 H646 0.930 . S
C656 C654 1.419 . S
C656 C657 1.362 . S
C657 H647 0.930 . S
C657 C650 1.409 . S
C657 C656 1.362 . S
H658 C664 0.930 . S
H659 C667 0.930 . S
H660 C668 0.930 . S
H661 C669 0.930 . S
H662 C672 0.930 . S
H663 C673 0.930 . S
C664 H658 0.930 . S
C664 C665 1.355 . S
C664 C666 1.415 . S
C665 C664 1.355 . S
C665 C667 1.419 . S
C666 C664 1.415 . S
C666 C671 1.425 . S
C666 C673 1.409 . S
C667 H659 0.930 . S
C667 C665 1.419 . S
C667 C668 1.362 . S
C668 H660 0.930 . S
C668 C667 1.362 . S
C668 C671 1.409 . S
C669 H661 0.930 . S
C669 C670 1.355 . S
C669 C671 1.415 . S
C670 C669 1.355 . S
C670 C672 1.419 . S
C671 C666 1.425 . S
C671 C668 1.409 . S
C671 C669 1.415 . S
C672 H662 0.930 . S
C672 C670 1.419 . S
C672 C673 1.362 . S
C673 H663 0.930 . S
C673 C666 1.409 . S
C673 C672 1.362 . S
H674 C680 0.930 . S
H675 C683 0.930 . S
H676 C684 0.930 . S
H677 C685 0.930 . S
H678 C688 0.930 . S
H679 C689 0.930 . S
C680 H674 0.930 . S
C680 C681 1.355 . S
C680 C682 1.415 . S
C681 C680 1.355 . S
C681 C683 1.419 . S
C682 C680 1.415 . S
C682 C687 1.425 . S
C682 C689 1.409 . S
C683 H675 0.930 . S
C683 C681 1.419 . S
C683 C684 1.362 . S
C684 H676 0.930 . S
C684 C683 1.362 . S
C684 C687 1.409 . S
C685 H677 0.930 . S
C685 C686 1.355 . S
C685 C687 1.415 . S
C686 C685 1.355 . S
C686 C688 1.419 . S
C687 C682 1.425 . S
C687 C684 1.409 . S
C687 C685 1.415 . S
C688 H678 0.930 . S
C688 C686 1.419 . S
C688 C689 1.362 . S
C689 H679 0.930 . S
C689 C682 1.409 . S
C689 C688 1.362 . S
H690 C696 0.930 . S
H691 C699 0.930 . S
H692 C700 0.930 . S
H693 C701 0.930 . S
H694 C704 0.930 . S
H695 C705 0.930 . S
C696 H690 0.930 . S
C696 C697 1.355 . S
C696 C698 1.415 . S
C697 C696 1.355 . S
C697 C699 1.419 . S
C698 C696 1.415 . S
C698 C703 1.425 . S
C698 C705 1.409 . S
C699 H691 0.930 . S
C699 C697 1.419 . S
C699 C700 1.362 . S
C700 H692 0.930 . S
C700 C699 1.362 . S
C700 C703 1.409 . S
C701 H693 0.930 . S
C701 C702 1.355 . S
C701 C703 1.415 . S
C702 C701 1.355 . S
C702 C704 1.419 . S
C703 C698 1.425 . S
C703 C700 1.409 . S
C703 C701 1.415 . S
C704 H694 0.930 . S
C704 C702 1.419 . S
C704 C705 1.362 . S
C705 H695 0.930 . S
C705 C698 1.409 . S
C705 C704 1.362 . S
H706 C712 0.930 . S
H707 C715 0.930 . S
H708 C716 0.930 . S
H709 C717 0.930 . S
H710 C720 0.930 . S
H711 C721 0.930 . S
C712 H706 0.930 . S
C712 C713 1.355 . S
C712 C714 1.415 . S
C713 C712 1.355 . S
C713 C715 1.419 . S
C714 C712 1.415 . S
C714 C719 1.425 . S
C714 C721 1.409 . S
C715 H707 0.930 . S
C715 C713 1.419 . S
C715 C716 1.362 . S
C716 H708 0.930 . S
C716 C715 1.362 . S
C716 C719 1.409 . S
C717 H709 0.930 . S
C717 C718 1.355 . S
C717 C719 1.415 . S
C718 C717 1.355 . S
C718 C720 1.419 . S
C719 C714 1.425 . S
C719 C716 1.409 . S
C719 C717 1.415 . S
C720 H710 0.930 . S
C720 C718 1.419 . S
C720 C721 1.362 . S
C721 H711 0.930 . S
C721 C714 1.409 . S
C721 C720 1.362 . S
H722 C728 0.930 . S
H723 C731 0.930 . S
H724 C732 0.930 . S
H725 C733 0.930 . S
H726 C736 0.930 . S
H727 C737 0.930 . S
C728 H722 0.930 . S
C728 C729 1.355 . S
C728 C730 1.415 . S
C729 C728 1.355 . S
C729 C731 1.419 . S
C730 C728 1.415 . S
C730 C735 1.425 . S
C730 C737 1.409 . S
C731 H723 0.930 . S
C731 C729 1.419 . S
C731 C732 1.362 . S
C732 H724 0.930 . S
C732 C731 1.362 . S
C732 C735 1.409 . S
C733 H725 0.930 . S
C733 C734 1.355 . S
C733 C735 1.415 . S
C734 C733 1.355 . S
C734 C736 1.419 . S
C735 C730 1.425 . S
C735 C732 1.409 . S
C735 C733 1.415 . S
C736 H726 0.930 . S
C736 C734 1.419 . S
C736 C737 1.362 . S
C737 H727 0.930 . S
C737 C730 1.409 . S
C737 C736 1.362 . S
H738 C744 0.930 . S
H739 C747 0.930 1_545 S
H740 C748 0.930 . S
H741 C749 0.930 . S
H742 C752 0.930 . S
H743 C753 0.930 . S
C744 H738 0.930 . S
C744 C745 1.355 . S
C744 C746 1.415 . S
C745 C744 1.355 . S
C745 C747 1.419 . S
C746 C744 1.415 . S
C746 C751 1.425 . S
C746 C753 1.409 . S
C747 H739 0.930 1_565 S
C747 C745 1.419 . S
C747 C748 1.362 . S
C748 H740 0.930 . S
C748 C747 1.362 . S
C748 C751 1.409 . S
C749 H741 0.930 . S
C749 C750 1.355 . S
C749 C751 1.415 . S
C750 C749 1.355 . S
C750 C752 1.419 . S
C751 C746 1.425 . S
C751 C748 1.409 . S
C751 C749 1.415 . S
C752 H742 0.930 . S
C752 C750 1.419 . S
C752 C753 1.362 . S
C753 H743 0.930 . S
C753 C746 1.409 . S
C753 C752 1.362 . S
H754 C760 0.930 . S
H755 C763 0.930 . S
H756 C764 0.930 . S
H757 C765 0.930 . S
H758 C768 0.930 . S
H759 C769 0.930 . S
C760 H754 0.930 . S
C760 C761 1.355 . S
C760 C762 1.415 . S
C761 C760 1.355 . S
C761 C763 1.419 . S
C762 C760 1.415 . S
C762 C767 1.425 . S
C762 C769 1.409 . S
C763 H755 0.930 . S
C763 C761 1.419 . S
C763 C764 1.362 . S
C764 H756 0.930 . S
C764 C763 1.362 . S
C764 C767 1.409 . S
C765 H757 0.930 . S
C765 C766 1.355 . S
C765 C767 1.415 . S
C766 C765 1.355 . S
C766 C768 1.419 . S
C767 C762 1.425 . S
C767 C764 1.409 . S
C767 C765 1.415 . S
C768 H758 0.930 . S
C768 C766 1.419 . S
C768 C769 1.362 . S
C769 H759 0.930 . S
C769 C762 1.409 . S
C769 C768 1.362 . S
H770 C776 0.930 . S
H771 C779 0.930 . S
H772 C780 0.930 . S
H773 C781 0.930 . S
H774 C784 0.930 . S
H775 C785 0.930 . S
C776 H770 0.930 . S
C776 C777 1.355 . S
C776 C778 1.415 . S
C777 C776 1.355 . S
C777 C779 1.419 . S
C778 C776 1.415 . S
C778 C783 1.425 . S
C778 C785 1.409 . S
C779 H771 0.930 . S
C779 C777 1.419 . S
C779 C780 1.362 . S
C780 H772 0.930 . S
C780 C779 1.362 . S
C780 C783 1.409 . S
C781 H773 0.930 . S
C781 C782 1.355 . S
C781 C783 1.415 . S
C782 C781 1.355 . S
C782 C784 1.419 . S
C783 C778 1.425 . S
C783 C780 1.409 . S
C783 C781 1.415 . S
C784 H774 0.930 . S
C784 C782 1.419 . S
C784 C785 1.362 . S
C785 H775 0.930 . S
C785 C778 1.409 . S
C785 C784 1.362 . S
C409 C13 1.899 . S
C414 C122 1.853 . S
C425 C27 1.647 . S
C430 C175 1.623 . S
C446 C228 1.758 . S
C441 C29 1.802 . S
C462 C265 1.457 . S
C457 C54 1.490 . S
C478 C325 1.705 . S
C473 C69 1.744 . S
C494 C378 1.522 . S
C489 C83 1.572 . S
C505 C15 1.918 . S
C510 C229 1.890 . S
C521 C41 1.572 . S
C526 C272 1.522 . S
C542 C318 1.723 . S
C537 C42 1.749 . S
C558 C371 1.497 . S
C553 C57 1.512 . S
C569 C71 1.819 . S
C574 C123 1.801 . S
C590 C176 1.591 . S
C585 C1 1.629 . S
C606 C282 1.851 . S
C601 C12 1.899 . S
C617 C26 1.620 . S
C622 C334 1.585 . S
C638 C387 1.793 . S
C633 C28 1.814 . S
C649 C55 1.481 . S
C654 C113 1.436 . S
C665 C68 1.734 . S
C670 C166 1.690 . S
C681 C82 1.600 . S
C686 C219 1.576 . S
C697 C14 1.926 . S
C702 C388 1.900 . S
C718 C106 1.554 . S
C713 C40 1.588 . S
C729 C43 1.737 . S
C734 C159 1.690 . S
C745 C56 1.484 . S
C750 C212 1.432 . S
C761 C70 1.803 . S
C766 C281 1.764 . S
C777 C0 1.619 . S
C782 C335 1.569 . S
