# Generated by pormake.
# Topology gar, (4,6)-cn, num edge types: 1
# Building blocks:
#     Node 0, Type 0, BuildingBlock: GALJAG_clean_sbu_0, # of connection points: 4
#     Node 1, Type 0, BuildingBlock: GALJAG_clean_sbu_0, # of connection points: 4
#     Node 2, Type 0, BuildingBlock: GALJAG_clean_sbu_0, # of connection points: 4
#     Node 3, Type 0, BuildingBlock: GALJAG_clean_sbu_0, # of connection points: 4
#     Node 4, Type 0, BuildingBlock: GALJAG_clean_sbu_0, # of connection points: 4
#     Node 5, Type 0, BuildingBlock: GALJAG_clean_sbu_0, # of connection points: 4
#     Node 6, Type 0, BuildingBlock: GALJAG_clean_sbu_0, # of connection points: 4
#     Node 7, Type 0, BuildingBlock: GALJAG_clean_sbu_0, # of connection points: 4
#     Node 8, Type 0, BuildingBlock: GALJAG_clean_sbu_0, # of connection points: 4
#     Node 9, Type 0, BuildingBlock: GALJAG_clean_sbu_0, # of connection points: 4
#     Node 10, Type 0, BuildingBlock: GALJAG_clean_sbu_0, # of connection points: 4
#     Node 11, Type 0, BuildingBlock: GALJAG_clean_sbu_0, # of connection points: 4
#     Node 12, Type 0, BuildingBlock: GALJAG_clean_sbu_0, # of connection points: 4
#     Node 13, Type 0, BuildingBlock: GALJAG_clean_sbu_0, # of connection points: 4
#     Node 14, Type 0, BuildingBlock: GALJAG_clean_sbu_0, # of connection points: 4
#     Node 15, Type 0, BuildingBlock: GALJAG_clean_sbu_0, # of connection points: 4
#     Node 16, Type 0, BuildingBlock: GALJAG_clean_sbu_0, # of connection points: 4
#     Node 17, Type 0, BuildingBlock: GALJAG_clean_sbu_0, # of connection points: 4
#     Node 18, Type 0, BuildingBlock: GALJAG_clean_sbu_0, # of connection points: 4
#     Node 19, Type 0, BuildingBlock: GALJAG_clean_sbu_0, # of connection points: 4
#     Node 20, Type 0, BuildingBlock: GALJAG_clean_sbu_0, # of connection points: 4
#     Node 21, Type 0, BuildingBlock: GALJAG_clean_sbu_0, # of connection points: 4
#     Node 22, Type 0, BuildingBlock: GALJAG_clean_sbu_0, # of connection points: 4
#     Node 23, Type 0, BuildingBlock: GALJAG_clean_sbu_0, # of connection points: 4
#     Node 24, Type 1, BuildingBlock: CUWYAW_clean_sbu_0, # of connection points: 6
#     Node 25, Type 1, BuildingBlock: CUWYAW_clean_sbu_0, # of connection points: 6
#     Node 26, Type 1, BuildingBlock: CUWYAW_clean_sbu_0, # of connection points: 6
#     Node 27, Type 1, BuildingBlock: CUWYAW_clean_sbu_0, # of connection points: 6
#     Node 28, Type 1, BuildingBlock: CUWYAW_clean_sbu_0, # of connection points: 6
#     Node 29, Type 1, BuildingBlock: CUWYAW_clean_sbu_0, # of connection points: 6
#     Node 30, Type 1, BuildingBlock: CUWYAW_clean_sbu_0, # of connection points: 6
#     Node 31, Type 1, BuildingBlock: CUWYAW_clean_sbu_0, # of connection points: 6
#     Node 32, Type 1, BuildingBlock: CUWYAW_clean_sbu_0, # of connection points: 6
#     Node 33, Type 1, BuildingBlock: CUWYAW_clean_sbu_0, # of connection points: 6
#     Node 34, Type 1, BuildingBlock: CUWYAW_clean_sbu_0, # of connection points: 6
#     Node 35, Type 1, BuildingBlock: CUWYAW_clean_sbu_0, # of connection points: 6
#     Node 36, Type 1, BuildingBlock: CUWYAW_clean_sbu_0, # of connection points: 6
#     Node 37, Type 1, BuildingBlock: CUWYAW_clean_sbu_0, # of connection points: 6
#     Node 38, Type 1, BuildingBlock: CUWYAW_clean_sbu_0, # of connection points: 6
#     Node 39, Type 1, BuildingBlock: CUWYAW_clean_sbu_0, # of connection points: 6
#     Edge 40, Type (0, 1), BuildingBlock: AJUNOK_clean_linker_0, # of connection points: 2
#     Edge 41, Type (0, 1), BuildingBlock: AJUNOK_clean_linker_0, # of connection points: 2
#     Edge 42, Type (0, 1), BuildingBlock: AJUNOK_clean_linker_0, # of connection points: 2
#     Edge 43, Type (0, 1), BuildingBlock: AJUNOK_clean_linker_0, # of connection points: 2
#     Edge 44, Type (0, 1), BuildingBlock: AJUNOK_clean_linker_0, # of connection points: 2
#     Edge 45, Type (0, 1), BuildingBlock: AJUNOK_clean_linker_0, # of connection points: 2
#     Edge 46, Type (0, 1), BuildingBlock: AJUNOK_clean_linker_0, # of connection points: 2
#     Edge 47, Type (0, 1), BuildingBlock: AJUNOK_clean_linker_0, # of connection points: 2
#     Edge 48, Type (0, 1), BuildingBlock: AJUNOK_clean_linker_0, # of connection points: 2
#     Edge 49, Type (0, 1), BuildingBlock: AJUNOK_clean_linker_0, # of connection points: 2
#     Edge 50, Type (0, 1), BuildingBlock: AJUNOK_clean_linker_0, # of connection points: 2
#     Edge 51, Type (0, 1), BuildingBlock: AJUNOK_clean_linker_0, # of connection points: 2
#     Edge 52, Type (0, 1), BuildingBlock: AJUNOK_clean_linker_0, # of connection points: 2
#     Edge 53, Type (0, 1), BuildingBlock: AJUNOK_clean_linker_0, # of connection points: 2
#     Edge 54, Type (0, 1), BuildingBlock: AJUNOK_clean_linker_0, # of connection points: 2
#     Edge 55, Type (0, 1), BuildingBlock: AJUNOK_clean_linker_0, # of connection points: 2
#     Edge 56, Type (0, 1), BuildingBlock: AJUNOK_clean_linker_0, # of connection points: 2
#     Edge 57, Type (0, 1), BuildingBlock: AJUNOK_clean_linker_0, # of connection points: 2
#     Edge 58, Type (0, 1), BuildingBlock: AJUNOK_clean_linker_0, # of connection points: 2
#     Edge 59, Type (0, 1), BuildingBlock: AJUNOK_clean_linker_0, # of connection points: 2
#     Edge 60, Type (0, 1), BuildingBlock: AJUNOK_clean_linker_0, # of connection points: 2
#     Edge 61, Type (0, 1), BuildingBlock: AJUNOK_clean_linker_0, # of connection points: 2
#     Edge 62, Type (0, 1), BuildingBlock: AJUNOK_clean_linker_0, # of connection points: 2
#     Edge 63, Type (0, 1), BuildingBlock: AJUNOK_clean_linker_0, # of connection points: 2
#     Edge 64, Type (0, 1), BuildingBlock: AJUNOK_clean_linker_0, # of connection points: 2
#     Edge 65, Type (0, 1), BuildingBlock: AJUNOK_clean_linker_0, # of connection points: 2
#     Edge 66, Type (0, 1), BuildingBlock: AJUNOK_clean_linker_0, # of connection points: 2
#     Edge 67, Type (0, 1), BuildingBlock: AJUNOK_clean_linker_0, # of connection points: 2
#     Edge 68, Type (0, 1), BuildingBlock: AJUNOK_clean_linker_0, # of connection points: 2
#     Edge 69, Type (0, 1), BuildingBlock: AJUNOK_clean_linker_0, # of connection points: 2
#     Edge 70, Type (0, 1), BuildingBlock: AJUNOK_clean_linker_0, # of connection points: 2
#     Edge 71, Type (0, 1), BuildingBlock: AJUNOK_clean_linker_0, # of connection points: 2
#     Edge 72, Type (0, 1), BuildingBlock: AJUNOK_clean_linker_0, # of connection points: 2
#     Edge 73, Type (0, 1), BuildingBlock: AJUNOK_clean_linker_0, # of connection points: 2
#     Edge 74, Type (0, 1), BuildingBlock: AJUNOK_clean_linker_0, # of connection points: 2
#     Edge 75, Type (0, 1), BuildingBlock: AJUNOK_clean_linker_0, # of connection points: 2
#     Edge 76, Type (0, 1), BuildingBlock: AJUNOK_clean_linker_0, # of connection points: 2
#     Edge 77, Type (0, 1), BuildingBlock: AJUNOK_clean_linker_0, # of connection points: 2
#     Edge 78, Type (0, 1), BuildingBlock: AJUNOK_clean_linker_0, # of connection points: 2
#     Edge 79, Type (0, 1), BuildingBlock: AJUNOK_clean_linker_0, # of connection points: 2
#     Edge 80, Type (0, 1), BuildingBlock: AJUNOK_clean_linker_0, # of connection points: 2
#     Edge 81, Type (0, 1), BuildingBlock: AJUNOK_clean_linker_0, # of connection points: 2
#     Edge 82, Type (0, 1), BuildingBlock: AJUNOK_clean_linker_0, # of connection points: 2
#     Edge 83, Type (0, 1), BuildingBlock: AJUNOK_clean_linker_0, # of connection points: 2
#     Edge 84, Type (0, 1), BuildingBlock: AJUNOK_clean_linker_0, # of connection points: 2
#     Edge 85, Type (0, 1), BuildingBlock: AJUNOK_clean_linker_0, # of connection points: 2
#     Edge 86, Type (0, 1), BuildingBlock: AJUNOK_clean_linker_0, # of connection points: 2
#     Edge 87, Type (0, 1), BuildingBlock: AJUNOK_clean_linker_0, # of connection points: 2
#     Edge 88, Type (0, 1), BuildingBlock: AJUNOK_clean_linker_0, # of connection points: 2
#     Edge 89, Type (0, 1), BuildingBlock: AJUNOK_clean_linker_0, # of connection points: 2
#     Edge 90, Type (0, 1), BuildingBlock: AJUNOK_clean_linker_0, # of connection points: 2
#     Edge 91, Type (0, 1), BuildingBlock: AJUNOK_clean_linker_0, # of connection points: 2
#     Edge 92, Type (0, 1), BuildingBlock: AJUNOK_clean_linker_0, # of connection points: 2
#     Edge 93, Type (0, 1), BuildingBlock: AJUNOK_clean_linker_0, # of connection points: 2
#     Edge 94, Type (0, 1), BuildingBlock: AJUNOK_clean_linker_0, # of connection points: 2
#     Edge 95, Type (0, 1), BuildingBlock: AJUNOK_clean_linker_0, # of connection points: 2
#     Edge 96, Type (0, 1), BuildingBlock: AJUNOK_clean_linker_0, # of connection points: 2
#     Edge 97, Type (0, 1), BuildingBlock: AJUNOK_clean_linker_0, # of connection points: 2
#     Edge 98, Type (0, 1), BuildingBlock: AJUNOK_clean_linker_0, # of connection points: 2
#     Edge 99, Type (0, 1), BuildingBlock: AJUNOK_clean_linker_0, # of connection points: 2
#     Edge 100, Type (0, 1), BuildingBlock: AJUNOK_clean_linker_0, # of connection points: 2
#     Edge 101, Type (0, 1), BuildingBlock: AJUNOK_clean_linker_0, # of connection points: 2
#     Edge 102, Type (0, 1), BuildingBlock: AJUNOK_clean_linker_0, # of connection points: 2
#     Edge 103, Type (0, 1), BuildingBlock: AJUNOK_clean_linker_0, # of connection points: 2
#     Edge 104, Type (0, 1), BuildingBlock: AJUNOK_clean_linker_0, # of connection points: 2
#     Edge 105, Type (0, 1), BuildingBlock: AJUNOK_clean_linker_0, # of connection points: 2
#     Edge 106, Type (0, 1), BuildingBlock: AJUNOK_clean_linker_0, # of connection points: 2
#     Edge 107, Type (0, 1), BuildingBlock: AJUNOK_clean_linker_0, # of connection points: 2
#     Edge 108, Type (0, 1), BuildingBlock: AJUNOK_clean_linker_0, # of connection points: 2
#     Edge 109, Type (0, 1), BuildingBlock: AJUNOK_clean_linker_0, # of connection points: 2
#     Edge 110, Type (0, 1), BuildingBlock: AJUNOK_clean_linker_0, # of connection points: 2
#     Edge 111, Type (0, 1), BuildingBlock: AJUNOK_clean_linker_0, # of connection points: 2
#     Edge 112, Type (0, 1), BuildingBlock: AJUNOK_clean_linker_0, # of connection points: 2
#     Edge 113, Type (0, 1), BuildingBlock: AJUNOK_clean_linker_0, # of connection points: 2
#     Edge 114, Type (0, 1), BuildingBlock: AJUNOK_clean_linker_0, # of connection points: 2
#     Edge 115, Type (0, 1), BuildingBlock: AJUNOK_clean_linker_0, # of connection points: 2
#     Edge 116, Type (0, 1), BuildingBlock: AJUNOK_clean_linker_0, # of connection points: 2
#     Edge 117, Type (0, 1), BuildingBlock: AJUNOK_clean_linker_0, # of connection points: 2
#     Edge 118, Type (0, 1), BuildingBlock: AJUNOK_clean_linker_0, # of connection points: 2
#     Edge 119, Type (0, 1), BuildingBlock: AJUNOK_clean_linker_0, # of connection points: 2
#     Edge 120, Type (0, 1), BuildingBlock: AJUNOK_clean_linker_0, # of connection points: 2
#     Edge 121, Type (0, 1), BuildingBlock: AJUNOK_clean_linker_0, # of connection points: 2
#     Edge 122, Type (0, 1), BuildingBlock: AJUNOK_clean_linker_0, # of connection points: 2
#     Edge 123, Type (0, 1), BuildingBlock: AJUNOK_clean_linker_0, # of connection points: 2
#     Edge 124, Type (0, 1), BuildingBlock: AJUNOK_clean_linker_0, # of connection points: 2
#     Edge 125, Type (0, 1), BuildingBlock: AJUNOK_clean_linker_0, # of connection points: 2
#     Edge 126, Type (0, 1), BuildingBlock: AJUNOK_clean_linker_0, # of connection points: 2
#     Edge 127, Type (0, 1), BuildingBlock: AJUNOK_clean_linker_0, # of connection points: 2
#     Edge 128, Type (0, 1), BuildingBlock: AJUNOK_clean_linker_0, # of connection points: 2
#     Edge 129, Type (0, 1), BuildingBlock: AJUNOK_clean_linker_0, # of connection points: 2
#     Edge 130, Type (0, 1), BuildingBlock: AJUNOK_clean_linker_0, # of connection points: 2
#     Edge 131, Type (0, 1), BuildingBlock: AJUNOK_clean_linker_0, # of connection points: 2
#     Edge 132, Type (0, 1), BuildingBlock: AJUNOK_clean_linker_0, # of connection points: 2
#     Edge 133, Type (0, 1), BuildingBlock: AJUNOK_clean_linker_0, # of connection points: 2
#     Edge 134, Type (0, 1), BuildingBlock: AJUNOK_clean_linker_0, # of connection points: 2
#     Edge 135, Type (0, 1), BuildingBlock: AJUNOK_clean_linker_0, # of connection points: 2
# Relax obj value: 0.290
# Max RMSD: 0.343
# Mean RMSD: 0.176
data_MOF--net-gar--node1-GALJAG_clean_sbu_0--node2-CUWYAW_clean_sbu_0--edge1-AJUNOK_clean_linker_0
_symmetry_space_group_name_H-M    P1
_symmetry_Int_Tables_number       1
_symmetry_cell_setting            triclinic
loop_
_symmetry_equiv_pos_as_xyz
'x, y, z'
_cell_length_a     50.21496
_cell_length_b     39.855502
_cell_length_c     39.761545
_cell_angle_alpha  96.948171
_cell_angle_beta   96.452004
_cell_angle_gamma 98.443979
loop_
_atom_site_label
_atom_site_type_symbol
_atom_site_fract_x
_atom_site_fract_y
_atom_site_fract_z
_atom_type_partial_charge
In0 In 0.11917 0.35273 0.52641 0.0
O1 O 0.11713 0.3181 0.47704 0.0
O2 O 0.14943 0.36046 0.48829 0.0
C3 C 0.06575 0.34931 0.50806 0.0
C4 C 0.14319 0.31597 0.56931 0.0
C5 C 0.12459 0.41461 0.56211 0.0
O6 O 0.08361 0.36884 0.49659 0.0
O7 O 0.07489 0.33074 0.52879 0.0
O8 O 0.11095 0.38841 0.57044 0.0
O9 O 0.13612 0.40944 0.53563 0.0
C10 C 0.13773 0.33445 0.46767 0.0
O11 O 0.15201 0.34715 0.56917 0.0
O12 O 0.12249 0.30359 0.54805 0.0
In13 In 0.07592 0.75052 0.73264 0.0
O14 O 0.10285 0.76152 0.69206 0.0
O15 O 0.10368 0.8011 0.73321 0.0
C16 C 0.0425 0.71329 0.67951 0.0
C17 C 0.11385 0.72066 0.76549 0.0
C18 C 1.0417 0.78158 0.76817 0.0
O19 O 0.05483 0.74293 0.67839 0.0
O20 O 0.04574 0.70306 0.70836 0.0
O21 O 0.04727 0.75259 0.7734 0.0
O22 O 0.05333 0.79441 0.74516 0.0
C23 C 0.11238 0.79177 0.70554 0.0
O24 O 0.1078 0.74889 0.77745 0.0
O25 O 0.09881 0.70614 0.73864 0.0
In26 In 0.62056 0.85423 0.04824 0.0
O27 O 0.62686 0.81013 1.01007 0.0
O28 O 0.64613 0.86036 1.00521 0.0
C29 C 0.56728 0.8431 1.02289 0.0
C30 C 0.6426 0.82933 0.10263 0.0
C31 C 0.62942 0.91927 0.07844 0.0
O32 O 0.58382 0.86857 1.01814 0.0
O33 O 0.57773 0.82252 0.04003 0.0
O34 O 0.61414 0.89546 0.08814 0.0
O35 O 0.64056 0.91044 0.0525 0.0
C36 C 0.64169 0.82878 0.99366 0.0
O37 O 0.61809 0.83321 0.09787 0.0
O38 O 0.65617 0.83619 0.0788 0.0
In39 In 0.56551 0.23896 0.22309 0.0
O40 O 0.54526 0.23159 0.16866 0.0
O41 O 0.53274 0.19369 0.19947 0.0
C42 C 0.60376 0.27996 0.19814 0.0
C43 C 0.53393 0.27417 0.25901 0.0
C44 C 0.60074 0.2041 0.25426 0.0
O45 O 0.59345 0.25036 0.18356 0.0
O46 O 0.59525 0.28857 0.22609 0.0
O47 O 0.59608 0.23273 0.26734 0.0
O48 O 0.5855 0.19157 0.2269 0.0
C49 C 0.53095 0.20324 0.17019 0.0
O50 O 0.54085 0.24684 0.26755 0.0
O51 O 0.54231 0.28279 0.23215 0.0
In52 In 0.12446 0.83619 0.22269 0.0
O53 O 0.12454 0.79626 0.17623 0.0
O54 O 0.10386 0.78075 0.21701 0.0
C55 C 0.12374 0.88768 0.18414 0.0
C56 C 0.08001 0.83948 0.25597 0.0
C57 C 0.17623 0.83897 0.25396 0.0
O58 O 0.11505 0.85667 0.17262 0.0
O59 O 0.13395 0.89286 0.21521 0.0
O60 O 0.15973 0.85638 0.26658 0.0
O61 O 0.16656 0.8205 0.2261 0.0
C62 C 0.11035 0.77252 0.18776 0.0
O63 O 0.10052 0.82786 0.26844 0.0
O64 O 0.08265 0.85048 0.22795 0.0
In65 In 0.5269 0.78816 0.47321 0.0
O66 O 0.54909 0.79087 0.42525 0.0
O67 O 0.57281 0.79858 0.47392 0.0
C68 C 0.47446 0.78258 0.44353 0.0
C69 C 0.52872 0.72869 0.49979 0.0
C70 C 0.53653 0.85101 0.51015 0.0
O71 O 0.49312 0.77389 0.42715 0.0
O72 O 0.48214 0.79348 0.4747 0.0
O73 O 0.5418 0.82477 0.52285 0.0
O74 O 0.52634 0.84545 0.47911 0.0
C75 C 0.57266 0.7967 0.44203 0.0
O76 O 0.52109 0.75411 0.51582 0.0
O77 O 0.53445 0.73297 0.47044 0.0
In78 In 0.62876 0.33686 0.71881 0.0
O79 O 0.63027 0.29729 0.67273 0.0
O80 O 0.60998 0.28054 0.71332 0.0
C81 C 0.62737 0.38908 0.68135 0.0
C82 C 0.58408 0.33898 0.75176 0.0
C83 C 0.6805 0.34133 0.75068 0.0
O84 O 0.61908 0.35814 0.66929 0.0
O85 O 0.63746 0.39386 0.71243 0.0
O86 O 0.66298 0.35653 0.76383 0.0
O87 O 0.67186 0.32413 0.72185 0.0
C88 C 0.61696 0.27283 0.68422 0.0
O89 O 0.60585 0.33129 0.76579 0.0
O90 O 0.58537 0.34631 0.722 0.0
In91 In 1.02721 0.28686 0.97534 0.0
O92 O 1.02927 0.26185 1.02403 0.0
O93 O 1.02309 0.22888 0.97691 0.0
C94 C 1.03786 0.35104 1.00925 0.0
C95 C 0.07328 0.28947 0.94427 0.0
C96 C 0.97467 0.28147 0.94593 0.0
O97 O 1.04064 0.32509 1.02378 0.0
O98 O 1.02935 0.34469 0.97764 0.0
O99 O 0.99238 0.26806 0.93124 0.0
O100 O 0.98334 0.29725 0.97546 0.0
C101 C 1.02679 0.23162 1.00909 0.0
O102 O 0.0501 0.28815 0.9276 0.0
O103 O 0.07285 0.28901 0.97573 0.0
In104 In 0.45253 0.08449 0.34002 0.0
O105 O 0.48494 0.10817 0.30465 0.0
O106 O 0.46574 0.05813 0.28825 0.0
C107 C 0.48816 0.0843 0.40188 0.0
C108 C 0.42152 0.141 0.34069 0.0
C109 C 0.41904 1.01974 0.33888 0.0
O110 O 0.49502 0.08128 0.37207 0.0
O111 O 0.46363 0.08853 0.40094 0.0
O112 O 0.43306 0.03731 0.3652 0.0
O113 O 0.42119 0.03485 0.31283 0.0
C114 C 0.48272 0.08247 0.28178 0.0
O115 O 0.41237 0.1104 0.32748 0.0
O116 O 0.44608 0.1434 0.35344 0.0
In117 In 0.27791 0.19262 0.56433 0.0
O118 O 0.27757 0.23882 0.60509 0.0
O119 O 0.30007 0.19995 0.61827 0.0
C120 C 0.2797 0.22958 0.51055 0.0
C121 C 0.32095 0.15798 0.56208 0.0
C122 C 0.2261 0.15871 0.56514 0.0
O123 O 0.28107 0.24328 0.54115 0.0
O124 O 0.27637 0.19734 0.50702 0.0
O125 O 0.23944 0.15373 0.54046 0.0
O126 O 0.23886 0.18033 0.58937 0.0
C127 C 0.29281 0.2282 0.62768 0.0
O128 O 0.29723 0.1432 0.5642 0.0
O129 O 0.32257 0.18958 0.56039 0.0
In130 In 0.20478 0.04352 0.86213 0.0
O131 O 0.16564 0.05231 0.82601 0.0
O132 O 0.19373 1.02825 0.80145 0.0
C133 C 0.1735 0.04344 0.9206 0.0
C134 C 0.23611 0.98676 0.85914 0.0
C135 C 0.23882 0.10843 0.86145 0.0
O136 O 0.17201 1.01844 0.89708 0.0
O137 O 0.19092 0.06791 0.91536 0.0
O138 O 0.24708 0.08286 0.87276 0.0
O139 O 0.21377 0.10154 0.85069 0.0
C140 C 0.17164 0.03987 0.79756 0.0
O141 O 0.24192 1.014 0.88053 0.0
O142 O 0.21441 0.98754 0.83978 0.0
In143 In 0.28051 0.92583 1.01503 0.0
O144 O 0.27405 0.89219 0.05619 0.0
O145 O 0.30751 0.93305 0.0657 0.0
C146 C 0.25961 0.8738 0.966 0.0
C147 C 0.24834 0.97313 1.02585 0.0
C148 C 0.33238 0.93879 1.00326 0.0
O149 O 0.26184 0.87095 0.9973 0.0
O150 O 0.26534 0.9041 0.95933 0.0
O151 O 0.31994 0.96227 1.01446 0.0
O152 O 0.31794 0.90963 0.99564 0.0
C153 C 0.29517 0.90699 0.07559 0.0
O154 O 0.2663 0.97658 1.00617 0.0
O155 O 0.24565 0.94505 0.03755 0.0
In156 In 0.36964 0.42572 0.11929 0.0
O157 O 0.37067 0.37739 0.14509 0.0
O158 O 0.36983 0.42352 0.17704 0.0
C159 C 0.35957 0.39458 0.0538 0.0
C160 C 0.32368 0.45515 0.11808 0.0
C161 C 0.42229 0.45706 0.12276 0.0
O162 O 0.35534 0.37852 0.07872 0.0
O163 O 0.36868 0.42612 0.06193 0.0
O164 O 0.40437 0.47149 0.13597 0.0
O165 O 0.41384 0.42676 0.10852 0.0
C166 C 0.36972 0.39166 0.17494 0.0
O167 O 0.34709 0.47273 0.12036 0.0
O168 O 0.3238 0.42347 0.11674 0.0
In169 In 0.86474 0.17857 0.16795 0.0
O170 O 0.87028 0.12295 0.17176 0.0
O171 O 0.90417 0.15905 0.16486 0.0
C172 C 0.8123 0.1825 0.17308 0.0
C173 C 0.88573 0.22996 0.21742 0.0
C174 C 0.86 0.18451 0.10167 0.0
O175 O 0.82242 0.15637 0.18004 0.0
O176 O 0.8289 0.20619 0.16525 0.0
O177 O 0.87854 0.20267 0.12315 0.0
O178 O 0.84512 0.16167 0.11346 0.0
C179 C 0.89485 0.12824 0.16653 0.0
O180 O 0.88448 0.23305 0.18617 0.0
O181 O 0.87772 0.20011 0.224 0.0
In182 In 0.19286 0.54436 0.35808 0.0
O183 O 0.23353 0.51795 0.36483 0.0
O184 O 0.19769 0.48407 0.34998 0.0
C185 C 0.22691 0.60874 0.36022 0.0
C186 C 0.15758 0.54336 0.29538 0.0
C187 C 0.16312 0.55095 0.41692 0.0
O188 O 0.22501 0.59283 0.38579 0.0
O189 O 0.21223 0.59219 0.3338 0.0
O190 O 0.15904 0.52504 0.39397 0.0
O191 O 0.18196 0.57306 0.41052 0.0
C192 C 0.2232 0.48669 0.35679 0.0
O193 O 0.15033 0.5459 0.32498 0.0
O194 O 0.18242 0.54054 0.29696 0.0
In195 In 0.86974 0.92296 0.61898 0.0
O196 O 0.87172 0.87596 0.64639 0.0
O197 O 0.86703 0.92192 0.6764 0.0
C198 C 0.86281 0.88453 0.55608 0.0
C199 C 0.82458 0.95412 0.61769 0.0
C200 C 0.9214 0.95727 0.62142 0.0
O201 O 0.85201 0.87427 0.5809 0.0
O202 O 0.87757 0.91345 0.56321 0.0
O203 O 0.90084 0.966 0.60559 0.0
O204 O 0.9159 0.93228 0.6376 0.0
C205 C 0.86837 0.89037 0.67537 0.0
O206 O 0.84823 0.97085 0.62678 0.0
O207 O 0.82406 0.92259 0.6092 0.0
In208 In 0.9512 0.06901 0.32807 0.0
O209 O 0.98237 0.09498 0.29203 0.0
O210 O 0.96648 0.0439 0.27623 0.0
C211 C 0.98429 0.07105 0.39208 0.0
C212 C 0.92151 0.12666 0.33301 0.0
C213 C 0.91658 1.00466 0.32772 0.0
O214 O 0.99176 0.06344 0.36311 0.0
O215 O 0.96073 0.07895 0.38901 0.0
O216 O 0.9406 1.01277 0.34262 0.0
O217 O 0.90957 1.02875 0.31246 0.0
C218 C 0.98218 0.06941 0.26962 0.0
O219 O 0.91493 0.1001 0.31087 0.0
O220 O 0.94299 0.12458 0.35209 0.0
In221 In 0.36841 0.68548 0.67514 0.0
O222 O 0.38616 0.63664 0.68305 0.0
O223 O 0.392 0.65939 0.63827 0.0
C224 C 0.31637 0.65716 0.67258 0.0
C225 C 0.39545 0.73235 0.72605 0.0
C226 C 0.35415 0.73 0.63439 0.0
O227 O 0.32935 0.6546 0.64729 0.0
O228 O 0.33056 0.67098 0.70045 0.0
O229 O 0.34167 0.72302 0.65906 0.0
O230 O 0.37414 0.71467 0.63033 0.0
C231 C 0.3954 0.63498 0.65474 0.0
O232 O 0.39845 0.73363 0.69527 0.0
O233 O 0.38109 0.7053 0.73158 0.0
In234 In 0.45209 0.56948 0.82583 0.0
O235 O 0.41603 0.60117 0.80903 0.0
O236 O 0.44449 0.62537 0.84997 0.0
C237 C 0.41662 0.50534 0.82426 0.0
C238 C 0.48318 0.57149 0.76761 0.0
C239 C 0.48484 0.57021 0.88983 0.0
O240 O 0.40966 0.53106 0.81182 0.0
O241 O 0.44125 0.51159 0.83712 0.0
O242 O 0.49176 0.56114 0.86086 0.0
O243 O 0.46201 0.58013 0.88678 0.0
C244 C 0.42298 0.62779 0.83106 0.0
O245 O 0.4838 0.59618 0.79114 0.0
O246 O 0.46693 0.54587 0.77293 0.0
In247 In 0.69386 0.04594 0.85499 0.0
O248 O 0.73407 1.01979 0.86554 0.0
O249 O 0.69889 0.9863 0.84469 0.0
C250 C 0.72903 0.10876 0.85477 0.0
C251 C 0.65885 0.04355 0.79207 0.0
C252 C 0.66401 0.05158 0.91345 0.0
O253 O 0.71366 0.09189 0.82913 0.0
O254 O 0.72735 0.0939 0.88105 0.0
O255 O 0.66521 1.02374 0.89497 0.0
O256 O 0.67752 0.07645 0.90263 0.0
C257 C 0.724 0.9888 0.85483 0.0
O258 O 0.68295 0.03757 0.79406 0.0
O259 O 0.65182 0.04946 0.82157 0.0
In260 In 0.77745 0.69464 0.06538 0.0
O261 O 0.79732 0.64577 0.06875 0.0
O262 O 0.82123 0.69029 0.05773 0.0
C263 C 0.72762 0.65601 0.06645 0.0
C264 C 0.78803 0.73535 0.12685 0.0
C265 C 0.77867 0.73117 1.01152 0.0
O266 O 0.74533 0.66499 0.09224 0.0
O267 O 0.73532 0.66519 0.03932 0.0
O268 O 0.77887 0.74497 0.04191 0.0
O269 O 0.77651 0.69896 1.00824 0.0
C270 C 0.82032 0.65965 0.06288 0.0
O271 O 0.76643 0.73413 0.10677 0.0
O272 O 0.80448 0.7174 0.11522 0.0
In273 In 0.95222 0.58664 0.84384 0.0
O274 O 0.91273 0.61217 0.82841 0.0
O275 O 0.94559 0.64592 0.85549 0.0
C276 C 0.91969 0.52185 0.84341 0.0
C277 C 0.98051 0.58502 0.78437 0.0
C278 C 0.9875 0.58563 0.90613 0.0
O279 O 0.91883 0.54848 0.86374 0.0
O280 O 0.93656 0.52766 0.82265 0.0
O281 O 0.995 0.58583 0.87681 0.0
O282 O 0.96243 0.58683 0.90459 0.0
C283 C 0.92125 0.64289 0.84163 0.0
O284 O 0.98846 0.60511 0.81211 0.0
O285 O 0.95824 0.56617 0.78617 0.0
In286 In 0.76657 0.42788 0.51277 0.0
O287 O 0.75329 0.40157 0.55705 0.0
O288 O 0.78672 0.44234 0.5673 0.0
C289 C 0.75065 0.37387 0.46428 0.0
C290 C 0.73569 0.47745 0.51116 0.0
C291 C 0.81997 0.43618 0.50753 0.0
O292 O 0.751 0.37182 0.49563 0.0
O293 O 0.75573 0.40397 0.45698 0.0
O294 O 0.80657 0.46061 0.50671 0.0
O295 O 0.80616 0.40774 0.50988 0.0
C296 C 0.77216 0.41888 0.57861 0.0
O297 O 0.75853 0.4802 0.50051 0.0
O298 O 0.72776 0.44869 0.51998 0.0
In299 In 0.70328 0.541 0.35981 0.0
O300 O 0.74132 0.5123 0.37611 0.0
O301 O 0.71176 0.48441 0.33837 0.0
C302 C 0.7375 0.60522 0.35768 0.0
C303 C 0.66906 0.53876 0.2968 0.0
C304 C 0.67158 0.5408 0.41752 0.0
O305 O 0.74281 0.58451 0.37836 0.0
O306 O 0.7158 0.5934 0.33807 0.0
O307 O 0.68815 0.56593 0.41192 0.0
O308 O 0.67089 0.51564 0.39451 0.0
C309 C 0.73423 0.48417 0.35625 0.0
O310 O 0.66609 0.55535 0.32498 0.0
O311 O 0.68847 0.52196 0.30032 0.0
C312 C 0.14092 0.11235 0.14596 0.0
Eu313 Eu 0.09475 0.0793 0.1137 0.0
C314 C 0.16731 0.11313 0.13303 0.0
C315 C 0.18762 0.0991 0.15099 0.0
C316 C 0.20649 0.0843 0.13343 0.0
C317 C 0.20517 0.08348 0.09782 0.0
C318 C 0.1878 0.10244 0.08108 0.0
C319 C 0.16899 0.11732 0.09863 0.0
C320 C 0.04941 0.07325 0.15017 0.0
C321 C 0.09542 1.0012 0.1173 0.0
C322 C 1.01133 1.0049 0.04324 0.0
Eu323 Eu 0.05797 0.03775 0.07419 0.0
C324 C 0.98539 1.0031 0.0576 0.0
C325 C 0.96459 1.01818 0.04193 0.0
C326 C 0.94535 1.03007 0.06107 0.0
C327 C 0.9465 1.02654 0.09588 0.0
C328 C 0.96485 1.00736 0.11025 0.0
C329 C 0.98423 0.99563 0.09122 0.0
C330 C 0.10348 0.04279 0.03787 0.0
C331 C 0.05708 0.11621 0.0711 0.0
O332 O 0.12314 0.12727 0.12954 0.0
O333 O 0.13018 0.08215 0.15175 0.0
O334 O 0.065 0.10121 0.14705 0.0
O335 O 0.05765 0.04892 0.1321 0.0
O336 O 0.1117 1.02963 0.11572 0.0
O337 O 0.0696 0.99979 0.10753 0.0
O338 O 1.02979 0.98966 0.0579 0.0
O339 O 1.02151 0.03552 0.03796 0.0
O340 O 0.08732 1.01518 0.04071 0.0
O341 O 0.09544 0.06749 0.05579 0.0
O342 O 1.04105 0.08736 0.07174 0.0
O343 O 0.08283 0.11826 0.08168 0.0
H344 H 0.1868 0.09569 0.17751 0.0
H345 H 0.22007 0.07016 0.14692 0.0
H346 H 0.18653 0.10225 0.0537 0.0
H347 H 0.15375 0.1284 0.08419 0.0
H348 H 0.96509 1.02433 1.01617 0.0
H349 H 0.93136 0.04507 0.04967 0.0
H350 H 0.96603 1.00464 0.13712 0.0
H351 H 0.99994 0.98398 0.10403 0.0
C352 C 0.30489 0.84905 0.44095 0.0
Eu353 Eu 0.3173 0.82821 0.38081 0.0
C354 C 0.30403 0.83614 0.47368 0.0
C355 C 0.31742 0.85728 0.5033 0.0
C356 C 0.3224 0.84352 0.53348 0.0
C357 C 0.31371 0.80863 0.53425 0.0
C358 C 0.29825 0.78815 0.50551 0.0
C359 C 0.29354 0.8018 0.47519 0.0
C360 C 0.28474 0.83952 0.32469 0.0
C361 C 0.29427 0.74617 0.35686 0.0
C362 C 0.34644 0.77879 0.2615 0.0
Eu363 Eu 0.33308 0.79824 0.32137 0.0
C364 C 0.34928 0.79525 0.23097 0.0
C365 C 0.33608 0.77785 0.19944 0.0
C366 C 0.33177 0.79583 0.17196 0.0
C367 C 0.34071 0.83131 0.17583 0.0
C368 C 0.35636 0.84791 0.20631 0.0
C369 C 0.36056 0.83001 0.23386 0.0
C370 C 0.36502 0.78528 0.37702 0.0
C371 C 0.35487 0.88077 0.34448 0.0
O372 O 0.32916 0.85561 0.43217 0.0
O373 O 0.28696 0.83351 0.41543 0.0
O374 O 0.29506 0.86253 0.35035 0.0
O375 O 0.2928 0.81173 0.3292 0.0
O376 O 0.3022 0.77041 0.38372 0.0
O377 O 0.30137 0.75274 0.32707 0.0
O378 O 0.32166 0.77347 0.26893 0.0
O379 O 0.36419 0.79088 0.28836 0.0
O380 O 0.3534 0.76268 0.35164 0.0
O381 O 0.35769 0.81378 0.37319 0.0
O382 O 0.34727 0.85616 0.31795 0.0
O383 O 0.34818 0.87426 0.37442 0.0
H384 H 0.32564 0.88383 0.50245 0.0
H385 H 0.33444 0.8595 0.55556 0.0
H386 H 0.29163 0.76106 0.5058 0.0
H387 H 0.28319 0.78506 0.45257 0.0
H388 H 0.32728 0.75101 0.19687 0.0
H389 H 0.31988 0.78251 0.14843 0.0
H390 H 0.36342 0.87522 0.20973 0.0
H391 H 0.37086 0.84394 0.258 0.0
C392 C 0.49548 0.06616 0.61888 0.0
Eu393 Eu 0.54598 0.06226 0.61049 0.0
C394 C 0.46945 0.07503 0.60416 0.0
C395 C 0.44573 0.06338 0.61771 0.0
C396 C 0.42121 0.07429 0.60737 0.0
C397 C 0.41973 0.09692 0.58291 0.0
C398 C 0.44349 0.10792 0.56872 0.0
C399 C 0.46813 0.09715 0.57929 0.0
C400 C 0.58467 0.05179 0.66373 0.0
C401 C 0.58707 0.13339 0.6148 0.0
C402 C 0.65236 0.05709 0.57479 0.0
Eu403 Eu 0.6018 0.06173 0.58221 0.0
C404 C 0.67624 0.04095 0.58586 0.0
C405 C 0.67843 1.00768 0.57124 0.0
C406 C 0.70216 0.99392 0.57871 0.0
C407 C 0.72436 1.01283 0.60134 0.0
C408 C 0.72216 0.04608 0.61608 0.0
C409 C 0.69847 0.06002 0.60828 0.0
C410 C 0.56326 0.07259 0.52888 0.0
C411 C 0.56088 0.99155 0.57715 0.0
O412 O 0.50321 0.03825 0.60514 0.0
O413 O 0.51573 0.09137 0.62862 0.0
O414 O 0.55922 0.05282 0.6655 0.0
O415 O 0.588 0.05545 0.63295 0.0
O416 O 0.56151 0.1185 0.61234 0.0
O417 O 0.60672 0.11629 0.60738 0.0
O418 O 0.64535 0.08089 0.5962 0.0
O419 O 0.63135 0.03744 0.55619 0.0
O420 O 0.58879 0.07168 0.52759 0.0
O421 O 0.55953 0.06866 0.55955 0.0
O422 O 0.58664 1.00588 0.5837 0.0
O423 O 0.54108 1.0096 0.58036 0.0
H424 H 0.44637 0.0467 0.63727 0.0
H425 H 0.40368 0.06603 0.61965 0.0
H426 H 0.44311 0.12534 0.54983 0.0
H427 H 0.48624 0.10676 0.56873 0.0
H428 H 0.66207 0.99248 0.55318 0.0
H429 H 0.70335 0.96874 0.56589 0.0
H430 H 0.73881 0.06141 0.63357 0.0
H431 H 0.69769 0.08596 0.61952 0.0
C432 C 0.40481 0.28386 0.84272 0.0
Eu433 Eu 0.35439 0.2933 0.84363 0.0
C434 C 0.43144 0.29683 0.83279 0.0
C435 C 0.45182 0.27634 0.8349 0.0
C436 C 0.47683 0.28646 0.82378 0.0
C437 C 0.48207 0.31738 0.81021 0.0
C438 C 0.46179 0.33842 0.80896 0.0
C439 C 0.43661 0.32814 0.82002 0.0
C440 C 0.31399 0.23976 0.85382 0.0
C441 C 0.31837 0.28941 0.7704 0.0
C442 C 0.24899 0.32902 0.84104 0.0
Eu443 Eu 0.29979 0.32117 0.84055 0.0
C444 C 0.22323 0.31797 0.85413 0.0
C445 C 0.19985 0.33013 0.84127 0.0
C446 C 0.17556 0.32287 0.85506 0.0
C447 C 0.17407 0.30324 0.88208 0.0
C448 C 0.19735 0.28995 0.89408 0.0
C449 C 0.22178 0.29746 0.88039 0.0
C450 C 0.34005 0.37478 0.83055 0.0
C451 C 0.33754 0.32983 0.91226 0.0
O452 O 0.39644 0.30129 0.86843 0.0
O453 O 0.38521 0.27124 0.81793 0.0
O454 O 0.33968 0.23887 0.85485 0.0
O455 O 0.31108 0.2702 0.84893 0.0
O456 O 0.34308 0.2925 0.78699 0.0
O457 O 0.29758 0.29587 0.78621 0.0
O458 O 0.25708 0.3077 0.81815 0.0
O459 O 0.26904 0.34626 0.86317 0.0
O460 O 0.31437 0.37567 0.82993 0.0
O461 O 0.34316 0.34436 0.83539 0.0
O462 O 0.31214 0.3229 0.89735 0.0
O463 O 0.35798 0.32482 0.89525 0.0
H464 H 0.44819 0.25203 0.84459 0.0
H465 H 0.49182 0.26952 0.8249 0.0
H466 H 0.46532 0.36272 0.79929 0.0
H467 H 0.42113 0.34435 0.81821 0.0
H468 H 0.20058 0.34609 0.82108 0.0
H469 H 0.15815 0.33363 0.84528 0.0
H470 H 0.19677 0.27402 0.91428 0.0
H471 H 0.2396 0.28773 0.8906 0.0
C472 C 0.09716 0.96483 0.56293 0.0
Eu473 Eu 0.08414 1.02481 0.57973 0.0
C474 C 0.10783 0.94095 0.58414 0.0
C475 C 0.12853 0.92333 0.57424 0.0
C476 C 0.13909 0.90128 0.59515 0.0
C477 C 0.12894 0.89666 0.6261 0.0
C478 C 0.10877 0.91523 0.63621 0.0
C479 C 0.09843 0.93723 0.61556 0.0
C480 C 0.11831 0.0821 0.57159 0.0
C481 C 0.10735 0.04757 0.66163 0.0
C482 C 0.06102 0.14359 0.63444 0.0
Eu483 Eu 0.06839 0.08213 0.61187 0.0
C484 C 0.08091 0.17267 0.65199 0.0
C485 C 0.07491 0.20577 0.65184 0.0
C486 C 0.09602 0.23345 0.65588 0.0
C487 C 0.12322 0.22798 0.65933 0.0
C488 C 0.12896 0.19564 0.66519 0.0
C489 C 0.10782 0.16797 0.66125 0.0
C490 C 1.03214 1.02519 0.61695 0.0
C491 C 0.04655 0.05984 0.52825 0.0
O492 O 0.07227 0.96969 0.56586 0.0
O493 O 0.11359 0.99338 0.56306 0.0
O494 O 0.10728 0.05786 0.54722 0.0
O495 O 0.10969 0.07606 0.59938 0.0
O496 O 0.1 1.02147 0.63661 0.0
O497 O 0.10031 0.07718 0.65606 0.0
O498 O 0.05624 0.1177 0.65126 0.0
O499 O 0.06478 0.13409 0.60294 0.0
O500 O 1.04197 0.04921 0.64186 0.0
O501 O 0.04249 1.03184 0.59053 0.0
O502 O 0.04868 0.08345 0.55566 0.0
O503 O 0.05781 1.03225 0.53144 0.0
H504 H 0.13641 0.92653 0.55035 0.0
H505 H 0.15483 0.88753 0.58695 0.0
H506 H 0.10021 0.91188 0.65964 0.0
H507 H 0.08281 0.95101 0.6241 0.0
H508 H 0.05426 0.20979 0.64479 0.0
H509 H 0.09101 0.25819 0.6513 0.0
H510 H 0.14974 0.19088 0.66805 0.0
H511 H 0.11282 0.14252 0.66152 0.0
C512 C 0.29884 0.76817 0.74833 0.0
Eu513 Eu 0.31739 0.79618 0.80985 0.0
C514 C 0.27437 0.74178 0.74244 0.0
C515 C 0.27114 0.71848 0.76632 0.0
C516 C 0.24528 0.7048 0.7726 0.0
C517 C 0.22243 0.71349 0.75446 0.0
C518 C 0.22553 0.73317 0.72771 0.0
C519 C 0.25141 0.74715 0.72159 0.0
C520 C 0.28591 0.78213 0.8593 0.0
C521 C 0.30274 0.86892 0.84779 0.0
C522 C 0.3679 0.84031 0.94412 0.0
Eu523 Eu 0.34642 0.82201 0.88121 0.0
C524 C 0.39666 0.84104 0.95747 0.0
C525 C 0.41703 0.85244 0.93811 0.0
C526 C 0.44394 0.84945 0.9478 0.0
C527 C 0.45166 0.8364 0.97806 0.0
C528 C 0.43133 0.82573 0.99806 0.0
C529 C 0.40397 0.82736 0.98742 0.0
C530 C 0.37774 0.83243 0.83028 0.0
C531 C 0.36049 0.74866 0.84412 0.0
O532 O 0.29451 0.79863 0.76036 0.0
O533 O 0.32033 0.75993 0.76499 0.0
O534 O 0.27661 0.78356 0.82803 0.0
O535 O 0.31114 0.78213 0.86093 0.0
O536 O 0.30349 0.85001 0.81768 0.0
O537 O 0.31585 0.86067 0.87605 0.0
O538 O 0.35402 0.80974 0.93315 0.0
O539 O 0.36333 0.8625 0.92322 0.0
O540 O 0.38681 0.82905 0.86111 0.0
O541 O 0.35299 0.83521 0.82953 0.0
O542 O 0.36227 0.76981 0.87331 0.0
O543 O 0.3454 0.75488 0.81648 0.0
H544 H 0.28842 0.71392 0.78303 0.0
H545 H 0.24317 0.6898 0.79341 0.0
H546 H 0.20792 0.74033 0.71373 0.0
H547 H 0.25333 0.76525 0.7034 0.0
H548 H 0.41222 0.86332 0.915 0.0
H549 H 0.45872 0.85743 0.93132 0.0
H550 H 0.43649 0.81659 1.0221 0.0
H551 H 0.38859 0.81828 1.00271 0.0
C552 C 0.61207 0.17082 0.12762 0.0
Eu553 Eu 0.58814 0.10828 0.10759 0.0
C554 C 0.64123 0.18273 0.12854 0.0
C555 C 0.65592 0.16288 0.10823 0.0
C556 C 0.68397 0.16608 0.1158 0.0
C557 C 0.69788 0.18961 0.14342 0.0
C558 C 0.68364 0.21218 0.16131 0.0
C559 C 0.65529 0.20829 0.15439 0.0
C560 C 0.61512 0.05616 0.1207 0.0
C561 C 0.60231 0.06743 0.03667 0.0
C562 C 0.53358 0.9754 0.06279 0.0
Eu563 Eu 0.55601 0.03791 0.08453 0.0
C564 C 0.50449 0.96174 0.05716 0.0
C565 C 0.48727 0.97425 0.07947 0.0
C566 C 0.45931 0.96908 0.06949 0.0
C567 C 0.44826 0.95132 0.03717 0.0
C568 C 0.46523 0.93697 1.01576 0.0
C569 C 0.49327 0.94262 1.02559 0.0
C570 C 0.52753 0.08992 0.07383 0.0
C571 C 0.54388 0.07556 0.15756 0.0
O572 O 0.59822 0.16097 0.0972 0.0
O573 O 0.60674 0.14878 0.14872 0.0
O574 O 0.62648 0.08397 0.11104 0.0
O575 O 0.59081 0.0579 0.12383 0.0
O576 O 0.60274 0.09825 0.05428 0.0
O577 O 0.58831 0.04022 0.04677 0.0
O578 O 0.54467 0.98541 0.09455 0.0
O579 O 0.54065 0.99747 0.04231 0.0
O580 O 0.51683 0.05999 0.07964 0.0
O581 O 0.55197 0.08898 0.06994 0.0
O582 O 0.54278 0.0456 0.13814 0.0
O583 O 0.55789 0.10375 0.14871 0.0
H584 H 0.64555 0.14304 0.08806 0.0
H585 H 0.69467 0.14902 0.10109 0.0
H586 H 0.69418 0.23123 0.18196 0.0
H587 H 0.64432 0.22364 0.17055 0.0
H588 H 0.49549 0.98988 0.10364 0.0
H589 H 0.44641 0.97996 0.08649 0.0
H590 H 0.45696 0.92322 0.99069 0.0
H591 H 0.50645 0.9344 1.00764 0.0
C592 C 0.3949 0.38025 0.37468 0.0
Eu593 Eu 0.34828 0.3409 0.3647 0.0
C594 C 0.41865 0.37483 0.35759 0.0
C595 C 0.44469 0.38031 0.37629 0.0
C596 C 0.46619 0.36828 0.36161 0.0
C597 C 0.46175 0.3506 0.32814 0.0
C598 C 0.43593 0.34653 0.30912 0.0
C599 C 0.41459 0.35832 0.32376 0.0
C600 C 0.31636 0.31081 0.40761 0.0
C601 C 0.35513 0.25781 0.34155 0.0
C602 C 0.25181 0.24574 0.30694 0.0
Eu603 Eu 0.29754 0.2871 0.32198 0.0
C604 C 0.22674 0.2461 0.32284 0.0
C605 C 0.20562 0.26114 0.30761 0.0
C606 C 0.18648 0.27262 0.32713 0.0
C607 C 0.18831 0.26883 0.36179 0.0
C608 C 0.20724 0.25016 0.37585 0.0
C609 C 0.22621 0.23855 0.3564 0.0
C610 C 0.33066 0.31596 0.27953 0.0
C611 C 0.28993 0.36959 0.34863 0.0
O612 O 0.37392 0.38687 0.35519 0.0
O613 O 0.38814 0.35728 0.3945 0.0
O614 O 0.33723 0.33469 0.41823 0.0
O615 O 0.31329 0.30641 0.37542 0.0
O616 O 0.36661 0.29039 0.35324 0.0
O617 O 0.32862 0.25021 0.32983 0.0
O618 O 0.2728 0.23848 0.32586 0.0
O619 O 0.2583 0.27191 0.2907 0.0
O620 O 0.30953 0.29275 0.26872 0.0
O621 O 0.33282 0.32093 0.31156 0.0
O622 O 0.27858 0.33693 0.33653 0.0
O623 O 0.31669 0.37753 0.35896 0.0
H624 H 0.44808 0.39244 0.40264 0.0
H625 H 0.48603 0.37197 0.37663 0.0
H626 H 0.43188 0.33263 0.28344 0.0
H627 H 0.39457 0.35282 0.30915 0.0
H628 H 0.20537 0.26685 0.28163 0.0
H629 H 0.17175 0.28683 0.316 0.0
H630 H 0.20857 0.24675 0.40259 0.0
H631 H 0.24181 0.22639 0.3687 0.0
C632 C 0.59412 0.46189 0.06379 0.0
Eu633 Eu 0.58299 0.52324 0.07917 0.0
C634 C 0.60435 0.43733 0.08451 0.0
C635 C 0.62341 0.41774 0.07298 0.0
C636 C 0.6329 0.394 0.09261 0.0
C637 C 0.6232 0.38947 0.12384 0.0
C638 C 0.60495 0.41026 0.1358 0.0
C639 C 0.59575 0.43405 0.11644 0.0
C640 C 0.61971 0.57871 0.07172 0.0
C641 C 0.60618 0.54803 0.16065 0.0
C642 C 0.56355 0.64559 0.12992 0.0
Eu643 Eu 0.56917 0.58305 0.10904 0.0
C644 C 0.58213 0.67363 0.15141 0.0
C645 C 0.57461 0.70597 0.15636 0.0
C646 C 0.5943 0.73453 0.16862 0.0
C647 C 0.62188 0.73105 0.17568 0.0
C648 C 0.62862 0.69803 0.17489 0.0
C649 C 0.60881 0.66943 0.16267 0.0
C650 C 0.53218 0.52899 0.1186 0.0
C651 C 0.54668 0.55856 1.02614 0.0
O652 O 0.5697 0.46815 0.06757 0.0
O653 O 0.61121 0.48966 0.06312 0.0
O654 O 0.60853 0.55487 0.047 0.0
O655 O 0.60991 0.57324 0.0988 0.0
O656 O 0.59788 0.5211 0.13668 0.0
O657 O 0.60081 0.57792 0.15332 0.0
O658 O 0.55476 0.61971 0.14509 0.0
O659 O 0.57122 0.63608 0.10034 0.0
O660 O 0.54336 0.55408 0.14181 0.0
O661 O 0.54184 0.53266 0.09087 0.0
O662 O 0.54948 0.58308 0.0528 0.0
O663 O 0.55716 0.53056 0.03029 0.0
H664 H 0.63069 0.42052 0.04867 0.0
H665 H 0.64733 0.37879 0.08307 0.0
H666 H 0.59681 0.40717 0.15954 0.0
H667 H 0.58142 0.44935 0.12619 0.0
H668 H 0.55405 0.70953 0.14795 0.0
H669 H 0.58825 0.7595 0.1684 0.0
H670 H 0.64961 0.6946 0.18021 0.0
H671 H 0.61482 0.64441 0.15927 0.0
C672 C 0.79205 0.26074 0.2505 0.0
Eu673 Eu 0.81236 0.29033 0.31099 0.0
C674 C 0.76351 0.24359 0.24244 0.0
C675 C 0.75715 0.20807 0.24336 0.0
C676 C 0.73089 0.19323 0.24734 0.0
C677 C 0.71092 0.21391 0.25122 0.0
C678 C 0.71667 0.24876 0.24775 0.0
C679 C 0.74258 0.26338 0.24285 0.0
C680 C 0.78119 0.28045 0.36155 0.0
C681 C 0.79774 0.36386 0.34629 0.0
C682 C 0.86469 0.34286 0.44228 0.0
Eu683 Eu 0.84242 0.31876 0.38058 0.0
C684 C 0.89393 0.3474 0.45439 0.0
C685 C 0.91247 0.35652 0.43186 0.0
C686 C 0.93987 0.3553 0.4399 0.0
C687 C 0.94994 0.3473 0.4718 0.0
C688 C 0.93145 0.33886 0.49488 0.0
C689 C 0.90356 0.33838 0.48596 0.0
C690 C 0.87237 0.32689 0.32778 0.0
C691 C 0.85742 0.24574 0.34558 0.0
O692 O 0.79622 0.2942 0.25842 0.0
O693 O 0.80688 0.24612 0.27162 0.0
O694 O 0.77181 0.281 0.33011 0.0
O695 O 0.8063 0.27926 0.36328 0.0
O696 O 0.79718 0.34336 0.3168 0.0
O697 O 0.81181 0.35701 0.37449 0.0
O698 O 0.85283 0.31097 0.43361 0.0
O699 O 0.85778 0.36251 0.41975 0.0
O700 O 0.88209 0.32311 0.35824 0.0
O701 O 0.84786 0.33015 0.32815 0.0
O702 O 0.85802 0.26634 0.37486 0.0
O703 O 0.84303 0.25216 0.31753 0.0
H704 H 0.7729 0.19219 0.24335 0.0
H705 H 0.72661 0.16615 0.24934 0.0
H706 H 0.70116 0.26491 0.24969 0.0
H707 H 0.7466 0.29071 0.24212 0.0
H708 H 0.9058 0.36384 0.40742 0.0
H709 H 0.95304 0.36027 0.4207 0.0
H710 H 0.93852 0.33271 0.51979 0.0
H711 H 0.88954 0.33079 0.50353 0.0
C712 C 0.11676 0.66381 0.6405 0.0
Eu713 Eu 0.08824 0.60582 0.61279 0.0
C714 C 0.14593 0.66751 0.65235 0.0
C715 C 0.15582 0.64021 0.66627 0.0
C716 C 0.1834 0.6386 0.67005 0.0
C717 C 0.2018 0.66464 0.66083 0.0
C718 C 0.19221 0.69294 0.64852 0.0
C719 C 0.16434 0.69426 0.64409 0.0
C720 C 0.10975 0.54834 0.62021 0.0
C721 C 0.09962 0.56811 0.53882 0.0
C722 C 1.0226 0.48125 0.55897 0.0
Eu723 Eu 0.05019 0.54086 0.5839 0.0
C724 C 0.99334 0.46961 0.5558 0.0
C725 C 0.97693 0.49029 0.57206 0.0
C726 C 0.94883 0.48354 0.56329 0.0
C727 C 0.93684 0.45618 0.53798 0.0
C728 C 0.9532 0.43425 0.52339 0.0
C729 C 0.98134 0.44091 0.53248 0.0
C730 C 1.0288 0.59968 0.57841 0.0
C731 C 1.04061 0.57588 0.65959 0.0
O732 O 0.11019 0.65607 0.60741 0.0
O733 O 0.10104 0.64485 0.65733 0.0
O734 O 0.12378 0.57698 0.61607 0.0
O735 O 0.08581 0.55244 0.62338 0.0
O736 O 0.10274 0.59786 0.5594 0.0
O737 O 0.08244 0.5416 0.54559 0.0
O738 O 1.03548 0.48802 0.59014 0.0
O739 O 1.02941 0.50505 0.54013 0.0
O740 O 1.01494 0.57076 0.5824 0.0
O741 O 0.05237 0.59471 0.57398 0.0
O742 O 1.03566 0.54727 0.63722 0.0
O743 O 0.05812 0.60244 0.65355 0.0
H744 H 0.14213 0.61912 0.67287 0.0
H745 H 0.19028 0.61652 0.67949 0.0
H746 H 0.20621 0.71357 0.64164 0.0
H747 H 0.15712 0.71526 0.63289 0.0
H748 H 0.9859 0.51241 0.59052 0.0
H749 H 0.93653 0.5002 0.57566 0.0
H750 H 0.9443 0.41296 0.50398 0.0
H751 H 0.99394 0.42468 0.52046 0.0
C752 C 0.89411 0.77511 0.32785 0.0
Eu753 Eu 0.84764 0.793 0.34131 0.0
C754 C 0.92113 0.78984 0.31926 0.0
C755 C 0.92612 0.78664 0.285 0.0
C756 C 0.95193 0.79795 0.27657 0.0
C757 C 0.97355 0.81266 0.30214 0.0
C758 C 0.96867 0.81591 0.33644 0.0
C759 C 0.94274 0.8047 0.34492 0.0
C760 C 0.80663 0.74234 0.35494 0.0
C761 C 0.81002 0.79109 0.2713 0.0
C762 C 0.75592 0.84064 0.35694 0.0
Eu763 Eu 0.80172 0.82046 0.34374 0.0
C764 C 0.7283 0.8288 0.36517 0.0
C765 C 0.70632 0.84265 0.35059 0.0
C766 C 0.68049 0.83508 0.36065 0.0
C767 C 0.67601 0.81337 0.38554 0.0
C768 C 0.69793 0.79874 0.39945 0.0
C769 C 0.72379 0.80631 0.38934 0.0
C770 C 0.84336 0.87064 0.3303 0.0
C771 C 0.839 0.823 0.41345 0.0
O772 O 0.88843 0.78317 0.35871 0.0
O773 O 0.87312 0.77354 0.3049 0.0
O774 O 0.83162 0.74858 0.3691 0.0
O775 O 0.80385 0.76367 0.33385 0.0
O776 O 0.83535 0.79901 0.2859 0.0
O777 O 0.79077 0.79112 0.29092 0.0
O778 O 0.76123 0.83148 0.32616 0.0
O779 O 0.77646 0.84053 0.38004 0.0
O780 O 0.81839 0.86497 0.31615 0.0
O781 O 0.84555 0.84938 0.35145 0.0
O782 O 0.8137 0.81394 0.39909 0.0
O783 O 0.85813 0.82367 0.39359 0.0
H784 H 0.91015 0.77472 0.26463 0.0
H785 H 0.95515 0.79432 0.24997 0.0
H786 H 0.98495 0.82705 0.3567 0.0
H787 H 0.93976 0.8072 0.3716 0.0
H788 H 0.70934 0.86031 0.33215 0.0
H789 H 0.66429 0.84735 0.34991 0.0
H790 H 0.69515 0.78182 0.41858 0.0
H791 H 0.74036 0.79524 0.40104 0.0
C792 C 0.80631 0.33775 0.94208 0.0
Eu793 Eu 0.81906 0.32664 0.8807 0.0
C794 C 0.80453 0.31474 0.96798 0.0
C795 C 0.82086 0.32487 0.99953 0.0
C796 C 0.82764 0.30027 1.0195 0.0
C797 C 0.8182 0.26539 1.00796 0.0
C798 C 0.79916 0.25566 0.9786 0.0
C799 C 0.79231 0.28027 0.95863 0.0
C800 C 0.78704 0.34132 0.82602 0.0
C801 C 0.79717 0.24532 0.85109 0.0
C802 C 0.84594 0.28976 0.75634 0.0
Eu803 Eu 0.83551 0.30081 0.81885 0.0
C804 C 0.84096 0.30997 0.72856 0.0
C805 C 0.82466 0.29407 0.69828 0.0
C806 C 0.81345 0.31386 0.67558 0.0
C807 C 0.81822 0.34977 0.68311 0.0
C808 C 0.83606 0.36562 0.7122 0.0
C809 C 0.8474 0.34587 0.73472 0.0
C810 C 0.86777 0.28536 0.87291 0.0
C811 C 0.85589 0.38302 0.84817 0.0
O812 O 0.83088 0.34598 0.93458 0.0
O813 O 0.78822 0.32975 0.91492 0.0
O814 O 0.79615 0.36257 0.85352 0.0
O815 O 0.79537 0.31328 0.82853 0.0
O816 O 0.8046 0.26812 0.87905 0.0
O817 O 0.80457 0.25374 0.82202 0.0
O818 O 0.82384 0.27544 0.76662 0.0
O819 O 0.86445 0.30398 0.78182 0.0
O820 O 0.85833 0.26464 0.84518 0.0
O821 O 0.85952 0.31369 0.87108 0.0
O822 O 0.84972 0.35943 0.82064 0.0
O823 O 0.8482 0.37508 0.87724 0.0
H824 H 0.83031 0.35136 1.00723 0.0
H825 H 0.84158 0.3083 0.04291 0.0
H826 H 0.79115 0.22889 0.96986 0.0
H827 H 0.77926 0.27187 0.93461 0.0
H828 H 0.81935 0.26642 0.69318 0.0
H829 H 0.80049 0.30109 0.65261 0.0
H830 H 0.8403 0.39328 0.71832 0.0
H831 H 0.85998 0.3588 0.75781 0.0
C832 C 0.89457 0.88159 0.87459 0.0
Eu833 Eu 0.848 0.84201 0.86532 0.0
C834 C 0.91987 0.87631 0.86063 0.0
C835 C 0.94232 0.87101 0.88264 0.0
C836 C 0.9641 0.85849 0.86936 0.0
C837 C 0.96382 0.85139 0.83387 0.0
C838 C 0.94231 0.85894 0.81189 0.0
C839 C 0.92046 0.87116 0.82511 0.0
C840 C 0.81636 0.81274 0.90921 0.0
C841 C 0.85388 0.75869 0.84231 0.0
C842 C 0.74942 0.74815 0.8152 0.0
Eu843 Eu 0.79583 0.78821 0.82468 0.0
C844 C 0.72599 0.74991 0.83442 0.0
C845 C 0.70649 0.77028 0.82512 0.0
C846 C 0.68888 0.7798 0.84795 0.0
C847 C 0.69042 0.76898 0.88029 0.0
C848 C 0.70782 0.74572 0.88814 0.0
C849 C 0.7254 0.73613 0.86532 0.0
C850 C 0.82798 0.81597 0.78068 0.0
C851 C 0.78989 0.87144 0.84967 0.0
O852 O 0.87415 0.88608 0.85277 0.0
O853 O 0.88715 0.86059 0.89605 0.0
O854 O 0.83762 0.83612 0.91947 0.0
O855 O 0.81311 0.80851 0.8771 0.0
O856 O 0.8659 0.79117 0.85361 0.0
O857 O 0.82715 0.75147 0.8316 0.0
O858 O 0.77128 0.74058 0.83196 0.0
O859 O 0.755 0.77325 0.79726 0.0
O860 O 0.80655 0.79284 0.77062 0.0
O861 O 0.83085 0.82132 0.81276 0.0
O862 O 0.77812 0.83889 0.83817 0.0
O863 O 0.81669 0.87902 0.85987 0.0
H864 H 0.94234 0.87481 0.9101 0.0
H865 H 0.98075 0.85337 0.88675 0.0
H866 H 0.94173 0.85369 0.78441 0.0
H867 H 0.90348 0.87486 0.8074 0.0
H868 H 0.70605 0.7808 0.80122 0.0
H869 H 0.67507 0.79711 0.84109 0.0
H870 H 0.70918 0.73683 0.91288 0.0
H871 H 0.73978 0.71985 0.87299 0.0
C872 C 0.64132 0.61585 0.64018 0.0
Eu873 Eu 0.59537 0.58008 0.61045 0.0
C874 C 0.66643 0.62043 0.62415 0.0
C875 C 0.68849 0.60612 0.63774 0.0
C876 C 0.70535 0.59251 0.61596 0.0
C877 C 0.70051 0.59377 0.58071 0.0
C878 C 0.6821 0.61398 0.56845 0.0
C879 C 0.66496 0.62722 0.59007 0.0
C880 C 0.55068 0.57537 0.64835 0.0
C881 C 0.59694 0.50288 0.61708 0.0
C882 C 0.512 0.50372 0.54375 0.0
Eu883 Eu 0.55855 0.53786 0.57357 0.0
C884 C 0.48684 0.50123 0.55938 0.0
C885 C 0.46248 0.50427 0.54003 0.0
C886 C 0.44168 0.51597 0.55638 0.0
C887 C 0.4454 0.52545 0.59212 0.0
C888 C 0.46836 0.51799 0.61148 0.0
C889 C 0.48886 0.5058 0.59522 0.0
C890 C 0.60312 0.54106 0.53573 0.0
C891 C 0.55867 0.61412 0.56444 0.0
O892 O 0.62127 0.62984 0.62743 0.0
O893 O 0.6332 0.58426 0.64453 0.0
O894 O 0.56566 0.60307 0.64322 0.0
O895 O 0.55899 0.55051 0.6313 0.0
O896 O 0.61294 0.53122 0.61462 0.0
O897 O 0.571 0.50108 0.60789 0.0
O898 O 0.53107 0.48917 0.55797 0.0
O899 O 0.52127 0.53467 0.53852 0.0
O900 O 0.58734 0.51388 0.5404 0.0
O901 O 0.59533 0.56642 0.55274 0.0
O902 O 0.5421 0.588 0.57113 0.0
O903 O 0.58454 0.6137 0.57161 0.0
H904 H 0.69012 0.60073 0.66389 0.0
H905 H 0.7196 0.57698 0.62582 0.0
H906 H 0.67857 0.61568 0.5414 0.0
H907 H 0.64837 0.63855 0.57884 0.0
H908 H 0.46061 0.50104 0.51237 0.0
H909 H 0.42394 0.52104 0.54087 0.0
H910 H 0.47205 0.52532 0.63889 0.0
H911 H 0.5076 0.50383 0.61068 0.0
C912 C 0.99256 0.5613 0.11796 0.0
Eu913 Eu 0.04385 0.55965 0.11274 0.0
C914 C 0.96846 0.57543 0.10406 0.0
C915 C 0.96784 0.61086 0.10864 0.0
C916 C 0.94392 0.62345 0.09888 0.0
C917 C 0.92003 0.601 0.08411 0.0
C918 C 0.9208 0.56563 0.07905 0.0
C919 C 0.94472 0.55302 0.08891 0.0
C920 C 0.0822 0.5492 0.16654 0.0
C921 C 0.08267 0.63273 0.11889 0.0
C922 C 0.15228 0.56122 0.0813 0.0
Eu923 Eu 0.10102 0.56323 0.08663 0.0
C924 C 0.1756 0.54347 0.09077 0.0
C925 C 0.17927 0.51353 0.07034 0.0
C926 C 0.20273 0.49893 0.07669 0.0
C927 C 0.22323 0.51378 0.10366 0.0
C928 C 0.21955 0.54359 0.12427 0.0
C929 C 0.19602 0.55826 0.1179 0.0
C930 C 0.06273 0.57453 0.03323 0.0
C931 C 0.0614 0.49091 0.07805 0.0
O932 O 1.00091 0.53707 0.09853 0.0
O933 O 1.01265 0.58277 0.13635 0.0
O934 O 0.05635 0.54815 0.1671 0.0
O935 O 0.08605 0.55422 0.13619 0.0
O936 O 0.05745 0.61629 0.1146 0.0
O937 O 0.10342 0.61729 0.11231 0.0
O938 O 0.14414 0.58163 0.10506 0.0
O939 O 0.13208 0.544 0.05933 0.0
O940 O 0.08852 0.57517 0.03245 0.0
O941 O 0.05885 0.56905 0.06344 0.0
O942 O 0.08691 0.5064 0.08424 0.0
O943 O 1.0409 0.50727 0.08307 0.0
H944 H 0.98561 0.62891 0.1206 0.0
H945 H 0.94393 0.65076 0.10394 0.0
H946 H 0.9028 0.54765 0.06772 0.0
H947 H 0.94449 0.52559 0.08542 0.0
H948 H 0.16435 0.50178 0.04876 0.0
H949 H 0.20517 0.47648 0.05978 0.0
H950 H 0.23496 0.55568 0.14522 0.0
H951 H 0.1941 0.58163 0.13379 0.0
C952 C 1.02106 0.16861 1.01264 0.0
C953 C 1.03166 0.2025 0.02753 0.0
C954 C 1.02816 0.14059 0.02794 0.0
C955 C 0.04674 0.1456 0.058 0.0
H956 H 1.00761 0.16372 0.98868 0.0
H957 H 1.02009 0.11489 1.01527 0.0
S958 S 0.07921 0.22895 0.10803 0.0
N959 N 0.06044 0.23928 0.07523 0.0
N960 N 0.0745 0.18667 0.10305 0.0
C961 C 0.05687 0.17924 0.07361 0.0
C962 C 0.04912 0.2077 0.05862 0.0
C963 C 0.21626 0.86535 0.29773 0.0
C964 C 0.20455 0.83976 0.27037 0.0
C965 C 0.2427 0.86604 0.31412 0.0
C966 C 0.25835 0.84085 0.30418 0.0
H967 H 0.20487 0.88491 0.30674 0.0
H968 H 0.25055 0.8859 0.33548 0.0
S969 S 0.23779 0.76918 0.23308 0.0
N970 N 0.21133 0.78937 0.23314 0.0
N971 N 0.26063 0.79044 0.26443 0.0
C972 C 0.24715 0.81559 0.27643 0.0
C973 C 0.22038 0.81509 0.25944 0.0
C974 C 0.52545 0.90986 0.52155 0.0
C975 C 0.54217 0.88581 0.52961 0.0
C976 C 0.53107 0.94366 0.53818 0.0
C977 C 0.55404 0.95488 0.56282 0.0
H978 H 0.50794 0.90253 0.50209 0.0
H979 H 0.51785 0.96143 0.53075 0.0
S980 S 0.60399 0.90175 0.59347 0.0
N981 N 0.58212 0.87514 0.56459 0.0
N982 N 0.59326 0.93909 0.59508 0.0
C983 C 0.57077 0.931 0.5714 0.0
C984 C 0.56466 0.89632 0.55503 0.0
C985 C 0.55758 0.3274 0.80042 0.0
C986 C 0.55839 0.33688 0.76753 0.0
C987 C 0.53304 0.32228 0.81446 0.0
C988 C 0.50825 0.32645 0.79624 0.0
H989 H 0.57595 0.32318 0.81522 0.0
H990 H 0.53344 0.31452 0.83967 0.0
S991 S 0.49921 0.35147 0.70925 0.0
N992 N 0.53211 0.35104 0.71742 0.0
N993 N 0.48619 0.34082 0.74352 0.0
C994 C 0.50888 0.33671 0.76366 0.0
C995 C 0.53385 0.34202 0.74939 0.0
C996 C 0.13507 0.85065 0.70224 0.0
C997 C 0.12731 0.81647 0.68684 0.0
C998 C 0.13961 0.87695 0.68231 0.0
C999 C 0.13622 0.86984 0.64641 0.0
H1000 H 0.13504 0.85752 0.72945 0.0
H1001 H 0.14286 0.90317 0.69483 0.0
S1002 S 0.12439 0.78374 0.59489 0.0
N1003 N 0.12322 0.77616 0.63464 0.0
N1004 N 0.1307 0.82582 0.59697 0.0
C1005 C 0.13272 0.83548 0.63125 0.0
C1006 C 0.12847 0.80863 0.65162 0.0
C1007 C 0.52814 0.865 0.99406 0.0
C1008 C 0.53786 0.83918 1.01064 0.0
C1009 C 0.50048 0.86337 0.98339 0.0
C1010 C 0.48106 0.83609 0.98907 0.0
H1011 H 0.54197 0.88704 0.98951 0.0
H1012 H 0.4943 0.88415 0.97092 0.0
S1013 S 0.49626 0.75974 0.02801 0.0
N1014 N 0.5262 0.78402 0.03018 0.0
N1015 N 0.47398 0.7808 1.00969 0.0
C1016 C 0.49055 0.8094 1.00469 0.0
C1017 C 0.51895 0.81101 1.01556 0.0
C1018 C 0.53442 0.18163 0.11021 0.0
C1019 C 0.52061 0.179 0.13894 0.0
C1020 C 0.53359 0.15307 0.08577 0.0
C1021 C 0.51872 0.12131 0.08921 0.0
H1022 H 0.54849 0.20457 0.10858 0.0
H1023 H 0.54684 0.15499 0.06614 0.0
S1024 S 0.4707 0.10529 0.15219 0.0
N1025 N 0.48601 0.14523 0.1644 0.0
N1026 N 0.48347 0.09164 0.11749 0.0
C1027 C 0.50085 0.1202 0.11411 0.0
C1028 C 0.50217 0.14911 0.13947 0.0
C1029 C 0.17629 0.33216 0.43403 0.0
C1030 C 0.14881 0.32156 0.4369 0.0
C1031 C 0.18861 0.3157 0.40845 0.0
C1032 C 0.17373 0.28855 0.38481 0.0
H1033 H 0.18872 0.35197 0.45271 0.0
H1034 H 0.21016 0.32339 0.40784 0.0
S1035 S 0.10056 0.25438 0.37821 0.0
N1036 N 0.10642 0.28458 0.41172 0.0
N1037 N 0.12995 0.25388 0.36336 0.0
C1038 C 0.14594 0.27929 0.38576 0.0
C1039 C 0.13335 0.2958 0.41196 0.0
C1040 C 1.01174 0.10013 0.22874 0.0
C1041 C 0.99886 0.06933 0.23858 0.0
C1042 C 1.02727 0.10079 0.20053 0.0
C1043 C 1.03154 0.07074 0.1799 0.0
H1044 H 1.00977 0.12435 0.24301 0.0
H1045 H 1.03626 0.12557 0.19496 0.0
S1046 S 1.00361 0.98265 0.1946 0.0
N1047 N 0.99226 1.00737 0.22439 0.0
N1048 N 1.0215 1.0087 0.17306 0.0
C1049 C 1.01896 0.0397 0.18954 0.0
C1050 C 1.0028 0.039 0.21809 0.0
C1051 C 0.31732 0.7567 0.6071 0.0
C1052 C 0.34486 0.75279 0.61101 0.0
C1053 C 0.30728 0.77581 0.58277 0.0
C1054 C 0.32469 0.79219 0.56245 0.0
H1055 H 0.30323 0.74385 0.62199 0.0
H1056 H 0.28578 0.77726 0.57933 0.0
S1057 S 0.39852 0.79152 0.56412 0.0
N1058 N 0.38945 0.76779 0.5935 0.0
N1059 N 0.37058 0.80441 0.54813 0.0
C1060 C 0.35238 0.78955 0.56695 0.0
C1061 C 0.3625 0.76963 0.59122 0.0
C1062 C 0.61384 0.0515 0.75857 0.0
C1063 C 0.64072 0.04491 0.75836 0.0
C1064 C 0.59664 0.05354 0.72813 0.0
C1065 C 0.605 0.04951 0.69512 0.0
H1066 H 0.60582 0.05517 0.78268 0.0
H1067 H 0.5763 0.0586 0.7307 0.0
S1068 S 0.67318 1.03086 0.67912 0.0
N1069 N 0.6746 1.03363 0.72112 0.0
N1070 N 0.64259 0.03785 0.66466 0.0
C1071 C 0.63184 0.04288 0.69433 0.0
C1072 C 0.64944 0.04049 0.7255 0.0
C1073 C 0.33306 0.35025 1.00722 0.0
C1074 C 0.35446 0.37785 1.01786 0.0
C1075 C 0.32741 0.33491 0.97288 0.0
C1076 C 0.34355 0.34594 0.94836 0.0
H1077 H 0.32026 0.34092 1.0254 0.0
H1078 H 0.31052 0.31405 0.96556 0.0
S1079 S 0.4022 0.41684 0.96329 0.0
N1080 N 0.39173 0.4156 1.00111 0.0
N1081 N 0.38177 0.38606 0.93704 0.0
C1082 C 0.36523 0.37316 0.95882 0.0
C1083 C 0.37051 0.38931 0.99347 0.0
C1084 C 0.99448 0.08461 0.45812 0.0
C1085 C 1.00099 0.06921 0.42662 0.0
C1086 C 1.00938 0.08235 0.49041 0.0
C1087 C 1.03135 0.06379 0.4934 0.0
H1088 H 0.97762 0.09872 0.45789 0.0
H1089 H 1.00317 0.09469 0.51336 0.0
S1090 S 0.05727 1.01869 0.41932 0.0
N1091 N 1.03182 0.03513 0.40136 0.0
N1092 N 0.05882 1.03007 0.46092 0.0
C1093 C 1.03802 0.04829 0.4621 0.0
C1094 C 1.02324 0.05119 0.42928 0.0
C1095 C 0.41087 0.76596 0.78337 0.0
C1096 C 0.3981 0.76392 0.74993 0.0
C1097 C 0.40697 0.79164 0.8087 0.0
C1098 C 0.38874 0.81453 0.80167 0.0
H1099 H 0.42258 0.74649 0.79037 0.0
H1100 H 0.41609 0.79113 0.83462 0.0
S1101 S 0.35364 0.82238 0.71676 0.0
N1102 N 0.36999 0.78969 0.7097 0.0
N1103 N 0.36098 0.83641 0.75808 0.0
C1104 C 0.37777 0.81448 0.76773 0.0
C1105 C 0.38272 0.7893 0.74165 0.0
C1106 C 0.64633 0.08742 0.96305 0.0
C1107 C 0.64827 0.05501 0.94497 0.0
C1108 C 0.63187 0.09122 0.99209 0.0
C1109 C 0.61819 0.06289 1.00534 0.0
H1110 H 0.6561 0.11041 0.95462 0.0
H1111 H 0.63138 0.1169 1.00424 0.0
S1112 S 0.6175 0.97189 0.96908 0.0
N1113 N 0.6353 0.99377 0.94407 0.0
N1114 N 0.60873 1.00063 0.99746 0.0
C1115 C 0.62023 1.0303 0.98768 0.0
C1116 C 0.63494 1.02647 0.95812 0.0
C1117 C 0.36157 0.38911 0.23611 0.0
C1118 C 0.36514 0.37207 0.20406 0.0
C1119 C 0.35253 0.37078 0.26199 0.0
C1120 C 0.34661 0.33481 0.25659 0.0
H1121 H 0.36447 0.41683 0.24069 0.0
H1122 H 0.34846 0.38487 0.28539 0.0
S1123 S 0.35605 0.27776 0.17956 0.0
N1124 N 0.36486 0.31681 0.1703 0.0
N1125 N 0.34745 0.28277 0.21851 0.0
C1126 C 0.35175 0.31751 0.22569 0.0
C1127 C 0.36119 0.33601 0.19956 0.0
C1128 C 0.21827 0.99557 0.06515 0.0
C1129 C 0.23502 1.00144 0.03972 0.0
C1130 C 0.20912 1.02248 0.08376 0.0
C1131 C 0.21619 0.05641 0.07765 0.0
H1132 H 0.21279 0.97005 0.07164 0.0
H1133 H 0.19634 1.01659 0.10319 0.0
S1134 S 0.25688 0.0853 1.01125 0.0
N1135 N 0.2566 0.04349 1.00743 0.0
N1136 N 0.23888 0.09437 0.04251 0.0
C1137 C 0.23165 0.06263 0.05107 0.0
C1138 C 0.2412 0.03507 0.03209 0.0
C1139 C 0.68253 0.62211 0.03829 0.0
C1140 C 0.69987 0.63724 0.0683 0.0
C1141 C 0.65649 0.60387 0.03962 0.0
C1142 C 0.64654 0.60034 0.07099 0.0
H1143 H 0.68924 0.62391 1.01352 0.0
H1144 H 0.64414 0.59217 1.01582 0.0
S1145 S 0.6833 0.63652 0.15704 0.0
N1146 N 0.7047 0.64836 0.13041 0.0
N1147 N 0.656 0.61446 0.13282 0.0
C1148 C 0.66343 0.61605 0.10115 0.0
C1149 C 0.69 0.63434 0.09983 0.0
C1150 C 0.74446 0.42567 0.32688 0.0
C1151 C 0.75069 0.45366 0.35393 0.0
C1152 C 0.75958 0.3976 0.32418 0.0
C1153 C 0.78186 0.39494 0.34866 0.0
H1154 H 0.72767 0.42544 0.30718 0.0
H1155 H 0.75339 0.37744 0.30271 0.0
S1156 S 0.80731 0.46084 0.42474 0.0
N1157 N 0.78166 0.47609 0.40566 0.0
N1158 N 0.80897 0.42426 0.4013 0.0
C1159 C 0.78811 0.42264 0.37596 0.0
C1160 C 0.77303 0.45143 0.37836 0.0
C1161 C 0.86336 0.41374 0.51844 0.0
C1162 C 0.84986 0.44092 0.51044 0.0
C1163 C 0.89161 0.41868 0.52655 0.0
C1164 C 0.90734 0.45084 0.52664 0.0
H1165 H 0.852 0.38876 0.51985 0.0
H1166 H 0.90112 0.39759 0.53414 0.0
S1167 S 0.8824 0.52896 0.50283 0.0
N1168 N 0.85465 0.50029 0.50006 0.0
N1169 N 0.90793 0.50929 0.51463 0.0
C1170 C 0.89432 0.4777 0.51683 0.0
C1171 C 0.86552 0.47277 0.50877 0.0
C1172 C 0.37765 0.16695 0.32534 0.0
C1173 C 0.40499 0.17123 0.34115 0.0
C1174 C 0.36207 0.19443 0.32557 0.0
C1175 C 0.3726 0.22846 0.34149 0.0
H1176 H 0.368 0.14189 0.31251 0.0
H1177 H 0.34137 0.18875 0.31289 0.0
S1178 S 0.44264 0.2542 0.38816 0.0
N1179 N 0.44136 0.21316 0.37425 0.0
N1180 N 0.41277 0.26376 0.37451 0.0
C1181 C 0.39988 0.23303 0.35754 0.0
C1182 C 0.41571 0.20501 0.35741 0.0
C1183 C 0.37155 0.16107 0.56884 0.0
C1184 C 0.34553 0.14096 0.56448 0.0
C1185 C 0.39527 0.1465 0.57375 0.0
C1186 C 0.39412 0.11108 0.57442 0.0
H1187 H 0.3737 0.18859 0.56939 0.0
H1188 H 0.41467 0.16338 0.5782 0.0
S1189 S 0.33118 0.04645 0.56065 0.0
N1190 N 0.32013 0.08333 0.55897 0.0
N1191 N 0.36465 0.05582 0.56748 0.0
C1192 C 0.36825 0.09044 0.56882 0.0
C1193 C 0.34403 0.10537 0.564 0.0
C1194 C 0.77946 0.65219 0.37835 0.0
C1195 C 0.75469 0.64048 0.35658 0.0
C1196 C 0.79558 0.68471 0.37766 0.0
C1197 C 0.78806 0.70794 0.35528 0.0
H1198 H 0.78666 0.63599 0.39619 0.0
H1199 H 0.81435 0.69167 0.39503 0.0
S1200 S 0.72493 0.69092 0.2931 0.0
N1201 N 0.72351 0.65601 0.31186 0.0
N1202 N 0.75335 0.7162 0.31086 0.0
C1203 C 0.76323 0.69674 0.33356 0.0
C1204 C 0.74683 0.66353 0.33413 0.0
C1205 C 0.9017 0.45878 0.81845 0.0
C1206 C 0.90284 0.48677 0.84448 0.0
C1207 C 0.88634 0.4259 0.8194 0.0
C1208 C 0.87145 0.41883 0.84666 0.0
H1209 H 0.91283 0.46223 0.79699 0.0
H1210 H 0.88659 0.40567 0.79875 0.0
S1211 S 0.86723 0.48295 0.92141 0.0
N1212 N 0.88705 0.50462 0.89831 0.0
N1213 N 0.85897 0.44378 0.90038 0.0
C1214 C 0.87242 0.44668 0.8728 0.0
C1215 C 0.88779 0.48016 0.87163 0.0
C1216 C 0.13246 0.94958 0.17564 0.0
C1217 C 0.11916 0.91582 0.16407 0.0
C1218 C 0.12586 0.97712 0.15913 0.0
C1219 C 0.10531 0.97185 0.13105 0.0
H1220 H 0.14758 0.95488 0.1981 0.0
H1221 H 0.13594 1.00283 0.16947 0.0
S1222 S 0.06596 0.88841 0.08898 0.0
N1223 N 0.08591 0.87864 0.121 0.0
N1224 N 0.07313 0.93041 0.09083 0.0
C1225 C 0.09266 0.93819 0.11843 0.0
C1226 C 0.0997 0.91016 0.13471 0.0
C1227 C 0.93174 0.30689 0.93827 0.0
C1228 C 0.94641 0.28032 0.92928 0.0
C1229 C 0.90592 0.30783 0.92076 0.0
C1230 C 0.89352 0.2819 0.89399 0.0
H1231 H 0.9407 0.32781 0.95817 0.0
H1232 H 0.89588 0.32944 0.92772 0.0
S1233 S 0.92204 0.2044 0.86366 0.0
N1234 N 0.94575 0.22619 0.8937 0.0
N1235 N 0.89712 0.22718 0.86161 0.0
C1236 C 0.9074 0.25421 0.88613 0.0
C1237 C 0.93386 0.25366 0.9035 0.0
C1238 C 0.58628 0.21657 0.67142 0.0
C1239 C 0.6094 0.23801 0.66493 0.0
C1240 C 0.57865 0.18327 0.65394 0.0
C1241 C 0.59418 0.16987 0.62981 0.0
H1242 H 0.57393 0.22558 0.69018 0.0
H1243 H 0.5609 0.16756 0.66026 0.0
S1244 S 0.65632 0.21591 0.6031 0.0
N1245 N 0.6474 0.244 0.63203 0.0
N1246 N 0.63347 0.18092 0.59977 0.0
C1247 C 0.61724 0.19116 0.62283 0.0
C1248 C 0.62472 0.22537 0.6402 0.0
C1249 C 0.6235 0.80829 0.44772 0.0
C1250 C 0.5984 0.80059 0.42634 0.0
C1251 C 0.64828 0.81186 0.43428 0.0
C1252 C 0.64919 0.80799 0.39879 0.0
H1253 H 0.62411 0.81176 0.47525 0.0
H1254 H 0.66693 0.81833 0.45193 0.0
S1255 S 0.58945 0.78617 0.33146 0.0
N1256 N 0.57612 0.78826 0.36765 0.0
N1257 N 0.6227 0.79477 0.3424 0.0
C1258 C 0.62429 0.79999 0.37702 0.0
C1259 C 0.59895 0.79631 0.39076 0.0
C1260 C 0.14994 0.30951 0.6303 0.0
C1261 C 0.15223 0.29692 0.59639 0.0
C1262 C 0.14509 0.28685 0.65408 0.0
C1263 C 0.14274 0.25131 0.64434 0.0
H1264 H 0.14807 0.33614 0.63718 0.0
H1265 H 0.1395 0.29664 0.67848 0.0
S1266 S 0.1555 0.20775 0.56114 0.0
N1267 N 0.158 0.24859 0.5563 0.0
N1268 N 0.14959 0.20581 0.60093 0.0
C1269 C 0.15002 0.23949 0.61232 0.0
C1270 C 0.15444 0.26246 0.58812 0.0
C1271 C 0.63772 0.17361 0.23678 0.0
C1272 C 0.62748 0.1937 0.26246 0.0
C1273 C 0.66571 0.17705 0.23517 0.0
C1274 C 0.68397 0.20025 0.25949 0.0
H1275 H 0.6241 0.15842 0.21557 0.0
H1276 H 0.67277 0.16434 0.213 0.0
S1277 S 0.66809 0.24911 0.33793 0.0
N1278 N 0.63819 0.23032 0.31737 0.0
N1279 N 0.69081 0.23664 0.31429 0.0
C1280 C 0.67431 0.21574 0.28826 0.0
C1281 C 0.64593 0.21228 0.2899 0.0
C1282 C 0.6432 0.98208 0.07837 0.0
C1283 C 0.63129 0.95503 0.09425 0.0
C1284 C 0.64019 1.01594 0.08923 0.0
C1285 C 0.62488 1.02336 0.11587 0.0
H1286 H 0.65345 0.97693 0.05619 0.0
H1287 H 0.64802 0.03587 0.07498 0.0
S1288 S 0.59403 0.9629 0.16972 0.0
N1289 N 0.60731 0.93887 0.14141 0.0
N1290 N 0.601 1.00235 0.16079 0.0
C1291 C 0.61498 0.9971 0.13375 0.0
C1292 C 0.61834 0.96287 0.12317 0.0
C1293 C 1.01744 0.83128 0.77844 0.0
C1294 C 1.02275 0.79934 0.78678 0.0
C1295 C 0.9988 0.84833 0.79437 0.0
C1296 C 0.98498 0.83425 0.81946 0.0
H1297 H 1.02745 0.84309 0.75906 0.0
H1298 H 0.99501 0.87261 0.78682 0.0
S1299 S 0.99136 0.7514 0.85063 0.0
N1300 N 1.01267 0.75438 0.82197 0.0
N1301 N 0.97752 0.78657 0.85191 0.0
C1302 C 0.99031 0.80262 0.82848 0.0
C1303 C 1.00922 0.78512 0.81213 0.0
C1304 C 0.14166 1.014 0.96015 0.0
C1305 C 0.15618 0.04425 0.95114 0.0
C1306 C 0.12548 1.01413 0.9878 0.0
C1307 C 0.12199 0.04453 1.00859 0.0
H1308 H 0.14287 0.98957 0.9457 0.0
H1309 H 0.11532 0.98968 0.99277 0.0
S1310 S 0.15416 0.13157 0.99582 0.0
N1311 N 0.16518 0.10615 0.96632 0.0
N1312 N 0.13452 0.10634 1.01627 0.0
C1313 C 0.13613 0.07505 0.99967 0.0
C1314 C 0.15307 0.07491 0.97182 0.0
C1315 C 0.8086 0.41638 0.62509 0.0
C1316 C 0.78122 0.40672 0.61073 0.0
C1317 C 0.82021 0.39854 0.64946 0.0
C1318 C 0.80474 0.37073 0.66056 0.0
H1319 H 0.82175 0.43624 0.61571 0.0
H1320 H 0.84176 0.40544 0.65829 0.0
S1321 S 0.73086 0.34021 0.63653 0.0
N1322 N 0.73802 0.37086 0.6129 0.0
N1323 N 0.75976 0.33792 0.65979 0.0
C1324 C 0.77679 0.36283 0.64879 0.0
C1325 C 0.765 0.38079 0.62367 0.0
C1326 C 0.49775 0.08044 0.4672 0.0
C1327 C 0.50707 0.08207 0.43478 0.0
C1328 C 0.51531 0.07741 0.49747 0.0
C1329 C 0.54337 0.07613 0.49728 0.0
H1330 H 0.47652 0.08117 0.46923 0.0
H1331 H 0.50675 0.07595 0.52115 0.0
S1332 S 0.57855 0.07984 0.4196 0.0
N1333 N 0.54682 0.08221 0.40543 0.0
N1334 N 0.57916 0.07707 0.46073 0.0
C1335 C 0.55278 0.07799 0.46501 0.0
C1336 C 0.53499 0.0808 0.43445 0.0
C1337 C 0.81962 0.75999 0.17996 0.0
C1338 C 0.79305 0.75348 0.16241 0.0
C1339 C 0.82489 0.77328 0.21477 0.0
C1340 C 0.80378 0.78018 0.23372 0.0
H1341 H 0.83651 0.75412 0.16686 0.0
H1342 H 0.84569 0.77711 0.22708 0.0
S1343 S 0.73057 0.76899 0.19941 0.0
N1344 N 0.74542 0.75627 0.16619 0.0
N1345 N 0.7552 0.78081 0.23175 0.0
C1346 C 0.77713 0.77471 0.21625 0.0
C1347 C 0.77181 0.76152 0.18058 0.0
C1348 C 0.13664 0.06404 0.75859 0.0
C1349 C 0.15491 0.04045 0.76269 0.0
C1350 C 0.12175 0.06616 0.72633 0.0
C1351 C 0.12347 0.04417 0.69608 0.0
H1352 H 0.13416 0.0817 0.78051 0.0
H1353 H 0.10852 0.08525 0.72522 0.0
S1354 S 0.16799 0.97739 0.69188 0.0
N1355 N 0.17375 0.99464 0.73249 0.0
N1356 N 0.14537 0.9977 0.6731 0.0
C1357 C 0.14133 1.02009 0.69988 0.0
C1358 C 0.15703 1.0185 0.73258 0.0
C1359 C 0.74211 0.34231 0.40543 0.0
C1360 C 0.75261 0.344 0.43982 0.0
C1361 C 0.74937 0.31879 0.3805 0.0
C1362 C 0.7685 0.29751 0.38903 0.0
H1363 H 0.72931 0.36038 0.39758 0.0
H1364 H 0.74168 0.31949 0.35406 0.0
S1365 S 0.79917 0.28931 0.47604 0.0
N1366 N 0.78035 0.31966 0.48184 0.0
N1367 N 0.79511 0.27668 0.4344 0.0
C1368 C 0.77761 0.29727 0.42352 0.0
C1369 C 0.76945 0.32036 0.44911 0.0
C1370 C 0.51705 0.10875 0.24327 0.0
C1371 C 0.49841 0.08069 0.25013 0.0
C1372 C 0.53148 0.10711 0.21401 0.0
C1373 C 0.52842 0.07726 0.18946 0.0
H1374 H 0.52059 0.13249 0.26073 0.0
H1375 H 0.54529 0.12963 0.21068 0.0
S1376 S 0.48176 0.99648 0.19407 0.0
N1377 N 0.47777 1.02201 0.22841 0.0
N1378 N 0.50427 1.01889 0.17484 0.0
C1379 C 0.50979 0.04912 0.19608 0.0
C1380 C 0.49508 0.05084 0.22569 0.0
C1381 C 0.7886 0.78746 0.9891 0.0
C1382 C 0.78396 0.75137 0.98295 0.0
C1383 C 0.79773 0.80715 0.96433 0.0
C1384 C 0.80216 0.79165 0.93217 0.0
H1385 H 0.78627 0.80067 1.01379 0.0
H1386 H 0.80217 0.83477 0.97078 0.0
S1387 S 0.79339 0.69833 0.90298 0.0
N1388 N 0.78424 0.70105 0.9417 0.0
N1389 N 0.80162 0.73819 0.89568 0.0
C1390 C 0.79676 0.75575 0.92519 0.0
C1391 C 0.78757 0.7356 0.95041 0.0
C1392 C 0.93447 0.10961 0.14222 0.0
C1393 C 0.90992 0.10057 0.15538 0.0
C1394 C 0.94635 0.08503 0.12391 0.0
C1395 C 0.9344 0.05043 0.11841 0.0
H1396 H 0.94389 0.13617 0.14434 0.0
H1397 H 0.96463 0.09331 0.11297 0.0
S1398 S 0.87306 1.01221 0.15232 0.0
N1399 N 0.87587 0.05378 0.16505 0.0
N1400 N 0.8989 1.00731 0.13086 0.0
C1401 C 0.91122 0.04039 0.13363 0.0
C1402 C 0.89881 0.06558 0.15213 0.0
C1403 C 0.46594 0.46482 0.09666 0.0
C1404 C 0.45069 0.47452 0.12288 0.0
C1405 C 0.49235 0.48219 0.09545 0.0
C1406 C 0.50478 0.50942 0.12086 0.0
H1407 H 0.45715 0.44418 0.0764 0.0
H1408 H 0.50304 0.47435 0.0744 0.0
S1409 S 0.47398 0.54326 0.19623 0.0
N1410 N 0.45028 0.5124 0.17529 0.0
N1411 N 0.49983 0.54419 0.17395 0.0
C1412 C 0.48993 0.51859 0.14779 0.0
C1413 C 0.46293 0.50141 0.14854 0.0
C1414 C 0.3855 0.66269 0.8101 0.0
C1415 C 0.40725 0.65887 0.83479 0.0
C1416 C 0.37087 0.69112 0.81323 0.0
C1417 C 0.37648 0.71777 0.84157 0.0
H1418 H 0.37971 0.64352 0.78773 0.0
H1419 H 0.35474 0.69202 0.79301 0.0
S1420 S 0.43168 0.72161 0.91358 0.0
N1421 N 0.43366 0.68596 0.8887 0.0
N1422 N 0.40648 0.73784 0.89469 0.0
C1423 C 0.3982 0.71429 0.8664 0.0
C1424 C 0.41332 0.68558 0.86302 0.0
C1425 C 0.27213 0.65092 0.69592 0.0
C1426 C 0.28657 0.6542 0.66792 0.0
C1427 C 0.24452 0.65368 0.69322 0.0
C1428 C 0.23076 0.66115 0.6629 0.0
H1429 H 0.28234 0.64682 0.72021 0.0
H1430 H 0.23399 0.65076 0.71527 0.0
S1431 S 0.25895 0.67053 0.58174 0.0
N1432 N 0.28466 0.66359 0.60826 0.0
N1433 N 0.23298 0.6697 0.6038 0.0
C1434 C 0.24476 0.66371 0.63452 0.0
C1435 C 0.27263 0.66001 0.63689 0.0
C1436 C 0.76872 0.96317 0.86428 0.0
C1437 C 0.74027 0.95832 0.85378 0.0
C1438 C 0.78417 0.93557 0.86303 0.0
C1439 C 0.77242 0.90083 0.85122 0.0
H1440 H 0.7794 0.98883 0.87354 0.0
H1441 H 0.8058 0.94177 0.87144 0.0
S1442 S 0.69857 0.87297 0.82075 0.0
N1443 N 0.70118 0.91483 0.83114 0.0
N1444 N 0.72953 0.86399 0.8289 0.0
C1445 C 0.74391 0.8956 0.84081 0.0
C1446 C 0.72819 0.92375 0.84205 0.0
C1447 C 0.79979 1.00427 0.61221 0.0
C1448 C 0.79929 0.96962 0.61634 0.0
C1449 C 0.77561 1.01828 0.60814 0.0
C1450 C 0.75 0.99827 0.60837 0.0
H1451 H 0.81889 1.02042 0.61102 0.0
H1452 H 0.77698 0.04473 0.60375 0.0
S1453 S 0.73809 0.90741 0.62337 0.0
N1454 N 0.77124 0.91643 0.62333 0.0
N1455 N 0.72619 0.94288 0.61687 0.0
C1456 C 0.74946 0.96402 0.61416 0.0
C1457 C 0.77396 0.9497 0.61786 0.0
C1458 C 0.40661 0.44276 0.83816 0.0
C1459 C 0.39756 0.47116 0.8244 0.0
C1460 C 0.38877 0.41133 0.83922 0.0
C1461 C 0.3607 0.40643 0.82674 0.0
H1462 H 0.42774 0.4449 0.84863 0.0
H1463 H 0.39695 0.39112 0.85076 0.0
S1464 S 0.32641 0.47154 0.78681 0.0
N1465 N 0.35822 0.49075 0.79704 0.0
N1466 N 0.32537 0.43332 0.7991 0.0
C1467 C 0.35166 0.43446 0.8125 0.0
C1468 C 0.36973 0.46612 0.81128 0.0
C1469 C 0.24866 0.65697 0.32986 0.0
C1470 C 0.24449 0.64383 0.3607 0.0
C1471 C 0.26464 0.6894 0.32914 0.0
C1472 C 0.27733 0.71128 0.35923 0.0
H1473 H 0.23951 0.64192 0.30572 0.0
H1474 H 0.26683 0.6975 0.30442 0.0
S1475 S 0.27302 0.68997 0.44723 0.0
N1476 N 0.25483 0.65614 0.42256 0.0
N1477 N 0.2842 0.71658 0.42122 0.0
C1478 C 0.27324 0.6986 0.39035 0.0
C1479 C 0.25715 0.66526 0.39107 0.0
C1480 C 0.55692 0.68326 0.50741 0.0
C1481 C 0.53434 0.69821 0.51549 0.0
C1482 C 0.56441 0.65601 0.52339 0.0
C1483 C 0.54916 0.6419 0.54731 0.0
H1484 H 0.56946 0.69341 0.48932 0.0
H1485 H 0.58234 0.64586 0.51689 0.0
S1486 S 0.48736 0.67036 0.57607 0.0
N1487 N 0.49642 0.69651 0.54859 0.0
N1488 N 0.50984 0.64397 0.57753 0.0
C1489 C 0.52599 0.65575 0.55486 0.0
C1490 C 0.51878 0.68431 0.53928 0.0
C1491 C 0.71807 0.36517 0.79849 0.0
C1492 C 0.70865 0.34279 0.76793 0.0
C1493 C 0.74399 0.36574 0.81625 0.0
C1494 C 0.76141 0.34358 0.80444 0.0
H1495 H 0.70517 0.38209 0.80912 0.0
H1496 H 0.74998 0.38284 0.8401 0.0
S1497 S 0.74762 0.28202 0.72442 0.0
N1498 N 0.7198 0.29948 0.72542 0.0
N1499 N 0.76816 0.3002 0.75927 0.0
C1500 C 0.75267 0.32189 0.77339 0.0
C1501 C 0.72641 0.32158 0.75504 0.0
C1502 C 1.02773 0.41048 1.01916 0.0
C1503 C 0.04396 0.38617 0.02782 0.0
C1504 C 1.03309 0.44405 0.0364 0.0
C1505 C 0.05536 0.45472 0.06219 0.0
H1506 H 1.0106 0.40343 0.99911 0.0
H1507 H 1.0201 0.46203 0.02884 0.0
S1508 S 0.10434 0.40093 0.09389 0.0
N1509 N 0.08302 0.37478 0.064 0.0
N1510 N 0.09381 0.43839 0.09548 0.0
C1511 C 0.07189 0.43072 0.07091 0.0
C1512 C 0.06597 0.39627 0.05399 0.0
C1513 C 0.04961 0.81782 0.29769 0.0
C1514 C 0.05374 0.83673 0.27045 0.0
C1515 C 1.0239 0.81126 0.30872 0.0
C1516 C 1.00127 0.82319 0.29284 0.0
H1517 H 0.06612 0.80697 0.30983 0.0
H1518 H 1.02148 0.79556 0.32893 0.0
S1519 S 1.00182 0.87743 0.2233 0.0
N1520 N 1.0333 0.86984 0.22993 0.0
N1521 N 0.98528 0.85749 0.25069 0.0
C1522 C 1.00542 0.84346 0.26672 0.0
C1523 C 1.03153 0.85025 0.25556 0.0
C1524 C 0.62791 0.33874 0.19707 0.0
C1525 C 0.619 0.30522 0.18026 0.0
C1526 C 0.63295 0.36606 0.17845 0.0
C1527 C 0.62887 0.36072 0.14247 0.0
H1528 H 0.62857 0.3444 0.22452 0.0
H1529 H 0.63746 0.39185 0.19219 0.0
S1530 S 0.6131 0.27654 0.08704 0.0
N1531 N 0.61256 0.26714 0.12627 0.0
N1532 N 0.62082 0.31867 0.09112 0.0
C1533 C 0.62387 0.32682 0.12568 0.0
C1534 C 0.6192 0.29892 0.14471 0.0
C1535 C 1.01715 0.32353 0.50746 0.0
C1536 C 1.03645 0.34899 0.4984 0.0
C1537 C 0.98926 0.32311 0.49877 0.0
C1538 C 0.97963 0.34822 0.48081 0.0
H1539 H 1.02362 0.30364 0.52122 0.0
H1540 H 0.97517 0.30268 0.50583 0.0
S1541 S 1.02209 0.42178 0.45297 0.0
N1542 N 0.04411 0.4006 0.47147 0.0
N1543 N 0.99192 0.40014 0.45543 0.0
C1544 C 0.99885 0.3739 0.47168 0.0
C1545 C 1.02717 0.37429 0.48053 0.0
C1546 C 1.01301 0.65976 0.65021 0.0
C1547 C 1.03129 0.68948 0.64821 0.0
C1548 C 1.00882 0.6318 0.62417 0.0
C1549 C 1.02395 0.63225 0.59644 0.0
H1550 H 1.00354 0.65709 0.67313 0.0
H1551 H 0.99621 0.60844 0.62799 0.0
S1552 S 0.06888 0.70676 0.57527 0.0
N1553 N 0.05989 0.72034 0.61259 0.0
N1554 N 0.0533 0.66676 0.56487 0.0
C1555 C 1.0395 0.66318 0.59207 0.0
C1556 C 0.04299 0.6921 0.61787 0.0
C1557 C 0.649 0.77866 0.95373 0.0
C1558 C 0.65318 0.8144 0.96353 0.0
C1559 C 0.66052 0.76409 0.92618 0.0
C1560 C 0.67635 0.78475 0.90724 0.0
H1561 H 0.63711 0.7617 0.96777 0.0
H1562 H 0.65724 0.73645 0.91982 0.0
S1563 S 0.69355 0.87957 0.9222 0.0
N1564 N 0.67418 0.87009 0.95176 0.0
N1565 N 0.69596 0.84255 0.90015 0.0
C1566 C 0.6804 0.82049 0.91637 0.0
C1567 C 0.66878 0.83536 0.9445 0.0
C1568 C 0.50395 0.54233 0.71591 0.0
C1569 C 0.50006 0.57245 0.73682 0.0
C1570 C 0.52002 0.54304 0.68804 0.0
C1571 C 0.53297 0.57397 0.67837 0.0
H1572 H 0.49472 0.51763 0.7214 0.0
H1573 H 0.52226 0.51888 0.67389 0.0
S1574 S 0.52877 0.66056 0.72308 0.0
N1575 N 0.51087 0.63441 0.74444 0.0
N1576 N 0.53957 0.63588 0.69281 0.0
C1577 C 0.52882 0.60419 0.69879 0.0
C1578 C 0.51292 0.60342 0.72743 0.0
C1579 C 0.8229 0.19201 0.05843 0.0
C1580 C 0.85097 0.1966 0.06966 0.0
C1581 C 0.81233 0.21327 0.03674 0.0
C1582 C 0.8296 0.23934 1.02551 0.0
H1583 H 0.80875 0.17423 0.06899 0.0
H1584 H 0.79049 0.21087 0.0307 0.0
S1585 S 0.90488 0.25533 0.04008 0.0
N1586 N 0.89605 0.22458 0.06298 0.0
N1587 N 0.87617 0.26399 1.02117 0.0
C1588 C 0.85784 0.24132 0.03315 0.0
C1589 C 0.86856 0.21993 0.05544 0.0
C1590 C 0.14816 0.54591 0.22972 0.0
C1591 C 0.13866 0.54427 0.26205 0.0
C1592 C 0.13052 0.54748 0.199 0.0
C1593 C 0.1022 0.54722 0.19863 0.0
H1594 H 0.16957 0.54626 0.22809 0.0
H1595 H 0.13923 0.54891 0.1754 0.0
S1596 S 0.0665 0.54284 0.27583 0.0
N1597 N 0.09846 0.54243 0.29065 0.0
N1598 N 0.06602 0.54492 0.23458 0.0
C1599 C 0.09263 0.54536 0.2308 0.0
C1600 C 0.11049 0.54402 0.2618 0.0
C1601 C 0.87557 0.87321 0.49727 0.0
C1602 C 0.85739 0.86569 0.52083 0.0
C1603 C 0.86992 0.85818 0.46293 0.0
C1604 C 0.84558 0.83556 0.4506 0.0
H1605 H 0.89419 0.89128 0.5053 0.0
H1606 H 0.88434 0.86535 0.44569 0.0
S1607 S 0.79162 0.80643 0.50207 0.0
N1608 N 0.81455 0.83297 0.5297 0.0
N1609 N 0.80361 0.80534 0.465 0.0
C1610 C 0.82748 0.82723 0.47402 0.0
C1611 C 0.83348 0.84209 0.50918 0.0
C1612 C 0.49659 0.58597 0.95551 0.0
C1613 C 0.50137 0.56791 0.92432 0.0
C1614 C 0.51142 0.58352 0.98778 0.0
C1615 C 0.53152 0.56214 0.99113 0.0
H1616 H 0.48123 0.6024 0.95505 0.0
H1617 H 0.50665 0.59812 1.01047 0.0
S1618 S 0.55228 0.50917 0.91786 0.0
N1619 N 0.52848 0.52813 0.89964 0.0
N1620 N 0.55526 0.52274 0.95924 0.0
C1621 C 0.5364 0.54392 0.96013 0.0
C1622 C 0.52174 0.54699 0.92728 0.0
C1623 C 0.87054 0.28368 0.23837 0.0
C1624 C 0.88833 0.26005 0.24321 0.0
C1625 C 0.86741 0.30808 0.26535 0.0
C1626 C 0.88228 0.3098 0.29775 0.0
H1627 H 0.85733 0.28148 0.21442 0.0
H1628 H 0.85185 0.32391 0.2615 0.0
S1629 S 0.9363 0.25877 0.32046 0.0
N1630 N 0.92385 0.24285 0.28055 0.0
N1631 N 0.91934 0.29011 0.33113 0.0
C1632 C 0.90259 0.289 0.30154 0.0
C1633 C 0.90512 0.26347 0.2743 0.0
C1634 C 0.12605 0.52998 0.4545 0.0
C1635 C 0.14722 0.55545 0.44833 0.0
C1636 C 0.11116 0.53407 0.48319 0.0
C1637 C 0.11611 0.56407 0.50787 0.0
H1638 H 0.12079 0.50638 0.43687 0.0
H1639 H 0.09538 0.5133 0.48587 0.0
S1640 S 0.17003 0.63846 0.50545 0.0
N1641 N 0.17254 0.61181 0.47119 0.0
N1642 N 0.14512 0.61941 0.52372 0.0
C1643 C 0.13742 0.58956 0.50215 0.0
C1644 C 0.15264 0.58532 0.47308 0.0
C1645 C 0.8597 0.88828 0.73651 0.0
C1646 C 0.86298 0.87098 0.70446 0.0
C1647 C 0.8504 0.87026 0.76248 0.0
C1648 C 0.84373 0.83433 0.75715 0.0
H1649 H 0.86325 0.91602 0.7411 0.0
H1650 H 0.84676 0.88463 0.78597 0.0
S1651 S 0.85144 0.77653 0.67979 0.0
N1652 N 0.86119 0.81537 0.67057 0.0
N1653 N 0.84312 0.78197 0.71885 0.0
C1654 C 0.84828 0.81671 0.7261 0.0
C1655 C 0.85811 0.83488 0.69993 0.0
C1656 C 0.73725 0.54086 0.52141 0.0
C1657 C 0.72276 0.50758 0.52079 0.0
C1658 C 0.72941 0.5695 0.53951 0.0
C1659 C 0.70682 0.56551 0.5572 0.0
H1660 H 0.75583 0.54458 0.5099 0.0
H1661 H 0.7418 0.59444 0.54114 0.0
S1662 S 0.6599 0.48522 0.55987 0.0
N1663 N 0.68289 0.47334 0.53635 0.0
N1664 N 0.66841 0.52709 0.57032 0.0
C1665 C 0.69092 0.53302 0.55445 0.0
C1666 C 0.69878 0.50402 0.53612 0.0
C1667 C 0.18712 0.1402 0.59724 0.0
C1668 C 0.19798 0.14063 0.56602 0.0
C1669 C 0.161 0.1223 0.59886 0.0
C1670 C 0.14457 0.10428 0.56926 0.0
H1671 H 0.19909 0.15328 0.62079 0.0
H1672 H 0.15389 0.12199 0.62357 0.0
S1673 S 0.16221 0.1005 0.4807 0.0
N1674 N 0.18934 0.1234 0.50458 0.0
N1675 N 0.14039 0.09038 0.5074 0.0
C1676 C 0.15477 0.10576 0.53774 0.0
C1677 C 0.18141 0.12367 0.53617 0.0
C1678 C 0.2481 0.92942 0.82887 0.0
C1679 C 0.25331 0.95681 0.85656 0.0
C1680 C 0.26399 0.90208 0.82586 0.0
C1681 C 0.28617 0.8995 0.85058 0.0
H1682 H 0.2315 0.92909 0.80889 0.0
H1683 H 0.25846 0.88236 0.80391 0.0
S1684 S 0.30951 0.96436 0.92802 0.0
N1685 N 0.28351 0.97898 0.90898 0.0
N1686 N 0.3122 0.92849 0.90402 0.0
C1687 C 0.29148 0.92664 0.87846 0.0
C1688 C 0.27559 0.95472 0.88122 0.0
C1689 C 0.37483 0.91375 1.00758 0.0
C1690 C 0.36222 0.943 1.00649 0.0
C1691 C 0.40283 0.91673 1.01688 0.0
C1692 C 0.41914 0.94894 1.02531 0.0
H1693 H 0.36284 0.88834 1.00304 0.0
H1694 H 0.41171 0.89385 1.01902 0.0
S1695 S 0.39678 1.03333 1.0236 0.0
N1696 N 0.36857 1.00522 1.01262 0.0
N1697 N 0.42146 1.01066 0.02993 0.0
C1698 C 0.40712 0.97838 1.02309 0.0
C1699 C 0.37857 0.97543 1.01363 0.0
C1700 C 0.91496 0.70698 0.85459 0.0
C1701 C 0.90399 0.67234 0.84134 0.0
C1702 C 0.89913 0.73425 0.8546 0.0
C1703 C 0.87101 0.72896 0.84165 0.0
H1704 H 0.93616 0.71323 0.86524 0.0
H1705 H 0.90919 0.75989 0.86517 0.0
S1706 S 0.8316 0.64325 0.80425 0.0
N1707 N 0.86247 0.63501 0.81487 0.0
N1708 N 0.83326 0.68487 0.81522 0.0
C1709 C 0.85982 0.69435 0.82846 0.0
C1710 C 0.87598 0.66672 0.82823 0.0
C1711 C 0.84568 0.61324 0.08065 0.0
C1712 C 0.84501 0.64288 0.06479 0.0
C1713 C 0.86977 0.59931 0.08596 0.0
C1714 C 0.89414 0.61442 0.07555 0.0
H1715 H 0.82772 0.60133 0.0901 0.0
H1716 H 0.8695 0.5772 0.09937 0.0
S1717 S 0.90235 0.68968 0.02883 0.0
N1718 N 0.87039 0.68514 0.03611 0.0
N1719 N 0.91528 0.65872 0.04561 0.0
C1720 C 0.89338 0.64312 0.05826 0.0
C1721 C 0.86895 0.65735 0.05298 0.0
C1722 C 0.28544 0.14731 0.86892 0.0
C1723 C 0.25694 0.14307 0.86031 0.0
C1724 C 0.30288 0.17849 0.86719 0.0
C1725 C 0.29325 0.20804 0.85709 0.0
H1726 H 0.29459 0.12604 0.87672 0.0
H1727 H 0.3245 0.17924 0.87374 0.0
S1728 S 0.22029 0.21198 0.83247 0.0
N1729 N 0.21994 0.17251 0.84153 0.0
N1730 N 0.25249 0.23044 0.83874 0.0
C1731 C 0.26475 0.20453 0.84891 0.0
C1732 C 0.24684 0.17249 0.85038 0.0
C1733 C 0.40052 0.97016 0.36988 0.0
C1734 C 0.40217 0.9843 0.33905 0.0
C1735 C 0.38535 0.93732 0.37112 0.0
C1736 C 0.37099 0.91602 0.34155 0.0
H1737 H 0.4111 0.98467 0.39362 0.0
H1738 H 0.38513 0.92841 0.39577 0.0
S1739 S 0.36741 0.94078 0.25408 0.0
N1740 N 0.38704 0.97399 0.27797 0.0
N1741 N 0.3591 0.91285 0.28019 0.0
C1742 C 0.37237 0.92983 0.31047 0.0
C1743 C 0.38767 0.96355 0.30927 0.0
C1744 C 0.6348 0.4514 0.67453 0.0
C1745 C 0.62243 0.41749 0.66187 0.0
C1746 C 0.62764 0.47908 0.65871 0.0
C1747 C 0.60742 0.47371 0.63028 0.0
H1748 H 0.64957 0.45669 0.69733 0.0
H1749 H 0.63696 0.50488 0.66983 0.0
S1750 S 0.57084 0.39005 0.58511 0.0
N1751 N 0.59069 0.38018 0.61718 0.0
N1752 N 0.57682 0.43223 0.58832 0.0
C1753 C 0.59582 0.43999 0.61648 0.0
C1754 C 0.60344 0.41184 0.63205 0.0
C1755 C 0.42989 0.80457 0.44085 0.0
C1756 C 0.44606 0.78148 0.42741 0.0
C1757 C 0.40351 0.80532 0.42485 0.0
C1758 C 0.39201 0.78236 0.39534 0.0
H1759 H 0.43796 0.82291 0.46337 0.0
H1760 H 0.39214 0.82418 0.43548 0.0
S1761 S 0.42542 0.71539 0.35129 0.0
N1762 N 0.44836 0.73451 0.38351 0.0
N1763 N 0.39876 0.73486 0.35414 0.0
C1764 C 0.40771 0.75834 0.38239 0.0
C1765 C 0.43473 0.75819 0.39821 0.0
C1766 C 0.11814 0.72466 0.14514 0.0
C1767 C 0.10206 0.73769 0.16873 0.0
C1768 C 0.11145 0.69084 0.12846 0.0
C1769 C 0.08808 0.66922 0.13417 0.0
H1770 H 0.13647 0.74033 0.14031 0.0
H1771 H 0.12481 0.68148 0.11123 0.0
S1772 S 1.03838 0.69209 0.19204 0.0
N1773 N 0.06131 0.72702 0.19604 0.0
N1774 N 0.04835 0.66385 0.16428 0.0
C1775 C 0.07133 0.68246 0.15683 0.0
C1776 C 0.07845 0.7166 0.17426 0.0
C1777 C 0.09873 0.28672 0.89309 0.0
C1778 C 0.09909 0.29208 0.92879 0.0
C1779 C 0.12298 0.28964 0.87822 0.0
C1780 C 0.14861 0.29816 0.89843 0.0
H1781 H 0.07956 0.2802 0.87645 0.0
H1782 H 0.12163 0.28522 0.85062 0.0
S1783 S 0.16075 0.3167 0.99317 0.0
N1784 N 0.12741 0.30715 0.98397 0.0
N1785 N 0.17266 0.3133 0.95608 0.0
C1786 C 0.14922 0.3037 0.93416 0.0
C1787 C 0.12459 0.30054 0.94929 0.0
C1788 C 0.66253 0.7819 0.12408 0.0
C1789 C 0.65244 0.81258 0.13128 0.0
C1790 C 0.65787 0.75597 0.14455 0.0
C1791 C 0.64272 0.76038 0.17213 0.0
H1792 H 0.67008 0.77582 0.09995 0.0
H1793 H 0.66188 0.73082 0.13502 0.0
S1794 S 0.62403 0.8418 0.20952 0.0
N1795 N 0.63554 0.85025 0.17361 0.0
N1796 N 0.62744 0.80164 0.21264 0.0
C1797 C 0.63899 0.79375 0.18402 0.0
C1798 C 0.64334 0.81991 0.163 0.0
C1799 C 0.14833 0.68314 0.7551 0.0
C1800 C 0.14098 0.71159 0.77442 0.0
C1801 C 0.17561 0.68161 0.75173 0.0
C1802 C 0.19605 0.70845 0.7673 0.0
H1803 H 0.13289 0.66366 0.73987 0.0
H1804 H 0.18061 0.66069 0.73508 0.0
S1805 S 0.18841 0.78339 0.82794 0.0
N1806 N 0.15708 0.7631 0.81551 0.0
N1807 N 0.20822 0.7604 0.80801 0.0
C1808 C 0.18942 0.73435 0.7904 0.0
C1809 C 0.16178 0.73578 0.79435 0.0
C1810 C 0.10576 0.45298 0.60375 0.0
C1811 C 0.12442 0.44895 0.58027 0.0
C1812 C 0.10214 0.48546 0.61798 0.0
C1813 C 0.11734 0.51494 0.60965 0.0
H1814 H 0.0929 0.43096 0.61007 0.0
H1815 H 0.08667 0.48751 0.63472 0.0
S1816 S 0.17072 0.51837 0.55212 0.0
N1817 N 0.15957 0.4771 0.55103 0.0
N1818 N 0.15325 0.53841 0.5786 0.0
C1819 C 0.13731 0.51138 0.58791 0.0
C1820 C 0.14069 0.47824 0.57293 0.0
C1821 C 0.50484 0.31945 0.26279 0.0
C1822 C 0.51721 0.29481 0.27844 0.0
C1823 C 0.48795 0.3386 0.27976 0.0
C1824 C 0.48305 0.33413 0.31315 0.0
H1825 H 0.50762 0.32341 0.23685 0.0
H1826 H 0.47812 0.35652 0.26635 0.0
S1827 S 0.51257 0.27515 0.36659 0.0
N1828 N 0.52485 0.26845 0.32998 0.0
N1829 N 0.49316 0.3048 0.36209 0.0
C1830 C 0.49625 0.31071 0.32971 0.0
C1831 C 0.51326 0.29087 0.31225 0.0
C1832 C 0.65122 0.57155 0.46869 0.0
C1833 C 0.65444 0.54093 0.44806 0.0
C1834 C 0.63487 0.57184 0.4963 0.0
C1835 C 0.62094 0.54148 0.50586 0.0
H1836 H 0.66118 0.59588 0.46318 0.0
H1837 H 0.63306 0.59629 0.51023 0.0
S1838 S 0.62284 0.45394 0.46158 0.0
N1839 N 0.64193 0.47917 0.4406 0.0
N1840 N 0.61233 0.47951 0.49136 0.0
C1841 C 0.62427 0.51076 0.48558 0.0
C1842 C 0.64059 0.51052 0.45737 0.0
C1843 C 0.29047 0.86624 0.11755 0.0
C1844 C 0.30702 0.89119 0.10385 0.0
C1845 C 0.30173 0.84692 0.14069 0.0
C1846 C 0.32994 0.85167 0.15063 0.0
H1847 H 0.2687 0.86119 0.10989 0.0
H1848 H 0.28821 0.82812 0.15094 0.0
S1849 S 0.38218 0.91334 0.12164 0.0
N1850 N 0.35307 0.91977 0.10175 0.0
N1851 N 0.37424 0.88291 0.14524 0.0
C1852 C 0.34674 0.87687 0.13758 0.0
C1853 C 0.33526 0.8968 0.11415 0.0
C1854 C 0.99677 0.57948 0.97097 0.0
C1855 C 1.00641 0.58352 0.93908 0.0
C1856 C 1.01439 0.57673 1.00129 0.0
C1857 C 0.04281 0.57803 1.00166 0.0
H1858 H 0.97526 0.57815 0.97253 0.0
H1859 H 1.00559 0.57344 1.02456 0.0
S1860 S 0.07891 0.58886 0.92559 0.0
N1861 N 0.04686 0.58889 0.91091 0.0
N1862 N 0.07927 0.58414 0.96628 0.0
C1863 C 0.05253 0.58234 0.96995 0.0
C1864 C 1.0347 0.58494 0.93935 0.0
C1865 C 0.28403 0.26728 0.67821 0.0
C1866 C 0.30086 0.24636 0.66296 0.0
C1867 C 0.2901 0.28175 0.71279 0.0
C1868 C 0.31354 0.27641 0.73318 0.0
H1869 H 0.26552 0.2715 0.6637 0.0
H1870 H 0.27613 0.29687 0.72371 0.0
S1871 S 0.36527 0.2256 0.70436 0.0
N1872 N 0.34256 0.22234 0.67024 0.0
N1873 N 0.35429 0.24987 0.73475 0.0
C1874 C 0.33108 0.25663 0.7177 0.0
C1875 C 0.32465 0.2415 0.68274 0.0
C1876 C 0.64949 0.51461 0.23399 0.0
C1877 C 0.65242 0.54075 0.26237 0.0
C1878 C 0.63434 0.51662 0.20179 0.0
C1879 C 0.62176 0.54533 0.19564 0.0
H1880 H 0.65885 0.49212 0.2367 0.0
H1881 H 0.63285 0.49559 0.18133 0.0
S1882 S 0.62387 0.62163 0.26067 0.0
N1883 N 0.64126 0.59656 0.2813 0.0
N1884 N 0.61404 0.60087 0.22172 0.0
C1885 C 0.62485 0.57175 0.22378 0.0
C1886 C 0.63973 0.56934 0.25664 0.0
C1887 C 0.24934 0.84494 0.90607 0.0
C1888 C 0.2593 0.84404 0.94022 0.0
C1889 C 0.25561 0.82182 0.87996 0.0
C1890 C 0.27316 0.79828 0.88718 0.0
H1891 H 0.23807 0.86489 0.89933 0.0
H1892 H 0.24877 0.82475 0.85382 0.0
S1893 S 0.30079 0.782 0.97276 0.0
N1894 N 0.28403 0.8142 0.98035 0.0
N1895 N 0.29698 0.77202 0.93076 0.0
C1896 C 0.28126 0.79515 0.92128 0.0
C1897 C 0.27407 0.81784 0.94799 0.0
C1898 C 0.98691 0.55864 0.72313 0.0
C1899 C 0.99605 0.58326 0.75267 0.0
C1900 C 1.00121 0.55631 0.69387 0.0
C1901 C 1.02558 0.57867 0.69173 0.0
H1902 H 0.96843 0.54066 0.72257 0.0
H1903 H 0.99281 0.53676 0.67246 0.0
S1904 S 0.05934 0.64706 0.76217 0.0
N1905 N 1.03209 0.62994 0.77748 0.0
N1906 N 0.05824 0.6261 0.72344 0.0
C1907 C 1.03491 0.60341 0.7211 0.0
C1908 C 1.0205 0.60551 0.75101 0.0
C1909 C 0.29008 0.28581 0.48831 0.0
C1910 C 0.28469 0.24976 0.48191 0.0
C1911 C 0.29881 0.30541 0.46329 0.0
C1912 C 0.3021 0.28988 0.43065 0.0
H1913 H 0.28867 0.29904 0.51334 0.0
H1914 H 0.3039 0.33297 0.46997 0.0
S1915 S 0.29062 0.1966 0.40044 0.0
N1916 N 0.28278 0.19942 0.43982 0.0
N1917 N 0.29937 0.23641 0.39324 0.0
C1918 C 0.29581 0.25404 0.42337 0.0
C1919 C 0.28704 0.23396 0.44887 0.0
C1920 C 0.41536 0.60627 0.60725 0.0
C1921 C 0.40753 0.60592 0.64006 0.0
C1922 C 0.42624 0.57922 0.59152 0.0
C1923 C 0.42971 0.55048 0.60782 0.0
H1924 H 0.41337 0.62783 0.5935 0.0
H1925 H 0.43295 0.58162 0.56684 0.0
S1926 S 0.41199 0.53652 0.69377 0.0
N1927 N 0.40367 0.5743 0.68842 0.0
N1928 N 0.42398 0.52286 0.65848 0.0
C1929 C 0.42167 0.54946 0.64054 0.0
C1930 C 0.4106 0.57728 0.65673 0.0
C1931 C 0.97036 0.97578 0.647 0.0
C1932 C 0.94974 0.97364 0.61937 0.0
C1933 C 0.99711 0.9918 0.64567 0.0
C1934 C 1.00451 1.00522 0.61624 0.0
H1935 H 0.96565 0.96579 0.67017 0.0
H1936 H 1.01211 0.99393 0.66798 0.0
S1937 S 0.95851 1.00429 0.53612 0.0
N1938 N 0.9388 0.98551 0.56131 0.0
N1939 N 0.98907 1.01431 0.55837 0.0
C1940 C 0.98428 1.0022 0.58802 0.0
C1941 C 0.95692 0.98678 0.58972 0.0
C1942 C 0.88465 0.16176 0.31096 0.0
C1943 C 0.90535 0.15726 0.3367 0.0
C1944 C 0.86967 0.18982 0.31399 0.0
C1945 C 0.87379 0.21528 0.3433 0.0
H1946 H 0.88004 0.14349 0.2878 0.0
H1947 H 0.8545 0.19141 0.29288 0.0
S1948 S 0.92578 0.21685 0.41835 0.0
N1949 N 0.92921 0.18237 0.39267 0.0
N1950 N 0.90119 0.23345 0.39857 0.0
C1951 C 0.89438 0.21102 0.36926 0.0
C1952 C 0.90996 0.18279 0.36592 0.0
C1953 C 0.77422 0.21515 0.16211 0.0
C1954 C 0.78294 0.18452 0.16988 0.0
C1955 C 0.74659 0.21714 0.15482 0.0
C1956 C 0.72674 0.18848 0.15467 0.0
H1957 H 0.78886 0.23768 0.16094 0.0
H1958 H 0.74077 0.24088 0.1482 0.0
S1959 S 0.7383 0.10352 0.17669 0.0
N1960 N 0.76912 0.12574 0.17946 0.0
N1961 N 0.71714 0.12952 0.16557 0.0
C1962 C 0.73499 0.15816 0.16368 0.0
C1963 C 0.76311 0.15616 0.17134 0.0
C1964 C 0.26846 0.46148 0.3612 0.0
C1965 C 0.23961 0.45618 0.35497 0.0
C1966 C 0.28406 0.43398 0.35927 0.0
C1967 C 0.27217 0.39882 0.35083 0.0
H1968 H 0.27934 0.48743 0.36762 0.0
H1969 H 0.30596 0.44063 0.36433 0.0
S1970 S 0.19731 0.3695 0.33315 0.0
N1971 N 0.19999 0.41164 0.34061 0.0
N1972 N 0.22866 0.36106 0.337 0.0
C1973 C 0.24328 0.3931 0.34477 0.0
C1974 C 0.22737 0.42116 0.34681 0.0
C1975 C 0.29853 0.50543 0.11633 0.0
C1976 C 0.29798 0.46996 0.11612 0.0
C1977 C 0.27437 0.51953 0.11313 0.0
C1978 C 0.24868 0.49871 0.1094 0.0
H1979 H 0.31774 0.52245 0.11853 0.0
H1980 H 0.27583 0.54685 0.11269 0.0
S1981 S 0.23593 0.40468 0.10984 0.0
N1982 N 0.26931 0.41459 0.11356 0.0
N1983 N 0.22428 0.44111 0.10782 0.0
C1984 C 0.24788 0.46337 0.11001 0.0
C1985 C 0.27239 0.44903 0.11332 0.0
C1986 C 0.8717 0.96193 0.31076 0.0
C1987 C 0.89841 0.97005 0.32851 0.0
C1988 C 0.85454 0.93015 0.31137 0.0
C1989 C 0.86277 0.90431 0.32992 0.0
H1990 H 0.86384 0.98038 0.29612 0.0
H1991 H 0.83437 0.92593 0.29714 0.0
S1992 S 0.93078 0.91139 0.38044 0.0
N1993 N 0.93214 0.9482 0.365 0.0
N1994 N 0.90021 0.88955 0.36617 0.0
C1995 C 0.88944 0.91195 0.34765 0.0
C1996 C 0.90701 0.94427 0.34693 0.0
C1997 C 0.76094 0.16409 0.88372 0.0
C1998 C 0.74688 0.14324 0.85373 0.0
C1999 C 0.77694 0.19663 0.88284 0.0
C2000 C 0.78012 0.2102 0.85192 0.0
H2001 H 0.75941 0.15535 0.90828 0.0
H2002 H 0.78709 0.21118 0.90672 0.0
S2003 S 0.74777 0.16635 0.76586 0.0
N2004 N 0.73753 0.1394 0.79198 0.0
N2005 N 0.76724 0.19926 0.79032 0.0
C2006 C 0.76629 0.18944 0.82178 0.0
C2007 C 0.74988 0.15656 0.82269 0.0
loop_
_geom_bond_atom_site_label_1
_geom_bond_atom_site_label_2
_geom_bond_distance
_geom_bond_site_symmetry_2
_ccdc_geom_bond_type
In0 O1 2.294 . S
In0 O2 2.326 . S
In0 O6 2.266 . S
In0 O7 2.326 . S
In0 O8 2.266 . S
In0 O9 2.326 . S
In0 O11 2.294 . S
In0 O12 2.326 . S
O1 In0 2.294 . S
O1 C10 1.240 . S
O2 In0 2.326 . S
O2 C10 1.252 . S
C3 O6 1.252 . S
C3 O7 1.260 . S
C4 O11 1.240 . S
C4 O12 1.252 . S
C5 O8 1.252 . S
C5 O9 1.260 . S
O6 In0 2.266 . S
O6 C3 1.252 . S
O7 In0 2.326 . S
O7 C3 1.260 . S
O8 In0 2.266 . S
O8 C5 1.252 . S
O9 In0 2.326 . S
O9 C5 1.260 . S
C10 O1 1.240 . S
C10 O2 1.252 . S
O11 In0 2.294 . S
O11 C4 1.240 . S
O12 In0 2.326 . S
O12 C4 1.252 . S
In13 O14 2.294 . S
In13 O15 2.326 . S
In13 O19 2.266 . S
In13 O20 2.326 . S
In13 O21 2.266 1_455 S
In13 O22 2.326 1_455 S
In13 O24 2.294 . S
In13 O25 2.326 . S
O14 In13 2.294 . S
O14 C23 1.240 . S
O15 In13 2.326 . S
O15 C23 1.252 . S
C16 O19 1.252 . S
C16 O20 1.260 . S
C17 O24 1.240 . S
C17 O25 1.252 . S
C18 O21 1.252 . S
C18 O22 1.260 . S
O19 In13 2.266 . S
O19 C16 1.252 . S
O20 In13 2.326 . S
O20 C16 1.260 . S
O21 In13 2.266 1_655 S
O21 C18 1.252 . S
O22 In13 2.326 1_655 S
O22 C18 1.260 . S
C23 O14 1.240 . S
C23 O15 1.252 . S
O24 In13 2.294 . S
O24 C17 1.240 . S
O25 In13 2.326 . S
O25 C17 1.252 . S
In26 O27 2.294 . S
In26 O28 2.326 1_556 S
In26 O32 2.266 . S
In26 O33 2.326 1_556 S
In26 O34 2.266 1_556 S
In26 O35 2.326 . S
In26 O37 2.294 1_556 S
In26 O38 2.326 . S
O27 In26 2.294 . S
O27 C36 1.240 . S
O28 In26 2.326 1_554 S
O28 C36 1.252 1_554 S
C29 O32 1.252 . S
C29 O33 1.260 1_556 S
C30 O37 1.240 . S
C30 O38 1.252 1_554 S
C31 O34 1.252 . S
C31 O35 1.260 1_554 S
O32 In26 2.266 . S
O32 C29 1.252 . S
O33 In26 2.326 1_554 S
O33 C29 1.260 1_554 S
O34 In26 2.266 1_554 S
O34 C31 1.252 . S
O35 In26 2.326 . S
O35 C31 1.260 1_556 S
C36 O27 1.240 . S
C36 O28 1.252 1_556 S
O37 In26 2.294 1_554 S
O37 C30 1.240 . S
O38 In26 2.326 . S
O38 C30 1.252 1_556 S
In39 O40 2.294 . S
In39 O41 2.326 . S
In39 O45 2.266 . S
In39 O46 2.326 . S
In39 O47 2.266 . S
In39 O48 2.326 . S
In39 O50 2.294 . S
In39 O51 2.326 . S
O40 In39 2.294 . S
O40 C49 1.240 . S
O41 In39 2.326 . S
O41 C49 1.252 . S
C42 O45 1.252 . S
C42 O46 1.260 . S
C43 O50 1.240 . S
C43 O51 1.252 . S
C44 O47 1.252 . S
C44 O48 1.260 . S
O45 In39 2.266 . S
O45 C42 1.252 . S
O46 In39 2.326 . S
O46 C42 1.260 . S
O47 In39 2.266 . S
O47 C44 1.252 . S
O48 In39 2.326 . S
O48 C44 1.260 . S
C49 O40 1.240 . S
C49 O41 1.252 . S
O50 In39 2.294 . S
O50 C43 1.240 . S
O51 In39 2.326 . S
O51 C43 1.252 . S
In52 O53 2.294 . S
In52 O54 2.326 . S
In52 O58 2.266 . S
In52 O59 2.326 . S
In52 O60 2.266 . S
In52 O61 2.326 . S
In52 O63 2.294 . S
In52 O64 2.326 . S
O53 In52 2.294 . S
O53 C62 1.240 . S
O54 In52 2.326 . S
O54 C62 1.252 . S
C55 O58 1.252 . S
C55 O59 1.260 . S
C56 O63 1.240 . S
C56 O64 1.252 . S
C57 O60 1.252 . S
C57 O61 1.260 . S
O58 In52 2.266 . S
O58 C55 1.252 . S
O59 In52 2.326 . S
O59 C55 1.260 . S
O60 In52 2.266 . S
O60 C57 1.252 . S
O61 In52 2.326 . S
O61 C57 1.260 . S
C62 O53 1.240 . S
C62 O54 1.252 . S
O63 In52 2.294 . S
O63 C56 1.240 . S
O64 In52 2.326 . S
O64 C56 1.252 . S
In65 O66 2.294 . S
In65 O67 2.326 . S
In65 O71 2.266 . S
In65 O72 2.326 . S
In65 O73 2.266 . S
In65 O74 2.326 . S
In65 O76 2.294 . S
In65 O77 2.326 . S
O66 In65 2.294 . S
O66 C75 1.240 . S
O67 In65 2.326 . S
O67 C75 1.252 . S
C68 O71 1.252 . S
C68 O72 1.260 . S
C69 O76 1.240 . S
C69 O77 1.252 . S
C70 O73 1.252 . S
C70 O74 1.260 . S
O71 In65 2.266 . S
O71 C68 1.252 . S
O72 In65 2.326 . S
O72 C68 1.260 . S
O73 In65 2.266 . S
O73 C70 1.252 . S
O74 In65 2.326 . S
O74 C70 1.260 . S
C75 O66 1.240 . S
C75 O67 1.252 . S
O76 In65 2.294 . S
O76 C69 1.240 . S
O77 In65 2.326 . S
O77 C69 1.252 . S
In78 O79 2.294 . S
In78 O80 2.326 . S
In78 O84 2.266 . S
In78 O85 2.326 . S
In78 O86 2.266 . S
In78 O87 2.326 . S
In78 O89 2.294 . S
In78 O90 2.326 . S
O79 In78 2.294 . S
O79 C88 1.240 . S
O80 In78 2.326 . S
O80 C88 1.252 . S
C81 O84 1.252 . S
C81 O85 1.260 . S
C82 O89 1.240 . S
C82 O90 1.252 . S
C83 O86 1.252 . S
C83 O87 1.260 . S
O84 In78 2.266 . S
O84 C81 1.252 . S
O85 In78 2.326 . S
O85 C81 1.260 . S
O86 In78 2.266 . S
O86 C83 1.252 . S
O87 In78 2.326 . S
O87 C83 1.260 . S
C88 O79 1.240 . S
C88 O80 1.252 . S
O89 In78 2.294 . S
O89 C82 1.240 . S
O90 In78 2.326 . S
O90 C82 1.252 . S
In91 O92 2.294 1_556 S
In91 O93 2.326 . S
In91 O97 2.266 1_556 S
In91 O98 2.326 . S
In91 O99 2.266 1_455 S
In91 O100 2.326 1_455 S
In91 O102 2.294 . S
In91 O103 2.326 . S
O92 In91 2.294 1_554 S
O92 C101 1.240 1_554 S
O93 In91 2.326 . S
O93 C101 1.252 . S
C94 O97 1.252 1_556 S
C94 O98 1.260 . S
C95 O102 1.240 . S
C95 O103 1.252 . S
C96 O99 1.252 . S
C96 O100 1.260 . S
O97 In91 2.266 1_554 S
O97 C94 1.252 1_554 S
O98 In91 2.326 . S
O98 C94 1.260 . S
O99 In91 2.266 1_655 S
O99 C96 1.252 . S
O100 In91 2.326 1_655 S
O100 C96 1.260 . S
C101 O92 1.240 1_556 S
C101 O93 1.252 . S
O102 In91 2.294 . S
O102 C95 1.240 . S
O103 In91 2.326 . S
O103 C95 1.252 . S
In104 O105 2.294 . S
In104 O106 2.326 . S
In104 O110 2.266 . S
In104 O111 2.326 . S
In104 O112 2.266 1_545 S
In104 O113 2.326 1_545 S
In104 O115 2.294 . S
In104 O116 2.326 . S
O105 In104 2.294 . S
O105 C114 1.240 . S
O106 In104 2.326 . S
O106 C114 1.252 . S
C107 O110 1.252 . S
C107 O111 1.260 . S
C108 O115 1.240 . S
C108 O116 1.252 . S
C109 O112 1.252 . S
C109 O113 1.260 . S
O110 In104 2.266 . S
O110 C107 1.252 . S
O111 In104 2.326 . S
O111 C107 1.260 . S
O112 In104 2.266 1_565 S
O112 C109 1.252 . S
O113 In104 2.326 1_565 S
O113 C109 1.260 . S
C114 O105 1.240 . S
C114 O106 1.252 . S
O115 In104 2.294 . S
O115 C108 1.240 . S
O116 In104 2.326 . S
O116 C108 1.252 . S
In117 O118 2.294 . S
In117 O119 2.326 . S
In117 O123 2.266 . S
In117 O124 2.326 . S
In117 O125 2.266 . S
In117 O126 2.326 . S
In117 O128 2.294 . S
In117 O129 2.326 . S
O118 In117 2.294 . S
O118 C127 1.240 . S
O119 In117 2.326 . S
O119 C127 1.252 . S
C120 O123 1.252 . S
C120 O124 1.260 . S
C121 O128 1.240 . S
C121 O129 1.252 . S
C122 O125 1.252 . S
C122 O126 1.260 . S
O123 In117 2.266 . S
O123 C120 1.252 . S
O124 In117 2.326 . S
O124 C120 1.260 . S
O125 In117 2.266 . S
O125 C122 1.252 . S
O126 In117 2.326 . S
O126 C122 1.260 . S
C127 O118 1.240 . S
C127 O119 1.252 . S
O128 In117 2.294 . S
O128 C121 1.240 . S
O129 In117 2.326 . S
O129 C121 1.252 . S
In130 O131 2.294 1_545 S
In130 O132 2.326 . S
In130 O136 2.266 . S
In130 O137 2.326 . S
In130 O138 2.266 . S
In130 O139 2.326 . S
In130 O141 2.294 1_545 S
In130 O142 2.326 1_545 S
O131 In130 2.294 1_565 S
O131 C140 1.240 . S
O132 In130 2.326 . S
O132 C140 1.252 1_545 S
C133 O136 1.252 . S
C133 O137 1.260 . S
C134 O141 1.240 . S
C134 O142 1.252 . S
C135 O138 1.252 . S
C135 O139 1.260 . S
O136 In130 2.266 . S
O136 C133 1.252 . S
O137 In130 2.326 . S
O137 C133 1.260 . S
O138 In130 2.266 . S
O138 C135 1.252 . S
O139 In130 2.326 . S
O139 C135 1.260 . S
C140 O131 1.240 . S
C140 O132 1.252 1_565 S
O141 In130 2.294 1_565 S
O141 C134 1.240 . S
O142 In130 2.326 1_565 S
O142 C134 1.252 . S
In143 O144 2.296 . S
In143 O145 2.329 . S
In143 O149 2.264 1_554 S
In143 O150 2.322 1_554 S
In143 O151 2.266 . S
In143 O152 2.325 1_554 S
In143 O154 2.294 . S
In143 O155 2.321 . S
O144 In143 2.296 . S
O144 C153 1.240 . S
O145 In143 2.329 . S
O145 C153 1.252 . S
C146 O149 1.252 . S
C146 O150 1.260 . S
C147 O154 1.240 . S
C147 O155 1.254 . S
C148 O151 1.253 . S
C148 O152 1.265 1_554 S
O149 In143 2.264 1_556 S
O149 C146 1.252 . S
O150 In143 2.322 1_556 S
O150 C146 1.260 . S
O151 In143 2.266 . S
O151 C148 1.253 . S
O152 In143 2.325 1_556 S
O152 C148 1.265 1_556 S
C153 O144 1.240 . S
C153 O145 1.252 . S
O154 In143 2.294 . S
O154 C147 1.240 . S
O155 In143 2.321 . S
O155 C147 1.254 . S
In156 O157 2.294 . S
In156 O158 2.326 . S
In156 O162 2.266 . S
In156 O163 2.326 . S
In156 O164 2.266 . S
In156 O165 2.326 . S
In156 O167 2.294 . S
In156 O168 2.326 . S
O157 In156 2.294 . S
O157 C166 1.240 . S
O158 In156 2.326 . S
O158 C166 1.252 . S
C159 O162 1.252 . S
C159 O163 1.260 . S
C160 O167 1.240 . S
C160 O168 1.252 . S
C161 O164 1.252 . S
C161 O165 1.260 . S
O162 In156 2.266 . S
O162 C159 1.252 . S
O163 In156 2.326 . S
O163 C159 1.260 . S
O164 In156 2.266 . S
O164 C161 1.252 . S
O165 In156 2.326 . S
O165 C161 1.260 . S
C166 O157 1.240 . S
C166 O158 1.252 . S
O167 In156 2.294 . S
O167 C160 1.240 . S
O168 In156 2.326 . S
O168 C160 1.252 . S
In169 O170 2.294 . S
In169 O171 2.326 . S
In169 O175 2.266 . S
In169 O176 2.326 . S
In169 O177 2.266 . S
In169 O178 2.326 . S
In169 O180 2.294 . S
In169 O181 2.326 . S
O170 In169 2.294 . S
O170 C179 1.240 . S
O171 In169 2.326 . S
O171 C179 1.252 . S
C172 O175 1.252 . S
C172 O176 1.260 . S
C173 O180 1.240 . S
C173 O181 1.252 . S
C174 O177 1.252 . S
C174 O178 1.260 . S
O175 In169 2.266 . S
O175 C172 1.252 . S
O176 In169 2.326 . S
O176 C172 1.260 . S
O177 In169 2.266 . S
O177 C174 1.252 . S
O178 In169 2.326 . S
O178 C174 1.260 . S
C179 O170 1.240 . S
C179 O171 1.252 . S
O180 In169 2.294 . S
O180 C173 1.240 . S
O181 In169 2.326 . S
O181 C173 1.252 . S
In182 O183 2.294 . S
In182 O184 2.326 . S
In182 O188 2.266 . S
In182 O189 2.326 . S
In182 O190 2.266 . S
In182 O191 2.326 . S
In182 O193 2.294 . S
In182 O194 2.326 . S
O183 In182 2.294 . S
O183 C192 1.240 . S
O184 In182 2.326 . S
O184 C192 1.252 . S
C185 O188 1.252 . S
C185 O189 1.260 . S
C186 O193 1.240 . S
C186 O194 1.252 . S
C187 O190 1.252 . S
C187 O191 1.260 . S
O188 In182 2.266 . S
O188 C185 1.252 . S
O189 In182 2.326 . S
O189 C185 1.260 . S
O190 In182 2.266 . S
O190 C187 1.252 . S
O191 In182 2.326 . S
O191 C187 1.260 . S
C192 O183 1.240 . S
C192 O184 1.252 . S
O193 In182 2.294 . S
O193 C186 1.240 . S
O194 In182 2.326 . S
O194 C186 1.252 . S
In195 O196 2.294 . S
In195 O197 2.326 . S
In195 O201 2.266 . S
In195 O202 2.326 . S
In195 O203 2.266 . S
In195 O204 2.326 . S
In195 O206 2.294 . S
In195 O207 2.326 . S
O196 In195 2.294 . S
O196 C205 1.240 . S
O197 In195 2.326 . S
O197 C205 1.252 . S
C198 O201 1.252 . S
C198 O202 1.260 . S
C199 O206 1.240 . S
C199 O207 1.252 . S
C200 O203 1.252 . S
C200 O204 1.260 . S
O201 In195 2.266 . S
O201 C198 1.252 . S
O202 In195 2.326 . S
O202 C198 1.260 . S
O203 In195 2.266 . S
O203 C200 1.252 . S
O204 In195 2.326 . S
O204 C200 1.260 . S
C205 O196 1.240 . S
C205 O197 1.252 . S
O206 In195 2.294 . S
O206 C199 1.240 . S
O207 In195 2.326 . S
O207 C199 1.252 . S
In208 O209 2.294 . S
In208 O210 2.326 . S
In208 O214 2.266 . S
In208 O215 2.326 . S
In208 O216 2.266 . S
In208 O217 2.326 1_545 S
In208 O219 2.294 . S
In208 O220 2.326 . S
O209 In208 2.294 . S
O209 C218 1.240 . S
O210 In208 2.326 . S
O210 C218 1.252 . S
C211 O214 1.252 . S
C211 O215 1.260 . S
C212 O219 1.240 . S
C212 O220 1.252 . S
C213 O216 1.252 1_565 S
C213 O217 1.260 . S
O214 In208 2.266 . S
O214 C211 1.252 . S
O215 In208 2.326 . S
O215 C211 1.260 . S
O216 In208 2.266 . S
O216 C213 1.252 1_545 S
O217 In208 2.326 1_565 S
O217 C213 1.260 . S
C218 O209 1.240 . S
C218 O210 1.252 . S
O219 In208 2.294 . S
O219 C212 1.240 . S
O220 In208 2.326 . S
O220 C212 1.252 . S
In221 O222 2.294 . S
In221 O223 2.326 . S
In221 O227 2.266 . S
In221 O228 2.326 . S
In221 O229 2.266 . S
In221 O230 2.326 . S
In221 O232 2.294 . S
In221 O233 2.326 . S
O222 In221 2.294 . S
O222 C231 1.240 . S
O223 In221 2.326 . S
O223 C231 1.252 . S
C224 O227 1.252 . S
C224 O228 1.260 . S
C225 O232 1.240 . S
C225 O233 1.252 . S
C226 O229 1.252 . S
C226 O230 1.260 . S
O227 In221 2.266 . S
O227 C224 1.252 . S
O228 In221 2.326 . S
O228 C224 1.260 . S
O229 In221 2.266 . S
O229 C226 1.252 . S
O230 In221 2.326 . S
O230 C226 1.260 . S
C231 O222 1.240 . S
C231 O223 1.252 . S
O232 In221 2.294 . S
O232 C225 1.240 . S
O233 In221 2.326 . S
O233 C225 1.252 . S
In234 O235 2.294 . S
In234 O236 2.326 . S
In234 O240 2.266 . S
In234 O241 2.326 . S
In234 O242 2.266 . S
In234 O243 2.326 . S
In234 O245 2.294 . S
In234 O246 2.326 . S
O235 In234 2.294 . S
O235 C244 1.240 . S
O236 In234 2.326 . S
O236 C244 1.252 . S
C237 O240 1.252 . S
C237 O241 1.260 . S
C238 O245 1.240 . S
C238 O246 1.252 . S
C239 O242 1.252 . S
C239 O243 1.260 . S
O240 In234 2.266 . S
O240 C237 1.252 . S
O241 In234 2.326 . S
O241 C237 1.260 . S
O242 In234 2.266 . S
O242 C239 1.252 . S
O243 In234 2.326 . S
O243 C239 1.260 . S
C244 O235 1.240 . S
C244 O236 1.252 . S
O245 In234 2.294 . S
O245 C238 1.240 . S
O246 In234 2.326 . S
O246 C238 1.252 . S
In247 O248 2.294 1_545 S
In247 O249 2.326 1_545 S
In247 O253 2.266 . S
In247 O254 2.326 . S
In247 O255 2.266 . S
In247 O256 2.326 . S
In247 O258 2.294 1_545 S
In247 O259 2.326 . S
O248 In247 2.294 1_565 S
O248 C257 1.240 . S
O249 In247 2.326 1_565 S
O249 C257 1.252 . S
C250 O253 1.252 . S
C250 O254 1.260 . S
C251 O258 1.240 . S
C251 O259 1.253 1_565 S
C252 O255 1.252 . S
C252 O256 1.260 . S
O253 In247 2.266 . S
O253 C250 1.252 . S
O254 In247 2.326 . S
O254 C250 1.260 . S
O255 In247 2.266 . S
O255 C252 1.252 . S
O256 In247 2.326 . S
O256 C252 1.260 . S
C257 O248 1.240 . S
C257 O249 1.252 . S
O258 In247 2.294 1_565 S
O258 C251 1.240 . S
O259 In247 2.326 . S
O259 C251 1.253 1_545 S
In260 O261 2.294 . S
In260 O262 2.326 . S
In260 O266 2.266 . S
In260 O267 2.326 . S
In260 O268 2.266 . S
In260 O269 2.326 . S
In260 O271 2.294 . S
In260 O272 2.326 . S
O261 In260 2.294 . S
O261 C270 1.240 . S
O262 In260 2.326 . S
O262 C270 1.252 . S
C263 O266 1.252 . S
C263 O267 1.260 . S
C264 O271 1.240 . S
C264 O272 1.252 . S
C265 O268 1.252 . S
C265 O269 1.260 . S
O266 In260 2.266 . S
O266 C263 1.252 . S
O267 In260 2.326 . S
O267 C263 1.260 . S
O268 In260 2.266 . S
O268 C265 1.252 . S
O269 In260 2.326 . S
O269 C265 1.260 . S
C270 O261 1.240 . S
C270 O262 1.252 . S
O271 In260 2.294 . S
O271 C264 1.240 . S
O272 In260 2.326 . S
O272 C264 1.252 . S
In273 O274 2.294 . S
In273 O275 2.326 . S
In273 O279 2.266 . S
In273 O280 2.326 . S
In273 O281 2.266 . S
In273 O282 2.326 . S
In273 O284 2.294 . S
In273 O285 2.326 . S
O274 In273 2.294 . S
O274 C283 1.240 . S
O275 In273 2.326 . S
O275 C283 1.252 . S
C276 O279 1.252 . S
C276 O280 1.260 . S
C277 O284 1.240 . S
C277 O285 1.252 . S
C278 O281 1.252 . S
C278 O282 1.260 . S
O279 In273 2.266 . S
O279 C276 1.252 . S
O280 In273 2.326 . S
O280 C276 1.260 . S
O281 In273 2.266 . S
O281 C278 1.252 . S
O282 In273 2.326 . S
O282 C278 1.260 . S
C283 O274 1.240 . S
C283 O275 1.252 . S
O284 In273 2.294 . S
O284 C277 1.240 . S
O285 In273 2.326 . S
O285 C277 1.252 . S
In286 O287 2.294 . S
In286 O288 2.326 . S
In286 O292 2.266 . S
In286 O293 2.326 . S
In286 O294 2.266 . S
In286 O295 2.326 . S
In286 O297 2.294 . S
In286 O298 2.326 . S
O287 In286 2.294 . S
O287 C296 1.240 . S
O288 In286 2.326 . S
O288 C296 1.252 . S
C289 O292 1.252 . S
C289 O293 1.260 . S
C290 O297 1.240 . S
C290 O298 1.252 . S
C291 O294 1.252 . S
C291 O295 1.260 . S
O292 In286 2.266 . S
O292 C289 1.252 . S
O293 In286 2.326 . S
O293 C289 1.260 . S
O294 In286 2.266 . S
O294 C291 1.252 . S
O295 In286 2.326 . S
O295 C291 1.260 . S
C296 O287 1.240 . S
C296 O288 1.252 . S
O297 In286 2.294 . S
O297 C290 1.240 . S
O298 In286 2.326 . S
O298 C290 1.252 . S
In299 O300 2.294 . S
In299 O301 2.326 . S
In299 O305 2.266 . S
In299 O306 2.326 . S
In299 O307 2.266 . S
In299 O308 2.326 . S
In299 O310 2.294 . S
In299 O311 2.326 . S
O300 In299 2.294 . S
O300 C309 1.240 . S
O301 In299 2.326 . S
O301 C309 1.252 . S
C302 O305 1.252 . S
C302 O306 1.260 . S
C303 O310 1.240 . S
C303 O311 1.252 . S
C304 O307 1.252 . S
C304 O308 1.260 . S
O305 In299 2.266 . S
O305 C302 1.252 . S
O306 In299 2.326 . S
O306 C302 1.260 . S
O307 In299 2.266 . S
O307 C304 1.252 . S
O308 In299 2.326 . S
O308 C304 1.260 . S
C309 O300 1.240 . S
C309 O301 1.252 . S
O310 In299 2.294 . S
O310 C303 1.240 . S
O311 In299 2.326 . S
O311 C303 1.252 . S
C312 Eu313 2.835 . S
C312 C314 1.500 . S
C312 O332 1.257 . S
C312 O333 1.260 . S
Eu313 C312 2.835 . S
Eu313 O332 2.473 . S
Eu313 O333 2.480 . S
Eu313 O334 2.430 . S
Eu313 O335 2.670 . S
Eu313 O336 2.394 . S
Eu313 O341 2.355 . S
Eu313 O343 2.374 . S
C314 C312 1.500 . S
C314 C315 1.377 . S
C314 C319 1.377 1_545 S
C315 C314 1.377 . S
C315 C316 1.395 1_545 S
C315 H344 0.931 . S
C316 C315 1.395 1_565 S
C316 C317 1.383 . S
C316 H345 0.931 . S
C317 C316 1.383 . S
C317 C318 1.394 . S
C318 C317 1.394 . S
C318 C319 1.378 . S
C318 H346 0.931 . S
C319 C314 1.377 1_565 S
C319 C318 1.378 . S
C319 H347 0.931 . S
C320 O334 1.259 . S
C320 O335 1.270 . S
C321 O336 1.251 1_565 S
C321 O337 1.251 . S
C322 Eu323 2.835 1_655 S
C322 C324 1.500 . S
C322 O338 1.257 . S
C322 O339 1.260 . S
Eu323 C322 2.835 1_455 S
Eu323 O335 2.355 . S
Eu323 O337 2.374 1_545 S
Eu323 O338 2.473 1_455 S
Eu323 O339 2.480 1_455 S
Eu323 O340 2.430 . S
Eu323 O341 2.670 . S
Eu323 O342 2.394 . S
C324 C322 1.500 . S
C324 C325 1.377 . S
C324 C329 1.377 . S
C325 C324 1.377 . S
C325 C326 1.395 . S
C325 H348 0.931 . S
C326 C325 1.395 . S
C326 C327 1.383 . S
C326 H349 0.931 . S
C327 C326 1.383 . S
C327 C328 1.394 . S
C328 C327 1.394 . S
C328 C329 1.378 . S
C328 H350 0.931 . S
C329 C324 1.377 . S
C329 C328 1.378 . S
C329 H351 0.931 . S
C330 O340 1.259 . S
C330 O341 1.270 . S
C331 O342 1.251 . S
C331 O343 1.251 . S
O332 C312 1.257 . S
O332 Eu313 2.473 . S
O333 C312 1.260 . S
O333 Eu313 2.480 . S
O334 Eu313 2.430 . S
O334 C320 1.259 . S
O335 Eu313 2.670 . S
O335 C320 1.270 . S
O335 Eu323 2.355 . S
O336 Eu313 2.394 . S
O336 C321 1.251 1_545 S
O337 C321 1.251 . S
O337 Eu323 2.374 1_565 S
O338 C322 1.257 . S
O338 Eu323 2.473 1_655 S
O339 C322 1.260 . S
O339 Eu323 2.480 1_655 S
O340 Eu323 2.430 . S
O340 C330 1.259 . S
O341 Eu313 2.355 . S
O341 Eu323 2.670 . S
O341 C330 1.270 . S
O342 Eu323 2.394 . S
O342 C331 1.251 . S
O343 Eu313 2.374 . S
O343 C331 1.251 . S
H344 C315 0.931 . S
H345 C316 0.931 . S
H346 C318 0.931 . S
H347 C319 0.931 . S
H348 C325 0.931 . S
H349 C326 0.931 . S
H350 C328 0.931 . S
H351 C329 0.931 . S
C352 Eu353 2.835 . S
C352 C354 1.500 . S
C352 O372 1.257 . S
C352 O373 1.260 . S
Eu353 C352 2.835 . S
Eu353 O372 2.473 . S
Eu353 O373 2.480 . S
Eu353 O374 2.430 . S
Eu353 O375 2.670 . S
Eu353 O376 2.394 . S
Eu353 O381 2.355 . S
Eu353 O383 2.374 . S
C354 C352 1.500 . S
C354 C355 1.377 . S
C354 C359 1.377 . S
C355 C354 1.377 . S
C355 C356 1.395 . S
C355 H384 0.931 . S
C356 C355 1.395 . S
C356 C357 1.383 . S
C356 H385 0.931 . S
C357 C356 1.383 . S
C357 C358 1.394 . S
C358 C357 1.394 . S
C358 C359 1.378 . S
C358 H386 0.931 . S
C359 C354 1.377 . S
C359 C358 1.378 . S
C359 H387 0.931 . S
C360 O374 1.259 . S
C360 O375 1.270 . S
C361 O376 1.251 . S
C361 O377 1.251 . S
C362 Eu363 2.835 . S
C362 C364 1.500 . S
C362 O378 1.257 . S
C362 O379 1.260 . S
Eu363 C362 2.835 . S
Eu363 O375 2.355 . S
Eu363 O377 2.374 . S
Eu363 O378 2.473 . S
Eu363 O379 2.480 . S
Eu363 O380 2.430 . S
Eu363 O381 2.670 . S
Eu363 O382 2.394 . S
C364 C362 1.500 . S
C364 C365 1.377 . S
C364 C369 1.377 . S
C365 C364 1.377 . S
C365 C366 1.395 . S
C365 H388 0.931 . S
C366 C365 1.395 . S
C366 C367 1.383 . S
C366 H389 0.931 . S
C367 C366 1.383 . S
C367 C368 1.394 . S
C368 C367 1.394 . S
C368 C369 1.378 . S
C368 H390 0.931 . S
C369 C364 1.377 . S
C369 C368 1.378 . S
C369 H391 0.931 . S
C370 O380 1.259 . S
C370 O381 1.270 . S
C371 O382 1.251 . S
C371 O383 1.251 . S
O372 C352 1.257 . S
O372 Eu353 2.473 . S
O373 C352 1.260 . S
O373 Eu353 2.480 . S
O374 Eu353 2.430 . S
O374 C360 1.259 . S
O375 Eu353 2.670 . S
O375 C360 1.270 . S
O375 Eu363 2.355 . S
O376 Eu353 2.394 . S
O376 C361 1.251 . S
O377 C361 1.251 . S
O377 Eu363 2.374 . S
O378 C362 1.257 . S
O378 Eu363 2.473 . S
O379 C362 1.260 . S
O379 Eu363 2.480 . S
O380 Eu363 2.430 . S
O380 C370 1.259 . S
O381 Eu353 2.355 . S
O381 Eu363 2.670 . S
O381 C370 1.270 . S
O382 Eu363 2.394 . S
O382 C371 1.251 . S
O383 Eu353 2.374 . S
O383 C371 1.251 . S
H384 C355 0.931 . S
H385 C356 0.931 . S
H386 C358 0.931 . S
H387 C359 0.931 . S
H388 C365 0.931 . S
H389 C366 0.931 . S
H390 C368 0.931 . S
H391 C369 0.931 . S
C392 Eu393 2.835 . S
C392 C394 1.500 . S
C392 O412 1.257 . S
C392 O413 1.260 . S
Eu393 C392 2.835 . S
Eu393 O412 2.473 . S
Eu393 O413 2.480 . S
Eu393 O414 2.430 . S
Eu393 O415 2.670 . S
Eu393 O416 2.394 . S
Eu393 O421 2.355 . S
Eu393 O423 2.374 1_545 S
C394 C392 1.500 . S
C394 C395 1.377 . S
C394 C399 1.377 . S
C395 C394 1.377 . S
C395 C396 1.395 . S
C395 H424 0.931 . S
C396 C395 1.395 . S
C396 C397 1.383 . S
C396 H425 0.931 . S
C397 C396 1.383 . S
C397 C398 1.394 . S
C398 C397 1.394 . S
C398 C399 1.378 . S
C398 H426 0.931 . S
C399 C394 1.377 . S
C399 C398 1.378 . S
C399 H427 0.931 . S
C400 O414 1.259 . S
C400 O415 1.270 . S
C401 O416 1.251 . S
C401 O417 1.251 . S
C402 Eu403 2.835 1_565 S
C402 C404 1.500 . S
C402 O418 1.257 . S
C402 O419 1.260 . S
Eu403 C402 2.835 1_545 S
Eu403 O415 2.355 . S
Eu403 O417 2.374 . S
Eu403 O418 2.473 1_545 S
Eu403 O419 2.480 1_545 S
Eu403 O420 2.430 . S
Eu403 O421 2.670 . S
Eu403 O422 2.394 1_545 S
C404 C402 1.500 . S
C404 C405 1.377 . S
C404 C409 1.377 . S
C405 C404 1.377 . S
C405 C406 1.395 . S
C405 H428 0.931 . S
C406 C405 1.395 . S
C406 C407 1.383 . S
C406 H429 0.931 . S
C407 C406 1.383 . S
C407 C408 1.394 . S
C408 C407 1.394 . S
C408 C409 1.378 . S
C408 H430 0.931 . S
C409 C404 1.377 . S
C409 C408 1.378 . S
C409 H431 0.931 . S
C410 O420 1.259 . S
C410 O421 1.270 . S
C411 O422 1.251 . S
C411 O423 1.251 . S
O412 C392 1.257 . S
O412 Eu393 2.473 . S
O413 C392 1.260 . S
O413 Eu393 2.480 . S
O414 Eu393 2.430 . S
O414 C400 1.259 . S
O415 Eu393 2.670 . S
O415 C400 1.270 . S
O415 Eu403 2.355 . S
O416 Eu393 2.394 . S
O416 C401 1.251 . S
O417 C401 1.251 . S
O417 Eu403 2.374 . S
O418 C402 1.257 . S
O418 Eu403 2.473 1_565 S
O419 C402 1.260 . S
O419 Eu403 2.480 1_565 S
O420 Eu403 2.430 . S
O420 C410 1.259 . S
O421 Eu393 2.355 . S
O421 Eu403 2.670 . S
O421 C410 1.270 . S
O422 Eu403 2.394 1_565 S
O422 C411 1.251 . S
O423 Eu393 2.374 1_565 S
O423 C411 1.251 . S
H424 C395 0.931 . S
H425 C396 0.931 . S
H426 C398 0.931 . S
H427 C399 0.931 . S
H428 C405 0.931 . S
H429 C406 0.931 . S
H430 C408 0.931 . S
H431 C409 0.931 . S
C432 Eu433 2.835 . S
C432 C434 1.500 . S
C432 O452 1.257 . S
C432 O453 1.260 . S
Eu433 C432 2.835 . S
Eu433 O452 2.473 . S
Eu433 O453 2.480 . S
Eu433 O454 2.430 . S
Eu433 O455 2.670 . S
Eu433 O456 2.394 . S
Eu433 O461 2.355 . S
Eu433 O463 2.374 . S
C434 C432 1.500 . S
C434 C435 1.377 . S
C434 C439 1.377 . S
C435 C434 1.377 . S
C435 C436 1.395 . S
C435 H464 0.931 . S
C436 C435 1.395 . S
C436 C437 1.383 . S
C436 H465 0.931 . S
C437 C436 1.383 . S
C437 C438 1.394 . S
C438 C437 1.394 . S
C438 C439 1.378 . S
C438 H466 0.931 . S
C439 C434 1.377 . S
C439 C438 1.378 . S
C439 H467 0.931 . S
C440 O454 1.259 . S
C440 O455 1.270 . S
C441 O456 1.251 . S
C441 O457 1.251 . S
C442 Eu443 2.835 . S
C442 C444 1.500 . S
C442 O458 1.257 . S
C442 O459 1.260 . S
Eu443 C442 2.835 . S
Eu443 O455 2.355 . S
Eu443 O457 2.374 . S
Eu443 O458 2.473 . S
Eu443 O459 2.480 . S
Eu443 O460 2.430 . S
Eu443 O461 2.670 . S
Eu443 O462 2.394 . S
C444 C442 1.500 . S
C444 C445 1.377 . S
C444 C449 1.377 . S
C445 C444 1.377 . S
C445 C446 1.395 . S
C445 H468 0.931 . S
C446 C445 1.395 . S
C446 C447 1.383 . S
C446 H469 0.931 . S
C447 C446 1.383 . S
C447 C448 1.394 . S
C448 C447 1.394 . S
C448 C449 1.378 . S
C448 H470 0.931 . S
C449 C444 1.377 . S
C449 C448 1.378 . S
C449 H471 0.931 . S
C450 O460 1.259 . S
C450 O461 1.270 . S
C451 O462 1.251 . S
C451 O463 1.251 . S
O452 C432 1.257 . S
O452 Eu433 2.473 . S
O453 C432 1.260 . S
O453 Eu433 2.480 . S
O454 Eu433 2.430 . S
O454 C440 1.259 . S
O455 Eu433 2.670 . S
O455 C440 1.270 . S
O455 Eu443 2.355 . S
O456 Eu433 2.394 . S
O456 C441 1.251 . S
O457 C441 1.251 . S
O457 Eu443 2.374 . S
O458 C442 1.257 . S
O458 Eu443 2.473 . S
O459 C442 1.260 . S
O459 Eu443 2.480 . S
O460 Eu443 2.430 . S
O460 C450 1.259 . S
O461 Eu433 2.355 . S
O461 Eu443 2.670 . S
O461 C450 1.270 . S
O462 Eu443 2.394 . S
O462 C451 1.251 . S
O463 Eu433 2.374 . S
O463 C451 1.251 . S
H464 C435 0.931 . S
H465 C436 0.931 . S
H466 C438 0.931 . S
H467 C439 0.931 . S
H468 C445 0.931 . S
H469 C446 0.931 . S
H470 C448 0.931 . S
H471 C449 0.931 . S
C472 Eu473 2.835 . S
C472 C474 1.500 . S
C472 O492 1.257 . S
C472 O493 1.260 . S
Eu473 C472 2.835 . S
Eu473 O492 2.473 . S
Eu473 O493 2.480 . S
Eu473 O494 2.428 1_565 S
Eu473 O495 2.670 1_565 S
Eu473 O496 2.394 . S
Eu473 O501 2.353 . S
Eu473 O503 2.374 . S
C474 C472 1.500 . S
C474 C475 1.377 . S
C474 C479 1.377 . S
C475 C474 1.377 . S
C475 C476 1.395 . S
C475 H504 0.931 . S
C476 C475 1.395 . S
C476 C477 1.383 . S
C476 H505 0.931 . S
C477 C476 1.383 . S
C477 C478 1.394 . S
C478 C477 1.394 . S
C478 C479 1.378 . S
C478 H506 0.931 . S
C479 C474 1.377 . S
C479 C478 1.378 . S
C479 H507 0.931 . S
C480 O494 1.267 . S
C480 O495 1.270 . S
C481 O496 1.251 1_545 S
C481 O497 1.251 . S
C482 Eu483 2.835 . S
C482 C484 1.500 . S
C482 O498 1.257 . S
C482 O499 1.260 . S
Eu483 C482 2.835 . S
Eu483 O495 2.355 . S
Eu483 O497 2.374 . S
Eu483 O498 2.473 . S
Eu483 O499 2.480 . S
Eu483 O500 2.430 1_455 S
Eu483 O501 2.674 1_545 S
Eu483 O502 2.394 . S
C484 C482 1.500 . S
C484 C485 1.377 . S
C484 C489 1.377 . S
C485 C484 1.377 . S
C485 C486 1.395 . S
C485 H508 0.931 1_455 S
C486 C485 1.395 . S
C486 C487 1.383 . S
C486 H509 0.931 1_455 S
C487 C486 1.383 . S
C487 C488 1.394 . S
C488 C487 1.394 . S
C488 C489 1.378 . S
C488 H510 0.931 . S
C489 C484 1.377 . S
C489 C488 1.378 . S
C489 H511 0.931 . S
C490 O500 1.259 . S
C490 O501 1.271 1_645 S
C491 O502 1.251 . S
C491 O503 1.251 1_545 S
O492 C472 1.257 . S
O492 Eu473 2.473 . S
O493 C472 1.260 . S
O493 Eu473 2.480 . S
O494 Eu473 2.428 1_545 S
O494 C480 1.267 . S
O495 Eu473 2.670 1_545 S
O495 C480 1.270 . S
O495 Eu483 2.355 . S
O496 Eu473 2.394 . S
O496 C481 1.251 1_565 S
O497 C481 1.251 . S
O497 Eu483 2.374 . S
O498 C482 1.257 . S
O498 Eu483 2.473 . S
O499 C482 1.260 . S
O499 Eu483 2.480 . S
O500 Eu483 2.430 1_655 S
O500 C490 1.259 . S
O501 Eu473 2.353 . S
O501 Eu483 2.674 1_565 S
O501 C490 1.271 1_465 S
O502 Eu483 2.394 . S
O502 C491 1.251 . S
O503 Eu473 2.374 . S
O503 C491 1.251 1_565 S
H504 C475 0.931 . S
H505 C476 0.931 . S
H506 C478 0.931 . S
H507 C479 0.931 . S
H508 C485 0.931 1_655 S
H509 C486 0.931 1_655 S
H510 C488 0.931 . S
H511 C489 0.931 . S
C512 Eu513 2.835 . S
C512 C514 1.500 . S
C512 O532 1.257 . S
C512 O533 1.260 . S
Eu513 C512 2.835 . S
Eu513 O532 2.473 . S
Eu513 O533 2.480 . S
Eu513 O534 2.430 . S
Eu513 O535 2.670 . S
Eu513 O536 2.394 . S
Eu513 O541 2.355 . S
Eu513 O543 2.374 . S
C514 C512 1.500 . S
C514 C515 1.377 . S
C514 C519 1.377 . S
C515 C514 1.377 . S
C515 C516 1.395 . S
C515 H544 0.931 . S
C516 C515 1.395 . S
C516 C517 1.383 . S
C516 H545 0.931 . S
C517 C516 1.383 . S
C517 C518 1.394 . S
C518 C517 1.394 . S
C518 C519 1.378 . S
C518 H546 0.931 . S
C519 C514 1.377 . S
C519 C518 1.378 . S
C519 H547 0.931 . S
C520 O534 1.259 . S
C520 O535 1.270 . S
C521 O536 1.251 . S
C521 O537 1.251 . S
C522 Eu523 2.835 . S
C522 C524 1.500 . S
C522 O538 1.257 . S
C522 O539 1.260 . S
Eu523 C522 2.835 . S
Eu523 O535 2.355 . S
Eu523 O537 2.374 . S
Eu523 O538 2.473 . S
Eu523 O539 2.480 . S
Eu523 O540 2.430 . S
Eu523 O541 2.670 . S
Eu523 O542 2.394 . S
C524 C522 1.500 . S
C524 C525 1.377 . S
C524 C529 1.377 . S
C525 C524 1.377 . S
C525 C526 1.395 . S
C525 H548 0.931 . S
C526 C525 1.395 . S
C526 C527 1.383 . S
C526 H549 0.931 . S
C527 C526 1.383 . S
C527 C528 1.394 . S
C528 C527 1.394 . S
C528 C529 1.378 . S
C528 H550 0.931 . S
C529 C524 1.377 . S
C529 C528 1.378 . S
C529 H551 0.931 . S
C530 O540 1.259 . S
C530 O541 1.270 . S
C531 O542 1.251 . S
C531 O543 1.251 . S
O532 C512 1.257 . S
O532 Eu513 2.473 . S
O533 C512 1.260 . S
O533 Eu513 2.480 . S
O534 Eu513 2.430 . S
O534 C520 1.259 . S
O535 Eu513 2.670 . S
O535 C520 1.270 . S
O535 Eu523 2.355 . S
O536 Eu513 2.394 . S
O536 C521 1.251 . S
O537 C521 1.251 . S
O537 Eu523 2.374 . S
O538 C522 1.257 . S
O538 Eu523 2.473 . S
O539 C522 1.260 . S
O539 Eu523 2.480 . S
O540 Eu523 2.430 . S
O540 C530 1.259 . S
O541 Eu513 2.355 . S
O541 Eu523 2.670 . S
O541 C530 1.270 . S
O542 Eu523 2.394 . S
O542 C531 1.251 . S
O543 Eu513 2.374 . S
O543 C531 1.251 . S
H544 C515 0.931 . S
H545 C516 0.931 . S
H546 C518 0.931 . S
H547 C519 0.931 . S
H548 C525 0.931 . S
H549 C526 0.931 . S
H550 C528 0.931 . S
H551 C529 0.931 . S
C552 Eu553 2.835 . S
C552 C554 1.500 . S
C552 O572 1.257 . S
C552 O573 1.260 . S
Eu553 C552 2.835 . S
Eu553 O572 2.473 . S
Eu553 O573 2.480 . S
Eu553 O574 2.430 1_545 S
Eu553 O575 2.670 1_545 S
Eu553 O576 2.394 . S
Eu553 O581 2.355 . S
Eu553 O583 2.374 . S
C554 C552 1.500 . S
C554 C555 1.377 . S
C554 C559 1.377 . S
C555 C554 1.377 . S
C555 C556 1.395 . S
C555 H584 0.931 . S
C556 C555 1.395 . S
C556 C557 1.383 . S
C556 H585 0.931 . S
C557 C556 1.383 . S
C557 C558 1.394 . S
C558 C557 1.394 . S
C558 C559 1.378 . S
C558 H586 0.931 . S
C559 C554 1.377 . S
C559 C558 1.378 . S
C559 H587 0.931 . S
C560 O574 1.259 . S
C560 O575 1.270 . S
C561 O576 1.282 . S
C561 O577 1.248 1_554 S
C562 Eu563 2.835 1_565 S
C562 C564 1.500 . S
C562 O578 1.257 . S
C562 O579 1.260 1_565 S
Eu563 C562 2.835 1_545 S
Eu563 O575 2.355 1_545 S
Eu563 O577 2.374 1_554 S
Eu563 O578 2.473 1_545 S
Eu563 O579 2.480 . S
Eu563 O580 2.430 . S
Eu563 O581 2.670 . S
Eu563 O582 2.394 . S
C564 C562 1.500 . S
C564 C565 1.377 . S
C564 C569 1.377 . S
C565 C564 1.377 . S
C565 C566 1.395 . S
C565 H588 0.931 1_565 S
C566 C565 1.395 . S
C566 C567 1.383 . S
C566 H589 0.931 . S
C567 C566 1.383 . S
C567 C568 1.394 . S
C568 C567 1.394 . S
C568 C569 1.378 . S
C568 H590 0.931 . S
C569 C564 1.377 . S
C569 C568 1.378 . S
C569 H591 0.931 . S
C570 O580 1.259 . S
C570 O581 1.270 . S
C571 O582 1.251 . S
C571 O583 1.251 . S
O572 C552 1.257 . S
O572 Eu553 2.473 . S
O573 C552 1.260 . S
O573 Eu553 2.480 . S
O574 Eu553 2.430 1_565 S
O574 C560 1.259 . S
O575 Eu553 2.670 1_565 S
O575 C560 1.270 . S
O575 Eu563 2.355 1_565 S
O576 Eu553 2.394 . S
O576 C561 1.282 . S
O577 C561 1.248 1_556 S
O577 Eu563 2.374 1_556 S
O578 C562 1.257 . S
O578 Eu563 2.473 1_565 S
O579 C562 1.260 1_545 S
O579 Eu563 2.480 . S
O580 Eu563 2.430 . S
O580 C570 1.259 . S
O581 Eu553 2.355 . S
O581 Eu563 2.670 . S
O581 C570 1.270 . S
O582 Eu563 2.394 . S
O582 C571 1.251 . S
O583 Eu553 2.374 . S
O583 C571 1.251 . S
H584 C555 0.931 . S
H585 C556 0.931 . S
H586 C558 0.931 . S
H587 C559 0.931 . S
H588 C565 0.931 1_545 S
H589 C566 0.931 . S
H590 C568 0.931 . S
H591 C569 0.931 . S
C592 Eu593 2.835 . S
C592 C594 1.500 . S
C592 O612 1.257 . S
C592 O613 1.260 . S
Eu593 C592 2.835 . S
Eu593 O612 2.473 . S
Eu593 O613 2.480 . S
Eu593 O614 2.430 . S
Eu593 O615 2.670 . S
Eu593 O616 2.394 . S
Eu593 O621 2.355 . S
Eu593 O623 2.374 . S
C594 C592 1.500 . S
C594 C595 1.377 . S
C594 C599 1.377 . S
C595 C594 1.377 . S
C595 C596 1.395 . S
C595 H624 0.931 . S
C596 C595 1.395 . S
C596 C597 1.383 . S
C596 H625 0.931 . S
C597 C596 1.383 . S
C597 C598 1.394 . S
C598 C597 1.394 . S
C598 C599 1.378 . S
C598 H626 0.931 . S
C599 C594 1.377 . S
C599 C598 1.378 . S
C599 H627 0.931 . S
C600 O614 1.259 . S
C600 O615 1.270 . S
C601 O616 1.251 . S
C601 O617 1.251 . S
C602 Eu603 2.835 . S
C602 C604 1.500 . S
C602 O618 1.257 . S
C602 O619 1.260 . S
Eu603 C602 2.835 . S
Eu603 O615 2.355 . S
Eu603 O617 2.374 . S
Eu603 O618 2.473 . S
Eu603 O619 2.480 . S
Eu603 O620 2.430 . S
Eu603 O621 2.670 . S
Eu603 O622 2.394 . S
C604 C602 1.500 . S
C604 C605 1.377 . S
C604 C609 1.377 . S
C605 C604 1.377 . S
C605 C606 1.395 . S
C605 H628 0.931 . S
C606 C605 1.395 . S
C606 C607 1.383 . S
C606 H629 0.931 . S
C607 C606 1.383 . S
C607 C608 1.394 . S
C608 C607 1.394 . S
C608 C609 1.378 . S
C608 H630 0.931 . S
C609 C604 1.377 . S
C609 C608 1.378 . S
C609 H631 0.931 . S
C610 O620 1.259 . S
C610 O621 1.270 . S
C611 O622 1.251 . S
C611 O623 1.251 . S
O612 C592 1.257 . S
O612 Eu593 2.473 . S
O613 C592 1.260 . S
O613 Eu593 2.480 . S
O614 Eu593 2.430 . S
O614 C600 1.259 . S
O615 Eu593 2.670 . S
O615 C600 1.270 . S
O615 Eu603 2.355 . S
O616 Eu593 2.394 . S
O616 C601 1.251 . S
O617 C601 1.251 . S
O617 Eu603 2.374 . S
O618 C602 1.257 . S
O618 Eu603 2.473 . S
O619 C602 1.260 . S
O619 Eu603 2.480 . S
O620 Eu603 2.430 . S
O620 C610 1.259 . S
O621 Eu593 2.355 . S
O621 Eu603 2.670 . S
O621 C610 1.270 . S
O622 Eu603 2.394 . S
O622 C611 1.251 . S
O623 Eu593 2.374 . S
O623 C611 1.251 . S
H624 C595 0.931 . S
H625 C596 0.931 . S
H626 C598 0.931 . S
H627 C599 0.931 . S
H628 C605 0.931 . S
H629 C606 0.931 . S
H630 C608 0.931 . S
H631 C609 0.931 . S
C632 Eu633 2.835 . S
C632 C634 1.500 . S
C632 O652 1.257 . S
C632 O653 1.260 . S
Eu633 C632 2.835 . S
Eu633 O652 2.473 . S
Eu633 O653 2.480 . S
Eu633 O654 2.430 . S
Eu633 O655 2.670 . S
Eu633 O656 2.394 . S
Eu633 O661 2.355 . S
Eu633 O663 2.374 . S
C634 C632 1.500 . S
C634 C635 1.377 . S
C634 C639 1.377 . S
C635 C634 1.377 . S
C635 C636 1.395 . S
C635 H664 0.931 . S
C636 C635 1.395 . S
C636 C637 1.383 . S
C636 H665 0.931 . S
C637 C636 1.383 . S
C637 C638 1.394 . S
C638 C637 1.394 . S
C638 C639 1.378 . S
C638 H666 0.931 . S
C639 C634 1.377 . S
C639 C638 1.378 . S
C639 H667 0.931 . S
C640 O654 1.259 . S
C640 O655 1.270 . S
C641 O656 1.251 . S
C641 O657 1.251 . S
C642 Eu643 2.835 . S
C642 C644 1.500 . S
C642 O658 1.257 . S
C642 O659 1.260 . S
Eu643 C642 2.835 . S
Eu643 O655 2.355 . S
Eu643 O657 2.374 . S
Eu643 O658 2.473 . S
Eu643 O659 2.480 . S
Eu643 O660 2.430 . S
Eu643 O661 2.670 . S
Eu643 O662 2.394 . S
C644 C642 1.500 . S
C644 C645 1.377 . S
C644 C649 1.377 . S
C645 C644 1.377 . S
C645 C646 1.395 . S
C645 H668 0.931 . S
C646 C645 1.395 . S
C646 C647 1.383 . S
C646 H669 0.931 . S
C647 C646 1.383 . S
C647 C648 1.394 . S
C648 C647 1.394 . S
C648 C649 1.378 . S
C648 H670 0.931 . S
C649 C644 1.377 . S
C649 C648 1.378 . S
C649 H671 0.931 . S
C650 O660 1.259 . S
C650 O661 1.270 . S
C651 O662 1.251 . S
C651 O663 1.251 . S
O652 C632 1.257 . S
O652 Eu633 2.473 . S
O653 C632 1.260 . S
O653 Eu633 2.480 . S
O654 Eu633 2.430 . S
O654 C640 1.259 . S
O655 Eu633 2.670 . S
O655 C640 1.270 . S
O655 Eu643 2.355 . S
O656 Eu633 2.394 . S
O656 C641 1.251 . S
O657 C641 1.251 . S
O657 Eu643 2.374 . S
O658 C642 1.257 . S
O658 Eu643 2.473 . S
O659 C642 1.260 . S
O659 Eu643 2.480 . S
O660 Eu643 2.430 . S
O660 C650 1.259 . S
O661 Eu633 2.355 . S
O661 Eu643 2.670 . S
O661 C650 1.270 . S
O662 Eu643 2.394 . S
O662 C651 1.251 . S
O663 Eu633 2.374 . S
O663 C651 1.251 . S
H664 C635 0.931 . S
H665 C636 0.931 . S
H666 C638 0.931 . S
H667 C639 0.931 . S
H668 C645 0.931 . S
H669 C646 0.931 . S
H670 C648 0.931 . S
H671 C649 0.931 . S
C672 Eu673 2.835 . S
C672 C674 1.500 . S
C672 O692 1.257 . S
C672 O693 1.260 . S
Eu673 C672 2.835 . S
Eu673 O692 2.473 . S
Eu673 O693 2.480 . S
Eu673 O694 2.430 . S
Eu673 O695 2.670 . S
Eu673 O696 2.394 . S
Eu673 O701 2.355 . S
Eu673 O703 2.374 . S
C674 C672 1.500 . S
C674 C675 1.377 . S
C674 C679 1.377 . S
C675 C674 1.377 . S
C675 C676 1.395 . S
C675 H704 0.931 . S
C676 C675 1.395 . S
C676 C677 1.383 . S
C676 H705 0.931 . S
C677 C676 1.383 . S
C677 C678 1.394 . S
C678 C677 1.394 . S
C678 C679 1.378 . S
C678 H706 0.931 . S
C679 C674 1.377 . S
C679 C678 1.378 . S
C679 H707 0.931 . S
C680 O694 1.259 . S
C680 O695 1.270 . S
C681 O696 1.251 . S
C681 O697 1.251 . S
C682 Eu683 2.835 . S
C682 C684 1.500 . S
C682 O698 1.257 . S
C682 O699 1.260 . S
Eu683 C682 2.835 . S
Eu683 O695 2.355 . S
Eu683 O697 2.374 . S
Eu683 O698 2.473 . S
Eu683 O699 2.480 . S
Eu683 O700 2.430 . S
Eu683 O701 2.670 . S
Eu683 O702 2.394 . S
C684 C682 1.500 . S
C684 C685 1.377 . S
C684 C689 1.377 . S
C685 C684 1.377 . S
C685 C686 1.395 . S
C685 H708 0.931 . S
C686 C685 1.395 . S
C686 C687 1.383 . S
C686 H709 0.931 . S
C687 C686 1.383 . S
C687 C688 1.394 . S
C688 C687 1.394 . S
C688 C689 1.378 . S
C688 H710 0.931 . S
C689 C684 1.377 . S
C689 C688 1.378 . S
C689 H711 0.931 . S
C690 O700 1.259 . S
C690 O701 1.270 . S
C691 O702 1.251 . S
C691 O703 1.251 . S
O692 C672 1.257 . S
O692 Eu673 2.473 . S
O693 C672 1.260 . S
O693 Eu673 2.480 . S
O694 Eu673 2.430 . S
O694 C680 1.259 . S
O695 Eu673 2.670 . S
O695 C680 1.270 . S
O695 Eu683 2.355 . S
O696 Eu673 2.394 . S
O696 C681 1.251 . S
O697 C681 1.251 . S
O697 Eu683 2.374 . S
O698 C682 1.257 . S
O698 Eu683 2.473 . S
O699 C682 1.260 . S
O699 Eu683 2.480 . S
O700 Eu683 2.430 . S
O700 C690 1.259 . S
O701 Eu673 2.355 . S
O701 Eu683 2.670 . S
O701 C690 1.270 . S
O702 Eu683 2.394 . S
O702 C691 1.251 . S
O703 Eu673 2.374 . S
O703 C691 1.251 . S
H704 C675 0.931 . S
H705 C676 0.931 . S
H706 C678 0.931 . S
H707 C679 0.931 . S
H708 C685 0.931 . S
H709 C686 0.931 . S
H710 C688 0.931 . S
H711 C689 0.931 . S
C712 Eu713 2.835 . S
C712 C714 1.500 . S
C712 O732 1.257 . S
C712 O733 1.260 . S
Eu713 C712 2.835 . S
Eu713 O732 2.473 . S
Eu713 O733 2.480 . S
Eu713 O734 2.430 . S
Eu713 O735 2.670 . S
Eu713 O736 2.394 . S
Eu713 O741 2.355 . S
Eu713 O743 2.374 . S
C714 C712 1.500 . S
C714 C715 1.377 . S
C714 C719 1.377 . S
C715 C714 1.377 . S
C715 C716 1.395 . S
C715 H744 0.931 . S
C716 C715 1.395 . S
C716 C717 1.383 . S
C716 H745 0.931 . S
C717 C716 1.383 . S
C717 C718 1.394 . S
C718 C717 1.394 . S
C718 C719 1.378 . S
C718 H746 0.931 . S
C719 C714 1.377 . S
C719 C718 1.378 . S
C719 H747 0.931 . S
C720 O734 1.259 . S
C720 O735 1.270 . S
C721 O736 1.251 . S
C721 O737 1.251 . S
C722 Eu723 2.835 . S
C722 C724 1.500 . S
C722 O738 1.257 . S
C722 O739 1.260 . S
Eu723 C722 2.835 . S
Eu723 O735 2.355 1_655 S
Eu723 O737 2.374 1_655 S
Eu723 O738 2.473 . S
Eu723 O739 2.480 . S
Eu723 O740 2.430 . S
Eu723 O741 2.670 1_655 S
Eu723 O742 2.394 . S
C724 C722 1.500 . S
C724 C725 1.377 . S
C724 C729 1.377 . S
C725 C724 1.377 . S
C725 C726 1.395 . S
C725 H748 0.931 . S
C726 C725 1.395 . S
C726 C727 1.383 . S
C726 H749 0.931 . S
C727 C726 1.383 . S
C727 C728 1.394 . S
C728 C727 1.394 . S
C728 C729 1.378 . S
C728 H750 0.931 . S
C729 C724 1.377 . S
C729 C728 1.378 . S
C729 H751 0.931 . S
C730 O740 1.259 1_455 S
C730 O741 1.270 . S
C731 O742 1.251 . S
C731 O743 1.251 1_655 S
O732 C712 1.257 . S
O732 Eu713 2.473 . S
O733 C712 1.260 . S
O733 Eu713 2.480 . S
O734 Eu713 2.430 . S
O734 C720 1.259 . S
O735 Eu713 2.670 . S
O735 C720 1.270 . S
O735 Eu723 2.355 1_455 S
O736 Eu713 2.394 . S
O736 C721 1.251 . S
O737 C721 1.251 . S
O737 Eu723 2.374 1_455 S
O738 C722 1.257 . S
O738 Eu723 2.473 . S
O739 C722 1.260 . S
O739 Eu723 2.480 . S
O740 Eu723 2.430 . S
O740 C730 1.259 1_655 S
O741 Eu713 2.355 . S
O741 Eu723 2.670 1_455 S
O741 C730 1.270 . S
O742 Eu723 2.394 . S
O742 C731 1.251 . S
O743 Eu713 2.374 . S
O743 C731 1.251 1_455 S
H744 C715 0.931 . S
H745 C716 0.931 . S
H746 C718 0.931 . S
H747 C719 0.931 . S
H748 C725 0.931 . S
H749 C726 0.931 . S
H750 C728 0.931 . S
H751 C729 0.931 . S
C752 Eu753 2.835 . S
C752 C754 1.500 . S
C752 O772 1.257 . S
C752 O773 1.260 . S
Eu753 C752 2.835 . S
Eu753 O772 2.473 . S
Eu753 O773 2.480 . S
Eu753 O774 2.430 . S
Eu753 O775 2.670 . S
Eu753 O776 2.394 . S
Eu753 O781 2.355 . S
Eu753 O783 2.374 . S
C754 C752 1.500 . S
C754 C755 1.377 . S
C754 C759 1.377 . S
C755 C754 1.377 . S
C755 C756 1.395 . S
C755 H784 0.931 . S
C756 C755 1.395 . S
C756 C757 1.383 . S
C756 H785 0.931 . S
C757 C756 1.383 . S
C757 C758 1.394 . S
C758 C757 1.394 . S
C758 C759 1.378 . S
C758 H786 0.931 . S
C759 C754 1.377 . S
C759 C758 1.378 . S
C759 H787 0.931 . S
C760 O774 1.259 . S
C760 O775 1.270 . S
C761 O776 1.251 . S
C761 O777 1.251 . S
C762 Eu763 2.835 . S
C762 C764 1.500 . S
C762 O778 1.257 . S
C762 O779 1.260 . S
Eu763 C762 2.835 . S
Eu763 O775 2.355 . S
Eu763 O777 2.374 . S
Eu763 O778 2.473 . S
Eu763 O779 2.480 . S
Eu763 O780 2.430 . S
Eu763 O781 2.670 . S
Eu763 O782 2.394 . S
C764 C762 1.500 . S
C764 C765 1.377 . S
C764 C769 1.377 . S
C765 C764 1.377 . S
C765 C766 1.395 . S
C765 H788 0.931 . S
C766 C765 1.395 . S
C766 C767 1.383 . S
C766 H789 0.931 . S
C767 C766 1.383 . S
C767 C768 1.394 . S
C768 C767 1.394 . S
C768 C769 1.378 . S
C768 H790 0.931 . S
C769 C764 1.377 . S
C769 C768 1.378 . S
C769 H791 0.931 . S
C770 O780 1.259 . S
C770 O781 1.270 . S
C771 O782 1.251 . S
C771 O783 1.251 . S
O772 C752 1.257 . S
O772 Eu753 2.473 . S
O773 C752 1.260 . S
O773 Eu753 2.480 . S
O774 Eu753 2.430 . S
O774 C760 1.259 . S
O775 Eu753 2.670 . S
O775 C760 1.270 . S
O775 Eu763 2.355 . S
O776 Eu753 2.394 . S
O776 C761 1.251 . S
O777 C761 1.251 . S
O777 Eu763 2.374 . S
O778 C762 1.257 . S
O778 Eu763 2.473 . S
O779 C762 1.260 . S
O779 Eu763 2.480 . S
O780 Eu763 2.430 . S
O780 C770 1.259 . S
O781 Eu753 2.355 . S
O781 Eu763 2.670 . S
O781 C770 1.270 . S
O782 Eu763 2.394 . S
O782 C771 1.251 . S
O783 Eu753 2.374 . S
O783 C771 1.251 . S
H784 C755 0.931 . S
H785 C756 0.931 . S
H786 C758 0.931 . S
H787 C759 0.931 . S
H788 C765 0.931 . S
H789 C766 0.931 . S
H790 C768 0.931 . S
H791 C769 0.931 . S
C792 Eu793 2.835 . S
C792 C794 1.500 . S
C792 O812 1.257 . S
C792 O813 1.260 . S
Eu793 C792 2.835 . S
Eu793 O812 2.473 . S
Eu793 O813 2.480 . S
Eu793 O814 2.430 . S
Eu793 O815 2.670 . S
Eu793 O816 2.394 . S
Eu793 O821 2.355 . S
Eu793 O823 2.374 . S
C794 C792 1.500 . S
C794 C795 1.377 . S
C794 C799 1.377 . S
C795 C794 1.377 . S
C795 C796 1.395 1_556 S
C795 H824 0.931 . S
C796 C795 1.395 1_554 S
C796 C797 1.383 . S
C796 H825 0.931 . S
C797 C796 1.383 . S
C797 C798 1.394 . S
C798 C797 1.394 . S
C798 C799 1.378 1_554 S
C798 H826 0.931 . S
C799 C794 1.377 . S
C799 C798 1.378 1_556 S
C799 H827 0.931 . S
C800 O814 1.259 . S
C800 O815 1.270 . S
C801 O816 1.251 . S
C801 O817 1.251 . S
C802 Eu803 2.835 . S
C802 C804 1.500 . S
C802 O818 1.257 . S
C802 O819 1.260 . S
Eu803 C802 2.835 . S
Eu803 O815 2.355 . S
Eu803 O817 2.374 . S
Eu803 O818 2.473 . S
Eu803 O819 2.480 . S
Eu803 O820 2.430 . S
Eu803 O821 2.670 . S
Eu803 O822 2.394 . S
C804 C802 1.500 . S
C804 C805 1.377 . S
C804 C809 1.377 . S
C805 C804 1.377 . S
C805 C806 1.395 . S
C805 H828 0.931 . S
C806 C805 1.395 . S
C806 C807 1.383 . S
C806 H829 0.931 . S
C807 C806 1.383 . S
C807 C808 1.394 . S
C808 C807 1.394 . S
C808 C809 1.378 . S
C808 H830 0.931 . S
C809 C804 1.377 . S
C809 C808 1.378 . S
C809 H831 0.931 . S
C810 O820 1.259 . S
C810 O821 1.270 . S
C811 O822 1.251 . S
C811 O823 1.251 . S
O812 C792 1.257 . S
O812 Eu793 2.473 . S
O813 C792 1.260 . S
O813 Eu793 2.480 . S
O814 Eu793 2.430 . S
O814 C800 1.259 . S
O815 Eu793 2.670 . S
O815 C800 1.270 . S
O815 Eu803 2.355 . S
O816 Eu793 2.394 . S
O816 C801 1.251 . S
O817 C801 1.251 . S
O817 Eu803 2.374 . S
O818 C802 1.257 . S
O818 Eu803 2.473 . S
O819 C802 1.260 . S
O819 Eu803 2.480 . S
O820 Eu803 2.430 . S
O820 C810 1.259 . S
O821 Eu793 2.355 . S
O821 Eu803 2.670 . S
O821 C810 1.270 . S
O822 Eu803 2.394 . S
O822 C811 1.251 . S
O823 Eu793 2.374 . S
O823 C811 1.251 . S
H824 C795 0.931 . S
H825 C796 0.931 . S
H826 C798 0.931 . S
H827 C799 0.931 . S
H828 C805 0.931 . S
H829 C806 0.931 . S
H830 C808 0.931 . S
H831 C809 0.931 . S
C832 Eu833 2.835 . S
C832 C834 1.500 . S
C832 O852 1.257 . S
C832 O853 1.260 . S
Eu833 C832 2.835 . S
Eu833 O852 2.473 . S
Eu833 O853 2.480 . S
Eu833 O854 2.430 . S
Eu833 O855 2.670 . S
Eu833 O856 2.394 . S
Eu833 O861 2.355 . S
Eu833 O863 2.374 . S
C834 C832 1.500 . S
C834 C835 1.377 . S
C834 C839 1.377 . S
C835 C834 1.377 . S
C835 C836 1.395 . S
C835 H864 0.931 . S
C836 C835 1.395 . S
C836 C837 1.383 . S
C836 H865 0.931 . S
C837 C836 1.383 . S
C837 C838 1.394 . S
C838 C837 1.394 . S
C838 C839 1.378 . S
C838 H866 0.931 . S
C839 C834 1.377 . S
C839 C838 1.378 . S
C839 H867 0.931 . S
C840 O854 1.259 . S
C840 O855 1.270 . S
C841 O856 1.251 . S
C841 O857 1.251 . S
C842 Eu843 2.835 . S
C842 C844 1.500 . S
C842 O858 1.257 . S
C842 O859 1.260 . S
Eu843 C842 2.835 . S
Eu843 O855 2.355 . S
Eu843 O857 2.374 . S
Eu843 O858 2.473 . S
Eu843 O859 2.480 . S
Eu843 O860 2.430 . S
Eu843 O861 2.670 . S
Eu843 O862 2.394 . S
C844 C842 1.500 . S
C844 C845 1.377 . S
C844 C849 1.377 . S
C845 C844 1.377 . S
C845 C846 1.395 . S
C845 H868 0.931 . S
C846 C845 1.395 . S
C846 C847 1.383 . S
C846 H869 0.931 . S
C847 C846 1.383 . S
C847 C848 1.394 . S
C848 C847 1.394 . S
C848 C849 1.378 . S
C848 H870 0.931 . S
C849 C844 1.377 . S
C849 C848 1.378 . S
C849 H871 0.931 . S
C850 O860 1.259 . S
C850 O861 1.270 . S
C851 O862 1.251 . S
C851 O863 1.251 . S
O852 C832 1.257 . S
O852 Eu833 2.473 . S
O853 C832 1.260 . S
O853 Eu833 2.480 . S
O854 Eu833 2.430 . S
O854 C840 1.259 . S
O855 Eu833 2.670 . S
O855 C840 1.270 . S
O855 Eu843 2.355 . S
O856 Eu833 2.394 . S
O856 C841 1.251 . S
O857 C841 1.251 . S
O857 Eu843 2.374 . S
O858 C842 1.257 . S
O858 Eu843 2.473 . S
O859 C842 1.260 . S
O859 Eu843 2.480 . S
O860 Eu843 2.430 . S
O860 C850 1.259 . S
O861 Eu833 2.355 . S
O861 Eu843 2.670 . S
O861 C850 1.270 . S
O862 Eu843 2.394 . S
O862 C851 1.251 . S
O863 Eu833 2.374 . S
O863 C851 1.251 . S
H864 C835 0.931 . S
H865 C836 0.931 . S
H866 C838 0.931 . S
H867 C839 0.931 . S
H868 C845 0.931 . S
H869 C846 0.931 . S
H870 C848 0.931 . S
H871 C849 0.931 . S
C872 Eu873 2.835 . S
C872 C874 1.500 . S
C872 O892 1.257 . S
C872 O893 1.260 . S
Eu873 C872 2.835 . S
Eu873 O892 2.473 . S
Eu873 O893 2.480 . S
Eu873 O894 2.430 . S
Eu873 O895 2.670 . S
Eu873 O896 2.394 . S
Eu873 O901 2.355 . S
Eu873 O903 2.374 . S
C874 C872 1.500 . S
C874 C875 1.377 . S
C874 C879 1.377 . S
C875 C874 1.377 . S
C875 C876 1.395 . S
C875 H904 0.931 . S
C876 C875 1.395 . S
C876 C877 1.383 . S
C876 H905 0.931 . S
C877 C876 1.383 . S
C877 C878 1.394 . S
C878 C877 1.394 . S
C878 C879 1.378 . S
C878 H906 0.931 . S
C879 C874 1.377 . S
C879 C878 1.378 . S
C879 H907 0.931 . S
C880 O894 1.259 . S
C880 O895 1.270 . S
C881 O896 1.251 . S
C881 O897 1.251 . S
C882 Eu883 2.835 . S
C882 C884 1.500 . S
C882 O898 1.257 . S
C882 O899 1.260 . S
Eu883 C882 2.835 . S
Eu883 O895 2.355 . S
Eu883 O897 2.374 . S
Eu883 O898 2.473 . S
Eu883 O899 2.480 . S
Eu883 O900 2.430 . S
Eu883 O901 2.670 . S
Eu883 O902 2.394 . S
C884 C882 1.500 . S
C884 C885 1.377 . S
C884 C889 1.377 . S
C885 C884 1.377 . S
C885 C886 1.395 . S
C885 H908 0.931 . S
C886 C885 1.395 . S
C886 C887 1.383 . S
C886 H909 0.931 . S
C887 C886 1.383 . S
C887 C888 1.394 . S
C888 C887 1.394 . S
C888 C889 1.378 . S
C888 H910 0.931 . S
C889 C884 1.377 . S
C889 C888 1.378 . S
C889 H911 0.931 . S
C890 O900 1.259 . S
C890 O901 1.270 . S
C891 O902 1.251 . S
C891 O903 1.251 . S
O892 C872 1.257 . S
O892 Eu873 2.473 . S
O893 C872 1.260 . S
O893 Eu873 2.480 . S
O894 Eu873 2.430 . S
O894 C880 1.259 . S
O895 Eu873 2.670 . S
O895 C880 1.270 . S
O895 Eu883 2.355 . S
O896 Eu873 2.394 . S
O896 C881 1.251 . S
O897 C881 1.251 . S
O897 Eu883 2.374 . S
O898 C882 1.257 . S
O898 Eu883 2.473 . S
O899 C882 1.260 . S
O899 Eu883 2.480 . S
O900 Eu883 2.430 . S
O900 C890 1.259 . S
O901 Eu873 2.355 . S
O901 Eu883 2.670 . S
O901 C890 1.270 . S
O902 Eu883 2.394 . S
O902 C891 1.251 . S
O903 Eu873 2.374 . S
O903 C891 1.251 . S
H904 C875 0.931 . S
H905 C876 0.931 . S
H906 C878 0.931 . S
H907 C879 0.931 . S
H908 C885 0.931 . S
H909 C886 0.931 . S
H910 C888 0.931 . S
H911 C889 0.931 . S
C912 Eu913 2.835 . S
C912 C914 1.500 . S
C912 O932 1.257 . S
C912 O933 1.260 . S
Eu913 C912 2.835 . S
Eu913 O932 2.473 . S
Eu913 O933 2.480 . S
Eu913 O934 2.430 1_655 S
Eu913 O935 2.670 1_655 S
Eu913 O936 2.394 1_655 S
Eu913 O941 2.355 1_655 S
Eu913 O943 2.374 1_655 S
C914 C912 1.500 . S
C914 C915 1.377 . S
C914 C919 1.377 . S
C915 C914 1.377 . S
C915 C916 1.395 . S
C915 H944 0.931 . S
C916 C915 1.395 . S
C916 C917 1.383 . S
C916 H945 0.931 . S
C917 C916 1.383 . S
C917 C918 1.394 . S
C918 C917 1.394 . S
C918 C919 1.378 . S
C918 H946 0.931 . S
C919 C914 1.377 . S
C919 C918 1.378 . S
C919 H947 0.931 . S
C920 O934 1.259 . S
C920 O935 1.270 . S
C921 O936 1.251 . S
C921 O937 1.251 . S
C922 Eu923 2.835 . S
C922 C924 1.500 . S
C922 O938 1.257 . S
C922 O939 1.260 . S
Eu923 C922 2.835 . S
Eu923 O935 2.355 . S
Eu923 O937 2.374 . S
Eu923 O938 2.473 . S
Eu923 O939 2.480 . S
Eu923 O940 2.430 . S
Eu923 O941 2.670 . S
Eu923 O942 2.394 . S
C924 C922 1.500 . S
C924 C925 1.377 . S
C924 C929 1.377 . S
C925 C924 1.377 . S
C925 C926 1.395 . S
C925 H948 0.931 . S
C926 C925 1.395 . S
C926 C927 1.383 . S
C926 H949 0.931 1_554 S
C927 C926 1.383 . S
C927 C928 1.394 . S
C928 C927 1.394 . S
C928 C929 1.378 . S
C928 H950 0.931 . S
C929 C924 1.377 . S
C929 C928 1.378 . S
C929 H951 0.931 . S
C930 O940 1.259 . S
C930 O941 1.270 . S
C931 O942 1.251 . S
C931 O943 1.251 . S
O932 C912 1.257 . S
O932 Eu913 2.473 . S
O933 C912 1.260 . S
O933 Eu913 2.480 . S
O934 Eu913 2.430 1_455 S
O934 C920 1.259 . S
O935 Eu913 2.670 1_455 S
O935 C920 1.270 . S
O935 Eu923 2.355 . S
O936 Eu913 2.394 1_455 S
O936 C921 1.251 . S
O937 C921 1.251 . S
O937 Eu923 2.374 . S
O938 C922 1.257 . S
O938 Eu923 2.473 . S
O939 C922 1.260 . S
O939 Eu923 2.480 . S
O940 Eu923 2.430 . S
O940 C930 1.259 . S
O941 Eu913 2.355 1_455 S
O941 Eu923 2.670 . S
O941 C930 1.270 . S
O942 Eu923 2.394 . S
O942 C931 1.251 . S
O943 Eu913 2.374 1_455 S
O943 C931 1.251 . S
H944 C915 0.931 . S
H945 C916 0.931 . S
H946 C918 0.931 . S
H947 C919 0.931 . S
H948 C925 0.931 . S
H949 C926 0.931 1_556 S
H950 C928 0.931 . S
H951 C929 0.931 . S
C952 C953 1.369 . S
C952 C954 1.419 . S
C952 H956 0.930 1_554 S
C953 C952 1.369 . S
C953 C962 1.429 . S
C954 C952 1.419 . S
C954 C955 1.363 . S
C954 H957 0.929 . S
C955 C954 1.363 . S
C955 C961 1.428 . S
H956 C952 0.930 1_556 S
H957 C954 0.929 . S
S958 N959 1.613 . S
S958 N960 1.610 1_655 S
N959 S958 1.613 . S
N959 C962 1.350 1_655 S
N960 S958 1.610 1_455 S
N960 C961 1.351 . S
C961 C955 1.428 . S
C961 N960 1.351 . S
C961 C962 1.434 . S
C962 C953 1.429 . S
C962 N959 1.350 1_455 S
C962 C961 1.434 . S
C963 C964 1.369 . S
C963 C965 1.419 . S
C963 H967 0.930 . S
C964 C963 1.369 . S
C964 C973 1.429 . S
C965 C963 1.419 . S
C965 C966 1.363 . S
C965 H968 0.929 . S
C966 C965 1.363 . S
C966 C972 1.428 . S
H967 C963 0.930 . S
H968 C965 0.929 . S
S969 N970 1.613 . S
S969 N971 1.610 . S
N970 S969 1.613 . S
N970 C973 1.350 . S
N971 S969 1.610 . S
N971 C972 1.351 . S
C972 C966 1.428 . S
C972 N971 1.351 . S
C972 C973 1.434 . S
C973 C964 1.429 . S
C973 N970 1.350 . S
C973 C972 1.434 . S
C974 C975 1.369 . S
C974 C976 1.419 . S
C974 H978 0.930 . S
C975 C974 1.369 . S
C975 C984 1.429 . S
C976 C974 1.419 . S
C976 C977 1.363 . S
C976 H979 0.929 . S
C977 C976 1.363 . S
C977 C983 1.428 . S
H978 C974 0.930 . S
H979 C976 0.929 . S
S980 N981 1.613 . S
S980 N982 1.610 . S
N981 S980 1.613 . S
N981 C984 1.350 . S
N982 S980 1.610 . S
N982 C983 1.351 . S
C983 C977 1.428 . S
C983 N982 1.351 . S
C983 C984 1.434 . S
C984 C975 1.429 . S
C984 N981 1.350 . S
C984 C983 1.434 . S
C985 C986 1.369 . S
C985 C987 1.419 . S
C985 H989 0.930 . S
C986 C985 1.369 . S
C986 C995 1.429 . S
C987 C985 1.419 . S
C987 C988 1.363 . S
C987 H990 0.929 . S
C988 C987 1.363 . S
C988 C994 1.428 . S
H989 C985 0.930 . S
H990 C987 0.929 . S
S991 N992 1.613 . S
S991 N993 1.610 . S
N992 S991 1.613 . S
N992 C995 1.350 . S
N993 S991 1.610 . S
N993 C994 1.351 . S
C994 C988 1.428 . S
C994 N993 1.351 . S
C994 C995 1.434 . S
C995 C986 1.429 . S
C995 N992 1.350 . S
C995 C994 1.434 . S
C996 C997 1.369 . S
C996 C998 1.419 . S
C996 H1000 0.930 . S
C997 C996 1.369 . S
C997 C1006 1.429 . S
C998 C996 1.419 . S
C998 C999 1.363 . S
C998 H1001 0.929 . S
C999 C998 1.363 . S
C999 C1005 1.428 . S
H1000 C996 0.930 . S
H1001 C998 0.929 . S
S1002 N1003 1.613 . S
S1002 N1004 1.610 . S
N1003 S1002 1.613 . S
N1003 C1006 1.350 . S
N1004 S1002 1.610 . S
N1004 C1005 1.351 . S
C1005 C999 1.428 . S
C1005 N1004 1.351 . S
C1005 C1006 1.434 . S
C1006 C997 1.429 . S
C1006 N1003 1.350 . S
C1006 C1005 1.434 . S
C1007 C1008 1.369 . S
C1007 C1009 1.419 . S
C1007 H1011 0.930 . S
C1008 C1007 1.369 . S
C1008 C1017 1.429 . S
C1009 C1007 1.419 . S
C1009 C1010 1.363 . S
C1009 H1012 0.929 . S
C1010 C1009 1.363 . S
C1010 C1016 1.428 . S
H1011 C1007 0.930 . S
H1012 C1009 0.929 . S
S1013 N1014 1.613 . S
S1013 N1015 1.610 . S
N1014 S1013 1.613 . S
N1014 C1017 1.350 . S
N1015 S1013 1.610 . S
N1015 C1016 1.351 . S
C1016 C1010 1.428 . S
C1016 N1015 1.351 . S
C1016 C1017 1.434 . S
C1017 C1008 1.429 . S
C1017 N1014 1.350 . S
C1017 C1016 1.434 . S
C1018 C1019 1.369 . S
C1018 C1020 1.419 . S
C1018 H1022 0.930 . S
C1019 C1018 1.369 . S
C1019 C1028 1.429 . S
C1020 C1018 1.419 . S
C1020 C1021 1.363 . S
C1020 H1023 0.929 . S
C1021 C1020 1.363 . S
C1021 C1027 1.428 . S
H1022 C1018 0.930 . S
H1023 C1020 0.929 . S
S1024 N1025 1.613 . S
S1024 N1026 1.610 . S
N1025 S1024 1.613 . S
N1025 C1028 1.350 . S
N1026 S1024 1.610 . S
N1026 C1027 1.351 . S
C1027 C1021 1.428 . S
C1027 N1026 1.351 . S
C1027 C1028 1.434 . S
C1028 C1019 1.429 . S
C1028 N1025 1.350 . S
C1028 C1027 1.434 . S
C1029 C1030 1.369 . S
C1029 C1031 1.419 . S
C1029 H1033 0.930 . S
C1030 C1029 1.369 . S
C1030 C1039 1.429 . S
C1031 C1029 1.419 . S
C1031 C1032 1.363 . S
C1031 H1034 0.929 . S
C1032 C1031 1.363 . S
C1032 C1038 1.428 . S
H1033 C1029 0.930 . S
H1034 C1031 0.929 . S
S1035 N1036 1.613 . S
S1035 N1037 1.610 . S
N1036 S1035 1.613 . S
N1036 C1039 1.350 . S
N1037 S1035 1.610 . S
N1037 C1038 1.351 . S
C1038 C1032 1.428 . S
C1038 N1037 1.351 . S
C1038 C1039 1.434 . S
C1039 C1030 1.429 . S
C1039 N1036 1.350 . S
C1039 C1038 1.434 . S
C1040 C1041 1.369 . S
C1040 C1042 1.419 1_655 S
C1040 H1044 0.930 . S
C1041 C1040 1.369 . S
C1041 C1050 1.429 . S
C1042 C1040 1.419 1_455 S
C1042 C1043 1.363 . S
C1042 H1045 0.929 . S
C1043 C1042 1.363 . S
C1043 C1049 1.428 1_455 S
H1044 C1040 0.930 . S
H1045 C1042 0.929 . S
S1046 N1047 1.613 . S
S1046 N1048 1.610 1_655 S
N1047 S1046 1.613 . S
N1047 C1050 1.350 1_565 S
N1048 S1046 1.610 1_455 S
N1048 C1049 1.351 1_465 S
C1049 C1043 1.428 1_655 S
C1049 N1048 1.351 1_645 S
C1049 C1050 1.435 . S
C1050 C1041 1.429 . S
C1050 N1047 1.350 1_545 S
C1050 C1049 1.435 . S
C1051 C1052 1.369 . S
C1051 C1053 1.419 . S
C1051 H1055 0.930 . S
C1052 C1051 1.369 . S
C1052 C1061 1.429 . S
C1053 C1051 1.419 . S
C1053 C1054 1.363 . S
C1053 H1056 0.929 . S
C1054 C1053 1.363 . S
C1054 C1060 1.428 . S
H1055 C1051 0.930 . S
H1056 C1053 0.929 . S
S1057 N1058 1.613 . S
S1057 N1059 1.610 . S
N1058 S1057 1.613 . S
N1058 C1061 1.350 . S
N1059 S1057 1.610 . S
N1059 C1060 1.351 . S
C1060 C1054 1.428 . S
C1060 N1059 1.351 . S
C1060 C1061 1.434 . S
C1061 C1052 1.429 . S
C1061 N1058 1.350 . S
C1061 C1060 1.434 . S
C1062 C1063 1.369 1_545 S
C1062 C1064 1.419 . S
C1062 H1066 0.930 . S
C1063 C1062 1.369 1_565 S
C1063 C1072 1.429 . S
C1064 C1062 1.419 . S
C1064 C1065 1.363 . S
C1064 H1067 0.929 . S
C1065 C1064 1.363 . S
C1065 C1071 1.428 1_545 S
H1066 C1062 0.930 . S
H1067 C1064 0.929 . S
S1068 N1069 1.613 . S
S1068 N1070 1.610 . S
N1069 S1068 1.613 . S
N1069 C1072 1.350 . S
N1070 S1068 1.610 . S
N1070 C1071 1.351 . S
C1071 C1065 1.428 1_565 S
C1071 N1070 1.351 . S
C1071 C1072 1.434 . S
C1072 C1063 1.429 . S
C1072 N1069 1.350 . S
C1072 C1071 1.434 . S
C1073 C1074 1.369 . S
C1073 C1075 1.419 . S
C1073 H1077 0.930 . S
C1074 C1073 1.369 . S
C1074 C1083 1.429 . S
C1075 C1073 1.419 . S
C1075 C1076 1.363 . S
C1075 H1078 0.929 . S
C1076 C1075 1.363 . S
C1076 C1082 1.428 . S
H1077 C1073 0.930 . S
H1078 C1075 0.929 . S
S1079 N1080 1.613 . S
S1079 N1081 1.610 . S
N1080 S1079 1.613 . S
N1080 C1083 1.350 . S
N1081 S1079 1.610 . S
N1081 C1082 1.351 . S
C1082 C1076 1.428 . S
C1082 N1081 1.351 . S
C1082 C1083 1.434 . S
C1083 C1074 1.429 . S
C1083 N1080 1.350 . S
C1083 C1082 1.434 . S
C1084 C1085 1.369 . S
C1084 C1086 1.419 . S
C1084 H1088 0.930 . S
C1085 C1084 1.369 . S
C1085 C1094 1.429 . S
C1086 C1084 1.419 . S
C1086 C1087 1.363 1_655 S
C1086 H1089 0.929 . S
C1087 C1086 1.363 1_455 S
C1087 C1093 1.428 . S
H1088 C1084 0.930 . S
H1089 C1086 0.929 . S
S1090 N1091 1.613 1_455 S
S1090 N1092 1.610 . S
N1091 S1090 1.613 1_655 S
N1091 C1094 1.350 . S
N1092 S1090 1.610 . S
N1092 C1093 1.351 . S
C1093 C1087 1.428 . S
C1093 N1092 1.351 . S
C1093 C1094 1.434 1_455 S
C1094 C1085 1.429 . S
C1094 N1091 1.350 . S
C1094 C1093 1.434 1_655 S
C1095 C1096 1.369 . S
C1095 C1097 1.419 . S
C1095 H1099 0.930 . S
C1096 C1095 1.369 . S
C1096 C1105 1.429 . S
C1097 C1095 1.419 . S
C1097 C1098 1.363 . S
C1097 H1100 0.929 . S
C1098 C1097 1.363 . S
C1098 C1104 1.428 . S
H1099 C1095 0.930 . S
H1100 C1097 0.929 . S
S1101 N1102 1.613 . S
S1101 N1103 1.610 . S
N1102 S1101 1.613 . S
N1102 C1105 1.350 . S
N1103 S1101 1.610 . S
N1103 C1104 1.351 . S
C1104 C1098 1.428 . S
C1104 N1103 1.351 . S
C1104 C1105 1.434 . S
C1105 C1096 1.429 . S
C1105 N1102 1.350 . S
C1105 C1104 1.434 . S
C1106 C1107 1.369 . S
C1106 C1108 1.419 . S
C1106 H1110 0.930 1_545 S
C1107 C1106 1.369 . S
C1107 C1116 1.429 . S
C1108 C1106 1.419 . S
C1108 C1109 1.363 . S
C1108 H1111 0.929 . S
C1109 C1108 1.363 . S
C1109 C1115 1.428 . S
H1110 C1106 0.930 1_565 S
H1111 C1108 0.929 . S
S1112 N1113 1.613 . S
S1112 N1114 1.610 . S
N1113 S1112 1.613 . S
N1113 C1116 1.350 . S
N1114 S1112 1.610 . S
N1114 C1115 1.351 . S
C1115 C1109 1.428 . S
C1115 N1114 1.351 . S
C1115 C1116 1.434 . S
C1116 C1107 1.429 . S
C1116 N1113 1.350 . S
C1116 C1115 1.434 . S
C1117 C1118 1.369 . S
C1117 C1119 1.419 . S
C1117 H1121 0.930 . S
C1118 C1117 1.369 . S
C1118 C1127 1.429 . S
C1119 C1117 1.419 . S
C1119 C1120 1.363 . S
C1119 H1122 0.929 . S
C1120 C1119 1.363 . S
C1120 C1126 1.428 . S
H1121 C1117 0.930 . S
H1122 C1119 0.929 . S
S1123 N1124 1.613 . S
S1123 N1125 1.610 . S
N1124 S1123 1.613 . S
N1124 C1127 1.350 . S
N1125 S1123 1.610 . S
N1125 C1126 1.351 . S
C1126 C1120 1.428 . S
C1126 N1125 1.351 . S
C1126 C1127 1.434 . S
C1127 C1118 1.429 . S
C1127 N1124 1.350 . S
C1127 C1126 1.434 . S
C1128 C1129 1.369 . S
C1128 C1130 1.419 . S
C1128 H1132 0.930 . S
C1129 C1128 1.369 . S
C1129 C1138 1.429 . S
C1130 C1128 1.419 . S
C1130 C1131 1.363 . S
C1130 H1133 0.929 . S
C1131 C1130 1.363 . S
C1131 C1137 1.428 . S
H1132 C1128 0.930 . S
H1133 C1130 0.929 . S
S1134 N1135 1.613 . S
S1134 N1136 1.610 . S
N1135 S1134 1.613 . S
N1135 C1138 1.350 . S
N1136 S1134 1.610 . S
N1136 C1137 1.351 . S
C1137 C1131 1.428 . S
C1137 N1136 1.351 . S
C1137 C1138 1.434 . S
C1138 C1129 1.429 . S
C1138 N1135 1.350 . S
C1138 C1137 1.434 . S
C1139 C1140 1.369 . S
C1139 C1141 1.419 . S
C1139 H1143 0.930 . S
C1140 C1139 1.369 . S
C1140 C1149 1.429 . S
C1141 C1139 1.419 . S
C1141 C1142 1.363 . S
C1141 H1144 0.929 . S
C1142 C1141 1.363 . S
C1142 C1148 1.428 . S
H1143 C1139 0.930 . S
H1144 C1141 0.929 . S
S1145 N1146 1.613 . S
S1145 N1147 1.610 . S
N1146 S1145 1.613 . S
N1146 C1149 1.350 . S
N1147 S1145 1.610 . S
N1147 C1148 1.351 . S
C1148 C1142 1.428 . S
C1148 N1147 1.351 . S
C1148 C1149 1.434 . S
C1149 C1140 1.429 . S
C1149 N1146 1.350 . S
C1149 C1148 1.434 . S
C1150 C1151 1.369 . S
C1150 C1152 1.419 . S
C1150 H1154 0.930 . S
C1151 C1150 1.369 . S
C1151 C1160 1.429 . S
C1152 C1150 1.419 . S
C1152 C1153 1.363 . S
C1152 H1155 0.929 . S
C1153 C1152 1.363 . S
C1153 C1159 1.428 . S
H1154 C1150 0.930 . S
H1155 C1152 0.929 . S
S1156 N1157 1.613 . S
S1156 N1158 1.610 . S
N1157 S1156 1.613 . S
N1157 C1160 1.350 . S
N1158 S1156 1.610 . S
N1158 C1159 1.351 . S
C1159 C1153 1.428 . S
C1159 N1158 1.351 . S
C1159 C1160 1.434 . S
C1160 C1151 1.429 . S
C1160 N1157 1.350 . S
C1160 C1159 1.434 . S
C1161 C1162 1.369 . S
C1161 C1163 1.419 . S
C1161 H1165 0.930 . S
C1162 C1161 1.369 . S
C1162 C1171 1.429 . S
C1163 C1161 1.419 . S
C1163 C1164 1.363 . S
C1163 H1166 0.929 . S
C1164 C1163 1.363 . S
C1164 C1170 1.428 . S
H1165 C1161 0.930 . S
H1166 C1163 0.929 . S
S1167 N1168 1.613 . S
S1167 N1169 1.610 . S
N1168 S1167 1.613 . S
N1168 C1171 1.350 . S
N1169 S1167 1.610 . S
N1169 C1170 1.351 . S
C1170 C1164 1.428 . S
C1170 N1169 1.351 . S
C1170 C1171 1.434 . S
C1171 C1162 1.429 . S
C1171 N1168 1.350 . S
C1171 C1170 1.434 . S
C1172 C1173 1.369 . S
C1172 C1174 1.419 . S
C1172 H1176 0.930 . S
C1173 C1172 1.369 . S
C1173 C1182 1.429 . S
C1174 C1172 1.419 . S
C1174 C1175 1.363 . S
C1174 H1177 0.929 . S
C1175 C1174 1.363 . S
C1175 C1181 1.428 . S
H1176 C1172 0.930 . S
H1177 C1174 0.929 . S
S1178 N1179 1.613 . S
S1178 N1180 1.610 . S
N1179 S1178 1.613 . S
N1179 C1182 1.350 . S
N1180 S1178 1.610 . S
N1180 C1181 1.351 . S
C1181 C1175 1.428 . S
C1181 N1180 1.351 . S
C1181 C1182 1.434 . S
C1182 C1173 1.429 . S
C1182 N1179 1.350 . S
C1182 C1181 1.434 . S
C1183 C1184 1.369 . S
C1183 C1185 1.419 . S
C1183 H1187 0.930 . S
C1184 C1183 1.369 . S
C1184 C1193 1.429 . S
C1185 C1183 1.419 . S
C1185 C1186 1.363 . S
C1185 H1188 0.929 . S
C1186 C1185 1.363 . S
C1186 C1192 1.428 . S
H1187 C1183 0.930 . S
H1188 C1185 0.929 . S
S1189 N1190 1.613 . S
S1189 N1191 1.610 . S
N1190 S1189 1.613 . S
N1190 C1193 1.350 . S
N1191 S1189 1.610 . S
N1191 C1192 1.351 . S
C1192 C1186 1.428 . S
C1192 N1191 1.351 . S
C1192 C1193 1.434 . S
C1193 C1184 1.429 . S
C1193 N1190 1.350 . S
C1193 C1192 1.434 . S
C1194 C1195 1.369 . S
C1194 C1196 1.419 . S
C1194 H1198 0.930 . S
C1195 C1194 1.369 . S
C1195 C1204 1.429 . S
C1196 C1194 1.419 . S
C1196 C1197 1.363 . S
C1196 H1199 0.929 . S
C1197 C1196 1.363 . S
C1197 C1203 1.428 . S
H1198 C1194 0.930 . S
H1199 C1196 0.929 . S
S1200 N1201 1.613 . S
S1200 N1202 1.610 . S
N1201 S1200 1.613 . S
N1201 C1204 1.350 . S
N1202 S1200 1.610 . S
N1202 C1203 1.351 . S
C1203 C1197 1.428 . S
C1203 N1202 1.351 . S
C1203 C1204 1.434 . S
C1204 C1195 1.429 . S
C1204 N1201 1.350 . S
C1204 C1203 1.434 . S
C1205 C1206 1.369 . S
C1205 C1207 1.419 . S
C1205 H1209 0.930 . S
C1206 C1205 1.369 . S
C1206 C1215 1.429 . S
C1207 C1205 1.419 . S
C1207 C1208 1.363 . S
C1207 H1210 0.929 . S
C1208 C1207 1.363 . S
C1208 C1214 1.428 . S
H1209 C1205 0.930 . S
H1210 C1207 0.929 . S
S1211 N1212 1.613 . S
S1211 N1213 1.610 . S
N1212 S1211 1.613 . S
N1212 C1215 1.350 . S
N1213 S1211 1.610 . S
N1213 C1214 1.351 . S
C1214 C1208 1.428 . S
C1214 N1213 1.351 . S
C1214 C1215 1.434 . S
C1215 C1206 1.429 . S
C1215 N1212 1.350 . S
C1215 C1214 1.434 . S
C1216 C1217 1.369 . S
C1216 C1218 1.419 . S
C1216 H1220 0.930 . S
C1217 C1216 1.369 . S
C1217 C1226 1.429 . S
C1218 C1216 1.419 . S
C1218 C1219 1.363 . S
C1218 H1221 0.929 . S
C1219 C1218 1.363 . S
C1219 C1225 1.428 . S
H1220 C1216 0.930 . S
H1221 C1218 0.929 . S
S1222 N1223 1.613 . S
S1222 N1224 1.610 . S
N1223 S1222 1.613 . S
N1223 C1226 1.350 . S
N1224 S1222 1.610 . S
N1224 C1225 1.351 . S
C1225 C1219 1.428 . S
C1225 N1224 1.351 . S
C1225 C1226 1.434 . S
C1226 C1217 1.429 . S
C1226 N1223 1.350 . S
C1226 C1225 1.434 . S
C1227 C1228 1.369 . S
C1227 C1229 1.419 . S
C1227 H1231 0.930 . S
C1228 C1227 1.369 . S
C1228 C1237 1.429 . S
C1229 C1227 1.419 . S
C1229 C1230 1.363 . S
C1229 H1232 0.929 . S
C1230 C1229 1.363 . S
C1230 C1236 1.428 . S
H1231 C1227 0.930 . S
H1232 C1229 0.929 . S
S1233 N1234 1.613 . S
S1233 N1235 1.610 . S
N1234 S1233 1.613 . S
N1234 C1237 1.350 . S
N1235 S1233 1.610 . S
N1235 C1236 1.351 . S
C1236 C1230 1.428 . S
C1236 N1235 1.351 . S
C1236 C1237 1.434 . S
C1237 C1228 1.429 . S
C1237 N1234 1.350 . S
C1237 C1236 1.434 . S
C1238 C1239 1.369 . S
C1238 C1240 1.419 . S
C1238 H1242 0.930 . S
C1239 C1238 1.369 . S
C1239 C1248 1.429 . S
C1240 C1238 1.419 . S
C1240 C1241 1.363 . S
C1240 H1243 0.929 . S
C1241 C1240 1.363 . S
C1241 C1247 1.428 . S
H1242 C1238 0.930 . S
H1243 C1240 0.929 . S
S1244 N1245 1.613 . S
S1244 N1246 1.610 . S
N1245 S1244 1.613 . S
N1245 C1248 1.350 . S
N1246 S1244 1.610 . S
N1246 C1247 1.351 . S
C1247 C1241 1.428 . S
C1247 N1246 1.351 . S
C1247 C1248 1.434 . S
C1248 C1239 1.429 . S
C1248 N1245 1.350 . S
C1248 C1247 1.434 . S
C1249 C1250 1.369 . S
C1249 C1251 1.419 . S
C1249 H1253 0.930 . S
C1250 C1249 1.369 . S
C1250 C1259 1.429 . S
C1251 C1249 1.419 . S
C1251 C1252 1.363 . S
C1251 H1254 0.929 . S
C1252 C1251 1.363 . S
C1252 C1258 1.428 . S
H1253 C1249 0.930 . S
H1254 C1251 0.929 . S
S1255 N1256 1.613 . S
S1255 N1257 1.610 . S
N1256 S1255 1.613 . S
N1256 C1259 1.350 . S
N1257 S1255 1.610 . S
N1257 C1258 1.351 . S
C1258 C1252 1.428 . S
C1258 N1257 1.351 . S
C1258 C1259 1.434 . S
C1259 C1250 1.429 . S
C1259 N1256 1.350 . S
C1259 C1258 1.434 . S
C1260 C1261 1.369 . S
C1260 C1262 1.419 . S
C1260 H1264 0.930 . S
C1261 C1260 1.369 . S
C1261 C1270 1.429 . S
C1262 C1260 1.419 . S
C1262 C1263 1.363 . S
C1262 H1265 0.929 . S
C1263 C1262 1.363 . S
C1263 C1269 1.428 . S
H1264 C1260 0.930 . S
H1265 C1262 0.929 . S
S1266 N1267 1.613 . S
S1266 N1268 1.610 . S
N1267 S1266 1.613 . S
N1267 C1270 1.350 . S
N1268 S1266 1.610 . S
N1268 C1269 1.351 . S
C1269 C1263 1.428 . S
C1269 N1268 1.351 . S
C1269 C1270 1.434 . S
C1270 C1261 1.429 . S
C1270 N1267 1.350 . S
C1270 C1269 1.434 . S
C1271 C1272 1.369 . S
C1271 C1273 1.419 . S
C1271 H1275 0.930 . S
C1272 C1271 1.369 . S
C1272 C1281 1.429 . S
C1273 C1271 1.419 . S
C1273 C1274 1.363 . S
C1273 H1276 0.929 . S
C1274 C1273 1.363 . S
C1274 C1280 1.428 . S
H1275 C1271 0.930 . S
H1276 C1273 0.929 . S
S1277 N1278 1.613 . S
S1277 N1279 1.610 . S
N1278 S1277 1.613 . S
N1278 C1281 1.350 . S
N1279 S1277 1.610 . S
N1279 C1280 1.351 . S
C1280 C1274 1.428 . S
C1280 N1279 1.351 . S
C1280 C1281 1.434 . S
C1281 C1272 1.429 . S
C1281 N1278 1.350 . S
C1281 C1280 1.434 . S
C1282 C1283 1.369 . S
C1282 C1284 1.419 . S
C1282 H1286 0.930 . S
C1283 C1282 1.369 . S
C1283 C1292 1.429 . S
C1284 C1282 1.419 . S
C1284 C1285 1.363 . S
C1284 H1287 0.929 . S
C1285 C1284 1.363 . S
C1285 C1291 1.428 . S
H1286 C1282 0.930 . S
H1287 C1284 0.929 . S
S1288 N1289 1.628 . S
S1288 N1290 1.611 . S
N1289 S1288 1.628 . S
N1289 C1292 1.350 1_556 S
N1290 S1288 1.611 . S
N1290 C1291 1.351 1_556 S
C1291 C1285 1.428 . S
C1291 N1290 1.351 1_554 S
C1291 C1292 1.434 . S
C1292 C1283 1.429 . S
C1292 N1289 1.350 1_554 S
C1292 C1291 1.434 . S
C1293 C1294 1.369 . S
C1293 C1295 1.419 . S
C1293 H1297 0.930 . S
C1294 C1293 1.369 . S
C1294 C1303 1.429 . S
C1295 C1293 1.419 . S
C1295 C1296 1.363 . S
C1295 H1298 0.929 . S
C1296 C1295 1.363 . S
C1296 C1302 1.428 . S
H1297 C1293 0.930 . S
H1298 C1295 0.929 . S
S1299 N1300 1.613 . S
S1299 N1301 1.610 . S
N1300 S1299 1.613 . S
N1300 C1303 1.350 . S
N1301 S1299 1.610 . S
N1301 C1302 1.351 . S
C1302 C1296 1.428 . S
C1302 N1301 1.351 . S
C1302 C1303 1.434 . S
C1303 C1294 1.429 . S
C1303 N1300 1.350 . S
C1303 C1302 1.434 . S
C1304 C1305 1.369 . S
C1304 C1306 1.419 . S
C1304 H1308 0.930 . S
C1305 C1304 1.369 . S
C1305 C1314 1.429 . S
C1306 C1304 1.419 . S
C1306 C1307 1.363 . S
C1306 H1309 0.929 . S
C1307 C1306 1.363 . S
C1307 C1313 1.428 1_556 S
H1308 C1304 0.930 . S
H1309 C1306 0.929 . S
S1310 N1311 1.613 1_554 S
S1310 N1312 1.610 . S
N1311 S1310 1.613 1_556 S
N1311 C1314 1.350 . S
N1312 S1310 1.610 . S
N1312 C1313 1.355 . S
C1313 C1307 1.428 1_554 S
C1313 N1312 1.355 . S
C1313 C1314 1.430 1_554 S
C1314 C1305 1.429 . S
C1314 N1311 1.350 . S
C1314 C1313 1.430 1_556 S
C1315 C1316 1.369 . S
C1315 C1317 1.419 . S
C1315 H1319 0.930 . S
C1316 C1315 1.369 . S
C1316 C1325 1.429 . S
C1317 C1315 1.419 . S
C1317 C1318 1.363 . S
C1317 H1320 0.929 . S
C1318 C1317 1.363 . S
C1318 C1324 1.428 . S
H1319 C1315 0.930 . S
H1320 C1317 0.929 . S
S1321 N1322 1.613 . S
S1321 N1323 1.610 . S
N1322 S1321 1.613 . S
N1322 C1325 1.350 . S
N1323 S1321 1.610 . S
N1323 C1324 1.351 . S
C1324 C1318 1.428 . S
C1324 N1323 1.351 . S
C1324 C1325 1.434 . S
C1325 C1316 1.429 . S
C1325 N1322 1.350 . S
C1325 C1324 1.434 . S
C1326 C1327 1.369 . S
C1326 C1328 1.419 . S
C1326 H1330 0.930 . S
C1327 C1326 1.369 . S
C1327 C1336 1.429 . S
C1328 C1326 1.419 . S
C1328 C1329 1.363 . S
C1328 H1331 0.929 . S
C1329 C1328 1.363 . S
C1329 C1335 1.428 . S
H1330 C1326 0.930 . S
H1331 C1328 0.929 . S
S1332 N1333 1.613 . S
S1332 N1334 1.610 . S
N1333 S1332 1.613 . S
N1333 C1336 1.350 . S
N1334 S1332 1.610 . S
N1334 C1335 1.351 . S
C1335 C1329 1.428 . S
C1335 N1334 1.351 . S
C1335 C1336 1.434 . S
C1336 C1327 1.429 . S
C1336 N1333 1.350 . S
C1336 C1335 1.434 . S
C1337 C1338 1.369 . S
C1337 C1339 1.419 . S
C1337 H1341 0.930 . S
C1338 C1337 1.369 . S
C1338 C1347 1.429 . S
C1339 C1337 1.419 . S
C1339 C1340 1.363 . S
C1339 H1342 0.929 . S
C1340 C1339 1.363 . S
C1340 C1346 1.428 . S
H1341 C1337 0.930 . S
H1342 C1339 0.929 . S
S1343 N1344 1.613 . S
S1343 N1345 1.610 . S
N1344 S1343 1.613 . S
N1344 C1347 1.350 . S
N1345 S1343 1.610 . S
N1345 C1346 1.351 . S
C1346 C1340 1.428 . S
C1346 N1345 1.351 . S
C1346 C1347 1.434 . S
C1347 C1338 1.429 . S
C1347 N1344 1.350 . S
C1347 C1346 1.434 . S
C1348 C1349 1.369 1_545 S
C1348 C1350 1.419 . S
C1348 H1352 0.930 . S
C1349 C1348 1.369 1_565 S
C1349 C1358 1.429 . S
C1350 C1348 1.419 . S
C1350 C1351 1.363 . S
C1350 H1353 0.929 . S
C1351 C1350 1.363 . S
C1351 C1357 1.428 1_545 S
H1352 C1348 0.930 . S
H1353 C1350 0.929 . S
S1354 N1355 1.613 . S
S1354 N1356 1.610 . S
N1355 S1354 1.613 . S
N1355 C1358 1.350 . S
N1356 S1354 1.610 . S
N1356 C1357 1.351 . S
C1357 C1351 1.428 1_565 S
C1357 N1356 1.351 . S
C1357 C1358 1.434 . S
C1358 C1349 1.429 . S
C1358 N1355 1.350 . S
C1358 C1357 1.434 . S
C1359 C1360 1.369 . S
C1359 C1361 1.419 . S
C1359 H1363 0.930 . S
C1360 C1359 1.369 . S
C1360 C1369 1.429 . S
C1361 C1359 1.419 . S
C1361 C1362 1.363 . S
C1361 H1364 0.929 . S
C1362 C1361 1.363 . S
C1362 C1368 1.428 . S
H1363 C1359 0.930 . S
H1364 C1361 0.929 . S
S1365 N1366 1.613 . S
S1365 N1367 1.610 . S
N1366 S1365 1.613 . S
N1366 C1369 1.350 . S
N1367 S1365 1.610 . S
N1367 C1368 1.351 . S
C1368 C1362 1.428 . S
C1368 N1367 1.351 . S
C1368 C1369 1.434 . S
C1369 C1360 1.429 . S
C1369 N1366 1.350 . S
C1369 C1368 1.434 . S
C1370 C1371 1.369 . S
C1370 C1372 1.419 . S
C1370 H1374 0.930 . S
C1371 C1370 1.369 . S
C1371 C1380 1.429 . S
C1372 C1370 1.419 . S
C1372 C1373 1.363 . S
C1372 H1375 0.929 . S
C1373 C1372 1.363 . S
C1373 C1379 1.428 . S
H1374 C1370 0.930 . S
H1375 C1372 0.929 . S
S1376 N1377 1.613 . S
S1376 N1378 1.610 . S
N1377 S1376 1.613 . S
N1377 C1380 1.350 1_565 S
N1378 S1376 1.610 . S
N1378 C1379 1.351 1_565 S
C1379 C1373 1.428 . S
C1379 N1378 1.351 1_545 S
C1379 C1380 1.434 . S
C1380 C1371 1.429 . S
C1380 N1377 1.350 1_545 S
C1380 C1379 1.434 . S
C1381 C1382 1.369 . S
C1381 C1383 1.419 . S
C1381 H1385 0.930 . S
C1382 C1381 1.369 . S
C1382 C1391 1.429 . S
C1383 C1381 1.419 . S
C1383 C1384 1.363 . S
C1383 H1386 0.929 . S
C1384 C1383 1.363 . S
C1384 C1390 1.428 . S
H1385 C1381 0.930 . S
H1386 C1383 0.929 . S
S1387 N1388 1.613 . S
S1387 N1389 1.610 . S
N1388 S1387 1.613 . S
N1388 C1391 1.350 . S
N1389 S1387 1.610 . S
N1389 C1390 1.351 . S
C1390 C1384 1.428 . S
C1390 N1389 1.351 . S
C1390 C1391 1.434 . S
C1391 C1382 1.429 . S
C1391 N1388 1.350 . S
C1391 C1390 1.434 . S
C1392 C1393 1.369 . S
C1392 C1394 1.419 . S
C1392 H1396 0.930 . S
C1393 C1392 1.369 . S
C1393 C1402 1.429 . S
C1394 C1392 1.419 . S
C1394 C1395 1.363 . S
C1394 H1397 0.929 . S
C1395 C1394 1.363 . S
C1395 C1401 1.428 . S
H1396 C1392 0.930 . S
H1397 C1394 0.929 . S
S1398 N1399 1.613 . S
S1398 N1400 1.610 . S
N1399 S1398 1.613 . S
N1399 C1402 1.350 . S
N1400 S1398 1.610 . S
N1400 C1401 1.351 . S
C1401 C1395 1.428 . S
C1401 N1400 1.351 . S
C1401 C1402 1.434 . S
C1402 C1393 1.429 . S
C1402 N1399 1.350 . S
C1402 C1401 1.434 . S
C1403 C1404 1.369 . S
C1403 C1405 1.419 . S
C1403 H1407 0.930 . S
C1404 C1403 1.369 . S
C1404 C1413 1.429 . S
C1405 C1403 1.419 . S
C1405 C1406 1.363 . S
C1405 H1408 0.929 . S
C1406 C1405 1.363 . S
C1406 C1412 1.428 . S
H1407 C1403 0.930 . S
H1408 C1405 0.929 . S
S1409 N1410 1.613 . S
S1409 N1411 1.610 . S
N1410 S1409 1.613 . S
N1410 C1413 1.350 . S
N1411 S1409 1.610 . S
N1411 C1412 1.351 . S
C1412 C1406 1.428 . S
C1412 N1411 1.351 . S
C1412 C1413 1.434 . S
C1413 C1404 1.429 . S
C1413 N1410 1.350 . S
C1413 C1412 1.434 . S
C1414 C1415 1.369 . S
C1414 C1416 1.419 . S
C1414 H1418 0.930 . S
C1415 C1414 1.369 . S
C1415 C1424 1.429 . S
C1416 C1414 1.419 . S
C1416 C1417 1.363 . S
C1416 H1419 0.929 . S
C1417 C1416 1.363 . S
C1417 C1423 1.428 . S
H1418 C1414 0.930 . S
H1419 C1416 0.929 . S
S1420 N1421 1.613 . S
S1420 N1422 1.610 . S
N1421 S1420 1.613 . S
N1421 C1424 1.350 . S
N1422 S1420 1.610 . S
N1422 C1423 1.351 . S
C1423 C1417 1.428 . S
C1423 N1422 1.351 . S
C1423 C1424 1.434 . S
C1424 C1415 1.429 . S
C1424 N1421 1.350 . S
C1424 C1423 1.434 . S
C1425 C1426 1.369 . S
C1425 C1427 1.419 . S
C1425 H1429 0.930 . S
C1426 C1425 1.369 . S
C1426 C1435 1.429 . S
C1427 C1425 1.419 . S
C1427 C1428 1.363 . S
C1427 H1430 0.929 . S
C1428 C1427 1.363 . S
C1428 C1434 1.428 . S
H1429 C1425 0.930 . S
H1430 C1427 0.929 . S
S1431 N1432 1.613 . S
S1431 N1433 1.610 . S
N1432 S1431 1.613 . S
N1432 C1435 1.350 . S
N1433 S1431 1.610 . S
N1433 C1434 1.351 . S
C1434 C1428 1.428 . S
C1434 N1433 1.351 . S
C1434 C1435 1.434 . S
C1435 C1426 1.429 . S
C1435 N1432 1.350 . S
C1435 C1434 1.434 . S
C1436 C1437 1.369 . S
C1436 C1438 1.419 . S
C1436 H1440 0.930 . S
C1437 C1436 1.369 . S
C1437 C1446 1.429 . S
C1438 C1436 1.419 . S
C1438 C1439 1.363 . S
C1438 H1441 0.929 . S
C1439 C1438 1.363 . S
C1439 C1445 1.428 . S
H1440 C1436 0.930 . S
H1441 C1438 0.929 . S
S1442 N1443 1.613 . S
S1442 N1444 1.610 . S
N1443 S1442 1.613 . S
N1443 C1446 1.350 . S
N1444 S1442 1.610 . S
N1444 C1445 1.351 . S
C1445 C1439 1.428 . S
C1445 N1444 1.351 . S
C1445 C1446 1.434 . S
C1446 C1437 1.429 . S
C1446 N1443 1.350 . S
C1446 C1445 1.434 . S
C1447 C1448 1.369 . S
C1447 C1449 1.419 . S
C1447 H1451 0.930 . S
C1448 C1447 1.369 . S
C1448 C1457 1.429 . S
C1449 C1447 1.419 . S
C1449 C1450 1.363 . S
C1449 H1452 0.929 . S
C1450 C1449 1.363 . S
C1450 C1456 1.428 . S
H1451 C1447 0.930 . S
H1452 C1449 0.929 . S
S1453 N1454 1.613 . S
S1453 N1455 1.610 . S
N1454 S1453 1.613 . S
N1454 C1457 1.350 . S
N1455 S1453 1.610 . S
N1455 C1456 1.351 . S
C1456 C1450 1.428 . S
C1456 N1455 1.351 . S
C1456 C1457 1.434 . S
C1457 C1448 1.429 . S
C1457 N1454 1.350 . S
C1457 C1456 1.434 . S
C1458 C1459 1.369 . S
C1458 C1460 1.419 . S
C1458 H1462 0.930 . S
C1459 C1458 1.369 . S
C1459 C1468 1.429 . S
C1460 C1458 1.419 . S
C1460 C1461 1.363 . S
C1460 H1463 0.929 . S
C1461 C1460 1.363 . S
C1461 C1467 1.428 . S
H1462 C1458 0.930 . S
H1463 C1460 0.929 . S
S1464 N1465 1.613 . S
S1464 N1466 1.610 . S
N1465 S1464 1.613 . S
N1465 C1468 1.350 . S
N1466 S1464 1.610 . S
N1466 C1467 1.351 . S
C1467 C1461 1.428 . S
C1467 N1466 1.351 . S
C1467 C1468 1.434 . S
C1468 C1459 1.429 . S
C1468 N1465 1.350 . S
C1468 C1467 1.434 . S
C1469 C1470 1.369 . S
C1469 C1471 1.419 . S
C1469 H1473 0.930 . S
C1470 C1469 1.369 . S
C1470 C1479 1.429 . S
C1471 C1469 1.419 . S
C1471 C1472 1.363 . S
C1471 H1474 0.929 . S
C1472 C1471 1.363 . S
C1472 C1478 1.428 . S
H1473 C1469 0.930 . S
H1474 C1471 0.929 . S
S1475 N1476 1.613 . S
S1475 N1477 1.610 . S
N1476 S1475 1.613 . S
N1476 C1479 1.350 . S
N1477 S1475 1.610 . S
N1477 C1478 1.351 . S
C1478 C1472 1.428 . S
C1478 N1477 1.351 . S
C1478 C1479 1.434 . S
C1479 C1470 1.429 . S
C1479 N1476 1.350 . S
C1479 C1478 1.434 . S
C1480 C1481 1.369 . S
C1480 C1482 1.419 . S
C1480 H1484 0.930 . S
C1481 C1480 1.369 . S
C1481 C1490 1.429 . S
C1482 C1480 1.419 . S
C1482 C1483 1.363 . S
C1482 H1485 0.929 . S
C1483 C1482 1.363 . S
C1483 C1489 1.428 . S
H1484 C1480 0.930 . S
H1485 C1482 0.929 . S
S1486 N1487 1.613 . S
S1486 N1488 1.610 . S
N1487 S1486 1.613 . S
N1487 C1490 1.350 . S
N1488 S1486 1.610 . S
N1488 C1489 1.351 . S
C1489 C1483 1.428 . S
C1489 N1488 1.351 . S
C1489 C1490 1.434 . S
C1490 C1481 1.429 . S
C1490 N1487 1.350 . S
C1490 C1489 1.434 . S
C1491 C1492 1.369 . S
C1491 C1493 1.419 . S
C1491 H1495 0.930 . S
C1492 C1491 1.369 . S
C1492 C1501 1.429 . S
C1493 C1491 1.419 . S
C1493 C1494 1.363 . S
C1493 H1496 0.929 . S
C1494 C1493 1.363 . S
C1494 C1500 1.428 . S
H1495 C1491 0.930 . S
H1496 C1493 0.929 . S
S1497 N1498 1.613 . S
S1497 N1499 1.610 . S
N1498 S1497 1.613 . S
N1498 C1501 1.350 . S
N1499 S1497 1.610 . S
N1499 C1500 1.351 . S
C1500 C1494 1.428 . S
C1500 N1499 1.351 . S
C1500 C1501 1.434 . S
C1501 C1492 1.429 . S
C1501 N1498 1.350 . S
C1501 C1500 1.434 . S
C1502 C1503 1.369 1_656 S
C1502 C1504 1.419 1_656 S
C1502 H1506 0.929 . S
C1503 C1502 1.369 1_454 S
C1503 C1512 1.429 . S
C1504 C1502 1.419 1_454 S
C1504 C1505 1.363 . S
C1504 H1507 0.929 1_455 S
C1505 C1504 1.363 . S
C1505 C1511 1.428 . S
H1506 C1502 0.929 . S
H1507 C1504 0.929 1_655 S
S1508 N1509 1.613 . S
S1508 N1510 1.610 . S
N1509 S1508 1.613 . S
N1509 C1512 1.350 . S
N1510 S1508 1.610 . S
N1510 C1511 1.351 . S
C1511 C1505 1.428 . S
C1511 N1510 1.351 . S
C1511 C1512 1.434 . S
C1512 C1503 1.429 . S
C1512 N1509 1.350 . S
C1512 C1511 1.434 . S
C1513 C1514 1.369 . S
C1513 C1515 1.419 . S
C1513 H1517 0.930 . S
C1514 C1513 1.369 . S
C1514 C1523 1.429 . S
C1515 C1513 1.419 . S
C1515 C1516 1.363 . S
C1515 H1518 0.929 . S
C1516 C1515 1.363 . S
C1516 C1522 1.428 . S
H1517 C1513 0.930 . S
H1518 C1515 0.929 . S
S1519 N1520 1.613 . S
S1519 N1521 1.610 . S
N1520 S1519 1.613 . S
N1520 C1523 1.350 . S
N1521 S1519 1.610 . S
N1521 C1522 1.351 . S
C1522 C1516 1.428 . S
C1522 N1521 1.351 . S
C1522 C1523 1.434 . S
C1523 C1514 1.429 . S
C1523 N1520 1.350 . S
C1523 C1522 1.434 . S
C1524 C1525 1.369 . S
C1524 C1526 1.419 . S
C1524 H1528 0.930 . S
C1525 C1524 1.369 . S
C1525 C1534 1.429 . S
C1526 C1524 1.419 . S
C1526 C1527 1.363 . S
C1526 H1529 0.929 . S
C1527 C1526 1.363 . S
C1527 C1533 1.428 . S
H1528 C1524 0.930 . S
H1529 C1526 0.929 . S
S1530 N1531 1.613 . S
S1530 N1532 1.610 . S
N1531 S1530 1.613 . S
N1531 C1534 1.350 . S
N1532 S1530 1.610 . S
N1532 C1533 1.351 . S
C1533 C1527 1.428 . S
C1533 N1532 1.351 . S
C1533 C1534 1.434 . S
C1534 C1525 1.429 . S
C1534 N1531 1.350 . S
C1534 C1533 1.434 . S
C1535 C1536 1.369 1_655 S
C1535 C1537 1.419 . S
C1535 H1539 0.930 1_655 S
C1536 C1535 1.369 1_455 S
C1536 C1545 1.426 1_455 S
C1537 C1535 1.419 . S
C1537 C1538 1.363 . S
C1537 H1540 0.929 . S
C1538 C1537 1.363 . S
C1538 C1544 1.428 . S
H1539 C1535 0.930 1_455 S
H1540 C1537 0.929 . S
S1541 N1542 1.613 . S
S1541 N1543 1.610 . S
N1542 S1541 1.613 . S
N1542 C1545 1.350 . S
N1543 S1541 1.610 . S
N1543 C1544 1.351 . S
C1544 C1538 1.428 . S
C1544 N1543 1.351 . S
C1544 C1545 1.434 . S
C1545 C1536 1.426 1_655 S
C1545 N1542 1.350 . S
C1545 C1544 1.434 . S
C1546 C1547 1.369 1_455 S
C1546 C1548 1.419 . S
C1546 H1550 0.930 . S
C1547 C1546 1.369 1_655 S
C1547 C1556 1.443 . S
C1548 C1546 1.419 . S
C1548 C1549 1.363 . S
C1548 H1551 0.929 . S
C1549 C1548 1.363 . S
C1549 C1555 1.428 . S
H1550 C1546 0.930 . S
H1551 C1548 0.929 . S
S1552 N1553 1.613 1_455 S
S1552 N1554 1.610 . S
N1553 S1552 1.613 1_655 S
N1553 C1556 1.352 . S
N1554 S1552 1.610 . S
N1554 C1555 1.351 . S
C1555 C1549 1.428 . S
C1555 N1554 1.351 . S
C1555 C1556 1.415 1_455 S
C1556 C1547 1.443 . S
C1556 N1553 1.352 . S
C1556 C1555 1.415 1_655 S
C1557 C1558 1.369 . S
C1557 C1559 1.419 . S
C1557 H1561 0.930 . S
C1558 C1557 1.369 . S
C1558 C1567 1.429 . S
C1559 C1557 1.419 . S
C1559 C1560 1.363 . S
C1559 H1562 0.929 . S
C1560 C1559 1.363 . S
C1560 C1566 1.428 . S
H1561 C1557 0.930 . S
H1562 C1559 0.929 . S
S1563 N1564 1.613 . S
S1563 N1565 1.610 . S
N1564 S1563 1.613 . S
N1564 C1567 1.350 . S
N1565 S1563 1.610 . S
N1565 C1566 1.351 . S
C1566 C1560 1.428 . S
C1566 N1565 1.351 . S
C1566 C1567 1.434 . S
C1567 C1558 1.429 . S
C1567 N1564 1.350 . S
C1567 C1566 1.434 . S
C1568 C1569 1.369 . S
C1568 C1570 1.419 . S
C1568 H1572 0.930 . S
C1569 C1568 1.369 . S
C1569 C1578 1.429 . S
C1570 C1568 1.419 . S
C1570 C1571 1.363 . S
C1570 H1573 0.929 . S
C1571 C1570 1.363 . S
C1571 C1577 1.428 . S
H1572 C1568 0.930 . S
H1573 C1570 0.929 . S
S1574 N1575 1.613 . S
S1574 N1576 1.610 . S
N1575 S1574 1.613 . S
N1575 C1578 1.350 . S
N1576 S1574 1.610 . S
N1576 C1577 1.351 . S
C1577 C1571 1.428 . S
C1577 N1576 1.351 . S
C1577 C1578 1.434 . S
C1578 C1569 1.429 . S
C1578 N1575 1.350 . S
C1578 C1577 1.434 . S
C1579 C1580 1.369 . S
C1579 C1581 1.419 . S
C1579 H1583 0.930 . S
C1580 C1579 1.369 . S
C1580 C1589 1.429 . S
C1581 C1579 1.419 . S
C1581 C1582 1.363 . S
C1581 H1584 0.929 . S
C1582 C1581 1.363 . S
C1582 C1588 1.428 . S
H1583 C1579 0.930 . S
H1584 C1581 0.929 . S
S1585 N1586 1.613 . S
S1585 N1587 1.610 . S
N1586 S1585 1.613 . S
N1586 C1589 1.350 . S
N1587 S1585 1.610 . S
N1587 C1588 1.351 . S
C1588 C1582 1.428 . S
C1588 N1587 1.351 . S
C1588 C1589 1.434 . S
C1589 C1580 1.429 . S
C1589 N1586 1.350 . S
C1589 C1588 1.434 . S
C1590 C1591 1.369 . S
C1590 C1592 1.419 . S
C1590 H1594 0.930 . S
C1591 C1590 1.369 . S
C1591 C1600 1.429 . S
C1592 C1590 1.419 . S
C1592 C1593 1.363 . S
C1592 H1595 0.929 . S
C1593 C1592 1.363 . S
C1593 C1599 1.428 . S
H1594 C1590 0.930 . S
H1595 C1592 0.929 . S
S1596 N1597 1.613 . S
S1596 N1598 1.610 . S
N1597 S1596 1.613 . S
N1597 C1600 1.350 . S
N1598 S1596 1.610 . S
N1598 C1599 1.351 . S
C1599 C1593 1.428 . S
C1599 N1598 1.351 . S
C1599 C1600 1.434 . S
C1600 C1591 1.429 . S
C1600 N1597 1.350 . S
C1600 C1599 1.434 . S
C1601 C1602 1.369 . S
C1601 C1603 1.419 . S
C1601 H1605 0.930 . S
C1602 C1601 1.369 . S
C1602 C1611 1.429 . S
C1603 C1601 1.419 . S
C1603 C1604 1.363 . S
C1603 H1606 0.929 . S
C1604 C1603 1.363 . S
C1604 C1610 1.428 . S
H1605 C1601 0.930 . S
H1606 C1603 0.929 . S
S1607 N1608 1.613 . S
S1607 N1609 1.610 . S
N1608 S1607 1.613 . S
N1608 C1611 1.350 . S
N1609 S1607 1.610 . S
N1609 C1610 1.351 . S
C1610 C1604 1.428 . S
C1610 N1609 1.351 . S
C1610 C1611 1.434 . S
C1611 C1602 1.429 . S
C1611 N1608 1.350 . S
C1611 C1610 1.434 . S
C1612 C1613 1.369 . S
C1612 C1614 1.419 . S
C1612 H1616 0.930 . S
C1613 C1612 1.369 . S
C1613 C1622 1.429 . S
C1614 C1612 1.419 . S
C1614 C1615 1.363 . S
C1614 H1617 0.929 . S
C1615 C1614 1.363 . S
C1615 C1621 1.428 . S
H1616 C1612 0.930 . S
H1617 C1614 0.929 . S
S1618 N1619 1.613 . S
S1618 N1620 1.610 . S
N1619 S1618 1.613 . S
N1619 C1622 1.350 . S
N1620 S1618 1.610 . S
N1620 C1621 1.351 . S
C1621 C1615 1.428 . S
C1621 N1620 1.351 . S
C1621 C1622 1.434 . S
C1622 C1613 1.429 . S
C1622 N1619 1.350 . S
C1622 C1621 1.434 . S
C1623 C1624 1.369 . S
C1623 C1625 1.419 . S
C1623 H1627 0.930 . S
C1624 C1623 1.369 . S
C1624 C1633 1.429 . S
C1625 C1623 1.419 . S
C1625 C1626 1.363 . S
C1625 H1628 0.929 . S
C1626 C1625 1.363 . S
C1626 C1632 1.428 . S
H1627 C1623 0.930 . S
H1628 C1625 0.929 . S
S1629 N1630 1.613 . S
S1629 N1631 1.610 . S
N1630 S1629 1.613 . S
N1630 C1633 1.350 . S
N1631 S1629 1.610 . S
N1631 C1632 1.351 . S
C1632 C1626 1.428 . S
C1632 N1631 1.351 . S
C1632 C1633 1.434 . S
C1633 C1624 1.429 . S
C1633 N1630 1.350 . S
C1633 C1632 1.434 . S
C1634 C1635 1.369 . S
C1634 C1636 1.419 . S
C1634 H1638 0.930 . S
C1635 C1634 1.369 . S
C1635 C1644 1.429 . S
C1636 C1634 1.419 . S
C1636 C1637 1.363 . S
C1636 H1639 0.929 . S
C1637 C1636 1.363 . S
C1637 C1643 1.428 . S
H1638 C1634 0.930 . S
H1639 C1636 0.929 . S
S1640 N1641 1.613 . S
S1640 N1642 1.610 . S
N1641 S1640 1.613 . S
N1641 C1644 1.350 . S
N1642 S1640 1.610 . S
N1642 C1643 1.351 . S
C1643 C1637 1.428 . S
C1643 N1642 1.351 . S
C1643 C1644 1.434 . S
C1644 C1635 1.429 . S
C1644 N1641 1.350 . S
C1644 C1643 1.434 . S
C1645 C1646 1.369 . S
C1645 C1647 1.419 . S
C1645 H1649 0.930 . S
C1646 C1645 1.369 . S
C1646 C1655 1.429 . S
C1647 C1645 1.419 . S
C1647 C1648 1.363 . S
C1647 H1650 0.929 . S
C1648 C1647 1.363 . S
C1648 C1654 1.428 . S
H1649 C1645 0.930 . S
H1650 C1647 0.929 . S
S1651 N1652 1.613 . S
S1651 N1653 1.610 . S
N1652 S1651 1.613 . S
N1652 C1655 1.350 . S
N1653 S1651 1.610 . S
N1653 C1654 1.351 . S
C1654 C1648 1.428 . S
C1654 N1653 1.351 . S
C1654 C1655 1.434 . S
C1655 C1646 1.429 . S
C1655 N1652 1.350 . S
C1655 C1654 1.434 . S
C1656 C1657 1.369 . S
C1656 C1658 1.419 . S
C1656 H1660 0.930 . S
C1657 C1656 1.369 . S
C1657 C1666 1.429 . S
C1658 C1656 1.419 . S
C1658 C1659 1.363 . S
C1658 H1661 0.929 . S
C1659 C1658 1.363 . S
C1659 C1665 1.428 . S
H1660 C1656 0.930 . S
H1661 C1658 0.929 . S
S1662 N1663 1.613 . S
S1662 N1664 1.610 . S
N1663 S1662 1.613 . S
N1663 C1666 1.350 . S
N1664 S1662 1.610 . S
N1664 C1665 1.351 . S
C1665 C1659 1.428 . S
C1665 N1664 1.351 . S
C1665 C1666 1.434 . S
C1666 C1657 1.429 . S
C1666 N1663 1.350 . S
C1666 C1665 1.434 . S
C1667 C1668 1.369 . S
C1667 C1669 1.419 . S
C1667 H1671 0.930 . S
C1668 C1667 1.369 . S
C1668 C1677 1.429 . S
C1669 C1667 1.419 . S
C1669 C1670 1.363 . S
C1669 H1672 0.929 . S
C1670 C1669 1.363 . S
C1670 C1676 1.428 . S
H1671 C1667 0.930 . S
H1672 C1669 0.929 . S
S1673 N1674 1.613 . S
S1673 N1675 1.610 . S
N1674 S1673 1.613 . S
N1674 C1677 1.350 . S
N1675 S1673 1.610 . S
N1675 C1676 1.351 . S
C1676 C1670 1.428 . S
C1676 N1675 1.351 . S
C1676 C1677 1.434 . S
C1677 C1668 1.429 . S
C1677 N1674 1.350 . S
C1677 C1676 1.434 . S
C1678 C1679 1.369 . S
C1678 C1680 1.419 . S
C1678 H1682 0.930 . S
C1679 C1678 1.369 . S
C1679 C1688 1.429 . S
C1680 C1678 1.419 . S
C1680 C1681 1.363 . S
C1680 H1683 0.929 . S
C1681 C1680 1.363 . S
C1681 C1687 1.428 . S
H1682 C1678 0.930 . S
H1683 C1680 0.929 . S
S1684 N1685 1.613 . S
S1684 N1686 1.610 . S
N1685 S1684 1.613 . S
N1685 C1688 1.350 . S
N1686 S1684 1.610 . S
N1686 C1687 1.351 . S
C1687 C1681 1.428 . S
C1687 N1686 1.351 . S
C1687 C1688 1.434 . S
C1688 C1679 1.429 . S
C1688 N1685 1.350 . S
C1688 C1687 1.434 . S
C1689 C1690 1.369 . S
C1689 C1691 1.419 . S
C1689 H1693 0.930 . S
C1690 C1689 1.369 . S
C1690 C1699 1.429 1_554 S
C1691 C1689 1.419 . S
C1691 C1692 1.363 . S
C1691 H1694 0.929 . S
C1692 C1691 1.363 . S
C1692 C1698 1.428 1_554 S
H1693 C1689 0.930 . S
H1694 C1691 0.929 . S
S1695 N1696 1.613 . S
S1695 N1697 1.610 . S
N1696 S1695 1.613 . S
N1696 C1699 1.350 . S
N1697 S1695 1.610 . S
N1697 C1698 1.351 . S
C1698 C1692 1.428 1_556 S
C1698 N1697 1.351 . S
C1698 C1699 1.434 . S
C1699 C1690 1.429 1_556 S
C1699 N1696 1.350 . S
C1699 C1698 1.434 . S
C1700 C1701 1.369 . S
C1700 C1702 1.419 . S
C1700 H1704 0.930 . S
C1701 C1700 1.369 . S
C1701 C1710 1.429 . S
C1702 C1700 1.419 . S
C1702 C1703 1.363 . S
C1702 H1705 0.929 . S
C1703 C1702 1.363 . S
C1703 C1709 1.428 . S
H1704 C1700 0.930 . S
H1705 C1702 0.929 . S
S1706 N1707 1.613 . S
S1706 N1708 1.610 . S
N1707 S1706 1.613 . S
N1707 C1710 1.350 . S
N1708 S1706 1.610 . S
N1708 C1709 1.351 . S
C1709 C1703 1.428 . S
C1709 N1708 1.351 . S
C1709 C1710 1.434 . S
C1710 C1701 1.429 . S
C1710 N1707 1.350 . S
C1710 C1709 1.434 . S
C1711 C1712 1.369 . S
C1711 C1713 1.419 . S
C1711 H1715 0.930 . S
C1712 C1711 1.369 . S
C1712 C1721 1.429 . S
C1713 C1711 1.419 . S
C1713 C1714 1.363 . S
C1713 H1716 0.929 . S
C1714 C1713 1.363 . S
C1714 C1720 1.428 . S
H1715 C1711 0.930 . S
H1716 C1713 0.929 . S
S1717 N1718 1.613 . S
S1717 N1719 1.610 . S
N1718 S1717 1.613 . S
N1718 C1721 1.350 . S
N1719 S1717 1.610 . S
N1719 C1720 1.351 . S
C1720 C1714 1.428 . S
C1720 N1719 1.351 . S
C1720 C1721 1.434 . S
C1721 C1712 1.429 . S
C1721 N1718 1.350 . S
C1721 C1720 1.434 . S
C1722 C1723 1.369 . S
C1722 C1724 1.419 . S
C1722 H1726 0.930 . S
C1723 C1722 1.369 . S
C1723 C1732 1.429 . S
C1724 C1722 1.419 . S
C1724 C1725 1.363 . S
C1724 H1727 0.929 . S
C1725 C1724 1.363 . S
C1725 C1731 1.428 . S
H1726 C1722 0.930 . S
H1727 C1724 0.929 . S
S1728 N1729 1.613 . S
S1728 N1730 1.610 . S
N1729 S1728 1.613 . S
N1729 C1732 1.350 . S
N1730 S1728 1.610 . S
N1730 C1731 1.351 . S
C1731 C1725 1.428 . S
C1731 N1730 1.351 . S
C1731 C1732 1.434 . S
C1732 C1723 1.429 . S
C1732 N1729 1.350 . S
C1732 C1731 1.434 . S
C1733 C1734 1.369 . S
C1733 C1735 1.419 . S
C1733 H1737 0.930 . S
C1734 C1733 1.369 . S
C1734 C1743 1.429 . S
C1735 C1733 1.419 . S
C1735 C1736 1.363 . S
C1735 H1738 0.929 . S
C1736 C1735 1.363 . S
C1736 C1742 1.428 . S
H1737 C1733 0.930 . S
H1738 C1735 0.929 . S
S1739 N1740 1.613 . S
S1739 N1741 1.610 . S
N1740 S1739 1.613 . S
N1740 C1743 1.350 . S
N1741 S1739 1.610 . S
N1741 C1742 1.351 . S
C1742 C1736 1.428 . S
C1742 N1741 1.351 . S
C1742 C1743 1.434 . S
C1743 C1734 1.429 . S
C1743 N1740 1.350 . S
C1743 C1742 1.434 . S
C1744 C1745 1.369 . S
C1744 C1746 1.419 . S
C1744 H1748 0.930 . S
C1745 C1744 1.369 . S
C1745 C1754 1.429 . S
C1746 C1744 1.419 . S
C1746 C1747 1.363 . S
C1746 H1749 0.929 . S
C1747 C1746 1.363 . S
C1747 C1753 1.428 . S
H1748 C1744 0.930 . S
H1749 C1746 0.929 . S
S1750 N1751 1.613 . S
S1750 N1752 1.610 . S
N1751 S1750 1.613 . S
N1751 C1754 1.350 . S
N1752 S1750 1.610 . S
N1752 C1753 1.351 . S
C1753 C1747 1.428 . S
C1753 N1752 1.351 . S
C1753 C1754 1.434 . S
C1754 C1745 1.429 . S
C1754 N1751 1.350 . S
C1754 C1753 1.434 . S
C1755 C1756 1.369 . S
C1755 C1757 1.419 . S
C1755 H1759 0.930 . S
C1756 C1755 1.369 . S
C1756 C1765 1.429 . S
C1757 C1755 1.419 . S
C1757 C1758 1.363 . S
C1757 H1760 0.929 . S
C1758 C1757 1.363 . S
C1758 C1764 1.428 . S
H1759 C1755 0.930 . S
H1760 C1757 0.929 . S
S1761 N1762 1.613 . S
S1761 N1763 1.610 . S
N1762 S1761 1.613 . S
N1762 C1765 1.350 . S
N1763 S1761 1.610 . S
N1763 C1764 1.351 . S
C1764 C1758 1.428 . S
C1764 N1763 1.351 . S
C1764 C1765 1.434 . S
C1765 C1756 1.429 . S
C1765 N1762 1.350 . S
C1765 C1764 1.434 . S
C1766 C1767 1.369 . S
C1766 C1768 1.419 . S
C1766 H1770 0.930 . S
C1767 C1766 1.369 . S
C1767 C1776 1.429 . S
C1768 C1766 1.419 . S
C1768 C1769 1.363 . S
C1768 H1771 0.929 . S
C1769 C1768 1.363 . S
C1769 C1775 1.428 . S
H1770 C1766 0.930 . S
H1771 C1768 0.929 . S
S1772 N1773 1.613 1_655 S
S1772 N1774 1.610 . S
N1773 S1772 1.613 1_455 S
N1773 C1776 1.350 . S
N1774 S1772 1.610 . S
N1774 C1775 1.351 1_655 S
C1775 C1769 1.428 . S
C1775 N1774 1.351 1_455 S
C1775 C1776 1.434 . S
C1776 C1767 1.429 . S
C1776 N1773 1.350 . S
C1776 C1775 1.434 . S
C1777 C1778 1.369 . S
C1777 C1779 1.419 . S
C1777 H1781 0.930 . S
C1778 C1777 1.369 . S
C1778 C1787 1.429 . S
C1779 C1777 1.419 . S
C1779 C1780 1.363 . S
C1779 H1782 0.929 . S
C1780 C1779 1.363 . S
C1780 C1786 1.428 . S
H1781 C1777 0.930 . S
H1782 C1779 0.929 . S
S1783 N1784 1.613 . S
S1783 N1785 1.610 . S
N1784 S1783 1.613 . S
N1784 C1787 1.350 . S
N1785 S1783 1.610 . S
N1785 C1786 1.351 . S
C1786 C1780 1.428 . S
C1786 N1785 1.351 . S
C1786 C1787 1.434 . S
C1787 C1778 1.429 . S
C1787 N1784 1.350 . S
C1787 C1786 1.434 . S
C1788 C1789 1.369 . S
C1788 C1790 1.415 . S
C1788 H1792 0.930 1_554 S
C1789 C1788 1.369 . S
C1789 C1798 1.429 . S
C1790 C1788 1.415 . S
C1790 C1791 1.379 . S
C1790 H1793 0.916 1_554 S
C1791 C1790 1.379 . S
C1791 C1797 1.428 . S
H1792 C1788 0.930 1_556 S
H1793 C1790 0.916 1_556 S
S1794 N1795 1.613 . S
S1794 N1796 1.610 . S
N1795 S1794 1.613 . S
N1795 C1798 1.350 . S
N1796 S1794 1.610 . S
N1796 C1797 1.351 . S
C1797 C1791 1.428 . S
C1797 N1796 1.351 . S
C1797 C1798 1.434 . S
C1798 C1789 1.429 . S
C1798 N1795 1.350 . S
C1798 C1797 1.434 . S
C1799 C1800 1.369 . S
C1799 C1801 1.419 . S
C1799 H1803 0.930 . S
C1800 C1799 1.369 . S
C1800 C1809 1.429 . S
C1801 C1799 1.419 . S
C1801 C1802 1.363 . S
C1801 H1804 0.929 . S
C1802 C1801 1.363 . S
C1802 C1808 1.428 . S
H1803 C1799 0.930 . S
H1804 C1801 0.929 . S
S1805 N1806 1.613 . S
S1805 N1807 1.610 . S
N1806 S1805 1.613 . S
N1806 C1809 1.350 . S
N1807 S1805 1.610 . S
N1807 C1808 1.351 . S
C1808 C1802 1.428 . S
C1808 N1807 1.351 . S
C1808 C1809 1.434 . S
C1809 C1800 1.429 . S
C1809 N1806 1.350 . S
C1809 C1808 1.434 . S
C1810 C1811 1.369 . S
C1810 C1812 1.419 . S
C1810 H1814 0.930 . S
C1811 C1810 1.369 . S
C1811 C1820 1.429 . S
C1812 C1810 1.419 . S
C1812 C1813 1.363 . S
C1812 H1815 0.929 . S
C1813 C1812 1.363 . S
C1813 C1819 1.428 . S
H1814 C1810 0.930 . S
H1815 C1812 0.929 . S
S1816 N1817 1.613 . S
S1816 N1818 1.610 . S
N1817 S1816 1.613 . S
N1817 C1820 1.350 . S
N1818 S1816 1.610 . S
N1818 C1819 1.351 . S
C1819 C1813 1.428 . S
C1819 N1818 1.351 . S
C1819 C1820 1.434 . S
C1820 C1811 1.429 . S
C1820 N1817 1.350 . S
C1820 C1819 1.434 . S
C1821 C1822 1.369 . S
C1821 C1823 1.419 . S
C1821 H1825 0.930 . S
C1822 C1821 1.369 . S
C1822 C1831 1.429 . S
C1823 C1821 1.419 . S
C1823 C1824 1.363 . S
C1823 H1826 0.929 . S
C1824 C1823 1.363 . S
C1824 C1830 1.428 . S
H1825 C1821 0.930 . S
H1826 C1823 0.929 . S
S1827 N1828 1.613 . S
S1827 N1829 1.610 . S
N1828 S1827 1.613 . S
N1828 C1831 1.350 . S
N1829 S1827 1.610 . S
N1829 C1830 1.351 . S
C1830 C1824 1.428 . S
C1830 N1829 1.351 . S
C1830 C1831 1.434 . S
C1831 C1822 1.429 . S
C1831 N1828 1.350 . S
C1831 C1830 1.434 . S
C1832 C1833 1.369 . S
C1832 C1834 1.419 . S
C1832 H1836 0.930 . S
C1833 C1832 1.369 . S
C1833 C1842 1.429 . S
C1834 C1832 1.419 . S
C1834 C1835 1.363 . S
C1834 H1837 0.929 . S
C1835 C1834 1.363 . S
C1835 C1841 1.428 . S
H1836 C1832 0.930 . S
H1837 C1834 0.929 . S
S1838 N1839 1.613 . S
S1838 N1840 1.610 . S
N1839 S1838 1.613 . S
N1839 C1842 1.350 . S
N1840 S1838 1.610 . S
N1840 C1841 1.351 . S
C1841 C1835 1.428 . S
C1841 N1840 1.351 . S
C1841 C1842 1.434 . S
C1842 C1833 1.429 . S
C1842 N1839 1.350 . S
C1842 C1841 1.434 . S
C1843 C1844 1.369 . S
C1843 C1845 1.419 . S
C1843 H1847 0.930 . S
C1844 C1843 1.369 . S
C1844 C1853 1.429 . S
C1845 C1843 1.419 . S
C1845 C1846 1.363 . S
C1845 H1848 0.929 . S
C1846 C1845 1.363 . S
C1846 C1852 1.428 . S
H1847 C1843 0.930 . S
H1848 C1845 0.929 . S
S1849 N1850 1.613 . S
S1849 N1851 1.610 . S
N1850 S1849 1.613 . S
N1850 C1853 1.350 . S
N1851 S1849 1.610 . S
N1851 C1852 1.351 . S
C1852 C1846 1.428 . S
C1852 N1851 1.351 . S
C1852 C1853 1.434 . S
C1853 C1844 1.429 . S
C1853 N1850 1.350 . S
C1853 C1852 1.434 . S
C1854 C1855 1.369 . S
C1854 C1856 1.419 . S
C1854 H1858 0.930 . S
C1855 C1854 1.369 . S
C1855 C1864 1.429 . S
C1856 C1854 1.419 . S
C1856 C1857 1.363 . S
C1856 H1859 0.929 . S
C1857 C1856 1.363 . S
C1857 C1863 1.428 . S
H1858 C1854 0.930 . S
H1859 C1856 0.929 . S
S1860 N1861 1.613 . S
S1860 N1862 1.610 1_655 S
N1861 S1860 1.613 . S
N1861 C1864 1.350 . S
N1862 S1860 1.610 1_455 S
N1862 C1863 1.351 1_455 S
C1863 C1857 1.428 . S
C1863 N1862 1.351 1_655 S
C1863 C1864 1.434 . S
C1864 C1855 1.429 . S
C1864 N1861 1.350 . S
C1864 C1863 1.434 . S
C1865 C1866 1.369 . S
C1865 C1867 1.419 . S
C1865 H1869 0.930 . S
C1866 C1865 1.369 . S
C1866 C1875 1.429 . S
C1867 C1865 1.419 . S
C1867 C1868 1.363 . S
C1867 H1870 0.929 . S
C1868 C1867 1.363 . S
C1868 C1874 1.428 . S
H1869 C1865 0.930 . S
H1870 C1867 0.929 . S
S1871 N1872 1.613 . S
S1871 N1873 1.610 . S
N1872 S1871 1.613 . S
N1872 C1875 1.350 . S
N1873 S1871 1.610 . S
N1873 C1874 1.351 . S
C1874 C1868 1.428 . S
C1874 N1873 1.351 . S
C1874 C1875 1.434 . S
C1875 C1866 1.429 . S
C1875 N1872 1.350 . S
C1875 C1874 1.434 . S
C1876 C1877 1.369 . S
C1876 C1878 1.419 . S
C1876 H1880 0.930 . S
C1877 C1876 1.369 . S
C1877 C1886 1.429 . S
C1878 C1876 1.419 . S
C1878 C1879 1.363 . S
C1878 H1881 0.929 . S
C1879 C1878 1.363 . S
C1879 C1885 1.428 . S
H1880 C1876 0.930 . S
H1881 C1878 0.929 . S
S1882 N1883 1.613 . S
S1882 N1884 1.610 . S
N1883 S1882 1.613 . S
N1883 C1886 1.350 . S
N1884 S1882 1.610 . S
N1884 C1885 1.351 . S
C1885 C1879 1.428 . S
C1885 N1884 1.351 . S
C1885 C1886 1.434 . S
C1886 C1877 1.429 . S
C1886 N1883 1.350 . S
C1886 C1885 1.434 . S
C1887 C1888 1.369 . S
C1887 C1889 1.419 . S
C1887 H1891 0.930 . S
C1888 C1887 1.369 . S
C1888 C1897 1.429 . S
C1889 C1887 1.419 . S
C1889 C1890 1.363 . S
C1889 H1892 0.929 . S
C1890 C1889 1.363 . S
C1890 C1896 1.428 . S
H1891 C1887 0.930 . S
H1892 C1889 0.929 . S
S1893 N1894 1.613 . S
S1893 N1895 1.610 . S
N1894 S1893 1.613 . S
N1894 C1897 1.350 . S
N1895 S1893 1.610 . S
N1895 C1896 1.351 . S
C1896 C1890 1.428 . S
C1896 N1895 1.351 . S
C1896 C1897 1.434 . S
C1897 C1888 1.429 . S
C1897 N1894 1.350 . S
C1897 C1896 1.434 . S
C1898 C1899 1.369 . S
C1898 C1900 1.419 . S
C1898 H1902 0.930 . S
C1899 C1898 1.369 . S
C1899 C1908 1.429 . S
C1900 C1898 1.419 . S
C1900 C1901 1.363 . S
C1900 H1903 0.929 . S
C1901 C1900 1.363 . S
C1901 C1907 1.428 . S
H1902 C1898 0.930 . S
H1903 C1900 0.929 . S
S1904 N1905 1.613 1_455 S
S1904 N1906 1.610 . S
N1905 S1904 1.613 1_655 S
N1905 C1908 1.350 . S
N1906 S1904 1.610 . S
N1906 C1907 1.351 1_455 S
C1907 C1901 1.428 . S
C1907 N1906 1.351 1_655 S
C1907 C1908 1.434 . S
C1908 C1899 1.429 . S
C1908 N1905 1.350 . S
C1908 C1907 1.434 . S
C1909 C1910 1.369 . S
C1909 C1911 1.419 . S
C1909 H1913 0.930 . S
C1910 C1909 1.369 . S
C1910 C1919 1.429 . S
C1911 C1909 1.419 . S
C1911 C1912 1.363 . S
C1911 H1914 0.929 . S
C1912 C1911 1.363 . S
C1912 C1918 1.428 . S
H1913 C1909 0.930 . S
H1914 C1911 0.929 . S
S1915 N1916 1.613 . S
S1915 N1917 1.610 . S
N1916 S1915 1.613 . S
N1916 C1919 1.350 . S
N1917 S1915 1.610 . S
N1917 C1918 1.351 . S
C1918 C1912 1.428 . S
C1918 N1917 1.351 . S
C1918 C1919 1.434 . S
C1919 C1910 1.429 . S
C1919 N1916 1.350 . S
C1919 C1918 1.434 . S
C1920 C1921 1.369 . S
C1920 C1922 1.419 . S
C1920 H1924 0.930 . S
C1921 C1920 1.369 . S
C1921 C1930 1.429 . S
C1922 C1920 1.419 . S
C1922 C1923 1.363 . S
C1922 H1925 0.929 . S
C1923 C1922 1.363 . S
C1923 C1929 1.428 . S
H1924 C1920 0.930 . S
H1925 C1922 0.929 . S
S1926 N1927 1.613 . S
S1926 N1928 1.610 . S
N1927 S1926 1.613 . S
N1927 C1930 1.350 . S
N1928 S1926 1.610 . S
N1928 C1929 1.351 . S
C1929 C1923 1.428 . S
C1929 N1928 1.351 . S
C1929 C1930 1.434 . S
C1930 C1921 1.429 . S
C1930 N1927 1.350 . S
C1930 C1929 1.434 . S
C1931 C1932 1.369 . S
C1931 C1933 1.419 . S
C1931 H1935 0.930 . S
C1932 C1931 1.369 . S
C1932 C1941 1.429 . S
C1933 C1931 1.419 . S
C1933 C1934 1.363 . S
C1933 H1936 0.929 . S
C1934 C1933 1.363 . S
C1934 C1940 1.428 . S
H1935 C1931 0.930 . S
H1936 C1933 0.929 . S
S1937 N1938 1.613 . S
S1937 N1939 1.614 1_565 S
N1938 S1937 1.613 . S
N1938 C1941 1.350 . S
N1939 S1937 1.614 1_545 S
N1939 C1940 1.337 1_545 S
C1940 C1934 1.428 . S
C1940 N1939 1.337 1_565 S
C1940 C1941 1.434 . S
C1941 C1932 1.429 . S
C1941 N1938 1.350 . S
C1941 C1940 1.434 . S
C1942 C1943 1.369 . S
C1942 C1944 1.419 . S
C1942 H1946 0.930 . S
C1943 C1942 1.369 . S
C1943 C1952 1.429 . S
C1944 C1942 1.419 . S
C1944 C1945 1.363 . S
C1944 H1947 0.929 . S
C1945 C1944 1.363 . S
C1945 C1951 1.428 . S
H1946 C1942 0.930 . S
H1947 C1944 0.929 . S
S1948 N1949 1.613 . S
S1948 N1950 1.610 . S
N1949 S1948 1.613 . S
N1949 C1952 1.350 . S
N1950 S1948 1.610 . S
N1950 C1951 1.351 . S
C1951 C1945 1.428 . S
C1951 N1950 1.351 . S
C1951 C1952 1.434 . S
C1952 C1943 1.429 . S
C1952 N1949 1.350 . S
C1952 C1951 1.434 . S
C1953 C1954 1.369 . S
C1953 C1955 1.419 . S
C1953 H1957 0.930 . S
C1954 C1953 1.369 . S
C1954 C1963 1.429 . S
C1955 C1953 1.419 . S
C1955 C1956 1.363 . S
C1955 H1958 0.929 . S
C1956 C1955 1.363 . S
C1956 C1962 1.428 . S
H1957 C1953 0.930 . S
H1958 C1955 0.929 . S
S1959 N1960 1.613 . S
S1959 N1961 1.610 . S
N1960 S1959 1.613 . S
N1960 C1963 1.350 . S
N1961 S1959 1.610 . S
N1961 C1962 1.351 . S
C1962 C1956 1.428 . S
C1962 N1961 1.351 . S
C1962 C1963 1.434 . S
C1963 C1954 1.429 . S
C1963 N1960 1.350 . S
C1963 C1962 1.434 . S
C1964 C1965 1.369 . S
C1964 C1966 1.419 . S
C1964 H1968 0.930 . S
C1965 C1964 1.369 . S
C1965 C1974 1.429 . S
C1966 C1964 1.419 . S
C1966 C1967 1.363 . S
C1966 H1969 0.929 . S
C1967 C1966 1.363 . S
C1967 C1973 1.428 . S
H1968 C1964 0.930 . S
H1969 C1966 0.929 . S
S1970 N1971 1.613 . S
S1970 N1972 1.610 . S
N1971 S1970 1.613 . S
N1971 C1974 1.350 . S
N1972 S1970 1.610 . S
N1972 C1973 1.351 . S
C1973 C1967 1.428 . S
C1973 N1972 1.351 . S
C1973 C1974 1.434 . S
C1974 C1965 1.429 . S
C1974 N1971 1.350 . S
C1974 C1973 1.434 . S
C1975 C1976 1.369 . S
C1975 C1977 1.419 . S
C1975 H1979 0.930 . S
C1976 C1975 1.369 . S
C1976 C1985 1.429 . S
C1977 C1975 1.419 . S
C1977 C1978 1.363 . S
C1977 H1980 0.929 . S
C1978 C1977 1.363 . S
C1978 C1984 1.428 . S
H1979 C1975 0.930 . S
H1980 C1977 0.929 . S
S1981 N1982 1.613 1_556 S
S1981 N1983 1.610 1_556 S
N1982 S1981 1.613 1_554 S
N1982 C1985 1.350 . S
N1983 S1981 1.610 1_554 S
N1983 C1984 1.351 . S
C1984 C1978 1.428 . S
C1984 N1983 1.351 . S
C1984 C1985 1.434 . S
C1985 C1976 1.429 . S
C1985 N1982 1.350 . S
C1985 C1984 1.434 . S
C1986 C1987 1.369 . S
C1986 C1988 1.419 . S
C1986 H1990 0.930 . S
C1987 C1986 1.369 . S
C1987 C1996 1.429 . S
C1988 C1986 1.419 . S
C1988 C1989 1.363 . S
C1988 H1991 0.929 . S
C1989 C1988 1.363 . S
C1989 C1995 1.428 . S
H1990 C1986 0.930 . S
H1991 C1988 0.929 . S
S1992 N1993 1.613 . S
S1992 N1994 1.610 . S
N1993 S1992 1.613 . S
N1993 C1996 1.350 . S
N1994 S1992 1.610 . S
N1994 C1995 1.351 . S
C1995 C1989 1.428 . S
C1995 N1994 1.351 . S
C1995 C1996 1.434 . S
C1996 C1987 1.429 . S
C1996 N1993 1.350 . S
C1996 C1995 1.434 . S
C1997 C1998 1.369 . S
C1997 C1999 1.419 . S
C1997 H2001 0.930 . S
C1998 C1997 1.369 . S
C1998 C2007 1.429 . S
C1999 C1997 1.419 . S
C1999 C2000 1.363 . S
C1999 H2002 0.929 . S
C2000 C1999 1.363 . S
C2000 C2006 1.428 . S
H2001 C1997 0.930 . S
H2002 C1999 0.929 . S
S2003 N2004 1.613 . S
S2003 N2005 1.610 . S
N2004 S2003 1.613 . S
N2004 C2007 1.350 . S
N2005 S2003 1.610 . S
N2005 C2006 1.351 . S
C2006 C2000 1.428 . S
C2006 N2005 1.351 . S
C2006 C2007 1.434 . S
C2007 C1998 1.429 . S
C2007 N2004 1.350 . S
C2007 C2006 1.434 . S
C953 C101 2.281 1_554 S
C955 C331 2.177 . S
C964 C57 2.192 . S
C966 C360 2.215 . S
C975 C70 1.209 . S
C977 C411 1.177 . S
C988 C437 1.548 . S
C986 C82 1.597 . S
C997 C23 0.874 . S
C999 C477 0.860 . S
C1010 C527 0.583 . S
C1008 C29 0.578 . S
C1021 C570 0.758 . S
C1019 C49 0.812 . S
C1030 C10 1.980 . S
C1032 C607 1.930 . S
C1043 C320 2.529 . S
C1041 C218 2.468 . S
C1052 C226 0.811 . S
C1054 C357 0.777 . S
C1065 C400 2.343 . S
C1063 C251 2.310 . S
C1076 C451 1.286 . S
C1074 C159 1.335 1_556 S
C1085 C211 2.003 . S
C1087 C491 1.958 . S
C1098 C530 0.704 . S
C1096 C225 0.680 . S
C1109 C561 1.998 1_556 S
C1107 C252 2.104 . S
C1120 C610 2.246 . S
C1118 C166 2.212 . S
C1131 C317 2.174 . S
C1129 C147 2.251 . S
C1140 C263 2.206 . S
C1142 C640 2.219 . S
C1153 C681 2.410 . S
C1151 C309 2.439 . S
C1164 C727 0.817 . S
C1162 C291 0.800 . S
C1173 C108 2.643 . S
C1175 C601 2.571 . S
C1184 C121 1.550 . S
C1186 C397 1.513 . S
C1195 C302 2.156 . S
C1197 C760 2.208 . S
C1208 C811 1.937 . S
C1206 C276 1.982 . S
C1219 C321 2.158 . S
C1217 C55 2.195 . S
C1230 C810 2.489 . S
C1228 C96 2.506 . S
C1239 C88 1.473 . S
C1241 C401 1.438 . S
C1250 C75 1.797 . S
C1252 C767 1.754 . S
C1263 C487 0.953 . S
C1261 C4 0.957 . S
C1272 C44 0.750 . S
C1274 C677 0.762 . S
C1285 C560 0.784 . S
C1283 C31 0.702 . S
C1296 C837 1.515 . S
C1294 C18 1.513 . S
C1307 C330 2.591 1_556 S
C1305 C133 2.568 . S
C1318 C807 0.843 . S
C1316 C296 0.842 . S
C1327 C107 2.521 . S
C1329 C410 2.513 . S
C1338 C264 1.583 . S
C1340 C761 1.554 . S
C1349 C140 2.113 . S
C1351 C481 2.094 . S
C1362 C680 0.693 . S
C1360 C289 0.671 . S
C1371 C114 2.392 . S
C1373 C571 2.328 . S
C1382 C265 2.144 1_556 S
C1384 C840 2.157 . S
C1393 C179 1.879 . S
C1395 C327 1.841 . S
C1404 C161 2.536 . S
C1406 C650 2.510 . S
C1415 C244 2.710 . S
C1417 C531 2.673 . S
C1426 C224 0.894 . S
C1428 C717 0.902 . S
C1439 C851 2.656 . S
C1437 C257 2.722 . S
C1448 C199 1.764 . S
C1450 C407 1.731 . S
C1461 C450 2.379 . S
C1459 C237 2.378 . S
C1472 C361 2.099 . S
C1470 C185 2.117 . S
C1481 C69 2.282 . S
C1483 C891 2.174 . S
C1494 C800 2.212 . S
C1492 C83 2.187 . S
C1503 C94 1.214 1_554 S
C1505 C931 1.181 . S
C1514 C56 1.591 1_655 S
C1516 C757 1.550 . S
C1525 C42 0.878 . S
C1527 C637 0.867 . S
C1538 C687 0.594 . S
C1536 C3 0.624 . S
C1549 C730 0.760 . S
C1547 C16 0.808 1_655 S
C1560 C847 1.906 . S
C1558 C36 1.966 . S
C1571 C880 2.529 . S
C1569 C238 2.467 . S
C1580 C174 0.792 . S
C1582 C797 0.793 . S
C1593 C920 2.346 . S
C1591 C186 2.309 . S
C1604 C771 1.290 . S
C1602 C198 1.327 . S
C1615 C651 1.955 1_556 S
C1613 C239 2.005 . S
C1624 C173 0.688 . S
C1626 C690 0.690 . S
C1637 C721 2.017 . S
C1635 C187 2.106 . S
C1646 C205 2.209 . S
C1648 C850 2.244 . S
C1659 C877 2.180 . S
C1657 C290 2.267 . S
C1668 C122 2.210 . S
C1670 C480 2.219 . S
C1681 C521 2.413 . S
C1679 C134 2.442 . S
C1692 C567 0.811 . S
C1690 C148 0.794 . S
C1703 C841 2.568 . S
C1701 C283 2.634 . S
C1712 C270 1.547 . S
C1714 C917 1.513 . S
C1725 C440 2.208 . S
C1723 C135 2.159 . S
C1736 C371 1.938 . S
C1734 C109 1.985 . S
C1745 C81 2.197 . S
C1747 C881 2.156 . S
C1758 C370 2.487 . S
C1756 C68 2.503 . S
C1767 C62 1.475 . S
C1769 C921 1.443 . S
C1778 C95 1.792 . S
C1780 C447 1.754 . S
C1789 C30 0.963 . S
C1791 C647 0.948 . S
C1802 C517 0.753 . S
C1800 C17 0.740 . S
C1811 C5 0.692 . S
C1813 C720 0.804 . S
C1822 C43 1.513 . S
C1824 C597 1.508 . S
C1835 C890 2.591 . S
C1833 C304 2.566 . S
C1844 C153 0.819 . S
C1846 C367 0.836 . S
C1857 C930 2.517 1_656 S
C1855 C278 2.524 . S
C1866 C127 1.580 . S
C1868 C441 1.553 . S
C1877 C303 2.108 . S
C1879 C641 2.093 . S
C1890 C520 0.711 . S
C1888 C146 0.640 . S
C1899 C277 2.383 . S
C1901 C731 2.320 . S
C1912 C600 2.151 . S
C1910 C120 2.138 . S
C1923 C887 1.839 . S
C1921 C231 1.886 . S
C1934 C490 2.508 1_565 S
C1932 C200 2.531 . S
C1943 C212 2.712 . S
C1945 C691 2.677 . S
C1956 C557 0.899 . S
C1954 C172 0.900 . S
C1965 C192 2.720 . S
C1967 C611 2.652 . S
C1976 C160 1.766 . S
C1978 C927 1.732 . S
C1989 C770 2.382 . S
C1987 C213 2.381 . S
C2000 C801 2.099 . S
C1998 C250 2.114 . S
