# Generated by pormake.
# Topology cml, (3,6)-cn, num edge types: 1
# Building blocks:
#     Node 0, Type 0, BuildingBlock: OLANEW_clean_sbu_2, # of connection points: 3
#     Node 1, Type 0, BuildingBlock: OLANEW_clean_sbu_2, # of connection points: 3
#     Node 2, Type 0, BuildingBlock: OLANEW_clean_sbu_2, # of connection points: 3
#     Node 3, Type 0, BuildingBlock: OLANEW_clean_sbu_2, # of connection points: 3
#     Node 4, Type 0, BuildingBlock: OLANEW_clean_sbu_2, # of connection points: 3
#     Node 5, Type 0, BuildingBlock: OLANEW_clean_sbu_2, # of connection points: 3
#     Node 6, Type 0, BuildingBlock: OLANEW_clean_sbu_2, # of connection points: 3
#     Node 7, Type 0, BuildingBlock: OLANEW_clean_sbu_2, # of connection points: 3
#     Node 8, Type 1, BuildingBlock: IZENUY_clean_sbu_0, # of connection points: 6
#     Node 9, Type 1, BuildingBlock: IZENUY_clean_sbu_0, # of connection points: 6
#     Node 10, Type 1, BuildingBlock: IZENUY_clean_sbu_0, # of connection points: 6
#     Node 11, Type 1, BuildingBlock: IZENUY_clean_sbu_0, # of connection points: 6
#     Edge 12, Type (0, 1), BuildingBlock: AJUNOK_clean_linker_0, # of connection points: 2
#     Edge 13, Type (0, 1), BuildingBlock: AJUNOK_clean_linker_0, # of connection points: 2
#     Edge 14, Type (0, 1), BuildingBlock: AJUNOK_clean_linker_0, # of connection points: 2
#     Edge 15, Type (0, 1), BuildingBlock: AJUNOK_clean_linker_0, # of connection points: 2
#     Edge 16, Type (0, 1), BuildingBlock: AJUNOK_clean_linker_0, # of connection points: 2
#     Edge 17, Type (0, 1), BuildingBlock: AJUNOK_clean_linker_0, # of connection points: 2
#     Edge 18, Type (0, 1), BuildingBlock: AJUNOK_clean_linker_0, # of connection points: 2
#     Edge 19, Type (0, 1), BuildingBlock: AJUNOK_clean_linker_0, # of connection points: 2
#     Edge 20, Type (0, 1), BuildingBlock: AJUNOK_clean_linker_0, # of connection points: 2
#     Edge 21, Type (0, 1), BuildingBlock: AJUNOK_clean_linker_0, # of connection points: 2
#     Edge 22, Type (0, 1), BuildingBlock: AJUNOK_clean_linker_0, # of connection points: 2
#     Edge 23, Type (0, 1), BuildingBlock: AJUNOK_clean_linker_0, # of connection points: 2
#     Edge 24, Type (0, 1), BuildingBlock: AJUNOK_clean_linker_0, # of connection points: 2
#     Edge 25, Type (0, 1), BuildingBlock: AJUNOK_clean_linker_0, # of connection points: 2
#     Edge 26, Type (0, 1), BuildingBlock: AJUNOK_clean_linker_0, # of connection points: 2
#     Edge 27, Type (0, 1), BuildingBlock: AJUNOK_clean_linker_0, # of connection points: 2
#     Edge 28, Type (0, 1), BuildingBlock: AJUNOK_clean_linker_0, # of connection points: 2
#     Edge 29, Type (0, 1), BuildingBlock: AJUNOK_clean_linker_0, # of connection points: 2
#     Edge 30, Type (0, 1), BuildingBlock: AJUNOK_clean_linker_0, # of connection points: 2
#     Edge 31, Type (0, 1), BuildingBlock: AJUNOK_clean_linker_0, # of connection points: 2
#     Edge 32, Type (0, 1), BuildingBlock: AJUNOK_clean_linker_0, # of connection points: 2
#     Edge 33, Type (0, 1), BuildingBlock: AJUNOK_clean_linker_0, # of connection points: 2
#     Edge 34, Type (0, 1), BuildingBlock: AJUNOK_clean_linker_0, # of connection points: 2
#     Edge 35, Type (0, 1), BuildingBlock: AJUNOK_clean_linker_0, # of connection points: 2
# Relax obj value: 0.018
# Max RMSD: 0.072
# Mean RMSD: 0.061
data_MOF--net-cml--node1-OLANEW_clean_sbu_2--node2-IZENUY_clean_sbu_0--edge1-AJUNOK_clean_linker_0
_symmetry_space_group_name_H-M    P1
_symmetry_Int_Tables_number       1
_symmetry_cell_setting            triclinic
loop_
_symmetry_equiv_pos_as_xyz
'x, y, z'
_cell_length_a     29.379985
_cell_length_b     32.044759
_cell_length_c     29.684844
_cell_angle_alpha  88.061936
_cell_angle_beta   87.190538
_cell_angle_gamma 88.705066
loop_
_atom_site_label
_atom_site_type_symbol
_atom_site_fract_x
_atom_site_fract_y
_atom_site_fract_z
_atom_type_partial_charge
O0 O 0.31454 0.45484 0.94175 0.0
Cd1 Cd 0.26165 0.40652 0.98407 0.0
O2 O 0.34388 0.46657 0.00674 0.0
Cd3 Cd 0.31097 0.41817 0.04944 0.0
O4 O 0.33144 0.39121 0.11395 0.0
C5 C 0.34436 0.41892 0.13982 0.0
O6 O 0.33983 0.45831 0.12664 0.0
C7 C 0.34197 0.47482 0.96467 0.0
C8 C 0.20918 0.34675 0.94395 0.0
O9 O 0.19561 0.38499 0.94617 0.0
O10 O 0.24876 0.33731 0.95815 0.0
O11 O 0.73369 0.64198 0.58615 0.0
Cd12 Cd 0.78266 0.61916 0.52216 0.0
O13 O 0.75292 0.58635 0.6268 0.0
Cd14 Cd 0.77752 0.55176 0.56828 0.0
O15 O 0.74437 0.51211 0.52195 0.0
C16 C 0.71104 0.52954 0.50247 0.0
O17 O 0.70193 0.56919 0.50944 0.0
C18 C 0.7325 0.62171 0.62377 0.0
C19 C 0.83566 0.68299 0.4826 0.0
O20 O 0.84748 0.66335 0.51863 0.0
O21 O 0.79845 0.67285 0.46542 0.0
O22 O 0.70808 0.42927 0.952 0.0
Cd23 Cd 0.73004 0.36323 0.99054 0.0
O24 O 0.72662 0.46912 0.00676 0.0
Cd25 Cd 0.74561 0.4156 0.04951 0.0
O26 O 0.71756 0.3822 0.10918 0.0
C27 C 0.7207 0.3999 0.14648 0.0
O28 O 0.74487 0.43389 0.14702 0.0
C29 C 0.71054 0.46542 0.96818 0.0
C30 C 0.807 0.31978 0.95597 0.0
O31 O 0.76784 0.31531 0.9397 0.0
O32 O 0.80997 0.34589 0.98743 0.0
O33 O 0.35017 0.62012 0.44334 0.0
Cd34 Cd 0.32624 0.68911 0.47028 0.0
O35 O 0.33168 0.58757 0.50768 0.0
Cd36 Cd 0.3134 0.64465 0.54302 0.0
O37 O 0.34096 0.67119 0.60238 0.0
C38 C 0.34829 0.64338 0.63281 0.0
O39 O 0.33503 0.6052 0.62645 0.0
C40 C 0.3478 0.58642 0.46723 0.0
C41 C 0.24279 0.72116 0.44162 0.0
O42 O 0.2797 0.72638 0.41743 0.0
O43 O 0.24524 0.69968 0.47868 0.0
O44 O 0.80485 0.96564 0.96667 0.0
Cd45 Cd 0.74649 0.91909 0.00319 0.0
O46 O 0.86295 0.92633 0.98751 0.0
Cd47 Cd 0.82391 0.88071 0.02874 0.0
O48 O 0.83599 0.8581 0.0974 0.0
C49 C 0.83481 0.8866 0.12618 0.0
O50 O 0.82133 0.92433 0.11323 0.0
C51 C 0.84769 0.95894 0.96731 0.0
C52 C 0.70614 0.85603 0.95564 0.0
O53 O 0.69416 0.89452 0.95023 0.0
O54 O 0.7385 0.84728 0.98207 0.0
O55 O 0.19487 0.17286 0.57691 0.0
Cd56 Cd 0.2207 0.16464 0.49807 0.0
O57 O 0.23043 0.11665 0.60286 0.0
Cd58 Cd 0.24826 0.09367 0.53594 0.0
O59 O 0.22009 0.0509 0.48944 0.0
C60 C 0.17915 0.05945 0.47999 0.0
O61 O 0.15943 0.09324 0.49645 0.0
C62 C 0.20559 0.14898 0.61 0.0
C63 C 0.29373 0.21544 0.47159 0.0
O64 O 0.25263 0.22971 0.4718 0.0
O65 O 0.30032 0.17717 0.48401 0.0
O66 O 0.24023 0.95147 0.96665 0.0
Cd67 Cd 0.28388 0.90163 0.01331 0.0
O68 O 0.24721 1.00053 0.01572 0.0
Cd69 Cd 0.27267 0.9587 0.06844 0.0
O70 O 0.23988 0.93262 0.13014 0.0
C71 C 0.20699 0.90831 0.12541 0.0
O72 O 0.19798 0.89756 0.08452 0.0
C73 C 0.23338 0.98909 0.97822 0.0
C74 C 0.34122 0.8443 0.9679 0.0
O75 O 0.30052 0.83469 0.98123 0.0
O76 O 0.35421 0.88137 0.97482 0.0
O77 O 0.78074 0.05849 0.47337 0.0
Cd78 Cd 0.72359 0.09745 0.51938 0.0
O79 O 0.83655 0.0838 0.50998 0.0
Cd80 Cd 0.79875 0.1262 0.5545 0.0
O81 O 0.82488 0.14792 0.61682 0.0
C82 C 0.83369 0.11932 0.646 0.0
O83 O 0.8222 0.08091 0.63829 0.0
C84 C 0.82299 0.05967 0.48058 0.0
C85 C 0.67982 0.16636 0.47903 0.0
O86 O 0.66755 0.12903 0.47235 0.0
O87 O 0.71391 0.1712 0.50356 0.0
Fe88 Fe 0.0143 0.8281 0.32462 0.0
Fe89 Fe 0.01399 0.87251 0.41497 0.0
O90 O 0.01156 0.87466 0.35539 0.0
Fe91 Fe 1.00712 0.92366 0.32643 0.0
O92 O 0.97434 0.90451 0.28081 0.0
O93 O 0.95956 0.83944 0.30054 0.0
O94 O 0.98334 0.79687 0.36862 0.0
C95 C 0.95776 0.80753 0.40207 0.0
C96 C 0.06987 0.88349 0.27125 0.0
O97 O 0.96324 0.84141 0.42136 0.0
C98 C 0.06702 0.94004 0.39548 0.0
O99 O 0.06933 0.81343 0.34624 0.0
O100 O 0.05127 0.82578 0.41727 0.0
O101 O 0.06088 0.91448 0.29546 0.0
O102 O 0.04569 0.85121 0.27514 0.0
C103 C 0.94904 0.93809 0.39837 0.0
O104 O 0.0652 0.90359 0.41286 0.0
O105 O 0.03897 0.95216 0.36659 0.0
C106 C 0.07766 0.80954 0.38744 0.0
O107 O 0.977 0.91895 0.4234 0.0
O108 O 0.95318 0.93605 0.35601 0.0
C109 C 0.95018 0.87255 0.27848 0.0
Fe110 Fe 0.02813 0.15474 0.91376 0.0
Fe111 Fe 0.0363 0.10565 0.82711 0.0
O112 O 0.02915 0.15394 0.85416 0.0
Fe113 Fe 0.02254 0.20099 0.82158 0.0
O114 O 0.05279 0.23322 0.86028 0.0
O115 O 0.07721 0.18841 0.91203 0.0
O116 O 0.06854 0.11039 0.91987 0.0
C117 C 0.09788 0.09479 0.8921 0.0
C118 C 0.96069 0.21597 0.89129 0.0
O119 O 0.09154 0.09613 0.85039 0.0
C120 C 0.96895 0.14319 0.77862 0.0
O121 O 0.9786 0.12079 0.91903 0.0
O122 O 1.00779 0.07454 0.87246 0.0
O123 O 0.96757 0.2126 0.84934 0.0
O124 O 0.98826 0.19962 0.91857 0.0
C125 C 0.08874 0.16044 0.77068 0.0
O126 O 0.98144 0.11218 0.80256 0.0
O127 O 0.99106 0.17682 0.7774 0.0
C128 C 0.97815 0.08493 0.90249 0.0
O129 O 0.06624 0.12743 0.77665 0.0
O130 O 0.07708 0.19308 0.79115 0.0
C131 C 0.08041 0.22303 0.89053 0.0
Fe132 Fe 0.51499 0.32902 0.3387 0.0
Fe133 Fe 0.51139 0.37346 0.42923 0.0
O134 O 0.51656 0.37539 0.36959 0.0
Fe135 Fe 0.52338 0.42401 0.34044 0.0
O136 O 0.49386 0.40915 0.29072 0.0
O137 O 0.46538 0.34799 0.30936 0.0
O138 O 0.47545 0.30208 0.37925 0.0
C139 C 0.44808 0.31626 0.40959 0.0
C140 C 0.58437 0.376 0.29217 0.0
O141 O 0.45623 0.34945 0.42898 0.0
C142 C 0.57677 0.43249 0.41611 0.0
O143 O 0.56403 0.30681 0.36594 0.0
O144 O 0.5415 0.32265 0.43532 0.0
O145 O 0.57816 0.40734 0.31643 0.0
O146 O 0.55479 0.34769 0.29272 0.0
C147 C 0.45821 0.44534 0.40442 0.0
O148 O 0.56639 0.39743 0.43371 0.0
O149 O 0.55398 0.44836 0.38461 0.0
C150 C 0.56755 0.30252 0.408 0.0
O151 O 0.48018 0.42402 0.43335 0.0
O152 O 0.46903 0.44342 0.36292 0.0
C153 C 0.46397 0.38191 0.28667 0.0
Fe154 Fe 0.53419 0.66101 0.90954 0.0
Fe155 Fe 0.53714 0.6136 0.8218 0.0
O156 O 0.53622 0.66146 0.84982 0.0
Fe157 Fe 0.53733 0.70928 0.81779 0.0
O158 O 0.58911 0.72505 0.84258 0.0
O159 O 0.56857 0.70829 0.91313 0.0
O160 O 0.58737 0.63071 0.91189 0.0
C161 C 0.59439 0.59605 0.89351 0.0
C162 C 0.47489 0.72613 0.89137 0.0
O163 O 0.56755 0.58393 0.86496 0.0
C164 C 0.47952 0.66462 0.76957 0.0
O165 O 0.49902 0.61369 0.91641 0.0
O166 O 0.4822 0.5995 0.84737 0.0
O167 O 0.50165 0.7384 0.85908 0.0
O168 O 0.48118 0.69123 0.91135 0.0
C169 C 0.60031 0.65661 0.76978 0.0
O170 O 0.50694 0.63393 0.77313 0.0
O171 O 0.4851 0.69734 0.79082 0.0
C172 C 0.4736 0.59631 0.88933 0.0
O173 O 0.59201 0.62491 0.79486 0.0
O174 O 0.57375 0.68843 0.77085 0.0
C175 C 0.59402 0.72808 0.88432 0.0
C176 C 0.13875 0.32626 0.90614 0.0
C177 C 0.17868 0.31425 0.92805 0.0
C178 C 0.10764 0.2966 0.89361 0.0
C179 C 0.11467 0.25363 0.9031 0.0
H180 H 0.13115 0.35895 0.89884 0.0
H181 H 0.07731 0.30761 0.87717 0.0
S182 S 0.21452 0.20529 0.9583 0.0
N183 N 0.22415 0.25589 0.95736 0.0
N184 N 0.16549 0.20041 0.93432 0.0
C185 C 0.15473 0.24106 0.92441 0.0
C186 C 0.18675 0.27124 0.93668 0.0
C187 C 0.89159 0.73993 0.48829 0.0
C188 C 0.86466 0.71605 0.46136 0.0
C189 C 0.92057 0.77052 0.46897 0.0
C190 C 0.92457 0.77746 0.42195 0.0
H191 H 0.89022 0.73498 0.52461 0.0
H192 H 0.94099 0.78798 0.49088 0.0
S193 S 0.86122 0.72391 0.33654 0.0
N194 N 0.843 0.70234 0.38527 0.0
N195 N 0.89873 0.75886 0.34894 0.0
C196 C 0.89774 0.75404 0.39464 0.0
C197 C 0.8674 0.72361 0.41436 0.0
C198 C 0.84612 0.27362 0.89879 0.0
C199 C 0.84716 0.29446 0.93974 0.0
C200 C 0.88304 0.24855 0.88327 0.0
C201 C 0.92215 0.24268 0.90847 0.0
H202 H 0.81659 0.27677 0.87838 0.0
H203 H 0.88062 0.23321 0.85153 0.0
S204 S 0.94238 0.29054 0.01772 0.0
N205 N 0.89112 0.30788 0.00492 0.0
N206 N 0.96005 0.26041 0.9761 0.0
C207 C 0.92369 0.26332 0.94947 0.0
C208 C 0.88638 0.28932 0.96496 0.0
C209 C 0.19588 0.75877 0.38407 0.0
C210 C 0.19913 0.74094 0.42786 0.0
C211 C 0.15609 0.77991 0.37095 0.0
C212 C 0.11812 0.7846 0.40126 0.0
H213 H 0.22448 0.7568 0.35974 0.0
H214 H 0.15557 0.79364 0.33711 0.0
S215 S 0.10799 0.74199 0.51914 0.0
N216 N 0.15991 0.72796 0.50098 0.0
N217 N 0.08547 0.76801 0.47646 0.0
C218 C 0.1205 0.76622 0.44486 0.0
C219 C 0.16084 0.74429 0.45809 0.0
C220 C 0.67537 0.78352 0.95735 0.0
C221 C 0.68105 0.82251 0.93463 0.0
C222 C 0.64766 0.7529 0.94064 0.0
C223 C 0.62562 0.75961 0.8999 0.0
H224 H 0.69105 0.77716 0.9892 0.0
H225 H 0.64323 0.72384 0.95992 0.0
S226 S 0.63142 0.85554 0.82622 0.0
N227 N 0.6633 0.86564 0.86867 0.0
N228 N 0.61258 0.80784 0.83655 0.0
C229 C 0.63237 0.79791 0.87605 0.0
C230 C 0.65968 0.82941 0.8936 0.0
C231 C 0.37284 0.22343 0.43813 0.0
C232 C 0.33251 0.24199 0.45642 0.0
C233 C 0.40978 0.24773 0.4225 0.0
C234 C 0.40819 0.29147 0.42549 0.0
H235 H 0.37571 0.18985 0.43526 0.0
H236 H 0.44006 0.23204 0.40856 0.0
S237 S 0.31083 0.35539 0.47131 0.0
N238 N 0.29318 0.30682 0.47668 0.0
N239 N 0.36305 0.35242 0.44825 0.0
C240 C 0.36825 0.31044 0.4441 0.0
C241 C 0.33029 0.28574 0.45927 0.0
C242 C 0.41242 0.8271 0.92192 0.0
C243 C 0.37307 0.81334 0.94647 0.0
C244 C 0.44449 0.79868 0.90333 0.0
C245 C 0.43897 0.75529 0.9092 0.0
H246 H 0.41874 0.86017 0.91718 0.0
H247 H 0.47446 0.81092 0.88519 0.0
S248 S 0.34121 0.70282 0.96927 0.0
N249 N 0.32966 0.75317 0.97434 0.0
N250 N 0.39036 0.69984 0.94 0.0
C251 C 0.39949 0.74102 0.9331 0.0
C252 C 0.36643 0.76999 0.9515 0.0
C253 C 0.63044 0.19848 0.42049 0.0
C254 C 0.65407 0.20263 0.46013 0.0
C255 C 0.6036 0.23142 0.40319 0.0
C256 C 0.5984 0.26938 0.42554 0.0
H257 H 0.63256 0.16946 0.40272 0.0
H258 H 0.58571 0.22665 0.37278 0.0
S259 S 0.65374 0.29669 0.52984 0.0
N260 N 0.67165 0.24837 0.52045 0.0
N261 N 0.61995 0.30979 0.48857 0.0
C262 C 0.62209 0.27416 0.46493 0.0
C263 C 0.65031 0.24095 0.48202 0.0
C264 C 0.40162 0.52862 0.97161 0.0
C265 C 0.37298 0.50721 0.94378 0.0
C266 C 0.43295 0.55788 0.95383 0.0
C267 C 0.43743 0.56726 0.90724 0.0
H268 H 0.40043 0.52246 0.00774 0.0
H269 H 0.45444 0.57267 0.97698 0.0
S270 S 0.3685 0.52241 0.81953 0.0
N271 N 0.3497 0.49918 0.86713 0.0
N272 N 0.40849 0.55425 0.83355 0.0
C273 C 0.40811 0.54706 0.87894 0.0
C274 C 0.37602 0.51711 0.89719 0.0
C275 C 0.67652 0.46141 0.48519 0.0
C276 C 0.6796 0.5048 0.47697 0.0
C277 C 0.6435 0.43817 0.46509 0.0
C278 C 0.61267 0.45735 0.43554 0.0
H279 H 0.69879 0.4454 0.50846 0.0
H280 H 0.64193 0.40499 0.47312 0.0
S281 S 0.60896 0.56982 0.40031 0.0
N282 N 0.65068 0.56569 0.43553 0.0
N283 N 0.58904 0.5223 0.39747 0.0
C284 C 0.61655 0.50055 0.42583 0.0
C285 C 0.64987 0.52418 0.44661 0.0
C286 C 0.67489 0.53721 0.97078 0.0
C287 C 0.68834 0.50208 0.94557 0.0
C288 C 0.64628 0.56874 0.95307 0.0
C289 C 0.63004 0.5663 0.90949 0.0
H290 H 0.68446 0.5394 0.00538 0.0
H291 H 0.63506 0.59403 0.97452 0.0
S292 S 0.66237 0.48525 0.82653 0.0
N293 N 0.68823 0.46991 0.87256 0.0
N294 N 0.63487 0.5291 0.8392 0.0
C295 C 0.64613 0.53307 0.88272 0.0
C296 C 0.67516 0.50101 0.90075 0.0
C297 C 0.38905 0.54686 0.40575 0.0
C298 C 0.3693 0.54719 0.44992 0.0
C299 C 0.41604 0.51299 0.39076 0.0
C300 C 0.42483 0.47811 0.41942 0.0
H301 H 0.38511 0.57364 0.38291 0.0
H302 H 0.43173 0.51512 0.35699 0.0
S303 S 0.37597 0.46036 0.5359 0.0
N304 N 0.35645 0.50716 0.52056 0.0
N305 N 0.40758 0.44383 0.4923 0.0
C306 C 0.40317 0.47681 0.4627 0.0
C307 C 0.37528 0.51118 0.47793 0.0
C308 C 0.86816 0.03343 0.94683 0.0
C309 C 0.88038 0.99058 0.94832 0.0
C310 C 0.90016 0.06407 0.93329 0.0
C311 C 0.94531 0.05292 0.91996 0.0
H312 H 0.83391 0.04348 0.95721 0.0
H313 H 0.88928 0.0966 0.93255 0.0
S314 S 0.99449 0.94515 0.91703 0.0
N315 N 0.94093 0.93887 0.93491 0.0
N316 N 1.00048 0.99597 0.90902 0.0
C317 C 0.95773 1.01019 0.92083 0.0
C318 C 0.92547 0.97919 0.9351 0.0
C319 C 0.16476 0.9873 0.45445 0.0
C320 C 0.15244 0.03003 0.45496 0.0
C321 C 0.13725 0.95831 0.4348 0.0
C322 C 0.09694 0.97113 0.41416 0.0
H323 H 0.19509 0.97591 0.47062 0.0
H324 H 0.1475 0.92561 0.43601 0.0
S325 S 0.05063 0.07983 0.40474 0.0
N326 N 0.09788 0.08384 0.43198 0.0
N327 N 0.04672 0.0298 0.3945 0.0
C328 C 0.08501 0.01399 0.41329 0.0
C329 C 0.1126 0.0433 0.43384 0.0
C330 C 0.18654 0.05487 0.97203 0.0
C331 C 0.20418 0.01837 0.95177 0.0
C332 C 0.15331 0.07999 0.95166 0.0
C333 C 0.13674 0.07016 0.90982 0.0
H334 H 0.19692 0.06333 0.00496 0.0
H335 H 0.13976 0.10692 0.96939 0.0
S336 S 0.17489 0.98077 0.84005 0.0
N337 N 0.20487 0.97548 0.8856 0.0
N338 N 0.14273 0.0232 0.84699 0.0
C339 C 0.15587 0.03523 0.88776 0.0
C340 C 0.18946 1.00922 0.90882 0.0
C341 C 0.84342 1.00631 0.42201 0.0
C342 C 0.85632 0.03059 0.45785 0.0
C343 C 0.87368 0.97671 0.40233 0.0
C344 C 0.91747 0.96968 0.4185 0.0
H345 H 0.80962 1.00996 0.40921 0.0
H346 H 0.8624 0.95861 0.37494 0.0
S347 S 0.96952 0.02657 0.50917 0.0
N348 N 0.91754 0.04682 0.5067 0.0
N349 N 0.97337 0.99082 0.47042 0.0
C350 C 0.93114 0.99416 0.4536 0.0
C351 C 0.90087 0.02471 0.47306 0.0
C352 C 0.39064 0.43984 0.20306 0.0
C353 C 0.37015 0.40782 0.18046 0.0
C354 C 0.41989 0.43088 0.23795 0.0
C355 C 0.42971 0.38951 0.2522 0.0
H356 H 0.38529 0.4723 0.19292 0.0
H357 H 0.43548 0.45678 0.25347 0.0
S358 S 0.38173 0.29411 0.20724 0.0
N359 N 0.35942 0.33288 0.17692 0.0
N360 N 0.4143 0.31608 0.24314 0.0
C361 C 0.40779 0.3571 0.23158 0.0
C362 C 0.3781 0.36623 0.19556 0.0
C363 C 0.7026 0.61246 0.70354 0.0
C364 C 0.70342 0.63626 0.66279 0.0
C365 C 0.67049 0.6207 0.73858 0.0
C366 C 0.63775 0.65319 0.73459 0.0
H367 H 0.72583 0.58607 0.70797 0.0
H368 H 0.67052 0.60043 0.76855 0.0
S369 S 0.62862 0.72821 0.63721 0.0
N370 N 0.67124 0.69639 0.62215 0.0
N371 N 0.6108 0.7119 0.68827 0.0
C372 C 0.63999 0.67909 0.69531 0.0
C373 C 0.67281 0.67062 0.65938 0.0
C374 C 0.68969 0.41244 0.22469 0.0
C375 C 0.69076 0.3878 0.18631 0.0
C376 C 0.65647 0.40694 0.25962 0.0
C377 C 0.62287 0.37648 0.25783 0.0
H378 H 0.71347 0.43753 0.22708 0.0
H379 H 0.6563 0.42786 0.28755 0.0
S380 S 0.61475 0.29946 0.16798 0.0
N381 N 0.65841 0.3285 0.15094 0.0
N382 N 0.59589 0.31814 0.21673 0.0
C383 C 0.62552 0.34952 0.22124 0.0
C384 C 0.65944 0.35519 0.18548 0.0
C385 C 0.39393 0.61717 0.69669 0.0
C386 C 0.37738 0.6514 0.67094 0.0
C387 C 0.42601 0.62227 0.72911 0.0
C388 C 0.44254 0.66187 0.73781 0.0
H389 H 0.38335 0.58573 0.6908 0.0
H390 H 0.43854 0.59466 0.74705 0.0
S391 S 0.40721 0.76235 0.68303 0.0
N392 N 0.37783 0.7269 0.65846 0.0
N393 N 0.43788 0.73646 0.72034 0.0
C394 C 0.42468 0.69678 0.71416 0.0
C395 C 0.39222 0.69154 0.68048 0.0
C396 C 0.86731 0.91536 0.19433 0.0
C397 C 0.85721 0.88023 0.16974 0.0
C398 C 0.89563 0.912 0.23082 0.0
C399 C 0.91464 0.87331 0.24475 0.0
H400 H 0.85521 0.94625 0.18406 0.0
H401 H 0.90391 0.94032 0.24733 0.0
S402 S 0.89334 0.7707 0.19638 0.0
N403 N 0.86447 0.80462 0.16513 0.0
N404 N 0.91744 0.79832 0.23431 0.0
C405 C 0.90206 0.83737 0.22284 0.0
C406 C 0.87346 0.84083 0.18518 0.0
C407 C 0.15568 0.19124 0.66314 0.0
C408 C 0.18359 0.15551 0.65548 0.0
C409 C 0.12714 0.19425 0.70229 0.0
C410 C 0.12517 0.16139 0.73477 0.0
H411 H 0.15412 0.21625 0.63775 0.0
H412 H 0.10443 0.22119 0.70571 0.0
S413 S 0.19626 0.06439 0.73515 0.0
N414 N 0.21147 0.08909 0.68725 0.0
N415 N 0.15709 0.09464 0.76 0.0
C416 C 0.15514 0.12703 0.7293 0.0
C417 C 0.18464 0.12414 0.68991 0.0
C418 C 0.17375 0.92251 0.20269 0.0
C419 C 0.1749 0.89806 0.16413 0.0
C420 C 0.14008 0.91711 0.23734 0.0
C421 C 0.1065 0.8867 0.23515 0.0
H422 H 0.19806 0.94708 0.20554 0.0
H423 H 0.14013 0.93733 0.26586 0.0
S424 S 0.09671 0.81217 0.14311 0.0
N425 N 0.14111 0.84062 0.12698 0.0
N426 N 0.07808 0.83016 0.19225 0.0
C427 C 0.1084 0.86082 0.19766 0.0
C428 C 0.14248 0.8666 0.16213 0.0
C429 C 0.89082 0.16305 0.68144 0.0
C430 C 0.8634 0.12751 0.68355 0.0
C431 C 0.92402 0.16843 0.71299 0.0
C432 C 0.93106 0.13854 0.74796 0.0
H433 H 0.888 0.18614 0.65417 0.0
H434 H 0.94522 0.19565 0.70898 0.0
S435 S 0.86339 0.0431 0.77236 0.0
N436 N 0.8422 0.06416 0.72617 0.0
N437 N 0.90419 0.07435 0.78564 0.0
C438 C 0.90202 0.10406 0.75195 0.0
C439 C 0.86833 0.09854 0.71973 0.0
loop_
_geom_bond_atom_site_label_1
_geom_bond_atom_site_label_2
_geom_bond_distance
_geom_bond_site_symmetry_2
_ccdc_geom_bond_type
O0 Cd1 2.300 . S
O0 C7 1.275 . S
Cd1 O0 2.300 . S
Cd1 O9 2.381 . S
Cd1 O10 2.378 . S
O2 Cd3 2.385 1_556 S
O2 C7 1.255 . S
Cd3 O2 2.385 1_554 S
Cd3 O4 2.317 . S
O4 Cd3 2.317 . S
O4 C5 1.232 . S
C5 O4 1.232 . S
C5 O6 1.218 . S
O6 C5 1.218 . S
C7 O0 1.275 . S
C7 O2 1.255 . S
C8 O9 1.258 . S
C8 O10 1.256 . S
O9 Cd1 2.381 . S
O9 C8 1.258 . S
O10 Cd1 2.378 . S
O10 C8 1.256 . S
O11 Cd12 2.300 . S
O11 C18 1.275 . S
Cd12 O11 2.300 . S
Cd12 O20 2.381 . S
Cd12 O21 2.378 . S
O13 Cd14 2.385 . S
O13 C18 1.255 . S
Cd14 O13 2.385 . S
Cd14 O15 2.317 . S
O15 Cd14 2.317 . S
O15 C16 1.232 . S
C16 O15 1.232 . S
C16 O17 1.218 . S
O17 C16 1.218 . S
C18 O11 1.275 . S
C18 O13 1.255 . S
C19 O20 1.258 . S
C19 O21 1.256 . S
O20 Cd12 2.381 . S
O20 C19 1.258 . S
O21 Cd12 2.378 . S
O21 C19 1.256 . S
O22 Cd23 2.300 . S
O22 C29 1.275 . S
Cd23 O22 2.300 . S
Cd23 O31 2.381 . S
Cd23 O32 2.378 . S
O24 Cd25 2.385 . S
O24 C29 1.255 1_554 S
Cd25 O24 2.385 . S
Cd25 O26 2.317 . S
O26 Cd25 2.317 . S
O26 C27 1.232 . S
C27 O26 1.232 . S
C27 O28 1.218 . S
O28 C27 1.218 . S
C29 O22 1.275 . S
C29 O24 1.255 1_556 S
C30 O31 1.258 . S
C30 O32 1.256 . S
O31 Cd23 2.381 . S
O31 C30 1.258 . S
O32 Cd23 2.378 . S
O32 C30 1.256 . S
O33 Cd34 2.300 . S
O33 C40 1.275 . S
Cd34 O33 2.300 . S
Cd34 O42 2.381 . S
Cd34 O43 2.378 . S
O35 Cd36 2.385 . S
O35 C40 1.255 . S
Cd36 O35 2.385 . S
Cd36 O37 2.317 . S
O37 Cd36 2.317 . S
O37 C38 1.232 . S
C38 O37 1.232 . S
C38 O39 1.218 . S
O39 C38 1.218 . S
C40 O33 1.275 . S
C40 O35 1.255 . S
C41 O42 1.258 . S
C41 O43 1.256 . S
O42 Cd34 2.381 . S
O42 C41 1.258 . S
O43 Cd34 2.378 . S
O43 C41 1.256 . S
O44 Cd45 2.300 . S
O44 C51 1.275 . S
Cd45 O44 2.300 . S
Cd45 O53 2.381 . S
Cd45 O54 2.378 . S
O46 Cd47 2.385 1_556 S
O46 C51 1.255 . S
Cd47 O46 2.385 1_554 S
Cd47 O48 2.317 . S
O48 Cd47 2.317 . S
O48 C49 1.232 . S
C49 O48 1.232 . S
C49 O50 1.218 . S
O50 C49 1.218 . S
C51 O44 1.275 . S
C51 O46 1.255 . S
C52 O53 1.258 . S
C52 O54 1.256 . S
O53 Cd45 2.381 . S
O53 C52 1.258 . S
O54 Cd45 2.378 . S
O54 C52 1.256 . S
O55 Cd56 2.300 . S
O55 C62 1.275 . S
Cd56 O55 2.300 . S
Cd56 O64 2.381 . S
Cd56 O65 2.378 . S
O57 Cd58 2.385 . S
O57 C62 1.255 . S
Cd58 O57 2.385 . S
Cd58 O59 2.317 . S
O59 Cd58 2.317 . S
O59 C60 1.232 . S
C60 O59 1.232 . S
C60 O61 1.214 1_545 S
O61 C60 1.214 1_565 S
C62 O55 1.275 . S
C62 O57 1.255 . S
C63 O64 1.258 . S
C63 O65 1.256 . S
O64 Cd56 2.381 . S
O64 C63 1.258 . S
O65 Cd56 2.378 . S
O65 C63 1.256 . S
O66 Cd67 2.300 . S
O66 C73 1.275 . S
Cd67 O66 2.300 . S
Cd67 O75 2.381 . S
Cd67 O76 2.378 . S
O68 Cd69 2.385 . S
O68 C73 1.255 1_554 S
Cd69 O68 2.385 . S
Cd69 O70 2.317 . S
O70 Cd69 2.317 . S
O70 C71 1.232 . S
C71 O70 1.232 . S
C71 O72 1.218 . S
O72 C71 1.218 . S
C73 O66 1.275 . S
C73 O68 1.255 1_556 S
C74 O75 1.258 . S
C74 O76 1.256 . S
O75 Cd67 2.381 . S
O75 C74 1.258 . S
O76 Cd67 2.378 . S
O76 C74 1.256 . S
O77 Cd78 2.300 . S
O77 C84 1.275 . S
Cd78 O77 2.300 . S
Cd78 O86 2.381 . S
Cd78 O87 2.378 . S
O79 Cd80 2.385 . S
O79 C84 1.255 . S
Cd80 O79 2.385 . S
Cd80 O81 2.317 . S
O81 Cd80 2.317 . S
O81 C82 1.232 . S
C82 O81 1.232 . S
C82 O83 1.218 . S
O83 C82 1.218 . S
C84 O77 1.275 . S
C84 O79 1.255 . S
C85 O86 1.258 . S
C85 O87 1.256 . S
O86 Cd78 2.381 . S
O86 C85 1.258 . S
O87 Cd78 2.378 . S
O87 C85 1.256 . S
Fe88 O90 1.918 . S
Fe88 O93 1.997 1_455 S
Fe88 O94 2.002 1_455 S
Fe88 O99 1.976 . S
Fe88 O102 1.996 . S
Fe89 O90 1.918 . S
Fe89 O97 1.997 1_455 S
Fe89 O100 1.996 . S
Fe89 O104 1.976 . S
Fe89 O107 2.002 1_455 S
O90 Fe88 1.918 . S
O90 Fe89 1.918 . S
O90 Fe91 1.918 . S
Fe91 O90 1.918 . S
Fe91 O92 2.002 1_455 S
Fe91 O101 1.976 . S
Fe91 O105 1.996 . S
Fe91 O108 1.997 1_455 S
O92 Fe91 2.002 1_655 S
O92 C109 1.295 . S
O93 Fe88 1.997 1_655 S
O93 C109 1.235 . S
O94 Fe88 2.002 1_655 S
O94 C95 1.295 . S
C95 O94 1.295 . S
C95 O97 1.235 . S
C96 O101 1.287 . S
C96 O102 1.255 . S
O97 Fe89 1.997 1_655 S
O97 C95 1.235 . S
C98 O104 1.287 . S
C98 O105 1.255 . S
O99 Fe88 1.976 . S
O99 C106 1.287 . S
O100 Fe89 1.996 . S
O100 C106 1.255 . S
O101 Fe91 1.976 . S
O101 C96 1.287 . S
O102 Fe88 1.996 . S
O102 C96 1.255 . S
C103 O107 1.295 . S
C103 O108 1.235 . S
O104 Fe89 1.976 . S
O104 C98 1.287 . S
O105 Fe91 1.996 . S
O105 C98 1.255 . S
C106 O99 1.287 . S
C106 O100 1.255 . S
O107 Fe89 2.002 1_655 S
O107 C103 1.295 . S
O108 Fe91 1.997 1_655 S
O108 C103 1.235 . S
C109 O92 1.295 . S
C109 O93 1.235 . S
Fe110 O112 1.918 . S
Fe110 O115 1.997 . S
Fe110 O116 2.002 . S
Fe110 O121 1.976 1_455 S
Fe110 O124 1.996 1_455 S
Fe111 O112 1.918 . S
Fe111 O119 1.997 . S
Fe111 O122 1.996 1_455 S
Fe111 O126 1.976 1_455 S
Fe111 O129 2.002 . S
O112 Fe110 1.918 . S
O112 Fe111 1.918 . S
O112 Fe113 1.918 . S
Fe113 O112 1.918 . S
Fe113 O114 2.002 . S
Fe113 O123 1.976 1_455 S
Fe113 O127 1.996 1_455 S
Fe113 O130 1.997 . S
O114 Fe113 2.002 . S
O114 C131 1.295 . S
O115 Fe110 1.997 . S
O115 C131 1.235 . S
O116 Fe110 2.002 . S
O116 C117 1.295 . S
C117 O116 1.295 . S
C117 O119 1.235 . S
C118 O123 1.287 . S
C118 O124 1.255 . S
O119 Fe111 1.997 . S
O119 C117 1.235 . S
C120 O126 1.287 . S
C120 O127 1.255 . S
O121 Fe110 1.976 1_655 S
O121 C128 1.287 . S
O122 Fe111 1.996 1_655 S
O122 C128 1.255 . S
O123 Fe113 1.976 1_655 S
O123 C118 1.287 . S
O124 Fe110 1.996 1_655 S
O124 C118 1.255 . S
C125 O129 1.295 . S
C125 O130 1.235 . S
O126 Fe111 1.976 1_655 S
O126 C120 1.287 . S
O127 Fe113 1.996 1_655 S
O127 C120 1.255 . S
C128 O121 1.287 . S
C128 O122 1.255 . S
O129 Fe111 2.002 . S
O129 C125 1.295 . S
O130 Fe113 1.997 . S
O130 C125 1.235 . S
C131 O114 1.295 . S
C131 O115 1.235 . S
Fe132 O134 1.918 . S
Fe132 O137 1.997 . S
Fe132 O138 2.002 . S
Fe132 O143 1.976 . S
Fe132 O146 1.996 . S
Fe133 O134 1.918 . S
Fe133 O141 1.997 . S
Fe133 O144 1.996 . S
Fe133 O148 1.976 . S
Fe133 O151 2.002 . S
O134 Fe132 1.918 . S
O134 Fe133 1.918 . S
O134 Fe135 1.918 . S
Fe135 O134 1.918 . S
Fe135 O136 2.002 . S
Fe135 O145 1.976 . S
Fe135 O149 1.996 . S
Fe135 O152 1.997 . S
O136 Fe135 2.002 . S
O136 C153 1.295 . S
O137 Fe132 1.997 . S
O137 C153 1.235 . S
O138 Fe132 2.002 . S
O138 C139 1.295 . S
C139 O138 1.295 . S
C139 O141 1.235 . S
C140 O145 1.287 . S
C140 O146 1.255 . S
O141 Fe133 1.997 . S
O141 C139 1.235 . S
C142 O148 1.287 . S
C142 O149 1.255 . S
O143 Fe132 1.976 . S
O143 C150 1.287 . S
O144 Fe133 1.996 . S
O144 C150 1.255 . S
O145 Fe135 1.976 . S
O145 C140 1.287 . S
O146 Fe132 1.996 . S
O146 C140 1.255 . S
C147 O151 1.295 . S
C147 O152 1.235 . S
O148 Fe133 1.976 . S
O148 C142 1.287 . S
O149 Fe135 1.996 . S
O149 C142 1.255 . S
C150 O143 1.287 . S
C150 O144 1.255 . S
O151 Fe133 2.002 . S
O151 C147 1.295 . S
O152 Fe135 1.997 . S
O152 C147 1.235 . S
C153 O136 1.295 . S
C153 O137 1.235 . S
Fe154 O156 1.918 . S
Fe154 O159 1.997 . S
Fe154 O160 2.002 . S
Fe154 O165 1.976 . S
Fe154 O168 1.996 . S
Fe155 O156 1.918 . S
Fe155 O163 1.997 . S
Fe155 O166 1.996 . S
Fe155 O170 1.976 . S
Fe155 O173 2.002 . S
O156 Fe154 1.918 . S
O156 Fe155 1.918 . S
O156 Fe157 1.918 . S
Fe157 O156 1.918 . S
Fe157 O158 2.002 . S
Fe157 O167 1.976 . S
Fe157 O171 1.996 . S
Fe157 O174 1.997 . S
O158 Fe157 2.002 . S
O158 C175 1.295 . S
O159 Fe154 1.997 . S
O159 C175 1.235 . S
O160 Fe154 2.002 . S
O160 C161 1.295 . S
C161 O160 1.295 . S
C161 O163 1.235 . S
C162 O167 1.287 . S
C162 O168 1.255 . S
O163 Fe155 1.997 . S
O163 C161 1.235 . S
C164 O170 1.287 . S
C164 O171 1.255 . S
O165 Fe154 1.976 . S
O165 C172 1.287 . S
O166 Fe155 1.996 . S
O166 C172 1.255 . S
O167 Fe157 1.976 . S
O167 C162 1.287 . S
O168 Fe154 1.996 . S
O168 C162 1.255 . S
C169 O173 1.295 . S
C169 O174 1.235 . S
O170 Fe155 1.976 . S
O170 C164 1.287 . S
O171 Fe157 1.996 . S
O171 C164 1.255 . S
C172 O165 1.287 . S
C172 O166 1.255 . S
O173 Fe155 2.002 . S
O173 C169 1.295 . S
O174 Fe157 1.997 . S
O174 C169 1.235 . S
C175 O158 1.295 . S
C175 O159 1.235 . S
C176 C177 1.369 . S
C176 C178 1.419 . S
C176 H180 0.930 . S
C177 C176 1.369 . S
C177 C186 1.429 . S
C178 C176 1.419 . S
C178 C179 1.363 . S
C178 H181 0.929 . S
C179 C178 1.363 . S
C179 C185 1.428 . S
H180 C176 0.930 . S
H181 C178 0.929 . S
S182 N183 1.613 . S
S182 N184 1.610 1_554 S
N183 S182 1.613 . S
N183 C186 1.350 1_554 S
N184 S182 1.610 1_556 S
N184 C185 1.351 . S
C185 C179 1.428 . S
C185 N184 1.351 . S
C185 C186 1.434 . S
C186 C177 1.429 . S
C186 N183 1.350 1_556 S
C186 C185 1.434 . S
C187 C188 1.369 . S
C187 C189 1.419 . S
C187 H191 0.930 . S
C188 C187 1.369 . S
C188 C197 1.429 . S
C189 C187 1.419 . S
C189 C190 1.363 . S
C189 H192 0.929 . S
C190 C189 1.363 . S
C190 C196 1.428 . S
H191 C187 0.930 . S
H192 C189 0.929 . S
S193 N194 1.613 . S
S193 N195 1.610 . S
N194 S193 1.613 . S
N194 C197 1.350 . S
N195 S193 1.610 . S
N195 C196 1.351 . S
C196 C190 1.428 . S
C196 N195 1.351 . S
C196 C197 1.434 . S
C197 C188 1.429 . S
C197 N194 1.350 . S
C197 C196 1.434 . S
C198 C199 1.369 . S
C198 C200 1.419 . S
C198 H202 0.930 . S
C199 C198 1.369 . S
C199 C208 1.429 . S
C200 C198 1.419 . S
C200 C201 1.363 . S
C200 H203 0.929 . S
C201 C200 1.363 . S
C201 C207 1.428 . S
H202 C198 0.930 . S
H203 C200 0.929 . S
S204 N205 1.613 1_554 S
S204 N206 1.610 1_554 S
N205 S204 1.613 1_556 S
N205 C208 1.350 . S
N206 S204 1.610 1_556 S
N206 C207 1.351 . S
C207 C201 1.428 . S
C207 N206 1.351 . S
C207 C208 1.434 . S
C208 C199 1.429 . S
C208 N205 1.350 . S
C208 C207 1.434 . S
C209 C210 1.369 . S
C209 C211 1.419 . S
C209 H213 0.930 . S
C210 C209 1.369 . S
C210 C219 1.429 . S
C211 C209 1.419 . S
C211 C212 1.363 . S
C211 H214 0.929 . S
C212 C211 1.363 . S
C212 C218 1.428 . S
H213 C209 0.930 . S
H214 C211 0.929 . S
S215 N216 1.613 . S
S215 N217 1.610 . S
N216 S215 1.613 . S
N216 C219 1.350 . S
N217 S215 1.610 . S
N217 C218 1.351 . S
C218 C212 1.428 . S
C218 N217 1.351 . S
C218 C219 1.434 . S
C219 C210 1.429 . S
C219 N216 1.350 . S
C219 C218 1.434 . S
C220 C221 1.369 . S
C220 C222 1.419 . S
C220 H224 0.930 . S
C221 C220 1.369 . S
C221 C230 1.429 . S
C222 C220 1.419 . S
C222 C223 1.363 . S
C222 H225 0.929 . S
C223 C222 1.363 . S
C223 C229 1.428 . S
H224 C220 0.930 . S
H225 C222 0.929 . S
S226 N227 1.613 . S
S226 N228 1.610 . S
N227 S226 1.613 . S
N227 C230 1.350 . S
N228 S226 1.610 . S
N228 C229 1.351 . S
C229 C223 1.428 . S
C229 N228 1.351 . S
C229 C230 1.434 . S
C230 C221 1.429 . S
C230 N227 1.350 . S
C230 C229 1.434 . S
C231 C232 1.369 . S
C231 C233 1.419 . S
C231 H235 0.930 . S
C232 C231 1.369 . S
C232 C241 1.429 . S
C233 C231 1.419 . S
C233 C234 1.363 . S
C233 H236 0.929 . S
C234 C233 1.363 . S
C234 C240 1.428 . S
H235 C231 0.930 . S
H236 C233 0.929 . S
S237 N238 1.613 . S
S237 N239 1.610 . S
N238 S237 1.613 . S
N238 C241 1.350 . S
N239 S237 1.610 . S
N239 C240 1.351 . S
C240 C234 1.428 . S
C240 N239 1.351 . S
C240 C241 1.434 . S
C241 C232 1.429 . S
C241 N238 1.350 . S
C241 C240 1.434 . S
C242 C243 1.369 . S
C242 C244 1.419 . S
C242 H246 0.930 . S
C243 C242 1.369 . S
C243 C252 1.429 . S
C244 C242 1.419 . S
C244 C245 1.363 . S
C244 H247 0.929 . S
C245 C244 1.363 . S
C245 C251 1.428 . S
H246 C242 0.930 . S
H247 C244 0.929 . S
S248 N249 1.613 . S
S248 N250 1.610 . S
N249 S248 1.613 . S
N249 C252 1.350 . S
N250 S248 1.610 . S
N250 C251 1.351 . S
C251 C245 1.428 . S
C251 N250 1.351 . S
C251 C252 1.434 . S
C252 C243 1.429 . S
C252 N249 1.350 . S
C252 C251 1.434 . S
C253 C254 1.369 . S
C253 C255 1.419 . S
C253 H257 0.930 . S
C254 C253 1.369 . S
C254 C263 1.429 . S
C255 C253 1.419 . S
C255 C256 1.363 . S
C255 H258 0.929 . S
C256 C255 1.363 . S
C256 C262 1.428 . S
H257 C253 0.930 . S
H258 C255 0.929 . S
S259 N260 1.613 . S
S259 N261 1.610 . S
N260 S259 1.613 . S
N260 C263 1.350 . S
N261 S259 1.610 . S
N261 C262 1.351 . S
C262 C256 1.428 . S
C262 N261 1.351 . S
C262 C263 1.434 . S
C263 C254 1.429 . S
C263 N260 1.350 . S
C263 C262 1.434 . S
C264 C265 1.369 . S
C264 C266 1.419 . S
C264 H268 0.930 1_556 S
C265 C264 1.369 . S
C265 C274 1.429 . S
C266 C264 1.419 . S
C266 C267 1.363 . S
C266 H269 0.929 . S
C267 C266 1.363 . S
C267 C273 1.428 . S
H268 C264 0.930 1_554 S
H269 C266 0.929 . S
S270 N271 1.613 . S
S270 N272 1.610 . S
N271 S270 1.613 . S
N271 C274 1.350 . S
N272 S270 1.610 . S
N272 C273 1.351 . S
C273 C267 1.428 . S
C273 N272 1.351 . S
C273 C274 1.434 . S
C274 C265 1.429 . S
C274 N271 1.350 . S
C274 C273 1.434 . S
C275 C276 1.369 . S
C275 C277 1.419 . S
C275 H279 0.930 . S
C276 C275 1.369 . S
C276 C285 1.429 . S
C277 C275 1.419 . S
C277 C278 1.363 . S
C277 H280 0.929 . S
C278 C277 1.363 . S
C278 C284 1.428 . S
H279 C275 0.930 . S
H280 C277 0.929 . S
S281 N282 1.613 . S
S281 N283 1.610 . S
N282 S281 1.613 . S
N282 C285 1.350 . S
N283 S281 1.610 . S
N283 C284 1.351 . S
C284 C278 1.428 . S
C284 N283 1.351 . S
C284 C285 1.434 . S
C285 C276 1.429 . S
C285 N282 1.350 . S
C285 C284 1.434 . S
C286 C287 1.369 . S
C286 C288 1.419 . S
C286 H290 0.930 . S
C287 C286 1.369 . S
C287 C296 1.429 . S
C288 C286 1.419 . S
C288 C289 1.363 . S
C288 H291 0.929 . S
C289 C288 1.363 . S
C289 C295 1.428 . S
H290 C286 0.930 . S
H291 C288 0.929 . S
S292 N293 1.613 . S
S292 N294 1.610 . S
N293 S292 1.613 . S
N293 C296 1.350 . S
N294 S292 1.610 . S
N294 C295 1.351 . S
C295 C289 1.428 . S
C295 N294 1.351 . S
C295 C296 1.434 . S
C296 C287 1.429 . S
C296 N293 1.350 . S
C296 C295 1.434 . S
C297 C298 1.369 . S
C297 C299 1.419 . S
C297 H301 0.930 . S
C298 C297 1.369 . S
C298 C307 1.429 . S
C299 C297 1.419 . S
C299 C300 1.363 . S
C299 H302 0.929 . S
C300 C299 1.363 . S
C300 C306 1.428 . S
H301 C297 0.930 . S
H302 C299 0.929 . S
S303 N304 1.613 . S
S303 N305 1.610 . S
N304 S303 1.613 . S
N304 C307 1.350 . S
N305 S303 1.610 . S
N305 C306 1.351 . S
C306 C300 1.428 . S
C306 N305 1.351 . S
C306 C307 1.434 . S
C307 C298 1.429 . S
C307 N304 1.350 . S
C307 C306 1.434 . S
C308 C309 1.369 1_545 S
C308 C310 1.419 . S
C308 H312 0.930 . S
C309 C308 1.369 1_565 S
C309 C318 1.429 . S
C310 C308 1.419 . S
C310 C311 1.363 . S
C310 H313 0.929 . S
C311 C310 1.363 . S
C311 C317 1.428 1_545 S
H312 C308 0.930 . S
H313 C310 0.929 . S
S314 N315 1.613 . S
S314 N316 1.610 . S
N315 S314 1.613 . S
N315 C318 1.350 . S
N316 S314 1.610 . S
N316 C317 1.351 . S
C317 C311 1.428 1_565 S
C317 N316 1.351 . S
C317 C318 1.434 . S
C318 C309 1.429 . S
C318 N315 1.350 . S
C318 C317 1.434 . S
C319 C320 1.369 1_565 S
C319 C321 1.419 . S
C319 H323 0.930 . S
C320 C319 1.369 1_545 S
C320 C329 1.429 . S
C321 C319 1.419 . S
C321 C322 1.363 . S
C321 H324 0.929 . S
C322 C321 1.363 . S
C322 C328 1.428 1_565 S
H323 C319 0.930 . S
H324 C321 0.929 . S
S325 N326 1.613 . S
S325 N327 1.610 . S
N326 S325 1.613 . S
N326 C329 1.350 . S
N327 S325 1.610 . S
N327 C328 1.351 . S
C328 C322 1.428 1_545 S
C328 N327 1.351 . S
C328 C329 1.434 . S
C329 C320 1.429 . S
C329 N326 1.350 . S
C329 C328 1.434 . S
C330 C331 1.369 1_545 S
C330 C332 1.419 . S
C330 H334 0.930 . S
C331 C330 1.369 1_565 S
C331 C340 1.429 . S
C332 C330 1.419 . S
C332 C333 1.363 . S
C332 H335 0.929 . S
C333 C332 1.363 . S
C333 C339 1.428 1_545 S
H334 C330 0.930 . S
H335 C332 0.929 . S
S336 N337 1.613 . S
S336 N338 1.610 . S
N337 S336 1.613 . S
N337 C340 1.350 . S
N338 S336 1.610 . S
N338 C339 1.351 . S
C339 C333 1.428 1_565 S
C339 N338 1.351 . S
C339 C340 1.434 . S
C340 C331 1.429 . S
C340 N337 1.350 . S
C340 C339 1.434 . S
C341 C342 1.369 . S
C341 C343 1.419 . S
C341 H345 0.930 . S
C342 C341 1.369 . S
C342 C351 1.429 . S
C343 C341 1.419 . S
C343 C344 1.363 1_545 S
C343 H346 0.929 . S
C344 C343 1.363 1_565 S
C344 C350 1.428 . S
H345 C341 0.930 . S
H346 C343 0.929 . S
S347 N348 1.613 1_565 S
S347 N349 1.610 . S
N348 S347 1.613 1_545 S
N348 C351 1.350 . S
N349 S347 1.610 . S
N349 C350 1.351 . S
C350 C344 1.428 . S
C350 N349 1.351 . S
C350 C351 1.434 1_565 S
C351 C342 1.429 . S
C351 N348 1.350 . S
C351 C350 1.434 1_545 S
C352 C353 1.369 . S
C352 C354 1.419 . S
C352 H356 0.930 . S
C353 C352 1.369 . S
C353 C362 1.429 . S
C354 C352 1.419 . S
C354 C355 1.363 . S
C354 H357 0.929 . S
C355 C354 1.363 . S
C355 C361 1.428 . S
H356 C352 0.930 . S
H357 C354 0.929 . S
S358 N359 1.613 . S
S358 N360 1.610 . S
N359 S358 1.613 . S
N359 C362 1.350 . S
N360 S358 1.610 . S
N360 C361 1.351 . S
C361 C355 1.428 . S
C361 N360 1.351 . S
C361 C362 1.434 . S
C362 C353 1.429 . S
C362 N359 1.350 . S
C362 C361 1.434 . S
C363 C364 1.369 . S
C363 C365 1.419 . S
C363 H367 0.930 . S
C364 C363 1.369 . S
C364 C373 1.429 . S
C365 C363 1.419 . S
C365 C366 1.363 . S
C365 H368 0.929 . S
C366 C365 1.363 . S
C366 C372 1.428 . S
H367 C363 0.930 . S
H368 C365 0.929 . S
S369 N370 1.613 . S
S369 N371 1.610 . S
N370 S369 1.613 . S
N370 C373 1.350 . S
N371 S369 1.610 . S
N371 C372 1.351 . S
C372 C366 1.428 . S
C372 N371 1.351 . S
C372 C373 1.434 . S
C373 C364 1.429 . S
C373 N370 1.350 . S
C373 C372 1.434 . S
C374 C375 1.369 . S
C374 C376 1.419 . S
C374 H378 0.930 . S
C375 C374 1.369 . S
C375 C384 1.429 . S
C376 C374 1.419 . S
C376 C377 1.363 . S
C376 H379 0.929 . S
C377 C376 1.363 . S
C377 C383 1.428 . S
H378 C374 0.930 . S
H379 C376 0.929 . S
S380 N381 1.613 . S
S380 N382 1.610 . S
N381 S380 1.613 . S
N381 C384 1.350 . S
N382 S380 1.610 . S
N382 C383 1.351 . S
C383 C377 1.428 . S
C383 N382 1.351 . S
C383 C384 1.434 . S
C384 C375 1.429 . S
C384 N381 1.350 . S
C384 C383 1.434 . S
C385 C386 1.369 . S
C385 C387 1.419 . S
C385 H389 0.930 . S
C386 C385 1.369 . S
C386 C395 1.429 . S
C387 C385 1.419 . S
C387 C388 1.363 . S
C387 H390 0.929 . S
C388 C387 1.363 . S
C388 C394 1.428 . S
H389 C385 0.930 . S
H390 C387 0.929 . S
S391 N392 1.613 . S
S391 N393 1.610 . S
N392 S391 1.613 . S
N392 C395 1.350 . S
N393 S391 1.610 . S
N393 C394 1.351 . S
C394 C388 1.428 . S
C394 N393 1.351 . S
C394 C395 1.434 . S
C395 C386 1.429 . S
C395 N392 1.350 . S
C395 C394 1.434 . S
C396 C397 1.369 . S
C396 C398 1.419 . S
C396 H400 0.930 . S
C397 C396 1.369 . S
C397 C406 1.429 . S
C398 C396 1.419 . S
C398 C399 1.363 . S
C398 H401 0.929 . S
C399 C398 1.363 . S
C399 C405 1.428 . S
H400 C396 0.930 . S
H401 C398 0.929 . S
S402 N403 1.613 . S
S402 N404 1.610 . S
N403 S402 1.613 . S
N403 C406 1.350 . S
N404 S402 1.610 . S
N404 C405 1.351 . S
C405 C399 1.428 . S
C405 N404 1.351 . S
C405 C406 1.434 . S
C406 C397 1.429 . S
C406 N403 1.350 . S
C406 C405 1.434 . S
C407 C408 1.369 . S
C407 C409 1.419 . S
C407 H411 0.930 . S
C408 C407 1.369 . S
C408 C417 1.429 . S
C409 C407 1.419 . S
C409 C410 1.363 . S
C409 H412 0.929 . S
C410 C409 1.363 . S
C410 C416 1.428 . S
H411 C407 0.930 . S
H412 C409 0.929 . S
S413 N414 1.613 . S
S413 N415 1.610 . S
N414 S413 1.613 . S
N414 C417 1.350 . S
N415 S413 1.610 . S
N415 C416 1.351 . S
C416 C410 1.428 . S
C416 N415 1.351 . S
C416 C417 1.434 . S
C417 C408 1.429 . S
C417 N414 1.350 . S
C417 C416 1.434 . S
C418 C419 1.369 . S
C418 C420 1.419 . S
C418 H422 0.930 . S
C419 C418 1.369 . S
C419 C428 1.429 . S
C420 C418 1.419 . S
C420 C421 1.363 . S
C420 H423 0.929 . S
C421 C420 1.363 . S
C421 C427 1.428 . S
H422 C418 0.930 . S
H423 C420 0.929 . S
S424 N425 1.613 . S
S424 N426 1.610 . S
N425 S424 1.613 . S
N425 C428 1.350 . S
N426 S424 1.610 . S
N426 C427 1.351 . S
C427 C421 1.428 . S
C427 N426 1.351 . S
C427 C428 1.434 . S
C428 C419 1.429 . S
C428 N425 1.350 . S
C428 C427 1.434 . S
C429 C430 1.369 . S
C429 C431 1.419 . S
C429 H433 0.930 . S
C430 C429 1.369 . S
C430 C439 1.429 . S
C431 C429 1.419 . S
C431 C432 1.363 . S
C431 H434 0.929 . S
C432 C431 1.363 . S
C432 C438 1.428 . S
H433 C429 0.930 . S
H434 C431 0.929 . S
S435 N436 1.613 . S
S435 N437 1.610 . S
N436 S435 1.613 . S
N436 C439 1.350 . S
N437 S435 1.610 . S
N437 C438 1.351 . S
C438 C432 1.428 . S
C438 N437 1.351 . S
C438 C439 1.434 . S
C439 C430 1.429 . S
C439 N436 1.350 . S
C439 C438 1.434 . S
C177 C8 1.672 . S
C179 C131 1.688 . S
C190 C95 1.441 . S
C188 C19 1.468 . S
C201 C118 1.552 . S
C199 C30 1.561 . S
C212 C106 1.553 . S
C210 C41 1.559 . S
C223 C175 1.686 . S
C221 C52 1.676 . S
C234 C139 1.443 . S
C232 C63 1.468 . S
C243 C74 1.560 . S
C245 C162 1.554 . S
C256 C150 1.554 . S
C254 C85 1.559 . S
C265 C7 1.633 . S
C267 C172 1.716 . S
C278 C142 1.385 . S
C276 C16 1.304 . S
C287 C29 1.602 . S
C289 C161 1.602 . S
C298 C40 1.545 . S
C300 C147 1.541 . S
C311 C128 1.717 . S
C309 C51 1.637 . S
C320 C60 1.297 . S
C322 C98 1.384 . S
C333 C117 1.602 . S
C331 C73 1.601 . S
C344 C103 1.541 . S
C342 C84 1.546 . S
C355 C153 1.515 . S
C353 C5 1.261 . S
C366 C169 1.517 . S
C364 C18 1.519 . S
C375 C27 1.400 . S
C377 C140 1.500 . S
C388 C164 1.494 . S
C386 C38 1.399 . S
C399 C109 1.515 . S
C397 C49 1.260 . S
C408 C62 1.520 . S
C410 C125 1.516 . S
C419 C71 1.395 . S
C421 C96 1.499 . S
C430 C82 1.388 . S
C432 C120 1.493 . S
