# Generated by pormake.
# Topology soc, (4,6)-cn, num edge types: 1
# Building blocks:
#     Node 0, Type 0, BuildingBlock: ESEHIV_clean_sbu_0, # of connection points: 4
#     Node 1, Type 0, BuildingBlock: ESEHIV_clean_sbu_0, # of connection points: 4
#     Node 2, Type 0, BuildingBlock: ESEHIV_clean_sbu_0, # of connection points: 4
#     Node 3, Type 0, BuildingBlock: ESEHIV_clean_sbu_0, # of connection points: 4
#     Node 4, Type 0, BuildingBlock: ESEHIV_clean_sbu_0, # of connection points: 4
#     Node 5, Type 0, BuildingBlock: ESEHIV_clean_sbu_0, # of connection points: 4
#     Node 6, Type 0, BuildingBlock: ESEHIV_clean_sbu_0, # of connection points: 4
#     Node 7, Type 0, BuildingBlock: ESEHIV_clean_sbu_0, # of connection points: 4
#     Node 8, Type 0, BuildingBlock: ESEHIV_clean_sbu_0, # of connection points: 4
#     Node 9, Type 0, BuildingBlock: ESEHIV_clean_sbu_0, # of connection points: 4
#     Node 10, Type 0, BuildingBlock: ESEHIV_clean_sbu_0, # of connection points: 4
#     Node 11, Type 0, BuildingBlock: ESEHIV_clean_sbu_0, # of connection points: 4
#     Node 12, Type 1, BuildingBlock: PAMTOO_clean_sbu_0, # of connection points: 6
#     Node 13, Type 1, BuildingBlock: PAMTOO_clean_sbu_0, # of connection points: 6
#     Node 14, Type 1, BuildingBlock: PAMTOO_clean_sbu_0, # of connection points: 6
#     Node 15, Type 1, BuildingBlock: PAMTOO_clean_sbu_0, # of connection points: 6
#     Node 16, Type 1, BuildingBlock: PAMTOO_clean_sbu_0, # of connection points: 6
#     Node 17, Type 1, BuildingBlock: PAMTOO_clean_sbu_0, # of connection points: 6
#     Node 18, Type 1, BuildingBlock: PAMTOO_clean_sbu_0, # of connection points: 6
#     Node 19, Type 1, BuildingBlock: PAMTOO_clean_sbu_0, # of connection points: 6
#     Edge 20, Type (0, 1), BuildingBlock: XIVTED_clean_linker_0, # of connection points: 2
#     Edge 21, Type (0, 1), BuildingBlock: XIVTED_clean_linker_0, # of connection points: 2
#     Edge 22, Type (0, 1), BuildingBlock: XIVTED_clean_linker_0, # of connection points: 2
#     Edge 23, Type (0, 1), BuildingBlock: XIVTED_clean_linker_0, # of connection points: 2
#     Edge 24, Type (0, 1), BuildingBlock: XIVTED_clean_linker_0, # of connection points: 2
#     Edge 25, Type (0, 1), BuildingBlock: XIVTED_clean_linker_0, # of connection points: 2
#     Edge 26, Type (0, 1), BuildingBlock: XIVTED_clean_linker_0, # of connection points: 2
#     Edge 27, Type (0, 1), BuildingBlock: XIVTED_clean_linker_0, # of connection points: 2
#     Edge 28, Type (0, 1), BuildingBlock: XIVTED_clean_linker_0, # of connection points: 2
#     Edge 29, Type (0, 1), BuildingBlock: XIVTED_clean_linker_0, # of connection points: 2
#     Edge 30, Type (0, 1), BuildingBlock: XIVTED_clean_linker_0, # of connection points: 2
#     Edge 31, Type (0, 1), BuildingBlock: XIVTED_clean_linker_0, # of connection points: 2
#     Edge 32, Type (0, 1), BuildingBlock: XIVTED_clean_linker_0, # of connection points: 2
#     Edge 33, Type (0, 1), BuildingBlock: XIVTED_clean_linker_0, # of connection points: 2
#     Edge 34, Type (0, 1), BuildingBlock: XIVTED_clean_linker_0, # of connection points: 2
#     Edge 35, Type (0, 1), BuildingBlock: XIVTED_clean_linker_0, # of connection points: 2
#     Edge 36, Type (0, 1), BuildingBlock: XIVTED_clean_linker_0, # of connection points: 2
#     Edge 37, Type (0, 1), BuildingBlock: XIVTED_clean_linker_0, # of connection points: 2
#     Edge 38, Type (0, 1), BuildingBlock: XIVTED_clean_linker_0, # of connection points: 2
#     Edge 39, Type (0, 1), BuildingBlock: XIVTED_clean_linker_0, # of connection points: 2
#     Edge 40, Type (0, 1), BuildingBlock: XIVTED_clean_linker_0, # of connection points: 2
#     Edge 41, Type (0, 1), BuildingBlock: XIVTED_clean_linker_0, # of connection points: 2
#     Edge 42, Type (0, 1), BuildingBlock: XIVTED_clean_linker_0, # of connection points: 2
#     Edge 43, Type (0, 1), BuildingBlock: XIVTED_clean_linker_0, # of connection points: 2
#     Edge 44, Type (0, 1), BuildingBlock: XIVTED_clean_linker_0, # of connection points: 2
#     Edge 45, Type (0, 1), BuildingBlock: XIVTED_clean_linker_0, # of connection points: 2
#     Edge 46, Type (0, 1), BuildingBlock: XIVTED_clean_linker_0, # of connection points: 2
#     Edge 47, Type (0, 1), BuildingBlock: XIVTED_clean_linker_0, # of connection points: 2
#     Edge 48, Type (0, 1), BuildingBlock: XIVTED_clean_linker_0, # of connection points: 2
#     Edge 49, Type (0, 1), BuildingBlock: XIVTED_clean_linker_0, # of connection points: 2
#     Edge 50, Type (0, 1), BuildingBlock: XIVTED_clean_linker_0, # of connection points: 2
#     Edge 51, Type (0, 1), BuildingBlock: XIVTED_clean_linker_0, # of connection points: 2
#     Edge 52, Type (0, 1), BuildingBlock: XIVTED_clean_linker_0, # of connection points: 2
#     Edge 53, Type (0, 1), BuildingBlock: XIVTED_clean_linker_0, # of connection points: 2
#     Edge 54, Type (0, 1), BuildingBlock: XIVTED_clean_linker_0, # of connection points: 2
#     Edge 55, Type (0, 1), BuildingBlock: XIVTED_clean_linker_0, # of connection points: 2
#     Edge 56, Type (0, 1), BuildingBlock: XIVTED_clean_linker_0, # of connection points: 2
#     Edge 57, Type (0, 1), BuildingBlock: XIVTED_clean_linker_0, # of connection points: 2
#     Edge 58, Type (0, 1), BuildingBlock: XIVTED_clean_linker_0, # of connection points: 2
#     Edge 59, Type (0, 1), BuildingBlock: XIVTED_clean_linker_0, # of connection points: 2
#     Edge 60, Type (0, 1), BuildingBlock: XIVTED_clean_linker_0, # of connection points: 2
#     Edge 61, Type (0, 1), BuildingBlock: XIVTED_clean_linker_0, # of connection points: 2
#     Edge 62, Type (0, 1), BuildingBlock: XIVTED_clean_linker_0, # of connection points: 2
#     Edge 63, Type (0, 1), BuildingBlock: XIVTED_clean_linker_0, # of connection points: 2
#     Edge 64, Type (0, 1), BuildingBlock: XIVTED_clean_linker_0, # of connection points: 2
#     Edge 65, Type (0, 1), BuildingBlock: XIVTED_clean_linker_0, # of connection points: 2
#     Edge 66, Type (0, 1), BuildingBlock: XIVTED_clean_linker_0, # of connection points: 2
#     Edge 67, Type (0, 1), BuildingBlock: XIVTED_clean_linker_0, # of connection points: 2
# Relax obj value: 0.107
# Max RMSD: 0.216
# Mean RMSD: 0.145
data_MOF--net-soc--node1-ESEHIV_clean_sbu_0--node2-PAMTOO_clean_sbu_0--edge1-XIVTED_clean_linker_0
_symmetry_space_group_name_H-M    P1
_symmetry_Int_Tables_number       1
_symmetry_cell_setting            triclinic
loop_
_symmetry_equiv_pos_as_xyz
'x, y, z'
_cell_length_a     57.466608
_cell_length_b     45.240429
_cell_length_c     43.152272
_cell_angle_alpha  91.954971
_cell_angle_beta   91.94357
_cell_angle_gamma 70.714176
loop_
_atom_site_label
_atom_site_type_symbol
_atom_site_fract_x
_atom_site_fract_y
_atom_site_fract_z
_atom_type_partial_charge
Cu0 Cu 0.05877 0.0293 0.33149 0.0
N1 N 0.07105 0.05468 0.35786 0.0
N2 N 0.09131 0.08751 0.37266 0.0
C3 C 0.08491 0.07151 0.34875 0.0
C4 C 0.08099 0.08045 0.39781 0.0
C5 C 0.06844 0.06026 0.38859 0.0
O6 O 0.08623 1.00335 0.30651 0.0
C7 C 0.01311 0.07232 0.32868 0.0
O8 O 0.01696 0.06591 0.35826 0.0
H9 H 0.09051 0.07148 0.32506 0.0
H10 H 0.05805 0.05051 0.40323 0.0
N11 N 0.04791 1.00174 0.35363 0.0
N12 N 0.02704 0.96941 0.36375 0.0
C13 C 0.03016 0.99008 0.34377 0.0
C14 C 0.05643 0.98803 0.38079 0.0
C15 C 0.04356 0.96814 0.38714 0.0
C16 C 0.10564 0.99005 0.32276 0.0
O17 O 0.10515 0.99504 0.35292 0.0
H18 H 0.0198 0.99677 0.32226 0.0
H19 H 0.07126 0.99174 0.39473 0.0
O20 O 0.02999 0.0578 0.30986 0.0
H21 H 0.08211 0.08953 0.42114 0.0
H22 H 0.04665 0.95333 0.40707 0.0
Cu23 Cu 0.05026 0.02855 0.71598 0.0
N24 N 0.03764 1.00283 0.69067 0.0
N25 N 0.01592 0.97118 0.67777 0.0
C26 C 0.02235 0.98835 0.70057 0.0
C27 C 0.02772 0.97502 0.65245 0.0
C28 C 0.04121 0.99448 0.66052 0.0
O29 O 0.02265 0.05713 0.73883 0.0
C30 C 0.09572 0.98534 0.72324 0.0
O31 O 0.09411 0.99042 0.69332 0.0
H32 H 0.01575 0.99093 0.72403 0.0
H33 H 0.05285 1.00186 0.64553 0.0
N34 N 0.06342 0.05365 0.69349 0.0
N35 N 0.08677 0.08313 0.68406 0.0
C36 C 0.08101 0.06499 0.70465 0.0
C37 C 0.05765 0.06508 0.66483 0.0
C38 C 0.07205 0.0833 0.65893 0.0
C39 C 1.00402 0.07076 0.72146 0.0
O40 O 1.0053 0.06435 0.69152 0.0
H41 H 0.08904 0.0604 0.72777 0.0
H42 H 0.04385 0.06071 0.64943 0.0
O43 O 0.0775 1.00029 0.74002 0.0
H44 H 0.02694 0.96425 0.62983 0.0
H45 H 0.07178 0.0955 0.63772 0.0
Cu46 Cu 0.30217 0.04048 0.02691 0.0
N47 N 0.27926 0.03141 1.00033 0.0
N48 N 0.26618 1.00297 0.96516 0.0
C49 C 0.28079 1.00243 0.99032 0.0
C50 C 0.25495 0.03349 0.95903 0.0
C51 C 0.26309 0.05106 0.98086 0.0
O52 O 0.31767 1.00323 0.05225 0.0
C53 C 0.3261 0.08063 1.00089 0.0
O54 O 0.32196 0.09635 0.02739 0.0
H55 H 0.29429 0.98141 0.99926 0.0
H56 H 0.25921 0.07614 0.98088 0.0
N57 N 0.28614 0.07274 0.05434 0.0
N58 N 0.28032 0.1047 0.09583 0.0
C59 C 0.2967 0.08169 0.07955 0.0
C60 C 0.26215 0.09034 0.05486 0.0
C61 C 0.25849 0.11018 0.08054 0.0
C62 C 0.302 0.99474 0.06684 0.0
O63 O 0.27851 0.01115 0.06346 0.0
H64 H 0.31601 0.07127 0.08594 0.0
H65 H 0.24826 0.08866 0.03801 0.0
O66 O 0.32211 0.05451 0.99826 0.0
H67 H 0.24306 0.04234 0.93907 0.0
H68 H 0.24123 0.12753 0.08721 0.0
Cu69 Cu 0.08899 0.34031 0.03482 0.0
N70 N 0.10085 0.35674 1.00197 0.0
N71 N 0.1246 0.35898 0.96269 0.0
C72 C 0.12239 0.34301 0.9877 0.0
C73 C 0.10355 0.38367 0.96112 0.0
C74 C 0.08894 0.38222 0.9854 0.0
O75 O 0.11568 0.32318 0.06563 0.0
C76 C 0.05991 0.29888 0.02728 0.0
O77 O 0.0579 0.30048 0.05759 0.0
H78 H 0.13581 0.32116 0.99497 0.0
H79 H 0.07066 0.39816 0.99021 0.0
N80 N 0.06383 0.37158 0.05513 0.0
N81 N 0.02807 0.3917 0.07964 0.0
C82 C 0.0401 0.37292 0.0562 0.0
C83 C 0.06669 0.39117 0.07798 0.0
C84 C 0.0447 0.4036 0.09314 0.0
C85 C 0.13019 0.33892 0.07148 0.0
O86 O 0.12717 0.36434 0.05579 0.0
H87 H 0.03241 0.35817 0.04199 0.0
H88 H 0.08405 0.39415 0.08491 0.0
O89 O 0.0744 0.31091 0.01495 0.0
H90 H 0.09902 0.40143 0.94365 0.0
H91 H 0.04175 0.4185 0.11379 0.0
Cu92 Cu 0.8029 0.02781 0.01699 0.0
N93 N 0.82169 0.04434 0.99292 0.0
N94 N 0.82835 0.07648 0.95896 0.0
C95 C 0.81136 0.06875 0.97447 0.0
C96 C 0.85035 0.0561 0.96799 0.0
C97 C 0.84616 0.03603 0.98885 0.0
O98 O 0.7827 0.06321 0.0429 0.0
C99 C 0.80411 0.98434 0.97141 0.0
O100 O 0.82738 0.97916 0.97928 0.0
H101 H 0.79169 0.08091 0.9729 0.0
H102 H 0.85995 0.01662 0.99983 0.0
N103 N 0.82167 0.99858 0.04512 0.0
N104 N 0.82813 0.96489 0.08365 0.0
C105 C 0.81254 0.97987 0.06081 0.0
C106 C 0.84388 0.99535 0.05837 0.0
C107 C 0.84797 0.97445 0.08211 0.0
C108 C 0.7953 0.07818 0.05749 0.0
O109 O 0.81917 0.06941 0.05345 0.0
H110 H 0.79406 0.97905 0.05689 0.0
H111 H 0.85562 1.00861 0.05257 0.0
O112 O 0.78772 1.00548 0.98668 0.0
H113 H 0.86811 0.05548 0.9598 0.0
H114 H 0.8639 0.96773 0.0977 0.0
Cu115 Cu 0.0171 0.72547 0.02368 0.0
N116 N 1.00256 0.70687 0.99284 0.0
N117 N 0.97814 0.70249 0.95275 0.0
C118 C 0.98485 0.72225 0.97239 0.0
C119 C 0.99244 0.67347 0.96084 0.0
C120 C 0.0075 0.67625 0.98567 0.0
O121 O 0.99461 0.74097 0.058 0.0
C122 C 0.04101 0.77106 0.01733 0.0
O123 O 0.04341 0.77035 0.04772 0.0
H124 H 0.9772 0.74752 0.9717 0.0
H125 H 0.02099 0.65732 0.99773 0.0
N126 N 0.04539 0.69613 0.04037 0.0
N127 N 0.08366 0.68062 0.0609 0.0
C128 C 0.06837 0.69738 0.03863 0.0
C129 C 0.04632 0.67684 0.06377 0.0
C130 C 0.06994 0.66713 0.0764 0.0
C131 C 0.97187 0.75695 0.05497 0.0
O132 O 0.96285 0.76682 0.02742 0.0
H133 H 0.07328 0.71234 0.02296 0.0
H134 H 0.03041 0.67278 0.07302 0.0
O135 O 0.02777 0.75661 1.00378 0.0
H136 H 0.99163 0.65183 0.95013 0.0
H137 H 0.07576 0.65392 0.09737 0.0
Cu138 Cu 0.55454 0.52996 0.86538 0.0
N139 N 0.56999 0.55469 0.8874 0.0
N140 N 0.59297 0.58563 0.89563 0.0
C141 C 0.58158 0.57232 0.87432 0.0
C142 C 0.58814 0.57617 0.92332 0.0
C143 C 0.57388 0.55711 0.91816 0.0
O144 O 0.58015 0.49862 0.8422 0.0
C145 C 0.50993 0.57595 0.8616 0.0
O146 O 0.51558 0.57524 0.8914 0.0
H147 H 0.5824 0.57435 0.84954 0.0
H148 H 0.56727 0.54537 0.93554 0.0
N149 N 0.54272 0.50694 0.89192 0.0
N150 N 0.51958 0.47891 0.90619 0.0
C151 C 0.52169 0.50049 0.88672 0.0
C152 C 0.55446 0.48877 0.9155 0.0
C153 C 0.54016 0.47141 0.92442 0.0
C154 C 0.59351 0.50264 0.8209 0.0
O155 O 0.58782 0.53007 0.80797 0.0
H156 H 0.50909 0.50976 0.86749 0.0
H157 H 0.5727 0.48694 0.92435 0.0
O158 O 0.52557 0.5576 0.84328 0.0
H159 H 0.59465 0.58225 0.94567 0.0
H160 H 0.54498 0.45381 0.94206 0.0
Cu161 Cu 0.55991 0.52453 0.21292 0.0
N162 N 0.54471 0.49862 0.19212 0.0
N163 N 0.51889 0.47129 0.18347 0.0
C164 C 0.52407 0.49373 0.20106 0.0
C165 C 0.53696 0.462 0.16244 0.0
C166 C 0.55287 0.47881 0.16791 0.0
O167 O 0.53422 0.56065 0.22973 0.0
C168 C 0.58578 0.47289 0.25102 0.0
O169 O 0.56767 0.46202 0.244 0.0
H170 H 0.51388 0.5053 0.22117 0.0
H171 H 0.56966 0.47601 0.15579 0.0
N172 N 0.57828 0.53936 0.18634 0.0
N173 N 0.60603 0.56107 0.17236 0.0
C174 C 0.59516 0.55249 0.19616 0.0
C175 C 0.57828 0.53961 0.15518 0.0
C176 C 0.59538 0.55301 0.14648 0.0
C177 C 0.51966 0.57699 0.20914 0.0
O178 O 0.52335 0.56799 0.17992 0.0
H179 H 0.59905 0.55599 0.22045 0.0
H180 H 0.56666 0.53079 0.13989 0.0
O181 O 0.58402 0.50039 0.24305 0.0
H182 H 0.5389 0.44394 0.14468 0.0
H183 H 0.59973 0.55621 0.1229 0.0
Cu184 Cu 0.83826 0.51525 0.51664 0.0
N185 N 0.85679 0.53239 0.49267 0.0
N186 N 0.86795 0.55382 0.45222 0.0
C187 C 0.85342 0.53809 0.46213 0.0
C188 C 0.88086 0.55827 0.47767 0.0
C189 C 0.87381 0.54524 0.50256 0.0
O190 O 0.81823 0.5507 0.54304 0.0
C191 C 0.83767 0.47168 0.47103 0.0
O192 O 0.86126 0.46738 0.47577 0.0
H193 H 0.83998 0.53164 0.44777 0.0
H194 H 0.87968 0.54664 0.52646 0.0
N195 N 0.85907 0.48483 0.54232 0.0
N196 N 0.86989 0.44555 0.57548 0.0
C197 C 0.85294 0.4615 0.55442 0.0
C198 C 0.88095 0.48323 0.55567 0.0
C199 C 0.88763 0.45905 0.57629 0.0
C200 C 0.81607 0.54906 0.57231 0.0
O201 O 0.82318 0.52142 0.58496 0.0
H202 H 0.83541 0.45798 0.54965 0.0
H203 H 0.89083 0.49931 0.55193 0.0
O204 O 0.82218 0.49281 0.48745 0.0
H205 H 0.89339 0.57164 0.47871 0.0
H206 H 0.90374 0.45276 0.5916 0.0
Cu207 Cu 0.60082 0.7969 0.51922 0.0
N208 N 0.62309 0.77464 0.48903 0.0
N209 N 0.65304 0.76148 0.45407 0.0
C210 C 0.64275 0.7808 0.47818 0.0
C211 C 0.63929 0.74247 0.44984 0.0
C212 C 0.62091 0.75067 0.47127 0.0
O213 O 0.61804 0.80951 0.55383 0.0
C214 C 0.57304 0.83756 0.47221 0.0
O215 O 0.59241 0.82518 0.45495 0.0
H216 H 0.64898 0.7995 0.48731 0.0
H217 H 0.60636 0.74062 0.47304 0.0
N218 N 0.58479 0.7713 0.53557 0.0
N219 N 0.55531 0.75785 0.55818 0.0
C220 C 0.56185 0.78143 0.54686 0.0
C221 C 0.59323 0.74023 0.5399 0.0
C222 C 0.5751 0.73185 0.55376 0.0
C223 C 0.62955 0.82916 0.55388 0.0
O224 O 0.62966 0.84449 0.52861 0.0
H225 H 0.55048 0.80585 0.54737 0.0
H226 H 0.61135 0.72482 0.53365 0.0
O227 O 0.57443 0.83111 0.50084 0.0
H228 H 0.6416 0.72471 0.43169 0.0
H229 H 0.57646 0.70836 0.55999 0.0
Cu230 Cu 0.30758 0.53539 0.52394 0.0
N231 N 0.32855 0.55468 0.50683 0.0
N232 N 0.33904 0.58773 0.47691 0.0
C233 C 0.32043 0.58103 0.49012 0.0
C234 C 0.35974 0.56482 0.48603 0.0
C235 C 0.35324 0.54457 0.50458 0.0
O236 O 0.28914 0.56509 0.55472 0.0
C237 C 0.29669 0.51951 0.46375 0.0
O238 O 0.31955 0.51839 0.46015 0.0
H239 H 0.30107 0.59394 0.4862 0.0
H240 H 0.36556 0.52335 0.51462 0.0
N241 N 0.32335 0.49692 0.54372 0.0
N242 N 0.32885 0.4565 0.57539 0.0
C243 C 0.31502 0.48626 0.56859 0.0
C244 C 0.34306 0.47299 0.53438 0.0
C245 C 0.34651 0.44814 0.55381 0.0
C246 C 0.30163 0.56666 0.57924 0.0
O247 O 0.32468 0.54829 0.58164 0.0
H248 H 0.29856 0.49969 0.58074 0.0
H249 H 0.35373 0.47323 0.51428 0.0
O250 O 0.28707 0.52693 0.4903 0.0
H251 H 0.37825 0.56244 0.47925 0.0
H252 H 0.36082 0.42554 0.55197 0.0
Cu253 Cu 0.51206 0.22563 0.52758 0.0
N254 N 0.5366 0.2001 0.50218 0.0
N255 N 0.57115 0.18599 0.47511 0.0
C256 C 0.55761 0.20578 0.4968 0.0
C257 C 0.55812 0.16701 0.46642 0.0
C258 C 0.53678 0.17574 0.48327 0.0
O259 O 0.52793 0.25196 0.55128 0.0
C260 C 0.47028 0.23072 0.49129 0.0
O261 O 0.47703 0.20131 0.49936 0.0
H262 H 0.56225 0.22516 0.50749 0.0
H263 H 0.52215 0.16567 0.48116 0.0
N264 N 0.50188 0.20221 0.55581 0.0
N265 N 0.4819 0.19228 0.59549 0.0
C266 C 0.48647 0.21456 0.57915 0.0
C267 C 0.50737 0.17097 0.55739 0.0
C268 C 0.49491 0.16476 0.58182 0.0
C269 C 0.54227 0.2387 0.57371 0.0
O270 O 0.54408 0.20992 0.5804 0.0
H271 H 0.47842 0.23951 0.58363 0.0
H272 H 0.51941 0.15397 0.54177 0.0
O273 O 0.48329 0.24734 0.50112 0.0
H274 H 0.56342 0.14854 0.44883 0.0
H275 H 0.49551 0.14185 0.58909 0.0
Dy276 Dy 0.27266 0.29331 0.31929 0.0
Dy277 Dy 0.30798 0.31315 0.26922 0.0
C278 C 0.30024 0.24578 0.26614 0.0
O279 O 0.31183 0.27679 0.33763 0.0
O280 O 0.32661 0.3121 0.31556 0.0
O281 O 0.26957 0.26004 0.35209 0.0
O282 O 0.23946 0.30362 0.34574 0.0
O283 O 0.28514 0.35848 0.29122 0.0
O284 O 0.27323 0.34019 0.33513 0.0
O285 O 0.27538 0.31095 0.24092 0.0
O286 O 0.24734 0.31111 0.27811 0.0
O287 O 0.31321 0.34182 0.23267 0.0
O288 O 0.34376 0.30228 0.24903 0.0
C289 C 0.32793 0.29177 0.33704 0.0
O290 O 0.2804 0.25645 0.28267 0.0
O291 O 0.31594 0.26117 0.26415 0.0
C292 C 0.22937 0.25908 0.35863 0.0
C293 C 0.19741 0.2234 0.36023 0.0
C294 C 0.21066 0.22338 0.33335 0.0
C295 C 0.2265 0.24109 0.33256 0.0
C296 C 0.21592 0.25964 0.38522 0.0
C297 C 0.20006 0.24202 0.38603 0.0
C298 C 0.24693 0.27643 0.35891 0.0
C299 C 0.27561 0.36302 0.31898 0.0
C300 C 0.25301 0.31308 0.24905 0.0
C301 C 0.35364 0.34353 0.22672 0.0
C302 C 0.38883 0.37357 0.21829 0.0
C303 C 0.37903 0.37343 0.24777 0.0
C304 C 0.3616 0.3584 0.25198 0.0
C305 C 0.36289 0.34431 0.19728 0.0
C306 C 0.38029 0.35915 0.19307 0.0
C307 C 0.3366 0.32584 0.23034 0.0
H308 H 0.20926 0.20909 0.31319 0.0
H309 H 0.23681 0.24038 0.31181 0.0
H310 H 0.21788 0.2735 0.40551 0.0
H311 H 0.18983 0.24304 0.40689 0.0
H312 H 0.38533 0.38418 0.26769 0.0
H313 H 0.35466 0.35794 0.27493 0.0
H314 H 0.35689 0.333 0.17751 0.0
H315 H 0.38709 0.35929 0.16999 0.0
Dy316 Dy 0.79411 0.25573 0.29592 0.0
Dy317 Dy 0.81101 0.29366 0.24222 0.0
C318 C 0.75432 0.31387 0.26413 0.0
O319 O 0.80128 0.22576 0.25238 0.0
O320 O 0.79016 0.26521 0.21798 0.0
O321 O 0.78264 0.21685 0.30758 0.0
O322 O 0.78913 0.24737 0.34407 0.0
O323 O 0.84445 0.25165 0.25172 0.0
O324 O 0.83496 0.24161 0.30061 0.0
O325 O 0.82271 0.31006 0.28801 0.0
O326 O 0.79273 0.30242 0.31707 0.0
O327 O 0.81309 0.33698 0.22488 0.0
O328 O 0.82594 0.2942 0.19705 0.0
C329 C 0.79346 0.23598 0.22454 0.0
O330 O 0.75835 0.28621 0.27596 0.0
O331 O 0.77229 0.32253 0.25374 0.0
C332 C 0.75909 0.22335 0.35234 0.0
C333 C 0.71734 0.2168 0.3798 0.0
C334 C 0.71495 0.2328 0.35185 0.0
C335 C 0.73567 0.23614 0.33826 0.0
C336 C 0.76147 0.20803 0.38051 0.0
C337 C 0.74078 0.20483 0.39419 0.0
C338 C 0.78139 0.2239 0.33711 0.0
C339 C 0.8508 0.23746 0.27833 0.0
C340 C 0.80897 0.31661 0.31279 0.0
C341 C 0.84392 0.33321 0.18861 0.0
C342 C 0.88276 0.35075 0.16575 0.0
C343 C 0.88679 0.33091 0.19128 0.0
C344 C 0.86749 0.32215 0.20261 0.0
C345 C 0.83976 0.35331 0.16355 0.0
C346 C 0.85896 0.36202 0.15221 0.0
C347 C 0.82337 0.32392 0.19917 0.0
H348 H 0.69708 0.24264 0.34045 0.0
H349 H 0.73348 0.24816 0.31651 0.0
H350 H 0.77945 0.19791 0.3916 0.0
H351 H 0.74326 0.19214 0.41556 0.0
H352 H 0.90494 0.32161 0.20207 0.0
H353 H 0.87099 0.30657 0.22202 0.0
H354 H 0.82163 0.36218 0.15258 0.0
H355 H 0.85511 0.37772 0.13289 0.0
Dy356 Dy 0.80224 0.7507 0.23805 0.0
Dy357 Dy 0.83416 0.77666 0.29299 0.0
C358 C 0.78213 0.76861 0.30651 0.0
O359 O 0.79115 0.80297 0.23398 0.0
O360 O 0.8246 0.81257 0.2571 0.0
O361 O 0.76667 0.75824 0.21564 0.0
O362 O 0.7986 0.72001 0.20007 0.0
O363 O 0.8604 0.76011 0.25351 0.0
O364 O 0.83395 0.75589 0.21328 0.0
O365 O 0.83874 0.72787 0.30518 0.0
O366 O 0.8269 0.70695 0.2601 0.0
O367 O 0.86577 0.76949 0.3238 0.0
O368 O 0.83532 0.81334 0.32583 0.0
C369 C 0.80529 0.82052 0.23837 0.0
O370 O 0.78516 0.74874 0.283 0.0
O371 O 0.79563 0.78702 0.31013 0.0
C372 C 0.75932 0.71342 0.19433 0.0
C373 C 0.72818 0.67643 0.18828 0.0
C374 C 0.72377 0.70326 0.17039 0.0
C375 C 0.73921 0.72147 0.17336 0.0
C376 C 0.76385 0.68682 0.21244 0.0
C377 C 0.74845 0.66842 0.20937 0.0
C378 C 0.77476 0.73368 0.19728 0.0
C379 C 0.85545 0.75692 0.22373 0.0
C380 C 0.83744 0.70401 0.2879 0.0
C381 C 0.87511 0.8153 0.3378 0.0
C382 C 0.90886 0.84863 0.34323 0.0
C383 C 0.90677 0.83219 0.31553 0.0
C384 C 0.88999 0.81573 0.31281 0.0
C385 C 0.87696 0.8318 0.3653 0.0
C386 C 0.89362 0.84835 0.36801 0.0
C387 C 0.8576 0.79785 0.33571 0.0
H388 H 0.70811 0.71059 0.1544 0.0
H389 H 0.73529 0.74211 0.15941 0.0
H390 H 0.77923 0.68032 0.22893 0.0
H391 H 0.75256 0.6478 0.22333 0.0
H392 H 0.91836 0.83161 0.2961 0.0
H393 H 0.88874 0.80319 0.29131 0.0
H394 H 0.86547 0.83189 0.38474 0.0
H395 H 0.89437 0.86119 0.38945 0.0
Dy396 Dy 0.32913 0.81156 0.29623 0.0
Dy397 Dy 0.30734 0.76986 0.24643 0.0
C398 C 0.36559 0.75397 0.25804 0.0
O399 O 0.33546 0.82574 0.24844 0.0
O400 O 0.30378 0.81433 0.22268 0.0
O401 O 0.33565 0.85472 0.30991 0.0
O402 O 0.3453 0.81595 0.34124 0.0
O403 O 0.27304 0.80388 0.26677 0.0
O404 O 0.28954 0.83956 0.2895 0.0
O405 O 0.32318 0.74141 0.28821 0.0
O406 O 0.31292 0.78172 0.32324 0.0
O407 O 0.28909 0.73544 0.23983 0.0
O408 O 0.30403 0.75096 0.20031 0.0
C409 C 0.31988 0.82937 0.22459 0.0
O410 O 0.36185 0.76996 0.28445 0.0
O411 O 0.34763 0.75607 0.23766 0.0
C412 C 0.36843 0.85031 0.34602 0.0
C413 C 0.4118 0.86043 0.36881 0.0
C414 C 0.41302 0.83636 0.34668 0.0
C415 C 0.39148 0.83132 0.33539 0.0
C416 C 0.36706 0.87484 0.36732 0.0
C417 C 0.38853 0.87989 0.37862 0.0
C418 C 0.34568 0.84408 0.33656 0.0
C419 C 0.27053 0.83145 0.27988 0.0
C420 C 0.31846 0.75167 0.31682 0.0
C421 C 0.27139 0.7303 0.1907 0.0
C422 C 0.2314 0.72047 0.15753 0.0
C423 C 0.22814 0.74849 0.1748 0.0
C424 C 0.24802 0.75333 0.1914 0.0
C425 C 0.27483 0.70283 0.17285 0.0
C426 C 0.25504 0.69791 0.15643 0.0
C427 C 0.29216 0.73303 0.20992 0.0
H428 H 0.43065 0.82074 0.33889 0.0
H429 H 0.39284 0.8122 0.31895 0.0
H430 H 0.34937 0.88976 0.37569 0.0
H431 H 0.38691 0.89888 0.39528 0.0
H432 H 0.21011 0.76621 0.17626 0.0
H433 H 0.24506 0.77463 0.20526 0.0
H434 H 0.29278 0.68481 0.17212 0.0
H435 H 0.25823 0.67634 0.14298 0.0
Dy436 Dy 0.28207 0.75032 0.81334 0.0
Dy437 Dy 0.31066 0.781 0.76329 0.0
C438 C 0.25264 0.81273 0.77475 0.0
O439 O 0.29312 0.71765 0.77286 0.0
O440 O 0.29101 0.75329 0.73578 0.0
O441 O 0.25648 0.72522 0.81943 0.0
O442 O 0.27571 0.73754 0.85935 0.0
O443 O 0.33739 0.73464 0.77635 0.0
O444 O 0.32277 0.72997 0.82414 0.0
O445 O 0.31147 0.80561 0.8091 0.0
O446 O 0.28059 0.79567 0.8352 0.0
O447 O 0.33932 0.80053 0.75536 0.0
O448 O 0.31592 0.79464 0.71689 0.0
C449 C 0.28992 0.72611 0.7439 0.0
O450 O 0.25196 0.78706 0.78775 0.0
O451 O 0.27339 0.81665 0.76722 0.0
C452 C 0.23491 0.73665 0.86637 0.0
C453 C 0.18939 0.75508 0.89709 0.0
C454 C 0.20481 0.77365 0.89962 0.0
C455 C 0.22731 0.76462 0.88426 0.0
C456 C 0.21962 0.71806 0.86401 0.0
C457 C 0.19711 0.72717 0.8791 0.0
C458 C 0.2584 0.7264 0.84963 0.0
C459 C 0.3406 0.72226 0.80388 0.0
C460 C 0.29576 0.8114 0.83183 0.0
C461 C 0.35699 0.79179 0.70553 0.0
C462 C 0.39961 0.77874 0.66932 0.0
C463 C 0.40098 0.76541 0.69864 0.0
C464 C 0.37991 0.7718 0.71652 0.0
C465 C 0.35538 0.80418 0.67589 0.0
C466 C 0.3764 0.79766 0.65793 0.0
C467 C 0.33519 0.80232 0.72548 0.0
H468 H 0.19931 0.79538 0.9131 0.0
H469 H 0.23866 0.77956 0.88628 0.0
H470 H 0.2251 0.69639 0.85041 0.0
H471 H 0.18588 0.71208 0.87702 0.0
H472 H 0.4185 0.75096 0.70837 0.0
H473 H 0.38172 0.76186 0.73933 0.0
H474 H 0.33792 0.81963 0.66691 0.0
H475 H 0.37446 0.80781 0.63523 0.0
Dy476 Dy 0.29475 0.25641 0.76209 0.0
Dy477 Dy 0.32392 0.29147 0.81027 0.0
C478 C 0.26739 0.29809 0.81953 0.0
O479 O 0.30419 0.29146 0.73383 0.0
O480 O 0.30815 0.32588 0.77225 0.0
O481 O 0.26599 0.26015 0.72726 0.0
O482 O 0.29107 0.21454 0.74021 0.0
O483 O 0.34998 0.27262 0.7719 0.0
O484 O 0.33508 0.23399 0.75317 0.0
O485 O 0.33262 0.24254 0.82703 0.0
O486 O 0.29962 0.23009 0.80636 0.0
O487 O 0.35519 0.28977 0.83986 0.0
O488 O 0.32331 0.33223 0.83852 0.0
C489 C 0.30588 0.3188 0.74268 0.0
O490 O 0.26526 0.29121 0.78997 0.0
O491 O 0.289 0.29421 0.83278 0.0
C492 C 0.25114 0.21729 0.72194 0.0
C493 C 0.21295 0.19092 0.71666 0.0
C494 C 0.22309 0.19528 0.74596 0.0
C495 C 0.24202 0.20843 0.74859 0.0
C496 C 0.24091 0.21334 0.69281 0.0
C497 C 0.22201 0.20031 0.69016 0.0
C498 C 0.2717 0.22987 0.72362 0.0
C499 C 0.35234 0.24722 0.75489 0.0
C500 C 0.31815 0.22526 0.82648 0.0
C501 C 0.36222 0.33795 0.85118 0.0
C502 C 0.39521 0.37174 0.86182 0.0
C503 C 0.40197 0.34427 0.84317 0.0
C504 C 0.38559 0.32755 0.83781 0.0
C505 C 0.35522 0.36582 0.86907 0.0
C506 C 0.3715 0.38265 0.87425 0.0
C507 C 0.34575 0.31892 0.84926 0.0
H508 H 0.21635 0.18863 0.76685 0.0
H509 H 0.24966 0.21144 0.77131 0.0
H510 H 0.2478 0.21997 0.67199 0.0
H511 H 0.21492 0.19689 0.66723 0.0
H512 H 0.42 0.33556 0.83294 0.0
H513 H 0.39147 0.30615 0.82382 0.0
H514 H 0.33736 0.37413 0.8798 0.0
H515 H 0.36585 0.40358 0.88893 0.0
Dy516 Dy 0.81903 0.31279 0.8016 0.0
Dy517 Dy 0.78962 0.27904 0.7505 0.0
C518 C 0.84773 0.24612 0.76648 0.0
O519 O 0.81202 0.33884 0.75769 0.0
O520 O 0.81504 0.29722 0.72494 0.0
O521 O 0.84564 0.3368 0.80981 0.0
O522 O 0.82516 0.32866 0.84807 0.0
O523 O 0.764 0.32721 0.76032 0.0
O524 O 0.77837 0.3367 0.80869 0.0
O525 O 0.78393 0.26429 0.79814 0.0
O526 O 0.81865 0.26919 0.82246 0.0
O527 O 0.77013 0.24656 0.73823 0.0
O528 O 0.77514 0.27732 0.70373 0.0
C529 C 0.81731 0.32483 0.73053 0.0
O530 O 0.84891 0.27179 0.78099 0.0
O531 O 0.82687 0.2431 0.75575 0.0
C532 C 0.86631 0.32855 0.85886 0.0
C533 C 0.91069 0.31213 0.89501 0.0
C534 C 0.89428 0.29505 0.8969 0.0
C535 C 0.87236 0.30307 0.87891 0.0
C536 C 0.88264 0.34557 0.857 0.0
C537 C 0.90457 0.33746 0.87476 0.0
C538 C 0.84317 0.3381 0.83983 0.0
C539 C 0.76094 0.34283 0.78687 0.0
C540 C 0.80082 0.25717 0.8206 0.0
C541 C 0.73956 0.26206 0.69778 0.0
C542 C 0.69154 0.27012 0.67318 0.0
C543 C 0.69509 0.27882 0.70422 0.0
C544 C 0.71887 0.27492 0.71638 0.0
C545 C 0.73606 0.25385 0.66677 0.0
C546 C 0.71237 0.25784 0.65458 0.0
C547 C 0.76498 0.25648 0.70997 0.0
H548 H 0.89851 0.27526 0.91203 0.0
H549 H 0.86019 0.28936 0.8807 0.0
H550 H 0.87837 0.36537 0.84183 0.0
H551 H 0.91654 0.35144 0.87302 0.0
H552 H 0.67949 0.28867 0.71914 0.0
H553 H 0.7211 0.28169 0.74033 0.0
H554 H 0.75177 0.24389 0.652 0.0
H555 H 0.71046 0.25044 0.63077 0.0
Dy556 Dy 0.78042 0.77013 0.78605 0.0
Dy557 Dy 0.81259 0.79496 0.7371 0.0
C558 C 0.80038 0.731 0.72262 0.0
O559 O 0.81597 0.76734 0.81001 0.0
O560 O 0.84056 0.76175 0.76818 0.0
O561 O 0.77924 0.73583 0.819 0.0
O562 O 0.74763 0.77796 0.8125 0.0
O563 O 0.80954 0.82539 0.77999 0.0
O564 O 0.77422 0.82068 0.7989 0.0
O565 O 0.77279 0.81729 0.72321 0.0
O566 O 0.75563 0.78368 0.74455 0.0
O567 O 0.81713 0.83293 0.71194 0.0
O568 O 0.84305 0.7859 0.70589 0.0
C569 C 0.83787 0.75933 0.79798 0.0
O570 O 0.79556 0.72963 0.75214 0.0
O571 O 0.80379 0.75591 0.71146 0.0
C572 C 0.74011 0.73389 0.83199 0.0
C573 C 0.70801 0.70034 0.84375 0.0
C574 C 0.71646 0.7009 0.81356 0.0
C575 C 0.73246 0.71757 0.80772 0.0
C576 C 0.73165 0.73353 0.86194 0.0
C577 C 0.71575 0.71696 0.8678 0.0
C578 C 0.75678 0.75168 0.82708 0.0
C579 C 0.79076 0.83498 0.79871 0.0
C580 C 0.75474 0.80561 0.72497 0.0
C581 C 0.85792 0.82819 0.69893 0.0
C582 C 0.89504 0.856 0.69489 0.0
C583 C 0.88064 0.86075 0.72156 0.0
C584 C 0.86224 0.84693 0.72357 0.0
C585 C 0.87264 0.82273 0.67274 0.0
C586 C 0.89104 0.83642 0.67073 0.0
C587 C 0.83749 0.81537 0.69918 0.0
H588 H 0.71096 0.68815 0.7946 0.0
H589 H 0.73888 0.71768 0.78441 0.0
H590 H 0.7373 0.74619 0.88088 0.0
H591 H 0.70926 0.71752 0.89116 0.0
H592 H 0.88307 0.87586 0.7405 0.0
H593 H 0.85109 0.85141 0.74407 0.0
H594 H 0.86963 0.80823 0.65354 0.0
H595 H 0.90207 0.83175 0.65014 0.0
H596 H 0.11917 0.10156 0.41934 0.0
H597 H 0.16648 0.21225 0.31466 0.0
H598 H 0.09762 0.11951 0.3232 0.0
H599 H 0.19155 0.18936 0.40904 0.0
H600 H 0.14044 0.17932 0.31761 0.0
H601 H 0.14467 0.13514 0.41653 0.0
C602 C 0.11966 0.11268 0.39768 0.0
C603 C 0.10622 0.10759 0.37146 0.0
C604 C 0.15162 0.18153 0.33769 0.0
C605 C 0.1356 0.14596 0.36797 0.0
C606 C 0.16661 0.20021 0.33597 0.0
C607 C 0.18125 0.20367 0.36165 0.0
C608 C 0.15122 0.16613 0.3653 0.0
C609 C 0.18033 0.18783 0.3888 0.0
C610 C 0.13436 0.13174 0.39603 0.0
C611 C 0.10789 0.12236 0.34389 0.0
N612 N 0.1656 0.16978 0.38989 0.0
N613 N 0.12228 0.14086 0.34288 0.0
H614 H 0.97434 0.10137 0.36498 0.0
H615 H 0.888 0.21187 0.23617 0.0
H616 H 0.99809 0.09868 0.27075 0.0
H617 H 0.87133 0.21184 0.33297 0.0
H618 H 0.92834 0.17161 0.24649 0.0
H619 H 0.93642 0.14206 0.35168 0.0
C620 C 0.97161 0.10932 0.34131 0.0
C621 C 0.98962 0.09647 0.31899 0.0
C622 C 0.91581 0.18062 0.26538 0.0
C623 C 0.94549 0.14391 0.30338 0.0
C624 C 0.89284 0.20367 0.25956 0.0
C625 C 0.87611 0.2152 0.2837 0.0
C626 C 0.92197 0.16918 0.29552 0.0
C627 C 0.88338 0.20363 0.3135 0.0
C628 C 0.94978 0.13278 0.3337 0.0
C629 C 0.98471 0.10789 0.2887 0.0
N630 N 0.90558 0.18136 0.31844 0.0
N631 N 0.96305 0.13105 0.28173 0.0
H632 H 1.00451 0.95717 0.31053 0.0
H633 H 0.93742 0.85355 0.39422 0.0
H634 H 0.01072 0.94107 0.40902 0.0
H635 H 0.92144 0.88322 0.29953 0.0
H636 H 0.96614 0.88299 0.39934 0.0
H637 H 0.97586 0.9278 0.30541 0.0
C638 C 0.9998 0.94771 0.33117 0.0
C639 C 0.01012 0.95185 0.36033 0.0
C640 C 0.95634 0.88308 0.37745 0.0
C641 C 0.97742 0.91758 0.35442 0.0
C642 C 0.93981 0.86639 0.37453 0.0
C643 C 0.92683 0.86595 0.34641 0.0
C644 C 0.96009 0.89941 0.35205 0.0
C645 C 0.9312 0.88252 0.32153 0.0
C646 C 0.98348 0.93073 0.32815 0.0
C647 C 1.00354 0.93831 0.38603 0.0
N648 N 0.94743 0.89857 0.32495 0.0
N649 N 0.98764 0.92181 0.38246 0.0
H650 H 0.11321 0.94397 0.27658 0.0
H651 H 0.25938 0.88878 0.30853 0.0
H652 H 0.15118 0.98932 0.33978 0.0
H653 H 0.22485 0.82917 0.25885 0.0
H654 H 0.21951 0.92868 0.3137 0.0
H655 H 0.15343 0.90502 0.26296 0.0
C656 C 0.13002 0.94612 0.28698 0.0
C657 C 0.12899 0.96981 0.30931 0.0
C658 C 0.22048 0.90692 0.30167 0.0
C659 C 0.1746 0.92559 0.29427 0.0
C660 C 0.2434 0.88392 0.2987 0.0
C661 C 0.24564 0.85526 0.2834 0.0
C662 C 0.19926 0.9016 0.28935 0.0
C663 C 0.22401 0.85077 0.27108 0.0
C664 C 0.15287 0.92377 0.2795 0.0
C665 C 0.15116 0.97135 0.32254 0.0
N666 N 0.20166 0.8737 0.27438 0.0
N667 N 0.17292 0.94959 0.3149 0.0
H668 H 0.10222 0.94662 0.77347 0.0
H669 H 0.2462 0.86498 0.74118 0.0
H670 H 0.14142 0.97187 0.70094 0.0
H671 H 0.20593 0.82065 0.79562 0.0
H672 H 0.20844 0.90847 0.73248 0.0
H673 H 0.14061 0.90466 0.7884 0.0
C674 C 0.11894 0.94365 0.76106 0.0
C675 C 0.11867 0.96259 0.73586 0.0
C676 C 0.20776 0.88926 0.74632 0.0
C677 C 0.16229 0.91502 0.75262 0.0
C678 C 0.2294 0.8643 0.75133 0.0
C679 C 0.22931 0.83887 0.76899 0.0
C680 C 0.18566 0.88914 0.75915 0.0
C681 C 0.20684 0.8396 0.78158 0.0
C682 C 0.14073 0.91961 0.76938 0.0
C683 C 0.14074 0.95764 0.72035 0.0
N684 N 0.18588 0.86436 0.77643 0.0
N685 N 0.16154 0.93443 0.72894 0.0
H686 H 0.08781 0.13517 0.655 0.0
H687 H 0.20968 0.14055 0.74777 0.0
H688 H 0.12682 0.06784 0.72324 0.0
H689 H 0.17194 0.20678 0.67799 0.0
H690 H 0.17862 0.11471 0.74033 0.0
H691 H 0.11803 0.16219 0.66351 0.0
C692 C 0.10276 0.12594 0.67165 0.0
C693 C 0.10465 0.09917 0.68846 0.0
C694 C 0.17709 0.13494 0.72668 0.0
C695 C 0.13926 0.13025 0.69859 0.0
C696 C 0.19474 0.14987 0.7311 0.0
C697 C 0.1935 0.17588 0.71345 0.0
C698 C 0.15797 0.14607 0.70446 0.0
C699 C 0.17387 0.18656 0.69182 0.0
C700 C 0.11995 0.14151 0.67664 0.0
C701 C 0.12432 0.0886 0.71006 0.0
N702 N 0.15693 0.17161 0.68792 0.0
N703 N 0.14081 0.10414 0.71447 0.0
H704 H 0.99774 0.1115 0.77228 0.0
H705 H 0.85362 0.19218 0.73246 0.0
H706 H 0.95807 0.08275 0.69703 0.0
H707 H 0.89436 0.23797 0.79126 0.0
H708 H 0.89114 0.14788 0.72552 0.0
H709 H 0.95936 0.15379 0.78602 0.0
C710 C 0.98092 0.11377 0.75902 0.0
C711 C 0.98107 0.09375 0.73339 0.0
C712 C 0.89195 0.16758 0.73997 0.0
C713 C 0.93743 0.14172 0.7488 0.0
C714 C 0.87045 0.19299 0.74397 0.0
C715 C 0.87076 0.21911 0.76229 0.0
C716 C 0.91412 0.16794 0.75445 0.0
C717 C 0.89326 0.2185 0.77668 0.0
C718 C 0.95913 0.13799 0.76668 0.0
C719 C 0.95886 0.09782 0.7168 0.0
N720 N 0.91407 0.19334 0.77243 0.0
N721 N 0.93805 0.12127 0.72474 0.0
H722 H 0.00635 0.94486 0.72942 0.0
H723 H 0.90551 0.88243 0.64312 0.0
H724 H 0.98806 0.95596 0.63174 0.0
H725 H 0.92694 0.86651 0.7396 0.0
H726 H 0.93584 0.90902 0.63844 0.0
H727 H 0.97741 0.91613 0.73358 0.0
C728 C 0.99619 0.94138 0.70883 0.0
C729 C 0.99958 0.95308 0.6802 0.0
C730 C 0.93397 0.89965 0.66062 0.0
C731 C 0.96645 0.91985 0.68477 0.0
C732 C 0.91673 0.88426 0.66329 0.0
C733 C 0.91366 0.87205 0.69181 0.0
C734 C 0.94828 0.90303 0.68666 0.0
C735 C 0.92842 0.87582 0.71725 0.0
C736 C 0.97975 0.92478 0.7112 0.0
C737 C 0.98622 0.94722 0.65422 0.0
N738 N 0.94505 0.89096 0.71407 0.0
N739 N 0.97018 0.93116 0.65716 0.0
H740 H 0.25 0.12809 0.14372 0.0
H741 H 0.33325 0.22127 0.21961 0.0
H742 H 0.32218 0.11767 0.11022 0.0
H743 H 0.27245 0.20723 0.26613 0.0
H744 H 0.33095 0.18201 0.18023 0.0
H745 H 0.25835 0.15711 0.18916 0.0
C746 C 0.26761 0.13192 0.14602 0.0
C747 C 0.28538 0.12066 0.12323 0.0
C748 C 0.3184 0.18721 0.19938 0.0
C749 C 0.29515 0.15372 0.175 0.0
C750 C 0.31977 0.20953 0.22192 0.0
C751 C 0.30277 0.21794 0.24594 0.0
C752 C 0.29977 0.17356 0.2008 0.0
C753 C 0.2857 0.2019 0.24777 0.0
C754 C 0.27248 0.14821 0.17203 0.0
C755 C 0.30808 0.12583 0.12744 0.0
N756 N 0.2844 0.18086 0.22525 0.0
N757 N 0.31223 0.14231 0.15268 0.0
H758 H 0.01434 0.40001 0.13999 0.0
H759 H 0.89268 0.35439 0.10461 0.0
H760 H 0.98929 0.38262 0.04792 0.0
H761 H 0.91967 0.36651 0.1971 0.0
H762 H 0.92623 0.36866 0.08344 0.0
H763 H 0.97779 0.39278 0.16112 0.0
C764 C 1.00097 0.39525 0.12411 0.0
C765 C 1.00502 0.3918 0.09205 0.0
C766 C 0.9248 0.36831 0.10837 0.0
C767 C 0.96326 0.38284 0.11628 0.0
C768 C 0.90556 0.36029 0.12051 0.0
C769 C 0.90328 0.35928 0.15273 0.0
C770 C 0.94201 0.37543 0.12854 0.0
C771 C 0.92083 0.36663 0.17213 0.0
C772 C 0.98018 0.39079 0.13627 0.0
C773 C 0.98712 0.3851 0.07277 0.0
N774 N 0.93944 0.37439 0.15973 0.0
N775 N 0.96713 0.38067 0.08519 0.0
H776 H 0.84581 0.95799 0.14304 0.0
H777 H 0.77992 0.83393 0.18262 0.0
H778 H 0.79837 0.92917 0.07789 0.0
H779 H 0.82433 0.86784 0.24803 0.0
H780 H 0.78306 0.87197 0.14529 0.0
H781 H 0.83612 0.92696 0.18259 0.0
C782 C 0.8335 0.94495 0.13696 0.0
C783 C 0.82302 0.94604 0.10702 0.0
C784 C 0.79181 0.87136 0.16799 0.0
C785 C 0.81149 0.91072 0.15242 0.0
C786 C 0.78981 0.84986 0.18941 0.0
C787 C 0.80207 0.84751 0.21837 0.0
C788 C 0.80618 0.89052 0.17565 0.0
C789 C 0.81481 0.86857 0.22584 0.0
C790 C 0.82774 0.92746 0.15967 0.0
C791 C 0.80674 0.92914 0.10072 0.0
N792 N 0.81675 0.88891 0.20451 0.0
N793 N 0.80156 0.91205 0.12318 0.0
H794 H 0.12037 0.6393 0.09426 0.0
H795 H 0.19415 0.76058 0.12275 0.0
H796 H 0.09978 0.72993 0.05243 0.0
H797 H 0.22033 0.66601 0.15579 0.0
H798 H 0.15928 0.74958 0.09683 0.0
H799 H 0.1574 0.64805 0.11659 0.0
C800 C 0.12371 0.66088 0.08955 0.0
C801 C 0.10686 0.68383 0.07138 0.0
C802 C 0.17271 0.73118 0.10964 0.0
C803 C 0.14908 0.69415 0.09698 0.0
C804 C 0.19252 0.73754 0.12461 0.0
C805 C 0.21019 0.7142 0.14143 0.0
C806 C 0.17039 0.70132 0.11172 0.0
C807 C 0.2073 0.6846 0.14276 0.0
C808 C 0.14486 0.66587 0.10225 0.0
C809 C 0.11226 0.71132 0.06585 0.0
N810 N 0.18774 0.67906 0.12823 0.0
N811 N 0.13275 0.71577 0.07877 0.0
H812 H 0.26736 0.9999 0.90247 0.0
H813 H 0.27833 0.82001 0.89048 0.0
H814 H 0.26911 0.94539 0.98303 0.0
H815 H 0.30661 0.86452 0.82083 0.0
H816 H 0.26963 0.86747 0.92308 0.0
H817 H 0.27533 0.95232 0.86982 0.0
C818 C 0.26895 0.97799 0.91314 0.0
C819 C 0.26752 0.97638 0.94537 0.0
C820 C 0.27792 0.86673 0.90077 0.0
C821 C 0.27691 0.92214 0.90849 0.0
C822 C 0.28292 0.8397 0.8822 0.0
C823 C 0.29329 0.83838 0.85301 0.0
C824 C 0.28289 0.8928 0.8898 0.0
C825 C 0.29883 0.86452 0.84333 0.0
C826 C 0.27382 0.95086 0.89463 0.0
C827 C 0.27017 0.9474 0.95823 0.0
N828 N 0.29332 0.89087 0.8616 0.0
N829 N 0.27471 0.92135 0.93974 0.0
H830 H 0.17273 0.32907 0.97675 0.0
H831 H 0.21801 0.31636 0.80199 0.0
H832 H 0.12302 0.37005 0.90091 0.0
H833 H 0.26661 0.30315 0.88264 0.0
H834 H 0.18254 0.33197 0.83649 0.0
H835 H 0.20708 0.31466 0.94118 0.0
C836 C 0.16904 0.33492 0.95256 0.0
C837 C 0.14497 0.35078 0.94181 0.0
C838 C 0.20101 0.32575 0.8465 0.0
C839 C 0.18427 0.33438 0.90079 0.0
C840 C 0.22125 0.3168 0.82685 0.0
C841 C 0.24538 0.30848 0.83936 0.0
C842 C 0.20499 0.32593 0.87884 0.0
C843 C 0.24842 0.30946 0.8718 0.0
C844 C 0.18867 0.32687 0.93226 0.0
C845 C 0.14132 0.35811 0.91022 0.0
N846 N 0.22855 0.31783 0.89031 0.0
N847 N 0.16074 0.3497 0.89076 0.0
H848 H 0.78859 0.09934 0.92049 0.0
H849 H 0.82993 0.2427 0.87258 0.0
H850 H 0.85716 0.11202 0.95015 0.0
H851 H 0.7743 0.21608 0.82006 0.0
H852 H 0.83594 0.19876 0.90609 0.0
H853 H 0.7797 0.14502 0.88751 0.0
C854 C 0.80175 0.11178 0.92005 0.0
C855 C 0.82363 0.10202 0.93812 0.0
C856 C 0.82236 0.2025 0.88731 0.0
C857 C 0.81352 0.15416 0.90072 0.0
C858 C 0.81879 0.22774 0.86816 0.0
C859 C 0.80172 0.23295 0.84316 0.0
C860 C 0.80873 0.18223 0.8817 0.0
C861 C 0.78768 0.21289 0.83899 0.0
C862 C 0.79671 0.1377 0.90117 0.0
C863 C 0.84022 0.11862 0.9364 0.0
N864 N 0.79158 0.18822 0.85804 0.0
N865 N 0.83473 0.14401 0.9182 0.0
H866 H 0.93545 0.75098 0.9556 0.0
H867 H 0.88641 0.72615 0.78487 0.0
H868 H 0.9761 0.67313 0.89713 0.0
H869 H 0.83889 0.77173 0.85997 0.0
H870 H 0.92169 0.7117 0.822 0.0
H871 H 0.90201 0.76478 0.9167 0.0
C872 C 0.93741 0.73694 0.93441 0.0
C873 C 0.95857 0.71088 0.92956 0.0
C874 C 0.90347 0.72479 0.83019 0.0
C875 C 0.92031 0.72653 0.88486 0.0
C876 C 0.8834 0.73312 0.80906 0.0
C877 C 0.85965 0.75001 0.81936 0.0
C878 C 0.89974 0.73408 0.86156 0.0
C879 C 0.85679 0.75846 0.85097 0.0
C880 C 0.91825 0.74468 0.91231 0.0
C881 C 0.95998 0.69324 0.90182 0.0
N882 N 0.87657 0.75059 0.87083 0.0
N883 N 0.94113 0.70147 0.88036 0.0
H884 H 0.17223 0.35356 0.07495 0.0
H885 H 0.20796 0.3033 0.25083 0.0
H886 H 0.13167 0.30673 0.12547 0.0
H887 H 0.25514 0.32935 0.18918 0.0
H888 H 0.17848 0.30648 0.20726 0.0
H889 H 0.20173 0.34627 0.11812 0.0
C890 C 0.16964 0.34146 0.09512 0.0
C891 C 0.14943 0.33073 0.09655 0.0
C892 C 0.19532 0.31144 0.20339 0.0
C893 C 0.18318 0.32268 0.14673 0.0
C894 C 0.21207 0.30987 0.22828 0.0
C895 C 0.23409 0.31619 0.22379 0.0
C896 C 0.20052 0.31969 0.17391 0.0
C897 C 0.2385 0.32425 0.19392 0.0
C898 C 0.18654 0.33731 0.11986 0.0
C899 C 0.14711 0.31516 0.12332 0.0
N900 N 0.22191 0.32586 0.17033 0.0
N901 N 0.16365 0.31186 0.14754 0.0
H902 H 0.07951 0.79044 0.03825 0.0
H903 H 0.14494 0.75267 0.87437 0.0
H904 H 0.0447 0.76942 0.95405 0.0
H905 H 0.17919 0.77853 0.95664 0.0
H906 H 0.10666 0.76375 0.90234 0.0
H907 H 0.11422 0.79225 1.008 0.0
C908 C 0.07886 0.78687 0.01333 0.0
C909 C 0.05921 0.77937 0.99879 0.0
C910 C 0.12245 0.76727 0.91428 0.0
C911 C 0.09915 0.78103 0.96401 0.0
C912 C 0.14439 0.76076 0.89834 0.0
C913 C 0.16543 0.76433 0.91325 0.0
C914 C 0.12145 0.77723 0.94556 0.0
C915 C 0.16343 0.7755 0.94418 0.0
C916 C 0.09881 0.78773 0.99608 0.0
C917 C 0.05949 0.775 0.96639 0.0
N918 N 0.14194 0.78123 0.9594 0.0
N919 N 0.07925 0.7755 0.95021 0.0
H920 H 0.31513 0.0701 0.93976 0.0
H921 H 0.34843 0.2163 0.87825 0.0
H922 H 0.34486 0.12876 0.99839 0.0
H923 H 0.29737 0.17839 0.82953 0.0
H924 H 0.35358 0.1781 0.91876 0.0
H925 H 0.31521 0.10293 0.8956 0.0
C926 C 0.3222 0.08943 0.94324 0.0
C927 C 0.33005 0.09662 0.97291 0.0
C928 C 0.34134 0.17802 0.89914 0.0
C929 C 0.32998 0.13444 0.92244 0.0
C930 C 0.33841 0.1998 0.87586 0.0
C931 C 0.32233 0.20078 0.85033 0.0
C932 C 0.32832 0.15662 0.89694 0.0
C933 C 0.30987 0.1787 0.84878 0.0
C934 C 0.32198 0.10836 0.91807 0.0
C935 C 0.33862 0.12231 0.97602 0.0
N936 N 0.31312 0.15755 0.87172 0.0
N937 N 0.33833 0.14024 0.95119 0.0
H938 H 0.0578 0.29441 0.96378 0.0
H939 H 0.91789 0.2955 0.95633 0.0
H940 H 0.01775 0.28828 0.0448 0.0
H941 H 0.95666 0.31045 0.87766 0.0
H942 H 0.95572 0.28587 0.98812 0.0
H943 H 0.02271 0.29272 0.93114 0.0
C944 C 0.0418 0.29216 0.97474 0.0
C945 C 0.04077 0.29169 1.0072 0.0
C946 C 0.95598 0.29106 0.96385 0.0
C947 C 1.00016 0.29021 0.96975 0.0
C948 C 0.9344 0.29641 0.94562 0.0
C949 C 0.93396 0.30409 0.91426 0.0
C950 C 0.97739 0.2932 0.95065 0.0
C951 C 0.95594 0.30518 0.90181 0.0
C952 C 0.02167 0.29138 0.95604 0.0
C953 C 0.01946 0.28871 0.01993 0.0
N954 N 0.97664 0.29994 0.92001 0.0
N955 N 0.99994 0.28842 1.00122 0.0
H956 H 0.83332 0.96236 0.92243 0.0
H957 H 0.75637 0.85976 0.84417 0.0
H958 H 0.76285 0.96619 0.95708 0.0
H959 H 0.82217 0.86913 0.80663 0.0
H960 H 0.75684 0.89926 0.88452 0.0
H961 H 0.82795 0.92939 0.8792 0.0
C962 C 0.81655 0.95636 0.92088 0.0
C963 C 0.79858 0.96699 0.94368 0.0
C964 C 0.77102 0.89284 0.86727 0.0
C965 C 0.79234 0.92843 0.89368 0.0
C966 C 0.77079 0.87027 0.84416 0.0
C967 C 0.78934 0.86085 0.82185 0.0
C968 C 0.78999 0.90607 0.86826 0.0
C969 C 0.80751 0.87539 0.82322 0.0
C970 C 0.81348 0.93745 0.896 0.0
C971 C 0.77715 0.9586 0.94004 0.0
N972 N 0.80743 0.89697 0.84601 0.0
N973 N 0.77474 0.93949 0.91568 0.0
H974 H 0.92153 0.78174 0.05423 0.0
H975 H 0.9048 0.75063 0.23255 0.0
H976 H 0.98377 0.74038 0.11584 0.0
H977 H 0.8478 0.76458 0.16136 0.0
H978 H 0.93374 0.75296 0.19267 0.0
H979 H 0.89386 0.78294 0.09621 0.0
C980 C 0.92943 0.77318 0.07667 0.0
C981 C 0.95507 0.76077 0.08137 0.0
C982 C 0.91489 0.75542 0.18592 0.0
C983 C 0.92331 0.76194 0.12973 0.0
C984 C 0.89837 0.75406 0.20863 0.0
C985 C 0.87383 0.75712 0.20036 0.0
C986 C 0.90666 0.76037 0.15484 0.0
C987 C 0.86654 0.76175 0.16897 0.0
C988 C 0.91357 0.77372 0.10063 0.0
C989 C 0.96413 0.75004 0.11109 0.0
N990 N 0.88279 0.76333 0.14752 0.0
N991 N 0.94828 0.75079 0.13413 0.0
H992 H 0.34425 0.96866 0.10346 0.0
H993 H 0.28945 0.8434 0.17323 0.0
H994 H 0.27464 0.95765 0.07627 0.0
H995 H 0.35018 0.86542 0.21811 0.0
H996 H 0.28799 0.88041 0.13311 0.0
H997 H 0.35095 0.92629 0.14098 0.0
C998 C 0.33062 0.95704 0.105 0.0
C999 C 0.30881 0.9668 0.08678 0.0
C1000 C 0.30172 0.8772 0.15164 0.0
C1001 C 0.31626 0.9186 0.12945 0.0
C1002 C 0.3026 0.85592 0.17468 0.0
C1003 C 0.31987 0.85125 0.1994 0.0
C1004 C 0.31826 0.89422 0.15294 0.0
C1005 C 0.33645 0.86829 0.19964 0.0
C1006 C 0.33433 0.93307 0.12655 0.0
C1007 C 0.29164 0.95114 0.08996 0.0
N1008 N 0.3352 0.88908 0.17684 0.0
N1009 N 0.29571 0.92801 0.11076 0.0
H1010 H 0.78582 0.14021 0.0489 0.0
H1011 H 0.79379 0.17553 0.23096 0.0
H1012 H 0.7845 0.07446 0.11799 0.0
H1013 H 0.78324 0.24607 0.16215 0.0
H1014 H 0.78827 0.1392 0.19028 0.0
H1015 H 0.78159 0.18051 0.08981 0.0
C1016 C 0.78363 0.13466 0.07263 0.0
C1017 C 0.78473 0.10425 0.07998 0.0
C1018 C 0.78699 0.16268 0.18407 0.0
C1019 C 0.7813 0.14977 0.12732 0.0
C1020 C 0.79024 0.18348 0.20733 0.0
C1021 C 0.78915 0.214 0.20009 0.0
C1022 C 0.7828 0.1722 0.1531 0.0
C1023 C 0.78433 0.22283 0.16896 0.0
C1024 C 0.78156 0.15755 0.09607 0.0
C1025 C 0.78295 0.09789 0.11126 0.0
N1026 N 0.78154 0.20203 0.14668 0.0
N1027 N 0.78161 0.1203 0.13377 0.0
H1028 H 0.63125 0.59117 0.9314 0.0
H1029 H 0.66817 0.69639 0.80896 0.0
H1030 H 0.59099 0.62113 0.84549 0.0
H1031 H 0.70923 0.66434 0.89393 0.0
H1032 H 0.63959 0.66908 0.82186 0.0
H1033 H 0.6593 0.61918 0.91873 0.0
C1034 C 0.62814 0.60387 0.91003 0.0
C1035 C 0.60876 0.60365 0.88944 0.0
C1036 C 0.65487 0.66802 0.83767 0.0
C1037 C 0.64106 0.63546 0.87452 0.0
C1038 C 0.6713 0.68342 0.8302 0.0
C1039 C 0.69109 0.68277 0.85044 0.0
C1040 C 0.65826 0.65181 0.86558 0.0
C1041 C 0.69402 0.6659 0.87786 0.0
C1042 C 0.6443 0.61968 0.90266 0.0
C1043 C 0.60588 0.62023 0.86183 0.0
N1044 N 0.67779 0.65116 0.88463 0.0
N1045 N 0.62187 0.63539 0.85516 0.0
H1046 H 0.49148 0.59081 0.80171 0.0
H1047 H 0.35719 0.6953 0.86013 0.0
H1048 H 0.47142 0.60764 0.8978 0.0
H1049 H 0.38008 0.69641 0.76603 0.0
H1050 H 0.39807 0.65868 0.87301 0.0
H1051 H 0.44985 0.62537 0.78675 0.0
C1052 C 0.4784 0.60168 0.8196 0.0
C1053 C 0.48508 0.59639 0.85105 0.0
C1054 C 0.39415 0.6669 0.84951 0.0
C1055 C 0.43748 0.6356 0.83419 0.0
C1056 C 0.37074 0.68779 0.84213 0.0
C1057 C 0.3651 0.69914 0.81198 0.0
C1058 C 0.41214 0.65702 0.82659 0.0
C1059 C 0.38355 0.68845 0.78964 0.0
C1060 C 0.45467 0.62141 0.81109 0.0
C1061 C 0.4673 0.61109 0.87326 0.0
N1062 N 0.40619 0.66803 0.79738 0.0
N1063 N 0.44445 0.62985 0.86442 0.0
H1064 H 0.52505 0.41854 0.91891 0.0
H1065 H 0.38714 0.43495 0.86269 0.0
H1066 H 0.47181 0.505 0.88811 0.0
H1067 H 0.44397 0.34624 0.87859 0.0
H1068 H 0.4168 0.46175 0.87665 0.0
H1069 H 0.49421 0.39246 0.90982 0.0
C1070 C 0.50677 0.43213 0.91067 0.0
C1071 C 0.501 0.46395 0.90409 0.0
C1072 C 0.42279 0.43642 0.87707 0.0
C1073 C 0.46575 0.43423 0.89326 0.0
C1074 C 0.40585 0.42113 0.86919 0.0
C1075 C 0.41313 0.38832 0.86936 0.0
C1076 C 0.44715 0.41879 0.88541 0.0
C1077 C 0.43767 0.37155 0.87772 0.0
C1078 C 0.48924 0.41719 0.9052 0.0
C1079 C 0.4771 0.48034 0.89307 0.0
N1080 N 0.45379 0.38697 0.88547 0.0
N1081 N 0.46038 0.46529 0.88792 0.0
H1082 H 0.61838 0.45297 0.85699 0.0
H1083 H 0.72901 0.37681 0.74283 0.0
H1084 H 0.62384 0.49642 0.77127 0.0
H1085 H 0.73782 0.3654 0.84184 0.0
H1086 H 0.6882 0.41569 0.75044 0.0
H1087 H 0.65953 0.41513 0.84914 0.0
C1088 C 0.62808 0.45437 0.83629 0.0
C1089 C 0.61753 0.47795 0.81468 0.0
C1090 C 0.69912 0.4048 0.7705 0.0
C1091 C 0.66478 0.43452 0.80566 0.0
C1092 C 0.72239 0.38254 0.76622 0.0
C1093 C 0.73689 0.36782 0.79178 0.0
C1094 C 0.68993 0.41196 0.80052 0.0
C1095 C 0.72735 0.3763 0.82152 0.0
C1096 C 0.65168 0.4329 0.83203 0.0
C1097 C 0.6312 0.47868 0.78851 0.0
N1098 N 0.70435 0.39755 0.82506 0.0
N1099 N 0.65405 0.45717 0.78463 0.0
H1100 H 0.62955 0.48458 0.2578 0.0
H1101 H 0.71111 0.30452 0.27893 0.0
H1102 H 0.59789 0.41094 0.2656 0.0
H1103 H 0.73993 0.37614 0.2509 0.0
H1104 H 0.66991 0.34387 0.28111 0.0
H1105 H 0.67058 0.44598 0.26395 0.0
C1106 C 0.63116 0.46039 0.26135 0.0
C1107 C 0.61018 0.45098 0.26084 0.0
C1108 C 0.68529 0.3509 0.27449 0.0
C1109 C 0.65726 0.40652 0.26749 0.0
C1110 C 0.70881 0.32845 0.27315 0.0
C1111 C 0.72904 0.33693 0.26447 0.0
C1112 C 0.68202 0.38212 0.26741 0.0
C1113 C 0.72491 0.36837 0.25744 0.0
C1114 C 0.65465 0.4383 0.26461 0.0
C1115 C 0.61352 0.41925 0.26561 0.0
N1116 N 0.70192 0.38977 0.2591 0.0
N1117 N 0.63662 0.39811 0.26846 0.0
H1118 H 0.63665 0.56242 0.22173 0.0
H1119 H 0.70588 0.66185 0.13528 0.0
H1120 H 0.61877 0.59392 0.12781 0.0
H1121 H 0.7121 0.64734 0.23403 0.0
H1122 H 0.6768 0.63288 0.13097 0.0
H1123 H 0.66709 0.58925 0.2254 0.0
C1124 C 0.63894 0.57506 0.20187 0.0
C1125 C 0.62478 0.576 0.17445 0.0
C1126 C 0.68455 0.636 0.15357 0.0
C1127 C 0.66018 0.60648 0.17846 0.0
C1128 C 0.70111 0.6527 0.15611 0.0
C1129 C 0.71142 0.65734 0.18513 0.0
C1130 C 0.67829 0.62358 0.18019 0.0
C1131 C 0.70489 0.64416 0.21112 0.0
C1132 C 0.65649 0.59028 0.20399 0.0
C1133 C 0.62923 0.59225 0.14934 0.0
N1134 N 0.68873 0.62797 0.20804 0.0
N1135 N 0.64648 0.60685 0.15198 0.0
H1136 H 0.48664 0.61514 0.16913 0.0
H1137 H 0.40464 0.72961 0.29882 0.0
H1138 H 0.50447 0.60337 0.26693 0.0
H1139 H 0.3827 0.72626 0.20244 0.0
H1140 H 0.44375 0.68806 0.28776 0.0
H1141 H 0.45105 0.66038 0.18126 0.0
C1142 C 0.48312 0.62208 0.19325 0.0
C1143 C 0.49854 0.6052 0.21707 0.0
C1144 C 0.43039 0.69662 0.26907 0.0
C1145 C 0.45746 0.65742 0.23118 0.0
C1146 C 0.40815 0.72044 0.2753 0.0
C1147 C 0.3903 0.73133 0.25153 0.0
C1148 C 0.43485 0.68389 0.23883 0.0
C1149 C 0.39578 0.71849 0.22155 0.0
C1150 C 0.4627 0.64802 0.20016 0.0
C1151 C 0.49301 0.61561 0.24785 0.0
N1152 N 0.41749 0.69547 0.21612 0.0
N1153 N 0.47283 0.64105 0.25407 0.0
H1154 H 0.47594 0.49814 0.21407 0.0
H1155 H 0.4303 0.35022 0.18379 0.0
H1156 H 0.51731 0.41408 0.16374 0.0
H1157 H 0.39192 0.42941 0.24231 0.0
H1158 H 0.46155 0.3744 0.17487 0.0
H1159 H 0.44433 0.4745 0.22339 0.0
C1160 C 0.47849 0.47471 0.20502 0.0
C1161 C 0.49952 0.45814 0.18811 0.0
C1162 C 0.44633 0.38655 0.18969 0.0
C1163 C 0.4631 0.43101 0.19851 0.0
C1164 C 0.42837 0.37281 0.19467 0.0
C1165 C 0.40832 0.38789 0.21368 0.0
C1166 C 0.44431 0.41573 0.20371 0.0
C1167 C 0.40712 0.41685 0.22764 0.0
C1168 C 0.46034 0.46126 0.21029 0.0
C1169 C 0.50143 0.42802 0.17656 0.0
N1170 N 0.4248 0.42989 0.22228 0.0
N1171 N 0.48352 0.41548 0.182 0.0
H1172 H 0.81103 0.61001 0.55778 0.0
H1173 H 0.79592 0.67357 0.73527 0.0
H1174 H 0.80722 0.55342 0.63466 0.0
H1175 H 0.80648 0.7273 0.65949 0.0
H1176 H 0.79718 0.6306 0.69841 0.0
H1177 H 0.80587 0.65463 0.59401 0.0
C1178 C 0.80875 0.60702 0.58216 0.0
C1179 C 0.8096 0.57772 0.59302 0.0
C1180 C 0.7992 0.65181 0.68984 0.0
C1181 C 0.80398 0.62885 0.63492 0.0
C1182 C 0.79852 0.67641 0.71095 0.0
C1183 C 0.80123 0.70424 0.7007 0.0
C1184 C 0.80251 0.65492 0.65807 0.0
C1185 C 0.80443 0.70637 0.66871 0.0
C1186 C 0.80598 0.6325 0.60293 0.0
C1187 C 0.80675 0.57541 0.62506 0.0
N1188 N 0.80499 0.68218 0.64868 0.0
N1189 N 0.80418 0.60044 0.64475 0.0
H1190 H 0.51128 0.80515 0.5533 0.0
H1191 H 0.44074 0.72584 0.66398 0.0
H1192 H 0.54639 0.71608 0.5964 0.0
H1193 H 0.4108 0.82136 0.63382 0.0
H1194 H 0.47846 0.72005 0.63621 0.0
H1195 H 0.47327 0.80959 0.57934 0.0
C1196 C 0.51115 0.78654 0.5683 0.0
C1197 C 0.53237 0.76026 0.5727 0.0
C1198 C 0.46359 0.74224 0.63562 0.0
C1199 C 0.48843 0.7651 0.6024 0.0
C1200 C 0.44203 0.74564 0.6516 0.0
C1201 C 0.42239 0.77417 0.65136 0.0
C1202 C 0.46559 0.76749 0.61911 0.0
C1203 C 0.42515 0.79875 0.63436 0.0
C1204 C 0.4893 0.78906 0.58309 0.0
C1205 C 0.53062 0.73666 0.592 0.0
N1206 N 0.44628 0.79484 0.61901 0.0
N1207 N 0.5091 0.73967 0.60613 0.0
H1208 H 0.33995 0.3932 0.57378 0.0
H1209 H 0.30323 0.38095 0.74929 0.0
H1210 H 0.30868 0.47513 0.63214 0.0
H1211 H 0.31272 0.30685 0.68032 0.0
H1212 H 0.30805 0.41527 0.70873 0.0
H1213 H 0.33348 0.36063 0.61449 0.0
C1214 C 0.33183 0.40438 0.59522 0.0
C1215 C 0.3249 0.43706 0.59942 0.0
C1216 C 0.30894 0.39154 0.70251 0.0
C1217 C 0.31738 0.39962 0.64652 0.0
C1218 C 0.3062 0.37189 0.72568 0.0
C1219 C 0.30744 0.34086 0.71836 0.0
C1220 C 0.31338 0.38001 0.67181 0.0
C1221 C 0.31143 0.33056 0.68723 0.0
C1222 C 0.32798 0.38573 0.61845 0.0
C1223 C 0.31413 0.45012 0.62772 0.0
N1224 N 0.31441 0.34991 0.66531 0.0
N1225 N 0.31086 0.43139 0.65021 0.0
H1226 H 0.56572 0.27749 0.55103 0.0
H1227 H 0.65456 0.25671 0.70226 0.0
H1228 H 0.55841 0.23042 0.63348 0.0
H1229 H 0.67128 0.28822 0.61508 0.0
H1230 H 0.61512 0.2561 0.67997 0.0
H1231 H 0.60007 0.29078 0.57669 0.0
C1232 C 0.57089 0.27071 0.57478 0.0
C1233 C 0.55924 0.25282 0.59017 0.0
C1234 C 0.62731 0.26338 0.66573 0.0
C1235 C 0.59855 0.26751 0.61946 0.0
C1236 C 0.64983 0.26395 0.67856 0.0
C1237 C 0.66648 0.27231 0.66053 0.0
C1238 C 0.62118 0.27127 0.63457 0.0
C1239 C 0.65928 0.28107 0.62974 0.0
C1240 C 0.59065 0.27799 0.5893 0.0
C1241 C 0.56696 0.24414 0.62073 0.0
N1242 N 0.63728 0.28016 0.6177 0.0
N1243 N 0.58613 0.2514 0.63425 0.0
H1244 H 0.86369 0.44563 0.42026 0.0
H1245 H 0.78106 0.34085 0.36436 0.0
H1246 H 0.79595 0.45305 0.46495 0.0
H1247 H 0.84255 0.34804 0.31415 0.0
H1248 H 0.78574 0.38079 0.40178 0.0
H1249 H 0.8556 0.40965 0.38172 0.0
C1250 C 0.84695 0.43981 0.42191 0.0
C1251 C 0.83053 0.45242 0.44609 0.0
C1252 C 0.79814 0.37367 0.38252 0.0
C1253 C 0.82117 0.41038 0.40162 0.0
C1254 C 0.79557 0.35073 0.36115 0.0
C1255 C 0.81152 0.34079 0.33596 0.0
C1256 C 0.81691 0.38674 0.3789 0.0
C1257 C 0.82984 0.35472 0.33309 0.0
C1258 C 0.84232 0.41915 0.39975 0.0
C1259 C 0.80906 0.44405 0.44668 0.0
N1260 N 0.83205 0.37674 0.35425 0.0
N1261 N 0.80511 0.4233 0.42495 0.0
H1262 H 0.68175 0.71434 0.4175 0.0
H1263 H 0.76389 0.81123 0.35466 0.0
H1264 H 0.67085 0.81002 0.44708 0.0
H1265 H 0.75817 0.72621 0.31173 0.0
H1266 H 0.73324 0.80978 0.39259 0.0
H1267 H 0.71353 0.71666 0.38288 0.0
C1268 C 0.68591 0.73594 0.41672 0.0
C1269 C 0.67318 0.76214 0.43511 0.0
C1270 C 0.73875 0.79152 0.37479 0.0
C1271 C 0.71017 0.76481 0.39542 0.0
C1272 C 0.75624 0.79231 0.35318 0.0
C1273 C 0.76358 0.7689 0.32982 0.0
C1274 C 0.72881 0.76694 0.37323 0.0
C1275 C 0.75304 0.74492 0.32909 0.0
C1276 C 0.70421 0.7372 0.39693 0.0
C1277 C 0.6801 0.78916 0.4335 0.0
N1278 N 0.73634 0.74455 0.35044 0.0
N1279 N 0.69805 0.78984 0.41392 0.0
H1280 H 0.36825 0.5851 0.42798 0.0
H1281 H 0.30055 0.76199 0.37635 0.0
H1282 H 0.30474 0.64606 0.47535 0.0
H1283 H 0.3429 0.68863 0.3143 0.0
H1284 H 0.30567 0.72267 0.41644 0.0
H1285 H 0.36339 0.62573 0.38989 0.0
C1286 C 0.35342 0.60715 0.43057 0.0
C1287 C 0.33688 0.61211 0.45497 0.0
C1288 C 0.3138 0.71528 0.39401 0.0
C1289 C 0.33119 0.65895 0.41126 0.0
C1290 C 0.31095 0.73771 0.37115 0.0
C1291 C 0.3212 0.72866 0.34179 0.0
C1292 C 0.32744 0.68367 0.38769 0.0
C1293 C 0.33449 0.69677 0.33644 0.0
C1294 C 0.35054 0.63029 0.40866 0.0
C1295 C 0.31779 0.64113 0.4568 0.0
N1296 N 0.33733 0.67559 0.35912 0.0
N1297 N 0.31552 0.66349 0.43537 0.0
H1298 H 0.43382 0.20561 0.48131 0.0
H1299 H 0.36382 0.31962 0.34528 0.0
H1300 H 0.45588 0.28328 0.45447 0.0
H1301 H 0.3386 0.2488 0.38325 0.0
H1302 H 0.39749 0.30746 0.38427 0.0
H1303 H 0.39887 0.22202 0.44526 0.0
C1304 C 0.43127 0.22629 0.46787 0.0
C1305 C 0.44798 0.24299 0.47089 0.0
C1306 C 0.38452 0.2947 0.38411 0.0
C1307 C 0.40763 0.26196 0.42895 0.0
C1308 C 0.36529 0.30155 0.36179 0.0
C1309 C 0.3483 0.28513 0.3608 0.0
C1310 C 0.38691 0.27114 0.40555 0.0
C1311 C 0.35119 0.26206 0.38293 0.0
C1312 C 0.41119 0.23569 0.44722 0.0
C1313 C 0.44346 0.26974 0.45295 0.0
N1314 N 0.3701 0.25573 0.4042 0.0
N1315 N 0.42381 0.27827 0.43252 0.0
H1316 H 0.62878 0.80648 0.61148 0.0
H1317 H 0.74875 0.84369 0.67485 0.0
H1318 H 0.66492 0.85799 0.55955 0.0
H1319 H 0.7126 0.78997 0.72373 0.0
H1320 H 0.71577 0.8547 0.63512 0.0
H1321 H 0.65667 0.80594 0.65533 0.0
C1322 C 0.64248 0.81792 0.60935 0.0
C1323 C 0.64466 0.83202 0.58161 0.0
C1324 C 0.71496 0.84076 0.65471 0.0
C1325 C 0.67694 0.83126 0.63192 0.0
C1326 C 0.73376 0.83452 0.67747 0.0
C1327 C 0.73361 0.81561 0.70259 0.0
C1328 C 0.69588 0.82804 0.65708 0.0
C1329 C 0.71367 0.80442 0.7047 0.0
C1330 C 0.65844 0.81759 0.63447 0.0
C1331 C 0.66264 0.84673 0.58042 0.0
N1332 N 0.69576 0.81062 0.68217 0.0
N1333 N 0.67827 0.84569 0.60512 0.0
H1334 H 0.60626 0.20495 0.50456 0.0
H1335 H 0.68076 0.19951 0.35003 0.0
H1336 H 0.58697 0.17082 0.41618 0.0
H1337 H 0.70467 0.22232 0.4409 0.0
H1338 H 0.64573 0.19006 0.37338 0.0
H1339 H 0.64221 0.21188 0.4814 0.0
C1340 C 0.60964 0.19885 0.48026 0.0
C1341 C 0.59352 0.18746 0.46222 0.0
C1342 C 0.65866 0.19709 0.38821 0.0
C1343 C 0.63468 0.19535 0.43547 0.0
C1344 C 0.67854 0.20274 0.37487 0.0
C1345 C 0.69565 0.21178 0.39354 0.0
C1346 C 0.65576 0.20067 0.42046 0.0
C1347 C 0.69207 0.21511 0.42566 0.0
C1348 C 0.63022 0.20271 0.46706 0.0
C1349 C 0.599 0.17945 0.43097 0.0
N1350 N 0.67251 0.20964 0.43807 0.0
N1351 N 0.61904 0.18378 0.4185 0.0
H1352 H 0.90394 0.57094 0.42662 0.0
H1353 H 0.81603 0.6581 0.28671 0.0
H1354 H 0.83063 0.56704 0.40861 0.0
H1355 H 0.87904 0.68087 0.32293 0.0
H1356 H 0.82685 0.61328 0.32146 0.0
H1357 H 0.90038 0.60005 0.37913 0.0
C1358 C 0.88715 0.576 0.41265 0.0
C1359 C 0.86736 0.56709 0.42214 0.0
C1360 C 0.83859 0.62771 0.32123 0.0
C1361 C 0.86328 0.60013 0.36745 0.0
C1362 C 0.83255 0.65303 0.30126 0.0
C1363 C 0.8466 0.67317 0.30229 0.0
C1364 C 0.85891 0.62255 0.34193 0.0
C1365 C 0.86764 0.66596 0.32175 0.0
C1366 C 0.88519 0.59247 0.38542 0.0
C1367 C 0.84635 0.57349 0.40246 0.0
N1368 N 0.87304 0.64141 0.341 0.0
N1369 N 0.84473 0.58999 0.37626 0.0
H1370 H 0.52804 0.8601 0.49979 0.0
H1371 H 0.45475 0.85647 0.34008 0.0
H1372 H 0.56183 0.84622 0.41021 0.0
H1373 H 0.42109 0.87262 0.42975 0.0
H1374 H 0.49314 0.85873 0.36468 0.0
H1375 H 0.48767 0.87221 0.47394 0.0
C1376 C 0.52697 0.8602 0.47468 0.0
C1377 C 0.54845 0.85166 0.45717 0.0
C1378 C 0.47727 0.86211 0.37893 0.0
C1379 C 0.50222 0.86499 0.42739 0.0
C1380 C 0.4554 0.86061 0.36491 0.0
C1381 C 0.43469 0.86414 0.38288 0.0
C1382 C 0.47854 0.86694 0.4112 0.0
C1383 C 0.43649 0.87 0.4149 0.0
C1384 C 0.50388 0.86696 0.45991 0.0
C1385 C 0.54583 0.85234 0.42469 0.0
N1386 N 0.45807 0.87093 0.42804 0.0
N1387 N 0.52319 0.85839 0.41086 0.0
H1388 H 0.30564 0.51821 0.40231 0.0
H1389 H 0.24717 0.38468 0.36962 0.0
H1390 H 0.26009 0.49323 0.46708 0.0
H1391 H 0.29068 0.41222 0.30385 0.0
H1392 H 0.24405 0.43169 0.4008 0.0
H1393 H 0.29254 0.48793 0.36174 0.0
C1394 C 0.29248 0.50679 0.40782 0.0
C1395 C 0.2843 0.50765 0.4382 0.0
C1396 C 0.25393 0.42778 0.3793 0.0
C1397 C 0.26958 0.47245 0.39201 0.0
C1398 C 0.25578 0.40088 0.36148 0.0
C1399 C 0.2697 0.39416 0.33444 0.0
C1400 C 0.26634 0.44796 0.37024 0.0
C1401 C 0.28002 0.41627 0.32473 0.0
C1402 C 0.28501 0.48948 0.38463 0.0
C1403 C 0.26699 0.4929 0.444 0.0
N1404 N 0.27852 0.44192 0.34294 0.0
N1405 N 0.26059 0.47531 0.42123 0.0
H1406 H 0.4727 0.23938 0.63848 0.0
H1407 H 0.36409 0.19593 0.71506 0.0
H1408 H 0.45447 0.15678 0.61184 0.0
H1409 H 0.39017 0.27061 0.74892 0.0
H1410 H 0.39793 0.17962 0.67858 0.0
H1411 H 0.44328 0.24995 0.68023 0.0
C1412 C 0.46248 0.22345 0.64145 0.0
C1413 C 0.46585 0.19734 0.62148 0.0
C1414 C 0.39635 0.19939 0.69421 0.0
C1415 C 0.43211 0.2092 0.66937 0.0
C1416 C 0.37703 0.20872 0.71508 0.0
C1417 C 0.37412 0.23486 0.73498 0.0
C1418 C 0.41277 0.21643 0.69309 0.0
C1419 C 0.39154 0.25044 0.73396 0.0
C1420 C 0.44578 0.22937 0.66543 0.0
C1421 C 0.45248 0.17711 0.62679 0.0
N1422 N 0.40995 0.24116 0.7132 0.0
N1423 N 0.436 0.18363 0.65005 0.0
H1424 H 0.8851 0.43875 0.63572 0.0
H1425 H 0.8206 0.31132 0.66802 0.0
H1426 H 0.84702 0.40257 0.56402 0.0
H1427 H 0.83634 0.37236 0.73873 0.0
H1428 H 0.83674 0.33726 0.62905 0.0
H1429 H 0.87473 0.40609 0.67322 0.0
C1430 C 0.87496 0.42348 0.62775 0.0
C1431 C 0.86677 0.42346 0.59677 0.0
C1432 C 0.83667 0.34485 0.65313 0.0
C1433 C 0.85457 0.38639 0.63958 0.0
C1434 C 0.82749 0.33009 0.67534 0.0
C1435 C 0.82694 0.33991 0.70659 0.0
C1436 C 0.84568 0.36918 0.6624 0.0
C1437 C 0.83616 0.36427 0.71485 0.0
C1438 C 0.86882 0.4051 0.64922 0.0
C1439 C 0.85339 0.4035 0.58781 0.0
N1440 N 0.84519 0.37802 0.6929 0.0
N1441 N 0.8476 0.38582 0.60915 0.0
H1442 H 0.27232 0.62779 0.5731 0.0
H1443 H 0.29014 0.66662 0.75252 0.0
H1444 H 0.30975 0.55914 0.64081 0.0
H1445 H 0.28045 0.73482 0.68131 0.0
H1446 H 0.28618 0.62874 0.71308 0.0
H1447 H 0.26396 0.66878 0.61426 0.0
C1448 C 0.27813 0.62131 0.59677 0.0
C1449 C 0.29182 0.59029 0.60378 0.0
C1450 C 0.28475 0.65207 0.70612 0.0
C1451 C 0.28248 0.63648 0.65042 0.0
C1452 C 0.28705 0.67374 0.7286 0.0
C1453 C 0.28605 0.70382 0.72014 0.0
C1454 C 0.28134 0.66046 0.6749 0.0
C1455 C 0.28169 0.71174 0.68878 0.0
C1456 C 0.27358 0.64463 0.62008 0.0
C1457 C 0.29928 0.58293 0.63458 0.0
N1458 N 0.27966 0.69006 0.66718 0.0
N1459 N 0.2946 0.6059 0.65677 0.0
loop_
_geom_bond_atom_site_label_1
_geom_bond_atom_site_label_2
_geom_bond_distance
_geom_bond_site_symmetry_2
_ccdc_geom_bond_type
Cu0 N1 1.999 . S
Cu0 O6 1.974 . S
Cu0 N11 1.985 . S
Cu0 O20 1.959 . S
N1 Cu0 1.999 . S
N1 C3 1.263 . S
N1 C5 1.389 . S
N2 C3 1.358 . S
N2 C4 1.400 . S
C3 N1 1.263 . S
C3 N2 1.358 . S
C3 H9 0.930 . S
C4 N2 1.400 . S
C4 C5 1.351 . S
C4 H21 0.930 . S
C5 N1 1.389 . S
C5 C4 1.351 . S
C5 H10 0.930 . S
O6 Cu0 1.974 . S
O6 C16 1.282 1_545 S
C7 O8 1.261 . S
C7 O20 1.251 . S
O8 C7 1.261 . S
H9 C3 0.930 . S
H10 C5 0.930 . S
N11 Cu0 1.985 . S
N11 C13 1.335 . S
N11 C14 1.390 1_545 S
N12 C13 1.345 1_565 S
N12 C15 1.336 . S
C13 N11 1.335 . S
C13 N12 1.345 1_545 S
C13 H18 0.922 1_455 S
C14 N11 1.390 1_565 S
C14 C15 1.346 . S
C14 H19 0.930 . S
C15 N12 1.336 . S
C15 C14 1.346 . S
C15 H22 0.929 . S
C16 O6 1.282 1_565 S
C16 O17 1.216 . S
O17 C16 1.216 . S
H18 C13 0.922 1_655 S
H19 C14 0.930 . S
O20 Cu0 1.959 . S
O20 C7 1.251 . S
H21 C4 0.930 . S
H22 C15 0.929 . S
Cu23 N24 1.999 1_545 S
Cu23 O29 1.974 . S
Cu23 N34 1.985 . S
Cu23 O43 1.959 1_545 S
N24 Cu23 1.999 1_565 S
N24 C26 1.263 . S
N24 C28 1.389 . S
N25 C26 1.358 . S
N25 C27 1.400 . S
C26 N24 1.263 . S
C26 N25 1.358 . S
C26 H32 0.930 . S
C27 N25 1.400 . S
C27 C28 1.351 . S
C27 H44 0.930 . S
C28 N24 1.389 . S
C28 C27 1.351 . S
C28 H33 0.930 . S
O29 Cu23 1.974 . S
O29 C39 1.282 . S
C30 O31 1.261 . S
C30 O43 1.251 . S
O31 C30 1.261 . S
H32 C26 0.930 . S
H33 C28 0.930 . S
N34 Cu23 1.985 . S
N34 C36 1.335 . S
N34 C37 1.390 . S
N35 C36 1.345 . S
N35 C38 1.336 . S
C36 N34 1.335 . S
C36 N35 1.345 . S
C36 H41 0.930 . S
C37 N34 1.390 . S
C37 C38 1.346 . S
C37 H42 0.930 . S
C38 N35 1.336 . S
C38 C37 1.346 . S
C38 H45 0.929 . S
C39 O29 1.282 . S
C39 O40 1.216 . S
O40 C39 1.216 . S
H41 C36 0.930 . S
H42 C37 0.930 . S
O43 Cu23 1.959 1_565 S
O43 C30 1.251 . S
H44 C27 0.930 . S
H45 C38 0.929 . S
Cu46 N47 1.999 1_544 S
Cu46 O52 1.974 1_545 S
Cu46 N57 1.985 . S
Cu46 O66 1.959 1_554 S
N47 Cu46 1.999 1_566 S
N47 C49 1.263 . S
N47 C51 1.389 . S
N48 C49 1.358 . S
N48 C50 1.400 . S
C49 N47 1.263 . S
C49 N48 1.358 . S
C49 H55 0.930 . S
C50 N48 1.400 . S
C50 C51 1.351 . S
C50 H67 0.930 . S
C51 N47 1.389 . S
C51 C50 1.351 . S
C51 H56 0.916 1_565 S
O52 Cu46 1.974 1_565 S
O52 C62 1.282 . S
C53 O54 1.261 . S
C53 O66 1.251 . S
O54 C53 1.261 . S
H55 C49 0.930 . S
H56 C51 0.916 1_545 S
N57 Cu46 1.985 . S
N57 C59 1.335 . S
N57 C60 1.390 . S
N58 C59 1.345 . S
N58 C61 1.336 . S
C59 N57 1.335 . S
C59 N58 1.345 . S
C59 H64 0.930 . S
C60 N57 1.390 . S
C60 C61 1.346 . S
C60 H65 0.930 . S
C61 N58 1.336 . S
C61 C60 1.346 . S
C61 H68 0.929 . S
C62 O52 1.282 . S
C62 O63 1.216 . S
O63 C62 1.216 . S
H64 C59 0.930 . S
H65 C60 0.930 . S
O66 Cu46 1.959 1_556 S
O66 C53 1.251 . S
H67 C50 0.930 . S
H68 C61 0.929 . S
Cu69 N70 1.999 1_554 S
Cu69 O75 1.974 . S
Cu69 N80 1.985 . S
Cu69 O89 1.959 1_554 S
N70 Cu69 1.999 1_556 S
N70 C72 1.263 . S
N70 C74 1.389 . S
N71 C72 1.358 . S
N71 C73 1.400 . S
C72 N70 1.263 . S
C72 N71 1.358 . S
C72 H78 0.930 1_556 S
C73 N71 1.400 . S
C73 C74 1.351 . S
C73 H90 0.930 . S
C74 N70 1.389 . S
C74 C73 1.351 . S
C74 H79 0.930 . S
O75 Cu69 1.974 . S
O75 C85 1.282 . S
C76 O77 1.261 . S
C76 O89 1.251 . S
O77 C76 1.261 . S
H78 C72 0.930 1_554 S
H79 C74 0.930 . S
N80 Cu69 1.985 . S
N80 C82 1.335 . S
N80 C83 1.390 . S
N81 C82 1.345 . S
N81 C84 1.336 . S
C82 N80 1.335 . S
C82 N81 1.345 . S
C82 H87 0.930 . S
C83 N80 1.390 . S
C83 C84 1.346 . S
C83 H88 0.930 . S
C84 N81 1.336 . S
C84 C83 1.346 . S
C84 H91 0.929 . S
C85 O75 1.282 . S
C85 O86 1.216 . S
O86 C85 1.216 . S
H87 C82 0.930 . S
H88 C83 0.930 . S
O89 Cu69 1.959 1_556 S
O89 C76 1.251 . S
H90 C73 0.930 . S
H91 C84 0.929 . S
Cu92 N93 1.999 1_554 S
Cu92 O98 1.974 . S
Cu92 N103 1.985 1_545 S
Cu92 O112 1.959 1_544 S
N93 Cu92 1.999 1_556 S
N93 C95 1.263 . S
N93 C97 1.389 . S
N94 C95 1.358 . S
N94 C96 1.400 . S
C95 N93 1.263 . S
C95 N94 1.358 . S
C95 H101 0.930 . S
C96 N94 1.400 . S
C96 C97 1.351 . S
C96 H113 0.930 . S
C97 N93 1.389 . S
C97 C96 1.351 . S
C97 H102 0.930 . S
O98 Cu92 1.974 . S
O98 C108 1.282 . S
C99 O100 1.261 . S
C99 O112 1.251 . S
O100 C99 1.261 . S
H101 C95 0.930 . S
H102 C97 0.930 . S
N103 Cu92 1.985 1_565 S
N103 C105 1.335 . S
N103 C106 1.390 . S
N104 C105 1.345 . S
N104 C107 1.336 . S
C105 N103 1.335 . S
C105 N104 1.345 . S
C105 H110 0.930 . S
C106 N103 1.390 . S
C106 C107 1.346 . S
C106 H111 0.930 1_565 S
C107 N104 1.336 . S
C107 C106 1.346 . S
C107 H114 0.929 . S
C108 O98 1.282 . S
C108 O109 1.216 . S
O109 C108 1.216 . S
H110 C105 0.930 . S
H111 C106 0.930 1_545 S
O112 Cu92 1.959 1_566 S
O112 C99 1.251 . S
H113 C96 0.930 . S
H114 C107 0.929 . S
Cu115 N116 1.952 1_454 S
Cu115 O121 1.986 1_455 S
Cu115 N126 1.999 . S
Cu115 O135 1.947 1_554 S
N116 Cu115 1.952 1_656 S
N116 C118 1.310 . S
N116 C120 1.382 1_655 S
N117 C118 1.358 . S
N117 C119 1.400 . S
C118 N116 1.310 . S
C118 N117 1.358 . S
C118 H124 0.930 . S
C119 N117 1.400 . S
C119 C120 1.351 1_655 S
C119 H136 0.930 . S
C120 N116 1.382 1_455 S
C120 C119 1.351 1_455 S
C120 H125 0.930 . S
O121 Cu115 1.986 1_655 S
O121 C131 1.282 . S
C122 O123 1.261 . S
C122 O135 1.251 . S
O123 C122 1.261 . S
H124 C118 0.930 . S
H125 C120 0.930 . S
N126 Cu115 1.999 . S
N126 C128 1.335 . S
N126 C129 1.390 . S
N127 C128 1.345 . S
N127 C130 1.336 . S
C128 N126 1.335 . S
C128 N127 1.345 . S
C128 H133 0.930 . S
C129 N126 1.390 . S
C129 C130 1.346 . S
C129 H134 0.930 . S
C130 N127 1.336 . S
C130 C129 1.346 . S
C130 H137 0.929 . S
C131 O121 1.282 . S
C131 O132 1.216 . S
O132 C131 1.216 . S
H133 C128 0.930 . S
H134 C129 0.930 . S
O135 Cu115 1.947 1_556 S
O135 C122 1.251 . S
H136 C119 0.930 . S
H137 C130 0.929 . S
Cu138 N139 1.999 . S
Cu138 O144 1.974 . S
Cu138 N149 1.985 . S
Cu138 O158 1.959 . S
N139 Cu138 1.999 . S
N139 C141 1.263 . S
N139 C143 1.389 . S
N140 C141 1.358 . S
N140 C142 1.400 . S
C141 N139 1.263 . S
C141 N140 1.358 . S
C141 H147 0.930 . S
C142 N140 1.400 . S
C142 C143 1.351 . S
C142 H159 0.930 . S
C143 N139 1.389 . S
C143 C142 1.351 . S
C143 H148 0.930 . S
O144 Cu138 1.974 . S
O144 C154 1.282 . S
C145 O146 1.261 . S
C145 O158 1.251 . S
O146 C145 1.261 . S
H147 C141 0.930 . S
H148 C143 0.930 . S
N149 Cu138 1.985 . S
N149 C151 1.335 . S
N149 C152 1.390 . S
N150 C151 1.345 . S
N150 C153 1.336 . S
C151 N149 1.335 . S
C151 N150 1.345 . S
C151 H156 0.930 . S
C152 N149 1.390 . S
C152 C153 1.346 . S
C152 H157 0.930 . S
C153 N150 1.336 . S
C153 C152 1.346 . S
C153 H160 0.929 . S
C154 O144 1.282 . S
C154 O155 1.216 . S
O155 C154 1.216 . S
H156 C151 0.930 . S
H157 C152 0.930 . S
O158 Cu138 1.959 . S
O158 C145 1.251 . S
H159 C142 0.930 . S
H160 C153 0.929 . S
Cu161 N162 1.999 . S
Cu161 O167 1.974 . S
Cu161 N172 1.985 . S
Cu161 O181 1.959 . S
N162 Cu161 1.999 . S
N162 C164 1.263 . S
N162 C166 1.389 . S
N163 C164 1.358 . S
N163 C165 1.400 . S
C164 N162 1.263 . S
C164 N163 1.358 . S
C164 H170 0.930 . S
C165 N163 1.400 . S
C165 C166 1.351 . S
C165 H182 0.930 . S
C166 N162 1.389 . S
C166 C165 1.351 . S
C166 H171 0.930 . S
O167 Cu161 1.974 . S
O167 C177 1.282 . S
C168 O169 1.261 . S
C168 O181 1.251 . S
O169 C168 1.261 . S
H170 C164 0.930 . S
H171 C166 0.930 . S
N172 Cu161 1.985 . S
N172 C174 1.335 . S
N172 C175 1.390 . S
N173 C174 1.345 . S
N173 C176 1.336 . S
C174 N172 1.335 . S
C174 N173 1.345 . S
C174 H179 0.930 . S
C175 N172 1.390 . S
C175 C176 1.346 . S
C175 H180 0.930 . S
C176 N173 1.336 . S
C176 C175 1.346 . S
C176 H183 0.929 . S
C177 O167 1.282 . S
C177 O178 1.216 . S
O178 C177 1.216 . S
H179 C174 0.930 . S
H180 C175 0.930 . S
O181 Cu161 1.959 . S
O181 C168 1.251 . S
H182 C165 0.930 . S
H183 C176 0.929 . S
Cu184 N185 1.999 . S
Cu184 O190 1.974 . S
Cu184 N195 1.985 . S
Cu184 O204 1.959 . S
N185 Cu184 1.999 . S
N185 C187 1.263 . S
N185 C189 1.389 . S
N186 C187 1.358 . S
N186 C188 1.400 . S
C187 N185 1.263 . S
C187 N186 1.358 . S
C187 H193 0.930 . S
C188 N186 1.400 . S
C188 C189 1.351 . S
C188 H205 0.930 . S
C189 N185 1.389 . S
C189 C188 1.351 . S
C189 H194 0.930 . S
O190 Cu184 1.974 . S
O190 C200 1.282 . S
C191 O192 1.261 . S
C191 O204 1.251 . S
O192 C191 1.261 . S
H193 C187 0.930 . S
H194 C189 0.930 . S
N195 Cu184 1.985 . S
N195 C197 1.335 . S
N195 C198 1.390 . S
N196 C197 1.345 . S
N196 C199 1.336 . S
C197 N195 1.335 . S
C197 N196 1.345 . S
C197 H202 0.930 . S
C198 N195 1.390 . S
C198 C199 1.346 . S
C198 H203 0.930 . S
C199 N196 1.336 . S
C199 C198 1.346 . S
C199 H206 0.929 . S
C200 O190 1.282 . S
C200 O201 1.216 . S
O201 C200 1.216 . S
H202 C197 0.930 . S
H203 C198 0.930 . S
O204 Cu184 1.959 . S
O204 C191 1.251 . S
H205 C188 0.930 . S
H206 C199 0.929 . S
Cu207 N208 1.999 . S
Cu207 O213 1.974 . S
Cu207 N218 1.985 . S
Cu207 O227 1.959 . S
N208 Cu207 1.999 . S
N208 C210 1.263 . S
N208 C212 1.389 . S
N209 C210 1.358 . S
N209 C211 1.400 . S
C210 N208 1.263 . S
C210 N209 1.358 . S
C210 H216 0.930 . S
C211 N209 1.400 . S
C211 C212 1.351 . S
C211 H228 0.930 . S
C212 N208 1.389 . S
C212 C211 1.351 . S
C212 H217 0.930 . S
O213 Cu207 1.974 . S
O213 C223 1.282 . S
C214 O215 1.261 . S
C214 O227 1.251 . S
O215 C214 1.261 . S
H216 C210 0.930 . S
H217 C212 0.930 . S
N218 Cu207 1.985 . S
N218 C220 1.335 . S
N218 C221 1.390 . S
N219 C220 1.345 . S
N219 C222 1.336 . S
C220 N218 1.335 . S
C220 N219 1.345 . S
C220 H225 0.930 . S
C221 N218 1.390 . S
C221 C222 1.346 . S
C221 H226 0.930 . S
C222 N219 1.336 . S
C222 C221 1.346 . S
C222 H229 0.929 . S
C223 O213 1.282 . S
C223 O224 1.216 . S
O224 C223 1.216 . S
H225 C220 0.930 . S
H226 C221 0.930 . S
O227 Cu207 1.959 . S
O227 C214 1.251 . S
H228 C211 0.930 . S
H229 C222 0.929 . S
Cu230 N231 1.999 . S
Cu230 O236 1.974 . S
Cu230 N241 1.985 . S
Cu230 O250 1.959 . S
N231 Cu230 1.999 . S
N231 C233 1.263 . S
N231 C235 1.389 . S
N232 C233 1.358 . S
N232 C234 1.400 . S
C233 N231 1.263 . S
C233 N232 1.358 . S
C233 H239 0.930 . S
C234 N232 1.400 . S
C234 C235 1.351 . S
C234 H251 0.930 . S
C235 N231 1.389 . S
C235 C234 1.351 . S
C235 H240 0.930 . S
O236 Cu230 1.974 . S
O236 C246 1.282 . S
C237 O238 1.261 . S
C237 O250 1.251 . S
O238 C237 1.261 . S
H239 C233 0.930 . S
H240 C235 0.930 . S
N241 Cu230 1.985 . S
N241 C243 1.335 . S
N241 C244 1.390 . S
N242 C243 1.345 . S
N242 C245 1.336 . S
C243 N241 1.335 . S
C243 N242 1.345 . S
C243 H248 0.930 . S
C244 N241 1.390 . S
C244 C245 1.346 . S
C244 H249 0.930 . S
C245 N242 1.336 . S
C245 C244 1.346 . S
C245 H252 0.929 . S
C246 O236 1.282 . S
C246 O247 1.216 . S
O247 C246 1.216 . S
H248 C243 0.930 . S
H249 C244 0.930 . S
O250 Cu230 1.959 . S
O250 C237 1.251 . S
H251 C234 0.930 . S
H252 C245 0.929 . S
Cu253 N254 1.999 . S
Cu253 O259 1.974 . S
Cu253 N264 1.985 . S
Cu253 O273 1.959 . S
N254 Cu253 1.999 . S
N254 C256 1.263 . S
N254 C258 1.389 . S
N255 C256 1.358 . S
N255 C257 1.400 . S
C256 N254 1.263 . S
C256 N255 1.358 . S
C256 H262 0.930 . S
C257 N255 1.400 . S
C257 C258 1.351 . S
C257 H274 0.930 . S
C258 N254 1.389 . S
C258 C257 1.351 . S
C258 H263 0.930 . S
O259 Cu253 1.974 . S
O259 C269 1.282 . S
C260 O261 1.261 . S
C260 O273 1.251 . S
O261 C260 1.261 . S
H262 C256 0.930 . S
H263 C258 0.930 . S
N264 Cu253 1.985 . S
N264 C266 1.335 . S
N264 C267 1.390 . S
N265 C266 1.345 . S
N265 C268 1.336 . S
C266 N264 1.335 . S
C266 N265 1.345 . S
C266 H271 0.930 . S
C267 N264 1.390 . S
C267 C268 1.346 . S
C267 H272 0.930 . S
C268 N265 1.336 . S
C268 C267 1.346 . S
C268 H275 0.929 . S
C269 O259 1.282 . S
C269 O270 1.216 . S
O270 C269 1.216 . S
H271 C266 0.930 . S
H272 C267 0.930 . S
O273 Cu253 1.959 . S
O273 C260 1.251 . S
H274 C257 0.930 . S
H275 C268 0.929 . S
Dy276 O279 2.307 . S
Dy276 O281 2.395 . S
Dy276 O282 2.379 . S
Dy276 O284 2.339 . S
Dy276 O286 2.298 . S
Dy276 O290 2.275 . S
Dy276 C298 2.738 . S
Dy277 O280 2.298 . S
Dy277 O283 2.275 . S
Dy277 O285 2.307 . S
Dy277 O287 2.395 . S
Dy277 O288 2.379 . S
Dy277 O291 2.339 . S
Dy277 C307 2.738 . S
C278 O290 1.254 . S
C278 O291 1.257 . S
O279 Dy276 2.307 . S
O279 C289 1.266 . S
O280 Dy277 2.298 . S
O280 C289 1.236 . S
O281 Dy276 2.395 . S
O281 C298 1.255 . S
O282 Dy276 2.379 . S
O282 C298 1.249 . S
O283 Dy277 2.275 . S
O283 C299 1.254 . S
O284 Dy276 2.339 . S
O284 C299 1.257 . S
O285 Dy277 2.307 . S
O285 C300 1.266 . S
O286 Dy276 2.298 . S
O286 C300 1.236 . S
O287 Dy277 2.395 . S
O287 C307 1.255 . S
O288 Dy277 2.379 . S
O288 C307 1.249 . S
C289 O279 1.266 . S
C289 O280 1.236 . S
O290 Dy276 2.275 . S
O290 C278 1.254 . S
O291 Dy277 2.339 . S
O291 C278 1.257 . S
C292 C295 1.344 . S
C292 C296 1.328 . S
C292 C298 1.516 . S
C293 C294 1.304 . S
C293 C297 1.323 . S
C294 C293 1.304 . S
C294 C295 1.371 . S
C294 H308 0.930 . S
C295 C292 1.344 . S
C295 C294 1.371 . S
C295 H309 0.931 . S
C296 C292 1.328 . S
C296 C297 1.433 . S
C296 H310 0.931 . S
C297 C293 1.323 . S
C297 C296 1.433 . S
C297 H311 0.933 . S
C298 Dy276 2.738 . S
C298 O281 1.255 . S
C298 O282 1.249 . S
C298 C292 1.516 . S
C299 O283 1.254 . S
C299 O284 1.257 . S
C300 O285 1.266 . S
C300 O286 1.236 . S
C301 C304 1.344 . S
C301 C305 1.328 . S
C301 C307 1.516 . S
C302 C303 1.304 . S
C302 C306 1.323 . S
C303 C302 1.304 . S
C303 C304 1.371 . S
C303 H312 0.930 . S
C304 C301 1.344 . S
C304 C303 1.371 . S
C304 H313 0.931 . S
C305 C301 1.328 . S
C305 C306 1.433 . S
C305 H314 0.931 . S
C306 C302 1.323 . S
C306 C305 1.433 . S
C306 H315 0.933 . S
C307 Dy277 2.738 . S
C307 O287 1.255 . S
C307 O288 1.249 . S
C307 C301 1.516 . S
H308 C294 0.930 . S
H309 C295 0.931 . S
H310 C296 0.931 . S
H311 C297 0.933 . S
H312 C303 0.930 . S
H313 C304 0.931 . S
H314 C305 0.931 . S
H315 C306 0.933 . S
Dy316 O319 2.307 . S
Dy316 O321 2.395 . S
Dy316 O322 2.379 . S
Dy316 O324 2.339 . S
Dy316 O326 2.298 . S
Dy316 O330 2.275 . S
Dy316 C338 2.738 . S
Dy317 O320 2.298 . S
Dy317 O323 2.275 . S
Dy317 O325 2.307 . S
Dy317 O327 2.395 . S
Dy317 O328 2.379 . S
Dy317 O331 2.339 . S
Dy317 C347 2.738 . S
C318 O330 1.254 . S
C318 O331 1.257 . S
O319 Dy316 2.307 . S
O319 C329 1.266 . S
O320 Dy317 2.298 . S
O320 C329 1.236 . S
O321 Dy316 2.395 . S
O321 C338 1.255 . S
O322 Dy316 2.379 . S
O322 C338 1.249 . S
O323 Dy317 2.275 . S
O323 C339 1.254 . S
O324 Dy316 2.339 . S
O324 C339 1.257 . S
O325 Dy317 2.307 . S
O325 C340 1.266 . S
O326 Dy316 2.298 . S
O326 C340 1.236 . S
O327 Dy317 2.395 . S
O327 C347 1.255 . S
O328 Dy317 2.379 . S
O328 C347 1.249 . S
C329 O319 1.266 . S
C329 O320 1.236 . S
O330 Dy316 2.275 . S
O330 C318 1.254 . S
O331 Dy317 2.339 . S
O331 C318 1.257 . S
C332 C335 1.344 . S
C332 C336 1.328 . S
C332 C338 1.516 . S
C333 C334 1.304 . S
C333 C337 1.323 . S
C334 C333 1.304 . S
C334 C335 1.371 . S
C334 H348 0.930 . S
C335 C332 1.344 . S
C335 C334 1.371 . S
C335 H349 0.931 . S
C336 C332 1.328 . S
C336 C337 1.433 . S
C336 H350 0.931 . S
C337 C333 1.323 . S
C337 C336 1.433 . S
C337 H351 0.933 . S
C338 Dy316 2.738 . S
C338 O321 1.255 . S
C338 O322 1.249 . S
C338 C332 1.516 . S
C339 O323 1.254 . S
C339 O324 1.257 . S
C340 O325 1.266 . S
C340 O326 1.236 . S
C341 C344 1.344 . S
C341 C345 1.328 . S
C341 C347 1.516 . S
C342 C343 1.304 . S
C342 C346 1.323 . S
C343 C342 1.304 . S
C343 C344 1.371 . S
C343 H352 0.930 . S
C344 C341 1.344 . S
C344 C343 1.371 . S
C344 H353 0.931 . S
C345 C341 1.328 . S
C345 C346 1.433 . S
C345 H354 0.931 . S
C346 C342 1.323 . S
C346 C345 1.433 . S
C346 H355 0.933 . S
C347 Dy317 2.738 . S
C347 O327 1.255 . S
C347 O328 1.249 . S
C347 C341 1.516 . S
H348 C334 0.930 . S
H349 C335 0.931 . S
H350 C336 0.931 . S
H351 C337 0.933 . S
H352 C343 0.930 . S
H353 C344 0.931 . S
H354 C345 0.931 . S
H355 C346 0.933 . S
Dy356 O359 2.307 . S
Dy356 O361 2.395 . S
Dy356 O362 2.379 . S
Dy356 O364 2.339 . S
Dy356 O366 2.298 . S
Dy356 O370 2.275 . S
Dy356 C378 2.738 . S
Dy357 O360 2.298 . S
Dy357 O363 2.275 . S
Dy357 O365 2.307 . S
Dy357 O367 2.395 . S
Dy357 O368 2.379 . S
Dy357 O371 2.339 . S
Dy357 C387 2.738 . S
C358 O370 1.254 . S
C358 O371 1.257 . S
O359 Dy356 2.307 . S
O359 C369 1.266 . S
O360 Dy357 2.298 . S
O360 C369 1.236 . S
O361 Dy356 2.395 . S
O361 C378 1.255 . S
O362 Dy356 2.379 . S
O362 C378 1.249 . S
O363 Dy357 2.275 . S
O363 C379 1.254 . S
O364 Dy356 2.339 . S
O364 C379 1.257 . S
O365 Dy357 2.307 . S
O365 C380 1.266 . S
O366 Dy356 2.298 . S
O366 C380 1.236 . S
O367 Dy357 2.395 . S
O367 C387 1.255 . S
O368 Dy357 2.379 . S
O368 C387 1.249 . S
C369 O359 1.266 . S
C369 O360 1.236 . S
O370 Dy356 2.275 . S
O370 C358 1.254 . S
O371 Dy357 2.339 . S
O371 C358 1.257 . S
C372 C375 1.344 . S
C372 C376 1.328 . S
C372 C378 1.516 . S
C373 C374 1.304 . S
C373 C377 1.323 . S
C374 C373 1.304 . S
C374 C375 1.371 . S
C374 H388 0.930 . S
C375 C372 1.344 . S
C375 C374 1.371 . S
C375 H389 0.931 . S
C376 C372 1.328 . S
C376 C377 1.433 . S
C376 H390 0.931 . S
C377 C373 1.323 . S
C377 C376 1.433 . S
C377 H391 0.933 . S
C378 Dy356 2.738 . S
C378 O361 1.255 . S
C378 O362 1.249 . S
C378 C372 1.516 . S
C379 O363 1.254 . S
C379 O364 1.257 . S
C380 O365 1.266 . S
C380 O366 1.236 . S
C381 C384 1.344 . S
C381 C385 1.328 . S
C381 C387 1.516 . S
C382 C383 1.304 . S
C382 C386 1.323 . S
C383 C382 1.304 . S
C383 C384 1.371 . S
C383 H392 0.930 . S
C384 C381 1.344 . S
C384 C383 1.371 . S
C384 H393 0.931 . S
C385 C381 1.328 . S
C385 C386 1.433 . S
C385 H394 0.931 . S
C386 C382 1.323 . S
C386 C385 1.433 . S
C386 H395 0.933 . S
C387 Dy357 2.738 . S
C387 O367 1.255 . S
C387 O368 1.249 . S
C387 C381 1.516 . S
H388 C374 0.930 . S
H389 C375 0.931 . S
H390 C376 0.931 . S
H391 C377 0.933 . S
H392 C383 0.930 . S
H393 C384 0.931 . S
H394 C385 0.931 . S
H395 C386 0.933 . S
Dy396 O399 2.307 . S
Dy396 O401 2.395 . S
Dy396 O402 2.379 . S
Dy396 O404 2.339 . S
Dy396 O406 2.298 . S
Dy396 O410 2.275 . S
Dy396 C418 2.738 . S
Dy397 O400 2.298 . S
Dy397 O403 2.275 . S
Dy397 O405 2.307 . S
Dy397 O407 2.395 . S
Dy397 O408 2.379 . S
Dy397 O411 2.339 . S
Dy397 C427 2.738 . S
C398 O410 1.254 . S
C398 O411 1.257 . S
O399 Dy396 2.307 . S
O399 C409 1.266 . S
O400 Dy397 2.298 . S
O400 C409 1.236 . S
O401 Dy396 2.395 . S
O401 C418 1.255 . S
O402 Dy396 2.379 . S
O402 C418 1.249 . S
O403 Dy397 2.275 . S
O403 C419 1.254 . S
O404 Dy396 2.339 . S
O404 C419 1.257 . S
O405 Dy397 2.307 . S
O405 C420 1.266 . S
O406 Dy396 2.298 . S
O406 C420 1.236 . S
O407 Dy397 2.395 . S
O407 C427 1.255 . S
O408 Dy397 2.379 . S
O408 C427 1.249 . S
C409 O399 1.266 . S
C409 O400 1.236 . S
O410 Dy396 2.275 . S
O410 C398 1.254 . S
O411 Dy397 2.339 . S
O411 C398 1.257 . S
C412 C415 1.344 . S
C412 C416 1.328 . S
C412 C418 1.516 . S
C413 C414 1.304 . S
C413 C417 1.323 . S
C414 C413 1.304 . S
C414 C415 1.371 . S
C414 H428 0.930 . S
C415 C412 1.344 . S
C415 C414 1.371 . S
C415 H429 0.931 . S
C416 C412 1.328 . S
C416 C417 1.433 . S
C416 H430 0.931 . S
C417 C413 1.323 . S
C417 C416 1.433 . S
C417 H431 0.933 . S
C418 Dy396 2.738 . S
C418 O401 1.255 . S
C418 O402 1.249 . S
C418 C412 1.516 . S
C419 O403 1.254 . S
C419 O404 1.257 . S
C420 O405 1.266 . S
C420 O406 1.236 . S
C421 C424 1.344 . S
C421 C425 1.328 . S
C421 C427 1.516 . S
C422 C423 1.304 . S
C422 C426 1.323 . S
C423 C422 1.304 . S
C423 C424 1.371 . S
C423 H432 0.930 . S
C424 C421 1.344 . S
C424 C423 1.371 . S
C424 H433 0.931 . S
C425 C421 1.328 . S
C425 C426 1.433 . S
C425 H434 0.931 . S
C426 C422 1.323 . S
C426 C425 1.433 . S
C426 H435 0.933 . S
C427 Dy397 2.738 . S
C427 O407 1.255 . S
C427 O408 1.249 . S
C427 C421 1.516 . S
H428 C414 0.930 . S
H429 C415 0.931 . S
H430 C416 0.931 . S
H431 C417 0.933 . S
H432 C423 0.930 . S
H433 C424 0.931 . S
H434 C425 0.931 . S
H435 C426 0.933 . S
Dy436 O439 2.307 . S
Dy436 O441 2.395 . S
Dy436 O442 2.379 . S
Dy436 O444 2.339 . S
Dy436 O446 2.298 . S
Dy436 O450 2.275 . S
Dy436 C458 2.738 . S
Dy437 O440 2.298 . S
Dy437 O443 2.275 . S
Dy437 O445 2.307 . S
Dy437 O447 2.395 . S
Dy437 O448 2.379 . S
Dy437 O451 2.339 . S
Dy437 C467 2.738 . S
C438 O450 1.254 . S
C438 O451 1.257 . S
O439 Dy436 2.307 . S
O439 C449 1.266 . S
O440 Dy437 2.298 . S
O440 C449 1.236 . S
O441 Dy436 2.395 . S
O441 C458 1.255 . S
O442 Dy436 2.379 . S
O442 C458 1.249 . S
O443 Dy437 2.275 . S
O443 C459 1.254 . S
O444 Dy436 2.339 . S
O444 C459 1.257 . S
O445 Dy437 2.307 . S
O445 C460 1.266 . S
O446 Dy436 2.298 . S
O446 C460 1.236 . S
O447 Dy437 2.395 . S
O447 C467 1.255 . S
O448 Dy437 2.379 . S
O448 C467 1.249 . S
C449 O439 1.266 . S
C449 O440 1.236 . S
O450 Dy436 2.275 . S
O450 C438 1.254 . S
O451 Dy437 2.339 . S
O451 C438 1.257 . S
C452 C455 1.344 . S
C452 C456 1.328 . S
C452 C458 1.516 . S
C453 C454 1.304 . S
C453 C457 1.323 . S
C454 C453 1.304 . S
C454 C455 1.371 . S
C454 H468 0.930 . S
C455 C452 1.344 . S
C455 C454 1.371 . S
C455 H469 0.931 . S
C456 C452 1.328 . S
C456 C457 1.433 . S
C456 H470 0.931 . S
C457 C453 1.323 . S
C457 C456 1.433 . S
C457 H471 0.933 . S
C458 Dy436 2.738 . S
C458 O441 1.255 . S
C458 O442 1.249 . S
C458 C452 1.516 . S
C459 O443 1.254 . S
C459 O444 1.257 . S
C460 O445 1.266 . S
C460 O446 1.236 . S
C461 C464 1.344 . S
C461 C465 1.328 . S
C461 C467 1.516 . S
C462 C463 1.304 . S
C462 C466 1.323 . S
C463 C462 1.304 . S
C463 C464 1.371 . S
C463 H472 0.930 . S
C464 C461 1.344 . S
C464 C463 1.371 . S
C464 H473 0.931 . S
C465 C461 1.328 . S
C465 C466 1.433 . S
C465 H474 0.931 . S
C466 C462 1.323 . S
C466 C465 1.433 . S
C466 H475 0.933 . S
C467 Dy437 2.738 . S
C467 O447 1.255 . S
C467 O448 1.249 . S
C467 C461 1.516 . S
H468 C454 0.930 . S
H469 C455 0.931 . S
H470 C456 0.931 . S
H471 C457 0.933 . S
H472 C463 0.930 . S
H473 C464 0.931 . S
H474 C465 0.931 . S
H475 C466 0.933 . S
Dy476 O479 2.307 . S
Dy476 O481 2.395 . S
Dy476 O482 2.379 . S
Dy476 O484 2.339 . S
Dy476 O486 2.298 . S
Dy476 O490 2.275 . S
Dy476 C498 2.738 . S
Dy477 O480 2.298 . S
Dy477 O483 2.275 . S
Dy477 O485 2.307 . S
Dy477 O487 2.395 . S
Dy477 O488 2.379 . S
Dy477 O491 2.339 . S
Dy477 C507 2.738 . S
C478 O490 1.254 . S
C478 O491 1.257 . S
O479 Dy476 2.307 . S
O479 C489 1.266 . S
O480 Dy477 2.298 . S
O480 C489 1.236 . S
O481 Dy476 2.395 . S
O481 C498 1.255 . S
O482 Dy476 2.379 . S
O482 C498 1.249 . S
O483 Dy477 2.275 . S
O483 C499 1.254 . S
O484 Dy476 2.339 . S
O484 C499 1.257 . S
O485 Dy477 2.307 . S
O485 C500 1.266 . S
O486 Dy476 2.298 . S
O486 C500 1.236 . S
O487 Dy477 2.395 . S
O487 C507 1.255 . S
O488 Dy477 2.379 . S
O488 C507 1.249 . S
C489 O479 1.266 . S
C489 O480 1.236 . S
O490 Dy476 2.275 . S
O490 C478 1.254 . S
O491 Dy477 2.339 . S
O491 C478 1.257 . S
C492 C495 1.344 . S
C492 C496 1.328 . S
C492 C498 1.516 . S
C493 C494 1.304 . S
C493 C497 1.323 . S
C494 C493 1.304 . S
C494 C495 1.371 . S
C494 H508 0.930 . S
C495 C492 1.344 . S
C495 C494 1.371 . S
C495 H509 0.931 . S
C496 C492 1.328 . S
C496 C497 1.433 . S
C496 H510 0.931 . S
C497 C493 1.323 . S
C497 C496 1.433 . S
C497 H511 0.933 . S
C498 Dy476 2.738 . S
C498 O481 1.255 . S
C498 O482 1.249 . S
C498 C492 1.516 . S
C499 O483 1.254 . S
C499 O484 1.257 . S
C500 O485 1.266 . S
C500 O486 1.236 . S
C501 C504 1.344 . S
C501 C505 1.328 . S
C501 C507 1.516 . S
C502 C503 1.304 . S
C502 C506 1.323 . S
C503 C502 1.304 . S
C503 C504 1.371 . S
C503 H512 0.930 . S
C504 C501 1.344 . S
C504 C503 1.371 . S
C504 H513 0.931 . S
C505 C501 1.328 . S
C505 C506 1.433 . S
C505 H514 0.931 . S
C506 C502 1.323 . S
C506 C505 1.433 . S
C506 H515 0.933 . S
C507 Dy477 2.738 . S
C507 O487 1.255 . S
C507 O488 1.249 . S
C507 C501 1.516 . S
H508 C494 0.930 . S
H509 C495 0.931 . S
H510 C496 0.931 . S
H511 C497 0.933 . S
H512 C503 0.930 . S
H513 C504 0.931 . S
H514 C505 0.931 . S
H515 C506 0.933 . S
Dy516 O519 2.307 . S
Dy516 O521 2.395 . S
Dy516 O522 2.379 . S
Dy516 O524 2.339 . S
Dy516 O526 2.298 . S
Dy516 O530 2.275 . S
Dy516 C538 2.738 . S
Dy517 O520 2.298 . S
Dy517 O523 2.275 . S
Dy517 O525 2.307 . S
Dy517 O527 2.395 . S
Dy517 O528 2.379 . S
Dy517 O531 2.339 . S
Dy517 C547 2.738 . S
C518 O530 1.254 . S
C518 O531 1.257 . S
O519 Dy516 2.307 . S
O519 C529 1.266 . S
O520 Dy517 2.298 . S
O520 C529 1.236 . S
O521 Dy516 2.395 . S
O521 C538 1.255 . S
O522 Dy516 2.379 . S
O522 C538 1.249 . S
O523 Dy517 2.275 . S
O523 C539 1.254 . S
O524 Dy516 2.339 . S
O524 C539 1.257 . S
O525 Dy517 2.307 . S
O525 C540 1.266 . S
O526 Dy516 2.298 . S
O526 C540 1.236 . S
O527 Dy517 2.395 . S
O527 C547 1.255 . S
O528 Dy517 2.379 . S
O528 C547 1.249 . S
C529 O519 1.266 . S
C529 O520 1.236 . S
O530 Dy516 2.275 . S
O530 C518 1.254 . S
O531 Dy517 2.339 . S
O531 C518 1.257 . S
C532 C535 1.344 . S
C532 C536 1.328 . S
C532 C538 1.516 . S
C533 C534 1.304 . S
C533 C537 1.323 . S
C534 C533 1.304 . S
C534 C535 1.371 . S
C534 H548 0.930 . S
C535 C532 1.344 . S
C535 C534 1.371 . S
C535 H549 0.931 . S
C536 C532 1.328 . S
C536 C537 1.433 . S
C536 H550 0.931 . S
C537 C533 1.323 . S
C537 C536 1.433 . S
C537 H551 0.933 . S
C538 Dy516 2.738 . S
C538 O521 1.255 . S
C538 O522 1.249 . S
C538 C532 1.516 . S
C539 O523 1.254 . S
C539 O524 1.257 . S
C540 O525 1.266 . S
C540 O526 1.236 . S
C541 C544 1.344 . S
C541 C545 1.328 . S
C541 C547 1.516 . S
C542 C543 1.304 . S
C542 C546 1.323 . S
C543 C542 1.304 . S
C543 C544 1.371 . S
C543 H552 0.930 . S
C544 C541 1.344 . S
C544 C543 1.371 . S
C544 H553 0.931 . S
C545 C541 1.328 . S
C545 C546 1.433 . S
C545 H554 0.931 . S
C546 C542 1.323 . S
C546 C545 1.433 . S
C546 H555 0.933 . S
C547 Dy517 2.738 . S
C547 O527 1.255 . S
C547 O528 1.249 . S
C547 C541 1.516 . S
H548 C534 0.930 . S
H549 C535 0.931 . S
H550 C536 0.931 . S
H551 C537 0.933 . S
H552 C543 0.930 . S
H553 C544 0.931 . S
H554 C545 0.931 . S
H555 C546 0.933 . S
Dy556 O559 2.307 . S
Dy556 O561 2.395 . S
Dy556 O562 2.379 . S
Dy556 O564 2.339 . S
Dy556 O566 2.298 . S
Dy556 O570 2.275 . S
Dy556 C578 2.738 . S
Dy557 O560 2.298 . S
Dy557 O563 2.275 . S
Dy557 O565 2.307 . S
Dy557 O567 2.395 . S
Dy557 O568 2.379 . S
Dy557 O571 2.339 . S
Dy557 C587 2.738 . S
C558 O570 1.254 . S
C558 O571 1.257 . S
O559 Dy556 2.307 . S
O559 C569 1.266 . S
O560 Dy557 2.298 . S
O560 C569 1.236 . S
O561 Dy556 2.395 . S
O561 C578 1.255 . S
O562 Dy556 2.379 . S
O562 C578 1.249 . S
O563 Dy557 2.275 . S
O563 C579 1.254 . S
O564 Dy556 2.339 . S
O564 C579 1.257 . S
O565 Dy557 2.307 . S
O565 C580 1.266 . S
O566 Dy556 2.298 . S
O566 C580 1.236 . S
O567 Dy557 2.395 . S
O567 C587 1.255 . S
O568 Dy557 2.379 . S
O568 C587 1.249 . S
C569 O559 1.266 . S
C569 O560 1.236 . S
O570 Dy556 2.275 . S
O570 C558 1.254 . S
O571 Dy557 2.339 . S
O571 C558 1.257 . S
C572 C575 1.344 . S
C572 C576 1.328 . S
C572 C578 1.516 . S
C573 C574 1.304 . S
C573 C577 1.323 . S
C574 C573 1.304 . S
C574 C575 1.371 . S
C574 H588 0.930 . S
C575 C572 1.344 . S
C575 C574 1.371 . S
C575 H589 0.931 . S
C576 C572 1.328 . S
C576 C577 1.433 . S
C576 H590 0.931 . S
C577 C573 1.323 . S
C577 C576 1.433 . S
C577 H591 0.933 . S
C578 Dy556 2.738 . S
C578 O561 1.255 . S
C578 O562 1.249 . S
C578 C572 1.516 . S
C579 O563 1.254 . S
C579 O564 1.257 . S
C580 O565 1.266 . S
C580 O566 1.236 . S
C581 C584 1.344 . S
C581 C585 1.328 . S
C581 C587 1.516 . S
C582 C583 1.304 . S
C582 C586 1.323 . S
C583 C582 1.304 . S
C583 C584 1.371 . S
C583 H592 0.930 . S
C584 C581 1.344 . S
C584 C583 1.371 . S
C584 H593 0.931 . S
C585 C581 1.328 . S
C585 C586 1.433 . S
C585 H594 0.931 . S
C586 C582 1.323 . S
C586 C585 1.433 . S
C586 H595 0.933 . S
C587 Dy557 2.738 . S
C587 O567 1.255 . S
C587 O568 1.249 . S
C587 C581 1.516 . S
H588 C574 0.930 . S
H589 C575 0.931 . S
H590 C576 0.931 . S
H591 C577 0.933 . S
H592 C583 0.930 . S
H593 C584 0.931 . S
H594 C585 0.931 . S
H595 C586 0.933 . S
H596 C602 0.930 . S
H597 C606 0.930 . S
H598 C611 0.929 . S
H599 C609 0.929 . S
H600 C604 0.929 . S
H601 C610 0.929 . S
C602 H596 0.930 . S
C602 C603 1.367 . S
C602 C610 1.378 . S
C603 C602 1.367 . S
C603 C611 1.433 . S
C604 H600 0.929 . S
C604 C606 1.378 . S
C604 C608 1.350 . S
C605 C608 1.463 . S
C605 C610 1.350 . S
C605 N613 1.427 . S
C606 H597 0.930 . S
C606 C604 1.378 . S
C606 C607 1.367 . S
C607 C606 1.367 . S
C607 C609 1.433 . S
C608 C604 1.350 . S
C608 C605 1.463 . S
C608 N612 1.427 . S
C609 H599 0.929 . S
C609 C607 1.433 . S
C609 N612 1.384 . S
C610 H601 0.929 . S
C610 C602 1.378 . S
C610 C605 1.350 . S
C611 H598 0.929 . S
C611 C603 1.433 . S
C611 N613 1.384 . S
N612 C608 1.427 . S
N612 C609 1.384 . S
N613 C605 1.427 . S
N613 C611 1.384 . S
H614 C620 0.930 . S
H615 C624 0.930 . S
H616 C629 0.929 . S
H617 C627 0.929 . S
H618 C622 0.929 . S
H619 C628 0.929 . S
C620 H614 0.930 . S
C620 C621 1.367 . S
C620 C628 1.378 . S
C621 C620 1.367 . S
C621 C629 1.433 . S
C622 H618 0.929 . S
C622 C624 1.378 . S
C622 C626 1.350 . S
C623 C626 1.463 . S
C623 C628 1.350 . S
C623 N631 1.427 . S
C624 H615 0.930 . S
C624 C622 1.378 . S
C624 C625 1.367 . S
C625 C624 1.367 . S
C625 C627 1.433 . S
C626 C622 1.350 . S
C626 C623 1.463 . S
C626 N630 1.427 . S
C627 H617 0.929 . S
C627 C625 1.433 . S
C627 N630 1.384 . S
C628 H619 0.929 . S
C628 C620 1.378 . S
C628 C623 1.350 . S
C629 H616 0.929 . S
C629 C621 1.433 . S
C629 N631 1.384 . S
N630 C626 1.427 . S
N630 C627 1.384 . S
N631 C623 1.427 . S
N631 C629 1.384 . S
H632 C638 0.930 . S
H633 C642 0.930 . S
H634 C647 0.929 . S
H635 C645 0.929 . S
H636 C640 0.929 . S
H637 C646 0.929 . S
C638 H632 0.930 . S
C638 C639 1.367 . S
C638 C646 1.378 . S
C639 C638 1.367 . S
C639 C647 1.433 . S
C640 H636 0.929 . S
C640 C642 1.378 . S
C640 C644 1.350 . S
C641 C644 1.463 . S
C641 C646 1.350 . S
C641 N649 1.427 . S
C642 H633 0.930 . S
C642 C640 1.378 . S
C642 C643 1.367 . S
C643 C642 1.367 . S
C643 C645 1.433 . S
C644 C640 1.350 . S
C644 C641 1.463 . S
C644 N648 1.427 . S
C645 H635 0.929 . S
C645 C643 1.433 . S
C645 N648 1.384 . S
C646 H637 0.929 . S
C646 C638 1.378 . S
C646 C641 1.350 . S
C647 H634 0.929 . S
C647 C639 1.433 . S
C647 N649 1.384 . S
N648 C644 1.427 . S
N648 C645 1.384 . S
N649 C641 1.427 . S
N649 C647 1.384 . S
H650 C656 0.930 . S
H651 C660 0.930 . S
H652 C665 0.929 . S
H653 C663 0.929 . S
H654 C658 0.929 . S
H655 C664 0.929 . S
C656 H650 0.930 . S
C656 C657 1.367 . S
C656 C664 1.378 . S
C657 C656 1.367 . S
C657 C665 1.433 . S
C658 H654 0.929 . S
C658 C660 1.378 . S
C658 C662 1.350 . S
C659 C662 1.463 . S
C659 C664 1.350 . S
C659 N667 1.427 . S
C660 H651 0.930 . S
C660 C658 1.378 . S
C660 C661 1.367 . S
C661 C660 1.367 . S
C661 C663 1.433 . S
C662 C658 1.350 . S
C662 C659 1.463 . S
C662 N666 1.427 . S
C663 H653 0.929 . S
C663 C661 1.433 . S
C663 N666 1.384 . S
C664 H655 0.929 . S
C664 C656 1.378 . S
C664 C659 1.350 . S
C665 H652 0.929 . S
C665 C657 1.433 . S
C665 N667 1.384 . S
N666 C662 1.427 . S
N666 C663 1.384 . S
N667 C659 1.427 . S
N667 C665 1.384 . S
H668 C674 0.930 . S
H669 C678 0.930 . S
H670 C683 0.929 . S
H671 C681 0.929 . S
H672 C676 0.929 . S
H673 C682 0.929 . S
C674 H668 0.930 . S
C674 C675 1.367 . S
C674 C682 1.378 . S
C675 C674 1.367 . S
C675 C683 1.433 . S
C676 H672 0.929 . S
C676 C678 1.378 . S
C676 C680 1.350 . S
C677 C680 1.463 . S
C677 C682 1.350 . S
C677 N685 1.427 . S
C678 H669 0.930 . S
C678 C676 1.378 . S
C678 C679 1.367 . S
C679 C678 1.367 . S
C679 C681 1.433 . S
C680 C676 1.350 . S
C680 C677 1.463 . S
C680 N684 1.427 . S
C681 H671 0.929 . S
C681 C679 1.433 . S
C681 N684 1.384 . S
C682 H673 0.929 . S
C682 C674 1.378 . S
C682 C677 1.350 . S
C683 H670 0.929 . S
C683 C675 1.433 . S
C683 N685 1.384 . S
N684 C680 1.427 . S
N684 C681 1.384 . S
N685 C677 1.427 . S
N685 C683 1.384 . S
H686 C692 0.930 . S
H687 C696 0.930 . S
H688 C701 0.929 . S
H689 C699 0.929 . S
H690 C694 0.929 . S
H691 C700 0.929 . S
C692 H686 0.930 . S
C692 C693 1.367 . S
C692 C700 1.378 . S
C693 C692 1.367 . S
C693 C701 1.433 . S
C694 H690 0.929 . S
C694 C696 1.378 . S
C694 C698 1.350 . S
C695 C698 1.463 . S
C695 C700 1.350 . S
C695 N703 1.427 . S
C696 H687 0.930 . S
C696 C694 1.378 . S
C696 C697 1.367 . S
C697 C696 1.367 . S
C697 C699 1.433 . S
C698 C694 1.350 . S
C698 C695 1.463 . S
C698 N702 1.427 . S
C699 H689 0.929 . S
C699 C697 1.433 . S
C699 N702 1.384 . S
C700 H691 0.929 . S
C700 C692 1.378 . S
C700 C695 1.350 . S
C701 H688 0.929 . S
C701 C693 1.433 . S
C701 N703 1.384 . S
N702 C698 1.427 . S
N702 C699 1.384 . S
N703 C695 1.427 . S
N703 C701 1.384 . S
H704 C710 0.930 . S
H705 C714 0.930 . S
H706 C719 0.929 . S
H707 C717 0.929 . S
H708 C712 0.929 . S
H709 C718 0.929 . S
C710 H704 0.930 . S
C710 C711 1.367 . S
C710 C718 1.378 . S
C711 C710 1.367 . S
C711 C719 1.433 . S
C712 H708 0.929 . S
C712 C714 1.378 . S
C712 C716 1.350 . S
C713 C716 1.463 . S
C713 C718 1.350 . S
C713 N721 1.427 . S
C714 H705 0.930 . S
C714 C712 1.378 . S
C714 C715 1.367 . S
C715 C714 1.367 . S
C715 C717 1.433 . S
C716 C712 1.350 . S
C716 C713 1.463 . S
C716 N720 1.427 . S
C717 H707 0.929 . S
C717 C715 1.433 . S
C717 N720 1.384 . S
C718 H709 0.929 . S
C718 C710 1.378 . S
C718 C713 1.350 . S
C719 H706 0.929 . S
C719 C711 1.433 . S
C719 N721 1.384 . S
N720 C716 1.427 . S
N720 C717 1.384 . S
N721 C713 1.427 . S
N721 C719 1.384 . S
H722 C728 0.930 1_455 S
H723 C732 0.930 . S
H724 C737 0.929 . S
H725 C735 0.929 . S
H726 C730 0.929 . S
H727 C736 0.929 . S
C728 H722 0.930 1_655 S
C728 C729 1.367 . S
C728 C736 1.378 . S
C729 C728 1.367 . S
C729 C737 1.433 . S
C730 H726 0.929 . S
C730 C732 1.378 . S
C730 C734 1.350 . S
C731 C734 1.463 . S
C731 C736 1.350 . S
C731 N739 1.427 . S
C732 H723 0.930 . S
C732 C730 1.378 . S
C732 C733 1.367 . S
C733 C732 1.367 . S
C733 C735 1.433 . S
C734 C730 1.350 . S
C734 C731 1.463 . S
C734 N738 1.427 . S
C735 H725 0.929 . S
C735 C733 1.433 . S
C735 N738 1.384 . S
C736 H727 0.929 . S
C736 C728 1.378 . S
C736 C731 1.350 . S
C737 H724 0.929 . S
C737 C729 1.433 . S
C737 N739 1.384 . S
N738 C734 1.427 . S
N738 C735 1.384 . S
N739 C731 1.427 . S
N739 C737 1.384 . S
H740 C746 0.930 . S
H741 C750 0.930 . S
H742 C755 0.929 . S
H743 C753 0.929 . S
H744 C748 0.929 . S
H745 C754 0.929 . S
C746 H740 0.930 . S
C746 C747 1.367 . S
C746 C754 1.378 . S
C747 C746 1.367 . S
C747 C755 1.433 . S
C748 H744 0.929 . S
C748 C750 1.378 . S
C748 C752 1.350 . S
C749 C752 1.463 . S
C749 C754 1.350 . S
C749 N757 1.427 . S
C750 H741 0.930 . S
C750 C748 1.378 . S
C750 C751 1.367 . S
C751 C750 1.367 . S
C751 C753 1.433 . S
C752 C748 1.350 . S
C752 C749 1.463 . S
C752 N756 1.427 . S
C753 H743 0.929 . S
C753 C751 1.433 . S
C753 N756 1.384 . S
C754 H745 0.929 . S
C754 C746 1.378 . S
C754 C749 1.350 . S
C755 H742 0.929 . S
C755 C747 1.433 . S
C755 N757 1.384 . S
N756 C752 1.427 . S
N756 C753 1.384 . S
N757 C749 1.427 . S
N757 C755 1.384 . S
H758 C764 0.930 . S
H759 C768 0.930 . S
H760 C773 0.929 . S
H761 C771 0.929 . S
H762 C766 0.929 . S
H763 C772 0.926 . S
C764 H758 0.930 . S
C764 C765 1.367 . S
C764 C772 1.378 1_455 S
C765 C764 1.367 . S
C765 C773 1.433 1_455 S
C766 H762 0.929 . S
C766 C768 1.378 . S
C766 C770 1.350 . S
C767 C770 1.463 . S
C767 C772 1.350 . S
C767 N775 1.427 . S
C768 H759 0.930 . S
C768 C766 1.378 . S
C768 C769 1.367 . S
C769 C768 1.367 . S
C769 C771 1.433 . S
C770 C766 1.350 . S
C770 C767 1.463 . S
C770 N774 1.427 . S
C771 H761 0.929 . S
C771 C769 1.433 . S
C771 N774 1.384 . S
C772 H763 0.926 . S
C772 C764 1.378 1_655 S
C772 C767 1.350 . S
C773 H760 0.929 . S
C773 C765 1.433 1_655 S
C773 N775 1.384 . S
N774 C770 1.427 . S
N774 C771 1.384 . S
N775 C767 1.427 . S
N775 C773 1.384 . S
H776 C782 0.930 . S
H777 C786 0.930 . S
H778 C791 0.929 . S
H779 C789 0.929 . S
H780 C784 0.929 . S
H781 C790 0.929 . S
C782 H776 0.930 . S
C782 C783 1.367 . S
C782 C790 1.378 . S
C783 C782 1.367 . S
C783 C791 1.433 . S
C784 H780 0.929 . S
C784 C786 1.378 . S
C784 C788 1.350 . S
C785 C788 1.463 . S
C785 C790 1.350 . S
C785 N793 1.427 . S
C786 H777 0.930 . S
C786 C784 1.378 . S
C786 C787 1.367 . S
C787 C786 1.367 . S
C787 C789 1.433 . S
C788 C784 1.350 . S
C788 C785 1.463 . S
C788 N792 1.427 . S
C789 H779 0.929 . S
C789 C787 1.433 . S
C789 N792 1.384 . S
C790 H781 0.929 . S
C790 C782 1.378 . S
C790 C785 1.350 . S
C791 H778 0.929 . S
C791 C783 1.433 . S
C791 N793 1.384 . S
N792 C788 1.427 . S
N792 C789 1.384 . S
N793 C785 1.427 . S
N793 C791 1.384 . S
H794 C800 0.930 . S
H795 C804 0.930 . S
H796 C809 0.929 . S
H797 C807 0.929 . S
H798 C802 0.929 . S
H799 C808 0.929 . S
C800 H794 0.930 . S
C800 C801 1.367 . S
C800 C808 1.378 . S
C801 C800 1.367 . S
C801 C809 1.433 . S
C802 H798 0.929 . S
C802 C804 1.378 . S
C802 C806 1.350 . S
C803 C806 1.463 . S
C803 C808 1.350 . S
C803 N811 1.427 . S
C804 H795 0.930 . S
C804 C802 1.378 . S
C804 C805 1.367 . S
C805 C804 1.367 . S
C805 C807 1.433 . S
C806 C802 1.350 . S
C806 C803 1.463 . S
C806 N810 1.427 . S
C807 H797 0.929 . S
C807 C805 1.433 . S
C807 N810 1.384 . S
C808 H799 0.929 . S
C808 C800 1.378 . S
C808 C803 1.350 . S
C809 H796 0.929 . S
C809 C801 1.433 . S
C809 N811 1.384 . S
N810 C806 1.427 . S
N810 C807 1.384 . S
N811 C803 1.427 . S
N811 C809 1.384 . S
H812 C818 0.930 . S
H813 C822 0.930 . S
H814 C827 0.929 . S
H815 C825 0.929 . S
H816 C820 0.929 . S
H817 C826 0.929 . S
C818 H812 0.930 . S
C818 C819 1.367 . S
C818 C826 1.378 . S
C819 C818 1.367 . S
C819 C827 1.433 . S
C820 H816 0.929 . S
C820 C822 1.378 . S
C820 C824 1.350 . S
C821 C824 1.463 . S
C821 C826 1.350 . S
C821 N829 1.427 . S
C822 H813 0.930 . S
C822 C820 1.378 . S
C822 C823 1.367 . S
C823 C822 1.367 . S
C823 C825 1.433 . S
C824 C820 1.350 . S
C824 C821 1.463 . S
C824 N828 1.427 . S
C825 H815 0.929 . S
C825 C823 1.433 . S
C825 N828 1.384 . S
C826 H817 0.929 . S
C826 C818 1.378 . S
C826 C821 1.350 . S
C827 H814 0.929 . S
C827 C819 1.433 . S
C827 N829 1.384 . S
N828 C824 1.427 . S
N828 C825 1.384 . S
N829 C821 1.427 . S
N829 C827 1.384 . S
H830 C836 0.930 . S
H831 C840 0.930 . S
H832 C845 0.929 . S
H833 C843 0.929 . S
H834 C838 0.929 . S
H835 C844 0.929 . S
C836 H830 0.930 . S
C836 C837 1.367 . S
C836 C844 1.378 . S
C837 C836 1.367 . S
C837 C845 1.433 . S
C838 H834 0.929 . S
C838 C840 1.378 . S
C838 C842 1.350 . S
C839 C842 1.463 . S
C839 C844 1.350 . S
C839 N847 1.427 . S
C840 H831 0.930 . S
C840 C838 1.378 . S
C840 C841 1.367 . S
C841 C840 1.367 . S
C841 C843 1.433 . S
C842 C838 1.350 . S
C842 C839 1.463 . S
C842 N846 1.427 . S
C843 H833 0.929 . S
C843 C841 1.433 . S
C843 N846 1.384 . S
C844 H835 0.929 . S
C844 C836 1.378 . S
C844 C839 1.350 . S
C845 H832 0.929 . S
C845 C837 1.433 . S
C845 N847 1.384 . S
N846 C842 1.427 . S
N846 C843 1.384 . S
N847 C839 1.427 . S
N847 C845 1.384 . S
H848 C854 0.930 . S
H849 C858 0.930 . S
H850 C863 0.929 . S
H851 C861 0.929 . S
H852 C856 0.929 . S
H853 C862 0.929 . S
C854 H848 0.930 . S
C854 C855 1.367 . S
C854 C862 1.378 . S
C855 C854 1.367 . S
C855 C863 1.433 . S
C856 H852 0.929 . S
C856 C858 1.378 . S
C856 C860 1.350 . S
C857 C860 1.463 . S
C857 C862 1.350 . S
C857 N865 1.427 . S
C858 H849 0.930 . S
C858 C856 1.378 . S
C858 C859 1.367 . S
C859 C858 1.367 . S
C859 C861 1.433 . S
C860 C856 1.350 . S
C860 C857 1.463 . S
C860 N864 1.427 . S
C861 H851 0.929 . S
C861 C859 1.433 . S
C861 N864 1.384 . S
C862 H853 0.929 . S
C862 C854 1.378 . S
C862 C857 1.350 . S
C863 H850 0.929 . S
C863 C855 1.433 . S
C863 N865 1.384 . S
N864 C860 1.427 . S
N864 C861 1.384 . S
N865 C857 1.427 . S
N865 C863 1.384 . S
H866 C872 0.930 . S
H867 C876 0.930 . S
H868 C881 0.929 . S
H869 C879 0.929 . S
H870 C874 0.929 . S
H871 C880 0.929 . S
C872 H866 0.930 . S
C872 C873 1.367 . S
C872 C880 1.378 . S
C873 C872 1.367 . S
C873 C881 1.433 . S
C874 H870 0.929 . S
C874 C876 1.378 . S
C874 C878 1.350 . S
C875 C878 1.463 . S
C875 C880 1.350 . S
C875 N883 1.427 . S
C876 H867 0.930 . S
C876 C874 1.378 . S
C876 C877 1.367 . S
C877 C876 1.367 . S
C877 C879 1.433 . S
C878 C874 1.350 . S
C878 C875 1.463 . S
C878 N882 1.427 . S
C879 H869 0.929 . S
C879 C877 1.433 . S
C879 N882 1.384 . S
C880 H871 0.929 . S
C880 C872 1.378 . S
C880 C875 1.350 . S
C881 H868 0.929 . S
C881 C873 1.433 . S
C881 N883 1.384 . S
N882 C878 1.427 . S
N882 C879 1.384 . S
N883 C875 1.427 . S
N883 C881 1.384 . S
H884 C890 0.930 . S
H885 C894 0.930 . S
H886 C899 0.929 . S
H887 C897 0.929 . S
H888 C892 0.929 . S
H889 C898 0.929 . S
C890 H884 0.930 . S
C890 C891 1.367 . S
C890 C898 1.378 . S
C891 C890 1.367 . S
C891 C899 1.433 . S
C892 H888 0.929 . S
C892 C894 1.378 . S
C892 C896 1.350 . S
C893 C896 1.463 . S
C893 C898 1.350 . S
C893 N901 1.427 . S
C894 H885 0.930 . S
C894 C892 1.378 . S
C894 C895 1.367 . S
C895 C894 1.367 . S
C895 C897 1.433 . S
C896 C892 1.350 . S
C896 C893 1.463 . S
C896 N900 1.427 . S
C897 H887 0.929 . S
C897 C895 1.433 . S
C897 N900 1.384 . S
C898 H889 0.929 . S
C898 C890 1.378 . S
C898 C893 1.350 . S
C899 H886 0.929 . S
C899 C891 1.433 . S
C899 N901 1.384 . S
N900 C896 1.427 . S
N900 C897 1.384 . S
N901 C893 1.427 . S
N901 C899 1.384 . S
H902 C908 0.930 . S
H903 C912 0.930 . S
H904 C917 0.929 . S
H905 C915 0.929 . S
H906 C910 0.929 . S
H907 C916 0.929 . S
C908 H902 0.930 . S
C908 C909 1.367 . S
C908 C916 1.378 . S
C909 C908 1.367 . S
C909 C917 1.433 . S
C910 H906 0.929 . S
C910 C912 1.378 . S
C910 C914 1.350 . S
C911 C914 1.463 . S
C911 C916 1.350 . S
C911 N919 1.427 . S
C912 H903 0.930 . S
C912 C910 1.378 . S
C912 C913 1.367 . S
C913 C912 1.367 . S
C913 C915 1.433 . S
C914 C910 1.350 . S
C914 C911 1.463 . S
C914 N918 1.427 . S
C915 H905 0.929 . S
C915 C913 1.433 . S
C915 N918 1.384 . S
C916 H907 0.929 . S
C916 C908 1.378 . S
C916 C911 1.350 . S
C917 H904 0.929 . S
C917 C909 1.433 . S
C917 N919 1.384 . S
N918 C914 1.427 . S
N918 C915 1.384 . S
N919 C911 1.427 . S
N919 C917 1.384 . S
H920 C926 0.930 . S
H921 C930 0.930 . S
H922 C935 0.929 . S
H923 C933 0.929 . S
H924 C928 0.929 . S
H925 C934 0.929 . S
C926 H920 0.930 . S
C926 C927 1.367 . S
C926 C934 1.378 . S
C927 C926 1.367 . S
C927 C935 1.433 . S
C928 H924 0.929 . S
C928 C930 1.378 . S
C928 C932 1.350 . S
C929 C932 1.463 . S
C929 C934 1.350 . S
C929 N937 1.427 . S
C930 H921 0.930 . S
C930 C928 1.378 . S
C930 C931 1.367 . S
C931 C930 1.367 . S
C931 C933 1.433 . S
C932 C928 1.350 . S
C932 C929 1.463 . S
C932 N936 1.427 . S
C933 H923 0.929 . S
C933 C931 1.433 . S
C933 N936 1.384 . S
C934 H925 0.929 . S
C934 C926 1.378 . S
C934 C929 1.350 . S
C935 H922 0.929 . S
C935 C927 1.433 . S
C935 N937 1.384 . S
N936 C932 1.427 . S
N936 C933 1.384 . S
N937 C929 1.427 . S
N937 C935 1.384 . S
H938 C944 0.930 . S
H939 C948 0.930 . S
H940 C953 0.929 1_554 S
H941 C951 0.929 . S
H942 C946 0.929 . S
H943 C952 0.931 . S
C944 H938 0.930 . S
C944 C945 1.367 . S
C944 C952 1.371 1_455 S
C945 C944 1.367 . S
C945 C953 1.433 . S
C946 H942 0.929 . S
C946 C948 1.378 . S
C946 C950 1.350 . S
C947 C950 1.463 . S
C947 C952 1.354 . S
C947 N955 1.427 1_655 S
C948 H939 0.930 . S
C948 C946 1.378 . S
C948 C949 1.367 . S
C949 C948 1.367 . S
C949 C951 1.433 . S
C950 C946 1.350 . S
C950 C947 1.463 . S
C950 N954 1.427 . S
C951 H941 0.929 . S
C951 C949 1.433 . S
C951 N954 1.384 . S
C952 H943 0.931 . S
C952 C944 1.371 1_655 S
C952 C947 1.354 . S
C953 H940 0.929 1_556 S
C953 C945 1.433 . S
C953 N955 1.384 . S
N954 C950 1.427 . S
N954 C951 1.384 . S
N955 C947 1.427 1_455 S
N955 C953 1.384 . S
H956 C962 0.930 . S
H957 C966 0.930 . S
H958 C971 0.929 . S
H959 C969 0.929 . S
H960 C964 0.929 . S
H961 C970 0.929 . S
C962 H956 0.930 . S
C962 C963 1.367 . S
C962 C970 1.378 . S
C963 C962 1.367 . S
C963 C971 1.433 . S
C964 H960 0.929 . S
C964 C966 1.378 . S
C964 C968 1.350 . S
C965 C968 1.463 . S
C965 C970 1.350 . S
C965 N973 1.427 . S
C966 H957 0.930 . S
C966 C964 1.378 . S
C966 C967 1.367 . S
C967 C966 1.367 . S
C967 C969 1.433 . S
C968 C964 1.350 . S
C968 C965 1.463 . S
C968 N972 1.427 . S
C969 H959 0.929 . S
C969 C967 1.433 . S
C969 N972 1.384 . S
C970 H961 0.929 . S
C970 C962 1.378 . S
C970 C965 1.350 . S
C971 H958 0.929 . S
C971 C963 1.433 . S
C971 N973 1.384 . S
N972 C968 1.427 . S
N972 C969 1.384 . S
N973 C965 1.427 . S
N973 C971 1.384 . S
H974 C980 0.930 . S
H975 C984 0.930 . S
H976 C989 0.929 . S
H977 C987 0.929 . S
H978 C982 0.929 . S
H979 C988 0.929 . S
C980 H974 0.930 . S
C980 C981 1.367 . S
C980 C988 1.378 . S
C981 C980 1.367 . S
C981 C989 1.433 . S
C982 H978 0.929 . S
C982 C984 1.378 . S
C982 C986 1.350 . S
C983 C986 1.463 . S
C983 C988 1.350 . S
C983 N991 1.427 . S
C984 H975 0.930 . S
C984 C982 1.378 . S
C984 C985 1.367 . S
C985 C984 1.367 . S
C985 C987 1.433 . S
C986 C982 1.350 . S
C986 C983 1.463 . S
C986 N990 1.427 . S
C987 H977 0.929 . S
C987 C985 1.433 . S
C987 N990 1.384 . S
C988 H979 0.929 . S
C988 C980 1.378 . S
C988 C983 1.350 . S
C989 H976 0.929 . S
C989 C981 1.433 . S
C989 N991 1.384 . S
N990 C986 1.427 . S
N990 C987 1.384 . S
N991 C983 1.427 . S
N991 C989 1.384 . S
H992 C998 0.930 . S
H993 C1002 0.930 . S
H994 C1007 0.929 . S
H995 C1005 0.929 . S
H996 C1000 0.929 . S
H997 C1006 0.929 . S
C998 H992 0.930 . S
C998 C999 1.367 . S
C998 C1006 1.378 . S
C999 C998 1.367 . S
C999 C1007 1.433 . S
C1000 H996 0.929 . S
C1000 C1002 1.378 . S
C1000 C1004 1.350 . S
C1001 C1004 1.463 . S
C1001 C1006 1.350 . S
C1001 N1009 1.427 . S
C1002 H993 0.930 . S
C1002 C1000 1.378 . S
C1002 C1003 1.367 . S
C1003 C1002 1.367 . S
C1003 C1005 1.433 . S
C1004 C1000 1.350 . S
C1004 C1001 1.463 . S
C1004 N1008 1.427 . S
C1005 H995 0.929 . S
C1005 C1003 1.433 . S
C1005 N1008 1.384 . S
C1006 H997 0.929 . S
C1006 C998 1.378 . S
C1006 C1001 1.350 . S
C1007 H994 0.929 . S
C1007 C999 1.433 . S
C1007 N1009 1.384 . S
N1008 C1004 1.427 . S
N1008 C1005 1.384 . S
N1009 C1001 1.427 . S
N1009 C1007 1.384 . S
H1010 C1016 0.930 . S
H1011 C1020 0.930 . S
H1012 C1025 0.929 . S
H1013 C1023 0.929 . S
H1014 C1018 0.929 . S
H1015 C1024 0.929 . S
C1016 H1010 0.930 . S
C1016 C1017 1.367 . S
C1016 C1024 1.378 . S
C1017 C1016 1.367 . S
C1017 C1025 1.433 . S
C1018 H1014 0.929 . S
C1018 C1020 1.378 . S
C1018 C1022 1.350 . S
C1019 C1022 1.463 . S
C1019 C1024 1.350 . S
C1019 N1027 1.427 . S
C1020 H1011 0.930 . S
C1020 C1018 1.378 . S
C1020 C1021 1.367 . S
C1021 C1020 1.367 . S
C1021 C1023 1.433 . S
C1022 C1018 1.350 . S
C1022 C1019 1.463 . S
C1022 N1026 1.427 . S
C1023 H1013 0.929 . S
C1023 C1021 1.433 . S
C1023 N1026 1.384 . S
C1024 H1015 0.929 . S
C1024 C1016 1.378 . S
C1024 C1019 1.350 . S
C1025 H1012 0.929 . S
C1025 C1017 1.433 . S
C1025 N1027 1.384 . S
N1026 C1022 1.427 . S
N1026 C1023 1.384 . S
N1027 C1019 1.427 . S
N1027 C1025 1.384 . S
H1028 C1034 0.930 . S
H1029 C1038 0.930 . S
H1030 C1043 0.929 . S
H1031 C1041 0.929 . S
H1032 C1036 0.929 . S
H1033 C1042 0.929 . S
C1034 H1028 0.930 . S
C1034 C1035 1.367 . S
C1034 C1042 1.378 . S
C1035 C1034 1.367 . S
C1035 C1043 1.433 . S
C1036 H1032 0.929 . S
C1036 C1038 1.378 . S
C1036 C1040 1.350 . S
C1037 C1040 1.463 . S
C1037 C1042 1.350 . S
C1037 N1045 1.427 . S
C1038 H1029 0.930 . S
C1038 C1036 1.378 . S
C1038 C1039 1.367 . S
C1039 C1038 1.367 . S
C1039 C1041 1.433 . S
C1040 C1036 1.350 . S
C1040 C1037 1.463 . S
C1040 N1044 1.427 . S
C1041 H1031 0.929 . S
C1041 C1039 1.433 . S
C1041 N1044 1.384 . S
C1042 H1033 0.929 . S
C1042 C1034 1.378 . S
C1042 C1037 1.350 . S
C1043 H1030 0.929 . S
C1043 C1035 1.433 . S
C1043 N1045 1.384 . S
N1044 C1040 1.427 . S
N1044 C1041 1.384 . S
N1045 C1037 1.427 . S
N1045 C1043 1.384 . S
H1046 C1052 0.930 . S
H1047 C1056 0.930 . S
H1048 C1061 0.929 . S
H1049 C1059 0.929 . S
H1050 C1054 0.929 . S
H1051 C1060 0.929 . S
C1052 H1046 0.930 . S
C1052 C1053 1.367 . S
C1052 C1060 1.378 . S
C1053 C1052 1.367 . S
C1053 C1061 1.433 . S
C1054 H1050 0.929 . S
C1054 C1056 1.378 . S
C1054 C1058 1.350 . S
C1055 C1058 1.463 . S
C1055 C1060 1.350 . S
C1055 N1063 1.427 . S
C1056 H1047 0.930 . S
C1056 C1054 1.378 . S
C1056 C1057 1.367 . S
C1057 C1056 1.367 . S
C1057 C1059 1.433 . S
C1058 C1054 1.350 . S
C1058 C1055 1.463 . S
C1058 N1062 1.427 . S
C1059 H1049 0.929 . S
C1059 C1057 1.433 . S
C1059 N1062 1.384 . S
C1060 H1051 0.929 . S
C1060 C1052 1.378 . S
C1060 C1055 1.350 . S
C1061 H1048 0.929 . S
C1061 C1053 1.433 . S
C1061 N1063 1.384 . S
N1062 C1058 1.427 . S
N1062 C1059 1.384 . S
N1063 C1055 1.427 . S
N1063 C1061 1.384 . S
H1064 C1070 0.930 . S
H1065 C1074 0.930 . S
H1066 C1079 0.929 . S
H1067 C1077 0.929 . S
H1068 C1072 0.929 . S
H1069 C1078 0.929 . S
C1070 H1064 0.930 . S
C1070 C1071 1.367 . S
C1070 C1078 1.378 . S
C1071 C1070 1.367 . S
C1071 C1079 1.433 . S
C1072 H1068 0.929 . S
C1072 C1074 1.378 . S
C1072 C1076 1.350 . S
C1073 C1076 1.463 . S
C1073 C1078 1.350 . S
C1073 N1081 1.427 . S
C1074 H1065 0.930 . S
C1074 C1072 1.378 . S
C1074 C1075 1.367 . S
C1075 C1074 1.367 . S
C1075 C1077 1.433 . S
C1076 C1072 1.350 . S
C1076 C1073 1.463 . S
C1076 N1080 1.427 . S
C1077 H1067 0.929 . S
C1077 C1075 1.433 . S
C1077 N1080 1.384 . S
C1078 H1069 0.929 . S
C1078 C1070 1.378 . S
C1078 C1073 1.350 . S
C1079 H1066 0.929 . S
C1079 C1071 1.433 . S
C1079 N1081 1.384 . S
N1080 C1076 1.427 . S
N1080 C1077 1.384 . S
N1081 C1073 1.427 . S
N1081 C1079 1.384 . S
H1082 C1088 0.930 . S
H1083 C1092 0.930 . S
H1084 C1097 0.929 . S
H1085 C1095 0.929 . S
H1086 C1090 0.929 . S
H1087 C1096 0.929 . S
C1088 H1082 0.930 . S
C1088 C1089 1.367 . S
C1088 C1096 1.378 . S
C1089 C1088 1.367 . S
C1089 C1097 1.433 . S
C1090 H1086 0.929 . S
C1090 C1092 1.378 . S
C1090 C1094 1.350 . S
C1091 C1094 1.463 . S
C1091 C1096 1.350 . S
C1091 N1099 1.427 . S
C1092 H1083 0.930 . S
C1092 C1090 1.378 . S
C1092 C1093 1.367 . S
C1093 C1092 1.367 . S
C1093 C1095 1.433 . S
C1094 C1090 1.350 . S
C1094 C1091 1.463 . S
C1094 N1098 1.427 . S
C1095 H1085 0.929 . S
C1095 C1093 1.433 . S
C1095 N1098 1.384 . S
C1096 H1087 0.929 . S
C1096 C1088 1.378 . S
C1096 C1091 1.350 . S
C1097 H1084 0.929 . S
C1097 C1089 1.433 . S
C1097 N1099 1.384 . S
N1098 C1094 1.427 . S
N1098 C1095 1.384 . S
N1099 C1091 1.427 . S
N1099 C1097 1.384 . S
H1100 C1106 0.930 . S
H1101 C1110 0.930 . S
H1102 C1115 0.929 . S
H1103 C1113 0.929 . S
H1104 C1108 0.929 . S
H1105 C1114 0.929 . S
C1106 H1100 0.930 . S
C1106 C1107 1.367 . S
C1106 C1114 1.378 . S
C1107 C1106 1.367 . S
C1107 C1115 1.433 . S
C1108 H1104 0.929 . S
C1108 C1110 1.378 . S
C1108 C1112 1.350 . S
C1109 C1112 1.463 . S
C1109 C1114 1.350 . S
C1109 N1117 1.427 . S
C1110 H1101 0.930 . S
C1110 C1108 1.378 . S
C1110 C1111 1.367 . S
C1111 C1110 1.367 . S
C1111 C1113 1.433 . S
C1112 C1108 1.350 . S
C1112 C1109 1.463 . S
C1112 N1116 1.427 . S
C1113 H1103 0.929 . S
C1113 C1111 1.433 . S
C1113 N1116 1.384 . S
C1114 H1105 0.929 . S
C1114 C1106 1.378 . S
C1114 C1109 1.350 . S
C1115 H1102 0.929 . S
C1115 C1107 1.433 . S
C1115 N1117 1.384 . S
N1116 C1112 1.427 . S
N1116 C1113 1.384 . S
N1117 C1109 1.427 . S
N1117 C1115 1.384 . S
H1118 C1124 0.930 . S
H1119 C1128 0.930 . S
H1120 C1133 0.929 . S
H1121 C1131 0.929 . S
H1122 C1126 0.929 . S
H1123 C1132 0.929 . S
C1124 H1118 0.930 . S
C1124 C1125 1.367 . S
C1124 C1132 1.378 . S
C1125 C1124 1.367 . S
C1125 C1133 1.433 . S
C1126 H1122 0.929 . S
C1126 C1128 1.378 . S
C1126 C1130 1.350 . S
C1127 C1130 1.463 . S
C1127 C1132 1.350 . S
C1127 N1135 1.427 . S
C1128 H1119 0.930 . S
C1128 C1126 1.378 . S
C1128 C1129 1.367 . S
C1129 C1128 1.367 . S
C1129 C1131 1.433 . S
C1130 C1126 1.350 . S
C1130 C1127 1.463 . S
C1130 N1134 1.427 . S
C1131 H1121 0.929 . S
C1131 C1129 1.433 . S
C1131 N1134 1.384 . S
C1132 H1123 0.929 . S
C1132 C1124 1.378 . S
C1132 C1127 1.350 . S
C1133 H1120 0.929 . S
C1133 C1125 1.433 . S
C1133 N1135 1.384 . S
N1134 C1130 1.427 . S
N1134 C1131 1.384 . S
N1135 C1127 1.427 . S
N1135 C1133 1.384 . S
H1136 C1142 0.930 . S
H1137 C1146 0.930 . S
H1138 C1151 0.929 . S
H1139 C1149 0.929 . S
H1140 C1144 0.929 . S
H1141 C1150 0.929 . S
C1142 H1136 0.930 . S
C1142 C1143 1.367 . S
C1142 C1150 1.378 . S
C1143 C1142 1.367 . S
C1143 C1151 1.433 . S
C1144 H1140 0.929 . S
C1144 C1146 1.378 . S
C1144 C1148 1.350 . S
C1145 C1148 1.463 . S
C1145 C1150 1.350 . S
C1145 N1153 1.427 . S
C1146 H1137 0.930 . S
C1146 C1144 1.378 . S
C1146 C1147 1.367 . S
C1147 C1146 1.367 . S
C1147 C1149 1.433 . S
C1148 C1144 1.350 . S
C1148 C1145 1.463 . S
C1148 N1152 1.427 . S
C1149 H1139 0.929 . S
C1149 C1147 1.433 . S
C1149 N1152 1.384 . S
C1150 H1141 0.929 . S
C1150 C1142 1.378 . S
C1150 C1145 1.350 . S
C1151 H1138 0.929 . S
C1151 C1143 1.433 . S
C1151 N1153 1.384 . S
N1152 C1148 1.427 . S
N1152 C1149 1.384 . S
N1153 C1145 1.427 . S
N1153 C1151 1.384 . S
H1154 C1160 0.930 . S
H1155 C1164 0.930 . S
H1156 C1169 0.929 . S
H1157 C1167 0.929 . S
H1158 C1162 0.929 . S
H1159 C1168 0.929 . S
C1160 H1154 0.930 . S
C1160 C1161 1.367 . S
C1160 C1168 1.378 . S
C1161 C1160 1.367 . S
C1161 C1169 1.433 . S
C1162 H1158 0.929 . S
C1162 C1164 1.378 . S
C1162 C1166 1.350 . S
C1163 C1166 1.463 . S
C1163 C1168 1.350 . S
C1163 N1171 1.427 . S
C1164 H1155 0.930 . S
C1164 C1162 1.378 . S
C1164 C1165 1.367 . S
C1165 C1164 1.367 . S
C1165 C1167 1.433 . S
C1166 C1162 1.350 . S
C1166 C1163 1.463 . S
C1166 N1170 1.427 . S
C1167 H1157 0.929 . S
C1167 C1165 1.433 . S
C1167 N1170 1.384 . S
C1168 H1159 0.929 . S
C1168 C1160 1.378 . S
C1168 C1163 1.350 . S
C1169 H1156 0.929 . S
C1169 C1161 1.433 . S
C1169 N1171 1.384 . S
N1170 C1166 1.427 . S
N1170 C1167 1.384 . S
N1171 C1163 1.427 . S
N1171 C1169 1.384 . S
H1172 C1178 0.930 . S
H1173 C1182 0.930 . S
H1174 C1187 0.929 . S
H1175 C1185 0.929 . S
H1176 C1180 0.929 . S
H1177 C1186 0.929 . S
C1178 H1172 0.930 . S
C1178 C1179 1.367 . S
C1178 C1186 1.378 . S
C1179 C1178 1.367 . S
C1179 C1187 1.433 . S
C1180 H1176 0.929 . S
C1180 C1182 1.378 . S
C1180 C1184 1.350 . S
C1181 C1184 1.463 . S
C1181 C1186 1.350 . S
C1181 N1189 1.427 . S
C1182 H1173 0.930 . S
C1182 C1180 1.378 . S
C1182 C1183 1.367 . S
C1183 C1182 1.367 . S
C1183 C1185 1.433 . S
C1184 C1180 1.350 . S
C1184 C1181 1.463 . S
C1184 N1188 1.427 . S
C1185 H1175 0.929 . S
C1185 C1183 1.433 . S
C1185 N1188 1.384 . S
C1186 H1177 0.929 . S
C1186 C1178 1.378 . S
C1186 C1181 1.350 . S
C1187 H1174 0.929 . S
C1187 C1179 1.433 . S
C1187 N1189 1.384 . S
N1188 C1184 1.427 . S
N1188 C1185 1.384 . S
N1189 C1181 1.427 . S
N1189 C1187 1.384 . S
H1190 C1196 0.930 . S
H1191 C1200 0.930 . S
H1192 C1205 0.929 . S
H1193 C1203 0.929 . S
H1194 C1198 0.929 . S
H1195 C1204 0.929 . S
C1196 H1190 0.930 . S
C1196 C1197 1.367 . S
C1196 C1204 1.378 . S
C1197 C1196 1.367 . S
C1197 C1205 1.433 . S
C1198 H1194 0.929 . S
C1198 C1200 1.378 . S
C1198 C1202 1.350 . S
C1199 C1202 1.463 . S
C1199 C1204 1.350 . S
C1199 N1207 1.427 . S
C1200 H1191 0.930 . S
C1200 C1198 1.378 . S
C1200 C1201 1.367 . S
C1201 C1200 1.367 . S
C1201 C1203 1.433 . S
C1202 C1198 1.350 . S
C1202 C1199 1.463 . S
C1202 N1206 1.427 . S
C1203 H1193 0.929 . S
C1203 C1201 1.433 . S
C1203 N1206 1.384 . S
C1204 H1195 0.929 . S
C1204 C1196 1.378 . S
C1204 C1199 1.350 . S
C1205 H1192 0.929 . S
C1205 C1197 1.433 . S
C1205 N1207 1.384 . S
N1206 C1202 1.427 . S
N1206 C1203 1.384 . S
N1207 C1199 1.427 . S
N1207 C1205 1.384 . S
H1208 C1214 0.930 . S
H1209 C1218 0.930 . S
H1210 C1223 0.929 . S
H1211 C1221 0.929 . S
H1212 C1216 0.929 . S
H1213 C1222 0.929 . S
C1214 H1208 0.930 . S
C1214 C1215 1.367 . S
C1214 C1222 1.378 . S
C1215 C1214 1.367 . S
C1215 C1223 1.433 . S
C1216 H1212 0.929 . S
C1216 C1218 1.378 . S
C1216 C1220 1.350 . S
C1217 C1220 1.463 . S
C1217 C1222 1.350 . S
C1217 N1225 1.427 . S
C1218 H1209 0.930 . S
C1218 C1216 1.378 . S
C1218 C1219 1.367 . S
C1219 C1218 1.367 . S
C1219 C1221 1.433 . S
C1220 C1216 1.350 . S
C1220 C1217 1.463 . S
C1220 N1224 1.427 . S
C1221 H1211 0.929 . S
C1221 C1219 1.433 . S
C1221 N1224 1.384 . S
C1222 H1213 0.929 . S
C1222 C1214 1.378 . S
C1222 C1217 1.350 . S
C1223 H1210 0.929 . S
C1223 C1215 1.433 . S
C1223 N1225 1.384 . S
N1224 C1220 1.427 . S
N1224 C1221 1.384 . S
N1225 C1217 1.427 . S
N1225 C1223 1.384 . S
H1226 C1232 0.930 . S
H1227 C1236 0.930 . S
H1228 C1241 0.929 . S
H1229 C1239 0.929 . S
H1230 C1234 0.929 . S
H1231 C1240 0.929 . S
C1232 H1226 0.930 . S
C1232 C1233 1.367 . S
C1232 C1240 1.378 . S
C1233 C1232 1.367 . S
C1233 C1241 1.433 . S
C1234 H1230 0.929 . S
C1234 C1236 1.378 . S
C1234 C1238 1.350 . S
C1235 C1238 1.463 . S
C1235 C1240 1.350 . S
C1235 N1243 1.427 . S
C1236 H1227 0.930 . S
C1236 C1234 1.378 . S
C1236 C1237 1.367 . S
C1237 C1236 1.367 . S
C1237 C1239 1.433 . S
C1238 C1234 1.350 . S
C1238 C1235 1.463 . S
C1238 N1242 1.427 . S
C1239 H1229 0.929 . S
C1239 C1237 1.433 . S
C1239 N1242 1.384 . S
C1240 H1231 0.929 . S
C1240 C1232 1.378 . S
C1240 C1235 1.350 . S
C1241 H1228 0.929 . S
C1241 C1233 1.433 . S
C1241 N1243 1.384 . S
N1242 C1238 1.427 . S
N1242 C1239 1.384 . S
N1243 C1235 1.427 . S
N1243 C1241 1.384 . S
H1244 C1250 0.930 . S
H1245 C1254 0.930 . S
H1246 C1259 0.929 . S
H1247 C1257 0.929 . S
H1248 C1252 0.929 . S
H1249 C1258 0.929 . S
C1250 H1244 0.930 . S
C1250 C1251 1.367 . S
C1250 C1258 1.378 . S
C1251 C1250 1.367 . S
C1251 C1259 1.433 . S
C1252 H1248 0.929 . S
C1252 C1254 1.378 . S
C1252 C1256 1.350 . S
C1253 C1256 1.463 . S
C1253 C1258 1.350 . S
C1253 N1261 1.427 . S
C1254 H1245 0.930 . S
C1254 C1252 1.378 . S
C1254 C1255 1.367 . S
C1255 C1254 1.367 . S
C1255 C1257 1.433 . S
C1256 C1252 1.350 . S
C1256 C1253 1.463 . S
C1256 N1260 1.427 . S
C1257 H1247 0.929 . S
C1257 C1255 1.433 . S
C1257 N1260 1.384 . S
C1258 H1249 0.929 . S
C1258 C1250 1.378 . S
C1258 C1253 1.350 . S
C1259 H1246 0.929 . S
C1259 C1251 1.433 . S
C1259 N1261 1.384 . S
N1260 C1256 1.427 . S
N1260 C1257 1.384 . S
N1261 C1253 1.427 . S
N1261 C1259 1.384 . S
H1262 C1268 0.930 . S
H1263 C1272 0.930 . S
H1264 C1277 0.929 . S
H1265 C1275 0.929 . S
H1266 C1270 0.929 . S
H1267 C1276 0.929 . S
C1268 H1262 0.930 . S
C1268 C1269 1.367 . S
C1268 C1276 1.378 . S
C1269 C1268 1.367 . S
C1269 C1277 1.433 . S
C1270 H1266 0.929 . S
C1270 C1272 1.378 . S
C1270 C1274 1.350 . S
C1271 C1274 1.463 . S
C1271 C1276 1.350 . S
C1271 N1279 1.427 . S
C1272 H1263 0.930 . S
C1272 C1270 1.378 . S
C1272 C1273 1.367 . S
C1273 C1272 1.367 . S
C1273 C1275 1.433 . S
C1274 C1270 1.350 . S
C1274 C1271 1.463 . S
C1274 N1278 1.427 . S
C1275 H1265 0.929 . S
C1275 C1273 1.433 . S
C1275 N1278 1.384 . S
C1276 H1267 0.929 . S
C1276 C1268 1.378 . S
C1276 C1271 1.350 . S
C1277 H1264 0.929 . S
C1277 C1269 1.433 . S
C1277 N1279 1.384 . S
N1278 C1274 1.427 . S
N1278 C1275 1.384 . S
N1279 C1271 1.427 . S
N1279 C1277 1.384 . S
H1280 C1286 0.930 . S
H1281 C1290 0.930 . S
H1282 C1295 0.929 . S
H1283 C1293 0.929 . S
H1284 C1288 0.929 . S
H1285 C1294 0.929 . S
C1286 H1280 0.930 . S
C1286 C1287 1.367 . S
C1286 C1294 1.378 . S
C1287 C1286 1.367 . S
C1287 C1295 1.433 . S
C1288 H1284 0.929 . S
C1288 C1290 1.378 . S
C1288 C1292 1.350 . S
C1289 C1292 1.463 . S
C1289 C1294 1.350 . S
C1289 N1297 1.427 . S
C1290 H1281 0.930 . S
C1290 C1288 1.378 . S
C1290 C1291 1.367 . S
C1291 C1290 1.367 . S
C1291 C1293 1.433 . S
C1292 C1288 1.350 . S
C1292 C1289 1.463 . S
C1292 N1296 1.427 . S
C1293 H1283 0.929 . S
C1293 C1291 1.433 . S
C1293 N1296 1.384 . S
C1294 H1285 0.929 . S
C1294 C1286 1.378 . S
C1294 C1289 1.350 . S
C1295 H1282 0.929 . S
C1295 C1287 1.433 . S
C1295 N1297 1.384 . S
N1296 C1292 1.427 . S
N1296 C1293 1.384 . S
N1297 C1289 1.427 . S
N1297 C1295 1.384 . S
H1298 C1304 0.930 . S
H1299 C1308 0.930 . S
H1300 C1313 0.929 . S
H1301 C1311 0.929 . S
H1302 C1306 0.929 . S
H1303 C1312 0.929 . S
C1304 H1298 0.930 . S
C1304 C1305 1.367 . S
C1304 C1312 1.378 . S
C1305 C1304 1.367 . S
C1305 C1313 1.433 . S
C1306 H1302 0.929 . S
C1306 C1308 1.378 . S
C1306 C1310 1.350 . S
C1307 C1310 1.463 . S
C1307 C1312 1.350 . S
C1307 N1315 1.427 . S
C1308 H1299 0.930 . S
C1308 C1306 1.378 . S
C1308 C1309 1.367 . S
C1309 C1308 1.367 . S
C1309 C1311 1.433 . S
C1310 C1306 1.350 . S
C1310 C1307 1.463 . S
C1310 N1314 1.427 . S
C1311 H1301 0.929 . S
C1311 C1309 1.433 . S
C1311 N1314 1.384 . S
C1312 H1303 0.929 . S
C1312 C1304 1.378 . S
C1312 C1307 1.350 . S
C1313 H1300 0.929 . S
C1313 C1305 1.433 . S
C1313 N1315 1.384 . S
N1314 C1310 1.427 . S
N1314 C1311 1.384 . S
N1315 C1307 1.427 . S
N1315 C1313 1.384 . S
H1316 C1322 0.930 . S
H1317 C1326 0.930 . S
H1318 C1331 0.929 . S
H1319 C1329 0.929 . S
H1320 C1324 0.929 . S
H1321 C1330 0.929 . S
C1322 H1316 0.930 . S
C1322 C1323 1.367 . S
C1322 C1330 1.378 . S
C1323 C1322 1.367 . S
C1323 C1331 1.433 . S
C1324 H1320 0.929 . S
C1324 C1326 1.378 . S
C1324 C1328 1.350 . S
C1325 C1328 1.463 . S
C1325 C1330 1.350 . S
C1325 N1333 1.427 . S
C1326 H1317 0.930 . S
C1326 C1324 1.378 . S
C1326 C1327 1.367 . S
C1327 C1326 1.367 . S
C1327 C1329 1.433 . S
C1328 C1324 1.350 . S
C1328 C1325 1.463 . S
C1328 N1332 1.427 . S
C1329 H1319 0.929 . S
C1329 C1327 1.433 . S
C1329 N1332 1.384 . S
C1330 H1321 0.929 . S
C1330 C1322 1.378 . S
C1330 C1325 1.350 . S
C1331 H1318 0.929 . S
C1331 C1323 1.433 . S
C1331 N1333 1.384 . S
N1332 C1328 1.427 . S
N1332 C1329 1.384 . S
N1333 C1325 1.427 . S
N1333 C1331 1.384 . S
H1334 C1340 0.930 . S
H1335 C1344 0.930 . S
H1336 C1349 0.929 . S
H1337 C1347 0.929 . S
H1338 C1342 0.929 . S
H1339 C1348 0.929 . S
C1340 H1334 0.930 . S
C1340 C1341 1.367 . S
C1340 C1348 1.378 . S
C1341 C1340 1.367 . S
C1341 C1349 1.433 . S
C1342 H1338 0.929 . S
C1342 C1344 1.378 . S
C1342 C1346 1.350 . S
C1343 C1346 1.463 . S
C1343 C1348 1.350 . S
C1343 N1351 1.427 . S
C1344 H1335 0.930 . S
C1344 C1342 1.378 . S
C1344 C1345 1.367 . S
C1345 C1344 1.367 . S
C1345 C1347 1.433 . S
C1346 C1342 1.350 . S
C1346 C1343 1.463 . S
C1346 N1350 1.427 . S
C1347 H1337 0.929 . S
C1347 C1345 1.433 . S
C1347 N1350 1.384 . S
C1348 H1339 0.929 . S
C1348 C1340 1.378 . S
C1348 C1343 1.350 . S
C1349 H1336 0.929 . S
C1349 C1341 1.433 . S
C1349 N1351 1.384 . S
N1350 C1346 1.427 . S
N1350 C1347 1.384 . S
N1351 C1343 1.427 . S
N1351 C1349 1.384 . S
H1352 C1358 0.930 . S
H1353 C1362 0.930 . S
H1354 C1367 0.929 . S
H1355 C1365 0.929 . S
H1356 C1360 0.929 . S
H1357 C1366 0.929 . S
C1358 H1352 0.930 . S
C1358 C1359 1.367 . S
C1358 C1366 1.378 . S
C1359 C1358 1.367 . S
C1359 C1367 1.433 . S
C1360 H1356 0.929 . S
C1360 C1362 1.378 . S
C1360 C1364 1.350 . S
C1361 C1364 1.463 . S
C1361 C1366 1.350 . S
C1361 N1369 1.427 . S
C1362 H1353 0.930 . S
C1362 C1360 1.378 . S
C1362 C1363 1.367 . S
C1363 C1362 1.367 . S
C1363 C1365 1.433 . S
C1364 C1360 1.350 . S
C1364 C1361 1.463 . S
C1364 N1368 1.427 . S
C1365 H1355 0.929 . S
C1365 C1363 1.433 . S
C1365 N1368 1.384 . S
C1366 H1357 0.929 . S
C1366 C1358 1.378 . S
C1366 C1361 1.350 . S
C1367 H1354 0.929 . S
C1367 C1359 1.433 . S
C1367 N1369 1.384 . S
N1368 C1364 1.427 . S
N1368 C1365 1.384 . S
N1369 C1361 1.427 . S
N1369 C1367 1.384 . S
H1370 C1376 0.930 . S
H1371 C1380 0.930 . S
H1372 C1385 0.929 . S
H1373 C1383 0.929 . S
H1374 C1378 0.929 . S
H1375 C1384 0.929 . S
C1376 H1370 0.930 . S
C1376 C1377 1.367 . S
C1376 C1384 1.378 . S
C1377 C1376 1.367 . S
C1377 C1385 1.433 . S
C1378 H1374 0.929 . S
C1378 C1380 1.378 . S
C1378 C1382 1.350 . S
C1379 C1382 1.463 . S
C1379 C1384 1.350 . S
C1379 N1387 1.427 . S
C1380 H1371 0.930 . S
C1380 C1378 1.378 . S
C1380 C1381 1.367 . S
C1381 C1380 1.367 . S
C1381 C1383 1.433 . S
C1382 C1378 1.350 . S
C1382 C1379 1.463 . S
C1382 N1386 1.427 . S
C1383 H1373 0.929 . S
C1383 C1381 1.433 . S
C1383 N1386 1.384 . S
C1384 H1375 0.929 . S
C1384 C1376 1.378 . S
C1384 C1379 1.350 . S
C1385 H1372 0.929 . S
C1385 C1377 1.433 . S
C1385 N1387 1.384 . S
N1386 C1382 1.427 . S
N1386 C1383 1.384 . S
N1387 C1379 1.427 . S
N1387 C1385 1.384 . S
H1388 C1394 0.930 . S
H1389 C1398 0.930 . S
H1390 C1403 0.929 . S
H1391 C1401 0.929 . S
H1392 C1396 0.929 . S
H1393 C1402 0.929 . S
C1394 H1388 0.930 . S
C1394 C1395 1.367 . S
C1394 C1402 1.378 . S
C1395 C1394 1.367 . S
C1395 C1403 1.433 . S
C1396 H1392 0.929 . S
C1396 C1398 1.378 . S
C1396 C1400 1.350 . S
C1397 C1400 1.463 . S
C1397 C1402 1.350 . S
C1397 N1405 1.427 . S
C1398 H1389 0.930 . S
C1398 C1396 1.378 . S
C1398 C1399 1.367 . S
C1399 C1398 1.367 . S
C1399 C1401 1.433 . S
C1400 C1396 1.350 . S
C1400 C1397 1.463 . S
C1400 N1404 1.427 . S
C1401 H1391 0.929 . S
C1401 C1399 1.433 . S
C1401 N1404 1.384 . S
C1402 H1393 0.929 . S
C1402 C1394 1.378 . S
C1402 C1397 1.350 . S
C1403 H1390 0.929 . S
C1403 C1395 1.433 . S
C1403 N1405 1.384 . S
N1404 C1400 1.427 . S
N1404 C1401 1.384 . S
N1405 C1397 1.427 . S
N1405 C1403 1.384 . S
H1406 C1412 0.930 . S
H1407 C1416 0.930 . S
H1408 C1421 0.929 . S
H1409 C1419 0.929 . S
H1410 C1414 0.929 . S
H1411 C1420 0.929 . S
C1412 H1406 0.930 . S
C1412 C1413 1.367 . S
C1412 C1420 1.378 . S
C1413 C1412 1.367 . S
C1413 C1421 1.433 . S
C1414 H1410 0.929 . S
C1414 C1416 1.378 . S
C1414 C1418 1.350 . S
C1415 C1418 1.463 . S
C1415 C1420 1.350 . S
C1415 N1423 1.427 . S
C1416 H1407 0.930 . S
C1416 C1414 1.378 . S
C1416 C1417 1.367 . S
C1417 C1416 1.367 . S
C1417 C1419 1.433 . S
C1418 C1414 1.350 . S
C1418 C1415 1.463 . S
C1418 N1422 1.427 . S
C1419 H1409 0.929 . S
C1419 C1417 1.433 . S
C1419 N1422 1.384 . S
C1420 H1411 0.929 . S
C1420 C1412 1.378 . S
C1420 C1415 1.350 . S
C1421 H1408 0.929 . S
C1421 C1413 1.433 . S
C1421 N1423 1.384 . S
N1422 C1418 1.427 . S
N1422 C1419 1.384 . S
N1423 C1415 1.427 . S
N1423 C1421 1.384 . S
H1424 C1430 0.930 . S
H1425 C1434 0.930 . S
H1426 C1439 0.929 . S
H1427 C1437 0.929 . S
H1428 C1432 0.929 . S
H1429 C1438 0.929 . S
C1430 H1424 0.930 . S
C1430 C1431 1.367 . S
C1430 C1438 1.378 . S
C1431 C1430 1.367 . S
C1431 C1439 1.433 . S
C1432 H1428 0.929 . S
C1432 C1434 1.378 . S
C1432 C1436 1.350 . S
C1433 C1436 1.463 . S
C1433 C1438 1.350 . S
C1433 N1441 1.427 . S
C1434 H1425 0.930 . S
C1434 C1432 1.378 . S
C1434 C1435 1.367 . S
C1435 C1434 1.367 . S
C1435 C1437 1.433 . S
C1436 C1432 1.350 . S
C1436 C1433 1.463 . S
C1436 N1440 1.427 . S
C1437 H1427 0.929 . S
C1437 C1435 1.433 . S
C1437 N1440 1.384 . S
C1438 H1429 0.929 . S
C1438 C1430 1.378 . S
C1438 C1433 1.350 . S
C1439 H1426 0.929 . S
C1439 C1431 1.433 . S
C1439 N1441 1.384 . S
N1440 C1436 1.427 . S
N1440 C1437 1.384 . S
N1441 C1433 1.427 . S
N1441 C1439 1.384 . S
H1442 C1448 0.930 . S
H1443 C1452 0.930 . S
H1444 C1457 0.929 . S
H1445 C1455 0.929 . S
H1446 C1450 0.929 . S
H1447 C1456 0.929 . S
C1448 H1442 0.930 . S
C1448 C1449 1.367 . S
C1448 C1456 1.378 . S
C1449 C1448 1.367 . S
C1449 C1457 1.433 . S
C1450 H1446 0.929 . S
C1450 C1452 1.378 . S
C1450 C1454 1.350 . S
C1451 C1454 1.463 . S
C1451 C1456 1.350 . S
C1451 N1459 1.427 . S
C1452 H1443 0.930 . S
C1452 C1450 1.378 . S
C1452 C1453 1.367 . S
C1453 C1452 1.367 . S
C1453 C1455 1.433 . S
C1454 C1450 1.350 . S
C1454 C1451 1.463 . S
C1454 N1458 1.427 . S
C1455 H1445 0.929 . S
C1455 C1453 1.433 . S
C1455 N1458 1.384 . S
C1456 H1447 0.929 . S
C1456 C1448 1.378 . S
C1456 C1451 1.350 . S
C1457 H1444 0.929 . S
C1457 C1449 1.433 . S
C1457 N1459 1.384 . S
N1458 C1454 1.427 . S
N1458 C1455 1.384 . S
N1459 C1451 1.427 . S
N1459 C1457 1.384 . S
C607 C293 1.457 . S
C603 N2 1.443 . S
C625 C339 2.054 . S
C621 C7 2.048 1_655 S
C643 C382 1.459 . S
C639 N12 1.355 1_655 S
C657 C16 2.420 . S
C661 C419 2.469 . S
C679 C438 2.125 . S
C675 C30 2.118 . S
C697 C493 1.293 . S
C693 N35 1.260 . S
C711 C39 2.581 1_655 S
C715 C518 2.551 . S
C733 C582 1.259 . S
C729 N25 1.163 1_655 S
C751 C278 1.583 . S
C747 N58 1.547 . S
C765 N81 1.376 . S
C769 C342 1.391 . S
C787 C369 1.423 . S
C783 N104 1.366 . S
C801 N127 1.431 . S
C805 C422 1.444 . S
C823 C460 1.224 . S
C819 N48 1.182 . S
C841 C478 1.739 . S
C837 N71 1.736 . S
C855 N94 1.256 . S
C859 C540 1.311 . S
C877 C569 1.602 . S
C873 N117 1.571 . S
C891 C85 1.912 . S
C895 C300 1.956 . S
C909 C122 1.588 . S
C913 C453 1.581 . S
C927 C53 2.031 . S
C931 C500 2.043 . S
C949 C533 1.673 . S
C945 C76 1.682 . S
C967 C579 2.258 . S
C963 C99 2.274 . S
C985 C379 2.108 . S
C981 C131 2.107 . S
C1003 C409 1.800 . S
C999 C62 1.791 . S
C1017 C108 1.668 . S
C1021 C329 1.667 . S
C1039 C573 1.552 . S
C1035 N140 1.537 . S
C1053 C145 2.031 . S
C1057 C459 2.044 . S
C1075 C502 1.364 . S
C1071 N150 1.276 . S
C1089 C154 2.423 . S
C1093 C539 2.470 . S
C1111 C318 2.119 . S
C1107 C168 2.108 . S
C1125 N173 1.191 . S
C1129 C373 1.206 . S
C1147 C398 2.548 . S
C1143 C177 2.581 . S
C1165 C302 1.348 . S
C1161 N163 1.252 . S
C1183 C558 2.047 . S
C1179 C200 2.035 . S
C1201 C462 1.637 . S
C1197 N219 1.632 . S
C1215 N242 1.626 . S
C1219 C489 1.688 . S
C1237 C542 1.734 . S
C1233 C269 1.765 . S
C1255 C340 1.546 . S
C1251 C191 1.553 . S
C1269 N209 2.002 . S
C1273 C358 2.005 . S
C1287 N232 1.578 . S
C1291 C420 1.627 . S
C1305 C260 2.023 . S
C1309 C289 2.056 . S
C1323 C223 1.593 . S
C1327 C580 1.627 . S
C1341 N255 1.258 . S
C1345 C333 1.278 . S
C1359 N186 1.609 . S
C1363 C380 1.631 . S
C1381 C413 1.385 . S
C1377 C214 1.397 . S
C1399 C299 1.985 . S
C1395 C237 1.998 . S
C1417 C499 1.631 . S
C1413 N265 1.606 . S
C1435 C529 1.458 . S
C1431 N196 1.382 . S
C1453 C449 1.345 . S
C1449 C246 1.343 . S
