# Generated by pormake.
# Topology zzz, (3,6)-cn, num edge types: 1
# Building blocks:
#     Node 0, Type 0, BuildingBlock: WUSLED_clean_sbu_0, # of connection points: 3
#     Node 1, Type 0, BuildingBlock: WUSLED_clean_sbu_0, # of connection points: 3
#     Node 2, Type 0, BuildingBlock: WUSLED_clean_sbu_0, # of connection points: 3
#     Node 3, Type 0, BuildingBlock: WUSLED_clean_sbu_0, # of connection points: 3
#     Node 4, Type 0, BuildingBlock: WUSLED_clean_sbu_0, # of connection points: 3
#     Node 5, Type 0, BuildingBlock: WUSLED_clean_sbu_0, # of connection points: 3
#     Node 6, Type 0, BuildingBlock: WUSLED_clean_sbu_0, # of connection points: 3
#     Node 7, Type 0, BuildingBlock: WUSLED_clean_sbu_0, # of connection points: 3
#     Node 8, Type 1, BuildingBlock: PAMTUU_clean_sbu_0, # of connection points: 6
#     Node 9, Type 1, BuildingBlock: PAMTUU_clean_sbu_0, # of connection points: 6
#     Node 10, Type 1, BuildingBlock: PAMTUU_clean_sbu_0, # of connection points: 6
#     Node 11, Type 1, BuildingBlock: PAMTUU_clean_sbu_0, # of connection points: 6
#     Edge 12, Type (0, 1), BuildingBlock: KIFKEQ_clean_linker_1, # of connection points: 2
#     Edge 13, Type (0, 1), BuildingBlock: KIFKEQ_clean_linker_1, # of connection points: 2
#     Edge 14, Type (0, 1), BuildingBlock: KIFKEQ_clean_linker_1, # of connection points: 2
#     Edge 15, Type (0, 1), BuildingBlock: KIFKEQ_clean_linker_1, # of connection points: 2
#     Edge 16, Type (0, 1), BuildingBlock: KIFKEQ_clean_linker_1, # of connection points: 2
#     Edge 17, Type (0, 1), BuildingBlock: KIFKEQ_clean_linker_1, # of connection points: 2
#     Edge 18, Type (0, 1), BuildingBlock: KIFKEQ_clean_linker_1, # of connection points: 2
#     Edge 19, Type (0, 1), BuildingBlock: KIFKEQ_clean_linker_1, # of connection points: 2
#     Edge 20, Type (0, 1), BuildingBlock: KIFKEQ_clean_linker_1, # of connection points: 2
#     Edge 21, Type (0, 1), BuildingBlock: KIFKEQ_clean_linker_1, # of connection points: 2
#     Edge 22, Type (0, 1), BuildingBlock: KIFKEQ_clean_linker_1, # of connection points: 2
#     Edge 23, Type (0, 1), BuildingBlock: KIFKEQ_clean_linker_1, # of connection points: 2
#     Edge 24, Type (0, 1), BuildingBlock: KIFKEQ_clean_linker_1, # of connection points: 2
#     Edge 25, Type (0, 1), BuildingBlock: KIFKEQ_clean_linker_1, # of connection points: 2
#     Edge 26, Type (0, 1), BuildingBlock: KIFKEQ_clean_linker_1, # of connection points: 2
#     Edge 27, Type (0, 1), BuildingBlock: KIFKEQ_clean_linker_1, # of connection points: 2
#     Edge 28, Type (0, 1), BuildingBlock: KIFKEQ_clean_linker_1, # of connection points: 2
#     Edge 29, Type (0, 1), BuildingBlock: KIFKEQ_clean_linker_1, # of connection points: 2
#     Edge 30, Type (0, 1), BuildingBlock: KIFKEQ_clean_linker_1, # of connection points: 2
#     Edge 31, Type (0, 1), BuildingBlock: KIFKEQ_clean_linker_1, # of connection points: 2
#     Edge 32, Type (0, 1), BuildingBlock: KIFKEQ_clean_linker_1, # of connection points: 2
#     Edge 33, Type (0, 1), BuildingBlock: KIFKEQ_clean_linker_1, # of connection points: 2
#     Edge 34, Type (0, 1), BuildingBlock: KIFKEQ_clean_linker_1, # of connection points: 2
#     Edge 35, Type (0, 1), BuildingBlock: KIFKEQ_clean_linker_1, # of connection points: 2
# Relax obj value: 0.355
# Max RMSD: 0.253
# Mean RMSD: 0.214
data_MOF--net-zzz--node1-WUSLED_clean_sbu_0--node2-PAMTUU_clean_sbu_0--edge1-KIFKEQ_clean_linker_1
_symmetry_space_group_name_H-M    P1
_symmetry_Int_Tables_number       1
_symmetry_cell_setting            triclinic
loop_
_symmetry_equiv_pos_as_xyz
'x, y, z'
_cell_length_a     62.356018
_cell_length_b     65.980271
_cell_length_c     22.239915
_cell_angle_alpha  97.717624
_cell_angle_beta   90.172564
_cell_angle_gamma 91.027811
loop_
_atom_site_label
_atom_site_type_symbol
_atom_site_fract_x
_atom_site_fract_y
_atom_site_fract_z
_atom_type_partial_charge
C0 C 0.80359 0.5254 0.50097 0.0
C1 C 0.80764 0.51323 0.54675 0.0
C2 C 0.84566 0.52312 0.54917 0.0
C3 C 0.82837 0.51203 0.5704 0.0
C4 C 0.84152 0.53534 0.50324 0.0
C5 C 0.8208 0.53641 0.47931 0.0
U6 U 0.76401 0.52064 0.36772 0.0
O7 O 0.73624 0.53931 0.35115 0.0
O8 O 0.73161 0.50663 0.35748 0.0
C9 C 0.72276 0.52361 0.34574 0.0
C10 C 0.78145 0.52632 0.47659 0.0
C11 C 0.70805 0.52175 0.29302 0.0
C12 C 0.6715 0.522 0.25458 0.0
C13 C 0.68593 0.52303 0.30324 0.0
C14 C 0.70113 0.51813 0.18413 0.0
C15 C 0.67886 0.51972 0.19428 0.0
C16 C 0.7156 0.51917 0.23309 0.0
C17 C 0.79035 0.50599 0.20932 0.0
C18 C 0.78679 0.48037 0.12026 0.0
C19 C 0.81003 0.51004 0.11775 0.0
C20 C 0.80409 0.51749 0.17682 0.0
C21 C 0.80239 0.49083 0.08998 0.0
C22 C 0.78085 0.48786 0.17961 0.0
C23 C 0.78971 0.51118 0.27581 0.0
O24 O 0.77747 0.54134 0.44505 0.0
O25 O 0.77284 0.50876 0.45241 0.0
O26 O 0.78109 0.49755 0.30691 0.0
O27 O 0.78537 0.53019 0.29754 0.0
H28 H 0.79471 0.50451 0.56413 0.0
H29 H 0.83086 0.50217 0.60485 0.0
H30 H 0.85425 0.54434 0.48616 0.0
H31 H 0.81828 0.54592 0.44393 0.0
H32 H 0.65452 0.52287 0.26432 0.0
H33 H 0.67976 0.52493 0.34913 0.0
H34 H 0.70742 0.51651 0.13845 0.0
H35 H 0.73265 0.51815 0.22423 0.0
H36 H 0.78032 0.46571 0.09973 0.0
H37 H 0.82221 0.5185 0.09638 0.0
H38 H 0.81167 0.53147 0.1988 0.0
H39 H 0.77 0.47874 0.20344 0.0
C40 C 0.98114 0.78194 0.49676 0.0
C41 C 0.97859 0.79715 0.45898 0.0
C42 C 0.98357 0.82372 0.54531 0.0
C43 C 0.97967 0.81781 0.48303 0.0
C44 C 0.98567 0.80838 0.58324 0.0
C45 C 0.98449 0.78766 0.55909 0.0
U46 U 0.99151 0.7442 0.35945 0.0
O47 O 1.00991 0.71577 0.34884 0.0
O48 O 0.97576 0.71501 0.32337 0.0
C49 C 0.9936 0.70469 0.3243 0.0
C50 C 0.9822 0.76032 0.4702 0.0
C51 C 0.99837 0.68989 0.2703 0.0
C52 C 1.0161 0.65867 0.22827 0.0
C53 C 1.01247 0.67399 0.27669 0.0
C54 C 0.99174 0.675 0.16555 0.0
C55 C 1.00562 0.65885 0.17229 0.0
C56 C 0.98818 0.69042 0.21407 0.0
C57 C 1.00601 0.77492 0.22294 0.0
C58 C 0.03436 0.78059 0.15181 0.0
C59 C 1.00017 0.79703 0.14576 0.0
C60 C 0.99255 0.78731 0.19359 0.0
C61 C 1.0215 0.79455 0.12607 0.0
C62 C 0.02672 0.77093 0.20008 0.0
C63 C 0.99976 0.77052 0.28383 0.0
O64 O 0.96748 0.75412 0.42901 0.0
O65 O 1.00153 0.75428 0.45387 0.0
O66 O 1.01447 0.76371 0.31816 0.0
O67 O 0.9804 0.763 0.29101 0.0
H68 H 0.97619 0.79306 0.41057 0.0
H69 H 0.97767 0.82918 0.45265 0.0
H70 H 0.98896 0.81236 0.63125 0.0
H71 H 0.98676 0.77613 0.58879 0.0
H72 H 0.02666 0.64633 0.23533 0.0
H73 H 1.02035 0.67316 0.31977 0.0
H74 H 0.98361 0.67569 0.12279 0.0
H75 H 0.97723 0.70254 0.20783 0.0
H76 H 0.05071 0.77798 0.13692 0.0
H77 H 0.98981 0.80779 0.12777 0.0
H78 H 0.97661 0.79085 0.21082 0.0
H79 H 0.0375 0.76143 0.22183 0.0
C80 C 0.75892 0.98679 0.46748 0.0
C81 C 0.7429 0.99773 0.442 0.0
C82 C 0.7171 0.98923 0.5179 0.0
C83 C 0.72224 0.99899 0.467 0.0
C84 C 0.73323 0.97815 0.54286 0.0
C85 C 0.75389 0.97698 0.51795 0.0
U86 U 0.79853 0.99433 0.34106 0.0
O87 O 0.83198 1.00598 0.34558 0.0
O88 O 0.82463 0.97477 0.30219 0.0
C89 C 0.8394 0.98922 0.31451 0.0
C90 C 0.78085 0.98547 0.44197 0.0
C91 C 0.8547 0.99199 0.26533 0.0
C92 C 0.89179 0.99377 0.23222 0.0
C93 C 0.87674 0.99216 0.27798 0.0
C94 C 0.863 0.99544 0.16 0.0
C95 C 0.8852 0.99521 0.17233 0.0
C96 C 0.84789 0.99382 0.20604 0.0
C97 C 0.77303 0.01614 0.20296 0.0
C98 C 0.77551 0.04439 0.14321 0.0
C99 C 0.7546 0.014 0.10603 0.0
C100 C 0.76047 1.00513 0.15694 0.0
C101 C 0.76112 0.03416 0.10008 0.0
C102 C 0.78135 0.0355 0.19443 0.0
C103 C 0.77356 1.00886 0.26283 0.0
O104 O 0.78332 0.97194 0.39359 0.0
O105 O 0.7906 1.00303 0.43744 0.0
O106 O 0.78346 0.02048 0.30748 0.0
O107 O 0.77628 0.98918 0.26343 0.0
H108 H 0.74638 1.00532 0.40276 0.0
H109 H 0.71022 1.00742 0.44599 0.0
H110 H 0.73002 0.97066 0.58241 0.0
H111 H 0.76599 0.96846 0.53837 0.0
H112 H 0.90867 0.99396 0.24398 0.0
H113 H 0.88236 0.99086 0.32344 0.0
H114 H 0.85727 0.9964 0.11448 0.0
H115 H 0.83093 0.99375 0.19522 0.0
H116 H 0.78113 0.0598 0.13947 0.0
H117 H 0.74332 1.00565 0.07439 0.0
H118 H 0.75371 0.99025 0.16251 0.0
H119 H 0.79118 0.04435 0.22903 0.0
C120 C 0.56871 0.76334 0.35044 0.0
C121 C 0.55181 0.74884 0.34832 0.0
C122 C 0.57104 0.72968 0.41706 0.0
C123 C 0.55292 0.73232 0.38138 0.0
C124 C 0.58782 0.74439 0.42013 0.0
C125 C 0.58664 0.76107 0.38718 0.0
U126 U 0.55747 0.77325 0.19411 0.0
O127 O 0.54075 0.7967 0.15161 0.0
O128 O 0.5743 0.78978 0.12754 0.0
C129 C 0.55759 0.80108 0.11989 0.0
C130 C 0.56876 0.77897 0.30835 0.0
C131 C 0.56148 0.82278 0.11193 0.0
C132 C 0.55008 0.85824 0.12549 0.0
C133 C 0.5496 0.83868 0.14359 0.0
C134 C 0.57523 0.84667 0.04614 0.0
C135 C 0.56235 0.8623 0.07518 0.0
C136 C 0.57475 0.82716 0.06427 0.0
C137 C 0.53837 0.72215 0.09783 0.0
C138 C 0.50955 0.70376 0.03825 0.0
C139 C 0.54642 0.694 0.01955 0.0
C140 C 0.55328 0.70957 0.06443 0.0
C141 C 0.52444 0.69053 1.00699 0.0
C142 C 0.51644 0.71938 0.08342 0.0
C143 C 0.54554 0.73556 0.15313 0.0
O144 O 0.58282 0.77592 0.26427 0.0
O145 O 0.54977 0.78396 0.28953 0.0
O146 O 0.53218 0.7494 0.17799 0.0
O147 O 0.56559 0.7421 0.1545 0.0
H148 H 0.53798 0.74981 0.31934 0.0
H149 H 0.53988 0.72114 0.37693 0.0
H150 H 0.60195 0.74289 0.44746 0.0
H151 H 0.60001 0.77185 0.38891 0.0
H152 H 0.54026 0.87 0.14962 0.0
H153 H 0.53917 0.83581 0.18049 0.0
H154 H 0.58469 0.84907 1.0069 0.0
H155 H 0.58385 0.81514 0.03858 0.0
H156 H 0.49252 0.70163 0.02924 0.0
H157 H 0.55835 0.68391 0.99736 0.0
H158 H 0.57025 0.71102 0.07509 0.0
H159 H 0.5045 0.72866 0.10877 0.0
C160 C 0.26373 0.49253 0.05754 0.0
C161 C 0.24553 0.49292 0.09474 0.0
C162 C 0.22208 0.4942 1.00714 0.0
C163 C 0.22492 0.49366 0.06977 0.0
C164 C 0.24042 0.49392 0.97021 0.0
C165 C 0.261 0.49306 0.99517 0.0
U166 U 0.30218 0.5012 0.19247 0.0
O167 O 0.33521 0.51394 0.19985 0.0
O168 O 0.32876 0.48247 0.21756 0.0
C169 C 0.34296 0.49753 0.21908 0.0
C170 C 0.28557 0.49178 0.08323 0.0
C171 C 0.35766 0.50094 0.27234 0.0
C172 C 0.39116 0.51565 0.31697 0.0
C173 C 0.37596 0.51351 0.26994 0.0
C174 C 0.36995 0.49287 0.37055 0.0
C175 C 0.38857 0.50512 0.3676 0.0
C176 C 0.35468 0.49081 0.32355 0.0
C177 C 0.27507 0.523 0.34524 0.0
C178 C 0.27656 0.55183 0.42593 0.0
C179 C 0.2562 0.52123 0.43972 0.0
C180 C 0.26251 0.51208 0.38251 0.0
C181 C 0.26224 0.5416 0.46083 0.0
C182 C 0.28288 0.54264 0.36849 0.0
C183 C 0.27616 0.51528 0.27989 0.0
O184 O 0.29469 0.50962 0.10214 0.0
O185 O 0.2883 0.47834 0.12108 0.0
O186 O 0.27967 0.49566 0.26482 0.0
O187 O 0.28585 0.52698 0.24449 0.0
H188 H 0.24726 0.49271 0.14314 0.0
H189 H 0.21122 0.49413 0.0997 0.0
H190 H 0.23886 0.49409 0.92177 0.0
H191 H 0.27482 0.49279 0.96567 0.0
H192 H 0.40503 0.52553 0.31341 0.0
H193 H 0.37872 0.52146 0.231 0.0
H194 H 0.36744 0.48434 0.40835 0.0
H195 H 0.3408 0.48093 0.32684 0.0
H196 H 0.28176 0.56742 0.44128 0.0
H197 H 0.24498 0.5129 0.4648 0.0
H198 H 0.25613 0.49699 0.36559 0.0
H199 H 0.29269 0.55145 0.34095 0.0
C200 C 0.09329 0.2285 0.05093 0.0
C201 C 0.08769 0.2129 0.08532 0.0
C202 C 0.09019 0.1875 0.99561 0.0
C203 C 0.08616 0.1926 0.05798 0.0
C204 C 0.09635 0.20318 0.96166 0.0
C205 C 0.09786 0.22353 0.98915 0.0
U206 U 0.08069 0.26633 0.18704 0.0
O207 O 0.06424 0.29573 0.19224 0.0
O208 O 0.0971 0.29469 0.22775 0.0
C209 C 0.08036 0.30601 0.22071 0.0
C210 C 0.0929 0.24996 0.07887 0.0
C211 C 0.07467 0.32128 0.27231 0.0
C212 C 0.06409 0.35603 0.30794 0.0
C213 C 0.06894 0.34078 0.26047 0.0
C214 C 0.07049 0.3324 0.38031 0.0
C215 C 0.06487 0.35208 0.36848 0.0
C216 C 0.07529 0.31707 0.33251 0.0
C217 C 0.05938 0.23706 0.32013 0.0
C218 C 0.02851 0.23111 0.38262 0.0
C219 C 0.06289 0.21709 0.40377 0.0
C220 C 0.07205 0.22618 0.35659 0.0
C221 C 0.04079 0.21864 0.41558 0.0
C222 C 0.03769 0.24016 0.33511 0.0
C223 C 0.06783 0.24067 0.26043 0.0
O224 O 0.07356 0.25699 0.09036 0.0
O225 O 0.10636 0.2549 0.1243 0.0
O226 O 0.08789 0.24697 0.25757 0.0
O227 O 0.05492 0.24823 0.22252 0.0
H228 H 0.08393 0.21651 0.13306 0.0
H229 H 0.08105 0.18102 0.08532 0.0
H230 H 0.09979 0.19974 0.91371 0.0
H231 H 0.10216 0.23542 0.96195 0.0
H232 H 0.06018 0.37107 0.29721 0.0
H233 H 0.06846 0.34432 0.21428 0.0
H234 H 0.07106 0.32884 0.42642 0.0
H235 H 0.07961 0.30204 0.34252 0.0
H236 H 1.01153 0.23297 0.3913 0.0
H237 H 0.07287 0.20747 0.42754 0.0
H238 H 0.08873 0.2233 0.34561 0.0
H239 H 0.02745 0.24843 0.30781 0.0
C240 C 0.30275 0.02497 0.06825 0.0
C241 C 0.32111 0.02748 0.10549 0.0
C242 C 0.3444 0.02298 0.01644 0.0
C243 C 0.34169 0.02655 0.0799 0.0
C244 C 0.32588 0.02024 0.97951 0.0
C245 C 0.30534 0.02125 1.00514 0.0
U246 U 0.26407 0.02051 0.19931 0.0
O247 O 0.2371 0.04006 0.23261 0.0
O248 O 0.23126 1.00758 0.19943 0.0
C249 C 0.2231 0.02478 0.22555 0.0
C250 C 0.28089 0.0262 0.09432 0.0
C251 C 0.20813 0.02339 0.27656 0.0
C252 C 0.175 0.03446 0.32758 0.0
C253 C 0.19012 0.03592 0.2819 0.0
C254 C 0.19578 1.00802 0.36443 0.0
C255 C 0.17742 0.02033 0.3692 0.0
C256 C 0.21098 0.00953 0.31859 0.0
C257 C 0.29094 1.00476 0.34437 0.0
C258 C 0.28598 0.97968 0.41414 0.0
C259 C 0.31128 1.0079 0.43833 0.0
C260 C 0.30567 0.01547 0.38501 0.0
C261 C 0.3023 0.98936 0.45208 0.0
C262 C 0.28036 0.9873 0.36057 0.0
C263 C 0.29004 0.01006 0.28215 0.0
O264 O 0.27208 1.00875 0.10456 0.0
O265 O 0.27782 0.0411 0.13881 0.0
O266 O 0.28624 0.02922 0.2761 0.0
O267 O 0.28067 0.99676 0.24049 0.0
H268 H 0.31955 0.03029 0.15439 0.0
H269 H 0.35545 0.02897 0.10995 0.0
H270 H 0.3272 0.01708 0.93064 0.0
H271 H 0.29142 0.01912 0.97553 0.0
H272 H 0.16141 0.04452 0.33034 0.0
H273 H 0.18763 0.04679 0.25021 0.0
H274 H 0.19817 0.99686 0.39524 0.0
H275 H 0.22478 0.99971 0.31554 0.0
H276 H 0.27851 0.96556 0.42394 0.0
H277 H 0.32406 0.01571 0.46582 0.0
H278 H 0.3141 0.02891 0.37337 0.0
H279 H 0.26877 0.97881 0.33023 0.0
C280 C 0.48048 0.25963 0.21108 0.0
C281 C 0.47281 0.27875 0.23693 0.0
C282 C 0.47967 0.29308 0.14333 0.0
C283 C 0.47232 0.29519 0.20349 0.0
C284 C 0.48699 0.27384 0.11693 0.0
C285 C 0.48736 0.25726 0.15052 0.0
U286 U 0.49951 0.24836 0.3597 0.0
O287 O 0.48636 0.23161 0.43091 0.0
O288 O 0.51846 0.22442 0.39377 0.0
C289 C 0.50338 0.22016 0.43171 0.0
C290 C 0.48372 0.2433 0.2498 0.0
C291 C 0.49984 0.19859 0.44137 0.0
C292 C 0.50926 0.16261 0.42346 0.0
C293 C 0.50983 0.18225 0.40576 0.0
C294 C 0.48815 0.17526 0.5112 0.0
C295 C 0.49886 0.15897 0.47733 0.0
C296 C 0.48863 0.19476 0.49338 0.0
C297 C 0.5201 0.29905 0.45436 0.0
C298 C 0.55063 0.3168 0.50749 0.0
C299 C 0.5145 0.32674 0.53617 0.0
C300 C 0.50627 0.31149 0.49226 0.0
C301 C 0.53676 0.33001 0.54298 0.0
C302 C 0.54238 0.3015 0.46345 0.0
C303 C 0.51128 0.28611 0.40023 0.0
O304 O 0.5039 0.23964 0.26119 0.0
O305 O 0.47156 0.24438 0.29836 0.0
O306 O 0.49156 0.27904 0.4041 0.0
O307 O 0.52415 0.27286 0.37012 0.0
H308 H 0.46783 0.2813 0.28393 0.0
H309 H 0.46698 0.30982 0.22581 0.0
H310 H 0.49265 0.27166 0.07057 0.0
H311 H 0.49361 0.24278 0.12979 0.0
H312 H 0.51741 0.15039 0.39567 0.0
H313 H 0.5187 0.18475 0.36554 0.0
H314 H 0.48029 0.1733 0.55342 0.0
H315 H 0.48109 0.20715 0.52218 0.0
H316 H 0.56786 0.31881 0.51211 0.0
H317 H 0.50333 0.33683 0.56197 0.0
H318 H 0.48905 0.31022 0.48582 0.0
H319 H 0.5535 0.29228 0.43471 0.0
Tb320 Tb 1.01459 0.01768 0.72811 0.0
Tb321 Tb 0.04834 0.99616 0.81269 0.0
C322 C 1.0002 1.00434 0.85185 0.0
C323 C 0.99222 0.05705 0.64596 0.0
C324 C 0.99667 0.09598 0.60797 0.0
C325 C 0.97948 0.08278 0.58676 0.0
C326 C 0.97728 0.06346 0.60571 0.0
C327 C 1.0093 0.0702 0.66762 0.0
C328 C 1.01148 0.08951 0.64893 0.0
C329 C 0.99018 0.03667 0.6652 0.0
O330 O 0.02689 0.0414 0.7976 0.0
O331 O 0.05904 0.02791 0.82113 0.0
O332 O 0.06316 0.99589 0.72374 0.0
O333 O 0.04638 0.02323 0.69261 0.0
O334 O 0.06134 0.99246 0.89796 0.0
O335 O 0.07242 0.97459 0.81624 0.0
O336 O 0.02539 0.97256 0.77673 0.0
O337 O 1.01492 0.98538 0.6907 0.0
O338 O 0.99484 1.00481 0.79484 0.0
O339 O 1.02045 1.00492 0.86905 0.0
C340 C 0.0464 0.04358 0.82035 0.0
O341 O 1.00412 0.02336 0.64211 0.0
O342 O 0.98807 0.03653 0.7234 0.0
C343 C 0.06219 0.01025 0.68826 0.0
C344 C 0.06918 0.95786 0.90163 0.0
C345 C 0.06338 0.91945 0.94184 0.0
C346 C 0.0831 0.93015 0.95103 0.0
C347 C 0.08601 0.94918 0.93065 0.0
C348 C 0.04932 0.94748 0.89389 0.0
C349 C 0.04648 0.9284 0.9135 0.0
C350 C 0.07266 0.97688 0.87526 0.0
C351 C 1.01702 0.96999 0.72205 0.0
H352 H 0.96771 0.08739 0.55561 0.0
H353 H 0.96397 0.05351 0.58873 0.0
H354 H 1.02106 0.06543 0.69858 0.0
H355 H 0.02506 0.09916 0.66542 0.0
H356 H 0.0964 0.92357 0.97261 0.0
H357 H 0.10148 0.95695 0.93659 0.0
H358 H 0.03612 0.95401 0.87184 0.0
H359 H 0.03101 0.92066 0.90671 0.0
Tb360 Tb 0.52043 0.9917 0.71578 0.0
Tb361 Tb 0.54135 0.02617 0.81879 0.0
C362 C 0.53984 0.9804 0.83622 0.0
C363 C 0.4774 0.96161 0.63493 0.0
C364 C 0.43284 0.95381 0.62652 0.0
C365 C 0.44738 0.93838 0.60556 0.0
C366 C 0.46955 0.94224 0.61013 0.0
C367 C 0.46289 0.9769 0.65627 0.0
C368 C 0.44088 0.97303 0.6524 0.0
C369 C 0.50058 0.96605 0.64019 0.0
O370 O 0.49341 1.00695 0.76389 0.0
O371 O 0.50966 0.01976 0.85423 0.0
O372 O 0.52082 0.04153 0.76064 0.0
O373 O 0.52642 0.01947 0.67495 0.0
O374 O 0.55217 0.03641 0.90748 0.0
O375 O 0.55422 0.05593 0.83725 0.0
O376 O 0.56562 0.01978 0.74856 0.0
O377 O 0.55489 0.98785 0.70311 0.0
O378 O 0.52318 0.97839 0.79964 0.0
O379 O 0.55235 0.99672 0.83966 0.0
C380 C 0.49228 0.01424 0.82187 0.0
O381 O 0.50653 0.98422 0.62944 0.0
O382 O 0.50976 0.96133 0.68893 0.0
C383 C 0.52136 0.0377 0.70134 0.0
C384 C 0.58304 0.05716 0.90443 0.0
C385 C 0.62719 0.06476 0.92511 0.0
C386 C 0.61199 0.07873 0.95159 0.0
C387 C 0.59005 0.07496 0.94116 0.0
C388 C 0.59811 0.04333 0.87732 0.0
C389 C 0.61999 0.04709 0.88753 0.0
C390 C 0.56015 0.05334 0.89183 0.0
C391 C 0.56957 1.00251 0.71374 0.0
H392 H 0.4416 0.92343 0.58527 0.0
H393 H 0.48052 0.93021 0.5938 0.0
H394 H 0.46856 0.99203 0.67488 0.0
H395 H 0.43016 0.9854 0.66759 0.0
H396 H 0.61706 0.09254 0.98043 0.0
H397 H 0.57859 0.08591 0.96176 0.0
H398 H 0.59294 0.02954 0.84853 0.0
H399 H 0.63121 0.03584 0.86733 0.0
Tb400 Tb 0.5188 0.50067 0.82105 0.0
Tb401 Tb 0.55273 0.52051 0.72832 0.0
C402 C 0.50488 0.5109 0.69142 0.0
C403 C 0.49403 0.46385 0.91628 0.0
C404 C 0.49231 0.42639 0.96506 0.0
C405 C 0.47563 0.44053 0.97548 0.0
C406 C 0.47649 0.45904 0.95128 0.0
C407 C 0.51089 0.45 0.90634 0.0
C408 C 0.51004 0.43144 0.93046 0.0
C409 C 0.49376 0.48264 0.88725 0.0
O410 O 0.54196 0.47747 0.79114 0.0
O411 O 0.55099 0.48764 0.69975 0.0
O412 O 0.57204 0.51109 0.8015 0.0
O413 O 0.54632 0.513 0.87554 0.0
O414 O 0.56332 0.52346 0.64014 0.0
O415 O 0.57966 0.53936 0.71863 0.0
O416 O 0.53933 0.54602 0.78667 0.0
O417 O 0.50869 0.53215 0.82482 0.0
O418 O 0.50387 0.49787 0.73121 0.0
O419 O 0.52094 0.52401 0.69123 0.0
C420 C 0.54933 0.47344 0.73578 0.0
O421 O 0.50711 0.49733 0.90818 0.0
O422 O 0.49344 0.47985 0.82826 0.0
C423 C 0.56656 0.51262 0.85901 0.0
C424 C 0.57693 0.55673 0.63352 0.0
C425 C 0.5762 0.59476 0.58806 0.0
C426 C 0.59494 0.58306 0.5845 0.0
C427 C 0.59529 0.56423 0.60705 0.0
C428 C 0.55816 0.56824 0.637 0.0
C429 C 0.55778 0.58705 0.61444 0.0
C430 C 0.57772 0.53739 0.65978 0.0
C431 C 0.52063 0.54785 0.81374 0.0
H432 H 0.46159 0.43709 1.00107 0.0
H433 H 0.46323 0.46944 0.95895 0.0
H434 H 0.52455 0.45344 0.87928 0.0
H435 H 0.52329 0.42106 0.9221 0.0
H436 H 0.60933 0.58837 0.56386 0.0
H437 H 0.60994 0.55559 0.60416 0.0
H438 H 0.54386 0.56276 0.65773 0.0
H439 H 0.54316 0.59573 0.61874 0.0
Tb440 Tb 0.04519 0.52031 0.72541 0.0
Tb441 Tb 0.02406 0.49012 0.81498 0.0
C442 C 0.02771 0.53689 0.85226 0.0
C443 C 0.08569 0.55282 0.66355 0.0
C444 C 0.12828 0.56751 0.65801 0.0
C445 C 0.11133 0.57744 0.63258 0.0
C446 C 0.09021 0.57006 0.63505 0.0
C447 C 0.10229 0.54371 0.69244 0.0
C448 C 0.12337 0.55089 0.68945 0.0
C449 C 0.06399 0.54369 0.66073 0.0
O450 O 0.07219 0.50644 0.76633 0.0
O451 O 0.05631 0.49673 0.85153 0.0
O452 O 0.04279 0.47183 0.74644 0.0
O453 O 0.03703 0.49126 0.67121 0.0
O454 O 1.01375 0.48392 0.90066 0.0
O455 O 1.0105 0.4612 0.82163 0.0
O456 O 0.99882 0.4946 0.75036 0.0
O457 O 1.01074 0.52383 0.71403 0.0
O458 O 0.04447 0.53663 0.81682 0.0
O459 O 1.01441 0.52113 0.8481 0.0
C460 C 0.07352 0.50079 0.82079 0.0
O461 O 0.0631 0.52382 0.64788 0.0
O462 O 0.05127 0.55017 0.7053 0.0
C463 C 0.04145 0.47358 0.68859 0.0
C464 C 0.98186 0.4642 0.88867 0.0
C465 C 0.93725 0.45883 0.90051 0.0
C466 C 0.95143 0.44377 0.9148 0.0
C467 C 0.97359 0.44643 0.90872 0.0
C468 C 0.9678 0.4792 0.87412 0.0
C469 C 0.94572 0.47655 0.88003 0.0
C470 C 1.00489 0.46649 0.8778 0.0
C471 C 0.99545 0.51036 0.72134 0.0
H472 H 0.11444 0.59052 0.60904 0.0
H473 H 0.07753 0.57744 0.6132 0.0
H474 H 0.09909 0.53049 0.71516 0.0
H475 H 0.1359 0.54262 0.70893 0.0
H476 H 0.94538 0.42989 0.93028 0.0
H477 H 0.98424 0.43456 0.91911 0.0
H478 H 0.97392 0.49294 0.85789 0.0
H479 H 0.93531 0.48861 0.86967 0.0
H480 H 0.18303 0.01368 0.48808 0.0
H481 H 0.13365 0.02248 0.35793 0.0
H482 H 0.15562 0.01126 0.56516 0.0
H483 H 0.10639 0.02023 0.4349 0.0
H484 H 0.0649 0.03671 0.60309 0.0
H485 H 0.0928 0.03907 0.52761 0.0
H486 H 0.12625 0.98955 0.59299 0.0
H487 H 0.09851 0.98735 0.66909 0.0
C488 C 0.16636 0.01494 0.47562 0.0
C489 C 0.16069 0.01841 0.41656 0.0
C490 C 0.1506 0.01357 0.51996 0.0
C491 C 0.12872 0.01567 0.50657 0.0
C492 C 0.12306 0.01895 0.4474 0.0
C493 C 0.13877 0.02025 0.40311 0.0
C494 C 0.0782 0.02632 0.60154 0.0
C495 C 0.07935 0.01181 0.64235 0.0
C496 C 0.09418 0.0276 0.55789 0.0
C497 C 0.11183 0.01446 0.55386 0.0
C498 C 0.11307 1.00007 0.59503 0.0
C499 C 0.09704 0.99873 0.63854 0.0
H500 H 0.46826 0.13911 0.53797 0.0
H501 H 0.53328 0.13331 0.47177 0.0
H502 H 0.47271 0.10891 0.58881 0.0
H503 H 0.53734 0.10273 0.52101 0.0
H504 H 0.52975 0.03851 0.58081 0.0
H505 H 0.52305 0.0663 0.52091 0.0
H506 H 0.49554 0.10186 0.67799 0.0
H507 H 0.50232 0.07424 0.73795 0.0
C508 C 0.48346 0.13138 0.53386 0.0
C509 C 0.50048 0.1389 0.50113 0.0
C510 C 0.48596 0.11403 0.56293 0.0
C511 C 0.50543 0.10355 0.55934 0.0
C512 C 0.52209 0.1104 0.52425 0.0
C513 C 0.51969 0.12791 0.49574 0.0
C514 C 0.52217 0.05222 0.60248 0.0
C515 C 0.51662 0.05418 0.66423 0.0
C516 C 0.51843 0.06815 0.56821 0.0
C517 C 0.50874 0.08624 0.5947 0.0
C518 C 0.50283 0.08803 0.65612 0.0
C519 C 0.50685 0.07224 0.69057 0.0
H520 H 0.43235 0.50681 0.35434 0.0
H521 H 0.38333 0.50636 0.49108 0.0
H522 H 0.45994 0.50875 0.43267 0.0
H523 H 0.41105 0.50799 0.56939 0.0
H524 H 0.46749 0.48807 0.68193 0.0
H525 H 0.43945 0.48705 0.60479 0.0
H526 H 0.47476 0.53199 0.5185 0.0
H527 H 0.50293 0.5329 0.59523 0.0
C528 C 0.42739 0.50736 0.40113 0.0
C529 C 0.40548 0.50649 0.41608 0.0
C530 C 0.44328 0.50843 0.44614 0.0
C531 C 0.43778 0.50855 0.50747 0.0
C532 C 0.4159 0.50766 0.52255 0.0
C533 C 0.39998 0.50669 0.47753 0.0
C534 C 0.46931 0.49777 0.64658 0.0
C535 C 0.48757 0.51054 0.6449 0.0
C536 C 0.45313 0.49727 0.60249 0.0
C537 C 0.45481 0.50942 0.55528 0.0
C538 C 0.47303 0.52224 0.55373 0.0
C539 C 0.48916 0.52284 0.59802 0.0
H540 H 0.03304 0.38022 0.3737 0.0
H541 H 0.08644 0.3617 0.47645 0.0
H542 H 0.02716 0.40913 0.45189 0.0
H543 H 0.08057 0.39069 0.55483 0.0
H544 H 0.05068 0.43462 0.70856 0.0
H545 H 0.05552 0.40463 0.63327 0.0
H546 H 0.04491 0.44147 0.48976 0.0
H547 H 0.03969 0.47138 0.56493 0.0
C548 C 0.04356 0.38235 0.41296 0.0
C549 C 0.06031 0.36872 0.41861 0.0
C550 C 0.04021 0.39895 0.45774 0.0
C551 C 0.05352 0.40235 0.50936 0.0
C552 C 0.06991 0.38841 0.51589 0.0
C553 C 0.07326 0.37177 0.47102 0.0
C554 C 0.04938 0.43634 0.66094 0.0
C555 C 0.04476 0.45542 0.64281 0.0
C556 C 0.05226 0.41915 0.61778 0.0
C557 C 0.05054 0.42062 0.55548 0.0
C558 C 0.04601 0.43973 0.5374 0.0
C559 C 0.04316 0.45692 0.58053 0.0
H560 H 0.88469 0.01821 0.07746 0.0
H561 H 0.92284 0.97428 0.15552 0.0
H562 H 0.91198 0.02037 0.99984 0.0
H563 H 0.95002 0.97647 0.07831 0.0
H564 H 1.00498 1.00155 0.97314 0.0
H565 H 0.97712 0.99949 0.04868 0.0
H566 H 0.92851 1.00162 0.91106 0.0
H567 H 0.95643 1.00407 0.83551 0.0
C568 C 0.89877 1.00886 0.07785 0.0
C569 C 0.90153 0.99619 0.12334 0.0
C570 C 0.91447 0.0101 0.03323 0.0
C571 C 0.93338 0.99871 0.0328 0.0
C572 C 0.93595 0.98582 0.07776 0.0
C573 C 0.92029 0.98457 0.12222 0.0
C574 C 0.98837 1.0016 0.95881 0.0
C575 C 0.98305 1.00298 0.89797 0.0
C576 C 0.97233 1.00028 1.00223 0.0
C577 C 0.95046 1.00031 0.98622 0.0
C578 C 0.94513 1.00178 0.92538 0.0
C579 C 0.9612 1.00305 0.88187 0.0
H580 H 0.52578 0.88384 0.0639 0.0
H581 H 0.59367 0.88501 0.02592 0.0
H582 H 0.52109 0.91358 0.01178 0.0
H583 H 0.58877 0.91442 0.9715 0.0
H584 H 0.57325 0.97785 0.91615 0.0
H585 H 0.57932 0.9509 0.97979 0.0
H586 H 0.52186 0.91921 0.90647 0.0
H587 H 0.51566 0.946 0.844 0.0
C588 C 0.5398 0.89061 0.04531 0.0
C589 C 0.56011 0.8819 0.04912 0.0
C590 C 0.53705 0.90753 0.01458 0.0
C591 C 0.5545 0.91626 0.98663 0.0
C592 C 0.57499 0.90814 0.99258 0.0
C593 C 0.57775 0.89114 0.02334 0.0
C594 C 0.56191 0.96514 0.91378 0.0
C595 C 0.54394 0.96416 0.87498 0.0
C596 C 0.56543 0.94966 0.95008 0.0
C597 C 0.55099 0.93294 0.94868 0.0
C598 C 0.5331 0.93202 0.9097 0.0
C599 C 0.52964 0.94737 0.87341 0.0
H600 H 0.67929 0.49561 0.08294 0.0
H601 H 0.643 0.54283 0.1884 0.0
H602 H 0.65281 0.49401 1.00107 0.0
H603 H 0.61662 0.54118 0.10702 0.0
H604 H 0.5613 0.5166 0.98221 0.0
H605 H 0.58875 0.51831 0.0607 0.0
H606 H 0.63796 0.51296 0.92355 0.0
H607 H 0.61037 0.51092 0.84453 0.0
C608 C 0.66581 0.5058 0.08852 0.0
C609 C 0.66325 0.51921 0.14275 0.0
C610 C 0.6506 0.50488 0.0415 0.0
C611 C 0.63241 0.51733 0.04749 0.0
C612 C 0.63013 0.53102 0.1012 0.0
C613 C 0.64531 0.53196 0.14803 0.0
C614 C 0.57795 0.51579 0.96853 0.0
C615 C 0.58354 0.51367 0.90678 0.0
C616 C 0.59376 0.51689 0.01376 0.0
C617 C 0.61565 0.51589 0.99869 0.0
C618 C 0.62127 0.51361 0.93691 0.0
C619 C 0.60543 0.51256 0.89154 0.0
H620 H 0.97518 0.63879 0.09612 0.0
H621 H 0.04311 0.64029 0.13533 0.0
H622 H 0.98016 0.60981 0.017 0.0
H623 H 0.04799 0.61099 0.05774 0.0
H624 H 0.05251 0.57167 0.87393 0.0
H625 H 0.04677 0.60162 0.94828 0.0
H626 H 0.98906 0.57342 1.00839 0.0
H627 H 0.99459 0.54347 0.93313 0.0
C628 C 0.99119 0.63304 0.08755 0.0
C629 C 1.00875 0.64185 0.12208 0.0
C630 C 0.99401 0.61627 0.04272 0.0
C631 C 1.01446 0.60802 0.03116 0.0
C632 C 0.03205 0.61706 0.06505 0.0
C633 C 0.02922 0.63375 0.10996 0.0
C634 C 0.03856 0.57181 0.9029 0.0
C635 C 0.02404 0.5551 0.89763 0.0
C636 C 0.03534 0.58898 0.94577 0.0
C637 C 1.0175 0.58992 0.98445 0.0
C638 C 1.00285 0.57329 0.97885 0.0
C639 C 1.0061 0.55606 0.93597 0.0
H640 H 1.00234 0.19806 0.39728 0.0
H641 H 0.05578 0.20749 0.52276 0.0
H642 H 0.98848 0.17085 0.45052 0.0
H643 H 0.04252 0.1794 0.57391 0.0
H644 H 1.0083 0.13285 0.67319 0.0
H645 H 1.01566 0.16522 0.63455 0.0
H646 H 0.99979 0.13656 0.45321 0.0
H647 H 0.99226 0.10445 0.49186 0.0
C648 C 1.01093 0.19468 0.43704 0.0
C649 C 0.03035 0.2049 0.45525 0.0
C650 C 1.00312 0.1788 0.46702 0.0
C651 C 1.0146 0.1726 0.5157 0.0
C652 C 0.03323 0.18374 0.53661 0.0
C653 C 0.04097 0.19974 0.50685 0.0
C654 C 1.00631 0.13354 0.62511 0.0
C655 C 0.99973 0.11607 0.58556 0.0
C656 C 1.01053 0.15208 0.60297 0.0
C657 C 1.0083 0.15355 0.54076 0.0
C658 C 1.00125 0.13616 0.50156 0.0
C659 C 0.99698 0.11768 0.52369 0.0
H660 H 0.31831 1.00579 0.56358 0.0
H661 H 0.3109 0.94858 0.44498 0.0
H662 H 0.34617 0.99101 0.61942 0.0
H663 H 0.33777 0.93339 0.50331 0.0
H664 H 0.41265 0.93646 0.5232 0.0
H665 H 0.37525 0.9396 0.49689 0.0
H666 H 0.3624 0.96819 0.67945 0.0
H667 H 0.40022 0.96531 0.70537 0.0
C668 C 0.32206 0.98983 0.55079 0.0
C669 C 0.31289 0.97863 0.49851 0.0
C670 C 0.33792 0.98123 0.58333 0.0
C671 C 0.34471 0.96114 0.56468 0.0
C672 C 0.33336 0.94909 0.51773 0.0
C673 C 0.31769 0.95777 0.48472 0.0
C674 C 0.40172 0.94274 0.55836 0.0
C675 C 0.40943 0.95096 0.61597 0.0
C676 C 0.38015 0.94451 0.54337 0.0
C677 C 0.36578 0.95445 0.58583 0.0
C678 C 0.37311 0.96085 0.64531 0.0
C679 C 0.39475 0.95917 0.66018 0.0
H680 H 0.56918 0.35574 0.51638 0.0
H681 H 0.52293 0.34683 0.6552 0.0
H682 H 0.57816 0.38957 0.56918 0.0
H683 H 0.53112 0.38103 0.70633 0.0
H684 H 0.55645 0.45699 0.61827 0.0
H685 H 0.55867 0.42093 0.57849 0.0
H686 H 0.5558 0.40521 0.76087 0.0
H687 H 0.55306 0.44129 0.80059 0.0
C688 C 0.56128 0.36078 0.55893 0.0
C689 C 0.54513 0.34867 0.58122 0.0
C690 C 0.56624 0.3803 0.58876 0.0
C691 C 0.5551 0.38817 0.64136 0.0
C692 C 0.54009 0.37546 0.66605 0.0
C693 C 0.53521 0.35591 0.63639 0.0
C694 C 0.55669 0.44588 0.64998 0.0
C695 C 0.55422 0.45199 0.71247 0.0
C696 C 0.5581 0.42517 0.62721 0.0
C697 C 0.55722 0.41014 0.66649 0.0
C698 C 0.55612 0.41638 0.72932 0.0
C699 C 0.5546 0.43707 0.75206 0.0
H700 H 0.24681 0.58036 0.4688 0.0
H701 H 0.24985 0.52843 0.56788 0.0
H702 H 0.218 0.59432 0.53397 0.0
H703 H 0.22027 0.54197 0.63125 0.0
H704 H 0.16367 0.56713 0.73271 0.0
H705 H 0.20127 0.56753 0.7021 0.0
H706 H 0.18187 0.57955 0.52385 0.0
H707 H 0.14471 0.57867 0.55339 0.0
C708 C 0.24195 0.57226 0.5059 0.0
C709 C 0.25028 0.55296 0.51206 0.0
C710 C 0.22523 0.5802 0.5429 0.0
C711 C 0.21642 0.56896 0.5865 0.0
C712 C 0.22659 0.55099 0.59786 0.0
C713 C 0.24342 0.5431 0.56107 0.0
C714 C 0.16748 0.57017 0.68726 0.0
C715 C 0.15105 0.57253 0.64525 0.0
C716 C 0.18903 0.5705 0.66992 0.0
C717 C 0.19457 0.57344 0.61048 0.0
C718 C 0.17825 0.57755 0.57031 0.0
C719 C 0.15679 0.57704 0.58738 0.0
H720 H 0.06156 0.81248 0.13297 0.0
H721 H 1.00264 0.80916 0.02891 0.0
H722 H 0.0745 0.84019 0.08038 0.0
H723 H 1.01497 0.83787 0.97942 0.0
H724 H 0.04552 0.88506 0.87774 0.0
H725 H 0.03848 0.85207 0.91262 0.0
H726 H 0.06657 0.87527 0.08692 0.0
H727 H 0.07415 0.90792 0.05109 0.0
C728 C 0.0515 0.81734 0.09802 0.0
C729 C 0.0309 0.80866 0.08578 0.0
C730 C 0.0588 0.83354 0.06857 0.0
C731 C 0.04562 0.84164 0.0266 0.0
C732 C 0.02562 0.83207 0.01137 0.0
C733 C 1.01842 0.81571 0.04033 0.0
C734 C 0.05028 0.883 0.92339 0.0
C735 C 0.06027 0.89907 0.96187 0.0
C736 C 0.04622 0.86411 0.94345 0.0
C737 C 0.05187 0.86094 1.00272 0.0
C738 C 0.06234 0.87695 0.04062 0.0
C739 C 0.0666 0.89574 0.02029 0.0
H740 H 0.74728 0.07363 0.11896 0.0
H741 H 0.748 0.02015 0.98347 0.0
H742 H 0.71877 0.08774 0.06392 0.0
H743 H 0.71844 0.03366 0.93068 0.0
H744 H 0.66163 0.05816 0.84883 0.0
H745 H 0.6994 0.05714 0.87783 0.0
H746 H 0.68237 0.07624 0.06493 0.0
H747 H 0.64503 0.0774 0.03595 0.0
C748 C 0.74193 0.06514 0.07634 0.0
C749 C 0.74951 0.0454 0.05667 0.0
C750 C 0.7253 0.07315 0.04519 0.0
C751 C 0.71574 0.0615 0.99424 0.0
C752 C 0.72524 0.04302 0.97009 0.0
C753 C 0.74208 0.03513 1.0008 0.0
C754 C 0.6661 0.06246 0.89599 0.0
C755 C 0.65033 0.06761 0.94026 0.0
C756 C 0.68771 0.06191 0.91255 0.0
C757 C 0.69397 0.06646 0.97374 0.0
C758 C 0.6783 0.07297 0.01721 0.0
C759 C 0.65677 0.07357 1.00064 0.0
H760 H 0.49034 0.66489 0.02207 0.0
H761 H 0.5426 0.67364 0.90052 0.0
H762 H 0.48284 0.63122 0.96604 0.0
H763 H 0.53625 0.63958 0.84756 0.0
H764 H 0.50343 0.56317 0.92254 0.0
H765 H 0.49899 0.59924 0.96107 0.0
H766 H 0.51629 0.61545 0.78506 0.0
H767 H 0.52203 0.57952 0.74853 0.0
C768 C 0.49998 0.65982 0.98268 0.0
C769 C 0.51731 0.67186 0.96637 0.0
C770 C 0.49588 0.64034 0.95107 0.0
C771 C 0.50914 0.6324 0.90287 0.0
C772 C 0.52551 0.64508 0.88405 0.0
C773 C 0.52941 0.6646 0.91507 0.0
C774 C 0.50581 0.5745 0.89204 0.0
C775 C 0.51338 0.56875 0.8331 0.0
C776 C 0.50318 0.5952 0.91385 0.0
C777 C 0.50767 0.61042 0.87654 0.0
C778 C 0.51334 0.60429 0.81573 0.0
C779 C 0.51648 0.5837 0.79456 0.0
H780 H 0.81783 0.50711 0.99078 0.0
H781 H 0.814 0.45073 0.06954 0.0
H782 H 0.84754 0.49372 0.92805 0.0
H783 H 0.84279 0.43692 1.00421 0.0
H784 H 0.9173 0.445 0.99634 0.0
H785 H 0.87963 0.4471 0.02197 0.0
H786 H 0.86624 0.47058 0.85369 0.0
H787 H 0.90428 0.46849 0.82799 0.0
C788 C 0.82277 0.49157 0.99306 0.0
C789 C 0.81402 0.48031 0.03675 0.0
C790 C 0.83971 0.48378 0.95657 0.0
C791 C 0.848 0.46447 0.96261 0.0
C792 C 0.83716 0.45209 0.99984 0.0
C793 C 0.82039 0.45996 0.03678 0.0
C794 C 0.90628 0.45001 0.96386 0.0
C795 C 0.91384 0.45684 0.91057 0.0
C796 C 0.88457 0.45115 0.97842 0.0
C797 C 0.86986 0.45912 0.93999 0.0
C798 C 0.87719 0.46464 0.88463 0.0
C799 C 0.89897 0.46351 0.87006 0.0
H800 H 0.10058 0.15184 0.03877 0.0
H801 H 0.07152 0.17472 0.88522 0.0
H802 H 0.09111 0.11694 0.99483 0.0
H803 H 0.06291 0.13983 0.84012 0.0
H804 H 0.02509 0.07943 0.82199 0.0
H805 H 0.03752 0.11371 0.86136 0.0
H806 H 0.09799 0.0897 0.91201 0.0
H807 H 0.08536 0.0551 0.8735 0.0
C808 C 0.09235 0.14942 0.99538 0.0
C809 C 0.08666 0.16612 0.9658 0.0
C810 C 0.08713 0.12939 0.96987 0.0
C811 C 0.07608 0.12559 0.91419 0.0
C812 C 0.07111 0.14224 0.88356 0.0
C813 C 0.07631 0.16225 0.90906 0.0
C814 C 0.04104 0.08136 0.84156 0.0
C815 C 0.05419 0.06444 0.84477 0.0
C816 C 0.04825 0.10111 0.86368 0.0
C817 C 0.06881 0.1045 0.88955 0.0
C818 C 0.082 0.0876 0.89281 0.0
C819 C 0.07478 0.06778 0.87055 0.0
H820 H 0.35761 0.03731 0.91165 0.0
H821 H 0.38126 1.00693 0.05832 0.0
H822 H 0.39306 0.03559 0.86582 0.0
H823 H 0.41682 1.00547 0.01269 0.0
H824 H 0.48285 0.02429 0.94292 0.0
H825 H 0.44752 0.02683 0.99036 0.0
H826 H 0.41757 0.01086 0.81467 0.0
H827 H 0.4527 1.00873 0.76732 0.0
C828 C 0.37028 0.0301 0.93402 0.0
C829 C 0.36636 0.02219 0.98881 0.0
C830 C 0.39069 0.02916 0.90767 0.0
C831 C 0.40789 0.02036 0.93536 0.0
C832 C 0.40408 0.01262 0.99041 0.0
C833 C 0.38362 0.01348 0.01667 0.0
C834 C 0.46874 0.02141 0.91433 0.0
C835 C 0.47076 0.01627 0.85111 0.0
C836 C 0.44844 0.02272 0.94165 0.0
C837 C 0.4296 0.01905 0.90649 0.0
C838 C 0.43165 0.01405 0.84326 0.0
C839 C 0.4519 0.01266 0.81604 0.0
H840 H 0.51182 0.30466 0.0702 0.0
H841 H 0.4498 0.32298 0.142 0.0
H842 H 0.51496 0.33635 0.02509 0.0
H843 H 0.45295 0.3546 0.09711 0.0
H844 H 0.47751 0.41889 0.07606 0.0
H845 H 0.474 0.38617 0.1146 0.0
H846 H 0.50048 0.35566 0.94805 0.0
H847 H 0.50393 0.38848 0.90924 0.0
C848 C 0.49868 0.31526 0.07548 0.0
C849 C 0.48063 0.31131 0.11018 0.0
C850 C 0.50051 0.33348 0.04972 0.0
C851 C 0.48433 0.34819 0.05807 0.0
C852 C 0.46595 0.34386 0.09092 0.0
C853 C 0.46412 0.32568 0.11656 0.0
C854 C 0.48244 0.40521 0.04736 0.0
C855 C 0.49093 0.40638 0.98938 0.0
C856 C 0.4804 0.3864 0.06948 0.0
C857 C 0.4868 0.36821 0.03429 0.0
C858 C 0.49557 0.36938 0.97662 0.0
C859 C 0.49759 0.38822 0.95442 0.0
H860 H 0.18561 0.47307 0.03276 0.0
H861 H 0.20875 0.51737 0.92094 0.0
H862 H 0.14994 0.4742 0.98812 0.0
H863 H 0.17307 0.51878 0.87694 0.0
H864 H 0.11266 0.5017 0.76531 0.0
H865 H 0.14806 0.49984 0.81012 0.0
H866 H 0.11909 0.49471 0.9838 0.0
H867 H 0.08357 0.49609 0.93844 0.0
C868 C 0.18304 0.48322 0.99907 0.0
C869 C 0.20013 0.49509 0.9804 0.0
C870 C 0.16253 0.4839 0.97346 0.0
C871 C 0.15848 0.49655 0.92862 0.0
C872 C 0.17557 0.50853 0.91037 0.0
C873 C 0.19609 0.50776 0.93574 0.0
C874 C 0.11378 0.50021 0.8131 0.0
C875 C 0.09516 0.49913 0.8482 0.0
C876 C 0.13418 0.49923 0.83898 0.0
C877 C 0.13661 0.49723 0.90087 0.0
C878 C 0.11795 0.49598 0.93587 0.0
C879 C 0.09752 0.49687 0.90987 0.0
H880 H 0.96911 0.84367 0.65351 0.0
H881 H 1.0046 0.85365 0.49317 0.0
H882 H 0.97524 0.87943 0.69544 0.0
H883 H 1.01053 0.88934 0.53484 0.0
H884 H 1.00235 0.95688 0.6065 0.0
H885 H 0.99225 0.92199 0.56307 0.0
H886 H 1.00588 0.90098 0.7347 0.0
H887 H 1.01562 0.93566 0.77824 0.0
C888 C 0.97823 0.85346 0.62723 0.0
C889 C 0.98637 0.84573 0.56998 0.0
C890 C 0.98171 0.87396 0.6512 0.0
C891 C 0.99338 0.88724 0.61847 0.0
C892 C 1.00119 0.87962 0.56081 0.0
C893 C 0.99777 0.85912 0.53692 0.0
C894 C 1.00302 0.94484 0.63506 0.0
C895 C 1.00987 0.9491 0.6958 0.0
C896 C 0.99735 0.92483 0.61009 0.0
C897 C 0.99827 0.9087 0.64542 0.0
C898 C 1.00471 0.91307 0.70643 0.0
C899 C 1.01046 0.93299 0.73127 0.0
H900 H 0.69313 0.95927 0.56301 0.0
H901 H 0.69114 0.02272 0.53509 0.0
H902 H 0.6578 0.96213 0.61014 0.0
H903 H 0.65558 0.0254 0.58043 0.0
H904 H 0.60359 0.02963 0.72565 0.0
H905 H 0.63866 0.02605 0.67837 0.0
H906 H 0.61987 0.96627 0.58824 0.0
H907 H 0.58468 0.96972 0.63641 0.0
C908 C 0.68519 0.97385 0.56689 0.0
C909 C 0.69513 0.99078 0.54525 0.0
C910 C 0.66478 0.97542 0.59338 0.0
C911 C 0.65374 0.99401 0.59935 0.0
C912 C 0.66364 0.01089 0.57736 0.0
C913 C 0.68399 0.00929 0.55063 0.0
C914 C 0.60683 0.01568 0.69575 0.0
C915 C 0.59113 0.99999 0.68483 0.0
C916 C 0.627 0.01369 0.66825 0.0
C917 C 0.63218 0.99592 0.62902 0.0
C918 C 0.61657 0.98011 0.61853 0.0
C919 C 0.59631 0.98213 0.64597 0.0
H920 H 0.60599 0.70546 0.42534 0.0
H921 H 0.53963 0.71153 0.47856 0.0
H922 H 0.60759 0.67333 0.46812 0.0
H923 H 0.54123 0.67952 0.52153 0.0
H924 H 0.54412 0.61045 0.52453 0.0
H925 H 0.54341 0.64343 0.48689 0.0
H926 H 0.60681 0.65792 0.56099 0.0
H927 H 0.60753 0.62485 0.59854 0.0
C928 C 0.59185 0.70014 0.44709 0.0
C929 C 0.57265 0.71107 0.44817 0.0
C930 C 0.59274 0.68167 0.47157 0.0
C931 C 0.57448 0.67367 0.49784 0.0
C932 C 0.55548 0.68494 0.5005 0.0
C933 C 0.55458 0.70336 0.47599 0.0
C934 C 0.55785 0.62073 0.53331 0.0
C935 C 0.57587 0.61494 0.5647 0.0
C936 C 0.55743 0.63969 0.51176 0.0
C937 C 0.57502 0.65345 0.52106 0.0
C938 C 0.59308 0.64765 0.55228 0.0
C939 C 0.5935 0.62865 0.57381 0.0
H940 H 0.85748 0.52019 0.66708 0.0
H941 H 0.88438 0.52333 0.48962 0.0
H942 H 0.8934 0.51746 0.70818 0.0
H943 H 0.92034 0.52107 0.53133 0.0
H944 H 0.98261 0.53688 0.64318 0.0
H945 H 0.94665 0.54048 0.60209 0.0
H946 H 0.92286 0.49288 0.7012 0.0
H947 H 0.9586 0.48928 0.74227 0.0
C948 C 0.87098 0.52016 0.63658 0.0
C949 C 0.86782 0.5219 0.57474 0.0
C950 C 0.89164 0.51866 0.66032 0.0
C951 C 0.90982 0.51902 0.62311 0.0
C952 C 0.90675 0.52101 0.5615 0.0
C953 C 0.88605 0.52235 0.5376 0.0
C954 C 0.96972 0.52719 0.65628 0.0
C955 C 0.97361 0.51278 0.69609 0.0
C956 C 0.9491 0.52919 0.63243 0.0
C957 C 0.93181 0.51699 0.64833 0.0
C958 C 0.9357 0.50269 0.68844 0.0
C959 C 0.9563 0.50055 0.71175 0.0
loop_
_geom_bond_atom_site_label_1
_geom_bond_atom_site_label_2
_geom_bond_distance
_geom_bond_site_symmetry_2
_ccdc_geom_bond_type
C0 C1 1.264 . S
C0 C5 1.479 . S
C0 C10 1.465 . S
C1 C0 1.264 . S
C1 C3 1.339 . S
C1 H28 0.931 . S
C2 C3 1.395 . S
C2 C4 1.320 . S
C3 C1 1.339 . S
C3 C2 1.395 . S
C3 H29 0.929 . S
C4 C2 1.320 . S
C4 C5 1.405 . S
C4 H30 0.930 . S
C5 C0 1.479 . S
C5 C4 1.405 . S
C5 H31 0.931 . S
U6 O7 2.454 . S
U6 O8 2.458 . S
U6 C9 2.984 . S
U6 C10 2.847 . S
U6 C23 2.882 . S
U6 O24 2.441 . S
U6 O25 2.420 . S
U6 O26 2.455 . S
U6 O27 2.449 . S
O7 U6 2.454 . S
O7 C9 1.353 . S
O8 U6 2.458 . S
O8 C9 1.286 . S
C9 U6 2.984 . S
C9 O7 1.353 . S
C9 O8 1.286 . S
C9 C11 1.363 . S
C10 C0 1.465 . S
C10 U6 2.847 . S
C10 O24 1.249 . S
C10 O25 1.202 . S
C11 C9 1.363 . S
C11 C13 1.408 . S
C11 C16 1.342 . S
C12 C13 1.310 . S
C12 C15 1.461 . S
C12 H32 0.932 . S
C13 C11 1.408 . S
C13 C12 1.310 . S
C13 H33 0.930 . S
C14 C15 1.474 . S
C14 C16 1.285 . S
C14 H34 0.929 . S
C15 C12 1.461 . S
C15 C14 1.474 . S
C16 C11 1.342 . S
C16 C14 1.285 . S
C16 H35 0.930 . S
C17 C20 1.424 . S
C17 C22 1.245 . S
C17 C23 1.428 . S
C18 C21 1.260 . S
C18 C22 1.477 . S
C18 H36 0.932 . S
C19 C20 1.384 . S
C19 C21 1.479 . S
C19 H37 0.929 . S
C20 C17 1.424 . S
C20 C19 1.384 . S
C20 H38 0.928 . S
C21 C18 1.260 . S
C21 C19 1.479 . S
C22 C17 1.245 . S
C22 C18 1.477 . S
C22 H39 0.932 . S
C23 U6 2.882 . S
C23 C17 1.428 . S
C23 O26 1.301 . S
C23 O27 1.282 . S
O24 U6 2.441 . S
O24 C10 1.249 . S
O25 U6 2.420 . S
O25 C10 1.202 . S
O26 U6 2.455 . S
O26 C23 1.301 . S
O27 U6 2.449 . S
O27 C23 1.282 . S
H28 C1 0.931 . S
H29 C3 0.929 . S
H30 C4 0.930 . S
H31 C5 0.931 . S
H32 C12 0.932 . S
H33 C13 0.930 . S
H34 C14 0.929 . S
H35 C16 0.930 . S
H36 C18 0.932 . S
H37 C19 0.929 . S
H38 C20 0.928 . S
H39 C22 0.932 . S
C40 C41 1.264 . S
C40 C45 1.479 . S
C40 C50 1.465 . S
C41 C40 1.264 . S
C41 C43 1.339 . S
C41 H68 0.931 . S
C42 C43 1.395 . S
C42 C44 1.320 . S
C43 C41 1.339 . S
C43 C42 1.395 . S
C43 H69 0.929 . S
C44 C42 1.320 . S
C44 C45 1.405 . S
C44 H70 0.930 . S
C45 C40 1.479 . S
C45 C44 1.405 . S
C45 H71 0.931 . S
U46 O47 2.454 . S
U46 O48 2.458 . S
U46 C49 2.984 . S
U46 C50 2.847 . S
U46 C63 2.882 . S
U46 O64 2.441 . S
U46 O65 2.420 . S
U46 O66 2.455 . S
U46 O67 2.449 . S
O47 U46 2.454 . S
O47 C49 1.353 . S
O48 U46 2.458 . S
O48 C49 1.286 . S
C49 U46 2.984 . S
C49 O47 1.353 . S
C49 O48 1.286 . S
C49 C51 1.363 . S
C50 C40 1.465 . S
C50 U46 2.847 . S
C50 O64 1.249 . S
C50 O65 1.202 . S
C51 C49 1.363 . S
C51 C53 1.408 . S
C51 C56 1.342 . S
C52 C53 1.310 . S
C52 C55 1.461 . S
C52 H72 0.932 . S
C53 C51 1.408 . S
C53 C52 1.310 . S
C53 H73 0.930 . S
C54 C55 1.474 . S
C54 C56 1.285 . S
C54 H74 0.929 . S
C55 C52 1.461 . S
C55 C54 1.474 . S
C56 C51 1.342 . S
C56 C54 1.285 . S
C56 H75 0.930 . S
C57 C60 1.424 . S
C57 C62 1.245 . S
C57 C63 1.428 . S
C58 C61 1.260 . S
C58 C62 1.477 . S
C58 H76 0.932 . S
C59 C60 1.384 . S
C59 C61 1.479 . S
C59 H77 0.929 . S
C60 C57 1.424 . S
C60 C59 1.384 . S
C60 H78 0.928 . S
C61 C58 1.260 . S
C61 C59 1.479 . S
C62 C57 1.245 . S
C62 C58 1.477 . S
C62 H79 0.932 . S
C63 U46 2.882 . S
C63 C57 1.428 . S
C63 O66 1.301 . S
C63 O67 1.282 . S
O64 U46 2.441 . S
O64 C50 1.249 . S
O65 U46 2.420 . S
O65 C50 1.202 . S
O66 U46 2.455 . S
O66 C63 1.301 . S
O67 U46 2.449 . S
O67 C63 1.282 . S
H68 C41 0.931 . S
H69 C43 0.929 . S
H70 C44 0.930 . S
H71 C45 0.931 . S
H72 C52 0.932 . S
H73 C53 0.930 . S
H74 C54 0.929 . S
H75 C56 0.930 . S
H76 C58 0.932 . S
H77 C59 0.929 . S
H78 C60 0.928 . S
H79 C62 0.932 . S
C80 C81 1.264 . S
C80 C85 1.479 . S
C80 C90 1.465 . S
C81 C80 1.264 . S
C81 C83 1.339 . S
C81 H108 0.931 . S
C82 C83 1.395 . S
C82 C84 1.320 . S
C83 C81 1.339 . S
C83 C82 1.395 . S
C83 H109 0.929 . S
C84 C82 1.320 . S
C84 C85 1.405 . S
C84 H110 0.916 1_545 S
C85 C80 1.479 . S
C85 C84 1.405 . S
C85 H111 0.931 . S
U86 O87 2.454 . S
U86 O88 2.458 . S
U86 C89 2.984 . S
U86 C90 2.847 . S
U86 C103 2.882 . S
U86 O104 2.441 . S
U86 O105 2.420 . S
U86 O106 2.455 . S
U86 O107 2.449 . S
O87 U86 2.454 . S
O87 C89 1.353 . S
O88 U86 2.458 . S
O88 C89 1.286 . S
C89 U86 2.984 . S
C89 O87 1.353 . S
C89 O88 1.286 . S
C89 C91 1.363 . S
C90 C80 1.465 . S
C90 U86 2.847 . S
C90 O104 1.249 . S
C90 O105 1.202 . S
C91 C89 1.363 . S
C91 C93 1.408 . S
C91 C96 1.342 . S
C92 C93 1.310 . S
C92 C95 1.461 . S
C92 H112 0.932 . S
C93 C91 1.408 . S
C93 C92 1.310 . S
C93 H113 0.930 . S
C94 C95 1.475 1_565 S
C94 C96 1.285 1_565 S
C94 H114 0.929 . S
C95 C92 1.461 . S
C95 C94 1.475 1_545 S
C96 C91 1.342 . S
C96 C94 1.285 1_545 S
C96 H115 0.929 . S
C97 C100 1.424 . S
C97 C102 1.245 . S
C97 C103 1.428 . S
C98 C101 1.260 . S
C98 C102 1.477 . S
C98 H116 0.932 . S
C99 C100 1.384 . S
C99 C101 1.479 . S
C99 H117 0.929 . S
C100 C97 1.424 . S
C100 C99 1.384 . S
C100 H118 0.928 . S
C101 C98 1.260 . S
C101 C99 1.479 . S
C102 C97 1.245 . S
C102 C98 1.477 . S
C102 H119 0.932 . S
C103 U86 2.882 . S
C103 C97 1.428 . S
C103 O106 1.301 . S
C103 O107 1.282 . S
O104 U86 2.441 . S
O104 C90 1.249 . S
O105 U86 2.420 . S
O105 C90 1.202 . S
O106 U86 2.455 . S
O106 C103 1.301 . S
O107 U86 2.449 . S
O107 C103 1.282 . S
H108 C81 0.931 . S
H109 C83 0.929 . S
H110 C84 0.916 1_565 S
H111 C85 0.931 . S
H112 C92 0.932 . S
H113 C93 0.930 . S
H114 C94 0.929 . S
H115 C96 0.929 . S
H116 C98 0.932 . S
H117 C99 0.929 . S
H118 C100 0.928 . S
H119 C102 0.932 . S
C120 C121 1.264 . S
C120 C125 1.479 . S
C120 C130 1.465 . S
C121 C120 1.264 . S
C121 C123 1.339 . S
C121 H148 0.931 . S
C122 C123 1.395 . S
C122 C124 1.320 . S
C123 C121 1.339 . S
C123 C122 1.395 . S
C123 H149 0.929 . S
C124 C122 1.320 . S
C124 C125 1.405 . S
C124 H150 0.930 . S
C125 C120 1.479 . S
C125 C124 1.405 . S
C125 H151 0.931 . S
U126 O127 2.454 . S
U126 O128 2.458 1_554 S
U126 C129 2.984 1_554 S
U126 C130 2.847 . S
U126 C143 2.882 1_554 S
U126 O144 2.441 . S
U126 O145 2.420 . S
U126 O146 2.455 1_554 S
U126 O147 2.449 1_554 S
O127 U126 2.454 . S
O127 C129 1.353 1_554 S
O128 U126 2.458 1_556 S
O128 C129 1.286 . S
C129 U126 2.984 1_556 S
C129 O127 1.353 1_556 S
C129 O128 1.286 . S
C129 C131 1.363 . S
C130 C120 1.465 . S
C130 U126 2.847 . S
C130 O144 1.249 . S
C130 O145 1.202 . S
C131 C129 1.363 . S
C131 C133 1.408 1_556 S
C131 C136 1.342 . S
C132 C133 1.310 . S
C132 C135 1.461 1_554 S
C132 H152 0.932 . S
C133 C131 1.408 1_554 S
C133 C132 1.310 . S
C133 H153 0.930 . S
C134 C135 1.474 . S
C134 C136 1.285 . S
C134 H154 0.929 . S
C135 C132 1.461 1_556 S
C135 C134 1.474 . S
C136 C131 1.342 . S
C136 C134 1.285 . S
C136 H155 0.930 . S
C137 C140 1.424 . S
C137 C142 1.245 . S
C137 C143 1.428 . S
C138 C141 1.260 . S
C138 C142 1.477 . S
C138 H156 0.932 . S
C139 C140 1.384 . S
C139 C141 1.479 . S
C139 H157 0.929 . S
C140 C137 1.424 . S
C140 C139 1.384 . S
C140 H158 0.928 . S
C141 C138 1.260 . S
C141 C139 1.479 . S
C142 C137 1.245 . S
C142 C138 1.477 . S
C142 H159 0.932 . S
C143 U126 2.882 1_556 S
C143 C137 1.428 . S
C143 O146 1.301 . S
C143 O147 1.282 . S
O144 U126 2.441 . S
O144 C130 1.249 . S
O145 U126 2.420 . S
O145 C130 1.202 . S
O146 U126 2.455 1_556 S
O146 C143 1.301 . S
O147 U126 2.449 1_556 S
O147 C143 1.282 . S
H148 C121 0.931 . S
H149 C123 0.929 . S
H150 C124 0.930 . S
H151 C125 0.931 . S
H152 C132 0.932 . S
H153 C133 0.930 . S
H154 C134 0.929 . S
H155 C136 0.930 . S
H156 C138 0.932 . S
H157 C139 0.929 . S
H158 C140 0.928 . S
H159 C142 0.932 . S
C160 C161 1.264 . S
C160 C165 1.479 . S
C160 C170 1.465 1_556 S
C161 C160 1.264 . S
C161 C163 1.339 . S
C161 H188 0.931 1_556 S
C162 C163 1.395 . S
C162 C164 1.320 . S
C163 C161 1.339 . S
C163 C162 1.395 . S
C163 H189 0.929 . S
C164 C162 1.320 . S
C164 C165 1.405 . S
C164 H190 0.930 . S
C165 C160 1.479 . S
C165 C164 1.405 . S
C165 H191 0.931 . S
U166 O167 2.454 . S
U166 O168 2.458 . S
U166 C169 2.984 . S
U166 C170 2.847 . S
U166 C183 2.882 . S
U166 O184 2.441 . S
U166 O185 2.420 . S
U166 O186 2.455 . S
U166 O187 2.449 . S
O167 U166 2.454 . S
O167 C169 1.353 . S
O168 U166 2.458 . S
O168 C169 1.286 . S
C169 U166 2.984 . S
C169 O167 1.353 . S
C169 O168 1.286 . S
C169 C171 1.363 . S
C170 C160 1.465 1_554 S
C170 U166 2.847 . S
C170 O184 1.249 . S
C170 O185 1.202 . S
C171 C169 1.363 . S
C171 C173 1.408 . S
C171 C176 1.342 . S
C172 C173 1.310 . S
C172 C175 1.461 . S
C172 H192 0.932 . S
C173 C171 1.408 . S
C173 C172 1.310 . S
C173 H193 0.930 . S
C174 C175 1.474 . S
C174 C176 1.285 . S
C174 H194 0.929 . S
C175 C172 1.461 . S
C175 C174 1.474 . S
C176 C171 1.342 . S
C176 C174 1.285 . S
C176 H195 0.930 . S
C177 C180 1.424 . S
C177 C182 1.245 . S
C177 C183 1.428 . S
C178 C181 1.260 . S
C178 C182 1.477 . S
C178 H196 0.932 . S
C179 C180 1.384 . S
C179 C181 1.479 . S
C179 H197 0.929 . S
C180 C177 1.424 . S
C180 C179 1.384 . S
C180 H198 0.928 . S
C181 C178 1.260 . S
C181 C179 1.479 . S
C182 C177 1.245 . S
C182 C178 1.477 . S
C182 H199 0.932 . S
C183 U166 2.882 . S
C183 C177 1.428 . S
C183 O186 1.301 . S
C183 O187 1.282 . S
O184 U166 2.441 . S
O184 C170 1.249 . S
O185 U166 2.420 . S
O185 C170 1.202 . S
O186 U166 2.455 . S
O186 C183 1.301 . S
O187 U166 2.449 . S
O187 C183 1.282 . S
H188 C161 0.931 1_554 S
H189 C163 0.929 . S
H190 C164 0.930 . S
H191 C165 0.931 . S
H192 C172 0.932 . S
H193 C173 0.930 . S
H194 C174 0.929 . S
H195 C176 0.930 . S
H196 C178 0.932 . S
H197 C179 0.929 . S
H198 C180 0.928 . S
H199 C182 0.932 . S
C200 C201 1.264 . S
C200 C205 1.479 1_554 S
C200 C210 1.465 . S
C201 C200 1.264 . S
C201 C203 1.339 1_554 S
C201 H228 0.931 . S
C202 C203 1.395 . S
C202 C204 1.320 . S
C203 C201 1.339 1_556 S
C203 C202 1.395 . S
C203 H229 0.929 . S
C204 C202 1.320 . S
C204 C205 1.405 . S
C204 H230 0.930 . S
C205 C200 1.479 1_556 S
C205 C204 1.405 . S
C205 H231 0.931 . S
U206 O207 2.454 . S
U206 O208 2.458 . S
U206 C209 2.984 . S
U206 C210 2.847 . S
U206 C223 2.882 . S
U206 O224 2.441 . S
U206 O225 2.420 . S
U206 O226 2.455 . S
U206 O227 2.449 . S
O207 U206 2.454 . S
O207 C209 1.353 . S
O208 U206 2.458 . S
O208 C209 1.286 . S
C209 U206 2.984 . S
C209 O207 1.353 . S
C209 O208 1.286 . S
C209 C211 1.363 . S
C210 C200 1.465 . S
C210 U206 2.847 . S
C210 O224 1.249 . S
C210 O225 1.202 . S
C211 C209 1.363 . S
C211 C213 1.408 . S
C211 C216 1.342 . S
C212 C213 1.310 . S
C212 C215 1.461 . S
C212 H232 0.932 . S
C213 C211 1.408 . S
C213 C212 1.310 . S
C213 H233 0.930 . S
C214 C215 1.474 . S
C214 C216 1.285 . S
C214 H234 0.929 . S
C215 C212 1.461 . S
C215 C214 1.474 . S
C216 C211 1.342 . S
C216 C214 1.285 . S
C216 H235 0.930 . S
C217 C220 1.424 . S
C217 C222 1.245 . S
C217 C223 1.428 . S
C218 C221 1.260 . S
C218 C222 1.477 . S
C218 H236 0.932 . S
C219 C220 1.384 . S
C219 C221 1.479 . S
C219 H237 0.929 . S
C220 C217 1.424 . S
C220 C219 1.384 . S
C220 H238 0.928 . S
C221 C218 1.260 . S
C221 C219 1.479 . S
C222 C217 1.245 . S
C222 C218 1.477 . S
C222 H239 0.932 . S
C223 U206 2.882 . S
C223 C217 1.428 . S
C223 O226 1.301 . S
C223 O227 1.282 . S
O224 U206 2.441 . S
O224 C210 1.249 . S
O225 U206 2.420 . S
O225 C210 1.202 . S
O226 U206 2.455 . S
O226 C223 1.301 . S
O227 U206 2.449 . S
O227 C223 1.282 . S
H228 C201 0.931 . S
H229 C203 0.929 . S
H230 C204 0.930 . S
H231 C205 0.931 . S
H232 C212 0.932 . S
H233 C213 0.930 . S
H234 C214 0.929 . S
H235 C216 0.930 . S
H236 C218 0.932 . S
H237 C219 0.929 . S
H238 C220 0.928 . S
H239 C222 0.932 . S
C240 C241 1.262 1_554 S
C240 C245 1.470 1_554 S
C240 C250 1.476 . S
C241 C240 1.262 1_556 S
C241 C243 1.339 . S
C241 H268 0.931 1_556 S
C242 C243 1.395 . S
C242 C244 1.320 . S
C243 C241 1.339 . S
C243 C242 1.395 . S
C243 H269 0.929 . S
C244 C242 1.320 . S
C244 C245 1.405 . S
C244 H270 0.927 1_545 S
C245 C240 1.470 1_556 S
C245 C244 1.405 . S
C245 H271 0.931 . S
U246 O247 2.454 . S
U246 O248 2.458 . S
U246 C249 2.984 . S
U246 C250 2.847 . S
U246 C263 2.882 . S
U246 O264 2.441 . S
U246 O265 2.420 . S
U246 O266 2.455 . S
U246 O267 2.449 . S
O247 U246 2.454 . S
O247 C249 1.353 . S
O248 U246 2.458 . S
O248 C249 1.286 . S
C249 U246 2.984 . S
C249 O247 1.353 . S
C249 O248 1.286 . S
C249 C251 1.363 . S
C250 C240 1.476 . S
C250 U246 2.847 . S
C250 O264 1.249 . S
C250 O265 1.202 . S
C251 C249 1.363 . S
C251 C253 1.408 . S
C251 C256 1.342 . S
C252 C253 1.310 . S
C252 C255 1.464 . S
C252 H272 0.932 . S
C253 C251 1.408 . S
C253 C252 1.310 . S
C253 H273 0.930 . S
C254 C255 1.473 1_565 S
C254 C256 1.286 1_565 S
C254 H274 0.929 . S
C255 C252 1.464 . S
C255 C254 1.473 1_545 S
C256 C251 1.342 . S
C256 C254 1.286 1_545 S
C256 H275 0.938 . S
C257 C260 1.424 . S
C257 C262 1.245 . S
C257 C263 1.428 . S
C258 C261 1.260 . S
C258 C262 1.477 . S
C258 H276 0.932 . S
C259 C260 1.384 . S
C259 C261 1.479 . S
C259 H277 0.929 . S
C260 C257 1.424 . S
C260 C259 1.384 . S
C260 H278 0.928 . S
C261 C258 1.260 . S
C261 C259 1.479 . S
C262 C257 1.245 . S
C262 C258 1.477 . S
C262 H279 0.932 . S
C263 U246 2.882 . S
C263 C257 1.428 . S
C263 O266 1.301 . S
C263 O267 1.282 . S
O264 U246 2.441 . S
O264 C250 1.249 . S
O265 U246 2.420 . S
O265 C250 1.202 . S
O266 U246 2.455 . S
O266 C263 1.301 . S
O267 U246 2.449 . S
O267 C263 1.282 . S
H268 C241 0.931 1_554 S
H269 C243 0.929 . S
H270 C244 0.927 1_565 S
H271 C245 0.931 . S
H272 C252 0.932 . S
H273 C253 0.930 . S
H274 C254 0.929 . S
H275 C256 0.938 . S
H276 C258 0.932 . S
H277 C259 0.929 . S
H278 C260 0.928 . S
H279 C262 0.932 . S
C280 C281 1.264 . S
C280 C285 1.479 . S
C280 C290 1.465 . S
C281 C280 1.264 . S
C281 C283 1.339 . S
C281 H308 0.931 . S
C282 C283 1.395 . S
C282 C284 1.320 . S
C283 C281 1.339 . S
C283 C282 1.395 . S
C283 H309 0.929 . S
C284 C282 1.320 . S
C284 C285 1.405 . S
C284 H310 0.930 . S
C285 C280 1.479 . S
C285 C284 1.405 . S
C285 H311 0.931 . S
U286 O287 2.454 . S
U286 O288 2.458 . S
U286 C289 2.984 . S
U286 C290 2.847 . S
U286 C303 2.882 . S
U286 O304 2.441 . S
U286 O305 2.420 . S
U286 O306 2.455 . S
U286 O307 2.449 . S
O287 U286 2.454 . S
O287 C289 1.353 . S
O288 U286 2.458 . S
O288 C289 1.286 . S
C289 U286 2.984 . S
C289 O287 1.353 . S
C289 O288 1.286 . S
C289 C291 1.363 . S
C290 C280 1.465 . S
C290 U286 2.847 . S
C290 O304 1.249 . S
C290 O305 1.202 . S
C291 C289 1.363 . S
C291 C293 1.408 . S
C291 C296 1.342 . S
C292 C293 1.310 . S
C292 C295 1.461 . S
C292 H312 0.932 . S
C293 C291 1.408 . S
C293 C292 1.310 . S
C293 H313 0.930 . S
C294 C295 1.474 . S
C294 C296 1.285 . S
C294 H314 0.929 . S
C295 C292 1.461 . S
C295 C294 1.474 . S
C296 C291 1.342 . S
C296 C294 1.285 . S
C296 H315 0.930 . S
C297 C300 1.424 . S
C297 C302 1.245 . S
C297 C303 1.428 . S
C298 C301 1.260 . S
C298 C302 1.477 . S
C298 H316 0.932 . S
C299 C300 1.384 . S
C299 C301 1.479 . S
C299 H317 0.929 . S
C300 C297 1.424 . S
C300 C299 1.384 . S
C300 H318 0.928 . S
C301 C298 1.260 . S
C301 C299 1.479 . S
C302 C297 1.245 . S
C302 C298 1.477 . S
C302 H319 0.932 . S
C303 U286 2.882 . S
C303 C297 1.428 . S
C303 O306 1.301 . S
C303 O307 1.282 . S
O304 U286 2.441 . S
O304 C290 1.249 . S
O305 U286 2.420 . S
O305 C290 1.202 . S
O306 U286 2.455 . S
O306 C303 1.301 . S
O307 U286 2.449 . S
O307 C303 1.282 . S
H308 C281 0.931 . S
H309 C283 0.929 . S
H310 C284 0.930 . S
H311 C285 0.931 . S
H312 C292 0.932 . S
H313 C293 0.930 . S
H314 C294 0.929 . S
H315 C296 0.930 . S
H316 C298 0.932 . S
H317 C299 0.929 . S
H318 C300 0.928 . S
H319 C302 0.932 . S
Tb320 C329 2.764 . S
Tb320 O330 2.325 1_655 S
Tb320 O333 2.303 1_655 S
Tb320 O337 2.322 1_545 S
Tb320 O338 2.349 . S
Tb320 O341 2.415 1_655 S
Tb320 O342 2.399 . S
Tb321 O331 2.322 1_565 S
Tb321 O332 2.349 . S
Tb321 O334 2.415 . S
Tb321 O335 2.399 . S
Tb321 O336 2.325 . S
Tb321 O339 2.303 1_455 S
Tb321 C350 2.764 . S
C322 O338 1.261 . S
C322 O339 1.257 1_545 S
C323 C326 1.358 . S
C323 C327 1.332 1_655 S
C323 C329 1.504 . S
C324 C325 1.373 . S
C324 C328 1.308 1_655 S
C325 C324 1.373 . S
C325 C326 1.429 . S
C325 H352 0.932 . S
C326 C323 1.358 . S
C326 C325 1.429 . S
C326 H353 0.930 . S
C327 C323 1.332 1_455 S
C327 C328 1.394 . S
C327 H354 0.932 . S
C328 C324 1.308 1_455 S
C328 C327 1.394 . S
C328 H355 0.929 . S
C329 Tb320 2.764 . S
C329 C323 1.504 . S
C329 O341 1.239 1_655 S
C329 O342 1.263 . S
O330 Tb320 2.325 1_455 S
O330 C340 1.236 . S
O331 Tb321 2.322 1_545 S
O331 C340 1.257 . S
O332 Tb321 2.349 . S
O332 C343 1.261 . S
O333 Tb320 2.303 1_455 S
O333 C343 1.257 1_545 S
O334 Tb321 2.415 . S
O334 C350 1.239 . S
O335 Tb321 2.399 . S
O335 C350 1.263 . S
O336 Tb321 2.325 . S
O336 C351 1.236 1_455 S
O337 Tb320 2.322 1_565 S
O337 C351 1.257 . S
O338 Tb320 2.349 . S
O338 C322 1.261 . S
O339 Tb321 2.303 1_655 S
O339 C322 1.257 1_565 S
C340 O330 1.236 . S
C340 O331 1.257 . S
O341 Tb320 2.415 1_455 S
O341 C329 1.239 1_455 S
O342 Tb320 2.399 . S
O342 C329 1.263 . S
C343 O332 1.261 . S
C343 O333 1.257 1_565 S
C344 C347 1.358 . S
C344 C348 1.332 . S
C344 C350 1.504 . S
C345 C346 1.373 . S
C345 C349 1.308 . S
C346 C345 1.373 . S
C346 C347 1.429 . S
C346 H356 0.932 . S
C347 C344 1.358 . S
C347 C346 1.429 . S
C347 H357 0.930 . S
C348 C344 1.332 . S
C348 C349 1.394 . S
C348 H358 0.932 1_455 S
C349 C345 1.308 . S
C349 C348 1.394 . S
C349 H359 0.929 1_455 S
C350 Tb321 2.764 . S
C350 O334 1.239 . S
C350 O335 1.263 . S
C350 C344 1.504 . S
C351 O336 1.236 1_655 S
C351 O337 1.257 . S
H352 C325 0.932 . S
H353 C326 0.930 . S
H354 C327 0.932 . S
H355 C328 0.929 . S
H356 C346 0.932 . S
H357 C347 0.930 . S
H358 C348 0.932 1_655 S
H359 C349 0.929 1_655 S
Tb360 C369 2.764 . S
Tb360 O370 2.325 . S
Tb360 O373 2.303 1_565 S
Tb360 O377 2.322 . S
Tb360 O378 2.349 . S
Tb360 O381 2.415 1_565 S
Tb360 O382 2.399 . S
Tb361 O371 2.322 . S
Tb361 O372 2.349 . S
Tb361 O374 2.415 1_545 S
Tb361 O375 2.399 . S
Tb361 O376 2.325 . S
Tb361 O379 2.303 1_545 S
Tb361 C390 2.764 . S
C362 O378 1.261 . S
C362 O379 1.257 . S
C363 C366 1.358 . S
C363 C367 1.335 . S
C363 C369 1.504 . S
C364 C365 1.373 . S
C364 C368 1.308 . S
C365 C364 1.373 . S
C365 C366 1.429 . S
C365 H392 0.932 . S
C366 C363 1.358 . S
C366 C365 1.429 . S
C366 H393 0.930 . S
C367 C363 1.335 . S
C367 C368 1.394 . S
C367 H394 0.929 1_565 S
C368 C364 1.308 . S
C368 C367 1.394 . S
C368 H395 0.929 1_565 S
C369 Tb360 2.764 . S
C369 C363 1.504 . S
C369 O381 1.239 1_565 S
C369 O382 1.263 . S
O370 Tb360 2.325 . S
O370 C380 1.236 1_565 S
O371 Tb361 2.322 . S
O371 C380 1.257 . S
O372 Tb361 2.349 . S
O372 C383 1.261 . S
O373 Tb360 2.303 1_545 S
O373 C383 1.257 . S
O374 Tb361 2.415 1_565 S
O374 C390 1.239 1_565 S
O375 Tb361 2.399 . S
O375 C390 1.263 . S
O376 Tb361 2.325 . S
O376 C391 1.236 1_545 S
O377 Tb360 2.322 . S
O377 C391 1.257 . S
O378 Tb360 2.349 . S
O378 C362 1.261 . S
O379 Tb361 2.303 1_565 S
O379 C362 1.257 . S
C380 O370 1.236 1_545 S
C380 O371 1.257 . S
O381 Tb360 2.415 1_545 S
O381 C369 1.239 1_545 S
O382 Tb360 2.399 . S
O382 C369 1.263 . S
C383 O372 1.261 . S
C383 O373 1.257 . S
C384 C387 1.358 . S
C384 C388 1.345 . S
C384 C390 1.504 . S
C385 C386 1.373 . S
C385 C389 1.308 . S
C386 C385 1.373 . S
C386 C387 1.429 . S
C386 H396 0.932 1_556 S
C387 C384 1.358 . S
C387 C386 1.429 . S
C387 H397 0.930 . S
C388 C384 1.345 . S
C388 C389 1.394 . S
C388 H398 0.918 1_545 S
C389 C385 1.308 . S
C389 C388 1.394 . S
C389 H399 0.929 1_545 S
C390 Tb361 2.764 . S
C390 O374 1.239 1_545 S
C390 O375 1.263 . S
C390 C384 1.504 . S
C391 O376 1.236 1_565 S
C391 O377 1.257 . S
H392 C365 0.932 . S
H393 C366 0.930 . S
H394 C367 0.929 1_545 S
H395 C368 0.929 1_545 S
H396 C386 0.932 1_554 S
H397 C387 0.930 . S
H398 C388 0.918 1_565 S
H399 C389 0.929 1_565 S
Tb400 C409 2.764 . S
Tb400 O410 2.325 . S
Tb400 O413 2.303 . S
Tb400 O417 2.322 . S
Tb400 O418 2.349 . S
Tb400 O421 2.415 . S
Tb400 O422 2.399 . S
Tb401 O411 2.322 . S
Tb401 O412 2.349 . S
Tb401 O414 2.415 . S
Tb401 O415 2.399 . S
Tb401 O416 2.325 . S
Tb401 O419 2.303 . S
Tb401 C430 2.764 . S
C402 O418 1.261 . S
C402 O419 1.257 . S
C403 C406 1.358 . S
C403 C407 1.332 . S
C403 C409 1.504 . S
C404 C405 1.373 1_554 S
C404 C408 1.308 1_554 S
C405 C404 1.373 1_556 S
C405 C406 1.429 . S
C405 H432 0.932 1_556 S
C406 C403 1.358 . S
C406 C405 1.429 . S
C406 H433 0.930 . S
C407 C403 1.332 . S
C407 C408 1.394 . S
C407 H434 0.932 . S
C408 C404 1.308 1_556 S
C408 C407 1.394 . S
C408 H435 0.929 1_556 S
C409 Tb400 2.764 . S
C409 C403 1.504 . S
C409 O421 1.239 . S
C409 O422 1.263 . S
O410 Tb400 2.325 . S
O410 C420 1.236 . S
O411 Tb401 2.322 . S
O411 C420 1.257 . S
O412 Tb401 2.349 . S
O412 C423 1.261 . S
O413 Tb400 2.303 . S
O413 C423 1.257 . S
O414 Tb401 2.415 . S
O414 C430 1.239 . S
O415 Tb401 2.399 . S
O415 C430 1.263 . S
O416 Tb401 2.325 . S
O416 C431 1.236 . S
O417 Tb400 2.322 . S
O417 C431 1.257 . S
O418 Tb400 2.349 . S
O418 C402 1.261 . S
O419 Tb401 2.303 . S
O419 C402 1.257 . S
C420 O410 1.236 . S
C420 O411 1.257 . S
O421 Tb400 2.415 . S
O421 C409 1.239 . S
O422 Tb400 2.399 . S
O422 C409 1.263 . S
C423 O412 1.261 . S
C423 O413 1.257 . S
C424 C427 1.358 . S
C424 C428 1.332 . S
C424 C430 1.504 . S
C425 C426 1.373 . S
C425 C429 1.308 . S
C426 C425 1.373 . S
C426 C427 1.429 . S
C426 H436 0.932 . S
C427 C424 1.358 . S
C427 C426 1.429 . S
C427 H437 0.930 . S
C428 C424 1.332 . S
C428 C429 1.394 . S
C428 H438 0.932 . S
C429 C425 1.308 . S
C429 C428 1.394 . S
C429 H439 0.929 . S
C430 Tb401 2.764 . S
C430 O414 1.239 . S
C430 O415 1.263 . S
C430 C424 1.504 . S
C431 O416 1.236 . S
C431 O417 1.257 . S
H432 C405 0.932 1_554 S
H433 C406 0.930 . S
H434 C407 0.932 . S
H435 C408 0.929 1_554 S
H436 C426 0.932 . S
H437 C427 0.930 . S
H438 C428 0.932 . S
H439 C429 0.929 . S
Tb440 C449 2.764 . S
Tb440 O450 2.325 . S
Tb440 O453 2.303 . S
Tb440 O457 2.322 1_455 S
Tb440 O458 2.349 . S
Tb440 O461 2.415 . S
Tb440 O462 2.399 . S
Tb441 O451 2.322 1_655 S
Tb441 O452 2.349 1_655 S
Tb441 O454 2.415 . S
Tb441 O455 2.399 . S
Tb441 O456 2.325 . S
Tb441 O459 2.303 1_655 S
Tb441 C470 2.764 . S
C442 O458 1.261 . S
C442 O459 1.257 . S
C443 C446 1.358 . S
C443 C447 1.332 . S
C443 C449 1.504 . S
C444 C445 1.373 . S
C444 C448 1.308 . S
C445 C444 1.373 . S
C445 C446 1.429 . S
C445 H472 0.932 . S
C446 C443 1.358 . S
C446 C445 1.429 . S
C446 H473 0.930 . S
C447 C443 1.332 . S
C447 C448 1.394 . S
C447 H474 0.932 . S
C448 C444 1.308 . S
C448 C447 1.394 . S
C448 H475 0.929 . S
C449 Tb440 2.764 . S
C449 C443 1.504 . S
C449 O461 1.239 . S
C449 O462 1.263 . S
O450 Tb440 2.325 . S
O450 C460 1.236 . S
O451 Tb441 2.322 1_455 S
O451 C460 1.257 . S
O452 Tb441 2.349 1_455 S
O452 C463 1.261 . S
O453 Tb440 2.303 . S
O453 C463 1.257 . S
O454 Tb441 2.415 . S
O454 C470 1.239 . S
O455 Tb441 2.399 . S
O455 C470 1.263 . S
O456 Tb441 2.325 . S
O456 C471 1.236 . S
O457 Tb440 2.322 1_655 S
O457 C471 1.257 . S
O458 Tb440 2.349 . S
O458 C442 1.261 . S
O459 Tb441 2.303 1_455 S
O459 C442 1.257 . S
C460 O450 1.236 . S
C460 O451 1.257 . S
O461 Tb440 2.415 . S
O461 C449 1.239 . S
O462 Tb440 2.399 . S
O462 C449 1.263 . S
C463 O452 1.261 . S
C463 O453 1.257 . S
C464 C467 1.358 . S
C464 C468 1.332 . S
C464 C470 1.504 . S
C465 C466 1.373 . S
C465 C469 1.308 . S
C466 C465 1.373 . S
C466 C467 1.429 . S
C466 H476 0.932 . S
C467 C464 1.358 . S
C467 C466 1.429 . S
C467 H477 0.930 . S
C468 C464 1.332 . S
C468 C469 1.394 . S
C468 H478 0.932 . S
C469 C465 1.308 . S
C469 C468 1.394 . S
C469 H479 0.929 . S
C470 Tb441 2.764 . S
C470 O454 1.239 . S
C470 O455 1.263 . S
C470 C464 1.504 . S
C471 O456 1.236 . S
C471 O457 1.257 . S
H472 C445 0.932 . S
H473 C446 0.930 . S
H474 C447 0.932 . S
H475 C448 0.929 . S
H476 C466 0.932 . S
H477 C467 0.930 . S
H478 C468 0.932 . S
H479 C469 0.929 . S
H480 C488 0.950 . S
H481 C493 0.950 . S
H482 C490 0.950 . S
H483 C492 0.950 . S
H484 C494 0.950 . S
H485 C496 0.950 . S
H486 C498 0.950 . S
H487 C499 0.950 . S
C488 H480 0.950 . S
C488 C489 1.393 . S
C488 C490 1.391 . S
C489 C488 1.393 . S
C489 C493 1.382 1_545 S
C490 H482 0.950 . S
C490 C488 1.391 . S
C490 C491 1.401 . S
C491 C490 1.401 . S
C491 C492 1.398 1_545 S
C491 C497 1.484 1_545 S
C492 H483 0.950 . S
C492 C491 1.398 1_565 S
C492 C493 1.391 . S
C493 H481 0.950 . S
C493 C489 1.382 1_565 S
C493 C492 1.391 . S
C494 H484 0.950 . S
C494 C495 1.386 . S
C494 C496 1.391 . S
C495 C494 1.386 . S
C495 C499 1.393 1_565 S
C496 H485 0.950 . S
C496 C494 1.391 . S
C496 C497 1.413 . S
C497 C491 1.484 1_565 S
C497 C496 1.413 . S
C497 C498 1.394 1_565 S
C498 H486 0.950 . S
C498 C497 1.394 1_545 S
C498 C499 1.391 . S
C499 H487 0.950 . S
C499 C495 1.393 1_545 S
C499 C498 1.391 . S
H500 C508 0.950 . S
H501 C513 0.950 . S
H502 C510 0.950 . S
H503 C512 0.950 . S
H504 C514 0.950 . S
H505 C516 0.950 . S
H506 C518 0.950 . S
H507 C519 0.950 . S
C508 H500 0.950 . S
C508 C509 1.386 . S
C508 C510 1.391 . S
C509 C508 1.386 . S
C509 C513 1.393 . S
C510 H502 0.950 . S
C510 C508 1.391 . S
C510 C511 1.400 . S
C511 C510 1.400 . S
C511 C512 1.398 . S
C511 C517 1.491 . S
C512 H503 0.950 . S
C512 C511 1.398 . S
C512 C513 1.391 . S
C513 H501 0.950 . S
C513 C509 1.393 . S
C513 C512 1.391 . S
C514 H504 0.950 . S
C514 C515 1.386 . S
C514 C516 1.391 . S
C515 C514 1.386 . S
C515 C519 1.393 . S
C516 H505 0.950 . S
C516 C514 1.391 . S
C516 C517 1.400 . S
C517 C511 1.491 . S
C517 C516 1.400 . S
C517 C518 1.398 . S
C518 H506 0.950 . S
C518 C517 1.398 . S
C518 C519 1.391 . S
C519 H507 0.950 . S
C519 C515 1.393 . S
C519 C518 1.391 . S
H520 C528 0.950 . S
H521 C533 0.950 . S
H522 C530 0.950 . S
H523 C532 0.950 . S
H524 C534 0.950 . S
H525 C536 0.950 . S
H526 C538 0.950 . S
H527 C539 0.950 . S
C528 H520 0.950 . S
C528 C529 1.386 . S
C528 C530 1.391 . S
C529 C528 1.386 . S
C529 C533 1.393 . S
C530 H522 0.950 . S
C530 C528 1.391 . S
C530 C531 1.400 . S
C531 C530 1.400 . S
C531 C532 1.398 . S
C531 C537 1.491 . S
C532 H523 0.950 . S
C532 C531 1.398 . S
C532 C533 1.391 . S
C533 H521 0.950 . S
C533 C529 1.393 . S
C533 C532 1.391 . S
C534 H524 0.950 . S
C534 C535 1.386 . S
C534 C536 1.391 . S
C535 C534 1.386 . S
C535 C539 1.393 . S
C536 H525 0.950 . S
C536 C534 1.391 . S
C536 C537 1.400 . S
C537 C531 1.491 . S
C537 C536 1.400 . S
C537 C538 1.398 . S
C538 H526 0.950 . S
C538 C537 1.398 . S
C538 C539 1.391 . S
C539 H527 0.950 . S
C539 C535 1.393 . S
C539 C538 1.391 . S
H540 C548 0.950 . S
H541 C553 0.950 . S
H542 C550 0.950 . S
H543 C552 0.950 . S
H544 C554 0.950 . S
H545 C556 0.950 . S
H546 C558 0.950 . S
H547 C559 0.950 . S
C548 H540 0.950 . S
C548 C549 1.386 . S
C548 C550 1.391 . S
C549 C548 1.386 . S
C549 C553 1.393 . S
C550 H542 0.950 . S
C550 C548 1.391 . S
C550 C551 1.400 . S
C551 C550 1.400 . S
C551 C552 1.398 . S
C551 C557 1.491 . S
C552 H543 0.950 . S
C552 C551 1.398 . S
C552 C553 1.391 . S
C553 H541 0.950 . S
C553 C549 1.393 . S
C553 C552 1.391 . S
C554 H544 0.950 . S
C554 C555 1.386 . S
C554 C556 1.391 . S
C555 C554 1.386 . S
C555 C559 1.393 . S
C556 H545 0.950 . S
C556 C554 1.391 . S
C556 C557 1.400 . S
C557 C551 1.491 . S
C557 C556 1.400 . S
C557 C558 1.398 . S
C558 H546 0.950 . S
C558 C557 1.398 . S
C558 C559 1.391 . S
C559 H547 0.950 . S
C559 C555 1.393 . S
C559 C558 1.391 . S
H560 C568 0.950 . S
H561 C573 0.950 . S
H562 C570 0.950 . S
H563 C572 0.950 . S
H564 C574 0.950 . S
H565 C576 0.950 . S
H566 C578 0.950 . S
H567 C579 0.950 . S
C568 H560 0.950 . S
C568 C569 1.404 . S
C568 C570 1.391 . S
C569 C568 1.404 . S
C569 C573 1.384 1_545 S
C570 H562 0.950 . S
C570 C568 1.391 . S
C570 C571 1.410 . S
C571 C570 1.410 . S
C571 C572 1.386 1_545 S
C571 C577 1.495 . S
C572 H563 0.950 . S
C572 C571 1.386 1_565 S
C572 C573 1.391 . S
C573 H561 0.950 . S
C573 C569 1.384 1_565 S
C573 C572 1.391 . S
C574 H564 0.950 . S
C574 C575 1.387 1_565 S
C574 C576 1.391 1_556 S
C575 C574 1.387 1_545 S
C575 C579 1.392 . S
C576 H565 0.950 . S
C576 C574 1.391 1_554 S
C576 C577 1.399 1_565 S
C577 C571 1.495 . S
C577 C576 1.399 1_545 S
C577 C578 1.399 1_554 S
C578 H566 0.950 . S
C578 C577 1.399 1_556 S
C578 C579 1.391 . S
C579 H567 0.950 . S
C579 C575 1.392 . S
C579 C578 1.391 . S
H580 C588 0.950 . S
H581 C593 0.950 . S
H582 C590 0.950 . S
H583 C592 0.950 . S
H584 C594 0.950 . S
H585 C596 0.950 . S
H586 C598 0.950 . S
H587 C599 0.950 . S
C588 H580 0.950 . S
C588 C589 1.386 . S
C588 C590 1.391 . S
C589 C588 1.386 . S
C589 C593 1.393 . S
C590 H582 0.950 . S
C590 C588 1.391 . S
C590 C591 1.400 . S
C591 C590 1.400 . S
C591 C592 1.398 . S
C591 C597 1.491 . S
C592 H583 0.950 . S
C592 C591 1.398 . S
C592 C593 1.391 . S
C593 H581 0.950 . S
C593 C589 1.393 . S
C593 C592 1.391 . S
C594 H584 0.950 . S
C594 C595 1.386 . S
C594 C596 1.391 . S
C595 C594 1.386 . S
C595 C599 1.393 . S
C596 H585 0.950 . S
C596 C594 1.391 . S
C596 C597 1.400 . S
C597 C591 1.491 . S
C597 C596 1.400 . S
C597 C598 1.398 . S
C598 H586 0.950 . S
C598 C597 1.398 . S
C598 C599 1.391 . S
C599 H587 0.950 . S
C599 C595 1.393 . S
C599 C598 1.391 . S
H600 C608 0.950 . S
H601 C613 0.950 . S
H602 C610 0.950 . S
H603 C612 0.950 . S
H604 C614 0.950 . S
H605 C616 0.950 . S
H606 C618 0.950 . S
H607 C619 0.950 . S
C608 H600 0.950 . S
C608 C609 1.386 . S
C608 C610 1.391 . S
C609 C608 1.386 . S
C609 C613 1.393 . S
C610 H602 0.950 . S
C610 C608 1.391 . S
C610 C611 1.400 . S
C611 C610 1.400 . S
C611 C612 1.398 . S
C611 C617 1.491 . S
C612 H603 0.950 . S
C612 C611 1.398 . S
C612 C613 1.391 . S
C613 H601 0.950 . S
C613 C609 1.393 . S
C613 C612 1.391 . S
C614 H604 0.950 . S
C614 C615 1.386 . S
C614 C616 1.391 1_556 S
C615 C614 1.386 . S
C615 C619 1.393 . S
C616 H605 0.950 . S
C616 C614 1.391 1_554 S
C616 C617 1.400 . S
C617 C611 1.491 . S
C617 C616 1.400 . S
C617 C618 1.398 1_554 S
C618 H606 0.950 . S
C618 C617 1.398 1_556 S
C618 C619 1.391 . S
C619 H607 0.950 . S
C619 C615 1.393 . S
C619 C618 1.391 . S
H620 C628 0.950 . S
H621 C633 0.950 1_455 S
H622 C630 0.950 . S
H623 C632 0.950 1_455 S
H624 C634 0.950 . S
H625 C636 0.957 . S
H626 C638 0.950 . S
H627 C639 0.950 . S
C628 H620 0.950 . S
C628 C629 1.386 . S
C628 C630 1.391 . S
C629 C628 1.386 . S
C629 C633 1.393 . S
C630 H622 0.950 . S
C630 C628 1.391 . S
C630 C631 1.400 . S
C631 C630 1.400 . S
C631 C632 1.398 . S
C631 C637 1.491 1_554 S
C632 H623 0.950 1_655 S
C632 C631 1.398 . S
C632 C633 1.391 . S
C633 H621 0.950 1_655 S
C633 C629 1.393 . S
C633 C632 1.391 . S
C634 H624 0.950 . S
C634 C635 1.386 1_455 S
C634 C636 1.391 . S
C635 C634 1.386 1_655 S
C635 C639 1.393 . S
C636 H625 0.957 . S
C636 C634 1.391 . S
C636 C637 1.400 1_455 S
C637 C631 1.491 1_556 S
C637 C636 1.400 1_655 S
C637 C638 1.398 . S
C638 H626 0.950 . S
C638 C637 1.398 . S
C638 C639 1.391 . S
C639 H627 0.950 . S
C639 C635 1.393 . S
C639 C638 1.391 . S
H640 C648 0.950 . S
H641 C653 0.950 . S
H642 C650 0.950 . S
H643 C652 0.950 . S
H644 C654 0.950 . S
H645 C656 0.950 . S
H646 C658 0.950 . S
H647 C659 0.950 . S
C648 H640 0.950 . S
C648 C649 1.386 . S
C648 C650 1.391 . S
C649 C648 1.386 . S
C649 C653 1.393 . S
C650 H642 0.950 . S
C650 C648 1.391 . S
C650 C651 1.400 . S
C651 C650 1.400 . S
C651 C652 1.398 . S
C651 C657 1.491 . S
C652 H643 0.950 . S
C652 C651 1.398 . S
C652 C653 1.391 . S
C653 H641 0.950 . S
C653 C649 1.393 . S
C653 C652 1.391 . S
C654 H644 0.950 . S
C654 C655 1.386 1_455 S
C654 C656 1.391 . S
C655 C654 1.386 1_655 S
C655 C659 1.393 . S
C656 H645 0.950 . S
C656 C654 1.391 . S
C656 C657 1.400 . S
C657 C651 1.491 . S
C657 C656 1.400 . S
C657 C658 1.398 1_455 S
C658 H646 0.950 . S
C658 C657 1.398 1_655 S
C658 C659 1.391 . S
C659 H647 0.950 . S
C659 C655 1.393 . S
C659 C658 1.391 . S
H660 C668 0.950 . S
H661 C673 0.950 . S
H662 C670 0.950 . S
H663 C672 0.950 . S
H664 C674 0.950 . S
H665 C676 0.950 . S
H666 C678 0.950 1_545 S
H667 C679 0.950 . S
C668 H660 0.950 . S
C668 C669 1.386 . S
C668 C670 1.391 . S
C669 C668 1.386 . S
C669 C673 1.393 1_545 S
C670 H662 0.950 . S
C670 C668 1.391 . S
C670 C671 1.400 1_545 S
C671 C670 1.400 1_565 S
C671 C672 1.398 . S
C671 C677 1.491 . S
C672 H663 0.950 . S
C672 C671 1.398 . S
C672 C673 1.391 . S
C673 H661 0.950 . S
C673 C669 1.393 1_565 S
C673 C672 1.391 . S
C674 H664 0.950 . S
C674 C675 1.386 . S
C674 C676 1.391 . S
C675 C674 1.386 . S
C675 C679 1.393 . S
C676 H665 0.950 . S
C676 C674 1.391 . S
C676 C677 1.400 . S
C677 C671 1.491 . S
C677 C676 1.400 . S
C677 C678 1.398 . S
C678 H666 0.950 1_565 S
C678 C677 1.398 . S
C678 C679 1.391 . S
C679 H667 0.950 . S
C679 C675 1.393 . S
C679 C678 1.391 . S
H680 C688 0.950 . S
H681 C693 0.950 . S
H682 C690 0.950 . S
H683 C692 0.950 . S
H684 C694 0.950 . S
H685 C696 0.950 . S
H686 C698 0.950 . S
H687 C699 0.950 . S
C688 H680 0.950 . S
C688 C689 1.386 . S
C688 C690 1.391 . S
C689 C688 1.386 . S
C689 C693 1.393 . S
C690 H682 0.950 . S
C690 C688 1.391 . S
C690 C691 1.400 . S
C691 C690 1.400 . S
C691 C692 1.398 . S
C691 C697 1.491 . S
C692 H683 0.950 . S
C692 C691 1.398 . S
C692 C693 1.391 . S
C693 H681 0.950 . S
C693 C689 1.393 . S
C693 C692 1.391 . S
C694 H684 0.950 . S
C694 C695 1.386 . S
C694 C696 1.391 . S
C695 C694 1.386 . S
C695 C699 1.393 . S
C696 H685 0.950 . S
C696 C694 1.391 . S
C696 C697 1.400 . S
C697 C691 1.491 . S
C697 C696 1.400 . S
C697 C698 1.398 . S
C698 H686 0.950 . S
C698 C697 1.398 . S
C698 C699 1.391 . S
C699 H687 0.950 . S
C699 C695 1.393 . S
C699 C698 1.391 . S
H700 C708 0.950 . S
H701 C713 0.950 . S
H702 C710 0.950 . S
H703 C712 0.950 . S
H704 C714 0.950 . S
H705 C716 0.950 . S
H706 C718 0.950 . S
H707 C719 0.950 . S
C708 H700 0.950 . S
C708 C709 1.386 . S
C708 C710 1.391 . S
C709 C708 1.386 . S
C709 C713 1.393 . S
C710 H702 0.950 . S
C710 C708 1.391 . S
C710 C711 1.400 . S
C711 C710 1.400 . S
C711 C712 1.398 . S
C711 C717 1.491 . S
C712 H703 0.950 . S
C712 C711 1.398 . S
C712 C713 1.391 . S
C713 H701 0.950 . S
C713 C709 1.393 . S
C713 C712 1.391 . S
C714 H704 0.950 . S
C714 C715 1.386 . S
C714 C716 1.391 . S
C715 C714 1.386 . S
C715 C719 1.393 . S
C716 H705 0.950 . S
C716 C714 1.391 . S
C716 C717 1.400 . S
C717 C711 1.491 . S
C717 C716 1.400 . S
C717 C718 1.398 . S
C718 H706 0.950 . S
C718 C717 1.398 . S
C718 C719 1.391 . S
C719 H707 0.950 . S
C719 C715 1.393 . S
C719 C718 1.391 . S
H720 C728 0.950 . S
H721 C733 0.950 . S
H722 C730 0.933 1_455 S
H723 C732 0.950 1_556 S
H724 C734 0.968 . S
H725 C736 0.950 . S
H726 C738 0.950 . S
H727 C739 0.949 1_554 S
C728 H720 0.950 . S
C728 C729 1.386 . S
C728 C730 1.401 . S
C729 C728 1.386 . S
C729 C733 1.393 . S
C730 H722 0.933 1_655 S
C730 C728 1.401 . S
C730 C731 1.407 . S
C731 C730 1.407 . S
C731 C732 1.398 . S
C731 C737 1.491 1_655 S
C732 H723 0.950 1_554 S
C732 C731 1.398 . S
C732 C733 1.391 . S
C733 H721 0.950 . S
C733 C729 1.393 . S
C733 C732 1.391 . S
C734 H724 0.968 . S
C734 C735 1.386 . S
C734 C736 1.391 1_455 S
C735 C734 1.386 . S
C735 C739 1.395 . S
C736 H725 0.950 . S
C736 C734 1.391 1_655 S
C736 C737 1.400 1_656 S
C737 C731 1.491 1_455 S
C737 C736 1.400 1_454 S
C737 C738 1.398 . S
C738 H726 0.950 . S
C738 C737 1.398 . S
C738 C739 1.389 1_554 S
C739 H727 0.949 1_556 S
C739 C735 1.395 . S
C739 C738 1.389 1_556 S
H740 C748 0.950 . S
H741 C753 0.950 . S
H742 C750 0.950 . S
H743 C752 0.950 1_566 S
H744 C754 0.950 . S
H745 C756 0.950 . S
H746 C758 0.950 . S
H747 C759 0.950 . S
C748 H740 0.950 . S
C748 C749 1.386 1_545 S
C748 C750 1.391 . S
C749 C748 1.386 1_565 S
C749 C753 1.393 . S
C750 H742 0.950 . S
C750 C748 1.391 . S
C750 C751 1.400 . S
C751 C750 1.400 . S
C751 C752 1.398 . S
C751 C757 1.491 . S
C752 H743 0.950 1_544 S
C752 C751 1.398 . S
C752 C753 1.391 1_545 S
C753 H741 0.950 . S
C753 C749 1.393 . S
C753 C752 1.391 1_565 S
C754 H744 0.950 . S
C754 C755 1.386 . S
C754 C756 1.391 . S
C755 C754 1.386 . S
C755 C759 1.393 1_556 S
C756 H745 0.950 . S
C756 C754 1.391 . S
C756 C757 1.400 1_556 S
C757 C751 1.491 . S
C757 C756 1.400 1_554 S
C757 C758 1.398 . S
C758 H746 0.950 . S
C758 C757 1.398 . S
C758 C759 1.391 . S
C759 H747 0.950 . S
C759 C755 1.393 1_554 S
C759 C758 1.391 . S
H760 C768 0.950 . S
H761 C773 0.950 . S
H762 C770 0.950 . S
H763 C772 0.950 . S
H764 C774 0.950 . S
H765 C776 0.950 . S
H766 C778 0.950 . S
H767 C779 0.950 . S
C768 H760 0.950 . S
C768 C769 1.386 . S
C768 C770 1.391 . S
C769 C768 1.386 . S
C769 C773 1.393 . S
C770 H762 0.950 . S
C770 C768 1.391 . S
C770 C771 1.400 . S
C771 C770 1.400 . S
C771 C772 1.398 . S
C771 C777 1.491 . S
C772 H763 0.950 . S
C772 C771 1.398 . S
C772 C773 1.391 . S
C773 H761 0.950 . S
C773 C769 1.393 . S
C773 C772 1.391 . S
C774 H764 0.950 . S
C774 C775 1.386 . S
C774 C776 1.391 . S
C775 C774 1.386 . S
C775 C779 1.393 . S
C776 H765 0.950 . S
C776 C774 1.391 . S
C776 C777 1.400 . S
C777 C771 1.491 . S
C777 C776 1.400 . S
C777 C778 1.398 . S
C778 H766 0.950 . S
C778 C777 1.398 . S
C778 C779 1.391 . S
C779 H767 0.950 . S
C779 C775 1.393 . S
C779 C778 1.391 . S
H780 C788 0.950 . S
H781 C793 0.950 . S
H782 C790 0.950 . S
H783 C792 0.950 . S
H784 C794 0.950 . S
H785 C796 0.950 . S
H786 C798 0.950 . S
H787 C799 0.950 . S
C788 H780 0.950 . S
C788 C789 1.386 . S
C788 C790 1.391 . S
C789 C788 1.386 . S
C789 C793 1.393 . S
C790 H782 0.950 . S
C790 C788 1.391 . S
C790 C791 1.400 . S
C791 C790 1.400 . S
C791 C792 1.398 . S
C791 C797 1.491 . S
C792 H783 0.950 . S
C792 C791 1.398 . S
C792 C793 1.391 . S
C793 H781 0.950 . S
C793 C789 1.393 . S
C793 C792 1.391 . S
C794 H784 0.950 . S
C794 C795 1.386 1_554 S
C794 C796 1.391 . S
C795 C794 1.386 1_556 S
C795 C799 1.393 . S
C796 H785 0.950 . S
C796 C794 1.391 . S
C796 C797 1.400 . S
C797 C791 1.491 . S
C797 C796 1.400 . S
C797 C798 1.398 1_554 S
C798 H786 0.950 . S
C798 C797 1.398 1_556 S
C798 C799 1.391 . S
C799 H787 0.950 . S
C799 C795 1.393 . S
C799 C798 1.391 . S
H800 C808 0.950 . S
H801 C813 0.950 . S
H802 C810 0.950 . S
H803 C812 0.950 . S
H804 C814 0.950 . S
H805 C816 0.950 . S
H806 C818 0.950 . S
H807 C819 0.950 . S
C808 H800 0.950 . S
C808 C809 1.386 . S
C808 C810 1.391 . S
C809 C808 1.386 . S
C809 C813 1.393 . S
C810 H802 0.950 . S
C810 C808 1.391 . S
C810 C811 1.400 . S
C811 C810 1.400 . S
C811 C812 1.398 . S
C811 C817 1.491 . S
C812 H803 0.950 . S
C812 C811 1.398 . S
C812 C813 1.391 . S
C813 H801 0.950 . S
C813 C809 1.393 . S
C813 C812 1.391 . S
C814 H804 0.950 . S
C814 C815 1.386 . S
C814 C816 1.391 . S
C815 C814 1.386 . S
C815 C819 1.393 . S
C816 H805 0.950 . S
C816 C814 1.391 . S
C816 C817 1.400 . S
C817 C811 1.491 . S
C817 C816 1.400 . S
C817 C818 1.398 . S
C818 H806 0.950 . S
C818 C817 1.398 . S
C818 C819 1.391 . S
C819 H807 0.950 . S
C819 C815 1.393 . S
C819 C818 1.391 . S
H820 C828 0.950 . S
H821 C833 0.950 . S
H822 C830 0.950 . S
H823 C832 0.950 . S
H824 C834 0.950 . S
H825 C836 0.950 . S
H826 C838 0.950 . S
H827 C839 0.950 . S
C828 H820 0.950 . S
C828 C829 1.386 . S
C828 C830 1.391 . S
C829 C828 1.386 . S
C829 C833 1.393 1_545 S
C830 H822 0.950 . S
C830 C828 1.391 . S
C830 C831 1.400 . S
C831 C830 1.400 . S
C831 C832 1.398 1_545 S
C831 C837 1.491 . S
C832 H823 0.950 . S
C832 C831 1.398 1_565 S
C832 C833 1.391 . S
C833 H821 0.950 . S
C833 C829 1.393 1_565 S
C833 C832 1.391 . S
C834 H824 0.950 . S
C834 C835 1.386 1_565 S
C834 C836 1.391 . S
C835 C834 1.386 1_545 S
C835 C839 1.393 . S
C836 H825 0.950 . S
C836 C834 1.391 . S
C836 C837 1.400 1_565 S
C837 C831 1.491 . S
C837 C836 1.400 1_545 S
C837 C838 1.398 . S
C838 H826 0.950 . S
C838 C837 1.398 . S
C838 C839 1.391 . S
C839 H827 0.950 . S
C839 C835 1.393 . S
C839 C838 1.391 . S
H840 C848 0.950 . S
H841 C853 0.950 . S
H842 C850 0.950 . S
H843 C852 0.950 . S
H844 C854 0.950 . S
H845 C856 0.950 . S
H846 C858 0.950 . S
H847 C859 0.950 1_556 S
C848 H840 0.950 . S
C848 C849 1.386 . S
C848 C850 1.391 . S
C849 C848 1.386 . S
C849 C853 1.393 . S
C850 H842 0.950 . S
C850 C848 1.391 . S
C850 C851 1.400 . S
C851 C850 1.400 . S
C851 C852 1.398 . S
C851 C857 1.491 . S
C852 H843 0.950 . S
C852 C851 1.398 . S
C852 C853 1.391 . S
C853 H841 0.950 . S
C853 C849 1.393 . S
C853 C852 1.391 . S
C854 H844 0.950 . S
C854 C855 1.386 . S
C854 C856 1.391 . S
C855 C854 1.386 . S
C855 C859 1.393 . S
C856 H845 0.950 . S
C856 C854 1.391 . S
C856 C857 1.400 . S
C857 C851 1.491 . S
C857 C856 1.400 . S
C857 C858 1.398 . S
C858 H846 0.950 . S
C858 C857 1.398 . S
C858 C859 1.391 . S
C859 H847 0.950 1_554 S
C859 C855 1.393 . S
C859 C858 1.391 . S
H860 C868 0.950 . S
H861 C873 0.950 . S
H862 C870 0.950 . S
H863 C872 0.950 . S
H864 C874 0.950 . S
H865 C876 0.950 . S
H866 C878 0.950 . S
H867 C879 0.950 . S
C868 H860 0.950 . S
C868 C869 1.386 . S
C868 C870 1.391 . S
C869 C868 1.386 . S
C869 C873 1.393 . S
C870 H862 0.950 . S
C870 C868 1.391 . S
C870 C871 1.400 . S
C871 C870 1.400 . S
C871 C872 1.398 . S
C871 C877 1.491 . S
C872 H863 0.950 . S
C872 C871 1.398 . S
C872 C873 1.391 . S
C873 H861 0.950 . S
C873 C869 1.393 . S
C873 C872 1.391 . S
C874 H864 0.950 . S
C874 C875 1.386 . S
C874 C876 1.391 . S
C875 C874 1.386 . S
C875 C879 1.393 . S
C876 H865 0.950 . S
C876 C874 1.391 . S
C876 C877 1.400 . S
C877 C871 1.491 . S
C877 C876 1.400 . S
C877 C878 1.398 . S
C878 H866 0.950 . S
C878 C877 1.398 . S
C878 C879 1.391 . S
C879 H867 0.950 . S
C879 C875 1.393 . S
C879 C878 1.391 . S
H880 C888 0.950 . S
H881 C893 0.950 . S
H882 C890 0.950 . S
H883 C892 0.987 . S
H884 C894 0.950 1_455 S
H885 C896 0.950 1_455 S
H886 C898 0.950 . S
H887 C899 0.950 . S
C888 H880 0.950 . S
C888 C889 1.386 . S
C888 C890 1.391 . S
C889 C888 1.386 . S
C889 C893 1.393 . S
C890 H882 0.950 . S
C890 C888 1.391 . S
C890 C891 1.400 . S
C891 C890 1.400 . S
C891 C892 1.398 . S
C891 C897 1.491 . S
C892 H883 0.987 . S
C892 C891 1.398 . S
C892 C893 1.391 . S
C893 H881 0.950 . S
C893 C889 1.393 . S
C893 C892 1.391 . S
C894 H884 0.950 1_655 S
C894 C895 1.386 . S
C894 C896 1.391 . S
C895 C894 1.386 . S
C895 C899 1.393 . S
C896 H885 0.950 1_655 S
C896 C894 1.391 . S
C896 C897 1.400 . S
C897 C891 1.491 . S
C897 C896 1.400 . S
C897 C898 1.398 . S
C898 H886 0.950 . S
C898 C897 1.398 . S
C898 C899 1.391 . S
C899 H887 0.950 . S
C899 C895 1.393 . S
C899 C898 1.391 . S
H900 C908 0.950 . S
H901 C913 0.950 . S
H902 C910 0.950 . S
H903 C912 0.950 . S
H904 C914 0.950 . S
H905 C916 0.950 . S
H906 C918 0.950 . S
H907 C919 0.950 . S
C908 H900 0.950 . S
C908 C909 1.430 . S
C908 C910 1.391 . S
C909 C908 1.430 . S
C909 C913 1.350 1_565 S
C910 H902 0.950 . S
C910 C908 1.391 . S
C910 C911 1.400 . S
C911 C910 1.400 . S
C911 C912 1.398 1_565 S
C911 C917 1.491 . S
C912 H903 0.950 . S
C912 C911 1.398 1_545 S
C912 C913 1.391 . S
C913 H901 0.950 . S
C913 C909 1.350 1_545 S
C913 C912 1.391 . S
C914 H904 0.950 . S
C914 C915 1.386 1_545 S
C914 C916 1.391 . S
C915 C914 1.386 1_565 S
C915 C919 1.393 . S
C916 H905 0.950 . S
C916 C914 1.391 . S
C916 C917 1.400 1_545 S
C917 C911 1.491 . S
C917 C916 1.400 1_565 S
C917 C918 1.398 . S
C918 H906 0.950 . S
C918 C917 1.398 . S
C918 C919 1.391 . S
C919 H907 0.950 . S
C919 C915 1.393 . S
C919 C918 1.391 . S
H920 C928 0.950 . S
H921 C933 0.950 . S
H922 C930 0.950 . S
H923 C932 0.950 . S
H924 C934 0.950 . S
H925 C936 0.950 . S
H926 C938 0.950 . S
H927 C939 0.950 . S
C928 H920 0.950 . S
C928 C929 1.386 . S
C928 C930 1.391 . S
C929 C928 1.386 . S
C929 C933 1.393 . S
C930 H922 0.950 . S
C930 C928 1.391 . S
C930 C931 1.400 . S
C931 C930 1.400 . S
C931 C932 1.398 . S
C931 C937 1.491 . S
C932 H923 0.950 . S
C932 C931 1.398 . S
C932 C933 1.391 . S
C933 H921 0.950 . S
C933 C929 1.393 . S
C933 C932 1.391 . S
C934 H924 0.950 . S
C934 C935 1.386 . S
C934 C936 1.391 . S
C935 C934 1.386 . S
C935 C939 1.393 . S
C936 H925 0.950 . S
C936 C934 1.391 . S
C936 C937 1.400 . S
C937 C931 1.491 . S
C937 C936 1.400 . S
C937 C938 1.398 . S
C938 H926 0.950 . S
C938 C937 1.398 . S
C938 C939 1.391 . S
C939 H927 0.950 . S
C939 C935 1.393 . S
C939 C938 1.391 . S
H940 C948 0.950 . S
H941 C953 0.950 . S
H942 C950 0.950 . S
H943 C952 0.950 . S
H944 C954 0.950 . S
H945 C956 0.950 . S
H946 C958 0.950 . S
H947 C959 0.950 . S
C948 H940 0.950 . S
C948 C949 1.386 . S
C948 C950 1.391 . S
C949 C948 1.386 . S
C949 C953 1.393 . S
C950 H942 0.950 . S
C950 C948 1.391 . S
C950 C951 1.400 . S
C951 C950 1.400 . S
C951 C952 1.398 . S
C951 C957 1.491 . S
C952 H943 0.950 . S
C952 C951 1.398 . S
C952 C953 1.391 . S
C953 H941 0.950 . S
C953 C949 1.393 . S
C953 C952 1.391 . S
C954 H944 0.950 . S
C954 C955 1.386 . S
C954 C956 1.391 . S
C955 C954 1.386 . S
C955 C959 1.393 . S
C956 H945 0.950 . S
C956 C954 1.391 . S
C956 C957 1.400 . S
C957 C951 1.491 . S
C957 C956 1.400 . S
C957 C958 1.398 . S
C958 H946 0.950 . S
C958 C957 1.398 . S
C958 C959 1.391 . S
C959 H947 0.950 . S
C959 C955 1.393 . S
C959 C958 1.391 . S
C489 C255 2.256 . S
C495 C343 2.424 . S
C515 C383 1.665 . S
C509 C295 1.634 . S
C535 C402 2.488 . S
C529 C175 2.303 . S
C555 C463 1.904 . S
C549 C215 1.744 . S
C575 C322 2.430 . S
C569 C95 2.248 . S
C589 C135 1.629 . S
C595 C362 1.671 . S
C609 C15 2.313 . S
C615 C423 2.493 . S
C629 C55 1.737 . S
C635 C442 1.901 1_655 S
C655 C324 0.777 . S
C649 C221 0.753 . S
C675 C364 0.310 . S
C669 C261 0.312 . S
C695 C420 1.108 . S
C689 C301 1.008 . S
C709 C181 0.284 . S
C715 C444 0.401 . S
C729 C61 0.768 . S
C735 C345 0.761 . S
C755 C385 0.305 . S
C749 C101 0.420 1_565 S
C775 C431 1.122 . S
C769 C141 0.988 . S
C789 C21 0.433 . S
C795 C465 0.386 . S
C809 C202 2.552 . S
C815 C340 2.791 . S
C829 C242 3.095 . S
C835 C380 3.387 . S
C855 C404 2.031 . S
C849 C282 1.994 . S
C875 C460 3.380 . S
C869 C162 3.083 . S
C889 C42 2.526 . S
C895 C351 2.811 . S
C915 C391 3.394 . S
C909 C82 3.117 1_565 S
C935 C425 2.046 . S
C929 C122 1.989 . S
C949 C2 3.108 . S
C955 C471 3.376 . S
