# Generated by pormake.
# Topology apo, (3,6)-cn, num edge types: 1
# Building blocks:
#     Node 0, Type 0, BuildingBlock: OLANEW_clean_sbu_2, # of connection points: 3
#     Node 1, Type 0, BuildingBlock: OLANEW_clean_sbu_2, # of connection points: 3
#     Node 2, Type 0, BuildingBlock: OLANEW_clean_sbu_2, # of connection points: 3
#     Node 3, Type 0, BuildingBlock: OLANEW_clean_sbu_2, # of connection points: 3
#     Node 4, Type 0, BuildingBlock: OLANEW_clean_sbu_2, # of connection points: 3
#     Node 5, Type 0, BuildingBlock: OLANEW_clean_sbu_2, # of connection points: 3
#     Node 6, Type 0, BuildingBlock: OLANEW_clean_sbu_2, # of connection points: 3
#     Node 7, Type 0, BuildingBlock: OLANEW_clean_sbu_2, # of connection points: 3
#     Node 8, Type 1, BuildingBlock: KUMJIN_clean_sbu_1, # of connection points: 6
#     Node 9, Type 1, BuildingBlock: KUMJIN_clean_sbu_1, # of connection points: 6
#     Node 10, Type 1, BuildingBlock: KUMJIN_clean_sbu_1, # of connection points: 6
#     Node 11, Type 1, BuildingBlock: KUMJIN_clean_sbu_1, # of connection points: 6
#     Edge 12, Type (0, 1), BuildingBlock: KIFKEQ_clean_linker_1, # of connection points: 2
#     Edge 13, Type (0, 1), BuildingBlock: KIFKEQ_clean_linker_1, # of connection points: 2
#     Edge 14, Type (0, 1), BuildingBlock: KIFKEQ_clean_linker_1, # of connection points: 2
#     Edge 15, Type (0, 1), BuildingBlock: KIFKEQ_clean_linker_1, # of connection points: 2
#     Edge 16, Type (0, 1), BuildingBlock: KIFKEQ_clean_linker_1, # of connection points: 2
#     Edge 17, Type (0, 1), BuildingBlock: KIFKEQ_clean_linker_1, # of connection points: 2
#     Edge 18, Type (0, 1), BuildingBlock: KIFKEQ_clean_linker_1, # of connection points: 2
#     Edge 19, Type (0, 1), BuildingBlock: KIFKEQ_clean_linker_1, # of connection points: 2
#     Edge 20, Type (0, 1), BuildingBlock: KIFKEQ_clean_linker_1, # of connection points: 2
#     Edge 21, Type (0, 1), BuildingBlock: KIFKEQ_clean_linker_1, # of connection points: 2
#     Edge 22, Type (0, 1), BuildingBlock: KIFKEQ_clean_linker_1, # of connection points: 2
#     Edge 23, Type (0, 1), BuildingBlock: KIFKEQ_clean_linker_1, # of connection points: 2
#     Edge 24, Type (0, 1), BuildingBlock: KIFKEQ_clean_linker_1, # of connection points: 2
#     Edge 25, Type (0, 1), BuildingBlock: KIFKEQ_clean_linker_1, # of connection points: 2
#     Edge 26, Type (0, 1), BuildingBlock: KIFKEQ_clean_linker_1, # of connection points: 2
#     Edge 27, Type (0, 1), BuildingBlock: KIFKEQ_clean_linker_1, # of connection points: 2
#     Edge 28, Type (0, 1), BuildingBlock: KIFKEQ_clean_linker_1, # of connection points: 2
#     Edge 29, Type (0, 1), BuildingBlock: KIFKEQ_clean_linker_1, # of connection points: 2
#     Edge 30, Type (0, 1), BuildingBlock: KIFKEQ_clean_linker_1, # of connection points: 2
#     Edge 31, Type (0, 1), BuildingBlock: KIFKEQ_clean_linker_1, # of connection points: 2
#     Edge 32, Type (0, 1), BuildingBlock: KIFKEQ_clean_linker_1, # of connection points: 2
#     Edge 33, Type (0, 1), BuildingBlock: KIFKEQ_clean_linker_1, # of connection points: 2
#     Edge 34, Type (0, 1), BuildingBlock: KIFKEQ_clean_linker_1, # of connection points: 2
#     Edge 35, Type (0, 1), BuildingBlock: KIFKEQ_clean_linker_1, # of connection points: 2
# Relax obj value: 0.030
# Max RMSD: 0.223
# Mean RMSD: 0.133
data_MOF--net-apo--node1-OLANEW_clean_sbu_2--node2-KUMJIN_clean_sbu_1--edge1-KIFKEQ_clean_linker_1
_symmetry_space_group_name_H-M    P1
_symmetry_Int_Tables_number       1
_symmetry_cell_setting            triclinic
loop_
_symmetry_equiv_pos_as_xyz
'x, y, z'
_cell_length_a     29.100877
_cell_length_b     45.45985
_cell_length_c     56.682295
_cell_angle_alpha  88.707577
_cell_angle_beta   89.930768
_cell_angle_gamma 90.027961
loop_
_atom_site_label
_atom_site_type_symbol
_atom_site_fract_x
_atom_site_fract_y
_atom_site_fract_z
_atom_type_partial_charge
O0 O 0.2514 0.41117 0.35418 0.0
Cd1 Cd 0.19925 0.37565 0.37342 0.0
O2 O 0.29189 0.41211 0.38664 0.0
Cd3 Cd 0.34171 0.4268 0.41292 0.0
O4 O 0.37186 0.43141 0.44814 0.0
C5 C 0.34406 0.43379 0.46532 0.0
O6 O 0.29973 0.4342 0.46093 0.0
C7 C 0.28497 0.42161 0.36565 0.0
C8 C 0.17313 0.32784 0.34635 0.0
O9 O 0.15262 0.3527 0.34418 0.0
O10 O 0.20667 0.32573 0.36093 0.0
O11 O 0.26952 0.1353 0.94735 0.0
Cd12 Cd 0.29571 0.13225 0.90616 0.0
O13 O 0.19593 0.13466 0.93844 0.0
Cd14 Cd 0.20568 0.12691 0.90089 0.0
O15 O 0.18842 0.0981 0.87182 0.0
C16 C 0.19491 0.07073 0.87554 0.0
O17 O 0.21394 0.06206 0.89553 0.0
C18 C 0.22763 0.13591 0.95381 0.0
C19 C 0.3289 0.18373 0.88392 0.0
O20 O 0.28726 0.17534 0.88102 0.0
O21 O 0.35441 0.16837 0.89789 0.0
O22 O 0.81331 0.10967 0.63607 0.0
Cd23 Cd 0.77148 0.14809 0.614 0.0
O24 O 0.86208 0.09814 0.60785 0.0
Cd25 Cd 0.83812 0.12725 0.57911 0.0
O26 O 0.84004 0.13998 0.54151 0.0
C27 C 0.87954 0.14143 0.53192 0.0
O28 O 0.91598 0.13664 0.54513 0.0
C29 C 0.84695 0.09444 0.62879 0.0
C30 C 0.73044 0.18917 0.64363 0.0
O31 O 0.71067 0.16469 0.63928 0.0
O32 O 0.76969 0.19424 0.63409 0.0
O33 O 0.80606 0.35272 0.04349 0.0
Cd34 Cd 0.8521 0.36109 0.07878 0.0
O35 O 0.75571 0.3832 0.05744 0.0
Cd36 Cd 0.69696 0.4119 0.06455 0.0
O37 O 0.65994 0.44333 0.08637 0.0
C38 C 0.64245 0.43442 0.10583 0.0
O39 O 0.64493 0.40632 0.11162 0.0
C40 C 0.76827 0.36642 0.04093 0.0
C41 C 0.86931 0.31037 0.10598 0.0
O42 O 0.83452 0.3267 0.11027 0.0
O43 O 0.89549 0.31783 0.08865 0.0
O44 O 0.7074 0.60632 0.641 0.0
Cd45 Cd 0.73396 0.64635 0.61466 0.0
O46 O 0.70477 0.57375 0.61281 0.0
Cd47 Cd 0.72297 0.602 0.58249 0.0
O48 O 0.72682 0.60689 0.54401 0.0
C49 C 0.70887 0.62813 0.53232 0.0
O50 O 0.68872 0.64946 0.54368 0.0
C51 C 0.69982 0.58021 0.63438 0.0
C52 C 0.78532 0.68878 0.6382 0.0
O53 O 0.74148 0.69077 0.63662 0.0
O54 O 0.80485 0.66668 0.62876 0.0
O55 O 0.8027 0.89534 0.1321 0.0
Cd56 Cd 0.76627 0.85626 0.10951 0.0
O57 O 0.87178 0.8843 0.11908 0.0
Cd58 Cd 0.84797 0.85622 0.09078 0.0
O59 O 0.8439 0.85014 0.05263 0.0
C60 C 0.87408 0.86408 0.04058 0.0
O61 O 0.905 0.87953 0.05179 0.0
C62 C 0.846 0.89926 0.13241 0.0
C63 C 0.71694 0.81545 0.13739 0.0
O64 O 0.7601 0.81226 0.13368 0.0
O65 O 0.69717 0.83811 0.12815 0.0
O66 O 0.24831 0.9037 0.3676 0.0
Cd67 Cd 0.29016 0.87034 0.39451 0.0
O68 O 0.24145 0.9364 0.3954 0.0
Cd69 Cd 0.26037 0.90651 0.42443 0.0
O70 O 0.24463 0.88507 0.45834 0.0
C71 C 0.20246 0.88563 0.46418 0.0
O72 O 0.17286 0.89794 0.44952 0.0
C73 C 0.23648 0.92926 0.37399 0.0
C74 C 0.33264 0.82412 0.37146 0.0
O75 O 0.29588 0.81966 0.38348 0.0
O76 O 0.34915 0.85022 0.37027 0.0
O77 O 0.28838 0.59679 0.86766 0.0
Cd78 Cd 0.24688 0.63168 0.89235 0.0
O79 O 0.33333 0.58334 0.89718 0.0
Cd80 Cd 0.30531 0.61215 0.92383 0.0
O81 O 0.30026 0.62729 0.95999 0.0
C82 C 0.32705 0.61459 0.97469 0.0
O83 O 0.35488 0.59406 0.96715 0.0
C84 C 0.321 0.58094 0.8758 0.0
C85 C 0.20117 0.67645 0.86718 0.0
O86 O 0.24198 0.68034 0.87502 0.0
O87 O 0.18226 0.65131 0.87098 0.0
Eu88 Eu 0.07781 0.11321 0.2148 0.0
C89 C 0.88251 0.07686 0.23542 0.0
N90 N 0.9007 0.10399 0.23877 0.0
C91 C 0.83836 0.12602 0.21706 0.0
C92 C 0.84282 0.07315 0.22154 0.0
C93 C 0.87752 0.12854 0.23115 0.0
C94 C 0.8215 0.09818 0.21178 0.0
C95 C 0.88259 0.02463 0.24527 0.0
C96 C 0.90192 0.05291 0.24717 0.0
C97 C 0.84465 0.02057 0.2304 0.0
C98 C 0.82481 0.04479 0.21855 0.0
Eu99 Eu 0.97047 0.10532 0.26047 0.0
N100 N 0.9393 0.05739 0.2609 0.0
C101 C 0.90174 0.00138 0.25858 0.0
C102 C 0.95674 0.03524 0.27487 0.0
C103 C 0.93856 0.00681 0.27371 0.0
H104 H 0.88892 0.15018 0.23598 0.0
H105 H 0.95311 0.98909 0.28436 0.0
H106 H 0.16979 0.09636 0.24731 0.0
H107 H 0.04479 0.21365 0.1623 0.0
H108 H 0.98551 0.03948 0.28635 0.0
H109 H 0.88792 0.97931 0.2576 0.0
H110 H 0.03915 0.1607 0.17236 0.0
H111 H 0.82092 0.14557 0.21051 0.0
H112 H 0.82979 0.99892 0.22836 0.0
H113 H 0.79478 0.04146 0.20764 0.0
H114 H 0.23655 0.1216 0.26498 0.0
H115 H 0.79095 0.09629 0.20101 0.0
H116 H 0.09998 0.24484 0.1836 0.0
N117 N 0.14253 0.13554 0.2318 0.0
C118 C 0.14866 0.16469 0.22709 0.0
C119 C 0.21191 0.134 0.2545 0.0
C120 C 0.18589 0.18003 0.23688 0.0
C121 C 0.17418 0.11979 0.24455 0.0
C122 C 0.21747 0.16433 0.25092 0.0
N123 N 0.0849 0.16283 0.20144 0.0
C124 C 0.0609 0.17449 0.1828 0.0
C125 C 0.12459 0.20894 0.20594 0.0
C126 C 0.11831 0.1789 0.21186 0.0
C127 C 0.09632 0.22183 0.18863 0.0
C128 C 0.06505 0.20433 0.17662 0.0
H129 H 0.24658 0.17531 0.25874 0.0
H130 H 0.21872 0.22261 0.23972 0.0
H131 H 0.16506 0.24794 0.21258 0.0
O132 O 0.11714 0.11679 0.18199 0.0
O133 O 0.08084 0.13208 0.25173 0.0
O134 O 0.00782 0.14881 0.25709 0.0
O135 O 0.11655 0.07574 0.20176 0.0
O136 O 0.00651 0.1265 0.20175 0.0
O137 O 0.97134 0.14467 0.23484 0.0
O138 O 0.97967 0.10737 0.29868 0.0
O139 O 0.9958 0.06745 0.23846 0.0
O140 O 0.01355 0.08941 0.20316 0.0
O141 O 0.91315 0.11621 0.28362 0.0
O142 O 0.0386 0.0874 0.27422 0.0
O143 O 0.08547 0.07596 0.24213 0.0
C144 C 0.05223 0.15159 0.26005 0.0
C145 C 0.11957 0.07353 0.15983 0.0
C146 C 0.12644 0.07205 0.11677 0.0
C147 C 0.10273 0.04503 0.11726 0.0
C148 C 0.09552 0.04671 0.15976 0.0
C149 C 0.08738 0.03257 0.13858 0.0
C150 C 0.13499 0.08602 0.13828 0.0
C151 C 0.97727 0.14444 0.2118 0.0
C152 C 0.12808 0.08908 0.18204 0.0
C153 C 0.19075 0.21031 0.23208 0.0
C154 C 0.16009 0.22476 0.21668 0.0
C155 C 0.99525 0.06761 0.21539 0.0
C156 C 0.9343 0.14295 0.31699 0.0
C157 C 0.92424 0.16534 0.35544 0.0
C158 C 0.93003 0.19327 0.3446 0.0
C159 C 0.93988 0.171 0.30655 0.0
C160 C 0.92639 0.14019 0.34139 0.0
C161 C 0.93777 0.196 0.32033 0.0
C162 C 0.07323 0.0731 0.26458 0.0
C163 C 0.93812 0.11654 0.30262 0.0
H164 H 0.0963 0.03334 0.10116 0.0
H165 H 0.08286 0.03665 0.17601 0.0
H166 H 0.06901 0.01185 0.13869 0.0
H167 H 0.15276 0.10698 0.13827 0.0
H168 H 0.92812 0.21305 0.35486 0.0
H169 H 0.9459 0.17352 0.28776 0.0
H170 H 0.92282 0.11845 0.34944 0.0
H171 H 0.94215 0.21758 0.31217 0.0
Eu172 Eu 0.46986 0.38164 0.73597 0.0
C173 C 0.65407 0.42565 0.77163 0.0
N174 N 0.64115 0.39726 0.76869 0.0
C175 C 0.71078 0.38761 0.74767 0.0
C176 C 0.69528 0.43653 0.76167 0.0
C177 C 0.66938 0.37789 0.75771 0.0
C178 C 0.72353 0.41714 0.7494 0.0
C179 C 0.63869 0.47325 0.78834 0.0
C180 C 0.62595 0.44375 0.78473 0.0
C181 C 0.67877 0.48455 0.77766 0.0
C182 C 0.70704 0.46622 0.76439 0.0
Eu183 Eu 0.57022 0.38275 0.78538 0.0
N184 N 0.58748 0.43212 0.79493 0.0
C185 C 0.61153 0.49026 0.80318 0.0
C186 C 0.56341 0.44784 0.81104 0.0
C187 C 0.57425 0.4773 0.81494 0.0
H188 H 0.65942 0.35508 0.75637 0.0
H189 H 0.55428 0.48985 0.82731 0.0
H190 H 0.39271 0.43265 0.75397 0.0
H191 H 0.43713 0.26772 0.71371 0.0
H192 H 0.53634 0.43764 0.82132 0.0
H193 H 0.62012 0.51301 0.8064 0.0
H194 H 0.48037 0.31474 0.71403 0.0
H195 H 0.73273 0.37237 0.73855 0.0
H196 H 0.6888 0.50725 0.78003 0.0
H197 H 0.73828 0.47509 0.75662 0.0
H198 H 0.31741 0.43368 0.77373 0.0
H199 H 0.75548 0.42464 0.7415 0.0
H200 H 0.36222 0.26365 0.73431 0.0
N201 N 0.39533 0.38592 0.75259 0.0
C202 C 0.37081 0.36053 0.75477 0.0
C203 C 0.33235 0.41288 0.76886 0.0
C204 C 0.32668 0.36019 0.7651 0.0
C205 C 0.37562 0.41214 0.75814 0.0
C206 C 0.3081 0.38671 0.77277 0.0
N207 N 0.43067 0.33636 0.73489 0.0
C208 C 0.44765 0.31297 0.723 0.0
C209 C 0.36289 0.30884 0.74565 0.0
C210 C 0.38859 0.33514 0.74522 0.0
C211 C 0.38095 0.28425 0.73442 0.0
C212 C 0.42326 0.28645 0.72277 0.0
H213 H 0.27433 0.38739 0.78081 0.0
H214 H 0.26812 0.33296 0.77476 0.0
H215 H 0.29986 0.28799 0.7577 0.0
O216 O 0.4867 0.38079 0.6984 0.0
O217 O 0.47837 0.34322 0.76231 0.0
O218 O 0.49962 0.3663 0.79593 0.0
O219 O 0.42101 0.39749 0.70931 0.0
O220 O 0.53669 0.3588 0.72658 0.0
O221 O 0.57007 0.34271 0.76188 0.0
O222 O 0.60332 0.38496 0.81994 0.0
O223 O 0.58192 0.40007 0.74783 0.0
O224 O 0.51379 0.42232 0.73944 0.0
O225 O 0.60104 0.3437 0.80199 0.0
O226 O 0.50121 0.40318 0.7951 0.0
O227 O 0.47268 0.4215 0.75967 0.0
C228 C 0.47775 0.3451 0.7854 0.0
C229 C 0.45459 0.41915 0.67532 0.0
C230 C 0.44873 0.44048 0.63545 0.0
C231 C 0.46628 0.46711 0.64392 0.0
C232 C 0.47164 0.44595 0.68339 0.0
C233 C 0.47768 0.46974 0.66771 0.0
C234 C 0.44322 0.41646 0.6514 0.0
C235 C 0.56395 0.34103 0.73885 0.0
C236 C 0.44899 0.39386 0.69171 0.0
C237 C 0.30186 0.33369 0.76666 0.0
C238 C 0.31988 0.30809 0.75689 0.0
C239 C 0.55867 0.42187 0.73821 0.0
C240 C 0.59535 0.34218 0.84378 0.0
C241 C 0.60182 0.33629 0.88667 0.0
C242 C 0.56473 0.31643 0.88646 0.0
C243 C 0.55863 0.32212 0.84401 0.0
C244 C 0.61689 0.34911 0.86514 0.0
C245 C 0.54343 0.3094 0.86526 0.0
C246 C 0.47577 0.42206 0.78286 0.0
C247 C 0.61059 0.35679 0.8216 0.0
H248 H 0.47036 0.48614 0.63227 0.0
H249 H 0.48007 0.4485 0.70179 0.0
H250 H 0.49088 0.49037 0.67406 0.0
H251 H 0.43045 0.39559 0.64523 0.0
H252 H 0.55271 0.30589 0.90265 0.0
H253 H 0.54163 0.31631 0.8278 0.0
H254 H 0.64495 0.36481 0.865 0.0
H255 H 0.51512 0.29394 0.86529 0.0
Eu256 Eu 0.06232 0.87634 0.7289 0.0
C257 C 0.86292 0.84584 0.74777 0.0
N258 N 0.88112 0.87341 0.74744 0.0
C259 C 0.81983 0.89105 0.72278 0.0
C260 C 0.82271 0.8397 0.73491 0.0
C261 C 0.86001 0.89607 0.73556 0.0
C262 C 0.8012 0.86272 0.72235 0.0
C263 C 0.86789 0.79461 0.76046 0.0
C264 C 0.88566 0.82351 0.76027 0.0
C265 C 0.82833 0.78832 0.74731 0.0
C266 C 0.80576 0.81079 0.73463 0.0
Eu267 Eu 0.94874 0.87991 0.76951 0.0
N268 N 0.92445 0.83008 0.77257 0.0
C269 C 0.88983 0.77296 0.77426 0.0
C270 C 0.94299 0.80968 0.78783 0.0
C271 C 0.92695 0.78069 0.78839 0.0
H272 H 0.87441 0.91797 0.73591 0.0
H273 H 0.94262 0.76447 0.8001 0.0
H274 H 0.1264 0.81943 0.74818 0.0
H275 H 0.10522 0.99345 0.72074 0.0
H276 H 0.96912 0.81569 0.80024 0.0
H277 H 0.87727 0.75051 0.77487 0.0
H278 H 0.05736 0.9495 0.71585 0.0
H279 H 0.80333 0.90899 0.7132 0.0
H280 H 0.81456 0.76618 0.74707 0.0
H281 H 0.7752 0.80559 0.72464 0.0
H282 H 0.20249 0.81093 0.76642 0.0
H283 H 0.7703 0.85885 0.71224 0.0
H284 H 0.18241 0.98888 0.73862 0.0
N285 N 0.1351 0.86571 0.74512 0.0
C286 C 0.16377 0.88904 0.74777 0.0
C287 C 0.19193 0.83301 0.76138 0.0
C288 C 0.20774 0.88517 0.7578 0.0
C289 C 0.14867 0.83791 0.75135 0.0
C290 C 0.22154 0.85675 0.76472 0.0
N291 N 0.10554 0.92022 0.73195 0.0
C292 C 0.09031 0.94711 0.72418 0.0
C293 C 0.17759 0.94162 0.7437 0.0
C294 C 0.1488 0.917 0.7408 0.0
C295 C 0.16137 0.96942 0.73664 0.0
C296 C 0.11771 0.97212 0.72666 0.0
H297 H 0.25504 0.85289 0.77251 0.0
H298 H 0.27023 0.90713 0.76847 0.0
H299 H 0.24385 0.9565 0.75615 0.0
O300 O 0.05973 0.88355 0.69065 0.0
O301 O 0.07059 0.89823 0.76431 0.0
O302 O 0.99976 0.91678 0.77517 0.0
O303 O 0.11126 0.8547 0.70588 0.0
O304 O 0.00462 0.90693 0.7163 0.0
O305 O 0.96273 0.92198 0.74885 0.0
O306 O 0.92936 0.87564 0.80712 0.0
O307 O 0.94571 0.86575 0.7311 0.0
O308 O 0.0112 0.83903 0.72806 0.0
O309 O 0.89436 0.90724 0.7838 0.0
O310 O 0.01267 0.85708 0.78467 0.0
O311 O 0.04345 0.83665 0.75148 0.0
C312 C 0.04494 0.91696 0.77572 0.0
C313 C 0.08347 0.84315 0.66831 0.0
C314 C 0.09214 0.82774 0.62757 0.0
C315 C 0.06743 0.8019 0.63323 0.0
C316 C 0.05914 0.8172 0.67366 0.0
C317 C 0.05102 0.79675 0.65614 0.0
C318 C 0.09977 0.84836 0.64532 0.0
C319 C 0.97642 0.9253 0.7268 0.0
C320 C 0.09256 0.86484 0.68653 0.0
C321 C 0.23639 0.90968 0.76074 0.0
C322 C 0.22137 0.93781 0.75371 0.0
C323 C 0.96801 0.84327 0.72268 0.0
C324 C 0.86794 0.90532 0.82442 0.0
C325 C 0.84474 0.90304 0.86595 0.0
C326 C 0.81087 0.92439 0.86099 0.0
C327 C 0.83368 0.9265 0.81998 0.0
C328 C 0.87328 0.8936 0.84746 0.0
C329 C 0.80541 0.93591 0.83817 0.0
C330 C 0.03925 0.83756 0.77451 0.0
C331 C 0.89766 0.89573 0.80489 0.0
H332 H 0.06133 0.78546 0.62006 0.0
H333 H 0.04677 0.81268 0.69136 0.0
H334 H 0.03223 0.77676 0.66036 0.0
H335 H 0.11803 0.86865 0.64127 0.0
H336 H 0.78902 0.93261 0.87483 0.0
H337 H 0.82872 0.93588 0.80243 0.0
H338 H 0.89933 0.87705 0.85096 0.0
H339 H 0.77931 0.95237 0.8346 0.0
Eu340 Eu 0.44031 0.62498 0.23662 0.0
C341 C 0.65252 0.63847 0.24637 0.0
N342 N 0.62824 0.6129 0.24745 0.0
C343 C 0.6826 0.59005 0.22195 0.0
C344 C 0.69262 0.64092 0.23247 0.0
C345 C 0.64291 0.5887 0.23585 0.0
C346 C 0.70743 0.61632 0.22014 0.0
C347 C 0.66104 0.68922 0.25798 0.0
C348 C 0.63655 0.66242 0.25884 0.0
C349 C 0.70058 0.69189 0.24385 0.0
C350 C 0.71633 0.66781 0.23115 0.0
Eu351 Eu 0.56092 0.61278 0.27059 0.0
N352 N 0.59753 0.65942 0.27201 0.0
C353 C 0.64557 0.71242 0.2717 0.0
C354 C 0.58492 0.68109 0.28698 0.0
C355 C 0.60789 0.70811 0.28662 0.0
H356 H 0.62425 0.56827 0.23757 0.0
H357 H 0.597 0.72542 0.29817 0.0
H358 H 0.37718 0.66283 0.27468 0.0
H359 H 0.41175 0.51466 0.20177 0.0
H360 H 0.55821 0.67752 0.29985 0.0
H361 H 0.66342 0.73334 0.27154 0.0
H362 H 0.44598 0.56389 0.20259 0.0
H363 H 0.69403 0.57083 0.21267 0.0
H364 H 0.71952 0.71241 0.24282 0.0
H365 H 0.747 0.67019 0.22041 0.0
H366 H 0.30917 0.65505 0.30036 0.0
H367 H 0.73807 0.61733 0.20926 0.0
H368 H 0.34864 0.50138 0.22924 0.0
N369 N 0.3758 0.61955 0.26147 0.0
C370 C 0.35345 0.59328 0.26084 0.0
C371 C 0.3214 0.63747 0.28943 0.0
C372 C 0.31456 0.58788 0.27517 0.0
C373 C 0.36003 0.64176 0.27507 0.0
C374 C 0.29868 0.61037 0.28957 0.0
N375 N 0.40811 0.5773 0.23265 0.0
C376 C 0.42106 0.5579 0.21585 0.0
C377 C 0.34849 0.5438 0.24586 0.0
C378 C 0.37062 0.57142 0.24644 0.0
C379 C 0.36471 0.52283 0.23021 0.0
C380 C 0.40054 0.53015 0.21481 0.0
H381 H 0.26896 0.60704 0.30085 0.0
H382 H 0.26372 0.55549 0.2861 0.0
H383 H 0.29323 0.51698 0.26039 0.0
O384 O 0.41567 0.62756 0.19977 0.0
O385 O 0.44191 0.60396 0.27359 0.0
O386 O 0.50778 0.5766 0.27379 0.0
O387 O 0.38681 0.65619 0.22647 0.0
O388 O 0.49715 0.60041 0.21755 0.0
O389 O 0.53786 0.57581 0.24705 0.0
O390 O 0.5744 0.61176 0.30854 0.0
O391 O 0.562 0.6348 0.23417 0.0
O392 O 0.49436 0.66063 0.23089 0.0
O393 O 0.61346 0.58371 0.28577 0.0
O394 O 0.50489 0.63968 0.28859 0.0
O395 O 0.46504 0.66288 0.25816 0.0
C396 C 0.46507 0.58049 0.28034 0.0
C397 C 0.35483 0.66197 0.1872 0.0
C398 C 0.32652 0.66783 0.14678 0.0
C399 C 0.29477 0.68884 0.15454 0.0
C400 C 0.32279 0.68304 0.1945 0.0
C401 C 0.293 0.69633 0.17824 0.0
C402 C 0.35647 0.65438 0.1633 0.0
C403 C 0.52453 0.57891 0.22489 0.0
C404 C 0.38625 0.64818 0.20465 0.0
C405 C 0.29332 0.56015 0.27502 0.0
C406 C 0.31029 0.53817 0.26046 0.0
C407 C 0.53852 0.65772 0.22665 0.0
C408 C 0.65204 0.60397 0.31853 0.0
C409 C 0.69217 0.61715 0.35467 0.0
C410 C 0.73061 0.62557 0.34106 0.0
C411 C 0.69103 0.61225 0.30532 0.0
C412 C 0.65295 0.60628 0.34322 0.0
C413 C 0.73 0.62301 0.31657 0.0
C414 C 0.47887 0.6612 0.28015 0.0
C415 C 0.60954 0.59421 0.30685 0.0
H416 H 0.27085 0.69923 0.14233 0.0
H417 H 0.32064 0.68927 0.2128 0.0
H418 H 0.26833 0.71246 0.18404 0.0
H419 H 0.38141 0.63838 0.15751 0.0
H420 H 0.76142 0.63373 0.3494 0.0
H421 H 0.69147 0.61055 0.28634 0.0
H422 H 0.62276 0.60018 0.35344 0.0
H423 H 0.75985 0.6294 0.30626 0.0
H424 H 0.21224 0.98612 0.38185 0.0
H425 H 0.21411 0.92093 0.3275 0.0
H426 H 0.17546 0.02089 0.35476 0.0
H427 H 0.17627 0.95581 0.3004 0.0
H428 H 0.14544 0.03734 0.25262 0.0
H429 H 0.18722 0.00278 0.27831 0.0
H430 H 0.10041 0.02632 0.33679 0.0
H431 H 0.05942 0.06107 0.3115 0.0
C432 C 0.20481 0.97916 0.36411 0.0
C433 C 0.21589 0.95063 0.35692 0.0
C434 C 0.18347 0.9991 0.3486 0.0
C435 C 0.17251 0.99104 0.32549 0.0
C436 C 0.18455 0.96276 0.31805 0.0
C437 C 0.20602 0.94273 0.33361 0.0
C438 C 0.13537 0.03523 0.27098 0.0
C439 C 0.09913 0.05215 0.27997 0.0
C440 C 0.15915 0.01527 0.28566 0.0
C441 C 0.1473 0.0119 0.30962 0.0
C442 C 0.11097 0.02874 0.31852 0.0
C443 C 0.08726 0.0486 0.30392 0.0
H444 H 0.30138 0.56635 0.83004 0.0
H445 H 0.39285 0.54537 0.88806 0.0
H446 H 0.33743 0.52785 0.80686 0.0
H447 H 0.42898 0.50753 0.86489 0.0
H448 H 0.44709 0.42046 0.8286 0.0
H449 H 0.40886 0.4593 0.85015 0.0
H450 H 0.41077 0.51512 0.78745 0.0
H451 H 0.44887 0.47607 0.76583 0.0
C452 C 0.32932 0.55373 0.83778 0.0
C453 C 0.344 0.55887 0.86096 0.0
C454 C 0.35005 0.53175 0.82448 0.0
C455 C 0.38576 0.51445 0.83413 0.0
C456 C 0.40095 0.52005 0.8571 0.0
C457 C 0.38037 0.54193 0.87033 0.0
C458 C 0.43934 0.44103 0.81943 0.0
C459 C 0.45111 0.44529 0.79558 0.0
C460 C 0.41758 0.46332 0.83178 0.0
C461 C 0.40707 0.49039 0.82055 0.0
C462 C 0.41804 0.49444 0.79654 0.0
C463 C 0.43992 0.47212 0.78419 0.0
H464 H 0.69246 0.52125 0.62727 0.0
H465 H 0.67043 0.58699 0.68003 0.0
H466 H 0.66157 0.48362 0.65403 0.0
H467 H 0.63964 0.549 0.70697 0.0
H468 H 0.5312 0.47868 0.7318 0.0
H469 H 0.56907 0.51744 0.70836 0.0
H470 H 0.6788 0.45733 0.69179 0.0
H471 H 0.64019 0.41841 0.71473 0.0
C472 C 0.68137 0.52767 0.64466 0.0
C473 C 0.68376 0.5572 0.65145 0.0
C474 C 0.66393 0.50602 0.66006 0.0
C475 C 0.64817 0.51334 0.6826 0.0
C476 C 0.6512 0.54276 0.68961 0.0
C477 C 0.66905 0.56446 0.67423 0.0
C478 C 0.56345 0.47383 0.72315 0.0
C479 C 0.58277 0.44557 0.72499 0.0
C480 C 0.58536 0.49607 0.70995 0.0
C481 C 0.6269 0.49044 0.69821 0.0
C482 C 0.64661 0.46227 0.70046 0.0
C483 C 0.62474 0.44006 0.71372 0.0
H484 H 0.8035 0.94746 0.15064 0.0
H485 H 0.93522 0.90402 0.14649 0.0
H486 H 0.83962 0.98834 0.17118 0.0
H487 H 0.97089 0.94462 0.16726 0.0
H488 H 0.00184 0.00985 0.22774 0.0
H489 H 0.96409 0.96823 0.20905 0.0
H490 H 0.90266 0.02773 0.15772 0.0
H491 H 0.94117 0.06937 0.17626 0.0
C492 C 0.83996 0.94644 0.15439 0.0
C493 C 0.86654 0.92254 0.14691 0.0
C494 C 0.86061 0.96991 0.16595 0.0
C495 C 0.908 0.96962 0.17063 0.0
C496 C 0.93425 0.9453 0.1639 0.0
C497 C 0.91383 0.92212 0.15199 0.0
C498 C 0.98051 0.01392 0.21235 0.0
C499 C 0.97448 0.04263 0.20327 0.0
C500 C 0.95899 0.99019 0.2017 0.0
C501 C 0.93042 0.99485 0.18203 0.0
C502 C 0.92429 0.02363 0.17298 0.0
C503 C 0.94662 0.04733 0.18337 0.0
H504 H 0.9277 0.06514 0.6222 0.0
H505 H 0.81327 0.07139 0.67045 0.0
H506 H 0.96035 0.02566 0.64648 0.0
H507 H 0.84503 0.03106 0.69434 0.0
H508 H 0.93409 0.97453 0.74331 0.0
H509 H 0.90487 0.01654 0.72051 0.0
H510 H 0.94796 0.97548 0.65609 0.0
H511 H 0.97858 0.93405 0.67894 0.0
C512 C 0.90942 0.05804 0.63798 0.0
C513 C 0.86777 0.07139 0.64433 0.0
C514 C 0.928 0.0352 0.65185 0.0
C515 C 0.90521 0.02488 0.67231 0.0
C516 C 0.8639 0.03861 0.67888 0.0
C517 C 0.84553 0.06169 0.66511 0.0
C518 C 0.93739 0.9745 0.72427 0.0
C519 C 0.95873 0.95092 0.71296 0.0
C520 C 0.92039 0.99856 0.71117 0.0
C521 C 0.92397 0.99952 0.68641 0.0
C522 C 0.9453 0.97584 0.67514 0.0
C523 C 0.96266 0.95194 0.68825 0.0
H524 H 0.59665 0.42213 0.14702 0.0
H525 H 0.64368 0.49462 0.10267 0.0
H526 H 0.56697 0.45677 0.17544 0.0
H527 H 0.61531 0.52927 0.13143 0.0
H528 H 0.52101 0.58421 0.17682 0.0
H529 H 0.54695 0.54916 0.14788 0.0
H530 H 0.59295 0.49068 0.20419 0.0
H531 H 0.56514 0.52526 0.23318 0.0
C532 C 0.6007 0.44547 0.14333 0.0
C533 C 0.62254 0.45559 0.12255 0.0
C534 C 0.58399 0.46536 0.15974 0.0
C535 C 0.58892 0.49587 0.15585 0.0
C536 C 0.61033 0.50596 0.1349 0.0
C537 C 0.6268 0.48607 0.11842 0.0
C538 C 0.53646 0.56381 0.18305 0.0
C539 C 0.54103 0.55757 0.20735 0.0
C540 C 0.55171 0.54378 0.16642 0.0
C541 C 0.57219 0.51706 0.17363 0.0
C542 C 0.57678 0.51084 0.19796 0.0
C543 C 0.56125 0.53081 0.21461 0.0
H544 H 0.25728 0.46348 0.33396 0.0
H545 H 0.37665 0.43298 0.3725 0.0
H546 H 0.30323 0.50243 0.31518 0.0
H547 H 0.4229 0.47197 0.35339 0.0
H548 H 0.48849 0.52247 0.28606 0.0
H549 H 0.44686 0.48428 0.30859 0.0
H550 H 0.34794 0.5489 0.33047 0.0
H551 H 0.39068 0.58727 0.30899 0.0
C552 C 0.29335 0.46515 0.33845 0.0
C553 C 0.31331 0.44537 0.35487 0.0
C554 C 0.31953 0.48752 0.32779 0.0
C555 C 0.36648 0.49023 0.33295 0.0
C556 C 0.38671 0.47031 0.34916 0.0
C557 C 0.36021 0.44822 0.36023 0.0
C558 C 0.45826 0.52859 0.29598 0.0
C559 C 0.44215 0.55775 0.2953 0.0
C560 C 0.4345 0.50675 0.30884 0.0
C561 C 0.39401 0.51365 0.32104 0.0
C562 C 0.37875 0.54295 0.32095 0.0
C563 C 0.40298 0.56483 0.3085 0.0
H564 H 0.20416 0.01106 0.87863 0.0
H565 H 0.14524 0.08049 0.83501 0.0
H566 H 0.16942 0.97445 0.85357 0.0
H567 H 0.111 0.0437 0.80965 0.0
H568 H 0.01007 0.96937 0.79026 0.0
H569 H 0.04913 0.00703 0.81281 0.0
H570 H 0.17242 0.95411 0.81423 0.0
H571 H 0.13291 0.91605 0.79253 0.0
C572 C 0.18424 0.01854 0.86352 0.0
C573 C 0.17729 0.04873 0.85891 0.0
C574 C 0.16449 0.99751 0.84907 0.0
C575 C 0.13724 0.00614 0.82966 0.0
C576 C 0.13127 0.03634 0.82466 0.0
C577 C 0.15117 0.05742 0.8391 0.0
C578 C 0.04543 0.96571 0.79551 0.0
C579 C 0.06839 0.93973 0.78957 0.0
C580 C 0.06799 0.98745 0.80818 0.0
C581 C 0.11394 0.98363 0.81527 0.0
C582 C 0.1369 0.95765 0.80924 0.0
C583 C 0.11435 0.93594 0.7966 0.0
H584 H 0.28271 0.12013 0.99114 0.0
H585 H 0.14423 0.147 0.97388 0.0
H586 H 0.25858 0.10815 0.0314 0.0
H587 H 0.12041 0.13616 0.01433 0.0
H588 H 0.08031 0.07327 0.0747 0.0
H589 H 0.10619 0.09283 0.03681 0.0
H590 H 0.23171 0.12307 0.06898 0.0
H591 H 0.20684 0.10181 0.10679 0.0
C592 C 0.24738 0.12425 0.9961 0.0
C593 C 0.21528 0.1342 0.97921 0.0
C594 C 0.23349 0.11742 0.01926 0.0
C595 C 0.18728 0.12067 0.02611 0.0
C596 C 0.15598 0.13257 0.00956 0.0
C597 C 0.16973 0.13906 0.98639 0.0
C598 C 0.11364 0.08383 0.07372 0.0
C599 C 0.14161 0.08564 0.09384 0.0
C600 C 0.12822 0.09555 0.05198 0.0
C601 C 0.17106 0.10973 0.04973 0.0
C602 C 0.19872 0.11208 0.06995 0.0
C603 C 0.1842 0.10016 0.09173 0.0
H604 H 0.43279 0.42905 0.4814 0.0
H605 H 0.2931 0.44122 0.50517 0.0
H606 H 0.45926 0.42941 0.52227 0.0
H607 H 0.31958 0.44228 0.54581 0.0
H608 H 0.37348 0.41271 0.6173 0.0
H609 H 0.35008 0.41018 0.57617 0.0
H610 H 0.46882 0.46163 0.5553 0.0
H611 H 0.49338 0.46299 0.59636 0.0
C612 C 0.40777 0.432 0.49531 0.0
C613 C 0.36081 0.43503 0.48999 0.0
C614 C 0.42297 0.43232 0.51875 0.0
C615 C 0.39154 0.43572 0.53739 0.0
C616 C 0.34466 0.43906 0.53197 0.0
C617 C 0.3295 0.43867 0.50861 0.0
C618 C 0.39502 0.42309 0.60393 0.0
C619 C 0.43529 0.43811 0.6102 0.0
C620 C 0.38127 0.42198 0.58034 0.0
C621 C 0.40734 0.43591 0.56239 0.0
C622 C 0.44805 0.45048 0.56861 0.0
C623 C 0.46185 0.45156 0.59222 0.0
H624 H 0.69099 0.39678 0.02538 0.0
H625 H 0.78486 0.32771 0.0061 0.0
H626 H 0.65011 0.39101 0.9882 0.0
H627 H 0.74413 0.32202 0.96917 0.0
H628 H 0.69413 0.34085 0.89479 0.0
H629 H 0.73282 0.34974 0.93209 0.0
H630 H 0.60136 0.35502 0.96717 0.0
H631 H 0.56252 0.34692 0.92966 0.0
C632 C 0.7027 0.3802 0.01347 0.0
C633 C 0.74126 0.36271 0.01893 0.0
C634 C 0.67925 0.37691 0.99208 0.0
C635 C 0.69408 0.35621 0.97563 0.0
C636 C 0.73227 0.33854 0.98123 0.0
C637 C 0.75547 0.34173 0.00255 0.0
C638 C 0.67343 0.34431 0.91038 0.0
C639 C 0.62524 0.34306 0.90925 0.0
C640 C 0.69561 0.3491 0.93181 0.0
C641 C 0.67017 0.35285 0.95265 0.0
C642 C 0.62194 0.35236 0.95143 0.0
C643 C 0.59973 0.34742 0.92999 0.0
H644 H 0.95927 0.14876 0.50713 0.0
H645 H 0.8119 0.14576 0.49825 0.0
H646 H 0.96892 0.15497 0.46467 0.0
H647 H 0.82165 0.15235 0.4556 0.0
H648 H 0.8634 0.12932 0.3792 0.0
H649 H 0.85163 0.12458 0.42182 0.0
H650 H 0.95513 0.19099 0.43281 0.0
H651 H 0.96778 0.19513 0.39035 0.0
C652 C 0.92886 0.14964 0.49614 0.0
C653 C 0.88479 0.14674 0.50613 0.0
C654 C 0.93442 0.15335 0.47177 0.0
C655 C 0.89607 0.15415 0.45672 0.0
C656 C 0.85192 0.1515 0.46669 0.0
C657 C 0.84632 0.14794 0.49114 0.0
C658 C 0.88384 0.14275 0.39074 0.0
C659 C 0.91658 0.16257 0.38137 0.0
C660 C 0.87672 0.14028 0.41514 0.0
C661 C 0.90241 0.15742 0.43073 0.0
C662 C 0.93505 0.17727 0.42132 0.0
C663 C 0.94199 0.17985 0.39696 0.0
H664 H 0.93012 0.89518 0.01061 0.0
H665 H 0.81518 0.83496 0.01134 0.0
H666 H 0.92461 0.90018 0.96799 0.0
H667 H 0.8105 0.83927 0.96838 0.0
H668 H 0.77768 0.88851 0.89807 0.0
H669 H 0.787 0.8755 0.93961 0.0
H670 H 0.93457 0.87692 0.93099 0.0
H671 H 0.92519 0.89152 0.88963 0.0
C672 C 0.90404 0.88264 0.00164 0.0
C673 C 0.87284 0.86485 0.01443 0.0
C674 C 0.90112 0.88533 0.9771 0.0
C675 C 0.86706 0.87018 0.96466 0.0
C676 C 0.83674 0.8516 0.9774 0.0
C677 C 0.83956 0.849 0.00202 0.0
C678 C 0.81215 0.8861 0.90503 0.0
C679 C 0.85068 0.8915 0.89055 0.0
C680 C 0.81751 0.87821 0.92883 0.0
C681 C 0.86156 0.87534 0.93877 0.0
C682 C 0.90012 0.87941 0.92403 0.0
C683 C 0.89475 0.88744 0.90021 0.0
H684 H 0.73514 0.5833 0.50397 0.0
H685 H 0.67994 0.67156 0.50147 0.0
H686 H 0.73025 0.58132 0.46113 0.0
H687 H 0.67503 0.66946 0.45848 0.0
H688 H 0.72282 0.66341 0.38036 0.0
H689 H 0.72734 0.6667 0.42329 0.0
H690 H 0.66804 0.57989 0.43076 0.0
H691 H 0.66408 0.57645 0.38785 0.0
C692 C 0.72214 0.60234 0.4943 0.0
C693 C 0.70788 0.6276 0.50618 0.0
C694 C 0.71904 0.6011 0.46974 0.0
C695 C 0.702 0.62516 0.45646 0.0
C696 C 0.68853 0.65063 0.46825 0.0
C697 C 0.69122 0.65179 0.49288 0.0
C698 C 0.71086 0.64502 0.3912 0.0
C699 C 0.69324 0.61962 0.38075 0.0
C700 C 0.71311 0.64701 0.41575 0.0
C701 C 0.69821 0.62352 0.43038 0.0
C702 C 0.68022 0.59823 0.41993 0.0
C703 C 0.67756 0.59636 0.39538 0.0
H704 H 0.38111 0.5918 0.00988 0.0
H705 H 0.27327 0.65533 0.99649 0.0
H706 H 0.3819 0.60482 0.0513 0.0
H707 H 0.27347 0.66794 0.0381 0.0
H708 H 0.32184 0.70498 0.10827 0.0
H709 H 0.32201 0.69218 0.06675 0.0
H710 H 0.33459 0.60021 0.08657 0.0
H711 H 0.33454 0.61305 0.12814 0.0
C712 C 0.35743 0.60848 0.01578 0.0
C713 C 0.32714 0.62255 0.99987 0.0
C714 C 0.35771 0.61581 0.03958 0.0
C715 C 0.32773 0.63738 0.04802 0.0
C716 C 0.29742 0.65148 0.0321 0.0
C717 C 0.29712 0.64414 0.00828 0.0
C718 C 0.32437 0.68201 0.10376 0.0
C719 C 0.32807 0.66001 0.12149 0.0
C720 C 0.3244 0.67468 0.07997 0.0
C721 C 0.32813 0.64517 0.07334 0.0
C722 C 0.33225 0.62319 0.09107 0.0
C723 C 0.33226 0.63053 0.11489 0.0
H724 H 0.1156 0.88653 0.48218 0.0
H725 H 0.25403 0.8589 0.49901 0.0
H726 H 0.09016 0.87044 0.52122 0.0
H727 H 0.22822 0.84205 0.53805 0.0
H728 H 0.1752 0.85119 0.6143 0.0
H729 H 0.20215 0.86309 0.57453 0.0
H730 H 0.0768 0.82757 0.5459 0.0
H731 H 0.04891 0.81698 0.58574 0.0
C732 C 0.14056 0.87672 0.49413 0.0
C733 C 0.18691 0.87413 0.4875 0.0
C734 C 0.12587 0.8673 0.5165 0.0
C735 C 0.15712 0.85494 0.5328 0.0
C736 C 0.20337 0.85183 0.52602 0.0
C737 C 0.21812 0.86133 0.50361 0.0
C738 C 0.15324 0.8461 0.59953 0.0
C739 C 0.1097 0.83337 0.60324 0.0
C740 C 0.16898 0.85255 0.57669 0.0
C741 C 0.14161 0.84635 0.557 0.0
C742 C 0.09852 0.83299 0.56069 0.0
C743 C 0.08273 0.8266 0.58353 0.0
H744 H 0.11831 0.32753 0.30727 0.0
H745 H 0.19209 0.2699 0.35549 0.0
H746 H 0.09049 0.28506 0.28608 0.0
H747 H 0.16244 0.22731 0.33518 0.0
H748 H 0.13498 0.15666 0.28213 0.0
H749 H 0.1664 0.19956 0.30126 0.0
H750 H 0.0386 0.24591 0.28878 0.0
H751 H 0.00916 0.20382 0.26775 0.0
C752 C 0.12839 0.30574 0.31341 0.0
C753 C 0.15743 0.30207 0.33302 0.0
C754 C 0.11212 0.28132 0.30138 0.0
C755 C 0.12385 0.25256 0.30893 0.0
C756 C 0.15319 0.24901 0.32853 0.0
C757 C 0.17006 0.27346 0.3403 0.0
C758 C 0.11407 0.17626 0.28305 0.0
C759 C 0.07007 0.17706 0.27299 0.0
C760 C 0.13173 0.20076 0.29442 0.0
C761 C 0.10523 0.22646 0.29659 0.0
C762 C 0.06056 0.22687 0.28703 0.0
C763 C 0.04333 0.20254 0.27525 0.0
H764 H 0.29502 0.20956 0.84359 0.0
H765 H 0.4058 0.21573 0.89389 0.0
H766 H 0.32946 0.24952 0.81987 0.0
H767 H 0.43956 0.25613 0.87038 0.0
H768 H 0.45359 0.34809 0.83191 0.0
H769 H 0.41592 0.31023 0.85644 0.0
H770 H 0.40879 0.25344 0.7966 0.0
H771 H 0.44879 0.29053 0.77242 0.0
C772 C 0.32637 0.21969 0.84974 0.0
C773 C 0.34774 0.20947 0.8706 0.0
C774 C 0.34615 0.24242 0.8361 0.0
C775 C 0.38715 0.25582 0.8433 0.0
C776 C 0.4078 0.24625 0.86451 0.0
C777 C 0.38855 0.2231 0.8779 0.0
C778 C 0.44402 0.32752 0.82396 0.0
C779 C 0.45356 0.3225 0.80004 0.0
C780 C 0.42246 0.3059 0.83803 0.0
C781 C 0.40916 0.27904 0.82835 0.0
C782 C 0.41811 0.27413 0.80441 0.0
C783 C 0.44066 0.29547 0.79051 0.0
H784 H 0.75096 0.2476 0.6469 0.0
H785 H 0.6595 0.18041 0.67471 0.0
H786 H 0.71212 0.28425 0.67078 0.0
H787 H 0.62124 0.21708 0.69887 0.0
H788 H 0.60029 0.28915 0.75589 0.0
H789 H 0.64219 0.252 0.73369 0.0
H790 H 0.62903 0.30561 0.67027 0.0
H791 H 0.5867 0.34243 0.6922 0.0
C792 C 0.72284 0.24061 0.65824 0.0
C793 C 0.70819 0.21112 0.65885 0.0
C794 C 0.70054 0.26161 0.67183 0.0
C795 C 0.6637 0.25347 0.68664 0.0
C796 C 0.64974 0.22389 0.68771 0.0
C797 C 0.67149 0.20297 0.67379 0.0
C798 C 0.60645 0.293 0.73722 0.0
C799 C 0.59006 0.31866 0.72578 0.0
C800 C 0.63022 0.27171 0.72453 0.0
C801 C 0.63889 0.276 0.70029 0.0
C802 C 0.6231 0.30185 0.68897 0.0
C803 C 0.59862 0.32282 0.70151 0.0
H804 H 0.82752 0.29284 0.14724 0.0
H805 H 0.93516 0.26875 0.09877 0.0
H806 H 0.84775 0.25095 0.17296 0.0
H807 H 0.9554 0.22709 0.12452 0.0
H808 H 0.95455 0.14034 0.16537 0.0
H809 H 0.92366 0.17913 0.13941 0.0
H810 H 0.91495 0.23718 0.19853 0.0
H811 H 0.94608 0.19843 0.22445 0.0
C812 C 0.85527 0.27852 0.14199 0.0
C813 C 0.87981 0.28416 0.12099 0.0
C814 C 0.86695 0.25463 0.15678 0.0
C815 C 0.9031 0.23574 0.15074 0.0
C816 C 0.92699 0.24104 0.1295 0.0
C817 C 0.91557 0.26503 0.11482 0.0
C818 C 0.94564 0.16132 0.17282 0.0
C819 C 0.95327 0.16655 0.19682 0.0
C820 C 0.92813 0.18353 0.15797 0.0
C821 C 0.91734 0.21127 0.16689 0.0
C822 C 0.9227 0.21596 0.19117 0.0
C823 C 0.94053 0.1938 0.206 0.0
H824 H 0.75356 0.73652 0.66187 0.0
H825 H 0.87882 0.69233 0.64217 0.0
H826 H 0.79846 0.77376 0.68191 0.0
H827 H 0.92373 0.72995 0.6617 0.0
H828 H 0.98541 0.78451 0.72123 0.0
H829 H 0.94141 0.74712 0.70082 0.0
H830 H 0.85022 0.81451 0.6732 0.0
H831 H 0.89423 0.8518 0.69382 0.0
C832 C 0.79068 0.73481 0.66172 0.0
C833 C 0.81258 0.71142 0.65042 0.0
C834 C 0.81644 0.75628 0.67308 0.0
C835 C 0.86473 0.75491 0.67336 0.0
C836 C 0.88659 0.73148 0.66208 0.0
C837 C 0.86083 0.70998 0.65077 0.0
C838 C 0.95624 0.79131 0.71058 0.0
C839 C 0.94301 0.82099 0.70916 0.0
C840 C 0.93103 0.76992 0.69887 0.0
C841 C 0.89215 0.77777 0.68542 0.0
C842 C 0.87953 0.80762 0.68369 0.0
C843 C 0.90479 0.829 0.6954 0.0
H844 H 0.62385 0.81248 0.14387 0.0
H845 H 0.7503 0.76814 0.16266 0.0
H846 H 0.58023 0.77472 0.16535 0.0
H847 H 0.70684 0.73087 0.18478 0.0
H848 H 0.61361 0.65169 0.19852 0.0
H849 H 0.65677 0.69029 0.17786 0.0
H850 H 0.5623 0.75533 0.204 0.0
H851 H 0.51884 0.71642 0.22446 0.0
C852 C 0.64239 0.79483 0.15279 0.0
C853 C 0.69056 0.79327 0.15144 0.0
C854 C 0.61737 0.77323 0.16523 0.0
C855 C 0.63993 0.74962 0.17675 0.0
C856 C 0.68822 0.74841 0.17576 0.0
C857 C 0.7132 0.7699 0.1632 0.0
C858 C 0.60218 0.67426 0.19988 0.0
C859 C 0.56299 0.68109 0.21314 0.0
C860 C 0.62702 0.69644 0.18812 0.0
C861 C 0.61324 0.72603 0.18932 0.0
C862 C 0.57362 0.73277 0.20242 0.0
C863 C 0.54867 0.71051 0.21415 0.0
H864 H 0.34888 0.76846 0.38809 0.0
H865 H 0.36727 0.82561 0.32713 0.0
H866 H 0.38932 0.72919 0.3682 0.0
H867 H 0.40334 0.78591 0.30608 0.0
H868 H 0.49629 0.71936 0.27605 0.0
H869 H 0.4653 0.75847 0.29985 0.0
H870 H 0.38917 0.69364 0.34138 0.0
H871 H 0.42495 0.65467 0.319 0.0
C872 C 0.36105 0.77234 0.37022 0.0
C873 C 0.35531 0.79995 0.35912 0.0
C874 C 0.38397 0.74976 0.35863 0.0
C875 C 0.40018 0.75398 0.33532 0.0
C876 C 0.39313 0.7817 0.32419 0.0
C877 C 0.37183 0.80452 0.33612 0.0
C878 C 0.47366 0.7137 0.29067 0.0
C879 C 0.46308 0.68426 0.29593 0.0
C880 C 0.4551 0.73611 0.30414 0.0
C881 C 0.42358 0.72968 0.32249 0.0
C882 C 0.41372 0.69984 0.32782 0.0
C883 C 0.43398 0.67736 0.31494 0.0
H884 H 0.22537 0.73451 0.86273 0.0
H885 H 0.12088 0.67241 0.84253 0.0
H886 H 0.18451 0.77374 0.84128 0.0
H887 H 0.08025 0.71162 0.82109 0.0
H888 H 0.05779 0.78163 0.76162 0.0
H889 H 0.09608 0.74296 0.78473 0.0
H890 H 0.10836 0.8016 0.84327 0.0
H891 H 0.06982 0.84051 0.82 0.0
C892 C 0.19371 0.72922 0.85373 0.0
C893 C 0.17645 0.70031 0.85426 0.0
C894 C 0.17018 0.75173 0.8416 0.0
C895 C 0.12922 0.74572 0.82952 0.0
C896 C 0.11194 0.71684 0.83009 0.0
C897 C 0.13515 0.69442 0.84244 0.0
C898 C 0.06867 0.78627 0.77943 0.0
C899 C 0.06115 0.81409 0.78901 0.0
C900 C 0.0903 0.76407 0.7927 0.0
C901 C 0.10524 0.76927 0.81579 0.0
C902 C 0.0975 0.79708 0.82544 0.0
C903 C 0.07525 0.81923 0.81223 0.0
loop_
_geom_bond_atom_site_label_1
_geom_bond_atom_site_label_2
_geom_bond_distance
_geom_bond_site_symmetry_2
_ccdc_geom_bond_type
O0 Cd1 2.300 . S
O0 C7 1.275 . S
Cd1 O0 2.300 . S
Cd1 O9 2.381 . S
Cd1 O10 2.378 . S
O2 Cd3 2.385 . S
O2 C7 1.255 . S
Cd3 O2 2.385 . S
Cd3 O4 2.317 . S
O4 Cd3 2.317 . S
O4 C5 1.232 . S
C5 O4 1.232 . S
C5 O6 1.218 . S
O6 C5 1.218 . S
C7 O0 1.275 . S
C7 O2 1.255 . S
C8 O9 1.258 . S
C8 O10 1.256 . S
O9 Cd1 2.381 . S
O9 C8 1.258 . S
O10 Cd1 2.378 . S
O10 C8 1.256 . S
O11 Cd12 2.300 . S
O11 C18 1.275 . S
Cd12 O11 2.300 . S
Cd12 O20 2.381 . S
Cd12 O21 2.378 . S
O13 Cd14 2.385 . S
O13 C18 1.255 . S
Cd14 O13 2.385 . S
Cd14 O15 2.317 . S
O15 Cd14 2.317 . S
O15 C16 1.232 . S
C16 O15 1.232 . S
C16 O17 1.218 . S
O17 C16 1.218 . S
C18 O11 1.275 . S
C18 O13 1.255 . S
C19 O20 1.258 . S
C19 O21 1.256 . S
O20 Cd12 2.381 . S
O20 C19 1.258 . S
O21 Cd12 2.378 . S
O21 C19 1.256 . S
O22 Cd23 2.300 . S
O22 C29 1.275 . S
Cd23 O22 2.300 . S
Cd23 O31 2.381 . S
Cd23 O32 2.378 . S
O24 Cd25 2.385 . S
O24 C29 1.255 . S
Cd25 O24 2.385 . S
Cd25 O26 2.317 . S
O26 Cd25 2.317 . S
O26 C27 1.232 . S
C27 O26 1.232 . S
C27 O28 1.218 . S
O28 C27 1.218 . S
C29 O22 1.275 . S
C29 O24 1.255 . S
C30 O31 1.258 . S
C30 O32 1.256 . S
O31 Cd23 2.381 . S
O31 C30 1.258 . S
O32 Cd23 2.378 . S
O32 C30 1.256 . S
O33 Cd34 2.300 . S
O33 C40 1.275 . S
Cd34 O33 2.300 . S
Cd34 O42 2.381 . S
Cd34 O43 2.378 . S
O35 Cd36 2.385 . S
O35 C40 1.255 . S
Cd36 O35 2.385 . S
Cd36 O37 2.317 . S
O37 Cd36 2.317 . S
O37 C38 1.232 . S
C38 O37 1.232 . S
C38 O39 1.218 . S
O39 C38 1.218 . S
C40 O33 1.275 . S
C40 O35 1.255 . S
C41 O42 1.258 . S
C41 O43 1.256 . S
O42 Cd34 2.381 . S
O42 C41 1.258 . S
O43 Cd34 2.378 . S
O43 C41 1.256 . S
O44 Cd45 2.300 . S
O44 C51 1.275 . S
Cd45 O44 2.300 . S
Cd45 O53 2.381 . S
Cd45 O54 2.378 . S
O46 Cd47 2.385 . S
O46 C51 1.255 . S
Cd47 O46 2.385 . S
Cd47 O48 2.317 . S
O48 Cd47 2.317 . S
O48 C49 1.232 . S
C49 O48 1.232 . S
C49 O50 1.218 . S
O50 C49 1.218 . S
C51 O44 1.275 . S
C51 O46 1.255 . S
C52 O53 1.258 . S
C52 O54 1.256 . S
O53 Cd45 2.381 . S
O53 C52 1.258 . S
O54 Cd45 2.378 . S
O54 C52 1.256 . S
O55 Cd56 2.300 . S
O55 C62 1.275 . S
Cd56 O55 2.300 . S
Cd56 O64 2.381 . S
Cd56 O65 2.378 . S
O57 Cd58 2.385 . S
O57 C62 1.255 . S
Cd58 O57 2.385 . S
Cd58 O59 2.317 . S
O59 Cd58 2.317 . S
O59 C60 1.232 . S
C60 O59 1.232 . S
C60 O61 1.218 . S
O61 C60 1.218 . S
C62 O55 1.275 . S
C62 O57 1.255 . S
C63 O64 1.258 . S
C63 O65 1.256 . S
O64 Cd56 2.381 . S
O64 C63 1.258 . S
O65 Cd56 2.378 . S
O65 C63 1.256 . S
O66 Cd67 2.300 . S
O66 C73 1.275 . S
Cd67 O66 2.300 . S
Cd67 O75 2.381 . S
Cd67 O76 2.378 . S
O68 Cd69 2.385 . S
O68 C73 1.255 . S
Cd69 O68 2.385 . S
Cd69 O70 2.317 . S
O70 Cd69 2.317 . S
O70 C71 1.232 . S
C71 O70 1.232 . S
C71 O72 1.218 . S
O72 C71 1.218 . S
C73 O66 1.275 . S
C73 O68 1.255 . S
C74 O75 1.258 . S
C74 O76 1.256 . S
O75 Cd67 2.381 . S
O75 C74 1.258 . S
O76 Cd67 2.378 . S
O76 C74 1.256 . S
O77 Cd78 2.300 . S
O77 C84 1.275 . S
Cd78 O77 2.300 . S
Cd78 O86 2.381 . S
Cd78 O87 2.378 . S
O79 Cd80 2.385 . S
O79 C84 1.255 . S
Cd80 O79 2.385 . S
Cd80 O81 2.317 . S
O81 Cd80 2.317 . S
O81 C82 1.232 . S
C82 O81 1.232 . S
C82 O83 1.218 . S
O83 C82 1.218 . S
C84 O77 1.275 . S
C84 O79 1.255 . S
C85 O86 1.258 . S
C85 O87 1.256 . S
O86 Cd78 2.381 . S
O86 C85 1.258 . S
O87 Cd78 2.378 . S
O87 C85 1.256 . S
Eu88 N117 2.600 . S
Eu88 N123 2.562 . S
Eu88 O132 2.462 . S
Eu88 O133 2.373 . S
Eu88 O135 2.432 . S
Eu88 O136 2.291 . S
Eu88 O140 2.335 . S
Eu88 O143 2.372 . S
Eu88 C152 2.787 . S
C89 N90 1.365 . S
C89 C92 1.405 . S
C89 C96 1.448 . S
N90 C89 1.365 . S
N90 C93 1.319 . S
N90 Eu99 2.600 . S
C91 C93 1.397 . S
C91 C94 1.367 . S
C91 H111 0.931 . S
C92 C89 1.405 . S
C92 C94 1.403 . S
C92 C98 1.439 . S
C93 N90 1.319 . S
C93 C91 1.397 . S
C93 H104 0.930 . S
C94 C91 1.367 . S
C94 C92 1.403 . S
C94 H115 0.929 . S
C95 C96 1.430 . S
C95 C97 1.387 . S
C95 C101 1.404 . S
C96 C89 1.448 . S
C96 C95 1.430 . S
C96 N100 1.351 . S
C97 C95 1.387 . S
C97 C98 1.374 . S
C97 H112 0.931 . S
C98 C92 1.439 . S
C98 C97 1.374 . S
C98 H113 0.931 . S
Eu99 N90 2.600 . S
Eu99 N100 2.562 . S
Eu99 O134 2.335 1_655 S
Eu99 O137 2.372 . S
Eu99 O138 2.462 . S
Eu99 O139 2.373 . S
Eu99 O141 2.432 . S
Eu99 O142 2.291 1_655 S
Eu99 C163 2.787 . S
N100 C96 1.351 . S
N100 Eu99 2.562 . S
N100 C102 1.325 . S
C101 C95 1.404 . S
C101 C103 1.366 . S
C101 H109 0.930 1_545 S
C102 N100 1.325 . S
C102 C103 1.416 . S
C102 H108 0.929 . S
C103 C101 1.366 . S
C103 C102 1.416 . S
C103 H105 0.930 1_545 S
H104 C93 0.930 . S
H105 C103 0.930 1_565 S
H106 C121 0.930 . S
H107 C128 0.930 . S
H108 C102 0.929 . S
H109 C101 0.930 1_565 S
H110 C124 0.929 . S
H111 C91 0.931 . S
H112 C97 0.931 . S
H113 C98 0.931 . S
H114 C119 0.931 . S
H115 C94 0.929 . S
H116 C127 0.930 . S
N117 Eu88 2.600 . S
N117 C118 1.365 . S
N117 C121 1.319 . S
C118 N117 1.365 . S
C118 C120 1.405 . S
C118 C126 1.448 . S
C119 H114 0.931 . S
C119 C121 1.397 . S
C119 C122 1.367 . S
C120 C118 1.405 . S
C120 C122 1.403 . S
C120 C153 1.439 . S
C121 H106 0.930 . S
C121 N117 1.319 . S
C121 C119 1.397 . S
C122 C119 1.367 . S
C122 C120 1.403 . S
C122 H129 0.929 . S
N123 Eu88 2.562 . S
N123 C124 1.325 . S
N123 C126 1.351 . S
C124 H110 0.929 . S
C124 N123 1.325 . S
C124 C128 1.416 . S
C125 C126 1.430 . S
C125 C127 1.404 . S
C125 C154 1.387 . S
C126 C118 1.448 . S
C126 N123 1.351 . S
C126 C125 1.430 . S
C127 H116 0.930 . S
C127 C125 1.404 . S
C127 C128 1.366 . S
C128 H107 0.930 . S
C128 C124 1.416 . S
C128 C127 1.366 . S
H129 C122 0.929 . S
H130 C153 0.931 . S
H131 C154 0.931 . S
O132 Eu88 2.462 . S
O132 C152 1.252 . S
O133 Eu88 2.373 . S
O133 C144 1.249 . S
O134 Eu99 2.335 1_455 S
O134 C144 1.264 . S
O135 Eu88 2.432 . S
O135 C152 1.268 . S
O136 Eu88 2.291 . S
O136 C151 1.255 1_455 S
O137 Eu99 2.372 . S
O137 C151 1.257 . S
O138 Eu99 2.462 . S
O138 C163 1.252 . S
O139 Eu99 2.373 . S
O139 C155 1.249 . S
O140 Eu88 2.335 . S
O140 C155 1.264 1_455 S
O141 Eu99 2.432 . S
O141 C163 1.268 . S
O142 Eu99 2.291 1_455 S
O142 C162 1.255 . S
O143 Eu88 2.372 . S
O143 C162 1.257 . S
C144 O133 1.249 . S
C144 O134 1.264 . S
C145 C148 1.382 . S
C145 C150 1.390 . S
C145 C152 1.506 . S
C146 C147 1.398 . S
C146 C150 1.392 . S
C147 C146 1.398 . S
C147 C149 1.372 . S
C147 H164 0.931 . S
C148 C145 1.382 . S
C148 C149 1.390 . S
C148 H165 0.931 . S
C149 C147 1.372 . S
C149 C148 1.390 . S
C149 H166 0.929 . S
C150 C145 1.390 . S
C150 C146 1.392 . S
C150 H167 0.930 . S
C151 O136 1.255 1_655 S
C151 O137 1.257 . S
C152 Eu88 2.787 . S
C152 O132 1.252 . S
C152 O135 1.268 . S
C152 C145 1.506 . S
C153 C120 1.439 . S
C153 H130 0.931 . S
C153 C154 1.374 . S
C154 C125 1.387 . S
C154 H131 0.931 . S
C154 C153 1.374 . S
C155 O139 1.249 . S
C155 O140 1.264 1_655 S
C156 C159 1.382 . S
C156 C160 1.390 . S
C156 C163 1.506 . S
C157 C158 1.398 . S
C157 C160 1.392 . S
C158 C157 1.398 . S
C158 C161 1.372 . S
C158 H168 0.931 . S
C159 C156 1.382 . S
C159 C161 1.390 . S
C159 H169 0.931 . S
C160 C156 1.390 . S
C160 C157 1.392 . S
C160 H170 0.930 . S
C161 C158 1.372 . S
C161 C159 1.390 . S
C161 H171 0.929 . S
C162 O142 1.255 . S
C162 O143 1.257 . S
C163 Eu99 2.787 . S
C163 O138 1.252 . S
C163 O141 1.268 . S
C163 C156 1.506 . S
H164 C147 0.931 . S
H165 C148 0.931 . S
H166 C149 0.929 . S
H167 C150 0.930 . S
H168 C158 0.931 . S
H169 C159 0.931 . S
H170 C160 0.930 . S
H171 C161 0.929 . S
Eu172 N201 2.600 . S
Eu172 N207 2.562 . S
Eu172 O216 2.462 . S
Eu172 O217 2.373 . S
Eu172 O219 2.432 . S
Eu172 O220 2.291 . S
Eu172 O224 2.335 . S
Eu172 O227 2.372 . S
Eu172 C236 2.787 . S
C173 N174 1.365 . S
C173 C176 1.405 . S
C173 C180 1.448 . S
N174 C173 1.365 . S
N174 C177 1.319 . S
N174 Eu183 2.600 . S
C175 C177 1.397 . S
C175 C178 1.367 . S
C175 H195 0.931 . S
C176 C173 1.405 . S
C176 C178 1.403 . S
C176 C182 1.439 . S
C177 N174 1.319 . S
C177 C175 1.397 . S
C177 H188 0.930 . S
C178 C175 1.367 . S
C178 C176 1.403 . S
C178 H199 0.929 . S
C179 C180 1.430 . S
C179 C181 1.387 . S
C179 C185 1.404 . S
C180 C173 1.448 . S
C180 C179 1.430 . S
C180 N184 1.351 . S
C181 C179 1.387 . S
C181 C182 1.374 . S
C181 H196 0.931 . S
C182 C176 1.439 . S
C182 C181 1.374 . S
C182 H197 0.931 . S
Eu183 N174 2.600 . S
Eu183 N184 2.562 . S
Eu183 O218 2.335 . S
Eu183 O221 2.372 . S
Eu183 O222 2.462 . S
Eu183 O223 2.373 . S
Eu183 O225 2.432 . S
Eu183 O226 2.291 . S
Eu183 C247 2.787 . S
N184 C180 1.351 . S
N184 Eu183 2.562 . S
N184 C186 1.325 . S
C185 C179 1.404 . S
C185 C187 1.366 . S
C185 H193 0.930 . S
C186 N184 1.325 . S
C186 C187 1.416 . S
C186 H192 0.929 . S
C187 C185 1.366 . S
C187 C186 1.416 . S
C187 H189 0.930 . S
H188 C177 0.930 . S
H189 C187 0.930 . S
H190 C205 0.930 . S
H191 C212 0.930 . S
H192 C186 0.929 . S
H193 C185 0.930 . S
H194 C208 0.929 . S
H195 C175 0.931 . S
H196 C181 0.931 . S
H197 C182 0.931 . S
H198 C203 0.931 . S
H199 C178 0.929 . S
H200 C211 0.930 . S
N201 Eu172 2.600 . S
N201 C202 1.365 . S
N201 C205 1.319 . S
C202 N201 1.365 . S
C202 C204 1.405 . S
C202 C210 1.448 . S
C203 H198 0.931 . S
C203 C205 1.397 . S
C203 C206 1.367 . S
C204 C202 1.405 . S
C204 C206 1.403 . S
C204 C237 1.439 . S
C205 H190 0.930 . S
C205 N201 1.319 . S
C205 C203 1.397 . S
C206 C203 1.367 . S
C206 C204 1.403 . S
C206 H213 0.929 . S
N207 Eu172 2.562 . S
N207 C208 1.325 . S
N207 C210 1.351 . S
C208 H194 0.929 . S
C208 N207 1.325 . S
C208 C212 1.416 . S
C209 C210 1.430 . S
C209 C211 1.404 . S
C209 C238 1.387 . S
C210 C202 1.448 . S
C210 N207 1.351 . S
C210 C209 1.430 . S
C211 H200 0.930 . S
C211 C209 1.404 . S
C211 C212 1.366 . S
C212 H191 0.930 . S
C212 C208 1.416 . S
C212 C211 1.366 . S
H213 C206 0.929 . S
H214 C237 0.931 . S
H215 C238 0.931 . S
O216 Eu172 2.462 . S
O216 C236 1.252 . S
O217 Eu172 2.373 . S
O217 C228 1.249 . S
O218 Eu183 2.335 . S
O218 C228 1.264 . S
O219 Eu172 2.432 . S
O219 C236 1.268 . S
O220 Eu172 2.291 . S
O220 C235 1.255 . S
O221 Eu183 2.372 . S
O221 C235 1.257 . S
O222 Eu183 2.462 . S
O222 C247 1.252 . S
O223 Eu183 2.373 . S
O223 C239 1.249 . S
O224 Eu172 2.335 . S
O224 C239 1.264 . S
O225 Eu183 2.432 . S
O225 C247 1.268 . S
O226 Eu183 2.291 . S
O226 C246 1.255 . S
O227 Eu172 2.372 . S
O227 C246 1.257 . S
C228 O217 1.249 . S
C228 O218 1.264 . S
C229 C232 1.382 . S
C229 C234 1.390 . S
C229 C236 1.506 . S
C230 C231 1.398 . S
C230 C234 1.392 . S
C231 C230 1.398 . S
C231 C233 1.372 . S
C231 H248 0.931 . S
C232 C229 1.382 . S
C232 C233 1.390 . S
C232 H249 0.931 . S
C233 C231 1.372 . S
C233 C232 1.390 . S
C233 H250 0.929 . S
C234 C229 1.390 . S
C234 C230 1.392 . S
C234 H251 0.930 . S
C235 O220 1.255 . S
C235 O221 1.257 . S
C236 Eu172 2.787 . S
C236 O216 1.252 . S
C236 O219 1.268 . S
C236 C229 1.506 . S
C237 C204 1.439 . S
C237 H214 0.931 . S
C237 C238 1.374 . S
C238 C209 1.387 . S
C238 H215 0.931 . S
C238 C237 1.374 . S
C239 O223 1.249 . S
C239 O224 1.264 . S
C240 C243 1.382 . S
C240 C244 1.390 . S
C240 C247 1.506 . S
C241 C242 1.398 . S
C241 C244 1.392 . S
C242 C241 1.398 . S
C242 C245 1.372 . S
C242 H252 0.931 . S
C243 C240 1.382 . S
C243 C245 1.390 . S
C243 H253 0.931 . S
C244 C240 1.390 . S
C244 C241 1.392 . S
C244 H254 0.930 . S
C245 C242 1.372 . S
C245 C243 1.390 . S
C245 H255 0.929 . S
C246 O226 1.255 . S
C246 O227 1.257 . S
C247 Eu183 2.787 . S
C247 O222 1.252 . S
C247 O225 1.268 . S
C247 C240 1.506 . S
H248 C231 0.931 . S
H249 C232 0.931 . S
H250 C233 0.929 . S
H251 C234 0.930 . S
H252 C242 0.931 . S
H253 C243 0.931 . S
H254 C244 0.930 . S
H255 C245 0.929 . S
Eu256 N285 2.600 . S
Eu256 N291 2.562 . S
Eu256 O300 2.462 . S
Eu256 O301 2.373 . S
Eu256 O303 2.432 . S
Eu256 O304 2.291 . S
Eu256 O308 2.346 . S
Eu256 O311 2.372 . S
Eu256 C320 2.787 . S
C257 N258 1.365 . S
C257 C260 1.405 . S
C257 C264 1.448 . S
N258 C257 1.365 . S
N258 C261 1.319 . S
N258 Eu267 2.600 . S
C259 C261 1.397 . S
C259 C262 1.367 . S
C259 H279 0.931 . S
C260 C257 1.405 . S
C260 C262 1.403 . S
C260 C266 1.439 . S
C261 N258 1.319 . S
C261 C259 1.397 . S
C261 H272 0.930 . S
C262 C259 1.367 . S
C262 C260 1.403 . S
C262 H283 0.929 . S
C263 C264 1.430 . S
C263 C265 1.387 . S
C263 C269 1.404 . S
C264 C257 1.448 . S
C264 C263 1.430 . S
C264 N268 1.351 . S
C265 C263 1.387 . S
C265 C266 1.374 . S
C265 H280 0.931 . S
C266 C260 1.439 . S
C266 C265 1.374 . S
C266 H281 0.931 . S
Eu267 N258 2.600 . S
Eu267 N268 2.562 . S
Eu267 O302 2.335 1_655 S
Eu267 O305 2.372 . S
Eu267 O306 2.462 . S
Eu267 O307 2.373 . S
Eu267 O309 2.432 . S
Eu267 O310 2.291 1_655 S
Eu267 C331 2.787 . S
N268 C264 1.351 . S
N268 Eu267 2.562 . S
N268 C270 1.325 . S
C269 C263 1.404 . S
C269 C271 1.366 . S
C269 H277 0.930 . S
C270 N268 1.325 . S
C270 C271 1.416 . S
C270 H276 0.929 . S
C271 C269 1.366 . S
C271 C270 1.416 . S
C271 H273 0.930 . S
H272 C261 0.930 . S
H273 C271 0.930 . S
H274 C289 0.930 . S
H275 C296 0.930 1_545 S
H276 C270 0.929 . S
H277 C269 0.930 . S
H278 C292 0.929 . S
H279 C259 0.931 . S
H280 C265 0.931 . S
H281 C266 0.931 . S
H282 C287 0.931 . S
H283 C262 0.929 . S
H284 C295 0.930 1_545 S
N285 Eu256 2.600 . S
N285 C286 1.365 . S
N285 C289 1.319 . S
C286 N285 1.365 . S
C286 C288 1.405 . S
C286 C294 1.448 . S
C287 H282 0.931 . S
C287 C289 1.397 . S
C287 C290 1.367 . S
C288 C286 1.405 . S
C288 C290 1.403 . S
C288 C321 1.439 . S
C289 H274 0.930 . S
C289 N285 1.319 . S
C289 C287 1.397 . S
C290 C287 1.367 . S
C290 C288 1.403 . S
C290 H297 0.929 . S
N291 Eu256 2.562 . S
N291 C292 1.325 . S
N291 C294 1.351 . S
C292 H278 0.929 . S
C292 N291 1.325 . S
C292 C296 1.416 . S
C293 C294 1.430 . S
C293 C295 1.404 . S
C293 C322 1.387 . S
C294 C286 1.448 . S
C294 N291 1.351 . S
C294 C293 1.430 . S
C295 H284 0.930 1_565 S
C295 C293 1.404 . S
C295 C296 1.366 . S
C296 H275 0.930 1_565 S
C296 C292 1.416 . S
C296 C295 1.366 . S
H297 C290 0.929 . S
H298 C321 0.931 . S
H299 C322 0.931 . S
O300 Eu256 2.462 . S
O300 C320 1.252 . S
O301 Eu256 2.373 . S
O301 C312 1.249 . S
O302 Eu267 2.335 1_455 S
O302 C312 1.264 . S
O303 Eu256 2.432 . S
O303 C320 1.268 . S
O304 Eu256 2.291 . S
O304 C319 1.255 1_455 S
O305 Eu267 2.372 . S
O305 C319 1.257 . S
O306 Eu267 2.462 . S
O306 C331 1.252 . S
O307 Eu267 2.373 . S
O307 C323 1.249 . S
O308 Eu256 2.346 . S
O308 C323 1.250 1_455 S
O309 Eu267 2.432 . S
O309 C331 1.268 . S
O310 Eu267 2.291 1_455 S
O310 C330 1.255 . S
O311 Eu256 2.372 . S
O311 C330 1.257 . S
C312 O301 1.249 . S
C312 O302 1.264 . S
C313 C316 1.382 . S
C313 C318 1.390 . S
C313 C320 1.506 . S
C314 C315 1.398 . S
C314 C318 1.392 . S
C315 C314 1.398 . S
C315 C317 1.372 . S
C315 H332 0.931 . S
C316 C313 1.382 . S
C316 C317 1.390 . S
C316 H333 0.931 . S
C317 C315 1.372 . S
C317 C316 1.390 . S
C317 H334 0.929 . S
C318 C313 1.390 . S
C318 C314 1.392 . S
C318 H335 0.930 . S
C319 O304 1.255 1_655 S
C319 O305 1.257 . S
C320 Eu256 2.787 . S
C320 O300 1.252 . S
C320 O303 1.268 . S
C320 C313 1.506 . S
C321 C288 1.439 . S
C321 H298 0.931 . S
C321 C322 1.374 . S
C322 C293 1.387 . S
C322 H299 0.931 . S
C322 C321 1.374 . S
C323 O307 1.249 . S
C323 O308 1.250 1_655 S
C324 C327 1.382 . S
C324 C328 1.390 . S
C324 C331 1.506 . S
C325 C326 1.398 . S
C325 C328 1.392 . S
C326 C325 1.398 . S
C326 C329 1.372 . S
C326 H336 0.931 . S
C327 C324 1.382 . S
C327 C329 1.390 . S
C327 H337 0.931 . S
C328 C324 1.390 . S
C328 C325 1.392 . S
C328 H338 0.930 . S
C329 C326 1.372 . S
C329 C327 1.390 . S
C329 H339 0.929 . S
C330 O310 1.255 . S
C330 O311 1.257 . S
C331 Eu267 2.787 . S
C331 O306 1.252 . S
C331 O309 1.268 . S
C331 C324 1.506 . S
H332 C315 0.931 . S
H333 C316 0.931 . S
H334 C317 0.929 . S
H335 C318 0.930 . S
H336 C326 0.931 . S
H337 C327 0.931 . S
H338 C328 0.930 . S
H339 C329 0.929 . S
Eu340 N369 2.600 . S
Eu340 N375 2.562 . S
Eu340 O384 2.462 . S
Eu340 O385 2.373 . S
Eu340 O387 2.432 . S
Eu340 O388 2.291 . S
Eu340 O392 2.335 . S
Eu340 O395 2.372 . S
Eu340 C404 2.787 . S
C341 N342 1.365 . S
C341 C344 1.405 . S
C341 C348 1.448 . S
N342 C341 1.365 . S
N342 C345 1.319 . S
N342 Eu351 2.600 . S
C343 C345 1.397 . S
C343 C346 1.367 . S
C343 H363 0.931 . S
C344 C341 1.405 . S
C344 C346 1.403 . S
C344 C350 1.439 . S
C345 N342 1.319 . S
C345 C343 1.397 . S
C345 H356 0.930 . S
C346 C343 1.367 . S
C346 C344 1.403 . S
C346 H367 0.929 . S
C347 C348 1.430 . S
C347 C349 1.387 . S
C347 C353 1.404 . S
C348 C341 1.448 . S
C348 C347 1.430 . S
C348 N352 1.351 . S
C349 C347 1.387 . S
C349 C350 1.374 . S
C349 H364 0.931 . S
C350 C344 1.439 . S
C350 C349 1.374 . S
C350 H365 0.931 . S
Eu351 N342 2.600 . S
Eu351 N352 2.562 . S
Eu351 O386 2.335 . S
Eu351 O389 2.372 . S
Eu351 O390 2.462 . S
Eu351 O391 2.373 . S
Eu351 O393 2.432 . S
Eu351 O394 2.291 . S
Eu351 C415 2.787 . S
N352 C348 1.351 . S
N352 Eu351 2.562 . S
N352 C354 1.325 . S
C353 C347 1.404 . S
C353 C355 1.366 . S
C353 H361 0.930 . S
C354 N352 1.325 . S
C354 C355 1.416 . S
C354 H360 0.929 . S
C355 C353 1.366 . S
C355 C354 1.416 . S
C355 H357 0.930 . S
H356 C345 0.930 . S
H357 C355 0.930 . S
H358 C373 0.930 . S
H359 C380 0.930 . S
H360 C354 0.929 . S
H361 C353 0.930 . S
H362 C376 0.929 . S
H363 C343 0.931 . S
H364 C349 0.931 . S
H365 C350 0.931 . S
H366 C371 0.931 . S
H367 C346 0.929 . S
H368 C379 0.930 . S
N369 Eu340 2.600 . S
N369 C370 1.365 . S
N369 C373 1.319 . S
C370 N369 1.365 . S
C370 C372 1.405 . S
C370 C378 1.448 . S
C371 H366 0.931 . S
C371 C373 1.397 . S
C371 C374 1.367 . S
C372 C370 1.405 . S
C372 C374 1.403 . S
C372 C405 1.439 . S
C373 H358 0.930 . S
C373 N369 1.319 . S
C373 C371 1.397 . S
C374 C371 1.367 . S
C374 C372 1.403 . S
C374 H381 0.929 . S
N375 Eu340 2.562 . S
N375 C376 1.325 . S
N375 C378 1.351 . S
C376 H362 0.929 . S
C376 N375 1.325 . S
C376 C380 1.416 . S
C377 C378 1.430 . S
C377 C379 1.404 . S
C377 C406 1.387 . S
C378 C370 1.448 . S
C378 N375 1.351 . S
C378 C377 1.430 . S
C379 H368 0.930 . S
C379 C377 1.404 . S
C379 C380 1.366 . S
C380 H359 0.930 . S
C380 C376 1.416 . S
C380 C379 1.366 . S
H381 C374 0.929 . S
H382 C405 0.931 . S
H383 C406 0.931 . S
O384 Eu340 2.462 . S
O384 C404 1.252 . S
O385 Eu340 2.373 . S
O385 C396 1.249 . S
O386 Eu351 2.335 . S
O386 C396 1.264 . S
O387 Eu340 2.432 . S
O387 C404 1.268 . S
O388 Eu340 2.291 . S
O388 C403 1.255 . S
O389 Eu351 2.372 . S
O389 C403 1.257 . S
O390 Eu351 2.462 . S
O390 C415 1.252 . S
O391 Eu351 2.373 . S
O391 C407 1.249 . S
O392 Eu340 2.335 . S
O392 C407 1.264 . S
O393 Eu351 2.432 . S
O393 C415 1.268 . S
O394 Eu351 2.291 . S
O394 C414 1.255 . S
O395 Eu340 2.372 . S
O395 C414 1.257 . S
C396 O385 1.249 . S
C396 O386 1.264 . S
C397 C400 1.382 . S
C397 C402 1.390 . S
C397 C404 1.506 . S
C398 C399 1.398 . S
C398 C402 1.392 . S
C399 C398 1.398 . S
C399 C401 1.372 . S
C399 H416 0.931 . S
C400 C397 1.382 . S
C400 C401 1.390 . S
C400 H417 0.931 . S
C401 C399 1.372 . S
C401 C400 1.390 . S
C401 H418 0.929 . S
C402 C397 1.390 . S
C402 C398 1.392 . S
C402 H419 0.930 . S
C403 O388 1.255 . S
C403 O389 1.257 . S
C404 Eu340 2.787 . S
C404 O384 1.252 . S
C404 O387 1.268 . S
C404 C397 1.506 . S
C405 C372 1.439 . S
C405 H382 0.931 . S
C405 C406 1.374 . S
C406 C377 1.387 . S
C406 H383 0.931 . S
C406 C405 1.374 . S
C407 O391 1.249 . S
C407 O392 1.264 . S
C408 C411 1.382 . S
C408 C412 1.390 . S
C408 C415 1.506 . S
C409 C410 1.398 . S
C409 C412 1.392 . S
C410 C409 1.398 . S
C410 C413 1.372 . S
C410 H420 0.931 . S
C411 C408 1.382 . S
C411 C413 1.390 . S
C411 H421 0.931 . S
C412 C408 1.390 . S
C412 C409 1.392 . S
C412 H422 0.930 . S
C413 C410 1.372 . S
C413 C411 1.390 . S
C413 H423 0.929 . S
C414 O394 1.255 . S
C414 O395 1.257 . S
C415 Eu351 2.787 . S
C415 O390 1.252 . S
C415 O393 1.268 . S
C415 C408 1.506 . S
H416 C399 0.931 . S
H417 C400 0.931 . S
H418 C401 0.929 . S
H419 C402 0.930 . S
H420 C410 0.931 . S
H421 C411 0.931 . S
H422 C412 0.930 . S
H423 C413 0.929 . S
H424 C432 0.950 . S
H425 C437 0.950 . S
H426 C434 0.950 . S
H427 C436 0.950 . S
H428 C438 0.950 . S
H429 C440 0.950 . S
H430 C442 0.950 . S
H431 C443 0.950 . S
C432 H424 0.950 . S
C432 C433 1.386 . S
C432 C434 1.391 . S
C433 C432 1.386 . S
C433 C437 1.393 . S
C434 H426 0.950 . S
C434 C432 1.391 . S
C434 C435 1.400 . S
C435 C434 1.400 . S
C435 C436 1.398 . S
C435 C441 1.491 . S
C436 H427 0.950 . S
C436 C435 1.398 . S
C436 C437 1.391 . S
C437 H425 0.950 . S
C437 C433 1.393 . S
C437 C436 1.391 . S
C438 H428 0.950 . S
C438 C439 1.386 . S
C438 C440 1.391 1_545 S
C439 C438 1.386 . S
C439 C443 1.393 . S
C440 H429 0.950 . S
C440 C438 1.391 1_565 S
C440 C441 1.400 . S
C441 C435 1.491 . S
C441 C440 1.400 . S
C441 C442 1.398 1_565 S
C442 H430 0.950 . S
C442 C441 1.398 1_545 S
C442 C443 1.391 . S
C443 H431 0.950 . S
C443 C439 1.393 . S
C443 C442 1.391 . S
H444 C452 0.950 . S
H445 C457 0.950 . S
H446 C454 0.950 . S
H447 C456 0.950 . S
H448 C458 0.950 . S
H449 C460 0.950 . S
H450 C462 0.950 . S
H451 C463 0.950 . S
C452 H444 0.950 . S
C452 C453 1.386 . S
C452 C454 1.391 . S
C453 C452 1.386 . S
C453 C457 1.393 . S
C454 H446 0.950 . S
C454 C452 1.391 . S
C454 C455 1.400 . S
C455 C454 1.400 . S
C455 C456 1.398 . S
C455 C461 1.491 . S
C456 H447 0.950 . S
C456 C455 1.398 . S
C456 C457 1.391 . S
C457 H445 0.950 . S
C457 C453 1.393 . S
C457 C456 1.391 . S
C458 H448 0.950 . S
C458 C459 1.386 . S
C458 C460 1.391 . S
C459 C458 1.386 . S
C459 C463 1.393 . S
C460 H449 0.950 . S
C460 C458 1.391 . S
C460 C461 1.400 . S
C461 C455 1.491 . S
C461 C460 1.400 . S
C461 C462 1.398 . S
C462 H450 0.950 . S
C462 C461 1.398 . S
C462 C463 1.391 . S
C463 H451 0.950 . S
C463 C459 1.393 . S
C463 C462 1.391 . S
H464 C472 0.950 . S
H465 C477 0.950 . S
H466 C474 0.950 . S
H467 C476 0.950 . S
H468 C478 0.950 . S
H469 C480 0.950 . S
H470 C482 0.950 . S
H471 C483 0.950 . S
C472 H464 0.950 . S
C472 C473 1.386 . S
C472 C474 1.391 . S
C473 C472 1.386 . S
C473 C477 1.393 . S
C474 H466 0.950 . S
C474 C472 1.391 . S
C474 C475 1.400 . S
C475 C474 1.400 . S
C475 C476 1.398 . S
C475 C481 1.491 . S
C476 H467 0.950 . S
C476 C475 1.398 . S
C476 C477 1.391 . S
C477 H465 0.950 . S
C477 C473 1.393 . S
C477 C476 1.391 . S
C478 H468 0.950 . S
C478 C479 1.386 . S
C478 C480 1.391 . S
C479 C478 1.386 . S
C479 C483 1.393 . S
C480 H469 0.950 . S
C480 C478 1.391 . S
C480 C481 1.400 . S
C481 C475 1.491 . S
C481 C480 1.400 . S
C481 C482 1.398 . S
C482 H470 0.950 . S
C482 C481 1.398 . S
C482 C483 1.391 . S
C483 H471 0.950 . S
C483 C479 1.393 . S
C483 C482 1.391 . S
H484 C492 0.950 . S
H485 C497 0.950 . S
H486 C494 0.950 . S
H487 C496 0.950 . S
H488 C498 0.952 . S
H489 C500 0.942 1_565 S
H490 C502 0.950 . S
H491 C503 0.950 . S
C492 H484 0.950 . S
C492 C493 1.386 . S
C492 C494 1.391 . S
C493 C492 1.386 . S
C493 C497 1.393 . S
C494 H486 0.950 . S
C494 C492 1.391 . S
C494 C495 1.400 . S
C495 C494 1.400 . S
C495 C496 1.398 . S
C495 C501 1.491 . S
C496 H487 0.950 . S
C496 C495 1.398 . S
C496 C497 1.391 . S
C497 H485 0.950 . S
C497 C493 1.393 . S
C497 C496 1.391 . S
C498 H488 0.952 . S
C498 C499 1.386 . S
C498 C500 1.391 . S
C499 C498 1.386 . S
C499 C503 1.393 . S
C500 H489 0.942 1_545 S
C500 C498 1.391 . S
C500 C501 1.400 1_545 S
C501 C495 1.491 . S
C501 C500 1.400 1_565 S
C501 C502 1.398 1_565 S
C502 H490 0.950 . S
C502 C501 1.398 1_545 S
C502 C503 1.391 . S
C503 H491 0.950 . S
C503 C499 1.393 . S
C503 C502 1.391 . S
H504 C512 0.950 . S
H505 C517 0.950 . S
H506 C514 0.950 . S
H507 C516 0.950 . S
H508 C518 0.950 . S
H509 C520 0.950 . S
H510 C522 0.950 . S
H511 C523 0.950 . S
C512 H504 0.950 . S
C512 C513 1.386 . S
C512 C514 1.391 . S
C513 C512 1.386 . S
C513 C517 1.393 . S
C514 H506 0.950 . S
C514 C512 1.391 . S
C514 C515 1.400 . S
C515 C514 1.400 . S
C515 C516 1.398 . S
C515 C521 1.491 . S
C516 H507 0.950 . S
C516 C515 1.398 . S
C516 C517 1.391 . S
C517 H505 0.950 . S
C517 C513 1.393 . S
C517 C516 1.391 . S
C518 H508 0.950 . S
C518 C519 1.386 . S
C518 C520 1.391 1_565 S
C519 C518 1.386 . S
C519 C523 1.393 . S
C520 H509 0.950 . S
C520 C518 1.391 1_545 S
C520 C521 1.400 . S
C521 C515 1.491 . S
C521 C520 1.400 . S
C521 C522 1.398 1_545 S
C522 H510 0.950 . S
C522 C521 1.398 1_565 S
C522 C523 1.391 . S
C523 H511 0.950 . S
C523 C519 1.393 . S
C523 C522 1.391 . S
H524 C532 0.950 . S
H525 C537 0.950 . S
H526 C534 0.950 . S
H527 C536 0.950 . S
H528 C538 0.950 . S
H529 C540 0.950 . S
H530 C542 0.950 . S
H531 C543 0.950 . S
C532 H524 0.950 . S
C532 C533 1.386 . S
C532 C534 1.391 . S
C533 C532 1.386 . S
C533 C537 1.393 . S
C534 H526 0.950 . S
C534 C532 1.391 . S
C534 C535 1.400 . S
C535 C534 1.400 . S
C535 C536 1.398 . S
C535 C541 1.491 . S
C536 H527 0.950 . S
C536 C535 1.398 . S
C536 C537 1.391 . S
C537 H525 0.950 . S
C537 C533 1.393 . S
C537 C536 1.391 . S
C538 H528 0.950 . S
C538 C539 1.386 . S
C538 C540 1.391 . S
C539 C538 1.386 . S
C539 C543 1.393 . S
C540 H529 0.950 . S
C540 C538 1.391 . S
C540 C541 1.400 . S
C541 C535 1.491 . S
C541 C540 1.400 . S
C541 C542 1.398 . S
C542 H530 0.950 . S
C542 C541 1.398 . S
C542 C543 1.391 . S
C543 H531 0.950 . S
C543 C539 1.393 . S
C543 C542 1.391 . S
H544 C552 0.950 . S
H545 C557 0.950 . S
H546 C554 0.950 . S
H547 C556 0.950 . S
H548 C558 0.950 . S
H549 C560 0.950 . S
H550 C562 0.950 . S
H551 C563 0.950 . S
C552 H544 0.950 . S
C552 C553 1.386 . S
C552 C554 1.391 . S
C553 C552 1.386 . S
C553 C557 1.393 . S
C554 H546 0.950 . S
C554 C552 1.391 . S
C554 C555 1.400 . S
C555 C554 1.400 . S
C555 C556 1.398 . S
C555 C561 1.491 . S
C556 H547 0.950 . S
C556 C555 1.398 . S
C556 C557 1.391 . S
C557 H545 0.950 . S
C557 C553 1.393 . S
C557 C556 1.391 . S
C558 H548 0.950 . S
C558 C559 1.386 . S
C558 C560 1.391 . S
C559 C558 1.386 . S
C559 C563 1.393 . S
C560 H549 0.950 . S
C560 C558 1.391 . S
C560 C561 1.400 . S
C561 C555 1.491 . S
C561 C560 1.400 . S
C561 C562 1.398 . S
C562 H550 0.950 . S
C562 C561 1.398 . S
C562 C563 1.391 . S
C563 H551 0.950 . S
C563 C559 1.393 . S
C563 C562 1.391 . S
H564 C572 0.950 . S
H565 C577 0.950 . S
H566 C574 0.950 1_565 S
H567 C576 0.950 . S
H568 C578 0.950 . S
H569 C580 0.950 . S
H570 C582 0.950 . S
H571 C583 0.950 . S
C572 H564 0.950 . S
C572 C573 1.386 . S
C572 C574 1.391 . S
C573 C572 1.386 . S
C573 C577 1.393 . S
C574 H566 0.950 1_545 S
C574 C572 1.391 . S
C574 C575 1.400 . S
C575 C574 1.400 . S
C575 C576 1.398 . S
C575 C581 1.491 1_545 S
C576 H567 0.950 . S
C576 C575 1.398 . S
C576 C577 1.391 . S
C577 H565 0.950 . S
C577 C573 1.393 . S
C577 C576 1.391 . S
C578 H568 0.950 . S
C578 C579 1.386 . S
C578 C580 1.391 1_565 S
C579 C578 1.386 . S
C579 C583 1.393 . S
C580 H569 0.950 . S
C580 C578 1.391 1_545 S
C580 C581 1.400 1_545 S
C581 C575 1.491 1_565 S
C581 C580 1.400 1_565 S
C581 C582 1.398 . S
C582 H570 0.950 . S
C582 C581 1.398 . S
C582 C583 1.391 . S
C583 H571 0.950 . S
C583 C579 1.393 . S
C583 C582 1.391 . S
H584 C592 0.950 . S
H585 C597 0.950 . S
H586 C594 0.950 . S
H587 C596 0.950 . S
H588 C598 0.950 . S
H589 C600 0.950 . S
H590 C602 0.950 . S
H591 C603 0.950 . S
C592 H584 0.950 . S
C592 C593 1.386 . S
C592 C594 1.391 1_556 S
C593 C592 1.386 . S
C593 C597 1.393 . S
C594 H586 0.950 . S
C594 C592 1.391 1_554 S
C594 C595 1.400 . S
C595 C594 1.400 . S
C595 C596 1.398 1_554 S
C595 C601 1.491 . S
C596 H587 0.950 . S
C596 C595 1.398 1_556 S
C596 C597 1.391 . S
C597 H585 0.950 . S
C597 C593 1.393 . S
C597 C596 1.391 . S
C598 H588 0.950 . S
C598 C599 1.386 . S
C598 C600 1.391 . S
C599 C598 1.386 . S
C599 C603 1.393 . S
C600 H589 0.950 . S
C600 C598 1.391 . S
C600 C601 1.400 . S
C601 C595 1.491 . S
C601 C600 1.400 . S
C601 C602 1.398 . S
C602 H590 0.950 . S
C602 C601 1.398 . S
C602 C603 1.391 . S
C603 H591 0.950 . S
C603 C599 1.393 . S
C603 C602 1.391 . S
H604 C612 0.950 . S
H605 C617 0.950 . S
H606 C614 0.950 . S
H607 C616 0.950 . S
H608 C618 0.950 . S
H609 C620 0.950 . S
H610 C622 0.950 . S
H611 C623 0.950 . S
C612 H604 0.950 . S
C612 C613 1.386 . S
C612 C614 1.391 . S
C613 C612 1.386 . S
C613 C617 1.393 . S
C614 H606 0.950 . S
C614 C612 1.391 . S
C614 C615 1.400 . S
C615 C614 1.400 . S
C615 C616 1.398 . S
C615 C621 1.491 . S
C616 H607 0.950 . S
C616 C615 1.398 . S
C616 C617 1.391 . S
C617 H605 0.950 . S
C617 C613 1.393 . S
C617 C616 1.391 . S
C618 H608 0.950 . S
C618 C619 1.386 . S
C618 C620 1.391 . S
C619 C618 1.386 . S
C619 C623 1.393 . S
C620 H609 0.950 . S
C620 C618 1.391 . S
C620 C621 1.400 . S
C621 C615 1.491 . S
C621 C620 1.400 . S
C621 C622 1.398 . S
C622 H610 0.950 . S
C622 C621 1.398 . S
C622 C623 1.391 . S
C623 H611 0.950 . S
C623 C619 1.393 . S
C623 C622 1.391 . S
H624 C632 0.950 . S
H625 C637 0.950 . S
H626 C634 0.950 . S
H627 C636 0.950 . S
H628 C638 0.950 . S
H629 C640 0.950 . S
H630 C642 0.950 . S
H631 C643 0.950 . S
C632 H624 0.950 . S
C632 C633 1.386 . S
C632 C634 1.391 . S
C633 C632 1.386 . S
C633 C637 1.393 . S
C634 H626 0.950 . S
C634 C632 1.391 . S
C634 C635 1.400 1_554 S
C635 C634 1.400 1_556 S
C635 C636 1.398 . S
C635 C641 1.491 . S
C636 H627 0.950 . S
C636 C635 1.398 . S
C636 C637 1.391 1_556 S
C637 H625 0.950 . S
C637 C633 1.393 . S
C637 C636 1.391 1_554 S
C638 H628 0.950 . S
C638 C639 1.386 . S
C638 C640 1.391 . S
C639 C638 1.386 . S
C639 C643 1.393 . S
C640 H629 0.950 . S
C640 C638 1.391 . S
C640 C641 1.400 . S
C641 C635 1.491 . S
C641 C640 1.400 . S
C641 C642 1.398 . S
C642 H630 0.950 . S
C642 C641 1.398 . S
C642 C643 1.391 . S
C643 H631 0.950 . S
C643 C639 1.393 . S
C643 C642 1.391 . S
H644 C652 0.950 . S
H645 C657 0.950 . S
H646 C654 0.950 . S
H647 C656 0.950 . S
H648 C658 0.950 . S
H649 C660 0.950 . S
H650 C662 0.950 . S
H651 C663 0.950 . S
C652 H644 0.950 . S
C652 C653 1.386 . S
C652 C654 1.391 . S
C653 C652 1.386 . S
C653 C657 1.393 . S
C654 H646 0.950 . S
C654 C652 1.391 . S
C654 C655 1.400 . S
C655 C654 1.400 . S
C655 C656 1.398 . S
C655 C661 1.491 . S
C656 H647 0.950 . S
C656 C655 1.398 . S
C656 C657 1.391 . S
C657 H645 0.950 . S
C657 C653 1.393 . S
C657 C656 1.391 . S
C658 H648 0.950 . S
C658 C659 1.386 . S
C658 C660 1.391 . S
C659 C658 1.386 . S
C659 C663 1.393 . S
C660 H649 0.950 . S
C660 C658 1.391 . S
C660 C661 1.400 . S
C661 C655 1.491 . S
C661 C660 1.400 . S
C661 C662 1.398 . S
C662 H650 0.950 . S
C662 C661 1.398 . S
C662 C663 1.391 . S
C663 H651 0.950 . S
C663 C659 1.393 . S
C663 C662 1.391 . S
H664 C672 0.950 . S
H665 C677 0.950 . S
H666 C674 0.950 . S
H667 C676 0.950 . S
H668 C678 0.950 . S
H669 C680 0.950 . S
H670 C682 0.950 . S
H671 C683 0.950 . S
C672 H664 0.950 . S
C672 C673 1.386 . S
C672 C674 1.391 1_554 S
C673 C672 1.386 . S
C673 C677 1.393 . S
C674 H666 0.950 . S
C674 C672 1.391 1_556 S
C674 C675 1.400 . S
C675 C674 1.400 . S
C675 C676 1.398 . S
C675 C681 1.491 . S
C676 H667 0.950 . S
C676 C675 1.398 . S
C676 C677 1.391 1_556 S
C677 H665 0.950 . S
C677 C673 1.393 . S
C677 C676 1.391 1_554 S
C678 H668 0.950 . S
C678 C679 1.386 . S
C678 C680 1.391 . S
C679 C678 1.386 . S
C679 C683 1.393 . S
C680 H669 0.950 . S
C680 C678 1.391 . S
C680 C681 1.400 . S
C681 C675 1.491 . S
C681 C680 1.400 . S
C681 C682 1.398 . S
C682 H670 0.950 . S
C682 C681 1.398 . S
C682 C683 1.391 . S
C683 H671 0.950 . S
C683 C679 1.393 . S
C683 C682 1.391 . S
H684 C692 0.950 . S
H685 C697 0.950 . S
H686 C694 0.950 . S
H687 C696 0.950 . S
H688 C698 0.950 . S
H689 C700 0.950 . S
H690 C702 0.950 . S
H691 C703 0.950 . S
C692 H684 0.950 . S
C692 C693 1.386 . S
C692 C694 1.391 . S
C693 C692 1.386 . S
C693 C697 1.393 . S
C694 H686 0.950 . S
C694 C692 1.391 . S
C694 C695 1.400 . S
C695 C694 1.400 . S
C695 C696 1.398 . S
C695 C701 1.491 . S
C696 H687 0.950 . S
C696 C695 1.398 . S
C696 C697 1.391 . S
C697 H685 0.950 . S
C697 C693 1.393 . S
C697 C696 1.391 . S
C698 H688 0.950 . S
C698 C699 1.386 . S
C698 C700 1.391 . S
C699 C698 1.386 . S
C699 C703 1.393 . S
C700 H689 0.950 . S
C700 C698 1.391 . S
C700 C701 1.400 . S
C701 C695 1.491 . S
C701 C700 1.400 . S
C701 C702 1.398 . S
C702 H690 0.950 . S
C702 C701 1.398 . S
C702 C703 1.391 . S
C703 H691 0.950 . S
C703 C699 1.393 . S
C703 C702 1.391 . S
H704 C712 0.950 . S
H705 C717 0.950 . S
H706 C714 0.950 . S
H707 C716 0.950 . S
H708 C718 0.950 . S
H709 C720 0.950 . S
H710 C722 0.950 . S
H711 C723 0.950 . S
C712 H704 0.950 . S
C712 C713 1.386 . S
C712 C714 1.391 1_556 S
C713 C712 1.386 . S
C713 C717 1.393 . S
C714 H706 0.950 . S
C714 C712 1.391 1_554 S
C714 C715 1.400 . S
C715 C714 1.400 . S
C715 C716 1.398 . S
C715 C721 1.491 . S
C716 H707 0.950 . S
C716 C715 1.398 . S
C716 C717 1.391 1_554 S
C717 H705 0.950 . S
C717 C713 1.393 . S
C717 C716 1.391 1_556 S
C718 H708 0.950 . S
C718 C719 1.386 . S
C718 C720 1.391 . S
C719 C718 1.386 . S
C719 C723 1.393 . S
C720 H709 0.950 . S
C720 C718 1.391 . S
C720 C721 1.400 . S
C721 C715 1.491 . S
C721 C720 1.400 . S
C721 C722 1.398 . S
C722 H710 0.950 . S
C722 C721 1.398 . S
C722 C723 1.391 . S
C723 H711 0.950 . S
C723 C719 1.393 . S
C723 C722 1.391 . S
H724 C732 0.950 . S
H725 C737 0.950 . S
H726 C734 0.950 . S
H727 C736 0.950 . S
H728 C738 0.950 . S
H729 C740 0.950 . S
H730 C742 0.950 . S
H731 C743 0.950 . S
C732 H724 0.950 . S
C732 C733 1.386 . S
C732 C734 1.391 . S
C733 C732 1.386 . S
C733 C737 1.393 . S
C734 H726 0.950 . S
C734 C732 1.391 . S
C734 C735 1.400 . S
C735 C734 1.400 . S
C735 C736 1.398 . S
C735 C741 1.491 . S
C736 H727 0.950 . S
C736 C735 1.398 . S
C736 C737 1.391 . S
C737 H725 0.950 . S
C737 C733 1.393 . S
C737 C736 1.391 . S
C738 H728 0.950 . S
C738 C739 1.386 . S
C738 C740 1.391 . S
C739 C738 1.386 . S
C739 C743 1.393 . S
C740 H729 0.950 . S
C740 C738 1.391 . S
C740 C741 1.400 . S
C741 C735 1.491 . S
C741 C740 1.400 . S
C741 C742 1.398 . S
C742 H730 0.950 . S
C742 C741 1.398 . S
C742 C743 1.391 . S
C743 H731 0.950 . S
C743 C739 1.393 . S
C743 C742 1.391 . S
H744 C752 0.950 . S
H745 C757 0.950 . S
H746 C754 0.950 . S
H747 C756 0.950 . S
H748 C758 0.950 . S
H749 C760 0.950 . S
H750 C762 0.950 . S
H751 C763 0.950 . S
C752 H744 0.950 . S
C752 C753 1.386 . S
C752 C754 1.391 . S
C753 C752 1.386 . S
C753 C757 1.393 . S
C754 H746 0.950 . S
C754 C752 1.391 . S
C754 C755 1.400 . S
C755 C754 1.400 . S
C755 C756 1.398 . S
C755 C761 1.491 . S
C756 H747 0.950 . S
C756 C755 1.398 . S
C756 C757 1.391 . S
C757 H745 0.950 . S
C757 C753 1.393 . S
C757 C756 1.391 . S
C758 H748 0.950 . S
C758 C759 1.386 . S
C758 C760 1.391 . S
C759 C758 1.386 . S
C759 C763 1.393 . S
C760 H749 0.950 . S
C760 C758 1.391 . S
C760 C761 1.400 . S
C761 C755 1.491 . S
C761 C760 1.400 . S
C761 C762 1.398 . S
C762 H750 0.950 . S
C762 C761 1.398 . S
C762 C763 1.391 . S
C763 H751 0.950 . S
C763 C759 1.393 . S
C763 C762 1.391 . S
H764 C772 0.950 . S
H765 C777 0.950 . S
H766 C774 0.950 . S
H767 C776 0.950 . S
H768 C778 0.950 . S
H769 C780 0.950 . S
H770 C782 0.950 . S
H771 C783 0.950 . S
C772 H764 0.950 . S
C772 C773 1.386 . S
C772 C774 1.391 . S
C773 C772 1.386 . S
C773 C777 1.393 . S
C774 H766 0.950 . S
C774 C772 1.391 . S
C774 C775 1.400 . S
C775 C774 1.400 . S
C775 C776 1.398 . S
C775 C781 1.491 . S
C776 H767 0.950 . S
C776 C775 1.398 . S
C776 C777 1.391 . S
C777 H765 0.950 . S
C777 C773 1.393 . S
C777 C776 1.391 . S
C778 H768 0.950 . S
C778 C779 1.386 . S
C778 C780 1.391 . S
C779 C778 1.386 . S
C779 C783 1.393 . S
C780 H769 0.950 . S
C780 C778 1.391 . S
C780 C781 1.400 . S
C781 C775 1.491 . S
C781 C780 1.400 . S
C781 C782 1.398 . S
C782 H770 0.950 . S
C782 C781 1.398 . S
C782 C783 1.391 . S
C783 H771 0.950 . S
C783 C779 1.393 . S
C783 C782 1.391 . S
H784 C792 0.950 . S
H785 C797 0.950 . S
H786 C794 0.950 . S
H787 C796 0.950 . S
H788 C798 0.950 . S
H789 C800 0.950 . S
H790 C802 0.950 . S
H791 C803 0.950 . S
C792 H784 0.950 . S
C792 C793 1.386 . S
C792 C794 1.391 . S
C793 C792 1.386 . S
C793 C797 1.393 . S
C794 H786 0.950 . S
C794 C792 1.391 . S
C794 C795 1.400 . S
C795 C794 1.400 . S
C795 C796 1.398 . S
C795 C801 1.491 . S
C796 H787 0.950 . S
C796 C795 1.398 . S
C796 C797 1.391 . S
C797 H785 0.950 . S
C797 C793 1.393 . S
C797 C796 1.391 . S
C798 H788 0.950 . S
C798 C799 1.386 . S
C798 C800 1.391 . S
C799 C798 1.386 . S
C799 C803 1.393 . S
C800 H789 0.950 . S
C800 C798 1.391 . S
C800 C801 1.400 . S
C801 C795 1.491 . S
C801 C800 1.400 . S
C801 C802 1.398 . S
C802 H790 0.950 . S
C802 C801 1.398 . S
C802 C803 1.391 . S
C803 H791 0.950 . S
C803 C799 1.393 . S
C803 C802 1.391 . S
H804 C812 0.950 . S
H805 C817 0.950 . S
H806 C814 0.950 . S
H807 C816 0.950 . S
H808 C818 0.950 1_455 S
H809 C820 0.950 . S
H810 C822 0.950 . S
H811 C823 0.950 . S
C812 H804 0.950 . S
C812 C813 1.386 . S
C812 C814 1.391 . S
C813 C812 1.386 . S
C813 C817 1.393 . S
C814 H806 0.950 . S
C814 C812 1.391 . S
C814 C815 1.400 . S
C815 C814 1.400 . S
C815 C816 1.398 . S
C815 C821 1.491 . S
C816 H807 0.950 . S
C816 C815 1.398 . S
C816 C817 1.391 . S
C817 H805 0.950 . S
C817 C813 1.393 . S
C817 C816 1.391 . S
C818 H808 0.950 1_655 S
C818 C819 1.386 . S
C818 C820 1.391 . S
C819 C818 1.386 . S
C819 C823 1.393 . S
C820 H809 0.950 . S
C820 C818 1.391 . S
C820 C821 1.400 . S
C821 C815 1.491 . S
C821 C820 1.400 . S
C821 C822 1.398 . S
C822 H810 0.950 . S
C822 C821 1.398 . S
C822 C823 1.391 . S
C823 H811 0.950 . S
C823 C819 1.393 . S
C823 C822 1.391 . S
H824 C832 0.950 . S
H825 C837 0.950 . S
H826 C834 0.950 . S
H827 C836 0.950 . S
H828 C838 0.950 . S
H829 C840 0.950 . S
H830 C842 0.950 . S
H831 C843 0.950 . S
C832 H824 0.950 . S
C832 C833 1.386 . S
C832 C834 1.391 . S
C833 C832 1.386 . S
C833 C837 1.393 . S
C834 H826 0.950 . S
C834 C832 1.391 . S
C834 C835 1.400 . S
C835 C834 1.400 . S
C835 C836 1.398 . S
C835 C841 1.491 . S
C836 H827 0.950 . S
C836 C835 1.398 . S
C836 C837 1.391 . S
C837 H825 0.950 . S
C837 C833 1.393 . S
C837 C836 1.391 . S
C838 H828 0.950 . S
C838 C839 1.386 . S
C838 C840 1.391 . S
C839 C838 1.386 . S
C839 C843 1.393 . S
C840 H829 0.950 . S
C840 C838 1.391 . S
C840 C841 1.400 . S
C841 C835 1.491 . S
C841 C840 1.400 . S
C841 C842 1.398 . S
C842 H830 0.950 . S
C842 C841 1.398 . S
C842 C843 1.391 . S
C843 H831 0.950 . S
C843 C839 1.393 . S
C843 C842 1.391 . S
H844 C852 0.950 . S
H845 C857 0.950 . S
H846 C854 0.950 . S
H847 C856 0.950 . S
H848 C858 0.950 . S
H849 C860 0.950 . S
H850 C862 0.950 . S
H851 C863 0.950 . S
C852 H844 0.950 . S
C852 C853 1.386 . S
C852 C854 1.391 . S
C853 C852 1.386 . S
C853 C857 1.393 . S
C854 H846 0.950 . S
C854 C852 1.391 . S
C854 C855 1.400 . S
C855 C854 1.400 . S
C855 C856 1.398 . S
C855 C861 1.491 . S
C856 H847 0.950 . S
C856 C855 1.398 . S
C856 C857 1.391 . S
C857 H845 0.950 . S
C857 C853 1.393 . S
C857 C856 1.391 . S
C858 H848 0.950 . S
C858 C859 1.386 . S
C858 C860 1.391 . S
C859 C858 1.386 . S
C859 C863 1.393 . S
C860 H849 0.950 . S
C860 C858 1.391 . S
C860 C861 1.400 . S
C861 C855 1.491 . S
C861 C860 1.400 . S
C861 C862 1.398 . S
C862 H850 0.950 . S
C862 C861 1.398 . S
C862 C863 1.391 . S
C863 H851 0.950 . S
C863 C859 1.393 . S
C863 C862 1.391 . S
H864 C872 0.950 . S
H865 C877 0.950 . S
H866 C874 0.950 . S
H867 C876 0.950 . S
H868 C878 0.950 . S
H869 C880 0.950 . S
H870 C882 0.950 . S
H871 C883 0.950 . S
C872 H864 0.950 . S
C872 C873 1.386 . S
C872 C874 1.391 . S
C873 C872 1.386 . S
C873 C877 1.393 . S
C874 H866 0.950 . S
C874 C872 1.391 . S
C874 C875 1.400 . S
C875 C874 1.400 . S
C875 C876 1.398 . S
C875 C881 1.491 . S
C876 H867 0.950 . S
C876 C875 1.398 . S
C876 C877 1.391 . S
C877 H865 0.950 . S
C877 C873 1.393 . S
C877 C876 1.391 . S
C878 H868 0.950 . S
C878 C879 1.386 . S
C878 C880 1.391 . S
C879 C878 1.386 . S
C879 C883 1.393 . S
C880 H869 0.950 . S
C880 C878 1.391 . S
C880 C881 1.400 . S
C881 C875 1.491 . S
C881 C880 1.400 . S
C881 C882 1.398 . S
C882 H870 0.950 . S
C882 C881 1.398 . S
C882 C883 1.391 . S
C883 H871 0.950 . S
C883 C879 1.393 . S
C883 C882 1.391 . S
H884 C892 0.950 . S
H885 C897 0.950 . S
H886 C894 0.950 . S
H887 C896 0.950 . S
H888 C898 0.950 . S
H889 C900 0.950 . S
H890 C902 0.950 . S
H891 C903 0.950 . S
C892 H884 0.950 . S
C892 C893 1.386 . S
C892 C894 1.391 . S
C893 C892 1.386 . S
C893 C897 1.393 . S
C894 H886 0.950 . S
C894 C892 1.391 . S
C894 C895 1.400 . S
C895 C894 1.400 . S
C895 C896 1.398 . S
C895 C901 1.491 . S
C896 H887 0.950 . S
C896 C895 1.398 . S
C896 C897 1.391 . S
C897 H885 0.950 . S
C897 C893 1.393 . S
C897 C896 1.391 . S
C898 H888 0.950 . S
C898 C899 1.386 . S
C898 C900 1.391 . S
C899 C898 1.386 . S
C899 C903 1.393 . S
C900 H889 0.950 . S
C900 C898 1.391 . S
C900 C901 1.400 . S
C901 C895 1.491 . S
C901 C900 1.400 . S
C901 C902 1.398 . S
C902 H890 0.950 . S
C902 C901 1.398 . S
C902 C903 1.391 . S
C903 H891 0.950 . S
C903 C899 1.393 . S
C903 C902 1.391 . S
C433 C73 1.600 . S
C439 C162 1.649 . S
C459 C246 1.746 . S
C453 C84 1.748 . S
C479 C239 1.642 . S
C473 C51 1.597 . S
C493 C62 1.733 . S
C499 C155 1.759 . S
C519 C319 1.650 . S
C513 C29 1.581 . S
C539 C403 1.597 . S
C533 C38 1.485 . S
C553 C7 1.578 . S
C559 C396 1.651 . S
C573 C16 1.496 . S
C579 C312 1.585 . S
C599 C146 1.484 . S
C593 C18 1.658 . S
C619 C230 1.513 . S
C613 C5 1.416 . S
C639 C241 1.458 . S
C633 C40 1.661 . S
C659 C157 1.466 . S
C653 C27 1.449 . S
C679 C325 1.312 . S
C673 C60 1.371 . S
C693 C49 1.373 . S
C699 C409 1.354 . S
C719 C398 1.308 . S
C713 C82 1.367 . S
C733 C71 1.376 . S
C739 C314 1.367 . S
C759 C144 1.659 . S
C753 C8 1.629 . S
C779 C228 1.563 . S
C773 C19 1.559 . S
C793 C30 1.647 . S
C799 C235 1.636 . S
C819 C151 1.530 . S
C813 C41 1.552 . S
C839 C323 1.421 . S
C833 C52 1.418 . S
C853 C63 1.553 . S
C859 C407 1.552 . S
C873 C74 1.417 . S
C879 C414 1.394 . S
C893 C85 1.545 . S
C899 C330 1.520 . S
