# Generated by pormake.
# Topology hwx, (6,3)-cn, num edge types: 1
# Building blocks:
#     Node 0, Type 0, BuildingBlock: OJICUG_clean_sbu_0, # of connection points: 6
#     Node 1, Type 0, BuildingBlock: OJICUG_clean_sbu_0, # of connection points: 6
#     Node 2, Type 0, BuildingBlock: OJICUG_clean_sbu_0, # of connection points: 6
#     Node 3, Type 0, BuildingBlock: OJICUG_clean_sbu_0, # of connection points: 6
#     Node 4, Type 1, BuildingBlock: OLANEW_clean_sbu_2, # of connection points: 3
#     Node 5, Type 1, BuildingBlock: OLANEW_clean_sbu_2, # of connection points: 3
#     Node 6, Type 1, BuildingBlock: OLANEW_clean_sbu_2, # of connection points: 3
#     Node 7, Type 1, BuildingBlock: OLANEW_clean_sbu_2, # of connection points: 3
#     Node 8, Type 1, BuildingBlock: OLANEW_clean_sbu_2, # of connection points: 3
#     Node 9, Type 1, BuildingBlock: OLANEW_clean_sbu_2, # of connection points: 3
#     Node 10, Type 1, BuildingBlock: OLANEW_clean_sbu_2, # of connection points: 3
#     Node 11, Type 1, BuildingBlock: OLANEW_clean_sbu_2, # of connection points: 3
#     Edge 12, Type (0, 1), BuildingBlock: UVAHIK_clean_linker_0, # of connection points: 2
#     Edge 13, Type (0, 1), BuildingBlock: UVAHIK_clean_linker_0, # of connection points: 2
#     Edge 14, Type (0, 1), BuildingBlock: UVAHIK_clean_linker_0, # of connection points: 2
#     Edge 15, Type (0, 1), BuildingBlock: UVAHIK_clean_linker_0, # of connection points: 2
#     Edge 16, Type (0, 1), BuildingBlock: UVAHIK_clean_linker_0, # of connection points: 2
#     Edge 17, Type (0, 1), BuildingBlock: UVAHIK_clean_linker_0, # of connection points: 2
#     Edge 18, Type (0, 1), BuildingBlock: UVAHIK_clean_linker_0, # of connection points: 2
#     Edge 19, Type (0, 1), BuildingBlock: UVAHIK_clean_linker_0, # of connection points: 2
#     Edge 20, Type (0, 1), BuildingBlock: UVAHIK_clean_linker_0, # of connection points: 2
#     Edge 21, Type (0, 1), BuildingBlock: UVAHIK_clean_linker_0, # of connection points: 2
#     Edge 22, Type (0, 1), BuildingBlock: UVAHIK_clean_linker_0, # of connection points: 2
#     Edge 23, Type (0, 1), BuildingBlock: UVAHIK_clean_linker_0, # of connection points: 2
#     Edge 24, Type (0, 1), BuildingBlock: UVAHIK_clean_linker_0, # of connection points: 2
#     Edge 25, Type (0, 1), BuildingBlock: UVAHIK_clean_linker_0, # of connection points: 2
#     Edge 26, Type (0, 1), BuildingBlock: UVAHIK_clean_linker_0, # of connection points: 2
#     Edge 27, Type (0, 1), BuildingBlock: UVAHIK_clean_linker_0, # of connection points: 2
#     Edge 28, Type (0, 1), BuildingBlock: UVAHIK_clean_linker_0, # of connection points: 2
#     Edge 29, Type (0, 1), BuildingBlock: UVAHIK_clean_linker_0, # of connection points: 2
#     Edge 30, Type (0, 1), BuildingBlock: UVAHIK_clean_linker_0, # of connection points: 2
#     Edge 31, Type (0, 1), BuildingBlock: UVAHIK_clean_linker_0, # of connection points: 2
#     Edge 32, Type (0, 1), BuildingBlock: UVAHIK_clean_linker_0, # of connection points: 2
#     Edge 33, Type (0, 1), BuildingBlock: UVAHIK_clean_linker_0, # of connection points: 2
#     Edge 34, Type (0, 1), BuildingBlock: UVAHIK_clean_linker_0, # of connection points: 2
#     Edge 35, Type (0, 1), BuildingBlock: UVAHIK_clean_linker_0, # of connection points: 2
# Relax obj value: 0.021
# Max RMSD: 0.065
# Mean RMSD: 0.062
data_MOF--net-hwx--node1-OJICUG_clean_sbu_0--node2-OLANEW_clean_sbu_2--edge1-UVAHIK_clean_linker_0
_symmetry_space_group_name_H-M    P1
_symmetry_Int_Tables_number       1
_symmetry_cell_setting            triclinic
loop_
_symmetry_equiv_pos_as_xyz
'x, y, z'
_cell_length_a     70.403791
_cell_length_b     70.393513
_cell_length_c     27.757972
_cell_angle_alpha  86.000802
_cell_angle_beta   93.979708
_cell_angle_gamma 90.010183
loop_
_atom_site_label
_atom_site_type_symbol
_atom_site_fract_x
_atom_site_fract_y
_atom_site_fract_z
_atom_type_partial_charge
Sc0 Sc 0.22376 0.22107 0.06805 0.0
Sc1 Sc 0.19373 0.19112 4e-05 0.0
Sc2 Sc 0.22465 0.22304 0.94113 0.0
O3 O 0.21403 0.21174 0.00311 0.0
C4 C 0.22042 0.25981 0.00095 0.0
C5 C 0.17936 0.21583 0.08257 0.0
C6 C 0.18033 0.21944 0.90929 0.0
C7 C 0.22064 0.17623 0.09253 0.0
C8 C 0.26209 0.22009 0.01287 0.0
C9 C 0.22161 0.17895 0.92137 0.0
O10 O 0.22065 0.25072 0.0423 0.0
O11 O 0.17623 0.20457 0.04904 0.0
O12 O 0.19668 0.22678 0.90482 0.0
O13 O 0.22772 0.19245 0.10045 0.0
O14 O 0.25381 0.2208 0.97059 0.0
O15 O 0.20894 0.17522 0.9511 0.0
O16 O 0.25303 0.2204 0.05084 0.0
O17 O 0.20811 0.17376 0.05831 0.0
O18 O 0.22834 0.19555 0.91374 0.0
O19 O 0.19572 0.22257 0.09338 0.0
O20 O 0.2221 0.25164 0.96205 0.0
O21 O 0.1772 0.20625 0.94137 0.0
Sc22 Sc 0.27952 0.73005 0.47622 0.0
Sc23 Sc 0.30967 0.69614 0.54241 0.0
Sc24 Sc 0.2802 0.72575 0.60332 0.0
O25 O 0.2898 0.71729 0.54065 0.0
C26 C 0.28121 0.76565 0.54123 0.0
C27 C 0.32382 0.72631 0.46096 0.0
C28 C 0.32467 0.72073 0.6303 0.0
C29 C 0.28286 0.68667 0.44999 0.0
C30 C 0.24207 0.72416 0.53445 0.0
C31 C 0.28414 0.68059 0.6266 0.0
O32 O 0.28115 0.75838 0.50066 0.0
O33 O 0.32661 0.71229 0.49219 0.0
O34 O 0.30879 0.72881 0.63493 0.0
O35 O 0.27633 0.70351 0.44287 0.0
O36 O 0.25076 0.7234 0.57639 0.0
O37 O 0.29493 0.67773 0.5929 0.0
O38 O 0.25058 0.72683 0.49557 0.0
O39 O 0.295 0.6817 0.48463 0.0
O40 O 0.27841 0.69707 0.63495 0.0
O41 O 0.30762 0.73422 0.45144 0.0
O42 O 0.28073 0.75562 0.58093 0.0
O43 O 0.32676 0.70821 0.60012 0.0
Sc44 Sc 0.77732 0.78355 0.95299 0.0
Sc45 Sc 0.811 0.81216 0.01435 0.0
Sc46 Sc 0.78396 0.77812 0.07928 0.0
O47 O 0.79078 0.79134 0.01553 0.0
C48 C 0.74319 0.78279 0.02357 0.0
C49 C 0.77956 0.82853 0.93281 0.0
C50 C 0.7897 0.82133 0.10737 0.0
C51 C 0.82021 0.7896 0.92316 0.0
C52 C 0.78285 0.74327 0.0108 0.0
C53 C 0.8289 0.7814 0.09579 0.0
O54 O 0.74969 0.7824 0.98204 0.0
O55 O 0.79439 0.83047 0.96104 0.0
O56 O 0.7843 0.80423 0.11502 0.0
O57 O 0.80328 0.78356 0.91666 0.0
O58 O 0.78286 0.75015 0.05194 0.0
O59 O 0.83008 0.79632 0.06741 0.0
O60 O 0.78189 0.75365 0.97138 0.0
O61 O 0.82555 0.79966 0.95795 0.0
O62 O 0.81335 0.77266 0.10186 0.0
O63 O 0.77136 0.81262 0.92797 0.0
O64 O 0.75383 0.78242 0.06256 0.0
O65 O 0.79874 0.82689 0.07082 0.0
Sc66 Sc 0.72921 0.2808 0.55703 0.0
Sc67 Sc 0.6959 0.3114 0.49011 0.0
Sc68 Sc 0.72454 0.28059 0.43009 0.0
O69 O 0.71653 0.29094 0.49238 0.0
C70 C 0.76459 0.28244 0.49069 0.0
C71 C 0.72596 0.32505 0.57248 0.0
C72 C 0.7201 0.32526 0.40114 0.0
C73 C 0.68574 0.28495 0.58245 0.0
C74 C 0.72356 0.24288 0.50117 0.0
C75 C 0.67954 0.28475 0.40833 0.0
O76 O 0.75744 0.28185 0.53156 0.0
O77 O 0.71188 0.32795 0.54154 0.0
O78 O 0.7266 0.30881 0.39477 0.0
O79 O 0.70259 0.27843 0.5905 0.0
O80 O 0.72327 0.25128 0.45898 0.0
O81 O 0.67739 0.29738 0.43816 0.0
O82 O 0.72557 0.25174 0.53955 0.0
O83 O 0.6809 0.29676 0.54693 0.0
O84 O 0.69561 0.27747 0.40207 0.0
O85 O 0.73393 0.30885 0.58118 0.0
O86 O 0.75447 0.28228 0.451 0.0
O87 O 0.70891 0.32826 0.43388 0.0
O88 O 0.18554 0.51791 0.87133 0.0
Cd89 Cd 0.16236 0.49683 0.90874 0.0
O90 O 0.19592 0.52523 0.94381 0.0
Cd91 Cd 0.21362 0.53977 0.99757 0.0
O92 O 0.22628 0.5548 0.05795 0.0
C93 C 0.21801 0.56986 0.06836 0.0
O94 O 0.20266 0.57578 0.0419 0.0
C95 C 0.19657 0.52762 0.89811 0.0
C96 C 0.17499 0.4594 0.92726 0.0
O97 O 0.1669 0.46517 0.88604 0.0
O98 O 0.17733 0.47144 0.95972 0.0
O99 O 0.98554 0.68131 0.4074 0.0
Cd100 Cd 0.00655 0.66194 0.46495 0.0
O101 O 0.98264 0.70257 0.46041 0.0
Cd102 Cd 0.96916 0.72631 0.49192 0.0
O103 O 0.95335 0.74093 0.54344 0.0
C104 C 0.93701 0.73431 0.55169 0.0
O105 O 0.93051 0.71999 0.52752 0.0
C106 C 0.97824 0.69675 0.41876 0.0
C107 C 0.0436 0.67562 0.47562 0.0
O108 O 0.03847 0.66494 0.44154 0.0
O109 O 0.03111 0.68007 0.50442 0.0
O110 O 0.76291 0.48348 0.03864 0.0
Cd111 Cd 0.76738 0.50177 0.96207 0.0
O112 O 0.79319 0.4763 0.05477 0.0
Cd113 Cd 0.79906 0.48589 0.98091 0.0
O114 O 0.79188 0.47446 0.91084 0.0
C115 C 0.77759 0.46344 0.91197 0.0
O116 O 0.76896 0.46103 0.95242 0.0
C117 C 0.77611 0.47577 0.06706 0.0
C118 C 0.77139 0.54058 0.9737 0.0
O119 O 0.75493 0.53318 0.96581 0.0
O120 O 0.78599 0.52959 0.97619 0.0
O121 O 0.02422 0.26207 0.53652 0.0
Cd122 Cd 0.00636 0.26244 0.45777 0.0
O123 O 0.02903 0.29299 0.53435 0.0
Cd124 Cd 0.01814 0.29576 0.45875 0.0
O125 O 0.03002 0.28657 0.39371 0.0
C126 C 0.04765 0.28282 0.40176 0.0
O127 O 0.05574 0.28543 0.4449 0.0
C128 C 0.03083 0.27661 0.55663 0.0
C129 C 0.96748 0.26726 0.46584 0.0
O130 O 0.97503 0.25061 0.46886 0.0
O131 O 0.97836 0.28165 0.45894 0.0
O132 O 0.67987 0.98509 0.62123 0.0
Cd133 Cd 0.66038 0.00771 0.56836 0.0
O134 O 0.70084 0.98363 0.56687 0.0
Cd135 Cd 0.72435 0.97084 0.53285 0.0
O136 O 0.74011 0.95574 0.4821 0.0
C137 C 0.73814 0.9378 0.48227 0.0
O138 O 0.72751 0.92918 0.51414 0.0
C139 C 0.69515 0.9781 0.608 0.0
C140 C 0.6753 0.04434 0.55977 0.0
O141 O 0.66515 0.03903 0.59483 0.0
O142 O 0.67867 0.03219 0.52905 0.0
O143 O 0.51917 0.18506 0.15475 0.0
Cd144 Cd 0.4985 0.16324 0.11112 0.0
O145 O 0.52477 0.20049 0.08616 0.0
Cd146 Cd 0.53674 0.22136 0.03457 0.0
O147 O 0.55187 0.23416 0.97448 0.0
C148 C 0.56723 0.226 0.96575 0.0
O149 O 0.57314 0.21102 0.99369 0.0
C150 C 0.52777 0.19838 0.13199 0.0
C151 C 0.46149 0.17706 0.09252 0.0
O152 O 0.46662 0.1677 0.13256 0.0
O153 O 0.47393 0.18 0.06125 0.0
O154 O 0.25628 0.0248 0.4868 0.0
Cd155 Cd 0.25977 0.00784 0.56693 0.0
O156 O 0.28681 0.02553 0.47448 0.0
Cd157 Cd 0.29345 0.01641 0.55033 0.0
O158 O 0.2901 0.02667 0.62154 0.0
C159 C 0.29752 0.04278 0.62855 0.0
O160 O 0.30781 0.05085 0.59513 0.0
C161 C 0.26962 0.02904 0.45933 0.0
C162 C 0.26434 0.96875 0.56093 0.0
O163 O 0.24773 0.97621 0.56079 0.0
O164 O 0.27878 0.97978 0.564 0.0
O165 O 0.48501 0.75631 0.98812 0.0
Cd166 Cd 0.50301 0.7559 0.06676 0.0
O167 O 0.47526 0.78603 0.98684 0.0
Cd168 Cd 0.48649 0.78842 0.06127 0.0
O169 O 0.47728 0.78461 0.13461 0.0
C170 C 0.46268 0.79423 0.14246 0.0
O171 O 0.4556 0.80654 0.10812 0.0
C172 C 0.47595 0.77043 0.96654 0.0
C173 C 0.54143 0.76372 0.05785 0.0
O174 O 0.53476 0.74701 0.0524 0.0
O175 O 0.52994 0.77682 0.06753 0.0
C176 C 0.14438 0.21877 0.09475 0.0
C177 C 0.16352 0.22103 0.11156 0.0
C178 C 0.12963 0.22378 0.1229 0.0
C179 C 0.11963 0.2295 0.24858 0.0
H180 H 0.08024 0.2655 0.19815 0.0
C181 C 0.07855 0.27185 0.37474 0.0
C182 C 0.05894 0.27497 0.3647 0.0
C183 C 0.08938 0.26376 0.34129 0.0
C184 C 0.09093 0.25517 0.21254 0.0
H185 H 0.18212 0.23018 0.1712 0.0
H186 H 0.1565 0.23858 0.22013 0.0
H187 H 0.10264 0.25351 0.14353 0.0
H188 H 0.0353 0.2723 0.3112 0.0
H189 H 0.05435 0.25796 0.25243 0.0
H190 H 0.10826 0.23119 0.31748 0.0
C191 C 0.1529 0.233 0.18527 0.0
C192 C 0.10373 0.24834 0.1813 0.0
C193 C 0.16756 0.2283 0.15703 0.0
C194 C 0.05041 0.27007 0.31995 0.0
C195 C 0.0613 0.26191 0.2863 0.0
C196 C 0.10682 0.23618 0.2796 0.0
C197 C 0.13381 0.23076 0.16861 0.0
C198 C 0.11854 0.23589 0.19945 0.0
C199 C 0.08088 0.25848 0.29692 0.0
C200 C 0.0927 0.24957 0.2623 0.0
H201 H 0.14081 0.21329 0.05977 0.0
H202 H 0.11499 0.22194 0.10932 0.0
H203 H 0.13072 0.21964 0.26327 0.0
H204 H 0.08563 0.27558 0.40865 0.0
H205 H 0.1045 0.26176 0.35016 0.0
C206 C 0.27868 0.64546 0.64275 0.0
C207 C 0.27772 0.66412 0.65749 0.0
C208 C 0.27167 0.63016 0.6712 0.0
C209 C 0.23864 0.62007 0.76826 0.0
H210 H 0.26221 0.57003 0.77854 0.0
C211 C 0.21245 0.55944 0.89638 0.0
C212 C 0.20913 0.542 0.87571 0.0
C213 C 0.22261 0.57383 0.87235 0.0
C214 C 0.25546 0.58393 0.77583 0.0
H215 H 0.26942 0.68121 0.71474 0.0
H216 H 0.25777 0.65464 0.76469 0.0
H217 H 0.27664 0.59621 0.73151 0.0
H218 H 0.21405 0.52577 0.81419 0.0
H219 H 0.23192 0.5509 0.77225 0.0
H220 H 0.21755 0.60784 0.81269 0.0
C221 C 0.26334 0.6518 0.7305 0.0
C222 C 0.26366 0.59891 0.74874 0.0
C223 C 0.27013 0.66706 0.70191 0.0
C224 C 0.21652 0.53906 0.83108 0.0
C225 C 0.22683 0.55338 0.80722 0.0
C226 C 0.23057 0.60517 0.7956 0.0
C227 C 0.26372 0.63318 0.71522 0.0
C228 C 0.25532 0.61718 0.74453 0.0
C229 C 0.22967 0.57105 0.82719 0.0
C230 C 0.23885 0.58693 0.7996 0.0
H231 H 0.28439 0.64271 0.60865 0.0
H232 H 0.27202 0.61606 0.658 0.0
H233 H 0.23154 0.63379 0.76499 0.0
H234 H 0.20643 0.56237 0.92991 0.0
H235 H 0.22463 0.58728 0.88868 0.0
C236 C 0.86115 0.78616 0.13772 0.0
C237 C 0.84623 0.77394 0.12399 0.0
C238 C 0.87687 0.77912 0.1673 0.0
C239 C 0.90431 0.73596 0.20361 0.0
H240 H 0.91619 0.75807 0.32617 0.0
C241 C 0.95201 0.69642 0.3539 0.0
C242 C 0.96397 0.70685 0.38474 0.0
C243 C 0.93868 0.70567 0.32081 0.0
C244 C 0.91336 0.75191 0.29174 0.0
H245 H 0.83637 0.74471 0.12907 0.0
H246 H 0.86405 0.7324 0.17945 0.0
H247 H 0.89165 0.77264 0.26876 0.0
H248 H 0.97179 0.7352 0.4042 0.0
H249 H 0.94879 0.75153 0.34553 0.0
H250 H 0.92608 0.71545 0.22558 0.0
C251 C 0.86346 0.74742 0.16783 0.0
C252 C 0.89925 0.76026 0.25897 0.0
C253 C 0.8476 0.75449 0.13921 0.0
C254 C 0.96244 0.72679 0.38161 0.0
C255 C 0.94926 0.73612 0.34789 0.0
C256 C 0.91861 0.72781 0.23591 0.0
C257 C 0.87813 0.75969 0.18262 0.0
C258 C 0.89436 0.75211 0.21507 0.0
C259 C 0.93721 0.72567 0.31694 0.0
C260 C 0.92305 0.7354 0.28094 0.0
H261 H 0.86041 0.80122 0.12673 0.0
H262 H 0.88805 0.78883 0.17817 0.0
H263 H 0.90093 0.72956 0.1697 0.0
H264 H 0.9528 0.68101 0.35576 0.0
H265 H 0.92938 0.69705 0.29863 0.0
C266 C 0.7476 0.33782 0.63796 0.0
C267 C 0.73301 0.34098 0.60098 0.0
C268 C 0.75338 0.35236 0.66726 0.0
C269 C 0.75268 0.40423 0.67814 0.0
H270 H 0.75608 0.38964 0.81583 0.0
C271 C 0.7819 0.45261 0.82889 0.0
C272 C 0.77163 0.45213 0.87063 0.0
C273 C 0.7771 0.44038 0.79226 0.0
C274 C 0.75511 0.39396 0.7775 0.0
H275 H 0.71368 0.36226 0.56457 0.0
H276 H 0.7238 0.38766 0.61612 0.0
H277 H 0.74856 0.36571 0.75839 0.0
H278 H 0.74766 0.43917 0.90546 0.0
H279 H 0.73939 0.41799 0.84188 0.0
H280 H 0.75911 0.43262 0.69778 0.0
C281 C 0.73074 0.37388 0.62217 0.0
C282 C 0.75101 0.38022 0.74459 0.0
C283 C 0.72487 0.35928 0.59288 0.0
C284 C 0.75602 0.43978 0.87407 0.0
C285 C 0.7513 0.42758 0.83772 0.0
C286 C 0.75696 0.41802 0.71122 0.0
C287 C 0.74479 0.37044 0.66026 0.0
C288 C 0.74968 0.38519 0.69459 0.0
C289 C 0.76203 0.42744 0.79698 0.0
C290 C 0.75803 0.41301 0.76125 0.0
H291 H 0.75433 0.32398 0.64507 0.0
H292 H 0.76444 0.34939 0.6959 0.0
H293 H 0.75183 0.40842 0.63975 0.0
H294 H 0.79397 0.46201 0.82514 0.0
H295 H 0.78563 0.44053 0.76122 0.0
C296 C 0.64599 0.2888 0.37144 0.0
C297 C 0.66263 0.27769 0.38039 0.0
C298 C 0.63018 0.2819 0.34466 0.0
C299 C 0.60689 0.23784 0.31392 0.0
H300 H 0.58438 0.26603 0.19892 0.0
C301 C 0.53948 0.2121 0.20901 0.0
C302 C 0.54122 0.21056 0.15926 0.0
C303 C 0.55296 0.22209 0.23648 0.0
C304 C 0.59051 0.25808 0.23108 0.0
H305 H 0.67561 0.25054 0.36889 0.0
H306 H 0.64791 0.23842 0.32334 0.0
H307 H 0.61066 0.28005 0.24722 0.0
H308 H 0.55892 0.218 0.09992 0.0
H309 H 0.58197 0.23612 0.14746 0.0
H310 H 0.5869 0.21586 0.29796 0.0
C311 C 0.64718 0.25251 0.33658 0.0
C312 C 0.60541 0.26612 0.25877 0.0
C313 C 0.66306 0.25951 0.36243 0.0
C314 C 0.55659 0.21957 0.13745 0.0
C315 C 0.56996 0.22978 0.16486 0.0
C316 C 0.59182 0.22996 0.2868 0.0
C317 C 0.63062 0.26362 0.32738 0.0
C318 C 0.6139 0.25592 0.30001 0.0
C319 C 0.56843 0.23086 0.21478 0.0
C320 C 0.58363 0.2399 0.24481 0.0
H321 H 0.64527 0.30288 0.38468 0.0
H322 H 0.61751 0.29069 0.33809 0.0
H323 H 0.61317 0.22974 0.34569 0.0
H324 H 0.52783 0.20531 0.227 0.0
H325 H 0.55141 0.22276 0.27489 0.0
C326 C 0.22225 0.1446 0.90174 0.0
C327 C 0.22948 0.1632 0.89588 0.0
C328 C 0.23026 0.12971 0.87898 0.0
C329 C 0.27419 0.11599 0.82458 0.0
H330 H 0.24148 0.08125 0.75522 0.0
C331 C 0.30011 0.07174 0.67565 0.0
C332 C 0.29242 0.05357 0.6697 0.0
C333 C 0.29353 0.08313 0.71023 0.0
C334 C 0.25084 0.09058 0.7752 0.0
H335 H 0.25076 0.18065 0.86111 0.0
H336 H 0.26452 0.15478 0.82139 0.0
H337 H 0.22738 0.10513 0.80159 0.0
H338 H 0.27246 0.03269 0.69716 0.0
H339 H 0.26109 0.05255 0.75803 0.0
H340 H 0.29764 0.10169 0.79757 0.0
C341 C 0.25283 0.15166 0.84405 0.0
C342 C 0.24274 0.1043 0.80166 0.0
C343 C 0.2448 0.16654 0.86653 0.0
C344 C 0.27863 0.04666 0.70071 0.0
C345 C 0.27202 0.05808 0.73534 0.0
C346 C 0.28229 0.10226 0.79826 0.0
C347 C 0.24572 0.13307 0.85017 0.0
C348 C 0.25432 0.1174 0.82578 0.0
C349 C 0.27911 0.07661 0.73976 0.0
C350 C 0.27069 0.08965 0.77243 0.0
H351 H 0.2105 0.14149 0.92416 0.0
H352 H 0.22453 0.1155 0.88454 0.0
H353 H 0.2835 0.12566 0.8436 0.0
H354 H 0.31077 0.0775 0.65242 0.0
H355 H 0.29917 0.09738 0.71227 0.0
C356 C 0.35809 0.72489 0.44126 0.0
C357 C 0.34018 0.73392 0.43485 0.0
C358 C 0.37344 0.73212 0.41646 0.0
C359 C 0.39067 0.77569 0.35144 0.0
H360 H 0.42075 0.74064 0.28603 0.0
C361 C 0.43515 0.79944 0.19223 0.0
C362 C 0.45214 0.7897 0.18609 0.0
C363 C 0.42373 0.79359 0.22958 0.0
C364 C 0.41277 0.75061 0.30484 0.0
H365 H 0.3245 0.75782 0.39755 0.0
H366 H 0.35119 0.77027 0.35423 0.0
H367 H 0.39635 0.72831 0.33775 0.0
H368 H 0.47102 0.76685 0.21609 0.0
H369 H 0.45115 0.75679 0.28181 0.0
H370 H 0.40684 0.79803 0.31784 0.0
C371 C 0.35341 0.75771 0.37881 0.0
C372 C 0.39875 0.74353 0.3344 0.0
C373 C 0.33805 0.75045 0.40338 0.0
C374 C 0.45795 0.77459 0.21966 0.0
C375 C 0.44651 0.76874 0.25712 0.0
C376 C 0.40473 0.78278 0.32201 0.0
C377 C 0.37125 0.7486 0.38495 0.0
C378 C 0.38729 0.75601 0.35724 0.0
C379 C 0.42904 0.77789 0.2618 0.0
C380 C 0.41569 0.77034 0.29759 0.0
H381 H 0.36028 0.71217 0.46531 0.0
H382 H 0.38707 0.72488 0.42218 0.0
H383 H 0.38229 0.78565 0.36928 0.0
H384 H 0.43026 0.81116 0.16707 0.0
H385 H 0.41029 0.80085 0.23177 0.0
C386 C 0.75249 0.84552 0.88536 0.0
C387 C 0.77172 0.84524 0.90257 0.0
C388 C 0.74523 0.86041 0.8536 0.0
C389 C 0.75554 0.90944 0.80247 0.0
H390 H 0.71682 0.89627 0.7042 0.0
C391 C 0.72518 0.9615 0.64234 0.0
C392 C 0.70521 0.9629 0.63913 0.0
C393 C 0.73447 0.94736 0.67341 0.0
C394 C 0.72762 0.90014 0.73147 0.0
H395 H 0.79839 0.86056 0.90067 0.0
H396 H 0.78588 0.88634 0.84381 0.0
H397 H 0.73095 0.87142 0.7608 0.0
H398 H 0.67932 0.95068 0.66549 0.0
H399 H 0.69549 0.92574 0.71865 0.0
H400 H 0.75232 0.93822 0.77176 0.0
C401 C 0.77626 0.87525 0.85568 0.0
C402 C 0.73563 0.88594 0.76426 0.0
C403 C 0.78347 0.86045 0.88821 0.0
C404 C 0.69472 0.94989 0.6672 0.0
C405 C 0.70395 0.93559 0.69743 0.0
C406 C 0.7477 0.92362 0.76905 0.0
C407 C 0.75709 0.87528 0.83738 0.0
C408 C 0.74943 0.89042 0.80087 0.0
C409 C 0.7239 0.93423 0.701 0.0
C410 C 0.73344 0.91912 0.73382 0.0
H411 H 0.743 0.83414 0.89628 0.0
H412 H 0.73027 0.86018 0.84163 0.0
H413 H 0.76598 0.9135 0.83032 0.0
H414 H 0.73361 0.97157 0.62177 0.0
H415 H 0.74987 0.94658 0.67562 0.0
C416 C 0.85216 0.79305 0.88759 0.0
C417 C 0.83413 0.78443 0.88845 0.0
C418 C 0.86494 0.78817 0.85385 0.0
C419 C 0.87539 0.7499 0.77508 0.0
H420 H 0.90065 0.78915 0.69831 0.0
C421 C 0.90817 0.73373 0.5994 0.0
C422 C 0.92602 0.74156 0.59022 0.0
C423 C 0.8982 0.73957 0.63754 0.0
C424 C 0.8939 0.77801 0.7199 0.0
H425 H 0.81556 0.76377 0.85465 0.0
H426 H 0.83769 0.7554 0.79639 0.0
H427 H 0.88143 0.79802 0.7635 0.0
H428 H 0.94722 0.76202 0.6133 0.0
H429 H 0.92977 0.77218 0.68027 0.0
H430 H 0.8876 0.7299 0.73151 0.0
C431 C 0.84204 0.76581 0.82186 0.0
C432 C 0.88292 0.7831 0.75724 0.0
C433 C 0.82928 0.77075 0.85514 0.0
C434 C 0.93349 0.75571 0.61942 0.0
C435 C 0.92348 0.76158 0.65769 0.0
C436 C 0.88634 0.74484 0.73796 0.0
C437 C 0.86 0.77444 0.82076 0.0
C438 C 0.87324 0.7691 0.78454 0.0
C439 C 0.90584 0.75337 0.66756 0.0
C440 C 0.8954 0.75885 0.70926 0.0
H441 H 0.85635 0.80365 0.91267 0.0
H442 H 0.87873 0.79498 0.85395 0.0
H443 H 0.86842 0.73876 0.79615 0.0
H444 H 0.90193 0.7229 0.57745 0.0
H445 H 0.88446 0.73325 0.64353 0.0
C446 C 0.72363 0.36046 0.38396 0.0
C447 C 0.72629 0.34183 0.37025 0.0
C448 C 0.72988 0.37613 0.35578 0.0
C449 C 0.7343 0.40722 0.27657 0.0
H450 H 0.78037 0.40349 0.20897 0.0
C451 C 0.75207 0.46037 0.11919 0.0
C452 C 0.77123 0.4642 0.1111 0.0
C453 C 0.74734 0.44708 0.15606 0.0
C454 C 0.76764 0.40494 0.22818 0.0
H455 H 0.73747 0.32512 0.31578 0.0
H456 H 0.74784 0.35247 0.26577 0.0
H457 H 0.771 0.37691 0.26269 0.0
H458 H 0.80043 0.45798 0.13755 0.0
H459 H 0.79216 0.43517 0.2029 0.0
H460 H 0.73118 0.43542 0.24297 0.0
C461 C 0.74135 0.35497 0.29902 0.0
C462 C 0.76207 0.38952 0.2584 0.0
C463 C 0.73527 0.33926 0.3275 0.0
C464 C 0.78553 0.45525 0.14257 0.0
C465 C 0.78078 0.44204 0.17978 0.0
C466 C 0.73996 0.42269 0.24669 0.0
C467 C 0.73879 0.37361 0.31287 0.0
C468 C 0.74519 0.39035 0.28245 0.0
C469 C 0.76163 0.43739 0.18612 0.0
C470 C 0.75654 0.42166 0.22152 0.0
H471 H 0.71696 0.36297 0.41698 0.0
H472 H 0.72795 0.39022 0.36809 0.0
H473 H 0.72113 0.40835 0.29412 0.0
H474 H 0.74067 0.46697 0.09559 0.0
H475 H 0.73245 0.44376 0.15939 0.0
C476 C 0.14714 0.21653 0.87165 0.0
C477 C 0.16411 0.22695 0.87668 0.0
C478 C 0.13172 0.22376 0.84153 0.0
C479 C 0.11966 0.25945 0.73928 0.0
H480 H 0.0679 0.24867 0.77212 0.0
C481 C 0.0553 0.28829 0.6173 0.0
C482 C 0.04256 0.27403 0.60297 0.0
C483 C 0.0688 0.28459 0.65619 0.0
C484 C 0.08229 0.25181 0.7626 0.0
H485 H 0.17802 0.25335 0.85477 0.0
H486 H 0.15099 0.26616 0.80327 0.0
H487 H 0.09452 0.23825 0.8289 0.0
H488 H 0.03307 0.2452 0.62034 0.0
H489 H 0.05646 0.23886 0.68859 0.0
H490 H 0.10737 0.27302 0.67302 0.0
C491 C 0.14973 0.25217 0.82155 0.0
C492 C 0.09755 0.24574 0.79491 0.0
C493 C 0.16524 0.24483 0.85121 0.0
C494 C 0.04275 0.25645 0.63035 0.0
C495 C 0.05609 0.25284 0.66958 0.0
C496 C 0.1044 0.2657 0.70729 0.0
C497 C 0.13278 0.2417 0.81614 0.0
C498 C 0.11646 0.24921 0.78331 0.0
C499 C 0.06963 0.26666 0.68188 0.0
C500 C 0.08557 0.26171 0.71829 0.0
H501 H 0.14582 0.20266 0.8906 0.0
H502 H 0.11906 0.2151 0.83759 0.0
H503 H 0.13397 0.26213 0.72864 0.0
H504 H 0.05553 0.30199 0.59697 0.0
H505 H 0.07896 0.29555 0.66529 0.0
C506 C 0.26016 0.67658 0.38332 0.0
C507 C 0.27605 0.67244 0.41589 0.0
C508 C 0.25395 0.66362 0.34993 0.0
C509 C 0.27047 0.62442 0.28345 0.0
H510 H 0.21643 0.61633 0.25575 0.0
C511 C 0.24102 0.57366 0.14032 0.0
C512 C 0.22515 0.58033 0.11036 0.0
C513 C 0.24744 0.58344 0.18049 0.0
C514 C 0.23157 0.61855 0.26277 0.0
H515 H 0.29776 0.65123 0.43915 0.0
H516 H 0.28688 0.62855 0.38033 0.0
H517 H 0.22714 0.63572 0.32167 0.0
H518 H 0.20369 0.6026 0.09886 0.0
H519 H 0.215 0.61974 0.16827 0.0
H520 H 0.27486 0.60758 0.22381 0.0
C521 C 0.27931 0.64192 0.38077 0.0
C522 C 0.2377 0.62962 0.30062 0.0
C523 C 0.28546 0.65487 0.41459 0.0
C524 C 0.21591 0.59702 0.12127 0.0
C525 C 0.22231 0.60678 0.16133 0.0
C526 C 0.26432 0.61337 0.24542 0.0
C527 C 0.26351 0.64621 0.34802 0.0
C528 C 0.25719 0.63295 0.31085 0.0
C529 C 0.23809 0.60007 0.19156 0.0
C530 C 0.24478 0.6106 0.23411 0.0
H531 H 0.2525 0.68992 0.38334 0.0
H532 H 0.24187 0.66744 0.32479 0.0
H533 H 0.28557 0.62688 0.29021 0.0
H534 H 0.24844 0.56081 0.13297 0.0
H535 H 0.25954 0.57781 0.20326 0.0
C536 C 0.34122 0.74286 0.68653 0.0
C537 C 0.34164 0.72644 0.66049 0.0
C538 C 0.35738 0.74845 0.71403 0.0
C539 C 0.40118 0.72952 0.77806 0.0
H540 H 0.41703 0.78234 0.77486 0.0
C541 C 0.4665 0.75147 0.89578 0.0
C542 C 0.46434 0.76789 0.92095 0.0
C543 C 0.4535 0.74744 0.85753 0.0
C544 C 0.41272 0.76755 0.77645 0.0
H545 H 0.35945 0.70303 0.64308 0.0
H546 H 0.38753 0.71272 0.69154 0.0
H547 H 0.38989 0.77309 0.72206 0.0
H548 H 0.44746 0.7935 0.92393 0.0
H549 H 0.42455 0.78627 0.85823 0.0
H550 H 0.42342 0.72396 0.83348 0.0
C551 C 0.37468 0.72124 0.69058 0.0
C552 C 0.39719 0.76227 0.74617 0.0
C553 C 0.35859 0.71573 0.66272 0.0
C554 C 0.44955 0.78074 0.90524 0.0
C555 C 0.43642 0.77661 0.86735 0.0
C556 C 0.41657 0.73481 0.80861 0.0
C557 C 0.37425 0.73766 0.71647 0.0
C558 C 0.39118 0.74322 0.74697 0.0
C559 C 0.43791 0.75962 0.84396 0.0
C560 C 0.42247 0.75391 0.80852 0.0
H561 H 0.32844 0.75149 0.68545 0.0
H562 H 0.35659 0.76107 0.73405 0.0
H563 H 0.39672 0.71477 0.77989 0.0
H564 H 0.47787 0.74138 0.90665 0.0
H565 H 0.45538 0.73448 0.83952 0.0
C566 C 0.77637 0.82867 0.18525 0.0
C567 C 0.78571 0.83498 0.14392 0.0
C568 C 0.77331 0.84095 0.22122 0.0
C569 C 0.76919 0.89118 0.24581 0.0
H570 H 0.77772 0.8711 0.37932 0.0
C571 C 0.75647 0.93618 0.4081 0.0
C572 C 0.74655 0.9269 0.44518 0.0
C573 C 0.7634 0.9259 0.37158 0.0
C574 C 0.77516 0.8769 0.34225 0.0
H575 H 0.7988 0.85946 0.10777 0.0
H576 H 0.79332 0.88104 0.17101 0.0
H577 H 0.78559 0.85167 0.31419 0.0
H578 H 0.73644 0.89949 0.47336 0.0
H579 H 0.74835 0.88167 0.40977 0.0
H580 H 0.75835 0.91627 0.274 0.0
C581 C 0.78841 0.86647 0.17523 0.0
C582 C 0.77969 0.86577 0.30493 0.0
C583 C 0.79158 0.8541 0.13911 0.0
C584 C 0.74405 0.90709 0.44545 0.0
C585 C 0.75098 0.89684 0.40908 0.0
C586 C 0.76461 0.90233 0.28325 0.0
C587 C 0.77945 0.85992 0.21695 0.0
C588 C 0.77638 0.87261 0.25628 0.0
C589 C 0.76062 0.90612 0.37152 0.0
C590 C 0.76718 0.89514 0.33187 0.0
H591 H 0.77151 0.81411 0.19026 0.0
H592 H 0.76601 0.83557 0.25242 0.0
H593 H 0.76639 0.89679 0.20866 0.0
H594 H 0.75867 0.95143 0.40687 0.0
H595 H 0.77093 0.93343 0.34342 0.0
C596 C 0.67545 0.26325 0.65097 0.0
C597 C 0.67137 0.27861 0.61666 0.0
C598 C 0.66238 0.25759 0.68461 0.0
C599 C 0.62273 0.2753 0.74778 0.0
H600 H 0.61494 0.22163 0.78181 0.0
C601 C 0.57131 0.24803 0.89198 0.0
C602 C 0.57798 0.23269 0.92385 0.0
C603 C 0.58131 0.25387 0.8517 0.0
C604 C 0.61707 0.23667 0.77301 0.0
H605 H 0.65013 0.29993 0.59057 0.0
H606 H 0.62726 0.29002 0.64974 0.0
H607 H 0.63458 0.2312 0.71549 0.0
H608 H 0.60053 0.21165 0.93875 0.0
H609 H 0.61802 0.22196 0.86917 0.0
H610 H 0.60552 0.28076 0.80603 0.0
C611 C 0.64068 0.28244 0.6505 0.0
C612 C 0.62829 0.24215 0.73493 0.0
C613 C 0.65374 0.28804 0.61647 0.0
C614 C 0.59493 0.22346 0.91484 0.0
C615 C 0.6049 0.22928 0.87469 0.0
C616 C 0.61153 0.26981 0.78603 0.0
C617 C 0.64491 0.26719 0.68502 0.0
C618 C 0.63152 0.26151 0.72243 0.0
C619 C 0.59817 0.24446 0.84245 0.0
C620 C 0.60886 0.25042 0.79962 0.0
H621 H 0.68884 0.2556 0.65216 0.0
H622 H 0.66617 0.24594 0.71111 0.0
H623 H 0.6251 0.29032 0.73926 0.0
H624 H 0.55828 0.25543 0.89786 0.0
H625 H 0.57568 0.26553 0.82739 0.0
C626 C 0.23789 0.16168 0.16836 0.0
C627 C 0.2272 0.15942 0.12447 0.0
C628 C 0.24364 0.14582 0.19895 0.0
C629 C 0.26195 0.10988 0.24735 0.0
H630 H 0.22605 0.06858 0.26424 0.0
C631 C 0.27978 0.04542 0.3821 0.0
C632 C 0.2652 0.0398 0.4121 0.0
C633 C 0.27588 0.05777 0.34091 0.0
C634 C 0.23624 0.08 0.26003 0.0
H635 H 0.21468 0.13862 0.07769 0.0
H636 H 0.22504 0.11099 0.13052 0.0
H637 H 0.21802 0.09521 0.20579 0.0
H638 H 0.23491 0.042 0.42094 0.0
H639 H 0.2282 0.06372 0.35006 0.0
H640 H 0.27972 0.09519 0.30347 0.0
C641 C 0.2286 0.12504 0.14189 0.0
C642 C 0.23173 0.09519 0.22605 0.0
C643 C 0.22272 0.1409 0.11149 0.0
C644 C 0.24649 0.04604 0.39869 0.0
C645 C 0.24262 0.05844 0.35774 0.0
C646 C 0.2664 0.09476 0.28158 0.0
C647 C 0.23899 0.12729 0.18621 0.0
C648 C 0.2444 0.11047 0.21982 0.0
C649 C 0.25732 0.06481 0.32894 0.0
C650 C 0.25346 0.07978 0.28892 0.0
H651 H 0.24154 0.17573 0.17958 0.0
H652 H 0.25135 0.14812 0.23316 0.0
H653 H 0.27219 0.12124 0.24294 0.0
H654 H 0.29433 0.04076 0.39121 0.0
H655 H 0.28748 0.0621 0.31901 0.0
C656 C 0.21687 0.29111 0.03846 0.0
C657 C 0.21718 0.28069 0.99704 0.0
C658 C 0.21289 0.31068 0.03397 0.0
C659 C 0.18826 0.34681 0.95089 0.0
H660 H 0.21907 0.38363 0.01832 0.0
C661 C 0.18008 0.42681 0.89991 0.0
C662 C 0.18096 0.43929 0.93732 0.0
C663 C 0.18492 0.40763 0.90951 0.0
C664 C 0.21017 0.37351 0.99974 0.0
H665 H 0.21381 0.28286 0.91839 0.0
H666 H 0.20685 0.31673 0.91089 0.0
H667 H 0.2266 0.34966 0.03207 0.0
H668 H 0.18787 0.44148 0.01411 0.0
H669 H 0.19598 0.40786 0.03108 0.0
H670 H 0.1717 0.3704 0.91885 0.0
C671 C 0.20957 0.30977 0.94677 0.0
C672 C 0.21451 0.35408 0.0076 0.0
C673 C 0.21369 0.29035 0.95116 0.0
C674 C 0.18708 0.43223 0.98447 0.0
C675 C 0.19181 0.41297 0.99416 0.0
C676 C 0.18385 0.36614 0.94331 0.0
C677 C 0.20894 0.32011 0.98806 0.0
C678 C 0.20376 0.34059 0.98263 0.0
C679 C 0.1906 0.4004 0.95684 0.0
C680 C 0.19491 0.37977 0.96701 0.0
H681 H 0.21953 0.28414 0.07432 0.0
H682 H 0.21244 0.31833 0.06641 0.0
H683 H 0.17951 0.33669 0.93186 0.0
H684 H 0.17558 0.43183 0.86311 0.0
H685 H 0.18423 0.39846 0.8797 0.0
C686 C 0.2122 0.71678 0.48523 0.0
C687 C 0.22124 0.72085 0.53012 0.0
C688 C 0.19283 0.71256 0.48112 0.0
C689 C 0.14767 0.71844 0.53555 0.0
H690 H 0.13287 0.67353 0.46896 0.0
C691 C 0.07022 0.69016 0.52513 0.0
C692 C 0.06352 0.68215 0.48221 0.0
C693 C 0.08934 0.69537 0.53226 0.0
C694 C 0.13668 0.68629 0.48701 0.0
H695 H 0.2168 0.72413 0.6057 0.0
H696 H 0.18271 0.71697 0.59815 0.0
H697 H 0.16635 0.68197 0.47912 0.0
H698 H 0.07142 0.67392 0.41246 0.0
H699 H 0.1045 0.68352 0.42411 0.0
H700 H 0.11795 0.72304 0.54248 0.0
C701 C 0.19079 0.71701 0.56632 0.0
C702 C 0.15589 0.69104 0.49303 0.0
C703 C 0.21029 0.72102 0.57063 0.0
C704 C 0.07619 0.67988 0.44612 0.0
C705 C 0.09521 0.68527 0.453 0.0
C706 C 0.12837 0.71379 0.52906 0.0
C707 C 0.18196 0.71248 0.52163 0.0
C708 C 0.16157 0.70722 0.51705 0.0
C709 C 0.10212 0.69284 0.49642 0.0
C710 C 0.12263 0.69772 0.50438 0.0
H711 H 0.22015 0.71647 0.45326 0.0
H712 H 0.18633 0.70932 0.44612 0.0
H713 H 0.15168 0.73106 0.55394 0.0
H714 H 0.06081 0.69201 0.55372 0.0
H715 H 0.09416 0.70094 0.56635 0.0
C716 C 0.78266 0.71021 0.05106 0.0
C717 C 0.78352 0.72228 0.00869 0.0
C718 C 0.78246 0.69044 0.04883 0.0
C719 C 0.79393 0.65189 0.9719 0.0
H720 H 0.75734 0.62307 0.04523 0.0
C721 C 0.79159 0.56951 0.9847 0.0
C722 C 0.77346 0.56124 0.97948 0.0
C723 C 0.79349 0.58907 0.98958 0.0
C724 C 0.76758 0.63093 0.02441 0.0
H725 H 0.78526 0.7229 0.93078 0.0
H726 H 0.78483 0.68843 0.92701 0.0
H727 H 0.75965 0.65743 0.05087 0.0
H728 H 0.74309 0.567 0.97549 0.0
H729 H 0.74642 0.6011 0.98391 0.0
H730 H 0.80161 0.62541 0.94476 0.0
C731 C 0.78443 0.69429 0.96198 0.0
C732 C 0.76905 0.65057 0.02803 0.0
C733 C 0.78455 0.71407 0.96416 0.0
C734 C 0.75727 0.57292 0.97951 0.0
C735 C 0.75917 0.59244 0.98462 0.0
C736 C 0.79253 0.63221 0.96846 0.0
C737 C 0.78319 0.68227 0.00423 0.0
C738 C 0.78215 0.66129 0.00159 0.0
C739 C 0.7773 0.60075 0.9896 0.0
C740 C 0.77924 0.62154 0.99442 0.0
H741 H 0.78192 0.716 0.08603 0.0
H742 H 0.78174 0.68154 0.08209 0.0
H743 H 0.80428 0.65974 0.9514 0.0
H744 H 0.80435 0.5609 0.98488 0.0
H745 H 0.80765 0.59503 0.99383 0.0
C746 C 0.79414 0.28335 0.44489 0.0
C747 C 0.78562 0.28283 0.48932 0.0
C748 C 0.81394 0.28291 0.44367 0.0
C749 C 0.85724 0.26779 0.51822 0.0
H750 H 0.88293 0.29833 0.42099 0.0
C751 C 0.9351 0.25388 0.47831 0.0
C752 C 0.94682 0.26977 0.47007 0.0
C753 C 0.91557 0.2562 0.48204 0.0
C754 C 0.87599 0.28983 0.44863 0.0
H755 H 0.79137 0.28188 0.56735 0.0
H756 H 0.82589 0.28124 0.56506 0.0
H757 H 0.84861 0.30173 0.42544 0.0
H758 H 0.94723 0.3006 0.45953 0.0
H759 H 0.91312 0.30465 0.46633 0.0
H760 H 0.88462 0.256 0.54167 0.0
C761 C 0.81721 0.28173 0.53121 0.0
C762 C 0.85631 0.29163 0.45085 0.0
C763 C 0.79741 0.2822 0.53246 0.0
C764 C 0.93858 0.28805 0.46576 0.0
C765 C 0.91903 0.29038 0.46941 0.0
C766 C 0.87691 0.26596 0.51593 0.0
C767 C 0.82569 0.28192 0.48682 0.0
C768 C 0.8467 0.28056 0.4855 0.0
C769 C 0.9073 0.27447 0.47756 0.0
C770 C 0.88649 0.27687 0.48092 0.0
H771 H 0.78554 0.28385 0.41092 0.0
H772 H 0.82003 0.28287 0.40889 0.0
H773 H 0.85025 0.25892 0.54504 0.0
H774 H 0.94099 0.23959 0.4817 0.0
H775 H 0.90689 0.24365 0.48769 0.0
C776 C 0.71707 0.21303 0.55163 0.0
C777 C 0.7206 0.222 0.50624 0.0
C778 C 0.71318 0.19359 0.55645 0.0
C779 C 0.71873 0.14832 0.50146 0.0
H780 H 0.67504 0.13314 0.57249 0.0
C781 C 0.68978 0.07113 0.51071 0.0
C782 C 0.68233 0.06411 0.55411 0.0
C783 C 0.69527 0.09019 0.50436 0.0
C784 C 0.68747 0.13705 0.55321 0.0
H785 H 0.72326 0.21734 0.43051 0.0
H786 H 0.71661 0.18319 0.43925 0.0
H787 H 0.68329 0.16666 0.56218 0.0
H788 H 0.67547 0.07137 0.62555 0.0
H789 H 0.68554 0.10436 0.61513 0.0
H790 H 0.72313 0.11866 0.49316 0.0
C791 C 0.71686 0.19135 0.47096 0.0
C792 C 0.69213 0.15629 0.54713 0.0
C793 C 0.72058 0.21091 0.46597 0.0
C794 C 0.68099 0.07638 0.59151 0.0
C795 C 0.68665 0.09536 0.58536 0.0
C796 C 0.71417 0.129 0.50793 0.0
C797 C 0.71286 0.18258 0.51615 0.0
C798 C 0.70784 0.16213 0.5214 0.0
C799 C 0.69358 0.1026 0.54144 0.0
C800 C 0.69852 0.12312 0.5341 0.0
H801 H 0.71695 0.22107 0.58348 0.0
H802 H 0.71038 0.18715 0.59183 0.0
H803 H 0.73101 0.15244 0.48176 0.0
H804 H 0.69093 0.06203 0.48114 0.0
H805 H 0.70035 0.09529 0.46988 0.0
C806 C 0.29414 0.21969 0.9781 0.0
C807 C 0.28312 0.2183 0.01857 0.0
C808 C 0.31392 0.21739 0.98382 0.0
C809 C 0.35476 0.21697 0.07648 0.0
H810 H 0.37946 0.187 0.9866 0.0
C811 C 0.42892 0.18293 0.1193 0.0
C812 C 0.44168 0.18399 0.08247 0.0
C813 C 0.41008 0.18899 0.10967 0.0
C814 C 0.3728 0.1956 0.01163 0.0
H815 H 0.28439 0.21344 0.09687 0.0
H816 H 0.31864 0.20906 0.10661 0.0
H817 H 0.34554 0.19421 0.97289 0.0
H818 H 0.4447 0.19237 0.00668 0.0
H819 H 0.41164 0.20281 0.9898 0.0
H820 H 0.38194 0.21783 0.11597 0.0
C821 C 0.3121 0.21233 0.07051 0.0
C822 C 0.35337 0.19978 0.00374 0.0
C823 C 0.29239 0.21473 0.06485 0.0
C824 C 0.43521 0.19137 0.03584 0.0
C825 C 0.41629 0.19726 0.02609 0.0
C826 C 0.37413 0.21266 0.08455 0.0
C827 C 0.32313 0.21357 0.0301 0.0
C828 C 0.34406 0.2103 0.03644 0.0
C829 C 0.40352 0.19609 0.06291 0.0
C830 C 0.38329 0.20174 0.05254 0.0
H831 H 0.28749 0.22251 0.94193 0.0
H832 H 0.32201 0.21867 0.95196 0.0
H833 H 0.34814 0.22545 0.10184 0.0
H834 H 0.43346 0.17732 0.15561 0.0
H835 H 0.4005 0.18772 0.13863 0.0
C836 C 0.27997 0.7984 0.4989 0.0
C837 C 0.28127 0.7867 0.54223 0.0
C838 C 0.27911 0.8182 0.49989 0.0
C839 C 0.28936 0.85765 0.57857 0.0
H840 H 0.25208 0.88516 0.49067 0.0
C841 C 0.28507 0.93987 0.55998 0.0
C842 C 0.26677 0.94801 0.55769 0.0
C843 C 0.28737 0.92027 0.55716 0.0
C844 C 0.2625 0.87767 0.51559 0.0
H845 H 0.28308 0.78679 0.62065 0.0
H846 H 0.2815 0.82129 0.62221 0.0
H847 H 0.25537 0.85076 0.48788 0.0
H848 H 0.23653 0.94195 0.55053 0.0
H849 H 0.24056 0.90774 0.54583 0.0
H850 H 0.29623 0.88452 0.6069 0.0
C851 C 0.28127 0.81512 0.58749 0.0
C852 C 0.26453 0.858 0.51362 0.0
C853 C 0.28206 0.79532 0.58655 0.0
C854 C 0.25083 0.93613 0.55234 0.0
C855 C 0.25313 0.91654 0.54935 0.0
C856 C 0.28738 0.87734 0.5804 0.0
C857 C 0.2796 0.82677 0.54418 0.0
C858 C 0.27791 0.84776 0.54527 0.0
C859 C 0.27143 0.90839 0.55181 0.0
C860 C 0.27385 0.88755 0.54912 0.0
H861 H 0.27939 0.79228 0.4641 0.0
H862 H 0.27808 0.82681 0.4659 0.0
H863 H 0.29991 0.85019 0.60314 0.0
H864 H 0.29766 0.94863 0.56399 0.0
H865 H 0.30166 0.91444 0.55863 0.0
C866 C 0.71411 0.79061 0.0658 0.0
C867 C 0.72231 0.78308 0.0265 0.0
C868 C 0.69434 0.79056 0.06856 0.0
C869 C 0.64878 0.78301 0.99428 0.0
H870 H 0.62828 0.77485 0.12015 0.0
C871 C 0.57275 0.75605 0.02656 0.0
C872 C 0.56185 0.76767 0.05331 0.0
C873 C 0.5921 0.75963 0.02245 0.0
C874 C 0.63386 0.77729 0.08485 0.0
H875 H 0.71628 0.76936 0.95964 0.0
H876 H 0.68207 0.76837 0.9655 0.0
H877 H 0.66262 0.77764 0.11481 0.0
H878 H 0.56263 0.79203 0.0971 0.0
H879 H 0.59678 0.79786 0.09125 0.0
H880 H 0.61991 0.78154 0.96458 0.0
C881 C 0.69068 0.77505 0.99337 0.0
C882 C 0.65353 0.77901 0.08166 0.0
C883 C 0.71037 0.77547 0.99013 0.0
C884 C 0.57069 0.7829 0.0761 0.0
C885 C 0.59018 0.7862 0.07294 0.0
C886 C 0.62918 0.78086 0.99749 0.0
C887 C 0.68234 0.78261 0.03258 0.0
C888 C 0.6613 0.78175 0.03627 0.0
C889 C 0.60099 0.77462 0.04593 0.0
C890 C 0.62159 0.77788 0.04276 0.0
H891 H 0.72297 0.79673 0.09418 0.0
H892 H 0.68851 0.79686 0.09884 0.0
H893 H 0.65408 0.7856 0.95874 0.0
H894 H 0.56628 0.74426 0.00849 0.0
H895 H 0.60023 0.75048 0.00164 0.0
loop_
_geom_bond_atom_site_label_1
_geom_bond_atom_site_label_2
_geom_bond_distance
_geom_bond_site_symmetry_2
_ccdc_geom_bond_type
Sc0 O3 2.025 . S
Sc0 O10 2.105 . S
Sc0 O13 2.105 . S
Sc0 O16 2.105 . S
Sc0 O19 2.105 . S
Sc1 O3 2.025 . S
Sc1 O11 2.105 . S
Sc1 O15 2.105 1_554 S
Sc1 O17 2.105 . S
Sc1 O21 2.105 1_554 S
Sc2 O3 2.025 1_556 S
Sc2 O12 2.105 . S
Sc2 O14 2.105 . S
Sc2 O18 2.105 . S
Sc2 O20 2.105 . S
O3 Sc0 2.025 . S
O3 Sc1 2.025 . S
O3 Sc2 2.025 1_554 S
C4 O10 1.268 . S
C4 O20 1.268 1_554 S
C5 O11 1.268 . S
C5 O19 1.268 . S
C6 O12 1.268 . S
C6 O21 1.268 . S
C7 O13 1.268 . S
C7 O17 1.268 . S
C8 O14 1.268 1_554 S
C8 O16 1.268 . S
C9 O15 1.268 . S
C9 O18 1.268 . S
O10 Sc0 2.105 . S
O10 C4 1.268 . S
O11 Sc1 2.105 . S
O11 C5 1.268 . S
O12 Sc2 2.105 . S
O12 C6 1.268 . S
O13 Sc0 2.105 . S
O13 C7 1.268 . S
O14 Sc2 2.105 . S
O14 C8 1.268 1_556 S
O15 Sc1 2.105 1_556 S
O15 C9 1.268 . S
O16 Sc0 2.105 . S
O16 C8 1.268 . S
O17 Sc1 2.105 . S
O17 C7 1.268 . S
O18 Sc2 2.105 . S
O18 C9 1.268 . S
O19 Sc0 2.105 . S
O19 C5 1.268 . S
O20 Sc2 2.105 . S
O20 C4 1.268 1_556 S
O21 Sc1 2.105 1_556 S
O21 C6 1.268 . S
Sc22 O25 2.025 . S
Sc22 O32 2.105 . S
Sc22 O35 2.105 . S
Sc22 O38 2.105 . S
Sc22 O41 2.105 . S
Sc23 O25 2.025 . S
Sc23 O33 2.105 . S
Sc23 O37 2.105 . S
Sc23 O39 2.105 . S
Sc23 O43 2.105 . S
Sc24 O25 2.025 . S
Sc24 O34 2.105 . S
Sc24 O36 2.105 . S
Sc24 O40 2.105 . S
Sc24 O42 2.105 . S
O25 Sc22 2.025 . S
O25 Sc23 2.025 . S
O25 Sc24 2.025 . S
C26 O32 1.268 . S
C26 O42 1.268 . S
C27 O33 1.268 . S
C27 O41 1.268 . S
C28 O34 1.268 . S
C28 O43 1.268 . S
C29 O35 1.268 . S
C29 O39 1.268 . S
C30 O36 1.268 . S
C30 O38 1.268 . S
C31 O37 1.268 . S
C31 O40 1.268 . S
O32 Sc22 2.105 . S
O32 C26 1.268 . S
O33 Sc23 2.105 . S
O33 C27 1.268 . S
O34 Sc24 2.105 . S
O34 C28 1.268 . S
O35 Sc22 2.105 . S
O35 C29 1.268 . S
O36 Sc24 2.105 . S
O36 C30 1.268 . S
O37 Sc23 2.105 . S
O37 C31 1.268 . S
O38 Sc22 2.105 . S
O38 C30 1.268 . S
O39 Sc23 2.105 . S
O39 C29 1.268 . S
O40 Sc24 2.105 . S
O40 C31 1.268 . S
O41 Sc22 2.105 . S
O41 C27 1.268 . S
O42 Sc24 2.105 . S
O42 C26 1.268 . S
O43 Sc23 2.105 . S
O43 C28 1.268 . S
Sc44 O47 2.025 1_556 S
Sc44 O54 2.105 . S
Sc44 O57 2.105 . S
Sc44 O60 2.105 . S
Sc44 O63 2.105 . S
Sc45 O47 2.025 . S
Sc45 O55 2.105 1_554 S
Sc45 O59 2.105 . S
Sc45 O61 2.105 1_554 S
Sc45 O65 2.105 . S
Sc46 O47 2.025 . S
Sc46 O56 2.105 . S
Sc46 O58 2.105 . S
Sc46 O62 2.105 . S
Sc46 O64 2.105 . S
O47 Sc44 2.025 1_554 S
O47 Sc45 2.025 . S
O47 Sc46 2.025 . S
C48 O54 1.268 1_554 S
C48 O64 1.268 . S
C49 O55 1.268 . S
C49 O63 1.268 . S
C50 O56 1.268 . S
C50 O65 1.268 . S
C51 O57 1.268 . S
C51 O61 1.268 . S
C52 O58 1.268 . S
C52 O60 1.268 1_554 S
C53 O59 1.268 . S
C53 O62 1.268 . S
O54 Sc44 2.105 . S
O54 C48 1.268 1_556 S
O55 Sc45 2.105 1_556 S
O55 C49 1.268 . S
O56 Sc46 2.105 . S
O56 C50 1.268 . S
O57 Sc44 2.105 . S
O57 C51 1.268 . S
O58 Sc46 2.105 . S
O58 C52 1.268 . S
O59 Sc45 2.105 . S
O59 C53 1.268 . S
O60 Sc44 2.105 . S
O60 C52 1.268 1_556 S
O61 Sc45 2.105 1_556 S
O61 C51 1.268 . S
O62 Sc46 2.105 . S
O62 C53 1.268 . S
O63 Sc44 2.105 . S
O63 C49 1.268 . S
O64 Sc46 2.105 . S
O64 C48 1.268 . S
O65 Sc45 2.105 . S
O65 C50 1.268 . S
Sc66 O69 2.025 . S
Sc66 O76 2.105 . S
Sc66 O79 2.105 . S
Sc66 O82 2.105 . S
Sc66 O85 2.105 . S
Sc67 O69 2.025 . S
Sc67 O77 2.105 . S
Sc67 O81 2.105 . S
Sc67 O83 2.105 . S
Sc67 O87 2.105 . S
Sc68 O69 2.025 . S
Sc68 O78 2.105 . S
Sc68 O80 2.105 . S
Sc68 O84 2.105 . S
Sc68 O86 2.105 . S
O69 Sc66 2.025 . S
O69 Sc67 2.025 . S
O69 Sc68 2.025 . S
C70 O76 1.268 . S
C70 O86 1.268 . S
C71 O77 1.268 . S
C71 O85 1.268 . S
C72 O78 1.268 . S
C72 O87 1.268 . S
C73 O79 1.268 . S
C73 O83 1.268 . S
C74 O80 1.268 . S
C74 O82 1.268 . S
C75 O81 1.268 . S
C75 O84 1.268 . S
O76 Sc66 2.105 . S
O76 C70 1.268 . S
O77 Sc67 2.105 . S
O77 C71 1.268 . S
O78 Sc68 2.105 . S
O78 C72 1.268 . S
O79 Sc66 2.105 . S
O79 C73 1.268 . S
O80 Sc68 2.105 . S
O80 C74 1.268 . S
O81 Sc67 2.105 . S
O81 C75 1.268 . S
O82 Sc66 2.105 . S
O82 C74 1.268 . S
O83 Sc67 2.105 . S
O83 C73 1.268 . S
O84 Sc68 2.105 . S
O84 C75 1.268 . S
O85 Sc66 2.105 . S
O85 C71 1.268 . S
O86 Sc68 2.105 . S
O86 C70 1.268 . S
O87 Sc67 2.105 . S
O87 C72 1.268 . S
O88 Cd89 2.300 1_556 S
O88 C95 1.275 . S
Cd89 O88 2.300 1_554 S
Cd89 O97 2.381 1_554 S
Cd89 O98 2.378 . S
O90 Cd91 2.385 1_556 S
O90 C95 1.255 . S
Cd91 O90 2.385 1_554 S
Cd91 O92 2.317 . S
O92 Cd91 2.317 . S
O92 C93 1.232 . S
C93 O92 1.232 . S
C93 O94 1.218 . S
O94 C93 1.218 . S
C95 O88 1.275 . S
C95 O90 1.255 . S
C96 O97 1.258 1_554 S
C96 O98 1.256 . S
O97 Cd89 2.381 1_556 S
O97 C96 1.258 1_556 S
O98 Cd89 2.378 . S
O98 C96 1.256 . S
O99 Cd100 2.300 1_655 S
O99 C106 1.275 . S
Cd100 O99 2.300 1_455 S
Cd100 O108 2.381 . S
Cd100 O109 2.378 . S
O101 Cd102 2.385 . S
O101 C106 1.255 . S
Cd102 O101 2.385 . S
Cd102 O103 2.317 . S
O103 Cd102 2.317 . S
O103 C104 1.232 . S
C104 O103 1.232 . S
C104 O105 1.218 . S
O105 C104 1.218 . S
C106 O99 1.275 . S
C106 O101 1.255 . S
C107 O108 1.258 . S
C107 O109 1.256 . S
O108 Cd100 2.381 . S
O108 C107 1.258 . S
O109 Cd100 2.378 . S
O109 C107 1.256 . S
O110 Cd111 2.300 . S
O110 C117 1.275 . S
Cd111 O110 2.300 . S
Cd111 O119 2.381 . S
Cd111 O120 2.378 1_554 S
O112 Cd113 2.385 1_554 S
O112 C117 1.255 . S
Cd113 O112 2.385 1_556 S
Cd113 O114 2.317 . S
O114 Cd113 2.317 . S
O114 C115 1.232 . S
C115 O114 1.232 . S
C115 O116 1.218 . S
O116 C115 1.218 . S
C117 O110 1.275 . S
C117 O112 1.255 . S
C118 O119 1.258 . S
C118 O120 1.256 1_554 S
O119 Cd111 2.381 . S
O119 C118 1.258 . S
O120 Cd111 2.378 1_556 S
O120 C118 1.256 1_556 S
O121 Cd122 2.298 . S
O121 C128 1.275 . S
Cd122 O121 2.298 . S
Cd122 O130 2.386 1_455 S
Cd122 O131 2.383 1_455 S
O123 Cd124 2.385 . S
O123 C128 1.255 . S
Cd124 O123 2.385 . S
Cd124 O125 2.317 . S
O125 Cd124 2.317 . S
O125 C126 1.232 . S
C126 O125 1.232 . S
C126 O127 1.218 . S
O127 C126 1.218 . S
C128 O121 1.275 . S
C128 O123 1.255 . S
C129 O130 1.258 . S
C129 O131 1.256 . S
O130 Cd122 2.386 1_655 S
O130 C129 1.258 . S
O131 Cd122 2.383 1_655 S
O131 C129 1.256 . S
O132 Cd133 2.300 1_565 S
O132 C139 1.275 . S
Cd133 O132 2.300 1_545 S
Cd133 O141 2.381 . S
Cd133 O142 2.378 . S
O134 Cd135 2.385 . S
O134 C139 1.255 . S
Cd135 O134 2.385 . S
Cd135 O136 2.317 . S
O136 Cd135 2.317 . S
O136 C137 1.232 . S
C137 O136 1.232 . S
C137 O138 1.218 . S
O138 C137 1.218 . S
C139 O132 1.275 . S
C139 O134 1.255 . S
C140 O141 1.258 . S
C140 O142 1.256 . S
O141 Cd133 2.381 . S
O141 C140 1.258 . S
O142 Cd133 2.378 . S
O142 C140 1.256 . S
O143 Cd144 2.300 . S
O143 C150 1.275 . S
Cd144 O143 2.300 . S
Cd144 O152 2.381 . S
Cd144 O153 2.378 1_554 S
O145 Cd146 2.385 1_554 S
O145 C150 1.255 . S
Cd146 O145 2.385 1_556 S
Cd146 O147 2.317 . S
O147 Cd146 2.317 . S
O147 C148 1.232 . S
C148 O147 1.232 . S
C148 O149 1.218 . S
O149 C148 1.218 . S
C150 O143 1.275 . S
C150 O145 1.255 . S
C151 O152 1.258 . S
C151 O153 1.256 1_554 S
O152 Cd144 2.381 . S
O152 C151 1.258 . S
O153 Cd144 2.378 1_556 S
O153 C151 1.256 1_556 S
O154 Cd155 2.296 1_545 S
O154 C161 1.275 . S
Cd155 O154 2.296 1_565 S
Cd155 O163 2.389 . S
Cd155 O164 2.386 . S
O156 Cd157 2.385 . S
O156 C161 1.255 . S
Cd157 O156 2.385 . S
Cd157 O158 2.317 . S
O158 Cd157 2.317 . S
O158 C159 1.232 . S
C159 O158 1.232 . S
C159 O160 1.218 . S
O160 C159 1.218 . S
C161 O154 1.275 . S
C161 O156 1.255 . S
C162 O163 1.258 . S
C162 O164 1.256 . S
O163 Cd155 2.389 . S
O163 C162 1.258 . S
O164 Cd155 2.386 . S
O164 C162 1.256 . S
O165 Cd166 2.300 1_556 S
O165 C172 1.275 . S
Cd166 O165 2.300 1_554 S
Cd166 O174 2.381 1_554 S
Cd166 O175 2.378 . S
O167 Cd168 2.385 1_556 S
O167 C172 1.255 . S
Cd168 O167 2.385 1_554 S
Cd168 O169 2.317 . S
O169 Cd168 2.317 . S
O169 C170 1.232 . S
C170 O169 1.232 . S
C170 O171 1.218 . S
O171 C170 1.218 . S
C172 O165 1.275 . S
C172 O167 1.255 . S
C173 O174 1.258 1_554 S
C173 O175 1.256 . S
O174 Cd166 2.381 1_556 S
O174 C173 1.258 1_556 S
O175 Cd166 2.378 . S
O175 C173 1.256 . S
C176 C177 1.349 . S
C176 C178 1.327 . S
C176 H201 0.950 . S
C177 C176 1.349 . S
C177 C193 1.349 . S
C178 C176 1.327 . S
C178 C197 1.429 . S
C178 H202 0.950 . S
C179 C196 1.574 . S
C179 C198 1.368 . S
C179 H203 0.949 . S
H180 C184 0.949 . S
C181 C182 1.349 . S
C181 C183 1.327 . S
C181 H204 0.950 . S
C182 C181 1.349 . S
C182 C194 1.349 . S
C183 C181 1.327 . S
C183 C199 1.429 . S
C183 H205 0.950 . S
C184 H180 0.949 . S
C184 C192 1.574 . S
C184 C200 1.368 . S
H185 C193 0.950 . S
H186 C191 0.950 . S
H187 C192 0.949 . S
H188 C194 0.950 . S
H189 C195 0.950 . S
H190 C196 0.949 . S
C191 H186 0.950 . S
C191 C193 1.327 . S
C191 C197 1.429 . S
C192 C184 1.574 . S
C192 H187 0.949 . S
C192 C198 1.368 . S
C193 C177 1.349 . S
C193 H185 0.950 . S
C193 C191 1.327 . S
C194 C182 1.349 . S
C194 H188 0.950 . S
C194 C195 1.327 . S
C195 H189 0.950 . S
C195 C194 1.327 . S
C195 C199 1.429 . S
C196 C179 1.574 . S
C196 H190 0.949 . S
C196 C200 1.368 . S
C197 C178 1.429 . S
C197 C191 1.429 . S
C197 C198 1.523 . S
C198 C179 1.368 . S
C198 C192 1.368 . S
C198 C197 1.523 . S
C199 C183 1.429 . S
C199 C195 1.429 . S
C199 C200 1.523 . S
C200 C184 1.368 . S
C200 C196 1.368 . S
C200 C199 1.523 . S
H201 C176 0.950 . S
H202 C178 0.950 . S
H203 C179 0.949 . S
H204 C181 0.950 . S
H205 C183 0.950 . S
C206 C207 1.349 . S
C206 C208 1.327 . S
C206 H231 0.950 . S
C207 C206 1.349 . S
C207 C223 1.349 . S
C208 C206 1.327 . S
C208 C227 1.429 . S
C208 H232 0.950 . S
C209 C226 1.574 . S
C209 C228 1.368 . S
C209 H233 0.949 . S
H210 C214 0.949 . S
C211 C212 1.349 . S
C211 C213 1.327 . S
C211 H234 0.950 . S
C212 C211 1.349 . S
C212 C224 1.349 . S
C213 C211 1.327 . S
C213 C229 1.429 . S
C213 H235 0.950 . S
C214 H210 0.949 . S
C214 C222 1.574 . S
C214 C230 1.368 . S
H215 C223 0.950 . S
H216 C221 0.950 . S
H217 C222 0.949 . S
H218 C224 0.950 . S
H219 C225 0.950 . S
H220 C226 0.949 . S
C221 H216 0.950 . S
C221 C223 1.327 . S
C221 C227 1.429 . S
C222 C214 1.574 . S
C222 H217 0.949 . S
C222 C228 1.368 . S
C223 C207 1.349 . S
C223 H215 0.950 . S
C223 C221 1.327 . S
C224 C212 1.349 . S
C224 H218 0.950 . S
C224 C225 1.327 . S
C225 H219 0.950 . S
C225 C224 1.327 . S
C225 C229 1.429 . S
C226 C209 1.574 . S
C226 H220 0.949 . S
C226 C230 1.368 . S
C227 C208 1.429 . S
C227 C221 1.429 . S
C227 C228 1.523 . S
C228 C209 1.368 . S
C228 C222 1.368 . S
C228 C227 1.523 . S
C229 C213 1.429 . S
C229 C225 1.429 . S
C229 C230 1.523 . S
C230 C214 1.368 . S
C230 C226 1.368 . S
C230 C229 1.523 . S
H231 C206 0.950 . S
H232 C208 0.950 . S
H233 C209 0.949 . S
H234 C211 0.950 . S
H235 C213 0.950 . S
C236 C237 1.349 . S
C236 C238 1.327 . S
C236 H261 0.950 . S
C237 C236 1.349 . S
C237 C253 1.349 . S
C238 C236 1.327 . S
C238 C257 1.429 . S
C238 H262 0.950 . S
C239 C256 1.574 . S
C239 C258 1.368 . S
C239 H263 0.949 . S
H240 C244 0.949 . S
C241 C242 1.349 . S
C241 C243 1.327 . S
C241 H264 0.950 . S
C242 C241 1.349 . S
C242 C254 1.349 . S
C243 C241 1.327 . S
C243 C259 1.429 . S
C243 H265 0.950 . S
C244 H240 0.949 . S
C244 C252 1.574 . S
C244 C260 1.368 . S
H245 C253 0.950 . S
H246 C251 0.950 . S
H247 C252 0.949 . S
H248 C254 0.950 . S
H249 C255 0.950 . S
H250 C256 0.949 . S
C251 H246 0.950 . S
C251 C253 1.327 . S
C251 C257 1.429 . S
C252 C244 1.574 . S
C252 H247 0.949 . S
C252 C258 1.368 . S
C253 C237 1.349 . S
C253 H245 0.950 . S
C253 C251 1.327 . S
C254 C242 1.349 . S
C254 H248 0.950 . S
C254 C255 1.327 . S
C255 H249 0.950 . S
C255 C254 1.327 . S
C255 C259 1.429 . S
C256 C239 1.574 . S
C256 H250 0.949 . S
C256 C260 1.368 . S
C257 C238 1.429 . S
C257 C251 1.429 . S
C257 C258 1.523 . S
C258 C239 1.368 . S
C258 C252 1.368 . S
C258 C257 1.523 . S
C259 C243 1.429 . S
C259 C255 1.429 . S
C259 C260 1.523 . S
C260 C244 1.368 . S
C260 C256 1.368 . S
C260 C259 1.523 . S
H261 C236 0.950 . S
H262 C238 0.950 . S
H263 C239 0.949 . S
H264 C241 0.950 . S
H265 C243 0.950 . S
C266 C267 1.349 . S
C266 C268 1.327 . S
C266 H291 0.950 . S
C267 C266 1.349 . S
C267 C283 1.349 . S
C268 C266 1.327 . S
C268 C287 1.429 . S
C268 H292 0.950 . S
C269 C286 1.574 . S
C269 C288 1.368 . S
C269 H293 0.949 . S
H270 C274 0.949 . S
C271 C272 1.349 . S
C271 C273 1.327 . S
C271 H294 0.950 . S
C272 C271 1.349 . S
C272 C284 1.349 . S
C273 C271 1.327 . S
C273 C289 1.429 . S
C273 H295 0.950 . S
C274 H270 0.949 . S
C274 C282 1.574 . S
C274 C290 1.368 . S
H275 C283 0.950 . S
H276 C281 0.950 . S
H277 C282 0.949 . S
H278 C284 0.950 . S
H279 C285 0.950 . S
H280 C286 0.949 . S
C281 H276 0.950 . S
C281 C283 1.327 . S
C281 C287 1.429 . S
C282 C274 1.574 . S
C282 H277 0.949 . S
C282 C288 1.368 . S
C283 C267 1.349 . S
C283 H275 0.950 . S
C283 C281 1.327 . S
C284 C272 1.349 . S
C284 H278 0.950 . S
C284 C285 1.327 . S
C285 H279 0.950 . S
C285 C284 1.327 . S
C285 C289 1.429 . S
C286 C269 1.574 . S
C286 H280 0.949 . S
C286 C290 1.368 . S
C287 C268 1.429 . S
C287 C281 1.429 . S
C287 C288 1.523 . S
C288 C269 1.368 . S
C288 C282 1.368 . S
C288 C287 1.523 . S
C289 C273 1.429 . S
C289 C285 1.429 . S
C289 C290 1.523 . S
C290 C274 1.368 . S
C290 C286 1.368 . S
C290 C289 1.523 . S
H291 C266 0.950 . S
H292 C268 0.950 . S
H293 C269 0.949 . S
H294 C271 0.950 . S
H295 C273 0.950 . S
C296 C297 1.349 . S
C296 C298 1.327 . S
C296 H321 0.950 . S
C297 C296 1.349 . S
C297 C313 1.349 . S
C298 C296 1.327 . S
C298 C317 1.429 . S
C298 H322 0.950 . S
C299 C316 1.574 . S
C299 C318 1.368 . S
C299 H323 0.949 . S
H300 C304 0.949 . S
C301 C302 1.349 . S
C301 C303 1.327 . S
C301 H324 0.950 . S
C302 C301 1.349 . S
C302 C314 1.349 . S
C303 C301 1.327 . S
C303 C319 1.429 . S
C303 H325 0.950 . S
C304 H300 0.949 . S
C304 C312 1.574 . S
C304 C320 1.368 . S
H305 C313 0.950 . S
H306 C311 0.950 . S
H307 C312 0.949 . S
H308 C314 0.950 . S
H309 C315 0.950 . S
H310 C316 0.949 . S
C311 H306 0.950 . S
C311 C313 1.327 . S
C311 C317 1.429 . S
C312 C304 1.574 . S
C312 H307 0.949 . S
C312 C318 1.368 . S
C313 C297 1.349 . S
C313 H305 0.950 . S
C313 C311 1.327 . S
C314 C302 1.349 . S
C314 H308 0.950 . S
C314 C315 1.327 . S
C315 H309 0.950 . S
C315 C314 1.327 . S
C315 C319 1.429 . S
C316 C299 1.574 . S
C316 H310 0.949 . S
C316 C320 1.368 . S
C317 C298 1.429 . S
C317 C311 1.429 . S
C317 C318 1.523 . S
C318 C299 1.368 . S
C318 C312 1.368 . S
C318 C317 1.523 . S
C319 C303 1.429 . S
C319 C315 1.429 . S
C319 C320 1.523 . S
C320 C304 1.368 . S
C320 C316 1.368 . S
C320 C319 1.523 . S
H321 C296 0.950 . S
H322 C298 0.950 . S
H323 C299 0.949 . S
H324 C301 0.950 . S
H325 C303 0.950 . S
C326 C327 1.349 . S
C326 C328 1.327 . S
C326 H351 0.950 . S
C327 C326 1.349 . S
C327 C343 1.349 . S
C328 C326 1.327 . S
C328 C347 1.429 . S
C328 H352 0.950 . S
C329 C346 1.574 . S
C329 C348 1.368 . S
C329 H353 0.949 . S
H330 C334 0.949 . S
C331 C332 1.349 . S
C331 C333 1.327 . S
C331 H354 0.950 . S
C332 C331 1.349 . S
C332 C344 1.349 . S
C333 C331 1.327 . S
C333 C349 1.429 . S
C333 H355 0.950 . S
C334 H330 0.949 . S
C334 C342 1.574 . S
C334 C350 1.368 . S
H335 C343 0.950 . S
H336 C341 0.950 . S
H337 C342 0.949 . S
H338 C344 0.950 . S
H339 C345 0.950 . S
H340 C346 0.949 . S
C341 H336 0.950 . S
C341 C343 1.327 . S
C341 C347 1.429 . S
C342 C334 1.574 . S
C342 H337 0.949 . S
C342 C348 1.368 . S
C343 C327 1.349 . S
C343 H335 0.950 . S
C343 C341 1.327 . S
C344 C332 1.349 . S
C344 H338 0.950 . S
C344 C345 1.327 . S
C345 H339 0.950 . S
C345 C344 1.327 . S
C345 C349 1.429 . S
C346 C329 1.574 . S
C346 H340 0.949 . S
C346 C350 1.368 . S
C347 C328 1.429 . S
C347 C341 1.429 . S
C347 C348 1.523 . S
C348 C329 1.368 . S
C348 C342 1.368 . S
C348 C347 1.523 . S
C349 C333 1.429 . S
C349 C345 1.429 . S
C349 C350 1.523 . S
C350 C334 1.368 . S
C350 C346 1.368 . S
C350 C349 1.523 . S
H351 C326 0.950 . S
H352 C328 0.950 . S
H353 C329 0.949 . S
H354 C331 0.950 . S
H355 C333 0.950 . S
C356 C357 1.349 . S
C356 C358 1.327 . S
C356 H381 0.950 . S
C357 C356 1.349 . S
C357 C373 1.349 . S
C358 C356 1.327 . S
C358 C377 1.429 . S
C358 H382 0.950 . S
C359 C376 1.574 . S
C359 C378 1.368 . S
C359 H383 0.949 . S
H360 C364 0.949 . S
C361 C362 1.349 . S
C361 C363 1.327 . S
C361 H384 0.950 . S
C362 C361 1.349 . S
C362 C374 1.349 . S
C363 C361 1.327 . S
C363 C379 1.429 . S
C363 H385 0.950 . S
C364 H360 0.949 . S
C364 C372 1.574 . S
C364 C380 1.368 . S
H365 C373 0.950 . S
H366 C371 0.950 . S
H367 C372 0.949 . S
H368 C374 0.950 . S
H369 C375 0.950 . S
H370 C376 0.949 . S
C371 H366 0.950 . S
C371 C373 1.327 . S
C371 C377 1.429 . S
C372 C364 1.574 . S
C372 H367 0.949 . S
C372 C378 1.368 . S
C373 C357 1.349 . S
C373 H365 0.950 . S
C373 C371 1.327 . S
C374 C362 1.349 . S
C374 H368 0.950 . S
C374 C375 1.327 . S
C375 H369 0.950 . S
C375 C374 1.327 . S
C375 C379 1.429 . S
C376 C359 1.574 . S
C376 H370 0.949 . S
C376 C380 1.368 . S
C377 C358 1.429 . S
C377 C371 1.429 . S
C377 C378 1.523 . S
C378 C359 1.368 . S
C378 C372 1.368 . S
C378 C377 1.523 . S
C379 C363 1.429 . S
C379 C375 1.429 . S
C379 C380 1.523 . S
C380 C364 1.368 . S
C380 C376 1.368 . S
C380 C379 1.523 . S
H381 C356 0.950 . S
H382 C358 0.950 . S
H383 C359 0.949 . S
H384 C361 0.950 . S
H385 C363 0.950 . S
C386 C387 1.349 . S
C386 C388 1.327 . S
C386 H411 0.950 . S
C387 C386 1.349 . S
C387 C403 1.349 . S
C388 C386 1.327 . S
C388 C407 1.429 . S
C388 H412 0.950 . S
C389 C406 1.574 . S
C389 C408 1.368 . S
C389 H413 0.949 . S
H390 C394 0.949 . S
C391 C392 1.349 . S
C391 C393 1.327 . S
C391 H414 0.950 . S
C392 C391 1.349 . S
C392 C404 1.349 . S
C393 C391 1.327 . S
C393 C409 1.429 . S
C393 H415 0.950 . S
C394 H390 0.949 . S
C394 C402 1.574 . S
C394 C410 1.368 . S
H395 C403 0.950 . S
H396 C401 0.950 . S
H397 C402 0.949 . S
H398 C404 0.950 . S
H399 C405 0.950 . S
H400 C406 0.949 . S
C401 H396 0.950 . S
C401 C403 1.327 . S
C401 C407 1.429 . S
C402 C394 1.574 . S
C402 H397 0.949 . S
C402 C408 1.368 . S
C403 C387 1.349 . S
C403 H395 0.950 . S
C403 C401 1.327 . S
C404 C392 1.349 . S
C404 H398 0.950 . S
C404 C405 1.327 . S
C405 H399 0.950 . S
C405 C404 1.327 . S
C405 C409 1.429 . S
C406 C389 1.574 . S
C406 H400 0.949 . S
C406 C410 1.368 . S
C407 C388 1.429 . S
C407 C401 1.429 . S
C407 C408 1.523 . S
C408 C389 1.368 . S
C408 C402 1.368 . S
C408 C407 1.523 . S
C409 C393 1.429 . S
C409 C405 1.429 . S
C409 C410 1.523 . S
C410 C394 1.368 . S
C410 C406 1.368 . S
C410 C409 1.523 . S
H411 C386 0.950 . S
H412 C388 0.950 . S
H413 C389 0.949 . S
H414 C391 0.950 . S
H415 C393 0.950 . S
C416 C417 1.349 . S
C416 C418 1.327 . S
C416 H441 0.950 . S
C417 C416 1.349 . S
C417 C433 1.349 . S
C418 C416 1.327 . S
C418 C437 1.429 . S
C418 H442 0.950 . S
C419 C436 1.574 . S
C419 C438 1.368 . S
C419 H443 0.949 . S
H420 C424 0.949 . S
C421 C422 1.349 . S
C421 C423 1.327 . S
C421 H444 0.950 . S
C422 C421 1.349 . S
C422 C434 1.349 . S
C423 C421 1.327 . S
C423 C439 1.429 . S
C423 H445 0.950 . S
C424 H420 0.949 . S
C424 C432 1.574 . S
C424 C440 1.368 . S
H425 C433 0.950 . S
H426 C431 0.950 . S
H427 C432 0.949 . S
H428 C434 0.950 . S
H429 C435 0.950 . S
H430 C436 0.949 . S
C431 H426 0.950 . S
C431 C433 1.327 . S
C431 C437 1.429 . S
C432 C424 1.574 . S
C432 H427 0.949 . S
C432 C438 1.368 . S
C433 C417 1.349 . S
C433 H425 0.950 . S
C433 C431 1.327 . S
C434 C422 1.349 . S
C434 H428 0.950 . S
C434 C435 1.327 . S
C435 H429 0.950 . S
C435 C434 1.327 . S
C435 C439 1.429 . S
C436 C419 1.574 . S
C436 H430 0.949 . S
C436 C440 1.368 . S
C437 C418 1.429 . S
C437 C431 1.429 . S
C437 C438 1.523 . S
C438 C419 1.368 . S
C438 C432 1.368 . S
C438 C437 1.523 . S
C439 C423 1.429 . S
C439 C435 1.429 . S
C439 C440 1.523 . S
C440 C424 1.368 . S
C440 C436 1.368 . S
C440 C439 1.523 . S
H441 C416 0.950 . S
H442 C418 0.950 . S
H443 C419 0.949 . S
H444 C421 0.950 . S
H445 C423 0.950 . S
C446 C447 1.349 . S
C446 C448 1.327 . S
C446 H471 0.950 . S
C447 C446 1.349 . S
C447 C463 1.349 . S
C448 C446 1.327 . S
C448 C467 1.429 . S
C448 H472 0.950 . S
C449 C466 1.574 . S
C449 C468 1.368 . S
C449 H473 0.949 . S
H450 C454 0.949 . S
C451 C452 1.349 . S
C451 C453 1.327 . S
C451 H474 0.950 . S
C452 C451 1.349 . S
C452 C464 1.349 . S
C453 C451 1.327 . S
C453 C469 1.429 . S
C453 H475 0.950 . S
C454 H450 0.949 . S
C454 C462 1.574 . S
C454 C470 1.368 . S
H455 C463 0.950 . S
H456 C461 0.950 . S
H457 C462 0.949 . S
H458 C464 0.950 . S
H459 C465 0.950 . S
H460 C466 0.949 . S
C461 H456 0.950 . S
C461 C463 1.327 . S
C461 C467 1.429 . S
C462 C454 1.574 . S
C462 H457 0.949 . S
C462 C468 1.368 . S
C463 C447 1.349 . S
C463 H455 0.950 . S
C463 C461 1.327 . S
C464 C452 1.349 . S
C464 H458 0.950 . S
C464 C465 1.327 . S
C465 H459 0.950 . S
C465 C464 1.327 . S
C465 C469 1.429 . S
C466 C449 1.574 . S
C466 H460 0.949 . S
C466 C470 1.368 . S
C467 C448 1.429 . S
C467 C461 1.429 . S
C467 C468 1.523 . S
C468 C449 1.368 . S
C468 C462 1.368 . S
C468 C467 1.523 . S
C469 C453 1.429 . S
C469 C465 1.429 . S
C469 C470 1.523 . S
C470 C454 1.368 . S
C470 C466 1.368 . S
C470 C469 1.523 . S
H471 C446 0.950 . S
H472 C448 0.950 . S
H473 C449 0.949 . S
H474 C451 0.950 . S
H475 C453 0.950 . S
C476 C477 1.349 . S
C476 C478 1.327 . S
C476 H501 0.950 . S
C477 C476 1.349 . S
C477 C493 1.349 . S
C478 C476 1.327 . S
C478 C497 1.429 . S
C478 H502 0.950 . S
C479 C496 1.574 . S
C479 C498 1.368 . S
C479 H503 0.949 . S
H480 C484 0.949 . S
C481 C482 1.349 . S
C481 C483 1.327 . S
C481 H504 0.950 . S
C482 C481 1.349 . S
C482 C494 1.349 . S
C483 C481 1.327 . S
C483 C499 1.429 . S
C483 H505 0.950 . S
C484 H480 0.949 . S
C484 C492 1.574 . S
C484 C500 1.368 . S
H485 C493 0.950 . S
H486 C491 0.950 . S
H487 C492 0.949 . S
H488 C494 0.950 . S
H489 C495 0.950 . S
H490 C496 0.949 . S
C491 H486 0.950 . S
C491 C493 1.327 . S
C491 C497 1.429 . S
C492 C484 1.574 . S
C492 H487 0.949 . S
C492 C498 1.368 . S
C493 C477 1.349 . S
C493 H485 0.950 . S
C493 C491 1.327 . S
C494 C482 1.349 . S
C494 H488 0.950 . S
C494 C495 1.327 . S
C495 H489 0.950 . S
C495 C494 1.327 . S
C495 C499 1.429 . S
C496 C479 1.574 . S
C496 H490 0.949 . S
C496 C500 1.368 . S
C497 C478 1.429 . S
C497 C491 1.429 . S
C497 C498 1.523 . S
C498 C479 1.368 . S
C498 C492 1.368 . S
C498 C497 1.523 . S
C499 C483 1.429 . S
C499 C495 1.429 . S
C499 C500 1.523 . S
C500 C484 1.368 . S
C500 C496 1.368 . S
C500 C499 1.523 . S
H501 C476 0.950 . S
H502 C478 0.950 . S
H503 C479 0.949 . S
H504 C481 0.950 . S
H505 C483 0.950 . S
C506 C507 1.349 . S
C506 C508 1.327 . S
C506 H531 0.950 . S
C507 C506 1.349 . S
C507 C523 1.349 . S
C508 C506 1.327 . S
C508 C527 1.429 . S
C508 H532 0.950 . S
C509 C526 1.574 . S
C509 C528 1.368 . S
C509 H533 0.949 . S
H510 C514 0.949 . S
C511 C512 1.349 . S
C511 C513 1.327 . S
C511 H534 0.950 . S
C512 C511 1.349 . S
C512 C524 1.349 . S
C513 C511 1.327 . S
C513 C529 1.429 . S
C513 H535 0.950 . S
C514 H510 0.949 . S
C514 C522 1.574 . S
C514 C530 1.368 . S
H515 C523 0.950 . S
H516 C521 0.950 . S
H517 C522 0.949 . S
H518 C524 0.950 . S
H519 C525 0.950 . S
H520 C526 0.949 . S
C521 H516 0.950 . S
C521 C523 1.327 . S
C521 C527 1.429 . S
C522 C514 1.574 . S
C522 H517 0.949 . S
C522 C528 1.368 . S
C523 C507 1.349 . S
C523 H515 0.950 . S
C523 C521 1.327 . S
C524 C512 1.349 . S
C524 H518 0.950 . S
C524 C525 1.327 . S
C525 H519 0.950 . S
C525 C524 1.327 . S
C525 C529 1.429 . S
C526 C509 1.574 . S
C526 H520 0.949 . S
C526 C530 1.368 . S
C527 C508 1.429 . S
C527 C521 1.429 . S
C527 C528 1.523 . S
C528 C509 1.368 . S
C528 C522 1.368 . S
C528 C527 1.523 . S
C529 C513 1.429 . S
C529 C525 1.429 . S
C529 C530 1.523 . S
C530 C514 1.368 . S
C530 C526 1.368 . S
C530 C529 1.523 . S
H531 C506 0.950 . S
H532 C508 0.950 . S
H533 C509 0.949 . S
H534 C511 0.950 . S
H535 C513 0.950 . S
C536 C537 1.349 . S
C536 C538 1.327 . S
C536 H561 0.950 . S
C537 C536 1.349 . S
C537 C553 1.349 . S
C538 C536 1.327 . S
C538 C557 1.429 . S
C538 H562 0.950 . S
C539 C556 1.574 . S
C539 C558 1.368 . S
C539 H563 0.949 . S
H540 C544 0.949 . S
C541 C542 1.349 . S
C541 C543 1.327 . S
C541 H564 0.950 . S
C542 C541 1.349 . S
C542 C554 1.349 . S
C543 C541 1.327 . S
C543 C559 1.429 . S
C543 H565 0.950 . S
C544 H540 0.949 . S
C544 C552 1.574 . S
C544 C560 1.368 . S
H545 C553 0.950 . S
H546 C551 0.950 . S
H547 C552 0.949 . S
H548 C554 0.950 . S
H549 C555 0.950 . S
H550 C556 0.949 . S
C551 H546 0.950 . S
C551 C553 1.327 . S
C551 C557 1.429 . S
C552 C544 1.574 . S
C552 H547 0.949 . S
C552 C558 1.368 . S
C553 C537 1.349 . S
C553 H545 0.950 . S
C553 C551 1.327 . S
C554 C542 1.349 . S
C554 H548 0.950 . S
C554 C555 1.327 . S
C555 H549 0.950 . S
C555 C554 1.327 . S
C555 C559 1.429 . S
C556 C539 1.574 . S
C556 H550 0.949 . S
C556 C560 1.368 . S
C557 C538 1.429 . S
C557 C551 1.429 . S
C557 C558 1.523 . S
C558 C539 1.368 . S
C558 C552 1.368 . S
C558 C557 1.523 . S
C559 C543 1.429 . S
C559 C555 1.429 . S
C559 C560 1.523 . S
C560 C544 1.368 . S
C560 C556 1.368 . S
C560 C559 1.523 . S
H561 C536 0.950 . S
H562 C538 0.950 . S
H563 C539 0.949 . S
H564 C541 0.950 . S
H565 C543 0.950 . S
C566 C567 1.349 . S
C566 C568 1.327 . S
C566 H591 0.950 . S
C567 C566 1.349 . S
C567 C583 1.349 . S
C568 C566 1.327 . S
C568 C587 1.429 . S
C568 H592 0.950 . S
C569 C586 1.574 . S
C569 C588 1.368 . S
C569 H593 0.949 . S
H570 C574 0.949 . S
C571 C572 1.349 . S
C571 C573 1.327 . S
C571 H594 0.950 . S
C572 C571 1.349 . S
C572 C584 1.349 . S
C573 C571 1.327 . S
C573 C589 1.429 . S
C573 H595 0.950 . S
C574 H570 0.949 . S
C574 C582 1.574 . S
C574 C590 1.368 . S
H575 C583 0.950 . S
H576 C581 0.950 . S
H577 C582 0.949 . S
H578 C584 0.950 . S
H579 C585 0.950 . S
H580 C586 0.949 . S
C581 H576 0.950 . S
C581 C583 1.327 . S
C581 C587 1.429 . S
C582 C574 1.574 . S
C582 H577 0.949 . S
C582 C588 1.368 . S
C583 C567 1.349 . S
C583 H575 0.950 . S
C583 C581 1.327 . S
C584 C572 1.349 . S
C584 H578 0.950 . S
C584 C585 1.327 . S
C585 H579 0.950 . S
C585 C584 1.327 . S
C585 C589 1.429 . S
C586 C569 1.574 . S
C586 H580 0.949 . S
C586 C590 1.368 . S
C587 C568 1.429 . S
C587 C581 1.429 . S
C587 C588 1.523 . S
C588 C569 1.368 . S
C588 C582 1.368 . S
C588 C587 1.523 . S
C589 C573 1.429 . S
C589 C585 1.429 . S
C589 C590 1.523 . S
C590 C574 1.368 . S
C590 C586 1.368 . S
C590 C589 1.523 . S
H591 C566 0.950 . S
H592 C568 0.950 . S
H593 C569 0.949 . S
H594 C571 0.950 . S
H595 C573 0.950 . S
C596 C597 1.349 . S
C596 C598 1.327 . S
C596 H621 0.950 . S
C597 C596 1.349 . S
C597 C613 1.349 . S
C598 C596 1.327 . S
C598 C617 1.429 . S
C598 H622 0.950 . S
C599 C616 1.574 . S
C599 C618 1.368 . S
C599 H623 0.949 . S
H600 C604 0.949 . S
C601 C602 1.349 . S
C601 C603 1.327 . S
C601 H624 0.950 . S
C602 C601 1.349 . S
C602 C614 1.349 . S
C603 C601 1.327 . S
C603 C619 1.429 . S
C603 H625 0.950 . S
C604 H600 0.949 . S
C604 C612 1.574 . S
C604 C620 1.368 . S
H605 C613 0.950 . S
H606 C611 0.950 . S
H607 C612 0.949 . S
H608 C614 0.950 . S
H609 C615 0.950 . S
H610 C616 0.949 . S
C611 H606 0.950 . S
C611 C613 1.327 . S
C611 C617 1.429 . S
C612 C604 1.574 . S
C612 H607 0.949 . S
C612 C618 1.368 . S
C613 C597 1.349 . S
C613 H605 0.950 . S
C613 C611 1.327 . S
C614 C602 1.349 . S
C614 H608 0.950 . S
C614 C615 1.327 . S
C615 H609 0.950 . S
C615 C614 1.327 . S
C615 C619 1.429 . S
C616 C599 1.574 . S
C616 H610 0.949 . S
C616 C620 1.368 . S
C617 C598 1.429 . S
C617 C611 1.429 . S
C617 C618 1.523 . S
C618 C599 1.368 . S
C618 C612 1.368 . S
C618 C617 1.523 . S
C619 C603 1.429 . S
C619 C615 1.429 . S
C619 C620 1.523 . S
C620 C604 1.368 . S
C620 C616 1.368 . S
C620 C619 1.523 . S
H621 C596 0.950 . S
H622 C598 0.950 . S
H623 C599 0.949 . S
H624 C601 0.950 . S
H625 C603 0.950 . S
C626 C627 1.349 . S
C626 C628 1.327 . S
C626 H651 0.950 . S
C627 C626 1.349 . S
C627 C643 1.349 . S
C628 C626 1.327 . S
C628 C647 1.429 . S
C628 H652 0.950 . S
C629 C646 1.574 . S
C629 C648 1.368 . S
C629 H653 0.949 . S
H630 C634 0.949 . S
C631 C632 1.349 . S
C631 C633 1.327 . S
C631 H654 0.950 . S
C632 C631 1.349 . S
C632 C644 1.349 . S
C633 C631 1.327 . S
C633 C649 1.429 . S
C633 H655 0.950 . S
C634 H630 0.949 . S
C634 C642 1.574 . S
C634 C650 1.368 . S
H635 C643 0.950 . S
H636 C641 0.950 . S
H637 C642 0.949 . S
H638 C644 0.950 . S
H639 C645 0.950 . S
H640 C646 0.949 . S
C641 H636 0.950 . S
C641 C643 1.327 . S
C641 C647 1.429 . S
C642 C634 1.574 . S
C642 H637 0.949 . S
C642 C648 1.368 . S
C643 C627 1.349 . S
C643 H635 0.950 . S
C643 C641 1.327 . S
C644 C632 1.349 . S
C644 H638 0.950 . S
C644 C645 1.327 . S
C645 H639 0.950 . S
C645 C644 1.327 . S
C645 C649 1.429 . S
C646 C629 1.574 . S
C646 H640 0.949 . S
C646 C650 1.368 . S
C647 C628 1.429 . S
C647 C641 1.429 . S
C647 C648 1.523 . S
C648 C629 1.368 . S
C648 C642 1.368 . S
C648 C647 1.523 . S
C649 C633 1.429 . S
C649 C645 1.429 . S
C649 C650 1.523 . S
C650 C634 1.368 . S
C650 C646 1.368 . S
C650 C649 1.523 . S
H651 C626 0.950 . S
H652 C628 0.950 . S
H653 C629 0.949 . S
H654 C631 0.950 . S
H655 C633 0.950 . S
C656 C657 1.349 . S
C656 C658 1.327 . S
C656 H681 0.950 . S
C657 C656 1.349 . S
C657 C673 1.349 1_554 S
C658 C656 1.327 . S
C658 C677 1.429 . S
C658 H682 0.950 . S
C659 C676 1.574 . S
C659 C678 1.368 1_556 S
C659 H683 0.949 . S
H660 C664 0.949 . S
C661 C662 1.349 1_556 S
C661 C663 1.327 . S
C661 H684 0.950 . S
C662 C661 1.349 1_554 S
C662 C674 1.349 . S
C663 C661 1.327 . S
C663 C679 1.429 1_556 S
C663 H685 0.950 . S
C664 H660 0.949 . S
C664 C672 1.574 . S
C664 C680 1.368 . S
H665 C673 0.950 . S
H666 C671 0.950 . S
H667 C672 0.949 . S
H668 C674 0.950 . S
H669 C675 0.950 . S
H670 C676 0.949 . S
C671 H666 0.950 . S
C671 C673 1.327 . S
C671 C677 1.429 1_556 S
C672 C664 1.574 . S
C672 H667 0.949 . S
C672 C678 1.368 . S
C673 C657 1.349 1_556 S
C673 H665 0.950 . S
C673 C671 1.327 . S
C674 C662 1.349 . S
C674 H668 0.950 . S
C674 C675 1.327 . S
C675 H669 0.950 . S
C675 C674 1.327 . S
C675 C679 1.429 . S
C676 C659 1.574 . S
C676 H670 0.949 . S
C676 C680 1.368 1_556 S
C677 C658 1.429 . S
C677 C671 1.429 1_554 S
C677 C678 1.523 . S
C678 C659 1.368 1_554 S
C678 C672 1.368 . S
C678 C677 1.523 . S
C679 C663 1.429 1_554 S
C679 C675 1.429 . S
C679 C680 1.523 . S
C680 C664 1.368 . S
C680 C676 1.368 1_554 S
C680 C679 1.523 . S
H681 C656 0.950 . S
H682 C658 0.950 . S
H683 C659 0.949 . S
H684 C661 0.950 . S
H685 C663 0.950 . S
C686 C687 1.349 . S
C686 C688 1.327 . S
C686 H711 0.950 . S
C687 C686 1.349 . S
C687 C703 1.349 . S
C688 C686 1.327 . S
C688 C707 1.429 . S
C688 H712 0.950 . S
C689 C706 1.574 . S
C689 C708 1.368 . S
C689 H713 0.949 . S
H690 C694 0.949 . S
C691 C692 1.349 . S
C691 C693 1.327 . S
C691 H714 0.950 . S
C692 C691 1.349 . S
C692 C704 1.349 . S
C693 C691 1.327 . S
C693 C709 1.429 . S
C693 H715 0.950 . S
C694 H690 0.949 . S
C694 C702 1.574 . S
C694 C710 1.368 . S
H695 C703 0.950 . S
H696 C701 0.950 . S
H697 C702 0.949 . S
H698 C704 0.950 . S
H699 C705 0.950 . S
H700 C706 0.949 . S
C701 H696 0.950 . S
C701 C703 1.327 . S
C701 C707 1.429 . S
C702 C694 1.574 . S
C702 H697 0.949 . S
C702 C708 1.368 . S
C703 C687 1.349 . S
C703 H695 0.950 . S
C703 C701 1.327 . S
C704 C692 1.349 . S
C704 H698 0.950 . S
C704 C705 1.327 . S
C705 H699 0.950 . S
C705 C704 1.327 . S
C705 C709 1.429 . S
C706 C689 1.574 . S
C706 H700 0.949 . S
C706 C710 1.368 . S
C707 C688 1.429 . S
C707 C701 1.429 . S
C707 C708 1.523 . S
C708 C689 1.368 . S
C708 C702 1.368 . S
C708 C707 1.523 . S
C709 C693 1.429 . S
C709 C705 1.429 . S
C709 C710 1.523 . S
C710 C694 1.368 . S
C710 C706 1.368 . S
C710 C709 1.523 . S
H711 C686 0.950 . S
H712 C688 0.950 . S
H713 C689 0.949 . S
H714 C691 0.950 . S
H715 C693 0.950 . S
C716 C717 1.349 . S
C716 C718 1.327 . S
C716 H741 0.950 . S
C717 C716 1.349 . S
C717 C733 1.349 1_554 S
C718 C716 1.327 . S
C718 C737 1.429 . S
C718 H742 0.950 . S
C719 C736 1.574 . S
C719 C738 1.368 1_556 S
C719 H743 0.949 . S
H720 C724 0.949 . S
C721 C722 1.349 1_556 S
C721 C723 1.327 . S
C721 H744 0.950 . S
C722 C721 1.349 1_554 S
C722 C734 1.349 . S
C723 C721 1.327 . S
C723 C739 1.429 1_556 S
C723 H745 0.950 . S
C724 H720 0.949 . S
C724 C732 1.574 . S
C724 C740 1.368 . S
H725 C733 0.950 . S
H726 C731 0.950 . S
H727 C732 0.949 . S
H728 C734 0.950 . S
H729 C735 0.950 . S
H730 C736 0.949 . S
C731 H726 0.950 . S
C731 C733 1.327 . S
C731 C737 1.429 1_556 S
C732 C724 1.574 . S
C732 H727 0.949 . S
C732 C738 1.368 . S
C733 C717 1.349 1_556 S
C733 H725 0.950 . S
C733 C731 1.327 . S
C734 C722 1.349 . S
C734 H728 0.950 . S
C734 C735 1.327 . S
C735 H729 0.950 . S
C735 C734 1.327 . S
C735 C739 1.429 . S
C736 C719 1.574 . S
C736 H730 0.949 . S
C736 C740 1.368 1_556 S
C737 C718 1.429 . S
C737 C731 1.429 1_554 S
C737 C738 1.523 . S
C738 C719 1.368 1_554 S
C738 C732 1.368 . S
C738 C737 1.523 . S
C739 C723 1.429 1_554 S
C739 C735 1.429 . S
C739 C740 1.523 . S
C740 C724 1.368 . S
C740 C736 1.368 1_554 S
C740 C739 1.523 . S
H741 C716 0.950 . S
H742 C718 0.950 . S
H743 C719 0.949 . S
H744 C721 0.950 . S
H745 C723 0.950 . S
C746 C747 1.349 . S
C746 C748 1.327 . S
C746 H771 0.950 . S
C747 C746 1.349 . S
C747 C763 1.349 . S
C748 C746 1.327 . S
C748 C767 1.429 . S
C748 H772 0.950 . S
C749 C766 1.574 . S
C749 C768 1.368 . S
C749 H773 0.949 . S
H750 C754 0.949 . S
C751 C752 1.349 . S
C751 C753 1.327 . S
C751 H774 0.950 . S
C752 C751 1.349 . S
C752 C764 1.349 . S
C753 C751 1.327 . S
C753 C769 1.429 . S
C753 H775 0.950 . S
C754 H750 0.949 . S
C754 C762 1.574 . S
C754 C770 1.368 . S
H755 C763 0.950 . S
H756 C761 0.950 . S
H757 C762 0.949 . S
H758 C764 0.950 . S
H759 C765 0.950 . S
H760 C766 0.949 . S
C761 H756 0.950 . S
C761 C763 1.327 . S
C761 C767 1.429 . S
C762 C754 1.574 . S
C762 H757 0.949 . S
C762 C768 1.368 . S
C763 C747 1.349 . S
C763 H755 0.950 . S
C763 C761 1.327 . S
C764 C752 1.349 . S
C764 H758 0.950 . S
C764 C765 1.327 . S
C765 H759 0.950 . S
C765 C764 1.327 . S
C765 C769 1.429 . S
C766 C749 1.574 . S
C766 H760 0.949 . S
C766 C770 1.368 . S
C767 C748 1.429 . S
C767 C761 1.429 . S
C767 C768 1.523 . S
C768 C749 1.368 . S
C768 C762 1.368 . S
C768 C767 1.523 . S
C769 C753 1.429 . S
C769 C765 1.429 . S
C769 C770 1.523 . S
C770 C754 1.368 . S
C770 C766 1.368 . S
C770 C769 1.523 . S
H771 C746 0.950 . S
H772 C748 0.950 . S
H773 C749 0.949 . S
H774 C751 0.950 . S
H775 C753 0.950 . S
C776 C777 1.349 . S
C776 C778 1.327 . S
C776 H801 0.950 . S
C777 C776 1.349 . S
C777 C793 1.349 . S
C778 C776 1.327 . S
C778 C797 1.429 . S
C778 H802 0.950 . S
C779 C796 1.574 . S
C779 C798 1.368 . S
C779 H803 0.949 . S
H780 C784 0.949 . S
C781 C782 1.349 . S
C781 C783 1.327 . S
C781 H804 0.950 . S
C782 C781 1.349 . S
C782 C794 1.349 . S
C783 C781 1.327 . S
C783 C799 1.429 . S
C783 H805 0.950 . S
C784 H780 0.949 . S
C784 C792 1.574 . S
C784 C800 1.368 . S
H785 C793 0.950 . S
H786 C791 0.950 . S
H787 C792 0.949 . S
H788 C794 0.950 . S
H789 C795 0.950 . S
H790 C796 0.949 . S
C791 H786 0.950 . S
C791 C793 1.327 . S
C791 C797 1.429 . S
C792 C784 1.574 . S
C792 H787 0.949 . S
C792 C798 1.368 . S
C793 C777 1.349 . S
C793 H785 0.950 . S
C793 C791 1.327 . S
C794 C782 1.349 . S
C794 H788 0.950 . S
C794 C795 1.327 . S
C795 H789 0.950 . S
C795 C794 1.327 . S
C795 C799 1.429 . S
C796 C779 1.574 . S
C796 H790 0.949 . S
C796 C800 1.368 . S
C797 C778 1.429 . S
C797 C791 1.429 . S
C797 C798 1.523 . S
C798 C779 1.368 . S
C798 C792 1.368 . S
C798 C797 1.523 . S
C799 C783 1.429 . S
C799 C795 1.429 . S
C799 C800 1.523 . S
C800 C784 1.368 . S
C800 C796 1.368 . S
C800 C799 1.523 . S
H801 C776 0.950 . S
H802 C778 0.950 . S
H803 C779 0.949 . S
H804 C781 0.950 . S
H805 C783 0.950 . S
C806 C807 1.349 1_556 S
C806 C808 1.327 . S
C806 H831 0.950 . S
C807 C806 1.349 1_554 S
C807 C823 1.349 . S
C808 C806 1.327 . S
C808 C827 1.429 1_556 S
C808 H832 0.950 . S
C809 C826 1.574 . S
C809 C828 1.368 . S
C809 H833 0.949 . S
H810 C814 0.949 . S
C811 C812 1.349 . S
C811 C813 1.327 . S
C811 H834 0.950 . S
C812 C811 1.349 . S
C812 C824 1.349 1_554 S
C813 C811 1.327 . S
C813 C829 1.429 . S
C813 H835 0.950 . S
C814 H810 0.949 . S
C814 C822 1.574 . S
C814 C830 1.368 1_556 S
H815 C823 0.950 . S
H816 C821 0.950 . S
H817 C822 0.949 . S
H818 C824 0.950 . S
H819 C825 0.950 . S
H820 C826 0.949 . S
C821 H816 0.950 . S
C821 C823 1.327 . S
C821 C827 1.429 . S
C822 C814 1.574 . S
C822 H817 0.949 . S
C822 C828 1.368 1_556 S
C823 C807 1.349 . S
C823 H815 0.950 . S
C823 C821 1.327 . S
C824 C812 1.349 1_556 S
C824 H818 0.950 . S
C824 C825 1.327 . S
C825 H819 0.950 . S
C825 C824 1.327 . S
C825 C829 1.429 1_556 S
C826 C809 1.574 . S
C826 H820 0.949 . S
C826 C830 1.368 . S
C827 C808 1.429 1_554 S
C827 C821 1.429 . S
C827 C828 1.523 . S
C828 C809 1.368 . S
C828 C822 1.368 1_554 S
C828 C827 1.523 . S
C829 C813 1.429 . S
C829 C825 1.429 1_554 S
C829 C830 1.523 . S
C830 C814 1.368 1_554 S
C830 C826 1.368 . S
C830 C829 1.523 . S
H831 C806 0.950 . S
H832 C808 0.950 . S
H833 C809 0.949 . S
H834 C811 0.950 . S
H835 C813 0.950 . S
C836 C837 1.349 . S
C836 C838 1.327 . S
C836 H861 0.950 . S
C837 C836 1.349 . S
C837 C853 1.349 . S
C838 C836 1.327 . S
C838 C857 1.429 . S
C838 H862 0.950 . S
C839 C856 1.574 . S
C839 C858 1.368 . S
C839 H863 0.949 . S
H840 C844 0.949 . S
C841 C842 1.349 . S
C841 C843 1.327 . S
C841 H864 0.950 . S
C842 C841 1.349 . S
C842 C854 1.349 . S
C843 C841 1.327 . S
C843 C859 1.429 . S
C843 H865 0.950 . S
C844 H840 0.949 . S
C844 C852 1.574 . S
C844 C860 1.368 . S
H845 C853 0.950 . S
H846 C851 0.950 . S
H847 C852 0.949 . S
H848 C854 0.950 . S
H849 C855 0.950 . S
H850 C856 0.949 . S
C851 H846 0.950 . S
C851 C853 1.327 . S
C851 C857 1.429 . S
C852 C844 1.574 . S
C852 H847 0.949 . S
C852 C858 1.368 . S
C853 C837 1.349 . S
C853 H845 0.950 . S
C853 C851 1.327 . S
C854 C842 1.349 . S
C854 H848 0.950 . S
C854 C855 1.327 . S
C855 H849 0.950 . S
C855 C854 1.327 . S
C855 C859 1.429 . S
C856 C839 1.574 . S
C856 H850 0.949 . S
C856 C860 1.368 . S
C857 C838 1.429 . S
C857 C851 1.429 . S
C857 C858 1.523 . S
C858 C839 1.368 . S
C858 C852 1.368 . S
C858 C857 1.523 . S
C859 C843 1.429 . S
C859 C855 1.429 . S
C859 C860 1.523 . S
C860 C844 1.368 . S
C860 C856 1.368 . S
C860 C859 1.523 . S
H861 C836 0.950 . S
H862 C838 0.950 . S
H863 C839 0.949 . S
H864 C841 0.950 . S
H865 C843 0.950 . S
C866 C867 1.349 . S
C866 C868 1.327 . S
C866 H891 0.950 . S
C867 C866 1.349 . S
C867 C883 1.349 1_554 S
C868 C866 1.327 . S
C868 C887 1.429 . S
C868 H892 0.950 . S
C869 C886 1.574 . S
C869 C888 1.368 1_556 S
C869 H893 0.949 . S
H870 C874 0.949 . S
C871 C872 1.349 1_556 S
C871 C873 1.327 . S
C871 H894 0.950 . S
C872 C871 1.349 1_554 S
C872 C884 1.349 . S
C873 C871 1.327 . S
C873 C889 1.429 1_556 S
C873 H895 0.950 . S
C874 H870 0.949 . S
C874 C882 1.574 . S
C874 C890 1.368 . S
H875 C883 0.950 . S
H876 C881 0.950 . S
H877 C882 0.949 . S
H878 C884 0.950 . S
H879 C885 0.950 . S
H880 C886 0.949 . S
C881 H876 0.950 . S
C881 C883 1.327 . S
C881 C887 1.429 1_556 S
C882 C874 1.574 . S
C882 H877 0.949 . S
C882 C888 1.368 . S
C883 C867 1.349 1_556 S
C883 H875 0.950 . S
C883 C881 1.327 . S
C884 C872 1.349 . S
C884 H878 0.950 . S
C884 C885 1.327 . S
C885 H879 0.950 . S
C885 C884 1.327 . S
C885 C889 1.429 . S
C886 C869 1.574 . S
C886 H880 0.949 . S
C886 C890 1.368 1_556 S
C887 C868 1.429 . S
C887 C881 1.429 1_554 S
C887 C888 1.523 . S
C888 C869 1.368 1_554 S
C888 C882 1.368 . S
C888 C887 1.523 . S
C889 C873 1.429 1_554 S
C889 C885 1.429 . S
C889 C890 1.523 . S
C890 C874 1.368 . S
C890 C886 1.368 1_554 S
C890 C889 1.523 . S
H891 C866 0.950 . S
H892 C868 0.950 . S
H893 C869 0.949 . S
H894 C871 0.950 . S
H895 C873 0.950 . S
C177 C5 1.428 . S
C182 C126 1.292 . S
C207 C31 1.495 . S
C212 C95 1.465 . S
C242 C106 1.435 . S
C237 C53 1.456 . S
C267 C71 1.388 . S
C272 C115 1.257 . S
C302 C150 1.465 . S
C297 C75 1.495 . S
C332 C159 1.292 . S
C327 C9 1.428 . S
C362 C170 1.257 . S
C357 C27 1.388 . S
C392 C139 1.435 . S
C387 C49 1.456 . S
C417 C51 1.428 . S
C422 C104 1.197 . S
C447 C72 1.495 . S
C452 C117 1.500 . S
C477 C6 1.456 . S
C482 C128 1.466 . S
C512 C93 1.174 . S
C507 C29 1.388 . S
C537 C28 1.495 . S
C542 C172 1.500 . S
C572 C137 1.197 . S
C567 C50 1.428 . S
C602 C148 1.174 . S
C597 C73 1.388 . S
C627 C7 1.456 . S
C632 C161 1.466 . S
C662 C96 1.498 . S
C657 C4 1.505 . S
C692 C107 1.497 . S
C687 C30 1.505 . S
C717 C52 1.505 . S
C722 C118 1.519 . S
C747 C70 1.505 . S
C752 C129 1.519 . S
C782 C140 1.497 . S
C777 C74 1.505 . S
C807 C8 1.505 . S
C812 C151 1.498 . S
C837 C26 1.505 . S
C842 C162 1.519 . S
C867 C48 1.505 . S
C872 C173 1.519 . S
