# Generated by pormake.
# Topology ctn, (3,4)-cn, num edge types: 1
# Building blocks:
#     Node 0, Type 0, BuildingBlock: WUSLED_clean_sbu_0, # of connection points: 3
#     Node 1, Type 0, BuildingBlock: WUSLED_clean_sbu_0, # of connection points: 3
#     Node 2, Type 0, BuildingBlock: WUSLED_clean_sbu_0, # of connection points: 3
#     Node 3, Type 0, BuildingBlock: WUSLED_clean_sbu_0, # of connection points: 3
#     Node 4, Type 0, BuildingBlock: WUSLED_clean_sbu_0, # of connection points: 3
#     Node 5, Type 0, BuildingBlock: WUSLED_clean_sbu_0, # of connection points: 3
#     Node 6, Type 0, BuildingBlock: WUSLED_clean_sbu_0, # of connection points: 3
#     Node 7, Type 0, BuildingBlock: WUSLED_clean_sbu_0, # of connection points: 3
#     Node 8, Type 0, BuildingBlock: WUSLED_clean_sbu_0, # of connection points: 3
#     Node 9, Type 0, BuildingBlock: WUSLED_clean_sbu_0, # of connection points: 3
#     Node 10, Type 0, BuildingBlock: WUSLED_clean_sbu_0, # of connection points: 3
#     Node 11, Type 0, BuildingBlock: WUSLED_clean_sbu_0, # of connection points: 3
#     Node 12, Type 0, BuildingBlock: WUSLED_clean_sbu_0, # of connection points: 3
#     Node 13, Type 0, BuildingBlock: WUSLED_clean_sbu_0, # of connection points: 3
#     Node 14, Type 0, BuildingBlock: WUSLED_clean_sbu_0, # of connection points: 3
#     Node 15, Type 0, BuildingBlock: WUSLED_clean_sbu_0, # of connection points: 3
#     Node 16, Type 1, BuildingBlock: UXUYUI_clean_sbu_0, # of connection points: 4
#     Node 17, Type 1, BuildingBlock: UXUYUI_clean_sbu_0, # of connection points: 4
#     Node 18, Type 1, BuildingBlock: UXUYUI_clean_sbu_0, # of connection points: 4
#     Node 19, Type 1, BuildingBlock: UXUYUI_clean_sbu_0, # of connection points: 4
#     Node 20, Type 1, BuildingBlock: UXUYUI_clean_sbu_0, # of connection points: 4
#     Node 21, Type 1, BuildingBlock: UXUYUI_clean_sbu_0, # of connection points: 4
#     Node 22, Type 1, BuildingBlock: UXUYUI_clean_sbu_0, # of connection points: 4
#     Node 23, Type 1, BuildingBlock: UXUYUI_clean_sbu_0, # of connection points: 4
#     Node 24, Type 1, BuildingBlock: UXUYUI_clean_sbu_0, # of connection points: 4
#     Node 25, Type 1, BuildingBlock: UXUYUI_clean_sbu_0, # of connection points: 4
#     Node 26, Type 1, BuildingBlock: UXUYUI_clean_sbu_0, # of connection points: 4
#     Node 27, Type 1, BuildingBlock: UXUYUI_clean_sbu_0, # of connection points: 4
#     Edge 28, Type (0, 1), BuildingBlock: ZUJKAS_clean_linker_0, # of connection points: 2
#     Edge 29, Type (0, 1), BuildingBlock: ZUJKAS_clean_linker_0, # of connection points: 2
#     Edge 30, Type (0, 1), BuildingBlock: ZUJKAS_clean_linker_0, # of connection points: 2
#     Edge 31, Type (0, 1), BuildingBlock: ZUJKAS_clean_linker_0, # of connection points: 2
#     Edge 32, Type (0, 1), BuildingBlock: ZUJKAS_clean_linker_0, # of connection points: 2
#     Edge 33, Type (0, 1), BuildingBlock: ZUJKAS_clean_linker_0, # of connection points: 2
#     Edge 34, Type (0, 1), BuildingBlock: ZUJKAS_clean_linker_0, # of connection points: 2
#     Edge 35, Type (0, 1), BuildingBlock: ZUJKAS_clean_linker_0, # of connection points: 2
#     Edge 36, Type (0, 1), BuildingBlock: ZUJKAS_clean_linker_0, # of connection points: 2
#     Edge 37, Type (0, 1), BuildingBlock: ZUJKAS_clean_linker_0, # of connection points: 2
#     Edge 38, Type (0, 1), BuildingBlock: ZUJKAS_clean_linker_0, # of connection points: 2
#     Edge 39, Type (0, 1), BuildingBlock: ZUJKAS_clean_linker_0, # of connection points: 2
#     Edge 40, Type (0, 1), BuildingBlock: ZUJKAS_clean_linker_0, # of connection points: 2
#     Edge 41, Type (0, 1), BuildingBlock: ZUJKAS_clean_linker_0, # of connection points: 2
#     Edge 42, Type (0, 1), BuildingBlock: ZUJKAS_clean_linker_0, # of connection points: 2
#     Edge 43, Type (0, 1), BuildingBlock: ZUJKAS_clean_linker_0, # of connection points: 2
#     Edge 44, Type (0, 1), BuildingBlock: ZUJKAS_clean_linker_0, # of connection points: 2
#     Edge 45, Type (0, 1), BuildingBlock: ZUJKAS_clean_linker_0, # of connection points: 2
#     Edge 46, Type (0, 1), BuildingBlock: ZUJKAS_clean_linker_0, # of connection points: 2
#     Edge 47, Type (0, 1), BuildingBlock: ZUJKAS_clean_linker_0, # of connection points: 2
#     Edge 48, Type (0, 1), BuildingBlock: ZUJKAS_clean_linker_0, # of connection points: 2
#     Edge 49, Type (0, 1), BuildingBlock: ZUJKAS_clean_linker_0, # of connection points: 2
#     Edge 50, Type (0, 1), BuildingBlock: ZUJKAS_clean_linker_0, # of connection points: 2
#     Edge 51, Type (0, 1), BuildingBlock: ZUJKAS_clean_linker_0, # of connection points: 2
#     Edge 52, Type (0, 1), BuildingBlock: ZUJKAS_clean_linker_0, # of connection points: 2
#     Edge 53, Type (0, 1), BuildingBlock: ZUJKAS_clean_linker_0, # of connection points: 2
#     Edge 54, Type (0, 1), BuildingBlock: ZUJKAS_clean_linker_0, # of connection points: 2
#     Edge 55, Type (0, 1), BuildingBlock: ZUJKAS_clean_linker_0, # of connection points: 2
#     Edge 56, Type (0, 1), BuildingBlock: ZUJKAS_clean_linker_0, # of connection points: 2
#     Edge 57, Type (0, 1), BuildingBlock: ZUJKAS_clean_linker_0, # of connection points: 2
#     Edge 58, Type (0, 1), BuildingBlock: ZUJKAS_clean_linker_0, # of connection points: 2
#     Edge 59, Type (0, 1), BuildingBlock: ZUJKAS_clean_linker_0, # of connection points: 2
#     Edge 60, Type (0, 1), BuildingBlock: ZUJKAS_clean_linker_0, # of connection points: 2
#     Edge 61, Type (0, 1), BuildingBlock: ZUJKAS_clean_linker_0, # of connection points: 2
#     Edge 62, Type (0, 1), BuildingBlock: ZUJKAS_clean_linker_0, # of connection points: 2
#     Edge 63, Type (0, 1), BuildingBlock: ZUJKAS_clean_linker_0, # of connection points: 2
#     Edge 64, Type (0, 1), BuildingBlock: ZUJKAS_clean_linker_0, # of connection points: 2
#     Edge 65, Type (0, 1), BuildingBlock: ZUJKAS_clean_linker_0, # of connection points: 2
#     Edge 66, Type (0, 1), BuildingBlock: ZUJKAS_clean_linker_0, # of connection points: 2
#     Edge 67, Type (0, 1), BuildingBlock: ZUJKAS_clean_linker_0, # of connection points: 2
#     Edge 68, Type (0, 1), BuildingBlock: ZUJKAS_clean_linker_0, # of connection points: 2
#     Edge 69, Type (0, 1), BuildingBlock: ZUJKAS_clean_linker_0, # of connection points: 2
#     Edge 70, Type (0, 1), BuildingBlock: ZUJKAS_clean_linker_0, # of connection points: 2
#     Edge 71, Type (0, 1), BuildingBlock: ZUJKAS_clean_linker_0, # of connection points: 2
#     Edge 72, Type (0, 1), BuildingBlock: ZUJKAS_clean_linker_0, # of connection points: 2
#     Edge 73, Type (0, 1), BuildingBlock: ZUJKAS_clean_linker_0, # of connection points: 2
#     Edge 74, Type (0, 1), BuildingBlock: ZUJKAS_clean_linker_0, # of connection points: 2
#     Edge 75, Type (0, 1), BuildingBlock: ZUJKAS_clean_linker_0, # of connection points: 2
# Relax obj value: 0.001
# Max RMSD: 0.015
# Mean RMSD: 0.010
data_MOF--net-ctn--node1-WUSLED_clean_sbu_0--node2-UXUYUI_clean_sbu_0--edge1-ZUJKAS_clean_linker_0
_symmetry_space_group_name_H-M    P1
_symmetry_Int_Tables_number       1
_symmetry_cell_setting            triclinic
loop_
_symmetry_equiv_pos_as_xyz
'x, y, z'
_cell_length_a     100.68753
_cell_length_b     100.92465
_cell_length_c     100.44268
_cell_angle_alpha  90.565823
_cell_angle_beta   90.041296
_cell_angle_gamma 90.012899
loop_
_atom_site_label
_atom_site_type_symbol
_atom_site_fract_x
_atom_site_fract_y
_atom_site_fract_z
_atom_type_partial_charge
C0 C 0.01995 0.05465 0.07842 0.0
C1 C 0.02506 0.04593 0.08795 0.0
C2 C 1.00452 0.0476 0.10083 0.0
C3 C 0.01742 0.04244 0.09905 0.0
C4 C 0.99944 0.05619 0.0911 0.0
C5 C 1.00708 0.05967 0.08005 0.0
U6 U 0.04944 0.05137 0.05407 0.0
O7 O 0.0498 0.0542 0.03236 0.0
O8 O 0.06179 0.06707 0.04535 0.0
C9 C 0.05764 0.0646 0.03317 0.0
C10 C 0.02784 0.05884 0.06682 0.0
C11 C 0.05359 0.07622 0.02534 0.0
C12 C 0.03824 0.09414 0.02036 0.0
C13 C 0.04183 0.08319 0.02809 0.0
C14 C 0.05815 0.09126 1.00714 0.0
C15 C 0.04634 0.09829 1.00974 0.0
C16 C 0.06172 0.08036 0.01485 0.0
C17 C 0.07487 0.02305 0.05847 0.0
C18 C 0.09142 0.01592 0.04224 0.0
C19 C 0.09187 1.0071 0.06456 0.0
C20 C 0.08079 0.0148 0.06791 0.0
C21 C 0.09728 1.00745 0.05165 0.0
C22 C 0.08031 0.02366 0.04562 0.0
C23 C 0.06287 0.03061 0.06223 0.0
O24 O 0.03971 0.06366 0.06942 0.0
O25 O 0.02769 0.05079 0.05646 0.0
O26 O 0.05279 0.02983 0.05395 0.0
O27 O 0.06486 0.04266 0.06689 0.0
H28 H 0.03499 0.04194 0.08686 0.0
H29 H 0.02171 0.03589 0.10637 0.0
H30 H 0.98948 0.06017 0.09197 0.0
H31 H 1.00293 0.06636 0.07277 0.0
H32 H 0.02903 0.09923 0.02258 0.0
H33 H 0.03542 0.08012 0.03615 0.0
H34 H 0.06476 0.09427 0.99922 0.0
H35 H 0.07086 0.07514 0.01262 0.0
H36 H 0.09523 0.01638 0.03218 0.0
H37 H 0.09624 1.00092 0.07215 0.0
H38 H 0.07678 0.01424 0.0779 0.0
H39 H 0.07589 0.02998 0.03818 0.0
C40 C 0.28339 0.73751 0.19367 0.0
C41 C 0.2939 0.74645 0.19189 0.0
C42 C 0.28197 0.757 0.17362 0.0
C43 C 0.29321 0.7561 0.18194 0.0
C44 C 0.27149 0.74797 0.1755 0.0
C45 C 0.2722 0.73835 0.18541 0.0
U46 U 0.29891 0.72041 0.22417 0.0
O47 O 0.28892 0.71181 0.24159 0.0
O48 O 0.30076 0.69912 0.22831 0.0
C49 C 0.29271 0.69968 0.23859 0.0
C50 C 0.28381 0.72719 0.20396 0.0
C51 C 0.28231 0.6894 0.23912 0.0
C52 C 0.26382 0.6772 0.22928 0.0
C53 C 0.27342 0.68726 0.22854 0.0
C54 C 0.27185 0.67144 0.25121 0.0
C55 C 0.26292 0.66915 0.24064 0.0
C56 C 0.28142 0.68145 0.25044 0.0
C57 C 0.33105 0.7342 0.24 0.0
C58 C 0.3402 0.72764 0.2614 0.0
C59 C 0.35306 0.74159 0.24677 0.0
C60 C 0.34273 0.74129 0.23745 0.0
C61 C 0.35194 0.7348 0.25889 0.0
C62 C 0.32986 0.72731 0.25202 0.0
C63 C 0.32025 0.73434 0.23006 0.0
O64 O 0.29355 0.71857 0.20299 0.0
O65 O 0.28169 0.73125 0.21625 0.0
O66 O 0.30834 0.73723 0.23459 0.0
O67 O 0.32023 0.72453 0.22136 0.0
H68 H 0.30262 0.74598 0.1982 0.0
H69 H 0.30141 0.76295 0.18087 0.0
H70 H 0.26278 0.74819 0.16918 0.0
H71 H 0.264 0.7315 0.18659 0.0
H72 H 0.25704 0.67582 0.22102 0.0
H73 H 0.27393 0.69333 0.21972 0.0
H74 H 0.27161 0.66534 0.26001 0.0
H75 H 0.28822 0.68292 0.25869 0.0
H76 H 0.33905 0.72218 0.27056 0.0
H77 H 0.36184 0.74736 0.24456 0.0
H78 H 0.34382 0.7467 0.22825 0.0
H79 H 0.32094 0.72172 0.25416 0.0
C80 C 0.96444 0.44565 0.02462 0.0
C81 C 0.9753 0.43778 0.02836 0.0
C82 C 0.97121 0.42281 1.00951 0.0
C83 C 0.97866 0.42647 0.02086 0.0
C84 C 0.96038 0.43082 1.00584 0.0
C85 C 0.95705 0.44209 0.01332 0.0
U86 U 0.96879 0.47058 0.05361 0.0
O87 O 0.9664 0.49226 0.05366 0.0
O88 O 0.95349 0.48006 0.06614 0.0
C89 C 0.95609 0.49198 0.06167 0.0
C90 C 0.96059 0.45754 0.03233 0.0
C91 C 0.94451 0.49989 0.05755 0.0
C92 C 0.92621 0.50443 0.0424 0.0
C93 C 0.93716 0.49667 0.04609 0.0
C94 C 0.92988 0.51866 0.06161 0.0
C95 C 0.92246 0.51557 0.0501 0.0
C96 C 0.94077 0.51091 0.06527 0.0
C97 C 0.99752 0.46595 0.07863 0.0
C98 C 1.00124 0.47965 0.09837 0.0
C99 C 0.01671 0.4621 0.09277 0.0
C100 C 0.00912 0.45888 0.08154 0.0
C101 C 0.01287 0.47249 0.1014 0.0
C102 C 0.99363 0.4764 0.08709 0.0
C103 C 0.98969 0.46214 0.06679 0.0
O104 O 0.95595 0.45542 0.04435 0.0
O105 O 0.96888 0.46759 0.03187 0.0
O106 O 0.99046 0.47016 0.05659 0.0
O107 O 0.97754 0.45795 0.06905 0.0
H108 H 0.98112 0.44037 0.03708 0.0
H109 H 0.98697 0.42048 0.02406 0.0
H110 H 0.95455 0.42847 0.99706 0.0
H111 H 0.94867 0.44807 1.01025 0.0
H112 H 0.92083 0.50182 0.03342 0.0
H113 H 0.93991 0.4882 0.03999 0.0
H114 H 0.92717 0.527 0.06791 0.0
H115 H 0.94629 0.51352 0.07419 0.0
H116 H 0.99791 0.48763 0.10484 0.0
H117 H 0.02571 0.45652 0.0946 0.0
H118 H 0.01231 0.45082 0.07509 0.0
H119 H 0.98469 0.48198 0.085 0.0
C120 C 0.71664 0.77201 0.19917 0.0
C121 C 0.72479 0.77738 0.18925 0.0
C122 C 0.72355 0.75668 0.17645 0.0
C123 C 0.72822 0.76978 0.17799 0.0
C124 C 0.71558 0.75134 0.18658 0.0
C125 C 0.71216 0.75893 0.19778 0.0
U126 U 0.72001 0.80099 0.22441 0.0
O127 O 0.7043 0.81352 0.23318 0.0
O128 O 0.71652 0.80099 0.24603 0.0
C129 C 0.70627 0.80901 0.24525 0.0
C130 C 0.71238 0.77987 0.21089 0.0
C131 C 0.69429 0.80499 0.25263 0.0
C132 C 0.67723 0.78884 0.25814 0.0
C133 C 0.68846 0.79246 0.25075 0.0
C134 C 0.67748 0.81025 0.26923 0.0
C135 C 0.67159 0.79769 0.26749 0.0
C136 C 0.68869 0.81384 0.26188 0.0
C137 C 0.74918 0.82574 0.22154 0.0
C138 C 0.75077 0.84791 0.23123 0.0
C139 C 0.77048 0.83708 0.22266 0.0
C140 C 0.76288 0.82599 0.21912 0.0
C141 C 0.76453 0.84823 0.22871 0.0
C142 C 0.74317 0.83675 0.22773 0.0
C143 C 0.74142 0.81403 0.2172 0.0
O144 O 0.72013 0.77932 0.22139 0.0
O145 O 0.70794 0.79187 0.20852 0.0
O146 O 0.72955 0.81632 0.21227 0.0
O147 O 0.74173 0.80378 0.22517 0.0
H148 H 0.72837 0.78747 0.19014 0.0
H149 H 0.73429 0.77427 0.17036 0.0
H150 H 0.71201 0.74123 0.1859 0.0
H151 H 0.70591 0.75458 0.20536 0.0
H152 H 0.67289 0.77915 0.25644 0.0
H153 H 0.69262 0.7855 0.24361 0.0
H154 H 0.67356 0.81725 0.27646 0.0
H155 H 0.69307 0.82353 0.2635 0.0
H156 H 0.74588 0.85625 0.23601 0.0
H157 H 0.781 0.83703 0.2204 0.0
H158 H 0.76771 0.81762 0.21432 0.0
H159 H 0.7326 0.83676 0.22977 0.0
C160 C 0.0229 0.96547 0.44747 0.0
C161 C 0.01899 0.97863 0.44515 0.0
C162 C 1.00762 0.97185 0.42467 0.0
C163 C 0.01142 0.98177 0.43389 0.0
C164 C 0.01184 0.95876 0.42691 0.0
C165 C 0.01934 0.95562 0.43819 0.0
U166 U 0.05055 0.96978 0.47391 0.0
O167 O 0.04949 0.9673 0.49567 0.0
O168 O 0.06266 0.95459 0.48374 0.0
C169 C 0.05756 0.95707 0.49556 0.0
C170 C 0.03013 0.96162 0.45969 0.0
C171 C 0.05325 0.94548 0.50332 0.0
C172 C 0.04269 0.92385 0.50504 0.0
C173 C 0.04625 0.93489 0.49745 0.0
C174 C 0.05289 0.93395 0.52447 0.0
C175 C 0.046 0.92322 0.51866 0.0
C176 C 0.05648 0.94493 0.51688 0.0
C177 C 0.07539 0.99893 0.47057 0.0
C178 C 0.09718 1.0014 0.48086 0.0
C179 C 0.08689 0.02011 0.47004 0.0
C180 C 0.07585 0.01228 0.46689 0.0
C181 C 0.09779 0.01476 0.47693 0.0
C182 C 0.08608 0.99355 0.47771 0.0
C183 C 0.06389 0.99082 0.46634 0.0
O184 O 0.04222 0.95702 0.458 0.0
O185 O 0.02905 0.96961 0.47006 0.0
O186 O 0.0533 0.99146 0.47397 0.0
O187 O 0.06648 0.97875 0.46204 0.0
H188 H 0.0216 0.98645 0.45213 0.0
H189 H 1.00827 0.99194 0.43259 0.0
H190 H 0.00936 0.95089 0.41994 0.0
H191 H 0.02226 0.94542 0.43973 0.0
H192 H 0.03726 0.91584 0.50027 0.0
H193 H 0.04359 0.93514 0.487 0.0
H194 H 0.05578 0.93376 0.53486 0.0
H195 H 0.06191 0.95298 0.52159 0.0
H196 H 0.10541 0.99692 0.4861 0.0
H197 H 0.08686 0.0304 0.46708 0.0
H198 H 0.06768 0.01664 0.46143 0.0
H199 H 0.08593 0.98326 0.48066 0.0
C200 C 0.21551 0.74871 0.8309 0.0
C201 C 0.2281 0.74729 0.83672 0.0
C202 C 0.22236 0.76361 0.85393 0.0
C203 C 0.23152 0.7547 0.84812 0.0
C204 C 0.20975 0.7649 0.84804 0.0
C205 C 0.20638 0.75753 0.83666 0.0
U206 U 0.22004 0.72066 0.80488 0.0
O207 O 0.20481 0.70811 0.79531 0.0
O208 O 0.21713 0.72122 0.78317 0.0
C209 C 0.20702 0.71298 0.78343 0.0
C210 C 0.21165 0.74124 0.8188 0.0
C211 C 0.19515 0.71698 0.77584 0.0
C212 C 0.17754 0.73269 0.77077 0.0
C213 C 0.18873 0.72912 0.77827 0.0
C214 C 0.17904 0.712 0.75845 0.0
C215 C 0.17254 0.72415 0.76077 0.0
C216 C 0.19021 0.70847 0.76591 0.0
C217 C 0.24937 0.69623 0.80819 0.0
C218 C 0.2531 0.67697 0.79389 0.0
C219 C 0.26901 0.68256 0.81114 0.0
C220 C 0.26125 0.69346 0.81488 0.0
C221 C 0.26507 0.67415 0.80059 0.0
C222 C 0.24532 0.68793 0.79765 0.0
C223 C 0.24138 0.70774 0.81252 0.0
O224 O 0.21971 0.74219 0.80856 0.0
O225 O 0.20733 0.72912 0.82067 0.0
O226 O 0.22938 0.70511 0.81691 0.0
O227 O 0.24178 0.71814 0.80477 0.0
H228 H 0.23528 0.74048 0.83245 0.0
H229 H 0.24126 0.75335 0.85247 0.0
H230 H 0.20252 0.77178 0.85209 0.0
H231 H 0.19662 0.75879 0.83229 0.0
H232 H 0.17271 0.74205 0.77292 0.0
H233 H 0.19237 0.73581 0.78594 0.0
H234 H 0.17563 0.70526 0.75072 0.0
H235 H 0.19506 0.69908 0.76386 0.0
H236 H 0.24981 0.67079 0.78565 0.0
H237 H 0.27802 0.68061 0.81667 0.0
H238 H 0.2645 0.69972 0.82308 0.0
H239 H 0.23618 0.68992 0.79235 0.0
C240 C 0.96488 0.57664 0.50221 0.0
C241 C 0.97802 0.58131 0.50214 0.0
C242 C 0.97196 0.59945 0.51725 0.0
C243 C 0.98154 0.59259 0.50963 0.0
C244 C 0.9588 0.59476 0.51714 0.0
C245 C 0.95531 0.58349 0.50972 0.0
U246 U 0.96848 0.55094 0.47368 0.0
O247 O 0.96573 0.52931 0.47411 0.0
O248 O 0.95278 0.54146 0.46159 0.0
C249 C 0.9553 0.52959 0.46623 0.0
C250 C 0.96087 0.56458 0.49478 0.0
C251 C 0.94367 0.52181 0.47049 0.0
C252 C 0.92757 0.51509 0.4872 0.0
C253 C 0.93843 0.52292 0.4834 0.0
C254 C 0.92699 0.50515 0.46517 0.0
C255 C 0.92176 0.50603 0.47815 0.0
C256 C 0.93782 0.51294 0.46141 0.0
C257 C 0.99653 0.55465 0.44771 0.0
C258 C 1.00593 0.53769 0.43308 0.0
C259 C 0.00968 0.56088 0.42844 0.0
C260 C 1.00219 0.56441 0.43966 0.0
C261 C 0.01172 0.54748 0.42503 0.0
C262 C 0.99836 0.54124 0.44428 0.0
C263 C 0.98909 0.55878 0.45974 0.0
O264 O 0.95596 0.56647 0.48282 0.0
O265 O 0.96904 0.55444 0.49533 0.0
O266 O 0.99004 0.55106 0.47017 0.0
O267 O 0.97698 0.5632 0.45775 0.0
H268 H 0.98556 0.57621 0.49635 0.0
H269 H 0.99173 0.596 0.50936 0.0
H270 H 0.9512 0.59966 0.52302 0.0
H271 H 0.94513 0.58003 0.50994 0.0
H272 H 0.92389 0.51597 0.4973 0.0
H273 H 0.9428 0.52973 0.49056 0.0
H274 H 0.92265 0.4985 0.45784 0.0
H275 H 0.94167 0.512 0.45137 0.0
H276 H 1.00717 0.52728 0.43066 0.0
H277 H 0.01412 0.56868 0.4226 0.0
H278 H 1.00094 0.57481 0.44213 0.0
H279 H 0.99402 0.53351 0.4503 0.0
C280 C 0.7847 0.78383 0.83475 0.0
C281 C 0.79556 0.77539 0.83689 0.0
C282 C 0.78345 0.7641 0.85456 0.0
C283 C 0.79496 0.76563 0.84673 0.0
C284 C 0.77259 0.77256 0.85226 0.0
C285 C 0.77322 0.7823 0.84247 0.0
U286 U 0.79949 0.80118 0.80402 0.0
O287 O 0.78909 0.81079 0.78744 0.0
O288 O 0.80215 0.82254 0.80046 0.0
C289 C 0.79359 0.82265 0.79058 0.0
C290 C 0.78511 0.79443 0.82473 0.0
C291 C 0.78372 0.83346 0.79078 0.0
C292 C 0.76241 0.84279 0.79747 0.0
C293 C 0.77174 0.83246 0.79785 0.0
C294 C 0.77702 0.85523 0.7831 0.0
C295 C 0.76493 0.85432 0.79006 0.0
C296 C 0.78629 0.84492 0.78347 0.0
C297 C 0.83014 0.78639 0.78602 0.0
C298 C 0.84798 0.79697 0.77362 0.0
C299 C 0.84309 0.77377 0.76983 0.0
C300 C 0.83288 0.77448 0.77925 0.0
C301 C 0.85091 0.78496 0.76698 0.0
C302 C 0.8377 0.79769 0.78302 0.0
C303 C 0.8198 0.78653 0.79651 0.0
O304 O 0.79526 0.80259 0.82547 0.0
O305 O 0.78218 0.79086 0.81246 0.0
O306 O 0.80756 0.78427 0.79253 0.0
O307 O 0.82063 0.79592 0.80565 0.0
H308 H 0.80451 0.77638 0.83099 0.0
H309 H 0.80345 0.75921 0.84813 0.0
H310 H 0.76365 0.77183 0.8582 0.0
H311 H 0.76475 0.78874 0.841 0.0
H312 H 0.75328 0.8418 0.80306 0.0
H313 H 0.76959 0.82369 0.8036 0.0
H314 H 0.77924 0.86382 0.77712 0.0
H315 H 0.79545 0.84586 0.7779 0.0
H316 H 0.85383 0.80577 0.77181 0.0
H317 H 0.84484 0.76441 0.76476 0.0
H318 H 0.82717 0.76564 0.78137 0.0
H319 H 0.83582 0.80703 0.78808 0.0
C320 C 0.28644 0.28627 0.33611 0.0
C321 C 0.29063 0.27319 0.33369 0.0
C322 C 0.28558 0.26729 0.35668 0.0
C323 C 0.29015 0.26377 0.34387 0.0
C324 C 0.28157 0.28046 0.35905 0.0
C325 C 0.28198 0.28982 0.34888 0.0
U326 U 0.30023 0.30241 0.30429 0.0
O327 O 0.28942 0.31069 0.28719 0.0
O328 O 0.30215 0.32355 0.29946 0.0
C329 C 0.29357 0.32283 0.28961 0.0
C330 C 0.28627 0.29632 0.32549 0.0
C331 C 0.28337 0.3333 0.28927 0.0
C332 C 0.26495 0.34552 0.29919 0.0
C333 C 0.27435 0.33526 0.29976 0.0
C334 C 0.27344 0.35184 0.27762 0.0
C335 C 0.26443 0.35401 0.28813 0.0
C336 C 0.28279 0.34162 0.2782 0.0
C337 C 0.33146 0.28763 0.28748 0.0
C338 C 0.34129 0.29558 0.26691 0.0
C339 C 0.35175 0.27769 0.2789 0.0
C340 C 0.34177 0.27838 0.28855 0.0
C341 C 0.35164 0.28624 0.2679 0.0
C342 C 0.33127 0.29626 0.27661 0.0
C343 C 0.32109 0.28801 0.29784 0.0
O344 O 0.29604 0.30496 0.32571 0.0
O345 O 0.28335 0.29207 0.31342 0.0
O346 O 0.30895 0.28521 0.29387 0.0
O347 O 0.32158 0.2981 0.30619 0.0
H348 H 0.29419 0.27022 0.32393 0.0
H349 H 0.29345 0.25376 0.34173 0.0
H350 H 0.27784 0.28349 0.36872 0.0
H351 H 0.27867 0.29984 0.35095 0.0
H352 H 0.25825 0.34694 0.30751 0.0
H353 H 0.27464 0.32892 0.3084 0.0
H354 H 0.27321 0.35798 0.26884 0.0
H355 H 0.28963 0.34023 0.26998 0.0
H356 H 0.3408 0.30224 0.25854 0.0
H357 H 0.35966 0.27054 0.28015 0.0
H358 H 0.34212 0.27168 0.29691 0.0
H359 H 0.32338 0.30348 0.27562 0.0
C360 C 0.4659 0.94524 0.52491 0.0
C361 C 0.47915 0.94091 0.52454 0.0
C362 C 0.47287 0.92205 0.51042 0.0
C363 C 0.48261 0.92944 0.51733 0.0
C364 C 0.4596 0.92639 0.51101 0.0
C365 C 0.45617 0.93785 0.51816 0.0
U366 U 0.46927 0.97223 0.55239 0.0
O367 O 0.46671 0.99386 0.55069 0.0
O368 O 0.45351 0.98244 0.56363 0.0
C369 C 0.45611 0.99401 0.55831 0.0
C370 C 0.46194 0.95761 0.53183 0.0
C371 C 0.44461 1.00164 0.55334 0.0
C372 C 0.42232 1.00292 0.54398 0.0
C373 C 0.43333 0.99539 0.54792 0.0
C374 C 0.43384 0.02301 0.55052 0.0
C375 C 0.4224 0.01683 0.5453 0.0
C376 C 0.44479 0.01549 0.5545 0.0
C377 C 0.49708 0.96995 0.57908 0.0
C378 C 0.50022 0.97063 0.60318 0.0
C379 C 0.51707 0.97976 0.58879 0.0
C380 C 0.50943 0.9763 0.57763 0.0
C381 C 0.51264 0.97684 0.60172 0.0
C382 C 0.49255 0.96721 0.59202 0.0
C383 C 0.48967 0.9652 0.56712 0.0
O384 O 0.45686 0.95629 0.54379 0.0
O385 O 0.47018 0.96768 0.53095 0.0
O386 O 0.49082 0.97227 0.55625 0.0
O387 O 0.47752 0.9608 0.569 0.0
H388 H 0.48683 0.94643 0.52973 0.0
H389 H 0.4929 0.92631 0.51722 0.0
H390 H 0.45186 0.92109 0.50569 0.0
H391 H 0.4459 0.94104 0.51827 0.0
H392 H 0.41375 0.99784 0.53986 0.0
H393 H 0.43298 0.98471 0.54685 0.0
H394 H 0.43421 0.03367 0.55185 0.0
H395 H 0.45336 0.02051 0.5587 0.0
H396 H 0.49642 0.96836 0.61298 0.0
H397 H 0.52667 0.98435 0.58725 0.0
H398 H 0.51334 0.97835 0.56782 0.0
H399 H 0.48317 0.96221 0.59356 0.0
C400 C 0.21592 0.27288 0.69853 0.0
C401 C 0.22736 0.27621 0.69132 0.0
C402 C 0.22292 0.25828 0.67537 0.0
C403 C 0.23084 0.26896 0.67984 0.0
C404 C 0.21149 0.25503 0.68271 0.0
C405 C 0.20804 0.26225 0.69415 0.0
U406 U 0.22016 0.30104 0.72441 0.0
O407 O 0.20486 0.31318 0.73431 0.0
O408 O 0.21777 0.30039 0.7462 0.0
C409 C 0.20744 0.30835 0.74614 0.0
C410 C 0.21201 0.28024 0.71067 0.0
C411 C 0.19587 0.30403 0.754 0.0
C412 C 0.17499 0.29206 0.75622 0.0
C413 C 0.18602 0.29574 0.74856 0.0
C414 C 0.18365 0.30478 0.77487 0.0
C415 C 0.17366 0.29655 0.76949 0.0
C416 C 0.19461 0.30846 0.7672 0.0
C417 C 0.24899 0.326 0.72059 0.0
C418 C 0.25298 0.34502 0.73515 0.0
C419 C 0.26829 0.34003 0.7172 0.0
C420 C 0.26055 0.32909 0.71352 0.0
C421 C 0.26465 0.34815 0.72808 0.0
C422 C 0.24523 0.33402 0.73145 0.0
C423 C 0.24109 0.31438 0.71639 0.0
O424 O 0.22026 0.27949 0.72078 0.0
O425 O 0.20738 0.29226 0.70885 0.0
O426 O 0.22895 0.31681 0.71226 0.0
O427 O 0.24183 0.30397 0.72411 0.0
H428 H 0.23356 0.28441 0.69454 0.0
H429 H 0.23964 0.27183 0.67438 0.0
H430 H 0.20527 0.24676 0.67973 0.0
H431 H 0.19921 0.2595 0.69963 0.0
H432 H 0.16757 0.28561 0.7518 0.0
H433 H 0.18684 0.29215 0.73839 0.0
H434 H 0.18288 0.30859 0.78496 0.0
H435 H 0.20209 0.3149 0.77157 0.0
H436 H 0.24994 0.35097 0.74364 0.0
H437 H 0.27705 0.34224 0.71138 0.0
H438 H 0.26358 0.32305 0.70508 0.0
H439 H 0.23633 0.33176 0.73705 0.0
C440 C 0.78464 0.23801 0.69297 0.0
C441 C 0.7958 0.24577 0.68997 0.0
C442 C 0.78346 0.25687 0.67231 0.0
C443 C 0.79521 0.25512 0.67973 0.0
C444 C 0.77228 0.24916 0.67555 0.0
C445 C 0.77289 0.23984 0.68575 0.0
U446 U 0.7995 0.22148 0.72418 0.0
O447 O 0.78908 0.21283 0.74129 0.0
O448 O 0.80161 0.20025 0.72857 0.0
C449 C 0.79321 0.20075 0.73857 0.0
C450 C 0.78499 0.2278 0.70339 0.0
C451 C 0.78298 0.19029 0.73884 0.0
C452 C 0.76359 0.17915 0.72953 0.0
C453 C 0.7732 0.18921 0.72893 0.0
C454 C 0.77348 0.17121 0.74993 0.0
C455 C 0.76358 0.17004 0.74008 0.0
C456 C 0.78305 0.18122 0.74931 0.0
C457 C 0.83062 0.2362 0.74118 0.0
C458 C 0.84327 0.22559 0.75878 0.0
C459 C 0.8481 0.24827 0.7528 0.0
C460 C 0.83811 0.24776 0.74313 0.0
C461 C 0.85085 0.23719 0.76076 0.0
C462 C 0.83322 0.22511 0.7491 0.0
C463 C 0.82025 0.23598 0.73078 0.0
O464 O 0.79494 0.21938 0.70283 0.0
O465 O 0.78232 0.23188 0.71556 0.0
O466 O 0.80813 0.23864 0.73482 0.0
O467 O 0.82077 0.22608 0.72219 0.0
H468 H 0.80498 0.24452 0.69545 0.0
H469 H 0.80404 0.2608 0.67746 0.0
H470 H 0.76299 0.25038 0.67027 0.0
H471 H 0.76415 0.234 0.68796 0.0
H472 H 0.75606 0.17863 0.72184 0.0
H473 H 0.77297 0.19616 0.72077 0.0
H474 H 0.77394 0.16427 0.75808 0.0
H475 H 0.79056 0.18187 0.75702 0.0
H476 H 0.84501 0.21693 0.76481 0.0
H477 H 0.85384 0.25729 0.75389 0.0
H478 H 0.83627 0.25641 0.73709 0.0
H479 H 0.8275 0.2161 0.74778 0.0
C480 C 0.52162 0.55629 0.57969 0.0
C481 C 0.52336 0.54396 0.58579 0.0
C482 C 0.50657 0.54964 0.60247 0.0
C483 C 0.51588 0.54064 0.59707 0.0
C484 C 0.50497 0.562 0.5963 0.0
C485 C 0.51241 0.56527 0.58504 0.0
U486 U 0.5499 0.5516 0.55416 0.0
O487 O 0.54932 0.55387 0.53236 0.0
O488 O 0.56225 0.56669 0.54447 0.0
C489 C 0.55738 0.56412 0.53257 0.0
C490 C 0.5291 0.55999 0.56766 0.0
C491 C 0.55316 0.57567 0.5247 0.0
C492 C 0.54223 0.59708 0.5227 0.0
C493 C 0.54573 0.58606 0.53036 0.0
C494 C 0.55334 0.58732 0.50362 0.0
C495 C 0.54602 0.59786 0.50922 0.0
C496 C 0.55688 0.57637 0.51128 0.0
C497 C 0.5747 0.52265 0.5583 0.0
C498 C 0.59559 0.51975 0.5464 0.0
C499 C 0.58729 0.50222 0.56042 0.0
C500 C 0.57618 0.50995 0.56359 0.0
C501 C 0.59722 0.50704 0.55187 0.0
C502 C 0.58443 0.52749 0.54959 0.0
C503 C 0.56308 0.53067 0.56228 0.0
O504 O 0.54118 0.56453 0.56965 0.0
O505 O 0.52831 0.55171 0.55751 0.0
O506 O 0.55268 0.52994 0.5544 0.0
O507 O 0.56557 0.54278 0.56652 0.0
H508 H 0.53047 0.5369 0.58182 0.0
H509 H 0.51749 0.5311 0.60163 0.0
H510 H 0.49777 0.56909 0.60002 0.0
H511 H 0.51088 0.57482 0.58045 0.0
H512 H 0.53646 0.60493 0.5273 0.0
H513 H 0.5427 0.58569 0.54069 0.0
H514 H 0.5566 0.58764 0.49335 0.0
H515 H 0.56264 0.56847 0.50674 0.0
H516 H 0.60306 0.52384 0.53988 0.0
H517 H 0.58804 0.49241 0.56462 0.0
H518 H 0.56875 0.506 0.57028 0.0
H519 H 0.58346 0.53729 0.54539 0.0
C520 C 0.52087 0.4676 0.94947 0.0
C521 C 0.52614 0.47605 0.93978 0.0
C522 C 0.50528 0.47516 0.92733 0.0
C523 C 0.51843 0.47977 0.92879 0.0
C524 C 0.50007 0.46678 0.93716 0.0
C525 C 0.50779 0.46304 0.94808 0.0
U526 U 0.55008 0.47089 0.97418 0.0
O527 O 0.55036 0.46736 0.99577 0.0
O528 O 0.56285 0.4553 0.98252 0.0
C529 C 0.55853 0.45725 0.99473 0.0
C530 C 0.52882 0.4632 0.96097 0.0
C531 C 0.55482 0.44528 1.00217 0.0
C532 C 0.53958 0.42726 1.00714 0.0
C533 C 0.54287 0.43851 0.99971 0.0
C534 C 0.56016 0.42945 0.01945 0.0
C535 C 0.5482 0.42257 0.01711 0.0
C536 C 0.56341 0.44066 0.01206 0.0
C537 C 0.57462 0.50013 0.97121 0.0
C538 C 0.59637 0.50194 0.98171 0.0
C539 C 0.58642 0.52117 0.9715 0.0
C540 C 0.57531 0.51359 0.96795 0.0
C541 C 0.59713 0.51546 0.97838 0.0
C542 C 0.5852 0.49436 0.97819 0.0
C543 C 0.5629 0.49237 0.96697 0.0
O544 O 0.54084 0.45884 0.95832 0.0
O545 O 0.52833 0.47085 0.97162 0.0
O546 O 0.55272 0.49256 0.97515 0.0
O547 O 0.56524 0.48056 0.96186 0.0
H548 H 0.53621 0.47973 0.9407 0.0
H549 H 0.52271 0.48634 0.9215 0.0
H550 H 0.49009 0.46288 0.93629 0.0
H551 H 0.50356 0.45648 0.95543 0.0
H552 H 0.53035 0.42216 1.00497 0.0
H553 H 0.53611 0.44193 0.99209 0.0
H554 H 0.56694 0.4263 0.02717 0.0
H555 H 0.57265 0.44578 0.01414 0.0
H556 H 0.60436 0.49725 0.98713 0.0
H557 H 0.58671 0.53148 0.9686 0.0
H558 H 0.56727 0.51822 0.96253 0.0
H559 H 0.58485 0.48399 0.98087 0.0
C560 C 0.71577 0.24853 0.33026 0.0
C561 C 0.72788 0.24608 0.33673 0.0
C562 C 0.72294 0.26331 0.35327 0.0
C563 C 0.73145 0.25343 0.34812 0.0
C564 C 0.71082 0.26567 0.3467 0.0
C565 C 0.7073 0.25835 0.33533 0.0
U566 U 0.7199 0.22028 0.30446 0.0
O567 O 0.70455 0.20776 0.29505 0.0
O568 O 0.71691 0.22067 0.28275 0.0
C569 C 0.70675 0.21251 0.28312 0.0
C570 C 0.71175 0.24104 0.31824 0.0
C571 C 0.69487 0.21653 0.27556 0.0
C572 C 0.67723 0.23223 0.27058 0.0
C573 C 0.68846 0.22866 0.27803 0.0
C574 C 0.67871 0.21157 0.25821 0.0
C575 C 0.6722 0.22371 0.26058 0.0
C576 C 0.68991 0.20804 0.26562 0.0
C577 C 0.74908 0.19568 0.30792 0.0
C578 C 0.7534 0.17705 0.29295 0.0
C579 C 0.76805 0.18129 0.31165 0.0
C580 C 0.7603 0.19222 0.31535 0.0
C581 C 0.76474 0.17356 0.30038 0.0
C582 C 0.74564 0.18803 0.29668 0.0
C583 C 0.74117 0.20728 0.31215 0.0
O584 O 0.71977 0.24185 0.30795 0.0
O585 O 0.70732 0.22897 0.32021 0.0
O586 O 0.72917 0.20476 0.3166 0.0
O587 O 0.74161 0.2176 0.30429 0.0
H588 H 0.73454 0.23849 0.33297 0.0
H589 H 0.74078 0.25125 0.35298 0.0
H590 H 0.70412 0.27332 0.35022 0.0
H591 H 0.69793 0.26042 0.33046 0.0
H592 H 0.6724 0.24159 0.27277 0.0
H593 H 0.69212 0.23534 0.2857 0.0
H594 H 0.67527 0.20485 0.25048 0.0
H595 H 0.69475 0.19866 0.26354 0.0
H596 H 0.75062 0.17141 0.28416 0.0
H597 H 0.77654 0.1788 0.31775 0.0
H598 H 0.76308 0.19797 0.32409 0.0
H599 H 0.737 0.19057 0.29081 0.0
C600 C 0.46525 0.07726 1.00262 0.0
C601 C 0.4781 0.08257 1.00157 0.0
C602 C 0.47232 0.10031 0.01727 0.0
C603 C 0.48161 0.09398 1.00887 0.0
C604 C 0.45944 0.09496 0.01815 0.0
C605 C 0.45597 0.08357 1.0109 0.0
U606 U 0.46883 0.05085 0.97468 0.0
O607 O 0.46627 0.02918 0.97592 0.0
O608 O 0.45317 0.04084 0.96308 0.0
C609 C 0.45573 0.02917 0.9682 0.0
C610 C 0.46131 0.06503 0.99546 0.0
C611 C 0.44418 0.02148 0.97293 0.0
C612 C 0.42184 0.0201 0.98211 0.0
C613 C 0.43292 0.02765 0.97844 0.0
C614 C 0.43325 1.0001 0.97513 0.0
C615 C 0.42183 1.00622 0.98042 0.0
C616 C 0.44427 1.00765 0.97141 0.0
C617 C 0.49671 0.05383 0.9482 0.0
C618 C 0.50363 0.05796 0.92535 0.0
C619 C 0.51316 0.03962 0.93737 0.0
C620 C 0.50539 0.04291 0.94849 0.0
C621 C 0.5125 0.04719 0.92568 0.0
C622 C 0.49589 0.06126 0.93647 0.0
C623 C 0.48927 0.05826 0.96024 0.0
O624 O 0.45633 0.06659 0.98348 0.0
O625 O 0.46959 0.05499 0.99621 0.0
O626 O 0.49038 0.05101 0.971 0.0
O627 O 0.47712 0.06262 0.95829 0.0
H628 H 0.48541 0.07787 0.99518 0.0
H629 H 0.49157 0.0979 1.00784 0.0
H630 H 0.45208 0.09942 0.02465 0.0
H631 H 0.44602 0.0796 1.01188 0.0
H632 H 0.41328 0.02512 0.98631 0.0
H633 H 0.43263 0.03831 0.97978 0.0
H634 H 0.43356 0.98948 0.97353 0.0
H635 H 0.45283 1.00269 0.96714 0.0
H636 H 0.50268 0.06391 0.91648 0.0
H637 H 0.51999 0.03136 0.93808 0.0
H638 H 0.50641 0.03703 0.9574 0.0
H639 H 0.4894 0.0698 0.93595 0.0
Li640 Li 0.27193 0.89392 0.01416 0.0
Li641 Li 0.26204 0.87762 0.02824 0.0
Li642 Li 0.25809 0.87684 1.00431 0.0
Li643 Li 0.247 0.89441 0.01889 0.0
C644 C 0.28853 0.87491 0.01202 0.0
N645 N 0.31567 0.87696 1.00842 0.0
C646 C 0.29713 0.87396 0.02291 0.0
C647 C 0.29376 0.87689 0.9993 0.0
C648 C 0.31081 0.875 0.02088 0.0
C649 C 0.3075 0.87791 0.99769 0.0
C650 C 0.26319 0.89872 0.04475 0.0
C651 C 0.2535 0.9051 0.06582 0.0
N652 N 0.26496 0.90167 0.07209 0.0
C653 C 0.27488 0.89529 0.0514 0.0
C654 C 0.25241 0.90368 0.05201 0.0
C655 C 0.27557 0.89683 0.06522 0.0
C656 C 0.28792 0.91196 0.99933 0.0
N657 N 0.28694 0.90556 1.01115 0.0
C658 C 0.30726 0.91554 0.01865 0.0
C659 C 0.29631 0.90729 0.02078 0.0
C660 C 0.30858 0.92223 1.00651 0.0
C661 C 0.29868 0.92035 0.99679 0.0
H662 H 0.28034 0.91056 0.99184 0.0
H663 H 0.29534 0.90223 0.03014 0.0
C664 C 0.27254 0.85553 0.04219 0.0
N665 N 0.26421 0.86607 0.04353 0.0
C666 C 0.27441 0.84674 0.05272 0.0
C667 C 0.25877 0.85949 0.06574 0.0
C668 C 0.25718 0.86801 0.05495 0.0
C669 C 0.26755 0.84868 0.06477 0.0
H670 H 0.27765 0.85384 0.03287 0.0
H671 H 0.25023 0.87613 0.0557 0.0
C672 C 0.25226 0.89695 0.98874 0.0
N673 N 0.2428 0.89708 0.9629 0.0
C674 C 0.23898 0.90009 0.98621 0.0
C675 C 0.26075 0.89396 0.97811 0.0
C676 C 0.23439 0.9001 0.97308 0.0
C677 C 0.25577 0.89405 0.96513 0.0
C678 C 0.2396 0.86429 0.02505 0.0
C679 C 0.24383 0.85157 0.02146 0.0
C680 C 0.23056 0.86598 0.03548 0.0
C681 C 0.23899 0.84069 0.02846 0.0
C682 C 0.22594 0.85485 0.04222 0.0
N683 N 0.23023 0.84255 0.03861 0.0
C684 C 0.26488 0.8574 0.98454 0.0
C685 C 0.24267 0.86499 0.98355 0.0
C686 C 0.26275 0.84899 0.97358 0.0
N687 N 0.25495 0.86529 0.9892 0.0
C688 C 0.24011 0.85676 0.97254 0.0
C689 C 0.25023 0.84861 0.96736 0.0
H690 H 0.27445 0.8575 0.9894 0.0
H691 H 0.23486 0.8712 0.98756 0.0
C692 C 0.23364 0.91877 0.0231 0.0
N693 N 0.23172 0.90552 0.0214 0.0
C694 C 0.2228 0.92726 0.02496 0.0
C695 C 0.20817 0.90836 0.02315 0.0
C696 C 0.2193 0.90023 0.02132 0.0
C697 C 0.20981 0.92211 0.02503 0.0
H698 H 0.24362 0.92272 0.0231 0.0
H699 H 0.21802 0.88969 0.01975 0.0
O700 O 0.27507 0.87423 0.01383 0.0
O701 O 0.2623 0.89732 0.03122 0.0
O702 O 0.25688 0.89666 1.00155 0.0
O703 O 0.24455 0.87507 0.01858 0.0
H704 H 0.29329 0.87263 0.03285 0.0
H705 H 0.28728 0.87781 0.99078 0.0
H706 H 0.31757 0.87435 0.02923 0.0
H707 H 0.31166 0.87952 0.98791 0.0
H708 H 0.24523 0.9089 0.07156 0.0
H709 H 0.28322 0.89121 0.046 0.0
H710 H 0.24326 0.90634 0.04707 0.0
H711 H 0.28452 0.89412 0.0705 0.0
H712 H 0.31451 0.9168 0.02652 0.0
H713 H 0.29931 0.92519 0.98723 0.0
H714 H 0.28102 0.83838 0.05132 0.0
H715 H 0.25325 0.86145 0.0748 0.0
H716 H 0.23226 0.90242 0.99428 0.0
H717 H 0.27103 0.89144 0.97988 0.0
H718 H 0.22412 0.90246 0.97098 0.0
H719 H 0.2622 0.89166 0.95683 0.0
H720 H 0.25091 0.85012 0.01347 0.0
H721 H 0.22731 0.87579 0.03847 0.0
H722 H 0.24223 0.83079 0.02585 0.0
H723 H 0.21901 0.856 0.05038 0.0
H724 H 0.27079 0.8427 0.97016 0.0
H725 H 0.23033 0.85691 0.96806 0.0
H726 H 0.2246 0.93774 0.02652 0.0
H727 H 0.19837 0.90394 0.0229 0.0
Li728 Li 0.12602 0.51355 0.27599 0.0
Li729 Li 0.14368 0.49895 0.2651 0.0
Li730 Li 0.14302 0.52273 0.26112 0.0
Li731 Li 0.12671 0.5085 0.25095 0.0
C732 C 0.15602 0.52009 0.28378 0.0
N733 N 0.17749 0.53427 0.29341 0.0
C734 C 0.16889 0.51666 0.27987 0.0
C735 C 0.15404 0.53068 0.29263 0.0
C736 C 0.17962 0.52397 0.28484 0.0
C737 C 0.16504 0.53774 0.29738 0.0
C738 C 0.12306 0.48344 0.27058 0.0
C739 C 0.12496 0.45988 0.26677 0.0
N740 N 0.12197 0.45775 0.27977 0.0
C741 C 0.11994 0.48102 0.28389 0.0
C742 C 0.12551 0.4728 0.26192 0.0
C743 C 0.11946 0.46796 0.28835 0.0
C744 C 0.10156 0.51837 0.28901 0.0
N745 N 0.11473 0.51631 0.29114 0.0
C746 C 0.11157 0.51823 0.31471 0.0
C747 C 0.11983 0.51613 0.30368 0.0
C748 C 0.09792 0.52054 0.31284 0.0
C749 C 0.09296 0.52055 0.29974 0.0
H750 H 0.09775 0.51838 0.27893 0.0
H751 H 0.13033 0.51437 0.30511 0.0
C752 C 0.16371 0.48006 0.25845 0.0
N753 N 0.15517 0.48398 0.26821 0.0
C754 C 0.17231 0.46937 0.26044 0.0
C755 C 0.16333 0.46697 0.28256 0.0
C756 C 0.15497 0.47777 0.28018 0.0
C757 C 0.17219 0.46262 0.27262 0.0
H758 H 0.16395 0.48531 0.24914 0.0
H759 H 0.14835 0.48127 0.28792 0.0
C760 C 0.1218 0.53887 0.25887 0.0
N761 N 0.11866 0.56582 0.25545 0.0
C762 C 0.12564 0.54477 0.24695 0.0
C763 C 0.11632 0.54667 0.26905 0.0
C764 C 0.124 0.55841 0.24542 0.0
C765 C 0.11481 0.56028 0.26713 0.0
C766 C 0.14641 0.50589 0.23468 0.0
C767 C 0.14827 0.51629 0.22577 0.0
C768 C 0.14427 0.49306 0.22976 0.0
C769 C 0.14794 0.51366 0.21209 0.0
C770 C 0.14397 0.49084 0.21602 0.0
N771 N 0.1458 0.50111 0.20754 0.0
C772 C 0.1654 0.53669 0.25106 0.0
C773 C 0.15225 0.5496 0.26576 0.0
C774 C 0.17413 0.54731 0.24922 0.0
N775 N 0.15456 0.53805 0.25903 0.0
C776 C 0.1607 0.56048 0.26418 0.0
C777 C 0.17181 0.55948 0.25575 0.0
H778 H 0.16737 0.52729 0.24621 0.0
H779 H 0.14388 0.55038 0.27244 0.0
C780 C 0.10743 0.49419 0.23572 0.0
N781 N 0.11516 0.50524 0.2358 0.0
C782 C 0.09893 0.49147 0.225 0.0
C783 C 0.1064 0.51158 0.2146 0.0
C784 C 0.11469 0.51394 0.22555 0.0
C785 C 0.09832 0.50021 0.21419 0.0
H786 H 0.10777 0.4875 0.24405 0.0
H787 H 0.12081 0.52271 0.22578 0.0
O788 O 0.14539 0.51331 0.2787 0.0
O789 O 0.12378 0.49617 0.26607 0.0
O790 O 0.12331 0.52552 0.26058 0.0
O791 O 0.14648 0.50828 0.24812 0.0
H792 H 0.17056 0.50854 0.27295 0.0
H793 H 0.14412 0.53353 0.29563 0.0
H794 H 0.18964 0.52149 0.28184 0.0
H795 H 0.16366 0.54601 0.30416 0.0
H796 H 0.12691 0.45156 0.26019 0.0
H797 H 0.11801 0.48912 0.29074 0.0
H798 H 0.12791 0.47449 0.25158 0.0
H799 H 0.11712 0.46594 0.29864 0.0
H800 H 0.11589 0.51824 0.32459 0.0
H801 H 0.08249 0.52208 0.29779 0.0
H802 H 0.1789 0.46636 0.25245 0.0
H803 H 0.16304 0.46223 0.29219 0.0
H804 H 0.13012 0.53894 0.23907 0.0
H805 H 0.11334 0.54229 0.27836 0.0
H806 H 0.12703 0.56312 0.23628 0.0
H807 H 0.11062 0.56644 0.27493 0.0
H808 H 0.14976 0.52631 0.22935 0.0
H809 H 0.14274 0.48491 0.23649 0.0
H810 H 0.1493 0.52162 0.20509 0.0
H811 H 0.14226 0.48097 0.21209 0.0
H812 H 0.18273 0.5459 0.2429 0.0
H813 H 0.15844 0.56963 0.26943 0.0
H814 H 0.09274 0.4827 0.22531 0.0
H815 H 0.10646 0.51854 0.20646 0.0
Li816 Li 0.74818 0.62743 1.0098 0.0
Li817 Li 0.75777 0.64441 0.02503 0.0
Li818 Li 0.76231 0.6444 1.00015 0.0
Li819 Li 0.77297 0.6277 0.01458 0.0
C820 C 0.73175 0.64793 1.00852 0.0
N821 N 0.70446 0.64914 1.00598 0.0
C822 C 0.72389 0.65134 0.01949 0.0
C823 C 0.72575 0.64529 0.99623 0.0
C824 C 0.7101 0.65187 0.01801 0.0
C825 C 0.71193 0.6459 0.99516 0.0
C826 C 0.75813 0.62038 0.0398 0.0
C827 C 0.77013 0.61664 0.06022 0.0
N828 N 0.75898 0.61143 0.06571 0.0
C829 C 0.74683 0.61482 0.04559 0.0
C830 C 0.76992 0.62116 0.04712 0.0
C831 C 0.74744 0.61042 0.05872 0.0
C832 C 0.73315 0.6074 0.99639 0.0
N833 N 0.73304 0.616 1.0069 0.0
C834 C 0.71148 0.60832 0.01336 0.0
C835 C 0.72251 0.61655 0.01537 0.0
C836 C 0.71128 0.59933 1.00257 0.0
C837 C 0.72235 0.59896 0.99403 0.0
H838 H 0.74165 0.60705 0.98984 0.0
H839 H 0.72267 0.62337 0.02372 0.0
C840 C 0.76008 0.66797 0.0405 0.0
N841 N 0.7547 0.6556 0.04044 0.0
C842 C 0.75808 0.67657 0.05132 0.0
C843 C 0.74484 0.65969 0.06179 0.0
C844 C 0.74711 0.6514 0.05077 0.0
C845 C 0.75036 0.67249 0.0622 0.0
H846 H 0.7659 0.67118 0.03207 0.0
H847 H 0.74265 0.64168 0.05042 0.0
C848 C 0.76698 0.62383 0.98427 0.0
N849 N 0.77436 0.62256 0.9578 0.0
C850 C 0.78006 0.62073 0.98081 0.0
C851 C 0.75762 0.62615 0.97428 0.0
C852 C 0.7836 0.62015 0.96737 0.0
C853 C 0.76156 0.6255 0.96096 0.0
C854 C 0.78662 0.65177 0.02048 0.0
C855 C 0.79631 0.65712 0.01214 0.0
C856 C 0.78896 0.6512 0.03417 0.0
C857 C 0.8083 0.66152 0.01761 0.0
C858 C 0.80107 0.65572 0.03927 0.0
N859 N 0.81042 0.66072 0.03095 0.0
C860 C 0.75512 0.66391 0.98112 0.0
C861 C 0.77684 0.65538 0.97833 0.0
C862 C 0.75679 0.67224 0.97018 0.0
N863 N 0.76506 0.65566 0.98495 0.0
C864 C 0.77895 0.66355 0.96735 0.0
C865 C 0.76885 0.67216 0.96312 0.0
H866 H 0.7459 0.66412 0.98661 0.0
H867 H 0.78463 0.64876 0.98154 0.0
C868 C 0.78637 0.60441 0.0226 0.0
N869 N 0.78835 0.61664 0.01737 0.0
C870 C 0.79711 0.59592 0.02486 0.0
C871 C 0.81177 0.61259 0.01604 0.0
C872 C 0.80075 0.62076 0.01396 0.0
C873 C 0.81007 0.59996 0.0216 0.0
H874 H 0.77642 0.60126 0.02508 0.0
H875 H 0.80209 0.63033 1.00944 0.0
O876 O 0.74525 0.64716 1.00983 0.0
O877 O 0.7577 0.62473 0.02694 0.0
O878 O 0.76338 0.62464 0.99738 0.0
O879 O 0.77481 0.64743 0.01526 0.0
H880 H 0.72836 0.65347 0.02906 0.0
H881 H 0.73169 0.64268 0.98764 0.0
H882 H 0.70388 0.65443 0.02643 0.0
H883 H 0.70715 0.64378 0.98573 0.0
H884 H 0.77919 0.61722 0.066 0.0
H885 H 0.73767 0.61398 0.04005 0.0
H886 H 0.77887 0.62504 0.04271 0.0
H887 H 0.73874 0.60619 0.06335 0.0
H888 H 0.7033 0.60886 0.02033 0.0
H889 H 0.72261 0.59232 0.9855 0.0
H890 H 0.76235 0.68642 0.05104 0.0
H891 H 0.73889 0.65604 0.06995 0.0
H892 H 0.78742 0.61886 0.9884 0.0
H893 H 0.74745 0.62851 0.97679 0.0
H894 H 0.79371 0.61783 0.96454 0.0
H895 H 0.75444 0.62737 0.95313 0.0
H896 H 0.79463 0.6578 1.00154 0.0
H897 H 0.78145 0.64749 0.04084 0.0
H898 H 0.81592 0.66559 1.01125 0.0
H899 H 0.803 0.6553 0.04986 0.0
H900 H 0.74879 0.67885 0.96745 0.0
H901 H 0.78835 0.663 0.96215 0.0
H902 H 0.79527 0.58635 0.02928 0.0
H903 H 0.82151 0.61606 0.01309 0.0
Li904 Li 0.87732 0.02348 0.26655 0.0
Li905 Li 0.89381 1.00932 0.2763 0.0
Li906 Li 0.89381 0.01415 0.25216 0.0
Li907 Li 0.87587 0.99939 0.26164 0.0
C908 C 0.898 0.03927 0.27121 0.0
N909 N 0.89988 0.06549 0.27917 0.0
C910 C 0.90199 0.04249 0.28418 0.0
C911 C 0.89503 0.04938 0.26228 0.0
C912 C 0.90287 0.05581 0.28801 0.0
C913 C 0.89601 0.06257 0.2665 0.0
C914 C 0.8669 0.01442 0.28902 0.0
C915 C 0.84556 0.02168 0.29721 0.0
N916 N 0.85158 0.02703 0.30814 0.0
C917 C 0.87287 0.02002 0.30032 0.0
C918 C 0.85313 0.01525 0.28745 0.0
C919 C 0.86495 0.02632 0.30989 0.0
C920 C 0.85637 0.04136 0.26027 0.0
N921 N 0.86594 0.03885 0.26948 0.0
C922 C 0.85895 0.05764 0.28248 0.0
C923 C 0.86728 0.04672 0.28049 0.0
C924 C 0.84901 0.06052 0.27311 0.0
C925 C 0.84776 0.05216 0.2619 0.0
H926 H 0.85536 0.03495 0.25165 0.0
H927 H 0.87477 0.04452 0.28781 0.0
C928 C 0.918 1.01008 0.29096 0.0
N929 N 0.90533 1.00542 0.2911 0.0
C930 C 0.92666 1.00741 0.3015 0.0
C931 C 0.90914 0.99503 0.31209 0.0
C932 C 0.90084 0.9979 0.30132 0.0
C933 C 0.92226 0.99984 0.31234 0.0
H934 H 0.9214 0.01586 0.28262 0.0
H935 H 0.89076 0.99419 0.30112 0.0
C936 C 0.87359 0.0154 0.23577 0.0
N937 N 0.8737 0.01691 0.20833 0.0
C938 C 0.87147 1.00402 0.22803 0.0
C939 C 0.87566 0.02757 0.22958 0.0
C940 C 0.87158 1.00499 0.21416 0.0
C941 C 0.87572 0.02812 0.21569 0.0
C942 C 0.90548 0.98867 0.26494 0.0
C943 C 0.9186 0.99158 0.2615 0.0
C944 C 0.90279 0.97802 0.27331 0.0
C945 C 0.92885 0.98376 0.26655 0.0
C946 C 0.91332 0.97046 0.27817 0.0
N947 N 0.92603 0.97346 0.27471 0.0
C948 C 0.91192 0.02809 0.23557 0.0
C949 C 0.90599 1.0068 0.22744 0.0
C950 C 0.91999 0.03021 0.22446 0.0
N951 N 0.90502 0.01659 0.2368 0.0
C952 C 0.91395 1.00851 0.21616 0.0
C953 C 0.92107 0.02038 0.2145 0.0
H954 H 0.91124 0.03562 0.24324 0.0
H955 H 0.9005 0.99768 0.2287 0.0
C956 C 0.85128 0.98559 0.25937 0.0
N957 N 0.86467 0.98426 0.2583 0.0
C958 C 0.8429 0.97474 0.25708 0.0
C959 C 0.86222 0.96136 0.25227 0.0
C960 C 0.87022 0.97247 0.25472 0.0
C961 C 0.84833 0.96235 0.25349 0.0
H962 H 0.84707 0.9951 0.26199 0.0
H963 H 0.88088 0.9717 0.25367 0.0
O964 O 0.89711 0.02628 0.26728 0.0
O965 O 0.8745 1.00832 0.27948 0.0
O966 O 0.87386 0.01461 0.24935 0.0
O967 O 0.89536 0.99647 0.26048 0.0
H968 H 0.90423 0.03481 0.29126 0.0
H969 H 0.89184 0.04706 0.25224 0.0
H970 H 0.90588 0.05845 0.29803 0.0
H971 H 0.89366 0.07049 0.25972 0.0
H972 H 0.8349 0.02246 0.29608 0.0
H973 H 0.88352 0.01973 0.3016 0.0
H974 H 0.84835 0.01115 0.27871 0.0
H975 H 0.86946 0.03074 0.31864 0.0
H976 H 0.86017 0.06364 0.29139 0.0
H977 H 0.84032 0.05403 0.25437 0.0
H978 H 0.93673 0.01112 0.30108 0.0
H979 H 0.90522 0.98927 0.32023 0.0
H980 H 0.86989 0.99452 0.23266 0.0
H981 H 0.87731 0.03647 0.23545 0.0
H982 H 0.87002 0.99625 0.20803 0.0
H983 H 0.8774 0.03745 0.21076 0.0
H984 H 0.92084 0.99986 0.25512 0.0
H985 H 0.89269 0.97576 0.2762 0.0
H986 H 0.93906 0.98592 0.26402 0.0
H987 H 0.9114 0.96224 0.28472 0.0
H988 H 0.92547 0.03941 0.22379 0.0
H989 H 0.91437 1.00068 0.20872 0.0
H990 H 0.8323 0.97602 0.25827 0.0
H991 H 0.86688 0.95214 0.24927 0.0
Li992 Li 0.25707 0.14477 0.52487 0.0
Li993 Li 0.24725 0.12826 0.51051 0.0
Li994 Li 0.27135 0.12834 0.51527 0.0
Li995 Li 0.26166 0.14624 0.50069 0.0
C996 C 0.25277 0.12416 0.54056 0.0
N997 N 0.24531 0.12231 0.56694 0.0
C998 C 0.23991 0.12017 0.54386 0.0
C999 C 0.26186 0.12716 0.55068 0.0
C1000 C 0.23632 0.11929 0.55726 0.0
C1001 C 0.25789 0.12619 0.56396 0.0
C1002 C 0.23445 0.15508 0.51585 0.0
C1003 C 0.22615 0.17637 0.5231 0.0
N1004 N 0.2154 0.17032 0.52855 0.0
C1005 C 0.22333 0.14907 0.52153 0.0
C1006 C 0.23587 0.16884 0.51662 0.0
C1007 C 0.2138 0.15695 0.52789 0.0
C1008 C 0.2634 0.16577 0.54296 0.0
N1009 N 0.25425 0.15616 0.54038 0.0
C1010 C 0.24127 0.16335 0.55911 0.0
C1011 C 0.24332 0.15486 0.54822 0.0
C1012 C 0.25053 0.1734 0.56201 0.0
C1013 C 0.26175 0.17451 0.55376 0.0
H1014 H 0.27195 0.16677 0.53654 0.0
H1015 H 0.23608 0.14726 0.54603 0.0
C1016 C 0.233 0.10402 0.51136 0.0
N1017 N 0.23251 0.11662 0.50671 0.0
C1018 C 0.22251 0.09523 0.50894 0.0
C1019 C 0.21127 0.11243 0.49677 0.0
C1020 C 0.222 0.12089 0.49939 0.0
C1021 C 0.21137 0.0994 0.50164 0.0
H1022 H 0.24156 0.10081 0.51698 0.0
H1023 H 0.22191 0.13091 0.49568 0.0
C1024 C 0.28767 0.14855 0.51671 0.0
N1025 N 0.31507 0.1485 0.51808 0.0
C1026 C 0.29521 0.15065 0.50525 0.0
C1027 C 0.29404 0.14652 0.52888 0.0
C1028 C 0.30906 0.15058 0.50615 0.0
C1029 C 0.30791 0.1465 0.52936 0.0
C1030 C 0.25815 0.11686 0.48945 0.0
C1031 C 0.26167 0.10372 0.4919 0.0
C1032 C 0.24946 0.11976 0.47902 0.0
C1033 C 0.2564 0.09365 0.48385 0.0
C1034 C 0.24439 0.1094 0.4712 0.0
N1035 N 0.24794 0.09667 0.47376 0.0
C1036 C 0.28785 0.10998 0.52891 0.0
C1037 C 0.29594 0.11618 0.50775 0.0
C1038 C 0.29877 0.10166 0.53083 0.0
N1039 N 0.28666 0.1171 0.51755 0.0
C1040 C 0.30706 0.108 0.50927 0.0
C1041 C 0.30859 0.10055 0.52094 0.0
H1042 H 0.28028 0.1107 0.53649 0.0
H1043 H 0.29468 0.12178 0.49871 0.0
C1044 C 0.26424 0.17096 0.48771 0.0
N1045 N 0.2648 0.15762 0.48575 0.0
C1046 C 0.26642 0.17961 0.47714 0.0
C1047 C 0.2701 0.16068 0.46273 0.0
C1048 C 0.26777 0.15238 0.47359 0.0
C1049 C 0.26939 0.17453 0.46438 0.0
H1050 H 0.26214 0.1749 0.49752 0.0
H1051 H 0.26844 0.14176 0.47232 0.0
O1052 O 0.25647 0.12505 0.5275 0.0
O1053 O 0.24396 0.14751 0.5097 0.0
O1054 O 0.27412 0.14824 0.51598 0.0
O1055 O 0.26284 0.1268 0.4975 0.0
H1056 H 0.23271 0.11791 0.53618 0.0
H1057 H 0.27183 0.13035 0.54831 0.0
H1058 H 0.22638 0.11627 0.55996 0.0
H1059 H 0.26479 0.12855 0.57189 0.0
H1060 H 0.22716 0.18702 0.52384 0.0
H1061 H 0.22217 0.13843 0.52129 0.0
H1062 H 0.24445 0.17365 0.51241 0.0
H1063 H 0.20519 0.15242 0.53239 0.0
H1064 H 0.23256 0.16196 0.56524 0.0
H1065 H 0.26907 0.1822 0.55545 0.0
H1066 H 0.22319 0.08523 0.51268 0.0
H1067 H 0.20289 0.11616 0.49119 0.0
H1068 H 0.29043 0.15218 0.49574 0.0
H1069 H 0.28834 0.14489 0.53784 0.0
H1070 H 0.31503 0.15212 0.49735 0.0
H1071 H 0.31298 0.14487 0.5387 0.0
H1072 H 0.2683 0.10132 0.50002 0.0
H1073 H 0.2465 0.12987 0.47712 0.0
H1074 H 0.259 0.08342 0.48565 0.0
H1075 H 0.2376 0.11148 0.46315 0.0
H1076 H 0.29956 0.09624 0.54005 0.0
H1077 H 0.31425 0.10734 0.50128 0.0
H1078 H 0.26563 0.19017 0.47894 0.0
H1079 H 0.2726 0.15626 0.45319 0.0
Li1080 Li 0.39356 0.50855 0.77649 0.0
Li1081 Li 0.37669 0.52346 0.76663 0.0
Li1082 Li 0.37675 0.49858 0.76171 0.0
Li1083 Li 0.39364 0.51339 0.75162 0.0
C1084 C 0.37194 0.50579 0.79213 0.0
N1085 N 0.36849 0.50088 0.81892 0.0
C1086 C 0.36834 0.51607 0.80083 0.0
C1087 C 0.3736 0.49299 0.79702 0.0
C1088 C 0.36669 0.51339 0.81435 0.0
C1089 C 0.37186 0.49071 0.81061 0.0
C1090 C 0.39956 0.53881 0.76818 0.0
C1091 C 0.4014 0.56049 0.75848 0.0
N1092 N 0.40575 0.56542 0.77036 0.0
C1093 C 0.4042 0.54405 0.78025 0.0
C1094 C 0.39827 0.54706 0.75717 0.0
C1095 C 0.40722 0.55754 0.78116 0.0
C1096 C 0.41439 0.49619 0.79096 0.0
N1097 N 0.40476 0.50561 0.79181 0.0
C1098 C 0.41135 0.51091 0.81418 0.0
C1099 C 0.40319 0.513 0.80311 0.0
C1100 C 0.42136 0.5012 0.81363 0.0
C1101 C 0.4228 0.4938 0.80178 0.0
H1102 H 0.41561 0.49055 0.78185 0.0
H1103 H 0.39566 0.52062 0.80351 0.0
C1104 C 0.35442 0.54021 0.76208 0.0
N1105 N 0.36554 0.53878 0.76964 0.0
C1106 C 0.34603 0.55112 0.76397 0.0
C1107 C 0.36053 0.55886 0.78155 0.0
C1108 C 0.36862 0.54779 0.77933 0.0
C1109 C 0.34904 0.56068 0.77381 0.0
H1110 H 0.35203 0.53283 0.75458 0.0
H1111 H 0.37727 0.54629 0.7855 0.0
C1112 C 0.39869 0.48321 0.75813 0.0
N1113 N 0.40283 0.45676 0.75212 0.0
C1114 C 0.403 0.47941 0.74543 0.0
C1115 C 0.39666 0.47358 0.76782 0.0
C1116 C 0.405 0.46598 0.74258 0.0
C1117 C 0.39875 0.46026 0.76457 0.0
C1118 C 0.37061 0.51709 0.73667 0.0
C1119 C 0.36633 0.50736 0.72765 0.0
C1120 C 0.37134 0.53029 0.73264 0.0
C1121 C 0.36312 0.51095 0.71464 0.0
C1122 C 0.36804 0.53349 0.71955 0.0
N1123 N 0.36406 0.52383 0.71089 0.0
C1124 C 0.35534 0.48107 0.76727 0.0
C1125 C 0.36769 0.47508 0.7481 0.0
C1126 C 0.34691 0.47017 0.76542 0.0
N1127 N 0.36554 0.48329 0.7587 0.0
C1128 C 0.35956 0.46402 0.74591 0.0
C1129 C 0.34897 0.46143 0.75463 0.0
H1130 H 0.3537 0.4878 0.77554 0.0
H1131 H 0.37564 0.47716 0.74122 0.0
C1132 C 0.41605 0.52385 0.73815 0.0
N1133 N 0.40489 0.51644 0.73636 0.0
C1134 C 0.42457 0.52637 0.72747 0.0
C1135 C 0.41017 0.51334 0.71327 0.0
C1136 C 0.40192 0.5111 0.72423 0.0
C1137 C 0.42169 0.52111 0.71477 0.0
H1138 H 0.4184 0.52777 0.74793 0.0
H1139 H 0.39322 0.50495 0.72305 0.0
O1140 O 0.37376 0.50826 0.77889 0.0
O1141 O 0.39645 0.52564 0.76714 0.0
O1142 O 0.39657 0.49631 0.76106 0.0
O1143 O 0.37386 0.51373 0.74943 0.0
H1144 H 0.36692 0.52601 0.79721 0.0
H1145 H 0.37616 0.48489 0.7904 0.0
H1146 H 0.36399 0.52127 0.82121 0.0
H1147 H 0.37318 0.48085 0.81453 0.0
H1148 H 0.4004 0.567 0.75004 0.0
H1149 H 0.40539 0.53779 0.78884 0.0
H1150 H 0.39501 0.54312 0.74768 0.0
H1151 H 0.41074 0.56174 0.79047 0.0
H1152 H 0.40999 0.51703 0.82299 0.0
H1153 H 0.43027 0.48613 0.80089 0.0
H1154 H 0.33735 0.55212 0.75769 0.0
H1155 H 0.36313 0.56578 0.78944 0.0
H1156 H 0.40473 0.48672 0.73785 0.0
H1157 H 0.39352 0.47637 0.77774 0.0
H1158 H 0.40826 0.46288 0.73277 0.0
H1159 H 0.39715 0.4527 0.77196 0.0
H1160 H 0.36557 0.49713 0.73062 0.0
H1161 H 0.37429 0.53799 0.73956 0.0
H1162 H 0.35989 0.5035 0.70753 0.0
H1163 H 0.3686 0.54365 0.71629 0.0
H1164 H 0.33895 0.46854 0.77246 0.0
H1165 H 0.3614 0.45771 0.73733 0.0
H1166 H 0.43344 0.53219 0.7292 0.0
H1167 H 0.40747 0.50911 0.70369 0.0
Li1168 Li 0.77201 0.39433 0.51285 0.0
Li1169 Li 0.76071 0.377 0.52721 0.0
Li1170 Li 0.75689 0.37758 0.50329 0.0
Li1171 Li 0.74707 0.39412 0.51749 0.0
C1172 C 0.77919 0.36412 0.5064 0.0
N1173 N 0.78842 0.3422 0.49258 0.0
C1174 C 0.77489 0.35144 0.50985 0.0
C1175 C 0.78822 0.36566 0.49597 0.0
C1176 C 0.77967 0.34048 0.50273 0.0
C1177 C 0.79276 0.35445 0.4891 0.0
C1178 C 0.76673 0.39713 0.54301 0.0
C1179 C 0.76319 0.39448 0.56659 0.0
N1180 N 0.77622 0.39725 0.56884 0.0
C1181 C 0.78008 0.40001 0.54557 0.0
C1182 C 0.75819 0.3944 0.55361 0.0
C1183 C 0.78468 0.40001 0.55869 0.0
C1184 C 0.78543 0.41858 0.50885 0.0
N1185 N 0.78734 0.40535 0.51042 0.0
C1186 C 0.81087 0.40814 0.50844 0.0
C1187 C 0.79975 0.40004 0.51033 0.0
C1188 C 0.80923 0.42186 0.50666 0.0
C1189 C 0.79626 0.42704 0.50692 0.0
H1190 H 0.77545 0.42254 0.50897 0.0
H1191 H 0.80102 0.38952 0.5118 0.0
C1192 C 0.75347 0.35771 0.54648 0.0
N1193 N 0.7636 0.36548 0.54218 0.0
C1194 C 0.75531 0.34916 0.55721 0.0
C1195 C 0.77806 0.35656 0.55881 0.0
C1196 C 0.77578 0.36495 0.54802 0.0
C1197 C 0.76774 0.34848 0.56356 0.0
H1198 H 0.74396 0.35805 0.54152 0.0
H1199 H 0.78377 0.371 0.54424 0.0
C1200 C 0.75589 0.39852 0.48698 0.0
N1201 N 0.7541 0.40124 0.45968 0.0
C1202 C 0.74418 0.39508 0.48031 0.0
C1203 C 0.76669 0.40338 0.47976 0.0
C1204 C 0.74348 0.3965 0.46651 0.0
C1205 C 0.76558 0.40469 0.46597 0.0
C1206 C 0.73029 0.37527 0.51936 0.0
C1207 C 0.72172 0.37417 0.50844 0.0
C1208 C 0.72503 0.37752 0.53206 0.0
C1209 C 0.70804 0.37534 0.51042 0.0
C1210 C 0.71129 0.37866 0.53363 0.0
N1211 N 0.70315 0.37755 0.52286 0.0
C1212 C 0.74626 0.35541 0.48916 0.0
C1213 C 0.76164 0.36769 0.47645 0.0
C1214 C 0.74424 0.34658 0.47853 0.0
N1215 N 0.75465 0.36589 0.4879 0.0
C1216 C 0.7599 0.35912 0.46556 0.0
C1217 C 0.75101 0.34841 0.46644 0.0
H1218 H 0.7412 0.35383 0.49849 0.0
H1219 H 0.76865 0.37576 0.47576 0.0
C1220 C 0.73117 0.41246 0.53239 0.0
N1221 N 0.73214 0.40592 0.52053 0.0
C1222 C 0.72046 0.42096 0.53496 0.0
C1223 C 0.71195 0.41599 0.51301 0.0
C1224 C 0.72283 0.40761 0.51087 0.0
C1225 C 0.71062 0.42283 0.5252 0.0
H1226 H 0.73874 0.41114 0.53988 0.0
H1227 H 0.72375 0.40237 0.50151 0.0
O1228 O 0.77432 0.37497 0.51299 0.0
O1229 O 0.7621 0.39683 0.5302 0.0
O1230 O 0.75679 0.39724 0.5005 0.0
O1231 O 0.74375 0.37447 0.51759 0.0
H1232 H 0.76783 0.35011 0.51785 0.0
H1233 H 0.79151 0.37543 0.49308 0.0
H1234 H 0.77637 0.33061 0.50524 0.0
H1235 H 0.79969 0.35549 0.48094 0.0
H1236 H 0.75671 0.39229 0.57487 0.0
H1237 H 0.78684 0.40213 0.53751 0.0
H1238 H 0.74786 0.39208 0.55182 0.0
H1239 H 0.795 0.40217 0.56081 0.0
H1240 H 0.82067 0.40371 0.50853 0.0
H1241 H 0.79444 0.43749 0.50544 0.0
H1242 H 0.74702 0.34322 0.56054 0.0
H1243 H 0.78787 0.35623 0.56322 0.0
H1244 H 0.73583 0.39107 0.48567 0.0
H1245 H 0.77585 0.40604 0.48472 0.0
H1246 H 0.73451 0.39378 0.46121 0.0
H1247 H 0.77386 0.40841 0.46026 0.0
H1248 H 0.72558 0.37263 0.49851 0.0
H1249 H 0.73149 0.37856 0.54061 0.0
H1250 H 0.70131 0.37457 0.50205 0.0
H1251 H 0.70711 0.38048 0.54339 0.0
H1252 H 0.73756 0.33829 0.47985 0.0
H1253 H 0.76535 0.36099 0.45648 0.0
H1254 H 0.72002 0.42616 0.54443 0.0
H1255 H 0.70457 0.41693 0.50524 0.0
Li1256 Li 0.64405 0.99915 0.76653 0.0
Li1257 Li 0.62714 0.01418 0.77636 0.0
Li1258 Li 0.62711 1.00919 0.75148 0.0
Li1259 Li 0.64396 0.02392 0.76193 0.0
C1260 C 0.62038 0.98403 0.7668 0.0
N1261 N 0.61235 0.95784 0.76676 0.0
C1262 C 0.6152 0.97842 0.77836 0.0
C1263 C 0.62126 0.97637 0.75516 0.0
C1264 C 0.61126 0.96514 0.77815 0.0
C1265 C 0.6172 0.96314 0.75535 0.0
C1266 C 0.64816 0.01616 0.79246 0.0
C1267 C 0.64702 0.03011 0.81207 0.0
N1268 N 0.65032 0.01955 0.81971 0.0
C1269 C 0.65164 1.00548 0.80049 0.0
C1270 C 0.64593 0.02861 0.79827 0.0
C1271 C 0.65266 1.00739 0.81425 0.0
C1272 C 0.66741 0.98377 0.76333 0.0
N1273 N 0.65535 0.98397 0.76942 0.0
C1274 C 0.65994 0.9631 0.77965 0.0
C1275 C 0.65156 0.97395 0.77756 0.0
C1276 C 0.67244 0.96257 0.77341 0.0
C1277 C 0.67611 0.97313 0.76515 0.0
H1278 H 0.67029 0.99191 0.75704 0.0
H1279 H 0.64213 0.97446 0.78264 0.0
C1280 C 0.607 0.02729 0.79143 0.0
N1281 N 0.6159 0.01715 0.79167 0.0
C1282 C 0.59867 0.02973 0.80232 0.0
C1283 C 0.6087 0.01121 0.81355 0.0
C1284 C 0.61682 1.00911 0.80243 0.0
C1285 C 0.59944 0.02165 0.81363 0.0
H1286 H 0.60629 0.03344 0.78271 0.0
H1287 H 0.62387 1.00105 0.80239 0.0
C1288 C 0.6509 1.00411 0.73725 0.0
N1289 N 0.65918 0.99478 0.71266 0.0
C1290 C 0.65579 0.01289 0.72776 0.0
C1291 C 0.65044 0.99056 0.73431 0.0
C1292 C 0.65986 1.00799 0.71536 0.0
C1293 C 0.65461 0.98604 0.72181 0.0
C1294 C 0.62284 0.0394 0.75781 0.0
C1295 C 0.61908 0.04285 0.7449 0.0
C1296 C 0.62525 0.04934 0.76729 0.0
C1297 C 0.61797 0.05623 0.74165 0.0
C1298 C 0.62405 0.0626 0.76364 0.0
N1299 N 0.62047 0.06575 0.751 0.0
C1300 C 0.60399 1.00008 0.73802 0.0
C1301 C 0.61965 1.01021 0.72382 0.0
C1302 C 0.59545 0.99766 0.72727 0.0
N1303 N 0.6159 1.00614 0.73613 0.0
C1304 C 0.61142 1.00801 0.71278 0.0
C1305 C 0.59911 1.00161 0.71439 0.0
H1306 H 0.60108 0.99716 0.74793 0.0
H1307 H 0.62897 0.01533 0.72255 0.0
C1308 C 0.66431 0.04245 0.76853 0.0
N1309 N 0.6552 0.03915 0.75906 0.0
C1310 C 0.67269 0.05337 0.76681 0.0
C1311 C 0.66224 0.05732 0.74558 0.0
C1312 C 0.65409 0.04629 0.7477 0.0
C1313 C 0.67174 0.06102 0.75521 0.0
H1314 H 0.66517 0.03653 0.77739 0.0
H1315 H 0.64687 0.04345 0.74024 0.0
O1316 O 0.62432 0.99701 0.76684 0.0
O1317 O 0.64695 0.01444 0.77899 0.0
O1318 O 0.64685 1.00876 0.74944 0.0
O1319 O 0.62414 0.02635 0.76113 0.0
H1320 H 0.61431 0.98422 0.78741 0.0
H1321 H 0.62488 0.98063 0.74603 0.0
H1322 H 0.60733 0.96065 0.78706 0.0
H1323 H 0.61786 0.9571 0.74642 0.0
H1324 H 0.64524 0.03966 0.8167 0.0
H1325 H 0.65346 0.9958 0.79616 0.0
H1326 H 0.64332 0.03699 0.79219 0.0
H1327 H 0.65528 0.99919 0.82059 0.0
H1328 H 0.65677 0.95535 0.78631 0.0
H1329 H 0.68557 0.97313 0.76003 0.0
H1330 H 0.59156 0.03775 0.80179 0.0
H1331 H 0.60978 1.00479 0.82206 0.0
H1332 H 0.65637 0.02339 0.7299 0.0
H1333 H 0.64705 0.98357 0.74164 0.0
H1334 H 0.66358 0.01469 0.7079 0.0
H1335 H 0.65427 0.97557 0.7194 0.0
H1336 H 0.61712 0.03529 0.73746 0.0
H1337 H 0.62807 0.04683 0.77734 0.0
H1338 H 0.61513 0.05905 0.73168 0.0
H1339 H 0.62596 0.0704 0.77086 0.0
H1340 H 0.58598 0.99293 0.72908 0.0
H1341 H 0.61473 0.01119 0.70307 0.0
H1342 H 0.67999 0.05564 0.77441 0.0
H1343 H 0.661 0.06295 0.73655 0.0
Li1344 Li 0.02286 0.26225 0.88071 0.0
Li1345 Li 1.0076 0.27195 0.89759 0.0
Li1346 Li 0.0124 0.24718 0.89733 0.0
Li1347 Li 0.99808 0.25769 0.88038 0.0
C1348 C 0.03744 0.26249 0.90522 0.0
N1349 N 0.06315 0.26256 0.91491 0.0
C1350 C 0.04292 0.2741 0.91056 0.0
C1351 C 0.04497 0.25085 0.90503 0.0
C1352 C 0.05596 0.27396 0.91534 0.0
C1353 C 0.05796 0.2511 0.90991 0.0
C1354 C 1.00642 0.28814 0.87682 0.0
C1355 C 0.99315 0.30797 0.87866 0.0
N1356 N 1.00389 0.31534 0.87518 0.0
C1357 C 0.0173 0.29589 0.87318 0.0
C1358 C 0.99421 0.2942 0.87949 0.0
C1359 C 0.01583 0.30963 0.87243 0.0
C1360 C 0.03831 0.25978 0.85721 0.0
N1361 N 0.03825 0.26523 0.86966 0.0
C1362 C 0.0596 0.27497 0.86583 0.0
C1363 C 0.04858 0.27282 0.87401 0.0
C1364 C 0.06001 0.26937 0.85296 0.0
C1365 C 0.04912 0.26169 0.84869 0.0
H1366 H 0.02992 0.25391 0.8539 0.0
H1367 H 0.0482 0.2774 0.88375 0.0
C1368 C 0.99429 0.28676 0.91782 0.0
N1369 N 1.00457 0.28712 0.90906 0.0
C1370 C 0.99167 0.29761 0.92621 0.0
C1371 C 0.01033 0.30901 0.91651 0.0
C1372 C 0.0126 0.29793 0.90834 0.0
C1373 C 0.99972 0.30899 0.92561 0.0
H1374 H 0.98813 0.27801 0.91836 0.0
H1375 H 0.02076 0.298 0.90136 0.0
C1376 C 0.01869 0.23352 0.87325 0.0
N1377 N 0.02987 0.20999 0.8645 0.0
C1378 C 0.01075 0.22374 0.86734 0.0
C1379 C 0.03235 0.23141 0.8745 0.0
C1380 C 0.01657 0.21188 0.86304 0.0
C1381 C 0.0378 0.21944 0.87007 0.0
C1382 C 0.98215 0.25317 0.90072 0.0
C1383 C 0.97866 0.24007 0.90344 0.0
C1384 C 0.97221 0.26256 0.89847 0.0
C1385 C 0.96524 0.23654 0.9037 0.0
C1386 C 0.95892 0.25863 0.8988 0.0
N1387 N 0.95574 0.24581 0.90138 0.0
C1388 C 0.02007 0.23398 0.92091 0.0
C1389 C 0.01195 0.21949 0.90411 0.0
C1390 C 0.02222 0.22331 0.92945 0.0
N1391 N 0.01513 0.23191 0.90845 0.0
C1392 C 0.01396 0.20854 0.91231 0.0
C1393 C 0.01918 0.21034 0.9252 0.0
H1394 H 0.02238 0.24394 0.92422 0.0
H1395 H 1.00768 0.21808 0.89434 0.0
C1396 C 0.97881 0.26485 0.86092 0.0
N1397 N 0.98293 0.25484 0.86889 0.0
C1398 C 0.96785 0.26314 0.8525 0.0
C1399 C 0.96556 0.24079 0.86054 0.0
C1400 C 0.97657 0.24294 0.86881 0.0
C1401 C 0.96103 0.25097 0.85221 0.0
H1402 H 0.9841 0.27416 0.861 0.0
H1403 H 0.98001 0.23511 0.87521 0.0
O1404 O 0.02467 0.26247 0.90053 0.0
O1405 O 1.00771 0.27469 0.87777 0.0
O1406 O 0.01312 0.24518 0.87752 0.0
O1407 O 0.99523 0.25677 0.90019 0.0
H1408 H 0.03721 0.28316 0.91094 0.0
H1409 H 0.04079 0.24168 0.90131 0.0
H1410 H 0.06035 0.2829 0.91941 0.0
H1411 H 0.06389 0.24216 0.90979 0.0
H1412 H 0.98379 0.3128 0.88079 0.0
H1413 H 0.0268 0.29137 0.87103 0.0
H1414 H 0.98569 0.28835 0.8823 0.0
H1415 H 0.02419 0.31576 0.86968 0.0
H1416 H 0.06761 0.28119 0.86947 0.0
H1417 H 0.04899 0.25708 0.83891 0.0
H1418 H 0.98352 0.297 0.9332 0.0
H1419 H 0.01672 0.31758 0.91554 0.0
H1420 H 1.00019 0.22524 0.86614 0.0
H1421 H 0.0387 0.239 0.87869 0.0
H1422 H 0.01053 0.20419 0.85854 0.0
H1423 H 0.04836 0.21768 0.87101 0.0
H1424 H 0.98622 0.2327 0.90522 0.0
H1425 H 0.97475 0.27274 0.8964 0.0
H1426 H 0.9624 0.22642 0.90572 0.0
H1427 H 0.95112 0.26577 0.89699 0.0
H1428 H 0.02637 0.22522 0.93923 0.0
H1429 H 0.01121 0.19878 0.90867 0.0
H1430 H 0.96489 0.27121 0.84613 0.0
H1431 H 0.96057 0.23129 0.86079 0.0
Li1432 Li 0.52251 0.76135 0.38021 0.0
Li1433 Li 0.50799 0.77191 0.39718 0.0
Li1434 Li 0.51284 0.74718 0.39711 0.0
Li1435 Li 0.49774 0.75672 0.38021 0.0
C1436 C 0.5382 0.7661 0.40083 0.0
N1437 N 0.56454 0.77369 0.40196 0.0
C1438 C 0.54155 0.77918 0.40404 0.0
C1439 C 0.54824 0.75684 0.39832 0.0
C1440 C 0.55493 0.78283 0.40454 0.0
C1441 C 0.5615 0.76088 0.3989 0.0
C1442 C 0.50196 0.78537 0.37304 0.0
C1443 C 0.48289 0.79937 0.36948 0.0
N1444 N 0.49091 0.8087 0.36404 0.0
C1445 C 0.50999 0.79503 0.36725 0.0
C1446 C 0.48828 0.78749 0.37404 0.0
C1447 C 0.50423 0.80679 0.36283 0.0
C1448 C 0.54189 0.7545 0.36055 0.0
N1449 N 0.53769 0.76433 0.36889 0.0
C1450 C 0.55484 0.77872 0.36101 0.0
C1451 C 0.54393 0.77629 0.36924 0.0
C1452 C 0.55941 0.76876 0.35224 0.0
C1453 C 0.55278 0.75649 0.35214 0.0
H1454 H 0.5367 0.74512 0.36032 0.0
H1455 H 0.54043 0.78397 0.37593 0.0
C1456 C 0.50032 0.78522 0.42091 0.0
N1457 N 0.50515 0.78725 0.40846 0.0
C1458 C 0.49804 0.79592 0.42957 0.0
C1459 C 0.50599 0.81067 0.41255 0.0
C1460 C 0.50811 0.79967 0.40423 0.0
C1461 C 0.50084 0.80891 0.42544 0.0
H1462 H 0.49824 0.77524 0.42414 0.0
H1463 H 0.51223 0.80107 0.39443 0.0
C1464 C 0.51422 0.73084 0.37629 0.0
N1465 N 0.51668 0.70361 0.37472 0.0
C1466 C 0.50326 0.72302 0.37284 0.0
C1467 C 0.52645 0.72483 0.37881 0.0
C1468 C 0.5047 0.70926 0.37212 0.0
C1469 C 0.52748 0.71104 0.37801 0.0
C1470 C 0.48285 0.7569 0.40447 0.0
C1471 C 0.47705 0.74545 0.4096 0.0
C1472 C 0.47556 0.76868 0.40427 0.0
C1473 C 0.46395 0.7459 0.41416 0.0
C1474 C 0.46249 0.76874 0.40893 0.0
N1475 N 0.457 0.75744 0.41372 0.0
C1476 C 0.52617 0.73235 0.41709 0.0
C1477 C 0.50747 0.72147 0.40778 0.0
C1478 C 0.52857 0.72162 0.42549 0.0
N1479 N 0.51578 0.73209 0.40843 0.0
C1480 C 0.50952 0.71051 0.41597 0.0
C1481 C 0.52018 0.71047 0.42502 0.0
H1482 H 0.5326 0.74091 0.41752 0.0
H1483 H 0.4992 0.72149 0.40092 0.0
C1484 C 0.48294 0.75902 0.35644 0.0
N1485 N 0.48251 0.75377 0.36885 0.0
C1486 C 0.4723 0.75729 0.34762 0.0
C1487 C 0.46099 0.74457 0.36438 0.0
C1488 C 0.47186 0.74655 0.37289 0.0
C1489 C 0.46109 0.74999 0.35153 0.0
H1490 H 0.49156 0.76461 0.35339 0.0
H1491 H 0.47183 0.74214 0.38263 0.0
O1492 O 0.52515 0.76239 0.40007 0.0
O1493 O 0.50745 0.77379 0.37742 0.0
O1494 O 0.51295 0.74431 0.37723 0.0
O1495 O 0.49569 0.75661 0.40001 0.0
H1496 H 0.53391 0.78646 0.40603 0.0
H1497 H 0.54581 0.74667 0.39586 0.0
H1498 H 0.55768 0.79294 0.40694 0.0
H1499 H 0.56936 0.75385 0.39689 0.0
H1500 H 0.47232 0.80114 0.37022 0.0
H1501 H 0.52056 0.79351 0.36624 0.0
H1502 H 0.48185 0.78 0.37811 0.0
H1503 H 0.51034 0.81438 0.35841 0.0
H1504 H 0.55972 0.78827 0.36159 0.0
H1505 H 0.55579 0.74858 0.34544 0.0
H1506 H 0.49429 0.79401 0.43947 0.0
H1507 H 0.50822 0.82046 0.40886 0.0
H1508 H 0.49373 0.72751 0.37082 0.0
H1509 H 0.53503 0.73074 0.38146 0.0
H1510 H 0.4963 0.70308 0.36952 0.0
H1511 H 0.53687 0.70625 0.38003 0.0
H1512 H 0.48257 0.73628 0.41 0.0
H1513 H 0.47997 0.77773 0.40072 0.0
H1514 H 0.45932 0.73709 0.41807 0.0
H1515 H 0.45674 0.77779 0.40879 0.0
H1516 H 0.537 0.72201 0.43218 0.0
H1517 H 0.50267 0.70225 0.41535 0.0
H1518 H 0.47282 0.76177 0.33788 0.0
H1519 H 0.4527 0.73866 0.36777 0.0
Li1520 Li 0.01355 0.7738 0.63084 0.0
Li1521 Li 0.99847 0.76425 0.64773 0.0
Li1522 Li 0.02328 0.75964 0.64773 0.0
Li1523 Li 1.00871 0.74908 0.63076 0.0
C1524 C 0.015 0.79013 0.65161 0.0
N1525 N 0.01755 0.81736 0.65305 0.0
C1526 C 1.00403 0.79801 0.65483 0.0
C1527 C 0.0273 0.79609 0.64926 0.0
C1528 C 1.00552 0.81177 0.65548 0.0
C1529 C 0.02838 0.80987 0.64999 0.0
C1530 C 0.98353 0.76387 0.62356 0.0
C1531 C 0.96319 0.75179 0.6197 0.0
N1532 N 0.95759 0.76289 0.61457 0.0
C1533 C 0.97762 0.77511 0.6181 0.0
C1534 C 0.9763 0.75207 0.62424 0.0
C1535 C 0.96448 0.77444 0.61367 0.0
C1536 C 0.02695 0.78882 0.61104 0.0
N1537 N 0.01644 0.78891 0.61954 0.0
C1538 C 0.0099 0.81035 0.61182 0.0
C1539 C 1.00794 0.79938 0.62002 0.0
C1540 C 0.02068 0.81055 0.60293 0.0
C1541 C 0.02928 0.79956 0.60264 0.0
H1542 H 0.03354 0.78037 0.61074 0.0
H1543 H 0.99957 0.79922 0.62676 0.0
C1544 C 0.98349 0.76184 0.67141 0.0
N1545 N 0.9832 0.76716 0.65902 0.0
C1546 C 0.97272 0.76345 0.68007 0.0
C1547 C 0.9616 0.77625 0.66324 0.0
C1548 C 0.97259 0.77439 0.65489 0.0
C1549 C 0.96151 0.7707 0.67603 0.0
H1550 H 0.99212 0.75631 0.67457 0.0
H1551 H 0.97265 0.77881 0.64516 0.0
C1552 C 0.03892 0.75495 0.62695 0.0
N1553 N 0.06526 0.74745 0.62542 0.0
C1554 C 0.04227 0.74195 0.62341 0.0
C1555 C 0.04896 0.76417 0.62959 0.0
C1556 C 0.05565 0.73834 0.62271 0.0
C1557 C 0.06222 0.76017 0.62881 0.0
C1558 C 1.00311 0.73546 0.65492 0.0
C1559 C 0.01154 0.72591 0.66032 0.0
C1560 C 0.98945 0.73305 0.65435 0.0
C1561 C 1.00619 0.71397 0.66478 0.0
C1562 C 0.98448 0.72101 0.65892 0.0
N1563 N 0.99288 0.71178 0.66398 0.0
C1564 C 0.0423 0.76639 0.66779 0.0
C1565 C 0.04511 0.74498 0.6584 0.0
C1566 C 0.05318 0.76447 0.67625 0.0
N1567 N 0.03849 0.75671 0.65908 0.0
C1568 C 0.05604 0.74264 0.66666 0.0
C1569 C 0.06022 0.75243 0.6758 0.0
H1570 H 0.03681 0.77559 0.66828 0.0
H1571 H 0.04191 0.7374 0.65144 0.0
C1572 C 1.00062 0.73576 0.60715 0.0
N1573 N 1.0058 0.73375 0.61948 0.0
C1574 C 0.99821 0.72506 0.59852 0.0
C1575 C 1.0068 0.71035 0.61526 0.0
C1576 C 0.00903 0.72135 0.62357 0.0
C1577 C 1.00126 0.7121 0.60253 0.0
H1578 H 0.99835 0.74573 0.60401 0.0
H1579 H 0.01343 0.71996 0.63326 0.0
O1580 O 0.01369 0.77667 0.65072 0.0
O1581 O 0.9964 0.76438 0.62794 0.0
O1582 O 0.02587 0.75861 0.62787 0.0
O1583 O 1.00821 0.74722 0.65053 0.0
H1584 H 0.99445 0.79357 0.6567 0.0
H1585 H 0.0359 0.79013 0.64681 0.0
H1586 H 0.9971 0.818 0.65789 0.0
H1587 H 0.03782 0.81462 0.64811 0.0
H1588 H 0.95748 0.74272 0.62019 0.0
H1589 H 0.98309 0.78428 0.61734 0.0
H1590 H 0.9808 0.74318 0.62806 0.0
H1591 H 0.95976 0.78309 0.60951 0.0
H1592 H 1.00289 0.81848 0.6123 0.0
H1593 H 0.0378 0.7993 0.59608 0.0
H1594 H 0.97327 0.75919 0.68991 0.0
H1595 H 0.95319 0.78185 0.65961 0.0
H1596 H 0.03462 0.7347 0.62129 0.0
H1597 H 0.04654 0.77428 0.6323 0.0
H1598 H 0.05839 0.7283 0.62005 0.0
H1599 H 0.0701 0.76718 0.63091 0.0
H1600 H 0.02211 0.72764 0.661 0.0
H1601 H 0.98272 0.74046 0.65059 0.0
H1602 H 0.01262 0.70646 0.66889 0.0
H1603 H 0.97393 0.71902 0.65851 0.0
H1604 H 0.05587 0.77225 0.68325 0.0
H1605 H 0.06123 0.73327 0.66579 0.0
H1606 H 0.99416 0.72696 0.58874 0.0
H1607 H 0.00925 0.70057 0.61885 0.0
Li1608 Li 0.51334 0.27491 0.13098 0.0
Li1609 Li 0.4983 0.26515 0.14783 0.0
Li1610 Li 0.52312 0.2604 0.14774 0.0
Li1611 Li 0.50839 0.25011 0.13075 0.0
C1612 C 0.51563 0.29077 0.15262 0.0
N1613 N 0.5197 0.31767 0.15596 0.0
C1614 C 0.50525 0.29893 0.15694 0.0
C1615 C 0.52812 0.29627 0.15015 0.0
C1616 C 0.5075 0.31251 0.15854 0.0
C1617 C 0.52996 0.3099 0.15184 0.0
C1618 C 0.48318 0.26662 0.12428 0.0
C1619 C 0.46161 0.25695 0.12032 0.0
N1620 N 0.45693 0.269 0.11657 0.0
C1621 C 0.47821 0.27887 0.12021 0.0
C1622 C 0.47485 0.25554 0.12419 0.0
C1623 C 0.4649 0.27988 0.11642 0.0
C1624 C 0.52556 0.28887 0.10982 0.0
N1625 N 0.51639 0.29003 0.11971 0.0
C1626 C 0.51164 0.31232 0.11322 0.0
C1627 C 0.5094 0.30145 0.12146 0.0
C1628 C 0.52109 0.31146 0.10294 0.0
C1629 C 0.52807 0.29948 0.10131 0.0
H1630 H 0.53086 0.27964 0.10846 0.0
H1631 H 0.50204 0.30213 0.12926 0.0
C1632 C 0.48195 0.26089 0.17044 0.0
N1633 N 0.48297 0.26805 0.15908 0.0
C1634 C 0.47103 0.26253 0.17891 0.0
C1635 C 0.46252 0.2792 0.1641 0.0
C1636 C 0.47358 0.27719 0.15588 0.0
C1637 C 0.46108 0.27177 0.17578 0.0
H1638 H 0.48967 0.25392 0.17299 0.0
H1639 H 0.47473 0.28305 0.14704 0.0
C1640 C 0.53867 0.25638 0.12649 0.0
N1641 N 0.56518 0.24977 0.12396 0.0
C1642 C 0.54234 0.2434 0.12322 0.0
C1643 C 0.54847 0.26604 0.12831 0.0
C1644 C 0.5558 0.24024 0.12202 0.0
C1645 C 0.56182 0.26249 0.12704 0.0
C1646 C 0.50311 0.23588 0.154 0.0
C1647 C 0.51159 0.22636 0.15937 0.0
C1648 C 0.48964 0.23297 0.15237 0.0
C1649 C 0.50648 0.21398 0.16279 0.0
C1650 C 0.4849 0.22049 0.15592 0.0
N1651 N 0.49336 0.21132 0.16099 0.0
C1652 C 0.54215 0.26679 0.16791 0.0
C1653 C 0.54516 0.24568 0.15789 0.0
C1654 C 0.55309 0.26476 0.17624 0.0
N1655 N 0.53842 0.25732 0.15892 0.0
C1656 C 0.55617 0.24323 0.16602 0.0
C1657 C 0.56029 0.25283 0.1754 0.0
H1658 H 0.53653 0.27588 0.16872 0.0
H1659 H 0.54197 0.23823 0.15078 0.0
C1660 C 0.49898 0.2367 0.10763 0.0
N1661 N 0.50534 0.23484 0.11942 0.0
C1662 C 0.49648 0.22598 0.09905 0.0
C1663 C 0.50738 0.21161 0.11471 0.0
C1664 C 0.50966 0.22261 0.12299 0.0
C1665 C 0.50066 0.21317 0.10254 0.0
H1666 H 0.49587 0.24655 0.10486 0.0
H1667 H 0.51499 0.22137 0.13222 0.0
O1668 O 0.51359 0.27746 0.15088 0.0
O1669 O 0.4962 0.26546 0.12803 0.0
O1670 O 0.52555 0.25961 0.12789 0.0
O1671 O 0.50797 0.24803 0.15051 0.0
H1672 H 0.49556 0.29483 0.159 0.0
H1673 H 0.53629 0.29008 0.14692 0.0
H1674 H 0.49954 0.31895 0.16182 0.0
H1675 H 0.53956 0.31429 0.14989 0.0
H1676 H 0.45505 0.24846 0.12024 0.0
H1677 H 0.48453 0.28752 0.12008 0.0
H1678 H 0.4786 0.24592 0.12692 0.0
H1679 H 0.4609 0.28932 0.11336 0.0
H1680 H 0.50609 0.32136 0.115 0.0
H1681 H 0.53527 0.2982 0.09341 0.0
H1682 H 0.47051 0.25677 0.18793 0.0
H1683 H 0.45511 0.28641 0.16124 0.0
H1684 H 0.53489 0.23582 0.12171 0.0
H1685 H 0.5458 0.27615 0.13069 0.0
H1686 H 0.55879 0.23022 0.11957 0.0
H1687 H 0.56951 0.26985 0.12849 0.0
H1688 H 0.52202 0.22848 0.16084 0.0
H1689 H 0.48287 0.24032 0.14857 0.0
H1690 H 0.51295 0.2065 0.16688 0.0
H1691 H 0.4745 0.2181 0.15468 0.0
H1692 H 0.55572 0.27236 0.18345 0.0
H1693 H 0.56145 0.23395 0.16488 0.0
H1694 H 0.4915 0.22776 0.08968 0.0
H1695 H 0.51073 0.20195 0.11789 0.0
H1696 H 0.24594 0.7762 0.85959 0.0
H1697 H 0.25138 0.78993 0.87911 0.0
H1698 H 0.21214 0.78334 0.89486 0.0
H1699 H 0.20675 0.76934 0.87561 0.0
H1700 H 0.23874 0.8132 0.88769 0.0
H1701 H 0.23594 0.77468 0.92657 0.0
H1702 H 0.23699 0.77067 0.90905 0.0
H1703 H 0.2214 0.7756 0.91627 0.0
C1704 C 0.23854 0.77749 0.86731 0.0
C1705 C 0.22591 0.77162 0.86601 0.0
C1706 C 0.24164 0.78542 0.87842 0.0
C1707 C 0.23223 0.78755 0.88855 0.0
C1708 C 0.21965 0.78167 0.88731 0.0
H1709 H 0.22783 0.83406 0.96159 0.0
H1710 H 0.22376 0.81965 0.94229 0.0
C1711 C 0.21653 0.77378 0.8762 0.0
C1712 C 0.23538 0.79631 0.90015 0.0
H1713 H 0.23714 0.79705 0.93414 0.0
C1714 C 0.2385 0.80965 0.89784 0.0
C1715 C 0.23501 0.79169 0.91341 0.0
C1716 C 0.23227 0.77735 0.91651 0.0
C1717 C 0.24092 0.81857 0.90842 0.0
C1718 C 0.24048 0.81397 0.92169 0.0
C1719 C 0.23745 0.8006 0.92399 0.0
C1720 C 0.24301 0.82289 0.93334 0.0
C1721 C 0.24355 0.83293 0.9053 0.0
C1722 C 0.25524 0.82943 0.93484 0.0
C1723 C 0.25757 0.83778 0.94582 0.0
C1724 C 0.24774 0.83972 0.95562 0.0
C1725 C 0.23555 0.83301 0.95415 0.0
C1726 C 0.23323 0.82467 0.94316 0.0
H1727 H 0.24007 0.83552 0.89515 0.0
H1728 H 0.2386 0.83959 0.91263 0.0
H1729 H 0.2544 0.83482 0.90577 0.0
H1730 H 0.26304 0.82802 0.92754 0.0
H1731 H 0.26703 0.84283 0.94653 0.0
H1732 H 0.01201 0.55903 0.40042 0.0
H1733 H 0.02636 0.55371 0.38147 0.0
H1734 H 0.04476 0.52252 0.40398 0.0
H1735 H 0.03042 0.52776 0.42297 0.0
H1736 H 0.05346 0.55463 0.38011 0.0
H1737 H 0.03611 0.50347 0.36931 0.0
H1738 H 0.02708 0.5147 0.38007 0.0
H1739 H 0.04142 0.50605 0.3862 0.0
C1740 C 0.0191 0.55102 0.40135 0.0
C1741 C 0.02003 0.54381 0.41324 0.0
C1742 C 0.02727 0.54796 0.39048 0.0
C1743 C 0.03654 0.5376 0.3912 0.0
C1744 C 0.03748 0.53035 0.40304 0.0
H1745 H 0.09791 0.50821 0.33712 0.0
H1746 H 0.0833 0.51252 0.35617 0.0
C1747 C 0.02927 0.53337 0.41391 0.0
C1748 C 0.04558 0.5348 0.37976 0.0
H1749 H 0.05535 0.51064 0.35774 0.0
C1750 C 0.05382 0.54503 0.37519 0.0
C1751 C 0.04611 0.52225 0.37334 0.0
C1752 C 0.03713 0.51101 0.37738 0.0
C1753 C 0.06265 0.54302 0.36452 0.0
C1754 C 0.06315 0.5305 0.35808 0.0
C1755 C 0.05497 0.52024 0.36268 0.0
C1756 C 0.072 0.5279 0.34647 0.0
C1757 C 0.07157 0.55428 0.3604 0.0
C1758 C 0.07043 0.53499 0.33462 0.0
C1759 C 0.0788 0.5326 0.32374 0.0
C1760 C 0.08893 0.523 0.32443 0.0
C1761 C 0.09037 0.51581 0.33629 0.0
C1762 C 0.08196 0.51819 0.34716 0.0
H1763 H 0.07248 0.56193 0.36838 0.0
H1764 H 0.08165 0.55062 0.35782 0.0
H1765 H 0.06731 0.55909 0.35148 0.0
H1766 H 0.06268 0.54237 0.33377 0.0
H1767 H 0.07745 0.53841 0.31483 0.0
H1768 H 0.76239 0.74814 0.86103 0.0
H1769 H 0.76082 0.73232 0.87925 0.0
H1770 H 0.80138 0.74068 0.89022 0.0
H1771 H 0.80292 0.75684 0.87227 0.0
H1772 H 0.77556 0.70953 0.88439 0.0
H1773 H 0.78147 0.74651 0.92528 0.0
H1774 H 0.77801 0.7512 0.90833 0.0
H1775 H 0.79456 0.74658 0.91313 0.0
C1776 C 0.77096 0.74672 0.86738 0.0
C1777 C 0.78275 0.75389 0.86523 0.0
C1778 C 0.77006 0.73759 0.87775 0.0
C1779 C 0.7809 0.73545 0.88626 0.0
C1780 C 0.7928 0.74233 0.88395 0.0
H1781 H 0.79128 0.68614 0.9565 0.0
H1782 H 0.79454 0.70087 0.93756 0.0
C1783 C 0.79371 0.75147 0.87357 0.0
C1784 C 0.7797 0.72601 0.89751 0.0
H1785 H 0.78082 0.72396 0.93145 0.0
C1786 C 0.77669 0.71269 0.89468 0.0
C1787 C 0.78119 0.73012 0.91095 0.0
C1788 C 0.78387 0.7444 0.91467 0.0
C1789 C 0.77528 0.70335 0.9049 0.0
C1790 C 0.77666 0.70748 0.91834 0.0
C1791 C 0.77977 0.72079 0.92116 0.0
C1792 C 0.77472 0.69822 0.92964 0.0
C1793 C 0.77254 0.68909 0.90118 0.0
C1794 C 0.76246 0.6919 0.93158 0.0
C1795 C 0.76058 0.68341 0.94236 0.0
C1796 C 0.7709 0.68109 0.95151 0.0
C1797 C 0.78317 0.68751 0.94956 0.0
C1798 C 0.78503 0.69601 0.93878 0.0
H1799 H 0.77538 0.68687 0.89071 0.0
H1800 H 0.77798 0.68223 0.90783 0.0
H1801 H 0.76175 0.6871 0.90223 0.0
H1802 H 0.75428 0.69362 0.92481 0.0
H1803 H 0.75104 0.67858 0.94347 0.0
H1804 H 0.9874 0.95699 0.41384 0.0
H1805 H 0.9736 0.96202 0.39455 0.0
H1806 H 0.99397 0.99927 0.38999 0.0
H1807 H 1.00826 0.99405 0.40892 0.0
H1808 H 0.95633 0.98222 0.39072 0.0
H1809 H 0.99607 0.98432 0.35257 0.0
H1810 H 0.99884 0.9777 0.36896 0.0
H1811 H 0.99874 0.99532 0.36646 0.0
C1812 C 0.98915 0.96616 0.40861 0.0
C1813 C 0.99909 0.97504 0.41292 0.0
C1814 C 0.98114 0.96907 0.39763 0.0
C1815 C 0.98286 0.98093 0.39064 0.0
C1816 C 0.99263 0.98992 0.395 0.0
H1817 H 0.94072 0.01641 0.32395 0.0
H1818 H 0.95531 0.01188 0.34285 0.0
C1819 C 1.00069 0.98699 0.40597 0.0
C1820 C 0.97416 0.98397 0.37904 0.0
H1821 H 0.97456 0.9912 0.34583 0.0
C1822 C 0.96033 0.98413 0.3809 0.0
C1823 C 0.97935 0.98648 0.3662 0.0
C1824 C 0.99405 0.98583 0.36335 0.0
C1825 C 0.95158 0.98688 0.37035 0.0
C1826 C 0.95677 0.98937 0.35754 0.0
C1827 C 0.97059 0.9893 0.35567 0.0
C1828 C 0.948 0.99199 0.34592 0.0
C1829 C 0.93685 0.98731 0.37307 0.0
C1830 C 0.93918 0.98225 0.34121 0.0
C1831 C 0.93089 0.98476 0.33031 0.0
C1832 C 0.93125 0.99707 0.32385 0.0
C1833 C 0.94025 1.00676 0.32853 0.0
C1834 C 0.94856 1.00422 0.3394 0.0
H1835 H 0.93469 0.98836 0.38388 0.0
H1836 H 0.9321 0.99565 0.36773 0.0
H1837 H 0.93225 0.97794 0.36947 0.0
H1838 H 0.93876 0.97264 0.34591 0.0
H1839 H 0.92431 0.97696 0.32686 0.0
H1840 H 0.24767 0.25002 0.66723 0.0
H1841 H 0.25332 0.23668 0.64751 0.0
H1842 H 0.21197 0.23513 0.63647 0.0
H1843 H 0.20628 0.24875 0.65588 0.0
H1844 H 0.24466 0.21121 0.64103 0.0
H1845 H 0.22958 0.24651 0.6019 0.0
H1846 H 0.23184 0.25147 0.61907 0.0
H1847 H 0.21678 0.24335 0.61388 0.0
C1848 C 0.2398 0.24703 0.66049 0.0
C1849 C 0.22651 0.2505 0.66317 0.0
C1850 C 0.24304 0.23933 0.64927 0.0
C1851 C 0.2331 0.23504 0.6404 0.0
C1852 C 0.21985 0.23851 0.64302 0.0
H1853 H 0.22713 0.18453 0.57059 0.0
H1854 H 0.22358 0.1993 0.58968 0.0
C1855 C 0.2166 0.24618 0.65423 0.0
C1856 C 0.23647 0.22649 0.6287 0.0
H1857 H 0.23378 0.2243 0.59482 0.0
C1858 C 0.2424 0.21412 0.63091 0.0
C1859 C 0.2335 0.23028 0.61549 0.0
C1860 C 0.22769 0.24368 0.61239 0.0
C1861 C 0.24506 0.20526 0.62034 0.0
C1862 C 0.24192 0.20897 0.60715 0.0
C1863 C 0.23615 0.22143 0.60492 0.0
C1864 C 0.24425 0.19996 0.59554 0.0
C1865 C 0.25078 0.19182 0.62345 0.0
C1866 C 0.25708 0.19551 0.59234 0.0
C1867 C 0.25914 0.18694 0.58147 0.0
C1868 C 0.24841 0.18269 0.5735 0.0
C1869 C 0.2356 0.18737 0.57662 0.0
C1870 C 0.23356 0.19592 0.58749 0.0
H1871 H 0.24946 0.18925 0.6341 0.0
H1872 H 0.24609 0.18397 0.61722 0.0
H1873 H 0.26159 0.19187 0.6213 0.0
H1874 H 0.26553 0.19869 0.59823 0.0
H1875 H 0.26913 0.18351 0.57944 0.0
H1876 H 0.49479 0.5258 0.60832 0.0
H1877 H 0.48062 0.52058 0.62739 0.0
H1878 H 0.48574 0.56033 0.64263 0.0
H1879 H 0.49994 0.56562 0.62369 0.0
H1880 H 0.48563 0.5216 0.65484 0.0
H1881 H 0.44536 0.55649 0.64133 0.0
H1882 H 0.45837 0.5518 0.62985 0.0
H1883 H 0.46144 0.56408 0.64258 0.0
C1884 C 0.493 0.53341 0.61579 0.0
C1885 C 0.49843 0.54618 0.61437 0.0
C1886 C 0.48484 0.53042 0.62666 0.0
C1887 C 0.48189 0.54014 0.63632 0.0
C1888 C 0.48758 0.55277 0.63514 0.0
H1889 H 0.43459 0.54418 0.7085 0.0
H1890 H 0.44943 0.54828 0.68971 0.0
C1891 C 0.49572 0.55577 0.62428 0.0
C1892 C 0.47289 0.53709 0.64765 0.0
H1893 H 0.44389 0.54661 0.66263 0.0
C1894 C 0.47646 0.52701 0.65651 0.0
C1895 C 0.46092 0.54415 0.64983 0.0
C1896 C 0.4562 0.55465 0.64034 0.0
C1897 C 0.46857 0.52403 0.66765 0.0
C1898 C 0.45665 0.53117 0.66987 0.0
C1899 C 0.45304 0.54118 0.66096 0.0
C1900 C 0.44781 0.52848 0.68142 0.0
C1901 C 0.47325 0.51351 0.67713 0.0
C1902 C 0.44182 0.51602 0.68298 0.0
C1903 C 0.43338 0.51361 0.69377 0.0
C1904 C 0.43066 0.52365 0.70323 0.0
C1905 C 0.4366 0.53616 0.70155 0.0
C1906 C 0.44503 0.53855 0.69075 0.0
H1907 H 0.48403 0.51146 0.67598 0.0
H1908 H 0.4713 0.51649 0.68762 0.0
H1909 H 0.46778 0.50417 0.67506 0.0
H1910 H 0.44361 0.50816 0.67578 0.0
H1911 H 0.42909 0.50384 0.69477 0.0
H1912 H 0.771 0.2539 0.64816 0.0
H1913 H 0.76916 0.26998 0.63025 0.0
H1914 H 0.79255 0.29788 0.65304 0.0
H1915 H 0.79433 0.28188 0.67114 0.0
H1916 H 0.75804 0.29539 0.63149 0.0
H1917 H 0.81114 0.2976 0.61666 0.0
H1918 H 0.80457 0.28454 0.6269 0.0
H1919 H 0.80798 0.30057 0.63404 0.0
C1920 C 0.77571 0.26347 0.64944 0.0
C1921 C 0.78279 0.26657 0.66116 0.0
C1922 C 0.77471 0.27264 0.63912 0.0
C1923 C 0.78083 0.2851 0.64021 0.0
C1924 C 0.78796 0.28824 0.65185 0.0
H1925 H 0.78215 0.35292 0.58646 0.0
H1926 H 0.78536 0.33789 0.6052 0.0
C1927 C 0.78897 0.27906 0.6622 0.0
C1928 C 0.7793 0.2949 0.62932 0.0
H1929 H 0.79652 0.31259 0.60614 0.0
C1930 C 0.76646 0.29913 0.62594 0.0
C1931 C 0.79028 0.29985 0.62211 0.0
C1932 C 0.80427 0.29535 0.62499 0.0
C1933 C 0.76429 0.3082 0.61562 0.0
C1934 C 0.77525 0.31299 0.60826 0.0
C1935 C 0.78812 0.3089 0.61175 0.0
C1936 C 0.77351 0.32203 0.59675 0.0
C1937 C 0.75029 0.31273 0.61285 0.0
C1938 C 0.76599 0.31804 0.58563 0.0
C1939 C 0.76418 0.32658 0.57489 0.0
C1940 C 0.76991 0.33931 0.57495 0.0
C1941 C 0.77767 0.34317 0.586 0.0
C1942 C 0.77947 0.33461 0.59677 0.0
H1943 H 0.74369 0.31119 0.62156 0.0
H1944 H 0.75005 0.32337 0.61018 0.0
H1945 H 0.7462 0.3069 0.60436 0.0
H1946 H 0.76158 0.30826 0.58522 0.0
H1947 H 0.75839 0.32313 0.56645 0.0
H1948 H 0.51694 0.96139 0.62362 0.0
H1949 H 0.53121 0.9661 0.64282 0.0
H1950 H 0.54233 1.00349 0.6257 0.0
H1951 H 0.52781 0.99902 0.60661 0.0
H1952 H 0.55869 0.97067 0.64288 0.0
H1953 H 0.53149 0.01398 0.66373 0.0
H1954 H 0.52421 1.00283 0.65159 0.0
H1955 H 0.53578 0.01533 0.64644 0.0
C1956 C 0.52224 0.97072 0.62402 0.0
C1957 C 0.52114 0.97986 0.61357 0.0
C1958 C 0.53048 0.97335 0.63497 0.0
C1959 C 0.53772 0.98522 0.6358 0.0
C1960 C 0.53667 0.99436 0.6254 0.0
H1961 H 0.594 0.018 0.6933 0.0
H1962 H 0.57949 0.0138 0.67416 0.0
C1963 C 0.52846 0.99172 0.61442 0.0
C1964 C 0.54669 0.9878 0.64733 0.0
H1965 H 0.55237 1.00908 0.67342 0.0
C1966 C 0.55728 0.97904 0.64959 0.0
C1967 C 0.54488 0.99874 0.65606 0.0
C1968 C 0.53342 1.00821 0.65445 0.0
C1969 C 0.56621 0.98103 0.6602 0.0
C1970 C 0.56436 0.99194 0.66898 0.0
C1971 C 0.5538 1.00072 0.6667 0.0
C1972 C 0.57326 0.99439 0.68061 0.0
C1973 C 0.57772 0.9716 0.66172 0.0
C1974 C 0.57449 0.98494 0.69072 0.0
C1975 C 0.58287 0.98727 0.70163 0.0
C1976 C 0.59015 0.99915 0.70276 0.0
C1977 C 0.58875 1.00866 0.69268 0.0
C1978 C 0.58037 1.00632 0.68177 0.0
H1979 H 0.57983 0.96613 0.6523 0.0
H1980 H 0.58686 0.97694 0.66487 0.0
H1981 H 0.57527 0.96421 0.66945 0.0
H1982 H 0.56893 0.97577 0.6902 0.0
H1983 H 0.58375 0.97968 0.70912 0.0
H1984 H 0.86926 0.21808 0.76685 0.0
H1985 H 0.88737 0.21946 0.78311 0.0
H1986 H 0.87533 0.25919 0.79366 0.0
H1987 H 0.85702 0.25776 0.77773 0.0
H1988 H 0.9084 0.2374 0.78368 0.0
H1989 H 0.87869 0.24174 0.82996 0.0
H1990 H 0.8716 0.23633 0.81431 0.0
H1991 H 0.87432 0.25367 0.81757 0.0
C1992 C 0.87032 0.22703 0.77278 0.0
C1993 C 0.86163 0.23779 0.77097 0.0
C1994 C 0.88074 0.22784 0.78202 0.0
C1995 C 0.88263 0.23936 0.78975 0.0
C1996 C 0.87395 0.2501 0.788 0.0
H1997 H 0.94098 0.26845 0.84648 0.0
H1998 H 0.92224 0.26523 0.83125 0.0
C1999 C 0.86356 0.24932 0.77876 0.0
C2000 C 0.89398 0.2404 0.79922 0.0
H2001 H 0.90181 0.24635 0.83187 0.0
C2002 C 0.90696 0.23924 0.79423 0.0
C2003 C 0.89211 0.24284 0.813 0.0
C2004 C 0.87843 0.2436 0.81908 0.0
C2005 C 0.9181 0.2408 0.80256 0.0
C2006 C 0.91623 0.24337 0.81632 0.0
C2007 C 0.90325 0.24441 0.82133 0.0
C2008 C 0.92762 0.24519 0.82564 0.0
C2009 C 0.93179 0.24009 0.79648 0.0
C2010 C 0.9368 0.23494 0.82771 0.0
C2011 C 0.94758 0.23677 0.83637 0.0
C2012 C 0.94939 0.24889 0.8432 0.0
C2013 C 0.94004 0.25907 0.84124 0.0
C2014 C 0.92926 0.25721 0.8326 0.0
H2015 H 0.93149 0.24138 0.78551 0.0
H2016 H 0.93841 0.24778 0.80086 0.0
H2017 H 0.93619 0.23024 0.79853 0.0
H2018 H 0.93563 0.22549 0.82264 0.0
H2019 H 0.9546 0.22875 0.83754 0.0
H2020 H 0.49454 0.91834 0.49418 0.0
H2021 H 0.49969 0.89906 0.4801 0.0
H2022 H 0.46457 0.87932 0.49434 0.0
H2023 H 0.45938 0.89849 0.50846 0.0
H2024 H 0.50401 0.87241 0.48638 0.0
H2025 H 0.45972 0.8777 0.45398 0.0
H2026 H 0.46517 0.89067 0.46522 0.0
H2027 H 0.45592 0.87678 0.4714 0.0
C2028 C 0.48798 0.90985 0.49443 0.0
C2029 C 0.47647 0.91005 0.50239 0.0
C2030 C 0.49091 0.89885 0.48632 0.0
C2031 C 0.48238 0.88783 0.48595 0.0
C2032 C 0.47112 0.88783 0.49418 0.0
H2033 H 0.48001 0.8129 0.44266 0.0
H2034 H 0.47613 0.83181 0.45756 0.0
C2035 C 0.46817 0.89881 0.50227 0.0
C2036 C 0.48524 0.87636 0.47696 0.0
H2037 H 0.47241 0.85808 0.45116 0.0
C2038 C 0.49714 0.86931 0.47863 0.0
C2039 C 0.47627 0.87231 0.46684 0.0
C2040 C 0.46361 0.87982 0.46413 0.0
C2041 C 0.50017 0.85816 0.47067 0.0
C2042 C 0.49117 0.85407 0.46059 0.0
C2043 C 0.4793 0.86117 0.4589 0.0
C2044 C 0.49381 0.84245 0.45172 0.0
C2045 C 0.51284 0.85065 0.47335 0.0
C2046 C 0.50498 0.84215 0.44336 0.0
C2047 C 0.50729 0.83129 0.43488 0.0
C2048 C 0.49842 0.8205 0.4345 0.0
C2049 C 0.48717 0.8209 0.44282 0.0
C2050 C 0.48488 0.83176 0.45129 0.0
H2051 H 0.51677 0.85281 0.48348 0.0
H2052 H 0.51126 0.8398 0.47233 0.0
H2053 H 0.52049 0.85364 0.46603 0.0
H2054 H 0.51188 0.85039 0.4433 0.0
H2055 H 0.51611 0.83131 0.42871 0.0
H2056 H 0.14748 0.29501 0.7618 0.0
H2057 H 0.12814 0.28997 0.77565 0.0
H2058 H 0.15376 0.28469 0.80959 0.0
H2059 H 0.17312 0.28965 0.79584 0.0
H2060 H 0.12181 0.26756 0.79066 0.0
H2061 H 0.12692 0.31195 0.82327 0.0
H2062 H 0.13576 0.31019 0.80773 0.0
H2063 H 0.14162 0.30191 0.82237 0.0
C2064 C 0.14902 0.29266 0.77218 0.0
C2065 C 0.16188 0.29287 0.77771 0.0
C2066 C 0.13794 0.28984 0.78011 0.0
C2067 C 0.13945 0.28721 0.79373 0.0
C2068 C 0.15229 0.28703 0.79919 0.0
H2069 H 0.08647 0.26986 0.85957 0.0
H2070 H 0.10546 0.27387 0.84497 0.0
C2071 C 0.16337 0.28987 0.79129 0.0
C2072 C 0.12764 0.28464 0.80225 0.0
H2073 H 0.11113 0.29585 0.82987 0.0
C2074 C 0.11942 0.27378 0.79919 0.0
C2075 C 0.12452 0.29276 0.81339 0.0
C2076 C 0.13258 0.30493 0.81685 0.0
C2077 C 0.10838 0.27064 0.80715 0.0
C2078 C 0.10531 0.27873 0.81834 0.0
C2079 C 0.11349 0.28963 0.82134 0.0
C2080 C 0.09369 0.27607 0.8271 0.0
C2081 C 0.1003 0.25849 0.80369 0.0
C2082 C 0.0807 0.27612 0.82197 0.0
C2083 C 0.06981 0.27386 0.83032 0.0
C2084 C 0.07163 0.27163 0.84402 0.0
C2085 C 0.08466 0.27168 0.84912 0.0
C2086 C 0.09555 0.27391 0.84076 0.0
H2087 H 0.10592 0.2515 0.79719 0.0
H2088 H 0.09719 0.25319 0.81281 0.0
H2089 H 0.09122 0.26153 0.79825 0.0
H2090 H 0.07897 0.27809 0.81154 0.0
H2091 H 0.05992 0.27414 0.82607 0.0
H2092 H 0.53756 0.59835 0.48325 0.0
H2093 H 0.53298 0.61771 0.46951 0.0
H2094 H 0.54168 0.64345 0.50289 0.0
H2095 H 0.54661 0.62415 0.51662 0.0
H2096 H 0.51427 0.6382 0.47315 0.0
H2097 H 0.56582 0.65781 0.47339 0.0
H2098 H 0.56186 0.64117 0.47851 0.0
H2099 H 0.55888 0.65494 0.48959 0.0
C2100 C 0.53861 0.60813 0.48766 0.0
C2101 C 0.54257 0.60966 0.50104 0.0
C2102 C 0.5359 0.61919 0.4798 0.0
C2103 C 0.53718 0.63205 0.4851 0.0
C2104 C 0.54085 0.63364 0.49852 0.0
H2105 H 0.52791 0.71079 0.45127 0.0
H2106 H 0.53167 0.69188 0.46585 0.0
C2107 C 0.54352 0.62257 0.5064 0.0
C2108 C 0.53464 0.64376 0.47656 0.0
H2109 H 0.5494 0.67115 0.46332 0.0
C2110 C 0.52196 0.64539 0.47097 0.0
C2111 C 0.54466 0.65316 0.47373 0.0
C2112 C 0.55861 0.65168 0.47901 0.0
C2113 C 0.51898 0.65624 0.4628 0.0
C2114 C 0.52903 0.6656 0.4599 0.0
C2115 C 0.5417 0.664 0.46554 0.0
C2116 C 0.52666 0.67707 0.45097 0.0
C2117 C 0.50501 0.65774 0.45759 0.0
C2118 C 0.52277 0.67507 0.43766 0.0
C2119 C 0.52065 0.68587 0.42927 0.0
C2120 C 0.52248 0.69894 0.43396 0.0
C2121 C 0.52653 0.70089 0.44726 0.0
C2122 C 0.52863 0.69008 0.45564 0.0
H2123 H 0.49777 0.65204 0.46361 0.0
H2124 H 0.50193 0.6683 0.45756 0.0
H2125 H 0.50456 0.6539 0.44721 0.0
H2126 H 0.52151 0.66512 0.43371 0.0
H2127 H 0.51779 0.68396 0.41904 0.0
H2128 H 0.8684 0.76434 0.76343 0.0
H2129 H 0.88672 0.76262 0.74759 0.0
H2130 H 0.87767 0.80159 0.73295 0.0
H2131 H 0.85911 0.80333 0.74861 0.0
H2132 H 0.88578 0.76439 0.71929 0.0
H2133 H 0.91775 0.80355 0.74178 0.0
H2134 H 0.90403 0.79619 0.75062 0.0
H2135 H 0.90099 0.80843 0.73812 0.0
C2136 C 0.87018 0.77252 0.75678 0.0
C2137 C 0.8622 0.78398 0.75734 0.0
C2138 C 0.88074 0.77154 0.74777 0.0
C2139 C 0.88368 0.78203 0.73918 0.0
C2140 C 0.87574 0.79346 0.73965 0.0
H2141 H 0.94593 0.79283 0.67965 0.0
H2142 H 0.92673 0.79552 0.69436 0.0
C2143 C 0.86513 0.79445 0.74864 0.0
C2144 C 0.8949 0.78082 0.7296 0.0
H2145 H 0.92516 0.79387 0.7216 0.0
C2146 C 0.8944 0.77082 0.71979 0.0
C2147 C 0.90611 0.78926 0.73023 0.0
C2148 C 0.90738 0.79991 0.7408 0.0
C2149 C 0.90475 0.7691 0.71054 0.0
C2150 C 0.91608 0.7774 0.71129 0.0
C2151 C 0.9165 0.78749 0.72102 0.0
C2152 C 0.92766 0.77565 0.7022 0.0
C2153 C 0.90332 0.75855 0.69988 0.0
C2154 C 0.9347 0.76364 0.70179 0.0
C2155 C 0.94561 0.76203 0.6933 0.0
C2156 C 0.94985 0.77244 0.68509 0.0
C2157 C 0.94285 0.78452 0.68565 0.0
C2158 C 0.93192 0.78611 0.69414 0.0
H2159 H 0.89275 0.75582 0.69824 0.0
H2160 H 0.9076 0.76187 0.69029 0.0
H2161 H 0.90869 0.7495 0.70303 0.0
H2162 H 0.9318 0.75551 0.70811 0.0
H2163 H 0.95065 0.75255 0.69309 0.0
H2164 H 0.0367 0.92268 0.54433 0.0
H2165 H 0.03218 0.90329 0.55805 0.0
H2166 H 0.04248 0.87758 0.52513 0.0
H2167 H 0.04738 0.89691 0.51144 0.0
H2168 H 0.01416 0.88235 0.55413 0.0
H2169 H 0.06613 0.86399 0.55534 0.0
H2170 H 0.06191 0.88047 0.54994 0.0
H2171 H 0.05953 0.86652 0.53894 0.0
C2172 C 0.03811 0.9129 0.54002 0.0
C2173 C 0.04253 0.91139 0.52679 0.0
C2174 C 0.03544 0.90182 0.54786 0.0
C2175 C 0.03719 0.88897 0.54271 0.0
C2176 C 0.04129 0.88739 0.52941 0.0
H2177 H 0.02886 0.81025 0.57683 0.0
H2178 H 0.0325 0.82915 0.56221 0.0
C2179 C 0.04394 0.89848 0.52154 0.0
C2180 C 0.03471 0.87725 0.55126 0.0
H2181 H 0.04979 0.8503 0.56506 0.0
C2182 C 0.02195 0.87536 0.55655 0.0
C2183 C 0.04488 0.8681 0.5544 0.0
C2184 C 0.05892 0.86988 0.54947 0.0
C2185 C 0.01904 0.8645 0.56473 0.0
C2186 C 0.02923 0.8554 0.56795 0.0
C2187 C 0.04198 0.85726 0.5626 0.0
C2188 C 0.02692 0.84394 0.5769 0.0
C2189 C 1.00499 0.86272 0.56963 0.0
C2190 C 0.02274 0.84593 0.59011 0.0
C2191 C 0.0207 0.83514 0.59853 0.0
C2192 C 0.02289 0.82208 0.59397 0.0
C2193 C 0.02721 0.82014 0.58076 0.0
C2194 C 0.02923 0.83094 0.57234 0.0
H2195 H 0.99776 0.86824 0.56343 0.0
H2196 H 1.00215 0.85209 0.56963 0.0
H2197 H 1.00425 0.86658 0.57999 0.0
H2198 H 0.02121 0.85587 0.59397 0.0
H2199 H 0.01762 0.83705 0.60869 0.0
H2200 H 0.15189 0.70821 0.75277 0.0
H2201 H 0.13299 0.71396 0.73867 0.0
H2202 H 0.14701 0.75425 0.73665 0.0
H2203 H 0.16618 0.74849 0.75046 0.0
H2204 H 0.11294 0.7328 0.74273 0.0
H2205 H 0.14218 0.74402 0.69734 0.0
H2206 H 0.14917 0.73536 0.71133 0.0
H2207 H 0.14713 0.75304 0.71203 0.0
C2208 C 0.15105 0.71827 0.74923 0.0
C2209 C 0.16067 0.72785 0.75267 0.0
C2210 C 0.14017 0.72156 0.74123 0.0
C2211 C 0.13868 0.73448 0.73641 0.0
C2212 C 0.14808 0.74415 0.74004 0.0
H2213 H 0.07975 0.76994 0.68357 0.0
H2214 H 0.09837 0.766 0.69871 0.0
C2215 C 0.15896 0.74088 0.74807 0.0
C2216 C 0.12722 0.73778 0.72765 0.0
H2217 H 0.11909 0.74813 0.69637 0.0
C2218 C 0.11428 0.73614 0.73259 0.0
C2219 C 0.12896 0.74218 0.71442 0.0
C2220 C 0.14259 0.74366 0.70838 0.0
C2221 C 0.10307 0.73887 0.72472 0.0
C2222 C 0.10481 0.74311 0.71144 0.0
C2223 C 0.11774 0.74489 0.70654 0.0
C2224 C 0.09334 0.74552 0.70238 0.0
C2225 C 0.08945 0.73741 0.7308 0.0
C2226 C 0.08438 0.73529 0.69925 0.0
C2227 C 0.07367 0.73753 0.69067 0.0
C2228 C 0.0717 0.75005 0.68491 0.0
C2229 C 0.0808 0.76024 0.68796 0.0
C2230 C 0.09152 0.75798 0.69655 0.0
H2231 H 0.08986 0.73784 0.74185 0.0
H2232 H 0.08261 0.74526 0.72727 0.0
H2233 H 0.08525 0.72764 0.72786 0.0
H2234 H 0.08571 0.72551 0.7034 0.0
H2235 H 0.06683 0.72946 0.68867 0.0
H2236 H 0.99428 0.60335 0.53258 0.0
H2237 H 0.99964 0.62247 0.54682 0.0
H2238 H 0.96337 0.64159 0.53471 0.0
H2239 H 0.95796 0.62257 0.52045 0.0
H2240 H 1.0031 0.64919 0.54096 0.0
H2241 H 0.96045 0.64257 0.57518 0.0
H2242 H 0.96556 0.62991 0.56345 0.0
H2243 H 0.95577 0.64373 0.55799 0.0
C2244 C 0.9875 0.61167 0.53285 0.0
C2245 C 0.97562 0.61134 0.52544 0.0
C2246 C 0.99055 0.62257 0.54105 0.0
C2247 C 0.98178 0.63336 0.54206 0.0
C2248 C 0.97012 0.63324 0.53439 0.0
H2249 H 0.97991 0.70789 0.58601 0.0
H2250 H 0.97577 0.68898 0.57115 0.0
C2251 C 0.96705 0.62235 0.52622 0.0
C2252 C 0.98483 0.64476 0.5511 0.0
H2253 H 0.97278 0.6625 0.57764 0.0
C2254 C 0.99651 0.65206 0.54903 0.0
C2255 C 0.97624 0.64851 0.56164 0.0
C2256 C 0.96387 0.64071 0.56481 0.0
C2257 C 0.99967 0.66318 0.557 0.0
C2258 C 0.99102 0.66698 0.56747 0.0
C2259 C 0.97939 0.65962 0.56959 0.0
C2260 C 0.9938 0.67858 0.57633 0.0
C2261 C 0.01206 0.67096 0.55389 0.0
C2262 C 1.00526 0.679 0.58431 0.0
C2263 C 1.0077 0.68985 0.59277 0.0
C2264 C 0.9987 0.70051 0.5935 0.0
C2265 C 0.98717 0.69999 0.58556 0.0
C2266 C 0.98474 0.68913 0.57712 0.0
H2267 H 0.01568 0.66892 0.54363 0.0
H2268 H 0.01029 0.68178 0.55502 0.0
H2269 H 0.02004 0.66812 0.56094 0.0
H2270 H 0.01228 0.67087 0.58408 0.0
H2271 H 0.01672 0.68993 0.59864 0.0
H2272 H 0.78948 0.8491 0.23967 0.0
H2273 H 0.8032 0.86861 0.24433 0.0
H2274 H 0.77192 0.89389 0.22994 0.0
H2275 H 0.75811 0.87442 0.2253 0.0
H2276 H 0.8125 0.88709 0.22709 0.0
H2277 H 0.78082 0.91157 0.26518 0.0
H2278 H 0.77825 0.89464 0.25986 0.0
H2279 H 0.77229 0.90807 0.24985 0.0
C2280 C 0.7855 0.85881 0.23751 0.0
C2281 C 0.77266 0.86017 0.23212 0.0
C2282 C 0.79335 0.86997 0.24022 0.0
C2283 C 0.78855 0.88276 0.23767 0.0
C2284 C 0.77574 0.88417 0.23232 0.0
H2285 H 0.8237 0.96162 0.24156 0.0
H2286 H 0.80936 0.94238 0.2378 0.0
C2287 C 0.76785 0.87301 0.22965 0.0
C2288 C 0.79719 0.89455 0.24011 0.0
H2289 H 0.79898 0.92414 0.25693 0.0
C2290 C 0.80956 0.89515 0.23368 0.0
C2291 C 0.79337 0.90511 0.24869 0.0
C2292 C 0.78052 0.9048 0.2564 0.0
C2293 C 0.8181 0.90606 0.23542 0.0
C2294 C 0.81427 0.91661 0.24396 0.0
C2295 C 0.80189 0.91605 0.25037 0.0
C2296 C 0.823 0.92829 0.24639 0.0
C2297 C 0.83106 0.90633 0.22789 0.0
C2298 C 0.83538 0.92682 0.25264 0.0
C2299 C 0.84357 0.93783 0.25493 0.0
C2300 C 0.83957 0.95059 0.25104 0.0
C2301 C 0.82709 0.95201 0.24486 0.0
C2302 C 0.81888 0.941 0.24263 0.0
H2303 H 0.83112 0.89913 0.21945 0.0
H2304 H 0.83307 0.91638 0.22398 0.0
H2305 H 0.83928 0.90369 0.23474 0.0
H2306 H 0.83866 0.91715 0.25587 0.0
H2307 H 0.85297 0.93634 0.25995 0.0
H2308 H 0.75665 0.14912 0.29102 0.0
H2309 H 0.77051 0.12981 0.28572 0.0
H2310 H 0.80561 0.15224 0.29576 0.0
H2311 H 0.79191 0.17159 0.3009 0.0
H2312 H 0.79187 0.1267 0.26726 0.0
H2313 H 0.80856 0.11921 0.31931 0.0
H2314 H 0.79458 0.12958 0.31516 0.0
H2315 H 0.81123 0.13566 0.3132 0.0
C2316 C 0.76732 0.15 0.29197 0.0
C2317 C 0.77312 0.16191 0.29653 0.0
C2318 C 0.77523 0.13892 0.289 0.0
C2319 C 0.78908 0.13949 0.29059 0.0
C2320 C 0.79492 0.15146 0.29476 0.0
H2321 H 0.85547 0.08542 0.28217 0.0
H2322 H 0.84067 0.1043 0.28588 0.0
C2323 C 0.78705 0.16252 0.29772 0.0
C2324 C 0.79746 0.12761 0.28793 0.0
H2325 H 0.81942 0.10647 0.30262 0.0
C2326 C 0.79784 0.12221 0.27499 0.0
C2327 C 0.80524 0.12176 0.29803 0.0
C2328 C 0.80483 0.12675 0.31224 0.0
C2329 C 0.80608 0.11137 0.27181 0.0
C2330 C 0.81395 0.10558 0.2819 0.0
C2331 C 0.81344 0.11091 0.29486 0.0
C2332 C 0.82291 0.09409 0.27926 0.0
C2333 C 0.80658 0.10647 0.25757 0.0
C2334 C 0.81789 0.08199 0.27439 0.0
C2335 C 0.82635 0.07115 0.27226 0.0
C2336 C 0.84001 0.07213 0.27509 0.0
C2337 C 0.845 0.08425 0.28002 0.0
C2338 C 0.83654 0.09509 0.28209 0.0
H2339 H 0.80289 0.11407 0.25054 0.0
H2340 H 0.81685 0.10367 0.25468 0.0
H2341 H 0.80016 0.09758 0.25651 0.0
H2342 H 0.80737 0.08085 0.27245 0.0
H2343 H 0.82213 0.06191 0.26868 0.0
H2344 H 0.42102 0.98213 0.99285 0.0
H2345 H 0.40154 0.96837 0.99738 0.0
H2346 H 0.37615 0.99827 0.98059 0.0
H2347 H 0.3956 0.01197 0.97575 0.0
H2348 H 0.37859 0.9742 0.01287 0.0
H2349 H 0.36579 0.96431 0.95989 0.0
H2350 H 0.38174 0.9708 0.96497 0.0
H2351 H 0.36751 0.98152 0.96433 0.0
C2352 C 0.4113 0.98576 0.99003 0.0
C2353 C 0.40991 0.99814 0.98384 0.0
C2354 C 0.40017 0.9779 0.9927 0.0
C2355 C 0.3874 0.98219 0.98915 0.0
C2356 C 0.38592 0.99465 0.98323 0.0
H2357 H 0.30876 0.94634 0.99407 0.0
H2358 H 0.32774 0.96095 0.99019 0.0
C2359 C 0.39705 1.00254 0.9806 0.0
C2360 C 0.37565 0.97361 0.99165 0.0
H2361 H 0.35068 0.95653 0.97605 0.0
C2362 C 0.3725 0.97031 1.00483 0.0
C2363 C 0.36769 0.96856 0.98115 0.0
C2364 C 0.37087 0.97136 0.96677 0.0
C2365 C 0.3615 0.96226 1.0078 0.0
C2366 C 0.35359 0.95712 0.99728 0.0
C2367 C 0.35673 0.96047 0.98411 0.0
C2368 C 0.34207 0.94818 0.99971 0.0
C2369 C 0.35829 0.9596 0.02219 0.0
C2370 C 0.34381 0.93602 1.00617 0.0
C2371 C 0.33297 0.92763 1.00838 0.0
C2372 C 0.32015 0.93114 1.00406 0.0
C2373 C 0.31849 0.94325 0.99742 0.0
C2374 C 0.32933 0.95165 0.99525 0.0
H2375 H 0.36283 0.96713 0.02894 0.0
H2376 H 0.34739 0.95949 0.02388 0.0
H2377 H 0.36232 0.94976 0.02494 0.0
H2378 H 0.35359 0.93294 1.00939 0.0
H2379 H 0.33468 0.91828 0.01329 0.0
H2380 H 0.23823 0.35417 0.29605 0.0
H2381 H 0.22211 0.37225 0.29405 0.0
H2382 H 0.25225 0.39702 0.27674 0.0
H2383 H 0.26843 0.37914 0.27883 0.0
H2384 H 0.22271 0.39868 0.30441 0.0
H2385 H 0.22202 0.398 0.24918 0.0
H2386 H 0.22882 0.38459 0.25881 0.0
H2387 H 0.23832 0.39944 0.2563 0.0
C2388 C 0.24148 0.3635 0.29193 0.0
C2389 C 0.25463 0.36511 0.28747 0.0
C2390 C 0.23222 0.37381 0.29074 0.0
C2391 C 0.23589 0.38591 0.28501 0.0
C2392 C 0.24909 0.38767 0.28089 0.0
H2393 H 0.19836 0.46034 0.26538 0.0
H2394 H 0.21332 0.44162 0.26888 0.0
C2395 C 0.25833 0.37741 0.28208 0.0
C2396 C 0.226 0.39673 0.28332 0.0
H2397 H 0.21124 0.41612 0.25986 0.0
C2398 C 0.22011 0.40244 0.29468 0.0
C2399 C 0.22262 0.40163 0.27061 0.0
C2400 C 0.22817 0.39554 0.25801 0.0
C2401 C 0.21126 0.4132 0.29368 0.0
C2402 C 0.208 0.4182 0.28096 0.0
C2403 C 0.21376 0.41234 0.26961 0.0
C2404 C 0.19882 0.42964 0.27915 0.0
C2405 C 0.20584 0.41937 0.30629 0.0
C2406 C 0.18562 0.42914 0.28364 0.0
C2407 C 0.17702 0.43986 0.28164 0.0
C2408 C 0.18138 0.45126 0.27496 0.0
C2409 C 0.19459 0.45168 0.27041 0.0
C2410 C 0.20319 0.441 0.27247 0.0
H2411 H 0.21196 0.41679 0.31511 0.0
H2412 H 0.20539 0.43032 0.30552 0.0
H2413 H 0.19563 0.41563 0.30801 0.0
H2414 H 0.18189 0.42038 0.28852 0.0
H2415 H 0.16686 0.43911 0.28509 0.0
H2416 H 0.11324 0.0155 0.49958 0.0
H2417 H 0.13259 0.02958 0.50414 0.0
H2418 H 0.12889 0.04686 0.46524 0.0
H2419 H 0.10968 0.0328 0.46056 0.0
H2420 H 0.15687 0.03172 0.49062 0.0
H2421 H 0.12957 0.07942 0.48977 0.0
H2422 H 0.12123 0.06362 0.49085 0.0
H2423 H 0.12719 0.06943 0.47507 0.0
C2424 C 0.11658 0.02223 0.49196 0.0
C2425 C 0.10977 0.02309 0.47974 0.0
C2426 C 0.12762 0.03032 0.49461 0.0
C2427 C 0.13204 0.03948 0.48514 0.0
C2428 C 0.12546 0.04014 0.47285 0.0
H2429 H 0.19604 0.09679 0.47907 0.0
H2430 H 0.17705 0.08207 0.47538 0.0
C2431 C 0.11445 0.03208 0.47019 0.0
C2432 C 0.14363 0.04823 0.488 0.0
H2433 H 0.15314 0.08073 0.48994 0.0
C2434 C 0.15604 0.04243 0.49057 0.0
C2435 C 0.14256 0.06223 0.48793 0.0
C2436 C 0.1294 0.06907 0.48588 0.0
C2437 C 0.16745 0.05023 0.49272 0.0
C2438 C 0.16639 0.06422 0.49251 0.0
C2439 C 0.15397 0.07001 0.49004 0.0
C2440 C 0.17805 0.07304 0.49479 0.0
C2441 C 0.18061 0.04343 0.49486 0.0
C2442 C 0.18485 0.073 0.507 0.0
C2443 C 0.19566 0.08148 0.50919 0.0
C2444 C 0.1999 0.09026 0.49923 0.0
C2445 C 0.19299 0.09031 0.48703 0.0
C2446 C 0.18217 0.08183 0.48486 0.0
H2447 H 0.18036 0.03291 0.49151 0.0
H2448 H 0.18869 0.04861 0.48947 0.0
H2449 H 0.18305 0.04363 0.50564 0.0
H2450 H 0.18167 0.06652 0.51492 0.0
H2451 H 0.20053 0.08133 0.5188 0.0
H2452 H 0.75054 0.16118 0.76225 0.0
H2453 H 0.73464 0.14295 0.7638 0.0
H2454 H 0.73717 0.13661 0.72138 0.0
H2455 H 0.7534 0.15461 0.71977 0.0
H2456 H 0.70981 0.13962 0.75151 0.0
H2457 H 0.74479 0.09968 0.73632 0.0
H2458 H 0.75035 0.11604 0.74116 0.0
H2459 H 0.74347 0.11318 0.72487 0.0
C2460 C 0.74783 0.15584 0.75324 0.0
C2461 C 0.75338 0.15931 0.74089 0.0
C2462 C 0.73866 0.14547 0.75415 0.0
C2463 C 0.73486 0.13826 0.74275 0.0
C2464 C 0.74013 0.14186 0.73035 0.0
H2465 H 0.68348 0.06916 0.73196 0.0
H2466 H 0.69806 0.08822 0.72863 0.0
C2467 C 0.7493 0.15227 0.72943 0.0
C2468 C 0.72535 0.12702 0.74391 0.0
H2469 H 0.7224 0.0935 0.73957 0.0
C2470 C 0.71256 0.12954 0.7489 0.0
C2471 C 0.72892 0.11385 0.74048 0.0
C2472 C 0.74266 0.11045 0.73551 0.0
C2473 C 0.70323 0.11929 0.75045 0.0
C2474 C 0.70686 0.10609 0.7472 0.0
C2475 C 0.7196 0.1036 0.74207 0.0
C2476 C 0.69767 0.0947 0.74922 0.0
C2477 C 0.68948 0.12276 0.75535 0.0
C2478 C 0.69266 0.09188 0.76193 0.0
C2479 C 0.6842 0.08104 0.76385 0.0
C2480 C 0.68065 0.07267 0.75313 0.0
C2481 C 0.68579 0.07548 0.74042 0.0
C2482 C 0.69423 0.08634 0.73851 0.0
H2483 H 0.68709 0.13335 0.75361 0.0
H2484 H 0.68182 0.11653 0.75037 0.0
H2485 H 0.68894 0.12101 0.76622 0.0
H2486 H 0.69538 0.09799 0.77042 0.0
H2487 H 0.68038 0.0793 0.77375 0.0
H2488 H 0.39612 0.01138 0.55002 0.0
H2489 H 0.37678 0.02511 0.54483 0.0
H2490 H 0.40245 0.05449 0.52756 0.0
H2491 H 0.4218 0.04069 0.5324 0.0
H2492 H 0.37182 0.05098 0.55403 0.0
H2493 H 0.37393 0.04933 0.49883 0.0
H2494 H 0.38291 0.03779 0.50909 0.0
H2495 H 0.38918 0.05427 0.50672 0.0
C2496 C 0.39765 0.02065 0.5449 0.0
C2497 C 0.41054 0.02489 0.5416 0.0
C2498 C 0.38658 0.02853 0.54202 0.0
C2499 C 0.38813 0.04077 0.53566 0.0
C2500 C 0.40096 0.04499 0.53226 0.0
H2501 H 0.33464 0.10498 0.51404 0.0
H2502 H 0.35378 0.09045 0.51757 0.0
C2503 C 0.41204 0.03714 0.53518 0.0
C2504 C 0.3764 0.04938 0.53315 0.0
H2505 H 0.35879 0.06466 0.50855 0.0
C2506 C 0.36892 0.0539 0.54408 0.0
C2507 C 0.37266 0.05326 0.52017 0.0
C2508 C 0.38 0.04833 0.508 0.0
C2509 C 0.35797 0.06238 0.54242 0.0
C2510 C 0.3542 0.06624 0.52943 0.0
C2511 C 0.36168 0.06172 0.5185 0.0
C2512 C 0.34249 0.07491 0.52701 0.0
C2513 C 0.35074 0.06739 0.55462 0.0
C2514 C 0.32972 0.07093 0.5309 0.0
C2515 C 0.31875 0.07919 0.52887 0.0
C2516 C 0.32028 0.09162 0.5228 0.0
C2517 C 0.33306 0.09546 0.51865 0.0
C2518 C 0.34403 0.08718 0.52071 0.0
H2519 H 0.35692 0.0665 0.56374 0.0
H2520 H 0.34778 0.07792 0.55349 0.0
H2521 H 0.34161 0.06142 0.55607 0.0
H2522 H 0.32821 0.06137 0.53547 0.0
H2523 H 0.30904 0.07576 0.53193 0.0
H2524 H 0.61035 0.50409 0.52797 0.0
H2525 H 0.62966 0.49008 0.52308 0.0
H2526 H 0.63057 0.47739 0.56391 0.0
H2527 H 0.61143 0.49143 0.56894 0.0
H2528 H 0.6554 0.49012 0.53459 0.0
H2529 H 0.62967 0.44229 0.5429 0.0
H2530 H 0.62082 0.45768 0.54079 0.0
H2531 H 0.62833 0.45386 0.55653 0.0
C2532 C 0.61471 0.4984 0.53595 0.0
C2533 C 0.60921 0.49882 0.54884 0.0
C2534 C 0.62572 0.49035 0.53311 0.0
C2535 C 0.63142 0.48249 0.54307 0.0
C2536 C 0.62615 0.48311 0.55599 0.0
H2537 H 0.69642 0.42628 0.54833 0.0
H2538 H 0.67764 0.44114 0.5524 0.0
C2539 C 0.61518 0.49115 0.55884 0.0
C2540 C 0.64294 0.47372 0.54002 0.0
H2541 H 0.65309 0.4414 0.54031 0.0
C2542 C 0.65489 0.47946 0.53575 0.0
C2543 C 0.64226 0.45981 0.54157 0.0
C2544 C 0.62955 0.453 0.54558 0.0
C2545 C 0.66626 0.4717 0.53331 0.0
C2546 C 0.66561 0.45779 0.53493 0.0
C2547 C 0.65362 0.45206 0.53911 0.0
C2548 C 0.67724 0.44898 0.53243 0.0
C2549 C 0.67898 0.47853 0.5294 0.0
C2550 C 0.68322 0.44832 0.51982 0.0
C2551 C 0.69405 0.4399 0.51748 0.0
C2552 C 0.6991 0.43185 0.52769 0.0
C2553 C 0.69298 0.43246 0.54029 0.0
C2554 C 0.68216 0.4409 0.54261 0.0
H2555 H 0.67883 0.48924 0.53208 0.0
H2556 H 0.6877 0.47387 0.53425 0.0
H2557 H 0.68029 0.47769 0.51845 0.0
H2558 H 0.67946 0.45425 0.51172 0.0
H2559 H 0.69854 0.4398 0.50769 0.0
H2560 H 0.74736 0.27355 0.36008 0.0
H2561 H 0.7531 0.28703 0.37968 0.0
H2562 H 0.71253 0.28492 0.39318 0.0
H2563 H 0.70681 0.27113 0.3739 0.0
H2564 H 0.74302 0.3115 0.38716 0.0
H2565 H 0.73295 0.27467 0.42644 0.0
H2566 H 0.73446 0.27012 0.40908 0.0
H2567 H 0.71919 0.27701 0.41535 0.0
C2568 C 0.73971 0.27576 0.36733 0.0
C2569 C 0.72662 0.27121 0.36539 0.0
C2570 C 0.74299 0.28355 0.37849 0.0
C2571 C 0.7333 0.28686 0.38802 0.0
C2572 C 0.72025 0.28231 0.38612 0.0
H2573 H 0.72761 0.33699 0.45818 0.0
H2574 H 0.72397 0.32204 0.43924 0.0
C2575 C 0.71696 0.27454 0.37498 0.0
C2576 C 0.73667 0.29549 0.39966 0.0
H2577 H 0.73575 0.29708 0.43367 0.0
C2578 C 0.74155 0.3083 0.39734 0.0
C2579 C 0.73475 0.29134 0.41294 0.0
C2580 C 0.73017 0.27749 0.41614 0.0
C2581 C 0.74418 0.31719 0.4079 0.0
C2582 C 0.74206 0.3131 0.42117 0.0
C2583 C 0.73733 0.30023 0.4235 0.0
C2584 C 0.74445 0.32209 0.43276 0.0
C2585 C 0.74882 0.33102 0.40475 0.0
C2586 C 0.75722 0.32697 0.43557 0.0
C2587 C 0.75937 0.33547 0.44647 0.0
C2588 C 0.74879 0.33924 0.45487 0.0
C2589 C 0.73603 0.3342 0.45208 0.0
C2590 C 0.7339 0.32569 0.44119 0.0
H2591 H 0.74701 0.33357 0.39417 0.0
H2592 H 0.74374 0.33845 0.41119 0.0
H2593 H 0.75965 0.33176 0.40665 0.0
H2594 H 0.76556 0.32412 0.42938 0.0
H2595 H 0.76937 0.33893 0.44843 0.0
H2596 H 0.52537 0.06469 0.90941 0.0
H2597 H 0.53974 0.05976 0.89041 0.0
H2598 H 0.53454 0.01792 0.89689 0.0
H2599 H 0.51974 0.02275 0.91563 0.0
H2600 H 0.56342 0.04602 0.88986 0.0
H2601 H 0.52629 0.02105 0.85735 0.0
H2602 H 0.52163 0.03066 0.87186 0.0
H2603 H 0.52779 0.01405 0.87365 0.0
C2604 C 0.52707 0.05443 0.90668 0.0
C2605 C 0.52126 0.04413 0.91404 0.0
C2606 C 0.5354 0.05163 0.89586 0.0
C2607 C 0.53809 0.03847 0.89207 0.0
C2608 C 0.53242 0.02815 0.89944 0.0
H2609 H 0.58707 1.00325 0.82938 0.0
H2610 H 0.57271 1.00725 0.84864 0.0
C2611 C 0.52407 0.03094 0.91027 0.0
C2612 C 0.54711 0.03563 0.88064 0.0
H2613 H 0.54866 0.02054 0.85005 0.0
C2614 C 0.56018 0.04049 0.88114 0.0
C2615 C 0.54291 0.02836 0.86927 0.0
C2616 C 0.52886 0.02332 0.86789 0.0
C2617 C 0.56918 0.03816 0.87067 0.0
C2618 C 0.56495 0.03099 0.85925 0.0
C2619 C 0.55191 0.02604 0.85879 0.0
C2620 C 0.57385 0.02862 0.84763 0.0
C2621 C 0.58323 0.04321 0.87207 0.0
C2622 C 0.57919 0.03929 0.84053 0.0
C2623 C 0.5875 0.03704 0.82957 0.0
C2624 C 0.5906 0.02405 0.82536 0.0
C2625 C 0.58511 0.01338 0.83243 0.0
C2626 C 0.5768 0.01564 0.8434 0.0
H2627 H 0.58588 0.04514 0.88265 0.0
H2628 H 0.59046 0.03603 0.86779 0.0
H2629 H 0.5842 0.05267 0.86663 0.0
H2630 H 0.57687 0.04939 0.84342 0.0
H2631 H 0.59161 0.0455 0.82446 0.0
H2632 H 0.27695 0.2415 0.35491 0.0
H2633 H 0.27459 0.2255 0.37294 0.0
H2634 H 0.29004 0.2543 0.4009 0.0
H2635 H 0.29236 0.27035 0.38298 0.0
H2636 H 0.29265 0.21457 0.39011 0.0
H2637 H 0.25553 0.24383 0.41858 0.0
H2638 H 0.26013 0.24779 0.40173 0.0
H2639 H 0.27057 0.2528 0.41542 0.0
C2640 C 0.27994 0.2444 0.36488 0.0
C2641 C 0.28473 0.25728 0.3675 0.0
C2642 C 0.27853 0.23525 0.3752 0.0
C2643 C 0.28186 0.23876 0.38835 0.0
C2644 C 0.28704 0.25146 0.39092 0.0
H2645 H 0.28195 0.19876 0.46453 0.0
H2646 H 0.28504 0.2139 0.44595 0.0
C2647 C 0.28838 0.26063 0.38064 0.0
C2648 C 0.27998 0.22915 0.39937 0.0
H2649 H 0.26465 0.22508 0.42943 0.0
C2650 C 0.28646 0.21684 0.39867 0.0
C2651 C 0.27187 0.23208 0.41055 0.0
C2652 C 0.26402 0.24478 0.41159 0.0
C2653 C 0.2853 0.20752 0.40894 0.0
C2654 C 0.27734 0.21054 0.42017 0.0
C2655 C 0.27081 0.22281 0.42085 0.0
C2656 C 0.27564 0.20111 0.43135 0.0
C2657 C 0.29284 0.19464 0.40786 0.0
C2658 C 0.26921 0.18891 0.42936 0.0
C2659 C 0.26727 0.18026 0.44002 0.0
C2660 C 0.2717 0.18363 0.45292 0.0
C2661 C 0.27819 0.19587 0.45482 0.0
C2662 C 0.28007 0.20453 0.44418 0.0
H2663 H 0.30074 0.19505 0.40016 0.0
H2664 H 0.29744 0.19208 0.41755 0.0
H2665 H 0.28585 0.18657 0.40508 0.0
H2666 H 0.26549 0.18616 0.4196 0.0
H2667 H 0.26202 0.17105 0.43817 0.0
H2668 H 0.51297 0.47682 0.90115 0.0
H2669 H 0.49919 0.48218 0.88183 0.0
H2670 H 0.46511 0.48677 0.90741 0.0
H2671 H 0.47886 0.48178 0.9268 0.0
H2672 H 0.47669 0.4686 0.87263 0.0
H2673 H 0.46413 0.52067 0.88549 0.0
H2674 H 0.47747 0.51183 0.89349 0.0
H2675 H 0.46055 0.5091 0.89847 0.0
C2676 C 0.50259 0.47919 0.90271 0.0
C2677 C 0.49705 0.47889 0.91557 0.0
C2678 C 0.4947 0.48216 0.89163 0.0
C2679 C 0.48114 0.48504 0.89317 0.0
C2680 C 0.47559 0.48481 0.90598 0.0
H2681 H 0.41486 0.50106 0.84019 0.0
H2682 H 0.42954 0.49713 0.85919 0.0
C2683 C 0.48345 0.4818 0.91705 0.0
C2684 C 0.47267 0.48775 0.88134 0.0
H2685 H 0.45205 0.51082 0.86761 0.0
C2686 C 0.47137 0.47787 0.87148 0.0
C2687 C 0.46569 0.49982 0.87986 0.0
C2688 C 0.46709 0.51103 0.88982 0.0
C2689 C 0.46307 0.4796 0.86036 0.0
C2690 C 0.45605 0.49166 0.8589 0.0
C2691 C 0.4574 0.50157 0.86873 0.0
C2692 C 0.44721 0.49416 0.84729 0.0
C2693 C 0.46161 0.46834 0.85046 0.0
C2694 C 0.45227 0.494 0.83427 0.0
C2695 C 0.44391 0.49628 0.82338 0.0
C2696 C 0.43029 0.49887 0.82526 0.0
C2697 C 0.4253 0.49922 0.83835 0.0
C2698 C 0.43367 0.49692 0.84924 0.0
H2699 H 0.46473 0.45873 0.85477 0.0
H2700 H 0.45118 0.46743 0.84698 0.0
H2701 H 0.46798 0.47029 0.84169 0.0
H2702 H 0.46273 0.49223 0.83252 0.0
H2703 H 0.44817 0.4962 0.81348 0.0
H2704 H 0.70723 0.73974 0.16254 0.0
H2705 H 0.71264 0.72601 0.14314 0.0
H2706 H 0.75237 0.74194 0.14295 0.0
H2707 H 0.74719 0.7554 0.1627 0.0
H2708 H 0.72085 0.73339 0.11802 0.0
H2709 H 0.75918 0.7021 0.14208 0.0
H2710 H 0.748 0.71254 0.15152 0.0
H2711 H 0.76215 0.71961 0.14333 0.0
C2712 C 0.71719 0.74022 0.15851 0.0
C2713 C 0.72681 0.74861 0.16432 0.0
C2714 C 0.72023 0.73242 0.14733 0.0
C2715 C 0.73298 0.73276 0.14169 0.0
C2716 C 0.74255 0.74129 0.14728 0.0
H2717 H 0.76787 0.68973 0.07427 0.0
H2718 H 0.76372 0.70481 0.09305 0.0
C2719 C 0.73951 0.74911 0.15849 0.0
C2720 C 0.7361 0.72429 0.12986 0.0
H2721 H 0.75605 0.69903 0.11891 0.0
C2722 C 0.72854 0.72587 0.11822 0.0
C2723 C 0.74616 0.7145 0.1301 0.0
C2724 C 0.75428 0.71196 0.14245 0.0
C2725 C 0.73081 0.718 0.10682 0.0
C2726 C 0.74076 0.70809 0.10711 0.0
C2727 C 0.74843 0.70662 0.11869 0.0
C2728 C 0.7432 0.69901 0.09559 0.0
C2729 C 0.72267 0.72053 0.09448 0.0
C2730 C 0.73311 0.69059 0.09084 0.0
C2731 C 0.73542 0.68202 0.08004 0.0
C2732 C 0.74792 0.68158 0.07378 0.0
C2733 C 0.75806 0.68993 0.07868 0.0
C2734 C 0.75574 0.6985 0.08949 0.0
H2735 H 0.71828 0.73063 0.09461 0.0
H2736 H 0.72877 0.71934 0.08534 0.0
H2737 H 0.71439 0.71328 0.09398 0.0
H2738 H 0.72343 0.6906 0.09553 0.0
H2739 H 0.72733 0.67585 0.0765 0.0
H2740 H 0.98827 0.06396 0.11549 0.0
H2741 H 0.97443 0.05831 0.13457 0.0
H2742 H 0.98842 0.01798 0.13249 0.0
H2743 H 1.00223 0.02351 0.11325 0.0
H2744 H 0.95402 0.0395 0.13584 0.0
H2745 H 0.99426 0.02793 0.17177 0.0
H2746 H 0.99728 0.0367 0.15649 0.0
H2747 H 0.99509 0.01904 0.15621 0.0
C2748 C 0.98838 0.05386 0.11902 0.0
C2749 C 0.99638 0.04419 0.11277 0.0
C2750 C 0.98049 0.05066 0.12999 0.0
C2751 C 0.98048 0.03776 0.13508 0.0
C2752 C 0.98846 0.02807 0.12892 0.0
H2753 H 0.93736 1.0025 0.20165 0.0
H2754 H 0.95132 1.00621 0.18207 0.0
C2755 C 0.99636 0.03126 0.11791 0.0
C2756 C 0.97179 0.03444 0.14658 0.0
H2757 H 0.97222 0.02395 0.17885 0.0
C2758 C 0.958 0.03611 0.14525 0.0
C2759 C 0.97697 0.02995 0.15884 0.0
C2760 C 0.99171 0.02839 0.16102 0.0
C2761 C 0.94927 0.03337 0.15579 0.0
C2762 C 0.95447 0.02909 0.16813 0.0
C2763 C 0.96824 0.02724 0.16941 0.0
C2764 C 0.9458 0.02679 0.1799 0.0
C2765 C 0.93454 0.0349 0.15354 0.0
C2766 C 0.93813 0.03714 0.1853 0.0
C2767 C 0.93007 0.03504 0.19643 0.0
C2768 C 0.92956 0.02254 0.20252 0.0
C2769 C 0.93734 0.0122 0.19713 0.0
C2770 C 0.94541 0.01432 0.18599 0.0
H2771 H 0.93199 0.03448 0.14278 0.0
H2772 H 0.92887 0.02707 0.15876 0.0
H2773 H 0.93129 0.04468 0.15751 0.0
H2774 H 0.93844 0.04691 0.18095 0.0
H2775 H 0.92416 0.0432 0.2002 0.0
H2776 H 0.30165 0.76541 0.15671 0.0
H2777 H 0.29992 0.78168 0.13885 0.0
H2778 H 0.25853 0.78754 0.14814 0.0
H2779 H 0.26027 0.77166 0.16625 0.0
H2780 H 0.28389 0.7808 0.11652 0.0
H2781 H 0.27211 0.82541 0.14688 0.0
H2782 H 0.27846 0.81037 0.15409 0.0
H2783 H 0.26114 0.81175 0.14992 0.0
C2784 C 0.29223 0.77032 0.15511 0.0
C2785 C 0.28111 0.76721 0.16298 0.0
C2786 C 0.29124 0.77956 0.14483 0.0
C2787 C 0.27914 0.78599 0.14224 0.0
C2788 C 0.26804 0.78292 0.15008 0.0
H2789 H 0.2488 0.83953 0.08235 0.0
H2790 H 0.25203 0.82446 0.101 0.0
C2791 C 0.26902 0.7737 0.16035 0.0
C2792 C 0.27797 0.79548 0.13103 0.0
H2793 H 0.26902 0.82721 0.12344 0.0
C2794 C 0.28075 0.79098 0.11805 0.0
C2795 C 0.27385 0.80877 0.133 0.0
C2796 C 0.27134 0.81442 0.14674 0.0
C2797 C 0.27919 0.79928 0.10698 0.0
C2798 C 0.27492 0.81252 0.10895 0.0
C2799 C 0.27224 0.81706 0.12193 0.0
C2800 C 0.27308 0.82178 0.09765 0.0
C2801 C 0.28177 0.7937 0.09323 0.0
C2802 C 0.28387 0.82546 0.08965 0.0
C2803 C 0.28208 0.83417 0.07902 0.0
C2804 C 0.26946 0.83945 0.07616 0.0
C2805 C 0.25869 0.83582 0.08431 0.0
C2806 C 0.2605 0.82714 0.09495 0.0
H2807 H 0.28185 0.78269 0.09315 0.0
H2808 H 0.27414 0.79715 0.08607 0.0
H2809 H 0.29161 0.79716 0.08973 0.0
H2810 H 0.29372 0.82169 0.0917 0.0
H2811 H 0.29066 0.83691 0.07316 0.0
H2812 H 0.02519 0.45528 0.1184 0.0
H2813 H 0.03926 0.46056 0.13756 0.0
H2814 H 0.03308 0.50226 0.13105 0.0
H2815 H 0.01909 0.49708 0.11173 0.0
H2816 H 0.06283 0.47564 0.13778 0.0
H2817 H 0.02457 0.49804 0.17085 0.0
H2818 H 0.02035 0.48811 0.15641 0.0
H2819 H 0.02557 0.505 0.15449 0.0
C2820 C 0.02685 0.46559 0.12098 0.0
C2821 C 0.021 0.47575 0.11345 0.0
C2822 C 0.03485 0.46858 0.13199 0.0
C2823 C 0.03713 0.48179 0.13584 0.0
C2824 C 0.03126 0.49198 0.12844 0.0
H2825 H 0.08386 0.5181 0.19963 0.0
H2826 H 0.06952 0.51372 0.18044 0.0
C2827 C 0.02325 0.48899 0.11738 0.0
C2828 C 0.04602 0.48485 0.14732 0.0
H2829 H 0.04685 0.49914 0.1783 0.0
C2830 C 0.05934 0.48075 0.14666 0.0
C2831 C 0.04147 0.49158 0.15887 0.0
C2832 C 0.02719 0.49586 0.16031 0.0
C2833 C 0.06826 0.48332 0.15715 0.0
C2834 C 0.06368 0.4899 0.16879 0.0
C2835 C 0.05037 0.49408 0.16941 0.0
C2836 C 0.07251 0.49249 0.18045 0.0
C2837 C 0.08258 0.47922 0.15551 0.0
C2838 C 0.07887 0.48202 0.187 0.0
C2839 C 0.08724 0.48451 0.19789 0.0
C2840 C 0.08932 0.49753 0.20261 0.0
C2841 C 0.08273 0.50798 0.19615 0.0
C2842 C 0.07441 0.50548 0.18523 0.0
H2843 H 0.08528 0.47796 0.14485 0.0
H2844 H 0.08939 0.48661 0.16011 0.0
H2845 H 0.08415 0.46956 0.16046 0.0
H2846 H 0.07735 0.47189 0.18371 0.0
H2847 H 0.09219 0.47621 0.2025 0.0
H2848 H 0.37877 0.73351 0.25432 0.0
H2849 H 0.39682 0.73549 0.27051 0.0
H2850 H 0.36824 0.73948 0.30224 0.0
H2851 H 0.3501 0.73754 0.28608 0.0
H2852 H 0.40235 0.75649 0.28737 0.0
H2853 H 0.39296 0.71107 0.31661 0.0
H2854 H 0.38542 0.71385 0.30057 0.0
H2855 H 0.37886 0.72186 0.31522 0.0
C2856 C 0.3763 0.73482 0.26474 0.0
C2857 C 0.36295 0.73536 0.26887 0.0
C2858 C 0.38665 0.73589 0.274 0.0
C2859 C 0.38392 0.73747 0.28763 0.0
C2860 C 0.37062 0.73797 0.29182 0.0
H2861 H 0.43441 0.75024 0.35736 0.0
H2862 H 0.41572 0.74726 0.342 0.0
C2863 C 0.36024 0.73686 0.28256 0.0
C2864 C 0.39502 0.73917 0.29732 0.0
H2865 H 0.40922 0.72593 0.32513 0.0
C2866 C 0.40388 0.74977 0.29559 0.0
C2867 C 0.39699 0.73045 0.3081 0.0
C2868 C 0.38814 0.71859 0.31021 0.0
C2869 C 0.41454 0.75197 0.30439 0.0
C2870 C 0.41658 0.7432 0.31511 0.0
C2871 C 0.40766 0.73265 0.31691 0.0
C2872 C 0.42797 0.74474 0.32447 0.0
C2873 C 0.42338 0.76384 0.30227 0.0
C2874 C 0.44109 0.74407 0.31979 0.0
C2875 C 0.4518 0.74572 0.32855 0.0
C2876 C 0.44965 0.74799 0.34224 0.0
C2877 C 0.43647 0.7484 0.34693 0.0
C2878 C 0.42576 0.74676 0.33814 0.0
H2879 H 0.41847 0.77143 0.29602 0.0
H2880 H 0.42625 0.7685 0.31192 0.0
H2881 H 0.43257 0.76061 0.29709 0.0
H2882 H 0.44307 0.7422 0.30934 0.0
H2883 H 0.46179 0.74506 0.32461 0.0
H2884 H 0.95418 0.40471 0.99816 0.0
H2885 H 0.95969 0.38545 0.98431 0.0
H2886 H 1.00138 0.39413 0.98878 0.0
H2887 H 0.99597 0.41353 1.00257 0.0
H2888 H 0.97363 0.38498 0.96024 0.0
H2889 H 0.99936 0.35477 0.99831 0.0
H2890 H 0.9891 0.36884 1.00263 0.0
H2891 H 1.00568 0.3713 0.99652 0.0
C2892 C 0.96454 0.40258 0.99618 0.0
C2893 C 0.97463 0.41073 1.0015 0.0
C2894 C 0.96767 0.3915 0.9883 0.0
C2895 C 0.98095 0.38823 0.98562 0.0
C2896 C 0.99107 0.39628 0.99094 0.0
H2897 H 0.0178 0.32527 0.9382 0.0
H2898 H 0.01336 0.34468 0.95229 0.0
C2899 C 0.98795 0.40738 0.99883 0.0
C2900 C 0.98412 0.37667 0.97686 0.0
H2901 H 0.99988 0.34666 0.97611 0.0
C2902 C 0.97934 0.37658 0.96372 0.0
C2903 C 0.99163 0.36574 0.98138 0.0
C2904 C 0.99666 0.36505 0.99551 0.0
C2905 C 0.98196 0.36596 0.95495 0.0
C2906 C 0.98933 0.35495 0.9595 0.0
C2907 C 0.99421 0.35508 0.97261 0.0
C2908 C 0.99198 0.34316 0.95086 0.0
C2909 C 0.97702 0.36677 0.94079 0.0
C2910 C 0.98145 0.33572 0.94546 0.0
C2911 C 0.98395 0.32468 0.93729 0.0
C2912 C 0.99706 0.32074 0.9344 0.0
C2913 C 1.00759 0.32812 0.93999 0.0
C2914 C 1.00507 0.33918 0.94815 0.0
H2915 H 0.975 0.37717 0.93787 0.0
H2916 H 0.98432 0.36243 0.93371 0.0
H2917 H 0.96759 0.36114 0.93985 0.0
H2918 H 0.97126 0.33842 0.94761 0.0
H2919 H 0.97558 0.31934 0.9331 0.0
H2920 H 0.65006 0.81304 0.27413 0.0
H2921 H 0.6312 0.80721 0.28824 0.0
H2922 H 0.64704 0.76785 0.29287 0.0
H2923 H 0.66617 0.77372 0.27908 0.0
H2924 H 0.61209 0.78736 0.28506 0.0
H2925 H 0.64116 0.78 0.33143 0.0
H2926 H 0.64797 0.78813 0.31703 0.0
H2927 H 0.64671 0.77037 0.31737 0.0
C2928 C 0.64962 0.80317 0.27825 0.0
C2929 C 0.65974 0.7939 0.27555 0.0
C2930 C 0.63877 0.79983 0.28624 0.0
C2931 C 0.63779 0.78716 0.29181 0.0
C2932 C 0.6477 0.77777 0.2889 0.0
H2933 H 0.57967 0.75173 0.34545 0.0
H2934 H 0.59832 0.75577 0.33038 0.0
C2935 C 0.65856 0.7811 0.28088 0.0
C2936 C 0.62637 0.78384 0.30059 0.0
H2937 H 0.61827 0.77478 0.33228 0.0
C2938 C 0.61344 0.78462 0.29539 0.0
C2939 C 0.62813 0.78024 0.31407 0.0
C2940 C 0.64172 0.77973 0.32038 0.0
C2941 C 0.60225 0.7818 0.30325 0.0
C2942 C 0.604 0.77834 0.31677 0.0
C2943 C 0.61693 0.77743 0.32193 0.0
C2944 C 0.59254 0.77586 0.32578 0.0
C2945 C 0.58867 0.78233 0.29693 0.0
C2946 C 0.58315 0.78584 0.32835 0.0
C2947 C 0.57244 0.78355 0.33691 0.0
C2948 C 0.5709 0.77122 0.34317 0.0
C2949 C 0.58041 0.76127 0.34067 0.0
C2950 C 0.59113 0.76359 0.33211 0.0
H2951 H 0.58923 0.78144 0.28591 0.0
H2952 H 0.58217 0.77432 0.30073 0.0
H2953 H 0.58396 0.79199 0.2994 0.0
H2954 H 0.58414 0.79547 0.32379 0.0
H2955 H 0.56527 0.7914 0.33849 0.0
H2956 H 0.04884 0.10083 0.98268 0.0
H2957 H 0.04366 0.12007 0.96906 0.0
H2958 H 0.02966 0.14107 1.00389 0.0
H2959 H 0.03523 0.12199 0.01771 0.0
H2960 H 0.01962 0.1329 0.96489 0.0
H2961 H 0.05625 0.16717 0.98814 0.0
H2962 H 0.05665 0.14951 0.99073 0.0
H2963 H 0.0449 0.15967 0.9996 0.0
C2964 C 0.0448 0.10958 0.98751 0.0
C2965 C 0.04259 0.10986 1.00135 0.0
C2966 C 0.04175 0.12056 0.97966 0.0
C2967 C 0.03647 0.13212 0.98546 0.0
C2968 C 0.03397 0.13236 0.99922 0.0
H2969 H 0.01476 0.20882 0.95215 0.0
H2970 H 0.01851 0.1899 0.96673 0.0
C2971 C 0.03702 0.12137 1.00709 0.0
C2972 C 0.03353 0.14383 0.97702 0.0
H2973 H 0.04172 0.17631 0.97216 0.0
C2974 C 0.02446 0.14239 0.96647 0.0
C2975 C 0.03982 0.15623 0.9791 0.0
C2976 C 0.05004 0.15827 0.98992 0.0
C2977 C 0.02144 0.15301 0.95802 0.0
C2978 C 0.02784 0.16537 0.96 0.0
C2979 C 0.03681 0.16685 0.97064 0.0
C2980 C 0.02552 0.17684 0.95105 0.0
C2981 C 0.01123 0.15095 0.9472 0.0
C2982 C 0.02838 0.17588 0.93739 0.0
C2983 C 0.0263 0.18671 0.92902 0.0
C2984 C 0.02139 0.19879 0.93413 0.0
C2985 C 0.01867 0.19974 0.94786 0.0
C2986 C 0.02075 0.1889 0.95622 0.0
H2987 H 1.00464 0.1424 0.94933 0.0
H2988 H 1.00499 0.15993 0.94594 0.0
H2989 H 0.01638 0.14889 0.93764 0.0
H2990 H 0.03239 0.1668 0.93321 0.0
H2991 H 0.02875 0.18567 0.91857 0.0
H2992 H 0.36326 0.26386 0.25745 0.0
H2993 H 0.38148 0.26237 0.24145 0.0
H2994 H 0.38217 0.30495 0.2385 0.0
H2995 H 0.36424 0.30657 0.2549 0.0
H2996 H 0.38312 0.27079 0.21546 0.0
H2997 H 0.42085 0.29649 0.2467 0.0
H2998 H 0.40526 0.29073 0.25334 0.0
H2999 H 0.40593 0.30583 0.24402 0.0
C3000 C 0.36737 0.27294 0.25353 0.0
C3001 C 0.36234 0.28535 0.25761 0.0
C3002 C 0.37774 0.27206 0.24429 0.0
C3003 C 0.38337 0.28355 0.23892 0.0
C3004 C 0.37818 0.29595 0.2427 0.0
H3005 H 0.44893 0.2951 0.1831 0.0
H3006 H 0.42974 0.29815 0.19779 0.0
C3007 C 0.3678 0.29685 0.25197 0.0
C3008 C 0.39461 0.28246 0.22933 0.0
H3009 H 0.42717 0.29091 0.22467 0.0
C3010 C 0.39275 0.27518 0.21748 0.0
C3011 C 0.4072 0.28821 0.23195 0.0
C3012 C 0.41002 0.29566 0.24474 0.0
C3013 C 0.40306 0.27356 0.20817 0.0
C3014 C 0.41567 0.27919 0.21085 0.0
C3015 C 0.4175 0.2866 0.22261 0.0
C3016 C 0.42717 0.27728 0.20171 0.0
C3017 C 0.40032 0.26597 0.19544 0.0
C3018 C 0.43221 0.26454 0.19911 0.0
C3019 C 0.44315 0.26275 0.19069 0.0
C3020 C 0.44935 0.27368 0.1847 0.0
C3021 C 0.44431 0.28645 0.18737 0.0
C3022 C 0.43338 0.28822 0.19584 0.0
H3023 H 0.38951 0.2654 0.19327 0.0
H3024 H 0.4054 0.27061 0.18686 0.0
H3025 H 0.40411 0.2557 0.19642 0.0
H3026 H 0.42773 0.25596 0.2037 0.0
H3027 H 0.44669 0.25278 0.18879 0.0
H3028 H 0.5648 0.40268 0.02531 0.0
H3029 H 0.5595 0.38386 0.03948 0.0
H3030 H 0.51866 0.39651 0.04139 0.0
H3031 H 0.52389 0.41549 0.02732 0.0
H3032 H 0.5492 0.38471 0.06542 0.0
H3033 H 0.51547 0.35712 0.03125 0.0
H3034 H 0.52635 0.37013 0.02559 0.0
H3035 H 0.51115 0.37419 0.03406 0.0
C3036 C 0.55468 0.40151 0.02876 0.0
C3037 C 0.54478 0.41067 0.02517 0.0
C3038 C 0.55166 0.39069 0.03681 0.0
C3039 C 0.53866 0.38867 0.0414 0.0
C3040 C 0.52871 0.3977 0.03776 0.0
H3041 H 0.50303 0.32923 0.09289 0.0
H3042 H 0.50728 0.34813 0.07846 0.0
C3043 C 0.53172 0.40856 0.02969 0.0
C3044 C 0.5357 0.37743 0.05042 0.0
H3045 H 0.51743 0.34903 0.05322 0.0
C3046 C 0.54228 0.37688 0.06274 0.0
C3047 C 0.52661 0.36726 0.04696 0.0
C3048 C 0.51955 0.36708 0.0337 0.0
C3049 C 0.53994 0.36655 0.07173 0.0
C3050 C 0.53098 0.35627 0.0682 0.0
C3051 C 0.52431 0.35688 0.05592 0.0
C3052 C 0.52846 0.34478 0.07707 0.0
C3053 C 0.54688 0.36691 0.08505 0.0
C3054 C 0.53891 0.33647 0.08101 0.0
C3055 C 0.53654 0.32573 0.0894 0.0
C3056 C 0.52362 0.32293 0.09396 0.0
C3057 C 0.51314 0.33118 0.08981 0.0
C3058 C 0.51553 0.34195 0.08145 0.0
H3059 H 0.55018 0.3771 0.08774 0.0
H3060 H 0.54031 0.36321 0.09307 0.0
H3061 H 0.55582 0.3605 0.08458 0.0
H3062 H 0.54892 0.33826 0.07755 0.0
H3063 H 0.54488 0.31971 0.09244 0.0
H3064 H 0.66581 0.24802 0.25024 0.0
H3065 H 0.64652 0.25377 0.23657 0.0
H3066 H 0.63259 0.21346 0.23866 0.0
H3067 H 0.65158 0.20772 0.25261 0.0
H3068 H 0.63926 0.24317 0.21182 0.0
H3069 H 0.59956 0.23459 0.24897 0.0
H3070 H 0.61685 0.23606 0.25354 0.0
H3071 H 0.61055 0.22074 0.24677 0.0
C3072 C 0.65853 0.24042 0.24798 0.0
C3073 C 0.66027 0.2274 0.25257 0.0
C3074 C 0.64755 0.24371 0.24008 0.0
C3075 C 0.638 0.2341 0.23671 0.0
C3076 C 0.63969 0.22111 0.24131 0.0
H3077 H 0.56723 0.22964 0.18769 0.0
H3078 H 0.58626 0.22556 0.20222 0.0
C3079 C 0.65066 0.21781 0.24917 0.0
C3080 C 0.62654 0.23748 0.228 0.0
H3081 H 0.59261 0.23736 0.22651 0.0
C3082 C 0.62906 0.24201 0.21507 0.0
C3083 C 0.61322 0.23594 0.23222 0.0
C3084 C 0.60984 0.23169 0.24617 0.0
C3085 C 0.61865 0.24468 0.20613 0.0
C3086 C 0.60533 0.243 0.2103 0.0
C3087 C 0.60281 0.2386 0.22328 0.0
C3088 C 0.59385 0.24558 0.20131 0.0
C3089 C 0.62203 0.24887 0.19215 0.0
C3090 C 0.59168 0.25823 0.19603 0.0
C3091 C 0.58085 0.26058 0.18762 0.0
C3092 C 0.57188 0.25034 0.18435 0.0
C3093 C 0.57403 0.23771 0.18978 0.0
C3094 C 0.58486 0.23538 0.19819 0.0
H3095 H 0.63246 0.24641 0.18952 0.0
H3096 H 0.61532 0.24406 0.18478 0.0
H3097 H 0.62081 0.25976 0.19136 0.0
H3098 H 0.59833 0.26633 0.19848 0.0
H3099 H 0.57959 0.27041 0.18357 0.0
H3100 H 0.45735 0.12257 0.02202 0.0
H3101 H 0.46287 0.1417 0.03609 0.0
H3102 H 0.50102 0.12446 0.04486 0.0
H3103 H 0.49555 0.10524 0.03084 0.0
H3104 H 0.46873 0.14192 0.06304 0.0
H3105 H 0.51104 0.16207 0.03419 0.0
H3106 H 0.49969 0.14994 0.02733 0.0
H3107 H 0.51268 0.14492 0.03848 0.0
C3108 C 0.46692 0.12282 0.02694 0.0
C3109 C 0.476 0.11232 0.02528 0.0
C3110 C 0.47008 0.13381 0.03495 0.0
C3111 C 0.48242 0.13462 0.04143 0.0
C3112 C 0.49155 0.12422 0.03973 0.0
H3113 H 0.51708 0.19208 0.09692 0.0
H3114 H 0.51256 0.17293 0.08247 0.0
C3115 C 0.4884 0.11321 0.0317 0.0
C3116 C 0.48543 0.14609 0.05038 0.0
H3117 H 0.50696 0.17188 0.05535 0.0
C3118 C 0.47706 0.1485 0.06132 0.0
C3119 C 0.49634 0.15465 0.04819 0.0
C3120 C 0.5054 0.15288 0.03635 0.0
C3121 C 0.47937 0.15911 0.0702 0.0
C3122 C 0.49021 0.16774 0.06796 0.0
C3123 C 0.49865 0.16528 0.05707 0.0
C3124 C 0.49291 0.17941 0.07675 0.0
C3125 C 0.47033 0.16081 0.08207 0.0
C3126 C 0.48344 0.18953 0.07823 0.0
C3127 C 0.48595 0.20045 0.08657 0.0
C3128 C 0.49804 0.20156 0.09356 0.0
C3129 C 0.50758 0.19147 0.09189 0.0
C3130 C 0.50505 0.18055 0.08355 0.0
H3131 H 0.46495 0.1515 0.08439 0.0
H3132 H 0.47599 0.16401 0.09103 0.0
H3133 H 0.46282 0.16853 0.07986 0.0
H3134 H 0.4741 0.18902 0.07291 0.0
H3135 H 0.47832 0.20795 0.08767 0.0
H3136 H 0.29184 0.34985 0.7286 0.0
H3137 H 0.30555 0.36921 0.73375 0.0
H3138 H 0.27031 0.39229 0.74141 0.0
H3139 H 0.25647 0.37298 0.73614 0.0
H3140 H 0.3054 0.39366 0.72085 0.0
H3141 H 0.29317 0.39985 0.77446 0.0
H3142 H 0.28954 0.38482 0.76526 0.0
H3143 H 0.27908 0.39912 0.7635 0.0
C3144 C 0.28697 0.35904 0.73135 0.0
C3145 C 0.27301 0.35982 0.73191 0.0
C3146 C 0.29485 0.37009 0.73436 0.0
C3147 C 0.28899 0.38218 0.73811 0.0
C3148 C 0.27508 0.38301 0.73881 0.0
H3149 H 0.32185 0.46019 0.75722 0.0
H3150 H 0.3073 0.44114 0.75312 0.0
C3151 C 0.26717 0.37193 0.73579 0.0
C3152 C 0.29748 0.39401 0.74074 0.0
H3153 H 0.30629 0.41665 0.76472 0.0
C3154 C 0.30562 0.39867 0.73045 0.0
C3155 C 0.29771 0.40059 0.75325 0.0
C3156 C 0.2895 0.39581 0.76481 0.0
C3157 C 0.31388 0.40977 0.73227 0.0
C3158 C 0.31427 0.41626 0.74484 0.0
C3159 C 0.30603 0.41167 0.7551 0.0
C3160 C 0.32319 0.42777 0.74753 0.0
C3161 C 0.32191 0.41462 0.7206 0.0
C3162 C 0.337 0.42658 0.74599 0.0
C3163 C 0.34535 0.43746 0.74831 0.0
C3164 C 0.34009 0.44977 0.75238 0.0
C3165 C 0.32626 0.45085 0.7542 0.0
C3166 C 0.31791 0.43997 0.75181 0.0
H3167 H 0.31767 0.41112 0.71097 0.0
H3168 H 0.32241 0.42561 0.72052 0.0
H3169 H 0.33218 0.4107 0.72135 0.0
H3170 H 0.34136 0.41719 0.74306 0.0
H3171 H 0.35596 0.43619 0.74707 0.0
H3172 H 0.29225 0.67272 0.79909 0.0
H3173 H 0.30596 0.65338 0.79389 0.0
H3174 H 0.2707 0.62976 0.7882 0.0
H3175 H 0.25687 0.64906 0.79349 0.0
H3176 H 0.30686 0.62944 0.80726 0.0
H3177 H 0.29205 0.62138 0.75455 0.0
H3178 H 0.28853 0.63659 0.76349 0.0
H3179 H 0.27844 0.62214 0.76608 0.0
C3180 C 0.28737 0.66342 0.79676 0.0
C3181 C 0.27342 0.66248 0.79674 0.0
C3182 C 0.29525 0.65237 0.79372 0.0
C3183 C 0.28939 0.64013 0.7905 0.0
C3184 C 0.27546 0.63915 0.79037 0.0
H3185 H 0.32174 0.56157 0.77335 0.0
H3186 H 0.30734 0.58072 0.7774 0.0
C3187 C 0.26756 0.65021 0.7934 0.0
C3188 C 0.29789 0.62832 0.78783 0.0
H3189 H 0.30561 0.60487 0.76427 0.0
C3190 C 0.30662 0.6241 0.79784 0.0
C3191 C 0.29753 0.6213 0.77556 0.0
C3192 C 0.28873 0.62562 0.76424 0.0
C3193 C 0.31489 0.61301 0.79599 0.0
C3194 C 0.31462 0.60605 0.78368 0.0
C3195 C 0.30582 0.6102 0.77369 0.0
C3196 C 0.32345 0.59448 0.78098 0.0
C3197 C 0.32363 0.60867 0.80735 0.0
C3198 C 0.33732 0.59586 0.7814 0.0
C3199 C 0.3456 0.58494 0.77905 0.0
C3200 C 0.34019 0.57238 0.77611 0.0
C3201 C 0.32628 0.57109 0.77545 0.0
C3202 C 0.31801 0.58203 0.77783 0.0
H3203 H 0.32007 0.61267 0.81706 0.0
H3204 H 0.32407 0.5977 0.80794 0.0
H3205 H 0.33386 0.61242 0.80574 0.0
H3206 H 0.34177 0.60543 0.78349 0.0
H3207 H 0.35625 0.58639 0.77938 0.0
H3208 H 0.90023 0.51256 0.49377 0.0
H3209 H 0.88145 0.49842 0.49989 0.0
H3210 H 0.89841 0.4661 0.47725 0.0
H3211 H 0.91739 0.47995 0.47151 0.0
H3212 H 0.86314 0.48611 0.48345 0.0
H3213 H 0.89044 0.44849 0.51249 0.0
H3214 H 0.89772 0.46418 0.50803 0.0
H3215 H 0.89709 0.45078 0.4961 0.0
C3216 C 0.90008 0.50238 0.49027 0.0
C3217 C 0.91038 0.49742 0.48215 0.0
C3218 C 0.88928 0.49433 0.4937 0.0
C3219 C 0.88859 0.48112 0.4892 0.0
C3220 C 0.89882 0.47616 0.48108 0.0
H3221 H 0.83162 0.41678 0.49183 0.0
H3222 H 0.8506 0.43139 0.48803 0.0
C3223 C 0.90961 0.48418 0.47766 0.0
C3224 C 0.87695 0.47266 0.49254 0.0
H3225 H 0.86817 0.44312 0.50643 0.0
C3226 C 0.86423 0.47677 0.48858 0.0
C3227 C 0.87834 0.46044 0.49922 0.0
C3228 C 0.89162 0.45575 0.50433 0.0
C3229 C 0.85295 0.46885 0.49078 0.0
C3230 C 0.85438 0.45656 0.4973 0.0
C3231 C 0.86707 0.45251 0.50139 0.0
C3232 C 0.84285 0.44768 0.49983 0.0
C3233 C 0.83965 0.47354 0.48573 0.0
C3234 C 0.83225 0.45187 0.50792 0.0
C3235 C 0.8214 0.4435 0.51017 0.0
C3236 C 0.82092 0.43071 0.50445 0.0
C3237 C 0.83168 0.42648 0.49652 0.0
C3238 C 0.84253 0.43486 0.49428 0.0
H3239 H 0.84072 0.48142 0.47816 0.0
H3240 H 0.83391 0.4652 0.48129 0.0
H3241 H 0.83383 0.47768 0.49418 0.0
H3242 H 0.83241 0.46159 0.51257 0.0
H3243 H 0.81345 0.44702 0.51654 0.0
H3244 H 0.73775 0.85247 0.78787 0.0
H3245 H 0.72171 0.87056 0.78551 0.0
H3246 H 0.75351 0.89906 0.78823 0.0
H3247 H 0.76957 0.8811 0.79071 0.0
H3248 H 0.71591 0.8925 0.80222 0.0
H3249 H 0.73508 0.90881 0.75327 0.0
H3250 H 0.73948 0.89307 0.76043 0.0
H3251 H 0.7475 0.90802 0.76607 0.0
C3252 C 0.74133 0.86259 0.78812 0.0
C3253 C 0.755 0.86529 0.78935 0.0
C3254 C 0.73214 0.87292 0.7867 0.0
C3255 C 0.73642 0.88616 0.78643 0.0
C3256 C 0.75 0.88891 0.78807 0.0
H3257 H 0.69951 0.96314 0.77668 0.0
H3258 H 0.71456 0.94446 0.78007 0.0
C3259 C 0.75918 0.87861 0.78948 0.0
C3260 C 0.72674 0.89712 0.7844 0.0
H3261 H 0.71922 0.9228 0.76377 0.0
C3262 C 0.71657 0.89908 0.79377 0.0
C3263 C 0.72761 0.90571 0.77337 0.0
C3264 C 0.73792 0.90376 0.76263 0.0
C3265 C 0.70748 0.9096 0.79261 0.0
C3266 C 0.70841 0.91825 0.78163 0.0
C3267 C 0.71852 0.91621 0.7722 0.0
C3268 C 0.69911 0.92957 0.77976 0.0
C3269 C 0.69718 0.91157 0.80336 0.0
C3270 C 0.68539 0.92744 0.7783 0.0
C3271 C 0.67674 0.93812 0.77631 0.0
C3272 C 0.68163 0.95117 0.77561 0.0
C3273 C 0.69539 0.95324 0.77699 0.0
C3274 C 0.70402 0.94256 0.77901 0.0
H3275 H 0.69995 0.90641 0.81268 0.0
H3276 H 0.69575 0.92226 0.80565 0.0
H3277 H 0.68755 0.90746 0.79987 0.0
H3278 H 0.68138 0.91749 0.77851 0.0
H3279 H 0.66625 0.93611 0.77506 0.0
H3280 H 0.62341 0.50831 0.97675 0.0
H3281 H 0.64296 0.52198 0.9817 0.0
H3282 H 0.6175 0.55475 0.99232 0.0
H3283 H 0.59794 0.54108 0.98773 0.0
H3284 H 0.65023 0.54585 0.9697 0.0
H3285 H 0.64294 0.55306 0.02402 0.0
H3286 H 0.63427 0.54043 0.01457 0.0
H3287 H 0.62872 0.55735 0.01416 0.0
C3288 C 0.62196 0.51836 0.98035 0.0
C3289 C 0.60907 0.52357 0.98186 0.0
C3290 C 0.63315 0.52619 0.98309 0.0
C3291 C 0.63171 0.53935 0.98754 0.0
C3292 C 0.61888 0.54456 0.98912 0.0
H3293 H 0.68476 0.60507 1.00547 0.0
H3294 H 0.66578 0.59034 1.00175 0.0
C3295 C 0.60769 0.53676 0.98635 0.0
C3296 C 0.64361 0.5478 0.99 0.0
H3297 H 0.65939 0.56646 0.0138 0.0
C3298 C 0.65229 0.55028 0.97937 0.0
C3299 C 0.64627 0.55363 1.0026 0.0
C3300 C 0.63764 0.55091 0.01454 0.0
C3301 C 0.66337 0.55865 0.98091 0.0
C3302 C 0.66601 0.56453 0.9935 0.0
C3303 C 0.65736 0.56199 1.00415 0.0
C3304 C 0.67763 0.57341 0.99582 0.0
C3305 C 0.67194 0.56143 0.96894 0.0
C3306 C 0.69064 0.56877 0.9939 0.0
C3307 C 0.70153 0.57716 0.99606 0.0
C3308 C 0.69966 0.59038 1.00028 0.0
C3309 C 0.6866 0.59493 1.00235 0.0
C3310 C 0.67572 0.58653 1.00017 0.0
H3311 H 0.66669 0.55909 0.95947 0.0
H3312 H 0.67508 0.57198 0.9688 0.0
H3313 H 0.68099 0.55518 0.96937 0.0
H3314 H 0.6924 0.55859 0.99086 0.0
H3315 H 0.71143 0.57321 0.99462 0.0
H3316 H 0.24804 0.66193 0.26228 0.0
H3317 H 0.23249 0.64343 0.26405 0.0
H3318 H 0.23898 0.63352 0.22272 0.0
H3319 H 0.25491 0.65176 0.22096 0.0
H3320 H 0.20908 0.63816 0.25047 0.0
H3321 H 0.24601 0.59831 0.24106 0.0
H3322 H 0.25079 0.61519 0.24477 0.0
H3323 H 0.24525 0.61065 0.22833 0.0
C3324 C 0.24628 0.65575 0.25358 0.0
C3325 C 0.25286 0.65829 0.2415 0.0
C3326 C 0.2373 0.64522 0.2546 0.0
C3327 C 0.23472 0.63692 0.24359 0.0
C3328 C 0.241 0.63961 0.23143 0.0
H3329 H 0.18425 0.56728 0.23276 0.0
H3330 H 0.19921 0.5861 0.22968 0.0
C3331 C 0.24999 0.65016 0.23039 0.0
C3332 C 0.22542 0.62552 0.2449 0.0
H3333 H 0.22349 0.59174 0.24258 0.0
C3334 C 0.21224 0.62801 0.24876 0.0
C3335 C 0.22953 0.61226 0.24268 0.0
C3336 C 0.24369 0.60888 0.2391 0.0
C3337 C 0.20305 0.61765 0.25032 0.0
C3338 C 0.20718 0.60439 0.24817 0.0
C3339 C 0.22033 0.6019 0.24421 0.0
C3340 C 0.19806 0.59296 0.25012 0.0
C3341 C 0.18892 0.62099 0.25404 0.0
C3342 C 0.19257 0.59041 0.26268 0.0
C3343 C 0.18408 0.57958 0.26452 0.0
C3344 C 0.18092 0.571 0.25383 0.0
C3345 C 0.18656 0.57354 0.24127 0.0
C3346 C 0.19506 0.58436 0.23946 0.0
H3347 H 0.18651 0.63151 0.25195 0.0
H3348 H 0.18179 0.61455 0.24855 0.0
H3349 H 0.1875 0.61935 0.26485 0.0
H3350 H 0.19497 0.59672 0.27113 0.0
H3351 H 0.18018 0.57781 0.27438 0.0
H3352 H 0.92031 0.54266 0.05138 0.0
H3353 H 0.90103 0.55634 0.04603 0.0
H3354 H 0.87921 0.52138 0.03426 0.0
H3355 H 0.89831 0.50755 0.04001 0.0
H3356 H 0.88755 0.55943 0.02218 0.0
H3357 H 0.85399 0.53909 0.06078 0.0
H3358 H 0.87167 0.53613 0.06081 0.0
H3359 H 0.86103 0.52687 0.04975 0.0
C3360 C 0.91137 0.53783 0.04779 0.0
C3361 C 0.91086 0.52395 0.04626 0.0
C3362 C 0.90038 0.5457 0.04465 0.0
C3363 C 0.88858 0.53989 0.03995 0.0
C3364 C 0.88811 0.52608 0.03812 0.0
H3365 H 0.81156 0.57296 0.018 0.0
H3366 H 0.83056 0.55843 0.02204 0.0
C3367 C 0.89911 0.51819 0.04126 0.0
C3368 C 0.87686 0.54835 0.03691 0.0
H3369 H 0.84453 0.5542 0.04559 0.0
C3370 C 0.87815 0.5583 0.02731 0.0
C3371 C 0.86457 0.54687 0.0436 0.0
C3372 C 0.86271 0.53675 0.0544 0.0
C3373 C 0.86749 0.5667 0.02413 0.0
C3374 C 0.85525 0.56529 0.03089 0.0
C3375 C 0.85391 0.55527 0.0404 0.0
C3376 C 0.84375 0.57421 0.02836 0.0
C3377 C 0.86938 0.57687 0.01338 0.0
C3378 C 0.84475 0.58791 0.03073 0.0
C3379 C 0.83387 0.59625 0.0285 0.0
C3380 C 0.82169 0.59107 0.02392 0.0
C3381 C 0.8207 0.5773 0.02167 0.0
C3382 C 0.83159 0.56897 0.0239 0.0
H3383 H 0.87787 0.57433 1.00677 0.0
H3384 H 0.86029 0.57781 1.00719 0.0
H3385 H 0.87146 0.58665 0.01807 0.0
H3386 H 0.85392 0.59215 0.03448 0.0
H3387 H 0.83495 0.60674 0.0306 0.0
H3388 H 0.10198 0.98178 0.05905 0.0
H3389 H 0.12122 0.96795 0.05384 0.0
H3390 H 0.13786 0.99943 0.03043 0.0
H3391 H 0.11883 0.01355 0.03598 0.0
H3392 H 0.13068 0.95912 0.02953 0.0
H3393 H 0.16859 0.99023 0.0551 0.0
H3394 H 0.151 0.99253 0.05766 0.0
H3395 H 0.15884 0.99881 0.04294 0.0
C3396 C 0.1098 0.98587 0.05293 0.0
C3397 C 0.10888 0.99887 0.04806 0.0
C3398 C 0.12076 0.97788 0.04988 0.0
C3399 C 0.13111 0.98269 0.04192 0.0
C3400 C 0.13013 0.99557 0.03681 0.0
H3401 H 0.20578 0.94714 0.01524 0.0
H3402 H 0.18669 0.96172 0.01888 0.0
C3403 C 0.11916 1.00359 0.03987 0.0
C3404 C 0.1428 0.97412 0.03889 0.0
H3405 H 0.17648 0.97183 0.04265 0.0
C3406 C 0.14069 0.9619 0.03241 0.0
C3407 C 0.15589 0.97774 0.04262 0.0
C3408 C 0.15876 0.99048 0.05007 0.0
C3409 C 0.15128 0.95326 0.02949 0.0
C3410 C 0.16434 0.95682 0.03335 0.0
C3411 C 0.16648 0.9691 0.03969 0.0
C3412 C 0.1759 0.94785 0.03108 0.0
C3413 C 0.14841 0.94049 0.0221 0.0
C3414 C 0.17629 0.93524 0.03687 0.0
C3415 C 0.18723 0.92689 0.03486 0.0
C3416 C 0.19809 0.93098 0.02708 0.0
C3417 C 0.19769 0.94368 0.02139 0.0
C3418 C 0.18674 0.95203 0.02341 0.0
H3419 H 0.13878 0.94093 0.01669 0.0
H3420 H 0.1564 0.93814 0.01484 0.0
H3421 H 0.14782 0.93227 0.02933 0.0
H3422 H 0.1682 0.93191 0.04309 0.0
H3423 H 0.18728 0.91731 0.03961 0.0
loop_
_geom_bond_atom_site_label_1
_geom_bond_atom_site_label_2
_geom_bond_distance
_geom_bond_site_symmetry_2
_ccdc_geom_bond_type
C0 C1 1.264 . S
C0 C5 1.479 1_455 S
C0 C10 1.465 . S
C1 C0 1.264 . S
C1 C3 1.339 1_455 S
C1 H28 0.931 . S
C2 C3 1.395 . S
C2 C4 1.320 . S
C3 C1 1.339 1_655 S
C3 C2 1.395 . S
C3 H29 0.924 1_655 S
C4 C2 1.320 . S
C4 C5 1.405 . S
C4 H30 0.930 . S
C5 C0 1.479 1_655 S
C5 C4 1.405 . S
C5 H31 0.931 . S
U6 O7 2.454 . S
U6 O8 2.458 . S
U6 C9 2.984 . S
U6 C10 2.847 . S
U6 C23 2.882 . S
U6 O24 2.441 . S
U6 O25 2.420 . S
U6 O26 2.455 . S
U6 O27 2.449 . S
O7 U6 2.454 . S
O7 C9 1.353 . S
O8 U6 2.458 . S
O8 C9 1.286 . S
C9 U6 2.984 . S
C9 O7 1.353 . S
C9 O8 1.286 . S
C9 C11 1.363 . S
C10 C0 1.465 . S
C10 U6 2.847 . S
C10 O24 1.249 . S
C10 O25 1.202 . S
C11 C9 1.363 . S
C11 C13 1.408 . S
C11 C16 1.342 1_554 S
C12 C13 1.310 . S
C12 C15 1.461 1_554 S
C12 H32 0.932 . S
C13 C11 1.408 . S
C13 C12 1.310 . S
C13 H33 0.930 . S
C14 C15 1.474 . S
C14 C16 1.285 . S
C14 H34 0.929 . S
C15 C12 1.461 1_556 S
C15 C14 1.474 . S
C16 C11 1.342 1_556 S
C16 C14 1.285 . S
C16 H35 0.930 . S
C17 C20 1.424 1_545 S
C17 C22 1.245 . S
C17 C23 1.428 . S
C18 C21 1.260 . S
C18 C22 1.477 1_565 S
C18 H36 0.932 . S
C19 C20 1.384 . S
C19 C21 1.479 . S
C19 H37 0.929 . S
C20 C17 1.424 1_565 S
C20 C19 1.384 . S
C20 H38 0.928 . S
C21 C18 1.260 . S
C21 C19 1.479 . S
C22 C17 1.245 . S
C22 C18 1.477 1_545 S
C22 H39 0.932 . S
C23 U6 2.882 . S
C23 C17 1.428 . S
C23 O26 1.301 . S
C23 O27 1.282 . S
O24 U6 2.441 . S
O24 C10 1.249 . S
O25 U6 2.420 . S
O25 C10 1.202 . S
O26 U6 2.455 . S
O26 C23 1.301 . S
O27 U6 2.449 . S
O27 C23 1.282 . S
H28 C1 0.931 . S
H29 C3 0.924 1_455 S
H30 C4 0.930 . S
H31 C5 0.931 . S
H32 C12 0.932 . S
H33 C13 0.930 . S
H34 C14 0.929 . S
H35 C16 0.930 . S
H36 C18 0.932 . S
H37 C19 0.929 . S
H38 C20 0.928 . S
H39 C22 0.932 . S
C40 C41 1.264 . S
C40 C45 1.479 . S
C40 C50 1.465 . S
C41 C40 1.264 . S
C41 C43 1.339 . S
C41 H68 0.931 . S
C42 C43 1.395 . S
C42 C44 1.320 . S
C43 C41 1.339 . S
C43 C42 1.395 . S
C43 H69 0.929 . S
C44 C42 1.320 . S
C44 C45 1.405 . S
C44 H70 0.930 . S
C45 C40 1.479 . S
C45 C44 1.405 . S
C45 H71 0.931 . S
U46 O47 2.454 . S
U46 O48 2.458 . S
U46 C49 2.984 . S
U46 C50 2.847 . S
U46 C63 2.882 . S
U46 O64 2.441 . S
U46 O65 2.420 . S
U46 O66 2.455 . S
U46 O67 2.449 . S
O47 U46 2.454 . S
O47 C49 1.353 . S
O48 U46 2.458 . S
O48 C49 1.286 . S
C49 U46 2.984 . S
C49 O47 1.353 . S
C49 O48 1.286 . S
C49 C51 1.363 . S
C50 C40 1.465 . S
C50 U46 2.847 . S
C50 O64 1.249 . S
C50 O65 1.202 . S
C51 C49 1.363 . S
C51 C53 1.408 . S
C51 C56 1.342 . S
C52 C53 1.310 . S
C52 C55 1.461 . S
C52 H72 0.932 . S
C53 C51 1.408 . S
C53 C52 1.310 . S
C53 H73 0.930 . S
C54 C55 1.474 . S
C54 C56 1.285 . S
C54 H74 0.929 . S
C55 C52 1.461 . S
C55 C54 1.474 . S
C56 C51 1.342 . S
C56 C54 1.285 . S
C56 H75 0.930 . S
C57 C60 1.424 . S
C57 C62 1.245 . S
C57 C63 1.428 . S
C58 C61 1.260 . S
C58 C62 1.477 . S
C58 H76 0.932 . S
C59 C60 1.384 . S
C59 C61 1.479 . S
C59 H77 0.929 . S
C60 C57 1.424 . S
C60 C59 1.384 . S
C60 H78 0.928 . S
C61 C58 1.260 . S
C61 C59 1.479 . S
C62 C57 1.245 . S
C62 C58 1.477 . S
C62 H79 0.932 . S
C63 U46 2.882 . S
C63 C57 1.428 . S
C63 O66 1.301 . S
C63 O67 1.282 . S
O64 U46 2.441 . S
O64 C50 1.249 . S
O65 U46 2.420 . S
O65 C50 1.202 . S
O66 U46 2.455 . S
O66 C63 1.301 . S
O67 U46 2.449 . S
O67 C63 1.282 . S
H68 C41 0.931 . S
H69 C43 0.929 . S
H70 C44 0.930 . S
H71 C45 0.931 . S
H72 C52 0.932 . S
H73 C53 0.930 . S
H74 C54 0.929 . S
H75 C56 0.930 . S
H76 C58 0.932 . S
H77 C59 0.929 . S
H78 C60 0.928 . S
H79 C62 0.932 . S
C80 C81 1.264 . S
C80 C85 1.479 1_554 S
C80 C90 1.465 . S
C81 C80 1.264 . S
C81 C83 1.305 1_554 S
C81 H108 0.931 . S
C82 C83 1.443 . S
C82 C84 1.320 . S
C83 C81 1.305 1_556 S
C83 C82 1.443 . S
C83 H109 0.914 1_556 S
C84 C82 1.320 . S
C84 C85 1.405 . S
C84 H110 0.930 . S
C85 C80 1.479 1_556 S
C85 C84 1.405 . S
C85 H111 0.931 . S
U86 O87 2.454 . S
U86 O88 2.458 . S
U86 C89 2.984 . S
U86 C90 2.847 . S
U86 C103 2.882 . S
U86 O104 2.441 . S
U86 O105 2.420 . S
U86 O106 2.455 . S
U86 O107 2.449 . S
O87 U86 2.454 . S
O87 C89 1.353 . S
O88 U86 2.458 . S
O88 C89 1.286 . S
C89 U86 2.984 . S
C89 O87 1.353 . S
C89 O88 1.286 . S
C89 C91 1.363 . S
C90 C80 1.465 . S
C90 U86 2.847 . S
C90 O104 1.249 . S
C90 O105 1.202 . S
C91 C89 1.363 . S
C91 C93 1.408 . S
C91 C96 1.342 . S
C92 C93 1.310 . S
C92 C95 1.461 . S
C92 H112 0.932 . S
C93 C91 1.408 . S
C93 C92 1.310 . S
C93 H113 0.930 . S
C94 C95 1.474 . S
C94 C96 1.285 . S
C94 H114 0.929 . S
C95 C92 1.461 . S
C95 C94 1.474 . S
C96 C91 1.342 . S
C96 C94 1.285 . S
C96 H115 0.930 . S
C97 C100 1.424 1_655 S
C97 C102 1.245 . S
C97 C103 1.428 . S
C98 C101 1.260 . S
C98 C102 1.477 1_455 S
C98 H116 0.932 . S
C99 C100 1.384 . S
C99 C101 1.479 . S
C99 H117 0.929 . S
C100 C97 1.424 1_455 S
C100 C99 1.384 . S
C100 H118 0.928 . S
C101 C98 1.260 . S
C101 C99 1.479 . S
C102 C97 1.245 . S
C102 C98 1.477 1_655 S
C102 H119 0.932 . S
C103 U86 2.882 . S
C103 C97 1.428 . S
C103 O106 1.301 . S
C103 O107 1.282 . S
O104 U86 2.441 . S
O104 C90 1.249 . S
O105 U86 2.420 . S
O105 C90 1.202 . S
O106 U86 2.455 . S
O106 C103 1.301 . S
O107 U86 2.449 . S
O107 C103 1.282 . S
H108 C81 0.931 . S
H109 C83 0.914 1_554 S
H110 C84 0.930 . S
H111 C85 0.931 . S
H112 C92 0.932 . S
H113 C93 0.930 . S
H114 C94 0.929 . S
H115 C96 0.930 . S
H116 C98 0.932 . S
H117 C99 0.929 . S
H118 C100 0.928 . S
H119 C102 0.932 . S
C120 C121 1.264 . S
C120 C125 1.479 . S
C120 C130 1.465 . S
C121 C120 1.264 . S
C121 C123 1.339 . S
C121 H148 0.931 . S
C122 C123 1.395 . S
C122 C124 1.320 . S
C123 C121 1.339 . S
C123 C122 1.395 . S
C123 H149 0.929 . S
C124 C122 1.320 . S
C124 C125 1.405 . S
C124 H150 0.930 . S
C125 C120 1.479 . S
C125 C124 1.405 . S
C125 H151 0.931 . S
U126 O127 2.454 . S
U126 O128 2.458 . S
U126 C129 2.984 . S
U126 C130 2.847 . S
U126 C143 2.882 . S
U126 O144 2.441 . S
U126 O145 2.420 . S
U126 O146 2.455 . S
U126 O147 2.449 . S
O127 U126 2.454 . S
O127 C129 1.353 . S
O128 U126 2.458 . S
O128 C129 1.286 . S
C129 U126 2.984 . S
C129 O127 1.353 . S
C129 O128 1.286 . S
C129 C131 1.363 . S
C130 C120 1.465 . S
C130 U126 2.847 . S
C130 O144 1.249 . S
C130 O145 1.202 . S
C131 C129 1.363 . S
C131 C133 1.408 . S
C131 C136 1.342 . S
C132 C133 1.310 . S
C132 C135 1.461 . S
C132 H152 0.932 . S
C133 C131 1.408 . S
C133 C132 1.310 . S
C133 H153 0.930 . S
C134 C135 1.474 . S
C134 C136 1.285 . S
C134 H154 0.929 . S
C135 C132 1.461 . S
C135 C134 1.474 . S
C136 C131 1.342 . S
C136 C134 1.285 . S
C136 H155 0.930 . S
C137 C140 1.424 . S
C137 C142 1.245 . S
C137 C143 1.428 . S
C138 C141 1.260 . S
C138 C142 1.477 . S
C138 H156 0.932 . S
C139 C140 1.384 . S
C139 C141 1.479 . S
C139 H157 0.929 . S
C140 C137 1.424 . S
C140 C139 1.384 . S
C140 H158 0.928 . S
C141 C138 1.260 . S
C141 C139 1.479 . S
C142 C137 1.245 . S
C142 C138 1.477 . S
C142 H159 0.932 . S
C143 U126 2.882 . S
C143 C137 1.428 . S
C143 O146 1.301 . S
C143 O147 1.282 . S
O144 U126 2.441 . S
O144 C130 1.249 . S
O145 U126 2.420 . S
O145 C130 1.202 . S
O146 U126 2.455 . S
O146 C143 1.301 . S
O147 U126 2.449 . S
O147 C143 1.282 . S
H148 C121 0.931 . S
H149 C123 0.929 . S
H150 C124 0.930 . S
H151 C125 0.931 . S
H152 C132 0.932 . S
H153 C133 0.930 . S
H154 C134 0.929 . S
H155 C136 0.930 . S
H156 C138 0.932 . S
H157 C139 0.929 . S
H158 C140 0.928 . S
H159 C142 0.932 . S
C160 C161 1.264 . S
C160 C165 1.479 1_455 S
C160 C170 1.465 . S
C161 C160 1.264 . S
C161 C163 1.339 1_455 S
C161 H188 0.931 . S
C162 C163 1.395 . S
C162 C164 1.320 . S
C163 C161 1.339 1_655 S
C163 C162 1.395 . S
C163 H189 0.924 1_655 S
C164 C162 1.320 . S
C164 C165 1.405 . S
C164 H190 0.930 . S
C165 C160 1.479 1_655 S
C165 C164 1.405 . S
C165 H191 0.931 . S
U166 O167 2.454 . S
U166 O168 2.458 . S
U166 C169 2.984 . S
U166 C170 2.847 . S
U166 C183 2.882 . S
U166 O184 2.441 . S
U166 O185 2.420 . S
U166 O186 2.455 . S
U166 O187 2.449 . S
O167 U166 2.454 . S
O167 C169 1.353 . S
O168 U166 2.458 . S
O168 C169 1.286 . S
C169 U166 2.984 . S
C169 O167 1.353 . S
C169 O168 1.286 . S
C169 C171 1.363 . S
C170 C160 1.465 . S
C170 U166 2.847 . S
C170 O184 1.249 . S
C170 O185 1.202 . S
C171 C169 1.363 . S
C171 C173 1.408 . S
C171 C176 1.342 . S
C172 C173 1.310 . S
C172 C175 1.461 . S
C172 H192 0.932 . S
C173 C171 1.408 . S
C173 C172 1.310 . S
C173 H193 0.930 . S
C174 C175 1.474 . S
C174 C176 1.285 . S
C174 H194 0.929 . S
C175 C172 1.461 . S
C175 C174 1.474 . S
C176 C171 1.342 . S
C176 C174 1.285 . S
C176 H195 0.930 . S
C177 C180 1.424 1_565 S
C177 C182 1.245 . S
C177 C183 1.428 . S
C178 C181 1.260 . S
C178 C182 1.477 1_545 S
C178 H196 0.932 . S
C179 C180 1.384 . S
C179 C181 1.479 . S
C179 H197 0.929 . S
C180 C177 1.424 1_545 S
C180 C179 1.384 . S
C180 H198 0.928 . S
C181 C178 1.260 . S
C181 C179 1.479 . S
C182 C177 1.245 . S
C182 C178 1.477 1_565 S
C182 H199 0.932 . S
C183 U166 2.882 . S
C183 C177 1.428 . S
C183 O186 1.301 . S
C183 O187 1.282 . S
O184 U166 2.441 . S
O184 C170 1.249 . S
O185 U166 2.420 . S
O185 C170 1.202 . S
O186 U166 2.455 . S
O186 C183 1.301 . S
O187 U166 2.449 . S
O187 C183 1.282 . S
H188 C161 0.931 . S
H189 C163 0.924 1_455 S
H190 C164 0.930 . S
H191 C165 0.931 . S
H192 C172 0.932 . S
H193 C173 0.930 . S
H194 C174 0.929 . S
H195 C176 0.930 . S
H196 C178 0.932 . S
H197 C179 0.929 . S
H198 C180 0.928 . S
H199 C182 0.932 . S
C200 C201 1.264 . S
C200 C205 1.479 . S
C200 C210 1.465 . S
C201 C200 1.264 . S
C201 C203 1.339 . S
C201 H228 0.931 . S
C202 C203 1.395 . S
C202 C204 1.320 . S
C203 C201 1.339 . S
C203 C202 1.395 . S
C203 H229 0.929 . S
C204 C202 1.320 . S
C204 C205 1.405 . S
C204 H230 0.930 . S
C205 C200 1.479 . S
C205 C204 1.405 . S
C205 H231 0.931 . S
U206 O207 2.454 . S
U206 O208 2.458 . S
U206 C209 2.984 . S
U206 C210 2.847 . S
U206 C223 2.882 . S
U206 O224 2.441 . S
U206 O225 2.420 . S
U206 O226 2.455 . S
U206 O227 2.449 . S
O207 U206 2.454 . S
O207 C209 1.353 . S
O208 U206 2.458 . S
O208 C209 1.286 . S
C209 U206 2.984 . S
C209 O207 1.353 . S
C209 O208 1.286 . S
C209 C211 1.363 . S
C210 C200 1.465 . S
C210 U206 2.847 . S
C210 O224 1.249 . S
C210 O225 1.202 . S
C211 C209 1.363 . S
C211 C213 1.408 . S
C211 C216 1.342 . S
C212 C213 1.310 . S
C212 C215 1.461 . S
C212 H232 0.932 . S
C213 C211 1.408 . S
C213 C212 1.310 . S
C213 H233 0.930 . S
C214 C215 1.474 . S
C214 C216 1.285 . S
C214 H234 0.929 . S
C215 C212 1.461 . S
C215 C214 1.474 . S
C216 C211 1.342 . S
C216 C214 1.285 . S
C216 H235 0.930 . S
C217 C220 1.424 . S
C217 C222 1.245 . S
C217 C223 1.428 . S
C218 C221 1.260 . S
C218 C222 1.477 . S
C218 H236 0.932 . S
C219 C220 1.384 . S
C219 C221 1.479 . S
C219 H237 0.929 . S
C220 C217 1.424 . S
C220 C219 1.384 . S
C220 H238 0.928 . S
C221 C218 1.260 . S
C221 C219 1.479 . S
C222 C217 1.245 . S
C222 C218 1.477 . S
C222 H239 0.932 . S
C223 U206 2.882 . S
C223 C217 1.428 . S
C223 O226 1.301 . S
C223 O227 1.282 . S
O224 U206 2.441 . S
O224 C210 1.249 . S
O225 U206 2.420 . S
O225 C210 1.202 . S
O226 U206 2.455 . S
O226 C223 1.301 . S
O227 U206 2.449 . S
O227 C223 1.282 . S
H228 C201 0.931 . S
H229 C203 0.929 . S
H230 C204 0.930 . S
H231 C205 0.931 . S
H232 C212 0.932 . S
H233 C213 0.930 . S
H234 C214 0.929 . S
H235 C216 0.930 . S
H236 C218 0.932 . S
H237 C219 0.929 . S
H238 C220 0.928 . S
H239 C222 0.932 . S
C240 C241 1.264 . S
C240 C245 1.479 . S
C240 C250 1.465 . S
C241 C240 1.264 . S
C241 C243 1.339 . S
C241 H268 0.931 . S
C242 C243 1.395 . S
C242 C244 1.320 . S
C243 C241 1.339 . S
C243 C242 1.395 . S
C243 H269 0.929 . S
C244 C242 1.320 . S
C244 C245 1.405 . S
C244 H270 0.930 . S
C245 C240 1.479 . S
C245 C244 1.405 . S
C245 H271 0.931 . S
U246 O247 2.454 . S
U246 O248 2.458 . S
U246 C249 2.984 . S
U246 C250 2.847 . S
U246 C263 2.882 . S
U246 O264 2.441 . S
U246 O265 2.420 . S
U246 O266 2.455 . S
U246 O267 2.449 . S
O247 U246 2.454 . S
O247 C249 1.353 . S
O248 U246 2.458 . S
O248 C249 1.286 . S
C249 U246 2.984 . S
C249 O247 1.353 . S
C249 O248 1.286 . S
C249 C251 1.363 . S
C250 C240 1.465 . S
C250 U246 2.847 . S
C250 O264 1.249 . S
C250 O265 1.202 . S
C251 C249 1.363 . S
C251 C253 1.408 . S
C251 C256 1.342 . S
C252 C253 1.310 . S
C252 C255 1.461 . S
C252 H272 0.932 . S
C253 C251 1.408 . S
C253 C252 1.310 . S
C253 H273 0.930 . S
C254 C255 1.474 . S
C254 C256 1.285 . S
C254 H274 0.929 . S
C255 C252 1.461 . S
C255 C254 1.474 . S
C256 C251 1.342 . S
C256 C254 1.285 . S
C256 H275 0.930 . S
C257 C260 1.424 1_655 S
C257 C262 1.245 . S
C257 C263 1.428 . S
C258 C261 1.260 . S
C258 C262 1.477 1_455 S
C258 H276 0.932 . S
C259 C260 1.384 . S
C259 C261 1.479 . S
C259 H277 0.929 . S
C260 C257 1.424 1_455 S
C260 C259 1.384 . S
C260 H278 0.928 . S
C261 C258 1.260 . S
C261 C259 1.479 . S
C262 C257 1.245 . S
C262 C258 1.477 1_655 S
C262 H279 0.932 . S
C263 U246 2.882 . S
C263 C257 1.428 . S
C263 O266 1.301 . S
C263 O267 1.282 . S
O264 U246 2.441 . S
O264 C250 1.249 . S
O265 U246 2.420 . S
O265 C250 1.202 . S
O266 U246 2.455 . S
O266 C263 1.301 . S
O267 U246 2.449 . S
O267 C263 1.282 . S
H268 C241 0.931 . S
H269 C243 0.929 . S
H270 C244 0.930 . S
H271 C245 0.931 . S
H272 C252 0.932 . S
H273 C253 0.930 . S
H274 C254 0.929 . S
H275 C256 0.930 . S
H276 C258 0.932 . S
H277 C259 0.929 . S
H278 C260 0.928 . S
H279 C262 0.932 . S
C280 C281 1.264 . S
C280 C285 1.479 . S
C280 C290 1.465 . S
C281 C280 1.264 . S
C281 C283 1.339 . S
C281 H308 0.931 . S
C282 C283 1.395 . S
C282 C284 1.320 . S
C283 C281 1.339 . S
C283 C282 1.395 . S
C283 H309 0.929 . S
C284 C282 1.320 . S
C284 C285 1.405 . S
C284 H310 0.930 . S
C285 C280 1.479 . S
C285 C284 1.405 . S
C285 H311 0.931 . S
U286 O287 2.454 . S
U286 O288 2.458 . S
U286 C289 2.984 . S
U286 C290 2.847 . S
U286 C303 2.882 . S
U286 O304 2.441 . S
U286 O305 2.420 . S
U286 O306 2.455 . S
U286 O307 2.449 . S
O287 U286 2.454 . S
O287 C289 1.353 . S
O288 U286 2.458 . S
O288 C289 1.286 . S
C289 U286 2.984 . S
C289 O287 1.353 . S
C289 O288 1.286 . S
C289 C291 1.363 . S
C290 C280 1.465 . S
C290 U286 2.847 . S
C290 O304 1.249 . S
C290 O305 1.202 . S
C291 C289 1.363 . S
C291 C293 1.408 . S
C291 C296 1.342 . S
C292 C293 1.310 . S
C292 C295 1.461 . S
C292 H312 0.932 . S
C293 C291 1.408 . S
C293 C292 1.310 . S
C293 H313 0.930 . S
C294 C295 1.474 . S
C294 C296 1.285 . S
C294 H314 0.929 . S
C295 C292 1.461 . S
C295 C294 1.474 . S
C296 C291 1.342 . S
C296 C294 1.285 . S
C296 H315 0.930 . S
C297 C300 1.424 . S
C297 C302 1.245 . S
C297 C303 1.428 . S
C298 C301 1.260 . S
C298 C302 1.477 . S
C298 H316 0.932 . S
C299 C300 1.384 . S
C299 C301 1.479 . S
C299 H317 0.929 . S
C300 C297 1.424 . S
C300 C299 1.384 . S
C300 H318 0.928 . S
C301 C298 1.260 . S
C301 C299 1.479 . S
C302 C297 1.245 . S
C302 C298 1.477 . S
C302 H319 0.932 . S
C303 U286 2.882 . S
C303 C297 1.428 . S
C303 O306 1.301 . S
C303 O307 1.282 . S
O304 U286 2.441 . S
O304 C290 1.249 . S
O305 U286 2.420 . S
O305 C290 1.202 . S
O306 U286 2.455 . S
O306 C303 1.301 . S
O307 U286 2.449 . S
O307 C303 1.282 . S
H308 C281 0.931 . S
H309 C283 0.929 . S
H310 C284 0.930 . S
H311 C285 0.931 . S
H312 C292 0.932 . S
H313 C293 0.930 . S
H314 C294 0.929 . S
H315 C296 0.930 . S
H316 C298 0.932 . S
H317 C299 0.929 . S
H318 C300 0.928 . S
H319 C302 0.932 . S
C320 C321 1.264 . S
C320 C325 1.479 . S
C320 C330 1.465 . S
C321 C320 1.264 . S
C321 C323 1.339 . S
C321 H348 0.931 . S
C322 C323 1.395 . S
C322 C324 1.320 . S
C323 C321 1.339 . S
C323 C322 1.395 . S
C323 H349 0.929 . S
C324 C322 1.320 . S
C324 C325 1.405 . S
C324 H350 0.930 . S
C325 C320 1.479 . S
C325 C324 1.405 . S
C325 H351 0.931 . S
U326 O327 2.454 . S
U326 O328 2.458 . S
U326 C329 2.984 . S
U326 C330 2.847 . S
U326 C343 2.882 . S
U326 O344 2.441 . S
U326 O345 2.420 . S
U326 O346 2.455 . S
U326 O347 2.449 . S
O327 U326 2.454 . S
O327 C329 1.353 . S
O328 U326 2.458 . S
O328 C329 1.286 . S
C329 U326 2.984 . S
C329 O327 1.353 . S
C329 O328 1.286 . S
C329 C331 1.363 . S
C330 C320 1.465 . S
C330 U326 2.847 . S
C330 O344 1.249 . S
C330 O345 1.202 . S
C331 C329 1.363 . S
C331 C333 1.408 . S
C331 C336 1.342 . S
C332 C333 1.310 . S
C332 C335 1.461 . S
C332 H352 0.932 . S
C333 C331 1.408 . S
C333 C332 1.310 . S
C333 H353 0.930 . S
C334 C335 1.474 . S
C334 C336 1.285 . S
C334 H354 0.929 . S
C335 C332 1.461 . S
C335 C334 1.474 . S
C336 C331 1.342 . S
C336 C334 1.285 . S
C336 H355 0.930 . S
C337 C340 1.424 . S
C337 C342 1.245 . S
C337 C343 1.428 . S
C338 C341 1.260 . S
C338 C342 1.477 . S
C338 H356 0.932 . S
C339 C340 1.384 . S
C339 C341 1.479 . S
C339 H357 0.929 . S
C340 C337 1.424 . S
C340 C339 1.384 . S
C340 H358 0.928 . S
C341 C338 1.260 . S
C341 C339 1.479 . S
C342 C337 1.245 . S
C342 C338 1.477 . S
C342 H359 0.932 . S
C343 U326 2.882 . S
C343 C337 1.428 . S
C343 O346 1.301 . S
C343 O347 1.282 . S
O344 U326 2.441 . S
O344 C330 1.249 . S
O345 U326 2.420 . S
O345 C330 1.202 . S
O346 U326 2.455 . S
O346 C343 1.301 . S
O347 U326 2.449 . S
O347 C343 1.282 . S
H348 C321 0.931 . S
H349 C323 0.929 . S
H350 C324 0.930 . S
H351 C325 0.931 . S
H352 C332 0.932 . S
H353 C333 0.930 . S
H354 C334 0.929 . S
H355 C336 0.930 . S
H356 C338 0.932 . S
H357 C339 0.929 . S
H358 C340 0.928 . S
H359 C342 0.932 . S
C360 C361 1.264 . S
C360 C365 1.479 . S
C360 C370 1.465 . S
C361 C360 1.264 . S
C361 C363 1.339 . S
C361 H388 0.931 . S
C362 C363 1.395 . S
C362 C364 1.320 . S
C363 C361 1.339 . S
C363 C362 1.395 . S
C363 H389 0.929 . S
C364 C362 1.320 . S
C364 C365 1.405 . S
C364 H390 0.930 . S
C365 C360 1.479 . S
C365 C364 1.405 . S
C365 H391 0.931 . S
U366 O367 2.454 . S
U366 O368 2.458 . S
U366 C369 2.984 . S
U366 C370 2.847 . S
U366 C383 2.882 . S
U366 O384 2.441 . S
U366 O385 2.420 . S
U366 O386 2.455 . S
U366 O387 2.449 . S
O367 U366 2.454 . S
O367 C369 1.353 . S
O368 U366 2.458 . S
O368 C369 1.286 . S
C369 U366 2.984 . S
C369 O367 1.353 . S
C369 O368 1.286 . S
C369 C371 1.363 . S
C370 C360 1.465 . S
C370 U366 2.847 . S
C370 O384 1.249 . S
C370 O385 1.202 . S
C371 C369 1.363 . S
C371 C373 1.408 . S
C371 C376 1.342 1_565 S
C372 C373 1.310 1_545 S
C372 C375 1.461 . S
C372 H392 0.932 . S
C373 C371 1.408 . S
C373 C372 1.310 1_565 S
C373 H393 0.930 . S
C374 C375 1.474 . S
C374 C376 1.285 . S
C374 H394 0.929 . S
C375 C372 1.461 . S
C375 C374 1.474 . S
C376 C371 1.342 1_545 S
C376 C374 1.285 . S
C376 H395 0.930 . S
C377 C380 1.424 . S
C377 C382 1.245 . S
C377 C383 1.428 . S
C378 C381 1.260 . S
C378 C382 1.477 . S
C378 H396 0.932 . S
C379 C380 1.384 . S
C379 C381 1.479 . S
C379 H397 0.929 . S
C380 C377 1.424 . S
C380 C379 1.384 . S
C380 H398 0.928 . S
C381 C378 1.260 . S
C381 C379 1.479 . S
C382 C377 1.245 . S
C382 C378 1.477 . S
C382 H399 0.932 . S
C383 U366 2.882 . S
C383 C377 1.428 . S
C383 O386 1.301 . S
C383 O387 1.282 . S
O384 U366 2.441 . S
O384 C370 1.249 . S
O385 U366 2.420 . S
O385 C370 1.202 . S
O386 U366 2.455 . S
O386 C383 1.301 . S
O387 U366 2.449 . S
O387 C383 1.282 . S
H388 C361 0.931 . S
H389 C363 0.929 . S
H390 C364 0.930 . S
H391 C365 0.931 . S
H392 C372 0.932 . S
H393 C373 0.930 . S
H394 C374 0.929 . S
H395 C376 0.930 . S
H396 C378 0.932 . S
H397 C379 0.929 . S
H398 C380 0.928 . S
H399 C382 0.932 . S
C400 C401 1.264 . S
C400 C405 1.479 . S
C400 C410 1.465 . S
C401 C400 1.264 . S
C401 C403 1.339 . S
C401 H428 0.931 . S
C402 C403 1.395 . S
C402 C404 1.320 . S
C403 C401 1.339 . S
C403 C402 1.395 . S
C403 H429 0.929 . S
C404 C402 1.320 . S
C404 C405 1.405 . S
C404 H430 0.930 . S
C405 C400 1.479 . S
C405 C404 1.405 . S
C405 H431 0.931 . S
U406 O407 2.454 . S
U406 O408 2.458 . S
U406 C409 2.984 . S
U406 C410 2.847 . S
U406 C423 2.882 . S
U406 O424 2.441 . S
U406 O425 2.420 . S
U406 O426 2.455 . S
U406 O427 2.449 . S
O407 U406 2.454 . S
O407 C409 1.353 . S
O408 U406 2.458 . S
O408 C409 1.286 . S
C409 U406 2.984 . S
C409 O407 1.353 . S
C409 O408 1.286 . S
C409 C411 1.363 . S
C410 C400 1.465 . S
C410 U406 2.847 . S
C410 O424 1.249 . S
C410 O425 1.202 . S
C411 C409 1.363 . S
C411 C413 1.408 . S
C411 C416 1.342 . S
C412 C413 1.310 . S
C412 C415 1.461 . S
C412 H432 0.932 . S
C413 C411 1.408 . S
C413 C412 1.310 . S
C413 H433 0.930 . S
C414 C415 1.474 . S
C414 C416 1.285 . S
C414 H434 0.929 . S
C415 C412 1.461 . S
C415 C414 1.474 . S
C416 C411 1.342 . S
C416 C414 1.285 . S
C416 H435 0.930 . S
C417 C420 1.424 . S
C417 C422 1.245 . S
C417 C423 1.428 . S
C418 C421 1.260 . S
C418 C422 1.477 . S
C418 H436 0.932 . S
C419 C420 1.384 . S
C419 C421 1.479 . S
C419 H437 0.929 . S
C420 C417 1.424 . S
C420 C419 1.384 . S
C420 H438 0.928 . S
C421 C418 1.260 . S
C421 C419 1.479 . S
C422 C417 1.245 . S
C422 C418 1.477 . S
C422 H439 0.932 . S
C423 U406 2.882 . S
C423 C417 1.428 . S
C423 O426 1.301 . S
C423 O427 1.282 . S
O424 U406 2.441 . S
O424 C410 1.249 . S
O425 U406 2.420 . S
O425 C410 1.202 . S
O426 U406 2.455 . S
O426 C423 1.301 . S
O427 U406 2.449 . S
O427 C423 1.282 . S
H428 C401 0.931 . S
H429 C403 0.929 . S
H430 C404 0.930 . S
H431 C405 0.931 . S
H432 C412 0.932 . S
H433 C413 0.930 . S
H434 C414 0.929 . S
H435 C416 0.930 . S
H436 C418 0.932 . S
H437 C419 0.929 . S
H438 C420 0.928 . S
H439 C422 0.932 . S
C440 C441 1.264 . S
C440 C445 1.479 . S
C440 C450 1.465 . S
C441 C440 1.264 . S
C441 C443 1.339 . S
C441 H468 0.931 . S
C442 C443 1.395 . S
C442 C444 1.320 . S
C443 C441 1.339 . S
C443 C442 1.395 . S
C443 H469 0.929 . S
C444 C442 1.320 . S
C444 C445 1.405 . S
C444 H470 0.930 . S
C445 C440 1.479 . S
C445 C444 1.405 . S
C445 H471 0.931 . S
U446 O447 2.454 . S
U446 O448 2.458 . S
U446 C449 2.984 . S
U446 C450 2.847 . S
U446 C463 2.882 . S
U446 O464 2.441 . S
U446 O465 2.420 . S
U446 O466 2.455 . S
U446 O467 2.449 . S
O447 U446 2.454 . S
O447 C449 1.353 . S
O448 U446 2.458 . S
O448 C449 1.286 . S
C449 U446 2.984 . S
C449 O447 1.353 . S
C449 O448 1.286 . S
C449 C451 1.363 . S
C450 C440 1.465 . S
C450 U446 2.847 . S
C450 O464 1.249 . S
C450 O465 1.202 . S
C451 C449 1.363 . S
C451 C453 1.408 . S
C451 C456 1.342 . S
C452 C453 1.310 . S
C452 C455 1.461 . S
C452 H472 0.932 . S
C453 C451 1.408 . S
C453 C452 1.310 . S
C453 H473 0.930 . S
C454 C455 1.474 . S
C454 C456 1.285 . S
C454 H474 0.929 . S
C455 C452 1.461 . S
C455 C454 1.474 . S
C456 C451 1.342 . S
C456 C454 1.285 . S
C456 H475 0.930 . S
C457 C460 1.424 . S
C457 C462 1.245 . S
C457 C463 1.428 . S
C458 C461 1.260 . S
C458 C462 1.477 . S
C458 H476 0.932 . S
C459 C460 1.384 . S
C459 C461 1.479 . S
C459 H477 0.929 . S
C460 C457 1.424 . S
C460 C459 1.384 . S
C460 H478 0.928 . S
C461 C458 1.260 . S
C461 C459 1.479 . S
C462 C457 1.245 . S
C462 C458 1.477 . S
C462 H479 0.932 . S
C463 U446 2.882 . S
C463 C457 1.428 . S
C463 O466 1.301 . S
C463 O467 1.282 . S
O464 U446 2.441 . S
O464 C450 1.249 . S
O465 U446 2.420 . S
O465 C450 1.202 . S
O466 U446 2.455 . S
O466 C463 1.301 . S
O467 U446 2.449 . S
O467 C463 1.282 . S
H468 C441 0.931 . S
H469 C443 0.929 . S
H470 C444 0.930 . S
H471 C445 0.931 . S
H472 C452 0.932 . S
H473 C453 0.930 . S
H474 C454 0.929 . S
H475 C456 0.930 . S
H476 C458 0.932 . S
H477 C459 0.929 . S
H478 C460 0.928 . S
H479 C462 0.932 . S
C480 C481 1.264 . S
C480 C485 1.479 . S
C480 C490 1.465 . S
C481 C480 1.264 . S
C481 C483 1.339 . S
C481 H508 0.931 . S
C482 C483 1.395 . S
C482 C484 1.320 . S
C483 C481 1.339 . S
C483 C482 1.395 . S
C483 H509 0.929 . S
C484 C482 1.320 . S
C484 C485 1.405 . S
C484 H510 0.930 . S
C485 C480 1.479 . S
C485 C484 1.405 . S
C485 H511 0.931 . S
U486 O487 2.454 . S
U486 O488 2.458 . S
U486 C489 2.984 . S
U486 C490 2.847 . S
U486 C503 2.882 . S
U486 O504 2.441 . S
U486 O505 2.420 . S
U486 O506 2.455 . S
U486 O507 2.449 . S
O487 U486 2.454 . S
O487 C489 1.353 . S
O488 U486 2.458 . S
O488 C489 1.286 . S
C489 U486 2.984 . S
C489 O487 1.353 . S
C489 O488 1.286 . S
C489 C491 1.363 . S
C490 C480 1.465 . S
C490 U486 2.847 . S
C490 O504 1.249 . S
C490 O505 1.202 . S
C491 C489 1.363 . S
C491 C493 1.408 . S
C491 C496 1.342 . S
C492 C493 1.310 . S
C492 C495 1.461 . S
C492 H512 0.932 . S
C493 C491 1.408 . S
C493 C492 1.310 . S
C493 H513 0.930 . S
C494 C495 1.474 . S
C494 C496 1.285 . S
C494 H514 0.929 . S
C495 C492 1.461 . S
C495 C494 1.474 . S
C496 C491 1.342 . S
C496 C494 1.285 . S
C496 H515 0.930 . S
C497 C500 1.424 . S
C497 C502 1.245 . S
C497 C503 1.428 . S
C498 C501 1.260 . S
C498 C502 1.477 . S
C498 H516 0.932 . S
C499 C500 1.384 . S
C499 C501 1.479 . S
C499 H517 0.929 . S
C500 C497 1.424 . S
C500 C499 1.384 . S
C500 H518 0.928 . S
C501 C498 1.260 . S
C501 C499 1.479 . S
C502 C497 1.245 . S
C502 C498 1.477 . S
C502 H519 0.932 . S
C503 U486 2.882 . S
C503 C497 1.428 . S
C503 O506 1.301 . S
C503 O507 1.282 . S
O504 U486 2.441 . S
O504 C490 1.249 . S
O505 U486 2.420 . S
O505 C490 1.202 . S
O506 U486 2.455 . S
O506 C503 1.301 . S
O507 U486 2.449 . S
O507 C503 1.282 . S
H508 C481 0.931 . S
H509 C483 0.929 . S
H510 C484 0.930 . S
H511 C485 0.931 . S
H512 C492 0.932 . S
H513 C493 0.930 . S
H514 C494 0.929 . S
H515 C496 0.930 . S
H516 C498 0.932 . S
H517 C499 0.929 . S
H518 C500 0.928 . S
H519 C502 0.932 . S
C520 C521 1.264 . S
C520 C525 1.479 . S
C520 C530 1.465 . S
C521 C520 1.264 . S
C521 C523 1.339 . S
C521 H548 0.931 . S
C522 C523 1.395 . S
C522 C524 1.320 . S
C523 C521 1.339 . S
C523 C522 1.395 . S
C523 H549 0.929 . S
C524 C522 1.320 . S
C524 C525 1.405 . S
C524 H550 0.930 . S
C525 C520 1.479 . S
C525 C524 1.405 . S
C525 H551 0.931 . S
U526 O527 2.454 . S
U526 O528 2.458 . S
U526 C529 2.984 . S
U526 C530 2.847 . S
U526 C543 2.882 . S
U526 O544 2.441 . S
U526 O545 2.420 . S
U526 O546 2.455 . S
U526 O547 2.449 . S
O527 U526 2.454 . S
O527 C529 1.353 . S
O528 U526 2.458 . S
O528 C529 1.286 . S
C529 U526 2.984 . S
C529 O527 1.353 . S
C529 O528 1.286 . S
C529 C531 1.363 . S
C530 C520 1.465 . S
C530 U526 2.847 . S
C530 O544 1.249 . S
C530 O545 1.202 . S
C531 C529 1.363 . S
C531 C533 1.408 . S
C531 C536 1.342 1_556 S
C532 C533 1.310 1_554 S
C532 C535 1.461 . S
C532 H552 0.932 . S
C533 C531 1.408 . S
C533 C532 1.310 1_556 S
C533 H553 0.930 . S
C534 C535 1.474 . S
C534 C536 1.285 . S
C534 H554 0.929 . S
C535 C532 1.461 . S
C535 C534 1.474 . S
C536 C531 1.342 1_554 S
C536 C534 1.285 . S
C536 H555 0.930 . S
C537 C540 1.424 . S
C537 C542 1.245 . S
C537 C543 1.428 . S
C538 C541 1.260 . S
C538 C542 1.477 . S
C538 H556 0.932 . S
C539 C540 1.384 . S
C539 C541 1.479 . S
C539 H557 0.929 . S
C540 C537 1.424 . S
C540 C539 1.384 . S
C540 H558 0.928 . S
C541 C538 1.260 . S
C541 C539 1.479 . S
C542 C537 1.245 . S
C542 C538 1.477 . S
C542 H559 0.932 . S
C543 U526 2.882 . S
C543 C537 1.428 . S
C543 O546 1.301 . S
C543 O547 1.282 . S
O544 U526 2.441 . S
O544 C530 1.249 . S
O545 U526 2.420 . S
O545 C530 1.202 . S
O546 U526 2.455 . S
O546 C543 1.301 . S
O547 U526 2.449 . S
O547 C543 1.282 . S
H548 C521 0.931 . S
H549 C523 0.929 . S
H550 C524 0.930 . S
H551 C525 0.931 . S
H552 C532 0.932 . S
H553 C533 0.930 . S
H554 C534 0.929 . S
H555 C536 0.930 . S
H556 C538 0.932 . S
H557 C539 0.929 . S
H558 C540 0.928 . S
H559 C542 0.932 . S
C560 C561 1.264 . S
C560 C565 1.479 . S
C560 C570 1.465 . S
C561 C560 1.264 . S
C561 C563 1.339 . S
C561 H588 0.931 . S
C562 C563 1.395 . S
C562 C564 1.320 . S
C563 C561 1.339 . S
C563 C562 1.395 . S
C563 H589 0.929 . S
C564 C562 1.320 . S
C564 C565 1.405 . S
C564 H590 0.930 . S
C565 C560 1.479 . S
C565 C564 1.405 . S
C565 H591 0.931 . S
U566 O567 2.454 . S
U566 O568 2.458 . S
U566 C569 2.984 . S
U566 C570 2.847 . S
U566 C583 2.882 . S
U566 O584 2.441 . S
U566 O585 2.420 . S
U566 O586 2.455 . S
U566 O587 2.449 . S
O567 U566 2.454 . S
O567 C569 1.353 . S
O568 U566 2.458 . S
O568 C569 1.286 . S
C569 U566 2.984 . S
C569 O567 1.353 . S
C569 O568 1.286 . S
C569 C571 1.363 . S
C570 C560 1.465 . S
C570 U566 2.847 . S
C570 O584 1.249 . S
C570 O585 1.202 . S
C571 C569 1.363 . S
C571 C573 1.408 . S
C571 C576 1.342 . S
C572 C573 1.310 . S
C572 C575 1.461 . S
C572 H592 0.932 . S
C573 C571 1.408 . S
C573 C572 1.310 . S
C573 H593 0.930 . S
C574 C575 1.474 . S
C574 C576 1.285 . S
C574 H594 0.929 . S
C575 C572 1.461 . S
C575 C574 1.474 . S
C576 C571 1.342 . S
C576 C574 1.285 . S
C576 H595 0.930 . S
C577 C580 1.424 . S
C577 C582 1.245 . S
C577 C583 1.428 . S
C578 C581 1.260 . S
C578 C582 1.477 . S
C578 H596 0.932 . S
C579 C580 1.384 . S
C579 C581 1.479 . S
C579 H597 0.929 . S
C580 C577 1.424 . S
C580 C579 1.384 . S
C580 H598 0.928 . S
C581 C578 1.260 . S
C581 C579 1.479 . S
C582 C577 1.245 . S
C582 C578 1.477 . S
C582 H599 0.932 . S
C583 U566 2.882 . S
C583 C577 1.428 . S
C583 O586 1.301 . S
C583 O587 1.282 . S
O584 U566 2.441 . S
O584 C570 1.249 . S
O585 U566 2.420 . S
O585 C570 1.202 . S
O586 U566 2.455 . S
O586 C583 1.301 . S
O587 U566 2.449 . S
O587 C583 1.282 . S
H588 C561 0.931 . S
H589 C563 0.929 . S
H590 C564 0.930 . S
H591 C565 0.931 . S
H592 C572 0.932 . S
H593 C573 0.930 . S
H594 C574 0.929 . S
H595 C576 0.930 . S
H596 C578 0.932 . S
H597 C579 0.929 . S
H598 C580 0.928 . S
H599 C582 0.932 . S
C600 C601 1.252 1_554 S
C600 C605 1.540 . S
C600 C610 1.428 1_554 S
C601 C600 1.252 1_556 S
C601 C603 1.339 1_556 S
C601 H628 0.931 . S
C602 C603 1.395 . S
C602 C604 1.320 . S
C603 C601 1.339 1_554 S
C603 C602 1.395 . S
C603 H629 0.929 . S
C604 C602 1.320 . S
C604 C605 1.405 . S
C604 H630 0.930 . S
C605 C600 1.540 . S
C605 C604 1.405 . S
C605 H631 0.931 . S
U606 O607 2.454 . S
U606 O608 2.458 . S
U606 C609 2.984 . S
U606 C610 2.847 . S
U606 C623 2.882 . S
U606 O624 2.441 . S
U606 O625 2.420 . S
U606 O626 2.455 . S
U606 O627 2.449 . S
O607 U606 2.454 . S
O607 C609 1.353 . S
O608 U606 2.458 . S
O608 C609 1.286 . S
C609 U606 2.984 . S
C609 O607 1.353 . S
C609 O608 1.286 . S
C609 C611 1.363 . S
C610 C600 1.428 1_556 S
C610 U606 2.847 . S
C610 O624 1.249 . S
C610 O625 1.202 . S
C611 C609 1.363 . S
C611 C613 1.408 . S
C611 C616 1.342 1_545 S
C612 C613 1.310 1_565 S
C612 C615 1.461 . S
C612 H632 0.940 . S
C613 C611 1.408 . S
C613 C612 1.310 1_545 S
C613 H633 0.930 . S
C614 C615 1.474 . S
C614 C616 1.285 . S
C614 H634 0.929 . S
C615 C612 1.461 . S
C615 C614 1.474 . S
C616 C611 1.342 1_565 S
C616 C614 1.285 . S
C616 H635 0.930 . S
C617 C620 1.424 . S
C617 C622 1.245 . S
C617 C623 1.428 . S
C618 C621 1.260 . S
C618 C622 1.477 . S
C618 H636 0.932 . S
C619 C620 1.384 . S
C619 C621 1.479 . S
C619 H637 0.929 . S
C620 C617 1.424 . S
C620 C619 1.384 . S
C620 H638 0.928 . S
C621 C618 1.260 . S
C621 C619 1.479 . S
C622 C617 1.245 . S
C622 C618 1.477 . S
C622 H639 0.932 . S
C623 U606 2.882 . S
C623 C617 1.428 . S
C623 O626 1.301 . S
C623 O627 1.282 . S
O624 U606 2.441 . S
O624 C610 1.249 . S
O625 U606 2.420 . S
O625 C610 1.202 . S
O626 U606 2.455 . S
O626 C623 1.301 . S
O627 U606 2.449 . S
O627 C623 1.282 . S
H628 C601 0.931 . S
H629 C603 0.929 . S
H630 C604 0.930 . S
H631 C605 0.931 . S
H632 C612 0.940 . S
H633 C613 0.930 . S
H634 C614 0.929 . S
H635 C616 0.930 . S
H636 C618 0.932 . S
H637 C619 0.929 . S
H638 C620 0.928 . S
H639 C622 0.932 . S
Li640 N657 1.981 1_554 S
Li640 O700 1.956 . S
Li640 O701 1.970 . S
Li640 O702 1.961 1_554 S
Li641 N665 1.990 . S
Li641 O700 1.970 . S
Li641 O701 1.956 . S
Li641 O703 1.961 . S
Li642 N687 1.990 . S
Li642 O700 1.961 1_556 S
Li642 O702 1.956 . S
Li642 O703 1.970 1_556 S
Li643 N693 1.990 . S
Li643 O701 1.961 . S
Li643 O702 1.970 1_554 S
Li643 O703 1.956 . S
C644 C646 1.409 . S
C644 C647 1.286 1_554 S
C644 O700 1.338 . S
N645 C648 1.314 1_556 S
N645 C649 1.279 . S
C646 C644 1.409 . S
C646 C648 1.353 . S
C646 H704 0.929 . S
C647 C644 1.286 1_556 S
C647 C649 1.358 . S
C647 H705 0.930 . S
C648 N645 1.314 1_554 S
C648 C646 1.353 . S
C648 H706 0.930 . S
C649 N645 1.279 . S
C649 C647 1.358 . S
C649 H707 0.930 . S
C650 C653 1.348 . S
C650 C654 1.356 . S
C650 O701 1.325 . S
C651 N652 1.279 . S
C651 C654 1.358 . S
C651 H708 0.930 . S
N652 C651 1.279 . S
N652 C655 1.314 . S
C653 C650 1.348 . S
C653 C655 1.353 . S
C653 H709 0.929 . S
C654 C650 1.356 . S
C654 C651 1.358 . S
C654 H710 0.930 . S
C655 N652 1.314 . S
C655 C653 1.353 . S
C655 H711 0.930 . S
C656 N657 1.328 . S
C656 C661 1.353 . S
C656 H662 0.930 . S
N657 Li640 1.981 1_556 S
N657 C656 1.328 . S
N657 C659 1.272 1_556 S
C658 C659 1.352 1_556 S
C658 C660 1.366 . S
C658 H712 0.927 1_556 S
C659 N657 1.272 1_554 S
C659 C658 1.352 1_554 S
C659 H663 0.943 . S
C660 C658 1.366 . S
C660 C661 1.348 . S
C661 C656 1.353 . S
C661 C660 1.348 . S
C661 H713 0.929 . S
H662 C656 0.930 . S
H663 C659 0.943 . S
C664 N665 1.314 . S
C664 C666 1.353 . S
C664 H670 0.930 . S
N665 Li641 1.990 . S
N665 C664 1.314 . S
N665 C668 1.279 . S
C666 C664 1.353 . S
C666 C669 1.348 . S
C666 H714 0.929 . S
C667 C668 1.358 . S
C667 C669 1.356 . S
C667 H715 0.930 . S
C668 N665 1.279 . S
C668 C667 1.358 . S
C668 H671 0.930 . S
C669 C666 1.348 . S
C669 C667 1.356 . S
H670 C664 0.930 . S
H671 C668 0.930 . S
C672 C674 1.348 . S
C672 C675 1.356 . S
C672 O702 1.325 . S
N673 C676 1.314 . S
N673 C677 1.279 . S
C674 C672 1.348 . S
C674 C676 1.353 . S
C674 H716 0.929 . S
C675 C672 1.356 . S
C675 C677 1.358 . S
C675 H717 0.930 . S
C676 N673 1.314 . S
C676 C674 1.353 . S
C676 H718 0.930 . S
C677 N673 1.279 . S
C677 C675 1.358 . S
C677 H719 0.930 . S
C678 C679 1.348 1_554 S
C678 C680 1.356 . S
C678 O703 1.325 . S
C679 C678 1.348 1_556 S
C679 C681 1.345 1_556 S
C679 H720 0.929 . S
C680 C678 1.356 . S
C680 C682 1.358 . S
C680 H721 0.930 . S
C681 C679 1.345 1_554 S
C681 N683 1.356 . S
C681 H722 0.894 1_554 S
C682 C680 1.358 . S
C682 N683 1.279 . S
C682 H723 0.930 . S
N683 C681 1.356 . S
N683 C682 1.279 . S
C684 C686 1.353 . S
C684 N687 1.314 . S
C684 H690 0.930 . S
C685 N687 1.279 . S
C685 C688 1.358 . S
C685 H691 0.930 . S
C686 C684 1.353 . S
C686 C689 1.348 . S
C686 H724 0.929 . S
N687 Li642 1.990 . S
N687 C684 1.314 . S
N687 C685 1.279 . S
C688 C685 1.358 . S
C688 C689 1.356 . S
C688 H725 0.930 . S
C689 C686 1.348 . S
C689 C688 1.356 . S
H690 C684 0.930 . S
H691 C685 0.930 . S
C692 N693 1.314 . S
C692 C694 1.353 . S
C692 H698 0.930 . S
N693 Li643 1.990 . S
N693 C692 1.314 . S
N693 C696 1.279 . S
C694 C692 1.353 . S
C694 C697 1.348 . S
C694 H726 0.929 . S
C695 C696 1.358 . S
C695 C697 1.356 . S
C695 H727 0.930 . S
C696 N693 1.279 . S
C696 C695 1.358 . S
C696 H699 0.930 . S
C697 C694 1.348 . S
C697 C695 1.356 . S
H698 C692 0.930 . S
H699 C696 0.930 . S
O700 Li640 1.956 . S
O700 Li641 1.970 . S
O700 Li642 1.961 1_554 S
O700 C644 1.338 . S
O701 Li640 1.970 . S
O701 Li641 1.956 . S
O701 Li643 1.961 . S
O701 C650 1.325 . S
O702 Li640 1.961 1_556 S
O702 Li642 1.956 . S
O702 Li643 1.970 1_556 S
O702 C672 1.325 . S
O703 Li641 1.961 . S
O703 Li642 1.970 1_554 S
O703 Li643 1.956 . S
O703 C678 1.325 . S
H704 C646 0.929 . S
H705 C647 0.930 . S
H706 C648 0.930 . S
H707 C649 0.930 . S
H708 C651 0.930 . S
H709 C653 0.929 . S
H710 C654 0.930 . S
H711 C655 0.930 . S
H712 C658 0.927 1_554 S
H713 C661 0.929 . S
H714 C666 0.929 . S
H715 C667 0.930 . S
H716 C674 0.929 . S
H717 C675 0.930 . S
H718 C676 0.930 . S
H719 C677 0.930 . S
H720 C679 0.929 . S
H721 C680 0.930 . S
H722 C681 0.894 1_556 S
H723 C682 0.930 . S
H724 C686 0.929 . S
H725 C688 0.930 . S
H726 C694 0.929 . S
H727 C695 0.930 . S
Li728 N745 1.990 . S
Li728 O788 1.956 . S
Li728 O789 1.970 . S
Li728 O790 1.961 . S
Li729 N753 1.990 . S
Li729 O788 1.970 . S
Li729 O789 1.956 . S
Li729 O791 1.961 . S
Li730 N775 1.990 . S
Li730 O788 1.961 . S
Li730 O790 1.956 . S
Li730 O791 1.970 . S
Li731 N781 1.990 . S
Li731 O789 1.961 . S
Li731 O790 1.970 . S
Li731 O791 1.956 . S
C732 C734 1.348 . S
C732 C735 1.356 . S
C732 O788 1.325 . S
N733 C736 1.314 . S
N733 C737 1.279 . S
C734 C732 1.348 . S
C734 C736 1.353 . S
C734 H792 0.929 . S
C735 C732 1.356 . S
C735 C737 1.358 . S
C735 H793 0.930 . S
C736 N733 1.314 . S
C736 C734 1.353 . S
C736 H794 0.930 . S
C737 N733 1.279 . S
C737 C735 1.358 . S
C737 H795 0.930 . S
C738 C741 1.348 . S
C738 C742 1.356 . S
C738 O789 1.325 . S
C739 N740 1.279 . S
C739 C742 1.358 . S
C739 H796 0.930 . S
N740 C739 1.279 . S
N740 C743 1.314 . S
C741 C738 1.348 . S
C741 C743 1.353 . S
C741 H797 0.929 . S
C742 C738 1.356 . S
C742 C739 1.358 . S
C742 H798 0.930 . S
C743 N740 1.314 . S
C743 C741 1.353 . S
C743 H799 0.930 . S
C744 N745 1.314 . S
C744 C749 1.353 . S
C744 H750 0.930 . S
N745 Li728 1.990 . S
N745 C744 1.314 . S
N745 C747 1.279 . S
C746 C747 1.358 . S
C746 C748 1.356 . S
C746 H800 0.930 . S
C747 N745 1.279 . S
C747 C746 1.358 . S
C747 H751 0.930 . S
C748 C746 1.356 . S
C748 C749 1.348 . S
C749 C744 1.353 . S
C749 C748 1.348 . S
C749 H801 0.929 . S
H750 C744 0.930 . S
H751 C747 0.930 . S
C752 N753 1.314 . S
C752 C754 1.353 . S
C752 H758 0.930 . S
N753 Li729 1.990 . S
N753 C752 1.314 . S
N753 C756 1.279 . S
C754 C752 1.353 . S
C754 C757 1.348 . S
C754 H802 0.929 . S
C755 C756 1.358 . S
C755 C757 1.356 . S
C755 H803 0.930 . S
C756 N753 1.279 . S
C756 C755 1.358 . S
C756 H759 0.930 . S
C757 C754 1.348 . S
C757 C755 1.356 . S
H758 C752 0.930 . S
H759 C756 0.930 . S
C760 C762 1.348 . S
C760 C763 1.356 . S
C760 O790 1.325 . S
N761 C764 1.314 . S
N761 C765 1.279 . S
C762 C760 1.348 . S
C762 C764 1.353 . S
C762 H804 0.929 . S
C763 C760 1.356 . S
C763 C765 1.358 . S
C763 H805 0.930 . S
C764 N761 1.314 . S
C764 C762 1.353 . S
C764 H806 0.930 . S
C765 N761 1.279 . S
C765 C763 1.358 . S
C765 H807 0.930 . S
C766 C767 1.348 . S
C766 C768 1.356 . S
C766 O791 1.325 . S
C767 C766 1.348 . S
C767 C769 1.353 . S
C767 H808 0.929 . S
C768 C766 1.356 . S
C768 C770 1.358 . S
C768 H809 0.930 . S
C769 C767 1.353 . S
C769 N771 1.314 . S
C769 H810 0.930 . S
C770 C768 1.358 . S
C770 N771 1.279 . S
C770 H811 0.930 . S
N771 C769 1.314 . S
N771 C770 1.279 . S
C772 C774 1.353 . S
C772 N775 1.314 . S
C772 H778 0.930 . S
C773 N775 1.279 . S
C773 C776 1.358 . S
C773 H779 0.930 . S
C774 C772 1.353 . S
C774 C777 1.348 . S
C774 H812 0.929 . S
N775 Li730 1.990 . S
N775 C772 1.314 . S
N775 C773 1.279 . S
C776 C773 1.358 . S
C776 C777 1.356 . S
C776 H813 0.930 . S
C777 C774 1.348 . S
C777 C776 1.356 . S
H778 C772 0.930 . S
H779 C773 0.930 . S
C780 N781 1.314 . S
C780 C782 1.353 . S
C780 H786 0.930 . S
N781 Li731 1.990 . S
N781 C780 1.314 . S
N781 C784 1.279 . S
C782 C780 1.353 . S
C782 C785 1.348 . S
C782 H814 0.929 . S
C783 C784 1.358 . S
C783 C785 1.356 . S
C783 H815 0.930 . S
C784 N781 1.279 . S
C784 C783 1.358 . S
C784 H787 0.930 . S
C785 C782 1.348 . S
C785 C783 1.356 . S
H786 C780 0.930 . S
H787 C784 0.930 . S
O788 Li728 1.956 . S
O788 Li729 1.970 . S
O788 Li730 1.961 . S
O788 C732 1.325 . S
O789 Li728 1.970 . S
O789 Li729 1.956 . S
O789 Li731 1.961 . S
O789 C738 1.325 . S
O790 Li728 1.961 . S
O790 Li730 1.956 . S
O790 Li731 1.970 . S
O790 C760 1.325 . S
O791 Li729 1.961 . S
O791 Li730 1.970 . S
O791 Li731 1.956 . S
O791 C766 1.325 . S
H792 C734 0.929 . S
H793 C735 0.930 . S
H794 C736 0.930 . S
H795 C737 0.930 . S
H796 C739 0.930 . S
H797 C741 0.929 . S
H798 C742 0.930 . S
H799 C743 0.930 . S
H800 C746 0.930 . S
H801 C749 0.929 . S
H802 C754 0.929 . S
H803 C755 0.930 . S
H804 C762 0.929 . S
H805 C763 0.930 . S
H806 C764 0.930 . S
H807 C765 0.930 . S
H808 C767 0.929 . S
H809 C768 0.930 . S
H810 C769 0.930 . S
H811 C770 0.930 . S
H812 C774 0.929 . S
H813 C776 0.930 . S
H814 C782 0.929 . S
H815 C783 0.930 . S
Li816 N833 1.990 . S
Li816 O876 1.956 . S
Li816 O877 1.970 1_556 S
Li816 O878 1.961 . S
Li817 N841 1.990 . S
Li817 O876 1.970 1_554 S
Li817 O877 1.956 . S
Li817 O879 1.961 . S
Li818 N863 1.990 . S
Li818 O876 1.961 . S
Li818 O878 1.956 . S
Li818 O879 1.970 1_556 S
Li819 N869 1.990 . S
Li819 O877 1.961 . S
Li819 O878 1.970 1_554 S
Li819 O879 1.956 . S
C820 C822 1.348 1_556 S
C820 C823 1.356 . S
C820 O876 1.325 . S
N821 C824 1.314 1_556 S
N821 C825 1.279 . S
C822 C820 1.348 1_554 S
C822 C824 1.353 . S
C822 H880 0.929 . S
C823 C820 1.356 . S
C823 C825 1.358 . S
C823 H881 0.930 . S
C824 N821 1.314 1_554 S
C824 C822 1.353 . S
C824 H882 0.930 . S
C825 N821 1.279 . S
C825 C823 1.358 . S
C825 H883 0.930 . S
C826 C829 1.348 . S
C826 C830 1.356 . S
C826 O877 1.325 . S
C827 N828 1.279 . S
C827 C830 1.358 . S
C827 H884 0.930 . S
N828 C827 1.279 . S
N828 C831 1.314 . S
C829 C826 1.348 . S
C829 C831 1.353 . S
C829 H885 0.929 . S
C830 C826 1.356 . S
C830 C827 1.358 . S
C830 H886 0.930 . S
C831 N828 1.314 . S
C831 C829 1.353 . S
C831 H887 0.930 . S
C832 N833 1.314 . S
C832 C837 1.353 . S
C832 H838 0.930 . S
N833 Li816 1.990 . S
N833 C832 1.314 . S
N833 C835 1.279 . S
C834 C835 1.358 . S
C834 C836 1.356 . S
C834 H888 0.930 . S
C835 N833 1.279 . S
C835 C834 1.358 . S
C835 H839 0.930 . S
C836 C834 1.356 . S
C836 C837 1.348 . S
C837 C832 1.353 . S
C837 C836 1.348 . S
C837 H889 0.929 . S
H838 C832 0.930 . S
H839 C835 0.930 . S
C840 N841 1.314 . S
C840 C842 1.353 . S
C840 H846 0.930 . S
N841 Li817 1.990 . S
N841 C840 1.314 . S
N841 C844 1.279 . S
C842 C840 1.353 . S
C842 C845 1.348 . S
C842 H890 0.929 . S
C843 C844 1.358 . S
C843 C845 1.356 . S
C843 H891 0.930 . S
C844 N841 1.279 . S
C844 C843 1.358 . S
C844 H847 0.930 . S
C845 C842 1.348 . S
C845 C843 1.356 . S
H846 C840 0.930 . S
H847 C844 0.930 . S
C848 C850 1.348 . S
C848 C851 1.356 . S
C848 O878 1.325 . S
N849 C852 1.314 . S
N849 C853 1.279 . S
C850 C848 1.348 . S
C850 C852 1.353 . S
C850 H892 0.929 . S
C851 C848 1.356 . S
C851 C853 1.358 . S
C851 H893 0.930 . S
C852 N849 1.314 . S
C852 C850 1.353 . S
C852 H894 0.930 . S
C853 N849 1.279 . S
C853 C851 1.358 . S
C853 H895 0.930 . S
C854 C855 1.348 1_554 S
C854 C856 1.356 . S
C854 O879 1.325 . S
C855 C854 1.348 1_556 S
C855 C857 1.353 . S
C855 H896 0.929 . S
C856 C854 1.356 . S
C856 C858 1.358 . S
C856 H897 0.930 . S
C857 C855 1.353 . S
C857 N859 1.314 1_556 S
C857 H898 0.930 . S
C858 C856 1.358 . S
C858 N859 1.279 . S
C858 H899 0.930 . S
N859 C857 1.314 1_554 S
N859 C858 1.279 . S
C860 C862 1.353 . S
C860 N863 1.314 . S
C860 H866 0.930 . S
C861 N863 1.279 . S
C861 C864 1.358 . S
C861 H867 0.930 . S
C862 C860 1.353 . S
C862 C865 1.348 . S
C862 H900 0.929 . S
N863 Li818 1.990 . S
N863 C860 1.314 . S
N863 C861 1.279 . S
C864 C861 1.358 . S
C864 C865 1.356 . S
C864 H901 0.930 . S
C865 C862 1.348 . S
C865 C864 1.356 . S
H866 C860 0.930 . S
H867 C861 0.930 . S
C868 N869 1.314 . S
C868 C870 1.353 . S
C868 H874 0.930 . S
N869 Li819 1.990 . S
N869 C868 1.314 . S
N869 C872 1.279 . S
C870 C868 1.353 . S
C870 C873 1.348 . S
C870 H902 0.929 . S
C871 C872 1.358 . S
C871 C873 1.356 . S
C871 H903 0.930 . S
C872 N869 1.279 . S
C872 C871 1.358 . S
C872 H875 0.930 . S
C873 C870 1.348 . S
C873 C871 1.356 . S
H874 C868 0.930 . S
H875 C872 0.930 . S
O876 Li816 1.956 . S
O876 Li817 1.970 1_556 S
O876 Li818 1.961 . S
O876 C820 1.325 . S
O877 Li816 1.970 1_554 S
O877 Li817 1.956 . S
O877 Li819 1.961 . S
O877 C826 1.325 . S
O878 Li816 1.961 . S
O878 Li818 1.956 . S
O878 Li819 1.970 1_556 S
O878 C848 1.325 . S
O879 Li817 1.961 . S
O879 Li818 1.970 1_554 S
O879 Li819 1.956 . S
O879 C854 1.325 . S
H880 C822 0.929 . S
H881 C823 0.930 . S
H882 C824 0.930 . S
H883 C825 0.930 . S
H884 C827 0.930 . S
H885 C829 0.929 . S
H886 C830 0.930 . S
H887 C831 0.930 . S
H888 C834 0.930 . S
H889 C837 0.929 . S
H890 C842 0.929 . S
H891 C843 0.930 . S
H892 C850 0.929 . S
H893 C851 0.930 . S
H894 C852 0.930 . S
H895 C853 0.930 . S
H896 C855 0.929 . S
H897 C856 0.930 . S
H898 C857 0.930 . S
H899 C858 0.930 . S
H900 C862 0.929 . S
H901 C864 0.930 . S
H902 C870 0.929 . S
H903 C871 0.930 . S
Li904 N921 1.990 . S
Li904 O964 1.956 . S
Li904 O965 1.970 1_545 S
Li904 O966 1.961 . S
Li905 N929 1.990 . S
Li905 O964 1.970 1_565 S
Li905 O965 1.956 . S
Li905 O967 1.961 . S
Li906 N951 1.990 . S
Li906 O964 1.961 . S
Li906 O966 1.956 . S
Li906 O967 1.970 1_545 S
Li907 N957 1.990 . S
Li907 O965 1.961 . S
Li907 O966 1.970 1_565 S
Li907 O967 1.956 . S
C908 C910 1.348 . S
C908 C911 1.356 . S
C908 O964 1.325 . S
N909 C912 1.314 . S
N909 C913 1.279 . S
C910 C908 1.348 . S
C910 C912 1.353 . S
C910 H968 0.929 . S
C911 C908 1.356 . S
C911 C913 1.358 . S
C911 H969 0.930 . S
C912 N909 1.314 . S
C912 C910 1.353 . S
C912 H970 0.930 . S
C913 N909 1.279 . S
C913 C911 1.358 . S
C913 H971 0.930 . S
C914 C917 1.348 1_565 S
C914 C918 1.356 . S
C914 O965 1.325 . S
C915 N916 1.279 . S
C915 C918 1.358 . S
C915 H972 0.930 . S
N916 C915 1.279 . S
N916 C919 1.314 1_565 S
C917 C914 1.348 1_545 S
C917 C919 1.353 . S
C917 H973 0.929 . S
C918 C914 1.356 . S
C918 C915 1.358 . S
C918 H974 0.930 . S
C919 N916 1.314 1_545 S
C919 C917 1.353 . S
C919 H975 0.930 . S
C920 N921 1.314 . S
C920 C925 1.353 . S
C920 H926 0.930 . S
N921 Li904 1.990 . S
N921 C920 1.314 . S
N921 C923 1.279 . S
C922 C923 1.358 . S
C922 C924 1.356 . S
C922 H976 0.930 . S
C923 N921 1.279 . S
C923 C922 1.358 . S
C923 H927 0.930 . S
C924 C922 1.356 . S
C924 C925 1.348 . S
C925 C920 1.353 . S
C925 C924 1.348 . S
C925 H977 0.929 . S
H926 C920 0.930 . S
H927 C923 0.930 . S
C928 N929 1.314 . S
C928 C930 1.353 . S
C928 H934 0.930 . S
N929 Li905 1.990 . S
N929 C928 1.314 . S
N929 C932 1.279 . S
C930 C928 1.353 . S
C930 C933 1.348 . S
C930 H978 0.929 . S
C931 C932 1.358 . S
C931 C933 1.356 . S
C931 H979 0.930 . S
C932 N929 1.279 . S
C932 C931 1.358 . S
C932 H935 0.930 . S
C933 C930 1.348 . S
C933 C931 1.356 . S
H934 C928 0.930 . S
H935 C932 0.930 . S
C936 C938 1.348 1_545 S
C936 C939 1.356 . S
C936 O966 1.325 . S
N937 C940 1.314 1_545 S
N937 C941 1.279 . S
C938 C936 1.348 1_565 S
C938 C940 1.353 . S
C938 H980 0.929 . S
C939 C936 1.356 . S
C939 C941 1.358 . S
C939 H981 0.930 . S
C940 N937 1.314 1_565 S
C940 C938 1.353 . S
C940 H982 0.930 . S
C941 N937 1.279 . S
C941 C939 1.358 . S
C941 H983 0.930 . S
C942 C943 1.348 . S
C942 C944 1.356 . S
C942 O967 1.325 . S
C943 C942 1.348 . S
C943 C945 1.353 . S
C943 H984 0.929 . S
C944 C942 1.356 . S
C944 C946 1.358 . S
C944 H985 0.930 . S
C945 C943 1.353 . S
C945 N947 1.314 . S
C945 H986 0.930 . S
C946 C944 1.358 . S
C946 N947 1.279 . S
C946 H987 0.930 . S
N947 C945 1.314 . S
N947 C946 1.279 . S
C948 C950 1.353 . S
C948 N951 1.314 . S
C948 H954 0.930 . S
C949 N951 1.279 . S
C949 C952 1.358 . S
C949 H955 0.930 . S
C950 C948 1.353 . S
C950 C953 1.348 . S
C950 H988 0.929 . S
N951 Li906 1.990 . S
N951 C948 1.314 . S
N951 C949 1.279 . S
C952 C949 1.358 . S
C952 C953 1.356 . S
C952 H989 0.930 . S
C953 C950 1.348 . S
C953 C952 1.356 . S
H954 C948 0.930 . S
H955 C949 0.930 . S
C956 N957 1.314 . S
C956 C958 1.353 . S
C956 H962 0.930 . S
N957 Li907 1.990 . S
N957 C956 1.314 . S
N957 C960 1.279 . S
C958 C956 1.353 . S
C958 C961 1.348 . S
C958 H990 0.929 . S
C959 C960 1.358 . S
C959 C961 1.356 . S
C959 H991 0.930 . S
C960 N957 1.279 . S
C960 C959 1.358 . S
C960 H963 0.930 . S
C961 C958 1.348 . S
C961 C959 1.356 . S
H962 C956 0.930 . S
H963 C960 0.930 . S
O964 Li904 1.956 . S
O964 Li905 1.970 1_545 S
O964 Li906 1.961 . S
O964 C908 1.325 . S
O965 Li904 1.970 1_565 S
O965 Li905 1.956 . S
O965 Li907 1.961 . S
O965 C914 1.325 . S
O966 Li904 1.961 . S
O966 Li906 1.956 . S
O966 Li907 1.970 1_545 S
O966 C936 1.325 . S
O967 Li905 1.961 . S
O967 Li906 1.970 1_565 S
O967 Li907 1.956 . S
O967 C942 1.325 . S
H968 C910 0.929 . S
H969 C911 0.930 . S
H970 C912 0.930 . S
H971 C913 0.930 . S
H972 C915 0.930 . S
H973 C917 0.929 . S
H974 C918 0.930 . S
H975 C919 0.930 . S
H976 C922 0.930 . S
H977 C925 0.929 . S
H978 C930 0.929 . S
H979 C931 0.930 . S
H980 C938 0.929 . S
H981 C939 0.930 . S
H982 C940 0.930 . S
H983 C941 0.930 . S
H984 C943 0.929 . S
H985 C944 0.930 . S
H986 C945 0.930 . S
H987 C946 0.930 . S
H988 C950 0.929 . S
H989 C952 0.930 . S
H990 C958 0.929 . S
H991 C959 0.930 . S
Li992 N1009 1.990 . S
Li992 O1052 1.956 . S
Li992 O1053 1.970 . S
Li992 O1054 1.961 . S
Li993 N1017 1.990 . S
Li993 O1052 1.970 . S
Li993 O1053 1.956 . S
Li993 O1055 1.961 . S
Li994 N1039 1.990 . S
Li994 O1052 1.961 . S
Li994 O1054 1.956 . S
Li994 O1055 1.970 . S
Li995 N1045 1.990 . S
Li995 O1053 1.961 . S
Li995 O1054 1.970 . S
Li995 O1055 1.956 . S
C996 C998 1.348 . S
C996 C999 1.356 . S
C996 O1052 1.325 . S
N997 C1000 1.314 . S
N997 C1001 1.279 . S
C998 C996 1.348 . S
C998 C1000 1.353 . S
C998 H1056 0.929 . S
C999 C996 1.356 . S
C999 C1001 1.358 . S
C999 H1057 0.930 . S
C1000 N997 1.314 . S
C1000 C998 1.353 . S
C1000 H1058 0.930 . S
C1001 N997 1.279 . S
C1001 C999 1.358 . S
C1001 H1059 0.930 . S
C1002 C1005 1.348 . S
C1002 C1006 1.356 . S
C1002 O1053 1.325 . S
C1003 N1004 1.279 . S
C1003 C1006 1.358 . S
C1003 H1060 0.930 . S
N1004 C1003 1.279 . S
N1004 C1007 1.314 . S
C1005 C1002 1.348 . S
C1005 C1007 1.353 . S
C1005 H1061 0.929 . S
C1006 C1002 1.356 . S
C1006 C1003 1.358 . S
C1006 H1062 0.930 . S
C1007 N1004 1.314 . S
C1007 C1005 1.353 . S
C1007 H1063 0.930 . S
C1008 N1009 1.314 . S
C1008 C1013 1.353 . S
C1008 H1014 0.930 . S
N1009 Li992 1.990 . S
N1009 C1008 1.314 . S
N1009 C1011 1.279 . S
C1010 C1011 1.358 . S
C1010 C1012 1.356 . S
C1010 H1064 0.930 . S
C1011 N1009 1.279 . S
C1011 C1010 1.358 . S
C1011 H1015 0.930 . S
C1012 C1010 1.356 . S
C1012 C1013 1.348 . S
C1013 C1008 1.353 . S
C1013 C1012 1.348 . S
C1013 H1065 0.929 . S
H1014 C1008 0.930 . S
H1015 C1011 0.930 . S
C1016 N1017 1.314 . S
C1016 C1018 1.353 . S
C1016 H1022 0.930 . S
N1017 Li993 1.990 . S
N1017 C1016 1.314 . S
N1017 C1020 1.279 . S
C1018 C1016 1.353 . S
C1018 C1021 1.348 . S
C1018 H1066 0.929 . S
C1019 C1020 1.358 . S
C1019 C1021 1.356 . S
C1019 H1067 0.930 . S
C1020 N1017 1.279 . S
C1020 C1019 1.358 . S
C1020 H1023 0.930 . S
C1021 C1018 1.348 . S
C1021 C1019 1.356 . S
H1022 C1016 0.930 . S
H1023 C1020 0.930 . S
C1024 C1026 1.348 . S
C1024 C1027 1.356 . S
C1024 O1054 1.325 . S
N1025 C1028 1.314 . S
N1025 C1029 1.279 . S
C1026 C1024 1.348 . S
C1026 C1028 1.353 . S
C1026 H1068 0.929 . S
C1027 C1024 1.356 . S
C1027 C1029 1.358 . S
C1027 H1069 0.930 . S
C1028 N1025 1.314 . S
C1028 C1026 1.353 . S
C1028 H1070 0.930 . S
C1029 N1025 1.279 . S
C1029 C1027 1.358 . S
C1029 H1071 0.930 . S
C1030 C1031 1.348 . S
C1030 C1032 1.356 . S
C1030 O1055 1.325 . S
C1031 C1030 1.348 . S
C1031 C1033 1.353 . S
C1031 H1072 0.929 . S
C1032 C1030 1.356 . S
C1032 C1034 1.358 . S
C1032 H1073 0.930 . S
C1033 C1031 1.353 . S
C1033 N1035 1.314 . S
C1033 H1074 0.930 . S
C1034 C1032 1.358 . S
C1034 N1035 1.279 . S
C1034 H1075 0.930 . S
N1035 C1033 1.314 . S
N1035 C1034 1.279 . S
C1036 C1038 1.353 . S
C1036 N1039 1.314 . S
C1036 H1042 0.930 . S
C1037 N1039 1.279 . S
C1037 C1040 1.358 . S
C1037 H1043 0.930 . S
C1038 C1036 1.353 . S
C1038 C1041 1.348 . S
C1038 H1076 0.929 . S
N1039 Li994 1.990 . S
N1039 C1036 1.314 . S
N1039 C1037 1.279 . S
C1040 C1037 1.358 . S
C1040 C1041 1.356 . S
C1040 H1077 0.930 . S
C1041 C1038 1.348 . S
C1041 C1040 1.356 . S
H1042 C1036 0.930 . S
H1043 C1037 0.930 . S
C1044 N1045 1.314 . S
C1044 C1046 1.353 . S
C1044 H1050 0.930 . S
N1045 Li995 1.990 . S
N1045 C1044 1.314 . S
N1045 C1048 1.279 . S
C1046 C1044 1.353 . S
C1046 C1049 1.348 . S
C1046 H1078 0.929 . S
C1047 C1048 1.358 . S
C1047 C1049 1.356 . S
C1047 H1079 0.930 . S
C1048 N1045 1.279 . S
C1048 C1047 1.358 . S
C1048 H1051 0.930 . S
C1049 C1046 1.348 . S
C1049 C1047 1.356 . S
H1050 C1044 0.930 . S
H1051 C1048 0.930 . S
O1052 Li992 1.956 . S
O1052 Li993 1.970 . S
O1052 Li994 1.961 . S
O1052 C996 1.325 . S
O1053 Li992 1.970 . S
O1053 Li993 1.956 . S
O1053 Li995 1.961 . S
O1053 C1002 1.325 . S
O1054 Li992 1.961 . S
O1054 Li994 1.956 . S
O1054 Li995 1.970 . S
O1054 C1024 1.325 . S
O1055 Li993 1.961 . S
O1055 Li994 1.970 . S
O1055 Li995 1.956 . S
O1055 C1030 1.325 . S
H1056 C998 0.929 . S
H1057 C999 0.930 . S
H1058 C1000 0.930 . S
H1059 C1001 0.930 . S
H1060 C1003 0.930 . S
H1061 C1005 0.929 . S
H1062 C1006 0.930 . S
H1063 C1007 0.930 . S
H1064 C1010 0.930 . S
H1065 C1013 0.929 . S
H1066 C1018 0.929 . S
H1067 C1019 0.930 . S
H1068 C1026 0.929 . S
H1069 C1027 0.930 . S
H1070 C1028 0.930 . S
H1071 C1029 0.930 . S
H1072 C1031 0.929 . S
H1073 C1032 0.930 . S
H1074 C1033 0.930 . S
H1075 C1034 0.930 . S
H1076 C1038 0.929 . S
H1077 C1040 0.930 . S
H1078 C1046 0.929 . S
H1079 C1047 0.930 . S
Li1080 N1097 1.990 . S
Li1080 O1140 1.956 . S
Li1080 O1141 1.970 . S
Li1080 O1142 1.961 . S
Li1081 N1105 1.990 . S
Li1081 O1140 1.970 . S
Li1081 O1141 1.956 . S
Li1081 O1143 1.961 . S
Li1082 N1127 1.990 . S
Li1082 O1140 1.961 . S
Li1082 O1142 1.956 . S
Li1082 O1143 1.970 . S
Li1083 N1133 1.990 . S
Li1083 O1141 1.961 . S
Li1083 O1142 1.970 . S
Li1083 O1143 1.956 . S
C1084 C1086 1.348 . S
C1084 C1087 1.356 . S
C1084 O1140 1.325 . S
N1085 C1088 1.314 . S
N1085 C1089 1.279 . S
C1086 C1084 1.348 . S
C1086 C1088 1.353 . S
C1086 H1144 0.929 . S
C1087 C1084 1.356 . S
C1087 C1089 1.358 . S
C1087 H1145 0.930 . S
C1088 N1085 1.314 . S
C1088 C1086 1.353 . S
C1088 H1146 0.930 . S
C1089 N1085 1.279 . S
C1089 C1087 1.358 . S
C1089 H1147 0.930 . S
C1090 C1093 1.348 . S
C1090 C1094 1.356 . S
C1090 O1141 1.325 . S
C1091 N1092 1.279 . S
C1091 C1094 1.358 . S
C1091 H1148 0.930 . S
N1092 C1091 1.279 . S
N1092 C1095 1.314 . S
C1093 C1090 1.348 . S
C1093 C1095 1.353 . S
C1093 H1149 0.929 . S
C1094 C1090 1.356 . S
C1094 C1091 1.358 . S
C1094 H1150 0.930 . S
C1095 N1092 1.314 . S
C1095 C1093 1.353 . S
C1095 H1151 0.930 . S
C1096 N1097 1.314 . S
C1096 C1101 1.353 . S
C1096 H1102 0.930 . S
N1097 Li1080 1.990 . S
N1097 C1096 1.314 . S
N1097 C1099 1.279 . S
C1098 C1099 1.358 . S
C1098 C1100 1.356 . S
C1098 H1152 0.930 . S
C1099 N1097 1.279 . S
C1099 C1098 1.358 . S
C1099 H1103 0.930 . S
C1100 C1098 1.356 . S
C1100 C1101 1.348 . S
C1101 C1096 1.353 . S
C1101 C1100 1.348 . S
C1101 H1153 0.929 . S
H1102 C1096 0.930 . S
H1103 C1099 0.930 . S
C1104 N1105 1.314 . S
C1104 C1106 1.353 . S
C1104 H1110 0.930 . S
N1105 Li1081 1.990 . S
N1105 C1104 1.314 . S
N1105 C1108 1.279 . S
C1106 C1104 1.353 . S
C1106 C1109 1.348 . S
C1106 H1154 0.929 . S
C1107 C1108 1.358 . S
C1107 C1109 1.356 . S
C1107 H1155 0.930 . S
C1108 N1105 1.279 . S
C1108 C1107 1.358 . S
C1108 H1111 0.930 . S
C1109 C1106 1.348 . S
C1109 C1107 1.356 . S
H1110 C1104 0.930 . S
H1111 C1108 0.930 . S
C1112 C1114 1.348 . S
C1112 C1115 1.356 . S
C1112 O1142 1.325 . S
N1113 C1116 1.314 . S
N1113 C1117 1.279 . S
C1114 C1112 1.348 . S
C1114 C1116 1.353 . S
C1114 H1156 0.929 . S
C1115 C1112 1.356 . S
C1115 C1117 1.358 . S
C1115 H1157 0.930 . S
C1116 N1113 1.314 . S
C1116 C1114 1.353 . S
C1116 H1158 0.930 . S
C1117 N1113 1.279 . S
C1117 C1115 1.358 . S
C1117 H1159 0.930 . S
C1118 C1119 1.348 . S
C1118 C1120 1.356 . S
C1118 O1143 1.325 . S
C1119 C1118 1.348 . S
C1119 C1121 1.353 . S
C1119 H1160 0.929 . S
C1120 C1118 1.356 . S
C1120 C1122 1.358 . S
C1120 H1161 0.930 . S
C1121 C1119 1.353 . S
C1121 N1123 1.314 . S
C1121 H1162 0.930 . S
C1122 C1120 1.358 . S
C1122 N1123 1.279 . S
C1122 H1163 0.930 . S
N1123 C1121 1.314 . S
N1123 C1122 1.279 . S
C1124 C1126 1.353 . S
C1124 N1127 1.314 . S
C1124 H1130 0.930 . S
C1125 N1127 1.279 . S
C1125 C1128 1.358 . S
C1125 H1131 0.930 . S
C1126 C1124 1.353 . S
C1126 C1129 1.348 . S
C1126 H1164 0.929 . S
N1127 Li1082 1.990 . S
N1127 C1124 1.314 . S
N1127 C1125 1.279 . S
C1128 C1125 1.358 . S
C1128 C1129 1.356 . S
C1128 H1165 0.930 . S
C1129 C1126 1.348 . S
C1129 C1128 1.356 . S
H1130 C1124 0.930 . S
H1131 C1125 0.930 . S
C1132 N1133 1.314 . S
C1132 C1134 1.353 . S
C1132 H1138 0.930 . S
N1133 Li1083 1.990 . S
N1133 C1132 1.314 . S
N1133 C1136 1.279 . S
C1134 C1132 1.353 . S
C1134 C1137 1.348 . S
C1134 H1166 0.929 . S
C1135 C1136 1.358 . S
C1135 C1137 1.356 . S
C1135 H1167 0.930 . S
C1136 N1133 1.279 . S
C1136 C1135 1.358 . S
C1136 H1139 0.930 . S
C1137 C1134 1.348 . S
C1137 C1135 1.356 . S
H1138 C1132 0.930 . S
H1139 C1136 0.930 . S
O1140 Li1080 1.956 . S
O1140 Li1081 1.970 . S
O1140 Li1082 1.961 . S
O1140 C1084 1.325 . S
O1141 Li1080 1.970 . S
O1141 Li1081 1.956 . S
O1141 Li1083 1.961 . S
O1141 C1090 1.325 . S
O1142 Li1080 1.961 . S
O1142 Li1082 1.956 . S
O1142 Li1083 1.970 . S
O1142 C1112 1.325 . S
O1143 Li1081 1.961 . S
O1143 Li1082 1.970 . S
O1143 Li1083 1.956 . S
O1143 C1118 1.325 . S
H1144 C1086 0.929 . S
H1145 C1087 0.930 . S
H1146 C1088 0.930 . S
H1147 C1089 0.930 . S
H1148 C1091 0.930 . S
H1149 C1093 0.929 . S
H1150 C1094 0.930 . S
H1151 C1095 0.930 . S
H1152 C1098 0.930 . S
H1153 C1101 0.929 . S
H1154 C1106 0.929 . S
H1155 C1107 0.930 . S
H1156 C1114 0.929 . S
H1157 C1115 0.930 . S
H1158 C1116 0.930 . S
H1159 C1117 0.930 . S
H1160 C1119 0.929 . S
H1161 C1120 0.930 . S
H1162 C1121 0.930 . S
H1163 C1122 0.930 . S
H1164 C1126 0.929 . S
H1165 C1128 0.930 . S
H1166 C1134 0.929 . S
H1167 C1135 0.930 . S
Li1168 N1185 1.990 . S
Li1168 O1228 1.956 . S
Li1168 O1229 1.970 . S
Li1168 O1230 1.961 . S
Li1169 N1193 1.990 . S
Li1169 O1228 1.970 . S
Li1169 O1229 1.956 . S
Li1169 O1231 1.961 . S
Li1170 N1215 1.990 . S
Li1170 O1228 1.961 . S
Li1170 O1230 1.956 . S
Li1170 O1231 1.970 . S
Li1171 N1221 1.990 . S
Li1171 O1229 1.961 . S
Li1171 O1230 1.970 . S
Li1171 O1231 1.956 . S
C1172 C1174 1.348 . S
C1172 C1175 1.356 . S
C1172 O1228 1.325 . S
N1173 C1176 1.314 . S
N1173 C1177 1.279 . S
C1174 C1172 1.348 . S
C1174 C1176 1.353 . S
C1174 H1232 0.929 . S
C1175 C1172 1.356 . S
C1175 C1177 1.358 . S
C1175 H1233 0.930 . S
C1176 N1173 1.314 . S
C1176 C1174 1.353 . S
C1176 H1234 0.930 . S
C1177 N1173 1.279 . S
C1177 C1175 1.358 . S
C1177 H1235 0.930 . S
C1178 C1181 1.348 . S
C1178 C1182 1.356 . S
C1178 O1229 1.325 . S
C1179 N1180 1.279 . S
C1179 C1182 1.358 . S
C1179 H1236 0.930 . S
N1180 C1179 1.279 . S
N1180 C1183 1.314 . S
C1181 C1178 1.348 . S
C1181 C1183 1.353 . S
C1181 H1237 0.929 . S
C1182 C1178 1.356 . S
C1182 C1179 1.358 . S
C1182 H1238 0.930 . S
C1183 N1180 1.314 . S
C1183 C1181 1.353 . S
C1183 H1239 0.930 . S
C1184 N1185 1.314 . S
C1184 C1189 1.353 . S
C1184 H1190 0.930 . S
N1185 Li1168 1.990 . S
N1185 C1184 1.314 . S
N1185 C1187 1.279 . S
C1186 C1187 1.358 . S
C1186 C1188 1.356 . S
C1186 H1240 0.930 . S
C1187 N1185 1.279 . S
C1187 C1186 1.358 . S
C1187 H1191 0.930 . S
C1188 C1186 1.356 . S
C1188 C1189 1.348 . S
C1189 C1184 1.353 . S
C1189 C1188 1.348 . S
C1189 H1241 0.929 . S
H1190 C1184 0.930 . S
H1191 C1187 0.930 . S
C1192 N1193 1.314 . S
C1192 C1194 1.353 . S
C1192 H1198 0.930 . S
N1193 Li1169 1.990 . S
N1193 C1192 1.314 . S
N1193 C1196 1.279 . S
C1194 C1192 1.353 . S
C1194 C1197 1.348 . S
C1194 H1242 0.929 . S
C1195 C1196 1.358 . S
C1195 C1197 1.356 . S
C1195 H1243 0.930 . S
C1196 N1193 1.279 . S
C1196 C1195 1.358 . S
C1196 H1199 0.930 . S
C1197 C1194 1.348 . S
C1197 C1195 1.356 . S
H1198 C1192 0.930 . S
H1199 C1196 0.930 . S
C1200 C1202 1.348 . S
C1200 C1203 1.356 . S
C1200 O1230 1.325 . S
N1201 C1204 1.314 . S
N1201 C1205 1.279 . S
C1202 C1200 1.348 . S
C1202 C1204 1.353 . S
C1202 H1244 0.929 . S
C1203 C1200 1.356 . S
C1203 C1205 1.358 . S
C1203 H1245 0.930 . S
C1204 N1201 1.314 . S
C1204 C1202 1.353 . S
C1204 H1246 0.930 . S
C1205 N1201 1.279 . S
C1205 C1203 1.358 . S
C1205 H1247 0.930 . S
C1206 C1207 1.348 . S
C1206 C1208 1.356 . S
C1206 O1231 1.325 . S
C1207 C1206 1.348 . S
C1207 C1209 1.353 . S
C1207 H1248 0.929 . S
C1208 C1206 1.356 . S
C1208 C1210 1.358 . S
C1208 H1249 0.930 . S
C1209 C1207 1.353 . S
C1209 N1211 1.314 . S
C1209 H1250 0.930 . S
C1210 C1208 1.358 . S
C1210 N1211 1.279 . S
C1210 H1251 0.930 . S
N1211 C1209 1.314 . S
N1211 C1210 1.279 . S
C1212 C1214 1.353 . S
C1212 N1215 1.314 . S
C1212 H1218 0.930 . S
C1213 N1215 1.279 . S
C1213 C1216 1.358 . S
C1213 H1219 0.930 . S
C1214 C1212 1.353 . S
C1214 C1217 1.348 . S
C1214 H1252 0.929 . S
N1215 Li1170 1.990 . S
N1215 C1212 1.314 . S
N1215 C1213 1.279 . S
C1216 C1213 1.358 . S
C1216 C1217 1.356 . S
C1216 H1253 0.930 . S
C1217 C1214 1.348 . S
C1217 C1216 1.356 . S
H1218 C1212 0.930 . S
H1219 C1213 0.930 . S
C1220 N1221 1.314 . S
C1220 C1222 1.353 . S
C1220 H1226 0.930 . S
N1221 Li1171 1.990 . S
N1221 C1220 1.314 . S
N1221 C1224 1.279 . S
C1222 C1220 1.353 . S
C1222 C1225 1.348 . S
C1222 H1254 0.929 . S
C1223 C1224 1.358 . S
C1223 C1225 1.356 . S
C1223 H1255 0.930 . S
C1224 N1221 1.279 . S
C1224 C1223 1.358 . S
C1224 H1227 0.930 . S
C1225 C1222 1.348 . S
C1225 C1223 1.356 . S
H1226 C1220 0.930 . S
H1227 C1224 0.930 . S
O1228 Li1168 1.956 . S
O1228 Li1169 1.970 . S
O1228 Li1170 1.961 . S
O1228 C1172 1.325 . S
O1229 Li1168 1.970 . S
O1229 Li1169 1.956 . S
O1229 Li1171 1.961 . S
O1229 C1178 1.325 . S
O1230 Li1168 1.961 . S
O1230 Li1170 1.956 . S
O1230 Li1171 1.970 . S
O1230 C1200 1.325 . S
O1231 Li1169 1.961 . S
O1231 Li1170 1.970 . S
O1231 Li1171 1.956 . S
O1231 C1206 1.325 . S
H1232 C1174 0.929 . S
H1233 C1175 0.930 . S
H1234 C1176 0.930 . S
H1235 C1177 0.930 . S
H1236 C1179 0.930 . S
H1237 C1181 0.929 . S
H1238 C1182 0.930 . S
H1239 C1183 0.930 . S
H1240 C1186 0.930 . S
H1241 C1189 0.929 . S
H1242 C1194 0.929 . S
H1243 C1195 0.930 . S
H1244 C1202 0.929 . S
H1245 C1203 0.930 . S
H1246 C1204 0.930 . S
H1247 C1205 0.930 . S
H1248 C1207 0.929 . S
H1249 C1208 0.930 . S
H1250 C1209 0.930 . S
H1251 C1210 0.930 . S
H1252 C1214 0.929 . S
H1253 C1216 0.930 . S
H1254 C1222 0.929 . S
H1255 C1223 0.930 . S
Li1256 N1273 1.990 . S
Li1256 O1316 1.956 . S
Li1256 O1317 1.970 1_565 S
Li1256 O1318 1.961 . S
Li1257 N1281 1.990 . S
Li1257 O1316 1.970 1_545 S
Li1257 O1317 1.956 . S
Li1257 O1319 1.961 . S
Li1258 N1303 1.990 . S
Li1258 O1316 1.961 . S
Li1258 O1318 1.956 . S
Li1258 O1319 1.970 1_565 S
Li1259 N1309 1.990 . S
Li1259 O1317 1.961 . S
Li1259 O1318 1.970 1_545 S
Li1259 O1319 1.956 . S
C1260 C1262 1.348 . S
C1260 C1263 1.356 . S
C1260 O1316 1.325 . S
N1261 C1264 1.314 . S
N1261 C1265 1.279 . S
C1262 C1260 1.348 . S
C1262 C1264 1.353 . S
C1262 H1320 0.929 . S
C1263 C1260 1.356 . S
C1263 C1265 1.358 . S
C1263 H1321 0.930 . S
C1264 N1261 1.314 . S
C1264 C1262 1.353 . S
C1264 H1322 0.930 . S
C1265 N1261 1.279 . S
C1265 C1263 1.358 . S
C1265 H1323 0.930 . S
C1266 C1269 1.348 1_545 S
C1266 C1270 1.356 . S
C1266 O1317 1.325 . S
C1267 N1268 1.279 . S
C1267 C1270 1.358 . S
C1267 H1324 0.930 . S
N1268 C1267 1.279 . S
N1268 C1271 1.314 1_545 S
C1269 C1266 1.348 1_565 S
C1269 C1271 1.353 . S
C1269 H1325 0.929 . S
C1270 C1266 1.356 . S
C1270 C1267 1.358 . S
C1270 H1326 0.930 . S
C1271 N1268 1.314 1_565 S
C1271 C1269 1.353 . S
C1271 H1327 0.930 . S
C1272 N1273 1.314 . S
C1272 C1277 1.353 . S
C1272 H1278 0.930 . S
N1273 Li1256 1.990 . S
N1273 C1272 1.314 . S
N1273 C1275 1.279 . S
C1274 C1275 1.358 . S
C1274 C1276 1.356 . S
C1274 H1328 0.930 . S
C1275 N1273 1.279 . S
C1275 C1274 1.358 . S
C1275 H1279 0.930 . S
C1276 C1274 1.356 . S
C1276 C1277 1.348 . S
C1277 C1272 1.353 . S
C1277 C1276 1.348 . S
C1277 H1329 0.929 . S
H1278 C1272 0.930 . S
H1279 C1275 0.930 . S
C1280 N1281 1.314 . S
C1280 C1282 1.353 . S
C1280 H1286 0.930 . S
N1281 Li1257 1.990 . S
N1281 C1280 1.314 . S
N1281 C1284 1.279 . S
C1282 C1280 1.353 . S
C1282 C1285 1.348 . S
C1282 H1330 0.929 . S
C1283 C1284 1.358 . S
C1283 C1285 1.356 . S
C1283 H1331 0.930 . S
C1284 N1281 1.279 . S
C1284 C1283 1.358 . S
C1284 H1287 0.930 . S
C1285 C1282 1.348 . S
C1285 C1283 1.356 . S
H1286 C1280 0.930 . S
H1287 C1284 0.930 . S
C1288 C1290 1.348 1_565 S
C1288 C1291 1.356 . S
C1288 O1318 1.325 . S
N1289 C1292 1.314 1_565 S
N1289 C1293 1.279 . S
C1290 C1288 1.348 1_545 S
C1290 C1292 1.353 . S
C1290 H1332 0.929 . S
C1291 C1288 1.356 . S
C1291 C1293 1.358 . S
C1291 H1333 0.930 . S
C1292 N1289 1.314 1_545 S
C1292 C1290 1.353 . S
C1292 H1334 0.930 . S
C1293 N1289 1.279 . S
C1293 C1291 1.358 . S
C1293 H1335 0.930 . S
C1294 C1295 1.348 . S
C1294 C1296 1.356 . S
C1294 O1319 1.325 . S
C1295 C1294 1.348 . S
C1295 C1297 1.353 . S
C1295 H1336 0.929 . S
C1296 C1294 1.356 . S
C1296 C1298 1.358 . S
C1296 H1337 0.930 . S
C1297 C1295 1.353 . S
C1297 N1299 1.314 . S
C1297 H1338 0.930 . S
C1298 C1296 1.358 . S
C1298 N1299 1.279 . S
C1298 H1339 0.930 . S
N1299 C1297 1.314 . S
N1299 C1298 1.279 . S
C1300 C1302 1.353 . S
C1300 N1303 1.314 . S
C1300 H1306 0.930 . S
C1301 N1303 1.279 . S
C1301 C1304 1.358 . S
C1301 H1307 0.930 . S
C1302 C1300 1.353 . S
C1302 C1305 1.348 . S
C1302 H1340 0.929 . S
N1303 Li1258 1.990 . S
N1303 C1300 1.314 . S
N1303 C1301 1.279 . S
C1304 C1301 1.358 . S
C1304 C1305 1.356 . S
C1304 H1341 0.930 . S
C1305 C1302 1.348 . S
C1305 C1304 1.356 . S
H1306 C1300 0.930 . S
H1307 C1301 0.930 . S
C1308 N1309 1.314 . S
C1308 C1310 1.353 . S
C1308 H1314 0.930 . S
N1309 Li1259 1.990 . S
N1309 C1308 1.314 . S
N1309 C1312 1.279 . S
C1310 C1308 1.353 . S
C1310 C1313 1.348 . S
C1310 H1342 0.929 . S
C1311 C1312 1.358 . S
C1311 C1313 1.356 . S
C1311 H1343 0.930 . S
C1312 N1309 1.279 . S
C1312 C1311 1.358 . S
C1312 H1315 0.930 . S
C1313 C1310 1.348 . S
C1313 C1311 1.356 . S
H1314 C1308 0.930 . S
H1315 C1312 0.930 . S
O1316 Li1256 1.956 . S
O1316 Li1257 1.970 1_565 S
O1316 Li1258 1.961 . S
O1316 C1260 1.325 . S
O1317 Li1256 1.970 1_545 S
O1317 Li1257 1.956 . S
O1317 Li1259 1.961 . S
O1317 C1266 1.325 . S
O1318 Li1256 1.961 . S
O1318 Li1258 1.956 . S
O1318 Li1259 1.970 1_565 S
O1318 C1288 1.325 . S
O1319 Li1257 1.961 . S
O1319 Li1258 1.970 1_545 S
O1319 Li1259 1.956 . S
O1319 C1294 1.325 . S
H1320 C1262 0.929 . S
H1321 C1263 0.930 . S
H1322 C1264 0.930 . S
H1323 C1265 0.930 . S
H1324 C1267 0.930 . S
H1325 C1269 0.929 . S
H1326 C1270 0.930 . S
H1327 C1271 0.930 . S
H1328 C1274 0.930 . S
H1329 C1277 0.929 . S
H1330 C1282 0.929 . S
H1331 C1283 0.930 . S
H1332 C1290 0.929 . S
H1333 C1291 0.930 . S
H1334 C1292 0.930 . S
H1335 C1293 0.930 . S
H1336 C1295 0.929 . S
H1337 C1296 0.930 . S
H1338 C1297 0.930 . S
H1339 C1298 0.930 . S
H1340 C1302 0.929 . S
H1341 C1304 0.930 . S
H1342 C1310 0.929 . S
H1343 C1311 0.930 . S
Li1344 N1361 1.990 . S
Li1344 O1404 1.956 . S
Li1344 O1405 1.974 1_455 S
Li1344 O1406 1.961 . S
Li1345 N1369 1.993 . S
Li1345 O1404 1.955 1_655 S
Li1345 O1405 1.956 . S
Li1345 O1407 1.972 . S
Li1346 N1391 1.990 . S
Li1346 O1404 1.961 . S
Li1346 O1406 1.956 . S
Li1346 O1407 1.970 1_455 S
Li1347 N1397 1.990 . S
Li1347 O1405 1.958 . S
Li1347 O1406 1.970 1_655 S
Li1347 O1407 1.956 . S
C1348 C1350 1.348 . S
C1348 C1351 1.356 . S
C1348 O1404 1.325 . S
N1349 C1352 1.314 . S
N1349 C1353 1.279 . S
C1350 C1348 1.348 . S
C1350 C1352 1.353 . S
C1350 H1408 0.929 . S
C1351 C1348 1.356 . S
C1351 C1353 1.358 . S
C1351 H1409 0.930 . S
C1352 N1349 1.314 . S
C1352 C1350 1.353 . S
C1352 H1410 0.930 . S
C1353 N1349 1.279 . S
C1353 C1351 1.358 . S
C1353 H1411 0.930 . S
C1354 C1357 1.348 1_655 S
C1354 C1358 1.356 . S
C1354 O1405 1.324 . S
C1355 N1356 1.279 . S
C1355 C1358 1.358 . S
C1355 H1412 0.930 . S
N1356 C1355 1.279 . S
N1356 C1359 1.314 1_655 S
C1357 C1354 1.348 1_455 S
C1357 C1359 1.353 . S
C1357 H1413 0.929 . S
C1358 C1354 1.356 . S
C1358 C1355 1.358 . S
C1358 H1414 0.930 . S
C1359 N1356 1.314 1_455 S
C1359 C1357 1.353 . S
C1359 H1415 0.930 . S
C1360 N1361 1.314 . S
C1360 C1365 1.353 . S
C1360 H1366 0.930 . S
N1361 Li1344 1.990 . S
N1361 C1360 1.314 . S
N1361 C1363 1.279 . S
C1362 C1363 1.358 . S
C1362 C1364 1.356 . S
C1362 H1416 0.930 . S
C1363 N1361 1.279 . S
C1363 C1362 1.358 . S
C1363 H1367 0.930 . S
C1364 C1362 1.356 . S
C1364 C1365 1.348 . S
C1365 C1360 1.353 . S
C1365 C1364 1.348 . S
C1365 H1417 0.929 . S
H1366 C1360 0.930 . S
H1367 C1363 0.930 . S
C1368 N1369 1.314 . S
C1368 C1370 1.353 . S
C1368 H1374 0.930 . S
N1369 Li1345 1.993 . S
N1369 C1368 1.314 . S
N1369 C1372 1.279 . S
C1370 C1368 1.353 . S
C1370 C1373 1.348 . S
C1370 H1418 0.929 . S
C1371 C1372 1.358 . S
C1371 C1373 1.356 . S
C1371 H1419 0.930 . S
C1372 N1369 1.279 . S
C1372 C1371 1.358 . S
C1372 H1375 0.933 . S
C1373 C1370 1.348 . S
C1373 C1371 1.356 . S
H1374 C1368 0.930 . S
H1375 C1372 0.933 . S
C1376 C1378 1.348 1_455 S
C1376 C1379 1.356 . S
C1376 O1406 1.325 . S
N1377 C1380 1.314 1_455 S
N1377 C1381 1.279 . S
C1378 C1376 1.348 1_655 S
C1378 C1380 1.353 . S
C1378 H1420 0.929 . S
C1379 C1376 1.356 . S
C1379 C1381 1.358 . S
C1379 H1421 0.930 . S
C1380 N1377 1.314 1_655 S
C1380 C1378 1.353 . S
C1380 H1422 0.930 . S
C1381 N1377 1.279 . S
C1381 C1379 1.358 . S
C1381 H1423 0.930 . S
C1382 C1383 1.348 . S
C1382 C1384 1.356 . S
C1382 O1407 1.325 . S
C1383 C1382 1.348 . S
C1383 C1385 1.353 . S
C1383 H1424 0.929 . S
C1384 C1382 1.356 . S
C1384 C1386 1.358 . S
C1384 H1425 0.930 . S
C1385 C1383 1.353 . S
C1385 N1387 1.314 . S
C1385 H1426 0.930 . S
C1386 C1384 1.358 . S
C1386 N1387 1.279 . S
C1386 H1427 0.930 . S
N1387 C1385 1.314 . S
N1387 C1386 1.279 . S
C1388 C1390 1.353 . S
C1388 N1391 1.314 . S
C1388 H1394 0.930 . S
C1389 N1391 1.279 . S
C1389 C1392 1.358 . S
C1389 H1395 0.930 . S
C1390 C1388 1.353 . S
C1390 C1393 1.348 . S
C1390 H1428 0.929 . S
N1391 Li1346 1.990 . S
N1391 C1388 1.314 . S
N1391 C1389 1.279 . S
C1392 C1389 1.358 . S
C1392 C1393 1.356 . S
C1392 H1429 0.930 . S
C1393 C1390 1.348 . S
C1393 C1392 1.356 . S
H1394 C1388 0.930 . S
H1395 C1389 0.930 . S
C1396 N1397 1.314 . S
C1396 C1398 1.353 . S
C1396 H1402 0.930 . S
N1397 Li1347 1.990 . S
N1397 C1396 1.314 . S
N1397 C1400 1.279 . S
C1398 C1396 1.353 . S
C1398 C1401 1.348 . S
C1398 H1430 0.929 . S
C1399 C1400 1.358 . S
C1399 C1401 1.356 . S
C1399 H1431 0.930 . S
C1400 N1397 1.279 . S
C1400 C1399 1.358 . S
C1400 H1403 0.930 . S
C1401 C1398 1.348 . S
C1401 C1399 1.356 . S
H1402 C1396 0.930 . S
H1403 C1400 0.930 . S
O1404 Li1344 1.956 . S
O1404 Li1345 1.955 1_455 S
O1404 Li1346 1.961 . S
O1404 C1348 1.325 . S
O1405 Li1344 1.974 1_655 S
O1405 Li1345 1.956 . S
O1405 Li1347 1.958 . S
O1405 C1354 1.324 . S
O1406 Li1344 1.961 . S
O1406 Li1346 1.956 . S
O1406 Li1347 1.970 1_455 S
O1406 C1376 1.325 . S
O1407 Li1345 1.972 . S
O1407 Li1346 1.970 1_655 S
O1407 Li1347 1.956 . S
O1407 C1382 1.325 . S
H1408 C1350 0.929 . S
H1409 C1351 0.930 . S
H1410 C1352 0.930 . S
H1411 C1353 0.930 . S
H1412 C1355 0.930 . S
H1413 C1357 0.929 . S
H1414 C1358 0.930 . S
H1415 C1359 0.930 . S
H1416 C1362 0.930 . S
H1417 C1365 0.929 . S
H1418 C1370 0.929 . S
H1419 C1371 0.930 . S
H1420 C1378 0.929 . S
H1421 C1379 0.930 . S
H1422 C1380 0.930 . S
H1423 C1381 0.930 . S
H1424 C1383 0.929 . S
H1425 C1384 0.930 . S
H1426 C1385 0.930 . S
H1427 C1386 0.930 . S
H1428 C1390 0.929 . S
H1429 C1392 0.930 . S
H1430 C1398 0.929 . S
H1431 C1399 0.930 . S
Li1432 N1449 1.990 . S
Li1432 O1492 1.956 . S
Li1432 O1493 1.970 . S
Li1432 O1494 1.961 . S
Li1433 N1457 1.990 . S
Li1433 O1492 1.970 . S
Li1433 O1493 1.956 . S
Li1433 O1495 1.961 . S
Li1434 N1479 1.990 . S
Li1434 O1492 1.961 . S
Li1434 O1494 1.956 . S
Li1434 O1495 1.970 . S
Li1435 N1485 1.990 . S
Li1435 O1493 1.961 . S
Li1435 O1494 1.970 . S
Li1435 O1495 1.956 . S
C1436 C1438 1.348 . S
C1436 C1439 1.356 . S
C1436 O1492 1.325 . S
N1437 C1440 1.314 . S
N1437 C1441 1.279 . S
C1438 C1436 1.348 . S
C1438 C1440 1.353 . S
C1438 H1496 0.929 . S
C1439 C1436 1.356 . S
C1439 C1441 1.358 . S
C1439 H1497 0.930 . S
C1440 N1437 1.314 . S
C1440 C1438 1.353 . S
C1440 H1498 0.930 . S
C1441 N1437 1.279 . S
C1441 C1439 1.358 . S
C1441 H1499 0.930 . S
C1442 C1445 1.348 . S
C1442 C1446 1.356 . S
C1442 O1493 1.325 . S
C1443 N1444 1.279 . S
C1443 C1446 1.358 . S
C1443 H1500 0.930 . S
N1444 C1443 1.279 . S
N1444 C1447 1.314 . S
C1445 C1442 1.348 . S
C1445 C1447 1.353 . S
C1445 H1501 0.929 . S
C1446 C1442 1.356 . S
C1446 C1443 1.358 . S
C1446 H1502 0.930 . S
C1447 N1444 1.314 . S
C1447 C1445 1.353 . S
C1447 H1503 0.930 . S
C1448 N1449 1.314 . S
C1448 C1453 1.353 . S
C1448 H1454 0.930 . S
N1449 Li1432 1.990 . S
N1449 C1448 1.314 . S
N1449 C1451 1.279 . S
C1450 C1451 1.358 . S
C1450 C1452 1.356 . S
C1450 H1504 0.930 . S
C1451 N1449 1.279 . S
C1451 C1450 1.358 . S
C1451 H1455 0.930 . S
C1452 C1450 1.356 . S
C1452 C1453 1.348 . S
C1453 C1448 1.353 . S
C1453 C1452 1.348 . S
C1453 H1505 0.929 . S
H1454 C1448 0.930 . S
H1455 C1451 0.930 . S
C1456 N1457 1.314 . S
C1456 C1458 1.353 . S
C1456 H1462 0.930 . S
N1457 Li1433 1.990 . S
N1457 C1456 1.314 . S
N1457 C1460 1.279 . S
C1458 C1456 1.353 . S
C1458 C1461 1.348 . S
C1458 H1506 0.929 . S
C1459 C1460 1.358 . S
C1459 C1461 1.356 . S
C1459 H1507 0.930 . S
C1460 N1457 1.279 . S
C1460 C1459 1.358 . S
C1460 H1463 0.930 . S
C1461 C1458 1.348 . S
C1461 C1459 1.356 . S
H1462 C1456 0.930 . S
H1463 C1460 0.930 . S
C1464 C1466 1.348 . S
C1464 C1467 1.356 . S
C1464 O1494 1.325 . S
N1465 C1468 1.314 . S
N1465 C1469 1.279 . S
C1466 C1464 1.348 . S
C1466 C1468 1.353 . S
C1466 H1508 0.929 . S
C1467 C1464 1.356 . S
C1467 C1469 1.358 . S
C1467 H1509 0.930 . S
C1468 N1465 1.314 . S
C1468 C1466 1.353 . S
C1468 H1510 0.930 . S
C1469 N1465 1.279 . S
C1469 C1467 1.358 . S
C1469 H1511 0.930 . S
C1470 C1471 1.348 . S
C1470 C1472 1.356 . S
C1470 O1495 1.325 . S
C1471 C1470 1.348 . S
C1471 C1473 1.353 . S
C1471 H1512 0.929 . S
C1472 C1470 1.356 . S
C1472 C1474 1.358 . S
C1472 H1513 0.930 . S
C1473 C1471 1.353 . S
C1473 N1475 1.314 . S
C1473 H1514 0.930 . S
C1474 C1472 1.358 . S
C1474 N1475 1.279 . S
C1474 H1515 0.930 . S
N1475 C1473 1.314 . S
N1475 C1474 1.279 . S
C1476 C1478 1.353 . S
C1476 N1479 1.314 . S
C1476 H1482 0.930 . S
C1477 N1479 1.279 . S
C1477 C1480 1.358 . S
C1477 H1483 0.930 . S
C1478 C1476 1.353 . S
C1478 C1481 1.348 . S
C1478 H1516 0.929 . S
N1479 Li1434 1.990 . S
N1479 C1476 1.314 . S
N1479 C1477 1.279 . S
C1480 C1477 1.358 . S
C1480 C1481 1.356 . S
C1480 H1517 0.930 . S
C1481 C1478 1.348 . S
C1481 C1480 1.356 . S
H1482 C1476 0.930 . S
H1483 C1477 0.930 . S
C1484 N1485 1.314 . S
C1484 C1486 1.353 . S
C1484 H1490 0.930 . S
N1485 Li1435 1.990 . S
N1485 C1484 1.314 . S
N1485 C1488 1.279 . S
C1486 C1484 1.353 . S
C1486 C1489 1.348 . S
C1486 H1518 0.929 . S
C1487 C1488 1.358 . S
C1487 C1489 1.356 . S
C1487 H1519 0.930 . S
C1488 N1485 1.279 . S
C1488 C1487 1.358 . S
C1488 H1491 0.930 . S
C1489 C1486 1.348 . S
C1489 C1487 1.356 . S
H1490 C1484 0.930 . S
H1491 C1488 0.930 . S
O1492 Li1432 1.956 . S
O1492 Li1433 1.970 . S
O1492 Li1434 1.961 . S
O1492 C1436 1.325 . S
O1493 Li1432 1.970 . S
O1493 Li1433 1.956 . S
O1493 Li1435 1.961 . S
O1493 C1442 1.325 . S
O1494 Li1432 1.961 . S
O1494 Li1434 1.956 . S
O1494 Li1435 1.970 . S
O1494 C1464 1.325 . S
O1495 Li1433 1.961 . S
O1495 Li1434 1.970 . S
O1495 Li1435 1.956 . S
O1495 C1470 1.325 . S
H1496 C1438 0.929 . S
H1497 C1439 0.930 . S
H1498 C1440 0.930 . S
H1499 C1441 0.930 . S
H1500 C1443 0.930 . S
H1501 C1445 0.929 . S
H1502 C1446 0.930 . S
H1503 C1447 0.930 . S
H1504 C1450 0.930 . S
H1505 C1453 0.929 . S
H1506 C1458 0.929 . S
H1507 C1459 0.930 . S
H1508 C1466 0.929 . S
H1509 C1467 0.930 . S
H1510 C1468 0.930 . S
H1511 C1469 0.930 . S
H1512 C1471 0.929 . S
H1513 C1472 0.930 . S
H1514 C1473 0.930 . S
H1515 C1474 0.930 . S
H1516 C1478 0.929 . S
H1517 C1480 0.930 . S
H1518 C1486 0.929 . S
H1519 C1487 0.930 . S
Li1520 N1537 1.990 . S
Li1520 O1580 1.956 . S
Li1520 O1581 1.970 1_455 S
Li1520 O1582 1.961 . S
Li1521 N1545 1.990 . S
Li1521 O1580 1.970 1_655 S
Li1521 O1581 1.956 . S
Li1521 O1583 1.958 . S
Li1522 N1567 1.990 . S
Li1522 O1580 1.961 . S
Li1522 O1582 1.956 . S
Li1522 O1583 1.974 1_455 S
Li1523 N1573 1.993 . S
Li1523 O1581 1.972 . S
Li1523 O1582 1.955 1_655 S
Li1523 O1583 1.956 . S
C1524 C1526 1.348 1_455 S
C1524 C1527 1.356 . S
C1524 O1580 1.325 . S
N1525 C1528 1.314 1_455 S
N1525 C1529 1.279 . S
C1526 C1524 1.348 1_655 S
C1526 C1528 1.353 . S
C1526 H1584 0.929 . S
C1527 C1524 1.356 . S
C1527 C1529 1.358 . S
C1527 H1585 0.930 . S
C1528 N1525 1.314 1_655 S
C1528 C1526 1.353 . S
C1528 H1586 0.930 . S
C1529 N1525 1.279 . S
C1529 C1527 1.358 . S
C1529 H1587 0.930 . S
C1530 C1533 1.348 . S
C1530 C1534 1.356 . S
C1530 O1581 1.325 . S
C1531 N1532 1.279 . S
C1531 C1534 1.358 . S
C1531 H1588 0.930 . S
N1532 C1531 1.279 . S
N1532 C1535 1.314 . S
C1533 C1530 1.348 . S
C1533 C1535 1.353 . S
C1533 H1589 0.929 . S
C1534 C1530 1.356 . S
C1534 C1531 1.358 . S
C1534 H1590 0.930 . S
C1535 N1532 1.314 . S
C1535 C1533 1.353 . S
C1535 H1591 0.930 . S
C1536 N1537 1.314 . S
C1536 C1541 1.353 . S
C1536 H1542 0.930 . S
N1537 Li1520 1.990 . S
N1537 C1536 1.314 . S
N1537 C1539 1.279 . S
C1538 C1539 1.358 . S
C1538 C1540 1.356 . S
C1538 H1592 0.930 . S
C1539 N1537 1.279 . S
C1539 C1538 1.358 . S
C1539 H1543 0.930 . S
C1540 C1538 1.356 . S
C1540 C1541 1.348 . S
C1541 C1536 1.353 . S
C1541 C1540 1.348 . S
C1541 H1593 0.929 . S
H1542 C1536 0.930 . S
H1543 C1539 0.930 . S
C1544 N1545 1.314 . S
C1544 C1546 1.353 . S
C1544 H1550 0.930 . S
N1545 Li1521 1.990 . S
N1545 C1544 1.314 . S
N1545 C1548 1.279 . S
C1546 C1544 1.353 . S
C1546 C1549 1.348 . S
C1546 H1594 0.929 . S
C1547 C1548 1.358 . S
C1547 C1549 1.356 . S
C1547 H1595 0.930 . S
C1548 N1545 1.279 . S
C1548 C1547 1.358 . S
C1548 H1551 0.930 . S
C1549 C1546 1.348 . S
C1549 C1547 1.356 . S
H1550 C1544 0.930 . S
H1551 C1548 0.930 . S
C1552 C1554 1.348 . S
C1552 C1555 1.356 . S
C1552 O1582 1.325 . S
N1553 C1556 1.314 . S
N1553 C1557 1.279 . S
C1554 C1552 1.348 . S
C1554 C1556 1.353 . S
C1554 H1596 0.929 . S
C1555 C1552 1.356 . S
C1555 C1557 1.358 . S
C1555 H1597 0.930 . S
C1556 N1553 1.314 . S
C1556 C1554 1.353 . S
C1556 H1598 0.930 . S
C1557 N1553 1.279 . S
C1557 C1555 1.358 . S
C1557 H1599 0.930 . S
C1558 C1559 1.348 1_655 S
C1558 C1560 1.356 . S
C1558 O1583 1.324 . S
C1559 C1558 1.348 1_455 S
C1559 C1561 1.353 . S
C1559 H1600 0.929 . S
C1560 C1558 1.356 . S
C1560 C1562 1.358 . S
C1560 H1601 0.930 . S
C1561 C1559 1.353 . S
C1561 N1563 1.314 1_455 S
C1561 H1602 0.930 . S
C1562 C1560 1.358 . S
C1562 N1563 1.279 . S
C1562 H1603 0.930 . S
N1563 C1561 1.314 1_655 S
N1563 C1562 1.279 . S
C1564 C1566 1.353 . S
C1564 N1567 1.314 . S
C1564 H1570 0.930 . S
C1565 N1567 1.279 . S
C1565 C1568 1.358 . S
C1565 H1571 0.930 . S
C1566 C1564 1.353 . S
C1566 C1569 1.348 . S
C1566 H1604 0.929 . S
N1567 Li1522 1.990 . S
N1567 C1564 1.314 . S
N1567 C1565 1.279 . S
C1568 C1565 1.358 . S
C1568 C1569 1.356 . S
C1568 H1605 0.930 . S
C1569 C1566 1.348 . S
C1569 C1568 1.356 . S
H1570 C1564 0.930 . S
H1571 C1565 0.930 . S
C1572 N1573 1.314 . S
C1572 C1574 1.353 . S
C1572 H1578 0.930 . S
N1573 Li1523 1.993 . S
N1573 C1572 1.314 . S
N1573 C1576 1.279 . S
C1574 C1572 1.353 . S
C1574 C1577 1.348 . S
C1574 H1606 0.929 . S
C1575 C1576 1.358 . S
C1575 C1577 1.356 . S
C1575 H1607 0.930 . S
C1576 N1573 1.279 . S
C1576 C1575 1.358 . S
C1576 H1579 0.933 . S
C1577 C1574 1.348 . S
C1577 C1575 1.356 . S
H1578 C1572 0.930 . S
H1579 C1576 0.933 . S
O1580 Li1520 1.956 . S
O1580 Li1521 1.970 1_455 S
O1580 Li1522 1.961 . S
O1580 C1524 1.325 . S
O1581 Li1520 1.970 1_655 S
O1581 Li1521 1.956 . S
O1581 Li1523 1.972 . S
O1581 C1530 1.325 . S
O1582 Li1520 1.961 . S
O1582 Li1522 1.956 . S
O1582 Li1523 1.955 1_455 S
O1582 C1552 1.325 . S
O1583 Li1521 1.958 . S
O1583 Li1522 1.974 1_655 S
O1583 Li1523 1.956 . S
O1583 C1558 1.324 . S
H1584 C1526 0.929 . S
H1585 C1527 0.930 . S
H1586 C1528 0.930 . S
H1587 C1529 0.930 . S
H1588 C1531 0.930 . S
H1589 C1533 0.929 . S
H1590 C1534 0.930 . S
H1591 C1535 0.930 . S
H1592 C1538 0.930 . S
H1593 C1541 0.929 . S
H1594 C1546 0.929 . S
H1595 C1547 0.930 . S
H1596 C1554 0.929 . S
H1597 C1555 0.930 . S
H1598 C1556 0.930 . S
H1599 C1557 0.930 . S
H1600 C1559 0.929 . S
H1601 C1560 0.930 . S
H1602 C1561 0.930 . S
H1603 C1562 0.930 . S
H1604 C1566 0.929 . S
H1605 C1568 0.930 . S
H1606 C1574 0.929 . S
H1607 C1575 0.930 . S
Li1608 N1625 1.990 . S
Li1608 O1668 1.956 . S
Li1608 O1669 1.970 . S
Li1608 O1670 1.961 . S
Li1609 N1633 1.990 . S
Li1609 O1668 1.970 . S
Li1609 O1669 1.956 . S
Li1609 O1671 1.961 . S
Li1610 N1655 1.990 . S
Li1610 O1668 1.961 . S
Li1610 O1670 1.956 . S
Li1610 O1671 1.970 . S
Li1611 N1661 1.990 . S
Li1611 O1669 1.961 . S
Li1611 O1670 1.970 . S
Li1611 O1671 1.956 . S
C1612 C1614 1.348 . S
C1612 C1615 1.356 . S
C1612 O1668 1.325 . S
N1613 C1616 1.314 . S
N1613 C1617 1.279 . S
C1614 C1612 1.348 . S
C1614 C1616 1.353 . S
C1614 H1672 0.929 . S
C1615 C1612 1.356 . S
C1615 C1617 1.358 . S
C1615 H1673 0.930 . S
C1616 N1613 1.314 . S
C1616 C1614 1.353 . S
C1616 H1674 0.930 . S
C1617 N1613 1.279 . S
C1617 C1615 1.358 . S
C1617 H1675 0.930 . S
C1618 C1621 1.348 . S
C1618 C1622 1.356 . S
C1618 O1669 1.325 . S
C1619 N1620 1.279 . S
C1619 C1622 1.358 . S
C1619 H1676 0.930 . S
N1620 C1619 1.279 . S
N1620 C1623 1.314 . S
C1621 C1618 1.348 . S
C1621 C1623 1.353 . S
C1621 H1677 0.929 . S
C1622 C1618 1.356 . S
C1622 C1619 1.358 . S
C1622 H1678 0.930 . S
C1623 N1620 1.314 . S
C1623 C1621 1.353 . S
C1623 H1679 0.930 . S
C1624 N1625 1.314 . S
C1624 C1629 1.353 . S
C1624 H1630 0.930 . S
N1625 Li1608 1.990 . S
N1625 C1624 1.314 . S
N1625 C1627 1.279 . S
C1626 C1627 1.358 . S
C1626 C1628 1.356 . S
C1626 H1680 0.930 . S
C1627 N1625 1.279 . S
C1627 C1626 1.358 . S
C1627 H1631 0.930 . S
C1628 C1626 1.356 . S
C1628 C1629 1.348 . S
C1629 C1624 1.353 . S
C1629 C1628 1.348 . S
C1629 H1681 0.929 . S
H1630 C1624 0.930 . S
H1631 C1627 0.930 . S
C1632 N1633 1.314 . S
C1632 C1634 1.353 . S
C1632 H1638 0.930 . S
N1633 Li1609 1.990 . S
N1633 C1632 1.314 . S
N1633 C1636 1.279 . S
C1634 C1632 1.353 . S
C1634 C1637 1.348 . S
C1634 H1682 0.929 . S
C1635 C1636 1.358 . S
C1635 C1637 1.356 . S
C1635 H1683 0.930 . S
C1636 N1633 1.279 . S
C1636 C1635 1.358 . S
C1636 H1639 0.930 . S
C1637 C1634 1.348 . S
C1637 C1635 1.356 . S
H1638 C1632 0.930 . S
H1639 C1636 0.930 . S
C1640 C1642 1.348 . S
C1640 C1643 1.356 . S
C1640 O1670 1.325 . S
N1641 C1644 1.314 . S
N1641 C1645 1.279 . S
C1642 C1640 1.348 . S
C1642 C1644 1.353 . S
C1642 H1684 0.929 . S
C1643 C1640 1.356 . S
C1643 C1645 1.358 . S
C1643 H1685 0.930 . S
C1644 N1641 1.314 . S
C1644 C1642 1.353 . S
C1644 H1686 0.930 . S
C1645 N1641 1.279 . S
C1645 C1643 1.358 . S
C1645 H1687 0.930 . S
C1646 C1647 1.348 . S
C1646 C1648 1.356 . S
C1646 O1671 1.325 . S
C1647 C1646 1.348 . S
C1647 C1649 1.353 . S
C1647 H1688 0.929 . S
C1648 C1646 1.356 . S
C1648 C1650 1.358 . S
C1648 H1689 0.930 . S
C1649 C1647 1.353 . S
C1649 N1651 1.314 . S
C1649 H1690 0.930 . S
C1650 C1648 1.358 . S
C1650 N1651 1.279 . S
C1650 H1691 0.930 . S
N1651 C1649 1.314 . S
N1651 C1650 1.279 . S
C1652 C1654 1.353 . S
C1652 N1655 1.314 . S
C1652 H1658 0.930 . S
C1653 N1655 1.279 . S
C1653 C1656 1.358 . S
C1653 H1659 0.930 . S
C1654 C1652 1.353 . S
C1654 C1657 1.348 . S
C1654 H1692 0.929 . S
N1655 Li1610 1.990 . S
N1655 C1652 1.314 . S
N1655 C1653 1.279 . S
C1656 C1653 1.358 . S
C1656 C1657 1.356 . S
C1656 H1693 0.930 . S
C1657 C1654 1.348 . S
C1657 C1656 1.356 . S
H1658 C1652 0.930 . S
H1659 C1653 0.930 . S
C1660 N1661 1.314 . S
C1660 C1662 1.353 . S
C1660 H1666 0.930 . S
N1661 Li1611 1.990 . S
N1661 C1660 1.314 . S
N1661 C1664 1.279 . S
C1662 C1660 1.353 . S
C1662 C1665 1.348 . S
C1662 H1694 0.929 . S
C1663 C1664 1.358 . S
C1663 C1665 1.356 . S
C1663 H1695 0.930 . S
C1664 N1661 1.279 . S
C1664 C1663 1.358 . S
C1664 H1667 0.930 . S
C1665 C1662 1.348 . S
C1665 C1663 1.356 . S
H1666 C1660 0.930 . S
H1667 C1664 0.930 . S
O1668 Li1608 1.956 . S
O1668 Li1609 1.970 . S
O1668 Li1610 1.961 . S
O1668 C1612 1.325 . S
O1669 Li1608 1.970 . S
O1669 Li1609 1.956 . S
O1669 Li1611 1.961 . S
O1669 C1618 1.325 . S
O1670 Li1608 1.961 . S
O1670 Li1610 1.956 . S
O1670 Li1611 1.970 . S
O1670 C1640 1.325 . S
O1671 Li1609 1.961 . S
O1671 Li1610 1.970 . S
O1671 Li1611 1.956 . S
O1671 C1646 1.325 . S
H1672 C1614 0.929 . S
H1673 C1615 0.930 . S
H1674 C1616 0.930 . S
H1675 C1617 0.930 . S
H1676 C1619 0.930 . S
H1677 C1621 0.929 . S
H1678 C1622 0.930 . S
H1679 C1623 0.930 . S
H1680 C1626 0.930 . S
H1681 C1629 0.929 . S
H1682 C1634 0.929 . S
H1683 C1635 0.930 . S
H1684 C1642 0.929 . S
H1685 C1643 0.930 . S
H1686 C1644 0.930 . S
H1687 C1645 0.930 . S
H1688 C1647 0.929 . S
H1689 C1648 0.930 . S
H1690 C1649 0.930 . S
H1691 C1650 0.930 . S
H1692 C1654 0.929 . S
H1693 C1656 0.930 . S
H1694 C1662 0.929 . S
H1695 C1663 0.930 . S
H1696 C1704 0.929 . S
H1697 C1706 0.930 . S
H1698 C1708 0.930 . S
H1699 C1711 0.929 . S
H1700 C1714 0.930 . S
H1701 C1716 0.960 . S
H1702 C1716 0.960 . S
H1703 C1716 0.960 . S
C1704 H1696 0.929 . S
C1704 C1705 1.377 . S
C1704 C1706 1.384 . S
C1705 C1704 1.377 . S
C1705 C1711 1.390 . S
C1706 H1697 0.930 . S
C1706 C1704 1.384 . S
C1706 C1707 1.372 . S
C1707 C1706 1.372 . S
C1707 C1708 1.400 . S
C1707 C1712 1.490 . S
C1708 H1698 0.930 . S
C1708 C1707 1.400 . S
C1708 C1711 1.386 . S
H1709 C1725 0.930 . S
H1710 C1726 0.931 . S
C1711 H1699 0.929 . S
C1711 C1705 1.390 . S
C1711 C1708 1.386 . S
C1712 C1707 1.490 . S
C1712 C1714 1.395 . S
C1712 C1715 1.403 . S
H1713 C1719 0.930 . S
C1714 H1700 0.930 . S
C1714 C1712 1.395 . S
C1714 C1717 1.403 . S
C1715 C1712 1.403 . S
C1715 C1716 1.524 . S
C1715 C1719 1.400 . S
C1716 H1701 0.960 . S
C1716 H1702 0.960 . S
C1716 H1703 0.960 . S
C1716 C1715 1.524 . S
C1717 C1714 1.403 . S
C1717 C1718 1.392 . S
C1717 C1721 1.495 . S
C1718 C1717 1.392 . S
C1718 C1719 1.385 . S
C1718 C1720 1.478 . S
C1719 H1713 0.930 . S
C1719 C1715 1.400 . S
C1719 C1718 1.385 . S
C1720 C1718 1.478 . S
C1720 C1722 1.381 . S
C1720 C1726 1.383 . S
C1721 C1717 1.495 . S
C1721 H1727 0.959 . S
C1721 H1728 0.961 . S
C1721 H1729 0.960 . S
C1722 C1720 1.381 . S
C1722 C1723 1.394 . S
C1722 H1730 0.930 . S
C1723 C1722 1.394 . S
C1723 C1724 1.383 . S
C1723 H1731 0.929 . S
C1724 C1723 1.383 . S
C1724 C1725 1.377 . S
C1725 H1709 0.930 . S
C1725 C1724 1.377 . S
C1725 C1726 1.379 . S
C1726 H1710 0.931 . S
C1726 C1720 1.383 . S
C1726 C1725 1.379 . S
H1727 C1721 0.959 . S
H1728 C1721 0.961 . S
H1729 C1721 0.960 . S
H1730 C1722 0.930 . S
H1731 C1723 0.929 . S
H1732 C1740 0.929 . S
H1733 C1742 0.930 . S
H1734 C1744 0.930 . S
H1735 C1747 0.929 . S
H1736 C1750 0.930 . S
H1737 C1752 0.960 . S
H1738 C1752 0.960 . S
H1739 C1752 0.960 . S
C1740 H1732 0.929 . S
C1740 C1741 1.377 . S
C1740 C1742 1.384 . S
C1741 C1740 1.377 . S
C1741 C1747 1.390 . S
C1742 H1733 0.930 . S
C1742 C1740 1.384 . S
C1742 C1743 1.372 . S
C1743 C1742 1.372 . S
C1743 C1744 1.400 . S
C1743 C1748 1.490 . S
C1744 H1734 0.930 . S
C1744 C1743 1.400 . S
C1744 C1747 1.386 . S
H1745 C1761 0.930 . S
H1746 C1762 0.931 . S
C1747 H1735 0.929 . S
C1747 C1741 1.390 . S
C1747 C1744 1.386 . S
C1748 C1743 1.490 . S
C1748 C1750 1.395 . S
C1748 C1751 1.403 . S
H1749 C1755 0.930 . S
C1750 H1736 0.930 . S
C1750 C1748 1.395 . S
C1750 C1753 1.403 . S
C1751 C1748 1.403 . S
C1751 C1752 1.524 . S
C1751 C1755 1.400 . S
C1752 H1737 0.960 . S
C1752 H1738 0.960 . S
C1752 H1739 0.960 . S
C1752 C1751 1.524 . S
C1753 C1750 1.403 . S
C1753 C1754 1.392 . S
C1753 C1757 1.495 . S
C1754 C1753 1.392 . S
C1754 C1755 1.385 . S
C1754 C1756 1.478 . S
C1755 H1749 0.930 . S
C1755 C1751 1.400 . S
C1755 C1754 1.385 . S
C1756 C1754 1.478 . S
C1756 C1758 1.381 . S
C1756 C1762 1.383 . S
C1757 C1753 1.495 . S
C1757 H1763 0.959 . S
C1757 H1764 0.961 . S
C1757 H1765 0.960 . S
C1758 C1756 1.381 . S
C1758 C1759 1.394 . S
C1758 H1766 0.930 . S
C1759 C1758 1.394 . S
C1759 C1760 1.383 . S
C1759 H1767 0.929 . S
C1760 C1759 1.383 . S
C1760 C1761 1.377 . S
C1761 H1745 0.930 . S
C1761 C1760 1.377 . S
C1761 C1762 1.379 . S
C1762 H1746 0.931 . S
C1762 C1756 1.383 . S
C1762 C1761 1.379 . S
H1763 C1757 0.959 . S
H1764 C1757 0.961 . S
H1765 C1757 0.960 . S
H1766 C1758 0.930 . S
H1767 C1759 0.929 . S
H1768 C1776 0.929 . S
H1769 C1778 0.930 . S
H1770 C1780 0.930 . S
H1771 C1783 0.929 . S
H1772 C1786 0.930 . S
H1773 C1788 0.960 . S
H1774 C1788 0.960 . S
H1775 C1788 0.960 . S
C1776 H1768 0.929 . S
C1776 C1777 1.377 . S
C1776 C1778 1.384 . S
C1777 C1776 1.377 . S
C1777 C1783 1.390 . S
C1778 H1769 0.930 . S
C1778 C1776 1.384 . S
C1778 C1779 1.372 . S
C1779 C1778 1.372 . S
C1779 C1780 1.400 . S
C1779 C1784 1.490 . S
C1780 H1770 0.930 . S
C1780 C1779 1.400 . S
C1780 C1783 1.386 . S
H1781 C1797 0.930 . S
H1782 C1798 0.931 . S
C1783 H1771 0.929 . S
C1783 C1777 1.390 . S
C1783 C1780 1.386 . S
C1784 C1779 1.490 . S
C1784 C1786 1.395 . S
C1784 C1787 1.403 . S
H1785 C1791 0.930 . S
C1786 H1772 0.930 . S
C1786 C1784 1.395 . S
C1786 C1789 1.403 . S
C1787 C1784 1.403 . S
C1787 C1788 1.524 . S
C1787 C1791 1.400 . S
C1788 H1773 0.960 . S
C1788 H1774 0.960 . S
C1788 H1775 0.960 . S
C1788 C1787 1.524 . S
C1789 C1786 1.403 . S
C1789 C1790 1.392 . S
C1789 C1793 1.495 . S
C1790 C1789 1.392 . S
C1790 C1791 1.385 . S
C1790 C1792 1.478 . S
C1791 H1785 0.930 . S
C1791 C1787 1.400 . S
C1791 C1790 1.385 . S
C1792 C1790 1.478 . S
C1792 C1794 1.381 . S
C1792 C1798 1.383 . S
C1793 C1789 1.495 . S
C1793 H1799 0.959 . S
C1793 H1800 0.961 . S
C1793 H1801 0.960 . S
C1794 C1792 1.381 . S
C1794 C1795 1.394 . S
C1794 H1802 0.930 . S
C1795 C1794 1.394 . S
C1795 C1796 1.383 . S
C1795 H1803 0.929 . S
C1796 C1795 1.383 . S
C1796 C1797 1.377 . S
C1797 H1781 0.930 . S
C1797 C1796 1.377 . S
C1797 C1798 1.379 . S
C1798 H1782 0.931 . S
C1798 C1792 1.383 . S
C1798 C1797 1.379 . S
H1799 C1793 0.959 . S
H1800 C1793 0.961 . S
H1801 C1793 0.960 . S
H1802 C1794 0.930 . S
H1803 C1795 0.929 . S
H1804 C1812 0.929 . S
H1805 C1814 0.930 . S
H1806 C1816 0.970 . S
H1807 C1819 0.929 . S
H1808 C1822 0.930 . S
H1809 C1824 0.960 . S
H1810 C1824 0.960 . S
H1811 C1824 0.960 . S
C1812 H1804 0.929 . S
C1812 C1813 1.377 . S
C1812 C1814 1.384 . S
C1813 C1812 1.377 . S
C1813 C1819 1.390 . S
C1814 H1805 0.930 . S
C1814 C1812 1.384 . S
C1814 C1815 1.372 . S
C1815 C1814 1.372 . S
C1815 C1816 1.400 . S
C1815 C1820 1.490 . S
C1816 H1806 0.970 . S
C1816 C1815 1.400 . S
C1816 C1819 1.386 . S
H1817 C1833 0.930 . S
H1818 C1834 0.939 . S
C1819 H1807 0.929 . S
C1819 C1813 1.390 . S
C1819 C1816 1.386 . S
C1820 C1815 1.490 . S
C1820 C1822 1.395 . S
C1820 C1823 1.403 . S
H1821 C1827 0.930 . S
C1822 H1808 0.930 . S
C1822 C1820 1.395 . S
C1822 C1825 1.403 . S
C1823 C1820 1.403 . S
C1823 C1824 1.524 . S
C1823 C1827 1.400 . S
C1824 H1809 0.960 . S
C1824 H1810 0.960 . S
C1824 H1811 0.960 . S
C1824 C1823 1.524 . S
C1825 C1822 1.403 . S
C1825 C1826 1.392 . S
C1825 C1829 1.495 . S
C1826 C1825 1.392 . S
C1826 C1827 1.385 . S
C1826 C1828 1.478 . S
C1827 H1821 0.930 . S
C1827 C1823 1.400 . S
C1827 C1826 1.385 . S
C1828 C1826 1.478 . S
C1828 C1830 1.381 . S
C1828 C1834 1.373 1_565 S
C1829 C1825 1.495 . S
C1829 H1835 0.959 . S
C1829 H1836 0.961 . S
C1829 H1837 0.960 . S
C1830 C1828 1.381 . S
C1830 C1831 1.394 . S
C1830 H1838 0.930 . S
C1831 C1830 1.394 . S
C1831 C1832 1.383 . S
C1831 H1839 0.929 . S
C1832 C1831 1.383 . S
C1832 C1833 1.377 1_565 S
C1833 H1817 0.930 . S
C1833 C1832 1.377 1_545 S
C1833 C1834 1.381 . S
C1834 H1818 0.939 . S
C1834 C1828 1.373 1_545 S
C1834 C1833 1.381 . S
H1835 C1829 0.959 . S
H1836 C1829 0.961 . S
H1837 C1829 0.960 . S
H1838 C1830 0.930 . S
H1839 C1831 0.929 . S
H1840 C1848 0.929 . S
H1841 C1850 0.930 . S
H1842 C1852 0.930 . S
H1843 C1855 0.929 . S
H1844 C1858 0.930 . S
H1845 C1860 0.960 . S
H1846 C1860 0.960 . S
H1847 C1860 0.960 . S
C1848 H1840 0.929 . S
C1848 C1849 1.377 . S
C1848 C1850 1.384 . S
C1849 C1848 1.377 . S
C1849 C1855 1.390 . S
C1850 H1841 0.930 . S
C1850 C1848 1.384 . S
C1850 C1851 1.372 . S
C1851 C1850 1.372 . S
C1851 C1852 1.400 . S
C1851 C1856 1.490 . S
C1852 H1842 0.930 . S
C1852 C1851 1.400 . S
C1852 C1855 1.386 . S
H1853 C1869 0.930 . S
H1854 C1870 0.931 . S
C1855 H1843 0.929 . S
C1855 C1849 1.390 . S
C1855 C1852 1.386 . S
C1856 C1851 1.490 . S
C1856 C1858 1.395 . S
C1856 C1859 1.403 . S
H1857 C1863 0.930 . S
C1858 H1844 0.930 . S
C1858 C1856 1.395 . S
C1858 C1861 1.403 . S
C1859 C1856 1.403 . S
C1859 C1860 1.524 . S
C1859 C1863 1.400 . S
C1860 H1845 0.960 . S
C1860 H1846 0.960 . S
C1860 H1847 0.960 . S
C1860 C1859 1.524 . S
C1861 C1858 1.403 . S
C1861 C1862 1.392 . S
C1861 C1865 1.495 . S
C1862 C1861 1.392 . S
C1862 C1863 1.385 . S
C1862 C1864 1.478 . S
C1863 H1857 0.930 . S
C1863 C1859 1.400 . S
C1863 C1862 1.385 . S
C1864 C1862 1.478 . S
C1864 C1866 1.381 . S
C1864 C1870 1.383 . S
C1865 C1861 1.495 . S
C1865 H1871 0.959 . S
C1865 H1872 0.961 . S
C1865 H1873 0.960 . S
C1866 C1864 1.381 . S
C1866 C1867 1.394 . S
C1866 H1874 0.930 . S
C1867 C1866 1.394 . S
C1867 C1868 1.383 . S
C1867 H1875 0.929 . S
C1868 C1867 1.383 . S
C1868 C1869 1.377 . S
C1869 H1853 0.930 . S
C1869 C1868 1.377 . S
C1869 C1870 1.379 . S
C1870 H1854 0.931 . S
C1870 C1864 1.383 . S
C1870 C1869 1.379 . S
H1871 C1865 0.959 . S
H1872 C1865 0.961 . S
H1873 C1865 0.960 . S
H1874 C1866 0.930 . S
H1875 C1867 0.929 . S
H1876 C1884 0.929 . S
H1877 C1886 0.930 . S
H1878 C1888 0.930 . S
H1879 C1891 0.929 . S
H1880 C1894 0.930 . S
H1881 C1896 0.960 . S
H1882 C1896 0.960 . S
H1883 C1896 0.960 . S
C1884 H1876 0.929 . S
C1884 C1885 1.377 . S
C1884 C1886 1.384 . S
C1885 C1884 1.377 . S
C1885 C1891 1.390 . S
C1886 H1877 0.930 . S
C1886 C1884 1.384 . S
C1886 C1887 1.372 . S
C1887 C1886 1.372 . S
C1887 C1888 1.400 . S
C1887 C1892 1.490 . S
C1888 H1878 0.930 . S
C1888 C1887 1.400 . S
C1888 C1891 1.386 . S
H1889 C1905 0.930 . S
H1890 C1906 0.931 . S
C1891 H1879 0.929 . S
C1891 C1885 1.390 . S
C1891 C1888 1.386 . S
C1892 C1887 1.490 . S
C1892 C1894 1.395 . S
C1892 C1895 1.403 . S
H1893 C1899 0.930 . S
C1894 H1880 0.930 . S
C1894 C1892 1.395 . S
C1894 C1897 1.403 . S
C1895 C1892 1.403 . S
C1895 C1896 1.524 . S
C1895 C1899 1.400 . S
C1896 H1881 0.960 . S
C1896 H1882 0.960 . S
C1896 H1883 0.960 . S
C1896 C1895 1.524 . S
C1897 C1894 1.403 . S
C1897 C1898 1.392 . S
C1897 C1901 1.495 . S
C1898 C1897 1.392 . S
C1898 C1899 1.385 . S
C1898 C1900 1.478 . S
C1899 H1893 0.930 . S
C1899 C1895 1.400 . S
C1899 C1898 1.385 . S
C1900 C1898 1.478 . S
C1900 C1902 1.381 . S
C1900 C1906 1.383 . S
C1901 C1897 1.495 . S
C1901 H1907 0.959 . S
C1901 H1908 0.961 . S
C1901 H1909 0.960 . S
C1902 C1900 1.381 . S
C1902 C1903 1.394 . S
C1902 H1910 0.930 . S
C1903 C1902 1.394 . S
C1903 C1904 1.383 . S
C1903 H1911 0.929 . S
C1904 C1903 1.383 . S
C1904 C1905 1.377 . S
C1905 H1889 0.930 . S
C1905 C1904 1.377 . S
C1905 C1906 1.379 . S
C1906 H1890 0.931 . S
C1906 C1900 1.383 . S
C1906 C1905 1.379 . S
H1907 C1901 0.959 . S
H1908 C1901 0.961 . S
H1909 C1901 0.960 . S
H1910 C1902 0.930 . S
H1911 C1903 0.929 . S
H1912 C1920 0.929 . S
H1913 C1922 0.930 . S
H1914 C1924 0.930 . S
H1915 C1927 0.929 . S
H1916 C1930 0.930 . S
H1917 C1932 0.960 . S
H1918 C1932 0.960 . S
H1919 C1932 0.960 . S
C1920 H1912 0.929 . S
C1920 C1921 1.377 . S
C1920 C1922 1.384 . S
C1921 C1920 1.377 . S
C1921 C1927 1.390 . S
C1922 H1913 0.930 . S
C1922 C1920 1.384 . S
C1922 C1923 1.372 . S
C1923 C1922 1.372 . S
C1923 C1924 1.400 . S
C1923 C1928 1.490 . S
C1924 H1914 0.930 . S
C1924 C1923 1.400 . S
C1924 C1927 1.386 . S
H1925 C1941 0.930 . S
H1926 C1942 0.931 . S
C1927 H1915 0.929 . S
C1927 C1921 1.390 . S
C1927 C1924 1.386 . S
C1928 C1923 1.490 . S
C1928 C1930 1.395 . S
C1928 C1931 1.403 . S
H1929 C1935 0.930 . S
C1930 H1916 0.930 . S
C1930 C1928 1.395 . S
C1930 C1933 1.403 . S
C1931 C1928 1.403 . S
C1931 C1932 1.524 . S
C1931 C1935 1.400 . S
C1932 H1917 0.960 . S
C1932 H1918 0.960 . S
C1932 H1919 0.960 . S
C1932 C1931 1.524 . S
C1933 C1930 1.403 . S
C1933 C1934 1.392 . S
C1933 C1937 1.495 . S
C1934 C1933 1.392 . S
C1934 C1935 1.385 . S
C1934 C1936 1.478 . S
C1935 H1929 0.930 . S
C1935 C1931 1.400 . S
C1935 C1934 1.385 . S
C1936 C1934 1.478 . S
C1936 C1938 1.381 . S
C1936 C1942 1.383 . S
C1937 C1933 1.495 . S
C1937 H1943 0.959 . S
C1937 H1944 0.961 . S
C1937 H1945 0.960 . S
C1938 C1936 1.381 . S
C1938 C1939 1.394 . S
C1938 H1946 0.930 . S
C1939 C1938 1.394 . S
C1939 C1940 1.383 . S
C1939 H1947 0.929 . S
C1940 C1939 1.383 . S
C1940 C1941 1.377 . S
C1941 H1925 0.930 . S
C1941 C1940 1.377 . S
C1941 C1942 1.379 . S
C1942 H1926 0.931 . S
C1942 C1936 1.383 . S
C1942 C1941 1.379 . S
H1943 C1937 0.959 . S
H1944 C1937 0.961 . S
H1945 C1937 0.960 . S
H1946 C1938 0.930 . S
H1947 C1939 0.929 . S
H1948 C1956 0.929 . S
H1949 C1958 0.930 . S
H1950 C1960 0.930 . S
H1951 C1963 0.929 . S
H1952 C1966 0.930 . S
H1953 C1968 0.960 . S
H1954 C1968 0.960 . S
H1955 C1968 0.960 . S
C1956 H1948 0.929 . S
C1956 C1957 1.377 . S
C1956 C1958 1.384 . S
C1957 C1956 1.377 . S
C1957 C1963 1.390 . S
C1958 H1949 0.930 . S
C1958 C1956 1.384 . S
C1958 C1959 1.372 . S
C1959 C1958 1.372 . S
C1959 C1960 1.400 . S
C1959 C1964 1.490 . S
C1960 H1950 0.930 . S
C1960 C1959 1.400 . S
C1960 C1963 1.386 . S
H1961 C1977 0.930 . S
H1962 C1978 0.931 . S
C1963 H1951 0.929 . S
C1963 C1957 1.390 . S
C1963 C1960 1.386 . S
C1964 C1959 1.490 . S
C1964 C1966 1.395 . S
C1964 C1967 1.403 . S
H1965 C1971 0.930 1_545 S
C1966 H1952 0.930 . S
C1966 C1964 1.395 . S
C1966 C1969 1.403 . S
C1967 C1964 1.403 . S
C1967 C1968 1.524 1_565 S
C1967 C1971 1.400 . S
C1968 H1953 0.960 . S
C1968 H1954 0.960 . S
C1968 H1955 0.960 . S
C1968 C1967 1.524 1_545 S
C1969 C1966 1.403 . S
C1969 C1970 1.392 . S
C1969 C1973 1.495 . S
C1970 C1969 1.392 . S
C1970 C1971 1.385 . S
C1970 C1972 1.478 . S
C1971 H1965 0.930 1_565 S
C1971 C1967 1.400 . S
C1971 C1970 1.385 . S
C1972 C1970 1.478 . S
C1972 C1974 1.381 . S
C1972 C1978 1.383 . S
C1973 C1969 1.495 . S
C1973 H1979 0.959 . S
C1973 H1980 0.961 . S
C1973 H1981 0.960 . S
C1974 C1972 1.381 . S
C1974 C1975 1.394 . S
C1974 H1982 0.930 . S
C1975 C1974 1.394 . S
C1975 C1976 1.383 . S
C1975 H1983 0.929 . S
C1976 C1975 1.383 . S
C1976 C1977 1.377 . S
C1977 H1961 0.930 . S
C1977 C1976 1.377 . S
C1977 C1978 1.379 . S
C1978 H1962 0.931 . S
C1978 C1972 1.383 . S
C1978 C1977 1.379 . S
H1979 C1973 0.959 . S
H1980 C1973 0.961 . S
H1981 C1973 0.960 . S
H1982 C1974 0.930 . S
H1983 C1975 0.929 . S
H1984 C1992 0.929 . S
H1985 C1994 0.930 . S
H1986 C1996 0.930 . S
H1987 C1999 0.929 . S
H1988 C2002 0.930 . S
H1989 C2004 0.960 . S
H1990 C2004 0.960 . S
H1991 C2004 0.960 . S
C1992 H1984 0.929 . S
C1992 C1993 1.377 . S
C1992 C1994 1.384 . S
C1993 C1992 1.377 . S
C1993 C1999 1.390 . S
C1994 H1985 0.930 . S
C1994 C1992 1.384 . S
C1994 C1995 1.372 . S
C1995 C1994 1.372 . S
C1995 C1996 1.400 . S
C1995 C2000 1.490 . S
C1996 H1986 0.930 . S
C1996 C1995 1.400 . S
C1996 C1999 1.386 . S
H1997 C2013 0.930 . S
H1998 C2014 0.931 . S
C1999 H1987 0.929 . S
C1999 C1993 1.390 . S
C1999 C1996 1.386 . S
C2000 C1995 1.490 . S
C2000 C2002 1.395 . S
C2000 C2003 1.403 . S
H2001 C2007 0.930 . S
C2002 H1988 0.930 . S
C2002 C2000 1.395 . S
C2002 C2005 1.403 . S
C2003 C2000 1.403 . S
C2003 C2004 1.524 . S
C2003 C2007 1.400 . S
C2004 H1989 0.960 . S
C2004 H1990 0.960 . S
C2004 H1991 0.960 . S
C2004 C2003 1.524 . S
C2005 C2002 1.403 . S
C2005 C2006 1.392 . S
C2005 C2009 1.495 . S
C2006 C2005 1.392 . S
C2006 C2007 1.385 . S
C2006 C2008 1.478 . S
C2007 H2001 0.930 . S
C2007 C2003 1.400 . S
C2007 C2006 1.385 . S
C2008 C2006 1.478 . S
C2008 C2010 1.381 . S
C2008 C2014 1.383 . S
C2009 C2005 1.495 . S
C2009 H2015 0.959 . S
C2009 H2016 0.961 . S
C2009 H2017 0.960 . S
C2010 C2008 1.381 . S
C2010 C2011 1.394 . S
C2010 H2018 0.930 . S
C2011 C2010 1.394 . S
C2011 C2012 1.383 . S
C2011 H2019 0.929 . S
C2012 C2011 1.383 . S
C2012 C2013 1.377 . S
C2013 H1997 0.930 . S
C2013 C2012 1.377 . S
C2013 C2014 1.379 . S
C2014 H1998 0.931 . S
C2014 C2008 1.383 . S
C2014 C2013 1.379 . S
H2015 C2009 0.959 . S
H2016 C2009 0.961 . S
H2017 C2009 0.960 . S
H2018 C2010 0.930 . S
H2019 C2011 0.929 . S
H2020 C2028 0.929 . S
H2021 C2030 0.930 . S
H2022 C2032 0.930 . S
H2023 C2035 0.929 . S
H2024 C2038 0.930 . S
H2025 C2040 0.960 . S
H2026 C2040 0.960 . S
H2027 C2040 0.960 . S
C2028 H2020 0.929 . S
C2028 C2029 1.377 . S
C2028 C2030 1.384 . S
C2029 C2028 1.377 . S
C2029 C2035 1.390 . S
C2030 H2021 0.930 . S
C2030 C2028 1.384 . S
C2030 C2031 1.372 . S
C2031 C2030 1.372 . S
C2031 C2032 1.400 . S
C2031 C2036 1.490 . S
C2032 H2022 0.930 . S
C2032 C2031 1.400 . S
C2032 C2035 1.386 . S
H2033 C2049 0.930 . S
H2034 C2050 0.931 . S
C2035 H2023 0.929 . S
C2035 C2029 1.390 . S
C2035 C2032 1.386 . S
C2036 C2031 1.490 . S
C2036 C2038 1.395 . S
C2036 C2039 1.403 . S
H2037 C2043 0.930 . S
C2038 H2024 0.930 . S
C2038 C2036 1.395 . S
C2038 C2041 1.403 . S
C2039 C2036 1.403 . S
C2039 C2040 1.524 . S
C2039 C2043 1.400 . S
C2040 H2025 0.960 . S
C2040 H2026 0.960 . S
C2040 H2027 0.960 . S
C2040 C2039 1.524 . S
C2041 C2038 1.403 . S
C2041 C2042 1.392 . S
C2041 C2045 1.495 . S
C2042 C2041 1.392 . S
C2042 C2043 1.385 . S
C2042 C2044 1.478 . S
C2043 H2037 0.930 . S
C2043 C2039 1.400 . S
C2043 C2042 1.385 . S
C2044 C2042 1.478 . S
C2044 C2046 1.381 . S
C2044 C2050 1.383 . S
C2045 C2041 1.495 . S
C2045 H2051 0.959 . S
C2045 H2052 0.961 . S
C2045 H2053 0.960 . S
C2046 C2044 1.381 . S
C2046 C2047 1.394 . S
C2046 H2054 0.930 . S
C2047 C2046 1.394 . S
C2047 C2048 1.383 . S
C2047 H2055 0.929 . S
C2048 C2047 1.383 . S
C2048 C2049 1.377 . S
C2049 H2033 0.930 . S
C2049 C2048 1.377 . S
C2049 C2050 1.379 . S
C2050 H2034 0.931 . S
C2050 C2044 1.383 . S
C2050 C2049 1.379 . S
H2051 C2045 0.959 . S
H2052 C2045 0.961 . S
H2053 C2045 0.960 . S
H2054 C2046 0.930 . S
H2055 C2047 0.929 . S
H2056 C2064 0.929 . S
H2057 C2066 0.930 . S
H2058 C2068 0.930 . S
H2059 C2071 0.929 . S
H2060 C2074 0.930 . S
H2061 C2076 0.960 . S
H2062 C2076 0.960 . S
H2063 C2076 0.960 . S
C2064 H2056 0.929 . S
C2064 C2065 1.377 . S
C2064 C2066 1.384 . S
C2065 C2064 1.377 . S
C2065 C2071 1.390 . S
C2066 H2057 0.930 . S
C2066 C2064 1.384 . S
C2066 C2067 1.372 . S
C2067 C2066 1.372 . S
C2067 C2068 1.400 . S
C2067 C2072 1.490 . S
C2068 H2058 0.930 . S
C2068 C2067 1.400 . S
C2068 C2071 1.386 . S
H2069 C2085 0.930 . S
H2070 C2086 0.931 . S
C2071 H2059 0.929 . S
C2071 C2065 1.390 . S
C2071 C2068 1.386 . S
C2072 C2067 1.490 . S
C2072 C2074 1.395 . S
C2072 C2075 1.403 . S
H2073 C2079 0.930 . S
C2074 H2060 0.930 . S
C2074 C2072 1.395 . S
C2074 C2077 1.403 . S
C2075 C2072 1.403 . S
C2075 C2076 1.524 . S
C2075 C2079 1.400 . S
C2076 H2061 0.960 . S
C2076 H2062 0.960 . S
C2076 H2063 0.960 . S
C2076 C2075 1.524 . S
C2077 C2074 1.403 . S
C2077 C2078 1.392 . S
C2077 C2081 1.495 . S
C2078 C2077 1.392 . S
C2078 C2079 1.385 . S
C2078 C2080 1.478 . S
C2079 H2073 0.930 . S
C2079 C2075 1.400 . S
C2079 C2078 1.385 . S
C2080 C2078 1.478 . S
C2080 C2082 1.381 . S
C2080 C2086 1.383 . S
C2081 C2077 1.495 . S
C2081 H2087 0.959 . S
C2081 H2088 0.961 . S
C2081 H2089 0.960 . S
C2082 C2080 1.381 . S
C2082 C2083 1.394 . S
C2082 H2090 0.930 . S
C2083 C2082 1.394 . S
C2083 C2084 1.383 . S
C2083 H2091 0.929 . S
C2084 C2083 1.383 . S
C2084 C2085 1.377 . S
C2085 H2069 0.930 . S
C2085 C2084 1.377 . S
C2085 C2086 1.379 . S
C2086 H2070 0.931 . S
C2086 C2080 1.383 . S
C2086 C2085 1.379 . S
H2087 C2081 0.959 . S
H2088 C2081 0.961 . S
H2089 C2081 0.960 . S
H2090 C2082 0.930 . S
H2091 C2083 0.929 . S
H2092 C2100 0.929 . S
H2093 C2102 0.930 . S
H2094 C2104 0.930 . S
H2095 C2107 0.929 . S
H2096 C2110 0.930 . S
H2097 C2112 0.960 . S
H2098 C2112 0.960 . S
H2099 C2112 0.960 . S
C2100 H2092 0.929 . S
C2100 C2101 1.377 . S
C2100 C2102 1.384 . S
C2101 C2100 1.377 . S
C2101 C2107 1.390 . S
C2102 H2093 0.930 . S
C2102 C2100 1.384 . S
C2102 C2103 1.372 . S
C2103 C2102 1.372 . S
C2103 C2104 1.400 . S
C2103 C2108 1.490 . S
C2104 H2094 0.930 . S
C2104 C2103 1.400 . S
C2104 C2107 1.386 . S
H2105 C2121 0.930 . S
H2106 C2122 0.931 . S
C2107 H2095 0.929 . S
C2107 C2101 1.390 . S
C2107 C2104 1.386 . S
C2108 C2103 1.490 . S
C2108 C2110 1.395 . S
C2108 C2111 1.403 . S
H2109 C2115 0.930 . S
C2110 H2096 0.930 . S
C2110 C2108 1.395 . S
C2110 C2113 1.403 . S
C2111 C2108 1.403 . S
C2111 C2112 1.524 . S
C2111 C2115 1.400 . S
C2112 H2097 0.960 . S
C2112 H2098 0.960 . S
C2112 H2099 0.960 . S
C2112 C2111 1.524 . S
C2113 C2110 1.403 . S
C2113 C2114 1.392 . S
C2113 C2117 1.495 . S
C2114 C2113 1.392 . S
C2114 C2115 1.385 . S
C2114 C2116 1.478 . S
C2115 H2109 0.930 . S
C2115 C2111 1.400 . S
C2115 C2114 1.385 . S
C2116 C2114 1.478 . S
C2116 C2118 1.381 . S
C2116 C2122 1.383 . S
C2117 C2113 1.495 . S
C2117 H2123 0.959 . S
C2117 H2124 0.961 . S
C2117 H2125 0.960 . S
C2118 C2116 1.381 . S
C2118 C2119 1.394 . S
C2118 H2126 0.930 . S
C2119 C2118 1.394 . S
C2119 C2120 1.383 . S
C2119 H2127 0.929 . S
C2120 C2119 1.383 . S
C2120 C2121 1.377 . S
C2121 H2105 0.930 . S
C2121 C2120 1.377 . S
C2121 C2122 1.379 . S
C2122 H2106 0.931 . S
C2122 C2116 1.383 . S
C2122 C2121 1.379 . S
H2123 C2117 0.959 . S
H2124 C2117 0.961 . S
H2125 C2117 0.960 . S
H2126 C2118 0.930 . S
H2127 C2119 0.929 . S
H2128 C2136 0.929 . S
H2129 C2138 0.930 . S
H2130 C2140 0.930 . S
H2131 C2143 0.929 . S
H2132 C2146 0.930 . S
H2133 C2148 0.960 . S
H2134 C2148 0.960 . S
H2135 C2148 0.960 . S
C2136 H2128 0.929 . S
C2136 C2137 1.377 . S
C2136 C2138 1.384 . S
C2137 C2136 1.377 . S
C2137 C2143 1.390 . S
C2138 H2129 0.930 . S
C2138 C2136 1.384 . S
C2138 C2139 1.372 . S
C2139 C2138 1.372 . S
C2139 C2140 1.400 . S
C2139 C2144 1.490 . S
C2140 H2130 0.930 . S
C2140 C2139 1.400 . S
C2140 C2143 1.386 . S
H2141 C2157 0.930 . S
H2142 C2158 0.931 . S
C2143 H2131 0.929 . S
C2143 C2137 1.390 . S
C2143 C2140 1.386 . S
C2144 C2139 1.490 . S
C2144 C2146 1.395 . S
C2144 C2147 1.403 . S
H2145 C2151 0.930 . S
C2146 H2132 0.930 . S
C2146 C2144 1.395 . S
C2146 C2149 1.403 . S
C2147 C2144 1.403 . S
C2147 C2148 1.524 . S
C2147 C2151 1.400 . S
C2148 H2133 0.960 . S
C2148 H2134 0.960 . S
C2148 H2135 0.960 . S
C2148 C2147 1.524 . S
C2149 C2146 1.403 . S
C2149 C2150 1.392 . S
C2149 C2153 1.495 . S
C2150 C2149 1.392 . S
C2150 C2151 1.385 . S
C2150 C2152 1.478 . S
C2151 H2145 0.930 . S
C2151 C2147 1.400 . S
C2151 C2150 1.385 . S
C2152 C2150 1.478 . S
C2152 C2154 1.381 . S
C2152 C2158 1.383 . S
C2153 C2149 1.495 . S
C2153 H2159 0.959 . S
C2153 H2160 0.961 . S
C2153 H2161 0.960 . S
C2154 C2152 1.381 . S
C2154 C2155 1.394 . S
C2154 H2162 0.930 . S
C2155 C2154 1.394 . S
C2155 C2156 1.383 . S
C2155 H2163 0.929 . S
C2156 C2155 1.383 . S
C2156 C2157 1.377 . S
C2157 H2141 0.930 . S
C2157 C2156 1.377 . S
C2157 C2158 1.379 . S
C2158 H2142 0.931 . S
C2158 C2152 1.383 . S
C2158 C2157 1.379 . S
H2159 C2153 0.959 . S
H2160 C2153 0.961 . S
H2161 C2153 0.960 . S
H2162 C2154 0.930 . S
H2163 C2155 0.929 . S
H2164 C2172 0.929 . S
H2165 C2174 0.930 . S
H2166 C2176 0.930 . S
H2167 C2179 0.929 . S
H2168 C2182 0.930 . S
H2169 C2184 0.960 . S
H2170 C2184 0.960 . S
H2171 C2184 0.960 . S
C2172 H2164 0.929 . S
C2172 C2173 1.377 . S
C2172 C2174 1.384 . S
C2173 C2172 1.377 . S
C2173 C2179 1.390 . S
C2174 H2165 0.930 . S
C2174 C2172 1.384 . S
C2174 C2175 1.372 . S
C2175 C2174 1.372 . S
C2175 C2176 1.400 . S
C2175 C2180 1.490 . S
C2176 H2166 0.930 . S
C2176 C2175 1.400 . S
C2176 C2179 1.386 . S
H2177 C2193 0.938 . S
H2178 C2194 0.931 . S
C2179 H2167 0.929 . S
C2179 C2173 1.390 . S
C2179 C2176 1.386 . S
C2180 C2175 1.490 . S
C2180 C2182 1.395 . S
C2180 C2183 1.403 . S
H2181 C2187 0.930 . S
C2182 H2168 0.930 . S
C2182 C2180 1.395 . S
C2182 C2185 1.403 . S
C2183 C2180 1.403 . S
C2183 C2184 1.524 . S
C2183 C2187 1.400 . S
C2184 H2169 0.960 . S
C2184 H2170 0.960 . S
C2184 H2171 0.960 . S
C2184 C2183 1.524 . S
C2185 C2182 1.403 . S
C2185 C2186 1.392 . S
C2185 C2189 1.494 1_455 S
C2186 C2185 1.392 . S
C2186 C2187 1.385 . S
C2186 C2188 1.478 . S
C2187 H2181 0.930 . S
C2187 C2183 1.400 . S
C2187 C2186 1.385 . S
C2188 C2186 1.478 . S
C2188 C2190 1.381 . S
C2188 C2194 1.383 . S
C2189 C2185 1.494 1_655 S
C2189 H2195 0.960 . S
C2189 H2196 0.962 . S
C2189 H2197 0.959 1_655 S
C2190 C2188 1.381 . S
C2190 C2191 1.394 . S
C2190 H2198 0.930 . S
C2191 C2190 1.394 . S
C2191 C2192 1.383 . S
C2191 H2199 0.929 . S
C2192 C2191 1.383 . S
C2192 C2193 1.377 . S
C2193 H2177 0.938 . S
C2193 C2192 1.377 . S
C2193 C2194 1.379 . S
C2194 H2178 0.931 . S
C2194 C2188 1.383 . S
C2194 C2193 1.379 . S
H2195 C2189 0.960 . S
H2196 C2189 0.962 . S
H2197 C2189 0.959 1_455 S
H2198 C2190 0.930 . S
H2199 C2191 0.929 . S
H2200 C2208 0.929 . S
H2201 C2210 0.930 . S
H2202 C2212 0.930 . S
H2203 C2215 0.929 . S
H2204 C2218 0.930 . S
H2205 C2220 0.960 . S
H2206 C2220 0.960 . S
H2207 C2220 0.960 . S
C2208 H2200 0.929 . S
C2208 C2209 1.377 . S
C2208 C2210 1.384 . S
C2209 C2208 1.377 . S
C2209 C2215 1.390 . S
C2210 H2201 0.930 . S
C2210 C2208 1.384 . S
C2210 C2211 1.372 . S
C2211 C2210 1.372 . S
C2211 C2212 1.400 . S
C2211 C2216 1.490 . S
C2212 H2202 0.930 . S
C2212 C2211 1.400 . S
C2212 C2215 1.386 . S
H2213 C2229 0.930 . S
H2214 C2230 0.931 . S
C2215 H2203 0.929 . S
C2215 C2209 1.390 . S
C2215 C2212 1.386 . S
C2216 C2211 1.490 . S
C2216 C2218 1.395 . S
C2216 C2219 1.403 . S
H2217 C2223 0.930 . S
C2218 H2204 0.930 . S
C2218 C2216 1.395 . S
C2218 C2221 1.403 . S
C2219 C2216 1.403 . S
C2219 C2220 1.524 . S
C2219 C2223 1.400 . S
C2220 H2205 0.960 . S
C2220 H2206 0.960 . S
C2220 H2207 0.960 . S
C2220 C2219 1.524 . S
C2221 C2218 1.403 . S
C2221 C2222 1.392 . S
C2221 C2225 1.495 . S
C2222 C2221 1.392 . S
C2222 C2223 1.385 . S
C2222 C2224 1.478 . S
C2223 H2217 0.930 . S
C2223 C2219 1.400 . S
C2223 C2222 1.385 . S
C2224 C2222 1.478 . S
C2224 C2226 1.381 . S
C2224 C2230 1.383 . S
C2225 C2221 1.495 . S
C2225 H2231 0.959 . S
C2225 H2232 0.961 . S
C2225 H2233 0.960 . S
C2226 C2224 1.381 . S
C2226 C2227 1.394 . S
C2226 H2234 0.930 . S
C2227 C2226 1.394 . S
C2227 C2228 1.383 . S
C2227 H2235 0.929 . S
C2228 C2227 1.383 . S
C2228 C2229 1.377 . S
C2229 H2213 0.930 . S
C2229 C2228 1.377 . S
C2229 C2230 1.379 . S
C2230 H2214 0.931 . S
C2230 C2224 1.383 . S
C2230 C2229 1.379 . S
H2231 C2225 0.959 . S
H2232 C2225 0.961 . S
H2233 C2225 0.960 . S
H2234 C2226 0.930 . S
H2235 C2227 0.929 . S
H2236 C2244 0.929 . S
H2237 C2246 0.877 1_455 S
H2238 C2248 0.930 . S
H2239 C2251 0.929 . S
H2240 C2254 0.934 1_455 S
H2241 C2256 0.960 . S
H2242 C2256 0.960 . S
H2243 C2256 0.960 . S
C2244 H2236 0.929 . S
C2244 C2245 1.377 . S
C2244 C2246 1.384 . S
C2245 C2244 1.377 . S
C2245 C2251 1.390 . S
C2246 H2237 0.877 1_655 S
C2246 C2244 1.384 . S
C2246 C2247 1.372 . S
C2247 C2246 1.372 . S
C2247 C2248 1.400 . S
C2247 C2252 1.490 . S
C2248 H2238 0.930 . S
C2248 C2247 1.400 . S
C2248 C2251 1.386 . S
H2249 C2265 0.930 . S
H2250 C2266 0.931 . S
C2251 H2239 0.929 . S
C2251 C2245 1.390 . S
C2251 C2248 1.386 . S
C2252 C2247 1.490 . S
C2252 C2254 1.389 . S
C2252 C2255 1.403 . S
H2253 C2259 0.930 . S
C2254 H2240 0.934 1_655 S
C2254 C2252 1.389 . S
C2254 C2257 1.404 1_655 S
C2255 C2252 1.403 . S
C2255 C2256 1.524 . S
C2255 C2259 1.400 . S
C2256 H2241 0.960 . S
C2256 H2242 0.960 . S
C2256 H2243 0.960 . S
C2256 C2255 1.524 . S
C2257 C2254 1.404 1_455 S
C2257 C2258 1.392 1_455 S
C2257 C2261 1.495 . S
C2258 C2257 1.392 1_655 S
C2258 C2259 1.385 . S
C2258 C2260 1.478 . S
C2259 H2253 0.930 . S
C2259 C2255 1.400 . S
C2259 C2258 1.385 . S
C2260 C2258 1.478 . S
C2260 C2262 1.381 1_655 S
C2260 C2266 1.383 . S
C2261 C2257 1.495 . S
C2261 H2267 0.959 . S
C2261 H2268 0.961 . S
C2261 H2269 0.960 . S
C2262 C2260 1.381 1_455 S
C2262 C2263 1.394 . S
C2262 H2270 0.930 . S
C2263 C2262 1.394 . S
C2263 C2264 1.383 1_455 S
C2263 H2271 0.929 . S
C2264 C2263 1.383 1_655 S
C2264 C2265 1.377 . S
C2265 H2249 0.930 . S
C2265 C2264 1.377 . S
C2265 C2266 1.379 . S
C2266 H2250 0.931 . S
C2266 C2260 1.383 . S
C2266 C2265 1.379 . S
H2267 C2261 0.959 . S
H2268 C2261 0.961 . S
H2269 C2261 0.960 . S
H2270 C2262 0.930 . S
H2271 C2263 0.929 . S
H2272 C2280 0.929 . S
H2273 C2282 0.930 . S
H2274 C2284 0.930 . S
H2275 C2287 0.929 . S
H2276 C2290 0.930 . S
H2277 C2292 0.960 . S
H2278 C2292 0.960 . S
H2279 C2292 0.960 . S
C2280 H2272 0.929 . S
C2280 C2281 1.377 . S
C2280 C2282 1.384 . S
C2281 C2280 1.377 . S
C2281 C2287 1.390 . S
C2282 H2273 0.930 . S
C2282 C2280 1.384 . S
C2282 C2283 1.372 . S
C2283 C2282 1.372 . S
C2283 C2284 1.400 . S
C2283 C2288 1.490 . S
C2284 H2274 0.930 . S
C2284 C2283 1.400 . S
C2284 C2287 1.386 . S
H2285 C2301 0.930 . S
H2286 C2302 0.931 . S
C2287 H2275 0.929 . S
C2287 C2281 1.390 . S
C2287 C2284 1.386 . S
C2288 C2283 1.490 . S
C2288 C2290 1.395 . S
C2288 C2291 1.403 . S
H2289 C2295 0.930 . S
C2290 H2276 0.930 . S
C2290 C2288 1.395 . S
C2290 C2293 1.403 . S
C2291 C2288 1.403 . S
C2291 C2292 1.524 . S
C2291 C2295 1.400 . S
C2292 H2277 0.960 . S
C2292 H2278 0.960 . S
C2292 H2279 0.960 . S
C2292 C2291 1.524 . S
C2293 C2290 1.403 . S
C2293 C2294 1.392 . S
C2293 C2297 1.495 . S
C2294 C2293 1.392 . S
C2294 C2295 1.385 . S
C2294 C2296 1.478 . S
C2295 H2289 0.930 . S
C2295 C2291 1.400 . S
C2295 C2294 1.385 . S
C2296 C2294 1.478 . S
C2296 C2298 1.381 . S
C2296 C2302 1.383 . S
C2297 C2293 1.495 . S
C2297 H2303 0.959 . S
C2297 H2304 0.961 . S
C2297 H2305 0.960 . S
C2298 C2296 1.381 . S
C2298 C2299 1.394 . S
C2298 H2306 0.930 . S
C2299 C2298 1.394 . S
C2299 C2300 1.383 . S
C2299 H2307 0.929 . S
C2300 C2299 1.383 . S
C2300 C2301 1.377 . S
C2301 H2285 0.930 . S
C2301 C2300 1.377 . S
C2301 C2302 1.379 . S
C2302 H2286 0.931 . S
C2302 C2296 1.383 . S
C2302 C2301 1.379 . S
H2303 C2297 0.959 . S
H2304 C2297 0.961 . S
H2305 C2297 0.960 . S
H2306 C2298 0.930 . S
H2307 C2299 0.929 . S
H2308 C2316 0.929 . S
H2309 C2318 0.930 . S
H2310 C2320 0.930 . S
H2311 C2323 0.929 . S
H2312 C2326 0.930 . S
H2313 C2328 0.960 . S
H2314 C2328 0.960 . S
H2315 C2328 0.960 . S
C2316 H2308 0.929 . S
C2316 C2317 1.377 . S
C2316 C2318 1.384 . S
C2317 C2316 1.377 . S
C2317 C2323 1.390 . S
C2318 H2309 0.930 . S
C2318 C2316 1.384 . S
C2318 C2319 1.372 . S
C2319 C2318 1.372 . S
C2319 C2320 1.400 . S
C2319 C2324 1.490 . S
C2320 H2310 0.930 . S
C2320 C2319 1.400 . S
C2320 C2323 1.386 . S
H2321 C2337 0.930 . S
H2322 C2338 0.931 . S
C2323 H2311 0.929 . S
C2323 C2317 1.390 . S
C2323 C2320 1.386 . S
C2324 C2319 1.490 . S
C2324 C2326 1.395 . S
C2324 C2327 1.403 . S
H2325 C2331 0.930 . S
C2326 H2312 0.930 . S
C2326 C2324 1.395 . S
C2326 C2329 1.403 . S
C2327 C2324 1.403 . S
C2327 C2328 1.524 . S
C2327 C2331 1.400 . S
C2328 H2313 0.960 . S
C2328 H2314 0.960 . S
C2328 H2315 0.960 . S
C2328 C2327 1.524 . S
C2329 C2326 1.403 . S
C2329 C2330 1.392 . S
C2329 C2333 1.495 . S
C2330 C2329 1.392 . S
C2330 C2331 1.385 . S
C2330 C2332 1.478 . S
C2331 H2325 0.930 . S
C2331 C2327 1.400 . S
C2331 C2330 1.385 . S
C2332 C2330 1.478 . S
C2332 C2334 1.381 . S
C2332 C2338 1.383 . S
C2333 C2329 1.495 . S
C2333 H2339 0.959 . S
C2333 H2340 0.961 . S
C2333 H2341 0.960 . S
C2334 C2332 1.381 . S
C2334 C2335 1.394 . S
C2334 H2342 0.930 . S
C2335 C2334 1.394 . S
C2335 C2336 1.383 . S
C2335 H2343 0.929 . S
C2336 C2335 1.383 . S
C2336 C2337 1.377 . S
C2337 H2321 0.930 . S
C2337 C2336 1.377 . S
C2337 C2338 1.379 . S
C2338 H2322 0.931 . S
C2338 C2332 1.383 . S
C2338 C2337 1.379 . S
H2339 C2333 0.959 . S
H2340 C2333 0.961 . S
H2341 C2333 0.960 . S
H2342 C2334 0.930 . S
H2343 C2335 0.929 . S
H2344 C2352 0.929 . S
H2345 C2354 0.930 . S
H2346 C2356 0.930 . S
H2347 C2359 0.929 . S
H2348 C2362 0.930 1_554 S
H2349 C2364 0.960 . S
H2350 C2364 0.960 . S
H2351 C2364 0.960 . S
C2352 H2344 0.929 . S
C2352 C2353 1.377 . S
C2352 C2354 1.384 . S
C2353 C2352 1.377 . S
C2353 C2359 1.390 . S
C2354 H2345 0.930 . S
C2354 C2352 1.384 . S
C2354 C2355 1.372 . S
C2355 C2354 1.372 . S
C2355 C2356 1.400 . S
C2355 C2360 1.490 . S
C2356 H2346 0.930 . S
C2356 C2355 1.400 . S
C2356 C2359 1.386 . S
H2357 C2373 0.930 1_554 S
H2358 C2374 0.931 . S
C2359 H2347 0.929 . S
C2359 C2353 1.390 . S
C2359 C2356 1.386 . S
C2360 C2355 1.490 . S
C2360 C2362 1.395 . S
C2360 C2363 1.403 . S
H2361 C2367 0.930 . S
C2362 H2348 0.930 1_556 S
C2362 C2360 1.395 . S
C2362 C2365 1.403 1_556 S
C2363 C2360 1.403 . S
C2363 C2364 1.524 . S
C2363 C2367 1.400 . S
C2364 H2349 0.960 . S
C2364 H2350 0.960 . S
C2364 H2351 0.960 . S
C2364 C2363 1.524 . S
C2365 C2362 1.403 1_554 S
C2365 C2366 1.392 1_554 S
C2365 C2369 1.495 . S
C2366 C2365 1.392 1_556 S
C2366 C2367 1.385 . S
C2366 C2368 1.478 . S
C2367 H2361 0.930 . S
C2367 C2363 1.400 . S
C2367 C2366 1.385 . S
C2368 C2366 1.478 . S
C2368 C2370 1.381 . S
C2368 C2374 1.383 . S
C2369 C2365 1.495 . S
C2369 H2375 0.959 . S
C2369 H2376 0.961 . S
C2369 H2377 0.960 . S
C2370 C2368 1.381 . S
C2370 C2371 1.394 . S
C2370 H2378 0.930 . S
C2371 C2370 1.394 . S
C2371 C2372 1.383 . S
C2371 H2379 0.929 . S
C2372 C2371 1.383 . S
C2372 C2373 1.377 . S
C2373 H2357 0.930 1_556 S
C2373 C2372 1.377 . S
C2373 C2374 1.379 . S
C2374 H2358 0.931 . S
C2374 C2368 1.383 . S
C2374 C2373 1.379 . S
H2375 C2369 0.959 . S
H2376 C2369 0.961 . S
H2377 C2369 0.960 . S
H2378 C2370 0.930 . S
H2379 C2371 0.929 . S
H2380 C2388 0.929 . S
H2381 C2390 0.930 . S
H2382 C2392 0.930 . S
H2383 C2395 0.929 . S
H2384 C2398 0.930 . S
H2385 C2400 0.960 . S
H2386 C2400 0.960 . S
H2387 C2400 0.960 . S
C2388 H2380 0.929 . S
C2388 C2389 1.377 . S
C2388 C2390 1.384 . S
C2389 C2388 1.377 . S
C2389 C2395 1.390 . S
C2390 H2381 0.930 . S
C2390 C2388 1.384 . S
C2390 C2391 1.372 . S
C2391 C2390 1.372 . S
C2391 C2392 1.400 . S
C2391 C2396 1.490 . S
C2392 H2382 0.930 . S
C2392 C2391 1.400 . S
C2392 C2395 1.386 . S
H2393 C2409 0.930 . S
H2394 C2410 0.931 . S
C2395 H2383 0.929 . S
C2395 C2389 1.390 . S
C2395 C2392 1.386 . S
C2396 C2391 1.490 . S
C2396 C2398 1.395 . S
C2396 C2399 1.403 . S
H2397 C2403 0.930 . S
C2398 H2384 0.930 . S
C2398 C2396 1.395 . S
C2398 C2401 1.403 . S
C2399 C2396 1.403 . S
C2399 C2400 1.524 . S
C2399 C2403 1.400 . S
C2400 H2385 0.960 . S
C2400 H2386 0.960 . S
C2400 H2387 0.960 . S
C2400 C2399 1.524 . S
C2401 C2398 1.403 . S
C2401 C2402 1.392 . S
C2401 C2405 1.495 . S
C2402 C2401 1.392 . S
C2402 C2403 1.385 . S
C2402 C2404 1.478 . S
C2403 H2397 0.930 . S
C2403 C2399 1.400 . S
C2403 C2402 1.385 . S
C2404 C2402 1.478 . S
C2404 C2406 1.381 . S
C2404 C2410 1.383 . S
C2405 C2401 1.495 . S
C2405 H2411 0.959 . S
C2405 H2412 0.961 . S
C2405 H2413 0.960 . S
C2406 C2404 1.381 . S
C2406 C2407 1.394 . S
C2406 H2414 0.930 . S
C2407 C2406 1.394 . S
C2407 C2408 1.383 . S
C2407 H2415 0.929 . S
C2408 C2407 1.383 . S
C2408 C2409 1.377 . S
C2409 H2393 0.930 . S
C2409 C2408 1.377 . S
C2409 C2410 1.379 . S
C2410 H2394 0.931 . S
C2410 C2404 1.383 . S
C2410 C2409 1.379 . S
H2411 C2405 0.959 . S
H2412 C2405 0.961 . S
H2413 C2405 0.960 . S
H2414 C2406 0.930 . S
H2415 C2407 0.929 . S
H2416 C2424 0.929 . S
H2417 C2426 0.930 . S
H2418 C2428 0.930 . S
H2419 C2431 0.929 . S
H2420 C2434 0.930 . S
H2421 C2436 0.960 . S
H2422 C2436 0.960 . S
H2423 C2436 0.960 . S
C2424 H2416 0.929 . S
C2424 C2425 1.377 . S
C2424 C2426 1.384 . S
C2425 C2424 1.377 . S
C2425 C2431 1.390 . S
C2426 H2417 0.930 . S
C2426 C2424 1.384 . S
C2426 C2427 1.372 . S
C2427 C2426 1.372 . S
C2427 C2428 1.400 . S
C2427 C2432 1.490 . S
C2428 H2418 0.930 . S
C2428 C2427 1.400 . S
C2428 C2431 1.386 . S
H2429 C2445 0.930 . S
H2430 C2446 0.931 . S
C2431 H2419 0.929 . S
C2431 C2425 1.390 . S
C2431 C2428 1.386 . S
C2432 C2427 1.490 . S
C2432 C2434 1.395 . S
C2432 C2435 1.403 . S
H2433 C2439 0.930 . S
C2434 H2420 0.930 . S
C2434 C2432 1.395 . S
C2434 C2437 1.403 . S
C2435 C2432 1.403 . S
C2435 C2436 1.524 . S
C2435 C2439 1.400 . S
C2436 H2421 0.960 . S
C2436 H2422 0.960 . S
C2436 H2423 0.960 . S
C2436 C2435 1.524 . S
C2437 C2434 1.403 . S
C2437 C2438 1.392 . S
C2437 C2441 1.495 . S
C2438 C2437 1.392 . S
C2438 C2439 1.385 . S
C2438 C2440 1.478 . S
C2439 H2433 0.930 . S
C2439 C2435 1.400 . S
C2439 C2438 1.385 . S
C2440 C2438 1.478 . S
C2440 C2442 1.381 . S
C2440 C2446 1.383 . S
C2441 C2437 1.495 . S
C2441 H2447 0.959 . S
C2441 H2448 0.961 . S
C2441 H2449 0.960 . S
C2442 C2440 1.381 . S
C2442 C2443 1.394 . S
C2442 H2450 0.930 . S
C2443 C2442 1.394 . S
C2443 C2444 1.383 . S
C2443 H2451 0.929 . S
C2444 C2443 1.383 . S
C2444 C2445 1.377 . S
C2445 H2429 0.930 . S
C2445 C2444 1.377 . S
C2445 C2446 1.379 . S
C2446 H2430 0.931 . S
C2446 C2440 1.383 . S
C2446 C2445 1.379 . S
H2447 C2441 0.959 . S
H2448 C2441 0.961 . S
H2449 C2441 0.960 . S
H2450 C2442 0.930 . S
H2451 C2443 0.929 . S
H2452 C2460 0.929 . S
H2453 C2462 0.930 . S
H2454 C2464 0.930 . S
H2455 C2467 0.929 . S
H2456 C2470 0.930 . S
H2457 C2472 0.960 . S
H2458 C2472 0.960 . S
H2459 C2472 0.960 . S
C2460 H2452 0.929 . S
C2460 C2461 1.377 . S
C2460 C2462 1.384 . S
C2461 C2460 1.377 . S
C2461 C2467 1.390 . S
C2462 H2453 0.930 . S
C2462 C2460 1.384 . S
C2462 C2463 1.372 . S
C2463 C2462 1.372 . S
C2463 C2464 1.400 . S
C2463 C2468 1.490 . S
C2464 H2454 0.930 . S
C2464 C2463 1.400 . S
C2464 C2467 1.386 . S
H2465 C2481 0.930 . S
H2466 C2482 0.931 . S
C2467 H2455 0.929 . S
C2467 C2461 1.390 . S
C2467 C2464 1.386 . S
C2468 C2463 1.490 . S
C2468 C2470 1.395 . S
C2468 C2471 1.403 . S
H2469 C2475 0.930 . S
C2470 H2456 0.930 . S
C2470 C2468 1.395 . S
C2470 C2473 1.403 . S
C2471 C2468 1.403 . S
C2471 C2472 1.524 . S
C2471 C2475 1.400 . S
C2472 H2457 0.960 . S
C2472 H2458 0.960 . S
C2472 H2459 0.960 . S
C2472 C2471 1.524 . S
C2473 C2470 1.403 . S
C2473 C2474 1.392 . S
C2473 C2477 1.495 . S
C2474 C2473 1.392 . S
C2474 C2475 1.385 . S
C2474 C2476 1.478 . S
C2475 H2469 0.930 . S
C2475 C2471 1.400 . S
C2475 C2474 1.385 . S
C2476 C2474 1.478 . S
C2476 C2478 1.381 . S
C2476 C2482 1.383 . S
C2477 C2473 1.495 . S
C2477 H2483 0.959 . S
C2477 H2484 0.961 . S
C2477 H2485 0.960 . S
C2478 C2476 1.381 . S
C2478 C2479 1.394 . S
C2478 H2486 0.930 . S
C2479 C2478 1.394 . S
C2479 C2480 1.383 . S
C2479 H2487 0.929 . S
C2480 C2479 1.383 . S
C2480 C2481 1.377 . S
C2481 H2465 0.930 . S
C2481 C2480 1.377 . S
C2481 C2482 1.379 . S
C2482 H2466 0.931 . S
C2482 C2476 1.383 . S
C2482 C2481 1.379 . S
H2483 C2477 0.959 . S
H2484 C2477 0.961 . S
H2485 C2477 0.960 . S
H2486 C2478 0.930 . S
H2487 C2479 0.929 . S
H2488 C2496 0.929 . S
H2489 C2498 0.930 . S
H2490 C2500 0.930 . S
H2491 C2503 0.929 . S
H2492 C2506 0.930 . S
H2493 C2508 0.960 . S
H2494 C2508 0.960 . S
H2495 C2508 0.960 . S
C2496 H2488 0.929 . S
C2496 C2497 1.377 . S
C2496 C2498 1.384 . S
C2497 C2496 1.377 . S
C2497 C2503 1.390 . S
C2498 H2489 0.930 . S
C2498 C2496 1.384 . S
C2498 C2499 1.372 . S
C2499 C2498 1.372 . S
C2499 C2500 1.400 . S
C2499 C2504 1.490 . S
C2500 H2490 0.930 . S
C2500 C2499 1.400 . S
C2500 C2503 1.386 . S
H2501 C2517 0.930 . S
H2502 C2518 0.931 . S
C2503 H2491 0.929 . S
C2503 C2497 1.390 . S
C2503 C2500 1.386 . S
C2504 C2499 1.490 . S
C2504 C2506 1.395 . S
C2504 C2507 1.403 . S
H2505 C2511 0.930 . S
C2506 H2492 0.930 . S
C2506 C2504 1.395 . S
C2506 C2509 1.403 . S
C2507 C2504 1.403 . S
C2507 C2508 1.524 . S
C2507 C2511 1.400 . S
C2508 H2493 0.960 . S
C2508 H2494 0.960 . S
C2508 H2495 0.960 . S
C2508 C2507 1.524 . S
C2509 C2506 1.403 . S
C2509 C2510 1.392 . S
C2509 C2513 1.495 . S
C2510 C2509 1.392 . S
C2510 C2511 1.385 . S
C2510 C2512 1.478 . S
C2511 H2505 0.930 . S
C2511 C2507 1.400 . S
C2511 C2510 1.385 . S
C2512 C2510 1.478 . S
C2512 C2514 1.381 . S
C2512 C2518 1.383 . S
C2513 C2509 1.495 . S
C2513 H2519 0.959 . S
C2513 H2520 0.961 . S
C2513 H2521 0.960 . S
C2514 C2512 1.381 . S
C2514 C2515 1.394 . S
C2514 H2522 0.930 . S
C2515 C2514 1.394 . S
C2515 C2516 1.383 . S
C2515 H2523 0.929 . S
C2516 C2515 1.383 . S
C2516 C2517 1.377 . S
C2517 H2501 0.930 . S
C2517 C2516 1.377 . S
C2517 C2518 1.379 . S
C2518 H2502 0.931 . S
C2518 C2512 1.383 . S
C2518 C2517 1.379 . S
H2519 C2513 0.959 . S
H2520 C2513 0.961 . S
H2521 C2513 0.960 . S
H2522 C2514 0.930 . S
H2523 C2515 0.929 . S
H2524 C2532 0.929 . S
H2525 C2534 0.930 . S
H2526 C2536 0.930 . S
H2527 C2539 0.929 . S
H2528 C2542 0.930 . S
H2529 C2544 0.960 . S
H2530 C2544 0.960 . S
H2531 C2544 0.960 . S
C2532 H2524 0.929 . S
C2532 C2533 1.377 . S
C2532 C2534 1.384 . S
C2533 C2532 1.377 . S
C2533 C2539 1.390 . S
C2534 H2525 0.930 . S
C2534 C2532 1.384 . S
C2534 C2535 1.372 . S
C2535 C2534 1.372 . S
C2535 C2536 1.400 . S
C2535 C2540 1.490 . S
C2536 H2526 0.930 . S
C2536 C2535 1.400 . S
C2536 C2539 1.386 . S
H2537 C2553 0.930 . S
H2538 C2554 0.931 . S
C2539 H2527 0.929 . S
C2539 C2533 1.390 . S
C2539 C2536 1.386 . S
C2540 C2535 1.490 . S
C2540 C2542 1.395 . S
C2540 C2543 1.403 . S
H2541 C2547 0.930 . S
C2542 H2528 0.930 . S
C2542 C2540 1.395 . S
C2542 C2545 1.403 . S
C2543 C2540 1.403 . S
C2543 C2544 1.524 . S
C2543 C2547 1.400 . S
C2544 H2529 0.960 . S
C2544 H2530 0.960 . S
C2544 H2531 0.960 . S
C2544 C2543 1.524 . S
C2545 C2542 1.403 . S
C2545 C2546 1.392 . S
C2545 C2549 1.495 . S
C2546 C2545 1.392 . S
C2546 C2547 1.385 . S
C2546 C2548 1.478 . S
C2547 H2541 0.930 . S
C2547 C2543 1.400 . S
C2547 C2546 1.385 . S
C2548 C2546 1.478 . S
C2548 C2550 1.381 . S
C2548 C2554 1.383 . S
C2549 C2545 1.495 . S
C2549 H2555 0.959 . S
C2549 H2556 0.961 . S
C2549 H2557 0.960 . S
C2550 C2548 1.381 . S
C2550 C2551 1.394 . S
C2550 H2558 0.930 . S
C2551 C2550 1.394 . S
C2551 C2552 1.383 . S
C2551 H2559 0.929 . S
C2552 C2551 1.383 . S
C2552 C2553 1.377 . S
C2553 H2537 0.930 . S
C2553 C2552 1.377 . S
C2553 C2554 1.379 . S
C2554 H2538 0.931 . S
C2554 C2548 1.383 . S
C2554 C2553 1.379 . S
H2555 C2549 0.959 . S
H2556 C2549 0.961 . S
H2557 C2549 0.960 . S
H2558 C2550 0.930 . S
H2559 C2551 0.929 . S
H2560 C2568 0.929 . S
H2561 C2570 0.930 . S
H2562 C2572 0.930 . S
H2563 C2575 0.929 . S
H2564 C2578 0.930 . S
H2565 C2580 0.960 . S
H2566 C2580 0.960 . S
H2567 C2580 0.960 . S
C2568 H2560 0.929 . S
C2568 C2569 1.377 . S
C2568 C2570 1.384 . S
C2569 C2568 1.377 . S
C2569 C2575 1.390 . S
C2570 H2561 0.930 . S
C2570 C2568 1.384 . S
C2570 C2571 1.372 . S
C2571 C2570 1.372 . S
C2571 C2572 1.400 . S
C2571 C2576 1.490 . S
C2572 H2562 0.930 . S
C2572 C2571 1.400 . S
C2572 C2575 1.386 . S
H2573 C2589 0.930 . S
H2574 C2590 0.931 . S
C2575 H2563 0.929 . S
C2575 C2569 1.390 . S
C2575 C2572 1.386 . S
C2576 C2571 1.490 . S
C2576 C2578 1.395 . S
C2576 C2579 1.403 . S
H2577 C2583 0.930 . S
C2578 H2564 0.930 . S
C2578 C2576 1.395 . S
C2578 C2581 1.403 . S
C2579 C2576 1.403 . S
C2579 C2580 1.524 . S
C2579 C2583 1.400 . S
C2580 H2565 0.960 . S
C2580 H2566 0.960 . S
C2580 H2567 0.960 . S
C2580 C2579 1.524 . S
C2581 C2578 1.403 . S
C2581 C2582 1.392 . S
C2581 C2585 1.495 . S
C2582 C2581 1.392 . S
C2582 C2583 1.385 . S
C2582 C2584 1.478 . S
C2583 H2577 0.930 . S
C2583 C2579 1.400 . S
C2583 C2582 1.385 . S
C2584 C2582 1.478 . S
C2584 C2586 1.381 . S
C2584 C2590 1.383 . S
C2585 C2581 1.495 . S
C2585 H2591 0.959 . S
C2585 H2592 0.961 . S
C2585 H2593 0.960 . S
C2586 C2584 1.381 . S
C2586 C2587 1.394 . S
C2586 H2594 0.930 . S
C2587 C2586 1.394 . S
C2587 C2588 1.383 . S
C2587 H2595 0.929 . S
C2588 C2587 1.383 . S
C2588 C2589 1.377 . S
C2589 H2573 0.930 . S
C2589 C2588 1.377 . S
C2589 C2590 1.379 . S
C2590 H2574 0.931 . S
C2590 C2584 1.383 . S
C2590 C2589 1.379 . S
H2591 C2585 0.959 . S
H2592 C2585 0.961 . S
H2593 C2585 0.960 . S
H2594 C2586 0.930 . S
H2595 C2587 0.929 . S
H2596 C2604 0.929 . S
H2597 C2606 0.930 . S
H2598 C2608 0.930 . S
H2599 C2611 0.929 . S
H2600 C2614 0.930 . S
H2601 C2616 0.960 . S
H2602 C2616 0.960 . S
H2603 C2616 0.960 . S
C2604 H2596 0.929 . S
C2604 C2605 1.377 . S
C2604 C2606 1.384 . S
C2605 C2604 1.377 . S
C2605 C2611 1.390 . S
C2606 H2597 0.930 . S
C2606 C2604 1.384 . S
C2606 C2607 1.372 . S
C2607 C2606 1.372 . S
C2607 C2608 1.400 . S
C2607 C2612 1.490 . S
C2608 H2598 0.930 . S
C2608 C2607 1.400 . S
C2608 C2611 1.386 . S
H2609 C2625 0.930 . S
H2610 C2626 0.931 . S
C2611 H2599 0.929 . S
C2611 C2605 1.390 . S
C2611 C2608 1.386 . S
C2612 C2607 1.490 . S
C2612 C2614 1.395 . S
C2612 C2615 1.403 . S
H2613 C2619 0.930 1_565 S
C2614 H2600 0.930 . S
C2614 C2612 1.395 . S
C2614 C2617 1.403 . S
C2615 C2612 1.403 . S
C2615 C2616 1.524 1_545 S
C2615 C2619 1.400 . S
C2616 H2601 0.960 . S
C2616 H2602 0.960 . S
C2616 H2603 0.960 . S
C2616 C2615 1.524 1_565 S
C2617 C2614 1.403 . S
C2617 C2618 1.392 . S
C2617 C2621 1.495 . S
C2618 C2617 1.392 . S
C2618 C2619 1.385 . S
C2618 C2620 1.478 . S
C2619 H2613 0.930 1_545 S
C2619 C2615 1.400 . S
C2619 C2618 1.385 . S
C2620 C2618 1.478 . S
C2620 C2622 1.381 . S
C2620 C2626 1.383 . S
C2621 C2617 1.495 . S
C2621 H2627 0.959 . S
C2621 H2628 0.961 . S
C2621 H2629 0.960 . S
C2622 C2620 1.381 . S
C2622 C2623 1.394 . S
C2622 H2630 0.930 . S
C2623 C2622 1.394 . S
C2623 C2624 1.383 . S
C2623 H2631 0.929 . S
C2624 C2623 1.383 . S
C2624 C2625 1.377 . S
C2625 H2609 0.930 . S
C2625 C2624 1.377 . S
C2625 C2626 1.379 . S
C2626 H2610 0.931 . S
C2626 C2620 1.383 . S
C2626 C2625 1.379 . S
H2627 C2621 0.959 . S
H2628 C2621 0.961 . S
H2629 C2621 0.960 . S
H2630 C2622 0.930 . S
H2631 C2623 0.929 . S
H2632 C2640 0.929 . S
H2633 C2642 0.930 . S
H2634 C2644 0.930 . S
H2635 C2647 0.929 . S
H2636 C2650 0.930 . S
H2637 C2652 0.960 . S
H2638 C2652 0.960 . S
H2639 C2652 0.960 . S
C2640 H2632 0.929 . S
C2640 C2641 1.377 . S
C2640 C2642 1.384 . S
C2641 C2640 1.377 . S
C2641 C2647 1.390 . S
C2642 H2633 0.930 . S
C2642 C2640 1.384 . S
C2642 C2643 1.372 . S
C2643 C2642 1.372 . S
C2643 C2644 1.400 . S
C2643 C2648 1.490 . S
C2644 H2634 0.930 . S
C2644 C2643 1.400 . S
C2644 C2647 1.386 . S
H2645 C2661 0.930 . S
H2646 C2662 0.931 . S
C2647 H2635 0.929 . S
C2647 C2641 1.390 . S
C2647 C2644 1.386 . S
C2648 C2643 1.490 . S
C2648 C2650 1.395 . S
C2648 C2651 1.403 . S
H2649 C2655 0.930 . S
C2650 H2636 0.930 . S
C2650 C2648 1.395 . S
C2650 C2653 1.403 . S
C2651 C2648 1.403 . S
C2651 C2652 1.524 . S
C2651 C2655 1.400 . S
C2652 H2637 0.960 . S
C2652 H2638 0.960 . S
C2652 H2639 0.960 . S
C2652 C2651 1.524 . S
C2653 C2650 1.403 . S
C2653 C2654 1.392 . S
C2653 C2657 1.495 . S
C2654 C2653 1.392 . S
C2654 C2655 1.385 . S
C2654 C2656 1.478 . S
C2655 H2649 0.930 . S
C2655 C2651 1.400 . S
C2655 C2654 1.385 . S
C2656 C2654 1.478 . S
C2656 C2658 1.381 . S
C2656 C2662 1.383 . S
C2657 C2653 1.495 . S
C2657 H2663 0.959 . S
C2657 H2664 0.961 . S
C2657 H2665 0.960 . S
C2658 C2656 1.381 . S
C2658 C2659 1.394 . S
C2658 H2666 0.930 . S
C2659 C2658 1.394 . S
C2659 C2660 1.383 . S
C2659 H2667 0.929 . S
C2660 C2659 1.383 . S
C2660 C2661 1.377 . S
C2661 H2645 0.930 . S
C2661 C2660 1.377 . S
C2661 C2662 1.379 . S
C2662 H2646 0.931 . S
C2662 C2656 1.383 . S
C2662 C2661 1.379 . S
H2663 C2657 0.959 . S
H2664 C2657 0.961 . S
H2665 C2657 0.960 . S
H2666 C2658 0.930 . S
H2667 C2659 0.929 . S
H2668 C2676 0.929 . S
H2669 C2678 0.930 . S
H2670 C2680 0.930 . S
H2671 C2683 0.929 . S
H2672 C2686 0.930 . S
H2673 C2688 0.960 . S
H2674 C2688 0.960 . S
H2675 C2688 0.960 . S
C2676 H2668 0.929 . S
C2676 C2677 1.377 . S
C2676 C2678 1.384 . S
C2677 C2676 1.377 . S
C2677 C2683 1.390 . S
C2678 H2669 0.930 . S
C2678 C2676 1.384 . S
C2678 C2679 1.372 . S
C2679 C2678 1.372 . S
C2679 C2680 1.400 . S
C2679 C2684 1.490 . S
C2680 H2670 0.930 . S
C2680 C2679 1.400 . S
C2680 C2683 1.386 . S
H2681 C2697 0.930 . S
H2682 C2698 0.931 . S
C2683 H2671 0.929 . S
C2683 C2677 1.390 . S
C2683 C2680 1.386 . S
C2684 C2679 1.490 . S
C2684 C2686 1.395 . S
C2684 C2687 1.403 . S
H2685 C2691 0.930 . S
C2686 H2672 0.930 . S
C2686 C2684 1.395 . S
C2686 C2689 1.403 . S
C2687 C2684 1.403 . S
C2687 C2688 1.524 . S
C2687 C2691 1.400 . S
C2688 H2673 0.960 . S
C2688 H2674 0.960 . S
C2688 H2675 0.960 . S
C2688 C2687 1.524 . S
C2689 C2686 1.403 . S
C2689 C2690 1.392 . S
C2689 C2693 1.495 . S
C2690 C2689 1.392 . S
C2690 C2691 1.385 . S
C2690 C2692 1.478 . S
C2691 H2685 0.930 . S
C2691 C2687 1.400 . S
C2691 C2690 1.385 . S
C2692 C2690 1.478 . S
C2692 C2694 1.381 . S
C2692 C2698 1.383 . S
C2693 C2689 1.495 . S
C2693 H2699 0.959 . S
C2693 H2700 0.961 . S
C2693 H2701 0.960 . S
C2694 C2692 1.381 . S
C2694 C2695 1.394 . S
C2694 H2702 0.930 . S
C2695 C2694 1.394 . S
C2695 C2696 1.383 . S
C2695 H2703 0.929 . S
C2696 C2695 1.383 . S
C2696 C2697 1.377 . S
C2697 H2681 0.930 . S
C2697 C2696 1.377 . S
C2697 C2698 1.379 . S
C2698 H2682 0.931 . S
C2698 C2692 1.383 . S
C2698 C2697 1.379 . S
H2699 C2693 0.959 . S
H2700 C2693 0.961 . S
H2701 C2693 0.960 . S
H2702 C2694 0.930 . S
H2703 C2695 0.929 . S
H2704 C2712 0.929 . S
H2705 C2714 0.930 . S
H2706 C2716 0.930 . S
H2707 C2719 0.929 . S
H2708 C2722 0.930 . S
H2709 C2724 0.960 . S
H2710 C2724 0.960 . S
H2711 C2724 0.960 . S
C2712 H2704 0.929 . S
C2712 C2713 1.377 . S
C2712 C2714 1.384 . S
C2713 C2712 1.377 . S
C2713 C2719 1.390 . S
C2714 H2705 0.930 . S
C2714 C2712 1.384 . S
C2714 C2715 1.372 . S
C2715 C2714 1.372 . S
C2715 C2716 1.400 . S
C2715 C2720 1.490 . S
C2716 H2706 0.930 . S
C2716 C2715 1.400 . S
C2716 C2719 1.386 . S
H2717 C2733 0.930 . S
H2718 C2734 0.931 . S
C2719 H2707 0.929 . S
C2719 C2713 1.390 . S
C2719 C2716 1.386 . S
C2720 C2715 1.490 . S
C2720 C2722 1.395 . S
C2720 C2723 1.403 . S
H2721 C2727 0.930 . S
C2722 H2708 0.930 . S
C2722 C2720 1.395 . S
C2722 C2725 1.403 . S
C2723 C2720 1.403 . S
C2723 C2724 1.524 . S
C2723 C2727 1.400 . S
C2724 H2709 0.960 . S
C2724 H2710 0.960 . S
C2724 H2711 0.960 . S
C2724 C2723 1.524 . S
C2725 C2722 1.403 . S
C2725 C2726 1.392 . S
C2725 C2729 1.495 . S
C2726 C2725 1.392 . S
C2726 C2727 1.385 . S
C2726 C2728 1.478 . S
C2727 H2721 0.930 . S
C2727 C2723 1.400 . S
C2727 C2726 1.385 . S
C2728 C2726 1.478 . S
C2728 C2730 1.381 . S
C2728 C2734 1.383 . S
C2729 C2725 1.495 . S
C2729 H2735 0.959 . S
C2729 H2736 0.961 . S
C2729 H2737 0.960 . S
C2730 C2728 1.381 . S
C2730 C2731 1.394 . S
C2730 H2738 0.930 . S
C2731 C2730 1.394 . S
C2731 C2732 1.383 . S
C2731 H2739 0.929 . S
C2732 C2731 1.383 . S
C2732 C2733 1.377 . S
C2733 H2717 0.930 . S
C2733 C2732 1.377 . S
C2733 C2734 1.379 . S
C2734 H2718 0.931 . S
C2734 C2728 1.383 . S
C2734 C2733 1.379 . S
H2735 C2729 0.959 . S
H2736 C2729 0.961 . S
H2737 C2729 0.960 . S
H2738 C2730 0.930 . S
H2739 C2731 0.929 . S
H2740 C2748 0.929 . S
H2741 C2750 0.930 . S
H2742 C2752 0.930 1_565 S
H2743 C2755 0.884 1_565 S
H2744 C2758 0.930 . S
H2745 C2760 0.960 . S
H2746 C2760 0.960 . S
H2747 C2760 0.905 1_565 S
C2748 H2740 0.929 . S
C2748 C2749 1.377 . S
C2748 C2750 1.384 . S
C2749 C2748 1.377 . S
C2749 C2755 1.390 . S
C2750 H2741 0.930 . S
C2750 C2748 1.384 . S
C2750 C2751 1.372 . S
C2751 C2750 1.372 . S
C2751 C2752 1.400 . S
C2751 C2756 1.490 . S
C2752 H2742 0.930 1_545 S
C2752 C2751 1.400 . S
C2752 C2755 1.386 . S
H2753 C2769 0.930 . S
H2754 C2770 0.918 1_565 S
C2755 H2743 0.884 1_545 S
C2755 C2749 1.390 . S
C2755 C2752 1.386 . S
C2756 C2751 1.490 . S
C2756 C2758 1.395 . S
C2756 C2759 1.403 . S
H2757 C2763 0.930 . S
C2758 H2744 0.930 . S
C2758 C2756 1.395 . S
C2758 C2761 1.403 . S
C2759 C2756 1.403 . S
C2759 C2760 1.524 . S
C2759 C2763 1.400 . S
C2760 H2745 0.960 . S
C2760 H2746 0.960 . S
C2760 H2747 0.905 1_545 S
C2760 C2759 1.524 . S
C2761 C2758 1.403 . S
C2761 C2762 1.392 . S
C2761 C2765 1.495 . S
C2762 C2761 1.392 . S
C2762 C2763 1.385 . S
C2762 C2764 1.478 . S
C2763 H2757 0.930 . S
C2763 C2759 1.400 . S
C2763 C2762 1.385 . S
C2764 C2762 1.478 . S
C2764 C2766 1.381 . S
C2764 C2770 1.397 . S
C2765 C2761 1.495 . S
C2765 H2771 0.959 . S
C2765 H2772 0.961 . S
C2765 H2773 0.960 . S
C2766 C2764 1.381 . S
C2766 C2767 1.394 . S
C2766 H2774 0.930 . S
C2767 C2766 1.394 . S
C2767 C2768 1.383 . S
C2767 H2775 0.929 . S
C2768 C2767 1.383 . S
C2768 C2769 1.377 1_545 S
C2769 H2753 0.930 . S
C2769 C2768 1.377 1_565 S
C2769 C2770 1.377 1_565 S
C2770 H2754 0.918 1_545 S
C2770 C2764 1.397 . S
C2770 C2769 1.377 1_545 S
H2771 C2765 0.959 . S
H2772 C2765 0.961 . S
H2773 C2765 0.960 . S
H2774 C2766 0.930 . S
H2775 C2767 0.929 . S
H2776 C2784 0.929 . S
H2777 C2786 0.930 . S
H2778 C2788 0.930 . S
H2779 C2791 0.929 . S
H2780 C2794 0.930 . S
H2781 C2796 0.960 . S
H2782 C2796 0.960 . S
H2783 C2796 0.960 . S
C2784 H2776 0.929 . S
C2784 C2785 1.377 . S
C2784 C2786 1.384 . S
C2785 C2784 1.377 . S
C2785 C2791 1.390 . S
C2786 H2777 0.930 . S
C2786 C2784 1.384 . S
C2786 C2787 1.372 . S
C2787 C2786 1.372 . S
C2787 C2788 1.400 . S
C2787 C2792 1.490 . S
C2788 H2778 0.930 . S
C2788 C2787 1.400 . S
C2788 C2791 1.386 . S
H2789 C2805 0.930 . S
H2790 C2806 0.931 . S
C2791 H2779 0.929 . S
C2791 C2785 1.390 . S
C2791 C2788 1.386 . S
C2792 C2787 1.490 . S
C2792 C2794 1.395 . S
C2792 C2795 1.403 . S
H2793 C2799 0.930 . S
C2794 H2780 0.930 . S
C2794 C2792 1.395 . S
C2794 C2797 1.403 . S
C2795 C2792 1.403 . S
C2795 C2796 1.524 . S
C2795 C2799 1.400 . S
C2796 H2781 0.960 . S
C2796 H2782 0.960 . S
C2796 H2783 0.960 . S
C2796 C2795 1.524 . S
C2797 C2794 1.403 . S
C2797 C2798 1.392 . S
C2797 C2801 1.495 . S
C2798 C2797 1.392 . S
C2798 C2799 1.385 . S
C2798 C2800 1.478 . S
C2799 H2793 0.930 . S
C2799 C2795 1.400 . S
C2799 C2798 1.385 . S
C2800 C2798 1.478 . S
C2800 C2802 1.381 . S
C2800 C2806 1.383 . S
C2801 C2797 1.495 . S
C2801 H2807 0.959 . S
C2801 H2808 0.961 . S
C2801 H2809 0.960 . S
C2802 C2800 1.381 . S
C2802 C2803 1.394 . S
C2802 H2810 0.930 . S
C2803 C2802 1.394 . S
C2803 C2804 1.383 . S
C2803 H2811 0.929 . S
C2804 C2803 1.383 . S
C2804 C2805 1.377 . S
C2805 H2789 0.930 . S
C2805 C2804 1.377 . S
C2805 C2806 1.379 . S
C2806 H2790 0.931 . S
C2806 C2800 1.383 . S
C2806 C2805 1.379 . S
H2807 C2801 0.959 . S
H2808 C2801 0.961 . S
H2809 C2801 0.960 . S
H2810 C2802 0.930 . S
H2811 C2803 0.929 . S
H2812 C2820 0.929 . S
H2813 C2822 0.930 . S
H2814 C2824 0.930 . S
H2815 C2827 0.929 . S
H2816 C2830 0.930 . S
H2817 C2832 0.960 . S
H2818 C2832 0.960 . S
H2819 C2832 0.960 . S
C2820 H2812 0.929 . S
C2820 C2821 1.377 . S
C2820 C2822 1.384 . S
C2821 C2820 1.377 . S
C2821 C2827 1.390 . S
C2822 H2813 0.930 . S
C2822 C2820 1.384 . S
C2822 C2823 1.372 . S
C2823 C2822 1.372 . S
C2823 C2824 1.400 . S
C2823 C2828 1.490 . S
C2824 H2814 0.930 . S
C2824 C2823 1.400 . S
C2824 C2827 1.386 . S
H2825 C2841 0.930 . S
H2826 C2842 0.931 . S
C2827 H2815 0.929 . S
C2827 C2821 1.390 . S
C2827 C2824 1.386 . S
C2828 C2823 1.490 . S
C2828 C2830 1.395 . S
C2828 C2831 1.403 . S
H2829 C2835 0.930 . S
C2830 H2816 0.930 . S
C2830 C2828 1.395 . S
C2830 C2833 1.403 . S
C2831 C2828 1.403 . S
C2831 C2832 1.524 . S
C2831 C2835 1.400 . S
C2832 H2817 0.960 . S
C2832 H2818 0.960 . S
C2832 H2819 0.960 . S
C2832 C2831 1.524 . S
C2833 C2830 1.403 . S
C2833 C2834 1.392 . S
C2833 C2837 1.495 . S
C2834 C2833 1.392 . S
C2834 C2835 1.385 . S
C2834 C2836 1.478 . S
C2835 H2829 0.930 . S
C2835 C2831 1.400 . S
C2835 C2834 1.385 . S
C2836 C2834 1.478 . S
C2836 C2838 1.381 . S
C2836 C2842 1.383 . S
C2837 C2833 1.495 . S
C2837 H2843 0.959 . S
C2837 H2844 0.961 . S
C2837 H2845 0.960 . S
C2838 C2836 1.381 . S
C2838 C2839 1.394 . S
C2838 H2846 0.930 . S
C2839 C2838 1.394 . S
C2839 C2840 1.383 . S
C2839 H2847 0.929 . S
C2840 C2839 1.383 . S
C2840 C2841 1.377 . S
C2841 H2825 0.930 . S
C2841 C2840 1.377 . S
C2841 C2842 1.379 . S
C2842 H2826 0.931 . S
C2842 C2836 1.383 . S
C2842 C2841 1.379 . S
H2843 C2837 0.959 . S
H2844 C2837 0.961 . S
H2845 C2837 0.960 . S
H2846 C2838 0.930 . S
H2847 C2839 0.929 . S
H2848 C2856 0.929 . S
H2849 C2858 0.930 . S
H2850 C2860 0.930 . S
H2851 C2863 0.929 . S
H2852 C2866 0.930 . S
H2853 C2868 0.960 . S
H2854 C2868 0.960 . S
H2855 C2868 0.960 . S
C2856 H2848 0.929 . S
C2856 C2857 1.377 . S
C2856 C2858 1.384 . S
C2857 C2856 1.377 . S
C2857 C2863 1.390 . S
C2858 H2849 0.930 . S
C2858 C2856 1.384 . S
C2858 C2859 1.372 . S
C2859 C2858 1.372 . S
C2859 C2860 1.400 . S
C2859 C2864 1.490 . S
C2860 H2850 0.930 . S
C2860 C2859 1.400 . S
C2860 C2863 1.386 . S
H2861 C2877 0.930 . S
H2862 C2878 0.931 . S
C2863 H2851 0.929 . S
C2863 C2857 1.390 . S
C2863 C2860 1.386 . S
C2864 C2859 1.490 . S
C2864 C2866 1.395 . S
C2864 C2867 1.403 . S
H2865 C2871 0.930 . S
C2866 H2852 0.930 . S
C2866 C2864 1.395 . S
C2866 C2869 1.403 . S
C2867 C2864 1.403 . S
C2867 C2868 1.524 . S
C2867 C2871 1.400 . S
C2868 H2853 0.960 . S
C2868 H2854 0.960 . S
C2868 H2855 0.960 . S
C2868 C2867 1.524 . S
C2869 C2866 1.403 . S
C2869 C2870 1.392 . S
C2869 C2873 1.495 . S
C2870 C2869 1.392 . S
C2870 C2871 1.385 . S
C2870 C2872 1.478 . S
C2871 H2865 0.930 . S
C2871 C2867 1.400 . S
C2871 C2870 1.385 . S
C2872 C2870 1.478 . S
C2872 C2874 1.381 . S
C2872 C2878 1.383 . S
C2873 C2869 1.495 . S
C2873 H2879 0.959 . S
C2873 H2880 0.961 . S
C2873 H2881 0.960 . S
C2874 C2872 1.381 . S
C2874 C2875 1.394 . S
C2874 H2882 0.930 . S
C2875 C2874 1.394 . S
C2875 C2876 1.383 . S
C2875 H2883 0.929 . S
C2876 C2875 1.383 . S
C2876 C2877 1.377 . S
C2877 H2861 0.930 . S
C2877 C2876 1.377 . S
C2877 C2878 1.379 . S
C2878 H2862 0.931 . S
C2878 C2872 1.383 . S
C2878 C2877 1.379 . S
H2879 C2873 0.959 . S
H2880 C2873 0.961 . S
H2881 C2873 0.960 . S
H2882 C2874 0.930 . S
H2883 C2875 0.929 . S
H2884 C2892 0.929 . S
H2885 C2894 0.930 . S
H2886 C2896 0.930 . S
H2887 C2899 0.929 . S
H2888 C2902 0.930 . S
H2889 C2904 0.960 . S
H2890 C2904 0.960 . S
H2891 C2904 0.960 . S
C2892 H2884 0.929 . S
C2892 C2893 1.377 . S
C2892 C2894 1.384 . S
C2893 C2892 1.377 . S
C2893 C2899 1.390 . S
C2894 H2885 0.930 . S
C2894 C2892 1.384 . S
C2894 C2895 1.372 . S
C2895 C2894 1.372 . S
C2895 C2896 1.400 . S
C2895 C2900 1.490 . S
C2896 H2886 0.930 . S
C2896 C2895 1.400 . S
C2896 C2899 1.386 . S
H2897 C2913 0.930 1_455 S
H2898 C2914 0.945 . S
C2899 H2887 0.929 . S
C2899 C2893 1.390 . S
C2899 C2896 1.386 . S
C2900 C2895 1.490 . S
C2900 C2902 1.395 . S
C2900 C2903 1.403 . S
H2901 C2907 0.930 1_455 S
C2902 H2888 0.930 . S
C2902 C2900 1.395 . S
C2902 C2905 1.403 . S
C2903 C2900 1.403 . S
C2903 C2904 1.524 1_655 S
C2903 C2907 1.400 . S
C2904 H2889 0.960 . S
C2904 H2890 0.960 . S
C2904 H2891 0.960 . S
C2904 C2903 1.524 1_455 S
C2905 C2902 1.403 . S
C2905 C2906 1.392 . S
C2905 C2909 1.495 . S
C2906 C2905 1.392 . S
C2906 C2907 1.385 . S
C2906 C2908 1.478 . S
C2907 H2901 0.930 1_655 S
C2907 C2903 1.400 . S
C2907 C2906 1.385 . S
C2908 C2906 1.478 . S
C2908 C2910 1.381 . S
C2908 C2914 1.383 . S
C2909 C2905 1.495 . S
C2909 H2915 0.959 . S
C2909 H2916 0.961 . S
C2909 H2917 0.960 . S
C2910 C2908 1.381 . S
C2910 C2911 1.394 . S
C2910 H2918 0.930 . S
C2911 C2910 1.394 . S
C2911 C2912 1.383 . S
C2911 H2919 0.929 . S
C2912 C2911 1.383 . S
C2912 C2913 1.377 . S
C2913 H2897 0.930 1_655 S
C2913 C2912 1.377 . S
C2913 C2914 1.379 . S
C2914 H2898 0.945 . S
C2914 C2908 1.383 . S
C2914 C2913 1.379 . S
H2915 C2909 0.959 . S
H2916 C2909 0.961 . S
H2917 C2909 0.960 . S
H2918 C2910 0.930 . S
H2919 C2911 0.929 . S
H2920 C2928 0.929 . S
H2921 C2930 0.930 . S
H2922 C2932 0.930 . S
H2923 C2935 0.929 . S
H2924 C2938 0.930 . S
H2925 C2940 0.960 . S
H2926 C2940 0.960 . S
H2927 C2940 0.960 . S
C2928 H2920 0.929 . S
C2928 C2929 1.377 . S
C2928 C2930 1.384 . S
C2929 C2928 1.377 . S
C2929 C2935 1.390 . S
C2930 H2921 0.930 . S
C2930 C2928 1.384 . S
C2930 C2931 1.372 . S
C2931 C2930 1.372 . S
C2931 C2932 1.400 . S
C2931 C2936 1.490 . S
C2932 H2922 0.930 . S
C2932 C2931 1.400 . S
C2932 C2935 1.386 . S
H2933 C2949 0.930 . S
H2934 C2950 0.931 . S
C2935 H2923 0.929 . S
C2935 C2929 1.390 . S
C2935 C2932 1.386 . S
C2936 C2931 1.490 . S
C2936 C2938 1.395 . S
C2936 C2939 1.403 . S
H2937 C2943 0.930 . S
C2938 H2924 0.930 . S
C2938 C2936 1.395 . S
C2938 C2941 1.403 . S
C2939 C2936 1.403 . S
C2939 C2940 1.524 . S
C2939 C2943 1.400 . S
C2940 H2925 0.960 . S
C2940 H2926 0.960 . S
C2940 H2927 0.960 . S
C2940 C2939 1.524 . S
C2941 C2938 1.403 . S
C2941 C2942 1.392 . S
C2941 C2945 1.495 . S
C2942 C2941 1.392 . S
C2942 C2943 1.385 . S
C2942 C2944 1.478 . S
C2943 H2937 0.930 . S
C2943 C2939 1.400 . S
C2943 C2942 1.385 . S
C2944 C2942 1.478 . S
C2944 C2946 1.381 . S
C2944 C2950 1.383 . S
C2945 C2941 1.495 . S
C2945 H2951 0.959 . S
C2945 H2952 0.961 . S
C2945 H2953 0.960 . S
C2946 C2944 1.381 . S
C2946 C2947 1.394 . S
C2946 H2954 0.930 . S
C2947 C2946 1.394 . S
C2947 C2948 1.383 . S
C2947 H2955 0.929 . S
C2948 C2947 1.383 . S
C2948 C2949 1.377 . S
C2949 H2933 0.930 . S
C2949 C2948 1.377 . S
C2949 C2950 1.379 . S
C2950 H2934 0.931 . S
C2950 C2944 1.383 . S
C2950 C2949 1.379 . S
H2951 C2945 0.959 . S
H2952 C2945 0.961 . S
H2953 C2945 0.960 . S
H2954 C2946 0.930 . S
H2955 C2947 0.929 . S
H2956 C2964 0.929 . S
H2957 C2966 0.930 . S
H2958 C2968 0.930 . S
H2959 C2971 0.929 . S
H2960 C2974 0.930 . S
H2961 C2976 0.960 . S
H2962 C2976 0.960 . S
H2963 C2976 0.960 . S
C2964 H2956 0.929 . S
C2964 C2965 1.377 . S
C2964 C2966 1.384 . S
C2965 C2964 1.377 . S
C2965 C2971 1.390 . S
C2966 H2957 0.930 . S
C2966 C2964 1.384 . S
C2966 C2967 1.372 . S
C2967 C2966 1.372 . S
C2967 C2968 1.400 . S
C2967 C2972 1.490 . S
C2968 H2958 0.930 . S
C2968 C2967 1.400 . S
C2968 C2971 1.386 . S
H2969 C2985 0.930 1_655 S
H2970 C2986 0.931 1_655 S
C2971 H2959 0.929 . S
C2971 C2965 1.390 . S
C2971 C2968 1.386 . S
C2972 C2967 1.490 . S
C2972 C2974 1.395 . S
C2972 C2975 1.403 . S
H2973 C2979 0.930 . S
C2974 H2960 0.930 . S
C2974 C2972 1.395 . S
C2974 C2977 1.403 . S
C2975 C2972 1.403 . S
C2975 C2976 1.524 . S
C2975 C2979 1.400 . S
C2976 H2961 0.960 . S
C2976 H2962 0.960 . S
C2976 H2963 0.960 . S
C2976 C2975 1.524 . S
C2977 C2974 1.403 . S
C2977 C2978 1.392 . S
C2977 C2981 1.495 . S
C2978 C2977 1.392 . S
C2978 C2979 1.385 . S
C2978 C2980 1.478 . S
C2979 H2973 0.930 . S
C2979 C2975 1.400 . S
C2979 C2978 1.385 . S
C2980 C2978 1.478 . S
C2980 C2982 1.381 . S
C2980 C2986 1.383 . S
C2981 C2977 1.495 . S
C2981 H2987 0.959 . S
C2981 H2988 0.961 . S
C2981 H2989 0.960 . S
C2982 C2980 1.381 . S
C2982 C2983 1.394 . S
C2982 H2990 0.930 . S
C2983 C2982 1.394 . S
C2983 C2984 1.383 . S
C2983 H2991 0.929 . S
C2984 C2983 1.383 . S
C2984 C2985 1.377 . S
C2985 H2969 0.930 1_455 S
C2985 C2984 1.377 . S
C2985 C2986 1.379 . S
C2986 H2970 0.931 1_455 S
C2986 C2980 1.383 . S
C2986 C2985 1.379 . S
H2987 C2981 0.959 . S
H2988 C2981 0.961 . S
H2989 C2981 0.960 . S
H2990 C2982 0.930 . S
H2991 C2983 0.929 . S
H2992 C3000 0.929 . S
H2993 C3002 0.930 . S
H2994 C3004 0.930 . S
H2995 C3007 0.929 . S
H2996 C3010 0.930 . S
H2997 C3012 0.960 . S
H2998 C3012 0.960 . S
H2999 C3012 0.960 . S
C3000 H2992 0.929 . S
C3000 C3001 1.377 . S
C3000 C3002 1.384 . S
C3001 C3000 1.377 . S
C3001 C3007 1.390 . S
C3002 H2993 0.930 . S
C3002 C3000 1.384 . S
C3002 C3003 1.372 . S
C3003 C3002 1.372 . S
C3003 C3004 1.400 . S
C3003 C3008 1.490 . S
C3004 H2994 0.930 . S
C3004 C3003 1.400 . S
C3004 C3007 1.386 . S
H3005 C3021 0.930 . S
H3006 C3022 0.931 . S
C3007 H2995 0.929 . S
C3007 C3001 1.390 . S
C3007 C3004 1.386 . S
C3008 C3003 1.490 . S
C3008 C3010 1.395 . S
C3008 C3011 1.403 . S
H3009 C3015 0.930 . S
C3010 H2996 0.930 . S
C3010 C3008 1.395 . S
C3010 C3013 1.403 . S
C3011 C3008 1.403 . S
C3011 C3012 1.524 . S
C3011 C3015 1.400 . S
C3012 H2997 0.960 . S
C3012 H2998 0.960 . S
C3012 H2999 0.960 . S
C3012 C3011 1.524 . S
C3013 C3010 1.403 . S
C3013 C3014 1.392 . S
C3013 C3017 1.495 . S
C3014 C3013 1.392 . S
C3014 C3015 1.385 . S
C3014 C3016 1.478 . S
C3015 H3009 0.930 . S
C3015 C3011 1.400 . S
C3015 C3014 1.385 . S
C3016 C3014 1.478 . S
C3016 C3018 1.381 . S
C3016 C3022 1.383 . S
C3017 C3013 1.495 . S
C3017 H3023 0.959 . S
C3017 H3024 0.961 . S
C3017 H3025 0.960 . S
C3018 C3016 1.381 . S
C3018 C3019 1.394 . S
C3018 H3026 0.930 . S
C3019 C3018 1.394 . S
C3019 C3020 1.383 . S
C3019 H3027 0.929 . S
C3020 C3019 1.383 . S
C3020 C3021 1.377 . S
C3021 H3005 0.930 . S
C3021 C3020 1.377 . S
C3021 C3022 1.379 . S
C3022 H3006 0.931 . S
C3022 C3016 1.383 . S
C3022 C3021 1.379 . S
H3023 C3017 0.959 . S
H3024 C3017 0.961 . S
H3025 C3017 0.960 . S
H3026 C3018 0.930 . S
H3027 C3019 0.929 . S
H3028 C3036 0.929 . S
H3029 C3038 0.930 . S
H3030 C3040 0.930 . S
H3031 C3043 0.929 . S
H3032 C3046 0.930 . S
H3033 C3048 0.960 . S
H3034 C3048 0.960 . S
H3035 C3048 0.960 . S
C3036 H3028 0.929 . S
C3036 C3037 1.377 . S
C3036 C3038 1.384 . S
C3037 C3036 1.377 . S
C3037 C3043 1.390 . S
C3038 H3029 0.930 . S
C3038 C3036 1.384 . S
C3038 C3039 1.372 . S
C3039 C3038 1.372 . S
C3039 C3040 1.400 . S
C3039 C3044 1.490 . S
C3040 H3030 0.930 . S
C3040 C3039 1.400 . S
C3040 C3043 1.386 . S
H3041 C3057 0.930 . S
H3042 C3058 0.931 . S
C3043 H3031 0.929 . S
C3043 C3037 1.390 . S
C3043 C3040 1.386 . S
C3044 C3039 1.490 . S
C3044 C3046 1.395 . S
C3044 C3047 1.403 . S
H3045 C3051 0.930 . S
C3046 H3032 0.930 . S
C3046 C3044 1.395 . S
C3046 C3049 1.403 . S
C3047 C3044 1.403 . S
C3047 C3048 1.524 . S
C3047 C3051 1.400 . S
C3048 H3033 0.960 . S
C3048 H3034 0.960 . S
C3048 H3035 0.960 . S
C3048 C3047 1.524 . S
C3049 C3046 1.403 . S
C3049 C3050 1.392 . S
C3049 C3053 1.495 . S
C3050 C3049 1.392 . S
C3050 C3051 1.385 . S
C3050 C3052 1.478 . S
C3051 H3045 0.930 . S
C3051 C3047 1.400 . S
C3051 C3050 1.385 . S
C3052 C3050 1.478 . S
C3052 C3054 1.381 . S
C3052 C3058 1.383 . S
C3053 C3049 1.495 . S
C3053 H3059 0.959 . S
C3053 H3060 0.961 . S
C3053 H3061 0.960 . S
C3054 C3052 1.381 . S
C3054 C3055 1.394 . S
C3054 H3062 0.930 . S
C3055 C3054 1.394 . S
C3055 C3056 1.383 . S
C3055 H3063 0.929 . S
C3056 C3055 1.383 . S
C3056 C3057 1.377 . S
C3057 H3041 0.930 . S
C3057 C3056 1.377 . S
C3057 C3058 1.379 . S
C3058 H3042 0.931 . S
C3058 C3052 1.383 . S
C3058 C3057 1.379 . S
H3059 C3053 0.959 . S
H3060 C3053 0.961 . S
H3061 C3053 0.960 . S
H3062 C3054 0.930 . S
H3063 C3055 0.929 . S
H3064 C3072 0.929 . S
H3065 C3074 0.930 . S
H3066 C3076 0.930 . S
H3067 C3079 0.929 . S
H3068 C3082 0.930 . S
H3069 C3084 0.960 . S
H3070 C3084 0.960 . S
H3071 C3084 0.960 . S
C3072 H3064 0.929 . S
C3072 C3073 1.377 . S
C3072 C3074 1.384 . S
C3073 C3072 1.377 . S
C3073 C3079 1.390 . S
C3074 H3065 0.930 . S
C3074 C3072 1.384 . S
C3074 C3075 1.372 . S
C3075 C3074 1.372 . S
C3075 C3076 1.400 . S
C3075 C3080 1.490 . S
C3076 H3066 0.930 . S
C3076 C3075 1.400 . S
C3076 C3079 1.386 . S
H3077 C3093 0.930 . S
H3078 C3094 0.931 . S
C3079 H3067 0.929 . S
C3079 C3073 1.390 . S
C3079 C3076 1.386 . S
C3080 C3075 1.490 . S
C3080 C3082 1.395 . S
C3080 C3083 1.403 . S
H3081 C3087 0.930 . S
C3082 H3068 0.930 . S
C3082 C3080 1.395 . S
C3082 C3085 1.403 . S
C3083 C3080 1.403 . S
C3083 C3084 1.524 . S
C3083 C3087 1.400 . S
C3084 H3069 0.960 . S
C3084 H3070 0.960 . S
C3084 H3071 0.960 . S
C3084 C3083 1.524 . S
C3085 C3082 1.403 . S
C3085 C3086 1.392 . S
C3085 C3089 1.495 . S
C3086 C3085 1.392 . S
C3086 C3087 1.385 . S
C3086 C3088 1.478 . S
C3087 H3081 0.930 . S
C3087 C3083 1.400 . S
C3087 C3086 1.385 . S
C3088 C3086 1.478 . S
C3088 C3090 1.381 . S
C3088 C3094 1.383 . S
C3089 C3085 1.495 . S
C3089 H3095 0.959 . S
C3089 H3096 0.961 . S
C3089 H3097 0.960 . S
C3090 C3088 1.381 . S
C3090 C3091 1.394 . S
C3090 H3098 0.930 . S
C3091 C3090 1.394 . S
C3091 C3092 1.383 . S
C3091 H3099 0.929 . S
C3092 C3091 1.383 . S
C3092 C3093 1.377 . S
C3093 H3077 0.930 . S
C3093 C3092 1.377 . S
C3093 C3094 1.379 . S
C3094 H3078 0.931 . S
C3094 C3088 1.383 . S
C3094 C3093 1.379 . S
H3095 C3089 0.959 . S
H3096 C3089 0.961 . S
H3097 C3089 0.960 . S
H3098 C3090 0.930 . S
H3099 C3091 0.929 . S
H3100 C3108 0.929 . S
H3101 C3110 0.930 . S
H3102 C3112 0.930 . S
H3103 C3115 0.929 . S
H3104 C3118 0.930 . S
H3105 C3120 0.960 . S
H3106 C3120 0.960 . S
H3107 C3120 0.960 . S
C3108 H3100 0.929 . S
C3108 C3109 1.377 . S
C3108 C3110 1.384 . S
C3109 C3108 1.377 . S
C3109 C3115 1.390 . S
C3110 H3101 0.930 . S
C3110 C3108 1.384 . S
C3110 C3111 1.372 . S
C3111 C3110 1.372 . S
C3111 C3112 1.400 . S
C3111 C3116 1.490 . S
C3112 H3102 0.930 . S
C3112 C3111 1.400 . S
C3112 C3115 1.386 . S
H3113 C3129 0.930 . S
H3114 C3130 0.931 . S
C3115 H3103 0.929 . S
C3115 C3109 1.390 . S
C3115 C3112 1.386 . S
C3116 C3111 1.490 . S
C3116 C3118 1.395 . S
C3116 C3119 1.403 . S
H3117 C3123 0.930 . S
C3118 H3104 0.930 . S
C3118 C3116 1.395 . S
C3118 C3121 1.403 . S
C3119 C3116 1.403 . S
C3119 C3120 1.524 . S
C3119 C3123 1.400 . S
C3120 H3105 0.960 . S
C3120 H3106 0.960 . S
C3120 H3107 0.960 . S
C3120 C3119 1.524 . S
C3121 C3118 1.403 . S
C3121 C3122 1.392 . S
C3121 C3125 1.495 . S
C3122 C3121 1.392 . S
C3122 C3123 1.385 . S
C3122 C3124 1.478 . S
C3123 H3117 0.930 . S
C3123 C3119 1.400 . S
C3123 C3122 1.385 . S
C3124 C3122 1.478 . S
C3124 C3126 1.381 . S
C3124 C3130 1.383 . S
C3125 C3121 1.495 . S
C3125 H3131 0.959 . S
C3125 H3132 0.961 . S
C3125 H3133 0.960 . S
C3126 C3124 1.381 . S
C3126 C3127 1.394 . S
C3126 H3134 0.930 . S
C3127 C3126 1.394 . S
C3127 C3128 1.383 . S
C3127 H3135 0.929 . S
C3128 C3127 1.383 . S
C3128 C3129 1.377 . S
C3129 H3113 0.930 . S
C3129 C3128 1.377 . S
C3129 C3130 1.379 . S
C3130 H3114 0.931 . S
C3130 C3124 1.383 . S
C3130 C3129 1.379 . S
H3131 C3125 0.959 . S
H3132 C3125 0.961 . S
H3133 C3125 0.960 . S
H3134 C3126 0.930 . S
H3135 C3127 0.929 . S
H3136 C3144 0.929 . S
H3137 C3146 0.930 . S
H3138 C3148 0.930 . S
H3139 C3151 0.929 . S
H3140 C3154 0.930 . S
H3141 C3156 0.960 . S
H3142 C3156 0.960 . S
H3143 C3156 0.960 . S
C3144 H3136 0.929 . S
C3144 C3145 1.377 . S
C3144 C3146 1.384 . S
C3145 C3144 1.377 . S
C3145 C3151 1.390 . S
C3146 H3137 0.930 . S
C3146 C3144 1.384 . S
C3146 C3147 1.372 . S
C3147 C3146 1.372 . S
C3147 C3148 1.400 . S
C3147 C3152 1.490 . S
C3148 H3138 0.930 . S
C3148 C3147 1.400 . S
C3148 C3151 1.386 . S
H3149 C3165 0.930 . S
H3150 C3166 0.931 . S
C3151 H3139 0.929 . S
C3151 C3145 1.390 . S
C3151 C3148 1.386 . S
C3152 C3147 1.490 . S
C3152 C3154 1.395 . S
C3152 C3155 1.403 . S
H3153 C3159 0.930 . S
C3154 H3140 0.930 . S
C3154 C3152 1.395 . S
C3154 C3157 1.403 . S
C3155 C3152 1.403 . S
C3155 C3156 1.524 . S
C3155 C3159 1.400 . S
C3156 H3141 0.960 . S
C3156 H3142 0.960 . S
C3156 H3143 0.960 . S
C3156 C3155 1.524 . S
C3157 C3154 1.403 . S
C3157 C3158 1.392 . S
C3157 C3161 1.495 . S
C3158 C3157 1.392 . S
C3158 C3159 1.385 . S
C3158 C3160 1.478 . S
C3159 H3153 0.930 . S
C3159 C3155 1.400 . S
C3159 C3158 1.385 . S
C3160 C3158 1.478 . S
C3160 C3162 1.381 . S
C3160 C3166 1.383 . S
C3161 C3157 1.495 . S
C3161 H3167 0.959 . S
C3161 H3168 0.961 . S
C3161 H3169 0.960 . S
C3162 C3160 1.381 . S
C3162 C3163 1.394 . S
C3162 H3170 0.930 . S
C3163 C3162 1.394 . S
C3163 C3164 1.383 . S
C3163 H3171 0.929 . S
C3164 C3163 1.383 . S
C3164 C3165 1.377 . S
C3165 H3149 0.930 . S
C3165 C3164 1.377 . S
C3165 C3166 1.379 . S
C3166 H3150 0.931 . S
C3166 C3160 1.383 . S
C3166 C3165 1.379 . S
H3167 C3161 0.959 . S
H3168 C3161 0.961 . S
H3169 C3161 0.960 . S
H3170 C3162 0.930 . S
H3171 C3163 0.929 . S
H3172 C3180 0.929 . S
H3173 C3182 0.930 . S
H3174 C3184 0.930 . S
H3175 C3187 0.929 . S
H3176 C3190 0.930 . S
H3177 C3192 0.960 . S
H3178 C3192 0.960 . S
H3179 C3192 0.960 . S
C3180 H3172 0.929 . S
C3180 C3181 1.377 . S
C3180 C3182 1.384 . S
C3181 C3180 1.377 . S
C3181 C3187 1.390 . S
C3182 H3173 0.930 . S
C3182 C3180 1.384 . S
C3182 C3183 1.372 . S
C3183 C3182 1.372 . S
C3183 C3184 1.400 . S
C3183 C3188 1.490 . S
C3184 H3174 0.930 . S
C3184 C3183 1.400 . S
C3184 C3187 1.386 . S
H3185 C3201 0.930 . S
H3186 C3202 0.931 . S
C3187 H3175 0.929 . S
C3187 C3181 1.390 . S
C3187 C3184 1.386 . S
C3188 C3183 1.490 . S
C3188 C3190 1.395 . S
C3188 C3191 1.403 . S
H3189 C3195 0.930 . S
C3190 H3176 0.930 . S
C3190 C3188 1.395 . S
C3190 C3193 1.403 . S
C3191 C3188 1.403 . S
C3191 C3192 1.524 . S
C3191 C3195 1.400 . S
C3192 H3177 0.960 . S
C3192 H3178 0.960 . S
C3192 H3179 0.960 . S
C3192 C3191 1.524 . S
C3193 C3190 1.403 . S
C3193 C3194 1.392 . S
C3193 C3197 1.495 . S
C3194 C3193 1.392 . S
C3194 C3195 1.385 . S
C3194 C3196 1.478 . S
C3195 H3189 0.930 . S
C3195 C3191 1.400 . S
C3195 C3194 1.385 . S
C3196 C3194 1.478 . S
C3196 C3198 1.381 . S
C3196 C3202 1.383 . S
C3197 C3193 1.495 . S
C3197 H3203 0.959 . S
C3197 H3204 0.961 . S
C3197 H3205 0.960 . S
C3198 C3196 1.381 . S
C3198 C3199 1.394 . S
C3198 H3206 0.930 . S
C3199 C3198 1.394 . S
C3199 C3200 1.383 . S
C3199 H3207 0.929 . S
C3200 C3199 1.383 . S
C3200 C3201 1.377 . S
C3201 H3185 0.930 . S
C3201 C3200 1.377 . S
C3201 C3202 1.379 . S
C3202 H3186 0.931 . S
C3202 C3196 1.383 . S
C3202 C3201 1.379 . S
H3203 C3197 0.959 . S
H3204 C3197 0.961 . S
H3205 C3197 0.960 . S
H3206 C3198 0.930 . S
H3207 C3199 0.929 . S
H3208 C3216 0.929 . S
H3209 C3218 0.930 . S
H3210 C3220 0.930 . S
H3211 C3223 0.929 . S
H3212 C3226 0.930 . S
H3213 C3228 0.960 . S
H3214 C3228 0.960 . S
H3215 C3228 0.960 . S
C3216 H3208 0.929 . S
C3216 C3217 1.377 . S
C3216 C3218 1.384 . S
C3217 C3216 1.377 . S
C3217 C3223 1.390 . S
C3218 H3209 0.930 . S
C3218 C3216 1.384 . S
C3218 C3219 1.372 . S
C3219 C3218 1.372 . S
C3219 C3220 1.400 . S
C3219 C3224 1.490 . S
C3220 H3210 0.930 . S
C3220 C3219 1.400 . S
C3220 C3223 1.386 . S
H3221 C3237 0.930 . S
H3222 C3238 0.931 . S
C3223 H3211 0.929 . S
C3223 C3217 1.390 . S
C3223 C3220 1.386 . S
C3224 C3219 1.490 . S
C3224 C3226 1.395 . S
C3224 C3227 1.403 . S
H3225 C3231 0.930 . S
C3226 H3212 0.930 . S
C3226 C3224 1.395 . S
C3226 C3229 1.403 . S
C3227 C3224 1.403 . S
C3227 C3228 1.524 . S
C3227 C3231 1.400 . S
C3228 H3213 0.960 . S
C3228 H3214 0.960 . S
C3228 H3215 0.960 . S
C3228 C3227 1.524 . S
C3229 C3226 1.403 . S
C3229 C3230 1.392 . S
C3229 C3233 1.495 . S
C3230 C3229 1.392 . S
C3230 C3231 1.385 . S
C3230 C3232 1.478 . S
C3231 H3225 0.930 . S
C3231 C3227 1.400 . S
C3231 C3230 1.385 . S
C3232 C3230 1.478 . S
C3232 C3234 1.381 . S
C3232 C3238 1.383 . S
C3233 C3229 1.495 . S
C3233 H3239 0.959 . S
C3233 H3240 0.961 . S
C3233 H3241 0.960 . S
C3234 C3232 1.381 . S
C3234 C3235 1.394 . S
C3234 H3242 0.930 . S
C3235 C3234 1.394 . S
C3235 C3236 1.383 . S
C3235 H3243 0.929 . S
C3236 C3235 1.383 . S
C3236 C3237 1.377 . S
C3237 H3221 0.930 . S
C3237 C3236 1.377 . S
C3237 C3238 1.379 . S
C3238 H3222 0.931 . S
C3238 C3232 1.383 . S
C3238 C3237 1.379 . S
H3239 C3233 0.959 . S
H3240 C3233 0.961 . S
H3241 C3233 0.960 . S
H3242 C3234 0.930 . S
H3243 C3235 0.929 . S
H3244 C3252 0.929 . S
H3245 C3254 0.930 . S
H3246 C3256 0.930 . S
H3247 C3259 0.929 . S
H3248 C3262 0.930 . S
H3249 C3264 0.960 . S
H3250 C3264 0.960 . S
H3251 C3264 0.960 . S
C3252 H3244 0.929 . S
C3252 C3253 1.377 . S
C3252 C3254 1.384 . S
C3253 C3252 1.377 . S
C3253 C3259 1.390 . S
C3254 H3245 0.930 . S
C3254 C3252 1.384 . S
C3254 C3255 1.372 . S
C3255 C3254 1.372 . S
C3255 C3256 1.400 . S
C3255 C3260 1.490 . S
C3256 H3246 0.930 . S
C3256 C3255 1.400 . S
C3256 C3259 1.386 . S
H3257 C3273 0.930 . S
H3258 C3274 0.931 . S
C3259 H3247 0.929 . S
C3259 C3253 1.390 . S
C3259 C3256 1.386 . S
C3260 C3255 1.490 . S
C3260 C3262 1.395 . S
C3260 C3263 1.403 . S
H3261 C3267 0.930 . S
C3262 H3248 0.930 . S
C3262 C3260 1.395 . S
C3262 C3265 1.403 . S
C3263 C3260 1.403 . S
C3263 C3264 1.524 . S
C3263 C3267 1.400 . S
C3264 H3249 0.960 . S
C3264 H3250 0.960 . S
C3264 H3251 0.960 . S
C3264 C3263 1.524 . S
C3265 C3262 1.403 . S
C3265 C3266 1.392 . S
C3265 C3269 1.495 . S
C3266 C3265 1.392 . S
C3266 C3267 1.385 . S
C3266 C3268 1.478 . S
C3267 H3261 0.930 . S
C3267 C3263 1.400 . S
C3267 C3266 1.385 . S
C3268 C3266 1.478 . S
C3268 C3270 1.381 . S
C3268 C3274 1.383 . S
C3269 C3265 1.495 . S
C3269 H3275 0.959 . S
C3269 H3276 0.961 . S
C3269 H3277 0.960 . S
C3270 C3268 1.381 . S
C3270 C3271 1.394 . S
C3270 H3278 0.930 . S
C3271 C3270 1.394 . S
C3271 C3272 1.383 . S
C3271 H3279 0.929 . S
C3272 C3271 1.383 . S
C3272 C3273 1.377 . S
C3273 H3257 0.930 . S
C3273 C3272 1.377 . S
C3273 C3274 1.379 . S
C3274 H3258 0.931 . S
C3274 C3268 1.383 . S
C3274 C3273 1.379 . S
H3275 C3269 0.959 . S
H3276 C3269 0.961 . S
H3277 C3269 0.960 . S
H3278 C3270 0.930 . S
H3279 C3271 0.929 . S
H3280 C3288 0.929 . S
H3281 C3290 0.968 . S
H3282 C3292 0.930 . S
H3283 C3295 0.929 . S
H3284 C3298 0.930 . S
H3285 C3300 0.960 . S
H3286 C3300 0.960 . S
H3287 C3300 0.960 . S
C3288 H3280 0.929 . S
C3288 C3289 1.377 . S
C3288 C3290 1.384 . S
C3289 C3288 1.377 . S
C3289 C3295 1.390 . S
C3290 H3281 0.968 . S
C3290 C3288 1.384 . S
C3290 C3291 1.372 . S
C3291 C3290 1.372 . S
C3291 C3292 1.400 . S
C3291 C3296 1.490 . S
C3292 H3282 0.930 . S
C3292 C3291 1.400 . S
C3292 C3295 1.386 . S
H3293 C3309 0.930 . S
H3294 C3310 0.931 . S
C3295 H3283 0.929 . S
C3295 C3289 1.390 . S
C3295 C3292 1.386 . S
C3296 C3291 1.490 . S
C3296 C3298 1.395 . S
C3296 C3299 1.403 . S
H3297 C3303 0.930 . S
C3298 H3284 0.930 . S
C3298 C3296 1.395 . S
C3298 C3301 1.403 . S
C3299 C3296 1.403 . S
C3299 C3300 1.524 . S
C3299 C3303 1.400 . S
C3300 H3285 0.960 . S
C3300 H3286 0.960 . S
C3300 H3287 0.960 . S
C3300 C3299 1.524 . S
C3301 C3298 1.403 . S
C3301 C3302 1.392 . S
C3301 C3305 1.495 . S
C3302 C3301 1.392 . S
C3302 C3303 1.385 . S
C3302 C3304 1.478 . S
C3303 H3297 0.930 . S
C3303 C3299 1.400 . S
C3303 C3302 1.385 . S
C3304 C3302 1.478 . S
C3304 C3306 1.381 . S
C3304 C3310 1.383 . S
C3305 C3301 1.495 . S
C3305 H3311 0.959 . S
C3305 H3312 0.961 . S
C3305 H3313 0.960 . S
C3306 C3304 1.381 . S
C3306 C3307 1.394 1_556 S
C3306 H3314 0.930 1_556 S
C3307 C3306 1.394 1_554 S
C3307 C3308 1.382 1_554 S
C3307 H3315 0.931 . S
C3308 C3307 1.382 1_556 S
C3308 C3309 1.377 . S
C3309 H3293 0.930 . S
C3309 C3308 1.377 . S
C3309 C3310 1.379 . S
C3310 H3294 0.931 . S
C3310 C3304 1.383 . S
C3310 C3309 1.379 . S
H3311 C3305 0.959 . S
H3312 C3305 0.961 . S
H3313 C3305 0.960 . S
H3314 C3306 0.930 1_554 S
H3315 C3307 0.931 . S
H3316 C3324 0.929 . S
H3317 C3326 0.930 . S
H3318 C3328 0.930 . S
H3319 C3331 0.929 . S
H3320 C3334 0.930 . S
H3321 C3336 0.960 . S
H3322 C3336 0.960 . S
H3323 C3336 0.960 . S
C3324 H3316 0.929 . S
C3324 C3325 1.377 . S
C3324 C3326 1.384 . S
C3325 C3324 1.377 . S
C3325 C3331 1.390 . S
C3326 H3317 0.930 . S
C3326 C3324 1.384 . S
C3326 C3327 1.372 . S
C3327 C3326 1.372 . S
C3327 C3328 1.400 . S
C3327 C3332 1.490 . S
C3328 H3318 0.930 . S
C3328 C3327 1.400 . S
C3328 C3331 1.386 . S
H3329 C3345 0.930 . S
H3330 C3346 0.931 . S
C3331 H3319 0.929 . S
C3331 C3325 1.390 . S
C3331 C3328 1.386 . S
C3332 C3327 1.490 . S
C3332 C3334 1.395 . S
C3332 C3335 1.403 . S
H3333 C3339 0.930 . S
C3334 H3320 0.930 . S
C3334 C3332 1.395 . S
C3334 C3337 1.403 . S
C3335 C3332 1.403 . S
C3335 C3336 1.524 . S
C3335 C3339 1.400 . S
C3336 H3321 0.960 . S
C3336 H3322 0.960 . S
C3336 H3323 0.960 . S
C3336 C3335 1.524 . S
C3337 C3334 1.403 . S
C3337 C3338 1.392 . S
C3337 C3341 1.495 . S
C3338 C3337 1.392 . S
C3338 C3339 1.385 . S
C3338 C3340 1.478 . S
C3339 H3333 0.930 . S
C3339 C3335 1.400 . S
C3339 C3338 1.385 . S
C3340 C3338 1.478 . S
C3340 C3342 1.381 . S
C3340 C3346 1.383 . S
C3341 C3337 1.495 . S
C3341 H3347 0.959 . S
C3341 H3348 0.961 . S
C3341 H3349 0.960 . S
C3342 C3340 1.381 . S
C3342 C3343 1.394 . S
C3342 H3350 0.930 . S
C3343 C3342 1.394 . S
C3343 C3344 1.383 . S
C3343 H3351 0.929 . S
C3344 C3343 1.383 . S
C3344 C3345 1.377 . S
C3345 H3329 0.930 . S
C3345 C3344 1.377 . S
C3345 C3346 1.379 . S
C3346 H3330 0.931 . S
C3346 C3340 1.383 . S
C3346 C3345 1.379 . S
H3347 C3341 0.959 . S
H3348 C3341 0.961 . S
H3349 C3341 0.960 . S
H3350 C3342 0.930 . S
H3351 C3343 0.929 . S
H3352 C3360 0.929 . S
H3353 C3362 0.930 . S
H3354 C3364 0.930 . S
H3355 C3367 0.929 . S
H3356 C3370 0.930 . S
H3357 C3372 0.960 . S
H3358 C3372 0.960 . S
H3359 C3372 0.960 . S
C3360 H3352 0.929 . S
C3360 C3361 1.377 . S
C3360 C3362 1.384 . S
C3361 C3360 1.377 . S
C3361 C3367 1.390 . S
C3362 H3353 0.930 . S
C3362 C3360 1.384 . S
C3362 C3363 1.372 . S
C3363 C3362 1.372 . S
C3363 C3364 1.400 . S
C3363 C3368 1.490 . S
C3364 H3354 0.930 . S
C3364 C3363 1.400 . S
C3364 C3367 1.386 . S
H3365 C3381 0.948 . S
H3366 C3382 0.931 1_556 S
C3367 H3355 0.929 . S
C3367 C3361 1.390 . S
C3367 C3364 1.386 . S
C3368 C3363 1.490 . S
C3368 C3370 1.395 . S
C3368 C3371 1.403 . S
H3369 C3375 0.930 . S
C3370 H3356 0.930 . S
C3370 C3368 1.395 . S
C3370 C3373 1.403 . S
C3371 C3368 1.403 . S
C3371 C3372 1.524 . S
C3371 C3375 1.400 . S
C3372 H3357 0.960 . S
C3372 H3358 0.960 . S
C3372 H3359 0.960 . S
C3372 C3371 1.524 . S
C3373 C3370 1.403 . S
C3373 C3374 1.392 . S
C3373 C3377 1.495 . S
C3374 C3373 1.392 . S
C3374 C3375 1.385 . S
C3374 C3376 1.478 . S
C3375 H3369 0.930 . S
C3375 C3371 1.400 . S
C3375 C3374 1.385 . S
C3376 C3374 1.478 . S
C3376 C3378 1.381 . S
C3376 C3382 1.383 . S
C3377 C3373 1.495 . S
C3377 H3383 0.959 . S
C3377 H3384 0.976 . S
C3377 H3385 0.960 . S
C3378 C3376 1.381 . S
C3378 C3379 1.394 . S
C3378 H3386 0.930 . S
C3379 C3378 1.394 . S
C3379 C3380 1.383 . S
C3379 H3387 0.929 . S
C3380 C3379 1.383 . S
C3380 C3381 1.362 1_554 S
C3381 H3365 0.948 . S
C3381 C3380 1.362 1_556 S
C3381 C3382 1.377 1_556 S
C3382 H3366 0.931 1_554 S
C3382 C3376 1.383 . S
C3382 C3381 1.377 1_554 S
H3383 C3377 0.959 . S
H3384 C3377 0.976 . S
H3385 C3377 0.960 . S
H3386 C3378 0.930 . S
H3387 C3379 0.929 . S
H3388 C3396 0.929 . S
H3389 C3398 0.930 . S
H3390 C3400 0.930 . S
H3391 C3403 0.929 . S
H3392 C3406 0.930 . S
H3393 C3408 0.960 . S
H3394 C3408 0.960 . S
H3395 C3408 0.960 . S
C3396 H3388 0.929 . S
C3396 C3397 1.377 . S
C3396 C3398 1.384 . S
C3397 C3396 1.377 . S
C3397 C3403 1.390 . S
C3398 H3389 0.930 . S
C3398 C3396 1.384 . S
C3398 C3399 1.372 . S
C3399 C3398 1.372 . S
C3399 C3400 1.400 . S
C3399 C3404 1.490 . S
C3400 H3390 0.930 . S
C3400 C3399 1.400 . S
C3400 C3403 1.386 . S
H3401 C3417 0.930 1_556 S
H3402 C3418 0.926 1_556 S
C3403 H3391 0.929 . S
C3403 C3397 1.390 . S
C3403 C3400 1.386 . S
C3404 C3399 1.490 . S
C3404 C3406 1.395 . S
C3404 C3407 1.403 . S
H3405 C3411 0.930 . S
C3406 H3392 0.930 . S
C3406 C3404 1.395 . S
C3406 C3409 1.403 . S
C3407 C3404 1.403 . S
C3407 C3408 1.524 . S
C3407 C3411 1.400 . S
C3408 H3393 0.960 . S
C3408 H3394 0.960 . S
C3408 H3395 0.960 . S
C3408 C3407 1.524 . S
C3409 C3406 1.403 . S
C3409 C3410 1.392 . S
C3409 C3413 1.495 . S
C3410 C3409 1.392 . S
C3410 C3411 1.385 . S
C3410 C3412 1.478 . S
C3411 H3405 0.930 . S
C3411 C3407 1.400 . S
C3411 C3410 1.385 . S
C3412 C3410 1.478 . S
C3412 C3414 1.381 . S
C3412 C3418 1.383 . S
C3413 C3409 1.495 . S
C3413 H3419 0.959 . S
C3413 H3420 0.961 . S
C3413 H3421 0.960 . S
C3414 C3412 1.381 . S
C3414 C3415 1.394 . S
C3414 H3422 0.930 . S
C3415 C3414 1.394 . S
C3415 C3416 1.383 . S
C3415 H3423 0.929 . S
C3416 C3415 1.383 . S
C3416 C3417 1.377 . S
C3417 H3401 0.930 1_554 S
C3417 C3416 1.377 . S
C3417 C3418 1.379 . S
C3418 H3402 0.926 1_554 S
C3418 C3412 1.383 . S
C3418 C3417 1.379 . S
H3419 C3413 0.959 . S
H3420 C3413 0.961 . S
H3421 C3413 0.960 . S
H3422 C3414 0.930 . S
H3423 C3415 0.929 . S
C1724 C689 1.481 . S
C1705 C202 1.465 . S
C1760 C748 1.539 . S
C1741 C261 1.544 . S
C1777 C282 1.512 . S
C1796 C865 1.523 . S
C1832 C933 1.518 . S
C1813 C162 1.518 . S
C1868 C1012 1.482 . S
C1849 C402 1.465 . S
C1904 C1137 1.523 . S
C1885 C482 1.516 . S
C1921 C442 1.515 . S
C1940 C1197 1.516 . S
C1976 C1305 1.542 . S
C1957 C381 1.543 . S
C1993 C461 1.563 . S
C2012 C1401 1.565 . S
C2048 C1461 1.489 . S
C2029 C362 1.483 . S
C2065 C415 1.453 . S
C2084 C1364 1.453 . S
C2120 C1481 1.541 . S
C2101 C495 1.546 . S
C2137 C301 1.564 . S
C2156 C1549 1.559 . S
C2173 C175 1.547 . S
C2192 C1540 1.542 . S
C2209 C215 1.454 . S
C2228 C1569 1.455 . S
C2245 C242 1.483 . S
C2264 C1577 1.490 . S
C2281 C141 1.539 . S
C2300 C961 1.553 . S
C2317 C581 1.534 . S
C2336 C924 1.555 . S
C2372 C660 1.455 . S
C2353 C615 1.458 . S
C2408 C757 1.488 . S
C2389 C335 1.493 . S
C2425 C181 1.588 . S
C2444 C1021 1.592 . S
C2480 C1313 1.486 . S
C2461 C455 1.492 . S
C2516 C1041 1.456 . S
C2497 C375 1.458 . S
C2552 C1225 1.592 . S
C2533 C501 1.588 . S
C2588 C1217 1.483 . S
C2569 C562 1.468 . S
C2605 C621 1.543 . S
C2624 C1285 1.542 . S
C2641 C322 1.512 . S
C2660 C1049 1.517 . S
C2696 C1100 1.523 . S
C2677 C522 1.518 . S
C2713 C122 1.466 . S
C2732 C845 1.481 . S
C2768 C953 1.518 . S
C2749 C2 1.518 . S
C2804 C669 1.520 . S
C2785 C42 1.515 . S
C2840 C785 1.538 . S
C2821 C101 1.544 . S
C2857 C61 1.564 . S
C2876 C1489 1.560 . S
C2893 C82 1.487 . S
C2912 C1373 1.487 . S
C2929 C135 1.454 . S
C2948 C1452 1.455 . S
C2965 C15 1.546 . S
C2984 C1393 1.541 . S
C3020 C1637 1.558 . S
C3001 C341 1.563 . S
C3056 C1628 1.542 . S
C3037 C535 1.546 . S
C3092 C1657 1.449 . S
C3073 C575 1.454 . S
C3109 C602 1.487 . S
C3128 C1665 1.487 . S
C3145 C421 1.539 . S
C3164 C1129 1.553 . S
C3200 C1109 1.554 . S
C3181 C221 1.539 . S
C3236 C1188 1.458 . S
C3217 C255 1.458 . S
C3272 C1276 1.490 . S
C3253 C295 1.493 . S
C3289 C541 1.589 . S
C3308 C836 1.593 . S
C3344 C777 1.487 . S
C3325 C55 1.493 . S
C3361 C95 1.457 . S
C3380 C873 1.452 . S
C3416 C697 1.587 . S
C3397 C21 1.590 . S
