# Generated by pormake.
# Topology gar, (4,6)-cn, num edge types: 1
# Building blocks:
#     Node 0, Type 0, BuildingBlock: CEKHIL_clean_sbu_0, # of connection points: 4
#     Node 1, Type 0, BuildingBlock: CEKHIL_clean_sbu_0, # of connection points: 4
#     Node 2, Type 0, BuildingBlock: CEKHIL_clean_sbu_0, # of connection points: 4
#     Node 3, Type 0, BuildingBlock: CEKHIL_clean_sbu_0, # of connection points: 4
#     Node 4, Type 0, BuildingBlock: CEKHIL_clean_sbu_0, # of connection points: 4
#     Node 5, Type 0, BuildingBlock: CEKHIL_clean_sbu_0, # of connection points: 4
#     Node 6, Type 0, BuildingBlock: CEKHIL_clean_sbu_0, # of connection points: 4
#     Node 7, Type 0, BuildingBlock: CEKHIL_clean_sbu_0, # of connection points: 4
#     Node 8, Type 0, BuildingBlock: CEKHIL_clean_sbu_0, # of connection points: 4
#     Node 9, Type 0, BuildingBlock: CEKHIL_clean_sbu_0, # of connection points: 4
#     Node 10, Type 0, BuildingBlock: CEKHIL_clean_sbu_0, # of connection points: 4
#     Node 11, Type 0, BuildingBlock: CEKHIL_clean_sbu_0, # of connection points: 4
#     Node 12, Type 0, BuildingBlock: CEKHIL_clean_sbu_0, # of connection points: 4
#     Node 13, Type 0, BuildingBlock: CEKHIL_clean_sbu_0, # of connection points: 4
#     Node 14, Type 0, BuildingBlock: CEKHIL_clean_sbu_0, # of connection points: 4
#     Node 15, Type 0, BuildingBlock: CEKHIL_clean_sbu_0, # of connection points: 4
#     Node 16, Type 0, BuildingBlock: CEKHIL_clean_sbu_0, # of connection points: 4
#     Node 17, Type 0, BuildingBlock: CEKHIL_clean_sbu_0, # of connection points: 4
#     Node 18, Type 0, BuildingBlock: CEKHIL_clean_sbu_0, # of connection points: 4
#     Node 19, Type 0, BuildingBlock: CEKHIL_clean_sbu_0, # of connection points: 4
#     Node 20, Type 0, BuildingBlock: CEKHIL_clean_sbu_0, # of connection points: 4
#     Node 21, Type 0, BuildingBlock: CEKHIL_clean_sbu_0, # of connection points: 4
#     Node 22, Type 0, BuildingBlock: CEKHIL_clean_sbu_0, # of connection points: 4
#     Node 23, Type 0, BuildingBlock: CEKHIL_clean_sbu_0, # of connection points: 4
#     Node 24, Type 1, BuildingBlock: NUHQIS_clean_sbu_0, # of connection points: 6
#     Node 25, Type 1, BuildingBlock: NUHQIS_clean_sbu_0, # of connection points: 6
#     Node 26, Type 1, BuildingBlock: NUHQIS_clean_sbu_0, # of connection points: 6
#     Node 27, Type 1, BuildingBlock: NUHQIS_clean_sbu_0, # of connection points: 6
#     Node 28, Type 1, BuildingBlock: NUHQIS_clean_sbu_0, # of connection points: 6
#     Node 29, Type 1, BuildingBlock: NUHQIS_clean_sbu_0, # of connection points: 6
#     Node 30, Type 1, BuildingBlock: NUHQIS_clean_sbu_0, # of connection points: 6
#     Node 31, Type 1, BuildingBlock: NUHQIS_clean_sbu_0, # of connection points: 6
#     Node 32, Type 1, BuildingBlock: NUHQIS_clean_sbu_0, # of connection points: 6
#     Node 33, Type 1, BuildingBlock: NUHQIS_clean_sbu_0, # of connection points: 6
#     Node 34, Type 1, BuildingBlock: NUHQIS_clean_sbu_0, # of connection points: 6
#     Node 35, Type 1, BuildingBlock: NUHQIS_clean_sbu_0, # of connection points: 6
#     Node 36, Type 1, BuildingBlock: NUHQIS_clean_sbu_0, # of connection points: 6
#     Node 37, Type 1, BuildingBlock: NUHQIS_clean_sbu_0, # of connection points: 6
#     Node 38, Type 1, BuildingBlock: NUHQIS_clean_sbu_0, # of connection points: 6
#     Node 39, Type 1, BuildingBlock: NUHQIS_clean_sbu_0, # of connection points: 6
#     Edge 40, Type (0, 1), BuildingBlock: EZIPEK_clean_linker_0, # of connection points: 2
#     Edge 41, Type (0, 1), BuildingBlock: EZIPEK_clean_linker_0, # of connection points: 2
#     Edge 42, Type (0, 1), BuildingBlock: EZIPEK_clean_linker_0, # of connection points: 2
#     Edge 43, Type (0, 1), BuildingBlock: EZIPEK_clean_linker_0, # of connection points: 2
#     Edge 44, Type (0, 1), BuildingBlock: EZIPEK_clean_linker_0, # of connection points: 2
#     Edge 45, Type (0, 1), BuildingBlock: EZIPEK_clean_linker_0, # of connection points: 2
#     Edge 46, Type (0, 1), BuildingBlock: EZIPEK_clean_linker_0, # of connection points: 2
#     Edge 47, Type (0, 1), BuildingBlock: EZIPEK_clean_linker_0, # of connection points: 2
#     Edge 48, Type (0, 1), BuildingBlock: EZIPEK_clean_linker_0, # of connection points: 2
#     Edge 49, Type (0, 1), BuildingBlock: EZIPEK_clean_linker_0, # of connection points: 2
#     Edge 50, Type (0, 1), BuildingBlock: EZIPEK_clean_linker_0, # of connection points: 2
#     Edge 51, Type (0, 1), BuildingBlock: EZIPEK_clean_linker_0, # of connection points: 2
#     Edge 52, Type (0, 1), BuildingBlock: EZIPEK_clean_linker_0, # of connection points: 2
#     Edge 53, Type (0, 1), BuildingBlock: EZIPEK_clean_linker_0, # of connection points: 2
#     Edge 54, Type (0, 1), BuildingBlock: EZIPEK_clean_linker_0, # of connection points: 2
#     Edge 55, Type (0, 1), BuildingBlock: EZIPEK_clean_linker_0, # of connection points: 2
#     Edge 56, Type (0, 1), BuildingBlock: EZIPEK_clean_linker_0, # of connection points: 2
#     Edge 57, Type (0, 1), BuildingBlock: EZIPEK_clean_linker_0, # of connection points: 2
#     Edge 58, Type (0, 1), BuildingBlock: EZIPEK_clean_linker_0, # of connection points: 2
#     Edge 59, Type (0, 1), BuildingBlock: EZIPEK_clean_linker_0, # of connection points: 2
#     Edge 60, Type (0, 1), BuildingBlock: EZIPEK_clean_linker_0, # of connection points: 2
#     Edge 61, Type (0, 1), BuildingBlock: EZIPEK_clean_linker_0, # of connection points: 2
#     Edge 62, Type (0, 1), BuildingBlock: EZIPEK_clean_linker_0, # of connection points: 2
#     Edge 63, Type (0, 1), BuildingBlock: EZIPEK_clean_linker_0, # of connection points: 2
#     Edge 64, Type (0, 1), BuildingBlock: EZIPEK_clean_linker_0, # of connection points: 2
#     Edge 65, Type (0, 1), BuildingBlock: EZIPEK_clean_linker_0, # of connection points: 2
#     Edge 66, Type (0, 1), BuildingBlock: EZIPEK_clean_linker_0, # of connection points: 2
#     Edge 67, Type (0, 1), BuildingBlock: EZIPEK_clean_linker_0, # of connection points: 2
#     Edge 68, Type (0, 1), BuildingBlock: EZIPEK_clean_linker_0, # of connection points: 2
#     Edge 69, Type (0, 1), BuildingBlock: EZIPEK_clean_linker_0, # of connection points: 2
#     Edge 70, Type (0, 1), BuildingBlock: EZIPEK_clean_linker_0, # of connection points: 2
#     Edge 71, Type (0, 1), BuildingBlock: EZIPEK_clean_linker_0, # of connection points: 2
#     Edge 72, Type (0, 1), BuildingBlock: EZIPEK_clean_linker_0, # of connection points: 2
#     Edge 73, Type (0, 1), BuildingBlock: EZIPEK_clean_linker_0, # of connection points: 2
#     Edge 74, Type (0, 1), BuildingBlock: EZIPEK_clean_linker_0, # of connection points: 2
#     Edge 75, Type (0, 1), BuildingBlock: EZIPEK_clean_linker_0, # of connection points: 2
#     Edge 76, Type (0, 1), BuildingBlock: EZIPEK_clean_linker_0, # of connection points: 2
#     Edge 77, Type (0, 1), BuildingBlock: EZIPEK_clean_linker_0, # of connection points: 2
#     Edge 78, Type (0, 1), BuildingBlock: EZIPEK_clean_linker_0, # of connection points: 2
#     Edge 79, Type (0, 1), BuildingBlock: EZIPEK_clean_linker_0, # of connection points: 2
#     Edge 80, Type (0, 1), BuildingBlock: EZIPEK_clean_linker_0, # of connection points: 2
#     Edge 81, Type (0, 1), BuildingBlock: EZIPEK_clean_linker_0, # of connection points: 2
#     Edge 82, Type (0, 1), BuildingBlock: EZIPEK_clean_linker_0, # of connection points: 2
#     Edge 83, Type (0, 1), BuildingBlock: EZIPEK_clean_linker_0, # of connection points: 2
#     Edge 84, Type (0, 1), BuildingBlock: EZIPEK_clean_linker_0, # of connection points: 2
#     Edge 85, Type (0, 1), BuildingBlock: EZIPEK_clean_linker_0, # of connection points: 2
#     Edge 86, Type (0, 1), BuildingBlock: EZIPEK_clean_linker_0, # of connection points: 2
#     Edge 87, Type (0, 1), BuildingBlock: EZIPEK_clean_linker_0, # of connection points: 2
#     Edge 88, Type (0, 1), BuildingBlock: EZIPEK_clean_linker_0, # of connection points: 2
#     Edge 89, Type (0, 1), BuildingBlock: EZIPEK_clean_linker_0, # of connection points: 2
#     Edge 90, Type (0, 1), BuildingBlock: EZIPEK_clean_linker_0, # of connection points: 2
#     Edge 91, Type (0, 1), BuildingBlock: EZIPEK_clean_linker_0, # of connection points: 2
#     Edge 92, Type (0, 1), BuildingBlock: EZIPEK_clean_linker_0, # of connection points: 2
#     Edge 93, Type (0, 1), BuildingBlock: EZIPEK_clean_linker_0, # of connection points: 2
#     Edge 94, Type (0, 1), BuildingBlock: EZIPEK_clean_linker_0, # of connection points: 2
#     Edge 95, Type (0, 1), BuildingBlock: EZIPEK_clean_linker_0, # of connection points: 2
#     Edge 96, Type (0, 1), BuildingBlock: EZIPEK_clean_linker_0, # of connection points: 2
#     Edge 97, Type (0, 1), BuildingBlock: EZIPEK_clean_linker_0, # of connection points: 2
#     Edge 98, Type (0, 1), BuildingBlock: EZIPEK_clean_linker_0, # of connection points: 2
#     Edge 99, Type (0, 1), BuildingBlock: EZIPEK_clean_linker_0, # of connection points: 2
#     Edge 100, Type (0, 1), BuildingBlock: EZIPEK_clean_linker_0, # of connection points: 2
#     Edge 101, Type (0, 1), BuildingBlock: EZIPEK_clean_linker_0, # of connection points: 2
#     Edge 102, Type (0, 1), BuildingBlock: EZIPEK_clean_linker_0, # of connection points: 2
#     Edge 103, Type (0, 1), BuildingBlock: EZIPEK_clean_linker_0, # of connection points: 2
#     Edge 104, Type (0, 1), BuildingBlock: EZIPEK_clean_linker_0, # of connection points: 2
#     Edge 105, Type (0, 1), BuildingBlock: EZIPEK_clean_linker_0, # of connection points: 2
#     Edge 106, Type (0, 1), BuildingBlock: EZIPEK_clean_linker_0, # of connection points: 2
#     Edge 107, Type (0, 1), BuildingBlock: EZIPEK_clean_linker_0, # of connection points: 2
#     Edge 108, Type (0, 1), BuildingBlock: EZIPEK_clean_linker_0, # of connection points: 2
#     Edge 109, Type (0, 1), BuildingBlock: EZIPEK_clean_linker_0, # of connection points: 2
#     Edge 110, Type (0, 1), BuildingBlock: EZIPEK_clean_linker_0, # of connection points: 2
#     Edge 111, Type (0, 1), BuildingBlock: EZIPEK_clean_linker_0, # of connection points: 2
#     Edge 112, Type (0, 1), BuildingBlock: EZIPEK_clean_linker_0, # of connection points: 2
#     Edge 113, Type (0, 1), BuildingBlock: EZIPEK_clean_linker_0, # of connection points: 2
#     Edge 114, Type (0, 1), BuildingBlock: EZIPEK_clean_linker_0, # of connection points: 2
#     Edge 115, Type (0, 1), BuildingBlock: EZIPEK_clean_linker_0, # of connection points: 2
#     Edge 116, Type (0, 1), BuildingBlock: EZIPEK_clean_linker_0, # of connection points: 2
#     Edge 117, Type (0, 1), BuildingBlock: EZIPEK_clean_linker_0, # of connection points: 2
#     Edge 118, Type (0, 1), BuildingBlock: EZIPEK_clean_linker_0, # of connection points: 2
#     Edge 119, Type (0, 1), BuildingBlock: EZIPEK_clean_linker_0, # of connection points: 2
#     Edge 120, Type (0, 1), BuildingBlock: EZIPEK_clean_linker_0, # of connection points: 2
#     Edge 121, Type (0, 1), BuildingBlock: EZIPEK_clean_linker_0, # of connection points: 2
#     Edge 122, Type (0, 1), BuildingBlock: EZIPEK_clean_linker_0, # of connection points: 2
#     Edge 123, Type (0, 1), BuildingBlock: EZIPEK_clean_linker_0, # of connection points: 2
#     Edge 124, Type (0, 1), BuildingBlock: EZIPEK_clean_linker_0, # of connection points: 2
#     Edge 125, Type (0, 1), BuildingBlock: EZIPEK_clean_linker_0, # of connection points: 2
#     Edge 126, Type (0, 1), BuildingBlock: EZIPEK_clean_linker_0, # of connection points: 2
#     Edge 127, Type (0, 1), BuildingBlock: EZIPEK_clean_linker_0, # of connection points: 2
#     Edge 128, Type (0, 1), BuildingBlock: EZIPEK_clean_linker_0, # of connection points: 2
#     Edge 129, Type (0, 1), BuildingBlock: EZIPEK_clean_linker_0, # of connection points: 2
#     Edge 130, Type (0, 1), BuildingBlock: EZIPEK_clean_linker_0, # of connection points: 2
#     Edge 131, Type (0, 1), BuildingBlock: EZIPEK_clean_linker_0, # of connection points: 2
#     Edge 132, Type (0, 1), BuildingBlock: EZIPEK_clean_linker_0, # of connection points: 2
#     Edge 133, Type (0, 1), BuildingBlock: EZIPEK_clean_linker_0, # of connection points: 2
#     Edge 134, Type (0, 1), BuildingBlock: EZIPEK_clean_linker_0, # of connection points: 2
#     Edge 135, Type (0, 1), BuildingBlock: EZIPEK_clean_linker_0, # of connection points: 2
# Relax obj value: 0.302
# Max RMSD: 0.363
# Mean RMSD: 0.148
data_MOF--net-gar--node1-CEKHIL_clean_sbu_0--node2-NUHQIS_clean_sbu_0--edge1-EZIPEK_clean_linker_0
_symmetry_space_group_name_H-M    P1
_symmetry_Int_Tables_number       1
_symmetry_cell_setting            triclinic
loop_
_symmetry_equiv_pos_as_xyz
'x, y, z'
_cell_length_a     43.445142
_cell_length_b     45.295297
_cell_length_c     41.917153
_cell_angle_alpha  92.877051
_cell_angle_beta   97.418046
_cell_angle_gamma 100.19189
loop_
_atom_site_label
_atom_site_type_symbol
_atom_site_fract_x
_atom_site_fract_y
_atom_site_fract_z
_atom_type_partial_charge
Co0 Co 0.10945 0.32785 0.42326 0.0
O1 O 0.15875 0.33256 0.42585 0.0
O2 O 0.12952 0.31768 0.38256 0.0
C3 C 0.10582 0.38003 0.44992 0.0
O4 O 0.06066 0.32285 0.39984 0.0
Co5 Co 0.06746 0.32156 0.46874 0.0
O6 O 1.02931 0.3248 0.43732 0.0
C7 C 0.09034 0.26448 0.4618 0.0
C8 C 0.15886 0.32439 0.3955 0.0
C9 C 1.03234 0.32378 0.40757 0.0
O10 O 0.1044 0.27985 0.43909 0.0
O11 O 0.07441 0.27902 0.47848 0.0
O12 O 0.11246 0.37432 0.42103 0.0
O13 O 0.10407 0.35434 0.46364 0.0
Co14 Co 0.07218 0.83163 0.66368 0.0
O15 O 1.02296 0.82918 0.66114 0.0
O16 O 0.04961 0.82258 0.70423 0.0
C17 C 0.08277 0.88314 0.63719 0.0
O18 O 0.12088 0.83434 0.68785 0.0
Co19 Co 0.11316 0.8295 0.62028 0.0
O20 O 0.15291 0.83261 0.65128 0.0
C21 C 0.08287 0.76769 0.62602 0.0
C22 C 1.02135 0.82464 0.69145 0.0
C23 C 0.14964 0.8339 0.6809 0.0
O24 O 0.06885 0.78239 0.6472 0.0
O25 O 0.10238 0.784 0.61093 0.0
O26 O 0.07776 0.87881 0.66675 0.0
O27 O 0.08083 0.85615 0.62304 0.0
Co28 Co 0.6108 0.82521 0.92229 0.0
O29 O 0.66023 0.83076 0.92595 0.0
O30 O 0.63172 0.8147 0.88216 0.0
C31 C 0.60659 0.87711 0.94917 0.0
O32 O 0.56198 0.81996 0.89817 0.0
Co33 Co 0.56776 0.81807 0.96678 0.0
O34 O 0.5306 0.82376 0.9353 0.0
C35 C 0.59136 0.76143 0.95979 0.0
C36 C 0.66079 0.82213 0.89584 0.0
C37 C 0.53373 0.82198 0.9056 0.0
O38 O 0.60596 0.77734 0.93784 0.0
O39 O 0.57435 0.77516 0.97592 0.0
O40 O 0.6137 0.87164 0.92041 0.0
O41 O 0.60449 0.85125 0.96262 0.0
Co42 Co 0.5705 0.32909 0.1641 0.0
O43 O 0.52129 0.32678 0.16149 0.0
O44 O 0.54787 0.32021 0.20462 0.0
C45 C 0.58123 0.3806 0.13742 0.0
O46 O 0.61876 0.33189 0.18892 0.0
Co47 Co 0.61195 0.32691 0.12134 0.0
O48 O 0.6515 0.33076 0.15301 0.0
C49 C 0.58108 0.26512 0.12611 0.0
C50 C 0.51967 0.3224 0.19182 0.0
C51 C 0.6477 0.33182 0.1825 0.0
O52 O 0.56734 0.27979 0.14762 0.0
O53 O 0.60039 0.28149 0.11086 0.0
O54 O 0.57622 0.37627 0.16699 0.0
O55 O 0.57941 0.35354 0.12347 0.0
Co56 Co 0.14969 0.90581 0.18259 0.0
O57 O 0.10554 0.88717 0.17491 0.0
O58 O 0.13457 0.89815 0.22302 0.0
C59 C 0.14344 0.94149 0.14704 0.0
O60 O 0.19465 0.92485 0.20271 0.0
Co61 Co 0.19474 0.9094 0.13425 0.0
O62 O 0.22796 0.91051 0.17185 0.0
C63 C 0.1692 0.85123 0.15491 0.0
C64 C 0.10758 0.88692 0.20607 0.0
C65 C 0.22157 0.91805 0.19944 0.0
O66 O 0.16071 0.86473 0.17897 0.0
O67 O 0.18033 0.8649 0.13186 0.0
O68 O 0.13895 0.9453 0.17696 0.0
O69 O 0.1523 0.91655 0.13934 0.0
Co70 Co 0.5267 0.74106 0.40553 0.0
O71 O 0.56999 0.75419 0.40007 0.0
O72 O 0.53352 0.72516 0.36415 0.0
C73 C 0.52216 0.78701 0.42415 0.0
O74 O 0.47942 0.72467 0.40045 0.0
Co75 Co 0.49722 0.74127 0.46621 0.0
O76 O 0.45654 0.74223 0.43928 0.0
C77 C 0.54526 0.7049 0.45831 0.0
C78 C 0.56225 0.73989 0.37176 0.0
C79 C 0.45725 0.7371 0.40944 0.0
O80 O 0.53908 0.70564 0.42759 0.0
O81 O 0.53256 0.71953 0.47814 0.0
O82 O 0.51742 0.77914 0.39336 0.0
O83 O 0.52807 0.76638 0.44319 0.0
Co84 Co 0.65055 0.39523 0.7015 0.0
O85 O 0.60791 0.37542 0.68584 0.0
O86 O 0.63226 0.37551 0.73582 0.0
C87 C 0.64532 0.43802 0.679 0.0
O88 O 0.69301 0.41266 0.72802 0.0
Co89 Co 0.70007 0.4171 0.65799 0.0
O90 O 0.73062 0.41363 0.69642 0.0
C91 C 0.67883 0.35264 0.6626 0.0
C92 C 0.60689 0.36754 0.71509 0.0
C93 C 0.72152 0.41161 0.72399 0.0
O94 O 0.66585 0.35844 0.6874 0.0
O95 O 0.69176 0.37282 0.64578 0.0
O96 O 0.63651 0.43317 0.70704 0.0
O97 O 0.65657 0.41704 0.66507 0.0
Co98 Co 0.07379 0.2528 0.9171 0.0
O99 O 0.11838 0.25296 0.91946 0.0
O100 O 0.08094 0.22042 0.88917 0.0
C101 C 0.07753 0.30253 0.91241 0.0
O102 O 1.02584 0.24613 0.90514 0.0
Co103 Co 0.04339 0.28758 0.96612 0.0
O104 O 1.00964 0.28499 0.92845 0.0
C105 C 0.07161 0.23537 0.98542 0.0
C106 C 0.11093 0.23038 0.89777 0.0
C107 C 1.00598 0.26397 0.90614 0.0
O108 O 0.07175 0.2273 0.95541 0.0
O109 O 0.06375 0.26001 0.99475 0.0
O110 O 0.07804 0.28472 0.88726 0.0
O111 O 0.07688 0.29001 0.93935 0.0
Co112 Co 0.54994 0.15323 0.32188 0.0
O113 O 0.53158 0.18797 0.31014 0.0
O114 O 0.51729 0.14201 0.28596 0.0
C115 C 0.55079 0.1597 0.3759 0.0
O116 O 0.55779 0.11094 0.32671 0.0
Co117 Co 0.61318 0.15245 0.36431 0.0
O118 O 0.59856 0.10808 0.36401 0.0
C119 C 0.61313 0.17223 0.29838 0.0
C120 C 0.51223 0.16925 0.28881 0.0
C121 C 0.57415 0.09563 0.34466 0.0
O122 O 0.58302 0.16269 0.29269 0.0
O123 O 0.62904 0.17204 0.32624 0.0
O124 O 0.52489 0.14806 0.35696 0.0
O125 O 0.57455 0.16906 0.36109 0.0
Co126 Co 0.36378 0.19342 0.53503 0.0
O127 O 0.4131 0.19737 0.53744 0.0
O128 O 0.38509 0.15657 0.54524 0.0
C129 C 0.35603 0.21924 0.48247 0.0
O130 O 0.31434 0.17013 0.53336 0.0
Co131 Co 0.31838 0.23404 0.53329 0.0
O132 O 0.28008 0.20139 0.52956 0.0
C133 C 0.35119 0.23164 0.59915 0.0
C134 C 0.41375 0.16923 0.54254 0.0
C135 C 0.28484 0.17465 0.53174 0.0
O136 O 0.36495 0.2107 0.5858 0.0
O137 O 0.33248 0.24458 0.58103 0.0
O138 O 0.36085 0.19175 0.48493 0.0
O139 O 0.35569 0.23054 0.51159 0.0
Co140 Co 0.24614 0.10715 0.88789 0.0
O141 O 0.24801 0.06492 0.88782 0.0
O142 O 0.28432 0.10037 0.87275 0.0
C143 C 0.2294 0.10876 0.93625 0.0
O144 O 0.25432 0.15233 0.88373 0.0
Co145 Co 0.18775 0.13636 0.89358 0.0
O146 O 0.21453 0.17613 0.89128 0.0
C147 C 0.19286 0.09874 0.83492 0.0
C148 C 0.27451 0.07216 0.87636 0.0
C149 C 0.24243 0.17629 0.88514 0.0
O150 O 0.22249 0.09984 0.84343 0.0
O151 O 0.17503 0.10936 0.85284 0.0
O152 O 0.25955 0.11162 0.93463 0.0
O153 O 0.21099 0.1059 0.9093 0.0
Co154 Co 0.35926 0.92596 0.04489 0.0
O155 O 0.31405 0.92366 0.0473 0.0
O156 O 0.35126 0.96375 0.06147 0.0
C157 C 0.35468 0.90273 0.9928 0.0
O158 O 0.40602 0.94259 0.04566 0.0
Co159 Co 0.39663 0.87763 0.04222 0.0
O160 O 0.43591 0.90796 0.04148 0.0
C161 C 0.37499 0.8895 0.1039 0.0
C162 C 0.32178 0.9517 0.05889 0.0
C163 C 0.43295 0.93532 0.04409 0.0
O164 O 0.36544 0.91245 0.09141 0.0
O165 O 0.38694 0.87108 0.0874 0.0
O166 O 0.3526 0.9308 0.99811 0.0
O167 O 0.35795 0.88852 0.019 0.0
Co168 Co 0.30816 0.44917 0.03733 0.0
O169 O 0.25884 0.44453 0.03025 0.0
O170 O 0.28728 0.4857 0.04804 0.0
C171 C 0.31434 0.42395 0.9848 0.0
O172 O 0.35794 0.47199 0.04381 0.0
Co173 Co 0.35254 0.40634 0.04189 0.0
O174 O 0.38942 0.43878 0.03759 0.0
C175 C 0.32245 0.41056 0.101 0.0
C176 C 0.25818 0.47255 0.03879 0.0
C177 C 0.38637 0.46615 0.04102 0.0
O178 O 0.3099 0.4325 0.08673 0.0
O179 O 0.33962 0.3964 0.08554 0.0
O180 O 0.30809 0.45096 0.98824 0.0
O181 O 0.31506 0.41219 1.01249 0.0
Co182 Co 0.8281 0.23792 0.0346 0.0
O183 O 0.87342 0.25025 0.03437 0.0
O184 O 0.84963 0.20504 0.04418 0.0
C185 C 0.81675 0.25914 0.98622 0.0
O186 O 0.78388 0.21204 0.03455 0.0
Co187 Co 0.7792 0.27419 0.03697 0.0
O188 O 0.74503 0.23802 0.028 0.0
C189 C 0.82103 0.27243 0.09785 0.0
C190 C 0.87534 0.22251 0.03951 0.0
C191 C 0.75425 0.21307 0.03019 0.0
O192 O 0.83286 0.25229 0.08289 0.0
O193 O 0.79991 0.28525 0.08309 0.0
O194 O 0.8228 0.23216 0.98756 0.0
O195 O 0.81594 0.27268 1.0142 0.0
Co196 Co 0.14999 0.52491 0.24218 0.0
O197 O 0.16521 0.49049 0.25739 0.0
O198 O 0.18567 0.51864 0.22129 0.0
C199 C 0.14702 0.54679 0.29011 0.0
O200 O 0.14133 0.563 0.22251 0.0
Co201 Co 0.08326 0.53487 0.25425 0.0
O202 O 0.09879 0.57554 0.2407 0.0
C203 C 0.08882 0.49354 0.19969 0.0
C204 C 0.18739 0.49633 0.23939 0.0
C205 C 0.1222 0.58139 0.22518 0.0
O206 O 0.11918 0.49997 0.20656 0.0
O207 O 0.07041 0.5036 0.21725 0.0
O208 O 0.17411 0.54928 0.27975 0.0
O209 O 0.12392 0.5279 0.27365 0.0
Co210 Co 0.81074 0.94794 0.53901 0.0
O211 O 0.76116 0.94302 0.53254 0.0
O212 O 0.7895 0.98484 0.54798 0.0
C213 C 0.81663 0.92072 0.48692 0.0
O214 O 0.8605 0.97145 0.54412 0.0
Co215 Co 0.85558 0.90646 0.54598 0.0
O216 O 0.89257 0.93841 0.54087 0.0
C217 C 0.82546 0.91121 0.60439 0.0
C218 C 0.76039 0.97131 0.53966 0.0
C219 C 0.8892 0.96574 0.5422 0.0
O220 O 0.81288 0.93278 0.58928 0.0
O221 O 0.84284 0.89685 0.58958 0.0
O222 O 0.81008 0.94768 0.48961 0.0
O223 O 0.81787 0.91015 0.51531 0.0
Co224 Co 0.91322 0.05262 0.22903 0.0
O225 O 0.91217 0.09464 0.22719 0.0
O226 O 0.87958 0.05857 0.19614 0.0
C227 C 0.9164 0.05397 0.28278 0.0
O228 O 0.90577 1.00663 0.22555 0.0
Co229 Co 0.96995 0.03004 0.2675 0.0
O230 O 0.93892 0.99193 0.26482 0.0
C231 C 0.97666 0.05782 0.20577 0.0
C232 C 0.88728 0.087 0.20575 0.0
C233 C 0.91445 0.98652 0.24359 0.0
O234 O 0.9464 0.0557 0.1987 0.0
O235 O 0.99011 0.05185 0.23308 0.0
O236 O 0.88888 0.05141 0.26556 0.0
O237 O 0.94037 0.05707 0.2674 0.0
Co238 Co 0.32239 0.73196 0.52595 0.0
O239 O 0.36851 0.73636 0.53023 0.0
O240 O 0.33539 0.6947 0.53587 0.0
C241 C 0.31755 0.75691 0.4783 0.0
O242 O 0.27544 0.71273 0.52234 0.0
Co243 Co 0.28103 0.77682 0.52741 0.0
O244 O 0.24266 0.74477 0.5149 0.0
C245 C 0.31699 0.76693 0.58947 0.0
C246 C 0.36419 0.70787 0.53557 0.0
C247 C 0.2472 0.71795 0.51714 0.0
O248 O 0.32539 0.7446 0.57447 0.0
O249 O 0.30016 0.78385 0.57457 0.0
O250 O 0.3202 0.72876 0.47852 0.0
O251 O 0.31769 0.76966 0.50687 0.0
Co252 Co 0.41412 0.56128 0.72397 0.0
O253 O 0.41008 0.6025 0.71957 0.0
O254 O 0.37946 0.56368 0.69073 0.0
C255 C 0.41847 0.56503 0.778 0.0
O256 O 0.40922 0.51528 0.72304 0.0
Co257 Co 0.47271 0.54251 0.76301 0.0
O258 O 0.44321 0.50378 0.76359 0.0
C259 C 0.47724 0.5688 0.7 0.0
C260 C 0.38545 0.5925 0.69833 0.0
C261 C 0.41867 0.49656 0.74261 0.0
O262 O 0.44683 0.56514 0.69307 0.0
O263 O 0.49139 0.56339 0.7272 0.0
O264 O 0.39059 0.56045 0.76111 0.0
O265 O 0.44201 0.56853 0.76199 0.0
Co266 Co 0.69531 1.01525 0.73984 0.0
O267 O 0.71912 0.98355 0.74534 0.0
O268 O 0.73225 1.02379 0.7185 0.0
C269 C 0.68659 1.02271 0.79046 0.0
O270 O 0.67859 0.0535 0.73101 0.0
Co271 Co 0.62506 1.00813 0.75189 0.0
O272 O 0.63056 0.05203 0.74597 0.0
C273 C 0.63976 0.98222 0.69134 0.0
C274 C 0.73984 0.99978 0.73049 0.0
C275 C 0.65501 0.06603 0.73573 0.0
O276 O 0.66911 0.99437 0.69934 0.0
O277 O 0.61928 0.98232 0.71069 0.0
O278 O 0.71422 0.03303 0.78269 0.0
O279 O 0.66758 1.00427 0.76917 0.0
Co280 Co 0.86066 0.68865 0.03392 0.0
O281 O 0.90972 0.69223 0.03619 0.0
O282 O 0.88108 0.65109 0.04263 0.0
C283 C 0.85358 0.71518 0.98196 0.0
O284 O 0.81117 0.6661 0.03195 0.0
Co285 Co 0.81699 0.73005 0.03383 0.0
O286 O 0.77791 0.69824 0.02856 0.0
C287 C 0.84896 0.72564 0.09936 0.0
C288 C 0.90978 0.66385 0.04032 0.0
C289 C 0.78196 0.67125 0.03021 0.0
O290 O 0.86226 0.70477 0.08521 0.0
O291 O 0.83077 0.73947 0.08175 0.0
O292 O 0.85739 0.68737 0.98395 0.0
O293 O 0.85379 0.72656 1.01121 0.0
Co294 Co 0.0597 0.66382 0.82806 0.0
O295 O 0.04851 0.70264 0.81876 0.0
O296 O 1.02217 0.65837 0.79718 0.0
C297 C 0.06984 0.67208 0.8828 0.0
O298 O 0.05918 0.61918 0.83116 0.0
Co299 Co 0.12294 0.65104 0.86186 0.0
O300 O 0.0983 0.6107 0.86786 0.0
C301 C 0.11874 0.6727 0.79608 0.0
C302 C 1.02399 0.68721 0.80008 0.0
C303 C 0.07206 0.60185 0.84978 0.0
O304 O 0.08826 0.66686 0.79341 0.0
O305 O 0.13631 0.66944 0.82217 0.0
O306 O 0.04099 0.66448 0.86803 0.0
O307 O 0.09098 0.67591 0.86375 0.0
Co308 Co 0.863 0.42334 0.55477 0.0
O309 O 0.81775 0.42138 0.55706 0.0
O310 O 0.85533 0.46109 0.57173 0.0
C311 C 0.85727 0.40044 0.50219 0.0
O312 O 0.90965 0.44017 0.55591 0.0
Co313 Co 0.90127 0.3764 0.55008 0.0
O314 O 0.9395 0.407 0.54587 0.0
C315 C 0.88189 0.38784 0.61343 0.0
C316 C 0.82574 0.44945 0.56847 0.0
C317 C 0.93647 0.43404 0.55154 0.0
O318 O 0.86992 0.40965 0.60106 0.0
O319 O 0.89464 0.37045 0.59641 0.0
O320 O 0.8558 0.42857 0.50803 0.0
O321 O 0.86137 0.38604 0.52817 0.0
Co322 Co 0.72329 0.6069 0.39083 0.0
O323 O 0.71044 0.56555 0.37226 0.0
O324 O 0.756 0.59521 0.369 0.0
C325 C 0.70504 0.59418 0.43753 0.0
O326 O 0.74823 0.64929 0.40539 0.0
Co327 Co 0.68496 0.64965 0.41818 0.0
O328 O 0.71602 0.68211 0.40394 0.0
C329 C 0.67405 0.62885 0.34944 0.0
C330 C 0.73802 0.56912 0.3626 0.0
C331 C 0.74219 0.67532 0.39899 0.0
O332 O 0.70134 0.62126 0.35146 0.0
O333 O 0.66206 0.63747 0.37377 0.0
O334 O 0.73338 0.59104 0.43272 0.0
O335 O 0.69013 0.60755 0.41584 0.0
Tb336 Tb 0.07877 0.08569 0.04752 0.0
Eu337 Eu 0.14103 0.09909 0.10583 0.0
C338 C 0.1483 0.09131 0.03289 0.0
C339 C 0.10555 0.03253 0.07678 0.0
C340 C 1.00688 0.10637 1.00876 0.0
C341 C 0.99111 0.15469 0.99961 0.0
C342 C 1.0111 0.13429 0.99498 0.0
C343 C 0.98142 0.09901 0.02634 0.0
C344 C 0.96133 0.11942 0.03084 0.0
C345 C 0.96633 0.14765 0.01796 0.0
C346 C 1.03075 0.08664 1.00735 0.0
O347 O 0.06091 0.07724 0.09302 0.0
O348 O 0.09964 0.10556 0.13132 0.0
O349 O 0.13688 0.14346 0.08396 0.0
O350 O 0.08391 0.12964 0.0718 0.0
C351 C 0.07059 0.09058 0.12212 0.0
O352 O 0.16652 0.08625 0.15006 0.0
O353 O 0.19122 0.11782 0.12114 0.0
O354 O 0.15499 0.0807 0.06063 0.0
O355 O 0.12087 0.09903 0.02444 0.0
O356 O 0.09329 0.04193 0.04959 0.0
O357 O 0.11708 0.05082 0.10237 0.0
C358 C 0.10943 0.14979 0.07225 0.0
O359 O 0.05908 0.10029 1.00408 0.0
O360 O 1.03166 0.06665 0.02868 0.0
C361 C 0.21371 0.07554 0.13381 0.0
C362 C 0.25013 0.03517 0.11062 0.0
C363 C 0.26409 0.0585 0.1344 0.0
C364 C 0.24604 0.07887 0.14564 0.0
C365 C 0.20005 0.05166 0.11078 0.0
C366 C 0.21812 0.0323 0.09883 0.0
C367 C 0.19397 0.09772 0.14203 0.0
H368 H 0.99507 0.1761 0.98899 0.0
H369 H 1.03038 0.14075 0.98124 0.0
H370 H 0.97743 0.07777 0.03731 0.0
H371 H 0.94216 0.11341 0.04483 0.0
H372 H 0.28893 0.06123 0.14375 0.0
H373 H 0.25731 0.09725 0.16313 0.0
H374 H 0.17531 0.04822 0.10138 0.0
H375 H 0.2072 1.01512 0.08005 0.0
Tb376 Tb 0.37779 0.86155 0.31323 0.0
Eu377 Eu 0.32035 0.80846 0.27718 0.0
C378 C 0.31346 0.87965 0.28435 0.0
C379 C 0.33066 0.81734 0.35516 0.0
C380 C 0.44974 0.9257 0.33576 0.0
C381 C 0.46827 0.97926 0.35035 0.0
C382 C 0.44546 0.9531 0.35021 0.0
C383 C 0.47739 0.92511 0.32163 0.0
C384 C 0.50012 0.95118 0.32183 0.0
C385 C 0.49578 0.97846 0.33621 0.0
C386 C 0.42803 0.89696 0.3385 0.0
O387 O 0.39506 0.82044 0.30092 0.0
O388 O 0.35389 0.78451 0.30702 0.0
O389 O 0.34991 0.8257 0.23857 0.0
O390 O 0.37282 0.87245 0.26221 0.0
C391 C 0.38427 0.79468 0.31201 0.0
O392 O 0.30416 0.76583 0.248 0.0
O393 O 0.27096 0.79501 0.25755 0.0
O394 O 0.3024 0.85167 0.27347 0.0
O395 O 0.3411 0.88834 0.30228 0.0
O396 O 0.35698 0.83704 0.35336 0.0
O397 O 0.31024 0.80793 0.32899 0.0
C398 C 0.36346 0.85374 0.23621 0.0
O399 O 0.40043 0.89717 0.34773 0.0
O400 O 0.42661 0.87576 0.3159 0.0
C401 C 0.24917 0.74396 0.24353 0.0
C402 C 0.19953 0.69429 0.23355 0.0
C403 C 0.2298 0.69091 0.24744 0.0
C404 C 0.25466 0.71562 0.25217 0.0
C405 C 0.21854 0.74751 0.23138 0.0
C406 C 0.194 0.72281 0.22597 0.0
C407 C 0.27483 0.76975 0.24376 0.0
H408 H 0.4647 1.00009 0.36191 0.0
H409 H 0.42487 0.95422 0.36197 0.0
H410 H 0.48189 0.90425 0.31105 0.0
H411 H 0.52135 0.95 0.31119 0.0
H412 H 0.23438 0.66894 0.25339 0.0
H413 H 0.27812 0.71239 0.26168 0.0
H414 H 0.21384 0.76928 0.22478 0.0
H415 H 0.17085 0.72591 0.21543 0.0
Tb416 Tb 0.56503 0.04359 0.51747 0.0
Eu417 Eu 0.60727 0.09355 0.56289 0.0
C418 C 0.58592 0.02986 0.58747 0.0
C419 C 0.53122 0.10058 0.54531 0.0
C420 C 0.52674 0.9732 0.47106 0.0
C421 C 0.55387 0.93103 0.47137 0.0
C422 C 0.55393 0.9611 0.4796 0.0
C423 C 0.49949 0.95515 0.45403 0.0
C424 C 0.49931 0.92486 0.44603 0.0
C425 C 0.52649 0.91282 0.45491 0.0
C426 C 0.52696 1.0046 0.48019 0.0
O427 O 0.5851 0.07558 0.48548 0.0
O428 O 0.59287 0.11742 0.5194 0.0
O429 O 0.64429 0.06455 0.54652 0.0
O430 O 0.6108 1.02362 0.52107 0.0
C431 C 0.58688 0.10455 0.49021 0.0
O432 O 0.65111 0.12616 0.57367 0.0
O433 O 0.62114 0.11574 0.611 0.0
O434 O 0.58737 0.05847 0.59464 0.0
O435 O 0.58043 1.01923 0.55752 0.0
O436 O 0.52915 0.07187 0.53369 0.0
O437 O 0.56061 0.11454 0.55689 0.0
C438 C 0.64064 0.03632 0.53349 0.0
O439 O 0.52379 1.01055 0.51024 0.0
O440 O 0.54985 1.02342 0.47102 0.0
C441 C 0.6509 0.16441 0.61303 0.0
C442 C 0.66106 0.22602 0.62956 0.0
C443 C 0.68659 0.21083 0.63228 0.0
C444 C 0.68148 0.18003 0.62417 0.0
C445 C 0.62531 0.17959 0.61036 0.0
C446 C 0.63037 0.21033 0.61883 0.0
C447 C 0.64628 0.13256 0.60313 0.0
H448 H 0.57491 0.92179 0.47835 0.0
H449 H 0.5751 0.97482 0.4928 0.0
H450 H 0.47844 0.96441 0.44721 0.0
H451 H 0.47809 0.91079 0.43323 0.0
H452 H 0.71039 0.22288 0.64048 0.0
H453 H 0.70138 0.16848 0.62613 0.0
H454 H 0.60158 0.16774 0.60149 0.0
H455 H 0.61054 0.22198 0.61664 0.0
Tb456 Tb 0.30372 0.32668 0.77945 0.0
Eu457 Eu 0.37188 0.31975 0.81158 0.0
C458 C 0.36115 0.37758 0.77046 0.0
C459 C 0.34515 0.29208 0.73393 0.0
C460 C 0.22083 0.30045 0.77005 0.0
C461 C 0.18016 0.29007 0.80466 0.0
C462 C 0.19797 0.31004 0.78675 0.0
C463 C 0.2237 0.26988 0.76945 0.0
C464 C 0.20598 0.24999 0.78744 0.0
C465 C 0.18497 0.26029 0.80602 0.0
C466 C 0.24592 0.323 0.75999 0.0
O467 O 0.29784 0.28324 0.79988 0.0
O468 O 0.33957 0.29067 0.83961 0.0
O469 O 0.35699 0.34746 0.85368 0.0
O470 O 0.3075 0.35103 0.82965 0.0
C471 C 0.31143 0.27649 0.82752 0.0
O472 O 0.40345 0.28882 0.82561 0.0
O473 O 0.42052 0.33696 0.83327 0.0
O474 O 0.38073 0.36325 0.78728 0.0
O475 O 0.33065 0.36717 0.76418 0.0
O476 O 0.32136 0.30685 0.73587 0.0
O477 O 0.36537 0.29227 0.7608 0.0
C478 C 0.32996 0.35701 0.85554 0.0
O479 O 0.26138 0.34248 0.78292 0.0
O480 O 0.2651 0.31258 0.74292 0.0
C481 C 0.45503 0.30771 0.81569 0.0
C482 C 0.5043 0.31518 0.77837 0.0
C483 C 0.50999 0.32569 0.81102 0.0
C484 C 0.48539 0.32198 0.82964 0.0
C485 C 0.45 0.2952 0.78363 0.0
C486 C 0.47459 0.29889 0.76505 0.0
C487 C 0.42809 0.31034 0.83262 0.0
H488 H 0.16403 0.2983 0.81906 0.0
H489 H 0.19556 0.33346 0.7879 0.0
H490 H 0.24126 0.26171 0.75702 0.0
H491 H 0.20994 0.22709 0.78835 0.0
H492 H 0.53288 0.33851 0.82142 0.0
H493 H 0.48957 0.33193 0.85422 0.0
H494 H 0.42669 0.2842 0.77233 0.0
H495 H 0.46996 0.29087 0.7398 0.0
Tb496 Tb 0.08738 0.05713 0.51121 0.0
Eu497 Eu 0.0884 0.08735 0.57544 0.0
C498 C 0.15526 0.09608 0.54134 0.0
C499 C 0.09156 1.01189 0.57315 0.0
C500 C 0.04933 0.03606 0.43183 0.0
C501 C 1.01352 1.02157 0.38212 0.0
C502 C 0.04097 1.01874 0.40237 0.0
C503 C 1.0297 0.05549 0.44118 0.0
C504 C 1.00184 0.05736 0.42179 0.0
C505 C 0.9941 0.04121 0.39169 0.0
C506 C 0.07763 0.03401 0.45407 0.0
O507 O 1.03491 0.0494 0.51571 0.0
O508 O 1.03817 0.05719 0.56931 0.0
O509 O 0.07992 0.12851 0.54403 0.0
O510 O 0.08857 0.10686 0.4973 0.0
C511 C 1.02083 0.04543 0.54193 0.0
O512 O 0.0654 0.10915 0.61101 0.0
O513 O 0.11523 0.10644 0.62099 0.0
O514 O 0.13889 0.10667 0.5625 0.0
O515 O 0.14037 0.07173 0.52276 0.0
O516 O 0.09173 1.01555 0.54135 0.0
O517 O 0.09268 0.03761 0.59105 0.0
C518 C 0.08491 0.13222 0.51357 0.0
O519 O 0.09616 0.0596 0.46311 0.0
O520 O 0.0722 1.01871 0.47874 0.0
C521 C 0.08703 0.10197 0.66398 0.0
C522 C 0.10963 0.08215 0.72249 0.0
C523 C 0.10687 0.11243 0.72047 0.0
C524 C 0.09577 0.1224 0.69109 0.0
C525 C 0.08468 0.07099 0.66741 0.0
C526 C 0.09637 0.06104 0.69667 0.0
C527 C 0.09061 0.11321 0.63254 0.0
H528 H 1.0077 1.00892 0.35884 0.0
H529 H 0.05578 1.00354 0.39489 0.0
H530 H 1.03619 0.06982 0.46327 0.0
H531 H 0.9872 0.07267 0.42941 0.0
H532 H 0.11698 0.12889 0.74044 0.0
H533 H 0.0977 0.14635 0.68873 0.0
H534 H 0.07773 0.05501 0.64657 0.0
H535 H 0.09838 0.03761 0.69801 0.0
Tb536 Tb 0.32956 0.7943 0.80231 0.0
Eu537 Eu 0.35441 0.86106 0.78414 0.0
C538 C 0.33708 0.84859 0.85733 0.0
C539 C 0.27723 0.83094 0.7649 0.0
C540 C 0.30696 0.71303 0.78651 0.0
C541 C 0.32396 0.66694 0.77055 0.0
C542 C 0.31935 0.68744 0.79467 0.0
C543 C 0.29627 0.71623 0.75391 0.0
C544 C 0.30065 0.6955 0.72969 0.0
C545 C 0.31616 0.67167 0.7379 0.0
C546 C 0.31347 0.73914 0.81039 0.0
O547 O 0.33577 0.78703 0.7512 0.0
O548 O 0.35361 0.83438 0.73641 0.0
O549 O 0.40144 0.84675 0.80516 0.0
O550 O 0.38106 0.80266 0.82516 0.0
C551 C 0.34345 0.80542 0.72892 0.0
O552 O 0.34638 0.90095 0.75963 0.0
O553 O 0.39137 0.90124 0.78805 0.0
O554 O 0.34668 0.86783 0.83657 0.0
O555 O 0.32722 0.81964 0.84836 0.0
O556 O 0.2842 0.80563 0.77657 0.0
O557 O 0.29995 0.85522 0.76867 0.0
C558 C 0.40594 0.82405 0.82295 0.0
O559 O 0.34253 0.75332 0.8134 0.0
O560 O 0.29377 0.75783 0.80901 0.0
C561 C 0.36862 0.94458 0.79202 0.0
C562 C 0.34521 0.98954 0.82447 0.0
C563 C 0.34832 0.99107 0.79165 0.0
C564 C 0.35993 0.96862 0.77547 0.0
C565 C 0.36755 0.94427 0.8254 0.0
C566 C 0.35584 0.96663 0.84153 0.0
C567 C 0.37265 0.91743 0.77366 0.0
H568 H 0.33573 0.64852 0.7773 0.0
H569 H 0.32808 0.68471 0.81956 0.0
H570 H 0.28687 0.73593 0.74701 0.0
H571 H 0.2943 0.69939 0.7046 0.0
H572 H 0.34 1.00862 0.77822 0.0
H573 H 0.36022 0.96899 0.74968 0.0
H574 H 0.37391 0.92582 0.83864 0.0
H575 H 0.35339 0.96512 0.86682 0.0
Tb576 Tb 0.61088 0.06259 0.07377 0.0
Eu577 Eu 0.579 0.08001 1.0092 0.0
C578 C 0.6033 1.01041 1.012 0.0
C579 C 0.65325 0.10848 0.03477 0.0
C580 C 0.64961 0.07148 0.15687 0.0
C581 C 0.67236 0.1232 0.1757 0.0
C582 C 0.66748 0.09952 0.15195 0.0
C583 C 0.64066 0.06611 0.18726 0.0
C584 C 0.6457 0.08972 0.21106 0.0
C585 C 0.65951 0.11874 0.2044 0.0
C586 C 0.63345 0.05126 0.12912 0.0
O587 O 0.59787 0.10926 0.08876 0.0
O588 O 0.5739 0.12277 0.04187 0.0
O589 O 0.53745 0.05979 0.03309 0.0
O590 O 0.56617 0.03066 0.06209 0.0
C591 C 0.58443 0.13043 0.07315 0.0
O592 O 0.5734 0.1117 0.97215 0.0
O593 O 0.54768 0.06636 0.96364 0.0
O594 O 0.59059 0.03092 0.99506 0.0
O595 O 0.61443 1.01969 0.04303 0.0
O596 O 0.65208 0.09101 0.0588 0.0
O597 O 0.62886 0.1066 1.01241 0.0
C598 C 0.53885 0.03565 0.0487 0.0
O599 O 0.60397 0.05367 0.12107 0.0
O600 O 0.64836 0.05054 0.10405 0.0
C601 C 0.57807 0.08493 0.92514 0.0
C602 C 0.61518 0.06944 0.87971 0.0
C603 C 0.58644 0.0786 0.86943 0.0
C604 C 0.56776 0.08636 0.89228 0.0
C605 C 0.60709 0.07629 0.93493 0.0
C606 C 0.62554 0.06872 0.91247 0.0
C607 C 0.55925 0.09047 0.95045 0.0
H608 H 0.68313 0.14552 0.17036 0.0
H609 H 0.67486 0.10396 0.12871 0.0
H610 H 0.62682 0.04464 0.19141 0.0
H611 H 0.63562 0.08609 0.2332 0.0
H612 H 0.57828 0.079 0.84395 0.0
H613 H 0.5453 0.0928 0.88441 0.0
H614 H 0.61517 0.07452 0.9601 0.0
H615 H 0.64755 0.06149 0.9206 0.0
Tb616 Tb 0.35385 0.34709 0.31065 0.0
Eu617 Eu 0.32162 0.29045 0.27367 0.0
C618 C 0.35084 0.2882 0.35345 0.0
C619 C 0.39988 0.31855 0.26674 0.0
C620 C 0.34252 0.41991 0.32058 0.0
C621 C 0.32245 0.46663 0.31548 0.0
C622 C 0.34555 0.4508 0.32911 0.0
C623 C 0.31665 0.40554 0.29832 0.0
C624 C 0.29483 0.42121 0.28391 0.0
C625 C 0.29696 0.45167 0.29272 0.0
C626 C 0.365 0.401 0.3333 0.0
O627 O 0.34451 0.3612 0.25868 0.0
O628 O 0.30717 0.32308 0.23476 0.0
O629 O 0.27665 0.29939 0.29605 0.0
O630 O 0.30404 0.3403 0.32662 0.0
C631 C 0.32424 0.35008 0.23236 0.0
O632 O 0.31285 0.26219 0.22815 0.0
O633 O 0.30254 0.24212 0.27173 0.0
O634 O 0.33212 0.27508 0.32689 0.0
O635 O 0.36623 0.31617 0.35035 0.0
O636 O 0.39878 0.33778 0.29179 0.0
O637 O 0.37311 0.2988 0.25748 0.0
C638 C 0.2768 0.32045 0.31952 0.0
O639 O 0.35274 0.37892 0.34897 0.0
O640 O 0.3806 0.39108 0.31199 0.0
C641 C 0.33761 0.22225 0.24264 0.0
C642 C 0.39445 0.20095 0.24139 0.0
C643 C 0.37005 0.19355 0.21512 0.0
C644 C 0.34155 0.20416 0.2158 0.0
C645 C 0.3626 0.23002 0.26814 0.0
C646 C 0.39043 0.21927 0.26772 0.0
C647 C 0.31057 0.23771 0.24325 0.0
H648 H 0.32425 0.49022 0.32278 0.0
H649 H 0.3652 0.46239 0.34638 0.0
H650 H 0.31274 0.38176 0.29216 0.0
H651 H 0.27533 0.40911 0.2667 0.0
H652 H 0.37298 0.17949 0.19448 0.0
H653 H 0.32305 0.1988 0.19534 0.0
H654 H 0.36111 0.24542 0.28815 0.0
H655 H 0.40908 0.22548 0.28799 0.0
Tb656 Tb 0.58297 0.55411 1.0094 0.0
Eu657 Eu 0.58758 0.58476 0.07424 0.0
C658 C 0.65281 0.59288 0.03918 0.0
C659 C 0.59004 0.50987 0.07319 0.0
C660 C 0.54449 0.53358 0.92982 0.0
C661 C 0.51098 0.52319 0.87817 0.0
C662 C 0.53683 0.51792 0.89935 0.0
C663 C 0.52568 0.55386 0.93911 0.0
C664 C 0.49954 0.55842 0.91857 0.0
C665 C 0.49252 0.54378 0.88768 0.0
C666 C 0.57155 0.52942 0.95281 0.0
O667 O 0.53103 0.5478 1.01495 0.0
O668 O 0.53703 0.55497 0.06884 0.0
O669 O 0.58561 0.62705 0.0428 0.0
O670 O 0.58071 0.60272 0.99386 0.0
C671 C 0.51831 0.54404 0.04189 0.0
O672 O 0.56394 0.61107 0.10515 0.0
O673 O 0.6116 0.60312 0.12104 0.0
O674 O 0.63906 0.60064 0.06387 0.0
O675 O 0.63591 0.57179 0.0173 0.0
O676 O 0.58815 0.51319 0.041 0.0
O677 O 0.59276 0.53589 0.09105 0.0
C678 C 0.58414 0.62934 1.01109 0.0
O679 O 0.5925 0.55363 0.96138 0.0
O680 O 0.56409 0.51563 0.97789 0.0
C681 C 0.58083 0.61146 0.16108 0.0
C682 C 0.59498 0.61444 0.22752 0.0
C683 C 0.58481 0.63875 0.21277 0.0
C684 C 0.5779 0.6373 0.17933 0.0
C685 C 0.58557 0.58544 0.17628 0.0
C686 C 0.5929 0.58701 0.20965 0.0
C687 C 0.58773 0.61483 0.12837 0.0
H688 H 0.50573 0.51177 0.85424 0.0
H689 H 0.55103 0.50216 0.89182 0.0
H690 H 0.53154 0.5668 0.96205 0.0
H691 H 0.48567 0.57449 0.92614 0.0
H692 H 0.58611 0.65991 0.22659 0.0
H693 H 0.57402 0.65743 0.16772 0.0
H694 H 0.5875 0.56521 0.16231 0.0
H695 H 0.6004 0.56802 0.22104 0.0
Tb696 Tb 0.82782 0.29625 0.30692 0.0
Eu697 Eu 0.85014 0.36429 0.29353 0.0
C698 C 0.83363 0.34874 0.36504 0.0
C699 C 0.77411 0.33058 0.26933 0.0
C700 C 0.80833 0.21336 0.29277 0.0
C701 C 0.80522 0.19262 0.23753 0.0
C702 C 0.80044 0.21522 0.25943 0.0
C703 C 0.81813 0.18737 0.30391 0.0
C704 C 0.82315 0.16496 0.28206 0.0
C705 C 0.81831 0.16825 0.2488 0.0
C706 C 0.81477 0.2406 0.31502 0.0
O707 O 0.82839 0.29434 0.2544 0.0
O708 O 0.86299 0.33763 0.25089 0.0
O709 O 0.89658 0.35343 0.32105 0.0
O710 O 0.88122 0.30257 0.31817 0.0
C711 C 0.84597 0.31204 0.23722 0.0
O712 O 0.84766 0.3996 0.26012 0.0
O713 O 0.8748 0.41048 0.30722 0.0
O714 O 0.83766 0.36925 0.34418 0.0
O715 O 0.82893 0.31974 0.3554 0.0
O716 O 0.78179 0.30534 0.28042 0.0
O717 O 0.79597 0.35549 0.27476 0.0
C718 C 0.90368 0.32676 0.32726 0.0
O719 O 0.84311 0.25588 0.3157 0.0
O720 O 0.79399 0.25819 0.31404 0.0
C721 C 0.84087 0.44272 0.28933 0.0
C722 C 0.80319 0.48327 0.30759 0.0
C723 C 0.83031 0.49354 0.29334 0.0
C724 C 0.84912 0.47328 0.2842 0.0
C725 C 0.81333 0.43253 0.30288 0.0
C726 C 0.79462 0.45262 0.3119 0.0
C727 C 0.86089 0.42101 0.28205 0.0
H728 H 0.80117 0.19537 0.21194 0.0
H729 H 0.7932 0.23524 0.25028 0.0
H730 H 0.82474 0.18568 0.32949 0.0
H731 H 0.83333 0.14633 0.29117 0.0
H732 H 0.83734 0.51726 0.2902 0.0
H733 H 0.87032 0.4815 0.27385 0.0
H734 H 0.80668 0.40907 0.30726 0.0
H735 H 0.77399 0.44443 0.32319 0.0
Tb736 Tb 0.1135 0.56938 0.57077 0.0
Eu737 Eu 0.0741 0.58113 0.50784 0.0
C738 C 0.10059 0.51398 0.51004 0.0
C739 C 0.14465 0.61506 0.52355 0.0
C740 C 0.16478 0.58502 0.64722 0.0
C741 C 0.16221 0.60194 0.70229 0.0
C742 C 0.16034 0.57856 0.67883 0.0
C743 C 0.17571 0.61492 0.64057 0.0
C744 C 0.17813 0.63833 0.66431 0.0
C745 C 0.16895 0.63188 0.6944 0.0
C746 C 0.14915 0.56263 0.62095 0.0
O747 O 0.10017 0.61395 0.589 0.0
O748 O 0.07181 0.62413 0.54286 0.0
O749 O 1.03753 0.55032 0.52896 0.0
O750 O 0.06734 0.54201 0.57546 0.0
C751 C 0.08448 0.63334 0.57344 0.0
O752 O 0.04717 0.61186 0.48302 0.0
O753 O 0.05183 0.57047 0.45814 0.0
O754 O 0.08129 0.53065 0.49495 0.0
O755 O 0.11766 0.52762 0.5378 0.0
O756 O 0.14101 0.60955 0.55335 0.0
O757 O 0.12436 0.59999 0.49999 0.0
C758 C 0.04104 0.53588 0.55497 0.0
O759 O 0.11842 0.55807 0.61861 0.0
O760 O 0.15883 0.56537 0.59279 0.0
C761 C 0.0563 0.61242 0.42901 0.0
C762 C 0.09367 0.61225 0.3802 0.0
C763 C 0.06085 0.60272 0.3729 0.0
C764 C 0.0421 0.60267 0.39747 0.0
C765 C 0.08781 0.62778 0.43456 0.0
C766 C 0.10668 0.62741 0.41014 0.0
C767 C 0.04364 0.59658 0.45529 0.0
H768 H 0.1554 0.59671 0.72564 0.0
H769 H 0.15183 0.5557 0.68439 0.0
H770 H 0.17928 0.62049 0.61633 0.0
H771 H 0.18393 0.66141 0.65824 0.0
H772 H 0.05059 0.59114 0.34969 0.0
H773 H 1.01781 0.59086 0.39281 0.0
H774 H 0.09905 0.63583 0.45878 0.0
H775 H 0.13197 0.63501 0.41597 0.0
Tb776 Tb 0.8023 0.81699 0.28312 0.0
Eu777 Eu 0.87284 0.81375 0.31297 0.0
C778 C 0.85754 0.86833 0.26954 0.0
C779 C 0.84463 0.7838 0.23616 0.0
C780 C 0.716 0.80421 0.27412 0.0
C781 C 0.66371 0.77314 0.26601 0.0
C782 C 0.69039 0.78705 0.2535 0.0
C783 C 0.71474 0.80735 0.30739 0.0
C784 C 0.68795 0.79377 0.3198 0.0
C785 C 0.66238 0.77662 0.29919 0.0
C786 C 0.74524 0.81541 0.26125 0.0
O787 O 0.79548 0.77804 0.31175 0.0
O788 O 0.8445 0.78018 0.34074 0.0
O789 O 0.85721 0.84105 0.35509 0.0
O790 O 0.80645 0.84231 0.33297 0.0
C791 C 0.81423 0.7691 0.33485 0.0
O792 O 0.91107 0.78816 0.31969 0.0
O793 O 0.91908 0.83462 0.33843 0.0
O794 O 0.87819 0.85676 0.2881 0.0
O795 O 0.82778 0.8555 0.26293 0.0
O796 O 0.81859 0.79469 0.23994 0.0
O797 O 0.86726 0.78749 0.26157 0.0
C798 C 0.82986 0.84973 0.35796 0.0
O799 O 0.76363 0.83921 0.27649 0.0
O800 O 0.76095 0.79456 0.25446 0.0
C801 C 0.95808 0.81942 0.31205 0.0
C802 C 1.00699 0.83854 0.27615 0.0
C803 C 1.01378 0.82813 0.30682 0.0
C804 C 0.98931 0.81859 0.32479 0.0
C805 C 0.95142 0.82933 0.28117 0.0
C806 C 0.97568 0.83876 0.26327 0.0
C807 C 0.93209 0.81189 0.33094 0.0
H808 H 0.64409 0.75982 0.24992 0.0
H809 H 0.69134 0.7839 0.22788 0.0
H810 H 0.73461 0.81981 0.32384 0.0
H811 H 0.68718 0.79647 0.34551 0.0
H812 H 1.03797 0.828 0.317 0.0
H813 H 0.99478 0.81118 0.34869 0.0
H814 H 0.92744 0.83045 0.27131 0.0
H815 H 0.97015 0.84686 0.2397 0.0
Tb816 Tb 0.88639 0.35987 0.82593 0.0
Eu817 Eu 0.83913 0.3003 0.78631 0.0
C818 C 0.81722 0.36552 0.79786 0.0
C819 C 0.84016 0.31343 0.86343 0.0
C820 C 0.94895 0.43096 0.85115 0.0
C821 C 0.9581 0.48155 0.83306 0.0
C822 C 0.93785 0.45389 0.8343 0.0
C823 C 0.98031 0.43585 0.86622 0.0
C824 C 1.0005 0.46317 0.86477 0.0
C825 C 0.98953 0.48629 0.84842 0.0
C826 C 0.92927 0.40145 0.85377 0.0
O827 O 0.90544 0.3211 0.84118 0.0
O828 O 0.88723 0.28736 0.79788 0.0
O829 O 0.85911 0.32366 0.74561 0.0
O830 O 0.88843 0.3668 0.77361 0.0
C831 C 0.90663 0.2964 0.82452 0.0
O832 O 0.82374 0.25171 0.78279 0.0
O833 O 0.8036 0.27817 0.74663 0.0
O834 O 0.81154 0.33796 0.78403 0.0
O835 O 0.8429 0.37705 0.81775 0.0
O836 O 0.86634 0.33382 0.86439 0.0
O837 O 0.82305 0.30297 0.83565 0.0
C838 C 0.87609 0.35067 0.74611 0.0
O839 O 0.89933 0.39981 0.8564 0.0
O840 O 0.93435 0.37917 0.83541 0.0
C841 C 0.77265 0.23066 0.75438 0.0
C842 C 0.7199 0.18361 0.74163 0.0
C843 C 0.74137 0.18508 0.76996 0.0
C844 C 0.76758 0.20837 0.77629 0.0
C845 C 0.75012 0.23004 0.72696 0.0
C846 C 0.72387 0.20676 0.72077 0.0
C847 C 0.80327 0.25149 0.75706 0.0
H848 H 0.94929 0.49927 0.82037 0.0
H849 H 0.91372 0.45048 0.82235 0.0
H850 H 0.98908 0.41833 0.87926 0.0
H851 H 1.02462 0.46648 0.87669 0.0
H852 H 0.73856 0.16745 0.78648 0.0
H853 H 0.78455 0.20808 0.79755 0.0
H854 H 0.7536 0.24666 0.70942 0.0
H855 H 0.70777 0.20562 0.69868 0.0
Tb856 Tb 0.85607 0.84673 0.81383 0.0
Eu857 Eu 0.82529 0.78903 0.77568 0.0
C858 C 0.85109 0.78636 0.85562 0.0
C859 C 0.90147 0.8191 0.76623 0.0
C860 C 0.87955 0.92721 0.82313 0.0
C861 C 0.87176 0.94408 0.76899 0.0
C862 C 0.88558 0.92626 0.79091 0.0
C863 C 0.86471 0.94999 0.83432 0.0
C864 C 0.85053 0.96741 0.81241 0.0
C865 C 0.85171 0.96259 0.7793 0.0
C866 C 0.87578 0.89921 0.83966 0.0
O867 O 0.8439 0.86336 0.7635 0.0
O868 O 0.8145 0.82167 0.7354 0.0
O869 O 0.78018 0.79967 0.79751 0.0
O870 O 0.80776 0.83784 0.83247 0.0
C871 C 0.82761 0.85054 0.73539 0.0
O872 O 0.80984 0.75988 0.73084 0.0
O873 O 0.81257 0.7402 0.77637 0.0
O874 O 0.83606 0.77225 0.82785 0.0
O875 O 0.86361 0.8155 0.85455 0.0
O876 O 0.89889 0.84017 0.78881 0.0
O877 O 0.87653 0.79686 0.7596 0.0
C878 C 0.78019 0.81908 0.82275 0.0
O879 O 0.84644 0.88564 0.83602 0.0
O880 O 0.89456 0.88035 0.83501 0.0
C881 C 0.84077 0.72154 0.73852 0.0
C882 C 0.90342 0.71127 0.74679 0.0
C883 C 0.89427 0.7311 0.72434 0.0
C884 C 0.86309 0.73601 0.72 0.0
C885 C 0.84929 0.6991 0.75806 0.0
C886 C 0.88041 0.69421 0.76237 0.0
C887 C 0.81402 0.736 0.74573 0.0
H888 H 0.87342 0.94064 0.74356 0.0
H889 H 0.89717 0.909 0.7817 0.0
H890 H 0.85984 0.95117 0.85902 0.0
H891 H 0.83565 0.98211 0.82086 0.0
H892 H 0.91168 0.74428 0.71191 0.0
H893 H 0.85745 0.75334 0.70458 0.0
H894 H 0.83278 0.6876 0.77267 0.0
H895 H 0.88704 0.67861 0.77961 0.0
Tb896 Tb 0.56847 0.5675 0.56003 0.0
Eu897 Eu 0.64195 0.60069 0.59596 0.0
C898 C 0.62731 0.56033 0.5274 0.0
C899 C 0.6119 0.53307 0.60346 0.0
C900 C 0.486 0.57535 0.54163 0.0
C901 C 0.44582 0.60066 0.51451 0.0
C902 C 0.46525 0.57889 0.51404 0.0
C903 C 0.48603 0.59342 0.57 0.0
C904 C 0.46725 0.61563 0.57028 0.0
C905 C 0.44713 0.61981 0.54242 0.0
C906 C 0.50989 0.55552 0.5399 0.0
O907 O 0.56924 0.60368 0.59571 0.0
O908 O 0.60869 0.59902 0.63398 0.0
O909 O 0.61991 0.63781 0.57267 0.0
O910 O 0.58795 0.60443 0.53362 0.0
C911 C 0.57905 0.60132 0.62593 0.0
O912 O 0.68029 0.60661 0.63667 0.0
O913 O 0.69078 0.62023 0.5902 0.0
O914 O 0.64223 0.58475 0.54487 0.0
O915 O 0.59911 0.54603 0.5322 0.0
O916 O 0.58275 0.53705 0.59536 0.0
O917 O 0.63585 0.55072 0.5946 0.0
C918 C 0.60106 0.63197 0.54476 0.0
O919 O 0.53129 0.56353 0.5213 0.0
O920 O 0.52258 0.54746 0.56727 0.0
C921 C 0.72356 0.58947 0.61654 0.0
C922 C 0.75924 0.54417 0.60357 0.0
C923 C 0.77238 0.57499 0.60324 0.0
C924 C 0.75448 0.59738 0.60908 0.0
C925 C 0.71159 0.55882 0.6189 0.0
C926 C 0.72889 0.53655 0.61227 0.0
C927 C 0.70219 0.61195 0.61798 0.0
H928 H 0.43042 0.60319 0.49275 0.0
H929 H 0.46474 0.56544 0.49181 0.0
H930 H 0.50166 0.59133 0.59164 0.0
H931 H 0.46882 0.62992 0.59217 0.0
H932 H 0.79594 0.58161 0.59705 0.0
H933 H 0.76446 0.62073 0.6069 0.0
H934 H 0.6882 0.55176 0.62463 0.0
H935 H 0.71814 0.51316 0.61308 0.0
Tb936 Tb 0.06315 0.54413 1.00979 0.0
Eu937 Eu 0.10179 0.58937 0.06574 0.0
C938 C 0.06871 0.52304 0.08045 0.0
C939 C 1.0252 0.59476 0.041 0.0
C940 C 0.04462 0.47963 0.94914 0.0
C941 C 0.08084 0.45056 0.92857 0.0
C942 C 0.07386 0.47816 0.93858 0.0
C943 C 1.02224 0.45309 0.94861 0.0
C944 C 1.02936 0.42544 0.93879 0.0
C945 C 0.05879 0.42406 0.92904 0.0
C946 C 1.0379 0.5084 0.96197 0.0
O947 O 0.06599 0.58777 0.98981 0.0
O948 O 0.10971 0.61411 0.02128 0.0
O949 O 0.13781 0.5568 0.05948 0.0
O950 O 0.1132 0.53215 1.012 0.0
C951 C 0.08867 0.61125 0.99551 0.0
O952 O 0.1457 0.61785 0.088 0.0
O953 O 0.10426 0.61354 0.11254 0.0
O954 O 0.08019 0.55074 0.09166 0.0
O955 O 0.06227 0.51511 0.04956 0.0
O956 O 1.02363 0.56792 0.0247 0.0
O957 O 0.0537 0.60755 0.05656 0.0
C958 C 0.13858 0.537 0.03511 0.0
O959 O 1.02706 0.50822 0.98965 0.0
O960 O 0.05944 0.53216 0.96048 0.0
C961 C 0.1385 0.66047 0.1191 0.0
C962 C 0.14837 0.72267 0.13361 0.0
C963 C 0.15779 0.71118 0.10553 0.0
C964 C 0.15307 0.68023 0.09838 0.0
C965 C 0.12861 0.67212 0.14688 0.0
C966 C 0.13374 0.70305 0.15425 0.0
C967 C 0.13298 0.62781 0.11195 0.0
H968 H 0.10373 0.44975 0.92131 0.0
H969 H 0.09169 0.49817 0.93867 0.0
H970 H 0.99953 0.45367 0.95643 0.0
H971 H 1.01219 0.40504 0.93938 0.0
H972 H 0.16891 0.72621 0.08931 0.0
H973 H 0.16062 0.67188 0.07657 0.0
H974 H 0.11679 0.65728 0.1628 0.0
H975 H 0.12573 0.71172 0.17564 0.0
C976 C 0.06642 0.2079 0.03629 0.0
C977 C 0.08373 0.21666 1.0107 0.0
C978 C 0.12286 0.1863 0.02974 0.0
C979 C 0.10582 0.17764 0.05562 0.0
N980 N 0.0676 0.18824 0.08918 0.0
N981 N 0.13463 0.22393 0.99211 0.0
C982 C 0.07964 0.19123 0.06074 0.0
C983 C 0.11386 0.20885 1.01017 0.0
N984 N 1.03687 0.21426 0.03662 0.0
N985 N 0.14645 0.17209 0.02227 0.0
H986 H 0.12972 0.24197 0.97914 0.0
H987 H 0.15804 0.22108 0.99346 0.0
H988 H 0.15457 0.15589 0.03586 0.0
H989 H 0.15647 0.17502 1.00108 0.0
H990 H 1.02211 0.20601 0.0531 0.0
H991 H 1.02575 0.22535 0.01861 0.0
H992 H 0.05008 0.19946 0.09559 0.0
H993 H 0.07775 0.17711 0.10785 0.0
C994 C 0.27758 0.93042 0.22781 0.0
C995 C 0.24546 0.9173 0.22841 0.0
C996 C 0.26167 0.89518 0.2788 0.0
C997 C 0.29336 0.9015 0.27315 0.0
N998 N 0.33258 0.92733 0.24354 0.0
N999 N 0.20728 0.8845 0.25443 0.0
C1000 C 0.30178 0.92039 0.24846 0.0
C1001 C 0.23739 0.89965 0.25442 0.0
N1002 N 0.28478 0.95262 0.20769 0.0
N1003 N 0.2549 0.88341 0.30698 0.0
H1004 H 0.18878 0.88532 0.23643 0.0
H1005 H 0.2012 0.86868 0.27083 0.0
H1006 H 0.2727 0.87969 0.32476 0.0
H1007 H 0.23244 0.88049 0.31394 0.0
H1008 H 0.30754 0.96465 0.20762 0.0
H1009 H 0.2673 0.96114 0.19356 0.0
H1010 H 0.33969 0.93718 0.22313 0.0
H1011 H 0.35097 0.92237 0.25965 0.0
C1012 C 0.51762 0.82937 0.46502 0.0
C1013 C 0.52734 0.81938 0.43567 0.0
C1014 C 0.53558 0.87084 0.41909 0.0
C1015 C 0.52627 0.88071 0.4482 0.0
N1016 N 0.51539 0.8715 0.50214 0.0
N1017 N 0.55887 0.83332 0.39331 0.0
C1018 C 0.51961 0.86064 0.47226 0.0
C1019 C 0.5402 0.84091 0.41511 0.0
N1020 N 0.50488 0.80939 0.48524 0.0
N1021 N 0.54008 0.89001 0.39524 0.0
H1022 H 0.56614 0.8126 0.39233 0.0
H1023 H 0.57075 0.84886 0.3795 0.0
H1024 H 0.5377 0.91251 0.39761 0.0
H1025 H 0.5436 0.88284 0.37219 0.0
H1026 H 0.49329 0.81542 0.50412 0.0
H1027 H 0.50341 0.78639 0.48211 0.0
H1028 H 0.51477 0.85863 0.52203 0.0
H1029 H 0.51488 0.89408 0.50785 0.0
C1030 C 0.57798 0.32274 0.73786 0.0
C1031 C 0.57781 0.35123 0.72523 0.0
C1032 C 0.52696 0.35364 0.7433 0.0
C1033 C 0.52781 0.32577 0.75712 0.0
N1034 N 0.54967 0.28081 0.76282 0.0
N1035 N 0.55013 0.39137 0.71007 0.0
C1036 C 0.55195 0.3093 0.7528 0.0
C1037 C 0.55148 0.36576 0.72578 0.0
N1038 N 0.60335 0.30893 0.73594 0.0
N1039 N 0.50354 0.36924 0.74847 0.0
H1040 H 0.56847 0.40238 0.69888 0.0
H1041 H 0.53 0.40092 0.7062 0.0
H1042 H 0.4844 0.36067 0.76007 0.0
H1043 H 0.50363 0.39137 0.74286 0.0
H1044 H 0.60693 0.2899 0.74772 0.0
H1045 H 0.62161 0.31708 0.72297 0.0
H1046 H 0.565 0.2664 0.75824 0.0
H1047 H 0.53089 0.27065 0.77409 0.0
C1048 C 0.06604 0.93862 0.62712 0.0
C1049 C 0.08485 0.91609 0.62 0.0
C1050 C 0.10765 0.95566 0.58151 0.0
C1051 C 0.08923 0.97837 0.58912 0.0
N1052 N 0.05172 0.98888 0.62353 0.0
N1053 N 0.12156 0.90501 0.58504 0.0
C1054 C 0.06898 0.96878 0.61327 0.0
C1055 C 0.10487 0.92549 0.59559 0.0
N1056 N 0.04255 0.93021 0.64538 0.0
N1057 N 0.13012 0.96375 0.56203 0.0
H1058 H 0.12236 0.88479 0.59563 0.0
H1059 H 0.13306 0.90697 0.56478 0.0
H1060 H 0.13333 0.98452 0.55211 0.0
H1061 H 0.14734 0.95136 0.55775 0.0
H1062 H 1.02505 0.94253 0.64882 0.0
H1063 H 1.03833 0.90915 0.6545 0.0
H1064 H 0.04119 0.98727 0.64446 0.0
H1065 H 0.04909 1.00819 0.61183 0.0
C1066 C 0.4883 0.84904 0.88105 0.0
C1067 C 0.50327 0.82318 0.88049 0.0
C1068 C 0.456 0.7986 0.83976 0.0
C1069 C 0.43984 0.82356 0.84257 0.0
N1070 N 0.44048 0.87078 0.87188 0.0
N1071 N 0.4977 0.77156 0.86093 0.0
C1072 C 0.45625 0.8483 0.86471 0.0
C1073 C 0.48601 0.7976 0.86007 0.0
N1074 N 0.50527 0.87516 0.89679 0.0
N1075 N 0.4432 0.77591 0.81665 0.0
H1076 H 0.51932 0.77025 0.87435 0.0
H1077 H 0.48518 0.75096 0.85022 0.0
H1078 H 0.422 0.77578 0.80173 0.0
H1079 H 0.45471 0.75863 0.8104 0.0
H1080 H 0.49795 0.8958 0.89547 0.0
H1081 H 0.52826 0.8768 0.90856 0.0
H1082 H 0.44891 0.88749 0.89048 0.0
H1083 H 0.41743 0.8711 0.86145 0.0
C1084 C 0.59767 0.21023 0.13254 0.0
C1085 C 0.57699 0.22858 0.11697 0.0
C1086 C 0.55755 0.18114 0.07732 0.0
C1087 C 0.58097 0.16381 0.09025 0.0
N1088 N 0.62545 0.16754 0.13231 0.0
N1089 N 0.54037 0.22961 0.0693 0.0
C1090 C 0.60124 0.18011 0.11859 0.0
C1091 C 0.55811 0.21322 0.08791 0.0
N1092 N 0.61415 0.2215 0.16184 0.0
N1093 N 0.53261 0.16639 0.05587 0.0
H1094 H 0.5386 0.25158 0.07646 0.0
H1095 H 0.52938 0.22219 0.04598 0.0
H1096 H 0.52905 0.14337 0.04977 0.0
H1097 H 0.5132 0.17595 0.04772 0.0
H1098 H 0.62677 0.20914 0.17722 0.0
H1099 H 0.6126 0.24257 0.17214 0.0
H1100 H 0.64422 0.17928 0.14866 0.0
H1101 H 0.62759 0.1456 0.12643 0.0
C1102 C 0.22164 0.3383 0.3882 0.0
C1103 C 0.18957 0.32319 0.37633 0.0
C1104 C 0.2139 0.31035 0.32543 0.0
C1105 C 0.24644 0.32178 0.33903 0.0
N1106 N 0.27848 0.33979 0.39009 0.0
N1107 N 0.16052 0.28713 0.33361 0.0
C1108 C 0.24924 0.33384 0.37224 0.0
C1109 C 0.18748 0.30718 0.34494 0.0
N1110 N 0.22645 0.35831 0.41455 0.0
N1111 N 0.20723 0.30342 0.29295 0.0
H1112 H 0.14195 0.28183 0.34692 0.0
H1113 H 0.15842 0.27274 0.31292 0.0
H1114 H 0.22439 0.30678 0.27763 0.0
H1115 H 0.18422 0.29806 0.28085 0.0
H1116 H 0.24814 0.37234 0.42237 0.0
H1117 H 0.2082 0.36354 0.42624 0.0
H1118 H 0.28207 0.34549 0.41487 0.0
H1119 H 0.29857 0.33519 0.38128 0.0
C1120 C 0.99983 0.09342 0.16654 0.0
C1121 C 0.99817 0.0658 0.18142 0.0
C1122 C 0.04811 0.05914 0.16335 0.0
C1123 C 0.0481 0.08493 0.1457 0.0
N1124 N 1.02102 0.1238 0.12561 0.0
N1125 N 1.01625 1.01857 0.18628 0.0
C1126 C 1.023 0.1012 0.14573 0.0
C1127 C 1.02103 0.04752 0.17749 0.0
N1128 N 0.98054 0.11292 0.17345 0.0
N1129 N 0.07409 0.04582 0.16684 0.0
H1130 H 0.99575 1.0087 0.19509 0.0
H1131 H 1.03081 1.0034 0.1815 0.0
H1132 H 0.09457 0.05401 0.15714 0.0
H1133 H 0.07642 0.02851 0.18193 0.0
H1134 H 0.98303 0.13467 0.16589 0.0
H1135 H 0.96373 0.10833 0.189 0.0
H1136 H 1.0014 0.13415 0.12198 0.0
H1137 H 1.03811 0.13073 0.11088 0.0
C1138 C 0.33726 0.80347 0.44708 0.0
C1139 C 0.31895 0.77395 0.44745 0.0
C1140 C 0.31075 0.77178 0.38757 0.0
C1141 C 0.32544 0.80276 0.38715 0.0
N1142 N 0.34489 0.8496 0.41953 0.0
N1143 N 0.28054 0.73449 0.41656 0.0
C1144 C 0.33637 0.81902 0.41782 0.0
C1145 C 0.30332 0.75961 0.41725 0.0
N1146 N 0.35706 0.81641 0.47401 0.0
N1147 N 0.30564 0.7528 0.36028 0.0
H1148 H 0.27321 0.72566 0.43741 0.0
H1149 H 0.26636 0.72478 0.39535 0.0
H1150 H 0.31299 0.75887 0.33856 0.0
H1151 H 0.29784 0.72968 0.36041 0.0
H1152 H 0.37311 0.83646 0.47397 0.0
H1153 H 0.36025 0.80564 0.49521 0.0
H1154 H 0.3504 0.86273 0.44136 0.0
H1155 H 0.34256 0.86207 0.39942 0.0
C1156 C 0.64596 0.99336 0.63594 0.0
C1157 C 0.62744 0.97684 0.65627 0.0
C1158 C 0.58012 0.98631 0.62277 0.0
C1159 C 0.59944 1.01122 0.61147 0.0
N1160 N 0.65214 0.04006 0.61111 0.0
N1161 N 0.57695 0.94786 0.66171 0.0
C1162 C 0.63287 1.01501 0.61864 0.0
C1163 C 0.59433 0.96961 0.64669 0.0
N1164 N 0.67641 0.98994 0.63537 0.0
N1165 N 0.54862 0.97932 0.61134 0.0
H1166 H 0.58796 0.93481 0.67785 0.0
H1167 H 0.55238 0.94295 0.65849 0.0
H1168 H 0.53767 0.99199 0.59477 0.0
H1169 H 0.53363 0.96037 0.61709 0.0
H1170 H 0.69059 1.00083 0.61963 0.0
H1171 H 0.68576 0.97369 0.64837 0.0
H1172 H 0.67661 0.04396 0.61748 0.0
H1173 H 0.64349 0.05866 0.60284 0.0
C1174 C 0.29691 0.37983 0.93754 0.0
C1175 C 0.31802 0.407 0.95119 0.0
C1176 C 0.34688 0.40151 0.90242 0.0
C1177 C 0.32497 0.375 0.88808 0.0
N1178 N 0.2753 0.34282 0.89175 0.0
N1179 N 0.36177 0.44482 0.94275 0.0
C1180 C 0.29897 0.3655 0.90571 0.0
C1181 C 0.34248 0.41798 0.93228 0.0
N1182 N 0.27453 0.36711 0.95532 0.0
N1183 N 0.3724 0.41138 0.8873 0.0
H1184 H 0.36071 0.45625 0.96466 0.0
H1185 H 0.37751 0.45673 0.9292 0.0
H1186 H 0.37495 0.4025 0.86458 0.0
H1187 H 0.39172 0.42751 0.89759 0.0
H1188 H 0.26114 0.34558 0.94989 0.0
H1189 H 0.2707 0.37735 0.97691 0.0
H1190 H 0.25384 0.33694 0.90044 0.0
H1191 H 0.27605 0.33109 0.86995 0.0
C1192 C 0.94279 0.07963 0.33342 0.0
C1193 C 0.92185 0.0542 0.31803 0.0
C1194 C 0.94056 1.02327 0.35962 0.0
C1195 C 0.96698 0.04677 0.36921 0.0
N1196 N 0.9941 0.09764 0.36412 0.0
N1197 N 0.89573 1.00316 0.3187 0.0
C1198 C 0.968 0.07542 0.35652 0.0
C1199 C 0.91864 1.02651 0.33236 0.0
N1200 N 0.9395 0.10744 0.324 0.0
N1201 N 0.9367 0.99815 0.37648 0.0
H1202 H 0.87842 1.00633 0.3002 0.0
H1203 H 0.89414 0.98112 0.3252 0.0
H1204 H 0.95237 0.99554 0.39676 0.0
H1205 H 0.91687 0.98108 0.37202 0.0
H1206 H 0.95268 0.12738 0.33576 0.0
H1207 H 0.92117 0.1102 0.3063 0.0
H1208 H 0.99705 0.11775 0.35291 0.0
H1209 H 1.01421 0.09513 0.37941 0.0
C1210 C 0.35594 0.78939 0.63976 0.0
C1211 C 0.32565 0.77313 0.6258 0.0
C1212 C 0.30723 0.77794 0.67896 0.0
C1213 C 0.33792 0.79313 0.69357 0.0
N1214 N 0.39293 0.80799 0.68842 0.0
N1215 N 0.27484 0.74618 0.63405 0.0
C1216 C 0.36268 0.79733 0.67403 0.0
C1217 C 0.30215 0.76562 0.6461 0.0
N1218 N 0.37808 0.79811 0.62007 0.0
N1219 N 0.28216 0.77692 0.69569 0.0
H1220 H 0.27023 0.73695 0.61021 0.0
H1221 H 0.25822 0.73694 0.64834 0.0
H1222 H 0.28428 0.78602 0.71926 0.0
H1223 H 0.25877 0.76962 0.68529 0.0
H1224 H 0.39923 0.81296 0.62773 0.0
H1225 H 0.37439 0.79185 0.59538 0.0
H1226 H 0.41258 0.80882 0.67645 0.0
H1227 H 0.39868 0.81355 0.71319 0.0
C1228 C 0.67757 0.06754 0.82465 0.0
C1229 C 0.67399 0.03577 0.81791 0.0
C1230 C 0.6302 0.02705 0.84944 0.0
C1231 C 0.63417 0.05842 0.85678 0.0
N1232 N 0.66578 0.108 0.85846 0.0
N1233 N 0.65449 0.98589 0.83275 0.0
C1234 C 0.65928 0.07851 0.84671 0.0
C1235 C 0.65264 1.01573 0.83316 0.0
N1236 N 0.69678 0.08742 0.80902 0.0
N1237 N 0.60473 1.0081 0.85763 0.0
H1238 H 0.67173 0.97714 0.82212 0.0
H1239 H 0.64144 0.97064 0.84594 0.0
H1240 H 0.58788 1.01553 0.87004 0.0
H1241 H 0.59894 0.98534 0.84983 0.0
H1242 H 0.69728 0.11051 0.81066 0.0
H1243 H 0.71099 0.08149 0.79265 0.0
H1244 H 0.68621 0.12289 0.85542 0.0
H1245 H 0.65184 0.11717 0.87334 0.0
C1246 C 0.29266 0.38336 0.14768 0.0
C1247 C 0.32044 0.40033 0.13727 0.0
C1248 C 0.35041 0.38324 0.18771 0.0
C1249 C 0.32248 0.36783 0.19948 0.0
N1250 N 0.26569 0.35972 0.19068 0.0
N1251 N 0.37541 0.42037 0.15376 0.0
C1252 C 0.29335 0.36979 0.17923 0.0
C1253 C 0.34896 0.40127 0.1594 0.0
N1254 N 0.26522 0.37913 0.12678 0.0
N1255 N 0.37919 0.37923 0.20228 0.0
H1256 H 0.37545 0.43379 0.13423 0.0
H1257 H 0.39612 0.42538 0.17014 0.0
H1258 H 0.38198 0.36602 0.22165 0.0
H1259 H 0.40017 0.38619 0.19297 0.0
H1260 H 0.24487 0.36428 0.13011 0.0
H1261 H 0.26363 0.38923 0.10494 0.0
H1262 H 0.2438 0.36301 0.17965 0.0
H1263 H 0.26499 0.35066 0.21301 0.0
C1264 C 0.28396 0.96363 0.09674 0.0
C1265 C 0.29907 0.97024 0.0692 0.0
C1266 C 0.28428 1.02036 0.07044 0.0
C1267 C 0.26833 1.01337 0.09736 0.0
N1268 N 0.24741 0.97632 0.13199 0.0
N1269 N 0.30788 1.00196 0.02567 0.0
C1270 C 0.26644 0.98435 0.10918 0.0
C1271 C 0.29751 0.99782 0.05485 0.0
N1272 N 0.28779 0.93841 0.11222 0.0
N1273 N 0.28707 0.0487 0.05998 0.0
H1274 H 0.31689 0.98556 1.01332 0.0
H1275 H 0.30482 1.02019 1.01222 0.0
H1276 H 0.27688 0.06545 0.07014 0.0
H1277 H 0.30128 0.05635 0.04281 0.0
H1278 H 0.28075 0.93424 0.13466 0.0
H1279 H 0.29994 0.92249 0.10365 0.0
H1280 H 0.24127 0.9542 0.13774 0.0
H1281 H 0.23569 0.99121 0.14323 0.0
C1282 C 0.74467 0.63069 0.05866 0.0
C1283 C 0.75111 0.64647 0.03065 0.0
C1284 C 0.69356 0.62683 1.0081 0.0
C1285 C 0.68741 0.60984 0.03539 0.0
N1286 N 0.71049 0.59289 0.08472 0.0
N1287 N 0.73122 0.65402 0.97614 0.0
C1288 C 0.71406 0.61118 0.06004 0.0
C1289 C 0.72527 0.64278 1.0048 0.0
N1290 N 0.76751 0.63533 0.08492 0.0
N1291 N 0.66854 0.62941 0.98575 0.0
H1292 H 0.75353 0.66528 0.97267 0.0
H1293 H 0.71516 0.64965 0.95502 0.0
H1294 H 0.64554 0.61849 0.98687 0.0
H1295 H 0.67 0.64437 0.96772 0.0
H1296 H 0.76376 0.62823 0.10757 0.0
H1297 H 0.78992 0.64806 0.08448 0.0
H1298 H 0.72907 0.58981 0.10176 0.0
H1299 H 0.68919 0.57865 0.08648 0.0
C1300 C 0.74497 0.53646 0.31488 0.0
C1301 C 0.75071 0.54404 0.3486 0.0
C1302 C 0.79189 0.51338 0.35479 0.0
C1303 C 0.78535 0.50471 0.32127 0.0
N1304 N 0.75276 0.50375 0.27001 0.0
N1305 N 0.77429 0.53509 0.40162 0.0
C1306 C 0.76095 0.51498 0.30144 0.0
C1307 C 0.77255 0.53103 0.36885 0.0
N1308 N 0.72503 0.55051 0.2957 0.0
N1309 N 0.81725 0.50552 0.37302 0.0
H1310 H 0.76014 0.54761 0.4127 0.0
H1311 H 0.7874 0.52378 0.41778 0.0
H1312 H 0.83188 0.49232 0.36372 0.0
H1313 H 0.82543 0.51403 0.39671 0.0
H1314 H 0.72248 0.54865 0.27061 0.0
H1315 H 0.71211 0.56544 0.30503 0.0
H1316 H 0.73309 0.50787 0.25515 0.0
H1317 H 0.76451 0.48855 0.25931 0.0
C1318 C 0.95929 0.48741 0.54068 0.0
C1319 C 0.96397 0.45977 0.55351 0.0
C1320 C 1.02031 0.48185 0.56864 0.0
C1321 C 1.01462 0.51057 0.55934 0.0
N1322 N 0.97547 0.54147 0.54643 0.0
N1323 N 0.99807 0.43469 0.58864 0.0
C1324 C 0.98305 0.51357 0.54859 0.0
C1325 C 0.9942 0.45813 0.5702 0.0
N1326 N 0.93295 0.48858 0.51946 0.0
N1327 N 0.05029 0.47618 0.57421 0.0
H1328 H 0.97948 0.41771 0.59206 0.0
H1329 H 1.01908 0.43411 0.60355 0.0
H1330 H 0.07033 0.4919 0.57232 0.0
H1331 H 0.05498 0.45466 0.57752 0.0
H1332 H 0.92991 0.50779 0.50763 0.0
H1333 H 0.91624 0.46955 0.5105 0.0
H1334 H 0.95226 0.54475 0.54105 0.0
H1335 H 0.99183 0.56117 0.55393 0.0
C1336 C 0.45337 0.1571 0.27568 0.0
C1337 C 0.48232 0.1764 0.27253 0.0
C1338 C 0.4529 0.20913 0.24095 0.0
C1339 C 0.42431 0.1892 0.2435 0.0
N1340 N 0.39802 0.1404 0.25508 0.0
N1341 N 0.5102 0.21759 0.24713 0.0
C1342 C 0.42493 0.16171 0.25775 0.0
C1343 C 0.48229 0.20148 0.25354 0.0
N1344 N 0.45245 0.13596 0.29793 0.0
N1345 N 0.4517 0.2359 0.22762 0.0
H1346 H 0.53203 0.2127 0.25631 0.0
H1347 H 0.51168 0.23428 0.23091 0.0
H1348 H 0.43061 0.24121 0.21662 0.0
H1349 H 0.47119 0.25318 0.22866 0.0
H1350 H 0.4315 0.12358 0.30351 0.0
H1351 H 0.4721 0.13308 0.31367 0.0
H1352 H 0.39779 0.11869 0.26231 0.0
H1353 H 0.37657 0.14338 0.24259 0.0
C1354 C 0.4424 0.12305 0.52571 0.0
C1355 C 0.44406 0.1518 0.54321 0.0
C1356 C 0.50036 0.14468 0.56557 0.0
C1357 C 0.50023 0.11756 0.54524 0.0
N1358 N 0.46737 0.08483 0.50155 0.0
N1359 N 0.47995 0.19095 0.57686 0.0
C1360 C 0.47006 0.10798 0.52444 0.0
C1361 C 0.47477 0.16277 0.56181 0.0
N1362 N 0.41375 0.10933 0.50949 0.0
N1363 N 0.52396 0.15244 0.59097 0.0
H1364 H 0.4623 0.20382 0.57684 0.0
H1365 H 0.50228 0.20239 0.58707 0.0
H1366 H 0.54064 0.13911 0.5973 0.0
H1367 H 0.5244 0.16962 0.60858 0.0
H1368 H 0.40868 0.08673 0.50105 0.0
H1369 H 0.39433 0.11994 0.50606 0.0
H1370 H 0.44908 0.08003 0.48231 0.0
H1371 H 0.48431 0.07165 0.49978 0.0
C1372 C 0.77976 0.69147 0.3583 0.0
C1373 C 0.76601 0.69846 0.38629 0.0
C1374 C 0.78544 0.75225 0.38137 0.0
C1375 C 0.80028 0.74499 0.3545 0.0
N1376 N 0.81807 0.70758 0.3224 0.0
N1377 N 0.76398 0.73514 0.42927 0.0
C1378 C 0.79977 0.71454 0.34485 0.0
C1379 C 0.77144 0.7288 0.39931 0.0
N1380 N 0.7718 0.66345 0.34271 0.0
N1381 N 0.7838 0.78149 0.38923 0.0
H1382 H 0.75504 0.71837 0.44358 0.0
H1383 H 0.76992 0.75649 0.44129 0.0
H1384 H 0.79405 0.79921 0.37693 0.0
H1385 H 0.77026 0.78789 0.40623 0.0
H1386 H 0.77795 0.65823 0.32017 0.0
H1387 H 0.75642 0.64608 0.35053 0.0
H1388 H 0.82135 0.68575 0.31697 0.0
H1389 H 0.83228 0.72392 0.31137 0.0
C1390 C 0.04964 0.54993 0.82366 0.0
C1391 C 0.05418 0.57093 0.85095 0.0
C1392 C 1.01578 0.53663 0.8762 0.0
C1393 C 1.01103 0.51577 0.84878 0.0
N1394 N 1.02431 0.50203 0.79651 0.0
N1395 N 0.042 0.58381 0.90404 0.0
C1396 C 1.02822 0.52229 0.82265 0.0
C1397 C 1.03763 0.56396 0.8775 0.0
N1398 N 0.06569 0.55555 0.79812 0.0
N1399 N 0.99928 0.53137 0.9015 0.0
H1400 H 0.05786 0.60416 0.90643 0.0
H1401 H 1.02997 0.57962 0.92383 0.0
H1402 H 0.98233 0.51217 0.90275 0.0
H1403 H 0.98233 0.51217 0.90275 0.0
H1404 H 0.08243 0.57494 0.79693 0.0
H1405 H 0.08243 0.57494 0.79693 0.0
H1406 H 1.03656 0.50608 0.77685 0.0
H1407 H 1.00895 0.48132 0.79457 0.0
C1408 C 0.09791 0.96491 0.12289 0.0
C1409 C 0.12892 0.95897 0.12158 0.0
C1410 C 0.13209 0.98859 0.074 0.0
C1411 C 0.1057 1.00045 0.0814 0.0
N1412 N 0.0599 0.99709 0.10804 0.0
N1413 N 0.17288 0.96003 0.09137 0.0
C1414 C 0.08716 0.98716 0.10394 0.0
C1415 C 0.14495 0.96872 0.09524 0.0
N1416 N 0.07829 0.94841 0.14109 0.0
N1417 N 0.14544 0.99782 0.04758 0.0
H1418 H 0.18441 0.94794 0.10792 0.0
H1419 H 0.18523 0.96496 0.0721 0.0
H1420 H 0.13586 1.01243 0.03238 0.0
H1421 H 0.1642 0.9898 0.03934 0.0
H1422 H 0.05475 0.95013 0.14124 0.0
H1423 H 0.08435 0.93043 0.15333 0.0
H1424 H 0.04675 0.99126 0.12658 0.0
H1425 H 0.05101 1.01219 0.09294 0.0
C1426 C 0.98017 0.26318 0.84819 0.0
C1427 C 0.97722 0.26019 0.88139 0.0
C1428 C 0.92201 0.26623 0.86995 0.0
C1429 C 0.9278 0.27698 0.83971 0.0
N1430 N 0.96201 0.28501 0.79903 0.0
N1431 N 0.94378 0.25451 0.92304 0.0
C1432 C 0.95652 0.27461 0.82817 0.0
C1433 C 0.94743 0.25996 0.89186 0.0
N1434 N 1.00534 0.2553 0.83573 0.0
N1435 N 0.89196 0.26186 0.87737 0.0
H1436 H 0.96094 0.24692 0.93865 0.0
H1437 H 0.92434 0.25842 0.93362 0.0
H1438 H 0.87315 0.26526 0.86079 0.0
H1439 H 0.88527 0.2521 0.89799 0.0
H1440 H 1.00716 0.25468 0.81118 0.0
H1441 H 1.02292 0.24655 0.84928 0.0
H1442 H 0.98402 0.28761 0.79111 0.0
H1443 H 0.94479 0.29261 0.78352 0.0
C1444 C 0.68594 0.30147 0.67652 0.0
C1445 C 0.67757 0.32086 0.65274 0.0
C1446 C 0.66313 0.27821 0.61245 0.0
C1447 C 0.66664 0.25865 0.63744 0.0
N1448 N 0.67373 0.25154 0.69441 0.0
N1449 N 0.65167 0.32664 0.59917 0.0
C1450 C 0.67595 0.27019 0.66988 0.0
C1451 C 0.66456 0.30909 0.62084 0.0
N1452 N 0.70403 0.31288 0.70503 0.0
N1453 N 0.65876 0.26743 0.58084 0.0
H1454 H 0.65051 0.34908 0.60457 0.0
H1455 H 0.6391 0.31801 0.5768 0.0
H1456 H 0.65768 0.24482 0.57373 0.0
H1457 H 0.65918 0.28141 0.56183 0.0
H1458 H 0.71268 0.29933 0.72211 0.0
H1459 H 0.71341 0.33576 0.70971 0.0
H1460 H 0.67795 0.25942 0.71866 0.0
H1461 H 0.66425 0.22863 0.69038 0.0
C1462 C 0.6105 0.72919 0.35055 0.0
C1463 C 0.58424 0.74398 0.34789 0.0
C1464 C 0.6071 0.77683 0.3092 0.0
C1465 C 0.63398 0.763 0.31275 0.0
N1466 N 0.65887 0.72199 0.33034 0.0
N1467 N 0.55579 0.77978 0.32142 0.0
C1468 C 0.6349 0.73779 0.33142 0.0
C1469 C 0.58169 0.76653 0.32592 0.0
N1470 N 0.6125 0.70776 0.3722 0.0
N1471 N 0.60596 0.80068 0.2906 0.0
H1472 H 0.53566 0.77383 0.33251 0.0
H1473 H 0.53566 0.77383 0.33251 0.0
H1474 H 0.62434 0.8099 0.27832 0.0
H1475 H 0.58657 0.81151 0.28781 0.0
H1476 H 0.63251 0.69839 0.37812 0.0
H1477 H 0.59424 0.70009 0.38537 0.0
H1478 H 0.65974 0.70194 0.34118 0.0
H1479 H 0.67689 0.72778 0.3163 0.0
C1480 C 0.11686 0.21435 0.47707 0.0
C1481 C 0.08967 0.22881 0.4705 0.0
C1482 C 0.05989 0.18071 0.49279 0.0
C1483 C 0.08651 0.16544 0.49771 0.0
N1484 N 0.14085 0.1699 0.49003 0.0
N1485 N 1.03299 0.21838 0.46639 0.0
C1486 C 0.11489 0.18308 0.4882 0.0
C1487 C 0.06082 0.20971 0.47712 0.0
N1488 N 0.14553 0.23115 0.47418 0.0
N1489 N 1.03277 0.16753 0.50349 0.0
H1490 H 1.03196 0.23744 0.45363 0.0
H1491 H 1.01093 0.20496 0.4665 0.0
H1492 H 1.03029 0.14649 0.51292 0.0
H1493 H 1.01374 0.17833 0.50532 0.0
H1494 H 0.167 0.22479 0.48178 0.0
H1495 H 0.14775 0.25268 0.46597 0.0
H1496 H 0.16129 0.17844 0.48051 0.0
H1497 H 0.14099 0.14911 0.49957 0.0
C1498 C 0.70731 0.35305 0.20478 0.0
C1499 C 0.67839 0.3334 0.20841 0.0
C1500 C 0.71093 0.31427 0.25518 0.0
C1501 C 0.74055 0.33122 0.24859 0.0
N1502 N 0.76459 0.36121 0.20918 0.0
N1503 N 0.65559 0.29143 0.236 0.0
C1504 C 0.73785 0.34917 0.22132 0.0
C1505 C 0.68114 0.31307 0.23347 0.0
N1506 N 0.7058 0.37659 0.18588 0.0
N1507 N 0.71064 0.30003 0.28307 0.0
H1508 H 0.63398 0.28994 0.22135 0.0
H1509 H 0.65659 0.27364 0.25068 0.0
H1510 H 0.73084 0.30108 0.29977 0.0
H1511 H 0.68994 0.28988 0.29121 0.0
H1512 H 0.72514 0.39358 0.18472 0.0
H1513 H 0.68448 0.38108 0.17452 0.0
H1514 H 0.76422 0.37171 0.18761 0.0
H1515 H 0.78682 0.35728 0.21816 0.0
C1516 C 0.60739 0.91931 1.0003 0.0
C1517 C 0.60546 0.91131 0.96587 0.0
C1518 C 0.60639 0.96881 0.96229 0.0
C1519 C 0.60447 0.97605 0.99606 0.0
N1520 N 0.59499 0.95122 0.04436 0.0
N1521 N 0.59422 0.93261 0.91483 0.0
C1522 C 0.60283 0.94919 1.01397 0.0
C1523 C 0.60254 0.93743 0.94742 0.0
N1524 N 0.6148 0.89868 0.02115 0.0
N1525 N 0.6135 0.9922 0.94366 0.0
H1526 H 0.58897 0.91127 0.9029 0.0
H1527 H 0.58844 0.94937 0.90027 0.0
H1528 H 0.6179 1.01455 0.95286 0.0
H1529 H 0.61901 0.98931 0.92038 0.0
H1530 H 0.6203 0.9037 0.046 0.0
H1531 H 0.61894 0.87772 1.01357 0.0
H1532 H 0.58973 0.93255 0.05759 0.0
H1533 H 0.58984 0.97079 0.05477 0.0
C1534 C 0.99231 0.833 0.74457 0.0
C1535 C 0.99031 0.8231 0.7107 0.0
C1536 C 0.93019 0.81372 0.71265 0.0
C1537 C 0.93245 0.82043 0.74716 0.0
N1538 N 0.96985 0.83102 0.79558 0.0
N1539 N 0.9534 0.79778 0.6657 0.0
C1540 C 0.96478 0.82857 0.76269 0.0
C1541 C 0.95803 0.81186 0.69591 0.0
N1542 N 1.02058 0.84855 0.75984 0.0
N1543 N 0.90109 0.8105 0.69475 0.0
H1544 H 0.97197 0.79512 0.65307 0.0
H1545 H 0.93153 0.7859 0.65472 0.0
H1546 H 0.88085 0.81259 0.70491 0.0
H1547 H 0.89759 0.80911 0.66963 0.0
H1548 H 1.02336 0.85936 0.78283 0.0
H1549 H 0.04043 0.85376 0.74825 0.0
H1550 H 0.99218 0.83315 0.80895 0.0
H1551 H 0.95144 0.82764 0.80945 0.0
C1552 C 0.19151 0.07483 0.96324 0.0
C1553 C 0.21499 0.10129 0.96553 0.0
C1554 C 0.19959 0.11693 0.01676 0.0
C1555 C 0.17209 0.09395 1.01059 0.0
N1556 N 0.14102 0.05141 0.97716 0.0
N1557 N 0.24108 0.14842 0.9938 0.0
C1558 C 0.16783 0.07292 0.98363 0.0
C1559 C 0.21939 0.12241 0.99241 0.0
N1560 N 0.19238 0.05126 0.94195 0.0
N1561 N 0.20679 0.13351 0.04571 0.0
H1562 H 0.25635 0.15279 0.97665 0.0
H1563 H 0.24257 0.16637 1.01083 0.0
H1564 H 0.19227 0.13098 0.06364 0.0
H1565 H 0.22817 0.14824 0.05272 0.0
H1566 H 0.17755 0.03039 0.94105 0.0
H1567 H 0.21045 0.05152 0.92782 0.0
H1568 H 0.13513 0.03769 0.95575 0.0
H1569 H 0.12349 0.04864 0.99212 0.0
C1570 C 0.90916 0.38232 0.67019 0.0
C1571 C 0.88072 0.38193 0.64872 0.0
C1572 C 0.85049 0.36743 0.69351 0.0
C1573 C 0.87858 0.36402 0.71367 0.0
N1574 N 0.93473 0.36601 0.71978 0.0
N1575 N 0.82384 0.37032 0.63941 0.0
C1576 C 0.90798 0.37114 0.70168 0.0
C1577 C 0.85129 0.37374 0.66039 0.0
N1578 N 0.93742 0.39429 0.6608 0.0
N1579 N 0.82289 0.36544 0.70628 0.0
H1580 H 0.82318 0.37456 0.61514 0.0
H1581 H 0.80185 0.36088 0.64533 0.0
H1582 H 0.82121 0.36086 0.73012 0.0
H1583 H 0.80251 0.37124 0.69435 0.0
H1584 H 0.95879 0.39815 0.67615 0.0
H1585 H 0.93915 0.403 0.63839 0.0
H1586 H 0.95632 0.36728 0.71117 0.0
H1587 H 0.93481 0.35831 0.74283 0.0
C1588 C 0.58612 0.16407 0.42904 0.0
C1589 C 0.55598 0.1536 0.4107 0.0
C1590 C 0.54461 0.11471 0.44783 0.0
C1591 C 0.57651 0.12185 0.46309 0.0
N1592 N 0.62806 0.15337 0.46848 0.0
N1593 N 0.50231 0.12879 0.41379 0.0
C1594 C 0.59729 0.14695 0.45419 0.0
C1595 C 0.53396 0.13214 0.42334 0.0
N1596 N 0.60311 0.1912 0.4234 0.0
N1597 N 0.52392 0.09117 0.4565 0.0
H1598 H 0.49193 0.14321 0.39897 0.0
H1599 H 0.49193 0.14321 0.39897 0.0
H1600 H 0.53 0.07725 0.47427 0.0
H1601 H 0.50071 0.085 0.44492 0.0
H1602 H 0.62427 0.20144 0.43729 0.0
H1603 H 0.59386 0.20517 0.40711 0.0
H1604 H 0.64529 0.16931 0.4607 0.0
H1605 H 0.63703 0.14112 0.48676 0.0
C1606 C 0.82404 0.72928 0.15362 0.0
C1607 C 0.85157 0.73503 0.13731 0.0
C1608 C 0.87579 0.77182 0.18626 0.0
C1609 C 0.84787 0.76635 0.20229 0.0
N1610 N 0.79853 0.73255 0.20228 0.0
N1611 N 0.90318 0.76455 0.13907 0.0
C1612 C 0.82295 0.74316 0.18593 0.0
C1613 C 0.87737 0.75679 0.15442 0.0
N1614 N 0.79776 0.71084 0.13747 0.0
N1615 N 0.90137 0.79168 0.20158 0.0
H1616 H 0.90546 0.75349 0.11729 0.0
H1617 H 0.92175 0.78231 0.14683 0.0
H1618 H 0.90062 0.80454 0.22258 0.0
H1619 H 0.92373 0.79479 0.19455 0.0
H1620 H 0.77543 0.70884 0.14455 0.0
H1621 H 0.79797 0.69871 0.1157 0.0
H1622 H 0.78143 0.71358 0.19434 0.0
H1623 H 0.79712 0.74073 0.22563 0.0
C1624 C 0.14784 0.06425 0.80312 0.0
C1625 C 0.17729 0.0838 0.80351 0.0
C1626 C 0.16561 0.08666 0.74554 0.0
C1627 C 0.1335 0.0751 0.74768 0.0
N1628 N 0.09375 0.04977 0.77683 0.0
N1629 N 0.21604 0.11161 0.77416 0.0
C1630 C 0.12457 0.06222 0.77577 0.0
C1631 C 0.18725 0.09368 0.77429 0.0
N1632 N 0.14228 0.04829 0.82923 0.0
N1633 N 0.17498 0.0916 0.71606 0.0
H1634 H 0.23342 0.1163 0.79415 0.0
H1635 H 0.22234 0.12296 0.75429 0.0
H1636 H 0.15931 0.08672 0.69461 0.0
H1637 H 0.19853 0.0976 0.71264 0.0
H1638 H 0.12207 0.03214 0.82968 0.0
H1639 H 0.15957 0.04925 0.84924 0.0
H1640 H 0.08514 0.04305 0.79791 0.0
H1641 H 0.07649 0.04738 0.75663 0.0
C1642 C 0.82194 0.3879 0.44693 0.0
C1643 C 0.84992 0.38504 0.46772 0.0
C1644 C 0.86411 0.35418 0.42273 0.0
C1645 C 0.83766 0.35935 0.40109 0.0
N1646 N 0.79317 0.38438 0.39247 0.0
N1647 N 0.89975 0.36832 0.47306 0.0
C1648 C 0.81722 0.37725 0.41324 0.0
C1649 C 0.8713 0.36858 0.45501 0.0
N1650 N 0.79883 0.39943 0.45978 0.0
N1651 N 0.88305 0.33581 0.41225 0.0
H1652 H 0.90597 0.37862 0.49627 0.0
H1653 H 0.91826 0.36026 0.46428 0.0
H1654 H 0.88068 0.32738 0.38839 0.0
H1655 H 0.89991 0.32752 0.42743 0.0
H1656 H 0.77656 0.39939 0.44715 0.0
H1657 H 0.80066 0.40634 0.48416 0.0
H1658 H 0.78003 0.40049 0.3983 0.0
H1659 H 0.78751 0.37541 0.36858 0.0
C1660 C 0.61305 0.172 0.23933 0.0
C1661 C 0.63073 0.17746 0.27028 0.0
C1662 C 0.67429 0.15868 0.25 0.0
C1663 C 0.65264 0.14448 0.22324 0.0
N1664 N 0.60148 0.13928 0.19045 0.0
N1665 N 0.6841 0.19101 0.29852 0.0
C1666 C 0.62229 0.15238 0.21668 0.0
C1667 C 0.66331 0.17605 0.27346 0.0
N1668 N 0.58727 0.18504 0.23238 0.0
N1669 N 0.70491 0.15471 0.2538 0.0
H1670 H 0.67785 0.20587 0.31534 0.0
H1671 H 0.67785 0.20587 0.31534 0.0
H1672 H 0.71379 0.14216 0.23675 0.0
H1673 H 0.72118 0.16442 0.27371 0.0
H1674 H 0.57431 0.1835 0.20944 0.0
H1675 H 0.58146 0.20017 0.24923 0.0
H1676 H 0.57801 0.142 0.18658 0.0
H1677 H 0.60718 0.12432 0.17341 0.0
C1678 C 0.83543 0.75758 0.94374 0.0
C1679 C 0.85328 0.73373 0.94937 0.0
C1680 C 0.86829 0.7432 0.89273 0.0
C1681 C 0.85289 0.76877 0.88858 0.0
N1682 N 0.82452 0.80147 0.91493 0.0
N1683 N 0.8926 0.70977 0.92836 0.0
C1684 C 0.83759 0.77621 0.91573 0.0
C1685 C 0.87102 0.72819 0.92334 0.0
N1686 N 0.81428 0.76151 0.96425 0.0
N1687 N 0.88077 0.73281 0.86707 0.0
H1688 H 0.89686 0.69979 0.94991 0.0
H1689 H 0.90884 0.70711 0.91271 0.0
H1690 H 0.88126 0.7437 0.84574 0.0
H1691 H 0.88854 0.71236 0.86605 0.0
H1692 H 0.79781 0.77552 0.96026 0.0
H1693 H 0.81074 0.74822 0.98347 0.0
H1694 H 0.81661 0.81091 0.9348 0.0
H1695 H 0.8238 0.81437 0.89503 0.0
C1696 C 0.90779 0.20097 1.0026 0.0
C1697 C 0.90349 0.2093 0.03459 0.0
C1698 C 0.94496 0.18201 0.05546 0.0
C1699 C 0.94552 0.16982 0.02363 0.0
N1700 N 0.92361 0.16422 0.96723 0.0
N1701 N 0.91636 0.20652 0.0918 0.0
C1702 C 0.9261 0.17857 0.9972 0.0
C1703 C 0.92172 0.19954 0.06115 0.0
N1704 N 0.89414 0.21424 0.97728 0.0
N1705 N 0.96715 0.17752 0.08006 0.0
H1706 H 0.90078 0.22068 0.09678 0.0
H1707 H 0.92607 0.19708 0.11199 0.0
H1708 H 0.98491 0.1654 0.07663 0.0
H1709 H 0.96982 0.1881 0.10314 0.0
H1710 H 0.89843 0.21077 0.95364 0.0
H1711 H 0.88113 0.23114 0.98029 0.0
H1712 H 0.90721 0.16729 0.94784 0.0
H1713 H 0.9357 0.14695 0.96235 0.0
C1714 C 0.44499 0.48721 0.06638 0.0
C1715 C 0.4182 0.49036 0.04379 0.0
C1716 C 0.45593 0.53145 0.02178 0.0
C1717 C 0.48329 0.52585 0.04228 0.0
N1718 N 0.50201 0.49179 0.07913 0.0
N1719 N 0.40042 0.51517 0.99754 0.0
C1720 C 0.47703 0.5021 0.06335 0.0
C1721 C 0.42445 0.51258 0.02098 0.0
N1722 N 0.43982 0.47021 0.09184 0.0
N1723 N 0.45966 0.55563 1.00358 0.0
H1724 H 0.37749 0.50334 0.99727 0.0
H1725 H 0.40349 0.5276 0.97759 0.0
H1726 H 0.48147 0.56965 1.00362 0.0
H1727 H 0.44094 0.5633 0.9906 0.0
H1728 H 0.45723 0.46937 0.11118 0.0
H1729 H 0.41728 0.45968 0.09542 0.0
H1730 H 0.49963 0.47254 0.09187 0.0
H1731 H 0.52522 0.50029 0.07615 0.0
C1732 C 0.33008 0.60297 0.6909 0.0
C1733 C 0.36264 0.61276 0.68937 0.0
C1734 C 0.35803 0.66462 0.70371 0.0
C1735 C 0.32811 0.65355 0.71325 0.0
N1736 N 0.28308 0.61382 0.71154 0.0
N1737 N 0.4028 0.65299 0.67907 0.0
C1738 C 0.31301 0.62327 0.70474 0.0
C1739 C 0.37484 0.64386 0.69042 0.0
N1740 N 0.31568 0.57472 0.67866 0.0
N1741 N 0.37128 0.69441 0.70978 0.0
H1742 H 0.41453 0.63747 0.6688 0.0
H1743 H 0.41277 0.67534 0.6771 0.0
H1744 H 0.35935 0.71028 0.71885 0.0
H1745 H 0.39433 0.70345 0.70664 0.0
H1746 H 0.29163 0.56644 0.67769 0.0
H1747 H 0.32723 0.56085 0.66576 0.0
H1748 H 0.27177 0.59141 0.70943 0.0
H1749 H 0.2698 0.62873 0.72026 0.0
C1750 C 0.21916 0.66388 0.49846 0.0
C1751 C 0.21956 0.69196 0.51591 0.0
C1752 C 0.16692 0.67096 0.5293 0.0
C1753 C 0.16915 0.64164 0.5174 0.0
N1754 N 0.1992 0.60983 0.49203 0.0
N1755 N 0.19546 0.71873 0.55449 0.0
C1756 C 0.19577 0.63801 0.50223 0.0
C1757 C 0.19383 0.69459 0.53306 0.0
N1758 N 0.2402 0.66213 0.4772 0.0
N1759 N 0.13849 0.67681 0.53548 0.0
H1760 H 0.21542 0.73556 0.56018 0.0
H1761 H 0.1783 0.72009 0.56948 0.0
H1762 H 0.1179 0.66081 0.52968 0.0
H1763 H 0.13486 0.69836 0.54182 0.0
H1764 H 0.23924 0.64318 0.46171 0.0
H1765 H 0.25646 0.68068 0.47249 0.0
H1766 H 0.21973 0.60525 0.48406 0.0
H1767 H 0.18227 0.59072 0.49368 0.0
C1768 C 0.79943 1.01388 0.74462 0.0
C1769 C 0.77194 0.99254 0.73129 0.0
C1770 C 0.80023 0.95133 0.74187 0.0
C1771 C 0.82734 0.97245 0.75618 0.0
N1772 N 0.8562 1.02315 0.7614 0.0
N1773 N 0.75066 0.94312 0.70593 0.0
C1774 C 0.82812 1.00356 0.75387 0.0
C1775 C 0.77409 0.962 0.72583 0.0
N1776 N 0.79789 0.04341 0.75115 0.0
N1777 N 0.79804 0.92135 0.74604 0.0
H1778 H 0.73138 0.95073 0.69375 0.0
H1779 H 0.75223 0.92108 0.69892 0.0
H1780 H 0.81603 0.9123 0.75849 0.0
H1781 H 0.77719 0.90574 0.73947 0.0
H1782 H 0.81617 0.05864 0.76484 0.0
H1783 H 0.77796 0.05268 0.74474 0.0
H1784 H 0.85892 0.04595 0.75751 0.0
H1785 H 0.87737 1.01582 0.76844 0.0
C1786 C 0.69928 0.97424 0.54733 0.0
C1787 C 0.72902 0.98755 0.53724 0.0
C1788 C 0.70068 0.03225 0.52403 0.0
C1789 C 0.67094 1.01883 0.53398 0.0
N1790 N 0.64294 0.97303 0.55118 0.0
N1791 N 0.75629 0.03243 0.51748 0.0
C1792 C 0.67084 0.98869 0.54432 0.0
C1793 C 0.72887 1.01746 0.52619 0.0
N1794 N 0.69863 0.94822 0.56254 0.0
N1795 N 0.70141 0.05874 0.50966 0.0
H1796 H 0.77525 1.02203 0.51406 0.0
H1797 H 0.76094 0.0554 0.5147 0.0
H1798 H 0.68204 0.0695 0.50657 0.0
H1799 H 0.71982 0.06891 0.49809 0.0
H1800 H 0.68032 0.93882 0.57472 0.0
H1801 H 0.71794 0.93742 0.56581 0.0
H1802 H 0.63882 0.95007 0.55412 0.0
H1803 H 0.62296 0.9826 0.5519 0.0
C1804 C 0.41613 0.44046 0.737 0.0
C1805 C 0.40066 0.46517 0.7416 0.0
C1806 C 0.35935 0.43248 0.76461 0.0
C1807 C 0.37396 0.40737 0.75897 0.0
N1808 N 0.41169 0.3862 0.73184 0.0
N1809 N 0.35192 0.48161 0.74899 0.0
C1810 C 0.40106 0.41096 0.74277 0.0
C1811 C 0.37032 0.46012 0.75158 0.0
N1812 N 0.44528 0.44523 0.72719 0.0
N1813 N 0.33664 0.43092 0.78454 0.0
H1814 H 0.35882 0.50214 0.7395 0.0
H1815 H 0.32848 0.47774 0.75328 0.0
H1816 H 0.32934 0.41199 0.79672 0.0
H1817 H 0.32776 0.44964 0.79202 0.0
H1818 H 0.45956 0.42901 0.72735 0.0
H1819 H 0.45572 0.46597 0.72008 0.0
H1820 H 0.42965 0.38721 0.71747 0.0
H1821 H 0.40041 0.3643 0.73435 0.0
C1822 C 0.15644 0.61789 0.19598 0.0
C1823 C 0.13175 0.61246 0.2151 0.0
C1824 C 0.14649 0.66393 0.23956 0.0
C1825 C 0.1743 0.66757 0.22467 0.0
N1826 N 0.20045 0.6508 0.18095 0.0
N1827 N 0.09467 0.63659 0.24101 0.0
C1828 C 0.17763 0.64566 0.20049 0.0
C1829 C 0.12377 0.63733 0.23206 0.0
N1830 N 0.15947 0.59653 0.17304 0.0
N1831 N 0.14165 0.68544 0.26142 0.0
H1832 H 0.07541 0.61931 0.23341 0.0
H1833 H 0.07541 0.61931 0.23341 0.0
H1834 H 0.1583 0.70477 0.26938 0.0
H1835 H 0.12129 0.68311 0.27257 0.0
H1836 H 0.17793 0.59927 0.15915 0.0
H1837 H 0.14235 0.57708 0.1669 0.0
H1838 H 0.21617 0.67116 0.18135 0.0
H1839 H 0.21617 0.67116 0.18135 0.0
C1840 C 0.59597 0.69173 0.48418 0.0
C1841 C 0.56319 0.68314 0.47264 0.0
C1842 C 0.55686 0.65009 0.5153 0.0
C1843 C 0.58983 0.65525 0.5252 0.0
N1844 N 0.64194 0.67801 0.51544 0.0
N1845 N 0.5159 0.64622 0.46995 0.0
C1846 C 0.60998 0.67528 0.5086 0.0
C1847 C 0.54499 0.6593 0.48555 0.0
N1848 N 0.6133 0.71574 0.4723 0.0
N1849 N 0.53669 0.63747 0.53513 0.0
H1850 H 0.50665 0.6531 0.44789 0.0
H1851 H 0.50292 0.62677 0.47742 0.0
H1852 H 0.54454 0.63344 0.55871 0.0
H1853 H 0.5124 0.63537 0.5295 0.0
H1854 H 0.63655 0.72493 0.48192 0.0
H1855 H 0.60364 0.72699 0.45345 0.0
H1856 H 0.65763 0.69016 0.50194 0.0
H1857 H 0.65252 0.66669 0.53365 0.0
C1858 C 0.73729 0.38164 0.77111 0.0
C1859 C 0.74459 0.40629 0.75167 0.0
C1860 C 0.80099 0.40976 0.77047 0.0
C1861 C 0.79354 0.3845 0.78871 0.0
N1862 N 0.75552 0.35426 0.81591 0.0
N1863 N 0.78186 0.45 0.74249 0.0
C1864 C 0.7619 0.37336 0.79242 0.0
C1865 C 0.77601 0.42251 0.75477 0.0
N1866 N 0.70782 0.36418 0.76736 0.0
N1867 N 0.83151 0.42024 0.76607 0.0
H1868 H 0.76375 0.46005 0.73157 0.0
H1869 H 0.80396 0.46403 0.74623 0.0
H1870 H 0.85066 0.4119 0.77724 0.0
H1871 H 0.83763 0.43594 0.74955 0.0
H1872 H 0.70277 0.34394 0.77806 0.0
H1873 H 0.68889 0.36789 0.75136 0.0
H1874 H 0.73291 0.34746 0.82187 0.0
H1875 H 0.77343 0.34795 0.83173 0.0
C1876 C 0.09537 0.35437 0.93795 0.0
C1877 C 0.07756 0.33527 0.91161 0.0
C1878 C 0.05517 0.37807 0.89192 0.0
C1879 C 0.06742 0.39454 0.92179 0.0
N1880 N 0.09668 0.39712 0.97519 0.0
N1881 N 1.03857 0.32903 0.86362 0.0
C1882 C 0.08706 0.38247 0.94531 0.0
C1883 C 0.0572 0.34716 0.88826 0.0
N1884 N 0.12069 0.34589 0.95551 0.0
N1885 N 0.04219 0.39213 0.86691 0.0
H1886 H 1.03977 0.30659 0.8591 0.0
H1887 H 1.0204 0.33589 0.84879 0.0
H1888 H 0.04166 0.41508 0.86868 0.0
H1889 H 1.03526 0.38191 0.84365 0.0
H1890 H 0.13601 0.36011 0.97332 0.0
H1891 H 0.12853 0.32609 0.94958 0.0
H1892 H 0.1084 0.38766 0.99423 0.0
H1893 H 0.09042 0.41752 0.9818 0.0
C1894 C 0.07216 0.84268 0.22327 0.0
C1895 C 0.08049 0.87428 0.22199 0.0
C1896 C 0.04229 0.88235 0.25804 0.0
C1897 C 1.03266 0.85072 0.25784 0.0
N1898 N 1.03423 0.80065 0.23654 0.0
N1899 N 0.07039 0.92413 0.23304 0.0
C1900 C 0.04637 0.8308 0.23934 0.0
C1901 C 0.06462 0.89413 0.2379 0.0
N1902 N 0.08964 0.82415 0.21015 0.0
N1903 N 1.03074 0.90105 0.27821 0.0
H1904 H 0.08675 0.93351 0.21849 0.0
H1905 H 0.05717 0.93932 0.2411 0.0
H1906 H 1.01412 0.89326 0.29316 0.0
H1907 H 1.03935 0.92408 0.28206 0.0
H1908 H 0.08703 0.80125 0.21335 0.0
H1909 H 0.10844 0.83207 0.19785 0.0
H1910 H 0.04084 0.78536 0.22057 0.0
H1911 H 1.01571 0.7911 0.2485 0.0
C1912 C 0.56848 0.43806 0.13072 0.0
C1913 C 0.58348 0.41365 0.1202 0.0
C1914 C 0.60235 0.45165 0.07821 0.0
C1915 C 0.58812 0.4764 0.08963 0.0
N1916 N 0.56239 0.49092 0.13423 0.0
N1917 N 0.61268 0.3995 0.07888 0.0
C1918 C 0.57285 0.46865 0.11799 0.0
C1919 C 0.59969 0.42148 0.09249 0.0
N1920 N 0.54686 0.43148 0.15146 0.0
N1921 N 0.62122 0.45774 0.05483 0.0
H1922 H 0.61415 0.37937 0.08936 0.0
H1923 H 0.6205 0.40022 0.05647 0.0
H1924 H 0.62485 0.47852 0.04499 0.0
H1925 H 0.63564 0.44365 0.04706 0.0
H1926 H 0.53159 0.44568 0.15704 0.0
H1927 H 0.54102 0.41027 0.15983 0.0
H1928 H 0.55661 0.48928 0.15751 0.0
H1929 H 0.56134 0.51187 0.12567 0.0
C1930 C 0.9966 0.34473 0.36062 0.0
C1931 C 1.00118 0.32215 0.38263 0.0
C1932 C 0.9424 0.30207 0.36849 0.0
C1933 C 0.93778 0.32394 0.34522 0.0
N1934 N 0.96521 0.36091 0.31425 0.0
N1935 N 0.97798 0.27472 0.40013 0.0
C1936 C 0.96632 0.34381 0.34013 0.0
C1937 C 0.97383 0.29963 0.38421 0.0
N1938 N 1.02109 0.36798 0.35975 0.0
N1939 N 0.91668 0.28413 0.37739 0.0
H1940 H 1.00003 0.27176 0.41122 0.0
H1941 H 0.96048 0.25562 0.39924 0.0
H1942 H 0.89355 0.28414 0.36743 0.0
H1943 H 0.918 0.2711 0.39712 0.0
H1944 H 1.01873 0.38727 0.34785 0.0
H1945 H 0.04332 0.36877 0.3729 0.0
H1946 H 0.9852 0.37357 0.30702 0.0
H1947 H 0.94491 0.35961 0.29765 0.0
C1948 C 0.10641 0.71632 0.62508 0.0
C1949 C 0.07972 0.7312 0.61778 0.0
C1950 C 0.05439 0.68069 0.58514 0.0
C1951 C 0.08235 0.66695 0.58983 0.0
N1952 N 0.13757 0.67844 0.61141 0.0
N1953 N 1.02914 0.72554 0.58542 0.0
C1954 C 0.10874 0.68672 0.60938 0.0
C1955 C 0.05408 0.71251 0.59634 0.0
N1956 N 0.13018 0.73043 0.64823 0.0
N1957 N 1.02697 0.66282 0.57085 0.0
H1958 H 1.02749 0.74726 0.59366 0.0
H1959 H 1.01141 0.71575 0.56688 0.0
H1960 H 1.02572 0.6403 0.56332 0.0
H1961 H 1.00504 0.66929 0.56943 0.0
H1962 H 0.14846 0.7202 0.65824 0.0
H1963 H 0.12967 0.75124 0.65986 0.0
H1964 H 0.15854 0.69287 0.62085 0.0
H1965 H 0.14105 0.65842 0.60041 0.0
C1966 C 0.71576 0.84742 0.87531 0.0
C1967 C 0.69195 0.82122 0.8777 0.0
C1968 C 0.727 0.79315 0.84666 0.0
C1969 C 0.74913 0.81981 0.84135 0.0
N1970 N 0.75761 0.87393 0.8473 0.0
N1971 N 0.67524 0.76895 0.85968 0.0
C1972 C 0.74151 0.84721 0.85515 0.0
C1973 C 0.6978 0.7943 0.86131 0.0
N1974 N 0.71393 0.87333 0.8924 0.0
N1975 N 0.73471 0.76585 0.83971 0.0
H1976 H 0.65534 0.76793 0.87136 0.0
H1977 H 0.67515 0.74972 0.84493 0.0
H1978 H 0.75559 0.76356 0.83094 0.0
H1979 H 0.72234 0.74565 0.84606 0.0
H1980 H 0.73194 0.89219 0.89567 0.0
H1981 H 0.6954 0.87512 0.90546 0.0
H1982 H 0.75164 0.89464 0.85297 0.0
H1983 H 0.77462 0.87524 0.83179 0.0
C1984 C 0.50659 0.60704 0.66761 0.0
C1985 C 0.4983 0.57681 0.6754 0.0
C1986 C 0.54696 0.56566 0.65863 0.0
C1987 C 0.55449 0.59505 0.64796 0.0
N1988 N 0.53917 0.64299 0.63903 0.0
N1989 N 0.50572 0.52566 0.66959 0.0
C1990 C 0.53348 0.61553 0.65139 0.0
C1991 C 0.51686 0.55561 0.66773 0.0
N1992 N 0.48949 0.62777 0.67674 0.0
N1993 N 0.56896 0.54764 0.66176 0.0
H1994 H 0.48347 0.51772 0.67605 0.0
H1995 H 0.51693 0.50882 0.66139 0.0
H1996 H 0.59211 0.55524 0.65861 0.0
H1997 H 0.56544 0.52695 0.67183 0.0
H1998 H 0.49625 0.6508 0.67508 0.0
H1999 H 0.46912 0.62187 0.68749 0.0
H2000 H 0.5229 0.65738 0.63714 0.0
H2001 H 0.55975 0.6508 0.62927 0.0
C2002 C 0.83762 0.30456 0.9546 0.0
C2003 C 0.8192 0.27522 0.95524 0.0
C2004 C 0.8149 0.27003 0.89566 0.0
C2005 C 0.83062 0.30062 0.89471 0.0
N2006 N 0.8462 0.34908 0.92484 0.0
N2007 N 0.78233 0.23461 0.92455 0.0
C2008 C 0.83869 0.3185 0.92465 0.0
C2009 C 0.8053 0.25954 0.92518 0.0
N2010 N 0.85575 0.31881 0.98193 0.0
N2011 N 0.81066 0.24989 0.86936 0.0
H2012 H 0.77399 0.22688 0.94539 0.0
H2013 H 0.76909 0.22397 0.90324 0.0
H2014 H 0.81886 0.25458 0.84768 0.0
H2015 H 0.80234 0.22696 0.87041 0.0
H2016 H 0.87175 0.33887 0.98171 0.0
H2017 H 0.85775 0.30922 1.00395 0.0
H2018 H 0.84982 0.36316 0.94597 0.0
H2019 H 0.84453 0.36045 0.90385 0.0
C2020 C 0.04475 0.48563 0.15351 0.0
C2021 C 0.07508 0.48077 0.16622 0.0
C2022 C 0.09206 0.4859 0.11334 0.0
C2023 C 0.06589 0.50005 0.10424 0.0
N2024 N 1.01431 0.50866 0.11228 0.0
N2025 N 0.11912 0.45932 0.15419 0.0
C2026 C 0.04079 0.49768 0.12293 0.0
C2027 C 0.09585 0.47489 0.14448 0.0
N2028 N 1.02026 0.47863 0.17076 0.0
N2029 N 0.11418 0.48516 0.09318 0.0
H2030 H 0.12082 0.45057 0.17682 0.0
H2031 H 0.13458 0.45291 0.13931 0.0
H2032 H 0.11086 0.4921 0.06993 0.0
H2033 H 0.13559 0.47819 0.09943 0.0
H2034 H 0.99704 0.48015 0.1622 0.0
H2035 H 1.02306 0.46814 0.19231 0.0
H2036 H 0.9966 0.51068 0.12633 0.0
H2037 H 1.01071 0.51657 0.08936 0.0
C2038 C 0.8021 0.90606 0.42268 0.0
C2039 C 0.81969 0.9024 0.45351 0.0
C2040 C 0.83951 0.8612 0.42234 0.0
C2041 C 0.82545 0.86768 0.39098 0.0
N2042 N 0.79749 0.90273 0.36369 0.0
N2043 N 0.86176 0.87905 0.47783 0.0
C2044 C 0.80789 0.89188 0.39207 0.0
C2045 C 0.84006 0.88058 0.45173 0.0
N2046 N 0.77822 0.92201 0.42225 0.0
N2047 N 0.8513 0.8353 0.42494 0.0
H2048 H 0.86456 0.89339 0.49852 0.0
H2049 H 0.87948 0.86631 0.47735 0.0
H2050 H 0.85004 0.81975 0.40544 0.0
H2051 H 0.85867 0.82745 0.44707 0.0
H2052 H 0.76231 0.92294 0.40164 0.0
H2053 H 0.77188 0.93131 0.4431 0.0
H2054 H 0.78797 0.92228 0.36253 0.0
H2055 H 0.80149 0.89415 0.34143 0.0
C2056 C 0.44871 0.58788 0.82869 0.0
C2057 C 0.42487 0.56451 0.81331 0.0
C2058 C 0.43883 0.53116 0.85464 0.0
C2059 C 0.46739 0.55204 0.8645 0.0
N2060 N 0.50008 0.60068 0.86085 0.0
N2061 N 0.39184 0.51645 0.81485 0.0
C2062 C 0.47219 0.58091 0.85216 0.0
C2063 C 0.41783 0.53704 0.82774 0.0
N2064 N 0.44938 0.61641 0.81937 0.0
N2065 N 0.43199 0.50605 0.87107 0.0
H2066 H 0.37477 0.52205 0.7976 0.0
H2067 H 0.38706 0.49438 0.82126 0.0
H2068 H 0.44699 0.50149 0.891 0.0
H2069 H 0.41071 0.49083 0.86655 0.0
H2070 H 0.46475 0.6352 0.83115 0.0
H2071 H 0.43211 0.62132 0.8017 0.0
H2072 H 0.50592 0.6207 0.84999 0.0
H2073 H 0.51864 0.59616 0.87708 0.0
C2074 C 0.83959 0.31364 0.14355 0.0
C2075 C 0.83228 0.28238 0.13342 0.0
C2076 C 0.84371 0.27209 0.19087 0.0
C2077 C 0.84479 0.30282 0.2013 0.0
N2078 N 0.83897 0.35242 0.1851 0.0
N2079 N 0.82397 0.23141 0.14923 0.0
C2080 C 0.84172 0.32353 0.17697 0.0
C2081 C 0.83366 0.26148 0.15758 0.0
N2082 N 0.84561 0.33416 0.12129 0.0
N2083 N 0.85355 0.25306 0.21253 0.0
H2084 H 0.81553 0.22264 0.12565 0.0
H2085 H 0.82162 0.21536 0.1661 0.0
H2086 H 0.86244 0.26004 0.23656 0.0
H2087 H 0.85652 0.23148 0.20557 0.0
H2088 H 0.85414 0.35697 0.12758 0.0
H2089 H 0.84573 0.32793 0.09702 0.0
H2090 H 0.8328 0.36711 0.16807 0.0
H2091 H 0.83969 0.36101 0.20866 0.0
C2092 C 0.14489 0.59725 0.31701 0.0
C2093 C 0.14186 0.56549 0.31788 0.0
C2094 C 0.11549 0.56694 0.36554 0.0
C2095 C 0.11398 0.59766 0.36147 0.0
N2096 N 0.13104 0.64339 0.33653 0.0
N2097 N 0.12966 0.52096 0.34655 0.0
C2098 C 0.13014 0.61326 0.33847 0.0
C2099 C 0.12901 0.55074 0.34335 0.0
N2100 N 0.16098 0.61297 0.29561 0.0
N2101 N 0.10393 0.55225 0.3903 0.0
H2102 H 0.14079 0.50837 0.33164 0.0
H2103 H 0.11984 0.5092 0.36473 0.0
H2104 H 0.09423 0.56227 0.40861 0.0
H2105 H 0.09423 0.56227 0.40861 0.0
H2106 H 0.17327 0.60356 0.27919 0.0
H2107 H 0.17327 0.60356 0.27919 0.0
H2108 H 0.14277 0.65558 0.31978 0.0
H2109 H 0.12043 0.65605 0.35188 0.0
C2110 C 0.85094 0.90455 0.66414 0.0
C2111 C 0.82292 0.90135 0.64073 0.0
C2112 C 0.79658 0.8681 0.68117 0.0
C2113 C 0.82552 0.86875 0.70287 0.0
N2114 N 0.88188 0.88529 0.70887 0.0
N2115 N 0.76919 0.87578 0.62776 0.0
C2116 C 0.85291 0.88671 0.69263 0.0
C2117 C 0.79586 0.88199 0.64982 0.0
N2118 N 0.87632 0.92553 0.65946 0.0
N2119 N 0.76899 0.85497 0.69099 0.0
H2120 H 0.76743 0.88612 0.60606 0.0
H2121 H 0.74978 0.85929 0.63003 0.0
H2122 H 0.76831 0.84533 0.71302 0.0
H2123 H 0.74679 0.8562 0.67896 0.0
H2124 H 0.89626 0.93214 0.67665 0.0
H2125 H 0.87592 0.93868 0.63971 0.0
H2126 H 0.90306 0.89439 0.701 0.0
H2127 H 0.88491 0.87229 0.72842 0.0
C2128 C 0.7943 0.4719 0.60625 0.0
C2129 C 0.80302 0.46935 0.57496 0.0
C2130 C 0.78237 0.51516 0.56166 0.0
C2131 C 0.7762 0.51942 0.59404 0.0
N2132 N 0.78079 0.50401 0.64846 0.0
N2133 N 0.8072 0.48889 0.52311 0.0
C2134 C 0.78316 0.49817 0.61663 0.0
C2135 C 0.79727 0.49096 0.55269 0.0
N2136 N 0.79681 0.44911 0.62603 0.0
N2137 N 0.77336 0.53381 0.53909 0.0
H2138 H 0.81587 0.47032 0.51476 0.0
H2139 H 0.80819 0.50599 0.50737 0.0
H2140 H 0.7652 0.55329 0.54482 0.0
H2141 H 0.7726 0.52935 0.51436 0.0
H2142 H 0.78817 0.44791 0.64806 0.0
H2143 H 0.80508 0.42987 0.61894 0.0
H2144 H 0.7882 0.49106 0.66673 0.0
H2145 H 0.77408 0.52354 0.65719 0.0
C2146 C 0.2298 0.14203 0.50574 0.0
C2147 C 0.25436 0.14942 0.53286 0.0
C2148 C 0.21479 0.12091 0.56546 0.0
C2149 C 0.19039 0.1128 0.53805 0.0
N2150 N 0.17921 0.11242 0.4801 0.0
N2151 N 0.27032 0.14064 0.58787 0.0
C2152 C 0.19952 0.12228 0.50772 0.0
C2153 C 0.24667 0.13717 0.5624 0.0
N2154 N 0.23496 0.15482 0.47763 0.0
N2155 N 0.20759 0.11303 0.595 0.0
H2156 H 0.29316 0.15184 0.58635 0.0
H2157 H 0.26833 0.13039 0.60935 0.0
H2158 H 0.18653 0.09905 0.59801 0.0
H2159 H 0.22174 0.12121 0.61666 0.0
H2160 H 0.21727 0.15467 0.4583 0.0
H2161 H 0.25681 0.16722 0.47433 0.0
H2162 H 0.18551 0.11458 0.45709 0.0
H2163 H 0.15645 0.10042 0.47996 0.0
C2164 C 0.32452 0.0519 0.87732 0.0
C2165 C 0.29194 0.04923 0.86557 0.0
C2166 C 0.29372 1.00428 0.83157 0.0
C2167 C 0.32702 1.00954 0.83982 0.0
N2168 N 0.37498 0.03975 0.86809 0.0
N2169 N 0.24653 1.02589 0.82725 0.0
C2170 C 0.34272 0.03369 0.86214 0.0
C2171 C 0.27666 1.02609 0.84172 0.0
N2172 N 0.3378 0.07116 0.9036 0.0
N2173 N 0.2783 0.97816 0.8145 0.0
H2174 H 0.2332 0.04183 0.83314 0.0
H2175 H 0.23576 1.01155 0.80717 0.0
H2176 H 0.28995 0.96149 0.80663 0.0
H2177 H 0.25379 0.97175 0.81085 0.0
H2178 H 0.36066 0.072 0.9152 0.0
H2179 H 0.32493 0.0843 0.91579 0.0
H2180 H 0.38787 0.05902 0.8814 0.0
H2181 H 0.389 1.02661 0.85764 0.0
C2182 C 0.47116 0.97942 0.07445 0.0
C2183 C 0.46102 0.96016 0.0457 0.0
C2184 C 0.49948 0.99239 0.01803 0.0
C2185 C 0.51055 1.01098 0.04716 0.0
N2186 N 0.50971 1.02046 0.10401 0.0
N2187 N 0.46718 0.94631 0.99098 0.0
C2188 C 0.49713 1.00395 0.07563 0.0
C2189 C 0.47574 0.96607 0.01776 0.0
N2190 N 0.45566 0.9744 0.10064 0.0
N2191 N 0.51151 1.0001 0.99041 0.0
H2192 H 0.44878 0.92784 0.98915 0.0
H2193 H 0.47932 0.94694 0.97113 0.0
H2194 H 0.52989 1.01809 0.9899 0.0
H2195 H 0.50227 0.98995 0.96756 0.0
H2196 H 0.45894 0.98944 0.1209 0.0
H2197 H 0.43815 0.9556 0.10162 0.0
H2198 H 0.50393 1.01455 0.12646 0.0
H2199 H 0.52741 0.03952 0.10544 0.0
C2200 C 0.9809 0.71819 0.80214 0.0
C2201 C 0.99753 0.70054 0.78397 0.0
C2202 C 0.95396 0.69347 0.73884 0.0
C2203 C 0.93742 0.71076 0.75719 0.0
N2204 N 0.93897 0.74724 0.80147 0.0
N2205 N 1.00391 0.67883 0.73209 0.0
C2206 C 0.9523 0.72577 0.7872 0.0
C2207 C 0.98531 0.69068 0.75128 0.0
N2208 N 0.99076 0.72573 0.83428 0.0
N2209 N 0.93924 0.67865 0.71023 0.0
H2210 H 1.02701 0.67672 0.74049 0.0
H2211 H 0.99767 0.67385 0.70733 0.0
H2212 H 0.91661 0.68084 0.70008 0.0
H2213 H 0.94861 0.66281 0.69755 0.0
H2214 H 0.97726 0.73519 0.84937 0.0
H2215 H 1.01117 0.7205 0.84672 0.0
H2216 H 0.95031 0.76116 0.82167 0.0
H2217 H 0.91795 0.75321 0.79122 0.0
C2218 C 0.94124 0.62336 1.01579 0.0
C2219 C 0.93968 0.6464 0.04037 0.0
C2220 C 0.99149 0.63288 0.06726 0.0
C2221 C 0.99489 0.61204 0.04099 0.0
N2222 N 0.97297 0.59513 0.98588 0.0
N2223 N 0.96914 0.67534 0.08749 0.0
C2224 C 0.96949 0.60938 1.0143 0.0
C2225 C 0.96675 0.65179 0.06518 0.0
N2226 N 0.9154 0.61453 0.99298 0.0
N2227 N 1.01073 0.63351 0.09582 0.0
H2228 H 0.95168 0.68845 0.08777 0.0
H2229 H 0.98948 0.68339 0.10379 0.0
H2230 H 1.02679 0.6191 0.09977 0.0
H2231 H 1.00802 0.64548 0.11682 0.0
H2232 H 0.91264 0.59559 0.97697 0.0
H2233 H 0.89565 0.6248 0.99175 0.0
H2234 H 0.95769 0.59501 0.96456 0.0
H2235 H 0.99312 0.58664 0.98243 0.0
C2236 C 0.27584 0.22837 0.89138 0.0
C2237 C 0.25913 0.20301 0.87139 0.0
C2238 C 0.28119 0.22374 0.82465 0.0
C2239 C 0.29535 0.2507 0.84364 0.0
N2240 N 0.30242 0.28037 0.89466 0.0
N2241 N 0.23982 0.1797 0.81782 0.0
C2242 C 0.29186 0.25348 0.87701 0.0
C2243 C 0.25995 0.20169 0.83766 0.0
N2244 N 0.27679 0.22827 0.92408 0.0
N2245 N 0.28929 0.21838 0.79471 0.0
H2246 H 0.22336 0.16342 0.82632 0.0
H2247 H 0.23718 0.17953 0.79274 0.0
H2248 H 0.30647 0.23296 0.78505 0.0
H2249 H 0.28182 0.19787 0.78111 0.0
H2250 H 0.29145 0.24456 0.94031 0.0
H2251 H 0.2644 0.21064 0.9351 0.0
H2252 H 0.29713 0.28471 0.91777 0.0
H2253 H 0.31438 0.2993 0.88545 0.0
C2254 C 0.54943 0.04766 0.31201 0.0
C2255 C 0.56205 0.06246 0.34284 0.0
C2256 C 0.53902 1.01722 0.36766 0.0
C2257 C 0.52066 1.00599 0.33772 0.0
N2258 N 0.50735 1.01125 0.28086 0.0
N2259 N 0.56689 0.06108 0.40106 0.0
C2260 C 0.52583 1.0212 0.3096 0.0
C2261 C 0.55691 0.04701 0.371 0.0
N2262 N 0.56032 0.05885 0.28508 0.0
N2263 N 0.53986 0.99924 0.39283 0.0
H2264 H 0.58026 0.08261 0.40557 0.0
H2265 H 0.55977 0.05192 0.42176 0.0
H2266 H 0.52688 0.97738 0.39134 0.0
H2267 H 0.55624 1.00481 0.41362 0.0
H2268 H 0.55396 0.04775 0.26217 0.0
H2269 H 0.57847 0.07756 0.28635 0.0
H2270 H 0.50783 1.02337 0.2604 0.0
H2271 H 0.48972 0.99205 0.27811 0.0
C2272 C 0.65076 0.49225 0.66973 0.0
C2273 C 0.6357 0.46232 0.66053 0.0
C2274 C 0.60563 0.47834 0.61306 0.0
C2275 C 0.61877 0.50862 0.62367 0.0
N2276 N 0.64938 0.54475 0.66571 0.0
N2277 N 0.59434 0.42693 0.62732 0.0
C2278 C 0.64004 0.51569 0.65306 0.0
C2279 C 0.61179 0.45534 0.63333 0.0
N2280 N 0.67617 0.49826 0.69356 0.0
N2281 N 0.58866 0.47136 0.58298 0.0
H2282 H 0.59807 0.40935 0.64151 0.0
H2283 H 0.57432 0.42144 0.61005 0.0
H2284 H 0.58407 0.48754 0.56708 0.0
H2285 H 0.58161 0.44943 0.57259 0.0
H2286 H 0.69065 0.51936 0.69846 0.0
H2287 H 0.68451 0.4816 0.70667 0.0
H2288 H 0.6614 0.55072 0.68892 0.0
H2289 H 0.64321 0.56292 0.65396 0.0
C2290 C 0.42048 0.73417 0.35661 0.0
C2291 C 0.43663 0.75102 0.38533 0.0
C2292 C 0.4197 0.79655 0.36518 0.0
C2293 C 0.40495 0.78027 0.33564 0.0
N2294 N 0.39455 0.73436 0.30148 0.0
N2295 N 0.4531 0.79972 0.41563 0.0
C2296 C 0.40616 0.7492 0.33095 0.0
C2297 C 0.43626 0.78239 0.38935 0.0
N2298 N 0.41766 0.70357 0.35453 0.0
N2299 N 0.41695 0.82571 0.3713 0.0
H2300 H 0.46151 0.79151 0.4369 0.0
H2301 H 0.45978 0.82301 0.41613 0.0
H2302 H 0.4112 0.83934 0.35345 0.0
H2303 H 0.41956 0.83628 0.39442 0.0
H2304 H 0.4038 0.68941 0.33579 0.0
H2305 H 0.42703 0.69198 0.3732 0.0
H2306 H 0.39721 0.71256 0.29508 0.0
H2307 H 0.38444 0.74486 0.28226 0.0
C2308 C 0.13262 0.80235 0.13993 0.0
C2309 C 0.16338 0.81829 0.15218 0.0
C2310 C 0.18414 0.77174 0.15245 0.0
C2311 C 0.15333 0.75547 0.14091 0.0
N2312 N 0.09741 0.75422 0.1267 0.0
N2313 N 0.21828 0.81873 0.17159 0.0
C2314 C 0.12725 0.77047 0.13572 0.0
C2315 C 0.18897 0.80314 0.15897 0.0
N2316 N 0.10906 0.81786 0.13056 0.0
N2317 N 0.20955 0.75788 0.15774 0.0
H2318 H 0.22294 0.84192 0.17738 0.0
H2319 H 0.2377 0.80823 0.17684 0.0
H2320 H 0.20847 0.73471 0.15445 0.0
H2321 H 0.20847 0.73471 0.15445 0.0
H2322 H 0.08711 0.80799 0.11803 0.0
H2323 H 0.11203 0.84123 0.13346 0.0
H2324 H 0.077 0.76327 0.12665 0.0
H2325 H 0.09268 0.73108 0.12082 0.0
C2326 C 0.16684 0.23603 0.88734 0.0
C2327 C 0.13493 0.22227 0.87818 0.0
C2328 C 0.14215 0.22097 0.82145 0.0
C2329 C 0.17103 0.2415 0.83027 0.0
N2330 N 0.21441 0.26423 0.87091 0.0
N2331 N 0.09984 0.18636 0.84005 0.0
C2332 C 0.18493 0.24701 0.86311 0.0
C2333 C 0.12501 0.20955 0.84623 0.0
N2334 N 0.17936 0.23817 0.9191 0.0
N2335 N 0.13034 0.21397 0.78965 0.0
H2336 H 0.08897 0.17646 0.8587 0.0
H2337 H 0.09237 0.1748 0.81751 0.0
H2338 H 0.14289 0.22147 0.77108 0.0
H2339 H 0.10776 0.2018 0.78168 0.0
H2340 H 0.20303 0.2464 0.92777 0.0
H2341 H 0.1661 0.22867 0.93633 0.0
H2342 H 0.22466 0.27178 0.89438 0.0
H2343 H 0.22856 0.27156 0.8535 0.0
C2344 C 0.6159 0.71809 0.99256 0.0
C2345 C 0.59241 0.72618 0.96845 0.0
C2346 C 0.56508 0.67019 0.96937 0.0
C2347 C 0.58728 0.66269 0.99532 0.0
N2348 N 0.63477 0.68348 0.03124 0.0
N2349 N 0.54177 0.70734 0.93746 0.0
C2350 C 0.61277 0.68802 1.00654 0.0
C2351 C 0.56645 0.70121 0.95802 0.0
N2352 N 0.64235 0.73944 1.00196 0.0
N2353 N 0.54197 0.64731 0.95492 0.0
H2354 H 0.54234 0.72813 0.92767 0.0
H2355 H 0.52018 0.69273 0.9316 0.0
H2356 H 0.53879 0.62582 0.96321 0.0
H2357 H 0.52739 0.64893 0.93359 0.0
H2358 H 0.66241 0.7357 0.01638 0.0
H2359 H 0.64514 0.76069 0.99297 0.0
H2360 H 0.6515 0.70055 0.04425 0.0
H2361 H 0.63552 0.66237 0.03978 0.0
C2362 C 0.18358 0.81587 0.73219 0.0
C2363 C 0.18083 0.83523 0.70617 0.0
C2364 C 0.24066 0.84861 0.71665 0.0
C2365 C 0.24346 0.83205 0.74495 0.0
N2366 N 0.21384 0.80383 0.78184 0.0
N2367 N 0.20913 0.87628 0.68105 0.0
C2368 C 0.21376 0.81677 0.75316 0.0
C2369 C 0.21015 0.85334 0.70084 0.0
N2370 N 0.15762 0.79539 0.73633 0.0
N2371 N 0.2671 0.85838 0.7029 0.0
H2372 H 0.18796 0.88164 0.6704 0.0
H2373 H 0.22902 0.89216 0.67852 0.0
H2374 H 0.28915 0.85352 0.71127 0.0
H2375 H 0.26633 0.86778 0.68068 0.0
H2376 H 0.15843 0.77822 0.75188 0.0
H2377 H 0.13579 0.79407 0.72218 0.0
H2378 H 0.19328 0.79502 0.79106 0.0
H2379 H 0.2344 0.80468 0.79797 0.0
C2380 C 0.112 0.42396 0.50057 0.0
C2381 C 0.10474 0.41435 0.46629 0.0
C2382 C 0.09734 0.46993 0.46097 0.0
C2383 C 0.10286 0.47936 0.49525 0.0
N2384 N 0.12021 0.46188 0.5468 0.0
N2385 N 0.08205 0.43074 0.41626 0.0
C2386 C 0.11127 0.45509 0.51446 0.0
C2387 C 0.09534 0.43833 0.44755 0.0
N2388 N 0.11892 0.40271 0.52092 0.0
N2389 N 0.09636 0.4919 0.43995 0.0
H2390 H 0.07886 0.40902 0.40552 0.0
H2391 H 0.07068 0.44498 0.40215 0.0
H2392 H 0.09983 0.51463 0.44747 0.0
H2393 H 0.09646 0.48816 0.41525 0.0
H2394 H 0.11884 0.40466 0.54572 0.0
H2395 H 0.12338 0.38202 0.51287 0.0
H2396 H 0.1317 0.44864 0.56206 0.0
H2397 H 0.11787 0.48181 0.55865 0.0
C2398 C 0.4908 0.33127 0.24493 0.0
C2399 C 0.48872 0.3212 0.21111 0.0
C2400 C 0.42866 0.31235 0.21306 0.0
C2401 C 0.43089 0.31921 0.24765 0.0
N2402 N 0.46859 0.32915 0.296 0.0
N2403 N 0.45175 0.29553 0.16642 0.0
C2404 C 0.46332 0.327 0.26312 0.0
C2405 C 0.45646 0.31003 0.19643 0.0
N2406 N 0.51913 0.34679 0.2601 0.0
N2407 N 0.39974 0.30945 0.19486 0.0
H2408 H 0.4703 0.29252 0.15388 0.0
H2409 H 0.42985 0.28358 0.15561 0.0
H2410 H 0.37942 0.312 0.20455 0.0
H2411 H 0.39657 0.3081 0.16973 0.0
H2412 H 0.52194 0.35773 0.28304 0.0
H2413 H 0.53896 0.35185 0.24846 0.0
H2414 H 0.49099 0.33117 0.30919 0.0
H2415 H 0.45034 0.32542 0.31001 0.0
C2416 C 0.65426 0.56092 0.44655 0.0
C2417 C 0.68622 0.57461 0.45851 0.0
C2418 C 0.67763 0.55508 0.51032 0.0
C2419 C 0.6446 0.55147 0.50135 0.0
N2420 N 0.60081 0.54854 0.45918 0.0
N2421 N 0.72766 0.58557 0.50411 0.0
C2422 C 0.63259 0.55299 0.46874 0.0
C2423 C 0.69815 0.57122 0.49087 0.0
N2424 N 0.64484 0.55472 0.41423 0.0
N2425 N 0.68893 0.54517 0.53883 0.0
H2426 H 0.74347 0.59801 0.49097 0.0
H2427 H 0.73494 0.58755 0.52893 0.0
H2428 H 0.67377 0.53346 0.55325 0.0
H2429 H 0.71286 0.54599 0.54602 0.0
H2430 H 0.62243 0.543 0.40461 0.0
H2431 H 0.66066 0.55778 0.39752 0.0
H2432 H 0.59093 0.55327 0.43643 0.0
H2433 H 0.58446 0.54104 0.47449 0.0
C2434 C 0.39916 0.88632 0.16221 0.0
C2435 C 0.37177 0.88338 0.13872 0.0
C2436 C 0.33897 0.86507 0.1804 0.0
C2437 C 0.36654 0.8649 0.20292 0.0
N2438 N 0.42327 0.87295 0.21399 0.0
N2439 N 0.31571 0.86632 0.12461 0.0
C2440 C 0.39675 0.87514 0.19351 0.0
C2441 C 0.3417 0.87197 0.14771 0.0
N2442 N 0.42753 0.90048 0.15478 0.0
N2443 N 0.30995 0.85963 0.19049 0.0
H2444 H 0.31657 0.8713 0.10068 0.0
H2445 H 0.29378 0.85465 0.1285 0.0
H2446 H 0.30677 0.85419 0.2138 0.0
H2447 H 0.28936 0.86313 0.17673 0.0
H2448 H 0.44787 0.9064 0.17154 0.0
H2449 H 0.43014 0.90863 0.13226 0.0
H2450 H 0.4459 0.87674 0.20753 0.0
H2451 H 0.42249 0.86505 0.23687 0.0
C2452 C 0.05493 0.6632 0.9386 0.0
C2453 C 0.07842 0.66778 0.9179 0.0
C2454 C 0.11311 0.64329 0.95429 0.0
C2455 C 0.08839 0.63559 0.97296 0.0
N2456 N 0.04282 0.65013 0.99151 0.0
N2457 N 0.13503 0.67899 0.91852 0.0
C2458 C 0.06126 0.64913 0.9677 0.0
C2459 C 0.10931 0.66321 0.9296 0.0
N2460 N 1.02706 0.67286 0.9309 0.0
N2461 N 0.13956 0.6308 0.95898 0.0
H2462 H 0.1333 0.69659 0.90367 0.0
H2463 H 0.15813 0.67763 0.92784 0.0
H2464 H 0.14336 0.61629 0.97701 0.0
H2465 H 0.15662 0.6334 0.94346 0.0
H2466 H 1.00731 0.66635 0.94235 0.0
H2467 H 1.02394 0.68768 0.913 0.0
H2468 H 1.02349 0.66093 0.99026 0.0
H2469 H 0.0499 0.64371 1.01435 0.0
C2470 C 0.3787 0.26466 0.65347 0.0
C2471 C 0.35358 0.24199 0.63676 0.0
C2472 C 0.32326 0.25184 0.68351 0.0
C2473 C 0.34863 0.27415 0.70064 0.0
N2474 N 0.40287 0.29807 0.70164 0.0
N2475 N 0.30306 0.21188 0.64001 0.0
C2476 C 0.37702 0.27909 0.6855 0.0
C2477 C 0.32629 0.23526 0.65322 0.0
N2478 N 0.40404 0.27369 0.63785 0.0
N2479 N 0.29558 0.24627 0.69624 0.0
H2480 H 0.30447 0.19964 0.61868 0.0
H2481 H 0.28386 0.20283 0.65115 0.0
H2482 H 0.29317 0.25504 0.71906 0.0
H2483 H 0.27453 0.23401 0.6839 0.0
H2484 H 0.42157 0.2924 0.64552 0.0
H2485 H 0.40657 0.26311 0.61589 0.0
H2486 H 0.42533 0.30039 0.69487 0.0
H2487 H 0.40228 0.3104 0.72313 0.0
C2488 C 0.66429 0.64192 0.29262 0.0
C2489 C 0.6541 0.62533 0.31817 0.0
C2490 C 0.60302 0.60562 0.2858 0.0
C2491 C 0.61451 0.61954 0.25923 0.0
N2492 N 0.65845 0.64558 0.23507 0.0
N2493 N 0.61654 0.58673 0.33757 0.0
C2494 C 0.64582 0.63628 0.26193 0.0
C2495 C 0.62416 0.6059 0.31444 0.0
N2496 N 0.69095 0.66369 0.29786 0.0
N2497 N 0.5719 0.59249 0.28374 0.0
H2498 H 0.63184 0.58551 0.35856 0.0
H2499 H 0.59639 0.56998 0.33456 0.0
H2500 H 0.55582 0.59184 0.26283 0.0
H2501 H 0.56151 0.58466 0.30349 0.0
H2502 H 0.69745 0.67866 0.28078 0.0
H2503 H 0.70495 0.66875 0.32029 0.0
H2504 H 0.68221 0.655 0.23557 0.0
H2505 H 0.64616 0.64136 0.21177 0.0
C2506 C 0.36994 0.86891 0.94801 0.0
C2507 C 0.34899 0.88715 0.9585 0.0
C2508 C 0.32023 0.88046 0.90232 0.0
C2509 C 0.33956 0.86025 0.89268 0.0
N2510 N 0.38031 0.83191 0.90862 0.0
N2511 N 0.29951 0.9042 0.94618 0.0
C2512 C 0.36343 0.85333 0.91635 0.0
C2513 C 0.32292 0.89132 0.93569 0.0
N2514 N 0.39741 0.86796 0.96748 0.0
N2515 N 0.29916 0.88953 0.87953 0.0
H2516 H 0.29948 0.91091 0.97032 0.0
H2517 H 0.27844 0.90521 0.93166 0.0
H2518 H 0.29506 0.88083 0.85553 0.0
H2519 H 0.28732 0.90708 0.88396 0.0
H2520 H 0.41556 0.85825 0.96004 0.0
H2521 H 0.40353 0.87962 0.99004 0.0
H2522 H 0.39537 0.82325 0.92555 0.0
H2523 H 0.37746 0.82098 0.8857 0.0
C2524 C 0.11683 0.67472 0.73585 0.0
C2525 C 0.13473 0.67842 0.76678 0.0
C2526 C 0.18073 0.66767 0.74363 0.0
C2527 C 0.16011 0.65525 0.7154 0.0
N2528 N 0.10945 0.65052 0.68196 0.0
N2529 N 0.18697 0.69737 0.79476 0.0
C2530 C 0.12864 0.6607 0.71025 0.0
C2531 C 0.16799 0.68108 0.76905 0.0
N2532 N 0.0896 0.68588 0.73095 0.0
N2533 N 0.2118 0.66508 0.74661 0.0
H2534 H 0.17771 0.70951 0.81185 0.0
H2535 H 0.21153 0.70172 0.7971 0.0
H2536 H 0.22164 0.65642 0.72756 0.0
H2537 H 0.22745 0.67071 0.76791 0.0
H2538 H 0.0765 0.68588 0.70831 0.0
H2539 H 0.08272 0.69878 0.74918 0.0
H2540 H 0.08533 0.65078 0.67841 0.0
H2541 H 0.11737 0.64054 0.6624 0.0
C2542 C 0.36381 0.26974 0.44885 0.0
C2543 C 0.35492 0.23734 0.44943 0.0
C2544 C 0.34888 0.23834 0.38762 0.0
C2545 C 0.35352 0.27082 0.38699 0.0
N2546 N 0.35833 0.3158 0.42208 0.0
N2547 N 0.33122 0.19295 0.41466 0.0
C2548 C 0.35903 0.28581 0.41913 0.0
C2549 C 0.34535 0.22252 0.41739 0.0
N2550 N 0.37858 0.28592 0.47663 0.0
N2551 N 0.34948 0.22177 0.35974 0.0
H2552 H 0.3266 0.18087 0.43454 0.0
H2553 H 0.32061 0.18153 0.39269 0.0
H2554 H 0.35423 0.23159 0.33862 0.0
H2555 H 0.34958 0.19876 0.35875 0.0
H2556 H 0.38869 0.30864 0.4774 0.0
H2557 H 0.38426 0.27607 0.49795 0.0
H2558 H 0.35838 0.32744 0.44418 0.0
H2559 H 0.35399 0.32827 0.40237 0.0
C2560 C 0.41009 0.68758 0.51663 0.0
C2561 C 0.38987 0.68985 0.54029 0.0
C2562 C 0.40601 0.64561 0.5646 0.0
C2563 C 0.42798 0.64456 0.54236 0.0
N2564 N 0.45669 0.67047 0.50314 0.0
N2565 N 0.37537 0.67614 0.59188 0.0
C2566 C 0.43176 0.66736 0.52017 0.0
C2567 C 0.3901 0.67049 0.56594 0.0
N2568 N 0.40757 0.7033 0.48974 0.0
N2569 N 0.3989 0.62212 0.58325 0.0
H2570 H 0.36435 0.69469 0.59405 0.0
H2571 H 0.37709 0.66445 0.61263 0.0
H2572 H 0.40868 0.60276 0.58193 0.0
H2573 H 0.38087 0.62048 0.59759 0.0
H2574 H 0.41891 0.69938 0.46992 0.0
H2575 H 0.39213 0.71833 0.48585 0.0
H2576 H 0.46241 0.68847 0.48911 0.0
H2577 H 0.47357 0.65689 0.50592 0.0
C2578 C 0.94053 0.98495 0.51645 0.0
C2579 C 0.92037 0.98994 0.54009 0.0
C2580 C 0.96358 0.0347 0.56152 0.0
C2581 C 0.9855 0.02693 0.54073 0.0
N2582 N 0.99383 0.98813 0.50288 0.0
N2583 N 0.91682 1.01926 0.58834 0.0
C2584 C 0.97342 1.00039 0.51933 0.0
C2585 C 0.93314 1.01487 0.56337 0.0
N2586 N 0.92794 0.96569 0.49002 0.0
N2587 N 0.97098 0.06194 0.57881 0.0
H2588 H 0.89498 1.00604 0.59019 0.0
H2589 H 0.92601 0.03434 0.60828 0.0
H2590 H 0.99143 0.07741 0.5772 0.0
H2591 H 0.95528 0.07055 0.59185 0.0
H2592 H 0.93978 0.96329 0.47022 0.0
H2593 H 0.90432 0.95493 0.48617 0.0
H2594 H 0.98754 0.96733 0.48968 0.0
H2595 H 1.01795 0.99665 0.50558 0.0
C2596 C 0.83287 0.10055 0.19889 0.0
C2597 C 0.86595 0.1092 0.19935 0.0
C2598 C 0.86453 0.15956 0.2219 0.0
C2599 C 0.83272 0.14952 0.22688 0.0
N2600 N 0.78495 0.11235 0.21703 0.0
N2601 N 0.90843 0.14962 0.1952 0.0
C2602 C 0.81613 0.12069 0.2138 0.0
C2603 C 0.87998 0.13984 0.20524 0.0
N2604 N 0.81767 0.07367 0.18348 0.0
N2605 N 0.88085 0.18684 0.23549 0.0
H2606 H 0.91933 0.13505 0.18234 0.0
H2607 H 0.91917 0.17218 0.19638 0.0
H2608 H 0.87073 0.2018 0.24865 0.0
H2609 H 0.90504 0.19381 0.23571 0.0
H2610 H 0.79345 0.06592 0.18134 0.0
H2611 H 0.82908 0.06052 0.16954 0.0
H2612 H 0.77182 0.09085 0.21081 0.0
H2613 H 0.77218 0.12715 0.22684 0.0
C2614 C 0.72018 0.17729 0.06133 0.0
C2615 C 0.73036 0.18476 0.03149 0.0
C2616 C 0.69513 0.13849 1.00533 0.0
C2617 C 0.68172 0.13331 0.03428 0.0
N2618 N 0.67824 0.1524 0.08837 0.0
N2619 N 0.7258 0.17366 0.97417 0.0
C2620 C 0.69366 0.15376 0.062 0.0
C2621 C 0.71735 0.16562 1.00322 0.0
N2622 N 0.7359 0.19268 0.0893 0.0
N2623 N 0.68756 0.11689 0.98021 0.0
H2624 H 0.74259 0.1927 0.97207 0.0
H2625 H 0.7147 0.16275 0.95214 0.0
H2626 H 0.67267 0.09637 0.98153 0.0
H2627 H 0.69842 0.11791 0.95945 0.0
H2628 H 0.73206 0.18599 0.11211 0.0
H2629 H 0.75485 0.21052 0.08981 0.0
H2630 H 0.68376 0.16856 0.1078 0.0
H2631 H 0.65775 0.13698 0.08939 0.0
C2632 C 0.21307 0.45696 0.26462 0.0
C2633 C 0.21564 0.48146 0.2449 0.0
C2634 C 0.27356 0.48582 0.25437 0.0
C2635 C 0.27023 0.46581 0.27926 0.0
N2636 N 0.23621 0.43651 0.31191 0.0
N2637 N 0.24918 0.51642 0.21647 0.0
C2638 C 0.23973 0.45284 0.28565 0.0
C2639 C 0.24616 0.49513 0.23832 0.0
N2640 N 0.18533 0.43684 0.26226 0.0
N2641 N 0.30256 0.4946 0.24493 0.0
H2642 H 0.23075 0.51887 0.19892 0.0
H2643 H 0.27036 0.53088 0.21498 0.0
H2644 H 0.32305 0.48857 0.25641 0.0
H2645 H 0.30613 0.50627 0.22455 0.0
H2646 H 0.18295 0.41731 0.27459 0.0
H2647 H 0.16619 0.43779 0.24473 0.0
H2648 H 0.21421 0.42854 0.31881 0.0
H2649 H 0.25536 0.43369 0.32852 0.0
C2650 C 0.19476 0.47303 0.03577 0.0
C2651 C 0.22703 0.48896 0.03709 0.0
C2652 C 0.20139 0.53629 0.03868 0.0
C2653 C 0.16906 0.52022 0.03421 0.0
N2654 N 0.13781 0.47066 0.02066 0.0
N2655 N 0.25647 0.53825 0.03038 0.0
C2656 C 0.16687 0.48794 0.03026 0.0
C2657 C 0.22881 0.52126 0.03619 0.0
N2658 N 0.1901 0.44332 0.04153 0.0
N2659 N 0.20652 0.56677 0.04465 0.0
H2660 H 0.27588 0.52911 0.02566 0.0
H2661 H 0.25886 0.56089 0.02589 0.0
H2662 H 0.18832 0.57905 0.04328 0.0
H2663 H 0.22879 0.57959 0.05281 0.0
H2664 H 0.1682 0.43105 0.04471 0.0
H2665 H 0.20857 0.43181 0.04705 0.0
H2666 H 0.1346 0.4478 1.01385 0.0
H2667 H 0.11731 0.47964 0.01648 0.0
C2668 C 0.86505 0.95054 0.24999 0.0
C2669 C 0.89559 0.95551 0.24046 0.0
C2670 C 0.89532 0.90126 0.2399 0.0
C2671 C 0.86842 0.89761 0.25627 0.0
N2672 N 0.82955 0.92017 0.28036 0.0
N2673 N 0.9396 0.93551 0.22455 0.0
C2674 C 0.85337 0.92247 0.26175 0.0
C2675 C 0.91057 0.93074 0.23466 0.0
N2676 N 0.84727 0.97259 0.24833 0.0
N2677 N 0.90563 0.87649 0.22855 0.0
H2678 H 0.95016 0.95641 0.21791 0.0
H2679 H 0.95362 0.91912 0.22392 0.0
H2680 H 0.89388 0.8547 0.23075 0.0
H2681 H 0.92357 0.87744 0.21418 0.0
H2682 H 0.82368 0.96895 0.25208 0.0
H2683 H 0.85485 0.99355 0.24005 0.0
H2684 H 0.82053 0.93864 0.28831 0.0
H2685 H 0.8208 0.90052 0.29062 0.0
C2686 C 0.67431 0.10792 0.70378 0.0
C2687 C 0.65826 0.09852 0.7298 0.0
C2688 C 0.67106 0.15037 0.75395 0.0
C2689 C 0.6945 0.1567 0.7334 0.0
N2690 N 0.71857 0.14109 0.68787 0.0
N2691 N 0.63573 0.11239 0.77706 0.0
C2692 C 0.69563 0.13575 0.7074 0.0
C2693 C 0.65415 0.12037 0.75371 0.0
N2694 N 0.66975 0.08954 0.67612 0.0
N2695 N 0.66519 0.17312 0.7736 0.0
H2696 H 0.6206 0.09178 0.77629 0.0
H2697 H 0.63567 0.1262 0.79765 0.0
H2698 H 0.67717 0.19526 0.77377 0.0
H2699 H 0.64667 0.17078 0.78729 0.0
H2700 H 0.67892 0.09601 0.65524 0.0
H2701 H 0.65383 0.06909 0.67335 0.0
H2702 H 0.72229 0.12497 0.6709 0.0
H2703 H 0.73555 0.1607 0.69011 0.0
loop_
_geom_bond_atom_site_label_1
_geom_bond_atom_site_label_2
_geom_bond_distance
_geom_bond_site_symmetry_2
_ccdc_geom_bond_type
Co0 O1 2.216 . S
Co0 O2 2.091 . S
Co0 O4 2.004 . S
Co0 O10 2.021 . S
Co0 O12 2.137 . S
Co0 O13 2.244 . S
O1 Co0 2.216 . S
O1 C8 1.247 . S
O2 Co0 2.091 . S
O2 C8 1.261 . S
C3 O12 1.247 . S
C3 O13 1.272 . S
O4 Co0 2.004 . S
O4 C9 1.259 1_455 S
Co5 O6 2.061 1_455 S
Co5 O11 2.052 . S
Co5 O13 2.135 . S
O6 Co5 2.061 1_655 S
O6 C9 1.235 . S
C7 O10 1.238 . S
C7 O11 1.241 . S
C8 O1 1.247 . S
C8 O2 1.261 . S
C9 O4 1.259 1_655 S
C9 O6 1.235 . S
O10 Co0 2.021 . S
O10 C7 1.238 . S
O11 Co5 2.052 . S
O11 C7 1.241 . S
O12 Co0 2.137 . S
O12 C3 1.247 . S
O13 Co0 2.244 . S
O13 C3 1.272 . S
O13 Co5 2.135 . S
Co14 O15 2.216 1_455 S
Co14 O16 2.091 . S
Co14 O18 2.004 . S
Co14 O24 2.021 . S
Co14 O26 2.137 . S
Co14 O27 2.244 . S
O15 Co14 2.216 1_655 S
O15 C22 1.247 . S
O16 Co14 2.091 . S
O16 C22 1.261 1_455 S
C17 O26 1.247 . S
C17 O27 1.272 . S
O18 Co14 2.004 . S
O18 C23 1.259 . S
Co19 O20 2.061 . S
Co19 O25 2.052 . S
Co19 O27 2.135 . S
O20 Co19 2.061 . S
O20 C23 1.235 . S
C21 O24 1.238 . S
C21 O25 1.241 . S
C22 O15 1.247 . S
C22 O16 1.261 1_655 S
C23 O18 1.259 . S
C23 O20 1.235 . S
O24 Co14 2.021 . S
O24 C21 1.238 . S
O25 Co19 2.052 . S
O25 C21 1.241 . S
O26 Co14 2.137 . S
O26 C17 1.247 . S
O27 Co14 2.244 . S
O27 C17 1.272 . S
O27 Co19 2.135 . S
Co28 O29 2.216 . S
Co28 O30 2.091 . S
Co28 O32 2.004 . S
Co28 O38 2.021 . S
Co28 O40 2.137 . S
Co28 O41 2.244 . S
O29 Co28 2.216 . S
O29 C36 1.247 . S
O30 Co28 2.091 . S
O30 C36 1.261 . S
C31 O40 1.247 . S
C31 O41 1.272 . S
O32 Co28 2.004 . S
O32 C37 1.259 . S
Co33 O34 2.061 . S
Co33 O39 2.052 . S
Co33 O41 2.135 . S
O34 Co33 2.061 . S
O34 C37 1.235 . S
C35 O38 1.238 . S
C35 O39 1.241 . S
C36 O29 1.247 . S
C36 O30 1.261 . S
C37 O32 1.259 . S
C37 O34 1.235 . S
O38 Co28 2.021 . S
O38 C35 1.238 . S
O39 Co33 2.052 . S
O39 C35 1.241 . S
O40 Co28 2.137 . S
O40 C31 1.247 . S
O41 Co28 2.244 . S
O41 C31 1.272 . S
O41 Co33 2.135 . S
Co42 O43 2.216 . S
Co42 O44 2.091 . S
Co42 O46 2.004 . S
Co42 O52 2.021 . S
Co42 O54 2.137 . S
Co42 O55 2.244 . S
O43 Co42 2.216 . S
O43 C50 1.247 . S
O44 Co42 2.091 . S
O44 C50 1.261 . S
C45 O54 1.247 . S
C45 O55 1.272 . S
O46 Co42 2.004 . S
O46 C51 1.259 . S
Co47 O48 2.061 . S
Co47 O53 2.052 . S
Co47 O55 2.135 . S
O48 Co47 2.061 . S
O48 C51 1.235 . S
C49 O52 1.238 . S
C49 O53 1.241 . S
C50 O43 1.247 . S
C50 O44 1.261 . S
C51 O46 1.259 . S
C51 O48 1.235 . S
O52 Co42 2.021 . S
O52 C49 1.238 . S
O53 Co47 2.052 . S
O53 C49 1.241 . S
O54 Co42 2.137 . S
O54 C45 1.247 . S
O55 Co42 2.244 . S
O55 C45 1.272 . S
O55 Co47 2.135 . S
Co56 O57 2.216 . S
Co56 O58 2.091 . S
Co56 O60 2.004 . S
Co56 O66 2.021 . S
Co56 O68 2.137 . S
Co56 O69 2.244 . S
O57 Co56 2.216 . S
O57 C64 1.247 . S
O58 Co56 2.091 . S
O58 C64 1.261 . S
C59 O68 1.247 . S
C59 O69 1.272 . S
O60 Co56 2.004 . S
O60 C65 1.259 . S
Co61 O62 2.061 . S
Co61 O67 2.052 . S
Co61 O69 2.135 . S
O62 Co61 2.061 . S
O62 C65 1.235 . S
C63 O66 1.238 . S
C63 O67 1.241 . S
C64 O57 1.247 . S
C64 O58 1.261 . S
C65 O60 1.259 . S
C65 O62 1.235 . S
O66 Co56 2.021 . S
O66 C63 1.238 . S
O67 Co61 2.052 . S
O67 C63 1.241 . S
O68 Co56 2.137 . S
O68 C59 1.247 . S
O69 Co56 2.244 . S
O69 C59 1.272 . S
O69 Co61 2.135 . S
Co70 O71 2.216 . S
Co70 O72 2.091 . S
Co70 O74 2.004 . S
Co70 O80 2.021 . S
Co70 O82 2.137 . S
Co70 O83 2.244 . S
O71 Co70 2.216 . S
O71 C78 1.247 . S
O72 Co70 2.091 . S
O72 C78 1.261 . S
C73 O82 1.247 . S
C73 O83 1.272 . S
O74 Co70 2.004 . S
O74 C79 1.259 . S
Co75 O76 2.061 . S
Co75 O81 2.052 . S
Co75 O83 2.135 . S
O76 Co75 2.061 . S
O76 C79 1.235 . S
C77 O80 1.238 . S
C77 O81 1.241 . S
C78 O71 1.247 . S
C78 O72 1.261 . S
C79 O74 1.259 . S
C79 O76 1.235 . S
O80 Co70 2.021 . S
O80 C77 1.238 . S
O81 Co75 2.052 . S
O81 C77 1.241 . S
O82 Co70 2.137 . S
O82 C73 1.247 . S
O83 Co70 2.244 . S
O83 C73 1.272 . S
O83 Co75 2.135 . S
Co84 O85 2.216 . S
Co84 O86 2.091 . S
Co84 O88 2.004 . S
Co84 O94 2.021 . S
Co84 O96 2.137 . S
Co84 O97 2.244 . S
O85 Co84 2.216 . S
O85 C92 1.247 . S
O86 Co84 2.091 . S
O86 C92 1.261 . S
C87 O96 1.247 . S
C87 O97 1.272 . S
O88 Co84 2.004 . S
O88 C93 1.259 . S
Co89 O90 2.061 . S
Co89 O95 2.052 . S
Co89 O97 2.135 . S
O90 Co89 2.061 . S
O90 C93 1.235 . S
C91 O94 1.238 . S
C91 O95 1.241 . S
C92 O85 1.247 . S
C92 O86 1.261 . S
C93 O88 1.259 . S
C93 O90 1.235 . S
O94 Co84 2.021 . S
O94 C91 1.238 . S
O95 Co89 2.052 . S
O95 C91 1.241 . S
O96 Co84 2.137 . S
O96 C87 1.247 . S
O97 Co84 2.244 . S
O97 C87 1.272 . S
O97 Co89 2.135 . S
Co98 O99 2.216 . S
Co98 O100 2.091 . S
Co98 O102 2.004 1_455 S
Co98 O108 2.022 1_455 S
Co98 O110 2.137 . S
Co98 O111 2.244 1_455 S
O99 Co98 2.216 . S
O99 C106 1.247 . S
O100 Co98 2.091 . S
O100 C106 1.261 . S
C101 O110 1.247 . S
C101 O111 1.272 1_455 S
O102 Co98 2.004 1_655 S
O102 C107 1.259 . S
Co103 O104 2.061 . S
Co103 O109 2.052 . S
Co103 O111 2.135 . S
O104 Co103 2.061 . S
O104 C107 1.235 . S
C105 O108 1.245 . S
C105 O109 1.241 . S
C106 O99 1.247 . S
C106 O100 1.261 . S
C107 O102 1.259 . S
C107 O104 1.235 . S
O108 Co98 2.022 1_655 S
O108 C105 1.245 . S
O109 Co103 2.052 . S
O109 C105 1.241 . S
O110 Co98 2.137 . S
O110 C101 1.247 . S
O111 Co98 2.244 1_655 S
O111 C101 1.272 1_655 S
O111 Co103 2.135 . S
Co112 O113 2.216 . S
Co112 O114 2.091 . S
Co112 O116 2.004 . S
Co112 O122 2.021 . S
Co112 O124 2.137 . S
Co112 O125 2.244 . S
O113 Co112 2.216 . S
O113 C120 1.247 . S
O114 Co112 2.091 . S
O114 C120 1.261 . S
C115 O124 1.247 . S
C115 O125 1.272 . S
O116 Co112 2.004 . S
O116 C121 1.259 . S
Co117 O118 2.061 . S
Co117 O123 2.052 . S
Co117 O125 2.135 . S
O118 Co117 2.061 . S
O118 C121 1.235 . S
C119 O122 1.238 . S
C119 O123 1.241 . S
C120 O113 1.247 . S
C120 O114 1.261 . S
C121 O116 1.259 . S
C121 O118 1.235 . S
O122 Co112 2.021 . S
O122 C119 1.238 . S
O123 Co117 2.052 . S
O123 C119 1.241 . S
O124 Co112 2.137 . S
O124 C115 1.247 . S
O125 Co112 2.244 . S
O125 C115 1.272 . S
O125 Co117 2.135 . S
Co126 O127 2.216 . S
Co126 O128 2.091 . S
Co126 O130 2.004 . S
Co126 O136 2.021 . S
Co126 O138 2.137 . S
Co126 O139 2.244 . S
O127 Co126 2.216 . S
O127 C134 1.247 . S
O128 Co126 2.091 . S
O128 C134 1.261 . S
C129 O138 1.247 . S
C129 O139 1.272 . S
O130 Co126 2.004 . S
O130 C135 1.259 . S
Co131 O132 2.061 . S
Co131 O137 2.052 . S
Co131 O139 2.135 . S
O132 Co131 2.061 . S
O132 C135 1.235 . S
C133 O136 1.238 . S
C133 O137 1.241 . S
C134 O127 1.247 . S
C134 O128 1.261 . S
C135 O130 1.259 . S
C135 O132 1.235 . S
O136 Co126 2.021 . S
O136 C133 1.238 . S
O137 Co131 2.052 . S
O137 C133 1.241 . S
O138 Co126 2.137 . S
O138 C129 1.247 . S
O139 Co126 2.244 . S
O139 C129 1.272 . S
O139 Co131 2.135 . S
Co140 O141 2.216 . S
Co140 O142 2.091 . S
Co140 O144 2.004 . S
Co140 O150 2.021 . S
Co140 O152 2.137 . S
Co140 O153 2.244 . S
O141 Co140 2.216 . S
O141 C148 1.247 . S
O142 Co140 2.091 . S
O142 C148 1.261 . S
C143 O152 1.247 . S
C143 O153 1.272 . S
O144 Co140 2.004 . S
O144 C149 1.259 . S
Co145 O146 2.061 . S
Co145 O151 2.052 . S
Co145 O153 2.135 . S
O146 Co145 2.061 . S
O146 C149 1.235 . S
C147 O150 1.238 . S
C147 O151 1.241 . S
C148 O141 1.247 . S
C148 O142 1.261 . S
C149 O144 1.259 . S
C149 O146 1.235 . S
O150 Co140 2.021 . S
O150 C147 1.238 . S
O151 Co145 2.052 . S
O151 C147 1.241 . S
O152 Co140 2.137 . S
O152 C143 1.247 . S
O153 Co140 2.244 . S
O153 C143 1.272 . S
O153 Co145 2.135 . S
Co154 O155 2.216 . S
Co154 O156 2.091 . S
Co154 O158 2.004 . S
Co154 O164 2.021 . S
Co154 O166 2.137 . S
Co154 O167 2.244 . S
O155 Co154 2.216 . S
O155 C162 1.247 . S
O156 Co154 2.091 . S
O156 C162 1.261 . S
C157 O166 1.247 . S
C157 O167 1.272 . S
O158 Co154 2.004 . S
O158 C163 1.259 . S
Co159 O160 2.061 . S
Co159 O165 2.052 . S
Co159 O167 2.135 . S
O160 Co159 2.061 . S
O160 C163 1.235 . S
C161 O164 1.238 . S
C161 O165 1.241 . S
C162 O155 1.247 . S
C162 O156 1.261 . S
C163 O158 1.259 . S
C163 O160 1.235 . S
O164 Co154 2.021 . S
O164 C161 1.238 . S
O165 Co159 2.052 . S
O165 C161 1.241 . S
O166 Co154 2.137 . S
O166 C157 1.247 . S
O167 Co154 2.244 . S
O167 C157 1.272 . S
O167 Co159 2.135 . S
Co168 O169 2.216 . S
Co168 O170 2.091 . S
Co168 O172 2.004 . S
Co168 O178 2.021 . S
Co168 O180 2.137 1_554 S
Co168 O181 2.244 . S
O169 Co168 2.216 . S
O169 C176 1.247 . S
O170 Co168 2.091 . S
O170 C176 1.261 . S
C171 O180 1.247 . S
C171 O181 1.272 1_556 S
O172 Co168 2.004 . S
O172 C177 1.259 . S
Co173 O174 2.061 . S
Co173 O179 2.052 . S
Co173 O181 2.135 . S
O174 Co173 2.061 . S
O174 C177 1.235 . S
C175 O178 1.238 . S
C175 O179 1.241 . S
C176 O169 1.247 . S
C176 O170 1.261 . S
C177 O172 1.259 . S
C177 O174 1.235 . S
O178 Co168 2.021 . S
O178 C175 1.238 . S
O179 Co173 2.052 . S
O179 C175 1.241 . S
O180 Co168 2.137 1_556 S
O180 C171 1.247 . S
O181 Co168 2.244 . S
O181 C171 1.272 1_554 S
O181 Co173 2.135 . S
Co182 O183 2.216 1_556 S
Co182 O184 2.091 1_556 S
Co182 O186 2.004 . S
Co182 O192 2.021 1_556 S
Co182 O194 2.137 . S
Co182 O195 2.244 . S
O183 Co182 2.216 1_554 S
O183 C190 1.247 . S
O184 Co182 2.091 1_554 S
O184 C190 1.261 . S
C185 O194 1.247 . S
C185 O195 1.272 . S
O186 Co182 2.004 . S
O186 C191 1.259 . S
Co187 O188 2.061 . S
Co187 O193 2.052 1_556 S
Co187 O195 2.135 . S
O188 Co187 2.061 . S
O188 C191 1.235 . S
C189 O192 1.238 . S
C189 O193 1.241 . S
C190 O183 1.247 . S
C190 O184 1.261 . S
C191 O186 1.259 . S
C191 O188 1.235 . S
O192 Co182 2.021 1_554 S
O192 C189 1.238 . S
O193 Co187 2.052 1_554 S
O193 C189 1.241 . S
O194 Co182 2.137 . S
O194 C185 1.247 . S
O195 Co182 2.244 . S
O195 C185 1.272 . S
O195 Co187 2.135 . S
Co196 O197 2.216 . S
Co196 O198 2.091 . S
Co196 O200 2.004 . S
Co196 O206 2.021 . S
Co196 O208 2.137 . S
Co196 O209 2.244 . S
O197 Co196 2.216 . S
O197 C204 1.247 . S
O198 Co196 2.091 . S
O198 C204 1.261 . S
C199 O208 1.247 . S
C199 O209 1.272 . S
O200 Co196 2.004 . S
O200 C205 1.259 . S
Co201 O202 2.061 . S
Co201 O207 2.052 . S
Co201 O209 2.135 . S
O202 Co201 2.061 . S
O202 C205 1.235 . S
C203 O206 1.238 . S
C203 O207 1.241 . S
C204 O197 1.247 . S
C204 O198 1.261 . S
C205 O200 1.259 . S
C205 O202 1.235 . S
O206 Co196 2.021 . S
O206 C203 1.238 . S
O207 Co201 2.052 . S
O207 C203 1.241 . S
O208 Co196 2.137 . S
O208 C199 1.247 . S
O209 Co196 2.244 . S
O209 C199 1.272 . S
O209 Co201 2.135 . S
Co210 O211 2.216 . S
Co210 O212 2.091 . S
Co210 O214 2.004 . S
Co210 O220 2.021 . S
Co210 O222 2.137 . S
Co210 O223 2.244 . S
O211 Co210 2.216 . S
O211 C218 1.247 . S
O212 Co210 2.091 . S
O212 C218 1.261 . S
C213 O222 1.247 . S
C213 O223 1.272 . S
O214 Co210 2.004 . S
O214 C219 1.259 . S
Co215 O216 2.061 . S
Co215 O221 2.052 . S
Co215 O223 2.135 . S
O216 Co215 2.061 . S
O216 C219 1.235 . S
C217 O220 1.238 . S
C217 O221 1.241 . S
C218 O211 1.247 . S
C218 O212 1.261 . S
C219 O214 1.259 . S
C219 O216 1.235 . S
O220 Co210 2.021 . S
O220 C217 1.238 . S
O221 Co215 2.052 . S
O221 C217 1.241 . S
O222 Co210 2.137 . S
O222 C213 1.247 . S
O223 Co210 2.244 . S
O223 C213 1.272 . S
O223 Co215 2.135 . S
Co224 O225 2.216 . S
Co224 O226 2.091 . S
Co224 O228 2.004 1_545 S
Co224 O234 2.021 . S
Co224 O236 2.137 . S
Co224 O237 2.244 1_545 S
O225 Co224 2.216 . S
O225 C232 1.247 . S
O226 Co224 2.091 . S
O226 C232 1.261 . S
C227 O236 1.247 . S
C227 O237 1.272 1_545 S
O228 Co224 2.004 1_565 S
O228 C233 1.259 . S
Co229 O230 2.061 . S
Co229 O235 2.052 . S
Co229 O237 2.135 . S
O230 Co229 2.061 . S
O230 C233 1.235 . S
C231 O234 1.238 1_565 S
C231 O235 1.241 . S
C232 O225 1.247 . S
C232 O226 1.261 . S
C233 O228 1.259 . S
C233 O230 1.235 . S
O234 Co224 2.021 . S
O234 C231 1.238 1_545 S
O235 Co229 2.052 . S
O235 C231 1.241 . S
O236 Co224 2.137 . S
O236 C227 1.247 . S
O237 Co224 2.244 1_565 S
O237 C227 1.272 1_565 S
O237 Co229 2.135 . S
Co238 O239 2.216 . S
Co238 O240 2.091 . S
Co238 O242 2.004 . S
Co238 O248 2.021 . S
Co238 O250 2.137 . S
Co238 O251 2.244 . S
O239 Co238 2.216 . S
O239 C246 1.247 . S
O240 Co238 2.091 . S
O240 C246 1.261 . S
C241 O250 1.247 . S
C241 O251 1.272 . S
O242 Co238 2.004 . S
O242 C247 1.259 . S
Co243 O244 2.061 . S
Co243 O249 2.052 . S
Co243 O251 2.135 . S
O244 Co243 2.061 . S
O244 C247 1.235 . S
C245 O248 1.238 . S
C245 O249 1.241 . S
C246 O239 1.247 . S
C246 O240 1.261 . S
C247 O242 1.259 . S
C247 O244 1.235 . S
O248 Co238 2.021 . S
O248 C245 1.238 . S
O249 Co243 2.052 . S
O249 C245 1.241 . S
O250 Co238 2.137 . S
O250 C241 1.247 . S
O251 Co238 2.244 . S
O251 C241 1.272 . S
O251 Co243 2.135 . S
Co252 O253 2.216 . S
Co252 O254 2.091 . S
Co252 O256 2.004 . S
Co252 O262 2.021 . S
Co252 O264 2.137 . S
Co252 O265 2.244 . S
O253 Co252 2.216 . S
O253 C260 1.247 . S
O254 Co252 2.091 . S
O254 C260 1.261 . S
C255 O264 1.247 . S
C255 O265 1.272 . S
O256 Co252 2.004 . S
O256 C261 1.259 . S
Co257 O258 2.061 . S
Co257 O263 2.052 . S
Co257 O265 2.135 . S
O258 Co257 2.061 . S
O258 C261 1.235 . S
C259 O262 1.238 . S
C259 O263 1.241 . S
C260 O253 1.247 . S
C260 O254 1.261 . S
C261 O256 1.259 . S
C261 O258 1.235 . S
O262 Co252 2.021 . S
O262 C259 1.238 . S
O263 Co257 2.052 . S
O263 C259 1.241 . S
O264 Co252 2.137 . S
O264 C255 1.247 . S
O265 Co252 2.244 . S
O265 C255 1.272 . S
O265 Co257 2.135 . S
Co266 O267 2.216 1_545 S
Co266 O268 2.091 1_545 S
Co266 O270 2.004 . S
Co266 O276 2.021 . S
Co266 O278 2.137 . S
Co266 O279 2.244 . S
O267 Co266 2.216 1_565 S
O267 C274 1.247 . S
O268 Co266 2.091 1_565 S
O268 C274 1.261 . S
C269 O278 1.247 . S
C269 O279 1.272 . S
O270 Co266 2.004 . S
O270 C275 1.259 . S
Co271 O272 2.061 . S
Co271 O277 2.052 . S
Co271 O279 2.135 . S
O272 Co271 2.061 . S
O272 C275 1.235 . S
C273 O276 1.238 . S
C273 O277 1.241 . S
C274 O267 1.247 . S
C274 O268 1.261 . S
C275 O270 1.259 . S
C275 O272 1.235 . S
O276 Co266 2.021 . S
O276 C273 1.238 . S
O277 Co271 2.052 . S
O277 C273 1.241 . S
O278 Co266 2.137 . S
O278 C269 1.247 . S
O279 Co266 2.244 . S
O279 C269 1.272 . S
O279 Co271 2.135 . S
Co280 O281 2.216 . S
Co280 O282 2.091 . S
Co280 O284 2.004 . S
Co280 O290 2.021 . S
Co280 O292 2.137 1_554 S
Co280 O293 2.244 1_554 S
O281 Co280 2.216 . S
O281 C288 1.247 . S
O282 Co280 2.091 . S
O282 C288 1.261 . S
C283 O292 1.247 . S
C283 O293 1.272 . S
O284 Co280 2.004 . S
O284 C289 1.259 . S
Co285 O286 2.061 . S
Co285 O291 2.052 . S
Co285 O293 2.135 1_554 S
O286 Co285 2.061 . S
O286 C289 1.235 . S
C287 O290 1.238 . S
C287 O291 1.241 . S
C288 O281 1.247 . S
C288 O282 1.261 . S
C289 O284 1.259 . S
C289 O286 1.235 . S
O290 Co280 2.021 . S
O290 C287 1.238 . S
O291 Co285 2.052 . S
O291 C287 1.241 . S
O292 Co280 2.137 1_556 S
O292 C283 1.247 . S
O293 Co280 2.244 1_556 S
O293 C283 1.272 . S
O293 Co285 2.135 1_556 S
Co294 O295 2.216 1_655 S
Co294 O296 2.091 . S
Co294 O298 2.004 . S
Co294 O304 2.021 1_655 S
Co294 O306 2.137 . S
Co294 O307 2.244 1_655 S
O295 Co294 2.216 1_455 S
O295 C302 1.247 1_455 S
O296 Co294 2.091 . S
O296 C302 1.261 . S
C297 O306 1.249 1_455 S
C297 O307 1.272 . S
O298 Co294 2.004 . S
O298 C303 1.259 . S
Co299 O300 2.061 . S
Co299 O305 2.052 . S
Co299 O307 2.135 . S
O300 Co299 2.061 . S
O300 C303 1.235 1_455 S
C301 O304 1.238 . S
C301 O305 1.241 . S
C302 O295 1.247 1_655 S
C302 O296 1.261 . S
C303 O298 1.259 . S
C303 O300 1.235 1_655 S
O304 Co294 2.021 1_455 S
O304 C301 1.238 . S
O305 Co299 2.052 . S
O305 C301 1.241 . S
O306 Co294 2.137 . S
O306 C297 1.249 1_655 S
O307 Co294 2.244 1_455 S
O307 C297 1.272 . S
O307 Co299 2.135 . S
Co308 O309 2.216 . S
Co308 O310 2.091 . S
Co308 O312 2.004 . S
Co308 O318 2.021 . S
Co308 O320 2.137 . S
Co308 O321 2.244 . S
O309 Co308 2.216 . S
O309 C316 1.247 . S
O310 Co308 2.091 . S
O310 C316 1.261 . S
C311 O320 1.247 . S
C311 O321 1.272 . S
O312 Co308 2.004 . S
O312 C317 1.259 . S
Co313 O314 2.061 . S
Co313 O319 2.052 . S
Co313 O321 2.135 . S
O314 Co313 2.061 . S
O314 C317 1.235 . S
C315 O318 1.238 . S
C315 O319 1.241 . S
C316 O309 1.247 . S
C316 O310 1.261 . S
C317 O312 1.259 . S
C317 O314 1.235 . S
O318 Co308 2.021 . S
O318 C315 1.238 . S
O319 Co313 2.052 . S
O319 C315 1.241 . S
O320 Co308 2.137 . S
O320 C311 1.247 . S
O321 Co308 2.244 . S
O321 C311 1.272 . S
O321 Co313 2.135 . S
Co322 O323 2.216 . S
Co322 O324 2.091 . S
Co322 O326 2.004 . S
Co322 O332 2.021 . S
Co322 O334 2.137 . S
Co322 O335 2.244 . S
O323 Co322 2.216 . S
O323 C330 1.247 . S
O324 Co322 2.091 . S
O324 C330 1.261 . S
C325 O334 1.247 . S
C325 O335 1.272 . S
O326 Co322 2.004 . S
O326 C331 1.259 . S
Co327 O328 2.061 . S
Co327 O333 2.052 . S
Co327 O335 2.135 . S
O328 Co327 2.061 . S
O328 C331 1.235 . S
C329 O332 1.238 . S
C329 O333 1.241 . S
C330 O323 1.247 . S
C330 O324 1.261 . S
C331 O326 1.259 . S
C331 O328 1.235 . S
O332 Co322 2.021 . S
O332 C329 1.238 . S
O333 Co327 2.052 . S
O333 C329 1.241 . S
O334 Co322 2.137 . S
O334 C325 1.247 . S
O335 Co322 2.244 . S
O335 C325 1.272 . S
O335 Co327 2.135 . S
Tb336 C346 2.825 1_454 S
Tb336 O347 2.347 . S
Tb336 O350 2.366 . S
Tb336 O355 2.418 1_554 S
Tb336 O356 2.384 . S
Tb336 O359 2.479 1_454 S
Tb336 O360 2.471 1_455 S
Eu337 O348 2.418 . S
Eu337 O349 2.384 . S
Eu337 O352 2.479 . S
Eu337 O353 2.471 . S
Eu337 O354 2.347 . S
Eu337 O357 2.366 . S
Eu337 C367 2.825 . S
C338 O354 1.259 1_556 S
C338 O355 1.265 . S
C339 O356 1.255 . S
C339 O357 1.265 . S
C340 C342 1.380 . S
C340 C343 1.374 . S
C340 C346 1.507 . S
C341 C342 1.384 . S
C341 C345 1.387 . S
C341 H368 0.930 . S
C342 C340 1.380 . S
C342 C341 1.384 . S
C342 H369 0.931 . S
C343 C340 1.374 . S
C343 C344 1.390 . S
C343 H370 0.930 1_556 S
C344 C343 1.390 . S
C344 C345 1.391 . S
C344 H371 0.930 . S
C345 C341 1.387 . S
C345 C344 1.391 . S
C346 Tb336 2.825 1_656 S
C346 C340 1.507 . S
C346 O359 1.238 . S
C346 O360 1.247 1_556 S
O347 Tb336 2.347 . S
O347 C351 1.259 . S
O348 Eu337 2.418 . S
O348 C351 1.265 . S
O349 Eu337 2.384 . S
O349 C358 1.255 . S
O350 Tb336 2.366 . S
O350 C358 1.265 . S
C351 O347 1.259 . S
C351 O348 1.265 . S
O352 Eu337 2.479 . S
O352 C367 1.238 . S
O353 Eu337 2.471 . S
O353 C367 1.247 . S
O354 Eu337 2.347 . S
O354 C338 1.259 1_554 S
O355 Tb336 2.418 1_556 S
O355 C338 1.265 . S
O356 Tb336 2.384 . S
O356 C339 1.255 . S
O357 Eu337 2.366 . S
O357 C339 1.265 . S
C358 O349 1.255 . S
C358 O350 1.265 . S
O359 Tb336 2.479 1_656 S
O359 C346 1.238 . S
O360 Tb336 2.471 1_655 S
O360 C346 1.247 1_554 S
C361 C364 1.380 . S
C361 C365 1.374 . S
C361 C367 1.507 . S
C362 C363 1.387 . S
C362 C366 1.391 . S
C363 C362 1.387 . S
C363 C364 1.384 . S
C363 H372 0.930 . S
C364 C361 1.380 . S
C364 C363 1.384 . S
C364 H373 0.931 . S
C365 C361 1.374 . S
C365 C366 1.390 . S
C365 H374 0.930 . S
C366 C362 1.391 . S
C366 C365 1.390 . S
C366 H375 0.930 . S
C367 Eu337 2.825 . S
C367 O352 1.238 . S
C367 O353 1.247 . S
C367 C361 1.507 . S
H368 C341 0.930 . S
H369 C342 0.931 . S
H370 C343 0.930 1_554 S
H371 C344 0.930 . S
H372 C363 0.930 . S
H373 C364 0.931 . S
H374 C365 0.930 . S
H375 C366 0.930 . S
Tb376 C386 2.825 . S
Tb376 O387 2.347 . S
Tb376 O390 2.366 . S
Tb376 O395 2.418 . S
Tb376 O396 2.384 . S
Tb376 O399 2.479 . S
Tb376 O400 2.471 . S
Eu377 O388 2.418 . S
Eu377 O389 2.384 . S
Eu377 O392 2.479 . S
Eu377 O393 2.471 . S
Eu377 O394 2.347 . S
Eu377 O397 2.366 . S
Eu377 C407 2.825 . S
C378 O394 1.259 . S
C378 O395 1.265 . S
C379 O396 1.255 . S
C379 O397 1.265 . S
C380 C382 1.380 . S
C380 C383 1.374 . S
C380 C386 1.507 . S
C381 C382 1.384 . S
C381 C385 1.387 . S
C381 H408 0.930 . S
C382 C380 1.380 . S
C382 C381 1.384 . S
C382 H409 0.931 . S
C383 C380 1.374 . S
C383 C384 1.390 . S
C383 H410 0.930 . S
C384 C383 1.390 . S
C384 C385 1.391 . S
C384 H411 0.930 . S
C385 C381 1.387 . S
C385 C384 1.391 . S
C386 Tb376 2.825 . S
C386 C380 1.507 . S
C386 O399 1.238 . S
C386 O400 1.247 . S
O387 Tb376 2.347 . S
O387 C391 1.259 . S
O388 Eu377 2.418 . S
O388 C391 1.265 . S
O389 Eu377 2.384 . S
O389 C398 1.255 . S
O390 Tb376 2.366 . S
O390 C398 1.265 . S
C391 O387 1.259 . S
C391 O388 1.265 . S
O392 Eu377 2.479 . S
O392 C407 1.238 . S
O393 Eu377 2.471 . S
O393 C407 1.247 . S
O394 Eu377 2.347 . S
O394 C378 1.259 . S
O395 Tb376 2.418 . S
O395 C378 1.265 . S
O396 Tb376 2.384 . S
O396 C379 1.255 . S
O397 Eu377 2.366 . S
O397 C379 1.265 . S
C398 O389 1.255 . S
C398 O390 1.265 . S
O399 Tb376 2.479 . S
O399 C386 1.238 . S
O400 Tb376 2.471 . S
O400 C386 1.247 . S
C401 C404 1.380 . S
C401 C405 1.374 . S
C401 C407 1.507 . S
C402 C403 1.387 . S
C402 C406 1.391 . S
C403 C402 1.387 . S
C403 C404 1.384 . S
C403 H412 0.930 . S
C404 C401 1.380 . S
C404 C403 1.384 . S
C404 H413 0.931 . S
C405 C401 1.374 . S
C405 C406 1.390 . S
C405 H414 0.930 . S
C406 C402 1.391 . S
C406 C405 1.390 . S
C406 H415 0.930 . S
C407 Eu377 2.825 . S
C407 O392 1.238 . S
C407 O393 1.247 . S
C407 C401 1.507 . S
H408 C381 0.930 . S
H409 C382 0.931 . S
H410 C383 0.930 . S
H411 C384 0.930 . S
H412 C403 0.930 . S
H413 C404 0.931 . S
H414 C405 0.930 . S
H415 C406 0.930 . S
Tb416 C426 2.825 1_545 S
Tb416 O427 2.347 . S
Tb416 O430 2.366 . S
Tb416 O435 2.418 . S
Tb416 O436 2.384 . S
Tb416 O439 2.479 1_545 S
Tb416 O440 2.471 1_545 S
Eu417 O428 2.418 . S
Eu417 O429 2.384 . S
Eu417 O432 2.479 . S
Eu417 O433 2.471 . S
Eu417 O434 2.347 . S
Eu417 O437 2.366 . S
Eu417 C447 2.825 . S
C418 O434 1.259 . S
C418 O435 1.265 . S
C419 O436 1.255 . S
C419 O437 1.265 . S
C420 C422 1.380 . S
C420 C423 1.374 . S
C420 C426 1.507 . S
C421 C422 1.384 . S
C421 C425 1.387 . S
C421 H448 0.930 . S
C422 C420 1.380 . S
C422 C421 1.384 . S
C422 H449 0.931 . S
C423 C420 1.374 . S
C423 C424 1.390 . S
C423 H450 0.930 . S
C424 C423 1.390 . S
C424 C425 1.391 . S
C424 H451 0.930 . S
C425 C421 1.387 . S
C425 C424 1.391 . S
C426 Tb416 2.825 1_565 S
C426 C420 1.507 . S
C426 O439 1.238 . S
C426 O440 1.247 . S
O427 Tb416 2.347 . S
O427 C431 1.259 . S
O428 Eu417 2.418 . S
O428 C431 1.265 . S
O429 Eu417 2.384 . S
O429 C438 1.255 . S
O430 Tb416 2.366 . S
O430 C438 1.265 . S
C431 O427 1.259 . S
C431 O428 1.265 . S
O432 Eu417 2.479 . S
O432 C447 1.238 . S
O433 Eu417 2.471 . S
O433 C447 1.247 . S
O434 Eu417 2.347 . S
O434 C418 1.259 . S
O435 Tb416 2.418 . S
O435 C418 1.265 . S
O436 Tb416 2.384 . S
O436 C419 1.255 . S
O437 Eu417 2.366 . S
O437 C419 1.265 . S
C438 O429 1.255 . S
C438 O430 1.265 . S
O439 Tb416 2.479 1_565 S
O439 C426 1.238 . S
O440 Tb416 2.471 1_565 S
O440 C426 1.247 . S
C441 C444 1.380 . S
C441 C445 1.374 . S
C441 C447 1.507 . S
C442 C443 1.387 . S
C442 C446 1.391 . S
C443 C442 1.387 . S
C443 C444 1.384 . S
C443 H452 0.930 . S
C444 C441 1.380 . S
C444 C443 1.384 . S
C444 H453 0.931 . S
C445 C441 1.374 . S
C445 C446 1.390 . S
C445 H454 0.930 . S
C446 C442 1.391 . S
C446 C445 1.390 . S
C446 H455 0.930 . S
C447 Eu417 2.825 . S
C447 O432 1.238 . S
C447 O433 1.247 . S
C447 C441 1.507 . S
H448 C421 0.930 . S
H449 C422 0.931 . S
H450 C423 0.930 . S
H451 C424 0.930 . S
H452 C443 0.930 . S
H453 C444 0.931 . S
H454 C445 0.930 . S
H455 C446 0.930 . S
Tb456 C466 2.825 . S
Tb456 O467 2.347 . S
Tb456 O470 2.366 . S
Tb456 O475 2.418 . S
Tb456 O476 2.384 . S
Tb456 O479 2.479 . S
Tb456 O480 2.471 . S
Eu457 O468 2.418 . S
Eu457 O469 2.384 . S
Eu457 O472 2.479 . S
Eu457 O473 2.471 . S
Eu457 O474 2.347 . S
Eu457 O477 2.366 . S
Eu457 C487 2.825 . S
C458 O474 1.259 . S
C458 O475 1.265 . S
C459 O476 1.255 . S
C459 O477 1.265 . S
C460 C462 1.380 . S
C460 C463 1.374 . S
C460 C466 1.507 . S
C461 C462 1.384 . S
C461 C465 1.387 . S
C461 H488 0.930 . S
C462 C460 1.380 . S
C462 C461 1.384 . S
C462 H489 0.931 . S
C463 C460 1.374 . S
C463 C464 1.390 . S
C463 H490 0.930 . S
C464 C463 1.390 . S
C464 C465 1.391 . S
C464 H491 0.930 . S
C465 C461 1.387 . S
C465 C464 1.391 . S
C466 Tb456 2.825 . S
C466 C460 1.507 . S
C466 O479 1.238 . S
C466 O480 1.247 . S
O467 Tb456 2.347 . S
O467 C471 1.259 . S
O468 Eu457 2.418 . S
O468 C471 1.265 . S
O469 Eu457 2.384 . S
O469 C478 1.255 . S
O470 Tb456 2.366 . S
O470 C478 1.265 . S
C471 O467 1.259 . S
C471 O468 1.265 . S
O472 Eu457 2.479 . S
O472 C487 1.238 . S
O473 Eu457 2.471 . S
O473 C487 1.247 . S
O474 Eu457 2.347 . S
O474 C458 1.259 . S
O475 Tb456 2.418 . S
O475 C458 1.265 . S
O476 Tb456 2.384 . S
O476 C459 1.255 . S
O477 Eu457 2.366 . S
O477 C459 1.265 . S
C478 O469 1.255 . S
C478 O470 1.265 . S
O479 Tb456 2.479 . S
O479 C466 1.238 . S
O480 Tb456 2.471 . S
O480 C466 1.247 . S
C481 C484 1.380 . S
C481 C485 1.374 . S
C481 C487 1.507 . S
C482 C483 1.387 . S
C482 C486 1.391 . S
C483 C482 1.387 . S
C483 C484 1.384 . S
C483 H492 0.930 . S
C484 C481 1.380 . S
C484 C483 1.384 . S
C484 H493 0.931 . S
C485 C481 1.374 . S
C485 C486 1.390 . S
C485 H494 0.930 . S
C486 C482 1.391 . S
C486 C485 1.390 . S
C486 H495 0.930 . S
C487 Eu457 2.825 . S
C487 O472 1.238 . S
C487 O473 1.247 . S
C487 C481 1.507 . S
H488 C461 0.930 . S
H489 C462 0.931 . S
H490 C463 0.930 . S
H491 C464 0.930 . S
H492 C483 0.930 . S
H493 C484 0.931 . S
H494 C485 0.930 . S
H495 C486 0.930 . S
Tb496 C506 2.825 . S
Tb496 O507 2.347 . S
Tb496 O510 2.366 . S
Tb496 O515 2.418 . S
Tb496 O516 2.402 . S
Tb496 O519 2.479 . S
Tb496 O520 2.471 . S
Eu497 O508 2.418 . S
Eu497 O509 2.384 . S
Eu497 O512 2.479 . S
Eu497 O513 2.471 . S
Eu497 O514 2.347 . S
Eu497 O517 2.366 . S
Eu497 C527 2.825 . S
C498 O514 1.259 . S
C498 O515 1.265 . S
C499 O516 1.257 . S
C499 O517 1.265 . S
C500 C502 1.380 . S
C500 C503 1.374 1_455 S
C500 C506 1.507 . S
C501 C502 1.384 . S
C501 C505 1.387 1_455 S
C501 H528 0.930 . S
C502 C500 1.380 . S
C502 C501 1.384 . S
C502 H529 0.931 . S
C503 C500 1.374 1_655 S
C503 C504 1.390 . S
C503 H530 0.930 . S
C504 C503 1.390 . S
C504 C505 1.391 . S
C504 H531 0.930 . S
C505 C501 1.387 1_655 S
C505 C504 1.391 . S
C506 Tb496 2.825 . S
C506 C500 1.507 . S
C506 O519 1.238 . S
C506 O520 1.247 . S
O507 Tb496 2.347 . S
O507 C511 1.259 1_455 S
O508 Eu497 2.418 . S
O508 C511 1.265 1_455 S
O509 Eu497 2.384 . S
O509 C518 1.255 . S
O510 Tb496 2.366 . S
O510 C518 1.265 . S
C511 O507 1.259 1_655 S
C511 O508 1.265 1_655 S
O512 Eu497 2.479 . S
O512 C527 1.238 . S
O513 Eu497 2.471 . S
O513 C527 1.247 . S
O514 Eu497 2.347 . S
O514 C498 1.259 . S
O515 Tb496 2.418 . S
O515 C498 1.265 . S
O516 Tb496 2.402 . S
O516 C499 1.257 . S
O517 Eu497 2.366 . S
O517 C499 1.265 . S
C518 O509 1.255 . S
C518 O510 1.265 . S
O519 Tb496 2.479 . S
O519 C506 1.238 . S
O520 Tb496 2.471 . S
O520 C506 1.247 . S
C521 C524 1.380 . S
C521 C525 1.374 . S
C521 C527 1.507 . S
C522 C523 1.387 . S
C522 C526 1.391 . S
C523 C522 1.387 . S
C523 C524 1.384 . S
C523 H532 0.930 . S
C524 C521 1.380 . S
C524 C523 1.384 . S
C524 H533 0.931 . S
C525 C521 1.374 . S
C525 C526 1.390 . S
C525 H534 0.930 . S
C526 C522 1.391 . S
C526 C525 1.390 . S
C526 H535 0.930 . S
C527 Eu497 2.825 . S
C527 O512 1.238 . S
C527 O513 1.247 . S
C527 C521 1.507 . S
H528 C501 0.930 . S
H529 C502 0.931 . S
H530 C503 0.930 . S
H531 C504 0.930 . S
H532 C523 0.930 . S
H533 C524 0.931 . S
H534 C525 0.930 . S
H535 C526 0.930 . S
Tb536 C546 2.825 . S
Tb536 O547 2.347 . S
Tb536 O550 2.366 . S
Tb536 O555 2.418 . S
Tb536 O556 2.384 . S
Tb536 O559 2.479 . S
Tb536 O560 2.471 . S
Eu537 O548 2.418 . S
Eu537 O549 2.384 . S
Eu537 O552 2.479 . S
Eu537 O553 2.471 . S
Eu537 O554 2.347 . S
Eu537 O557 2.366 . S
Eu537 C567 2.825 . S
C538 O554 1.259 . S
C538 O555 1.265 . S
C539 O556 1.255 . S
C539 O557 1.265 . S
C540 C542 1.380 . S
C540 C543 1.374 . S
C540 C546 1.507 . S
C541 C542 1.384 . S
C541 C545 1.387 . S
C541 H568 0.930 . S
C542 C540 1.380 . S
C542 C541 1.384 . S
C542 H569 0.931 . S
C543 C540 1.374 . S
C543 C544 1.390 . S
C543 H570 0.930 . S
C544 C543 1.390 . S
C544 C545 1.391 . S
C544 H571 0.930 . S
C545 C541 1.387 . S
C545 C544 1.391 . S
C546 Tb536 2.825 . S
C546 C540 1.507 . S
C546 O559 1.238 . S
C546 O560 1.247 . S
O547 Tb536 2.347 . S
O547 C551 1.259 . S
O548 Eu537 2.418 . S
O548 C551 1.265 . S
O549 Eu537 2.384 . S
O549 C558 1.255 . S
O550 Tb536 2.366 . S
O550 C558 1.265 . S
C551 O547 1.259 . S
C551 O548 1.265 . S
O552 Eu537 2.479 . S
O552 C567 1.238 . S
O553 Eu537 2.471 . S
O553 C567 1.247 . S
O554 Eu537 2.347 . S
O554 C538 1.259 . S
O555 Tb536 2.418 . S
O555 C538 1.265 . S
O556 Tb536 2.384 . S
O556 C539 1.255 . S
O557 Eu537 2.366 . S
O557 C539 1.265 . S
C558 O549 1.255 . S
C558 O550 1.265 . S
O559 Tb536 2.479 . S
O559 C546 1.238 . S
O560 Tb536 2.471 . S
O560 C546 1.247 . S
C561 C564 1.380 . S
C561 C565 1.374 . S
C561 C567 1.507 . S
C562 C563 1.387 . S
C562 C566 1.391 . S
C563 C562 1.387 . S
C563 C564 1.384 . S
C563 H572 0.930 . S
C564 C561 1.380 . S
C564 C563 1.384 . S
C564 H573 0.931 . S
C565 C561 1.374 . S
C565 C566 1.390 . S
C565 H574 0.930 . S
C566 C562 1.391 . S
C566 C565 1.390 . S
C566 H575 0.930 . S
C567 Eu537 2.825 . S
C567 O552 1.238 . S
C567 O553 1.247 . S
C567 C561 1.507 . S
H568 C541 0.930 . S
H569 C542 0.931 . S
H570 C543 0.930 . S
H571 C544 0.930 . S
H572 C563 0.930 . S
H573 C564 0.931 . S
H574 C565 0.930 . S
H575 C566 0.930 . S
Tb576 C586 2.825 . S
Tb576 O587 2.347 . S
Tb576 O590 2.366 . S
Tb576 O595 2.418 1_545 S
Tb576 O596 2.384 . S
Tb576 O599 2.479 . S
Tb576 O600 2.471 . S
Eu577 O588 2.418 1_556 S
Eu577 O589 2.384 1_556 S
Eu577 O592 2.479 . S
Eu577 O593 2.471 . S
Eu577 O594 2.347 1_556 S
Eu577 O597 2.366 . S
Eu577 C607 2.825 . S
C578 O594 1.270 . S
C578 O595 1.263 1_545 S
C579 O596 1.255 . S
C579 O597 1.265 1_554 S
C580 C582 1.380 . S
C580 C583 1.374 . S
C580 C586 1.507 . S
C581 C582 1.384 . S
C581 C585 1.387 . S
C581 H608 0.930 1_545 S
C582 C580 1.380 . S
C582 C581 1.384 . S
C582 H609 0.956 . S
C583 C580 1.374 . S
C583 C584 1.390 . S
C583 H610 0.930 . S
C584 C583 1.390 . S
C584 C585 1.391 . S
C584 H611 0.930 . S
C585 C581 1.387 . S
C585 C584 1.391 . S
C586 Tb576 2.825 . S
C586 C580 1.507 . S
C586 O599 1.238 . S
C586 O600 1.247 . S
O587 Tb576 2.347 . S
O587 C591 1.259 . S
O588 Eu577 2.418 1_554 S
O588 C591 1.265 . S
O589 Eu577 2.384 1_554 S
O589 C598 1.255 . S
O590 Tb576 2.366 . S
O590 C598 1.265 . S
C591 O587 1.259 . S
C591 O588 1.265 . S
O592 Eu577 2.479 . S
O592 C607 1.238 . S
O593 Eu577 2.471 . S
O593 C607 1.247 . S
O594 Eu577 2.347 1_554 S
O594 C578 1.270 . S
O595 Tb576 2.418 1_565 S
O595 C578 1.263 1_565 S
O596 Tb576 2.384 . S
O596 C579 1.255 . S
O597 Eu577 2.366 . S
O597 C579 1.265 1_556 S
C598 O589 1.255 . S
C598 O590 1.265 . S
O599 Tb576 2.479 . S
O599 C586 1.238 . S
O600 Tb576 2.471 . S
O600 C586 1.247 . S
C601 C604 1.380 . S
C601 C605 1.374 . S
C601 C607 1.507 . S
C602 C603 1.387 . S
C602 C606 1.391 . S
C603 C602 1.387 . S
C603 C604 1.384 . S
C603 H612 0.930 . S
C604 C601 1.380 . S
C604 C603 1.384 . S
C604 H613 0.931 . S
C605 C601 1.374 . S
C605 C606 1.390 . S
C605 H614 0.930 . S
C606 C602 1.391 . S
C606 C605 1.390 . S
C606 H615 0.930 . S
C607 Eu577 2.825 . S
C607 O592 1.238 . S
C607 O593 1.247 . S
C607 C601 1.507 . S
H608 C581 0.930 1_565 S
H609 C582 0.956 . S
H610 C583 0.930 . S
H611 C584 0.930 . S
H612 C603 0.930 . S
H613 C604 0.931 . S
H614 C605 0.930 . S
H615 C606 0.930 . S
Tb616 C626 2.825 . S
Tb616 O627 2.347 . S
Tb616 O630 2.366 . S
Tb616 O635 2.418 . S
Tb616 O636 2.384 . S
Tb616 O639 2.479 . S
Tb616 O640 2.471 . S
Eu617 O628 2.418 . S
Eu617 O629 2.384 . S
Eu617 O632 2.479 . S
Eu617 O633 2.471 . S
Eu617 O634 2.347 . S
Eu617 O637 2.366 . S
Eu617 C647 2.825 . S
C618 O634 1.259 . S
C618 O635 1.265 . S
C619 O636 1.255 . S
C619 O637 1.265 . S
C620 C622 1.380 . S
C620 C623 1.374 . S
C620 C626 1.507 . S
C621 C622 1.384 . S
C621 C625 1.387 . S
C621 H648 0.930 . S
C622 C620 1.380 . S
C622 C621 1.384 . S
C622 H649 0.931 . S
C623 C620 1.374 . S
C623 C624 1.390 . S
C623 H650 0.930 . S
C624 C623 1.390 . S
C624 C625 1.391 . S
C624 H651 0.930 . S
C625 C621 1.387 . S
C625 C624 1.391 . S
C626 Tb616 2.825 . S
C626 C620 1.507 . S
C626 O639 1.238 . S
C626 O640 1.247 . S
O627 Tb616 2.347 . S
O627 C631 1.259 . S
O628 Eu617 2.418 . S
O628 C631 1.265 . S
O629 Eu617 2.384 . S
O629 C638 1.255 . S
O630 Tb616 2.366 . S
O630 C638 1.265 . S
C631 O627 1.259 . S
C631 O628 1.265 . S
O632 Eu617 2.479 . S
O632 C647 1.238 . S
O633 Eu617 2.471 . S
O633 C647 1.247 . S
O634 Eu617 2.347 . S
O634 C618 1.259 . S
O635 Tb616 2.418 . S
O635 C618 1.265 . S
O636 Tb616 2.384 . S
O636 C619 1.255 . S
O637 Eu617 2.366 . S
O637 C619 1.265 . S
C638 O629 1.255 . S
C638 O630 1.265 . S
O639 Tb616 2.479 . S
O639 C626 1.238 . S
O640 Tb616 2.471 . S
O640 C626 1.247 . S
C641 C644 1.380 . S
C641 C645 1.374 . S
C641 C647 1.507 . S
C642 C643 1.387 . S
C642 C646 1.391 . S
C643 C642 1.387 . S
C643 C644 1.384 . S
C643 H652 0.930 . S
C644 C641 1.380 . S
C644 C643 1.384 . S
C644 H653 0.931 . S
C645 C641 1.374 . S
C645 C646 1.390 . S
C645 H654 0.930 . S
C646 C642 1.391 . S
C646 C645 1.390 . S
C646 H655 0.930 . S
C647 Eu617 2.825 . S
C647 O632 1.238 . S
C647 O633 1.247 . S
C647 C641 1.507 . S
H648 C621 0.930 . S
H649 C622 0.931 . S
H650 C623 0.930 . S
H651 C624 0.930 . S
H652 C643 0.930 . S
H653 C644 0.931 . S
H654 C645 0.930 . S
H655 C646 0.930 . S
Tb656 C666 2.825 . S
Tb656 O667 2.347 1_556 S
Tb656 O670 2.366 . S
Tb656 O675 2.418 . S
Tb656 O676 2.384 1_556 S
Tb656 O679 2.479 . S
Tb656 O680 2.471 . S
Eu657 O668 2.418 . S
Eu657 O669 2.384 . S
Eu657 O672 2.479 . S
Eu657 O673 2.471 . S
Eu657 O674 2.347 . S
Eu657 O677 2.366 . S
Eu657 C687 2.825 . S
C658 O674 1.259 . S
C658 O675 1.265 1_554 S
C659 O676 1.255 . S
C659 O677 1.265 . S
C660 C662 1.380 . S
C660 C663 1.374 . S
C660 C666 1.507 . S
C661 C662 1.384 . S
C661 C665 1.387 . S
C661 H688 0.930 . S
C662 C660 1.380 . S
C662 C661 1.384 . S
C662 H689 0.931 . S
C663 C660 1.374 . S
C663 C664 1.390 . S
C663 H690 0.930 . S
C664 C663 1.390 . S
C664 C665 1.391 . S
C664 H691 0.930 . S
C665 C661 1.387 . S
C665 C664 1.391 . S
C666 Tb656 2.825 . S
C666 C660 1.507 . S
C666 O679 1.238 . S
C666 O680 1.247 . S
O667 Tb656 2.347 1_554 S
O667 C671 1.259 . S
O668 Eu657 2.418 . S
O668 C671 1.265 . S
O669 Eu657 2.384 . S
O669 C678 1.255 1_554 S
O670 Tb656 2.366 . S
O670 C678 1.265 . S
C671 O667 1.259 . S
C671 O668 1.265 . S
O672 Eu657 2.479 . S
O672 C687 1.238 . S
O673 Eu657 2.471 . S
O673 C687 1.247 . S
O674 Eu657 2.347 . S
O674 C658 1.259 . S
O675 Tb656 2.418 . S
O675 C658 1.265 1_556 S
O676 Tb656 2.384 1_554 S
O676 C659 1.255 . S
O677 Eu657 2.366 . S
O677 C659 1.265 . S
C678 O669 1.255 1_556 S
C678 O670 1.265 . S
O679 Tb656 2.479 . S
O679 C666 1.238 . S
O680 Tb656 2.471 . S
O680 C666 1.247 . S
C681 C684 1.380 . S
C681 C685 1.374 . S
C681 C687 1.507 . S
C682 C683 1.387 . S
C682 C686 1.391 . S
C683 C682 1.387 . S
C683 C684 1.384 . S
C683 H692 0.930 . S
C684 C681 1.380 . S
C684 C683 1.384 . S
C684 H693 0.931 . S
C685 C681 1.374 . S
C685 C686 1.390 . S
C685 H694 0.930 . S
C686 C682 1.391 . S
C686 C685 1.390 . S
C686 H695 0.930 . S
C687 Eu657 2.825 . S
C687 O672 1.238 . S
C687 O673 1.247 . S
C687 C681 1.507 . S
H688 C661 0.930 . S
H689 C662 0.931 . S
H690 C663 0.930 . S
H691 C664 0.930 . S
H692 C683 0.930 . S
H693 C684 0.931 . S
H694 C685 0.930 . S
H695 C686 0.930 . S
Tb696 C706 2.825 . S
Tb696 O707 2.347 . S
Tb696 O710 2.366 . S
Tb696 O715 2.418 . S
Tb696 O716 2.384 . S
Tb696 O719 2.479 . S
Tb696 O720 2.471 . S
Eu697 O708 2.418 . S
Eu697 O709 2.384 . S
Eu697 O712 2.479 . S
Eu697 O713 2.471 . S
Eu697 O714 2.347 . S
Eu697 O717 2.366 . S
Eu697 C727 2.825 . S
C698 O714 1.259 . S
C698 O715 1.265 . S
C699 O716 1.255 . S
C699 O717 1.265 . S
C700 C702 1.380 . S
C700 C703 1.374 . S
C700 C706 1.507 . S
C701 C702 1.384 . S
C701 C705 1.387 . S
C701 H728 0.930 . S
C702 C700 1.380 . S
C702 C701 1.384 . S
C702 H729 0.931 . S
C703 C700 1.374 . S
C703 C704 1.390 . S
C703 H730 0.930 . S
C704 C703 1.390 . S
C704 C705 1.391 . S
C704 H731 0.930 . S
C705 C701 1.387 . S
C705 C704 1.391 . S
C706 Tb696 2.825 . S
C706 C700 1.507 . S
C706 O719 1.238 . S
C706 O720 1.247 . S
O707 Tb696 2.347 . S
O707 C711 1.259 . S
O708 Eu697 2.418 . S
O708 C711 1.265 . S
O709 Eu697 2.384 . S
O709 C718 1.255 . S
O710 Tb696 2.366 . S
O710 C718 1.265 . S
C711 O707 1.259 . S
C711 O708 1.265 . S
O712 Eu697 2.479 . S
O712 C727 1.238 . S
O713 Eu697 2.471 . S
O713 C727 1.247 . S
O714 Eu697 2.347 . S
O714 C698 1.259 . S
O715 Tb696 2.418 . S
O715 C698 1.265 . S
O716 Tb696 2.384 . S
O716 C699 1.255 . S
O717 Eu697 2.366 . S
O717 C699 1.265 . S
C718 O709 1.255 . S
C718 O710 1.265 . S
O719 Tb696 2.479 . S
O719 C706 1.238 . S
O720 Tb696 2.471 . S
O720 C706 1.247 . S
C721 C724 1.380 . S
C721 C725 1.374 . S
C721 C727 1.507 . S
C722 C723 1.387 . S
C722 C726 1.391 . S
C723 C722 1.387 . S
C723 C724 1.384 . S
C723 H732 0.930 . S
C724 C721 1.380 . S
C724 C723 1.384 . S
C724 H733 0.931 . S
C725 C721 1.374 . S
C725 C726 1.390 . S
C725 H734 0.930 . S
C726 C722 1.391 . S
C726 C725 1.390 . S
C726 H735 0.930 . S
C727 Eu697 2.825 . S
C727 O712 1.238 . S
C727 O713 1.247 . S
C727 C721 1.507 . S
H728 C701 0.930 . S
H729 C702 0.931 . S
H730 C703 0.930 . S
H731 C704 0.930 . S
H732 C723 0.930 . S
H733 C724 0.931 . S
H734 C725 0.930 . S
H735 C726 0.930 . S
Tb736 C746 2.825 . S
Tb736 O747 2.347 . S
Tb736 O750 2.366 . S
Tb736 O755 2.418 . S
Tb736 O756 2.384 . S
Tb736 O759 2.479 . S
Tb736 O760 2.471 . S
Eu737 O748 2.418 . S
Eu737 O749 2.384 1_455 S
Eu737 O752 2.479 . S
Eu737 O753 2.471 . S
Eu737 O754 2.347 . S
Eu737 O757 2.366 . S
Eu737 C767 2.825 . S
C738 O754 1.259 . S
C738 O755 1.265 . S
C739 O756 1.255 . S
C739 O757 1.265 . S
C740 C742 1.380 . S
C740 C743 1.374 . S
C740 C746 1.507 . S
C741 C742 1.384 . S
C741 C745 1.387 . S
C741 H768 0.930 . S
C742 C740 1.380 . S
C742 C741 1.384 . S
C742 H769 0.931 . S
C743 C740 1.374 . S
C743 C744 1.390 . S
C743 H770 0.930 . S
C744 C743 1.390 . S
C744 C745 1.391 . S
C744 H771 0.930 1_455 S
C745 C741 1.387 . S
C745 C744 1.391 . S
C746 Tb736 2.825 . S
C746 C740 1.507 . S
C746 O759 1.238 . S
C746 O760 1.247 . S
O747 Tb736 2.347 . S
O747 C751 1.259 . S
O748 Eu737 2.418 . S
O748 C751 1.265 . S
O749 Eu737 2.384 1_655 S
O749 C758 1.255 . S
O750 Tb736 2.366 . S
O750 C758 1.265 1_455 S
C751 O747 1.259 . S
C751 O748 1.265 . S
O752 Eu737 2.479 . S
O752 C767 1.238 . S
O753 Eu737 2.471 . S
O753 C767 1.247 . S
O754 Eu737 2.347 . S
O754 C738 1.259 . S
O755 Tb736 2.418 . S
O755 C738 1.265 . S
O756 Tb736 2.384 . S
O756 C739 1.255 . S
O757 Eu737 2.366 . S
O757 C739 1.265 . S
C758 O749 1.255 . S
C758 O750 1.265 1_655 S
O759 Tb736 2.479 . S
O759 C746 1.238 . S
O760 Tb736 2.471 . S
O760 C746 1.247 . S
C761 C764 1.380 . S
C761 C765 1.374 . S
C761 C767 1.507 . S
C762 C763 1.387 . S
C762 C766 1.391 . S
C763 C762 1.387 . S
C763 C764 1.384 . S
C763 H772 0.930 . S
C764 C761 1.380 . S
C764 C763 1.384 . S
C764 H773 0.931 . S
C765 C761 1.374 . S
C765 C766 1.390 . S
C765 H774 0.930 . S
C766 C762 1.391 . S
C766 C765 1.390 . S
C766 H775 0.930 . S
C767 Eu737 2.825 . S
C767 O752 1.238 . S
C767 O753 1.247 . S
C767 C761 1.507 . S
H768 C741 0.930 . S
H769 C742 0.931 . S
H770 C743 0.930 . S
H771 C744 0.930 1_655 S
H772 C763 0.930 . S
H773 C764 0.931 . S
H774 C765 0.930 . S
H775 C766 0.930 . S
Tb776 C786 2.825 . S
Tb776 O787 2.347 . S
Tb776 O790 2.366 . S
Tb776 O795 2.418 . S
Tb776 O796 2.384 . S
Tb776 O799 2.479 . S
Tb776 O800 2.471 . S
Eu777 O788 2.418 . S
Eu777 O789 2.384 . S
Eu777 O792 2.479 . S
Eu777 O793 2.471 . S
Eu777 O794 2.347 . S
Eu777 O797 2.366 . S
Eu777 C807 2.825 . S
C778 O794 1.259 . S
C778 O795 1.265 . S
C779 O796 1.255 . S
C779 O797 1.265 . S
C780 C782 1.380 . S
C780 C783 1.374 . S
C780 C786 1.507 . S
C781 C782 1.384 . S
C781 C785 1.387 . S
C781 H808 0.930 . S
C782 C780 1.380 . S
C782 C781 1.384 . S
C782 H809 0.931 . S
C783 C780 1.374 . S
C783 C784 1.390 . S
C783 H810 0.930 . S
C784 C783 1.390 . S
C784 C785 1.391 . S
C784 H811 0.930 . S
C785 C781 1.387 . S
C785 C784 1.391 . S
C786 Tb776 2.825 . S
C786 C780 1.507 . S
C786 O799 1.238 . S
C786 O800 1.247 . S
O787 Tb776 2.347 . S
O787 C791 1.259 . S
O788 Eu777 2.418 . S
O788 C791 1.265 . S
O789 Eu777 2.384 . S
O789 C798 1.255 . S
O790 Tb776 2.366 . S
O790 C798 1.265 . S
C791 O787 1.259 . S
C791 O788 1.265 . S
O792 Eu777 2.479 . S
O792 C807 1.238 . S
O793 Eu777 2.471 . S
O793 C807 1.247 . S
O794 Eu777 2.347 . S
O794 C778 1.259 . S
O795 Tb776 2.418 . S
O795 C778 1.265 . S
O796 Tb776 2.384 . S
O796 C779 1.255 . S
O797 Eu777 2.366 . S
O797 C779 1.265 . S
C798 O789 1.255 . S
C798 O790 1.265 . S
O799 Tb776 2.479 . S
O799 C786 1.238 . S
O800 Tb776 2.471 . S
O800 C786 1.247 . S
C801 C804 1.380 . S
C801 C805 1.374 . S
C801 C807 1.507 . S
C802 C803 1.387 . S
C802 C806 1.391 . S
C803 C802 1.387 . S
C803 C804 1.384 . S
C803 H812 0.930 . S
C804 C801 1.380 . S
C804 C803 1.384 . S
C804 H813 0.931 . S
C805 C801 1.374 . S
C805 C806 1.390 . S
C805 H814 0.930 . S
C806 C802 1.391 . S
C806 C805 1.390 . S
C806 H815 0.930 . S
C807 Eu777 2.825 . S
C807 O792 1.238 . S
C807 O793 1.247 . S
C807 C801 1.507 . S
H808 C781 0.930 . S
H809 C782 0.931 . S
H810 C783 0.930 . S
H811 C784 0.930 . S
H812 C803 0.930 . S
H813 C804 0.931 . S
H814 C805 0.930 . S
H815 C806 0.930 . S
Tb816 C826 2.825 . S
Tb816 O827 2.347 . S
Tb816 O830 2.366 . S
Tb816 O835 2.418 . S
Tb816 O836 2.384 . S
Tb816 O839 2.479 . S
Tb816 O840 2.471 . S
Eu817 O828 2.418 . S
Eu817 O829 2.384 . S
Eu817 O832 2.479 . S
Eu817 O833 2.471 . S
Eu817 O834 2.347 . S
Eu817 O837 2.366 . S
Eu817 C847 2.825 . S
C818 O834 1.259 . S
C818 O835 1.265 . S
C819 O836 1.255 . S
C819 O837 1.265 . S
C820 C822 1.380 . S
C820 C823 1.374 . S
C820 C826 1.507 . S
C821 C822 1.384 . S
C821 C825 1.387 . S
C821 H848 0.930 . S
C822 C820 1.380 . S
C822 C821 1.384 . S
C822 H849 0.931 . S
C823 C820 1.374 . S
C823 C824 1.390 . S
C823 H850 0.930 . S
C824 C823 1.390 . S
C824 C825 1.391 . S
C824 H851 0.930 . S
C825 C821 1.387 . S
C825 C824 1.391 . S
C826 Tb816 2.825 . S
C826 C820 1.507 . S
C826 O839 1.238 . S
C826 O840 1.247 . S
O827 Tb816 2.347 . S
O827 C831 1.259 . S
O828 Eu817 2.418 . S
O828 C831 1.265 . S
O829 Eu817 2.384 . S
O829 C838 1.255 . S
O830 Tb816 2.366 . S
O830 C838 1.265 . S
C831 O827 1.259 . S
C831 O828 1.265 . S
O832 Eu817 2.479 . S
O832 C847 1.238 . S
O833 Eu817 2.471 . S
O833 C847 1.247 . S
O834 Eu817 2.347 . S
O834 C818 1.259 . S
O835 Tb816 2.418 . S
O835 C818 1.265 . S
O836 Tb816 2.384 . S
O836 C819 1.255 . S
O837 Eu817 2.366 . S
O837 C819 1.265 . S
C838 O829 1.255 . S
C838 O830 1.265 . S
O839 Tb816 2.479 . S
O839 C826 1.238 . S
O840 Tb816 2.471 . S
O840 C826 1.247 . S
C841 C844 1.380 . S
C841 C845 1.374 . S
C841 C847 1.507 . S
C842 C843 1.387 . S
C842 C846 1.391 . S
C843 C842 1.387 . S
C843 C844 1.384 . S
C843 H852 0.930 . S
C844 C841 1.380 . S
C844 C843 1.384 . S
C844 H853 0.931 . S
C845 C841 1.374 . S
C845 C846 1.390 . S
C845 H854 0.930 . S
C846 C842 1.391 . S
C846 C845 1.390 . S
C846 H855 0.930 . S
C847 Eu817 2.825 . S
C847 O832 1.238 . S
C847 O833 1.247 . S
C847 C841 1.507 . S
H848 C821 0.930 . S
H849 C822 0.931 . S
H850 C823 0.930 . S
H851 C824 0.930 . S
H852 C843 0.930 . S
H853 C844 0.931 . S
H854 C845 0.930 . S
H855 C846 0.930 . S
Tb856 C866 2.825 . S
Tb856 O867 2.347 . S
Tb856 O870 2.366 . S
Tb856 O875 2.418 . S
Tb856 O876 2.384 . S
Tb856 O879 2.479 . S
Tb856 O880 2.471 . S
Eu857 O868 2.418 . S
Eu857 O869 2.384 . S
Eu857 O872 2.479 . S
Eu857 O873 2.471 . S
Eu857 O874 2.347 . S
Eu857 O877 2.366 . S
Eu857 C887 2.825 . S
C858 O874 1.259 . S
C858 O875 1.265 . S
C859 O876 1.255 . S
C859 O877 1.265 . S
C860 C862 1.380 . S
C860 C863 1.374 . S
C860 C866 1.507 . S
C861 C862 1.384 . S
C861 C865 1.387 . S
C861 H888 0.930 . S
C862 C860 1.380 . S
C862 C861 1.384 . S
C862 H889 0.931 . S
C863 C860 1.374 . S
C863 C864 1.390 . S
C863 H890 0.930 . S
C864 C863 1.390 . S
C864 C865 1.391 . S
C864 H891 0.930 . S
C865 C861 1.387 . S
C865 C864 1.391 . S
C866 Tb856 2.825 . S
C866 C860 1.507 . S
C866 O879 1.238 . S
C866 O880 1.247 . S
O867 Tb856 2.347 . S
O867 C871 1.259 . S
O868 Eu857 2.418 . S
O868 C871 1.265 . S
O869 Eu857 2.384 . S
O869 C878 1.255 . S
O870 Tb856 2.366 . S
O870 C878 1.265 . S
C871 O867 1.259 . S
C871 O868 1.265 . S
O872 Eu857 2.479 . S
O872 C887 1.238 . S
O873 Eu857 2.471 . S
O873 C887 1.247 . S
O874 Eu857 2.347 . S
O874 C858 1.259 . S
O875 Tb856 2.418 . S
O875 C858 1.265 . S
O876 Tb856 2.384 . S
O876 C859 1.255 . S
O877 Eu857 2.366 . S
O877 C859 1.265 . S
C878 O869 1.255 . S
C878 O870 1.265 . S
O879 Tb856 2.479 . S
O879 C866 1.238 . S
O880 Tb856 2.471 . S
O880 C866 1.247 . S
C881 C884 1.380 . S
C881 C885 1.374 . S
C881 C887 1.507 . S
C882 C883 1.387 . S
C882 C886 1.391 . S
C883 C882 1.387 . S
C883 C884 1.384 . S
C883 H892 0.930 . S
C884 C881 1.380 . S
C884 C883 1.384 . S
C884 H893 0.931 . S
C885 C881 1.374 . S
C885 C886 1.390 . S
C885 H894 0.930 . S
C886 C882 1.391 . S
C886 C885 1.390 . S
C886 H895 0.930 . S
C887 Eu857 2.825 . S
C887 O872 1.238 . S
C887 O873 1.247 . S
C887 C881 1.507 . S
H888 C861 0.930 . S
H889 C862 0.931 . S
H890 C863 0.930 . S
H891 C864 0.930 . S
H892 C883 0.930 . S
H893 C884 0.931 . S
H894 C885 0.930 . S
H895 C886 0.930 . S
Tb896 C906 2.825 . S
Tb896 O907 2.347 . S
Tb896 O910 2.366 . S
Tb896 O915 2.418 . S
Tb896 O916 2.384 . S
Tb896 O919 2.479 . S
Tb896 O920 2.471 . S
Eu897 O908 2.418 . S
Eu897 O909 2.384 . S
Eu897 O912 2.479 . S
Eu897 O913 2.471 . S
Eu897 O914 2.347 . S
Eu897 O917 2.366 . S
Eu897 C927 2.825 . S
C898 O914 1.259 . S
C898 O915 1.265 . S
C899 O916 1.255 . S
C899 O917 1.265 . S
C900 C902 1.380 . S
C900 C903 1.374 . S
C900 C906 1.507 . S
C901 C902 1.384 . S
C901 C905 1.387 . S
C901 H928 0.930 . S
C902 C900 1.380 . S
C902 C901 1.384 . S
C902 H929 0.931 . S
C903 C900 1.374 . S
C903 C904 1.390 . S
C903 H930 0.930 . S
C904 C903 1.390 . S
C904 C905 1.391 . S
C904 H931 0.930 . S
C905 C901 1.387 . S
C905 C904 1.391 . S
C906 Tb896 2.825 . S
C906 C900 1.507 . S
C906 O919 1.238 . S
C906 O920 1.247 . S
O907 Tb896 2.347 . S
O907 C911 1.259 . S
O908 Eu897 2.418 . S
O908 C911 1.265 . S
O909 Eu897 2.384 . S
O909 C918 1.255 . S
O910 Tb896 2.366 . S
O910 C918 1.265 . S
C911 O907 1.259 . S
C911 O908 1.265 . S
O912 Eu897 2.479 . S
O912 C927 1.238 . S
O913 Eu897 2.471 . S
O913 C927 1.247 . S
O914 Eu897 2.347 . S
O914 C898 1.259 . S
O915 Tb896 2.418 . S
O915 C898 1.265 . S
O916 Tb896 2.384 . S
O916 C899 1.255 . S
O917 Eu897 2.366 . S
O917 C899 1.265 . S
C918 O909 1.255 . S
C918 O910 1.265 . S
O919 Tb896 2.479 . S
O919 C906 1.238 . S
O920 Tb896 2.471 . S
O920 C906 1.247 . S
C921 C924 1.380 . S
C921 C925 1.374 . S
C921 C927 1.507 . S
C922 C923 1.387 . S
C922 C926 1.391 . S
C923 C922 1.387 . S
C923 C924 1.384 . S
C923 H932 0.930 . S
C924 C921 1.380 . S
C924 C923 1.384 . S
C924 H933 0.931 . S
C925 C921 1.374 . S
C925 C926 1.390 . S
C925 H934 0.930 . S
C926 C922 1.391 . S
C926 C925 1.390 . S
C926 H935 0.930 . S
C927 Eu897 2.825 . S
C927 O912 1.238 . S
C927 O913 1.247 . S
C927 C921 1.507 . S
H928 C901 0.930 . S
H929 C902 0.931 . S
H930 C903 0.930 . S
H931 C904 0.930 . S
H932 C923 0.930 . S
H933 C924 0.931 . S
H934 C925 0.930 . S
H935 C926 0.930 . S
Tb936 C946 2.825 1_554 S
Tb936 O947 2.347 1_554 S
Tb936 O950 2.366 . S
Tb936 O955 2.418 . S
Tb936 O956 2.384 . S
Tb936 O959 2.479 . S
Tb936 O960 2.471 1_554 S
Eu937 O948 2.418 1_554 S
Eu937 O949 2.384 . S
Eu937 O952 2.479 . S
Eu937 O953 2.471 . S
Eu937 O954 2.347 . S
Eu937 O957 2.366 . S
Eu937 C967 2.825 . S
C938 O954 1.259 . S
C938 O955 1.265 . S
C939 O956 1.255 . S
C939 O957 1.265 . S
C940 C942 1.386 . S
C940 C943 1.374 . S
C940 C946 1.507 . S
C941 C942 1.389 . S
C941 C945 1.387 . S
C941 H968 0.930 . S
C942 C940 1.386 . S
C942 C941 1.389 . S
C942 H969 0.919 1_556 S
C943 C940 1.374 . S
C943 C944 1.390 . S
C943 H970 0.930 . S
C944 C943 1.390 . S
C944 C945 1.391 . S
C944 H971 0.930 . S
C945 C941 1.387 . S
C945 C944 1.391 . S
C946 Tb936 2.825 1_556 S
C946 C940 1.507 . S
C946 O959 1.238 1_556 S
C946 O960 1.247 . S
O947 Tb936 2.347 1_556 S
O947 C951 1.259 . S
O948 Eu937 2.418 1_556 S
O948 C951 1.265 . S
O949 Eu937 2.384 . S
O949 C958 1.255 . S
O950 Tb936 2.366 . S
O950 C958 1.265 . S
C951 O947 1.259 . S
C951 O948 1.265 . S
O952 Eu937 2.479 . S
O952 C967 1.238 . S
O953 Eu937 2.471 . S
O953 C967 1.247 . S
O954 Eu937 2.347 . S
O954 C938 1.259 . S
O955 Tb936 2.418 . S
O955 C938 1.265 . S
O956 Tb936 2.384 . S
O956 C939 1.255 . S
O957 Eu937 2.366 . S
O957 C939 1.265 . S
C958 O949 1.255 . S
C958 O950 1.265 . S
O959 Tb936 2.479 . S
O959 C946 1.238 1_554 S
O960 Tb936 2.471 1_556 S
O960 C946 1.247 . S
C961 C964 1.380 . S
C961 C965 1.374 . S
C961 C967 1.507 . S
C962 C963 1.387 . S
C962 C966 1.391 . S
C963 C962 1.387 . S
C963 C964 1.384 . S
C963 H972 0.930 . S
C964 C961 1.380 . S
C964 C963 1.384 . S
C964 H973 0.931 . S
C965 C961 1.374 . S
C965 C966 1.390 . S
C965 H974 0.930 . S
C966 C962 1.391 . S
C966 C965 1.390 . S
C966 H975 0.930 . S
C967 Eu937 2.825 . S
C967 O952 1.238 . S
C967 O953 1.247 . S
C967 C961 1.507 . S
H968 C941 0.930 . S
H969 C942 0.919 1_554 S
H970 C943 0.930 . S
H971 C944 0.930 . S
H972 C963 0.930 . S
H973 C964 0.931 . S
H974 C965 0.930 . S
H975 C966 0.930 . S
C976 C977 1.363 1_655 S
C976 C982 1.379 1_655 S
C976 N984 1.356 . S
C977 C976 1.363 1_455 S
C977 C983 1.363 . S
C978 C979 1.372 . S
C978 C983 1.379 . S
C978 N985 1.356 1_556 S
C979 C978 1.372 . S
C979 C982 1.366 . S
N980 C982 1.356 1_654 S
N980 H992 0.984 . S
N980 H993 0.985 1_655 S
N981 C983 1.356 . S
N981 H986 0.984 . S
N981 H987 0.985 . S
C982 C976 1.379 1_455 S
C982 C979 1.366 . S
C982 N980 1.356 1_456 S
C983 C977 1.363 . S
C983 C978 1.379 . S
C983 N981 1.356 . S
N984 C976 1.356 . S
N984 H990 0.984 . S
N984 H991 0.984 . S
N985 C978 1.356 1_554 S
N985 H988 0.984 . S
N985 H989 0.985 1_554 S
H986 N981 0.984 . S
H987 N981 0.985 . S
H988 N985 0.984 . S
H989 N985 0.985 1_556 S
H990 N984 0.984 . S
H991 N984 0.984 . S
H992 N980 0.984 . S
H993 N980 0.985 1_455 S
C994 C995 1.363 . S
C994 C1000 1.379 . S
C994 N1002 1.356 . S
C995 C994 1.363 . S
C995 C1001 1.363 . S
C996 C997 1.363 . S
C996 C1001 1.379 . S
C996 N1003 1.356 . S
C997 C996 1.363 . S
C997 C1000 1.363 . S
N998 C1000 1.356 . S
N998 H1010 0.984 . S
N998 H1011 0.985 . S
N999 C1001 1.356 . S
N999 H1004 0.984 . S
N999 H1005 0.985 . S
C1000 C994 1.379 . S
C1000 C997 1.363 . S
C1000 N998 1.356 . S
C1001 C995 1.363 . S
C1001 C996 1.379 . S
C1001 N999 1.356 . S
N1002 C994 1.356 . S
N1002 H1008 0.984 . S
N1002 H1009 0.984 . S
N1003 C996 1.356 . S
N1003 H1006 0.984 . S
N1003 H1007 0.985 . S
H1004 N999 0.984 . S
H1005 N999 0.985 . S
H1006 N1003 0.984 . S
H1007 N1003 0.985 . S
H1008 N1002 0.984 . S
H1009 N1002 0.984 . S
H1010 N998 0.984 . S
H1011 N998 0.985 . S
C1012 C1013 1.363 . S
C1012 C1018 1.379 . S
C1012 N1020 1.356 . S
C1013 C1012 1.363 . S
C1013 C1019 1.363 . S
C1014 C1015 1.363 . S
C1014 C1019 1.379 . S
C1014 N1021 1.356 . S
C1015 C1014 1.363 . S
C1015 C1018 1.363 . S
N1016 C1018 1.356 . S
N1016 H1028 0.984 . S
N1016 H1029 0.985 . S
N1017 C1019 1.356 . S
N1017 H1022 0.984 . S
N1017 H1023 0.985 . S
C1018 C1012 1.379 . S
C1018 C1015 1.363 . S
C1018 N1016 1.356 . S
C1019 C1013 1.363 . S
C1019 C1014 1.379 . S
C1019 N1017 1.356 . S
N1020 C1012 1.356 . S
N1020 H1026 0.984 . S
N1020 H1027 0.984 . S
N1021 C1014 1.356 . S
N1021 H1024 0.984 . S
N1021 H1025 0.985 . S
H1022 N1017 0.984 . S
H1023 N1017 0.985 . S
H1024 N1021 0.984 . S
H1025 N1021 0.985 . S
H1026 N1020 0.984 . S
H1027 N1020 0.984 . S
H1028 N1016 0.984 . S
H1029 N1016 0.985 . S
C1030 C1031 1.363 . S
C1030 C1036 1.379 . S
C1030 N1038 1.356 . S
C1031 C1030 1.363 . S
C1031 C1037 1.363 . S
C1032 C1033 1.363 . S
C1032 C1037 1.379 . S
C1032 N1039 1.356 . S
C1033 C1032 1.363 . S
C1033 C1036 1.363 . S
N1034 C1036 1.356 . S
N1034 H1046 0.984 . S
N1034 H1047 0.985 . S
N1035 C1037 1.356 . S
N1035 H1040 0.984 . S
N1035 H1041 0.985 . S
C1036 C1030 1.379 . S
C1036 C1033 1.363 . S
C1036 N1034 1.356 . S
C1037 C1031 1.363 . S
C1037 C1032 1.379 . S
C1037 N1035 1.356 . S
N1038 C1030 1.356 . S
N1038 H1044 0.984 . S
N1038 H1045 0.984 . S
N1039 C1032 1.356 . S
N1039 H1042 0.984 . S
N1039 H1043 0.985 . S
H1040 N1035 0.984 . S
H1041 N1035 0.985 . S
H1042 N1039 0.984 . S
H1043 N1039 0.985 . S
H1044 N1038 0.984 . S
H1045 N1038 0.984 . S
H1046 N1034 0.984 . S
H1047 N1034 0.985 . S
C1048 C1049 1.363 . S
C1048 C1054 1.379 . S
C1048 N1056 1.356 . S
C1049 C1048 1.363 . S
C1049 C1055 1.363 . S
C1050 C1051 1.363 . S
C1050 C1055 1.379 . S
C1050 N1057 1.356 . S
C1051 C1050 1.363 . S
C1051 C1054 1.363 . S
N1052 C1054 1.356 . S
N1052 H1064 0.984 . S
N1052 H1065 0.985 . S
N1053 C1055 1.356 . S
N1053 H1058 0.984 . S
N1053 H1059 0.985 . S
C1054 C1048 1.379 . S
C1054 C1051 1.363 . S
C1054 N1052 1.356 . S
C1055 C1049 1.363 . S
C1055 C1050 1.379 . S
C1055 N1053 1.356 . S
N1056 C1048 1.356 . S
N1056 H1062 0.984 . S
N1056 H1063 0.984 . S
N1057 C1050 1.356 . S
N1057 H1060 0.984 . S
N1057 H1061 0.985 . S
H1058 N1053 0.984 . S
H1059 N1053 0.985 . S
H1060 N1057 0.984 . S
H1061 N1057 0.985 . S
H1062 N1056 0.984 . S
H1063 N1056 0.984 . S
H1064 N1052 0.984 . S
H1065 N1052 0.985 . S
C1066 C1067 1.363 . S
C1066 C1072 1.379 . S
C1066 N1074 1.356 . S
C1067 C1066 1.363 . S
C1067 C1073 1.363 . S
C1068 C1069 1.363 . S
C1068 C1073 1.379 . S
C1068 N1075 1.356 . S
C1069 C1068 1.363 . S
C1069 C1072 1.363 . S
N1070 C1072 1.356 . S
N1070 H1082 0.984 . S
N1070 H1083 0.985 . S
N1071 C1073 1.356 . S
N1071 H1076 0.984 . S
N1071 H1077 0.985 . S
C1072 C1066 1.379 . S
C1072 C1069 1.363 . S
C1072 N1070 1.356 . S
C1073 C1067 1.363 . S
C1073 C1068 1.379 . S
C1073 N1071 1.356 . S
N1074 C1066 1.356 . S
N1074 H1080 0.984 . S
N1074 H1081 0.984 . S
N1075 C1068 1.356 . S
N1075 H1078 0.984 . S
N1075 H1079 0.985 . S
H1076 N1071 0.984 . S
H1077 N1071 0.985 . S
H1078 N1075 0.984 . S
H1079 N1075 0.985 . S
H1080 N1074 0.984 . S
H1081 N1074 0.984 . S
H1082 N1070 0.984 . S
H1083 N1070 0.985 . S
C1084 C1085 1.363 . S
C1084 C1090 1.379 . S
C1084 N1092 1.356 . S
C1085 C1084 1.363 . S
C1085 C1091 1.363 . S
C1086 C1087 1.363 . S
C1086 C1091 1.379 . S
C1086 N1093 1.356 . S
C1087 C1086 1.363 . S
C1087 C1090 1.363 . S
N1088 C1090 1.356 . S
N1088 H1100 0.984 . S
N1088 H1101 0.985 . S
N1089 C1091 1.356 . S
N1089 H1094 0.984 . S
N1089 H1095 0.985 . S
C1090 C1084 1.379 . S
C1090 C1087 1.363 . S
C1090 N1088 1.356 . S
C1091 C1085 1.363 . S
C1091 C1086 1.379 . S
C1091 N1089 1.356 . S
N1092 C1084 1.356 . S
N1092 H1098 0.984 . S
N1092 H1099 0.984 . S
N1093 C1086 1.356 . S
N1093 H1096 0.984 . S
N1093 H1097 0.985 . S
H1094 N1089 0.984 . S
H1095 N1089 0.985 . S
H1096 N1093 0.984 . S
H1097 N1093 0.985 . S
H1098 N1092 0.984 . S
H1099 N1092 0.984 . S
H1100 N1088 0.984 . S
H1101 N1088 0.985 . S
C1102 C1103 1.363 . S
C1102 C1108 1.379 . S
C1102 N1110 1.356 . S
C1103 C1102 1.363 . S
C1103 C1109 1.363 . S
C1104 C1105 1.363 . S
C1104 C1109 1.379 . S
C1104 N1111 1.356 . S
C1105 C1104 1.363 . S
C1105 C1108 1.363 . S
N1106 C1108 1.356 . S
N1106 H1118 0.984 . S
N1106 H1119 0.985 . S
N1107 C1109 1.356 . S
N1107 H1112 0.984 . S
N1107 H1113 0.985 . S
C1108 C1102 1.379 . S
C1108 C1105 1.363 . S
C1108 N1106 1.356 . S
C1109 C1103 1.363 . S
C1109 C1104 1.379 . S
C1109 N1107 1.356 . S
N1110 C1102 1.356 . S
N1110 H1116 0.984 . S
N1110 H1117 0.984 . S
N1111 C1104 1.356 . S
N1111 H1114 0.984 . S
N1111 H1115 0.985 . S
H1112 N1107 0.984 . S
H1113 N1107 0.985 . S
H1114 N1111 0.984 . S
H1115 N1111 0.985 . S
H1116 N1110 0.984 . S
H1117 N1110 0.984 . S
H1118 N1106 0.984 . S
H1119 N1106 0.985 . S
C1120 C1121 1.363 . S
C1120 C1126 1.379 . S
C1120 N1128 1.356 . S
C1121 C1120 1.363 . S
C1121 C1127 1.363 . S
C1122 C1123 1.363 . S
C1122 C1127 1.379 1_455 S
C1122 N1129 1.356 . S
C1123 C1122 1.363 . S
C1123 C1126 1.363 1_455 S
N1124 C1126 1.356 . S
N1124 H1136 0.984 . S
N1124 H1137 0.985 1_655 S
N1125 C1127 1.356 1_565 S
N1125 H1130 0.984 . S
N1125 H1131 0.985 . S
C1126 C1120 1.379 . S
C1126 C1123 1.363 1_655 S
C1126 N1124 1.356 . S
C1127 C1121 1.363 . S
C1127 C1122 1.379 1_655 S
C1127 N1125 1.356 1_545 S
N1128 C1120 1.356 . S
N1128 H1134 0.984 . S
N1128 H1135 0.984 . S
N1129 C1122 1.356 . S
N1129 H1132 0.984 . S
N1129 H1133 0.985 . S
H1130 N1125 0.984 . S
H1131 N1125 0.985 . S
H1132 N1129 0.984 . S
H1133 N1129 0.985 . S
H1134 N1128 0.984 . S
H1135 N1128 0.984 . S
H1136 N1124 0.984 . S
H1137 N1124 0.985 1_455 S
C1138 C1139 1.363 . S
C1138 C1144 1.379 . S
C1138 N1146 1.356 . S
C1139 C1138 1.363 . S
C1139 C1145 1.363 . S
C1140 C1141 1.363 . S
C1140 C1145 1.379 . S
C1140 N1147 1.356 . S
C1141 C1140 1.363 . S
C1141 C1144 1.363 . S
N1142 C1144 1.356 . S
N1142 H1154 0.984 . S
N1142 H1155 0.985 . S
N1143 C1145 1.356 . S
N1143 H1148 0.984 . S
N1143 H1149 0.985 . S
C1144 C1138 1.379 . S
C1144 C1141 1.363 . S
C1144 N1142 1.356 . S
C1145 C1139 1.363 . S
C1145 C1140 1.379 . S
C1145 N1143 1.356 . S
N1146 C1138 1.356 . S
N1146 H1152 0.984 . S
N1146 H1153 0.984 . S
N1147 C1140 1.356 . S
N1147 H1150 0.984 . S
N1147 H1151 0.985 . S
H1148 N1143 0.984 . S
H1149 N1143 0.985 . S
H1150 N1147 0.984 . S
H1151 N1147 0.985 . S
H1152 N1146 0.984 . S
H1153 N1146 0.984 . S
H1154 N1142 0.984 . S
H1155 N1142 0.985 . S
C1156 C1157 1.363 . S
C1156 C1162 1.379 . S
C1156 N1164 1.356 1_545 S
C1157 C1156 1.363 . S
C1157 C1163 1.363 . S
C1158 C1159 1.363 . S
C1158 C1163 1.379 . S
C1158 N1165 1.356 . S
C1159 C1158 1.363 . S
C1159 C1162 1.363 . S
N1160 C1162 1.356 . S
N1160 H1172 0.984 . S
N1160 H1173 0.985 . S
N1161 C1163 1.356 . S
N1161 H1166 0.984 1_545 S
N1161 H1167 0.985 . S
C1162 C1156 1.379 . S
C1162 C1159 1.363 . S
C1162 N1160 1.356 . S
C1163 C1157 1.363 . S
C1163 C1158 1.379 . S
C1163 N1161 1.356 . S
N1164 C1156 1.356 1_565 S
N1164 H1170 0.984 . S
N1164 H1171 0.984 . S
N1165 C1158 1.356 . S
N1165 H1168 0.984 . S
N1165 H1169 0.985 . S
H1166 N1161 0.984 1_565 S
H1167 N1161 0.985 . S
H1168 N1165 0.984 . S
H1169 N1165 0.985 . S
H1170 N1164 0.984 . S
H1171 N1164 0.984 . S
H1172 N1160 0.984 . S
H1173 N1160 0.985 . S
C1174 C1175 1.363 . S
C1174 C1180 1.379 . S
C1174 N1182 1.356 . S
C1175 C1174 1.363 . S
C1175 C1181 1.363 . S
C1176 C1177 1.363 . S
C1176 C1181 1.379 . S
C1176 N1183 1.356 . S
C1177 C1176 1.363 . S
C1177 C1180 1.363 . S
N1178 C1180 1.356 . S
N1178 H1190 0.984 . S
N1178 H1191 0.985 . S
N1179 C1181 1.356 . S
N1179 H1184 0.984 . S
N1179 H1185 0.985 . S
C1180 C1174 1.379 . S
C1180 C1177 1.363 . S
C1180 N1178 1.356 . S
C1181 C1175 1.363 . S
C1181 C1176 1.379 . S
C1181 N1179 1.356 . S
N1182 C1174 1.356 . S
N1182 H1188 0.984 . S
N1182 H1189 0.984 . S
N1183 C1176 1.356 . S
N1183 H1186 0.984 . S
N1183 H1187 0.985 . S
H1184 N1179 0.984 . S
H1185 N1179 0.985 . S
H1186 N1183 0.984 . S
H1187 N1183 0.985 . S
H1188 N1182 0.984 . S
H1189 N1182 0.984 . S
H1190 N1178 0.984 . S
H1191 N1178 0.985 . S
C1192 C1193 1.363 . S
C1192 C1198 1.379 . S
C1192 N1200 1.356 . S
C1193 C1192 1.363 . S
C1193 C1199 1.363 1_545 S
C1194 C1195 1.363 . S
C1194 C1199 1.379 1_545 S
C1194 N1201 1.356 . S
C1195 C1194 1.363 . S
C1195 C1198 1.363 . S
N1196 C1198 1.356 . S
N1196 H1208 0.984 . S
N1196 H1209 0.985 1_655 S
N1197 C1199 1.356 . S
N1197 H1202 0.984 . S
N1197 H1203 0.985 . S
C1198 C1192 1.379 . S
C1198 C1195 1.363 . S
C1198 N1196 1.356 . S
C1199 C1193 1.363 1_565 S
C1199 C1194 1.379 1_565 S
C1199 N1197 1.356 . S
N1200 C1192 1.356 . S
N1200 H1206 0.984 . S
N1200 H1207 0.984 . S
N1201 C1194 1.356 . S
N1201 H1204 0.984 . S
N1201 H1205 0.985 1_545 S
H1202 N1197 0.984 . S
H1203 N1197 0.985 . S
H1204 N1201 0.984 . S
H1205 N1201 0.985 1_565 S
H1206 N1200 0.984 . S
H1207 N1200 0.984 . S
H1208 N1196 0.984 . S
H1209 N1196 0.985 1_455 S
C1210 C1211 1.363 . S
C1210 C1216 1.379 . S
C1210 N1218 1.356 . S
C1211 C1210 1.363 . S
C1211 C1217 1.363 . S
C1212 C1213 1.363 . S
C1212 C1217 1.379 . S
C1212 N1219 1.356 . S
C1213 C1212 1.363 . S
C1213 C1216 1.363 . S
N1214 C1216 1.356 . S
N1214 H1226 0.984 . S
N1214 H1227 0.985 . S
N1215 C1217 1.356 . S
N1215 H1220 0.984 . S
N1215 H1221 0.985 . S
C1216 C1210 1.379 . S
C1216 C1213 1.363 . S
C1216 N1214 1.356 . S
C1217 C1211 1.363 . S
C1217 C1212 1.379 . S
C1217 N1215 1.356 . S
N1218 C1210 1.356 . S
N1218 H1224 0.984 . S
N1218 H1225 0.984 . S
N1219 C1212 1.356 . S
N1219 H1222 0.984 . S
N1219 H1223 0.985 . S
H1220 N1215 0.984 . S
H1221 N1215 0.985 . S
H1222 N1219 0.984 . S
H1223 N1219 0.985 . S
H1224 N1218 0.984 . S
H1225 N1218 0.984 . S
H1226 N1214 0.984 . S
H1227 N1214 0.985 . S
C1228 C1229 1.363 . S
C1228 C1234 1.379 . S
C1228 N1236 1.356 . S
C1229 C1228 1.363 . S
C1229 C1235 1.363 . S
C1230 C1231 1.363 . S
C1230 C1235 1.379 . S
C1230 N1237 1.356 . S
C1231 C1230 1.363 . S
C1231 C1234 1.363 . S
N1232 C1234 1.356 . S
N1232 H1244 0.984 . S
N1232 H1245 0.985 . S
N1233 C1235 1.356 . S
N1233 H1238 0.984 . S
N1233 H1239 0.985 . S
C1234 C1228 1.379 . S
C1234 C1231 1.363 . S
C1234 N1232 1.356 . S
C1235 C1229 1.363 . S
C1235 C1230 1.379 . S
C1235 N1233 1.356 . S
N1236 C1228 1.356 . S
N1236 H1242 0.984 . S
N1236 H1243 0.984 1_545 S
N1237 C1230 1.356 . S
N1237 H1240 0.984 . S
N1237 H1241 0.985 . S
H1238 N1233 0.984 . S
H1239 N1233 0.985 . S
H1240 N1237 0.984 . S
H1241 N1237 0.985 . S
H1242 N1236 0.984 . S
H1243 N1236 0.984 1_565 S
H1244 N1232 0.984 . S
H1245 N1232 0.985 . S
C1246 C1247 1.363 . S
C1246 C1252 1.379 . S
C1246 N1254 1.356 . S
C1247 C1246 1.363 . S
C1247 C1253 1.363 . S
C1248 C1249 1.363 . S
C1248 C1253 1.379 . S
C1248 N1255 1.356 . S
C1249 C1248 1.363 . S
C1249 C1252 1.363 . S
N1250 C1252 1.356 . S
N1250 H1262 0.984 . S
N1250 H1263 0.985 . S
N1251 C1253 1.356 . S
N1251 H1256 0.984 . S
N1251 H1257 0.985 . S
C1252 C1246 1.379 . S
C1252 C1249 1.363 . S
C1252 N1250 1.356 . S
C1253 C1247 1.363 . S
C1253 C1248 1.379 . S
C1253 N1251 1.356 . S
N1254 C1246 1.356 . S
N1254 H1260 0.984 . S
N1254 H1261 0.984 . S
N1255 C1248 1.356 . S
N1255 H1258 0.984 . S
N1255 H1259 0.985 . S
H1256 N1251 0.984 . S
H1257 N1251 0.985 . S
H1258 N1255 0.984 . S
H1259 N1255 0.985 . S
H1260 N1254 0.984 . S
H1261 N1254 0.984 . S
H1262 N1250 0.984 . S
H1263 N1250 0.985 . S
C1264 C1265 1.363 . S
C1264 C1270 1.379 . S
C1264 N1272 1.356 . S
C1265 C1264 1.363 . S
C1265 C1271 1.363 . S
C1266 C1267 1.363 . S
C1266 C1271 1.379 . S
C1266 N1273 1.356 1_565 S
C1267 C1266 1.363 . S
C1267 C1270 1.363 . S
N1268 C1270 1.356 . S
N1268 H1280 0.984 . S
N1268 H1281 0.973 1_565 S
N1269 C1271 1.356 . S
N1269 H1274 0.984 . S
N1269 H1275 0.985 . S
C1270 C1264 1.379 . S
C1270 C1267 1.363 . S
C1270 N1268 1.356 . S
C1271 C1265 1.363 . S
C1271 C1266 1.379 . S
C1271 N1269 1.356 . S
N1272 C1264 1.356 . S
N1272 H1278 0.984 . S
N1272 H1279 0.984 . S
N1273 C1266 1.356 1_545 S
N1273 H1276 0.984 . S
N1273 H1277 0.985 . S
H1274 N1269 0.984 . S
H1275 N1269 0.985 . S
H1276 N1273 0.984 . S
H1277 N1273 0.985 . S
H1278 N1272 0.984 . S
H1279 N1272 0.984 . S
H1280 N1268 0.984 . S
H1281 N1268 0.973 1_545 S
C1282 C1283 1.363 . S
C1282 C1288 1.379 . S
C1282 N1290 1.356 . S
C1283 C1282 1.363 . S
C1283 C1289 1.363 . S
C1284 C1285 1.363 . S
C1284 C1289 1.379 . S
C1284 N1291 1.356 . S
C1285 C1284 1.363 . S
C1285 C1288 1.363 . S
N1286 C1288 1.356 . S
N1286 H1298 0.984 . S
N1286 H1299 0.985 . S
N1287 C1289 1.356 . S
N1287 H1292 0.984 . S
N1287 H1293 0.985 1_554 S
C1288 C1282 1.379 . S
C1288 C1285 1.363 . S
C1288 N1286 1.356 . S
C1289 C1283 1.363 . S
C1289 C1284 1.379 . S
C1289 N1287 1.356 . S
N1290 C1282 1.356 . S
N1290 H1296 0.984 . S
N1290 H1297 0.984 . S
N1291 C1284 1.356 . S
N1291 H1294 0.984 . S
N1291 H1295 0.985 . S
H1292 N1287 0.984 . S
H1293 N1287 0.985 1_556 S
H1294 N1291 0.984 . S
H1295 N1291 0.985 . S
H1296 N1290 0.984 . S
H1297 N1290 0.984 . S
H1298 N1286 0.984 . S
H1299 N1286 0.985 . S
C1300 C1301 1.363 . S
C1300 C1306 1.379 . S
C1300 N1308 1.356 . S
C1301 C1300 1.363 . S
C1301 C1307 1.363 . S
C1302 C1303 1.363 . S
C1302 C1307 1.379 . S
C1302 N1309 1.356 . S
C1303 C1302 1.363 . S
C1303 C1306 1.363 . S
N1304 C1306 1.356 . S
N1304 H1316 0.984 . S
N1304 H1317 0.985 . S
N1305 C1307 1.356 . S
N1305 H1310 0.984 . S
N1305 H1311 0.985 . S
C1306 C1300 1.379 . S
C1306 C1303 1.363 . S
C1306 N1304 1.356 . S
C1307 C1301 1.363 . S
C1307 C1302 1.379 . S
C1307 N1305 1.356 . S
N1308 C1300 1.356 . S
N1308 H1314 0.984 . S
N1308 H1315 0.984 . S
N1309 C1302 1.356 . S
N1309 H1312 0.984 . S
N1309 H1313 0.985 . S
H1310 N1305 0.984 . S
H1311 N1305 0.985 . S
H1312 N1309 0.984 . S
H1313 N1309 0.985 . S
H1314 N1308 0.984 . S
H1315 N1308 0.984 . S
H1316 N1304 0.984 . S
H1317 N1304 0.985 . S
C1318 C1319 1.363 . S
C1318 C1324 1.379 . S
C1318 N1326 1.356 . S
C1319 C1318 1.363 . S
C1319 C1325 1.363 . S
C1320 C1321 1.363 . S
C1320 C1325 1.379 . S
C1320 N1327 1.356 1_655 S
C1321 C1320 1.363 . S
C1321 C1324 1.363 . S
N1322 C1324 1.356 . S
N1322 H1334 0.984 . S
N1322 H1335 0.985 . S
N1323 C1325 1.356 . S
N1323 H1328 0.984 . S
N1323 H1329 0.985 . S
C1324 C1318 1.379 . S
C1324 C1321 1.363 . S
C1324 N1322 1.356 . S
C1325 C1319 1.363 . S
C1325 C1320 1.379 . S
C1325 N1323 1.356 . S
N1326 C1318 1.356 . S
N1326 H1332 0.984 . S
N1326 H1333 0.984 . S
N1327 C1320 1.356 1_455 S
N1327 H1330 0.984 . S
N1327 H1331 0.985 . S
H1328 N1323 0.984 . S
H1329 N1323 0.985 . S
H1330 N1327 0.984 . S
H1331 N1327 0.985 . S
H1332 N1326 0.984 . S
H1333 N1326 0.984 . S
H1334 N1322 0.984 . S
H1335 N1322 0.985 . S
C1336 C1337 1.363 . S
C1336 C1342 1.379 . S
C1336 N1344 1.356 . S
C1337 C1336 1.363 . S
C1337 C1343 1.363 . S
C1338 C1339 1.363 . S
C1338 C1343 1.379 . S
C1338 N1345 1.356 . S
C1339 C1338 1.363 . S
C1339 C1342 1.363 . S
N1340 C1342 1.356 . S
N1340 H1352 0.984 . S
N1340 H1353 0.985 . S
N1341 C1343 1.356 . S
N1341 H1346 0.984 . S
N1341 H1347 0.985 . S
C1342 C1336 1.379 . S
C1342 C1339 1.363 . S
C1342 N1340 1.356 . S
C1343 C1337 1.363 . S
C1343 C1338 1.379 . S
C1343 N1341 1.356 . S
N1344 C1336 1.356 . S
N1344 H1350 0.984 . S
N1344 H1351 0.984 . S
N1345 C1338 1.356 . S
N1345 H1348 0.984 . S
N1345 H1349 0.985 . S
H1346 N1341 0.984 . S
H1347 N1341 0.985 . S
H1348 N1345 0.984 . S
H1349 N1345 0.985 . S
H1350 N1344 0.984 . S
H1351 N1344 0.984 . S
H1352 N1340 0.984 . S
H1353 N1340 0.985 . S
C1354 C1355 1.363 . S
C1354 C1360 1.379 . S
C1354 N1362 1.356 . S
C1355 C1354 1.363 . S
C1355 C1361 1.363 . S
C1356 C1357 1.363 . S
C1356 C1361 1.379 . S
C1356 N1363 1.356 . S
C1357 C1356 1.363 . S
C1357 C1360 1.363 . S
N1358 C1360 1.356 . S
N1358 H1370 0.984 . S
N1358 H1371 0.985 . S
N1359 C1361 1.356 . S
N1359 H1364 0.984 . S
N1359 H1365 0.985 . S
C1360 C1354 1.379 . S
C1360 C1357 1.363 . S
C1360 N1358 1.356 . S
C1361 C1355 1.363 . S
C1361 C1356 1.379 . S
C1361 N1359 1.356 . S
N1362 C1354 1.356 . S
N1362 H1368 0.984 . S
N1362 H1369 0.984 . S
N1363 C1356 1.356 . S
N1363 H1366 0.984 . S
N1363 H1367 0.985 . S
H1364 N1359 0.984 . S
H1365 N1359 0.985 . S
H1366 N1363 0.984 . S
H1367 N1363 0.985 . S
H1368 N1362 0.984 . S
H1369 N1362 0.984 . S
H1370 N1358 0.984 . S
H1371 N1358 0.985 . S
C1372 C1373 1.363 . S
C1372 C1378 1.379 . S
C1372 N1380 1.356 . S
C1373 C1372 1.363 . S
C1373 C1379 1.363 . S
C1374 C1375 1.363 . S
C1374 C1379 1.379 . S
C1374 N1381 1.356 . S
C1375 C1374 1.363 . S
C1375 C1378 1.363 . S
N1376 C1378 1.356 . S
N1376 H1388 0.984 . S
N1376 H1389 0.985 . S
N1377 C1379 1.356 . S
N1377 H1382 0.984 . S
N1377 H1383 0.985 . S
C1378 C1372 1.379 . S
C1378 C1375 1.363 . S
C1378 N1376 1.356 . S
C1379 C1373 1.363 . S
C1379 C1374 1.379 . S
C1379 N1377 1.356 . S
N1380 C1372 1.356 . S
N1380 H1386 0.984 . S
N1380 H1387 0.984 . S
N1381 C1374 1.356 . S
N1381 H1384 0.984 . S
N1381 H1385 0.985 . S
H1382 N1377 0.984 . S
H1383 N1377 0.985 . S
H1384 N1381 0.984 . S
H1385 N1381 0.985 . S
H1386 N1380 0.984 . S
H1387 N1380 0.984 . S
H1388 N1376 0.984 . S
H1389 N1376 0.985 . S
C1390 C1391 1.363 . S
C1390 C1396 1.379 . S
C1390 N1398 1.356 . S
C1391 C1390 1.363 . S
C1391 C1397 1.363 . S
C1392 C1393 1.363 . S
C1392 C1397 1.379 . S
C1392 N1399 1.356 . S
C1393 C1392 1.363 . S
C1393 C1396 1.363 . S
N1394 C1396 1.356 . S
N1394 H1406 0.984 . S
N1394 H1407 0.985 . S
N1395 C1397 1.356 . S
N1395 H1400 0.984 . S
N1395 H1401 0.985 . S
C1396 C1390 1.379 . S
C1396 C1393 1.363 . S
C1396 N1394 1.356 . S
C1397 C1391 1.363 . S
C1397 C1392 1.379 . S
C1397 N1395 1.356 . S
N1398 C1390 1.356 . S
N1398 H1404 0.984 1_655 S
N1398 H1405 0.984 1_655 S
N1399 C1392 1.356 . S
N1399 H1402 0.984 . S
N1399 H1403 0.985 . S
H1400 N1395 0.984 . S
H1401 N1395 0.985 . S
H1402 N1399 0.984 . S
H1403 N1399 0.985 . S
H1404 N1398 0.984 1_455 S
H1405 N1398 0.984 1_455 S
H1406 N1394 0.984 . S
H1407 N1394 0.985 . S
C1408 C1409 1.363 . S
C1408 C1414 1.379 . S
C1408 N1416 1.356 . S
C1409 C1408 1.363 . S
C1409 C1415 1.363 . S
C1410 C1411 1.363 . S
C1410 C1415 1.379 . S
C1410 N1417 1.356 . S
C1411 C1410 1.363 . S
C1411 C1414 1.363 . S
N1412 C1414 1.356 . S
N1412 H1424 0.984 1_565 S
N1412 H1425 0.985 1_565 S
N1413 C1415 1.356 . S
N1413 H1418 0.984 . S
N1413 H1419 0.985 . S
C1414 C1408 1.379 . S
C1414 C1411 1.363 . S
C1414 N1412 1.356 . S
C1415 C1409 1.363 . S
C1415 C1410 1.379 . S
C1415 N1413 1.356 . S
N1416 C1408 1.356 . S
N1416 H1422 0.984 . S
N1416 H1423 0.984 . S
N1417 C1410 1.356 . S
N1417 H1420 0.984 . S
N1417 H1421 0.985 . S
H1418 N1413 0.984 . S
H1419 N1413 0.985 . S
H1420 N1417 0.984 . S
H1421 N1417 0.985 . S
H1422 N1416 0.984 . S
H1423 N1416 0.984 . S
H1424 N1412 0.984 1_545 S
H1425 N1412 0.985 1_545 S
C1426 C1427 1.363 . S
C1426 C1432 1.379 . S
C1426 N1434 1.356 . S
C1427 C1426 1.363 . S
C1427 C1433 1.363 . S
C1428 C1429 1.363 . S
C1428 C1433 1.379 . S
C1428 N1435 1.356 . S
C1429 C1428 1.363 . S
C1429 C1432 1.363 . S
N1430 C1432 1.356 . S
N1430 H1442 0.984 . S
N1430 H1443 0.985 . S
N1431 C1433 1.356 . S
N1431 H1436 0.984 . S
N1431 H1437 0.985 . S
C1432 C1426 1.379 . S
C1432 C1429 1.363 . S
C1432 N1430 1.356 . S
C1433 C1427 1.363 . S
C1433 C1428 1.379 . S
C1433 N1431 1.356 . S
N1434 C1426 1.356 . S
N1434 H1440 0.984 . S
N1434 H1441 0.984 . S
N1435 C1428 1.356 . S
N1435 H1438 0.984 . S
N1435 H1439 0.985 . S
H1436 N1431 0.984 . S
H1437 N1431 0.985 . S
H1438 N1435 0.984 . S
H1439 N1435 0.985 . S
H1440 N1434 0.984 . S
H1441 N1434 0.984 . S
H1442 N1430 0.984 . S
H1443 N1430 0.985 . S
C1444 C1445 1.363 . S
C1444 C1450 1.379 . S
C1444 N1452 1.356 . S
C1445 C1444 1.363 . S
C1445 C1451 1.363 . S
C1446 C1447 1.363 . S
C1446 C1451 1.379 . S
C1446 N1453 1.356 . S
C1447 C1446 1.363 . S
C1447 C1450 1.363 . S
N1448 C1450 1.356 . S
N1448 H1460 0.984 . S
N1448 H1461 0.985 . S
N1449 C1451 1.356 . S
N1449 H1454 0.984 . S
N1449 H1455 0.985 . S
C1450 C1444 1.379 . S
C1450 C1447 1.363 . S
C1450 N1448 1.356 . S
C1451 C1445 1.363 . S
C1451 C1446 1.379 . S
C1451 N1449 1.356 . S
N1452 C1444 1.356 . S
N1452 H1458 0.984 . S
N1452 H1459 0.984 . S
N1453 C1446 1.356 . S
N1453 H1456 0.984 . S
N1453 H1457 0.985 . S
H1454 N1449 0.984 . S
H1455 N1449 0.985 . S
H1456 N1453 0.984 . S
H1457 N1453 0.985 . S
H1458 N1452 0.984 . S
H1459 N1452 0.984 . S
H1460 N1448 0.984 . S
H1461 N1448 0.985 . S
C1462 C1463 1.363 . S
C1462 C1468 1.379 . S
C1462 N1470 1.356 . S
C1463 C1462 1.363 . S
C1463 C1469 1.363 . S
C1464 C1465 1.363 . S
C1464 C1469 1.379 . S
C1464 N1471 1.356 . S
C1465 C1464 1.363 . S
C1465 C1468 1.363 . S
N1466 C1468 1.356 . S
N1466 H1478 0.984 . S
N1466 H1479 0.985 . S
N1467 C1469 1.356 . S
N1467 H1472 0.984 . S
N1467 H1473 0.985 . S
C1468 C1462 1.379 . S
C1468 C1465 1.363 . S
C1468 N1466 1.356 . S
C1469 C1463 1.363 . S
C1469 C1464 1.379 . S
C1469 N1467 1.356 . S
N1470 C1462 1.356 . S
N1470 H1476 0.984 . S
N1470 H1477 0.984 . S
N1471 C1464 1.356 . S
N1471 H1474 0.984 . S
N1471 H1475 0.985 . S
H1472 N1467 0.984 . S
H1473 N1467 0.985 . S
H1474 N1471 0.984 . S
H1475 N1471 0.985 . S
H1476 N1470 0.984 . S
H1477 N1470 0.984 . S
H1478 N1466 0.984 . S
H1479 N1466 0.985 . S
C1480 C1481 1.363 . S
C1480 C1486 1.379 . S
C1480 N1488 1.356 . S
C1481 C1480 1.363 . S
C1481 C1487 1.363 . S
C1482 C1483 1.363 . S
C1482 C1487 1.379 . S
C1482 N1489 1.356 1_455 S
C1483 C1482 1.363 . S
C1483 C1486 1.363 . S
N1484 C1486 1.356 . S
N1484 H1496 0.984 . S
N1484 H1497 0.985 . S
N1485 C1487 1.356 . S
N1485 H1490 0.984 . S
N1485 H1491 0.985 1_455 S
C1486 C1480 1.379 . S
C1486 C1483 1.363 . S
C1486 N1484 1.356 . S
C1487 C1481 1.363 . S
C1487 C1482 1.379 . S
C1487 N1485 1.356 . S
N1488 C1480 1.356 . S
N1488 H1494 0.984 . S
N1488 H1495 0.984 . S
N1489 C1482 1.356 1_655 S
N1489 H1492 0.971 1_655 S
N1489 H1493 0.985 . S
H1490 N1485 0.984 . S
H1491 N1485 0.985 1_655 S
H1492 N1489 0.971 1_455 S
H1493 N1489 0.985 . S
H1494 N1488 0.984 . S
H1495 N1488 0.984 . S
H1496 N1484 0.984 . S
H1497 N1484 0.985 . S
C1498 C1499 1.363 . S
C1498 C1504 1.379 . S
C1498 N1506 1.356 . S
C1499 C1498 1.363 . S
C1499 C1505 1.363 . S
C1500 C1501 1.363 . S
C1500 C1505 1.379 . S
C1500 N1507 1.356 . S
C1501 C1500 1.363 . S
C1501 C1504 1.363 . S
N1502 C1504 1.356 . S
N1502 H1514 0.984 . S
N1502 H1515 0.985 . S
N1503 C1505 1.356 . S
N1503 H1508 0.984 . S
N1503 H1509 0.985 . S
C1504 C1498 1.379 . S
C1504 C1501 1.363 . S
C1504 N1502 1.356 . S
C1505 C1499 1.363 . S
C1505 C1500 1.379 . S
C1505 N1503 1.356 . S
N1506 C1498 1.356 . S
N1506 H1512 0.984 . S
N1506 H1513 0.984 . S
N1507 C1500 1.356 . S
N1507 H1510 0.984 . S
N1507 H1511 0.985 . S
H1508 N1503 0.984 . S
H1509 N1503 0.985 . S
H1510 N1507 0.984 . S
H1511 N1507 0.985 . S
H1512 N1506 0.984 . S
H1513 N1506 0.984 . S
H1514 N1502 0.984 . S
H1515 N1502 0.985 . S
C1516 C1517 1.363 . S
C1516 C1522 1.379 . S
C1516 N1524 1.356 . S
C1517 C1516 1.363 . S
C1517 C1523 1.363 . S
C1518 C1519 1.363 . S
C1518 C1523 1.379 . S
C1518 N1525 1.356 . S
C1519 C1518 1.363 . S
C1519 C1522 1.363 . S
N1520 C1522 1.356 1_554 S
N1520 H1532 0.984 . S
N1520 H1533 0.985 . S
N1521 C1523 1.356 . S
N1521 H1526 0.984 . S
N1521 H1527 0.985 . S
C1522 C1516 1.379 . S
C1522 C1519 1.363 . S
C1522 N1520 1.356 1_556 S
C1523 C1517 1.363 . S
C1523 C1518 1.379 . S
C1523 N1521 1.356 . S
N1524 C1516 1.356 . S
N1524 H1530 0.984 . S
N1524 H1531 0.984 . S
N1525 C1518 1.356 . S
N1525 H1528 0.984 . S
N1525 H1529 0.985 . S
H1526 N1521 0.984 . S
H1527 N1521 0.985 . S
H1528 N1525 0.984 . S
H1529 N1525 0.985 . S
H1530 N1524 0.984 . S
H1531 N1524 0.984 . S
H1532 N1520 0.984 . S
H1533 N1520 0.985 . S
C1534 C1535 1.363 . S
C1534 C1540 1.379 . S
C1534 N1542 1.356 . S
C1535 C1534 1.363 . S
C1535 C1541 1.363 . S
C1536 C1537 1.363 . S
C1536 C1541 1.379 . S
C1536 N1543 1.356 . S
C1537 C1536 1.363 . S
C1537 C1540 1.363 . S
N1538 C1540 1.356 . S
N1538 H1550 0.984 . S
N1538 H1551 0.985 . S
N1539 C1541 1.356 . S
N1539 H1544 0.984 . S
N1539 H1545 0.985 . S
C1540 C1534 1.379 . S
C1540 C1537 1.363 . S
C1540 N1538 1.356 . S
C1541 C1535 1.363 . S
C1541 C1536 1.379 . S
C1541 N1539 1.356 . S
N1542 C1534 1.356 . S
N1542 H1548 0.984 . S
N1542 H1549 0.984 . S
N1543 C1536 1.356 . S
N1543 H1546 0.984 . S
N1543 H1547 0.985 . S
H1544 N1539 0.984 . S
H1545 N1539 0.985 . S
H1546 N1543 0.984 . S
H1547 N1543 0.985 . S
H1548 N1542 0.984 . S
H1549 N1542 0.984 . S
H1550 N1538 0.984 . S
H1551 N1538 0.985 . S
C1552 C1553 1.363 . S
C1552 C1558 1.379 . S
C1552 N1560 1.356 . S
C1553 C1552 1.363 . S
C1553 C1559 1.363 . S
C1554 C1555 1.363 . S
C1554 C1559 1.379 . S
C1554 N1561 1.356 1_556 S
C1555 C1554 1.363 . S
C1555 C1558 1.363 . S
N1556 C1558 1.356 . S
N1556 H1568 0.984 . S
N1556 H1569 0.985 . S
N1557 C1559 1.356 . S
N1557 H1562 0.984 . S
N1557 H1563 0.985 . S
C1558 C1552 1.379 . S
C1558 C1555 1.363 . S
C1558 N1556 1.356 . S
C1559 C1553 1.363 . S
C1559 C1554 1.379 . S
C1559 N1557 1.356 . S
N1560 C1552 1.356 . S
N1560 H1566 0.984 . S
N1560 H1567 0.984 . S
N1561 C1554 1.356 1_554 S
N1561 H1564 0.984 . S
N1561 H1565 0.985 . S
H1562 N1557 0.984 . S
H1563 N1557 0.985 . S
H1564 N1561 0.984 . S
H1565 N1561 0.985 . S
H1566 N1560 0.984 . S
H1567 N1560 0.984 . S
H1568 N1556 0.984 . S
H1569 N1556 0.985 . S
C1570 C1571 1.363 . S
C1570 C1576 1.379 . S
C1570 N1578 1.356 . S
C1571 C1570 1.363 . S
C1571 C1577 1.363 . S
C1572 C1573 1.363 . S
C1572 C1577 1.379 . S
C1572 N1579 1.356 . S
C1573 C1572 1.363 . S
C1573 C1576 1.363 . S
N1574 C1576 1.356 . S
N1574 H1586 0.984 . S
N1574 H1587 0.985 . S
N1575 C1577 1.356 . S
N1575 H1580 0.984 . S
N1575 H1581 0.985 . S
C1576 C1570 1.379 . S
C1576 C1573 1.363 . S
C1576 N1574 1.356 . S
C1577 C1571 1.363 . S
C1577 C1572 1.379 . S
C1577 N1575 1.356 . S
N1578 C1570 1.356 . S
N1578 H1584 0.984 . S
N1578 H1585 0.984 . S
N1579 C1572 1.356 . S
N1579 H1582 0.984 . S
N1579 H1583 0.985 . S
H1580 N1575 0.984 . S
H1581 N1575 0.985 . S
H1582 N1579 0.984 . S
H1583 N1579 0.985 . S
H1584 N1578 0.984 . S
H1585 N1578 0.984 . S
H1586 N1574 0.984 . S
H1587 N1574 0.985 . S
C1588 C1589 1.363 . S
C1588 C1594 1.379 . S
C1588 N1596 1.356 . S
C1589 C1588 1.363 . S
C1589 C1595 1.363 . S
C1590 C1591 1.363 . S
C1590 C1595 1.379 . S
C1590 N1597 1.356 . S
C1591 C1590 1.363 . S
C1591 C1594 1.363 . S
N1592 C1594 1.356 . S
N1592 H1604 0.984 . S
N1592 H1605 0.985 . S
N1593 C1595 1.356 . S
N1593 H1598 0.984 . S
N1593 H1599 0.985 . S
C1594 C1588 1.379 . S
C1594 C1591 1.363 . S
C1594 N1592 1.356 . S
C1595 C1589 1.363 . S
C1595 C1590 1.379 . S
C1595 N1593 1.356 . S
N1596 C1588 1.356 . S
N1596 H1602 0.984 . S
N1596 H1603 0.984 . S
N1597 C1590 1.356 . S
N1597 H1600 0.984 . S
N1597 H1601 0.985 . S
H1598 N1593 0.984 . S
H1599 N1593 0.985 . S
H1600 N1597 0.984 . S
H1601 N1597 0.985 . S
H1602 N1596 0.984 . S
H1603 N1596 0.984 . S
H1604 N1592 0.984 . S
H1605 N1592 0.985 . S
C1606 C1607 1.363 . S
C1606 C1612 1.379 . S
C1606 N1614 1.356 . S
C1607 C1606 1.363 . S
C1607 C1613 1.363 . S
C1608 C1609 1.363 . S
C1608 C1613 1.379 . S
C1608 N1615 1.356 . S
C1609 C1608 1.363 . S
C1609 C1612 1.363 . S
N1610 C1612 1.356 . S
N1610 H1622 0.984 . S
N1610 H1623 0.985 . S
N1611 C1613 1.356 . S
N1611 H1616 0.984 . S
N1611 H1617 0.985 . S
C1612 C1606 1.379 . S
C1612 C1609 1.363 . S
C1612 N1610 1.356 . S
C1613 C1607 1.363 . S
C1613 C1608 1.379 . S
C1613 N1611 1.356 . S
N1614 C1606 1.356 . S
N1614 H1620 0.984 . S
N1614 H1621 0.984 . S
N1615 C1608 1.356 . S
N1615 H1618 0.984 . S
N1615 H1619 0.985 . S
H1616 N1611 0.984 . S
H1617 N1611 0.985 . S
H1618 N1615 0.984 . S
H1619 N1615 0.985 . S
H1620 N1614 0.984 . S
H1621 N1614 0.984 . S
H1622 N1610 0.984 . S
H1623 N1610 0.985 . S
C1624 C1625 1.363 . S
C1624 C1630 1.379 . S
C1624 N1632 1.356 . S
C1625 C1624 1.363 . S
C1625 C1631 1.363 . S
C1626 C1627 1.363 . S
C1626 C1631 1.379 . S
C1626 N1633 1.356 . S
C1627 C1626 1.363 . S
C1627 C1630 1.363 . S
N1628 C1630 1.356 . S
N1628 H1640 0.984 . S
N1628 H1641 0.985 . S
N1629 C1631 1.356 . S
N1629 H1634 0.984 . S
N1629 H1635 0.985 . S
C1630 C1624 1.379 . S
C1630 C1627 1.363 . S
C1630 N1628 1.356 . S
C1631 C1625 1.363 . S
C1631 C1626 1.379 . S
C1631 N1629 1.356 . S
N1632 C1624 1.356 . S
N1632 H1638 0.984 . S
N1632 H1639 0.984 . S
N1633 C1626 1.356 . S
N1633 H1636 0.984 . S
N1633 H1637 0.985 . S
H1634 N1629 0.984 . S
H1635 N1629 0.985 . S
H1636 N1633 0.984 . S
H1637 N1633 0.985 . S
H1638 N1632 0.984 . S
H1639 N1632 0.984 . S
H1640 N1628 0.984 . S
H1641 N1628 0.985 . S
C1642 C1643 1.363 . S
C1642 C1648 1.379 . S
C1642 N1650 1.356 . S
C1643 C1642 1.363 . S
C1643 C1649 1.363 . S
C1644 C1645 1.363 . S
C1644 C1649 1.379 . S
C1644 N1651 1.356 . S
C1645 C1644 1.363 . S
C1645 C1648 1.363 . S
N1646 C1648 1.356 . S
N1646 H1658 0.984 . S
N1646 H1659 0.985 . S
N1647 C1649 1.356 . S
N1647 H1652 0.984 . S
N1647 H1653 0.985 . S
C1648 C1642 1.379 . S
C1648 C1645 1.363 . S
C1648 N1646 1.356 . S
C1649 C1643 1.363 . S
C1649 C1644 1.379 . S
C1649 N1647 1.356 . S
N1650 C1642 1.356 . S
N1650 H1656 0.984 . S
N1650 H1657 0.984 . S
N1651 C1644 1.356 . S
N1651 H1654 0.984 . S
N1651 H1655 0.985 . S
H1652 N1647 0.984 . S
H1653 N1647 0.985 . S
H1654 N1651 0.984 . S
H1655 N1651 0.985 . S
H1656 N1650 0.984 . S
H1657 N1650 0.984 . S
H1658 N1646 0.984 . S
H1659 N1646 0.985 . S
C1660 C1661 1.363 . S
C1660 C1666 1.379 . S
C1660 N1668 1.356 . S
C1661 C1660 1.363 . S
C1661 C1667 1.363 . S
C1662 C1663 1.363 . S
C1662 C1667 1.379 . S
C1662 N1669 1.356 . S
C1663 C1662 1.363 . S
C1663 C1666 1.363 . S
N1664 C1666 1.356 . S
N1664 H1676 0.984 . S
N1664 H1677 0.985 . S
N1665 C1667 1.356 . S
N1665 H1670 0.984 . S
N1665 H1671 0.985 . S
C1666 C1660 1.379 . S
C1666 C1663 1.363 . S
C1666 N1664 1.356 . S
C1667 C1661 1.363 . S
C1667 C1662 1.379 . S
C1667 N1665 1.356 . S
N1668 C1660 1.356 . S
N1668 H1674 0.984 . S
N1668 H1675 0.984 . S
N1669 C1662 1.356 . S
N1669 H1672 0.984 1_545 S
N1669 H1673 0.985 1_545 S
H1670 N1665 0.984 . S
H1671 N1665 0.985 . S
H1672 N1669 0.984 1_565 S
H1673 N1669 0.985 1_565 S
H1674 N1668 0.984 . S
H1675 N1668 0.984 . S
H1676 N1664 0.984 . S
H1677 N1664 0.985 . S
C1678 C1679 1.363 . S
C1678 C1684 1.379 . S
C1678 N1686 1.356 . S
C1679 C1678 1.363 . S
C1679 C1685 1.363 . S
C1680 C1681 1.363 . S
C1680 C1685 1.379 . S
C1680 N1687 1.356 . S
C1681 C1680 1.363 . S
C1681 C1684 1.363 . S
N1682 C1684 1.356 . S
N1682 H1694 0.984 . S
N1682 H1695 0.985 . S
N1683 C1685 1.356 . S
N1683 H1688 0.984 . S
N1683 H1689 0.985 . S
C1684 C1678 1.379 . S
C1684 C1681 1.363 . S
C1684 N1682 1.356 . S
C1685 C1679 1.363 . S
C1685 C1680 1.379 . S
C1685 N1683 1.356 . S
N1686 C1678 1.356 . S
N1686 H1692 0.984 . S
N1686 H1693 0.984 . S
N1687 C1680 1.356 . S
N1687 H1690 0.984 . S
N1687 H1691 0.985 . S
H1688 N1683 0.984 . S
H1689 N1683 0.985 . S
H1690 N1687 0.984 . S
H1691 N1687 0.985 . S
H1692 N1686 0.984 . S
H1693 N1686 0.984 . S
H1694 N1682 0.984 . S
H1695 N1682 0.985 . S
C1696 C1697 1.363 . S
C1696 C1702 1.379 . S
C1696 N1704 1.356 . S
C1697 C1696 1.363 . S
C1697 C1703 1.363 1_556 S
C1698 C1699 1.363 . S
C1698 C1703 1.379 1_556 S
C1698 N1705 1.356 . S
C1699 C1698 1.363 . S
C1699 C1702 1.363 . S
N1700 C1702 1.356 . S
N1700 H1712 0.984 . S
N1700 H1713 0.985 . S
N1701 C1703 1.356 . S
N1701 H1706 0.984 . S
N1701 H1707 0.985 . S
C1702 C1696 1.379 . S
C1702 C1699 1.363 . S
C1702 N1700 1.356 . S
C1703 C1697 1.363 1_554 S
C1703 C1698 1.379 1_554 S
C1703 N1701 1.356 . S
N1704 C1696 1.356 . S
N1704 H1710 0.984 . S
N1704 H1711 0.984 . S
N1705 C1698 1.356 . S
N1705 H1708 0.984 . S
N1705 H1709 0.985 1_556 S
H1706 N1701 0.984 . S
H1707 N1701 0.985 . S
H1708 N1705 0.984 . S
H1709 N1705 0.985 1_554 S
H1710 N1704 0.984 . S
H1711 N1704 0.984 . S
H1712 N1700 0.984 . S
H1713 N1700 0.985 . S
C1714 C1715 1.363 . S
C1714 C1720 1.379 . S
C1714 N1722 1.356 . S
C1715 C1714 1.363 . S
C1715 C1721 1.363 . S
C1716 C1717 1.363 . S
C1716 C1721 1.379 . S
C1716 N1723 1.356 1_554 S
C1717 C1716 1.363 . S
C1717 C1720 1.363 . S
N1718 C1720 1.356 . S
N1718 H1730 0.984 . S
N1718 H1731 0.985 . S
N1719 C1721 1.356 1_556 S
N1719 H1724 0.984 1_556 S
N1719 H1725 0.985 . S
C1720 C1714 1.379 . S
C1720 C1717 1.363 . S
C1720 N1718 1.356 . S
C1721 C1715 1.363 . S
C1721 C1716 1.379 . S
C1721 N1719 1.356 1_554 S
N1722 C1714 1.356 . S
N1722 H1728 0.984 . S
N1722 H1729 0.984 . S
N1723 C1716 1.356 1_556 S
N1723 H1726 0.984 . S
N1723 H1727 0.985 . S
H1724 N1719 0.984 1_554 S
H1725 N1719 0.985 . S
H1726 N1723 0.984 . S
H1727 N1723 0.985 . S
H1728 N1722 0.984 . S
H1729 N1722 0.984 . S
H1730 N1718 0.984 . S
H1731 N1718 0.985 . S
C1732 C1733 1.363 . S
C1732 C1738 1.379 . S
C1732 N1740 1.356 . S
C1733 C1732 1.363 . S
C1733 C1739 1.363 . S
C1734 C1735 1.363 . S
C1734 C1739 1.379 . S
C1734 N1741 1.356 . S
C1735 C1734 1.363 . S
C1735 C1738 1.363 . S
N1736 C1738 1.356 . S
N1736 H1748 0.984 . S
N1736 H1749 0.985 . S
N1737 C1739 1.356 . S
N1737 H1742 0.984 . S
N1737 H1743 0.985 . S
C1738 C1732 1.379 . S
C1738 C1735 1.363 . S
C1738 N1736 1.356 . S
C1739 C1733 1.363 . S
C1739 C1734 1.379 . S
C1739 N1737 1.356 . S
N1740 C1732 1.356 . S
N1740 H1746 0.984 . S
N1740 H1747 0.984 . S
N1741 C1734 1.356 . S
N1741 H1744 0.984 . S
N1741 H1745 0.985 . S
H1742 N1737 0.984 . S
H1743 N1737 0.985 . S
H1744 N1741 0.984 . S
H1745 N1741 0.985 . S
H1746 N1740 0.984 . S
H1747 N1740 0.984 . S
H1748 N1736 0.984 . S
H1749 N1736 0.985 . S
C1750 C1751 1.363 . S
C1750 C1756 1.379 . S
C1750 N1758 1.356 . S
C1751 C1750 1.363 . S
C1751 C1757 1.363 . S
C1752 C1753 1.363 . S
C1752 C1757 1.379 . S
C1752 N1759 1.356 . S
C1753 C1752 1.363 . S
C1753 C1756 1.363 . S
N1754 C1756 1.356 . S
N1754 H1766 0.984 . S
N1754 H1767 0.985 . S
N1755 C1757 1.356 . S
N1755 H1760 0.984 . S
N1755 H1761 0.985 . S
C1756 C1750 1.379 . S
C1756 C1753 1.363 . S
C1756 N1754 1.356 . S
C1757 C1751 1.363 . S
C1757 C1752 1.379 . S
C1757 N1755 1.356 . S
N1758 C1750 1.356 . S
N1758 H1764 0.984 . S
N1758 H1765 0.984 . S
N1759 C1752 1.356 . S
N1759 H1762 0.984 . S
N1759 H1763 0.985 . S
H1760 N1755 0.984 . S
H1761 N1755 0.985 . S
H1762 N1759 0.984 . S
H1763 N1759 0.985 . S
H1764 N1758 0.984 . S
H1765 N1758 0.984 . S
H1766 N1754 0.984 . S
H1767 N1754 0.985 . S
C1768 C1769 1.363 . S
C1768 C1774 1.379 . S
C1768 N1776 1.356 . S
C1769 C1768 1.363 . S
C1769 C1775 1.363 . S
C1770 C1771 1.363 . S
C1770 C1775 1.379 . S
C1770 N1777 1.356 . S
C1771 C1770 1.363 . S
C1771 C1774 1.363 . S
N1772 C1774 1.356 . S
N1772 H1784 0.984 . S
N1772 H1785 0.985 . S
N1773 C1775 1.356 . S
N1773 H1778 0.984 . S
N1773 H1779 0.985 . S
C1774 C1768 1.379 . S
C1774 C1771 1.363 . S
C1774 N1772 1.356 . S
C1775 C1769 1.363 . S
C1775 C1770 1.379 . S
C1775 N1773 1.356 . S
N1776 C1768 1.356 . S
N1776 H1782 0.984 . S
N1776 H1783 0.984 . S
N1777 C1770 1.356 . S
N1777 H1780 0.984 . S
N1777 H1781 0.985 . S
H1778 N1773 0.984 . S
H1779 N1773 0.985 . S
H1780 N1777 0.984 . S
H1781 N1777 0.985 . S
H1782 N1776 0.984 . S
H1783 N1776 0.984 . S
H1784 N1772 0.984 . S
H1785 N1772 0.985 . S
C1786 C1787 1.363 . S
C1786 C1792 1.379 . S
C1786 N1794 1.356 . S
C1787 C1786 1.363 . S
C1787 C1793 1.363 . S
C1788 C1789 1.363 . S
C1788 C1793 1.379 . S
C1788 N1795 1.356 1_565 S
C1789 C1788 1.363 . S
C1789 C1792 1.363 . S
N1790 C1792 1.356 . S
N1790 H1802 0.984 . S
N1790 H1803 0.985 . S
N1791 C1793 1.356 . S
N1791 H1796 0.984 . S
N1791 H1797 0.985 . S
C1792 C1786 1.379 . S
C1792 C1789 1.363 . S
C1792 N1790 1.356 . S
C1793 C1787 1.363 . S
C1793 C1788 1.379 . S
C1793 N1791 1.356 . S
N1794 C1786 1.356 . S
N1794 H1800 0.984 . S
N1794 H1801 0.984 . S
N1795 C1788 1.356 1_545 S
N1795 H1798 0.984 . S
N1795 H1799 0.985 . S
H1796 N1791 0.984 . S
H1797 N1791 0.985 . S
H1798 N1795 0.984 . S
H1799 N1795 0.985 . S
H1800 N1794 0.984 . S
H1801 N1794 0.984 . S
H1802 N1790 0.984 . S
H1803 N1790 0.985 . S
C1804 C1805 1.363 . S
C1804 C1810 1.379 . S
C1804 N1812 1.356 . S
C1805 C1804 1.363 . S
C1805 C1811 1.363 . S
C1806 C1807 1.363 . S
C1806 C1811 1.379 . S
C1806 N1813 1.356 . S
C1807 C1806 1.363 . S
C1807 C1810 1.363 . S
N1808 C1810 1.356 . S
N1808 H1820 0.984 . S
N1808 H1821 0.985 . S
N1809 C1811 1.356 . S
N1809 H1814 0.984 . S
N1809 H1815 0.985 . S
C1810 C1804 1.379 . S
C1810 C1807 1.363 . S
C1810 N1808 1.356 . S
C1811 C1805 1.363 . S
C1811 C1806 1.379 . S
C1811 N1809 1.356 . S
N1812 C1804 1.356 . S
N1812 H1818 0.984 . S
N1812 H1819 0.984 . S
N1813 C1806 1.356 . S
N1813 H1816 0.984 . S
N1813 H1817 0.985 . S
H1814 N1809 0.984 . S
H1815 N1809 0.985 . S
H1816 N1813 0.984 . S
H1817 N1813 0.985 . S
H1818 N1812 0.984 . S
H1819 N1812 0.984 . S
H1820 N1808 0.984 . S
H1821 N1808 0.985 . S
C1822 C1823 1.363 . S
C1822 C1828 1.379 . S
C1822 N1830 1.356 . S
C1823 C1822 1.363 . S
C1823 C1829 1.363 . S
C1824 C1825 1.363 . S
C1824 C1829 1.379 . S
C1824 N1831 1.356 . S
C1825 C1824 1.363 . S
C1825 C1828 1.363 . S
N1826 C1828 1.356 . S
N1826 H1838 0.984 . S
N1826 H1839 0.985 . S
N1827 C1829 1.356 . S
N1827 H1832 0.984 . S
N1827 H1833 0.985 . S
C1828 C1822 1.379 . S
C1828 C1825 1.363 . S
C1828 N1826 1.356 . S
C1829 C1823 1.363 . S
C1829 C1824 1.379 . S
C1829 N1827 1.356 . S
N1830 C1822 1.356 . S
N1830 H1836 0.984 . S
N1830 H1837 0.984 . S
N1831 C1824 1.356 . S
N1831 H1834 0.984 . S
N1831 H1835 0.985 . S
H1832 N1827 0.984 . S
H1833 N1827 0.985 . S
H1834 N1831 0.984 . S
H1835 N1831 0.985 . S
H1836 N1830 0.984 . S
H1837 N1830 0.984 . S
H1838 N1826 0.984 . S
H1839 N1826 0.985 . S
C1840 C1841 1.363 . S
C1840 C1846 1.379 . S
C1840 N1848 1.356 . S
C1841 C1840 1.363 . S
C1841 C1847 1.363 . S
C1842 C1843 1.363 . S
C1842 C1847 1.379 . S
C1842 N1849 1.356 . S
C1843 C1842 1.363 . S
C1843 C1846 1.363 . S
N1844 C1846 1.356 . S
N1844 H1856 0.984 . S
N1844 H1857 0.985 . S
N1845 C1847 1.356 . S
N1845 H1850 0.984 . S
N1845 H1851 0.985 . S
C1846 C1840 1.379 . S
C1846 C1843 1.363 . S
C1846 N1844 1.356 . S
C1847 C1841 1.363 . S
C1847 C1842 1.379 . S
C1847 N1845 1.356 . S
N1848 C1840 1.356 . S
N1848 H1854 0.984 . S
N1848 H1855 0.984 . S
N1849 C1842 1.356 . S
N1849 H1852 0.984 . S
N1849 H1853 0.985 . S
H1850 N1845 0.984 . S
H1851 N1845 0.985 . S
H1852 N1849 0.984 . S
H1853 N1849 0.985 . S
H1854 N1848 0.984 . S
H1855 N1848 0.984 . S
H1856 N1844 0.984 . S
H1857 N1844 0.985 . S
C1858 C1859 1.363 . S
C1858 C1864 1.379 . S
C1858 N1866 1.356 . S
C1859 C1858 1.363 . S
C1859 C1865 1.363 . S
C1860 C1861 1.363 . S
C1860 C1865 1.379 . S
C1860 N1867 1.356 . S
C1861 C1860 1.363 . S
C1861 C1864 1.363 . S
N1862 C1864 1.356 . S
N1862 H1874 0.984 . S
N1862 H1875 0.985 . S
N1863 C1865 1.356 . S
N1863 H1868 0.984 . S
N1863 H1869 0.985 . S
C1864 C1858 1.379 . S
C1864 C1861 1.363 . S
C1864 N1862 1.356 . S
C1865 C1859 1.363 . S
C1865 C1860 1.379 . S
C1865 N1863 1.356 . S
N1866 C1858 1.356 . S
N1866 H1872 0.984 . S
N1866 H1873 0.984 . S
N1867 C1860 1.356 . S
N1867 H1870 0.984 . S
N1867 H1871 0.985 . S
H1868 N1863 0.984 . S
H1869 N1863 0.985 . S
H1870 N1867 0.984 . S
H1871 N1867 0.985 . S
H1872 N1866 0.984 . S
H1873 N1866 0.984 . S
H1874 N1862 0.984 . S
H1875 N1862 0.985 . S
C1876 C1877 1.363 1_655 S
C1876 C1882 1.379 1_655 S
C1876 N1884 1.356 . S
C1877 C1876 1.363 1_455 S
C1877 C1883 1.363 . S
C1878 C1879 1.363 . S
C1878 C1883 1.379 . S
C1878 N1885 1.356 . S
C1879 C1878 1.363 . S
C1879 C1882 1.363 . S
N1880 C1882 1.356 . S
N1880 H1892 0.984 1_456 S
N1880 H1893 0.985 . S
N1881 C1883 1.356 . S
N1881 H1886 0.984 . S
N1881 H1887 0.985 . S
C1882 C1876 1.379 1_455 S
C1882 C1879 1.363 . S
C1882 N1880 1.356 . S
C1883 C1877 1.363 . S
C1883 C1878 1.379 . S
C1883 N1881 1.356 . S
N1884 C1876 1.356 . S
N1884 H1890 0.984 . S
N1884 H1891 0.984 . S
N1885 C1878 1.356 . S
N1885 H1888 0.984 . S
N1885 H1889 0.985 . S
H1886 N1881 0.984 . S
H1887 N1881 0.985 . S
H1888 N1885 0.984 . S
H1889 N1885 0.985 . S
H1890 N1884 0.984 . S
H1891 N1884 0.984 . S
H1892 N1880 0.984 1_654 S
H1893 N1880 0.985 . S
C1894 C1895 1.363 . S
C1894 C1900 1.387 . S
C1894 N1902 1.356 . S
C1895 C1894 1.363 . S
C1895 C1901 1.363 . S
C1896 C1897 1.354 1_455 S
C1896 C1901 1.379 . S
C1896 N1903 1.356 . S
C1897 C1896 1.354 1_655 S
C1897 C1900 1.359 1_655 S
N1898 C1900 1.348 1_655 S
N1898 H1910 0.984 . S
N1898 H1911 0.985 . S
N1899 C1901 1.356 . S
N1899 H1904 0.984 . S
N1899 H1905 0.985 . S
C1900 C1894 1.387 . S
C1900 C1897 1.359 1_455 S
C1900 N1898 1.348 1_455 S
C1901 C1895 1.363 . S
C1901 C1896 1.379 . S
C1901 N1899 1.356 . S
N1902 C1894 1.356 . S
N1902 H1908 0.984 . S
N1902 H1909 0.984 . S
N1903 C1896 1.356 . S
N1903 H1906 0.984 1_455 S
N1903 H1907 0.985 . S
H1904 N1899 0.984 . S
H1905 N1899 0.985 . S
H1906 N1903 0.984 1_655 S
H1907 N1903 0.985 . S
H1908 N1902 0.984 . S
H1909 N1902 0.984 . S
H1910 N1898 0.984 . S
H1911 N1898 0.985 . S
C1912 C1913 1.363 . S
C1912 C1918 1.379 . S
C1912 N1920 1.356 . S
C1913 C1912 1.363 . S
C1913 C1919 1.363 . S
C1914 C1915 1.363 . S
C1914 C1919 1.379 . S
C1914 N1921 1.356 . S
C1915 C1914 1.363 . S
C1915 C1918 1.363 . S
N1916 C1918 1.356 . S
N1916 H1928 0.984 . S
N1916 H1929 0.985 . S
N1917 C1919 1.356 . S
N1917 H1922 0.984 . S
N1917 H1923 0.985 . S
C1918 C1912 1.379 . S
C1918 C1915 1.363 . S
C1918 N1916 1.356 . S
C1919 C1913 1.363 . S
C1919 C1914 1.379 . S
C1919 N1917 1.356 . S
N1920 C1912 1.356 . S
N1920 H1926 0.984 . S
N1920 H1927 0.984 . S
N1921 C1914 1.356 . S
N1921 H1924 0.984 . S
N1921 H1925 0.985 . S
H1922 N1917 0.984 . S
H1923 N1917 0.985 . S
H1924 N1921 0.984 . S
H1925 N1921 0.985 . S
H1926 N1920 0.984 . S
H1927 N1920 0.984 . S
H1928 N1916 0.984 . S
H1929 N1916 0.985 . S
C1930 C1931 1.363 . S
C1930 C1936 1.379 . S
C1930 N1938 1.356 . S
C1931 C1930 1.363 . S
C1931 C1937 1.363 . S
C1932 C1933 1.363 . S
C1932 C1937 1.379 . S
C1932 N1939 1.356 . S
C1933 C1932 1.363 . S
C1933 C1936 1.363 . S
N1934 C1936 1.356 . S
N1934 H1946 0.984 . S
N1934 H1947 0.985 . S
N1935 C1937 1.356 . S
N1935 H1940 0.984 . S
N1935 H1941 0.985 . S
C1936 C1930 1.379 . S
C1936 C1933 1.363 . S
C1936 N1934 1.356 . S
C1937 C1931 1.363 . S
C1937 C1932 1.379 . S
C1937 N1935 1.356 . S
N1938 C1930 1.356 . S
N1938 H1944 0.984 . S
N1938 H1945 1.010 . S
N1939 C1932 1.356 . S
N1939 H1942 0.984 . S
N1939 H1943 0.985 . S
H1940 N1935 0.984 . S
H1941 N1935 0.985 . S
H1942 N1939 0.984 . S
H1943 N1939 0.985 . S
H1944 N1938 0.984 . S
H1945 N1938 1.010 . S
H1946 N1934 0.984 . S
H1947 N1934 0.985 . S
C1948 C1949 1.363 . S
C1948 C1954 1.379 . S
C1948 N1956 1.356 . S
C1949 C1948 1.363 . S
C1949 C1955 1.363 . S
C1950 C1951 1.363 . S
C1950 C1955 1.379 . S
C1950 N1957 1.356 . S
C1951 C1950 1.363 . S
C1951 C1954 1.363 . S
N1952 C1954 1.356 . S
N1952 H1964 0.984 . S
N1952 H1965 0.985 . S
N1953 C1955 1.356 . S
N1953 H1958 0.984 . S
N1953 H1959 0.985 1_455 S
C1954 C1948 1.379 . S
C1954 C1951 1.363 . S
C1954 N1952 1.356 . S
C1955 C1949 1.363 . S
C1955 C1950 1.379 . S
C1955 N1953 1.356 . S
N1956 C1948 1.356 . S
N1956 H1962 0.984 . S
N1956 H1963 0.984 . S
N1957 C1950 1.356 . S
N1957 H1960 0.984 . S
N1957 H1961 0.985 1_455 S
H1958 N1953 0.984 . S
H1959 N1953 0.985 1_655 S
H1960 N1957 0.984 . S
H1961 N1957 0.985 1_655 S
H1962 N1956 0.984 . S
H1963 N1956 0.984 . S
H1964 N1952 0.984 . S
H1965 N1952 0.985 . S
C1966 C1967 1.363 . S
C1966 C1972 1.379 . S
C1966 N1974 1.356 . S
C1967 C1966 1.363 . S
C1967 C1973 1.363 . S
C1968 C1969 1.363 . S
C1968 C1973 1.379 . S
C1968 N1975 1.356 . S
C1969 C1968 1.363 . S
C1969 C1972 1.363 . S
N1970 C1972 1.356 . S
N1970 H1982 0.984 . S
N1970 H1983 0.985 . S
N1971 C1973 1.356 . S
N1971 H1976 0.984 . S
N1971 H1977 0.985 . S
C1972 C1966 1.379 . S
C1972 C1969 1.363 . S
C1972 N1970 1.356 . S
C1973 C1967 1.363 . S
C1973 C1968 1.379 . S
C1973 N1971 1.356 . S
N1974 C1966 1.356 . S
N1974 H1980 0.984 . S
N1974 H1981 0.984 . S
N1975 C1968 1.356 . S
N1975 H1978 0.984 . S
N1975 H1979 0.985 . S
H1976 N1971 0.984 . S
H1977 N1971 0.985 . S
H1978 N1975 0.984 . S
H1979 N1975 0.985 . S
H1980 N1974 0.984 . S
H1981 N1974 0.984 . S
H1982 N1970 0.984 . S
H1983 N1970 0.985 . S
C1984 C1985 1.363 . S
C1984 C1990 1.379 . S
C1984 N1992 1.356 . S
C1985 C1984 1.363 . S
C1985 C1991 1.363 . S
C1986 C1987 1.363 . S
C1986 C1991 1.379 . S
C1986 N1993 1.356 . S
C1987 C1986 1.363 . S
C1987 C1990 1.363 . S
N1988 C1990 1.356 . S
N1988 H2000 0.984 . S
N1988 H2001 0.985 . S
N1989 C1991 1.356 . S
N1989 H1994 0.984 . S
N1989 H1995 0.985 . S
C1990 C1984 1.379 . S
C1990 C1987 1.363 . S
C1990 N1988 1.356 . S
C1991 C1985 1.363 . S
C1991 C1986 1.379 . S
C1991 N1989 1.356 . S
N1992 C1984 1.356 . S
N1992 H1998 0.984 . S
N1992 H1999 0.984 . S
N1993 C1986 1.356 . S
N1993 H1996 0.984 . S
N1993 H1997 0.985 . S
H1994 N1989 0.984 . S
H1995 N1989 0.985 . S
H1996 N1993 0.984 . S
H1997 N1993 0.985 . S
H1998 N1992 0.984 . S
H1999 N1992 0.984 . S
H2000 N1988 0.984 . S
H2001 N1988 0.985 . S
C2002 C2003 1.363 . S
C2002 C2008 1.379 . S
C2002 N2010 1.356 . S
C2003 C2002 1.363 . S
C2003 C2009 1.363 . S
C2004 C2005 1.363 . S
C2004 C2009 1.379 . S
C2004 N2011 1.356 . S
C2005 C2004 1.363 . S
C2005 C2008 1.363 . S
N2006 C2008 1.356 . S
N2006 H2018 0.984 . S
N2006 H2019 0.985 . S
N2007 C2009 1.356 . S
N2007 H2012 0.984 . S
N2007 H2013 0.985 . S
C2008 C2002 1.379 . S
C2008 C2005 1.363 . S
C2008 N2006 1.356 . S
C2009 C2003 1.363 . S
C2009 C2004 1.379 . S
C2009 N2007 1.356 . S
N2010 C2002 1.356 . S
N2010 H2016 0.984 . S
N2010 H2017 0.984 . S
N2011 C2004 1.356 . S
N2011 H2014 0.984 . S
N2011 H2015 0.985 . S
H2012 N2007 0.984 . S
H2013 N2007 0.985 . S
H2014 N2011 0.984 . S
H2015 N2011 0.985 . S
H2016 N2010 0.984 . S
H2017 N2010 0.984 . S
H2018 N2006 0.984 . S
H2019 N2006 0.985 . S
C2020 C2021 1.363 . S
C2020 C2026 1.379 . S
C2020 N2028 1.356 . S
C2021 C2020 1.363 . S
C2021 C2027 1.363 . S
C2022 C2023 1.363 . S
C2022 C2027 1.379 . S
C2022 N2029 1.356 . S
C2023 C2022 1.363 . S
C2023 C2026 1.363 . S
N2024 C2026 1.356 . S
N2024 H2036 0.984 . S
N2024 H2037 0.985 . S
N2025 C2027 1.356 . S
N2025 H2030 0.984 . S
N2025 H2031 0.985 . S
C2026 C2020 1.379 . S
C2026 C2023 1.363 . S
C2026 N2024 1.356 . S
C2027 C2021 1.363 . S
C2027 C2022 1.379 . S
C2027 N2025 1.356 . S
N2028 C2020 1.356 . S
N2028 H2034 0.984 . S
N2028 H2035 0.984 . S
N2029 C2022 1.356 . S
N2029 H2032 0.984 . S
N2029 H2033 0.985 . S
H2030 N2025 0.984 . S
H2031 N2025 0.985 . S
H2032 N2029 0.984 . S
H2033 N2029 0.985 . S
H2034 N2028 0.984 . S
H2035 N2028 0.984 . S
H2036 N2024 0.984 . S
H2037 N2024 0.985 . S
C2038 C2039 1.363 . S
C2038 C2044 1.379 . S
C2038 N2046 1.356 . S
C2039 C2038 1.363 . S
C2039 C2045 1.363 . S
C2040 C2041 1.363 . S
C2040 C2045 1.379 . S
C2040 N2047 1.356 . S
C2041 C2040 1.363 . S
C2041 C2044 1.363 . S
N2042 C2044 1.356 . S
N2042 H2054 0.984 . S
N2042 H2055 0.985 . S
N2043 C2045 1.356 . S
N2043 H2048 0.984 . S
N2043 H2049 0.985 . S
C2044 C2038 1.379 . S
C2044 C2041 1.363 . S
C2044 N2042 1.356 . S
C2045 C2039 1.363 . S
C2045 C2040 1.379 . S
C2045 N2043 1.356 . S
N2046 C2038 1.356 . S
N2046 H2052 0.984 . S
N2046 H2053 0.984 . S
N2047 C2040 1.356 . S
N2047 H2050 0.984 . S
N2047 H2051 0.985 . S
H2048 N2043 0.984 . S
H2049 N2043 0.985 . S
H2050 N2047 0.984 . S
H2051 N2047 0.985 . S
H2052 N2046 0.984 . S
H2053 N2046 0.984 . S
H2054 N2042 0.984 . S
H2055 N2042 0.985 . S
C2056 C2057 1.363 . S
C2056 C2062 1.379 . S
C2056 N2064 1.356 . S
C2057 C2056 1.363 . S
C2057 C2063 1.363 . S
C2058 C2059 1.363 . S
C2058 C2063 1.379 . S
C2058 N2065 1.356 . S
C2059 C2058 1.363 . S
C2059 C2062 1.363 . S
N2060 C2062 1.356 . S
N2060 H2072 0.984 . S
N2060 H2073 0.985 . S
N2061 C2063 1.356 . S
N2061 H2066 0.984 . S
N2061 H2067 0.985 . S
C2062 C2056 1.379 . S
C2062 C2059 1.363 . S
C2062 N2060 1.356 . S
C2063 C2057 1.363 . S
C2063 C2058 1.379 . S
C2063 N2061 1.356 . S
N2064 C2056 1.356 . S
N2064 H2070 0.984 . S
N2064 H2071 0.984 . S
N2065 C2058 1.356 . S
N2065 H2068 0.984 . S
N2065 H2069 0.985 . S
H2066 N2061 0.984 . S
H2067 N2061 0.985 . S
H2068 N2065 0.984 . S
H2069 N2065 0.985 . S
H2070 N2064 0.984 . S
H2071 N2064 0.984 . S
H2072 N2060 0.984 . S
H2073 N2060 0.985 . S
C2074 C2075 1.363 . S
C2074 C2080 1.379 . S
C2074 N2082 1.356 . S
C2075 C2074 1.363 . S
C2075 C2081 1.363 . S
C2076 C2077 1.363 . S
C2076 C2081 1.379 . S
C2076 N2083 1.356 . S
C2077 C2076 1.363 . S
C2077 C2080 1.363 . S
N2078 C2080 1.356 . S
N2078 H2090 0.984 . S
N2078 H2091 0.985 . S
N2079 C2081 1.356 . S
N2079 H2084 0.984 . S
N2079 H2085 0.985 . S
C2080 C2074 1.379 . S
C2080 C2077 1.363 . S
C2080 N2078 1.356 . S
C2081 C2075 1.363 . S
C2081 C2076 1.379 . S
C2081 N2079 1.356 . S
N2082 C2074 1.356 . S
N2082 H2088 0.984 . S
N2082 H2089 0.984 . S
N2083 C2076 1.356 . S
N2083 H2086 0.984 . S
N2083 H2087 0.985 . S
H2084 N2079 0.984 . S
H2085 N2079 0.985 . S
H2086 N2083 0.984 . S
H2087 N2083 0.985 . S
H2088 N2082 0.984 . S
H2089 N2082 0.984 . S
H2090 N2078 0.984 . S
H2091 N2078 0.985 . S
C2092 C2093 1.363 . S
C2092 C2098 1.379 . S
C2092 N2100 1.356 . S
C2093 C2092 1.363 . S
C2093 C2099 1.363 . S
C2094 C2095 1.363 . S
C2094 C2099 1.379 . S
C2094 N2101 1.356 . S
C2095 C2094 1.363 . S
C2095 C2098 1.363 . S
N2096 C2098 1.356 . S
N2096 H2108 0.984 . S
N2096 H2109 0.985 . S
N2097 C2099 1.356 . S
N2097 H2102 0.984 . S
N2097 H2103 0.985 . S
C2098 C2092 1.379 . S
C2098 C2095 1.363 . S
C2098 N2096 1.356 . S
C2099 C2093 1.363 . S
C2099 C2094 1.379 . S
C2099 N2097 1.356 . S
N2100 C2092 1.356 . S
N2100 H2106 0.984 . S
N2100 H2107 0.984 . S
N2101 C2094 1.356 . S
N2101 H2104 0.984 . S
N2101 H2105 0.985 . S
H2102 N2097 0.984 . S
H2103 N2097 0.985 . S
H2104 N2101 0.984 . S
H2105 N2101 0.985 . S
H2106 N2100 0.984 . S
H2107 N2100 0.984 . S
H2108 N2096 0.984 . S
H2109 N2096 0.985 . S
C2110 C2111 1.363 . S
C2110 C2116 1.379 . S
C2110 N2118 1.356 . S
C2111 C2110 1.363 . S
C2111 C2117 1.363 . S
C2112 C2113 1.363 . S
C2112 C2117 1.379 . S
C2112 N2119 1.356 . S
C2113 C2112 1.363 . S
C2113 C2116 1.363 . S
N2114 C2116 1.356 . S
N2114 H2126 0.984 . S
N2114 H2127 0.985 . S
N2115 C2117 1.356 . S
N2115 H2120 0.984 . S
N2115 H2121 0.985 . S
C2116 C2110 1.379 . S
C2116 C2113 1.363 . S
C2116 N2114 1.356 . S
C2117 C2111 1.363 . S
C2117 C2112 1.379 . S
C2117 N2115 1.356 . S
N2118 C2110 1.356 . S
N2118 H2124 0.984 . S
N2118 H2125 0.984 . S
N2119 C2112 1.356 . S
N2119 H2122 0.984 . S
N2119 H2123 0.985 . S
H2120 N2115 0.984 . S
H2121 N2115 0.985 . S
H2122 N2119 0.984 . S
H2123 N2119 0.985 . S
H2124 N2118 0.984 . S
H2125 N2118 0.984 . S
H2126 N2114 0.984 . S
H2127 N2114 0.985 . S
C2128 C2129 1.363 . S
C2128 C2134 1.379 . S
C2128 N2136 1.356 . S
C2129 C2128 1.363 . S
C2129 C2135 1.363 . S
C2130 C2131 1.363 . S
C2130 C2135 1.379 . S
C2130 N2137 1.356 . S
C2131 C2130 1.363 . S
C2131 C2134 1.363 . S
N2132 C2134 1.356 . S
N2132 H2144 0.984 . S
N2132 H2145 0.985 . S
N2133 C2135 1.356 . S
N2133 H2138 0.984 . S
N2133 H2139 0.985 . S
C2134 C2128 1.379 . S
C2134 C2131 1.363 . S
C2134 N2132 1.356 . S
C2135 C2129 1.363 . S
C2135 C2130 1.379 . S
C2135 N2133 1.356 . S
N2136 C2128 1.356 . S
N2136 H2142 0.984 . S
N2136 H2143 0.984 . S
N2137 C2130 1.356 . S
N2137 H2140 0.984 . S
N2137 H2141 0.985 . S
H2138 N2133 0.984 . S
H2139 N2133 0.985 . S
H2140 N2137 0.984 . S
H2141 N2137 0.985 . S
H2142 N2136 0.984 . S
H2143 N2136 0.984 . S
H2144 N2132 0.984 . S
H2145 N2132 0.985 . S
C2146 C2147 1.363 . S
C2146 C2152 1.379 . S
C2146 N2154 1.356 . S
C2147 C2146 1.363 . S
C2147 C2153 1.363 . S
C2148 C2149 1.363 . S
C2148 C2153 1.379 . S
C2148 N2155 1.356 . S
C2149 C2148 1.363 . S
C2149 C2152 1.363 . S
N2150 C2152 1.356 . S
N2150 H2162 0.984 . S
N2150 H2163 0.985 . S
N2151 C2153 1.356 . S
N2151 H2156 0.984 . S
N2151 H2157 0.985 . S
C2152 C2146 1.379 . S
C2152 C2149 1.363 . S
C2152 N2150 1.356 . S
C2153 C2147 1.363 . S
C2153 C2148 1.379 . S
C2153 N2151 1.356 . S
N2154 C2146 1.356 . S
N2154 H2160 0.984 . S
N2154 H2161 0.984 . S
N2155 C2148 1.356 . S
N2155 H2158 0.984 . S
N2155 H2159 0.985 . S
H2156 N2151 0.984 . S
H2157 N2151 0.985 . S
H2158 N2155 0.984 . S
H2159 N2155 0.985 . S
H2160 N2154 0.984 . S
H2161 N2154 0.984 . S
H2162 N2150 0.984 . S
H2163 N2150 0.985 . S
C2164 C2165 1.363 . S
C2164 C2170 1.379 1_545 S
C2164 N2172 1.356 . S
C2165 C2164 1.363 . S
C2165 C2171 1.363 . S
C2166 C2167 1.363 1_545 S
C2166 C2171 1.379 . S
C2166 N2173 1.356 . S
C2167 C2166 1.363 1_565 S
C2167 C2170 1.363 . S
N2168 C2170 1.356 . S
N2168 H2180 0.984 . S
N2168 H2181 0.985 . S
N2169 C2171 1.356 . S
N2169 H2174 0.984 . S
N2169 H2175 0.985 . S
C2170 C2164 1.379 1_565 S
C2170 C2167 1.363 . S
C2170 N2168 1.356 . S
C2171 C2165 1.363 . S
C2171 C2166 1.379 . S
C2171 N2169 1.356 . S
N2172 C2164 1.356 . S
N2172 H2178 0.984 1_545 S
N2172 H2179 0.984 . S
N2173 C2166 1.356 . S
N2173 H2176 0.984 1_545 S
N2173 H2177 0.985 . S
H2174 N2169 0.984 . S
H2175 N2169 0.985 . S
H2176 N2173 0.984 1_565 S
H2177 N2173 0.985 . S
H2178 N2172 0.984 1_565 S
H2179 N2172 0.984 . S
H2180 N2168 0.984 . S
H2181 N2168 0.985 . S
C2182 C2183 1.363 . S
C2182 C2188 1.379 . S
C2182 N2190 1.356 . S
C2183 C2182 1.363 . S
C2183 C2189 1.363 . S
C2184 C2185 1.363 . S
C2184 C2189 1.379 . S
C2184 N2191 1.356 . S
C2185 C2184 1.363 . S
C2185 C2188 1.363 . S
N2186 C2188 1.356 1_545 S
N2186 H2198 0.984 . S
N2186 H2199 0.985 . S
N2187 C2189 1.356 . S
N2187 H2192 0.984 . S
N2187 H2193 0.985 . S
C2188 C2182 1.379 . S
C2188 C2185 1.363 . S
C2188 N2186 1.356 1_565 S
C2189 C2183 1.363 . S
C2189 C2184 1.379 . S
C2189 N2187 1.356 . S
N2190 C2182 1.356 . S
N2190 H2196 0.984 . S
N2190 H2197 0.984 . S
N2191 C2184 1.356 . S
N2191 H2194 0.984 1_565 S
N2191 H2195 0.985 . S
H2192 N2187 0.984 . S
H2193 N2187 0.985 . S
H2194 N2191 0.984 1_545 S
H2195 N2191 0.985 . S
H2196 N2190 0.984 . S
H2197 N2190 0.984 . S
H2198 N2186 0.984 . S
H2199 N2186 0.985 . S
C2200 C2201 1.363 . S
C2200 C2206 1.379 . S
C2200 N2208 1.356 . S
C2201 C2200 1.363 . S
C2201 C2207 1.363 . S
C2202 C2203 1.363 . S
C2202 C2207 1.379 . S
C2202 N2209 1.356 . S
C2203 C2202 1.363 . S
C2203 C2206 1.363 . S
N2204 C2206 1.356 . S
N2204 H2216 0.984 . S
N2204 H2217 0.985 . S
N2205 C2207 1.356 . S
N2205 H2210 0.984 . S
N2205 H2211 0.985 . S
C2206 C2200 1.379 . S
C2206 C2203 1.363 . S
C2206 N2204 1.356 . S
C2207 C2201 1.363 . S
C2207 C2202 1.379 . S
C2207 N2205 1.356 . S
N2208 C2200 1.356 . S
N2208 H2214 0.984 . S
N2208 H2215 0.984 . S
N2209 C2202 1.356 . S
N2209 H2212 0.984 . S
N2209 H2213 0.985 . S
H2210 N2205 0.984 . S
H2211 N2205 0.985 . S
H2212 N2209 0.984 . S
H2213 N2209 0.985 . S
H2214 N2208 0.984 . S
H2215 N2208 0.984 . S
H2216 N2204 0.984 . S
H2217 N2204 0.985 . S
C2218 C2219 1.363 . S
C2218 C2224 1.379 . S
C2218 N2226 1.356 1_554 S
C2219 C2218 1.363 . S
C2219 C2225 1.363 . S
C2220 C2221 1.363 . S
C2220 C2225 1.379 . S
C2220 N2227 1.356 . S
C2221 C2220 1.363 . S
C2221 C2224 1.363 . S
N2222 C2224 1.356 1_556 S
N2222 H2234 0.984 . S
N2222 H2235 0.979 1_556 S
N2223 C2225 1.356 . S
N2223 H2228 0.984 . S
N2223 H2229 0.985 . S
C2224 C2218 1.379 . S
C2224 C2221 1.363 . S
C2224 N2222 1.356 1_554 S
C2225 C2219 1.363 . S
C2225 C2220 1.379 . S
C2225 N2223 1.356 . S
N2226 C2218 1.356 1_556 S
N2226 H2232 0.984 . S
N2226 H2233 0.984 . S
N2227 C2220 1.356 . S
N2227 H2230 0.956 1_655 S
N2227 H2231 0.985 . S
H2228 N2223 0.984 . S
H2229 N2223 0.985 . S
H2230 N2227 0.956 1_455 S
H2231 N2227 0.985 . S
H2232 N2226 0.984 . S
H2233 N2226 0.984 . S
H2234 N2222 0.984 . S
H2235 N2222 0.979 1_554 S
C2236 C2237 1.363 . S
C2236 C2242 1.379 . S
C2236 N2244 1.356 . S
C2237 C2236 1.363 . S
C2237 C2243 1.363 . S
C2238 C2239 1.363 . S
C2238 C2243 1.379 . S
C2238 N2245 1.356 . S
C2239 C2238 1.363 . S
C2239 C2242 1.363 . S
N2240 C2242 1.356 . S
N2240 H2252 0.984 . S
N2240 H2253 0.985 . S
N2241 C2243 1.356 . S
N2241 H2246 0.984 . S
N2241 H2247 0.985 . S
C2242 C2236 1.379 . S
C2242 C2239 1.363 . S
C2242 N2240 1.356 . S
C2243 C2237 1.363 . S
C2243 C2238 1.379 . S
C2243 N2241 1.356 . S
N2244 C2236 1.356 . S
N2244 H2250 0.984 . S
N2244 H2251 0.984 . S
N2245 C2238 1.356 . S
N2245 H2248 0.984 . S
N2245 H2249 0.985 . S
H2246 N2241 0.984 . S
H2247 N2241 0.985 . S
H2248 N2245 0.984 . S
H2249 N2245 0.985 . S
H2250 N2244 0.984 . S
H2251 N2244 0.984 . S
H2252 N2240 0.984 . S
H2253 N2240 0.985 . S
C2254 C2255 1.363 . S
C2254 C2260 1.379 . S
C2254 N2262 1.356 . S
C2255 C2254 1.363 . S
C2255 C2261 1.363 1_545 S
C2256 C2257 1.363 . S
C2256 C2261 1.379 . S
C2256 N2263 1.356 . S
C2257 C2256 1.363 . S
C2257 C2260 1.363 1_565 S
N2258 C2260 1.356 . S
N2258 H2270 0.984 . S
N2258 H2271 0.985 1_545 S
N2259 C2261 1.356 . S
N2259 H2264 0.984 1_565 S
N2259 H2265 0.985 . S
C2260 C2254 1.379 . S
C2260 C2257 1.363 1_545 S
C2260 N2258 1.356 . S
C2261 C2255 1.363 1_565 S
C2261 C2256 1.379 . S
C2261 N2259 1.356 . S
N2262 C2254 1.356 . S
N2262 H2268 0.984 . S
N2262 H2269 0.984 . S
N2263 C2256 1.356 . S
N2263 H2266 0.984 . S
N2263 H2267 0.985 . S
H2264 N2259 0.984 1_545 S
H2265 N2259 0.985 . S
H2266 N2263 0.984 . S
H2267 N2263 0.985 . S
H2268 N2262 0.984 . S
H2269 N2262 0.984 . S
H2270 N2258 0.984 . S
H2271 N2258 0.985 1_565 S
C2272 C2273 1.363 . S
C2272 C2278 1.379 . S
C2272 N2280 1.356 . S
C2273 C2272 1.363 . S
C2273 C2279 1.363 . S
C2274 C2275 1.363 . S
C2274 C2279 1.379 . S
C2274 N2281 1.356 . S
C2275 C2274 1.363 . S
C2275 C2278 1.363 . S
N2276 C2278 1.356 . S
N2276 H2288 0.984 . S
N2276 H2289 0.985 . S
N2277 C2279 1.356 . S
N2277 H2282 0.984 . S
N2277 H2283 0.985 . S
C2278 C2272 1.379 . S
C2278 C2275 1.363 . S
C2278 N2276 1.356 . S
C2279 C2273 1.363 . S
C2279 C2274 1.379 . S
C2279 N2277 1.356 . S
N2280 C2272 1.356 . S
N2280 H2286 0.984 . S
N2280 H2287 0.984 . S
N2281 C2274 1.356 . S
N2281 H2284 0.984 . S
N2281 H2285 0.985 . S
H2282 N2277 0.984 . S
H2283 N2277 0.985 . S
H2284 N2281 0.984 . S
H2285 N2281 0.985 . S
H2286 N2280 0.984 . S
H2287 N2280 0.984 . S
H2288 N2276 0.984 . S
H2289 N2276 0.985 . S
C2290 C2291 1.363 . S
C2290 C2296 1.379 . S
C2290 N2298 1.356 . S
C2291 C2290 1.363 . S
C2291 C2297 1.363 . S
C2292 C2293 1.363 . S
C2292 C2297 1.379 . S
C2292 N2299 1.356 . S
C2293 C2292 1.363 . S
C2293 C2296 1.363 . S
N2294 C2296 1.356 . S
N2294 H2306 0.984 . S
N2294 H2307 0.985 . S
N2295 C2297 1.356 . S
N2295 H2300 0.984 . S
N2295 H2301 0.985 . S
C2296 C2290 1.379 . S
C2296 C2293 1.363 . S
C2296 N2294 1.356 . S
C2297 C2291 1.363 . S
C2297 C2292 1.379 . S
C2297 N2295 1.356 . S
N2298 C2290 1.356 . S
N2298 H2304 0.984 . S
N2298 H2305 0.984 . S
N2299 C2292 1.356 . S
N2299 H2302 0.984 . S
N2299 H2303 0.985 . S
H2300 N2295 0.984 . S
H2301 N2295 0.985 . S
H2302 N2299 0.984 . S
H2303 N2299 0.985 . S
H2304 N2298 0.984 . S
H2305 N2298 0.984 . S
H2306 N2294 0.984 . S
H2307 N2294 0.985 . S
C2308 C2309 1.363 . S
C2308 C2314 1.379 . S
C2308 N2316 1.356 . S
C2309 C2308 1.363 . S
C2309 C2315 1.363 . S
C2310 C2311 1.363 . S
C2310 C2315 1.379 . S
C2310 N2317 1.356 . S
C2311 C2310 1.363 . S
C2311 C2314 1.363 . S
N2312 C2314 1.356 . S
N2312 H2324 0.984 . S
N2312 H2325 0.985 . S
N2313 C2315 1.356 . S
N2313 H2318 0.984 . S
N2313 H2319 0.985 . S
C2314 C2308 1.379 . S
C2314 C2311 1.363 . S
C2314 N2312 1.356 . S
C2315 C2309 1.363 . S
C2315 C2310 1.379 . S
C2315 N2313 1.356 . S
N2316 C2308 1.356 . S
N2316 H2322 0.984 . S
N2316 H2323 0.984 . S
N2317 C2310 1.356 . S
N2317 H2320 0.984 . S
N2317 H2321 0.985 . S
H2318 N2313 0.984 . S
H2319 N2313 0.985 . S
H2320 N2317 0.984 . S
H2321 N2317 0.985 . S
H2322 N2316 0.984 . S
H2323 N2316 0.984 . S
H2324 N2312 0.984 . S
H2325 N2312 0.985 . S
C2326 C2327 1.363 . S
C2326 C2332 1.379 . S
C2326 N2334 1.356 . S
C2327 C2326 1.363 . S
C2327 C2333 1.363 . S
C2328 C2329 1.363 . S
C2328 C2333 1.379 . S
C2328 N2335 1.356 . S
C2329 C2328 1.363 . S
C2329 C2332 1.363 . S
N2330 C2332 1.356 . S
N2330 H2342 0.984 . S
N2330 H2343 0.985 . S
N2331 C2333 1.356 . S
N2331 H2336 0.984 . S
N2331 H2337 0.985 . S
C2332 C2326 1.379 . S
C2332 C2329 1.363 . S
C2332 N2330 1.356 . S
C2333 C2327 1.363 . S
C2333 C2328 1.379 . S
C2333 N2331 1.356 . S
N2334 C2326 1.356 . S
N2334 H2340 0.984 . S
N2334 H2341 0.984 . S
N2335 C2328 1.356 . S
N2335 H2338 0.984 . S
N2335 H2339 0.985 . S
H2336 N2331 0.984 . S
H2337 N2331 0.985 . S
H2338 N2335 0.984 . S
H2339 N2335 0.985 . S
H2340 N2334 0.984 . S
H2341 N2334 0.984 . S
H2342 N2330 0.984 . S
H2343 N2330 0.985 . S
C2344 C2345 1.363 . S
C2344 C2350 1.379 . S
C2344 N2352 1.356 . S
C2345 C2344 1.363 . S
C2345 C2351 1.363 . S
C2346 C2347 1.363 . S
C2346 C2351 1.379 . S
C2346 N2353 1.356 . S
C2347 C2346 1.363 . S
C2347 C2350 1.363 . S
N2348 C2350 1.356 1_554 S
N2348 H2360 0.984 . S
N2348 H2361 0.985 . S
N2349 C2351 1.356 . S
N2349 H2354 0.984 . S
N2349 H2355 0.985 . S
C2350 C2344 1.379 . S
C2350 C2347 1.363 . S
C2350 N2348 1.356 1_556 S
C2351 C2345 1.363 . S
C2351 C2346 1.379 . S
C2351 N2349 1.356 . S
N2352 C2344 1.356 . S
N2352 H2358 0.984 1_556 S
N2352 H2359 0.984 . S
N2353 C2346 1.356 . S
N2353 H2356 0.984 . S
N2353 H2357 0.985 . S
H2354 N2349 0.984 . S
H2355 N2349 0.985 . S
H2356 N2353 0.984 . S
H2357 N2353 0.985 . S
H2358 N2352 0.984 1_554 S
H2359 N2352 0.984 . S
H2360 N2348 0.984 . S
H2361 N2348 0.985 . S
C2362 C2363 1.363 . S
C2362 C2368 1.379 . S
C2362 N2370 1.356 . S
C2363 C2362 1.363 . S
C2363 C2369 1.363 . S
C2364 C2365 1.363 . S
C2364 C2369 1.379 . S
C2364 N2371 1.356 . S
C2365 C2364 1.363 . S
C2365 C2368 1.363 . S
N2366 C2368 1.356 . S
N2366 H2378 0.984 . S
N2366 H2379 0.985 . S
N2367 C2369 1.356 . S
N2367 H2372 0.984 . S
N2367 H2373 0.985 . S
C2368 C2362 1.379 . S
C2368 C2365 1.363 . S
C2368 N2366 1.356 . S
C2369 C2363 1.363 . S
C2369 C2364 1.379 . S
C2369 N2367 1.356 . S
N2370 C2362 1.356 . S
N2370 H2376 0.984 . S
N2370 H2377 0.984 . S
N2371 C2364 1.356 . S
N2371 H2374 0.984 . S
N2371 H2375 0.985 . S
H2372 N2367 0.984 . S
H2373 N2367 0.985 . S
H2374 N2371 0.984 . S
H2375 N2371 0.985 . S
H2376 N2370 0.984 . S
H2377 N2370 0.984 . S
H2378 N2366 0.984 . S
H2379 N2366 0.985 . S
C2380 C2381 1.363 . S
C2380 C2386 1.379 . S
C2380 N2388 1.356 . S
C2381 C2380 1.363 . S
C2381 C2387 1.363 . S
C2382 C2383 1.363 . S
C2382 C2387 1.379 . S
C2382 N2389 1.356 . S
C2383 C2382 1.363 . S
C2383 C2386 1.363 . S
N2384 C2386 1.356 . S
N2384 H2396 0.984 . S
N2384 H2397 0.985 . S
N2385 C2387 1.356 . S
N2385 H2390 0.984 . S
N2385 H2391 0.985 . S
C2386 C2380 1.379 . S
C2386 C2383 1.363 . S
C2386 N2384 1.356 . S
C2387 C2381 1.363 . S
C2387 C2382 1.379 . S
C2387 N2385 1.356 . S
N2388 C2380 1.356 . S
N2388 H2394 0.984 . S
N2388 H2395 0.984 . S
N2389 C2382 1.356 . S
N2389 H2392 0.984 . S
N2389 H2393 0.985 . S
H2390 N2385 0.984 . S
H2391 N2385 0.985 . S
H2392 N2389 0.984 . S
H2393 N2389 0.985 . S
H2394 N2388 0.984 . S
H2395 N2388 0.984 . S
H2396 N2384 0.984 . S
H2397 N2384 0.985 . S
C2398 C2399 1.363 . S
C2398 C2404 1.379 . S
C2398 N2406 1.356 . S
C2399 C2398 1.363 . S
C2399 C2405 1.363 . S
C2400 C2401 1.363 . S
C2400 C2405 1.379 . S
C2400 N2407 1.356 . S
C2401 C2400 1.363 . S
C2401 C2404 1.363 . S
N2402 C2404 1.356 . S
N2402 H2414 0.984 . S
N2402 H2415 0.985 . S
N2403 C2405 1.356 . S
N2403 H2408 0.984 . S
N2403 H2409 0.985 . S
C2404 C2398 1.379 . S
C2404 C2401 1.363 . S
C2404 N2402 1.356 . S
C2405 C2399 1.363 . S
C2405 C2400 1.379 . S
C2405 N2403 1.356 . S
N2406 C2398 1.356 . S
N2406 H2412 0.984 . S
N2406 H2413 0.984 . S
N2407 C2400 1.356 . S
N2407 H2410 0.984 . S
N2407 H2411 0.985 . S
H2408 N2403 0.984 . S
H2409 N2403 0.985 . S
H2410 N2407 0.984 . S
H2411 N2407 0.985 . S
H2412 N2406 0.984 . S
H2413 N2406 0.984 . S
H2414 N2402 0.984 . S
H2415 N2402 0.985 . S
C2416 C2417 1.363 . S
C2416 C2422 1.379 . S
C2416 N2424 1.356 . S
C2417 C2416 1.363 . S
C2417 C2423 1.363 . S
C2418 C2419 1.363 . S
C2418 C2423 1.379 . S
C2418 N2425 1.356 . S
C2419 C2418 1.363 . S
C2419 C2422 1.363 . S
N2420 C2422 1.356 . S
N2420 H2432 0.984 . S
N2420 H2433 0.985 . S
N2421 C2423 1.356 . S
N2421 H2426 0.984 . S
N2421 H2427 0.985 . S
C2422 C2416 1.379 . S
C2422 C2419 1.363 . S
C2422 N2420 1.356 . S
C2423 C2417 1.363 . S
C2423 C2418 1.379 . S
C2423 N2421 1.356 . S
N2424 C2416 1.356 . S
N2424 H2430 0.984 . S
N2424 H2431 0.984 . S
N2425 C2418 1.356 . S
N2425 H2428 0.984 . S
N2425 H2429 0.985 . S
H2426 N2421 0.984 . S
H2427 N2421 0.985 . S
H2428 N2425 0.984 . S
H2429 N2425 0.985 . S
H2430 N2424 0.984 . S
H2431 N2424 0.984 . S
H2432 N2420 0.984 . S
H2433 N2420 0.985 . S
C2434 C2435 1.363 . S
C2434 C2440 1.379 . S
C2434 N2442 1.356 . S
C2435 C2434 1.363 . S
C2435 C2441 1.363 . S
C2436 C2437 1.363 . S
C2436 C2441 1.379 . S
C2436 N2443 1.356 . S
C2437 C2436 1.363 . S
C2437 C2440 1.363 . S
N2438 C2440 1.356 . S
N2438 H2450 0.984 . S
N2438 H2451 0.985 . S
N2439 C2441 1.356 . S
N2439 H2444 0.984 . S
N2439 H2445 0.985 . S
C2440 C2434 1.379 . S
C2440 C2437 1.363 . S
C2440 N2438 1.356 . S
C2441 C2435 1.363 . S
C2441 C2436 1.379 . S
C2441 N2439 1.356 . S
N2442 C2434 1.356 . S
N2442 H2448 0.984 . S
N2442 H2449 0.984 . S
N2443 C2436 1.356 . S
N2443 H2446 0.984 . S
N2443 H2447 0.985 . S
H2444 N2439 0.984 . S
H2445 N2439 0.985 . S
H2446 N2443 0.984 . S
H2447 N2443 0.985 . S
H2448 N2442 0.984 . S
H2449 N2442 0.984 . S
H2450 N2438 0.984 . S
H2451 N2438 0.985 . S
C2452 C2453 1.363 . S
C2452 C2458 1.379 . S
C2452 N2460 1.356 1_455 S
C2453 C2452 1.363 . S
C2453 C2459 1.363 . S
C2454 C2455 1.363 . S
C2454 C2459 1.379 . S
C2454 N2461 1.356 . S
C2455 C2454 1.363 . S
C2455 C2458 1.363 . S
N2456 C2458 1.356 . S
N2456 H2468 0.984 1_455 S
N2456 H2469 0.985 . S
N2457 C2459 1.356 . S
N2457 H2462 0.984 . S
N2457 H2463 0.985 . S
C2458 C2452 1.379 . S
C2458 C2455 1.363 . S
C2458 N2456 1.356 . S
C2459 C2453 1.363 . S
C2459 C2454 1.379 . S
C2459 N2457 1.356 . S
N2460 C2452 1.356 1_655 S
N2460 H2466 0.984 . S
N2460 H2467 0.984 . S
N2461 C2454 1.356 . S
N2461 H2464 0.984 . S
N2461 H2465 0.985 . S
H2462 N2457 0.984 . S
H2463 N2457 0.985 . S
H2464 N2461 0.984 . S
H2465 N2461 0.985 . S
H2466 N2460 0.984 . S
H2467 N2460 0.984 . S
H2468 N2456 0.984 1_655 S
H2469 N2456 0.985 . S
C2470 C2471 1.363 . S
C2470 C2476 1.379 . S
C2470 N2478 1.356 . S
C2471 C2470 1.363 . S
C2471 C2477 1.363 . S
C2472 C2473 1.363 . S
C2472 C2477 1.379 . S
C2472 N2479 1.356 . S
C2473 C2472 1.363 . S
C2473 C2476 1.363 . S
N2474 C2476 1.356 . S
N2474 H2486 0.984 . S
N2474 H2487 0.985 . S
N2475 C2477 1.356 . S
N2475 H2480 0.984 . S
N2475 H2481 0.985 . S
C2476 C2470 1.379 . S
C2476 C2473 1.363 . S
C2476 N2474 1.356 . S
C2477 C2471 1.363 . S
C2477 C2472 1.379 . S
C2477 N2475 1.356 . S
N2478 C2470 1.356 . S
N2478 H2484 0.984 . S
N2478 H2485 0.984 . S
N2479 C2472 1.356 . S
N2479 H2482 0.984 . S
N2479 H2483 0.985 . S
H2480 N2475 0.984 . S
H2481 N2475 0.985 . S
H2482 N2479 0.984 . S
H2483 N2479 0.985 . S
H2484 N2478 0.984 . S
H2485 N2478 0.984 . S
H2486 N2474 0.984 . S
H2487 N2474 0.985 . S
C2488 C2489 1.363 . S
C2488 C2494 1.379 . S
C2488 N2496 1.356 . S
C2489 C2488 1.363 . S
C2489 C2495 1.363 . S
C2490 C2491 1.363 . S
C2490 C2495 1.379 . S
C2490 N2497 1.356 . S
C2491 C2490 1.363 . S
C2491 C2494 1.363 . S
N2492 C2494 1.356 . S
N2492 H2504 0.984 . S
N2492 H2505 0.985 . S
N2493 C2495 1.356 . S
N2493 H2498 0.984 . S
N2493 H2499 0.985 . S
C2494 C2488 1.379 . S
C2494 C2491 1.363 . S
C2494 N2492 1.356 . S
C2495 C2489 1.363 . S
C2495 C2490 1.379 . S
C2495 N2493 1.356 . S
N2496 C2488 1.356 . S
N2496 H2502 0.984 . S
N2496 H2503 0.984 . S
N2497 C2490 1.356 . S
N2497 H2500 0.984 . S
N2497 H2501 0.985 . S
H2498 N2493 0.984 . S
H2499 N2493 0.985 . S
H2500 N2497 0.984 . S
H2501 N2497 0.985 . S
H2502 N2496 0.984 . S
H2503 N2496 0.984 . S
H2504 N2492 0.984 . S
H2505 N2492 0.985 . S
C2506 C2507 1.363 . S
C2506 C2512 1.379 . S
C2506 N2514 1.356 . S
C2507 C2506 1.363 . S
C2507 C2513 1.363 . S
C2508 C2509 1.363 . S
C2508 C2513 1.379 . S
C2508 N2515 1.356 . S
C2509 C2508 1.363 . S
C2509 C2512 1.363 . S
N2510 C2512 1.356 . S
N2510 H2522 0.984 . S
N2510 H2523 0.985 . S
N2511 C2513 1.356 . S
N2511 H2516 0.984 . S
N2511 H2517 0.985 . S
C2512 C2506 1.379 . S
C2512 C2509 1.363 . S
C2512 N2510 1.356 . S
C2513 C2507 1.363 . S
C2513 C2508 1.379 . S
C2513 N2511 1.356 . S
N2514 C2506 1.356 . S
N2514 H2520 0.984 . S
N2514 H2521 0.984 . S
N2515 C2508 1.356 . S
N2515 H2518 0.984 . S
N2515 H2519 0.985 . S
H2516 N2511 0.984 . S
H2517 N2511 0.985 . S
H2518 N2515 0.984 . S
H2519 N2515 0.985 . S
H2520 N2514 0.984 . S
H2521 N2514 0.984 . S
H2522 N2510 0.984 . S
H2523 N2510 0.985 . S
C2524 C2525 1.363 1_655 S
C2524 C2530 1.379 . S
C2524 N2532 1.356 . S
C2525 C2524 1.363 1_455 S
C2525 C2531 1.363 . S
C2526 C2527 1.363 . S
C2526 C2531 1.379 . S
C2526 N2533 1.356 . S
C2527 C2526 1.363 . S
C2527 C2530 1.363 1_455 S
N2528 C2530 1.356 . S
N2528 H2540 0.984 . S
N2528 H2541 0.985 . S
N2529 C2531 1.356 . S
N2529 H2534 0.984 . S
N2529 H2535 0.985 . S
C2530 C2524 1.379 . S
C2530 C2527 1.363 1_655 S
C2530 N2528 1.356 . S
C2531 C2525 1.363 . S
C2531 C2526 1.379 . S
C2531 N2529 1.356 . S
N2532 C2524 1.356 . S
N2532 H2538 0.984 . S
N2532 H2539 0.984 . S
N2533 C2526 1.356 . S
N2533 H2536 0.984 . S
N2533 H2537 0.985 . S
H2534 N2529 0.984 . S
H2535 N2529 0.985 . S
H2536 N2533 0.984 . S
H2537 N2533 0.985 . S
H2538 N2532 0.984 . S
H2539 N2532 0.984 . S
H2540 N2528 0.984 . S
H2541 N2528 0.985 . S
C2542 C2543 1.363 . S
C2542 C2548 1.379 . S
C2542 N2550 1.356 . S
C2543 C2542 1.363 . S
C2543 C2549 1.363 . S
C2544 C2545 1.363 . S
C2544 C2549 1.379 . S
C2544 N2551 1.356 . S
C2545 C2544 1.363 . S
C2545 C2548 1.363 . S
N2546 C2548 1.356 . S
N2546 H2558 0.984 . S
N2546 H2559 0.985 . S
N2547 C2549 1.356 . S
N2547 H2552 0.984 . S
N2547 H2553 0.985 . S
C2548 C2542 1.379 . S
C2548 C2545 1.363 . S
C2548 N2546 1.356 . S
C2549 C2543 1.363 . S
C2549 C2544 1.379 . S
C2549 N2547 1.356 . S
N2550 C2542 1.356 . S
N2550 H2556 0.984 . S
N2550 H2557 0.984 . S
N2551 C2544 1.356 . S
N2551 H2554 0.984 . S
N2551 H2555 0.985 . S
H2552 N2547 0.984 . S
H2553 N2547 0.985 . S
H2554 N2551 0.984 . S
H2555 N2551 0.985 . S
H2556 N2550 0.984 . S
H2557 N2550 0.984 . S
H2558 N2546 0.984 . S
H2559 N2546 0.985 . S
C2560 C2561 1.363 . S
C2560 C2566 1.379 . S
C2560 N2568 1.356 . S
C2561 C2560 1.363 . S
C2561 C2567 1.363 . S
C2562 C2563 1.363 . S
C2562 C2567 1.379 . S
C2562 N2569 1.356 . S
C2563 C2562 1.363 . S
C2563 C2566 1.363 . S
N2564 C2566 1.356 . S
N2564 H2576 0.984 . S
N2564 H2577 0.985 . S
N2565 C2567 1.356 . S
N2565 H2570 0.984 . S
N2565 H2571 0.985 . S
C2566 C2560 1.379 . S
C2566 C2563 1.363 . S
C2566 N2564 1.356 . S
C2567 C2561 1.363 . S
C2567 C2562 1.379 . S
C2567 N2565 1.356 . S
N2568 C2560 1.356 . S
N2568 H2574 0.984 . S
N2568 H2575 0.984 . S
N2569 C2562 1.356 . S
N2569 H2572 0.984 . S
N2569 H2573 0.985 . S
H2570 N2565 0.984 . S
H2571 N2565 0.985 . S
H2572 N2569 0.984 . S
H2573 N2569 0.985 . S
H2574 N2568 0.984 . S
H2575 N2568 0.984 . S
H2576 N2564 0.984 . S
H2577 N2564 0.985 . S
C2578 C2579 1.363 . S
C2578 C2584 1.379 . S
C2578 N2586 1.356 . S
C2579 C2578 1.363 . S
C2579 C2585 1.347 1_565 S
C2580 C2581 1.363 . S
C2580 C2585 1.386 . S
C2580 N2587 1.356 . S
C2581 C2580 1.363 . S
C2581 C2584 1.363 1_545 S
N2582 C2584 1.356 . S
N2582 H2594 0.984 . S
N2582 H2595 0.985 . S
N2583 C2585 1.361 . S
N2583 H2588 0.984 1_545 S
N2583 H2589 0.985 . S
C2584 C2578 1.379 . S
C2584 C2581 1.363 1_565 S
C2584 N2582 1.356 . S
C2585 C2579 1.347 1_545 S
C2585 C2580 1.386 . S
C2585 N2583 1.361 . S
N2586 C2578 1.356 . S
N2586 H2592 0.984 . S
N2586 H2593 0.984 . S
N2587 C2580 1.356 . S
N2587 H2590 0.984 . S
N2587 H2591 0.985 . S
H2588 N2583 0.984 1_565 S
H2589 N2583 0.985 . S
H2590 N2587 0.984 . S
H2591 N2587 0.985 . S
H2592 N2586 0.984 . S
H2593 N2586 0.984 . S
H2594 N2582 0.984 . S
H2595 N2582 0.985 . S
C2596 C2597 1.363 . S
C2596 C2602 1.379 . S
C2596 N2604 1.356 . S
C2597 C2596 1.363 . S
C2597 C2603 1.363 . S
C2598 C2599 1.363 . S
C2598 C2603 1.379 . S
C2598 N2605 1.356 . S
C2599 C2598 1.363 . S
C2599 C2602 1.363 . S
N2600 C2602 1.356 . S
N2600 H2612 0.984 . S
N2600 H2613 0.985 . S
N2601 C2603 1.356 . S
N2601 H2606 0.984 . S
N2601 H2607 0.985 . S
C2602 C2596 1.379 . S
C2602 C2599 1.363 . S
C2602 N2600 1.356 . S
C2603 C2597 1.363 . S
C2603 C2598 1.379 . S
C2603 N2601 1.356 . S
N2604 C2596 1.356 . S
N2604 H2610 0.984 . S
N2604 H2611 0.984 . S
N2605 C2598 1.356 . S
N2605 H2608 0.984 . S
N2605 H2609 0.985 . S
H2606 N2601 0.984 . S
H2607 N2601 0.985 . S
H2608 N2605 0.984 . S
H2609 N2605 0.985 . S
H2610 N2604 0.984 . S
H2611 N2604 0.984 . S
H2612 N2600 0.984 . S
H2613 N2600 0.985 . S
C2614 C2615 1.363 1_554 S
C2614 C2620 1.379 . S
C2614 N2622 1.356 . S
C2615 C2614 1.363 1_556 S
C2615 C2621 1.363 . S
C2616 C2617 1.363 1_556 S
C2616 C2621 1.379 . S
C2616 N2623 1.356 . S
C2617 C2616 1.363 1_554 S
C2617 C2620 1.363 . S
N2618 C2620 1.356 . S
N2618 H2630 0.984 . S
N2618 H2631 0.985 . S
N2619 C2621 1.356 . S
N2619 H2624 0.984 . S
N2619 H2625 0.985 . S
C2620 C2614 1.379 . S
C2620 C2617 1.363 . S
C2620 N2618 1.356 . S
C2621 C2615 1.363 . S
C2621 C2616 1.379 . S
C2621 N2619 1.356 . S
N2622 C2614 1.356 . S
N2622 H2628 0.984 . S
N2622 H2629 0.984 . S
N2623 C2616 1.356 . S
N2623 H2626 0.984 . S
N2623 H2627 0.985 . S
H2624 N2619 0.984 . S
H2625 N2619 0.985 . S
H2626 N2623 0.984 . S
H2627 N2623 0.985 . S
H2628 N2622 0.984 . S
H2629 N2622 0.984 . S
H2630 N2618 0.984 . S
H2631 N2618 0.985 . S
C2632 C2633 1.363 . S
C2632 C2638 1.379 . S
C2632 N2640 1.356 . S
C2633 C2632 1.363 . S
C2633 C2639 1.363 . S
C2634 C2635 1.363 . S
C2634 C2639 1.379 . S
C2634 N2641 1.356 . S
C2635 C2634 1.363 . S
C2635 C2638 1.363 . S
N2636 C2638 1.356 . S
N2636 H2648 0.984 . S
N2636 H2649 0.985 . S
N2637 C2639 1.356 . S
N2637 H2642 0.984 . S
N2637 H2643 0.985 . S
C2638 C2632 1.379 . S
C2638 C2635 1.363 . S
C2638 N2636 1.356 . S
C2639 C2633 1.363 . S
C2639 C2634 1.379 . S
C2639 N2637 1.356 . S
N2640 C2632 1.356 . S
N2640 H2646 0.984 . S
N2640 H2647 0.984 . S
N2641 C2634 1.356 . S
N2641 H2644 0.984 . S
N2641 H2645 0.985 . S
H2642 N2637 0.984 . S
H2643 N2637 0.985 . S
H2644 N2641 0.984 . S
H2645 N2641 0.985 . S
H2646 N2640 0.984 . S
H2647 N2640 0.984 . S
H2648 N2636 0.984 . S
H2649 N2636 0.985 . S
C2650 C2651 1.363 . S
C2650 C2656 1.379 . S
C2650 N2658 1.356 . S
C2651 C2650 1.363 . S
C2651 C2657 1.363 . S
C2652 C2653 1.363 . S
C2652 C2657 1.379 . S
C2652 N2659 1.356 1_554 S
C2653 C2652 1.363 . S
C2653 C2656 1.363 . S
N2654 C2656 1.356 . S
N2654 H2666 0.984 . S
N2654 H2667 0.985 . S
N2655 C2657 1.356 1_556 S
N2655 H2660 0.984 . S
N2655 H2661 0.985 . S
C2656 C2650 1.379 . S
C2656 C2653 1.363 . S
C2656 N2654 1.356 . S
C2657 C2651 1.363 . S
C2657 C2652 1.379 . S
C2657 N2655 1.356 1_554 S
N2658 C2650 1.356 . S
N2658 H2664 0.984 . S
N2658 H2665 0.984 . S
N2659 C2652 1.356 1_556 S
N2659 H2662 0.984 . S
N2659 H2663 0.985 . S
H2660 N2655 0.984 . S
H2661 N2655 0.985 . S
H2662 N2659 0.984 . S
H2663 N2659 0.985 . S
H2664 N2658 0.984 . S
H2665 N2658 0.984 . S
H2666 N2654 0.984 . S
H2667 N2654 0.985 . S
C2668 C2669 1.363 . S
C2668 C2674 1.379 . S
C2668 N2676 1.356 . S
C2669 C2668 1.363 . S
C2669 C2675 1.363 . S
C2670 C2671 1.363 . S
C2670 C2675 1.379 . S
C2670 N2677 1.356 . S
C2671 C2670 1.363 . S
C2671 C2674 1.363 . S
N2672 C2674 1.356 . S
N2672 H2684 0.984 . S
N2672 H2685 0.985 . S
N2673 C2675 1.356 . S
N2673 H2678 0.984 . S
N2673 H2679 0.985 . S
C2674 C2668 1.379 . S
C2674 C2671 1.363 . S
C2674 N2672 1.356 . S
C2675 C2669 1.363 . S
C2675 C2670 1.379 . S
C2675 N2673 1.356 . S
N2676 C2668 1.356 . S
N2676 H2682 0.984 . S
N2676 H2683 0.984 . S
N2677 C2670 1.356 . S
N2677 H2680 0.984 . S
N2677 H2681 0.985 . S
H2678 N2673 0.984 . S
H2679 N2673 0.985 . S
H2680 N2677 0.984 . S
H2681 N2677 0.985 . S
H2682 N2676 0.984 . S
H2683 N2676 0.984 . S
H2684 N2672 0.984 . S
H2685 N2672 0.985 . S
C2686 C2687 1.363 . S
C2686 C2692 1.379 . S
C2686 N2694 1.356 . S
C2687 C2686 1.363 . S
C2687 C2693 1.363 . S
C2688 C2689 1.363 . S
C2688 C2693 1.379 . S
C2688 N2695 1.356 . S
C2689 C2688 1.363 . S
C2689 C2692 1.363 . S
N2690 C2692 1.356 . S
N2690 H2702 0.984 . S
N2690 H2703 0.985 . S
N2691 C2693 1.356 . S
N2691 H2696 0.984 . S
N2691 H2697 0.985 . S
C2692 C2686 1.379 . S
C2692 C2689 1.363 . S
C2692 N2690 1.356 . S
C2693 C2687 1.363 . S
C2693 C2688 1.379 . S
C2693 N2691 1.356 . S
N2694 C2686 1.356 . S
N2694 H2700 0.984 . S
N2694 H2701 0.984 . S
N2695 C2688 1.356 . S
N2695 H2698 0.984 . S
N2695 H2699 0.985 . S
H2696 N2691 0.984 . S
H2697 N2691 0.985 . S
H2698 N2695 0.984 . S
H2699 N2695 0.985 . S
H2700 N2694 0.984 . S
H2701 N2694 0.984 . S
H2702 N2690 0.984 . S
H2703 N2690 0.985 . S
C977 C105 1.932 1_455 S
C979 C358 1.912 1_556 S
C995 C65 1.464 . S
C997 C378 1.444 . S
C1013 C73 0.879 . S
C1015 C425 0.877 . S
C1033 C482 1.261 . S
C1031 C92 1.320 . S
C1049 C17 2.687 . S
C1051 C499 2.664 1_565 S
C1069 C558 1.931 . S
C1067 C37 1.942 . S
C1087 C591 2.768 . S
C1085 C49 2.695 . S
C1103 C8 2.565 . S
C1105 C638 2.519 . S
C1123 C351 1.922 . S
C1121 C231 1.794 1_545 S
C1139 C241 1.611 . S
C1141 C379 1.607 . S
C1159 C418 0.641 . S
C1157 C273 0.669 . S
C1177 C478 2.280 . S
C1175 C171 2.269 . S
C1193 C227 0.701 . S
C1195 C505 0.708 . S
C1213 C551 2.268 . S
C1211 C245 2.264 . S
C1231 C602 0.929 . S
C1229 C269 0.959 . S
C1249 C631 2.398 . S
C1247 C175 2.314 . S
C1267 C362 2.133 1_565 S
C1265 C162 2.219 . S
C1283 C289 2.227 . S
C1285 C658 2.193 . S
C1303 C722 1.608 . S
C1301 C330 1.635 . S
C1321 C758 1.624 . S
C1319 C317 1.651 . S
C1337 C120 1.902 . S
C1339 C642 1.938 . S
C1355 C134 2.612 . S
C1357 C419 2.616 . S
C1373 C331 1.562 . S
C1375 C791 1.618 . S
C1393 C825 0.620 . S
C1391 C303 0.568 . S
C1411 C339 1.993 1_565 S
C1409 C59 2.008 . S
C1429 C831 1.620 . S
C1427 C107 1.614 . S
C1445 C91 0.950 . S
C1447 C442 0.930 . S
C1463 C78 1.318 . S
C1465 C785 1.303 . S
C1483 C518 2.703 . S
C1481 C7 2.687 . S
C1499 C51 1.986 . S
C1501 C699 1.974 . S
C1519 C578 2.767 1_566 S
C1517 C31 2.781 . S
C1537 C859 2.534 . S
C1535 C22 2.561 . S
C1555 C338 1.836 . S
C1553 C143 1.779 . S
C1573 C838 1.682 . S
C1571 C315 1.691 . S
C1589 C115 0.661 . S
C1591 C431 0.658 . S
C1607 C287 2.198 . S
C1609 C779 2.294 . S
C1625 C147 0.748 . S
C1627 C522 0.748 . S
C1645 C698 2.307 . S
C1643 C311 2.308 . S
C1661 C119 0.918 . S
C1663 C585 0.942 . S
C1679 C283 2.401 . S
C1681 C858 2.400 . S
C1697 C190 2.055 1_556 S
C1699 C345 2.020 . S
C1715 C177 2.207 . S
C1717 C671 2.184 . S
C1733 C260 1.594 . S
C1735 C545 1.627 . S
C1751 C247 1.691 . S
C1753 C739 1.660 . S
C1771 C865 1.853 . S
C1769 C274 1.757 . S
C1787 C218 2.631 . S
C1789 C438 2.636 1_565 S
C1807 C458 1.636 . S
C1805 C261 1.551 . S
C1825 C402 0.728 . S
C1823 C205 0.724 . S
C1841 C77 2.046 . S
C1843 C918 2.039 . S
C1861 C818 1.448 . S
C1859 C93 1.476 . S
C1877 C101 0.814 . S
C1879 C945 0.815 . S
C1895 C64 1.360 . S
C1897 C802 1.315 . S
C1913 C45 2.677 . S
C1915 C659 2.653 . S
C1933 C718 1.958 . S
C1931 C9 1.969 . S
C1951 C751 2.775 . S
C1949 C21 2.704 . S
C1969 C878 2.467 . S
C1967 C36 2.515 . S
C1987 C911 1.875 . S
C1985 C259 1.749 . S
C2003 C185 1.588 . S
C2005 C819 1.588 . S
C2023 C938 0.656 . S
C2021 C203 0.671 . S
C2041 C798 2.274 . S
C2039 C213 2.265 . S
C2059 C665 0.701 . S
C2057 C255 0.692 . S
C2075 C189 2.297 . S
C2077 C711 2.295 . S
C2095 C762 0.919 . S
C2093 C199 0.949 . S
C2111 C217 2.298 . S
C2113 C871 2.377 . S
C2131 C922 2.150 . S
C2129 C316 2.235 . S
C2147 C135 2.257 . S
C2149 C498 2.222 . S
C2167 C562 1.572 . S
C2165 C148 1.598 . S
C2185 C598 1.626 1_565 S
C2183 C163 1.652 . S
C2203 C882 1.729 . S
C2201 C302 1.716 . S
C2219 C288 2.633 . S
C2221 C939 2.635 1_655 S
C2239 C471 1.645 . S
C2237 C149 1.592 . S
C2257 C385 0.690 . S
C2255 C121 0.680 . S
C2273 C87 2.035 . S
C2275 C899 2.026 . S
C2293 C391 1.455 . S
C2291 C79 1.440 . S
C2309 C63 0.951 . S
C2311 C962 0.934 . S
C2327 C106 1.219 . S
C2329 C465 1.202 . S
C2345 C35 2.683 . S
C2347 C678 2.698 . S
C2365 C539 1.992 . S
C2363 C23 2.005 . S
C2381 C3 2.806 . S
C2383 C738 2.803 . S
C2399 C50 2.526 . S
C2401 C619 2.494 . S
C2419 C898 1.867 . S
C2417 C325 1.807 . S
C2435 C161 1.685 . S
C2437 C398 1.673 . S
C2455 C951 0.592 . S
C2453 C297 0.570 . S
C2471 C133 2.218 . S
C2473 C459 2.309 . S
C2489 C329 0.729 . S
C2491 C682 0.732 . S
C2509 C538 2.335 . S
C2507 C157 2.335 1_556 S
C2525 C301 0.879 . S
C2527 C745 0.905 . S
C2545 C618 2.395 . S
C2543 C129 2.397 . S
C2563 C905 2.077 . S
C2561 C246 2.117 . S
C2581 C511 2.224 . S
C2579 C219 2.247 . S
C2597 C232 1.564 . S
C2599 C705 1.595 . S
C2617 C579 1.625 . S
C2615 C191 1.654 . S
C2633 C204 1.756 . S
C2635 C625 1.845 . S
C2651 C176 2.660 . S
C2653 C958 2.664 . S
C2671 C778 1.654 . S
C2669 C233 1.569 . S
C2689 C842 0.757 . S
C2687 C275 0.757 . S
