# Generated by pormake.
# Topology ctn, (3,4)-cn, num edge types: 1
# Building blocks:
#     Node 0, Type 0, BuildingBlock: OLANEW_clean_sbu_2, # of connection points: 3
#     Node 1, Type 0, BuildingBlock: OLANEW_clean_sbu_2, # of connection points: 3
#     Node 2, Type 0, BuildingBlock: OLANEW_clean_sbu_2, # of connection points: 3
#     Node 3, Type 0, BuildingBlock: OLANEW_clean_sbu_2, # of connection points: 3
#     Node 4, Type 0, BuildingBlock: OLANEW_clean_sbu_2, # of connection points: 3
#     Node 5, Type 0, BuildingBlock: OLANEW_clean_sbu_2, # of connection points: 3
#     Node 6, Type 0, BuildingBlock: OLANEW_clean_sbu_2, # of connection points: 3
#     Node 7, Type 0, BuildingBlock: OLANEW_clean_sbu_2, # of connection points: 3
#     Node 8, Type 0, BuildingBlock: OLANEW_clean_sbu_2, # of connection points: 3
#     Node 9, Type 0, BuildingBlock: OLANEW_clean_sbu_2, # of connection points: 3
#     Node 10, Type 0, BuildingBlock: OLANEW_clean_sbu_2, # of connection points: 3
#     Node 11, Type 0, BuildingBlock: OLANEW_clean_sbu_2, # of connection points: 3
#     Node 12, Type 0, BuildingBlock: OLANEW_clean_sbu_2, # of connection points: 3
#     Node 13, Type 0, BuildingBlock: OLANEW_clean_sbu_2, # of connection points: 3
#     Node 14, Type 0, BuildingBlock: OLANEW_clean_sbu_2, # of connection points: 3
#     Node 15, Type 0, BuildingBlock: OLANEW_clean_sbu_2, # of connection points: 3
#     Node 16, Type 1, BuildingBlock: NAHDIM_clean_sbu_0, # of connection points: 4
#     Node 17, Type 1, BuildingBlock: NAHDIM_clean_sbu_0, # of connection points: 4
#     Node 18, Type 1, BuildingBlock: NAHDIM_clean_sbu_0, # of connection points: 4
#     Node 19, Type 1, BuildingBlock: NAHDIM_clean_sbu_0, # of connection points: 4
#     Node 20, Type 1, BuildingBlock: NAHDIM_clean_sbu_0, # of connection points: 4
#     Node 21, Type 1, BuildingBlock: NAHDIM_clean_sbu_0, # of connection points: 4
#     Node 22, Type 1, BuildingBlock: NAHDIM_clean_sbu_0, # of connection points: 4
#     Node 23, Type 1, BuildingBlock: NAHDIM_clean_sbu_0, # of connection points: 4
#     Node 24, Type 1, BuildingBlock: NAHDIM_clean_sbu_0, # of connection points: 4
#     Node 25, Type 1, BuildingBlock: NAHDIM_clean_sbu_0, # of connection points: 4
#     Node 26, Type 1, BuildingBlock: NAHDIM_clean_sbu_0, # of connection points: 4
#     Node 27, Type 1, BuildingBlock: NAHDIM_clean_sbu_0, # of connection points: 4
#     Edge 28, Type (0, 1), BuildingBlock: ZUJKAS_clean_linker_0, # of connection points: 2
#     Edge 29, Type (0, 1), BuildingBlock: ZUJKAS_clean_linker_0, # of connection points: 2
#     Edge 30, Type (0, 1), BuildingBlock: ZUJKAS_clean_linker_0, # of connection points: 2
#     Edge 31, Type (0, 1), BuildingBlock: ZUJKAS_clean_linker_0, # of connection points: 2
#     Edge 32, Type (0, 1), BuildingBlock: ZUJKAS_clean_linker_0, # of connection points: 2
#     Edge 33, Type (0, 1), BuildingBlock: ZUJKAS_clean_linker_0, # of connection points: 2
#     Edge 34, Type (0, 1), BuildingBlock: ZUJKAS_clean_linker_0, # of connection points: 2
#     Edge 35, Type (0, 1), BuildingBlock: ZUJKAS_clean_linker_0, # of connection points: 2
#     Edge 36, Type (0, 1), BuildingBlock: ZUJKAS_clean_linker_0, # of connection points: 2
#     Edge 37, Type (0, 1), BuildingBlock: ZUJKAS_clean_linker_0, # of connection points: 2
#     Edge 38, Type (0, 1), BuildingBlock: ZUJKAS_clean_linker_0, # of connection points: 2
#     Edge 39, Type (0, 1), BuildingBlock: ZUJKAS_clean_linker_0, # of connection points: 2
#     Edge 40, Type (0, 1), BuildingBlock: ZUJKAS_clean_linker_0, # of connection points: 2
#     Edge 41, Type (0, 1), BuildingBlock: ZUJKAS_clean_linker_0, # of connection points: 2
#     Edge 42, Type (0, 1), BuildingBlock: ZUJKAS_clean_linker_0, # of connection points: 2
#     Edge 43, Type (0, 1), BuildingBlock: ZUJKAS_clean_linker_0, # of connection points: 2
#     Edge 44, Type (0, 1), BuildingBlock: ZUJKAS_clean_linker_0, # of connection points: 2
#     Edge 45, Type (0, 1), BuildingBlock: ZUJKAS_clean_linker_0, # of connection points: 2
#     Edge 46, Type (0, 1), BuildingBlock: ZUJKAS_clean_linker_0, # of connection points: 2
#     Edge 47, Type (0, 1), BuildingBlock: ZUJKAS_clean_linker_0, # of connection points: 2
#     Edge 48, Type (0, 1), BuildingBlock: ZUJKAS_clean_linker_0, # of connection points: 2
#     Edge 49, Type (0, 1), BuildingBlock: ZUJKAS_clean_linker_0, # of connection points: 2
#     Edge 50, Type (0, 1), BuildingBlock: ZUJKAS_clean_linker_0, # of connection points: 2
#     Edge 51, Type (0, 1), BuildingBlock: ZUJKAS_clean_linker_0, # of connection points: 2
#     Edge 52, Type (0, 1), BuildingBlock: ZUJKAS_clean_linker_0, # of connection points: 2
#     Edge 53, Type (0, 1), BuildingBlock: ZUJKAS_clean_linker_0, # of connection points: 2
#     Edge 54, Type (0, 1), BuildingBlock: ZUJKAS_clean_linker_0, # of connection points: 2
#     Edge 55, Type (0, 1), BuildingBlock: ZUJKAS_clean_linker_0, # of connection points: 2
#     Edge 56, Type (0, 1), BuildingBlock: ZUJKAS_clean_linker_0, # of connection points: 2
#     Edge 57, Type (0, 1), BuildingBlock: ZUJKAS_clean_linker_0, # of connection points: 2
#     Edge 58, Type (0, 1), BuildingBlock: ZUJKAS_clean_linker_0, # of connection points: 2
#     Edge 59, Type (0, 1), BuildingBlock: ZUJKAS_clean_linker_0, # of connection points: 2
#     Edge 60, Type (0, 1), BuildingBlock: ZUJKAS_clean_linker_0, # of connection points: 2
#     Edge 61, Type (0, 1), BuildingBlock: ZUJKAS_clean_linker_0, # of connection points: 2
#     Edge 62, Type (0, 1), BuildingBlock: ZUJKAS_clean_linker_0, # of connection points: 2
#     Edge 63, Type (0, 1), BuildingBlock: ZUJKAS_clean_linker_0, # of connection points: 2
#     Edge 64, Type (0, 1), BuildingBlock: ZUJKAS_clean_linker_0, # of connection points: 2
#     Edge 65, Type (0, 1), BuildingBlock: ZUJKAS_clean_linker_0, # of connection points: 2
#     Edge 66, Type (0, 1), BuildingBlock: ZUJKAS_clean_linker_0, # of connection points: 2
#     Edge 67, Type (0, 1), BuildingBlock: ZUJKAS_clean_linker_0, # of connection points: 2
#     Edge 68, Type (0, 1), BuildingBlock: ZUJKAS_clean_linker_0, # of connection points: 2
#     Edge 69, Type (0, 1), BuildingBlock: ZUJKAS_clean_linker_0, # of connection points: 2
#     Edge 70, Type (0, 1), BuildingBlock: ZUJKAS_clean_linker_0, # of connection points: 2
#     Edge 71, Type (0, 1), BuildingBlock: ZUJKAS_clean_linker_0, # of connection points: 2
#     Edge 72, Type (0, 1), BuildingBlock: ZUJKAS_clean_linker_0, # of connection points: 2
#     Edge 73, Type (0, 1), BuildingBlock: ZUJKAS_clean_linker_0, # of connection points: 2
#     Edge 74, Type (0, 1), BuildingBlock: ZUJKAS_clean_linker_0, # of connection points: 2
#     Edge 75, Type (0, 1), BuildingBlock: ZUJKAS_clean_linker_0, # of connection points: 2
# Relax obj value: 0.048
# Max RMSD: 0.166
# Mean RMSD: 0.097
data_MOF--net-ctn--node1-OLANEW_clean_sbu_2--node2-NAHDIM_clean_sbu_0--edge1-ZUJKAS_clean_linker_0
_symmetry_space_group_name_H-M    P1
_symmetry_Int_Tables_number       1
_symmetry_cell_setting            triclinic
loop_
_symmetry_equiv_pos_as_xyz
'x, y, z'
_cell_length_a     74.285011
_cell_length_b     76.492687
_cell_length_c     71.963282
_cell_angle_alpha  92.224849
_cell_angle_beta   94.060314
_cell_angle_gamma 97.256239
loop_
_atom_site_label
_atom_site_type_symbol
_atom_site_fract_x
_atom_site_fract_y
_atom_site_fract_z
_atom_type_partial_charge
O0 O 0.03754 0.06004 0.02134 0.0
Cd1 Cd 0.03532 0.03456 0.04104 0.0
O2 O 0.05354 0.07812 0.04263 0.0
Cd3 Cd 0.04986 0.05926 0.06442 0.0
O4 O 0.0362 0.04951 0.08856 0.0
C5 C 0.03037 0.06127 0.09863 0.0
O6 O 0.03353 0.07782 0.09416 0.0
C7 C 0.04607 0.0752 0.02617 0.0
C8 C 0.06453 0.01505 0.03889 0.0
O9 O 0.05059 0.01213 0.02712 0.0
O10 O 0.06473 0.02729 0.05162 0.0
O11 O 0.2949 0.73878 0.26313 0.0
Cd12 Cd 0.26451 0.7314 0.24728 0.0
O13 O 0.30346 0.7133 0.2548 0.0
Cd14 Cd 0.27633 0.70162 0.24377 0.0
O15 O 0.25273 0.6817 0.24491 0.0
C16 C 0.25626 0.66722 0.25147 0.0
O17 O 0.27331 0.66536 0.25619 0.0
C18 C 0.30715 0.72858 0.26279 0.0
C19 C 0.26026 0.75136 0.21601 0.0
O20 O 0.256 0.75675 0.23201 0.0
O21 O 0.26644 0.73649 0.21479 0.0
O22 O 0.9691 0.47109 0.09545 0.0
Cd23 Cd 0.9529 0.46512 0.06468 0.0
O24 O 0.99624 0.47331 0.08469 0.0
Cd25 Cd 0.98607 0.46394 0.05643 0.0
O26 O 0.9842 0.44472 0.03296 0.0
C27 C 0.98054 0.42861 0.03668 0.0
O28 O 0.97717 0.42476 0.05383 0.0
C29 C 0.98632 0.47423 0.09828 0.0
C30 C 0.92928 0.49017 0.05806 0.0
O31 O 0.92412 0.47591 0.06607 0.0
O32 O 0.94556 0.49249 0.05297 0.0
O33 O 0.70768 0.83867 0.20293 0.0
Cd34 Cd 0.68494 0.81247 0.19999 0.0
O35 O 0.72232 0.82916 0.22739 0.0
Cd36 Cd 0.70076 0.80775 0.23102 0.0
O37 O 0.67663 0.79518 0.24313 0.0
C38 C 0.67847 0.78843 0.2589 0.0
O39 O 0.69495 0.78825 0.26679 0.0
C40 C 0.72113 0.84056 0.21511 0.0
C41 C 0.69685 0.7868 0.17696 0.0
O42 O 0.68692 0.79796 0.17028 0.0
O43 O 0.70091 0.78761 0.1946 0.0
O44 O 0.07914 0.98489 0.48959 0.0
Cd45 Cd 0.05194 0.96486 0.4781 0.0
O46 O 0.06429 0.00338 0.50467 0.0
Cd47 Cd 0.03795 0.98998 0.49342 0.0
O48 O 0.01461 0.98346 0.47316 0.0
C49 C 0.01804 0.98396 0.45613 0.0
O50 O 0.03504 0.98763 0.45208 0.0
C51 C 0.07925 0.99872 0.50002 0.0
C52 C 0.04126 0.93997 0.50383 0.0
O53 O 0.05278 0.937 0.49203 0.0
O54 O 0.03481 0.95473 0.50347 0.0
O55 O 0.2761 0.76188 0.83239 0.0
Cd56 Cd 0.28203 0.74936 0.80198 0.0
O57 O 0.24763 0.7591 0.82153 0.0
Cd58 Cd 0.21886 0.76286 0.81974 0.0
O59 O 0.19062 0.76419 0.80989 0.0
C60 C 0.18578 0.77871 0.80474 0.0
O61 O 0.19782 0.79293 0.8062 0.0
C62 C 0.25973 0.76411 0.83471 0.0
C63 C 0.29302 0.71584 0.80237 0.0
O64 O 0.30471 0.72976 0.8041 0.0
O65 O 0.27609 0.7178 0.80084 0.0
O66 O 0.98258 0.5393 0.49498 0.0
Cd67 Cd 0.96437 0.54991 0.51902 0.0
O68 O 0.00871 0.54846 0.51083 0.0
Cd69 Cd 0.99645 0.56154 0.53328 0.0
O70 O 0.99105 0.58271 0.55246 0.0
C71 C 0.97887 0.59236 0.54795 0.0
O72 O 0.96896 0.58877 0.53209 0.0
C73 C -0.00013 0.54069 0.49642 0.0
C74 C 0.93275 0.52663 0.522 0.0
O75 O 0.93304 0.53916 0.51066 0.0
O76 O 0.94741 0.52517 0.53201 0.0
O77 O 0.79703 0.79835 0.85774 0.0
Cd78 Cd 0.79637 0.82329 0.83755 0.0
O79 O 0.77553 0.78123 0.84071 0.0
Cd80 Cd 0.76882 0.80284 0.82371 0.0
O81 O 0.75421 0.82465 0.81535 0.0
C82 C 0.73726 0.82272 0.81752 0.0
O83 O 0.72979 0.80785 0.82387 0.0
C84 C 0.78738 0.78343 0.85453 0.0
C85 C 0.82171 0.82154 0.81096 0.0
O86 O 0.82621 0.8295 0.82693 0.0
O87 O 0.80512 0.81462 0.80745 0.0
O88 O 0.3177 0.2845 0.34589 0.0
Cd89 Cd 0.32344 0.30727 0.32336 0.0
O90 O 0.29245 0.2958 0.34836 0.0
Cd91 Cd 0.26675 0.30225 0.35811 0.0
O92 O 0.24517 0.31913 0.35814 0.0
C93 C 0.24995 0.33529 0.363 0.0
O94 O 0.26706 0.34049 0.36871 0.0
C95 C 0.30275 0.2845 0.35343 0.0
C96 C 0.3469 0.29932 0.29667 0.0
O97 O 0.35301 0.30739 0.31223 0.0
O98 O 0.32968 0.29478 0.29386 0.0
O99 O 0.46243 0.96883 0.59076 0.0
Cd100 Cd 0.44601 0.9635 0.56002 0.0
O101 O 0.48795 0.97922 0.57902 0.0
Cd102 Cd 0.47833 0.96942 0.55076 0.0
O103 O 0.47826 0.9492 0.52851 0.0
C104 C 0.49358 0.94694 0.52265 0.0
O105 O 0.50812 0.95752 0.52933 0.0
C106 C 0.47887 0.97604 0.59312 0.0
C107 C 0.42357 0.9896 0.55357 0.0
O108 O 0.41755 0.97508 0.56063 0.0
O109 O 0.44016 0.9917 0.54937 0.0
O110 O 0.21825 0.33646 0.71604 0.0
Cd111 Cd 0.19527 0.31056 0.71138 0.0
O112 O 0.23425 0.32452 0.73789 0.0
Cd113 Cd 0.21239 0.30331 0.74122 0.0
O114 O 0.18825 0.29048 0.75315 0.0
C115 C 0.17382 0.29781 0.75157 0.0
O116 O 0.17386 0.31218 0.74214 0.0
C117 C 0.23245 0.3371 0.72714 0.0
C118 C 0.20725 0.28584 0.68723 0.0
O119 O 0.19787 0.29761 0.68101 0.0
O120 O 0.21072 0.28558 0.70491 0.0
O121 O 0.7929 0.24218 0.76318 0.0
Cd122 Cd 0.76251 0.23489 0.7472 0.0
O123 O 0.80544 0.22341 0.7459 0.0
Cd124 Cd 0.7791 0.21157 0.73297 0.0
O125 O 0.75489 0.1924 0.73392 0.0
C126 C 0.7507 0.18855 0.75022 0.0
O127 O 0.76052 0.19677 0.76462 0.0
C128 C 0.80692 0.23543 0.75883 0.0
C129 C 0.75736 0.25516 0.7163 0.0
O130 O 0.75365 0.26043 0.73256 0.0
O131 O 0.76355 0.24033 0.71468 0.0
O132 O 0.53736 0.56338 0.52475 0.0
Cd133 Cd 0.5353 0.53747 0.54389 0.0
O134 O 0.55564 0.5805 0.54518 0.0
Cd135 Cd 0.55269 0.56102 0.56642 0.0
O136 O 0.53849 0.54861 0.58896 0.0
C137 C 0.52164 0.55017 0.58863 0.0
O138 O 0.51432 0.5583 0.57482 0.0
C139 C 0.54685 0.57817 0.52928 0.0
C140 C 0.56351 0.51701 0.53976 0.0
O141 O 0.54891 0.51441 0.52886 0.0
O142 O 0.56482 0.52936 0.55251 0.0
O143 O 0.57773 0.49294 0.98699 0.0
Cd144 Cd 0.54915 0.47474 0.9762 0.0
O145 O 0.56476 0.51084 0.00493 0.0
Cd146 Cd 0.53753 0.49951 0.9939 0.0
O147 O 0.51387 0.49462 0.97378 0.0
C148 C 0.51714 0.49609 0.95678 0.0
O149 O 0.53411 0.4999 0.95268 0.0
C150 C 0.57906 0.50595 0.9988 0.0
C151 C 0.54093 0.44751 9e-05 0.0
O152 O 0.55013 0.44528 0.98597 0.0
O153 O 0.53552 0.46259 0.00282 0.0
O154 O 0.78212 0.25512 0.33987 0.0
Cd155 Cd 0.78769 0.24118 0.31001 0.0
O156 O 0.75492 0.25614 0.32669 0.0
Cd157 Cd 0.72762 0.26377 0.32206 0.0
O158 O 0.70108 0.26723 0.30873 0.0
C159 C 0.70052 0.27706 0.29492 0.0
O160 O 0.71583 0.28531 0.28975 0.0
C161 C 0.76636 0.25977 0.34074 0.0
C162 C 0.798 0.20742 0.31126 0.0
O163 O 0.80994 0.22115 0.31252 0.0
O164 O 0.78116 0.20968 0.30992 0.0
O165 O 0.48092 0.03131 0.97442 0.0
Cd166 Cd 0.46211 0.04382 0.99674 0.0
O167 O 0.50263 0.02667 0.99535 0.0
Cd168 Cd 0.49063 0.04061 0.01738 0.0
O169 O 0.48845 0.06438 0.03439 0.0
C170 C 0.50167 0.07658 0.0337 0.0
O171 O 0.51505 0.07374 0.02344 0.0
C172 C 0.49596 0.02553 0.97851 0.0
C173 C 0.43143 0.02038 0.0029 0.0
O174 O 0.43136 0.03062 0.98922 0.0
O175 O 0.44602 0.02122 0.0137 0.0
C176 C 0.21353 0.91268 0.02586 0.0
O177 O 0.22683 0.91815 0.01554 0.0
O178 O 0.23165 0.86802 0.00988 0.0
Zn179 Zn 0.23542 0.88455 0.03288 0.0
O180 O 0.25871 0.90125 0.03207 0.0
C181 C 0.2452 0.85635 0.05535 0.0
O182 O 0.25201 0.8515 0.03989 0.0
O183 O 0.21422 0.89858 0.03453 0.0
C184 C 0.27236 0.89668 0.0243 0.0
O185 O 0.27141 0.88064 0.01676 0.0
C186 C 0.23335 0.87353 0.99358 0.0
O187 O 0.2371 0.89055 0.99147 0.0
O188 O 0.23737 0.87021 0.05571 0.0
C189 C 0.141 0.47252 0.31946 0.0
O190 O 0.14794 0.48879 0.32458 0.0
O191 O 0.09629 0.49415 0.32759 0.0
Zn192 Zn 0.11119 0.49019 0.30589 0.0
O193 O 0.12858 0.512 0.30242 0.0
C194 C 0.07833 0.48769 0.28108 0.0
O195 O 0.07108 0.49287 0.29615 0.0
O196 O 0.12525 0.46973 0.31092 0.0
C197 C 0.12274 0.52583 0.29648 0.0
O198 O 0.10512 0.52588 0.29315 0.0
C199 C 0.10358 0.50147 0.34291 0.0
O200 O 0.12119 0.50666 0.34453 0.0
O201 O 0.09497 0.48523 0.28214 0.0
C202 C 0.80576 0.61778 0.02363 0.0
O203 O 0.79841 0.61844 0.00656 0.0
O204 O 0.78608 0.65592 0.00765 0.0
Zn205 Zn 0.78002 0.64129 0.02967 0.0
O206 O 0.75708 0.6245 0.02362 0.0
C207 C 0.76299 0.66742 0.04699 0.0
O208 O 0.75483 0.66609 0.03009 0.0
O209 O 0.8003 0.62705 0.03661 0.0
C210 C 0.75011 0.61614 0.03684 0.0
O211 O 0.75825 0.61865 0.05372 0.0
C212 C 0.77804 0.65256 0.99148 0.0
O213 O 0.76562 0.6387 0.98864 0.0
O214 O 0.77534 0.65775 0.05081 0.0
C215 C 0.85662 0.03795 0.27807 0.0
O216 O 0.84623 0.02296 0.27975 0.0
O217 O 0.89776 0.00886 0.28917 0.0
Zn218 Zn 0.88279 0.01515 0.26668 0.0
O219 O 0.86301 0.9951 0.25972 0.0
C220 C 0.91453 0.02744 0.2481 0.0
O221 O 0.91986 0.03465 0.26477 0.0
O222 O 0.87249 0.03771 0.27259 0.0
C223 C 0.85242 0.99484 0.24502 0.0
O224 O 0.85413 0.00827 0.23416 0.0
C225 C 0.89035 0.00326 0.30357 0.0
O226 O 0.87254 0.00163 0.30372 0.0
O227 O 0.89887 0.0185 0.24545 0.0
C228 C 0.29817 0.11561 0.52235 0.0
O229 O 0.28562 0.11184 0.50847 0.0
O230 O 0.27949 0.15738 0.50688 0.0
Zn231 Zn 0.27577 0.14222 0.52895 0.0
O232 O 0.25323 0.1245 0.52378 0.0
C233 C 0.27771 0.17392 0.55316 0.0
O234 O 0.28658 0.18149 0.53983 0.0
O235 O 0.29717 0.12874 0.53344 0.0
C236 C 0.23816 0.12681 0.53023 0.0
O237 O 0.237 0.14138 0.54008 0.0
C238 C 0.2665 0.16462 0.49935 0.0
O239 O 0.25038 0.16185 0.50592 0.0
O240 O 0.27252 0.15741 0.5517 0.0
C241 C 0.35577 0.54741 0.77411 0.0
O242 O 0.34534 0.53237 0.77535 0.0
O243 O 0.39741 0.51973 0.78882 0.0
Zn244 Zn 0.3829 0.52473 0.76542 0.0
O245 O 0.36335 0.50435 0.75855 0.0
C246 C 0.41367 0.51989 0.74426 0.0
O247 O 0.41789 0.51037 0.75834 0.0
O248 O 0.37208 0.54726 0.76986 0.0
C249 C 0.36704 0.4887 0.76035 0.0
O250 O 0.38349 0.48626 0.76676 0.0
C251 C 0.38986 0.51511 0.80348 0.0
O252 O 0.37205 0.51374 0.80349 0.0
O253 O 0.39937 0.52745 0.74433 0.0
C254 C 0.7092 0.41137 0.52154 0.0
O255 O 0.72012 0.41427 0.5081 0.0
O256 O 0.73336 0.37136 0.50974 0.0
Zn257 Zn 0.735 0.38786 0.53265 0.0
O258 O 0.75714 0.40599 0.53239 0.0
C259 C 0.72905 0.35848 0.55636 0.0
O260 O 0.71787 0.35195 0.54209 0.0
O261 O 0.71266 0.40031 0.53361 0.0
C262 C 0.7728 0.40105 0.53167 0.0
O263 O 0.77422 0.38409 0.5312 0.0
C264 C 0.73969 0.37636 0.49458 0.0
O265 O 0.74692 0.39284 0.49354 0.0
O266 O 0.73777 0.3738 0.55556 0.0
C267 C 0.62719 0.96338 0.7967 0.0
O268 O 0.60966 0.96016 0.79878 0.0
O269 O 0.60344 0.99964 0.81364 0.0
Zn270 Zn 0.61833 0.99849 0.79144 0.0
O271 O 0.63422 0.02159 0.78969 0.0
C272 C 0.58486 0.98815 0.76822 0.0
O273 O 0.57834 0.98363 0.78409 0.0
O274 O 0.63401 0.97894 0.79349 0.0
C275 C 0.62737 0.03461 0.78294 0.0
O276 O 0.6099 0.03278 0.77773 0.0
C277 C 0.60938 0.997 0.83015 0.0
O278 O 0.62617 0.99353 0.83325 0.0
O279 O 0.60154 0.99435 0.76804 0.0
C280 C 0.02081 0.22785 0.92264 0.0
O281 O 0.03194 0.24255 0.92621 0.0
O282 O 0.98114 0.24647 0.88039 0.0
Zn283 Zn 0.00471 0.24967 0.89668 0.0
O284 O 0.00485 0.27034 0.91505 0.0
C285 C 0.02353 0.26025 0.86433 0.0
O286 O 0.00753 0.26443 0.85853 0.0
O287 O 0.00754 0.22765 0.91043 0.0
C288 C 0.00732 0.28611 0.90987 0.0
O289 O 0.01054 0.2889 0.89245 0.0
C290 C 0.96739 0.25371 0.88463 0.0
O291 O 0.96812 0.26287 0.90054 0.0
O292 O 0.02561 0.25395 0.88032 0.0
C293 C 0.52104 0.73213 0.42778 0.0
O294 O 0.53294 0.74643 0.43018 0.0
O295 O 0.48136 0.74949 0.38467 0.0
Zn296 Zn 0.50476 0.75345 0.40126 0.0
O297 O 0.50436 0.77491 0.4184 0.0
C298 C 0.52518 0.76406 0.36973 0.0
O299 O 0.50998 0.76982 0.36376 0.0
O300 O 0.5073 0.73207 0.41619 0.0
C301 C 0.51757 0.78724 0.42105 0.0
O302 O 0.53271 0.78582 0.41307 0.0
C303 C 0.47222 0.7622 0.38154 0.0
O304 O 0.47811 0.77788 0.38935 0.0
O305 O 0.52604 0.75686 0.38533 0.0
C306 C 0.98588 0.81185 0.63673 0.0
O307 O 0.9694 0.80311 0.63536 0.0
O308 O 0.96913 0.79632 0.68195 0.0
Zn309 Zn 0.99069 0.79048 0.66853 0.0
O310 O 0.98459 0.76674 0.65496 0.0
C311 C 0.01727 0.77645 0.69366 0.0
O312 O 0.00753 0.7612 0.68879 0.0
O313 O 0.99715 0.80874 0.64992 0.0
C314 C 0.99605 0.76126 0.64458 0.0
O315 O 0.01154 0.77128 0.64302 0.0
C316 C 0.96496 0.78816 0.69641 0.0
O317 O 0.97485 0.7761 0.70226 0.0
O318 O 0.01252 0.79044 0.68692 0.0
C319 C 0.50847 0.31211 0.13126 0.0
O320 O 0.5027 0.31602 0.14756 0.0
O321 O 0.49074 0.28175 0.1639 0.0
Zn322 Zn 0.51067 0.27829 0.1472 0.0
O323 O 0.50578 0.25412 0.1345 0.0
C324 C 0.5349 0.27133 0.17767 0.0
O325 O 0.52029 0.26098 0.18157 0.0
O326 O 0.51254 0.29671 0.12794 0.0
C327 C 0.51766 0.24881 0.12456 0.0
O328 O 0.53278 0.25935 0.12276 0.0
C329 C 0.47406 0.27653 0.15922 0.0
O330 O 0.46941 0.26887 0.14261 0.0
O331 O 0.53422 0.28027 0.16318 0.0
H332 H 0.28208 0.78843 0.85687 0.0
H333 H 0.27487 0.80455 0.88479 0.0
H334 H 0.22042 0.77663 0.87969 0.0
H335 H 0.22763 0.76029 0.85181 0.0
H336 H 0.2212 0.81277 0.88576 0.0
H337 H 0.26904 0.78668 0.93689 0.0
H338 H 0.28 0.79561 0.91727 0.0
H339 H 0.26306 0.77652 0.91384 0.0
C340 C 0.26861 0.78562 0.86177 0.0
C341 C 0.25531 0.77332 0.85194 0.0
C342 C 0.26453 0.79479 0.87776 0.0
C343 C 0.24717 0.79167 0.88442 0.0
C344 C 0.23389 0.77928 0.87475 0.0
H345 H 0.22692 0.83744 0.99316 0.0
H346 H 0.2279 0.81659 0.9667 0.0
C347 C 0.23796 0.7701 0.85869 0.0
C348 C 0.24277 0.80185 0.90108 0.0
H349 H 0.25705 0.81291 0.94662 0.0
C350 C 0.22889 0.81266 0.89914 0.0
C351 C 0.2526 0.80147 0.9186 0.0
C352 C 0.26688 0.78931 0.92187 0.0
C353 C 0.22512 0.82369 0.91404 0.0
C354 C 0.23572 0.82411 0.93121 0.0
C355 C 0.24906 0.81273 0.93338 0.0
C356 C 0.23375 0.83673 0.94689 0.0
C357 C 0.20983 0.83479 0.91122 0.0
C358 C 0.23671 0.85497 0.94454 0.0
C359 C 0.2361 0.86691 0.95961 0.0
C360 C 0.2327 0.86085 0.97738 0.0
C361 C 0.22953 0.84256 0.97965 0.0
C362 C 0.23011 0.83062 0.96455 0.0
H363 H 0.19969 0.82904 0.89983 0.0
H364 H 0.20276 0.83619 0.92419 0.0
H365 H 0.21549 0.84815 0.9073 0.0
H366 H 0.23996 0.85999 0.93115 0.0
H367 H 0.23871 0.8809 0.95738 0.0
H368 H 0.0367 0.54306 0.49434 0.0
H369 H 0.05304 0.53426 0.46796 0.0
H370 H 0.00209 0.51444 0.43732 0.0
H371 H 0.98554 0.52344 0.46354 0.0
H372 H 0.0533 0.50139 0.44959 0.0
H373 H 0.02654 0.54936 0.40217 0.0
H374 H 0.02433 0.55048 0.42699 0.0
H375 H 0.00946 0.53461 0.41213 0.0
C376 C 0.02893 0.53676 0.48203 0.0
C377 C 0.00978 0.53411 0.48099 0.0
C378 C 0.03831 0.53173 0.46698 0.0
C379 C 0.02876 0.52399 0.45059 0.0
C380 C 0.00969 0.52074 0.44972 0.0
H381 H 0.0667 0.49348 0.34368 0.0
H382 H 0.04824 0.49779 0.36992 0.0
C383 C 0.00027 0.5258 0.46476 0.0
C384 C 0.03884 0.51965 0.43436 0.0
H385 H 0.04529 0.53001 0.38938 0.0
C386 C 0.05154 0.50761 0.43641 0.0
C387 C 0.03651 0.52782 0.4172 0.0
C388 C 0.0236 0.5414 0.41445 0.0
C389 C 0.06196 0.50348 0.42171 0.0
C390 C 0.05977 0.51181 0.40464 0.0
C391 C 0.04689 0.52364 0.4025 0.0
C392 C 0.07105 0.5088 0.38897 0.0
C393 C 0.0751 0.49013 0.42449 0.0
C394 C 0.08994 0.51376 0.39096 0.0
C395 C 0.10053 0.51136 0.37601 0.0
C396 C 0.09238 0.50401 0.35876 0.0
C397 C 0.07341 0.49913 0.35679 0.0
C398 C 0.06284 0.50158 0.37175 0.0
H399 H 0.07178 0.48169 0.43632 0.0
H400 H 0.07508 0.48152 0.41169 0.0
H401 H 0.08905 0.49715 0.42761 0.0
H402 H 0.09648 0.51968 0.40404 0.0
H403 H 0.11509 0.51532 0.37796 0.0
H404 H 0.76803 0.75041 0.85261 0.0
H405 H 0.76942 0.72754 0.8753 0.0
H406 H 0.81236 0.76068 0.90806 0.0
H407 H 0.81097 0.78374 0.88558 0.0
H408 H 0.79875 0.7096 0.88908 0.0
H409 H 0.7725 0.74991 0.94458 0.0
H410 H 0.77113 0.75537 0.92039 0.0
H411 H 0.79228 0.76032 0.93444 0.0
C412 C 0.77786 0.75282 0.86457 0.0
C413 C 0.78926 0.76899 0.86738 0.0
C414 C 0.77865 0.73971 0.8775 0.0
C415 C 0.79078 0.74256 0.89348 0.0
C416 C 0.80267 0.75838 0.89597 0.0
H417 H 0.80247 0.6826 0.99288 0.0
H418 H 0.80719 0.70375 0.96852 0.0
C419 C 0.8019 0.7715 0.88307 0.0
C420 C 0.79051 0.7292 0.90784 0.0
H421 H 0.78095 0.72239 0.95288 0.0
C422 C 0.79489 0.71237 0.90305 0.0
C423 C 0.78545 0.73289 0.92602 0.0
C424 C 0.77992 0.75054 0.9317 0.0
C425 C 0.79447 0.69912 0.91605 0.0
C426 C 0.78923 0.70277 0.93418 0.0
C427 C 0.78503 0.71966 0.93899 0.0
C428 C 0.78743 0.68917 0.94827 0.0
C429 C 0.79985 0.68143 0.91036 0.0
C430 C 0.77477 0.67394 0.94493 0.0
C431 C 0.77204 0.6618 0.95882 0.0
C432 C 0.78182 0.66476 0.97635 0.0
C433 C 0.79471 0.67991 0.97953 0.0
C434 C 0.79743 0.69202 0.96563 0.0
H435 H 0.8083 0.68234 0.89821 0.0
H436 H 0.80754 0.67592 0.92206 0.0
H437 H 0.78739 0.67209 0.90631 0.0
H438 H 0.76662 0.67167 0.93178 0.0
H439 H 0.76196 0.65032 0.95593 0.0
H440 H 0.98125 0.97832 0.45958 0.0
H441 H 0.95685 0.9773 0.43465 0.0
H442 H 0.9968 0.98448 0.39402 0.0
H443 H 0.02118 0.98524 0.41868 0.0
H444 H 0.95152 0.00413 0.41138 0.0
H445 H 0.96109 0.94413 0.36972 0.0
H446 H 0.97114 0.94879 0.39327 0.0
H447 H 0.98179 0.959 0.37401 0.0
C448 C 0.98482 0.97941 0.4453 0.0
C449 C 0.00316 0.98187 0.44111 0.0
C450 C 0.97087 0.97883 0.43109 0.0
C451 C 0.97501 0.98055 0.41247 0.0
C452 C 0.99328 0.98269 0.40824 0.0
H453 H 0.92729 0.00401 0.30708 0.0
H454 H 0.94616 0.99719 0.33436 0.0
C455 C 0.00721 0.98326 0.42239 0.0
C456 C 0.96043 0.98163 0.39757 0.0
H457 H 0.94408 0.96479 0.35415 0.0
C458 C 0.94964 0.99535 0.399 0.0
C459 C 0.95803 0.97014 0.38146 0.0
C460 C 0.96851 0.95458 0.37958 0.0
C461 C 0.93716 0.99845 0.38432 0.0
C462 C 0.93531 0.98739 0.36792 0.0
C463 C 0.94562 0.97329 0.36674 0.0
C464 C 0.92358 0.99093 0.35138 0.0
C465 C 0.92665 0.014 0.3861 0.0
C466 C 0.90461 0.98946 0.3519 0.0
C467 C 0.89376 0.99336 0.33632 0.0
C468 C 0.90172 0.99877 0.31997 0.0
C469 C 0.92072 -4e-05 0.31946 0.0
C470 C 0.93153 0.99601 0.33501 0.0
H471 H 0.932 0.02301 0.39827 0.0
H472 H 0.92713 0.02163 0.37328 0.0
H473 H 0.91219 0.00917 0.38788 0.0
H474 H 0.89823 0.98533 0.36436 0.0
H475 H 0.87916 0.99224 0.33713 0.0
H476 H 0.20249 0.28335 0.64916 0.0
H477 H 0.21491 0.26309 0.62789 0.0
H478 H 0.24021 0.23946 0.67473 0.0
H479 H 0.228 0.25982 0.69615 0.0
H480 H 0.26358 0.2478 0.64669 0.0
H481 H 0.19824 0.21024 0.61757 0.0
H482 H 0.1991 0.23371 0.61615 0.0
H483 H 0.20005 0.2242 0.63861 0.0
C484 C 0.21059 0.27377 0.65496 0.0
C485 C 0.2142 0.27316 0.67436 0.0
C486 C 0.21761 0.26215 0.64278 0.0
C487 C 0.22827 0.24963 0.64975 0.0
C488 C 0.23193 0.24898 0.66909 0.0
H489 H 0.25836 0.1625 0.58231 0.0
H490 H 0.24752 0.1805 0.60693 0.0
C491 C 0.22491 0.2606 0.6813 0.0
C492 C 0.23607 0.2376 0.63682 0.0
H493 H 0.22458 0.20591 0.60183 0.0
C494 C 0.25508 0.23855 0.63695 0.0
C495 C 0.22493 0.2254 0.62432 0.0
C496 C 0.20445 0.22315 0.62422 0.0
C497 C 0.26326 0.22794 0.62454 0.0
C498 C 0.25211 0.21626 0.61152 0.0
C499 C 0.2331 0.21498 0.61173 0.0
C500 C 0.25981 0.20538 0.59736 0.0
C501 C 0.28374 0.22921 0.62558 0.0
C502 C 0.27038 0.2134 0.58386 0.0
C503 C 0.27665 0.20315 0.56979 0.0
C504 C 0.27234 0.18469 0.56889 0.0
C505 C 0.26196 0.17668 0.58261 0.0
C506 C 0.25572 0.18694 0.59668 0.0
H507 H 0.28997 0.2349 0.63934 0.0
H508 H 0.2882 0.21606 0.6231 0.0
H509 H 0.28898 0.23795 0.61469 0.0
H510 H 0.27339 0.22763 0.58391 0.0
H511 H 0.28451 0.20975 0.55938 0.0
H512 H 0.53241 0.53324 0.61963 0.0
H513 H 0.51445 0.52496 0.64596 0.0
H514 H 0.46845 0.54576 0.6192 0.0
H515 H 0.48607 0.55374 0.59278 0.0
H516 H 0.49935 0.54717 0.66925 0.0
H517 H 0.44526 0.49811 0.63407 0.0
H518 H 0.46605 0.50545 0.6235 0.0
H519 H 0.44758 0.51861 0.62265 0.0
C520 C 0.51839 0.53583 0.61925 0.0
C521 C 0.51066 0.54412 0.60409 0.0
C522 C 0.50817 0.53111 0.6343 0.0
C523 C 0.49003 0.53449 0.6344 0.0
C524 C 0.48226 0.54262 0.61922 0.0
H525 H 0.40745 0.53629 0.71174 0.0
H526 H 0.42672 0.53897 0.68552 0.0
C527 C 0.49242 0.54729 0.60417 0.0
C528 C 0.47954 0.53065 0.65086 0.0
H529 H 0.43924 0.51003 0.66399 0.0
C530 C 0.48632 0.53885 0.66818 0.0
C531 C 0.46255 0.51979 0.6494 0.0
C532 C 0.45501 0.50984 0.63144 0.0
C533 C 0.47625 0.53704 0.68392 0.0
C534 C 0.45904 0.52663 0.6823 0.0
C535 C 0.45242 0.5181 0.66512 0.0
C536 C 0.44747 0.52482 0.69819 0.0
C537 C 0.48377 0.54674 0.70202 0.0
C538 C 0.45273 0.51584 0.71388 0.0
C539 C 0.44175 0.51424 0.72887 0.0
C540 C 0.42531 0.52162 0.7284 0.0
C541 C 0.42006 0.53052 0.71258 0.0
C542 C 0.43101 0.53204 0.69757 0.0
H543 H 0.49562 0.55673 0.70008 0.0
H544 H 0.47312 0.55343 0.70839 0.0
H545 H 0.48825 0.53715 0.71197 0.0
H546 H 0.46529 0.50999 0.71449 0.0
H547 H 0.44616 0.50725 0.74082 0.0
H548 H 0.74497 0.28735 0.7154 0.0
H549 H 0.74004 0.30483 0.68819 0.0
H550 H 0.75806 0.26467 0.65288 0.0
H551 H 0.76328 0.24719 0.68005 0.0
H552 H 0.77345 0.29862 0.64599 0.0
H553 H 0.69842 0.29466 0.64727 0.0
H554 H 0.7108 0.30277 0.66886 0.0
H555 H 0.71163 0.28047 0.66046 0.0
C556 C 0.74786 0.2822 0.70184 0.0
C557 C 0.75445 0.26583 0.69988 0.0
C558 C 0.74493 0.29217 0.68629 0.0
C559 C 0.7484 0.28591 0.66848 0.0
C560 C 0.7552 0.26969 0.6665 0.0
H561 H 0.71326 0.32503 0.56205 0.0
H562 H 0.71832 0.30744 0.58915 0.0
C563 C 0.75815 0.25972 0.68204 0.0
C564 C 0.74527 0.2964 0.65194 0.0
H565 H 0.71243 0.31439 0.62629 0.0
C566 C 0.7601 0.30204 0.64165 0.0
C567 C 0.7278 0.30065 0.64618 0.0
C568 C 0.7112 0.2942 0.65614 0.0
C569 C 0.758 0.31205 0.62588 0.0
C570 C 0.74064 0.31677 0.62046 0.0
C571 C 0.72575 0.3109 0.63059 0.0
C572 C 0.73758 0.32757 0.60415 0.0
C573 C 0.7743 0.31723 0.61497 0.0
C574 C 0.74655 0.34482 0.60372 0.0
C575 C 0.74373 0.3549 0.58824 0.0
C576 C 0.73177 0.34796 0.57294 0.0
C577 C 0.72259 0.33077 0.57356 0.0
C578 C 0.72544 0.3207 0.58904 0.0
H579 H 0.78524 0.30886 0.618 0.0
H580 H 0.77044 0.3162 0.59974 0.0
H581 H 0.77993 0.33112 0.61887 0.0
H582 H 0.75569 0.35051 0.6154 0.0
H583 H 0.75094 0.36813 0.58826 0.0
H584 H 0.46457 0.96848 0.62639 0.0
H585 H 0.48044 0.97217 0.65757 0.0
H586 H 0.52932 0.99498 0.63404 0.0
H587 H 0.5136 0.99155 0.60293 0.0
H588 H 0.51129 0.95662 0.66858 0.0
H589 H 0.52518 0.02946 0.67794 0.0
H590 H 0.50848 0.01846 0.66046 0.0
H591 H 0.53226 0.02101 0.65639 0.0
C592 C 0.47862 0.97453 0.62788 0.0
C593 C 0.48782 0.97971 0.61216 0.0
C594 C 0.48765 0.9766 0.64569 0.0
C595 C 0.50597 0.98403 0.64812 0.0
C596 C 0.51507 0.98955 0.63252 0.0
H597 H 0.59386 0.99734 0.73342 0.0
H598 H 0.57368 0.99595 0.70492 0.0
C599 C 0.50608 0.98747 0.61472 0.0
C600 C 0.51602 0.98483 0.6667 0.0
H601 H 0.54214 0.01294 0.69879 0.0
C602 C 0.51785 0.96894 0.67533 0.0
C603 C 0.52458 0.00093 0.6754 0.0
C604 C 0.52241 0.01845 0.66717 0.0
C605 C 0.5286 0.96865 0.69213 0.0
C606 C 0.5375 0.98472 0.7006 0.0
C607 C 0.53535 0.00064 0.69218 0.0
C608 C 0.54957 0.98525 0.71792 0.0
C609 C 0.53089 0.95112 0.7003 0.0
C610 C 0.54265 0.97976 0.73468 0.0
C611 C 0.55415 0.98048 0.751 0.0
C612 C 0.57276 0.98682 0.75085 0.0
C613 C 0.57961 0.99234 0.73401 0.0
C614 C 0.56811 0.9916 0.71772 0.0
H615 H 0.52647 0.9399 0.69004 0.0
H616 H 0.54531 0.95065 0.70529 0.0
H617 H 0.5225 0.94934 0.71241 0.0
H618 H 0.52831 0.97508 0.73517 0.0
H619 H 0.54842 0.97623 0.76376 0.0
H620 H 0.8391 0.22236 0.75452 0.0
H621 H 0.8669 0.22762 0.77533 0.0
H622 H 0.84258 0.26474 0.80903 0.0
H623 H 0.81462 0.25946 0.78843 0.0
H624 H 0.89062 0.25914 0.78737 0.0
H625 H 0.8559 0.22717 0.8456 0.0
H626 H 0.84609 0.225 0.82182 0.0
H627 H 0.84535 0.24491 0.83568 0.0
C628 C 0.8397 0.2318 0.76623 0.0
C629 C 0.82454 0.24034 0.76992 0.0
C630 C 0.85561 0.23478 0.7781 0.0
C631 C 0.85663 0.2463 0.79388 0.0
C632 C 0.8419 0.25554 0.79709 0.0
H633 H 0.93679 0.26959 0.88829 0.0
H634 H 0.91032 0.26856 0.86587 0.0
C635 C 0.82598 0.25256 0.78524 0.0
C636 C 0.8728 0.24803 0.80739 0.0
H637 H 0.8865 0.23967 0.85209 0.0
C638 C 0.88976 0.25491 0.80153 0.0
C639 C 0.87158 0.24245 0.82582 0.0
C640 C 0.8538 0.23432 0.83264 0.0
C641 C 0.90557 0.25655 0.81372 0.0
C642 C 0.90436 0.25082 0.83211 0.0
C643 C 0.88737 0.24405 0.83798 0.0
C644 C 0.92057 0.25157 0.84549 0.0
C645 C 0.92333 0.26467 0.80691 0.0
C646 C 0.93498 0.24212 0.84158 0.0
C647 C 0.95015 0.2427 0.85434 0.0
C648 C 0.9511 0.25261 0.87134 0.0
C649 C 0.9365 0.26183 0.87534 0.0
C650 C 0.92137 0.26128 0.86254 0.0
H651 H 0.92112 0.27268 0.79459 0.0
H652 H 0.93159 0.27318 0.81806 0.0
H653 H 0.93127 0.25401 0.80271 0.0
H654 H 0.93444 0.2342 0.8287 0.0
H655 H 0.96112 0.23538 0.85087 0.0
H656 H 0.52425 0.93894 0.50723 0.0
H657 H 0.52795 0.91235 0.48873 0.0
H658 H 0.47109 0.89332 0.49165 0.0
H659 H 0.46717 0.92003 0.50991 0.0
H660 H 0.52218 0.87835 0.50022 0.0
H661 H 0.47776 0.88559 0.43642 0.0
H662 H 0.48519 0.90367 0.45321 0.0
H663 H 0.46665 0.88725 0.45766 0.0
C664 C 0.51246 0.92923 0.50372 0.0
C665 C 0.49541 0.93161 0.51004 0.0
C666 C 0.51462 0.91402 0.49317 0.0
C667 C 0.49977 0.90094 0.48866 0.0
C668 C 0.48266 0.90341 0.49465 0.0
H669 H 0.48706 0.79558 0.43669 0.0
H670 H 0.48315 0.82305 0.45355 0.0
C671 C 0.48046 0.91865 0.50516 0.0
C672 C 0.5025 0.88426 0.47871 0.0
H673 H 0.48846 0.85776 0.43977 0.0
C674 C 0.5149 0.8739 0.48694 0.0
C675 C 0.49293 0.87846 0.46143 0.0
C676 C 0.48001 0.88939 0.45155 0.0
C677 C 0.51779 0.85775 0.4785 0.0
C678 C 0.50818 0.85193 0.46127 0.0
C679 C 0.49577 0.86227 0.45302 0.0
C680 C 0.51083 0.83515 0.45153 0.0
C681 C 0.53081 0.84685 0.48827 0.0
C682 C 0.52769 0.8329 0.4448 0.0
C683 C 0.52999 0.81721 0.43515 0.0
C684 C 0.51543 0.80352 0.43203 0.0
C685 C 0.49858 0.80582 0.43891 0.0
C686 C 0.49629 0.82152 0.4485 0.0
H687 H 0.53378 0.85109 0.50323 0.0
H688 H 0.52524 0.83264 0.48725 0.0
H689 H 0.54384 0.84836 0.48149 0.0
H690 H 0.539 0.84338 0.44675 0.0
H691 H 0.54312 0.81591 0.42997 0.0
H692 H 0.14036 0.30913 0.74918 0.0
H693 H 0.11474 0.30024 0.7678 0.0
H694 H 0.14532 0.26314 0.7954 0.0
H695 H 0.17106 0.27189 0.77682 0.0
H696 H 0.09554 0.26368 0.77263 0.0
H697 H 0.13064 0.29809 0.83739 0.0
H698 H 0.13741 0.30341 0.81444 0.0
H699 H 0.14305 0.28354 0.82455 0.0
C700 C 0.14161 0.29897 0.75909 0.0
C701 C 0.15779 0.2913 0.76162 0.0
C702 C 0.12695 0.2939 0.76968 0.0
C703 C 0.12828 0.2812 0.78306 0.0
C704 C 0.14416 0.2731 0.78523 0.0
H705 H 0.05699 0.24912 0.86996 0.0
H706 H 0.0822 0.25292 0.84978 0.0
C707 C 0.1588 0.27808 0.77457 0.0
C708 C 0.11326 0.27693 0.79518 0.0
H709 H 0.10132 0.28301 0.83965 0.0
C710 C 0.09676 0.26782 0.7873 0.0
C711 C 0.11502 0.28235 0.81429 0.0
C712 C 0.13242 0.29249 0.82325 0.0
C713 C 0.0819 0.2639 0.79811 0.0
C714 C 0.0835 0.2697 0.81715 0.0
C715 C 0.10012 0.2786 0.82505 0.0
C716 C 0.068 0.26701 0.82907 0.0
C717 C 0.06474 0.25338 0.78908 0.0
C718 C 0.05175 0.27388 0.82425 0.0
C719 C 0.03728 0.27163 0.83568 0.0
C720 C 0.0389 0.2627 0.8523 0.0
C721 C 0.0553 0.25606 0.85725 0.0
C722 C 0.06972 0.2582 0.84573 0.0
H723 H 0.06754 0.24548 0.77657 0.0
H724 H 0.0581 0.24433 0.79899 0.0
H725 H 0.05505 0.26256 0.78451 0.0
H726 H 0.05031 0.28116 0.81174 0.0
H727 H 0.02489 0.27704 0.83156 0.0
H728 H 0.56611 0.6112 0.53411 0.0
H729 H 0.56256 0.63675 0.51539 0.0
H730 H 0.52289 0.60469 0.4777 0.0
H731 H 0.52629 0.57904 0.4963 0.0
H732 H 0.56574 0.64134 0.475 0.0
H733 H 0.49654 0.64615 0.49811 0.0
H734 H 0.51246 0.63382 0.51035 0.0
H735 H 0.50045 0.62489 0.48887 0.0
C736 C 0.55677 0.60951 0.52173 0.0
C737 C 0.54637 0.59309 0.51679 0.0
C738 C 0.55478 0.62412 0.51105 0.0
C739 C 0.54227 0.62262 0.49536 0.0
C740 C 0.53243 0.60613 0.48993 0.0
H741 H 0.50128 0.69934 0.42313 0.0
H742 H 0.50698 0.67266 0.439 0.0
C743 C 0.53446 0.59148 0.50054 0.0
C744 C 0.53901 0.63845 0.48511 0.0
H745 H 0.50716 0.66607 0.47592 0.0
C746 C 0.55296 0.64679 0.47517 0.0
C747 C 0.5223 0.64545 0.4854 0.0
C748 C 0.50708 0.63725 0.49635 0.0
C749 C 0.55054 0.66188 0.46524 0.0
C750 C 0.53387 0.66901 0.46568 0.0
C751 C 0.51992 0.66059 0.4756 0.0
C752 C 0.5306 0.68523 0.45603 0.0
C753 C 0.5657 0.6698 0.45406 0.0
C754 C 0.54181 0.70122 0.46056 0.0
C755 C 0.53864 0.71649 0.45146 0.0
C756 C 0.52406 0.71608 0.4378 0.0
C757 C 0.51263 0.70011 0.43357 0.0
C758 C 0.51588 0.68484 0.44261 0.0
H759 H 0.57511 0.6601 0.45083 0.0
H760 H 0.56023 0.6747 0.44076 0.0
H761 H 0.57371 0.68109 0.46227 0.0
H762 H 0.55295 0.70194 0.47123 0.0
H763 H 0.54761 0.7286 0.45516 0.0
H764 H 0.85844 0.83139 0.8159 0.0
H765 H 0.88123 0.82702 0.79393 0.0
H766 H 0.83889 0.80378 0.75297 0.0
H767 H 0.81599 0.80771 0.77508 0.0
H768 H 0.86619 0.78401 0.75641 0.0
H769 H 0.89491 0.85341 0.74849 0.0
H770 H 0.89536 0.8478 0.77247 0.0
H771 H 0.87385 0.84749 0.75915 0.0
C772 C 0.85394 0.82552 0.80215 0.0
C773 C 0.83539 0.81991 0.79723 0.0
C774 C 0.86699 0.82315 0.78955 0.0
C775 C 0.86175 0.81536 0.77168 0.0
C776 C 0.84323 0.80992 0.76665 0.0
H777 H 0.9399 0.81023 0.68661 0.0
H778 H 0.91381 0.81654 0.70356 0.0
C779 C 0.83016 0.81218 0.7793 0.0
C780 C 0.87571 0.81186 0.75874 0.0
H781 H 0.91285 0.83132 0.73847 0.0
C782 C 0.87627 0.79439 0.75232 0.0
C783 C 0.88869 0.82543 0.75315 0.0
C784 C 0.88808 0.8446 0.75851 0.0
C785 C 0.88985 0.79002 0.74105 0.0
C786 C 0.90349 0.80344 0.73643 0.0
C787 C 0.90253 0.82101 0.74224 0.0
C788 C 0.91913 0.79945 0.72602 0.0
C789 C 0.8894 0.77107 0.73414 0.0
C790 C 0.9309 0.78794 0.73316 0.0
C791 C 0.94572 0.78424 0.72349 0.0
C792 C 0.94921 0.79215 0.70658 0.0
C793 C 0.93756 0.80389 0.69958 0.0
C794 C 0.92266 0.80752 0.70924 0.0
H795 H 0.87546 0.76377 0.73388 0.0
H796 H 0.89422 0.77021 0.71992 0.0
H797 H 0.89842 0.7644 0.74369 0.0
H798 H 0.92871 0.78192 0.74633 0.0
H799 H 0.95451 0.77526 0.72936 0.0
H800 H 0.01559 0.94164 0.52904 0.0
H801 H 0.00615 0.91977 0.5515 0.0
H802 H 0.04459 0.88672 0.53215 0.0
H803 H 0.05389 0.90837 0.50938 0.0
H804 H 0.01092 0.86817 0.53602 0.0
H805 H 0.03465 0.91031 0.5997 0.0
H806 H 0.01938 0.92 0.58391 0.0
H807 H 0.04131 0.91602 0.57685 0.0
C808 C 0.02208 0.92974 0.52958 0.0
C809 C 0.03556 0.92678 0.51748 0.0
C810 C 0.01673 0.9173 0.54251 0.0
C811 C 0.02489 0.90177 0.5437 0.0
C812 C 0.03819 0.89867 0.53151 0.0
H813 H 0.01957 0.83024 0.6342 0.0
H814 H 0.02884 0.85159 0.61121 0.0
C815 C 0.04351 0.91107 0.51853 0.0
C816 C 0.01933 0.88858 0.55745 0.0
H817 H 0.01655 0.88309 0.60406 0.0
C818 C 0.01219 0.8714 0.5509 0.0
C819 C 0.02122 0.89278 0.57687 0.0
C820 C 0.02972 0.91073 0.58481 0.0
C821 C 0.00667 0.85835 0.56325 0.0
C822 C 0.008 0.86272 0.58262 0.0
C823 C 0.01536 0.87983 0.58918 0.0
C824 C 0.00222 0.84963 0.5964 0.0
C825 C -0.0002 0.83993 0.55544 0.0
C826 C 0.98412 0.84157 0.59583 0.0
C827 C 0.97878 0.82928 0.60892 0.0
C828 C 0.99142 0.82496 0.62293 0.0
C829 C 0.00949 0.83325 0.62359 0.0
C830 C 0.01482 0.84547 0.61047 0.0
H831 H 0.00417 0.83763 0.54119 0.0
H832 H 0.00471 0.82986 0.56457 0.0
H833 H 0.9847 0.83802 0.55457 0.0
H834 H 0.97408 0.84489 0.58534 0.0
H835 H 0.96474 0.82323 0.60809 0.0
H836 H 0.17135 0.80739 0.7915 0.0
H837 H 0.14158 0.80787 0.77481 0.0
H838 H 0.12884 0.75187 0.78066 0.0
H839 H 0.15843 0.75128 0.79758 0.0
H840 H 0.12937 0.78943 0.74157 0.0
H841 H 0.08299 0.77059 0.79664 0.0
H842 H 0.10696 0.77796 0.80177 0.0
H843 H 0.09939 0.75563 0.79328 0.0
C844 C 0.16213 0.79521 0.78946 0.0
C845 C 0.16727 0.77929 0.79588 0.0
C846 C 0.14513 0.79551 0.7799 0.0
C847 C 0.13292 0.77995 0.77669 0.0
C848 C 0.13789 0.7641 0.78333 0.0
H849 H 0.0313 0.74913 0.71049 0.0
H850 H 0.05928 0.75052 0.73091 0.0
C851 C 0.15487 0.76377 0.7929 0.0
C852 C 0.11553 0.78008 0.76528 0.0
H853 H 0.06943 0.77006 0.76555 0.0
C854 C 0.11625 0.78536 0.74686 0.0
C855 C 0.09846 0.77466 0.77221 0.0
C856 C 0.09683 0.76954 0.79211 0.0
C857 C 0.10036 0.78499 0.73501 0.0
C858 C 0.0833 0.77946 0.74189 0.0
C859 C 0.08256 0.77428 0.76034 0.0
C860 C 0.06609 0.77881 0.73003 0.0
C861 C 0.10199 0.79006 0.71508 0.0
C862 C 0.06054 0.7943 0.72304 0.0
C863 C 0.04459 0.79356 0.71136 0.0
C864 C 0.03386 0.7773 0.70652 0.0
C865 C 0.03928 0.76185 0.71388 0.0
C866 C 0.05524 0.76261 0.72557 0.0
H867 H 0.11607 0.78995 0.71082 0.0
H868 H 0.09254 0.78098 0.70538 0.0
H869 H 0.09836 0.8036 0.71361 0.0
H870 H 0.06858 0.80696 0.72659 0.0
H871 H 0.04075 0.80572 0.70604 0.0
H872 H 0.99964 0.60532 0.57956 0.0
H873 H 0.99889 0.63338 0.59664 0.0
H874 H 0.95371 0.64398 0.55963 0.0
H875 H 0.95457 0.61603 0.54219 0.0
H876 H 0.98076 0.67147 0.56335 0.0
H877 H 0.96446 0.64917 0.63318 0.0
H878 H 0.98362 0.63997 0.62488 0.0
H879 H 0.96151 0.63442 0.61268 0.0
C880 C 0.98935 0.61348 0.57519 0.0
C881 C 0.97718 0.60845 0.55947 0.0
C882 C 0.98887 0.62948 0.58506 0.0
C883 C 0.97609 0.64067 0.57957 0.0
C884 C 0.96363 0.63549 0.56416 0.0
H885 H 0.96501 0.73768 0.64397 0.0
H886 H 0.9588 0.70866 0.62756 0.0
C887 C 0.96414 0.61951 0.55423 0.0
C888 C 0.97672 0.65835 0.58897 0.0
H889 H 0.97691 0.67956 0.63162 0.0
C890 C 0.97971 0.67324 0.57825 0.0
C891 C 0.97512 0.66065 0.60835 0.0
C892 C 0.97081 0.6452 0.62042 0.0
C893 C 0.9818 0.69037 0.58649 0.0
C894 C 0.98125 0.69264 0.60603 0.0
C895 C 0.97757 0.67778 0.61666 0.0
C896 C 0.98491 0.7103 0.61575 0.0
C897 C 0.98456 0.70586 0.57418 0.0
C898 C 0.00173 0.72074 0.61472 0.0
C899 C 0.0053 0.73733 0.624 0.0
C900 C 0.99217 0.74373 0.63465 0.0
C901 C 0.97539 0.73315 0.63584 0.0
C902 C 0.97183 0.71657 0.6265 0.0
H903 H 0.97929 0.70218 0.55953 0.0
H904 H 0.97772 0.717 0.57932 0.0
H905 H 0.99934 0.71047 0.57418 0.0
H906 H 0.01218 0.71598 0.60686 0.0
H907 H 0.0184 0.74507 0.62291 0.0
H908 H 0.75084 0.84902 0.23989 0.0
H909 H 0.77281 0.87571 0.24168 0.0
H910 H 0.74517 0.89435 0.19307 0.0
H911 H 0.72289 0.86775 0.19128 0.0
H912 H 0.79627 0.8892 0.21535 0.0
H913 H 0.74678 0.93532 0.23201 0.0
H914 H 0.74167 0.91173 0.23343 0.0
H915 H 0.74095 0.9215 0.21114 0.0
C916 C 0.74941 0.85875 0.22953 0.0
C917 C 0.73502 0.85629 0.21551 0.0
C918 C 0.762 0.87399 0.23058 0.0
C919 C 0.76044 0.8871 0.21769 0.0
C920 C 0.74639 0.88453 0.20337 0.0
H921 H 0.82684 0.99014 0.21528 0.0
H922 H 0.80459 0.96404 0.20694 0.0
C923 C 0.73375 0.86928 0.20232 0.0
C924 C 0.77354 0.90345 0.21944 0.0
H925 H 0.77709 0.94785 0.22924 0.0
C926 C 0.79208 0.90204 0.2183 0.0
C927 C 0.76799 0.92018 0.22321 0.0
C928 C 0.74829 0.92236 0.22518 0.0
C929 C 0.80528 0.9169 0.22108 0.0
C930 C 0.79978 0.93353 0.22536 0.0
C931 C 0.78121 0.93505 0.22596 0.0
C932 C 0.81319 0.9493 0.23029 0.0
C933 C 0.82502 0.91469 0.21946 0.0
C934 C 0.82512 0.94971 0.24634 0.0
C935 C 0.83776 0.96456 0.25117 0.0
C936 C 0.83868 0.97932 0.24005 0.0
C937 C 0.82653 0.97896 0.22409 0.0
C938 C 0.81381 0.96408 0.2193 0.0
H939 H 0.82649 0.9024 0.21128 0.0
H940 H 0.83225 0.9261 0.21276 0.0
H941 H 0.83173 0.91391 0.23362 0.0
H942 H 0.82458 0.93855 0.25519 0.0
H943 H 0.84685 0.96442 0.2636 0.0
H944 H 0.83232 0.19844 0.30952 0.0
H945 H 0.84109 0.16886 0.30552 0.0
H946 H 0.7851 0.14622 0.30749 0.0
H947 H 0.77613 0.17579 0.31105 0.0
H948 H 0.83749 0.14002 0.32713 0.0
H949 H 0.79828 0.12492 0.25853 0.0
H950 H 0.80223 0.14685 0.26942 0.0
H951 H 0.78484 0.13076 0.27702 0.0
C952 C 0.82187 0.18718 0.30918 0.0
C953 C 0.8035 0.18948 0.31042 0.0
C954 C 0.82691 0.17028 0.3069 0.0
C955 C 0.8137 0.15536 0.30582 0.0
C956 C 0.79545 0.15757 0.3078 0.0
H957 H 0.82254 0.04343 0.28715 0.0
H958 H 0.81183 0.07163 0.29489 0.0
C959 C 0.79037 0.17448 0.30997 0.0
C960 C 0.81909 0.13757 0.30239 0.0
H961 H 0.81267 0.10185 0.27153 0.0
C962 C 0.83206 0.13167 0.31498 0.0
C963 C 0.812 0.12671 0.2865 0.0
C964 C 0.7987 0.13265 0.27199 0.0
C965 C 0.8381 0.11517 0.31214 0.0
C966 C 0.83109 0.1044 0.29621 0.0
C967 C 0.81795 0.11016 0.28376 0.0
C968 C 0.83768 0.08735 0.29188 0.0
C969 C 0.85184 0.10932 0.32625 0.0
C970 C 0.8557 0.08692 0.28741 0.0
C971 C 0.86184 0.07088 0.28288 0.0
C972 C 0.85006 0.05495 0.28275 0.0
C973 C 0.83198 0.05545 0.28718 0.0
C974 C 0.82582 0.07153 0.2916 0.0
H975 H 0.85264 0.1171 0.33971 0.0
H976 H 0.84842 0.09512 0.32887 0.0
H977 H 0.86548 0.11116 0.32072 0.0
H978 H 0.86496 0.09904 0.28725 0.0
H979 H 0.87583 0.07098 0.2795 0.0
H980 H 0.40114 0.01095 0.97912 0.0
H981 H 0.37435 0.99022 0.98425 0.0
H982 H 0.39775 0.98128 0.03911 0.0
H983 H 0.42492 0.00155 0.0338 0.0
H984 H 0.38354 0.95104 0.02173 0.0
H985 H 0.33304 0.99818 0.01506 0.0
H986 H 0.34561 0.99718 0.99476 0.0
H987 H 0.35723 0.00522 0.01685 0.0
C988 C 0.40056 0.00463 0.99231 0.0
C989 C 0.41511 0.00796 0.0061 0.0
C990 C 0.38516 0.99287 0.99528 0.0
C991 C 0.38383 0.98448 0.01224 0.0
C992 C 0.39841 0.98768 0.02597 0.0
H993 H 0.28152 0.92844 0.04363 0.0
H994 H 0.30904 0.9494 0.04196 0.0
C995 C 0.41393 0.99928 0.02292 0.0
C996 C 0.3675 0.97193 0.0154 0.0
H997 H 0.3211 0.96759 0.0139 0.0
C998 C 0.36989 0.9547 0.02017 0.0
C999 C 0.34971 0.97678 0.0137 0.0
C1000 C 0.34623 0.9954 0.01001 0.0
C1001 C 0.35497 0.94208 0.02282 0.0
C1002 C 0.33713 0.94665 0.02006 0.0
C1003 C 0.33476 0.96401 0.01577 0.0
C1004 C 0.3207 0.93365 0.02144 0.0
C1005 C 0.35856 0.92407 0.02884 0.0
C1006 C 0.31799 0.91789 0.01035 0.0
C1007 C 0.30239 0.90579 0.01146 0.0
C1008 C 0.28901 0.90938 0.02341 0.0
C1009 C 0.29159 0.92528 0.0343 0.0
C1010 C 0.30731 0.93728 0.03335 0.0
H1011 H 0.37234 0.92453 0.03608 0.0
H1012 H 0.34834 0.91854 0.0383 0.0
H1013 H 0.35786 0.91498 0.01633 0.0
H1014 H 0.32783 0.91502 0.00064 0.0
H1015 H 0.30071 0.89376 0.00272 0.0
H1016 H 0.25622 0.37065 0.37187 0.0
H1017 H 0.23598 0.39276 0.36507 0.0
H1018 H 0.19451 0.35201 0.34108 0.0
H1019 H 0.2146 0.3297 0.34802 0.0
H1020 H 0.22195 0.39928 0.32923 0.0
H1021 H 0.16649 0.38102 0.37558 0.0
H1022 H 0.18846 0.37333 0.37873 0.0
H1023 H 0.17196 0.36331 0.36073 0.0
C1024 C 0.24271 0.36632 0.36538 0.0
C1025 C 0.23703 0.3484 0.36046 0.0
C1026 C 0.23117 0.379 0.36149 0.0
C1027 C 0.21371 0.37401 0.35271 0.0
C1028 C 0.20782 0.3561 0.34815 0.0
H1029 H 0.13055 0.43717 0.31159 0.0
H1030 H 0.14795 0.41282 0.31895 0.0
C1031 C 0.21935 0.34338 0.35206 0.0
C1032 C 0.20224 0.38774 0.34725 0.0
H1033 H 0.16206 0.40332 0.35441 0.0
C1034 C 0.20887 0.40019 0.33476 0.0
C1035 C 0.18512 0.38877 0.35437 0.0
C1036 C 0.17759 0.376 0.36821 0.0
C1037 C 0.19885 0.41369 0.32919 0.0
C1038 C 0.1819 0.41494 0.33656 0.0
C1039 C 0.17509 0.40231 0.34881 0.0
C1040 C 0.17133 0.42962 0.33217 0.0
C1041 C 0.20643 0.4264 0.31529 0.0
C1042 C 0.17865 0.44707 0.33738 0.0
C1043 C 0.1688 0.46098 0.3332 0.0
C1044 C 0.15137 0.45769 0.3238 0.0
C1045 C 0.14397 0.44016 0.31877 0.0
C1046 C 0.15386 0.42623 0.32299 0.0
H1047 H 0.21683 0.42089 0.30727 0.0
H1048 H 0.19545 0.42983 0.30533 0.0
H1049 H 0.21302 0.43873 0.32285 0.0
H1050 H 0.19197 0.44992 0.34479 0.0
H1051 H 0.17486 0.4743 0.33738 0.0
H1052 H 0.11346 0.99394 0.49072 0.0
H1053 H 0.14157 0.01422 0.49744 0.0
H1054 H 0.11242 0.04966 0.52807 0.0
H1055 H 0.0843 0.02943 0.52162 0.0
H1056 H 0.14671 0.04904 0.48638 0.0
H1057 H 0.15761 0.04653 0.56325 0.0
H1058 H 0.14255 0.02997 0.54919 0.0
H1059 H 0.13521 0.05083 0.55527 0.0
C1060 C 0.11306 0.00591 0.49915 0.0
C1061 C 0.09661 0.01006 0.50563 0.0
C1062 C 0.12914 0.01749 0.50294 0.0
C1063 C 0.1291 0.03334 0.5134 0.0
C1064 C 0.11281 0.03733 0.52027 0.0
H1065 H 0.20407 0.12768 0.54192 0.0
H1066 H 0.17798 0.10461 0.53738 0.0
C1067 C 0.09673 0.02578 0.51648 0.0
C1068 C 0.14575 0.04631 0.51597 0.0
H1069 H 0.17535 0.06977 0.54904 0.0
C1070 C 0.1531 0.05346 0.50006 0.0
C1071 C 0.15396 0.05209 0.53385 0.0
C1072 C 0.14705 0.04436 0.55137 0.0
C1073 C 0.16818 0.06661 0.50156 0.0
C1074 C 0.17629 0.07252 0.51945 0.0
C1075 C 0.16906 0.06523 0.53535 0.0
C1076 C 0.19213 0.08645 0.52197 0.0
C1077 C 0.17495 0.07445 0.48402 0.0
C1078 C 0.20875 0.08381 0.51489 0.0
C1079 C 0.22368 0.09699 0.5174 0.0
C1080 C 0.22227 0.113 0.52716 0.0
C1081 C 0.2056 0.11554 0.5343 0.0
C1082 C 0.19069 0.10236 0.53177 0.0
H1083 H 0.16466 0.07163 0.47196 0.0
H1084 H 0.17861 0.08897 0.48603 0.0
H1085 H 0.18733 0.06868 0.48051 0.0
H1086 H 0.21023 0.07149 0.50758 0.0
H1087 H 0.23635 0.09456 0.51183 0.0
H1088 H 0.74012 0.17616 0.78332 0.0
H1089 H 0.71778 0.15081 0.78816 0.0
H1090 H 0.70559 0.14297 0.72871 0.0
H1091 H 0.72821 0.1682 0.72367 0.0
H1092 H 0.68078 0.1436 0.77809 0.0
H1093 H 0.71933 0.09516 0.74412 0.0
H1094 H 0.72915 0.11758 0.75041 0.0
H1095 H 0.71396 0.11276 0.72976 0.0
C1096 C 0.73265 0.16912 0.77124 0.0
C1097 C 0.73608 0.17409 0.75309 0.0
C1098 C 0.71986 0.15464 0.77406 0.0
C1099 C 0.71027 0.14485 0.7588 0.0
C1100 C 0.71314 0.15015 0.74067 0.0
H1101 H 0.61757 0.06383 0.76617 0.0
H1102 H 0.63721 0.09089 0.7604 0.0
C1103 C 0.72599 0.16462 0.73782 0.0
C1104 C 0.6976 0.12887 0.76197 0.0
H1105 H 0.69051 0.08417 0.75388 0.0
C1106 C 0.68286 0.13059 0.77277 0.0
C1107 C 0.70054 0.11191 0.75525 0.0
C1108 C 0.71668 0.10914 0.74438 0.0
C1109 C 0.6709 0.1158 0.77699 0.0
C1110 C 0.67363 0.0989 0.76993 0.0
C1111 C 0.6884 0.09717 0.75917 0.0
C1112 C 0.66157 0.08273 0.77383 0.0
C1113 C 0.65577 0.11836 0.78934 0.0
C1114 C 0.66881 0.06903 0.78301 0.0
C1115 C 0.65767 0.05348 0.78619 0.0
C1116 C 0.63906 0.05132 0.7802 0.0
C1117 C 0.63182 0.06511 0.77108 0.0
C1118 C 0.643 0.08063 0.76785 0.0
H1119 H 0.65838 0.13122 0.79742 0.0
H1120 H 0.64284 0.11812 0.78055 0.0
H1121 H 0.65394 0.10762 0.79926 0.0
H1122 H 0.68313 0.07037 0.78768 0.0
H1123 H 0.66368 0.04312 0.79323 0.0
H1124 H 0.43326 0.02302 0.54233 0.0
H1125 H 0.41379 0.04629 0.53796 0.0
H1126 H 0.36771 0.01102 0.55309 0.0
H1127 H 0.38714 0.98784 0.55792 0.0
H1128 H 0.38422 0.04732 0.51415 0.0
H1129 H 0.3651 0.05398 0.58681 0.0
H1130 H 0.38331 0.04192 0.58052 0.0
H1131 H 0.36002 0.03175 0.57725 0.0
C1132 C 0.419 0.02024 0.5448 0.0
C1133 C 0.41177 0.00361 0.55057 0.0
C1134 C 0.40789 0.03355 0.5423 0.0
C1135 C 0.38937 0.0305 0.54554 0.0
C1136 C 0.38206 0.01382 0.55099 0.0
H1137 H 0.30173 0.08483 0.50334 0.0
H1138 H 0.32498 0.06542 0.50895 0.0
C1139 C 0.39317 0.00054 0.55361 0.0
C1140 C 0.37755 0.04456 0.54263 0.0
H1141 H 0.34725 0.0673 0.56369 0.0
C1142 C 0.37626 0.05181 0.52503 0.0
C1143 C 0.36742 0.05066 0.55693 0.0
C1144 C 0.36916 0.04431 0.57649 0.0
C1145 C 0.36463 0.06454 0.52115 0.0
C1146 C 0.3537 0.06985 0.53512 0.0
C1147 C 0.35547 0.06307 0.55291 0.0
C1148 C 0.33992 0.08199 0.53143 0.0
C1149 C 0.36428 0.07223 0.50215 0.0
C1150 C 0.3403 0.09757 0.54251 0.0
C1151 C 0.32685 0.10863 0.53948 0.0
C1152 C 0.31276 0.10427 0.52533 0.0
C1153 C 0.31246 0.08867 0.51425 0.0
C1154 C 0.32583 0.07759 0.51736 0.0
H1155 H 0.37717 0.07119 0.49548 0.0
H1156 H 0.35302 0.06478 0.493 0.0
H1157 H 0.36205 0.08631 0.50301 0.0
H1158 H 0.35098 0.10115 0.55353 0.0
H1159 H 0.32745 0.12054 0.54828 0.0
H1160 H 0.56588 0.49151 0.51262 0.0
H1161 H 0.59032 0.47318 0.50959 0.0
H1162 H 0.61889 0.49889 0.55952 0.0
H1163 H 0.59472 0.51753 0.56244 0.0
H1164 H 0.64135 0.4959 0.53165 0.0
H1165 H 0.60011 0.43145 0.54015 0.0
H1166 H 0.59103 0.4437 0.52171 0.0
H1167 H 0.59204 0.45223 0.54547 0.0
C1168 C 0.57734 0.49324 0.52299 0.0
C1169 C 0.57832 0.50594 0.53782 0.0
C1170 C 0.59124 0.48267 0.5213 0.0
C1171 C 0.60627 0.48444 0.53452 0.0
C1172 C 0.60737 0.49723 0.54922 0.0
H1173 H 0.68599 0.41114 0.5495 0.0
H1174 H 0.66115 0.42898 0.55263 0.0
C1175 C 0.59353 0.50787 0.55087 0.0
C1176 C 0.62108 0.47328 0.5328 0.0
H1177 H 0.62992 0.43053 0.53036 0.0
C1178 C 0.63886 0.48161 0.53143 0.0
C1179 C 0.61786 0.45464 0.53278 0.0
C1180 C 0.59927 0.44496 0.53529 0.0
C1181 C 0.65347 0.47181 0.52975 0.0
C1182 C 0.65014 0.45315 0.52902 0.0
C1183 C 0.63241 0.44483 0.5307 0.0
C1184 C 0.66492 0.44205 0.5268 0.0
C1185 C 0.67238 0.48155 0.52914 0.0
C1186 C 0.67504 0.44322 0.51105 0.0
C1187 C 0.6893 0.43312 0.50926 0.0
C1188 C 0.69358 0.4215 0.52309 0.0
C1189 C 0.68308 0.41999 0.53861 0.0
C1190 C 0.66888 0.43017 0.54043 0.0
H1191 H 0.67332 0.49533 0.53498 0.0
H1192 H 0.68262 0.47474 0.53701 0.0
H1193 H 0.67591 0.4821 0.51442 0.0
H1194 H 0.67194 0.45199 0.50014 0.0
H1195 H 0.697 0.43449 0.49705 0.0
H1196 H 0.73308 0.26122 0.35474 0.0
H1197 H 0.72623 0.27979 0.38114 0.0
H1198 H 0.78321 0.29966 0.39106 0.0
H1199 H 0.79011 0.28129 0.36458 0.0
H1200 H 0.76662 0.29042 0.42338 0.0
H1201 H 0.72653 0.33354 0.38127 0.0
H1202 H 0.71887 0.3103 0.37813 0.0
H1203 H 0.74076 0.31897 0.37093 0.0
C1204 C 0.74409 0.26981 0.36229 0.0
C1205 C 0.76206 0.27018 0.35724 0.0
C1206 C 0.74017 0.28032 0.37746 0.0
C1207 C 0.75417 0.29138 0.38781 0.0
C1208 C 0.77219 0.29132 0.38317 0.0
H1209 H 0.75327 0.38264 0.46083 0.0
H1210 H 0.75553 0.36122 0.4353 0.0
C1211 C 0.77611 0.2808 0.36805 0.0
C1212 C 0.75017 0.30306 0.40351 0.0
H1213 H 0.72854 0.33862 0.41398 0.0
C1214 C 0.75822 0.3009 0.42137 0.0
C1215 C 0.73936 0.31683 0.40076 0.0
C1216 C 0.73098 0.32022 0.38173 0.0
C1217 C 0.75587 0.31225 0.43657 0.0
C1218 C 0.74494 0.32594 0.43386 0.0
C1219 C 0.73678 0.32801 0.41602 0.0
C1220 C 0.74268 0.33887 0.44913 0.0
C1221 C 0.7656 0.30985 0.45525 0.0
C1222 C 0.73438 0.33345 0.46523 0.0
C1223 C 0.7331 0.34566 0.47991 0.0
C1224 C 0.74002 0.36354 0.47867 0.0
C1225 C 0.74785 0.36898 0.46228 0.0
C1226 C 0.74914 0.35676 0.44765 0.0
H1227 H 0.77655 0.30133 0.45401 0.0
H1228 H 0.77166 0.32278 0.46194 0.0
H1229 H 0.75569 0.30351 0.46456 0.0
H1230 H 0.729 0.31975 0.46651 0.0
H1231 H 0.72688 0.34105 0.49229 0.0
H1232 H 0.52979 0.01473 0.98188 0.0
H1233 H 0.54846 0.00754 0.95668 0.0
H1234 H 0.50461 0.01419 0.91609 0.0
H1235 H 0.48588 0.02158 0.94112 0.0
H1236 H 0.54279 0.98146 0.92631 0.0
H1237 H 0.54752 0.05 0.90245 0.0
H1238 H 0.5396 0.04409 0.92479 0.0
H1239 H 0.52473 0.03935 0.90392 0.0
C1240 C 0.52401 0.01447 0.96761 0.0
C1241 C 0.5064 0.01894 0.96351 0.0
C1242 C 0.53471 0.01035 0.95324 0.0
C1243 C 0.52801 0.01067 0.93456 0.0
C1244 C 0.51013 0.01421 0.93044 0.0
H1245 H 0.57378 0.00281 0.82801 0.0
H1246 H 0.55413 0.00492 0.85359 0.0
C1247 C 0.49943 0.01835 0.94477 0.0
C1248 C 0.54001 0.00815 0.91937 0.0
H1249 H 0.56008 0.02924 0.88375 0.0
C1250 C 0.54663 0.99189 0.91701 0.0
C1251 C 0.54504 0.02185 0.90736 0.0
C1252 C 0.53901 0.03987 0.90979 0.0
C1253 C 0.55785 0.98881 0.90262 0.0
C1254 C 0.56276 0.00248 0.89054 0.0
C1255 C 0.55622 0.01877 0.893 0.0
C1256 C 0.57457 0.00023 0.8751 0.0
C1257 C 0.564 0.97086 0.9002 0.0
C1258 C 0.59263 0.99697 0.87875 0.0
C1259 C 0.60394 0.99575 0.86414 0.0
C1260 C 0.5974 0.9979 0.84565 0.0
C1261 C 0.57927 0.00111 0.84208 0.0
C1262 C 0.568 0.00231 0.85667 0.0
H1263 H 0.55551 0.96068 0.9075 0.0
H1264 H 0.56352 0.96667 0.88521 0.0
H1265 H 0.57828 0.97147 0.90615 0.0
H1266 H 0.59808 0.9957 0.89292 0.0
H1267 H 0.61784 0.99333 0.86737 0.0
H1268 H 0.32606 0.26769 0.37497 0.0
H1269 H 0.31879 0.24702 0.39923 0.0
H1270 H 0.26186 0.25249 0.38959 0.0
H1271 H 0.26894 0.27262 0.3648 0.0
H1272 H 0.30217 0.2529 0.43184 0.0
H1273 H 0.2617 0.19906 0.38705 0.0
H1274 H 0.27588 0.21697 0.3776 0.0
H1275 H 0.25392 0.22026 0.38507 0.0
C1276 C 0.31197 0.26443 0.37794 0.0
C1277 C 0.2981 0.27204 0.36813 0.0
C1278 C 0.30785 0.25266 0.39185 0.0
C1279 C 0.28978 0.24812 0.39612 0.0
C1280 C 0.27588 0.25566 0.38636 0.0
H1281 H 0.24148 0.18123 0.47942 0.0
H1282 H 0.24695 0.20169 0.45449 0.0
C1283 C 0.27999 0.26743 0.37241 0.0
C1284 C 0.28564 0.23578 0.41108 0.0
H1285 H 0.26255 0.19576 0.41971 0.0
C1286 C 0.29354 0.24039 0.42919 0.0
C1287 C 0.27435 0.21949 0.40757 0.0
C1288 C 0.26608 0.21352 0.38825 0.0
C1289 C 0.29036 0.2292 0.44392 0.0
C1290 C 0.27918 0.21286 0.44039 0.0
C1291 C 0.27112 0.20831 0.42234 0.0
C1292 C 0.27588 0.20024 0.45523 0.0
C1293 C 0.29879 0.23504 0.46322 0.0
C1294 C 0.2903 0.19245 0.46366 0.0
C1295 C 0.28723 0.18073 0.47787 0.0
C1296 C 0.26966 0.17657 0.48388 0.0
C1297 C 0.25519 0.1842 0.47518 0.0
C1298 C 0.25827 0.19587 0.46092 0.0
H1299 H 0.30326 0.24948 0.46448 0.0
H1300 H 0.28904 0.23157 0.47392 0.0
H1301 H 0.3109 0.2282 0.46626 0.0
H1302 H 0.30394 0.19543 0.45923 0.0
H1303 H 0.29866 0.17505 0.48422 0.0
H1304 H 0.48036 0.4911 0.96047 0.0
H1305 H 0.45586 0.49056 0.93568 0.0
H1306 H 0.49562 0.49767 0.89486 0.0
H1307 H 0.52009 0.49804 0.91936 0.0
H1308 H 0.45076 0.51771 0.91199 0.0
H1309 H 0.45953 0.45689 0.87126 0.0
H1310 H 0.46943 0.46169 0.89484 0.0
H1311 H 0.48037 0.47156 0.87558 0.0
C1312 C 0.48387 0.49232 0.94618 0.0
C1313 C 0.50217 0.49461 0.94188 0.0
C1314 C 0.46986 0.49202 0.93206 0.0
C1315 C 0.47393 0.49381 0.91342 0.0
C1316 C 0.49216 0.49587 0.9091 0.0
H1317 H 0.42671 0.51531 0.80728 0.0
H1318 H 0.44533 0.50903 0.83495 0.0
C1319 C 0.50615 0.4962 0.92316 0.0
C1320 C 0.45931 0.49483 0.89857 0.0
H1321 H 0.44266 0.47745 0.85544 0.0
C1322 C 0.44873 0.50874 0.89976 0.0
C1323 C 0.45672 0.48308 0.88266 0.0
C1324 C 0.46699 0.46736 0.88106 0.0
C1325 C 0.43629 0.51178 0.885 0.0
C1326 C 0.43427 0.50045 0.86878 0.0
C1327 C 0.44434 0.48615 0.86788 0.0
C1328 C 0.42266 0.50389 0.8521 0.0
C1329 C 0.42606 0.52755 0.88648 0.0
C1330 C 0.40372 0.50292 0.85257 0.0
C1331 C 0.39299 0.50653 0.83676 0.0
C1332 C 0.40107 0.51114 0.82023 0.0
C1333 C 0.42005 0.51189 0.8198 0.0
C1334 C 0.43072 0.50825 0.83557 0.0
H1335 H 0.4316 0.53672 0.89846 0.0
H1336 H 0.42657 0.53491 0.87349 0.0
H1337 H 0.41157 0.52298 0.88843 0.0
H1338 H 0.39723 0.49933 0.86514 0.0
H1339 H 0.37841 0.50575 0.83751 0.0
H1340 H 0.68969 0.78124 0.13928 0.0
H1341 H 0.70197 0.76028 0.11869 0.0
H1342 H 0.73234 0.74211 0.16582 0.0
H1343 H 0.7199 0.76285 0.18659 0.0
H1344 H 0.73826 0.75876 0.11286 0.0
H1345 H 0.70688 0.69608 0.14028 0.0
H1346 H 0.69926 0.71706 0.14567 0.0
H1347 H 0.71962 0.71124 0.15753 0.0
C1348 C 0.69886 0.77269 0.14531 0.0
C1349 C 0.70377 0.77367 0.16459 0.0
C1350 C 0.70588 0.76074 0.13351 0.0
C1351 C 0.71789 0.74949 0.14076 0.0
C1352 C 0.72281 0.75041 0.15999 0.0
H1353 H 0.77453 0.6715 0.08418 0.0
H1354 H 0.76479 0.69178 0.1076 0.0
C1355 C 0.71575 0.76234 0.17182 0.0
C1356 C 0.72575 0.73732 0.128 0.0
H1357 H 0.72801 0.69376 0.11746 0.0
C1358 C 0.73602 0.74455 0.11387 0.0
C1359 C 0.72289 0.71879 0.12943 0.0
C1360 C 0.71144 0.71027 0.14393 0.0
C1361 C 0.74346 0.73375 0.10105 0.0
C1362 C 0.74035 0.71523 0.10228 0.0
C1363 C 0.73039 0.70799 0.11662 0.0
C1364 C 0.7465 0.70315 0.08818 0.0
C1365 C 0.75467 0.74224 0.08634 0.0
C1366 C 0.73928 0.70275 0.06962 0.0
C1367 C 0.74475 0.6912 0.05627 0.0
C1368 C 0.75754 0.67979 0.06124 0.0
C1369 C 0.76473 0.68018 0.0799 0.0
C1370 C 0.75917 0.69172 0.09328 0.0
H1371 H 0.75976 0.75628 0.09023 0.0
H1372 H 0.76647 0.73508 0.08394 0.0
H1373 H 0.74609 0.74178 0.07301 0.0
H1374 H 0.72926 0.71126 0.06548 0.0
H1375 H 0.73889 0.69121 0.04206 0.0
H1376 H 0.01954 0.02825 0.11068 0.0
H1377 H -0.00023 0.02065 0.13583 0.0
H1378 H 0.99662 0.07585 0.14749 0.0
H1379 H 0.01615 0.08357 0.12239 0.0
H1380 H 0.00412 0.03112 0.17432 0.0
H1381 H 0.943 0.05386 0.13909 0.0
H1382 H 0.96273 0.05016 0.12693 0.0
H1383 H 0.96276 0.07017 0.14091 0.0
C1384 C 0.01468 0.03877 0.11863 0.0
C1385 C 0.0193 0.05651 0.11443 0.0
C1386 C 0.00339 0.0344 0.13298 0.0
C1387 C 0.99649 0.04768 0.14326 0.0
C1388 C 0.00151 0.0654 0.13945 0.0
H1389 H 0.94848 0.04618 0.24894 0.0
H1390 H 0.96839 0.0498 0.22336 0.0
C1391 C 0.01275 0.06977 0.12515 0.0
C1392 C 0.98402 0.04313 0.158 0.0
H1393 H 0.94156 0.04774 0.17118 0.0
C1394 C 0.99039 0.03462 0.1736 0.0
C1395 C 0.96604 0.04749 0.15687 0.0
C1396 C 0.95813 0.05577 0.13997 0.0
C1397 C 0.97943 0.03087 0.18843 0.0
C1398 C 0.96175 0.03599 0.18769 0.0
C1399 C 0.95519 0.04399 0.17181 0.0
C1400 C 0.94988 0.03342 0.20332 0.0
C1401 C 0.98682 0.02135 0.20469 0.0
C1402 C 0.93269 0.02336 0.20041 0.0
C1403 C 0.9212 0.02138 0.21496 0.0
C1404 C 0.92668 0.02952 0.23267 0.0
C1405 C 0.94389 0.03966 0.2355 0.0
C1406 C 0.95535 0.04164 0.22094 0.0
H1407 H 0.99813 0.01405 0.20083 0.0
H1408 H 0.99219 0.03113 0.21617 0.0
H1409 H 0.97599 0.0119 0.21 0.0
H1410 H 0.92817 0.017 0.18687 0.0
H1411 H 0.90803 0.0135 0.21229 0.0
H1412 H 0.2465 0.78282 0.21393 0.0
H1413 H 0.24324 0.80049 0.18655 0.0
H1414 H 0.26646 0.76208 0.15346 0.0
H1415 H 0.26951 0.74419 0.18065 0.0
H1416 H 0.27004 0.81549 0.16506 0.0
H1417 H 0.2199 0.76784 0.12208 0.0
H1418 H 0.22492 0.76563 0.14673 0.0
H1419 H 0.24004 0.75884 0.13021 0.0
C1420 C 0.25082 0.77807 0.2008 0.0
C1421 C 0.25817 0.76204 0.19944 0.0
C1422 C 0.24896 0.7882 0.18518 0.0
C1423 C 0.25434 0.78246 0.16791 0.0
C1424 C 0.26184 0.76656 0.16655 0.0
H1425 H 0.25987 0.8255 0.05869 0.0
H1426 H 0.26216 0.80803 0.08631 0.0
C1427 C 0.26367 0.7564 0.18214 0.0
C1428 C 0.25259 0.79338 0.15146 0.0
H1429 H 0.23327 0.79277 0.1069 0.0
C1430 C 0.26191 0.81058 0.15238 0.0
C1431 C 0.24198 0.78692 0.13494 0.0
C1432 C 0.231 0.76886 0.13342 0.0
C1433 C 0.26121 0.82137 0.13708 0.0
C1434 C 0.25072 0.81486 0.12052 0.0
C1435 C 0.24134 0.79769 0.11962 0.0
C1436 C 0.24937 0.82561 0.10392 0.0
C1437 C 0.27204 0.8395 0.13858 0.0
C1438 C 0.24125 0.84119 0.10465 0.0
C1439 C 0.23989 0.85121 0.08888 0.0
C1440 C 0.2466 0.84578 0.07209 0.0
C1441 C 0.25461 0.83009 0.0714 0.0
C1442 C 0.25592 0.82007 0.08716 0.0
H1443 H 0.28261 0.84093 0.15046 0.0
H1444 H 0.27877 0.84239 0.12554 0.0
H1445 H 0.26273 0.84952 0.14081 0.0
H1446 H 0.23583 0.84552 0.11737 0.0
H1447 H 0.23357 0.86318 0.08987 0.0
H1448 H 0.96944 0.47763 0.13065 0.0
H1449 H 0.98374 0.48191 0.16248 0.0
H1450 H 0.03668 0.48297 0.1412 0.0
H1451 H 0.0226 0.47905 0.10941 0.0
H1452 H 0.00471 0.45987 0.18042 0.0
H1453 H 0.04426 0.52591 0.17695 0.0
H1454 H 0.02634 0.51727 0.15953 0.0
H1455 H 0.04873 0.51076 0.15871 0.0
C1456 C 0.98414 0.47901 0.13272 0.0
C1457 C 0.99488 0.47803 0.11747 0.0
C1458 C 0.99228 0.48144 0.15092 0.0
C1459 C 0.01127 0.48301 0.15418 0.0
C1460 C 0.02202 0.48221 0.13898 0.0
H1461 H 0.09043 0.48164 0.24671 0.0
H1462 H 0.07307 0.48043 0.21642 0.0
C1463 C 0.01392 0.47985 0.1208 0.0
C1464 C 0.01986 0.48435 0.17348 0.0
H1465 H 0.05265 0.50882 0.20263 0.0
C1466 C 0.01502 0.47068 0.18538 0.0
C1467 C 0.0333 0.49848 0.1799 0.0
C1468 C 0.03834 0.51402 0.16817 0.0
C1469 C 0.02375 0.47046 0.2033 0.0
C1470 C 0.03754 0.48431 0.20946 0.0
C1471 C 0.04213 0.49816 0.19775 0.0
C1472 C 0.0477 0.48449 0.22788 0.0
C1473 C 0.01859 0.45517 0.21532 0.0
C1474 C 0.03912 0.48716 0.2443 0.0
C1475 C 0.04899 0.48791 0.26165 0.0
C1476 C 0.06762 0.48598 0.26283 0.0
C1477 C 0.0761 0.48311 0.24631 0.0
C1478 C 0.06623 0.48246 0.22899 0.0
H1479 H 0.00986 0.44412 0.20735 0.0
H1480 H 0.03097 0.45017 0.2215 0.0
H1481 H 0.011 0.45968 0.22695 0.0
H1482 H 0.02485 0.48893 0.24367 0.0
H1483 H 0.04207 0.49018 0.2741 0.0
H1484 H 0.31968 0.75989 0.28205 0.0
H1485 H 0.34875 0.76752 0.30055 0.0
H1486 H 0.36437 0.71685 0.28504 0.0
H1487 H 0.33559 0.70922 0.26631 0.0
H1488 H 0.36067 0.74994 0.33064 0.0
H1489 H 0.40968 0.75001 0.27606 0.0
H1490 H 0.38567 0.75064 0.27066 0.0
H1491 H 0.39404 0.73006 0.27536 0.0
C1492 C 0.32942 0.75047 0.28233 0.0
C1493 C 0.3253 0.73395 0.27267 0.0
C1494 C 0.34601 0.75485 0.29294 0.0
C1495 C 0.35881 0.74284 0.29398 0.0
C1496 C 0.35487 0.72647 0.2841 0.0
H1497 H 0.45775 0.73238 0.36067 0.0
H1498 H 0.4301 0.72834 0.33948 0.0
C1499 C 0.33834 0.7221 0.27348 0.0
C1500 C 0.3757 0.74683 0.30646 0.0
H1501 H 0.42198 0.74919 0.3076 0.0
C1502 C 0.37409 0.74998 0.32558 0.0
C1503 C 0.39317 0.74681 0.29982 0.0
C1504 C 0.3958 0.74437 0.27932 0.0
C1505 C 0.38948 0.75261 0.33833 0.0
C1506 C 0.40691 0.75226 0.33173 0.0
C1507 C 0.40856 0.74934 0.31259 0.0
C1508 C 0.4236 0.7548 0.34452 0.0
C1509 C 0.38697 0.75524 0.35883 0.0
C1510 C 0.42911 0.77107 0.3542 0.0
C1511 C 0.44489 0.77344 0.36627 0.0
C1512 C 0.45544 0.75957 0.36886 0.0
C1513 C 0.4499 0.7433 0.35905 0.0
C1514 C 0.43415 0.74097 0.34691 0.0
H1515 H 0.37261 0.75148 0.36201 0.0
H1516 H 0.39579 0.74738 0.36729 0.0
H1517 H 0.39092 0.76936 0.36318 0.0
H1518 H 0.42127 0.78197 0.35232 0.0
H1519 H 0.4488 0.78616 0.37356 0.0
H1520 H 0.97389 0.39307 0.04057 0.0
H1521 H 0.97817 0.3695 0.01805 0.0
H1522 H 0.99389 0.4081 0.97814 0.0
H1523 H 0.98986 0.43185 0.00067 0.0
H1524 H 0.96202 0.36101 0.98166 0.0
H1525 H 0.03694 0.37907 0.98225 0.0
H1526 H 0.02361 0.38764 -0.00032 0.0
H1527 H 0.0237 0.3966 0.97697 0.0
C1528 C 0.97819 0.39658 0.02698 0.0
C1529 C 0.98168 0.41435 0.02247 0.0
C1530 C 0.98061 0.38308 0.01413 0.0
C1531 C 0.98665 0.38708 0.99658 0.0
C1532 C 0.98957 0.40476 0.99177 0.0
H1533 H 0.01245 0.32131 0.90344 0.0
H1534 H 0.00725 0.34587 0.92434 0.0
C1535 C 0.98714 0.4183 0.00462 0.0
C1536 C 0.99005 0.37269 0.98344 0.0
H1537 H 0.02354 0.35597 0.96093 0.0
C1538 C 0.97546 0.35988 0.97713 0.0
C1539 C 0.00762 0.37128 0.9776 0.0
C1540 C 0.02393 0.38427 0.98456 0.0
C1541 C 0.97794 0.34575 0.96495 0.0
C1542 C 0.99553 0.34428 0.9592 0.0
C1543 C 0.01009 0.35716 0.96539 0.0
C1544 C 0.99909 0.3294 0.94683 0.0
C1545 C 0.96168 0.33266 0.9581 0.0
C1546 C 0.99659 0.31206 0.95274 0.0
C1547 C 0.99959 0.29799 0.94087 0.0
C1548 C 0.00519 0.30105 0.92287 0.0
C1549 C 0.00808 0.3185 0.91718 0.0
C1550 C 0.00512 0.33255 0.92909 0.0
H1551 H 0.94866 0.33794 0.96011 0.0
H1552 H 0.96214 0.32895 0.94308 0.0
H1553 H 0.96182 0.32051 0.96603 0.0
H1554 H 0.99227 0.3094 0.96652 0.0
H1555 H 0.9973 0.28472 0.94572 0.0
H1556 H 0.67772 0.77366 0.29287 0.0
H1557 H 0.65139 0.76696 0.31112 0.0
H1558 H 0.61659 0.78419 0.26682 0.0
H1559 H 0.64275 0.79062 0.24833 0.0
H1560 H 0.63008 0.7912 0.32326 0.0
H1561 H 0.58783 0.73797 0.27944 0.0
H1562 H 0.61156 0.74458 0.2762 0.0
H1563 H 0.5945 0.75731 0.26696 0.0
C1564 C 0.66442 0.77576 0.28687 0.0
C1565 C 0.66234 0.78269 0.26914 0.0
C1566 C 0.6494 0.77194 0.29734 0.0
C1567 C 0.63201 0.7749 0.29026 0.0
C1568 C 0.62981 0.78144 0.2724 0.0
H1569 H 0.52727 0.77694 0.33492 0.0
H1570 H 0.55349 0.77933 0.31598 0.0
C1571 C 0.64482 0.78521 0.26189 0.0
C1572 C 0.61645 0.77247 0.30211 0.0
H1573 H 0.5733 0.75137 0.30382 0.0
C1574 C 0.61773 0.78236 0.31911 0.0
C1575 C 0.60034 0.761 0.29659 0.0
C1576 C 0.59849 0.74948 0.27889 0.0
C1577 C 0.60316 0.78139 0.33056 0.0
C1578 C 0.587 0.77006 0.32495 0.0
C1579 C 0.58573 0.76008 0.30802 0.0
C1580 C 0.57119 0.7685 0.33644 0.0
C1581 C 0.605 0.79282 0.34834 0.0
C1582 C 0.57247 0.76147 0.35413 0.0
C1583 C 0.55753 0.76009 0.36499 0.0
C1584 C 0.54104 0.76566 0.3583 0.0
C1585 C 0.53979 0.77259 0.3405 0.0
C1586 C 0.55473 0.77393 0.32964 0.0
H1587 H 0.61658 0.80357 0.34854 0.0
H1588 H 0.59233 0.79878 0.35021 0.0
H1589 H 0.6074 0.78457 0.36039 0.0
H1590 H 0.58499 0.75698 0.35949 0.0
H1591 H 0.55893 0.75463 0.3786 0.0
H1592 H 0.06381 0.10882 0.03151 0.0
H1593 H 0.06055 0.13383 0.0119 0.0
H1594 H 0.02466 0.09993 0.97224 0.0
H1595 H 0.02778 0.0748 0.99172 0.0
H1596 H 0.06638 0.1382 0.97189 0.0
H1597 H 0.99487 0.14008 0.98953 0.0
H1598 H 0.01061 0.12865 0.0032 0.0
H1599 H 0.00045 0.11911 0.98115 0.0
C1600 C 0.05539 0.10661 0.01851 0.0
C1601 C 0.04593 0.08982 0.01326 0.0
C1602 C 0.05356 0.12092 0.00733 0.0
C1603 C 0.04217 0.11873 0.99081 0.0
C1604 C 0.03333 0.10189 0.9851 0.0
H1605 H 0.00258 0.19453 0.91605 0.0
H1606 H 0.00838 0.16776 0.93174 0.0
C1607 C 0.03521 0.08754 0.99621 0.0
C1608 C 0.0389 0.13424 0.98 0.0
H1609 H 0.00639 0.16049 0.96826 0.0
C1610 C 0.05328 0.1431 0.97104 0.0
C1611 C 0.02177 0.14052 0.97896 0.0
C1612 C 0.00603 0.13173 0.98881 0.0
C1613 C 0.05093 0.15805 0.96085 0.0
C1614 C 0.03386 0.16451 0.96004 0.0
C1615 C 0.01945 0.15552 0.9689 0.0
C1616 C 0.03068 0.18072 0.95032 0.0
C1617 C 0.06666 0.16658 0.9508 0.0
C1618 C 0.04111 0.19694 0.95574 0.0
C1619 C 0.03789 0.21225 0.94676 0.0
C1620 C 0.02401 0.21166 0.93232 0.0
C1621 C 0.01339 0.19544 0.92711 0.0
C1622 C 0.01669 0.18012 0.93604 0.0
H1623 H 0.07662 0.15725 0.9482 0.0
H1624 H 0.06186 0.1715 0.93725 0.0
H1625 H 0.07387 0.17795 0.95954 0.0
H1626 H 0.05165 0.19781 0.96706 0.0
H1627 H 0.04623 0.22455 0.95121 0.0
H1628 H 0.3839 0.3074 0.29856 0.0
H1629 H 0.40431 0.30244 0.27422 0.0
H1630 H 0.35862 0.27805 0.2379 0.0
H1631 H 0.33804 0.28311 0.26208 0.0
H1632 H 0.4099 0.27024 0.2562 0.0
H1633 H 0.38361 0.31639 0.20625 0.0
H1634 H 0.37871 0.31668 0.23047 0.0
H1635 H 0.36675 0.30002 0.21425 0.0
C1636 C 0.37817 0.30098 0.2854 0.0
C1637 C 0.35933 0.29573 0.28221 0.0
C1638 C 0.38986 0.29815 0.27152 0.0
C1639 C 0.38292 0.29012 0.25419 0.0
C1640 C 0.36418 0.28457 0.25107 0.0
H1641 H 0.43725 0.26644 0.15421 0.0
H1642 H 0.41465 0.26894 0.17706 0.0
C1643 C 0.35247 0.28739 0.26494 0.0
C1644 C 0.3954 0.28745 0.2395 0.0
H1645 H 0.40603 0.29967 0.19605 0.0
C1646 C 0.40906 0.27666 0.24304 0.0
C1647 C 0.39419 0.2958 0.22233 0.0
C1648 C 0.38014 0.30799 0.21807 0.0
C1649 C 0.42158 0.27397 0.22984 0.0
C1650 C 0.42058 0.28256 0.21282 0.0
C1651 C 0.40673 0.29312 0.20913 0.0
C1652 C 0.43417 0.28121 0.19893 0.0
C1653 C 0.43569 0.26184 0.23417 0.0
C1654 C 0.45253 0.28761 0.20359 0.0
C1655 C 0.46544 0.28622 0.19062 0.0
C1656 C 0.46021 0.27849 0.17268 0.0
C1657 C 0.44173 0.27241 0.16793 0.0
C1658 C 0.4288 0.27382 0.18094 0.0
H1659 H 0.43161 0.25272 0.24522 0.0
H1660 H 0.43803 0.2539 0.22152 0.0
H1661 H 0.44875 0.26985 0.23921 0.0
H1662 H 0.45687 0.2937 0.21728 0.0
H1663 H 0.47953 0.29114 0.19471 0.0
H1664 H 0.52347 0.44885 0.03221 0.0
H1665 H 0.51757 0.42537 0.05396 0.0
H1666 H 0.54291 0.39022 0.01879 0.0
H1667 H 0.54915 0.4137 0.99713 0.0
H1668 H 0.49765 0.39214 0.04815 0.0
H1669 H 0.57001 0.38707 0.06959 0.0
H1670 H 0.56307 0.40533 0.05698 0.0
H1671 H 0.56448 0.3846 0.04486 0.0
C1672 C 0.52782 0.43613 0.02911 0.0
C1673 C 0.5369 0.43318 0.013 0.0
C1674 C 0.52442 0.42273 0.04154 0.0
C1675 C 0.53007 0.40616 0.03814 0.0
C1676 C 0.5388 0.40304 0.02189 0.0
H1677 H 0.5222 0.30898 0.09717 0.0
H1678 H 0.5266 0.3316 0.07421 0.0
C1679 C 0.54226 0.41645 0.00947 0.0
C1680 C 0.52668 0.3921 0.05154 0.0
H1681 H 0.54799 0.3653 0.08024 0.0
C1682 C 0.50865 0.3863 0.05523 0.0
C1683 C 0.54107 0.38453 0.06074 0.0
C1684 C 0.56076 0.39079 0.05801 0.0
C1685 C 0.50459 0.37294 0.06769 0.0
C1686 C 0.51898 0.36536 0.07684 0.0
C1687 C 0.537 0.37112 0.07313 0.0
C1688 C 0.51567 0.35157 0.09051 0.0
C1689 C 0.48495 0.36682 0.07073 0.0
C1690 C 0.50817 0.35537 0.10732 0.0
C1691 C 0.50566 0.3425 0.1205 0.0
C1692 C 0.51068 0.3256 0.11711 0.0
C1693 C 0.51815 0.32184 0.1002 0.0
C1694 C 0.5207 0.33474 0.08707 0.0
H1695 H 0.47554 0.37088 0.05948 0.0
H1696 H 0.48255 0.35224 0.07144 0.0
H1697 H 0.48159 0.37274 0.08417 0.0
H1698 H 0.5045 0.36838 0.11037 0.0
H1699 H 0.49993 0.34585 0.13339 0.0
H1700 H 0.66679 0.25988 0.30032 0.0
H1701 H 0.63856 0.26008 0.28066 0.0
H1702 H 0.66651 0.2969 0.24519 0.0
H1703 H 0.69485 0.29664 0.26458 0.0
H1704 H 0.61908 0.28814 0.2707 0.0
H1705 H 0.64419 0.25592 0.20883 0.0
H1706 H 0.65567 0.25636 0.23184 0.0
H1707 H 0.65838 0.27551 0.2181 0.0
C1708 C 0.66693 0.26808 0.28838 0.0
C1709 C 0.68312 0.27812 0.28392 0.0
C1710 C 0.65078 0.26818 0.27718 0.0
C1711 C 0.65055 0.27825 0.2613 0.0
C1712 C 0.66651 0.28875 0.25717 0.0
H1713 H 0.56756 0.29121 0.1735 0.0
H1714 H 0.5954 0.29348 0.19426 0.0
C1715 C 0.68267 0.28865 0.26833 0.0
C1716 C 0.63365 0.2776 0.24895 0.0
H1717 H 0.61545 0.26609 0.2046 0.0
C1718 C 0.61824 0.28329 0.25626 0.0
C1719 C 0.63264 0.27124 0.23012 0.0
C1720 C 0.64853 0.26425 0.22175 0.0
C1721 C 0.60189 0.28303 0.24514 0.0
C1722 C 0.60089 0.27665 0.22634 0.0
C1723 C 0.6163 0.27102 0.21902 0.0
C1724 C 0.58389 0.27548 0.21404 0.0
C1725 C 0.58592 0.28987 0.25352 0.0
C1726 C 0.56829 0.26444 0.21819 0.0
C1727 C 0.55238 0.26309 0.20637 0.0
C1728 C 0.55181 0.2727 0.19012 0.0
C1729 C 0.56752 0.28366 0.18593 0.0
C1730 C 0.58344 0.28498 0.19776 0.0
H1731 H 0.59024 0.29837 0.26633 0.0
H1732 H 0.57859 0.29754 0.24336 0.0
H1733 H 0.57627 0.27854 0.25735 0.0
H1734 H 0.56848 0.25671 0.23049 0.0
H1735 H 0.54055 0.25447 0.20996 0.0
H1736 H 0.52827 0.1047 0.03506 0.0
H1737 H 0.52872 0.13344 0.05112 0.0
H1738 H 0.47619 0.11662 0.07101 0.0
H1739 H 0.47569 0.08762 0.0551 0.0
H1740 H 0.50343 0.15747 0.04547 0.0
H1741 H 0.50728 0.13641 0.11862 0.0
H1742 H 0.51209 0.12248 0.09924 0.0
H1743 H 0.48897 0.12496 0.1034 0.0
C1744 C 0.51683 0.10703 0.04292 0.0
C1745 C 0.50195 0.09384 0.04384 0.0
C1746 C 0.51711 0.12349 0.05208 0.0
C1747 C 0.50258 0.12709 0.0624 0.0
C1748 C 0.48768 0.11399 0.06337 0.0
H1749 H 0.48826 0.22351 0.12594 0.0
H1750 H 0.48338 0.19404 0.11044 0.0
C1751 C 0.48738 0.09747 0.05421 0.0
C1752 C 0.50298 0.14478 0.07165 0.0
H1753 H 0.5053 0.16656 0.11425 0.0
C1754 C 0.50379 0.15947 0.0605 0.0
C1755 C 0.50335 0.1473 0.09125 0.0
C1756 C 0.50302 0.132 0.1039 0.0
C1757 C 0.50512 0.17666 0.06844 0.0
C1758 C 0.50595 0.17922 0.08806 0.0
C1759 C 0.50469 0.16452 0.09921 0.0
C1760 C 0.50882 0.19709 0.0973 0.0
C1761 C 0.50552 0.19193 0.05575 0.0
C1762 C 0.52484 0.20845 0.09522 0.0
C1763 C 0.52769 0.22526 0.10403 0.0
C1764 C 0.51458 0.231 0.11519 0.0
C1765 C 0.4986 0.21952 0.11739 0.0
C1766 C 0.49578 0.20268 0.10857 0.0
H1767 H 0.49975 0.18761 0.0414 0.0
H1768 H 0.49781 0.20229 0.06122 0.0
H1769 H 0.51983 0.19788 0.05488 0.0
H1770 H 0.53524 0.20424 0.08687 0.0
H1771 H 0.54019 0.23372 0.10213 0.0
H1772 H 0.26592 0.34118 0.74633 0.0
H1773 H 0.28842 0.36759 0.74938 0.0
H1774 H 0.25341 0.39475 0.71351 0.0
H1775 H 0.23078 0.36838 0.71026 0.0
H1776 H 0.30492 0.3882 0.71794 0.0
H1777 H 0.26502 0.42532 0.76488 0.0
H1778 H 0.2614 0.40154 0.76203 0.0
H1779 H 0.25337 0.41465 0.74386 0.0
C1780 C 0.26301 0.35273 0.739 0.0
C1781 C 0.24651 0.35271 0.72812 0.0
C1782 C 0.2759 0.36777 0.74074 0.0
C1783 C 0.27244 0.38308 0.7318 0.0
C1784 C 0.2562 0.38305 0.72062 0.0
H1785 H 0.33287 0.48884 0.74341 0.0
H1786 H 0.30994 0.46338 0.73491 0.0
C1787 C 0.24334 0.36797 0.71875 0.0
C1788 C 0.28574 0.39918 0.73453 0.0
H1789 H 0.29323 0.4397 0.75726 0.0
C1790 C 0.3024 0.39952 0.72646 0.0
C1791 C 0.28225 0.41388 0.74556 0.0
C1792 C 0.2646 0.41394 0.75472 0.0
C1793 C 0.31578 0.41425 0.72919 0.0
C1794 C 0.31253 0.42878 0.74071 0.0
C1795 C 0.2957 0.42854 0.74848 0.0
C1796 C 0.32662 0.44413 0.74538 0.0
C1797 C 0.33315 0.41418 0.71952 0.0
C1798 C 0.34349 0.44177 0.75431 0.0
C1799 C 0.35664 0.45625 0.75908 0.0
C1800 C 0.35307 0.47341 0.75524 0.0
C1801 C 0.33606 0.47578 0.74653 0.0
C1802 C 0.32294 0.46126 0.74165 0.0
H1803 H 0.33119 0.405 0.70699 0.0
H1804 H 0.33827 0.42757 0.71522 0.0
H1805 H 0.34371 0.40968 0.72924 0.0
H1806 H 0.34643 0.42872 0.75779 0.0
H1807 H 0.36954 0.45398 0.76593 0.0
H1808 H 0.32771 0.70758 0.80169 0.0
H1809 H 0.33722 0.67826 0.79804 0.0
H1810 H 0.28133 0.65458 0.79761 0.0
H1811 H 0.27163 0.68387 0.80086 0.0
H1812 H 0.33305 0.64943 0.81983 0.0
H1813 H 0.29724 0.63355 0.74966 0.0
H1814 H 0.30037 0.65552 0.76043 0.0
H1815 H 0.28277 0.63923 0.76729 0.0
C1816 C 0.31743 0.69614 0.80087 0.0
C1817 C 0.29889 0.69806 0.80141 0.0
C1818 C 0.32289 0.6794 0.79878 0.0
C1819 C 0.30995 0.66427 0.7972 0.0
C1820 C 0.2915 0.6661 0.79836 0.0
H1821 H 0.32099 0.55264 0.78082 0.0
H1822 H 0.30957 0.58076 0.78727 0.0
C1823 C 0.286 0.68285 0.80034 0.0
C1824 C 0.31584 0.64662 0.79424 0.0
H1825 H 0.31135 0.61076 0.76368 0.0
C1826 C 0.32832 0.64098 0.80755 0.0
C1827 C 0.30964 0.63562 0.77819 0.0
C1828 C 0.2969 0.64131 0.76298 0.0
C1829 C 0.33471 0.62458 0.80529 0.0
C1830 C 0.32859 0.61366 0.78921 0.0
C1831 C 0.31595 0.61918 0.77601 0.0
C1832 C 0.33556 0.59667 0.78554 0.0
C1833 C 0.34784 0.61898 0.82017 0.0
C1834 C 0.3539 0.59638 0.78221 0.0
C1835 C 0.36045 0.58038 0.77842 0.0
C1836 C 0.34876 0.56437 0.77791 0.0
C1837 C 0.33036 0.56473 0.78117 0.0
C1838 C 0.3238 0.58077 0.78485 0.0
H1839 H 0.34787 0.62681 0.83351 0.0
H1840 H 0.34444 0.60477 0.82279 0.0
H1841 H 0.36181 0.62097 0.81541 0.0
H1842 H 0.36311 0.60856 0.78238 0.0
H1843 H 0.37468 0.58059 0.77594 0.0
H1844 H 0.90019 0.5253 0.5014 0.0
H1845 H 0.87268 0.50442 0.5035 0.0
H1846 H 0.89995 0.47871 0.54752 0.0
H1847 H 0.92751 0.49957 0.54561 0.0
H1848 H 0.86908 0.46702 0.49878 0.0
H1849 H 0.85201 0.48913 0.56912 0.0
H1850 H 0.86761 0.50239 0.55557 0.0
H1851 H 0.87494 0.48422 0.56785 0.0
C1852 C 0.90032 0.51527 0.5116 0.0
C1853 C 0.91602 0.51414 0.52339 0.0
C1854 C 0.8846 0.50334 0.51275 0.0
C1855 C 0.88423 0.49018 0.52581 0.0
C1856 C 0.89987 0.48897 0.53756 0.0
H1857 H 0.80784 0.39479 0.52797 0.0
H1858 H 0.83474 0.41653 0.52635 0.0
C1859 C 0.91563 0.50085 0.53638 0.0
C1860 C 0.86762 0.47743 0.52679 0.0
H1861 H 0.83483 0.46289 0.55554 0.0
C1862 C 0.86155 0.46613 0.51116 0.0
C1863 C 0.85775 0.47646 0.5429 0.0
C1864 C 0.86327 0.48878 0.55978 0.0
C1865 C 0.84601 0.45364 0.51133 0.0
C1866 C 0.83643 0.45234 0.52762 0.0
C1867 C 0.84231 0.46385 0.54313 0.0
C1868 C 0.82018 0.43918 0.52878 0.0
C1869 C 0.83982 0.44208 0.49401 0.0
C1870 C 0.80316 0.44475 0.53107 0.0
C1871 C 0.78775 0.43237 0.53204 0.0
C1872 C 0.78913 0.41419 0.53088 0.0
C1873 C 0.80628 0.40868 0.52884 0.0
C1874 C 0.82166 0.42108 0.52782 0.0
H1875 H 0.84604 0.44745 0.48149 0.0
H1876 H 0.84389 0.42876 0.49593 0.0
H1877 H 0.82478 0.44062 0.49144 0.0
H1878 H 0.80177 0.45868 0.53193 0.0
H1879 H 0.77476 0.43706 0.53366 0.0
H1880 H 0.74863 0.85592 0.80631 0.0
H1881 H 0.73041 0.88026 0.80227 0.0
H1882 H 0.68279 0.84665 0.81649 0.0
H1883 H 0.70084 0.82236 0.82077 0.0
H1884 H 0.69883 0.88244 0.7785 0.0
H1885 H 0.68535 0.88954 0.85311 0.0
H1886 H 0.70276 0.8772 0.8452 0.0
H1887 H 0.6793 0.86755 0.84305 0.0
C1888 C 0.73427 0.8537 0.80854 0.0
C1889 C 0.72622 0.83724 0.81401 0.0
C1890 C 0.7239 0.86762 0.80622 0.0
C1891 C 0.70535 0.86533 0.80942 0.0
C1892 C 0.69718 0.84879 0.81435 0.0
H1893 H 0.61724 0.92908 0.80497 0.0
H1894 H 0.6366 0.90553 0.80742 0.0
C1895 C 0.70751 0.83489 0.81669 0.0
C1896 C 0.69446 0.88019 0.80761 0.0
H1897 H 0.66847 0.90543 0.83186 0.0
C1898 C 0.69228 0.88757 0.79017 0.0
C1899 C 0.68598 0.88685 0.8229 0.0
C1900 C 0.68857 0.88001 0.84217 0.0
C1901 C 0.6814 0.90113 0.78749 0.0
C1902 C 0.67273 0.90761 0.80272 0.0
C1903 C 0.67507 0.90035 0.8202 0.0
C1904 C 0.66106 0.92186 0.80084 0.0
C1905 C 0.67889 0.90813 0.76828 0.0
C1906 C 0.66847 0.93886 0.79651 0.0
C1907 C 0.65746 0.95236 0.79513 0.0
C1908 C 0.63885 0.94908 0.79812 0.0
C1909 C 0.6315 0.93203 0.80254 0.0
C1910 C 0.64254 0.91856 0.80396 0.0
H1911 H 0.68298 0.8991 0.75733 0.0
H1912 H 0.66449 0.91014 0.76494 0.0
H1913 H 0.68745 0.92107 0.76784 0.0
H1914 H 0.68281 0.94174 0.79439 0.0
H1915 H 0.66357 0.96535 0.79177 0.0
H1916 H 0.6121 0.50066 0.98655 0.0
H1917 H 0.64147 0.51858 0.99447 0.0
H1918 H 0.61636 0.55172 0.03206 0.0
H1919 H 0.58686 0.53406 0.02403 0.0
H1920 H 0.63744 0.57061 0.00795 0.0
H1921 H 0.6756 0.52105 0.04171 0.0
H1922 H 0.66522 0.51393 0.01893 0.0
H1923 H 0.65113 0.51788 0.03757 0.0
C1924 C 0.61284 0.51164 0.99667 0.0
C1925 C 0.59711 0.51592 0.00466 0.0
C1926 C 0.62967 0.52181 0.00125 0.0
C1927 C 0.63113 0.53634 0.01402 0.0
C1928 C 0.61553 0.54051 0.02222 0.0
H1929 H 0.73098 0.59764 0.06238 0.0
H1930 H 0.70203 0.57843 0.05686 0.0
C1931 C 0.59868 0.53037 0.01763 0.0
C1932 C 0.64869 0.54783 0.018 0.0
H1933 H 0.693 0.54786 0.03423 0.0
C1934 C 0.64957 0.56567 0.01378 0.0
C1935 C 0.66444 0.54137 0.02578 0.0
C1936 C 0.66407 0.52255 0.03144 0.0
C1937 C 0.66587 0.57718 0.01685 0.0
C1938 C 0.68177 0.57058 0.02401 0.0
C1939 C 0.68082 0.55282 0.02854 0.0
C1940 C 0.69946 0.58198 0.02715 0.0
C1941 C 0.66584 0.59636 0.01266 0.0
C1942 C 0.70774 0.59012 0.01222 0.0
C1943 C 0.72425 0.60116 0.01532 0.0
C1944 C 0.73286 0.60413 0.03341 0.0
C1945 C 0.72469 0.59567 0.04828 0.0
C1946 C 0.70816 0.58467 0.04516 0.0
H1947 H 0.65187 0.60017 0.01199 0.0
H1948 H 0.67449 0.60506 0.02338 0.0
H1949 H 0.67139 0.5987 0.99893 0.0
H1950 H 0.70142 0.58793 0.99815 0.0
H1951 H 0.73024 0.60738 0.00355 0.0
H1952 H 0.25984 0.63506 0.26531 0.0
H1953 H 0.2357 0.61211 0.27233 0.0
H1954 H 0.19525 0.64424 0.25271 0.0
H1955 H 0.21938 0.6673 0.24542 0.0
H1956 H 0.2086 0.6159 0.29716 0.0
H1957 H 0.17874 0.59596 0.22523 0.0
H1958 H 0.20096 0.60856 0.22985 0.0
H1959 H 0.18085 0.61915 0.23147 0.0
C1960 C 0.24582 0.63723 0.26232 0.0
C1961 C 0.24153 0.65302 0.25478 0.0
C1962 C 0.23205 0.6241 0.26638 0.0
C1963 C 0.21372 0.62642 0.2629 0.0
C1964 C 0.20933 0.64208 0.25522 0.0
H1965 H 0.11488 0.5569 0.28225 0.0
H1966 H 0.13642 0.58215 0.27485 0.0
C1967 C 0.22313 0.65526 0.25114 0.0
C1968 C 0.19931 0.61267 0.26805 0.0
H1969 H 0.164 0.58247 0.25003 0.0
C1970 C 0.19882 0.60859 0.28687 0.0
C1971 C 0.18654 0.60327 0.25459 0.0
C1972 C 0.1868 0.6068 0.23412 0.0
C1973 C 0.18593 0.59528 0.29261 0.0
C1974 C 0.17341 0.5856 0.27911 0.0
C1975 C 0.17365 0.58992 0.26033 0.0
C1976 C 0.16039 0.57054 0.2841 0.0
C1977 C 0.18574 0.59178 0.31309 0.0
C1978 C 0.16676 0.55562 0.29163 0.0
C1979 C 0.15452 0.5412 0.2959 0.0
C1980 C 0.13566 0.54138 0.29259 0.0
C1981 C 0.12932 0.55636 0.28503 0.0
C1982 C 0.14159 0.57079 0.28076 0.0
H1983 H 0.19253 0.6033 0.32194 0.0
H1984 H 0.1716 0.58854 0.31715 0.0
H1985 H 0.19319 0.58038 0.31604 0.0
H1986 H 0.18123 0.55503 0.29397 0.0
H1987 H 0.15987 0.52984 0.3016 0.0
H1988 H 0.93537 0.52063 0.03945 0.0
H1989 H 0.91478 0.54284 0.03449 0.0
H1990 H 0.87467 0.5126 0.06494 0.0
H1991 H 0.89502 0.49015 0.06964 0.0
H1992 H 0.85996 0.5238 0.03255 0.0
H1993 H 0.90254 0.57967 0.07212 0.0
H1994 H 0.91411 0.56969 0.05424 0.0
H1995 H 0.90712 0.55714 0.07371 0.0
C1996 C 0.92219 0.51872 0.04514 0.0
C1997 C 0.91685 0.50364 0.05499 0.0
C1998 C 0.91049 0.5315 0.04241 0.0
C1999 C 0.89333 0.52954 0.04964 0.0
C2000 C 0.88791 0.51443 0.05934 0.0
H2001 H 0.82083 0.61015 0.05777 0.0
H2002 H 0.84205 0.58873 0.0643 0.0
C2003 C 0.89955 0.50161 0.062 0.0
C2004 C 0.88075 0.54292 0.04657 0.0
H2005 H 0.87681 0.58666 0.05353 0.0
C2006 C 0.86361 0.53753 0.03721 0.0
C2007 C 0.88544 0.56078 0.05289 0.0
C2008 C 0.90323 0.56717 0.06396 0.0
C2009 C 0.85115 0.54956 0.03368 0.0
C2010 C 0.85613 0.56755 0.03933 0.0
C2011 C 0.87312 0.5729 0.04903 0.0
C2012 C 0.84384 0.58099 0.03531 0.0
C2013 C 0.83267 0.54283 0.0242 0.0
C2014 C 0.83815 0.58402 0.01685 0.0
C2015 C 0.82599 0.59617 0.01307 0.0
C2016 C 0.81942 0.60567 0.0277 0.0
C2017 C 0.8256 0.60302 0.04619 0.0
C2018 C 0.83772 0.59079 0.04995 0.0
H2019 H 0.82919 0.52839 0.02552 0.0
H2020 H 0.82188 0.54965 0.03011 0.0
H2021 H 0.83269 0.54535 0.00912 0.0
H2022 H 0.84305 0.57691 0.00533 0.0
H2023 H 0.82165 0.59801 0.99867 0.0
H2024 H 0.0705 0.99181 0.01086 0.0
H2025 H 0.09576 0.97432 0.00935 0.0
H2026 H 0.11823 0.99654 0.06331 0.0
H2027 H 0.0933 0.01449 0.06467 0.0
H2028 H 0.14413 0.99602 0.03953 0.0
H2029 H 0.10275 0.93032 0.03629 0.0
H2030 H 0.09587 0.94386 0.01797 0.0
H2031 H 0.09344 0.95038 0.04188 0.0
C2032 C 0.08079 0.99294 0.02243 0.0
C2033 C 0.07985 0.00448 0.03792 0.0
C2034 C 0.09516 0.98283 0.02161 0.0
C2035 C 0.10869 0.98382 0.03639 0.0
C2036 C 0.10788 0.99547 0.05179 0.0
H2037 H 0.18676 0.90838 0.05019 0.0
H2038 H 0.16174 0.92597 0.05337 0.0
C2039 C 0.09362 0.00572 0.05254 0.0
C2040 C 0.12397 0.97308 0.0356 0.0
H2041 H 0.13378 0.9309 0.02946 0.0
C2042 C 0.14186 0.98177 0.03744 0.0
C2043 C 0.12104 0.95445 0.03318 0.0
C2044 C 0.10225 0.94418 0.03242 0.0
C2045 C 0.15689 0.9724 0.03656 0.0
C2046 C 0.15392 0.95386 0.03322 0.0
C2047 C 0.13604 0.94513 0.03177 0.0
C2048 C 0.16917 0.94325 0.03126 0.0
C2049 C 0.17577 0.98246 0.03956 0.0
C2050 C 0.18151 0.94693 0.01759 0.0
C2051 C 0.19592 0.93701 0.01587 0.0
C2052 C 0.1981 0.92301 0.02757 0.0
C2053 C 0.18548 0.91909 0.04097 0.0
C2054 C 0.17117 0.92913 0.0428 0.0
H2055 H 0.17573 0.99521 0.04748 0.0
H2056 H 0.18526 0.97466 0.04721 0.0
H2057 H 0.18103 0.98542 0.02582 0.0
H2058 H 0.17995 0.95742 0.00817 0.0
H2059 H 0.20528 0.94026 0.00527 0.0
loop_
_geom_bond_atom_site_label_1
_geom_bond_atom_site_label_2
_geom_bond_distance
_geom_bond_site_symmetry_2
_ccdc_geom_bond_type
O0 Cd1 2.300 . S
O0 C7 1.275 . S
Cd1 O0 2.300 . S
Cd1 O9 2.381 . S
Cd1 O10 2.378 . S
O2 Cd3 2.385 . S
O2 C7 1.255 . S
Cd3 O2 2.385 . S
Cd3 O4 2.317 . S
O4 Cd3 2.317 . S
O4 C5 1.232 . S
C5 O4 1.232 . S
C5 O6 1.218 . S
O6 C5 1.218 . S
C7 O0 1.275 . S
C7 O2 1.255 . S
C8 O9 1.258 . S
C8 O10 1.256 . S
O9 Cd1 2.381 . S
O9 C8 1.258 . S
O10 Cd1 2.378 . S
O10 C8 1.256 . S
O11 Cd12 2.300 . S
O11 C18 1.275 . S
Cd12 O11 2.300 . S
Cd12 O20 2.381 . S
Cd12 O21 2.378 . S
O13 Cd14 2.385 . S
O13 C18 1.255 . S
Cd14 O13 2.385 . S
Cd14 O15 2.317 . S
O15 Cd14 2.317 . S
O15 C16 1.232 . S
C16 O15 1.232 . S
C16 O17 1.218 . S
O17 C16 1.218 . S
C18 O11 1.275 . S
C18 O13 1.255 . S
C19 O20 1.258 . S
C19 O21 1.256 . S
O20 Cd12 2.381 . S
O20 C19 1.258 . S
O21 Cd12 2.378 . S
O21 C19 1.256 . S
O22 Cd23 2.300 . S
O22 C29 1.275 . S
Cd23 O22 2.300 . S
Cd23 O31 2.381 . S
Cd23 O32 2.378 . S
O24 Cd25 2.385 . S
O24 C29 1.255 . S
Cd25 O24 2.385 . S
Cd25 O26 2.317 . S
O26 Cd25 2.317 . S
O26 C27 1.232 . S
C27 O26 1.232 . S
C27 O28 1.218 . S
O28 C27 1.218 . S
C29 O22 1.275 . S
C29 O24 1.255 . S
C30 O31 1.258 . S
C30 O32 1.256 . S
O31 Cd23 2.381 . S
O31 C30 1.258 . S
O32 Cd23 2.378 . S
O32 C30 1.256 . S
O33 Cd34 2.300 . S
O33 C40 1.275 . S
Cd34 O33 2.300 . S
Cd34 O42 2.381 . S
Cd34 O43 2.378 . S
O35 Cd36 2.385 . S
O35 C40 1.255 . S
Cd36 O35 2.385 . S
Cd36 O37 2.317 . S
O37 Cd36 2.317 . S
O37 C38 1.232 . S
C38 O37 1.232 . S
C38 O39 1.218 . S
O39 C38 1.218 . S
C40 O33 1.275 . S
C40 O35 1.255 . S
C41 O42 1.258 . S
C41 O43 1.256 . S
O42 Cd34 2.381 . S
O42 C41 1.258 . S
O43 Cd34 2.378 . S
O43 C41 1.256 . S
O44 Cd45 2.300 . S
O44 C51 1.275 . S
Cd45 O44 2.300 . S
Cd45 O53 2.381 . S
Cd45 O54 2.378 . S
O46 Cd47 2.385 . S
O46 C51 1.255 1_545 S
Cd47 O46 2.385 . S
Cd47 O48 2.317 1_545 S
O48 Cd47 2.317 1_565 S
O48 C49 1.232 . S
C49 O48 1.232 . S
C49 O50 1.218 1_565 S
O50 C49 1.218 1_545 S
C51 O44 1.275 . S
C51 O46 1.255 1_565 S
C52 O53 1.258 . S
C52 O54 1.256 . S
O53 Cd45 2.381 . S
O53 C52 1.258 . S
O54 Cd45 2.378 . S
O54 C52 1.256 . S
O55 Cd56 2.300 . S
O55 C62 1.275 . S
Cd56 O55 2.300 . S
Cd56 O64 2.381 . S
Cd56 O65 2.378 . S
O57 Cd58 2.385 . S
O57 C62 1.255 . S
Cd58 O57 2.385 . S
Cd58 O59 2.317 . S
O59 Cd58 2.317 . S
O59 C60 1.232 . S
C60 O59 1.232 . S
C60 O61 1.218 . S
O61 C60 1.218 . S
C62 O55 1.275 . S
C62 O57 1.255 . S
C63 O64 1.258 . S
C63 O65 1.256 . S
O64 Cd56 2.381 . S
O64 C63 1.258 . S
O65 Cd56 2.378 . S
O65 C63 1.256 . S
O66 Cd67 2.300 . S
O66 C73 1.275 . S
Cd67 O66 2.300 . S
Cd67 O75 2.381 . S
Cd67 O76 2.378 . S
O68 Cd69 2.385 1_655 S
O68 C73 1.255 . S
Cd69 O68 2.385 1_455 S
Cd69 O70 2.317 1_455 S
O70 Cd69 2.317 1_655 S
O70 C71 1.232 . S
C71 O70 1.232 . S
C71 O72 1.218 1_655 S
O72 C71 1.218 1_455 S
C73 O66 1.275 . S
C73 O68 1.255 . S
C74 O75 1.258 . S
C74 O76 1.256 . S
O75 Cd67 2.381 . S
O75 C74 1.258 . S
O76 Cd67 2.378 . S
O76 C74 1.256 . S
O77 Cd78 2.300 . S
O77 C84 1.275 . S
Cd78 O77 2.300 . S
Cd78 O86 2.381 . S
Cd78 O87 2.378 . S
O79 Cd80 2.385 . S
O79 C84 1.255 . S
Cd80 O79 2.385 . S
Cd80 O81 2.317 . S
O81 Cd80 2.317 . S
O81 C82 1.232 . S
C82 O81 1.232 . S
C82 O83 1.218 . S
O83 C82 1.218 . S
C84 O77 1.275 . S
C84 O79 1.255 . S
C85 O86 1.258 . S
C85 O87 1.256 . S
O86 Cd78 2.381 . S
O86 C85 1.258 . S
O87 Cd78 2.378 . S
O87 C85 1.256 . S
O88 Cd89 2.300 . S
O88 C95 1.275 . S
Cd89 O88 2.300 . S
Cd89 O97 2.381 . S
Cd89 O98 2.378 . S
O90 Cd91 2.385 . S
O90 C95 1.255 . S
Cd91 O90 2.385 . S
Cd91 O92 2.317 . S
O92 Cd91 2.317 . S
O92 C93 1.232 . S
C93 O92 1.232 . S
C93 O94 1.218 . S
O94 C93 1.218 . S
C95 O88 1.275 . S
C95 O90 1.255 . S
C96 O97 1.258 . S
C96 O98 1.256 . S
O97 Cd89 2.381 . S
O97 C96 1.258 . S
O98 Cd89 2.378 . S
O98 C96 1.256 . S
O99 Cd100 2.300 . S
O99 C106 1.275 . S
Cd100 O99 2.300 . S
Cd100 O108 2.381 1_565 S
Cd100 O109 2.378 1_565 S
O101 Cd102 2.385 . S
O101 C106 1.255 . S
Cd102 O101 2.385 . S
Cd102 O103 2.317 . S
O103 Cd102 2.317 . S
O103 C104 1.232 . S
C104 O103 1.232 . S
C104 O105 1.218 . S
O105 C104 1.218 . S
C106 O99 1.275 . S
C106 O101 1.255 . S
C107 O108 1.258 . S
C107 O109 1.256 . S
O108 Cd100 2.381 1_545 S
O108 C107 1.258 . S
O109 Cd100 2.378 1_545 S
O109 C107 1.256 . S
O110 Cd111 2.300 . S
O110 C117 1.275 . S
Cd111 O110 2.300 . S
Cd111 O119 2.381 . S
Cd111 O120 2.378 . S
O112 Cd113 2.385 . S
O112 C117 1.255 . S
Cd113 O112 2.385 . S
Cd113 O114 2.317 . S
O114 Cd113 2.317 . S
O114 C115 1.232 . S
C115 O114 1.232 . S
C115 O116 1.218 . S
O116 C115 1.218 . S
C117 O110 1.275 . S
C117 O112 1.255 . S
C118 O119 1.258 . S
C118 O120 1.256 . S
O119 Cd111 2.381 . S
O119 C118 1.258 . S
O120 Cd111 2.378 . S
O120 C118 1.256 . S
O121 Cd122 2.300 . S
O121 C128 1.275 . S
Cd122 O121 2.300 . S
Cd122 O130 2.381 . S
Cd122 O131 2.378 . S
O123 Cd124 2.385 . S
O123 C128 1.255 . S
Cd124 O123 2.385 . S
Cd124 O125 2.317 . S
O125 Cd124 2.317 . S
O125 C126 1.232 . S
C126 O125 1.232 . S
C126 O127 1.218 . S
O127 C126 1.218 . S
C128 O121 1.275 . S
C128 O123 1.255 . S
C129 O130 1.258 . S
C129 O131 1.256 . S
O130 Cd122 2.381 . S
O130 C129 1.258 . S
O131 Cd122 2.378 . S
O131 C129 1.256 . S
O132 Cd133 2.300 . S
O132 C139 1.275 . S
Cd133 O132 2.300 . S
Cd133 O141 2.381 . S
Cd133 O142 2.378 . S
O134 Cd135 2.385 . S
O134 C139 1.255 . S
Cd135 O134 2.385 . S
Cd135 O136 2.317 . S
O136 Cd135 2.317 . S
O136 C137 1.232 . S
C137 O136 1.232 . S
C137 O138 1.218 . S
O138 C137 1.218 . S
C139 O132 1.275 . S
C139 O134 1.255 . S
C140 O141 1.258 . S
C140 O142 1.256 . S
O141 Cd133 2.381 . S
O141 C140 1.258 . S
O142 Cd133 2.378 . S
O142 C140 1.256 . S
O143 Cd144 2.300 . S
O143 C150 1.275 . S
Cd144 O143 2.300 . S
Cd144 O152 2.381 1_556 S
Cd144 O153 2.378 1_556 S
O145 Cd146 2.385 . S
O145 C150 1.255 . S
Cd146 O145 2.385 . S
Cd146 O147 2.317 . S
O147 Cd146 2.317 . S
O147 C148 1.232 . S
C148 O147 1.232 . S
C148 O149 1.218 . S
O149 C148 1.218 . S
C150 O143 1.275 . S
C150 O145 1.255 . S
C151 O152 1.258 . S
C151 O153 1.256 . S
O152 Cd144 2.381 1_554 S
O152 C151 1.258 . S
O153 Cd144 2.378 1_554 S
O153 C151 1.256 . S
O154 Cd155 2.300 . S
O154 C161 1.275 . S
Cd155 O154 2.300 . S
Cd155 O163 2.381 . S
Cd155 O164 2.378 . S
O156 Cd157 2.385 . S
O156 C161 1.255 . S
Cd157 O156 2.385 . S
Cd157 O158 2.317 . S
O158 Cd157 2.317 . S
O158 C159 1.232 . S
C159 O158 1.232 . S
C159 O160 1.218 . S
O160 C159 1.218 . S
C161 O154 1.275 . S
C161 O156 1.255 . S
C162 O163 1.258 . S
C162 O164 1.256 . S
O163 Cd155 2.381 . S
O163 C162 1.258 . S
O164 Cd155 2.378 . S
O164 C162 1.256 . S
O165 Cd166 2.300 1_556 S
O165 C172 1.275 . S
Cd166 O165 2.300 1_554 S
Cd166 O174 2.381 1_554 S
Cd166 O175 2.378 . S
O167 Cd168 2.385 1_556 S
O167 C172 1.255 . S
Cd168 O167 2.385 1_554 S
Cd168 O169 2.317 . S
O169 Cd168 2.317 . S
O169 C170 1.232 . S
C170 O169 1.232 . S
C170 O171 1.218 . S
O171 C170 1.218 . S
C172 O165 1.275 . S
C172 O167 1.255 . S
C173 O174 1.258 1_554 S
C173 O175 1.256 . S
O174 Cd166 2.381 1_556 S
O174 C173 1.258 1_556 S
O175 Cd166 2.378 . S
O175 C173 1.256 . S
C176 O177 1.160 . S
C176 O183 1.185 . S
O177 C176 1.160 . S
O178 Zn179 1.899 . S
O178 C186 1.284 1_554 S
Zn179 O178 1.899 . S
Zn179 O180 2.032 . S
Zn179 O183 2.086 . S
Zn179 O188 1.977 . S
O180 Zn179 2.032 . S
O180 C184 1.278 . S
C181 O182 1.203 . S
C181 O188 1.267 . S
O182 C181 1.203 . S
O183 C176 1.185 . S
O183 Zn179 2.086 . S
C184 O180 1.278 . S
C184 O185 1.211 . S
O185 C184 1.211 . S
C186 O178 1.284 1_556 S
C186 O187 1.273 . S
O187 C186 1.273 . S
O188 Zn179 1.977 . S
O188 C181 1.267 . S
C189 O190 1.160 . S
C189 O196 1.185 . S
O190 C189 1.160 . S
O191 Zn192 1.899 . S
O191 C199 1.284 . S
Zn192 O191 1.899 . S
Zn192 O193 2.032 . S
Zn192 O196 2.086 . S
Zn192 O201 1.977 . S
O193 Zn192 2.032 . S
O193 C197 1.278 . S
C194 O195 1.203 . S
C194 O201 1.267 . S
O195 C194 1.203 . S
O196 C189 1.185 . S
O196 Zn192 2.086 . S
C197 O193 1.278 . S
C197 O198 1.211 . S
O198 C197 1.211 . S
C199 O191 1.284 . S
C199 O200 1.273 . S
O200 C199 1.273 . S
O201 Zn192 1.977 . S
O201 C194 1.267 . S
C202 O203 1.160 1_554 S
C202 O209 1.185 . S
O203 C202 1.160 1_556 S
O204 Zn205 1.899 1_556 S
O204 C212 1.284 . S
Zn205 O204 1.899 1_554 S
Zn205 O206 2.032 . S
Zn205 O209 2.086 . S
Zn205 O214 1.977 . S
O206 Zn205 2.032 . S
O206 C210 1.278 . S
C207 O208 1.203 . S
C207 O214 1.267 . S
O208 C207 1.203 . S
O209 C202 1.185 . S
O209 Zn205 2.086 . S
C210 O206 1.278 . S
C210 O211 1.211 . S
O211 C210 1.211 . S
C212 O204 1.284 . S
C212 O213 1.273 . S
O213 C212 1.273 . S
O214 Zn205 1.977 . S
O214 C207 1.267 . S
C215 O216 1.160 . S
C215 O222 1.185 . S
O216 C215 1.160 . S
O217 Zn218 1.899 . S
O217 C225 1.284 . S
Zn218 O217 1.899 . S
Zn218 O219 2.032 . S
Zn218 O222 2.086 . S
Zn218 O227 1.977 . S
O219 Zn218 2.032 . S
O219 C223 1.285 . S
C220 O221 1.203 . S
C220 O227 1.267 . S
O221 C220 1.203 . S
O222 C215 1.185 . S
O222 Zn218 2.086 . S
C223 O219 1.285 . S
C223 O224 1.208 1_545 S
O224 C223 1.208 1_565 S
C225 O217 1.284 . S
C225 O226 1.273 . S
O226 C225 1.273 . S
O227 Zn218 1.977 . S
O227 C220 1.267 . S
C228 O229 1.160 . S
C228 O235 1.185 . S
O229 C228 1.160 . S
O230 Zn231 1.899 . S
O230 C238 1.284 . S
Zn231 O230 1.899 . S
Zn231 O232 2.032 . S
Zn231 O235 2.086 . S
Zn231 O240 1.977 . S
O232 Zn231 2.032 . S
O232 C236 1.278 . S
C233 O234 1.203 . S
C233 O240 1.267 . S
O234 C233 1.203 . S
O235 C228 1.185 . S
O235 Zn231 2.086 . S
C236 O232 1.278 . S
C236 O237 1.211 . S
O237 C236 1.211 . S
C238 O230 1.284 . S
C238 O239 1.273 . S
O239 C238 1.273 . S
O240 Zn231 1.977 . S
O240 C233 1.267 . S
C241 O242 1.160 . S
C241 O248 1.185 . S
O242 C241 1.160 . S
O243 Zn244 1.899 . S
O243 C251 1.284 . S
Zn244 O243 1.899 . S
Zn244 O245 2.032 . S
Zn244 O248 2.086 . S
Zn244 O253 1.977 . S
O245 Zn244 2.032 . S
O245 C249 1.278 . S
C246 O247 1.203 . S
C246 O253 1.267 . S
O247 C246 1.203 . S
O248 C241 1.185 . S
O248 Zn244 2.086 . S
C249 O245 1.278 . S
C249 O250 1.211 . S
O250 C249 1.211 . S
C251 O243 1.284 . S
C251 O252 1.273 . S
O252 C251 1.273 . S
O253 Zn244 1.977 . S
O253 C246 1.267 . S
C254 O255 1.160 . S
C254 O261 1.185 . S
O255 C254 1.160 . S
O256 Zn257 1.899 . S
O256 C264 1.284 . S
Zn257 O256 1.899 . S
Zn257 O258 2.032 . S
Zn257 O261 2.086 . S
Zn257 O266 1.977 . S
O258 Zn257 2.032 . S
O258 C262 1.278 . S
C259 O260 1.203 . S
C259 O266 1.267 . S
O260 C259 1.203 . S
O261 C254 1.185 . S
O261 Zn257 2.086 . S
C262 O258 1.278 . S
C262 O263 1.211 . S
O263 C262 1.211 . S
C264 O256 1.284 . S
C264 O265 1.273 . S
O265 C264 1.273 . S
O266 Zn257 1.977 . S
O266 C259 1.267 . S
C267 O268 1.160 . S
C267 O274 1.185 . S
O268 C267 1.160 . S
O269 Zn270 1.899 . S
O269 C277 1.284 1_565 S
Zn270 O269 1.899 . S
Zn270 O271 2.032 1_565 S
Zn270 O274 2.086 . S
Zn270 O279 1.977 . S
O271 Zn270 2.032 1_545 S
O271 C275 1.278 . S
C272 O273 1.203 1_565 S
C272 O279 1.267 . S
O273 C272 1.203 1_545 S
O274 C267 1.185 . S
O274 Zn270 2.086 . S
C275 O271 1.278 . S
C275 O276 1.211 . S
O276 C275 1.211 . S
C277 O269 1.284 1_545 S
C277 O278 1.273 . S
O278 C277 1.273 . S
O279 Zn270 1.977 . S
O279 C272 1.267 . S
C280 O281 1.160 1_455 S
C280 O287 1.185 . S
O281 C280 1.160 1_655 S
O282 Zn283 1.899 1_655 S
O282 C290 1.284 . S
Zn283 O282 1.899 1_455 S
Zn283 O284 2.032 . S
Zn283 O287 2.086 . S
Zn283 O292 1.977 . S
O284 Zn283 2.032 . S
O284 C288 1.278 . S
C285 O286 1.203 . S
C285 O292 1.267 . S
O286 C285 1.203 . S
O287 C280 1.185 . S
O287 Zn283 2.086 . S
C288 O284 1.278 . S
C288 O289 1.211 . S
O289 C288 1.211 . S
C290 O282 1.284 . S
C290 O291 1.273 . S
O291 C290 1.273 . S
O292 Zn283 1.977 . S
O292 C285 1.267 . S
C293 O294 1.160 . S
C293 O300 1.185 . S
O294 C293 1.160 . S
O295 Zn296 1.899 . S
O295 C303 1.284 . S
Zn296 O295 1.899 . S
Zn296 O297 2.032 . S
Zn296 O300 2.086 . S
Zn296 O305 1.977 . S
O297 Zn296 2.032 . S
O297 C301 1.278 . S
C298 O299 1.203 . S
C298 O305 1.267 . S
O299 C298 1.203 . S
O300 C293 1.185 . S
O300 Zn296 2.086 . S
C301 O297 1.278 . S
C301 O302 1.211 . S
O302 C301 1.211 . S
C303 O295 1.284 . S
C303 O304 1.273 . S
O304 C303 1.273 . S
O305 Zn296 1.977 . S
O305 C298 1.267 . S
C306 O307 1.160 . S
C306 O313 1.185 . S
O307 C306 1.160 . S
O308 Zn309 1.899 . S
O308 C316 1.284 1_455 S
Zn309 O308 1.899 . S
Zn309 O310 2.032 . S
Zn309 O313 2.086 . S
Zn309 O318 1.977 . S
O310 Zn309 2.032 . S
O310 C314 1.278 . S
C311 O312 1.203 . S
C311 O318 1.267 . S
O312 C311 1.203 . S
O313 C306 1.185 . S
O313 Zn309 2.086 . S
C314 O310 1.278 . S
C314 O315 1.211 . S
O315 C314 1.211 . S
C316 O308 1.284 1_655 S
C316 O317 1.273 . S
O317 C316 1.273 . S
O318 Zn309 1.977 . S
O318 C311 1.267 . S
C319 O320 1.160 . S
C319 O326 1.185 . S
O320 C319 1.160 . S
O321 Zn322 1.899 . S
O321 C329 1.284 . S
Zn322 O321 1.899 . S
Zn322 O323 2.032 . S
Zn322 O326 2.086 . S
Zn322 O331 1.977 . S
O323 Zn322 2.032 . S
O323 C327 1.278 . S
C324 O325 1.203 . S
C324 O331 1.267 . S
O325 C324 1.203 . S
O326 C319 1.185 . S
O326 Zn322 2.086 . S
C327 O323 1.278 . S
C327 O328 1.211 . S
O328 C327 1.211 . S
C329 O321 1.284 . S
C329 O330 1.273 . S
O330 C329 1.273 . S
O331 Zn322 1.977 . S
O331 C324 1.267 . S
H332 C340 0.929 . S
H333 C342 0.930 . S
H334 C344 0.930 . S
H335 C347 0.929 . S
H336 C350 0.930 . S
H337 C352 0.960 . S
H338 C352 0.960 . S
H339 C352 0.960 . S
C340 H332 0.929 . S
C340 C341 1.377 . S
C340 C342 1.384 . S
C341 C340 1.377 . S
C341 C347 1.390 . S
C342 H333 0.930 . S
C342 C340 1.384 . S
C342 C343 1.372 . S
C343 C342 1.372 . S
C343 C344 1.400 . S
C343 C348 1.490 . S
C344 H334 0.930 . S
C344 C343 1.400 . S
C344 C347 1.386 . S
H345 C361 0.930 . S
H346 C362 0.931 . S
C347 H335 0.929 . S
C347 C341 1.390 . S
C347 C344 1.386 . S
C348 C343 1.490 . S
C348 C350 1.395 . S
C348 C351 1.403 . S
H349 C355 0.930 . S
C350 H336 0.930 . S
C350 C348 1.395 . S
C350 C353 1.403 . S
C351 C348 1.403 . S
C351 C352 1.524 . S
C351 C355 1.400 . S
C352 H337 0.960 . S
C352 H338 0.960 . S
C352 H339 0.960 . S
C352 C351 1.524 . S
C353 C350 1.403 . S
C353 C354 1.392 . S
C353 C357 1.495 . S
C354 C353 1.392 . S
C354 C355 1.385 . S
C354 C356 1.478 . S
C355 H349 0.930 . S
C355 C351 1.400 . S
C355 C354 1.385 . S
C356 C354 1.478 . S
C356 C358 1.381 . S
C356 C362 1.383 . S
C357 C353 1.495 . S
C357 H363 0.959 . S
C357 H364 0.961 . S
C357 H365 0.960 . S
C358 C356 1.381 . S
C358 C359 1.394 . S
C358 H366 0.930 . S
C359 C358 1.394 . S
C359 C360 1.383 . S
C359 H367 0.929 . S
C360 C359 1.383 . S
C360 C361 1.377 . S
C361 H345 0.930 . S
C361 C360 1.377 . S
C361 C362 1.379 . S
C362 H346 0.931 . S
C362 C356 1.383 . S
C362 C361 1.379 . S
H363 C357 0.959 . S
H364 C357 0.961 . S
H365 C357 0.960 . S
H366 C358 0.930 . S
H367 C359 0.929 . S
H368 C376 0.929 . S
H369 C378 0.930 . S
H370 C380 0.930 . S
H371 C383 0.917 1_655 S
H372 C386 0.930 . S
H373 C388 0.960 . S
H374 C388 0.960 . S
H375 C388 0.960 . S
C376 H368 0.929 . S
C376 C377 1.377 . S
C376 C378 1.384 . S
C377 C376 1.377 . S
C377 C383 1.390 . S
C378 H369 0.930 . S
C378 C376 1.384 . S
C378 C379 1.372 . S
C379 C378 1.372 . S
C379 C380 1.400 . S
C379 C384 1.490 . S
C380 H370 0.930 . S
C380 C379 1.400 . S
C380 C383 1.398 . S
H381 C397 0.930 . S
H382 C398 0.931 . S
C383 H371 0.917 1_455 S
C383 C377 1.390 . S
C383 C380 1.398 . S
C384 C379 1.490 . S
C384 C386 1.395 . S
C384 C387 1.403 . S
H385 C391 0.930 . S
C386 H372 0.930 . S
C386 C384 1.395 . S
C386 C389 1.403 . S
C387 C384 1.403 . S
C387 C388 1.524 . S
C387 C391 1.400 . S
C388 H373 0.960 . S
C388 H374 0.960 . S
C388 H375 0.960 . S
C388 C387 1.524 . S
C389 C386 1.403 . S
C389 C390 1.392 . S
C389 C393 1.495 . S
C390 C389 1.392 . S
C390 C391 1.385 . S
C390 C392 1.478 . S
C391 H385 0.930 . S
C391 C387 1.400 . S
C391 C390 1.385 . S
C392 C390 1.478 . S
C392 C394 1.381 . S
C392 C398 1.383 . S
C393 C389 1.495 . S
C393 H399 0.959 . S
C393 H400 0.961 . S
C393 H401 0.960 . S
C394 C392 1.381 . S
C394 C395 1.394 . S
C394 H402 0.930 . S
C395 C394 1.394 . S
C395 C396 1.383 . S
C395 H403 0.929 . S
C396 C395 1.383 . S
C396 C397 1.377 . S
C397 H381 0.930 . S
C397 C396 1.377 . S
C397 C398 1.379 . S
C398 H382 0.931 . S
C398 C392 1.383 . S
C398 C397 1.379 . S
H399 C393 0.959 . S
H400 C393 0.961 . S
H401 C393 0.960 . S
H402 C394 0.930 . S
H403 C395 0.929 . S
H404 C412 0.929 . S
H405 C414 0.930 . S
H406 C416 0.930 . S
H407 C419 0.929 . S
H408 C422 0.930 . S
H409 C424 0.960 . S
H410 C424 0.960 . S
H411 C424 0.960 . S
C412 H404 0.929 . S
C412 C413 1.377 . S
C412 C414 1.384 . S
C413 C412 1.377 . S
C413 C419 1.390 . S
C414 H405 0.930 . S
C414 C412 1.384 . S
C414 C415 1.372 . S
C415 C414 1.372 . S
C415 C416 1.400 . S
C415 C420 1.490 . S
C416 H406 0.930 . S
C416 C415 1.400 . S
C416 C419 1.386 . S
H417 C433 0.930 . S
H418 C434 0.931 . S
C419 H407 0.929 . S
C419 C413 1.390 . S
C419 C416 1.386 . S
C420 C415 1.490 . S
C420 C422 1.395 . S
C420 C423 1.403 . S
H421 C427 0.930 . S
C422 H408 0.930 . S
C422 C420 1.395 . S
C422 C425 1.403 . S
C423 C420 1.403 . S
C423 C424 1.524 . S
C423 C427 1.400 . S
C424 H409 0.960 . S
C424 H410 0.960 . S
C424 H411 0.960 . S
C424 C423 1.524 . S
C425 C422 1.403 . S
C425 C426 1.392 . S
C425 C429 1.495 . S
C426 C425 1.392 . S
C426 C427 1.385 . S
C426 C428 1.478 . S
C427 H421 0.930 . S
C427 C423 1.400 . S
C427 C426 1.385 . S
C428 C426 1.478 . S
C428 C430 1.381 . S
C428 C434 1.383 . S
C429 C425 1.495 . S
C429 H435 0.959 . S
C429 H436 0.961 . S
C429 H437 0.960 . S
C430 C428 1.381 . S
C430 C431 1.394 . S
C430 H438 0.930 . S
C431 C430 1.394 . S
C431 C432 1.383 . S
C431 H439 0.929 . S
C432 C431 1.383 . S
C432 C433 1.377 . S
C433 H417 0.930 . S
C433 C432 1.377 . S
C433 C434 1.379 . S
C434 H418 0.931 . S
C434 C428 1.383 . S
C434 C433 1.379 . S
H435 C429 0.959 . S
H436 C429 0.961 . S
H437 C429 0.960 . S
H438 C430 0.930 . S
H439 C431 0.929 . S
H440 C448 0.929 . S
H441 C450 0.930 . S
H442 C452 0.933 . S
H443 C455 0.929 . S
H444 C458 0.930 . S
H445 C460 0.960 . S
H446 C460 0.960 1_565 S
H447 C460 0.960 1_455 S
C448 H440 0.929 . S
C448 C449 1.377 1_655 S
C448 C450 1.384 . S
C449 C448 1.377 1_455 S
C449 C455 1.390 1_565 S
C450 H441 0.930 . S
C450 C448 1.384 . S
C450 C451 1.364 1_565 S
C451 C450 1.364 1_545 S
C451 C452 1.371 1_655 S
C451 C456 1.493 . S
C452 H442 0.933 . S
C452 C451 1.371 1_455 S
C452 C455 1.419 . S
H453 C469 0.930 . S
H454 C470 0.931 . S
C455 H443 0.929 . S
C455 C449 1.390 1_545 S
C455 C452 1.419 . S
C456 C451 1.493 . S
C456 C458 1.395 . S
C456 C459 1.403 . S
H457 C463 0.930 . S
C458 H444 0.930 . S
C458 C456 1.395 . S
C458 C461 1.403 . S
C459 C456 1.403 . S
C459 C460 1.524 . S
C459 C463 1.400 . S
C460 H445 0.960 . S
C460 H446 0.960 1_545 S
C460 H447 0.960 1_655 S
C460 C459 1.524 . S
C461 C458 1.403 . S
C461 C462 1.392 . S
C461 C465 1.495 . S
C462 C461 1.392 . S
C462 C463 1.385 . S
C462 C464 1.478 . S
C463 H457 0.930 . S
C463 C459 1.400 . S
C463 C462 1.385 . S
C464 C462 1.478 . S
C464 C466 1.381 . S
C464 C470 1.383 . S
C465 C461 1.495 . S
C465 H471 0.959 . S
C465 H472 0.961 . S
C465 H473 0.958 1_545 S
C466 C464 1.381 . S
C466 C467 1.394 . S
C466 H474 0.930 1_545 S
C467 C466 1.394 . S
C467 C468 1.383 . S
C467 H475 0.929 1_545 S
C468 C467 1.383 . S
C468 C469 1.377 . S
C469 H453 0.930 . S
C469 C468 1.377 . S
C469 C470 1.379 . S
C470 H454 0.931 . S
C470 C464 1.383 . S
C470 C469 1.379 . S
H471 C465 0.959 . S
H472 C465 0.961 . S
H473 C465 0.958 1_565 S
H474 C466 0.930 1_565 S
H475 C467 0.929 1_565 S
H476 C484 0.929 . S
H477 C486 0.930 . S
H478 C488 0.930 . S
H479 C491 0.929 . S
H480 C494 0.930 . S
H481 C496 0.960 . S
H482 C496 0.960 . S
H483 C496 0.960 . S
C484 H476 0.929 . S
C484 C485 1.377 . S
C484 C486 1.384 . S
C485 C484 1.377 . S
C485 C491 1.390 . S
C486 H477 0.930 . S
C486 C484 1.384 . S
C486 C487 1.372 . S
C487 C486 1.372 . S
C487 C488 1.400 . S
C487 C492 1.490 . S
C488 H478 0.930 . S
C488 C487 1.400 . S
C488 C491 1.386 . S
H489 C505 0.930 . S
H490 C506 0.931 . S
C491 H479 0.929 . S
C491 C485 1.390 . S
C491 C488 1.386 . S
C492 C487 1.490 . S
C492 C494 1.395 . S
C492 C495 1.403 . S
H493 C499 0.930 . S
C494 H480 0.930 . S
C494 C492 1.395 . S
C494 C497 1.403 . S
C495 C492 1.403 . S
C495 C496 1.524 . S
C495 C499 1.400 . S
C496 H481 0.960 . S
C496 H482 0.960 . S
C496 H483 0.960 . S
C496 C495 1.524 . S
C497 C494 1.403 . S
C497 C498 1.392 . S
C497 C501 1.495 . S
C498 C497 1.392 . S
C498 C499 1.385 . S
C498 C500 1.478 . S
C499 H493 0.930 . S
C499 C495 1.400 . S
C499 C498 1.385 . S
C500 C498 1.478 . S
C500 C502 1.381 . S
C500 C506 1.383 . S
C501 C497 1.495 . S
C501 H507 0.959 . S
C501 H508 0.961 . S
C501 H509 0.960 . S
C502 C500 1.381 . S
C502 C503 1.394 . S
C502 H510 0.930 . S
C503 C502 1.394 . S
C503 C504 1.383 . S
C503 H511 0.929 . S
C504 C503 1.383 . S
C504 C505 1.377 . S
C505 H489 0.930 . S
C505 C504 1.377 . S
C505 C506 1.379 . S
C506 H490 0.931 . S
C506 C500 1.383 . S
C506 C505 1.379 . S
H507 C501 0.959 . S
H508 C501 0.961 . S
H509 C501 0.960 . S
H510 C502 0.930 . S
H511 C503 0.929 . S
H512 C520 0.929 . S
H513 C522 0.930 . S
H514 C524 0.930 . S
H515 C527 0.929 . S
H516 C530 0.930 . S
H517 C532 0.960 . S
H518 C532 0.960 . S
H519 C532 0.960 . S
C520 H512 0.929 . S
C520 C521 1.377 . S
C520 C522 1.384 . S
C521 C520 1.377 . S
C521 C527 1.390 . S
C522 H513 0.930 . S
C522 C520 1.384 . S
C522 C523 1.372 . S
C523 C522 1.372 . S
C523 C524 1.400 . S
C523 C528 1.490 . S
C524 H514 0.930 . S
C524 C523 1.400 . S
C524 C527 1.386 . S
H525 C541 0.930 . S
H526 C542 0.931 . S
C527 H515 0.929 . S
C527 C521 1.390 . S
C527 C524 1.386 . S
C528 C523 1.490 . S
C528 C530 1.395 . S
C528 C531 1.403 . S
H529 C535 0.930 . S
C530 H516 0.930 . S
C530 C528 1.395 . S
C530 C533 1.403 . S
C531 C528 1.403 . S
C531 C532 1.524 . S
C531 C535 1.400 . S
C532 H517 0.960 . S
C532 H518 0.960 . S
C532 H519 0.960 . S
C532 C531 1.524 . S
C533 C530 1.403 . S
C533 C534 1.392 . S
C533 C537 1.495 . S
C534 C533 1.392 . S
C534 C535 1.385 . S
C534 C536 1.478 . S
C535 H529 0.930 . S
C535 C531 1.400 . S
C535 C534 1.385 . S
C536 C534 1.478 . S
C536 C538 1.381 . S
C536 C542 1.383 . S
C537 C533 1.495 . S
C537 H543 0.959 . S
C537 H544 0.961 . S
C537 H545 0.960 . S
C538 C536 1.381 . S
C538 C539 1.394 . S
C538 H546 0.930 . S
C539 C538 1.394 . S
C539 C540 1.383 . S
C539 H547 0.929 . S
C540 C539 1.383 . S
C540 C541 1.377 . S
C541 H525 0.930 . S
C541 C540 1.377 . S
C541 C542 1.379 . S
C542 H526 0.931 . S
C542 C536 1.383 . S
C542 C541 1.379 . S
H543 C537 0.959 . S
H544 C537 0.961 . S
H545 C537 0.960 . S
H546 C538 0.930 . S
H547 C539 0.929 . S
H548 C556 0.929 . S
H549 C558 0.930 . S
H550 C560 0.930 . S
H551 C563 0.929 . S
H552 C566 0.930 . S
H553 C568 0.960 . S
H554 C568 0.960 . S
H555 C568 0.960 . S
C556 H548 0.929 . S
C556 C557 1.377 . S
C556 C558 1.384 . S
C557 C556 1.377 . S
C557 C563 1.390 . S
C558 H549 0.930 . S
C558 C556 1.384 . S
C558 C559 1.372 . S
C559 C558 1.372 . S
C559 C560 1.400 . S
C559 C564 1.490 . S
C560 H550 0.930 . S
C560 C559 1.400 . S
C560 C563 1.386 . S
H561 C577 0.930 . S
H562 C578 0.931 . S
C563 H551 0.929 . S
C563 C557 1.390 . S
C563 C560 1.386 . S
C564 C559 1.490 . S
C564 C566 1.395 . S
C564 C567 1.403 . S
H565 C571 0.930 . S
C566 H552 0.930 . S
C566 C564 1.395 . S
C566 C569 1.403 . S
C567 C564 1.403 . S
C567 C568 1.524 . S
C567 C571 1.400 . S
C568 H553 0.960 . S
C568 H554 0.960 . S
C568 H555 0.960 . S
C568 C567 1.524 . S
C569 C566 1.403 . S
C569 C570 1.392 . S
C569 C573 1.495 . S
C570 C569 1.392 . S
C570 C571 1.385 . S
C570 C572 1.478 . S
C571 H565 0.930 . S
C571 C567 1.400 . S
C571 C570 1.385 . S
C572 C570 1.478 . S
C572 C574 1.381 . S
C572 C578 1.383 . S
C573 C569 1.495 . S
C573 H579 0.959 . S
C573 H580 0.961 . S
C573 H581 0.960 . S
C574 C572 1.381 . S
C574 C575 1.394 . S
C574 H582 0.930 . S
C575 C574 1.394 . S
C575 C576 1.383 . S
C575 H583 0.929 . S
C576 C575 1.383 . S
C576 C577 1.377 . S
C577 H561 0.930 . S
C577 C576 1.377 . S
C577 C578 1.379 . S
C578 H562 0.931 . S
C578 C572 1.383 . S
C578 C577 1.379 . S
H579 C573 0.959 . S
H580 C573 0.961 . S
H581 C573 0.960 . S
H582 C574 0.930 . S
H583 C575 0.929 . S
H584 C592 0.929 . S
H585 C594 0.930 . S
H586 C596 0.955 . S
H587 C599 0.929 . S
H588 C602 0.930 . S
H589 C604 0.960 . S
H590 C604 0.960 . S
H591 C604 0.960 . S
C592 H584 0.929 . S
C592 C593 1.377 . S
C592 C594 1.384 . S
C593 C592 1.377 . S
C593 C599 1.390 . S
C594 H585 0.930 . S
C594 C592 1.384 . S
C594 C595 1.372 . S
C595 C594 1.372 . S
C595 C596 1.400 . S
C595 C600 1.490 . S
C596 H586 0.955 . S
C596 C595 1.400 . S
C596 C599 1.386 . S
H597 C613 0.930 1_545 S
H598 C614 0.934 . S
C599 H587 0.929 . S
C599 C593 1.390 . S
C599 C596 1.386 . S
C600 C595 1.490 . S
C600 C602 1.395 . S
C600 C603 1.403 1_565 S
H601 C607 0.930 . S
C602 H588 0.930 . S
C602 C600 1.395 . S
C602 C605 1.403 . S
C603 C600 1.403 1_545 S
C603 C604 1.524 . S
C603 C607 1.400 . S
C604 H589 0.960 . S
C604 H590 0.960 . S
C604 H591 0.960 . S
C604 C603 1.524 . S
C605 C602 1.403 . S
C605 C606 1.392 . S
C605 C609 1.495 . S
C606 C605 1.392 . S
C606 C607 1.385 1_565 S
C606 C608 1.478 . S
C607 H601 0.930 . S
C607 C603 1.400 . S
C607 C606 1.385 1_545 S
C608 C606 1.478 . S
C608 C610 1.381 . S
C608 C614 1.383 . S
C609 C605 1.495 . S
C609 H615 0.959 . S
C609 H616 0.961 . S
C609 H617 0.960 . S
C610 C608 1.381 . S
C610 C611 1.394 . S
C610 H618 0.930 . S
C611 C610 1.394 . S
C611 C612 1.383 . S
C611 H619 0.929 . S
C612 C611 1.383 . S
C612 C613 1.377 . S
C613 H597 0.930 1_565 S
C613 C612 1.377 . S
C613 C614 1.379 . S
C614 H598 0.934 . S
C614 C608 1.383 . S
C614 C613 1.379 . S
H615 C609 0.959 . S
H616 C609 0.961 . S
H617 C609 0.960 . S
H618 C610 0.930 . S
H619 C611 0.929 . S
H620 C628 0.929 . S
H621 C630 0.930 . S
H622 C632 0.930 . S
H623 C635 0.929 . S
H624 C638 0.930 . S
H625 C640 0.960 . S
H626 C640 0.960 . S
H627 C640 0.960 . S
C628 H620 0.929 . S
C628 C629 1.377 . S
C628 C630 1.384 . S
C629 C628 1.377 . S
C629 C635 1.390 . S
C630 H621 0.930 . S
C630 C628 1.384 . S
C630 C631 1.372 . S
C631 C630 1.372 . S
C631 C632 1.400 . S
C631 C636 1.490 . S
C632 H622 0.930 . S
C632 C631 1.400 . S
C632 C635 1.386 . S
H633 C649 0.930 . S
H634 C650 0.931 . S
C635 H623 0.929 . S
C635 C629 1.390 . S
C635 C632 1.386 . S
C636 C631 1.490 . S
C636 C638 1.395 . S
C636 C639 1.403 . S
H637 C643 0.930 . S
C638 H624 0.930 . S
C638 C636 1.395 . S
C638 C641 1.403 . S
C639 C636 1.403 . S
C639 C640 1.524 . S
C639 C643 1.400 . S
C640 H625 0.960 . S
C640 H626 0.960 . S
C640 H627 0.960 . S
C640 C639 1.524 . S
C641 C638 1.403 . S
C641 C642 1.392 . S
C641 C645 1.495 . S
C642 C641 1.392 . S
C642 C643 1.385 . S
C642 C644 1.478 . S
C643 H637 0.930 . S
C643 C639 1.400 . S
C643 C642 1.385 . S
C644 C642 1.478 . S
C644 C646 1.381 . S
C644 C650 1.383 . S
C645 C641 1.495 . S
C645 H651 0.959 . S
C645 H652 0.961 . S
C645 H653 0.960 . S
C646 C644 1.381 . S
C646 C647 1.394 . S
C646 H654 0.930 . S
C647 C646 1.394 . S
C647 C648 1.383 . S
C647 H655 0.929 . S
C648 C647 1.383 . S
C648 C649 1.377 . S
C649 H633 0.930 . S
C649 C648 1.377 . S
C649 C650 1.379 . S
C650 H634 0.931 . S
C650 C644 1.383 . S
C650 C649 1.379 . S
H651 C645 0.959 . S
H652 C645 0.961 . S
H653 C645 0.960 . S
H654 C646 0.930 . S
H655 C647 0.929 . S
H656 C664 0.929 . S
H657 C666 0.930 . S
H658 C668 0.930 . S
H659 C671 0.929 . S
H660 C674 0.930 . S
H661 C676 0.960 . S
H662 C676 0.960 . S
H663 C676 0.960 . S
C664 H656 0.929 . S
C664 C665 1.377 . S
C664 C666 1.384 . S
C665 C664 1.377 . S
C665 C671 1.390 . S
C666 H657 0.930 . S
C666 C664 1.384 . S
C666 C667 1.372 . S
C667 C666 1.372 . S
C667 C668 1.400 . S
C667 C672 1.490 . S
C668 H658 0.930 . S
C668 C667 1.400 . S
C668 C671 1.386 . S
H669 C685 0.930 . S
H670 C686 0.931 . S
C671 H659 0.929 . S
C671 C665 1.390 . S
C671 C668 1.386 . S
C672 C667 1.490 . S
C672 C674 1.395 . S
C672 C675 1.403 . S
H673 C679 0.930 . S
C674 H660 0.930 . S
C674 C672 1.395 . S
C674 C677 1.403 . S
C675 C672 1.403 . S
C675 C676 1.524 . S
C675 C679 1.400 . S
C676 H661 0.960 . S
C676 H662 0.960 . S
C676 H663 0.960 . S
C676 C675 1.524 . S
C677 C674 1.403 . S
C677 C678 1.392 . S
C677 C681 1.495 . S
C678 C677 1.392 . S
C678 C679 1.385 . S
C678 C680 1.478 . S
C679 H673 0.930 . S
C679 C675 1.400 . S
C679 C678 1.385 . S
C680 C678 1.478 . S
C680 C682 1.381 . S
C680 C686 1.383 . S
C681 C677 1.495 . S
C681 H687 0.959 . S
C681 H688 0.961 . S
C681 H689 0.960 . S
C682 C680 1.381 . S
C682 C683 1.394 . S
C682 H690 0.930 . S
C683 C682 1.394 . S
C683 C684 1.383 . S
C683 H691 0.929 . S
C684 C683 1.383 . S
C684 C685 1.377 . S
C685 H669 0.930 . S
C685 C684 1.377 . S
C685 C686 1.379 . S
C686 H670 0.931 . S
C686 C680 1.383 . S
C686 C685 1.379 . S
H687 C681 0.959 . S
H688 C681 0.961 . S
H689 C681 0.960 . S
H690 C682 0.930 . S
H691 C683 0.929 . S
H692 C700 0.929 . S
H693 C702 0.930 . S
H694 C704 0.930 . S
H695 C707 0.929 . S
H696 C710 0.930 . S
H697 C712 0.960 . S
H698 C712 0.960 . S
H699 C712 0.960 . S
C700 H692 0.929 . S
C700 C701 1.377 . S
C700 C702 1.384 . S
C701 C700 1.377 . S
C701 C707 1.390 . S
C702 H693 0.930 . S
C702 C700 1.384 . S
C702 C703 1.372 . S
C703 C702 1.372 . S
C703 C704 1.400 . S
C703 C708 1.490 . S
C704 H694 0.930 . S
C704 C703 1.400 . S
C704 C707 1.386 . S
H705 C721 0.930 . S
H706 C722 0.931 . S
C707 H695 0.929 . S
C707 C701 1.390 . S
C707 C704 1.386 . S
C708 C703 1.490 . S
C708 C710 1.395 . S
C708 C711 1.403 . S
H709 C715 0.930 . S
C710 H696 0.930 . S
C710 C708 1.395 . S
C710 C713 1.403 . S
C711 C708 1.403 . S
C711 C712 1.524 . S
C711 C715 1.400 . S
C712 H697 0.960 . S
C712 H698 0.960 . S
C712 H699 0.960 . S
C712 C711 1.524 . S
C713 C710 1.403 . S
C713 C714 1.392 . S
C713 C717 1.495 . S
C714 C713 1.392 . S
C714 C715 1.385 . S
C714 C716 1.478 . S
C715 H709 0.930 . S
C715 C711 1.400 . S
C715 C714 1.385 . S
C716 C714 1.478 . S
C716 C718 1.381 . S
C716 C722 1.383 . S
C717 C713 1.495 . S
C717 H723 0.959 . S
C717 H724 0.961 . S
C717 H725 0.960 . S
C718 C716 1.381 . S
C718 C719 1.394 . S
C718 H726 0.930 . S
C719 C718 1.394 . S
C719 C720 1.383 . S
C719 H727 0.929 . S
C720 C719 1.383 . S
C720 C721 1.377 . S
C721 H705 0.930 . S
C721 C720 1.377 . S
C721 C722 1.379 . S
C722 H706 0.931 . S
C722 C716 1.383 . S
C722 C721 1.379 . S
H723 C717 0.959 . S
H724 C717 0.961 . S
H725 C717 0.960 . S
H726 C718 0.930 . S
H727 C719 0.929 . S
H728 C736 0.929 . S
H729 C738 0.930 . S
H730 C740 0.930 . S
H731 C743 0.929 . S
H732 C746 0.930 . S
H733 C748 0.960 . S
H734 C748 0.960 . S
H735 C748 0.960 . S
C736 H728 0.929 . S
C736 C737 1.377 . S
C736 C738 1.384 . S
C737 C736 1.377 . S
C737 C743 1.390 . S
C738 H729 0.930 . S
C738 C736 1.384 . S
C738 C739 1.372 . S
C739 C738 1.372 . S
C739 C740 1.400 . S
C739 C744 1.490 . S
C740 H730 0.930 . S
C740 C739 1.400 . S
C740 C743 1.386 . S
H741 C757 0.930 . S
H742 C758 0.931 . S
C743 H731 0.929 . S
C743 C737 1.390 . S
C743 C740 1.386 . S
C744 C739 1.490 . S
C744 C746 1.395 . S
C744 C747 1.403 . S
H745 C751 0.930 . S
C746 H732 0.930 . S
C746 C744 1.395 . S
C746 C749 1.403 . S
C747 C744 1.403 . S
C747 C748 1.524 . S
C747 C751 1.400 . S
C748 H733 0.960 . S
C748 H734 0.960 . S
C748 H735 0.960 . S
C748 C747 1.524 . S
C749 C746 1.403 . S
C749 C750 1.392 . S
C749 C753 1.495 . S
C750 C749 1.392 . S
C750 C751 1.385 . S
C750 C752 1.478 . S
C751 H745 0.930 . S
C751 C747 1.400 . S
C751 C750 1.385 . S
C752 C750 1.478 . S
C752 C754 1.381 . S
C752 C758 1.383 . S
C753 C749 1.495 . S
C753 H759 0.959 . S
C753 H760 0.961 . S
C753 H761 0.960 . S
C754 C752 1.381 . S
C754 C755 1.394 . S
C754 H762 0.930 . S
C755 C754 1.394 . S
C755 C756 1.383 . S
C755 H763 0.929 . S
C756 C755 1.383 . S
C756 C757 1.377 . S
C757 H741 0.930 . S
C757 C756 1.377 . S
C757 C758 1.379 . S
C758 H742 0.931 . S
C758 C752 1.383 . S
C758 C757 1.379 . S
H759 C753 0.959 . S
H760 C753 0.961 . S
H761 C753 0.960 . S
H762 C754 0.930 . S
H763 C755 0.929 . S
H764 C772 0.929 . S
H765 C774 0.930 . S
H766 C776 0.930 . S
H767 C779 0.929 . S
H768 C782 0.930 . S
H769 C784 0.960 . S
H770 C784 0.960 . S
H771 C784 0.960 . S
C772 H764 0.929 . S
C772 C773 1.377 . S
C772 C774 1.384 . S
C773 C772 1.377 . S
C773 C779 1.390 . S
C774 H765 0.930 . S
C774 C772 1.384 . S
C774 C775 1.372 . S
C775 C774 1.372 . S
C775 C776 1.400 . S
C775 C780 1.490 . S
C776 H766 0.930 . S
C776 C775 1.400 . S
C776 C779 1.386 . S
H777 C793 0.930 . S
H778 C794 0.931 . S
C779 H767 0.929 . S
C779 C773 1.390 . S
C779 C776 1.386 . S
C780 C775 1.490 . S
C780 C782 1.395 . S
C780 C783 1.403 . S
H781 C787 0.930 . S
C782 H768 0.930 . S
C782 C780 1.395 . S
C782 C785 1.403 . S
C783 C780 1.403 . S
C783 C784 1.524 . S
C783 C787 1.400 . S
C784 H769 0.960 . S
C784 H770 0.960 . S
C784 H771 0.960 . S
C784 C783 1.524 . S
C785 C782 1.403 . S
C785 C786 1.392 . S
C785 C789 1.495 . S
C786 C785 1.392 . S
C786 C787 1.385 . S
C786 C788 1.478 . S
C787 H781 0.930 . S
C787 C783 1.400 . S
C787 C786 1.385 . S
C788 C786 1.478 . S
C788 C790 1.381 . S
C788 C794 1.383 . S
C789 C785 1.495 . S
C789 H795 0.959 . S
C789 H796 0.961 . S
C789 H797 0.960 . S
C790 C788 1.381 . S
C790 C791 1.394 . S
C790 H798 0.930 . S
C791 C790 1.394 . S
C791 C792 1.383 . S
C791 H799 0.929 . S
C792 C791 1.383 . S
C792 C793 1.377 . S
C793 H777 0.930 . S
C793 C792 1.377 . S
C793 C794 1.379 . S
C794 H778 0.931 . S
C794 C788 1.383 . S
C794 C793 1.379 . S
H795 C789 0.959 . S
H796 C789 0.961 . S
H797 C789 0.960 . S
H798 C790 0.930 . S
H799 C791 0.929 . S
H800 C808 0.929 . S
H801 C810 0.930 . S
H802 C812 0.930 . S
H803 C815 0.929 . S
H804 C818 0.930 . S
H805 C820 0.960 . S
H806 C820 0.960 . S
H807 C820 0.960 . S
C808 H800 0.929 . S
C808 C809 1.377 . S
C808 C810 1.384 . S
C809 C808 1.377 . S
C809 C815 1.390 . S
C810 H801 0.930 . S
C810 C808 1.384 . S
C810 C811 1.372 . S
C811 C810 1.372 . S
C811 C812 1.400 . S
C811 C816 1.490 . S
C812 H802 0.930 . S
C812 C811 1.400 . S
C812 C815 1.386 . S
H813 C829 0.930 . S
H814 C830 0.931 . S
C815 H803 0.929 . S
C815 C809 1.390 . S
C815 C812 1.386 . S
C816 C811 1.490 . S
C816 C818 1.395 . S
C816 C819 1.403 . S
H817 C823 0.930 . S
C818 H804 0.930 . S
C818 C816 1.395 . S
C818 C821 1.403 . S
C819 C816 1.403 . S
C819 C820 1.524 . S
C819 C823 1.400 . S
C820 H805 0.960 . S
C820 H806 0.960 . S
C820 H807 0.960 . S
C820 C819 1.524 . S
C821 C818 1.403 . S
C821 C822 1.392 . S
C821 C825 1.495 . S
C822 C821 1.392 . S
C822 C823 1.385 . S
C822 C824 1.478 . S
C823 H817 0.930 . S
C823 C819 1.400 . S
C823 C822 1.385 . S
C824 C822 1.478 . S
C824 C826 1.381 . S
C824 C830 1.383 . S
C825 C821 1.495 . S
C825 H831 0.959 . S
C825 H832 0.961 . S
C825 H833 0.960 . S
C826 C824 1.381 . S
C826 C827 1.394 . S
C826 H834 0.930 . S
C827 C826 1.394 . S
C827 C828 1.383 . S
C827 H835 0.929 . S
C828 C827 1.383 . S
C828 C829 1.377 . S
C829 H813 0.930 . S
C829 C828 1.377 . S
C829 C830 1.379 . S
C830 H814 0.931 . S
C830 C824 1.383 . S
C830 C829 1.379 . S
H831 C825 0.959 . S
H832 C825 0.961 . S
H833 C825 0.960 . S
H834 C826 0.930 . S
H835 C827 0.929 . S
H836 C844 0.929 . S
H837 C846 0.930 . S
H838 C848 0.930 . S
H839 C851 0.929 . S
H840 C854 0.930 . S
H841 C856 0.960 . S
H842 C856 0.960 . S
H843 C856 0.960 . S
C844 H836 0.929 . S
C844 C845 1.377 . S
C844 C846 1.384 . S
C845 C844 1.377 . S
C845 C851 1.390 . S
C846 H837 0.930 . S
C846 C844 1.384 . S
C846 C847 1.372 . S
C847 C846 1.372 . S
C847 C848 1.400 . S
C847 C852 1.490 . S
C848 H838 0.930 . S
C848 C847 1.400 . S
C848 C851 1.386 . S
H849 C865 0.930 . S
H850 C866 0.931 . S
C851 H839 0.929 . S
C851 C845 1.390 . S
C851 C848 1.386 . S
C852 C847 1.490 . S
C852 C854 1.395 . S
C852 C855 1.403 . S
H853 C859 0.930 . S
C854 H840 0.930 . S
C854 C852 1.395 . S
C854 C857 1.403 . S
C855 C852 1.403 . S
C855 C856 1.524 . S
C855 C859 1.400 . S
C856 H841 0.960 . S
C856 H842 0.960 . S
C856 H843 0.960 . S
C856 C855 1.524 . S
C857 C854 1.403 . S
C857 C858 1.392 . S
C857 C861 1.495 . S
C858 C857 1.392 . S
C858 C859 1.385 . S
C858 C860 1.478 . S
C859 H853 0.930 . S
C859 C855 1.400 . S
C859 C858 1.385 . S
C860 C858 1.478 . S
C860 C862 1.381 . S
C860 C866 1.383 . S
C861 C857 1.495 . S
C861 H867 0.959 . S
C861 H868 0.961 . S
C861 H869 0.960 . S
C862 C860 1.381 . S
C862 C863 1.394 . S
C862 H870 0.930 . S
C863 C862 1.394 . S
C863 C864 1.383 . S
C863 H871 0.929 . S
C864 C863 1.383 . S
C864 C865 1.377 . S
C865 H849 0.930 . S
C865 C864 1.377 . S
C865 C866 1.379 . S
C866 H850 0.931 . S
C866 C860 1.383 . S
C866 C865 1.379 . S
H867 C861 0.959 . S
H868 C861 0.961 . S
H869 C861 0.960 . S
H870 C862 0.930 . S
H871 C863 0.929 . S
H872 C880 0.929 . S
H873 C882 0.930 . S
H874 C884 0.930 . S
H875 C887 0.929 . S
H876 C890 0.930 . S
H877 C892 0.960 . S
H878 C892 0.960 . S
H879 C892 0.960 . S
C880 H872 0.929 . S
C880 C881 1.377 1_455 S
C880 C882 1.384 . S
C881 C880 1.377 1_655 S
C881 C887 1.390 . S
C882 H873 0.930 . S
C882 C880 1.384 . S
C882 C883 1.372 1_455 S
C883 C882 1.372 1_655 S
C883 C884 1.400 . S
C883 C888 1.490 1_655 S
C884 H874 0.930 . S
C884 C883 1.400 . S
C884 C887 1.386 . S
H885 C901 0.930 1_655 S
H886 C902 0.931 1_655 S
C887 H875 0.929 . S
C887 C881 1.390 . S
C887 C884 1.386 . S
C888 C883 1.490 1_455 S
C888 C890 1.412 . S
C888 C891 1.387 1_455 S
H889 C895 0.930 . S
C890 H876 0.930 . S
C890 C888 1.412 . S
C890 C893 1.403 . S
C891 C888 1.387 1_655 S
C891 C892 1.524 . S
C891 C895 1.400 . S
C892 H877 0.960 . S
C892 H878 0.960 . S
C892 H879 0.960 . S
C892 C891 1.524 . S
C893 C890 1.403 . S
C893 C894 1.392 . S
C893 C897 1.495 . S
C894 C893 1.392 . S
C894 C895 1.385 1_455 S
C894 C896 1.478 . S
C895 H889 0.930 . S
C895 C891 1.400 . S
C895 C894 1.385 1_655 S
C896 C894 1.478 . S
C896 C898 1.381 . S
C896 C902 1.383 . S
C897 C893 1.495 . S
C897 H903 0.959 . S
C897 H904 0.961 . S
C897 H905 0.960 . S
C898 C896 1.381 . S
C898 C899 1.394 . S
C898 H906 0.930 . S
C899 C898 1.394 . S
C899 C900 1.383 . S
C899 H907 0.929 . S
C900 C899 1.383 . S
C900 C901 1.377 . S
C901 H885 0.930 1_455 S
C901 C900 1.377 . S
C901 C902 1.379 . S
C902 H886 0.931 1_455 S
C902 C896 1.383 . S
C902 C901 1.379 . S
H903 C897 0.959 . S
H904 C897 0.961 . S
H905 C897 0.960 . S
H906 C898 0.930 . S
H907 C899 0.929 . S
H908 C916 0.929 . S
H909 C918 0.930 . S
H910 C920 0.930 . S
H911 C923 0.929 . S
H912 C926 0.930 . S
H913 C928 0.960 . S
H914 C928 0.960 . S
H915 C928 0.960 . S
C916 H908 0.929 . S
C916 C917 1.377 . S
C916 C918 1.384 . S
C917 C916 1.377 . S
C917 C923 1.390 . S
C918 H909 0.930 . S
C918 C916 1.384 . S
C918 C919 1.372 . S
C919 C918 1.372 . S
C919 C920 1.400 . S
C919 C924 1.490 . S
C920 H910 0.930 . S
C920 C919 1.400 . S
C920 C923 1.386 . S
H921 C937 0.930 . S
H922 C938 0.931 . S
C923 H911 0.929 . S
C923 C917 1.390 . S
C923 C920 1.386 . S
C924 C919 1.490 . S
C924 C926 1.395 . S
C924 C927 1.403 . S
H925 C931 0.930 . S
C926 H912 0.930 . S
C926 C924 1.395 . S
C926 C929 1.403 . S
C927 C924 1.403 . S
C927 C928 1.524 . S
C927 C931 1.400 . S
C928 H913 0.960 . S
C928 H914 0.960 . S
C928 H915 0.960 . S
C928 C927 1.524 . S
C929 C926 1.403 . S
C929 C930 1.392 . S
C929 C933 1.495 . S
C930 C929 1.392 . S
C930 C931 1.385 . S
C930 C932 1.478 . S
C931 H925 0.930 . S
C931 C927 1.400 . S
C931 C930 1.385 . S
C932 C930 1.478 . S
C932 C934 1.381 . S
C932 C938 1.383 . S
C933 C929 1.495 . S
C933 H939 0.959 . S
C933 H940 0.961 . S
C933 H941 0.960 . S
C934 C932 1.381 . S
C934 C935 1.394 . S
C934 H942 0.930 . S
C935 C934 1.394 . S
C935 C936 1.383 . S
C935 H943 0.929 . S
C936 C935 1.383 . S
C936 C937 1.377 . S
C937 H921 0.930 . S
C937 C936 1.377 . S
C937 C938 1.379 . S
C938 H922 0.931 . S
C938 C932 1.383 . S
C938 C937 1.379 . S
H939 C933 0.959 . S
H940 C933 0.961 . S
H941 C933 0.960 . S
H942 C934 0.930 . S
H943 C935 0.929 . S
H944 C952 0.929 . S
H945 C954 0.930 . S
H946 C956 0.930 . S
H947 C959 0.929 . S
H948 C962 0.930 . S
H949 C964 0.960 . S
H950 C964 0.960 . S
H951 C964 0.960 . S
C952 H944 0.929 . S
C952 C953 1.377 . S
C952 C954 1.384 . S
C953 C952 1.377 . S
C953 C959 1.390 . S
C954 H945 0.930 . S
C954 C952 1.384 . S
C954 C955 1.372 . S
C955 C954 1.372 . S
C955 C956 1.400 . S
C955 C960 1.490 . S
C956 H946 0.930 . S
C956 C955 1.400 . S
C956 C959 1.386 . S
H957 C973 0.930 . S
H958 C974 0.931 . S
C959 H947 0.929 . S
C959 C953 1.390 . S
C959 C956 1.386 . S
C960 C955 1.490 . S
C960 C962 1.395 . S
C960 C963 1.403 . S
H961 C967 0.930 . S
C962 H948 0.930 . S
C962 C960 1.395 . S
C962 C965 1.403 . S
C963 C960 1.403 . S
C963 C964 1.524 . S
C963 C967 1.400 . S
C964 H949 0.960 . S
C964 H950 0.960 . S
C964 H951 0.960 . S
C964 C963 1.524 . S
C965 C962 1.403 . S
C965 C966 1.392 . S
C965 C969 1.495 . S
C966 C965 1.392 . S
C966 C967 1.385 . S
C966 C968 1.478 . S
C967 H961 0.930 . S
C967 C963 1.400 . S
C967 C966 1.385 . S
C968 C966 1.478 . S
C968 C970 1.381 . S
C968 C974 1.383 . S
C969 C965 1.495 . S
C969 H975 0.959 . S
C969 H976 0.961 . S
C969 H977 0.960 . S
C970 C968 1.381 . S
C970 C971 1.394 . S
C970 H978 0.930 . S
C971 C970 1.394 . S
C971 C972 1.383 . S
C971 H979 0.929 . S
C972 C971 1.383 . S
C972 C973 1.377 . S
C973 H957 0.930 . S
C973 C972 1.377 . S
C973 C974 1.379 . S
C974 H958 0.931 . S
C974 C968 1.383 . S
C974 C973 1.379 . S
H975 C969 0.959 . S
H976 C969 0.961 . S
H977 C969 0.960 . S
H978 C970 0.930 . S
H979 C971 0.929 . S
H980 C988 0.929 . S
H981 C990 0.930 . S
H982 C992 0.930 . S
H983 C995 0.946 . S
H984 C998 0.930 . S
H985 C1000 0.960 . S
H986 C1000 0.960 1_556 S
H987 C1000 0.960 . S
C988 H980 0.929 . S
C988 C989 1.377 1_556 S
C988 C990 1.384 . S
C989 C988 1.377 1_554 S
C989 C995 1.387 1_565 S
C990 H981 0.930 . S
C990 C988 1.384 . S
C990 C991 1.372 1_556 S
C991 C990 1.372 1_554 S
C991 C992 1.400 . S
C991 C996 1.490 . S
C992 H982 0.930 . S
C992 C991 1.400 . S
C992 C995 1.373 1_565 S
H993 C1009 0.930 . S
H994 C1010 0.931 . S
C995 H983 0.946 . S
C995 C989 1.387 1_545 S
C995 C992 1.373 1_545 S
C996 C991 1.490 . S
C996 C998 1.395 . S
C996 C999 1.403 . S
H997 C1003 0.930 . S
C998 H984 0.930 . S
C998 C996 1.395 . S
C998 C1001 1.403 . S
C999 C996 1.403 . S
C999 C1000 1.524 . S
C999 C1003 1.400 . S
C1000 H985 0.960 . S
C1000 H986 0.960 1_554 S
C1000 H987 0.960 . S
C1000 C999 1.524 . S
C1001 C998 1.403 . S
C1001 C1002 1.392 . S
C1001 C1005 1.495 . S
C1002 C1001 1.392 . S
C1002 C1003 1.385 . S
C1002 C1004 1.478 . S
C1003 H997 0.930 . S
C1003 C999 1.400 . S
C1003 C1002 1.385 . S
C1004 C1002 1.478 . S
C1004 C1006 1.381 1_554 S
C1004 C1010 1.383 . S
C1005 C1001 1.495 . S
C1005 H1011 0.959 . S
C1005 H1012 0.961 . S
C1005 H1013 0.960 1_554 S
C1006 C1004 1.381 1_556 S
C1006 C1007 1.394 . S
C1006 H1014 0.930 . S
C1007 C1006 1.394 . S
C1007 C1008 1.383 1_556 S
C1007 H1015 0.929 . S
C1008 C1007 1.383 1_554 S
C1008 C1009 1.377 . S
C1009 H993 0.930 . S
C1009 C1008 1.377 . S
C1009 C1010 1.379 . S
C1010 H994 0.931 . S
C1010 C1004 1.383 . S
C1010 C1009 1.379 . S
H1011 C1005 0.959 . S
H1012 C1005 0.961 . S
H1013 C1005 0.960 1_556 S
H1014 C1006 0.930 . S
H1015 C1007 0.929 . S
H1016 C1024 0.929 . S
H1017 C1026 0.930 . S
H1018 C1028 0.930 . S
H1019 C1031 0.929 . S
H1020 C1034 0.930 . S
H1021 C1036 0.960 . S
H1022 C1036 0.960 . S
H1023 C1036 0.960 . S
C1024 H1016 0.929 . S
C1024 C1025 1.377 . S
C1024 C1026 1.384 . S
C1025 C1024 1.377 . S
C1025 C1031 1.390 . S
C1026 H1017 0.930 . S
C1026 C1024 1.384 . S
C1026 C1027 1.372 . S
C1027 C1026 1.372 . S
C1027 C1028 1.400 . S
C1027 C1032 1.490 . S
C1028 H1018 0.930 . S
C1028 C1027 1.400 . S
C1028 C1031 1.386 . S
H1029 C1045 0.930 . S
H1030 C1046 0.931 . S
C1031 H1019 0.929 . S
C1031 C1025 1.390 . S
C1031 C1028 1.386 . S
C1032 C1027 1.490 . S
C1032 C1034 1.395 . S
C1032 C1035 1.403 . S
H1033 C1039 0.930 . S
C1034 H1020 0.930 . S
C1034 C1032 1.395 . S
C1034 C1037 1.403 . S
C1035 C1032 1.403 . S
C1035 C1036 1.524 . S
C1035 C1039 1.400 . S
C1036 H1021 0.960 . S
C1036 H1022 0.960 . S
C1036 H1023 0.960 . S
C1036 C1035 1.524 . S
C1037 C1034 1.403 . S
C1037 C1038 1.392 . S
C1037 C1041 1.495 . S
C1038 C1037 1.392 . S
C1038 C1039 1.385 . S
C1038 C1040 1.478 . S
C1039 H1033 0.930 . S
C1039 C1035 1.400 . S
C1039 C1038 1.385 . S
C1040 C1038 1.478 . S
C1040 C1042 1.381 . S
C1040 C1046 1.383 . S
C1041 C1037 1.495 . S
C1041 H1047 0.959 . S
C1041 H1048 0.961 . S
C1041 H1049 0.960 . S
C1042 C1040 1.381 . S
C1042 C1043 1.394 . S
C1042 H1050 0.930 . S
C1043 C1042 1.394 . S
C1043 C1044 1.383 . S
C1043 H1051 0.929 . S
C1044 C1043 1.383 . S
C1044 C1045 1.377 . S
C1045 H1029 0.930 . S
C1045 C1044 1.377 . S
C1045 C1046 1.379 . S
C1046 H1030 0.931 . S
C1046 C1040 1.383 . S
C1046 C1045 1.379 . S
H1047 C1041 0.959 . S
H1048 C1041 0.961 . S
H1049 C1041 0.960 . S
H1050 C1042 0.930 . S
H1051 C1043 0.929 . S
H1052 C1060 0.929 1_565 S
H1053 C1062 0.930 . S
H1054 C1064 0.930 . S
H1055 C1067 0.929 . S
H1056 C1070 0.930 . S
H1057 C1072 0.960 . S
H1058 C1072 0.960 . S
H1059 C1072 0.960 . S
C1060 H1052 0.929 1_545 S
C1060 C1061 1.377 . S
C1060 C1062 1.384 . S
C1061 C1060 1.377 . S
C1061 C1067 1.390 . S
C1062 H1053 0.930 . S
C1062 C1060 1.384 . S
C1062 C1063 1.372 . S
C1063 C1062 1.372 . S
C1063 C1064 1.400 . S
C1063 C1068 1.490 . S
C1064 H1054 0.930 . S
C1064 C1063 1.400 . S
C1064 C1067 1.386 . S
H1065 C1081 0.930 . S
H1066 C1082 0.931 . S
C1067 H1055 0.929 . S
C1067 C1061 1.390 . S
C1067 C1064 1.386 . S
C1068 C1063 1.490 . S
C1068 C1070 1.395 . S
C1068 C1071 1.403 . S
H1069 C1075 0.930 . S
C1070 H1056 0.930 . S
C1070 C1068 1.395 . S
C1070 C1073 1.403 . S
C1071 C1068 1.403 . S
C1071 C1072 1.524 . S
C1071 C1075 1.400 . S
C1072 H1057 0.960 . S
C1072 H1058 0.960 . S
C1072 H1059 0.960 . S
C1072 C1071 1.524 . S
C1073 C1070 1.403 . S
C1073 C1074 1.392 . S
C1073 C1077 1.495 . S
C1074 C1073 1.392 . S
C1074 C1075 1.385 . S
C1074 C1076 1.478 . S
C1075 H1069 0.930 . S
C1075 C1071 1.400 . S
C1075 C1074 1.385 . S
C1076 C1074 1.478 . S
C1076 C1078 1.381 . S
C1076 C1082 1.383 . S
C1077 C1073 1.495 . S
C1077 H1083 0.959 . S
C1077 H1084 0.961 . S
C1077 H1085 0.960 . S
C1078 C1076 1.381 . S
C1078 C1079 1.394 . S
C1078 H1086 0.930 . S
C1079 C1078 1.394 . S
C1079 C1080 1.383 . S
C1079 H1087 0.929 . S
C1080 C1079 1.383 . S
C1080 C1081 1.377 . S
C1081 H1065 0.930 . S
C1081 C1080 1.377 . S
C1081 C1082 1.379 . S
C1082 H1066 0.931 . S
C1082 C1076 1.383 . S
C1082 C1081 1.379 . S
H1083 C1077 0.959 . S
H1084 C1077 0.961 . S
H1085 C1077 0.960 . S
H1086 C1078 0.930 . S
H1087 C1079 0.929 . S
H1088 C1096 0.929 . S
H1089 C1098 0.930 . S
H1090 C1100 0.930 . S
H1091 C1103 0.929 . S
H1092 C1106 0.930 . S
H1093 C1108 0.960 . S
H1094 C1108 0.960 . S
H1095 C1108 0.960 . S
C1096 H1088 0.929 . S
C1096 C1097 1.377 . S
C1096 C1098 1.384 . S
C1097 C1096 1.377 . S
C1097 C1103 1.390 . S
C1098 H1089 0.930 . S
C1098 C1096 1.384 . S
C1098 C1099 1.372 . S
C1099 C1098 1.372 . S
C1099 C1100 1.400 . S
C1099 C1104 1.490 . S
C1100 H1090 0.930 . S
C1100 C1099 1.400 . S
C1100 C1103 1.386 . S
H1101 C1117 0.930 . S
H1102 C1118 0.931 . S
C1103 H1091 0.929 . S
C1103 C1097 1.390 . S
C1103 C1100 1.386 . S
C1104 C1099 1.490 . S
C1104 C1106 1.395 . S
C1104 C1107 1.403 . S
H1105 C1111 0.930 . S
C1106 H1092 0.930 . S
C1106 C1104 1.395 . S
C1106 C1109 1.403 . S
C1107 C1104 1.403 . S
C1107 C1108 1.524 . S
C1107 C1111 1.400 . S
C1108 H1093 0.960 . S
C1108 H1094 0.960 . S
C1108 H1095 0.960 . S
C1108 C1107 1.524 . S
C1109 C1106 1.403 . S
C1109 C1110 1.392 . S
C1109 C1113 1.495 . S
C1110 C1109 1.392 . S
C1110 C1111 1.385 . S
C1110 C1112 1.478 . S
C1111 H1105 0.930 . S
C1111 C1107 1.400 . S
C1111 C1110 1.385 . S
C1112 C1110 1.478 . S
C1112 C1114 1.381 . S
C1112 C1118 1.383 . S
C1113 C1109 1.495 . S
C1113 H1119 0.959 . S
C1113 H1120 0.961 . S
C1113 H1121 0.960 . S
C1114 C1112 1.381 . S
C1114 C1115 1.394 . S
C1114 H1122 0.930 . S
C1115 C1114 1.394 . S
C1115 C1116 1.383 . S
C1115 H1123 0.929 . S
C1116 C1115 1.383 . S
C1116 C1117 1.377 . S
C1117 H1101 0.930 . S
C1117 C1116 1.377 . S
C1117 C1118 1.379 . S
C1118 H1102 0.931 . S
C1118 C1112 1.383 . S
C1118 C1117 1.379 . S
H1119 C1113 0.959 . S
H1120 C1113 0.961 . S
H1121 C1113 0.960 . S
H1122 C1114 0.930 . S
H1123 C1115 0.929 . S
H1124 C1132 0.929 . S
H1125 C1134 0.930 . S
H1126 C1136 0.930 . S
H1127 C1139 0.929 . S
H1128 C1142 0.930 . S
H1129 C1144 0.960 . S
H1130 C1144 0.960 . S
H1131 C1144 0.960 . S
C1132 H1124 0.929 . S
C1132 C1133 1.377 . S
C1132 C1134 1.384 . S
C1133 C1132 1.377 . S
C1133 C1139 1.390 . S
C1134 H1125 0.930 . S
C1134 C1132 1.384 . S
C1134 C1135 1.372 . S
C1135 C1134 1.372 . S
C1135 C1136 1.400 . S
C1135 C1140 1.490 . S
C1136 H1126 0.930 . S
C1136 C1135 1.400 . S
C1136 C1139 1.386 . S
H1137 C1153 0.930 . S
H1138 C1154 0.931 . S
C1139 H1127 0.929 . S
C1139 C1133 1.390 . S
C1139 C1136 1.386 . S
C1140 C1135 1.490 . S
C1140 C1142 1.395 . S
C1140 C1143 1.403 . S
H1141 C1147 0.930 . S
C1142 H1128 0.930 . S
C1142 C1140 1.395 . S
C1142 C1145 1.403 . S
C1143 C1140 1.403 . S
C1143 C1144 1.524 . S
C1143 C1147 1.400 . S
C1144 H1129 0.960 . S
C1144 H1130 0.960 . S
C1144 H1131 0.960 . S
C1144 C1143 1.524 . S
C1145 C1142 1.403 . S
C1145 C1146 1.392 . S
C1145 C1149 1.495 . S
C1146 C1145 1.392 . S
C1146 C1147 1.385 . S
C1146 C1148 1.478 . S
C1147 H1141 0.930 . S
C1147 C1143 1.400 . S
C1147 C1146 1.385 . S
C1148 C1146 1.478 . S
C1148 C1150 1.381 . S
C1148 C1154 1.383 . S
C1149 C1145 1.495 . S
C1149 H1155 0.959 . S
C1149 H1156 0.961 . S
C1149 H1157 0.960 . S
C1150 C1148 1.381 . S
C1150 C1151 1.394 . S
C1150 H1158 0.930 . S
C1151 C1150 1.394 . S
C1151 C1152 1.383 . S
C1151 H1159 0.929 . S
C1152 C1151 1.383 . S
C1152 C1153 1.377 . S
C1153 H1137 0.930 . S
C1153 C1152 1.377 . S
C1153 C1154 1.379 . S
C1154 H1138 0.931 . S
C1154 C1148 1.383 . S
C1154 C1153 1.379 . S
H1155 C1149 0.959 . S
H1156 C1149 0.961 . S
H1157 C1149 0.960 . S
H1158 C1150 0.930 . S
H1159 C1151 0.929 . S
H1160 C1168 0.929 . S
H1161 C1170 0.930 . S
H1162 C1172 0.930 . S
H1163 C1175 0.929 . S
H1164 C1178 0.930 . S
H1165 C1180 0.960 . S
H1166 C1180 0.960 . S
H1167 C1180 0.960 . S
C1168 H1160 0.929 . S
C1168 C1169 1.377 . S
C1168 C1170 1.384 . S
C1169 C1168 1.377 . S
C1169 C1175 1.390 . S
C1170 H1161 0.930 . S
C1170 C1168 1.384 . S
C1170 C1171 1.372 . S
C1171 C1170 1.372 . S
C1171 C1172 1.400 . S
C1171 C1176 1.490 . S
C1172 H1162 0.930 . S
C1172 C1171 1.400 . S
C1172 C1175 1.386 . S
H1173 C1189 0.930 . S
H1174 C1190 0.931 . S
C1175 H1163 0.929 . S
C1175 C1169 1.390 . S
C1175 C1172 1.386 . S
C1176 C1171 1.490 . S
C1176 C1178 1.395 . S
C1176 C1179 1.403 . S
H1177 C1183 0.930 . S
C1178 H1164 0.930 . S
C1178 C1176 1.395 . S
C1178 C1181 1.403 . S
C1179 C1176 1.403 . S
C1179 C1180 1.524 . S
C1179 C1183 1.400 . S
C1180 H1165 0.960 . S
C1180 H1166 0.960 . S
C1180 H1167 0.960 . S
C1180 C1179 1.524 . S
C1181 C1178 1.403 . S
C1181 C1182 1.392 . S
C1181 C1185 1.495 . S
C1182 C1181 1.392 . S
C1182 C1183 1.385 . S
C1182 C1184 1.478 . S
C1183 H1177 0.930 . S
C1183 C1179 1.400 . S
C1183 C1182 1.385 . S
C1184 C1182 1.478 . S
C1184 C1186 1.381 . S
C1184 C1190 1.383 . S
C1185 C1181 1.495 . S
C1185 H1191 0.959 . S
C1185 H1192 0.961 . S
C1185 H1193 0.960 . S
C1186 C1184 1.381 . S
C1186 C1187 1.394 . S
C1186 H1194 0.930 . S
C1187 C1186 1.394 . S
C1187 C1188 1.383 . S
C1187 H1195 0.929 . S
C1188 C1187 1.383 . S
C1188 C1189 1.377 . S
C1189 H1173 0.930 . S
C1189 C1188 1.377 . S
C1189 C1190 1.379 . S
C1190 H1174 0.931 . S
C1190 C1184 1.383 . S
C1190 C1189 1.379 . S
H1191 C1185 0.959 . S
H1192 C1185 0.961 . S
H1193 C1185 0.960 . S
H1194 C1186 0.930 . S
H1195 C1187 0.929 . S
H1196 C1204 0.929 . S
H1197 C1206 0.930 . S
H1198 C1208 0.930 . S
H1199 C1211 0.929 . S
H1200 C1214 0.930 . S
H1201 C1216 0.960 . S
H1202 C1216 0.960 . S
H1203 C1216 0.960 . S
C1204 H1196 0.929 . S
C1204 C1205 1.377 . S
C1204 C1206 1.384 . S
C1205 C1204 1.377 . S
C1205 C1211 1.390 . S
C1206 H1197 0.930 . S
C1206 C1204 1.384 . S
C1206 C1207 1.372 . S
C1207 C1206 1.372 . S
C1207 C1208 1.400 . S
C1207 C1212 1.490 . S
C1208 H1198 0.930 . S
C1208 C1207 1.400 . S
C1208 C1211 1.386 . S
H1209 C1225 0.930 . S
H1210 C1226 0.931 . S
C1211 H1199 0.929 . S
C1211 C1205 1.390 . S
C1211 C1208 1.386 . S
C1212 C1207 1.490 . S
C1212 C1214 1.395 . S
C1212 C1215 1.403 . S
H1213 C1219 0.930 . S
C1214 H1200 0.930 . S
C1214 C1212 1.395 . S
C1214 C1217 1.403 . S
C1215 C1212 1.403 . S
C1215 C1216 1.524 . S
C1215 C1219 1.400 . S
C1216 H1201 0.960 . S
C1216 H1202 0.960 . S
C1216 H1203 0.960 . S
C1216 C1215 1.524 . S
C1217 C1214 1.403 . S
C1217 C1218 1.392 . S
C1217 C1221 1.495 . S
C1218 C1217 1.392 . S
C1218 C1219 1.385 . S
C1218 C1220 1.478 . S
C1219 H1213 0.930 . S
C1219 C1215 1.400 . S
C1219 C1218 1.385 . S
C1220 C1218 1.478 . S
C1220 C1222 1.381 . S
C1220 C1226 1.383 . S
C1221 C1217 1.495 . S
C1221 H1227 0.959 . S
C1221 H1228 0.961 . S
C1221 H1229 0.960 . S
C1222 C1220 1.381 . S
C1222 C1223 1.394 . S
C1222 H1230 0.930 . S
C1223 C1222 1.394 . S
C1223 C1224 1.383 . S
C1223 H1231 0.929 . S
C1224 C1223 1.383 . S
C1224 C1225 1.377 . S
C1225 H1209 0.930 . S
C1225 C1224 1.377 . S
C1225 C1226 1.379 . S
C1226 H1210 0.931 . S
C1226 C1220 1.383 . S
C1226 C1225 1.379 . S
H1227 C1221 0.959 . S
H1228 C1221 0.961 . S
H1229 C1221 0.960 . S
H1230 C1222 0.930 . S
H1231 C1223 0.929 . S
H1232 C1240 0.929 . S
H1233 C1242 0.930 . S
H1234 C1244 0.930 . S
H1235 C1247 0.929 . S
H1236 C1250 0.930 . S
H1237 C1252 0.960 . S
H1238 C1252 0.960 . S
H1239 C1252 0.960 . S
C1240 H1232 0.929 . S
C1240 C1241 1.377 . S
C1240 C1242 1.384 . S
C1241 C1240 1.377 . S
C1241 C1247 1.390 . S
C1242 H1233 0.930 . S
C1242 C1240 1.384 . S
C1242 C1243 1.372 . S
C1243 C1242 1.372 . S
C1243 C1244 1.400 . S
C1243 C1248 1.490 . S
C1244 H1234 0.930 . S
C1244 C1243 1.400 . S
C1244 C1247 1.386 . S
H1245 C1261 0.930 . S
H1246 C1262 0.907 1_565 S
C1247 H1235 0.929 . S
C1247 C1241 1.390 . S
C1247 C1244 1.386 . S
C1248 C1243 1.490 . S
C1248 C1250 1.395 . S
C1248 C1251 1.403 . S
H1249 C1255 0.930 . S
C1250 H1236 0.930 . S
C1250 C1248 1.395 . S
C1250 C1253 1.403 . S
C1251 C1248 1.403 . S
C1251 C1252 1.524 . S
C1251 C1255 1.400 . S
C1252 H1237 0.960 . S
C1252 H1238 0.960 . S
C1252 H1239 0.960 . S
C1252 C1251 1.524 . S
C1253 C1250 1.403 . S
C1253 C1254 1.392 . S
C1253 C1257 1.495 . S
C1254 C1253 1.392 . S
C1254 C1255 1.385 . S
C1254 C1256 1.478 . S
C1255 H1249 0.930 . S
C1255 C1251 1.400 . S
C1255 C1254 1.385 . S
C1256 C1254 1.478 . S
C1256 C1258 1.381 . S
C1256 C1262 1.418 . S
C1257 C1253 1.495 . S
C1257 H1263 0.959 . S
C1257 H1264 0.961 . S
C1257 H1265 0.960 . S
C1258 C1256 1.381 . S
C1258 C1259 1.394 . S
C1258 H1266 0.930 . S
C1259 C1258 1.394 . S
C1259 C1260 1.383 . S
C1259 H1267 0.929 . S
C1260 C1259 1.383 . S
C1260 C1261 1.377 1_545 S
C1261 H1245 0.930 . S
C1261 C1260 1.377 1_565 S
C1261 C1262 1.370 1_565 S
C1262 H1246 0.907 1_545 S
C1262 C1256 1.418 . S
C1262 C1261 1.370 1_545 S
H1263 C1257 0.959 . S
H1264 C1257 0.961 . S
H1265 C1257 0.960 . S
H1266 C1258 0.930 . S
H1267 C1259 0.929 . S
H1268 C1276 0.929 . S
H1269 C1278 0.930 . S
H1270 C1280 0.930 . S
H1271 C1283 0.929 . S
H1272 C1286 0.930 . S
H1273 C1288 0.960 . S
H1274 C1288 0.960 . S
H1275 C1288 0.960 . S
C1276 H1268 0.929 . S
C1276 C1277 1.377 . S
C1276 C1278 1.384 . S
C1277 C1276 1.377 . S
C1277 C1283 1.390 . S
C1278 H1269 0.930 . S
C1278 C1276 1.384 . S
C1278 C1279 1.372 . S
C1279 C1278 1.372 . S
C1279 C1280 1.400 . S
C1279 C1284 1.490 . S
C1280 H1270 0.930 . S
C1280 C1279 1.400 . S
C1280 C1283 1.386 . S
H1281 C1297 0.930 . S
H1282 C1298 0.931 . S
C1283 H1271 0.929 . S
C1283 C1277 1.390 . S
C1283 C1280 1.386 . S
C1284 C1279 1.490 . S
C1284 C1286 1.395 . S
C1284 C1287 1.403 . S
H1285 C1291 0.930 . S
C1286 H1272 0.930 . S
C1286 C1284 1.395 . S
C1286 C1289 1.403 . S
C1287 C1284 1.403 . S
C1287 C1288 1.524 . S
C1287 C1291 1.400 . S
C1288 H1273 0.960 . S
C1288 H1274 0.960 . S
C1288 H1275 0.960 . S
C1288 C1287 1.524 . S
C1289 C1286 1.403 . S
C1289 C1290 1.392 . S
C1289 C1293 1.495 . S
C1290 C1289 1.392 . S
C1290 C1291 1.385 . S
C1290 C1292 1.478 . S
C1291 H1285 0.930 . S
C1291 C1287 1.400 . S
C1291 C1290 1.385 . S
C1292 C1290 1.478 . S
C1292 C1294 1.381 . S
C1292 C1298 1.383 . S
C1293 C1289 1.495 . S
C1293 H1299 0.959 . S
C1293 H1300 0.961 . S
C1293 H1301 0.960 . S
C1294 C1292 1.381 . S
C1294 C1295 1.394 . S
C1294 H1302 0.930 . S
C1295 C1294 1.394 . S
C1295 C1296 1.383 . S
C1295 H1303 0.929 . S
C1296 C1295 1.383 . S
C1296 C1297 1.377 . S
C1297 H1281 0.930 . S
C1297 C1296 1.377 . S
C1297 C1298 1.379 . S
C1298 H1282 0.931 . S
C1298 C1292 1.383 . S
C1298 C1297 1.379 . S
H1299 C1293 0.959 . S
H1300 C1293 0.961 . S
H1301 C1293 0.960 . S
H1302 C1294 0.930 . S
H1303 C1295 0.929 . S
H1304 C1312 0.929 . S
H1305 C1314 0.930 . S
H1306 C1316 0.930 . S
H1307 C1319 0.929 . S
H1308 C1322 0.930 . S
H1309 C1324 0.960 . S
H1310 C1324 0.960 . S
H1311 C1324 0.960 . S
C1312 H1304 0.929 . S
C1312 C1313 1.377 . S
C1312 C1314 1.384 . S
C1313 C1312 1.377 . S
C1313 C1319 1.390 . S
C1314 H1305 0.930 . S
C1314 C1312 1.384 . S
C1314 C1315 1.372 . S
C1315 C1314 1.372 . S
C1315 C1316 1.400 . S
C1315 C1320 1.490 . S
C1316 H1306 0.930 . S
C1316 C1315 1.400 . S
C1316 C1319 1.386 . S
H1317 C1333 0.930 . S
H1318 C1334 0.931 . S
C1319 H1307 0.929 . S
C1319 C1313 1.390 . S
C1319 C1316 1.386 . S
C1320 C1315 1.490 . S
C1320 C1322 1.395 . S
C1320 C1323 1.403 . S
H1321 C1327 0.930 . S
C1322 H1308 0.930 . S
C1322 C1320 1.395 . S
C1322 C1325 1.403 . S
C1323 C1320 1.403 . S
C1323 C1324 1.524 . S
C1323 C1327 1.400 . S
C1324 H1309 0.960 . S
C1324 H1310 0.960 . S
C1324 H1311 0.960 . S
C1324 C1323 1.524 . S
C1325 C1322 1.403 . S
C1325 C1326 1.392 . S
C1325 C1329 1.495 . S
C1326 C1325 1.392 . S
C1326 C1327 1.385 . S
C1326 C1328 1.478 . S
C1327 H1321 0.930 . S
C1327 C1323 1.400 . S
C1327 C1326 1.385 . S
C1328 C1326 1.478 . S
C1328 C1330 1.381 . S
C1328 C1334 1.383 . S
C1329 C1325 1.495 . S
C1329 H1335 0.959 . S
C1329 H1336 0.961 . S
C1329 H1337 0.960 . S
C1330 C1328 1.381 . S
C1330 C1331 1.394 . S
C1330 H1338 0.930 . S
C1331 C1330 1.394 . S
C1331 C1332 1.383 . S
C1331 H1339 0.929 . S
C1332 C1331 1.383 . S
C1332 C1333 1.377 . S
C1333 H1317 0.930 . S
C1333 C1332 1.377 . S
C1333 C1334 1.379 . S
C1334 H1318 0.931 . S
C1334 C1328 1.383 . S
C1334 C1333 1.379 . S
H1335 C1329 0.959 . S
H1336 C1329 0.961 . S
H1337 C1329 0.960 . S
H1338 C1330 0.930 . S
H1339 C1331 0.929 . S
H1340 C1348 0.929 . S
H1341 C1350 0.930 . S
H1342 C1352 0.930 . S
H1343 C1355 0.929 . S
H1344 C1358 0.930 . S
H1345 C1360 0.960 . S
H1346 C1360 0.960 . S
H1347 C1360 0.960 . S
C1348 H1340 0.929 . S
C1348 C1349 1.377 . S
C1348 C1350 1.384 . S
C1349 C1348 1.377 . S
C1349 C1355 1.390 . S
C1350 H1341 0.930 . S
C1350 C1348 1.384 . S
C1350 C1351 1.372 . S
C1351 C1350 1.372 . S
C1351 C1352 1.400 . S
C1351 C1356 1.490 . S
C1352 H1342 0.930 . S
C1352 C1351 1.400 . S
C1352 C1355 1.386 . S
H1353 C1369 0.930 . S
H1354 C1370 0.931 . S
C1355 H1343 0.929 . S
C1355 C1349 1.390 . S
C1355 C1352 1.386 . S
C1356 C1351 1.490 . S
C1356 C1358 1.395 . S
C1356 C1359 1.403 . S
H1357 C1363 0.930 . S
C1358 H1344 0.930 . S
C1358 C1356 1.395 . S
C1358 C1361 1.403 . S
C1359 C1356 1.403 . S
C1359 C1360 1.524 . S
C1359 C1363 1.400 . S
C1360 H1345 0.960 . S
C1360 H1346 0.960 . S
C1360 H1347 0.960 . S
C1360 C1359 1.524 . S
C1361 C1358 1.403 . S
C1361 C1362 1.392 . S
C1361 C1365 1.495 . S
C1362 C1361 1.392 . S
C1362 C1363 1.385 . S
C1362 C1364 1.478 . S
C1363 H1357 0.930 . S
C1363 C1359 1.400 . S
C1363 C1362 1.385 . S
C1364 C1362 1.478 . S
C1364 C1366 1.381 . S
C1364 C1370 1.383 . S
C1365 C1361 1.495 . S
C1365 H1371 0.959 . S
C1365 H1372 0.961 . S
C1365 H1373 0.960 . S
C1366 C1364 1.381 . S
C1366 C1367 1.394 . S
C1366 H1374 0.930 . S
C1367 C1366 1.394 . S
C1367 C1368 1.383 . S
C1367 H1375 0.929 . S
C1368 C1367 1.383 . S
C1368 C1369 1.377 . S
C1369 H1353 0.930 . S
C1369 C1368 1.377 . S
C1369 C1370 1.379 . S
C1370 H1354 0.931 . S
C1370 C1364 1.383 . S
C1370 C1369 1.379 . S
H1371 C1365 0.959 . S
H1372 C1365 0.961 . S
H1373 C1365 0.960 . S
H1374 C1366 0.930 . S
H1375 C1367 0.929 . S
H1376 C1384 0.929 . S
H1377 C1386 0.930 . S
H1378 C1388 0.930 . S
H1379 C1391 0.924 1_455 S
H1380 C1394 0.930 . S
H1381 C1396 0.960 . S
H1382 C1396 0.960 . S
H1383 C1396 0.960 . S
C1384 H1376 0.929 . S
C1384 C1385 1.377 . S
C1384 C1386 1.384 . S
C1385 C1384 1.377 . S
C1385 C1391 1.390 . S
C1386 H1377 0.930 . S
C1386 C1384 1.384 . S
C1386 C1387 1.372 . S
C1387 C1386 1.372 . S
C1387 C1388 1.400 . S
C1387 C1392 1.490 . S
C1388 H1378 0.930 . S
C1388 C1387 1.400 . S
C1388 C1391 1.386 . S
H1389 C1405 0.930 . S
H1390 C1406 0.931 . S
C1391 H1379 0.924 1_655 S
C1391 C1385 1.390 . S
C1391 C1388 1.386 . S
C1392 C1387 1.490 . S
C1392 C1394 1.395 . S
C1392 C1395 1.403 . S
H1393 C1399 0.930 . S
C1394 H1380 0.930 . S
C1394 C1392 1.395 . S
C1394 C1397 1.403 . S
C1395 C1392 1.403 . S
C1395 C1396 1.524 . S
C1395 C1399 1.400 . S
C1396 H1381 0.960 . S
C1396 H1382 0.960 . S
C1396 H1383 0.960 . S
C1396 C1395 1.524 . S
C1397 C1394 1.403 . S
C1397 C1398 1.392 . S
C1397 C1401 1.495 . S
C1398 C1397 1.392 . S
C1398 C1399 1.385 . S
C1398 C1400 1.478 . S
C1399 H1393 0.930 . S
C1399 C1395 1.400 . S
C1399 C1398 1.385 . S
C1400 C1398 1.478 . S
C1400 C1402 1.381 . S
C1400 C1406 1.383 . S
C1401 C1397 1.495 . S
C1401 H1407 0.959 . S
C1401 H1408 0.961 . S
C1401 H1409 0.962 1_545 S
C1402 C1400 1.381 . S
C1402 C1403 1.394 . S
C1402 H1410 0.930 . S
C1403 C1402 1.394 . S
C1403 C1404 1.383 . S
C1403 H1411 0.929 . S
C1404 C1403 1.383 . S
C1404 C1405 1.377 . S
C1405 H1389 0.930 . S
C1405 C1404 1.377 . S
C1405 C1406 1.379 . S
C1406 H1390 0.931 . S
C1406 C1400 1.383 . S
C1406 C1405 1.379 . S
H1407 C1401 0.959 . S
H1408 C1401 0.961 . S
H1409 C1401 0.962 1_565 S
H1410 C1402 0.930 . S
H1411 C1403 0.929 . S
H1412 C1420 0.929 . S
H1413 C1422 0.930 . S
H1414 C1424 0.930 . S
H1415 C1427 0.929 . S
H1416 C1430 0.930 . S
H1417 C1432 0.960 . S
H1418 C1432 0.960 . S
H1419 C1432 0.960 . S
C1420 H1412 0.929 . S
C1420 C1421 1.377 . S
C1420 C1422 1.384 . S
C1421 C1420 1.377 . S
C1421 C1427 1.390 . S
C1422 H1413 0.930 . S
C1422 C1420 1.384 . S
C1422 C1423 1.372 . S
C1423 C1422 1.372 . S
C1423 C1424 1.400 . S
C1423 C1428 1.490 . S
C1424 H1414 0.930 . S
C1424 C1423 1.400 . S
C1424 C1427 1.386 . S
H1425 C1441 0.930 . S
H1426 C1442 0.931 . S
C1427 H1415 0.929 . S
C1427 C1421 1.390 . S
C1427 C1424 1.386 . S
C1428 C1423 1.490 . S
C1428 C1430 1.395 . S
C1428 C1431 1.403 . S
H1429 C1435 0.930 . S
C1430 H1416 0.930 . S
C1430 C1428 1.395 . S
C1430 C1433 1.403 . S
C1431 C1428 1.403 . S
C1431 C1432 1.524 . S
C1431 C1435 1.400 . S
C1432 H1417 0.960 . S
C1432 H1418 0.960 . S
C1432 H1419 0.960 . S
C1432 C1431 1.524 . S
C1433 C1430 1.403 . S
C1433 C1434 1.392 . S
C1433 C1437 1.495 . S
C1434 C1433 1.392 . S
C1434 C1435 1.385 . S
C1434 C1436 1.478 . S
C1435 H1429 0.930 . S
C1435 C1431 1.400 . S
C1435 C1434 1.385 . S
C1436 C1434 1.478 . S
C1436 C1438 1.381 . S
C1436 C1442 1.383 . S
C1437 C1433 1.495 . S
C1437 H1443 0.959 . S
C1437 H1444 0.961 . S
C1437 H1445 0.960 . S
C1438 C1436 1.381 . S
C1438 C1439 1.394 . S
C1438 H1446 0.930 . S
C1439 C1438 1.394 . S
C1439 C1440 1.383 . S
C1439 H1447 0.929 . S
C1440 C1439 1.383 . S
C1440 C1441 1.377 . S
C1441 H1425 0.930 . S
C1441 C1440 1.377 . S
C1441 C1442 1.379 . S
C1442 H1426 0.931 . S
C1442 C1436 1.383 . S
C1442 C1441 1.379 . S
H1443 C1437 0.959 . S
H1444 C1437 0.961 . S
H1445 C1437 0.960 . S
H1446 C1438 0.930 . S
H1447 C1439 0.929 . S
H1448 C1456 0.929 . S
H1449 C1458 0.930 . S
H1450 C1460 0.930 . S
H1451 C1463 0.929 . S
H1452 C1466 0.930 . S
H1453 C1468 0.960 . S
H1454 C1468 0.960 . S
H1455 C1468 0.960 . S
C1456 H1448 0.929 . S
C1456 C1457 1.377 . S
C1456 C1458 1.384 . S
C1457 C1456 1.377 . S
C1457 C1463 1.390 1_655 S
C1458 H1449 0.930 . S
C1458 C1456 1.384 . S
C1458 C1459 1.372 1_655 S
C1459 C1458 1.372 1_455 S
C1459 C1460 1.400 . S
C1459 C1464 1.490 . S
C1460 H1450 0.930 . S
C1460 C1459 1.400 . S
C1460 C1463 1.386 . S
H1461 C1477 0.930 . S
H1462 C1478 0.931 . S
C1463 H1451 0.929 . S
C1463 C1457 1.390 1_455 S
C1463 C1460 1.386 . S
C1464 C1459 1.490 . S
C1464 C1466 1.395 . S
C1464 C1467 1.403 . S
H1465 C1471 0.930 . S
C1466 H1452 0.930 . S
C1466 C1464 1.395 . S
C1466 C1469 1.403 . S
C1467 C1464 1.403 . S
C1467 C1468 1.524 . S
C1467 C1471 1.400 . S
C1468 H1453 0.960 . S
C1468 H1454 0.960 . S
C1468 H1455 0.960 . S
C1468 C1467 1.524 . S
C1469 C1466 1.403 . S
C1469 C1470 1.392 . S
C1469 C1473 1.495 . S
C1470 C1469 1.392 . S
C1470 C1471 1.385 . S
C1470 C1472 1.478 . S
C1471 H1465 0.930 . S
C1471 C1467 1.400 . S
C1471 C1470 1.385 . S
C1472 C1470 1.478 . S
C1472 C1474 1.381 . S
C1472 C1478 1.383 . S
C1473 C1469 1.495 . S
C1473 H1479 0.959 . S
C1473 H1480 0.961 . S
C1473 H1481 0.960 . S
C1474 C1472 1.381 . S
C1474 C1475 1.394 . S
C1474 H1482 0.930 . S
C1475 C1474 1.394 . S
C1475 C1476 1.383 . S
C1475 H1483 0.929 . S
C1476 C1475 1.383 . S
C1476 C1477 1.377 . S
C1477 H1461 0.930 . S
C1477 C1476 1.377 . S
C1477 C1478 1.379 . S
C1478 H1462 0.931 . S
C1478 C1472 1.383 . S
C1478 C1477 1.379 . S
H1479 C1473 0.959 . S
H1480 C1473 0.961 . S
H1481 C1473 0.960 . S
H1482 C1474 0.930 . S
H1483 C1475 0.929 . S
H1484 C1492 0.929 . S
H1485 C1494 0.930 . S
H1486 C1496 0.930 . S
H1487 C1499 0.929 . S
H1488 C1502 0.930 . S
H1489 C1504 0.960 . S
H1490 C1504 0.960 . S
H1491 C1504 0.960 . S
C1492 H1484 0.929 . S
C1492 C1493 1.377 . S
C1492 C1494 1.384 . S
C1493 C1492 1.377 . S
C1493 C1499 1.390 . S
C1494 H1485 0.930 . S
C1494 C1492 1.384 . S
C1494 C1495 1.372 . S
C1495 C1494 1.372 . S
C1495 C1496 1.400 . S
C1495 C1500 1.490 . S
C1496 H1486 0.930 . S
C1496 C1495 1.400 . S
C1496 C1499 1.386 . S
H1497 C1513 0.930 . S
H1498 C1514 0.931 . S
C1499 H1487 0.929 . S
C1499 C1493 1.390 . S
C1499 C1496 1.386 . S
C1500 C1495 1.490 . S
C1500 C1502 1.395 . S
C1500 C1503 1.403 . S
H1501 C1507 0.930 . S
C1502 H1488 0.930 . S
C1502 C1500 1.395 . S
C1502 C1505 1.403 . S
C1503 C1500 1.403 . S
C1503 C1504 1.524 . S
C1503 C1507 1.400 . S
C1504 H1489 0.960 . S
C1504 H1490 0.960 . S
C1504 H1491 0.960 . S
C1504 C1503 1.524 . S
C1505 C1502 1.403 . S
C1505 C1506 1.392 . S
C1505 C1509 1.495 . S
C1506 C1505 1.392 . S
C1506 C1507 1.385 . S
C1506 C1508 1.478 . S
C1507 H1501 0.930 . S
C1507 C1503 1.400 . S
C1507 C1506 1.385 . S
C1508 C1506 1.478 . S
C1508 C1510 1.381 . S
C1508 C1514 1.383 . S
C1509 C1505 1.495 . S
C1509 H1515 0.959 . S
C1509 H1516 0.961 . S
C1509 H1517 0.960 . S
C1510 C1508 1.381 . S
C1510 C1511 1.394 . S
C1510 H1518 0.930 . S
C1511 C1510 1.394 . S
C1511 C1512 1.383 . S
C1511 H1519 0.929 . S
C1512 C1511 1.383 . S
C1512 C1513 1.377 . S
C1513 H1497 0.930 . S
C1513 C1512 1.377 . S
C1513 C1514 1.379 . S
C1514 H1498 0.931 . S
C1514 C1508 1.383 . S
C1514 C1513 1.379 . S
H1515 C1509 0.959 . S
H1516 C1509 0.961 . S
H1517 C1509 0.960 . S
H1518 C1510 0.930 . S
H1519 C1511 0.929 . S
H1520 C1528 0.929 . S
H1521 C1530 0.930 . S
H1522 C1532 0.930 1_455 S
H1523 C1535 0.929 . S
H1524 C1538 0.930 . S
H1525 C1540 0.960 . S
H1526 C1540 0.960 . S
H1527 C1540 0.960 . S
C1528 H1520 0.929 . S
C1528 C1529 1.377 . S
C1528 C1530 1.384 . S
C1529 C1528 1.377 . S
C1529 C1535 1.390 . S
C1530 H1521 0.930 . S
C1530 C1528 1.384 . S
C1530 C1531 1.372 . S
C1531 C1530 1.372 . S
C1531 C1532 1.400 . S
C1531 C1536 1.490 . S
C1532 H1522 0.930 1_655 S
C1532 C1531 1.400 . S
C1532 C1535 1.386 . S
H1533 C1549 0.930 . S
H1534 C1550 0.931 . S
C1535 H1523 0.929 . S
C1535 C1529 1.390 . S
C1535 C1532 1.386 . S
C1536 C1531 1.490 . S
C1536 C1538 1.395 1_554 S
C1536 C1539 1.402 . S
H1537 C1543 0.930 . S
C1538 H1524 0.930 . S
C1538 C1536 1.395 1_556 S
C1538 C1541 1.403 . S
C1539 C1536 1.402 . S
C1539 C1540 1.524 1_655 S
C1539 C1543 1.400 1_655 S
C1540 H1525 0.960 . S
C1540 H1526 0.960 . S
C1540 H1527 0.960 . S
C1540 C1539 1.524 1_455 S
C1541 C1538 1.403 . S
C1541 C1542 1.392 . S
C1541 C1545 1.495 . S
C1542 C1541 1.392 . S
C1542 C1543 1.385 1_656 S
C1542 C1544 1.478 . S
C1543 H1537 0.930 . S
C1543 C1539 1.400 1_455 S
C1543 C1542 1.385 1_454 S
C1544 C1542 1.478 . S
C1544 C1546 1.381 . S
C1544 C1550 1.383 1_655 S
C1545 C1541 1.495 . S
C1545 H1551 0.959 . S
C1545 H1552 0.961 . S
C1545 H1553 0.960 . S
C1546 C1544 1.381 . S
C1546 C1547 1.394 . S
C1546 H1554 0.930 . S
C1547 C1546 1.394 . S
C1547 C1548 1.360 1_655 S
C1547 H1555 0.929 . S
C1548 C1547 1.360 1_455 S
C1548 C1549 1.389 . S
C1549 H1533 0.930 . S
C1549 C1548 1.389 . S
C1549 C1550 1.379 . S
C1550 H1534 0.931 . S
C1550 C1544 1.383 1_455 S
C1550 C1549 1.379 . S
H1551 C1545 0.959 . S
H1552 C1545 0.961 . S
H1553 C1545 0.960 . S
H1554 C1546 0.930 . S
H1555 C1547 0.929 . S
H1556 C1564 0.929 . S
H1557 C1566 0.930 . S
H1558 C1568 0.930 . S
H1559 C1571 0.929 . S
H1560 C1574 0.930 . S
H1561 C1576 0.960 . S
H1562 C1576 0.960 . S
H1563 C1576 0.960 . S
C1564 H1556 0.929 . S
C1564 C1565 1.377 . S
C1564 C1566 1.384 . S
C1565 C1564 1.377 . S
C1565 C1571 1.390 . S
C1566 H1557 0.930 . S
C1566 C1564 1.384 . S
C1566 C1567 1.372 . S
C1567 C1566 1.372 . S
C1567 C1568 1.400 . S
C1567 C1572 1.490 . S
C1568 H1558 0.930 . S
C1568 C1567 1.400 . S
C1568 C1571 1.386 . S
H1569 C1585 0.930 . S
H1570 C1586 0.931 . S
C1571 H1559 0.929 . S
C1571 C1565 1.390 . S
C1571 C1568 1.386 . S
C1572 C1567 1.490 . S
C1572 C1574 1.395 . S
C1572 C1575 1.403 . S
H1573 C1579 0.930 . S
C1574 H1560 0.930 . S
C1574 C1572 1.395 . S
C1574 C1577 1.403 . S
C1575 C1572 1.403 . S
C1575 C1576 1.524 . S
C1575 C1579 1.400 . S
C1576 H1561 0.960 . S
C1576 H1562 0.960 . S
C1576 H1563 0.960 . S
C1576 C1575 1.524 . S
C1577 C1574 1.403 . S
C1577 C1578 1.392 . S
C1577 C1581 1.495 . S
C1578 C1577 1.392 . S
C1578 C1579 1.385 . S
C1578 C1580 1.478 . S
C1579 H1573 0.930 . S
C1579 C1575 1.400 . S
C1579 C1578 1.385 . S
C1580 C1578 1.478 . S
C1580 C1582 1.381 . S
C1580 C1586 1.383 . S
C1581 C1577 1.495 . S
C1581 H1587 0.959 . S
C1581 H1588 0.961 . S
C1581 H1589 0.960 . S
C1582 C1580 1.381 . S
C1582 C1583 1.394 . S
C1582 H1590 0.930 . S
C1583 C1582 1.394 . S
C1583 C1584 1.383 . S
C1583 H1591 0.929 . S
C1584 C1583 1.383 . S
C1584 C1585 1.377 . S
C1585 H1569 0.930 . S
C1585 C1584 1.377 . S
C1585 C1586 1.379 . S
C1586 H1570 0.931 . S
C1586 C1580 1.383 . S
C1586 C1585 1.379 . S
H1587 C1581 0.959 . S
H1588 C1581 0.961 . S
H1589 C1581 0.960 . S
H1590 C1582 0.930 . S
H1591 C1583 0.929 . S
H1592 C1600 0.929 . S
H1593 C1602 0.930 . S
H1594 C1604 0.930 1_556 S
H1595 C1607 0.929 . S
H1596 C1610 0.930 . S
H1597 C1612 0.960 . S
H1598 C1612 0.960 . S
H1599 C1612 0.960 . S
C1600 H1592 0.929 . S
C1600 C1601 1.377 . S
C1600 C1602 1.384 . S
C1601 C1600 1.377 . S
C1601 C1607 1.390 . S
C1602 H1593 0.930 . S
C1602 C1600 1.384 . S
C1602 C1603 1.372 . S
C1603 C1602 1.372 . S
C1603 C1604 1.400 . S
C1603 C1608 1.490 . S
C1604 H1594 0.930 1_554 S
C1604 C1603 1.400 . S
C1604 C1607 1.386 . S
H1605 C1621 0.930 . S
H1606 C1622 0.931 . S
C1607 H1595 0.929 . S
C1607 C1601 1.390 . S
C1607 C1604 1.386 . S
C1608 C1603 1.490 . S
C1608 C1610 1.395 . S
C1608 C1611 1.403 1_554 S
H1609 C1615 0.919 1_655 S
C1610 H1596 0.930 . S
C1610 C1608 1.395 . S
C1610 C1613 1.403 . S
C1611 C1608 1.403 1_556 S
C1611 C1612 1.524 1_455 S
C1611 C1615 1.400 . S
C1612 H1597 0.960 . S
C1612 H1598 0.960 . S
C1612 H1599 0.960 . S
C1612 C1611 1.524 1_655 S
C1613 C1610 1.403 . S
C1613 C1614 1.392 1_554 S
C1613 C1617 1.495 . S
C1614 C1613 1.392 1_556 S
C1614 C1615 1.385 . S
C1614 C1616 1.478 . S
C1615 H1609 0.919 1_455 S
C1615 C1611 1.400 . S
C1615 C1614 1.385 . S
C1616 C1614 1.478 . S
C1616 C1618 1.381 . S
C1616 C1622 1.383 . S
C1617 C1613 1.495 . S
C1617 H1623 0.959 . S
C1617 H1624 0.954 1_554 S
C1617 H1625 0.960 . S
C1618 C1616 1.381 . S
C1618 C1619 1.394 . S
C1618 H1626 0.930 1_556 S
C1619 C1618 1.394 . S
C1619 C1620 1.383 . S
C1619 H1627 0.929 . S
C1620 C1619 1.383 . S
C1620 C1621 1.377 . S
C1621 H1605 0.930 . S
C1621 C1620 1.377 . S
C1621 C1622 1.379 . S
C1622 H1606 0.931 . S
C1622 C1616 1.383 . S
C1622 C1621 1.379 . S
H1623 C1617 0.959 . S
H1624 C1617 0.954 1_556 S
H1625 C1617 0.960 . S
H1626 C1618 0.930 1_554 S
H1627 C1619 0.929 . S
H1628 C1636 0.929 . S
H1629 C1638 0.930 . S
H1630 C1640 0.930 . S
H1631 C1643 0.929 . S
H1632 C1646 0.930 . S
H1633 C1648 0.960 . S
H1634 C1648 0.960 . S
H1635 C1648 0.960 . S
C1636 H1628 0.929 . S
C1636 C1637 1.377 . S
C1636 C1638 1.384 . S
C1637 C1636 1.377 . S
C1637 C1643 1.390 . S
C1638 H1629 0.930 . S
C1638 C1636 1.384 . S
C1638 C1639 1.372 . S
C1639 C1638 1.372 . S
C1639 C1640 1.400 . S
C1639 C1644 1.490 . S
C1640 H1630 0.930 . S
C1640 C1639 1.400 . S
C1640 C1643 1.386 . S
H1641 C1657 0.930 . S
H1642 C1658 0.931 . S
C1643 H1631 0.929 . S
C1643 C1637 1.390 . S
C1643 C1640 1.386 . S
C1644 C1639 1.490 . S
C1644 C1646 1.395 . S
C1644 C1647 1.403 . S
H1645 C1651 0.930 . S
C1646 H1632 0.930 . S
C1646 C1644 1.395 . S
C1646 C1649 1.403 . S
C1647 C1644 1.403 . S
C1647 C1648 1.524 . S
C1647 C1651 1.400 . S
C1648 H1633 0.960 . S
C1648 H1634 0.960 . S
C1648 H1635 0.960 . S
C1648 C1647 1.524 . S
C1649 C1646 1.403 . S
C1649 C1650 1.392 . S
C1649 C1653 1.495 . S
C1650 C1649 1.392 . S
C1650 C1651 1.385 . S
C1650 C1652 1.478 . S
C1651 H1645 0.930 . S
C1651 C1647 1.400 . S
C1651 C1650 1.385 . S
C1652 C1650 1.478 . S
C1652 C1654 1.381 . S
C1652 C1658 1.383 . S
C1653 C1649 1.495 . S
C1653 H1659 0.959 . S
C1653 H1660 0.961 . S
C1653 H1661 0.960 . S
C1654 C1652 1.381 . S
C1654 C1655 1.394 . S
C1654 H1662 0.930 . S
C1655 C1654 1.394 . S
C1655 C1656 1.383 . S
C1655 H1663 0.929 . S
C1656 C1655 1.383 . S
C1656 C1657 1.377 . S
C1657 H1641 0.930 . S
C1657 C1656 1.377 . S
C1657 C1658 1.379 . S
C1658 H1642 0.931 . S
C1658 C1652 1.383 . S
C1658 C1657 1.379 . S
H1659 C1653 0.959 . S
H1660 C1653 0.961 . S
H1661 C1653 0.960 . S
H1662 C1654 0.930 . S
H1663 C1655 0.929 . S
H1664 C1672 0.929 . S
H1665 C1674 0.930 . S
H1666 C1676 0.930 . S
H1667 C1679 0.929 . S
H1668 C1682 0.930 . S
H1669 C1684 0.960 . S
H1670 C1684 0.960 . S
H1671 C1684 0.960 . S
C1672 H1664 0.929 . S
C1672 C1673 1.377 . S
C1672 C1674 1.384 . S
C1673 C1672 1.377 . S
C1673 C1679 1.390 . S
C1674 H1665 0.930 . S
C1674 C1672 1.384 . S
C1674 C1675 1.372 . S
C1675 C1674 1.372 . S
C1675 C1676 1.400 . S
C1675 C1680 1.490 . S
C1676 H1666 0.930 . S
C1676 C1675 1.400 . S
C1676 C1679 1.386 . S
H1677 C1693 0.930 . S
H1678 C1694 0.931 . S
C1679 H1667 0.929 . S
C1679 C1673 1.390 . S
C1679 C1676 1.386 . S
C1680 C1675 1.490 . S
C1680 C1682 1.395 . S
C1680 C1683 1.403 . S
H1681 C1687 0.930 . S
C1682 H1668 0.930 . S
C1682 C1680 1.395 . S
C1682 C1685 1.403 . S
C1683 C1680 1.403 . S
C1683 C1684 1.524 . S
C1683 C1687 1.400 . S
C1684 H1669 0.960 . S
C1684 H1670 0.960 . S
C1684 H1671 0.960 . S
C1684 C1683 1.524 . S
C1685 C1682 1.403 . S
C1685 C1686 1.392 . S
C1685 C1689 1.495 . S
C1686 C1685 1.392 . S
C1686 C1687 1.385 . S
C1686 C1688 1.478 . S
C1687 H1681 0.930 . S
C1687 C1683 1.400 . S
C1687 C1686 1.385 . S
C1688 C1686 1.478 . S
C1688 C1690 1.381 . S
C1688 C1694 1.383 . S
C1689 C1685 1.495 . S
C1689 H1695 0.959 . S
C1689 H1696 0.961 . S
C1689 H1697 0.960 . S
C1690 C1688 1.381 . S
C1690 C1691 1.394 . S
C1690 H1698 0.930 . S
C1691 C1690 1.394 . S
C1691 C1692 1.383 . S
C1691 H1699 0.929 . S
C1692 C1691 1.383 . S
C1692 C1693 1.377 . S
C1693 H1677 0.930 . S
C1693 C1692 1.377 . S
C1693 C1694 1.379 . S
C1694 H1678 0.931 . S
C1694 C1688 1.383 . S
C1694 C1693 1.379 . S
H1695 C1689 0.959 . S
H1696 C1689 0.961 . S
H1697 C1689 0.960 . S
H1698 C1690 0.930 . S
H1699 C1691 0.929 . S
H1700 C1708 0.929 . S
H1701 C1710 0.930 . S
H1702 C1712 0.930 . S
H1703 C1715 0.929 . S
H1704 C1718 0.930 . S
H1705 C1720 0.960 . S
H1706 C1720 0.960 . S
H1707 C1720 0.960 . S
C1708 H1700 0.929 . S
C1708 C1709 1.377 . S
C1708 C1710 1.384 . S
C1709 C1708 1.377 . S
C1709 C1715 1.390 . S
C1710 H1701 0.930 . S
C1710 C1708 1.384 . S
C1710 C1711 1.372 . S
C1711 C1710 1.372 . S
C1711 C1712 1.400 . S
C1711 C1716 1.490 . S
C1712 H1702 0.930 . S
C1712 C1711 1.400 . S
C1712 C1715 1.386 . S
H1713 C1729 0.930 . S
H1714 C1730 0.931 . S
C1715 H1703 0.929 . S
C1715 C1709 1.390 . S
C1715 C1712 1.386 . S
C1716 C1711 1.490 . S
C1716 C1718 1.395 . S
C1716 C1719 1.403 . S
H1717 C1723 0.930 . S
C1718 H1704 0.930 . S
C1718 C1716 1.395 . S
C1718 C1721 1.403 . S
C1719 C1716 1.403 . S
C1719 C1720 1.524 . S
C1719 C1723 1.400 . S
C1720 H1705 0.960 . S
C1720 H1706 0.960 . S
C1720 H1707 0.960 . S
C1720 C1719 1.524 . S
C1721 C1718 1.403 . S
C1721 C1722 1.392 . S
C1721 C1725 1.495 . S
C1722 C1721 1.392 . S
C1722 C1723 1.385 . S
C1722 C1724 1.478 . S
C1723 H1717 0.930 . S
C1723 C1719 1.400 . S
C1723 C1722 1.385 . S
C1724 C1722 1.478 . S
C1724 C1726 1.381 . S
C1724 C1730 1.383 . S
C1725 C1721 1.495 . S
C1725 H1731 0.959 . S
C1725 H1732 0.961 . S
C1725 H1733 0.960 . S
C1726 C1724 1.381 . S
C1726 C1727 1.394 . S
C1726 H1734 0.930 . S
C1727 C1726 1.394 . S
C1727 C1728 1.383 . S
C1727 H1735 0.929 . S
C1728 C1727 1.383 . S
C1728 C1729 1.377 . S
C1729 H1713 0.930 . S
C1729 C1728 1.377 . S
C1729 C1730 1.379 . S
C1730 H1714 0.931 . S
C1730 C1724 1.383 . S
C1730 C1729 1.379 . S
H1731 C1725 0.959 . S
H1732 C1725 0.961 . S
H1733 C1725 0.960 . S
H1734 C1726 0.930 . S
H1735 C1727 0.929 . S
H1736 C1744 0.929 . S
H1737 C1746 0.930 . S
H1738 C1748 0.930 . S
H1739 C1751 0.929 . S
H1740 C1754 0.930 . S
H1741 C1756 0.960 . S
H1742 C1756 0.960 . S
H1743 C1756 0.960 . S
C1744 H1736 0.929 . S
C1744 C1745 1.377 . S
C1744 C1746 1.384 . S
C1745 C1744 1.377 . S
C1745 C1751 1.390 . S
C1746 H1737 0.930 . S
C1746 C1744 1.384 . S
C1746 C1747 1.372 . S
C1747 C1746 1.372 . S
C1747 C1748 1.400 . S
C1747 C1752 1.490 . S
C1748 H1738 0.930 . S
C1748 C1747 1.400 . S
C1748 C1751 1.386 . S
H1749 C1765 0.930 . S
H1750 C1766 0.931 . S
C1751 H1739 0.929 . S
C1751 C1745 1.390 . S
C1751 C1748 1.386 . S
C1752 C1747 1.490 . S
C1752 C1754 1.395 . S
C1752 C1755 1.403 . S
H1753 C1759 0.930 . S
C1754 H1740 0.930 . S
C1754 C1752 1.395 . S
C1754 C1757 1.403 . S
C1755 C1752 1.403 . S
C1755 C1756 1.524 . S
C1755 C1759 1.400 . S
C1756 H1741 0.960 . S
C1756 H1742 0.960 . S
C1756 H1743 0.960 . S
C1756 C1755 1.524 . S
C1757 C1754 1.403 . S
C1757 C1758 1.392 . S
C1757 C1761 1.495 . S
C1758 C1757 1.392 . S
C1758 C1759 1.385 . S
C1758 C1760 1.478 . S
C1759 H1753 0.930 . S
C1759 C1755 1.400 . S
C1759 C1758 1.385 . S
C1760 C1758 1.478 . S
C1760 C1762 1.381 . S
C1760 C1766 1.383 . S
C1761 C1757 1.495 . S
C1761 H1767 0.959 . S
C1761 H1768 0.961 . S
C1761 H1769 0.960 . S
C1762 C1760 1.381 . S
C1762 C1763 1.394 . S
C1762 H1770 0.930 . S
C1763 C1762 1.394 . S
C1763 C1764 1.383 . S
C1763 H1771 0.929 . S
C1764 C1763 1.383 . S
C1764 C1765 1.377 . S
C1765 H1749 0.930 . S
C1765 C1764 1.377 . S
C1765 C1766 1.379 . S
C1766 H1750 0.931 . S
C1766 C1760 1.383 . S
C1766 C1765 1.379 . S
H1767 C1761 0.959 . S
H1768 C1761 0.961 . S
H1769 C1761 0.960 . S
H1770 C1762 0.930 . S
H1771 C1763 0.929 . S
H1772 C1780 0.929 . S
H1773 C1782 0.930 . S
H1774 C1784 0.930 . S
H1775 C1787 0.929 . S
H1776 C1790 0.930 . S
H1777 C1792 0.960 . S
H1778 C1792 0.960 . S
H1779 C1792 0.960 . S
C1780 H1772 0.929 . S
C1780 C1781 1.377 . S
C1780 C1782 1.384 . S
C1781 C1780 1.377 . S
C1781 C1787 1.390 . S
C1782 H1773 0.930 . S
C1782 C1780 1.384 . S
C1782 C1783 1.372 . S
C1783 C1782 1.372 . S
C1783 C1784 1.400 . S
C1783 C1788 1.490 . S
C1784 H1774 0.930 . S
C1784 C1783 1.400 . S
C1784 C1787 1.386 . S
H1785 C1801 0.930 . S
H1786 C1802 0.931 . S
C1787 H1775 0.929 . S
C1787 C1781 1.390 . S
C1787 C1784 1.386 . S
C1788 C1783 1.490 . S
C1788 C1790 1.395 . S
C1788 C1791 1.403 . S
H1789 C1795 0.930 . S
C1790 H1776 0.930 . S
C1790 C1788 1.395 . S
C1790 C1793 1.403 . S
C1791 C1788 1.403 . S
C1791 C1792 1.524 . S
C1791 C1795 1.400 . S
C1792 H1777 0.960 . S
C1792 H1778 0.960 . S
C1792 H1779 0.960 . S
C1792 C1791 1.524 . S
C1793 C1790 1.403 . S
C1793 C1794 1.392 . S
C1793 C1797 1.495 . S
C1794 C1793 1.392 . S
C1794 C1795 1.385 . S
C1794 C1796 1.478 . S
C1795 H1789 0.930 . S
C1795 C1791 1.400 . S
C1795 C1794 1.385 . S
C1796 C1794 1.478 . S
C1796 C1798 1.381 . S
C1796 C1802 1.383 . S
C1797 C1793 1.495 . S
C1797 H1803 0.959 . S
C1797 H1804 0.961 . S
C1797 H1805 0.960 . S
C1798 C1796 1.381 . S
C1798 C1799 1.394 . S
C1798 H1806 0.930 . S
C1799 C1798 1.394 . S
C1799 C1800 1.383 . S
C1799 H1807 0.929 . S
C1800 C1799 1.383 . S
C1800 C1801 1.377 . S
C1801 H1785 0.930 . S
C1801 C1800 1.377 . S
C1801 C1802 1.379 . S
C1802 H1786 0.931 . S
C1802 C1796 1.383 . S
C1802 C1801 1.379 . S
H1803 C1797 0.959 . S
H1804 C1797 0.961 . S
H1805 C1797 0.960 . S
H1806 C1798 0.930 . S
H1807 C1799 0.929 . S
H1808 C1816 0.929 . S
H1809 C1818 0.930 . S
H1810 C1820 0.930 . S
H1811 C1823 0.929 . S
H1812 C1826 0.930 . S
H1813 C1828 0.960 . S
H1814 C1828 0.960 . S
H1815 C1828 0.960 . S
C1816 H1808 0.929 . S
C1816 C1817 1.377 . S
C1816 C1818 1.384 . S
C1817 C1816 1.377 . S
C1817 C1823 1.390 . S
C1818 H1809 0.930 . S
C1818 C1816 1.384 . S
C1818 C1819 1.372 . S
C1819 C1818 1.372 . S
C1819 C1820 1.400 . S
C1819 C1824 1.490 . S
C1820 H1810 0.930 . S
C1820 C1819 1.400 . S
C1820 C1823 1.386 . S
H1821 C1837 0.930 . S
H1822 C1838 0.931 . S
C1823 H1811 0.929 . S
C1823 C1817 1.390 . S
C1823 C1820 1.386 . S
C1824 C1819 1.490 . S
C1824 C1826 1.395 . S
C1824 C1827 1.403 . S
H1825 C1831 0.930 . S
C1826 H1812 0.930 . S
C1826 C1824 1.395 . S
C1826 C1829 1.403 . S
C1827 C1824 1.403 . S
C1827 C1828 1.524 . S
C1827 C1831 1.400 . S
C1828 H1813 0.960 . S
C1828 H1814 0.960 . S
C1828 H1815 0.960 . S
C1828 C1827 1.524 . S
C1829 C1826 1.403 . S
C1829 C1830 1.392 . S
C1829 C1833 1.495 . S
C1830 C1829 1.392 . S
C1830 C1831 1.385 . S
C1830 C1832 1.478 . S
C1831 H1825 0.930 . S
C1831 C1827 1.400 . S
C1831 C1830 1.385 . S
C1832 C1830 1.478 . S
C1832 C1834 1.381 . S
C1832 C1838 1.383 . S
C1833 C1829 1.495 . S
C1833 H1839 0.959 . S
C1833 H1840 0.961 . S
C1833 H1841 0.960 . S
C1834 C1832 1.381 . S
C1834 C1835 1.394 . S
C1834 H1842 0.930 . S
C1835 C1834 1.394 . S
C1835 C1836 1.383 . S
C1835 H1843 0.929 . S
C1836 C1835 1.383 . S
C1836 C1837 1.377 . S
C1837 H1821 0.930 . S
C1837 C1836 1.377 . S
C1837 C1838 1.379 . S
C1838 H1822 0.931 . S
C1838 C1832 1.383 . S
C1838 C1837 1.379 . S
H1839 C1833 0.959 . S
H1840 C1833 0.961 . S
H1841 C1833 0.960 . S
H1842 C1834 0.930 . S
H1843 C1835 0.929 . S
H1844 C1852 0.929 . S
H1845 C1854 0.930 . S
H1846 C1856 0.930 . S
H1847 C1859 0.929 . S
H1848 C1862 0.930 . S
H1849 C1864 0.960 . S
H1850 C1864 0.960 . S
H1851 C1864 0.960 . S
C1852 H1844 0.929 . S
C1852 C1853 1.377 . S
C1852 C1854 1.384 . S
C1853 C1852 1.377 . S
C1853 C1859 1.390 . S
C1854 H1845 0.930 . S
C1854 C1852 1.384 . S
C1854 C1855 1.372 . S
C1855 C1854 1.372 . S
C1855 C1856 1.400 . S
C1855 C1860 1.490 . S
C1856 H1846 0.930 . S
C1856 C1855 1.400 . S
C1856 C1859 1.386 . S
H1857 C1873 0.930 . S
H1858 C1874 0.931 . S
C1859 H1847 0.929 . S
C1859 C1853 1.390 . S
C1859 C1856 1.386 . S
C1860 C1855 1.490 . S
C1860 C1862 1.395 . S
C1860 C1863 1.403 . S
H1861 C1867 0.930 . S
C1862 H1848 0.930 . S
C1862 C1860 1.395 . S
C1862 C1865 1.403 . S
C1863 C1860 1.403 . S
C1863 C1864 1.524 . S
C1863 C1867 1.400 . S
C1864 H1849 0.960 . S
C1864 H1850 0.960 . S
C1864 H1851 0.960 . S
C1864 C1863 1.524 . S
C1865 C1862 1.403 . S
C1865 C1866 1.392 . S
C1865 C1869 1.495 . S
C1866 C1865 1.392 . S
C1866 C1867 1.385 . S
C1866 C1868 1.478 . S
C1867 H1861 0.930 . S
C1867 C1863 1.400 . S
C1867 C1866 1.385 . S
C1868 C1866 1.478 . S
C1868 C1870 1.381 . S
C1868 C1874 1.383 . S
C1869 C1865 1.495 . S
C1869 H1875 0.959 . S
C1869 H1876 0.961 . S
C1869 H1877 0.960 . S
C1870 C1868 1.381 . S
C1870 C1871 1.394 . S
C1870 H1878 0.930 . S
C1871 C1870 1.394 . S
C1871 C1872 1.383 . S
C1871 H1879 0.929 . S
C1872 C1871 1.383 . S
C1872 C1873 1.377 . S
C1873 H1857 0.930 . S
C1873 C1872 1.377 . S
C1873 C1874 1.379 . S
C1874 H1858 0.931 . S
C1874 C1868 1.383 . S
C1874 C1873 1.379 . S
H1875 C1869 0.959 . S
H1876 C1869 0.961 . S
H1877 C1869 0.960 . S
H1878 C1870 0.930 . S
H1879 C1871 0.929 . S
H1880 C1888 0.929 . S
H1881 C1890 0.930 . S
H1882 C1892 0.930 . S
H1883 C1895 0.929 . S
H1884 C1898 0.930 . S
H1885 C1900 0.960 . S
H1886 C1900 0.960 . S
H1887 C1900 0.960 . S
C1888 H1880 0.929 . S
C1888 C1889 1.377 . S
C1888 C1890 1.384 . S
C1889 C1888 1.377 . S
C1889 C1895 1.390 . S
C1890 H1881 0.930 . S
C1890 C1888 1.384 . S
C1890 C1891 1.372 . S
C1891 C1890 1.372 . S
C1891 C1892 1.400 . S
C1891 C1896 1.490 . S
C1892 H1882 0.930 . S
C1892 C1891 1.400 . S
C1892 C1895 1.386 . S
H1893 C1909 0.930 . S
H1894 C1910 0.931 . S
C1895 H1883 0.929 . S
C1895 C1889 1.390 . S
C1895 C1892 1.386 . S
C1896 C1891 1.490 . S
C1896 C1898 1.395 . S
C1896 C1899 1.403 . S
H1897 C1903 0.930 . S
C1898 H1884 0.930 . S
C1898 C1896 1.395 . S
C1898 C1901 1.403 . S
C1899 C1896 1.403 . S
C1899 C1900 1.524 . S
C1899 C1903 1.400 . S
C1900 H1885 0.960 . S
C1900 H1886 0.960 . S
C1900 H1887 0.960 . S
C1900 C1899 1.524 . S
C1901 C1898 1.403 . S
C1901 C1902 1.392 . S
C1901 C1905 1.495 . S
C1902 C1901 1.392 . S
C1902 C1903 1.385 . S
C1902 C1904 1.478 . S
C1903 H1897 0.930 . S
C1903 C1899 1.400 . S
C1903 C1902 1.385 . S
C1904 C1902 1.478 . S
C1904 C1906 1.381 . S
C1904 C1910 1.383 . S
C1905 C1901 1.495 . S
C1905 H1911 0.959 . S
C1905 H1912 0.961 . S
C1905 H1913 0.960 . S
C1906 C1904 1.381 . S
C1906 C1907 1.394 . S
C1906 H1914 0.930 . S
C1907 C1906 1.394 . S
C1907 C1908 1.383 . S
C1907 H1915 0.929 . S
C1908 C1907 1.383 . S
C1908 C1909 1.377 . S
C1909 H1893 0.930 . S
C1909 C1908 1.377 . S
C1909 C1910 1.379 . S
C1910 H1894 0.931 . S
C1910 C1904 1.383 . S
C1910 C1909 1.379 . S
H1911 C1905 0.959 . S
H1912 C1905 0.961 . S
H1913 C1905 0.960 . S
H1914 C1906 0.930 . S
H1915 C1907 0.929 . S
H1916 C1924 0.929 . S
H1917 C1926 0.930 . S
H1918 C1928 0.930 . S
H1919 C1931 0.929 . S
H1920 C1934 0.930 . S
H1921 C1936 0.960 . S
H1922 C1936 0.960 . S
H1923 C1936 0.960 . S
C1924 H1916 0.929 . S
C1924 C1925 1.377 . S
C1924 C1926 1.384 . S
C1925 C1924 1.377 . S
C1925 C1931 1.390 . S
C1926 H1917 0.930 . S
C1926 C1924 1.384 . S
C1926 C1927 1.372 . S
C1927 C1926 1.372 . S
C1927 C1928 1.400 . S
C1927 C1932 1.490 . S
C1928 H1918 0.930 . S
C1928 C1927 1.400 . S
C1928 C1931 1.386 . S
H1929 C1945 0.930 . S
H1930 C1946 0.931 . S
C1931 H1919 0.929 . S
C1931 C1925 1.390 . S
C1931 C1928 1.386 . S
C1932 C1927 1.490 . S
C1932 C1934 1.395 . S
C1932 C1935 1.403 1_556 S
H1933 C1939 0.930 . S
C1934 H1920 0.930 . S
C1934 C1932 1.395 . S
C1934 C1937 1.403 . S
C1935 C1932 1.403 1_554 S
C1935 C1936 1.524 . S
C1935 C1939 1.400 . S
C1936 H1921 0.960 . S
C1936 H1922 0.960 . S
C1936 H1923 0.960 . S
C1936 C1935 1.524 . S
C1937 C1934 1.403 . S
C1937 C1938 1.392 . S
C1937 C1941 1.495 . S
C1938 C1937 1.392 . S
C1938 C1939 1.385 1_556 S
C1938 C1940 1.478 . S
C1939 H1933 0.930 . S
C1939 C1935 1.400 . S
C1939 C1938 1.385 1_554 S
C1940 C1938 1.478 . S
C1940 C1942 1.381 . S
C1940 C1946 1.383 . S
C1941 C1937 1.495 . S
C1941 H1947 0.959 . S
C1941 H1948 0.961 . S
C1941 H1949 0.960 . S
C1942 C1940 1.381 . S
C1942 C1943 1.394 . S
C1942 H1950 0.930 . S
C1943 C1942 1.394 . S
C1943 C1944 1.383 . S
C1943 H1951 0.929 . S
C1944 C1943 1.383 . S
C1944 C1945 1.377 . S
C1945 H1929 0.930 . S
C1945 C1944 1.377 . S
C1945 C1946 1.379 . S
C1946 H1930 0.931 . S
C1946 C1940 1.383 . S
C1946 C1945 1.379 . S
H1947 C1941 0.959 . S
H1948 C1941 0.961 . S
H1949 C1941 0.960 . S
H1950 C1942 0.930 . S
H1951 C1943 0.929 . S
H1952 C1960 0.929 . S
H1953 C1962 0.930 . S
H1954 C1964 0.930 . S
H1955 C1967 0.929 . S
H1956 C1970 0.930 . S
H1957 C1972 0.960 . S
H1958 C1972 0.960 . S
H1959 C1972 0.960 . S
C1960 H1952 0.929 . S
C1960 C1961 1.377 . S
C1960 C1962 1.384 . S
C1961 C1960 1.377 . S
C1961 C1967 1.390 . S
C1962 H1953 0.930 . S
C1962 C1960 1.384 . S
C1962 C1963 1.372 . S
C1963 C1962 1.372 . S
C1963 C1964 1.400 . S
C1963 C1968 1.490 . S
C1964 H1954 0.930 . S
C1964 C1963 1.400 . S
C1964 C1967 1.386 . S
H1965 C1981 0.930 . S
H1966 C1982 0.931 . S
C1967 H1955 0.929 . S
C1967 C1961 1.390 . S
C1967 C1964 1.386 . S
C1968 C1963 1.490 . S
C1968 C1970 1.395 . S
C1968 C1971 1.403 . S
H1969 C1975 0.930 . S
C1970 H1956 0.930 . S
C1970 C1968 1.395 . S
C1970 C1973 1.403 . S
C1971 C1968 1.403 . S
C1971 C1972 1.524 . S
C1971 C1975 1.400 . S
C1972 H1957 0.960 . S
C1972 H1958 0.960 . S
C1972 H1959 0.960 . S
C1972 C1971 1.524 . S
C1973 C1970 1.403 . S
C1973 C1974 1.392 . S
C1973 C1977 1.495 . S
C1974 C1973 1.392 . S
C1974 C1975 1.385 . S
C1974 C1976 1.478 . S
C1975 H1969 0.930 . S
C1975 C1971 1.400 . S
C1975 C1974 1.385 . S
C1976 C1974 1.478 . S
C1976 C1978 1.381 . S
C1976 C1982 1.383 . S
C1977 C1973 1.495 . S
C1977 H1983 0.959 . S
C1977 H1984 0.961 . S
C1977 H1985 0.960 . S
C1978 C1976 1.381 . S
C1978 C1979 1.394 . S
C1978 H1986 0.930 . S
C1979 C1978 1.394 . S
C1979 C1980 1.383 . S
C1979 H1987 0.929 . S
C1980 C1979 1.383 . S
C1980 C1981 1.377 . S
C1981 H1965 0.930 . S
C1981 C1980 1.377 . S
C1981 C1982 1.379 . S
C1982 H1966 0.931 . S
C1982 C1976 1.383 . S
C1982 C1981 1.379 . S
H1983 C1977 0.959 . S
H1984 C1977 0.961 . S
H1985 C1977 0.960 . S
H1986 C1978 0.930 . S
H1987 C1979 0.929 . S
H1988 C1996 0.929 . S
H1989 C1998 0.930 . S
H1990 C2000 0.930 . S
H1991 C2003 0.929 . S
H1992 C2006 0.930 . S
H1993 C2008 0.960 . S
H1994 C2008 0.960 . S
H1995 C2008 0.960 . S
C1996 H1988 0.929 . S
C1996 C1997 1.377 . S
C1996 C1998 1.384 . S
C1997 C1996 1.377 . S
C1997 C2003 1.390 . S
C1998 H1989 0.930 . S
C1998 C1996 1.384 . S
C1998 C1999 1.372 . S
C1999 C1998 1.372 . S
C1999 C2000 1.400 . S
C1999 C2004 1.490 . S
C2000 H1990 0.930 . S
C2000 C1999 1.400 . S
C2000 C2003 1.386 . S
H2001 C2017 0.930 . S
H2002 C2018 0.931 . S
C2003 H1991 0.929 . S
C2003 C1997 1.390 . S
C2003 C2000 1.386 . S
C2004 C1999 1.490 . S
C2004 C2006 1.395 . S
C2004 C2007 1.403 . S
H2005 C2011 0.930 . S
C2006 H1992 0.930 . S
C2006 C2004 1.395 . S
C2006 C2009 1.403 . S
C2007 C2004 1.403 . S
C2007 C2008 1.524 . S
C2007 C2011 1.400 . S
C2008 H1993 0.960 . S
C2008 H1994 0.960 . S
C2008 H1995 0.960 . S
C2008 C2007 1.524 . S
C2009 C2006 1.403 . S
C2009 C2010 1.392 . S
C2009 C2013 1.495 . S
C2010 C2009 1.392 . S
C2010 C2011 1.385 . S
C2010 C2012 1.478 . S
C2011 H2005 0.930 . S
C2011 C2007 1.400 . S
C2011 C2010 1.385 . S
C2012 C2010 1.478 . S
C2012 C2014 1.381 . S
C2012 C2018 1.383 . S
C2013 C2009 1.495 . S
C2013 H2019 0.959 . S
C2013 H2020 0.961 . S
C2013 H2021 0.960 . S
C2014 C2012 1.381 . S
C2014 C2015 1.394 . S
C2014 H2022 0.930 . S
C2015 C2014 1.394 . S
C2015 C2016 1.383 . S
C2015 H2023 0.929 1_554 S
C2016 C2015 1.383 . S
C2016 C2017 1.377 . S
C2017 H2001 0.930 . S
C2017 C2016 1.377 . S
C2017 C2018 1.379 . S
C2018 H2002 0.931 . S
C2018 C2012 1.383 . S
C2018 C2017 1.379 . S
H2019 C2013 0.959 . S
H2020 C2013 0.961 . S
H2021 C2013 0.960 . S
H2022 C2014 0.930 . S
H2023 C2015 0.929 1_556 S
H2024 C2032 0.958 . S
H2025 C2034 0.930 . S
H2026 C2036 0.930 . S
H2027 C2039 0.929 . S
H2028 C2042 0.930 . S
H2029 C2044 0.960 . S
H2030 C2044 0.960 . S
H2031 C2044 0.960 . S
C2032 H2024 0.958 . S
C2032 C2033 1.381 . S
C2032 C2034 1.354 1_545 S
C2033 C2032 1.381 . S
C2033 C2039 1.390 1_545 S
C2034 H2025 0.930 . S
C2034 C2032 1.354 1_565 S
C2034 C2035 1.372 . S
C2035 C2034 1.372 . S
C2035 C2036 1.400 . S
C2035 C2040 1.490 . S
C2036 H2026 0.930 . S
C2036 C2035 1.400 . S
C2036 C2039 1.386 . S
H2037 C2053 0.930 . S
H2038 C2054 0.931 . S
C2039 H2027 0.929 . S
C2039 C2033 1.390 1_565 S
C2039 C2036 1.386 . S
C2040 C2035 1.490 . S
C2040 C2042 1.395 . S
C2040 C2043 1.403 . S
H2041 C2047 0.930 . S
C2042 H2028 0.930 . S
C2042 C2040 1.395 . S
C2042 C2045 1.403 . S
C2043 C2040 1.403 . S
C2043 C2044 1.524 . S
C2043 C2047 1.400 . S
C2044 H2029 0.960 . S
C2044 H2030 0.960 . S
C2044 H2031 0.960 . S
C2044 C2043 1.524 . S
C2045 C2042 1.403 . S
C2045 C2046 1.392 . S
C2045 C2049 1.495 . S
C2046 C2045 1.392 . S
C2046 C2047 1.385 . S
C2046 C2048 1.478 . S
C2047 H2041 0.930 . S
C2047 C2043 1.400 . S
C2047 C2046 1.385 . S
C2048 C2046 1.478 . S
C2048 C2050 1.381 . S
C2048 C2054 1.383 . S
C2049 C2045 1.495 . S
C2049 H2055 0.959 . S
C2049 H2056 0.961 . S
C2049 H2057 0.960 . S
C2050 C2048 1.381 . S
C2050 C2051 1.394 . S
C2050 H2058 0.897 1_554 S
C2051 C2050 1.394 . S
C2051 C2052 1.383 . S
C2051 H2059 0.929 1_554 S
C2052 C2051 1.383 . S
C2052 C2053 1.377 . S
C2053 H2037 0.930 . S
C2053 C2052 1.377 . S
C2053 C2054 1.379 . S
C2054 H2038 0.931 . S
C2054 C2048 1.383 . S
C2054 C2053 1.379 . S
H2055 C2049 0.959 . S
H2056 C2049 0.961 . S
H2057 C2049 0.960 . S
H2058 C2050 0.897 1_556 S
H2059 C2051 0.929 1_556 S
C360 C186 1.037 . S
C341 C62 1.022 . S
C396 C199 1.656 . S
C377 C73 1.619 1_455 S
C413 C84 1.461 . S
C432 C212 1.497 . S
C468 C225 1.240 . S
C449 C49 1.109 . S
C504 C233 1.362 . S
C485 C118 1.356 . S
C540 C246 1.509 . S
C521 C137 1.347 . S
C557 C129 1.571 . S
C576 C259 1.540 . S
C612 C272 1.923 . S
C593 C106 1.888 . S
C629 C128 1.778 . S
C648 C290 1.813 . S
C684 C301 1.678 . S
C665 C104 1.495 . S
C701 C115 1.588 . S
C720 C285 1.776 . S
C756 C293 1.743 . S
C737 C139 1.723 . S
C773 C85 1.588 . S
C792 C316 1.563 . S
C809 C52 1.141 . S
C828 C306 1.143 . S
C845 C60 0.874 . S
C864 C311 0.954 . S
C881 C71 1.445 . S
C900 C314 1.555 . S
C917 C40 1.669 . S
C936 C223 1.718 1_565 S
C953 C162 0.945 . S
C972 C215 0.917 . S
C1008 C184 1.075 . S
C989 C173 1.122 1_565 S
C1044 C189 1.793 . S
C1025 C93 1.596 . S
C1061 C51 1.426 1_545 S
C1080 C236 1.475 . S
C1116 C275 1.490 . S
C1097 C126 1.354 . S
C1152 C228 1.797 . S
C1133 C107 1.822 . S
C1188 C254 1.553 . S
C1169 C140 1.555 . S
C1224 C264 1.027 . S
C1205 C161 1.024 . S
C1241 C172 1.618 . S
C1260 C277 1.651 . S
C1277 C95 1.454 . S
C1296 C238 1.504 . S
C1332 C251 1.240 . S
C1313 C148 1.109 . S
C1349 C41 1.356 . S
C1368 C207 1.339 . S
C1404 C220 1.509 . S
C1385 C5 1.345 1_655 S
C1440 C181 1.562 . S
C1421 C19 1.569 . S
C1476 C194 1.915 . S
C1457 C29 1.885 . S
C1493 C18 1.775 . S
C1512 C303 1.811 . S
C1529 C27 1.507 . S
C1548 C288 1.676 . S
C1565 C38 1.578 . S
C1584 C298 1.790 . S
C1601 C7 1.722 . S
C1620 C280 1.749 . S
C1656 C329 1.588 . S
C1637 C96 1.586 . S
C1692 C319 1.105 . S
C1673 C151 1.141 . S
C1728 C324 0.919 . S
C1709 C159 0.865 . S
C1745 C170 1.442 . S
C1764 C327 1.580 . S
C1781 C117 1.664 . S
C1800 C249 1.711 . S
C1836 C241 0.921 . S
C1817 C63 0.944 . S
C1872 C262 1.095 . S
C1853 C74 1.121 . S
C1908 C267 1.792 . S
C1889 C82 1.604 . S
C1925 C150 1.428 . S
C1944 C210 1.474 1_556 S
C1980 C197 1.518 . S
C1961 C16 1.348 . S
C1997 C30 1.819 . S
C2016 C202 1.816 . S
C2052 C176 1.553 . S
C2033 C8 1.555 . S
