# Generated by pormake.
# Topology rtl, (3,6)-cn, num edge types: 1
# Building blocks:
#     Node 0, Type 0, BuildingBlock: OLANEW_clean_sbu_2, # of connection points: 3
#     Node 1, Type 0, BuildingBlock: OLANEW_clean_sbu_2, # of connection points: 3
#     Node 2, Type 0, BuildingBlock: OLANEW_clean_sbu_2, # of connection points: 3
#     Node 3, Type 0, BuildingBlock: OLANEW_clean_sbu_2, # of connection points: 3
#     Node 4, Type 1, BuildingBlock: LEVNOQ01_clean_sbu_1, # of connection points: 6
#     Node 5, Type 1, BuildingBlock: LEVNOQ01_clean_sbu_1, # of connection points: 6
#     Edge 6, Type (0, 1), BuildingBlock: UVAHIK_clean_linker_0, # of connection points: 2
#     Edge 7, Type (0, 1), BuildingBlock: UVAHIK_clean_linker_0, # of connection points: 2
#     Edge 8, Type (0, 1), BuildingBlock: UVAHIK_clean_linker_0, # of connection points: 2
#     Edge 9, Type (0, 1), BuildingBlock: UVAHIK_clean_linker_0, # of connection points: 2
#     Edge 10, Type (0, 1), BuildingBlock: UVAHIK_clean_linker_0, # of connection points: 2
#     Edge 11, Type (0, 1), BuildingBlock: UVAHIK_clean_linker_0, # of connection points: 2
#     Edge 12, Type (0, 1), BuildingBlock: UVAHIK_clean_linker_0, # of connection points: 2
#     Edge 13, Type (0, 1), BuildingBlock: UVAHIK_clean_linker_0, # of connection points: 2
#     Edge 14, Type (0, 1), BuildingBlock: UVAHIK_clean_linker_0, # of connection points: 2
#     Edge 15, Type (0, 1), BuildingBlock: UVAHIK_clean_linker_0, # of connection points: 2
#     Edge 16, Type (0, 1), BuildingBlock: UVAHIK_clean_linker_0, # of connection points: 2
#     Edge 17, Type (0, 1), BuildingBlock: UVAHIK_clean_linker_0, # of connection points: 2
# Relax obj value: 0.015
# Max RMSD: 0.123
# Mean RMSD: 0.078
data_MOF--net-rtl--node1-OLANEW_clean_sbu_2--node2-LEVNOQ01_clean_sbu_1--edge1-UVAHIK_clean_linker_0
_symmetry_space_group_name_H-M    P1
_symmetry_Int_Tables_number       1
_symmetry_cell_setting            triclinic
loop_
_symmetry_equiv_pos_as_xyz
'x, y, z'
_cell_length_a     47.465376
_cell_length_b     47.727485
_cell_length_c     30.713093
_cell_angle_alpha  87.537103
_cell_angle_beta   100.01778
_cell_angle_gamma 90.036011
loop_
_atom_site_label
_atom_site_type_symbol
_atom_site_fract_x
_atom_site_fract_y
_atom_site_fract_z
_atom_type_partial_charge
O0 O 0.20114 0.83725 0.03764 0.0
Cd1 Cd 0.22183 0.81989 0.11265 0.0
O2 O 0.22197 0.87832 0.04647 0.0
Cd3 Cd 0.23703 0.87116 0.11725 0.0
O4 O 0.22572 0.88144 0.18057 0.0
C5 C 0.19905 0.8857 0.17818 0.0
O6 O 0.18207 0.88248 0.1401 0.0
C7 C 0.20629 0.86148 0.02207 0.0
C8 C 0.26299 0.77793 0.11378 0.0
O9 O 0.23649 0.77188 0.11171 0.0
O10 O 0.27001 0.80386 0.11509 0.0
O11 O 0.69141 0.69151 0.632 0.0
Cd12 Cd 0.70437 0.71109 0.56319 0.0
O13 O 0.70783 0.64917 0.62492 0.0
Cd14 Cd 0.71332 0.65939 0.55708 0.0
O15 O 0.69534 0.66059 0.48662 0.0
C16 C 0.66877 0.6662 0.47625 0.0
O17 O 0.6545 0.67213 0.50776 0.0
C18 C 0.69658 0.66647 0.6473 0.0
C19 C 0.74211 0.756 0.57764 0.0
O20 O 0.71498 0.76014 0.56939 0.0
O21 O 0.75129 0.73066 0.5791 0.0
O22 O 0.80441 0.20144 0.06313 0.0
Cd23 Cd 0.78575 0.21541 0.98574 0.0
O24 O 0.84799 0.21607 0.06003 0.0
Cd25 Cd 0.83906 0.22253 0.98839 0.0
O26 O 0.84437 0.20412 0.92657 0.0
C27 C 0.83013 0.18236 0.91462 0.0
O28 O 0.8112 0.17295 0.93809 0.0
C29 C 0.83004 0.20543 0.08215 0.0
C30 C 0.74379 0.2573 0.9759 0.0
O31 O 0.73725 0.23132 0.97905 0.0
O32 O 0.77025 0.2635 0.97777 0.0
O33 O 0.31683 0.32287 0.53929 0.0
Cd34 Cd 0.29766 0.30631 0.4655 0.0
O35 O 0.28169 0.35309 0.53797 0.0
Cd36 Cd 0.26729 0.34943 0.46697 0.0
O37 O 0.27798 0.36435 0.40362 0.0
C38 C 0.30193 0.3768 0.40883 0.0
O39 O 0.31638 0.37847 0.44922 0.0
C40 C 0.30429 0.34097 0.55859 0.0
C41 C 0.25473 0.26636 0.46779 0.0
O42 O 0.28096 0.2589 0.47081 0.0
O43 O 0.24884 0.29265 0.46365 0.0
O44 O 0.9716 0.07171 0.60338 0.0
Mg45 Mg 0.01213 0.0546 0.60606 0.0
O46 O 0.96057 0.02885 0.58468 0.0
Mg47 Mg 0.99716 0.01263 0.54748 0.0
O48 O 0.02722 0.0529 0.54779 0.0
O49 O 0.03935 0.08565 0.59839 0.0
O50 O 0.03336 0.99481 0.51113 0.0
O51 O 0.97158 0.03428 0.48335 0.0
Mg52 Mg 0.9768 0.96982 0.48245 0.0
O53 O 0.96708 0.97324 0.54451 0.0
O54 O 0.01786 0.95522 0.48145 0.0
O55 O 0.9587 0.00144 0.43553 0.0
O56 O 0.95019 0.93954 0.49809 0.0
C57 C 0.03268 0.00024 0.65018 0.0
C58 C 0.95361 0.05227 0.59846 0.0
C59 C 0.04114 0.07553 0.56073 0.0
C60 C 0.03786 0.97231 0.49224 0.0
C61 C 0.9593 0.02699 0.44527 0.0
C62 C 0.95156 0.95097 0.53569 0.0
O63 O 0.02972 0.02585 0.6577 0.0
O64 O 0.02299 0.99122 0.61203 0.0
O65 O 0.55206 0.52062 0.10149 0.0
Mg66 Mg 0.52758 0.48579 0.08138 0.0
O67 O 0.51515 0.54436 0.06464 0.0
Mg68 Mg 0.48954 0.51568 0.01044 0.0
O69 O 0.523 0.47841 0.01518 0.0
O70 O 0.55087 0.4528 0.0695 0.0
O71 O 0.46265 0.48868 0.95517 0.0
O72 O 0.51672 0.53753 0.96148 0.0
Mg73 Mg 0.45112 0.55389 0.93732 0.0
O74 O 0.45623 0.55168 0.00453 0.0
O75 O 0.43221 0.51719 0.91128 0.0
O76 O 0.489 0.56828 0.91758 0.0
O77 O 0.4261 0.58179 0.9623 0.0
C78 C 0.46792 0.48133 0.0972 0.0
C79 C 0.53861 0.54349 0.09225 0.0
C80 C 0.5416 0.4583 0.02799 0.0
C81 C 0.44177 0.49276 0.92304 0.0
C82 C 0.51334 0.5572 0.93139 0.0
C83 C 0.43755 0.57187 0.00104 0.0
O84 O 0.49351 0.47531 0.11429 0.0
O85 O 0.4623 0.49471 0.05981 0.0
C86 C 0.20382 0.25405 0.47088 0.0
C87 C 0.23195 0.24535 0.46976 0.0
C88 C 0.18248 0.23435 0.47449 0.0
C89 C 0.16274 0.15996 0.45998 0.0
H90 H 0.11351 0.17524 0.54455 0.0
C91 C 0.08365 0.07975 0.52284 0.0
C92 C 0.05842 0.0912 0.5328 0.0
C93 C 0.1041 0.0974 0.50814 0.0
C94 C 0.12673 0.17081 0.52024 0.0
H95 H 0.25955 0.20907 0.47038 0.0
H96 H 0.22218 0.17462 0.47679 0.0
H97 H 0.15074 0.20828 0.53345 0.0
H98 H 0.03349 0.12917 0.53214 0.0
H99 H 0.06828 0.15966 0.50486 0.0
H100 H 0.13857 0.12221 0.44715 0.0
C101 C 0.21667 0.19671 0.47469 0.0
C102 C 0.14814 0.18977 0.51396 0.0
C103 C 0.2381 0.21646 0.47131 0.0
C104 C 0.05282 0.11993 0.52451 0.0
C105 C 0.07292 0.1374 0.50947 0.0
C106 C 0.14114 0.14089 0.46622 0.0
C107 C 0.18871 0.20546 0.4769 0.0
C108 C 0.16626 0.18474 0.48353 0.0
C109 C 0.0994 0.12662 0.50323 0.0
C110 C 0.12268 0.14629 0.49611 0.0
H111 H 0.1983 0.27613 0.46956 0.0
H112 H 0.16105 0.24177 0.4755 0.0
H113 H 0.17634 0.15556 0.43618 0.0
H114 H 0.08853 0.05766 0.52967 0.0
H115 H 0.12429 0.08845 0.5036 0.0
C116 C 0.27675 0.72733 0.1119 0.0
C117 C 0.28481 0.75563 0.11448 0.0
C118 C 0.29724 0.70633 0.11163 0.0
C119 C 0.36935 0.6958 0.08553 0.0
H120 H 0.36242 0.62198 0.14045 0.0
C121 C 0.44426 0.60782 0.05728 0.0
C122 C 0.42911 0.58455 0.03945 0.0
C123 C 0.43093 0.62722 0.08009 0.0
C124 C 0.36473 0.64253 0.12516 0.0
H125 H 0.32083 0.78401 0.11967 0.0
H126 H 0.3566 0.74738 0.11964 0.0
H127 H 0.33013 0.65974 0.15209 0.0
H128 H 0.38927 0.56194 0.03387 0.0
H129 H 0.36611 0.59532 0.07444 0.0
H130 H 0.40335 0.67851 0.0576 0.0
C131 C 0.33438 0.74142 0.11723 0.0
C132 C 0.34613 0.66413 0.13157 0.0
C133 C 0.31388 0.76243 0.11742 0.0
C134 C 0.40153 0.57946 0.04828 0.0
C135 C 0.38825 0.5987 0.07132 0.0
C136 C 0.38799 0.67428 0.07929 0.0
C137 C 0.3263 0.71311 0.11402 0.0
C138 C 0.34781 0.69087 0.11103 0.0
C139 C 0.40225 0.62358 0.08527 0.0
C140 C 0.38553 0.64723 0.09826 0.0
H141 H 0.25453 0.72137 0.10955 0.0
H142 H 0.29015 0.68483 0.10839 0.0
H143 H 0.37104 0.71596 0.06864 0.0
H144 H 0.46536 0.6124 0.05001 0.0
H145 H 0.44238 0.64601 0.09096 0.0
C146 C 0.7523 0.80762 0.58002 0.0
C147 C 0.76229 0.77973 0.58485 0.0
C148 C 0.77153 0.82996 0.58575 0.0
C149 C 0.84673 0.84722 0.63313 0.0
H150 H 0.83652 0.90808 0.54399 0.0
C151 C 0.93836 0.91105 0.58137 0.0
C152 C 0.93362 0.93901 0.56604 0.0
C153 C 0.91666 0.89566 0.59638 0.0
C154 C 0.83939 0.89164 0.56985 0.0
H155 H 0.8003 0.75346 0.60001 0.0
H156 H 0.83375 0.79227 0.60957 0.0
H157 H 0.79943 0.87276 0.54379 0.0
H158 H 0.90328 0.97346 0.55624 0.0
H159 H 0.86503 0.94651 0.58261 0.0
H160 H 0.8873 0.86547 0.65792 0.0
C161 C 0.81106 0.79696 0.60196 0.0
C162 C 0.81813 0.87131 0.56964 0.0
C163 C 0.79187 0.77468 0.5961 0.0
C164 C 0.90757 0.95206 0.56889 0.0
C165 C 0.88561 0.93652 0.58336 0.0
C166 C 0.86801 0.8675 0.63328 0.0
C167 C 0.80116 0.82488 0.59666 0.0
C168 C 0.82192 0.84842 0.6005 0.0
C169 C 0.88957 0.90782 0.59548 0.0
C170 C 0.86494 0.88952 0.60089 0.0
H171 H 0.72962 0.81224 0.57141 0.0
H172 H 0.7632 0.85121 0.5817 0.0
H173 H 0.85004 0.83017 0.65795 0.0
H174 H 0.95809 0.90046 0.57847 0.0
H175 H 0.92037 0.87356 0.605 0.0
C176 C 0.69297 0.27265 0.97286 0.0
C177 C 0.72144 0.27946 0.97015 0.0
C178 C 0.67191 0.29357 0.96794 0.0
C179 C 0.66319 0.37017 0.97562 0.0
H180 H 0.58486 0.35484 0.92193 0.0
C181 C 0.5753 0.4521 0.97591 0.0
C182 C 0.5532 0.44132 0.99648 0.0
C183 C 0.59382 0.43385 0.95988 0.0
C184 C 0.60669 0.35948 0.93675 0.0
H185 H 0.75001 0.31353 0.95932 0.0
H186 H 0.71321 0.34994 0.94991 0.0
H187 H 0.62216 0.31982 0.92049 0.0
H188 H 0.53172 0.40363 0.014 0.0
H189 H 0.56333 0.37178 0.98489 0.0
H190 H 0.64763 0.40958 0.99257 0.0
C191 C 0.7072 0.32851 0.95667 0.0
C192 C 0.62804 0.33935 0.93626 0.0
C193 C 0.72831 0.30761 0.96189 0.0
C194 C 0.54828 0.41236 0.99735 0.0
C195 C 0.56649 0.39416 0.98085 0.0
C196 C 0.6419 0.39035 0.97578 0.0
C197 C 0.67874 0.3218 0.95988 0.0
C198 C 0.65647 0.34418 0.95658 0.0
C199 C 0.59031 0.40461 0.96399 0.0
C200 C 0.61331 0.38501 0.95716 0.0
H201 H 0.68697 0.25118 0.97934 0.0
H202 H 0.65038 0.28762 0.97147 0.0
H203 H 0.6847 0.37452 0.99218 0.0
H204 H 0.57982 0.47436 0.97582 0.0
H205 H 0.61188 0.44249 0.94674 0.0
C206 C 0.15734 0.89716 0.21381 0.0
C207 C 0.18712 0.89494 0.21666 0.0
C208 C 0.14567 0.90619 0.24947 0.0
C209 C 0.16053 0.94588 0.35048 0.0
H210 H 0.09543 0.9046 0.37954 0.0
C211 C 0.07842 0.98675 0.45422 0.0
C212 C 0.06539 0.96648 0.47846 0.0
C213 C 0.0991 0.97865 0.42958 0.0
C214 C 0.11386 0.91618 0.37243 0.0
H215 H 0.22807 0.90082 0.25911 0.0
H216 H 0.2075 0.9167 0.32178 0.0
H217 H 0.11935 0.88882 0.32126 0.0
H218 H 0.06576 0.92273 0.50027 0.0
H219 H 0.10248 0.90881 0.45901 0.0
H220 H 0.15459 0.97349 0.40166 0.0
C221 C 0.19329 0.91146 0.2917 0.0
C222 C 0.12733 0.9073 0.33857 0.0
C223 C 0.20502 0.9022 0.25598 0.0
C224 C 0.07539 0.93869 0.48151 0.0
C225 C 0.09621 0.9307 0.45756 0.0
C226 C 0.14685 0.95493 0.3844 0.0
C227 C 0.16347 0.91335 0.28886 0.0
C228 C 0.15059 0.92218 0.32684 0.0
C229 C 0.10709 0.95023 0.42932 0.0
C230 C 0.12327 0.94019 0.3956 0.0
H231 H 0.14291 0.89188 0.18398 0.0
H232 H 0.12262 0.90778 0.24606 0.0
H233 H 0.17834 0.95784 0.34193 0.0
H234 H 0.07084 0.00827 0.45112 0.0
H235 H 0.10709 0.9942 0.40815 0.0
C236 C 0.69032 0.62854 0.70407 0.0
C237 C 0.6864 0.65665 0.68827 0.0
C238 C 0.67639 0.6181 0.73792 0.0
C239 C 0.60982 0.63022 0.77635 0.0
H240 H 0.63921 0.58031 0.87699 0.0
C241 C 0.53729 0.59657 0.89749 0.0
C242 C 0.53791 0.56838 0.91264 0.0
C243 C 0.55867 0.60729 0.87591 0.0
C244 C 0.63067 0.594 0.84876 0.0
H245 H 0.66662 0.69633 0.69814 0.0
H246 H 0.64231 0.67807 0.75684 0.0
H247 H 0.67188 0.59964 0.82965 0.0
H248 H 0.56213 0.52954 0.91903 0.0
H249 H 0.59936 0.5481 0.87944 0.0
H250 H 0.56867 0.62412 0.79371 0.0
C251 C 0.65589 0.66406 0.7427 0.0
C252 C 0.64937 0.60514 0.82187 0.0
C253 C 0.66991 0.67453 0.70915 0.0
C254 C 0.56113 0.55134 0.90748 0.0
C255 C 0.58245 0.56202 0.885 0.0
C256 C 0.5912 0.61895 0.80271 0.0
C257 C 0.65818 0.63555 0.75632 0.0
C258 C 0.6391 0.62363 0.78572 0.0
C259 C 0.581 0.58998 0.86794 0.0
C260 C 0.60136 0.601 0.83963 0.0
H261 H 0.70304 0.61424 0.6889 0.0
H262 H 0.6785 0.59603 0.74778 0.0
H263 H 0.60114 0.64379 0.74799 0.0
H264 H 0.51999 0.61039 0.90187 0.0
H265 H 0.55734 0.62915 0.86465 0.0
C266 C 0.86882 0.19725 0.14802 0.0
C267 C 0.84001 0.19446 0.12812 0.0
C268 C 0.87959 0.18274 0.18791 0.0
C269 C 0.89628 0.15551 0.28014 0.0
H270 H 0.87159 0.07812 0.28331 0.0
C271 C 0.94006 0.07564 0.42415 0.0
C272 C 0.94536 0.04831 0.41208 0.0
C273 C 0.92594 0.09531 0.39271 0.0
C274 C 0.87883 0.09964 0.28288 0.0
H275 H 0.79943 0.17586 0.13629 0.0
H276 H 0.81815 0.15089 0.20624 0.0
H277 H 0.84881 0.11032 0.22431 0.0
H278 H 0.94082 0.02048 0.35727 0.0
H279 H 0.91694 0.05478 0.30254 0.0
H280 H 0.92724 0.14435 0.33774 0.0
C281 C 0.83255 0.16384 0.19047 0.0
C282 C 0.86543 0.11825 0.24939 0.0
C283 C 0.82177 0.17834 0.15053 0.0
C284 C 0.93677 0.04124 0.36783 0.0
C285 C 0.92289 0.06089 0.33645 0.0
C286 C 0.90977 0.13683 0.31366 0.0
C287 C 0.86179 0.16514 0.20887 0.0
C288 C 0.87423 0.14633 0.24723 0.0
C289 C 0.91699 0.08806 0.34855 0.0
C290 C 0.90151 0.10854 0.31496 0.0
H291 H 0.88346 0.20958 0.13177 0.0
H292 H 0.90224 0.18411 0.20094 0.0
H293 H 0.90339 0.17707 0.27965 0.0
H294 H 0.94636 0.08172 0.45802 0.0
H295 H 0.92155 0.11599 0.40319 0.0
C296 C 0.34517 0.34127 0.62278 0.0
C297 C 0.31731 0.3499 0.60326 0.0
C298 C 0.35881 0.35267 0.66216 0.0
C299 C 0.35651 0.41671 0.72386 0.0
H300 H 0.40627 0.37603 0.81934 0.0
C301 C 0.3984 0.47095 0.88208 0.0
C302 C 0.42795 0.46932 0.89787 0.0
C303 C 0.38534 0.45256 0.85093 0.0
C304 C 0.39259 0.38763 0.79274 0.0
H305 H 0.28133 0.37599 0.61137 0.0
H306 H 0.30483 0.3954 0.68018 0.0
H307 H 0.382 0.35085 0.75547 0.0
H308 H 0.4668 0.44603 0.89587 0.0
H309 H 0.44382 0.41375 0.8402 0.0
H310 H 0.36701 0.4534 0.7604 0.0
C311 C 0.31644 0.38035 0.66454 0.0
C312 C 0.3787 0.37326 0.75623 0.0
C313 C 0.30288 0.36907 0.62519 0.0
C314 C 0.44394 0.44761 0.88424 0.0
C315 C 0.43081 0.42922 0.85241 0.0
C316 C 0.37026 0.43095 0.7601 0.0
C317 C 0.34484 0.3729 0.68286 0.0
C318 C 0.36019 0.38764 0.72165 0.0
C319 C 0.40155 0.43231 0.83421 0.0
C320 C 0.38812 0.41658 0.7953 0.0
H321 H 0.35691 0.32654 0.60674 0.0
H322 H 0.38071 0.34656 0.67528 0.0
H323 H 0.34315 0.42862 0.69725 0.0
H324 H 0.38551 0.48727 0.89254 0.0
H325 H 0.36263 0.45498 0.83852 0.0
C326 C 0.6239 0.66871 0.41951 0.0
C327 C 0.65352 0.66361 0.43026 0.0
C328 C 0.60898 0.66395 0.37709 0.0
C329 C 0.61891 0.65054 0.26201 0.0
H330 H 0.54846 0.60876 0.25773 0.0
C331 C 0.57857 0.57103 0.13222 0.0
C332 C 0.54908 0.56811 0.11745 0.0
C333 C 0.58874 0.59067 0.16335 0.0
C334 C 0.56772 0.621 0.25812 0.0
H335 H 0.69086 0.65038 0.40441 0.0
H336 H 0.66486 0.64164 0.3308 0.0
H337 H 0.57152 0.6277 0.32724 0.0
H338 H 0.50707 0.58441 0.12154 0.0
H339 H 0.52492 0.6186 0.17713 0.0
H340 H 0.61582 0.64234 0.1933 0.0
C341 C 0.65314 0.64973 0.35486 0.0
C342 C 0.581 0.63185 0.29802 0.0
C343 C 0.66806 0.65455 0.39724 0.0
C344 C 0.52994 0.58638 0.13229 0.0
C345 C 0.54012 0.60577 0.16423 0.0
C346 C 0.60571 0.63953 0.22219 0.0
C347 C 0.62334 0.65396 0.34445 0.0
C348 C 0.60721 0.64604 0.30076 0.0
C349 C 0.56959 0.60751 0.18092 0.0
C350 C 0.58043 0.62396 0.22017 0.0
H351 H 0.61206 0.67583 0.44412 0.0
H352 H 0.58612 0.66777 0.37005 0.0
H353 H 0.63874 0.66189 0.26273 0.0
H354 H 0.59375 0.55721 0.12117 0.0
H355 H 0.61152 0.59133 0.17582 0.0
C356 C 0.86235 0.17118 0.86123 0.0
C357 C 0.83691 0.16614 0.87776 0.0
C358 C 0.86999 0.15433 0.82903 0.0
C359 C 0.84283 0.11077 0.73816 0.0
H360 H 0.9186 0.07702 0.76134 0.0
C361 C 0.91214 0.08062 0.61025 0.0
C362 C 0.92782 0.05545 0.61823 0.0
C363 C 0.89405 0.08842 0.63902 0.0
C364 C 0.8972 0.08592 0.75471 0.0
H365 H 0.79915 0.14001 0.87253 0.0
H366 H 0.81227 0.11103 0.81511 0.0
H367 H 0.90211 0.10365 0.81849 0.0
H368 H 0.9357 0.01782 0.66053 0.0
H369 H 0.90461 0.03191 0.71187 0.0
H370 H 0.8387 0.09439 0.67329 0.0
C371 C 0.82632 0.12785 0.82763 0.0
C372 C 0.88792 0.10136 0.78718 0.0
C373 C 0.81888 0.14441 0.86045 0.0
C374 C 0.92342 0.03711 0.65333 0.0
C375 C 0.90588 0.04526 0.68285 0.0
C376 C 0.85238 0.0958 0.70524 0.0
C377 C 0.85215 0.13242 0.81218 0.0
C378 C 0.86085 0.11426 0.77895 0.0
C379 C 0.89199 0.0715 0.67684 0.0
C380 C 0.87978 0.08352 0.71313 0.0
H381 H 0.87675 0.18769 0.87395 0.0
H382 H 0.88991 0.1584 0.81727 0.0
H383 H 0.82188 0.12062 0.73112 0.0
H384 H 0.91554 0.09521 0.58366 0.0
H385 H 0.88375 0.10884 0.63389 0.0
C386 C 0.34004 0.40323 0.37857 0.0
C387 C 0.31345 0.38975 0.37095 0.0
C388 C 0.35123 0.41591 0.34366 0.0
C389 C 0.34878 0.41541 0.22367 0.0
H390 H 0.39164 0.4841 0.24578 0.0
C391 C 0.41629 0.47115 0.10188 0.0
C392 C 0.445 0.47374 0.12253 0.0
C393 C 0.39524 0.46337 0.12697 0.0
C394 C 0.3795 0.46507 0.23895 0.0
H395 H 0.27774 0.37888 0.32039 0.0
H396 H 0.29745 0.40127 0.25893 0.0
H397 H 0.36332 0.46591 0.29958 0.0
H398 H 0.47397 0.47086 0.18563 0.0
H399 H 0.4374 0.45805 0.22898 0.0
H400 H 0.36578 0.41447 0.16327 0.0
C401 C 0.3096 0.40186 0.29216 0.0
C402 C 0.36344 0.45454 0.26983 0.0
C403 C 0.2983 0.38911 0.32733 0.0
C404 C 0.45211 0.4689 0.1686 0.0
C405 C 0.43115 0.46174 0.19354 0.0
C406 C 0.36476 0.42613 0.19246 0.0
C407 C 0.33613 0.41557 0.30006 0.0
C408 C 0.34883 0.429 0.26345 0.0
C409 C 0.40256 0.45882 0.17309 0.0
C410 C 0.38107 0.4505 0.20072 0.0
H411 H 0.3524 0.404 0.41165 0.0
H412 H 0.37203 0.42568 0.35087 0.0
H413 H 0.3378 0.39567 0.21781 0.0
H414 H 0.41023 0.47472 0.06642 0.0
H415 H 0.37329 0.46119 0.11053 0.0
C416 C 0.19355 0.89961 0.96362 0.0
C417 C 0.19197 0.87126 0.9772 0.0
C418 C 0.17764 0.90986 0.92363 0.0
C419 C 0.11333 0.89434 0.84167 0.0
H420 H 0.14125 0.95716 0.77739 0.0
C421 C 0.05121 0.95253 0.68052 0.0
C422 C 0.04931 0.98164 0.68524 0.0
C423 C 0.06866 0.93569 0.71294 0.0
C424 C 0.13326 0.93951 0.79492 0.0
H425 H 0.17318 0.83115 0.95842 0.0
H426 H 0.14596 0.84893 0.88771 0.0
H427 H 0.17333 0.93323 0.83808 0.0
H428 H 0.0638 0.0157 0.72819 0.0
H429 H 0.09436 0.9865 0.78378 0.0
H430 H 0.07315 0.90092 0.79783 0.0
C431 C 0.15905 0.86338 0.9086 0.0
C432 C 0.15153 0.9259 0.82988 0.0
C433 C 0.17484 0.85314 0.94898 0.0
C434 C 0.06475 0.9934 0.72332 0.0
C435 C 0.0824 0.97674 0.75514 0.0
C436 C 0.09512 0.90777 0.80612 0.0
C437 C 0.15994 0.89198 0.89573 0.0
C438 C 0.14159 0.90371 0.85466 0.0
C439 C 0.0848 0.94784 0.75004 0.0
C440 C 0.10475 0.93097 0.78335 0.0
H441 H 0.20632 0.91425 0.98462 0.0
H442 H 0.1785 0.9321 0.91544 0.0
H443 H 0.10482 0.8775 0.86016 0.0
H444 H 0.03952 0.94283 0.65162 0.0
H445 H 0.07018 0.91339 0.70847 0.0
loop_
_geom_bond_atom_site_label_1
_geom_bond_atom_site_label_2
_geom_bond_distance
_geom_bond_site_symmetry_2
_ccdc_geom_bond_type
O0 Cd1 2.300 . S
O0 C7 1.275 . S
Cd1 O0 2.300 . S
Cd1 O9 2.381 . S
Cd1 O10 2.378 . S
O2 Cd3 2.385 . S
O2 C7 1.255 . S
Cd3 O2 2.385 . S
Cd3 O4 2.317 . S
O4 Cd3 2.317 . S
O4 C5 1.232 . S
C5 O4 1.232 . S
C5 O6 1.218 . S
O6 C5 1.218 . S
C7 O0 1.275 . S
C7 O2 1.255 . S
C8 O9 1.258 . S
C8 O10 1.256 . S
O9 Cd1 2.381 . S
O9 C8 1.258 . S
O10 Cd1 2.378 . S
O10 C8 1.256 . S
O11 Cd12 2.300 . S
O11 C18 1.275 . S
Cd12 O11 2.300 . S
Cd12 O20 2.381 . S
Cd12 O21 2.378 . S
O13 Cd14 2.385 . S
O13 C18 1.255 . S
Cd14 O13 2.385 . S
Cd14 O15 2.317 . S
O15 Cd14 2.317 . S
O15 C16 1.232 . S
C16 O15 1.232 . S
C16 O17 1.218 . S
O17 C16 1.218 . S
C18 O11 1.275 . S
C18 O13 1.255 . S
C19 O20 1.258 . S
C19 O21 1.256 . S
O20 Cd12 2.381 . S
O20 C19 1.258 . S
O21 Cd12 2.378 . S
O21 C19 1.256 . S
O22 Cd23 2.300 . S
O22 C29 1.275 . S
Cd23 O22 2.300 . S
Cd23 O31 2.381 . S
Cd23 O32 2.378 1_554 S
O24 Cd25 2.385 1_554 S
O24 C29 1.255 . S
Cd25 O24 2.385 1_556 S
Cd25 O26 2.317 . S
O26 Cd25 2.317 . S
O26 C27 1.232 . S
C27 O26 1.232 . S
C27 O28 1.218 . S
O28 C27 1.218 . S
C29 O22 1.275 . S
C29 O24 1.255 . S
C30 O31 1.258 . S
C30 O32 1.256 1_554 S
O31 Cd23 2.381 . S
O31 C30 1.258 . S
O32 Cd23 2.378 1_556 S
O32 C30 1.256 1_556 S
O33 Cd34 2.300 . S
O33 C40 1.275 . S
Cd34 O33 2.300 . S
Cd34 O42 2.381 . S
Cd34 O43 2.378 . S
O35 Cd36 2.385 . S
O35 C40 1.255 . S
Cd36 O35 2.385 . S
Cd36 O37 2.317 . S
O37 Cd36 2.317 . S
O37 C38 1.232 . S
C38 O37 1.232 . S
C38 O39 1.218 . S
O39 C38 1.218 . S
C40 O33 1.275 . S
C40 O35 1.255 . S
C41 O42 1.258 . S
C41 O43 1.256 . S
O42 Cd34 2.381 . S
O42 C41 1.258 . S
O43 Cd34 2.378 . S
O43 C41 1.256 . S
O44 Mg45 2.018 . S
O44 C58 1.233 1_455 S
Mg45 O44 2.018 . S
Mg45 O48 2.180 . S
Mg45 O49 2.117 . S
Mg45 O63 2.030 . S
O46 Mg47 2.072 1_655 S
O46 C58 1.260 . S
Mg47 O46 2.072 1_455 S
Mg47 O48 2.099 . S
Mg47 O50 2.079 1_545 S
Mg47 O51 2.072 1_455 S
Mg47 O53 2.099 1_445 S
Mg47 O64 2.079 1_545 S
O48 Mg45 2.180 . S
O48 Mg47 2.099 . S
O48 C59 1.279 . S
O49 Mg45 2.117 . S
O49 C59 1.250 . S
O50 Mg47 2.079 1_565 S
O50 C60 1.264 . S
O51 Mg47 2.072 1_655 S
O51 C61 1.260 . S
Mg52 O53 2.180 . S
Mg52 O54 2.030 1_655 S
Mg52 O55 1.990 1_565 S
Mg52 O56 2.117 . S
O53 Mg47 2.099 1_665 S
O53 Mg52 2.180 . S
O53 C62 1.279 . S
O54 Mg52 2.030 1_455 S
O54 C60 1.248 . S
O55 Mg52 1.990 1_545 S
O55 C61 1.253 . S
O56 Mg52 2.117 . S
O56 C62 1.250 . S
C57 O63 1.248 1_565 S
C57 O64 1.264 . S
C58 O44 1.233 1_655 S
C58 O46 1.260 . S
C59 O48 1.279 . S
C59 O49 1.250 . S
C60 O50 1.264 . S
C60 O54 1.248 . S
C61 O51 1.260 . S
C61 O55 1.253 . S
C62 O53 1.279 . S
C62 O56 1.250 . S
O63 Mg45 2.030 . S
O63 C57 1.248 1_545 S
O64 Mg47 2.079 1_565 S
O64 C57 1.264 . S
O65 Mg66 1.990 . S
O65 C79 1.253 . S
Mg66 O65 1.990 . S
Mg66 O69 2.180 . S
Mg66 O70 2.117 . S
Mg66 O84 2.030 . S
O67 Mg68 2.072 . S
O67 C79 1.260 . S
Mg68 O67 2.072 . S
Mg68 O69 2.099 . S
Mg68 O71 2.079 1_554 S
Mg68 O72 2.072 1_554 S
Mg68 O74 2.099 1_554 S
Mg68 O85 2.079 . S
O69 Mg66 2.180 . S
O69 Mg68 2.099 . S
O69 C80 1.279 . S
O70 Mg66 2.117 . S
O70 C80 1.250 . S
O71 Mg68 2.079 1_556 S
O71 C81 1.264 . S
O72 Mg68 2.072 1_556 S
O72 C82 1.260 . S
Mg73 O74 2.180 . S
Mg73 O75 2.030 . S
Mg73 O76 1.990 . S
Mg73 O77 2.117 . S
O74 Mg68 2.099 1_556 S
O74 Mg73 2.180 . S
O74 C83 1.279 1_556 S
O75 Mg73 2.030 . S
O75 C81 1.248 . S
O76 Mg73 1.990 . S
O76 C82 1.253 . S
O77 Mg73 2.117 . S
O77 C83 1.250 1_556 S
C78 O84 1.248 . S
C78 O85 1.264 . S
C79 O65 1.253 . S
C79 O67 1.260 . S
C80 O69 1.279 . S
C80 O70 1.250 . S
C81 O71 1.264 . S
C81 O75 1.248 . S
C82 O72 1.260 . S
C82 O76 1.253 . S
C83 O74 1.279 1_554 S
C83 O77 1.250 1_554 S
O84 Mg66 2.030 . S
O84 C78 1.248 . S
O85 Mg68 2.079 . S
O85 C78 1.264 . S
C86 C87 1.349 . S
C86 C88 1.327 . S
C86 H111 0.950 . S
C87 C86 1.349 . S
C87 C103 1.349 . S
C88 C86 1.327 . S
C88 C107 1.429 . S
C88 H112 0.950 . S
C89 C106 1.574 . S
C89 C108 1.368 . S
C89 H113 0.949 . S
H90 C94 0.949 . S
C91 C92 1.349 . S
C91 C93 1.327 . S
C91 H114 0.950 . S
C92 C91 1.349 . S
C92 C104 1.349 . S
C93 C91 1.327 . S
C93 C109 1.429 . S
C93 H115 0.950 . S
C94 H90 0.949 . S
C94 C102 1.574 . S
C94 C110 1.368 . S
H95 C103 0.950 . S
H96 C101 0.950 . S
H97 C102 0.949 . S
H98 C104 0.950 . S
H99 C105 0.950 . S
H100 C106 0.949 . S
C101 H96 0.950 . S
C101 C103 1.327 . S
C101 C107 1.429 . S
C102 C94 1.574 . S
C102 H97 0.949 . S
C102 C108 1.368 . S
C103 C87 1.349 . S
C103 H95 0.950 . S
C103 C101 1.327 . S
C104 C92 1.349 . S
C104 H98 0.950 . S
C104 C105 1.327 . S
C105 H99 0.950 . S
C105 C104 1.327 . S
C105 C109 1.429 . S
C106 C89 1.574 . S
C106 H100 0.949 . S
C106 C110 1.368 . S
C107 C88 1.429 . S
C107 C101 1.429 . S
C107 C108 1.523 . S
C108 C89 1.368 . S
C108 C102 1.368 . S
C108 C107 1.523 . S
C109 C93 1.429 . S
C109 C105 1.429 . S
C109 C110 1.523 . S
C110 C94 1.368 . S
C110 C106 1.368 . S
C110 C109 1.523 . S
H111 C86 0.950 . S
H112 C88 0.950 . S
H113 C89 0.949 . S
H114 C91 0.950 . S
H115 C93 0.950 . S
C116 C117 1.349 . S
C116 C118 1.327 . S
C116 H141 0.950 . S
C117 C116 1.349 . S
C117 C133 1.349 . S
C118 C116 1.327 . S
C118 C137 1.429 . S
C118 H142 0.950 . S
C119 C136 1.574 . S
C119 C138 1.368 . S
C119 H143 0.938 1_554 S
H120 C124 0.949 . S
C121 C122 1.349 1_556 S
C121 C123 1.327 1_556 S
C121 H144 0.950 . S
C122 C121 1.349 1_554 S
C122 C134 1.349 . S
C123 C121 1.327 1_554 S
C123 C139 1.429 . S
C123 H145 0.950 1_554 S
C124 H120 0.949 . S
C124 C132 1.574 . S
C124 C140 1.368 . S
H125 C133 0.950 . S
H126 C131 0.950 . S
H127 C132 0.949 . S
H128 C134 0.950 . S
H129 C135 0.950 . S
H130 C136 0.949 1_556 S
C131 H126 0.950 . S
C131 C133 1.327 . S
C131 C137 1.429 . S
C132 C124 1.574 . S
C132 H127 0.949 . S
C132 C138 1.368 . S
C133 C117 1.349 . S
C133 H125 0.950 . S
C133 C131 1.327 . S
C134 C122 1.349 . S
C134 H128 0.950 . S
C134 C135 1.327 . S
C135 H129 0.950 . S
C135 C134 1.327 . S
C135 C139 1.429 . S
C136 C119 1.574 . S
C136 H130 0.949 1_554 S
C136 C140 1.368 . S
C137 C118 1.429 . S
C137 C131 1.429 . S
C137 C138 1.523 . S
C138 C119 1.368 . S
C138 C132 1.368 . S
C138 C137 1.523 . S
C139 C123 1.429 . S
C139 C135 1.429 . S
C139 C140 1.523 . S
C140 C124 1.368 . S
C140 C136 1.368 . S
C140 C139 1.523 . S
H141 C116 0.950 . S
H142 C118 0.950 . S
H143 C119 0.938 1_556 S
H144 C121 0.950 . S
H145 C123 0.950 1_556 S
C146 C147 1.349 . S
C146 C148 1.327 . S
C146 H171 0.950 . S
C147 C146 1.349 . S
C147 C163 1.349 . S
C148 C146 1.327 . S
C148 C167 1.429 . S
C148 H172 0.950 . S
C149 C166 1.574 . S
C149 C168 1.368 . S
C149 H173 0.949 . S
H150 C154 0.949 . S
C151 C152 1.349 . S
C151 C153 1.327 . S
C151 H174 0.950 . S
C152 C151 1.349 . S
C152 C164 1.349 . S
C153 C151 1.327 . S
C153 C169 1.429 . S
C153 H175 0.950 . S
C154 H150 0.949 . S
C154 C162 1.574 . S
C154 C170 1.368 . S
H155 C163 0.950 . S
H156 C161 0.950 . S
H157 C162 0.949 . S
H158 C164 0.950 . S
H159 C165 0.950 . S
H160 C166 0.949 . S
C161 H156 0.950 . S
C161 C163 1.327 . S
C161 C167 1.429 . S
C162 C154 1.574 . S
C162 H157 0.949 . S
C162 C168 1.368 . S
C163 C147 1.349 . S
C163 H155 0.950 . S
C163 C161 1.327 . S
C164 C152 1.349 . S
C164 H158 0.950 . S
C164 C165 1.327 . S
C165 H159 0.950 . S
C165 C164 1.327 . S
C165 C169 1.429 . S
C166 C149 1.574 . S
C166 H160 0.949 . S
C166 C170 1.368 . S
C167 C148 1.429 . S
C167 C161 1.429 . S
C167 C168 1.523 . S
C168 C149 1.368 . S
C168 C162 1.368 . S
C168 C167 1.523 . S
C169 C153 1.429 . S
C169 C165 1.429 . S
C169 C170 1.523 . S
C170 C154 1.368 . S
C170 C166 1.368 . S
C170 C169 1.523 . S
H171 C146 0.950 . S
H172 C148 0.950 . S
H173 C149 0.949 . S
H174 C151 0.950 . S
H175 C153 0.950 . S
C176 C177 1.349 1_556 S
C176 C178 1.327 . S
C176 H201 0.950 . S
C177 C176 1.349 1_554 S
C177 C193 1.349 . S
C178 C176 1.327 . S
C178 C197 1.429 1_556 S
C178 H202 0.950 . S
C179 C196 1.574 . S
C179 C198 1.368 . S
C179 H203 0.949 . S
H180 C184 0.949 . S
C181 C182 1.349 . S
C181 C183 1.327 . S
C181 H204 0.950 . S
C182 C181 1.349 . S
C182 C194 1.349 1_554 S
C183 C181 1.327 . S
C183 C199 1.429 . S
C183 H205 0.950 . S
C184 H180 0.949 . S
C184 C192 1.574 . S
C184 C200 1.368 1_556 S
H185 C193 0.950 . S
H186 C191 0.950 . S
H187 C192 0.949 . S
H188 C194 0.950 . S
H189 C195 0.950 . S
H190 C196 0.949 . S
C191 H186 0.950 . S
C191 C193 1.327 . S
C191 C197 1.429 . S
C192 C184 1.574 . S
C192 H187 0.949 . S
C192 C198 1.368 1_556 S
C193 C177 1.349 . S
C193 H185 0.950 . S
C193 C191 1.327 . S
C194 C182 1.349 1_556 S
C194 H188 0.950 . S
C194 C195 1.327 . S
C195 H189 0.950 . S
C195 C194 1.327 . S
C195 C199 1.429 1_556 S
C196 C179 1.574 . S
C196 H190 0.949 . S
C196 C200 1.368 . S
C197 C178 1.429 1_554 S
C197 C191 1.429 . S
C197 C198 1.523 . S
C198 C179 1.368 . S
C198 C192 1.368 1_554 S
C198 C197 1.523 . S
C199 C183 1.429 . S
C199 C195 1.429 1_554 S
C199 C200 1.523 . S
C200 C184 1.368 1_554 S
C200 C196 1.368 . S
C200 C199 1.523 . S
H201 C176 0.950 . S
H202 C178 0.950 . S
H203 C179 0.949 . S
H204 C181 0.950 . S
H205 C183 0.950 . S
C206 C207 1.349 . S
C206 C208 1.327 . S
C206 H231 0.950 . S
C207 C206 1.349 . S
C207 C223 1.349 . S
C208 C206 1.327 . S
C208 C227 1.429 . S
C208 H232 0.950 . S
C209 C226 1.574 . S
C209 C228 1.368 . S
C209 H233 0.949 . S
H210 C214 0.949 . S
C211 C212 1.349 . S
C211 C213 1.327 . S
C211 H234 0.950 1_565 S
C212 C211 1.349 . S
C212 C224 1.349 . S
C213 C211 1.327 . S
C213 C229 1.429 . S
C213 H235 0.950 . S
C214 H210 0.949 . S
C214 C222 1.574 . S
C214 C230 1.368 . S
H215 C223 0.950 . S
H216 C221 0.950 . S
H217 C222 0.949 . S
H218 C224 0.950 . S
H219 C225 0.950 . S
H220 C226 0.949 . S
C221 H216 0.950 . S
C221 C223 1.327 . S
C221 C227 1.429 . S
C222 C214 1.574 . S
C222 H217 0.949 . S
C222 C228 1.368 . S
C223 C207 1.349 . S
C223 H215 0.950 . S
C223 C221 1.327 . S
C224 C212 1.349 . S
C224 H218 0.950 . S
C224 C225 1.327 . S
C225 H219 0.950 . S
C225 C224 1.327 . S
C225 C229 1.429 . S
C226 C209 1.574 . S
C226 H220 0.949 . S
C226 C230 1.368 . S
C227 C208 1.429 . S
C227 C221 1.429 . S
C227 C228 1.523 . S
C228 C209 1.368 . S
C228 C222 1.368 . S
C228 C227 1.523 . S
C229 C213 1.429 . S
C229 C225 1.429 . S
C229 C230 1.523 . S
C230 C214 1.368 . S
C230 C226 1.368 . S
C230 C229 1.523 . S
H231 C206 0.950 . S
H232 C208 0.950 . S
H233 C209 0.949 . S
H234 C211 0.950 1_545 S
H235 C213 0.950 . S
C236 C237 1.349 . S
C236 C238 1.327 . S
C236 H261 0.950 . S
C237 C236 1.349 . S
C237 C253 1.349 . S
C238 C236 1.327 . S
C238 C257 1.429 . S
C238 H262 0.950 . S
C239 C256 1.574 . S
C239 C258 1.368 . S
C239 H263 0.949 . S
H240 C244 0.949 . S
C241 C242 1.349 . S
C241 C243 1.327 . S
C241 H264 0.950 . S
C242 C241 1.349 . S
C242 C254 1.349 . S
C243 C241 1.327 . S
C243 C259 1.429 . S
C243 H265 0.950 . S
C244 H240 0.949 . S
C244 C252 1.574 . S
C244 C260 1.368 . S
H245 C253 0.950 . S
H246 C251 0.950 . S
H247 C252 0.949 . S
H248 C254 0.950 . S
H249 C255 0.950 . S
H250 C256 0.949 . S
C251 H246 0.950 . S
C251 C253 1.327 . S
C251 C257 1.429 . S
C252 C244 1.574 . S
C252 H247 0.949 . S
C252 C258 1.368 . S
C253 C237 1.349 . S
C253 H245 0.950 . S
C253 C251 1.327 . S
C254 C242 1.349 . S
C254 H248 0.950 . S
C254 C255 1.327 . S
C255 H249 0.950 . S
C255 C254 1.327 . S
C255 C259 1.429 . S
C256 C239 1.574 . S
C256 H250 0.949 . S
C256 C260 1.368 . S
C257 C238 1.429 . S
C257 C251 1.429 . S
C257 C258 1.523 . S
C258 C239 1.368 . S
C258 C252 1.368 . S
C258 C257 1.523 . S
C259 C243 1.429 . S
C259 C255 1.429 . S
C259 C260 1.523 . S
C260 C244 1.368 . S
C260 C256 1.368 . S
C260 C259 1.523 . S
H261 C236 0.950 . S
H262 C238 0.950 . S
H263 C239 0.949 . S
H264 C241 0.950 . S
H265 C243 0.950 . S
C266 C267 1.349 . S
C266 C268 1.327 . S
C266 H291 0.950 . S
C267 C266 1.349 . S
C267 C283 1.349 . S
C268 C266 1.327 . S
C268 C287 1.429 . S
C268 H292 0.950 . S
C269 C286 1.574 . S
C269 C288 1.368 . S
C269 H293 0.949 . S
H270 C274 0.949 . S
C271 C272 1.349 . S
C271 C273 1.327 . S
C271 H294 0.950 . S
C272 C271 1.349 . S
C272 C284 1.349 . S
C273 C271 1.327 . S
C273 C289 1.429 . S
C273 H295 0.950 . S
C274 H270 0.949 . S
C274 C282 1.574 . S
C274 C290 1.368 . S
H275 C283 0.950 . S
H276 C281 0.950 . S
H277 C282 0.949 . S
H278 C284 0.950 . S
H279 C285 0.950 . S
H280 C286 0.949 . S
C281 H276 0.950 . S
C281 C283 1.327 . S
C281 C287 1.429 . S
C282 C274 1.574 . S
C282 H277 0.949 . S
C282 C288 1.368 . S
C283 C267 1.349 . S
C283 H275 0.950 . S
C283 C281 1.327 . S
C284 C272 1.349 . S
C284 H278 0.950 . S
C284 C285 1.327 . S
C285 H279 0.950 . S
C285 C284 1.327 . S
C285 C289 1.429 . S
C286 C269 1.574 . S
C286 H280 0.949 . S
C286 C290 1.368 . S
C287 C268 1.429 . S
C287 C281 1.429 . S
C287 C288 1.523 . S
C288 C269 1.368 . S
C288 C282 1.368 . S
C288 C287 1.523 . S
C289 C273 1.429 . S
C289 C285 1.429 . S
C289 C290 1.523 . S
C290 C274 1.368 . S
C290 C286 1.368 . S
C290 C289 1.523 . S
H291 C266 0.950 . S
H292 C268 0.950 . S
H293 C269 0.949 . S
H294 C271 0.950 . S
H295 C273 0.950 . S
C296 C297 1.349 . S
C296 C298 1.327 . S
C296 H321 0.950 . S
C297 C296 1.349 . S
C297 C313 1.349 . S
C298 C296 1.327 . S
C298 C317 1.429 . S
C298 H322 0.950 . S
C299 C316 1.574 . S
C299 C318 1.368 . S
C299 H323 0.949 . S
H300 C304 0.949 . S
C301 C302 1.349 . S
C301 C303 1.327 . S
C301 H324 0.950 . S
C302 C301 1.349 . S
C302 C314 1.349 . S
C303 C301 1.327 . S
C303 C319 1.429 . S
C303 H325 0.950 . S
C304 H300 0.949 . S
C304 C312 1.574 . S
C304 C320 1.368 . S
H305 C313 0.950 . S
H306 C311 0.950 . S
H307 C312 0.949 . S
H308 C314 0.950 . S
H309 C315 0.950 . S
H310 C316 0.949 . S
C311 H306 0.950 . S
C311 C313 1.327 . S
C311 C317 1.429 . S
C312 C304 1.574 . S
C312 H307 0.949 . S
C312 C318 1.368 . S
C313 C297 1.349 . S
C313 H305 0.950 . S
C313 C311 1.327 . S
C314 C302 1.349 . S
C314 H308 0.950 . S
C314 C315 1.327 . S
C315 H309 0.950 . S
C315 C314 1.327 . S
C315 C319 1.429 . S
C316 C299 1.574 . S
C316 H310 0.949 . S
C316 C320 1.368 . S
C317 C298 1.429 . S
C317 C311 1.429 . S
C317 C318 1.523 . S
C318 C299 1.368 . S
C318 C312 1.368 . S
C318 C317 1.523 . S
C319 C303 1.429 . S
C319 C315 1.429 . S
C319 C320 1.523 . S
C320 C304 1.368 . S
C320 C316 1.368 . S
C320 C319 1.523 . S
H321 C296 0.950 . S
H322 C298 0.950 . S
H323 C299 0.949 . S
H324 C301 0.950 . S
H325 C303 0.950 . S
C326 C327 1.349 . S
C326 C328 1.327 . S
C326 H351 0.950 . S
C327 C326 1.349 . S
C327 C343 1.349 . S
C328 C326 1.327 . S
C328 C347 1.429 . S
C328 H352 0.950 . S
C329 C346 1.574 . S
C329 C348 1.368 . S
C329 H353 0.949 . S
H330 C334 0.949 . S
C331 C332 1.349 . S
C331 C333 1.327 . S
C331 H354 0.950 . S
C332 C331 1.349 . S
C332 C344 1.349 . S
C333 C331 1.327 . S
C333 C349 1.429 . S
C333 H355 0.950 . S
C334 H330 0.949 . S
C334 C342 1.574 . S
C334 C350 1.368 . S
H335 C343 0.950 . S
H336 C341 0.950 . S
H337 C342 0.949 . S
H338 C344 0.950 . S
H339 C345 0.950 . S
H340 C346 0.949 . S
C341 H336 0.950 . S
C341 C343 1.327 . S
C341 C347 1.429 . S
C342 C334 1.574 . S
C342 H337 0.949 . S
C342 C348 1.368 . S
C343 C327 1.349 . S
C343 H335 0.950 . S
C343 C341 1.327 . S
C344 C332 1.349 . S
C344 H338 0.950 . S
C344 C345 1.327 . S
C345 H339 0.950 . S
C345 C344 1.327 . S
C345 C349 1.429 . S
C346 C329 1.574 . S
C346 H340 0.949 . S
C346 C350 1.368 . S
C347 C328 1.429 . S
C347 C341 1.429 . S
C347 C348 1.523 . S
C348 C329 1.368 . S
C348 C342 1.368 . S
C348 C347 1.523 . S
C349 C333 1.429 . S
C349 C345 1.429 . S
C349 C350 1.523 . S
C350 C334 1.368 . S
C350 C346 1.368 . S
C350 C349 1.523 . S
H351 C326 0.950 . S
H352 C328 0.950 . S
H353 C329 0.949 . S
H354 C331 0.950 . S
H355 C333 0.950 . S
C356 C357 1.349 . S
C356 C358 1.327 . S
C356 H381 0.950 . S
C357 C356 1.349 . S
C357 C373 1.349 . S
C358 C356 1.327 . S
C358 C377 1.429 . S
C358 H382 0.950 . S
C359 C376 1.574 . S
C359 C378 1.368 . S
C359 H383 0.949 . S
H360 C364 0.949 . S
C361 C362 1.349 . S
C361 C363 1.327 . S
C361 H384 0.950 . S
C362 C361 1.349 . S
C362 C374 1.349 . S
C363 C361 1.327 . S
C363 C379 1.429 . S
C363 H385 0.950 . S
C364 H360 0.949 . S
C364 C372 1.574 . S
C364 C380 1.368 . S
H365 C373 0.950 . S
H366 C371 0.950 . S
H367 C372 0.949 . S
H368 C374 0.950 . S
H369 C375 0.950 . S
H370 C376 0.949 . S
C371 H366 0.950 . S
C371 C373 1.327 . S
C371 C377 1.429 . S
C372 C364 1.574 . S
C372 H367 0.949 . S
C372 C378 1.368 . S
C373 C357 1.349 . S
C373 H365 0.950 . S
C373 C371 1.327 . S
C374 C362 1.349 . S
C374 H368 0.950 . S
C374 C375 1.327 . S
C375 H369 0.950 . S
C375 C374 1.327 . S
C375 C379 1.429 . S
C376 C359 1.574 . S
C376 H370 0.949 . S
C376 C380 1.368 . S
C377 C358 1.429 . S
C377 C371 1.429 . S
C377 C378 1.523 . S
C378 C359 1.368 . S
C378 C372 1.368 . S
C378 C377 1.523 . S
C379 C363 1.429 . S
C379 C375 1.429 . S
C379 C380 1.523 . S
C380 C364 1.368 . S
C380 C376 1.368 . S
C380 C379 1.523 . S
H381 C356 0.950 . S
H382 C358 0.950 . S
H383 C359 0.949 . S
H384 C361 0.950 . S
H385 C363 0.950 . S
C386 C387 1.349 . S
C386 C388 1.327 . S
C386 H411 0.950 . S
C387 C386 1.349 . S
C387 C403 1.349 . S
C388 C386 1.327 . S
C388 C407 1.429 . S
C388 H412 0.950 . S
C389 C406 1.574 . S
C389 C408 1.368 . S
C389 H413 0.949 . S
H390 C394 0.949 . S
C391 C392 1.349 . S
C391 C393 1.327 . S
C391 H414 0.950 . S
C392 C391 1.349 . S
C392 C404 1.349 . S
C393 C391 1.327 . S
C393 C409 1.429 . S
C393 H415 0.950 . S
C394 H390 0.949 . S
C394 C402 1.574 . S
C394 C410 1.368 . S
H395 C403 0.950 . S
H396 C401 0.950 . S
H397 C402 0.949 . S
H398 C404 0.950 . S
H399 C405 0.950 . S
H400 C406 0.949 . S
C401 H396 0.950 . S
C401 C403 1.327 . S
C401 C407 1.429 . S
C402 C394 1.574 . S
C402 H397 0.949 . S
C402 C408 1.368 . S
C403 C387 1.349 . S
C403 H395 0.950 . S
C403 C401 1.327 . S
C404 C392 1.349 . S
C404 H398 0.950 . S
C404 C405 1.327 . S
C405 H399 0.950 . S
C405 C404 1.327 . S
C405 C409 1.429 . S
C406 C389 1.574 . S
C406 H400 0.949 . S
C406 C410 1.368 . S
C407 C388 1.429 . S
C407 C401 1.429 . S
C407 C408 1.523 . S
C408 C389 1.368 . S
C408 C402 1.368 . S
C408 C407 1.523 . S
C409 C393 1.429 . S
C409 C405 1.429 . S
C409 C410 1.523 . S
C410 C394 1.368 . S
C410 C406 1.368 . S
C410 C409 1.523 . S
H411 C386 0.950 . S
H412 C388 0.950 . S
H413 C389 0.949 . S
H414 C391 0.950 . S
H415 C393 0.950 . S
C416 C417 1.349 . S
C416 C418 1.327 . S
C416 H441 0.950 1_556 S
C417 C416 1.349 . S
C417 C433 1.349 . S
C418 C416 1.327 . S
C418 C437 1.429 . S
C418 H442 0.950 . S
C419 C436 1.574 . S
C419 C438 1.368 . S
C419 H443 0.949 . S
H420 C424 0.949 . S
C421 C422 1.349 . S
C421 C423 1.327 . S
C421 H444 0.950 . S
C422 C421 1.349 . S
C422 C434 1.349 . S
C423 C421 1.327 . S
C423 C439 1.429 . S
C423 H445 0.950 . S
C424 H420 0.949 . S
C424 C432 1.574 . S
C424 C440 1.368 . S
H425 C433 0.950 . S
H426 C431 0.950 . S
H427 C432 0.949 . S
H428 C434 0.950 1_545 S
H429 C435 0.950 . S
H430 C436 0.949 . S
C431 H426 0.950 . S
C431 C433 1.327 . S
C431 C437 1.429 . S
C432 C424 1.574 . S
C432 H427 0.949 . S
C432 C438 1.368 . S
C433 C417 1.349 . S
C433 H425 0.950 . S
C433 C431 1.327 . S
C434 C422 1.349 . S
C434 H428 0.950 1_565 S
C434 C435 1.327 . S
C435 H429 0.950 . S
C435 C434 1.327 . S
C435 C439 1.429 . S
C436 C419 1.574 . S
C436 H430 0.949 . S
C436 C440 1.368 . S
C437 C418 1.429 . S
C437 C431 1.429 . S
C437 C438 1.523 . S
C438 C419 1.368 . S
C438 C432 1.368 . S
C438 C437 1.523 . S
C439 C423 1.429 . S
C439 C435 1.429 . S
C439 C440 1.523 . S
C440 C424 1.368 . S
C440 C436 1.368 . S
C440 C439 1.523 . S
H441 C416 0.950 1_554 S
H442 C418 0.950 . S
H443 C419 0.949 . S
H444 C421 0.950 . S
H445 C423 0.950 . S
C92 C59 1.242 . S
C87 C41 1.424 . S
C117 C8 1.431 . S
C122 C83 1.273 . S
C147 C19 1.647 . S
C152 C62 1.437 . S
C177 C30 1.592 . S
C182 C80 1.373 . S
C212 C60 1.517 . S
C207 C5 1.382 . S
C242 C82 1.638 . S
C237 C18 1.670 . S
C267 C29 1.586 . S
C272 C61 1.575 . S
C297 C40 1.575 . S
C302 C81 1.557 . S
C332 C79 1.397 . S
C327 C16 1.273 . S
C362 C58 1.421 . S
C357 C27 1.290 . S
C392 C78 1.321 . S
C387 C38 1.208 . S
C417 C7 1.369 1_556 S
C422 C57 1.350 . S
