# Generated by pormake.
# Topology gar, (4,6)-cn, num edge types: 1
# Building blocks:
#     Node 0, Type 0, BuildingBlock: CEKHIL_clean_sbu_0, # of connection points: 4
#     Node 1, Type 0, BuildingBlock: CEKHIL_clean_sbu_0, # of connection points: 4
#     Node 2, Type 0, BuildingBlock: CEKHIL_clean_sbu_0, # of connection points: 4
#     Node 3, Type 0, BuildingBlock: CEKHIL_clean_sbu_0, # of connection points: 4
#     Node 4, Type 0, BuildingBlock: CEKHIL_clean_sbu_0, # of connection points: 4
#     Node 5, Type 0, BuildingBlock: CEKHIL_clean_sbu_0, # of connection points: 4
#     Node 6, Type 0, BuildingBlock: CEKHIL_clean_sbu_0, # of connection points: 4
#     Node 7, Type 0, BuildingBlock: CEKHIL_clean_sbu_0, # of connection points: 4
#     Node 8, Type 0, BuildingBlock: CEKHIL_clean_sbu_0, # of connection points: 4
#     Node 9, Type 0, BuildingBlock: CEKHIL_clean_sbu_0, # of connection points: 4
#     Node 10, Type 0, BuildingBlock: CEKHIL_clean_sbu_0, # of connection points: 4
#     Node 11, Type 0, BuildingBlock: CEKHIL_clean_sbu_0, # of connection points: 4
#     Node 12, Type 0, BuildingBlock: CEKHIL_clean_sbu_0, # of connection points: 4
#     Node 13, Type 0, BuildingBlock: CEKHIL_clean_sbu_0, # of connection points: 4
#     Node 14, Type 0, BuildingBlock: CEKHIL_clean_sbu_0, # of connection points: 4
#     Node 15, Type 0, BuildingBlock: CEKHIL_clean_sbu_0, # of connection points: 4
#     Node 16, Type 0, BuildingBlock: CEKHIL_clean_sbu_0, # of connection points: 4
#     Node 17, Type 0, BuildingBlock: CEKHIL_clean_sbu_0, # of connection points: 4
#     Node 18, Type 0, BuildingBlock: CEKHIL_clean_sbu_0, # of connection points: 4
#     Node 19, Type 0, BuildingBlock: CEKHIL_clean_sbu_0, # of connection points: 4
#     Node 20, Type 0, BuildingBlock: CEKHIL_clean_sbu_0, # of connection points: 4
#     Node 21, Type 0, BuildingBlock: CEKHIL_clean_sbu_0, # of connection points: 4
#     Node 22, Type 0, BuildingBlock: CEKHIL_clean_sbu_0, # of connection points: 4
#     Node 23, Type 0, BuildingBlock: CEKHIL_clean_sbu_0, # of connection points: 4
#     Node 24, Type 1, BuildingBlock: NUHQIS_clean_sbu_0, # of connection points: 6
#     Node 25, Type 1, BuildingBlock: NUHQIS_clean_sbu_0, # of connection points: 6
#     Node 26, Type 1, BuildingBlock: NUHQIS_clean_sbu_0, # of connection points: 6
#     Node 27, Type 1, BuildingBlock: NUHQIS_clean_sbu_0, # of connection points: 6
#     Node 28, Type 1, BuildingBlock: NUHQIS_clean_sbu_0, # of connection points: 6
#     Node 29, Type 1, BuildingBlock: NUHQIS_clean_sbu_0, # of connection points: 6
#     Node 30, Type 1, BuildingBlock: NUHQIS_clean_sbu_0, # of connection points: 6
#     Node 31, Type 1, BuildingBlock: NUHQIS_clean_sbu_0, # of connection points: 6
#     Node 32, Type 1, BuildingBlock: NUHQIS_clean_sbu_0, # of connection points: 6
#     Node 33, Type 1, BuildingBlock: NUHQIS_clean_sbu_0, # of connection points: 6
#     Node 34, Type 1, BuildingBlock: NUHQIS_clean_sbu_0, # of connection points: 6
#     Node 35, Type 1, BuildingBlock: NUHQIS_clean_sbu_0, # of connection points: 6
#     Node 36, Type 1, BuildingBlock: NUHQIS_clean_sbu_0, # of connection points: 6
#     Node 37, Type 1, BuildingBlock: NUHQIS_clean_sbu_0, # of connection points: 6
#     Node 38, Type 1, BuildingBlock: NUHQIS_clean_sbu_0, # of connection points: 6
#     Node 39, Type 1, BuildingBlock: NUHQIS_clean_sbu_0, # of connection points: 6
#     Edge 40, Type (0, 1), BuildingBlock: OJICUG_clean_linker_0, # of connection points: 2
#     Edge 41, Type (0, 1), BuildingBlock: OJICUG_clean_linker_0, # of connection points: 2
#     Edge 42, Type (0, 1), BuildingBlock: OJICUG_clean_linker_0, # of connection points: 2
#     Edge 43, Type (0, 1), BuildingBlock: OJICUG_clean_linker_0, # of connection points: 2
#     Edge 44, Type (0, 1), BuildingBlock: OJICUG_clean_linker_0, # of connection points: 2
#     Edge 45, Type (0, 1), BuildingBlock: OJICUG_clean_linker_0, # of connection points: 2
#     Edge 46, Type (0, 1), BuildingBlock: OJICUG_clean_linker_0, # of connection points: 2
#     Edge 47, Type (0, 1), BuildingBlock: OJICUG_clean_linker_0, # of connection points: 2
#     Edge 48, Type (0, 1), BuildingBlock: OJICUG_clean_linker_0, # of connection points: 2
#     Edge 49, Type (0, 1), BuildingBlock: OJICUG_clean_linker_0, # of connection points: 2
#     Edge 50, Type (0, 1), BuildingBlock: OJICUG_clean_linker_0, # of connection points: 2
#     Edge 51, Type (0, 1), BuildingBlock: OJICUG_clean_linker_0, # of connection points: 2
#     Edge 52, Type (0, 1), BuildingBlock: OJICUG_clean_linker_0, # of connection points: 2
#     Edge 53, Type (0, 1), BuildingBlock: OJICUG_clean_linker_0, # of connection points: 2
#     Edge 54, Type (0, 1), BuildingBlock: OJICUG_clean_linker_0, # of connection points: 2
#     Edge 55, Type (0, 1), BuildingBlock: OJICUG_clean_linker_0, # of connection points: 2
#     Edge 56, Type (0, 1), BuildingBlock: OJICUG_clean_linker_0, # of connection points: 2
#     Edge 57, Type (0, 1), BuildingBlock: OJICUG_clean_linker_0, # of connection points: 2
#     Edge 58, Type (0, 1), BuildingBlock: OJICUG_clean_linker_0, # of connection points: 2
#     Edge 59, Type (0, 1), BuildingBlock: OJICUG_clean_linker_0, # of connection points: 2
#     Edge 60, Type (0, 1), BuildingBlock: OJICUG_clean_linker_0, # of connection points: 2
#     Edge 61, Type (0, 1), BuildingBlock: OJICUG_clean_linker_0, # of connection points: 2
#     Edge 62, Type (0, 1), BuildingBlock: OJICUG_clean_linker_0, # of connection points: 2
#     Edge 63, Type (0, 1), BuildingBlock: OJICUG_clean_linker_0, # of connection points: 2
#     Edge 64, Type (0, 1), BuildingBlock: OJICUG_clean_linker_0, # of connection points: 2
#     Edge 65, Type (0, 1), BuildingBlock: OJICUG_clean_linker_0, # of connection points: 2
#     Edge 66, Type (0, 1), BuildingBlock: OJICUG_clean_linker_0, # of connection points: 2
#     Edge 67, Type (0, 1), BuildingBlock: OJICUG_clean_linker_0, # of connection points: 2
#     Edge 68, Type (0, 1), BuildingBlock: OJICUG_clean_linker_0, # of connection points: 2
#     Edge 69, Type (0, 1), BuildingBlock: OJICUG_clean_linker_0, # of connection points: 2
#     Edge 70, Type (0, 1), BuildingBlock: OJICUG_clean_linker_0, # of connection points: 2
#     Edge 71, Type (0, 1), BuildingBlock: OJICUG_clean_linker_0, # of connection points: 2
#     Edge 72, Type (0, 1), BuildingBlock: OJICUG_clean_linker_0, # of connection points: 2
#     Edge 73, Type (0, 1), BuildingBlock: OJICUG_clean_linker_0, # of connection points: 2
#     Edge 74, Type (0, 1), BuildingBlock: OJICUG_clean_linker_0, # of connection points: 2
#     Edge 75, Type (0, 1), BuildingBlock: OJICUG_clean_linker_0, # of connection points: 2
#     Edge 76, Type (0, 1), BuildingBlock: OJICUG_clean_linker_0, # of connection points: 2
#     Edge 77, Type (0, 1), BuildingBlock: OJICUG_clean_linker_0, # of connection points: 2
#     Edge 78, Type (0, 1), BuildingBlock: OJICUG_clean_linker_0, # of connection points: 2
#     Edge 79, Type (0, 1), BuildingBlock: OJICUG_clean_linker_0, # of connection points: 2
#     Edge 80, Type (0, 1), BuildingBlock: OJICUG_clean_linker_0, # of connection points: 2
#     Edge 81, Type (0, 1), BuildingBlock: OJICUG_clean_linker_0, # of connection points: 2
#     Edge 82, Type (0, 1), BuildingBlock: OJICUG_clean_linker_0, # of connection points: 2
#     Edge 83, Type (0, 1), BuildingBlock: OJICUG_clean_linker_0, # of connection points: 2
#     Edge 84, Type (0, 1), BuildingBlock: OJICUG_clean_linker_0, # of connection points: 2
#     Edge 85, Type (0, 1), BuildingBlock: OJICUG_clean_linker_0, # of connection points: 2
#     Edge 86, Type (0, 1), BuildingBlock: OJICUG_clean_linker_0, # of connection points: 2
#     Edge 87, Type (0, 1), BuildingBlock: OJICUG_clean_linker_0, # of connection points: 2
#     Edge 88, Type (0, 1), BuildingBlock: OJICUG_clean_linker_0, # of connection points: 2
#     Edge 89, Type (0, 1), BuildingBlock: OJICUG_clean_linker_0, # of connection points: 2
#     Edge 90, Type (0, 1), BuildingBlock: OJICUG_clean_linker_0, # of connection points: 2
#     Edge 91, Type (0, 1), BuildingBlock: OJICUG_clean_linker_0, # of connection points: 2
#     Edge 92, Type (0, 1), BuildingBlock: OJICUG_clean_linker_0, # of connection points: 2
#     Edge 93, Type (0, 1), BuildingBlock: OJICUG_clean_linker_0, # of connection points: 2
#     Edge 94, Type (0, 1), BuildingBlock: OJICUG_clean_linker_0, # of connection points: 2
#     Edge 95, Type (0, 1), BuildingBlock: OJICUG_clean_linker_0, # of connection points: 2
#     Edge 96, Type (0, 1), BuildingBlock: OJICUG_clean_linker_0, # of connection points: 2
#     Edge 97, Type (0, 1), BuildingBlock: OJICUG_clean_linker_0, # of connection points: 2
#     Edge 98, Type (0, 1), BuildingBlock: OJICUG_clean_linker_0, # of connection points: 2
#     Edge 99, Type (0, 1), BuildingBlock: OJICUG_clean_linker_0, # of connection points: 2
#     Edge 100, Type (0, 1), BuildingBlock: OJICUG_clean_linker_0, # of connection points: 2
#     Edge 101, Type (0, 1), BuildingBlock: OJICUG_clean_linker_0, # of connection points: 2
#     Edge 102, Type (0, 1), BuildingBlock: OJICUG_clean_linker_0, # of connection points: 2
#     Edge 103, Type (0, 1), BuildingBlock: OJICUG_clean_linker_0, # of connection points: 2
#     Edge 104, Type (0, 1), BuildingBlock: OJICUG_clean_linker_0, # of connection points: 2
#     Edge 105, Type (0, 1), BuildingBlock: OJICUG_clean_linker_0, # of connection points: 2
#     Edge 106, Type (0, 1), BuildingBlock: OJICUG_clean_linker_0, # of connection points: 2
#     Edge 107, Type (0, 1), BuildingBlock: OJICUG_clean_linker_0, # of connection points: 2
#     Edge 108, Type (0, 1), BuildingBlock: OJICUG_clean_linker_0, # of connection points: 2
#     Edge 109, Type (0, 1), BuildingBlock: OJICUG_clean_linker_0, # of connection points: 2
#     Edge 110, Type (0, 1), BuildingBlock: OJICUG_clean_linker_0, # of connection points: 2
#     Edge 111, Type (0, 1), BuildingBlock: OJICUG_clean_linker_0, # of connection points: 2
#     Edge 112, Type (0, 1), BuildingBlock: OJICUG_clean_linker_0, # of connection points: 2
#     Edge 113, Type (0, 1), BuildingBlock: OJICUG_clean_linker_0, # of connection points: 2
#     Edge 114, Type (0, 1), BuildingBlock: OJICUG_clean_linker_0, # of connection points: 2
#     Edge 115, Type (0, 1), BuildingBlock: OJICUG_clean_linker_0, # of connection points: 2
#     Edge 116, Type (0, 1), BuildingBlock: OJICUG_clean_linker_0, # of connection points: 2
#     Edge 117, Type (0, 1), BuildingBlock: OJICUG_clean_linker_0, # of connection points: 2
#     Edge 118, Type (0, 1), BuildingBlock: OJICUG_clean_linker_0, # of connection points: 2
#     Edge 119, Type (0, 1), BuildingBlock: OJICUG_clean_linker_0, # of connection points: 2
#     Edge 120, Type (0, 1), BuildingBlock: OJICUG_clean_linker_0, # of connection points: 2
#     Edge 121, Type (0, 1), BuildingBlock: OJICUG_clean_linker_0, # of connection points: 2
#     Edge 122, Type (0, 1), BuildingBlock: OJICUG_clean_linker_0, # of connection points: 2
#     Edge 123, Type (0, 1), BuildingBlock: OJICUG_clean_linker_0, # of connection points: 2
#     Edge 124, Type (0, 1), BuildingBlock: OJICUG_clean_linker_0, # of connection points: 2
#     Edge 125, Type (0, 1), BuildingBlock: OJICUG_clean_linker_0, # of connection points: 2
#     Edge 126, Type (0, 1), BuildingBlock: OJICUG_clean_linker_0, # of connection points: 2
#     Edge 127, Type (0, 1), BuildingBlock: OJICUG_clean_linker_0, # of connection points: 2
#     Edge 128, Type (0, 1), BuildingBlock: OJICUG_clean_linker_0, # of connection points: 2
#     Edge 129, Type (0, 1), BuildingBlock: OJICUG_clean_linker_0, # of connection points: 2
#     Edge 130, Type (0, 1), BuildingBlock: OJICUG_clean_linker_0, # of connection points: 2
#     Edge 131, Type (0, 1), BuildingBlock: OJICUG_clean_linker_0, # of connection points: 2
#     Edge 132, Type (0, 1), BuildingBlock: OJICUG_clean_linker_0, # of connection points: 2
#     Edge 133, Type (0, 1), BuildingBlock: OJICUG_clean_linker_0, # of connection points: 2
#     Edge 134, Type (0, 1), BuildingBlock: OJICUG_clean_linker_0, # of connection points: 2
#     Edge 135, Type (0, 1), BuildingBlock: OJICUG_clean_linker_0, # of connection points: 2
# Relax obj value: 0.303
# Max RMSD: 0.364
# Mean RMSD: 0.148
data_MOF--net-gar--node1-CEKHIL_clean_sbu_0--node2-NUHQIS_clean_sbu_0--edge1-OJICUG_clean_linker_0
_symmetry_space_group_name_H-M    P1
_symmetry_Int_Tables_number       1
_symmetry_cell_setting            triclinic
loop_
_symmetry_equiv_pos_as_xyz
'x, y, z'
_cell_length_a     42.175066
_cell_length_b     44.123345
_cell_length_c     40.685931
_cell_angle_alpha  92.186747
_cell_angle_beta   96.661576
_cell_angle_gamma 100.26411
loop_
_atom_site_label
_atom_site_type_symbol
_atom_site_fract_x
_atom_site_fract_y
_atom_site_fract_z
_atom_type_partial_charge
Co0 Co 0.12777 0.33804 0.43453 0.0
O1 O 0.17765 0.34407 0.43839 0.0
O2 O 0.14771 0.32627 0.39359 0.0
C3 C 0.1229 0.38983 0.45959 0.0
O4 O 0.07835 0.33186 0.4117 0.0
Co5 Co 0.08403 0.33271 0.48375 0.0
O6 O 1.04539 0.33318 0.45039 0.0
C7 C 0.11005 0.27557 0.47627 0.0
C8 C 0.17736 0.3344 0.40764 0.0
C9 C 1.04925 0.33191 0.41991 0.0
O10 O 0.12343 0.29017 0.45167 0.0
O11 O 0.09407 0.29043 0.49399 0.0
O12 O 0.12965 0.38463 0.42969 0.0
O13 O 0.12175 0.36426 0.47513 0.0
Co14 Co 0.08714 0.83907 0.67443 0.0
O15 O 1.03744 0.83581 0.67135 0.0
O16 O 0.06559 0.82889 0.71626 0.0
C17 C 0.09726 0.8908 0.64874 0.0
O18 O 0.13663 0.84181 0.69653 0.0
Co19 Co 0.13009 0.84049 0.62517 0.0
O20 O 0.17004 0.84913 0.6581 0.0
C21 C 0.09742 0.77674 0.63283 0.0
C22 C 1.03679 0.83099 0.70269 0.0
C23 C 0.16618 0.84622 0.68838 0.0
O24 O 0.08451 0.79007 0.65691 0.0
O25 O 0.11546 0.79427 0.6154 0.0
O26 O 0.09219 0.8865 0.67926 0.0
O27 O 0.09532 0.86383 0.63334 0.0
Co28 Co 0.62498 0.83544 0.93493 0.0
O29 O 0.6748 0.84153 0.93823 0.0
O30 O 0.64451 0.82373 0.89363 0.0
C31 C 0.62077 0.88725 0.96002 0.0
O32 O 0.57511 0.82931 0.91308 0.0
Co33 Co 0.58244 0.83056 0.98542 0.0
O34 O 0.54344 0.83167 0.95283 0.0
C35 C 0.60803 0.77324 0.97729 0.0
C36 C 0.67427 0.83201 0.9074 0.0
C37 C 0.54639 0.82994 0.92212 0.0
O38 O 0.62087 0.78766 0.95227 0.0
O39 O 0.59258 0.78827 0.99544 0.0
O40 O 0.62687 0.88194 0.92992 0.0
O41 O 0.61987 0.86179 0.97568 0.0
Co42 Co 0.58943 0.33725 0.17405 0.0
O43 O 0.5397 0.3339 0.17117 0.0
O44 O 0.56804 0.32726 0.21604 0.0
C45 C 0.59951 0.38877 0.148 0.0
O46 O 0.63909 0.34008 0.19586 0.0
Co47 Co 0.63216 0.33855 0.12415 0.0
O48 O 0.67212 0.34684 0.15701 0.0
C49 C 0.59946 0.27492 0.13241 0.0
C50 C 0.53917 0.32921 0.20255 0.0
C51 C 0.66853 0.34419 0.18739 0.0
O52 O 0.58679 0.28826 0.15666 0.0
O53 O 0.61728 0.29236 0.11472 0.0
O54 O 0.59445 0.38469 0.17856 0.0
O55 O 0.59747 0.36171 0.1328 0.0
Co56 Co 0.19026 0.92578 0.21893 0.0
O57 O 0.14567 0.90502 0.2106 0.0
O58 O 0.17625 0.91103 0.25949 0.0
C59 C 0.1823 0.9661 0.18924 0.0
O60 O 0.23604 0.94489 0.23861 0.0
Co61 Co 0.2353 0.9415 0.16504 0.0
O62 O 0.27012 0.95857 0.20135 0.0
C63 C 0.21623 0.87695 0.18295 0.0
C64 C 0.1484 0.90042 0.24211 0.0
C65 C 0.26453 0.95544 0.23123 0.0
O66 O 0.20483 0.88624 0.20865 0.0
O67 O 0.22659 0.89504 0.16104 0.0
O68 O 0.17615 0.96546 0.21984 0.0
O69 O 0.19239 0.94247 0.1775 0.0
Co70 Co 0.53313 0.75769 0.43758 0.0
O71 O 0.57547 0.78305 0.44015 0.0
O72 O 0.55673 0.74292 0.40438 0.0
C73 C 0.50736 0.7974 0.44028 0.0
O74 O 0.49047 0.72775 0.42581 0.0
Co75 Co 0.4882 0.75473 0.49152 0.0
O76 O 0.45397 0.74519 0.45262 0.0
C77 C 0.54864 0.7304 0.50278 0.0
C78 C 0.57988 0.76603 0.41493 0.0
C79 C 0.46176 0.73358 0.42628 0.0
O80 O 0.55049 0.73093 0.47145 0.0
O81 O 0.52657 0.74074 0.51644 0.0
O82 O 0.51532 0.78792 0.41228 0.0
O83 O 0.51607 0.78319 0.46625 0.0
Co84 Co 0.6814 0.42321 0.70468 0.0
O85 O 0.6403 0.39554 0.70168 0.0
O86 O 0.67453 0.40863 0.74772 0.0
C87 C 0.66136 0.45824 0.67339 0.0
O88 O 0.72506 0.45093 0.71818 0.0
Co89 Co 0.71727 0.44423 0.64468 0.0
O90 O 0.75623 0.44914 0.67815 0.0
C91 C 0.7123 0.38019 0.66636 0.0
C92 C 0.64688 0.39329 0.7334 0.0
C93 C 0.75256 0.44875 0.70873 0.0
O94 O 0.70306 0.38806 0.69392 0.0
O95 O 0.71581 0.3983 0.6426 0.0
O96 O 0.65878 0.45836 0.70498 0.0
O97 O 0.67562 0.43738 0.66201 0.0
Co98 Co 1.0444 0.26887 0.93552 0.0
O99 O 0.08412 0.29793 0.93512 0.0
O100 O 0.06655 0.25749 0.89945 0.0
C101 C 1.01443 0.30485 0.94287 0.0
O102 O 1.00448 0.23524 0.92703 0.0
Co103 Co 1.00327 0.25941 0.99295 0.0
O104 O 0.96731 0.24789 0.956 0.0
C105 C 0.06744 0.24123 0.99818 0.0
C106 C 0.08833 0.28194 0.90902 0.0
C107 C 0.97515 0.2387 0.92857 0.0
O108 O 0.06772 0.24373 0.96678 0.0
O109 O 1.04474 0.24808 1.01371 0.0
O110 O 1.02072 0.29743 0.91338 0.0
O111 O 1.02694 0.2908 0.96716 0.0
Co112 Co 0.56759 0.16821 0.32978 0.0
O113 O 0.55096 0.20442 0.3151 0.0
O114 O 0.53653 0.15734 0.29109 0.0
C115 C 0.56411 0.17431 0.3843 0.0
O116 O 0.57515 0.12467 0.33658 0.0
Co117 Co 0.62899 0.16682 0.37898 0.0
O118 O 0.60912 0.12258 0.38261 0.0
C119 C 0.63562 0.18266 0.30988 0.0
C120 C 0.53257 0.18579 0.29206 0.0
C121 C 0.58772 0.10944 0.35929 0.0
O122 O 0.60451 0.17661 0.30228 0.0
O123 O 0.64975 0.18218 0.33942 0.0
O124 O 0.53828 0.16326 0.36369 0.0
O125 O 0.58992 0.18442 0.37094 0.0
Co126 Co 0.38324 0.20657 0.55231 0.0
O127 O 0.43278 0.21193 0.55448 0.0
O128 O 0.40357 0.16913 0.56366 0.0
C129 C 0.376 0.23054 0.49891 0.0
O130 O 0.33272 0.18491 0.55149 0.0
Co131 Co 0.33934 0.25213 0.549 0.0
O132 O 0.29998 0.2195 0.54832 0.0
C133 C 0.37234 0.24664 0.61622 0.0
C134 C 0.43273 0.18315 0.56058 0.0
C135 C 0.30347 0.19161 0.5506 0.0
O136 O 0.38521 0.22424 0.60329 0.0
O137 O 0.35463 0.26133 0.59753 0.0
O138 O 0.37978 0.20208 0.50173 0.0
O139 O 0.37675 0.24404 0.52793 0.0
Co140 Co 0.25734 0.12975 0.87099 0.0
O141 O 0.24865 0.09177 0.84385 0.0
O142 O 0.29496 0.12551 0.84993 0.0
C143 C 0.2363 0.10858 0.91481 0.0
O144 O 0.27652 0.17051 0.89597 0.0
Co145 Co 0.20431 0.15948 0.90013 0.0
O146 O 0.23967 0.19437 0.91634 0.0
C147 C 0.21943 0.1709 0.83138 0.0
C148 C 0.27833 0.09924 0.8371 0.0
C149 C 0.26844 0.19408 0.90993 0.0
O150 O 0.24064 0.15316 0.83348 0.0
O151 O 0.20201 0.17499 0.85437 0.0
O152 O 0.26605 0.10718 0.9104 0.0
O153 O 0.22008 0.12158 0.89248 0.0
Co154 Co 0.37258 0.92805 0.06099 0.0
O155 O 0.32732 0.92514 0.06905 0.0
O156 O 0.36716 0.96504 0.08359 0.0
C157 C 0.3635 0.90898 1.00679 0.0
O158 O 0.41966 0.94378 0.05736 0.0
Co159 Co 0.40912 0.8771 0.04609 0.0
O160 O 0.44899 0.90894 0.04436 0.0
C161 C 0.39363 0.88579 0.11402 0.0
C162 C 0.33699 0.95272 0.08348 0.0
C163 C 0.44655 0.9367 0.05133 0.0
O164 O 0.38385 0.91074 0.10556 0.0
O165 O 0.40213 0.86737 0.09305 0.0
O166 O 0.36156 0.93736 1.01482 0.0
O167 O 0.36878 0.89218 0.03168 0.0
Co168 Co 0.32708 0.46243 0.05362 0.0
O169 O 0.27717 0.45669 0.04762 0.0
O170 O 0.30707 0.49972 0.06534 0.0
C171 C 0.33375 0.43795 1.00102 0.0
O172 O 0.37773 0.4838 0.05959 0.0
Co173 Co 0.3714 0.41444 0.05586 0.0
O174 O 0.40687 0.44826 0.04657 0.0
C175 C 0.33962 0.42124 0.11636 0.0
C176 C 0.27741 0.48544 0.05663 0.0
C177 C 0.40518 0.47643 0.05259 0.0
O178 O 0.329 0.44538 0.10334 0.0
O179 O 0.35507 0.40488 0.09967 0.0
O180 O 0.32672 0.46546 1.00368 0.0
O181 O 0.33409 0.4254 0.02924 0.0
Co182 Co 0.83873 0.23919 0.03522 0.0
O183 O 0.88563 0.24679 0.0354 0.0
O184 O 0.8556 0.20297 0.04682 0.0
C185 C 0.82836 0.26063 0.98565 0.0
O186 O 0.7916 0.21887 0.03535 0.0
Co187 Co 0.79419 0.28524 0.03593 0.0
O188 O 0.75683 0.25048 1.02332 0.0
C189 C 0.83596 0.27832 0.09793 0.0
C190 C 0.88395 0.21808 0.04258 0.0
C191 C 0.76255 0.22351 1.0279 0.0
O192 O 0.84349 0.25421 0.08405 0.0
O193 O 0.81856 0.29529 0.08198 0.0
O194 O 0.83327 0.23245 0.987 0.0
O195 O 0.83051 0.27561 1.01413 0.0
Co196 Co 0.16859 0.53582 0.26805 0.0
O197 O 0.18538 0.51254 0.3029 0.0
O198 O 0.21352 0.53534 0.2649 0.0
C199 C 0.14297 0.56418 0.2993 0.0
O200 O 0.16019 0.56244 0.22991 0.0
Co201 Co 0.092 0.53643 0.24786 0.0
O202 O 0.11216 0.57729 0.23214 0.0
C203 C 0.12375 0.48984 0.22794 0.0
C204 C 0.2131 0.51983 0.29139 0.0
C205 C 0.1414 0.58221 0.22517 0.0
O206 O 0.15419 0.49813 0.23711 0.0
O207 O 0.10501 0.49471 0.24905 0.0
O208 O 0.17417 0.57164 0.29905 0.0
O209 O 0.12874 0.53875 0.28298 0.0
Co210 Co 0.82527 0.96103 0.55097 0.0
O211 O 0.77543 0.95516 0.54564 0.0
O212 O 0.80539 0.99842 0.56251 0.0
C213 C 0.83059 0.9362 0.49817 0.0
O214 O 0.87618 0.9822 0.55622 0.0
Co215 Co 0.86909 0.91305 0.55298 0.0
O216 O 0.90507 0.94634 0.54362 0.0
C217 C 0.83803 0.92023 0.61394 0.0
C218 C 0.77571 0.98398 0.55425 0.0
C219 C 0.90364 0.97461 0.54939 0.0
O220 O 0.82761 0.94443 0.60089 0.0
O221 O 0.85313 0.90364 0.59709 0.0
O222 O 0.82404 0.96386 0.50101 0.0
O223 O 0.83148 0.92371 0.52647 0.0
Co224 Co 0.96681 1.038 0.24331 0.0
O225 O 0.97069 0.07531 0.27089 0.0
O226 O 0.92944 0.05696 0.23235 0.0
C227 C 0.98123 1.0083 0.28385 0.0
O228 O 0.95289 0.99967 0.21203 0.0
Co229 Co 1.02448 1.00431 0.23413 0.0
O230 O 0.98845 0.9686 0.2244 0.0
C231 C 1.02269 0.06539 0.20812 0.0
C232 C 0.94252 0.07789 0.25568 0.0
C233 C 0.95963 0.97253 0.21515 0.0
O234 O 0.99198 0.06231 0.21019 0.0
O235 O 1.04004 0.04608 0.219 0.0
O236 O 0.95163 1.0134 0.2794 0.0
O237 O 1.00119 1.02303 0.26566 0.0
Co238 Co 0.33784 0.74076 0.5395 0.0
O239 O 0.38457 0.74636 0.53947 0.0
O240 O 0.35251 0.70321 0.54964 0.0
C241 C 0.32961 0.76429 0.49108 0.0
O242 O 0.29045 0.72182 0.53931 0.0
Co243 Co 0.29468 0.78763 0.54108 0.0
O244 O 0.25619 0.75395 0.52822 0.0
C245 C 0.33649 0.77924 0.60256 0.0
C246 C 0.38124 0.71718 0.5452 0.0
C247 C 0.26153 0.72681 0.53236 0.0
O248 O 0.34301 0.75475 0.5885 0.0
O249 O 0.31977 0.79693 0.58689 0.0
O250 O 0.33241 0.73545 0.49121 0.0
O251 O 0.33164 0.77841 0.51999 0.0
Co252 Co 0.43319 0.57606 0.74391 0.0
O253 O 0.4218 0.61609 0.74107 0.0
O254 O 0.39548 0.57411 0.71127 0.0
C255 C 0.43863 0.57629 0.79956 0.0
O256 O 0.43641 0.53052 0.74169 0.0
Co257 Co 0.49986 0.56754 0.78062 0.0
O258 O 0.47908 0.5234 0.77726 0.0
C259 C 0.4964 0.59574 0.71607 0.0
C260 C 0.39735 0.60315 0.71982 0.0
C261 C 0.45301 0.51293 0.75802 0.0
O262 O 0.46529 0.58644 0.71057 0.0
O263 O 0.51319 0.59347 0.74384 0.0
O264 O 0.40997 0.56835 0.78286 0.0
O265 O 0.46188 0.58591 0.78253 0.0
Co266 Co 0.672 0.04993 0.7786 0.0
O267 O 0.68613 1.0245 0.81278 0.0
O268 O 0.71752 0.04994 0.77889 0.0
C269 C 0.64322 0.07669 0.80775 0.0
O270 O 0.66666 0.07892 0.74203 0.0
Co271 Co 0.59592 0.0484 0.7528 0.0
O272 O 0.61476 0.08606 0.73065 0.0
C273 C 0.63062 1.00339 0.73524 0.0
C274 C 0.71487 1.03221 0.80356 0.0
C275 C 0.64501 0.09279 0.72756 0.0
O276 O 0.6605 1.01393 0.74529 0.0
O277 O 0.61028 1.0074 0.75496 0.0
O278 O 0.67472 0.0842 0.81105 0.0
O279 O 0.63058 0.05156 0.79013 0.0
Co280 Co 0.88232 0.70492 0.04991 0.0
O281 O 0.93201 0.71103 0.05353 0.0
O282 O 0.90296 0.66777 0.06155 0.0
C283 C 0.87574 0.72942 0.99669 0.0
O284 O 0.83218 0.68239 0.04778 0.0
Co285 Co 0.83717 0.7498 0.04531 0.0
O286 O 0.79857 0.71621 0.04367 0.0
C287 C 0.86788 0.74329 0.11339 0.0
C288 C 0.93216 0.68222 0.0594 0.0
C289 C 0.80272 0.68851 0.0462 0.0
O290 O 0.8822 0.72176 0.10083 0.0
O291 O 0.85039 0.75784 0.09428 0.0
O292 O 0.88022 0.70114 0.99934 0.0
O293 O 0.87554 0.7424 1.02576 0.0
Co294 Co 0.06701 0.679 0.84575 0.0
O295 O 1.05498 0.71611 0.82684 0.0
O296 O 1.03385 0.6679 0.80932 0.0
C297 C 0.0684 0.6911 0.90023 0.0
O298 O 0.06718 0.63498 0.85674 0.0
Co299 Co 0.12738 0.67073 0.8925 0.0
O300 O 0.10302 0.62861 0.89954 0.0
C301 C 0.13262 0.68025 0.82181 0.0
C302 C 1.03397 0.69692 0.80626 0.0
C303 C 0.07809 0.61827 0.87878 0.0
O304 O 0.10163 0.67842 0.81586 0.0
O305 O 0.14761 0.67989 0.85096 0.0
O306 O 1.0407 0.68263 0.88154 0.0
O307 O 0.09365 0.69574 0.88468 0.0
Co308 Co 0.87064 0.42649 0.55984 0.0
O309 O 0.82537 0.42134 0.5686 0.0
O310 O 0.86331 0.4628 0.58255 0.0
C311 C 0.86204 0.40736 0.50541 0.0
O312 O 0.91728 0.44433 0.55557 0.0
Co313 Co 0.90921 0.37721 0.54511 0.0
O314 O 0.94761 0.41037 0.54238 0.0
C315 C 0.89562 0.38636 0.6137 0.0
C316 C 0.83368 0.449 0.5831 0.0
C317 C 0.94437 0.43794 0.54913 0.0
O318 O 0.88348 0.40998 0.60464 0.0
O319 O 0.90517 0.3685 0.59292 0.0
O320 O 0.8586 0.43527 0.51361 0.0
O321 O 0.86815 0.39078 0.53031 0.0
Co322 Co 0.78243 0.62331 0.39366 0.0
O323 O 0.7863 0.5835 0.37593 0.0
O324 O 0.82649 0.62408 0.38497 0.0
C325 C 0.75402 0.60408 0.43393 0.0
O326 O 0.78888 0.66752 0.4116 0.0
Co327 Co 0.71673 0.64424 0.40166 0.0
O328 O 0.74307 0.68437 0.41934 0.0
C329 C 0.74665 0.65131 0.33831 0.0
C330 C 0.81684 0.59508 0.37569 0.0
C331 C 0.77366 0.68912 0.41881 0.0
O332 O 0.77026 0.6377 0.34842 0.0
O333 O 0.72366 0.65478 0.35528 0.0
O334 O 0.78556 0.60822 0.43827 0.0
O335 O 0.74087 0.6111 0.40583 0.0
Tb336 Tb 0.11122 0.09962 0.06012 0.0
Eu337 Eu 0.17997 0.12446 0.10804 0.0
C338 C 0.17626 0.09669 0.03245 0.0
C339 C 0.14761 0.05565 0.10078 0.0
C340 C 1.03142 0.10857 1.02516 0.0
C341 C 0.97517 0.11499 1.0203 0.0
C342 C 0.9983 0.09608 1.01817 0.0
C343 C 1.04119 0.14036 0.03353 0.0
C344 C 1.01813 0.15926 0.03564 0.0
C345 C 0.9848 0.1467 0.02968 0.0
C346 C 1.05572 0.08834 1.02725 0.0
O347 O 0.1018 0.1306 0.09871 0.0
O348 O 0.13842 0.11848 0.13889 0.0
O349 O 0.16199 0.16761 0.09351 0.0
O350 O 0.13547 0.1434 0.04456 0.0
C351 C 0.11022 0.12629 0.1298 0.0
O352 O 0.207 0.11821 0.15561 0.0
O353 O 0.23091 0.14684 0.12018 0.0
O354 O 0.19138 0.11745 0.05585 0.0
O355 O 0.14627 0.08199 0.03319 0.0
O356 O 0.11916 0.06363 0.0942 0.0
O357 O 0.17369 0.07422 0.09522 0.0
C358 C 0.14748 0.1686 0.06332 0.0
O359 O 0.08219 0.09838 1.0143 0.0
O360 O 0.06214 0.07818 0.05648 0.0
C361 C 0.25497 0.10532 0.14077 0.0
C362 C 0.27592 0.04901 0.12788 0.0
C363 C 0.27175 0.05831 0.16033 0.0
C364 C 0.26116 0.08613 0.16667 0.0
C365 C 0.26088 0.09663 0.10872 0.0
C366 C 0.27107 0.06883 0.10235 0.0
C367 C 0.23457 0.12896 0.14486 0.0
H368 H 0.94969 0.10468 1.01501 0.0
H369 H 0.9903 0.07161 1.0119 0.0
H370 H 0.06669 0.15043 0.03944 0.0
H371 H 1.02639 0.18345 0.04321 0.0
H372 H 0.27549 0.04354 0.18054 0.0
H373 H 0.25606 0.0918 0.19143 0.0
H374 H 0.25596 0.1105 0.08803 0.0
H375 H 0.27486 0.06271 0.07725 0.0
Tb376 Tb 0.40489 0.86234 0.32889 0.0
Eu377 Eu 0.33858 0.81866 0.28841 0.0
C378 C 0.34649 0.89316 0.30169 0.0
C379 C 0.3501 0.82435 0.36894 0.0
C380 C 0.47825 0.92505 0.35647 0.0
C381 C 0.50177 0.97504 0.38493 0.0
C382 C 0.4811 0.94632 0.38376 0.0
C383 C 0.49689 0.93297 0.33055 0.0
C384 C 0.51747 0.96168 0.33166 0.0
C385 C 0.52005 0.98317 0.35876 0.0
C386 C 0.45788 0.89398 0.35671 0.0
O387 O 0.41451 0.81556 0.32008 0.0
O388 O 0.36378 0.78562 0.31706 0.0
O389 O 0.37874 0.82613 0.25615 0.0
O390 O 0.40172 0.87439 0.27677 0.0
C391 C 0.39536 0.78932 0.32436 0.0
O392 O 0.31873 0.78606 0.24657 0.0
O393 O 0.28605 0.80658 0.2744 0.0
O394 O 0.33387 0.86819 0.28277 0.0
O395 O 0.37134 0.89455 0.32462 0.0
O396 O 0.38001 0.83961 0.36844 0.0
O397 O 0.32922 0.81683 0.34188 0.0
C398 C 0.39388 0.85386 0.25153 0.0
O399 O 0.43021 0.89235 0.36852 0.0
O400 O 0.45547 0.87513 0.33066 0.0
C401 C 0.26517 0.75793 0.2444 0.0
C402 C 0.21956 0.70255 0.22979 0.0
C403 C 0.24375 0.71145 0.20922 0.0
C404 C 0.26603 0.73889 0.21628 0.0
C405 C 0.24106 0.74935 0.26509 0.0
C406 C 0.21848 0.72189 0.25786 0.0
C407 C 0.2886 0.7872 0.25015 0.0
H408 H 0.50292 0.99107 0.40605 0.0
H409 H 0.46747 0.94064 0.40438 0.0
H410 H 0.4958 0.91695 0.30943 0.0
H411 H 0.53155 0.96698 0.31131 0.0
H412 H 0.24541 0.69741 0.18734 0.0
H413 H 0.28399 0.74531 0.19955 0.0
H414 H 0.23965 0.76375 0.28684 0.0
H415 H 0.20068 0.71554 0.27472 0.0
Tb416 Tb 0.58078 0.05729 0.53449 0.0
Eu417 Eu 0.62797 0.11196 0.57784 0.0
C418 C 0.60008 0.04908 0.60956 0.0
C419 C 0.55042 0.11764 0.56256 0.0
C420 C 0.52952 0.986 0.48784 0.0
C421 C 0.48937 0.93882 0.48408 0.0
C422 C 0.49938 0.96984 0.49452 0.0
C423 C 0.5493 0.97095 0.46998 0.0
C424 C 0.5392 0.94006 0.45933 0.0
C425 C 0.50924 0.92375 0.46641 0.0
C426 C 0.53883 1.01886 0.49801 0.0
O427 O 0.60055 0.08916 0.49988 0.0
O428 O 0.61123 0.13382 0.53179 0.0
O429 O 0.66214 0.07835 0.56374 0.0
O430 O 0.62671 1.03642 0.53835 0.0
C431 C 0.60245 0.11897 0.503 0.0
O432 O 0.67375 0.14432 0.58128 0.0
O433 O 0.64659 0.13921 0.62381 0.0
O434 O 0.60872 0.07902 0.61443 0.0
O435 O 0.59195 1.03539 0.57999 0.0
O436 O 0.54669 0.08904 0.54871 0.0
O437 O 0.5801 0.1317 0.57528 0.0
C438 C 0.65711 0.04954 0.55069 0.0
O439 O 0.53602 1.02679 0.5286 0.0
O440 O 0.56519 1.03399 0.48815 0.0
C441 C 0.67947 0.18794 0.61837 0.0
C442 C 0.69905 0.25106 0.63637 0.0
C443 C 0.71679 0.23621 0.61582 0.0
C444 C 0.70713 0.2048 0.60701 0.0
C445 C 0.66112 0.20305 0.638 0.0
C446 C 0.67095 0.23432 0.64708 0.0
C447 C 0.67154 0.15442 0.61139 0.0
H448 H 0.46614 0.92664 0.48966 0.0
H449 H 0.48355 0.98127 0.50781 0.0
H450 H 0.57255 0.98292 0.46422 0.0
H451 H 0.55518 0.92875 0.44615 0.0
H452 H 0.73853 0.24868 0.60727 0.0
H453 H 0.72176 0.19352 0.59203 0.0
H454 H 0.63955 0.19066 0.64694 0.0
H455 H 0.65643 0.24547 0.66232 0.0
Tb456 Tb 0.33183 0.3447 0.79939 0.0
Eu457 Eu 0.40177 0.3324 0.83074 0.0
C458 C 0.39479 0.39031 0.78511 0.0
C459 C 0.37271 0.30553 0.75385 0.0
C460 C 0.24547 0.34275 0.79647 0.0
C461 C 0.18858 0.32136 0.79794 0.0
C462 C 0.21463 0.3303 0.7799 0.0
C463 C 0.2499 0.34674 0.83118 0.0
C464 C 0.22397 0.33786 0.84918 0.0
C465 C 0.19312 0.32467 0.8328 0.0
C466 C 0.27385 0.34685 0.77835 0.0
O467 O 0.3231 0.3158 0.84083 0.0
O468 O 0.36643 0.29162 0.84234 0.0
O469 O 0.38139 0.35519 0.87482 0.0
O470 O 0.34074 0.37538 0.84606 0.0
C471 C 0.33815 0.29379 0.85111 0.0
O472 O 0.436 0.30138 0.8415 0.0
O473 O 0.44879 0.3491 0.86008 0.0
O474 O 0.41254 0.37724 0.80687 0.0
O475 O 0.36368 0.37972 0.77644 0.0
O476 O 0.34474 0.31265 0.76078 0.0
O477 O 0.3989 0.31375 0.77592 0.0
C478 C 0.35906 0.37311 0.87444 0.0
O479 O 0.29602 0.3714 0.78703 0.0
O480 O 0.28651 0.32213 0.77587 0.0
C481 C 0.49061 0.32654 0.84151 0.0
C482 C 0.54719 0.33921 0.80995 0.0
C483 C 0.54419 0.35678 0.83863 0.0
C484 C 0.51622 0.3504 0.85432 0.0
C485 C 0.49442 0.30775 0.81407 0.0
C486 C 0.52249 0.31398 0.79854 0.0
C487 C 0.45923 0.32343 0.85495 0.0
H488 H 0.16501 0.31152 0.78464 0.0
H489 H 0.21096 0.32654 0.75315 0.0
H490 H 0.27372 0.3556 0.8445 0.0
H491 H 0.2284 0.34024 0.87599 0.0
H492 H 0.56262 0.37654 0.84794 0.0
H493 H 0.51393 0.3651 0.87554 0.0
H494 H 0.47527 0.28895 0.80373 0.0
H495 H 0.52436 0.29965 0.77689 0.0
Tb496 Tb 0.10823 0.06585 0.52276 0.0
Eu497 Eu 0.10235 0.09659 0.59037 0.0
C498 C 0.17341 0.10967 0.55927 0.0
C499 C 0.10628 1.02021 0.58657 0.0
C500 C 0.0853 1.01264 0.44899 0.0
C501 C 0.07545 0.97228 0.40502 0.0
C502 C 0.09701 0.99198 0.42865 0.0
C503 C 1.05167 1.0102 0.44881 0.0
C504 C 1.03029 0.99129 0.42473 0.0
C505 C 1.0422 0.97434 0.40036 0.0
C506 C 0.10765 1.03893 0.46712 0.0
O507 O 1.05527 0.04924 0.52734 0.0
O508 O 1.04923 0.07277 0.57637 0.0
O509 O 0.09958 0.13839 0.55713 0.0
O510 O 0.1098 0.11655 0.50892 0.0
C511 C 1.03666 0.05376 0.55061 0.0
O512 O 0.11792 0.10374 0.64316 0.0
O513 O 0.07991 0.12664 0.62061 0.0
O514 O 0.15534 0.1169 0.58189 0.0
O515 O 0.16057 0.08734 0.5364 0.0
O516 O 0.10899 1.02397 0.55445 0.0
O517 O 0.10461 0.04542 0.60502 0.0
C518 C 0.10552 0.14188 0.52603 0.0
O519 O 0.09519 0.06356 0.47158 0.0
O520 O 0.12542 1.03309 0.49369 0.0
C521 C 0.11653 0.15318 0.66464 0.0
C522 C 0.15924 0.19446 0.71005 0.0
C523 C 0.12729 0.18332 0.71665 0.0
C524 C 0.10617 0.16245 0.69412 0.0
C525 C 0.14605 0.16836 0.6554 0.0
C526 C 0.16734 0.18913 0.67805 0.0
C527 C 0.09968 0.12432 0.64713 0.0
H528 H 0.08543 0.95797 0.38824 0.0
H529 H 0.12288 0.99265 0.42933 0.0
H530 H 1.04189 1.02516 0.46509 0.0
H531 H 1.00499 0.99329 0.42317 0.0
H532 H 0.12004 0.18707 0.74093 0.0
H533 H 0.08317 0.15122 0.70124 0.0
H534 H 0.15401 0.1618 0.63222 0.0
H535 H 0.19155 0.19788 0.6721 0.0
Tb536 Tb 0.34167 0.80446 0.81481 0.0
Eu537 Eu 0.37181 0.87323 0.79487 0.0
C538 C 0.34889 0.86053 0.86846 0.0
C539 C 0.29284 0.8436 0.77412 0.0
C540 C 0.30789 0.72217 0.79919 0.0
C541 C 0.3098 0.66874 0.78516 0.0
C542 C 0.30915 0.69228 0.80889 0.0
C543 C 0.30285 0.7273 0.76526 0.0
C544 C 0.30401 0.70389 0.74151 0.0
C545 C 0.30982 0.67504 0.7515 0.0
C546 C 0.32095 0.74838 0.82324 0.0
O547 O 0.3466 0.79969 0.76188 0.0
O548 O 0.38292 0.84291 0.75374 0.0
O549 O 0.41776 0.85699 0.81832 0.0
O550 O 0.39348 0.81232 0.83929 0.0
C551 C 0.36554 0.81599 0.74306 0.0
O552 O 0.37858 0.90755 0.75792 0.0
O553 O 0.39829 0.91998 0.80903 0.0
O554 O 0.35487 0.8801 0.84529 0.0
O555 O 0.34376 0.8305 0.86194 0.0
O556 O 0.29645 0.82059 0.79353 0.0
O557 O 0.31839 0.86498 0.77055 0.0
C558 C 0.41993 0.83327 0.8368 0.0
O559 O 0.3512 0.76006 0.82114 0.0
O560 O 0.3036 0.76984 0.82588 0.0
C561 C 0.37659 0.95778 0.77921 0.0
C562 C 0.34493 1.0084 0.78601 0.0
C563 C 0.37648 1.00933 0.8022 0.0
C564 C 0.39217 0.98429 0.79871 0.0
C565 C 0.34572 0.95735 0.76171 0.0
C566 C 0.33014 0.9825 0.76494 0.0
C567 C 0.39148 0.92999 0.7798 0.0
H568 H 0.31441 0.64677 0.79367 0.0
H569 H 0.31315 0.6879 0.83494 0.0
H570 H 0.30147 0.75019 0.75724 0.0
H571 H 0.30368 0.70926 0.71572 0.0
H572 H 0.38845 1.0287 0.81896 0.0
H573 H 0.41594 0.98509 0.81245 0.0
H574 H 0.33306 0.93722 0.74641 0.0
H575 H 0.3061 0.98125 0.7517 0.0
Tb576 Tb 0.62681 0.0729 0.08062 0.0
Eu577 Eu 0.58229 0.08617 1.01712 0.0
C578 C 0.61299 1.01879 1.01911 0.0
C579 C 0.65744 0.11904 1.02889 0.0
C580 C 0.6796 0.09353 0.15686 0.0
C581 C 0.6892 0.14858 0.17099 0.0
C582 C 0.68267 0.12403 0.14714 0.0
C583 C 0.68707 0.08798 0.19018 0.0
C584 C 0.69391 0.11256 0.21406 0.0
C585 C 0.69275 0.14283 0.20477 0.0
C586 C 0.66188 0.06842 0.13368 0.0
O587 O 0.6097 0.11767 0.09688 0.0
O588 O 0.59084 0.13374 0.04707 0.0
O589 O 0.54969 0.06456 0.05271 0.0
O590 O 0.5844 1.03599 0.07609 0.0
C591 C 0.59955 0.14018 0.07934 0.0
O592 O 0.54105 0.10635 0.99648 0.0
O593 O 0.5628 0.07726 0.9652 0.0
O594 O 0.59538 1.03723 1.00265 0.0
O595 O 0.62797 1.02916 0.04935 0.0
O596 O 0.66142 0.102 0.05422 0.0
O597 O 0.62951 0.11654 1.01026 0.0
C598 C 0.55472 1.03939 0.06646 0.0
O599 O 0.63034 0.0659 0.13142 0.0
O600 O 0.67201 0.06723 0.10463 0.0
C601 C 0.54646 0.11986 0.94176 0.0
C602 C 0.56779 0.13946 0.88256 0.0
C603 C 0.53452 0.12784 0.88362 0.0
C604 C 0.52418 0.11678 0.91305 0.0
C605 C 0.57669 0.13928 0.94249 0.0
C606 C 0.58742 0.14912 0.91291 0.0
C607 C 0.54276 0.09655 0.96627 0.0
H608 H 0.68827 0.17166 0.16322 0.0
H609 H 0.67698 0.12871 0.12139 0.0
H610 H 0.68465 0.06457 0.19803 0.0
H611 H 0.69629 0.10735 0.23994 0.0
H612 H 0.5178 0.12255 0.86102 0.0
H613 H 0.50023 0.10274 0.91237 0.0
H614 H 0.5938 0.14285 0.96489 0.0
H615 H 0.61274 0.15963 0.91394 0.0
Tb616 Tb 0.37542 0.35734 0.32631 0.0
Eu617 Eu 0.34159 0.29649 0.28747 0.0
C618 C 0.37063 0.29634 0.36851 0.0
C619 C 0.42002 0.32658 0.27947 0.0
C620 C 0.37011 0.4333 0.34964 0.0
C621 C 0.35441 0.48276 0.36069 0.0
C622 C 0.3774 0.46322 0.3649 0.0
C623 C 0.34004 0.42331 0.33027 0.0
C624 C 0.31727 0.44229 0.32654 0.0
C625 C 0.32412 0.47202 0.34171 0.0
C626 C 0.39229 0.41115 0.35317 0.0
O627 O 0.36004 0.37357 0.27545 0.0
O628 O 0.33012 0.3302 0.24765 0.0
O629 O 0.29653 0.30776 0.3104 0.0
O630 O 0.32458 0.34981 0.34231 0.0
C631 C 0.34266 0.35988 0.24773 0.0
O632 O 0.3175 0.26612 0.24428 0.0
O633 O 0.33701 0.24666 0.28822 0.0
O634 O 0.35197 0.28215 0.34189 0.0
O635 O 0.38608 0.32506 0.36602 0.0
O636 O 0.41994 0.34452 0.30663 0.0
O637 O 0.39228 0.30817 0.26783 0.0
C638 C 0.29695 0.32958 0.33399 0.0
O639 O 0.38191 0.38724 0.36921 0.0
O640 O 0.40174 0.40263 0.32557 0.0
C641 C 0.35017 0.2278 0.23887 0.0
C642 C 0.41096 0.21133 0.23382 0.0
C643 C 0.40388 0.23871 0.22086 0.0
C644 C 0.37356 0.24676 0.22305 0.0
C645 C 0.35568 0.19855 0.24754 0.0
C646 C 0.38586 0.19032 0.24499 0.0
C647 C 0.32747 0.24208 0.25659 0.0
H648 H 0.36006 0.5059 0.3723 0.0
H649 H 0.40054 0.47135 0.37986 0.0
H650 H 0.33394 0.40064 0.31786 0.0
H651 H 0.29425 0.43381 0.31141 0.0
H652 H 0.42259 0.25492 0.21142 0.0
H653 H 0.36985 0.26933 0.21571 0.0
H654 H 0.33817 0.18362 0.25998 0.0
H655 H 0.39057 0.16897 0.2551 0.0
Tb656 Tb 0.60826 0.56375 1.02238 0.0
Eu657 Eu 0.60525 0.59429 0.09118 0.0
C658 C 0.67464 0.60496 0.05683 0.0
C659 C 0.60891 0.51785 0.08533 0.0
C660 C 0.5746 0.53115 0.93954 0.0
C661 C 0.54779 0.54382 0.88743 0.0
C662 C 0.57622 0.54179 0.9077 0.0
C663 C 0.54411 0.5194 0.94939 0.0
C664 C 0.51555 0.5215 0.9291 0.0
C665 C 0.51743 0.53522 0.89877 0.0
C666 C 0.60348 0.53937 0.96426 0.0
O667 O 0.55502 0.55135 1.02794 0.0
O668 O 0.55131 0.57299 0.07892 0.0
O669 O 0.60036 0.63642 0.059 0.0
O670 O 0.60724 0.61433 1.00951 0.0
C671 C 0.53752 0.55539 0.05241 0.0
O672 O 0.62211 0.59448 0.14341 0.0
O673 O 0.59324 0.62823 0.12624 0.0
O674 O 0.65692 0.61361 0.07891 0.0
O675 O 0.66147 0.58148 0.03548 0.0
O676 O 0.61459 0.52273 0.05406 0.0
O677 O 0.60418 0.54213 0.10332 0.0
C678 C 0.60431 0.63977 1.02732 0.0
O679 O 0.6119 0.56874 0.97179 0.0
O680 O 0.60416 0.52386 0.99073 0.0
C681 C 0.63647 0.64349 0.16956 0.0
C682 C 0.68917 0.67193 0.21513 0.0
C683 C 0.6572 0.6693 0.22311 0.0
C684 C 0.63099 0.65488 0.20048 0.0
C685 C 0.66781 0.64996 0.15993 0.0
C686 C 0.69411 0.66393 0.1827 0.0
C687 C 0.61167 0.61967 0.15086 0.0
H688 H 0.54957 0.55427 0.86388 0.0
H689 H 0.59944 0.55104 0.89967 0.0
H690 H 0.54242 0.51081 0.97374 0.0
H691 H 0.49231 0.51468 0.93816 0.0
H692 H 0.65267 0.67508 0.24805 0.0
H693 H 0.60697 0.6501 0.20826 0.0
H694 H 0.67246 0.64145 0.13604 0.0
H695 H 0.71848 0.66582 0.17597 0.0
Tb696 Tb 0.84623 0.3052 0.31193 0.0
Eu697 Eu 0.87436 0.3748 0.29248 0.0
C698 C 0.85165 0.3616 0.3661 0.0
C699 C 0.79613 0.34267 0.2722 0.0
C700 C 0.84517 0.22305 0.31457 0.0
C701 C 0.84365 0.16837 0.30277 0.0
C702 C 0.82831 0.19249 0.3121 0.0
C703 C 0.8774 0.22922 0.30745 0.0
C704 C 0.89274 0.20525 0.29841 0.0
C705 C 0.87609 0.17455 0.29594 0.0
C706 C 0.82908 0.24888 0.32253 0.0
O707 O 0.85719 0.29837 0.2607 0.0
O708 O 0.87686 0.3472 0.24595 0.0
O709 O 0.92002 0.36078 0.31976 0.0
O710 O 0.89932 0.31094 0.33053 0.0
C711 C 0.86713 0.31764 0.23846 0.0
O712 O 0.86425 0.4194 0.27872 0.0
O713 O 0.91362 0.41132 0.28175 0.0
O714 O 0.86316 0.38147 0.34514 0.0
O715 O 0.84179 0.33198 0.35735 0.0
O716 O 0.80014 0.32173 0.2942 0.0
O717 O 0.82175 0.36272 0.26599 0.0
C718 C 0.924 0.33464 0.33303 0.0
O719 O 0.84545 0.26947 0.34479 0.0
O720 O 0.81713 0.26185 0.29701 0.0
C721 C 0.90483 0.46102 0.29721 0.0
C722 C 0.89827 0.51425 0.3332 0.0
C723 C 0.90425 0.48813 0.34987 0.0
C724 C 0.90741 0.46153 0.3319 0.0
C725 C 0.90354 0.4883 0.28107 0.0
C726 C 0.90045 0.51496 0.29905 0.0
C727 C 0.89464 0.43158 0.27797 0.0
H728 H 0.83026 0.1449 0.30116 0.0
H729 H 0.8033 0.18734 0.31711 0.0
H730 H 0.89065 0.25268 0.3085 0.0
H731 H 0.9175 0.21083 0.29272 0.0
H732 H 0.90289 0.48719 0.37626 0.0
H733 H 0.90831 0.44055 0.3447 0.0
H734 H 0.90138 0.48814 0.25425 0.0
H735 H 0.89579 0.53478 0.28563 0.0
Tb736 Tb 0.12412 0.57428 0.58114 0.0
Eu737 Eu 0.08229 0.58859 0.51613 0.0
C738 C 0.11303 0.52117 0.51868 0.0
C739 C 0.15722 0.62128 0.5312 0.0
C740 C 0.17308 0.59089 0.66069 0.0
C741 C 0.18565 0.60555 0.71919 0.0
C742 C 0.17947 0.58278 0.69334 0.0
C743 C 0.17644 0.62214 0.65371 0.0
C744 C 0.18232 0.64488 0.67953 0.0
C745 C 0.18495 0.63652 0.71252 0.0
C746 C 0.15627 0.56739 0.63529 0.0
O747 O 0.10688 0.61898 0.59733 0.0
O748 O 0.08996 0.63568 0.54717 0.0
O749 O 1.0473 0.56662 0.54941 0.0
O750 O 0.08118 0.53791 0.57415 0.0
C751 C 0.09763 0.6418 0.57964 0.0
O752 O 1.04536 0.61283 0.49281 0.0
O753 O 0.06192 0.57756 0.46467 0.0
O754 O 0.09548 0.53955 0.50201 0.0
O755 O 0.12745 0.53155 0.54912 0.0
O756 O 0.15946 0.60601 0.55817 0.0
O757 O 0.13081 0.61684 0.50991 0.0
C758 C 1.05176 0.54145 0.56351 0.0
O759 O 0.12475 0.56538 0.63131 0.0
O760 O 0.16819 0.5678 0.60705 0.0
C761 C 1.05157 0.62022 0.43679 0.0
C762 C 0.07387 0.63302 0.37609 0.0
C763 C 1.04026 0.62443 0.37777 0.0
C764 C 1.02928 0.61698 0.40806 0.0
C765 C 0.08325 0.63627 0.43614 0.0
C766 C 0.09447 0.64266 0.40584 0.0
C767 C 1.04523 0.59976 0.4636 0.0
H768 H 0.18733 0.59841 0.74442 0.0
H769 H 0.1768 0.55874 0.69905 0.0
H770 H 0.17158 0.62876 0.62851 0.0
H771 H 0.1818 0.66858 0.6738 0.0
H772 H 1.02328 0.61878 0.35538 0.0
H773 H 1.00441 0.60537 0.40834 0.0
H774 H 0.10055 0.63978 0.4584 0.0
H775 H 0.12031 0.65048 0.40606 0.0
Tb776 Tb 0.81992 0.83708 0.29722 0.0
Eu777 Eu 0.89187 0.8281 0.3269 0.0
C778 C 0.87956 0.87834 0.27165 0.0
C779 C 0.86237 0.7987 0.25123 0.0
C780 C 0.73332 0.82868 0.29845 0.0
C781 C 0.67744 0.80545 0.30262 0.0
C782 C 0.70212 0.81562 0.28326 0.0
C783 C 0.73951 0.83194 0.33316 0.0
C784 C 0.71499 0.8217 0.35249 0.0
C785 C 0.68375 0.808 0.33747 0.0
C786 C 0.7605 0.83447 0.27873 0.0
O787 O 0.81475 0.80932 0.34008 0.0
O788 O 0.85935 0.78688 0.34169 0.0
O789 O 0.87277 0.85293 0.37014 0.0
O790 O 0.82948 0.86999 0.34236 0.0
C791 C 0.83117 0.78851 0.35105 0.0
O792 O 0.92971 0.80083 0.33793 0.0
O793 O 0.93813 0.84908 0.35503 0.0
O794 O 0.89941 0.86552 0.29148 0.0
O795 O 0.84791 0.87199 0.2708 0.0
O796 O 0.83467 0.80733 0.25715 0.0
O797 O 0.88796 0.80512 0.27415 0.0
C798 C 0.84948 0.86962 0.37012 0.0
O799 O 0.78103 0.86041 0.28594 0.0
O800 O 0.77526 0.8111 0.2761 0.0
C801 C 0.98056 0.83075 0.33399 0.0
C802 C 1.03696 0.84657 0.3032 0.0
C803 C 1.03865 0.83485 0.33497 0.0
C804 C 1.01056 0.82709 0.35033 0.0
C805 C 0.97861 0.84148 0.30198 0.0
C806 C 1.00654 0.8495 0.28679 0.0
C807 C 0.95116 0.82482 0.35025 0.0
H808 H 0.6535 0.79539 0.29031 0.0
H809 H 0.6971 0.81247 0.2565 0.0
H810 H 0.76365 0.84139 0.34538 0.0
H811 H 0.72083 0.82359 0.3792 0.0
H812 H 0.06168 0.83197 0.34806 0.0
H813 H 1.01232 0.81871 0.37504 0.0
H814 H 0.95552 0.84437 0.28904 0.0
H815 H 1.00433 0.85899 0.26265 0.0
Tb816 Tb 0.89412 0.36682 0.82893 0.0
Eu817 Eu 0.84967 0.30785 0.78174 0.0
C818 C 0.83053 0.37765 0.78731 0.0
C819 C 0.84203 0.31833 0.86099 0.0
C820 C 0.9578 0.43789 0.86383 0.0
C821 C 0.96535 0.49278 0.87891 0.0
C822 C 0.94521 0.46383 0.87335 0.0
C823 C 0.99106 0.44153 0.86043 0.0
C824 C 1.01126 0.47049 0.86617 0.0
C825 C 0.9986 0.49648 0.87531 0.0
C826 C 0.93786 0.40654 0.86188 0.0
O827 O 0.90898 0.32405 0.84429 0.0
O828 O 0.89413 0.28944 0.79947 0.0
O829 O 0.89287 0.32596 0.75656 0.0
O830 O 0.89788 0.37544 0.77614 0.0
C831 C 0.91042 0.29795 0.82853 0.0
O832 O 0.82651 0.25998 0.77037 0.0
O833 O 0.82267 0.29331 0.73282 0.0
O834 O 0.82684 0.34989 0.77263 0.0
O835 O 0.85296 0.388 0.81233 0.0
O836 O 0.86259 0.34491 0.86365 0.0
O837 O 0.83339 0.30154 0.83271 0.0
C838 C 0.90006 0.35536 0.75213 0.0
O839 O 0.90692 0.40375 0.86476 0.0
O840 O 0.94364 0.38607 0.8403 0.0
C841 C 0.78182 0.24839 0.72843 0.0
C842 C 0.72414 0.20545 0.7099 0.0
C843 C 0.74801 0.21087 0.68832 0.0
C844 C 0.77652 0.23224 0.69747 0.0
C845 C 0.75709 0.24521 0.74894 0.0
C846 C 0.72835 0.22393 0.73968 0.0
C847 C 0.81471 0.26474 0.74032 0.0
H848 H 0.95493 0.51229 0.8864 0.0
H849 H 0.91992 0.46175 0.87709 0.0
H850 H 1.00161 0.42181 0.85387 0.0
H851 H 1.03666 0.47262 0.86286 0.0
H852 H 0.74566 0.19723 0.66523 0.0
H853 H 0.79537 0.2346 0.68126 0.0
H854 H 0.76083 0.25765 0.77296 0.0
H855 H 0.71075 0.22024 0.75717 0.0
Tb856 Tb 0.87199 0.85814 0.82543 0.0
Eu857 Eu 0.83912 0.79704 0.78643 0.0
C858 C 0.8687 0.79667 0.86721 0.0
C859 C 0.91741 0.82805 0.77906 0.0
C860 C 0.86629 0.93403 0.85113 0.0
C861 C 0.85153 0.98332 0.86511 0.0
C862 C 0.87431 0.96351 0.86739 0.0
C863 C 0.83564 0.92472 0.83263 0.0
C864 C 0.81295 0.94393 0.83099 0.0
C865 C 0.82056 0.97329 0.84721 0.0
C866 C 0.88847 0.91183 0.85285 0.0
O867 O 0.85669 0.87431 0.77445 0.0
O868 O 0.82775 0.83059 0.74645 0.0
O869 O 0.79373 0.80758 0.80936 0.0
O870 O 0.82109 0.84998 0.8412 0.0
C871 C 0.83997 0.86034 0.74649 0.0
O872 O 0.8169 0.76689 0.74243 0.0
O873 O 0.83366 0.74709 0.78723 0.0
O874 O 0.85073 0.78219 0.84038 0.0
O875 O 0.88298 0.82586 0.86514 0.0
O876 O 0.91695 0.84598 0.80611 0.0
O877 O 0.88993 0.80935 0.76731 0.0
C878 C 0.79377 0.82932 0.83294 0.0
O879 O 0.87895 0.88757 0.86872 0.0
O880 O 0.89685 0.90394 0.8245 0.0
C881 C 0.85103 0.72951 0.73944 0.0
C882 C 0.9143 0.71744 0.73953 0.0
C883 C 0.90574 0.74328 0.72433 0.0
C884 C 0.87416 0.74908 0.72384 0.0
C885 C 0.8584 0.70148 0.7503 0.0
C886 C 0.88985 0.69546 0.75033 0.0
C887 C 0.82646 0.74288 0.75526 0.0
H888 H 0.85788 1.00616 0.87744 0.0
H889 H 0.89793 0.97114 0.88162 0.0
H890 H 0.82916 0.90247 0.8192 0.0
H891 H 0.7895 0.93603 0.81644 0.0
H892 H 0.92404 0.76001 0.71503 0.0
H893 H 0.86907 0.77067 0.71471 0.0
H894 H 0.84113 0.68608 0.76255 0.0
H895 H 0.8958 0.67519 0.76202 0.0
Tb896 Tb 0.59718 0.59464 0.5466 0.0
Eu897 Eu 0.65804 0.60968 0.60795 0.0
C898 C 0.66816 0.59325 0.53262 0.0
C899 C 0.62 0.54396 0.58703 0.0
C900 C 0.52019 0.60423 0.50391 0.0
C901 C 0.4876 0.64269 0.4877 0.0
C902 C 0.51108 0.62526 0.48126 0.0
C903 C 0.5043 0.59983 0.53226 0.0
C904 C 0.48118 0.61747 0.53897 0.0
C905 C 0.47304 0.63968 0.51717 0.0
C906 C 0.55039 0.59227 0.50161 0.0
O907 O 0.57605 0.61385 0.58702 0.0
O908 O 0.61177 0.60467 0.63138 0.0
O909 O 0.64112 0.65491 0.60022 0.0
O910 O 0.62956 0.63865 0.54621 0.0
C911 C 0.58359 0.6109 0.61883 0.0
O912 O 0.67715 0.59316 0.65474 0.0
O913 O 0.70776 0.62814 0.63055 0.0
O914 O 0.67885 0.61133 0.55955 0.0
O915 O 0.63748 0.57935 0.52586 0.0
O916 O 0.5938 0.55477 0.57715 0.0
O917 O 0.64832 0.56118 0.58703 0.0
C918 C 0.63241 0.66053 0.56942 0.0
O919 O 0.57623 0.61373 0.5049 0.0
O920 O 0.55495 0.56879 0.51901 0.0
C921 C 0.72786 0.58305 0.64556 0.0
C922 C 0.7574 0.53182 0.63237 0.0
C923 C 0.75718 0.54305 0.66526 0.0
C924 C 0.74215 0.5683 0.67182 0.0
C925 C 0.72871 0.57201 0.61289 0.0
C926 C 0.74316 0.54679 0.60636 0.0
C927 C 0.70687 0.60582 0.65106 0.0
H928 H 0.48146 0.65903 0.46993 0.0
H929 H 0.5233 0.62931 0.4594 0.0
H930 H 0.51101 0.5839 0.55019 0.0
H931 H 0.4709 0.61463 0.56207 0.0
H932 H 0.76805 0.53194 0.68583 0.0
H933 H 0.74102 0.57578 0.69725 0.0
H934 H 0.71728 0.58235 0.59219 0.0
H935 H 0.74344 0.53918 0.58077 0.0
Tb936 Tb 0.08336 0.56033 0.03336 0.0
Eu937 Eu 0.12714 0.61063 0.08539 0.0
C938 C 0.09545 0.54502 0.10729 0.0
C939 C 1.05078 0.61785 0.0643 0.0
C940 C 1.03218 0.49121 0.98552 0.0
C941 C 1.03641 0.43865 0.99649 0.0
C942 C 1.048 0.47014 1.00258 0.0
C943 C 1.00457 0.48074 0.96264 0.0
C944 C 0.993 0.44918 0.95641 0.0
C945 C 1.00885 0.42791 0.97332 0.0
C946 C 1.04276 0.52415 0.99308 0.0
O947 O 0.10215 0.59713 1.00336 0.0
O948 O 0.11591 0.63793 0.04161 0.0
O949 O 0.16267 0.57828 0.07112 0.0
O950 O 0.12967 0.5401 0.03706 0.0
C951 C 0.10659 0.62671 1.0112 0.0
O952 O 0.17405 0.64064 0.09771 0.0
O953 O 0.14006 0.63439 0.13436 0.0
O954 O 0.10171 0.57459 0.11546 0.0
O955 O 0.09224 0.53439 0.07651 0.0
O956 O 1.04787 0.58988 0.04916 0.0
O957 O 0.07986 0.63142 0.07915 0.0
C958 C 0.15897 0.55147 0.05365 0.0
O959 O 1.03688 0.5339 1.02198 0.0
O960 O 0.07186 0.53616 0.98676 0.0
C961 C 0.17627 0.68265 0.13594 0.0
C962 C 0.19483 0.74595 0.1543 0.0
C963 C 0.21402 0.73101 0.13551 0.0
C964 C 0.20491 0.69961 0.12661 0.0
C965 C 0.15693 0.69757 0.15457 0.0
C966 C 0.16621 0.72895 0.16377 0.0
C967 C 0.16771 0.64938 0.12691 0.0
H968 H 1.04951 0.42267 1.0093 0.0
H969 H 0.06921 0.47807 1.02056 0.0
H970 H 0.99189 0.49701 0.94983 0.0
H971 H 0.97175 0.44137 0.9385 0.0
H972 H 0.23643 0.74346 0.12828 0.0
H973 H 0.2205 0.68851 0.11267 0.0
H974 H 0.13475 0.68506 0.16222 0.0
H975 H 0.1507 0.73999 0.17786 0.0
C976 C 0.11745 0.21798 1.00055 0.0
C977 C 0.09393 0.22895 1.01706 0.0
H978 H 0.15475 0.1908 1.00349 0.0
C979 C 0.09507 0.22666 0.05161 0.0
H980 H 0.11775 0.21994 0.97411 0.0
C981 C 0.11698 0.21066 0.06855 0.0
C982 C 0.13773 0.19662 0.05108 0.0
H983 H 0.07771 0.23545 0.06522 0.0
H984 H 0.11508 0.20634 0.09437 0.0
C985 C 0.13912 0.20184 1.01744 0.0
C986 C 0.28549 0.94378 0.28835 0.0
C987 C 0.29214 0.95412 0.25702 0.0
H988 H 0.29822 0.91539 0.32761 0.0
C989 C 0.32288 0.95286 0.24739 0.0
H990 H 0.26237 0.94493 0.297 0.0
C991 C 0.34354 0.93623 0.26537 0.0
C992 C 0.33396 0.92119 0.29333 0.0
H993 H 0.32917 0.96098 0.22377 0.0
H994 H 0.36511 0.93213 0.25525 0.0
C995 C 0.30604 0.92688 0.30608 0.0
C996 C 0.49025 0.83819 0.47422 0.0
C997 C 0.4981 0.82766 0.44376 0.0
H998 H 0.48724 0.87761 0.50521 0.0
C999 C 0.50323 0.84826 0.41866 0.0
H1000 H 0.4859 0.82259 0.49381 0.0
C1001 C 0.50485 0.8796 0.42547 0.0
C1002 C 0.50009 0.8906 0.45694 0.0
H1003 H 0.5091 0.84071 0.39482 0.0
H1004 H 0.5121 0.89541 0.40689 0.0
C1005 C 0.49098 0.86958 0.4807 0.0
C1006 C 0.59202 0.36225 0.73688 0.0
C1007 C 0.62292 0.37592 0.75262 0.0
H1008 H 0.54384 0.34026 0.74267 0.0
C1009 C 0.6298 0.37476 0.78712 0.0
H1010 H 0.586 0.36276 0.71032 0.0
C1011 C 0.60565 0.3615 0.80573 0.0
C1012 C 0.5742 0.34922 0.79017 0.0
H1013 H 0.65351 0.38491 0.79989 0.0
H1014 H 0.61139 0.36153 0.83238 0.0
C1015 C 0.5679 0.34912 0.75545 0.0
C1016 C 0.09943 0.95203 0.65073 0.0
C1017 C 0.10009 0.92385 0.63231 0.0
H1018 H 0.10067 1.00171 0.65276 0.0
C1019 C 0.10319 0.92866 0.59809 0.0
H1020 H 0.0971 0.95106 0.6769 0.0
C1021 C 0.10535 0.95871 0.58378 0.0
C1022 C 0.10464 0.98689 0.60229 0.0
H1023 H 0.10388 0.90885 0.58184 0.0
H1024 H 0.10749 0.9597 0.55757 0.0
C1025 C 0.10157 0.98199 0.63647 0.0
C1026 C 0.48459 0.81322 0.90563 0.0
C1027 C 0.51504 0.82844 0.8975 0.0
H1028 H 0.43239 0.80193 0.89367 0.0
C1029 C 0.51368 0.84454 0.86802 0.0
H1030 H 0.4838 0.80073 0.928 0.0
C1031 C 0.48344 0.84601 0.84846 0.0
C1032 C 0.45299 0.83076 0.85679 0.0
H1033 H 0.53594 0.85712 0.86066 0.0
H1034 H 0.48397 0.85937 0.8267 0.0
C1035 C 0.45463 0.81394 0.88568 0.0
C1036 C 0.59085 0.22908 0.08711 0.0
C1037 C 0.59466 0.23879 0.12153 0.0
H1038 H 0.58873 0.19378 0.04793 0.0
C1039 C 0.60001 0.21429 0.14249 0.0
H1040 H 0.5875 0.24602 0.06907 0.0
C1041 C 0.60147 0.18311 0.12976 0.0
C1042 C 0.59761 0.17377 0.09508 0.0
H1043 H 0.60436 0.21937 0.16904 0.0
H1044 H 0.60599 0.16621 0.14746 0.0
C1045 C 0.59185 0.19823 0.07457 0.0
C1046 C 0.24017 0.34928 0.40103 0.0
C1047 C 0.20828 0.33312 0.3891 0.0
H1048 H 0.29118 0.3617 0.39421 0.0
C1049 C 0.20647 0.31602 0.35823 0.0
H1050 H 0.24382 0.36301 0.42423 0.0
C1051 C 0.23431 0.31478 0.34091 0.0
C1052 C 0.26614 0.33118 0.35262 0.0
H1053 H 0.18316 0.30306 0.34725 0.0
H1054 H 0.23064 0.30087 0.31781 0.0
C1055 C 0.26789 0.34859 0.38332 0.0
C1056 C 1.02957 0.09659 0.15867 0.0
C1057 C 1.04001 0.09114 0.1915 0.0
H1058 H 1.04414 0.11308 0.11289 0.0
C1059 C 0.07164 0.10457 0.20566 0.0
H1060 H 1.00535 0.08633 0.14724 0.0
C1061 C 0.09394 0.11934 0.1861 0.0
C1062 C 0.08486 0.12115 0.15213 0.0
H1063 H 0.08009 0.10087 0.23112 0.0
H1064 H 0.11897 0.12683 0.19695 0.0
C1065 C 1.05193 0.11174 0.13904 0.0
C1066 C 0.31622 0.76727 0.42957 0.0
C1067 C 0.33141 0.78134 0.4603 0.0
H1068 H 0.3091 0.77038 0.37682 0.0
C1069 C 0.35074 0.81091 0.461 0.0
H1070 H 0.30132 0.74446 0.42826 0.0
C1071 C 0.35612 0.82538 0.43144 0.0
C1072 C 0.34135 0.81109 0.40059 0.0
H1073 H 0.36304 0.82222 0.48428 0.0
H1074 H 0.37234 0.8475 0.4327 0.0
C1075 C 0.32059 0.78224 0.40014 0.0
C1076 C 0.64396 1.0123 0.67755 0.0
C1077 C 0.62055 1.00699 0.69967 0.0
H1078 H 0.65532 1.0301 0.63118 0.0
C1079 C 0.58847 1.01057 0.68887 0.0
H1080 H 0.66873 1.00942 0.6848 0.0
C1081 C 0.58101 1.02265 0.6583 0.0
C1082 C 0.60527 1.03051 0.63787 0.0
H1083 H 0.56966 1.0063 0.70501 0.0
H1084 H 0.55687 1.02744 0.65147 0.0
C1085 C 0.63637 1.02415 0.64693 0.0
C1086 C 0.33113 0.43129 0.93645 0.0
C1087 C 0.34096 0.42198 0.96849 0.0
H1088 H 0.3281 0.42384 0.88308 0.0
C1089 C 0.35733 0.39647 0.96878 0.0
H1090 H 0.31839 0.4505 0.93426 0.0
C1091 C 0.3637 0.38141 0.93901 0.0
C1092 C 0.35339 0.39036 0.90692 0.0
H1093 H 0.36555 0.38806 0.99233 0.0
H1094 H 0.37636 0.36215 0.94125 0.0
C1095 C 0.33676 0.41572 0.90663 0.0
C1096 C 0.97405 0.97752 0.33386 0.0
C1097 C 0.99255 0.98795 0.30869 0.0
H1098 H 0.97489 0.96137 0.38274 0.0
C1099 C 1.02443 0.98258 0.30998 0.0
H1100 H 0.9489 0.98014 0.33277 0.0
C1101 C 1.03954 0.97261 0.33866 0.0
C1102 C 1.02301 0.96795 0.36675 0.0
H1103 H 1.03891 0.9891 0.29019 0.0
H1104 H 0.06529 0.97274 0.33975 0.0
C1105 C 0.9891 0.96693 0.36256 0.0
C1106 C 0.34693 0.76541 0.66225 0.0
C1107 C 0.34809 0.78772 0.63839 0.0
H1108 H 0.3513 0.7568 0.71418 0.0
C1109 C 0.35813 0.81898 0.64933 0.0
H1110 H 0.33914 0.74116 0.65469 0.0
C1111 C 0.36593 0.82785 0.6832 0.0
C1112 C 0.36302 0.80578 0.70724 0.0
H1113 H 0.35937 0.83675 0.63162 0.0
H1114 H 0.37255 0.85222 0.69059 0.0
C1115 C 0.35383 0.77438 0.69633 0.0
C1116 C 0.63565 0.12658 0.83456 0.0
C1117 C 0.62254 0.09694 0.82018 0.0
H1118 H 0.62746 0.16546 0.86311 0.0
C1119 C 0.58913 0.08598 0.81869 0.0
H1120 H 0.66119 0.13614 0.83476 0.0
C1121 C 0.56992 0.10238 0.83519 0.0
C1122 C 0.58373 0.13023 0.85376 0.0
H1123 H 0.5781 0.06357 0.80686 0.0
H1124 H 0.5451 0.09113 0.83604 0.0
C1125 C 0.61622 0.14338 0.8507 0.0
C1126 C 0.34933 0.42488 0.18199 0.0
C1127 C 0.33438 0.40907 0.15141 0.0
H1128 H 0.36373 0.42308 0.23497 0.0
C1129 C 0.32124 0.37737 0.1541 0.0
H1130 H 0.36115 0.44875 0.1819 0.0
C1131 C 0.32288 0.36238 0.18473 0.0
C1132 C 0.33842 0.37776 0.21519 0.0
H1133 H 0.31045 0.36342 0.13177 0.0
H1134 H 0.31273 0.33801 0.18414 0.0
C1135 C 0.35122 0.40973 0.21288 0.0
C1136 C 0.28699 0.97611 0.08134 0.0
C1137 C 0.31579 0.97066 0.099 0.0
H1138 H 0.2515 1.00556 0.07686 0.0
C1139 C 0.32822 0.98793 0.12891 0.0
H1140 H 0.27717 0.96329 0.05806 0.0
C1141 C 0.31368 1.01193 0.13971 0.0
C1142 C 0.28673 1.01949 0.12043 0.0
H1143 H 0.3505 0.98414 0.14291 0.0
H1144 H 0.32504 1.02603 0.16177 0.0
C1145 C 0.27265 1.00052 0.0919 0.0
C1146 C 0.76347 0.63442 0.03439 0.0
C1147 C 0.77199 0.66444 0.0504 0.0
H1148 H 0.72704 0.5926 1.02293 0.0
C1149 C 0.74847 0.67327 0.06916 0.0
H1150 H 0.78014 0.62637 1.01928 0.0
C1151 C 0.71831 0.65375 0.07178 0.0
C1152 C 0.70907 0.62415 0.05519 0.0
H1153 H 0.75328 0.69591 0.08195 0.0
H1154 H 0.70165 0.66253 0.08636 0.0
C1155 C 0.73258 0.61491 0.03641 0.0
C1156 C 0.83219 0.54371 0.37149 0.0
C1157 C 0.83968 0.57542 0.36722 0.0
H1158 H 0.84558 0.49977 0.36492 0.0
C1159 C 0.86876 0.58772 0.35492 0.0
H1160 H 0.81013 0.53373 0.38135 0.0
C1161 C 0.88916 0.56812 0.34525 0.0
C1162 C 0.88107 0.53621 0.34873 0.0
H1163 H 0.87505 0.61221 0.35163 0.0
H1164 H 0.91069 0.57768 0.33428 0.0
C1165 C 0.85279 0.52435 0.3626 0.0
C1166 C 0.96665 0.49437 0.54991 0.0
C1167 C 0.97236 0.46393 0.55158 0.0
H1168 H 0.98705 0.54254 0.5527 0.0
C1169 C 1.00451 0.45924 0.5581 0.0
H1170 H 0.94217 0.49886 0.54493 0.0
C1171 C 1.03031 0.48451 0.5632 0.0
C1172 C 1.02445 0.51491 0.56145 0.0
H1173 H 1.00968 0.43613 0.55985 0.0
H1174 H 1.05487 0.48018 0.56788 0.0
C1175 C 0.99236 0.51949 0.55457 0.0
C1176 C 0.48322 0.17209 0.25037 0.0
C1177 C 0.50512 0.19478 0.27095 0.0
H1178 H 0.43618 0.15961 0.22211 0.0
C1179 C 0.49793 0.22454 0.27427 0.0
H1180 H 0.48812 0.14897 0.24698 0.0
C1181 C 0.46822 0.23069 0.25954 0.0
C1182 C 0.4451 0.20709 0.24155 0.0
H1183 H 0.51434 0.24253 0.28981 0.0
H1184 H 0.46239 0.25325 0.26438 0.0
C1185 C 0.45343 0.17811 0.23604 0.0
C1186 C 0.49599 0.18275 0.56621 0.0
C1187 C 0.46322 0.16665 0.56201 0.0
H1188 H 0.54761 0.18132 0.57049 0.0
C1189 C 0.46012 0.13395 0.55837 0.0
H1190 H 0.50059 0.2077 0.56907 0.0
C1191 C 0.48756 0.11855 0.55841 0.0
C1192 C 0.52036 0.13458 0.56298 0.0
H1193 H 0.43604 0.1199 0.55486 0.0
H1194 H 0.48288 0.09363 0.55499 0.0
C1195 C 0.52351 0.16728 0.5671 0.0
C1196 C 0.82396 0.72583 0.41171 0.0
C1197 C 0.79046 0.72075 0.41427 0.0
H1198 H 0.86292 0.75065 0.38873 0.0
C1199 C 0.77209 0.74225 0.40139 0.0
H1200 H 0.83894 0.70999 0.42179 0.0
C1201 C 0.7858 0.76535 0.38204 0.0
C1202 C 0.81811 0.76748 0.37557 0.0
H1203 H 0.74627 0.73924 0.40301 0.0
H1204 H 0.7704 0.78009 0.37034 0.0
C1205 C 0.83758 0.74877 0.39221 0.0
C1206 C 1.0261 0.58129 0.86516 0.0
C1207 C 0.05851 0.58701 0.88034 0.0
H1208 H 0.9824 0.54872 0.85147 0.0
C1209 C 0.07086 0.5629 0.8959 0.0
H1210 H 1.01538 0.59936 0.85346 0.0
C1211 C 1.0514 0.53335 0.89485 0.0
C1212 C 1.01926 0.52773 0.8787 0.0
H1213 H 0.09556 0.56668 0.90813 0.0
H1214 H 0.06146 0.51493 0.90656 0.0
C1215 C 1.00686 0.5522 0.86433 0.0
C1216 C 0.18835 0.99439 0.13834 0.0
C1217 C 0.17293 0.98915 0.16686 0.0
H1218 H 0.19168 1.01936 0.09455 0.0
C1219 C 0.14675 1.0038 0.17188 0.0
H1220 H 0.20844 0.98318 0.13383 0.0
C1221 C 0.1364 1.02375 0.14872 0.0
C1222 C 0.15253 1.02958 0.12071 0.0
H1223 H 0.13416 0.99963 0.19348 0.0
H1224 H 0.11694 1.03573 0.15352 0.0
C1225 C 0.17845 1.01466 0.11565 0.0
C1226 C 0.92323 0.24954 0.90032 0.0
C1227 C 0.95466 0.24394 0.89797 0.0
H1228 H 0.88487 0.27133 0.87962 0.0
C1229 C 0.96852 0.25058 0.86851 0.0
H1230 H 0.91167 0.24442 0.92241 0.0
C1231 C 0.95297 0.26623 0.84393 0.0
C1232 C 0.92331 0.27484 0.84845 0.0
H1233 H 0.99267 0.24646 0.86584 0.0
H1234 H 0.96523 0.27364 0.82285 0.0
C1235 C 0.90788 0.26505 0.8759 0.0
C1236 C 0.71107 0.327 0.68557 0.0
C1237 C 0.71569 0.34784 0.66053 0.0
H1238 H 0.70272 0.27967 0.6975 0.0
C1239 C 0.71976 0.33674 0.62873 0.0
H1240 H 0.70844 0.33486 0.71049 0.0
C1241 C 0.71626 0.30516 0.62134 0.0
C1242 C 0.70877 0.28426 0.64564 0.0
H1243 H 0.72371 0.35221 0.60897 0.0
H1244 H 0.71735 0.29706 0.59609 0.0
C1245 C 0.70764 0.29543 0.67816 0.0
C1246 C 0.61171 0.75768 0.3682 0.0
C1247 C 0.60818 0.77489 0.39688 0.0
H1248 H 0.63859 0.75449 0.32708 0.0
C1249 C 0.63035 0.80236 0.40654 0.0
H1250 H 0.59497 0.73641 0.36015 0.0
C1251 C 0.65494 0.81295 0.38737 0.0
C1252 C 0.65804 0.79622 0.3582 0.0
H1253 H 0.62816 0.81626 0.4284 0.0
H1254 H 0.67097 0.83472 0.39497 0.0
C1255 C 0.63644 0.76823 0.34907 0.0
C1256 C 0.11932 0.21568 0.46805 0.0
C1257 C 0.11129 0.24079 0.48694 0.0
H1258 H 0.12388 0.16693 0.46362 0.0
C1259 C 0.10164 0.23151 0.51825 0.0
H1260 H 0.12671 0.21994 0.4438 0.0
C1261 C 0.10005 0.20078 0.5298 0.0
C1262 C 0.10756 0.17553 0.51122 0.0
H1263 H 0.09498 0.2485 0.53474 0.0
H1264 H 0.0925 0.19686 0.55406 0.0
C1265 C 0.11742 0.18437 0.47969 0.0
C1266 C 0.70177 0.32848 0.24108 0.0
C1267 C 0.6999 0.3453 0.21203 0.0
H1268 H 0.73216 0.3137 0.28209 0.0
C1269 C 0.73006 0.36148 0.20431 0.0
H1270 H 0.67975 0.31518 0.24819 0.0
C1271 C 0.76013 0.36097 0.22399 0.0
C1272 C 0.76241 0.34368 0.25253 0.0
H1273 H 0.7306 0.37467 0.18241 0.0
H1274 H 0.78202 0.37384 0.21614 0.0
C1275 C 0.73227 0.32745 0.26062 0.0
C1276 C 0.62386 0.9297 1.01024 0.0
C1277 C 0.61853 0.92083 0.97556 0.0
H1278 H 0.62733 0.96486 0.05038 0.0
C1279 C 0.61135 0.94549 0.95576 0.0
H1280 H 0.62955 0.91274 1.02743 0.0
C1281 C 0.60923 0.97597 0.96931 0.0
C1282 C 0.61513 0.98504 1.00393 0.0
H1283 H 0.60686 0.94117 0.92911 0.0
H1284 H 0.60325 0.99282 0.95211 0.0
C1285 C 0.62266 0.96047 1.02374 0.0
C1286 C 1.00882 0.83463 0.75764 0.0
C1287 C 1.00613 0.82984 0.72238 0.0
H1288 H 0.98557 0.83876 0.80238 0.0
C1289 C 0.97346 0.82471 0.70673 0.0
H1290 H 1.03278 0.83885 0.77164 0.0
C1291 C 0.94582 0.82396 0.72486 0.0
C1292 C 0.94846 0.82905 0.76004 0.0
H1293 H 0.969 0.82092 0.68003 0.0
H1294 H 0.92186 0.81962 0.71083 0.0
C1295 C 0.98117 0.83471 0.7757 0.0
C1296 C 0.24127 0.10302 0.97577 0.0
C1297 C 0.22218 0.09914 0.94484 0.0
H1298 H 0.24131 0.10527 1.02839 0.0
C1299 C 0.1884 0.08966 0.94298 0.0
H1300 H 0.26737 0.11034 0.97767 0.0
C1301 C 0.17357 0.08617 0.97179 0.0
C1302 C 0.19231 0.09284 1.00283 0.0
H1303 H 0.17329 0.0863 0.91923 0.0
H1304 H 0.14731 0.08051 0.96967 0.0
C1305 C 0.22634 0.10022 1.00467 0.0
C1306 C 0.89572 0.4014 0.67459 0.0
C1307 C 0.89894 0.37949 0.64962 0.0
H1308 H 0.89478 0.41155 0.72654 0.0
C1309 C 0.90542 0.3507 0.65935 0.0
H1310 H 0.89103 0.42393 0.6682 0.0
C1311 C 0.90729 0.34354 0.69273 0.0
C1312 C 0.90321 0.36506 0.71762 0.0
H1313 H 0.90823 0.33323 0.64103 0.0
H1314 H 0.91119 0.32071 0.69892 0.0
C1315 C 0.89818 0.39439 0.70817 0.0
C1316 C 0.55239 0.13433 0.42471 0.0
C1317 C 0.56827 0.16378 0.41811 0.0
H1318 H 0.55197 0.09661 0.45625 0.0
C1319 C 0.59382 0.1796 0.44121 0.0
H1320 H 0.53298 0.12142 0.40711 0.0
C1321 C 0.60455 0.16547 0.46952 0.0
C1322 C 0.59052 0.13501 0.47445 0.0
H1323 H 0.6066 0.20226 0.43646 0.0
H1324 H 0.62479 0.17774 0.4866 0.0
C1325 C 0.56377 0.11988 0.4524 0.0
C1326 C 0.83865 0.75956 0.1613 0.0
C1327 C 0.86771 0.7523 0.15096 0.0
H1328 H 0.81397 0.77866 0.19845 0.0
C1329 C 0.89533 0.75952 0.17538 0.0
H1330 H 0.81655 0.75506 0.14403 0.0
C1331 C 0.89375 0.77373 0.20763 0.0
C1332 C 0.86457 0.78162 0.21729 0.0
H1333 H 0.91855 0.75545 0.1692 0.0
H1334 H 0.91586 0.77926 0.22479 0.0
C1335 C 0.83709 0.77356 0.19311 0.0
C1336 C 0.19294 0.20825 0.79844 0.0
C1337 C 0.21291 0.18583 0.80016 0.0
H1338 H 0.16114 0.23061 0.76703 0.0
C1339 C 0.22336 0.17539 0.77102 0.0
H1340 H 0.18561 0.21783 0.82067 0.0
C1341 C 0.20959 0.18302 0.74037 0.0
C1342 C 0.18504 0.20096 0.7386 0.0
H1343 H 0.23958 0.15889 0.7716 0.0
H1344 H 0.21502 0.17132 0.71839 0.0
C1345 C 0.17928 0.21599 0.76776 0.0
C1346 C 0.85867 0.4157 0.44387 0.0
C1347 C 0.85847 0.39534 0.46975 0.0
H1348 H 0.85681 0.42137 0.39149 0.0
C1349 C 0.85456 0.36355 0.46101 0.0
H1350 H 0.86161 0.44032 0.44946 0.0
C1351 C 0.85107 0.35253 0.42749 0.0
C1352 C 0.85193 0.37297 0.40161 0.0
H1353 H 0.85415 0.3471 0.48011 0.0
H1354 H 0.84856 0.32796 0.42193 0.0
C1355 C 0.85579 0.40476 0.41045 0.0
C1356 C 0.64216 0.18661 0.24998 0.0
C1357 C 0.65608 0.18463 0.28267 0.0
H1358 H 0.64398 0.17558 0.19891 0.0
C1359 C 0.68764 0.17795 0.28829 0.0
H1360 H 0.61824 0.19241 0.24483 0.0
C1361 C 0.70238 0.16813 0.26187 0.0
C1362 C 0.68595 0.16535 0.2296 0.0
H1363 H 0.69942 0.17687 0.31322 0.0
H1364 H 0.7249 0.15961 0.26704 0.0
C1365 C 0.65713 0.1772 0.22357 0.0
C1366 C 0.88038 0.7794 0.96272 0.0
C1367 C 0.87415 0.74662 0.96341 0.0
H1368 H 0.88463 0.82025 0.93408 0.0
C1369 C 0.86682 0.73089 0.93151 0.0
H1370 H 0.88626 0.79314 0.98597 0.0
C1371 C 0.8652 0.74675 0.90121 0.0
C1372 C 0.87176 0.77953 0.90047 0.0
H1373 H 0.86179 0.70591 0.92982 0.0
H1374 H 0.85886 0.73299 0.87799 0.0
C1375 C 0.87961 0.79527 0.93237 0.0
C1376 C 0.90894 0.1719 0.05393 0.0
C1377 C 0.91175 0.20182 0.04256 0.0
H1378 H 0.92981 0.13138 0.05919 0.0
C1379 C 0.93961 0.21426 1.02826 0.0
H1380 H 0.88786 0.16168 0.06524 0.0
C1381 C 0.96359 0.19657 1.0243 0.0
C1382 C 0.96015 0.16618 0.03468 0.0
H1383 H 0.94232 0.23716 1.01904 0.0
H1384 H 0.9843 0.2063 1.0122 0.0
C1385 C 0.93284 0.15435 0.05012 0.0
C1386 C 0.4483 0.52635 0.07305 0.0
C1387 C 0.43692 0.49997 0.05101 0.0
H1388 H 0.4879 0.56389 0.09133 0.0
C1389 C 0.45864 0.49369 1.02858 0.0
H1390 H 0.43317 0.53222 0.09117 0.0
C1391 C 0.48991 0.5121 1.02833 0.0
C1392 C 0.50196 0.53784 0.05088 0.0
H1393 H 0.45162 0.47378 1.01115 0.0
H1394 H 0.50519 0.5052 1.01099 0.0
C1395 C 0.48016 0.54461 0.0732 0.0
C1396 C 0.33915 0.60496 0.72073 0.0
C1397 C 0.36974 0.61911 0.71305 0.0
H1398 H 0.29521 0.61208 0.7392 0.0
C1399 C 0.37589 0.65098 0.70929 0.0
H1400 H 0.33402 0.58041 0.72411 0.0
C1401 C 0.35348 0.66898 0.71723 0.0
C1402 C 0.32501 0.65542 0.72996 0.0
H1403 H 0.39941 0.66236 0.70358 0.0
H1404 H 0.36044 0.69385 0.71739 0.0
C1405 C 0.31701 0.62308 0.72955 0.0
C1406 C 0.24031 0.67227 0.5445 0.0
C1407 C 0.23449 0.69969 0.53028 0.0
H1408 H 0.22082 0.62616 0.55556 0.0
C1409 C 0.20334 0.70018 0.51386 0.0
H1410 H 0.26395 0.67088 0.55732 0.0
C1411 C 0.17858 0.67395 0.51222 0.0
C1412 C 0.18436 0.64694 0.52744 0.0
H1413 H 0.19809 0.72078 0.5024 0.0
H1414 H 0.15458 0.67526 0.50026 0.0
C1415 C 0.21559 0.64643 0.54335 0.0
C1416 C 0.73892 0.99653 0.84113 0.0
C1417 C 0.74318 1.02059 0.81955 0.0
H1418 H 0.76085 0.96283 0.86741 0.0
C1419 C 0.77456 1.03224 0.81185 0.0
H1420 H 0.71508 0.98722 0.84767 0.0
C1421 C 0.80083 1.01867 0.82372 0.0
C1422 C 0.79597 0.99314 0.8432 0.0
H1423 H 0.77862 0.05102 0.79555 0.0
H1424 H 0.82437 1.02667 0.81576 0.0
C1425 C 0.76509 0.98276 0.85266 0.0
C1426 C 0.71234 0.98501 0.54144 0.0
C1427 C 0.74473 1.00005 0.55348 0.0
H1428 H 0.6609 0.98718 0.53072 0.0
C1429 C 0.74705 1.03158 0.56415 0.0
H1430 H 0.70825 0.961 0.53267 0.0
C1431 C 0.71942 0.04684 0.56306 0.0
C1432 C 0.68703 1.03201 0.55095 0.0
H1433 H 0.77068 0.0449 0.5736 0.0
H1434 H 0.72373 0.07085 0.57191 0.0
C1435 C 0.68458 1.00039 0.54018 0.0
C1436 C 0.4583 0.45955 0.77304 0.0
C1437 C 0.43931 0.47961 0.75813 0.0
H1438 H 0.45927 0.41558 0.79272 0.0
C1439 C 0.4061 0.46841 0.74791 0.0
H1440 H 0.484 0.46728 0.78093 0.0
C1441 C 0.39174 0.43861 0.7549 0.0
C1442 C 0.41036 0.41948 0.77217 0.0
H1443 H 0.39075 0.48327 0.73637 0.0
H1444 H 0.36579 0.43126 0.74838 0.0
C1445 C 0.44403 0.42986 0.77991 0.0
C1446 C 0.14496 0.63946 0.22821 0.0
C1447 C 0.15694 0.61346 0.2177 0.0
H1448 H 0.1552 0.6882 0.23992 0.0
C1449 C 0.1878 0.61768 0.20694 0.0
H1450 H 0.12129 0.63697 0.23674 0.0
C1451 C 0.20758 0.64672 0.2098 0.0
C1452 C 0.19679 0.67248 0.2229 0.0
H1453 H 0.1977 0.59813 0.19853 0.0
H1454 H 0.23206 0.64843 0.20356 0.0
C1455 C 0.16472 0.66872 0.23077 0.0
C1456 C 0.60264 0.71459 0.51176 0.0
C1457 C 0.57341 0.71758 0.52379 0.0
H1458 H 0.64574 0.69526 0.51848 0.0
C1459 C 0.56813 0.70779 0.55557 0.0
H1460 H 0.60784 0.72258 0.48776 0.0
C1461 C 0.59036 0.69262 0.57353 0.0
C1462 C 0.61806 0.68723 0.55989 0.0
H1463 H 0.54594 0.71009 0.56564 0.0
H1464 H 0.58429 0.68253 0.59638 0.0
C1465 C 0.62475 0.69961 0.52968 0.0
C1466 C 0.77375 0.43371 0.76536 0.0
C1467 C 0.77688 0.43658 0.73141 0.0
H1468 H 0.7889 0.413 0.81035 0.0
C1469 C 0.80003 0.42235 0.71766 0.0
H1470 H 0.75599 0.4442 0.77666 0.0
C1471 C 0.81752 0.40374 0.73643 0.0
C1472 C 0.81341 0.39976 0.76976 0.0
H1473 H 0.80316 0.42375 0.69167 0.0
H1474 H 0.8337 0.39164 0.72452 0.0
C1475 C 0.7923 0.41573 0.78458 0.0
C1476 C 0.99679 0.35271 0.92383 0.0
C1477 C 1.00143 0.33287 0.94939 0.0
H1478 H 0.99576 0.3992 0.91176 0.0
C1479 C 1.00003 0.34291 0.98225 0.0
H1480 H 0.9972 0.34534 0.89819 0.0
C1481 C 0.99895 0.37368 0.98992 0.0
C1482 C 0.99912 0.39458 0.96478 0.0
H1483 H 1.0028 0.32781 1.00236 0.0
H1484 H 1.00073 0.38166 1.0157 0.0
C1485 C 0.99578 0.38352 0.93154 0.0
C1486 C 0.09347 0.86741 0.23843 0.0
C1487 C 0.12092 0.88456 0.25781 0.0
H1488 H 1.04582 0.84077 0.23774 0.0
C1489 C 0.1216 0.88722 0.29238 0.0
H1490 H 0.09253 0.86468 0.21174 0.0
C1491 C 0.09469 0.87404 0.30725 0.0
C1492 C 0.06675 0.8576 0.28784 0.0
H1493 H 0.1425 0.90039 0.3079 0.0
H1494 H 0.09538 0.8778 0.3338 0.0
C1495 C 0.06672 0.85383 0.25333 0.0
C1496 C 0.60712 0.42652 0.09742 0.0
C1497 C 0.60252 0.42168 0.13133 0.0
H1498 H 0.61284 0.45759 0.05701 0.0
C1499 C 0.60055 0.44971 0.14926 0.0
H1500 H 0.6089 0.40679 0.08156 0.0
C1501 C 0.60276 0.47957 0.13482 0.0
C1502 C 0.60738 0.48454 0.10098 0.0
H1503 H 0.59702 0.44871 0.17516 0.0
H1504 H 0.6007 0.49917 0.15073 0.0
C1505 C 0.6095 0.45653 0.08295 0.0
C1506 C 1.01688 0.35025 0.36805 0.0
C1507 C 1.01864 0.33027 0.39441 0.0
H1508 H 0.98688 0.36795 0.32908 0.0
C1509 C 0.98892 0.31105 0.399 0.0
H1510 H 1.03857 0.366 0.36366 0.0
C1511 C 0.95921 0.31158 0.37852 0.0
C1512 C 0.95708 0.33222 0.3529 0.0
H1513 H 0.9885 0.29556 0.41903 0.0
H1514 H 0.93744 0.2964 0.38371 0.0
C1515 C 0.98681 0.35151 0.34816 0.0
C1516 C 0.08893 0.73083 0.58747 0.0
C1517 C 0.09266 0.74057 0.62188 0.0
H1518 H 0.08685 0.69551 0.54829 0.0
C1519 C 0.09798 0.71603 0.64283 0.0
H1520 H 0.08566 0.74777 0.56941 0.0
C1521 C 0.09947 0.68482 0.63012 0.0
C1522 C 0.09559 0.67543 0.59542 0.0
H1523 H 0.10231 0.72111 0.66938 0.0
H1524 H 0.10414 0.66801 0.64789 0.0
C1525 C 0.08992 0.69994 0.57493 0.0
C1526 C 0.70339 0.81426 0.85761 0.0
C1527 C 0.7051 0.83121 0.88856 0.0
H1528 H 0.72765 0.79969 0.81698 0.0
C1529 C 0.73684 0.84778 0.90034 0.0
H1530 H 0.68017 0.80102 0.84672 0.0
C1531 C 0.76454 0.84761 0.88246 0.0
C1532 C 0.76291 0.83034 0.85169 0.0
H1533 H 0.74042 0.86144 0.92358 0.0
H1534 H 0.7877 0.861 0.89327 0.0
C1535 C 0.73121 0.81353 0.8401 0.0
C1536 C 0.54762 0.62237 0.69739 0.0
C1537 C 0.51543 0.60648 0.68903 0.0
H1538 H 0.59444 0.63593 0.68162 0.0
C1539 C 0.50444 0.59671 0.65577 0.0
H1540 H 0.55674 0.63078 0.7227 0.0
C1541 C 0.52623 0.60016 0.63205 0.0
C1542 C 0.55916 0.61315 0.64142 0.0
H1543 H 0.47985 0.5844 0.64857 0.0
H1544 H 0.51788 0.5905 0.60711 0.0
C1545 C 0.56932 0.62533 0.67394 0.0
C1546 C 0.81854 0.25853 0.92323 0.0
C1547 C 0.8265 0.27609 0.95361 0.0
H1548 H 0.81594 0.25806 0.87028 0.0
C1549 C 0.83548 0.30832 0.95289 0.0
H1550 H 0.81141 0.23368 0.92282 0.0
C1551 C 0.83862 0.32236 0.92268 0.0
C1552 C 0.83223 0.30463 0.89229 0.0
H1553 H 0.84179 0.32259 0.97579 0.0
H1554 H 0.84735 0.34702 0.92329 0.0
C1555 C 0.82094 0.27263 0.89299 0.0
C1556 C 0.08241 0.50473 0.18519 0.0
C1557 C 0.11293 0.49616 0.19327 0.0
H1558 H 1.0533 0.52805 0.15156 0.0
C1559 C 0.13471 0.49859 0.1694 0.0
H1560 H 0.06461 0.50252 0.20253 0.0
C1561 C 0.12755 0.51232 0.13975 0.0
C1562 C 0.09872 0.52397 0.13375 0.0
H1563 H 0.15815 0.4918 0.17456 0.0
H1564 H 0.14558 0.51591 0.12265 0.0
C1565 C 0.07572 0.51923 0.15599 0.0
C1566 C 0.82414 0.92848 0.43341 0.0
C1567 C 0.83594 0.91978 0.46515 0.0
H1568 H 0.81808 0.92012 0.37991 0.0
C1569 C 0.85249 0.89446 0.4647 0.0
H1570 H 0.81113 0.94753 0.43183 0.0
C1571 C 0.85727 0.87905 0.43451 0.0
C1572 C 0.84504 0.88736 0.40275 0.0
H1573 H 0.86214 0.88651 0.48798 0.0
H1574 H 0.87026 0.85999 0.43621 0.0
C1575 C 0.82814 0.91248 0.40318 0.0
C1576 C 0.44255 0.53517 0.83874 0.0
C1577 C 0.44704 0.56677 0.83296 0.0
H1578 H 0.46254 0.49983 0.86453 0.0
C1579 C 0.46957 0.58781 0.85443 0.0
H1580 H 0.42547 0.51856 0.82213 0.0
C1581 C 0.49045 0.57721 0.87844 0.0
C1582 C 0.48916 0.54545 0.8811 0.0
H1583 H 0.47353 0.61222 0.85017 0.0
H1584 H 0.50963 0.59374 0.89282 0.0
C1585 C 0.46388 0.52444 0.86267 0.0
C1586 C 0.85481 0.31891 0.14434 0.0
C1587 C 0.84757 0.28747 0.13376 0.0
H1588 H 0.86749 0.35285 0.18479 0.0
C1589 C 0.8496 0.26562 0.15796 0.0
H1590 H 0.85369 0.33642 0.12649 0.0
C1591 C 0.85702 0.2751 0.192 0.0
C1592 C 0.86348 0.30669 0.20255 0.0
H1593 H 0.84406 0.2412 0.15071 0.0
H1594 H 0.85698 0.2577 0.21007 0.0
C1595 C 0.86297 0.32835 0.178 0.0
C1596 C 0.09073 0.57483 0.31445 0.0
C1597 C 0.12384 0.58527 0.31297 0.0
H1598 H 1.04854 0.58196 0.3346 0.0
C1599 C 0.13815 0.61533 0.3253 0.0
H1600 H 0.0788 0.55202 0.3044 0.0
C1601 C 0.1203 0.63337 0.3421 0.0
C1602 C 0.08819 0.62122 0.34748 0.0
H1603 H 0.16343 0.62437 0.32331 0.0
H1604 H 0.13246 0.65579 0.35302 0.0
C1605 C 0.07309 0.59254 0.33143 0.0
C1606 C 0.84674 0.92465 0.67978 0.0
C1607 C 0.83285 0.90827 0.64915 0.0
H1608 H 0.86005 0.92369 0.73308 0.0
C1609 C 0.82036 0.87647 0.65215 0.0
H1610 H 0.85798 0.94868 0.67955 0.0
C1611 C 0.82162 0.86193 0.68305 0.0
C1612 C 0.83612 0.87785 0.71359 0.0
H1613 H 0.81029 0.86213 0.62988 0.0
H1614 H 0.81199 0.83745 0.68265 0.0
C1615 C 0.84831 0.90991 0.71097 0.0
C1616 C 0.77869 0.46247 0.58734 0.0
C1617 C 0.81153 0.46508 0.59985 0.0
H1618 H 0.73544 0.48174 0.58811 0.0
C1619 C 0.82472 0.48661 0.6265 0.0
H1620 H 0.76794 0.44605 0.56687 0.0
C1621 C 0.80624 0.50672 0.63883 0.0
C1622 C 0.77427 0.50608 0.62443 0.0
H1623 H 0.84994 0.48887 0.63688 0.0
H1624 H 0.81774 0.52416 0.65808 0.0
C1625 C 0.76025 0.48301 0.59937 0.0
C1626 C 0.26292 0.13827 0.53804 0.0
C1627 C 0.2722 0.16797 0.55467 0.0
H1628 H 0.22565 0.09726 0.5256 0.0
C1629 C 0.24879 0.17698 0.57361 0.0
H1630 H 0.27933 0.13006 0.52271 0.0
C1631 C 0.21816 0.15789 0.57584 0.0
C1632 C 0.20825 0.12865 0.55856 0.0
H1633 H 0.2541 0.19943 0.58682 0.0
H1634 H 0.20165 0.16672 0.5906 0.0
C1635 C 0.23162 0.11931 0.53962 0.0
C1636 C 0.27733 0.04695 0.81101 0.0
C1637 C 0.29363 0.07743 0.8188 0.0
H1638 H 0.28085 1.00119 0.79501 0.0
C1639 C 0.32583 0.08591 0.81204 0.0
H1640 H 0.25251 1.03972 0.81596 0.0
C1641 C 0.34205 0.06385 0.79958 0.0
C1642 C 0.32643 1.03287 0.79384 0.0
H1643 H 0.33893 0.10933 0.81753 0.0
H1644 H 0.36714 0.0709 0.79543 0.0
C1645 C 0.29359 1.02487 0.79878 0.0
C1646 C 0.46961 0.99289 0.05351 0.0
C1647 C 0.47498 0.9623 0.05428 0.0
H1648 H 0.49031 0.04092 0.05736 0.0
C1649 C 0.50704 0.95723 0.06035 0.0
H1650 H 0.44525 0.99775 0.04889 0.0
C1651 C 0.53308 0.98233 0.06574 0.0
C1652 C 0.52748 1.01286 0.06481 0.0
H1653 H 0.51195 0.93399 0.06141 0.0
H1654 H 0.5576 0.9778 0.06987 0.0
C1655 C 0.49546 1.01777 0.05859 0.0
C1656 C 0.9989 0.73485 0.78628 0.0
C1657 C 1.0083 0.70606 0.78277 0.0
H1658 H 0.96132 0.76117 0.77451 0.0
C1659 C 0.98928 0.68338 0.75982 0.0
H1660 H 1.01302 0.75274 0.80372 0.0
C1661 C 0.95973 0.688 0.74353 0.0
C1662 C 0.94883 0.71563 0.74933 0.0
H1663 H 0.99607 0.66106 0.75611 0.0
H1664 H 0.9445 0.66928 0.72794 0.0
C1665 C 0.96934 0.73964 0.76952 0.0
C1666 C 0.96014 0.63346 0.05702 0.0
C1667 C 0.96291 0.66606 0.06152 0.0
H1668 H 0.98339 0.59347 0.05355 0.0
C1669 C 0.99558 0.68236 0.06732 0.0
H1670 H 0.93616 0.61928 0.05229 0.0
C1671 C 1.02331 0.66713 0.06891 0.0
C1672 C 1.02048 0.63452 0.06392 0.0
H1673 H 0.99993 0.70726 0.07091 0.0
H1674 H 1.04732 0.68127 0.07354 0.0
C1675 C 0.98781 0.61833 0.05771 0.0
C1676 C 0.3224 0.22377 0.90144 0.0
C1677 C 0.29032 0.22382 0.90771 0.0
H1678 H 0.36249 0.24557 0.87794 0.0
C1679 C 0.27667 0.2501 0.90086 0.0
H1680 H 0.33371 0.20399 0.90671 0.0
C1681 C 0.29291 0.27368 0.88373 0.0
C1682 C 0.32323 0.27156 0.87363 0.0
H1683 H 0.25203 0.25101 0.90538 0.0
H1684 H 0.28077 0.29255 0.87666 0.0
C1685 C 0.33867 0.24737 0.88442 0.0
C1686 C 0.57589 0.05971 0.38791 0.0
C1687 C 0.57458 0.0759 0.35881 0.0
H1688 H 0.55966 1.01764 0.41084 0.0
C1689 C 0.55708 0.0606 0.32952 0.0
H1690 H 0.58898 0.07088 0.41094 0.0
C1691 C 0.54027 1.03037 0.32948 0.0
C1692 C 0.54036 1.0145 0.35876 0.0
H1693 H 0.55552 0.07234 0.30664 0.0
H1694 H 0.52609 1.0199 0.30666 0.0
C1695 C 0.55879 1.02934 0.38792 0.0
C1696 C 0.6266 0.49818 0.66104 0.0
C1697 C 0.64592 0.47782 0.65037 0.0
H1698 H 0.60115 0.53485 0.64778 0.0
C1699 C 0.65011 0.4755 0.61664 0.0
H1700 H 0.62267 0.50012 0.68681 0.0
C1701 C 0.63723 0.49463 0.59445 0.0
C1702 C 0.61974 0.51631 0.60543 0.0
H1703 H 0.6646 0.45981 0.60751 0.0
H1704 H 0.64322 0.49424 0.56925 0.0
C1705 C 0.61355 0.51738 0.6386 0.0
C1706 C 0.45738 0.7474 0.36717 0.0
C1707 C 0.4419 0.73725 0.39467 0.0
H1708 H 0.45493 0.77304 0.32342 0.0
C1709 C 0.40876 0.73825 0.39434 0.0
H1710 H 0.4828 0.74661 0.3664 0.0
C1711 C 0.39245 0.75212 0.36886 0.0
C1712 C 0.40931 0.76627 0.344 0.0
H1713 H 0.39613 0.7305 0.41508 0.0
H1714 H 0.36756 0.75441 0.37049 0.0
C1715 C 0.44148 0.76257 0.3425 0.0
C1716 C 0.22054 0.83148 0.1464 0.0
C1717 C 0.21503 0.84353 0.17725 0.0
H1718 H 0.21793 0.79111 0.11481 0.0
C1719 C 0.20574 0.82314 0.20161 0.0
H1720 H 0.22778 0.84653 0.12712 0.0
C1721 C 0.20033 0.79135 0.19459 0.0
C1722 C 0.20403 0.77938 0.16309 0.0
H1723 H 0.20172 0.83169 0.22581 0.0
H1724 H 0.19261 0.77613 0.21358 0.0
C1725 C 0.21501 0.7997 0.13937 0.0
C1726 C 0.13675 0.32042 0.89915 0.0
C1727 C 0.11568 0.29218 0.89009 0.0
H1728 H 0.17722 0.35313 0.88772 0.0
C1729 C 0.12018 0.27462 0.86205 0.0
H1730 H 0.13376 0.33458 0.9205 0.0
C1731 C 0.14522 0.28521 0.84332 0.0
C1732 C 0.16616 0.3136 0.85224 0.0
H1733 H 0.10431 0.25275 0.85449 0.0
H1734 H 0.14843 0.27099 0.82209 0.0
C1735 C 0.16169 0.33103 0.88039 0.0
C1736 C 0.60101 0.72958 1.01988 0.0
C1737 C 0.60939 0.73851 0.988 0.0
H1738 H 0.59306 0.69522 0.05624 0.0
C1739 C 0.6162 0.7131 0.96864 0.0
H1740 H 0.59532 0.74683 0.03674 0.0
C1741 C 0.6144 0.68184 0.98036 0.0
C1742 C 0.60586 0.67335 1.01247 0.0
H1743 H 0.62254 0.71708 0.94394 0.0
H1744 H 0.61991 0.66417 0.96391 0.0
C1745 C 0.59954 0.69889 0.03153 0.0
C1746 C 0.22732 0.86487 0.70712 0.0
C1747 C 0.19727 0.84723 0.71334 0.0
H1748 H 0.2791 0.87825 0.72051 0.0
C1749 C 0.19904 0.82879 0.74111 0.0
H1750 H 0.22789 0.8793 0.68617 0.0
C1751 C 0.22934 0.82756 0.76082 0.0
C1752 C 0.25938 0.84525 0.7543 0.0
H1753 H 0.17711 0.81432 0.74698 0.0
H1754 H 0.22917 0.81245 0.78117 0.0
C1755 C 0.25723 0.86422 0.72712 0.0
C1756 C 0.1131 0.4481 0.45529 0.0
C1757 C 0.12017 0.42338 0.4751 0.0
H1758 H 0.10464 0.49533 0.45155 0.0
C1759 C 0.12487 0.43218 0.50982 0.0
H1760 H 0.10907 0.44388 0.42862 0.0
C1761 C 0.1232 0.46288 0.52331 0.0
C1762 C 0.11577 0.4875 0.50348 0.0
H1763 H 0.13041 0.41522 0.52706 0.0
H1764 H 0.1274 0.46716 0.54997 0.0
C1765 C 0.11051 0.47849 0.46881 0.0
C1766 C 0.47575 0.32141 0.20703 0.0
C1767 C 0.50855 0.32804 0.22237 0.0
H1768 H 0.42413 0.31512 0.21148 0.0
C1769 C 0.5114 0.33423 0.25746 0.0
H1770 H 0.47115 0.31645 0.18047 0.0
C1771 C 0.48379 0.33432 0.27561 0.0
C1772 C 0.45097 0.32723 0.26028 0.0
H1773 H 0.53545 0.33964 0.27124 0.0
H1774 H 0.48836 0.33962 0.30212 0.0
C1775 C 0.44817 0.3206 0.22529 0.0
C1776 C 0.74589 0.60346 0.49357 0.0
C1777 C 0.73373 0.59594 0.46024 0.0
H1778 H 0.73432 0.60862 0.54292 0.0
C1779 C 0.70058 0.58367 0.45148 0.0
H1780 H 0.77138 0.61292 0.50082 0.0
C1781 C 0.67939 0.5809 0.47543 0.0
C1782 C 0.69102 0.59079 0.50843 0.0
H1783 H 0.69077 0.57739 0.42582 0.0
H1784 H 0.65373 0.5727 0.46773 0.0
C1785 C 0.7246 0.6011 0.51753 0.0
C1786 C 0.39315 0.84718 0.15797 0.0
C1787 C 0.39539 0.87803 0.14949 0.0
H1788 H 0.39086 0.81545 0.19655 0.0
C1789 C 0.39948 0.90119 0.17522 0.0
H1790 H 0.39008 0.82875 0.13887 0.0
C1791 C 0.40088 0.8936 0.20855 0.0
C1792 C 0.39726 0.86261 0.21688 0.0
H1793 H 0.40169 0.92522 0.16962 0.0
H1794 H 0.40389 0.91194 0.22768 0.0
C1795 C 0.3937 0.83957 0.19113 0.0
C1796 C 1.05301 0.65404 0.94253 0.0
C1797 C 0.07305 0.68084 0.93422 0.0
H1798 H 1.04908 0.61518 0.97268 0.0
C1799 C 0.10256 0.69209 0.9545 0.0
H1800 H 1.03031 0.64464 0.9273 0.0
C1801 C 0.11321 0.67526 0.98072 0.0
C1802 C 0.09484 0.64664 0.98628 0.0
H1803 H 0.11849 0.71269 0.94852 0.0
H1804 H 0.13661 0.68357 0.99516 0.0
C1805 C 0.06411 0.6368 0.96798 0.0
C1806 C 0.34548 0.26326 0.66572 0.0
C1807 C 0.37403 0.25641 0.65389 0.0
H1808 H 0.32243 0.28277 0.70392 0.0
C1809 C 0.40278 0.26516 0.67668 0.0
H1810 H 0.32261 0.25773 0.64968 0.0
C1811 C 0.40268 0.2803 0.70885 0.0
C1812 C 0.3739 0.28772 0.72 0.0
H1813 H 0.42571 0.26157 0.66921 0.0
H1814 H 0.42553 0.2869 0.72473 0.0
C1815 C 0.34536 0.27816 0.69742 0.0
C1816 C 0.73151 0.69023 0.30051 0.0
C1817 C 0.74423 0.66311 0.30511 0.0
H1818 H 0.70453 0.71519 0.26694 0.0
C1819 C 0.74755 0.64462 0.27748 0.0
H1820 H 0.72948 0.70523 0.3216 0.0
C1821 C 0.73342 0.65046 0.24614 0.0
C1822 C 0.71592 0.67477 0.24248 0.0
H1823 H 0.75751 0.62375 0.28053 0.0
H1824 H 0.73263 0.63367 0.22578 0.0
C1825 C 0.71745 0.69608 0.2693 0.0
C1826 C 0.35682 0.91616 0.94503 0.0
C1827 C 0.3589 0.89648 0.97137 0.0
H1828 H 0.35198 0.92058 0.89234 0.0
C1829 C 0.35623 0.86473 0.9634 0.0
H1830 H 0.3587 0.94074 0.95008 0.0
C1831 C 0.35188 0.85304 0.93017 0.0
C1832 C 0.35036 0.87277 0.90376 0.0
H1833 H 0.35759 0.8488 0.9829 0.0
H1834 H 0.35044 0.82851 0.92525 0.0
C1835 C 0.35283 0.90454 0.91178 0.0
C1836 C 0.18169 0.66912 0.7981 0.0
C1837 C 0.15121 0.67825 0.79348 0.0
H1838 H 0.217 0.64898 0.77535 0.0
C1839 C 0.1366 0.68061 0.76112 0.0
H1840 H 0.19387 0.66748 0.82274 0.0
C1841 C 0.15014 0.67039 0.73408 0.0
C1842 C 0.17833 0.65742 0.73902 0.0
H1843 H 0.11343 0.68808 0.75673 0.0
H1844 H 0.13666 0.66973 0.70963 0.0
C1845 C 0.19505 0.65858 0.77103 0.0
C1846 C 0.36651 0.23132 0.43372 0.0
C1847 C 0.37473 0.24739 0.46542 0.0
H1848 H 0.35821 0.23287 0.38016 0.0
C1849 C 0.38226 0.28009 0.46427 0.0
H1850 H 0.36047 0.20638 0.43239 0.0
C1851 C 0.38188 0.29557 0.43368 0.0
C1852 C 0.37315 0.27952 0.40199 0.0
H1853 H 0.38889 0.29405 0.48733 0.0
H1854 H 0.38792 0.32052 0.43503 0.0
C1855 C 0.36527 0.24683 0.40319 0.0
C1856 C 0.43389 0.71055 0.52564 0.0
C1857 C 0.40707 0.69905 0.54185 0.0
H1858 H 0.47519 0.70058 0.50441 0.0
C1859 C 0.40258 0.66826 0.55078 0.0
H1860 H 0.43772 0.73406 0.51808 0.0
C1861 C 0.42393 0.64909 0.54287 0.0
C1862 C 0.45036 0.66022 0.52581 0.0
H1863 H 0.38193 0.6586 0.56304 0.0
H1864 H 0.41903 0.62527 0.54928 0.0
C1865 C 0.45515 0.69125 0.5175 0.0
C1866 C 0.95826 0.99101 0.52667 0.0
C1867 C 0.93578 0.99791 0.54806 0.0
H1868 H 1.00551 1.00226 0.50997 0.0
C1869 C 0.94669 1.02483 0.5694 0.0
H1870 H 0.95166 0.97071 0.50976 0.0
C1871 C 0.97865 0.04302 0.56992 0.0
C1872 C 1.00118 1.0357 0.54867 0.0
H1873 H 0.93104 1.03125 0.58672 0.0
H1874 H 0.98587 0.06279 0.58749 0.0
C1875 C 0.9897 1.00941 0.52671 0.0
C1876 C 0.89337 0.10289 0.25196 0.0
C1877 C 0.92557 0.10276 0.26553 0.0
H1878 H 0.8524 0.12562 0.25106 0.0
C1879 C 0.94112 0.12609 0.28945 0.0
H1880 H 0.88068 0.08513 0.23357 0.0
C1881 C 0.92492 0.14916 0.29948 0.0
C1882 C 0.89274 0.14935 0.28595 0.0
H1883 H 0.96585 0.12654 0.30051 0.0
H1884 H 0.93754 0.16676 0.31808 0.0
C1885 C 0.87707 0.12589 0.26218 0.0
C1886 C 0.74151 0.16838 0.03848 0.0
C1887 C 0.73551 0.19637 1.0258 0.0
H1888 H 0.72188 0.12215 0.04903 0.0
C1889 C 0.70385 0.19768 1.0113 0.0
H1890 H 0.76553 0.16632 0.04975 0.0
C1891 C 0.67875 0.17185 1.0103 0.0
C1892 C 0.68468 0.14432 1.0242 0.0
H1893 H 0.6984 0.21873 1.00105 0.0
H1894 H 0.65442 0.17391 0.99996 0.0
C1895 C 0.71645 0.14287 0.03793 0.0
C1896 C 0.27305 0.52161 0.29644 0.0
C1897 C 0.24302 0.51144 0.308 0.0
H1898 H 0.32327 0.51768 0.29938 0.0
C1899 C 0.24179 0.49271 0.33512 0.0
H1900 H 0.27481 0.53639 0.27582 0.0
C1901 C 0.2696 0.48244 0.34878 0.0
C1902 C 0.29907 0.49104 0.33578 0.0
H1903 H 0.21907 0.48477 0.34478 0.0
H1904 H 0.26763 0.46609 0.36798 0.0
C1905 C 0.30091 0.51146 0.31026 0.0
C1906 C 0.24849 0.53241 0.06922 0.0
C1907 C 0.24648 0.50165 0.05595 0.0
H1908 H 0.22498 0.57111 0.07933 0.0
C1909 C 0.21446 0.4876 0.04148 0.0
H1910 H 0.27183 0.54498 0.08065 0.0
C1911 C 0.18684 0.50319 0.04028 0.0
C1912 C 0.18895 0.53398 0.05372 0.0
H1913 H 0.21059 0.46425 0.03064 0.0
H1914 H 0.16348 0.49073 1.0288 0.0
C1915 C 0.22094 0.5478 0.06835 0.0
C1916 C 0.90371 0.95131 0.22814 0.0
C1917 C 0.93323 0.94618 0.21794 0.0
H1918 H 0.86312 0.9334 0.25367 0.0
C1919 C 0.94078 0.91649 0.21947 0.0
H1920 H 0.89722 0.97396 0.22735 0.0
C1921 C 0.92174 0.89376 0.23509 0.0
C1922 C 0.89445 0.90005 0.24887 0.0
H1923 H 0.9631 0.91167 0.21147 0.0
H1924 H 0.92951 0.87179 0.23817 0.0
C1925 C 0.88432 0.92824 0.24351 0.0
C1926 C 0.64764 0.14859 0.71915 0.0
C1927 C 0.65763 0.12079 0.71134 0.0
H1928 H 0.66093 0.19789 0.72426 0.0
C1929 C 0.68582 0.12152 0.69601 0.0
H1930 H 0.62597 0.14857 0.73108 0.0
C1931 C 0.70607 0.14949 0.69271 0.0
C1932 C 0.69838 0.17735 0.70453 0.0
H1933 H 0.69387 0.10029 0.68962 0.0
H1934 H 0.72916 0.1488 0.68384 0.0
C1935 C 0.66798 0.17676 0.71584 0.0
loop_
_geom_bond_atom_site_label_1
_geom_bond_atom_site_label_2
_geom_bond_distance
_geom_bond_site_symmetry_2
_ccdc_geom_bond_type
Co0 O1 2.216 . S
Co0 O2 2.091 . S
Co0 O4 2.004 . S
Co0 O10 2.021 . S
Co0 O12 2.137 . S
Co0 O13 2.244 . S
O1 Co0 2.216 . S
O1 C8 1.247 . S
O2 Co0 2.091 . S
O2 C8 1.261 . S
C3 O12 1.247 . S
C3 O13 1.272 . S
O4 Co0 2.004 . S
O4 C9 1.259 1_455 S
Co5 O6 2.061 1_455 S
Co5 O11 2.052 . S
Co5 O13 2.135 . S
O6 Co5 2.061 1_655 S
O6 C9 1.235 . S
C7 O10 1.238 . S
C7 O11 1.241 . S
C8 O1 1.247 . S
C8 O2 1.261 . S
C9 O4 1.259 1_655 S
C9 O6 1.235 . S
O10 Co0 2.021 . S
O10 C7 1.238 . S
O11 Co5 2.052 . S
O11 C7 1.241 . S
O12 Co0 2.137 . S
O12 C3 1.247 . S
O13 Co0 2.244 . S
O13 C3 1.272 . S
O13 Co5 2.135 . S
Co14 O15 2.216 1_455 S
Co14 O16 2.091 . S
Co14 O18 2.004 . S
Co14 O24 2.021 . S
Co14 O26 2.137 . S
Co14 O27 2.244 . S
O15 Co14 2.216 1_655 S
O15 C22 1.247 . S
O16 Co14 2.091 . S
O16 C22 1.261 1_455 S
C17 O26 1.247 . S
C17 O27 1.272 . S
O18 Co14 2.004 . S
O18 C23 1.259 . S
Co19 O20 2.061 . S
Co19 O25 2.052 . S
Co19 O27 2.135 . S
O20 Co19 2.061 . S
O20 C23 1.235 . S
C21 O24 1.238 . S
C21 O25 1.241 . S
C22 O15 1.247 . S
C22 O16 1.261 1_655 S
C23 O18 1.259 . S
C23 O20 1.235 . S
O24 Co14 2.021 . S
O24 C21 1.238 . S
O25 Co19 2.052 . S
O25 C21 1.241 . S
O26 Co14 2.137 . S
O26 C17 1.247 . S
O27 Co14 2.244 . S
O27 C17 1.272 . S
O27 Co19 2.135 . S
Co28 O29 2.216 . S
Co28 O30 2.091 . S
Co28 O32 2.004 . S
Co28 O38 2.021 . S
Co28 O40 2.137 . S
Co28 O41 2.244 . S
O29 Co28 2.216 . S
O29 C36 1.247 . S
O30 Co28 2.091 . S
O30 C36 1.261 . S
C31 O40 1.247 . S
C31 O41 1.272 . S
O32 Co28 2.004 . S
O32 C37 1.259 . S
Co33 O34 2.061 . S
Co33 O39 2.052 . S
Co33 O41 2.135 . S
O34 Co33 2.061 . S
O34 C37 1.235 . S
C35 O38 1.238 . S
C35 O39 1.241 . S
C36 O29 1.247 . S
C36 O30 1.261 . S
C37 O32 1.259 . S
C37 O34 1.235 . S
O38 Co28 2.021 . S
O38 C35 1.238 . S
O39 Co33 2.052 . S
O39 C35 1.241 . S
O40 Co28 2.137 . S
O40 C31 1.247 . S
O41 Co28 2.244 . S
O41 C31 1.272 . S
O41 Co33 2.135 . S
Co42 O43 2.216 . S
Co42 O44 2.091 . S
Co42 O46 2.004 . S
Co42 O52 2.021 . S
Co42 O54 2.137 . S
Co42 O55 2.244 . S
O43 Co42 2.216 . S
O43 C50 1.247 . S
O44 Co42 2.091 . S
O44 C50 1.261 . S
C45 O54 1.247 . S
C45 O55 1.272 . S
O46 Co42 2.004 . S
O46 C51 1.259 . S
Co47 O48 2.061 . S
Co47 O53 2.052 . S
Co47 O55 2.135 . S
O48 Co47 2.061 . S
O48 C51 1.235 . S
C49 O52 1.238 . S
C49 O53 1.241 . S
C50 O43 1.247 . S
C50 O44 1.261 . S
C51 O46 1.259 . S
C51 O48 1.235 . S
O52 Co42 2.021 . S
O52 C49 1.238 . S
O53 Co47 2.052 . S
O53 C49 1.241 . S
O54 Co42 2.137 . S
O54 C45 1.247 . S
O55 Co42 2.244 . S
O55 C45 1.272 . S
O55 Co47 2.135 . S
Co56 O57 2.216 . S
Co56 O58 2.091 . S
Co56 O60 2.004 . S
Co56 O66 2.021 . S
Co56 O68 2.137 . S
Co56 O69 2.244 . S
O57 Co56 2.216 . S
O57 C64 1.247 . S
O58 Co56 2.091 . S
O58 C64 1.261 . S
C59 O68 1.247 . S
C59 O69 1.272 . S
O60 Co56 2.004 . S
O60 C65 1.259 . S
Co61 O62 2.061 . S
Co61 O67 2.052 . S
Co61 O69 2.135 . S
O62 Co61 2.061 . S
O62 C65 1.235 . S
C63 O66 1.238 . S
C63 O67 1.241 . S
C64 O57 1.247 . S
C64 O58 1.261 . S
C65 O60 1.259 . S
C65 O62 1.235 . S
O66 Co56 2.021 . S
O66 C63 1.238 . S
O67 Co61 2.052 . S
O67 C63 1.241 . S
O68 Co56 2.137 . S
O68 C59 1.247 . S
O69 Co56 2.244 . S
O69 C59 1.272 . S
O69 Co61 2.135 . S
Co70 O71 2.216 . S
Co70 O72 2.091 . S
Co70 O74 2.004 . S
Co70 O80 2.021 . S
Co70 O82 2.137 . S
Co70 O83 2.244 . S
O71 Co70 2.216 . S
O71 C78 1.247 . S
O72 Co70 2.091 . S
O72 C78 1.261 . S
C73 O82 1.247 . S
C73 O83 1.272 . S
O74 Co70 2.004 . S
O74 C79 1.259 . S
Co75 O76 2.061 . S
Co75 O81 2.052 . S
Co75 O83 2.135 . S
O76 Co75 2.061 . S
O76 C79 1.235 . S
C77 O80 1.238 . S
C77 O81 1.241 . S
C78 O71 1.247 . S
C78 O72 1.261 . S
C79 O74 1.259 . S
C79 O76 1.235 . S
O80 Co70 2.021 . S
O80 C77 1.238 . S
O81 Co75 2.052 . S
O81 C77 1.241 . S
O82 Co70 2.137 . S
O82 C73 1.247 . S
O83 Co70 2.244 . S
O83 C73 1.272 . S
O83 Co75 2.135 . S
Co84 O85 2.216 . S
Co84 O86 2.091 . S
Co84 O88 2.004 . S
Co84 O94 2.021 . S
Co84 O96 2.137 . S
Co84 O97 2.244 . S
O85 Co84 2.216 . S
O85 C92 1.247 . S
O86 Co84 2.091 . S
O86 C92 1.261 . S
C87 O96 1.247 . S
C87 O97 1.272 . S
O88 Co84 2.004 . S
O88 C93 1.259 . S
Co89 O90 2.061 . S
Co89 O95 2.052 . S
Co89 O97 2.135 . S
O90 Co89 2.061 . S
O90 C93 1.235 . S
C91 O94 1.238 . S
C91 O95 1.241 . S
C92 O85 1.247 . S
C92 O86 1.261 . S
C93 O88 1.259 . S
C93 O90 1.235 . S
O94 Co84 2.021 . S
O94 C91 1.238 . S
O95 Co89 2.052 . S
O95 C91 1.241 . S
O96 Co84 2.137 . S
O96 C87 1.247 . S
O97 Co84 2.244 . S
O97 C87 1.272 . S
O97 Co89 2.135 . S
Co98 O99 2.216 . S
Co98 O100 2.091 . S
Co98 O102 2.004 1_455 S
Co98 O108 2.022 1_455 S
Co98 O110 2.137 . S
Co98 O111 2.244 1_455 S
O99 Co98 2.216 . S
O99 C106 1.247 . S
O100 Co98 2.091 . S
O100 C106 1.261 . S
C101 O110 1.247 . S
C101 O111 1.272 1_455 S
O102 Co98 2.004 1_655 S
O102 C107 1.259 . S
Co103 O104 2.061 . S
Co103 O109 2.052 . S
Co103 O111 2.135 . S
O104 Co103 2.061 . S
O104 C107 1.235 . S
C105 O108 1.245 . S
C105 O109 1.241 . S
C106 O99 1.247 . S
C106 O100 1.261 . S
C107 O102 1.259 . S
C107 O104 1.235 . S
O108 Co98 2.022 1_655 S
O108 C105 1.245 . S
O109 Co103 2.052 . S
O109 C105 1.241 . S
O110 Co98 2.137 . S
O110 C101 1.247 . S
O111 Co98 2.244 1_655 S
O111 C101 1.272 1_655 S
O111 Co103 2.135 . S
Co112 O113 2.216 . S
Co112 O114 2.091 . S
Co112 O116 2.004 . S
Co112 O122 2.021 . S
Co112 O124 2.137 . S
Co112 O125 2.244 . S
O113 Co112 2.216 . S
O113 C120 1.247 . S
O114 Co112 2.091 . S
O114 C120 1.261 . S
C115 O124 1.247 . S
C115 O125 1.272 . S
O116 Co112 2.004 . S
O116 C121 1.259 . S
Co117 O118 2.061 . S
Co117 O123 2.052 . S
Co117 O125 2.135 . S
O118 Co117 2.061 . S
O118 C121 1.235 . S
C119 O122 1.238 . S
C119 O123 1.241 . S
C120 O113 1.247 . S
C120 O114 1.261 . S
C121 O116 1.259 . S
C121 O118 1.235 . S
O122 Co112 2.021 . S
O122 C119 1.238 . S
O123 Co117 2.052 . S
O123 C119 1.241 . S
O124 Co112 2.137 . S
O124 C115 1.247 . S
O125 Co112 2.244 . S
O125 C115 1.272 . S
O125 Co117 2.135 . S
Co126 O127 2.216 . S
Co126 O128 2.091 . S
Co126 O130 2.004 . S
Co126 O136 2.021 . S
Co126 O138 2.137 . S
Co126 O139 2.244 . S
O127 Co126 2.216 . S
O127 C134 1.247 . S
O128 Co126 2.091 . S
O128 C134 1.261 . S
C129 O138 1.247 . S
C129 O139 1.272 . S
O130 Co126 2.004 . S
O130 C135 1.259 . S
Co131 O132 2.061 . S
Co131 O137 2.052 . S
Co131 O139 2.135 . S
O132 Co131 2.061 . S
O132 C135 1.235 . S
C133 O136 1.238 . S
C133 O137 1.241 . S
C134 O127 1.247 . S
C134 O128 1.261 . S
C135 O130 1.259 . S
C135 O132 1.235 . S
O136 Co126 2.021 . S
O136 C133 1.238 . S
O137 Co131 2.052 . S
O137 C133 1.241 . S
O138 Co126 2.137 . S
O138 C129 1.247 . S
O139 Co126 2.244 . S
O139 C129 1.272 . S
O139 Co131 2.135 . S
Co140 O141 2.216 . S
Co140 O142 2.091 . S
Co140 O144 2.004 . S
Co140 O150 2.021 . S
Co140 O152 2.137 . S
Co140 O153 2.244 . S
O141 Co140 2.216 . S
O141 C148 1.247 . S
O142 Co140 2.091 . S
O142 C148 1.261 . S
C143 O152 1.247 . S
C143 O153 1.272 . S
O144 Co140 2.004 . S
O144 C149 1.259 . S
Co145 O146 2.061 . S
Co145 O151 2.052 . S
Co145 O153 2.135 . S
O146 Co145 2.061 . S
O146 C149 1.235 . S
C147 O150 1.238 . S
C147 O151 1.241 . S
C148 O141 1.247 . S
C148 O142 1.261 . S
C149 O144 1.259 . S
C149 O146 1.235 . S
O150 Co140 2.021 . S
O150 C147 1.238 . S
O151 Co145 2.052 . S
O151 C147 1.241 . S
O152 Co140 2.137 . S
O152 C143 1.247 . S
O153 Co140 2.244 . S
O153 C143 1.272 . S
O153 Co145 2.135 . S
Co154 O155 2.216 . S
Co154 O156 2.091 . S
Co154 O158 2.004 . S
Co154 O164 2.021 . S
Co154 O166 2.137 . S
Co154 O167 2.244 . S
O155 Co154 2.216 . S
O155 C162 1.247 . S
O156 Co154 2.091 . S
O156 C162 1.261 . S
C157 O166 1.247 . S
C157 O167 1.272 . S
O158 Co154 2.004 . S
O158 C163 1.259 . S
Co159 O160 2.061 . S
Co159 O165 2.052 . S
Co159 O167 2.135 . S
O160 Co159 2.061 . S
O160 C163 1.235 . S
C161 O164 1.238 . S
C161 O165 1.241 . S
C162 O155 1.247 . S
C162 O156 1.261 . S
C163 O158 1.259 . S
C163 O160 1.235 . S
O164 Co154 2.021 . S
O164 C161 1.238 . S
O165 Co159 2.052 . S
O165 C161 1.241 . S
O166 Co154 2.137 . S
O166 C157 1.247 . S
O167 Co154 2.244 . S
O167 C157 1.272 . S
O167 Co159 2.135 . S
Co168 O169 2.216 . S
Co168 O170 2.091 . S
Co168 O172 2.004 . S
Co168 O178 2.021 . S
Co168 O180 2.137 1_554 S
Co168 O181 2.244 . S
O169 Co168 2.216 . S
O169 C176 1.247 . S
O170 Co168 2.091 . S
O170 C176 1.261 . S
C171 O180 1.247 . S
C171 O181 1.272 1_556 S
O172 Co168 2.004 . S
O172 C177 1.259 . S
Co173 O174 2.061 . S
Co173 O179 2.052 . S
Co173 O181 2.135 . S
O174 Co173 2.061 . S
O174 C177 1.235 . S
C175 O178 1.238 . S
C175 O179 1.241 . S
C176 O169 1.247 . S
C176 O170 1.261 . S
C177 O172 1.259 . S
C177 O174 1.235 . S
O178 Co168 2.021 . S
O178 C175 1.238 . S
O179 Co173 2.052 . S
O179 C175 1.241 . S
O180 Co168 2.137 1_556 S
O180 C171 1.247 . S
O181 Co168 2.244 . S
O181 C171 1.272 1_554 S
O181 Co173 2.135 . S
Co182 O183 2.216 1_556 S
Co182 O184 2.091 1_556 S
Co182 O186 2.004 . S
Co182 O192 2.021 1_556 S
Co182 O194 2.137 . S
Co182 O195 2.244 . S
O183 Co182 2.216 1_554 S
O183 C190 1.247 . S
O184 Co182 2.091 1_554 S
O184 C190 1.261 . S
C185 O194 1.247 . S
C185 O195 1.272 . S
O186 Co182 2.004 . S
O186 C191 1.259 . S
Co187 O188 2.061 . S
Co187 O193 2.052 1_556 S
Co187 O195 2.135 . S
O188 Co187 2.061 . S
O188 C191 1.235 . S
C189 O192 1.238 . S
C189 O193 1.241 . S
C190 O183 1.247 . S
C190 O184 1.261 . S
C191 O186 1.259 . S
C191 O188 1.235 . S
O192 Co182 2.021 1_554 S
O192 C189 1.238 . S
O193 Co187 2.052 1_554 S
O193 C189 1.241 . S
O194 Co182 2.137 . S
O194 C185 1.247 . S
O195 Co182 2.244 . S
O195 C185 1.272 . S
O195 Co187 2.135 . S
Co196 O197 2.216 . S
Co196 O198 2.091 . S
Co196 O200 2.004 . S
Co196 O206 2.021 . S
Co196 O208 2.137 . S
Co196 O209 2.244 . S
O197 Co196 2.216 . S
O197 C204 1.247 . S
O198 Co196 2.091 . S
O198 C204 1.261 . S
C199 O208 1.247 . S
C199 O209 1.272 . S
O200 Co196 2.004 . S
O200 C205 1.259 . S
Co201 O202 2.061 . S
Co201 O207 2.052 . S
Co201 O209 2.135 . S
O202 Co201 2.061 . S
O202 C205 1.235 . S
C203 O206 1.238 . S
C203 O207 1.241 . S
C204 O197 1.247 . S
C204 O198 1.261 . S
C205 O200 1.259 . S
C205 O202 1.235 . S
O206 Co196 2.021 . S
O206 C203 1.238 . S
O207 Co201 2.052 . S
O207 C203 1.241 . S
O208 Co196 2.137 . S
O208 C199 1.247 . S
O209 Co196 2.244 . S
O209 C199 1.272 . S
O209 Co201 2.135 . S
Co210 O211 2.216 . S
Co210 O212 2.091 . S
Co210 O214 2.004 . S
Co210 O220 2.021 . S
Co210 O222 2.137 . S
Co210 O223 2.244 . S
O211 Co210 2.216 . S
O211 C218 1.247 . S
O212 Co210 2.091 . S
O212 C218 1.261 . S
C213 O222 1.247 . S
C213 O223 1.272 . S
O214 Co210 2.004 . S
O214 C219 1.259 . S
Co215 O216 2.061 . S
Co215 O221 2.052 . S
Co215 O223 2.135 . S
O216 Co215 2.061 . S
O216 C219 1.235 . S
C217 O220 1.238 . S
C217 O221 1.241 . S
C218 O211 1.247 . S
C218 O212 1.261 . S
C219 O214 1.259 . S
C219 O216 1.235 . S
O220 Co210 2.021 . S
O220 C217 1.238 . S
O221 Co215 2.052 . S
O221 C217 1.241 . S
O222 Co210 2.137 . S
O222 C213 1.247 . S
O223 Co210 2.244 . S
O223 C213 1.272 . S
O223 Co215 2.135 . S
Co224 O225 2.216 . S
Co224 O226 2.091 . S
Co224 O228 2.004 1_545 S
Co224 O234 2.021 . S
Co224 O236 2.137 . S
Co224 O237 2.244 1_545 S
O225 Co224 2.216 . S
O225 C232 1.247 . S
O226 Co224 2.091 . S
O226 C232 1.261 . S
C227 O236 1.247 . S
C227 O237 1.272 1_545 S
O228 Co224 2.004 1_565 S
O228 C233 1.259 . S
Co229 O230 2.061 . S
Co229 O235 2.052 . S
Co229 O237 2.135 . S
O230 Co229 2.061 . S
O230 C233 1.235 . S
C231 O234 1.238 1_565 S
C231 O235 1.241 . S
C232 O225 1.247 . S
C232 O226 1.261 . S
C233 O228 1.259 . S
C233 O230 1.235 . S
O234 Co224 2.021 . S
O234 C231 1.238 1_545 S
O235 Co229 2.052 . S
O235 C231 1.241 . S
O236 Co224 2.137 . S
O236 C227 1.247 . S
O237 Co224 2.244 1_565 S
O237 C227 1.272 1_565 S
O237 Co229 2.135 . S
Co238 O239 2.216 . S
Co238 O240 2.091 . S
Co238 O242 2.004 . S
Co238 O248 2.021 . S
Co238 O250 2.137 . S
Co238 O251 2.244 . S
O239 Co238 2.216 . S
O239 C246 1.247 . S
O240 Co238 2.091 . S
O240 C246 1.261 . S
C241 O250 1.247 . S
C241 O251 1.272 . S
O242 Co238 2.004 . S
O242 C247 1.259 . S
Co243 O244 2.061 . S
Co243 O249 2.052 . S
Co243 O251 2.135 . S
O244 Co243 2.061 . S
O244 C247 1.235 . S
C245 O248 1.238 . S
C245 O249 1.241 . S
C246 O239 1.247 . S
C246 O240 1.261 . S
C247 O242 1.259 . S
C247 O244 1.235 . S
O248 Co238 2.021 . S
O248 C245 1.238 . S
O249 Co243 2.052 . S
O249 C245 1.241 . S
O250 Co238 2.137 . S
O250 C241 1.247 . S
O251 Co238 2.244 . S
O251 C241 1.272 . S
O251 Co243 2.135 . S
Co252 O253 2.216 . S
Co252 O254 2.091 . S
Co252 O256 2.004 . S
Co252 O262 2.021 . S
Co252 O264 2.137 . S
Co252 O265 2.244 . S
O253 Co252 2.216 . S
O253 C260 1.247 . S
O254 Co252 2.091 . S
O254 C260 1.261 . S
C255 O264 1.247 . S
C255 O265 1.272 . S
O256 Co252 2.004 . S
O256 C261 1.259 . S
Co257 O258 2.061 . S
Co257 O263 2.052 . S
Co257 O265 2.135 . S
O258 Co257 2.061 . S
O258 C261 1.235 . S
C259 O262 1.238 . S
C259 O263 1.241 . S
C260 O253 1.247 . S
C260 O254 1.261 . S
C261 O256 1.259 . S
C261 O258 1.235 . S
O262 Co252 2.021 . S
O262 C259 1.238 . S
O263 Co257 2.052 . S
O263 C259 1.241 . S
O264 Co252 2.137 . S
O264 C255 1.247 . S
O265 Co252 2.244 . S
O265 C255 1.272 . S
O265 Co257 2.135 . S
Co266 O267 2.216 1_545 S
Co266 O268 2.091 1_545 S
Co266 O270 2.004 . S
Co266 O276 2.021 . S
Co266 O278 2.137 . S
Co266 O279 2.244 . S
O267 Co266 2.216 1_565 S
O267 C274 1.247 . S
O268 Co266 2.091 1_565 S
O268 C274 1.261 . S
C269 O278 1.247 . S
C269 O279 1.272 . S
O270 Co266 2.004 . S
O270 C275 1.259 . S
Co271 O272 2.061 . S
Co271 O277 2.052 . S
Co271 O279 2.135 . S
O272 Co271 2.061 . S
O272 C275 1.235 . S
C273 O276 1.238 . S
C273 O277 1.241 . S
C274 O267 1.247 . S
C274 O268 1.261 . S
C275 O270 1.259 . S
C275 O272 1.235 . S
O276 Co266 2.021 . S
O276 C273 1.238 . S
O277 Co271 2.052 . S
O277 C273 1.241 . S
O278 Co266 2.137 . S
O278 C269 1.247 . S
O279 Co266 2.244 . S
O279 C269 1.272 . S
O279 Co271 2.135 . S
Co280 O281 2.216 . S
Co280 O282 2.091 . S
Co280 O284 2.004 . S
Co280 O290 2.021 . S
Co280 O292 2.137 1_554 S
Co280 O293 2.244 1_554 S
O281 Co280 2.216 . S
O281 C288 1.247 . S
O282 Co280 2.091 . S
O282 C288 1.261 . S
C283 O292 1.247 . S
C283 O293 1.272 . S
O284 Co280 2.004 . S
O284 C289 1.259 . S
Co285 O286 2.061 . S
Co285 O291 2.052 . S
Co285 O293 2.135 1_554 S
O286 Co285 2.061 . S
O286 C289 1.235 . S
C287 O290 1.238 . S
C287 O291 1.241 . S
C288 O281 1.247 . S
C288 O282 1.261 . S
C289 O284 1.259 . S
C289 O286 1.235 . S
O290 Co280 2.021 . S
O290 C287 1.238 . S
O291 Co285 2.052 . S
O291 C287 1.241 . S
O292 Co280 2.137 1_556 S
O292 C283 1.247 . S
O293 Co280 2.244 1_556 S
O293 C283 1.272 . S
O293 Co285 2.135 1_556 S
Co294 O295 2.216 1_655 S
Co294 O296 2.091 . S
Co294 O298 2.004 . S
Co294 O304 2.021 1_655 S
Co294 O306 2.137 . S
Co294 O307 2.244 1_655 S
O295 Co294 2.216 1_455 S
O295 C302 1.247 1_455 S
O296 Co294 2.091 . S
O296 C302 1.261 . S
C297 O306 1.249 1_455 S
C297 O307 1.272 . S
O298 Co294 2.004 . S
O298 C303 1.259 . S
Co299 O300 2.061 . S
Co299 O305 2.052 . S
Co299 O307 2.135 . S
O300 Co299 2.061 . S
O300 C303 1.235 1_455 S
C301 O304 1.238 . S
C301 O305 1.241 . S
C302 O295 1.247 1_655 S
C302 O296 1.261 . S
C303 O298 1.259 . S
C303 O300 1.235 1_655 S
O304 Co294 2.021 1_455 S
O304 C301 1.238 . S
O305 Co299 2.052 . S
O305 C301 1.241 . S
O306 Co294 2.137 . S
O306 C297 1.249 1_655 S
O307 Co294 2.244 1_455 S
O307 C297 1.272 . S
O307 Co299 2.135 . S
Co308 O309 2.216 . S
Co308 O310 2.091 . S
Co308 O312 2.004 . S
Co308 O318 2.021 . S
Co308 O320 2.137 . S
Co308 O321 2.244 . S
O309 Co308 2.216 . S
O309 C316 1.247 . S
O310 Co308 2.091 . S
O310 C316 1.261 . S
C311 O320 1.247 . S
C311 O321 1.272 . S
O312 Co308 2.004 . S
O312 C317 1.259 . S
Co313 O314 2.061 . S
Co313 O319 2.052 . S
Co313 O321 2.135 . S
O314 Co313 2.061 . S
O314 C317 1.235 . S
C315 O318 1.238 . S
C315 O319 1.241 . S
C316 O309 1.247 . S
C316 O310 1.261 . S
C317 O312 1.259 . S
C317 O314 1.235 . S
O318 Co308 2.021 . S
O318 C315 1.238 . S
O319 Co313 2.052 . S
O319 C315 1.241 . S
O320 Co308 2.137 . S
O320 C311 1.247 . S
O321 Co308 2.244 . S
O321 C311 1.272 . S
O321 Co313 2.135 . S
Co322 O323 2.216 . S
Co322 O324 2.091 . S
Co322 O326 2.004 . S
Co322 O332 2.021 . S
Co322 O334 2.137 . S
Co322 O335 2.244 . S
O323 Co322 2.216 . S
O323 C330 1.247 . S
O324 Co322 2.091 . S
O324 C330 1.261 . S
C325 O334 1.247 . S
C325 O335 1.272 . S
O326 Co322 2.004 . S
O326 C331 1.259 . S
Co327 O328 2.061 . S
Co327 O333 2.052 . S
Co327 O335 2.135 . S
O328 Co327 2.061 . S
O328 C331 1.235 . S
C329 O332 1.238 . S
C329 O333 1.241 . S
C330 O323 1.247 . S
C330 O324 1.261 . S
C331 O326 1.259 . S
C331 O328 1.235 . S
O332 Co322 2.021 . S
O332 C329 1.238 . S
O333 Co327 2.052 . S
O333 C329 1.241 . S
O334 Co322 2.137 . S
O334 C325 1.247 . S
O335 Co322 2.244 . S
O335 C325 1.272 . S
O335 Co327 2.135 . S
Tb336 C346 2.825 1_454 S
Tb336 O347 2.347 . S
Tb336 O350 2.366 . S
Tb336 O355 2.418 1_554 S
Tb336 O356 2.384 . S
Tb336 O359 2.479 1_454 S
Tb336 O360 2.471 1_455 S
Eu337 O348 2.418 . S
Eu337 O349 2.384 . S
Eu337 O352 2.479 . S
Eu337 O353 2.471 . S
Eu337 O354 2.347 . S
Eu337 O357 2.366 . S
Eu337 C367 2.825 . S
C338 O354 1.259 1_556 S
C338 O355 1.265 . S
C339 O356 1.255 . S
C339 O357 1.265 . S
C340 C342 1.380 . S
C340 C343 1.374 . S
C340 C346 1.507 . S
C341 C342 1.384 . S
C341 C345 1.387 . S
C341 H368 0.930 . S
C342 C340 1.380 . S
C342 C341 1.384 . S
C342 H369 0.931 . S
C343 C340 1.374 . S
C343 C344 1.390 . S
C343 H370 0.930 1_556 S
C344 C343 1.390 . S
C344 C345 1.391 . S
C344 H371 0.930 . S
C345 C341 1.387 . S
C345 C344 1.391 . S
C346 Tb336 2.825 1_656 S
C346 C340 1.507 . S
C346 O359 1.238 . S
C346 O360 1.247 1_556 S
O347 Tb336 2.347 . S
O347 C351 1.259 . S
O348 Eu337 2.418 . S
O348 C351 1.265 . S
O349 Eu337 2.384 . S
O349 C358 1.255 . S
O350 Tb336 2.366 . S
O350 C358 1.265 . S
C351 O347 1.259 . S
C351 O348 1.265 . S
O352 Eu337 2.479 . S
O352 C367 1.238 . S
O353 Eu337 2.471 . S
O353 C367 1.247 . S
O354 Eu337 2.347 . S
O354 C338 1.259 1_554 S
O355 Tb336 2.418 1_556 S
O355 C338 1.265 . S
O356 Tb336 2.384 . S
O356 C339 1.255 . S
O357 Eu337 2.366 . S
O357 C339 1.265 . S
C358 O349 1.255 . S
C358 O350 1.265 . S
O359 Tb336 2.479 1_656 S
O359 C346 1.238 . S
O360 Tb336 2.471 1_655 S
O360 C346 1.247 1_554 S
C361 C364 1.380 . S
C361 C365 1.374 . S
C361 C367 1.507 . S
C362 C363 1.387 . S
C362 C366 1.391 . S
C363 C362 1.387 . S
C363 C364 1.384 . S
C363 H372 0.930 . S
C364 C361 1.380 . S
C364 C363 1.384 . S
C364 H373 0.931 . S
C365 C361 1.374 . S
C365 C366 1.390 . S
C365 H374 0.930 . S
C366 C362 1.391 . S
C366 C365 1.390 . S
C366 H375 0.930 . S
C367 Eu337 2.825 . S
C367 O352 1.238 . S
C367 O353 1.247 . S
C367 C361 1.507 . S
H368 C341 0.930 . S
H369 C342 0.931 . S
H370 C343 0.930 1_554 S
H371 C344 0.930 . S
H372 C363 0.930 . S
H373 C364 0.931 . S
H374 C365 0.930 . S
H375 C366 0.930 . S
Tb376 C386 2.825 . S
Tb376 O387 2.347 . S
Tb376 O390 2.366 . S
Tb376 O395 2.418 . S
Tb376 O396 2.384 . S
Tb376 O399 2.479 . S
Tb376 O400 2.471 . S
Eu377 O388 2.418 . S
Eu377 O389 2.384 . S
Eu377 O392 2.479 . S
Eu377 O393 2.471 . S
Eu377 O394 2.347 . S
Eu377 O397 2.366 . S
Eu377 C407 2.825 . S
C378 O394 1.259 . S
C378 O395 1.265 . S
C379 O396 1.255 . S
C379 O397 1.265 . S
C380 C382 1.380 . S
C380 C383 1.374 . S
C380 C386 1.507 . S
C381 C382 1.384 . S
C381 C385 1.387 . S
C381 H408 0.930 . S
C382 C380 1.380 . S
C382 C381 1.384 . S
C382 H409 0.931 . S
C383 C380 1.374 . S
C383 C384 1.390 . S
C383 H410 0.930 . S
C384 C383 1.390 . S
C384 C385 1.391 . S
C384 H411 0.930 . S
C385 C381 1.387 . S
C385 C384 1.391 . S
C386 Tb376 2.825 . S
C386 C380 1.507 . S
C386 O399 1.238 . S
C386 O400 1.247 . S
O387 Tb376 2.347 . S
O387 C391 1.259 . S
O388 Eu377 2.418 . S
O388 C391 1.265 . S
O389 Eu377 2.384 . S
O389 C398 1.255 . S
O390 Tb376 2.366 . S
O390 C398 1.265 . S
C391 O387 1.259 . S
C391 O388 1.265 . S
O392 Eu377 2.479 . S
O392 C407 1.238 . S
O393 Eu377 2.471 . S
O393 C407 1.247 . S
O394 Eu377 2.347 . S
O394 C378 1.259 . S
O395 Tb376 2.418 . S
O395 C378 1.265 . S
O396 Tb376 2.384 . S
O396 C379 1.255 . S
O397 Eu377 2.366 . S
O397 C379 1.265 . S
C398 O389 1.255 . S
C398 O390 1.265 . S
O399 Tb376 2.479 . S
O399 C386 1.238 . S
O400 Tb376 2.471 . S
O400 C386 1.247 . S
C401 C404 1.380 . S
C401 C405 1.374 . S
C401 C407 1.507 . S
C402 C403 1.387 . S
C402 C406 1.391 . S
C403 C402 1.387 . S
C403 C404 1.384 . S
C403 H412 0.930 . S
C404 C401 1.380 . S
C404 C403 1.384 . S
C404 H413 0.931 . S
C405 C401 1.374 . S
C405 C406 1.390 . S
C405 H414 0.930 . S
C406 C402 1.391 . S
C406 C405 1.390 . S
C406 H415 0.930 . S
C407 Eu377 2.825 . S
C407 O392 1.238 . S
C407 O393 1.247 . S
C407 C401 1.507 . S
H408 C381 0.930 . S
H409 C382 0.931 . S
H410 C383 0.930 . S
H411 C384 0.930 . S
H412 C403 0.930 . S
H413 C404 0.931 . S
H414 C405 0.930 . S
H415 C406 0.930 . S
Tb416 C426 2.825 1_545 S
Tb416 O427 2.347 . S
Tb416 O430 2.366 . S
Tb416 O435 2.418 . S
Tb416 O436 2.384 . S
Tb416 O439 2.479 1_545 S
Tb416 O440 2.471 1_545 S
Eu417 O428 2.418 . S
Eu417 O429 2.384 . S
Eu417 O432 2.479 . S
Eu417 O433 2.471 . S
Eu417 O434 2.347 . S
Eu417 O437 2.366 . S
Eu417 C447 2.825 . S
C418 O434 1.259 . S
C418 O435 1.265 . S
C419 O436 1.255 . S
C419 O437 1.265 . S
C420 C422 1.380 . S
C420 C423 1.374 . S
C420 C426 1.507 . S
C421 C422 1.384 . S
C421 C425 1.387 . S
C421 H448 0.930 . S
C422 C420 1.380 . S
C422 C421 1.384 . S
C422 H449 0.931 . S
C423 C420 1.374 . S
C423 C424 1.390 . S
C423 H450 0.930 . S
C424 C423 1.390 . S
C424 C425 1.391 . S
C424 H451 0.930 . S
C425 C421 1.387 . S
C425 C424 1.391 . S
C426 Tb416 2.825 1_565 S
C426 C420 1.507 . S
C426 O439 1.238 . S
C426 O440 1.247 . S
O427 Tb416 2.347 . S
O427 C431 1.259 . S
O428 Eu417 2.418 . S
O428 C431 1.265 . S
O429 Eu417 2.384 . S
O429 C438 1.255 . S
O430 Tb416 2.366 . S
O430 C438 1.265 . S
C431 O427 1.259 . S
C431 O428 1.265 . S
O432 Eu417 2.479 . S
O432 C447 1.238 . S
O433 Eu417 2.471 . S
O433 C447 1.247 . S
O434 Eu417 2.347 . S
O434 C418 1.259 . S
O435 Tb416 2.418 . S
O435 C418 1.265 . S
O436 Tb416 2.384 . S
O436 C419 1.255 . S
O437 Eu417 2.366 . S
O437 C419 1.265 . S
C438 O429 1.255 . S
C438 O430 1.265 . S
O439 Tb416 2.479 1_565 S
O439 C426 1.238 . S
O440 Tb416 2.471 1_565 S
O440 C426 1.247 . S
C441 C444 1.380 . S
C441 C445 1.374 . S
C441 C447 1.507 . S
C442 C443 1.387 . S
C442 C446 1.391 . S
C443 C442 1.387 . S
C443 C444 1.384 . S
C443 H452 0.930 . S
C444 C441 1.380 . S
C444 C443 1.384 . S
C444 H453 0.931 . S
C445 C441 1.374 . S
C445 C446 1.390 . S
C445 H454 0.930 . S
C446 C442 1.391 . S
C446 C445 1.390 . S
C446 H455 0.930 . S
C447 Eu417 2.825 . S
C447 O432 1.238 . S
C447 O433 1.247 . S
C447 C441 1.507 . S
H448 C421 0.930 . S
H449 C422 0.931 . S
H450 C423 0.930 . S
H451 C424 0.930 . S
H452 C443 0.930 . S
H453 C444 0.931 . S
H454 C445 0.930 . S
H455 C446 0.930 . S
Tb456 C466 2.825 . S
Tb456 O467 2.347 . S
Tb456 O470 2.366 . S
Tb456 O475 2.418 . S
Tb456 O476 2.384 . S
Tb456 O479 2.479 . S
Tb456 O480 2.471 . S
Eu457 O468 2.418 . S
Eu457 O469 2.384 . S
Eu457 O472 2.479 . S
Eu457 O473 2.471 . S
Eu457 O474 2.347 . S
Eu457 O477 2.366 . S
Eu457 C487 2.825 . S
C458 O474 1.259 . S
C458 O475 1.265 . S
C459 O476 1.255 . S
C459 O477 1.265 . S
C460 C462 1.380 . S
C460 C463 1.374 . S
C460 C466 1.507 . S
C461 C462 1.384 . S
C461 C465 1.387 . S
C461 H488 0.930 . S
C462 C460 1.380 . S
C462 C461 1.384 . S
C462 H489 0.931 . S
C463 C460 1.374 . S
C463 C464 1.390 . S
C463 H490 0.930 . S
C464 C463 1.390 . S
C464 C465 1.391 . S
C464 H491 0.930 . S
C465 C461 1.387 . S
C465 C464 1.391 . S
C466 Tb456 2.825 . S
C466 C460 1.507 . S
C466 O479 1.238 . S
C466 O480 1.247 . S
O467 Tb456 2.347 . S
O467 C471 1.259 . S
O468 Eu457 2.418 . S
O468 C471 1.265 . S
O469 Eu457 2.384 . S
O469 C478 1.255 . S
O470 Tb456 2.366 . S
O470 C478 1.265 . S
C471 O467 1.259 . S
C471 O468 1.265 . S
O472 Eu457 2.479 . S
O472 C487 1.238 . S
O473 Eu457 2.471 . S
O473 C487 1.247 . S
O474 Eu457 2.347 . S
O474 C458 1.259 . S
O475 Tb456 2.418 . S
O475 C458 1.265 . S
O476 Tb456 2.384 . S
O476 C459 1.255 . S
O477 Eu457 2.366 . S
O477 C459 1.265 . S
C478 O469 1.255 . S
C478 O470 1.265 . S
O479 Tb456 2.479 . S
O479 C466 1.238 . S
O480 Tb456 2.471 . S
O480 C466 1.247 . S
C481 C484 1.380 . S
C481 C485 1.374 . S
C481 C487 1.507 . S
C482 C483 1.387 . S
C482 C486 1.391 . S
C483 C482 1.387 . S
C483 C484 1.384 . S
C483 H492 0.930 . S
C484 C481 1.380 . S
C484 C483 1.384 . S
C484 H493 0.931 . S
C485 C481 1.374 . S
C485 C486 1.390 . S
C485 H494 0.930 . S
C486 C482 1.391 . S
C486 C485 1.390 . S
C486 H495 0.930 . S
C487 Eu457 2.825 . S
C487 O472 1.238 . S
C487 O473 1.247 . S
C487 C481 1.507 . S
H488 C461 0.930 . S
H489 C462 0.931 . S
H490 C463 0.930 . S
H491 C464 0.930 . S
H492 C483 0.930 . S
H493 C484 0.931 . S
H494 C485 0.930 . S
H495 C486 0.930 . S
Tb496 C506 2.825 . S
Tb496 O507 2.347 . S
Tb496 O510 2.366 . S
Tb496 O515 2.418 . S
Tb496 O516 2.410 . S
Tb496 O519 2.479 . S
Tb496 O520 2.471 . S
Eu497 O508 2.418 . S
Eu497 O509 2.384 . S
Eu497 O512 2.479 . S
Eu497 O513 2.471 . S
Eu497 O514 2.347 . S
Eu497 O517 2.366 . S
Eu497 C527 2.825 . S
C498 O514 1.259 . S
C498 O515 1.265 . S
C499 O516 1.257 . S
C499 O517 1.265 . S
C500 C502 1.380 . S
C500 C503 1.374 1_455 S
C500 C506 1.507 . S
C501 C502 1.384 . S
C501 C505 1.387 1_455 S
C501 H528 0.930 . S
C502 C500 1.380 . S
C502 C501 1.384 . S
C502 H529 0.931 . S
C503 C500 1.374 1_655 S
C503 C504 1.390 . S
C503 H530 0.930 . S
C504 C503 1.390 . S
C504 C505 1.391 . S
C504 H531 0.930 . S
C505 C501 1.387 1_655 S
C505 C504 1.391 . S
C506 Tb496 2.825 . S
C506 C500 1.507 . S
C506 O519 1.238 . S
C506 O520 1.247 . S
O507 Tb496 2.347 . S
O507 C511 1.259 1_455 S
O508 Eu497 2.418 . S
O508 C511 1.265 1_455 S
O509 Eu497 2.384 . S
O509 C518 1.255 . S
O510 Tb496 2.366 . S
O510 C518 1.265 . S
C511 O507 1.259 1_655 S
C511 O508 1.265 1_655 S
O512 Eu497 2.479 . S
O512 C527 1.238 . S
O513 Eu497 2.471 . S
O513 C527 1.247 . S
O514 Eu497 2.347 . S
O514 C498 1.259 . S
O515 Tb496 2.418 . S
O515 C498 1.265 . S
O516 Tb496 2.410 . S
O516 C499 1.257 . S
O517 Eu497 2.366 . S
O517 C499 1.265 . S
C518 O509 1.255 . S
C518 O510 1.265 . S
O519 Tb496 2.479 . S
O519 C506 1.238 . S
O520 Tb496 2.471 . S
O520 C506 1.247 . S
C521 C524 1.380 . S
C521 C525 1.374 . S
C521 C527 1.507 . S
C522 C523 1.387 . S
C522 C526 1.391 . S
C523 C522 1.387 . S
C523 C524 1.384 . S
C523 H532 0.930 . S
C524 C521 1.380 . S
C524 C523 1.384 . S
C524 H533 0.931 . S
C525 C521 1.374 . S
C525 C526 1.390 . S
C525 H534 0.930 . S
C526 C522 1.391 . S
C526 C525 1.390 . S
C526 H535 0.930 . S
C527 Eu497 2.825 . S
C527 O512 1.238 . S
C527 O513 1.247 . S
C527 C521 1.507 . S
H528 C501 0.930 . S
H529 C502 0.931 . S
H530 C503 0.930 . S
H531 C504 0.930 . S
H532 C523 0.930 . S
H533 C524 0.931 . S
H534 C525 0.930 . S
H535 C526 0.930 . S
Tb536 C546 2.825 . S
Tb536 O547 2.347 . S
Tb536 O550 2.366 . S
Tb536 O555 2.418 . S
Tb536 O556 2.384 . S
Tb536 O559 2.479 . S
Tb536 O560 2.471 . S
Eu537 O548 2.418 . S
Eu537 O549 2.384 . S
Eu537 O552 2.479 . S
Eu537 O553 2.471 . S
Eu537 O554 2.347 . S
Eu537 O557 2.366 . S
Eu537 C567 2.825 . S
C538 O554 1.259 . S
C538 O555 1.265 . S
C539 O556 1.255 . S
C539 O557 1.265 . S
C540 C542 1.380 . S
C540 C543 1.374 . S
C540 C546 1.507 . S
C541 C542 1.384 . S
C541 C545 1.387 . S
C541 H568 0.930 . S
C542 C540 1.380 . S
C542 C541 1.384 . S
C542 H569 0.931 . S
C543 C540 1.374 . S
C543 C544 1.390 . S
C543 H570 0.930 . S
C544 C543 1.390 . S
C544 C545 1.391 . S
C544 H571 0.930 . S
C545 C541 1.387 . S
C545 C544 1.391 . S
C546 Tb536 2.825 . S
C546 C540 1.507 . S
C546 O559 1.238 . S
C546 O560 1.247 . S
O547 Tb536 2.347 . S
O547 C551 1.259 . S
O548 Eu537 2.418 . S
O548 C551 1.265 . S
O549 Eu537 2.384 . S
O549 C558 1.255 . S
O550 Tb536 2.366 . S
O550 C558 1.265 . S
C551 O547 1.259 . S
C551 O548 1.265 . S
O552 Eu537 2.479 . S
O552 C567 1.238 . S
O553 Eu537 2.471 . S
O553 C567 1.247 . S
O554 Eu537 2.347 . S
O554 C538 1.259 . S
O555 Tb536 2.418 . S
O555 C538 1.265 . S
O556 Tb536 2.384 . S
O556 C539 1.255 . S
O557 Eu537 2.366 . S
O557 C539 1.265 . S
C558 O549 1.255 . S
C558 O550 1.265 . S
O559 Tb536 2.479 . S
O559 C546 1.238 . S
O560 Tb536 2.471 . S
O560 C546 1.247 . S
C561 C564 1.380 . S
C561 C565 1.374 . S
C561 C567 1.507 . S
C562 C563 1.387 . S
C562 C566 1.391 . S
C563 C562 1.387 . S
C563 C564 1.384 . S
C563 H572 0.930 . S
C564 C561 1.380 . S
C564 C563 1.384 . S
C564 H573 0.931 . S
C565 C561 1.374 . S
C565 C566 1.390 . S
C565 H574 0.930 . S
C566 C562 1.391 . S
C566 C565 1.390 . S
C566 H575 0.930 . S
C567 Eu537 2.825 . S
C567 O552 1.238 . S
C567 O553 1.247 . S
C567 C561 1.507 . S
H568 C541 0.930 . S
H569 C542 0.931 . S
H570 C543 0.930 . S
H571 C544 0.930 . S
H572 C563 0.930 . S
H573 C564 0.931 . S
H574 C565 0.930 . S
H575 C566 0.930 . S
Tb576 C586 2.825 . S
Tb576 O587 2.347 . S
Tb576 O590 2.366 . S
Tb576 O595 2.422 . S
Tb576 O596 2.384 . S
Tb576 O599 2.479 . S
Tb576 O600 2.471 . S
Eu577 O588 2.418 1_556 S
Eu577 O589 2.384 1_556 S
Eu577 O592 2.479 . S
Eu577 O593 2.471 . S
Eu577 O594 2.347 1_556 S
Eu577 O597 2.366 . S
Eu577 C607 2.825 . S
C578 O594 1.281 . S
C578 O595 1.262 . S
C579 O596 1.255 . S
C579 O597 1.265 1_554 S
C580 C582 1.380 . S
C580 C583 1.374 . S
C580 C586 1.507 . S
C581 C582 1.384 . S
C581 C585 1.387 . S
C581 H608 0.930 1_545 S
C582 C580 1.380 . S
C582 C581 1.384 . S
C582 H609 0.931 . S
C583 C580 1.374 . S
C583 C584 1.390 . S
C583 H610 0.930 . S
C584 C583 1.390 . S
C584 C585 1.391 . S
C584 H611 0.930 . S
C585 C581 1.387 . S
C585 C584 1.391 . S
C586 Tb576 2.825 . S
C586 C580 1.507 . S
C586 O599 1.238 . S
C586 O600 1.247 . S
O587 Tb576 2.347 . S
O587 C591 1.259 . S
O588 Eu577 2.418 1_554 S
O588 C591 1.265 . S
O589 Eu577 2.384 1_554 S
O589 C598 1.255 . S
O590 Tb576 2.366 . S
O590 C598 1.265 . S
C591 O587 1.259 . S
C591 O588 1.265 . S
O592 Eu577 2.479 . S
O592 C607 1.238 . S
O593 Eu577 2.471 . S
O593 C607 1.247 . S
O594 Eu577 2.347 1_554 S
O594 C578 1.281 . S
O595 Tb576 2.422 . S
O595 C578 1.262 . S
O596 Tb576 2.384 . S
O596 C579 1.255 . S
O597 Eu577 2.366 . S
O597 C579 1.265 1_556 S
C598 O589 1.255 . S
C598 O590 1.265 . S
O599 Tb576 2.479 . S
O599 C586 1.238 . S
O600 Tb576 2.471 . S
O600 C586 1.247 . S
C601 C604 1.380 . S
C601 C605 1.374 . S
C601 C607 1.507 . S
C602 C603 1.387 . S
C602 C606 1.391 . S
C603 C602 1.387 . S
C603 C604 1.384 . S
C603 H612 0.930 . S
C604 C601 1.380 . S
C604 C603 1.384 . S
C604 H613 0.931 . S
C605 C601 1.374 . S
C605 C606 1.390 . S
C605 H614 0.930 . S
C606 C602 1.391 . S
C606 C605 1.390 . S
C606 H615 0.930 . S
C607 Eu577 2.825 . S
C607 O592 1.238 . S
C607 O593 1.247 . S
C607 C601 1.507 . S
H608 C581 0.930 1_565 S
H609 C582 0.931 . S
H610 C583 0.930 . S
H611 C584 0.930 . S
H612 C603 0.930 . S
H613 C604 0.931 . S
H614 C605 0.930 . S
H615 C606 0.930 . S
Tb616 C626 2.825 . S
Tb616 O627 2.347 . S
Tb616 O630 2.366 . S
Tb616 O635 2.418 . S
Tb616 O636 2.384 . S
Tb616 O639 2.479 . S
Tb616 O640 2.471 . S
Eu617 O628 2.418 . S
Eu617 O629 2.384 . S
Eu617 O632 2.479 . S
Eu617 O633 2.471 . S
Eu617 O634 2.347 . S
Eu617 O637 2.366 . S
Eu617 C647 2.825 . S
C618 O634 1.259 . S
C618 O635 1.265 . S
C619 O636 1.255 . S
C619 O637 1.265 . S
C620 C622 1.380 . S
C620 C623 1.374 . S
C620 C626 1.507 . S
C621 C622 1.384 . S
C621 C625 1.387 . S
C621 H648 0.930 . S
C622 C620 1.380 . S
C622 C621 1.384 . S
C622 H649 0.931 . S
C623 C620 1.374 . S
C623 C624 1.390 . S
C623 H650 0.930 . S
C624 C623 1.390 . S
C624 C625 1.391 . S
C624 H651 0.930 . S
C625 C621 1.387 . S
C625 C624 1.391 . S
C626 Tb616 2.825 . S
C626 C620 1.507 . S
C626 O639 1.238 . S
C626 O640 1.247 . S
O627 Tb616 2.347 . S
O627 C631 1.259 . S
O628 Eu617 2.418 . S
O628 C631 1.265 . S
O629 Eu617 2.384 . S
O629 C638 1.255 . S
O630 Tb616 2.366 . S
O630 C638 1.265 . S
C631 O627 1.259 . S
C631 O628 1.265 . S
O632 Eu617 2.479 . S
O632 C647 1.238 . S
O633 Eu617 2.471 . S
O633 C647 1.247 . S
O634 Eu617 2.347 . S
O634 C618 1.259 . S
O635 Tb616 2.418 . S
O635 C618 1.265 . S
O636 Tb616 2.384 . S
O636 C619 1.255 . S
O637 Eu617 2.366 . S
O637 C619 1.265 . S
C638 O629 1.255 . S
C638 O630 1.265 . S
O639 Tb616 2.479 . S
O639 C626 1.238 . S
O640 Tb616 2.471 . S
O640 C626 1.247 . S
C641 C644 1.380 . S
C641 C645 1.374 . S
C641 C647 1.507 . S
C642 C643 1.387 . S
C642 C646 1.391 . S
C643 C642 1.387 . S
C643 C644 1.384 . S
C643 H652 0.930 . S
C644 C641 1.380 . S
C644 C643 1.384 . S
C644 H653 0.931 . S
C645 C641 1.374 . S
C645 C646 1.390 . S
C645 H654 0.930 . S
C646 C642 1.391 . S
C646 C645 1.390 . S
C646 H655 0.930 . S
C647 Eu617 2.825 . S
C647 O632 1.238 . S
C647 O633 1.247 . S
C647 C641 1.507 . S
H648 C621 0.930 . S
H649 C622 0.931 . S
H650 C623 0.930 . S
H651 C624 0.930 . S
H652 C643 0.930 . S
H653 C644 0.931 . S
H654 C645 0.930 . S
H655 C646 0.930 . S
Tb656 C666 2.825 . S
Tb656 O667 2.347 1_556 S
Tb656 O670 2.366 . S
Tb656 O675 2.418 . S
Tb656 O676 2.384 1_556 S
Tb656 O679 2.479 . S
Tb656 O680 2.471 . S
Eu657 O668 2.418 . S
Eu657 O669 2.384 . S
Eu657 O672 2.479 . S
Eu657 O673 2.471 . S
Eu657 O674 2.347 . S
Eu657 O677 2.366 . S
Eu657 C687 2.825 . S
C658 O674 1.259 . S
C658 O675 1.265 1_554 S
C659 O676 1.255 . S
C659 O677 1.265 . S
C660 C662 1.380 . S
C660 C663 1.374 . S
C660 C666 1.507 . S
C661 C662 1.384 . S
C661 C665 1.387 . S
C661 H688 0.930 . S
C662 C660 1.380 . S
C662 C661 1.384 . S
C662 H689 0.931 . S
C663 C660 1.374 . S
C663 C664 1.390 . S
C663 H690 0.930 . S
C664 C663 1.390 . S
C664 C665 1.391 . S
C664 H691 0.930 . S
C665 C661 1.387 . S
C665 C664 1.391 . S
C666 Tb656 2.825 . S
C666 C660 1.507 . S
C666 O679 1.238 . S
C666 O680 1.247 . S
O667 Tb656 2.347 1_554 S
O667 C671 1.259 . S
O668 Eu657 2.418 . S
O668 C671 1.265 . S
O669 Eu657 2.384 . S
O669 C678 1.255 1_554 S
O670 Tb656 2.366 . S
O670 C678 1.265 . S
C671 O667 1.259 . S
C671 O668 1.265 . S
O672 Eu657 2.479 . S
O672 C687 1.238 . S
O673 Eu657 2.471 . S
O673 C687 1.247 . S
O674 Eu657 2.347 . S
O674 C658 1.259 . S
O675 Tb656 2.418 . S
O675 C658 1.265 1_556 S
O676 Tb656 2.384 1_554 S
O676 C659 1.255 . S
O677 Eu657 2.366 . S
O677 C659 1.265 . S
C678 O669 1.255 1_556 S
C678 O670 1.265 . S
O679 Tb656 2.479 . S
O679 C666 1.238 . S
O680 Tb656 2.471 . S
O680 C666 1.247 . S
C681 C684 1.380 . S
C681 C685 1.374 . S
C681 C687 1.507 . S
C682 C683 1.387 . S
C682 C686 1.391 . S
C683 C682 1.387 . S
C683 C684 1.384 . S
C683 H692 0.930 . S
C684 C681 1.380 . S
C684 C683 1.384 . S
C684 H693 0.931 . S
C685 C681 1.374 . S
C685 C686 1.390 . S
C685 H694 0.930 . S
C686 C682 1.391 . S
C686 C685 1.390 . S
C686 H695 0.930 . S
C687 Eu657 2.825 . S
C687 O672 1.238 . S
C687 O673 1.247 . S
C687 C681 1.507 . S
H688 C661 0.930 . S
H689 C662 0.931 . S
H690 C663 0.930 . S
H691 C664 0.930 . S
H692 C683 0.930 . S
H693 C684 0.931 . S
H694 C685 0.930 . S
H695 C686 0.930 . S
Tb696 C706 2.825 . S
Tb696 O707 2.347 . S
Tb696 O710 2.366 . S
Tb696 O715 2.418 . S
Tb696 O716 2.384 . S
Tb696 O719 2.479 . S
Tb696 O720 2.471 . S
Eu697 O708 2.418 . S
Eu697 O709 2.384 . S
Eu697 O712 2.479 . S
Eu697 O713 2.471 . S
Eu697 O714 2.347 . S
Eu697 O717 2.366 . S
Eu697 C727 2.825 . S
C698 O714 1.259 . S
C698 O715 1.265 . S
C699 O716 1.255 . S
C699 O717 1.265 . S
C700 C702 1.380 . S
C700 C703 1.374 . S
C700 C706 1.507 . S
C701 C702 1.384 . S
C701 C705 1.387 . S
C701 H728 0.930 . S
C702 C700 1.380 . S
C702 C701 1.384 . S
C702 H729 0.931 . S
C703 C700 1.374 . S
C703 C704 1.390 . S
C703 H730 0.930 . S
C704 C703 1.390 . S
C704 C705 1.391 . S
C704 H731 0.930 . S
C705 C701 1.387 . S
C705 C704 1.391 . S
C706 Tb696 2.825 . S
C706 C700 1.507 . S
C706 O719 1.238 . S
C706 O720 1.247 . S
O707 Tb696 2.347 . S
O707 C711 1.259 . S
O708 Eu697 2.418 . S
O708 C711 1.265 . S
O709 Eu697 2.384 . S
O709 C718 1.255 . S
O710 Tb696 2.366 . S
O710 C718 1.265 . S
C711 O707 1.259 . S
C711 O708 1.265 . S
O712 Eu697 2.479 . S
O712 C727 1.238 . S
O713 Eu697 2.471 . S
O713 C727 1.247 . S
O714 Eu697 2.347 . S
O714 C698 1.259 . S
O715 Tb696 2.418 . S
O715 C698 1.265 . S
O716 Tb696 2.384 . S
O716 C699 1.255 . S
O717 Eu697 2.366 . S
O717 C699 1.265 . S
C718 O709 1.255 . S
C718 O710 1.265 . S
O719 Tb696 2.479 . S
O719 C706 1.238 . S
O720 Tb696 2.471 . S
O720 C706 1.247 . S
C721 C724 1.380 . S
C721 C725 1.374 . S
C721 C727 1.507 . S
C722 C723 1.387 . S
C722 C726 1.391 . S
C723 C722 1.387 . S
C723 C724 1.384 . S
C723 H732 0.930 . S
C724 C721 1.380 . S
C724 C723 1.384 . S
C724 H733 0.931 . S
C725 C721 1.374 . S
C725 C726 1.390 . S
C725 H734 0.930 . S
C726 C722 1.391 . S
C726 C725 1.390 . S
C726 H735 0.930 . S
C727 Eu697 2.825 . S
C727 O712 1.238 . S
C727 O713 1.247 . S
C727 C721 1.507 . S
H728 C701 0.930 . S
H729 C702 0.931 . S
H730 C703 0.930 . S
H731 C704 0.930 . S
H732 C723 0.930 . S
H733 C724 0.931 . S
H734 C725 0.930 . S
H735 C726 0.930 . S
Tb736 C746 2.825 . S
Tb736 O747 2.347 . S
Tb736 O750 2.366 . S
Tb736 O755 2.418 . S
Tb736 O756 2.384 . S
Tb736 O759 2.479 . S
Tb736 O760 2.471 . S
Eu737 O748 2.418 . S
Eu737 O749 2.384 1_455 S
Eu737 O752 2.479 . S
Eu737 O753 2.471 . S
Eu737 O754 2.347 . S
Eu737 O757 2.366 . S
Eu737 C767 2.825 . S
C738 O754 1.259 . S
C738 O755 1.265 . S
C739 O756 1.255 . S
C739 O757 1.265 . S
C740 C742 1.380 . S
C740 C743 1.374 . S
C740 C746 1.507 . S
C741 C742 1.384 . S
C741 C745 1.387 . S
C741 H768 0.930 . S
C742 C740 1.380 . S
C742 C741 1.384 . S
C742 H769 0.931 . S
C743 C740 1.374 . S
C743 C744 1.390 . S
C743 H770 0.930 . S
C744 C743 1.390 . S
C744 C745 1.391 . S
C744 H771 0.930 1_455 S
C745 C741 1.387 . S
C745 C744 1.391 . S
C746 Tb736 2.825 . S
C746 C740 1.507 . S
C746 O759 1.238 . S
C746 O760 1.247 . S
O747 Tb736 2.347 . S
O747 C751 1.259 . S
O748 Eu737 2.418 . S
O748 C751 1.265 . S
O749 Eu737 2.384 1_655 S
O749 C758 1.255 . S
O750 Tb736 2.366 . S
O750 C758 1.265 1_455 S
C751 O747 1.259 . S
C751 O748 1.265 . S
O752 Eu737 2.479 . S
O752 C767 1.238 . S
O753 Eu737 2.471 . S
O753 C767 1.247 . S
O754 Eu737 2.347 . S
O754 C738 1.259 . S
O755 Tb736 2.418 . S
O755 C738 1.265 . S
O756 Tb736 2.384 . S
O756 C739 1.255 . S
O757 Eu737 2.366 . S
O757 C739 1.265 . S
C758 O749 1.255 . S
C758 O750 1.265 1_655 S
O759 Tb736 2.479 . S
O759 C746 1.238 . S
O760 Tb736 2.471 . S
O760 C746 1.247 . S
C761 C764 1.380 . S
C761 C765 1.374 . S
C761 C767 1.507 . S
C762 C763 1.387 . S
C762 C766 1.391 . S
C763 C762 1.387 . S
C763 C764 1.384 . S
C763 H772 0.930 . S
C764 C761 1.380 . S
C764 C763 1.384 . S
C764 H773 0.931 . S
C765 C761 1.374 . S
C765 C766 1.390 . S
C765 H774 0.930 . S
C766 C762 1.391 . S
C766 C765 1.390 . S
C766 H775 0.930 . S
C767 Eu737 2.825 . S
C767 O752 1.238 . S
C767 O753 1.247 . S
C767 C761 1.507 . S
H768 C741 0.930 . S
H769 C742 0.931 . S
H770 C743 0.930 . S
H771 C744 0.930 1_655 S
H772 C763 0.930 . S
H773 C764 0.931 . S
H774 C765 0.930 . S
H775 C766 0.930 . S
Tb776 C786 2.825 . S
Tb776 O787 2.347 . S
Tb776 O790 2.366 . S
Tb776 O795 2.418 . S
Tb776 O796 2.384 . S
Tb776 O799 2.479 . S
Tb776 O800 2.471 . S
Eu777 O788 2.418 . S
Eu777 O789 2.384 . S
Eu777 O792 2.479 . S
Eu777 O793 2.471 . S
Eu777 O794 2.347 . S
Eu777 O797 2.366 . S
Eu777 C807 2.825 . S
C778 O794 1.259 . S
C778 O795 1.265 . S
C779 O796 1.255 . S
C779 O797 1.265 . S
C780 C782 1.380 . S
C780 C783 1.374 . S
C780 C786 1.507 . S
C781 C782 1.384 . S
C781 C785 1.387 . S
C781 H808 0.930 . S
C782 C780 1.380 . S
C782 C781 1.384 . S
C782 H809 0.931 . S
C783 C780 1.374 . S
C783 C784 1.390 . S
C783 H810 0.930 . S
C784 C783 1.390 . S
C784 C785 1.391 . S
C784 H811 0.930 . S
C785 C781 1.387 . S
C785 C784 1.391 . S
C786 Tb776 2.825 . S
C786 C780 1.507 . S
C786 O799 1.238 . S
C786 O800 1.247 . S
O787 Tb776 2.347 . S
O787 C791 1.259 . S
O788 Eu777 2.418 . S
O788 C791 1.265 . S
O789 Eu777 2.384 . S
O789 C798 1.255 . S
O790 Tb776 2.366 . S
O790 C798 1.265 . S
C791 O787 1.259 . S
C791 O788 1.265 . S
O792 Eu777 2.479 . S
O792 C807 1.238 . S
O793 Eu777 2.471 . S
O793 C807 1.247 . S
O794 Eu777 2.347 . S
O794 C778 1.259 . S
O795 Tb776 2.418 . S
O795 C778 1.265 . S
O796 Tb776 2.384 . S
O796 C779 1.255 . S
O797 Eu777 2.366 . S
O797 C779 1.265 . S
C798 O789 1.255 . S
C798 O790 1.265 . S
O799 Tb776 2.479 . S
O799 C786 1.238 . S
O800 Tb776 2.471 . S
O800 C786 1.247 . S
C801 C804 1.380 . S
C801 C805 1.374 . S
C801 C807 1.507 . S
C802 C803 1.387 . S
C802 C806 1.391 . S
C803 C802 1.387 . S
C803 C804 1.384 . S
C803 H812 0.930 . S
C804 C801 1.380 . S
C804 C803 1.384 . S
C804 H813 0.931 . S
C805 C801 1.374 . S
C805 C806 1.390 . S
C805 H814 0.930 . S
C806 C802 1.391 . S
C806 C805 1.390 . S
C806 H815 0.930 . S
C807 Eu777 2.825 . S
C807 O792 1.238 . S
C807 O793 1.247 . S
C807 C801 1.507 . S
H808 C781 0.930 . S
H809 C782 0.931 . S
H810 C783 0.930 . S
H811 C784 0.930 . S
H812 C803 0.930 . S
H813 C804 0.931 . S
H814 C805 0.930 . S
H815 C806 0.930 . S
Tb816 C826 2.825 . S
Tb816 O827 2.347 . S
Tb816 O830 2.366 . S
Tb816 O835 2.418 . S
Tb816 O836 2.384 . S
Tb816 O839 2.479 . S
Tb816 O840 2.471 . S
Eu817 O828 2.418 . S
Eu817 O829 2.384 . S
Eu817 O832 2.479 . S
Eu817 O833 2.471 . S
Eu817 O834 2.347 . S
Eu817 O837 2.366 . S
Eu817 C847 2.825 . S
C818 O834 1.259 . S
C818 O835 1.265 . S
C819 O836 1.255 . S
C819 O837 1.265 . S
C820 C822 1.380 . S
C820 C823 1.374 . S
C820 C826 1.507 . S
C821 C822 1.384 . S
C821 C825 1.387 . S
C821 H848 0.930 . S
C822 C820 1.380 . S
C822 C821 1.384 . S
C822 H849 0.931 . S
C823 C820 1.374 . S
C823 C824 1.390 . S
C823 H850 0.930 . S
C824 C823 1.390 . S
C824 C825 1.391 . S
C824 H851 0.930 . S
C825 C821 1.387 . S
C825 C824 1.391 . S
C826 Tb816 2.825 . S
C826 C820 1.507 . S
C826 O839 1.238 . S
C826 O840 1.247 . S
O827 Tb816 2.347 . S
O827 C831 1.259 . S
O828 Eu817 2.418 . S
O828 C831 1.265 . S
O829 Eu817 2.384 . S
O829 C838 1.255 . S
O830 Tb816 2.366 . S
O830 C838 1.265 . S
C831 O827 1.259 . S
C831 O828 1.265 . S
O832 Eu817 2.479 . S
O832 C847 1.238 . S
O833 Eu817 2.471 . S
O833 C847 1.247 . S
O834 Eu817 2.347 . S
O834 C818 1.259 . S
O835 Tb816 2.418 . S
O835 C818 1.265 . S
O836 Tb816 2.384 . S
O836 C819 1.255 . S
O837 Eu817 2.366 . S
O837 C819 1.265 . S
C838 O829 1.255 . S
C838 O830 1.265 . S
O839 Tb816 2.479 . S
O839 C826 1.238 . S
O840 Tb816 2.471 . S
O840 C826 1.247 . S
C841 C844 1.380 . S
C841 C845 1.374 . S
C841 C847 1.507 . S
C842 C843 1.387 . S
C842 C846 1.391 . S
C843 C842 1.387 . S
C843 C844 1.384 . S
C843 H852 0.930 . S
C844 C841 1.380 . S
C844 C843 1.384 . S
C844 H853 0.931 . S
C845 C841 1.374 . S
C845 C846 1.390 . S
C845 H854 0.930 . S
C846 C842 1.391 . S
C846 C845 1.390 . S
C846 H855 0.930 . S
C847 Eu817 2.825 . S
C847 O832 1.238 . S
C847 O833 1.247 . S
C847 C841 1.507 . S
H848 C821 0.930 . S
H849 C822 0.931 . S
H850 C823 0.930 . S
H851 C824 0.930 . S
H852 C843 0.930 . S
H853 C844 0.931 . S
H854 C845 0.930 . S
H855 C846 0.930 . S
Tb856 C866 2.825 . S
Tb856 O867 2.347 . S
Tb856 O870 2.366 . S
Tb856 O875 2.418 . S
Tb856 O876 2.384 . S
Tb856 O879 2.479 . S
Tb856 O880 2.471 . S
Eu857 O868 2.418 . S
Eu857 O869 2.384 . S
Eu857 O872 2.479 . S
Eu857 O873 2.471 . S
Eu857 O874 2.347 . S
Eu857 O877 2.366 . S
Eu857 C887 2.825 . S
C858 O874 1.259 . S
C858 O875 1.265 . S
C859 O876 1.255 . S
C859 O877 1.265 . S
C860 C862 1.380 . S
C860 C863 1.374 . S
C860 C866 1.507 . S
C861 C862 1.384 . S
C861 C865 1.387 . S
C861 H888 0.930 . S
C862 C860 1.380 . S
C862 C861 1.384 . S
C862 H889 0.931 . S
C863 C860 1.374 . S
C863 C864 1.390 . S
C863 H890 0.930 . S
C864 C863 1.390 . S
C864 C865 1.391 . S
C864 H891 0.930 . S
C865 C861 1.387 . S
C865 C864 1.391 . S
C866 Tb856 2.825 . S
C866 C860 1.507 . S
C866 O879 1.238 . S
C866 O880 1.247 . S
O867 Tb856 2.347 . S
O867 C871 1.259 . S
O868 Eu857 2.418 . S
O868 C871 1.265 . S
O869 Eu857 2.384 . S
O869 C878 1.255 . S
O870 Tb856 2.366 . S
O870 C878 1.265 . S
C871 O867 1.259 . S
C871 O868 1.265 . S
O872 Eu857 2.479 . S
O872 C887 1.238 . S
O873 Eu857 2.471 . S
O873 C887 1.247 . S
O874 Eu857 2.347 . S
O874 C858 1.259 . S
O875 Tb856 2.418 . S
O875 C858 1.265 . S
O876 Tb856 2.384 . S
O876 C859 1.255 . S
O877 Eu857 2.366 . S
O877 C859 1.265 . S
C878 O869 1.255 . S
C878 O870 1.265 . S
O879 Tb856 2.479 . S
O879 C866 1.238 . S
O880 Tb856 2.471 . S
O880 C866 1.247 . S
C881 C884 1.380 . S
C881 C885 1.374 . S
C881 C887 1.507 . S
C882 C883 1.387 . S
C882 C886 1.391 . S
C883 C882 1.387 . S
C883 C884 1.384 . S
C883 H892 0.930 . S
C884 C881 1.380 . S
C884 C883 1.384 . S
C884 H893 0.931 . S
C885 C881 1.374 . S
C885 C886 1.390 . S
C885 H894 0.930 . S
C886 C882 1.391 . S
C886 C885 1.390 . S
C886 H895 0.930 . S
C887 Eu857 2.825 . S
C887 O872 1.238 . S
C887 O873 1.247 . S
C887 C881 1.507 . S
H888 C861 0.930 . S
H889 C862 0.931 . S
H890 C863 0.930 . S
H891 C864 0.930 . S
H892 C883 0.930 . S
H893 C884 0.931 . S
H894 C885 0.930 . S
H895 C886 0.930 . S
Tb896 C906 2.825 . S
Tb896 O907 2.347 . S
Tb896 O910 2.366 . S
Tb896 O915 2.418 . S
Tb896 O916 2.384 . S
Tb896 O919 2.479 . S
Tb896 O920 2.471 . S
Eu897 O908 2.418 . S
Eu897 O909 2.384 . S
Eu897 O912 2.479 . S
Eu897 O913 2.471 . S
Eu897 O914 2.347 . S
Eu897 O917 2.366 . S
Eu897 C927 2.825 . S
C898 O914 1.259 . S
C898 O915 1.265 . S
C899 O916 1.255 . S
C899 O917 1.265 . S
C900 C902 1.380 . S
C900 C903 1.374 . S
C900 C906 1.507 . S
C901 C902 1.384 . S
C901 C905 1.387 . S
C901 H928 0.930 . S
C902 C900 1.380 . S
C902 C901 1.384 . S
C902 H929 0.931 . S
C903 C900 1.374 . S
C903 C904 1.390 . S
C903 H930 0.930 . S
C904 C903 1.390 . S
C904 C905 1.391 . S
C904 H931 0.930 . S
C905 C901 1.387 . S
C905 C904 1.391 . S
C906 Tb896 2.825 . S
C906 C900 1.507 . S
C906 O919 1.238 . S
C906 O920 1.247 . S
O907 Tb896 2.347 . S
O907 C911 1.259 . S
O908 Eu897 2.418 . S
O908 C911 1.265 . S
O909 Eu897 2.384 . S
O909 C918 1.255 . S
O910 Tb896 2.366 . S
O910 C918 1.265 . S
C911 O907 1.259 . S
C911 O908 1.265 . S
O912 Eu897 2.479 . S
O912 C927 1.238 . S
O913 Eu897 2.471 . S
O913 C927 1.247 . S
O914 Eu897 2.347 . S
O914 C898 1.259 . S
O915 Tb896 2.418 . S
O915 C898 1.265 . S
O916 Tb896 2.384 . S
O916 C899 1.255 . S
O917 Eu897 2.366 . S
O917 C899 1.265 . S
C918 O909 1.255 . S
C918 O910 1.265 . S
O919 Tb896 2.479 . S
O919 C906 1.238 . S
O920 Tb896 2.471 . S
O920 C906 1.247 . S
C921 C924 1.380 . S
C921 C925 1.374 . S
C921 C927 1.507 . S
C922 C923 1.387 . S
C922 C926 1.391 . S
C923 C922 1.387 . S
C923 C924 1.384 . S
C923 H932 0.930 . S
C924 C921 1.380 . S
C924 C923 1.384 . S
C924 H933 0.931 . S
C925 C921 1.374 . S
C925 C926 1.390 . S
C925 H934 0.930 . S
C926 C922 1.391 . S
C926 C925 1.390 . S
C926 H935 0.930 . S
C927 Eu897 2.825 . S
C927 O912 1.238 . S
C927 O913 1.247 . S
C927 C921 1.507 . S
H928 C901 0.930 . S
H929 C902 0.931 . S
H930 C903 0.930 . S
H931 C904 0.930 . S
H932 C923 0.930 . S
H933 C924 0.931 . S
H934 C925 0.930 . S
H935 C926 0.930 . S
Tb936 C946 2.825 1_554 S
Tb936 O947 2.347 1_554 S
Tb936 O950 2.366 . S
Tb936 O955 2.418 . S
Tb936 O956 2.384 . S
Tb936 O959 2.479 . S
Tb936 O960 2.471 1_554 S
Eu937 O948 2.418 1_554 S
Eu937 O949 2.384 . S
Eu937 O952 2.479 . S
Eu937 O953 2.471 . S
Eu937 O954 2.347 . S
Eu937 O957 2.366 . S
Eu937 C967 2.825 . S
C938 O954 1.259 . S
C938 O955 1.265 . S
C939 O956 1.255 . S
C939 O957 1.265 . S
C940 C942 1.388 . S
C940 C943 1.374 . S
C940 C946 1.507 . S
C941 C942 1.390 . S
C941 C945 1.387 . S
C941 H968 0.930 . S
C942 C940 1.388 . S
C942 C941 1.390 . S
C942 H969 0.917 1_556 S
C943 C940 1.374 . S
C943 C944 1.390 . S
C943 H970 0.930 . S
C944 C943 1.390 . S
C944 C945 1.391 . S
C944 H971 0.930 . S
C945 C941 1.387 . S
C945 C944 1.391 . S
C946 Tb936 2.825 1_556 S
C946 C940 1.507 . S
C946 O959 1.238 1_556 S
C946 O960 1.247 . S
O947 Tb936 2.347 1_556 S
O947 C951 1.259 . S
O948 Eu937 2.418 1_556 S
O948 C951 1.265 . S
O949 Eu937 2.384 . S
O949 C958 1.255 . S
O950 Tb936 2.366 . S
O950 C958 1.265 . S
C951 O947 1.259 . S
C951 O948 1.265 . S
O952 Eu937 2.479 . S
O952 C967 1.238 . S
O953 Eu937 2.471 . S
O953 C967 1.247 . S
O954 Eu937 2.347 . S
O954 C938 1.259 . S
O955 Tb936 2.418 . S
O955 C938 1.265 . S
O956 Tb936 2.384 . S
O956 C939 1.255 . S
O957 Eu937 2.366 . S
O957 C939 1.265 . S
C958 O949 1.255 . S
C958 O950 1.265 . S
O959 Tb936 2.479 . S
O959 C946 1.238 1_554 S
O960 Tb936 2.471 1_556 S
O960 C946 1.247 . S
C961 C964 1.380 . S
C961 C965 1.374 . S
C961 C967 1.507 . S
C962 C963 1.387 . S
C962 C966 1.391 . S
C963 C962 1.387 . S
C963 C964 1.384 . S
C963 H972 0.930 . S
C964 C961 1.380 . S
C964 C963 1.384 . S
C964 H973 0.931 . S
C965 C961 1.374 . S
C965 C966 1.390 . S
C965 H974 0.930 . S
C966 C962 1.391 . S
C966 C965 1.390 . S
C966 H975 0.930 . S
C967 Eu937 2.825 . S
C967 O952 1.238 . S
C967 O953 1.247 . S
C967 C961 1.507 . S
H968 C941 0.930 . S
H969 C942 0.917 1_554 S
H970 C943 0.930 . S
H971 C944 0.930 . S
H972 C963 0.930 . S
H973 C964 0.931 . S
H974 C965 0.930 . S
H975 C966 0.930 . S
C976 C977 1.387 . S
C976 H980 0.950 . S
C976 C985 1.390 . S
C977 C976 1.387 . S
C977 C979 1.387 1_455 S
H978 C985 0.950 . S
C979 C977 1.387 1_655 S
C979 C981 1.390 1_655 S
C979 H983 0.950 . S
H980 C976 0.950 . S
C981 C979 1.390 1_455 S
C981 C982 1.391 . S
C981 H984 0.950 1_455 S
C982 C981 1.391 . S
C982 C985 1.393 . S
H983 C979 0.950 . S
H984 C981 0.950 1_655 S
C985 C976 1.390 . S
C985 H978 0.950 . S
C985 C982 1.393 . S
C986 C987 1.387 . S
C986 H990 0.950 . S
C986 C995 1.390 . S
C987 C986 1.387 . S
C987 C989 1.387 . S
H988 C995 0.950 . S
C989 C987 1.387 . S
C989 C991 1.390 . S
C989 H993 0.950 . S
H990 C986 0.950 . S
C991 C989 1.390 . S
C991 C992 1.387 . S
C991 H994 0.950 . S
C992 C991 1.387 . S
C992 C995 1.387 . S
H993 C989 0.950 . S
H994 C991 0.950 . S
C995 C986 1.390 . S
C995 H988 0.950 . S
C995 C992 1.387 . S
C996 C997 1.387 . S
C996 H1000 0.950 . S
C996 C1005 1.390 . S
C997 C996 1.387 . S
C997 C999 1.387 . S
H998 C1005 0.950 . S
C999 C997 1.387 . S
C999 C1001 1.390 . S
C999 H1003 0.950 . S
H1000 C996 0.950 . S
C1001 C999 1.390 . S
C1001 C1002 1.387 . S
C1001 H1004 0.950 . S
C1002 C1001 1.387 . S
C1002 C1005 1.387 . S
H1003 C999 0.950 . S
H1004 C1001 0.950 . S
C1005 C996 1.390 . S
C1005 H998 0.950 . S
C1005 C1002 1.387 . S
C1006 C1007 1.387 . S
C1006 H1010 0.950 . S
C1006 C1015 1.390 . S
C1007 C1006 1.387 . S
C1007 C1009 1.387 . S
H1008 C1015 0.950 . S
C1009 C1007 1.387 . S
C1009 C1011 1.390 . S
C1009 H1013 0.950 . S
H1010 C1006 0.950 . S
C1011 C1009 1.390 . S
C1011 C1012 1.387 . S
C1011 H1014 0.950 . S
C1012 C1011 1.387 . S
C1012 C1015 1.387 . S
H1013 C1009 0.950 . S
H1014 C1011 0.950 . S
C1015 C1006 1.390 . S
C1015 H1008 0.950 . S
C1015 C1012 1.387 . S
C1016 C1017 1.387 . S
C1016 H1020 0.950 . S
C1016 C1025 1.390 . S
C1017 C1016 1.387 . S
C1017 C1019 1.387 . S
H1018 C1025 0.950 . S
C1019 C1017 1.387 . S
C1019 C1021 1.390 . S
C1019 H1023 0.950 . S
H1020 C1016 0.950 . S
C1021 C1019 1.390 . S
C1021 C1022 1.387 . S
C1021 H1024 0.950 . S
C1022 C1021 1.387 . S
C1022 C1025 1.387 . S
H1023 C1019 0.950 . S
H1024 C1021 0.950 . S
C1025 C1016 1.390 . S
C1025 H1018 0.950 . S
C1025 C1022 1.387 . S
C1026 C1027 1.387 . S
C1026 H1030 0.950 . S
C1026 C1035 1.390 . S
C1027 C1026 1.387 . S
C1027 C1029 1.387 . S
H1028 C1035 0.950 . S
C1029 C1027 1.387 . S
C1029 C1031 1.390 . S
C1029 H1033 0.950 . S
H1030 C1026 0.950 . S
C1031 C1029 1.390 . S
C1031 C1032 1.387 . S
C1031 H1034 0.950 . S
C1032 C1031 1.387 . S
C1032 C1035 1.387 . S
H1033 C1029 0.950 . S
H1034 C1031 0.950 . S
C1035 C1026 1.390 . S
C1035 H1028 0.950 . S
C1035 C1032 1.387 . S
C1036 C1037 1.387 . S
C1036 H1040 0.950 . S
C1036 C1045 1.390 . S
C1037 C1036 1.387 . S
C1037 C1039 1.387 . S
H1038 C1045 0.950 . S
C1039 C1037 1.387 . S
C1039 C1041 1.390 . S
C1039 H1043 0.950 . S
H1040 C1036 0.950 . S
C1041 C1039 1.390 . S
C1041 C1042 1.387 . S
C1041 H1044 0.950 . S
C1042 C1041 1.387 . S
C1042 C1045 1.387 . S
H1043 C1039 0.950 . S
H1044 C1041 0.950 . S
C1045 C1036 1.390 . S
C1045 H1038 0.950 . S
C1045 C1042 1.387 . S
C1046 C1047 1.387 . S
C1046 H1050 0.950 . S
C1046 C1055 1.390 . S
C1047 C1046 1.387 . S
C1047 C1049 1.387 . S
H1048 C1055 0.950 . S
C1049 C1047 1.387 . S
C1049 C1051 1.390 . S
C1049 H1053 0.950 . S
H1050 C1046 0.950 . S
C1051 C1049 1.390 . S
C1051 C1052 1.387 . S
C1051 H1054 0.950 . S
C1052 C1051 1.387 . S
C1052 C1055 1.387 . S
H1053 C1049 0.950 . S
H1054 C1051 0.950 . S
C1055 C1046 1.390 . S
C1055 H1048 0.950 . S
C1055 C1052 1.387 . S
C1056 C1057 1.387 . S
C1056 H1060 0.950 1_545 S
C1056 C1065 1.390 . S
C1057 C1056 1.387 . S
C1057 C1059 1.387 . S
H1058 C1065 0.950 . S
C1059 C1057 1.387 . S
C1059 C1061 1.390 . S
C1059 H1063 0.950 . S
H1060 C1056 0.950 1_565 S
C1061 C1059 1.390 . S
C1061 C1062 1.387 1_655 S
C1061 H1064 0.950 1_655 S
C1062 C1061 1.387 1_455 S
C1062 C1065 1.387 1_455 S
H1063 C1059 0.950 . S
H1064 C1061 0.950 1_455 S
C1065 C1056 1.390 . S
C1065 H1058 0.950 . S
C1065 C1062 1.387 1_655 S
C1066 C1067 1.387 . S
C1066 H1070 0.950 . S
C1066 C1075 1.390 . S
C1067 C1066 1.387 . S
C1067 C1069 1.387 . S
H1068 C1075 0.950 . S
C1069 C1067 1.387 . S
C1069 C1071 1.390 . S
C1069 H1073 0.950 . S
H1070 C1066 0.950 . S
C1071 C1069 1.390 . S
C1071 C1072 1.387 . S
C1071 H1074 0.950 . S
C1072 C1071 1.387 . S
C1072 C1075 1.387 . S
H1073 C1069 0.950 . S
H1074 C1071 0.950 . S
C1075 C1066 1.390 . S
C1075 H1068 0.950 . S
C1075 C1072 1.387 . S
C1076 C1077 1.387 1_565 S
C1076 H1080 0.950 . S
C1076 C1085 1.390 1_565 S
C1077 C1076 1.387 1_545 S
C1077 C1079 1.387 . S
H1078 C1085 0.950 . S
C1079 C1077 1.387 . S
C1079 C1081 1.390 . S
C1079 H1083 0.950 . S
H1080 C1076 0.950 . S
C1081 C1079 1.390 . S
C1081 C1082 1.387 . S
C1081 H1084 0.950 . S
C1082 C1081 1.387 . S
C1082 C1085 1.387 . S
H1083 C1079 0.950 . S
H1084 C1081 0.950 . S
C1085 C1076 1.390 1_545 S
C1085 H1078 0.950 . S
C1085 C1082 1.387 . S
C1086 C1087 1.387 . S
C1086 H1090 0.950 . S
C1086 C1095 1.390 . S
C1087 C1086 1.387 . S
C1087 C1089 1.387 . S
H1088 C1095 0.950 . S
C1089 C1087 1.387 . S
C1089 C1091 1.390 . S
C1089 H1093 0.950 . S
H1090 C1086 0.950 . S
C1091 C1089 1.390 . S
C1091 C1092 1.387 . S
C1091 H1094 0.950 . S
C1092 C1091 1.387 . S
C1092 C1095 1.387 . S
H1093 C1089 0.950 . S
H1094 C1091 0.950 . S
C1095 C1086 1.390 . S
C1095 H1088 0.950 . S
C1095 C1092 1.387 . S
C1096 C1097 1.387 . S
C1096 H1100 0.950 1_545 S
C1096 C1105 1.390 . S
C1097 C1096 1.387 . S
C1097 C1099 1.387 . S
H1098 C1105 0.950 . S
C1099 C1097 1.387 . S
C1099 C1101 1.390 . S
C1099 H1103 0.950 . S
H1100 C1096 0.950 1_565 S
C1101 C1099 1.390 . S
C1101 C1102 1.387 . S
C1101 H1104 0.950 . S
C1102 C1101 1.387 . S
C1102 C1105 1.387 . S
H1103 C1099 0.950 . S
H1104 C1101 0.950 . S
C1105 C1096 1.390 . S
C1105 H1098 0.950 . S
C1105 C1102 1.387 . S
C1106 C1107 1.387 . S
C1106 H1110 0.950 . S
C1106 C1115 1.390 . S
C1107 C1106 1.387 . S
C1107 C1109 1.387 . S
H1108 C1115 0.950 . S
C1109 C1107 1.387 . S
C1109 C1111 1.390 . S
C1109 H1113 0.950 . S
H1110 C1106 0.950 . S
C1111 C1109 1.390 . S
C1111 C1112 1.387 . S
C1111 H1114 0.950 . S
C1112 C1111 1.387 . S
C1112 C1115 1.387 . S
H1113 C1109 0.950 . S
H1114 C1111 0.950 . S
C1115 C1106 1.390 . S
C1115 H1108 0.950 . S
C1115 C1112 1.387 . S
C1116 C1117 1.387 . S
C1116 H1120 0.950 . S
C1116 C1125 1.390 . S
C1117 C1116 1.387 . S
C1117 C1119 1.387 . S
H1118 C1125 0.950 . S
C1119 C1117 1.387 . S
C1119 C1121 1.390 . S
C1119 H1123 0.950 . S
H1120 C1116 0.950 . S
C1121 C1119 1.390 . S
C1121 C1122 1.387 . S
C1121 H1124 0.950 . S
C1122 C1121 1.387 . S
C1122 C1125 1.387 . S
H1123 C1119 0.950 . S
H1124 C1121 0.950 . S
C1125 C1116 1.390 . S
C1125 H1118 0.950 . S
C1125 C1122 1.387 . S
C1126 C1127 1.387 . S
C1126 H1130 0.950 . S
C1126 C1135 1.390 . S
C1127 C1126 1.387 . S
C1127 C1129 1.387 . S
H1128 C1135 0.950 . S
C1129 C1127 1.387 . S
C1129 C1131 1.390 . S
C1129 H1133 0.950 . S
H1130 C1126 0.950 . S
C1131 C1129 1.390 . S
C1131 C1132 1.387 . S
C1131 H1134 0.950 . S
C1132 C1131 1.387 . S
C1132 C1135 1.387 . S
H1133 C1129 0.950 . S
H1134 C1131 0.950 . S
C1135 C1126 1.390 . S
C1135 H1128 0.950 . S
C1135 C1132 1.387 . S
C1136 C1137 1.387 . S
C1136 H1140 0.950 . S
C1136 C1145 1.390 . S
C1137 C1136 1.387 . S
C1137 C1139 1.387 . S
H1138 C1145 0.950 . S
C1139 C1137 1.387 . S
C1139 C1141 1.390 . S
C1139 H1143 0.950 . S
H1140 C1136 0.950 . S
C1141 C1139 1.390 . S
C1141 C1142 1.387 . S
C1141 H1144 0.950 1_565 S
C1142 C1141 1.387 . S
C1142 C1145 1.387 . S
H1143 C1139 0.950 . S
H1144 C1141 0.950 1_545 S
C1145 C1136 1.390 . S
C1145 H1138 0.950 . S
C1145 C1142 1.387 . S
C1146 C1147 1.387 1_556 S
C1146 H1150 0.950 . S
C1146 C1155 1.390 . S
C1147 C1146 1.387 1_554 S
C1147 C1149 1.387 . S
H1148 C1155 0.950 . S
C1149 C1147 1.387 . S
C1149 C1151 1.390 . S
C1149 H1153 0.950 . S
H1150 C1146 0.950 . S
C1151 C1149 1.390 . S
C1151 C1152 1.387 . S
C1151 H1154 0.950 . S
C1152 C1151 1.387 . S
C1152 C1155 1.387 1_554 S
H1153 C1149 0.950 . S
H1154 C1151 0.950 . S
C1155 C1146 1.390 . S
C1155 H1148 0.950 . S
C1155 C1152 1.387 1_556 S
C1156 C1157 1.387 . S
C1156 H1160 0.950 . S
C1156 C1165 1.390 . S
C1157 C1156 1.387 . S
C1157 C1159 1.387 . S
H1158 C1165 0.950 . S
C1159 C1157 1.387 . S
C1159 C1161 1.390 . S
C1159 H1163 0.950 . S
H1160 C1156 0.950 . S
C1161 C1159 1.390 . S
C1161 C1162 1.387 . S
C1161 H1164 0.950 . S
C1162 C1161 1.387 . S
C1162 C1165 1.387 . S
H1163 C1159 0.950 . S
H1164 C1161 0.950 . S
C1165 C1156 1.390 . S
C1165 H1158 0.950 . S
C1165 C1162 1.387 . S
C1166 C1167 1.387 . S
C1166 H1170 0.950 . S
C1166 C1175 1.390 . S
C1167 C1166 1.387 . S
C1167 C1169 1.387 . S
H1168 C1175 0.950 . S
C1169 C1167 1.387 . S
C1169 C1171 1.390 . S
C1169 H1173 0.950 . S
H1170 C1166 0.950 . S
C1171 C1169 1.390 . S
C1171 C1172 1.387 . S
C1171 H1174 0.950 . S
C1172 C1171 1.387 . S
C1172 C1175 1.387 . S
H1173 C1169 0.950 . S
H1174 C1171 0.950 . S
C1175 C1166 1.390 . S
C1175 H1168 0.950 . S
C1175 C1172 1.387 . S
C1176 C1177 1.387 . S
C1176 H1180 0.950 . S
C1176 C1185 1.390 . S
C1177 C1176 1.387 . S
C1177 C1179 1.387 . S
H1178 C1185 0.950 . S
C1179 C1177 1.387 . S
C1179 C1181 1.390 . S
C1179 H1183 0.950 . S
H1180 C1176 0.950 . S
C1181 C1179 1.390 . S
C1181 C1182 1.387 . S
C1181 H1184 0.950 . S
C1182 C1181 1.387 . S
C1182 C1185 1.387 . S
H1183 C1179 0.950 . S
H1184 C1181 0.950 . S
C1185 C1176 1.390 . S
C1185 H1178 0.950 . S
C1185 C1182 1.387 . S
C1186 C1187 1.387 . S
C1186 H1190 0.950 . S
C1186 C1195 1.390 . S
C1187 C1186 1.387 . S
C1187 C1189 1.387 . S
H1188 C1195 0.950 . S
C1189 C1187 1.387 . S
C1189 C1191 1.390 . S
C1189 H1193 0.950 . S
H1190 C1186 0.950 . S
C1191 C1189 1.390 . S
C1191 C1192 1.387 . S
C1191 H1194 0.950 . S
C1192 C1191 1.387 . S
C1192 C1195 1.387 . S
H1193 C1189 0.950 . S
H1194 C1191 0.950 . S
C1195 C1186 1.390 . S
C1195 H1188 0.950 . S
C1195 C1192 1.387 . S
C1196 C1197 1.387 . S
C1196 H1200 0.950 . S
C1196 C1205 1.390 . S
C1197 C1196 1.387 . S
C1197 C1199 1.387 . S
H1198 C1205 0.950 . S
C1199 C1197 1.387 . S
C1199 C1201 1.390 . S
C1199 H1203 0.950 . S
H1200 C1196 0.950 . S
C1201 C1199 1.390 . S
C1201 C1202 1.387 . S
C1201 H1204 0.950 . S
C1202 C1201 1.387 . S
C1202 C1205 1.387 . S
H1203 C1199 0.950 . S
H1204 C1201 0.950 . S
C1205 C1196 1.390 . S
C1205 H1198 0.950 . S
C1205 C1202 1.387 . S
C1206 C1207 1.387 . S
C1206 H1210 0.950 . S
C1206 C1215 1.390 . S
C1207 C1206 1.387 . S
C1207 C1209 1.387 . S
H1208 C1215 0.950 . S
C1209 C1207 1.387 . S
C1209 C1211 1.390 . S
C1209 H1213 0.950 . S
H1210 C1206 0.950 . S
C1211 C1209 1.390 . S
C1211 C1212 1.387 . S
C1211 H1214 0.950 . S
C1212 C1211 1.387 . S
C1212 C1215 1.387 . S
H1213 C1209 0.950 . S
H1214 C1211 0.950 . S
C1215 C1206 1.390 . S
C1215 H1208 0.950 . S
C1215 C1212 1.387 . S
C1216 C1217 1.387 . S
C1216 H1220 0.950 . S
C1216 C1225 1.390 . S
C1217 C1216 1.387 . S
C1217 C1219 1.387 . S
H1218 C1225 0.950 . S
C1219 C1217 1.387 . S
C1219 C1221 1.390 . S
C1219 H1223 0.950 . S
H1220 C1216 0.950 . S
C1221 C1219 1.390 . S
C1221 C1222 1.387 . S
C1221 H1224 0.950 1_565 S
C1222 C1221 1.387 . S
C1222 C1225 1.387 . S
H1223 C1219 0.950 . S
H1224 C1221 0.950 1_545 S
C1225 C1216 1.390 . S
C1225 H1218 0.950 . S
C1225 C1222 1.387 . S
C1226 C1227 1.387 . S
C1226 H1230 0.950 . S
C1226 C1235 1.390 . S
C1227 C1226 1.387 . S
C1227 C1229 1.387 . S
H1228 C1235 0.950 . S
C1229 C1227 1.387 . S
C1229 C1231 1.390 . S
C1229 H1233 0.950 . S
H1230 C1226 0.950 . S
C1231 C1229 1.390 . S
C1231 C1232 1.387 . S
C1231 H1234 0.950 . S
C1232 C1231 1.387 . S
C1232 C1235 1.387 . S
H1233 C1229 0.950 . S
H1234 C1231 0.950 . S
C1235 C1226 1.390 . S
C1235 H1228 0.950 . S
C1235 C1232 1.387 . S
C1236 C1237 1.387 . S
C1236 H1240 0.950 . S
C1236 C1245 1.390 . S
C1237 C1236 1.387 . S
C1237 C1239 1.387 . S
H1238 C1245 0.950 . S
C1239 C1237 1.387 . S
C1239 C1241 1.390 . S
C1239 H1243 0.950 . S
H1240 C1236 0.950 . S
C1241 C1239 1.390 . S
C1241 C1242 1.387 . S
C1241 H1244 0.950 . S
C1242 C1241 1.387 . S
C1242 C1245 1.387 . S
H1243 C1239 0.950 . S
H1244 C1241 0.950 . S
C1245 C1236 1.390 . S
C1245 H1238 0.950 . S
C1245 C1242 1.387 . S
C1246 C1247 1.387 . S
C1246 H1250 0.950 . S
C1246 C1255 1.390 . S
C1247 C1246 1.387 . S
C1247 C1249 1.387 . S
H1248 C1255 0.950 . S
C1249 C1247 1.387 . S
C1249 C1251 1.390 . S
C1249 H1253 0.950 . S
H1250 C1246 0.950 . S
C1251 C1249 1.390 . S
C1251 C1252 1.387 . S
C1251 H1254 0.950 . S
C1252 C1251 1.387 . S
C1252 C1255 1.387 . S
H1253 C1249 0.950 . S
H1254 C1251 0.950 . S
C1255 C1246 1.390 . S
C1255 H1248 0.950 . S
C1255 C1252 1.387 . S
C1256 C1257 1.387 . S
C1256 H1260 0.950 . S
C1256 C1265 1.390 . S
C1257 C1256 1.387 . S
C1257 C1259 1.387 . S
H1258 C1265 0.950 . S
C1259 C1257 1.387 . S
C1259 C1261 1.390 . S
C1259 H1263 0.950 . S
H1260 C1256 0.950 . S
C1261 C1259 1.390 . S
C1261 C1262 1.387 . S
C1261 H1264 0.950 1_455 S
C1262 C1261 1.387 . S
C1262 C1265 1.387 . S
H1263 C1259 0.950 . S
H1264 C1261 0.950 1_655 S
C1265 C1256 1.390 . S
C1265 H1258 0.950 . S
C1265 C1262 1.387 . S
C1266 C1267 1.387 . S
C1266 H1270 0.950 . S
C1266 C1275 1.390 . S
C1267 C1266 1.387 . S
C1267 C1269 1.387 . S
H1268 C1275 0.950 . S
C1269 C1267 1.387 . S
C1269 C1271 1.390 . S
C1269 H1273 0.950 . S
H1270 C1266 0.950 . S
C1271 C1269 1.390 . S
C1271 C1272 1.387 . S
C1271 H1274 0.950 . S
C1272 C1271 1.387 . S
C1272 C1275 1.387 . S
H1273 C1269 0.950 . S
H1274 C1271 0.950 . S
C1275 C1266 1.390 . S
C1275 H1268 0.950 . S
C1275 C1272 1.387 . S
C1276 C1277 1.387 . S
C1276 H1280 0.950 . S
C1276 C1285 1.390 . S
C1277 C1276 1.387 . S
C1277 C1279 1.387 . S
H1278 C1285 0.950 . S
C1279 C1277 1.387 . S
C1279 C1281 1.390 . S
C1279 H1283 0.950 . S
H1280 C1276 0.950 . S
C1281 C1279 1.390 . S
C1281 C1282 1.387 . S
C1281 H1284 0.950 . S
C1282 C1281 1.387 . S
C1282 C1285 1.387 . S
H1283 C1279 0.950 . S
H1284 C1281 0.950 . S
C1285 C1276 1.390 . S
C1285 H1278 0.950 . S
C1285 C1282 1.387 . S
C1286 C1287 1.387 . S
C1286 H1290 0.950 . S
C1286 C1295 1.390 . S
C1287 C1286 1.387 . S
C1287 C1289 1.387 . S
H1288 C1295 0.950 . S
C1289 C1287 1.387 . S
C1289 C1291 1.390 . S
C1289 H1293 0.950 . S
H1290 C1286 0.950 . S
C1291 C1289 1.390 . S
C1291 C1292 1.387 . S
C1291 H1294 0.950 . S
C1292 C1291 1.387 . S
C1292 C1295 1.387 . S
H1293 C1289 0.950 . S
H1294 C1291 0.950 . S
C1295 C1286 1.390 . S
C1295 H1288 0.950 . S
C1295 C1292 1.387 . S
C1296 C1297 1.387 . S
C1296 H1300 0.950 . S
C1296 C1305 1.390 . S
C1297 C1296 1.387 . S
C1297 C1299 1.387 . S
H1298 C1305 0.951 1_554 S
C1299 C1297 1.387 . S
C1299 C1301 1.390 . S
C1299 H1303 0.950 . S
H1300 C1296 0.950 . S
C1301 C1299 1.390 . S
C1301 C1302 1.387 . S
C1301 H1304 0.950 . S
C1302 C1301 1.387 . S
C1302 C1305 1.387 . S
H1303 C1299 0.950 . S
H1304 C1301 0.950 . S
C1305 C1296 1.390 . S
C1305 H1298 0.951 1_556 S
C1305 C1302 1.387 . S
C1306 C1307 1.387 . S
C1306 H1310 0.950 . S
C1306 C1315 1.390 . S
C1307 C1306 1.387 . S
C1307 C1309 1.387 . S
H1308 C1315 0.950 . S
C1309 C1307 1.387 . S
C1309 C1311 1.390 . S
C1309 H1313 0.950 . S
H1310 C1306 0.950 . S
C1311 C1309 1.390 . S
C1311 C1312 1.387 . S
C1311 H1314 0.950 . S
C1312 C1311 1.387 . S
C1312 C1315 1.387 . S
H1313 C1309 0.950 . S
H1314 C1311 0.950 . S
C1315 C1306 1.390 . S
C1315 H1308 0.950 . S
C1315 C1312 1.387 . S
C1316 C1317 1.387 . S
C1316 H1320 0.950 . S
C1316 C1325 1.390 . S
C1317 C1316 1.387 . S
C1317 C1319 1.387 . S
H1318 C1325 0.950 . S
C1319 C1317 1.387 . S
C1319 C1321 1.390 . S
C1319 H1323 0.950 . S
H1320 C1316 0.950 . S
C1321 C1319 1.390 . S
C1321 C1322 1.387 . S
C1321 H1324 0.950 . S
C1322 C1321 1.387 . S
C1322 C1325 1.387 . S
H1323 C1319 0.950 . S
H1324 C1321 0.950 . S
C1325 C1316 1.390 . S
C1325 H1318 0.950 . S
C1325 C1322 1.387 . S
C1326 C1327 1.387 . S
C1326 H1330 0.950 . S
C1326 C1335 1.390 . S
C1327 C1326 1.387 . S
C1327 C1329 1.387 . S
H1328 C1335 0.950 . S
C1329 C1327 1.387 . S
C1329 C1331 1.390 . S
C1329 H1333 0.950 . S
H1330 C1326 0.950 . S
C1331 C1329 1.390 . S
C1331 C1332 1.387 . S
C1331 H1334 0.950 . S
C1332 C1331 1.387 . S
C1332 C1335 1.387 . S
H1333 C1329 0.950 . S
H1334 C1331 0.950 . S
C1335 C1326 1.390 . S
C1335 H1328 0.950 . S
C1335 C1332 1.387 . S
C1336 C1337 1.387 . S
C1336 H1340 0.950 . S
C1336 C1345 1.390 . S
C1337 C1336 1.387 . S
C1337 C1339 1.387 . S
H1338 C1345 0.950 . S
C1339 C1337 1.387 . S
C1339 C1341 1.390 . S
C1339 H1343 0.950 . S
H1340 C1336 0.950 . S
C1341 C1339 1.390 . S
C1341 C1342 1.387 . S
C1341 H1344 0.950 . S
C1342 C1341 1.387 . S
C1342 C1345 1.387 . S
H1343 C1339 0.950 . S
H1344 C1341 0.950 . S
C1345 C1336 1.390 . S
C1345 H1338 0.950 . S
C1345 C1342 1.387 . S
C1346 C1347 1.387 . S
C1346 H1350 0.950 . S
C1346 C1355 1.390 . S
C1347 C1346 1.387 . S
C1347 C1349 1.387 . S
H1348 C1355 0.950 . S
C1349 C1347 1.387 . S
C1349 C1351 1.390 . S
C1349 H1353 0.950 . S
H1350 C1346 0.950 . S
C1351 C1349 1.390 . S
C1351 C1352 1.387 . S
C1351 H1354 0.950 . S
C1352 C1351 1.387 . S
C1352 C1355 1.387 . S
H1353 C1349 0.950 . S
H1354 C1351 0.950 . S
C1355 C1346 1.390 . S
C1355 H1348 0.950 . S
C1355 C1352 1.387 . S
C1356 C1357 1.387 . S
C1356 H1360 0.950 . S
C1356 C1365 1.390 . S
C1357 C1356 1.387 . S
C1357 C1359 1.387 . S
H1358 C1365 0.950 . S
C1359 C1357 1.387 . S
C1359 C1361 1.390 . S
C1359 H1363 0.950 . S
H1360 C1356 0.950 . S
C1361 C1359 1.390 . S
C1361 C1362 1.387 . S
C1361 H1364 0.950 . S
C1362 C1361 1.387 . S
C1362 C1365 1.387 . S
H1363 C1359 0.950 . S
H1364 C1361 0.950 . S
C1365 C1356 1.390 . S
C1365 H1358 0.950 . S
C1365 C1362 1.387 . S
C1366 C1367 1.387 . S
C1366 H1370 0.950 . S
C1366 C1375 1.390 . S
C1367 C1366 1.387 . S
C1367 C1369 1.387 . S
H1368 C1375 0.950 . S
C1369 C1367 1.387 . S
C1369 C1371 1.390 . S
C1369 H1373 0.950 . S
H1370 C1366 0.950 . S
C1371 C1369 1.390 . S
C1371 C1372 1.387 . S
C1371 H1374 0.950 . S
C1372 C1371 1.387 . S
C1372 C1375 1.387 . S
H1373 C1369 0.950 . S
H1374 C1371 0.950 . S
C1375 C1366 1.390 . S
C1375 H1368 0.950 . S
C1375 C1372 1.387 . S
C1376 C1377 1.387 . S
C1376 H1380 0.950 . S
C1376 C1385 1.390 . S
C1377 C1376 1.387 . S
C1377 C1379 1.387 1_556 S
H1378 C1385 0.950 . S
C1379 C1377 1.387 1_554 S
C1379 C1381 1.390 1_554 S
C1379 H1383 0.950 . S
H1380 C1376 0.950 . S
C1381 C1379 1.390 1_556 S
C1381 C1382 1.387 . S
C1381 H1384 0.950 . S
C1382 C1381 1.387 . S
C1382 C1385 1.387 . S
H1383 C1379 0.950 . S
H1384 C1381 0.950 . S
C1385 C1376 1.390 . S
C1385 H1378 0.950 . S
C1385 C1382 1.387 . S
C1386 C1387 1.387 . S
C1386 H1390 0.950 . S
C1386 C1395 1.390 . S
C1387 C1386 1.387 . S
C1387 C1389 1.387 . S
H1388 C1395 0.950 . S
C1389 C1387 1.387 . S
C1389 C1391 1.390 . S
C1389 H1393 0.950 1_554 S
H1390 C1386 0.950 . S
C1391 C1389 1.390 . S
C1391 C1392 1.387 . S
C1391 H1394 0.950 1_554 S
C1392 C1391 1.387 . S
C1392 C1395 1.387 . S
H1393 C1389 0.950 1_556 S
H1394 C1391 0.950 1_556 S
C1395 C1386 1.390 . S
C1395 H1388 0.950 . S
C1395 C1392 1.387 . S
C1396 C1397 1.387 . S
C1396 H1400 0.950 . S
C1396 C1405 1.390 . S
C1397 C1396 1.387 . S
C1397 C1399 1.387 . S
H1398 C1405 0.950 . S
C1399 C1397 1.387 . S
C1399 C1401 1.390 . S
C1399 H1403 0.950 . S
H1400 C1396 0.950 . S
C1401 C1399 1.390 . S
C1401 C1402 1.387 . S
C1401 H1404 0.950 . S
C1402 C1401 1.387 . S
C1402 C1405 1.387 . S
H1403 C1399 0.950 . S
H1404 C1401 0.950 . S
C1405 C1396 1.390 . S
C1405 H1398 0.950 . S
C1405 C1402 1.387 . S
C1406 C1407 1.387 . S
C1406 H1410 0.950 . S
C1406 C1415 1.390 . S
C1407 C1406 1.387 . S
C1407 C1409 1.387 . S
H1408 C1415 0.950 . S
C1409 C1407 1.387 . S
C1409 C1411 1.390 . S
C1409 H1413 0.950 . S
H1410 C1406 0.950 . S
C1411 C1409 1.390 . S
C1411 C1412 1.387 . S
C1411 H1414 0.950 . S
C1412 C1411 1.387 . S
C1412 C1415 1.387 . S
H1413 C1409 0.950 . S
H1414 C1411 0.950 . S
C1415 C1406 1.390 . S
C1415 H1408 0.950 . S
C1415 C1412 1.387 . S
C1416 C1417 1.387 . S
C1416 H1420 0.950 . S
C1416 C1425 1.390 . S
C1417 C1416 1.387 . S
C1417 C1419 1.387 . S
H1418 C1425 0.950 . S
C1419 C1417 1.387 . S
C1419 C1421 1.390 . S
C1419 H1423 0.950 . S
H1420 C1416 0.950 . S
C1421 C1419 1.390 . S
C1421 C1422 1.387 . S
C1421 H1424 0.950 . S
C1422 C1421 1.387 . S
C1422 C1425 1.387 . S
H1423 C1419 0.950 . S
H1424 C1421 0.950 . S
C1425 C1416 1.390 . S
C1425 H1418 0.950 . S
C1425 C1422 1.387 . S
C1426 C1427 1.387 . S
C1426 H1430 0.950 . S
C1426 C1435 1.390 . S
C1427 C1426 1.387 . S
C1427 C1429 1.387 . S
H1428 C1435 0.950 . S
C1429 C1427 1.387 . S
C1429 C1431 1.390 . S
C1429 H1433 0.950 . S
H1430 C1426 0.950 . S
C1431 C1429 1.390 . S
C1431 C1432 1.387 . S
C1431 H1434 0.950 . S
C1432 C1431 1.387 . S
C1432 C1435 1.387 . S
H1433 C1429 0.950 . S
H1434 C1431 0.950 . S
C1435 C1426 1.390 . S
C1435 H1428 0.950 . S
C1435 C1432 1.387 . S
C1436 C1437 1.387 . S
C1436 H1440 0.950 . S
C1436 C1445 1.390 . S
C1437 C1436 1.387 . S
C1437 C1439 1.387 . S
H1438 C1445 0.950 . S
C1439 C1437 1.387 . S
C1439 C1441 1.390 . S
C1439 H1443 0.950 . S
H1440 C1436 0.950 . S
C1441 C1439 1.390 . S
C1441 C1442 1.387 . S
C1441 H1444 0.950 . S
C1442 C1441 1.387 . S
C1442 C1445 1.387 . S
H1443 C1439 0.950 . S
H1444 C1441 0.950 . S
C1445 C1436 1.390 . S
C1445 H1438 0.950 . S
C1445 C1442 1.387 . S
C1446 C1447 1.387 . S
C1446 H1450 0.950 . S
C1446 C1455 1.390 . S
C1447 C1446 1.387 . S
C1447 C1449 1.387 . S
H1448 C1455 0.950 . S
C1449 C1447 1.387 . S
C1449 C1451 1.390 . S
C1449 H1453 0.950 . S
H1450 C1446 0.950 . S
C1451 C1449 1.390 . S
C1451 C1452 1.387 . S
C1451 H1454 0.950 . S
C1452 C1451 1.387 . S
C1452 C1455 1.387 . S
H1453 C1449 0.950 . S
H1454 C1451 0.950 . S
C1455 C1446 1.390 . S
C1455 H1448 0.950 . S
C1455 C1452 1.387 . S
C1456 C1457 1.387 . S
C1456 H1460 0.950 . S
C1456 C1465 1.390 . S
C1457 C1456 1.387 . S
C1457 C1459 1.387 . S
H1458 C1465 0.950 . S
C1459 C1457 1.387 . S
C1459 C1461 1.390 . S
C1459 H1463 0.950 . S
H1460 C1456 0.950 . S
C1461 C1459 1.390 . S
C1461 C1462 1.387 . S
C1461 H1464 0.950 . S
C1462 C1461 1.387 . S
C1462 C1465 1.387 . S
H1463 C1459 0.950 . S
H1464 C1461 0.950 . S
C1465 C1456 1.390 . S
C1465 H1458 0.950 . S
C1465 C1462 1.387 . S
C1466 C1467 1.387 . S
C1466 H1470 0.950 . S
C1466 C1475 1.390 . S
C1467 C1466 1.387 . S
C1467 C1469 1.387 . S
H1468 C1475 0.950 . S
C1469 C1467 1.387 . S
C1469 C1471 1.390 . S
C1469 H1473 0.950 . S
H1470 C1466 0.950 . S
C1471 C1469 1.390 . S
C1471 C1472 1.387 . S
C1471 H1474 0.950 . S
C1472 C1471 1.387 . S
C1472 C1475 1.387 . S
H1473 C1469 0.950 . S
H1474 C1471 0.950 . S
C1475 C1466 1.390 . S
C1475 H1468 0.950 . S
C1475 C1472 1.387 . S
C1476 C1477 1.387 . S
C1476 H1480 0.950 . S
C1476 C1485 1.390 . S
C1477 C1476 1.387 . S
C1477 C1479 1.387 1_455 S
H1478 C1485 0.950 . S
C1479 C1477 1.387 1_655 S
C1479 C1481 1.390 . S
C1479 H1483 0.950 . S
H1480 C1476 0.950 . S
C1481 C1479 1.390 . S
C1481 C1482 1.387 1_655 S
C1481 H1484 0.950 . S
C1482 C1481 1.387 1_455 S
C1482 C1485 1.387 . S
H1483 C1479 0.950 . S
H1484 C1481 0.950 . S
C1485 C1476 1.390 . S
C1485 H1478 0.950 . S
C1485 C1482 1.387 . S
C1486 C1487 1.387 . S
C1486 H1490 0.950 . S
C1486 C1495 1.390 . S
C1487 C1486 1.387 . S
C1487 C1489 1.387 . S
H1488 C1495 0.950 1_655 S
C1489 C1487 1.387 . S
C1489 C1491 1.390 . S
C1489 H1493 0.950 . S
H1490 C1486 0.950 . S
C1491 C1489 1.390 . S
C1491 C1492 1.389 . S
C1491 H1494 0.950 . S
C1492 C1491 1.389 . S
C1492 C1495 1.389 . S
H1493 C1489 0.950 . S
H1494 C1491 0.950 . S
C1495 C1486 1.390 . S
C1495 H1488 0.950 1_455 S
C1495 C1492 1.389 . S
C1496 C1497 1.387 . S
C1496 H1500 0.950 . S
C1496 C1505 1.390 . S
C1497 C1496 1.387 . S
C1497 C1499 1.387 . S
H1498 C1505 0.950 . S
C1499 C1497 1.387 . S
C1499 C1501 1.390 . S
C1499 H1503 0.950 . S
H1500 C1496 0.950 . S
C1501 C1499 1.390 . S
C1501 C1502 1.387 . S
C1501 H1504 0.950 . S
C1502 C1501 1.387 . S
C1502 C1505 1.387 . S
H1503 C1499 0.950 . S
H1504 C1501 0.950 . S
C1505 C1496 1.390 . S
C1505 H1498 0.950 . S
C1505 C1502 1.387 . S
C1506 C1507 1.387 . S
C1506 H1510 0.950 . S
C1506 C1515 1.390 . S
C1507 C1506 1.387 . S
C1507 C1509 1.387 . S
H1508 C1515 0.950 . S
C1509 C1507 1.387 . S
C1509 C1511 1.390 . S
C1509 H1513 0.950 . S
H1510 C1506 0.950 . S
C1511 C1509 1.390 . S
C1511 C1512 1.387 . S
C1511 H1514 0.950 . S
C1512 C1511 1.387 . S
C1512 C1515 1.387 . S
H1513 C1509 0.950 . S
H1514 C1511 0.950 . S
C1515 C1506 1.390 . S
C1515 H1508 0.950 . S
C1515 C1512 1.387 . S
C1516 C1517 1.387 . S
C1516 H1520 0.950 . S
C1516 C1525 1.390 . S
C1517 C1516 1.387 . S
C1517 C1519 1.387 . S
H1518 C1525 0.950 . S
C1519 C1517 1.387 . S
C1519 C1521 1.390 . S
C1519 H1523 0.950 . S
H1520 C1516 0.950 . S
C1521 C1519 1.390 . S
C1521 C1522 1.387 . S
C1521 H1524 0.950 . S
C1522 C1521 1.387 . S
C1522 C1525 1.387 . S
H1523 C1519 0.950 . S
H1524 C1521 0.950 . S
C1525 C1516 1.390 . S
C1525 H1518 0.950 . S
C1525 C1522 1.387 . S
C1526 C1527 1.387 . S
C1526 H1530 0.950 . S
C1526 C1535 1.390 . S
C1527 C1526 1.387 . S
C1527 C1529 1.387 . S
H1528 C1535 0.950 . S
C1529 C1527 1.387 . S
C1529 C1531 1.390 . S
C1529 H1533 0.950 . S
H1530 C1526 0.950 . S
C1531 C1529 1.390 . S
C1531 C1532 1.387 . S
C1531 H1534 0.950 . S
C1532 C1531 1.387 . S
C1532 C1535 1.387 . S
H1533 C1529 0.950 . S
H1534 C1531 0.950 . S
C1535 C1526 1.390 . S
C1535 H1528 0.950 . S
C1535 C1532 1.387 . S
C1536 C1537 1.387 . S
C1536 H1540 0.950 . S
C1536 C1545 1.390 . S
C1537 C1536 1.387 . S
C1537 C1539 1.387 . S
H1538 C1545 0.950 . S
C1539 C1537 1.387 . S
C1539 C1541 1.390 . S
C1539 H1543 0.950 . S
H1540 C1536 0.950 . S
C1541 C1539 1.390 . S
C1541 C1542 1.387 . S
C1541 H1544 0.950 . S
C1542 C1541 1.387 . S
C1542 C1545 1.387 . S
H1543 C1539 0.950 . S
H1544 C1541 0.950 . S
C1545 C1536 1.390 . S
C1545 H1538 0.950 . S
C1545 C1542 1.387 . S
C1546 C1547 1.387 . S
C1546 H1550 0.950 . S
C1546 C1555 1.390 . S
C1547 C1546 1.387 . S
C1547 C1549 1.387 . S
H1548 C1555 0.950 . S
C1549 C1547 1.387 . S
C1549 C1551 1.390 . S
C1549 H1553 0.950 . S
H1550 C1546 0.950 . S
C1551 C1549 1.390 . S
C1551 C1552 1.387 . S
C1551 H1554 0.950 . S
C1552 C1551 1.387 . S
C1552 C1555 1.387 . S
H1553 C1549 0.950 . S
H1554 C1551 0.950 . S
C1555 C1546 1.390 . S
C1555 H1548 0.950 . S
C1555 C1552 1.387 . S
C1556 C1557 1.387 . S
C1556 H1560 0.950 . S
C1556 C1565 1.390 . S
C1557 C1556 1.387 . S
C1557 C1559 1.387 . S
H1558 C1565 0.950 . S
C1559 C1557 1.387 . S
C1559 C1561 1.390 . S
C1559 H1563 0.950 . S
H1560 C1556 0.950 . S
C1561 C1559 1.390 . S
C1561 C1562 1.387 . S
C1561 H1564 0.950 . S
C1562 C1561 1.387 . S
C1562 C1565 1.387 . S
H1563 C1559 0.950 . S
H1564 C1561 0.950 . S
C1565 C1556 1.390 . S
C1565 H1558 0.950 . S
C1565 C1562 1.387 . S
C1566 C1567 1.387 . S
C1566 H1570 0.950 . S
C1566 C1575 1.390 . S
C1567 C1566 1.387 . S
C1567 C1569 1.387 . S
H1568 C1575 0.950 . S
C1569 C1567 1.387 . S
C1569 C1571 1.390 . S
C1569 H1573 0.950 . S
H1570 C1566 0.950 . S
C1571 C1569 1.390 . S
C1571 C1572 1.387 . S
C1571 H1574 0.950 . S
C1572 C1571 1.387 . S
C1572 C1575 1.387 . S
H1573 C1569 0.950 . S
H1574 C1571 0.950 . S
C1575 C1566 1.390 . S
C1575 H1568 0.950 . S
C1575 C1572 1.387 . S
C1576 C1577 1.387 . S
C1576 H1580 0.950 . S
C1576 C1585 1.390 . S
C1577 C1576 1.387 . S
C1577 C1579 1.387 . S
H1578 C1585 0.950 . S
C1579 C1577 1.387 . S
C1579 C1581 1.390 . S
C1579 H1583 0.950 . S
H1580 C1576 0.950 . S
C1581 C1579 1.390 . S
C1581 C1582 1.387 . S
C1581 H1584 0.950 . S
C1582 C1581 1.387 . S
C1582 C1585 1.387 . S
H1583 C1579 0.950 . S
H1584 C1581 0.950 . S
C1585 C1576 1.390 . S
C1585 H1578 0.950 . S
C1585 C1582 1.387 . S
C1586 C1587 1.387 . S
C1586 H1590 0.950 . S
C1586 C1595 1.390 . S
C1587 C1586 1.387 . S
C1587 C1589 1.387 . S
H1588 C1595 0.950 . S
C1589 C1587 1.387 . S
C1589 C1591 1.390 . S
C1589 H1593 0.950 . S
H1590 C1586 0.950 . S
C1591 C1589 1.390 . S
C1591 C1592 1.387 . S
C1591 H1594 0.950 . S
C1592 C1591 1.387 . S
C1592 C1595 1.387 . S
H1593 C1589 0.950 . S
H1594 C1591 0.950 . S
C1595 C1586 1.390 . S
C1595 H1588 0.950 . S
C1595 C1592 1.387 . S
C1596 C1597 1.387 . S
C1596 H1600 0.950 . S
C1596 C1605 1.390 . S
C1597 C1596 1.387 . S
C1597 C1599 1.387 . S
H1598 C1605 0.950 . S
C1599 C1597 1.387 . S
C1599 C1601 1.390 . S
C1599 H1603 0.950 . S
H1600 C1596 0.950 . S
C1601 C1599 1.390 . S
C1601 C1602 1.387 . S
C1601 H1604 0.950 . S
C1602 C1601 1.387 . S
C1602 C1605 1.387 . S
H1603 C1599 0.950 . S
H1604 C1601 0.950 . S
C1605 C1596 1.390 . S
C1605 H1598 0.950 . S
C1605 C1602 1.387 . S
C1606 C1607 1.387 . S
C1606 H1610 0.950 . S
C1606 C1615 1.390 . S
C1607 C1606 1.387 . S
C1607 C1609 1.387 . S
H1608 C1615 0.950 . S
C1609 C1607 1.387 . S
C1609 C1611 1.390 . S
C1609 H1613 0.950 . S
H1610 C1606 0.950 . S
C1611 C1609 1.390 . S
C1611 C1612 1.387 . S
C1611 H1614 0.950 . S
C1612 C1611 1.387 . S
C1612 C1615 1.387 . S
H1613 C1609 0.950 . S
H1614 C1611 0.950 . S
C1615 C1606 1.390 . S
C1615 H1608 0.950 . S
C1615 C1612 1.387 . S
C1616 C1617 1.387 . S
C1616 H1620 0.950 . S
C1616 C1625 1.390 . S
C1617 C1616 1.387 . S
C1617 C1619 1.387 . S
H1618 C1625 0.950 . S
C1619 C1617 1.387 . S
C1619 C1621 1.390 . S
C1619 H1623 0.950 . S
H1620 C1616 0.950 . S
C1621 C1619 1.390 . S
C1621 C1622 1.387 . S
C1621 H1624 0.950 . S
C1622 C1621 1.387 . S
C1622 C1625 1.387 . S
H1623 C1619 0.950 . S
H1624 C1621 0.950 . S
C1625 C1616 1.390 . S
C1625 H1618 0.950 . S
C1625 C1622 1.387 . S
C1626 C1627 1.387 . S
C1626 H1630 0.950 . S
C1626 C1635 1.390 . S
C1627 C1626 1.387 . S
C1627 C1629 1.387 . S
H1628 C1635 0.950 . S
C1629 C1627 1.387 . S
C1629 C1631 1.390 . S
C1629 H1633 0.950 . S
H1630 C1626 0.950 . S
C1631 C1629 1.390 . S
C1631 C1632 1.387 . S
C1631 H1634 0.950 . S
C1632 C1631 1.387 . S
C1632 C1635 1.387 . S
H1633 C1629 0.950 . S
H1634 C1631 0.950 . S
C1635 C1626 1.390 . S
C1635 H1628 0.950 . S
C1635 C1632 1.387 . S
C1636 C1637 1.387 1_565 S
C1636 H1640 0.950 . S
C1636 C1645 1.390 . S
C1637 C1636 1.387 1_545 S
C1637 C1639 1.387 . S
H1638 C1645 0.950 . S
C1639 C1637 1.387 . S
C1639 C1641 1.390 . S
C1639 H1643 0.950 . S
H1640 C1636 0.950 . S
C1641 C1639 1.390 . S
C1641 C1642 1.387 1_545 S
C1641 H1644 0.950 . S
C1642 C1641 1.387 1_565 S
C1642 C1645 1.387 . S
H1643 C1639 0.950 . S
H1644 C1641 0.950 . S
C1645 C1636 1.390 . S
C1645 H1638 0.950 . S
C1645 C1642 1.387 . S
C1646 C1647 1.387 . S
C1646 H1650 0.950 . S
C1646 C1655 1.390 . S
C1647 C1646 1.387 . S
C1647 C1649 1.387 . S
H1648 C1655 0.950 1_545 S
C1649 C1647 1.387 . S
C1649 C1651 1.390 . S
C1649 H1653 0.950 . S
H1650 C1646 0.950 . S
C1651 C1649 1.390 . S
C1651 C1652 1.387 . S
C1651 H1654 0.950 . S
C1652 C1651 1.387 . S
C1652 C1655 1.387 . S
H1653 C1649 0.950 . S
H1654 C1651 0.950 . S
C1655 C1646 1.390 . S
C1655 H1648 0.950 1_565 S
C1655 C1652 1.387 . S
C1656 C1657 1.387 . S
C1656 H1660 0.950 . S
C1656 C1665 1.390 . S
C1657 C1656 1.387 . S
C1657 C1659 1.387 . S
H1658 C1665 0.950 . S
C1659 C1657 1.387 . S
C1659 C1661 1.390 . S
C1659 H1663 0.950 . S
H1660 C1656 0.950 . S
C1661 C1659 1.390 . S
C1661 C1662 1.387 . S
C1661 H1664 0.950 . S
C1662 C1661 1.387 . S
C1662 C1665 1.387 . S
H1663 C1659 0.950 . S
H1664 C1661 0.950 . S
C1665 C1656 1.390 . S
C1665 H1658 0.950 . S
C1665 C1662 1.387 . S
C1666 C1667 1.387 . S
C1666 H1670 0.950 1_554 S
C1666 C1675 1.390 . S
C1667 C1666 1.387 . S
C1667 C1669 1.387 . S
H1668 C1675 0.950 1_556 S
C1669 C1667 1.387 . S
C1669 C1671 1.390 . S
C1669 H1673 0.950 . S
H1670 C1666 0.950 1_556 S
C1671 C1669 1.390 . S
C1671 C1672 1.387 . S
C1671 H1674 0.950 . S
C1672 C1671 1.387 . S
C1672 C1675 1.387 . S
H1673 C1669 0.950 . S
H1674 C1671 0.950 . S
C1675 C1666 1.390 . S
C1675 H1668 0.950 1_554 S
C1675 C1672 1.387 . S
C1676 C1677 1.387 . S
C1676 H1680 0.950 . S
C1676 C1685 1.390 . S
C1677 C1676 1.387 . S
C1677 C1679 1.387 . S
H1678 C1685 0.950 . S
C1679 C1677 1.387 . S
C1679 C1681 1.390 . S
C1679 H1683 0.950 . S
H1680 C1676 0.950 . S
C1681 C1679 1.390 . S
C1681 C1682 1.387 . S
C1681 H1684 0.950 . S
C1682 C1681 1.387 . S
C1682 C1685 1.387 . S
H1683 C1679 0.950 . S
H1684 C1681 0.950 . S
C1685 C1676 1.390 . S
C1685 H1678 0.950 . S
C1685 C1682 1.387 . S
C1686 C1687 1.387 1_565 S
C1686 H1690 0.950 . S
C1686 C1695 1.390 . S
C1687 C1686 1.387 1_545 S
C1687 C1689 1.387 . S
H1688 C1695 0.950 . S
C1689 C1687 1.387 . S
C1689 C1691 1.390 . S
C1689 H1693 0.950 . S
H1690 C1686 0.950 . S
C1691 C1689 1.390 . S
C1691 C1692 1.387 1_545 S
C1691 H1694 0.950 . S
C1692 C1691 1.387 1_565 S
C1692 C1695 1.387 . S
H1693 C1689 0.950 . S
H1694 C1691 0.950 . S
C1695 C1686 1.390 . S
C1695 H1688 0.950 . S
C1695 C1692 1.387 . S
C1696 C1697 1.387 . S
C1696 H1700 0.950 . S
C1696 C1705 1.390 . S
C1697 C1696 1.387 . S
C1697 C1699 1.387 . S
H1698 C1705 0.950 . S
C1699 C1697 1.387 . S
C1699 C1701 1.390 . S
C1699 H1703 0.950 . S
H1700 C1696 0.950 . S
C1701 C1699 1.390 . S
C1701 C1702 1.387 . S
C1701 H1704 0.950 . S
C1702 C1701 1.387 . S
C1702 C1705 1.387 . S
H1703 C1699 0.950 . S
H1704 C1701 0.950 . S
C1705 C1696 1.390 . S
C1705 H1698 0.950 . S
C1705 C1702 1.387 . S
C1706 C1707 1.387 . S
C1706 H1710 0.950 . S
C1706 C1715 1.390 . S
C1707 C1706 1.387 . S
C1707 C1709 1.387 . S
H1708 C1715 0.950 . S
C1709 C1707 1.387 . S
C1709 C1711 1.390 . S
C1709 H1713 0.950 . S
H1710 C1706 0.950 . S
C1711 C1709 1.390 . S
C1711 C1712 1.387 . S
C1711 H1714 0.950 . S
C1712 C1711 1.387 . S
C1712 C1715 1.387 . S
H1713 C1709 0.950 . S
H1714 C1711 0.950 . S
C1715 C1706 1.390 . S
C1715 H1708 0.950 . S
C1715 C1712 1.387 . S
C1716 C1717 1.387 . S
C1716 H1720 0.950 . S
C1716 C1725 1.390 . S
C1717 C1716 1.387 . S
C1717 C1719 1.387 . S
H1718 C1725 0.950 . S
C1719 C1717 1.387 . S
C1719 C1721 1.390 . S
C1719 H1723 0.950 . S
H1720 C1716 0.950 . S
C1721 C1719 1.390 . S
C1721 C1722 1.387 . S
C1721 H1724 0.950 . S
C1722 C1721 1.387 . S
C1722 C1725 1.387 . S
H1723 C1719 0.950 . S
H1724 C1721 0.950 . S
C1725 C1716 1.390 . S
C1725 H1718 0.950 . S
C1725 C1722 1.387 . S
C1726 C1727 1.387 . S
C1726 H1730 0.950 . S
C1726 C1735 1.390 . S
C1727 C1726 1.387 . S
C1727 C1729 1.387 . S
H1728 C1735 0.950 . S
C1729 C1727 1.387 . S
C1729 C1731 1.390 . S
C1729 H1733 0.950 . S
H1730 C1726 0.950 . S
C1731 C1729 1.390 . S
C1731 C1732 1.387 . S
C1731 H1734 0.950 . S
C1732 C1731 1.387 . S
C1732 C1735 1.387 . S
H1733 C1729 0.950 . S
H1734 C1731 0.950 . S
C1735 C1726 1.390 . S
C1735 H1728 0.950 . S
C1735 C1732 1.387 . S
C1736 C1737 1.387 . S
C1736 H1740 0.950 . S
C1736 C1745 1.390 . S
C1737 C1736 1.387 . S
C1737 C1739 1.387 . S
H1738 C1745 0.950 . S
C1739 C1737 1.387 . S
C1739 C1741 1.390 . S
C1739 H1743 0.950 . S
H1740 C1736 0.950 . S
C1741 C1739 1.390 . S
C1741 C1742 1.387 . S
C1741 H1744 0.950 . S
C1742 C1741 1.387 . S
C1742 C1745 1.387 . S
H1743 C1739 0.950 . S
H1744 C1741 0.950 . S
C1745 C1736 1.390 . S
C1745 H1738 0.950 . S
C1745 C1742 1.387 . S
C1746 C1747 1.387 . S
C1746 H1750 0.950 . S
C1746 C1755 1.390 . S
C1747 C1746 1.387 . S
C1747 C1749 1.387 . S
H1748 C1755 0.950 . S
C1749 C1747 1.387 . S
C1749 C1751 1.390 . S
C1749 H1753 0.950 . S
H1750 C1746 0.950 . S
C1751 C1749 1.390 . S
C1751 C1752 1.387 . S
C1751 H1754 0.950 . S
C1752 C1751 1.387 . S
C1752 C1755 1.387 . S
H1753 C1749 0.950 . S
H1754 C1751 0.950 . S
C1755 C1746 1.390 . S
C1755 H1748 0.950 . S
C1755 C1752 1.387 . S
C1756 C1757 1.387 . S
C1756 H1760 0.950 . S
C1756 C1765 1.390 . S
C1757 C1756 1.387 . S
C1757 C1759 1.387 . S
H1758 C1765 0.950 . S
C1759 C1757 1.387 . S
C1759 C1761 1.390 . S
C1759 H1763 0.950 . S
H1760 C1756 0.950 . S
C1761 C1759 1.390 . S
C1761 C1762 1.387 . S
C1761 H1764 0.950 . S
C1762 C1761 1.387 . S
C1762 C1765 1.387 . S
H1763 C1759 0.950 . S
H1764 C1761 0.950 . S
C1765 C1756 1.390 . S
C1765 H1758 0.950 . S
C1765 C1762 1.387 . S
C1766 C1767 1.387 . S
C1766 H1770 0.950 . S
C1766 C1775 1.390 . S
C1767 C1766 1.387 . S
C1767 C1769 1.387 . S
H1768 C1775 0.950 . S
C1769 C1767 1.387 . S
C1769 C1771 1.390 . S
C1769 H1773 0.950 . S
H1770 C1766 0.950 . S
C1771 C1769 1.390 . S
C1771 C1772 1.387 . S
C1771 H1774 0.950 . S
C1772 C1771 1.387 . S
C1772 C1775 1.387 . S
H1773 C1769 0.950 . S
H1774 C1771 0.950 . S
C1775 C1766 1.390 . S
C1775 H1768 0.950 . S
C1775 C1772 1.387 . S
C1776 C1777 1.387 . S
C1776 H1780 0.950 . S
C1776 C1785 1.390 . S
C1777 C1776 1.387 . S
C1777 C1779 1.387 . S
H1778 C1785 0.950 . S
C1779 C1777 1.387 . S
C1779 C1781 1.390 . S
C1779 H1783 0.950 . S
H1780 C1776 0.950 . S
C1781 C1779 1.390 . S
C1781 C1782 1.387 . S
C1781 H1784 0.950 . S
C1782 C1781 1.387 . S
C1782 C1785 1.387 . S
H1783 C1779 0.950 . S
H1784 C1781 0.950 . S
C1785 C1776 1.390 . S
C1785 H1778 0.950 . S
C1785 C1782 1.387 . S
C1786 C1787 1.387 . S
C1786 H1790 0.950 . S
C1786 C1795 1.390 . S
C1787 C1786 1.387 . S
C1787 C1789 1.387 . S
H1788 C1795 0.950 . S
C1789 C1787 1.387 . S
C1789 C1791 1.390 . S
C1789 H1793 0.950 . S
H1790 C1786 0.950 . S
C1791 C1789 1.390 . S
C1791 C1792 1.387 . S
C1791 H1794 0.950 . S
C1792 C1791 1.387 . S
C1792 C1795 1.387 . S
H1793 C1789 0.950 . S
H1794 C1791 0.950 . S
C1795 C1786 1.390 . S
C1795 H1788 0.950 . S
C1795 C1792 1.387 . S
C1796 C1797 1.387 . S
C1796 H1800 0.950 . S
C1796 C1805 1.390 . S
C1797 C1796 1.387 . S
C1797 C1799 1.387 . S
H1798 C1805 0.950 . S
C1799 C1797 1.387 . S
C1799 C1801 1.390 . S
C1799 H1803 0.950 . S
H1800 C1796 0.950 . S
C1801 C1799 1.390 . S
C1801 C1802 1.387 . S
C1801 H1804 0.950 . S
C1802 C1801 1.387 . S
C1802 C1805 1.387 . S
H1803 C1799 0.950 . S
H1804 C1801 0.950 . S
C1805 C1796 1.390 . S
C1805 H1798 0.950 . S
C1805 C1802 1.387 . S
C1806 C1807 1.387 . S
C1806 H1810 0.950 . S
C1806 C1815 1.390 . S
C1807 C1806 1.387 . S
C1807 C1809 1.387 . S
H1808 C1815 0.950 . S
C1809 C1807 1.387 . S
C1809 C1811 1.390 . S
C1809 H1813 0.950 . S
H1810 C1806 0.950 . S
C1811 C1809 1.390 . S
C1811 C1812 1.387 . S
C1811 H1814 0.950 . S
C1812 C1811 1.387 . S
C1812 C1815 1.387 . S
H1813 C1809 0.950 . S
H1814 C1811 0.950 . S
C1815 C1806 1.390 . S
C1815 H1808 0.950 . S
C1815 C1812 1.387 . S
C1816 C1817 1.387 . S
C1816 H1820 0.950 . S
C1816 C1825 1.390 . S
C1817 C1816 1.387 . S
C1817 C1819 1.387 . S
H1818 C1825 0.950 . S
C1819 C1817 1.387 . S
C1819 C1821 1.390 . S
C1819 H1823 0.950 . S
H1820 C1816 0.950 . S
C1821 C1819 1.390 . S
C1821 C1822 1.387 . S
C1821 H1824 0.950 . S
C1822 C1821 1.387 . S
C1822 C1825 1.387 . S
H1823 C1819 0.950 . S
H1824 C1821 0.950 . S
C1825 C1816 1.390 . S
C1825 H1818 0.950 . S
C1825 C1822 1.387 . S
C1826 C1827 1.387 . S
C1826 H1830 0.950 . S
C1826 C1835 1.390 . S
C1827 C1826 1.387 . S
C1827 C1829 1.387 . S
H1828 C1835 0.950 . S
C1829 C1827 1.387 . S
C1829 C1831 1.390 . S
C1829 H1833 0.950 . S
H1830 C1826 0.950 . S
C1831 C1829 1.390 . S
C1831 C1832 1.387 . S
C1831 H1834 0.950 . S
C1832 C1831 1.387 . S
C1832 C1835 1.387 . S
H1833 C1829 0.950 . S
H1834 C1831 0.950 . S
C1835 C1826 1.390 . S
C1835 H1828 0.950 . S
C1835 C1832 1.387 . S
C1836 C1837 1.387 . S
C1836 H1840 0.950 . S
C1836 C1845 1.390 . S
C1837 C1836 1.387 . S
C1837 C1839 1.387 1_455 S
H1838 C1845 0.950 . S
C1839 C1837 1.387 1_655 S
C1839 C1841 1.390 . S
C1839 H1843 0.950 . S
H1840 C1836 0.950 . S
C1841 C1839 1.390 . S
C1841 C1842 1.387 1_655 S
C1841 H1844 0.950 . S
C1842 C1841 1.387 1_455 S
C1842 C1845 1.387 . S
H1843 C1839 0.950 . S
H1844 C1841 0.950 . S
C1845 C1836 1.390 . S
C1845 H1838 0.950 . S
C1845 C1842 1.387 . S
C1846 C1847 1.387 . S
C1846 H1850 0.950 . S
C1846 C1855 1.390 . S
C1847 C1846 1.387 . S
C1847 C1849 1.387 . S
H1848 C1855 0.950 . S
C1849 C1847 1.387 . S
C1849 C1851 1.390 . S
C1849 H1853 0.950 . S
H1850 C1846 0.950 . S
C1851 C1849 1.390 . S
C1851 C1852 1.387 . S
C1851 H1854 0.950 . S
C1852 C1851 1.387 . S
C1852 C1855 1.387 . S
H1853 C1849 0.950 . S
H1854 C1851 0.950 . S
C1855 C1846 1.390 . S
C1855 H1848 0.950 . S
C1855 C1852 1.387 . S
C1856 C1857 1.387 . S
C1856 H1860 0.950 . S
C1856 C1865 1.390 . S
C1857 C1856 1.387 . S
C1857 C1859 1.387 . S
H1858 C1865 0.950 . S
C1859 C1857 1.387 . S
C1859 C1861 1.390 . S
C1859 H1863 0.950 . S
H1860 C1856 0.950 . S
C1861 C1859 1.390 . S
C1861 C1862 1.387 . S
C1861 H1864 0.950 . S
C1862 C1861 1.387 . S
C1862 C1865 1.387 . S
H1863 C1859 0.950 . S
H1864 C1861 0.950 . S
C1865 C1856 1.390 . S
C1865 H1858 0.950 . S
C1865 C1862 1.387 . S
C1866 C1867 1.387 . S
C1866 H1870 0.950 . S
C1866 C1875 1.390 . S
C1867 C1866 1.387 . S
C1867 C1869 1.387 . S
H1868 C1875 0.950 . S
C1869 C1867 1.387 . S
C1869 C1871 1.390 1_565 S
C1869 H1873 0.950 . S
H1870 C1866 0.950 . S
C1871 C1869 1.390 1_545 S
C1871 C1872 1.387 . S
C1871 H1874 0.950 . S
C1872 C1871 1.387 . S
C1872 C1875 1.387 1_545 S
H1873 C1869 0.950 . S
H1874 C1871 0.950 . S
C1875 C1866 1.390 . S
C1875 H1868 0.950 . S
C1875 C1872 1.387 1_565 S
C1876 C1877 1.387 . S
C1876 H1880 0.950 . S
C1876 C1885 1.390 . S
C1877 C1876 1.387 . S
C1877 C1879 1.387 . S
H1878 C1885 0.950 . S
C1879 C1877 1.387 . S
C1879 C1881 1.390 . S
C1879 H1883 0.950 . S
H1880 C1876 0.950 . S
C1881 C1879 1.390 . S
C1881 C1882 1.387 . S
C1881 H1884 0.950 . S
C1882 C1881 1.387 . S
C1882 C1885 1.387 . S
H1883 C1879 0.950 . S
H1884 C1881 0.950 . S
C1885 C1876 1.390 . S
C1885 H1878 0.950 . S
C1885 C1882 1.387 . S
C1886 C1887 1.387 1_554 S
C1886 H1890 0.950 . S
C1886 C1895 1.390 . S
C1887 C1886 1.387 1_556 S
C1887 C1889 1.387 . S
H1888 C1895 0.950 . S
C1889 C1887 1.387 . S
C1889 C1891 1.390 . S
C1889 H1893 0.950 . S
H1890 C1886 0.950 . S
C1891 C1889 1.390 . S
C1891 C1892 1.387 1_556 S
C1891 H1894 0.950 . S
C1892 C1891 1.387 1_554 S
C1892 C1895 1.387 . S
H1893 C1889 0.950 . S
H1894 C1891 0.950 . S
C1895 C1886 1.390 . S
C1895 H1888 0.950 . S
C1895 C1892 1.387 . S
C1896 C1897 1.387 . S
C1896 H1900 0.950 . S
C1896 C1905 1.390 . S
C1897 C1896 1.387 . S
C1897 C1899 1.387 . S
H1898 C1905 0.950 . S
C1899 C1897 1.387 . S
C1899 C1901 1.390 . S
C1899 H1903 0.950 . S
H1900 C1896 0.950 . S
C1901 C1899 1.390 . S
C1901 C1902 1.387 . S
C1901 H1904 0.950 . S
C1902 C1901 1.387 . S
C1902 C1905 1.387 . S
H1903 C1899 0.950 . S
H1904 C1901 0.950 . S
C1905 C1896 1.390 . S
C1905 H1898 0.950 . S
C1905 C1902 1.387 . S
C1906 C1907 1.387 . S
C1906 H1910 0.950 . S
C1906 C1915 1.390 . S
C1907 C1906 1.387 . S
C1907 C1909 1.383 1_554 S
H1908 C1915 0.950 . S
C1909 C1907 1.383 1_556 S
C1909 C1911 1.390 . S
C1909 H1913 0.954 . S
H1910 C1906 0.950 . S
C1911 C1909 1.390 . S
C1911 C1912 1.387 1_556 S
C1911 H1914 0.950 . S
C1912 C1911 1.387 1_554 S
C1912 C1915 1.387 . S
H1913 C1909 0.954 . S
H1914 C1911 0.950 . S
C1915 C1906 1.390 . S
C1915 H1908 0.950 . S
C1915 C1912 1.387 . S
C1916 C1917 1.387 . S
C1916 H1920 0.950 . S
C1916 C1925 1.390 . S
C1917 C1916 1.387 . S
C1917 C1919 1.387 . S
H1918 C1925 0.950 . S
C1919 C1917 1.387 . S
C1919 C1921 1.390 . S
C1919 H1923 0.950 . S
H1920 C1916 0.950 . S
C1921 C1919 1.390 . S
C1921 C1922 1.387 . S
C1921 H1924 0.950 . S
C1922 C1921 1.387 . S
C1922 C1925 1.387 . S
H1923 C1919 0.950 . S
H1924 C1921 0.950 . S
C1925 C1916 1.390 . S
C1925 H1918 0.950 . S
C1925 C1922 1.387 . S
C1926 C1927 1.387 . S
C1926 H1930 0.950 . S
C1926 C1935 1.390 . S
C1927 C1926 1.387 . S
C1927 C1929 1.387 . S
H1928 C1935 0.950 . S
C1929 C1927 1.387 . S
C1929 C1931 1.390 . S
C1929 H1933 0.950 . S
H1930 C1926 0.950 . S
C1931 C1929 1.390 . S
C1931 C1932 1.387 . S
C1931 H1934 0.950 . S
C1932 C1931 1.387 . S
C1932 C1935 1.387 . S
H1933 C1929 0.950 . S
H1934 C1931 0.950 . S
C1935 C1926 1.390 . S
C1935 H1928 0.950 . S
C1935 C1932 1.387 . S
C977 C105 1.934 1_455 S
C982 C358 1.915 1_556 S
C987 C65 1.469 . S
C992 C378 1.449 . S
C997 C73 0.883 . S
C1002 C425 0.881 . S
C1012 C482 1.264 . S
C1007 C92 1.323 . S
C1017 C17 2.688 . S
C1022 C499 2.665 1_565 S
C1032 C558 1.931 . S
C1027 C37 1.944 . S
C1042 C591 2.768 . S
C1037 C49 2.696 . S
C1047 C8 2.565 . S
C1052 C638 2.519 . S
C1062 C351 1.926 . S
C1057 C231 1.795 1_545 S
C1067 C241 1.611 . S
C1072 C379 1.609 . S
C1082 C418 0.643 . S
C1077 C273 0.671 . S
C1092 C478 2.281 . S
C1087 C171 2.270 . S
C1097 C227 0.703 . S
C1102 C505 0.709 . S
C1112 C551 2.268 . S
C1107 C245 2.263 . S
C1122 C602 0.931 . S
C1117 C269 0.961 . S
C1132 C631 2.398 . S
C1127 C175 2.314 . S
C1142 C362 2.138 1_565 S
C1137 C162 2.225 . S
C1147 C289 2.227 . S
C1152 C658 2.193 . S
C1162 C722 1.612 . S
C1157 C330 1.638 . S
C1172 C758 1.628 . S
C1167 C317 1.655 . S
C1177 C120 1.908 . S
C1182 C642 1.944 . S
C1187 C134 2.612 . S
C1192 C419 2.616 . S
C1197 C331 1.566 . S
C1202 C791 1.622 . S
C1212 C825 0.629 . S
C1207 C303 0.576 . S
C1222 C339 1.995 1_565 S
C1217 C59 2.011 . S
C1232 C831 1.626 . S
C1227 C107 1.619 . S
C1237 C91 0.953 . S
C1242 C442 0.934 . S
C1247 C78 1.323 . S
C1252 C785 1.308 . S
C1262 C518 2.703 . S
C1257 C7 2.687 . S
C1267 C51 1.987 . S
C1272 C699 1.975 . S
C1282 C578 2.756 1_566 S
C1277 C31 2.780 . S
C1292 C859 2.534 . S
C1287 C22 2.562 . S
C1302 C338 1.839 . S
C1297 C143 1.780 . S
C1312 C838 1.683 . S
C1307 C315 1.692 . S
C1317 C115 0.670 . S
C1322 C431 0.666 . S
C1327 C287 2.198 . S
C1332 C779 2.295 . S
C1337 C147 0.749 . S
C1342 C522 0.750 . S
C1352 C698 2.306 . S
C1347 C311 2.307 . S
C1357 C119 0.920 . S
C1362 C585 0.944 . S
C1367 C283 2.401 . S
C1372 C858 2.400 . S
C1377 C190 2.059 1_556 S
C1382 C345 2.024 . S
C1387 C177 2.207 . S
C1392 C671 2.183 . S
C1397 C260 1.598 . S
C1402 C545 1.631 . S
C1407 C247 1.693 . S
C1412 C739 1.661 . S
C1422 C865 1.859 . S
C1417 C274 1.763 . S
C1427 C218 2.631 . S
C1432 C438 2.637 1_565 S
C1442 C458 1.640 . S
C1437 C261 1.554 . S
C1452 C402 0.735 . S
C1447 C205 0.732 . S
C1457 C77 2.048 . S
C1462 C918 2.042 . S
C1472 C818 1.453 . S
C1467 C93 1.480 . S
C1477 C101 0.816 . S
C1482 C945 0.817 . S
C1487 C64 1.365 . S
C1492 C802 1.300 1_455 S
C1497 C45 2.677 . S
C1502 C659 2.653 . S
C1512 C718 1.960 . S
C1507 C9 1.971 . S
C1522 C751 2.775 . S
C1517 C21 2.705 . S
C1532 C878 2.468 . S
C1527 C36 2.516 . S
C1542 C911 1.879 . S
C1537 C259 1.753 . S
C1547 C185 1.589 . S
C1552 C819 1.590 . S
C1562 C938 0.663 . S
C1557 C203 0.678 . S
C1572 C798 2.275 . S
C1567 C213 2.266 . S
C1582 C665 0.705 . S
C1577 C255 0.696 . S
C1587 C189 2.297 . S
C1592 C711 2.295 . S
C1602 C762 0.919 . S
C1597 C199 0.950 . S
C1607 C217 2.297 . S
C1612 C871 2.377 . S
C1622 C922 2.157 . S
C1617 C316 2.242 . S
C1627 C135 2.258 . S
C1632 C498 2.222 . S
C1642 C562 1.576 . S
C1637 C148 1.602 . S
C1652 C598 1.628 1_565 S
C1647 C163 1.654 . S
C1662 C882 1.736 . S
C1657 C302 1.721 . S
C1667 C288 2.633 . S
C1672 C939 2.635 1_655 S
C1682 C471 1.649 . S
C1677 C149 1.596 . S
C1692 C385 0.694 . S
C1687 C121 0.685 . S
C1697 C87 2.036 . S
C1702 C899 2.028 . S
C1712 C391 1.457 . S
C1707 C79 1.442 . S
C1717 C63 0.953 . S
C1722 C962 0.933 . S
C1727 C106 1.219 . S
C1732 C465 1.202 . S
C1737 C35 2.683 . S
C1742 C678 2.698 . S
C1752 C539 1.994 . S
C1747 C23 2.007 . S
C1757 C3 2.807 . S
C1762 C738 2.803 . S
C1767 C50 2.527 . S
C1772 C619 2.495 . S
C1782 C898 1.870 . S
C1777 C325 1.810 . S
C1787 C161 1.687 . S
C1792 C398 1.676 . S
C1802 C951 0.598 . S
C1797 C297 0.576 . S
C1807 C133 2.217 . S
C1812 C459 2.310 . S
C1817 C329 0.730 . S
C1822 C682 0.733 . S
C1832 C538 2.334 . S
C1827 C157 2.334 1_556 S
C1837 C301 0.887 . S
C1842 C745 0.914 . S
C1852 C618 2.395 . S
C1847 C129 2.398 . S
C1862 C905 2.081 . S
C1857 C246 2.121 . S
C1872 C511 2.224 . S
C1867 C219 2.247 . S
C1877 C232 1.568 . S
C1882 C705 1.601 . S
C1892 C579 1.625 . S
C1887 C191 1.656 . S
C1897 C204 1.763 . S
C1902 C625 1.852 . S
C1907 C176 2.660 . S
C1912 C958 2.665 . S
C1922 C778 1.657 . S
C1917 C233 1.570 . S
C1932 C842 0.762 . S
C1927 C275 0.763 . S
