# Generated by pormake.
# Topology anh, (6,3)-cn, num edge types: 1
# Building blocks:
#     Node 0, Type 0, BuildingBlock: GEDQOX_clean_sbu_0, # of connection points: 6
#     Node 1, Type 0, BuildingBlock: GEDQOX_clean_sbu_0, # of connection points: 6
#     Node 2, Type 0, BuildingBlock: GEDQOX_clean_sbu_0, # of connection points: 6
#     Node 3, Type 1, BuildingBlock: WUSLED_clean_sbu_0, # of connection points: 3
#     Node 4, Type 1, BuildingBlock: WUSLED_clean_sbu_0, # of connection points: 3
#     Node 5, Type 1, BuildingBlock: WUSLED_clean_sbu_0, # of connection points: 3
#     Node 6, Type 1, BuildingBlock: WUSLED_clean_sbu_0, # of connection points: 3
#     Node 7, Type 1, BuildingBlock: WUSLED_clean_sbu_0, # of connection points: 3
#     Node 8, Type 1, BuildingBlock: WUSLED_clean_sbu_0, # of connection points: 3
#     Edge 9, Type (0, 1), BuildingBlock: OJICUG_clean_linker_0, # of connection points: 2
#     Edge 10, Type (0, 1), BuildingBlock: OJICUG_clean_linker_0, # of connection points: 2
#     Edge 11, Type (0, 1), BuildingBlock: OJICUG_clean_linker_0, # of connection points: 2
#     Edge 12, Type (0, 1), BuildingBlock: OJICUG_clean_linker_0, # of connection points: 2
#     Edge 13, Type (0, 1), BuildingBlock: OJICUG_clean_linker_0, # of connection points: 2
#     Edge 14, Type (0, 1), BuildingBlock: OJICUG_clean_linker_0, # of connection points: 2
#     Edge 15, Type (0, 1), BuildingBlock: OJICUG_clean_linker_0, # of connection points: 2
#     Edge 16, Type (0, 1), BuildingBlock: OJICUG_clean_linker_0, # of connection points: 2
#     Edge 17, Type (0, 1), BuildingBlock: OJICUG_clean_linker_0, # of connection points: 2
#     Edge 18, Type (0, 1), BuildingBlock: OJICUG_clean_linker_0, # of connection points: 2
#     Edge 19, Type (0, 1), BuildingBlock: OJICUG_clean_linker_0, # of connection points: 2
#     Edge 20, Type (0, 1), BuildingBlock: OJICUG_clean_linker_0, # of connection points: 2
#     Edge 21, Type (0, 1), BuildingBlock: OJICUG_clean_linker_0, # of connection points: 2
#     Edge 22, Type (0, 1), BuildingBlock: OJICUG_clean_linker_0, # of connection points: 2
#     Edge 23, Type (0, 1), BuildingBlock: OJICUG_clean_linker_0, # of connection points: 2
#     Edge 24, Type (0, 1), BuildingBlock: OJICUG_clean_linker_0, # of connection points: 2
#     Edge 25, Type (0, 1), BuildingBlock: OJICUG_clean_linker_0, # of connection points: 2
#     Edge 26, Type (0, 1), BuildingBlock: OJICUG_clean_linker_0, # of connection points: 2
# Relax obj value: 0.190
# Max RMSD: 0.216
# Mean RMSD: 0.157
data_MOF--net-anh--node1-GEDQOX_clean_sbu_0--node2-WUSLED_clean_sbu_0--edge1-OJICUG_clean_linker_0
_symmetry_space_group_name_H-M    P1
_symmetry_Int_Tables_number       1
_symmetry_cell_setting            triclinic
loop_
_symmetry_equiv_pos_as_xyz
'x, y, z'
_cell_length_a     30.964949
_cell_length_b     30.215033
_cell_length_c     54.371879
_cell_angle_alpha  94.290254
_cell_angle_beta   90.296371
_cell_angle_gamma 103.35842
loop_
_atom_site_label
_atom_site_type_symbol
_atom_site_fract_x
_atom_site_fract_y
_atom_site_fract_z
_atom_type_partial_charge
Nd0 Nd 0.12238 0.55775 0.18398 0.0
Nd1 Nd 0.09371 0.44907 0.18619 0.0
C2 C 0.15684 0.63801 0.16752 0.0
C3 C 0.198 0.67429 0.17271 0.0
C4 C 0.23583 0.67514 0.15829 0.0
C5 C 0.27519 0.70828 0.16365 0.0
C6 C 0.27732 0.74176 0.18326 0.0
C7 C 0.2394 0.74144 0.19739 0.0
C8 C 0.20022 0.70808 0.19222 0.0
C9 C 0.12135 0.53647 0.23261 0.0
C10 C 0.20022 0.49494 0.18336 0.0
C11 C 1.05191 0.36562 0.19533 0.0
C12 C 1.00468 0.34173 0.19739 0.0
C13 C 0.97763 0.35625 0.21551 0.0
C14 C 0.93326 0.33298 0.2173 0.0
C15 C 0.9148 0.29494 0.20093 0.0
C16 C 0.94145 0.28131 0.18233 0.0
C17 C 0.98599 0.30434 0.18068 0.0
C18 C 0.11075 0.48185 0.14133 0.0
C19 C 1.01461 0.50939 0.18103 0.0
O20 O 0.16195 0.59941 0.15661 0.0
O21 O 0.12681 0.63219 0.18472 0.0
O22 O 0.13209 0.57783 0.22588 0.0
O23 O 0.11308 0.50908 0.21363 0.0
O24 O 0.18844 0.53329 0.17882 0.0
O25 O 0.17044 0.45862 0.19 0.0
O26 O 1.06921 0.39725 0.21277 0.0
O27 O 1.06445 0.37697 0.17328 0.0
O28 O 0.12091 0.44438 0.14704 0.0
O29 O 0.09054 0.49824 0.15837 0.0
O30 O 1.02519 0.46975 0.18399 0.0
O31 O 1.04558 0.54789 0.17969 0.0
H32 H 0.23517 0.6499 0.14297 0.0
H33 H 0.3039 0.70791 0.1524 0.0
H34 H 0.24033 0.76654 0.21282 0.0
H35 H 0.17183 0.70858 0.20369 0.0
H36 H 0.99072 0.38539 0.22843 0.0
H37 H 0.91336 0.34462 0.23161 0.0
H38 H 0.92827 0.25196 0.16956 0.0
H39 H 1.006 0.29265 0.16643 0.0
Nd40 Nd 0.53768 0.02134 0.54251 0.0
Nd41 Nd 0.63529 0.04732 0.53826 0.0
C42 C 0.45615 0.98019 0.55391 0.0
C43 C 0.42721 0.93427 0.54759 0.0
C44 C 0.42332 0.89976 0.56402 0.0
C45 C 0.39744 0.85584 0.5576 0.0
C46 C 0.37517 0.84562 0.53459 0.0
C47 C 0.37849 0.88027 0.51837 0.0
C48 C 0.40404 0.92409 0.52481 0.0
C49 C 0.56341 0.0357 0.4948 0.0
C50 C 0.59356 0.9401 0.536 0.0
C51 C 0.71856 0.08666 0.52893 0.0
C52 C 0.74511 0.13365 0.52679 0.0
C53 C 0.73892 0.15839 0.50669 0.0
C54 C 0.76556 0.20197 0.50443 0.0
C55 C 0.79882 0.22182 0.52224 0.0
C56 C 0.80414 0.19767 0.54271 0.0
C57 C 0.77771 0.15391 0.54488 0.0
C58 C 0.60797 0.03056 0.58519 0.0
C59 C 0.57905 0.12749 0.54621 0.0
O60 O 0.49085 0.98211 0.56811 0.0
O61 O 0.46494 1.00752 0.5361 0.0
O62 O 0.52882 0.04654 0.50456 0.0
O63 O 0.58217 1.01527 0.50962 0.0
O64 O 0.55694 0.95244 0.54267 0.0
O65 O 0.62922 0.97051 0.5302 0.0
O66 O 0.68854 0.0693 0.51168 0.0
O67 O 0.70497 0.07643 0.55094 0.0
O68 O 0.64014 1.01593 0.57475 0.0
O69 O 0.59095 0.05348 0.57095 0.0
O70 O 0.6148 0.11614 0.53713 0.0
O71 O 0.54514 0.09675 0.5534 0.0
H72 H 0.44064 0.90659 0.58175 0.0
H73 H 0.39545 0.82972 0.57043 0.0
H74 H 0.36098 0.87356 0.50069 0.0
H75 H 0.40585 0.94984 0.51178 0.0
H76 H 0.7139 0.14397 0.49249 0.0
H77 H 0.76042 0.22003 0.48859 0.0
H78 H 0.82978 0.21192 0.5566 0.0
H79 H 0.78325 0.13559 0.56055 0.0
Nd80 Nd 0.54438 0.51245 0.85609 0.0
Nd81 Nd 0.64132 0.53988 0.85965 0.0
C82 C 0.46033 0.4909 0.84389 0.0
C83 C 0.43556 0.52406 0.83663 0.0
C84 C 0.43015 0.53086 0.81159 0.0
C85 C 0.41074 0.56567 0.80481 0.0
C86 C 0.39644 0.59425 0.82296 0.0
C87 C 0.40427 0.58872 0.84803 0.0
C88 C 0.42299 0.55384 0.85473 0.0
C89 C 0.57655 0.5308 0.90424 0.0
C90 C 0.58986 0.6192 0.85783 0.0
C91 C 0.72234 0.54727 0.8748 0.0
C92 C 0.75155 0.52026 0.86359 0.0
C93 C 0.77555 0.4986 0.87858 0.0
C94 C 0.80504 0.47472 0.86802 0.0
C95 C 0.81144 0.47327 0.84229 0.0
C96 C 0.78122 0.48758 0.82722 0.0
C97 C 0.7521 0.51187 0.83782 0.0
C98 C 0.62137 0.5382 0.80985 0.0
C99 C 0.59782 0.43188 0.8474 0.0
O100 O 0.49064 0.48363 0.8285 0.0
O101 O 0.47413 0.49544 0.86692 0.0
O102 O 0.54416 0.54619 0.89567 0.0
O103 O 0.59149 0.50804 0.88722 0.0
O104 O 0.55795 0.58724 0.84687 0.0
O105 O 0.6228 0.60836 0.86961 0.0
O106 O 0.68866 0.52328 0.88595 0.0
O107 O 0.71176 0.57747 0.86125 0.0
O108 O 0.66105 0.55037 0.81932 0.0
O109 O 0.59341 0.52885 0.82659 0.0
O110 O 0.63478 0.46393 0.84904 0.0
O111 O 0.55869 0.44136 0.85051 0.0
H112 H 0.44061 0.50905 0.79723 0.0
H113 H 0.40452 0.56862 0.78545 0.0
H114 H 0.39306 0.60916 0.86276 0.0
H115 H 0.42736 0.55023 0.87421 0.0
H116 H 0.7732 0.50213 0.89848 0.0
H117 H 0.82647 0.46269 0.88041 0.0
H118 H 0.78392 0.4851 0.80732 0.0
H119 H 0.73178 0.52587 0.82576 0.0
C120 C 0.66216 0.11379 0.22494 0.0
C121 C 0.67826 0.15121 0.24202 0.0
C122 C 0.73969 0.18005 0.21513 0.0
C123 C 0.7164 0.18417 0.23708 0.0
C124 C 0.72237 0.14324 0.1977 0.0
C125 C 0.68397 0.11051 0.20258 0.0
U126 U 0.59 0.04324 0.27153 0.0
O127 O 0.51829 1.01261 0.27119 0.0
O128 O 0.56579 0.96866 0.27124 0.0
C129 C 0.52392 0.97066 0.26996 0.0
C130 C 0.62468 0.07646 0.23083 0.0
C131 C 0.49525 0.93711 0.25224 0.0
C132 C 0.45003 0.9171 0.21452 0.0
C133 C 0.48116 0.94899 0.22954 0.0
C134 C 0.44885 0.86067 0.24406 0.0
C135 C 0.43309 0.87283 0.22187 0.0
C136 C 0.47945 0.89257 0.25912 0.0
C137 C 0.61406 0.07191 0.34081 0.0
C138 C 0.57077 0.02852 0.37195 0.0
C139 C 0.63392 0.0902 0.38436 0.0
C140 C 0.64155 0.09857 0.35957 0.0
C141 C 0.59836 0.05516 0.39086 0.0
C142 C 0.57869 0.03668 0.34713 0.0
C143 C 0.62304 0.08101 0.31481 0.0
O144 O 0.63606 0.04249 0.24089 0.0
O145 O 0.59072 0.08857 0.24154 0.0
O146 O 0.59191 0.09437 0.30285 0.0
O147 O 0.6392 0.05041 0.3018 0.0
H148 H 0.66192 0.15443 0.25941 0.0
H149 H 0.72806 0.21249 0.25073 0.0
H150 H 0.73944 0.13853 0.18072 0.0
H151 H 0.67209 0.08178 0.18918 0.0
H152 H 0.43851 0.92722 0.19743 0.0
H153 H 0.4932 0.98313 0.22378 0.0
H154 H 0.43592 0.82707 0.25036 0.0
H155 H 0.48977 0.8828 0.2766 0.0
H156 H 0.54329 1.00113 0.37636 0.0
H157 H 0.65535 0.1117 0.39848 0.0
H158 H 0.66894 0.12599 0.35506 0.0
H159 H 0.55722 1.01556 0.33288 0.0
C160 C 0.58939 0.65651 0.54885 0.0
C161 C 0.57228 0.68206 0.56734 0.0
C162 C 0.59423 0.75004 0.54452 0.0
C163 C 0.57458 0.72845 0.56515 0.0
C164 C 0.61212 0.72442 0.52635 0.0
C165 C 0.60955 0.67806 0.52847 0.0
U166 U 0.57944 0.54221 0.57998 0.0
O167 O 0.53997 0.47489 0.56518 0.0
O168 O 0.6131 0.48863 0.5667 0.0
C169 C 0.57564 0.45997 0.55957 0.0
C170 C 0.58535 0.60712 0.54959 0.0
C171 C 0.57348 0.41093 0.55934 0.0
C172 C 0.57076 0.33992 0.53465 0.0
C173 C 0.57099 0.38624 0.5363 0.0
C174 C 0.57553 0.34216 0.57926 0.0
C175 C 0.57319 0.31737 0.55608 0.0
C176 C 0.57557 0.38876 0.5809 0.0
C177 C 0.57934 0.55368 0.65394 0.0
C178 C 0.58596 0.50548 0.6872 0.0
C179 C 0.58217 0.58399 0.69683 0.0
C180 C 0.57832 0.58951 0.6717 0.0
C181 C 0.58667 0.54222 0.70493 0.0
C182 C 0.58268 0.51126 0.66179 0.0
C183 C 0.57979 0.564 0.62775 0.0
O184 O 0.61998 0.59471 0.5583 0.0
O185 O 0.54739 0.58281 0.55689 0.0
O186 O 0.54303 0.55049 0.61427 0.0
O187 O 0.61607 0.5639 0.61531 0.0
H188 H 0.55671 0.66609 0.58326 0.0
H189 H 0.56091 0.74746 0.57959 0.0
H190 H 0.62697 0.73989 0.51013 0.0
H191 H 0.62274 0.65878 0.51394 0.0
H192 H 0.56959 0.32196 0.51656 0.0
H193 H 0.56978 0.40301 0.51945 0.0
H194 H 0.57712 0.32545 0.59607 0.0
H195 H 0.57757 0.40743 0.59882 0.0
H196 H 0.58965 0.47297 0.69295 0.0
H197 H 0.58241 0.61278 0.71 0.0
H198 H 0.57576 0.6225 0.66608 0.0
H199 H 0.5837 0.48318 0.64837 0.0
C200 C 1.06786 0.5827 0.87653 0.0
C201 C 1.02937 0.57607 0.89051 0.0
C202 C 0.986 0.54742 0.85324 0.0
C203 C 0.9884 0.55816 0.87885 0.0
C204 C 1.02361 0.56056 0.839 0.0
C205 C 1.06477 0.57806 0.85072 0.0
U206 U 0.12959 0.55924 0.93212 0.0
O207 O 0.17284 0.51092 0.93389 0.0
O208 O 0.1997 0.58418 0.94366 0.0
C209 C 0.20823 0.54502 0.93551 0.0
C210 C 0.10875 0.57864 0.8882 0.0
C211 C 0.23538 0.54893 0.91344 0.0
C212 C 0.23079 0.55627 0.86934 0.0
C213 C 0.21339 0.53611 0.89038 0.0
C214 C 0.29584 0.59729 0.89325 0.0
C215 C 0.27166 0.58823 0.87059 0.0
C216 C 0.27757 0.57824 0.91456 0.0
C217 C 1.08265 0.54479 0.99383 0.0
C218 C 0.13378 0.53368 0.02535 0.0
C219 C 1.05785 0.53541 0.03548 0.0
C220 C 1.04907 0.54221 1.01106 0.0
C221 C 0.10032 0.53126 0.04279 0.0
C222 C 0.12495 0.54038 1.00099 0.0
C223 C 1.07487 0.55382 0.96851 0.0
O224 O 0.12616 0.61027 0.90566 0.0
O225 O 0.1066 0.53696 0.89428 0.0
O226 O 1.0744 0.51929 0.95217 0.0
O227 O 0.09943 0.5928 0.96227 0.0
H228 H 1.03147 0.57939 0.9105 0.0
H229 H 0.95916 0.5492 0.88997 0.0
H230 H 1.02182 0.55317 0.81917 0.0
H231 H 0.09446 0.58298 0.83981 0.0
H232 H 0.21132 0.5478 0.85233 0.0
H233 H 0.1808 0.51327 0.88882 0.0
H234 H 0.32861 0.61982 0.89474 0.0
H235 H 0.29497 0.58883 0.93212 0.0
H236 H 0.16677 0.53083 0.03059 0.0
H237 H 1.03131 0.53283 0.04858 0.0
H238 H 1.01632 0.54556 1.00567 0.0
H239 H 0.15124 0.54257 0.98773 0.0
C240 C 1.00009 0.46279 0.49917 0.0
C241 C 0.96712 0.44579 0.48088 0.0
C242 C 0.92807 0.38981 0.50799 0.0
C243 C 0.9313 0.40987 0.4853 0.0
C244 C 0.96054 0.40808 0.52654 0.0
C245 C 0.99622 0.44428 0.52214 0.0
U246 U 1.07911 0.52339 0.45282 0.0
O247 O 0.1159 0.59474 0.45212 0.0
O248 O 0.15221 0.5403 0.45291 0.0
C249 C 0.15476 0.58443 0.45397 0.0
C250 C 1.04026 0.49705 0.49376 0.0
C251 C 0.18749 0.61309 0.47186 0.0
C252 C 0.20864 0.67634 0.50328 0.0
C253 C 0.17572 0.64451 0.48946 0.0
C254 C 0.26519 0.64381 0.48334 0.0
C255 C 0.25382 0.67737 0.49969 0.0
C256 C 0.23236 0.61212 0.46952 0.0
C257 C 1.05657 0.49245 0.38413 0.0
C258 C 0.11022 0.52489 0.35409 0.0
C259 C 1.03979 0.47537 0.34024 0.0
C260 C 1.02762 0.47023 0.36482 0.0
C261 C 1.08122 0.5029 0.33454 0.0
C262 C 0.09797 0.51979 0.37863 0.0
C263 C 1.04353 0.48685 0.4099 0.0
O264 O 1.07214 0.47999 0.48392 0.0
O265 O 1.0338 0.5325 0.48286 0.0
O266 O 1.03309 0.52242 0.42165 0.0
O267 O 1.06924 0.46824 0.42311 0.0
H268 H 0.96965 0.45955 0.46296 0.0
H269 H 0.90654 0.39728 0.47075 0.0
H270 H 0.95947 0.39324 0.54411 0.0
H271 H 1.02158 0.45683 0.53641 0.0
H272 H 0.19879 0.70189 0.51563 0.0
H273 H 0.14133 0.6459 0.49177 0.0
H274 H 0.29966 0.64326 0.48045 0.0
H275 H 0.24222 0.58809 0.45616 0.0
H276 H 0.14256 0.54591 0.35044 0.0
H277 H 1.01635 0.45853 0.32571 0.0
H278 H 0.99546 0.4491 0.36875 0.0
H279 H 0.1208 0.53716 0.39333 0.0
C280 C 0.59141 0.90264 0.84454 0.0
C281 C 0.57506 0.87056 0.82471 0.0
C282 C 0.59021 0.80928 0.84803 0.0
C283 C 0.5744 0.82424 0.82645 0.0
C284 C 0.60711 0.84205 0.86759 0.0
C285 C 0.60751 0.88803 0.86586 0.0
U286 U 0.58766 1.01446 0.81372 0.0
O287 O 0.55659 0.06895 0.82905 0.0
O288 O 0.62925 0.08241 0.82549 0.0
C289 C 0.59509 0.09803 0.83329 0.0
C290 C 0.59191 0.95145 0.84399 0.0
C291 C 0.59729 0.14701 0.8325 0.0
C292 C 0.60754 0.22076 0.85566 0.0
C293 C 0.60508 0.17403 0.8549 0.0
C294 C 0.59391 0.21438 0.81146 0.0
C295 C 0.6019 0.24148 0.834 0.0
C296 C 0.59187 0.16733 0.81067 0.0
C297 C 0.5745 1.00074 0.74039 0.0
C298 C 0.58596 0.05221 0.70735 0.0
C299 C 0.5653 0.97043 0.69757 0.0
C300 C 0.56379 0.96364 0.72265 0.0
C301 C 0.57744 1.01463 0.68958 0.0
C302 C 0.58483 0.04529 0.7327 0.0
C303 C 0.57808 0.99027 0.76625 0.0
O304 O 0.627 0.97701 0.83447 0.0
O305 O 0.55461 0.96176 0.83769 0.0
O306 O 0.54424 0.99074 0.7807 0.0
O307 O 0.61699 1.00434 0.77759 0.0
H308 H 0.56253 0.88123 0.80804 0.0
H309 H 0.5608 0.80013 0.81106 0.0
H310 H 0.62054 0.83237 0.88425 0.0
H311 H 0.62048 0.91234 0.88132 0.0
H312 H 0.613 0.24059 0.87331 0.0
H313 H 0.60911 0.15883 0.87195 0.0
H314 H 0.58956 0.22966 0.7945 0.0
H315 H 0.58595 0.14694 0.79321 0.0
H316 H 0.59552 0.08665 0.70167 0.0
H317 H 0.55814 0.94088 0.68435 0.0
H318 H 0.55575 0.92901 0.7282 0.0
H319 H 0.59329 0.0744 0.74617 0.0
C320 C 0.72959 0.50089 0.16449 0.0
C321 C 0.7553 0.49871 0.1433 0.0
C322 C 0.82353 0.50545 0.16866 0.0
C323 C 0.80149 0.50079 0.14537 0.0
C324 C 0.79738 0.50761 0.1897 0.0
C325 C 0.75146 0.50525 0.18762 0.0
U326 U 0.60909 0.49734 0.13564 0.0
O327 O 0.54483 0.45518 0.14774 0.0
O328 O 0.55789 0.52975 0.15268 0.0
C329 C 0.53015 0.49078 0.15625 0.0
C330 C 0.68025 0.498 0.16367 0.0
C331 C 0.48082 0.48824 0.15763 0.0
C332 C 0.41163 0.46545 0.1805 0.0
C333 C 0.45676 0.46546 0.17675 0.0
C334 C 0.41245 0.51061 0.14576 0.0
C335 C 0.38831 0.48827 0.16522 0.0
C336 C 0.45787 0.51077 0.1421 0.0
C337 C 0.61332 0.50673 0.06141 0.0
C338 C 0.56551 0.51106 0.02622 0.0
C339 C 0.6434 0.51436 0.02006 0.0
C340 C 0.64909 0.51032 0.04533 0.0
C341 C 0.60156 0.5149 1.00998 0.0
C342 C 0.57132 0.50701 0.05166 0.0
C343 C 0.62228 0.50368 0.08805 0.0
O344 O 0.66662 0.53479 0.15929 0.0
O345 O 0.65385 0.46072 0.15336 0.0
O346 O 0.6103 0.46438 0.09792 0.0
O347 O 0.62405 0.53934 0.10376 0.0
H348 H 0.73973 0.49535 0.12517 0.0
H349 H 0.82006 0.49931 0.12864 0.0
H350 H 0.81227 0.51035 0.20798 0.0
H351 H 0.73278 0.50662 0.20435 0.0
H352 H 0.39545 0.44846 0.19596 0.0
H353 H 0.47333 0.44835 0.18938 0.0
H354 H 0.39628 0.52811 0.13318 0.0
H355 H 0.47511 0.52894 0.12726 0.0
H356 H 0.53262 0.51073 0.01924 0.0
H357 H 0.67219 0.51793 1.00851 0.0
H358 H 0.6819 0.5104 0.0524 0.0
H359 H 0.54315 0.5042 0.06365 0.0
C360 C 0.27855 0.52921 0.16929 0.0
C361 C 0.24842 0.4929 0.17941 0.0
H362 H 0.34452 0.55673 0.15715 0.0
C363 C 0.26495 0.45483 0.18479 0.0
H364 H 0.26775 0.55929 0.16472 0.0
C365 C 0.30967 0.45324 0.18025 0.0
C366 C 0.33982 0.48954 0.16997 0.0
H367 H 0.24326 0.42597 0.19247 0.0
H368 H 0.3203 0.42292 0.18449 0.0
C369 C 0.32305 0.52754 0.16464 0.0
C370 C 0.84911 0.27378 0.4955 0.0
C371 C 0.82982 0.26613 0.51856 0.0
H372 H 0.89566 0.31793 0.47427 0.0
C373 C 0.84185 0.30012 0.53808 0.0
H374 H 0.84112 0.24788 0.48024 0.0
C375 C 0.87291 0.3408 0.5346 0.0
C376 C 0.89286 0.3481 0.51158 0.0
H377 H 0.8272 0.29525 0.55602 0.0
H378 H 0.88133 0.36645 0.54995 0.0
C379 C 0.88033 0.31411 0.49208 0.0
C380 C 0.58217 0.69536 0.87584 0.0
C381 C 0.58997 0.66748 0.85541 0.0
H382 H 0.57411 0.76117 0.88938 0.0
C383 C 0.59703 0.68575 0.83239 0.0
H384 H 0.57601 0.68168 0.89368 0.0
C385 C 0.5971 0.73161 0.82991 0.0
C386 C 0.58929 0.75998 0.85036 0.0
H387 H 0.60319 0.66466 0.81638 0.0
H388 H 0.60401 0.74495 0.81205 0.0
C389 C 0.58135 0.74096 0.87331 0.0
C390 C 0.94565 0.53799 0.19276 0.0
C391 C 0.96622 0.50959 0.17749 0.0
H392 H 0.88551 0.55874 0.20232 0.0
C393 C 0.9397 0.48053 0.15893 0.0
H394 H 0.9648 0.56066 0.20731 0.0
C395 C 0.8942 0.48003 0.15565 0.0
C396 C 0.87311 0.50764 0.17127 0.0
H397 H 0.95432 0.45829 0.14674 0.0
H398 H 0.87527 0.45703 0.14116 0.0
C399 C 0.89988 0.53662 0.18993 0.0
C400 C 0.31598 0.77644 0.54302 0.0
C401 C 0.348 0.79927 0.52724 0.0
H402 H 0.26091 0.71948 0.54674 0.0
C403 C 0.35174 0.77911 0.50349 0.0
H404 H 0.31246 0.79126 0.56145 0.0
C405 C 0.32252 0.73829 0.49512 0.0
C406 C 0.28871 0.71668 0.51029 0.0
H407 H 0.37652 0.79568 0.49106 0.0
H408 H 0.32506 0.72494 0.47627 0.0
C409 C 0.28636 0.7356 0.53455 0.0
C410 C 0.56625 0.35242 0.82915 0.0
C411 C 0.60038 0.38384 0.84254 0.0
H412 H 0.54065 0.28278 0.81538 0.0
C413 C 0.63641 0.3687 0.8518 0.0
H414 H 0.5383 0.36336 0.82165 0.0
C415 C 0.63738 0.32257 0.84857 0.0
C416 C 0.6029 0.29095 0.83546 0.0
H417 H 0.66312 0.39223 0.86225 0.0
H418 H 0.66488 0.31148 0.85652 0.0
C419 C 0.56777 0.30648 0.82539 0.0
C420 C 0.55564 0.86004 0.54363 0.0
C421 C 0.59403 0.89115 0.5366 0.0
H422 H 0.52574 0.79161 0.55156 0.0
C423 C 0.63247 0.87516 0.53152 0.0
H424 H 0.52522 0.87085 0.54756 0.0
C425 C 0.63261 0.82924 0.53385 0.0
C426 C 0.59444 0.79861 0.54152 0.0
H427 H 0.66259 0.89816 0.52612 0.0
H428 H 0.66284 0.8179 0.53018 0.0
C429 C 0.55591 0.81451 0.54612 0.0
C430 C 0.87684 0.51193 0.81995 0.0
C431 C 0.85679 0.47471 0.83346 0.0
H432 H 0.9345 0.56601 0.81675 0.0
C433 C 0.88423 0.45306 0.84647 0.0
H434 H 0.85727 0.52885 0.80895 0.0
C435 C 0.92824 0.4755 0.85153 0.0
C436 C 0.94543 0.51791 0.84219 0.0
H437 H 0.87013 0.42311 0.8561 0.0
H438 H 0.94756 0.4619 0.86447 0.0
C439 C 0.92107 0.53393 0.82464 0.0
C440 C 0.35897 0.76271 0.19355 0.0
C441 C 0.31916 0.77626 0.18965 0.0
H442 H 0.42661 0.78295 0.20685 0.0
C443 C 0.31881 0.82264 0.19371 0.0
H444 H 0.36013 0.72715 0.19058 0.0
C445 C 0.35691 0.85458 0.20261 0.0
C446 C 0.3959 0.84061 0.20804 0.0
H447 H 0.28864 0.834 0.19063 0.0
H448 H 0.35512 0.88977 0.20657 0.0
C449 C 0.3969 0.79455 0.20289 0.0
C450 C 0.60781 0.20684 0.56456 0.0
C451 C 0.57748 0.17575 0.54877 0.0
H452 H 0.62959 0.27616 0.57966 0.0
C453 C 0.54547 0.19098 0.53557 0.0
H454 H 0.6327 0.19551 0.57491 0.0
C455 C 0.54408 0.23703 0.53793 0.0
C456 C 0.57406 0.26833 0.554 0.0
H457 H 0.52197 0.16738 0.52319 0.0
H458 H 0.51931 0.24811 0.52736 0.0
C459 C 0.60579 0.25271 0.56739 0.0
C460 C 0.35867 0.65597 0.83321 0.0
C461 C 0.36188 0.6186 0.81687 0.0
H462 H 0.32587 0.67386 0.86577 0.0
C463 C 0.32184 0.58847 0.8089 0.0
H464 H 0.38789 0.68298 0.83784 0.0
C465 C 0.28735 0.58084 0.82556 0.0
C466 C 0.29161 0.60817 0.84799 0.0
H467 H 0.32155 0.56233 0.79408 0.0
H468 H 0.26169 0.54981 0.82243 0.0
C469 C 0.32373 0.64983 0.84974 0.0
C470 C 0.83918 0.25244 0.1842 0.0
C471 C 0.86891 0.26782 0.20434 0.0
H472 H 0.77461 0.214 0.1718 0.0
C473 C 0.8552 0.2556 0.22797 0.0
H474 H 0.8487 0.26166 0.16579 0.0
C475 C 0.8132 0.22791 0.23139 0.0
C476 C 0.7834 0.21197 0.21132 0.0
H477 H 0.87759 0.26624 0.24379 0.0
H478 H 0.80476 0.21784 0.24978 0.0
C479 C 0.7968 0.22502 0.18767 0.0
C480 C 0.13318 0.47619 0.09762 0.0
C481 C 0.11455 0.49871 0.11677 0.0
H482 H 0.14306 0.46899 0.05877 0.0
C483 C 0.09598 0.53543 0.11192 0.0
H484 H 0.14805 0.44807 0.10108 0.0
C485 C 0.0932 0.54741 0.08789 0.0
C486 C 0.10902 0.5229 0.06843 0.0
H487 H 1.08189 0.55369 0.12652 0.0
H488 H 1.07746 0.57493 0.08443 0.0
C489 C 0.13047 0.48827 0.07352 0.0
C490 C 0.61536 0.0405 0.45906 0.0
C491 C 0.57249 0.03776 0.46808 0.0
H492 H 0.65742 0.04903 0.42761 0.0
C493 C 0.53799 0.03883 0.45137 0.0
H494 H 0.64251 0.03953 0.47143 0.0
C495 C 0.5462 0.04308 0.42626 0.0
C496 C 0.58935 0.04752 0.41732 0.0
H497 H 0.50449 0.03646 0.45772 0.0
H498 H 0.51894 0.04426 0.41395 0.0
C499 C 0.62386 0.04602 0.43399 0.0
C500 C 0.63967 0.56939 0.76901 0.0
C501 C 0.6112 0.53848 0.78313 0.0
H502 H 0.65377 0.59495 0.73348 0.0
C503 C 0.5747 0.50756 0.77124 0.0
H504 H 0.66803 0.59361 0.77762 0.0
C505 C 0.56724 0.50744 0.74563 0.0
C506 C 0.59542 0.53911 0.73168 0.0
H507 H 0.55246 0.48307 0.78165 0.0
H508 H 0.53902 0.48332 0.73683 0.0
C509 C 0.63155 0.57012 0.74372 0.0
C510 C 0.6181 0.99795 0.62483 0.0
C511 C 0.59868 0.02697 0.61174 0.0
H512 H 0.62688 0.97188 0.6595 0.0
C513 C 0.57223 0.05283 0.62446 0.0
H514 H 0.63875 0.97768 0.61559 0.0
C515 C 0.56571 0.04979 0.64993 0.0
C516 C 0.58496 0.02028 0.66287 0.0
H517 H 0.557 0.07562 0.61481 0.0
H518 H 0.54514 0.06984 0.6594 0.0
C519 C 0.61124 0.99456 0.65 0.0
C520 C 0.61442 0.50357 0.93964 0.0
C521 C 0.58499 0.52864 0.93123 0.0
H522 H 0.64209 0.47876 0.9706 0.0
C523 C 0.56182 0.54992 0.94893 0.0
H524 H 0.63275 0.4866 0.92659 0.0
C525 C 0.56715 0.54552 0.97427 0.0
C526 C 0.59598 0.51978 0.98279 0.0
H527 H 0.53906 0.56973 0.94319 0.0
H528 H 0.54885 0.5627 0.98723 0.0
C529 C 0.61982 0.4992 0.965 0.0
C530 C 0.12564 0.56127 0.27735 0.0
C531 C 0.11392 0.52579 0.25859 0.0
H532 H 0.12401 0.58218 0.31566 0.0
C533 C 0.09265 0.48207 0.26498 0.0
H534 H 0.14187 0.59548 0.27302 0.0
C535 C 1.08249 0.47427 0.28965 0.0
C536 C 0.09352 0.5101 0.30839 0.0
H537 H 1.083 0.45422 0.25093 0.0
H538 H 1.06589 0.44022 0.29402 0.0
C539 C 0.11558 0.55358 0.30189 0.0
loop_
_geom_bond_atom_site_label_1
_geom_bond_atom_site_label_2
_geom_bond_distance
_geom_bond_site_symmetry_2
_ccdc_geom_bond_type
Nd0 C2 2.836 . S
Nd0 O20 2.500 . S
Nd0 O21 2.492 . S
Nd0 O22 2.487 . S
Nd0 O23 2.682 . S
Nd0 O24 2.410 . S
Nd0 O29 2.414 . S
Nd0 O31 2.424 1_455 S
Nd1 C11 2.836 . S
Nd1 O23 2.414 1_655 S
Nd1 O25 2.424 1_655 S
Nd1 O26 2.500 . S
Nd1 O27 2.492 . S
Nd1 O28 2.487 . S
Nd1 O29 2.682 1_655 S
Nd1 O30 2.410 . S
C2 Nd0 2.836 . S
C2 C3 1.498 . S
C2 O20 1.258 . S
C2 O21 1.239 . S
C3 C2 1.498 . S
C3 C4 1.366 . S
C3 C8 1.407 . S
C4 C3 1.366 . S
C4 C5 1.392 . S
C4 H32 0.930 . S
C5 C4 1.392 . S
C5 C6 1.398 . S
C5 H33 0.929 . S
C6 C5 1.398 . S
C6 C7 1.352 . S
C7 C6 1.352 . S
C7 C8 1.384 . S
C7 H34 0.930 . S
C8 C3 1.407 . S
C8 C7 1.384 . S
C8 H35 0.929 . S
C9 O22 1.241 . S
C9 O23 1.273 . S
C10 O24 1.251 . S
C10 O25 1.268 . S
C11 Nd1 2.836 . S
C11 C12 1.498 . S
C11 O26 1.258 . S
C11 O27 1.239 . S
C12 C11 1.498 . S
C12 C13 1.366 . S
C12 C17 1.407 . S
C13 C12 1.366 . S
C13 C14 1.392 . S
C13 H36 0.930 . S
C14 C13 1.392 . S
C14 C15 1.398 . S
C14 H37 0.929 . S
C15 C14 1.398 . S
C15 C16 1.352 . S
C16 C15 1.352 . S
C16 C17 1.384 . S
C16 H38 0.930 . S
C17 C12 1.407 . S
C17 C16 1.384 . S
C17 H39 0.929 . S
C18 O28 1.241 1_455 S
C18 O29 1.273 . S
C19 O30 1.251 . S
C19 O31 1.268 . S
O20 Nd0 2.500 . S
O20 C2 1.258 . S
O21 Nd0 2.492 . S
O21 C2 1.239 . S
O22 Nd0 2.487 . S
O22 C9 1.241 . S
O23 Nd0 2.682 . S
O23 Nd1 2.414 1_455 S
O23 C9 1.273 . S
O24 Nd0 2.410 . S
O24 C10 1.251 . S
O25 Nd1 2.424 1_455 S
O25 C10 1.268 . S
O26 Nd1 2.500 . S
O26 C11 1.258 . S
O27 Nd1 2.492 . S
O27 C11 1.239 . S
O28 Nd1 2.487 . S
O28 C18 1.241 1_655 S
O29 Nd0 2.414 . S
O29 Nd1 2.682 1_455 S
O29 C18 1.273 . S
O30 Nd1 2.410 . S
O30 C19 1.251 . S
O31 Nd0 2.424 1_655 S
O31 C19 1.268 . S
H32 C4 0.930 . S
H33 C5 0.929 . S
H34 C7 0.930 . S
H35 C8 0.929 . S
H36 C13 0.930 . S
H37 C14 0.929 . S
H38 C16 0.930 . S
H39 C17 0.929 . S
Nd40 C42 2.836 . S
Nd40 O60 2.500 . S
Nd40 O61 2.492 . S
Nd40 O62 2.487 . S
Nd40 O63 2.682 1_565 S
Nd40 O64 2.410 . S
Nd40 O69 2.414 1_565 S
Nd40 O71 2.424 1_565 S
Nd41 C51 2.836 . S
Nd41 O63 2.414 . S
Nd41 O65 2.424 1_545 S
Nd41 O66 2.500 . S
Nd41 O67 2.492 . S
Nd41 O68 2.487 . S
Nd41 O69 2.682 . S
Nd41 O70 2.410 . S
C42 Nd40 2.836 . S
C42 C43 1.498 . S
C42 O60 1.258 . S
C42 O61 1.239 . S
C43 C42 1.498 . S
C43 C44 1.366 . S
C43 C48 1.407 . S
C44 C43 1.366 . S
C44 C45 1.392 . S
C44 H72 0.930 . S
C45 C44 1.392 . S
C45 C46 1.398 . S
C45 H73 0.929 . S
C46 C45 1.398 . S
C46 C47 1.352 . S
C47 C46 1.352 . S
C47 C48 1.384 . S
C47 H74 0.930 . S
C48 C43 1.407 . S
C48 C47 1.384 . S
C48 H75 0.929 . S
C49 O62 1.241 1_545 S
C49 O63 1.273 . S
C50 O64 1.251 . S
C50 O65 1.268 . S
C51 Nd41 2.836 . S
C51 C52 1.498 . S
C51 O66 1.258 . S
C51 O67 1.239 . S
C52 C51 1.498 . S
C52 C53 1.366 . S
C52 C57 1.407 . S
C53 C52 1.366 . S
C53 C54 1.392 . S
C53 H76 0.930 . S
C54 C53 1.392 . S
C54 C55 1.398 . S
C54 H77 0.929 . S
C55 C54 1.398 . S
C55 C56 1.352 . S
C56 C55 1.352 . S
C56 C57 1.384 . S
C56 H78 0.930 . S
C57 C52 1.407 . S
C57 C56 1.384 . S
C57 H79 0.929 . S
C58 O68 1.241 . S
C58 O69 1.273 . S
C59 O70 1.251 . S
C59 O71 1.268 . S
O60 Nd40 2.500 . S
O60 C42 1.258 . S
O61 Nd40 2.492 . S
O61 C42 1.239 . S
O62 Nd40 2.487 . S
O62 C49 1.241 1_565 S
O63 Nd40 2.682 1_545 S
O63 Nd41 2.414 . S
O63 C49 1.273 . S
O64 Nd40 2.410 . S
O64 C50 1.251 . S
O65 Nd41 2.424 1_565 S
O65 C50 1.268 . S
O66 Nd41 2.500 . S
O66 C51 1.258 . S
O67 Nd41 2.492 . S
O67 C51 1.239 . S
O68 Nd41 2.487 . S
O68 C58 1.241 . S
O69 Nd40 2.414 1_545 S
O69 Nd41 2.682 . S
O69 C58 1.273 . S
O70 Nd41 2.410 . S
O70 C59 1.251 . S
O71 Nd40 2.424 1_545 S
O71 C59 1.268 . S
H72 C44 0.930 . S
H73 C45 0.929 . S
H74 C47 0.930 . S
H75 C48 0.929 . S
H76 C53 0.930 . S
H77 C54 0.929 . S
H78 C56 0.930 . S
H79 C57 0.929 . S
Nd80 C82 2.836 . S
Nd80 O100 2.500 . S
Nd80 O101 2.492 . S
Nd80 O102 2.487 . S
Nd80 O103 2.682 . S
Nd80 O104 2.410 . S
Nd80 O109 2.414 . S
Nd80 O111 2.424 . S
Nd81 C91 2.836 . S
Nd81 O103 2.414 . S
Nd81 O105 2.424 . S
Nd81 O106 2.500 . S
Nd81 O107 2.492 . S
Nd81 O108 2.487 . S
Nd81 O109 2.682 . S
Nd81 O110 2.410 . S
C82 Nd80 2.836 . S
C82 C83 1.498 . S
C82 O100 1.258 . S
C82 O101 1.239 . S
C83 C82 1.498 . S
C83 C84 1.366 . S
C83 C88 1.407 . S
C84 C83 1.366 . S
C84 C85 1.392 . S
C84 H112 0.930 . S
C85 C84 1.392 . S
C85 C86 1.398 . S
C85 H113 0.929 . S
C86 C85 1.398 . S
C86 C87 1.352 . S
C87 C86 1.352 . S
C87 C88 1.384 . S
C87 H114 0.930 . S
C88 C83 1.407 . S
C88 C87 1.384 . S
C88 H115 0.929 . S
C89 O102 1.241 . S
C89 O103 1.273 . S
C90 O104 1.251 . S
C90 O105 1.268 . S
C91 Nd81 2.836 . S
C91 C92 1.498 . S
C91 O106 1.258 . S
C91 O107 1.239 . S
C92 C91 1.498 . S
C92 C93 1.366 . S
C92 C97 1.407 . S
C93 C92 1.366 . S
C93 C94 1.392 . S
C93 H116 0.930 . S
C94 C93 1.392 . S
C94 C95 1.398 . S
C94 H117 0.929 . S
C95 C94 1.398 . S
C95 C96 1.352 . S
C96 C95 1.352 . S
C96 C97 1.384 . S
C96 H118 0.930 . S
C97 C92 1.407 . S
C97 C96 1.384 . S
C97 H119 0.929 . S
C98 O108 1.241 . S
C98 O109 1.273 . S
C99 O110 1.251 . S
C99 O111 1.268 . S
O100 Nd80 2.500 . S
O100 C82 1.258 . S
O101 Nd80 2.492 . S
O101 C82 1.239 . S
O102 Nd80 2.487 . S
O102 C89 1.241 . S
O103 Nd80 2.682 . S
O103 Nd81 2.414 . S
O103 C89 1.273 . S
O104 Nd80 2.410 . S
O104 C90 1.251 . S
O105 Nd81 2.424 . S
O105 C90 1.268 . S
O106 Nd81 2.500 . S
O106 C91 1.258 . S
O107 Nd81 2.492 . S
O107 C91 1.239 . S
O108 Nd81 2.487 . S
O108 C98 1.241 . S
O109 Nd80 2.414 . S
O109 Nd81 2.682 . S
O109 C98 1.273 . S
O110 Nd81 2.410 . S
O110 C99 1.251 . S
O111 Nd80 2.424 . S
O111 C99 1.268 . S
H112 C84 0.930 . S
H113 C85 0.929 . S
H114 C87 0.930 . S
H115 C88 0.929 . S
H116 C93 0.930 . S
H117 C94 0.929 . S
H118 C96 0.930 . S
H119 C97 0.929 . S
C120 C121 1.264 . S
C120 C125 1.479 . S
C120 C130 1.465 . S
C121 C120 1.264 . S
C121 C123 1.339 . S
C121 H148 0.931 . S
C122 C123 1.395 . S
C122 C124 1.320 . S
C123 C121 1.339 . S
C123 C122 1.395 . S
C123 H149 0.929 . S
C124 C122 1.320 . S
C124 C125 1.405 . S
C124 H150 0.930 . S
C125 C120 1.479 . S
C125 C124 1.405 . S
C125 H151 0.931 . S
U126 O127 2.454 1_545 S
U126 O128 2.458 1_545 S
U126 C129 2.984 1_545 S
U126 C130 2.847 . S
U126 C143 2.882 . S
U126 O144 2.441 . S
U126 O145 2.420 . S
U126 O146 2.455 . S
U126 O147 2.449 . S
O127 U126 2.454 1_565 S
O127 C129 1.353 . S
O128 U126 2.458 1_565 S
O128 C129 1.286 . S
C129 U126 2.984 1_565 S
C129 O127 1.353 . S
C129 O128 1.286 . S
C129 C131 1.363 . S
C130 C120 1.465 . S
C130 U126 2.847 . S
C130 O144 1.249 . S
C130 O145 1.202 . S
C131 C129 1.363 . S
C131 C133 1.408 . S
C131 C136 1.342 . S
C132 C133 1.310 . S
C132 C135 1.461 . S
C132 H152 0.932 . S
C133 C131 1.408 . S
C133 C132 1.310 . S
C133 H153 0.930 . S
C134 C135 1.474 . S
C134 C136 1.285 . S
C134 H154 0.929 . S
C135 C132 1.461 . S
C135 C134 1.474 . S
C136 C131 1.342 . S
C136 C134 1.285 . S
C136 H155 0.930 . S
C137 C140 1.424 . S
C137 C142 1.245 . S
C137 C143 1.428 . S
C138 C141 1.260 . S
C138 C142 1.477 . S
C138 H156 0.932 . S
C139 C140 1.384 . S
C139 C141 1.479 . S
C139 H157 0.929 . S
C140 C137 1.424 . S
C140 C139 1.384 . S
C140 H158 0.928 . S
C141 C138 1.260 . S
C141 C139 1.479 . S
C142 C137 1.245 . S
C142 C138 1.477 . S
C142 H159 0.932 1_545 S
C143 U126 2.882 . S
C143 C137 1.428 . S
C143 O146 1.301 . S
C143 O147 1.282 . S
O144 U126 2.441 . S
O144 C130 1.249 . S
O145 U126 2.420 . S
O145 C130 1.202 . S
O146 U126 2.455 . S
O146 C143 1.301 . S
O147 U126 2.449 . S
O147 C143 1.282 . S
H148 C121 0.931 . S
H149 C123 0.929 . S
H150 C124 0.930 . S
H151 C125 0.931 . S
H152 C132 0.932 . S
H153 C133 0.930 . S
H154 C134 0.929 . S
H155 C136 0.930 . S
H156 C138 0.932 . S
H157 C139 0.929 . S
H158 C140 0.928 . S
H159 C142 0.932 1_565 S
C160 C161 1.264 . S
C160 C165 1.479 . S
C160 C170 1.465 . S
C161 C160 1.264 . S
C161 C163 1.339 . S
C161 H188 0.931 . S
C162 C163 1.395 . S
C162 C164 1.320 . S
C163 C161 1.339 . S
C163 C162 1.395 . S
C163 H189 0.929 . S
C164 C162 1.320 . S
C164 C165 1.405 . S
C164 H190 0.930 . S
C165 C160 1.479 . S
C165 C164 1.405 . S
C165 H191 0.931 . S
U166 O167 2.454 . S
U166 O168 2.458 . S
U166 C169 2.984 . S
U166 C170 2.847 . S
U166 C183 2.882 . S
U166 O184 2.441 . S
U166 O185 2.420 . S
U166 O186 2.455 . S
U166 O187 2.449 . S
O167 U166 2.454 . S
O167 C169 1.353 . S
O168 U166 2.458 . S
O168 C169 1.286 . S
C169 U166 2.984 . S
C169 O167 1.353 . S
C169 O168 1.286 . S
C169 C171 1.363 . S
C170 C160 1.465 . S
C170 U166 2.847 . S
C170 O184 1.249 . S
C170 O185 1.202 . S
C171 C169 1.363 . S
C171 C173 1.408 . S
C171 C176 1.342 . S
C172 C173 1.310 . S
C172 C175 1.461 . S
C172 H192 0.932 . S
C173 C171 1.408 . S
C173 C172 1.310 . S
C173 H193 0.930 . S
C174 C175 1.474 . S
C174 C176 1.285 . S
C174 H194 0.929 . S
C175 C172 1.461 . S
C175 C174 1.474 . S
C176 C171 1.342 . S
C176 C174 1.285 . S
C176 H195 0.930 . S
C177 C180 1.424 . S
C177 C182 1.245 . S
C177 C183 1.428 . S
C178 C181 1.260 . S
C178 C182 1.477 . S
C178 H196 0.932 . S
C179 C180 1.384 . S
C179 C181 1.479 . S
C179 H197 0.929 . S
C180 C177 1.424 . S
C180 C179 1.384 . S
C180 H198 0.928 . S
C181 C178 1.260 . S
C181 C179 1.479 . S
C182 C177 1.245 . S
C182 C178 1.477 . S
C182 H199 0.932 . S
C183 U166 2.882 . S
C183 C177 1.428 . S
C183 O186 1.301 . S
C183 O187 1.282 . S
O184 U166 2.441 . S
O184 C170 1.249 . S
O185 U166 2.420 . S
O185 C170 1.202 . S
O186 U166 2.455 . S
O186 C183 1.301 . S
O187 U166 2.449 . S
O187 C183 1.282 . S
H188 C161 0.931 . S
H189 C163 0.929 . S
H190 C164 0.930 . S
H191 C165 0.931 . S
H192 C172 0.932 . S
H193 C173 0.930 . S
H194 C174 0.929 . S
H195 C176 0.930 . S
H196 C178 0.932 . S
H197 C179 0.929 . S
H198 C180 0.928 . S
H199 C182 0.932 . S
C200 C201 1.264 . S
C200 C205 1.479 . S
C200 C210 1.465 . S
C201 C200 1.264 . S
C201 C203 1.339 . S
C201 H228 0.931 . S
C202 C203 1.395 . S
C202 C204 1.320 . S
C203 C201 1.339 . S
C203 C202 1.395 . S
C203 H229 0.929 . S
C204 C202 1.320 . S
C204 C205 1.405 . S
C204 H230 0.930 . S
C205 C200 1.479 . S
C205 C204 1.405 . S
C205 H231 0.931 . S
U206 O207 2.454 . S
U206 O208 2.458 . S
U206 C209 2.984 . S
U206 C210 2.847 1_455 S
U206 C223 2.882 . S
U206 O224 2.441 1_455 S
U206 O225 2.420 1_455 S
U206 O226 2.455 . S
U206 O227 2.449 1_455 S
O207 U206 2.454 . S
O207 C209 1.353 . S
O208 U206 2.458 . S
O208 C209 1.286 . S
C209 U206 2.984 . S
C209 O207 1.353 . S
C209 O208 1.286 . S
C209 C211 1.363 . S
C210 C200 1.465 . S
C210 U206 2.847 1_655 S
C210 O224 1.249 . S
C210 O225 1.202 . S
C211 C209 1.363 . S
C211 C213 1.408 . S
C211 C216 1.342 . S
C212 C213 1.310 . S
C212 C215 1.461 . S
C212 H232 0.932 . S
C213 C211 1.408 . S
C213 C212 1.310 . S
C213 H233 0.930 . S
C214 C215 1.474 . S
C214 C216 1.285 . S
C214 H234 0.929 . S
C215 C212 1.461 . S
C215 C214 1.474 . S
C216 C211 1.342 . S
C216 C214 1.285 . S
C216 H235 0.930 . S
C217 C220 1.424 1_455 S
C217 C222 1.245 . S
C217 C223 1.428 . S
C218 C221 1.260 . S
C218 C222 1.477 1_554 S
C218 H236 0.932 . S
C219 C220 1.384 1_554 S
C219 C221 1.479 1_655 S
C219 H237 0.929 . S
C220 C217 1.424 1_655 S
C220 C219 1.384 1_556 S
C220 H238 0.928 . S
C221 C218 1.260 . S
C221 C219 1.479 1_455 S
C222 C217 1.245 . S
C222 C218 1.477 1_556 S
C222 H239 0.932 . S
C223 U206 2.882 . S
C223 C217 1.428 . S
C223 O226 1.301 . S
C223 O227 1.282 1_455 S
O224 U206 2.441 1_655 S
O224 C210 1.249 . S
O225 U206 2.420 1_655 S
O225 C210 1.202 . S
O226 U206 2.455 . S
O226 C223 1.301 . S
O227 U206 2.449 1_655 S
O227 C223 1.282 1_655 S
H228 C201 0.931 . S
H229 C203 0.929 . S
H230 C204 0.930 . S
H231 C205 0.931 . S
H232 C212 0.932 . S
H233 C213 0.930 . S
H234 C214 0.929 . S
H235 C216 0.930 . S
H236 C218 0.932 . S
H237 C219 0.929 . S
H238 C220 0.928 . S
H239 C222 0.932 . S
C240 C241 1.264 . S
C240 C245 1.479 . S
C240 C250 1.465 . S
C241 C240 1.264 . S
C241 C243 1.339 . S
C241 H268 0.931 . S
C242 C243 1.395 . S
C242 C244 1.320 . S
C243 C241 1.339 . S
C243 C242 1.395 . S
C243 H269 0.929 . S
C244 C242 1.320 . S
C244 C245 1.405 . S
C244 H270 0.930 . S
C245 C240 1.479 . S
C245 C244 1.405 . S
C245 H271 0.931 . S
U246 O247 2.454 1_655 S
U246 O248 2.458 1_655 S
U246 C249 2.984 1_655 S
U246 C250 2.847 . S
U246 C263 2.882 . S
U246 O264 2.441 . S
U246 O265 2.420 . S
U246 O266 2.455 1_655 S
U246 O267 2.449 . S
O247 U246 2.454 1_455 S
O247 C249 1.353 . S
O248 U246 2.458 1_455 S
O248 C249 1.286 . S
C249 U246 2.984 1_455 S
C249 O247 1.353 . S
C249 O248 1.286 . S
C249 C251 1.363 . S
C250 C240 1.465 . S
C250 U246 2.847 . S
C250 O264 1.249 . S
C250 O265 1.202 . S
C251 C249 1.363 . S
C251 C253 1.408 . S
C251 C256 1.342 . S
C252 C253 1.310 . S
C252 C255 1.461 . S
C252 H272 0.932 . S
C253 C251 1.408 . S
C253 C252 1.310 . S
C253 H273 0.930 . S
C254 C255 1.474 . S
C254 C256 1.285 . S
C254 H274 0.929 . S
C255 C252 1.461 . S
C255 C254 1.474 . S
C256 C251 1.342 . S
C256 C254 1.285 . S
C256 H275 0.930 . S
C257 C260 1.424 . S
C257 C262 1.245 1_655 S
C257 C263 1.428 . S
C258 C261 1.260 1_455 S
C258 C262 1.477 . S
C258 H276 0.932 . S
C259 C260 1.384 . S
C259 C261 1.479 . S
C259 H277 0.929 . S
C260 C257 1.424 . S
C260 C259 1.384 . S
C260 H278 0.928 . S
C261 C258 1.260 1_655 S
C261 C259 1.479 . S
C262 C257 1.245 1_455 S
C262 C258 1.477 . S
C262 H279 0.932 . S
C263 U246 2.882 . S
C263 C257 1.428 . S
C263 O266 1.301 1_655 S
C263 O267 1.282 . S
O264 U246 2.441 . S
O264 C250 1.249 . S
O265 U246 2.420 . S
O265 C250 1.202 . S
O266 U246 2.455 1_455 S
O266 C263 1.301 1_455 S
O267 U246 2.449 . S
O267 C263 1.282 . S
H268 C241 0.931 . S
H269 C243 0.929 . S
H270 C244 0.930 . S
H271 C245 0.931 . S
H272 C252 0.932 . S
H273 C253 0.930 . S
H274 C254 0.929 . S
H275 C256 0.930 . S
H276 C258 0.932 . S
H277 C259 0.929 . S
H278 C260 0.928 . S
H279 C262 0.932 . S
C280 C281 1.264 . S
C280 C285 1.479 . S
C280 C290 1.465 . S
C281 C280 1.264 . S
C281 C283 1.339 . S
C281 H308 0.931 . S
C282 C283 1.395 . S
C282 C284 1.320 . S
C283 C281 1.339 . S
C283 C282 1.395 . S
C283 H309 0.929 . S
C284 C282 1.320 . S
C284 C285 1.405 . S
C284 H310 0.930 . S
C285 C280 1.479 . S
C285 C284 1.405 . S
C285 H311 0.931 . S
U286 O287 2.461 . S
U286 O288 2.471 . S
U286 C289 2.996 . S
U286 C290 2.836 1_545 S
U286 C303 2.883 1_545 S
U286 O304 2.433 1_545 S
U286 O305 2.407 1_545 S
U286 O306 2.461 . S
U286 O307 2.444 1_545 S
O287 U286 2.461 . S
O287 C289 1.353 . S
O288 U286 2.471 . S
O288 C289 1.286 . S
C289 U286 2.996 . S
C289 O287 1.353 . S
C289 O288 1.286 . S
C289 C291 1.363 . S
C290 C280 1.465 . S
C290 U286 2.836 1_565 S
C290 O304 1.249 . S
C290 O305 1.202 . S
C291 C289 1.363 . S
C291 C293 1.408 . S
C291 C296 1.342 . S
C292 C293 1.310 . S
C292 C295 1.461 . S
C292 H312 0.932 . S
C293 C291 1.408 . S
C293 C292 1.310 . S
C293 H313 0.930 . S
C294 C295 1.474 . S
C294 C296 1.285 . S
C294 H314 0.929 . S
C295 C292 1.461 . S
C295 C294 1.474 . S
C296 C291 1.342 . S
C296 C294 1.285 . S
C296 H315 0.930 . S
C297 C300 1.424 . S
C297 C302 1.245 1_565 S
C297 C303 1.428 . S
C298 C301 1.260 1_545 S
C298 C302 1.477 . S
C298 H316 0.932 . S
C299 C300 1.384 . S
C299 C301 1.479 . S
C299 H317 0.929 . S
C300 C297 1.424 . S
C300 C299 1.384 . S
C300 H318 0.928 . S
C301 C298 1.260 1_565 S
C301 C299 1.479 . S
C302 C297 1.245 1_545 S
C302 C298 1.477 . S
C302 H319 0.932 . S
C303 U286 2.883 1_565 S
C303 C297 1.428 . S
C303 O306 1.301 1_565 S
C303 O307 1.282 . S
O304 U286 2.433 1_565 S
O304 C290 1.249 . S
O305 U286 2.407 1_565 S
O305 C290 1.202 . S
O306 U286 2.461 . S
O306 C303 1.301 1_545 S
O307 U286 2.444 1_565 S
O307 C303 1.282 . S
H308 C281 0.931 . S
H309 C283 0.929 . S
H310 C284 0.930 . S
H311 C285 0.931 . S
H312 C292 0.932 . S
H313 C293 0.930 . S
H314 C294 0.929 . S
H315 C296 0.930 . S
H316 C298 0.932 . S
H317 C299 0.929 . S
H318 C300 0.928 . S
H319 C302 0.932 . S
C320 C321 1.264 . S
C320 C325 1.479 . S
C320 C330 1.465 . S
C321 C320 1.264 . S
C321 C323 1.339 . S
C321 H348 0.931 . S
C322 C323 1.395 . S
C322 C324 1.320 . S
C323 C321 1.339 . S
C323 C322 1.395 . S
C323 H349 0.929 . S
C324 C322 1.320 . S
C324 C325 1.405 . S
C324 H350 0.930 . S
C325 C320 1.479 . S
C325 C324 1.405 . S
C325 H351 0.931 . S
U326 O327 2.454 . S
U326 O328 2.458 . S
U326 C329 2.984 . S
U326 C330 2.847 . S
U326 C343 2.882 . S
U326 O344 2.441 . S
U326 O345 2.420 . S
U326 O346 2.455 . S
U326 O347 2.449 . S
O327 U326 2.454 . S
O327 C329 1.353 . S
O328 U326 2.458 . S
O328 C329 1.286 . S
C329 U326 2.984 . S
C329 O327 1.353 . S
C329 O328 1.286 . S
C329 C331 1.363 . S
C330 C320 1.465 . S
C330 U326 2.847 . S
C330 O344 1.249 . S
C330 O345 1.202 . S
C331 C329 1.363 . S
C331 C333 1.408 . S
C331 C336 1.342 . S
C332 C333 1.310 . S
C332 C335 1.461 . S
C332 H352 0.932 . S
C333 C331 1.408 . S
C333 C332 1.310 . S
C333 H353 0.930 . S
C334 C335 1.474 . S
C334 C336 1.285 . S
C334 H354 0.929 . S
C335 C332 1.461 . S
C335 C334 1.474 . S
C336 C331 1.342 . S
C336 C334 1.285 . S
C336 H355 0.930 . S
C337 C340 1.424 . S
C337 C342 1.245 . S
C337 C343 1.428 . S
C338 C341 1.260 . S
C338 C342 1.477 1_556 S
C338 H356 0.932 . S
C339 C340 1.359 1_556 S
C339 C341 1.492 . S
C339 H357 0.940 . S
C340 C337 1.424 . S
C340 C339 1.359 1_554 S
C340 H358 0.928 . S
C341 C338 1.260 . S
C341 C339 1.492 . S
C342 C337 1.245 . S
C342 C338 1.477 1_554 S
C342 H359 0.932 . S
C343 U326 2.882 . S
C343 C337 1.428 . S
C343 O346 1.301 . S
C343 O347 1.282 . S
O344 U326 2.441 . S
O344 C330 1.249 . S
O345 U326 2.420 . S
O345 C330 1.202 . S
O346 U326 2.455 . S
O346 C343 1.301 . S
O347 U326 2.449 . S
O347 C343 1.282 . S
H348 C321 0.931 . S
H349 C323 0.929 . S
H350 C324 0.930 . S
H351 C325 0.931 . S
H352 C332 0.932 . S
H353 C333 0.930 . S
H354 C334 0.929 . S
H355 C336 0.930 . S
H356 C338 0.932 . S
H357 C339 0.940 . S
H358 C340 0.928 . S
H359 C342 0.932 . S
C360 C361 1.387 . S
C360 H364 0.950 . S
C360 C369 1.390 . S
C361 C360 1.387 . S
C361 C363 1.387 . S
H362 C369 0.950 . S
C363 C361 1.387 . S
C363 C365 1.390 . S
C363 H367 0.950 . S
H364 C360 0.950 . S
C365 C363 1.390 . S
C365 C366 1.387 . S
C365 H368 0.950 . S
C366 C365 1.387 . S
C366 C369 1.387 . S
H367 C363 0.950 . S
H368 C365 0.950 . S
C369 C360 1.390 . S
C369 H362 0.950 . S
C369 C366 1.387 . S
C370 C371 1.387 . S
C370 H374 0.950 . S
C370 C379 1.390 . S
C371 C370 1.387 . S
C371 C373 1.387 . S
H372 C379 0.950 . S
C373 C371 1.387 . S
C373 C375 1.390 . S
C373 H377 0.950 . S
H374 C370 0.950 . S
C375 C373 1.390 . S
C375 C376 1.387 . S
C375 H378 0.950 . S
C376 C375 1.387 . S
C376 C379 1.387 . S
H377 C373 0.950 . S
H378 C375 0.950 . S
C379 C370 1.390 . S
C379 H372 0.950 . S
C379 C376 1.387 . S
C380 C381 1.387 . S
C380 H384 0.950 . S
C380 C389 1.390 . S
C381 C380 1.387 . S
C381 C383 1.387 . S
H382 C389 0.950 . S
C383 C381 1.387 . S
C383 C385 1.390 . S
C383 H387 0.950 . S
H384 C380 0.950 . S
C385 C383 1.390 . S
C385 C386 1.387 . S
C385 H388 0.950 . S
C386 C385 1.387 . S
C386 C389 1.387 . S
H387 C383 0.950 . S
H388 C385 0.950 . S
C389 C380 1.390 . S
C389 H382 0.950 . S
C389 C386 1.387 . S
C390 C391 1.387 . S
C390 H394 0.950 . S
C390 C399 1.390 . S
C391 C390 1.387 . S
C391 C393 1.387 . S
H392 C399 0.950 . S
C393 C391 1.387 . S
C393 C395 1.390 . S
C393 H397 0.950 . S
H394 C390 0.950 . S
C395 C393 1.390 . S
C395 C396 1.387 . S
C395 H398 0.950 . S
C396 C395 1.387 . S
C396 C399 1.387 . S
H397 C393 0.950 . S
H398 C395 0.950 . S
C399 C390 1.390 . S
C399 H392 0.950 . S
C399 C396 1.387 . S
C400 C401 1.387 . S
C400 H404 0.950 . S
C400 C409 1.390 . S
C401 C400 1.387 . S
C401 C403 1.387 . S
H402 C409 0.950 . S
C403 C401 1.387 . S
C403 C405 1.390 . S
C403 H407 0.950 . S
H404 C400 0.950 . S
C405 C403 1.390 . S
C405 C406 1.387 . S
C405 H408 0.950 . S
C406 C405 1.387 . S
C406 C409 1.387 . S
H407 C403 0.950 . S
H408 C405 0.950 . S
C409 C400 1.390 . S
C409 H402 0.950 . S
C409 C406 1.387 . S
C410 C411 1.387 . S
C410 H414 0.950 . S
C410 C419 1.390 . S
C411 C410 1.387 . S
C411 C413 1.387 . S
H412 C419 0.950 . S
C413 C411 1.387 . S
C413 C415 1.390 . S
C413 H417 0.950 . S
H414 C410 0.950 . S
C415 C413 1.390 . S
C415 C416 1.387 . S
C415 H418 0.950 . S
C416 C415 1.387 . S
C416 C419 1.387 . S
H417 C413 0.950 . S
H418 C415 0.950 . S
C419 C410 1.390 . S
C419 H412 0.950 . S
C419 C416 1.387 . S
C420 C421 1.387 . S
C420 H424 0.950 . S
C420 C429 1.390 . S
C421 C420 1.387 . S
C421 C423 1.387 . S
H422 C429 0.950 . S
C423 C421 1.387 . S
C423 C425 1.390 . S
C423 H427 0.950 . S
H424 C420 0.950 . S
C425 C423 1.390 . S
C425 C426 1.387 . S
C425 H428 0.950 . S
C426 C425 1.387 . S
C426 C429 1.387 . S
H427 C423 0.950 . S
H428 C425 0.950 . S
C429 C420 1.390 . S
C429 H422 0.950 . S
C429 C426 1.387 . S
C430 C431 1.387 . S
C430 H434 0.950 . S
C430 C439 1.390 . S
C431 C430 1.387 . S
C431 C433 1.387 . S
H432 C439 0.950 . S
C433 C431 1.387 . S
C433 C435 1.390 . S
C433 H437 0.950 . S
H434 C430 0.950 . S
C435 C433 1.390 . S
C435 C436 1.387 . S
C435 H438 0.950 . S
C436 C435 1.387 . S
C436 C439 1.387 . S
H437 C433 0.950 . S
H438 C435 0.950 . S
C439 C430 1.390 . S
C439 H432 0.950 . S
C439 C436 1.387 . S
C440 C441 1.387 . S
C440 H444 0.950 . S
C440 C449 1.390 . S
C441 C440 1.387 . S
C441 C443 1.387 . S
H442 C449 0.950 . S
C443 C441 1.387 . S
C443 C445 1.390 . S
C443 H447 0.950 . S
H444 C440 0.950 . S
C445 C443 1.390 . S
C445 C446 1.387 . S
C445 H448 0.950 . S
C446 C445 1.387 . S
C446 C449 1.387 . S
H447 C443 0.950 . S
H448 C445 0.950 . S
C449 C440 1.390 . S
C449 H442 0.950 . S
C449 C446 1.387 . S
C450 C451 1.387 . S
C450 H454 0.950 . S
C450 C459 1.390 . S
C451 C450 1.387 . S
C451 C453 1.387 . S
H452 C459 0.950 . S
C453 C451 1.387 . S
C453 C455 1.390 . S
C453 H457 0.950 . S
H454 C450 0.950 . S
C455 C453 1.390 . S
C455 C456 1.387 . S
C455 H458 0.950 . S
C456 C455 1.387 . S
C456 C459 1.387 . S
H457 C453 0.950 . S
H458 C455 0.950 . S
C459 C450 1.390 . S
C459 H452 0.950 . S
C459 C456 1.387 . S
C460 C461 1.387 . S
C460 H464 0.950 . S
C460 C469 1.390 . S
C461 C460 1.387 . S
C461 C463 1.387 . S
H462 C469 0.950 . S
C463 C461 1.387 . S
C463 C465 1.390 . S
C463 H467 0.950 . S
H464 C460 0.950 . S
C465 C463 1.390 . S
C465 C466 1.387 . S
C465 H468 0.950 . S
C466 C465 1.387 . S
C466 C469 1.387 . S
H467 C463 0.950 . S
H468 C465 0.950 . S
C469 C460 1.390 . S
C469 H462 0.950 . S
C469 C466 1.387 . S
C470 C471 1.387 . S
C470 H474 0.950 . S
C470 C479 1.390 . S
C471 C470 1.387 . S
C471 C473 1.387 . S
H472 C479 0.950 . S
C473 C471 1.387 . S
C473 C475 1.390 . S
C473 H477 0.950 . S
H474 C470 0.950 . S
C475 C473 1.390 . S
C475 C476 1.387 . S
C475 H478 0.950 . S
C476 C475 1.387 . S
C476 C479 1.387 . S
H477 C473 0.950 . S
H478 C475 0.950 . S
C479 C470 1.390 . S
C479 H472 0.950 . S
C479 C476 1.387 . S
C480 C481 1.387 . S
C480 H484 0.950 . S
C480 C489 1.390 . S
C481 C480 1.387 . S
C481 C483 1.387 1_455 S
H482 C489 0.950 . S
C483 C481 1.387 1_655 S
C483 C485 1.390 . S
C483 H487 0.950 . S
H484 C480 0.950 . S
C485 C483 1.390 . S
C485 C486 1.387 1_655 S
C485 H488 0.950 . S
C486 C485 1.387 1_455 S
C486 C489 1.387 . S
H487 C483 0.950 . S
H488 C485 0.950 . S
C489 C480 1.390 . S
C489 H482 0.950 . S
C489 C486 1.387 . S
C490 C491 1.387 . S
C490 H494 0.950 . S
C490 C499 1.390 . S
C491 C490 1.387 . S
C491 C493 1.387 . S
H492 C499 0.950 . S
C493 C491 1.387 . S
C493 C495 1.390 . S
C493 H497 0.950 1_545 S
H494 C490 0.950 . S
C495 C493 1.390 . S
C495 C496 1.387 . S
C495 H498 0.949 1_545 S
C496 C495 1.387 . S
C496 C499 1.387 . S
H497 C493 0.950 1_565 S
H498 C495 0.949 1_565 S
C499 C490 1.390 . S
C499 H492 0.950 . S
C499 C496 1.387 . S
C500 C501 1.387 . S
C500 H504 0.950 . S
C500 C509 1.390 . S
C501 C500 1.387 . S
C501 C503 1.387 . S
H502 C509 0.950 . S
C503 C501 1.387 . S
C503 C505 1.390 . S
C503 H507 0.950 . S
H504 C500 0.950 . S
C505 C503 1.390 . S
C505 C506 1.387 . S
C505 H508 0.950 . S
C506 C505 1.387 . S
C506 C509 1.387 . S
H507 C503 0.950 . S
H508 C505 0.950 . S
C509 C500 1.390 . S
C509 H502 0.950 . S
C509 C506 1.387 . S
C510 C511 1.387 1_565 S
C510 H514 0.950 . S
C510 C519 1.390 . S
C511 C510 1.387 1_545 S
C511 C513 1.387 . S
H512 C519 0.950 . S
C513 C511 1.387 . S
C513 C515 1.390 . S
C513 H517 0.950 . S
H514 C510 0.950 . S
C515 C513 1.390 . S
C515 C516 1.387 1_545 S
C515 H518 0.950 . S
C516 C515 1.387 1_565 S
C516 C519 1.387 . S
H517 C513 0.950 . S
H518 C515 0.950 . S
C519 C510 1.390 . S
C519 H512 0.950 . S
C519 C516 1.387 . S
C520 C521 1.387 . S
C520 H524 0.950 . S
C520 C529 1.390 . S
C521 C520 1.387 . S
C521 C523 1.387 . S
H522 C529 0.950 . S
C523 C521 1.387 . S
C523 C525 1.390 . S
C523 H527 0.950 . S
H524 C520 0.950 . S
C525 C523 1.390 . S
C525 C526 1.387 . S
C525 H528 0.950 . S
C526 C525 1.387 . S
C526 C529 1.387 . S
H527 C523 0.950 . S
H528 C525 0.950 . S
C529 C520 1.390 . S
C529 H522 0.950 . S
C529 C526 1.387 . S
C530 C531 1.387 . S
C530 H534 0.950 . S
C530 C539 1.390 . S
C531 C530 1.387 . S
C531 C533 1.387 1_455 S
H532 C539 0.950 . S
C533 C531 1.387 1_655 S
C533 C535 1.390 . S
C533 H537 0.950 . S
H534 C530 0.950 . S
C535 C533 1.390 . S
C535 C536 1.389 . S
C535 H538 0.950 . S
C536 C535 1.389 . S
C536 C539 1.385 1_655 S
H537 C533 0.950 . S
H538 C535 0.950 . S
C539 C530 1.390 . S
C539 H532 0.950 . S
C539 C536 1.385 1_455 S
C361 C10 3.273 . S
C366 C335 3.199 . S
C371 C55 1.254 . S
C376 C242 1.256 . S
C381 C90 2.068 . S
C386 C282 2.040 . S
C391 C19 3.172 . S
C396 C322 3.120 . S
C406 C255 1.384 . S
C401 C46 1.368 . S
C416 C295 2.222 . S
C411 C99 2.333 . S
C421 C50 2.075 . S
C426 C162 2.039 . S
C431 C95 0.869 . S
C436 C202 0.872 . S
C441 C6 1.387 . S
C446 C135 1.386 . S
C456 C175 2.172 . S
C451 C59 2.302 . S
C466 C215 0.477 . S
C461 C86 0.583 . S
C471 C15 1.353 . S
C476 C122 1.386 . S
C486 C221 1.094 . S
C481 C18 1.121 . S
C491 C49 1.468 . S
C496 C141 1.509 . S
C501 C98 1.350 . S
C506 C181 1.377 . S
C516 C301 1.385 . S
C511 C58 1.353 . S
C526 C341 1.782 . S
C521 C89 1.713 . S
C531 C9 1.463 . S
C536 C261 1.509 . S
