# Generated by pormake.
# Topology bcu-b, (8,8)-cn, num edge types: 1
# Building blocks:
#     Node 0, Type 0, BuildingBlock: TAGTUT_clean_sbu_1, # of connection points: 8
#     Node 1, Type 1, BuildingBlock: TAGTUT_clean_sbu_1, # of connection points: 8
#     Edge 2, Type (0, 1), BuildingBlock: MIFKUJ_clean_linker_0, # of connection points: 2
#     Edge 3, Type (0, 1), BuildingBlock: MIFKUJ_clean_linker_0, # of connection points: 2
#     Edge 4, Type (0, 1), BuildingBlock: MIFKUJ_clean_linker_0, # of connection points: 2
#     Edge 5, Type (0, 1), BuildingBlock: MIFKUJ_clean_linker_0, # of connection points: 2
#     Edge 6, Type (0, 1), BuildingBlock: MIFKUJ_clean_linker_0, # of connection points: 2
#     Edge 7, Type (0, 1), BuildingBlock: MIFKUJ_clean_linker_0, # of connection points: 2
#     Edge 8, Type (0, 1), BuildingBlock: MIFKUJ_clean_linker_0, # of connection points: 2
#     Edge 9, Type (0, 1), BuildingBlock: MIFKUJ_clean_linker_0, # of connection points: 2
# Relax obj value: 0.021
# Max RMSD: 0.083
# Mean RMSD: 0.083
data_MOF--net-bcu-b--node1-TAGTUT_clean_sbu_1--node2-TAGTUT_clean_sbu_1--edge1-MIFKUJ_clean_linker_0
_symmetry_space_group_name_H-M    P1
_symmetry_Int_Tables_number       1
_symmetry_cell_setting            triclinic
loop_
_symmetry_equiv_pos_as_xyz
'x, y, z'
_cell_length_a     25.190443
_cell_length_b     23.42003
_cell_length_c     26.783115
_cell_angle_alpha  90.513643
_cell_angle_beta   93.470316
_cell_angle_gamma 106.61038
loop_
_atom_site_label
_atom_site_type_symbol
_atom_site_fract_x
_atom_site_fract_y
_atom_site_fract_z
_atom_type_partial_charge
C0 C 0.88847 0.13686 0.04292 0.0
C1 C 0.92139 0.109 0.89013 0.0
C2 C 0.90281 0.88307 0.94511 0.0
Mg3 Mg 0.99351 0.13351 -0.01096 0.0
O4 O 0.96662 0.0537 0.0069 0.0
Mg5 Mg 0.88899 0.00991 0.98258 0.0
Mg6 Mg 1.00537 0.99483 0.98683 0.0
O7 O 0.04393 0.9359 0.9668 0.0
Mg8 Mg 0.01624 0.85576 0.98336 0.0
Mg9 Mg 0.12126 0.97902 -0.00767 0.0
C10 C 0.10733 0.1067 0.02789 0.0
C11 C 0.08653 0.05095 0.89898 0.0
O12 O 0.8636 0.0842 0.02491 0.0
O13 O 0.93918 0.16387 0.03516 0.0
O14 O 0.89185 0.06287 0.91087 0.0
O15 O 0.96644 0.14185 0.91188 0.0
O16 O 0.08038 0.14379 0.01419 0.0
O17 O 0.0847 0.05008 0.0268 0.0
C18 C 0.92515 0.9385 0.07515 0.0
O19 O 0.97262 0.94385 0.05772 0.0
O20 O 0.88888 0.95981 0.05324 0.0
O21 O 0.14693 0.90467 0.95037 0.0
O22 O 0.07097 0.82577 0.93777 0.0
O23 O 0.11692 0.92507 0.06439 0.0
C24 C 0.12209 0.85248 0.9314 0.0
O25 O 0.04226 0.84578 0.06025 0.0
O26 O 0.92954 0.84551 0.95793 0.0
C27 C 0.08658 0.87806 0.08352 0.0
O28 O 0.92573 0.93959 0.9472 0.0
O29 O 0.03874 0.04575 0.91581 0.0
O30 O 0.12242 0.02953 0.92152 0.0
C31 C 0.38902 0.63743 0.54378 0.0
C32 C 0.42355 0.61217 0.39127 0.0
C33 C 0.40341 0.3838 0.44589 0.0
Mg34 Mg 0.49446 0.63431 0.49108 0.0
O35 O 0.46702 0.55422 0.50776 0.0
Mg36 Mg 0.38957 0.51107 0.48243 0.0
Mg37 Mg 0.50563 0.49544 0.48739 0.0
O38 O 0.54418 0.4366 0.46689 0.0
Mg39 Mg 0.5171 0.3566 0.48426 0.0
Mg40 Mg 0.62183 0.48008 0.49122 0.0
C41 C 0.6082 0.60707 0.5287 0.0
C42 C 0.58573 0.5522 0.39912 0.0
O43 O 0.36406 0.58526 0.52481 0.0
O44 O 0.44006 0.66418 0.53713 0.0
O45 O 0.39338 0.56514 0.4105 0.0
O46 O 0.46801 0.64443 0.41434 0.0
O47 O 0.58124 0.64442 0.51591 0.0
O48 O 0.58546 0.55049 0.52707 0.0
C49 C 0.42478 0.43884 0.57535 0.0
O50 O 0.47249 0.44415 0.55832 0.0
O51 O 0.38879 0.46033 0.55307 0.0
O52 O 0.64698 0.40594 0.44843 0.0
O53 O 0.5713 0.32643 0.43786 0.0
O54 O 0.61888 0.42656 0.56268 0.0
C55 C 0.62203 0.35343 0.43015 0.0
O56 O 0.5442 0.34762 0.56127 0.0
O57 O 0.43021 0.34645 0.45921 0.0
C58 C 0.58927 0.38026 0.58316 0.0
O59 O 0.42622 0.44038 0.44752 0.0
O60 O 0.53828 0.5468 0.41662 0.0
O61 O 0.62196 0.53068 0.42083 0.0
H62 H 0.17827 0.21885 0.02502 0.0
H63 H 0.23827 0.2695 0.09662 0.0
H64 H 0.21352 0.10118 0.16967 0.0
H65 H 0.15521 0.05037 0.09803 0.0
H66 H 0.18395 0.26746 0.17831 0.0
H67 H 0.30204 0.11067 0.26829 0.0
H68 H 0.35792 0.046 0.24208 0.0
H69 H 0.40425 0.15325 0.11383 0.0
H70 H 0.3491 0.21887 0.13947 0.0
H71 H 0.33199 0.27185 0.448 0.0
H72 H 0.27244 0.22198 0.37588 0.0
H73 H 0.29836 0.39102 0.30381 0.0
H74 H 0.35627 0.44106 0.37595 0.0
H75 H 0.32779 0.22495 0.29443 0.0
H76 H 0.21023 0.38207 0.20461 0.0
H77 H 0.1544 0.44682 0.23076 0.0
H78 H 0.10717 0.33906 0.35857 0.0
H79 H 0.16228 0.27337 0.333 0.0
C80 C 0.18793 0.19236 0.05531 0.0
C81 C 0.16054 0.13113 0.05696 0.0
C82 C 0.22199 0.22137 0.09624 0.0
C83 C 0.22897 0.1893 0.13889 0.0
C84 C 0.20867 0.12688 0.13718 0.0
C85 C 0.17519 0.09777 0.096 0.0
C86 C 0.24647 0.22095 0.18765 0.0
C87 C 0.21628 0.25919 0.20337 0.0
C88 C 0.2868 0.208 0.22092 0.0
C89 C 0.32109 0.16948 0.20569 0.0
C90 C 0.3244 0.12067 0.23466 0.0
C91 C 0.35586 0.08376 0.21984 0.0
C92 C 0.38452 0.09545 0.17628 0.0
C93 C 0.38187 0.14413 0.14748 0.0
C94 C 0.35042 0.18112 0.16208 0.0
C95 C 0.32265 0.29867 0.4178 0.0
C96 C 0.35029 0.35987 0.41659 0.0
C97 C 0.28887 0.27011 0.37658 0.0
C98 C 0.28238 0.3026 0.33406 0.0
C99 C 0.30285 0.365 0.33619 0.0
C100 C 0.33609 0.39367 0.37766 0.0
C101 C 0.26521 0.27137 0.28511 0.0
C102 C 0.29549 0.23323 0.26935 0.0
C103 C 0.22498 0.28444 0.25181 0.0
C104 C 0.19074 0.32301 0.26701 0.0
C105 C 0.18769 0.37199 0.23814 0.0
C106 C 0.15626 0.40893 0.25292 0.0
C107 C 0.12735 0.39712 0.29634 0.0
C108 C 0.12973 0.34828 0.32503 0.0
C109 C 0.16117 0.31125 0.31047 0.0
H110 H 0.103 0.42572 0.30769 0.0
H111 H 0.40887 0.06687 0.16489 0.0
H112 H 0.77825 0.10129 0.0616 0.0
H113 H 0.73316 0.14008 0.12689 0.0
H114 H 0.88753 0.27283 0.16992 0.0
H115 H 0.93306 0.2346 0.10476 0.0
H116 H 0.83843 0.20947 0.25005 0.0
H117 H 0.78748 0.31581 0.11221 0.0
H118 H 0.74895 0.32765 0.0274 0.0
H119 H 0.58929 0.2156 0.06286 0.0
H120 H 0.62709 0.20236 0.14773 0.0
H121 H 0.73222 0.38908 0.41138 0.0
H122 H 0.77725 0.35046 0.34595 0.0
H123 H 0.62283 0.21788 0.30276 0.0
H124 H 0.57735 0.25595 0.36805 0.0
H125 H 0.67196 0.28118 0.22269 0.0
H126 H 0.72287 0.17476 0.36047 0.0
H127 H 0.76135 0.16283 0.44528 0.0
H128 H 0.92104 0.27493 0.40993 0.0
H129 H 0.88329 0.28825 0.32506 0.0
C130 C 0.80249 0.13926 0.08446 0.0
C131 C 0.85932 0.16472 0.07798 0.0
C132 C 0.77662 0.1614 0.12171 0.0
C133 C 0.8071 0.20923 0.15319 0.0
C134 C 0.86339 0.23576 0.14603 0.0
C135 C 0.8892 0.21402 0.10854 0.0
C136 C 0.78085 0.22974 0.19509 0.0
C137 C 0.80252 0.22601 0.24409 0.0
C138 C 0.73319 0.24975 0.18719 0.0
C139 C 0.71028 0.25757 0.13618 0.0
C140 C 0.74428 0.29322 0.10179 0.0
C141 C 0.72255 0.30029 0.05373 0.0
C142 C 0.66675 0.27225 0.0397 0.0
C143 C 0.63253 0.23721 0.07376 0.0
C144 C 0.65408 0.22995 0.12186 0.0
C145 C 0.70795 0.35119 0.38845 0.0
C146 C 0.65112 0.32572 0.39494 0.0
C147 C 0.7338 0.32915 0.35112 0.0
C148 C 0.70329 0.2814 0.31956 0.0
C149 C 0.64699 0.25489 0.3267 0.0
C150 C 0.6212 0.27653 0.36427 0.0
C151 C 0.72954 0.26091 0.27765 0.0
C152 C 0.70787 0.26465 0.22865 0.0
C153 C 0.7772 0.2409 0.28555 0.0
C154 C 0.80008 0.23303 0.33656 0.0
C155 C 0.76607 0.19734 0.37091 0.0
C156 C 0.78777 0.19022 0.41897 0.0
C157 C 0.84357 0.21825 0.43303 0.0
C158 C 0.8778 0.25333 0.399 0.0
C159 C 0.85628 0.26063 0.3509 0.0
H160 H 0.8603 0.21266 0.47026 0.0
H161 H 0.65 0.27779 0.00247 0.0
H162 H 0.93531 0.82838 0.09756 0.0
H163 H 0.87906 0.76032 0.15625 0.0
H164 H 0.81709 0.90246 0.20859 0.0
H165 H 0.87346 0.97009 0.15096 0.0
H166 H 0.82509 0.82986 0.28278 0.0
H167 H 0.75201 0.81136 0.1099 0.0
H168 H 0.75275 0.79183 0.0193 0.0
H169 H 0.76501 0.61578 0.0479 0.0
H170 H 0.76534 0.63466 0.13873 0.0
H171 H 0.57575 0.66257 0.37734 0.0
H172 H 0.63202 0.731 0.31888 0.0
H173 H 0.69378 0.58907 0.2657 0.0
H174 H 0.63737 0.52109 0.32307 0.0
H175 H 0.6858 0.66174 0.1919 0.0
H176 H 0.75922 0.68021 0.36469 0.0
H177 H 0.75905 0.69978 0.45534 0.0
H178 H 0.7464 0.87574 0.42699 0.0
H179 H 0.74555 0.85684 0.33611 0.0
C180 C 0.91163 0.84548 0.1233 0.0
C181 C 0.90824 0.90407 0.11984 0.0
C182 C 0.879 0.80655 0.15627 0.0
C183 C 0.84285 0.8261 0.18573 0.0
C184 C 0.84432 0.88634 0.18596 0.0
C185 C 0.87659 0.92496 0.15312 0.0
C186 C 0.79877 0.78347 0.21177 0.0
C187 C 0.79445 0.79328 0.26289 0.0
C188 C 0.75891 0.73567 0.18573 0.0
C189 C 0.75926 0.72463 0.13113 0.0
C190 C 0.75537 0.76869 0.09689 0.0
C191 C 0.75553 0.75771 0.04549 0.0
C192 C 0.75891 0.70259 0.02788 0.0
C193 C 0.7624 0.65845 0.06161 0.0
C194 C 0.76246 0.66927 0.11303 0.0
C195 C 0.5994 0.64561 0.35147 0.0
C196 C 0.60268 0.58696 0.3546 0.0
C197 C 0.63205 0.68475 0.31865 0.0
C198 C 0.66814 0.66535 0.28899 0.0
C199 C 0.66661 0.60509 0.28847 0.0
C200 C 0.6343 0.56627 0.32117 0.0
C201 C 0.71214 0.7081 0.26294 0.0
C202 C 0.71644 0.69832 0.21181 0.0
C203 C 0.75199 0.75591 0.28897 0.0
C204 C 0.75176 0.76689 0.34359 0.0
C205 C 0.75588 0.72286 0.37777 0.0
C206 C 0.75605 0.73387 0.42919 0.0
C207 C 0.75273 0.78898 0.44689 0.0
C208 C 0.74896 0.83308 0.41322 0.0
C209 C 0.7486 0.82224 0.36176 0.0
H210 H 0.75331 0.79766 0.4867 0.0
H211 H 0.75859 0.69394 -0.01191 0.0
H212 H 0.17176 0.93759 0.14999 0.0
H213 H 0.22824 0.89245 0.20526 0.0
H214 H 0.11495 0.71847 0.16983 0.0
H215 H 0.05733 0.76334 0.11576 0.0
H216 H 0.15817 0.72262 0.26361 0.0
H217 H 0.23052 0.77554 0.10209 0.0
H218 H 0.2622 0.84521 0.03422 0.0
H219 H 0.39092 0.95559 0.13453 0.0
H220 H 0.35947 0.88698 0.20318 0.0
H221 H 0.338 0.55263 0.32516 0.0
H222 H 0.28129 0.59771 0.27008 0.0
H223 H 0.39472 0.77172 0.30516 0.0
H224 H 0.45255 0.7269 0.35904 0.0
H225 H 0.3514 0.76755 0.21157 0.0
H226 H 0.27918 0.7146 0.37307 0.0
H227 H 0.24743 0.64507 0.44101 0.0
H228 H 0.11841 0.53488 0.34087 0.0
H229 H 0.14994 0.60332 0.27214 0.0
C230 C 0.15785 0.88991 0.15517 0.0
C231 C 0.11049 0.854 0.12772 0.0
C232 C 0.1905 0.86408 0.18647 0.0
C233 C 0.17694 0.80183 0.19025 0.0
C234 C 0.12667 0.76652 0.16701 0.0
C235 C 0.09358 0.79237 0.13617 0.0
C236 C 0.21736 0.77322 0.21419 0.0
C237 C 0.20022 0.73203 0.25189 0.0
C238 C 0.27256 0.78589 0.19935 0.0
C239 C 0.29241 0.82637 0.15782 0.0
C240 C 0.26547 0.81478 0.10968 0.0
C241 C 0.28335 0.8541 0.0711 0.0
C242 C 0.32847 0.90487 0.0801 0.0
C243 C 0.35593 0.91631 0.12765 0.0
C244 C 0.33814 0.87719 0.16639 0.0
C245 C 0.35187 0.6003 0.31995 0.0
C246 C 0.39936 0.63623 0.34723 0.0
C247 C 0.3191 0.6261 0.28876 0.0
C248 C 0.33266 0.68834 0.28493 0.0
C249 C 0.383 0.72367 0.30803 0.0
C250 C 0.41621 0.69785 0.33875 0.0
C251 C 0.29222 0.71695 0.261 0.0
C252 C 0.30935 0.75813 0.2233 0.0
C253 C 0.23701 0.70428 0.27584 0.0
C254 C 0.21716 0.66384 0.3174 0.0
C255 C 0.24417 0.67542 0.36552 0.0
C256 C 0.22624 0.63619 0.40415 0.0
C257 C 0.18101 0.58551 0.39522 0.0
C258 C 0.15349 0.57408 0.3477 0.0
C259 C 0.17133 0.61311 0.30891 0.0
H260 H 0.16723 0.55515 0.42515 0.0
H261 H 0.34222 0.9353 0.0502 0.0
H262 H 0.07798 0.75739 0.86698 0.0
H263 H 0.12437 0.72054 0.80213 0.0
H264 H 0.27974 0.84808 0.85173 0.0
H265 H 0.23323 0.88636 0.91622 0.0
H266 H 0.26187 0.8511 0.75367 0.0
H267 H 0.25374 0.69659 0.87184 0.0
H268 H 0.20888 0.61822 0.9292 0.0
H269 H 0.10248 0.5205 0.80696 0.0
H270 H 0.14618 0.5987 0.74895 0.0
H271 H 0.43363 0.73225 0.60837 0.0
H272 H 0.38769 0.76904 0.67362 0.0
H273 H 0.23197 0.64181 0.62444 0.0
H274 H 0.27802 0.6036 0.55954 0.0
H275 H 0.25032 0.63867 0.72249 0.0
H276 H 0.25828 0.79335 0.60437 0.0
H277 H 0.30314 0.87174 0.54703 0.0
H278 H 0.40988 0.96916 0.66921 0.0
H279 H 0.36618 0.89093 0.72719 0.0
C280 C 0.12221 0.777 0.86478 0.0
C281 C 0.15186 0.82493 0.89679 0.0
C282 C 0.14872 0.75576 0.82764 0.0
C283 C 0.20562 0.78128 0.82226 0.0
C284 C 0.23576 0.82784 0.85517 0.0
C285 C 0.20915 0.8495 0.89212 0.0
C286 C 0.23282 0.76174 0.78045 0.0
C287 C 0.26013 0.80476 0.74729 0.0
C288 C 0.22907 0.70107 0.77133 0.0
C289 C 0.20294 0.65379 0.80612 0.0
C290 C 0.2205 0.65861 0.85724 0.0
C291 C 0.19532 0.61417 0.88987 0.0
C292 C 0.15277 0.56448 0.87175 0.0
C293 C 0.13541 0.55904 0.82094 0.0
C294 C 0.16041 0.60337 0.78817 0.0
C295 C 0.38942 0.71269 0.61075 0.0
C296 C 0.35953 0.66489 0.57872 0.0
C297 C 0.36316 0.73389 0.64813 0.0
C298 C 0.30631 0.70844 0.65373 0.0
C299 C 0.27594 0.66199 0.62083 0.0
C300 C 0.30228 0.64037 0.58365 0.0
C301 C 0.27933 0.72802 0.69568 0.0
C302 C 0.25207 0.68501 0.72887 0.0
C303 C 0.28313 0.78871 0.70484 0.0
C304 C 0.30926 0.83599 0.67005 0.0
C305 C 0.29159 0.83127 0.61896 0.0
C306 C 0.31677 0.87572 0.58635 0.0
C307 C 0.35942 0.92533 0.60444 0.0
C308 C 0.37688 0.93068 0.65523 0.0
C309 C 0.35188 0.88633 0.68799 0.0
H310 H 0.37886 0.95968 0.57914 0.0
H311 H 0.13332 0.53014 0.89707 0.0
H312 H 0.14232 0.02012 0.82585 0.0
H313 H 0.19829 0.08758 0.76773 0.0
H314 H 0.1301 0.22723 0.81425 0.0
H315 H 0.07346 0.15925 0.87296 0.0
H316 H 0.15694 0.22502 0.70653 0.0
H317 H 0.23754 0.22783 0.87479 0.0
H318 H 0.26156 0.17961 0.9509 0.0
H319 H 0.36321 0.09938 0.8675 0.0
H320 H 0.33886 0.14626 0.79062 0.0
H321 H 0.36928 0.46927 0.64889 0.0
H322 H 0.31349 0.40147 0.7069 0.0
H323 H 0.38151 0.26208 0.65941 0.0
H324 H 0.43795 0.33041 0.60079 0.0
H325 H 0.35482 0.26402 0.76752 0.0
H326 H 0.2742 0.2613 0.59924 0.0
H327 H 0.25023 0.30966 0.5232 0.0
H328 H 0.14862 0.38982 0.60671 0.0
H329 H 0.17293 0.3428 0.68353 0.0
C330 C 0.13766 0.06454 0.82232 0.0
C331 C 0.10409 0.08487 0.85402 0.0
C332 C 0.16973 0.10299 0.78924 0.0
C333 C 0.16904 0.1625 0.78761 0.0
C334 C 0.13113 0.18133 0.81525 0.0
C335 C 0.09864 0.14252 0.8485 0.0
C336 C 0.21357 0.20608 0.76298 0.0
C337 C 0.20007 0.23415 0.72014 0.0
C338 C 0.26993 0.21696 0.78043 0.0
C339 C 0.28598 0.19011 0.82686 0.0
C340 C 0.26472 0.19958 0.87261 0.0
C341 C 0.2784 0.17252 0.91589 0.0
C342 C 0.31381 0.13635 0.91402 0.0
C343 C 0.33575 0.12737 0.86888 0.0
C344 C 0.32204 0.1542 0.82544 0.0
C345 C 0.37396 0.42484 0.65219 0.0
C346 C 0.40741 0.40468 0.62024 0.0
C347 C 0.34199 0.38619 0.68521 0.0
C348 C 0.34267 0.32666 0.68654 0.0
C349 C 0.38049 0.30799 0.65864 0.0
C350 C 0.41287 0.347 0.62546 0.0
C351 C 0.29818 0.28294 0.71108 0.0
C352 C 0.31169 0.25486 0.7539 0.0
C353 C 0.24182 0.27205 0.69362 0.0
C354 C 0.22578 0.29897 0.64722 0.0
C355 C 0.24704 0.28956 0.60146 0.0
C356 C 0.23338 0.3167 0.55821 0.0
C357 C 0.198 0.35288 0.56014 0.0
C358 C 0.17606 0.36181 0.60529 0.0
C359 C 0.18974 0.3349 0.6487 0.0
H360 H 0.18749 0.37391 0.52664 0.0
H361 H 0.32433 0.11539 0.94755 0.0
H362 H 0.82435 0.0526 0.83692 0.0
H363 H 0.76861 0.09921 0.78337 0.0
H364 H 0.9032 0.2622 0.78846 0.0
H365 H 0.9588 0.21642 0.84431 0.0
H366 H 0.81305 0.28488 0.81385 0.0
H367 H 0.85341 0.17292 0.67734 0.0
H368 H 0.86093 0.08279 0.63346 0.0
H369 H 0.68604 0.0009 0.64196 0.0
H370 H 0.67755 0.09033 0.68633 0.0
H371 H 0.68638 0.43599 0.63653 0.0
H372 H 0.74177 0.38887 0.68997 0.0
H373 H 0.60677 0.22619 0.68416 0.0
H374 H 0.55151 0.27252 0.62845 0.0
H375 H 0.6968 0.20304 0.65927 0.0
H376 H 0.65613 0.31453 0.79557 0.0
H377 H 0.64826 0.40424 0.83984 0.0
H378 H 0.82319 0.48655 0.83219 0.0
H379 H 0.83205 0.39754 0.78742 0.0
C380 C 0.84291 0.0979 0.8257 0.0
C381 C 0.89587 0.13105 0.84574 0.0
C382 C 0.81084 0.12452 0.79472 0.0
C383 C 0.83145 0.18443 0.78192 0.0
C384 C 0.88619 0.21605 0.79819 0.0
C385 C 0.91818 0.1896 0.82976 0.0
C386 C 0.79388 0.21554 0.75649 0.0
C387 C 0.78839 0.26756 0.77949 0.0
C388 C 0.76002 0.19178 0.71275 0.0
C389 C 0.76495 0.13821 0.6855 0.0
C390 C 0.81661 0.13558 0.6701 0.0
C391 C 0.82103 0.08464 0.64508 0.0
C392 C 0.77401 0.03612 0.63502 0.0
C393 C 0.72242 0.03853 0.64978 0.0
C394 C 0.71777 0.08938 0.67477 0.0
C395 C 0.66765 0.39065 0.64756 0.0
C396 C 0.61467 0.35778 0.6274 0.0
C397 C 0.69952 0.36372 0.67847 0.0
C398 C 0.67869 0.30376 0.69107 0.0
C399 C 0.62396 0.27237 0.6746 0.0
C400 C 0.59215 0.29914 0.64311 0.0
C401 C 0.71604 0.27244 0.71658 0.0
C402 C 0.72146 0.22037 0.69361 0.0
C403 C 0.74979 0.29611 0.76039 0.0
C404 C 0.74465 0.34948 0.7878 0.0
C405 C 0.69287 0.35188 0.80307 0.0
C406 C 0.68825 0.40258 0.82832 0.0
C407 C 0.73517 0.4511 0.83874 0.0
C408 C 0.78688 0.44893 0.8241 0.0
C409 C 0.79174 0.39831 0.79887 0.0
H410 H 0.73149 0.49035 0.85822 0.0
H411 H 0.77753 -0.00331 0.61572 0.0
H412 H 0.83162 0.77125 0.94696 0.0
H413 H 0.7716 0.72203 0.87497 0.0
H414 H 0.79605 0.8916 0.80433 0.0
H415 H 0.85429 0.94129 0.87678 0.0
H416 H 0.69924 0.80786 0.76793 0.0
H417 H 0.89583 0.82487 0.79851 0.0
H418 H 0.97542 0.81186 0.85082 0.0
H419 H 0.89838 0.62287 0.85083 0.0
H420 H 0.81798 0.63494 0.79914 0.0
H421 H 0.67905 0.71887 0.52541 0.0
H422 H 0.73981 0.76923 0.5966 0.0
H423 H 0.71667 0.60078 0.66887 0.0
H424 H 0.65771 0.54995 0.59718 0.0
H425 H 0.81338 0.68482 0.70412 0.0
H426 H 0.61654 0.66777 0.67432 0.0
H427 H 0.53655 0.68056 0.62246 0.0
H428 H 0.61387 0.86943 0.62112 0.0
H429 H 0.69465 0.85758 0.67238 0.0
C430 C 0.82159 0.79839 0.91737 0.0
C431 C 0.84923 0.85958 0.91641 0.0
C432 C 0.78752 0.77021 0.87618 0.0
C433 C 0.78189 0.80308 0.83369 0.0
C434 C 0.801 0.86547 0.83654 0.0
C435 C 0.83434 0.89383 0.87811 0.0
C436 C 0.76847 0.77292 0.78414 0.0
C437 C 0.72427 0.78125 0.75384 0.0
C438 C 0.80152 0.73838 0.7659 0.0
C439 C 0.85075 0.73086 0.79535 0.0
C440 C 0.89586 0.78058 0.80977 0.0
C441 C 0.94108 0.77339 0.83934 0.0
C442 C 0.94186 0.71659 0.85425 0.0
C443 C 0.89765 0.66684 0.83932 0.0
C444 C 0.85228 0.67382 0.80987 0.0
C445 C 0.68952 0.69222 0.55518 0.0
C446 C 0.66206 0.63103 0.55684 0.0
C447 C 0.72401 0.72105 0.59591 0.0
C448 C 0.73022 0.68883 0.63866 0.0
C449 C 0.71127 0.62642 0.63645 0.0
C450 C 0.67751 0.5974 0.59533 0.0
C451 C 0.74407 0.71966 0.68793 0.0
C452 C 0.78838 0.71149 0.71818 0.0
C453 C 0.71112 0.75433 0.70613 0.0
C454 C 0.66177 0.76172 0.67677 0.0
C455 C 0.61648 0.71198 0.66285 0.0
C456 C 0.57105 0.71905 0.63354 0.0
C457 C 0.57021 0.77575 0.6184 0.0
C458 C 0.61463 0.82553 0.63281 0.0
C459 C 0.66022 0.81867 0.662 0.0
H460 H 0.53516 0.78115 0.59551 0.0
H461 H 0.9767 0.71109 0.87737 0.0
loop_
_geom_bond_atom_site_label_1
_geom_bond_atom_site_label_2
_geom_bond_distance
_geom_bond_site_symmetry_2
_ccdc_geom_bond_type
C0 O12 1.241 . S
C0 O13 1.280 . S
C1 O14 1.277 . S
C1 O15 1.245 . S
C2 O26 1.247 . S
C2 O28 1.289 . S
Mg3 O4 1.926 . S
Mg3 O13 1.984 . S
Mg3 O15 1.988 1_554 S
Mg3 O16 2.061 1_655 S
O4 Mg3 1.926 . S
O4 Mg5 1.986 1_554 S
O4 Mg6 1.917 1_655 S
Mg5 O4 1.986 1_556 S
Mg5 O12 2.042 1_556 S
Mg5 O14 2.041 . S
Mg5 O20 2.038 1_546 S
Mg5 O28 2.238 1_545 S
Mg6 O4 1.917 1_455 S
Mg6 O7 1.917 1_544 S
Mg6 O17 2.106 . S
Mg6 O19 2.079 1_445 S
Mg6 O28 2.106 1_444 S
Mg6 O29 2.079 1_554 S
O7 Mg6 1.917 1_566 S
O7 Mg8 1.926 . S
O7 Mg9 1.986 1_556 S
Mg8 O7 1.926 . S
Mg8 O22 1.984 . S
Mg8 O25 1.988 1_556 S
Mg8 O26 2.061 1_455 S
Mg9 O7 1.986 1_554 S
Mg9 O17 2.238 1_565 S
Mg9 O21 2.042 1_554 S
Mg9 O23 2.041 . S
Mg9 O30 2.038 1_564 S
C10 O16 1.247 . S
C10 O17 1.289 . S
C11 O29 1.245 . S
C11 O30 1.274 . S
O12 C0 1.241 . S
O12 Mg5 2.042 1_554 S
O13 C0 1.280 . S
O13 Mg3 1.984 . S
O14 C1 1.277 . S
O14 Mg5 2.041 . S
O15 C1 1.245 . S
O15 Mg3 1.988 1_556 S
O16 Mg3 2.061 1_455 S
O16 C10 1.247 . S
O17 Mg6 2.106 . S
O17 Mg9 2.238 1_545 S
O17 C10 1.289 . S
C18 O19 1.245 . S
C18 O20 1.274 . S
O19 Mg6 2.079 1_665 S
O19 C18 1.245 . S
O20 Mg5 2.038 1_564 S
O20 C18 1.274 . S
O21 Mg9 2.042 1_556 S
O21 C24 1.241 . S
O22 Mg8 1.984 . S
O22 C24 1.280 . S
O23 Mg9 2.041 . S
O23 C27 1.277 . S
C24 O21 1.241 . S
C24 O22 1.280 . S
O25 Mg8 1.988 1_554 S
O25 C27 1.245 . S
O26 C2 1.247 . S
O26 Mg8 2.061 1_655 S
C27 O23 1.277 . S
C27 O25 1.245 . S
O28 C2 1.289 . S
O28 Mg5 2.238 1_565 S
O28 Mg6 2.106 1_666 S
O29 Mg6 2.079 1_556 S
O29 C11 1.245 . S
O30 Mg9 2.038 1_546 S
O30 C11 1.274 . S
C31 O43 1.241 . S
C31 O44 1.280 . S
C32 O45 1.277 . S
C32 O46 1.245 . S
C33 O57 1.247 . S
C33 O59 1.289 . S
Mg34 O35 1.926 . S
Mg34 O44 1.984 . S
Mg34 O46 1.988 . S
Mg34 O47 2.061 . S
O35 Mg34 1.926 . S
O35 Mg36 1.986 . S
O35 Mg37 1.917 . S
Mg36 O35 1.986 . S
Mg36 O43 2.042 . S
Mg36 O45 2.041 . S
Mg36 O51 2.038 . S
Mg36 O59 2.238 . S
Mg37 O35 1.917 . S
Mg37 O38 1.917 . S
Mg37 O48 2.106 . S
Mg37 O50 2.079 . S
Mg37 O59 2.106 . S
Mg37 O60 2.079 . S
O38 Mg37 1.917 . S
O38 Mg39 1.926 . S
O38 Mg40 1.986 . S
Mg39 O38 1.926 . S
Mg39 O53 1.984 . S
Mg39 O56 1.988 . S
Mg39 O57 2.061 . S
Mg40 O38 1.986 . S
Mg40 O48 2.238 . S
Mg40 O52 2.042 . S
Mg40 O54 2.041 . S
Mg40 O61 2.038 . S
C41 O47 1.247 . S
C41 O48 1.289 . S
C42 O60 1.245 . S
C42 O61 1.274 . S
O43 C31 1.241 . S
O43 Mg36 2.042 . S
O44 C31 1.280 . S
O44 Mg34 1.984 . S
O45 C32 1.277 . S
O45 Mg36 2.041 . S
O46 C32 1.245 . S
O46 Mg34 1.988 . S
O47 Mg34 2.061 . S
O47 C41 1.247 . S
O48 Mg37 2.106 . S
O48 Mg40 2.238 . S
O48 C41 1.289 . S
C49 O50 1.245 . S
C49 O51 1.274 . S
O50 Mg37 2.079 . S
O50 C49 1.245 . S
O51 Mg36 2.038 . S
O51 C49 1.274 . S
O52 Mg40 2.042 . S
O52 C55 1.241 . S
O53 Mg39 1.984 . S
O53 C55 1.280 . S
O54 Mg40 2.041 . S
O54 C58 1.277 . S
C55 O52 1.241 . S
C55 O53 1.280 . S
O56 Mg39 1.988 . S
O56 C58 1.245 . S
O57 C33 1.247 . S
O57 Mg39 2.061 . S
C58 O54 1.277 . S
C58 O56 1.245 . S
O59 C33 1.289 . S
O59 Mg36 2.238 . S
O59 Mg37 2.106 . S
O60 Mg37 2.079 . S
O60 C42 1.245 . S
O61 Mg40 2.038 . S
O61 C42 1.274 . S
H62 C80 0.951 . S
H63 C82 0.951 . S
H64 C84 0.950 . S
H65 C85 0.950 . S
H66 C87 0.950 . S
H67 C90 0.950 . S
H68 C91 0.950 . S
H69 C93 0.950 . S
H70 C94 0.950 . S
H71 C95 0.951 . S
H72 C97 0.951 . S
H73 C99 0.950 . S
H74 C100 0.950 . S
H75 C102 0.950 . S
H76 C105 0.950 . S
H77 C106 0.950 . S
H78 C108 0.950 . S
H79 C109 0.950 . S
C80 H62 0.951 . S
C80 C81 1.366 . S
C80 C82 1.388 . S
C81 C80 1.366 . S
C81 C85 1.385 . S
C82 H63 0.951 . S
C82 C80 1.388 . S
C82 C83 1.366 . S
C83 C82 1.366 . S
C83 C84 1.414 . S
C83 C86 1.499 . S
C84 H64 0.950 . S
C84 C83 1.414 . S
C84 C85 1.374 . S
C85 H65 0.950 . S
C85 C81 1.385 . S
C85 C84 1.374 . S
C86 C83 1.499 . S
C86 C87 1.373 . S
C86 C88 1.389 . S
C87 H66 0.950 . S
C87 C86 1.373 . S
C87 C103 1.377 . S
C88 C86 1.389 . S
C88 C89 1.524 . S
C88 C102 1.377 . S
C89 C88 1.524 . S
C89 C90 1.397 . S
C89 C94 1.363 . S
C90 H67 0.950 . S
C90 C89 1.397 . S
C90 C91 1.334 . S
C91 H68 0.950 . S
C91 C90 1.334 . S
C91 C92 1.287 . S
C92 C91 1.287 . S
C92 C93 1.524 . S
C92 H111 0.913 . S
C93 H69 0.950 . S
C93 C92 1.524 . S
C93 C94 1.415 . S
C94 H70 0.950 . S
C94 C89 1.363 . S
C94 C93 1.415 . S
C95 H71 0.951 . S
C95 C96 1.366 . S
C95 C97 1.388 . S
C96 C95 1.366 . S
C96 C100 1.385 . S
C97 H72 0.951 . S
C97 C95 1.388 . S
C97 C98 1.366 . S
C98 C97 1.366 . S
C98 C99 1.414 . S
C98 C101 1.499 . S
C99 H73 0.950 . S
C99 C98 1.414 . S
C99 C100 1.374 . S
C100 H74 0.950 . S
C100 C96 1.385 . S
C100 C99 1.374 . S
C101 C98 1.499 . S
C101 C102 1.373 . S
C101 C103 1.389 . S
C102 H75 0.950 . S
C102 C88 1.377 . S
C102 C101 1.373 . S
C103 C87 1.377 . S
C103 C101 1.389 . S
C103 C104 1.524 . S
C104 C103 1.524 . S
C104 C105 1.397 . S
C104 C109 1.363 . S
C105 H76 0.950 . S
C105 C104 1.397 . S
C105 C106 1.334 . S
C106 H77 0.950 . S
C106 C105 1.334 . S
C106 C107 1.287 . S
C107 C106 1.287 . S
C107 C108 1.524 . S
C107 H110 0.999 . S
C108 H78 0.950 . S
C108 C107 1.524 . S
C108 C109 1.415 . S
C109 H79 0.950 . S
C109 C104 1.363 . S
C109 C108 1.415 . S
H110 C107 0.999 . S
H111 C92 0.913 . S
H112 C130 0.951 . S
H113 C132 0.951 . S
H114 C134 0.950 . S
H115 C135 0.950 . S
H116 C137 0.950 . S
H117 C140 0.950 . S
H118 C141 0.950 . S
H119 C143 0.950 . S
H120 C144 0.950 . S
H121 C145 0.951 . S
H122 C147 0.951 . S
H123 C149 0.950 . S
H124 C150 0.950 . S
H125 C152 0.950 . S
H126 C155 0.950 . S
H127 C156 0.950 . S
H128 C158 0.950 . S
H129 C159 0.950 . S
C130 H112 0.951 . S
C130 C131 1.366 . S
C130 C132 1.388 . S
C131 C130 1.366 . S
C131 C135 1.385 . S
C132 H113 0.951 . S
C132 C130 1.388 . S
C132 C133 1.366 . S
C133 C132 1.366 . S
C133 C134 1.414 . S
C133 C136 1.499 . S
C134 H114 0.950 . S
C134 C133 1.414 . S
C134 C135 1.374 . S
C135 H115 0.950 . S
C135 C131 1.385 . S
C135 C134 1.374 . S
C136 C133 1.499 . S
C136 C137 1.373 . S
C136 C138 1.389 . S
C137 H116 0.950 . S
C137 C136 1.373 . S
C137 C153 1.377 . S
C138 C136 1.389 . S
C138 C139 1.524 . S
C138 C152 1.377 . S
C139 C138 1.524 . S
C139 C140 1.397 . S
C139 C144 1.363 . S
C140 H117 0.950 . S
C140 C139 1.397 . S
C140 C141 1.334 . S
C141 H118 0.950 . S
C141 C140 1.334 . S
C141 C142 1.287 . S
C142 C141 1.287 . S
C142 C143 1.524 . S
C142 H161 0.913 . S
C143 H119 0.950 . S
C143 C142 1.524 . S
C143 C144 1.415 . S
C144 H120 0.950 . S
C144 C139 1.363 . S
C144 C143 1.415 . S
C145 H121 0.951 . S
C145 C146 1.366 . S
C145 C147 1.388 . S
C146 C145 1.366 . S
C146 C150 1.385 . S
C147 H122 0.951 . S
C147 C145 1.388 . S
C147 C148 1.366 . S
C148 C147 1.366 . S
C148 C149 1.414 . S
C148 C151 1.499 . S
C149 H123 0.950 . S
C149 C148 1.414 . S
C149 C150 1.374 . S
C150 H124 0.950 . S
C150 C146 1.385 . S
C150 C149 1.374 . S
C151 C148 1.499 . S
C151 C152 1.373 . S
C151 C153 1.389 . S
C152 H125 0.950 . S
C152 C138 1.377 . S
C152 C151 1.373 . S
C153 C137 1.377 . S
C153 C151 1.389 . S
C153 C154 1.524 . S
C154 C153 1.524 . S
C154 C155 1.397 . S
C154 C159 1.363 . S
C155 H126 0.950 . S
C155 C154 1.397 . S
C155 C156 1.334 . S
C156 H127 0.950 . S
C156 C155 1.334 . S
C156 C157 1.287 . S
C157 C156 1.287 . S
C157 C158 1.524 . S
C157 H160 0.999 . S
C158 H128 0.950 . S
C158 C157 1.524 . S
C158 C159 1.415 . S
C159 H129 0.950 . S
C159 C154 1.363 . S
C159 C158 1.415 . S
H160 C157 0.999 . S
H161 C142 0.913 . S
H162 C180 0.951 . S
H163 C182 0.951 . S
H164 C184 0.950 . S
H165 C185 0.950 . S
H166 C187 0.950 . S
H167 C190 0.950 . S
H168 C191 0.950 . S
H169 C193 0.950 . S
H170 C194 0.950 . S
H171 C195 0.951 . S
H172 C197 0.951 . S
H173 C199 0.950 . S
H174 C200 0.950 . S
H175 C202 0.950 . S
H176 C205 0.950 . S
H177 C206 0.950 . S
H178 C208 0.950 . S
H179 C209 0.950 . S
C180 H162 0.951 . S
C180 C181 1.366 . S
C180 C182 1.388 . S
C181 C180 1.366 . S
C181 C185 1.385 . S
C182 H163 0.951 . S
C182 C180 1.388 . S
C182 C183 1.366 . S
C183 C182 1.366 . S
C183 C184 1.414 . S
C183 C186 1.499 . S
C184 H164 0.950 . S
C184 C183 1.414 . S
C184 C185 1.374 . S
C185 H165 0.950 . S
C185 C181 1.385 . S
C185 C184 1.374 . S
C186 C183 1.499 . S
C186 C187 1.373 . S
C186 C188 1.389 . S
C187 H166 0.950 . S
C187 C186 1.373 . S
C187 C203 1.377 . S
C188 C186 1.389 . S
C188 C189 1.524 . S
C188 C202 1.377 . S
C189 C188 1.524 . S
C189 C190 1.397 . S
C189 C194 1.363 . S
C190 H167 0.950 . S
C190 C189 1.397 . S
C190 C191 1.334 . S
C191 H168 0.950 . S
C191 C190 1.334 . S
C191 C192 1.287 . S
C192 C191 1.287 . S
C192 C193 1.524 . S
C192 H211 0.913 . S
C193 H169 0.950 . S
C193 C192 1.524 . S
C193 C194 1.415 . S
C194 H170 0.950 . S
C194 C189 1.363 . S
C194 C193 1.415 . S
C195 H171 0.951 . S
C195 C196 1.366 . S
C195 C197 1.388 . S
C196 C195 1.366 . S
C196 C200 1.385 . S
C197 H172 0.951 . S
C197 C195 1.388 . S
C197 C198 1.366 . S
C198 C197 1.366 . S
C198 C199 1.414 . S
C198 C201 1.499 . S
C199 H173 0.950 . S
C199 C198 1.414 . S
C199 C200 1.374 . S
C200 H174 0.950 . S
C200 C196 1.385 . S
C200 C199 1.374 . S
C201 C198 1.499 . S
C201 C202 1.373 . S
C201 C203 1.389 . S
C202 H175 0.950 . S
C202 C188 1.377 . S
C202 C201 1.373 . S
C203 C187 1.377 . S
C203 C201 1.389 . S
C203 C204 1.524 . S
C204 C203 1.524 . S
C204 C205 1.397 . S
C204 C209 1.363 . S
C205 H176 0.950 . S
C205 C204 1.397 . S
C205 C206 1.334 . S
C206 H177 0.950 . S
C206 C205 1.334 . S
C206 C207 1.287 . S
C207 C206 1.287 . S
C207 C208 1.524 . S
C207 H210 0.999 . S
C208 H178 0.950 . S
C208 C207 1.524 . S
C208 C209 1.415 . S
C209 H179 0.950 . S
C209 C204 1.363 . S
C209 C208 1.415 . S
H210 C207 0.999 . S
H211 C192 0.913 . S
H212 C230 0.951 . S
H213 C232 0.951 . S
H214 C234 0.950 . S
H215 C235 0.950 . S
H216 C237 0.950 . S
H217 C240 0.950 . S
H218 C241 0.950 . S
H219 C243 0.950 . S
H220 C244 0.950 . S
H221 C245 0.951 . S
H222 C247 0.951 . S
H223 C249 0.950 . S
H224 C250 0.950 . S
H225 C252 0.950 . S
H226 C255 0.950 . S
H227 C256 0.950 . S
H228 C258 0.950 . S
H229 C259 0.950 . S
C230 H212 0.951 . S
C230 C231 1.366 . S
C230 C232 1.388 . S
C231 C230 1.366 . S
C231 C235 1.385 . S
C232 H213 0.951 . S
C232 C230 1.388 . S
C232 C233 1.366 . S
C233 C232 1.366 . S
C233 C234 1.414 . S
C233 C236 1.499 . S
C234 H214 0.950 . S
C234 C233 1.414 . S
C234 C235 1.374 . S
C235 H215 0.950 . S
C235 C231 1.385 . S
C235 C234 1.374 . S
C236 C233 1.499 . S
C236 C237 1.373 . S
C236 C238 1.389 . S
C237 H216 0.950 . S
C237 C236 1.373 . S
C237 C253 1.377 . S
C238 C236 1.389 . S
C238 C239 1.524 . S
C238 C252 1.377 . S
C239 C238 1.524 . S
C239 C240 1.397 . S
C239 C244 1.363 . S
C240 H217 0.950 . S
C240 C239 1.397 . S
C240 C241 1.334 . S
C241 H218 0.950 . S
C241 C240 1.334 . S
C241 C242 1.287 . S
C242 C241 1.287 . S
C242 C243 1.524 . S
C242 H261 0.913 . S
C243 H219 0.950 . S
C243 C242 1.524 . S
C243 C244 1.415 . S
C244 H220 0.950 . S
C244 C239 1.363 . S
C244 C243 1.415 . S
C245 H221 0.951 . S
C245 C246 1.366 . S
C245 C247 1.388 . S
C246 C245 1.366 . S
C246 C250 1.385 . S
C247 H222 0.951 . S
C247 C245 1.388 . S
C247 C248 1.366 . S
C248 C247 1.366 . S
C248 C249 1.414 . S
C248 C251 1.499 . S
C249 H223 0.950 . S
C249 C248 1.414 . S
C249 C250 1.374 . S
C250 H224 0.950 . S
C250 C246 1.385 . S
C250 C249 1.374 . S
C251 C248 1.499 . S
C251 C252 1.373 . S
C251 C253 1.389 . S
C252 H225 0.950 . S
C252 C238 1.377 . S
C252 C251 1.373 . S
C253 C237 1.377 . S
C253 C251 1.389 . S
C253 C254 1.524 . S
C254 C253 1.524 . S
C254 C255 1.397 . S
C254 C259 1.363 . S
C255 H226 0.950 . S
C255 C254 1.397 . S
C255 C256 1.334 . S
C256 H227 0.950 . S
C256 C255 1.334 . S
C256 C257 1.287 . S
C257 C256 1.287 . S
C257 C258 1.524 . S
C257 H260 0.999 . S
C258 H228 0.950 . S
C258 C257 1.524 . S
C258 C259 1.415 . S
C259 H229 0.950 . S
C259 C254 1.363 . S
C259 C258 1.415 . S
H260 C257 0.999 . S
H261 C242 0.913 . S
H262 C280 0.951 . S
H263 C282 0.951 . S
H264 C284 0.950 . S
H265 C285 0.950 . S
H266 C287 0.950 . S
H267 C290 0.950 . S
H268 C291 0.950 . S
H269 C293 0.950 . S
H270 C294 0.950 . S
H271 C295 0.951 . S
H272 C297 0.951 . S
H273 C299 0.950 . S
H274 C300 0.950 . S
H275 C302 0.950 . S
H276 C305 0.950 . S
H277 C306 0.950 . S
H278 C308 0.950 . S
H279 C309 0.950 . S
C280 H262 0.951 . S
C280 C281 1.366 . S
C280 C282 1.388 . S
C281 C280 1.366 . S
C281 C285 1.385 . S
C282 H263 0.951 . S
C282 C280 1.388 . S
C282 C283 1.366 . S
C283 C282 1.366 . S
C283 C284 1.414 . S
C283 C286 1.499 . S
C284 H264 0.950 . S
C284 C283 1.414 . S
C284 C285 1.374 . S
C285 H265 0.950 . S
C285 C281 1.385 . S
C285 C284 1.374 . S
C286 C283 1.499 . S
C286 C287 1.373 . S
C286 C288 1.389 . S
C287 H266 0.950 . S
C287 C286 1.373 . S
C287 C303 1.377 . S
C288 C286 1.389 . S
C288 C289 1.524 . S
C288 C302 1.377 . S
C289 C288 1.524 . S
C289 C290 1.397 . S
C289 C294 1.363 . S
C290 H267 0.950 . S
C290 C289 1.397 . S
C290 C291 1.334 . S
C291 H268 0.950 . S
C291 C290 1.334 . S
C291 C292 1.287 . S
C292 C291 1.287 . S
C292 C293 1.524 . S
C292 H311 0.913 . S
C293 H269 0.950 . S
C293 C292 1.524 . S
C293 C294 1.415 . S
C294 H270 0.950 . S
C294 C289 1.363 . S
C294 C293 1.415 . S
C295 H271 0.951 . S
C295 C296 1.366 . S
C295 C297 1.388 . S
C296 C295 1.366 . S
C296 C300 1.385 . S
C297 H272 0.951 . S
C297 C295 1.388 . S
C297 C298 1.366 . S
C298 C297 1.366 . S
C298 C299 1.414 . S
C298 C301 1.499 . S
C299 H273 0.950 . S
C299 C298 1.414 . S
C299 C300 1.374 . S
C300 H274 0.950 . S
C300 C296 1.385 . S
C300 C299 1.374 . S
C301 C298 1.499 . S
C301 C302 1.373 . S
C301 C303 1.389 . S
C302 H275 0.950 . S
C302 C288 1.377 . S
C302 C301 1.373 . S
C303 C287 1.377 . S
C303 C301 1.389 . S
C303 C304 1.524 . S
C304 C303 1.524 . S
C304 C305 1.397 . S
C304 C309 1.363 . S
C305 H276 0.950 . S
C305 C304 1.397 . S
C305 C306 1.334 . S
C306 H277 0.950 . S
C306 C305 1.334 . S
C306 C307 1.287 . S
C307 C306 1.287 . S
C307 C308 1.524 . S
C307 H310 0.999 . S
C308 H278 0.950 . S
C308 C307 1.524 . S
C308 C309 1.415 . S
C309 H279 0.950 . S
C309 C304 1.363 . S
C309 C308 1.415 . S
H310 C307 0.999 . S
H311 C292 0.913 . S
H312 C330 0.951 . S
H313 C332 0.951 . S
H314 C334 0.950 . S
H315 C335 0.950 . S
H316 C337 0.950 . S
H317 C340 0.950 . S
H318 C341 0.950 . S
H319 C343 0.950 . S
H320 C344 0.950 . S
H321 C345 0.951 . S
H322 C347 0.951 . S
H323 C349 0.950 . S
H324 C350 0.950 . S
H325 C352 0.950 . S
H326 C355 0.950 . S
H327 C356 0.950 . S
H328 C358 0.950 . S
H329 C359 0.950 . S
C330 H312 0.951 . S
C330 C331 1.366 . S
C330 C332 1.388 . S
C331 C330 1.366 . S
C331 C335 1.385 . S
C332 H313 0.951 . S
C332 C330 1.388 . S
C332 C333 1.366 . S
C333 C332 1.366 . S
C333 C334 1.414 . S
C333 C336 1.499 . S
C334 H314 0.950 . S
C334 C333 1.414 . S
C334 C335 1.374 . S
C335 H315 0.950 . S
C335 C331 1.385 . S
C335 C334 1.374 . S
C336 C333 1.499 . S
C336 C337 1.373 . S
C336 C338 1.389 . S
C337 H316 0.950 . S
C337 C336 1.373 . S
C337 C353 1.377 . S
C338 C336 1.389 . S
C338 C339 1.524 . S
C338 C352 1.377 . S
C339 C338 1.524 . S
C339 C340 1.397 . S
C339 C344 1.363 . S
C340 H317 0.950 . S
C340 C339 1.397 . S
C340 C341 1.334 . S
C341 H318 0.950 . S
C341 C340 1.334 . S
C341 C342 1.287 . S
C342 C341 1.287 . S
C342 C343 1.524 . S
C342 H361 0.913 . S
C343 H319 0.950 . S
C343 C342 1.524 . S
C343 C344 1.415 . S
C344 H320 0.950 . S
C344 C339 1.363 . S
C344 C343 1.415 . S
C345 H321 0.951 . S
C345 C346 1.366 . S
C345 C347 1.388 . S
C346 C345 1.366 . S
C346 C350 1.385 . S
C347 H322 0.951 . S
C347 C345 1.388 . S
C347 C348 1.366 . S
C348 C347 1.366 . S
C348 C349 1.414 . S
C348 C351 1.499 . S
C349 H323 0.950 . S
C349 C348 1.414 . S
C349 C350 1.374 . S
C350 H324 0.950 . S
C350 C346 1.385 . S
C350 C349 1.374 . S
C351 C348 1.499 . S
C351 C352 1.373 . S
C351 C353 1.389 . S
C352 H325 0.950 . S
C352 C338 1.377 . S
C352 C351 1.373 . S
C353 C337 1.377 . S
C353 C351 1.389 . S
C353 C354 1.524 . S
C354 C353 1.524 . S
C354 C355 1.397 . S
C354 C359 1.363 . S
C355 H326 0.950 . S
C355 C354 1.397 . S
C355 C356 1.334 . S
C356 H327 0.950 . S
C356 C355 1.334 . S
C356 C357 1.287 . S
C357 C356 1.287 . S
C357 C358 1.524 . S
C357 H360 0.999 . S
C358 H328 0.950 . S
C358 C357 1.524 . S
C358 C359 1.415 . S
C359 H329 0.950 . S
C359 C354 1.363 . S
C359 C358 1.415 . S
H360 C357 0.999 . S
H361 C342 0.913 . S
H362 C380 0.951 . S
H363 C382 0.951 . S
H364 C384 0.950 . S
H365 C385 0.950 . S
H366 C387 0.950 . S
H367 C390 0.950 . S
H368 C391 0.950 . S
H369 C393 0.950 . S
H370 C394 0.950 . S
H371 C395 0.951 . S
H372 C397 0.951 . S
H373 C399 0.950 . S
H374 C400 0.950 . S
H375 C402 0.950 . S
H376 C405 0.950 . S
H377 C406 0.950 . S
H378 C408 0.950 . S
H379 C409 0.950 . S
C380 H362 0.951 . S
C380 C381 1.366 . S
C380 C382 1.388 . S
C381 C380 1.366 . S
C381 C385 1.385 . S
C382 H363 0.951 . S
C382 C380 1.388 . S
C382 C383 1.366 . S
C383 C382 1.366 . S
C383 C384 1.414 . S
C383 C386 1.499 . S
C384 H364 0.950 . S
C384 C383 1.414 . S
C384 C385 1.374 . S
C385 H365 0.950 . S
C385 C381 1.385 . S
C385 C384 1.374 . S
C386 C383 1.499 . S
C386 C387 1.373 . S
C386 C388 1.389 . S
C387 H366 0.950 . S
C387 C386 1.373 . S
C387 C403 1.377 . S
C388 C386 1.389 . S
C388 C389 1.524 . S
C388 C402 1.377 . S
C389 C388 1.524 . S
C389 C390 1.397 . S
C389 C394 1.363 . S
C390 H367 0.950 . S
C390 C389 1.397 . S
C390 C391 1.334 . S
C391 H368 0.950 . S
C391 C390 1.334 . S
C391 C392 1.287 . S
C392 C391 1.287 . S
C392 C393 1.524 . S
C392 H411 0.913 1_545 S
C393 H369 0.950 . S
C393 C392 1.524 . S
C393 C394 1.415 . S
C394 H370 0.950 . S
C394 C389 1.363 . S
C394 C393 1.415 . S
C395 H371 0.951 . S
C395 C396 1.366 . S
C395 C397 1.388 . S
C396 C395 1.366 . S
C396 C400 1.385 . S
C397 H372 0.951 . S
C397 C395 1.388 . S
C397 C398 1.366 . S
C398 C397 1.366 . S
C398 C399 1.414 . S
C398 C401 1.499 . S
C399 H373 0.950 . S
C399 C398 1.414 . S
C399 C400 1.374 . S
C400 H374 0.950 . S
C400 C396 1.385 . S
C400 C399 1.374 . S
C401 C398 1.499 . S
C401 C402 1.373 . S
C401 C403 1.389 . S
C402 H375 0.950 . S
C402 C388 1.377 . S
C402 C401 1.373 . S
C403 C387 1.377 . S
C403 C401 1.389 . S
C403 C404 1.524 . S
C404 C403 1.524 . S
C404 C405 1.397 . S
C404 C409 1.363 . S
C405 H376 0.950 . S
C405 C404 1.397 . S
C405 C406 1.334 . S
C406 H377 0.950 . S
C406 C405 1.334 . S
C406 C407 1.287 . S
C407 C406 1.287 . S
C407 C408 1.524 . S
C407 H410 0.999 . S
C408 H378 0.950 . S
C408 C407 1.524 . S
C408 C409 1.415 . S
C409 H379 0.950 . S
C409 C404 1.363 . S
C409 C408 1.415 . S
H410 C407 0.999 . S
H411 C392 0.913 1_565 S
H412 C430 0.951 . S
H413 C432 0.951 . S
H414 C434 0.950 . S
H415 C435 0.950 . S
H416 C437 0.950 . S
H417 C440 0.950 . S
H418 C441 0.950 . S
H419 C443 0.950 . S
H420 C444 0.950 . S
H421 C445 0.951 . S
H422 C447 0.951 . S
H423 C449 0.950 . S
H424 C450 0.950 . S
H425 C452 0.950 . S
H426 C455 0.950 . S
H427 C456 0.950 . S
H428 C458 0.950 . S
H429 C459 0.950 . S
C430 H412 0.951 . S
C430 C431 1.366 . S
C430 C432 1.388 . S
C431 C430 1.366 . S
C431 C435 1.385 . S
C432 H413 0.951 . S
C432 C430 1.388 . S
C432 C433 1.366 . S
C433 C432 1.366 . S
C433 C434 1.414 . S
C433 C436 1.499 . S
C434 H414 0.950 . S
C434 C433 1.414 . S
C434 C435 1.374 . S
C435 H415 0.950 . S
C435 C431 1.385 . S
C435 C434 1.374 . S
C436 C433 1.499 . S
C436 C437 1.373 . S
C436 C438 1.389 . S
C437 H416 0.950 . S
C437 C436 1.373 . S
C437 C453 1.377 . S
C438 C436 1.389 . S
C438 C439 1.524 . S
C438 C452 1.377 . S
C439 C438 1.524 . S
C439 C440 1.397 . S
C439 C444 1.363 . S
C440 H417 0.950 . S
C440 C439 1.397 . S
C440 C441 1.334 . S
C441 H418 0.950 . S
C441 C440 1.334 . S
C441 C442 1.287 . S
C442 C441 1.287 . S
C442 C443 1.524 . S
C442 H461 0.913 . S
C443 H419 0.950 . S
C443 C442 1.524 . S
C443 C444 1.415 . S
C444 H420 0.950 . S
C444 C439 1.363 . S
C444 C443 1.415 . S
C445 H421 0.951 . S
C445 C446 1.366 . S
C445 C447 1.388 . S
C446 C445 1.366 . S
C446 C450 1.385 . S
C447 H422 0.951 . S
C447 C445 1.388 . S
C447 C448 1.366 . S
C448 C447 1.366 . S
C448 C449 1.414 . S
C448 C451 1.499 . S
C449 H423 0.950 . S
C449 C448 1.414 . S
C449 C450 1.374 . S
C450 H424 0.950 . S
C450 C446 1.385 . S
C450 C449 1.374 . S
C451 C448 1.499 . S
C451 C452 1.373 . S
C451 C453 1.389 . S
C452 H425 0.950 . S
C452 C438 1.377 . S
C452 C451 1.373 . S
C453 C437 1.377 . S
C453 C451 1.389 . S
C453 C454 1.524 . S
C454 C453 1.524 . S
C454 C455 1.397 . S
C454 C459 1.363 . S
C455 H426 0.950 . S
C455 C454 1.397 . S
C455 C456 1.334 . S
C456 H427 0.950 . S
C456 C455 1.334 . S
C456 C457 1.287 . S
C457 C456 1.287 . S
C457 C458 1.524 . S
C457 H460 0.999 . S
C458 H428 0.950 . S
C458 C457 1.524 . S
C458 C459 1.415 . S
C459 H429 0.950 . S
C459 C454 1.363 . S
C459 C458 1.415 . S
H460 C457 0.999 . S
H461 C442 0.913 . S
C81 C10 0.710 . S
C96 C33 0.706 . S
C131 C0 1.655 . S
C146 C55 1.653 . S
C181 C18 1.502 . S
C196 C42 1.502 . S
C231 C27 1.822 . S
C246 C32 1.820 . S
C281 C24 1.655 . S
C296 C31 1.656 . S
C346 C49 1.503 . S
C331 C11 1.503 . S
C381 C1 1.822 . S
C396 C58 1.823 . S
C446 C41 0.712 . S
C431 C2 0.715 . S
