# Generated by pormake.
# Topology apo, (3,6)-cn, num edge types: 1
# Building blocks:
#     Node 0, Type 0, BuildingBlock: WUSLED_clean_sbu_0, # of connection points: 3
#     Node 1, Type 0, BuildingBlock: WUSLED_clean_sbu_0, # of connection points: 3
#     Node 2, Type 0, BuildingBlock: WUSLED_clean_sbu_0, # of connection points: 3
#     Node 3, Type 0, BuildingBlock: WUSLED_clean_sbu_0, # of connection points: 3
#     Node 4, Type 0, BuildingBlock: WUSLED_clean_sbu_0, # of connection points: 3
#     Node 5, Type 0, BuildingBlock: WUSLED_clean_sbu_0, # of connection points: 3
#     Node 6, Type 0, BuildingBlock: WUSLED_clean_sbu_0, # of connection points: 3
#     Node 7, Type 0, BuildingBlock: WUSLED_clean_sbu_0, # of connection points: 3
#     Node 8, Type 1, BuildingBlock: MIDCAF_clean_sbu_0, # of connection points: 6
#     Node 9, Type 1, BuildingBlock: MIDCAF_clean_sbu_0, # of connection points: 6
#     Node 10, Type 1, BuildingBlock: MIDCAF_clean_sbu_0, # of connection points: 6
#     Node 11, Type 1, BuildingBlock: MIDCAF_clean_sbu_0, # of connection points: 6
#     Edge 12, Type (0, 1), BuildingBlock: EZIPEK_clean_linker_0, # of connection points: 2
#     Edge 13, Type (0, 1), BuildingBlock: EZIPEK_clean_linker_0, # of connection points: 2
#     Edge 14, Type (0, 1), BuildingBlock: EZIPEK_clean_linker_0, # of connection points: 2
#     Edge 15, Type (0, 1), BuildingBlock: EZIPEK_clean_linker_0, # of connection points: 2
#     Edge 16, Type (0, 1), BuildingBlock: EZIPEK_clean_linker_0, # of connection points: 2
#     Edge 17, Type (0, 1), BuildingBlock: EZIPEK_clean_linker_0, # of connection points: 2
#     Edge 18, Type (0, 1), BuildingBlock: EZIPEK_clean_linker_0, # of connection points: 2
#     Edge 19, Type (0, 1), BuildingBlock: EZIPEK_clean_linker_0, # of connection points: 2
#     Edge 20, Type (0, 1), BuildingBlock: EZIPEK_clean_linker_0, # of connection points: 2
#     Edge 21, Type (0, 1), BuildingBlock: EZIPEK_clean_linker_0, # of connection points: 2
#     Edge 22, Type (0, 1), BuildingBlock: EZIPEK_clean_linker_0, # of connection points: 2
#     Edge 23, Type (0, 1), BuildingBlock: EZIPEK_clean_linker_0, # of connection points: 2
#     Edge 24, Type (0, 1), BuildingBlock: EZIPEK_clean_linker_0, # of connection points: 2
#     Edge 25, Type (0, 1), BuildingBlock: EZIPEK_clean_linker_0, # of connection points: 2
#     Edge 26, Type (0, 1), BuildingBlock: EZIPEK_clean_linker_0, # of connection points: 2
#     Edge 27, Type (0, 1), BuildingBlock: EZIPEK_clean_linker_0, # of connection points: 2
#     Edge 28, Type (0, 1), BuildingBlock: EZIPEK_clean_linker_0, # of connection points: 2
#     Edge 29, Type (0, 1), BuildingBlock: EZIPEK_clean_linker_0, # of connection points: 2
#     Edge 30, Type (0, 1), BuildingBlock: EZIPEK_clean_linker_0, # of connection points: 2
#     Edge 31, Type (0, 1), BuildingBlock: EZIPEK_clean_linker_0, # of connection points: 2
#     Edge 32, Type (0, 1), BuildingBlock: EZIPEK_clean_linker_0, # of connection points: 2
#     Edge 33, Type (0, 1), BuildingBlock: EZIPEK_clean_linker_0, # of connection points: 2
#     Edge 34, Type (0, 1), BuildingBlock: EZIPEK_clean_linker_0, # of connection points: 2
#     Edge 35, Type (0, 1), BuildingBlock: EZIPEK_clean_linker_0, # of connection points: 2
# Relax obj value: 0.081
# Max RMSD: 0.098
# Mean RMSD: 0.087
data_MOF--net-apo--node1-WUSLED_clean_sbu_0--node2-MIDCAF_clean_sbu_0--edge1-EZIPEK_clean_linker_0
_symmetry_space_group_name_H-M    P1
_symmetry_Int_Tables_number       1
_symmetry_cell_setting            triclinic
loop_
_symmetry_equiv_pos_as_xyz
'x, y, z'
_cell_length_a     35.657101
_cell_length_b     42.541124
_cell_length_c     36.646275
_cell_angle_alpha  90.151982
_cell_angle_beta   90.103464
_cell_angle_gamma 90.127545
loop_
_atom_site_label
_atom_site_type_symbol
_atom_site_fract_x
_atom_site_fract_y
_atom_site_fract_z
_atom_type_partial_charge
C0 C 0.36449 0.40465 0.34065 0.0
C1 C 0.39484 0.41672 0.36081 0.0
C2 C 0.39901 0.46128 0.31956 0.0
C3 C 0.41211 0.44485 0.35022 0.0
C4 C 0.36942 0.44868 0.29886 0.0
C5 C 0.35234 0.42051 0.3093 0.0
U6 U 0.33614 0.34586 0.41458 0.0
O7 O 0.28051 0.32629 0.42696 0.0
O8 O 0.32612 0.29488 0.41025 0.0
C9 C 0.29012 0.29768 0.41721 0.0
C10 C 0.34367 0.37677 0.35303 0.0
C11 C 0.26454 0.28229 0.39111 0.0
C12 C 0.23596 0.27843 0.33082 0.0
C13 C 0.26175 0.29256 0.35476 0.0
C14 C 0.21591 0.24357 0.37927 0.0
C15 C 0.21263 0.25402 0.34311 0.0
C16 C 0.24164 0.25761 0.40309 0.0
C17 C 0.38027 0.3572 0.51105 0.0
C18 C 0.36257 0.33213 0.56827 0.0
C19 C 0.41811 0.36497 0.5655 0.0
C20 C 0.41141 0.3706 0.52857 0.0
C21 C 0.39381 0.34579 0.58568 0.0
C22 C 0.35581 0.33782 0.53105 0.0
C23 C 0.37407 0.36471 0.47226 0.0
O24 O 0.36393 0.35205 0.36148 0.0
O25 O 0.31685 0.38245 0.37666 0.0
O26 O 0.34088 0.37576 0.46346 0.0
O27 O 0.38732 0.34454 0.44834 0.0
H28 H 0.40443 0.4049 0.38525 0.0
H29 H 0.43461 0.45449 0.36674 0.0
H30 H 0.35871 0.46125 0.27538 0.0
H31 H 0.32886 0.41159 0.29353 0.0
H32 H 0.23381 0.28673 0.30298 0.0
H33 H 0.2792 0.31168 0.34509 0.0
H34 H 0.19816 0.22474 0.38918 0.0
H35 H 0.24336 0.24943 0.43102 0.0
H36 H 0.34355 0.31723 0.58346 0.0
H37 H 0.44235 0.37566 0.57844 0.0
H38 H 0.43054 0.38564 0.51366 0.0
H39 H 0.33158 0.32728 0.51796 0.0
C40 C 0.18537 0.20763 1.01901 0.0
C41 C 0.15628 0.186 1.02521 0.0
C42 C 0.15325 0.20187 0.08899 0.0
C43 C 0.14038 0.18316 0.05992 0.0
C44 C 0.1826 0.22332 0.08294 0.0
C45 C 0.19852 0.22619 0.04811 0.0
U46 U 0.1915 0.17986 0.92082 0.0
O47 O 0.19761 0.20552 0.86904 0.0
O48 O 0.24015 0.17112 0.88534 0.0
C49 C 0.2301 0.19252 0.86145 0.0
C50 C 0.20217 0.21051 0.9824 0.0
C51 C 0.25993 0.21401 0.84908 0.0
C52 C 0.30546 0.25552 0.8605 0.0
C53 C 0.27672 0.23576 0.87294 0.0
C54 C 0.3007 0.23221 0.80025 0.0
C55 C 0.31778 0.25374 0.82413 0.0
C56 C 0.272 0.21247 0.81268 0.0
C57 C 0.127 0.11036 0.89442 0.0
C58 C 0.13606 0.07515 0.8428 0.0
C59 C 0.08308 0.06763 0.88323 0.0
C60 C 0.09428 0.09385 0.90362 0.0
C61 C 0.10448 0.05759 0.85334 0.0
C62 C 0.14728 0.10143 0.86324 0.0
C63 C 0.14133 0.13448 0.91976 0.0
O64 O 0.2228 0.18652 0.97212 0.0
O65 O 0.17936 0.22028 0.95658 0.0
O66 O 0.13321 0.16386 0.91212 0.0
O67 O 0.17615 0.13063 0.93063 0.0
H68 H 0.14587 0.17136 1.00316 0.0
H69 H 0.11782 0.16645 0.0641 0.0
H70 H 0.19294 0.23789 0.10507 0.0
H71 H 0.22106 0.2429 0.04387 0.0
H72 H 0.31833 0.27205 0.87929 0.0
H73 H 0.26773 0.2373 0.90111 0.0
H74 H 0.30981 0.23055 0.77212 0.0
H75 H 0.25933 0.19583 0.79388 0.0
H76 H 0.1531 0.06749 0.82002 0.0
H77 H 0.05888 0.05417 0.89193 0.0
H78 H 0.07835 0.10036 0.92763 0.0
H79 H 0.17266 0.11388 0.85576 0.0
C80 C 0.86689 0.11333 0.72493 0.0
C81 C 0.89653 0.10118 0.70405 0.0
C82 C 0.9024 0.05717 0.74594 0.0
C83 C 0.91428 0.07327 0.71458 0.0
C84 C 0.87356 0.06988 0.76733 0.0
C85 C 0.85599 0.09781 0.75692 0.0
U86 U 0.83732 0.17285 0.65194 0.0
O87 O 0.78127 0.1917 0.63997 0.0
O88 O 0.82634 0.22357 0.65746 0.0
C89 C 0.79042 0.22036 0.65012 0.0
C90 C 0.84556 0.141 0.7128 0.0
C91 C 0.76439 0.23543 0.67593 0.0
C92 C 0.73514 0.2392 0.73583 0.0
C93 C 0.76117 0.22512 0.71223 0.0
C94 C 0.71569 0.27402 0.68713 0.0
C95 C 0.712 0.26358 0.72325 0.0
C96 C 0.74164 0.26005 0.66367 0.0
C97 C 0.88169 0.16458 0.55515 0.0
C98 C 0.92408 0.1649 0.50329 0.0
C99 C 0.85937 0.18062 0.49504 0.0
C100 C 0.85268 0.17542 0.53235 0.0
C101 C 0.89506 0.17489 0.48021 0.0
C102 C 0.91745 0.15979 0.54034 0.0
C103 C 0.87555 0.15608 0.59378 0.0
O104 O 0.86533 0.1662 0.70495 0.0
O105 O 0.81893 0.13519 0.68888 0.0
O106 O 0.84271 0.14407 0.60228 0.0
O107 O 0.88853 0.17581 0.61844 0.0
H108 H 0.90517 0.11276 0.67913 0.0
H109 H 0.93616 0.06353 0.6975 0.0
H110 H 0.86375 0.05755 0.79134 0.0
H111 H 0.83308 0.1068 0.77328 0.0
H112 H 0.73271 0.2309 0.76364 0.0
H113 H 0.77851 0.20606 0.72212 0.0
H114 H 0.69812 0.29284 0.67699 0.0
H115 H 0.7437 0.26827 0.63578 0.0
H116 H 0.9518 0.16043 0.49239 0.0
H117 H 0.83666 0.18842 0.47764 0.0
H118 H 0.82483 0.17931 0.54319 0.0
H119 H 0.94019 0.15137 0.55735 0.0
C120 C 0.68412 0.30901 0.04688 0.0
C121 C 0.70337 0.29803 1.01598 0.0
C122 C 0.65306 0.31656 0.9766 0.0
C123 C 0.68798 0.30182 0.981 0.0
C124 C 0.63385 0.3275 1.00751 0.0
C125 C 0.64929 0.32387 0.04235 0.0
U126 U 0.68953 0.33591 0.14537 0.0
O127 O 0.6955 0.31003 0.19702 0.0
O128 O 0.73781 0.34498 0.18144 0.0
C129 C 0.72781 0.32331 0.20503 0.0
C130 C 0.70092 0.30599 0.08357 0.0
C131 C 0.75772 0.30199 0.2174 0.0
C132 C 0.80484 0.26208 0.20549 0.0
C133 C 0.77612 0.28177 0.19301 0.0
C134 C 0.79683 0.2824 0.26684 0.0
C135 C 0.81551 0.26239 0.24244 0.0
C136 C 0.76817 0.30209 0.25436 0.0
C137 C 0.6241 0.40442 0.17171 0.0
C138 C 0.63209 0.43861 0.22445 0.0
C139 C 0.58071 0.4474 0.18231 0.0
C140 C 0.59206 0.42142 0.16173 0.0
C141 C 0.60128 0.4567 0.21316 0.0
C142 C 0.64349 0.41257 0.20379 0.0
C143 C 0.63881 0.38065 0.14628 0.0
O144 O 0.72123 0.33013 0.09424 0.0
O145 O 0.67835 0.29554 0.10921 0.0
O146 O 0.63099 0.35113 0.1536 0.0
O147 O 0.67366 0.385 0.13583 0.0
H148 H 0.73041 0.28673 1.0189 0.0
H149 H 0.70326 0.2934 0.95742 0.0
H150 H 0.607 0.3391 1.00459 0.0
H151 H 0.63414 0.33284 0.06576 0.0
H152 H 0.81892 0.24671 0.18632 0.0
H153 H 0.76838 0.28134 0.16441 0.0
H154 H 0.80463 0.28288 0.29542 0.0
H155 H 0.75422 0.31753 0.27356 0.0
H156 H 0.64848 0.4457 0.248 0.0
H157 H 0.5571 0.46127 0.17306 0.0
H158 H 0.57684 0.4155 0.13702 0.0
H159 H 0.66835 0.39973 0.21185 0.0
C160 C 0.65365 0.61534 0.71715 0.0
C161 C 0.63803 0.59535 0.6906 0.0
C162 C 0.61165 0.5623 0.73814 0.0
C163 C 0.61724 0.56896 0.70105 0.0
C164 C 0.62581 0.58306 0.76467 0.0
C165 C 0.64681 0.6094 0.7542 0.0
U166 U 0.69276 0.66997 0.64449 0.0
O167 O 0.70715 0.72035 0.64709 0.0
O168 O 0.75053 0.68558 0.63406 0.0
C169 C 0.74302 0.71514 0.64152 0.0
C170 C 0.67837 0.64151 0.70645 0.0
C171 C 0.76922 0.73075 0.6669 0.0
C172 C 0.80265 0.73326 0.72488 0.0
C173 C 0.77578 0.719 0.70217 0.0
C174 C 0.81591 0.77139 0.67757 0.0
C175 C 0.8232 0.75933 0.71246 0.0
C176 C 0.78917 0.75719 0.65497 0.0
C177 C 0.65179 0.6579 0.54661 0.0
C178 C 0.67485 0.67695 0.48808 0.0
C179 C 0.61382 0.652 0.49197 0.0
C180 C 0.61878 0.6478 0.52939 0.0
C181 C 0.64178 0.66643 0.47096 0.0
C182 C 0.67986 0.67268 0.52583 0.0
C183 C 0.65596 0.6516 0.58594 0.0
O184 O 0.70635 0.63371 0.68497 0.0
O185 O 0.66134 0.66738 0.69617 0.0
O186 O 0.64353 0.67338 0.60832 0.0
O187 O 0.68767 0.63887 0.59665 0.0
H188 H 0.64284 0.59967 0.66186 0.0
H189 H 0.60658 0.55315 0.68025 0.0
H190 H 0.62181 0.5782 0.7934 0.0
H191 H 0.65854 0.62466 0.77503 0.0
H192 H 0.80795 0.72366 0.75174 0.0
H193 H 0.76061 0.69856 0.71182 0.0
H194 H 0.83151 0.79147 0.66756 0.0
H195 H 0.78451 0.76655 0.62787 0.0
H196 H 0.6967 0.68816 0.47225 0.0
H197 H 0.58813 0.64378 0.47925 0.0
H198 H 0.59685 0.63632 0.54491 0.0
H199 H 0.70558 0.68064 0.53868 0.0
C200 C 0.83576 0.81522 0.038 0.0
C201 C 0.86642 0.8354 0.03252 0.0
C202 C 0.8669 0.82235 0.96792 0.0
C203 C 0.88186 0.8389 0.99776 0.0
C204 C 0.83596 0.80238 0.97322 0.0
C205 C 0.82051 0.79881 1.00815 0.0
U206 U 0.83244 0.84212 0.13606 0.0
O207 O 0.78504 0.85158 0.17279 0.0
O208 O 0.82709 0.8164 0.18789 0.0
C209 C 0.79427 0.82891 0.19543 0.0
C210 C 0.8195 0.8119 0.0747 0.0
C211 C 0.76367 0.80688 0.20567 0.0
C212 C 0.69726 0.7961 0.2142 0.0
C213 C 0.72637 0.81712 0.20649 0.0
C214 C 0.74203 0.75509 0.22463 0.0
C215 C 0.704 0.76356 0.21915 0.0
C216 C 0.7713 0.77603 0.21683 0.0
C217 C 0.90008 0.91189 0.15805 0.0
C218 C 0.93707 0.92957 0.21028 0.0
C219 C 0.91764 0.96686 0.16414 0.0
C220 C 0.89959 0.94285 0.14497 0.0
C221 C 0.93667 0.96042 0.19673 0.0
C222 C 0.91883 0.90537 0.19103 0.0
C223 C 0.88308 0.88706 0.13506 0.0
O224 O 0.84269 0.80163 0.09991 0.0
O225 O 0.79945 0.836 0.08569 0.0
O226 O 0.84787 0.89134 0.12571 0.0
O227 O 0.89107 0.85761 0.14266 0.0
H228 H 0.87839 0.84844 0.05517 0.0
H229 H 0.90564 0.85449 0.99412 0.0
H230 H 0.824 0.78954 0.95043 0.0
H231 H 0.7967 0.78329 1.01187 0.0
H232 H 0.66945 0.80594 0.21621 0.0
H233 H 0.71954 0.84148 0.20112 0.0
H234 H 0.75015 0.73265 0.23557 0.0
H235 H 0.79996 0.768 0.21975 0.0
H236 H 0.95176 0.92424 0.2354 0.0
H237 H 0.91714 0.99053 0.15328 0.0
H238 H 0.88571 0.9484 0.11947 0.0
H239 H 0.91986 0.88166 0.20165 0.0
C240 C 0.1568 0.90541 0.34309 0.0
C241 C 0.11935 0.9008 0.33185 0.0
C242 C 0.11085 0.9572 0.32547 0.0
C243 C 0.09656 0.92651 0.32311 0.0
C244 C 0.14841 0.96182 0.33555 0.0
C245 C 0.1712 0.93622 0.34413 0.0
U246 U 0.19369 0.84733 0.41405 0.0
O247 O 0.20703 0.79694 0.4095 0.0
O248 O 0.2509 0.83074 0.42503 0.0
C249 C 0.24288 0.80154 0.41613 0.0
C250 C 0.18098 0.87847 0.35351 0.0
C251 C 0.26918 0.78649 0.39065 0.0
C252 C 0.30207 0.78461 0.3325 0.0
C253 C 0.27527 0.79846 0.35542 0.0
C254 C 0.31624 0.7465 0.3796 0.0
C255 C 0.32302 0.75874 0.34471 0.0
C256 C 0.28956 0.76028 0.40239 0.0
C257 C 0.15185 0.85601 0.51171 0.0
C258 C 0.17707 0.84408 0.572 0.0
C259 C 0.11082 0.85493 0.56449 0.0
C260 C 0.11606 0.85886 0.52707 0.0
C261 C 0.14129 0.84812 0.58734 0.0
C262 C 0.18236 0.84808 0.53431 0.0
C263 C 0.15637 0.86386 0.47277 0.0
O264 O 0.20893 0.88494 0.37579 0.0
O265 O 0.16378 0.85202 0.3617 0.0
O266 O 0.14371 0.84315 0.44907 0.0
O267 O 0.18826 0.87691 0.46302 0.0
H268 H 0.1075 0.87738 0.33015 0.0
H269 H 0.06768 0.92255 0.31506 0.0
H270 H 0.15997 0.98536 0.33722 0.0
H271 H 0.20004 0.94064 0.35199 0.0
H272 H 0.30697 0.79432 0.30563 0.0
H273 H 0.25973 0.81873 0.34594 0.0
H274 H 0.33216 0.72656 0.38942 0.0
H275 H 0.28524 0.75076 0.42946 0.0
H276 H 0.20088 0.83875 0.58928 0.0
H277 H 0.08303 0.85809 0.57584 0.0
H278 H 0.0922 0.86503 0.51019 0.0
H279 H 0.21027 0.84574 0.52303 0.0
C280 C 0.33289 0.7026 1.0223 0.0
C281 C 0.36284 0.68177 1.02778 0.0
C282 C 0.36393 0.69461 0.09244 0.0
C283 C 0.37822 0.67783 0.06255 0.0
C284 C 0.33375 0.7153 0.08713 0.0
C285 C 0.31834 0.7193 0.05218 0.0
U286 U 0.33051 0.67626 0.92427 0.0
O287 O 0.28365 0.66653 0.88666 0.0
O288 O 0.32594 0.70191 0.87235 0.0
C289 C 0.29389 0.68851 0.86356 0.0
C290 C 0.31668 0.70622 0.98552 0.0
C291 C 0.26387 0.70979 0.85128 0.0
C292 C 0.22085 0.75308 0.86211 0.0
C293 C 0.24995 0.73357 0.87414 0.0
C294 C 0.21945 0.72541 0.80422 0.0
C295 C 0.20528 0.749 0.82716 0.0
C296 C 0.24856 0.70595 0.81623 0.0
C297 C 0.39974 0.60756 0.90412 0.0
C298 C 0.42132 0.58614 0.84615 0.0
C299 C 0.42927 0.55624 0.90184 0.0
C300 C 0.41256 0.58041 0.92172 0.0
C301 C 0.43351 0.55874 0.86395 0.0
C302 C 0.40437 0.61046 0.86617 0.0
C303 C 0.38181 0.63202 0.92657 0.0
O304 O 0.33995 0.71685 0.96061 0.0
O305 O 0.29677 0.6821 0.97408 0.0
O306 O 0.34643 0.62718 0.93481 0.0
O307 O 0.3894 0.66149 0.91873 0.0
H308 H 0.3743 0.66853 1.00511 0.0
H309 H 0.4014 0.6617 0.06617 0.0
H310 H 0.32232 0.72835 0.10995 0.0
H311 H 0.2951 0.73534 0.04847 0.0
H312 H 0.21013 0.77111 0.8802 0.0
H313 H 0.26137 0.73685 0.90131 0.0
H314 H 0.20768 0.72188 0.77724 0.0
H315 H 0.25895 0.6877 0.79824 0.0
H316 H 0.42431 0.58837 0.81687 0.0
H317 H 0.43841 0.53525 0.91598 0.0
H318 H 0.40933 0.57778 0.95095 0.0
H319 H 0.39464 0.63126 0.85208 0.0
Zn320 Zn 0.04753 0.13962 0.34345 0.0
Zn321 Zn 0.9846 0.14326 0.21122 0.0
Zn322 Zn 0.01629 0.1442 0.27775 0.0
C323 C 0.05635 0.17077 0.20509 0.0
C324 C 0.98826 0.08142 0.234 0.0
O325 O 0.97553 0.16435 0.31743 0.0
O326 O 1.00246 0.15344 0.37046 0.0
C327 C 0.09187 0.18045 0.30153 0.0
O328 O 0.05579 0.16836 0.24017 0.0
O329 O 0.02936 0.16062 0.18603 0.0
O330 O 0.97426 0.09734 0.2084 0.0
O331 O 1.00612 0.09503 0.26028 0.0
O332 O 0.08779 0.17054 0.3337 0.0
O333 O 0.06896 0.17207 0.27603 0.0
O334 O 0.02912 0.09433 0.29054 0.0
O335 O 0.06042 0.09429 0.34278 0.0
C336 C 0.04762 0.07964 0.31549 0.0
O337 O 0.96256 0.17026 0.28189 0.0
O338 O 0.94316 0.17216 0.22438 0.0
C339 C 0.97498 0.16407 0.35263 0.0
C340 C 0.93917 0.17983 0.25744 0.0
Zn341 Zn 0.54762 0.37853 0.72231 0.0
Zn342 Zn 0.48539 0.37595 0.853 0.0
Zn343 Zn 0.5166 0.37467 0.78728 0.0
C344 C 0.48541 0.43733 0.82836 0.0
C345 C 0.44099 0.3373 0.80813 0.0
O346 O 0.56928 0.34679 0.78942 0.0
O347 O 0.58625 0.34618 0.73127 0.0
C348 C 0.55051 0.43846 0.75066 0.0
O349 O 0.50507 0.42413 0.80315 0.0
O350 O 0.47113 0.42112 0.85356 0.0
O351 O 0.44587 0.34461 0.84121 0.0
O352 O 0.46316 0.34791 0.78324 0.0
O353 O 0.5638 0.42317 0.72416 0.0
O354 O 0.5305 0.42453 0.77506 0.0
O355 O 0.47572 0.35425 0.74777 0.0
O356 O 0.5019 0.36655 0.69487 0.0
C357 C 0.47472 0.3553 0.7126 0.0
O358 O 0.55617 0.35105 0.82515 0.0
O359 O 0.53119 0.36166 0.87916 0.0
C360 C 0.59115 0.33724 0.76372 0.0
C361 C 0.55756 0.35037 0.86031 0.0
Zn362 Zn 0.03762 0.87427 0.84739 0.0
Zn363 Zn 0.98895 0.87848 0.7235 0.0
Zn364 Zn 0.01311 0.87502 0.78507 0.0
C365 C 0.9672 0.93397 0.75878 0.0
C366 C 0.94637 0.83292 0.75558 0.0
O367 O 0.06575 0.84747 0.78318 0.0
O368 O 0.07007 0.8365 0.84192 0.0
C369 C 0.0559 0.93343 0.81783 0.0
O370 O 0.99394 0.92474 0.77995 0.0
O371 O 0.96008 0.91774 0.73073 0.0
O372 O 0.95807 0.83944 0.724 0.0
O373 O 0.96118 0.84638 0.78364 0.0
O374 O 0.06425 0.91526 0.84379 0.0
O375 O 0.02966 0.92479 0.79567 0.0
O376 O 0.97086 0.85176 0.82028 0.0
O377 O 0.98952 0.8695 0.87407 0.0
C378 C 0.96549 0.85528 0.8548 0.0
O379 O 0.05644 0.85603 0.74735 0.0
O380 O 0.03679 0.87817 0.69636 0.0
C381 C 0.08124 0.83235 0.80961 0.0
C382 C 0.06151 0.86302 0.71352 0.0
Zn383 Zn 0.53072 0.63659 0.21346 0.0
Zn384 Zn 0.48745 0.64088 0.33739 0.0
Zn385 Zn 0.51108 0.64133 0.27565 0.0
C386 C 0.56137 0.65501 0.34516 0.0
C387 C 0.46347 0.58469 0.30492 0.0
O388 O 0.46871 0.66405 0.23955 0.0
O389 O 0.4822 0.64057 0.18739 0.0
C390 C 0.57776 0.68078 0.24521 0.0
O391 O 0.55613 0.66107 0.3111 0.0
O392 O 0.53621 0.64114 0.36321 0.0
O393 O 0.45685 0.60204 0.33213 0.0
O394 O 0.49072 0.59253 0.28369 0.0
O395 O 0.56389 0.67415 0.21441 0.0
O396 O 0.5644 0.66785 0.27414 0.0
O397 O 0.52648 0.59056 0.26848 0.0
O398 O 0.55771 0.59611 0.21749 0.0
C399 C 0.55087 0.57997 0.24557 0.0
O400 O 0.46006 0.67075 0.27622 0.0
O401 O 0.45804 0.6805 0.33535 0.0
C402 C 0.46093 0.65814 0.20584 0.0
C403 C 0.44597 0.68565 0.30354 0.0
C404 C 0.06171 0.99602 0.34545 0.0
C405 C 0.08682 0.98504 0.31826 0.0
C406 C 0.07996 0.03434 0.28453 0.0
C407 C 0.05555 0.04559 0.31219 0.0
N408 N 0.01426 0.03423 0.36225 0.0
N409 N 0.11083 0.98931 0.25716 0.0
C410 C 0.04341 0.02533 0.34042 0.0
C411 C 0.09278 1.00275 0.28608 0.0
N412 N 0.05698 0.97937 0.37696 0.0
N413 N 0.0931 0.05433 0.25833 0.0
H414 H 0.12055 0.96618 0.25774 0.0
H415 H 0.11285 0.99989 0.23164 0.0
H416 H 0.08455 0.07766 0.25612 0.0
H417 H 0.11435 0.04841 0.24012 0.0
H418 H 0.04258 0.98803 0.39954 0.0
H419 H 0.06952 0.95762 0.38155 0.0
H420 H 1.00178 0.0194 0.38128 0.0
H421 H 1.00012 0.05547 0.35865 0.0
C422 C 0.48816 0.52531 0.84565 0.0
C423 C 0.44911 0.53146 0.8436 0.0
C424 C 0.43868 0.47934 0.81688 0.0
C425 C 0.47586 0.4711 0.8264 0.0
N426 N 0.53754 0.48594 0.84681 0.0
N427 N 0.38677 0.51514 0.82614 0.0
C428 C 0.50137 0.49421 0.83918 0.0
C429 C 0.42432 0.50895 0.82807 0.0
N430 N 0.51225 0.54927 0.85408 0.0
N431 N 0.41725 0.45868 0.79719 0.0
H432 H 0.37534 0.53687 0.83315 0.0
H433 H 0.36666 0.49833 0.81937 0.0
H434 H 0.42741 0.4369 0.78853 0.0
H435 H 0.39102 0.46419 0.7865 0.0
H436 H 0.54131 0.54723 0.85327 0.0
H437 H 0.50292 0.57215 0.85886 0.0
H438 H 0.55673 0.50068 0.85978 0.0
H439 H 0.54807 0.46358 0.8412 0.0
C440 C 0.61732 0.50643 0.75932 0.0
C441 C 0.59409 0.53192 0.74878 0.0
C442 C 0.53936 0.49678 0.74652 0.0
C443 C 0.56299 0.47133 0.75594 0.0
N444 N 0.62078 0.45311 0.78235 0.0
N445 N 0.53219 0.55344 0.74119 0.0
C446 C 0.60081 0.47664 0.76604 0.0
C447 C 0.55471 0.52775 0.74534 0.0
N448 N 0.6554 0.51017 0.76087 0.0
N449 N 0.50281 0.4911 0.73734 0.0
H450 H 0.54286 0.57629 0.74019 0.0
H451 H 0.50303 0.55247 0.74179 0.0
H452 H 0.49068 0.46882 0.73923 0.0
H453 H 0.48496 0.508 0.72648 0.0
H454 H 0.67401 0.49154 0.76403 0.0
H455 H 0.66881 0.53161 0.7564 0.0
H456 H 0.64733 0.45634 0.79365 0.0
H457 H 0.6092 0.43107 0.78787 0.0
C458 C 0.99122 0.99716 0.20098 0.0
C459 C 0.95664 0.98657 0.21551 0.0
C460 C 0.95305 0.03373 0.2539 0.0
C461 C 0.98293 0.04695 0.2336 0.0
N462 N 0.03294 0.04139 0.19014 0.0
N463 N 0.90509 0.99321 0.25716 0.0
C464 C 1.00324 0.02845 0.20827 0.0
C465 C 0.93811 1.00408 0.24307 0.0
N466 N 0.01214 0.97724 0.18 0.0
N467 N 0.93866 0.04983 0.28298 0.0
H468 H 0.89412 0.97115 0.25061 0.0
H469 H 0.88773 1.00644 0.27403 0.0
H470 H 0.94882 0.07178 0.2911 0.0
H471 H 0.91904 0.04044 0.30092 0.0
H472 H 0.03905 0.98241 0.17082 0.0
H473 H 1.0037 0.95421 0.17443 0.0
H474 H 0.04655 0.03059 0.16839 0.0
H475 H 0.04325 0.0638 0.19619 0.0
C476 C 0.89997 0.99915 0.73516 0.0
C477 C 0.91643 0.02498 0.75376 0.0
C478 C 0.95671 0.98854 0.78812 0.0
C479 C 0.94525 0.96391 0.76433 0.0
N480 N 0.89014 0.943 0.7347 0.0
N481 N 0.95843 0.04489 0.79997 0.0
C482 C 0.91211 0.96832 0.74342 0.0
C483 C 0.94402 0.01984 0.78116 0.0
N484 N 0.87307 1.00398 0.70913 0.0
N485 N 0.97602 0.9816 0.81922 0.0
H486 H 0.94941 0.06791 0.7957 0.0
H487 H 0.98059 0.04325 0.81836 0.0
H488 H 0.9794 0.9586 0.82819 0.0
H489 H 0.98374 0.99817 0.83879 0.0
H490 H 0.86376 0.98633 0.69152 0.0
H491 H 0.86171 0.026 0.70344 0.0
H492 H 0.86398 0.94489 0.7222 0.0
H493 H 0.89547 0.92056 0.7449 0.0
C494 C 0.56613 0.49181 0.2571 0.0
C495 C 0.59399 0.48801 0.22975 0.0
C496 C 0.60435 0.54477 0.22928 0.0
C497 C 0.57071 0.54894 0.24925 0.0
N498 N 0.53539 0.52764 0.29932 0.0
N499 N 0.64113 0.51082 0.1905 0.0
C500 C 0.55593 0.52281 0.26849 0.0
C501 C 0.61407 0.51444 0.21657 0.0
N502 N 0.54917 0.46584 0.27149 0.0
N503 N 0.62804 0.56971 0.22447 0.0
H504 H 0.64993 0.48895 0.18092 0.0
H505 H 0.65318 0.52964 0.17664 0.0
H506 H 0.62305 0.59156 0.23656 0.0
H507 H 0.65459 0.56774 0.21288 0.0
H508 H 0.52663 0.46673 0.28944 0.0
H509 H 0.55707 0.44302 0.26442 0.0
H510 H 0.5251 0.50969 0.31574 0.0
H511 H 0.53314 0.54976 0.3113 0.0
C512 C 0.39741 0.51915 0.33145 0.0
C513 C 0.41279 0.49355 0.31173 0.0
C514 C 0.45117 0.53037 0.27599 0.0
C515 C 0.4411 0.55476 0.3006 0.0
N516 N 0.38755 0.57524 0.3329 0.0
N517 N 0.45269 0.47416 0.26371 0.0
C518 C 0.40914 0.5501 0.32303 0.0
C519 C 0.43899 0.499 0.28324 0.0
N520 N 0.37187 0.51399 0.3586 0.0
N521 N 0.46869 0.53763 0.24402 0.0
H522 H 0.44402 0.45104 0.26814 0.0
H523 H 0.4742 0.47609 0.2447 0.0
H524 H 0.47151 0.56072 0.23509 0.0
H525 H 0.47523 0.52122 0.22393 0.0
H526 H 0.36355 0.53143 0.37687 0.0
H527 H 0.36075 0.49189 0.36447 0.0
H528 H 0.36216 0.57313 0.3467 0.0
H529 H 0.392 0.5977 0.32234 0.0
C530 C 0.11647 0.99973 0.85158 0.0
C531 C 0.09724 0.02606 0.83716 0.0
C532 C 0.06157 0.991 0.7963 0.0
C533 C 0.07538 0.96492 0.81628 0.0
N534 N 0.13224 0.94501 0.84316 0.0
N535 N 0.05488 0.04795 0.79282 0.0
C536 C 0.10793 0.96939 0.838 0.0
C537 C 0.071 0.02209 0.80826 0.0
N538 N 0.1418 1.00342 0.87934 0.0
N539 N 0.04287 0.98606 0.76429 0.0
H540 H 0.06222 0.07082 0.80038 0.0
H541 H 0.03344 0.04692 0.77357 0.0
H542 H 0.04166 0.96397 0.75205 0.0
H543 H 0.03324 1.00393 0.74741 0.0
H544 H 0.15298 0.98457 0.89379 0.0
H545 H 0.14976 0.0253 0.88969 0.0
H546 H 0.15807 0.94747 0.8562 0.0
H547 H 0.12893 0.92349 0.82977 0.0
C548 C 0.10629 0.2198 0.13599 0.0
C549 C 0.13527 0.19878 0.12552 0.0
C550 C 0.11954 0.16396 0.1766 0.0
C551 C 0.08906 0.1839 0.18541 0.0
N552 N 0.05994 0.23451 0.18161 0.0
N553 N 0.17631 0.15603 0.14109 0.0
C554 C 0.08484 0.21323 0.16782 0.0
C555 C 0.14426 0.1726 0.14779 0.0
N556 N 0.09791 0.24496 0.11436 0.0
N557 N 0.12337 0.13591 0.1943 0.0
H558 H 0.19472 0.16189 0.12005 0.0
H559 H 0.18633 0.13832 0.15803 0.0
H560 H 0.10651 0.12957 0.21634 0.0
H561 H 0.14209 0.11844 0.18642 0.0
H562 H 0.07445 0.25912 0.11808 0.0
H563 H 0.11349 0.25084 0.0913 0.0
H564 H 0.05732 0.25743 0.17208 0.0
H565 H 0.0443 0.22994 0.20509 0.0
C566 C 0.3921 0.36409 0.65067 0.0
C567 C 0.40226 0.34058 0.62504 0.0
C568 C 0.44525 0.31753 0.66979 0.0
C569 C 0.44159 0.34494 0.69132 0.0
N570 N 0.40832 0.39211 0.7066 0.0
N571 N 0.4345 0.29244 0.61099 0.0
C572 C 0.41315 0.36713 0.6836 0.0
C573 C 0.42695 0.316 0.63526 0.0
N574 N 0.36305 0.38383 0.64278 0.0
N575 N 0.46716 0.29357 0.68232 0.0
H576 H 0.42045 0.29032 0.5861 0.0
H577 H 0.45516 0.27554 0.61489 0.0
H578 H 0.48038 0.29476 0.70776 0.0
H579 H 0.46971 0.27189 0.66936 0.0
H580 H 0.35246 0.40043 0.66089 0.0
H581 H 0.34755 0.38183 0.61869 0.0
H582 H 0.39099 0.41116 0.70111 0.0
H583 H 0.42261 0.39391 0.73141 0.0
C584 C 0.6418 0.35057 0.92161 0.0
C585 C 0.63633 0.32145 0.93974 0.0
C586 C 0.58702 0.30698 0.89595 0.0
C587 C 0.59016 0.33721 0.88012 0.0
N588 N 0.6258 0.38435 0.87032 0.0
N589 N 0.61105 0.26895 0.93962 0.0
C590 C 0.61965 0.35777 0.89034 0.0
C591 C 0.61144 0.29854 0.92515 0.0
N592 N 0.66689 0.37184 0.93548 0.0
N593 N 0.55945 0.28708 0.88394 0.0
H594 H 0.62835 0.26239 0.96126 0.0
H595 H 0.5957 0.25029 0.92884 0.0
H596 H 0.54275 0.29224 0.86131 0.0
H597 H 0.55245 0.26599 0.89652 0.0
H598 H 0.66952 0.39485 0.9263 0.0
H599 H 0.68451 0.36673 0.95742 0.0
H600 H 0.64847 0.39942 0.87423 0.0
H601 H 0.60954 0.39002 0.84757 0.0
C602 C 0.89624 0.1522 0.41668 0.0
C603 C 0.90295 0.17807 0.44043 0.0
C604 C 0.94482 0.2019 0.39523 0.0
C605 C 0.94187 0.17422 0.37392 0.0
N606 N 0.90664 0.12841 0.35698 0.0
N607 N 0.92389 0.23133 0.44852 0.0
C608 C 0.91431 0.15137 0.38204 0.0
C609 C 0.92379 0.20441 0.42814 0.0
N610 N 0.87478 0.12756 0.42835 0.0
N611 N 0.96941 0.2248 0.38472 0.0
H612 H 0.90847 0.23339 0.4726 0.0
H613 H 0.9367 0.25218 0.44049 0.0
H614 H 0.98352 0.22369 0.35979 0.0
H615 H 0.97628 0.24436 0.40047 0.0
H616 H 0.87215 0.10639 0.41429 0.0
H617 H 0.86044 0.12788 0.45312 0.0
H618 H 0.88511 0.11205 0.35972 0.0
H619 H 0.92002 0.12761 0.33169 0.0
C620 C 0.87751 0.85436 0.91155 0.0
C621 C 0.88435 0.82633 0.93135 0.0
C622 C 0.93367 0.81188 0.88788 0.0
C623 C 0.93191 0.84255 0.8732 0.0
N624 N 0.90082 0.8923 0.86743 0.0
N625 N 0.91754 0.77736 0.93813 0.0
C626 C 0.90287 0.86339 0.88349 0.0
C627 C 0.91147 0.80438 0.91892 0.0
N628 N 0.84693 0.87226 0.91996 0.0
N629 N 0.95711 0.79029 0.87237 0.0
H630 H 0.90128 0.77083 0.96049 0.0
H631 H 0.93974 0.76212 0.93313 0.0
H632 H 0.97355 0.79554 0.84964 0.0
H633 H 0.95779 0.76669 0.87972 0.0
H634 H 0.83853 0.89179 0.90502 0.0
H635 H 0.82802 0.86597 0.9404 0.0
H636 H 0.8832 0.91023 0.87624 0.0
H637 H 0.91791 0.89863 0.84552 0.0
C638 C 0.64217 0.64349 0.40806 0.0
C639 C 0.63527 0.66972 0.431 0.0
C640 C 0.59608 0.69336 0.38342 0.0
C641 C 0.59589 0.66416 0.36497 0.0
N642 N 0.62279 0.6134 0.35452 0.0
N643 N 0.61067 0.72181 0.4394 0.0
C644 C 0.62111 0.64012 0.37521 0.0
C645 C 0.61452 0.69577 0.41784 0.0
N646 N 0.66794 0.62157 0.41854 0.0
N647 N 0.57739 0.71814 0.36838 0.0
H648 H 0.62504 0.72436 0.46407 0.0
H649 H 0.59293 0.74049 0.43345 0.0
H650 H 0.56395 0.71629 0.34311 0.0
H651 H 0.57764 0.74081 0.37909 0.0
H652 H 0.67595 0.60249 0.40258 0.0
H653 H 0.68345 0.62387 0.44259 0.0
H654 H 0.63765 0.59335 0.36174 0.0
H655 H 0.60846 0.61139 0.32972 0.0
C656 C 0.40949 0.71102 0.1416 0.0
C657 C 0.38122 0.69002 0.12907 0.0
C658 C 0.3979 0.65229 0.17688 0.0
C659 C 0.42807 0.67211 0.18729 0.0
N660 N 0.45606 0.72354 0.18808 0.0
N661 N 0.34148 0.64534 0.14029 0.0
C662 C 0.43139 0.70275 0.17265 0.0
C663 C 0.37299 0.6622 0.14878 0.0
N664 N 0.41688 0.73786 0.12245 0.0
N665 N 0.39427 0.62349 0.19295 0.0
H666 H 0.32288 0.65228 0.11983 0.0
H667 H 0.33208 0.62608 0.15516 0.0
H668 H 0.41095 0.61661 0.21497 0.0
H669 H 0.37571 0.60617 0.18409 0.0
H670 H 0.43989 0.75234 0.12742 0.0
H671 H 0.40083 0.74497 0.10015 0.0
H672 H 0.45787 0.74711 0.18078 0.0
H673 H 0.47249 0.7178 0.21068 0.0
C674 C 0.11672 0.82041 0.64252 0.0
C675 C 0.13479 0.84709 0.62743 0.0
C676 C 0.1206 0.87731 0.68268 0.0
C677 C 0.09533 0.8534 0.69315 0.0
N678 N 0.07295 0.80037 0.68788 0.0
N679 N 0.15818 0.89997 0.63419 0.0
C680 C 0.09534 0.82397 0.67507 0.0
C681 C 0.13897 0.87502 0.64836 0.0
N682 N 0.11943 0.79214 0.62498 0.0
N683 N 0.12582 0.90248 0.70535 0.0
H684 H 0.17275 0.89865 0.60959 0.0
H685 H 0.15879 0.92222 0.64603 0.0
H686 H 0.11221 0.9041 0.73051 0.0
H687 H 0.14562 0.92006 0.70094 0.0
H688 H 0.10878 0.77116 0.63519 0.0
H689 H 0.13511 0.78941 0.60115 0.0
H690 H 0.06825 0.77926 0.67424 0.0
H691 H 0.05843 0.80238 0.71249 0.0
C692 C 0.19106 0.20905 0.30412 0.0
C693 C 0.18392 0.23925 0.31898 0.0
C694 C 0.11771 0.23448 0.3016 0.0
C695 C 0.12351 0.20215 0.29483 0.0
N696 N 0.16504 0.15881 0.28445 0.0
N697 N 0.14155 0.2824 0.32944 0.0
C698 C 0.16024 0.18968 0.29362 0.0
C699 C 0.14769 0.25283 0.31611 0.0
N700 N 0.22724 0.19895 0.30081 0.0
N701 N 0.08316 0.24708 0.29508 0.0
H702 H 0.1631 0.29667 0.33939 0.0
H703 H 0.11509 0.29242 0.33202 0.0
H704 H 0.06114 0.23364 0.28447 0.0
H705 H 0.07723 0.27097 0.29698 0.0
H706 H 0.23488 0.17803 0.28809 0.0
H707 H 0.25006 0.21293 0.30841 0.0
H708 H 0.19037 0.14687 0.28664 0.0
H709 H 0.14281 0.14485 0.27526 0.0
C710 C 0.38616 0.26227 0.80972 0.0
C711 C 0.34904 0.27427 0.81141 0.0
C712 C 0.3725 0.32751 0.79922 0.0
C713 C 0.40961 0.31569 0.7995 0.0
N714 N 0.45164 0.2719 0.7947 0.0
N715 N 0.30563 0.31617 0.79881 0.0
C716 C 0.41629 0.28296 0.80106 0.0
C717 C 0.34182 0.30627 0.80309 0.0
N718 N 0.3928 0.23153 0.81837 0.0
N719 N 0.36692 0.35921 0.79678 0.0
H720 H 0.28268 0.30111 0.80167 0.0
H721 H 0.29833 0.33847 0.78969 0.0
H722 H 0.38885 0.37495 0.79195 0.0
H723 H 0.34109 0.37003 0.80071 0.0
H724 H 0.41951 0.22215 0.82174 0.0
H725 H 0.37144 0.21559 0.82438 0.0
H726 H 0.45814 0.24814 0.79235 0.0
H727 H 0.47401 0.28678 0.78838 0.0
C728 C 0.69038 0.30883 0.76162 0.0
C729 C 0.68323 0.27849 0.74705 0.0
C730 C 0.61698 0.28328 0.76404 0.0
C731 C 0.62283 0.31567 0.77056 0.0
N732 N 0.66447 0.35927 0.78023 0.0
N733 N 0.64071 0.23523 0.73669 0.0
C734 C 0.65959 0.32825 0.77168 0.0
C735 C 0.64693 0.26489 0.74983 0.0
N736 N 0.72658 0.31902 0.7651 0.0
N737 N 0.58239 0.27065 0.77055 0.0
H738 H 0.66222 0.22094 0.72694 0.0
H739 H 0.61421 0.22518 0.73405 0.0
H740 H 0.56041 0.28414 0.78097 0.0
H741 H 0.57642 0.24674 0.76885 0.0
H742 H 0.7342 0.34002 0.77773 0.0
H743 H 0.74939 0.30502 0.75782 0.0
H744 H 0.68982 0.37122 0.77779 0.0
H745 H 0.64229 0.37334 0.78903 0.0
C746 C 0.88326 0.25414 0.25969 0.0
C747 C 0.84648 0.24172 0.25529 0.0
C748 C 0.87032 0.18825 0.26436 0.0
C749 C 0.90722 0.20055 0.26659 0.0
N750 N 0.94821 0.24459 0.27676 0.0
N751 N 0.80331 0.19863 0.26272 0.0
C752 C 0.91338 0.2334 0.26802 0.0
C753 C 0.83947 0.20923 0.26081 0.0
N754 N 0.88968 0.28541 0.25381 0.0
N755 N 0.86515 0.1564 0.26419 0.0
H756 H 0.78025 0.21352 0.26008 0.0
H757 H 0.796 0.17574 0.26975 0.0
H758 H 0.8871 0.14072 0.2689 0.0
H759 H 0.83972 0.14548 0.25828 0.0
H760 H 0.91633 0.29537 0.25241 0.0
H761 H 0.8683 0.30136 0.24814 0.0
H762 H 0.95411 0.26824 0.28139 0.0
H763 H 0.97066 0.22975 0.28269 0.0
C764 C 0.89054 0.76126 0.73293 0.0
C765 C 0.85369 0.77374 0.73478 0.0
C766 C 0.87782 0.82189 0.76352 0.0
C767 C 0.91479 0.81044 0.75867 0.0
N768 N 0.95616 0.7667 0.75025 0.0
N769 N 0.8108 0.81117 0.76063 0.0
C770 C 0.92095 0.77907 0.74738 0.0
C771 C 0.84688 0.80249 0.7533 0.0
N772 N 0.89664 0.73332 0.71543 0.0
N773 N 0.87252 0.85196 0.77566 0.0
H774 H 0.78784 0.79727 0.75322 0.0
H775 H 0.80367 0.83056 0.77651 0.0
H776 H 0.89457 0.86616 0.78464 0.0
H777 H 0.84667 0.86326 0.77574 0.0
H778 H 0.92319 0.72468 0.70931 0.0
H779 H 0.87493 0.71928 0.70539 0.0
H780 H 0.96244 0.7432 0.74523 0.0
H781 H 0.97856 0.77957 0.76109 0.0
C782 C 0.63399 0.74926 0.21389 0.0
C783 C 0.67144 0.74003 0.22191 0.0
C784 C 0.64654 0.69124 0.24869 0.0
C785 C 0.60964 0.70316 0.24585 0.0
N786 N 0.56849 0.74578 0.23019 0.0
N787 N 0.70632 0.69158 0.21878 0.0
C788 C 0.60361 0.73305 0.23018 0.0
C789 C 0.67659 0.70803 0.23221 0.0
N790 N 0.62716 0.76919 0.18553 0.0
N791 N 0.65285 0.66323 0.26565 0.0
H792 H 0.72308 0.70067 0.19798 0.0
H793 H 0.70997 0.66755 0.22297 0.0
H794 H 0.63137 0.65001 0.27736 0.0
H795 H 0.67979 0.65486 0.2709 0.0
H796 H 0.60022 0.77446 0.1763 0.0
H797 H 0.64845 0.7764 0.16789 0.0
H798 H 0.5632 0.76869 0.22156 0.0
H799 H 0.54562 0.73445 0.24221 0.0
C800 C 0.39007 0.7574 0.32374 0.0
C801 C 0.35329 0.74462 0.32216 0.0
C802 C 0.37746 0.69615 0.29465 0.0
C803 C 0.41441 0.70788 0.2994 0.0
N804 N 0.45564 0.75205 0.30658 0.0
N805 N 0.31046 0.70671 0.29676 0.0
C806 C 0.42049 0.73952 0.30977 0.0
C807 C 0.34652 0.71561 0.30416 0.0
N808 N 0.39611 0.78565 0.34061 0.0
N809 N 0.37216 0.66578 0.28349 0.0
H810 H 0.28751 0.72068 0.30368 0.0
H811 H 0.30339 0.68708 0.28117 0.0
H812 H 0.39418 0.65137 0.27519 0.0
H813 H 0.34628 0.65442 0.28365 0.0
H814 H 0.42264 0.79456 0.34656 0.0
H815 H 0.37435 0.79972 0.35027 0.0
H816 H 0.46183 0.77569 0.31097 0.0
H817 H 0.47804 0.7391 0.29607 0.0
C818 C 0.13587 0.75758 0.81997 0.0
C819 C 0.17309 0.76879 0.81531 0.0
C820 C 0.14913 0.82066 0.79753 0.0
C821 C 0.11207 0.80967 0.80349 0.0
N822 N 0.06927 0.76642 0.81021 0.0
N823 N 0.21529 0.80793 0.79152 0.0
C824 C 0.10524 0.77759 0.81131 0.0
C825 C 0.17973 0.79939 0.80128 0.0
N826 N 0.12985 0.72835 0.83429 0.0
N827 N 0.15512 0.85178 0.79027 0.0
H828 H 0.23824 0.79296 0.79441 0.0
H829 H 0.22169 0.82872 0.77797 0.0
H830 H 0.13327 0.86765 0.78615 0.0
H831 H 0.18152 0.86224 0.78995 0.0
H832 H 0.10362 0.72018 0.84238 0.0
H833 H 0.15153 0.71275 0.84024 0.0
H834 H 0.06233 0.74272 0.81245 0.0
H835 H 0.0465 0.78069 0.80351 0.0
loop_
_geom_bond_atom_site_label_1
_geom_bond_atom_site_label_2
_geom_bond_distance
_geom_bond_site_symmetry_2
_ccdc_geom_bond_type
C0 C1 1.264 . S
C0 C5 1.479 . S
C0 C10 1.465 . S
C1 C0 1.264 . S
C1 C3 1.339 . S
C1 H28 0.931 . S
C2 C3 1.395 . S
C2 C4 1.320 . S
C3 C1 1.339 . S
C3 C2 1.395 . S
C3 H29 0.929 . S
C4 C2 1.320 . S
C4 C5 1.405 . S
C4 H30 0.930 . S
C5 C0 1.479 . S
C5 C4 1.405 . S
C5 H31 0.931 . S
U6 O7 2.454 . S
U6 O8 2.458 . S
U6 C9 2.984 . S
U6 C10 2.847 . S
U6 C23 2.882 . S
U6 O24 2.441 . S
U6 O25 2.420 . S
U6 O26 2.455 . S
U6 O27 2.449 . S
O7 U6 2.454 . S
O7 C9 1.353 . S
O8 U6 2.458 . S
O8 C9 1.286 . S
C9 U6 2.984 . S
C9 O7 1.353 . S
C9 O8 1.286 . S
C9 C11 1.363 . S
C10 C0 1.465 . S
C10 U6 2.847 . S
C10 O24 1.249 . S
C10 O25 1.202 . S
C11 C9 1.363 . S
C11 C13 1.408 . S
C11 C16 1.342 . S
C12 C13 1.310 . S
C12 C15 1.461 . S
C12 H32 0.932 . S
C13 C11 1.408 . S
C13 C12 1.310 . S
C13 H33 0.930 . S
C14 C15 1.474 . S
C14 C16 1.285 . S
C14 H34 0.929 . S
C15 C12 1.461 . S
C15 C14 1.474 . S
C16 C11 1.342 . S
C16 C14 1.285 . S
C16 H35 0.930 . S
C17 C20 1.424 . S
C17 C22 1.245 . S
C17 C23 1.428 . S
C18 C21 1.260 . S
C18 C22 1.477 . S
C18 H36 0.932 . S
C19 C20 1.384 . S
C19 C21 1.479 . S
C19 H37 0.929 . S
C20 C17 1.424 . S
C20 C19 1.384 . S
C20 H38 0.928 . S
C21 C18 1.260 . S
C21 C19 1.479 . S
C22 C17 1.245 . S
C22 C18 1.477 . S
C22 H39 0.932 . S
C23 U6 2.882 . S
C23 C17 1.428 . S
C23 O26 1.301 . S
C23 O27 1.282 . S
O24 U6 2.441 . S
O24 C10 1.249 . S
O25 U6 2.420 . S
O25 C10 1.202 . S
O26 U6 2.455 . S
O26 C23 1.301 . S
O27 U6 2.449 . S
O27 C23 1.282 . S
H28 C1 0.931 . S
H29 C3 0.929 . S
H30 C4 0.930 . S
H31 C5 0.931 . S
H32 C12 0.932 . S
H33 C13 0.930 . S
H34 C14 0.929 . S
H35 C16 0.930 . S
H36 C18 0.932 . S
H37 C19 0.929 . S
H38 C20 0.928 . S
H39 C22 0.932 . S
C40 C41 1.275 . S
C40 C45 1.479 1_556 S
C40 C50 1.465 . S
C41 C40 1.275 . S
C41 C43 1.307 1_556 S
C41 H68 0.952 . S
C42 C43 1.395 . S
C42 C44 1.320 . S
C43 C41 1.307 1_554 S
C43 C42 1.395 . S
C43 H69 0.929 . S
C44 C42 1.320 . S
C44 C45 1.405 . S
C44 H70 0.930 . S
C45 C40 1.479 1_554 S
C45 C44 1.405 . S
C45 H71 0.931 . S
U46 O47 2.454 . S
U46 O48 2.458 . S
U46 C49 2.984 . S
U46 C50 2.847 . S
U46 C63 2.882 . S
U46 O64 2.441 . S
U46 O65 2.420 . S
U46 O66 2.455 . S
U46 O67 2.449 . S
O47 U46 2.454 . S
O47 C49 1.353 . S
O48 U46 2.458 . S
O48 C49 1.286 . S
C49 U46 2.984 . S
C49 O47 1.353 . S
C49 O48 1.286 . S
C49 C51 1.363 . S
C50 C40 1.465 . S
C50 U46 2.847 . S
C50 O64 1.249 . S
C50 O65 1.202 . S
C51 C49 1.363 . S
C51 C53 1.408 . S
C51 C56 1.342 . S
C52 C53 1.310 . S
C52 C55 1.461 . S
C52 H72 0.932 . S
C53 C51 1.408 . S
C53 C52 1.310 . S
C53 H73 0.930 . S
C54 C55 1.474 . S
C54 C56 1.285 . S
C54 H74 0.929 . S
C55 C52 1.461 . S
C55 C54 1.474 . S
C56 C51 1.342 . S
C56 C54 1.285 . S
C56 H75 0.930 . S
C57 C60 1.424 . S
C57 C62 1.245 . S
C57 C63 1.428 . S
C58 C61 1.260 . S
C58 C62 1.477 . S
C58 H76 0.932 . S
C59 C60 1.384 . S
C59 C61 1.479 . S
C59 H77 0.929 . S
C60 C57 1.424 . S
C60 C59 1.384 . S
C60 H78 0.928 . S
C61 C58 1.260 . S
C61 C59 1.479 . S
C62 C57 1.245 . S
C62 C58 1.477 . S
C62 H79 0.932 . S
C63 U46 2.882 . S
C63 C57 1.428 . S
C63 O66 1.301 . S
C63 O67 1.282 . S
O64 U46 2.441 . S
O64 C50 1.249 . S
O65 U46 2.420 . S
O65 C50 1.202 . S
O66 U46 2.455 . S
O66 C63 1.301 . S
O67 U46 2.449 . S
O67 C63 1.282 . S
H68 C41 0.952 . S
H69 C43 0.929 . S
H70 C44 0.930 . S
H71 C45 0.931 . S
H72 C52 0.932 . S
H73 C53 0.930 . S
H74 C54 0.929 . S
H75 C56 0.930 . S
H76 C58 0.932 . S
H77 C59 0.929 . S
H78 C60 0.928 . S
H79 C62 0.932 . S
C80 C81 1.264 . S
C80 C85 1.479 . S
C80 C90 1.465 . S
C81 C80 1.264 . S
C81 C83 1.339 . S
C81 H108 0.931 . S
C82 C83 1.395 . S
C82 C84 1.320 . S
C83 C81 1.339 . S
C83 C82 1.395 . S
C83 H109 0.929 . S
C84 C82 1.320 . S
C84 C85 1.405 . S
C84 H110 0.930 . S
C85 C80 1.479 . S
C85 C84 1.405 . S
C85 H111 0.931 . S
U86 O87 2.454 . S
U86 O88 2.458 . S
U86 C89 2.984 . S
U86 C90 2.847 . S
U86 C103 2.882 . S
U86 O104 2.441 . S
U86 O105 2.420 . S
U86 O106 2.455 . S
U86 O107 2.449 . S
O87 U86 2.454 . S
O87 C89 1.353 . S
O88 U86 2.458 . S
O88 C89 1.286 . S
C89 U86 2.984 . S
C89 O87 1.353 . S
C89 O88 1.286 . S
C89 C91 1.363 . S
C90 C80 1.465 . S
C90 U86 2.847 . S
C90 O104 1.249 . S
C90 O105 1.202 . S
C91 C89 1.363 . S
C91 C93 1.408 . S
C91 C96 1.342 . S
C92 C93 1.310 . S
C92 C95 1.461 . S
C92 H112 0.932 . S
C93 C91 1.408 . S
C93 C92 1.310 . S
C93 H113 0.930 . S
C94 C95 1.474 . S
C94 C96 1.285 . S
C94 H114 0.929 . S
C95 C92 1.461 . S
C95 C94 1.474 . S
C96 C91 1.342 . S
C96 C94 1.285 . S
C96 H115 0.930 . S
C97 C100 1.424 . S
C97 C102 1.245 . S
C97 C103 1.428 . S
C98 C101 1.260 . S
C98 C102 1.477 . S
C98 H116 0.932 . S
C99 C100 1.384 . S
C99 C101 1.479 . S
C99 H117 0.929 . S
C100 C97 1.424 . S
C100 C99 1.384 . S
C100 H118 0.928 . S
C101 C98 1.260 . S
C101 C99 1.479 . S
C102 C97 1.245 . S
C102 C98 1.477 . S
C102 H119 0.932 . S
C103 U86 2.882 . S
C103 C97 1.428 . S
C103 O106 1.301 . S
C103 O107 1.282 . S
O104 U86 2.441 . S
O104 C90 1.249 . S
O105 U86 2.420 . S
O105 C90 1.202 . S
O106 U86 2.455 . S
O106 C103 1.301 . S
O107 U86 2.449 . S
O107 C103 1.282 . S
H108 C81 0.931 . S
H109 C83 0.929 . S
H110 C84 0.930 . S
H111 C85 0.931 . S
H112 C92 0.932 . S
H113 C93 0.930 . S
H114 C94 0.929 . S
H115 C96 0.930 . S
H116 C98 0.932 . S
H117 C99 0.929 . S
H118 C100 0.928 . S
H119 C102 0.932 . S
C120 C121 1.264 . S
C120 C125 1.479 1_554 S
C120 C130 1.465 . S
C121 C120 1.264 . S
C121 C123 1.339 1_554 S
C121 H148 0.931 . S
C122 C123 1.395 . S
C122 C124 1.320 . S
C123 C121 1.339 1_556 S
C123 C122 1.395 . S
C123 H149 0.929 . S
C124 C122 1.320 . S
C124 C125 1.405 . S
C124 H150 0.930 . S
C125 C120 1.479 1_556 S
C125 C124 1.405 . S
C125 H151 0.934 . S
U126 O127 2.454 . S
U126 O128 2.458 . S
U126 C129 2.984 . S
U126 C130 2.847 . S
U126 C143 2.882 . S
U126 O144 2.441 . S
U126 O145 2.420 . S
U126 O146 2.455 . S
U126 O147 2.449 . S
O127 U126 2.454 . S
O127 C129 1.353 . S
O128 U126 2.458 . S
O128 C129 1.286 . S
C129 U126 2.984 . S
C129 O127 1.353 . S
C129 O128 1.286 . S
C129 C131 1.363 . S
C130 C120 1.465 . S
C130 U126 2.847 . S
C130 O144 1.249 . S
C130 O145 1.202 . S
C131 C129 1.363 . S
C131 C133 1.408 . S
C131 C136 1.342 . S
C132 C133 1.310 . S
C132 C135 1.461 . S
C132 H152 0.932 . S
C133 C131 1.408 . S
C133 C132 1.310 . S
C133 H153 0.930 . S
C134 C135 1.474 . S
C134 C136 1.285 . S
C134 H154 0.929 . S
C135 C132 1.461 . S
C135 C134 1.474 . S
C136 C131 1.342 . S
C136 C134 1.285 . S
C136 H155 0.930 . S
C137 C140 1.424 . S
C137 C142 1.245 . S
C137 C143 1.428 . S
C138 C141 1.260 . S
C138 C142 1.477 . S
C138 H156 0.932 . S
C139 C140 1.384 . S
C139 C141 1.479 . S
C139 H157 0.929 . S
C140 C137 1.424 . S
C140 C139 1.384 . S
C140 H158 0.928 . S
C141 C138 1.260 . S
C141 C139 1.479 . S
C142 C137 1.245 . S
C142 C138 1.477 . S
C142 H159 0.932 . S
C143 U126 2.882 . S
C143 C137 1.428 . S
C143 O146 1.301 . S
C143 O147 1.282 . S
O144 U126 2.441 . S
O144 C130 1.249 . S
O145 U126 2.420 . S
O145 C130 1.202 . S
O146 U126 2.455 . S
O146 C143 1.301 . S
O147 U126 2.449 . S
O147 C143 1.282 . S
H148 C121 0.931 . S
H149 C123 0.929 . S
H150 C124 0.930 . S
H151 C125 0.934 . S
H152 C132 0.932 . S
H153 C133 0.930 . S
H154 C134 0.929 . S
H155 C136 0.930 . S
H156 C138 0.932 . S
H157 C139 0.929 . S
H158 C140 0.928 . S
H159 C142 0.932 . S
C160 C161 1.264 . S
C160 C165 1.479 . S
C160 C170 1.465 . S
C161 C160 1.264 . S
C161 C163 1.339 . S
C161 H188 0.931 . S
C162 C163 1.395 . S
C162 C164 1.320 . S
C163 C161 1.339 . S
C163 C162 1.395 . S
C163 H189 0.929 . S
C164 C162 1.320 . S
C164 C165 1.405 . S
C164 H190 0.930 . S
C165 C160 1.479 . S
C165 C164 1.405 . S
C165 H191 0.931 . S
U166 O167 2.454 . S
U166 O168 2.458 . S
U166 C169 2.984 . S
U166 C170 2.847 . S
U166 C183 2.882 . S
U166 O184 2.441 . S
U166 O185 2.420 . S
U166 O186 2.455 . S
U166 O187 2.449 . S
O167 U166 2.454 . S
O167 C169 1.353 . S
O168 U166 2.458 . S
O168 C169 1.286 . S
C169 U166 2.984 . S
C169 O167 1.353 . S
C169 O168 1.286 . S
C169 C171 1.363 . S
C170 C160 1.465 . S
C170 U166 2.847 . S
C170 O184 1.249 . S
C170 O185 1.202 . S
C171 C169 1.363 . S
C171 C173 1.408 . S
C171 C176 1.342 . S
C172 C173 1.310 . S
C172 C175 1.461 . S
C172 H192 0.932 . S
C173 C171 1.408 . S
C173 C172 1.310 . S
C173 H193 0.930 . S
C174 C175 1.474 . S
C174 C176 1.285 . S
C174 H194 0.929 . S
C175 C172 1.461 . S
C175 C174 1.474 . S
C176 C171 1.342 . S
C176 C174 1.285 . S
C176 H195 0.930 . S
C177 C180 1.424 . S
C177 C182 1.245 . S
C177 C183 1.428 . S
C178 C181 1.260 . S
C178 C182 1.477 . S
C178 H196 0.932 . S
C179 C180 1.384 . S
C179 C181 1.479 . S
C179 H197 0.929 . S
C180 C177 1.424 . S
C180 C179 1.384 . S
C180 H198 0.928 . S
C181 C178 1.260 . S
C181 C179 1.479 . S
C182 C177 1.245 . S
C182 C178 1.477 . S
C182 H199 0.932 . S
C183 U166 2.882 . S
C183 C177 1.428 . S
C183 O186 1.301 . S
C183 O187 1.282 . S
O184 U166 2.441 . S
O184 C170 1.249 . S
O185 U166 2.420 . S
O185 C170 1.202 . S
O186 U166 2.455 . S
O186 C183 1.301 . S
O187 U166 2.449 . S
O187 C183 1.282 . S
H188 C161 0.931 . S
H189 C163 0.929 . S
H190 C164 0.930 . S
H191 C165 0.931 . S
H192 C172 0.932 . S
H193 C173 0.930 . S
H194 C174 0.929 . S
H195 C176 0.930 . S
H196 C178 0.932 . S
H197 C179 0.929 . S
H198 C180 0.928 . S
H199 C182 0.932 . S
C200 C201 1.272 . S
C200 C205 1.490 . S
C200 C210 1.447 1_556 S
C201 C200 1.272 . S
C201 C203 1.339 . S
C201 H228 0.936 . S
C202 C203 1.395 . S
C202 C204 1.320 . S
C203 C201 1.339 . S
C203 C202 1.395 . S
C203 H229 0.929 . S
C204 C202 1.320 . S
C204 C205 1.405 . S
C204 H230 0.930 . S
C205 C200 1.490 . S
C205 C204 1.405 . S
C205 H231 0.931 . S
U206 O207 2.454 . S
U206 O208 2.458 . S
U206 C209 2.984 . S
U206 C210 2.847 . S
U206 C223 2.882 . S
U206 O224 2.441 . S
U206 O225 2.420 . S
U206 O226 2.455 . S
U206 O227 2.449 . S
O207 U206 2.454 . S
O207 C209 1.353 . S
O208 U206 2.458 . S
O208 C209 1.286 . S
C209 U206 2.984 . S
C209 O207 1.353 . S
C209 O208 1.286 . S
C209 C211 1.363 . S
C210 C200 1.447 1_554 S
C210 U206 2.847 . S
C210 O224 1.249 . S
C210 O225 1.202 . S
C211 C209 1.363 . S
C211 C213 1.408 . S
C211 C216 1.342 . S
C212 C213 1.310 . S
C212 C215 1.461 . S
C212 H232 0.932 . S
C213 C211 1.408 . S
C213 C212 1.310 . S
C213 H233 0.930 . S
C214 C215 1.474 . S
C214 C216 1.285 . S
C214 H234 0.929 . S
C215 C212 1.461 . S
C215 C214 1.474 . S
C216 C211 1.342 . S
C216 C214 1.285 . S
C216 H235 0.930 . S
C217 C220 1.424 . S
C217 C222 1.245 . S
C217 C223 1.428 . S
C218 C221 1.260 . S
C218 C222 1.477 . S
C218 H236 0.932 . S
C219 C220 1.384 . S
C219 C221 1.479 . S
C219 H237 0.929 . S
C220 C217 1.424 . S
C220 C219 1.384 . S
C220 H238 0.928 . S
C221 C218 1.260 . S
C221 C219 1.479 . S
C222 C217 1.245 . S
C222 C218 1.477 . S
C222 H239 0.932 . S
C223 U206 2.882 . S
C223 C217 1.428 . S
C223 O226 1.301 . S
C223 O227 1.282 . S
O224 U206 2.441 . S
O224 C210 1.249 . S
O225 U206 2.420 . S
O225 C210 1.202 . S
O226 U206 2.455 . S
O226 C223 1.301 . S
O227 U206 2.449 . S
O227 C223 1.282 . S
H228 C201 0.936 . S
H229 C203 0.929 . S
H230 C204 0.930 . S
H231 C205 0.931 . S
H232 C212 0.932 . S
H233 C213 0.930 . S
H234 C214 0.929 . S
H235 C216 0.930 . S
H236 C218 0.932 . S
H237 C219 0.929 . S
H238 C220 0.928 . S
H239 C222 0.932 . S
C240 C241 1.264 . S
C240 C245 1.479 . S
C240 C250 1.465 . S
C241 C240 1.264 . S
C241 C243 1.339 . S
C241 H268 0.931 . S
C242 C243 1.395 . S
C242 C244 1.320 . S
C243 C241 1.339 . S
C243 C242 1.395 . S
C243 H269 0.929 . S
C244 C242 1.320 . S
C244 C245 1.405 . S
C244 H270 0.930 . S
C245 C240 1.479 . S
C245 C244 1.405 . S
C245 H271 0.931 . S
U246 O247 2.454 . S
U246 O248 2.458 . S
U246 C249 2.984 . S
U246 C250 2.847 . S
U246 C263 2.882 . S
U246 O264 2.441 . S
U246 O265 2.420 . S
U246 O266 2.455 . S
U246 O267 2.449 . S
O247 U246 2.454 . S
O247 C249 1.353 . S
O248 U246 2.458 . S
O248 C249 1.286 . S
C249 U246 2.984 . S
C249 O247 1.353 . S
C249 O248 1.286 . S
C249 C251 1.363 . S
C250 C240 1.465 . S
C250 U246 2.847 . S
C250 O264 1.249 . S
C250 O265 1.202 . S
C251 C249 1.363 . S
C251 C253 1.408 . S
C251 C256 1.342 . S
C252 C253 1.310 . S
C252 C255 1.461 . S
C252 H272 0.932 . S
C253 C251 1.408 . S
C253 C252 1.310 . S
C253 H273 0.930 . S
C254 C255 1.474 . S
C254 C256 1.285 . S
C254 H274 0.929 . S
C255 C252 1.461 . S
C255 C254 1.474 . S
C256 C251 1.342 . S
C256 C254 1.285 . S
C256 H275 0.930 . S
C257 C260 1.424 . S
C257 C262 1.245 . S
C257 C263 1.428 . S
C258 C261 1.260 . S
C258 C262 1.477 . S
C258 H276 0.932 . S
C259 C260 1.384 . S
C259 C261 1.479 . S
C259 H277 0.929 . S
C260 C257 1.424 . S
C260 C259 1.384 . S
C260 H278 0.928 . S
C261 C258 1.260 . S
C261 C259 1.479 . S
C262 C257 1.245 . S
C262 C258 1.477 . S
C262 H279 0.932 . S
C263 U246 2.882 . S
C263 C257 1.428 . S
C263 O266 1.301 . S
C263 O267 1.282 . S
O264 U246 2.441 . S
O264 C250 1.249 . S
O265 U246 2.420 . S
O265 C250 1.202 . S
O266 U246 2.455 . S
O266 C263 1.301 . S
O267 U246 2.449 . S
O267 C263 1.282 . S
H268 C241 0.931 . S
H269 C243 0.929 . S
H270 C244 0.930 . S
H271 C245 0.931 . S
H272 C252 0.932 . S
H273 C253 0.930 . S
H274 C254 0.929 . S
H275 C256 0.930 . S
H276 C258 0.932 . S
H277 C259 0.929 . S
H278 C260 0.928 . S
H279 C262 0.932 . S
C280 C281 1.264 1_556 S
C280 C285 1.479 1_556 S
C280 C290 1.465 . S
C281 C280 1.264 1_554 S
C281 C283 1.339 . S
C281 H308 0.931 1_554 S
C282 C283 1.395 . S
C282 C284 1.320 . S
C283 C281 1.339 . S
C283 C282 1.395 . S
C283 H309 0.929 . S
C284 C282 1.320 . S
C284 C285 1.405 . S
C284 H310 0.930 . S
C285 C280 1.479 1_554 S
C285 C284 1.405 . S
C285 H311 0.931 . S
U286 O287 2.454 . S
U286 O288 2.458 . S
U286 C289 2.984 . S
U286 C290 2.847 . S
U286 C303 2.882 . S
U286 O304 2.441 . S
U286 O305 2.420 . S
U286 O306 2.455 . S
U286 O307 2.449 . S
O287 U286 2.454 . S
O287 C289 1.353 . S
O288 U286 2.458 . S
O288 C289 1.286 . S
C289 U286 2.984 . S
C289 O287 1.353 . S
C289 O288 1.286 . S
C289 C291 1.363 . S
C290 C280 1.465 . S
C290 U286 2.847 . S
C290 O304 1.249 . S
C290 O305 1.202 . S
C291 C289 1.363 . S
C291 C293 1.408 . S
C291 C296 1.342 . S
C292 C293 1.310 . S
C292 C295 1.461 . S
C292 H312 0.932 . S
C293 C291 1.408 . S
C293 C292 1.310 . S
C293 H313 0.930 . S
C294 C295 1.474 . S
C294 C296 1.285 . S
C294 H314 0.929 . S
C295 C292 1.461 . S
C295 C294 1.474 . S
C296 C291 1.342 . S
C296 C294 1.285 . S
C296 H315 0.930 . S
C297 C300 1.424 . S
C297 C302 1.245 . S
C297 C303 1.428 . S
C298 C301 1.260 . S
C298 C302 1.477 . S
C298 H316 0.932 . S
C299 C300 1.384 . S
C299 C301 1.479 . S
C299 H317 0.929 . S
C300 C297 1.424 . S
C300 C299 1.384 . S
C300 H318 0.928 . S
C301 C298 1.260 . S
C301 C299 1.479 . S
C302 C297 1.245 . S
C302 C298 1.477 . S
C302 H319 0.932 . S
C303 U286 2.882 . S
C303 C297 1.428 . S
C303 O306 1.301 . S
C303 O307 1.282 . S
O304 U286 2.441 . S
O304 C290 1.249 . S
O305 U286 2.420 . S
O305 C290 1.202 . S
O306 U286 2.455 . S
O306 C303 1.301 . S
O307 U286 2.449 . S
O307 C303 1.282 . S
H308 C281 0.931 1_556 S
H309 C283 0.929 . S
H310 C284 0.930 . S
H311 C285 0.931 . S
H312 C292 0.932 . S
H313 C293 0.930 . S
H314 C294 0.929 . S
H315 C296 0.930 . S
H316 C298 0.932 . S
H317 C299 0.929 . S
H318 C300 0.928 . S
H319 C302 0.932 . S
Zn320 O326 1.920 1_455 S
Zn320 O332 1.898 . S
Zn320 O335 1.905 . S
Zn321 O329 1.905 1_655 S
Zn321 O330 1.898 . S
Zn321 O338 1.920 . S
Zn322 O325 2.080 1_455 S
Zn322 O328 2.114 . S
Zn322 O331 2.120 1_455 S
Zn322 O333 2.120 . S
Zn322 O334 2.114 . S
Zn322 O337 2.080 1_455 S
C323 O328 1.166 . S
C323 O329 1.182 . S
C324 O330 1.167 . S
C324 O331 1.299 . S
O325 Zn322 2.080 1_655 S
O325 C339 1.305 . S
O326 Zn320 1.920 1_655 S
O326 C339 1.234 . S
C327 O332 1.167 . S
C327 O333 1.299 . S
O328 Zn322 2.114 . S
O328 C323 1.166 . S
O329 Zn321 1.905 1_455 S
O329 C323 1.182 . S
O330 Zn321 1.898 . S
O330 C324 1.167 . S
O331 Zn322 2.120 1_655 S
O331 C324 1.299 . S
O332 Zn320 1.898 . S
O332 C327 1.167 . S
O333 Zn322 2.120 . S
O333 C327 1.299 . S
O334 Zn322 2.114 . S
O334 C336 1.166 . S
O335 Zn320 1.905 . S
O335 C336 1.182 . S
C336 O334 1.166 . S
C336 O335 1.182 . S
O337 Zn322 2.080 1_655 S
O337 C340 1.305 . S
O338 Zn321 1.920 . S
O338 C340 1.234 . S
C339 O325 1.305 . S
C339 O326 1.234 . S
C340 O337 1.305 . S
C340 O338 1.234 . S
Zn341 O347 1.920 . S
Zn341 O353 1.898 . S
Zn341 O356 1.905 . S
Zn342 O350 1.905 . S
Zn342 O351 1.898 . S
Zn342 O359 1.920 . S
Zn343 O346 2.080 . S
Zn343 O349 2.114 . S
Zn343 O352 2.120 . S
Zn343 O354 2.120 . S
Zn343 O355 2.114 . S
Zn343 O358 2.080 . S
C344 O349 1.166 . S
C344 O350 1.182 . S
C345 O351 1.167 . S
C345 O352 1.299 . S
O346 Zn343 2.080 . S
O346 C360 1.305 . S
O347 Zn341 1.920 . S
O347 C360 1.234 . S
C348 O353 1.167 . S
C348 O354 1.299 . S
O349 Zn343 2.114 . S
O349 C344 1.166 . S
O350 Zn342 1.905 . S
O350 C344 1.182 . S
O351 Zn342 1.898 . S
O351 C345 1.167 . S
O352 Zn343 2.120 . S
O352 C345 1.299 . S
O353 Zn341 1.898 . S
O353 C348 1.167 . S
O354 Zn343 2.120 . S
O354 C348 1.299 . S
O355 Zn343 2.114 . S
O355 C357 1.166 . S
O356 Zn341 1.905 . S
O356 C357 1.182 . S
C357 O355 1.166 . S
C357 O356 1.182 . S
O358 Zn343 2.080 . S
O358 C361 1.305 . S
O359 Zn342 1.920 . S
O359 C361 1.234 . S
C360 O346 1.305 . S
C360 O347 1.234 . S
C361 O358 1.305 . S
C361 O359 1.234 . S
Zn362 O368 1.920 . S
Zn362 O374 1.898 . S
Zn362 O377 1.905 . S
Zn363 O371 1.905 . S
Zn363 O372 1.898 . S
Zn363 O380 1.920 1_655 S
Zn364 O367 2.080 . S
Zn364 O370 2.114 1_455 S
Zn364 O373 2.120 1_455 S
Zn364 O375 2.120 . S
Zn364 O376 2.114 1_455 S
Zn364 O379 2.080 . S
C365 O370 1.166 . S
C365 O371 1.182 . S
C366 O372 1.167 . S
C366 O373 1.299 . S
O367 Zn364 2.080 . S
O367 C381 1.305 . S
O368 Zn362 1.920 . S
O368 C381 1.234 . S
C369 O374 1.167 . S
C369 O375 1.299 . S
O370 Zn364 2.114 1_655 S
O370 C365 1.166 . S
O371 Zn363 1.905 . S
O371 C365 1.182 . S
O372 Zn363 1.898 . S
O372 C366 1.167 . S
O373 Zn364 2.120 1_655 S
O373 C366 1.299 . S
O374 Zn362 1.898 . S
O374 C369 1.167 . S
O375 Zn364 2.120 . S
O375 C369 1.299 . S
O376 Zn364 2.114 1_655 S
O376 C378 1.166 . S
O377 Zn362 1.905 . S
O377 C378 1.182 1_455 S
C378 O376 1.166 . S
C378 O377 1.182 1_655 S
O379 Zn364 2.080 . S
O379 C382 1.305 . S
O380 Zn363 1.920 1_455 S
O380 C382 1.234 . S
C381 O367 1.305 . S
C381 O368 1.234 . S
C382 O379 1.305 . S
C382 O380 1.234 . S
Zn383 O389 1.920 . S
Zn383 O395 1.898 . S
Zn383 O398 1.905 . S
Zn384 O392 1.905 . S
Zn384 O393 1.898 . S
Zn384 O401 1.920 . S
Zn385 O388 2.080 . S
Zn385 O391 2.114 . S
Zn385 O394 2.120 . S
Zn385 O396 2.120 . S
Zn385 O397 2.114 . S
Zn385 O400 2.080 . S
C386 O391 1.166 . S
C386 O392 1.182 . S
C387 O393 1.167 . S
C387 O394 1.299 . S
O388 Zn385 2.080 . S
O388 C402 1.305 . S
O389 Zn383 1.920 . S
O389 C402 1.234 . S
C390 O395 1.167 . S
C390 O396 1.299 . S
O391 Zn385 2.114 . S
O391 C386 1.166 . S
O392 Zn384 1.905 . S
O392 C386 1.182 . S
O393 Zn384 1.898 . S
O393 C387 1.167 . S
O394 Zn385 2.120 . S
O394 C387 1.299 . S
O395 Zn383 1.898 . S
O395 C390 1.167 . S
O396 Zn385 2.120 . S
O396 C390 1.299 . S
O397 Zn385 2.114 . S
O397 C399 1.166 . S
O398 Zn383 1.905 . S
O398 C399 1.182 . S
C399 O397 1.166 . S
C399 O398 1.182 . S
O400 Zn385 2.080 . S
O400 C403 1.305 . S
O401 Zn384 1.920 . S
O401 C403 1.234 . S
C402 O388 1.305 . S
C402 O389 1.234 . S
C403 O400 1.305 . S
C403 O401 1.234 . S
C404 C405 1.363 . S
C404 C410 1.379 . S
C404 N412 1.356 1_545 S
C405 C404 1.363 . S
C405 C411 1.363 . S
C406 C407 1.363 . S
C406 C411 1.379 . S
C406 N413 1.356 . S
C407 C406 1.363 . S
C407 C410 1.363 . S
N408 C410 1.356 . S
N408 H420 0.984 . S
N408 H421 0.985 . S
N409 C411 1.356 . S
N409 H414 0.984 1_545 S
N409 H415 0.985 . S
C410 C404 1.379 . S
C410 C407 1.363 . S
C410 N408 1.356 . S
C411 C405 1.363 . S
C411 C406 1.379 . S
C411 N409 1.356 . S
N412 C404 1.356 1_565 S
N412 H418 0.984 . S
N412 H419 0.984 . S
N413 C406 1.356 . S
N413 H416 0.984 . S
N413 H417 0.985 . S
H414 N409 0.984 1_565 S
H415 N409 0.985 . S
H416 N413 0.984 . S
H417 N413 0.985 . S
H418 N412 0.984 . S
H419 N412 0.984 . S
H420 N408 0.984 . S
H421 N408 0.985 . S
C422 C423 1.363 . S
C422 C428 1.379 . S
C422 N430 1.356 . S
C423 C422 1.363 . S
C423 C429 1.363 . S
C424 C425 1.363 . S
C424 C429 1.379 . S
C424 N431 1.356 . S
C425 C424 1.363 . S
C425 C428 1.363 . S
N426 C428 1.356 . S
N426 H438 0.984 . S
N426 H439 0.985 . S
N427 C429 1.356 . S
N427 H432 0.984 . S
N427 H433 0.985 . S
C428 C422 1.379 . S
C428 C425 1.363 . S
C428 N426 1.356 . S
C429 C423 1.363 . S
C429 C424 1.379 . S
C429 N427 1.356 . S
N430 C422 1.356 . S
N430 H436 0.984 . S
N430 H437 0.984 . S
N431 C424 1.356 . S
N431 H434 0.984 . S
N431 H435 0.985 . S
H432 N427 0.984 . S
H433 N427 0.985 . S
H434 N431 0.984 . S
H435 N431 0.985 . S
H436 N430 0.984 . S
H437 N430 0.984 . S
H438 N426 0.984 . S
H439 N426 0.985 . S
C440 C441 1.363 . S
C440 C446 1.379 . S
C440 N448 1.356 . S
C441 C440 1.363 . S
C441 C447 1.363 . S
C442 C443 1.363 . S
C442 C447 1.379 . S
C442 N449 1.356 . S
C443 C442 1.363 . S
C443 C446 1.363 . S
N444 C446 1.356 . S
N444 H456 0.984 . S
N444 H457 0.985 . S
N445 C447 1.356 . S
N445 H450 0.984 . S
N445 H451 0.985 . S
C446 C440 1.379 . S
C446 C443 1.363 . S
C446 N444 1.356 . S
C447 C441 1.363 . S
C447 C442 1.379 . S
C447 N445 1.356 . S
N448 C440 1.356 . S
N448 H454 0.984 . S
N448 H455 0.984 . S
N449 C442 1.356 . S
N449 H452 0.984 . S
N449 H453 0.985 . S
H450 N445 0.984 . S
H451 N445 0.985 . S
H452 N449 0.984 . S
H453 N449 0.985 . S
H454 N448 0.984 . S
H455 N448 0.984 . S
H456 N444 0.984 . S
H457 N444 0.985 . S
C458 C459 1.363 1_545 S
C458 C464 1.379 . S
C458 N466 1.356 1_545 S
C459 C458 1.363 1_565 S
C459 C465 1.363 1_565 S
C460 C461 1.363 . S
C460 C465 1.379 . S
C460 N467 1.356 . S
C461 C460 1.363 . S
C461 C464 1.363 . S
N462 C464 1.356 . S
N462 H474 0.984 . S
N462 H475 0.985 . S
N463 C465 1.356 . S
N463 H468 0.984 1_545 S
N463 H469 0.985 . S
C464 C458 1.379 . S
C464 C461 1.363 . S
C464 N462 1.356 . S
C465 C459 1.363 1_545 S
C465 C460 1.379 . S
C465 N463 1.356 . S
N466 C458 1.356 1_565 S
N466 H472 0.984 . S
N466 H473 0.984 . S
N467 C460 1.356 . S
N467 H470 0.984 . S
N467 H471 0.985 . S
H468 N463 0.984 1_565 S
H469 N463 0.985 . S
H470 N467 0.984 . S
H471 N467 0.985 . S
H472 N466 0.984 . S
H473 N466 0.984 . S
H474 N462 0.984 . S
H475 N462 0.985 . S
C476 C477 1.363 . S
C476 C482 1.379 . S
C476 N484 1.356 . S
C477 C476 1.363 . S
C477 C483 1.363 . S
C478 C479 1.363 . S
C478 C483 1.379 . S
C478 N485 1.356 . S
C479 C478 1.363 . S
C479 C482 1.363 . S
N480 C482 1.356 . S
N480 H492 0.984 . S
N480 H493 0.985 . S
N481 C483 1.356 1_545 S
N481 H486 0.984 . S
N481 H487 0.985 . S
C482 C476 1.379 . S
C482 C479 1.363 . S
C482 N480 1.356 . S
C483 C477 1.363 . S
C483 C478 1.379 . S
C483 N481 1.356 1_565 S
N484 C476 1.356 . S
N484 H490 0.984 . S
N484 H491 0.984 1_565 S
N485 C478 1.356 . S
N485 H488 0.984 . S
N485 H489 0.985 . S
H486 N481 0.984 . S
H487 N481 0.985 . S
H488 N485 0.984 . S
H489 N485 0.985 . S
H490 N484 0.984 . S
H491 N484 0.984 1_545 S
H492 N480 0.984 . S
H493 N480 0.985 . S
C494 C495 1.363 . S
C494 C500 1.379 . S
C494 N502 1.356 . S
C495 C494 1.363 . S
C495 C501 1.363 . S
C496 C497 1.363 . S
C496 C501 1.379 . S
C496 N503 1.356 . S
C497 C496 1.363 . S
C497 C500 1.363 . S
N498 C500 1.356 . S
N498 H510 0.984 . S
N498 H511 0.985 . S
N499 C501 1.356 . S
N499 H504 0.984 . S
N499 H505 0.985 . S
C500 C494 1.379 . S
C500 C497 1.363 . S
C500 N498 1.356 . S
C501 C495 1.363 . S
C501 C496 1.379 . S
C501 N499 1.356 . S
N502 C494 1.356 . S
N502 H508 0.984 . S
N502 H509 0.984 . S
N503 C496 1.356 . S
N503 H506 0.984 . S
N503 H507 0.985 . S
H504 N499 0.984 . S
H505 N499 0.985 . S
H506 N503 0.984 . S
H507 N503 0.985 . S
H508 N502 0.984 . S
H509 N502 0.984 . S
H510 N498 0.984 . S
H511 N498 0.985 . S
C512 C513 1.363 . S
C512 C518 1.379 . S
C512 N520 1.356 . S
C513 C512 1.363 . S
C513 C519 1.363 . S
C514 C515 1.363 . S
C514 C519 1.379 . S
C514 N521 1.356 . S
C515 C514 1.363 . S
C515 C518 1.363 . S
N516 C518 1.356 . S
N516 H528 0.984 . S
N516 H529 0.985 . S
N517 C519 1.356 . S
N517 H522 0.984 . S
N517 H523 0.985 . S
C518 C512 1.379 . S
C518 C515 1.363 . S
C518 N516 1.356 . S
C519 C513 1.363 . S
C519 C514 1.379 . S
C519 N517 1.356 . S
N520 C512 1.356 . S
N520 H526 0.984 . S
N520 H527 0.984 . S
N521 C514 1.356 . S
N521 H524 0.984 . S
N521 H525 0.985 . S
H522 N517 0.984 . S
H523 N517 0.985 . S
H524 N521 0.984 . S
H525 N521 0.985 . S
H526 N520 0.984 . S
H527 N520 0.984 . S
H528 N516 0.984 . S
H529 N516 0.985 . S
C530 C531 1.363 1_565 S
C530 C536 1.379 . S
C530 N538 1.356 . S
C531 C530 1.363 1_545 S
C531 C537 1.363 1_545 S
C532 C533 1.363 . S
C532 C537 1.379 . S
C532 N539 1.356 . S
C533 C532 1.363 . S
C533 C536 1.363 . S
N534 C536 1.356 . S
N534 H546 0.984 . S
N534 H547 0.985 . S
N535 C537 1.356 1_545 S
N535 H540 0.984 . S
N535 H541 0.985 . S
C536 C530 1.379 . S
C536 C533 1.363 . S
C536 N534 1.356 . S
C537 C531 1.363 1_565 S
C537 C532 1.379 . S
C537 N535 1.356 1_565 S
N538 C530 1.356 . S
N538 H544 0.984 . S
N538 H545 0.984 1_565 S
N539 C532 1.356 . S
N539 H542 0.984 . S
N539 H543 0.985 . S
H540 N535 0.984 . S
H541 N535 0.985 . S
H542 N539 0.984 . S
H543 N539 0.985 . S
H544 N538 0.984 . S
H545 N538 0.984 1_545 S
H546 N534 0.984 . S
H547 N534 0.985 . S
C548 C549 1.363 . S
C548 C554 1.379 . S
C548 N556 1.356 . S
C549 C548 1.363 . S
C549 C555 1.363 . S
C550 C551 1.363 . S
C550 C555 1.379 . S
C550 N557 1.356 . S
C551 C550 1.363 . S
C551 C554 1.363 . S
N552 C554 1.356 . S
N552 H564 0.984 . S
N552 H565 0.985 . S
N553 C555 1.356 . S
N553 H558 0.984 . S
N553 H559 0.985 . S
C554 C548 1.379 . S
C554 C551 1.363 . S
C554 N552 1.356 . S
C555 C549 1.363 . S
C555 C550 1.379 . S
C555 N553 1.356 . S
N556 C548 1.356 . S
N556 H562 0.984 . S
N556 H563 0.984 . S
N557 C550 1.356 . S
N557 H560 0.984 . S
N557 H561 0.985 . S
H558 N553 0.984 . S
H559 N553 0.985 . S
H560 N557 0.984 . S
H561 N557 0.985 . S
H562 N556 0.984 . S
H563 N556 0.984 . S
H564 N552 0.984 . S
H565 N552 0.985 . S
C566 C567 1.363 . S
C566 C572 1.379 . S
C566 N574 1.356 . S
C567 C566 1.363 . S
C567 C573 1.363 . S
C568 C569 1.363 . S
C568 C573 1.379 . S
C568 N575 1.356 . S
C569 C568 1.363 . S
C569 C572 1.363 . S
N570 C572 1.356 . S
N570 H582 0.984 . S
N570 H583 0.985 . S
N571 C573 1.356 . S
N571 H576 0.984 . S
N571 H577 0.985 . S
C572 C566 1.379 . S
C572 C569 1.363 . S
C572 N570 1.356 . S
C573 C567 1.363 . S
C573 C568 1.379 . S
C573 N571 1.356 . S
N574 C566 1.356 . S
N574 H580 0.984 . S
N574 H581 0.984 . S
N575 C568 1.356 . S
N575 H578 0.984 . S
N575 H579 0.985 . S
H576 N571 0.984 . S
H577 N571 0.985 . S
H578 N575 0.984 . S
H579 N575 0.985 . S
H580 N574 0.984 . S
H581 N574 0.984 . S
H582 N570 0.984 . S
H583 N570 0.985 . S
C584 C585 1.363 . S
C584 C590 1.379 . S
C584 N592 1.356 . S
C585 C584 1.363 . S
C585 C591 1.363 . S
C586 C587 1.363 . S
C586 C591 1.379 . S
C586 N593 1.356 . S
C587 C586 1.363 . S
C587 C590 1.363 . S
N588 C590 1.356 . S
N588 H600 0.984 . S
N588 H601 0.985 . S
N589 C591 1.356 . S
N589 H594 0.984 . S
N589 H595 0.985 . S
C590 C584 1.379 . S
C590 C587 1.363 . S
C590 N588 1.356 . S
C591 C585 1.363 . S
C591 C586 1.379 . S
C591 N589 1.356 . S
N592 C584 1.356 . S
N592 H598 0.984 . S
N592 H599 0.984 . S
N593 C586 1.356 . S
N593 H596 0.984 . S
N593 H597 0.985 . S
H594 N589 0.984 . S
H595 N589 0.985 . S
H596 N593 0.984 . S
H597 N593 0.985 . S
H598 N592 0.984 . S
H599 N592 0.984 . S
H600 N588 0.984 . S
H601 N588 0.985 . S
C602 C603 1.363 . S
C602 C608 1.379 . S
C602 N610 1.356 . S
C603 C602 1.363 . S
C603 C609 1.363 . S
C604 C605 1.363 . S
C604 C609 1.379 . S
C604 N611 1.356 . S
C605 C604 1.363 . S
C605 C608 1.363 . S
N606 C608 1.356 . S
N606 H618 0.984 . S
N606 H619 0.985 . S
N607 C609 1.356 . S
N607 H612 0.984 . S
N607 H613 0.985 . S
C608 C602 1.379 . S
C608 C605 1.363 . S
C608 N606 1.356 . S
C609 C603 1.363 . S
C609 C604 1.379 . S
C609 N607 1.356 . S
N610 C602 1.356 . S
N610 H616 0.984 . S
N610 H617 0.984 . S
N611 C604 1.356 . S
N611 H614 0.984 . S
N611 H615 0.985 . S
H612 N607 0.984 . S
H613 N607 0.985 . S
H614 N611 0.984 . S
H615 N611 0.985 . S
H616 N610 0.984 . S
H617 N610 0.984 . S
H618 N606 0.984 . S
H619 N606 0.985 . S
C620 C621 1.363 . S
C620 C626 1.379 . S
C620 N628 1.356 . S
C621 C620 1.363 . S
C621 C627 1.363 . S
C622 C623 1.363 . S
C622 C627 1.379 . S
C622 N629 1.356 . S
C623 C622 1.363 . S
C623 C626 1.363 . S
N624 C626 1.356 . S
N624 H636 0.984 . S
N624 H637 0.985 . S
N625 C627 1.356 . S
N625 H630 0.984 . S
N625 H631 0.985 . S
C626 C620 1.379 . S
C626 C623 1.363 . S
C626 N624 1.356 . S
C627 C621 1.363 . S
C627 C622 1.379 . S
C627 N625 1.356 . S
N628 C620 1.356 . S
N628 H634 0.984 . S
N628 H635 0.984 . S
N629 C622 1.356 . S
N629 H632 0.984 . S
N629 H633 0.985 . S
H630 N625 0.984 . S
H631 N625 0.985 . S
H632 N629 0.984 . S
H633 N629 0.985 . S
H634 N628 0.984 . S
H635 N628 0.984 . S
H636 N624 0.984 . S
H637 N624 0.985 . S
C638 C639 1.363 . S
C638 C644 1.379 . S
C638 N646 1.356 . S
C639 C638 1.363 . S
C639 C645 1.363 . S
C640 C641 1.363 . S
C640 C645 1.379 . S
C640 N647 1.356 . S
C641 C640 1.363 . S
C641 C644 1.363 . S
N642 C644 1.356 . S
N642 H654 0.984 . S
N642 H655 0.985 . S
N643 C645 1.356 . S
N643 H648 0.984 . S
N643 H649 0.985 . S
C644 C638 1.379 . S
C644 C641 1.363 . S
C644 N642 1.356 . S
C645 C639 1.363 . S
C645 C640 1.379 . S
C645 N643 1.356 . S
N646 C638 1.356 . S
N646 H652 0.984 . S
N646 H653 0.984 . S
N647 C640 1.356 . S
N647 H650 0.984 . S
N647 H651 0.985 . S
H648 N643 0.984 . S
H649 N643 0.985 . S
H650 N647 0.984 . S
H651 N647 0.985 . S
H652 N646 0.984 . S
H653 N646 0.984 . S
H654 N642 0.984 . S
H655 N642 0.985 . S
C656 C657 1.363 . S
C656 C662 1.379 . S
C656 N664 1.356 . S
C657 C656 1.363 . S
C657 C663 1.363 . S
C658 C659 1.363 . S
C658 C663 1.379 . S
C658 N665 1.356 . S
C659 C658 1.363 . S
C659 C662 1.363 . S
N660 C662 1.356 . S
N660 H672 0.984 . S
N660 H673 0.985 . S
N661 C663 1.356 . S
N661 H666 0.984 . S
N661 H667 0.985 . S
C662 C656 1.379 . S
C662 C659 1.363 . S
C662 N660 1.356 . S
C663 C657 1.363 . S
C663 C658 1.379 . S
C663 N661 1.356 . S
N664 C656 1.356 . S
N664 H670 0.984 . S
N664 H671 0.984 . S
N665 C658 1.356 . S
N665 H668 0.984 . S
N665 H669 0.985 . S
H666 N661 0.984 . S
H667 N661 0.985 . S
H668 N665 0.984 . S
H669 N665 0.985 . S
H670 N664 0.984 . S
H671 N664 0.984 . S
H672 N660 0.984 . S
H673 N660 0.985 . S
C674 C675 1.363 . S
C674 C680 1.379 . S
C674 N682 1.356 . S
C675 C674 1.363 . S
C675 C681 1.363 . S
C676 C677 1.363 . S
C676 C681 1.379 . S
C676 N683 1.356 . S
C677 C676 1.363 . S
C677 C680 1.363 . S
N678 C680 1.356 . S
N678 H690 0.984 . S
N678 H691 0.985 . S
N679 C681 1.356 . S
N679 H684 0.984 . S
N679 H685 0.985 . S
C680 C674 1.379 . S
C680 C677 1.363 . S
C680 N678 1.356 . S
C681 C675 1.363 . S
C681 C676 1.379 . S
C681 N679 1.356 . S
N682 C674 1.356 . S
N682 H688 0.984 . S
N682 H689 0.984 . S
N683 C676 1.356 . S
N683 H686 0.984 . S
N683 H687 0.985 . S
H684 N679 0.984 . S
H685 N679 0.985 . S
H686 N683 0.984 . S
H687 N683 0.985 . S
H688 N682 0.984 . S
H689 N682 0.984 . S
H690 N678 0.984 . S
H691 N678 0.985 . S
C692 C693 1.363 . S
C692 C698 1.379 . S
C692 N700 1.356 . S
C693 C692 1.363 . S
C693 C699 1.363 . S
C694 C695 1.363 . S
C694 C699 1.379 . S
C694 N701 1.356 . S
C695 C694 1.363 . S
C695 C698 1.363 . S
N696 C698 1.356 . S
N696 H708 0.984 . S
N696 H709 0.985 . S
N697 C699 1.356 . S
N697 H702 0.984 . S
N697 H703 0.985 . S
C698 C692 1.379 . S
C698 C695 1.363 . S
C698 N696 1.356 . S
C699 C693 1.363 . S
C699 C694 1.379 . S
C699 N697 1.356 . S
N700 C692 1.356 . S
N700 H706 0.984 . S
N700 H707 0.984 . S
N701 C694 1.356 . S
N701 H704 0.984 . S
N701 H705 0.985 . S
H702 N697 0.984 . S
H703 N697 0.985 . S
H704 N701 0.984 . S
H705 N701 0.985 . S
H706 N700 0.984 . S
H707 N700 0.984 . S
H708 N696 0.984 . S
H709 N696 0.985 . S
C710 C711 1.363 . S
C710 C716 1.379 . S
C710 N718 1.356 . S
C711 C710 1.363 . S
C711 C717 1.363 . S
C712 C713 1.363 . S
C712 C717 1.379 . S
C712 N719 1.356 . S
C713 C712 1.363 . S
C713 C716 1.363 . S
N714 C716 1.356 . S
N714 H726 0.984 . S
N714 H727 0.985 . S
N715 C717 1.356 . S
N715 H720 0.984 . S
N715 H721 0.985 . S
C716 C710 1.379 . S
C716 C713 1.363 . S
C716 N714 1.356 . S
C717 C711 1.363 . S
C717 C712 1.379 . S
C717 N715 1.356 . S
N718 C710 1.356 . S
N718 H724 0.984 . S
N718 H725 0.984 . S
N719 C712 1.356 . S
N719 H722 0.984 . S
N719 H723 0.985 . S
H720 N715 0.984 . S
H721 N715 0.985 . S
H722 N719 0.984 . S
H723 N719 0.985 . S
H724 N718 0.984 . S
H725 N718 0.984 . S
H726 N714 0.984 . S
H727 N714 0.985 . S
C728 C729 1.363 . S
C728 C734 1.379 . S
C728 N736 1.356 . S
C729 C728 1.363 . S
C729 C735 1.363 . S
C730 C731 1.363 . S
C730 C735 1.379 . S
C730 N737 1.356 . S
C731 C730 1.363 . S
C731 C734 1.363 . S
N732 C734 1.356 . S
N732 H744 0.984 . S
N732 H745 0.985 . S
N733 C735 1.356 . S
N733 H738 0.984 . S
N733 H739 0.985 . S
C734 C728 1.379 . S
C734 C731 1.363 . S
C734 N732 1.356 . S
C735 C729 1.363 . S
C735 C730 1.379 . S
C735 N733 1.356 . S
N736 C728 1.356 . S
N736 H742 0.984 . S
N736 H743 0.984 . S
N737 C730 1.356 . S
N737 H740 0.984 . S
N737 H741 0.985 . S
H738 N733 0.984 . S
H739 N733 0.985 . S
H740 N737 0.984 . S
H741 N737 0.985 . S
H742 N736 0.984 . S
H743 N736 0.984 . S
H744 N732 0.984 . S
H745 N732 0.985 . S
C746 C747 1.363 . S
C746 C752 1.379 . S
C746 N754 1.356 . S
C747 C746 1.363 . S
C747 C753 1.363 . S
C748 C749 1.363 . S
C748 C753 1.379 . S
C748 N755 1.356 . S
C749 C748 1.363 . S
C749 C752 1.363 . S
N750 C752 1.356 . S
N750 H762 0.984 . S
N750 H763 0.985 . S
N751 C753 1.356 . S
N751 H756 0.984 . S
N751 H757 0.985 . S
C752 C746 1.379 . S
C752 C749 1.363 . S
C752 N750 1.356 . S
C753 C747 1.363 . S
C753 C748 1.379 . S
C753 N751 1.356 . S
N754 C746 1.356 . S
N754 H760 0.984 . S
N754 H761 0.984 . S
N755 C748 1.356 . S
N755 H758 0.984 . S
N755 H759 0.985 . S
H756 N751 0.984 . S
H757 N751 0.985 . S
H758 N755 0.984 . S
H759 N755 0.985 . S
H760 N754 0.984 . S
H761 N754 0.984 . S
H762 N750 0.984 . S
H763 N750 0.985 . S
C764 C765 1.363 . S
C764 C770 1.379 . S
C764 N772 1.356 . S
C765 C764 1.363 . S
C765 C771 1.363 . S
C766 C767 1.363 . S
C766 C771 1.379 . S
C766 N773 1.356 . S
C767 C766 1.363 . S
C767 C770 1.363 . S
N768 C770 1.356 . S
N768 H780 0.984 . S
N768 H781 0.985 . S
N769 C771 1.356 . S
N769 H774 0.984 . S
N769 H775 0.985 . S
C770 C764 1.379 . S
C770 C767 1.363 . S
C770 N768 1.356 . S
C771 C765 1.363 . S
C771 C766 1.379 . S
C771 N769 1.356 . S
N772 C764 1.356 . S
N772 H778 0.984 . S
N772 H779 0.984 . S
N773 C766 1.356 . S
N773 H776 0.984 . S
N773 H777 0.985 . S
H774 N769 0.984 . S
H775 N769 0.985 . S
H776 N773 0.984 . S
H777 N773 0.985 . S
H778 N772 0.984 . S
H779 N772 0.984 . S
H780 N768 0.984 . S
H781 N768 0.985 . S
C782 C783 1.363 . S
C782 C788 1.379 . S
C782 N790 1.356 . S
C783 C782 1.363 . S
C783 C789 1.363 . S
C784 C785 1.363 . S
C784 C789 1.379 . S
C784 N791 1.356 . S
C785 C784 1.363 . S
C785 C788 1.363 . S
N786 C788 1.356 . S
N786 H798 0.984 . S
N786 H799 0.985 . S
N787 C789 1.356 . S
N787 H792 0.984 . S
N787 H793 0.985 . S
C788 C782 1.379 . S
C788 C785 1.363 . S
C788 N786 1.356 . S
C789 C783 1.363 . S
C789 C784 1.379 . S
C789 N787 1.356 . S
N790 C782 1.356 . S
N790 H796 0.984 . S
N790 H797 0.984 . S
N791 C784 1.356 . S
N791 H794 0.984 . S
N791 H795 0.985 . S
H792 N787 0.984 . S
H793 N787 0.985 . S
H794 N791 0.984 . S
H795 N791 0.985 . S
H796 N790 0.984 . S
H797 N790 0.984 . S
H798 N786 0.984 . S
H799 N786 0.985 . S
C800 C801 1.363 . S
C800 C806 1.379 . S
C800 N808 1.356 . S
C801 C800 1.363 . S
C801 C807 1.363 . S
C802 C803 1.363 . S
C802 C807 1.379 . S
C802 N809 1.356 . S
C803 C802 1.363 . S
C803 C806 1.363 . S
N804 C806 1.356 . S
N804 H816 0.984 . S
N804 H817 0.985 . S
N805 C807 1.356 . S
N805 H810 0.984 . S
N805 H811 0.985 . S
C806 C800 1.379 . S
C806 C803 1.363 . S
C806 N804 1.356 . S
C807 C801 1.363 . S
C807 C802 1.379 . S
C807 N805 1.356 . S
N808 C800 1.356 . S
N808 H814 0.984 . S
N808 H815 0.984 . S
N809 C802 1.356 . S
N809 H812 0.984 . S
N809 H813 0.985 . S
H810 N805 0.984 . S
H811 N805 0.985 . S
H812 N809 0.984 . S
H813 N809 0.985 . S
H814 N808 0.984 . S
H815 N808 0.984 . S
H816 N804 0.984 . S
H817 N804 0.985 . S
C818 C819 1.363 . S
C818 C824 1.379 . S
C818 N826 1.356 . S
C819 C818 1.363 . S
C819 C825 1.363 . S
C820 C821 1.363 . S
C820 C825 1.379 . S
C820 N827 1.356 . S
C821 C820 1.363 . S
C821 C824 1.363 . S
N822 C824 1.356 . S
N822 H834 0.984 . S
N822 H835 0.985 . S
N823 C825 1.356 . S
N823 H828 0.984 . S
N823 H829 0.985 . S
C824 C818 1.379 . S
C824 C821 1.363 . S
C824 N822 1.356 . S
C825 C819 1.363 . S
C825 C820 1.379 . S
C825 N823 1.356 . S
N826 C818 1.356 . S
N826 H832 0.984 . S
N826 H833 0.984 . S
N827 C820 1.356 . S
N827 H830 0.984 . S
N827 H831 0.985 . S
H828 N823 0.984 . S
H829 N823 0.985 . S
H830 N827 0.984 . S
H831 N827 0.985 . S
H832 N826 0.984 . S
H833 N826 0.984 . S
H834 N822 0.984 . S
H835 N822 0.985 . S
C405 C242 1.532 1_545 S
C407 C336 1.515 . S
C425 C344 1.551 . S
C423 C301 1.489 . S
C443 C348 1.494 . S
C441 C162 1.518 . S
C459 C221 1.475 . S
C461 C324 1.532 . S
C479 C365 1.515 . S
C477 C82 1.497 1_565 S
C497 C399 1.551 . S
C495 C141 1.535 . S
C513 C2 1.479 . S
C515 C387 1.494 . S
C531 C61 1.525 . S
C533 C369 1.532 . S
C551 C323 1.366 . S
C549 C42 1.513 . S
C569 C357 1.367 . S
C567 C21 1.458 . S
C587 C361 1.363 . S
C585 C122 1.509 . S
C605 C339 1.367 . S
C603 C101 1.462 . S
C623 C378 1.366 . S
C621 C202 1.480 . S
C639 C181 1.486 . S
C641 C386 1.367 . S
C659 C402 1.363 . S
C657 C282 1.481 . S
C675 C261 1.484 . S
C677 C382 1.367 . S
C695 C327 1.316 . S
C693 C15 1.515 . S
C713 C345 1.322 . S
C711 C55 1.519 . S
C729 C95 1.500 . S
C731 C360 1.314 . S
C749 C340 1.319 . S
C747 C135 1.504 . S
C767 C366 1.316 . S
C765 C175 1.517 . S
C783 C215 1.516 . S
C785 C390 1.322 . S
C801 C255 1.502 . S
C803 C403 1.313 . S
C819 C295 1.501 . S
C821 C381 1.319 . S
