# Generated by pormake.
# Topology csq, (4,8)-cn, num edge types: 1
# Building blocks:
#     Node 0, Type 0, BuildingBlock: MUDLON_clean_sbu_0, # of connection points: 4
#     Node 1, Type 0, BuildingBlock: MUDLON_clean_sbu_0, # of connection points: 4
#     Node 2, Type 0, BuildingBlock: MUDLON_clean_sbu_0, # of connection points: 4
#     Node 3, Type 0, BuildingBlock: MUDLON_clean_sbu_0, # of connection points: 4
#     Node 4, Type 0, BuildingBlock: MUDLON_clean_sbu_0, # of connection points: 4
#     Node 5, Type 0, BuildingBlock: MUDLON_clean_sbu_0, # of connection points: 4
#     Node 6, Type 1, BuildingBlock: TAGTUT_clean_sbu_3, # of connection points: 8
#     Node 7, Type 1, BuildingBlock: TAGTUT_clean_sbu_3, # of connection points: 8
#     Node 8, Type 1, BuildingBlock: TAGTUT_clean_sbu_3, # of connection points: 8
#     Edge 9, Type (0, 1), BuildingBlock: XUDNAN_clean_linker_2, # of connection points: 2
#     Edge 10, Type (0, 1), BuildingBlock: XUDNAN_clean_linker_2, # of connection points: 2
#     Edge 11, Type (0, 1), BuildingBlock: XUDNAN_clean_linker_2, # of connection points: 2
#     Edge 12, Type (0, 1), BuildingBlock: XUDNAN_clean_linker_2, # of connection points: 2
#     Edge 13, Type (0, 1), BuildingBlock: XUDNAN_clean_linker_2, # of connection points: 2
#     Edge 14, Type (0, 1), BuildingBlock: XUDNAN_clean_linker_2, # of connection points: 2
#     Edge 15, Type (0, 1), BuildingBlock: XUDNAN_clean_linker_2, # of connection points: 2
#     Edge 16, Type (0, 1), BuildingBlock: XUDNAN_clean_linker_2, # of connection points: 2
#     Edge 17, Type (0, 1), BuildingBlock: XUDNAN_clean_linker_2, # of connection points: 2
#     Edge 18, Type (0, 1), BuildingBlock: XUDNAN_clean_linker_2, # of connection points: 2
#     Edge 19, Type (0, 1), BuildingBlock: XUDNAN_clean_linker_2, # of connection points: 2
#     Edge 20, Type (0, 1), BuildingBlock: XUDNAN_clean_linker_2, # of connection points: 2
#     Edge 21, Type (0, 1), BuildingBlock: XUDNAN_clean_linker_2, # of connection points: 2
#     Edge 22, Type (0, 1), BuildingBlock: XUDNAN_clean_linker_2, # of connection points: 2
#     Edge 23, Type (0, 1), BuildingBlock: XUDNAN_clean_linker_2, # of connection points: 2
#     Edge 24, Type (0, 1), BuildingBlock: XUDNAN_clean_linker_2, # of connection points: 2
#     Edge 25, Type (0, 1), BuildingBlock: XUDNAN_clean_linker_2, # of connection points: 2
#     Edge 26, Type (0, 1), BuildingBlock: XUDNAN_clean_linker_2, # of connection points: 2
#     Edge 27, Type (0, 1), BuildingBlock: XUDNAN_clean_linker_2, # of connection points: 2
#     Edge 28, Type (0, 1), BuildingBlock: XUDNAN_clean_linker_2, # of connection points: 2
#     Edge 29, Type (0, 1), BuildingBlock: XUDNAN_clean_linker_2, # of connection points: 2
#     Edge 30, Type (0, 1), BuildingBlock: XUDNAN_clean_linker_2, # of connection points: 2
#     Edge 31, Type (0, 1), BuildingBlock: XUDNAN_clean_linker_2, # of connection points: 2
#     Edge 32, Type (0, 1), BuildingBlock: XUDNAN_clean_linker_2, # of connection points: 2
# Relax obj value: 0.067
# Max RMSD: 0.128
# Mean RMSD: 0.104
data_MOF--net-csq--node1-MUDLON_clean_sbu_0--node2-TAGTUT_clean_sbu_3--edge1-XUDNAN_clean_linker_2
_symmetry_space_group_name_H-M    P1
_symmetry_Int_Tables_number       1
_symmetry_cell_setting            triclinic
loop_
_symmetry_equiv_pos_as_xyz
'x, y, z'
_cell_length_a     50.345641
_cell_length_b     49.464959
_cell_length_c     20.086612
_cell_angle_alpha  92.591924
_cell_angle_beta   92.394258
_cell_angle_gamma 119.93456
loop_
_atom_site_label
_atom_site_type_symbol
_atom_site_fract_x
_atom_site_fract_y
_atom_site_fract_z
_atom_type_partial_charge
Mg0 Mg 0.26212 0.48874 0.16733 0.0
C1 C 0.22041 0.47821 0.05851 0.0
O2 O 0.20862 0.45452 0.09625 0.0
C3 C 0.30482 0.49974 0.27727 0.0
O4 O 0.27769 0.47736 0.29168 0.0
C5 C 0.20238 0.46623 0.25027 0.0
O6 O 0.19245 0.43682 0.23079 0.0
O7 O 0.22823 0.48749 0.23359 0.0
O8 O 0.24754 0.5008 0.07478 0.0
O9 O 0.27037 0.45205 0.12744 0.0
C10 C 0.29521 0.46752 0.0985 0.0
O11 O 0.30669 0.49782 0.096 0.0
O12 O 0.30619 0.51467 0.2262 0.0
Mg13 Mg 0.76052 0.24335 0.11103 0.0
C14 C 0.80664 0.29354 0.03436 0.0
O15 O 0.80293 0.30967 0.08317 0.0
C16 C 0.75476 0.18922 0.1889 0.0
O17 O 0.77407 0.21148 0.23331 0.0
C18 C 0.77872 0.27593 0.2597 0.0
O19 O 0.75371 0.25264 0.28044 0.0
O20 O 0.78363 0.27644 0.19805 0.0
O21 O 0.79189 0.26378 0.03286 0.0
O22 O 0.71457 0.23182 0.07245 0.0
C23 C 0.7104 0.23009 0.0091 0.0
O24 O 0.73468 0.24337 0.97435 0.0
O25 O 0.7501 0.19652 0.13153 0.0
Mg26 Mg 0.54671 0.77245 0.07988 0.0
C27 C 0.52838 0.79412 0.21096 0.0
O28 O 0.50056 0.77314 0.1865 0.0
C29 C 0.52151 0.71857 0.96696 0.0
O30 O 0.49841 0.70705 0.00539 0.0
C31 C 0.56295 0.82065 0.96629 0.0
O32 O 0.57923 0.80788 0.94803 0.0
O33 O 0.54853 0.81229 0.01908 0.0
O34 O 0.55125 0.79966 0.17775 0.0
O35 O 0.54108 0.73076 0.13902 0.0
C36 C 0.55354 0.73188 0.19649 0.0
O37 O 0.57305 0.75923 0.2273 0.0
O38 O 0.54445 0.74548 0.98323 0.0
Mg39 Mg 0.81184 0.57228 0.11107 0.0
C40 C 0.75997 0.54788 0.99605 0.0
O41 O 0.77998 0.54621 0.95875 0.0
C42 C 0.87135 0.63502 0.11545 0.0
O43 O 0.88896 0.66438 0.10306 0.0
C44 C 0.77253 0.54472 0.22162 0.0
O45 O 0.75754 0.52387 0.17111 0.0
O46 O 0.79982 0.56631 0.21453 0.0
O47 O 0.76765 0.55798 0.0571 0.0
O48 O 0.83422 0.54857 0.06451 0.0
C49 C 0.84696 0.56133 0.01222 0.0
O50 O 0.84446 0.58512 0.99344 0.0
O51 O 0.84239 0.62206 0.10347 0.0
Mg52 Mg 0.23774 0.78855 0.09674 0.0
C53 C 0.22205 0.75165 0.9591 0.0
O54 O 0.24481 0.77764 0.9399 0.0
C55 C 0.30591 0.82636 0.12824 0.0
O56 O 0.30229 0.84241 0.08205 0.0
C57 C 0.20503 0.74783 0.20036 0.0
O58 O 0.21897 0.73479 0.1702 0.0
O59 O 0.20826 0.77321 0.17978 0.0
O60 O 0.2164 0.7498 0.02038 0.0
O61 O 0.24449 0.83055 0.05118 0.0
C62 C 0.23082 0.83063 0.99651 0.0
O63 O 0.20598 0.80482 0.97265 0.0
O64 O 0.28307 0.80023 0.14018 0.0
Mg65 Mg 0.46221 0.22465 0.21512 0.0
C66 C 0.41288 0.22224 0.31375 0.0
O67 O 0.38544 0.20621 0.33596 0.0
C68 C 0.48003 0.18264 0.13817 0.0
O69 O 0.5064 0.19929 0.17365 0.0
C70 C 0.47801 0.2577 0.08489 0.0
O71 O 0.48934 0.23908 0.07704 0.0
O72 O 0.46655 0.25857 0.14003 0.0
O73 O 0.42005 0.20919 0.26703 0.0
O74 O 0.50212 0.24355 0.28842 0.0
C75 C 0.51271 0.23518 0.33741 0.0
O76 O 0.53861 0.25673 0.36929 0.0
O77 O 0.45745 0.18617 0.15132 0.0
C78 C 0.05155 0.4873 0.50712 0.0
C79 C 0.05508 0.45386 0.749 0.0
C80 C 0.96072 0.43513 0.74573 0.0
Mg81 Mg 0.01558 0.52095 0.44654 0.0
Mg82 Mg 0.996 0.56373 0.54164 0.0
O83 O 0.99465 0.52543 0.52601 0.0
Mg84 Mg 0.01085 0.50835 0.59519 0.0
O85 O 0.0269 0.48922 0.65855 0.0
Mg86 Mg 0.00623 0.44513 0.6178 0.0
Mg87 Mg 0.02325 0.49398 0.75046 0.0
C88 C 0.96889 0.53191 0.67712 0.0
O89 O 0.04685 0.55641 0.64859 0.0
O90 O 0.98491 0.5349 0.38204 0.0
O91 O 0.04485 0.54473 0.75647 0.0
O92 O 0.05331 0.57306 0.45657 0.0
O93 O 0.96913 0.56021 0.45161 0.0
O94 O 0.04242 0.6008 0.52974 0.0
O95 O 0.97606 0.45867 0.54979 0.0
O96 O 0.97768 0.46928 0.44244 0.0
C97 C 0.96671 0.44994 0.48796 0.0
C98 C 0.96941 0.54873 0.39326 0.0
O99 O 0.97709 0.51124 0.66748 0.0
O100 O 0.04115 0.4402 0.69164 0.0
O101 O 0.97593 0.55429 0.63855 0.0
O102 O 0.96936 0.42681 0.69369 0.0
O103 O 0.05095 0.47446 0.7802 0.0
O104 O 0.97698 0.46242 0.77519 0.0
O105 O 0.04387 0.50809 0.51916 0.0
O106 O 0.04135 0.4631 0.5404 0.0
C107 C 0.06022 0.59898 0.48848 0.0
C108 C 0.05454 0.56456 0.71145 0.0
C109 C 0.48852 0.04258 0.50065 0.0
C110 C 0.58806 0.0399 0.43445 0.0
C111 C 0.54399 0.95143 0.52226 0.0
Mg112 Mg 0.44364 0.00832 0.61882 0.0
Mg113 Mg 0.46898 0.99143 0.75593 0.0
O114 O 0.46379 0.98645 0.66272 0.0
Mg115 Mg 0.50142 0.00296 0.61205 0.0
O116 O 0.5366 0.01911 0.55321 0.0
Mg117 Mg 0.51347 0.99428 0.46718 0.0
Mg118 Mg 0.57302 0.01941 0.57883 0.0
C119 C 0.50964 0.96013 0.72904 0.0
O120 O 0.53494 0.04072 0.69415 0.0
O121 O 0.40145 0.9787 0.68227 0.0
O122 O 0.58132 0.04626 0.67458 0.0
O123 O 0.46287 0.04828 0.7027 0.0
O124 O 0.42127 0.96931 0.77514 0.0
O125 O 0.48886 0.04 0.78412 0.0
O126 O 0.4711 0.9673 0.52745 0.0
O127 O 0.42777 0.96929 0.53386 0.0
C128 C 0.44343 0.95845 0.50612 0.0
C129 C 0.39844 0.96709 0.73954 0.0
O130 O 0.51321 0.96865 0.66852 0.0
O131 O 0.55924 0.02378 0.41542 0.0
O132 O 0.49545 0.96817 0.77005 0.0
O133 O 0.52686 0.95737 0.48438 0.0
O134 O 0.59816 0.04222 0.49529 0.0
O135 O 0.56335 0.97162 0.56708 0.0
O136 O 0.4877 0.03595 0.56205 0.0
O137 O 0.49855 0.03096 0.45672 0.0
C138 C 0.48001 0.05728 0.75725 0.0
C139 C 0.56398 0.05284 0.70897 0.0
C140 C 0.52692 0.54878 0.72505 0.0
C141 C 0.43533 0.44617 0.81394 0.0
C142 C 0.48387 0.40249 0.75482 0.0
Mg143 Mg 0.57335 0.55645 0.6055 0.0
Mg144 Mg 0.54412 0.50576 0.47692 0.0
O145 O 0.55246 0.51161 0.56902 0.0
Mg146 Mg 0.51761 0.49032 0.62771 0.0
O147 O 0.48454 0.47134 0.69191 0.0
Mg148 Mg 0.50987 0.4805 0.77847 0.0
Mg149 Mg 0.45139 0.43032 0.67361 0.0
C150 C 0.50966 0.43542 0.5164 0.0
O151 O 0.4798 0.48413 0.54989 0.0
O152 O 0.61449 0.56436 0.5391 0.0
O153 O 0.43758 0.43956 0.57461 0.0
O154 O 0.55334 0.57358 0.51948 0.0
O155 O 0.59078 0.52731 0.45417 0.0
O156 O 0.52643 0.53436 0.44207 0.0
O157 O 0.55164 0.49411 0.71269 0.0
O158 O 0.59218 0.53941 0.68948 0.0
C159 C 0.57975 0.51581 0.72485 0.0
C160 C 0.61519 0.54986 0.48465 0.0
O161 O 0.50886 0.44263 0.57854 0.0
O162 O 0.46405 0.46501 0.83136 0.0
O163 O 0.51879 0.45544 0.47193 0.0
O164 O 0.49953 0.42997 0.78391 0.0
O165 O 0.42591 0.43135 0.75607 0.0
O166 O 0.46593 0.39697 0.70244 0.0
O167 O 0.52919 0.53988 0.66576 0.0
O168 O 0.51898 0.53017 0.77197 0.0
C169 C 0.53621 0.56245 0.46487 0.0
C170 C 0.45137 0.46284 0.53802 0.0
H171 H 0.14725 0.42833 0.30361 0.0
H172 H 0.21215 0.52553 0.27511 0.0
H173 H 0.17836 0.54147 0.3284 0.0
H174 H 0.07773 0.43248 0.27482 0.0
H175 H 0.05816 0.40672 0.33884 0.0
H176 H 0.08673 0.4027 0.29533 0.0
H177 H 0.1169 0.40882 0.40817 0.0
H178 H 0.08824 0.41245 0.45191 0.0
H179 H 0.12806 0.44257 0.46518 0.0
H180 H 0.13733 0.54705 0.38731 0.0
H181 H 0.09535 0.54156 0.45622 0.0
H182 H 0.05834 0.44113 0.44656 0.0
C183 C 0.15433 0.45295 0.30838 0.0
C184 C 0.18238 0.47559 0.28497 0.0
C185 C 0.19083 0.50764 0.29272 0.0
C186 C 0.17168 0.51698 0.32258 0.0
C187 C 0.1441 0.49406 0.34471 0.0
C188 C 0.13559 0.46273 0.33849 0.0
C189 C 0.10558 0.44289 0.36945 0.0
C190 C 0.08058 0.41984 0.31643 0.0
C191 C 0.10997 0.42568 0.4271 0.0
C192 C 0.09879 0.46795 0.39484 0.0
C193 C 0.12097 0.49732 0.37938 0.0
C194 C 0.11978 0.52411 0.39953 0.0
C195 C 0.09578 0.52081 0.43829 0.0
C196 C 0.07366 0.49098 0.45696 0.0
C197 C 0.07494 0.4643 0.4333 0.0
H198 H 0.74756 0.17043 0.31638 0.0
H199 H 0.70844 0.13941 0.11188 0.0
H200 H 0.66277 0.09466 0.15209 0.0
H201 H 0.71456 0.09017 0.38011 0.0
H202 H 0.70823 0.1039 0.45922 0.0
H203 H 0.74006 0.12993 0.41328 0.0
H204 H 0.72049 0.16945 0.41716 0.0
H205 H 0.68829 0.14337 0.46169 0.0
H206 H 0.68191 0.157 0.38422 0.0
H207 H 0.61772 0.05885 0.21561 0.0
H208 H 0.57929 0.03141 0.29724 0.0
H209 H 0.64826 0.08565 0.45957 0.0
C210 C 0.72998 0.15359 0.27976 0.0
C211 C 0.73168 0.15849 0.21095 0.0
C212 C 0.70779 0.13614 0.16486 0.0
C213 C 0.68167 0.11064 0.18723 0.0
C214 C 0.67994 0.10754 0.25573 0.0
C215 C 0.70376 0.12803 0.30125 0.0
C216 C 0.69521 0.12111 0.37237 0.0
C217 C 0.71573 0.11064 0.40836 0.0
C218 C 0.69655 0.14941 0.41108 0.0
C219 C 0.66248 0.09433 0.35975 0.0
C220 C 0.6541 0.08668 0.29224 0.0
C221 C 0.62423 0.06419 0.26865 0.0
C222 C 0.60249 0.04891 0.31536 0.0
C223 C 0.61076 0.05619 0.38484 0.0
C224 C 0.64124 0.07917 0.40688 0.0
H225 H 0.57589 0.72558 0.31924 0.0
H226 H 0.51252 0.67155 0.14828 0.0
H227 H 0.49842 0.62285 0.20259 0.0
H228 H 0.60299 0.67253 0.34816 0.0
H229 H 0.60592 0.67863 0.43794 0.0
H230 H 0.60997 0.7093 0.387 0.0
H231 H 0.56627 0.71168 0.44578 0.0
H232 H 0.56194 0.6808 0.49658 0.0
H233 H 0.52934 0.67664 0.44662 0.0
H234 H 0.49259 0.57978 0.27323 0.0
H235 H 0.49724 0.54549 0.35228 0.0
H236 H 0.56373 0.62701 0.47906 0.0
C237 C 0.55893 0.70353 0.29326 0.0
C238 C 0.54529 0.70253 0.22931 0.0
C239 C 0.52332 0.67307 0.19716 0.0
C240 C 0.51505 0.64523 0.22777 0.0
C241 C 0.52886 0.64708 0.29077 0.0
C242 C 0.5504 0.67545 0.32313 0.0
C243 C 0.56258 0.67081 0.38956 0.0
C244 C 0.59743 0.68357 0.39069 0.0
C245 C 0.55455 0.68588 0.4481 0.0
C246 C 0.54486 0.63536 0.38904 0.0
C247 C 0.52536 0.62219 0.33178 0.0
C248 C 0.50756 0.58988 0.31852 0.0
C249 C 0.51025 0.57053 0.36408 0.0
C250 C 0.5305 0.58335 0.42265 0.0
C251 C 0.54761 0.61632 0.43555 0.0
H252 H 0.86124 0.60639 0.23159 0.0
H253 H 0.91443 0.62563 0.05827 0.0
H254 H 0.94032 0.5983 0.10415 0.0
H255 H 0.92226 0.62393 0.34646 0.0
H256 H 0.89991 0.59467 0.40239 0.0
H257 H 0.8819 0.6106 0.35063 0.0
H258 H 0.84168 0.55481 0.30171 0.0
H259 H 0.85963 0.53853 0.35297 0.0
H260 H 0.85435 0.5299 0.26364 0.0
H261 H 0.96258 0.57177 0.17262 0.0
H262 H 0.98405 0.55435 0.26299 0.0
H263 H 0.91928 0.55656 0.39579 0.0
C264 C 0.87769 0.60395 0.20266 0.0
C265 C 0.8854 0.61723 0.14082 0.0
C266 C 0.90809 0.61515 0.10546 0.0
C267 C 0.92269 0.59952 0.13093 0.0
C268 C 0.91479 0.58679 0.19253 0.0
C269 C 0.89307 0.58921 0.22832 0.0
C270 C 0.89157 0.57721 0.29692 0.0
C271 C 0.89939 0.60315 0.35234 0.0
C272 C 0.85993 0.54839 0.30421 0.0
C273 C 0.91641 0.56845 0.29493 0.0
C274 C 0.92891 0.5733 0.23363 0.0
C275 C 0.95283 0.56771 0.22066 0.0
C276 C 0.96481 0.55771 0.27222 0.0
C277 C 0.95336 0.55413 0.33639 0.0
C278 C 0.92847 0.55905 0.34721 0.0
H279 H 0.33451 0.88721 0.17365 0.0
H280 H 0.33578 0.80124 0.1974 0.0
H281 H 0.37683 0.82821 0.28947 0.0
H282 H 0.41648 0.94398 0.22133 0.0
H283 H 0.40719 0.9701 0.26666 0.0
H284 H 0.38277 0.9458 0.19498 0.0
H285 H 0.33593 0.92307 0.26725 0.0
H286 H 0.36016 0.94707 0.33906 0.0
H287 H 0.33747 0.90526 0.34259 0.0
H288 H 0.41628 0.8648 0.38319 0.0
H289 H 0.44447 0.90441 0.47832 0.0
H290 H 0.41127 0.96316 0.39982 0.0
C291 C 0.34415 0.87432 0.19674 0.0
C292 C 0.33268 0.84242 0.1775 0.0
C293 C 0.34477 0.82588 0.21086 0.0
C294 C 0.36808 0.84105 0.26293 0.0
C295 C 0.37847 0.87249 0.28166 0.0
C296 C 0.36653 0.88875 0.2499 0.0
C297 C 0.37805 0.92077 0.28492 0.0
C298 C 0.39727 0.9467 0.23924 0.0
C299 C 0.35131 0.92421 0.30994 0.0
C300 C 0.3979 0.91988 0.3423 0.0
C301 C 0.39871 0.8923 0.3386 0.0
C302 C 0.41569 0.88639 0.38653 0.0
C303 C 0.43162 0.90895 0.44023 0.0
C304 C 0.42958 0.93645 0.44635 0.0
C305 C 0.41286 0.9421 0.39637 0.0
H306 H 0.40566 0.25181 0.42501 0.0
H307 H 0.46682 0.26755 0.26726 0.0
H308 H 0.50204 0.32009 0.31705 0.0
H309 H 0.41212 0.32551 0.41972 0.0
H310 H 0.40977 0.33139 0.50802 0.0
H311 H 0.3919 0.29234 0.46853 0.0
H312 H 0.42298 0.27848 0.55278 0.0
H313 H 0.44064 0.31756 0.59248 0.0
H314 H 0.46427 0.30247 0.56216 0.0
H315 H 0.5286 0.3716 0.37587 0.0
H316 H 0.54212 0.42243 0.43156 0.0
H317 H 0.46243 0.37766 0.5479 0.0
C318 C 0.42683 0.26605 0.40175 0.0
C319 C 0.43425 0.25445 0.34377 0.0
C320 C 0.46146 0.27451 0.31364 0.0
C321 C 0.48158 0.30483 0.34146 0.0
C322 C 0.47383 0.31527 0.39881 0.0
C323 C 0.44686 0.29684 0.42814 0.0
C324 C 0.44211 0.31557 0.48378 0.0
C325 C 0.41221 0.31624 0.4691 0.0
C326 C 0.44254 0.30275 0.55184 0.0
C327 C 0.47025 0.34759 0.47951 0.0
C328 C 0.48847 0.3464 0.43106 0.0
C329 C 0.51471 0.37288 0.41424 0.0
C330 C 0.52211 0.40163 0.44601 0.0
C331 C 0.50323 0.40387 0.49372 0.0
C332 C 0.47743 0.37642 0.51231 0.0
H333 H 0.53301 0.85398 0.98941 0.0
H334 H 0.58519 0.83683 0.84353 0.0
H335 H 0.57784 0.87074 0.76763 0.0
H336 H 0.4775 0.85416 0.87278 0.0
H337 H 0.47546 0.88521 0.91849 0.0
H338 H 0.48535 0.8601 0.96227 0.0
H339 H 0.53567 0.90848 0.01347 0.0
H340 H 0.52587 0.93374 0.97002 0.0
H341 H 0.56214 0.93574 0.95904 0.0
H342 H 0.56252 0.90471 0.70441 0.0
H343 H 0.54293 0.93815 0.66286 0.0
H344 H 0.50259 0.93492 0.85101 0.0
C345 C 0.54308 0.8575 0.94171 0.0
C346 C 0.5597 0.84261 0.92269 0.0
C347 C 0.57243 0.84793 0.85962 0.0
C348 C 0.56833 0.86716 0.81592 0.0
C349 C 0.5516 0.88121 0.83589 0.0
C350 C 0.5394 0.87685 0.89753 0.0
C351 C 0.52235 0.89468 0.90677 0.0
C352 C 0.48814 0.87219 0.91558 0.0
C353 C 0.53742 0.91964 0.96582 0.0
C354 C 0.52673 0.90955 0.84063 0.0
C355 C 0.54354 0.90139 0.80027 0.0
C356 C 0.54966 0.91154 0.73604 0.0
C357 C 0.53849 0.93067 0.71273 0.0
C358 C 0.52159 0.9398 0.75346 0.0
C359 C 0.51571 0.92885 0.81837 0.0
H360 H 0.74126 0.54319 0.86431 0.0
H361 H 0.70821 0.5316 0.06289 0.0
H362 H 0.65628 0.51669 0.01427 0.0
H363 H 0.701 0.57945 0.80546 0.0
H364 H 0.69346 0.56152 0.7215 0.0
H365 H 0.72676 0.56784 0.77172 0.0
H366 H 0.70898 0.50882 0.75347 0.0
H367 H 0.67547 0.50232 0.70342 0.0
H368 H 0.67118 0.48014 0.77498 0.0
H369 H 0.60763 0.50409 0.94223 0.0
H370 H 0.56931 0.50117 0.85545 0.0
H371 H 0.63616 0.52454 0.70745 0.0
C372 C 0.72301 0.53708 0.89753 0.0
C373 C 0.72869 0.53828 0.96725 0.0
C374 C 0.70433 0.53076 0.00919 0.0
C375 C 0.67472 0.52208 0.98201 0.0
C376 C 0.66991 0.52127 0.91288 0.0
C377 C 0.69354 0.52889 0.8714 0.0
C378 C 0.68329 0.52881 0.79956 0.0
C379 C 0.70225 0.56134 0.77305 0.0
C380 C 0.68482 0.50351 0.75526 0.0
C381 C 0.6504 0.52059 0.80712 0.0
C382 C 0.64272 0.51557 0.87244 0.0
C383 C 0.61343 0.50793 0.89092 0.0
C384 C 0.59179 0.50618 0.84153 0.0
C385 C 0.59999 0.51275 0.77528 0.0
C386 C 0.62943 0.51951 0.75798 0.0
H387 H 0.17119 0.69655 0.98317 0.0
H388 H 0.22268 0.75012 0.82199 0.0
H389 H 0.18329 0.70987 0.73948 0.0
H390 H 0.14696 0.62078 0.90469 0.0
H391 H 0.10979 0.60314 0.9383 0.0
H392 H 0.14211 0.63637 0.98319 0.0
H393 H 0.11153 0.6658 0.98408 0.0
H394 H 0.07928 0.63281 0.93817 0.0
H395 H 0.0961 0.67093 0.90614 0.0
H396 H 0.13745 0.66282 0.67449 0.0
H397 H 0.09233 0.61178 0.63415 0.0
H398 H 0.07142 0.59092 0.83955 0.0
C399 C 0.17438 0.69985 0.93055 0.0
C400 C 0.2001 0.72651 0.90912 0.0
C401 C 0.20324 0.72983 0.83968 0.0
C402 C 0.18088 0.70719 0.79243 0.0
C403 C 0.1555 0.68146 0.81547 0.0
C404 C 0.15234 0.67766 0.88299 0.0
C405 C 0.12338 0.6478 0.89529 0.0
C406 C 0.13103 0.62572 0.93254 0.0
C407 C 0.10127 0.65477 0.93315 0.0
C408 C 0.11083 0.63508 0.82415 0.0
C409 C 0.12942 0.65484 0.77859 0.0
C410 C 0.1227 0.64725 0.70984 0.0
C411 C 0.09688 0.61828 0.68734 0.0
C412 C 0.07825 0.59725 0.73357 0.0
C413 C 0.08506 0.60636 0.80269 0.0
H414 H 0.51468 0.15662 0.10014 0.0
H415 H 0.44315 0.17503 0.0279 0.0
H416 H 0.44375 0.15405 0.91517 0.0
H417 H 0.55534 0.1717 0.94476 0.0
H418 H 0.56257 0.13973 0.95073 0.0
H419 H 0.56062 0.15995 0.02566 0.0
H420 H 0.5178 0.10831 0.06669 0.0
H421 H 0.52071 0.08757 0.99418 0.0
H422 H 0.48407 0.08342 0.01174 0.0
H423 H 0.44974 0.12921 0.8126 0.0
H424 H 0.45261 0.09189 0.73247 0.0
H425 H 0.51754 0.08583 0.87147 0.0
C426 C 0.49934 0.15635 0.06034 0.0
C427 C 0.47898 0.16749 0.07261 0.0
C428 C 0.45884 0.16642 0.01973 0.0
C429 C 0.45933 0.15502 0.95522 0.0
C430 C 0.47986 0.14449 0.94446 0.0
C431 C 0.49904 0.14438 0.99567 0.0
C432 C 0.516 0.12806 0.97212 0.0
C433 C 0.55069 0.15126 0.97346 0.0
C434 C 0.50921 0.10018 0.01361 0.0
C435 C 0.50194 0.11751 0.90096 0.0
C436 C 0.48222 0.12849 0.88528 0.0
C437 C 0.46525 0.12057 0.82394 0.0
C438 C 0.4671 0.09938 0.77865 0.0
C439 C 0.48514 0.08575 0.79594 0.0
C440 C 0.50377 0.09603 0.85664 0.0
H441 H 0.35644 0.49584 0.08955 0.0
H442 H 0.27195 0.4085 0.0354 0.0
H443 H 0.30064 0.39077 0.96504 0.0
H444 H 0.38412 0.50775 0.93552 0.0
H445 H 0.42408 0.52416 0.96311 0.0
H446 H 0.39832 0.52747 0.01777 0.0
H447 H 0.41288 0.50076 0.10903 0.0
H448 H 0.43914 0.49779 0.05492 0.0
H449 H 0.40954 0.46327 0.08879 0.0
H450 H 0.33691 0.38698 0.88691 0.0
H451 H 0.37793 0.39512 0.81358 0.0
H452 H 0.43906 0.48506 0.92093 0.0
C453 C 0.34409 0.47259 0.06429 0.0
C454 C 0.31201 0.45342 0.06771 0.0
C455 C 0.29658 0.42328 0.03394 0.0
C456 C 0.3127 0.41317 0.99377 0.0
C457 C 0.3442 0.43333 0.98923 0.0
C458 C 0.3598 0.4622 0.02466 0.0
C459 C 0.39301 0.4806 0.00761 0.0
C460 C 0.40028 0.51182 0.97931 0.0
C461 C 0.41494 0.4859 0.06873 0.0
C462 C 0.39346 0.45818 0.9546 0.0
C463 C 0.36518 0.43093 0.94514 0.0
C464 C 0.35927 0.40791 0.89491 0.0
C465 C 0.3827 0.41289 0.85319 0.0
C466 C 0.4118 0.4407 0.86174 0.0
C467 C 0.41729 0.46335 0.91392 0.0
H468 H 0.84952 0.35579 0.03614 0.0
H469 H 0.80848 0.26865 0.91115 0.0
H470 H 0.84048 0.2968 0.8202 0.0
H471 H 0.85692 0.40701 0.90448 0.0
H472 H 0.89353 0.43837 0.93999 0.0
H473 H 0.86598 0.41173 0.99354 0.0
H474 H 0.9067 0.3989 0.04187 0.0
H475 H 0.93422 0.42555 0.98842 0.0
H476 H 0.92538 0.38541 0.98569 0.0
H477 H 0.87715 0.33396 0.744 0.0
H478 H 0.91969 0.37638 0.69078 0.0
H479 H 0.9382 0.43954 0.86634 0.0
C480 C 0.84711 0.34265 0.98947 0.0
C481 C 0.8264 0.31003 0.98052 0.0
C482 C 0.82423 0.29361 0.9191 0.0
C483 C 0.84214 0.30944 0.86704 0.0
C484 C 0.86216 0.34162 0.87738 0.0
C485 C 0.86498 0.35802 0.93723 0.0
C486 C 0.88955 0.39218 0.93679 0.0
C487 C 0.87565 0.41357 0.94411 0.0
C488 C 0.9155 0.40101 0.99141 0.0
C489 C 0.90041 0.39233 0.86754 0.0
C490 C 0.88396 0.36301 0.83387 0.0
C491 C 0.89019 0.35701 0.76982 0.0
C492 C 0.91446 0.38136 0.74003 0.0
C493 C 0.93251 0.41135 0.77448 0.0
C494 C 0.92482 0.41698 0.83854 0.0
H495 H 0.88546 0.59284 0.91768 0.0
H496 H 0.84958 0.50676 0.01749 0.0
H497 H 0.87819 0.48972 0.94493 0.0
H498 H 0.88055 0.56071 0.75491 0.0
H499 H 0.91557 0.59376 0.73217 0.0
H500 H 0.8935 0.59919 0.7941 0.0
H501 H 0.94132 0.62463 0.87899 0.0
H502 H 0.96362 0.61942 0.81719 0.0
H503 H 0.96119 0.60368 0.89736 0.0
H504 H 0.9089 0.48135 0.85377 0.0
H505 H 0.93964 0.48352 0.75907 0.0
H506 H 0.95565 0.57625 0.72459 0.0
C507 C 0.88359 0.5704 0.92474 0.0
C508 C 0.86505 0.55099 0.97294 0.0
C509 C 0.86361 0.52198 0.98079 0.0
C510 C 0.87976 0.51214 0.93974 0.0
C511 C 0.89744 0.53178 0.89179 0.0
C512 C 0.89957 0.56045 0.88487 0.0
C513 C 0.91959 0.57732 0.82957 0.0
C514 C 0.9012 0.58306 0.77444 0.0
C515 C 0.94812 0.60808 0.85746 0.0
C516 C 0.92815 0.55354 0.80524 0.0
C517 C 0.9153 0.52738 0.84152 0.0
C518 C 0.91938 0.50197 0.82591 0.0
C519 C 0.93707 0.50347 0.77216 0.0
C520 C 0.95057 0.53022 0.73474 0.0
C521 C 0.9459 0.55547 0.75206 0.0
H522 H 0.28793 0.88223 0.02259 0.0
H523 H 0.21313 0.83566 0.86824 0.0
H524 H 0.2465 0.87103 0.78689 0.0
H525 H 0.32546 0.96241 0.95965 0.0
H526 H 0.36317 0.96842 0.98198 0.0
H527 H 0.33146 0.94446 0.03048 0.0
H528 H 0.34243 0.899 0.01156 0.0
H529 H 0.3737 0.92231 0.96194 0.0
H530 H 0.34279 0.88487 0.92743 0.0
H531 H 0.29078 0.90659 0.71856 0.0
H532 H 0.34114 0.9382 0.67123 0.0
H533 H 0.38663 0.95839 0.87025 0.0
C534 C 0.27814 0.88002 0.97228 0.0
C535 C 0.24781 0.85612 0.95203 0.0
C536 C 0.23618 0.85392 0.88527 0.0
C537 C 0.25502 0.87392 0.83859 0.0
C538 C 0.2854 0.89607 0.85946 0.0
C539 C 0.29673 0.89937 0.92506 0.0
C540 C 0.33099 0.92204 0.93357 0.0
C541 C 0.33818 0.95106 0.97911 0.0
C542 C 0.34848 0.90608 0.96014 0.0
C543 C 0.33745 0.93008 0.86209 0.0
C544 C 0.31087 0.91552 0.8201 0.0
C545 C 0.31165 0.91843 0.75122 0.0
C546 C 0.34033 0.93639 0.72472 0.0
C547 C 0.36782 0.95063 0.76693 0.0
C548 C 0.36607 0.94772 0.83652 0.0
H549 H 0.48414 0.31672 0.08381 0.0
H550 H 0.46886 0.23701 0.95414 0.0
H551 H 0.46814 0.26446 0.85507 0.0
H552 H 0.43788 0.33955 0.98263 0.0
H553 H 0.46443 0.38087 0.99911 0.0
H554 H 0.46172 0.35409 0.05993 0.0
H555 H 0.52022 0.37505 0.05843 0.0
H556 H 0.52304 0.40173 0.99731 0.0
H557 H 0.53633 0.37455 0.9802 0.0
H558 H 0.46799 0.30072 0.76852 0.0
H559 H 0.47197 0.34413 0.7038 0.0
H560 H 0.49177 0.40137 0.8893 0.0
C561 C 0.48027 0.30497 0.03457 0.0
C562 C 0.47628 0.27459 0.02682 0.0
C563 C 0.47194 0.26027 0.96139 0.0
C564 C 0.47143 0.27565 0.90467 0.0
C565 C 0.47581 0.30572 0.91372 0.0
C566 C 0.48043 0.32036 0.97705 0.0
C567 C 0.48617 0.35336 0.97274 0.0
C568 C 0.46105 0.35718 0.00554 0.0
C569 C 0.51835 0.3776 0.00402 0.0
C570 C 0.48397 0.35489 0.89747 0.0
C571 C 0.47757 0.32708 0.86408 0.0
C572 C 0.47332 0.32274 0.79424 0.0
C573 C 0.47563 0.34747 0.75775 0.0
C574 C 0.48276 0.37636 0.79109 0.0
C575 C 0.48704 0.37988 0.86191 0.0
H576 H 0.16019 0.45942 0.05729 0.0
H577 H 0.23647 0.49528 0.93089 0.0
H578 H 0.20053 0.48671 0.83272 0.0
H579 H 0.10314 0.39997 0.94142 0.0
H580 H 0.0727 0.40642 0.96684 0.0
H581 H 0.10427 0.41474 0.02584 0.0
H582 H 0.11596 0.47181 0.04858 0.0
H583 H 0.08392 0.46338 0.99119 0.0
H584 H 0.12158 0.49561 0.97929 0.0
H585 H 0.15459 0.47173 0.74786 0.0
H586 H 0.10601 0.46234 0.68931 0.0
H587 H 0.06161 0.4395 0.87497 0.0
C588 C 0.16938 0.46568 0.00894 0.0
C589 C 0.20097 0.47792 1.00121 0.0
C590 C 0.21231 0.48612 0.93761 0.0
C591 C 0.192 0.48095 0.88168 0.0
C592 C 0.16067 0.46795 0.89084 0.0
C593 C 0.14966 0.4612 0.9534 0.0
C594 C 0.11553 0.44932 0.95159 0.0
C595 C 0.09788 0.41561 0.97267 0.0
C596 C 0.10887 0.47135 0.99521 0.0
C597 C 0.10881 0.45052 0.87812 0.0
C598 C 0.1349 0.46059 0.84336 0.0
C599 C 0.1341 0.46379 0.77471 0.0
C600 C 0.10634 0.45799 0.74164 0.0
C601 C 0.08008 0.44967 0.77761 0.0
C602 C 0.08123 0.44519 0.84621 0.0
H603 H 0.69769 0.21481 0.87515 0.0
H604 H 0.6564 0.18971 0.06439 0.0
H605 H 0.61147 0.14295 0.0066 0.0
H606 H 0.62573 0.18453 0.7659 0.0
H607 H 0.64078 0.17088 0.70089 0.0
H608 H 0.66642 0.20489 0.75552 0.0
H609 H 0.69844 0.17876 0.78635 0.0
H610 H 0.67268 0.14451 0.73294 0.0
H611 H 0.67977 0.14093 0.8199 0.0
H612 H 0.57318 0.09544 0.92766 0.0
H613 H 0.54623 0.05311 0.83662 0.0
H614 H 0.61557 0.10881 0.70369 0.0
C615 C 0.67882 0.20013 0.90441 0.0
C616 C 0.68056 0.20617 0.97436 0.0
C617 C 0.65549 0.18585 0.01064 0.0
C618 C 0.62988 0.15915 0.97819 0.0
C619 C 0.62963 0.15317 0.90946 0.0
C620 C 0.65346 0.17334 0.8731 0.0
C621 C 0.64961 0.16043 0.80146 0.0
C622 C 0.64537 0.18143 0.7531 0.0
C623 C 0.67673 0.15589 0.78422 0.0
C624 C 0.62033 0.12942 0.80327 0.0
C625 C 0.60868 0.12572 0.86546 0.0
C626 C 0.582 0.09837 0.87869 0.0
C627 C 0.56685 0.07446 0.8269 0.0
C628 C 0.57897 0.07781 0.76357 0.0
C629 C 0.60597 0.10563 0.75193 0.0
H630 H 0.48356 0.65593 0.93853 0.0
H631 H 0.56335 0.73654 0.87125 0.0
H632 H 0.56954 0.70198 0.78826 0.0
H633 H 0.5141 0.60823 0.93832 0.0
H634 H 0.47903 0.57263 0.91083 0.0
H635 H 0.47736 0.60407 0.95492 0.0
H636 H 0.44254 0.60488 0.85711 0.0
H637 H 0.44398 0.57317 0.81281 0.0
H638 H 0.45515 0.60902 0.77358 0.0
H639 H 0.57046 0.6573 0.7216 0.0
H640 H 0.56704 0.60701 0.68317 0.0
H641 H 0.48811 0.55724 0.7989 0.0
C642 C 0.50178 0.66648 0.90501 0.0
C643 C 0.52283 0.6989 0.91104 0.0
C644 C 0.54683 0.7117 0.86724 0.0
C645 C 0.55046 0.69228 0.81976 0.0
C646 C 0.52984 0.66018 0.8166 0.0
C647 C 0.50587 0.64746 0.85803 0.0
C648 C 0.48896 0.61217 0.85073 0.0
C649 C 0.48996 0.59851 0.91764 0.0
C650 C 0.45569 0.59905 0.82181 0.0
C651 C 0.50793 0.60697 0.80098 0.0
C652 C 0.53097 0.63476 0.78031 0.0
C653 C 0.55226 0.63539 0.73687 0.0
C654 C 0.55022 0.60686 0.71529 0.0
C655 C 0.52754 0.57855 0.73874 0.0
C656 C 0.50584 0.5787 0.78065 0.0
H657 H 0.52922 0.21597 0.449 0.0
H658 H 0.46327 0.18047 0.27658 0.0
H659 H 0.4455 0.1263 0.30658 0.0
H660 H 0.55136 0.16043 0.44062 0.0
H661 H 0.55453 0.15783 0.52954 0.0
H662 H 0.55959 0.19334 0.49762 0.0
H663 H 0.51674 0.19064 0.56896 0.0
H664 H 0.51152 0.155 0.6012 0.0
H665 H 0.47929 0.15589 0.5611 0.0
H666 H 0.4411 0.07595 0.34716 0.0
H667 H 0.44767 0.03475 0.39814 0.0
H668 H 0.51306 0.10335 0.54993 0.0
C669 C 0.51064 0.19692 0.41785 0.0
C670 C 0.49815 0.20261 0.35909 0.0
C671 C 0.47371 0.17684 0.32066 0.0
C672 C 0.46333 0.14595 0.3378 0.0
C673 C 0.477 0.14124 0.39484 0.0
C674 C 0.49971 0.16617 0.43503 0.0
C675 C 0.51164 0.15514 0.49224 0.0
C676 C 0.54632 0.16741 0.4898 0.0
C677 C 0.50436 0.16474 0.55988 0.0
C678 C 0.49302 0.12002 0.47673 0.0
C679 C 0.47306 0.11239 0.42041 0.0
C680 C 0.45595 0.08164 0.39232 0.0
C681 C 0.45976 0.05837 0.42163 0.0
C682 C 0.48009 0.06576 0.47914 0.0
C683 C 0.49641 0.09688 0.5077 0.0
H684 H 0.3082 0.47455 0.39293 0.0
H685 H 0.36365 0.52735 0.23543 0.0
H686 H 0.40688 0.52184 0.28243 0.0
H687 H 0.3698 0.50508 0.52554 0.0
H688 H 0.35423 0.468 0.56199 0.0
H689 H 0.32894 0.47812 0.51776 0.0
H690 H 0.30715 0.4269 0.44121 0.0
H691 H 0.33286 0.41697 0.48423 0.0
H692 H 0.333 0.41935 0.39496 0.0
H693 H 0.4428 0.50738 0.34374 0.0
H694 H 0.47065 0.49085 0.42132 0.0
H695 H 0.39089 0.44704 0.53696 0.0
C696 C 0.3296 0.48547 0.36883 0.0
C697 C 0.33259 0.50159 0.31069 0.0
C698 C 0.36094 0.5153 0.28054 0.0
C699 C 0.3855 0.512 0.30653 0.0
C700 C 0.38131 0.49499 0.36268 0.0
C701 C 0.35417 0.48235 0.39394 0.0
C702 C 0.35519 0.46482 0.45304 0.0
C703 C 0.35185 0.47992 0.51845 0.0
C704 C 0.33059 0.42995 0.4427 0.0
C705 C 0.38717 0.46946 0.45036 0.0
C706 C 0.40186 0.4868 0.39776 0.0
C707 C 0.4317 0.4942 0.3856 0.0
C708 C 0.44731 0.4847 0.42982 0.0
C709 C 0.43307 0.46786 0.48535 0.0
C710 C 0.40231 0.45954 0.49453 0.0
H711 H 0.83264 0.3264 0.23045 0.0
H712 H 0.78169 0.27863 0.39773 0.0
H713 H 0.8257 0.31601 0.47588 0.0
H714 H 0.90624 0.34179 0.29605 0.0
H715 H 0.92662 0.37956 0.26269 0.0
H716 H 0.89102 0.34932 0.22077 0.0
H717 H 0.86816 0.38601 0.22795 0.0
H718 H 0.90381 0.41652 0.26893 0.0
H719 H 0.86835 0.40414 0.30803 0.0
H720 H 0.87659 0.35956 0.53555 0.0
H721 H 0.92684 0.4067 0.5702 0.0
H722 H 0.94328 0.42365 0.36168 0.0
C723 C 0.8305 0.32374 0.28351 0.0
C724 C 0.80361 0.29952 0.30788 0.0
C725 C 0.80198 0.29707 0.37781 0.0
C726 C 0.82695 0.31808 0.42254 0.0
C727 C 0.85335 0.34133 0.39649 0.0
C728 C 0.85507 0.34429 0.32849 0.0
C729 C 0.88562 0.3713 0.31248 0.0
C730 C 0.90342 0.35979 0.27053 0.0
C731 C 0.88121 0.39595 0.27731 0.0
C732 C 0.90091 0.38339 0.38214 0.0
C733 C 0.88217 0.36581 0.43017 0.0
C734 C 0.89142 0.37338 0.49821 0.0
C735 C 0.92011 0.4001 0.51744 0.0
C736 C 0.93911 0.41895 0.46875 0.0
C737 C 0.92947 0.40982 0.40033 0.0
H738 H 0.48765 0.8063 0.27203 0.0
H739 H 0.58061 0.82256 0.29465 0.0
H740 H 0.59063 0.85638 0.39764 0.0
H741 H 0.50689 0.88142 0.30813 0.0
H742 H 0.47353 0.87361 0.35191 0.0
H743 H 0.47133 0.84493 0.29062 0.0
H744 H 0.45299 0.80383 0.37899 0.0
H745 H 0.45541 0.83273 0.44079 0.0
H746 H 0.47588 0.81214 0.45666 0.0
H747 H 0.59345 0.89481 0.48619 0.0
H748 H 0.59054 0.93846 0.54336 0.0
H749 H 0.49619 0.89807 0.46229 0.0
C750 C 0.50974 0.81615 0.30002 0.0
C751 C 0.53327 0.81168 0.2759 0.0
C752 C 0.56225 0.8257 0.3125 0.0
C753 C 0.56804 0.84466 0.37143 0.0
C754 C 0.54461 0.84935 0.39313 0.0
C755 C 0.51601 0.83552 0.35838 0.0
C756 C 0.49651 0.84824 0.38554 0.0
C757 C 0.48652 0.86293 0.33082 0.0
C758 C 0.46854 0.8227 0.41741 0.0
C759 C 0.51925 0.87271 0.43809 0.0
C760 C 0.54649 0.87228 0.44348 0.0
C761 C 0.57202 0.89498 0.48352 0.0
C762 C 0.57016 0.91965 0.51606 0.0
C763 C 0.54319 0.92159 0.50694 0.0
C764 C 0.51703 0.89698 0.4704 0.0
H765 H 0.71068 0.51847 0.22104 0.0
H766 H 0.79484 0.58003 0.34295 0.0
H767 H 0.76452 0.58979 0.42553 0.0
H768 H 0.67722 0.56579 0.24388 0.0
H769 H 0.63863 0.53312 0.24305 0.0
H770 H 0.66687 0.52934 0.19785 0.0
H771 H 0.65732 0.48137 0.2624 0.0
H772 H 0.62869 0.48468 0.30698 0.0
H773 H 0.6604 0.48487 0.35251 0.0
H774 H 0.7227 0.59253 0.49467 0.0
H775 H 0.67532 0.58731 0.54062 0.0
H776 H 0.62177 0.52738 0.36453 0.0
C777 C 0.72286 0.53351 0.26571 0.0
C778 C 0.75511 0.54808 0.27604 0.0
C779 C 0.77006 0.56832 0.33441 0.0
C780 C 0.75303 0.57409 0.38136 0.0
C781 C 0.72119 0.55983 0.36854 0.0
C782 C 0.70646 0.54 0.31178 0.0
C783 C 0.67248 0.52862 0.30657 0.0
C784 C 0.66328 0.5399 0.24415 0.0
C785 C 0.65362 0.49277 0.3072 0.0
C786 C 0.67004 0.54464 0.36978 0.0
C787 C 0.69813 0.56255 0.40546 0.0
C788 C 0.70066 0.57866 0.46669 0.0
C789 C 0.67368 0.57575 0.49229 0.0
C790 C 0.64469 0.55698 0.45641 0.0
C791 C 0.64337 0.54193 0.39379 0.0
H792 H 0.18749 0.68953 0.23931 0.0
H793 H 0.17857 0.77096 0.28669 0.0
H794 H 0.14569 0.7439 0.37788 0.0
H795 H 0.11118 0.63384 0.25964 0.0
H796 H 0.12006 0.60598 0.29397 0.0
H797 H 0.14533 0.63325 0.23832 0.0
H798 H 0.19085 0.65251 0.32806 0.0
H799 H 0.16549 0.62542 0.38424 0.0
H800 H 0.18794 0.66655 0.41029 0.0
H801 H 0.11097 0.70604 0.45968 0.0
H802 H 0.07395 0.65984 0.51553 0.0
H803 H 0.10582 0.60362 0.41202 0.0
C804 C 0.17905 0.70197 0.26939 0.0
C805 C 0.1858 0.73249 0.25613 0.0
C806 C 0.17378 0.74761 0.29605 0.0
C807 C 0.15525 0.73249 0.3482 0.0
C808 C 0.14902 0.7023 0.35975 0.0
C809 C 0.16048 0.68721 0.32105 0.0
C810 C 0.14847 0.65393 0.33938 0.0
C811 C 0.13017 0.63038 0.27927 0.0
C812 C 0.17476 0.64935 0.36716 0.0
C813 C 0.12778 0.65227 0.39342 0.0
C814 C 0.12877 0.68051 0.4055 0.0
C815 C 0.11025 0.68393 0.45096 0.0
C816 C 0.08938 0.65755 0.48278 0.0
C817 C 0.0869 0.62801 0.46823 0.0
C818 C 0.10719 0.62583 0.42465 0.0
loop_
_geom_bond_atom_site_label_1
_geom_bond_atom_site_label_2
_geom_bond_distance
_geom_bond_site_symmetry_2
_ccdc_geom_bond_type
Mg0 O7 2.141 . S
Mg0 O8 2.048 . S
Mg0 O9 2.048 . S
Mg0 O12 2.141 . S
C1 O2 1.313 . S
C1 O8 1.195 . S
O2 C1 1.313 . S
C3 O4 1.245 . S
C3 O12 1.289 . S
O4 C3 1.245 . S
C5 O6 1.245 . S
C5 O7 1.289 . S
O6 C5 1.245 . S
O7 Mg0 2.141 . S
O7 C5 1.289 . S
O8 Mg0 2.048 . S
O8 C1 1.195 . S
O9 Mg0 2.048 . S
O9 C10 1.195 . S
C10 O9 1.195 . S
C10 O11 1.313 . S
O11 C10 1.313 . S
O12 Mg0 2.141 . S
O12 C3 1.289 . S
Mg13 O20 2.141 . S
Mg13 O21 2.048 . S
Mg13 O22 2.048 . S
Mg13 O25 2.141 . S
C14 O15 1.313 . S
C14 O21 1.195 . S
O15 C14 1.313 . S
C16 O17 1.245 . S
C16 O25 1.289 . S
O17 C16 1.245 . S
C18 O19 1.245 . S
C18 O20 1.289 . S
O19 C18 1.245 . S
O20 Mg13 2.141 . S
O20 C18 1.289 . S
O21 Mg13 2.048 . S
O21 C14 1.195 . S
O22 Mg13 2.048 . S
O22 C23 1.197 . S
C23 O22 1.197 . S
C23 O24 1.313 1_554 S
O24 C23 1.313 1_556 S
O25 Mg13 2.141 . S
O25 C16 1.289 . S
Mg26 O33 2.141 1_554 S
Mg26 O34 2.048 . S
Mg26 O35 2.048 . S
Mg26 O38 2.141 1_554 S
C27 O28 1.313 . S
C27 O34 1.195 . S
O28 C27 1.313 . S
C29 O30 1.245 . S
C29 O38 1.289 . S
O30 C29 1.245 . S
C31 O32 1.245 . S
C31 O33 1.289 . S
O32 C31 1.245 . S
O33 Mg26 2.141 1_556 S
O33 C31 1.289 . S
O34 Mg26 2.048 . S
O34 C27 1.195 . S
O35 Mg26 2.048 . S
O35 C36 1.195 . S
C36 O35 1.195 . S
C36 O37 1.313 . S
O37 C36 1.313 . S
O38 Mg26 2.141 1_556 S
O38 C29 1.289 . S
Mg39 O46 2.141 . S
Mg39 O47 2.048 1_554 S
Mg39 O48 2.048 1_554 S
Mg39 O51 2.141 . S
C40 O41 1.313 . S
C40 O47 1.195 . S
O41 C40 1.313 . S
C42 O43 1.245 . S
C42 O51 1.289 . S
O43 C42 1.245 . S
C44 O45 1.245 . S
C44 O46 1.289 . S
O45 C44 1.245 . S
O46 Mg39 2.141 . S
O46 C44 1.289 . S
O47 Mg39 2.048 1_556 S
O47 C40 1.195 . S
O48 Mg39 2.048 1_556 S
O48 C49 1.195 . S
C49 O48 1.195 . S
C49 O50 1.313 . S
O50 C49 1.313 . S
O51 Mg39 2.141 . S
O51 C42 1.289 . S
Mg52 O59 2.141 . S
Mg52 O60 2.048 . S
Mg52 O61 2.048 . S
Mg52 O64 2.141 . S
C53 O54 1.313 . S
C53 O60 1.195 . S
O54 C53 1.313 . S
C55 O56 1.245 . S
C55 O64 1.289 . S
O56 C55 1.245 . S
C57 O58 1.245 . S
C57 O59 1.289 . S
O58 C57 1.245 . S
O59 Mg52 2.141 . S
O59 C57 1.289 . S
O60 Mg52 2.048 . S
O60 C53 1.195 . S
O61 Mg52 2.048 . S
O61 C62 1.195 . S
C62 O61 1.195 . S
C62 O63 1.313 . S
O63 C62 1.313 . S
O64 Mg52 2.141 . S
O64 C55 1.289 . S
Mg65 O72 2.141 . S
Mg65 O73 2.048 . S
Mg65 O74 2.048 . S
Mg65 O77 2.141 . S
C66 O67 1.313 . S
C66 O73 1.195 . S
O67 C66 1.313 . S
C68 O69 1.245 . S
C68 O77 1.289 . S
O69 C68 1.245 . S
C70 O71 1.245 . S
C70 O72 1.289 . S
O71 C70 1.245 . S
O72 Mg65 2.141 . S
O72 C70 1.289 . S
O73 Mg65 2.048 . S
O73 C66 1.195 . S
O74 Mg65 2.048 . S
O74 C75 1.195 . S
C75 O74 1.195 . S
C75 O76 1.313 . S
O76 C75 1.313 . S
O77 Mg65 2.141 . S
O77 C68 1.289 . S
C78 O105 1.312 . S
C78 O106 1.208 . S
C79 O100 1.331 . S
C79 O103 1.244 . S
C80 O102 1.264 . S
C80 O104 1.273 . S
Mg81 O83 1.936 1_455 S
Mg81 O90 2.081 1_455 S
Mg81 O92 2.023 . S
Mg81 O96 2.031 1_455 S
Mg81 O105 2.291 . S
Mg82 O83 1.963 . S
Mg82 O93 1.942 . S
Mg82 O94 1.955 1_655 S
Mg82 O101 1.986 . S
O83 Mg81 1.936 1_655 S
O83 Mg82 1.963 . S
O83 Mg84 1.915 1_655 S
Mg84 O83 1.915 1_455 S
Mg84 O85 1.915 . S
Mg84 O89 2.013 . S
Mg84 O95 2.114 1_455 S
Mg84 O99 2.013 1_455 S
Mg84 O105 2.114 . S
O85 Mg84 1.915 . S
O85 Mg86 1.936 . S
O85 Mg87 1.963 . S
Mg86 O85 1.936 . S
Mg86 O95 2.291 1_455 S
Mg86 O100 2.081 . S
Mg86 O102 2.023 1_455 S
Mg86 O106 2.031 . S
Mg87 O85 1.963 . S
Mg87 O91 1.986 . S
Mg87 O103 1.942 . S
Mg87 O104 1.955 1_455 S
C88 O99 1.191 . S
C88 O101 1.307 . S
O89 Mg84 2.013 . S
O89 C108 1.191 . S
O90 Mg81 2.081 1_655 S
O90 C98 1.331 . S
O91 Mg87 1.986 . S
O91 C108 1.307 . S
O92 Mg81 2.023 . S
O92 C107 1.264 . S
O93 Mg82 1.942 . S
O93 C98 1.244 . S
O94 Mg82 1.955 1_455 S
O94 C107 1.273 . S
O95 Mg84 2.114 1_655 S
O95 Mg86 2.291 1_655 S
O95 C97 1.312 . S
O96 Mg81 2.031 1_655 S
O96 C97 1.208 . S
C97 O95 1.312 . S
C97 O96 1.208 . S
C98 O90 1.331 . S
C98 O93 1.244 . S
O99 Mg84 2.013 1_655 S
O99 C88 1.191 . S
O100 C79 1.331 . S
O100 Mg86 2.081 . S
O101 Mg82 1.986 . S
O101 C88 1.307 . S
O102 C80 1.264 . S
O102 Mg86 2.023 1_655 S
O103 C79 1.244 . S
O103 Mg87 1.942 . S
O104 C80 1.273 . S
O104 Mg87 1.955 1_655 S
O105 C78 1.312 . S
O105 Mg81 2.291 . S
O105 Mg84 2.114 . S
O106 C78 1.208 . S
O106 Mg86 2.031 . S
C107 O92 1.264 . S
C107 O94 1.273 . S
C108 O89 1.191 . S
C108 O91 1.307 . S
C109 O136 1.312 . S
C109 O137 1.208 . S
C110 O131 1.331 . S
C110 O134 1.244 . S
C111 O133 1.264 . S
C111 O135 1.273 . S
Mg112 O114 1.936 1_545 S
Mg112 O121 2.081 1_545 S
Mg112 O123 2.023 . S
Mg112 O127 2.031 1_545 S
Mg112 O136 2.291 . S
Mg113 O114 1.963 . S
Mg113 O124 1.942 . S
Mg113 O125 1.955 1_565 S
Mg113 O132 1.986 . S
O114 Mg112 1.936 1_565 S
O114 Mg113 1.963 . S
O114 Mg115 1.915 1_565 S
Mg115 O114 1.915 1_545 S
Mg115 O116 1.915 . S
Mg115 O120 2.013 . S
Mg115 O126 2.114 1_545 S
Mg115 O130 2.013 1_545 S
Mg115 O136 2.114 . S
O116 Mg115 1.915 . S
O116 Mg117 1.936 . S
O116 Mg118 1.963 . S
Mg117 O116 1.936 . S
Mg117 O126 2.291 1_545 S
Mg117 O131 2.081 . S
Mg117 O133 2.023 1_545 S
Mg117 O137 2.031 . S
Mg118 O116 1.963 . S
Mg118 O122 1.986 . S
Mg118 O134 1.942 . S
Mg118 O135 1.955 1_545 S
C119 O130 1.191 . S
C119 O132 1.307 . S
O120 Mg115 2.013 . S
O120 C139 1.191 . S
O121 Mg112 2.081 1_565 S
O121 C129 1.331 . S
O122 Mg118 1.986 . S
O122 C139 1.307 . S
O123 Mg112 2.023 . S
O123 C138 1.264 . S
O124 Mg113 1.942 . S
O124 C129 1.244 . S
O125 Mg113 1.955 1_545 S
O125 C138 1.273 . S
O126 Mg115 2.114 1_565 S
O126 Mg117 2.291 1_565 S
O126 C128 1.312 . S
O127 Mg112 2.031 1_565 S
O127 C128 1.208 . S
C128 O126 1.312 . S
C128 O127 1.208 . S
C129 O121 1.331 . S
C129 O124 1.244 . S
O130 Mg115 2.013 1_565 S
O130 C119 1.191 . S
O131 C110 1.331 . S
O131 Mg117 2.081 . S
O132 Mg113 1.986 . S
O132 C119 1.307 . S
O133 C111 1.264 . S
O133 Mg117 2.023 1_565 S
O134 C110 1.244 . S
O134 Mg118 1.942 . S
O135 C111 1.273 . S
O135 Mg118 1.955 1_565 S
O136 C109 1.312 . S
O136 Mg112 2.291 . S
O136 Mg115 2.114 . S
O137 C109 1.208 . S
O137 Mg117 2.031 . S
C138 O123 1.264 . S
C138 O125 1.273 . S
C139 O120 1.191 . S
C139 O122 1.307 . S
C140 O167 1.312 . S
C140 O168 1.208 . S
C141 O162 1.331 . S
C141 O165 1.244 . S
C142 O164 1.264 . S
C142 O166 1.273 . S
Mg143 O145 1.936 . S
Mg143 O152 2.081 . S
Mg143 O154 2.023 . S
Mg143 O158 2.031 . S
Mg143 O167 2.291 . S
Mg144 O145 1.963 . S
Mg144 O155 1.942 . S
Mg144 O156 1.955 . S
Mg144 O163 1.986 . S
O145 Mg143 1.936 . S
O145 Mg144 1.963 . S
O145 Mg146 1.915 . S
Mg146 O145 1.915 . S
Mg146 O147 1.915 . S
Mg146 O151 2.013 . S
Mg146 O157 2.114 . S
Mg146 O161 2.013 . S
Mg146 O167 2.114 . S
O147 Mg146 1.915 . S
O147 Mg148 1.936 . S
O147 Mg149 1.963 . S
Mg148 O147 1.936 . S
Mg148 O157 2.291 . S
Mg148 O162 2.081 . S
Mg148 O164 2.023 . S
Mg148 O168 2.031 . S
Mg149 O147 1.963 . S
Mg149 O153 1.986 . S
Mg149 O165 1.942 . S
Mg149 O166 1.955 . S
C150 O161 1.191 . S
C150 O163 1.307 . S
O151 Mg146 2.013 . S
O151 C170 1.191 . S
O152 Mg143 2.081 . S
O152 C160 1.331 . S
O153 Mg149 1.986 . S
O153 C170 1.307 . S
O154 Mg143 2.023 . S
O154 C169 1.264 . S
O155 Mg144 1.942 . S
O155 C160 1.244 . S
O156 Mg144 1.955 . S
O156 C169 1.273 . S
O157 Mg146 2.114 . S
O157 Mg148 2.291 . S
O157 C159 1.312 . S
O158 Mg143 2.031 . S
O158 C159 1.208 . S
C159 O157 1.312 . S
C159 O158 1.208 . S
C160 O152 1.331 . S
C160 O155 1.244 . S
O161 Mg146 2.013 . S
O161 C150 1.191 . S
O162 C141 1.331 . S
O162 Mg148 2.081 . S
O163 Mg144 1.986 . S
O163 C150 1.307 . S
O164 C142 1.264 . S
O164 Mg148 2.023 . S
O165 C141 1.244 . S
O165 Mg149 1.942 . S
O166 C142 1.273 . S
O166 Mg149 1.955 . S
O167 C140 1.312 . S
O167 Mg143 2.291 . S
O167 Mg146 2.114 . S
O168 C140 1.208 . S
O168 Mg148 2.031 . S
C169 O154 1.264 . S
C169 O156 1.273 . S
C170 O151 1.191 . S
C170 O153 1.307 . S
H171 C183 0.930 . S
H172 C185 0.930 . S
H173 C186 0.930 . S
H174 C190 0.959 . S
H175 C190 0.959 . S
H176 C190 0.961 . S
H177 C191 0.960 . S
H178 C191 0.961 . S
H179 C191 0.959 . S
H180 C194 0.929 . S
H181 C195 0.931 . S
H182 C197 0.930 . S
C183 H171 0.930 . S
C183 C184 1.399 . S
C183 C188 1.399 . S
C184 C183 1.399 . S
C184 C185 1.376 . S
C185 H172 0.930 . S
C185 C184 1.376 . S
C185 C186 1.388 . S
C186 H173 0.930 . S
C186 C185 1.388 . S
C186 C187 1.390 . S
C187 C186 1.390 . S
C187 C188 1.394 . S
C187 C193 1.465 . S
C188 C183 1.399 . S
C188 C187 1.394 . S
C188 C189 1.516 . S
C189 C188 1.516 . S
C189 C190 1.502 . S
C189 C191 1.561 . S
C189 C192 1.526 . S
C190 H174 0.959 . S
C190 H175 0.959 . S
C190 H176 0.961 . S
C190 C189 1.502 . S
C191 H177 0.960 . S
C191 H178 0.961 . S
C191 H179 0.959 . S
C191 C189 1.561 . S
C192 C189 1.526 . S
C192 C193 1.396 . S
C192 C197 1.390 . S
C193 C187 1.465 . S
C193 C192 1.396 . S
C193 C194 1.399 . S
C194 H180 0.929 . S
C194 C193 1.399 . S
C194 C195 1.385 . S
C195 H181 0.931 . S
C195 C194 1.385 . S
C195 C196 1.389 . S
C196 C195 1.389 . S
C196 C197 1.387 . S
C197 H182 0.930 . S
C197 C192 1.390 . S
C197 C196 1.387 . S
H198 C210 0.930 . S
H199 C212 0.930 . S
H200 C213 0.930 . S
H201 C217 0.959 . S
H202 C217 0.959 . S
H203 C217 0.961 . S
H204 C218 0.960 . S
H205 C218 0.961 . S
H206 C218 0.959 . S
H207 C221 0.929 . S
H208 C222 0.931 . S
H209 C224 0.930 . S
C210 H198 0.930 . S
C210 C211 1.399 . S
C210 C215 1.399 . S
C211 C210 1.399 . S
C211 C212 1.376 . S
C212 H199 0.930 . S
C212 C211 1.376 . S
C212 C213 1.388 . S
C213 H200 0.930 . S
C213 C212 1.388 . S
C213 C214 1.390 . S
C214 C213 1.390 . S
C214 C215 1.394 . S
C214 C220 1.465 . S
C215 C210 1.399 . S
C215 C214 1.394 . S
C215 C216 1.516 . S
C216 C215 1.516 . S
C216 C217 1.502 . S
C216 C218 1.561 . S
C216 C219 1.526 . S
C217 H201 0.959 . S
C217 H202 0.959 . S
C217 H203 0.961 . S
C217 C216 1.502 . S
C218 H204 0.960 . S
C218 H205 0.961 . S
C218 H206 0.959 . S
C218 C216 1.561 . S
C219 C216 1.526 . S
C219 C220 1.396 . S
C219 C224 1.390 . S
C220 C214 1.465 . S
C220 C219 1.396 . S
C220 C221 1.399 . S
C221 H207 0.929 . S
C221 C220 1.399 . S
C221 C222 1.385 . S
C222 H208 0.931 . S
C222 C221 1.385 . S
C222 C223 1.389 . S
C223 C222 1.389 . S
C223 C224 1.387 . S
C224 H209 0.930 . S
C224 C219 1.390 . S
C224 C223 1.387 . S
H225 C237 0.930 . S
H226 C239 0.930 . S
H227 C240 0.930 . S
H228 C244 0.959 . S
H229 C244 0.959 . S
H230 C244 0.961 . S
H231 C245 0.960 . S
H232 C245 0.961 . S
H233 C245 0.959 . S
H234 C248 0.929 . S
H235 C249 0.931 . S
H236 C251 0.930 . S
C237 H225 0.930 . S
C237 C238 1.399 . S
C237 C242 1.399 . S
C238 C237 1.399 . S
C238 C239 1.376 . S
C239 H226 0.930 . S
C239 C238 1.376 . S
C239 C240 1.388 . S
C240 H227 0.930 . S
C240 C239 1.388 . S
C240 C241 1.390 . S
C241 C240 1.390 . S
C241 C242 1.394 . S
C241 C247 1.465 . S
C242 C237 1.399 . S
C242 C241 1.394 . S
C242 C243 1.516 . S
C243 C242 1.516 . S
C243 C244 1.502 . S
C243 C245 1.561 . S
C243 C246 1.526 . S
C244 H228 0.959 . S
C244 H229 0.959 . S
C244 H230 0.961 . S
C244 C243 1.502 . S
C245 H231 0.960 . S
C245 H232 0.961 . S
C245 H233 0.959 . S
C245 C243 1.561 . S
C246 C243 1.526 . S
C246 C247 1.396 . S
C246 C251 1.390 . S
C247 C241 1.465 . S
C247 C246 1.396 . S
C247 C248 1.399 . S
C248 H234 0.929 . S
C248 C247 1.399 . S
C248 C249 1.385 . S
C249 H235 0.931 . S
C249 C248 1.385 . S
C249 C250 1.389 . S
C250 C249 1.389 . S
C250 C251 1.387 . S
C251 H236 0.930 . S
C251 C246 1.390 . S
C251 C250 1.387 . S
H252 C264 0.930 . S
H253 C266 0.930 . S
H254 C267 0.930 . S
H255 C271 0.959 . S
H256 C271 0.959 . S
H257 C271 0.961 . S
H258 C272 0.960 . S
H259 C272 0.961 . S
H260 C272 0.959 . S
H261 C275 0.929 . S
H262 C276 0.931 . S
H263 C278 0.930 . S
C264 H252 0.930 . S
C264 C265 1.399 . S
C264 C269 1.399 . S
C265 C264 1.399 . S
C265 C266 1.376 . S
C266 H253 0.930 . S
C266 C265 1.376 . S
C266 C267 1.388 . S
C267 H254 0.930 . S
C267 C266 1.388 . S
C267 C268 1.390 . S
C268 C267 1.390 . S
C268 C269 1.394 . S
C268 C274 1.465 . S
C269 C264 1.399 . S
C269 C268 1.394 . S
C269 C270 1.516 . S
C270 C269 1.516 . S
C270 C271 1.502 . S
C270 C272 1.561 . S
C270 C273 1.526 . S
C271 H255 0.959 . S
C271 H256 0.959 . S
C271 H257 0.961 . S
C271 C270 1.502 . S
C272 H258 0.960 . S
C272 H259 0.961 . S
C272 H260 0.959 . S
C272 C270 1.561 . S
C273 C270 1.526 . S
C273 C274 1.396 . S
C273 C278 1.390 . S
C274 C268 1.465 . S
C274 C273 1.396 . S
C274 C275 1.399 . S
C275 H261 0.929 . S
C275 C274 1.399 . S
C275 C276 1.385 . S
C276 H262 0.931 . S
C276 C275 1.385 . S
C276 C277 1.389 . S
C277 C276 1.389 . S
C277 C278 1.387 . S
C278 H263 0.930 . S
C278 C273 1.390 . S
C278 C277 1.387 . S
H279 C291 0.930 . S
H280 C293 0.930 . S
H281 C294 0.930 . S
H282 C298 0.959 . S
H283 C298 0.959 . S
H284 C298 0.961 . S
H285 C299 0.960 . S
H286 C299 0.961 . S
H287 C299 0.959 . S
H288 C302 0.929 . S
H289 C303 0.931 . S
H290 C305 0.930 . S
C291 H279 0.930 . S
C291 C292 1.399 . S
C291 C296 1.399 . S
C292 C291 1.399 . S
C292 C293 1.376 . S
C293 H280 0.930 . S
C293 C292 1.376 . S
C293 C294 1.388 . S
C294 H281 0.930 . S
C294 C293 1.388 . S
C294 C295 1.390 . S
C295 C294 1.390 . S
C295 C296 1.394 . S
C295 C301 1.465 . S
C296 C291 1.399 . S
C296 C295 1.394 . S
C296 C297 1.516 . S
C297 C296 1.516 . S
C297 C298 1.502 . S
C297 C299 1.561 . S
C297 C300 1.526 . S
C298 H282 0.959 . S
C298 H283 0.959 . S
C298 H284 0.961 . S
C298 C297 1.502 . S
C299 H285 0.960 . S
C299 H286 0.961 . S
C299 H287 0.959 . S
C299 C297 1.561 . S
C300 C297 1.526 . S
C300 C301 1.396 . S
C300 C305 1.390 . S
C301 C295 1.465 . S
C301 C300 1.396 . S
C301 C302 1.399 . S
C302 H288 0.929 . S
C302 C301 1.399 . S
C302 C303 1.385 . S
C303 H289 0.931 . S
C303 C302 1.385 . S
C303 C304 1.389 . S
C304 C303 1.389 . S
C304 C305 1.387 . S
C305 H290 0.930 . S
C305 C300 1.390 . S
C305 C304 1.387 . S
H306 C318 0.930 . S
H307 C320 0.930 . S
H308 C321 0.930 . S
H309 C325 0.959 . S
H310 C325 0.959 . S
H311 C325 0.961 . S
H312 C326 0.960 . S
H313 C326 0.961 . S
H314 C326 0.959 . S
H315 C329 0.929 . S
H316 C330 0.931 . S
H317 C332 0.930 . S
C318 H306 0.930 . S
C318 C319 1.399 . S
C318 C323 1.399 . S
C319 C318 1.399 . S
C319 C320 1.376 . S
C320 H307 0.930 . S
C320 C319 1.376 . S
C320 C321 1.388 . S
C321 H308 0.930 . S
C321 C320 1.388 . S
C321 C322 1.390 . S
C322 C321 1.390 . S
C322 C323 1.394 . S
C322 C328 1.465 . S
C323 C318 1.399 . S
C323 C322 1.394 . S
C323 C324 1.516 . S
C324 C323 1.516 . S
C324 C325 1.502 . S
C324 C326 1.561 . S
C324 C327 1.526 . S
C325 H309 0.959 . S
C325 H310 0.959 . S
C325 H311 0.961 . S
C325 C324 1.502 . S
C326 H312 0.960 . S
C326 H313 0.961 . S
C326 H314 0.959 . S
C326 C324 1.561 . S
C327 C324 1.526 . S
C327 C328 1.396 . S
C327 C332 1.390 . S
C328 C322 1.465 . S
C328 C327 1.396 . S
C328 C329 1.399 . S
C329 H315 0.929 . S
C329 C328 1.399 . S
C329 C330 1.385 . S
C330 H316 0.931 . S
C330 C329 1.385 . S
C330 C331 1.389 . S
C331 C330 1.389 . S
C331 C332 1.387 . S
C332 H317 0.930 . S
C332 C327 1.390 . S
C332 C331 1.387 . S
H333 C345 0.930 . S
H334 C347 0.930 . S
H335 C348 0.930 . S
H336 C352 0.959 . S
H337 C352 0.959 . S
H338 C352 0.961 . S
H339 C353 0.960 . S
H340 C353 0.961 . S
H341 C353 0.959 . S
H342 C356 0.929 . S
H343 C357 0.931 . S
H344 C359 0.930 . S
C345 H333 0.930 . S
C345 C346 1.399 . S
C345 C350 1.399 . S
C346 C345 1.399 . S
C346 C347 1.376 . S
C347 H334 0.930 . S
C347 C346 1.376 . S
C347 C348 1.388 . S
C348 H335 0.930 . S
C348 C347 1.388 . S
C348 C349 1.390 . S
C349 C348 1.390 . S
C349 C350 1.394 . S
C349 C355 1.465 . S
C350 C345 1.399 . S
C350 C349 1.394 . S
C350 C351 1.516 . S
C351 C350 1.516 . S
C351 C352 1.502 . S
C351 C353 1.561 . S
C351 C354 1.526 . S
C352 H336 0.959 . S
C352 H337 0.959 . S
C352 H338 0.961 . S
C352 C351 1.502 . S
C353 H339 0.960 . S
C353 H340 0.961 . S
C353 H341 0.959 . S
C353 C351 1.561 . S
C354 C351 1.526 . S
C354 C355 1.396 . S
C354 C359 1.390 . S
C355 C349 1.465 . S
C355 C354 1.396 . S
C355 C356 1.399 . S
C356 H342 0.929 . S
C356 C355 1.399 . S
C356 C357 1.385 . S
C357 H343 0.931 . S
C357 C356 1.385 . S
C357 C358 1.389 . S
C358 C357 1.389 . S
C358 C359 1.387 . S
C359 H344 0.930 . S
C359 C354 1.390 . S
C359 C358 1.387 . S
H360 C372 0.930 . S
H361 C374 0.930 . S
H362 C375 0.930 . S
H363 C379 0.959 . S
H364 C379 0.959 . S
H365 C379 0.961 . S
H366 C380 0.960 . S
H367 C380 0.961 . S
H368 C380 0.959 . S
H369 C383 0.929 . S
H370 C384 0.931 . S
H371 C386 0.930 . S
C372 H360 0.930 . S
C372 C373 1.399 . S
C372 C377 1.399 . S
C373 C372 1.399 . S
C373 C374 1.376 . S
C374 H361 0.930 . S
C374 C373 1.376 . S
C374 C375 1.388 . S
C375 H362 0.930 . S
C375 C374 1.388 . S
C375 C376 1.390 . S
C376 C375 1.390 . S
C376 C377 1.394 . S
C376 C382 1.465 . S
C377 C372 1.399 . S
C377 C376 1.394 . S
C377 C378 1.516 . S
C378 C377 1.516 . S
C378 C379 1.502 . S
C378 C380 1.561 . S
C378 C381 1.526 . S
C379 H363 0.959 . S
C379 H364 0.959 . S
C379 H365 0.961 . S
C379 C378 1.502 . S
C380 H366 0.960 . S
C380 H367 0.961 . S
C380 H368 0.959 . S
C380 C378 1.561 . S
C381 C378 1.526 . S
C381 C382 1.396 . S
C381 C386 1.390 . S
C382 C376 1.465 . S
C382 C381 1.396 . S
C382 C383 1.399 . S
C383 H369 0.929 . S
C383 C382 1.399 . S
C383 C384 1.385 . S
C384 H370 0.931 . S
C384 C383 1.385 . S
C384 C385 1.389 . S
C385 C384 1.389 . S
C385 C386 1.387 . S
C386 H371 0.930 . S
C386 C381 1.390 . S
C386 C385 1.387 . S
H387 C399 0.930 . S
H388 C401 0.930 . S
H389 C402 0.930 . S
H390 C406 0.959 . S
H391 C406 0.959 . S
H392 C406 0.961 . S
H393 C407 0.960 . S
H394 C407 0.961 . S
H395 C407 0.959 . S
H396 C410 0.929 . S
H397 C411 0.931 . S
H398 C413 0.930 . S
C399 H387 0.930 . S
C399 C400 1.399 . S
C399 C404 1.399 . S
C400 C399 1.399 . S
C400 C401 1.376 . S
C401 H388 0.930 . S
C401 C400 1.376 . S
C401 C402 1.388 . S
C402 H389 0.930 . S
C402 C401 1.388 . S
C402 C403 1.390 . S
C403 C402 1.390 . S
C403 C404 1.394 . S
C403 C409 1.465 . S
C404 C399 1.399 . S
C404 C403 1.394 . S
C404 C405 1.516 . S
C405 C404 1.516 . S
C405 C406 1.502 . S
C405 C407 1.561 . S
C405 C408 1.526 . S
C406 H390 0.959 . S
C406 H391 0.959 . S
C406 H392 0.961 . S
C406 C405 1.502 . S
C407 H393 0.960 . S
C407 H394 0.961 . S
C407 H395 0.959 . S
C407 C405 1.561 . S
C408 C405 1.526 . S
C408 C409 1.396 . S
C408 C413 1.390 . S
C409 C403 1.465 . S
C409 C408 1.396 . S
C409 C410 1.399 . S
C410 H396 0.929 . S
C410 C409 1.399 . S
C410 C411 1.385 . S
C411 H397 0.931 . S
C411 C410 1.385 . S
C411 C412 1.389 . S
C412 C411 1.389 . S
C412 C413 1.387 . S
C413 H398 0.930 . S
C413 C408 1.390 . S
C413 C412 1.387 . S
H414 C426 0.930 . S
H415 C428 0.930 . S
H416 C429 0.930 . S
H417 C433 0.959 . S
H418 C433 0.959 . S
H419 C433 0.961 1_554 S
H420 C434 0.960 . S
H421 C434 0.961 . S
H422 C434 0.959 . S
H423 C437 0.929 . S
H424 C438 0.931 . S
H425 C440 0.930 . S
C426 H414 0.930 . S
C426 C427 1.399 . S
C426 C431 1.399 1_554 S
C427 C426 1.399 . S
C427 C428 1.376 1_554 S
C428 H415 0.930 . S
C428 C427 1.376 1_556 S
C428 C429 1.388 . S
C429 H416 0.930 . S
C429 C428 1.388 . S
C429 C430 1.390 . S
C430 C429 1.390 . S
C430 C431 1.394 . S
C430 C436 1.465 . S
C431 C426 1.399 1_556 S
C431 C430 1.394 . S
C431 C432 1.516 . S
C432 C431 1.516 . S
C432 C433 1.502 . S
C432 C434 1.561 1_556 S
C432 C435 1.526 . S
C433 H417 0.959 . S
C433 H418 0.959 . S
C433 H419 0.961 1_556 S
C433 C432 1.502 . S
C434 H420 0.960 . S
C434 H421 0.961 . S
C434 H422 0.959 . S
C434 C432 1.561 1_554 S
C435 C432 1.526 . S
C435 C436 1.396 . S
C435 C440 1.390 . S
C436 C430 1.465 . S
C436 C435 1.396 . S
C436 C437 1.399 . S
C437 H423 0.929 . S
C437 C436 1.399 . S
C437 C438 1.385 . S
C438 H424 0.931 . S
C438 C437 1.385 . S
C438 C439 1.389 . S
C439 C438 1.389 . S
C439 C440 1.387 . S
C440 H425 0.930 . S
C440 C435 1.390 . S
C440 C439 1.387 . S
H441 C453 0.930 . S
H442 C455 0.930 . S
H443 C456 0.930 . S
H444 C460 0.959 . S
H445 C460 0.959 . S
H446 C460 0.961 1_554 S
H447 C461 0.960 . S
H448 C461 0.961 . S
H449 C461 0.959 . S
H450 C464 0.929 . S
H451 C465 0.931 . S
H452 C467 0.930 . S
C453 H441 0.930 . S
C453 C454 1.399 . S
C453 C458 1.399 1_554 S
C454 C453 1.399 . S
C454 C455 1.376 1_554 S
C455 H442 0.930 . S
C455 C454 1.376 1_556 S
C455 C456 1.388 . S
C456 H443 0.930 . S
C456 C455 1.388 . S
C456 C457 1.390 . S
C457 C456 1.390 . S
C457 C458 1.394 . S
C457 C463 1.465 . S
C458 C453 1.399 1_556 S
C458 C457 1.394 . S
C458 C459 1.516 . S
C459 C458 1.516 . S
C459 C460 1.502 . S
C459 C461 1.561 1_556 S
C459 C462 1.526 . S
C460 H444 0.959 . S
C460 H445 0.959 . S
C460 H446 0.961 1_556 S
C460 C459 1.502 . S
C461 H447 0.960 . S
C461 H448 0.961 . S
C461 H449 0.959 . S
C461 C459 1.561 1_554 S
C462 C459 1.526 . S
C462 C463 1.396 . S
C462 C467 1.390 . S
C463 C457 1.465 . S
C463 C462 1.396 . S
C463 C464 1.399 . S
C464 H450 0.929 . S
C464 C463 1.399 . S
C464 C465 1.385 . S
C465 H451 0.931 . S
C465 C464 1.385 . S
C465 C466 1.389 . S
C466 C465 1.389 . S
C466 C467 1.387 . S
C467 H452 0.930 . S
C467 C462 1.390 . S
C467 C466 1.387 . S
H468 C480 0.930 1_554 S
H469 C482 0.930 . S
H470 C483 0.930 . S
H471 C487 0.959 . S
H472 C487 0.959 . S
H473 C487 0.961 . S
H474 C488 0.960 1_554 S
H475 C488 0.961 . S
H476 C488 0.959 . S
H477 C491 0.929 . S
H478 C492 0.931 . S
H479 C494 0.930 . S
C480 H468 0.930 1_556 S
C480 C481 1.399 . S
C480 C485 1.399 . S
C481 C480 1.399 . S
C481 C482 1.376 . S
C482 H469 0.930 . S
C482 C481 1.376 . S
C482 C483 1.388 . S
C483 H470 0.930 . S
C483 C482 1.388 . S
C483 C484 1.390 . S
C484 C483 1.390 . S
C484 C485 1.394 . S
C484 C490 1.465 . S
C485 C480 1.399 . S
C485 C484 1.394 . S
C485 C486 1.516 . S
C486 C485 1.516 . S
C486 C487 1.502 . S
C486 C488 1.561 . S
C486 C489 1.526 . S
C487 H471 0.959 . S
C487 H472 0.959 . S
C487 H473 0.961 . S
C487 C486 1.502 . S
C488 H474 0.960 1_556 S
C488 H475 0.961 . S
C488 H476 0.959 . S
C488 C486 1.561 . S
C489 C486 1.526 . S
C489 C490 1.396 . S
C489 C494 1.390 . S
C490 C484 1.465 . S
C490 C489 1.396 . S
C490 C491 1.399 . S
C491 H477 0.929 . S
C491 C490 1.399 . S
C491 C492 1.385 . S
C492 H478 0.931 . S
C492 C491 1.385 . S
C492 C493 1.389 . S
C493 C492 1.389 . S
C493 C494 1.387 . S
C494 H479 0.930 . S
C494 C489 1.390 . S
C494 C493 1.387 . S
H495 C507 0.930 . S
H496 C509 0.930 . S
H497 C510 0.930 . S
H498 C514 0.959 . S
H499 C514 0.959 . S
H500 C514 0.961 . S
H501 C515 0.960 . S
H502 C515 0.961 . S
H503 C515 0.959 . S
H504 C518 0.929 . S
H505 C519 0.931 . S
H506 C521 0.930 . S
C507 H495 0.930 . S
C507 C508 1.399 . S
C507 C512 1.399 . S
C508 C507 1.399 . S
C508 C509 1.376 . S
C509 H496 0.930 . S
C509 C508 1.376 . S
C509 C510 1.388 . S
C510 H497 0.930 . S
C510 C509 1.388 . S
C510 C511 1.390 . S
C511 C510 1.390 . S
C511 C512 1.394 . S
C511 C517 1.465 . S
C512 C507 1.399 . S
C512 C511 1.394 . S
C512 C513 1.516 . S
C513 C512 1.516 . S
C513 C514 1.502 . S
C513 C515 1.561 . S
C513 C516 1.526 . S
C514 H498 0.959 . S
C514 H499 0.959 . S
C514 H500 0.961 . S
C514 C513 1.502 . S
C515 H501 0.960 . S
C515 H502 0.961 . S
C515 H503 0.959 . S
C515 C513 1.561 . S
C516 C513 1.526 . S
C516 C517 1.396 . S
C516 C521 1.390 . S
C517 C511 1.465 . S
C517 C516 1.396 . S
C517 C518 1.399 . S
C518 H504 0.929 . S
C518 C517 1.399 . S
C518 C519 1.385 . S
C519 H505 0.931 . S
C519 C518 1.385 . S
C519 C520 1.389 . S
C520 C519 1.389 . S
C520 C521 1.387 . S
C521 H506 0.930 . S
C521 C516 1.390 . S
C521 C520 1.387 . S
H522 C534 0.930 1_554 S
H523 C536 0.930 . S
H524 C537 0.930 . S
H525 C541 0.959 . S
H526 C541 0.959 . S
H527 C541 0.961 . S
H528 C542 0.960 1_554 S
H529 C542 0.961 . S
H530 C542 0.959 . S
H531 C545 0.929 . S
H532 C546 0.931 . S
H533 C548 0.930 . S
C534 H522 0.930 1_556 S
C534 C535 1.399 . S
C534 C539 1.399 . S
C535 C534 1.399 . S
C535 C536 1.376 . S
C536 H523 0.930 . S
C536 C535 1.376 . S
C536 C537 1.388 . S
C537 H524 0.930 . S
C537 C536 1.388 . S
C537 C538 1.390 . S
C538 C537 1.390 . S
C538 C539 1.394 . S
C538 C544 1.465 . S
C539 C534 1.399 . S
C539 C538 1.394 . S
C539 C540 1.516 . S
C540 C539 1.516 . S
C540 C541 1.502 . S
C540 C542 1.561 . S
C540 C543 1.526 . S
C541 H525 0.959 . S
C541 H526 0.959 . S
C541 H527 0.961 . S
C541 C540 1.502 . S
C542 H528 0.960 1_556 S
C542 H529 0.961 . S
C542 H530 0.959 . S
C542 C540 1.561 . S
C543 C540 1.526 . S
C543 C544 1.396 . S
C543 C548 1.390 . S
C544 C538 1.465 . S
C544 C543 1.396 . S
C544 C545 1.399 . S
C545 H531 0.929 . S
C545 C544 1.399 . S
C545 C546 1.385 . S
C546 H532 0.931 . S
C546 C545 1.385 . S
C546 C547 1.389 . S
C547 C546 1.389 . S
C547 C548 1.387 . S
C548 H533 0.930 . S
C548 C543 1.390 . S
C548 C547 1.387 . S
H549 C561 0.930 . S
H550 C563 0.930 1_554 S
H551 C564 0.930 . S
H552 C568 0.959 . S
H553 C568 0.959 . S
H554 C568 0.961 . S
H555 C569 0.960 1_554 S
H556 C569 0.961 . S
H557 C569 0.959 1_554 S
H558 C572 0.929 . S
H559 C573 0.931 . S
H560 C575 0.930 . S
C561 H549 0.930 . S
C561 C562 1.399 . S
C561 C566 1.399 1_554 S
C562 C561 1.399 . S
C562 C563 1.376 1_554 S
C563 H550 0.930 1_556 S
C563 C562 1.376 1_556 S
C563 C564 1.388 . S
C564 H551 0.930 . S
C564 C563 1.388 . S
C564 C565 1.390 . S
C565 C564 1.390 . S
C565 C566 1.394 . S
C565 C571 1.465 . S
C566 C561 1.399 1_556 S
C566 C565 1.394 . S
C566 C567 1.516 . S
C567 C566 1.516 . S
C567 C568 1.502 . S
C567 C569 1.561 . S
C567 C570 1.526 . S
C568 H552 0.959 . S
C568 H553 0.959 . S
C568 H554 0.961 . S
C568 C567 1.502 . S
C569 H555 0.960 1_556 S
C569 H556 0.961 . S
C569 H557 0.959 1_556 S
C569 C567 1.561 . S
C570 C567 1.526 . S
C570 C571 1.396 . S
C570 C575 1.390 . S
C571 C565 1.465 . S
C571 C570 1.396 . S
C571 C572 1.399 . S
C572 H558 0.929 . S
C572 C571 1.399 . S
C572 C573 1.385 . S
C573 H559 0.931 . S
C573 C572 1.385 . S
C573 C574 1.389 . S
C574 C573 1.389 . S
C574 C575 1.387 . S
C575 H560 0.930 . S
C575 C570 1.390 . S
C575 C574 1.387 . S
H576 C588 0.930 . S
H577 C590 0.930 . S
H578 C591 0.930 . S
H579 C595 0.959 . S
H580 C595 0.959 . S
H581 C595 0.961 . S
H582 C596 0.960 . S
H583 C596 0.961 . S
H584 C596 0.959 . S
H585 C599 0.929 . S
H586 C600 0.931 . S
H587 C602 0.930 . S
C588 H576 0.930 . S
C588 C589 1.399 1_556 S
C588 C593 1.399 . S
C589 C588 1.399 1_554 S
C589 C590 1.376 . S
C590 H577 0.930 . S
C590 C589 1.376 . S
C590 C591 1.388 . S
C591 H578 0.930 . S
C591 C590 1.388 . S
C591 C592 1.390 1_554 S
C592 C591 1.390 1_556 S
C592 C593 1.394 . S
C592 C598 1.465 . S
C593 C588 1.399 . S
C593 C592 1.394 . S
C593 C594 1.516 . S
C594 C593 1.516 . S
C594 C595 1.502 . S
C594 C596 1.561 . S
C594 C597 1.526 . S
C595 H579 0.959 . S
C595 H580 0.959 . S
C595 H581 0.961 . S
C595 C594 1.502 . S
C596 H582 0.960 . S
C596 H583 0.961 . S
C596 H584 0.959 . S
C596 C594 1.561 . S
C597 C594 1.526 . S
C597 C598 1.396 . S
C597 C602 1.390 . S
C598 C592 1.465 . S
C598 C597 1.396 . S
C598 C599 1.399 . S
C599 H585 0.929 . S
C599 C598 1.399 . S
C599 C600 1.385 . S
C600 H586 0.931 . S
C600 C599 1.385 . S
C600 C601 1.389 . S
C601 C600 1.389 . S
C601 C602 1.387 . S
C602 H587 0.930 . S
C602 C597 1.390 . S
C602 C601 1.387 . S
H603 C615 0.930 . S
H604 C617 0.930 1_554 S
H605 C618 0.930 . S
H606 C622 0.959 . S
H607 C622 0.959 . S
H608 C622 0.961 . S
H609 C623 0.960 . S
H610 C623 0.961 . S
H611 C623 0.959 . S
H612 C626 0.929 . S
H613 C627 0.931 . S
H614 C629 0.930 . S
C615 H603 0.930 . S
C615 C616 1.399 . S
C615 C620 1.399 . S
C616 C615 1.399 . S
C616 C617 1.376 . S
C617 H604 0.930 1_556 S
C617 C616 1.376 . S
C617 C618 1.388 . S
C618 H605 0.930 . S
C618 C617 1.388 . S
C618 C619 1.390 . S
C619 C618 1.390 . S
C619 C620 1.394 . S
C619 C625 1.465 . S
C620 C615 1.399 . S
C620 C619 1.394 . S
C620 C621 1.516 . S
C621 C620 1.516 . S
C621 C622 1.502 . S
C621 C623 1.561 . S
C621 C624 1.526 . S
C622 H606 0.959 . S
C622 H607 0.959 . S
C622 H608 0.961 . S
C622 C621 1.502 . S
C623 H609 0.960 . S
C623 H610 0.961 . S
C623 H611 0.959 . S
C623 C621 1.561 . S
C624 C621 1.526 . S
C624 C625 1.396 . S
C624 C629 1.390 . S
C625 C619 1.465 . S
C625 C624 1.396 . S
C625 C626 1.399 . S
C626 H612 0.929 . S
C626 C625 1.399 . S
C626 C627 1.385 . S
C627 H613 0.931 . S
C627 C626 1.385 . S
C627 C628 1.389 . S
C628 C627 1.389 . S
C628 C629 1.387 . S
C629 H614 0.930 . S
C629 C624 1.390 . S
C629 C628 1.387 . S
H630 C642 0.930 . S
H631 C644 0.930 . S
H632 C645 0.930 . S
H633 C649 0.959 . S
H634 C649 0.959 . S
H635 C649 0.961 . S
H636 C650 0.960 . S
H637 C650 0.961 . S
H638 C650 0.959 . S
H639 C653 0.929 . S
H640 C654 0.931 . S
H641 C656 0.930 . S
C642 H630 0.930 . S
C642 C643 1.399 . S
C642 C647 1.399 . S
C643 C642 1.399 . S
C643 C644 1.376 . S
C644 H631 0.930 . S
C644 C643 1.376 . S
C644 C645 1.388 . S
C645 H632 0.930 . S
C645 C644 1.388 . S
C645 C646 1.390 . S
C646 C645 1.390 . S
C646 C647 1.394 . S
C646 C652 1.465 . S
C647 C642 1.399 . S
C647 C646 1.394 . S
C647 C648 1.516 . S
C648 C647 1.516 . S
C648 C649 1.502 . S
C648 C650 1.561 . S
C648 C651 1.526 . S
C649 H633 0.959 . S
C649 H634 0.959 . S
C649 H635 0.961 . S
C649 C648 1.502 . S
C650 H636 0.960 . S
C650 H637 0.961 . S
C650 H638 0.959 . S
C650 C648 1.561 . S
C651 C648 1.526 . S
C651 C652 1.396 . S
C651 C656 1.390 . S
C652 C646 1.465 . S
C652 C651 1.396 . S
C652 C653 1.399 . S
C653 H639 0.929 . S
C653 C652 1.399 . S
C653 C654 1.385 . S
C654 H640 0.931 . S
C654 C653 1.385 . S
C654 C655 1.389 . S
C655 C654 1.389 . S
C655 C656 1.387 . S
C656 H641 0.930 . S
C656 C651 1.390 . S
C656 C655 1.387 . S
H657 C669 0.930 . S
H658 C671 0.930 . S
H659 C672 0.930 . S
H660 C676 0.959 . S
H661 C676 0.959 . S
H662 C676 0.961 . S
H663 C677 0.960 . S
H664 C677 0.961 . S
H665 C677 0.959 . S
H666 C680 0.929 . S
H667 C681 0.931 . S
H668 C683 0.930 . S
C669 H657 0.930 . S
C669 C670 1.399 . S
C669 C674 1.399 . S
C670 C669 1.399 . S
C670 C671 1.376 . S
C671 H658 0.930 . S
C671 C670 1.376 . S
C671 C672 1.388 . S
C672 H659 0.930 . S
C672 C671 1.388 . S
C672 C673 1.390 . S
C673 C672 1.390 . S
C673 C674 1.394 . S
C673 C679 1.465 . S
C674 C669 1.399 . S
C674 C673 1.394 . S
C674 C675 1.516 . S
C675 C674 1.516 . S
C675 C676 1.502 . S
C675 C677 1.561 . S
C675 C678 1.526 . S
C676 H660 0.959 . S
C676 H661 0.959 . S
C676 H662 0.961 . S
C676 C675 1.502 . S
C677 H663 0.960 . S
C677 H664 0.961 . S
C677 H665 0.959 . S
C677 C675 1.561 . S
C678 C675 1.526 . S
C678 C679 1.396 . S
C678 C683 1.390 . S
C679 C673 1.465 . S
C679 C678 1.396 . S
C679 C680 1.399 . S
C680 H666 0.929 . S
C680 C679 1.399 . S
C680 C681 1.385 . S
C681 H667 0.931 . S
C681 C680 1.385 . S
C681 C682 1.389 . S
C682 C681 1.389 . S
C682 C683 1.387 . S
C683 H668 0.930 . S
C683 C678 1.390 . S
C683 C682 1.387 . S
H684 C696 0.930 . S
H685 C698 0.930 . S
H686 C699 0.930 . S
H687 C703 0.959 . S
H688 C703 0.959 . S
H689 C703 0.961 . S
H690 C704 0.960 . S
H691 C704 0.961 . S
H692 C704 0.959 . S
H693 C707 0.929 . S
H694 C708 0.931 . S
H695 C710 0.930 . S
C696 H684 0.930 . S
C696 C697 1.399 . S
C696 C701 1.399 . S
C697 C696 1.399 . S
C697 C698 1.376 . S
C698 H685 0.930 . S
C698 C697 1.376 . S
C698 C699 1.388 . S
C699 H686 0.930 . S
C699 C698 1.388 . S
C699 C700 1.390 . S
C700 C699 1.390 . S
C700 C701 1.394 . S
C700 C706 1.465 . S
C701 C696 1.399 . S
C701 C700 1.394 . S
C701 C702 1.516 . S
C702 C701 1.516 . S
C702 C703 1.502 . S
C702 C704 1.561 . S
C702 C705 1.526 . S
C703 H687 0.959 . S
C703 H688 0.959 . S
C703 H689 0.961 . S
C703 C702 1.502 . S
C704 H690 0.960 . S
C704 H691 0.961 . S
C704 H692 0.959 . S
C704 C702 1.561 . S
C705 C702 1.526 . S
C705 C706 1.396 . S
C705 C710 1.390 . S
C706 C700 1.465 . S
C706 C705 1.396 . S
C706 C707 1.399 . S
C707 H693 0.929 . S
C707 C706 1.399 . S
C707 C708 1.385 . S
C708 H694 0.931 . S
C708 C707 1.385 . S
C708 C709 1.389 . S
C709 C708 1.389 . S
C709 C710 1.387 . S
C710 H695 0.930 . S
C710 C705 1.390 . S
C710 C709 1.387 . S
H711 C723 0.930 . S
H712 C725 0.930 . S
H713 C726 0.930 . S
H714 C730 0.959 . S
H715 C730 0.959 . S
H716 C730 0.961 . S
H717 C731 0.960 . S
H718 C731 0.961 . S
H719 C731 0.959 . S
H720 C734 0.929 . S
H721 C735 0.931 . S
H722 C737 0.930 . S
C723 H711 0.930 . S
C723 C724 1.399 . S
C723 C728 1.399 . S
C724 C723 1.399 . S
C724 C725 1.376 . S
C725 H712 0.930 . S
C725 C724 1.376 . S
C725 C726 1.388 . S
C726 H713 0.930 . S
C726 C725 1.388 . S
C726 C727 1.390 . S
C727 C726 1.390 . S
C727 C728 1.394 . S
C727 C733 1.465 . S
C728 C723 1.399 . S
C728 C727 1.394 . S
C728 C729 1.516 . S
C729 C728 1.516 . S
C729 C730 1.502 . S
C729 C731 1.561 . S
C729 C732 1.526 . S
C730 H714 0.959 . S
C730 H715 0.959 . S
C730 H716 0.961 . S
C730 C729 1.502 . S
C731 H717 0.960 . S
C731 H718 0.961 . S
C731 H719 0.959 . S
C731 C729 1.561 . S
C732 C729 1.526 . S
C732 C733 1.396 . S
C732 C737 1.390 . S
C733 C727 1.465 . S
C733 C732 1.396 . S
C733 C734 1.399 . S
C734 H720 0.929 . S
C734 C733 1.399 . S
C734 C735 1.385 . S
C735 H721 0.931 . S
C735 C734 1.385 . S
C735 C736 1.389 . S
C736 C735 1.389 . S
C736 C737 1.387 . S
C737 H722 0.930 . S
C737 C732 1.390 . S
C737 C736 1.387 . S
H738 C750 0.930 . S
H739 C752 0.930 . S
H740 C753 0.930 . S
H741 C757 0.959 . S
H742 C757 0.959 . S
H743 C757 0.961 . S
H744 C758 0.960 . S
H745 C758 0.961 . S
H746 C758 0.959 . S
H747 C761 0.929 . S
H748 C762 0.931 . S
H749 C764 0.930 . S
C750 H738 0.930 . S
C750 C751 1.399 . S
C750 C755 1.399 . S
C751 C750 1.399 . S
C751 C752 1.376 . S
C752 H739 0.930 . S
C752 C751 1.376 . S
C752 C753 1.388 . S
C753 H740 0.930 . S
C753 C752 1.388 . S
C753 C754 1.390 . S
C754 C753 1.390 . S
C754 C755 1.394 . S
C754 C760 1.465 . S
C755 C750 1.399 . S
C755 C754 1.394 . S
C755 C756 1.516 . S
C756 C755 1.516 . S
C756 C757 1.502 . S
C756 C758 1.561 . S
C756 C759 1.526 . S
C757 H741 0.959 . S
C757 H742 0.959 . S
C757 H743 0.961 . S
C757 C756 1.502 . S
C758 H744 0.960 . S
C758 H745 0.961 . S
C758 H746 0.959 . S
C758 C756 1.561 . S
C759 C756 1.526 . S
C759 C760 1.396 . S
C759 C764 1.390 . S
C760 C754 1.465 . S
C760 C759 1.396 . S
C760 C761 1.399 . S
C761 H747 0.929 . S
C761 C760 1.399 . S
C761 C762 1.385 . S
C762 H748 0.931 . S
C762 C761 1.385 . S
C762 C763 1.389 . S
C763 C762 1.389 . S
C763 C764 1.387 . S
C764 H749 0.930 . S
C764 C759 1.390 . S
C764 C763 1.387 . S
H765 C777 0.930 . S
H766 C779 0.930 . S
H767 C780 0.930 . S
H768 C784 0.959 . S
H769 C784 0.959 . S
H770 C784 0.961 . S
H771 C785 0.960 . S
H772 C785 0.961 . S
H773 C785 0.959 . S
H774 C788 0.929 . S
H775 C789 0.931 . S
H776 C791 0.930 . S
C777 H765 0.930 . S
C777 C778 1.399 . S
C777 C782 1.399 . S
C778 C777 1.399 . S
C778 C779 1.376 . S
C779 H766 0.930 . S
C779 C778 1.376 . S
C779 C780 1.388 . S
C780 H767 0.930 . S
C780 C779 1.388 . S
C780 C781 1.390 . S
C781 C780 1.390 . S
C781 C782 1.394 . S
C781 C787 1.465 . S
C782 C777 1.399 . S
C782 C781 1.394 . S
C782 C783 1.516 . S
C783 C782 1.516 . S
C783 C784 1.502 . S
C783 C785 1.561 . S
C783 C786 1.526 . S
C784 H768 0.959 . S
C784 H769 0.959 . S
C784 H770 0.961 . S
C784 C783 1.502 . S
C785 H771 0.960 . S
C785 H772 0.961 . S
C785 H773 0.959 . S
C785 C783 1.561 . S
C786 C783 1.526 . S
C786 C787 1.396 . S
C786 C791 1.390 . S
C787 C781 1.465 . S
C787 C786 1.396 . S
C787 C788 1.399 . S
C788 H774 0.929 . S
C788 C787 1.399 . S
C788 C789 1.385 . S
C789 H775 0.931 . S
C789 C788 1.385 . S
C789 C790 1.389 . S
C790 C789 1.389 . S
C790 C791 1.387 . S
C791 H776 0.930 . S
C791 C786 1.390 . S
C791 C790 1.387 . S
H792 C804 0.930 . S
H793 C806 0.930 . S
H794 C807 0.930 . S
H795 C811 0.959 . S
H796 C811 0.959 . S
H797 C811 0.961 . S
H798 C812 0.960 . S
H799 C812 0.961 . S
H800 C812 0.959 . S
H801 C815 0.929 . S
H802 C816 0.931 . S
H803 C818 0.930 . S
C804 H792 0.930 . S
C804 C805 1.399 . S
C804 C809 1.399 . S
C805 C804 1.399 . S
C805 C806 1.376 . S
C806 H793 0.930 . S
C806 C805 1.376 . S
C806 C807 1.388 . S
C807 H794 0.930 . S
C807 C806 1.388 . S
C807 C808 1.390 . S
C808 C807 1.390 . S
C808 C809 1.394 . S
C808 C814 1.465 . S
C809 C804 1.399 . S
C809 C808 1.394 . S
C809 C810 1.516 . S
C810 C809 1.516 . S
C810 C811 1.502 . S
C810 C812 1.561 . S
C810 C813 1.526 . S
C811 H795 0.959 . S
C811 H796 0.959 . S
C811 H797 0.961 . S
C811 C810 1.502 . S
C812 H798 0.960 . S
C812 H799 0.961 . S
C812 H800 0.959 . S
C812 C810 1.561 . S
C813 C810 1.526 . S
C813 C814 1.396 . S
C813 C818 1.390 . S
C814 C808 1.465 . S
C814 C813 1.396 . S
C814 C815 1.399 . S
C815 H801 0.929 . S
C815 C814 1.399 . S
C815 C816 1.385 . S
C816 H802 0.931 . S
C816 C815 1.385 . S
C816 C817 1.389 . S
C817 C816 1.389 . S
C817 C818 1.387 . S
C818 H803 0.930 . S
C818 C813 1.390 . S
C818 C817 1.387 . S
C184 C5 1.625 . S
C196 C78 1.581 . S
C211 C16 1.371 . S
C223 C110 1.374 . S
C250 C169 1.804 . S
C238 C36 1.853 . S
C277 C98 1.280 . S
C265 C42 1.341 . S
C292 C55 1.547 . S
C304 C128 1.455 . S
C331 C150 1.159 . S
C319 C66 1.136 . S
C358 C119 1.490 . S
C346 C31 1.566 . S
C373 C40 1.245 . S
C385 C159 1.172 . S
C412 C108 1.573 . S
C400 C53 1.537 1_556 S
C427 C68 1.409 . S
C439 C138 1.361 . S
C454 C10 1.785 . S
C466 C141 1.711 . S
C493 C80 1.511 . S
C481 C14 1.557 1_556 S
C520 C88 1.607 . S
C508 C49 1.557 . S
C547 C129 1.489 . S
C535 C62 1.448 1_556 S
C574 C142 1.784 . S
C562 C70 1.759 . S
C601 C79 1.413 . S
C589 C1 1.457 . S
C628 C139 1.493 . S
C616 C23 1.556 1_556 S
C643 C29 1.144 . S
C655 C140 1.051 . S
C682 C109 1.519 . S
C670 C75 1.630 . S
C709 C170 1.141 . S
C697 C3 1.124 . S
C736 C97 1.456 . S
C724 C18 1.456 . S
C763 C111 1.456 . S
C751 C27 1.527 . S
C778 C44 1.688 . S
C790 C160 1.686 . S
C805 C57 1.502 . S
C817 C107 1.437 . S
