# Generated by pormake.
# Topology gar, (4,6)-cn, num edge types: 1
# Building blocks:
#     Node 0, Type 0, BuildingBlock: AZAVOO_clean_sbu_0, # of connection points: 4
#     Node 1, Type 0, BuildingBlock: AZAVOO_clean_sbu_0, # of connection points: 4
#     Node 2, Type 0, BuildingBlock: AZAVOO_clean_sbu_0, # of connection points: 4
#     Node 3, Type 0, BuildingBlock: AZAVOO_clean_sbu_0, # of connection points: 4
#     Node 4, Type 0, BuildingBlock: AZAVOO_clean_sbu_0, # of connection points: 4
#     Node 5, Type 0, BuildingBlock: AZAVOO_clean_sbu_0, # of connection points: 4
#     Node 6, Type 0, BuildingBlock: AZAVOO_clean_sbu_0, # of connection points: 4
#     Node 7, Type 0, BuildingBlock: AZAVOO_clean_sbu_0, # of connection points: 4
#     Node 8, Type 0, BuildingBlock: AZAVOO_clean_sbu_0, # of connection points: 4
#     Node 9, Type 0, BuildingBlock: AZAVOO_clean_sbu_0, # of connection points: 4
#     Node 10, Type 0, BuildingBlock: AZAVOO_clean_sbu_0, # of connection points: 4
#     Node 11, Type 0, BuildingBlock: AZAVOO_clean_sbu_0, # of connection points: 4
#     Node 12, Type 0, BuildingBlock: AZAVOO_clean_sbu_0, # of connection points: 4
#     Node 13, Type 0, BuildingBlock: AZAVOO_clean_sbu_0, # of connection points: 4
#     Node 14, Type 0, BuildingBlock: AZAVOO_clean_sbu_0, # of connection points: 4
#     Node 15, Type 0, BuildingBlock: AZAVOO_clean_sbu_0, # of connection points: 4
#     Node 16, Type 0, BuildingBlock: AZAVOO_clean_sbu_0, # of connection points: 4
#     Node 17, Type 0, BuildingBlock: AZAVOO_clean_sbu_0, # of connection points: 4
#     Node 18, Type 0, BuildingBlock: AZAVOO_clean_sbu_0, # of connection points: 4
#     Node 19, Type 0, BuildingBlock: AZAVOO_clean_sbu_0, # of connection points: 4
#     Node 20, Type 0, BuildingBlock: AZAVOO_clean_sbu_0, # of connection points: 4
#     Node 21, Type 0, BuildingBlock: AZAVOO_clean_sbu_0, # of connection points: 4
#     Node 22, Type 0, BuildingBlock: AZAVOO_clean_sbu_0, # of connection points: 4
#     Node 23, Type 0, BuildingBlock: AZAVOO_clean_sbu_0, # of connection points: 4
#     Node 24, Type 1, BuildingBlock: MIFKUJ_clean_sbu_0, # of connection points: 6
#     Node 25, Type 1, BuildingBlock: MIFKUJ_clean_sbu_0, # of connection points: 6
#     Node 26, Type 1, BuildingBlock: MIFKUJ_clean_sbu_0, # of connection points: 6
#     Node 27, Type 1, BuildingBlock: MIFKUJ_clean_sbu_0, # of connection points: 6
#     Node 28, Type 1, BuildingBlock: MIFKUJ_clean_sbu_0, # of connection points: 6
#     Node 29, Type 1, BuildingBlock: MIFKUJ_clean_sbu_0, # of connection points: 6
#     Node 30, Type 1, BuildingBlock: MIFKUJ_clean_sbu_0, # of connection points: 6
#     Node 31, Type 1, BuildingBlock: MIFKUJ_clean_sbu_0, # of connection points: 6
#     Node 32, Type 1, BuildingBlock: MIFKUJ_clean_sbu_0, # of connection points: 6
#     Node 33, Type 1, BuildingBlock: MIFKUJ_clean_sbu_0, # of connection points: 6
#     Node 34, Type 1, BuildingBlock: MIFKUJ_clean_sbu_0, # of connection points: 6
#     Node 35, Type 1, BuildingBlock: MIFKUJ_clean_sbu_0, # of connection points: 6
#     Node 36, Type 1, BuildingBlock: MIFKUJ_clean_sbu_0, # of connection points: 6
#     Node 37, Type 1, BuildingBlock: MIFKUJ_clean_sbu_0, # of connection points: 6
#     Node 38, Type 1, BuildingBlock: MIFKUJ_clean_sbu_0, # of connection points: 6
#     Node 39, Type 1, BuildingBlock: MIFKUJ_clean_sbu_0, # of connection points: 6
#     Edge 40, Type (0, 1), BuildingBlock: CIFDUS_clean_linker_0, # of connection points: 2
#     Edge 41, Type (0, 1), BuildingBlock: CIFDUS_clean_linker_0, # of connection points: 2
#     Edge 42, Type (0, 1), BuildingBlock: CIFDUS_clean_linker_0, # of connection points: 2
#     Edge 43, Type (0, 1), BuildingBlock: CIFDUS_clean_linker_0, # of connection points: 2
#     Edge 44, Type (0, 1), BuildingBlock: CIFDUS_clean_linker_0, # of connection points: 2
#     Edge 45, Type (0, 1), BuildingBlock: CIFDUS_clean_linker_0, # of connection points: 2
#     Edge 46, Type (0, 1), BuildingBlock: CIFDUS_clean_linker_0, # of connection points: 2
#     Edge 47, Type (0, 1), BuildingBlock: CIFDUS_clean_linker_0, # of connection points: 2
#     Edge 48, Type (0, 1), BuildingBlock: CIFDUS_clean_linker_0, # of connection points: 2
#     Edge 49, Type (0, 1), BuildingBlock: CIFDUS_clean_linker_0, # of connection points: 2
#     Edge 50, Type (0, 1), BuildingBlock: CIFDUS_clean_linker_0, # of connection points: 2
#     Edge 51, Type (0, 1), BuildingBlock: CIFDUS_clean_linker_0, # of connection points: 2
#     Edge 52, Type (0, 1), BuildingBlock: CIFDUS_clean_linker_0, # of connection points: 2
#     Edge 53, Type (0, 1), BuildingBlock: CIFDUS_clean_linker_0, # of connection points: 2
#     Edge 54, Type (0, 1), BuildingBlock: CIFDUS_clean_linker_0, # of connection points: 2
#     Edge 55, Type (0, 1), BuildingBlock: CIFDUS_clean_linker_0, # of connection points: 2
#     Edge 56, Type (0, 1), BuildingBlock: CIFDUS_clean_linker_0, # of connection points: 2
#     Edge 57, Type (0, 1), BuildingBlock: CIFDUS_clean_linker_0, # of connection points: 2
#     Edge 58, Type (0, 1), BuildingBlock: CIFDUS_clean_linker_0, # of connection points: 2
#     Edge 59, Type (0, 1), BuildingBlock: CIFDUS_clean_linker_0, # of connection points: 2
#     Edge 60, Type (0, 1), BuildingBlock: CIFDUS_clean_linker_0, # of connection points: 2
#     Edge 61, Type (0, 1), BuildingBlock: CIFDUS_clean_linker_0, # of connection points: 2
#     Edge 62, Type (0, 1), BuildingBlock: CIFDUS_clean_linker_0, # of connection points: 2
#     Edge 63, Type (0, 1), BuildingBlock: CIFDUS_clean_linker_0, # of connection points: 2
#     Edge 64, Type (0, 1), BuildingBlock: CIFDUS_clean_linker_0, # of connection points: 2
#     Edge 65, Type (0, 1), BuildingBlock: CIFDUS_clean_linker_0, # of connection points: 2
#     Edge 66, Type (0, 1), BuildingBlock: CIFDUS_clean_linker_0, # of connection points: 2
#     Edge 67, Type (0, 1), BuildingBlock: CIFDUS_clean_linker_0, # of connection points: 2
#     Edge 68, Type (0, 1), BuildingBlock: CIFDUS_clean_linker_0, # of connection points: 2
#     Edge 69, Type (0, 1), BuildingBlock: CIFDUS_clean_linker_0, # of connection points: 2
#     Edge 70, Type (0, 1), BuildingBlock: CIFDUS_clean_linker_0, # of connection points: 2
#     Edge 71, Type (0, 1), BuildingBlock: CIFDUS_clean_linker_0, # of connection points: 2
#     Edge 72, Type (0, 1), BuildingBlock: CIFDUS_clean_linker_0, # of connection points: 2
#     Edge 73, Type (0, 1), BuildingBlock: CIFDUS_clean_linker_0, # of connection points: 2
#     Edge 74, Type (0, 1), BuildingBlock: CIFDUS_clean_linker_0, # of connection points: 2
#     Edge 75, Type (0, 1), BuildingBlock: CIFDUS_clean_linker_0, # of connection points: 2
#     Edge 76, Type (0, 1), BuildingBlock: CIFDUS_clean_linker_0, # of connection points: 2
#     Edge 77, Type (0, 1), BuildingBlock: CIFDUS_clean_linker_0, # of connection points: 2
#     Edge 78, Type (0, 1), BuildingBlock: CIFDUS_clean_linker_0, # of connection points: 2
#     Edge 79, Type (0, 1), BuildingBlock: CIFDUS_clean_linker_0, # of connection points: 2
#     Edge 80, Type (0, 1), BuildingBlock: CIFDUS_clean_linker_0, # of connection points: 2
#     Edge 81, Type (0, 1), BuildingBlock: CIFDUS_clean_linker_0, # of connection points: 2
#     Edge 82, Type (0, 1), BuildingBlock: CIFDUS_clean_linker_0, # of connection points: 2
#     Edge 83, Type (0, 1), BuildingBlock: CIFDUS_clean_linker_0, # of connection points: 2
#     Edge 84, Type (0, 1), BuildingBlock: CIFDUS_clean_linker_0, # of connection points: 2
#     Edge 85, Type (0, 1), BuildingBlock: CIFDUS_clean_linker_0, # of connection points: 2
#     Edge 86, Type (0, 1), BuildingBlock: CIFDUS_clean_linker_0, # of connection points: 2
#     Edge 87, Type (0, 1), BuildingBlock: CIFDUS_clean_linker_0, # of connection points: 2
#     Edge 88, Type (0, 1), BuildingBlock: CIFDUS_clean_linker_0, # of connection points: 2
#     Edge 89, Type (0, 1), BuildingBlock: CIFDUS_clean_linker_0, # of connection points: 2
#     Edge 90, Type (0, 1), BuildingBlock: CIFDUS_clean_linker_0, # of connection points: 2
#     Edge 91, Type (0, 1), BuildingBlock: CIFDUS_clean_linker_0, # of connection points: 2
#     Edge 92, Type (0, 1), BuildingBlock: CIFDUS_clean_linker_0, # of connection points: 2
#     Edge 93, Type (0, 1), BuildingBlock: CIFDUS_clean_linker_0, # of connection points: 2
#     Edge 94, Type (0, 1), BuildingBlock: CIFDUS_clean_linker_0, # of connection points: 2
#     Edge 95, Type (0, 1), BuildingBlock: CIFDUS_clean_linker_0, # of connection points: 2
#     Edge 96, Type (0, 1), BuildingBlock: CIFDUS_clean_linker_0, # of connection points: 2
#     Edge 97, Type (0, 1), BuildingBlock: CIFDUS_clean_linker_0, # of connection points: 2
#     Edge 98, Type (0, 1), BuildingBlock: CIFDUS_clean_linker_0, # of connection points: 2
#     Edge 99, Type (0, 1), BuildingBlock: CIFDUS_clean_linker_0, # of connection points: 2
#     Edge 100, Type (0, 1), BuildingBlock: CIFDUS_clean_linker_0, # of connection points: 2
#     Edge 101, Type (0, 1), BuildingBlock: CIFDUS_clean_linker_0, # of connection points: 2
#     Edge 102, Type (0, 1), BuildingBlock: CIFDUS_clean_linker_0, # of connection points: 2
#     Edge 103, Type (0, 1), BuildingBlock: CIFDUS_clean_linker_0, # of connection points: 2
#     Edge 104, Type (0, 1), BuildingBlock: CIFDUS_clean_linker_0, # of connection points: 2
#     Edge 105, Type (0, 1), BuildingBlock: CIFDUS_clean_linker_0, # of connection points: 2
#     Edge 106, Type (0, 1), BuildingBlock: CIFDUS_clean_linker_0, # of connection points: 2
#     Edge 107, Type (0, 1), BuildingBlock: CIFDUS_clean_linker_0, # of connection points: 2
#     Edge 108, Type (0, 1), BuildingBlock: CIFDUS_clean_linker_0, # of connection points: 2
#     Edge 109, Type (0, 1), BuildingBlock: CIFDUS_clean_linker_0, # of connection points: 2
#     Edge 110, Type (0, 1), BuildingBlock: CIFDUS_clean_linker_0, # of connection points: 2
#     Edge 111, Type (0, 1), BuildingBlock: CIFDUS_clean_linker_0, # of connection points: 2
#     Edge 112, Type (0, 1), BuildingBlock: CIFDUS_clean_linker_0, # of connection points: 2
#     Edge 113, Type (0, 1), BuildingBlock: CIFDUS_clean_linker_0, # of connection points: 2
#     Edge 114, Type (0, 1), BuildingBlock: CIFDUS_clean_linker_0, # of connection points: 2
#     Edge 115, Type (0, 1), BuildingBlock: CIFDUS_clean_linker_0, # of connection points: 2
#     Edge 116, Type (0, 1), BuildingBlock: CIFDUS_clean_linker_0, # of connection points: 2
#     Edge 117, Type (0, 1), BuildingBlock: CIFDUS_clean_linker_0, # of connection points: 2
#     Edge 118, Type (0, 1), BuildingBlock: CIFDUS_clean_linker_0, # of connection points: 2
#     Edge 119, Type (0, 1), BuildingBlock: CIFDUS_clean_linker_0, # of connection points: 2
#     Edge 120, Type (0, 1), BuildingBlock: CIFDUS_clean_linker_0, # of connection points: 2
#     Edge 121, Type (0, 1), BuildingBlock: CIFDUS_clean_linker_0, # of connection points: 2
#     Edge 122, Type (0, 1), BuildingBlock: CIFDUS_clean_linker_0, # of connection points: 2
#     Edge 123, Type (0, 1), BuildingBlock: CIFDUS_clean_linker_0, # of connection points: 2
#     Edge 124, Type (0, 1), BuildingBlock: CIFDUS_clean_linker_0, # of connection points: 2
#     Edge 125, Type (0, 1), BuildingBlock: CIFDUS_clean_linker_0, # of connection points: 2
#     Edge 126, Type (0, 1), BuildingBlock: CIFDUS_clean_linker_0, # of connection points: 2
#     Edge 127, Type (0, 1), BuildingBlock: CIFDUS_clean_linker_0, # of connection points: 2
#     Edge 128, Type (0, 1), BuildingBlock: CIFDUS_clean_linker_0, # of connection points: 2
#     Edge 129, Type (0, 1), BuildingBlock: CIFDUS_clean_linker_0, # of connection points: 2
#     Edge 130, Type (0, 1), BuildingBlock: CIFDUS_clean_linker_0, # of connection points: 2
#     Edge 131, Type (0, 1), BuildingBlock: CIFDUS_clean_linker_0, # of connection points: 2
#     Edge 132, Type (0, 1), BuildingBlock: CIFDUS_clean_linker_0, # of connection points: 2
#     Edge 133, Type (0, 1), BuildingBlock: CIFDUS_clean_linker_0, # of connection points: 2
#     Edge 134, Type (0, 1), BuildingBlock: CIFDUS_clean_linker_0, # of connection points: 2
#     Edge 135, Type (0, 1), BuildingBlock: CIFDUS_clean_linker_0, # of connection points: 2
# Relax obj value: 0.131
# Max RMSD: 0.308
# Mean RMSD: 0.179
data_MOF--net-gar--node1-AZAVOO_clean_sbu_0--node2-MIFKUJ_clean_sbu_0--edge1-CIFDUS_clean_linker_0
_symmetry_space_group_name_H-M    P1
_symmetry_Int_Tables_number       1
_symmetry_cell_setting            triclinic
loop_
_symmetry_equiv_pos_as_xyz
'x, y, z'
_cell_length_a     50.880864
_cell_length_b     48.769298
_cell_length_c     47.96822
_cell_angle_alpha  97.605314
_cell_angle_beta   94.80817
_cell_angle_gamma 100.72226
loop_
_atom_site_label
_atom_site_type_symbol
_atom_site_fract_x
_atom_site_fract_y
_atom_site_fract_z
_atom_type_partial_charge
Mg0 Mg 0.01139 0.26469 0.36669 0.0
O1 O 0.02131 0.30663 0.39805 0.0
O2 O 0.98907 0.30383 0.42719 0.0
Mg3 Mg 0.9572 0.26356 0.41246 0.0
C4 C 0.01076 0.31681 0.41938 0.0
C5 C 0.05499 0.27596 0.32681 0.0
O6 O 0.03278 0.27709 0.31136 0.0
O7 O 0.02279 0.23899 0.40117 0.0
O8 O 0.98689 0.23606 0.42527 0.0
O9 O 0.98753 0.28417 0.33618 0.0
O10 O 0.97039 0.2623 0.36985 0.0
C11 C 0.00938 0.22938 0.42043 0.0
C12 C 0.96687 0.27606 0.34917 0.0
O13 O 0.05372 0.27142 0.35226 0.0
Mg14 Mg 0.98377 0.75664 0.64719 0.0
O15 O 0.97819 0.71377 0.61907 0.0
O16 O 0.94006 0.70695 0.59012 0.0
Mg17 Mg 0.91959 0.74423 0.60208 0.0
C18 C 0.96135 0.69896 0.599 0.0
C19 C 0.04005 0.74845 0.67752 0.0
O20 O 0.02596 0.73926 0.69734 0.0
O21 O 0.99288 0.77977 0.60997 0.0
O22 O 0.95272 0.77419 0.58479 0.0
O23 O 0.96163 0.73724 0.68074 0.0
O24 O 0.94253 0.75294 0.64455 0.0
C25 C 0.97793 0.78469 0.58924 0.0
C26 C 0.93998 0.7408 0.66663 0.0
O27 O 0.02831 0.75641 0.65649 0.0
Mg28 Mg 0.50557 0.75912 0.88078 0.0
O29 O 0.51035 0.80052 0.9125 0.0
O30 O 0.47206 0.79743 0.93278 0.0
Mg31 Mg 0.44376 0.75527 0.91589 0.0
C32 C 0.4954 0.81085 0.92953 0.0
C33 C 0.55845 0.75887 0.85224 0.0
O34 O 0.54045 0.74401 0.83196 0.0
O35 O 0.51201 0.73324 0.91666 0.0
O36 O 0.47273 0.73004 0.93486 0.0
O37 O 0.48502 0.7783 0.84654 0.0
O38 O 0.46399 0.7551 0.87734 0.0
C39 C 0.49597 0.72382 0.93393 0.0
C40 C 0.46284 0.76958 0.85694 0.0
O41 O 0.55057 0.76838 0.87543 0.0
Mg42 Mg 0.4939 0.2626 0.17125 0.0
O43 O 0.4904 0.22064 0.14267 0.0
O44 O 0.45577 0.21509 0.10927 0.0
Mg45 Mg 0.43506 0.25259 0.11896 0.0
C46 C 0.4758 0.20662 0.12063 0.0
C47 C 0.54495 0.25413 0.2096 0.0
O48 O 0.52821 0.2498 0.22871 0.0
O49 O 0.50866 0.28608 0.13625 0.0
O50 O 0.47157 0.28207 0.10632 0.0
O51 O 0.46779 0.24254 0.20094 0.0
O52 O 0.45294 0.25997 0.16364 0.0
C53 C 0.49664 0.2917 0.11393 0.0
C54 C 0.44775 0.24703 0.18486 0.0
O55 O 0.53657 0.26003 0.18588 0.0
Mg56 Mg 0.0188 0.79366 0.17055 0.0
O57 O 0.01262 0.74941 0.14512 0.0
O58 O 0.97639 0.7443 0.11368 0.0
Mg59 Mg 0.95725 0.78295 0.12175 0.0
C60 C -0.00373 0.73512 0.1244 0.0
C61 C 0.07033 0.80373 0.21143 0.0
O62 O 0.05579 0.81904 0.22567 0.0
O63 O 0.03247 0.81333 0.13229 0.0
O64 O 0.99317 0.80938 0.10585 0.0
O65 O 0.99289 0.77764 0.20289 0.0
O66 O 0.97867 0.79352 0.16447 0.0
C67 C 0.01862 0.81819 0.11061 0.0
C68 C 0.97324 0.78312 0.187 0.0
O69 O 0.06082 0.79065 0.18693 0.0
Mg70 Mg 0.47952 0.71311 0.36839 0.0
O71 O 0.48152 0.75536 0.39634 0.0
O72 O 0.44807 0.75028 0.42383 0.0
Mg73 Mg 0.42414 0.70506 0.41187 0.0
C74 C 0.46849 0.76527 0.41562 0.0
C75 C 0.53118 0.74157 0.34207 0.0
O76 O 0.51401 0.75043 0.32512 0.0
O77 O 0.49442 0.69527 0.4059 0.0
O78 O 0.46022 0.68808 0.43189 0.0
O79 O 0.45498 0.72615 0.33458 0.0
O80 O 0.43824 0.70468 0.36914 0.0
C81 C 0.48439 0.68669 0.42733 0.0
C82 C 0.43441 0.71737 0.34755 0.0
O83 O 0.52264 0.72671 0.36046 0.0
Mg84 Mg 0.51922 0.26996 0.68212 0.0
O85 O 0.52072 0.23268 0.64796 0.0
O86 O 0.48331 0.22699 0.61795 0.0
Mg87 Mg 0.45714 0.25742 0.63435 0.0
C88 C 0.50568 0.2203 0.62543 0.0
C89 C 0.57093 0.28876 0.72157 0.0
O90 O 0.55335 0.29868 0.73654 0.0
O91 O 0.52776 0.30027 0.65068 0.0
O92 O 0.48814 0.29412 0.62437 0.0
O93 O 0.49896 0.24113 0.70961 0.0
O94 O 0.4782 0.26001 0.67683 0.0
C95 C 0.51262 0.30679 0.63107 0.0
C96 C 0.47672 0.24358 0.69582 0.0
O97 O 0.56313 0.27543 0.69679 0.0
Mg98 Mg 0.98913 0.21376 0.86941 0.0
O99 O 0.99325 0.25845 0.89278 0.0
O100 O 0.95841 0.26013 0.91796 0.0
Mg101 Mg 0.93089 0.21641 0.90827 0.0
C102 C 0.98048 0.27186 0.9099 0.0
C103 C 0.04314 0.24055 0.84792 0.0
O104 O 0.02755 0.25444 0.83461 0.0
O105 O -0.00043 0.19881 0.91036 0.0
O106 O 0.96262 0.19724 0.9325 0.0
O107 O 0.96816 0.22488 0.83184 0.0
O108 O 0.94783 0.2089 0.86738 0.0
C109 C 0.98659 0.19306 0.93109 0.0
C110 C 0.94635 0.21902 0.84385 0.0
O111 O 0.03303 0.2228 0.86312 0.0
Mg112 Mg 0.40333 0.03369 0.29032 0.0
O113 O 0.37722 0.98979 0.2913 0.0
O114 O 0.35885 0.99226 0.33206 0.0
Mg115 Mg 0.37557 0.03602 0.35796 0.0
C116 C 0.36185 0.97863 0.30829 0.0
C117 C 0.42305 0.01017 0.23431 0.0
O118 O 0.43769 -0.00014 0.2526 0.0
O119 O 0.36585 0.05217 0.28298 0.0
O120 O 0.35165 0.05656 0.32582 0.0
O121 O 0.43972 0.02142 0.30922 0.0
O122 O 0.41141 0.0402 0.3345 0.0
C123 C 0.34977 0.06029 0.29986 0.0
C124 C 0.43289 0.02968 0.33381 0.0
O125 O 0.40553 0.02374 0.24305 0.0
Mg126 Mg 0.26828 0.12542 0.49077 0.0
O127 O 0.27573 0.15282 0.53475 0.0
O128 O 0.31811 0.17683 0.53914 0.0
Mg129 Mg 0.33665 0.16643 0.49785 0.0
C130 C 0.29571 0.17004 0.54917 0.0
C131 C 0.21045 0.09118 0.48743 0.0
O132 O 0.22319 0.07191 0.47663 0.0
O133 O 0.26464 0.16283 0.46764 0.0
O134 O 0.3073 0.18544 0.46968 0.0
O135 O 0.28434 0.09148 0.50964 0.0
O136 O 0.30928 0.12464 0.49065 0.0
C137 C 0.28233 0.18234 0.46084 0.0
C138 C 0.30788 0.10314 0.5039 0.0
O139 O 0.2235 0.11629 0.49522 0.0
Mg140 Mg 0.12928 0.99585 0.7959 0.0
O141 O 0.15211 0.04135 0.79776 0.0
O142 O 0.17861 0.05364 0.83874 0.0
Mg143 Mg 0.16932 0.01762 0.86503 0.0
C144 C 0.16989 0.05908 0.81474 0.0
C145 C 0.10626 0.00866 0.73733 0.0
O146 O 0.09617 0.02663 0.75407 0.0
O147 O 0.16773 0.9785 0.79061 0.0
O148 O 0.18857 0.98863 0.83467 0.0
O149 O 0.09435 0.01019 0.8152 0.0
O150 O 0.12994 0.00182 0.83968 0.0
C151 C 0.18678 0.97673 0.80899 0.0
C152 C 0.10727 0.00985 0.83954 0.0
O153 O 0.12028 0.99291 0.74818 0.0
Mg154 Mg 0.2603 0.87834 0.01896 0.0
O155 O 0.25501 0.85501 0.97337 0.0
O156 O 0.28438 0.82601 0.97211 0.0
Mg157 Mg 0.31014 0.8328 0.01417 0.0
C158 C 0.26556 0.83594 0.96035 0.0
C159 C 0.21938 0.91646 0.0263 0.0
O160 O 0.24004 0.92994 0.04435 0.0
O161 O 0.24055 0.83861 0.0354 0.0
O162 O 0.27368 0.81424 0.03472 0.0
O163 O 0.29054 0.91281 0.00734 0.0
O164 O 0.3002 0.87481 0.02306 0.0
C165 C 0.25031 0.81727 0.04066 0.0
C166 C 0.30826 0.89794 0.01338 0.0
O167 O 0.22085 0.89303 0.01195 0.0
Mg168 Mg 0.2794 0.39376 0.06514 0.0
O169 O 0.27431 0.36873 0.01998 0.0
O170 O 0.31019 0.34939 0.01377 0.0
Mg171 Mg 0.3386 0.36248 0.05528 0.0
C172 C 0.28741 0.35401 0.00447 0.0
C173 C 0.22948 0.4109 0.03819 0.0
O174 O 0.24777 0.41675 0.02093 0.0
O175 O 0.27014 0.35309 0.08593 0.0
O176 O 0.30858 0.33798 0.08135 0.0
O177 O 0.30085 0.43217 0.04962 0.0
O178 O 0.3217 0.40072 0.06565 0.0
C179 C 0.2856 0.33589 0.09078 0.0
C180 C 0.32307 0.42354 0.05451 0.0
O181 O 0.23541 0.39904 0.05935 0.0
Mg182 Mg 0.77937 0.11092 0.02573 0.0
O183 O 0.78736 0.14686 0.06303 0.0
O184 O 0.82701 0.17464 0.06057 0.0
Mg185 Mg 0.84351 0.15623 0.02089 0.0
C186 C 0.80573 0.1685 0.07263 0.0
C187 C 0.72868 0.07086 0.02546 0.0
O188 O 0.7466 0.05646 0.01662 0.0
O189 O 0.76867 0.14073 -0.00317 0.0
O190 O 0.80854 0.1679 0.99361 0.0
O191 O 0.80002 0.08496 0.05029 0.0
O192 O 0.82006 0.11347 0.02256 0.0
C193 C 0.78301 0.16089 0.98722 0.0
C194 C 0.82162 0.09539 0.03974 0.0
O195 O 0.73606 0.09733 0.03316 0.0
Mg196 Mg 0.11806 0.48176 0.26753 0.0
O197 O 0.14116 0.52843 0.27795 0.0
O198 O 0.15213 0.53587 0.32496 0.0
Mg199 Mg 0.13764 0.49638 0.34436 0.0
C200 C 0.15182 0.54449 0.30097 0.0
C201 C 0.09532 0.46822 0.20689 0.0
O202 O 0.07798 0.4544 0.22145 0.0
O203 O 0.15763 0.46519 0.27294 0.0
O204 O 0.16539 0.47263 0.32016 0.0
O205 O 0.07928 0.49584 0.27583 0.0
O206 O 0.10682 0.48406 0.30822 0.0
C207 C 0.17132 0.46299 0.29593 0.0
C208 C 0.08578 0.49406 0.30205 0.0
O209 O 0.1177 0.48194 0.21993 0.0
Mg210 Mg 0.77565 0.8912 0.55949 0.0
O211 O 0.76829 0.86779 0.51342 0.0
O212 O 0.7997 0.84181 0.507 0.0
Mg213 Mg 0.82807 0.84938 0.54819 0.0
C214 C 0.77899 0.85058 0.49774 0.0
C215 C 0.73044 0.92145 0.53869 0.0
O216 O 0.75061 0.93158 0.52517 0.0
O217 O 0.76035 0.85019 0.57815 0.0
O218 O 0.79488 0.82835 0.57254 0.0
O219 O 0.80364 0.92786 0.5467 0.0
O220 O 0.81705 0.89074 0.56 0.0
C221 C 0.77227 0.82976 0.5818 0.0
C222 C 0.82299 0.91454 0.55085 0.0
O223 O 0.73366 0.9032 0.55475 0.0
Mg224 Mg 0.8977 0.01901 0.26033 0.0
O225 O 0.8698 0.9748 0.25602 0.0
O226 O 0.84833 0.97504 0.29499 0.0
Mg227 Mg 0.86377 0.01623 0.32496 0.0
C228 C 0.85277 0.96287 0.27111 0.0
C229 C 0.93001 0.02462 0.21031 0.0
O230 O 0.94535 0.04043 0.23215 0.0
O231 O 0.86168 0.04113 0.25235 0.0
O232 O 0.84482 0.04032 0.2939 0.0
O233 O 0.93127 0.00293 0.28187 0.0
O234 O 0.90076 0.02114 0.30408 0.0
C235 C 0.84489 0.04766 0.26934 0.0
C236 C 0.92126 0.00917 0.30525 0.0
O237 O 0.90634 0.01252 0.21393 0.0
Mg238 Mg 0.28502 0.62863 0.50569 0.0
O239 O 0.29254 0.65419 0.55016 0.0
O240 O 0.33538 0.67737 0.55711 0.0
Mg241 Mg 0.3561 0.66377 0.51872 0.0
C242 C 0.312 0.67165 0.56527 0.0
C243 C 0.22495 0.63228 0.52143 0.0
O244 O 0.23482 0.65699 0.53678 0.0
O245 O 0.286 0.66959 0.48787 0.0
O246 O 0.33027 0.68751 0.49305 0.0
O247 O 0.296 0.59056 0.5204 0.0
O248 O 0.32473 0.62559 0.50783 0.0
C249 C 0.30605 0.68836 0.48423 0.0
C250 C 0.32046 0.60186 0.5173 0.0
O251 O 0.24007 0.61943 0.50713 0.0
Mg252 Mg 0.39761 0.50829 0.74894 0.0
O253 O 0.36445 0.46704 0.74075 0.0
O254 O 0.33837 0.47229 0.77588 0.0
Mg255 Mg 0.35484 0.51237 0.80699 0.0
C256 C 0.34393 0.45835 0.75343 0.0
C257 C 0.43896 0.51174 0.70834 0.0
O258 O 0.45095 0.52194 0.73393 0.0
O259 O 0.3674 0.53507 0.7348 0.0
O260 O 0.34515 0.53831 0.77294 0.0
O261 O 0.42425 0.48759 0.77558 0.0
O262 O 0.39366 0.51026 0.79175 0.0
C263 C 0.3498 0.54473 0.74865 0.0
C264 C 0.41143 0.49536 0.79646 0.0
O265 O 0.41356 0.50255 0.70543 0.0
Mg266 Mg 0.61709 0.98106 0.76206 0.0
O267 O 0.63892 0.02639 0.75965 0.0
O268 O 0.66447 0.04103 0.80126 0.0
Mg269 Mg 0.65601 0.00809 0.83074 0.0
C270 C 0.65627 0.0449 0.77644 0.0
C271 C 0.58169 0.95607 0.7093 0.0
O272 O 0.57007 0.94537 0.72998 0.0
O273 O 0.65599 0.96493 0.75898 0.0
O274 O 0.6766 0.97812 0.80303 0.0
O275 O 0.58226 -0.00265 0.77675 0.0
O276 O 0.6169 0.99203 0.80524 0.0
C277 C 0.67523 0.96501 0.77789 0.0
C278 C 0.59455 0.00078 0.80205 0.0
O279 O 0.60497 0.97177 0.71495 0.0
Mg280 Mg 0.76868 0.61937 0.98298 0.0
O281 O 0.76921 0.64421 0.02678 0.0
O282 O 0.80687 0.67686 0.03724 0.0
Mg283 Mg 0.83211 0.66924 -0.00016 0.0
C284 C 0.78423 0.66454 0.04361 0.0
C285 C 0.71195 0.58018 0.97815 0.0
O286 O 0.72615 0.5607 0.97207 0.0
O287 O 0.76299 0.65624 0.96024 0.0
O288 O 0.80367 0.68428 0.967 0.0
O289 O 0.78661 0.58753 0.0029 0.0
O290 O 0.81053 0.62432 0.98786 0.0
C291 C 0.77937 0.67777 0.95523 0.0
C292 C 0.80998 0.60213 1e-05 0.0
O293 O 0.72368 0.60594 0.98285 0.0
Mg294 Mg 0.90085 0.54719 0.80048 0.0
O295 O 0.87745 0.5023 0.80057 0.0
O296 O 0.8627 0.49913 0.84294 0.0
Mg297 Mg 0.87404 0.54332 0.8688 0.0
C298 C 0.86515 0.48823 0.81785 0.0
C299 C 0.91622 0.51833 0.74413 0.0
O300 O 0.92734 0.50503 0.76256 0.0
O301 O 0.86072 0.56168 0.79396 0.0
O302 O 0.84661 0.55947 0.83667 0.0
O303 O 0.93866 0.53695 0.82073 0.0
O304 O 0.90839 0.55361 0.84458 0.0
C305 C 0.84343 0.56492 0.81138 0.0
C306 C 0.93045 0.54431 0.84491 0.0
O307 O 0.90294 0.5368 0.75293 0.0
Mg308 Mg 0.77603 0.39034 0.51337 0.0
O309 O 0.76303 0.35216 0.47791 0.0
O310 O 0.79534 0.32659 0.48022 0.0
Mg311 Mg 0.82928 0.34897 0.51413 0.0
C312 C 0.77283 0.33057 0.46933 0.0
C313 C 0.73047 0.41984 0.53287 0.0
O314 O 0.73258 0.40129 0.51122 0.0
O315 O 0.76635 0.36206 0.54661 0.0
O316 O 0.80112 0.34005 0.54782 0.0
O317 O 0.79732 0.41583 0.48345 0.0
O318 O 0.81508 0.38779 0.50897 0.0
C319 C 0.77945 0.34517 0.55702 0.0
C320 C 0.81728 0.40393 0.48982 0.0
O321 O 0.73343 0.40179 0.51214 0.0
Mg322 Mg 0.62772 0.50303 0.28893 0.0
O323 O 0.65552 0.54671 0.29703 0.0
O324 O 0.67634 0.55346 0.34091 0.0
Mg325 Mg 0.65922 0.5153 0.36201 0.0
C326 C 0.67234 0.56169 0.317 0.0
C327 C 0.60663 0.51573 0.22977 0.0
O328 O 0.59005 0.52669 0.24537 0.0
O329 O 0.66391 0.48102 0.28671 0.0
O330 O 0.67946 0.48655 0.33251 0.0
O331 O 0.59295 0.52066 0.30548 0.0
O332 O 0.62262 0.50457 0.33156 0.0
C333 C 0.68003 0.4763 0.30666 0.0
C334 C 0.60143 0.51533 0.33 0.0
O335 O 0.62459 0.50475 0.24156 0.0
Zn336 Zn 0.05004 0.01247 0.03587 0.0
Zn337 Zn 0.99338 0.01063 0.01647 0.0
C338 C 0.04605 0.95933 0.05017 0.0
O339 O 0.06244 0.97581 0.07085 0.0
C340 C -9e-05 0.06345 0.00099 0.0
O341 O 0.98947 0.0466 0.97746 0.0
O342 O 0.09016 0.01419 0.04364 0.0
O343 O 0.04633 0.02754 -0.00099 0.0
O344 O 0.01064 0.99499 0.98276 0.0
C345 C 0.09773 -0.00147 0.02371 0.0
O346 O 0.0805 0.9876 0.00129 0.0
O347 O 0.0355 0.97037 0.0306 0.0
C348 C 0.93849 0.00943 0.02364 0.0
O349 O 0.94647 0.00389 0.04858 0.0
O350 O 0.9541 0.00846 0.00439 0.0
O351 O -0.00284 -0.00321 0.05435 0.0
O352 O 0.03346 0.02906 0.06982 0.0
O353 O 0.00534 0.05294 0.0231 0.0
C354 C 0.032 0.01117 0.97827 0.0
C355 C 0.01148 0.01397 0.07464 0.0
Zn356 Zn 0.24994 0.75849 0.29757 0.0
Zn357 Zn 0.26127 0.76564 0.23851 0.0
C358 C 0.21428 0.70577 0.29361 0.0
O359 O 0.20232 0.7225 0.30967 0.0
C360 C 0.29756 0.81682 0.24657 0.0
O361 O 0.30726 0.8002 0.22797 0.0
O362 O 0.24849 0.76265 0.33945 0.0
O363 O 0.2898 0.76764 0.29304 0.0
O364 O 0.28894 0.74404 0.2504 0.0
C365 C 0.2631 0.74743 0.35009 0.0
O366 O 0.2756 0.73187 0.33344 0.0
O367 O 0.23581 0.71645 0.28405 0.0
C368 C 0.24061 0.78301 0.19145 0.0
O369 O 0.23187 0.79736 0.21264 0.0
O370 O 0.25655 0.76663 0.19678 0.0
O371 O 0.22351 0.74936 0.24447 0.0
O372 O 0.22404 0.78057 0.28138 0.0
O373 O 0.27578 0.80677 0.25621 0.0
C374 C 0.30094 0.75327 0.27513 0.0
C375 C 0.21161 0.76601 0.25868 0.0
Zn376 Zn 0.48714 0.02295 0.53845 0.0
Zn377 Zn 0.53903 0.97718 0.50721 0.0
C378 C 0.52957 0.06983 0.56781 0.0
O379 O 0.53438 0.05239 0.58535 0.0
C380 C 0.5304 0.92864 0.46666 0.0
O381 O 0.54837 0.94568 0.45555 0.0
O382 O 0.4502 0.03412 0.53621 0.0
O383 O 0.49134 -0.00118 0.50142 0.0
O384 O 0.52725 0.00153 0.47894 0.0
C385 C 0.44961 0.055 0.52285 0.0
O386 O 0.47127 0.06546 0.51167 0.0
O387 O 0.5134 0.06048 0.54544 0.0
C388 C 0.58241 0.95702 0.53044 0.0
O389 O 0.56108 0.94137 0.5381 0.0
O390 O 0.57898 0.97686 0.51648 0.0
O391 O 0.52101 0.98688 0.54144 0.0
O392 O 0.49573 0.00253 0.57156 0.0
O393 O 0.5223 0.93767 0.48981 0.0
C394 C 0.50409 0.0076 0.48158 0.0
C395 C 0.51457 0.98941 0.56638 0.0
Zn396 Zn 0.28794 0.24114 0.76111 0.0
Zn397 Zn 0.24031 0.2649 0.7822 0.0
C398 C 0.26767 0.20431 0.71027 0.0
O399 O 0.27885 0.18807 0.72537 0.0
C400 C 0.25367 0.29786 0.83794 0.0
O401 O 0.23743 0.31234 0.8265 0.0
O402 O 0.323 0.2309 0.75294 0.0
O403 O 0.29793 0.28318 0.77056 0.0
O404 O 0.25829 0.29125 0.75664 0.0
C405 C 0.33052 0.2404 0.73088 0.0
O406 O 0.31631 0.25622 0.71853 0.0
O407 O 0.26539 0.2285 0.7224 0.0
C408 C 0.19161 0.25873 0.80346 0.0
O409 O 0.2051 0.24351 0.81761 0.0
O410 O 0.20289 0.27163 0.78494 0.0
O411 O 0.23366 0.22188 0.77196 0.0
O412 O 0.27353 0.2189 0.79058 0.0
O413 O 0.2594 0.27677 0.82268 0.0
C414 C 0.28378 0.29884 0.75998 0.0
C415 C 0.24859 0.20861 0.78526 0.0
Zn416 Zn 0.02065 0.98415 0.52448 0.0
Zn417 Zn 0.00788 0.04147 0.51327 0.0
C418 C 0.05702 0.00241 0.57401 0.0
O419 O 0.07105 0.98816 0.55786 0.0
C420 C 0.96941 0.02233 0.46724 0.0
O421 O 0.95631 0.03459 0.48611 0.0
O422 O 0.02411 0.9439 0.52717 0.0
O423 O 0.98115 0.98196 0.5166 0.0
O424 O 0.98093 0.02439 0.53875 0.0
C425 C 0.01787 0.93555 0.55019 0.0
O426 O 0.00924 0.95255 0.56931 0.0
O427 O 0.03419 0.00572 0.56363 0.0
C428 C 0.02031 0.09416 0.49399 0.0
O429 O 0.03672 0.08017 0.48118 0.0
O430 O 0.00537 0.08214 0.51071 0.0
O431 O 0.04772 0.04175 0.52057 0.0
O432 O 0.04517 -0.00068 0.49717 0.0
O433 O 0.99401 0.0218 0.47383 0.0
C434 C 0.96918 -0.00128 0.53081 0.0
C435 C 0.05833 0.02428 0.50544 0.0
Zn436 Zn 0.25146 0.7862 0.74441 0.0
Zn437 Zn 0.26451 0.72809 0.75502 0.0
C438 C 0.19871 0.76926 0.71585 0.0
O439 O 0.2112 0.78176 0.69665 0.0
C440 C 0.31543 0.74994 0.78452 0.0
O441 O 0.30174 0.73838 0.80348 0.0
O442 O 0.25058 0.82705 0.74076 0.0
O443 O 0.26458 0.78616 0.78543 0.0
O444 O 0.24671 0.7419 0.78817 0.0
C445 C 0.23932 0.83861 0.76055 0.0
O446 O 0.22998 0.82366 0.77968 0.0
O447 O 0.21227 0.76723 0.73869 0.0
C448 C 0.28174 0.67719 0.73824 0.0
O449 O 0.29225 0.69263 0.71993 0.0
O450 O 0.26772 0.68773 0.75599 0.0
O451 O 0.24515 0.72845 0.71728 0.0
O452 O 0.27063 0.76871 0.71307 0.0
O453 O 0.30352 0.74919 0.75993 0.0
C454 C 0.2544 0.76746 0.79972 0.0
C455 C 0.25879 0.74382 0.70223 0.0
Zn456 Zn 0.51498 0.03127 0.98496 0.0
Zn457 Zn 0.50795 0.01397 0.03846 0.0
C458 C 0.57007 0.02799 -0.00365 0.0
O459 O 0.56393 0.0092 0.97331 0.0
C460 C 0.45872 0.97888 0.02534 0.0
O461 O 0.47361 0.96379 0.03792 0.0
O462 O 0.52244 0.04158 0.94751 0.0
O463 O 0.50026 0.98971 0.97869 0.0
O464 O 0.52527 0.98414 0.01627 0.0
C465 C 0.5068 0.03413 0.92468 0.0
O466 O 0.4819 0.02103 0.92539 0.0
O467 O 0.55189 0.03975 0.00619 0.0
C468 C 0.48806 0.01905 0.0899 0.0
O469 O 0.47638 0.03544 0.07546 0.0
O470 O 0.50554 0.00688 0.07877 0.0
O471 O 0.51901 0.05661 0.0417 0.0
O472 O 0.49284 0.05677 0.00314 0.0
O473 O 0.46931 0.00374 0.02204 0.0
C474 C 0.51214 0.97395 0.99214 0.0
C475 C 0.50334 0.06863 0.02772 0.0
Zn476 Zn 0.25867 0.22865 0.26815 0.0
Zn477 Zn 0.26034 0.29206 0.28348 0.0
C478 C 0.30511 0.22959 0.24313 0.0
O479 O 0.28638 0.2135 0.22433 0.0
C480 C 0.20165 0.28586 0.27642 0.0
O481 O 0.20617 0.30543 0.26008 0.0
O482 O 0.25574 0.18573 0.26479 0.0
O483 O 0.24964 0.24157 0.30787 0.0
O484 O 0.28094 0.28018 0.3166 0.0
C485 C 0.265 0.17823 0.28752 0.0
O486 O 0.27309 0.19739 0.30995 0.0
O487 O 0.2983 0.24072 0.26623 0.0
C488 C 0.26123 0.34767 0.26773 0.0
O489 O 0.2655 0.33501 0.24312 0.0
O490 O 0.26114 0.33436 0.28891 0.0
O491 O 0.27043 0.28154 0.24426 0.0
O492 O 0.24049 0.24182 0.23344 0.0
O493 O 0.22123 0.27596 0.28635 0.0
C494 C 0.26729 0.2589 0.32522 0.0
C495 C 0.25402 0.26394 0.22605 0.0
Zn496 Zn 0.52235 0.47384 0.01504 0.0
Zn497 Zn 0.50993 0.53041 0.0028 0.0
C498 C 0.55827 0.49743 0.06518 0.0
O499 O 0.57452 0.48506 0.05031 0.0
C500 C 0.47488 0.5069 0.95312 0.0
O501 O 0.45781 0.5163 0.96922 0.0
O502 O 0.5257 0.43366 0.01773 0.0
O503 O 0.48311 0.471 0.00587 0.0
O504 O 0.48196 0.51339 0.02753 0.0
C505 C 0.52405 0.42567 0.04179 0.0
O506 O 0.52041 0.44342 0.06348 0.0
O507 O 0.53455 0.49674 0.05396 0.0
C508 C 0.52445 0.58128 0.98208 0.0
O509 O 0.53953 0.56511 0.96998 0.0
O510 O 0.50841 0.57115 -0.00111 0.0
O511 O 0.54962 0.53079 0.01194 0.0
O512 O 0.54699 0.48861 0.98796 0.0
O513 O 0.49923 0.50975 0.9633 0.0
C514 C 0.47121 0.4873 0.02069 0.0
C515 C 0.56024 0.51342 -0.00335 0.0
Zn516 Zn 0.75251 0.28824 0.2514 0.0
Zn517 Zn 0.76531 0.23161 0.26926 0.0
C518 C 0.70317 0.26812 0.21626 0.0
O519 O 0.71798 0.27886 0.19766 0.0
C520 C 0.81043 0.25244 0.30612 0.0
O521 O 0.79358 0.23682 0.31975 0.0
O522 O 0.75149 0.32888 0.24663 0.0
O523 O 0.76037 0.28892 0.29343 0.0
O524 O 0.74296 0.24509 0.299 0.0
C525 C 0.73377 0.33799 0.26042 0.0
O526 O 0.71898 0.32105 0.27467 0.0
O527 O 0.71409 0.26823 0.24105 0.0
C528 C 0.78851 0.18638 0.25185 0.0
O529 O 0.79835 0.20631 0.23747 0.0
O530 O 0.77166 0.1915 0.26916 0.0
O531 O 0.75012 0.23112 0.22934 0.0
O532 O 0.7752 0.27112 0.22353 0.0
O533 O 0.80288 0.25512 0.28079 0.0
C534 C 0.74855 0.27149 0.30818 0.0
C535 C 0.7639 0.2458 0.21381 0.0
Zn536 Zn 0.02763 0.52603 0.50238 0.0
Zn537 Zn 0.00884 0.49925 0.55281 0.0
C538 C 0.06953 0.5728 0.52618 0.0
O539 O 0.05112 0.58679 0.51851 0.0
C540 C 0.96583 0.46595 0.51307 0.0
O541 O 0.97603 0.44521 0.52151 0.0
O542 O 0.02916 0.53541 0.46274 0.0
O543 O 0.02587 0.48347 0.49654 0.0
O544 O 0.0343 0.47462 0.53985 0.0
C545 C 0.05193 0.53401 0.4542 0.0
O546 O 0.07037 0.52662 0.47083 0.0
O547 O 0.06364 0.54596 0.52304 0.0
C548 C 0.974 0.49822 0.59516 0.0
O549 O 0.96337 0.51299 0.57787 0.0
O550 O 0.99455 0.48842 0.58867 0.0
O551 O 0.02183 0.54111 0.56178 0.0
O552 O 0.00021 0.54509 0.52156 0.0
O553 O 0.97678 0.49118 0.52342 0.0
C554 C 0.03313 0.46737 0.51326 0.0
C555 C 0.00785 0.55455 0.54755 0.0
Zn556 Zn 0.78125 0.74934 0.26147 0.0
Zn557 Zn 0.72814 0.76567 0.27516 0.0
C558 C 0.76739 0.71654 0.20502 0.0
O559 O 0.76969 0.6954 0.2188 0.0
C560 C 0.74159 0.79523 0.33152 0.0
O561 O 0.72716 0.81141 0.32006 0.0
O562 O 0.81958 0.74424 0.26213 0.0
O563 O 0.78509 0.79161 0.27451 0.0
O564 O 0.74585 0.79568 0.25442 0.0
C565 C 0.83073 0.76016 0.24576 0.0
O566 O 0.81659 0.77623 0.23373 0.0
O567 O 0.76875 0.74095 0.21899 0.0
C568 C 0.67876 0.7575 0.29595 0.0
O569 O 0.69201 0.74209 0.31011 0.0
O570 O 0.6903 0.77076 0.27785 0.0
O571 O 0.72367 0.72472 0.25827 0.0
O572 O 0.76058 0.72012 0.28241 0.0
O573 O 0.74605 0.7736 0.31606 0.0
C574 C 0.77028 0.80638 0.26322 0.0
C575 C 0.73653 0.70977 0.27171 0.0
Zn576 Zn 0.75196 0.26026 0.81062 0.0
Zn577 Zn 0.77489 0.27249 0.75591 0.0
C578 C 0.71774 0.20653 0.7837 0.0
O579 O 0.69784 0.21971 0.78814 0.0
C580 C 0.81245 0.32249 0.781 0.0
O581 O 0.82953 0.30606 0.77489 0.0
O582 O 0.74468 0.25761 0.85084 0.0
O583 O 0.79202 0.27185 0.81486 0.0
O584 O 0.79635 0.24791 0.77401 0.0
C585 C 0.75371 0.23717 0.85924 0.0
O586 O 0.76505 0.22116 0.84175 0.0
O587 O 0.74186 0.22007 0.78989 0.0
C588 C 0.76933 0.28914 0.70403 0.0
O589 O 0.75333 0.30214 0.71864 0.0
O590 O 0.78281 0.27366 0.71606 0.0
O591 O 0.73491 0.26096 0.75223 0.0
O592 O 0.72919 0.28424 0.79286 0.0
O593 O 0.7873 0.31288 0.77525 0.0
C594 C 0.8047 0.25643 0.79995 0.0
C595 C 0.72108 0.27512 0.76696 0.0
Zn596 Zn 0.75358 0.72354 0.75659 0.0
Zn597 Zn 0.75501 0.78574 0.77833 0.0
C598 C 0.79946 0.72686 0.72956 0.0
O599 O 0.78031 0.71167 0.71064 0.0
C600 C 0.70725 0.77931 0.80506 0.0
O601 O 0.72467 0.79537 0.82516 0.0
O602 O 0.7513 0.68126 0.74748 0.0
O603 O 0.74648 0.73146 0.7978 0.0
O604 O 0.77693 0.77061 0.80784 0.0
C605 C 0.74744 0.66511 0.76613 0.0
O606 O 0.73779 0.67426 0.78937 0.0
O607 O 0.7931 0.73691 0.75335 0.0
C608 C 0.75884 0.84395 0.76997 0.0
O609 O 0.76063 0.83354 0.7437 0.0
O610 O 0.75873 0.828 0.78894 0.0
O611 O 0.7621 0.77902 0.73749 0.0
O612 O 0.73321 0.73871 0.72525 0.0
O613 O 0.7155 0.77112 0.78162 0.0
C614 C 0.76419 0.74833 0.81544 0.0
C615 C 0.74525 0.7621 0.71911 0.0
Zn616 Zn 0.54744 0.49217 0.53516 0.0
Zn617 Zn 0.5007 0.5305 0.51354 0.0
C618 C 0.53765 0.44632 0.56128 0.0
O619 O 0.55533 0.46536 0.5787 0.0
C620 C 0.53994 0.58161 0.51782 0.0
O621 O 0.55436 0.56891 0.50079 0.0
O622 O 0.5868 0.48942 0.54028 0.0
O623 O 0.54227 0.50036 0.49514 0.0
O624 O 0.51193 0.52014 0.4749 0.0
C625 C 0.58971 0.46931 0.52164 0.0
O626 O 0.56852 0.45534 0.50462 0.0
O627 O 0.52848 0.45285 0.53812 0.0
C628 C 0.45993 0.55426 0.53374 0.0
O629 O 0.47794 0.55917 0.556 0.0
O630 O 0.46471 0.54108 0.51062 0.0
O631 O 0.49595 0.50038 0.53857 0.0
O632 O 0.5332 0.51529 0.56688 0.0
O633 O 0.52536 0.56679 0.53277 0.0
C634 C 0.53215 0.50848 0.47332 0.0
C635 C 0.50763 0.50835 0.56352 0.0
Zn636 Zn 0.99323 0.53191 0.03766 0.0
Zn637 Zn 0.04656 0.48362 0.01553 0.0
C638 C 0.01781 0.57849 0.08238 0.0
O639 O 0.01421 0.55966 0.09962 0.0
C640 C 0.02978 0.4312 0.98564 0.0
O641 O 0.04917 0.44393 0.97262 0.0
O642 O 0.95487 0.53759 0.02924 0.0
O643 O 0.00899 0.5207 0.00123 0.0
O644 O 0.0383 0.50008 0.97983 0.0
C645 C 0.95428 0.55998 0.01835 0.0
O646 O 0.97703 0.57462 0.01255 0.0
O647 O 0.0129 0.57055 0.05583 0.0
C648 C 0.08795 0.45983 0.03902 0.0
O649 O 0.06716 0.44817 0.05083 0.0
O650 O 0.0848 0.47761 0.02242 0.0
O651 O 0.03651 0.50797 0.0485 0.0
O652 O -0.00201 0.50505 0.0655 0.0
O653 O 0.02327 0.44471 0.00768 0.0
C654 C 0.01912 0.51352 0.97864 0.0
C655 C 0.02073 0.49784 0.06536 0.0
H656 H 0.96368 0.17141 0.97505 0.0
H657 H 0.03594 0.17854 0.93293 0.0
H658 H 0.0497 0.14157 0.95657 0.0
H659 H 0.0361 0.10046 0.98042 0.0
H660 H 0.96366 0.09224 0.02155 0.0
H661 H 0.95523 0.13659 0.00754 0.0
C662 C 0.98279 0.16544 0.97161 0.0
C663 C -0.00178 0.17704 0.95145 0.0
C664 C 0.99043 0.14373 0.98492 0.0
C665 C 0.02325 0.16948 0.94778 0.0
C666 C 0.03117 0.14825 0.96125 0.0
C667 C 0.01919 0.10919 0.98734 0.0
C668 C 0.00059 0.09359 0.00202 0.0
C669 C 0.01419 0.13419 0.97857 0.0
C670 C 0.97839 0.10442 0.01058 0.0
C671 C 0.97342 0.12953 0.00225 0.0
H672 H 0.10233 0.76996 0.18938 0.0
H673 H 0.09761 0.8302 0.26238 0.0
H674 H 0.14089 0.82371 0.28388 0.0
H675 H 0.1801 0.80064 0.28186 0.0
H676 H 0.18358 0.74 0.2086 0.0
H677 H 0.14076 0.74696 0.18744 0.0
C678 C 0.11076 0.78177 0.20997 0.0
C679 C 0.0968 0.80055 0.22422 0.0
C680 C 0.13542 0.77779 0.22225 0.0
C681 C 0.10798 0.8156 0.25093 0.0
C682 C 0.13271 0.81188 0.26327 0.0
C683 C 0.17139 0.7889 0.26134 0.0
C684 C 0.18502 0.76983 0.24693 0.0
C685 C 0.14659 0.79295 0.24914 0.0
C686 C 0.17351 0.75477 0.22029 0.0
C687 C 0.14902 0.75875 0.20805 0.0
H688 H 0.50396 0.806 0.39721 0.0
H689 H 0.45219 0.79197 0.463 0.0
H690 H 0.46644 0.84141 0.48426 0.0
H691 H 0.49392 0.88841 0.48448 0.0
H692 H 0.54528 0.90246 0.41837 0.0
H693 H 0.53068 0.85315 0.39686 0.0
C694 C 0.49582 0.81369 0.41624 0.0
C695 C 0.47712 0.79523 0.42854 0.0
C696 C 0.50394 0.84215 0.42827 0.0
C697 C 0.46661 0.80569 0.45306 0.0
C698 C 0.47474 0.83396 0.46526 0.0
C699 C 0.50188 0.88072 0.46532 0.0
C700 C 0.52073 0.89907 0.45312 0.0
C701 C 0.49343 0.85235 0.45306 0.0
C702 C 0.53077 0.88878 0.42825 0.0
C703 C 0.52247 0.86057 0.41594 0.0
H704 H 0.42901 0.23401 0.66385 0.0
H705 H 0.46529 0.22569 0.74596 0.0
H706 H 0.42103 0.21923 0.76346 0.0
H707 H 0.37385 0.22546 0.75754 0.0
H708 H 0.34024 0.24011 0.67643 0.0
H709 H 0.38162 0.23478 0.65635 0.0
C710 C 0.42726 0.23043 0.68544 0.0
C711 C 0.45035 0.2312 0.7038 0.0
C712 C 0.40224 0.22843 0.69565 0.0
C713 C 0.4477 0.22544 0.73148 0.0
C714 C 0.42247 0.22209 0.74157 0.0
C715 C 0.37555 0.22701 0.73539 0.0
C716 C 0.35436 0.23363 0.71857 0.0
C717 C 0.39987 0.2251 0.72423 0.0
C718 C 0.35657 0.23552 0.68989 0.0
C719 C 0.38015 0.23239 0.67835 0.0
H720 H 0.01959 0.82836 0.60689 0.0
H721 H 0.96001 0.79205 0.53587 0.0
H722 H 0.97114 0.83494 0.51439 0.0
H723 H 0.99225 0.88555 0.52005 0.0
H724 H 0.04709 0.92304 0.59438 0.0
H725 H 0.04376 0.877 0.61026 0.0
C726 C 0.00957 0.82949 0.58632 0.0
C727 C 0.98889 0.80716 0.57307 0.0
C728 C 0.01505 0.85469 0.57491 0.0
C729 C 0.9759 0.80907 0.54656 0.0
C730 C 0.98216 0.83364 0.53435 0.0
C731 C 0.004 0.88329 0.53925 0.0
C732 C 0.01999 0.90728 0.55605 0.0
C733 C 0.00085 0.85702 0.54894 0.0
C734 C 0.03476 0.90459 0.58121 0.0
C735 C 0.03276 0.87837 0.5903 0.0
H736 H 0.44133 0.76523 0.80215 0.0
H737 H 0.42604 0.78772 0.8884 0.0
H738 H 0.37909 0.78708 0.87278 0.0
H739 H 0.3412 0.77323 0.83569 0.0
H740 H 0.35514 0.74994 0.74916 0.0
H741 H 0.40378 0.75829 0.76353 0.0
C742 C 0.42781 0.77072 0.81733 0.0
C743 C 0.43685 0.77585 0.84644 0.0
C744 C 0.40055 0.76983 0.80816 0.0
C745 C 0.41927 0.78291 0.86599 0.0
C746 C 0.39244 0.78263 0.85706 0.0
C747 C 0.35496 0.7705 0.8199 0.0
C748 C 0.34469 0.76062 0.79153 0.0
C749 C 0.38264 0.77494 0.82837 0.0
C750 C 0.36265 0.75754 0.77117 0.0
C751 C 0.39042 0.76211 0.77943 0.0
H752 H 0.45725 0.17686 0.06834 0.0
H753 H 0.51127 0.17749 0.14296 0.0
H754 H 0.52481 0.13523 0.12061 0.0
H755 H 0.52154 0.09823 0.07995 0.0
H756 H 0.46811 0.09785 0.00499 0.0
H757 H 0.45427 0.13999 0.02742 0.0
C758 C 0.47187 0.16768 0.0798 0.0
C759 C 0.48313 0.18033 0.10733 0.0
C760 C 0.47983 0.14352 0.06672 0.0
C761 C 0.50225 0.16825 0.12174 0.0
C762 C 0.51005 0.14407 0.10897 0.0
C763 C 0.50696 0.10741 0.06844 0.0
C764 C 0.49593 0.09492 0.04081 0.0
C765 C 0.49906 0.13161 0.08145 0.0
C766 C 0.477 0.10708 0.02625 0.0
C767 C 0.469 0.13114 0.03909 0.0
H768 H 0.10066 0.25785 0.34342 0.0
H769 H 0.06673 0.30166 0.2813 0.0
H770 H 0.10852 0.30734 0.25932 0.0
H771 H 0.15507 0.30093 0.25828 0.0
H772 H 0.1888 0.25571 0.31926 0.0
H773 H 0.14671 0.24917 0.34076 0.0
C774 C 0.10251 0.26873 0.32515 0.0
C775 C 0.08073 0.27955 0.31419 0.0
C776 C 0.1265 0.27149 0.31222 0.0
C777 C 0.08323 0.29319 0.29021 0.0
C778 C 0.10712 0.29643 0.27758 0.0
C779 C 0.15315 0.28942 0.27611 0.0
C780 C 0.17512 0.27897 0.28716 0.0
C781 C 0.1289 0.28574 0.28843 0.0
C782 C 0.17221 0.26396 0.31022 0.0
C783 C 0.14818 0.26034 0.32268 0.0
H784 H 0.97757 0.0513 0.19567 0.0
H785 H 0.90793 0.98617 0.16338 0.0
H786 H 0.92798 0.9759 0.11954 0.0
H787 H 0.96561 0.98473 0.09095 0.0
H788 H 0.03372 0.05223 0.12168 0.0
H789 H 0.01444 0.06138 0.16618 0.0
C790 C 0.96669 0.0349 0.17903 0.0
C791 C 0.94124 0.01949 0.1829 0.0
C792 C 0.97828 0.02921 0.15382 0.0
C793 C 0.92746 -0.00159 0.161 0.0
C794 C 0.939 0.99242 0.13597 0.0
C795 C 0.97613 0.00177 0.10712 0.0
C796 C 0.00094 0.0181 0.10261 0.0
C797 C 0.96444 0.00761 0.13222 0.0
C798 C 0.01459 0.03939 0.1244 0.0
C799 C 0.00348 0.04475 0.14982 0.0
H800 H 0.25819 0.69873 0.4624 0.0
H801 H 0.34433 0.72572 0.46467 0.0
H802 H 0.33792 0.75137 0.42538 0.0
H803 H 0.30852 0.75793 0.38485 0.0
H804 H 0.22266 0.73095 0.38147 0.0
H805 H 0.22816 0.71384 0.42705 0.0
C806 C 0.27553 0.71076 0.45474 0.0
C807 C 0.30169 0.70951 0.46586 0.0
C808 C 0.27176 0.72525 0.43181 0.0
C809 C 0.32395 0.72579 0.45616 0.0
C810 C 0.32035 0.74045 0.4336 0.0
C811 C 0.29105 0.74918 0.39471 0.0
C812 C 0.26532 0.74541 0.3802 0.0
C813 C 0.29446 0.73909 0.42043 0.0
C814 C 0.24263 0.73412 0.3927 0.0
C815 C 0.24582 0.72411 0.41852 0.0
H816 H 0.59983 0.97218 0.66113 0.0
H817 H 0.52765 0.93719 0.69594 0.0
H818 H 0.50017 0.94298 0.65383 0.0
H819 H 0.49639 0.96273 0.60925 0.0
H820 H 0.56853 -0.00288 0.57442 0.0
H821 H 0.59629 0.98669 0.61418 0.0
C822 C 0.57812 0.96543 0.6593 0.0
C823 C 0.56581 0.95474 0.6818 0.0
C824 C 0.5624 0.96893 0.6351 0.0
C825 C 0.53767 0.94569 0.67898 0.0
C826 C 0.52188 0.94913 0.65498 0.0
C827 C 0.51818 0.96756 0.61035 0.0
C828 C 0.53054 0.98042 0.58908 0.0
C829 C 0.53397 0.96153 0.6333 0.0
C830 C 0.55872 0.98668 0.59045 0.0
C831 C 0.57457 0.98095 0.61325 0.0
H832 H 0.30733 0.31939 0.96515 0.0
H833 H 0.24364 0.3662 0.97522 0.0
H834 H 0.22808 0.35318 0.92497 0.0
H835 H 0.23304 0.32977 0.87786 0.0
H836 H 0.29546 0.28157 0.86724 0.0
H837 H 0.311 0.29394 0.91793 0.0
C838 C 0.28994 0.32662 0.95643 0.0
C839 C 0.27681 0.34391 0.97417 0.0
C840 C 0.28094 0.31898 0.92731 0.0
C841 C 0.25421 0.3529 0.96231 0.0
C842 C 0.24531 0.34554 0.93345 0.0
C843 C 0.25013 0.32201 0.88656 0.0
C844 C 0.26325 0.30501 0.86866 0.0
C845 C 0.25866 0.32886 0.91572 0.0
C846 C 0.28506 0.29478 0.88047 0.0
C847 C 0.29393 0.30185 0.90948 0.0
H848 H 0.89666 0.00055 0.35208 0.0
H849 H 0.97359 0.00622 0.3196 0.0
H850 H 0.99546 0.00695 0.36725 0.0
H851 H 0.99317 0.01289 0.41893 0.0
H852 H 0.91585 0.00946 0.45062 0.0
H853 H 0.89359 0.00094 0.40244 0.0
C854 C 0.91815 0.00187 0.35534 0.0
C855 C 0.93356 0.00413 0.33256 0.0
C856 C 0.93053 0.00291 0.38271 0.0
C857 C 0.96132 0.00468 0.33694 0.0
C858 C 0.97384 0.00528 0.36419 0.0
C859 C 0.97142 0.00972 0.41522 0.0
C860 C 0.9562 0.0123 0.43823 0.0
C861 C 0.95875 0.00544 0.38738 0.0
C862 C 0.92803 0.00805 0.43321 0.0
C863 C 0.91527 0.00317 0.40568 0.0
H864 H 0.26527 0.66558 0.58943 0.0
H865 H 0.3467 0.71388 0.60112 0.0
H866 H 0.33681 0.74226 0.64331 0.0
H867 H 0.30503 0.75311 0.67732 0.0
H868 H 0.22419 0.70375 0.66581 0.0
H869 H 0.23369 0.67652 0.62269 0.0
C870 C 0.28092 0.68228 0.60114 0.0
C871 C 0.30666 0.68753 0.59201 0.0
C872 C 0.27509 0.69864 0.62523 0.0
C873 C 0.32669 0.70923 0.60766 0.0
C874 C 0.32103 0.72563 0.63173 0.0
C875 C 0.28943 0.73674 0.66501 0.0
C876 C 0.26391 0.73054 0.67443 0.0
C877 C 0.29526 0.72062 0.64065 0.0
C878 C 0.24397 0.70889 0.65877 0.0
C879 C 0.24941 0.69323 0.63425 0.0
H880 H 0.54243 0.00408 0.80448 0.0
H881 H 0.62034 0.02647 0.85374 0.0
H882 H 0.59986 0.04347 0.89511 0.0
H883 H 0.5597 0.04683 0.91829 0.0
H884 H 0.48108 0.02006 0.87066 0.0
H885 H 0.50208 0.01062 0.82724 0.0
C886 C 0.55496 0.01306 0.82418 0.0
C887 C 0.58282 0.01373 0.82622 0.0
C888 C 0.54292 0.02197 0.84806 0.0
C889 C 0.59883 0.02532 0.8518 0.0
C890 C 0.58713 0.03513 0.87541 0.0
C891 C 0.54704 0.0394 0.89837 0.0
C892 C 0.51883 0.03383 0.89774 0.0
C893 C 0.55915 0.0328 0.87394 0.0
C894 C 0.50284 0.02432 0.87171 0.0
C895 C 0.51483 0.01877 0.84695 0.0
H896 H 0.24221 0.32812 0.12206 0.0
H897 H 0.31422 0.2968 0.10514 0.0
H898 H 0.30884 0.26886 0.14335 0.0
H899 H 0.28719 0.25782 0.18561 0.0
H900 H 0.21512 0.28803 0.20292 0.0
H901 H 0.21681 0.31146 0.16068 0.0
C902 C 0.25642 0.31475 0.12632 0.0
C903 C 0.27883 0.3151 0.11075 0.0
C904 C 0.25328 0.29849 0.14863 0.0
C905 C 0.29691 0.29741 0.11674 0.0
C906 C 0.29392 0.28133 0.13873 0.0
C907 C 0.27133 0.26866 0.17948 0.0
C908 C 0.25076 0.27075 0.19696 0.0
C909 C 0.27266 0.28232 0.15535 0.0
C910 C 0.23077 0.28557 0.18935 0.0
C911 C 0.23194 0.29925 0.16537 0.0
H912 H 0.20865 0.9639 0.05617 0.0
H913 H 0.17566 0.89674 0.98712 0.0
H914 H 0.13595 0.91726 0.97967 0.0
H915 H 0.11048 0.95358 0.99286 0.0
H916 H 0.14175 0.01995 0.06298 0.0
H917 H 0.18256 0.0005 0.06975 0.0
C918 C 0.19278 0.95376 0.03948 0.0
C919 C 0.19516 0.92881 0.02221 0.0
C920 C 0.16984 0.96558 0.03541 0.0
C921 C 0.17436 0.9159 0.00075 0.0
C922 C 0.15166 0.92765 -0.00359 0.0
C923 C 0.12629 0.96404 0.00951 0.0
C924 C 0.12321 0.98834 0.02727 0.0
C925 C 0.14923 0.95244 0.0136 0.0
C926 C 0.14373 0.0013 0.04897 0.0
C927 C 0.16699 0.99013 0.05287 0.0
H928 H 0.68024 0.52768 0.9679 0.0
H929 H 0.67866 0.61519 -0.0041 0.0
H930 H 0.63156 0.60224 0.00381 0.0
H931 H 0.59118 0.56605 0.00409 0.0
H932 H 0.59239 0.47861 0.97545 0.0
H933 H 0.63928 0.49161 0.96652 0.0
C934 C 0.66957 0.54393 0.97563 0.0
C935 C 0.68301 0.57231 0.98141 0.0
C936 C 0.64245 0.53638 0.98014 0.0
C937 C 0.66883 0.59314 0.99129 0.0
C938 C 0.64189 0.58578 -0.00411 0.0
C939 C 0.6017 0.54984 -0.00412 0.0
C940 C 0.58837 0.52142 0.99057 0.0
C941 C 0.62858 0.55745 0.99062 0.0
C942 C 0.60219 0.50067 0.9797 0.0
C943 C 0.62902 0.50807 0.97462 0.0
H944 H 0.68597 0.4467 0.25534 0.0
H945 H 0.71382 0.45885 0.3446 0.0
H946 H 0.73587 0.41886 0.33722 0.0
H947 H 0.74192 0.3765 0.30693 0.0
H948 H 0.71537 0.36376 0.21778 0.0
H949 H 0.69844 0.408 0.22346 0.0
C950 C 0.6973 0.44096 0.27309 0.0
C951 C 0.69765 0.45556 0.30059 0.0
C952 C 0.71005 0.41767 0.26875 0.0
C953 C 0.71277 0.44792 0.32324 0.0
C954 C 0.72542 0.42493 0.3191 0.0
C955 C 0.73314 0.38394 0.28865 0.0
C956 C 0.72992 0.36724 0.26201 0.0
C957 C 0.7234 0.4091 0.29218 0.0
C958 C 0.71832 0.37666 0.23842 0.0
C959 C 0.70843 0.40176 0.24175 0.0
H960 H 0.84376 0.45528 0.48322 0.0
H961 H 0.84842 0.36729 0.47163 0.0
H962 H 0.8971 0.37966 0.47107 0.0
H963 H 0.93813 0.41521 0.48645 0.0
H964 H 0.9336 0.50331 0.50259 0.0
H965 H 0.88526 0.4914 0.48808 0.0
C966 C 0.85538 0.4389 0.47933 0.0
C967 C 0.84299 0.41055 0.47822 0.0
C968 C 0.88347 0.44626 0.48057 0.0
C969 C 0.85793 0.38931 0.4732 0.0
C970 C 0.88571 0.39639 0.47301 0.0
C971 C 0.92667 0.43186 0.48611 0.0
C972 C 0.93912 0.45991 0.4966 0.0
C973 C 0.8988 0.42478 0.47878 0.0
C974 C 0.92429 0.48141 0.49523 0.0
C975 C 0.89661 0.47462 0.48703 0.0
H976 H 0.31056 0.07871 0.32818 0.0
H977 H 0.34465 0.07951 0.24879 0.0
H978 H 0.31728 0.1128 0.23535 0.0
H979 H 0.28849 0.14696 0.24921 0.0
H980 H 0.25678 0.14755 0.32977 0.0
H981 H 0.27777 0.10817 0.33935 0.0
C982 C 0.31176 0.08579 0.30774 0.0
C983 C 0.33004 0.07687 0.2898 0.0
C984 C 0.29626 0.10529 0.30029 0.0
C985 C 0.33097 0.08612 0.26322 0.0
C986 C 0.31533 0.10526 0.25549 0.0
C987 C 0.2854 0.13769 0.26833 0.0
C988 C 0.27097 0.14991 0.28869 0.0
C989 C 0.29851 0.1157 0.27423 0.0
C990 C 0.26766 0.13828 0.31373 0.0
C991 C 0.27987 0.11595 0.31934 0.0
H992 H 0.35872 0.12128 0.49174 0.0
H993 H 0.31158 0.05935 0.53352 0.0
H994 H 0.35119 0.03905 0.54379 0.0
H995 H 0.39929 0.03801 0.53946 0.0
H996 H 0.44534 0.10038 0.49703 0.0
H997 H 0.40623 0.1212 0.48862 0.0
C998 C 0.3571 0.10351 0.50333 0.0
C999 C 0.3322 0.09194 0.51185 0.0
C1000 C 0.37984 0.09182 0.50895 0.0
C1001 C 0.33052 0.06875 0.5267 0.0
C1002 C 0.35317 0.05706 0.53254 0.0
C1003 C 0.40074 0.05619 0.52846 0.0
C1004 C 0.42529 0.06742 0.51882 0.0
C1005 C 0.37794 0.06825 0.52353 0.0
C1006 C 0.42677 0.09107 0.50462 0.0
C1007 C 0.40437 0.10312 0.49978 0.0
H1008 H 0.66272 0.59094 0.27391 0.0
H1009 H 0.71687 0.59473 0.34921 0.0
H1010 H 0.74239 0.64006 0.34109 0.0
H1011 H 0.74889 0.67926 0.31302 0.0
H1012 H 0.69327 0.67611 0.2391 0.0
H1013 H 0.669 0.62991 0.24617 0.0
C1014 C 0.68015 0.6016 0.28854 0.0
C1015 C 0.68781 0.58934 0.31214 0.0
C1016 C 0.69456 0.62783 0.28395 0.0
C1017 C 0.71038 0.60366 0.33093 0.0
C1018 C 0.72507 0.62959 0.32627 0.0
C1019 C 0.7316 0.66832 0.29835 0.0
C1020 C 0.72297 0.68109 0.27552 0.0
C1021 C 0.71731 0.64194 0.30289 0.0
C1022 C 0.70031 0.66681 0.25689 0.0
C1023 C 0.68639 0.64037 0.26091 0.0
H1024 H 0.8718 0.44295 0.84257 0.0
H1025 H 0.83005 0.46761 0.77103 0.0
H1026 H 0.80779 0.41838 0.75461 0.0
H1027 H 0.80128 0.36808 0.76 0.0
H1028 H 0.84747 0.34279 0.82801 0.0
H1029 H 0.86693 0.39237 0.84669 0.0
C1030 C 0.85776 0.43739 0.82345 0.0
C1031 C 0.85233 0.45858 0.80802 0.0
C1032 C 0.84587 0.409 0.81365 0.0
C1033 C 0.83447 0.45141 0.78308 0.0
C1034 C 0.82173 0.42336 0.77378 0.0
C1035 C 0.81538 0.37361 0.77908 0.0
C1036 C 0.82272 0.35219 0.79301 0.0
C1037 C 0.82736 0.40197 0.78883 0.0
C1038 C 0.84148 0.3592 0.81724 0.0
C1039 C 0.85261 0.38744 0.82782 0.0
H1040 H 0.99442 0.83709 0.06625 0.0
H1041 H 0.07111 0.84639 0.11634 0.0
H1042 H 0.08781 0.88971 0.09773 0.0
H1043 H 0.07761 0.92905 0.07491 0.0
H1044 H 0.00019 0.92148 0.02727 0.0
H1045 H 0.98675 0.87313 0.0372 0.0
C1046 C 0.01501 0.84819 0.07268 0.0
C1047 C 0.03122 0.83894 0.09337 0.0
C1048 C 0.02413 0.87365 0.06278 0.0
C1049 C 0.05803 0.85327 0.10087 0.0
C1050 C 0.06754 0.87817 0.09038 0.0
C1051 C 0.05792 0.91663 0.06636 0.0
C1052 C 0.0396 0.92884 0.05103 0.0
C1053 C 0.05026 0.88927 0.07262 0.0
C1054 C 0.01447 0.91247 0.03937 0.0
C1055 C 0.00679 0.88494 0.04515 0.0
H1056 H 0.90462 0.23161 0.87123 0.0
H1057 H 0.93178 0.22032 0.78847 0.0
H1058 H 0.88983 0.23019 0.76726 0.0
H1059 H 0.84562 0.24222 0.7724 0.0
H1060 H 0.81968 0.25614 0.8556 0.0
H1061 H 0.86103 0.2449 0.87659 0.0
C1062 C 0.90126 0.23105 0.84857 0.0
C1063 C 0.92104 0.22498 0.83139 0.0
C1064 C 0.87739 0.23726 0.83665 0.0
C1065 C 0.91673 0.22497 0.80209 0.0
C1066 C 0.89278 0.23055 0.78996 0.0
C1067 C 0.84902 0.24266 0.7951 0.0
C1068 C 0.82969 0.2498 0.81243 0.0
C1069 C 0.873 0.23673 0.80705 0.0
C1070 C 0.83439 0.25073 0.84185 0.0
C1071 C 0.85796 0.24426 0.85386 0.0
H1072 H 0.54129 0.1882 0.64116 0.0
H1073 H 0.48691 0.19807 0.57076 0.0
H1074 H 0.4939 0.15432 0.54432 0.0
H1075 H 0.51028 0.11048 0.54377 0.0
H1076 H 0.56171 0.09824 0.61543 0.0
H1077 H 0.56179 0.1461 0.63833 0.0
C1078 C 0.53138 0.18105 0.61983 0.0
C1079 C 0.51329 0.19616 0.60814 0.0
C1080 C 0.53494 0.15542 0.60495 0.0
C1081 C 0.50062 0.18662 0.58045 0.0
C1082 C 0.50464 0.16162 0.56526 0.0
C1083 C 0.52203 0.11841 0.56411 0.0
C1084 C 0.5356 0.10058 0.57805 0.0
C1085 C 0.52101 0.14539 0.57768 0.0
C1086 C 0.55087 0.11141 0.60432 0.0
C1087 C 0.55076 0.13872 0.61754 0.0
H1088 H 0.55613 0.76251 0.29893 0.0
H1089 H 0.57143 0.73242 0.37832 0.0
H1090 H 0.61868 0.73612 0.3715 0.0
H1091 H 0.65491 0.74462 0.34177 0.0
H1092 H 0.64067 0.77467 0.26232 0.0
H1093 H 0.59373 0.77437 0.27044 0.0
C1094 C 0.56988 0.75706 0.31484 0.0
C1095 C 0.56019 0.74684 0.33887 0.0
C1096 C 0.59712 0.75898 0.31069 0.0
C1097 C 0.57827 0.73999 0.35941 0.0
C1098 C 0.60533 0.74208 0.35557 0.0
C1099 C 0.64156 0.75116 0.32624 0.0
C1100 C 0.65104 0.75926 0.30134 0.0
C1101 C 0.61481 0.75094 0.33104 0.0
C1102 C 0.63371 0.76821 0.28163 0.0
C1103 C 0.6069 0.76799 0.28624 0.0
H1104 H 0.98625 0.20511 0.46277 0.0
H1105 H 0.05242 0.20378 0.41208 0.0
H1106 H 0.06281 0.16304 0.43215 0.0
H1107 H 0.05058 0.12529 0.46075 0.0
H1108 H 0.98372 0.12603 0.51045 0.0
H1109 H 0.97626 0.16962 0.49412 0.0
C1110 C 0.00318 0.19619 0.45628 0.0
C1111 C 0.01834 0.20746 0.43565 0.0
C1112 C 0.00878 0.17246 0.46755 0.0
C1113 C 0.04031 0.19561 0.42781 0.0
C1114 C 0.0462 0.17218 0.43919 0.0
C1115 C 0.03451 0.13509 0.46824 0.0
C1116 C 0.01756 0.12218 0.48661 0.0
C1117 C 0.03016 0.16002 0.45854 0.0
C1118 C -0.00299 0.13538 0.49626 0.0
C1119 C 0.99268 0.1603 0.48686 0.0
H1120 H 0.58118 0.25256 0.17164 0.0
H1121 H 0.57303 0.25259 0.2605 0.0
H1122 H 0.62132 0.25404 0.27003 0.0
H1123 H 0.66617 0.25906 0.25348 0.0
H1124 H 0.67395 0.26027 0.16465 0.0
H1125 H 0.62523 0.25417 0.15469 0.0
C1126 C 0.5899 0.25277 0.19311 0.0
C1127 C 0.57362 0.25285 0.2154 0.0
C1128 C 0.61755 0.25379 0.19841 0.0
C1129 C 0.58517 0.25267 0.243 0.0
C1130 C 0.61276 0.25353 0.24845 0.0
C1131 C 0.65718 0.25755 0.23187 0.0
C1132 C 0.67365 0.26036 0.20985 0.0
C1133 C 0.6292 0.2546 0.22637 0.0
C1134 C 0.66171 0.25839 0.18199 0.0
C1135 C 0.63388 0.25498 0.17629 0.0
H1136 H 0.46307 0.84746 0.94156 0.0
H1137 H 0.54659 0.84091 0.94877 0.0
H1138 H 0.55944 0.89055 0.97121 0.0
H1139 H 0.54652 0.93663 0.98737 0.0
H1140 H 0.46308 0.94273 0.97362 0.0
H1141 H 0.45052 0.89254 0.95567 0.0
C1142 C 0.48409 0.85677 0.94832 0.0
C1143 C 0.50381 0.84046 0.94386 0.0
C1144 C 0.49129 0.88534 0.96014 0.0
C1145 C 0.53102 0.85304 0.95209 0.0
C1146 C 0.53834 0.88139 0.96491 0.0
C1147 C 0.52563 0.92675 0.98065 0.0
C1148 C 0.50566 0.9432 0.98231 0.0
C1149 C 0.51863 0.89787 0.96889 0.0
C1150 C 0.47873 0.93043 0.97292 0.0
C1151 C 0.47153 0.90174 0.96251 0.0
H1152 H 0.92462 0.75102 0.71909 0.0
H1153 H 0.89525 0.71211 0.63341 0.0
H1154 H 0.8491 0.70402 0.64567 0.0
H1155 H 0.8171 0.71056 0.67972 0.0
H1156 H 0.84537 0.75141 0.76519 0.0
H1157 H 0.89201 0.75651 0.75405 0.0
C1158 C 0.90807 0.74027 0.70337 0.0
C1159 C 0.91312 0.73203 0.67545 0.0
C1160 C 0.88148 0.73653 0.7104 0.0
C1161 C 0.89167 0.71867 0.65498 0.0
C1162 C 0.86534 0.71413 0.66197 0.0
C1163 C 0.83341 0.72054 0.69601 0.0
C1164 C 0.82775 0.73069 0.72322 0.0
C1165 C 0.85998 0.72349 0.68943 0.0
C1166 C 0.84918 0.74359 0.74401 0.0
C1167 C 0.87584 0.74639 0.73768 0.0
H1168 H 0.05552 0.99488 0.85023 0.0
H1169 H 0.13408 0.03922 0.88895 0.0
H1170 H 0.11709 0.04491 0.93508 0.0
H1171 H 0.08094 0.03444 0.9648 0.0
H1172 H 0.00294 0.98704 0.92728 0.0
H1173 H 0.0186 0.98532 0.88027 0.0
C1174 C 0.06871 0.00624 0.86874 0.0
C1175 C 0.09597 0.01672 0.86631 0.0
C1176 C 0.05898 0.00854 0.8954 0.0
C1177 C 0.11307 0.0309 0.89042 0.0
C1178 C 0.10337 0.03411 0.91677 0.0
C1179 C 0.06724 0.0239 0.94635 0.0
C1180 C 0.04081 0.01083 0.94957 0.0
C1181 C 0.07653 0.02251 0.91959 0.0
C1182 C 0.02343 -0.00287 0.92541 0.0
C1183 C 0.03236 0.9962 0.89852 0.0
H1184 H 0.80195 0.30815 0.58375 0.0
H1185 H 0.73766 0.35488 0.58692 0.0
H1186 H 0.7277 0.33971 0.63204 0.0
H1187 H 0.73989 0.31684 0.67229 0.0
H1188 H 0.80507 0.27141 0.66974 0.0
H1189 H 0.81199 0.28247 0.62237 0.0
C1190 C 0.78556 0.31485 0.5941 0.0
C1191 C 0.77082 0.33295 0.58213 0.0
C1192 C 0.78028 0.30652 0.62021 0.0
C1193 C 0.74945 0.34109 0.59573 0.0
C1194 C 0.74381 0.33253 0.62159 0.0
C1195 C 0.75554 0.30922 0.66133 0.0
C1196 C 0.77221 0.29367 0.67462 0.0
C1197 C 0.75955 0.31586 0.63431 0.0
C1198 C 0.79211 0.28359 0.66001 0.0
C1199 C 0.79609 0.28992 0.63297 0.0
H1200 H 0.4188 0.02882 0.38745 0.0
H1201 H 0.48549 0.02597 0.33797 0.0
H1202 H 0.51436 0.02193 0.3798 0.0
H1203 H 0.52025 0.01689 0.43006 0.0
H1204 H 0.45202 0.01434 0.47804 0.0
H1205 H 0.42466 0.02359 0.43775 0.0
C1206 C 0.43967 0.02746 0.38591 0.0
C1207 C 0.44991 0.02756 0.35965 0.0
C1208 C 0.45609 0.02447 0.40996 0.0
C1209 C 0.477 0.02563 0.35792 0.0
C1210 C 0.4936 0.02343 0.38186 0.0
C1211 C 0.49952 0.01873 0.43183 0.0
C1212 C 0.48857 0.01573 0.45745 0.0
C1213 C 0.48331 0.02252 0.40796 0.0
C1214 C 0.46141 0.01759 0.45903 0.0
C1215 C 0.44551 0.02245 0.43577 0.0
H1216 H 0.79886 0.71459 0.08018 0.0
H1217 H 0.75139 0.63021 0.07184 0.0
H1218 H 0.74077 0.63921 0.12034 0.0
H1219 H 0.74729 0.66986 0.1664 0.0
H1220 H 0.79213 0.75522 0.17446 0.0
H1221 H 0.80117 0.74718 0.12504 0.0
C1222 C 0.78602 0.69829 0.08894 0.0
C1223 C 0.77617 0.67169 0.07237 0.0
C1224 C 0.77949 0.70376 0.1169 0.0
C1225 C 0.75927 0.6509 0.08399 0.0
C1226 C 0.75322 0.65597 0.11184 0.0
C1227 C 0.75867 0.68681 0.15717 0.0
C1228 C 0.76903 0.71304 0.17407 0.0
C1229 C 0.76352 0.68215 0.12864 0.0
C1230 C 0.78369 0.73489 0.16183 0.0
C1231 C 0.78906 0.73023 0.1336 0.0
H1232 H 0.07124 0.03266 0.70716 0.0
H1233 H 0.13047 0.98014 0.6975 0.0
H1234 H 0.12195 0.97568 0.64617 0.0
H1235 H 0.09641 0.98478 0.60413 0.0
H1236 H 0.03562 0.03537 0.61322 0.0
H1237 H 0.04627 0.04276 0.6647 0.0
C1238 C 0.08238 0.02035 0.69382 0.0
C1239 C 0.10139 0.00666 0.7062 0.0
C1240 C 0.07715 0.01757 0.66423 0.0
C1241 C 0.1156 0.99075 0.68858 0.0
C1242 C 0.11079 0.98823 0.6592 0.0
C1243 C 0.0857 -0.00225 0.6173 0.0
C1244 C 0.06529 0.00957 0.60483 0.0
C1245 C 0.09146 0.00132 0.64681 0.0
C1246 C 0.05145 0.02607 0.62228 0.0
C1247 C 0.05746 0.03021 0.65172 0.0
H1248 H 0.74678 0.34547 0.42434 0.0
H1249 H 0.77271 0.27452 0.45486 0.0
H1250 H 0.76276 0.2474 0.40719 0.0
H1251 H 0.75386 0.24704 0.35573 0.0
H1252 H 0.73447 0.32117 0.3257 0.0
H1253 H 0.73418 0.34362 0.37393 0.0
C1254 C 0.74941 0.32376 0.42071 0.0
C1255 C 0.76046 0.31199 0.44294 0.0
C1256 C 0.74515 0.30898 0.39309 0.0
C1257 C 0.76425 0.284 0.43792 0.0
C1258 C 0.75873 0.26857 0.41067 0.0
C1259 C 0.74898 0.26782 0.35983 0.0
C1260 C 0.74416 0.28242 0.33719 0.0
C1261 C 0.7503 0.2813 0.38786 0.0
C1262 C 0.73819 0.30948 0.34273 0.0
C1263 C 0.73812 0.32241 0.37037 0.0
H1264 H 0.46539 0.99226 0.21176 0.0
H1265 H 0.39595 0.02793 0.19089 0.0
H1266 H 0.40993 0.03311 0.14418 0.0
H1267 H 0.44297 0.03022 0.11055 0.0
H1268 H 0.51265 0.99483 0.13068 0.0
H1269 H 0.49745 0.9869 0.17665 0.0
C1270 C 0.45313 0.00085 0.19688 0.0
C1271 C 0.42974 0.00989 0.2049 0.0
C1272 C 0.46148 0.00414 0.17015 0.0
C1273 C 0.4141 0.02095 0.18534 0.0
C1274 C 0.42212 0.02402 0.15865 0.0
C1275 C 0.45492 0.0208 0.12498 0.0
C1276 C 0.47909 0.01347 0.11743 0.0
C1277 C 0.44602 0.01621 0.1511 0.0
C1278 C 0.49405 0.00082 0.13613 0.0
C1279 C 0.48535 0.99627 0.16236 0.0
H1280 H 0.80961 0.72075 0.93309 0.0
H1281 H 0.73003 0.66843 0.9244 0.0
H1282 H 0.7181 0.68663 0.88125 0.0
H1283 H 0.73128 0.71407 0.8436 0.0
H1284 H 0.81025 0.76718 0.85206 0.0
H1285 H 0.82126 0.75211 0.89761 0.0
C1286 C 0.7895 0.71366 0.92207 0.0
C1287 C 0.77092 0.69292 0.93203 0.0
C1288 C 0.7827 0.72411 0.89695 0.0
C1289 C 0.7449 0.68418 0.91734 0.0
C1290 C 0.73803 0.6945 0.89248 0.0
C1291 C 0.75086 0.72249 0.85549 0.0
C1292 C 0.77004 0.74144 0.84426 0.0
C1293 C 0.75697 0.71387 0.8817 0.0
C1294 C 0.79513 0.75252 0.86018 0.0
C1295 C 0.80147 0.74384 0.8862 0.0
H1296 H 0.85676 0.0886 0.00143 0.0
H1297 H 0.83814 0.07158 0.08432 0.0
H1298 H 0.87175 0.04179 0.08575 0.0
H1299 H 0.90469 0.01908 0.06266 0.0
H1300 H 0.9228 0.03491 0.97917 0.0
H1301 H 0.89034 0.06603 0.97835 0.0
C1302 C 0.86055 0.07887 0.02004 0.0
C1303 C 0.84533 0.08245 0.04289 0.0
C1304 C 0.87912 0.06094 0.02023 0.0
C1305 C 0.84987 0.06925 0.06663 0.0
C1306 C 0.86883 0.05202 0.06731 0.0
C1307 C 0.90139 0.02909 0.04412 0.0
C1308 C 0.91604 0.02453 0.02096 0.0
C1309 C 0.88313 0.04727 0.044 0.0
C1310 C 0.91155 0.03777 -0.00284 0.0
C1311 C 0.89324 0.05584 -0.00319 0.0
H1312 H 0.3726 0.41003 0.06063 0.0
H1313 H 0.3316 0.47313 0.03282 0.0
H1314 H 0.37411 0.50004 0.02215 0.0
H1315 H 0.42323 0.50504 0.0194 0.0
H1316 H 0.46302 0.44013 0.04466 0.0
H1317 H 0.421 0.41486 0.05796 0.0
C1318 C 0.37289 0.42959 0.05214 0.0
C1319 C 0.34887 0.43939 0.04741 0.0
C1320 C 0.39737 0.44486 0.04582 0.0
C1321 C 0.34976 0.46495 0.03655 0.0
C1322 C 0.37411 0.48046 0.03052 0.0
C1323 C 0.42263 0.48561 0.02824 0.0
C1324 C 0.44612 0.47455 0.03135 0.0
C1325 C 0.39809 0.47061 0.035 0.0
C1326 C 0.44513 0.44905 0.04224 0.0
C1327 C 0.42111 0.43453 0.04973 0.0
H1328 H 0.30722 0.56307 0.76921 0.0
H1329 H 0.36134 0.57519 0.70523 0.0
H1330 H 0.34312 0.61621 0.69458 0.0
H1331 H 0.31529 0.65141 0.70721 0.0
H1332 H 0.26307 0.6398 0.77302 0.0
H1333 H 0.27727 0.59574 0.77924 0.0
C1334 C 0.31493 0.57443 0.75268 0.0
C1335 C 0.33591 0.56623 0.73829 0.0
C1336 C 0.30492 0.5983 0.74727 0.0
C1337 C 0.34526 0.58103 0.71668 0.0
C1338 C 0.33497 0.60461 0.71074 0.0
C1339 C 0.30679 0.63909 0.72271 0.0
C1340 C 0.28833 0.64908 0.73984 0.0
C1341 C 0.31536 0.61391 0.72649 0.0
C1342 C 0.27743 0.63277 0.75971 0.0
C1343 C 0.28555 0.60755 0.76329 0.0
H1344 H 0.18301 0.65432 0.54088 0.0
H1345 H 0.20459 0.57647 0.50538 0.0
H1346 H 0.15924 0.55086 0.50723 0.0
H1347 H 0.11302 0.55057 0.51634 0.0
H1348 H 0.08925 0.62819 0.54797 0.0
H1349 H 0.13594 0.65376 0.55085 0.0
C1350 C 0.17773 0.63176 0.53364 0.0
C1351 C 0.19712 0.61744 0.52281 0.0
C1352 C 0.1513 0.61704 0.53427 0.0
C1353 C 0.19002 0.58816 0.5135 0.0
C1354 C 0.1641 0.57338 0.51468 0.0
C1355 C 0.11811 0.57299 0.52434 0.0
C1356 C 0.09786 0.58749 0.53205 0.0
C1357 C 0.14455 0.58762 0.52475 0.0
C1358 C 0.10464 0.61662 0.54195 0.0
C1359 C 0.13125 0.63124 0.54345 0.0
H1360 H 0.70859 0.94681 0.81535 0.0
H1361 H 0.68593 0.94233 0.72582 0.0
H1362 H 0.71357 0.90713 0.71546 0.0
H1363 H 0.73946 0.87374 0.73201 0.0
H1364 H 0.75889 0.87532 0.82164 0.0
H1365 H 0.73757 0.91597 0.83178 0.0
C1366 C 0.71006 0.93854 0.79353 0.0
C1367 C 0.69502 0.94703 0.7714 0.0
C1368 C 0.72529 0.91767 0.78777 0.0
C1369 C 0.69711 0.93598 0.74327 0.0
C1370 C 0.71289 0.91583 0.73733 0.0
C1371 C 0.73956 0.88332 0.75377 0.0
C1372 C 0.75062 0.87144 0.77607 0.0
C1373 C 0.72639 0.90593 0.75945 0.0
C1374 C 0.75041 0.88401 0.80412 0.0
C1375 C 0.73813 0.90717 0.80992 0.0
H1376 H 0.68434 0.90603 0.5634 0.0
H1377 H 0.71875 0.96054 0.50633 0.0
H1378 H 0.67694 0.97766 0.4999 0.0
H1379 H 0.62973 0.97616 0.50911 0.0
H1380 H 0.5954 0.92141 0.56602 0.0
H1381 H 0.63777 0.90574 0.57389 0.0
C1382 C 0.68272 0.92166 0.54958 0.0
C1383 C 0.70474 0.93176 0.53528 0.0
C1384 C 0.65848 0.93151 0.54589 0.0
C1385 C 0.70219 0.95217 0.51754 0.0
C1386 C 0.67822 0.96208 0.51385 0.0
C1387 C 0.63162 0.96103 0.52344 0.0
C1388 C 0.60927 0.94993 0.53679 0.0
C1389 C 0.65613 0.95179 0.52776 0.0
C1390 C 0.61213 0.93023 0.55525 0.0
C1391 C 0.63642 0.92118 0.55979 0.0
H1392 H 0.3622 0.40988 0.74238 0.0
H1393 H 0.28956 0.44266 0.74809 0.0
H1394 H 0.26343 0.39504 0.74743 0.0
H1395 H 0.26244 0.34513 0.75212 0.0
H1396 H 0.33615 0.31348 0.75067 0.0
H1397 H 0.36052 0.35924 0.74278 0.0
C1398 C 0.34052 0.40638 0.74244 0.0
C1399 C 0.32773 0.42958 0.74494 0.0
C1400 C 0.32588 0.37913 0.74356 0.0
C1401 C 0.29973 0.42497 0.74587 0.0
C1402 C 0.28485 0.3978 0.74579 0.0
C1403 C 0.28373 0.34817 0.74965 0.0
C1404 C 0.29747 0.326 0.75235 0.0
C1405 C 0.29787 0.37486 0.74577 0.0
C1406 C 0.32511 0.33029 0.74912 0.0
C1407 C 0.33911 0.35647 0.7445 0.0
H1408 H 0.18304 0.57204 0.26502 0.0
H1409 H 0.1399 0.58553 0.3377 0.0
H1410 H 0.15411 0.63639 0.34065 0.0
H1411 H 0.1798 0.67694 0.32404 0.0
H1412 H 0.22624 0.66514 0.25381 0.0
H1413 H 0.2099 0.61387 0.24844 0.0
C1414 C 0.17674 0.58624 0.28133 0.0
C1415 C 0.16054 0.57513 0.30116 0.0
C1416 C 0.18566 0.61572 0.28343 0.0
C1417 C 0.1526 0.59363 0.32238 0.0
C1418 C 0.16065 0.62271 0.32406 0.0
C1419 C 0.18622 0.66324 0.30737 0.0
C1420 C 0.20405 0.67486 0.28925 0.0
C1421 C 0.17734 0.63397 0.30491 0.0
C1422 C 0.21247 0.6567 0.26804 0.0
C1423 C 0.20313 0.62739 0.26497 0.0
H1424 H 0.47283 0.66731 0.47703 0.0
H1425 H 0.53375 0.67495 0.41935 0.0
H1426 H 0.55849 0.64642 0.44502 0.0
H1427 H 0.55996 0.61422 0.47971 0.0
H1428 H 0.50031 0.60712 0.53852 0.0
H1429 H 0.47838 0.64076 0.5169 0.0
C1430 C 0.49167 0.66302 0.47028 0.0
C1431 C 0.50094 0.67276 0.44582 0.0
C1432 C 0.50603 0.64647 0.48521 0.0
C1433 C 0.52575 0.66743 0.43779 0.0
C1434 C 0.54003 0.65106 0.45247 0.0
C1435 C 0.54245 0.62038 0.48818 0.0
C1436 C 0.53118 0.60723 0.50997 0.0
C1437 C 0.52991 0.6397 0.4756 0.0
C1438 C 0.50891 0.61615 0.52114 0.0
C1439 C 0.49633 0.63544 0.50877 0.0
H1440 H 0.61169 0.27295 0.69511 0.0
H1441 H 0.59292 0.31027 0.77588 0.0
H1442 H 0.63847 0.31077 0.79703 0.0
H1443 H 0.68275 0.29792 0.79302 0.0
H1444 H 0.70046 0.26009 0.71186 0.0
H1445 H 0.65616 0.26258 0.69049 0.0
C1446 C 0.61756 0.28134 0.71732 0.0
C1447 C 0.59892 0.29128 0.73396 0.0
C1448 C 0.64355 0.28135 0.72933 0.0
C1449 C 0.60691 0.30235 0.76263 0.0
C1450 C 0.63292 0.3026 0.77476 0.0
C1451 C 0.67695 0.29041 0.77064 0.0
C1452 C 0.69477 0.27857 0.75418 0.0
C1453 C 0.65127 0.29172 0.75839 0.0
C1454 C 0.68704 0.26905 0.72514 0.0
C1455 C 0.6617 0.27047 0.71283 0.0
H1456 H 0.96496 0.30557 0.95309 0.0
H1457 H 0.02157 0.30594 0.89073 0.0
H1458 H 0.04109 0.35521 0.90845 0.0
H1459 H 0.0428 0.39773 0.94178 0.0
H1460 H 0.98735 0.39823 0.00511 0.0
H1461 H 0.9666 0.34894 0.98676 0.0
C1462 C 0.9815 0.31645 0.94332 0.0
C1463 C 0.99179 0.30198 0.92064 0.0
C1464 C 0.99287 0.34486 0.95378 0.0
C1465 C 0.01331 0.31642 0.9083 0.0
C1466 C 0.0245 0.34465 0.91838 0.0
C1467 C 0.02613 0.38717 0.95162 0.0
C1468 C 0.01665 0.40162 0.9748 0.0
C1469 C 0.01454 0.35898 0.94115 0.0
C1470 C 0.99506 0.38753 0.98726 0.0
C1471 C 0.9832 0.35938 0.97677 0.0
H1472 H 0.95114 0.75334 0.227 0.0
H1473 H 0.93331 0.80512 0.16415 0.0
H1474 H 0.88813 0.80232 0.17716 0.0
H1475 H 0.8541 0.78644 0.20622 0.0
H1476 H 0.86908 0.73386 0.26904 0.0
H1477 H 0.91506 0.7356 0.25607 0.0
C1478 C 0.93723 0.76379 0.21612 0.0
C1479 C 0.94553 0.77925 0.19454 0.0
C1480 C 0.91091 0.76207 0.22368 0.0
C1481 C 0.92739 0.79276 0.18057 0.0
C1482 C 0.90153 0.79135 0.18808 0.0
C1483 C 0.86732 0.77532 0.21725 0.0
C1484 C 0.85833 0.76025 0.2387 0.0
C1485 C 0.8932 0.77624 0.20961 0.0
C1486 C 0.87568 0.74574 0.25248 0.0
C1487 C 0.90189 0.74673 0.24508 0.0
H1488 H 0.48318 0.30236 0.0608 0.0
H1489 H 0.54244 0.33037 0.13383 0.0
H1490 H 0.55934 0.37343 0.11506 0.0
H1491 H 0.55148 0.4067 0.08267 0.0
H1492 H 0.493 0.37918 0.00931 0.0
H1493 H 0.48177 0.33213 0.02317 0.0
C1494 C 0.50019 0.3176 0.07226 0.0
C1495 C 0.51103 0.31352 0.09901 0.0
C1496 C 0.50974 0.34249 0.06145 0.0
C1497 C 0.53348 0.33311 0.11334 0.0
C1498 C 0.5431 0.35786 0.10272 0.0
C1499 C 0.53688 0.39004 0.06934 0.0
C1500 C 0.52281 0.39613 0.0453 0.0
C1501 C 0.53051 0.36333 0.07753 0.0
C1502 C 0.50406 0.37467 0.0279 0.0
C1503 C 0.4975 0.34794 0.03597 0.0
H1504 H 0.92271 0.27262 0.37753 0.0
H1505 H 0.95018 0.28771 0.29727 0.0
H1506 H 0.90386 0.28509 0.27715 0.0
H1507 H 0.85505 0.27223 0.28086 0.0
H1508 H 0.8284 0.2571 0.3616 0.0
H1509 H 0.87482 0.26638 0.38303 0.0
C1510 C 0.91865 0.27576 0.35579 0.0
C1511 C 0.93979 0.27988 0.33884 0.0
C1512 C 0.89202 0.27399 0.34432 0.0
C1513 C 0.93421 0.2844 0.31078 0.0
C1514 C 0.9077 0.28274 0.29919 0.0
C1515 C 0.85943 0.27154 0.30325 0.0
C1516 C 0.83832 0.26341 0.31945 0.0
C1517 C 0.88634 0.27662 0.31551 0.0
C1518 C 0.8443 0.26279 0.3485 0.0
C1519 C 0.87086 0.26809 0.36083 0.0
H1520 H -0.00253 0.66955 0.61885 0.0
H1521 H 0.93717 0.66688 0.54908 0.0
H1522 H 0.94637 0.62214 0.52686 0.0
H1523 H 0.97169 0.58378 0.52714 0.0
H1524 H 0.03092 0.58603 0.59776 0.0
H1525 H 0.02194 0.6309 0.61967 0.0
C1526 C 0.98636 0.65925 0.59874 0.0
C1527 C 0.96673 0.67167 0.58563 0.0
C1528 C 0.99154 0.63341 0.58621 0.0
C1529 C 0.95236 0.65782 0.5597 0.0
C1530 C 0.95764 0.63223 0.54693 0.0
C1531 C 0.98265 0.59413 0.5473 0.0
C1532 C 0.002 0.58162 0.56073 0.0
C1533 C 0.97721 0.61985 0.55997 0.0
C1534 C 0.01587 0.59516 0.58697 0.0
C1535 C 0.0108 0.62086 0.59952 0.0
H1536 H 0.58135 0.74205 0.80514 0.0
H1537 H 0.60083 0.78841 0.88981 0.0
H1538 H 0.64844 0.79814 0.88277 0.0
H1539 H 0.68443 0.79413 0.85252 0.0
H1540 H 0.66523 0.74809 0.76774 0.0
H1541 H 0.61761 0.73753 0.77498 0.0
C1542 C 0.59598 0.75426 0.8221 0.0
C1543 C 0.58743 0.76451 0.84797 0.0
C1544 C 0.62339 0.75984 0.8179 0.0
C1545 C 0.60676 0.78028 0.86967 0.0
C1546 C 0.63403 0.78586 0.86567 0.0
C1547 C 0.66988 0.78171 0.8356 0.0
C1548 C 0.67845 0.77196 0.80959 0.0
C1549 C 0.64255 0.77582 0.83986 0.0
C1550 C 0.65924 0.75587 0.78796 0.0
C1551 C 0.63198 0.74985 0.79208 0.0
H1552 H 0.42141 0.49834 0.65158 0.0
H1553 H 0.49348 0.52544 0.7104 0.0
H1554 H 0.52104 0.52694 0.67135 0.0
H1555 H 0.52506 0.52089 0.62024 0.0
H1556 H 0.45301 0.49423 0.56133 0.0
H1557 H 0.42544 0.49236 0.60037 0.0
C1558 C 0.44313 0.50447 0.65584 0.0
C1559 C 0.45523 0.51173 0.68397 0.0
C1560 C 0.45905 0.50548 0.63316 0.0
C1561 C 0.48348 0.51975 0.68902 0.0
C1562 C 0.49937 0.52065 0.66665 0.0
C1563 C 0.50334 0.5147 0.61595 0.0
C1564 C 0.49127 0.50771 0.58781 0.0
C1565 C 0.48742 0.51364 0.6386 0.0
C1566 C 0.46301 0.49969 0.58273 0.0
C1567 C 0.44711 0.4986 0.60509 0.0
H1568 H 0.79905 0.21416 0.9755 0.0
H1569 H 0.73738 0.13887 0.95172 0.0
H1570 H 0.71932 0.15862 0.91193 0.0
H1571 H 0.72564 0.19393 0.87981 0.0
H1572 H 0.78668 0.26938 0.90327 0.0
H1573 H 0.80013 0.25337 0.94768 0.0
C1574 C 0.78142 0.20232 0.96183 0.0
C1575 C 0.76992 0.17491 0.96613 0.0
C1576 C 0.77102 0.21387 0.93904 0.0
C1577 C 0.74674 0.15995 0.94868 0.0
C1578 C 0.73641 0.17118 0.92588 0.0
C1579 C 0.7411 0.20729 0.89529 0.0
C1580 C 0.75503 0.23279 0.88878 0.0
C1581 C 0.74895 0.19768 0.92033 0.0
C1582 C 0.77542 0.2499 0.9084 0.0
C1583 C 0.78334 0.24054 0.9335 0.0
H1584 H 0.0455 0.4506 0.17826 0.0
H1585 H 0.12604 0.49286 0.16904 0.0
H1586 H 0.11032 0.50285 0.12251 0.0
H1587 H 0.07286 0.50405 0.0871 0.0
H1588 H 0.99202 0.46413 0.09784 0.0
H1589 H 0.00874 0.44876 0.14131 0.0
C1590 C 0.05976 0.46169 0.16597 0.0
C1591 C 0.0869 0.47119 0.17727 0.0
C1592 C 0.05045 0.46802 0.13967 0.0
C1593 C 0.10502 0.48549 0.16096 0.0
C1594 C 0.09602 0.49127 0.13439 0.0
C1595 C 0.05896 0.49149 0.09864 0.0
C1596 C 0.03122 0.48511 0.08921 0.0
C1597 C 0.06865 0.4833 0.12391 0.0
C1598 C 0.01344 0.46923 0.10465 0.0
C1599 C 0.02299 0.46051 0.12951 0.0
H1600 H 0.79363 0.81144 0.45879 0.0
H1601 H 0.73976 0.87005 0.46813 0.0
H1602 H 0.72376 0.85808 0.41784 0.0
H1603 H 0.72571 0.83205 0.371 0.0
H1604 H 0.77864 0.77264 0.36127 0.0
H1605 H 0.79436 0.78394 0.41192 0.0
C1606 C 0.7783 0.82154 0.44991 0.0
C1607 C 0.76804 0.84175 0.46741 0.0
C1608 C 0.7691 0.81454 0.42083 0.0
C1609 C 0.74806 0.85443 0.45536 0.0
C1610 C 0.73893 0.84767 0.42651 0.0
C1611 C 0.74074 0.82157 0.37989 0.0
C1612 C 0.75114 0.80167 0.36225 0.0
C1613 C 0.74946 0.82796 0.40902 0.0
C1614 C 0.77034 0.78808 0.3743 0.0
C1615 C 0.77934 0.79455 0.40327 0.0
H1616 H 0.4598 0.48984 0.82056 0.0
H1617 H 0.37715 0.48617 0.83641 0.0
H1618 H 0.3893 0.48584 0.88655 0.0
H1619 H 0.42421 0.49342 0.92652 0.0
H1620 H 0.50729 0.49863 0.91135 0.0
H1621 H 0.49416 0.49093 0.86032 0.0
C1622 C 0.44441 0.48831 0.83493 0.0
C1623 C 0.41777 0.48886 0.82505 0.0
C1624 C 0.45167 0.48869 0.86389 0.0
C1625 C 0.39794 0.48675 0.84374 0.0
C1626 C 0.40486 0.48642 0.87239 0.0
C1627 C 0.43941 0.49247 0.91206 0.0
C1628 C 0.46669 0.49715 0.92266 0.0
C1629 C 0.43181 0.48859 0.88285 0.0
C1630 C 0.48613 0.49533 0.90369 0.0
C1631 C 0.47867 0.49105 0.8745 0.0
H1632 H 0.76103 0.16554 0.09996 0.0
H1633 H 0.84161 0.21404 0.10272 0.0
H1634 H 0.83503 0.24432 0.14538 0.0
H1635 H 0.80696 0.2554 0.18352 0.0
H1636 H 0.72699 0.20551 0.18038 0.0
H1637 H 0.73266 0.17772 0.13606 0.0
C1638 C 0.77722 0.18272 0.1098 0.0
C1639 C 0.80185 0.18728 0.09824 0.0
C1640 C 0.77335 0.19996 0.13425 0.0
C1641 C 0.82246 0.2099 0.11123 0.0
C1642 C 0.81871 0.22728 0.13562 0.0
C1643 C 0.79069 0.23878 0.17277 0.0
C1644 C 0.76664 0.23243 0.18512 0.0
C1645 C 0.7943 0.22236 0.14748 0.0
C1646 C 0.74575 0.21065 0.17128 0.0
C1647 C 0.74899 0.19469 0.14599 0.0
H1648 H 0.1077 0.53477 0.34488 0.0
H1649 H 0.03278 0.47957 0.31001 0.0
H1650 H 0.01293 0.49189 0.35384 0.0
H1651 H 0.0203 0.51174 0.40496 0.0
H1652 H 0.09711 0.56383 0.43958 0.0
H1653 H 0.11287 0.56 0.39285 0.0
C1654 C 0.08693 0.52584 0.34675 0.0
C1655 C 0.07182 0.50597 0.32479 0.0
C1656 C 0.07613 0.53248 0.37202 0.0
C1657 C 0.04471 0.49489 0.32693 0.0
C1658 C 0.03349 0.5018 0.35199 0.0
C1659 C 0.04008 0.523 0.40191 0.0
C1660 C 0.05766 0.53793 0.42542 0.0
C1661 C 0.04942 0.51964 0.37513 0.0
C1662 C 0.0834 0.55217 0.4216 0.0
C1663 C 0.09245 0.54984 0.39499 0.0
H1664 H 0.73661 0.83413 0.62136 0.0
H1665 H 0.78625 0.77893 0.58542 0.0
H1666 H 0.77898 0.75021 0.62296 0.0
H1667 H 0.76423 0.74486 0.66997 0.0
H1668 H 0.71601 0.80071 0.70693 0.0
H1669 H 0.71662 0.82467 0.66516 0.0
C1670 C 0.74521 0.81538 0.62127 0.0
C1671 C 0.76224 0.80903 0.60065 0.0
C1672 C 0.74139 0.7991 0.6434 0.0
C1673 C 0.77328 0.78462 0.60109 0.0
C1674 C 0.76921 0.76814 0.62266 0.0
C1675 C 0.75309 0.76161 0.66833 0.0
C1676 C 0.73985 0.77087 0.69124 0.0
C1677 C 0.75413 0.77574 0.64451 0.0
C1678 C 0.72608 0.79308 0.68932 0.0
C1679 C 0.72661 0.80692 0.66553 0.0
H1680 H 0.68702 0.4123 0.49268 0.0
H1681 H 0.7195 0.45475 0.57649 0.0
H1682 H 0.67946 0.47564 0.58058 0.0
H1683 H 0.63442 0.48057 0.56055 0.0
H1684 H 0.60296 0.43763 0.47646 0.0
H1685 H 0.64346 0.41846 0.47223 0.0
C1686 C 0.68535 0.42607 0.51187 0.0
C1687 C 0.706 0.43183 0.53443 0.0
C1688 C 0.66247 0.43802 0.51399 0.0
C1689 C 0.70366 0.44993 0.55898 0.0
C1690 C 0.68085 0.46191 0.56129 0.0
C1691 C 0.63664 0.46728 0.54124 0.0
C1692 C 0.61566 0.4604 0.51898 0.0
C1693 C 0.66003 0.456 0.53895 0.0
C1694 C 0.61871 0.44305 0.49408 0.0
C1695 C 0.64187 0.43203 0.49158 0.0
H1696 H 0.17748 0.03957 0.47356 0.0
H1697 H 0.17862 0.12553 0.51054 0.0
H1698 H 0.13156 0.11246 0.51884 0.0
H1699 H 0.09045 0.07649 0.51665 0.0
H1700 H 0.08932 0.99051 0.47973 0.0
H1701 H 0.13604 0.00382 0.47034 0.0
C1702 C 0.16745 0.05549 0.48336 0.0
C1703 C 0.18162 0.08347 0.49149 0.0
C1704 C 0.1404 0.04784 0.48816 0.0
C1705 C 0.16823 0.10382 0.5041 0.0
C1706 C 0.14131 0.09637 0.5089 0.0
C1707 C 0.10039 0.06064 0.50652 0.0
C1708 C 0.0864 0.03252 0.49901 0.0
C1709 C 0.12726 0.06841 0.50119 0.0
C1710 C 0.09958 0.01231 0.48574 0.0
C1711 C 0.12633 0.01989 0.48039 0.0
H1712 H 0.19015 0.9466 0.75722 0.0
H1713 H 0.22423 0.96164 0.84481 0.0
H1714 H 0.24635 0.92178 0.83633 0.0
H1715 H 0.25032 0.87847 0.8062 0.0
H1716 H 0.21786 0.86318 0.71848 0.0
H1717 H 0.20107 0.90744 0.72471 0.0
C1718 C 0.20287 0.94155 0.77431 0.0
C1719 C 0.20491 0.95682 0.80178 0.0
C1720 C 0.21563 0.91836 0.76935 0.0
C1721 C 0.22189 0.95016 0.82353 0.0
C1722 C 0.23454 0.92723 0.81877 0.0
C1723 C 0.24018 0.88529 0.7883 0.0
C1724 C 0.2351 0.86776 0.76202 0.0
C1725 C 0.23066 0.91056 0.7921 0.0
C1726 C 0.22207 0.8766 0.73887 0.0
C1727 C 0.2123 0.90173 0.74252 0.0
H1728 H 0.33271 0.94908 0.002 0.0
H1729 H 0.34845 0.86845 0.01882 0.0
H1730 H 0.39633 0.88577 0.02028 0.0
H1731 H 0.4338 0.92491 0.02225 0.0
H1732 H 0.41951 0.00688 0.00875 0.0
H1733 H 0.37099 0.98788 0.00022 0.0
C1734 C 0.34662 0.9352 0.00553 0.0
C1735 C 0.33692 0.90751 0.01038 0.0
C1736 C 0.3744 0.94562 0.00727 0.0
C1737 C 0.35518 0.88978 0.01497 0.0
C1738 C 0.3827 0.89972 0.01597 0.0
C1739 C 0.42011 0.93863 0.01727 0.0
C1740 C 0.43003 0.96729 0.01665 0.0
C1741 C 0.3925 0.92779 0.01302 0.0
C1742 C 0.41219 0.98471 0.00957 0.0
C1743 C 0.3845 0.9739 0.00479 0.0
H1744 H 0.8324 0.58689 0.76293 0.0
H1745 H 0.80115 0.57076 0.84148 0.0
H1746 H 0.76591 0.59686 0.83202 0.0
H1747 H 0.74744 0.62914 0.80475 0.0
H1748 H 0.77916 0.64689 0.72692 0.0
H1749 H 0.81009 0.61477 0.7325 0.0
C1750 C 0.81765 0.5887 0.77777 0.0
C1751 C 0.81985 0.57726 0.80315 0.0
C1752 C 0.79745 0.60413 0.7724 0.0
C1753 C 0.80032 0.57966 0.82198 0.0
C1754 C 0.78006 0.5946 0.8166 0.0
C1755 C 0.7607 0.62557 0.78865 0.0
C1756 C 0.76117 0.64077 0.76569 0.0
C1757 C 0.77894 0.60766 0.79235 0.0
C1758 C 0.77838 0.63561 0.74493 0.0
C1759 C 0.79628 0.61738 0.74821 0.0
H1760 H 0.86043 0.62291 0.98838 0.0
H1761 H 0.81549 0.55856 0.02916 0.0
H1762 H 0.85596 0.53938 0.03833 0.0
H1763 H 0.90414 0.54011 0.03348 0.0
H1764 H 0.94808 0.60435 0.99161 0.0
H1765 H 0.90805 0.62402 0.98403 0.0
C1766 C 0.85951 0.60488 -0.00045 0.0
C1767 C 0.83498 0.59228 0.00813 0.0
C1768 C 0.8827 0.59366 0.00431 0.0
C1769 C 0.83415 0.56875 0.02238 0.0
C1770 C 0.85727 0.55766 0.02752 0.0
C1771 C 0.90488 0.55833 0.02261 0.0
C1772 C 0.92914 0.57063 0.01312 0.0
C1773 C 0.88163 0.56975 0.01829 0.0
C1774 C 0.92976 0.59437 -0.00081 0.0
C1775 C 0.90685 0.60575 0.99486 0.0
H1776 H 0.21692 0.09526 0.83572 0.0
H1777 H 0.14736 0.08502 0.77443 0.0
H1778 H 0.16514 0.13063 0.76039 0.0
H1779 H 0.20064 0.17342 0.76532 0.0
H1780 H 0.2712 0.1823 0.82491 0.0
H1781 H 0.25282 0.13732 0.83979 0.0
C1782 C 0.20558 0.10304 0.81936 0.0
C1783 C 0.18078 0.08677 0.80626 0.0
C1784 C 0.21613 0.12907 0.81104 0.0
C1785 C 0.16653 0.09706 0.78485 0.0
C1786 C 0.17666 0.12318 0.77683 0.0
C1787 C 0.21195 0.16553 0.7816 0.0
C1788 C 0.23723 0.18124 0.79402 0.0
C1789 C 0.20146 0.13936 0.78975 0.0
C1790 C 0.25174 0.17059 0.81492 0.0
C1791 C 0.24123 0.14489 0.8235 0.0
H1792 H 0.37099 0.93886 0.26672 0.0
H1793 H 0.31905 0.95159 0.3319 0.0
H1794 H 0.29432 0.90297 0.31863 0.0
H1795 H 0.28732 0.85648 0.28833 0.0
H1796 H 0.34046 0.84409 0.2242 0.0
H1797 H 0.36464 0.89264 0.23731 0.0
C1798 C 0.35422 0.93107 0.27801 0.0
C1799 C 0.34692 0.94898 0.30022 0.0
C1800 C 0.34021 0.90298 0.27048 0.0
C1801 C 0.32524 0.93832 0.31475 0.0
C1802 C 0.311 0.91047 0.30715 0.0
C1803 C 0.30416 0.86444 0.27722 0.0
C1804 C 0.31191 0.84657 0.25524 0.0
C1805 C 0.31829 0.89256 0.28502 0.0
C1806 C 0.33394 0.85725 0.2412 0.0
C1807 C 0.34785 0.88511 0.24865 0.0
H1808 H 0.48683 0.32646 0.5882 0.0
H1809 H 0.5616 0.34249 0.64313 0.0
H1810 H 0.57625 0.38648 0.62496 0.0
H1811 H 0.56643 0.42198 0.59659 0.0
H1812 H 0.49203 0.4067 0.54155 0.0
H1813 H 0.47857 0.36052 0.55671 0.0
C1814 C 0.50645 0.33941 0.59603 0.0
C1815 C 0.52292 0.33135 0.61731 0.0
C1816 C 0.51468 0.36484 0.58571 0.0
C1817 C 0.54842 0.34824 0.62692 0.0
C1818 C 0.5568 0.37346 0.61663 0.0
C1819 C 0.54727 0.40852 0.58787 0.0
C1820 C 0.52999 0.41776 0.56839 0.0
C1821 C 0.53981 0.38224 0.59658 0.0
C1822 C 0.50553 0.39996 0.55672 0.0
C1823 C 0.49786 0.37366 0.56541 0.0
H1824 H 0.41357 0.71797 0.29427 0.0
H1825 H 0.39685 0.73156 0.38112 0.0
H1826 H 0.35475 0.74565 0.36625 0.0
H1827 H 0.32358 0.75507 0.32869 0.0
H1828 H 0.33753 0.7365 0.24131 0.0
H1829 H 0.38047 0.7241 0.25627 0.0
C1830 C 0.40057 0.7239 0.30987 0.0
C1831 C 0.40814 0.72377 0.3387 0.0
C1832 C 0.37623 0.73136 0.30108 0.0
C1833 C 0.39121 0.73123 0.3588 0.0
C1834 C 0.36729 0.73949 0.35031 0.0
C1835 C 0.33577 0.74799 0.31283 0.0
C1836 C 0.32725 0.7465 0.28389 0.0
C1837 C 0.35971 0.73974 0.32153 0.0
C1838 C 0.34359 0.73769 0.2637 0.0
C1839 C 0.36808 0.73056 0.27224 0.0
H1840 H 0.02222 0.69947 0.15004 0.0
H1841 H 0.97993 0.70814 0.07081 0.0
H1842 H 0.98591 0.66163 0.05003 0.0
H1843 H 0.00083 0.61785 0.05496 0.0
H1844 H 0.03932 0.60642 0.13502 0.0
H1845 H 0.03766 0.65501 0.15482 0.0
C1846 C 0.01452 0.69122 0.12817 0.0
C1847 C 0.00061 0.70718 0.11199 0.0
C1848 C 0.01748 0.66413 0.11651 0.0
C1849 C 0.9905 0.69617 0.08377 0.0
C1850 C 0.99401 0.66964 0.07183 0.0
C1851 C 0.00932 0.62607 0.0766 0.0
C1852 C 0.02041 0.60868 0.09345 0.0
C1853 C 0.00721 0.65337 0.08807 0.0
C1854 C 0.03081 0.61952 0.12162 0.0
C1855 C 0.02973 0.6472 0.13296 0.0
H1856 H 0.06998 0.26753 0.80924 0.0
H1857 H 0.08126 0.22213 0.87937 0.0
H1858 H 0.12844 0.22514 0.87244 0.0
H1859 H 0.16572 0.23823 0.84526 0.0
H1860 H 0.15534 0.28285 0.77446 0.0
H1861 H 0.10852 0.28269 0.78298 0.0
C1862 C 0.08284 0.25851 0.82311 0.0
C1863 C 0.07208 0.24441 0.8446 0.0
C1864 C 0.11001 0.26001 0.81883 0.0
C1865 C 0.08897 0.23285 0.86247 0.0
C1866 C 0.11597 0.23456 0.85856 0.0
C1867 C 0.15329 0.24801 0.83168 0.0
C1868 C 0.16386 0.26029 0.80912 0.0
C1869 C 0.12655 0.24766 0.83656 0.0
C1870 C 0.14758 0.27314 0.79193 0.0
C1871 C 0.12083 0.27303 0.79677 0.0
H1872 H 0.53519 0.69289 0.92733 0.0
H1873 H 0.47059 0.70468 0.97768 0.0
H1874 H 0.47484 0.66263 -0.00131 0.0
H1875 H 0.4936 0.61957 -0.00097 0.0
H1876 H 0.5576 0.60758 0.94786 0.0
H1877 H 0.55686 0.65244 0.93116 0.0
C1878 C 0.52241 0.68664 0.94334 0.0
C1879 C 0.50242 0.70186 0.95062 0.0
C1880 C 0.52454 0.66202 0.95496 0.0
C1881 C 0.48603 0.69329 0.97142 0.0
C1882 C 0.48835 0.66913 0.9834 0.0
C1883 C 0.50757 0.62692 0.98447 0.0
C1884 C 0.52533 0.60994 0.97446 0.0
C1885 C 0.50696 0.65281 0.97469 0.0
C1886 C 0.54344 0.61996 0.95572 0.0
C1887 C 0.5431 0.64571 0.94613 0.0
H1888 H 0.07329 0.74 0.72209 0.0
H1889 H 0.07329 0.76147 0.63756 0.0
H1890 H 0.12208 0.76776 0.64136 0.0
H1891 H 0.1649 0.76989 0.66936 0.0
H1892 H 0.16576 0.7494 0.7542 0.0
H1893 H 0.11655 0.73974 0.74944 0.0
C1894 C 0.08396 0.74587 0.70445 0.0
C1895 C 0.0696 0.75051 0.6797 0.0
C1896 C 0.1122 0.7497 0.70681 0.0
C1897 C 0.08378 0.75801 0.65699 0.0
C1898 C 0.11173 0.7616 0.6591 0.0
C1899 C 0.15437 0.7631 0.68677 0.0
C1900 C 0.16902 0.76058 0.71214 0.0
C1901 C 0.12616 0.75792 0.68403 0.0
C1902 C 0.15499 0.75157 0.73441 0.0
C1903 C 0.12683 0.74613 0.73175 0.0
H1904 H 0.01326 0.33608 0.4754 0.0
H1905 H 0.03334 0.36251 0.39625 0.0
H1906 H 0.0444 0.41189 0.41896 0.0
H1907 H 0.04337 0.44773 0.4602 0.0
H1908 H 0.02544 0.42083 0.53987 0.0
H1909 H 0.01896 0.37152 0.51824 0.0
C1910 C 0.02053 0.35265 0.46328 0.0
C1911 C 0.02223 0.34574 0.43415 0.0
C1912 C 0.02707 0.38091 0.47654 0.0
C1913 C 0.03195 0.36731 0.41871 0.0
C1914 C 0.03809 0.39556 0.43166 0.0
C1915 C 0.03852 0.43106 0.47294 0.0
C1916 C 0.03454 0.438 0.50153 0.0
C1917 C 0.035 0.40266 0.46039 0.0
C1918 C 0.02861 0.41616 0.51784 0.0
C1919 C 0.02471 0.3879 0.50542 0.0
H1920 H 0.43043 0.25116 0.23652 0.0
H1921 H 0.40297 0.22652 0.14766 0.0
H1922 H 0.35621 0.2187 0.15811 0.0
H1923 H 0.32332 0.22065 0.19223 0.0
H1924 H 0.35026 0.24805 0.28098 0.0
H1925 H 0.39718 0.25335 0.2709 0.0
C1926 C 0.41414 0.24366 0.21957 0.0
C1927 C 0.41993 0.23926 0.19141 0.0
C1928 C 0.38734 0.2401 0.22569 0.0
C1929 C 0.39884 0.23012 0.16947 0.0
C1930 C 0.37217 0.22569 0.17544 0.0
C1931 C 0.33946 0.2277 0.2094 0.0
C1932 C 0.33342 0.23389 0.2373 0.0
C1933 C 0.36621 0.23098 0.20341 0.0
C1934 C 0.35448 0.24331 0.2593 0.0
C1935 C 0.38126 0.24619 0.25357 0.0
H1936 H 0.60915 0.4947 0.37866 0.0
H1937 H 0.55891 0.54249 0.33682 0.0
H1938 H 0.53208 0.54401 0.37706 0.0
H1939 H 0.52287 0.53107 0.42439 0.0
H1940 H 0.57371 0.48209 0.46385 0.0
H1941 H 0.59986 0.48138 0.42418 0.0
C1942 C 0.59252 0.50575 0.37834 0.0
C1943 C 0.58625 0.51871 0.35488 0.0
C1944 C 0.57695 0.50595 0.40106 0.0
C1945 C 0.5643 0.53251 0.35475 0.0
C1946 C 0.54887 0.53324 0.37769 0.0
C1947 C 0.53948 0.52 0.42413 0.0
C1948 C 0.54605 0.50647 0.44726 0.0
C1949 C 0.55489 0.51981 0.40095 0.0
C1950 C 0.56787 0.49249 0.44653 0.0
C1951 C 0.58308 0.49221 0.4238 0.0
H1952 H 0.21789 0.83113 0.07981 0.0
H1953 H 0.25649 0.76399 0.04695 0.0
H1954 H 0.25371 0.74463 0.09121 0.0
H1955 H 0.24984 0.75341 0.14223 0.0
H1956 H 0.21335 0.82225 0.17538 0.0
H1957 H 0.20596 0.83435 0.12817 0.0
C1958 C 0.22468 0.8116 0.08187 0.0
C1959 C 0.23805 0.79945 0.06053 0.0
C1960 C 0.22433 0.80148 0.10786 0.0
C1961 C 0.24652 0.774 0.06338 0.0
C1962 C 0.24527 0.76312 0.08882 0.0
C1963 C 0.23995 0.7708 0.13902 0.0
C1964 C 0.23297 0.78745 0.16233 0.0
C1965 C 0.23591 0.77784 0.11179 0.0
C1966 C 0.2195 0.80946 0.15783 0.0
C1967 C 0.21514 0.81637 0.13081 0.0
H1968 H 0.97531 0.52147 0.85291 0.0
H1969 H 0.91894 0.56113 0.89808 0.0
H1970 H 0.94189 0.55583 0.94296 0.0
H1971 H 0.97668 0.53853 0.96936 0.0
H1972 H 0.0344 0.50015 0.92563 0.0
H1973 H 0.01218 0.50625 0.8802 0.0
C1974 C 0.96808 0.52895 0.87258 0.0
C1975 C 0.9451 0.54123 0.872 0.0
C1976 C 0.98163 0.52612 0.89857 0.0
C1977 C 0.93619 0.55108 0.89774 0.0
C1978 C 0.94941 0.54822 0.92351 0.0
C1979 C 0.98483 0.53204 0.95005 0.0
C1980 C 0.00739 0.51925 0.9511 0.0
C1981 C 0.972 0.53562 0.92416 0.0
C1982 C 0.01718 0.51029 0.92557 0.0
C1983 C 0.00441 0.51368 0.89955 0.0
H1984 H 0.25302 0.1837 0.57586 0.0
H1985 H 0.33563 0.17493 0.59131 0.0
H1986 H 0.33344 0.18318 0.64218 0.0
H1987 H 0.30785 0.19106 0.68228 0.0
H1988 H 0.22752 0.20653 0.66878 0.0
H1989 H 0.2287 0.19719 0.61716 0.0
C1990 C 0.27057 0.18396 0.59045 0.0
C1991 C 0.29446 0.17866 0.57979 0.0
C1992 C 0.26944 0.18957 0.61994 0.0
C1993 C 0.31712 0.1792 0.59891 0.0
C1994 C 0.31583 0.18371 0.62803 0.0
C1995 C 0.29064 0.19253 0.66802 0.0
C1996 C 0.26751 0.19908 0.67917 0.0
C1997 C 0.29206 0.18859 0.63874 0.0
C1998 C 0.24545 0.20129 0.66057 0.0
C1999 C 0.2462 0.19601 0.63113 0.0
H2000 H 0.56628 0.53025 0.19753 0.0
H2001 H 0.6394 0.49787 0.19196 0.0
H2002 H 0.63209 0.49198 0.14042 0.0
H2003 H 0.6034 0.49275 0.09707 0.0
H2004 H 0.52935 0.52333 0.10243 0.0
H2005 H 0.53879 0.53352 0.15393 0.0
C2006 C 0.58076 0.52215 0.18507 0.0
C2007 C 0.60324 0.51432 0.19862 0.0
C2008 C 0.57626 0.51844 0.15539 0.0
C2009 C 0.62181 0.50389 0.1821 0.0
C2010 C 0.61767 0.50051 0.1526 0.0
C2011 C 0.58947 0.502 0.10943 0.0
C2012 C 0.56563 0.50712 0.09589 0.0
C2013 C 0.59473 0.50725 0.13904 0.0
C2014 C 0.54782 0.51909 0.1123 0.0
C2015 C 0.55315 0.52484 0.14177 0.0
H2016 H 0.26065 0.78326 0.93253 0.0
H2017 H 0.25384 0.86777 0.92028 0.0
H2018 H 0.24941 0.85382 0.86887 0.0
H2019 H 0.25173 0.81863 0.82802 0.0
H2020 H 0.25541 0.73327 0.84015 0.0
H2021 H 0.25715 0.74658 0.8913 0.0
C2022 C 0.25774 0.79844 0.91852 0.0
C2023 C 0.25776 0.82647 0.92993 0.0
C2024 C 0.25507 0.79024 0.88917 0.0
C2025 C 0.25372 0.84601 0.91181 0.0
C2026 C 0.25145 0.83812 0.8825 0.0
C2027 C 0.25252 0.80285 0.84178 0.0
C2028 C 0.25361 0.77508 0.83036 0.0
C2029 C 0.25278 0.81046 0.87102 0.0
C2030 C 0.25458 0.75481 0.84848 0.0
C2031 C 0.25559 0.76239 0.87769 0.0
H2032 H 0.95082 0.48791 0.72087 0.0
H2033 H 0.89311 0.53867 0.69977 0.0
H2034 H 0.90446 0.53482 0.65114 0.0
H2035 H 0.93302 0.52013 0.61572 0.0
H2036 H 0.99196 0.47084 0.63707 0.0
H2037 H 0.97768 0.47086 0.68448 0.0
C2038 C 0.94052 0.49791 0.70559 0.0
C2039 C 0.9213 0.51377 0.71406 0.0
C2040 C 0.94747 0.49602 0.67776 0.0
C2041 C 0.90813 0.52654 0.69391 0.0
C2042 C 0.91462 0.52436 0.66609 0.0
C2043 C 0.94263 0.50916 0.63062 0.0
C2044 C 0.96371 0.49571 0.6229 0.0
C2045 C 0.93463 0.50964 0.65795 0.0
C2046 C 0.97579 0.48149 0.64248 0.0
C2047 C 0.96767 0.48154 0.66963 0.0
H2048 H 0.31375 0.22498 0.43924 0.0
H2049 H 0.23237 0.17714 0.43237 0.0
H2050 H 0.22025 0.19834 0.39121 0.0
H2051 H 0.23357 0.22677 0.35436 0.0
H2052 H 0.31446 0.27519 0.36074 0.0
H2053 H 0.32579 0.25772 0.40496 0.0
C2054 C 0.29324 0.21951 0.42906 0.0
C2055 C 0.27414 0.19915 0.43893 0.0
C2056 C 0.28631 0.23173 0.4051 0.0
C2057 C 0.24762 0.19257 0.42539 0.0
C2058 C 0.24063 0.20462 0.40167 0.0
C2059 C 0.25361 0.23381 0.36561 0.0
C2060 C 0.27321 0.25207 0.35411 0.0
C2061 C 0.25996 0.22363 0.39091 0.0
C2062 C 0.29897 0.26121 0.36913 0.0
C2063 C 0.3055 0.25106 0.39434 0.0
H2064 H 0.36951 0.6251 0.54434 0.0
H2065 H 0.32067 0.54656 0.50174 0.0
H2066 H 0.36002 0.52426 0.50291 0.0
H2067 H 0.40915 0.52862 0.51281 0.0
H2068 H 0.45695 0.60627 0.55879 0.0
H2069 H 0.41725 0.62774 0.55935 0.0
C2070 C 0.36756 0.60305 0.53562 0.0
C2071 C 0.34264 0.58746 0.52268 0.0
C2072 C 0.39007 0.59045 0.53663 0.0
C2073 C 0.33988 0.55878 0.51189 0.0
C2074 C 0.36234 0.54615 0.51233 0.0
C2075 C 0.41067 0.55018 0.52297 0.0
C2076 C 0.43572 0.56617 0.5352 0.0
C2077 C 0.38765 0.56201 0.52404 0.0
C2078 C 0.43772 0.59382 0.54898 0.0
C2079 C 0.4151 0.60605 0.54936 0.0
H2080 H 0.84637 0.96975 0.55184 0.0
H2081 H 0.86238 0.88548 0.53789 0.0
H2082 H 0.90869 0.90427 0.53095 0.0
H2083 H 0.94482 0.94435 0.52913 0.0
H2084 H 0.93045 0.02918 0.54467 0.0
H2085 H 0.88345 0.01054 0.55098 0.0
C2086 C 0.85998 0.95553 0.54708 0.0
C2087 C 0.85081 0.92617 0.54534 0.0
C2088 C 0.88694 0.96661 0.54362 0.0
C2089 C 0.86879 0.90807 0.53954 0.0
C2090 C 0.89536 0.91883 0.53552 0.0
C2091 C 0.93144 0.95884 0.53389 0.0
C2092 C 0.94112 0.98813 0.53631 0.0
C2093 C 0.90466 0.94802 0.53763 0.0
C2094 C 0.92356 0.00656 0.54282 0.0
C2095 C 0.89665 0.99589 0.54627 0.0
H2096 H 0.85196 0.08704 0.23369 0.0
H2097 H 0.79838 0.05351 0.29151 0.0
H2098 H 0.77492 0.09265 0.29013 0.0
H2099 H 0.77283 0.13936 0.27677 0.0
H2100 H 0.82691 0.17299 0.21934 0.0
H2101 H 0.84671 0.13115 0.21637 0.0
C2102 C 0.83471 0.08789 0.24537 0.0
C2103 C 0.82713 0.06746 0.26282 0.0
C2104 C 0.82162 0.1109 0.24505 0.0
C2105 C 0.80481 0.06907 0.27803 0.0
C2106 C 0.79143 0.09156 0.27741 0.0
C2107 C 0.78877 0.1374 0.26342 0.0
C2108 C 0.79855 0.15955 0.24867 0.0
C2109 C 0.80023 0.11314 0.26176 0.0
C2110 C 0.81907 0.15647 0.23122 0.0
C2111 C 0.83046 0.13247 0.22942 0.0
H2112 H 0.68688 0.09304 0.04407 0.0
H2113 H 0.70623 0.01743 9e-05 0.0
H2114 H 0.65856 -0.00352 0.98915 0.0
H2115 H 0.61152 0.00141 0.98799 0.0
H2116 H 0.59182 0.07656 0.03236 0.0
H2117 H 0.63947 0.09573 0.04748 0.0
C2118 C 0.68065 0.07186 0.03239 0.0
C2119 C 0.70003 0.05703 0.02252 0.0
C2120 C 0.65316 0.05989 0.02607 0.0
C2121 C 0.6917 0.02944 0.00775 0.0
C2122 C 0.66443 0.01742 0.00139 0.0
C2123 C 0.61766 0.02185 0.00121 0.0
C2124 C 0.5983 0.03773 0.00867 0.0
C2125 C 0.64502 0.03276 0.00978 0.0
C2126 C 0.60642 0.06398 0.02621 0.0
C2127 C 0.63365 0.07502 0.03478 0.0
H2128 H 0.19388 0.44114 0.25002 0.0
H2129 H 0.19736 0.44671 0.34097 0.0
H2130 H 0.22774 0.41384 0.34063 0.0
H2131 H 0.24961 0.37959 0.31436 0.0
H2132 H 0.24714 0.37411 0.22361 0.0
H2133 H 0.22075 0.41106 0.22425 0.0
C2134 C 0.20158 0.43547 0.26978 0.0
C2135 C 0.19289 0.44619 0.29536 0.0
C2136 C 0.21926 0.4164 0.26958 0.0
C2137 C 0.20341 0.43877 0.32083 0.0
C2138 C 0.22083 0.41984 0.32074 0.0
C2139 C 0.24372 0.3868 0.29477 0.0
C2140 C 0.25006 0.37376 0.26899 0.0
C2141 C 0.22833 0.40795 0.2952 0.0
C2142 C 0.24245 0.38362 0.24382 0.0
C2143 C 0.22718 0.40469 0.2441 0.0
H2144 H 0.18896 0.40795 0.07246 0.0
H2145 H 0.21191 0.43581 0.9946 0.0
H2146 H 0.17101 0.45455 0.98863 0.0
H2147 H 0.12861 0.46335 0.00543 0.0
H2148 H 0.10494 0.43472 0.08264 0.0
H2149 H 0.14617 0.4163 0.08902 0.0
C2150 C 0.18494 0.41797 0.05411 0.0
C2151 C 0.20357 0.42045 0.03407 0.0
C2152 C 0.16129 0.42884 0.05077 0.0
C2153 C 0.198 0.43358 0.01043 0.0
C2154 C 0.1746 0.44442 0.00699 0.0
C2155 C 0.13262 0.45332 0.02377 0.0
C2156 C 0.11382 0.45051 0.04356 0.0
C2157 C 0.15617 0.44234 0.02709 0.0
C2158 C 0.1191 0.43711 0.06704 0.0
C2159 C 0.14266 0.42652 0.0707 0.0
H2160 H 0.80153 0.939 0.27686 0.0
H2161 H 0.87463 0.91973 0.24719 0.0
H2162 H 0.85544 0.86911 0.24183 0.0
H2163 H 0.81916 0.83048 0.24961 0.0
H2164 H 0.7448 0.84987 0.27567 0.0
H2165 H 0.76316 0.9004 0.27859 0.0
C2166 C 0.81303 0.92367 0.26873 0.0
C2167 C 0.83946 0.93296 0.26255 0.0
C2168 C 0.80177 0.89472 0.26546 0.0
C2169 C 0.85416 0.91302 0.25186 0.0
C2170 C 0.84329 0.8841 0.24907 0.0
C2171 C 0.80694 0.84579 0.25566 0.0
C2172 C 0.7808 0.8366 0.26273 0.0
C2173 C 0.81735 0.87472 0.25647 0.0
C2174 C 0.76499 0.85655 0.27018 0.0
C2175 C 0.77548 0.88539 0.27188 0.0
H2176 H 0.70627 0.07702 0.78732 0.0
H2177 H 0.62649 0.07583 0.74846 0.0
H2178 H 0.63924 0.12606 0.74461 0.0
H2179 H 0.67151 0.17147 0.75821 0.0
H2180 H 0.75183 0.17167 0.79536 0.0
H2181 H 0.74058 0.12064 0.79358 0.0
C2182 C 0.69188 0.08769 0.77748 0.0
C2183 C 0.66545 0.07301 0.76849 0.0
C2184 C 0.69939 0.11641 0.77527 0.0
C2185 C 0.647 0.0868 0.75547 0.0
C2186 C 0.65422 0.11553 0.75348 0.0
C2187 C 0.68666 0.16023 0.76543 0.0
C2188 C 0.71229 0.17538 0.77734 0.0
C2189 C 0.68011 0.13076 0.7642 0.0
C2190 C 0.73189 0.16055 0.78621 0.0
C2191 C 0.72545 0.13135 0.78535 0.0
loop_
_geom_bond_atom_site_label_1
_geom_bond_atom_site_label_2
_geom_bond_distance
_geom_bond_site_symmetry_2
_ccdc_geom_bond_type
Mg0 O1 2.028 . S
Mg0 O7 1.986 . S
Mg0 O9 2.116 . S
Mg0 O10 2.251 1_455 S
Mg0 O13 2.010 . S
O1 Mg0 2.028 . S
O1 C4 1.250 . S
O2 Mg3 2.028 1_455 S
O2 C4 1.248 . S
Mg3 O2 2.028 1_655 S
Mg3 O8 2.032 . S
Mg3 O10 2.079 . S
C4 O1 1.250 . S
C4 O2 1.248 . S
C5 O6 1.264 . S
C5 O13 1.249 . S
O6 C5 1.264 . S
O7 Mg0 1.986 . S
O7 C11 1.246 . S
O8 Mg3 2.032 . S
O8 C11 1.259 1_655 S
O9 Mg0 2.116 . S
O9 C12 1.248 1_455 S
O10 Mg0 2.251 1_655 S
O10 Mg3 2.079 . S
O10 C12 1.273 . S
C11 O7 1.246 . S
C11 O8 1.259 1_455 S
C12 O9 1.248 1_655 S
C12 O10 1.273 . S
O13 Mg0 2.010 . S
O13 C5 1.249 . S
Mg14 O15 2.028 . S
Mg14 O21 1.986 . S
Mg14 O23 2.114 1_455 S
Mg14 O24 2.251 1_455 S
Mg14 O27 2.010 . S
O15 Mg14 2.028 . S
O15 C18 1.250 1_455 S
O16 Mg17 2.028 . S
O16 C18 1.248 . S
Mg17 O16 2.028 . S
Mg17 O22 2.032 . S
Mg17 O24 2.079 . S
C18 O15 1.250 1_655 S
C18 O16 1.248 . S
C19 O20 1.264 . S
C19 O27 1.249 . S
O20 C19 1.264 . S
O21 Mg14 1.986 . S
O21 C25 1.246 . S
O22 Mg17 2.032 . S
O22 C25 1.259 1_655 S
O23 Mg14 2.114 1_655 S
O23 C26 1.252 . S
O24 Mg14 2.251 1_655 S
O24 Mg17 2.079 . S
O24 C26 1.273 . S
C25 O21 1.246 . S
C25 O22 1.259 1_455 S
C26 O23 1.252 . S
C26 O24 1.273 . S
O27 Mg14 2.010 . S
O27 C19 1.249 . S
Mg28 O29 2.028 . S
Mg28 O35 1.986 . S
Mg28 O37 2.114 . S
Mg28 O38 2.251 . S
Mg28 O41 2.010 . S
O29 Mg28 2.028 . S
O29 C32 1.250 . S
O30 Mg31 2.028 . S
O30 C32 1.248 . S
Mg31 O30 2.028 . S
Mg31 O36 2.032 . S
Mg31 O38 2.079 . S
C32 O29 1.250 . S
C32 O30 1.248 . S
C33 O34 1.264 . S
C33 O41 1.249 . S
O34 C33 1.264 . S
O35 Mg28 1.986 . S
O35 C39 1.246 . S
O36 Mg31 2.032 . S
O36 C39 1.259 . S
O37 Mg28 2.114 . S
O37 C40 1.252 . S
O38 Mg28 2.251 . S
O38 Mg31 2.079 . S
O38 C40 1.273 . S
C39 O35 1.246 . S
C39 O36 1.259 . S
C40 O37 1.252 . S
C40 O38 1.273 . S
O41 Mg28 2.010 . S
O41 C33 1.249 . S
Mg42 O43 2.028 . S
Mg42 O49 1.986 . S
Mg42 O51 2.114 . S
Mg42 O52 2.251 . S
Mg42 O55 2.010 . S
O43 Mg42 2.028 . S
O43 C46 1.250 . S
O44 Mg45 2.028 . S
O44 C46 1.248 . S
Mg45 O44 2.028 . S
Mg45 O50 2.032 . S
Mg45 O52 2.079 . S
C46 O43 1.250 . S
C46 O44 1.248 . S
C47 O48 1.264 . S
C47 O55 1.249 . S
O48 C47 1.264 . S
O49 Mg42 1.986 . S
O49 C53 1.246 . S
O50 Mg45 2.032 . S
O50 C53 1.259 . S
O51 Mg42 2.114 . S
O51 C54 1.252 . S
O52 Mg42 2.251 . S
O52 Mg45 2.079 . S
O52 C54 1.273 . S
C53 O49 1.246 . S
C53 O50 1.259 . S
C54 O51 1.252 . S
C54 O52 1.273 . S
O55 Mg42 2.010 . S
O55 C47 1.249 . S
Mg56 O57 2.028 . S
Mg56 O63 1.986 . S
Mg56 O65 2.114 . S
Mg56 O66 2.251 1_455 S
Mg56 O69 2.010 . S
O57 Mg56 2.028 . S
O57 C60 1.250 . S
O58 Mg59 2.028 1_455 S
O58 C60 1.248 . S
Mg59 O58 2.028 1_655 S
Mg59 O64 2.032 1_655 S
Mg59 O66 2.079 . S
C60 O57 1.250 . S
C60 O58 1.248 . S
C61 O62 1.264 . S
C61 O69 1.249 . S
O62 C61 1.264 . S
O63 Mg56 1.986 . S
O63 C67 1.246 . S
O64 Mg59 2.032 1_455 S
O64 C67 1.259 . S
O65 Mg56 2.114 . S
O65 C68 1.252 1_455 S
O66 Mg56 2.251 1_655 S
O66 Mg59 2.079 . S
O66 C68 1.273 . S
C67 O63 1.246 . S
C67 O64 1.259 . S
C68 O65 1.252 1_655 S
C68 O66 1.273 . S
O69 Mg56 2.010 . S
O69 C61 1.249 . S
Mg70 O71 2.028 . S
Mg70 O77 1.986 . S
Mg70 O79 2.114 . S
Mg70 O80 2.251 . S
Mg70 O83 2.010 . S
O71 Mg70 2.028 . S
O71 C74 1.250 . S
O72 Mg73 2.028 . S
O72 C74 1.248 . S
Mg73 O72 2.028 . S
Mg73 O78 2.032 . S
Mg73 O80 2.079 . S
C74 O71 1.250 . S
C74 O72 1.248 . S
C75 O76 1.264 . S
C75 O83 1.249 . S
O76 C75 1.264 . S
O77 Mg70 1.986 . S
O77 C81 1.246 . S
O78 Mg73 2.032 . S
O78 C81 1.259 . S
O79 Mg70 2.114 . S
O79 C82 1.252 . S
O80 Mg70 2.251 . S
O80 Mg73 2.079 . S
O80 C82 1.273 . S
C81 O77 1.246 . S
C81 O78 1.259 . S
C82 O79 1.252 . S
C82 O80 1.273 . S
O83 Mg70 2.010 . S
O83 C75 1.249 . S
Mg84 O85 2.028 . S
Mg84 O91 1.986 . S
Mg84 O93 2.114 . S
Mg84 O94 2.251 . S
Mg84 O97 2.010 . S
O85 Mg84 2.028 . S
O85 C88 1.250 . S
O86 Mg87 2.028 . S
O86 C88 1.248 . S
Mg87 O86 2.028 . S
Mg87 O92 2.032 . S
Mg87 O94 2.079 . S
C88 O85 1.250 . S
C88 O86 1.248 . S
C89 O90 1.264 . S
C89 O97 1.249 . S
O90 C89 1.264 . S
O91 Mg84 1.986 . S
O91 C95 1.246 . S
O92 Mg87 2.032 . S
O92 C95 1.259 . S
O93 Mg84 2.114 . S
O93 C96 1.252 . S
O94 Mg84 2.251 . S
O94 Mg87 2.079 . S
O94 C96 1.273 . S
C95 O91 1.246 . S
C95 O92 1.259 . S
C96 O93 1.252 . S
C96 O94 1.273 . S
O97 Mg84 2.010 . S
O97 C89 1.249 . S
Mg98 O99 2.028 1_655 S
Mg98 O105 1.986 1_655 S
Mg98 O107 2.114 . S
Mg98 O108 2.251 . S
Mg98 O111 2.010 1_655 S
O99 Mg98 2.028 1_455 S
O99 C102 1.250 1_455 S
O100 Mg101 2.028 . S
O100 C102 1.248 . S
Mg101 O100 2.028 . S
Mg101 O106 2.032 . S
Mg101 O108 2.079 . S
C102 O99 1.250 1_655 S
C102 O100 1.248 . S
C103 O104 1.264 . S
C103 O111 1.249 . S
O104 C103 1.264 . S
O105 Mg98 1.986 1_455 S
O105 C109 1.246 1_455 S
O106 Mg101 2.032 . S
O106 C109 1.259 . S
O107 Mg98 2.114 . S
O107 C110 1.252 . S
O108 Mg98 2.251 . S
O108 Mg101 2.079 . S
O108 C110 1.273 . S
C109 O105 1.246 1_655 S
C109 O106 1.259 . S
C110 O107 1.252 . S
C110 O108 1.273 . S
O111 Mg98 2.010 1_455 S
O111 C103 1.249 . S
Mg112 O113 2.028 1_545 S
Mg112 O119 1.986 . S
Mg112 O121 2.114 . S
Mg112 O122 2.251 . S
Mg112 O125 2.010 . S
O113 Mg112 2.028 1_565 S
O113 C116 1.250 . S
O114 Mg115 2.028 1_565 S
O114 C116 1.248 . S
Mg115 O114 2.028 1_545 S
Mg115 O120 2.032 . S
Mg115 O122 2.079 . S
C116 O113 1.250 . S
C116 O114 1.248 . S
C117 O118 1.264 . S
C117 O125 1.249 . S
O118 C117 1.264 . S
O119 Mg112 1.986 . S
O119 C123 1.246 . S
O120 Mg115 2.032 . S
O120 C123 1.259 . S
O121 Mg112 2.114 . S
O121 C124 1.252 . S
O122 Mg112 2.251 . S
O122 Mg115 2.079 . S
O122 C124 1.273 . S
C123 O119 1.246 . S
C123 O120 1.259 . S
C124 O121 1.252 . S
C124 O122 1.273 . S
O125 Mg112 2.010 . S
O125 C117 1.249 . S
Mg126 O127 2.028 . S
Mg126 O133 1.986 . S
Mg126 O135 2.114 . S
Mg126 O136 2.251 . S
Mg126 O139 2.010 . S
O127 Mg126 2.028 . S
O127 C130 1.250 . S
O128 Mg129 2.028 . S
O128 C130 1.248 . S
Mg129 O128 2.028 . S
Mg129 O134 2.032 . S
Mg129 O136 2.079 . S
C130 O127 1.250 . S
C130 O128 1.248 . S
C131 O132 1.264 . S
C131 O139 1.249 . S
O132 C131 1.264 . S
O133 Mg126 1.986 . S
O133 C137 1.246 . S
O134 Mg129 2.032 . S
O134 C137 1.259 . S
O135 Mg126 2.114 . S
O135 C138 1.252 . S
O136 Mg126 2.251 . S
O136 Mg129 2.079 . S
O136 C138 1.273 . S
C137 O133 1.246 . S
C137 O134 1.259 . S
C138 O135 1.252 . S
C138 O136 1.273 . S
O139 Mg126 2.010 . S
O139 C131 1.249 . S
Mg140 O141 2.028 . S
Mg140 O147 1.986 1_545 S
Mg140 O149 2.114 . S
Mg140 O150 2.251 . S
Mg140 O153 2.010 1_545 S
O141 Mg140 2.028 . S
O141 C144 1.250 . S
O142 Mg143 2.028 . S
O142 C144 1.248 . S
Mg143 O142 2.028 . S
Mg143 O148 2.032 1_545 S
Mg143 O150 2.079 . S
C144 O141 1.250 . S
C144 O142 1.248 . S
C145 O146 1.264 . S
C145 O153 1.249 . S
O146 C145 1.264 . S
O147 Mg140 1.986 1_565 S
O147 C151 1.246 . S
O148 Mg143 2.032 1_565 S
O148 C151 1.259 . S
O149 Mg140 2.114 . S
O149 C152 1.252 . S
O150 Mg140 2.251 . S
O150 Mg143 2.079 . S
O150 C152 1.273 . S
C151 O147 1.246 . S
C151 O148 1.259 . S
C152 O149 1.252 . S
C152 O150 1.273 . S
O153 Mg140 2.010 1_565 S
O153 C145 1.249 . S
Mg154 O155 2.028 1_554 S
Mg154 O161 1.986 . S
Mg154 O163 2.114 . S
Mg154 O164 2.251 . S
Mg154 O167 2.010 . S
O155 Mg154 2.028 1_556 S
O155 C158 1.250 . S
O156 Mg157 2.028 1_556 S
O156 C158 1.248 . S
Mg157 O156 2.028 1_554 S
Mg157 O162 2.032 . S
Mg157 O164 2.079 . S
C158 O155 1.250 . S
C158 O156 1.248 . S
C159 O160 1.264 . S
C159 O167 1.249 . S
O160 C159 1.264 . S
O161 Mg154 1.986 . S
O161 C165 1.246 . S
O162 Mg157 2.032 . S
O162 C165 1.259 . S
O163 Mg154 2.114 . S
O163 C166 1.252 . S
O164 Mg154 2.251 . S
O164 Mg157 2.079 . S
O164 C166 1.273 . S
C165 O161 1.246 . S
C165 O162 1.259 . S
C166 O163 1.252 . S
C166 O164 1.273 . S
O167 Mg154 2.010 . S
O167 C159 1.249 . S
Mg168 O169 2.028 . S
Mg168 O175 1.986 . S
Mg168 O177 2.114 . S
Mg168 O178 2.251 . S
Mg168 O181 2.010 . S
O169 Mg168 2.028 . S
O169 C172 1.250 . S
O170 Mg171 2.028 . S
O170 C172 1.248 . S
Mg171 O170 2.028 . S
Mg171 O176 2.032 . S
Mg171 O178 2.079 . S
C172 O169 1.250 . S
C172 O170 1.248 . S
C173 O174 1.264 . S
C173 O181 1.249 . S
O174 C173 1.264 . S
O175 Mg168 1.986 . S
O175 C179 1.246 . S
O176 Mg171 2.032 . S
O176 C179 1.259 . S
O177 Mg168 2.114 . S
O177 C180 1.252 . S
O178 Mg168 2.251 . S
O178 Mg171 2.079 . S
O178 C180 1.273 . S
C179 O175 1.246 . S
C179 O176 1.259 . S
C180 O177 1.252 . S
C180 O178 1.273 . S
O181 Mg168 2.010 . S
O181 C173 1.249 . S
Mg182 O183 2.028 . S
Mg182 O189 1.986 1_554 S
Mg182 O191 2.114 . S
Mg182 O192 2.251 . S
Mg182 O195 2.010 . S
O183 Mg182 2.028 . S
O183 C186 1.250 . S
O184 Mg185 2.028 . S
O184 C186 1.248 . S
Mg185 O184 2.028 . S
Mg185 O190 2.032 . S
Mg185 O192 2.079 . S
C186 O183 1.250 . S
C186 O184 1.248 . S
C187 O188 1.264 . S
C187 O195 1.249 . S
O188 C187 1.264 . S
O189 Mg182 1.986 1_556 S
O189 C193 1.246 . S
O190 Mg185 2.032 . S
O190 C193 1.259 1_554 S
O191 Mg182 2.114 . S
O191 C194 1.252 . S
O192 Mg182 2.251 . S
O192 Mg185 2.079 . S
O192 C194 1.273 . S
C193 O189 1.246 . S
C193 O190 1.259 1_556 S
C194 O191 1.252 . S
C194 O192 1.273 . S
O195 Mg182 2.010 . S
O195 C187 1.249 . S
Mg196 O197 2.028 . S
Mg196 O203 1.986 . S
Mg196 O205 2.114 . S
Mg196 O206 2.251 . S
Mg196 O209 2.010 . S
O197 Mg196 2.028 . S
O197 C200 1.250 . S
O198 Mg199 2.028 . S
O198 C200 1.248 . S
Mg199 O198 2.028 . S
Mg199 O204 2.032 . S
Mg199 O206 2.079 . S
C200 O197 1.250 . S
C200 O198 1.248 . S
C201 O202 1.264 . S
C201 O209 1.249 . S
O202 C201 1.264 . S
O203 Mg196 1.986 . S
O203 C207 1.246 . S
O204 Mg199 2.032 . S
O204 C207 1.259 . S
O205 Mg196 2.114 . S
O205 C208 1.252 . S
O206 Mg196 2.251 . S
O206 Mg199 2.079 . S
O206 C208 1.273 . S
C207 O203 1.246 . S
C207 O204 1.259 . S
C208 O205 1.252 . S
C208 O206 1.273 . S
O209 Mg196 2.010 . S
O209 C201 1.249 . S
Mg210 O211 2.028 . S
Mg210 O217 1.986 . S
Mg210 O219 2.114 . S
Mg210 O220 2.251 . S
Mg210 O223 2.010 . S
O211 Mg210 2.028 . S
O211 C214 1.250 . S
O212 Mg213 2.028 . S
O212 C214 1.248 . S
Mg213 O212 2.028 . S
Mg213 O218 2.032 . S
Mg213 O220 2.079 . S
C214 O211 1.250 . S
C214 O212 1.248 . S
C215 O216 1.264 . S
C215 O223 1.249 . S
O216 C215 1.264 . S
O217 Mg210 1.986 . S
O217 C221 1.246 . S
O218 Mg213 2.032 . S
O218 C221 1.259 . S
O219 Mg210 2.114 . S
O219 C222 1.252 . S
O220 Mg210 2.251 . S
O220 Mg213 2.079 . S
O220 C222 1.273 . S
C221 O217 1.246 . S
C221 O218 1.259 . S
C222 O219 1.252 . S
C222 O220 1.273 . S
O223 Mg210 2.010 . S
O223 C215 1.249 . S
Mg224 O225 2.028 1_545 S
Mg224 O231 1.986 . S
Mg224 O233 2.114 . S
Mg224 O234 2.251 . S
Mg224 O237 2.010 . S
O225 Mg224 2.028 1_565 S
O225 C228 1.250 . S
O226 Mg227 2.028 1_565 S
O226 C228 1.248 . S
Mg227 O226 2.028 1_545 S
Mg227 O232 2.032 . S
Mg227 O234 2.079 . S
C228 O225 1.250 . S
C228 O226 1.248 . S
C229 O230 1.264 . S
C229 O237 1.249 . S
O230 C229 1.264 . S
O231 Mg224 1.986 . S
O231 C235 1.246 . S
O232 Mg227 2.032 . S
O232 C235 1.259 . S
O233 Mg224 2.114 . S
O233 C236 1.252 . S
O234 Mg224 2.251 . S
O234 Mg227 2.079 . S
O234 C236 1.273 . S
C235 O231 1.246 . S
C235 O232 1.259 . S
C236 O233 1.252 . S
C236 O234 1.273 . S
O237 Mg224 2.010 . S
O237 C229 1.249 . S
Mg238 O239 2.028 . S
Mg238 O245 1.986 . S
Mg238 O247 2.114 . S
Mg238 O248 2.251 . S
Mg238 O251 2.010 . S
O239 Mg238 2.028 . S
O239 C242 1.250 . S
O240 Mg241 2.028 . S
O240 C242 1.248 . S
Mg241 O240 2.028 . S
Mg241 O246 2.032 . S
Mg241 O248 2.079 . S
C242 O239 1.250 . S
C242 O240 1.248 . S
C243 O244 1.264 . S
C243 O251 1.249 . S
O244 C243 1.264 . S
O245 Mg238 1.986 . S
O245 C249 1.246 . S
O246 Mg241 2.032 . S
O246 C249 1.259 . S
O247 Mg238 2.114 . S
O247 C250 1.252 . S
O248 Mg238 2.251 . S
O248 Mg241 2.079 . S
O248 C250 1.273 . S
C249 O245 1.246 . S
C249 O246 1.259 . S
C250 O247 1.252 . S
C250 O248 1.273 . S
O251 Mg238 2.010 . S
O251 C243 1.249 . S
Mg252 O253 2.028 . S
Mg252 O259 1.986 . S
Mg252 O261 2.114 . S
Mg252 O262 2.251 . S
Mg252 O265 2.010 . S
O253 Mg252 2.028 . S
O253 C256 1.250 . S
O254 Mg255 2.028 . S
O254 C256 1.248 . S
Mg255 O254 2.028 . S
Mg255 O260 2.032 . S
Mg255 O262 2.079 . S
C256 O253 1.250 . S
C256 O254 1.248 . S
C257 O258 1.264 . S
C257 O265 1.249 . S
O258 C257 1.264 . S
O259 Mg252 1.986 . S
O259 C263 1.246 . S
O260 Mg255 2.032 . S
O260 C263 1.259 . S
O261 Mg252 2.114 . S
O261 C264 1.252 . S
O262 Mg252 2.251 . S
O262 Mg255 2.079 . S
O262 C264 1.273 . S
C263 O259 1.246 . S
C263 O260 1.259 . S
C264 O261 1.252 . S
C264 O262 1.273 . S
O265 Mg252 2.010 . S
O265 C257 1.249 . S
Mg266 O267 2.028 1_565 S
Mg266 O273 1.986 . S
Mg266 O275 2.114 1_565 S
Mg266 O276 2.251 . S
Mg266 O279 2.010 . S
O267 Mg266 2.028 1_545 S
O267 C270 1.250 . S
O268 Mg269 2.028 . S
O268 C270 1.248 . S
Mg269 O268 2.028 . S
Mg269 O274 2.032 1_545 S
Mg269 O276 2.079 1_545 S
C270 O267 1.250 . S
C270 O268 1.248 . S
C271 O272 1.264 . S
C271 O279 1.249 . S
O272 C271 1.264 . S
O273 Mg266 1.986 . S
O273 C277 1.246 . S
O274 Mg269 2.032 1_565 S
O274 C277 1.259 . S
O275 Mg266 2.114 1_545 S
O275 C278 1.252 . S
O276 Mg266 2.251 . S
O276 Mg269 2.079 1_565 S
O276 C278 1.273 1_565 S
C277 O273 1.246 . S
C277 O274 1.259 . S
C278 O275 1.252 . S
C278 O276 1.273 1_545 S
O279 Mg266 2.010 . S
O279 C271 1.249 . S
Mg280 O281 2.028 1_556 S
Mg280 O287 1.986 . S
Mg280 O289 2.114 1_556 S
Mg280 O290 2.251 . S
Mg280 O293 2.010 . S
O281 Mg280 2.028 1_554 S
O281 C284 1.250 . S
O282 Mg283 2.028 . S
O282 C284 1.248 . S
Mg283 O282 2.028 . S
Mg283 O288 2.032 1_554 S
Mg283 O290 2.079 1_554 S
C284 O281 1.250 . S
C284 O282 1.248 . S
C285 O286 1.264 . S
C285 O293 1.249 . S
O286 C285 1.264 . S
O287 Mg280 1.986 . S
O287 C291 1.246 . S
O288 Mg283 2.032 1_556 S
O288 C291 1.259 . S
O289 Mg280 2.114 1_554 S
O289 C292 1.252 . S
O290 Mg280 2.251 . S
O290 Mg283 2.079 1_556 S
O290 C292 1.273 1_556 S
C291 O287 1.246 . S
C291 O288 1.259 . S
C292 O289 1.252 . S
C292 O290 1.273 1_554 S
O293 Mg280 2.010 . S
O293 C285 1.249 . S
Mg294 O295 2.028 . S
Mg294 O301 1.986 . S
Mg294 O303 2.114 . S
Mg294 O304 2.251 . S
Mg294 O307 2.010 . S
O295 Mg294 2.028 . S
O295 C298 1.250 . S
O296 Mg297 2.028 . S
O296 C298 1.248 . S
Mg297 O296 2.028 . S
Mg297 O302 2.032 . S
Mg297 O304 2.079 . S
C298 O295 1.250 . S
C298 O296 1.248 . S
C299 O300 1.264 . S
C299 O307 1.249 . S
O300 C299 1.264 . S
O301 Mg294 1.986 . S
O301 C305 1.246 . S
O302 Mg297 2.032 . S
O302 C305 1.259 . S
O303 Mg294 2.114 . S
O303 C306 1.252 . S
O304 Mg294 2.251 . S
O304 Mg297 2.079 . S
O304 C306 1.273 . S
C305 O301 1.246 . S
C305 O302 1.259 . S
C306 O303 1.252 . S
C306 O304 1.273 . S
O307 Mg294 2.010 . S
O307 C299 1.249 . S
Mg308 O309 2.028 . S
Mg308 O315 1.986 . S
Mg308 O317 2.114 . S
Mg308 O318 2.251 . S
Mg308 O321 2.010 . S
O309 Mg308 2.028 . S
O309 C312 1.250 . S
O310 Mg311 2.028 . S
O310 C312 1.248 . S
Mg311 O310 2.028 . S
Mg311 O316 2.032 . S
Mg311 O318 2.079 . S
C312 O309 1.250 . S
C312 O310 1.248 . S
C313 O314 1.264 . S
C313 O321 1.249 . S
O314 C313 1.264 . S
O315 Mg308 1.986 . S
O315 C319 1.246 . S
O316 Mg311 2.032 . S
O316 C319 1.259 . S
O317 Mg308 2.114 . S
O317 C320 1.252 . S
O318 Mg308 2.251 . S
O318 Mg311 2.079 . S
O318 C320 1.273 . S
C319 O315 1.246 . S
C319 O316 1.259 . S
C320 O317 1.252 . S
C320 O318 1.273 . S
O321 Mg308 2.010 . S
O321 C313 1.249 . S
Mg322 O323 2.028 . S
Mg322 O329 1.986 . S
Mg322 O331 2.114 . S
Mg322 O332 2.251 . S
Mg322 O335 2.010 . S
O323 Mg322 2.028 . S
O323 C326 1.250 . S
O324 Mg325 2.028 . S
O324 C326 1.248 . S
Mg325 O324 2.028 . S
Mg325 O330 2.032 . S
Mg325 O332 2.079 . S
C326 O323 1.250 . S
C326 O324 1.248 . S
C327 O328 1.264 . S
C327 O335 1.249 . S
O328 C327 1.264 . S
O329 Mg322 1.986 . S
O329 C333 1.246 . S
O330 Mg325 2.032 . S
O330 C333 1.259 . S
O331 Mg322 2.114 . S
O331 C334 1.252 . S
O332 Mg322 2.251 . S
O332 Mg325 2.079 . S
O332 C334 1.273 . S
C333 O329 1.246 . S
C333 O330 1.259 . S
C334 O331 1.252 . S
C334 O332 1.273 . S
O335 Mg322 2.010 . S
O335 C327 1.249 . S
Zn336 O342 1.969 . S
Zn336 O343 1.965 1_565 S
Zn336 O347 2.024 . S
Zn336 O352 1.969 . S
Zn337 O344 1.969 1_654 S
Zn337 O350 1.969 1_554 S
Zn337 O351 1.965 . S
Zn337 O353 2.024 1_655 S
C338 O339 1.229 . S
C338 O347 1.058 . S
O339 C338 1.229 . S
C340 O341 1.229 1_454 S
C340 O353 1.058 . S
O341 C340 1.229 1_656 S
O342 Zn336 1.969 . S
O342 C345 1.267 . S
O343 Zn336 1.965 1_545 S
O343 C354 1.260 1_554 S
O344 Zn337 1.969 1_456 S
O344 C354 1.258 . S
C345 O342 1.267 . S
C345 O346 1.228 . S
O346 C345 1.228 . S
O347 Zn336 2.024 . S
O347 C338 1.058 . S
C348 O349 1.246 . S
C348 O350 1.256 1_554 S
O349 C348 1.246 . S
O350 Zn337 1.969 1_556 S
O350 C348 1.256 1_556 S
O351 Zn337 1.965 . S
O351 C355 1.249 1_655 S
O352 Zn336 1.969 . S
O352 C355 1.278 1_565 S
O353 Zn337 2.024 1_455 S
O353 C340 1.058 . S
C354 O343 1.260 1_556 S
C354 O344 1.258 . S
C355 O351 1.249 1_455 S
C355 O352 1.278 1_545 S
Zn356 O362 1.969 . S
Zn356 O363 1.965 . S
Zn356 O367 2.024 . S
Zn356 O372 1.969 . S
Zn357 O364 1.969 . S
Zn357 O370 1.969 . S
Zn357 O371 1.965 . S
Zn357 O373 2.024 . S
C358 O359 1.229 . S
C358 O367 1.058 . S
O359 C358 1.229 . S
C360 O361 1.229 . S
C360 O373 1.058 . S
O361 C360 1.229 . S
O362 Zn356 1.969 . S
O362 C365 1.267 . S
O363 Zn356 1.965 . S
O363 C374 1.260 . S
O364 Zn357 1.969 . S
O364 C374 1.258 . S
C365 O362 1.267 . S
C365 O366 1.228 . S
O366 C365 1.228 . S
O367 Zn356 2.024 . S
O367 C358 1.058 . S
C368 O369 1.228 . S
C368 O370 1.267 . S
O369 C368 1.228 . S
O370 Zn357 1.969 . S
O370 C368 1.267 . S
O371 Zn357 1.965 . S
O371 C375 1.260 . S
O372 Zn356 1.969 . S
O372 C375 1.258 . S
O373 Zn357 2.024 . S
O373 C360 1.058 . S
C374 O363 1.260 . S
C374 O364 1.258 . S
C375 O371 1.260 . S
C375 O372 1.258 . S
Zn376 O382 1.969 . S
Zn376 O383 1.965 . S
Zn376 O387 2.024 . S
Zn376 O392 1.969 . S
Zn377 O384 1.969 . S
Zn377 O390 1.969 . S
Zn377 O391 1.965 1_565 S
Zn377 O393 2.024 . S
C378 O379 1.229 . S
C378 O387 1.058 . S
O379 C378 1.229 . S
C380 O381 1.229 . S
C380 O393 1.058 . S
O381 C380 1.229 . S
O382 Zn376 1.969 . S
O382 C385 1.267 . S
O383 Zn376 1.965 . S
O383 C394 1.260 . S
O384 Zn377 1.969 . S
O384 C394 1.258 1_565 S
C385 O382 1.267 . S
C385 O386 1.228 . S
O386 C385 1.228 . S
O387 Zn376 2.024 . S
O387 C378 1.058 . S
C388 O389 1.228 . S
C388 O390 1.267 . S
O389 C388 1.228 . S
O390 Zn377 1.969 . S
O390 C388 1.267 . S
O391 Zn377 1.965 1_545 S
O391 C395 1.260 . S
O392 Zn376 1.969 . S
O392 C395 1.258 . S
O393 Zn377 2.024 . S
O393 C380 1.058 . S
C394 O383 1.260 . S
C394 O384 1.258 1_545 S
C395 O391 1.260 . S
C395 O392 1.258 . S
Zn396 O402 1.969 . S
Zn396 O403 1.965 . S
Zn396 O407 2.024 . S
Zn396 O412 1.969 . S
Zn397 O404 1.969 . S
Zn397 O410 1.969 . S
Zn397 O411 1.965 . S
Zn397 O413 2.024 . S
C398 O399 1.229 . S
C398 O407 1.058 . S
O399 C398 1.229 . S
C400 O401 1.229 . S
C400 O413 1.058 . S
O401 C400 1.229 . S
O402 Zn396 1.969 . S
O402 C405 1.267 . S
O403 Zn396 1.965 . S
O403 C414 1.260 . S
O404 Zn397 1.969 . S
O404 C414 1.258 . S
C405 O402 1.267 . S
C405 O406 1.228 . S
O406 C405 1.228 . S
O407 Zn396 2.024 . S
O407 C398 1.058 . S
C408 O409 1.228 . S
C408 O410 1.267 . S
O409 C408 1.228 . S
O410 Zn397 1.969 . S
O410 C408 1.267 . S
O411 Zn397 1.965 . S
O411 C415 1.260 . S
O412 Zn396 1.969 . S
O412 C415 1.258 . S
O413 Zn397 2.024 . S
O413 C400 1.058 . S
C414 O403 1.260 . S
C414 O404 1.258 . S
C415 O411 1.260 . S
C415 O412 1.258 . S
Zn416 O422 1.969 . S
Zn416 O423 1.965 1_455 S
Zn416 O427 2.024 1_565 S
Zn416 O432 1.969 1_565 S
Zn417 O424 1.969 . S
Zn417 O430 1.969 . S
Zn417 O431 1.965 1_655 S
Zn417 O433 2.022 1_655 S
C418 O419 1.229 1_545 S
C418 O427 1.058 . S
O419 C418 1.229 1_565 S
C420 O421 1.229 . S
C420 O433 1.051 1_655 S
O421 C420 1.229 . S
O422 Zn416 1.969 . S
O422 C425 1.267 . S
O423 Zn416 1.965 1_655 S
O423 C434 1.260 . S
O424 Zn417 1.969 . S
O424 C434 1.258 1_545 S
C425 O422 1.267 . S
C425 O426 1.228 . S
O426 C425 1.228 . S
O427 Zn416 2.024 1_545 S
O427 C418 1.058 . S
C428 O429 1.228 . S
C428 O430 1.267 1_455 S
O429 C428 1.228 . S
O430 Zn417 1.969 . S
O430 C428 1.267 1_655 S
O431 Zn417 1.965 1_455 S
O431 C435 1.260 . S
O432 Zn416 1.969 1_545 S
O432 C435 1.258 . S
O433 Zn417 2.022 1_455 S
O433 C420 1.051 1_455 S
C434 O423 1.260 . S
C434 O424 1.258 1_565 S
C435 O431 1.260 . S
C435 O432 1.258 . S
Zn436 O442 1.969 . S
Zn436 O443 1.965 . S
Zn436 O447 2.024 . S
Zn436 O452 1.969 . S
Zn437 O444 1.969 . S
Zn437 O450 1.969 . S
Zn437 O451 1.965 . S
Zn437 O453 2.024 . S
C438 O439 1.229 . S
C438 O447 1.058 . S
O439 C438 1.229 . S
C440 O441 1.229 . S
C440 O453 1.058 . S
O441 C440 1.229 . S
O442 Zn436 1.969 . S
O442 C445 1.267 . S
O443 Zn436 1.965 . S
O443 C454 1.260 . S
O444 Zn437 1.969 . S
O444 C454 1.258 . S
C445 O442 1.267 . S
C445 O446 1.228 . S
O446 C445 1.228 . S
O447 Zn436 2.024 . S
O447 C438 1.058 . S
C448 O449 1.228 . S
C448 O450 1.267 . S
O449 C448 1.228 . S
O450 Zn437 1.969 . S
O450 C448 1.267 . S
O451 Zn437 1.965 . S
O451 C455 1.260 . S
O452 Zn436 1.969 . S
O452 C455 1.258 . S
O453 Zn437 2.024 . S
O453 C440 1.058 . S
C454 O443 1.260 . S
C454 O444 1.258 . S
C455 O451 1.260 . S
C455 O452 1.258 . S
Zn456 O462 1.969 . S
Zn456 O463 1.965 1_545 S
Zn456 O467 2.024 1_556 S
Zn456 O472 1.969 1_556 S
Zn457 O464 1.969 . S
Zn457 O470 1.969 . S
Zn457 O471 1.965 1_565 S
Zn457 O473 2.024 . S
C458 O459 1.229 . S
C458 O467 1.058 . S
O459 C458 1.229 . S
C460 O461 1.229 . S
C460 O473 1.058 . S
O461 C460 1.229 . S
O462 Zn456 1.969 . S
O462 C465 1.267 . S
O463 Zn456 1.965 1_565 S
O463 C474 1.260 1_556 S
O464 Zn457 1.969 . S
O464 C474 1.258 . S
C465 O462 1.267 . S
C465 O466 1.228 . S
O466 C465 1.228 . S
O467 Zn456 2.024 1_554 S
O467 C458 1.058 . S
C468 O469 1.228 1_565 S
C468 O470 1.267 . S
O469 C468 1.228 1_545 S
O470 Zn457 1.969 . S
O470 C468 1.267 . S
O471 Zn457 1.965 1_545 S
O471 C475 1.260 . S
O472 Zn456 1.969 1_554 S
O472 C475 1.258 . S
O473 Zn457 2.024 . S
O473 C460 1.058 . S
C474 O463 1.260 1_554 S
C474 O464 1.258 . S
C475 O471 1.260 . S
C475 O472 1.258 . S
Zn476 O482 1.969 . S
Zn476 O483 1.965 . S
Zn476 O487 2.024 . S
Zn476 O492 1.969 . S
Zn477 O484 1.969 . S
Zn477 O490 1.969 . S
Zn477 O491 1.965 . S
Zn477 O493 2.024 . S
C478 O479 1.229 . S
C478 O487 1.058 . S
O479 C478 1.229 . S
C480 O481 1.229 . S
C480 O493 1.058 . S
O481 C480 1.229 . S
O482 Zn476 1.969 . S
O482 C485 1.267 . S
O483 Zn476 1.965 . S
O483 C494 1.260 . S
O484 Zn477 1.969 . S
O484 C494 1.258 . S
C485 O482 1.267 . S
C485 O486 1.228 . S
O486 C485 1.228 . S
O487 Zn476 2.024 . S
O487 C478 1.058 . S
C488 O489 1.228 . S
C488 O490 1.267 . S
O489 C488 1.228 . S
O490 Zn477 1.969 . S
O490 C488 1.267 . S
O491 Zn477 1.965 . S
O491 C495 1.260 . S
O492 Zn476 1.969 . S
O492 C495 1.258 . S
O493 Zn477 2.024 . S
O493 C480 1.058 . S
C494 O483 1.260 . S
C494 O484 1.258 . S
C495 O491 1.260 . S
C495 O492 1.258 . S
Zn496 O502 1.969 . S
Zn496 O503 1.965 . S
Zn496 O507 2.024 . S
Zn496 O512 1.969 . S
Zn497 O504 1.969 1_556 S
Zn497 O510 1.969 1_556 S
Zn497 O511 1.965 1_556 S
Zn497 O513 2.024 . S
C498 O499 1.229 . S
C498 O507 1.058 . S
O499 C498 1.229 . S
C500 O501 1.229 . S
C500 O513 1.058 . S
O501 C500 1.229 . S
O502 Zn496 1.969 . S
O502 C505 1.267 . S
O503 Zn496 1.965 . S
O503 C514 1.260 . S
O504 Zn497 1.969 1_554 S
O504 C514 1.258 . S
C505 O502 1.267 . S
C505 O506 1.228 . S
O506 C505 1.228 . S
O507 Zn496 2.024 . S
O507 C498 1.058 . S
C508 O509 1.228 . S
C508 O510 1.267 1_556 S
O509 C508 1.228 . S
O510 Zn497 1.969 1_554 S
O510 C508 1.267 1_554 S
O511 Zn497 1.965 1_554 S
O511 C515 1.260 . S
O512 Zn496 1.969 . S
O512 C515 1.258 . S
O513 Zn497 2.024 . S
O513 C500 1.058 . S
C514 O503 1.260 . S
C514 O504 1.258 . S
C515 O511 1.260 . S
C515 O512 1.258 . S
Zn516 O522 1.969 . S
Zn516 O523 1.965 . S
Zn516 O527 2.024 . S
Zn516 O532 1.969 . S
Zn517 O524 1.969 . S
Zn517 O530 1.969 . S
Zn517 O531 1.965 . S
Zn517 O533 2.024 . S
C518 O519 1.229 . S
C518 O527 1.058 . S
O519 C518 1.229 . S
C520 O521 1.229 . S
C520 O533 1.058 . S
O521 C520 1.229 . S
O522 Zn516 1.969 . S
O522 C525 1.267 . S
O523 Zn516 1.965 . S
O523 C534 1.260 . S
O524 Zn517 1.969 . S
O524 C534 1.258 . S
C525 O522 1.267 . S
C525 O526 1.228 . S
O526 C525 1.228 . S
O527 Zn516 2.024 . S
O527 C518 1.058 . S
C528 O529 1.228 . S
C528 O530 1.267 . S
O529 C528 1.228 . S
O530 Zn517 1.969 . S
O530 C528 1.267 . S
O531 Zn517 1.965 . S
O531 C535 1.260 . S
O532 Zn516 1.969 . S
O532 C535 1.258 . S
O533 Zn517 2.024 . S
O533 C520 1.058 . S
C534 O523 1.260 . S
C534 O524 1.258 . S
C535 O531 1.260 . S
C535 O532 1.258 . S
Zn536 O542 1.969 . S
Zn536 O543 1.965 . S
Zn536 O547 2.024 . S
Zn536 O552 1.969 . S
Zn537 O544 1.971 1_655 S
Zn537 O550 1.969 . S
Zn537 O551 1.965 1_655 S
Zn537 O553 2.024 . S
C538 O539 1.229 . S
C538 O547 1.058 . S
O539 C538 1.229 . S
C540 O541 1.229 . S
C540 O553 1.058 . S
O541 C540 1.229 . S
O542 Zn536 1.969 . S
O542 C545 1.267 . S
O543 Zn536 1.965 . S
O543 C554 1.260 . S
O544 Zn537 1.971 1_455 S
O544 C554 1.256 . S
C545 O542 1.267 . S
C545 O546 1.228 . S
O546 C545 1.228 . S
O547 Zn536 2.024 . S
O547 C538 1.058 . S
C548 O549 1.228 . S
C548 O550 1.267 . S
O549 C548 1.228 . S
O550 Zn537 1.969 . S
O550 C548 1.267 . S
O551 Zn537 1.965 1_455 S
O551 C555 1.260 . S
O552 Zn536 1.969 . S
O552 C555 1.258 . S
O553 Zn537 2.024 . S
O553 C540 1.058 . S
C554 O543 1.260 . S
C554 O544 1.256 . S
C555 O551 1.260 . S
C555 O552 1.258 . S
Zn556 O562 1.969 . S
Zn556 O563 1.965 . S
Zn556 O567 2.024 . S
Zn556 O572 1.969 . S
Zn557 O564 1.969 . S
Zn557 O570 1.969 . S
Zn557 O571 1.965 . S
Zn557 O573 2.024 . S
C558 O559 1.229 . S
C558 O567 1.058 . S
O559 C558 1.229 . S
C560 O561 1.229 . S
C560 O573 1.058 . S
O561 C560 1.229 . S
O562 Zn556 1.969 . S
O562 C565 1.267 . S
O563 Zn556 1.965 . S
O563 C574 1.260 . S
O564 Zn557 1.969 . S
O564 C574 1.258 . S
C565 O562 1.267 . S
C565 O566 1.228 . S
O566 C565 1.228 . S
O567 Zn556 2.024 . S
O567 C558 1.058 . S
C568 O569 1.228 . S
C568 O570 1.267 . S
O569 C568 1.228 . S
O570 Zn557 1.969 . S
O570 C568 1.267 . S
O571 Zn557 1.965 . S
O571 C575 1.260 . S
O572 Zn556 1.969 . S
O572 C575 1.258 . S
O573 Zn557 2.024 . S
O573 C560 1.058 . S
C574 O563 1.260 . S
C574 O564 1.258 . S
C575 O571 1.260 . S
C575 O572 1.258 . S
Zn576 O582 1.969 . S
Zn576 O583 1.965 . S
Zn576 O587 2.024 . S
Zn576 O592 1.969 . S
Zn577 O584 1.969 . S
Zn577 O590 1.969 . S
Zn577 O591 1.965 . S
Zn577 O593 2.024 . S
C578 O579 1.229 . S
C578 O587 1.058 . S
O579 C578 1.229 . S
C580 O581 1.229 . S
C580 O593 1.058 . S
O581 C580 1.229 . S
O582 Zn576 1.969 . S
O582 C585 1.267 . S
O583 Zn576 1.965 . S
O583 C594 1.260 . S
O584 Zn577 1.969 . S
O584 C594 1.258 . S
C585 O582 1.267 . S
C585 O586 1.228 . S
O586 C585 1.228 . S
O587 Zn576 2.024 . S
O587 C578 1.058 . S
C588 O589 1.228 . S
C588 O590 1.267 . S
O589 C588 1.228 . S
O590 Zn577 1.969 . S
O590 C588 1.267 . S
O591 Zn577 1.965 . S
O591 C595 1.260 . S
O592 Zn576 1.969 . S
O592 C595 1.258 . S
O593 Zn577 2.024 . S
O593 C580 1.058 . S
C594 O583 1.260 . S
C594 O584 1.258 . S
C595 O591 1.260 . S
C595 O592 1.258 . S
Zn596 O602 1.969 . S
Zn596 O603 1.965 . S
Zn596 O607 2.024 . S
Zn596 O612 1.969 . S
Zn597 O604 1.969 . S
Zn597 O610 1.969 . S
Zn597 O611 1.965 . S
Zn597 O613 2.024 . S
C598 O599 1.229 . S
C598 O607 1.058 . S
O599 C598 1.229 . S
C600 O601 1.229 . S
C600 O613 1.058 . S
O601 C600 1.229 . S
O602 Zn596 1.969 . S
O602 C605 1.267 . S
O603 Zn596 1.965 . S
O603 C614 1.260 . S
O604 Zn597 1.969 . S
O604 C614 1.258 . S
C605 O602 1.267 . S
C605 O606 1.228 . S
O606 C605 1.228 . S
O607 Zn596 2.024 . S
O607 C598 1.058 . S
C608 O609 1.228 . S
C608 O610 1.267 . S
O609 C608 1.228 . S
O610 Zn597 1.969 . S
O610 C608 1.267 . S
O611 Zn597 1.965 . S
O611 C615 1.260 . S
O612 Zn596 1.969 . S
O612 C615 1.258 . S
O613 Zn597 2.024 . S
O613 C600 1.058 . S
C614 O603 1.260 . S
C614 O604 1.258 . S
C615 O611 1.260 . S
C615 O612 1.258 . S
Zn616 O622 1.969 . S
Zn616 O623 1.965 . S
Zn616 O627 2.024 . S
Zn616 O632 1.969 . S
Zn617 O624 1.969 . S
Zn617 O630 1.969 . S
Zn617 O631 1.965 . S
Zn617 O633 2.024 . S
C618 O619 1.229 . S
C618 O627 1.058 . S
O619 C618 1.229 . S
C620 O621 1.229 . S
C620 O633 1.058 . S
O621 C620 1.229 . S
O622 Zn616 1.969 . S
O622 C625 1.267 . S
O623 Zn616 1.965 . S
O623 C634 1.260 . S
O624 Zn617 1.969 . S
O624 C634 1.258 . S
C625 O622 1.267 . S
C625 O626 1.228 . S
O626 C625 1.228 . S
O627 Zn616 2.024 . S
O627 C618 1.058 . S
C628 O629 1.228 . S
C628 O630 1.267 . S
O629 C628 1.228 . S
O630 Zn617 1.969 . S
O630 C628 1.267 . S
O631 Zn617 1.965 . S
O631 C635 1.260 . S
O632 Zn616 1.969 . S
O632 C635 1.258 . S
O633 Zn617 2.024 . S
O633 C620 1.058 . S
C634 O623 1.260 . S
C634 O624 1.258 . S
C635 O631 1.260 . S
C635 O632 1.258 . S
Zn636 O642 1.969 . S
Zn636 O643 1.965 . S
Zn636 O647 2.024 1_655 S
Zn636 O652 1.969 1_655 S
Zn637 O644 1.969 1_554 S
Zn637 O650 1.967 1_554 S
Zn637 O651 1.965 . S
Zn637 O653 2.024 . S
C638 O639 1.229 1_455 S
C638 O647 1.058 . S
O639 C638 1.229 1_655 S
C640 O641 1.229 . S
C640 O653 1.058 1_556 S
O641 C640 1.229 . S
O642 Zn636 1.969 . S
O642 C645 1.267 . S
O643 Zn636 1.965 . S
O643 C654 1.260 1_654 S
O644 Zn637 1.969 1_556 S
O644 C654 1.258 . S
C645 O642 1.267 . S
C645 O646 1.228 . S
O646 C645 1.228 . S
O647 Zn636 2.024 1_455 S
O647 C638 1.058 . S
C648 O649 1.228 . S
C648 O650 1.265 1_554 S
O649 C648 1.228 . S
O650 Zn637 1.967 1_556 S
O650 C648 1.265 1_556 S
O651 Zn637 1.965 . S
O651 C655 1.260 . S
O652 Zn636 1.969 1_455 S
O652 C655 1.258 . S
O653 Zn637 2.024 . S
O653 C640 1.058 1_554 S
C654 O643 1.260 1_456 S
C654 O644 1.258 . S
C655 O651 1.260 . S
C655 O652 1.258 . S
H656 C662 0.930 . S
H657 C665 0.930 . S
H658 C666 0.930 . S
H659 C667 0.930 . S
H660 C670 0.930 . S
H661 C671 0.930 . S
C662 H656 0.930 . S
C662 C663 1.355 . S
C662 C664 1.415 . S
C663 C662 1.355 . S
C663 C665 1.419 1_655 S
C664 C662 1.415 . S
C664 C669 1.425 1_655 S
C664 C671 1.409 . S
C665 H657 0.930 . S
C665 C663 1.419 1_455 S
C665 C666 1.362 . S
C666 H658 0.930 . S
C666 C665 1.362 . S
C666 C669 1.409 . S
C667 H659 0.930 . S
C667 C668 1.355 . S
C667 C669 1.415 . S
C668 C667 1.355 . S
C668 C670 1.419 1_455 S
C669 C664 1.425 1_455 S
C669 C666 1.409 . S
C669 C667 1.415 . S
C670 H660 0.930 . S
C670 C668 1.419 1_655 S
C670 C671 1.362 . S
C671 H661 0.930 . S
C671 C664 1.409 . S
C671 C670 1.362 . S
H672 C678 0.930 . S
H673 C681 0.930 . S
H674 C682 0.930 . S
H675 C683 0.930 . S
H676 C686 0.930 . S
H677 C687 0.930 . S
C678 H672 0.930 . S
C678 C679 1.355 . S
C678 C680 1.415 . S
C679 C678 1.355 . S
C679 C681 1.419 . S
C680 C678 1.415 . S
C680 C685 1.425 . S
C680 C687 1.409 . S
C681 H673 0.930 . S
C681 C679 1.419 . S
C681 C682 1.362 . S
C682 H674 0.930 . S
C682 C681 1.362 . S
C682 C685 1.409 . S
C683 H675 0.930 . S
C683 C684 1.355 . S
C683 C685 1.415 . S
C684 C683 1.355 . S
C684 C686 1.419 . S
C685 C680 1.425 . S
C685 C682 1.409 . S
C685 C683 1.415 . S
C686 H676 0.930 . S
C686 C684 1.419 . S
C686 C687 1.362 . S
C687 H677 0.930 . S
C687 C680 1.409 . S
C687 C686 1.362 . S
H688 C694 0.930 . S
H689 C697 0.930 . S
H690 C698 0.930 . S
H691 C699 0.930 . S
H692 C702 0.930 . S
H693 C703 0.930 . S
C694 H688 0.930 . S
C694 C695 1.355 . S
C694 C696 1.415 . S
C695 C694 1.355 . S
C695 C697 1.419 . S
C696 C694 1.415 . S
C696 C701 1.425 . S
C696 C703 1.409 . S
C697 H689 0.930 . S
C697 C695 1.419 . S
C697 C698 1.362 . S
C698 H690 0.930 . S
C698 C697 1.362 . S
C698 C701 1.409 . S
C699 H691 0.930 . S
C699 C700 1.355 . S
C699 C701 1.415 . S
C700 C699 1.355 . S
C700 C702 1.419 . S
C701 C696 1.425 . S
C701 C698 1.409 . S
C701 C699 1.415 . S
C702 H692 0.930 . S
C702 C700 1.419 . S
C702 C703 1.362 . S
C703 H693 0.930 . S
C703 C696 1.409 . S
C703 C702 1.362 . S
H704 C710 0.930 . S
H705 C713 0.930 . S
H706 C714 0.930 . S
H707 C715 0.930 . S
H708 C718 0.930 . S
H709 C719 0.930 . S
C710 H704 0.930 . S
C710 C711 1.355 . S
C710 C712 1.415 . S
C711 C710 1.355 . S
C711 C713 1.419 . S
C712 C710 1.415 . S
C712 C717 1.425 . S
C712 C719 1.409 . S
C713 H705 0.930 . S
C713 C711 1.419 . S
C713 C714 1.362 . S
C714 H706 0.930 . S
C714 C713 1.362 . S
C714 C717 1.409 . S
C715 H707 0.930 . S
C715 C716 1.355 . S
C715 C717 1.415 . S
C716 C715 1.355 . S
C716 C718 1.419 . S
C717 C712 1.425 . S
C717 C714 1.409 . S
C717 C715 1.415 . S
C718 H708 0.930 . S
C718 C716 1.419 . S
C718 C719 1.362 . S
C719 H709 0.930 . S
C719 C712 1.409 . S
C719 C718 1.362 . S
H720 C726 0.930 . S
H721 C729 0.930 . S
H722 C730 0.930 . S
H723 C731 0.930 . S
H724 C734 0.930 . S
H725 C735 0.930 . S
C726 H720 0.930 . S
C726 C727 1.355 . S
C726 C728 1.415 . S
C727 C726 1.355 . S
C727 C729 1.419 1_455 S
C728 C726 1.415 . S
C728 C733 1.425 . S
C728 C735 1.409 . S
C729 H721 0.930 . S
C729 C727 1.419 1_655 S
C729 C730 1.362 . S
C730 H722 0.930 . S
C730 C729 1.362 . S
C730 C733 1.409 1_655 S
C731 H723 0.930 . S
C731 C732 1.355 . S
C731 C733 1.415 . S
C732 C731 1.355 . S
C732 C734 1.419 . S
C733 C728 1.425 . S
C733 C730 1.409 1_455 S
C733 C731 1.415 . S
C734 H724 0.930 . S
C734 C732 1.419 . S
C734 C735 1.362 . S
C735 H725 0.930 . S
C735 C728 1.409 . S
C735 C734 1.362 . S
H736 C742 0.930 . S
H737 C745 0.930 . S
H738 C746 0.930 . S
H739 C747 0.930 . S
H740 C750 0.930 . S
H741 C751 0.930 . S
C742 H736 0.930 . S
C742 C743 1.355 . S
C742 C744 1.415 . S
C743 C742 1.355 . S
C743 C745 1.419 . S
C744 C742 1.415 . S
C744 C749 1.425 . S
C744 C751 1.409 . S
C745 H737 0.930 . S
C745 C743 1.419 . S
C745 C746 1.362 . S
C746 H738 0.930 . S
C746 C745 1.362 . S
C746 C749 1.409 . S
C747 H739 0.930 . S
C747 C748 1.355 . S
C747 C749 1.415 . S
C748 C747 1.355 . S
C748 C750 1.419 . S
C749 C744 1.425 . S
C749 C746 1.409 . S
C749 C747 1.415 . S
C750 H740 0.930 . S
C750 C748 1.419 . S
C750 C751 1.362 . S
C751 H741 0.930 . S
C751 C744 1.409 . S
C751 C750 1.362 . S
H752 C758 0.930 . S
H753 C761 0.930 . S
H754 C762 0.930 . S
H755 C763 0.930 . S
H756 C766 0.930 . S
H757 C767 0.930 . S
C758 H752 0.930 . S
C758 C759 1.355 . S
C758 C760 1.415 . S
C759 C758 1.355 . S
C759 C761 1.419 . S
C760 C758 1.415 . S
C760 C765 1.425 . S
C760 C767 1.409 . S
C761 H753 0.930 . S
C761 C759 1.419 . S
C761 C762 1.362 . S
C762 H754 0.930 . S
C762 C761 1.362 . S
C762 C765 1.409 . S
C763 H755 0.930 . S
C763 C764 1.355 . S
C763 C765 1.415 . S
C764 C763 1.355 . S
C764 C766 1.419 . S
C765 C760 1.425 . S
C765 C762 1.409 . S
C765 C763 1.415 . S
C766 H756 0.930 . S
C766 C764 1.419 . S
C766 C767 1.362 . S
C767 H757 0.930 . S
C767 C760 1.409 . S
C767 C766 1.362 . S
H768 C774 0.930 . S
H769 C777 0.930 . S
H770 C778 0.930 . S
H771 C779 0.930 . S
H772 C782 0.930 . S
H773 C783 0.930 . S
C774 H768 0.930 . S
C774 C775 1.355 . S
C774 C776 1.415 . S
C775 C774 1.355 . S
C775 C777 1.419 . S
C776 C774 1.415 . S
C776 C781 1.425 . S
C776 C783 1.409 . S
C777 H769 0.930 . S
C777 C775 1.419 . S
C777 C778 1.362 . S
C778 H770 0.930 . S
C778 C777 1.362 . S
C778 C781 1.409 . S
C779 H771 0.930 . S
C779 C780 1.355 . S
C779 C781 1.415 . S
C780 C779 1.355 . S
C780 C782 1.419 . S
C781 C776 1.425 . S
C781 C778 1.409 . S
C781 C779 1.415 . S
C782 H772 0.930 . S
C782 C780 1.419 . S
C782 C783 1.362 . S
C783 H773 0.930 . S
C783 C776 1.409 . S
C783 C782 1.362 . S
H784 C790 0.930 1_565 S
H785 C793 0.930 . S
H786 C794 0.930 . S
H787 C795 0.930 . S
H788 C798 0.930 . S
H789 C799 0.930 1_465 S
C790 H784 0.930 1_545 S
C790 C791 1.355 . S
C790 C792 1.415 . S
C791 C790 1.355 . S
C791 C793 1.419 . S
C792 C790 1.415 . S
C792 C797 1.425 . S
C792 C799 1.409 . S
C793 H785 0.930 . S
C793 C791 1.419 . S
C793 C794 1.362 . S
C794 H786 0.930 . S
C794 C793 1.362 . S
C794 C797 1.409 . S
C795 H787 0.930 . S
C795 C796 1.355 . S
C795 C797 1.415 . S
C796 C795 1.355 . S
C796 C798 1.419 1_655 S
C797 C792 1.425 . S
C797 C794 1.409 . S
C797 C795 1.415 . S
C798 H788 0.930 . S
C798 C796 1.419 1_455 S
C798 C799 1.362 1_455 S
C799 H789 0.930 1_645 S
C799 C792 1.409 . S
C799 C798 1.362 1_655 S
H800 C806 0.930 . S
H801 C809 0.930 . S
H802 C810 0.930 . S
H803 C811 0.930 . S
H804 C814 0.930 . S
H805 C815 0.930 . S
C806 H800 0.930 . S
C806 C807 1.355 . S
C806 C808 1.415 . S
C807 C806 1.355 . S
C807 C809 1.419 . S
C808 C806 1.415 . S
C808 C813 1.425 . S
C808 C815 1.409 . S
C809 H801 0.930 . S
C809 C807 1.419 . S
C809 C810 1.362 . S
C810 H802 0.930 . S
C810 C809 1.362 . S
C810 C813 1.409 . S
C811 H803 0.930 . S
C811 C812 1.355 . S
C811 C813 1.415 . S
C812 C811 1.355 . S
C812 C814 1.419 . S
C813 C808 1.425 . S
C813 C810 1.409 . S
C813 C811 1.415 . S
C814 H804 0.930 . S
C814 C812 1.419 . S
C814 C815 1.362 . S
C815 H805 0.930 . S
C815 C808 1.409 . S
C815 C814 1.362 . S
H816 C822 0.930 . S
H817 C825 0.930 . S
H818 C826 0.930 . S
H819 C827 0.930 . S
H820 C830 0.930 . S
H821 C831 0.930 . S
C822 H816 0.930 . S
C822 C823 1.355 1_545 S
C822 C824 1.415 . S
C823 C822 1.355 1_565 S
C823 C825 1.419 . S
C824 C822 1.415 . S
C824 C829 1.425 1_545 S
C824 C831 1.409 . S
C825 H817 0.930 . S
C825 C823 1.419 . S
C825 C826 1.362 . S
C826 H818 0.930 . S
C826 C825 1.362 . S
C826 C829 1.409 . S
C827 H819 0.930 . S
C827 C828 1.355 1_565 S
C827 C829 1.415 . S
C828 C827 1.355 1_545 S
C828 C830 1.419 . S
C829 C824 1.425 1_565 S
C829 C826 1.409 . S
C829 C827 1.415 . S
C830 H820 0.930 . S
C830 C828 1.419 . S
C830 C831 1.362 . S
C831 H821 0.930 . S
C831 C824 1.409 . S
C831 C830 1.362 . S
H832 C838 0.930 . S
H833 C841 0.930 . S
H834 C842 0.930 . S
H835 C843 0.930 . S
H836 C846 0.930 . S
H837 C847 0.930 . S
C838 H832 0.930 . S
C838 C839 1.355 . S
C838 C840 1.415 . S
C839 C838 1.355 . S
C839 C841 1.419 . S
C840 C838 1.415 . S
C840 C845 1.425 . S
C840 C847 1.409 . S
C841 H833 0.930 . S
C841 C839 1.419 . S
C841 C842 1.362 . S
C842 H834 0.930 . S
C842 C841 1.362 . S
C842 C845 1.409 . S
C843 H835 0.930 . S
C843 C844 1.355 . S
C843 C845 1.415 . S
C844 C843 1.355 . S
C844 C846 1.419 . S
C845 C840 1.425 . S
C845 C842 1.409 . S
C845 C843 1.415 . S
C846 H836 0.930 . S
C846 C844 1.419 . S
C846 C847 1.362 . S
C847 H837 0.930 . S
C847 C840 1.409 . S
C847 C846 1.362 . S
H848 C854 0.930 . S
H849 C857 0.932 . S
H850 C858 0.930 1_565 S
H851 C859 0.902 1_465 S
H852 C862 0.930 . S
H853 C863 0.930 . S
C854 H848 0.930 . S
C854 C855 1.355 . S
C854 C856 1.415 . S
C855 C854 1.355 . S
C855 C857 1.419 . S
C856 C854 1.415 . S
C856 C861 1.425 . S
C856 C863 1.409 . S
C857 H849 0.932 . S
C857 C855 1.419 . S
C857 C858 1.362 . S
C858 H850 0.930 1_545 S
C858 C857 1.362 . S
C858 C861 1.409 . S
C859 H851 0.902 1_645 S
C859 C860 1.355 . S
C859 C861 1.415 . S
C860 C859 1.355 . S
C860 C862 1.419 . S
C861 C856 1.425 . S
C861 C858 1.409 . S
C861 C859 1.415 . S
C862 H852 0.930 . S
C862 C860 1.419 . S
C862 C863 1.362 . S
C863 H853 0.930 . S
C863 C856 1.409 . S
C863 C862 1.362 . S
H864 C870 0.930 . S
H865 C873 0.930 . S
H866 C874 0.930 . S
H867 C875 0.930 . S
H868 C878 0.930 . S
H869 C879 0.930 . S
C870 H864 0.930 . S
C870 C871 1.355 . S
C870 C872 1.415 . S
C871 C870 1.355 . S
C871 C873 1.419 . S
C872 C870 1.415 . S
C872 C877 1.425 . S
C872 C879 1.409 . S
C873 H865 0.930 . S
C873 C871 1.419 . S
C873 C874 1.362 . S
C874 H866 0.930 . S
C874 C873 1.362 . S
C874 C877 1.409 . S
C875 H867 0.930 . S
C875 C876 1.355 . S
C875 C877 1.415 . S
C876 C875 1.355 . S
C876 C878 1.419 . S
C877 C872 1.425 . S
C877 C874 1.409 . S
C877 C875 1.415 . S
C878 H868 0.930 . S
C878 C876 1.419 . S
C878 C879 1.362 . S
C879 H869 0.930 . S
C879 C872 1.409 . S
C879 C878 1.362 . S
H880 C886 0.930 . S
H881 C889 0.930 . S
H882 C890 0.930 . S
H883 C891 0.923 1_565 S
H884 C894 0.930 . S
H885 C895 0.930 . S
C886 H880 0.930 . S
C886 C887 1.355 . S
C886 C888 1.415 . S
C887 C886 1.355 . S
C887 C889 1.419 1_545 S
C888 C886 1.415 . S
C888 C893 1.425 . S
C888 C895 1.409 . S
C889 H881 0.930 . S
C889 C887 1.419 1_565 S
C889 C890 1.362 . S
C890 H882 0.930 . S
C890 C889 1.362 . S
C890 C893 1.409 1_565 S
C891 H883 0.923 1_545 S
C891 C892 1.355 . S
C891 C893 1.415 . S
C892 C891 1.355 . S
C892 C894 1.419 . S
C893 C888 1.425 . S
C893 C890 1.409 1_545 S
C893 C891 1.415 . S
C894 H884 0.930 . S
C894 C892 1.419 . S
C894 C895 1.362 . S
C895 H885 0.930 . S
C895 C888 1.409 . S
C895 C894 1.362 . S
H896 C902 0.930 . S
H897 C905 0.930 . S
H898 C906 0.930 . S
H899 C907 0.930 . S
H900 C910 0.930 . S
H901 C911 0.930 . S
C902 H896 0.930 . S
C902 C903 1.355 . S
C902 C904 1.415 . S
C903 C902 1.355 . S
C903 C905 1.419 . S
C904 C902 1.415 . S
C904 C909 1.425 . S
C904 C911 1.409 . S
C905 H897 0.930 . S
C905 C903 1.419 . S
C905 C906 1.362 . S
C906 H898 0.930 . S
C906 C905 1.362 . S
C906 C909 1.409 . S
C907 H899 0.930 . S
C907 C908 1.355 . S
C907 C909 1.415 . S
C908 C907 1.355 . S
C908 C910 1.419 . S
C909 C904 1.425 . S
C909 C906 1.409 . S
C909 C907 1.415 . S
C910 H900 0.930 . S
C910 C908 1.419 . S
C910 C911 1.362 . S
C911 H901 0.930 . S
C911 C904 1.409 . S
C911 C910 1.362 . S
H912 C918 0.930 1_556 S
H913 C921 0.930 . S
H914 C922 0.930 . S
H915 C923 0.930 . S
H916 C926 0.930 . S
H917 C927 0.930 1_556 S
C918 H912 0.930 1_554 S
C918 C919 1.355 . S
C918 C920 1.415 . S
C919 C918 1.355 . S
C919 C921 1.419 . S
C920 C918 1.415 . S
C920 C925 1.425 . S
C920 C927 1.409 . S
C921 H913 0.930 . S
C921 C919 1.419 . S
C921 C922 1.362 . S
C922 H914 0.930 . S
C922 C921 1.362 . S
C922 C925 1.409 . S
C923 H915 0.930 . S
C923 C924 1.355 . S
C923 C925 1.415 . S
C924 C923 1.355 . S
C924 C926 1.419 . S
C925 C920 1.425 . S
C925 C922 1.409 . S
C925 C923 1.415 . S
C926 H916 0.930 . S
C926 C924 1.419 . S
C926 C927 1.362 . S
C927 H917 0.930 1_554 S
C927 C920 1.409 . S
C927 C926 1.362 . S
H928 C934 0.930 . S
H929 C937 0.930 . S
H930 C938 0.930 . S
H931 C939 0.930 . S
H932 C942 0.930 . S
H933 C943 0.930 . S
C934 H928 0.930 . S
C934 C935 1.355 1_554 S
C934 C936 1.415 . S
C935 C934 1.355 1_556 S
C935 C937 1.419 . S
C936 C934 1.415 . S
C936 C941 1.425 1_554 S
C936 C943 1.409 . S
C937 H929 0.930 . S
C937 C935 1.419 . S
C937 C938 1.362 . S
C938 H930 0.930 . S
C938 C937 1.362 . S
C938 C941 1.409 . S
C939 H931 0.930 . S
C939 C940 1.355 1_556 S
C939 C941 1.415 . S
C940 C939 1.355 1_554 S
C940 C942 1.419 . S
C941 C936 1.425 1_556 S
C941 C938 1.409 . S
C941 C939 1.415 . S
C942 H932 0.930 . S
C942 C940 1.419 . S
C942 C943 1.362 . S
C943 H933 0.930 . S
C943 C936 1.409 . S
C943 C942 1.362 . S
H944 C950 0.930 . S
H945 C953 0.930 . S
H946 C954 0.930 . S
H947 C955 0.930 . S
H948 C958 0.930 . S
H949 C959 0.930 . S
C950 H944 0.930 . S
C950 C951 1.355 . S
C950 C952 1.415 . S
C951 C950 1.355 . S
C951 C953 1.419 . S
C952 C950 1.415 . S
C952 C957 1.425 . S
C952 C959 1.409 . S
C953 H945 0.930 . S
C953 C951 1.419 . S
C953 C954 1.362 . S
C954 H946 0.930 . S
C954 C953 1.362 . S
C954 C957 1.409 . S
C955 H947 0.930 . S
C955 C956 1.355 . S
C955 C957 1.415 . S
C956 C955 1.355 . S
C956 C958 1.419 . S
C957 C952 1.425 . S
C957 C954 1.409 . S
C957 C955 1.415 . S
C958 H948 0.930 . S
C958 C956 1.419 . S
C958 C959 1.362 . S
C959 H949 0.930 . S
C959 C952 1.409 . S
C959 C958 1.362 . S
H960 C966 0.930 . S
H961 C969 0.930 . S
H962 C970 0.930 . S
H963 C971 0.930 . S
H964 C974 0.930 . S
H965 C975 0.930 . S
C966 H960 0.930 . S
C966 C967 1.355 . S
C966 C968 1.415 . S
C967 C966 1.355 . S
C967 C969 1.419 . S
C968 C966 1.415 . S
C968 C973 1.425 . S
C968 C975 1.409 . S
C969 H961 0.930 . S
C969 C967 1.419 . S
C969 C970 1.362 . S
C970 H962 0.930 . S
C970 C969 1.362 . S
C970 C973 1.409 . S
C971 H963 0.930 . S
C971 C972 1.355 . S
C971 C973 1.415 . S
C972 C971 1.355 . S
C972 C974 1.419 . S
C973 C968 1.425 . S
C973 C970 1.409 . S
C973 C971 1.415 . S
C974 H964 0.930 . S
C974 C972 1.419 . S
C974 C975 1.362 . S
C975 H965 0.930 . S
C975 C968 1.409 . S
C975 C974 1.362 . S
H976 C982 0.930 . S
H977 C985 0.930 . S
H978 C986 0.930 . S
H979 C987 0.930 . S
H980 C990 0.930 . S
H981 C991 0.930 . S
C982 H976 0.930 . S
C982 C983 1.355 . S
C982 C984 1.415 . S
C983 C982 1.355 . S
C983 C985 1.419 . S
C984 C982 1.415 . S
C984 C989 1.425 . S
C984 C991 1.409 . S
C985 H977 0.930 . S
C985 C983 1.419 . S
C985 C986 1.362 . S
C986 H978 0.930 . S
C986 C985 1.362 . S
C986 C989 1.409 . S
C987 H979 0.930 . S
C987 C988 1.355 . S
C987 C989 1.415 . S
C988 C987 1.355 . S
C988 C990 1.419 . S
C989 C984 1.425 . S
C989 C986 1.409 . S
C989 C987 1.415 . S
C990 H980 0.930 . S
C990 C988 1.419 . S
C990 C991 1.362 . S
C991 H981 0.930 . S
C991 C984 1.409 . S
C991 C990 1.362 . S
H992 C998 0.930 . S
H993 C1001 0.930 . S
H994 C1002 0.930 . S
H995 C1003 0.930 . S
H996 C1006 0.930 . S
H997 C1007 0.930 . S
C998 H992 0.930 . S
C998 C999 1.355 . S
C998 C1000 1.415 . S
C999 C998 1.355 . S
C999 C1001 1.419 . S
C1000 C998 1.415 . S
C1000 C1005 1.425 . S
C1000 C1007 1.409 . S
C1001 H993 0.930 . S
C1001 C999 1.419 . S
C1001 C1002 1.362 . S
C1002 H994 0.930 . S
C1002 C1001 1.362 . S
C1002 C1005 1.409 . S
C1003 H995 0.930 . S
C1003 C1004 1.355 . S
C1003 C1005 1.415 . S
C1004 C1003 1.355 . S
C1004 C1006 1.419 . S
C1005 C1000 1.425 . S
C1005 C1002 1.409 . S
C1005 C1003 1.415 . S
C1006 H996 0.930 . S
C1006 C1004 1.419 . S
C1006 C1007 1.362 . S
C1007 H997 0.930 . S
C1007 C1000 1.409 . S
C1007 C1006 1.362 . S
H1008 C1014 0.930 . S
H1009 C1017 0.930 . S
H1010 C1018 0.930 . S
H1011 C1019 0.930 . S
H1012 C1022 0.930 . S
H1013 C1023 0.930 . S
C1014 H1008 0.930 . S
C1014 C1015 1.355 . S
C1014 C1016 1.415 . S
C1015 C1014 1.355 . S
C1015 C1017 1.419 . S
C1016 C1014 1.415 . S
C1016 C1021 1.425 . S
C1016 C1023 1.409 . S
C1017 H1009 0.930 . S
C1017 C1015 1.419 . S
C1017 C1018 1.362 . S
C1018 H1010 0.930 . S
C1018 C1017 1.362 . S
C1018 C1021 1.409 . S
C1019 H1011 0.930 . S
C1019 C1020 1.355 . S
C1019 C1021 1.415 . S
C1020 C1019 1.355 . S
C1020 C1022 1.419 . S
C1021 C1016 1.425 . S
C1021 C1018 1.409 . S
C1021 C1019 1.415 . S
C1022 H1012 0.930 . S
C1022 C1020 1.419 . S
C1022 C1023 1.362 . S
C1023 H1013 0.930 . S
C1023 C1016 1.409 . S
C1023 C1022 1.362 . S
H1024 C1030 0.930 . S
H1025 C1033 0.930 . S
H1026 C1034 0.930 . S
H1027 C1035 0.930 . S
H1028 C1038 0.930 . S
H1029 C1039 0.930 . S
C1030 H1024 0.930 . S
C1030 C1031 1.355 . S
C1030 C1032 1.415 . S
C1031 C1030 1.355 . S
C1031 C1033 1.419 . S
C1032 C1030 1.415 . S
C1032 C1037 1.425 . S
C1032 C1039 1.409 . S
C1033 H1025 0.930 . S
C1033 C1031 1.419 . S
C1033 C1034 1.362 . S
C1034 H1026 0.930 . S
C1034 C1033 1.362 . S
C1034 C1037 1.409 . S
C1035 H1027 0.930 . S
C1035 C1036 1.355 . S
C1035 C1037 1.415 . S
C1036 C1035 1.355 . S
C1036 C1038 1.419 . S
C1037 C1032 1.425 . S
C1037 C1034 1.409 . S
C1037 C1035 1.415 . S
C1038 H1028 0.930 . S
C1038 C1036 1.419 . S
C1038 C1039 1.362 . S
C1039 H1029 0.930 . S
C1039 C1032 1.409 . S
C1039 C1038 1.362 . S
H1040 C1046 0.930 1_655 S
H1041 C1049 0.930 . S
H1042 C1050 0.930 . S
H1043 C1051 0.930 . S
H1044 C1054 0.930 . S
H1045 C1055 0.930 . S
C1046 H1040 0.930 1_455 S
C1046 C1047 1.355 . S
C1046 C1048 1.415 . S
C1047 C1046 1.355 . S
C1047 C1049 1.419 . S
C1048 C1046 1.415 . S
C1048 C1053 1.425 . S
C1048 C1055 1.409 1_455 S
C1049 H1041 0.930 . S
C1049 C1047 1.419 . S
C1049 C1050 1.362 . S
C1050 H1042 0.930 . S
C1050 C1049 1.362 . S
C1050 C1053 1.409 . S
C1051 H1043 0.930 . S
C1051 C1052 1.355 . S
C1051 C1053 1.415 . S
C1052 C1051 1.355 . S
C1052 C1054 1.419 1_455 S
C1053 C1048 1.425 . S
C1053 C1050 1.409 . S
C1053 C1051 1.415 . S
C1054 H1044 0.930 . S
C1054 C1052 1.419 1_655 S
C1054 C1055 1.362 . S
C1055 H1045 0.930 . S
C1055 C1048 1.409 1_655 S
C1055 C1054 1.362 . S
H1056 C1062 0.930 . S
H1057 C1065 0.930 . S
H1058 C1066 0.930 . S
H1059 C1067 0.930 . S
H1060 C1070 0.930 . S
H1061 C1071 0.930 . S
C1062 H1056 0.930 . S
C1062 C1063 1.355 . S
C1062 C1064 1.415 . S
C1063 C1062 1.355 . S
C1063 C1065 1.419 . S
C1064 C1062 1.415 . S
C1064 C1069 1.425 . S
C1064 C1071 1.409 . S
C1065 H1057 0.930 . S
C1065 C1063 1.419 . S
C1065 C1066 1.362 . S
C1066 H1058 0.930 . S
C1066 C1065 1.362 . S
C1066 C1069 1.409 . S
C1067 H1059 0.930 . S
C1067 C1068 1.355 . S
C1067 C1069 1.415 . S
C1068 C1067 1.355 . S
C1068 C1070 1.419 . S
C1069 C1064 1.425 . S
C1069 C1066 1.409 . S
C1069 C1067 1.415 . S
C1070 H1060 0.930 . S
C1070 C1068 1.419 . S
C1070 C1071 1.362 . S
C1071 H1061 0.930 . S
C1071 C1064 1.409 . S
C1071 C1070 1.362 . S
H1072 C1078 0.930 . S
H1073 C1081 0.930 . S
H1074 C1082 0.930 . S
H1075 C1083 0.930 . S
H1076 C1086 0.930 . S
H1077 C1087 0.930 . S
C1078 H1072 0.930 . S
C1078 C1079 1.355 . S
C1078 C1080 1.415 . S
C1079 C1078 1.355 . S
C1079 C1081 1.419 . S
C1080 C1078 1.415 . S
C1080 C1085 1.425 . S
C1080 C1087 1.409 . S
C1081 H1073 0.930 . S
C1081 C1079 1.419 . S
C1081 C1082 1.362 . S
C1082 H1074 0.930 . S
C1082 C1081 1.362 . S
C1082 C1085 1.409 . S
C1083 H1075 0.930 . S
C1083 C1084 1.355 . S
C1083 C1085 1.415 . S
C1084 C1083 1.355 . S
C1084 C1086 1.419 . S
C1085 C1080 1.425 . S
C1085 C1082 1.409 . S
C1085 C1083 1.415 . S
C1086 H1076 0.930 . S
C1086 C1084 1.419 . S
C1086 C1087 1.362 . S
C1087 H1077 0.930 . S
C1087 C1080 1.409 . S
C1087 C1086 1.362 . S
H1088 C1094 0.930 . S
H1089 C1097 0.930 . S
H1090 C1098 0.930 . S
H1091 C1099 0.930 . S
H1092 C1102 0.930 . S
H1093 C1103 0.930 . S
C1094 H1088 0.930 . S
C1094 C1095 1.355 . S
C1094 C1096 1.415 . S
C1095 C1094 1.355 . S
C1095 C1097 1.419 . S
C1096 C1094 1.415 . S
C1096 C1101 1.425 . S
C1096 C1103 1.409 . S
C1097 H1089 0.930 . S
C1097 C1095 1.419 . S
C1097 C1098 1.362 . S
C1098 H1090 0.930 . S
C1098 C1097 1.362 . S
C1098 C1101 1.409 . S
C1099 H1091 0.930 . S
C1099 C1100 1.355 . S
C1099 C1101 1.415 . S
C1100 C1099 1.355 . S
C1100 C1102 1.419 . S
C1101 C1096 1.425 . S
C1101 C1098 1.409 . S
C1101 C1099 1.415 . S
C1102 H1092 0.930 . S
C1102 C1100 1.419 . S
C1102 C1103 1.362 . S
C1103 H1093 0.930 . S
C1103 C1096 1.409 . S
C1103 C1102 1.362 . S
H1104 C1110 0.930 . S
H1105 C1113 0.930 1_655 S
H1106 C1114 0.930 . S
H1107 C1115 0.930 . S
H1108 C1118 0.930 . S
H1109 C1119 0.930 . S
C1110 H1104 0.930 . S
C1110 C1111 1.355 . S
C1110 C1112 1.415 . S
C1111 C1110 1.355 . S
C1111 C1113 1.419 . S
C1112 C1110 1.415 . S
C1112 C1117 1.425 . S
C1112 C1119 1.409 . S
C1113 H1105 0.930 1_455 S
C1113 C1111 1.419 . S
C1113 C1114 1.362 1_455 S
C1114 H1106 0.930 . S
C1114 C1113 1.362 1_655 S
C1114 C1117 1.409 1_655 S
C1115 H1107 0.930 . S
C1115 C1116 1.355 1_655 S
C1115 C1117 1.415 1_655 S
C1116 C1115 1.355 1_455 S
C1116 C1118 1.419 . S
C1117 C1112 1.425 . S
C1117 C1114 1.409 1_455 S
C1117 C1115 1.415 1_455 S
C1118 H1108 0.930 . S
C1118 C1116 1.419 . S
C1118 C1119 1.362 . S
C1119 H1109 0.930 . S
C1119 C1112 1.409 . S
C1119 C1118 1.362 . S
H1120 C1126 0.930 . S
H1121 C1129 0.930 . S
H1122 C1130 0.930 . S
H1123 C1131 0.930 . S
H1124 C1134 0.930 . S
H1125 C1135 0.930 . S
C1126 H1120 0.930 . S
C1126 C1127 1.355 . S
C1126 C1128 1.415 . S
C1127 C1126 1.355 . S
C1127 C1129 1.419 . S
C1128 C1126 1.415 . S
C1128 C1133 1.425 . S
C1128 C1135 1.409 . S
C1129 H1121 0.930 . S
C1129 C1127 1.419 . S
C1129 C1130 1.362 . S
C1130 H1122 0.930 . S
C1130 C1129 1.362 . S
C1130 C1133 1.409 . S
C1131 H1123 0.930 . S
C1131 C1132 1.355 . S
C1131 C1133 1.415 . S
C1132 C1131 1.355 . S
C1132 C1134 1.419 . S
C1133 C1128 1.425 . S
C1133 C1130 1.409 . S
C1133 C1131 1.415 . S
C1134 H1124 0.930 . S
C1134 C1132 1.419 . S
C1134 C1135 1.362 . S
C1135 H1125 0.930 . S
C1135 C1128 1.409 . S
C1135 C1134 1.362 . S
H1136 C1142 0.930 . S
H1137 C1145 0.930 . S
H1138 C1146 0.930 . S
H1139 C1147 0.930 . S
H1140 C1150 0.930 . S
H1141 C1151 0.930 . S
C1142 H1136 0.930 . S
C1142 C1143 1.355 . S
C1142 C1144 1.415 . S
C1143 C1142 1.355 . S
C1143 C1145 1.419 . S
C1144 C1142 1.415 . S
C1144 C1149 1.425 . S
C1144 C1151 1.409 . S
C1145 H1137 0.930 . S
C1145 C1143 1.419 . S
C1145 C1146 1.362 . S
C1146 H1138 0.930 . S
C1146 C1145 1.362 . S
C1146 C1149 1.409 . S
C1147 H1139 0.930 . S
C1147 C1148 1.353 1_556 S
C1147 C1149 1.415 . S
C1148 C1147 1.353 1_554 S
C1148 C1150 1.420 . S
C1149 C1144 1.425 . S
C1149 C1146 1.409 . S
C1149 C1147 1.415 . S
C1150 H1140 0.930 . S
C1150 C1148 1.420 . S
C1150 C1151 1.362 1_554 S
C1151 H1141 0.930 . S
C1151 C1144 1.409 . S
C1151 C1150 1.362 1_556 S
H1152 C1158 0.930 . S
H1153 C1161 0.930 . S
H1154 C1162 0.930 . S
H1155 C1163 0.930 . S
H1156 C1166 0.930 . S
H1157 C1167 0.930 . S
C1158 H1152 0.930 . S
C1158 C1159 1.355 . S
C1158 C1160 1.415 . S
C1159 C1158 1.355 . S
C1159 C1161 1.419 . S
C1160 C1158 1.415 . S
C1160 C1165 1.425 . S
C1160 C1167 1.409 . S
C1161 H1153 0.930 . S
C1161 C1159 1.419 . S
C1161 C1162 1.362 . S
C1162 H1154 0.930 . S
C1162 C1161 1.362 . S
C1162 C1165 1.409 . S
C1163 H1155 0.930 . S
C1163 C1164 1.355 . S
C1163 C1165 1.415 . S
C1164 C1163 1.355 . S
C1164 C1166 1.419 . S
C1165 C1160 1.425 . S
C1165 C1162 1.409 . S
C1165 C1163 1.415 . S
C1166 H1156 0.930 . S
C1166 C1164 1.419 . S
C1166 C1167 1.362 . S
C1167 H1157 0.930 . S
C1167 C1160 1.409 . S
C1167 C1166 1.362 . S
H1168 C1174 0.930 . S
H1169 C1177 0.930 . S
H1170 C1178 0.930 . S
H1171 C1179 0.930 . S
H1172 C1182 0.930 . S
H1173 C1183 0.930 . S
C1174 H1168 0.930 . S
C1174 C1175 1.355 . S
C1174 C1176 1.415 . S
C1175 C1174 1.355 . S
C1175 C1177 1.419 1_545 S
C1176 C1174 1.415 . S
C1176 C1181 1.425 1_545 S
C1176 C1183 1.409 . S
C1177 H1169 0.930 . S
C1177 C1175 1.419 1_565 S
C1177 C1178 1.362 . S
C1178 H1170 0.930 . S
C1178 C1177 1.362 . S
C1178 C1181 1.409 . S
C1179 H1171 0.930 . S
C1179 C1180 1.355 . S
C1179 C1181 1.415 . S
C1180 C1179 1.355 . S
C1180 C1182 1.419 1_565 S
C1181 C1176 1.425 1_565 S
C1181 C1178 1.409 . S
C1181 C1179 1.415 . S
C1182 H1172 0.930 . S
C1182 C1180 1.419 1_545 S
C1182 C1183 1.362 . S
C1183 H1173 0.930 . S
C1183 C1176 1.409 . S
C1183 C1182 1.362 . S
H1184 C1190 0.930 . S
H1185 C1193 0.930 . S
H1186 C1194 0.930 . S
H1187 C1195 0.930 . S
H1188 C1198 0.930 . S
H1189 C1199 0.930 . S
C1190 H1184 0.930 . S
C1190 C1191 1.355 . S
C1190 C1192 1.415 . S
C1191 C1190 1.355 . S
C1191 C1193 1.419 . S
C1192 C1190 1.415 . S
C1192 C1197 1.425 . S
C1192 C1199 1.409 . S
C1193 H1185 0.930 . S
C1193 C1191 1.419 . S
C1193 C1194 1.362 . S
C1194 H1186 0.930 . S
C1194 C1193 1.362 . S
C1194 C1197 1.409 . S
C1195 H1187 0.930 . S
C1195 C1196 1.355 . S
C1195 C1197 1.415 . S
C1196 C1195 1.355 . S
C1196 C1198 1.419 . S
C1197 C1192 1.425 . S
C1197 C1194 1.409 . S
C1197 C1195 1.415 . S
C1198 H1188 0.930 . S
C1198 C1196 1.419 . S
C1198 C1199 1.362 . S
C1199 H1189 0.930 . S
C1199 C1192 1.409 . S
C1199 C1198 1.362 . S
H1200 C1206 0.930 . S
H1201 C1209 0.930 . S
H1202 C1210 0.930 . S
H1203 C1211 0.930 . S
H1204 C1214 0.930 . S
H1205 C1215 0.930 . S
C1206 H1200 0.930 . S
C1206 C1207 1.355 . S
C1206 C1208 1.415 . S
C1207 C1206 1.355 . S
C1207 C1209 1.419 . S
C1208 C1206 1.415 . S
C1208 C1213 1.425 . S
C1208 C1215 1.409 . S
C1209 H1201 0.930 . S
C1209 C1207 1.419 . S
C1209 C1210 1.362 . S
C1210 H1202 0.930 . S
C1210 C1209 1.362 . S
C1210 C1213 1.409 . S
C1211 H1203 0.930 . S
C1211 C1212 1.355 . S
C1211 C1213 1.415 . S
C1212 C1211 1.355 . S
C1212 C1214 1.419 . S
C1213 C1208 1.425 . S
C1213 C1210 1.409 . S
C1213 C1211 1.415 . S
C1214 H1204 0.930 . S
C1214 C1212 1.419 . S
C1214 C1215 1.362 . S
C1215 H1205 0.930 . S
C1215 C1208 1.409 . S
C1215 C1214 1.362 . S
H1216 C1222 0.930 . S
H1217 C1225 0.930 . S
H1218 C1226 0.930 . S
H1219 C1227 0.930 . S
H1220 C1230 0.930 . S
H1221 C1231 0.930 . S
C1222 H1216 0.930 . S
C1222 C1223 1.355 . S
C1222 C1224 1.415 . S
C1223 C1222 1.355 . S
C1223 C1225 1.419 . S
C1224 C1222 1.415 . S
C1224 C1229 1.425 . S
C1224 C1231 1.409 . S
C1225 H1217 0.930 . S
C1225 C1223 1.419 . S
C1225 C1226 1.362 . S
C1226 H1218 0.930 . S
C1226 C1225 1.362 . S
C1226 C1229 1.409 . S
C1227 H1219 0.930 . S
C1227 C1228 1.355 . S
C1227 C1229 1.415 . S
C1228 C1227 1.355 . S
C1228 C1230 1.419 . S
C1229 C1224 1.425 . S
C1229 C1226 1.409 . S
C1229 C1227 1.415 . S
C1230 H1220 0.930 . S
C1230 C1228 1.419 . S
C1230 C1231 1.362 . S
C1231 H1221 0.930 . S
C1231 C1224 1.409 . S
C1231 C1230 1.362 . S
H1232 C1238 0.930 . S
H1233 C1241 0.930 . S
H1234 C1242 0.930 . S
H1235 C1243 0.930 . S
H1236 C1246 0.930 . S
H1237 C1247 0.930 . S
C1238 H1232 0.930 . S
C1238 C1239 1.355 1_565 S
C1238 C1240 1.415 1_565 S
C1239 C1238 1.355 1_545 S
C1239 C1241 1.419 . S
C1240 C1238 1.415 1_545 S
C1240 C1245 1.425 . S
C1240 C1247 1.409 1_545 S
C1241 H1233 0.930 . S
C1241 C1239 1.419 . S
C1241 C1242 1.362 . S
C1242 H1234 0.930 . S
C1242 C1241 1.362 . S
C1242 C1245 1.409 . S
C1243 H1235 0.930 . S
C1243 C1244 1.355 . S
C1243 C1245 1.415 . S
C1244 C1243 1.355 . S
C1244 C1246 1.419 1_545 S
C1245 C1240 1.425 . S
C1245 C1242 1.409 . S
C1245 C1243 1.415 . S
C1246 H1236 0.930 . S
C1246 C1244 1.419 1_565 S
C1246 C1247 1.362 . S
C1247 H1237 0.930 . S
C1247 C1240 1.409 1_565 S
C1247 C1246 1.362 . S
H1248 C1254 0.930 . S
H1249 C1257 0.930 . S
H1250 C1258 0.930 . S
H1251 C1259 0.930 . S
H1252 C1262 0.930 . S
H1253 C1263 0.930 . S
C1254 H1248 0.930 . S
C1254 C1255 1.355 . S
C1254 C1256 1.415 . S
C1255 C1254 1.355 . S
C1255 C1257 1.419 . S
C1256 C1254 1.415 . S
C1256 C1261 1.425 . S
C1256 C1263 1.409 . S
C1257 H1249 0.930 . S
C1257 C1255 1.419 . S
C1257 C1258 1.362 . S
C1258 H1250 0.930 . S
C1258 C1257 1.362 . S
C1258 C1261 1.409 . S
C1259 H1251 0.930 . S
C1259 C1260 1.355 . S
C1259 C1261 1.415 . S
C1260 C1259 1.355 . S
C1260 C1262 1.419 . S
C1261 C1256 1.425 . S
C1261 C1258 1.409 . S
C1261 C1259 1.415 . S
C1262 H1252 0.930 . S
C1262 C1260 1.419 . S
C1262 C1263 1.362 . S
C1263 H1253 0.930 . S
C1263 C1256 1.409 . S
C1263 C1262 1.362 . S
H1264 C1270 0.930 . S
H1265 C1273 0.930 . S
H1266 C1274 0.930 . S
H1267 C1275 0.930 . S
H1268 C1278 0.930 . S
H1269 C1279 0.929 . S
C1270 H1264 0.930 . S
C1270 C1271 1.355 . S
C1270 C1272 1.415 . S
C1271 C1270 1.355 . S
C1271 C1273 1.419 . S
C1272 C1270 1.415 . S
C1272 C1277 1.425 . S
C1272 C1279 1.411 1_545 S
C1273 H1265 0.930 . S
C1273 C1271 1.419 . S
C1273 C1274 1.362 . S
C1274 H1266 0.930 . S
C1274 C1273 1.362 . S
C1274 C1277 1.409 . S
C1275 H1267 0.930 . S
C1275 C1276 1.355 1_545 S
C1275 C1277 1.415 . S
C1276 C1275 1.355 1_565 S
C1276 C1278 1.419 . S
C1277 C1272 1.425 . S
C1277 C1274 1.409 . S
C1277 C1275 1.415 . S
C1278 H1268 0.930 . S
C1278 C1276 1.419 . S
C1278 C1279 1.362 . S
C1279 H1269 0.929 . S
C1279 C1272 1.411 1_565 S
C1279 C1278 1.362 . S
H1280 C1286 0.930 . S
H1281 C1289 0.930 . S
H1282 C1290 0.930 . S
H1283 C1291 0.930 . S
H1284 C1294 0.930 . S
H1285 C1295 0.930 . S
C1286 H1280 0.930 . S
C1286 C1287 1.355 . S
C1286 C1288 1.415 . S
C1287 C1286 1.355 . S
C1287 C1289 1.419 . S
C1288 C1286 1.415 . S
C1288 C1293 1.425 . S
C1288 C1295 1.409 . S
C1289 H1281 0.930 . S
C1289 C1287 1.419 . S
C1289 C1290 1.362 . S
C1290 H1282 0.930 . S
C1290 C1289 1.362 . S
C1290 C1293 1.409 . S
C1291 H1283 0.930 . S
C1291 C1292 1.355 . S
C1291 C1293 1.415 . S
C1292 C1291 1.355 . S
C1292 C1294 1.419 . S
C1293 C1288 1.425 . S
C1293 C1290 1.409 . S
C1293 C1291 1.415 . S
C1294 H1284 0.930 . S
C1294 C1292 1.419 . S
C1294 C1295 1.362 . S
C1295 H1285 0.930 . S
C1295 C1288 1.409 . S
C1295 C1294 1.362 . S
H1296 C1302 0.930 . S
H1297 C1305 0.930 . S
H1298 C1306 0.930 . S
H1299 C1307 0.930 . S
H1300 C1310 0.930 . S
H1301 C1311 0.930 . S
C1302 H1296 0.930 . S
C1302 C1303 1.355 . S
C1302 C1304 1.415 . S
C1303 C1302 1.355 . S
C1303 C1305 1.419 . S
C1304 C1302 1.415 . S
C1304 C1309 1.425 . S
C1304 C1311 1.409 . S
C1305 H1297 0.930 . S
C1305 C1303 1.419 . S
C1305 C1306 1.362 . S
C1306 H1298 0.930 . S
C1306 C1305 1.362 . S
C1306 C1309 1.409 . S
C1307 H1299 0.930 . S
C1307 C1308 1.355 . S
C1307 C1309 1.415 . S
C1308 C1307 1.355 . S
C1308 C1310 1.419 . S
C1309 C1304 1.425 . S
C1309 C1306 1.409 . S
C1309 C1307 1.415 . S
C1310 H1300 0.930 . S
C1310 C1308 1.419 . S
C1310 C1311 1.362 . S
C1311 H1301 0.930 . S
C1311 C1304 1.409 . S
C1311 C1310 1.362 . S
H1312 C1318 0.930 . S
H1313 C1321 0.930 . S
H1314 C1322 0.930 . S
H1315 C1323 0.930 . S
H1316 C1326 0.930 . S
H1317 C1327 0.930 . S
C1318 H1312 0.930 . S
C1318 C1319 1.355 . S
C1318 C1320 1.415 . S
C1319 C1318 1.355 . S
C1319 C1321 1.419 . S
C1320 C1318 1.415 . S
C1320 C1325 1.425 . S
C1320 C1327 1.409 . S
C1321 H1313 0.930 . S
C1321 C1319 1.419 . S
C1321 C1322 1.362 . S
C1322 H1314 0.930 . S
C1322 C1321 1.362 . S
C1322 C1325 1.409 . S
C1323 H1315 0.930 . S
C1323 C1324 1.355 . S
C1323 C1325 1.415 . S
C1324 C1323 1.355 . S
C1324 C1326 1.419 . S
C1325 C1320 1.425 . S
C1325 C1322 1.409 . S
C1325 C1323 1.415 . S
C1326 H1316 0.930 . S
C1326 C1324 1.419 . S
C1326 C1327 1.362 . S
C1327 H1317 0.930 . S
C1327 C1320 1.409 . S
C1327 C1326 1.362 . S
H1328 C1334 0.930 . S
H1329 C1337 0.930 . S
H1330 C1338 0.930 . S
H1331 C1339 0.930 . S
H1332 C1342 0.930 . S
H1333 C1343 0.930 . S
C1334 H1328 0.930 . S
C1334 C1335 1.355 . S
C1334 C1336 1.415 . S
C1335 C1334 1.355 . S
C1335 C1337 1.419 . S
C1336 C1334 1.415 . S
C1336 C1341 1.425 . S
C1336 C1343 1.409 . S
C1337 H1329 0.930 . S
C1337 C1335 1.419 . S
C1337 C1338 1.362 . S
C1338 H1330 0.930 . S
C1338 C1337 1.362 . S
C1338 C1341 1.409 . S
C1339 H1331 0.930 . S
C1339 C1340 1.355 . S
C1339 C1341 1.415 . S
C1340 C1339 1.355 . S
C1340 C1342 1.419 . S
C1341 C1336 1.425 . S
C1341 C1338 1.409 . S
C1341 C1339 1.415 . S
C1342 H1332 0.930 . S
C1342 C1340 1.419 . S
C1342 C1343 1.362 . S
C1343 H1333 0.930 . S
C1343 C1336 1.409 . S
C1343 C1342 1.362 . S
H1344 C1350 0.930 . S
H1345 C1353 0.930 . S
H1346 C1354 0.930 . S
H1347 C1355 0.930 . S
H1348 C1358 0.930 . S
H1349 C1359 0.930 . S
C1350 H1344 0.930 . S
C1350 C1351 1.355 . S
C1350 C1352 1.415 . S
C1351 C1350 1.355 . S
C1351 C1353 1.419 . S
C1352 C1350 1.415 . S
C1352 C1357 1.425 . S
C1352 C1359 1.409 . S
C1353 H1345 0.930 . S
C1353 C1351 1.419 . S
C1353 C1354 1.362 . S
C1354 H1346 0.930 . S
C1354 C1353 1.362 . S
C1354 C1357 1.409 . S
C1355 H1347 0.930 . S
C1355 C1356 1.355 . S
C1355 C1357 1.415 . S
C1356 C1355 1.355 . S
C1356 C1358 1.419 . S
C1357 C1352 1.425 . S
C1357 C1354 1.409 . S
C1357 C1355 1.415 . S
C1358 H1348 0.930 . S
C1358 C1356 1.419 . S
C1358 C1359 1.362 . S
C1359 H1349 0.930 . S
C1359 C1352 1.409 . S
C1359 C1358 1.362 . S
H1360 C1366 0.930 . S
H1361 C1369 0.930 . S
H1362 C1370 0.930 . S
H1363 C1371 0.930 . S
H1364 C1374 0.930 . S
H1365 C1375 0.930 . S
C1366 H1360 0.930 . S
C1366 C1367 1.355 . S
C1366 C1368 1.415 . S
C1367 C1366 1.355 . S
C1367 C1369 1.419 . S
C1368 C1366 1.415 . S
C1368 C1373 1.425 . S
C1368 C1375 1.409 . S
C1369 H1361 0.930 . S
C1369 C1367 1.419 . S
C1369 C1370 1.362 . S
C1370 H1362 0.930 . S
C1370 C1369 1.362 . S
C1370 C1373 1.409 . S
C1371 H1363 0.930 . S
C1371 C1372 1.355 . S
C1371 C1373 1.415 . S
C1372 C1371 1.355 . S
C1372 C1374 1.419 . S
C1373 C1368 1.425 . S
C1373 C1370 1.409 . S
C1373 C1371 1.415 . S
C1374 H1364 0.930 . S
C1374 C1372 1.419 . S
C1374 C1375 1.362 . S
C1375 H1365 0.930 . S
C1375 C1368 1.409 . S
C1375 C1374 1.362 . S
H1376 C1382 0.930 . S
H1377 C1385 0.930 . S
H1378 C1386 0.930 . S
H1379 C1387 0.930 . S
H1380 C1390 0.930 . S
H1381 C1391 0.930 . S
C1382 H1376 0.930 . S
C1382 C1383 1.355 . S
C1382 C1384 1.415 . S
C1383 C1382 1.355 . S
C1383 C1385 1.419 . S
C1384 C1382 1.415 . S
C1384 C1389 1.425 . S
C1384 C1391 1.409 . S
C1385 H1377 0.930 . S
C1385 C1383 1.419 . S
C1385 C1386 1.362 . S
C1386 H1378 0.930 . S
C1386 C1385 1.362 . S
C1386 C1389 1.409 . S
C1387 H1379 0.930 . S
C1387 C1388 1.355 . S
C1387 C1389 1.415 . S
C1388 C1387 1.355 . S
C1388 C1390 1.419 . S
C1389 C1384 1.425 . S
C1389 C1386 1.409 . S
C1389 C1387 1.415 . S
C1390 H1380 0.930 . S
C1390 C1388 1.419 . S
C1390 C1391 1.362 . S
C1391 H1381 0.930 . S
C1391 C1384 1.409 . S
C1391 C1390 1.362 . S
H1392 C1398 0.930 . S
H1393 C1401 0.930 . S
H1394 C1402 0.930 . S
H1395 C1403 0.930 . S
H1396 C1406 0.930 . S
H1397 C1407 0.930 . S
C1398 H1392 0.930 . S
C1398 C1399 1.355 . S
C1398 C1400 1.415 . S
C1399 C1398 1.355 . S
C1399 C1401 1.419 . S
C1400 C1398 1.415 . S
C1400 C1405 1.425 . S
C1400 C1407 1.409 . S
C1401 H1393 0.930 . S
C1401 C1399 1.419 . S
C1401 C1402 1.362 . S
C1402 H1394 0.930 . S
C1402 C1401 1.362 . S
C1402 C1405 1.409 . S
C1403 H1395 0.930 . S
C1403 C1404 1.355 . S
C1403 C1405 1.415 . S
C1404 C1403 1.355 . S
C1404 C1406 1.419 . S
C1405 C1400 1.425 . S
C1405 C1402 1.409 . S
C1405 C1403 1.415 . S
C1406 H1396 0.930 . S
C1406 C1404 1.419 . S
C1406 C1407 1.362 . S
C1407 H1397 0.930 . S
C1407 C1400 1.409 . S
C1407 C1406 1.362 . S
H1408 C1414 0.930 . S
H1409 C1417 0.930 . S
H1410 C1418 0.930 . S
H1411 C1419 0.930 . S
H1412 C1422 0.930 . S
H1413 C1423 0.930 . S
C1414 H1408 0.930 . S
C1414 C1415 1.355 . S
C1414 C1416 1.415 . S
C1415 C1414 1.355 . S
C1415 C1417 1.419 . S
C1416 C1414 1.415 . S
C1416 C1421 1.425 . S
C1416 C1423 1.409 . S
C1417 H1409 0.930 . S
C1417 C1415 1.419 . S
C1417 C1418 1.362 . S
C1418 H1410 0.930 . S
C1418 C1417 1.362 . S
C1418 C1421 1.409 . S
C1419 H1411 0.930 . S
C1419 C1420 1.355 . S
C1419 C1421 1.415 . S
C1420 C1419 1.355 . S
C1420 C1422 1.419 . S
C1421 C1416 1.425 . S
C1421 C1418 1.409 . S
C1421 C1419 1.415 . S
C1422 H1412 0.930 . S
C1422 C1420 1.419 . S
C1422 C1423 1.362 . S
C1423 H1413 0.930 . S
C1423 C1416 1.409 . S
C1423 C1422 1.362 . S
H1424 C1430 0.930 . S
H1425 C1433 0.930 . S
H1426 C1434 0.930 . S
H1427 C1435 0.930 . S
H1428 C1438 0.930 . S
H1429 C1439 0.930 . S
C1430 H1424 0.930 . S
C1430 C1431 1.355 . S
C1430 C1432 1.415 . S
C1431 C1430 1.355 . S
C1431 C1433 1.419 . S
C1432 C1430 1.415 . S
C1432 C1437 1.425 . S
C1432 C1439 1.409 . S
C1433 H1425 0.930 . S
C1433 C1431 1.419 . S
C1433 C1434 1.362 . S
C1434 H1426 0.930 . S
C1434 C1433 1.362 . S
C1434 C1437 1.409 . S
C1435 H1427 0.930 . S
C1435 C1436 1.355 . S
C1435 C1437 1.415 . S
C1436 C1435 1.355 . S
C1436 C1438 1.419 . S
C1437 C1432 1.425 . S
C1437 C1434 1.409 . S
C1437 C1435 1.415 . S
C1438 H1428 0.930 . S
C1438 C1436 1.419 . S
C1438 C1439 1.362 . S
C1439 H1429 0.930 . S
C1439 C1432 1.409 . S
C1439 C1438 1.362 . S
H1440 C1446 0.930 . S
H1441 C1449 0.930 . S
H1442 C1450 0.930 . S
H1443 C1451 0.930 . S
H1444 C1454 0.930 . S
H1445 C1455 0.930 . S
C1446 H1440 0.930 . S
C1446 C1447 1.355 . S
C1446 C1448 1.415 . S
C1447 C1446 1.355 . S
C1447 C1449 1.419 . S
C1448 C1446 1.415 . S
C1448 C1453 1.425 . S
C1448 C1455 1.409 . S
C1449 H1441 0.930 . S
C1449 C1447 1.419 . S
C1449 C1450 1.362 . S
C1450 H1442 0.930 . S
C1450 C1449 1.362 . S
C1450 C1453 1.409 . S
C1451 H1443 0.930 . S
C1451 C1452 1.355 . S
C1451 C1453 1.415 . S
C1452 C1451 1.355 . S
C1452 C1454 1.419 . S
C1453 C1448 1.425 . S
C1453 C1450 1.409 . S
C1453 C1451 1.415 . S
C1454 H1444 0.930 . S
C1454 C1452 1.419 . S
C1454 C1455 1.362 . S
C1455 H1445 0.930 . S
C1455 C1448 1.409 . S
C1455 C1454 1.362 . S
H1456 C1462 0.930 . S
H1457 C1465 0.930 . S
H1458 C1466 0.930 . S
H1459 C1467 0.930 . S
H1460 C1470 0.930 . S
H1461 C1471 0.930 1_554 S
C1462 H1456 0.930 . S
C1462 C1463 1.355 1_655 S
C1462 C1464 1.415 . S
C1463 C1462 1.355 1_455 S
C1463 C1465 1.419 . S
C1464 C1462 1.415 . S
C1464 C1469 1.425 1_655 S
C1464 C1471 1.409 . S
C1465 H1457 0.930 . S
C1465 C1463 1.419 . S
C1465 C1466 1.362 . S
C1466 H1458 0.930 . S
C1466 C1465 1.362 . S
C1466 C1469 1.409 . S
C1467 H1459 0.930 . S
C1467 C1468 1.355 . S
C1467 C1469 1.415 . S
C1468 C1467 1.355 . S
C1468 C1470 1.419 1_456 S
C1469 C1464 1.425 1_455 S
C1469 C1466 1.409 . S
C1469 C1467 1.415 . S
C1470 H1460 0.930 . S
C1470 C1468 1.419 1_654 S
C1470 C1471 1.362 1_554 S
C1471 H1461 0.930 1_556 S
C1471 C1464 1.409 . S
C1471 C1470 1.362 1_556 S
H1472 C1478 0.930 . S
H1473 C1481 0.930 . S
H1474 C1482 0.930 . S
H1475 C1483 0.930 . S
H1476 C1486 0.930 . S
H1477 C1487 0.930 . S
C1478 H1472 0.930 . S
C1478 C1479 1.355 . S
C1478 C1480 1.415 . S
C1479 C1478 1.355 . S
C1479 C1481 1.419 . S
C1480 C1478 1.415 . S
C1480 C1485 1.425 . S
C1480 C1487 1.409 . S
C1481 H1473 0.930 . S
C1481 C1479 1.419 . S
C1481 C1482 1.362 . S
C1482 H1474 0.930 . S
C1482 C1481 1.362 . S
C1482 C1485 1.409 . S
C1483 H1475 0.930 . S
C1483 C1484 1.355 . S
C1483 C1485 1.415 . S
C1484 C1483 1.355 . S
C1484 C1486 1.419 . S
C1485 C1480 1.425 . S
C1485 C1482 1.409 . S
C1485 C1483 1.415 . S
C1486 H1476 0.930 . S
C1486 C1484 1.419 . S
C1486 C1487 1.362 . S
C1487 H1477 0.930 . S
C1487 C1480 1.409 . S
C1487 C1486 1.362 . S
H1488 C1494 0.930 . S
H1489 C1497 0.930 . S
H1490 C1498 0.930 . S
H1491 C1499 0.930 . S
H1492 C1502 0.930 . S
H1493 C1503 0.930 . S
C1494 H1488 0.930 . S
C1494 C1495 1.355 . S
C1494 C1496 1.415 . S
C1495 C1494 1.355 . S
C1495 C1497 1.419 . S
C1496 C1494 1.415 . S
C1496 C1501 1.425 . S
C1496 C1503 1.409 . S
C1497 H1489 0.930 . S
C1497 C1495 1.419 . S
C1497 C1498 1.362 . S
C1498 H1490 0.930 . S
C1498 C1497 1.362 . S
C1498 C1501 1.409 . S
C1499 H1491 0.930 . S
C1499 C1500 1.355 . S
C1499 C1501 1.415 . S
C1500 C1499 1.355 . S
C1500 C1502 1.419 . S
C1501 C1496 1.425 . S
C1501 C1498 1.409 . S
C1501 C1499 1.415 . S
C1502 H1492 0.930 . S
C1502 C1500 1.419 . S
C1502 C1503 1.362 . S
C1503 H1493 0.930 . S
C1503 C1496 1.409 . S
C1503 C1502 1.362 . S
H1504 C1510 0.930 . S
H1505 C1513 0.930 . S
H1506 C1514 0.930 . S
H1507 C1515 0.930 . S
H1508 C1518 0.930 . S
H1509 C1519 0.930 . S
C1510 H1504 0.930 . S
C1510 C1511 1.355 . S
C1510 C1512 1.415 . S
C1511 C1510 1.355 . S
C1511 C1513 1.419 . S
C1512 C1510 1.415 . S
C1512 C1517 1.425 . S
C1512 C1519 1.409 . S
C1513 H1505 0.930 . S
C1513 C1511 1.419 . S
C1513 C1514 1.362 . S
C1514 H1506 0.930 . S
C1514 C1513 1.362 . S
C1514 C1517 1.409 . S
C1515 H1507 0.930 . S
C1515 C1516 1.355 . S
C1515 C1517 1.415 . S
C1516 C1515 1.355 . S
C1516 C1518 1.419 . S
C1517 C1512 1.425 . S
C1517 C1514 1.409 . S
C1517 C1515 1.415 . S
C1518 H1508 0.930 . S
C1518 C1516 1.419 . S
C1518 C1519 1.362 . S
C1519 H1509 0.930 . S
C1519 C1512 1.409 . S
C1519 C1518 1.362 . S
H1520 C1526 0.930 . S
H1521 C1529 0.930 . S
H1522 C1530 0.930 . S
H1523 C1531 0.926 1_655 S
H1524 C1534 0.930 . S
H1525 C1535 0.930 . S
C1526 H1520 0.930 . S
C1526 C1527 1.355 . S
C1526 C1528 1.415 . S
C1527 C1526 1.355 . S
C1527 C1529 1.419 1_455 S
C1528 C1526 1.415 . S
C1528 C1533 1.431 . S
C1528 C1535 1.409 . S
C1529 H1521 0.930 . S
C1529 C1527 1.419 1_655 S
C1529 C1530 1.362 . S
C1530 H1522 0.930 . S
C1530 C1529 1.362 . S
C1530 C1533 1.397 1_655 S
C1531 H1523 0.926 1_455 S
C1531 C1532 1.363 . S
C1531 C1533 1.418 . S
C1532 C1531 1.363 . S
C1532 C1534 1.419 . S
C1533 C1528 1.431 . S
C1533 C1530 1.397 1_455 S
C1533 C1531 1.418 . S
C1534 H1524 0.930 . S
C1534 C1532 1.419 . S
C1534 C1535 1.362 . S
C1535 H1525 0.930 . S
C1535 C1528 1.409 . S
C1535 C1534 1.362 . S
H1536 C1542 0.930 . S
H1537 C1545 0.930 . S
H1538 C1546 0.930 . S
H1539 C1547 0.930 . S
H1540 C1550 0.930 . S
H1541 C1551 0.930 . S
C1542 H1536 0.930 . S
C1542 C1543 1.355 . S
C1542 C1544 1.415 . S
C1543 C1542 1.355 . S
C1543 C1545 1.419 . S
C1544 C1542 1.415 . S
C1544 C1549 1.425 . S
C1544 C1551 1.409 . S
C1545 H1537 0.930 . S
C1545 C1543 1.419 . S
C1545 C1546 1.362 . S
C1546 H1538 0.930 . S
C1546 C1545 1.362 . S
C1546 C1549 1.409 . S
C1547 H1539 0.930 . S
C1547 C1548 1.355 . S
C1547 C1549 1.415 . S
C1548 C1547 1.355 . S
C1548 C1550 1.419 . S
C1549 C1544 1.425 . S
C1549 C1546 1.409 . S
C1549 C1547 1.415 . S
C1550 H1540 0.930 . S
C1550 C1548 1.419 . S
C1550 C1551 1.362 . S
C1551 H1541 0.930 . S
C1551 C1544 1.409 . S
C1551 C1550 1.362 . S
H1552 C1558 0.930 . S
H1553 C1561 0.930 . S
H1554 C1562 0.930 . S
H1555 C1563 0.930 . S
H1556 C1566 0.930 . S
H1557 C1567 0.930 . S
C1558 H1552 0.930 . S
C1558 C1559 1.355 . S
C1558 C1560 1.415 . S
C1559 C1558 1.355 . S
C1559 C1561 1.419 . S
C1560 C1558 1.415 . S
C1560 C1565 1.425 . S
C1560 C1567 1.409 . S
C1561 H1553 0.930 . S
C1561 C1559 1.419 . S
C1561 C1562 1.362 . S
C1562 H1554 0.930 . S
C1562 C1561 1.362 . S
C1562 C1565 1.409 . S
C1563 H1555 0.930 . S
C1563 C1564 1.355 . S
C1563 C1565 1.415 . S
C1564 C1563 1.355 . S
C1564 C1566 1.419 . S
C1565 C1560 1.425 . S
C1565 C1562 1.409 . S
C1565 C1563 1.415 . S
C1566 H1556 0.930 . S
C1566 C1564 1.419 . S
C1566 C1567 1.362 . S
C1567 H1557 0.930 . S
C1567 C1560 1.409 . S
C1567 C1566 1.362 . S
H1568 C1574 0.930 . S
H1569 C1577 0.930 . S
H1570 C1578 0.930 . S
H1571 C1579 0.930 . S
H1572 C1582 0.930 . S
H1573 C1583 0.930 . S
C1574 H1568 0.930 . S
C1574 C1575 1.355 . S
C1574 C1576 1.415 . S
C1575 C1574 1.355 . S
C1575 C1577 1.419 . S
C1576 C1574 1.415 . S
C1576 C1581 1.425 . S
C1576 C1583 1.409 . S
C1577 H1569 0.930 . S
C1577 C1575 1.419 . S
C1577 C1578 1.362 . S
C1578 H1570 0.930 . S
C1578 C1577 1.362 . S
C1578 C1581 1.409 . S
C1579 H1571 0.930 . S
C1579 C1580 1.355 . S
C1579 C1581 1.415 . S
C1580 C1579 1.355 . S
C1580 C1582 1.419 . S
C1581 C1576 1.425 . S
C1581 C1578 1.409 . S
C1581 C1579 1.415 . S
C1582 H1572 0.930 . S
C1582 C1580 1.419 . S
C1582 C1583 1.362 . S
C1583 H1573 0.930 . S
C1583 C1576 1.409 . S
C1583 C1582 1.362 . S
H1584 C1590 0.930 . S
H1585 C1593 0.930 . S
H1586 C1594 0.930 . S
H1587 C1595 0.930 . S
H1588 C1598 0.930 . S
H1589 C1599 0.930 . S
C1590 H1584 0.930 . S
C1590 C1591 1.355 . S
C1590 C1592 1.415 . S
C1591 C1590 1.355 . S
C1591 C1593 1.419 . S
C1592 C1590 1.415 . S
C1592 C1597 1.425 . S
C1592 C1599 1.409 . S
C1593 H1585 0.930 . S
C1593 C1591 1.419 . S
C1593 C1594 1.362 . S
C1594 H1586 0.930 . S
C1594 C1593 1.362 . S
C1594 C1597 1.409 . S
C1595 H1587 0.930 . S
C1595 C1596 1.355 . S
C1595 C1597 1.415 . S
C1596 C1595 1.355 . S
C1596 C1598 1.419 . S
C1597 C1592 1.425 . S
C1597 C1594 1.409 . S
C1597 C1595 1.415 . S
C1598 H1588 0.930 . S
C1598 C1596 1.419 . S
C1598 C1599 1.362 . S
C1599 H1589 0.930 . S
C1599 C1592 1.409 . S
C1599 C1598 1.362 . S
H1600 C1606 0.930 . S
H1601 C1609 0.930 . S
H1602 C1610 0.930 . S
H1603 C1611 0.930 . S
H1604 C1614 0.930 . S
H1605 C1615 0.930 . S
C1606 H1600 0.930 . S
C1606 C1607 1.355 . S
C1606 C1608 1.415 . S
C1607 C1606 1.355 . S
C1607 C1609 1.419 . S
C1608 C1606 1.415 . S
C1608 C1613 1.425 . S
C1608 C1615 1.409 . S
C1609 H1601 0.930 . S
C1609 C1607 1.419 . S
C1609 C1610 1.362 . S
C1610 H1602 0.930 . S
C1610 C1609 1.362 . S
C1610 C1613 1.409 . S
C1611 H1603 0.930 . S
C1611 C1612 1.355 . S
C1611 C1613 1.415 . S
C1612 C1611 1.355 . S
C1612 C1614 1.419 . S
C1613 C1608 1.425 . S
C1613 C1610 1.409 . S
C1613 C1611 1.415 . S
C1614 H1604 0.930 . S
C1614 C1612 1.419 . S
C1614 C1615 1.362 . S
C1615 H1605 0.930 . S
C1615 C1608 1.409 . S
C1615 C1614 1.362 . S
H1616 C1622 0.930 . S
H1617 C1625 0.930 . S
H1618 C1626 0.930 . S
H1619 C1627 0.930 . S
H1620 C1630 0.930 . S
H1621 C1631 0.930 . S
C1622 H1616 0.930 . S
C1622 C1623 1.355 . S
C1622 C1624 1.415 . S
C1623 C1622 1.355 . S
C1623 C1625 1.419 . S
C1624 C1622 1.415 . S
C1624 C1629 1.425 . S
C1624 C1631 1.409 . S
C1625 H1617 0.930 . S
C1625 C1623 1.419 . S
C1625 C1626 1.362 . S
C1626 H1618 0.930 . S
C1626 C1625 1.362 . S
C1626 C1629 1.409 . S
C1627 H1619 0.930 . S
C1627 C1628 1.355 . S
C1627 C1629 1.415 . S
C1628 C1627 1.355 . S
C1628 C1630 1.419 . S
C1629 C1624 1.425 . S
C1629 C1626 1.409 . S
C1629 C1627 1.415 . S
C1630 H1620 0.930 . S
C1630 C1628 1.419 . S
C1630 C1631 1.362 . S
C1631 H1621 0.930 . S
C1631 C1624 1.409 . S
C1631 C1630 1.362 . S
H1632 C1638 0.930 . S
H1633 C1641 0.930 . S
H1634 C1642 0.930 . S
H1635 C1643 0.930 . S
H1636 C1646 0.930 . S
H1637 C1647 0.930 . S
C1638 H1632 0.930 . S
C1638 C1639 1.355 . S
C1638 C1640 1.415 . S
C1639 C1638 1.355 . S
C1639 C1641 1.419 . S
C1640 C1638 1.415 . S
C1640 C1645 1.425 . S
C1640 C1647 1.409 . S
C1641 H1633 0.930 . S
C1641 C1639 1.419 . S
C1641 C1642 1.362 . S
C1642 H1634 0.930 . S
C1642 C1641 1.362 . S
C1642 C1645 1.409 . S
C1643 H1635 0.930 . S
C1643 C1644 1.355 . S
C1643 C1645 1.415 . S
C1644 C1643 1.355 . S
C1644 C1646 1.419 . S
C1645 C1640 1.425 . S
C1645 C1642 1.409 . S
C1645 C1643 1.415 . S
C1646 H1636 0.930 . S
C1646 C1644 1.419 . S
C1646 C1647 1.362 . S
C1647 H1637 0.930 . S
C1647 C1640 1.409 . S
C1647 C1646 1.362 . S
H1648 C1654 0.930 . S
H1649 C1657 0.930 . S
H1650 C1658 0.930 . S
H1651 C1659 0.930 . S
H1652 C1662 0.930 . S
H1653 C1663 0.930 . S
C1654 H1648 0.930 . S
C1654 C1655 1.355 . S
C1654 C1656 1.415 . S
C1655 C1654 1.355 . S
C1655 C1657 1.419 . S
C1656 C1654 1.415 . S
C1656 C1661 1.425 . S
C1656 C1663 1.409 . S
C1657 H1649 0.930 . S
C1657 C1655 1.419 . S
C1657 C1658 1.362 . S
C1658 H1650 0.930 . S
C1658 C1657 1.362 . S
C1658 C1661 1.409 . S
C1659 H1651 0.930 . S
C1659 C1660 1.355 . S
C1659 C1661 1.415 . S
C1660 C1659 1.355 . S
C1660 C1662 1.419 . S
C1661 C1656 1.425 . S
C1661 C1658 1.409 . S
C1661 C1659 1.415 . S
C1662 H1652 0.930 . S
C1662 C1660 1.419 . S
C1662 C1663 1.362 . S
C1663 H1653 0.930 . S
C1663 C1656 1.409 . S
C1663 C1662 1.362 . S
H1664 C1670 0.930 . S
H1665 C1673 0.930 . S
H1666 C1674 0.930 . S
H1667 C1675 0.930 . S
H1668 C1678 0.930 . S
H1669 C1679 0.930 . S
C1670 H1664 0.930 . S
C1670 C1671 1.355 . S
C1670 C1672 1.415 . S
C1671 C1670 1.355 . S
C1671 C1673 1.419 . S
C1672 C1670 1.415 . S
C1672 C1677 1.425 . S
C1672 C1679 1.409 . S
C1673 H1665 0.930 . S
C1673 C1671 1.419 . S
C1673 C1674 1.362 . S
C1674 H1666 0.930 . S
C1674 C1673 1.362 . S
C1674 C1677 1.409 . S
C1675 H1667 0.930 . S
C1675 C1676 1.355 . S
C1675 C1677 1.415 . S
C1676 C1675 1.355 . S
C1676 C1678 1.419 . S
C1677 C1672 1.425 . S
C1677 C1674 1.409 . S
C1677 C1675 1.415 . S
C1678 H1668 0.930 . S
C1678 C1676 1.419 . S
C1678 C1679 1.362 . S
C1679 H1669 0.930 . S
C1679 C1672 1.409 . S
C1679 C1678 1.362 . S
H1680 C1686 0.930 . S
H1681 C1689 0.930 . S
H1682 C1690 0.930 . S
H1683 C1691 0.930 . S
H1684 C1694 0.930 . S
H1685 C1695 0.930 . S
C1686 H1680 0.930 . S
C1686 C1687 1.355 . S
C1686 C1688 1.415 . S
C1687 C1686 1.355 . S
C1687 C1689 1.419 . S
C1688 C1686 1.415 . S
C1688 C1693 1.425 . S
C1688 C1695 1.409 . S
C1689 H1681 0.930 . S
C1689 C1687 1.419 . S
C1689 C1690 1.362 . S
C1690 H1682 0.930 . S
C1690 C1689 1.362 . S
C1690 C1693 1.409 . S
C1691 H1683 0.930 . S
C1691 C1692 1.355 . S
C1691 C1693 1.415 . S
C1692 C1691 1.355 . S
C1692 C1694 1.419 . S
C1693 C1688 1.425 . S
C1693 C1690 1.409 . S
C1693 C1691 1.415 . S
C1694 H1684 0.930 . S
C1694 C1692 1.419 . S
C1694 C1695 1.362 . S
C1695 H1685 0.930 . S
C1695 C1688 1.409 . S
C1695 C1694 1.362 . S
H1696 C1702 0.930 . S
H1697 C1705 0.930 . S
H1698 C1706 0.930 . S
H1699 C1707 0.930 . S
H1700 C1710 0.930 . S
H1701 C1711 0.930 . S
C1702 H1696 0.930 . S
C1702 C1703 1.355 . S
C1702 C1704 1.415 . S
C1703 C1702 1.355 . S
C1703 C1705 1.419 . S
C1704 C1702 1.415 . S
C1704 C1709 1.425 . S
C1704 C1711 1.409 . S
C1705 H1697 0.930 . S
C1705 C1703 1.419 . S
C1705 C1706 1.362 . S
C1706 H1698 0.930 . S
C1706 C1705 1.362 . S
C1706 C1709 1.409 . S
C1707 H1699 0.930 . S
C1707 C1708 1.355 . S
C1707 C1709 1.415 . S
C1708 C1707 1.355 . S
C1708 C1710 1.419 . S
C1709 C1704 1.425 . S
C1709 C1706 1.409 . S
C1709 C1707 1.415 . S
C1710 H1700 0.930 . S
C1710 C1708 1.419 . S
C1710 C1711 1.362 . S
C1711 H1701 0.930 . S
C1711 C1704 1.409 . S
C1711 C1710 1.362 . S
H1712 C1718 0.930 . S
H1713 C1721 0.930 . S
H1714 C1722 0.930 . S
H1715 C1723 0.930 . S
H1716 C1726 0.930 . S
H1717 C1727 0.930 . S
C1718 H1712 0.930 . S
C1718 C1719 1.355 . S
C1718 C1720 1.415 . S
C1719 C1718 1.355 . S
C1719 C1721 1.419 . S
C1720 C1718 1.415 . S
C1720 C1725 1.425 . S
C1720 C1727 1.409 . S
C1721 H1713 0.930 . S
C1721 C1719 1.419 . S
C1721 C1722 1.362 . S
C1722 H1714 0.930 . S
C1722 C1721 1.362 . S
C1722 C1725 1.409 . S
C1723 H1715 0.930 . S
C1723 C1724 1.355 . S
C1723 C1725 1.415 . S
C1724 C1723 1.355 . S
C1724 C1726 1.419 . S
C1725 C1720 1.425 . S
C1725 C1722 1.409 . S
C1725 C1723 1.415 . S
C1726 H1716 0.930 . S
C1726 C1724 1.419 . S
C1726 C1727 1.362 . S
C1727 H1717 0.930 . S
C1727 C1720 1.409 . S
C1727 C1726 1.362 . S
H1728 C1734 0.930 . S
H1729 C1737 0.930 . S
H1730 C1738 0.930 . S
H1731 C1739 0.930 . S
H1732 C1742 0.930 1_545 S
H1733 C1743 0.930 1_556 S
C1734 H1728 0.930 . S
C1734 C1735 1.355 . S
C1734 C1736 1.415 . S
C1735 C1734 1.355 . S
C1735 C1737 1.419 . S
C1736 C1734 1.415 . S
C1736 C1741 1.425 . S
C1736 C1743 1.409 . S
C1737 H1729 0.930 . S
C1737 C1735 1.419 . S
C1737 C1738 1.362 . S
C1738 H1730 0.930 . S
C1738 C1737 1.362 . S
C1738 C1741 1.409 . S
C1739 H1731 0.930 . S
C1739 C1740 1.355 . S
C1739 C1741 1.415 . S
C1740 C1739 1.355 . S
C1740 C1742 1.419 . S
C1741 C1736 1.425 . S
C1741 C1738 1.409 . S
C1741 C1739 1.415 . S
C1742 H1732 0.930 1_565 S
C1742 C1740 1.419 . S
C1742 C1743 1.362 . S
C1743 H1733 0.930 1_554 S
C1743 C1736 1.409 . S
C1743 C1742 1.362 . S
H1744 C1750 0.930 . S
H1745 C1753 0.930 . S
H1746 C1754 0.930 . S
H1747 C1755 0.930 . S
H1748 C1758 0.930 . S
H1749 C1759 0.930 . S
C1750 H1744 0.930 . S
C1750 C1751 1.355 . S
C1750 C1752 1.415 . S
C1751 C1750 1.355 . S
C1751 C1753 1.419 . S
C1752 C1750 1.415 . S
C1752 C1757 1.425 . S
C1752 C1759 1.409 . S
C1753 H1745 0.930 . S
C1753 C1751 1.419 . S
C1753 C1754 1.362 . S
C1754 H1746 0.930 . S
C1754 C1753 1.362 . S
C1754 C1757 1.409 . S
C1755 H1747 0.930 . S
C1755 C1756 1.355 . S
C1755 C1757 1.415 . S
C1756 C1755 1.355 . S
C1756 C1758 1.419 . S
C1757 C1752 1.425 . S
C1757 C1754 1.409 . S
C1757 C1755 1.415 . S
C1758 H1748 0.930 . S
C1758 C1756 1.419 . S
C1758 C1759 1.362 . S
C1759 H1749 0.930 . S
C1759 C1752 1.409 . S
C1759 C1758 1.362 . S
H1760 C1766 0.930 . S
H1761 C1769 0.930 . S
H1762 C1770 0.930 . S
H1763 C1771 0.930 . S
H1764 C1774 0.930 . S
H1765 C1775 0.930 . S
C1766 H1760 0.930 . S
C1766 C1767 1.355 . S
C1766 C1768 1.415 . S
C1767 C1766 1.355 . S
C1767 C1769 1.419 . S
C1768 C1766 1.415 . S
C1768 C1773 1.425 . S
C1768 C1775 1.409 . S
C1769 H1761 0.930 . S
C1769 C1767 1.419 . S
C1769 C1770 1.362 . S
C1770 H1762 0.930 . S
C1770 C1769 1.362 . S
C1770 C1773 1.409 . S
C1771 H1763 0.930 . S
C1771 C1772 1.355 . S
C1771 C1773 1.415 . S
C1772 C1771 1.355 . S
C1772 C1774 1.419 . S
C1773 C1768 1.425 . S
C1773 C1770 1.409 . S
C1773 C1771 1.415 . S
C1774 H1764 0.930 . S
C1774 C1772 1.419 . S
C1774 C1775 1.362 . S
C1775 H1765 0.930 . S
C1775 C1768 1.409 . S
C1775 C1774 1.362 . S
H1776 C1782 0.930 . S
H1777 C1785 0.930 . S
H1778 C1786 0.930 . S
H1779 C1787 0.930 . S
H1780 C1790 0.930 . S
H1781 C1791 0.930 . S
C1782 H1776 0.930 . S
C1782 C1783 1.355 . S
C1782 C1784 1.415 . S
C1783 C1782 1.355 . S
C1783 C1785 1.419 . S
C1784 C1782 1.415 . S
C1784 C1789 1.425 . S
C1784 C1791 1.409 . S
C1785 H1777 0.930 . S
C1785 C1783 1.419 . S
C1785 C1786 1.362 . S
C1786 H1778 0.930 . S
C1786 C1785 1.362 . S
C1786 C1789 1.409 . S
C1787 H1779 0.930 . S
C1787 C1788 1.355 . S
C1787 C1789 1.415 . S
C1788 C1787 1.355 . S
C1788 C1790 1.419 . S
C1789 C1784 1.425 . S
C1789 C1786 1.409 . S
C1789 C1787 1.415 . S
C1790 H1780 0.930 . S
C1790 C1788 1.419 . S
C1790 C1791 1.362 . S
C1791 H1781 0.930 . S
C1791 C1784 1.409 . S
C1791 C1790 1.362 . S
H1792 C1798 0.930 . S
H1793 C1801 0.930 . S
H1794 C1802 0.930 . S
H1795 C1803 0.930 . S
H1796 C1806 0.930 . S
H1797 C1807 0.930 . S
C1798 H1792 0.930 . S
C1798 C1799 1.355 . S
C1798 C1800 1.415 . S
C1799 C1798 1.355 . S
C1799 C1801 1.419 . S
C1800 C1798 1.415 . S
C1800 C1805 1.425 . S
C1800 C1807 1.409 . S
C1801 H1793 0.930 . S
C1801 C1799 1.419 . S
C1801 C1802 1.362 . S
C1802 H1794 0.930 . S
C1802 C1801 1.362 . S
C1802 C1805 1.409 . S
C1803 H1795 0.930 . S
C1803 C1804 1.355 . S
C1803 C1805 1.415 . S
C1804 C1803 1.355 . S
C1804 C1806 1.419 . S
C1805 C1800 1.425 . S
C1805 C1802 1.409 . S
C1805 C1803 1.415 . S
C1806 H1796 0.930 . S
C1806 C1804 1.419 . S
C1806 C1807 1.362 . S
C1807 H1797 0.930 . S
C1807 C1800 1.409 . S
C1807 C1806 1.362 . S
H1808 C1814 0.930 . S
H1809 C1817 0.930 . S
H1810 C1818 0.930 . S
H1811 C1819 0.930 . S
H1812 C1822 0.930 . S
H1813 C1823 0.930 . S
C1814 H1808 0.930 . S
C1814 C1815 1.355 . S
C1814 C1816 1.415 . S
C1815 C1814 1.355 . S
C1815 C1817 1.419 . S
C1816 C1814 1.415 . S
C1816 C1821 1.425 . S
C1816 C1823 1.409 . S
C1817 H1809 0.930 . S
C1817 C1815 1.419 . S
C1817 C1818 1.362 . S
C1818 H1810 0.930 . S
C1818 C1817 1.362 . S
C1818 C1821 1.409 . S
C1819 H1811 0.930 . S
C1819 C1820 1.355 . S
C1819 C1821 1.415 . S
C1820 C1819 1.355 . S
C1820 C1822 1.419 . S
C1821 C1816 1.425 . S
C1821 C1818 1.409 . S
C1821 C1819 1.415 . S
C1822 H1812 0.930 . S
C1822 C1820 1.419 . S
C1822 C1823 1.362 . S
C1823 H1813 0.930 . S
C1823 C1816 1.409 . S
C1823 C1822 1.362 . S
H1824 C1830 0.930 . S
H1825 C1833 0.930 . S
H1826 C1834 0.930 . S
H1827 C1835 0.930 . S
H1828 C1838 0.930 . S
H1829 C1839 0.930 . S
C1830 H1824 0.930 . S
C1830 C1831 1.355 . S
C1830 C1832 1.415 . S
C1831 C1830 1.355 . S
C1831 C1833 1.419 . S
C1832 C1830 1.415 . S
C1832 C1837 1.425 . S
C1832 C1839 1.409 . S
C1833 H1825 0.930 . S
C1833 C1831 1.419 . S
C1833 C1834 1.362 . S
C1834 H1826 0.930 . S
C1834 C1833 1.362 . S
C1834 C1837 1.409 . S
C1835 H1827 0.930 . S
C1835 C1836 1.355 . S
C1835 C1837 1.415 . S
C1836 C1835 1.355 . S
C1836 C1838 1.419 . S
C1837 C1832 1.425 . S
C1837 C1834 1.409 . S
C1837 C1835 1.415 . S
C1838 H1828 0.930 . S
C1838 C1836 1.419 . S
C1838 C1839 1.362 . S
C1839 H1829 0.930 . S
C1839 C1832 1.409 . S
C1839 C1838 1.362 . S
H1840 C1846 0.930 . S
H1841 C1849 0.930 . S
H1842 C1850 0.930 . S
H1843 C1851 0.930 1_655 S
H1844 C1854 0.930 . S
H1845 C1855 0.930 . S
C1846 H1840 0.930 . S
C1846 C1847 1.355 . S
C1846 C1848 1.415 . S
C1847 C1846 1.355 . S
C1847 C1849 1.419 1_455 S
C1848 C1846 1.415 . S
C1848 C1853 1.425 . S
C1848 C1855 1.409 . S
C1849 H1841 0.930 . S
C1849 C1847 1.419 1_655 S
C1849 C1850 1.362 . S
C1850 H1842 0.930 . S
C1850 C1849 1.362 . S
C1850 C1853 1.409 1_655 S
C1851 H1843 0.930 1_455 S
C1851 C1852 1.355 . S
C1851 C1853 1.415 . S
C1852 C1851 1.355 . S
C1852 C1854 1.419 . S
C1853 C1848 1.425 . S
C1853 C1850 1.409 1_455 S
C1853 C1851 1.415 . S
C1854 H1844 0.930 . S
C1854 C1852 1.419 . S
C1854 C1855 1.362 . S
C1855 H1845 0.930 . S
C1855 C1848 1.409 . S
C1855 C1854 1.362 . S
H1856 C1862 0.930 . S
H1857 C1865 0.930 . S
H1858 C1866 0.930 . S
H1859 C1867 0.930 . S
H1860 C1870 0.930 . S
H1861 C1871 0.930 . S
C1862 H1856 0.930 . S
C1862 C1863 1.355 . S
C1862 C1864 1.415 . S
C1863 C1862 1.355 . S
C1863 C1865 1.419 . S
C1864 C1862 1.415 . S
C1864 C1869 1.425 . S
C1864 C1871 1.409 . S
C1865 H1857 0.930 . S
C1865 C1863 1.419 . S
C1865 C1866 1.362 . S
C1866 H1858 0.930 . S
C1866 C1865 1.362 . S
C1866 C1869 1.409 . S
C1867 H1859 0.930 . S
C1867 C1868 1.355 . S
C1867 C1869 1.415 . S
C1868 C1867 1.355 . S
C1868 C1870 1.419 . S
C1869 C1864 1.425 . S
C1869 C1866 1.409 . S
C1869 C1867 1.415 . S
C1870 H1860 0.930 . S
C1870 C1868 1.419 . S
C1870 C1871 1.362 . S
C1871 H1861 0.930 . S
C1871 C1864 1.409 . S
C1871 C1870 1.362 . S
H1872 C1878 0.930 . S
H1873 C1881 0.930 . S
H1874 C1882 0.930 . S
H1875 C1883 0.930 . S
H1876 C1886 0.930 . S
H1877 C1887 0.930 . S
C1878 H1872 0.930 . S
C1878 C1879 1.355 . S
C1878 C1880 1.415 . S
C1879 C1878 1.355 . S
C1879 C1881 1.419 . S
C1880 C1878 1.415 . S
C1880 C1885 1.425 . S
C1880 C1887 1.409 . S
C1881 H1873 0.930 . S
C1881 C1879 1.419 . S
C1881 C1882 1.362 . S
C1882 H1874 0.930 . S
C1882 C1881 1.362 . S
C1882 C1885 1.409 . S
C1883 H1875 0.930 . S
C1883 C1884 1.355 . S
C1883 C1885 1.415 . S
C1884 C1883 1.355 . S
C1884 C1886 1.419 . S
C1885 C1880 1.425 . S
C1885 C1882 1.409 . S
C1885 C1883 1.415 . S
C1886 H1876 0.930 . S
C1886 C1884 1.419 . S
C1886 C1887 1.362 . S
C1887 H1877 0.930 . S
C1887 C1880 1.409 . S
C1887 C1886 1.362 . S
H1888 C1894 0.930 . S
H1889 C1897 0.930 . S
H1890 C1898 0.930 . S
H1891 C1899 0.930 . S
H1892 C1902 0.930 . S
H1893 C1903 0.930 . S
C1894 H1888 0.930 . S
C1894 C1895 1.355 . S
C1894 C1896 1.415 . S
C1895 C1894 1.355 . S
C1895 C1897 1.419 . S
C1896 C1894 1.415 . S
C1896 C1901 1.425 . S
C1896 C1903 1.409 . S
C1897 H1889 0.930 . S
C1897 C1895 1.419 . S
C1897 C1898 1.362 . S
C1898 H1890 0.930 . S
C1898 C1897 1.362 . S
C1898 C1901 1.409 . S
C1899 H1891 0.930 . S
C1899 C1900 1.355 . S
C1899 C1901 1.415 . S
C1900 C1899 1.355 . S
C1900 C1902 1.419 . S
C1901 C1896 1.425 . S
C1901 C1898 1.409 . S
C1901 C1899 1.415 . S
C1902 H1892 0.930 . S
C1902 C1900 1.419 . S
C1902 C1903 1.362 . S
C1903 H1893 0.930 . S
C1903 C1896 1.409 . S
C1903 C1902 1.362 . S
H1904 C1910 0.930 . S
H1905 C1913 0.930 . S
H1906 C1914 0.930 . S
H1907 C1915 0.930 . S
H1908 C1918 0.930 . S
H1909 C1919 0.930 . S
C1910 H1904 0.930 . S
C1910 C1911 1.355 . S
C1910 C1912 1.415 . S
C1911 C1910 1.355 . S
C1911 C1913 1.419 . S
C1912 C1910 1.415 . S
C1912 C1917 1.425 . S
C1912 C1919 1.409 . S
C1913 H1905 0.930 . S
C1913 C1911 1.419 . S
C1913 C1914 1.362 . S
C1914 H1906 0.930 . S
C1914 C1913 1.362 . S
C1914 C1917 1.409 . S
C1915 H1907 0.930 . S
C1915 C1916 1.355 . S
C1915 C1917 1.415 . S
C1916 C1915 1.355 . S
C1916 C1918 1.419 . S
C1917 C1912 1.425 . S
C1917 C1914 1.409 . S
C1917 C1915 1.415 . S
C1918 H1908 0.930 . S
C1918 C1916 1.419 . S
C1918 C1919 1.362 . S
C1919 H1909 0.930 . S
C1919 C1912 1.409 . S
C1919 C1918 1.362 . S
H1920 C1926 0.930 . S
H1921 C1929 0.930 . S
H1922 C1930 0.930 . S
H1923 C1931 0.930 . S
H1924 C1934 0.930 . S
H1925 C1935 0.930 . S
C1926 H1920 0.930 . S
C1926 C1927 1.355 . S
C1926 C1928 1.415 . S
C1927 C1926 1.355 . S
C1927 C1929 1.419 . S
C1928 C1926 1.415 . S
C1928 C1933 1.425 . S
C1928 C1935 1.409 . S
C1929 H1921 0.930 . S
C1929 C1927 1.419 . S
C1929 C1930 1.362 . S
C1930 H1922 0.930 . S
C1930 C1929 1.362 . S
C1930 C1933 1.409 . S
C1931 H1923 0.930 . S
C1931 C1932 1.355 . S
C1931 C1933 1.415 . S
C1932 C1931 1.355 . S
C1932 C1934 1.419 . S
C1933 C1928 1.425 . S
C1933 C1930 1.409 . S
C1933 C1931 1.415 . S
C1934 H1924 0.930 . S
C1934 C1932 1.419 . S
C1934 C1935 1.362 . S
C1935 H1925 0.930 . S
C1935 C1928 1.409 . S
C1935 C1934 1.362 . S
H1936 C1942 0.930 . S
H1937 C1945 0.930 . S
H1938 C1946 0.930 . S
H1939 C1947 0.930 . S
H1940 C1950 0.930 . S
H1941 C1951 0.930 . S
C1942 H1936 0.930 . S
C1942 C1943 1.355 . S
C1942 C1944 1.415 . S
C1943 C1942 1.355 . S
C1943 C1945 1.419 . S
C1944 C1942 1.415 . S
C1944 C1949 1.425 . S
C1944 C1951 1.409 . S
C1945 H1937 0.930 . S
C1945 C1943 1.419 . S
C1945 C1946 1.362 . S
C1946 H1938 0.930 . S
C1946 C1945 1.362 . S
C1946 C1949 1.409 . S
C1947 H1939 0.930 . S
C1947 C1948 1.355 . S
C1947 C1949 1.415 . S
C1948 C1947 1.355 . S
C1948 C1950 1.419 . S
C1949 C1944 1.425 . S
C1949 C1946 1.409 . S
C1949 C1947 1.415 . S
C1950 H1940 0.930 . S
C1950 C1948 1.419 . S
C1950 C1951 1.362 . S
C1951 H1941 0.930 . S
C1951 C1944 1.409 . S
C1951 C1950 1.362 . S
H1952 C1958 0.930 . S
H1953 C1961 0.930 . S
H1954 C1962 0.930 . S
H1955 C1963 0.930 . S
H1956 C1966 0.930 . S
H1957 C1967 0.930 . S
C1958 H1952 0.930 . S
C1958 C1959 1.355 . S
C1958 C1960 1.415 . S
C1959 C1958 1.355 . S
C1959 C1961 1.419 . S
C1960 C1958 1.415 . S
C1960 C1965 1.425 . S
C1960 C1967 1.409 . S
C1961 H1953 0.930 . S
C1961 C1959 1.419 . S
C1961 C1962 1.362 . S
C1962 H1954 0.930 . S
C1962 C1961 1.362 . S
C1962 C1965 1.409 . S
C1963 H1955 0.930 . S
C1963 C1964 1.355 . S
C1963 C1965 1.415 . S
C1964 C1963 1.355 . S
C1964 C1966 1.419 . S
C1965 C1960 1.425 . S
C1965 C1962 1.409 . S
C1965 C1963 1.415 . S
C1966 H1956 0.930 . S
C1966 C1964 1.419 . S
C1966 C1967 1.362 . S
C1967 H1957 0.930 . S
C1967 C1960 1.409 . S
C1967 C1966 1.362 . S
H1968 C1974 0.930 . S
H1969 C1977 0.930 . S
H1970 C1978 0.930 . S
H1971 C1979 0.930 1_455 S
H1972 C1982 0.930 . S
H1973 C1983 0.930 . S
C1974 H1968 0.930 . S
C1974 C1975 1.355 . S
C1974 C1976 1.415 . S
C1975 C1974 1.355 . S
C1975 C1977 1.419 . S
C1976 C1974 1.415 . S
C1976 C1981 1.425 . S
C1976 C1983 1.409 . S
C1977 H1969 0.930 . S
C1977 C1975 1.419 . S
C1977 C1978 1.362 . S
C1978 H1970 0.930 . S
C1978 C1977 1.362 . S
C1978 C1981 1.409 . S
C1979 H1971 0.930 1_655 S
C1979 C1980 1.355 . S
C1979 C1981 1.415 . S
C1980 C1979 1.355 . S
C1980 C1982 1.419 . S
C1981 C1976 1.425 . S
C1981 C1978 1.409 . S
C1981 C1979 1.415 . S
C1982 H1972 0.930 . S
C1982 C1980 1.419 . S
C1982 C1983 1.362 . S
C1983 H1973 0.930 . S
C1983 C1976 1.409 . S
C1983 C1982 1.362 . S
H1984 C1990 0.930 . S
H1985 C1993 0.930 . S
H1986 C1994 0.930 . S
H1987 C1995 0.930 . S
H1988 C1998 0.930 . S
H1989 C1999 0.930 . S
C1990 H1984 0.930 . S
C1990 C1991 1.355 . S
C1990 C1992 1.415 . S
C1991 C1990 1.355 . S
C1991 C1993 1.419 . S
C1992 C1990 1.415 . S
C1992 C1997 1.425 . S
C1992 C1999 1.409 . S
C1993 H1985 0.930 . S
C1993 C1991 1.419 . S
C1993 C1994 1.362 . S
C1994 H1986 0.930 . S
C1994 C1993 1.362 . S
C1994 C1997 1.409 . S
C1995 H1987 0.930 . S
C1995 C1996 1.355 . S
C1995 C1997 1.415 . S
C1996 C1995 1.355 . S
C1996 C1998 1.419 . S
C1997 C1992 1.425 . S
C1997 C1994 1.409 . S
C1997 C1995 1.415 . S
C1998 H1988 0.930 . S
C1998 C1996 1.419 . S
C1998 C1999 1.362 . S
C1999 H1989 0.930 . S
C1999 C1992 1.409 . S
C1999 C1998 1.362 . S
H2000 C2006 0.930 . S
H2001 C2009 0.930 . S
H2002 C2010 0.930 . S
H2003 C2011 0.930 . S
H2004 C2014 0.930 . S
H2005 C2015 0.930 . S
C2006 H2000 0.930 . S
C2006 C2007 1.355 . S
C2006 C2008 1.415 . S
C2007 C2006 1.355 . S
C2007 C2009 1.419 . S
C2008 C2006 1.415 . S
C2008 C2013 1.425 . S
C2008 C2015 1.409 . S
C2009 H2001 0.930 . S
C2009 C2007 1.419 . S
C2009 C2010 1.362 . S
C2010 H2002 0.930 . S
C2010 C2009 1.362 . S
C2010 C2013 1.409 . S
C2011 H2003 0.930 . S
C2011 C2012 1.355 . S
C2011 C2013 1.415 . S
C2012 C2011 1.355 . S
C2012 C2014 1.419 . S
C2013 C2008 1.425 . S
C2013 C2010 1.409 . S
C2013 C2011 1.415 . S
C2014 H2004 0.930 . S
C2014 C2012 1.419 . S
C2014 C2015 1.362 . S
C2015 H2005 0.930 . S
C2015 C2008 1.409 . S
C2015 C2014 1.362 . S
H2016 C2022 0.930 . S
H2017 C2025 0.930 . S
H2018 C2026 0.930 . S
H2019 C2027 0.930 . S
H2020 C2030 0.930 . S
H2021 C2031 0.930 . S
C2022 H2016 0.930 . S
C2022 C2023 1.355 . S
C2022 C2024 1.415 . S
C2023 C2022 1.355 . S
C2023 C2025 1.419 . S
C2024 C2022 1.415 . S
C2024 C2029 1.425 . S
C2024 C2031 1.409 . S
C2025 H2017 0.930 . S
C2025 C2023 1.419 . S
C2025 C2026 1.362 . S
C2026 H2018 0.930 . S
C2026 C2025 1.362 . S
C2026 C2029 1.409 . S
C2027 H2019 0.930 . S
C2027 C2028 1.355 . S
C2027 C2029 1.415 . S
C2028 C2027 1.355 . S
C2028 C2030 1.419 . S
C2029 C2024 1.425 . S
C2029 C2026 1.409 . S
C2029 C2027 1.415 . S
C2030 H2020 0.930 . S
C2030 C2028 1.419 . S
C2030 C2031 1.362 . S
C2031 H2021 0.930 . S
C2031 C2024 1.409 . S
C2031 C2030 1.362 . S
H2032 C2038 0.930 . S
H2033 C2041 0.930 . S
H2034 C2042 0.930 . S
H2035 C2043 0.930 . S
H2036 C2046 0.930 . S
H2037 C2047 0.930 1_455 S
C2038 H2032 0.930 . S
C2038 C2039 1.355 . S
C2038 C2040 1.415 . S
C2039 C2038 1.355 . S
C2039 C2041 1.419 . S
C2040 C2038 1.415 . S
C2040 C2045 1.425 . S
C2040 C2047 1.409 . S
C2041 H2033 0.930 . S
C2041 C2039 1.419 . S
C2041 C2042 1.362 . S
C2042 H2034 0.930 . S
C2042 C2041 1.362 . S
C2042 C2045 1.409 . S
C2043 H2035 0.930 . S
C2043 C2044 1.355 . S
C2043 C2045 1.415 . S
C2044 C2043 1.355 . S
C2044 C2046 1.419 1_655 S
C2045 C2040 1.425 . S
C2045 C2042 1.409 . S
C2045 C2043 1.415 . S
C2046 H2036 0.930 . S
C2046 C2044 1.419 1_455 S
C2046 C2047 1.362 1_455 S
C2047 H2037 0.930 1_655 S
C2047 C2040 1.409 . S
C2047 C2046 1.362 1_655 S
H2048 C2054 0.930 . S
H2049 C2057 0.930 . S
H2050 C2058 0.930 . S
H2051 C2059 0.930 . S
H2052 C2062 0.930 . S
H2053 C2063 0.930 . S
C2054 H2048 0.930 . S
C2054 C2055 1.355 . S
C2054 C2056 1.415 . S
C2055 C2054 1.355 . S
C2055 C2057 1.419 . S
C2056 C2054 1.415 . S
C2056 C2061 1.425 . S
C2056 C2063 1.409 . S
C2057 H2049 0.930 . S
C2057 C2055 1.419 . S
C2057 C2058 1.362 . S
C2058 H2050 0.930 . S
C2058 C2057 1.362 . S
C2058 C2061 1.409 . S
C2059 H2051 0.930 . S
C2059 C2060 1.355 . S
C2059 C2061 1.415 . S
C2060 C2059 1.355 . S
C2060 C2062 1.419 . S
C2061 C2056 1.425 . S
C2061 C2058 1.409 . S
C2061 C2059 1.415 . S
C2062 H2052 0.930 . S
C2062 C2060 1.419 . S
C2062 C2063 1.362 . S
C2063 H2053 0.930 . S
C2063 C2056 1.409 . S
C2063 C2062 1.362 . S
H2064 C2070 0.930 . S
H2065 C2073 0.930 . S
H2066 C2074 0.930 . S
H2067 C2075 0.930 . S
H2068 C2078 0.930 . S
H2069 C2079 0.930 . S
C2070 H2064 0.930 . S
C2070 C2071 1.355 . S
C2070 C2072 1.415 . S
C2071 C2070 1.355 . S
C2071 C2073 1.419 . S
C2072 C2070 1.415 . S
C2072 C2077 1.425 . S
C2072 C2079 1.409 . S
C2073 H2065 0.930 . S
C2073 C2071 1.419 . S
C2073 C2074 1.362 . S
C2074 H2066 0.930 . S
C2074 C2073 1.362 . S
C2074 C2077 1.409 . S
C2075 H2067 0.930 . S
C2075 C2076 1.355 . S
C2075 C2077 1.415 . S
C2076 C2075 1.355 . S
C2076 C2078 1.419 . S
C2077 C2072 1.425 . S
C2077 C2074 1.409 . S
C2077 C2075 1.415 . S
C2078 H2068 0.930 . S
C2078 C2076 1.419 . S
C2078 C2079 1.362 . S
C2079 H2069 0.930 . S
C2079 C2072 1.409 . S
C2079 C2078 1.362 . S
H2080 C2086 0.930 . S
H2081 C2089 0.930 . S
H2082 C2090 0.930 . S
H2083 C2091 0.930 . S
H2084 C2094 0.930 . S
H2085 C2095 0.930 1_545 S
C2086 H2080 0.930 . S
C2086 C2087 1.355 . S
C2086 C2088 1.415 . S
C2087 C2086 1.355 . S
C2087 C2089 1.419 . S
C2088 C2086 1.415 . S
C2088 C2093 1.425 . S
C2088 C2095 1.409 . S
C2089 H2081 0.930 . S
C2089 C2087 1.419 . S
C2089 C2090 1.362 . S
C2090 H2082 0.930 . S
C2090 C2089 1.362 . S
C2090 C2093 1.409 . S
C2091 H2083 0.930 . S
C2091 C2092 1.355 . S
C2091 C2093 1.415 . S
C2092 C2091 1.355 . S
C2092 C2094 1.419 1_565 S
C2093 C2088 1.425 . S
C2093 C2090 1.409 . S
C2093 C2091 1.415 . S
C2094 H2084 0.930 . S
C2094 C2092 1.419 1_545 S
C2094 C2095 1.362 1_545 S
C2095 H2085 0.930 1_565 S
C2095 C2088 1.409 . S
C2095 C2094 1.362 1_565 S
H2096 C2102 0.930 . S
H2097 C2105 0.930 . S
H2098 C2106 0.930 . S
H2099 C2107 0.930 . S
H2100 C2110 0.930 . S
H2101 C2111 0.930 . S
C2102 H2096 0.930 . S
C2102 C2103 1.355 . S
C2102 C2104 1.415 . S
C2103 C2102 1.355 . S
C2103 C2105 1.419 . S
C2104 C2102 1.415 . S
C2104 C2109 1.425 . S
C2104 C2111 1.409 . S
C2105 H2097 0.930 . S
C2105 C2103 1.419 . S
C2105 C2106 1.362 . S
C2106 H2098 0.930 . S
C2106 C2105 1.362 . S
C2106 C2109 1.409 . S
C2107 H2099 0.930 . S
C2107 C2108 1.355 . S
C2107 C2109 1.415 . S
C2108 C2107 1.355 . S
C2108 C2110 1.419 . S
C2109 C2104 1.425 . S
C2109 C2106 1.409 . S
C2109 C2107 1.415 . S
C2110 H2100 0.930 . S
C2110 C2108 1.419 . S
C2110 C2111 1.362 . S
C2111 H2101 0.930 . S
C2111 C2104 1.409 . S
C2111 C2110 1.362 . S
H2112 C2118 0.930 . S
H2113 C2121 0.930 . S
H2114 C2122 0.930 . S
H2115 C2123 0.930 . S
H2116 C2126 0.930 . S
H2117 C2127 0.930 . S
C2118 H2112 0.930 . S
C2118 C2119 1.355 . S
C2118 C2120 1.415 . S
C2119 C2118 1.355 . S
C2119 C2121 1.419 . S
C2120 C2118 1.415 . S
C2120 C2125 1.425 . S
C2120 C2127 1.409 . S
C2121 H2113 0.930 . S
C2121 C2119 1.419 . S
C2121 C2122 1.362 . S
C2122 H2114 0.930 . S
C2122 C2121 1.362 . S
C2122 C2125 1.409 . S
C2123 H2115 0.930 . S
C2123 C2124 1.355 . S
C2123 C2125 1.415 . S
C2124 C2123 1.355 . S
C2124 C2126 1.419 . S
C2125 C2120 1.425 . S
C2125 C2122 1.409 . S
C2125 C2123 1.415 . S
C2126 H2116 0.930 . S
C2126 C2124 1.419 . S
C2126 C2127 1.362 . S
C2127 H2117 0.930 . S
C2127 C2120 1.409 . S
C2127 C2126 1.362 . S
H2128 C2134 0.930 . S
H2129 C2137 0.930 . S
H2130 C2138 0.930 . S
H2131 C2139 0.930 . S
H2132 C2142 0.930 . S
H2133 C2143 0.930 . S
C2134 H2128 0.930 . S
C2134 C2135 1.355 . S
C2134 C2136 1.415 . S
C2135 C2134 1.355 . S
C2135 C2137 1.419 . S
C2136 C2134 1.415 . S
C2136 C2141 1.425 . S
C2136 C2143 1.409 . S
C2137 H2129 0.930 . S
C2137 C2135 1.419 . S
C2137 C2138 1.362 . S
C2138 H2130 0.930 . S
C2138 C2137 1.362 . S
C2138 C2141 1.409 . S
C2139 H2131 0.930 . S
C2139 C2140 1.355 . S
C2139 C2141 1.415 . S
C2140 C2139 1.355 . S
C2140 C2142 1.419 . S
C2141 C2136 1.425 . S
C2141 C2138 1.409 . S
C2141 C2139 1.415 . S
C2142 H2132 0.930 . S
C2142 C2140 1.419 . S
C2142 C2143 1.362 . S
C2143 H2133 0.930 . S
C2143 C2136 1.409 . S
C2143 C2142 1.362 . S
H2144 C2150 0.930 . S
H2145 C2153 0.930 . S
H2146 C2154 0.930 1_556 S
H2147 C2155 0.930 1_556 S
H2148 C2158 0.930 . S
H2149 C2159 0.930 . S
C2150 H2144 0.930 . S
C2150 C2151 1.355 . S
C2150 C2152 1.415 . S
C2151 C2150 1.355 . S
C2151 C2153 1.419 . S
C2152 C2150 1.415 . S
C2152 C2157 1.425 . S
C2152 C2159 1.409 . S
C2153 H2145 0.930 . S
C2153 C2151 1.419 . S
C2153 C2154 1.362 . S
C2154 H2146 0.930 1_554 S
C2154 C2153 1.362 . S
C2154 C2157 1.409 . S
C2155 H2147 0.930 1_554 S
C2155 C2156 1.355 . S
C2155 C2157 1.415 . S
C2156 C2155 1.355 . S
C2156 C2158 1.419 . S
C2157 C2152 1.425 . S
C2157 C2154 1.409 . S
C2157 C2155 1.415 . S
C2158 H2148 0.930 . S
C2158 C2156 1.419 . S
C2158 C2159 1.362 . S
C2159 H2149 0.930 . S
C2159 C2152 1.409 . S
C2159 C2158 1.362 . S
H2160 C2166 0.930 . S
H2161 C2169 0.930 . S
H2162 C2170 0.930 . S
H2163 C2171 0.930 . S
H2164 C2174 0.930 . S
H2165 C2175 0.930 . S
C2166 H2160 0.930 . S
C2166 C2167 1.355 . S
C2166 C2168 1.415 . S
C2167 C2166 1.355 . S
C2167 C2169 1.419 . S
C2168 C2166 1.415 . S
C2168 C2173 1.425 . S
C2168 C2175 1.409 . S
C2169 H2161 0.930 . S
C2169 C2167 1.419 . S
C2169 C2170 1.362 . S
C2170 H2162 0.930 . S
C2170 C2169 1.362 . S
C2170 C2173 1.409 . S
C2171 H2163 0.930 . S
C2171 C2172 1.355 . S
C2171 C2173 1.415 . S
C2172 C2171 1.355 . S
C2172 C2174 1.419 . S
C2173 C2168 1.425 . S
C2173 C2170 1.409 . S
C2173 C2171 1.415 . S
C2174 H2164 0.930 . S
C2174 C2172 1.419 . S
C2174 C2175 1.362 . S
C2175 H2165 0.930 . S
C2175 C2168 1.409 . S
C2175 C2174 1.362 . S
H2176 C2182 0.930 . S
H2177 C2185 0.930 . S
H2178 C2186 0.930 . S
H2179 C2187 0.930 . S
H2180 C2190 0.930 . S
H2181 C2191 0.930 . S
C2182 H2176 0.930 . S
C2182 C2183 1.355 . S
C2182 C2184 1.415 . S
C2183 C2182 1.355 . S
C2183 C2185 1.419 . S
C2184 C2182 1.415 . S
C2184 C2189 1.425 . S
C2184 C2191 1.409 . S
C2185 H2177 0.930 . S
C2185 C2183 1.419 . S
C2185 C2186 1.362 . S
C2186 H2178 0.930 . S
C2186 C2185 1.362 . S
C2186 C2189 1.409 . S
C2187 H2179 0.930 . S
C2187 C2188 1.355 . S
C2187 C2189 1.415 . S
C2188 C2187 1.355 . S
C2188 C2190 1.419 . S
C2189 C2184 1.425 . S
C2189 C2186 1.409 . S
C2189 C2187 1.415 . S
C2190 H2180 0.930 . S
C2190 C2188 1.419 . S
C2190 C2191 1.362 . S
C2191 H2181 0.930 . S
C2191 C2184 1.409 . S
C2191 C2190 1.362 . S
C663 C109 1.362 . S
C668 C340 1.114 1_556 S
C679 C61 1.285 . S
C684 C375 1.432 . S
C695 C74 1.102 . S
C700 C380 1.012 . S
C716 C405 1.380 . S
C711 C96 1.479 . S
C727 C25 1.377 . S
C732 C425 1.317 . S
C748 C440 0.943 . S
C743 C40 1.087 . S
C764 C475 1.526 . S
C759 C46 1.542 . S
C775 C5 1.037 . S
C780 C480 1.166 . S
C796 C355 1.392 1_655 S
C791 C229 1.185 . S
C807 C249 1.061 . S
C812 C365 1.048 . S
C828 C395 1.269 . S
C823 C271 1.108 . S
C844 C400 1.268 . S
C839 C172 1.296 1_556 S
C855 C236 1.214 . S
C860 C420 1.084 . S
C876 C455 1.536 . S
C871 C242 1.576 . S
C892 C465 1.028 . S
C887 C278 1.004 . S
C908 C495 1.600 . S
C903 C179 1.605 . S
C924 C345 1.270 . S
C919 C159 1.030 . S
C935 C285 1.485 . S
C940 C515 1.637 . S
C956 C525 1.399 . S
C951 C333 1.451 . S
C972 C540 0.938 . S
C967 C320 1.056 . S
C983 C123 1.383 . S
C988 C485 1.206 . S
C999 C138 1.575 . S
C1004 C385 1.439 . S
C1015 C326 1.823 . S
C1020 C575 1.801 . S
C1036 C580 1.080 . S
C1031 C298 1.133 . S
C1052 C338 1.243 . S
C1047 C67 1.385 . S
C1068 C594 1.384 . S
C1063 C110 1.425 . S
C1079 C88 1.114 . S
C1084 C378 1.126 . S
C1095 C75 1.259 . S
C1100 C568 1.372 . S
C1116 C428 1.334 . S
C1111 C11 1.334 . S
C1127 C47 0.887 . S
C1132 C518 1.024 . S
C1148 C474 1.418 . S
C1143 C32 1.434 . S
C1164 C598 1.309 . S
C1159 C26 1.479 . S
C1180 C354 1.519 1_565 S
C1175 C152 1.623 . S
C1196 C588 1.080 . S
C1191 C319 1.063 . S
C1207 C124 1.331 . S
C1212 C394 1.286 . S
C1223 C284 1.352 . S
C1228 C558 1.204 . S
C1239 C145 1.119 1_545 S
C1244 C418 1.080 . S
C1260 C534 1.472 . S
C1255 C312 1.428 . S
C1271 C117 0.838 . S
C1276 C468 0.933 . S
C1287 C291 1.573 . S
C1292 C614 1.533 . S
C1303 C194 1.493 . S
C1308 C348 1.278 . S
C1319 C180 1.651 . S
C1324 C514 1.628 . S
C1335 C263 1.346 . S
C1340 C448 1.262 . S
C1351 C243 0.844 . S
C1356 C538 0.913 . S
C1372 C608 1.293 . S
C1367 C277 1.371 . S
C1383 C215 1.362 . S
C1388 C388 1.384 . S
C1404 C414 1.717 . S
C1399 C256 1.660 . S
C1420 C358 1.169 . S
C1415 C200 1.167 . S
C1431 C81 1.355 . S
C1436 C620 1.118 . S
C1452 C595 1.452 . S
C1447 C89 1.329 . S
C1463 C102 1.134 1_455 S
C1468 C640 1.102 . S
C1479 C68 1.472 . S
C1484 C565 1.419 . S
C1495 C53 1.380 . S
C1500 C505 1.372 . S
C1516 C520 1.014 . S
C1511 C12 1.104 . S
C1532 C555 1.502 . S
C1527 C18 1.529 1_455 S
C1548 C600 1.148 . S
C1543 C33 0.993 . S
C1564 C635 1.432 . S
C1559 C257 1.203 . S
C1575 C193 1.053 . S
C1580 C585 1.045 . S
C1596 C655 1.272 . S
C1591 C201 1.127 . S
C1612 C560 1.220 . S
C1607 C214 1.261 . S
C1628 C500 1.132 . S
C1623 C264 1.191 . S
C1639 C186 1.575 . S
C1644 C535 1.536 . S
C1660 C545 0.982 . S
C1655 C208 1.021 . S
C1671 C221 1.603 . S
C1676 C615 1.599 . S
C1692 C625 1.236 . S
C1687 C313 1.024 . S
C1703 C131 1.486 . S
C1708 C435 1.638 . S
C1724 C445 1.410 . S
C1719 C151 1.455 . S
C1740 C460 1.039 . S
C1735 C166 1.054 . S
C1756 C605 1.295 . S
C1751 C305 1.386 . S
C1767 C292 1.573 . S
C1772 C645 1.433 . S
C1788 C415 1.813 . S
C1783 C144 1.832 . S
C1804 C360 1.057 . S
C1799 C116 1.119 . S
C1815 C95 1.375 . S
C1820 C618 1.253 . S
C1836 C374 1.390 . S
C1831 C82 1.411 . S
C1847 C60 1.113 . S
C1852 C638 1.093 . S
C1863 C103 1.174 . S
C1868 C408 1.379 . S
C1879 C39 1.313 . S
C1884 C508 1.267 . S
C1900 C438 0.985 . S
C1895 C19 1.059 . S
C1911 C4 1.400 . S
C1916 C554 1.445 . S
C1927 C54 1.442 . S
C1932 C478 1.208 . S
C1948 C634 1.494 . S
C1943 C334 1.611 . S
C1959 C165 1.040 . S
C1964 C368 0.968 . S
C1980 C654 1.267 1_655 S
C1975 C306 1.332 . S
C1991 C130 1.312 . S
C1996 C398 1.301 . S
C2007 C327 1.122 . S
C2012 C498 1.072 . S
C2028 C454 1.476 . S
C2023 C158 1.453 . S
C2039 C299 0.845 . S
C2044 C548 0.932 . S
C2060 C494 1.518 . S
C2055 C137 1.568 . S
C2076 C628 1.278 . S
C2071 C250 1.487 . S
C2092 C434 1.625 . S
C2087 C222 1.640 . S
C2103 C235 1.328 . S
C2108 C528 1.243 . S
C2124 C458 0.879 . S
C2119 C187 0.911 . S
C2135 C207 1.379 . S
C2140 C488 1.308 . S
C2151 C173 1.405 . S
C2156 C648 1.399 . S
C2172 C574 1.729 . S
C2167 C228 1.661 . S
C2188 C578 1.065 . S
C2183 C270 1.209 . S
