# Generated by pormake.
# Topology csq, (4,8)-cn, num edge types: 1
# Building blocks:
#     Node 0, Type 0, BuildingBlock: NAWXER_clean_sbu_0, # of connection points: 4
#     Node 1, Type 0, BuildingBlock: NAWXER_clean_sbu_0, # of connection points: 4
#     Node 2, Type 0, BuildingBlock: NAWXER_clean_sbu_0, # of connection points: 4
#     Node 3, Type 0, BuildingBlock: NAWXER_clean_sbu_0, # of connection points: 4
#     Node 4, Type 0, BuildingBlock: NAWXER_clean_sbu_0, # of connection points: 4
#     Node 5, Type 0, BuildingBlock: NAWXER_clean_sbu_0, # of connection points: 4
#     Node 6, Type 1, BuildingBlock: TAGTUT_clean_sbu_1, # of connection points: 8
#     Node 7, Type 1, BuildingBlock: TAGTUT_clean_sbu_1, # of connection points: 8
#     Node 8, Type 1, BuildingBlock: TAGTUT_clean_sbu_1, # of connection points: 8
#     Edge 9, Type (0, 1), BuildingBlock: OJICUG_clean_linker_0, # of connection points: 2
#     Edge 10, Type (0, 1), BuildingBlock: OJICUG_clean_linker_0, # of connection points: 2
#     Edge 11, Type (0, 1), BuildingBlock: OJICUG_clean_linker_0, # of connection points: 2
#     Edge 12, Type (0, 1), BuildingBlock: OJICUG_clean_linker_0, # of connection points: 2
#     Edge 13, Type (0, 1), BuildingBlock: OJICUG_clean_linker_0, # of connection points: 2
#     Edge 14, Type (0, 1), BuildingBlock: OJICUG_clean_linker_0, # of connection points: 2
#     Edge 15, Type (0, 1), BuildingBlock: OJICUG_clean_linker_0, # of connection points: 2
#     Edge 16, Type (0, 1), BuildingBlock: OJICUG_clean_linker_0, # of connection points: 2
#     Edge 17, Type (0, 1), BuildingBlock: OJICUG_clean_linker_0, # of connection points: 2
#     Edge 18, Type (0, 1), BuildingBlock: OJICUG_clean_linker_0, # of connection points: 2
#     Edge 19, Type (0, 1), BuildingBlock: OJICUG_clean_linker_0, # of connection points: 2
#     Edge 20, Type (0, 1), BuildingBlock: OJICUG_clean_linker_0, # of connection points: 2
#     Edge 21, Type (0, 1), BuildingBlock: OJICUG_clean_linker_0, # of connection points: 2
#     Edge 22, Type (0, 1), BuildingBlock: OJICUG_clean_linker_0, # of connection points: 2
#     Edge 23, Type (0, 1), BuildingBlock: OJICUG_clean_linker_0, # of connection points: 2
#     Edge 24, Type (0, 1), BuildingBlock: OJICUG_clean_linker_0, # of connection points: 2
#     Edge 25, Type (0, 1), BuildingBlock: OJICUG_clean_linker_0, # of connection points: 2
#     Edge 26, Type (0, 1), BuildingBlock: OJICUG_clean_linker_0, # of connection points: 2
#     Edge 27, Type (0, 1), BuildingBlock: OJICUG_clean_linker_0, # of connection points: 2
#     Edge 28, Type (0, 1), BuildingBlock: OJICUG_clean_linker_0, # of connection points: 2
#     Edge 29, Type (0, 1), BuildingBlock: OJICUG_clean_linker_0, # of connection points: 2
#     Edge 30, Type (0, 1), BuildingBlock: OJICUG_clean_linker_0, # of connection points: 2
#     Edge 31, Type (0, 1), BuildingBlock: OJICUG_clean_linker_0, # of connection points: 2
#     Edge 32, Type (0, 1), BuildingBlock: OJICUG_clean_linker_0, # of connection points: 2
# Relax obj value: 0.042
# Max RMSD: 0.125
# Mean RMSD: 0.070
data_MOF--net-csq--node1-NAWXER_clean_sbu_0--node2-TAGTUT_clean_sbu_1--edge1-OJICUG_clean_linker_0
_symmetry_space_group_name_H-M    P1
_symmetry_Int_Tables_number       1
_symmetry_cell_setting            triclinic
loop_
_symmetry_equiv_pos_as_xyz
'x, y, z'
_cell_length_a     37.021166
_cell_length_b     36.87223
_cell_length_c     14.652224
_cell_angle_alpha  92.543188
_cell_angle_beta   92.997445
_cell_angle_gamma 120.05947
loop_
_atom_site_label
_atom_site_type_symbol
_atom_site_fract_x
_atom_site_fract_y
_atom_site_fract_z
_atom_type_partial_charge
C0 C 0.3161 0.5172 0.10844 0.0
C1 C 0.21464 0.52115 0.31171 0.0
O2 O 0.31924 0.55098 0.14422 0.0
Zn3 Zn 0.26834 0.52362 0.21194 0.0
O4 O 0.28677 0.48164 0.12933 0.0
Zn5 Zn 0.234 0.45507 0.20756 0.0
O6 O 0.19027 0.42394 0.10535 0.0
O7 O 0.22286 0.49275 0.09947 0.0
O8 O 0.20795 0.48431 0.28801 0.0
O9 O 0.24517 0.55301 0.28116 0.0
O10 O 0.28743 0.49852 0.31827 0.0
O11 O 0.25139 0.42923 0.30209 0.0
C12 C 0.19607 0.45591 0.06379 0.0
C13 C 0.27931 0.46318 0.34698 0.0
C14 C 0.72063 0.20427 0.03055 0.0
C15 C 0.83596 0.32328 0.21945 0.0
O16 O 0.74638 0.19547 0.07168 0.0
Zn17 Zn 0.80181 0.22573 0.16377 0.0
O18 O 0.72565 0.24092 0.04397 0.0
Zn19 Zn 0.77531 0.26442 0.13061 0.0
O20 O 0.82086 0.26657 0.04353 0.0
O21 O 0.8443 0.22543 0.09173 0.0
O22 O 0.80456 0.32371 0.18076 0.0
O23 O 0.83665 0.28896 0.2184 0.0
O24 O 0.78588 0.19509 0.27259 0.0
O25 O 0.7529 0.23022 0.24988 0.0
C26 C 0.84506 0.25134 0.03616 0.0
C27 C 0.75963 0.20542 0.29736 0.0
C28 C 0.58716 0.84216 0.18571 0.0
C29 C 0.58587 0.74178 0.95985 0.0
O30 O 0.61872 0.83919 0.16605 0.0
Zn31 Zn 0.58857 0.79288 0.07367 0.0
O32 O 0.55036 0.81502 0.15021 0.0
Zn33 Zn 0.52104 0.76307 0.04928 0.0
O34 O 0.48549 0.71408 0.11473 0.0
O35 O 0.55342 0.74067 0.15056 0.0
O36 O 0.54957 0.73667 0.97054 0.0
O37 O 0.61843 0.77285 0.00149 0.0
O38 O 0.56681 0.82154 0.98063 0.0
O39 O 0.49771 0.78622 0.96214 0.0
C40 C 0.51532 0.71273 0.15873 0.0
C41 C 0.53251 0.81782 0.94624 0.0
C42 C 0.80865 0.49661 0.97349 0.0
C43 C 0.7064 0.5001 0.17484 0.0
O44 O 0.81532 0.53341 0.99746 0.0
Zn45 Zn 0.78914 0.56248 0.07789 0.0
O46 O 0.77806 0.46468 0.0037 0.0
Zn47 Zn 0.75475 0.49391 0.07299 0.0
O48 O 0.73593 0.5193 0.96678 0.0
O49 O 0.77203 0.58859 0.98359 0.0
O50 O 0.70339 0.46635 0.13932 0.0
O51 O 0.73597 0.53569 0.15478 0.0
O52 O 0.83258 0.5934 0.18062 0.0
O53 O 0.79994 0.52458 0.18625 0.0
C54 C 0.74413 0.55472 0.93842 0.0
C55 C 0.8267 0.56141 0.22214 0.0
C56 C 0.17863 0.76672 0.24983 0.0
C57 C 0.26442 0.81238 0.98912 0.0
O58 O 0.17953 0.79265 0.19415 0.0
Zn59 Zn 0.22213 0.79229 0.12261 0.0
O60 O 0.2028 0.75143 0.24277 0.0
Zn61 Zn 0.24846 0.75349 0.15617 0.0
O62 O 0.29806 0.77704 0.24328 0.0
O63 O 0.27737 0.82249 0.2153 0.0
O64 O 0.27102 0.78756 0.03682 0.0
O65 O 0.23827 0.82288 0.01374 0.0
O66 O 0.18724 0.72907 0.06789 0.0
O67 O 0.21909 0.69415 0.10593 0.0
C68 C 0.30305 0.81368 0.25677 0.0
C69 C 0.1878 0.69468 0.0669 0.0
C70 C 0.43387 0.27079 0.33563 0.0
C71 C 0.42726 0.16944 0.10235 0.0
O72 O 0.46949 0.27582 0.31783 0.0
Zn73 Zn 0.49597 0.2503 0.22996 0.0
O74 O 0.40015 0.23915 0.29902 0.0
Zn75 Zn 0.42731 0.21867 0.21838 0.0
O76 O 0.45362 0.19276 0.30565 0.0
O77 O 0.52272 0.2281 0.31222 0.0
O78 O 0.39582 0.17138 0.12747 0.0
O79 O 0.46447 0.19768 0.13278 0.0
O80 O 0.52648 0.29971 0.15889 0.0
O81 O 0.45774 0.27115 0.14227 0.0
C82 C 0.48882 0.19687 0.33389 0.0
C83 C 0.49419 0.30063 0.12732 0.0
C84 C 0.964 0.37191 0.82467 0.0
C85 C 0.08917 0.45334 0.77187 0.0
C86 C 0.05473 0.58027 0.81492 0.0
Mg87 Mg 0.00498 0.41391 0.65142 0.0
O88 O 0.99574 0.4559 0.70209 0.0
Mg89 Mg 0.01783 0.47867 0.83154 0.0
Mg90 Mg 0.01179 0.50911 0.64276 0.0
O91 O 0.02783 0.56236 0.58354 0.0
Mg92 Mg 0.01842 0.60425 0.63433 0.0
Mg93 Mg 0.00575 0.53959 0.45409 0.0
C94 C 0.96896 0.43802 0.47068 0.0
C95 C 0.08391 0.52511 0.50046 0.0
O96 O 0.9822 0.40856 0.86869 0.0
O97 O 0.96572 0.36653 0.73831 0.0
O98 O 0.07547 0.47294 0.81941 0.0
O99 O 0.06832 0.42921 0.70005 0.0
O100 O 0.97987 0.41403 0.51086 0.0
O101 O 0.97463 0.4725 0.51017 0.0
C102 C 0.93966 0.49312 0.78506 0.0
O103 O 0.95293 0.50602 0.70666 0.0
O104 O 0.95928 0.482 0.84067 0.0
O105 O 0.04133 0.60968 0.41703 0.0
O106 O 0.0576 0.65169 0.54738 0.0
O107 O 0.94805 0.54519 0.46615 0.0
C108 C 0.05942 0.64633 0.46105 0.0
O109 O 0.95494 0.5887 0.58568 0.0
O110 O 0.04377 0.60426 0.77491 0.0
C111 C 0.93418 0.5646 0.51375 0.0
O112 O 0.04889 0.54574 0.7753 0.0
O113 O 0.07063 0.51218 0.57885 0.0
O114 O 0.06432 0.53627 0.44493 0.0
C115 C 0.42785 0.03709 0.88645 0.0
C116 C 0.38473 0.9167 0.75393 0.0
C117 C 0.5481 0.95967 0.7638 0.0
Mg118 Mg 0.42349 0.00451 0.68598 0.0
O119 O 0.47798 0.01898 0.73052 0.0
Mg120 Mg 0.48394 0.98995 0.83697 0.0
Mg121 Mg 0.51189 0.00893 0.64427 0.0
O122 O 0.54569 0.99889 0.55785 0.0
Mg123 Mg 0.60015 0.01267 0.60071 0.0
Mg124 Mg 0.53945 0.02763 0.45109 0.0
C125 C 0.47598 0.05808 0.52403 0.0
C126 C 0.44761 0.94692 0.47188 0.0
O127 O 0.4519 0.02268 0.91188 0.0
O128 O 0.41376 0.03368 0.80296 0.0
O129 O 0.41893 0.93168 0.80485 0.0
O130 O 0.37977 0.93802 0.69317 0.0
O131 O 0.44173 0.04007 0.56413 0.0
O132 O 0.50736 0.05353 0.54695 0.0
C133 C 0.57571 0.07092 0.81695 0.0
O134 O 0.57013 0.06392 0.72934 0.0
O135 O 0.54808 0.04743 0.86897 0.0
O136 O 0.57007 0.99399 0.37551 0.0
O137 O 0.60813 0.98229 0.48323 0.0
O138 O 0.60482 0.08563 0.48195 0.0
C139 C 0.59341 0.97873 0.40021 0.0
O140 O 0.64432 0.07893 0.59221 0.0
O141 O 0.58219 0.97748 0.72308 0.0
C142 C 0.63924 0.10037 0.53194 0.0
O143 O 0.51679 0.9645 0.74146 0.0
O144 O 0.45347 0.95383 0.55948 0.0
O145 O 0.47507 0.97049 0.41971 0.0
C146 C 0.5294 0.5884 0.35105 0.0
C147 C 0.59744 0.52049 0.41397 0.0
C148 C 0.45396 0.41198 0.55688 0.0
Mg149 Mg 0.57804 0.58119 0.52231 0.0
O150 O 0.5222 0.53975 0.53195 0.0
Mg151 Mg 0.49562 0.49293 0.43206 0.0
Mg152 Mg 0.51158 0.50874 0.64262 0.0
O153 O 0.50111 0.47786 0.75414 0.0
Mg154 Mg 0.4451 0.43706 0.76392 0.0
Mg155 Mg 0.52685 0.52583 0.85215 0.0
C156 C 0.56923 0.60536 0.72894 0.0
C157 C 0.60282 0.53217 0.74202 0.0
O158 O 0.50481 0.54808 0.33949 0.0
O159 O 0.55982 0.60598 0.41367 0.0
O160 O 0.55794 0.49825 0.39394 0.0
O161 O 0.61307 0.5532 0.4703 0.0
O162 O 0.59016 0.61468 0.65774 0.0
O163 O 0.53608 0.56938 0.73366 0.0
C164 C 0.42009 0.4858 0.54471 0.0
O165 O 0.44232 0.49555 0.62187 0.0
O166 O 0.43471 0.48459 0.46864 0.0
O167 O 0.51693 0.4731 0.95001 0.0
O168 O 0.46137 0.41408 0.88017 0.0
O169 O 0.46418 0.52056 0.88712 0.0
C170 C 0.49098 0.43314 0.94435 0.0
O171 O 0.40955 0.46552 0.80988 0.0
O172 O 0.43381 0.40313 0.6293 0.0
C173 C 0.42478 0.49828 0.86589 0.0
O174 O 0.48683 0.44808 0.55011 0.0
O175 O 0.5808 0.52204 0.66442 0.0
O176 O 0.58801 0.53378 0.81767 0.0
C177 C 0.1803 0.56035 0.37152 0.0
C178 C 0.18567 0.52533 0.37222 0.0
H179 H 0.14376 0.58756 0.41248 0.0
C180 C 0.16073 0.49253 0.42669 0.0
H181 H 0.19894 0.5861 0.33064 0.0
C182 C 0.12964 0.49377 0.47545 0.0
C183 C 0.1224 0.52744 0.46914 0.0
H184 H 0.16438 0.46522 0.42941 0.0
H185 H 0.10961 0.46723 0.51303 0.0
C186 C 0.14873 0.56116 0.41859 0.0
C187 C 0.7422 0.16061 0.43128 0.0
C188 C 0.73418 0.18627 0.37539 0.0
H189 H 0.71883 0.11427 0.52924 0.0
C190 C 0.69901 0.19035 0.38923 0.0
H191 H 0.76932 0.15723 0.42339 0.0
C192 C 0.67014 0.16579 0.44998 0.0
C193 C 0.67602 0.137 0.49911 0.0
H194 H 0.69209 0.21024 0.34837 0.0
H195 H 0.64148 0.16685 0.4529 0.0
C196 C 0.71354 0.13644 0.49314 0.0
C197 C 0.49088 0.63659 0.1722 0.0
C198 C 0.50834 0.67776 0.21348 0.0
H199 H 0.48385 0.57521 0.18273 0.0
C200 C 0.52927 0.68773 0.30094 0.0
H201 H 0.4758 0.62883 0.1032 0.0
C202 C 0.53476 0.65804 0.34482 0.0
C203 C 0.51978 0.61741 0.30222 0.0
H204 H 0.54351 0.7194 0.33342 0.0
H205 H 0.55193 0.66759 0.4119 0.0
C206 C 0.49625 0.60632 0.21675 0.0
C207 C 0.88275 0.60336 0.352 0.0
C208 C 0.84958 0.56487 0.31166 0.0
H209 H 0.93515 0.63363 0.45385 0.0
C210 C 0.83909 0.52802 0.35577 0.0
H211 H 0.89133 0.63233 0.32058 0.0
C212 C 0.86373 0.52887 0.43211 0.0
C213 C 0.8991 0.56663 0.46734 0.0
H214 H 0.81323 0.4978 0.32811 0.0
H215 H 0.8573 0.49941 0.45853 0.0
C216 C 0.90727 0.60421 0.42954 0.0
C217 C 0.35275 0.8894 0.30327 0.0
C218 C 0.33872 0.84707 0.31728 0.0
H219 H 0.39823 0.95388 0.34178 0.0
C220 C 0.35899 0.83773 0.38861 0.0
H221 H 0.33791 0.89773 0.24899 0.0
C222 C 0.39309 0.87029 0.44383 0.0
C223 C 0.40782 0.91243 0.42681 0.0
H224 H 0.34863 0.8054 0.40138 0.0
H225 H 0.40901 0.86256 0.4969 0.0
C226 C 0.38717 0.9216 0.35658 0.0
C227 C 0.46632 0.34734 0.3701 0.0
C228 C 0.43399 0.30661 0.38383 0.0
H229 H 0.4972 0.41279 0.41172 0.0
C230 C 0.40387 0.30153 0.44373 0.0
H231 H 0.4892 0.35224 0.32164 0.0
C232 C 0.40847 0.3366 0.49573 0.0
C233 C 0.44296 0.37706 0.48733 0.0
H234 H 0.37828 0.27049 0.45387 0.0
H235 H 0.38626 0.33169 0.5458 0.0
C236 C 0.47063 0.38221 0.42084 0.0
C237 C 0.57449 0.88954 0.89421 0.0
C238 C 0.53488 0.85391 0.90052 0.0
H239 H 0.60947 0.95133 0.8506 0.0
C240 C 0.49892 0.85535 0.87061 0.0
H241 H 0.60299 0.89017 0.91819 0.0
C242 C 0.50281 0.89119 0.83186 0.0
C243 C 0.5427 0.92606 0.82271 0.0
H244 H 0.46796 0.82879 0.87632 0.0
H245 H 0.47472 0.89082 0.80553 0.0
C246 C 0.57831 0.92507 0.85639 0.0
C247 C 0.71105 0.58864 0.84874 0.0
C248 C 0.7171 0.55442 0.85966 0.0
H249 H 0.66911 0.60837 0.79622 0.0
C250 C 0.69126 0.51661 0.80464 0.0
H251 H 0.7305 0.6182 0.88945 0.0
C252 C 0.65638 0.51114 0.75041 0.0
C253 C 0.64699 0.54345 0.75025 0.0
H254 H 0.69561 0.48981 0.81013 0.0
H255 H 0.63412 0.48015 0.71832 0.0
C256 C 0.67614 0.58312 0.7944 0.0
C257 C 0.15357 0.62524 0.97142 0.0
C258 C 0.15062 0.65674 0.02198 0.0
H259 H 0.12387 0.57454 0.8656 0.0
C260 C 0.11192 0.65539 0.01927 0.0
H261 H 0.18295 0.62543 0.97286 0.0
C262 C 0.07844 0.62665 0.95865 0.0
C263 C 0.08283 0.59839 0.89988 0.0
H264 H 0.10842 0.67868 0.05933 0.0
H265 H 0.05033 0.62887 0.95239 0.0
C266 C 0.11966 0.59603 0.91057 0.0
C267 C 0.45 0.11744 0.0796 0.0
C268 C 0.42226 0.13144 0.05316 0.0
H269 H 0.4726 0.07558 0.04943 0.0
C270 C 0.39169 0.10959 0.98021 0.0
H271 H 0.47313 0.13311 0.13767 0.0
C272 C 0.39144 0.07645 0.92921 0.0
C273 C 0.42131 0.06443 0.95182 0.0
H274 H 0.3696 0.11948 0.9598 0.0
H275 H 0.36915 0.06155 0.86961 0.0
C276 C 0.44934 0.08407 0.02993 0.0
C277 C 0.38597 0.54808 0.04014 0.0
C278 C 0.34361 0.51692 0.03854 0.0
H279 H 0.44515 0.56674 0.9863 0.0
C280 C 0.3274 0.48254 0.97206 0.0
H281 H 0.3992 0.5749 0.09036 0.0
C282 C 0.35321 0.47805 0.91195 0.0
C283 C 0.39623 0.50754 0.9173 0.0
H284 H 0.29466 0.45827 0.96798 0.0
H285 H 0.33968 0.45027 0.8643 0.0
C286 C 0.41214 0.54328 0.9805 0.0
C287 C 0.86932 0.27222 0.88277 0.0
C288 C 0.87907 0.27191 0.97638 0.0
H289 H 0.88944 0.30385 0.76034 0.0
C290 C 0.91913 0.3014 0.01689 0.0
H291 H 0.83817 0.25045 0.85099 0.0
C292 C 0.94778 0.3331 0.96639 0.0
C293 C 0.93712 0.33493 0.87402 0.0
H294 H 0.92684 0.30233 0.08963 0.0
H295 H 0.97748 0.35722 1.00055 0.0
C296 C 0.89847 0.30303 0.83142 0.0
C297 C 0.84311 0.45755 0.91358 0.0
C298 C 0.8377 0.49255 0.91303 0.0
H299 H 0.87977 0.43049 0.87258 0.0
C300 C 0.86266 0.52543 0.85878 0.0
H301 H 0.82446 0.43174 0.95429 0.0
C302 C 0.89382 0.52432 0.8101 0.0
C303 C 0.90112 0.49067 0.81627 0.0
H304 H 0.85896 0.55272 0.85619 0.0
H305 H 0.91386 0.55091 0.77269 0.0
C306 C 0.87477 0.45687 0.86659 0.0
C307 C 0.2818 0.8568 0.85453 0.0
C308 C 0.28982 0.83126 0.91086 0.0
H309 H 0.30517 0.90286 0.75599 0.0
C310 C 0.3249 0.82702 0.89711 0.0
H311 H 0.25474 0.86029 0.86233 0.0
C312 C 0.35372 0.85134 0.83603 0.0
C313 C 0.34788 0.88006 0.78651 0.0
H314 H 0.3318 0.80721 0.93829 0.0
H315 H 0.38236 0.85023 0.83326 0.0
C316 C 0.31041 0.88073 0.79236 0.0
C317 C 0.4594 0.3396 0.07613 0.0
C318 C 0.49652 0.33782 0.08674 0.0
H319 H 0.42939 0.37222 0.02676 0.0
C320 C 0.53408 0.37219 0.06328 0.0
H321 H 0.42992 0.31458 0.09579 0.0
C322 C 0.53359 0.40616 0.02401 0.0
C323 C 0.49562 0.40602 0.0088 0.0
H324 H 0.5633 0.37222 0.07257 0.0
H325 H 0.56217 0.43105 1.00054 0.0
C326 C 0.45902 0.37312 0.03797 0.0
C327 C 0.13985 0.41407 0.93417 0.0
C328 C 0.17325 0.45247 0.97424 0.0
H329 H 0.08741 0.38406 0.8324 0.0
C330 C 0.18411 0.4893 0.92976 0.0
H331 H 0.13099 0.38511 0.96588 0.0
C332 C 0.15962 0.4886 0.85333 0.0
C333 C 0.12403 0.45098 0.81839 0.0
H334 H 0.21018 0.51945 0.95716 0.0
H335 H 0.16634 0.5181 0.82661 0.0
C336 C 0.11547 0.41336 0.85653 0.0
C337 C 0.66478 0.18007 0.89863 0.0
C338 C 0.68478 0.17083 0.9707 0.0
H339 H 0.6149 0.15511 0.79005 0.0
C340 C 0.67032 0.12857 0.98609 0.0
H341 H 0.67549 0.21237 0.88485 0.0
C342 C 0.63576 0.09632 0.93326 0.0
C343 C 0.61543 0.1054 0.86218 0.0
H344 H 0.68496 0.12034 0.04102 0.0
H345 H 0.62441 0.0641 0.94898 0.0
C346 C 0.63056 0.14745 0.84387 0.0
C347 C 0.55624 0.66596 0.92345 0.0
C348 C 0.58757 0.70722 0.91118 0.0
H349 H 0.52677 0.60117 0.87767 0.0
C350 C 0.61763 0.71415 0.84962 0.0
H351 H 0.53336 0.65984 0.97268 0.0
C352 C 0.61374 0.68024 0.79429 0.0
C353 C 0.58005 0.63919 0.80115 0.0
H354 H 0.64235 0.74577 0.84033 0.0
H355 H 0.63566 0.68653 0.74277 0.0
C356 C 0.55269 0.63225 0.86954 0.0
C357 C 0.52402 0.16126 0.41239 0.0
C358 C 0.48767 0.16132 0.37975 0.0
H359 H 0.54904 0.12761 0.48271 0.0
C360 C 0.44843 0.12497 0.38529 0.0
H361 H 0.5547 0.18839 0.40742 0.0
C362 C 0.44526 0.0903 0.42573 0.0
C363 C 0.48113 0.09082 0.46285 0.0
H364 H 0.41961 0.12311 0.35894 0.0
H365 H 0.41433 0.06353 0.43093 0.0
C366 C 0.52077 0.1262 0.45392 0.0
C367 C 0.31199 0.42931 0.43844 0.0
C368 C 0.30623 0.46363 0.42622 0.0
H369 H 0.35354 0.40945 0.49272 0.0
C370 C 0.33209 0.50157 0.48082 0.0
H371 H 0.2925 0.39964 0.39814 0.0
C372 C 0.36676 0.50701 0.53587 0.0
C373 C 0.37594 0.47456 0.53728 0.0
H374 H 0.32795 0.52845 0.47442 0.0
H375 H 0.3891 0.53807 0.5675 0.0
C376 C 0.34669 0.4348 0.49367 0.0
C377 C 0.87014 0.39283 0.31433 0.0
C378 C 0.87313 0.3613 0.26405 0.0
H379 H 0.89982 0.44366 0.4198 0.0
C380 C 0.91187 0.36273 0.26668 0.0
H381 H 0.84073 0.39257 0.31288 0.0
C382 C 0.94535 0.39159 0.3271 0.0
C383 C 0.94092 0.41985 0.38572 0.0
H384 H 0.9154 0.33942 0.22676 0.0
H385 H 0.97351 0.38943 0.33341 0.0
C386 C 0.90405 0.42215 0.37497 0.0
C387 C 0.62492 0.90278 0.30526 0.0
C388 C 0.59247 0.88003 0.23617 0.0
H389 H 0.65109 0.95293 0.41176 0.0
C390 C 0.56446 0.89407 0.21276 0.0
H391 H 0.64731 0.89295 0.32313 0.0
C392 C 0.56716 0.92874 0.26121 0.0
C393 C 0.59751 0.94965 0.33518 0.0
H394 H 0.53987 0.8778 0.15758 0.0
H395 H 0.54384 0.93745 0.2441 0.0
C396 C 0.62719 0.93718 0.35517 0.0
C397 C 0.63565 0.47026 0.23894 0.0
C398 C 0.67848 0.50038 0.2436 0.0
H399 H 0.57612 0.45289 0.2894 0.0
C400 C 0.69489 0.53416 0.31162 0.0
H401 H 0.62215 0.44395 0.18729 0.0
C402 C 0.66895 0.53915 0.37045 0.0
C403 C 0.62563 0.51077 0.36233 0.0
H404 H 0.72794 0.55762 0.31788 0.0
H405 H 0.68275 0.56644 0.41956 0.0
C406 C 0.60938 0.47555 0.29744 0.0
C407 C 0.10451 0.71678 0.26885 0.0
C408 C 0.14455 0.74625 0.30949 0.0
H409 H 0.0461 0.661 0.28505 0.0
C410 C 0.15419 0.74599 0.40318 0.0
H411 H 0.09687 0.71582 0.19605 0.0
C412 C 0.12495 0.71522 0.45449 0.0
C413 C 0.08634 0.68332 0.41177 0.0
H414 H 0.18532 0.76774 0.43507 0.0
H415 H 0.13391 0.71442 0.52563 0.0
C416 C 0.07578 0.68513 0.31931 0.0
loop_
_geom_bond_atom_site_label_1
_geom_bond_atom_site_label_2
_geom_bond_distance
_geom_bond_site_symmetry_2
_ccdc_geom_bond_type
C0 O2 1.247 . S
C0 O4 1.258 . S
C1 O8 1.247 . S
C1 O9 1.258 . S
O2 C0 1.247 . S
O2 Zn3 2.028 . S
Zn3 O2 2.028 . S
Zn3 O7 2.035 . S
Zn3 O9 2.035 . S
Zn3 O10 2.028 . S
O4 C0 1.258 . S
O4 Zn5 2.035 . S
Zn5 O4 2.035 . S
Zn5 O6 2.028 . S
Zn5 O8 2.028 . S
Zn5 O11 2.035 . S
O6 Zn5 2.028 . S
O6 C12 1.247 . S
O7 Zn3 2.035 . S
O7 C12 1.258 . S
O8 C1 1.247 . S
O8 Zn5 2.028 . S
O9 C1 1.258 . S
O9 Zn3 2.035 . S
O10 Zn3 2.028 . S
O10 C13 1.247 . S
O11 Zn5 2.035 . S
O11 C13 1.258 . S
C12 O6 1.247 . S
C12 O7 1.258 . S
C13 O10 1.247 . S
C13 O11 1.258 . S
C14 O16 1.247 . S
C14 O18 1.258 . S
C15 O22 1.247 . S
C15 O23 1.258 . S
O16 C14 1.247 . S
O16 Zn17 2.028 . S
Zn17 O16 2.028 . S
Zn17 O21 2.035 . S
Zn17 O23 2.035 . S
Zn17 O24 2.028 . S
O18 C14 1.258 . S
O18 Zn19 2.035 . S
Zn19 O18 2.035 . S
Zn19 O20 2.028 . S
Zn19 O22 2.028 . S
Zn19 O25 2.035 . S
O20 Zn19 2.028 . S
O20 C26 1.247 . S
O21 Zn17 2.035 . S
O21 C26 1.258 . S
O22 C15 1.247 . S
O22 Zn19 2.028 . S
O23 C15 1.258 . S
O23 Zn17 2.035 . S
O24 Zn17 2.028 . S
O24 C27 1.247 . S
O25 Zn19 2.035 . S
O25 C27 1.258 . S
C26 O20 1.247 . S
C26 O21 1.258 . S
C27 O24 1.247 . S
C27 O25 1.258 . S
C28 O30 1.247 . S
C28 O32 1.258 . S
C29 O36 1.247 . S
C29 O37 1.258 . S
O30 C28 1.247 . S
O30 Zn31 2.028 . S
Zn31 O30 2.028 . S
Zn31 O35 2.035 . S
Zn31 O37 2.035 1_554 S
Zn31 O38 2.028 1_554 S
O32 C28 1.258 . S
O32 Zn33 2.035 . S
Zn33 O32 2.035 . S
Zn33 O34 2.028 . S
Zn33 O36 2.028 1_554 S
Zn33 O39 2.035 1_554 S
O34 Zn33 2.028 . S
O34 C40 1.247 . S
O35 Zn31 2.035 . S
O35 C40 1.258 . S
O36 C29 1.247 . S
O36 Zn33 2.028 1_556 S
O37 C29 1.258 . S
O37 Zn31 2.035 1_556 S
O38 Zn31 2.028 1_556 S
O38 C41 1.247 . S
O39 Zn33 2.035 1_556 S
O39 C41 1.258 . S
C40 O34 1.247 . S
C40 O35 1.258 . S
C41 O38 1.247 . S
C41 O39 1.258 . S
C42 O44 1.247 . S
C42 O46 1.258 . S
C43 O50 1.247 . S
C43 O51 1.258 . S
O44 C42 1.247 . S
O44 Zn45 2.028 1_556 S
Zn45 O44 2.028 1_554 S
Zn45 O49 2.035 1_554 S
Zn45 O51 2.035 . S
Zn45 O52 2.028 . S
O46 C42 1.258 . S
O46 Zn47 2.035 1_556 S
Zn47 O46 2.035 1_554 S
Zn47 O48 2.028 1_554 S
Zn47 O50 2.028 . S
Zn47 O53 2.035 . S
O48 Zn47 2.028 1_556 S
O48 C54 1.247 . S
O49 Zn45 2.035 1_556 S
O49 C54 1.258 . S
O50 C43 1.247 . S
O50 Zn47 2.028 . S
O51 C43 1.258 . S
O51 Zn45 2.035 . S
O52 Zn45 2.028 . S
O52 C55 1.247 . S
O53 Zn47 2.035 . S
O53 C55 1.258 . S
C54 O48 1.247 . S
C54 O49 1.258 . S
C55 O52 1.247 . S
C55 O53 1.258 . S
C56 O58 1.247 . S
C56 O60 1.258 . S
C57 O64 1.247 . S
C57 O65 1.258 . S
O58 C56 1.247 . S
O58 Zn59 2.028 . S
Zn59 O58 2.028 . S
Zn59 O63 2.035 . S
Zn59 O65 2.035 . S
Zn59 O66 2.028 . S
O60 C56 1.258 . S
O60 Zn61 2.035 . S
Zn61 O60 2.035 . S
Zn61 O62 2.028 . S
Zn61 O64 2.028 . S
Zn61 O67 2.035 . S
O62 Zn61 2.028 . S
O62 C68 1.247 . S
O63 Zn59 2.035 . S
O63 C68 1.258 . S
O64 C57 1.247 . S
O64 Zn61 2.028 . S
O65 C57 1.258 . S
O65 Zn59 2.035 . S
O66 Zn59 2.028 . S
O66 C69 1.247 1_554 S
O67 Zn61 2.035 . S
O67 C69 1.258 1_554 S
C68 O62 1.247 . S
C68 O63 1.258 . S
C69 O66 1.247 1_556 S
C69 O67 1.258 1_556 S
C70 O72 1.247 . S
C70 O74 1.258 . S
C71 O78 1.247 . S
C71 O79 1.258 . S
O72 C70 1.247 . S
O72 Zn73 2.028 . S
Zn73 O72 2.028 . S
Zn73 O77 2.035 . S
Zn73 O79 2.035 . S
Zn73 O80 2.028 . S
O74 C70 1.258 . S
O74 Zn75 2.035 . S
Zn75 O74 2.035 . S
Zn75 O76 2.028 . S
Zn75 O78 2.028 . S
Zn75 O81 2.035 . S
O76 Zn75 2.028 . S
O76 C82 1.247 . S
O77 Zn73 2.035 . S
O77 C82 1.258 . S
O78 C71 1.247 . S
O78 Zn75 2.028 . S
O79 C71 1.258 . S
O79 Zn73 2.035 . S
O80 Zn73 2.028 . S
O80 C83 1.247 . S
O81 Zn75 2.035 . S
O81 C83 1.258 . S
C82 O76 1.247 . S
C82 O77 1.258 . S
C83 O80 1.247 . S
C83 O81 1.258 . S
C84 O96 1.241 . S
C84 O97 1.280 . S
C85 O98 1.277 . S
C85 O99 1.245 . S
C86 O110 1.247 . S
C86 O112 1.289 . S
Mg87 O88 1.926 . S
Mg87 O97 1.984 . S
Mg87 O99 1.988 1_655 S
Mg87 O100 2.061 . S
O88 Mg87 1.926 . S
O88 Mg89 1.986 1_655 S
O88 Mg90 1.917 1_655 S
Mg89 O88 1.986 1_455 S
Mg89 O96 2.042 1_455 S
Mg89 O98 2.041 . S
Mg89 O104 2.038 1_455 S
Mg89 O112 2.238 . S
Mg90 O88 1.917 1_455 S
Mg90 O91 1.917 . S
Mg90 O101 2.106 1_455 S
Mg90 O103 2.079 1_455 S
Mg90 O112 2.106 . S
Mg90 O113 2.079 . S
O91 Mg90 1.917 . S
O91 Mg92 1.926 . S
O91 Mg93 1.986 . S
Mg92 O91 1.926 . S
Mg92 O106 1.984 . S
Mg92 O109 1.988 1_455 S
Mg92 O110 2.061 . S
Mg93 O91 1.986 . S
Mg93 O101 2.238 1_455 S
Mg93 O105 2.042 . S
Mg93 O107 2.041 1_455 S
Mg93 O114 2.038 . S
C94 O100 1.247 . S
C94 O101 1.289 . S
C95 O113 1.245 . S
C95 O114 1.274 . S
O96 C84 1.241 . S
O96 Mg89 2.042 1_655 S
O97 C84 1.280 . S
O97 Mg87 1.984 . S
O98 C85 1.277 . S
O98 Mg89 2.041 . S
O99 C85 1.245 . S
O99 Mg87 1.988 1_455 S
O100 Mg87 2.061 . S
O100 C94 1.247 . S
O101 Mg90 2.106 1_655 S
O101 Mg93 2.238 1_655 S
O101 C94 1.289 . S
C102 O103 1.245 . S
C102 O104 1.274 . S
O103 Mg90 2.079 1_655 S
O103 C102 1.245 . S
O104 Mg89 2.038 1_655 S
O104 C102 1.274 . S
O105 Mg93 2.042 . S
O105 C108 1.241 . S
O106 Mg92 1.984 . S
O106 C108 1.280 . S
O107 Mg93 2.041 1_655 S
O107 C111 1.277 . S
C108 O105 1.241 . S
C108 O106 1.280 . S
O109 Mg92 1.988 1_655 S
O109 C111 1.245 . S
O110 C86 1.247 . S
O110 Mg92 2.061 . S
C111 O107 1.277 . S
C111 O109 1.245 . S
O112 C86 1.289 . S
O112 Mg89 2.238 . S
O112 Mg90 2.106 . S
O113 Mg90 2.079 . S
O113 C95 1.245 . S
O114 Mg93 2.038 . S
O114 C95 1.274 . S
C115 O127 1.241 . S
C115 O128 1.280 . S
C116 O129 1.277 . S
C116 O130 1.245 . S
C117 O141 1.247 . S
C117 O143 1.289 . S
Mg118 O119 1.926 . S
Mg118 O128 1.984 . S
Mg118 O130 1.988 1_545 S
Mg118 O131 2.061 . S
O119 Mg118 1.926 . S
O119 Mg120 1.986 . S
O119 Mg121 1.917 . S
Mg120 O119 1.986 . S
Mg120 O127 2.042 . S
Mg120 O129 2.041 1_545 S
Mg120 O135 2.038 . S
Mg120 O143 2.238 1_545 S
Mg121 O119 1.917 . S
Mg121 O122 1.917 1_545 S
Mg121 O132 2.106 . S
Mg121 O134 2.079 . S
Mg121 O143 2.106 1_545 S
Mg121 O144 2.079 1_545 S
O122 Mg121 1.917 1_565 S
O122 Mg123 1.926 . S
O122 Mg124 1.986 1_565 S
Mg123 O122 1.926 . S
Mg123 O137 1.984 . S
Mg123 O140 1.988 1_565 S
Mg123 O141 2.061 . S
Mg124 O122 1.986 1_545 S
Mg124 O132 2.238 . S
Mg124 O136 2.042 1_545 S
Mg124 O138 2.041 . S
Mg124 O145 2.038 1_545 S
C125 O131 1.247 . S
C125 O132 1.289 . S
C126 O144 1.245 . S
C126 O145 1.274 . S
O127 C115 1.241 . S
O127 Mg120 2.042 . S
O128 C115 1.280 . S
O128 Mg118 1.984 . S
O129 C116 1.277 . S
O129 Mg120 2.041 1_565 S
O130 C116 1.245 . S
O130 Mg118 1.988 1_565 S
O131 Mg118 2.061 . S
O131 C125 1.247 . S
O132 Mg121 2.106 . S
O132 Mg124 2.238 . S
O132 C125 1.289 . S
C133 O134 1.245 . S
C133 O135 1.274 . S
O134 Mg121 2.079 . S
O134 C133 1.245 . S
O135 Mg120 2.038 . S
O135 C133 1.274 . S
O136 Mg124 2.042 1_565 S
O136 C139 1.241 . S
O137 Mg123 1.984 . S
O137 C139 1.280 . S
O138 Mg124 2.041 . S
O138 C142 1.277 . S
C139 O136 1.241 . S
C139 O137 1.280 . S
O140 Mg123 1.988 1_545 S
O140 C142 1.245 . S
O141 C117 1.247 . S
O141 Mg123 2.061 . S
C142 O138 1.277 . S
C142 O140 1.245 . S
O143 C117 1.289 . S
O143 Mg120 2.238 1_565 S
O143 Mg121 2.106 1_565 S
O144 Mg121 2.079 1_565 S
O144 C126 1.245 . S
O145 Mg124 2.038 1_565 S
O145 C126 1.274 . S
C146 O158 1.241 . S
C146 O159 1.280 . S
C147 O160 1.277 . S
C147 O161 1.245 . S
C148 O172 1.247 . S
C148 O174 1.289 . S
Mg149 O150 1.926 . S
Mg149 O159 1.984 . S
Mg149 O161 1.988 . S
Mg149 O162 2.061 . S
O150 Mg149 1.926 . S
O150 Mg151 1.986 . S
O150 Mg152 1.917 . S
Mg151 O150 1.986 . S
Mg151 O158 2.042 . S
Mg151 O160 2.041 . S
Mg151 O166 2.038 . S
Mg151 O174 2.238 . S
Mg152 O150 1.917 . S
Mg152 O153 1.917 . S
Mg152 O163 2.106 . S
Mg152 O165 2.079 . S
Mg152 O174 2.106 . S
Mg152 O175 2.079 . S
O153 Mg152 1.917 . S
O153 Mg154 1.926 . S
O153 Mg155 1.986 . S
Mg154 O153 1.926 . S
Mg154 O168 1.984 . S
Mg154 O171 1.988 . S
Mg154 O172 2.061 . S
Mg155 O153 1.986 . S
Mg155 O163 2.238 . S
Mg155 O167 2.042 . S
Mg155 O169 2.041 . S
Mg155 O176 2.038 . S
C156 O162 1.247 . S
C156 O163 1.289 . S
C157 O175 1.245 . S
C157 O176 1.274 . S
O158 C146 1.241 . S
O158 Mg151 2.042 . S
O159 C146 1.280 . S
O159 Mg149 1.984 . S
O160 C147 1.277 . S
O160 Mg151 2.041 . S
O161 C147 1.245 . S
O161 Mg149 1.988 . S
O162 Mg149 2.061 . S
O162 C156 1.247 . S
O163 Mg152 2.106 . S
O163 Mg155 2.238 . S
O163 C156 1.289 . S
C164 O165 1.245 . S
C164 O166 1.274 . S
O165 Mg152 2.079 . S
O165 C164 1.245 . S
O166 Mg151 2.038 . S
O166 C164 1.274 . S
O167 Mg155 2.042 . S
O167 C170 1.241 . S
O168 Mg154 1.984 . S
O168 C170 1.280 . S
O169 Mg155 2.041 . S
O169 C173 1.277 . S
C170 O167 1.241 . S
C170 O168 1.280 . S
O171 Mg154 1.988 . S
O171 C173 1.245 . S
O172 C148 1.247 . S
O172 Mg154 2.061 . S
C173 O169 1.277 . S
C173 O171 1.245 . S
O174 C148 1.289 . S
O174 Mg151 2.238 . S
O174 Mg152 2.106 . S
O175 Mg152 2.079 . S
O175 C157 1.245 . S
O176 Mg155 2.038 . S
O176 C157 1.274 . S
C177 C178 1.387 . S
C177 H181 0.950 . S
C177 C186 1.390 . S
C178 C177 1.387 . S
C178 C180 1.387 . S
H179 C186 0.950 . S
C180 C178 1.387 . S
C180 C182 1.390 . S
C180 H184 0.950 . S
H181 C177 0.950 . S
C182 C180 1.390 . S
C182 C183 1.387 . S
C182 H185 0.950 . S
C183 C182 1.387 . S
C183 C186 1.387 . S
H184 C180 0.950 . S
H185 C182 0.950 . S
C186 C177 1.390 . S
C186 H179 0.950 . S
C186 C183 1.387 . S
C187 C188 1.387 . S
C187 H191 0.950 . S
C187 C196 1.390 . S
C188 C187 1.387 . S
C188 C190 1.387 . S
H189 C196 0.950 . S
C190 C188 1.387 . S
C190 C192 1.390 . S
C190 H194 0.950 . S
H191 C187 0.950 . S
C192 C190 1.390 . S
C192 C193 1.387 . S
C192 H195 0.950 . S
C193 C192 1.387 . S
C193 C196 1.387 . S
H194 C190 0.950 . S
H195 C192 0.950 . S
C196 C187 1.390 . S
C196 H189 0.950 . S
C196 C193 1.387 . S
C197 C198 1.387 . S
C197 H201 0.950 . S
C197 C206 1.390 . S
C198 C197 1.387 . S
C198 C200 1.387 . S
H199 C206 0.950 . S
C200 C198 1.387 . S
C200 C202 1.390 . S
C200 H204 0.950 . S
H201 C197 0.950 . S
C202 C200 1.390 . S
C202 C203 1.387 . S
C202 H205 0.950 . S
C203 C202 1.387 . S
C203 C206 1.387 . S
H204 C200 0.950 . S
H205 C202 0.950 . S
C206 C197 1.390 . S
C206 H199 0.950 . S
C206 C203 1.387 . S
C207 C208 1.387 . S
C207 H211 0.950 . S
C207 C216 1.390 . S
C208 C207 1.387 . S
C208 C210 1.387 . S
H209 C216 0.950 . S
C210 C208 1.387 . S
C210 C212 1.390 . S
C210 H214 0.950 . S
H211 C207 0.950 . S
C212 C210 1.390 . S
C212 C213 1.387 . S
C212 H215 0.950 . S
C213 C212 1.387 . S
C213 C216 1.387 . S
H214 C210 0.950 . S
H215 C212 0.950 . S
C216 C207 1.390 . S
C216 H209 0.950 . S
C216 C213 1.387 . S
C217 C218 1.387 . S
C217 H221 0.950 . S
C217 C226 1.390 . S
C218 C217 1.387 . S
C218 C220 1.387 . S
H219 C226 0.950 . S
C220 C218 1.387 . S
C220 C222 1.390 . S
C220 H224 0.950 . S
H221 C217 0.950 . S
C222 C220 1.390 . S
C222 C223 1.387 . S
C222 H225 0.950 . S
C223 C222 1.387 . S
C223 C226 1.387 . S
H224 C220 0.950 . S
H225 C222 0.950 . S
C226 C217 1.390 . S
C226 H219 0.950 . S
C226 C223 1.387 . S
C227 C228 1.387 . S
C227 H231 0.950 . S
C227 C236 1.390 . S
C228 C227 1.387 . S
C228 C230 1.387 . S
H229 C236 0.950 . S
C230 C228 1.387 . S
C230 C232 1.390 . S
C230 H234 0.950 . S
H231 C227 0.950 . S
C232 C230 1.390 . S
C232 C233 1.387 . S
C232 H235 0.950 . S
C233 C232 1.387 . S
C233 C236 1.387 . S
H234 C230 0.950 . S
H235 C232 0.950 . S
C236 C227 1.390 . S
C236 H229 0.950 . S
C236 C233 1.387 . S
C237 C238 1.387 . S
C237 H241 0.950 . S
C237 C246 1.390 . S
C238 C237 1.387 . S
C238 C240 1.387 . S
H239 C246 0.950 . S
C240 C238 1.387 . S
C240 C242 1.390 . S
C240 H244 0.950 . S
H241 C237 0.950 . S
C242 C240 1.390 . S
C242 C243 1.387 . S
C242 H245 0.950 . S
C243 C242 1.387 . S
C243 C246 1.387 . S
H244 C240 0.950 . S
H245 C242 0.950 . S
C246 C237 1.390 . S
C246 H239 0.950 . S
C246 C243 1.387 . S
C247 C248 1.387 . S
C247 H251 0.950 . S
C247 C256 1.390 . S
C248 C247 1.387 . S
C248 C250 1.387 . S
H249 C256 0.950 . S
C250 C248 1.387 . S
C250 C252 1.390 . S
C250 H254 0.950 . S
H251 C247 0.950 . S
C252 C250 1.390 . S
C252 C253 1.387 . S
C252 H255 0.950 . S
C253 C252 1.387 . S
C253 C256 1.387 . S
H254 C250 0.950 . S
H255 C252 0.950 . S
C256 C247 1.390 . S
C256 H249 0.950 . S
C256 C253 1.387 . S
C257 C258 1.387 . S
C257 H261 0.941 1_556 S
C257 C266 1.390 . S
C258 C257 1.387 . S
C258 C260 1.387 . S
H259 C266 0.950 . S
C260 C258 1.387 . S
C260 C262 1.390 . S
C260 H264 0.950 . S
H261 C257 0.941 1_554 S
C262 C260 1.390 . S
C262 C263 1.387 . S
C262 H265 0.950 . S
C263 C262 1.387 . S
C263 C266 1.387 . S
H264 C260 0.950 . S
H265 C262 0.950 . S
C266 C257 1.390 . S
C266 H259 0.950 . S
C266 C263 1.387 . S
C267 C268 1.387 . S
C267 H271 0.950 . S
C267 C276 1.390 1_554 S
C268 C267 1.387 . S
C268 C270 1.387 . S
H269 C276 0.950 . S
C270 C268 1.387 . S
C270 C272 1.390 . S
C270 H274 0.950 . S
H271 C267 0.950 . S
C272 C270 1.390 . S
C272 C273 1.387 1_554 S
C272 H275 0.950 1_554 S
C273 C272 1.387 1_556 S
C273 C276 1.387 . S
H274 C270 0.950 . S
H275 C272 0.950 1_556 S
C276 C267 1.390 1_556 S
C276 H269 0.950 . S
C276 C273 1.387 . S
C277 C278 1.387 1_556 S
C277 H281 0.950 1_556 S
C277 C286 1.390 . S
C278 C277 1.387 1_554 S
C278 C280 1.387 1_554 S
H279 C286 0.950 . S
C280 C278 1.387 1_556 S
C280 C282 1.390 . S
C280 H284 0.950 . S
H281 C277 0.950 1_554 S
C282 C280 1.390 . S
C282 C283 1.387 . S
C282 H285 0.950 . S
C283 C282 1.387 . S
C283 C286 1.387 . S
H284 C280 0.950 . S
H285 C282 0.950 . S
C286 C277 1.390 . S
C286 H279 0.950 . S
C286 C283 1.387 . S
C287 C288 1.387 1_556 S
C287 H291 0.950 . S
C287 C296 1.390 . S
C288 C287 1.387 1_554 S
C288 C290 1.387 1_554 S
H289 C296 0.950 . S
C290 C288 1.387 1_556 S
C290 C292 1.390 . S
C290 H294 0.950 1_556 S
H291 C287 0.950 . S
C292 C290 1.390 . S
C292 C293 1.387 . S
C292 H295 0.950 . S
C293 C292 1.387 . S
C293 C296 1.387 . S
H294 C290 0.950 1_554 S
H295 C292 0.950 . S
C296 C287 1.390 . S
C296 H289 0.950 . S
C296 C293 1.387 . S
C297 C298 1.387 . S
C297 H301 0.950 . S
C297 C306 1.390 . S
C298 C297 1.387 . S
C298 C300 1.387 . S
H299 C306 0.950 . S
C300 C298 1.387 . S
C300 C302 1.390 . S
C300 H304 0.950 . S
H301 C297 0.950 . S
C302 C300 1.390 . S
C302 C303 1.387 . S
C302 H305 0.950 . S
C303 C302 1.387 . S
C303 C306 1.387 . S
H304 C300 0.950 . S
H305 C302 0.950 . S
C306 C297 1.390 . S
C306 H299 0.950 . S
C306 C303 1.387 . S
C307 C308 1.387 . S
C307 H311 0.950 1_556 S
C307 C316 1.390 . S
C308 C307 1.387 . S
C308 C310 1.387 . S
H309 C316 0.950 . S
C310 C308 1.387 . S
C310 C312 1.390 . S
C310 H314 0.950 . S
H311 C307 0.950 1_554 S
C312 C310 1.390 . S
C312 C313 1.387 . S
C312 H315 0.950 . S
C313 C312 1.387 . S
C313 C316 1.387 . S
H314 C310 0.950 . S
H315 C312 0.950 . S
C316 C307 1.390 . S
C316 H309 0.950 . S
C316 C313 1.387 . S
C317 C318 1.387 . S
C317 H321 0.950 . S
C317 C326 1.390 . S
C318 C317 1.387 . S
C318 C320 1.387 . S
H319 C326 0.950 . S
C320 C318 1.387 . S
C320 C322 1.390 1_554 S
C320 H324 0.950 . S
H321 C317 0.950 . S
C322 C320 1.390 1_556 S
C322 C323 1.387 . S
C322 H325 0.950 . S
C323 C322 1.387 . S
C323 C326 1.387 1_556 S
H324 C320 0.950 . S
H325 C322 0.950 . S
C326 C317 1.390 . S
C326 H319 0.950 . S
C326 C323 1.387 1_554 S
C327 C328 1.387 1_556 S
C327 H331 0.950 . S
C327 C336 1.390 . S
C328 C327 1.387 1_554 S
C328 C330 1.387 . S
H329 C336 0.950 . S
C330 C328 1.387 . S
C330 C332 1.390 1_554 S
C330 H334 0.950 . S
H331 C327 0.950 . S
C332 C330 1.390 1_556 S
C332 C333 1.387 . S
C332 H335 0.950 . S
C333 C332 1.387 . S
C333 C336 1.387 . S
H334 C330 0.950 . S
H335 C332 0.950 . S
C336 C327 1.390 . S
C336 H329 0.950 . S
C336 C333 1.387 . S
C337 C338 1.387 . S
C337 H341 0.950 . S
C337 C346 1.390 . S
C338 C337 1.387 . S
C338 C340 1.387 . S
H339 C346 0.950 . S
C340 C338 1.387 . S
C340 C342 1.390 . S
C340 H344 0.950 1_556 S
H341 C337 0.950 . S
C342 C340 1.390 . S
C342 C343 1.387 . S
C342 H345 0.950 . S
C343 C342 1.387 . S
C343 C346 1.387 . S
H344 C340 0.950 1_554 S
H345 C342 0.950 . S
C346 C337 1.390 . S
C346 H339 0.950 . S
C346 C343 1.387 . S
C347 C348 1.387 . S
C347 H351 0.950 . S
C347 C356 1.390 . S
C348 C347 1.387 . S
C348 C350 1.387 . S
H349 C356 0.950 . S
C350 C348 1.387 . S
C350 C352 1.390 . S
C350 H354 0.950 . S
H351 C347 0.950 . S
C352 C350 1.390 . S
C352 C353 1.387 . S
C352 H355 0.950 . S
C353 C352 1.387 . S
C353 C356 1.387 . S
H354 C350 0.950 . S
H355 C352 0.950 . S
C356 C347 1.390 . S
C356 H349 0.950 . S
C356 C353 1.387 . S
C357 C358 1.387 . S
C357 H361 0.950 . S
C357 C366 1.390 . S
C358 C357 1.387 . S
C358 C360 1.387 . S
H359 C366 0.950 . S
C360 C358 1.387 . S
C360 C362 1.390 . S
C360 H364 0.950 . S
H361 C357 0.950 . S
C362 C360 1.390 . S
C362 C363 1.387 . S
C362 H365 0.950 . S
C363 C362 1.387 . S
C363 C366 1.387 . S
H364 C360 0.950 . S
H365 C362 0.950 . S
C366 C357 1.390 . S
C366 H359 0.950 . S
C366 C363 1.387 . S
C367 C368 1.387 . S
C367 H371 0.950 . S
C367 C376 1.390 . S
C368 C367 1.387 . S
C368 C370 1.387 . S
H369 C376 0.950 . S
C370 C368 1.387 . S
C370 C372 1.390 . S
C370 H374 0.950 . S
H371 C367 0.950 . S
C372 C370 1.390 . S
C372 C373 1.387 . S
C372 H375 0.950 . S
C373 C372 1.387 . S
C373 C376 1.387 . S
H374 C370 0.950 . S
H375 C372 0.950 . S
C376 C367 1.390 . S
C376 H369 0.950 . S
C376 C373 1.387 . S
C377 C378 1.387 . S
C377 H381 0.950 . S
C377 C386 1.390 . S
C378 C377 1.387 . S
C378 C380 1.387 . S
H379 C386 0.950 . S
C380 C378 1.387 . S
C380 C382 1.390 . S
C380 H384 0.950 . S
H381 C377 0.950 . S
C382 C380 1.390 . S
C382 C383 1.387 . S
C382 H385 0.950 . S
C383 C382 1.387 . S
C383 C386 1.387 . S
H384 C380 0.950 . S
H385 C382 0.950 . S
C386 C377 1.390 . S
C386 H379 0.950 . S
C386 C383 1.387 . S
C387 C388 1.387 . S
C387 H391 0.950 . S
C387 C396 1.390 . S
C388 C387 1.387 . S
C388 C390 1.387 . S
H389 C396 0.950 . S
C390 C388 1.387 . S
C390 C392 1.390 . S
C390 H394 0.950 . S
H391 C387 0.950 . S
C392 C390 1.390 . S
C392 C393 1.387 . S
C392 H395 0.950 . S
C393 C392 1.387 . S
C393 C396 1.387 . S
H394 C390 0.950 . S
H395 C392 0.950 . S
C396 C387 1.390 . S
C396 H389 0.950 . S
C396 C393 1.387 . S
C397 C398 1.387 . S
C397 H401 0.950 . S
C397 C406 1.390 . S
C398 C397 1.387 . S
C398 C400 1.387 . S
H399 C406 0.950 . S
C400 C398 1.387 . S
C400 C402 1.390 . S
C400 H404 0.950 . S
H401 C397 0.950 . S
C402 C400 1.390 . S
C402 C403 1.387 . S
C402 H405 0.950 . S
C403 C402 1.387 . S
C403 C406 1.387 . S
H404 C400 0.950 . S
H405 C402 0.950 . S
C406 C397 1.390 . S
C406 H399 0.950 . S
C406 C403 1.387 . S
C407 C408 1.387 . S
C407 H411 0.950 . S
C407 C416 1.390 . S
C408 C407 1.387 . S
C408 C410 1.387 . S
H409 C416 0.950 . S
C410 C408 1.387 . S
C410 C412 1.390 . S
C410 H414 0.950 . S
H411 C407 0.950 . S
C412 C410 1.390 . S
C412 C413 1.387 . S
C412 H415 0.950 . S
C413 C412 1.387 . S
C413 C416 1.387 . S
H414 C410 0.950 . S
H415 C412 0.950 . S
C416 C407 1.390 . S
C416 H409 0.950 . S
C416 C413 1.387 . S
C178 C1 1.814 . S
C183 C95 1.735 . S
C188 C27 1.523 . S
C193 C142 1.488 . S
C203 C146 1.616 . S
C198 C40 1.677 . S
C213 C111 1.413 . S
C208 C55 1.455 . S
C218 C68 1.750 . S
C223 C126 1.668 . S
C233 C148 1.140 . S
C228 C70 1.179 . S
C243 C117 1.480 . S
C238 C41 1.545 . S
C248 C54 1.435 . S
C253 C157 1.391 . S
C263 C86 1.399 . S
C258 C69 1.468 . S
C268 C71 1.375 . S
C273 C115 1.332 . S
C278 C0 1.770 . S
C283 C173 1.711 . S
C293 C84 1.406 . S
C288 C26 1.449 . S
C303 C102 1.738 . S
C298 C42 1.815 . S
C313 C116 1.489 . S
C308 C57 1.523 1_556 S
C323 C170 1.618 . S
C318 C83 1.678 . S
C333 C85 1.410 . S
C328 C12 1.454 . S
C343 C133 1.669 . S
C338 C14 1.753 1_556 S
C348 C29 1.178 . S
C353 C156 1.140 . S
C363 C125 1.480 . S
C358 C82 1.545 . S
C373 C164 1.388 . S
C368 C13 1.435 . S
C383 C94 1.399 . S
C378 C15 1.467 . S
C393 C139 1.330 . S
C388 C28 1.374 . S
C398 C43 1.771 . S
C403 C147 1.713 . S
C408 C56 1.450 . S
C413 C108 1.406 . S
