# Generated by pormake.
# Topology pth, (4,4)-cn, num edge types: 1
# Building blocks:
#     Node 0, Type 0, BuildingBlock: UXUYUI_clean_sbu_0, # of connection points: 4
#     Node 1, Type 0, BuildingBlock: UXUYUI_clean_sbu_0, # of connection points: 4
#     Node 2, Type 0, BuildingBlock: UXUYUI_clean_sbu_0, # of connection points: 4
#     Node 3, Type 1, BuildingBlock: MUDLON_clean_sbu_0, # of connection points: 4
#     Node 4, Type 1, BuildingBlock: MUDLON_clean_sbu_0, # of connection points: 4
#     Node 5, Type 1, BuildingBlock: MUDLON_clean_sbu_0, # of connection points: 4
#     Edge 6, Type (0, 1), BuildingBlock: ZUJKAS_clean_linker_0, # of connection points: 2
#     Edge 7, Type (0, 1), BuildingBlock: ZUJKAS_clean_linker_0, # of connection points: 2
#     Edge 8, Type (0, 1), BuildingBlock: ZUJKAS_clean_linker_0, # of connection points: 2
#     Edge 9, Type (0, 1), BuildingBlock: ZUJKAS_clean_linker_0, # of connection points: 2
#     Edge 10, Type (0, 1), BuildingBlock: ZUJKAS_clean_linker_0, # of connection points: 2
#     Edge 11, Type (0, 1), BuildingBlock: ZUJKAS_clean_linker_0, # of connection points: 2
#     Edge 12, Type (0, 1), BuildingBlock: ZUJKAS_clean_linker_0, # of connection points: 2
#     Edge 13, Type (0, 1), BuildingBlock: ZUJKAS_clean_linker_0, # of connection points: 2
#     Edge 14, Type (0, 1), BuildingBlock: ZUJKAS_clean_linker_0, # of connection points: 2
#     Edge 15, Type (0, 1), BuildingBlock: ZUJKAS_clean_linker_0, # of connection points: 2
#     Edge 16, Type (0, 1), BuildingBlock: ZUJKAS_clean_linker_0, # of connection points: 2
#     Edge 17, Type (0, 1), BuildingBlock: ZUJKAS_clean_linker_0, # of connection points: 2
# Relax obj value: 0.110
# Max RMSD: 0.229
# Mean RMSD: 0.139
data_MOF--net-pth--node1-UXUYUI_clean_sbu_0--node2-MUDLON_clean_sbu_0--edge1-ZUJKAS_clean_linker_0
_symmetry_space_group_name_H-M    P1
_symmetry_Int_Tables_number       1
_symmetry_cell_setting            triclinic
loop_
_symmetry_equiv_pos_as_xyz
'x, y, z'
_cell_length_a     34.387078
_cell_length_b     34.356081
_cell_length_c     91.173428
_cell_angle_alpha  90.005804
_cell_angle_beta   89.871619
_cell_angle_gamma 120.04286
loop_
_atom_site_label
_atom_site_type_symbol
_atom_site_fract_x
_atom_site_fract_y
_atom_site_fract_z
_atom_type_partial_charge
Li0 Li 0.04955 0.0361 0.07936 0.0
Li1 Li 0.99897 0.03962 0.09768 0.0
Li2 Li 0.0187 0.97804 0.09784 0.0
Li3 Li 0.9672 0.97856 0.07912 0.0
C4 C 0.10193 0.07749 0.10182 0.0
N5 N 0.19032 0.14614 0.10271 0.0
C6 C 0.11215 0.1212 0.10532 0.0
C7 C 0.13665 0.06857 0.09893 0.0
C8 C 0.15707 0.15548 0.10568 0.0
C9 C 0.18112 0.10377 0.09938 0.0
C10 C 0.97639 0.06711 0.07097 0.0
C11 C 0.90884 0.07004 0.06637 0.0
N12 N 0.93404 0.112 0.06064 0.0
C13 C 1.00155 0.11002 0.06485 0.0
C14 C 0.92961 0.04675 0.07159 0.0
C15 C 0.97955 0.13227 0.05976 0.0
C16 C 0.11501 0.05115 0.05772 0.0
N17 N 0.09984 0.07183 0.06691 0.0
C18 C 0.15397 0.1439 0.05746 0.0
C19 C 0.11863 0.1173 0.06699 0.0
C20 C 0.17005 0.12351 0.04768 0.0
C21 C 0.15029 0.07645 0.048 0.0
H22 H 0.09926 0.01492 0.05777 0.0
H23 H 0.10571 0.13289 0.07432 0.0
C24 C 0.96961 0.06252 0.12341 0.0
N25 N 0.98709 0.07786 0.10984 0.0
C26 C 0.96065 0.08908 0.13286 0.0
C27 C 0.98878 0.14729 0.11436 0.0
C28 C 0.99703 0.1195 0.10524 0.0
C29 C 0.97033 0.13221 0.1284 0.0
H30 H 0.96263 0.02955 0.12689 0.0
H31 H 0.0122 0.13155 0.09461 0.0
C32 C 0.02501 0.9334 0.07498 0.0
N33 N 0.03467 0.85843 0.07306 0.0
C34 C 0.98836 0.89178 0.07112 0.0
C35 C 0.06666 0.937 0.07771 0.0
C36 C 0.99393 0.85425 0.07024 0.0
C37 C 0.07083 0.89867 0.07674 0.0
C38 C 0.91608 0.95168 0.10599 0.0
C39 C 0.89815 0.90882 0.11216 0.0
C40 C 0.88982 0.97221 0.10536 0.0
C41 C 0.85395 0.88688 0.11735 0.0
C42 C 0.84578 0.94919 0.11068 0.0
N43 N 0.82888 0.90733 0.11649 0.0
C44 C 0.06494 0.95899 0.11986 0.0
C45 C 1.00305 0.89453 0.10952 0.0
C46 C 0.07377 0.93208 0.1292 0.0
N47 N 0.03009 0.93992 0.11026 0.0
C48 C 0.01076 0.86635 0.1186 0.0
C49 C 0.04644 0.88505 0.12866 0.0
H50 H 0.08576 0.99515 0.12033 0.0
H51 H 0.97526 0.88016 0.10192 0.0
C52 C 0.9258 0.95476 0.05183 0.0
N53 N 0.918 0.94345 0.06626 0.0
C54 C 0.89281 0.93041 0.04137 0.0
C55 C 0.84396 0.88356 0.06082 0.0
C56 C 0.87806 0.90857 0.07089 0.0
C57 C 0.85128 0.89416 0.04582 0.0
H58 H 0.95794 0.98256 0.04845 0.0
H59 H 0.87272 0.8995 0.08234 0.0
O60 O 0.05815 0.04363 0.10119 0.0
O61 O 0.99749 0.04486 0.07596 0.0
O62 O 0.0201 0.97042 0.07605 0.0
O63 O 0.95934 0.97358 0.10085 0.0
H64 H 0.08571 0.12865 0.10763 0.0
H65 H 0.1293 0.0349 0.09624 0.0
H66 H 0.16547 0.18952 0.1083 0.0
H67 H 0.20832 0.09742 0.09707 0.0
H68 H 0.87266 0.05468 0.06682 0.0
H69 H 0.03772 0.12614 0.0641 0.0
H70 H 0.90942 0.01315 0.07588 0.0
H71 H 0.99867 0.16562 0.0551 0.0
H72 H 0.1676 0.17995 0.05747 0.0
H73 H 0.16184 0.05929 0.04077 0.0
H74 H 0.94609 0.07582 0.14352 0.0
H75 H 0.99775 0.18062 0.11056 0.0
H76 H 0.9559 0.88839 0.06895 0.0
H77 H 0.09537 0.96897 0.08068 0.0
H78 H 0.96581 0.82178 0.06734 0.0
H79 H 0.10279 0.9009 0.07893 0.0
H80 H 0.91804 0.89256 0.11288 0.0
H81 H 0.90336 0.00575 0.10098 0.0
H82 H 0.8396 0.8536 0.12207 0.0
H83 H 0.82511 0.96469 0.11023 0.0
H84 H 0.10184 0.94794 0.1367 0.0
H85 H 0.98841 0.83034 0.11796 0.0
H86 H 0.89972 0.93983 0.02992 0.0
H87 H 0.81267 0.85541 0.06468 0.0
Li88 Li 0.99149 0.9618 0.41092 0.0
Li89 Li 0.04358 0.01354 0.42974 0.0
Li90 Li 0.96146 0.99135 0.42948 0.0
Li91 Li 0.01408 0.04413 0.41119 0.0
C92 C 0.97914 0.91014 0.43547 0.0
N93 N 0.95874 0.82289 0.44112 0.0
C94 C 0.01278 0.90129 0.43997 0.0
C95 C 0.93501 0.8747 0.43405 0.0
C96 C 1.00182 0.85693 0.44273 0.0
C97 C 0.92541 0.8308 0.43689 0.0
C98 C 0.09513 0.02897 0.40436 0.0
C99 C 0.1731 0.08642 0.40232 0.0
N100 N 0.18292 0.05534 0.397 0.0
C101 C 0.10592 0.99768 0.39874 0.0
C102 C 0.1289 0.07378 0.40605 0.0
C103 C 0.15053 0.01164 0.39513 0.0
C104 C 0.95383 0.90821 0.38589 0.0
N105 N 0.97827 0.91255 0.39811 0.0
C106 C 0.98623 0.85003 0.39077 0.0
C107 C 0.9946 0.88441 0.40066 0.0
C108 C 0.96137 0.84491 0.37797 0.0
C109 C 0.94489 0.8745 0.37565 0.0
H110 H 0.94207 0.93161 0.38392 0.0
H111 H 0.01507 0.88921 0.41019 0.0
C112 C 0.09488 0.04687 0.45544 0.0
N113 N 0.09308 0.02689 0.44239 0.0
C114 C 0.12944 0.0565 0.46537 0.0
C115 C 0.15981 0.02492 0.44825 0.0
C116 C 0.12446 0.01554 0.43872 0.0
C117 C 0.16257 0.04543 0.46186 0.0
H118 H 0.06906 0.05484 0.45822 0.0
H119 H 0.12176 0.9985 0.42852 0.0
C120 C 0.90954 0.97518 0.40529 0.0
N121 N 0.81948 0.94464 0.40052 0.0
C122 C 0.89541 0.00515 0.40098 0.0
C123 C 0.87798 0.92958 0.40695 0.0
C124 C 0.8497 0.98909 0.39868 0.0
C125 C 0.83258 0.91481 0.40455 0.0
C126 C 0.03191 0.09586 0.43591 0.0
C127 C 1.00273 0.11144 0.43975 0.0
C128 C 0.07814 0.12594 0.43533 0.0
C129 C 0.02025 0.15714 0.44265 0.0
C130 C 0.09437 0.17138 0.43833 0.0
N131 N 0.06532 0.18593 0.44187 0.0
C132 C 0.90178 0.94827 0.45305 0.0
C133 C 0.8866 0.99822 0.43966 0.0
C134 C 0.86638 0.93844 0.46269 0.0
N135 N 0.91113 0.97763 0.4418 0.0
C136 C 0.85078 0.98925 0.449 0.0
C137 C 0.84037 0.95917 0.46078 0.0
H138 H 0.92237 0.93309 0.45473 0.0
H139 H 0.89522 0.02214 0.43083 0.0
C140 C 0.05635 0.10298 0.38737 0.0
N141 N 0.02802 0.09454 0.39888 0.0
C142 C 0.06609 0.13821 0.37769 0.0
C143 C 0.01686 0.15525 0.39175 0.0
C144 C 0.00822 0.11975 0.4012 0.0
C145 C 0.04598 0.16476 0.37973 0.0
H146 H 0.07085 0.08185 0.38552 0.0
H147 H 0.98476 0.11159 0.41015 0.0
O148 O 0.9893 0.95336 0.4327 0.0
O149 O 0.05164 0.01581 0.408 0.0
O150 O 0.95411 0.99035 0.40772 0.0
O151 O 0.01533 0.05126 0.43295 0.0
H152 H 0.04703 0.92831 0.44124 0.0
H153 H 0.90842 0.88101 0.43087 0.0
H154 H 0.02758 0.84956 0.44613 0.0
H155 H 0.89143 0.80303 0.43578 0.0
H156 H 0.19957 0.12098 0.40362 0.0
H157 H 0.08021 0.96296 0.39725 0.0
H158 H 0.12103 0.09861 0.41009 0.0
H159 H 0.1594 0.98773 0.39085 0.0
H160 H 0.9994 0.82792 0.39311 0.0
H161 H 0.92642 0.87259 0.36582 0.0
H162 H 0.12952 0.0715 0.47583 0.0
H163 H 0.18468 0.01611 0.44495 0.0
H164 H 0.91942 0.04048 0.39953 0.0
H165 H 0.88845 0.90584 0.41 0.0
H166 H 0.83825 0.01196 0.39544 0.0
H167 H 0.80776 0.87963 0.40585 0.0
H168 H 0.9669 0.08855 0.44037 0.0
H169 H 0.10126 0.11429 0.43272 0.0
H170 H 0.99802 0.16973 0.44553 0.0
H171 H 0.13006 0.19506 0.43787 0.0
H172 H 0.86027 0.91575 0.47177 0.0
H173 H 0.83151 0.00578 0.447 0.0
H174 H 0.08895 0.14439 0.36865 0.0
H175 H 0.99977 0.17408 0.3936 0.0
Li176 Li 0.0373 0.99184 0.74241 0.0
Li177 Li 0.0386 0.04331 0.76151 0.0
Li178 Li 0.98049 0.96283 0.76182 0.0
Li179 Li 0.97812 0.01314 0.74342 0.0
C180 C 0.05689 0.9572 0.76719 0.0
N181 N 0.07617 0.89026 0.77392 0.0
C182 C 0.08613 0.96308 0.77868 0.0
C183 C 0.03743 0.91727 0.75911 0.0
C184 C 0.09547 0.92884 0.78191 0.0
C185 C 0.0476 0.88384 0.76268 0.0
C186 C 0.0718 0.09357 0.73482 0.0
C187 C 0.08808 0.16842 0.7285 0.0
N188 N 0.13021 0.17885 0.72433 0.0
C189 C 0.11504 0.10482 0.73028 0.0
C190 C 0.05797 0.12542 0.73377 0.0
C191 C 0.14416 0.1482 0.72508 0.0
C192 C 0.05612 0.96128 0.71621 0.0
N193 N 0.07349 0.97974 0.72947 0.0
C194 C 0.14262 0.98241 0.72364 0.0
C195 C 0.11579 0.99025 0.73337 0.0
C196 C 0.12571 0.96358 0.70979 0.0
C197 C 0.0817 0.95278 0.70616 0.0
H198 H 0.02252 0.95369 0.71337 0.0
H199 H 0.1288 0.00507 0.74398 0.0
C200 C 0.0586 0.09395 0.78736 0.0
N201 N 0.07568 0.0931 0.77397 0.0
C202 C 0.08406 0.12826 0.79731 0.0
C203 C 0.14455 0.16023 0.77961 0.0
C204 C 0.11791 0.12519 0.77 0.0
C205 C 0.12779 0.16192 0.79353 0.0
H206 H 0.02528 0.06759 0.79039 0.0
H207 H 0.13141 0.12315 0.75953 0.0
C208 C 0.92676 0.92189 0.73716 0.0
N209 N 0.83791 0.86149 0.73083 0.0
C210 C 0.89247 0.92107 0.74565 0.0
C211 C 0.91588 0.89192 0.72548 0.0
C212 C 0.84776 0.89033 0.74227 0.0
C213 C 0.87075 0.86164 0.72244 0.0
C214 C 0.95211 0.03815 0.76959 0.0
C215 C 0.91098 0.01522 0.77697 0.0
C216 C 0.97149 0.08422 0.76693 0.0
C217 C 0.88959 0.03876 0.7814 0.0
C218 C 0.94909 0.10657 0.77155 0.0
N219 N 0.90891 0.08356 0.77861 0.0
C220 C 0.94127 0.9248 0.78876 0.0
C221 C 0.92667 0.87023 0.77045 0.0
C222 C 0.91625 0.89118 0.79901 0.0
N223 N 0.94585 0.91386 0.7748 0.0
C224 C 0.90121 0.83545 0.78034 0.0
C225 C 0.89574 0.84574 0.79486 0.0
H226 H 0.95696 0.95981 0.79191 0.0
H227 H 0.93112 0.86239 0.7593 0.0
C228 C 0.95642 0.04086 0.71737 0.0
N229 N 0.9413 0.02678 0.73124 0.0
C230 C 0.93126 0.0507 0.70761 0.0
C231 C 0.87529 0.03137 0.72657 0.0
C232 C 0.90145 0.02172 0.73594 0.0
C233 C 0.89003 0.04593 0.71217 0.0
H234 H 0.98805 0.04424 0.71388 0.0
H235 H 0.88946 0.0095 0.74686 0.0
O236 O 0.04737 0.99042 0.76396 0.0
O237 O 0.04276 0.05115 0.73982 0.0
O238 O 0.97083 0.95172 0.74023 0.0
O239 O 0.97329 0.01548 0.76511 0.0
H240 H 0.10142 0.9938 0.78505 0.0
H241 H 0.01472 0.91208 0.75017 0.0
H242 H 0.11805 0.93293 0.79079 0.0
H243 H 0.03277 0.85278 0.75653 0.0
H244 H 0.07788 0.19345 0.72768 0.0
H245 H 0.12613 0.08044 0.73089 0.0
H246 H 0.02425 0.11696 0.73684 0.0
H247 H 0.17785 0.15749 0.72164 0.0
H248 H 0.17618 0.9909 0.72695 0.0
H249 H 0.06751 0.93891 0.69554 0.0
H250 H 0.06969 0.1283 0.80789 0.0
H251 H 0.17841 0.18491 0.77635 0.0
H252 H 0.90022 0.94378 0.75479 0.0
H253 H 0.94203 0.892 0.71882 0.0
H254 H 0.8209 0.88937 0.74875 0.0
H255 H 0.86183 0.83825 0.71342 0.0
H256 H 0.89561 0.97956 0.77917 0.0
H257 H 1.00365 0.10258 0.76149 0.0
H258 H 0.85763 0.02141 0.78705 0.0
H259 H 0.96369 0.14223 0.76955 0.0
H260 H 0.91245 0.90074 0.81001 0.0
H261 H 0.88641 0.80091 0.77671 0.0
H262 H 0.94402 0.06206 0.69664 0.0
H263 H 0.84332 0.0264 0.73044 0.0
Mg264 Mg 1.00193 0.50687 0.25355 0.0
C265 C 0.0142 0.46635 0.27997 0.0
O266 O 0.97319 0.4597 0.28098 0.0
C267 C 0.05442 0.56472 0.22701 0.0
O268 O 0.04793 0.52633 0.22174 0.0
C269 C 0.94995 0.44625 0.22717 0.0
O270 O 0.94889 0.48169 0.22228 0.0
O271 O 0.96665 0.44775 0.23973 0.0
O272 O 0.03823 0.48846 0.26904 0.0
O273 O 0.96026 0.52387 0.26701 0.0
C274 C 0.95342 0.55579 0.26355 0.0
O275 O 0.96621 0.5745 0.25055 0.0
O276 O 0.04237 0.56615 0.2401 0.0
Mg277 Mg 0.50681 0.00784 0.58654 0.0
C278 C 0.47035 0.02896 0.56085 0.0
O279 O 0.4703 0.99172 0.55756 0.0
C280 C 0.56593 0.01443 0.60968 0.0
O281 O 0.53908 0.9715 0.60695 0.0
C282 C 0.40969 0.95449 0.59683 0.0
O283 O 0.4027 0.9672 0.584 0.0
O284 O 0.44909 0.96268 0.6 0.0
O285 O 0.48615 0.04724 0.57322 0.0
O286 O 0.53424 0.97999 0.5709 0.0
C287 C 0.53214 0.94214 0.56972 0.0
O288 O 0.50879 0.91011 0.57926 0.0
O289 O 0.56083 0.04295 0.60227 0.0
Mg290 Mg 0.51362 0.50452 0.91914 0.0
C291 C 0.43085 0.44368 0.90336 0.0
O292 O 0.4421 0.41701 0.9101 0.0
C293 C 0.55959 0.56253 0.94408 0.0
O294 O 0.56431 0.5271 0.94565 0.0
C295 C 0.46282 0.44792 0.9435 0.0
O296 O 0.45233 0.47972 0.94245 0.0
O297 O 0.49168 0.4486 0.93457 0.0
O298 O 0.45507 0.48597 0.90524 0.0
O299 O 0.56762 0.51837 0.90364 0.0
C300 C 0.60855 0.54649 0.90644 0.0
O301 O 0.61958 0.5627 0.91977 0.0
O302 O 0.53728 0.56385 0.93315 0.0
H303 H 0.98446 0.14248 0.15807 0.0
H304 H 0.97251 0.19161 0.17453 0.0
H305 H 0.92859 0.23968 0.13805 0.0
H306 H 0.93867 0.18922 0.12156 0.0
H307 H 0.01452 0.28319 0.17344 0.0
H308 H 0.83024 0.21086 0.16812 0.0
H309 H 0.85869 0.18173 0.16189 0.0
H310 H 0.86004 0.22597 0.15097 0.0
C311 C 0.97138 0.16279 0.15356 0.0
C312 C 0.96232 0.16166 0.13847 0.0
C313 C 0.96487 0.19111 0.16299 0.0
C314 C 0.94903 0.21885 0.15757 0.0
C315 C 0.93994 0.2179 0.14254 0.0
H316 H 0.9278 0.43753 0.19796 0.0
H317 H 0.92413 0.38054 0.18092 0.0
C318 C 0.94633 0.18946 0.13309 0.0
C319 C 0.94455 0.25051 0.16758 0.0
H320 H 0.86997 0.27984 0.18116 0.0
C321 C 0.98286 0.28229 0.17517 0.0
C322 C 0.90324 0.24944 0.16977 0.0
C323 C 0.86058 0.21493 0.16237 0.0
C324 C 0.9811 0.31318 0.18481 0.0
C325 C 0.93981 0.31197 0.18707 0.0
C326 C 0.90153 0.28058 0.17939 0.0
C327 C 0.9361 0.34291 0.19755 0.0
C328 C 0.02361 0.34731 0.1924 0.0
C329 C 0.94233 0.33953 0.21259 0.0
C330 C 0.94433 0.37184 0.22233 0.0
C331 C 0.94014 0.40823 0.21723 0.0
C332 C 0.93126 0.41003 0.20226 0.0
C333 C 0.92919 0.37755 0.1925 0.0
H334 H 0.05409 0.3502 0.18711 0.0
H335 H 0.02641 0.38094 0.19242 0.0
H336 H 0.02278 0.3369 0.20397 0.0
H337 H 0.94711 0.31265 0.21671 0.0
H338 H 0.95089 0.36916 0.2338 0.0
H339 H 0.81773 0.01969 0.47157 0.0
H340 H 0.75865 0.00609 0.48921 0.0
H341 H 0.72141 0.86639 0.49183 0.0
H342 H 0.77988 0.87935 0.47391 0.0
H343 H 0.66254 0.94091 0.48709 0.0
H344 H 0.74483 0.91244 0.5352 0.0
H345 H 0.77548 0.94012 0.51872 0.0
H346 H 0.73868 0.88033 0.5189 0.0
C347 C 0.79666 0.98589 0.47572 0.0
C348 C 0.80368 0.95062 0.4713 0.0
C349 C 0.76308 0.97827 0.48588 0.0
C350 C 0.73604 0.93537 0.49193 0.0
C351 C 0.74244 0.89991 0.48745 0.0
H352 H 0.53964 0.86753 0.56361 0.0
H353 H 0.58433 0.85953 0.544 0.0
C354 C 0.77595 0.90744 0.47724 0.0
C355 C 0.7012 0.92814 0.50291 0.0
H356 H 0.67594 0.90956 0.5394 0.0
C357 C 0.66521 0.93368 0.49851 0.0
C358 C 0.7046 0.91827 0.51775 0.0
C359 C 0.74305 0.91266 0.52304 0.0
C360 C 0.63298 0.93059 0.50864 0.0
C361 C 0.6375 0.92282 0.52362 0.0
C362 C 0.67254 0.91554 0.52792 0.0
C363 C 0.60878 0.92628 0.53514 0.0
C364 C 0.59452 0.93593 0.50317 0.0
C365 C 0.60814 0.96652 0.53677 0.0
C366 C 0.58273 0.97112 0.54784 0.0
C367 C 0.55766 0.93572 0.55773 0.0
C368 C 0.5584 0.89535 0.55615 0.0
C369 C 0.58393 0.89075 0.54498 0.0
H370 H 0.58719 0.92617 0.49145 0.0
H371 H 0.56352 0.91533 0.5097 0.0
H372 H 0.60374 0.97175 0.50408 0.0
H373 H 0.62798 0.99483 0.52959 0.0
H374 H 0.58328 1.00283 0.54874 0.0
H375 H 0.91446 0.84125 0.82377 0.0
H376 H 0.86767 0.78415 0.84182 0.0
H377 H 0.76859 0.7114 0.80851 0.0
H378 H 0.81516 0.76852 0.79037 0.0
H379 H 0.78147 0.76219 0.84995 0.0
H380 H 0.78302 0.61212 0.82806 0.0
H381 H 0.82284 0.66862 0.82222 0.0
H382 H 0.76663 0.64053 0.81507 0.0
C383 C 0.88275 0.81307 0.82026 0.0
C384 C 0.86851 0.80954 0.80562 0.0
C385 C 0.85617 0.78032 0.83058 0.0
C386 C 0.8149 0.74321 0.82648 0.0
C387 C 0.80079 0.73919 0.81185 0.0
H388 H 0.59338 0.53459 0.87678 0.0
H389 H 0.64479 0.5801 0.85713 0.0
C390 C 0.82742 0.77194 0.80149 0.0
C391 C 0.78543 0.71058 0.83779 0.0
H392 H 0.73279 0.59978 0.8478 0.0
C393 C 0.77106 0.72673 0.84952 0.0
C394 C 0.77157 0.66426 0.83714 0.0
C395 C 0.78706 0.64527 0.82502 0.0
C396 C 0.74292 0.69786 0.86056 0.0
C397 C 0.72944 0.65163 0.86002 0.0
C398 C 0.74341 0.63528 0.84822 0.0
C399 C 0.70052 0.62002 0.87162 0.0
C400 C 0.72707 0.71699 0.87255 0.0
C401 C 0.71547 0.62609 0.88619 0.0
C402 C 0.68623 0.60026 0.89744 0.0
C403 C 0.6415 0.56763 0.89432 0.0
C404 C 0.62756 0.5595 0.87958 0.0
C405 C 0.65687 0.58551 0.86833 0.0
H406 H 0.73111 0.75008 0.86942 0.0
H407 H 0.69121 0.69368 0.87527 0.0
H408 H 0.74724 0.7219 0.88258 0.0
H409 H 0.74935 0.65195 0.88892 0.0
H410 H 0.69823 0.60715 0.90864 0.0
H411 H 0.04263 0.80515 0.1224 0.0
H412 H 0.05184 0.75515 0.13941 0.0
H413 H 0.07811 0.84874 0.17466 0.0
H414 H 0.06801 0.89845 0.15783 0.0
H415 H 0.12758 0.77327 0.15814 0.0
H416 H 0.97147 0.72771 0.18943 0.0
H417 H 0.98256 0.75348 0.1715 0.0
H418 H 0.00999 0.78694 0.18737 0.0
C419 C 0.05016 0.815 0.13379 0.0
C420 C 0.05428 0.85568 0.13878 0.0
C421 C 0.05573 0.78656 0.14346 0.0
C422 C 0.06517 0.79805 0.15831 0.0
C423 C 0.07034 0.83904 0.16326 0.0
H424 H 0.07135 0.64901 0.23436 0.0
H425 H 0.08017 0.70866 0.21771 0.0
C426 C 0.06492 0.86758 0.1536 0.0
C427 C 0.0685 0.76664 0.16869 0.0
H428 H 0.01692 0.69956 0.19833 0.0
C429 C 0.10346 0.75711 0.16695 0.0
C430 C 0.03699 0.74572 0.18015 0.0
C431 C 0.99787 0.75356 0.18222 0.0
C432 C 0.10804 0.72752 0.1765 0.0
C433 C 0.07624 0.70625 0.1879 0.0
C434 C 0.04144 0.71605 0.18965 0.0
C435 C 0.07723 0.6726 0.1979 0.0
C436 C 0.14729 0.71994 0.17445 0.0
C437 C 0.07354 0.63279 0.19232 0.0
C438 C 0.06885 0.5987 0.20183 0.0
C439 C 0.06712 0.60352 0.2171 0.0
C440 C 0.07256 0.64416 0.22266 0.0
C441 C 0.07749 0.67828 0.21316 0.0
H442 H 0.1753 0.74828 0.16844 0.0
H443 H 0.16006 0.71568 0.18515 0.0
H444 H 0.13632 0.68895 0.1679 0.0
H445 H 0.07224 0.62715 0.1806 0.0
H446 H 0.06438 0.56774 0.19716 0.0
H447 H 0.20756 0.11723 0.48062 0.0
H448 H 0.26647 0.12987 0.49826 0.0
H449 H 0.25986 0.00674 0.4845 0.0
H450 H 0.19999 0.99272 0.46731 0.0
H451 H 0.25836 0.05881 0.52155 0.0
H452 H 0.39756 0.11577 0.4811 0.0
H453 H 0.34853 0.1211 0.47794 0.0
H454 H 0.34496 0.06742 0.47601 0.0
C455 C 0.21827 0.09256 0.48143 0.0
C456 C 0.19901 0.054 0.47245 0.0
C457 C 0.25213 0.10005 0.49145 0.0
C458 C 0.26767 0.06945 0.49253 0.0
C459 C 0.24862 0.03102 0.48366 0.0
H460 H 0.43827 0.99764 0.53365 0.0
H461 H 0.39332 0.01696 0.51805 0.0
C462 C 0.21457 0.02326 0.47376 0.0
C463 C 0.30318 0.07661 0.50311 0.0
H464 H 0.41003 0.09469 0.50469 0.0
C465 C 0.29188 0.06752 0.51799 0.0
C466 C 0.34668 0.088 0.49834 0.0
C467 C 0.36052 0.099 0.48249 0.0
C468 C 0.32217 0.06657 0.52812 0.0
C469 C 0.36516 0.07598 0.52322 0.0
C470 C 0.37716 0.08758 0.50845 0.0
C471 C 0.39556 0.06777 0.53261 0.0
C472 C 0.30682 0.05257 0.54373 0.0
C473 C 0.4128 0.09069 0.54591 0.0
C474 C 0.43856 0.0794 0.55502 0.0
C475 C 0.44757 0.04524 0.55088 0.0
C476 C 0.43178 0.0239 0.53726 0.0
C477 C 0.40611 0.03501 0.52827 0.0
H478 H 0.2701 0.03886 0.54505 0.0
H479 H 0.31503 0.02672 0.54742 0.0
H480 H 0.32451 0.0822 0.55103 0.0
H481 H 0.40582 0.11674 0.54934 0.0
H482 H 0.45039 0.09656 0.56541 0.0
H483 H 0.18481 0.25207 0.78863 0.0
H484 H 0.23527 0.30869 0.80634 0.0
H485 H 0.18594 0.20807 0.84039 0.0
H486 H 0.13612 0.15132 0.82283 0.0
H487 H 0.21256 0.33296 0.83652 0.0
H488 H 0.32741 0.26297 0.83709 0.0
H489 H 0.28875 0.25287 0.82225 0.0
H490 H 0.26868 0.22252 0.83919 0.0
C491 C 0.18472 0.24205 0.79989 0.0
C492 C 0.15653 0.19713 0.80431 0.0
C493 C 0.21327 0.27448 0.81 0.0
C494 C 0.21435 0.2624 0.82462 0.0
C495 C 0.18558 0.21795 0.82913 0.0
H496 H 0.36072 0.35864 0.90339 0.0
H497 H 0.30693 0.32028 0.88377 0.0
C498 C 0.15696 0.18563 0.81909 0.0
C499 C 0.24705 0.29531 0.83511 0.0
H500 H 0.33821 0.31587 0.85559 0.0
C501 C 0.24041 0.32974 0.84061 0.0
C502 C 0.28338 0.29101 0.8403 0.0
C503 C 0.29291 0.25561 0.83435 0.0
C504 C 0.2681 0.35871 0.85175 0.0
C505 C 0.30339 0.3532 0.85732 0.0
C506 C 0.31093 0.31985 0.85137 0.0
C507 C 0.33131 0.3792 0.86998 0.0
C508 C 0.25835 0.39366 0.85792 0.0
C509 C 0.362 0.42558 0.86896 0.0
C510 C 0.39282 0.44787 0.88031 0.0
C511 C 0.39359 0.4238 0.89268 0.0
C512 C 0.36119 0.37802 0.89395 0.0
C513 C 0.3304 0.35601 0.88274 0.0
H514 H 0.22557 0.38881 0.85409 0.0
H515 H 0.25823 0.39273 0.8701 0.0
H516 H 0.28516 0.42755 0.85442 0.0
H517 H 0.36363 0.44398 0.85912 0.0
H518 H 0.41765 0.4831 0.879 0.0
H519 H 0.87226 0.02085 0.68341 0.0
H520 H 0.82248 0.03106 0.66681 0.0
H521 H 0.79375 0.10029 0.70085 0.0
H522 H 0.84336 0.08981 0.71761 0.0
H523 H 0.71856 0.03682 0.68855 0.0
H524 H 0.83603 0.13811 0.64439 0.0
H525 H 0.83902 0.08836 0.64797 0.0
H526 H 0.85515 0.13052 0.66203 0.0
C527 C 0.85606 0.03904 0.68729 0.0
C528 C 0.86184 0.0546 0.70183 0.0
C529 C 0.82773 0.04505 0.67775 0.0
C530 C 0.80503 0.06726 0.68247 0.0
C531 C 0.81116 0.08334 0.69693 0.0
H532 H 0.63104 0.09993 0.61794 0.0
H533 H 0.6897 0.11997 0.63661 0.0
C534 C 0.83931 0.07711 0.70652 0.0
C535 C 0.77192 0.06996 0.67271 0.0
H536 H 0.75724 0.09633 0.63779 0.0
C537 C 0.72725 0.05062 0.67755 0.0
C538 C 0.78323 0.08871 0.65844 0.0
C539 C 0.83109 0.11304 0.65297 0.0
C540 C 0.6932 0.0469 0.66821 0.0
C541 C 0.70391 0.0621 0.65354 0.0
C542 C 0.74897 0.08413 0.64898 0.0
C543 C 0.66836 0.05109 0.64247 0.0
C544 C 0.64581 0.02572 0.67405 0.0
C545 C 0.63755 0.0059 0.63946 0.0
C546 C 0.60433 0.99446 0.62891 0.0
C547 C 0.60125 0.02795 0.621 0.0
C548 C 0.63239 0.07338 0.62391 0.0
C549 C 0.66589 0.08485 0.63454 0.0
H550 H 0.6455 0.02992 0.68612 0.0
H551 H 0.627 0.04048 0.66882 0.0
H552 H 0.62799 0.98913 0.67169 0.0
H553 H 0.63949 0.97929 0.64518 0.0
H554 H 0.5812 0.95913 0.62692 0.0
H555 H 0.76091 0.86373 0.04692 0.0
H556 H 0.7034 0.81442 0.02934 0.0
H557 H 0.80566 0.81169 1.0026 0.0
H558 H 0.86322 0.86162 0.01993 0.0
H559 H 0.74426 0.81881 0.98594 0.0
H560 H 0.65796 0.68135 0.02679 0.0
H561 H 0.66133 0.73346 0.03182 0.0
H562 H 0.71185 0.73032 0.0303 0.0
C563 C 0.77104 0.85262 0.03727 0.0
C564 C 0.81653 0.8663 0.03485 0.0
C565 C 0.73817 0.8244 0.02725 0.0
C566 C 0.7501 0.80869 0.01478 0.0
C567 C 0.79564 0.82337 0.01214 0.0
H568 H 0.61651 0.57037 0.96589 0.0
H569 H 0.65761 0.6328 0.98255 0.0
C570 C 0.82852 0.85194 0.02205 0.0
C571 C 0.7154 0.77557 1.0047 0.0
H572 H 0.62761 0.6678 1.00307 0.0
C573 C 0.71845 0.7859 0.98968 0.0
C574 C 0.6819 0.73256 0.00961 0.0
C575 C 0.67813 0.71845 0.02548 0.0
C576 C 0.69004 0.75387 0.97937 0.0
C577 C 0.65701 0.71067 0.98427 0.0
C578 C 0.65276 0.70104 0.99935 0.0
C579 C 0.63062 0.67308 0.97395 0.0
C580 C 0.69728 0.76574 0.96328 0.0
C581 C 0.60134 0.67467 0.96352 0.0
C582 C 0.57781 0.63878 0.95375 0.0
C583 C 0.58289 0.60065 0.95441 0.0
C584 C 0.61163 0.59909 0.96504 0.0
C585 C 0.63521 0.63483 0.97464 0.0
H586 H 0.72951 0.79728 0.96121 0.0
H587 H 0.69712 0.73823 0.95684 0.0
H588 H 0.66959 0.77054 0.9592 0.0
H589 H 0.59663 0.70352 0.96296 0.0
H590 H 0.55573 0.64087 0.94573 0.0
H591 H 0.8865 0.79378 0.3611 0.0
H592 H 0.87736 0.74078 0.3417 0.0
H593 H 0.01034 0.76343 0.35039 0.0
H594 H 0.0207 0.81811 0.36925 0.0
H595 H 0.99719 0.76839 0.32165 0.0
H596 H 0.85362 0.61322 0.34455 0.0
H597 H 0.84284 0.65899 0.34276 0.0
H598 H 0.88528 0.66361 0.35528 0.0
C599 C 0.91389 0.78762 0.35887 0.0
C600 C 0.95435 0.8103 0.3668 0.0
C601 C 0.90833 0.75678 0.3479 0.0
C602 C 0.94288 0.74755 0.34473 0.0
C603 C 0.98308 0.76976 0.35271 0.0
H604 H 0.9435 0.53789 0.29301 0.0
H605 H 0.93635 0.58328 0.31229 0.0
C606 C 0.98878 0.80077 0.3636 0.0
C607 C 0.93839 0.71673 0.3326 0.0
H608 H 0.87534 0.60894 0.3201 0.0
C609 C 0.97054 0.73352 0.32131 0.0
C610 C 0.90383 0.67111 0.33224 0.0
C611 C 0.86966 0.65046 0.34442 0.0
C612 C 0.96927 0.70606 0.30972 0.0
C613 C 0.93406 0.66074 0.30915 0.0
C614 C 0.90188 0.64385 0.32044 0.0
C615 C 0.93192 0.62987 0.29737 0.0
C616 C 0.00658 0.72555 0.29847 0.0
C617 C 0.92974 0.63975 0.28256 0.0
C618 C 0.93421 0.61407 0.27148 0.0
C619 C 0.94032 0.57765 0.27503 0.0
C620 C 0.93903 0.56581 0.28987 0.0
C621 C 0.93496 0.59175 0.30093 0.0
H622 H 0.03649 0.7566 0.30252 0.0
H623 H 0.01711 0.70088 0.29543 0.0
H624 H 0.99452 0.7344 0.28843 0.0
H625 H 0.9262 0.66832 0.27956 0.0
H626 H 0.93458 0.62382 0.26016 0.0
H627 H 0.21495 0.01944 0.70368 0.0
H628 H 0.26058 0.00953 0.68506 0.0
H629 H 0.14652 0.88269 0.67253 0.0
H630 H 0.10084 0.89171 0.69141 0.0
H631 H 0.22922 0.88178 0.67454 0.0
H632 H 0.24517 0.02369 0.64082 0.0
H633 H 0.26217 0.03776 0.65959 0.0
H634 H 0.2044 0.9986 0.6554 0.0
C635 C 0.19968 0.9891 0.69712 0.0
C636 C 0.15411 0.95649 0.69898 0.0
C637 C 0.22572 0.9837 0.68639 0.0
C638 C 0.20673 0.9457 0.67728 0.0
C639 C 0.16172 0.9124 0.67939 0.0
H640 H 0.32264 0.93475 0.59388 0.0
H641 H 0.27027 0.9259 0.61348 0.0
C642 C 0.1356 0.91779 0.69011 0.0
C643 C 0.23347 0.9414 0.66525 0.0
H644 H 0.28913 0.99156 0.63358 0.0
C645 C 0.24223 0.90563 0.66554 0.0
C646 C 0.24982 0.9722 0.65343 0.0
C647 C 0.23965 0.01002 0.65215 0.0
C648 C 0.26779 0.90043 0.65445 0.0
C649 C 0.28532 0.9321 0.64287 0.0
C650 C 0.2758 0.96734 0.64248 0.0
C651 C 0.31426 0.93015 0.6311 0.0
C652 C 0.27534 0.86084 0.65515 0.0
C653 C 0.35598 0.93425 0.63447 0.0
C654 C 0.38597 0.93904 0.62326 0.0
C655 C 0.37499 0.94039 0.60847 0.0
C656 C 0.33225 0.93396 0.60513 0.0
C657 C 0.30227 0.92901 0.61634 0.0
H658 H 0.24973 0.8334 0.66212 0.0
H659 H 0.27454 0.84729 0.64402 0.0
H660 H 0.30883 0.87184 0.65999 0.0
H661 H 0.36635 0.93605 0.64577 0.0
H662 H 0.41868 0.94416 0.62624 0.0
H663 H 0.17528 0.1038 0.01887 0.0
H664 H 0.23123 0.15117 1.00062 0.0
H665 H 0.30013 0.25385 0.0333 0.0
H666 H 0.24534 0.20601 0.05176 0.0
H667 H 0.24621 0.23214 0.99152 0.0
H668 H 0.40419 0.25024 0.01362 0.0
H669 H 0.34951 0.20755 0.02004 0.0
H670 H 0.37449 0.26416 0.0269 0.0
C671 C 0.20296 0.13597 0.02229 0.0
C672 C 0.20579 0.15105 0.03681 0.0
C673 C 0.2348 0.16313 0.01181 0.0
C674 C 0.27026 0.20581 0.01562 0.0
C675 C 0.27367 0.22066 0.03016 0.0
H676 H 0.40642 0.44392 0.96507 0.0
H677 H 0.36187 0.38201 0.98178 0.0
C678 C 0.24189 0.1935 0.04066 0.0
C679 C 0.30112 0.23645 1.00415 0.0
H680 H 0.41201 0.30511 0.99562 0.0
C681 C 0.28243 0.24754 0.99232 0.0
C682 C 0.34839 0.25618 1.00507 0.0
C683 C 0.37033 0.24359 0.01701 0.0
C684 C 0.3097 0.27936 0.98179 0.0
C685 C 0.35694 0.30121 0.98324 0.0
C686 C 0.37575 0.28861 0.99463 0.0
C687 C 0.38683 0.33949 0.97364 0.0
C688 C 0.28767 0.28994 0.96932 0.0
C689 C 0.41697 0.33674 0.96386 0.0
C690 C 0.44285 0.37241 0.95422 0.0
C691 C 0.43897 0.41128 0.95433 0.0
C692 C 0.40995 0.41433 0.96456 0.0
C693 C 0.3843 0.37891 0.97412 0.0
H694 H 0.25278 0.26215 0.96743 0.0
H695 H 0.28617 0.32064 0.97204 0.0
H696 H 0.30718 0.29632 0.959 0.0
H697 H 0.41957 0.30662 0.96341 0.0
H698 H 0.46497 0.36911 0.94648 0.0
H699 H 0.05275 0.16291 0.34982 0.0
H700 H 0.0612 0.22005 0.33216 0.0
H701 H 0.06229 0.30392 0.36754 0.0
H702 H 0.05578 0.24776 0.38534 0.0
H703 H 1.00143 0.24745 0.32791 0.0
H704 H 0.1657 0.39452 0.34245 0.0
H705 H 0.14832 0.33837 0.34885 0.0
H706 H 0.12866 0.37182 0.35793 0.0
C707 C 0.05596 0.19398 0.3539 0.0
C708 C 0.05367 0.20071 0.36903 0.0
C709 C 0.06053 0.22653 0.34376 0.0
C710 C 0.06304 0.26658 0.34852 0.0
C711 C 0.06145 0.27376 0.36361 0.0
H712 H 0.97403 0.42711 0.30573 0.0
H713 H 0.9913 0.38116 0.32179 0.0
C714 C 0.05702 0.24127 0.37377 0.0
C715 C 0.06292 0.29872 0.33766 0.0
H716 H 0.11685 0.40952 0.32759 0.0
C717 C 0.02703 0.28274 0.32773 0.0
C718 C 0.09656 0.34472 0.3373 0.0
C719 C 0.13723 0.36333 0.3471 0.0
C720 C 0.02286 0.31177 0.31789 0.0
C721 C 0.05505 0.35814 0.31812 0.0
C722 C 0.09201 0.37398 0.32757 0.0
C723 C 0.04876 0.39059 0.30922 0.0
C724 C 0.98355 0.2927 0.30747 0.0
C725 C 0.07657 0.4126 0.29713 0.0
C726 C 0.06682 0.43919 0.28786 0.0
C727 C 0.02915 0.44399 0.2906 0.0
C728 C 1.00299 0.42374 0.30319 0.0
C729 C 0.01276 0.39741 0.3124 0.0
H730 H 0.96847 0.25578 0.30612 0.0
H731 H 0.95725 0.29926 0.31187 0.0
H732 H 0.99391 0.30894 0.29652 0.0
H733 H 0.10466 0.40781 0.29456 0.0
H734 H 0.08761 0.4544 0.27826 0.0
loop_
_geom_bond_atom_site_label_1
_geom_bond_atom_site_label_2
_geom_bond_distance
_geom_bond_site_symmetry_2
_ccdc_geom_bond_type
Li0 N17 1.990 . S
Li0 O60 1.956 . S
Li0 O61 1.970 1_455 S
Li0 O62 1.961 1_545 S
Li1 N25 1.990 . S
Li1 O60 1.970 1_655 S
Li1 O61 1.956 . S
Li1 O63 1.961 1_545 S
Li2 N47 1.990 . S
Li2 O60 1.961 1_565 S
Li2 O62 1.956 . S
Li2 O63 1.970 1_455 S
Li3 N53 1.990 . S
Li3 O61 1.961 1_565 S
Li3 O62 1.970 1_655 S
Li3 O63 1.956 . S
C4 C6 1.348 . S
C4 C7 1.356 . S
C4 O60 1.325 . S
N5 C8 1.314 . S
N5 C9 1.279 . S
C6 C4 1.348 . S
C6 C8 1.353 . S
C6 H64 0.929 . S
C7 C4 1.356 . S
C7 C9 1.358 . S
C7 H65 0.930 . S
C8 N5 1.314 . S
C8 C6 1.353 . S
C8 H66 0.930 . S
C9 N5 1.279 . S
C9 C7 1.358 . S
C9 H67 0.930 . S
C10 C13 1.348 1_655 S
C10 C14 1.356 . S
C10 O61 1.325 . S
C11 N12 1.279 . S
C11 C14 1.358 . S
C11 H68 0.930 . S
N12 C11 1.279 . S
N12 C15 1.314 . S
C13 C10 1.348 1_455 S
C13 C15 1.353 1_455 S
C13 H69 0.929 . S
C14 C10 1.356 . S
C14 C11 1.358 . S
C14 H70 0.930 . S
C15 N12 1.314 . S
C15 C13 1.353 1_655 S
C15 H71 0.930 1_655 S
C16 N17 1.314 . S
C16 C21 1.353 . S
C16 H22 0.930 . S
N17 Li0 1.990 . S
N17 C16 1.314 . S
N17 C19 1.279 . S
C18 C19 1.358 . S
C18 C20 1.356 . S
C18 H72 0.930 . S
C19 N17 1.279 . S
C19 C18 1.358 . S
C19 H23 0.930 . S
C20 C18 1.356 . S
C20 C21 1.348 . S
C21 C16 1.353 . S
C21 C20 1.348 . S
C21 H73 0.929 . S
H22 C16 0.930 . S
H23 C19 0.930 . S
C24 N25 1.314 . S
C24 C26 1.353 . S
C24 H30 0.930 . S
N25 Li1 1.990 . S
N25 C24 1.314 . S
N25 C28 1.279 . S
C26 C24 1.353 . S
C26 C29 1.348 . S
C26 H74 0.929 . S
C27 C28 1.358 . S
C27 C29 1.356 . S
C27 H75 0.930 . S
C28 N25 1.279 . S
C28 C27 1.358 . S
C28 H31 0.930 . S
C29 C26 1.348 . S
C29 C27 1.356 . S
H30 C24 0.930 . S
H31 C28 0.930 . S
C32 C34 1.348 1_455 S
C32 C35 1.356 . S
C32 O62 1.325 . S
N33 C36 1.314 . S
N33 C37 1.279 . S
C34 C32 1.348 1_655 S
C34 C36 1.353 1_655 S
C34 H76 0.929 . S
C35 C32 1.356 . S
C35 C37 1.358 . S
C35 H77 0.930 . S
C36 N33 1.314 . S
C36 C34 1.353 1_455 S
C36 H78 0.930 1_455 S
C37 N33 1.279 . S
C37 C35 1.358 . S
C37 H79 0.930 . S
C38 C39 1.348 . S
C38 C40 1.356 . S
C38 O63 1.325 . S
C39 C38 1.348 . S
C39 C41 1.353 . S
C39 H80 0.929 . S
C40 C38 1.356 . S
C40 C42 1.358 . S
C40 H81 0.930 . S
C41 C39 1.353 . S
C41 N43 1.314 . S
C41 H82 0.930 . S
C42 C40 1.358 . S
C42 N43 1.279 . S
C42 H83 0.930 . S
N43 C41 1.314 . S
N43 C42 1.279 . S
C44 C46 1.353 . S
C44 N47 1.314 . S
C44 H50 0.930 . S
C45 N47 1.279 . S
C45 C48 1.358 . S
C45 H51 0.930 . S
C46 C44 1.353 . S
C46 C49 1.348 . S
C46 H84 0.929 . S
N47 Li2 1.990 . S
N47 C44 1.314 . S
N47 C45 1.279 . S
C48 C45 1.358 . S
C48 C49 1.356 . S
C48 H85 0.930 . S
C49 C46 1.348 . S
C49 C48 1.356 . S
H50 C44 0.930 . S
H51 C45 0.930 . S
C52 N53 1.314 . S
C52 C54 1.353 . S
C52 H58 0.930 . S
N53 Li3 1.990 . S
N53 C52 1.314 . S
N53 C56 1.279 . S
C54 C52 1.353 . S
C54 C57 1.348 . S
C54 H86 0.929 . S
C55 C56 1.358 . S
C55 C57 1.356 . S
C55 H87 0.930 . S
C56 N53 1.279 . S
C56 C55 1.358 . S
C56 H59 0.930 . S
C57 C54 1.348 . S
C57 C55 1.356 . S
H58 C52 0.930 . S
H59 C56 0.930 . S
O60 Li0 1.956 . S
O60 Li1 1.970 1_455 S
O60 Li2 1.961 1_545 S
O60 C4 1.325 . S
O61 Li0 1.970 1_655 S
O61 Li1 1.956 . S
O61 Li3 1.961 1_545 S
O61 C10 1.325 . S
O62 Li0 1.961 1_565 S
O62 Li2 1.956 . S
O62 Li3 1.970 1_455 S
O62 C32 1.325 . S
O63 Li1 1.961 1_565 S
O63 Li2 1.970 1_655 S
O63 Li3 1.956 . S
O63 C38 1.325 . S
H64 C6 0.929 . S
H65 C7 0.930 . S
H66 C8 0.930 . S
H67 C9 0.930 . S
H68 C11 0.930 . S
H69 C13 0.929 . S
H70 C14 0.930 . S
H71 C15 0.930 1_455 S
H72 C18 0.930 . S
H73 C21 0.929 . S
H74 C26 0.929 . S
H75 C27 0.930 . S
H76 C34 0.929 . S
H77 C35 0.930 . S
H78 C36 0.930 1_655 S
H79 C37 0.930 . S
H80 C39 0.929 . S
H81 C40 0.930 . S
H82 C41 0.930 . S
H83 C42 0.930 . S
H84 C46 0.929 . S
H85 C48 0.930 . S
H86 C54 0.929 . S
H87 C55 0.930 . S
Li88 N105 1.990 . S
Li88 O148 1.956 . S
Li88 O149 1.970 1_665 S
Li88 O150 1.961 . S
Li89 N113 1.990 . S
Li89 O148 1.970 1_445 S
Li89 O149 1.956 . S
Li89 O151 1.961 . S
Li90 N135 1.990 . S
Li90 O148 1.961 . S
Li90 O150 1.956 . S
Li90 O151 1.970 1_665 S
Li91 N141 1.990 . S
Li91 O149 1.961 . S
Li91 O150 1.970 1_445 S
Li91 O151 1.956 . S
C92 C94 1.348 1_655 S
C92 C95 1.356 . S
C92 O148 1.325 . S
N93 C96 1.314 . S
N93 C97 1.279 . S
C94 C92 1.348 1_455 S
C94 C96 1.353 1_455 S
C94 H152 0.929 . S
C95 C92 1.356 . S
C95 C97 1.358 . S
C95 H153 0.930 . S
C96 N93 1.314 . S
C96 C94 1.353 1_655 S
C96 H154 0.930 1_655 S
C97 N93 1.279 . S
C97 C95 1.358 . S
C97 H155 0.930 . S
C98 C101 1.348 1_545 S
C98 C102 1.356 . S
C98 O149 1.325 . S
C99 N100 1.279 . S
C99 C102 1.358 . S
C99 H156 0.930 . S
N100 C99 1.279 . S
N100 C103 1.314 . S
C101 C98 1.348 1_565 S
C101 C103 1.353 1_565 S
C101 H157 0.929 . S
C102 C98 1.356 . S
C102 C99 1.358 . S
C102 H158 0.930 . S
C103 N100 1.314 . S
C103 C101 1.353 1_545 S
C103 H159 0.930 1_545 S
C104 N105 1.314 . S
C104 C109 1.353 . S
C104 H110 0.930 . S
N105 Li88 1.990 . S
N105 C104 1.314 . S
N105 C107 1.279 . S
C106 C107 1.358 . S
C106 C108 1.356 . S
C106 H160 0.930 . S
C107 N105 1.279 . S
C107 C106 1.358 . S
C107 H111 0.930 . S
C108 C106 1.356 . S
C108 C109 1.348 . S
C109 C104 1.353 . S
C109 C108 1.348 . S
C109 H161 0.929 . S
H110 C104 0.930 . S
H111 C107 0.930 . S
C112 N113 1.314 . S
C112 C114 1.353 . S
C112 H118 0.930 . S
N113 Li89 1.990 . S
N113 C112 1.314 . S
N113 C116 1.279 . S
C114 C112 1.353 . S
C114 C117 1.348 . S
C114 H162 0.929 . S
C115 C116 1.358 . S
C115 C117 1.356 . S
C115 H163 0.930 . S
C116 N113 1.279 . S
C116 C115 1.358 . S
C116 H119 0.930 . S
C117 C114 1.348 . S
C117 C115 1.356 . S
H118 C112 0.930 . S
H119 C116 0.930 . S
C120 C122 1.348 1_565 S
C120 C123 1.356 . S
C120 O150 1.325 . S
N121 C124 1.314 . S
N121 C125 1.279 . S
C122 C120 1.348 1_545 S
C122 C124 1.353 1_545 S
C122 H164 0.929 . S
C123 C120 1.356 . S
C123 C125 1.358 . S
C123 H165 0.930 . S
C124 N121 1.314 . S
C124 C122 1.353 1_565 S
C124 H166 0.930 1_565 S
C125 N121 1.279 . S
C125 C123 1.358 . S
C125 H167 0.930 . S
C126 C127 1.348 1_455 S
C126 C128 1.356 . S
C126 O151 1.325 . S
C127 C126 1.348 1_655 S
C127 C129 1.353 1_655 S
C127 H168 0.929 . S
C128 C126 1.356 . S
C128 C130 1.358 . S
C128 H169 0.930 . S
C129 C127 1.353 1_455 S
C129 N131 1.314 . S
C129 H170 0.930 1_455 S
C130 C128 1.358 . S
C130 N131 1.279 . S
C130 H171 0.930 . S
N131 C129 1.314 . S
N131 C130 1.279 . S
C132 C134 1.353 . S
C132 N135 1.314 . S
C132 H138 0.930 . S
C133 N135 1.279 . S
C133 C136 1.358 . S
C133 H139 0.930 . S
C134 C132 1.353 . S
C134 C137 1.348 . S
C134 H172 0.929 . S
N135 Li90 1.990 . S
N135 C132 1.314 . S
N135 C133 1.279 . S
C136 C133 1.358 . S
C136 C137 1.356 . S
C136 H173 0.930 . S
C137 C134 1.348 . S
C137 C136 1.356 . S
H138 C132 0.930 . S
H139 C133 0.930 . S
C140 N141 1.314 . S
C140 C142 1.353 . S
C140 H146 0.930 . S
N141 Li91 1.990 . S
N141 C140 1.314 . S
N141 C144 1.279 . S
C142 C140 1.353 . S
C142 C145 1.348 . S
C142 H174 0.929 . S
C143 C144 1.358 . S
C143 C145 1.356 . S
C143 H175 0.930 . S
C144 N141 1.279 . S
C144 C143 1.358 . S
C144 H147 0.930 . S
C145 C142 1.348 . S
C145 C143 1.356 . S
H146 C140 0.930 . S
H147 C144 0.930 . S
O148 Li88 1.956 . S
O148 Li89 1.970 1_665 S
O148 Li90 1.961 . S
O148 C92 1.325 . S
O149 Li88 1.970 1_445 S
O149 Li89 1.956 . S
O149 Li91 1.961 . S
O149 C98 1.325 . S
O150 Li88 1.961 . S
O150 Li90 1.956 . S
O150 Li91 1.970 1_665 S
O150 C120 1.325 . S
O151 Li89 1.961 . S
O151 Li90 1.970 1_445 S
O151 Li91 1.956 . S
O151 C126 1.325 . S
H152 C94 0.929 . S
H153 C95 0.930 . S
H154 C96 0.930 1_455 S
H155 C97 0.930 . S
H156 C99 0.930 . S
H157 C101 0.929 . S
H158 C102 0.930 . S
H159 C103 0.930 1_565 S
H160 C106 0.930 . S
H161 C109 0.929 . S
H162 C114 0.929 . S
H163 C115 0.930 . S
H164 C122 0.929 . S
H165 C123 0.930 . S
H166 C124 0.930 1_545 S
H167 C125 0.930 . S
H168 C127 0.929 . S
H169 C128 0.930 . S
H170 C129 0.930 1_655 S
H171 C130 0.930 . S
H172 C134 0.929 . S
H173 C136 0.930 . S
H174 C142 0.929 . S
H175 C143 0.930 . S
Li176 N193 1.990 . S
Li176 O236 1.956 . S
Li176 O237 1.970 1_565 S
Li176 O238 1.961 1_455 S
Li177 N201 1.990 . S
Li177 O236 1.970 1_545 S
Li177 O237 1.956 . S
Li177 O239 1.961 1_455 S
Li178 N223 1.990 . S
Li178 O236 1.961 1_655 S
Li178 O238 1.956 . S
Li178 O239 1.970 1_565 S
Li179 N229 1.990 . S
Li179 O237 1.961 1_655 S
Li179 O238 1.970 1_545 S
Li179 O239 1.956 . S
C180 C182 1.348 1_565 S
C180 C183 1.356 . S
C180 O236 1.325 . S
N181 C184 1.314 . S
N181 C185 1.279 . S
C182 C180 1.348 1_545 S
C182 C184 1.353 1_545 S
C182 H240 0.929 . S
C183 C180 1.356 . S
C183 C185 1.358 . S
C183 H241 0.930 . S
C184 N181 1.314 . S
C184 C182 1.353 1_565 S
C184 H242 0.930 1_565 S
C185 N181 1.279 . S
C185 C183 1.358 . S
C185 H243 0.930 . S
C186 C189 1.348 . S
C186 C190 1.356 . S
C186 O237 1.325 . S
C187 N188 1.279 . S
C187 C190 1.358 . S
C187 H244 0.930 . S
N188 C187 1.279 . S
N188 C191 1.314 . S
C189 C186 1.348 . S
C189 C191 1.353 . S
C189 H245 0.929 . S
C190 C186 1.356 . S
C190 C187 1.358 . S
C190 H246 0.930 . S
C191 N188 1.314 . S
C191 C189 1.353 . S
C191 H247 0.930 . S
C192 N193 1.314 . S
C192 C197 1.353 . S
C192 H198 0.930 . S
N193 Li176 1.990 . S
N193 C192 1.314 . S
N193 C195 1.279 . S
C194 C195 1.358 . S
C194 C196 1.356 . S
C194 H248 0.930 . S
C195 N193 1.279 . S
C195 C194 1.358 . S
C195 H199 0.930 . S
C196 C194 1.356 . S
C196 C197 1.348 . S
C197 C192 1.353 . S
C197 C196 1.348 . S
C197 H249 0.929 . S
H198 C192 0.930 . S
H199 C195 0.930 . S
C200 N201 1.314 . S
C200 C202 1.353 . S
C200 H206 0.930 . S
N201 Li177 1.990 . S
N201 C200 1.314 . S
N201 C204 1.279 . S
C202 C200 1.353 . S
C202 C205 1.348 . S
C202 H250 0.929 . S
C203 C204 1.358 . S
C203 C205 1.356 . S
C203 H251 0.930 . S
C204 N201 1.279 . S
C204 C203 1.358 . S
C204 H207 0.930 . S
C205 C202 1.348 . S
C205 C203 1.356 . S
H206 C200 0.930 . S
H207 C204 0.930 . S
C208 C210 1.348 . S
C208 C211 1.356 . S
C208 O238 1.325 . S
N209 C212 1.314 . S
N209 C213 1.279 . S
C210 C208 1.348 . S
C210 C212 1.353 . S
C210 H252 0.929 . S
C211 C208 1.356 . S
C211 C213 1.358 . S
C211 H253 0.930 . S
C212 N209 1.314 . S
C212 C210 1.353 . S
C212 H254 0.930 . S
C213 N209 1.279 . S
C213 C211 1.358 . S
C213 H255 0.930 . S
C214 C215 1.348 1_545 S
C214 C216 1.356 . S
C214 O239 1.325 . S
C215 C214 1.348 1_565 S
C215 C217 1.353 1_565 S
C215 H256 0.929 . S
C216 C214 1.356 . S
C216 C218 1.358 . S
C216 H257 0.930 . S
C217 C215 1.353 1_545 S
C217 N219 1.314 . S
C217 H258 0.930 1_545 S
C218 C216 1.358 . S
C218 N219 1.279 . S
C218 H259 0.930 . S
N219 C217 1.314 . S
N219 C218 1.279 . S
C220 C222 1.353 . S
C220 N223 1.314 . S
C220 H226 0.930 . S
C221 N223 1.279 . S
C221 C224 1.358 . S
C221 H227 0.930 . S
C222 C220 1.353 . S
C222 C225 1.348 . S
C222 H260 0.929 . S
N223 Li178 1.990 . S
N223 C220 1.314 . S
N223 C221 1.279 . S
C224 C221 1.358 . S
C224 C225 1.356 . S
C224 H261 0.930 . S
C225 C222 1.348 . S
C225 C224 1.356 . S
H226 C220 0.930 . S
H227 C221 0.930 . S
C228 N229 1.314 . S
C228 C230 1.353 . S
C228 H234 0.930 . S
N229 Li179 1.990 . S
N229 C228 1.314 . S
N229 C232 1.279 . S
C230 C228 1.353 . S
C230 C233 1.348 . S
C230 H262 0.929 . S
C231 C232 1.358 . S
C231 C233 1.356 . S
C231 H263 0.930 . S
C232 N229 1.279 . S
C232 C231 1.358 . S
C232 H235 0.930 . S
C233 C230 1.348 . S
C233 C231 1.356 . S
H234 C228 0.930 . S
H235 C232 0.930 . S
O236 Li176 1.956 . S
O236 Li177 1.970 1_565 S
O236 Li178 1.961 1_455 S
O236 C180 1.325 . S
O237 Li176 1.970 1_545 S
O237 Li177 1.956 . S
O237 Li179 1.961 1_455 S
O237 C186 1.325 . S
O238 Li176 1.961 1_655 S
O238 Li178 1.956 . S
O238 Li179 1.970 1_565 S
O238 C208 1.325 . S
O239 Li177 1.961 1_655 S
O239 Li178 1.970 1_545 S
O239 Li179 1.956 . S
O239 C214 1.325 . S
H240 C182 0.929 . S
H241 C183 0.930 . S
H242 C184 0.930 1_545 S
H243 C185 0.930 . S
H244 C187 0.930 . S
H245 C189 0.929 . S
H246 C190 0.930 . S
H247 C191 0.930 . S
H248 C194 0.930 . S
H249 C197 0.929 . S
H250 C202 0.929 . S
H251 C203 0.930 . S
H252 C210 0.929 . S
H253 C211 0.930 . S
H254 C212 0.930 . S
H255 C213 0.930 . S
H256 C215 0.929 . S
H257 C216 0.930 . S
H258 C217 0.930 1_565 S
H259 C218 0.930 . S
H260 C222 0.929 . S
H261 C224 0.930 . S
H262 C230 0.929 . S
H263 C231 0.930 . S
Mg264 O271 2.141 . S
Mg264 O272 2.048 . S
Mg264 O273 2.048 . S
Mg264 O276 2.141 . S
C265 O266 1.313 . S
C265 O272 1.195 1_655 S
O266 C265 1.313 . S
C267 O268 1.245 . S
C267 O276 1.289 1_655 S
O268 C267 1.245 . S
C269 O270 1.245 . S
C269 O271 1.289 1_655 S
O270 C269 1.245 . S
O271 Mg264 2.141 . S
O271 C269 1.289 1_455 S
O272 Mg264 2.048 . S
O272 C265 1.195 1_455 S
O273 Mg264 2.048 . S
O273 C274 1.195 1_455 S
C274 O273 1.195 1_655 S
C274 O275 1.313 . S
O275 C274 1.313 . S
O276 Mg264 2.141 . S
O276 C267 1.289 1_455 S
Mg277 O284 2.141 . S
Mg277 O285 2.048 . S
Mg277 O286 2.048 . S
Mg277 O289 2.141 . S
C278 O279 1.313 . S
C278 O285 1.195 1_565 S
O279 C278 1.313 . S
C280 O281 1.245 . S
C280 O289 1.289 1_565 S
O281 C280 1.245 . S
C282 O283 1.245 . S
C282 O284 1.289 1_565 S
O283 C282 1.245 . S
O284 Mg277 2.141 . S
O284 C282 1.289 1_545 S
O285 Mg277 2.048 . S
O285 C278 1.195 1_545 S
O286 Mg277 2.048 . S
O286 C287 1.195 1_545 S
C287 O286 1.195 1_565 S
C287 O288 1.313 . S
O288 C287 1.313 . S
O289 Mg277 2.141 . S
O289 C280 1.289 1_545 S
Mg290 O297 2.141 . S
Mg290 O298 2.048 . S
Mg290 O299 2.048 . S
Mg290 O302 2.141 . S
C291 O292 1.313 . S
C291 O298 1.195 . S
O292 C291 1.313 . S
C293 O294 1.245 . S
C293 O302 1.289 . S
O294 C293 1.245 . S
C295 O296 1.245 . S
C295 O297 1.289 . S
O296 C295 1.245 . S
O297 Mg290 2.141 . S
O297 C295 1.289 . S
O298 Mg290 2.048 . S
O298 C291 1.195 . S
O299 Mg290 2.048 . S
O299 C300 1.195 . S
C300 O299 1.195 . S
C300 O301 1.313 . S
O301 C300 1.313 . S
O302 Mg290 2.141 . S
O302 C293 1.289 . S
H303 C311 0.929 1_455 S
H304 C313 0.930 1_455 S
H305 C315 0.930 . S
H306 C318 0.929 . S
H307 C321 0.930 . S
H308 C323 0.960 . S
H309 C323 0.960 . S
H310 C323 0.960 . S
C311 H303 0.929 1_655 S
C311 C312 1.377 . S
C311 C313 1.384 . S
C312 C311 1.377 . S
C312 C318 1.390 . S
C313 H304 0.930 1_655 S
C313 C311 1.384 . S
C313 C314 1.372 . S
C314 C313 1.372 . S
C314 C315 1.400 . S
C314 C319 1.490 . S
C315 H305 0.930 . S
C315 C314 1.400 . S
C315 C318 1.386 . S
H316 C332 0.930 . S
H317 C333 0.931 . S
C318 H306 0.929 . S
C318 C312 1.390 . S
C318 C315 1.386 . S
C319 C314 1.490 . S
C319 C321 1.395 1_655 S
C319 C322 1.403 . S
H320 C326 0.930 . S
C321 H307 0.930 . S
C321 C319 1.395 1_455 S
C321 C324 1.403 . S
C322 C319 1.403 . S
C322 C323 1.524 . S
C322 C326 1.400 . S
C323 H308 0.960 . S
C323 H309 0.960 . S
C323 H310 0.960 . S
C323 C322 1.524 . S
C324 C321 1.403 . S
C324 C325 1.392 1_455 S
C324 C328 1.495 . S
C325 C324 1.392 1_655 S
C325 C326 1.385 . S
C325 C327 1.478 . S
C326 H320 0.930 . S
C326 C322 1.400 . S
C326 C325 1.385 . S
C327 C325 1.478 . S
C327 C329 1.381 1_655 S
C327 C333 1.383 . S
C328 C324 1.495 . S
C328 H334 0.959 . S
C328 H335 0.961 . S
C328 H336 0.960 . S
C329 C327 1.381 1_455 S
C329 C330 1.394 . S
C329 H337 0.930 . S
C330 C329 1.394 . S
C330 C331 1.404 . S
C330 H338 0.929 . S
C331 C330 1.404 . S
C331 C332 1.363 1_455 S
C332 H316 0.930 . S
C332 C331 1.363 1_655 S
C332 C333 1.379 . S
C333 H317 0.931 . S
C333 C327 1.383 . S
C333 C332 1.379 . S
H334 C328 0.959 . S
H335 C328 0.961 . S
H336 C328 0.960 . S
H337 C329 0.930 . S
H338 C330 0.929 . S
H339 C347 0.929 1_545 S
H340 C349 0.930 . S
H341 C351 0.930 . S
H342 C354 0.929 . S
H343 C357 0.930 1_545 S
H344 C359 0.960 . S
H345 C359 0.960 . S
H346 C359 0.960 . S
C347 H339 0.929 1_565 S
C347 C348 1.377 . S
C347 C349 1.384 1_565 S
C348 C347 1.377 . S
C348 C354 1.390 . S
C349 H340 0.930 . S
C349 C347 1.384 1_545 S
C349 C350 1.372 1_545 S
C350 C349 1.372 1_565 S
C350 C351 1.400 . S
C350 C355 1.490 . S
C351 H341 0.930 . S
C351 C350 1.400 . S
C351 C354 1.386 . S
H352 C368 0.930 . S
H353 C369 0.931 . S
C354 H342 0.929 . S
C354 C348 1.390 . S
C354 C351 1.386 . S
C355 C350 1.490 . S
C355 C357 1.395 . S
C355 C358 1.403 . S
H356 C362 0.930 . S
C357 H343 0.930 1_565 S
C357 C355 1.395 . S
C357 C360 1.403 1_565 S
C358 C355 1.403 . S
C358 C359 1.524 . S
C358 C362 1.400 . S
C359 H344 0.960 . S
C359 H345 0.960 . S
C359 H346 0.960 . S
C359 C358 1.524 . S
C360 C357 1.403 1_545 S
C360 C361 1.392 1_545 S
C360 C364 1.495 . S
C361 C360 1.392 1_565 S
C361 C362 1.385 . S
C361 C363 1.478 . S
C362 H356 0.930 . S
C362 C358 1.400 . S
C362 C361 1.385 . S
C363 C361 1.478 . S
C363 C365 1.381 1_565 S
C363 C369 1.383 . S
C364 C360 1.495 . S
C364 H370 0.959 . S
C364 H371 0.961 . S
C364 H372 0.960 . S
C365 C363 1.381 1_545 S
C365 C366 1.394 . S
C365 H373 0.930 . S
C366 C365 1.394 . S
C366 C367 1.371 1_545 S
C366 H374 0.929 . S
C367 C366 1.371 1_565 S
C367 C368 1.401 . S
C368 H352 0.930 . S
C368 C367 1.401 . S
C368 C369 1.379 . S
C369 H353 0.931 . S
C369 C363 1.383 . S
C369 C368 1.379 . S
H370 C364 0.959 . S
H371 C364 0.961 . S
H372 C364 0.960 . S
H373 C365 0.930 . S
H374 C366 0.929 . S
H375 C383 0.929 . S
H376 C385 0.930 . S
H377 C387 0.930 . S
H378 C390 0.929 . S
H379 C393 0.930 . S
H380 C395 0.960 . S
H381 C395 0.960 . S
H382 C395 0.960 . S
C383 H375 0.929 . S
C383 C384 1.377 . S
C383 C385 1.384 . S
C384 C383 1.377 . S
C384 C390 1.390 . S
C385 H376 0.930 . S
C385 C383 1.384 . S
C385 C386 1.372 . S
C386 C385 1.372 . S
C386 C387 1.400 . S
C386 C391 1.490 . S
C387 H377 0.930 . S
C387 C386 1.400 . S
C387 C390 1.386 . S
H388 C404 0.930 . S
H389 C405 0.931 . S
C390 H378 0.929 . S
C390 C384 1.390 . S
C390 C387 1.386 . S
C391 C386 1.490 . S
C391 C393 1.395 . S
C391 C394 1.403 . S
H392 C398 0.930 . S
C393 H379 0.930 . S
C393 C391 1.395 . S
C393 C396 1.403 . S
C394 C391 1.403 . S
C394 C395 1.524 . S
C394 C398 1.400 . S
C395 H380 0.960 . S
C395 H381 0.960 . S
C395 H382 0.960 . S
C395 C394 1.524 . S
C396 C393 1.403 . S
C396 C397 1.392 . S
C396 C400 1.495 . S
C397 C396 1.392 . S
C397 C398 1.385 . S
C397 C399 1.478 . S
C398 H392 0.930 . S
C398 C394 1.400 . S
C398 C397 1.385 . S
C399 C397 1.478 . S
C399 C401 1.381 . S
C399 C405 1.383 . S
C400 C396 1.495 . S
C400 H406 0.959 . S
C400 H407 0.961 . S
C400 H408 0.960 . S
C401 C399 1.381 . S
C401 C402 1.394 . S
C401 H409 0.930 . S
C402 C401 1.394 . S
C402 C403 1.383 . S
C402 H410 0.929 . S
C403 C402 1.383 . S
C403 C404 1.377 . S
C404 H388 0.930 . S
C404 C403 1.377 . S
C404 C405 1.379 . S
C405 H389 0.931 . S
C405 C399 1.383 . S
C405 C404 1.379 . S
H406 C400 0.959 . S
H407 C400 0.961 . S
H408 C400 0.960 . S
H409 C401 0.930 . S
H410 C402 0.929 . S
H411 C419 0.929 . S
H412 C421 0.930 . S
H413 C423 0.930 . S
H414 C426 0.929 . S
H415 C429 0.930 . S
H416 C431 0.960 . S
H417 C431 0.960 . S
H418 C431 0.960 . S
C419 H411 0.929 . S
C419 C420 1.377 . S
C419 C421 1.384 . S
C420 C419 1.377 . S
C420 C426 1.390 . S
C421 H412 0.930 . S
C421 C419 1.384 . S
C421 C422 1.372 . S
C422 C421 1.372 . S
C422 C423 1.400 . S
C422 C427 1.490 . S
C423 H413 0.930 . S
C423 C422 1.400 . S
C423 C426 1.386 . S
H424 C440 0.930 . S
H425 C441 0.931 . S
C426 H414 0.929 . S
C426 C420 1.390 . S
C426 C423 1.386 . S
C427 C422 1.490 . S
C427 C429 1.395 . S
C427 C430 1.403 1_455 S
H428 C434 0.930 . S
C429 H415 0.930 . S
C429 C427 1.395 . S
C429 C432 1.403 . S
C430 C427 1.403 1_655 S
C430 C431 1.524 . S
C430 C434 1.400 . S
C431 H416 0.960 . S
C431 H417 0.960 . S
C431 H418 0.960 . S
C431 C430 1.524 . S
C432 C429 1.403 . S
C432 C433 1.392 . S
C432 C436 1.495 . S
C433 C432 1.392 . S
C433 C434 1.385 1_455 S
C433 C435 1.478 . S
C434 H428 0.930 . S
C434 C430 1.400 . S
C434 C433 1.385 1_655 S
C435 C433 1.478 . S
C435 C437 1.381 . S
C435 C441 1.383 . S
C436 C432 1.495 . S
C436 H442 0.959 . S
C436 H443 0.961 . S
C436 H444 0.960 . S
C437 C435 1.381 . S
C437 C438 1.394 . S
C437 H445 0.930 . S
C438 C437 1.394 . S
C438 C439 1.383 . S
C438 H446 0.929 1_455 S
C439 C438 1.383 . S
C439 C440 1.377 . S
C440 H424 0.930 . S
C440 C439 1.377 . S
C440 C441 1.379 . S
C441 H425 0.931 . S
C441 C435 1.383 . S
C441 C440 1.379 . S
H442 C436 0.959 . S
H443 C436 0.961 . S
H444 C436 0.960 . S
H445 C437 0.930 . S
H446 C438 0.929 1_655 S
H447 C455 0.929 . S
H448 C457 0.930 . S
H449 C459 0.930 1_565 S
H450 C462 0.929 1_565 S
H451 C465 0.930 . S
H452 C467 0.960 . S
H453 C467 0.960 . S
H454 C467 0.960 1_565 S
C455 H447 0.929 . S
C455 C456 1.377 . S
C455 C457 1.384 . S
C456 C455 1.377 . S
C456 C462 1.390 . S
C457 H448 0.930 . S
C457 C455 1.384 . S
C457 C458 1.372 . S
C458 C457 1.372 . S
C458 C459 1.400 . S
C458 C463 1.490 . S
C459 H449 0.930 1_545 S
C459 C458 1.400 . S
C459 C462 1.386 . S
H460 C476 0.930 . S
H461 C477 0.931 . S
C462 H450 0.929 1_545 S
C462 C456 1.390 . S
C462 C459 1.386 . S
C463 C458 1.490 . S
C463 C465 1.395 . S
C463 C466 1.403 . S
H464 C470 0.930 . S
C465 H451 0.930 . S
C465 C463 1.395 . S
C465 C468 1.403 . S
C466 C463 1.403 . S
C466 C467 1.524 . S
C466 C470 1.400 . S
C467 H452 0.960 . S
C467 H453 0.960 . S
C467 H454 0.960 1_545 S
C467 C466 1.524 . S
C468 C465 1.403 . S
C468 C469 1.392 . S
C468 C472 1.495 . S
C469 C468 1.392 . S
C469 C470 1.385 . S
C469 C471 1.478 . S
C470 H464 0.930 . S
C470 C466 1.400 . S
C470 C469 1.385 . S
C471 C469 1.478 . S
C471 C473 1.381 . S
C471 C477 1.383 1_545 S
C472 C468 1.495 . S
C472 H478 0.959 . S
C472 H479 0.961 . S
C472 H480 0.960 . S
C473 C471 1.381 . S
C473 C474 1.394 . S
C473 H481 0.930 . S
C474 C473 1.394 . S
C474 C475 1.383 . S
C474 H482 0.929 . S
C475 C474 1.383 . S
C475 C476 1.377 1_545 S
C476 H460 0.930 . S
C476 C475 1.377 1_565 S
C476 C477 1.379 . S
C477 H461 0.931 . S
C477 C471 1.383 1_565 S
C477 C476 1.379 . S
H478 C472 0.959 . S
H479 C472 0.961 . S
H480 C472 0.960 . S
H481 C473 0.930 . S
H482 C474 0.929 . S
H483 C491 0.929 . S
H484 C493 0.930 . S
H485 C495 0.930 . S
H486 C498 0.929 . S
H487 C501 0.930 . S
H488 C503 0.960 . S
H489 C503 0.960 . S
H490 C503 0.960 . S
C491 H483 0.929 . S
C491 C492 1.377 . S
C491 C493 1.384 . S
C492 C491 1.377 . S
C492 C498 1.390 . S
C493 H484 0.930 . S
C493 C491 1.384 . S
C493 C494 1.372 . S
C494 C493 1.372 . S
C494 C495 1.400 . S
C494 C499 1.490 . S
C495 H485 0.930 . S
C495 C494 1.400 . S
C495 C498 1.386 . S
H496 C512 0.930 . S
H497 C513 0.931 . S
C498 H486 0.929 . S
C498 C492 1.390 . S
C498 C495 1.386 . S
C499 C494 1.490 . S
C499 C501 1.395 . S
C499 C502 1.403 . S
H500 C506 0.930 . S
C501 H487 0.930 . S
C501 C499 1.395 . S
C501 C504 1.403 . S
C502 C499 1.403 . S
C502 C503 1.524 . S
C502 C506 1.400 . S
C503 H488 0.960 . S
C503 H489 0.960 . S
C503 H490 0.960 . S
C503 C502 1.524 . S
C504 C501 1.403 . S
C504 C505 1.392 . S
C504 C508 1.495 . S
C505 C504 1.392 . S
C505 C506 1.385 . S
C505 C507 1.478 . S
C506 H500 0.930 . S
C506 C502 1.400 . S
C506 C505 1.385 . S
C507 C505 1.478 . S
C507 C509 1.381 . S
C507 C513 1.383 . S
C508 C504 1.495 . S
C508 H514 0.959 . S
C508 H515 0.961 . S
C508 H516 0.960 . S
C509 C507 1.381 . S
C509 C510 1.394 . S
C509 H517 0.930 . S
C510 C509 1.394 . S
C510 C511 1.383 . S
C510 H518 0.929 . S
C511 C510 1.383 . S
C511 C512 1.377 . S
C512 H496 0.930 . S
C512 C511 1.377 . S
C512 C513 1.379 . S
C513 H497 0.931 . S
C513 C507 1.383 . S
C513 C512 1.379 . S
H514 C508 0.959 . S
H515 C508 0.961 . S
H516 C508 0.960 . S
H517 C509 0.930 . S
H518 C510 0.929 . S
H519 C527 0.929 1_565 S
H520 C529 0.930 1_565 S
H521 C531 0.930 . S
H522 C534 0.929 . S
H523 C537 0.930 . S
H524 C539 0.960 . S
H525 C539 0.960 . S
H526 C539 0.960 . S
C527 H519 0.929 1_545 S
C527 C528 1.377 . S
C527 C529 1.384 . S
C528 C527 1.377 . S
C528 C534 1.390 . S
C529 H520 0.930 1_545 S
C529 C527 1.384 . S
C529 C530 1.372 . S
C530 C529 1.372 . S
C530 C531 1.400 . S
C530 C535 1.490 . S
C531 H521 0.930 . S
C531 C530 1.400 . S
C531 C534 1.386 . S
H532 C548 0.930 . S
H533 C549 0.931 . S
C534 H522 0.929 . S
C534 C528 1.390 . S
C534 C531 1.386 . S
C535 C530 1.490 . S
C535 C537 1.395 1_545 S
C535 C538 1.403 . S
H536 C542 0.930 . S
C537 H523 0.930 . S
C537 C535 1.395 1_565 S
C537 C540 1.403 . S
C538 C535 1.403 . S
C538 C539 1.524 . S
C538 C542 1.400 . S
C539 H524 0.960 . S
C539 H525 0.960 . S
C539 H526 0.960 . S
C539 C538 1.524 . S
C540 C537 1.403 . S
C540 C541 1.392 1_565 S
C540 C544 1.495 . S
C541 C540 1.392 1_545 S
C541 C542 1.385 . S
C541 C543 1.478 . S
C542 H536 0.930 . S
C542 C538 1.400 . S
C542 C541 1.385 . S
C543 C541 1.478 . S
C543 C545 1.381 1_545 S
C543 C549 1.383 . S
C544 C540 1.495 . S
C544 H550 0.959 . S
C544 H551 0.961 . S
C544 H552 0.960 . S
C545 C543 1.381 1_565 S
C545 C546 1.394 . S
C545 H553 0.930 . S
C546 C545 1.394 . S
C546 C547 1.381 . S
C546 H554 0.929 . S
C547 C546 1.381 . S
C547 C548 1.379 1_565 S
C548 H532 0.930 . S
C548 C547 1.379 1_545 S
C548 C549 1.379 . S
C549 H533 0.931 . S
C549 C543 1.383 . S
C549 C548 1.379 . S
H550 C544 0.959 . S
H551 C544 0.961 . S
H552 C544 0.960 . S
H553 C545 0.930 . S
H554 C546 0.929 . S
H555 C563 0.929 . S
H556 C565 0.930 . S
H557 C567 0.930 . S
H558 C570 0.929 . S
H559 C573 0.930 . S
H560 C575 0.960 . S
H561 C575 0.960 . S
H562 C575 0.960 . S
C563 H555 0.929 . S
C563 C564 1.377 . S
C563 C565 1.384 . S
C564 C563 1.377 . S
C564 C570 1.390 . S
C565 H556 0.930 . S
C565 C563 1.384 . S
C565 C566 1.372 . S
C566 C565 1.372 . S
C566 C567 1.400 . S
C566 C571 1.490 1_554 S
C567 H557 0.930 . S
C567 C566 1.400 . S
C567 C570 1.386 . S
H568 C584 0.930 . S
H569 C585 0.931 . S
C570 H558 0.929 . S
C570 C564 1.390 . S
C570 C567 1.386 . S
C571 C566 1.490 1_556 S
C571 C573 1.395 . S
C571 C574 1.403 . S
H572 C578 0.930 . S
C573 H559 0.930 . S
C573 C571 1.395 . S
C573 C576 1.403 . S
C574 C571 1.403 . S
C574 C575 1.524 1_556 S
C574 C578 1.400 . S
C575 H560 0.960 . S
C575 H561 0.960 . S
C575 H562 0.960 . S
C575 C574 1.524 1_554 S
C576 C573 1.403 . S
C576 C577 1.392 . S
C576 C580 1.495 . S
C577 C576 1.392 . S
C577 C578 1.385 . S
C577 C579 1.478 . S
C578 H572 0.930 . S
C578 C574 1.400 . S
C578 C577 1.385 . S
C579 C577 1.478 . S
C579 C581 1.381 . S
C579 C585 1.383 . S
C580 C576 1.495 . S
C580 H586 0.959 . S
C580 H587 0.961 . S
C580 H588 0.960 . S
C581 C579 1.381 . S
C581 C582 1.394 . S
C581 H589 0.930 . S
C582 C581 1.394 . S
C582 C583 1.383 . S
C582 H590 0.929 . S
C583 C582 1.383 . S
C583 C584 1.377 . S
C584 H568 0.930 . S
C584 C583 1.377 . S
C584 C585 1.379 . S
C585 H569 0.931 . S
C585 C579 1.383 . S
C585 C584 1.379 . S
H586 C580 0.959 . S
H587 C580 0.961 . S
H588 C580 0.960 . S
H589 C581 0.930 . S
H590 C582 0.929 . S
H591 C599 0.929 . S
H592 C601 0.930 . S
H593 C603 0.930 1_455 S
H594 C606 0.929 1_455 S
H595 C609 0.930 . S
H596 C611 0.960 . S
H597 C611 0.960 . S
H598 C611 0.960 . S
C599 H591 0.929 . S
C599 C600 1.377 . S
C599 C601 1.384 . S
C600 C599 1.377 . S
C600 C606 1.390 . S
C601 H592 0.930 . S
C601 C599 1.384 . S
C601 C602 1.372 . S
C602 C601 1.372 . S
C602 C603 1.400 . S
C602 C607 1.490 . S
C603 H593 0.930 1_655 S
C603 C602 1.400 . S
C603 C606 1.386 . S
H604 C620 0.930 . S
H605 C621 0.931 . S
C606 H594 0.929 1_655 S
C606 C600 1.390 . S
C606 C603 1.386 . S
C607 C602 1.490 . S
C607 C609 1.395 . S
C607 C610 1.403 . S
H608 C614 0.930 . S
C609 H595 0.930 . S
C609 C607 1.395 . S
C609 C612 1.403 . S
C610 C607 1.403 . S
C610 C611 1.524 . S
C610 C614 1.400 . S
C611 H596 0.960 . S
C611 H597 0.960 . S
C611 H598 0.960 . S
C611 C610 1.524 . S
C612 C609 1.403 . S
C612 C613 1.392 . S
C612 C616 1.495 . S
C613 C612 1.392 . S
C613 C614 1.385 . S
C613 C615 1.478 . S
C614 H608 0.930 . S
C614 C610 1.400 . S
C614 C613 1.385 . S
C615 C613 1.478 . S
C615 C617 1.381 . S
C615 C621 1.383 1_655 S
C616 C612 1.495 . S
C616 H622 0.959 . S
C616 H623 0.961 1_655 S
C616 H624 0.960 . S
C617 C615 1.381 . S
C617 C618 1.394 . S
C617 H625 0.930 . S
C618 C617 1.394 . S
C618 C619 1.383 . S
C618 H626 0.929 . S
C619 C618 1.383 . S
C619 C620 1.377 1_655 S
C620 H604 0.930 . S
C620 C619 1.377 1_455 S
C620 C621 1.379 . S
C621 H605 0.931 . S
C621 C615 1.383 1_455 S
C621 C620 1.379 . S
H622 C616 0.959 . S
H623 C616 0.961 1_455 S
H624 C616 0.960 . S
H625 C617 0.930 . S
H626 C618 0.929 . S
H627 C635 0.929 . S
H628 C637 0.931 . S
H629 C639 0.930 . S
H630 C642 0.929 . S
H631 C645 0.930 . S
H632 C647 0.960 . S
H633 C647 0.960 . S
H634 C647 0.960 1_565 S
C635 H627 0.929 . S
C635 C636 1.377 . S
C635 C637 1.384 . S
C636 C635 1.377 . S
C636 C642 1.390 . S
C637 H628 0.931 . S
C637 C635 1.384 . S
C637 C638 1.372 . S
C638 C637 1.372 . S
C638 C639 1.400 . S
C638 C643 1.490 . S
C639 H629 0.930 . S
C639 C638 1.400 . S
C639 C642 1.386 . S
H640 C656 0.930 . S
H641 C657 0.931 . S
C642 H630 0.929 . S
C642 C636 1.390 . S
C642 C639 1.386 . S
C643 C638 1.490 . S
C643 C645 1.395 . S
C643 C646 1.403 . S
H644 C650 0.930 1_545 S
C645 H631 0.930 . S
C645 C643 1.395 . S
C645 C648 1.403 . S
C646 C643 1.403 . S
C646 C647 1.524 1_565 S
C646 C650 1.400 . S
C647 H632 0.960 . S
C647 H633 0.960 . S
C647 H634 0.960 1_545 S
C647 C646 1.524 1_545 S
C648 C645 1.403 . S
C648 C649 1.392 . S
C648 C652 1.495 . S
C649 C648 1.392 . S
C649 C650 1.385 . S
C649 C651 1.478 . S
C650 H644 0.930 1_565 S
C650 C646 1.400 . S
C650 C649 1.385 . S
C651 C649 1.478 . S
C651 C653 1.381 1_565 S
C651 C657 1.383 . S
C652 C648 1.495 . S
C652 H658 0.959 . S
C652 H659 0.961 . S
C652 H660 0.960 . S
C653 C651 1.381 1_545 S
C653 C654 1.394 . S
C653 H661 0.930 . S
C654 C653 1.394 . S
C654 C655 1.383 1_545 S
C654 H662 0.929 . S
C655 C654 1.383 1_565 S
C655 C656 1.377 . S
C656 H640 0.930 . S
C656 C655 1.377 . S
C656 C657 1.379 . S
C657 H641 0.931 . S
C657 C651 1.383 . S
C657 C656 1.379 . S
H658 C652 0.959 . S
H659 C652 0.961 . S
H660 C652 0.960 . S
H661 C653 0.930 . S
H662 C654 0.929 . S
H663 C671 0.929 . S
H664 C673 0.930 1_556 S
H665 C675 0.930 . S
H666 C678 0.929 . S
H667 C681 0.930 . S
H668 C683 0.960 . S
H669 C683 0.960 . S
H670 C683 0.960 1_554 S
C671 H663 0.929 . S
C671 C672 1.377 . S
C671 C673 1.384 . S
C672 C671 1.377 . S
C672 C678 1.390 . S
C673 H664 0.930 1_554 S
C673 C671 1.384 . S
C673 C674 1.372 . S
C674 C673 1.372 . S
C674 C675 1.400 . S
C674 C679 1.490 1_554 S
C675 H665 0.930 . S
C675 C674 1.400 . S
C675 C678 1.386 . S
H676 C692 0.930 . S
H677 C693 0.931 . S
C678 H666 0.929 . S
C678 C672 1.390 . S
C678 C675 1.386 . S
C679 C674 1.490 1_556 S
C679 C681 1.395 . S
C679 C682 1.403 . S
H680 C686 0.930 . S
C681 H667 0.930 . S
C681 C679 1.395 . S
C681 C684 1.403 . S
C682 C679 1.403 . S
C682 C683 1.524 . S
C682 C686 1.400 . S
C683 H668 0.960 . S
C683 H669 0.960 . S
C683 H670 0.960 1_556 S
C683 C682 1.524 . S
C684 C681 1.403 . S
C684 C685 1.392 . S
C684 C688 1.495 . S
C685 C684 1.392 . S
C685 C686 1.385 . S
C685 C687 1.478 . S
C686 H680 0.930 . S
C686 C682 1.400 . S
C686 C685 1.385 . S
C687 C685 1.478 . S
C687 C689 1.381 . S
C687 C693 1.383 . S
C688 C684 1.495 . S
C688 H694 0.959 . S
C688 H695 0.961 . S
C688 H696 0.960 . S
C689 C687 1.381 . S
C689 C690 1.394 . S
C689 H697 0.930 . S
C690 C689 1.394 . S
C690 C691 1.383 . S
C690 H698 0.929 . S
C691 C690 1.383 . S
C691 C692 1.377 . S
C692 H676 0.930 . S
C692 C691 1.377 . S
C692 C693 1.379 . S
C693 H677 0.931 . S
C693 C687 1.383 . S
C693 C692 1.379 . S
H694 C688 0.959 . S
H695 C688 0.961 . S
H696 C688 0.960 . S
H697 C689 0.930 . S
H698 C690 0.929 . S
H699 C707 0.929 . S
H700 C709 0.930 . S
H701 C711 0.930 . S
H702 C714 0.929 . S
H703 C717 0.930 . S
H704 C719 0.960 . S
H705 C719 0.960 . S
H706 C719 0.960 . S
C707 H699 0.929 . S
C707 C708 1.377 . S
C707 C709 1.384 . S
C708 C707 1.377 . S
C708 C714 1.390 . S
C709 H700 0.930 . S
C709 C707 1.384 . S
C709 C710 1.372 . S
C710 C709 1.372 . S
C710 C711 1.400 . S
C710 C715 1.490 . S
C711 H701 0.930 . S
C711 C710 1.400 . S
C711 C714 1.386 . S
H712 C728 0.930 . S
H713 C729 0.931 . S
C714 H702 0.929 . S
C714 C708 1.390 . S
C714 C711 1.386 . S
C715 C710 1.490 . S
C715 C717 1.395 1_455 S
C715 C718 1.403 . S
H716 C722 0.930 . S
C717 H703 0.930 . S
C717 C715 1.395 1_655 S
C717 C720 1.403 . S
C718 C715 1.403 . S
C718 C719 1.524 . S
C718 C722 1.400 . S
C719 H704 0.960 . S
C719 H705 0.960 . S
C719 H706 0.960 . S
C719 C718 1.524 . S
C720 C717 1.403 . S
C720 C721 1.392 1_655 S
C720 C724 1.495 . S
C721 C720 1.392 1_455 S
C721 C722 1.385 . S
C721 C723 1.478 . S
C722 H716 0.930 . S
C722 C718 1.400 . S
C722 C721 1.385 . S
C723 C721 1.478 . S
C723 C725 1.381 . S
C723 C729 1.383 1_455 S
C724 C720 1.495 . S
C724 H730 0.959 . S
C724 H731 0.961 . S
C724 H732 0.960 . S
C725 C723 1.381 . S
C725 C726 1.394 . S
C725 H733 0.930 . S
C726 C725 1.394 . S
C726 C727 1.381 1_455 S
C726 H734 0.929 . S
C727 C726 1.381 1_655 S
C727 C728 1.377 . S
C728 H712 0.930 . S
C728 C727 1.377 . S
C728 C729 1.379 . S
C729 H713 0.931 . S
C729 C723 1.383 1_655 S
C729 C728 1.379 . S
H730 C724 0.959 . S
H731 C724 0.961 . S
H732 C724 0.960 . S
H733 C725 0.930 . S
H734 C726 0.929 . S
C331 C269 1.324 1_455 S
C312 C29 1.322 . S
C348 C137 1.404 . S
C367 C287 1.406 . S
C384 C225 1.414 . S
C403 C300 1.428 . S
C420 C49 1.323 . S
C439 C267 1.344 1_455 S
C475 C278 1.424 1_545 S
C456 C117 1.408 . S
C492 C205 1.412 . S
C511 C291 1.427 . S
C547 C280 1.325 . S
C528 C233 1.320 . S
C564 C57 1.327 . S
C583 C293 1.345 . S
C619 C274 1.409 . S
C600 C108 1.412 . S
C655 C282 1.299 . S
C636 C196 1.313 . S
C691 C295 1.337 . S
C672 C20 1.322 . S
C708 C145 1.408 . S
C727 C265 1.417 . S
