# Generated by pormake.
# Topology gar, (4,6)-cn, num edge types: 1
# Building blocks:
#     Node 0, Type 0, BuildingBlock: KUFVIS_clean_sbu_0, # of connection points: 4
#     Node 1, Type 0, BuildingBlock: KUFVIS_clean_sbu_0, # of connection points: 4
#     Node 2, Type 0, BuildingBlock: KUFVIS_clean_sbu_0, # of connection points: 4
#     Node 3, Type 0, BuildingBlock: KUFVIS_clean_sbu_0, # of connection points: 4
#     Node 4, Type 0, BuildingBlock: KUFVIS_clean_sbu_0, # of connection points: 4
#     Node 5, Type 0, BuildingBlock: KUFVIS_clean_sbu_0, # of connection points: 4
#     Node 6, Type 0, BuildingBlock: KUFVIS_clean_sbu_0, # of connection points: 4
#     Node 7, Type 0, BuildingBlock: KUFVIS_clean_sbu_0, # of connection points: 4
#     Node 8, Type 0, BuildingBlock: KUFVIS_clean_sbu_0, # of connection points: 4
#     Node 9, Type 0, BuildingBlock: KUFVIS_clean_sbu_0, # of connection points: 4
#     Node 10, Type 0, BuildingBlock: KUFVIS_clean_sbu_0, # of connection points: 4
#     Node 11, Type 0, BuildingBlock: KUFVIS_clean_sbu_0, # of connection points: 4
#     Node 12, Type 0, BuildingBlock: KUFVIS_clean_sbu_0, # of connection points: 4
#     Node 13, Type 0, BuildingBlock: KUFVIS_clean_sbu_0, # of connection points: 4
#     Node 14, Type 0, BuildingBlock: KUFVIS_clean_sbu_0, # of connection points: 4
#     Node 15, Type 0, BuildingBlock: KUFVIS_clean_sbu_0, # of connection points: 4
#     Node 16, Type 0, BuildingBlock: KUFVIS_clean_sbu_0, # of connection points: 4
#     Node 17, Type 0, BuildingBlock: KUFVIS_clean_sbu_0, # of connection points: 4
#     Node 18, Type 0, BuildingBlock: KUFVIS_clean_sbu_0, # of connection points: 4
#     Node 19, Type 0, BuildingBlock: KUFVIS_clean_sbu_0, # of connection points: 4
#     Node 20, Type 0, BuildingBlock: KUFVIS_clean_sbu_0, # of connection points: 4
#     Node 21, Type 0, BuildingBlock: KUFVIS_clean_sbu_0, # of connection points: 4
#     Node 22, Type 0, BuildingBlock: KUFVIS_clean_sbu_0, # of connection points: 4
#     Node 23, Type 0, BuildingBlock: KUFVIS_clean_sbu_0, # of connection points: 4
#     Node 24, Type 1, BuildingBlock: PAMTUU_clean_sbu_0, # of connection points: 6
#     Node 25, Type 1, BuildingBlock: PAMTUU_clean_sbu_0, # of connection points: 6
#     Node 26, Type 1, BuildingBlock: PAMTUU_clean_sbu_0, # of connection points: 6
#     Node 27, Type 1, BuildingBlock: PAMTUU_clean_sbu_0, # of connection points: 6
#     Node 28, Type 1, BuildingBlock: PAMTUU_clean_sbu_0, # of connection points: 6
#     Node 29, Type 1, BuildingBlock: PAMTUU_clean_sbu_0, # of connection points: 6
#     Node 30, Type 1, BuildingBlock: PAMTUU_clean_sbu_0, # of connection points: 6
#     Node 31, Type 1, BuildingBlock: PAMTUU_clean_sbu_0, # of connection points: 6
#     Node 32, Type 1, BuildingBlock: PAMTUU_clean_sbu_0, # of connection points: 6
#     Node 33, Type 1, BuildingBlock: PAMTUU_clean_sbu_0, # of connection points: 6
#     Node 34, Type 1, BuildingBlock: PAMTUU_clean_sbu_0, # of connection points: 6
#     Node 35, Type 1, BuildingBlock: PAMTUU_clean_sbu_0, # of connection points: 6
#     Node 36, Type 1, BuildingBlock: PAMTUU_clean_sbu_0, # of connection points: 6
#     Node 37, Type 1, BuildingBlock: PAMTUU_clean_sbu_0, # of connection points: 6
#     Node 38, Type 1, BuildingBlock: PAMTUU_clean_sbu_0, # of connection points: 6
#     Node 39, Type 1, BuildingBlock: PAMTUU_clean_sbu_0, # of connection points: 6
#     Edge 40, Type (0, 1), BuildingBlock: TEMPAE_clean_linker_10, # of connection points: 2
#     Edge 41, Type (0, 1), BuildingBlock: TEMPAE_clean_linker_10, # of connection points: 2
#     Edge 42, Type (0, 1), BuildingBlock: TEMPAE_clean_linker_10, # of connection points: 2
#     Edge 43, Type (0, 1), BuildingBlock: TEMPAE_clean_linker_10, # of connection points: 2
#     Edge 44, Type (0, 1), BuildingBlock: TEMPAE_clean_linker_10, # of connection points: 2
#     Edge 45, Type (0, 1), BuildingBlock: TEMPAE_clean_linker_10, # of connection points: 2
#     Edge 46, Type (0, 1), BuildingBlock: TEMPAE_clean_linker_10, # of connection points: 2
#     Edge 47, Type (0, 1), BuildingBlock: TEMPAE_clean_linker_10, # of connection points: 2
#     Edge 48, Type (0, 1), BuildingBlock: TEMPAE_clean_linker_10, # of connection points: 2
#     Edge 49, Type (0, 1), BuildingBlock: TEMPAE_clean_linker_10, # of connection points: 2
#     Edge 50, Type (0, 1), BuildingBlock: TEMPAE_clean_linker_10, # of connection points: 2
#     Edge 51, Type (0, 1), BuildingBlock: TEMPAE_clean_linker_10, # of connection points: 2
#     Edge 52, Type (0, 1), BuildingBlock: TEMPAE_clean_linker_10, # of connection points: 2
#     Edge 53, Type (0, 1), BuildingBlock: TEMPAE_clean_linker_10, # of connection points: 2
#     Edge 54, Type (0, 1), BuildingBlock: TEMPAE_clean_linker_10, # of connection points: 2
#     Edge 55, Type (0, 1), BuildingBlock: TEMPAE_clean_linker_10, # of connection points: 2
#     Edge 56, Type (0, 1), BuildingBlock: TEMPAE_clean_linker_10, # of connection points: 2
#     Edge 57, Type (0, 1), BuildingBlock: TEMPAE_clean_linker_10, # of connection points: 2
#     Edge 58, Type (0, 1), BuildingBlock: TEMPAE_clean_linker_10, # of connection points: 2
#     Edge 59, Type (0, 1), BuildingBlock: TEMPAE_clean_linker_10, # of connection points: 2
#     Edge 60, Type (0, 1), BuildingBlock: TEMPAE_clean_linker_10, # of connection points: 2
#     Edge 61, Type (0, 1), BuildingBlock: TEMPAE_clean_linker_10, # of connection points: 2
#     Edge 62, Type (0, 1), BuildingBlock: TEMPAE_clean_linker_10, # of connection points: 2
#     Edge 63, Type (0, 1), BuildingBlock: TEMPAE_clean_linker_10, # of connection points: 2
#     Edge 64, Type (0, 1), BuildingBlock: TEMPAE_clean_linker_10, # of connection points: 2
#     Edge 65, Type (0, 1), BuildingBlock: TEMPAE_clean_linker_10, # of connection points: 2
#     Edge 66, Type (0, 1), BuildingBlock: TEMPAE_clean_linker_10, # of connection points: 2
#     Edge 67, Type (0, 1), BuildingBlock: TEMPAE_clean_linker_10, # of connection points: 2
#     Edge 68, Type (0, 1), BuildingBlock: TEMPAE_clean_linker_10, # of connection points: 2
#     Edge 69, Type (0, 1), BuildingBlock: TEMPAE_clean_linker_10, # of connection points: 2
#     Edge 70, Type (0, 1), BuildingBlock: TEMPAE_clean_linker_10, # of connection points: 2
#     Edge 71, Type (0, 1), BuildingBlock: TEMPAE_clean_linker_10, # of connection points: 2
#     Edge 72, Type (0, 1), BuildingBlock: TEMPAE_clean_linker_10, # of connection points: 2
#     Edge 73, Type (0, 1), BuildingBlock: TEMPAE_clean_linker_10, # of connection points: 2
#     Edge 74, Type (0, 1), BuildingBlock: TEMPAE_clean_linker_10, # of connection points: 2
#     Edge 75, Type (0, 1), BuildingBlock: TEMPAE_clean_linker_10, # of connection points: 2
#     Edge 76, Type (0, 1), BuildingBlock: TEMPAE_clean_linker_10, # of connection points: 2
#     Edge 77, Type (0, 1), BuildingBlock: TEMPAE_clean_linker_10, # of connection points: 2
#     Edge 78, Type (0, 1), BuildingBlock: TEMPAE_clean_linker_10, # of connection points: 2
#     Edge 79, Type (0, 1), BuildingBlock: TEMPAE_clean_linker_10, # of connection points: 2
#     Edge 80, Type (0, 1), BuildingBlock: TEMPAE_clean_linker_10, # of connection points: 2
#     Edge 81, Type (0, 1), BuildingBlock: TEMPAE_clean_linker_10, # of connection points: 2
#     Edge 82, Type (0, 1), BuildingBlock: TEMPAE_clean_linker_10, # of connection points: 2
#     Edge 83, Type (0, 1), BuildingBlock: TEMPAE_clean_linker_10, # of connection points: 2
#     Edge 84, Type (0, 1), BuildingBlock: TEMPAE_clean_linker_10, # of connection points: 2
#     Edge 85, Type (0, 1), BuildingBlock: TEMPAE_clean_linker_10, # of connection points: 2
#     Edge 86, Type (0, 1), BuildingBlock: TEMPAE_clean_linker_10, # of connection points: 2
#     Edge 87, Type (0, 1), BuildingBlock: TEMPAE_clean_linker_10, # of connection points: 2
#     Edge 88, Type (0, 1), BuildingBlock: TEMPAE_clean_linker_10, # of connection points: 2
#     Edge 89, Type (0, 1), BuildingBlock: TEMPAE_clean_linker_10, # of connection points: 2
#     Edge 90, Type (0, 1), BuildingBlock: TEMPAE_clean_linker_10, # of connection points: 2
#     Edge 91, Type (0, 1), BuildingBlock: TEMPAE_clean_linker_10, # of connection points: 2
#     Edge 92, Type (0, 1), BuildingBlock: TEMPAE_clean_linker_10, # of connection points: 2
#     Edge 93, Type (0, 1), BuildingBlock: TEMPAE_clean_linker_10, # of connection points: 2
#     Edge 94, Type (0, 1), BuildingBlock: TEMPAE_clean_linker_10, # of connection points: 2
#     Edge 95, Type (0, 1), BuildingBlock: TEMPAE_clean_linker_10, # of connection points: 2
#     Edge 96, Type (0, 1), BuildingBlock: TEMPAE_clean_linker_10, # of connection points: 2
#     Edge 97, Type (0, 1), BuildingBlock: TEMPAE_clean_linker_10, # of connection points: 2
#     Edge 98, Type (0, 1), BuildingBlock: TEMPAE_clean_linker_10, # of connection points: 2
#     Edge 99, Type (0, 1), BuildingBlock: TEMPAE_clean_linker_10, # of connection points: 2
#     Edge 100, Type (0, 1), BuildingBlock: TEMPAE_clean_linker_10, # of connection points: 2
#     Edge 101, Type (0, 1), BuildingBlock: TEMPAE_clean_linker_10, # of connection points: 2
#     Edge 102, Type (0, 1), BuildingBlock: TEMPAE_clean_linker_10, # of connection points: 2
#     Edge 103, Type (0, 1), BuildingBlock: TEMPAE_clean_linker_10, # of connection points: 2
#     Edge 104, Type (0, 1), BuildingBlock: TEMPAE_clean_linker_10, # of connection points: 2
#     Edge 105, Type (0, 1), BuildingBlock: TEMPAE_clean_linker_10, # of connection points: 2
#     Edge 106, Type (0, 1), BuildingBlock: TEMPAE_clean_linker_10, # of connection points: 2
#     Edge 107, Type (0, 1), BuildingBlock: TEMPAE_clean_linker_10, # of connection points: 2
#     Edge 108, Type (0, 1), BuildingBlock: TEMPAE_clean_linker_10, # of connection points: 2
#     Edge 109, Type (0, 1), BuildingBlock: TEMPAE_clean_linker_10, # of connection points: 2
#     Edge 110, Type (0, 1), BuildingBlock: TEMPAE_clean_linker_10, # of connection points: 2
#     Edge 111, Type (0, 1), BuildingBlock: TEMPAE_clean_linker_10, # of connection points: 2
#     Edge 112, Type (0, 1), BuildingBlock: TEMPAE_clean_linker_10, # of connection points: 2
#     Edge 113, Type (0, 1), BuildingBlock: TEMPAE_clean_linker_10, # of connection points: 2
#     Edge 114, Type (0, 1), BuildingBlock: TEMPAE_clean_linker_10, # of connection points: 2
#     Edge 115, Type (0, 1), BuildingBlock: TEMPAE_clean_linker_10, # of connection points: 2
#     Edge 116, Type (0, 1), BuildingBlock: TEMPAE_clean_linker_10, # of connection points: 2
#     Edge 117, Type (0, 1), BuildingBlock: TEMPAE_clean_linker_10, # of connection points: 2
#     Edge 118, Type (0, 1), BuildingBlock: TEMPAE_clean_linker_10, # of connection points: 2
#     Edge 119, Type (0, 1), BuildingBlock: TEMPAE_clean_linker_10, # of connection points: 2
#     Edge 120, Type (0, 1), BuildingBlock: TEMPAE_clean_linker_10, # of connection points: 2
#     Edge 121, Type (0, 1), BuildingBlock: TEMPAE_clean_linker_10, # of connection points: 2
#     Edge 122, Type (0, 1), BuildingBlock: TEMPAE_clean_linker_10, # of connection points: 2
#     Edge 123, Type (0, 1), BuildingBlock: TEMPAE_clean_linker_10, # of connection points: 2
#     Edge 124, Type (0, 1), BuildingBlock: TEMPAE_clean_linker_10, # of connection points: 2
#     Edge 125, Type (0, 1), BuildingBlock: TEMPAE_clean_linker_10, # of connection points: 2
#     Edge 126, Type (0, 1), BuildingBlock: TEMPAE_clean_linker_10, # of connection points: 2
#     Edge 127, Type (0, 1), BuildingBlock: TEMPAE_clean_linker_10, # of connection points: 2
#     Edge 128, Type (0, 1), BuildingBlock: TEMPAE_clean_linker_10, # of connection points: 2
#     Edge 129, Type (0, 1), BuildingBlock: TEMPAE_clean_linker_10, # of connection points: 2
#     Edge 130, Type (0, 1), BuildingBlock: TEMPAE_clean_linker_10, # of connection points: 2
#     Edge 131, Type (0, 1), BuildingBlock: TEMPAE_clean_linker_10, # of connection points: 2
#     Edge 132, Type (0, 1), BuildingBlock: TEMPAE_clean_linker_10, # of connection points: 2
#     Edge 133, Type (0, 1), BuildingBlock: TEMPAE_clean_linker_10, # of connection points: 2
#     Edge 134, Type (0, 1), BuildingBlock: TEMPAE_clean_linker_10, # of connection points: 2
#     Edge 135, Type (0, 1), BuildingBlock: TEMPAE_clean_linker_10, # of connection points: 2
# Relax obj value: 0.169
# Max RMSD: 0.330
# Mean RMSD: 0.159
data_MOF--net-gar--node1-KUFVIS_clean_sbu_0--node2-PAMTUU_clean_sbu_0--edge1-TEMPAE_clean_linker_10
_symmetry_space_group_name_H-M    P1
_symmetry_Int_Tables_number       1
_symmetry_cell_setting            triclinic
loop_
_symmetry_equiv_pos_as_xyz
'x, y, z'
_cell_length_a     60.700321
_cell_length_b     56.79369
_cell_length_c     61.242886
_cell_angle_alpha  93.829942
_cell_angle_beta   93.722009
_cell_angle_gamma 107.11693
loop_
_atom_site_label
_atom_site_type_symbol
_atom_site_fract_x
_atom_site_fract_y
_atom_site_fract_z
_atom_type_partial_charge
Mn0 Mn 0.04828 0.27258 0.40159 0.0
Mn1 Mn 0.05297 0.31313 0.36185 0.0
C2 C 0.01203 0.27796 0.38139 0.0
C3 C 0.04753 0.23237 0.42009 0.0
C4 C 0.05958 0.33156 0.41134 0.0
O5 O 0.08373 0.2779 0.39054 0.0
O6 O 0.08233 0.30211 0.36341 0.0
C7 C 0.05197 0.27863 0.32294 0.0
N8 N 0.04352 0.29564 0.33337 0.0
C9 C 0.01837 0.29563 0.30134 0.0
C10 C 0.027 0.27834 0.29017 0.0
C11 C 0.0437 0.26962 0.3011 0.0
C12 C 0.02682 0.30343 0.32327 0.0
H13 H 0.06494 0.27201 0.33119 0.0
C14 C 0.09316 0.28919 0.3738 0.0
O15 O 0.05485 0.25461 0.42943 0.0
O16 O 0.04081 0.2329 0.3995 0.0
N17 N 0.02717 0.32563 0.35672 0.0
C18 C 0.02014 0.34187 0.36991 0.0
C19 C 1.00382 0.35267 0.36134 0.0
C20 C 0.99518 0.34706 0.3392 0.0
C21 C 1.00226 0.32997 0.32602 0.0
C22 C 0.01848 0.31966 0.3355 0.0
H23 H 0.02717 0.34697 0.38676 0.0
O24 O 0.01241 0.26895 0.40038 0.0
O25 O 0.0329 0.2832 0.3745 0.0
O26 O 0.05488 0.30944 0.41767 0.0
O27 O 0.06229 0.33478 0.39096 0.0
C28 C 0.99434 0.32327 0.30368 0.0
C29 C 1.00202 0.30573 0.29147 0.0
H30 H 0.02093 0.27165 0.27321 0.0
H31 H 0.05036 0.25618 0.29263 0.0
H32 H 0.99832 0.36574 0.37164 0.0
H33 H 0.98329 0.35621 0.33247 0.0
H34 H 0.98235 0.33151 0.29571 0.0
H35 H 0.99548 0.30041 0.27442 0.0
Mn36 Mn 0.05148 0.78757 0.67402 0.0
Mn37 Mn 0.06422 0.83527 0.71375 0.0
C38 C 0.0915 0.80294 0.69385 0.0
C39 C 0.04462 0.743 0.65726 0.0
C40 C 0.05633 0.84477 0.66464 0.0
O41 O 0.017 0.7854 0.68667 0.0
O42 O 0.029 0.8181 0.71219 0.0
C43 C 0.053 0.80872 0.7536 0.0
N44 N 0.06875 0.82406 0.74202 0.0
C45 C 0.09879 0.83004 0.77139 0.0
C46 C 0.08286 0.81435 0.78361 0.0
C47 C 0.05988 0.80365 0.77467 0.0
C48 C 0.09092 0.83452 0.75052 0.0
H49 H 0.03529 0.80048 0.74688 0.0
C50 C 0.01221 0.79979 0.7025 0.0
O51 O 0.04032 0.76051 0.64687 0.0
O52 O 0.05028 0.75032 0.67797 0.0
N53 N 0.09668 0.8527 0.7176 0.0
C54 C 0.11019 0.86662 0.70339 0.0
C55 C 0.13378 0.87817 0.70967 0.0
C56 C 0.14327 0.87533 0.73049 0.0
C57 C 0.12908 0.86081 0.74479 0.0
C58 C 0.10569 0.84968 0.73761 0.0
H59 H 0.10308 0.86878 0.68731 0.0
O60 O 0.08729 0.79359 0.67357 0.0
O61 O 0.07226 0.8054 0.70122 0.0
O62 O 0.05234 0.82149 0.65797 0.0
O63 O 0.06083 0.85137 0.68531 0.0
C64 C 0.13729 0.85679 0.76582 0.0
C65 C 0.12217 0.84139 0.77911 0.0
H66 H 0.08809 0.81039 0.79987 0.0
H67 H 0.04747 0.79156 0.78402 0.0
H68 H 0.14464 0.88921 0.69846 0.0
H69 H 0.16149 0.88423 0.73527 0.0
H70 H 0.15523 0.86541 0.77192 0.0
H71 H 0.12872 0.83834 0.79521 0.0
Mn72 Mn 0.54812 0.77572 0.90112 0.0
Mn73 Mn 0.55453 0.81821 0.86268 0.0
C74 C 0.51194 0.78083 0.88007 0.0
C75 C 0.5472 0.7349 0.91953 0.0
C76 C 0.55874 0.83487 0.91247 0.0
O77 O 0.58388 0.78128 0.89069 0.0
O78 O 0.58428 0.80737 0.86476 0.0
C79 C 0.55718 0.78811 0.82199 0.0
N80 N 0.54753 0.80365 0.83303 0.0
C81 C 0.52789 0.81015 0.79959 0.0
C82 C 0.53777 0.79438 0.78784 0.0
C83 C 0.5523 0.78312 0.79912 0.0
C84 C 0.53322 0.81422 0.82237 0.0
H85 H 0.56872 0.77983 0.83053 0.0
C86 C 0.59435 0.7935 0.87481 0.0
O87 O 0.55407 0.75709 0.92899 0.0
O88 O 0.54102 0.73582 0.89888 0.0
N89 N 0.52889 0.83077 0.85702 0.0
C90 C 0.51872 0.84314 0.87106 0.0
C91 C 0.50234 0.85399 0.8626 0.0
C92 C 0.49694 0.85244 0.8398 0.0
C93 C 0.5075 0.83948 0.82569 0.0
C94 C 0.52334 0.82863 0.8351 0.0
H95 H 0.52305 0.8448 0.88856 0.0
O96 O 0.51229 0.77149 0.89892 0.0
O97 O 0.5332 0.78696 0.87357 0.0
O98 O 0.55393 0.81244 0.91827 0.0
O99 O 0.56211 0.83851 0.89234 0.0
C100 C 0.50268 0.83654 0.80268 0.0
C101 C 0.51287 0.82189 0.78963 0.0
H102 H 0.5342 0.79066 0.77018 0.0
H103 H 0.55995 0.77089 0.79017 0.0
H104 H 0.49412 0.86379 0.87361 0.0
H105 H 0.48447 0.86105 0.83332 0.0
H106 H 0.49074 0.84499 0.7949 0.0
H107 H 0.50867 0.81937 0.772 0.0
Mn108 Mn 0.5522 0.29093 0.17879 0.0
Mn109 Mn 0.50818 0.27922 0.1382 0.0
C110 C 0.53752 0.24825 0.15863 0.0
C111 C 0.59428 0.29812 0.19516 0.0
C112 C 0.49863 0.2885 0.18715 0.0
O113 O 0.55535 0.32776 0.16634 0.0
O114 O 0.5271 0.31535 0.13858 0.0
C115 C 0.53533 0.28557 0.09931 0.0
N116 N 0.5177 0.27192 0.11007 0.0
C117 C 0.50453 0.24149 0.07904 0.0
C118 C 0.52218 0.25555 0.06739 0.0
C119 C 0.53781 0.27755 0.07766 0.0
C120 C 0.50308 0.25033 0.10061 0.0
H121 H 0.54742 0.30235 0.10726 0.0
C122 C 0.54387 0.33274 0.14903 0.0
O123 O 0.5777 0.30166 0.20596 0.0
O124 O 0.5873 0.2928 0.17442 0.0
N125 N 0.4881 0.246 0.13457 0.0
C126 C 0.4736 0.23346 0.14881 0.0
C127 C 0.45724 0.21068 0.14144 0.0
C128 C 0.45583 0.20111 0.11946 0.0
C129 C 0.47109 0.21424 0.10515 0.0
C130 C 0.48699 0.23689 0.11343 0.0
H131 H 0.47441 0.24083 0.1656 0.0
O132 O 0.54666 0.25289 0.17875 0.0
O133 O 0.53512 0.26883 0.15138 0.0
O134 O 0.51982 0.29004 0.19449 0.0
O135 O 0.49356 0.28573 0.16627 0.0
C136 C 0.47166 0.2054 0.08321 0.0
C137 C 0.48847 0.21894 0.0702 0.0
H138 H 0.52407 0.24948 0.05066 0.0
H139 H 0.55166 0.28834 0.06889 0.0
H140 H 0.44567 0.20058 0.15265 0.0
H141 H 0.44326 0.18348 0.11387 0.0
H142 H 0.45959 0.18794 0.07634 0.0
H143 H 0.48903 0.21171 0.0535 0.0
Mn144 Mn 0.09847 0.80307 0.14154 0.0
Mn145 Mn 0.05714 0.78734 0.09871 0.0
C146 C 0.08548 0.76231 0.12471 0.0
C147 C 0.13674 0.8149 0.15913 0.0
C148 C 0.04696 0.79571 0.14596 0.0
O149 O 0.09843 0.8374 0.13063 0.0
O150 O 0.07292 0.82352 0.10052 0.0
C151 C 0.08585 0.79744 0.06116 0.0
N152 N 0.0694 0.78158 0.07165 0.0
C153 C 0.05985 0.75128 0.04042 0.0
C154 C 0.07672 0.76725 0.02924 0.0
C155 C 0.08994 0.79032 0.03975 0.0
C156 C 0.05714 0.75903 0.06197 0.0
H157 H 0.09555 0.81543 0.06902 0.0
C158 C 0.08703 0.84108 0.11324 0.0
O159 O 0.11927 0.81756 0.16894 0.0
O160 O 0.1326 0.80801 0.13819 0.0
N161 N 0.04011 0.75298 0.09487 0.0
C162 C 0.02513 0.73945 0.10826 0.0
C163 C 0.01063 0.71585 0.10033 0.0
C164 C 0.01118 0.70676 0.07855 0.0
C165 C 0.02686 0.72096 0.06515 0.0
C166 C 0.04137 0.74401 0.07417 0.0
H167 H 0.024 0.74676 0.12474 0.0
O168 O 0.09487 0.76711 0.14476 0.0
O169 O 0.08387 0.78145 0.11492 0.0
O170 O 0.06752 0.79949 0.1544 0.0
O171 O 0.04155 0.7921 0.1253 0.0
C172 C 0.0284 0.71339 0.04307 0.0
C173 C 0.04521 0.72827 0.03085 0.0
H174 H 0.07955 0.76206 0.01256 0.0
H175 H 0.10293 0.80279 0.0312 0.0
H176 H 0.99866 0.70496 0.11081 0.0
H177 H 0.99954 0.6888 0.07231 0.0
H178 H 0.01705 0.69588 0.03545 0.0
H179 H 0.04658 0.72196 0.01406 0.0
Mn180 Mn 0.50361 0.76441 0.4387 0.0
Mn181 Mn 0.50455 0.80416 0.39918 0.0
C182 C 0.46828 0.76382 0.41772 0.0
C183 C 0.50911 0.72694 0.45226 0.0
C184 C 0.5119 0.82038 0.44801 0.0
O185 O 0.53806 0.77612 0.43123 0.0
O186 O 0.53321 0.79516 0.40097 0.0
C187 C 0.50743 0.77701 0.35715 0.0
N188 N 0.49658 0.79022 0.36954 0.0
C189 C 0.47739 0.80008 0.33733 0.0
C190 C 0.48804 0.7862 0.32421 0.0
C191 C 0.50293 0.7744 0.33418 0.0
C192 C 0.48181 0.80117 0.36013 0.0
H193 H 0.51987 0.76913 0.36475 0.0
C194 C 0.54551 0.78643 0.41393 0.0
O195 O 0.51212 0.74721 0.4646 0.0
O196 O 0.50232 0.72794 0.43182 0.0
N197 N 0.47775 0.81501 0.39577 0.0
C198 C 0.46926 0.82801 0.41084 0.0
C199 C 0.45538 0.84231 0.40364 0.0
C200 C 0.45049 0.84315 0.38104 0.0
C201 C 0.4582 0.82837 0.36587 0.0
C202 C 0.47203 0.81456 0.37405 0.0
H203 H 0.47374 0.82823 0.42818 0.0
O204 O 0.46806 0.75471 0.4367 0.0
O205 O 0.48885 0.77273 0.41143 0.0
O206 O 0.50642 0.79897 0.45523 0.0
O207 O 0.51374 0.82305 0.42778 0.0
C208 C 0.45347 0.82754 0.34296 0.0
C209 C 0.46293 0.81327 0.3287 0.0
H210 H 0.48509 0.78469 0.30647 0.0
H211 H 0.51147 0.76398 0.32414 0.0
H212 H 0.44903 0.8532 0.41545 0.0
H213 H 0.44046 0.8549 0.37553 0.0
H214 H 0.44276 0.83797 0.33614 0.0
H215 H 0.45925 0.81286 0.31111 0.0
Mn216 Mn 0.59896 0.30411 0.64002 0.0
Mn217 Mn 0.55608 0.28814 0.59847 0.0
C218 C 0.58651 0.26342 0.62333 0.0
C219 C 0.63738 0.31649 0.6566 0.0
C220 C 0.54757 0.29511 0.64618 0.0
O221 O 0.59833 0.33825 0.62975 0.0
O222 O 0.57082 0.32468 0.60118 0.0
C223 C 0.58205 0.301 0.5595 0.0
N224 N 0.56694 0.28408 0.57034 0.0
C225 C 0.5563 0.255 0.53819 0.0
C226 C 0.57185 0.27206 0.52667 0.0
C227 C 0.58488 0.2951 0.53742 0.0
C228 C 0.5545 0.26177 0.56023 0.0
H229 H 0.59158 0.31896 0.56758 0.0
C230 C 0.58568 0.3421 0.61344 0.0
O231 O 0.62015 0.31866 0.66704 0.0
O232 O 0.63285 0.30962 0.63569 0.0
N233 N 0.53985 0.25364 0.59396 0.0
C234 C 0.52641 0.23897 0.60777 0.0
C235 C 0.51231 0.21525 0.59971 0.0
C236 C 0.51191 0.20704 0.57751 0.0
C237 C 0.5263 0.22227 0.56375 0.0
C238 C 0.54004 0.24568 0.57274 0.0
H239 H 0.52616 0.24549 0.62469 0.0
O240 O 0.59625 0.26874 0.64324 0.0
O241 O 0.58389 0.28224 0.61335 0.0
O242 O 0.56845 0.29985 0.654 0.0
O243 O 0.54141 0.29122 0.62573 0.0
C244 C 0.52742 0.21525 0.54144 0.0
C245 C 0.54248 0.23156 0.52869 0.0
H246 H 0.57389 0.2677 0.50958 0.0
H247 H 0.59681 0.30841 0.52859 0.0
H248 H 0.50144 0.2035 0.61048 0.0
H249 H 0.50062 0.18893 0.57124 0.0
H250 H 0.51693 0.19727 0.53399 0.0
H251 H 0.54336 0.22586 0.51162 0.0
Mn252 Mn 1.00217 0.26472 0.94069 0.0
Mn253 Mn 1.00894 0.3073 0.9034 0.0
C254 C 0.96924 0.26712 0.91794 0.0
C255 C 1.00586 0.22632 0.9531 0.0
C256 C 0.01273 0.32006 0.95258 0.0
O257 O 0.03747 0.27641 0.93684 0.0
O258 O 0.03664 0.29642 0.90631 0.0
C259 C 0.01182 0.2796 0.8616 0.0
N260 N 1.00208 0.29444 0.87342 0.0
C261 C 0.98681 0.30727 0.84063 0.0
C262 C 0.99621 0.29172 0.828 0.0
C263 C 1.00849 0.27755 0.83854 0.0
C264 C 0.9894 0.30727 0.86347 0.0
H265 H 0.02245 0.26996 0.86974 0.0
C266 C 0.04715 0.28736 0.92069 0.0
O267 O 1.00718 0.24553 0.96628 0.0
O268 O 1.00155 0.22883 0.93239 0.0
N269 N 0.98361 0.32035 0.8988 0.0
C270 C 0.97487 0.33353 0.91347 0.0
C271 C 0.96252 0.34914 0.90579 0.0
C272 C 0.96018 0.35181 0.88319 0.0
C273 C 0.96911 0.33779 0.8684 0.0
C274 C 0.9801 0.32154 0.87697 0.0
H275 H 0.97785 0.33268 0.93088 0.0
O276 O 0.96685 0.25599 0.93594 0.0
O277 O 0.99055 0.27562 0.91335 0.0
O278 O 1.00407 0.29814 0.95798 0.0
O279 O 0.01722 0.32465 0.93307 0.0
C280 C 0.96769 0.33939 0.84548 0.0
C281 C 0.9759 0.3236 0.83157 0.0
H282 H 0.99448 0.29086 0.81023 0.0
H283 H 0.01611 0.26581 0.8289 0.0
H284 H 0.95559 0.35978 0.91731 0.0
H285 H 0.95128 0.36446 0.87735 0.0
H286 H 0.95955 0.35204 0.83835 0.0
H287 H 0.9741 0.32448 0.81395 0.0
Mn288 Mn 0.44381 0.04421 0.32683 0.0
Mn289 Mn 0.40147 0.03118 0.36099 0.0
C290 C 0.42632 1.00414 0.33275 0.0
C291 C 0.45802 0.05169 0.29356 0.0
C292 C 0.45205 0.05431 0.37574 0.0
O293 O 0.43376 0.07482 0.32862 0.0
O294 O 0.40279 0.06291 0.34832 0.0
C295 C 0.35887 0.02398 0.33149 0.0
N296 N 0.37157 0.01502 0.3461 0.0
C297 C 0.33994 0.97785 0.3473 0.0
C298 C 0.32652 0.98672 0.33231 0.0
C299 C 0.33609 0.0098 0.32427 0.0
C300 C 0.36255 0.99275 0.35385 0.0
H301 H 0.36602 0.04187 0.3255 0.0
C302 C 0.41588 0.07809 0.3365 0.0
O303 O 0.47077 0.06046 0.31177 0.0
O304 O 0.43641 0.03928 0.29465 0.0
N305 N 0.39853 1.00037 0.37327 0.0
C306 C 0.41438 0.99361 0.38616 0.0
C307 C 0.40801 0.97037 0.39457 0.0
C308 C 0.38535 0.95447 0.38983 0.0
C309 C 0.36942 0.96173 0.37632 0.0
C310 C 0.37689 0.98492 0.36811 0.0
H311 H 0.43177 0.00581 0.38995 0.0
O312 O 0.44721 0.01069 0.32663 0.0
O313 O 0.41659 0.02152 0.33585 0.0
O314 O 0.45913 0.05269 0.35702 0.0
O315 O 0.43077 0.0474 0.37928 0.0
C316 C 0.34652 0.94674 0.37043 0.0
C317 C 0.33181 0.95474 0.35587 0.0
H318 H 0.30894 0.97585 0.32671 0.0
H319 H 0.32586 0.01673 0.31264 0.0
H320 H 0.42048 0.96479 0.40478 0.0
H321 H 0.38047 0.93659 0.39641 0.0
H322 H 0.34012 0.92886 0.37678 0.0
H323 H 0.31436 0.94286 0.35119 0.0
Mn324 Mn 0.28949 0.21118 0.53445 0.0
Mn325 Mn 0.28408 0.16408 0.49564 0.0
C326 C 0.2526 0.18389 0.52143 0.0
C327 C 0.29312 0.22512 0.57355 0.0
C328 C 0.29881 0.21811 0.48523 0.0
O329 O 0.32194 0.20567 0.53622 0.0
O330 O 0.31339 0.16961 0.51444 0.0
C331 C 0.27973 0.12063 0.52112 0.0
N332 N 0.27072 0.13226 0.50574 0.0
C333 C 0.23898 0.09546 0.49507 0.0
C334 C 0.24782 0.08317 0.51096 0.0
C335 C 0.26821 0.09589 0.52415 0.0
C336 C 0.25089 0.1203 0.49321 0.0
H337 H 0.29572 0.13005 0.53077 0.0
C338 C 0.32679 0.18625 0.52857 0.0
O339 O 0.29871 0.24039 0.55851 0.0
O340 O 0.28607 0.20209 0.56605 0.0
N341 N 0.25572 0.15732 0.4773 0.0
C342 C 0.24856 0.17225 0.46376 0.0
C343 C 0.22767 0.16277 0.45042 0.0
C344 C 0.21457 0.13793 0.45079 0.0
C345 C 0.22229 0.12293 0.46483 0.0
C346 C 0.24289 0.1336 0.47824 0.0
H347 H 0.25863 0.19123 0.46307 0.0
O348 O 0.25471 0.20585 0.53051 0.0
O349 O 0.27203 0.17931 0.51966 0.0
O350 O 0.29464 0.22743 0.50383 0.0
O351 O 0.2976 0.19532 0.48212 0.0
C352 C 0.21046 0.09774 0.4659 0.0
C353 C 0.21896 0.08394 0.48083 0.0
H354 H 0.23915 0.06398 0.51311 0.0
H355 H 0.27525 0.08651 0.53637 0.0
H356 H 0.22182 0.17452 0.43968 0.0
H357 H 0.19861 0.13057 0.44026 0.0
H358 H 0.19472 0.08883 0.45542 0.0
H359 H 0.2097 0.06457 0.48152 0.0
Mn360 Mn 0.1773 0.06033 0.83856 0.0
Mn361 Mn 0.21887 0.07201 0.88011 0.0
C362 C 0.19029 0.09948 0.85574 0.0
C363 C 0.16306 0.05787 0.80261 0.0
C364 C 0.16907 0.04652 0.88461 0.0
O365 O 0.19137 0.0335 0.83221 0.0
O366 O 0.21639 0.04013 0.86228 0.0
C367 C 0.26004 0.07929 0.85486 0.0
N368 N 0.2489 0.08727 0.87105 0.0
C369 C 0.28245 0.12191 0.88279 0.0
C370 C 0.29434 0.11396 0.86633 0.0
C371 C 0.28306 0.09262 0.85226 0.0
C372 C 0.25966 0.1077 0.88479 0.0
H373 H 0.25145 0.06287 0.84406 0.0
C374 C 0.20642 0.02768 0.84417 0.0
O375 O 0.15123 0.04425 0.8165 0.0
O376 O 0.18348 0.07264 0.8094 0.0
N377 N 0.22383 0.1019 0.89863 0.0
C378 C 0.20871 0.10922 0.91094 0.0
C379 C 0.21661 0.13136 0.9247 0.0
C380 C 0.23994 0.14568 0.92565 0.0
C381 C 0.25511 0.13784 0.91267 0.0
C382 C 0.24632 0.11548 0.89947 0.0
H383 H 0.19076 0.09828 0.91022 0.0
O384 O 0.16888 0.08974 0.84788 0.0
O385 O 0.20333 0.08462 0.8557 0.0
O386 O 0.16285 0.04401 0.86432 0.0
O387 O 0.18967 0.05728 0.89252 0.0
C388 C 0.27837 0.15182 0.91166 0.0
C389 C 0.29204 0.14384 0.89675 0.0
H390 H 0.31201 0.12432 0.8641 0.0
H391 H 0.29208 0.08646 0.83944 0.0
H392 H 0.20474 0.1374 0.9345 0.0
H393 H 0.2459 0.16289 0.93609 0.0
H394 H 0.2857 0.16912 0.92177 0.0
H395 H 0.30968 0.15513 0.89565 0.0
Mn396 Mn 0.31662 0.926 0.00929 0.0
Mn397 Mn 0.32994 0.96692 0.97087 0.0
C398 C 0.35314 0.9399 0.99988 0.0
C399 C 0.31697 0.91679 0.04536 0.0
C400 C 0.30633 0.91202 0.96052 0.0
O401 O 0.29063 0.94046 0.01004 0.0
O402 O 0.2996 0.96642 0.98304 0.0
C403 C 0.33356 0.01678 0.99135 0.0
N404 N 0.34405 1.00082 0.98233 0.0
C405 C 0.37841 0.03468 0.97899 0.0
C406 C 0.36854 0.0509 0.99005 0.0
C407 C 0.34585 0.04195 0.99598 0.0
C408 C 0.36529 0.00969 0.97506 0.0
H409 H 0.31555 0.01069 0.99364 0.0
C410 C 0.28695 0.95671 0.99825 0.0
O411 O 0.30377 0.90098 0.03005 0.0
O412 O 0.32771 0.93858 0.04001 0.0
N413 N 0.35957 0.9695 0.95997 0.0
C414 C 0.36764 0.95127 0.95128 0.0
C415 C 0.3898 0.9573 0.94371 0.0
C416 C 0.40378 0.98201 0.94574 0.0
C417 C 0.39588 1.00025 0.95624 0.0
C418 C 0.37356 0.99308 0.96336 0.0
H419 H 0.35768 0.93221 0.95113 0.0
O420 O 0.3453 0.91784 0.00616 0.0
O421 O 0.33857 0.95256 0.99712 0.0
O422 O 0.30306 0.90643 0.98002 0.0
O423 O 0.31654 0.93373 0.95565 0.0
C424 C 0.40949 0.02515 0.96034 0.0
C425 C 0.40068 0.04241 0.97156 0.0
H426 H 0.37793 0.07037 0.99344 0.0
H427 H 0.33757 0.05456 1.00342 0.0
H428 H 0.39623 0.94289 0.93668 0.0
H429 H 0.42092 0.98661 0.94 0.0
H430 H 0.42679 0.0312 0.95504 0.0
H431 H 0.41123 0.06155 0.97452 0.0
Mn432 Mn 0.30865 0.36522 0.04416 0.0
Mn433 Mn 0.31966 0.40704 1.00494 0.0
C434 C 0.34742 0.38893 0.03944 0.0
C435 C 0.3015 0.35413 0.08203 0.0
C436 C 0.30489 0.35172 0.99294 0.0
O437 O 0.27714 0.37241 0.03839 0.0
O438 O 0.28851 0.40107 0.01438 0.0
C439 C 0.31684 0.45317 0.02858 0.0
N440 N 0.32834 0.44101 0.01589 0.0
C441 C 0.35269 0.47922 1.00476 0.0
C442 C 0.34133 0.49223 0.01796 0.0
C443 C 0.32355 0.47917 0.03016 0.0
C444 C 0.34593 0.45345 1.00461 0.0
H445 H 0.3024 0.44306 0.03703 0.0
C446 C 0.27331 0.38837 0.02586 0.0
O447 O 0.2953 0.33819 0.06488 0.0
O448 O 0.3111 0.37656 0.07726 0.0
N449 N 0.34925 0.41472 0.99372 0.0
C450 C 0.35893 0.3993 0.98257 0.0
C451 C 0.37749 0.40934 0.97007 0.0
C452 C 0.38543 0.43504 0.96871 0.0
C453 C 0.3751 0.45051 0.9803 0.0
C454 C 0.35706 0.43948 0.99288 0.0
H455 H 0.35208 0.37947 0.98271 0.0
O456 O 0.34266 0.36771 0.04774 0.0
O457 O 0.32941 0.39556 0.03309 0.0
O458 O 0.3037 0.3446 0.01257 0.0
O459 O 0.31051 0.37428 0.98943 0.0
C460 C 0.38162 0.47639 0.9795 0.0
C461 C 0.37052 0.49075 0.99183 0.0
H462 H 0.34611 0.51224 0.01886 0.0
H463 H 0.31464 0.48909 0.04028 0.0
H464 H 0.38521 0.39726 0.961 0.0
H465 H 0.3994 0.44267 0.95865 0.0
H466 H 0.39531 0.48544 0.96966 0.0
H467 H 0.37594 0.51065 0.99137 0.0
Mn468 Mn 0.78849 0.153 0.06971 0.0
Mn469 Mn 0.75875 0.10261 0.036 0.0
C470 C 0.74895 0.1421 0.06466 0.0
C471 C 0.80304 0.17223 0.10423 0.0
C472 C 0.78226 0.15209 0.01996 0.0
O473 O 0.81262 0.13513 0.06695 0.0
O474 O 0.79062 0.10324 0.04398 0.0
C475 C 0.7583 0.06368 0.06596 0.0
N476 N 0.74677 0.07448 0.05189 0.0
C477 C 0.71368 0.03813 0.04707 0.0
C478 C 0.72507 0.02666 0.06169 0.0
C479 C 0.74736 0.03963 0.07141 0.0
C480 C 0.72495 0.06259 0.04324 0.0
H481 H 0.7759 0.07312 0.07247 0.0
C482 C 0.80953 0.11484 0.05529 0.0
O483 O 0.81069 0.18231 0.08667 0.0
O484 O 0.78868 0.15007 0.10165 0.0
N485 N 0.72725 0.09847 0.02616 0.0
C486 C 0.71919 0.11184 0.01171 0.0
C487 C 0.69873 0.10046 0.99815 0.0
C488 C 0.68631 0.07568 1.00022 0.0
C489 C 0.69403 0.06287 0.0164 0.0
C490 C 0.7149 0.07501 0.02897 0.0
H491 H 0.72859 0.13089 0.01036 0.0
O492 O 0.76112 0.16469 0.07081 0.0
O493 O 0.76014 0.12602 0.06143 0.0
O494 O 0.79194 0.16328 0.0384 0.0
O495 O 0.76957 0.1297 0.01762 0.0
C496 C 0.68246 0.03814 0.01977 0.0
C497 C 0.69211 0.02589 0.03535 0.0
H498 H 0.71707 0.00775 0.06524 0.0
H499 H 0.75639 0.03077 0.08247 0.0
H500 H 0.69253 0.11076 0.98619 0.0
H501 H 0.67059 0.0669 0.98966 0.0
H502 H 0.66632 0.02826 0.01024 0.0
H503 H 0.68317 0.00681 0.03764 0.0
Mn504 Mn 0.15793 0.54236 0.24862 0.0
Mn505 Mn 0.20182 0.55568 0.28838 0.0
C506 C 0.17872 0.58274 0.2585 0.0
C507 C 0.14299 0.5342 0.21285 0.0
C508 C 0.15124 0.53718 0.29625 0.0
O509 O 0.16521 0.50997 0.24961 0.0
O510 O 0.19784 0.52293 0.27295 0.0
C511 C 0.24322 0.55847 0.2643 0.0
N512 N 0.23184 0.56915 0.27848 0.0
C513 C 0.26647 0.6027 0.28969 0.0
C514 C 0.27849 0.59216 0.27504 0.0
C515 C 0.26676 0.57005 0.26216 0.0
C516 C 0.2429 0.59065 0.29066 0.0
H517 H 0.2344 0.54124 0.25483 0.0
C518 C 0.18321 0.50689 0.25932 0.0
O519 O 0.13019 0.5272 0.22878 0.0
O520 O 0.16507 0.54452 0.21765 0.0
N521 N 0.20732 0.58734 0.30419 0.0
C522 C 0.19297 0.59567 0.31675 0.0
C523 C 0.20202 0.61745 0.33083 0.0
C524 C 0.22578 0.63017 0.33212 0.0
C525 C 0.24012 0.62151 0.31867 0.0
C526 C 0.22998 0.60007 0.30455 0.0
H527 H 0.17483 0.58559 0.31627 0.0
O528 O 0.15747 0.57718 0.25 0.0
O529 O 0.18657 0.56434 0.26222 0.0
O530 O 0.14307 0.53765 0.27686 0.0
O531 O 0.17277 0.54241 0.30189 0.0
C532 C 0.26396 0.63363 0.31833 0.0
C533 C 0.27706 0.62441 0.30365 0.0
H534 H 0.29673 0.60084 0.2736 0.0
H535 H 0.27593 0.56175 0.25087 0.0
H536 H 0.19078 0.62416 0.34095 0.0
H537 H 0.23276 0.64681 0.3432 0.0
H538 H 0.27229 0.65031 0.32903 0.0
H539 H 0.2953 0.63405 0.30336 0.0
Mn540 Mn 0.80904 0.86807 0.54536 0.0
Mn541 Mn 0.81738 0.91024 0.5065 0.0
C542 C 0.84678 0.89286 0.54009 0.0
C543 C 0.80305 0.85638 0.58313 0.0
C544 C 0.80524 0.85518 0.49393 0.0
O545 O 0.77737 0.87452 0.54094 0.0
O546 O 0.78568 0.90271 0.51586 0.0
C547 C 0.81193 0.9551 0.53014 0.0
N548 N 0.82475 0.94395 0.51809 0.0
C549 C 0.84905 0.98326 0.50898 0.0
C550 C 0.83625 0.99518 0.52148 0.0
C551 C 0.81774 0.98105 0.53225 0.0
C552 C 0.84277 0.95742 0.50787 0.0
H553 H 0.79709 0.94426 0.53763 0.0
C554 C 0.77199 0.88969 0.5285 0.0
O555 O 0.79696 0.84053 0.56591 0.0
O556 O 0.81196 0.87899 0.57851 0.0
N557 N 0.84729 0.91958 0.4958 0.0
C558 C 0.85833 0.90514 0.48517 0.0
C559 C 0.87786 0.91637 0.47427 0.0
C560 C 0.88547 0.94224 0.47403 0.0
C561 C 0.8739 0.95669 0.48528 0.0
C562 C 0.85486 0.94448 0.49621 0.0
H563 H 0.852 0.88523 0.4847 0.0
O564 O 0.84302 0.87149 0.54802 0.0
O565 O 0.82828 0.899 0.53438 0.0
O566 O 0.80419 0.84796 0.51354 0.0
O567 O 0.80979 0.87772 0.49046 0.0
C568 C 0.88031 0.98269 0.48585 0.0
C569 C 0.86786 0.99596 0.49765 0.0
H570 H 0.84044 0.01515 0.52289 0.0
H571 H 0.80764 0.99012 0.54174 0.0
H572 H 0.88677 0.9051 0.46574 0.0
H573 H 0.90033 0.95081 0.46533 0.0
H574 H 0.89484 0.99266 0.47737 0.0
H575 H 0.87304 0.01595 0.49807 0.0
Mn576 Mn 0.93035 0.01772 0.23253 0.0
Mn577 Mn 0.89096 0.99856 0.26909 0.0
C578 C 0.91557 0.976 0.23651 0.0
C579 C 0.94191 0.02615 0.19851 0.0
C580 C 0.94229 0.02075 0.28164 0.0
O581 O 0.91894 0.04771 0.23709 0.0
O582 O 0.89335 0.0321 0.26122 0.0
C583 C 0.84968 0.99643 0.23943 0.0
N584 N 0.86059 0.98596 0.25435 0.0
C585 C 0.82598 0.95232 0.25624 0.0
C586 C 0.8141 0.96321 0.24152 0.0
C587 C 0.82613 0.98512 0.23275 0.0
C588 C 0.84961 0.96405 0.2617 0.0
H589 H 0.85895 0.01317 0.23261 0.0
C590 C 0.90329 0.04917 0.24948 0.0
O591 O 0.95546 0.03568 0.21613 0.0
O592 O 0.92062 0.01355 0.20057 0.0
N593 N 0.88557 0.96623 0.27902 0.0
C594 C 0.89897 0.95915 0.29442 0.0
C595 C 0.88943 0.93812 0.30542 0.0
C596 C 0.86609 0.92442 0.30054 0.0
C597 C 0.85239 0.93222 0.28503 0.0
C598 C 0.86277 0.95371 0.27497 0.0
H599 H 0.91647 0.97016 0.2992 0.0
O600 O 0.93582 0.98494 0.22957 0.0
O601 O 0.90465 0.99183 0.24187 0.0
O602 O 0.9481 0.02544 0.26258 0.0
O603 O 0.92157 0.01049 0.28595 0.0
C604 C 0.82853 0.92031 0.28014 0.0
C605 C 0.81537 0.93023 0.26559 0.0
H606 H 0.79585 0.95472 0.2366 0.0
H607 H 0.81721 0.99338 0.22105 0.0
H608 H 0.9 0.93264 0.31782 0.0
H609 H 0.85876 0.90826 0.30915 0.0
H610 H 0.8201 0.90362 0.28763 0.0
H611 H 0.79707 0.92082 0.26182 0.0
Mn612 Mn 0.29032 0.65742 0.57066 0.0
Mn613 Mn 0.25962 0.61162 0.53243 0.0
C614 C 0.25083 0.64648 0.56715 0.0
C615 C 0.30597 0.67259 0.60604 0.0
C616 C 0.28266 0.66359 0.5221 0.0
O617 O 0.31422 0.64037 0.56351 0.0
O618 O 0.29192 0.61201 0.53753 0.0
C619 C 0.26093 0.56858 0.55674 0.0
N620 N 0.24864 0.58112 0.54543 0.0
C621 C 0.21396 0.54659 0.54322 0.0
C622 C 0.2262 0.53334 0.55494 0.0
C623 C 0.24973 0.54447 0.5619 0.0
C624 C 0.22584 0.57084 0.53921 0.0
H625 H 0.27919 0.5768 0.56148 0.0
C626 C 0.31116 0.62248 0.5488 0.0
O627 O 0.31314 0.68473 0.58932 0.0
O628 O 0.29172 0.65045 0.60191 0.0
N629 N 0.2277 0.60836 0.52505 0.0
C630 C 0.21879 0.62296 0.51259 0.0
C631 C 0.1959 0.61395 0.50308 0.0
C632 C 0.18229 0.59004 0.50653 0.0
C633 C 0.19173 0.57533 0.51943 0.0
C634 C 0.21481 0.58514 0.52816 0.0
H635 H 0.22935 0.64101 0.50921 0.0
O636 O 0.26302 0.66839 0.5754 0.0
O637 O 0.26198 0.63123 0.56072 0.0
O638 O 0.29258 0.6722 0.54111 0.0
O639 O 0.26956 0.64161 0.5173 0.0
C640 C 0.17947 0.5509 0.52308 0.0
C641 C 0.19052 0.5366 0.53514 0.0
H642 H 0.21775 0.51456 0.55855 0.0
H643 H 0.25933 0.53431 0.57084 0.0
H644 H 0.1888 0.62533 0.49295 0.0
H645 H 0.16468 0.58307 0.49901 0.0
H646 H 0.1616 0.54285 0.51653 0.0
H647 H 0.18092 0.51783 0.53783 0.0
Mn648 Mn 0.43098 0.52074 0.73184 0.0
Mn649 Mn 0.39005 0.50928 0.76787 0.0
C650 C 0.41492 0.48068 0.74101 0.0
C651 C 0.44412 0.52559 0.69751 0.0
C652 C 0.4411 0.53305 0.78099 0.0
O653 O 0.42038 0.55192 0.73241 0.0
O654 O 0.39047 0.53864 0.75297 0.0
C655 C 0.34795 0.4973 0.7368 0.0
N656 N 0.36002 0.49181 0.75422 0.0
C657 C 0.32661 0.46003 0.76295 0.0
C658 C 0.31358 0.46571 0.74541 0.0
C659 C 0.32442 0.4841 0.73201 0.0
C660 C 0.35016 0.47315 0.76633 0.0
H661 H 0.35629 0.51157 0.72668 0.0
C662 C 0.40225 0.55403 0.74076 0.0
O663 O 0.45715 0.53578 0.71522 0.0
O664 O 0.42258 0.51359 0.69941 0.0
N665 N 0.38702 0.48116 0.78415 0.0
C666 C 0.40202 0.47833 0.80059 0.0
C667 C 0.3938 0.46166 0.81624 0.0
C668 C 0.37024 0.44813 0.81488 0.0
C669 C 0.35528 0.45059 0.79735 0.0
C670 C 0.36438 0.46781 0.78248 0.0
H671 H 0.41991 0.48952 0.80238 0.0
O672 O 0.43493 0.48715 0.7331 0.0
O673 O 0.40463 0.49767 0.74317 0.0
O674 O 0.44782 0.53097 0.76203 0.0
O675 O 0.41985 0.52714 0.78467 0.0
C676 C 0.33149 0.43745 0.79461 0.0
C677 C 0.31722 0.44194 0.77724 0.0
H678 H 0.29533 0.45589 0.74195 0.0
H679 H 0.31458 0.48835 0.71826 0.0
H680 H 0.40549 0.4597 0.82963 0.0
H681 H 0.36385 0.43576 0.82731 0.0
H682 H 0.32399 0.42393 0.80581 0.0
H683 H 0.299 0.43159 0.77518 0.0
Mn684 Mn 0.65995 0.04128 0.75127 0.0
Mn685 Mn 0.704 0.05458 0.79037 0.0
C686 C 0.68033 0.08174 0.76097 0.0
C687 C 0.64477 0.03212 0.71586 0.0
C688 C 0.65354 0.03455 0.79839 0.0
O689 O 0.66702 0.00883 0.75318 0.0
O690 O 0.70082 0.02219 0.77476 0.0
C691 C 0.74513 0.05952 0.76549 0.0
N692 N 0.73362 0.06928 0.78023 0.0
C693 C 0.76741 0.1039 0.79114 0.0
C694 C 0.77955 0.09445 0.77583 0.0
C695 C 0.7683 0.07228 0.76281 0.0
C696 C 0.74414 0.09087 0.79248 0.0
H697 H 0.73669 0.04209 0.75597 0.0
C698 C 0.68516 1.00566 0.76249 0.0
O699 O 0.63213 0.0255 0.73197 0.0
O700 O 0.66687 0.04276 0.7203 0.0
N701 N 0.7086 0.08576 0.80669 0.0
C702 C 0.69411 0.09289 0.81995 0.0
C703 C 0.70265 0.11464 0.83414 0.0
C704 C 0.72612 0.12843 0.83498 0.0
C705 C 0.74068 0.1207 0.82113 0.0
C706 C 0.73098 0.09937 0.80678 0.0
H707 H 0.67629 0.08183 0.82 0.0
O708 O 0.65919 0.07595 0.75214 0.0
O709 O 0.68844 0.06346 0.76455 0.0
O710 O 0.64538 0.03704 0.77953 0.0
O711 O 0.67512 0.0396 0.80384 0.0
C712 C 0.76436 0.13354 0.82074 0.0
C713 C 0.77759 0.12543 0.80546 0.0
H714 H 0.79754 0.10399 0.77402 0.0
H715 H 0.77759 0.06483 0.75103 0.0
H716 H 0.69129 0.12047 0.84476 0.0
H717 H 0.73275 0.14499 0.8462 0.0
H718 H 0.77242 0.15001 0.83176 0.0
H719 H 0.79564 0.13577 0.80499 0.0
Mn720 Mn 0.78968 0.71212 0.03514 0.0
Mn721 Mn 0.78301 0.6648 0.99581 0.0
C722 C 0.75244 0.68572 0.0223 0.0
C723 C 0.79338 0.72621 0.07429 0.0
C724 C 0.79775 0.71887 0.98525 0.0
O725 O 0.82148 0.7055 0.03723 0.0
O726 O 0.81365 0.67182 0.01258 0.0
C727 C 0.78266 0.62271 0.02199 0.0
N728 N 0.77198 0.63315 0.00683 0.0
C729 C 0.74133 0.59501 0.99789 0.0
C730 C 0.75192 0.58387 0.01349 0.0
C731 C 0.77259 0.59783 0.02568 0.0
C732 C 0.75196 0.61994 0.99516 0.0
H733 H 0.79882 0.63322 0.03103 0.0
C734 C 0.82686 0.68743 0.02751 0.0
O735 O 0.80007 0.7413 0.0593 0.0
O736 O 0.78524 0.70326 0.06668 0.0
N737 N 0.75367 0.65627 0.979 0.0
C738 C 0.7449 0.67025 0.9657 0.0
C739 C 0.72366 0.65941 0.95317 0.0
C740 C 0.71192 0.63423 0.95414 0.0
C741 C 0.72132 0.62026 0.96797 0.0
C742 C 0.74221 0.63223 0.98051 0.0
H743 H 0.75406 0.68949 0.9646 0.0
O744 O 0.75524 0.70806 0.0309 0.0
O745 O 0.77151 0.68024 0.02041 0.0
O746 O 0.79594 0.72862 1.00455 0.0
O747 O 0.79418 0.69566 0.98148 0.0
C748 C 0.71084 0.5949 0.96977 0.0
C749 C 0.72075 0.58231 0.98482 0.0
H750 H 0.74432 0.56463 0.01624 0.0
H751 H 0.7809 0.58934 0.0377 0.0
H752 H 0.71651 0.67035 0.94259 0.0
H753 H 0.69567 0.62584 0.94425 0.0
H754 H 0.69494 0.58498 0.9599 0.0
H755 H 0.71228 0.56291 0.98633 0.0
Mn756 Mn 0.94567 0.54512 0.82767 0.0
Mn757 Mn 0.90201 0.53126 0.86027 0.0
C758 C 0.92766 0.50469 0.8321 0.0
C759 C 0.95995 0.55346 0.79452 0.0
C760 C 0.95235 0.55365 0.87656 0.0
O761 O 0.93625 0.5761 0.83071 0.0
O762 O 0.90317 0.56278 0.8473 0.0
C763 C 0.85916 0.52355 0.83112 0.0
N764 N 0.87223 0.51466 0.8454 0.0
C765 C 0.8407 0.47759 0.84741 0.0
C766 C 0.82693 0.48636 0.83271 0.0
C767 C 0.83624 0.50937 0.82444 0.0
C768 C 0.86339 0.49253 0.8535 0.0
H769 H 0.86609 0.54146 0.82508 0.0
C770 C 0.9174 0.57865 0.83691 0.0
O771 O 0.97298 0.56132 0.81274 0.0
O772 O 0.93819 0.5418 0.79552 0.0
N773 N 0.8995 0.50062 0.87274 0.0
C774 C 0.9156 0.49405 0.88548 0.0
C775 C 0.90955 0.47084 0.89394 0.0
C776 C 0.88697 0.45474 0.8894 0.0
C777 C 0.87079 0.46178 0.87601 0.0
C778 C 0.87795 0.48496 0.86773 0.0
H779 H 0.93296 0.50635 0.8891 0.0
O780 O 0.94858 0.51142 0.82612 0.0
O781 O 0.91792 0.52204 0.83556 0.0
O782 O 0.96057 0.55172 0.85837 0.0
O783 O 0.9308 0.54792 0.87874 0.0
C784 C 0.84793 0.44655 0.8703 0.0
C785 C 0.83287 0.4545 0.85609 0.0
H786 H 0.80925 0.47549 0.82752 0.0
H787 H 0.8257 0.51626 0.8131 0.0
H788 H 0.92224 0.46543 0.90402 0.0
H789 H 0.88233 0.43688 0.89601 0.0
H790 H 0.84184 0.42859 0.87657 0.0
H791 H 0.8154 0.44253 0.85167 0.0
Mn792 Mn 0.8219 0.42647 0.50337 0.0
Mn793 Mn 0.82379 0.46951 0.46745 0.0
C794 C 0.85601 0.44896 0.49165 0.0
C795 C 0.82445 0.41489 0.5386 0.0
C796 C 0.80729 0.41477 0.45482 0.0
O797 O 0.7916 0.43406 0.50613 0.0
O798 O 0.79586 0.46526 0.4838 0.0
C799 C 0.83084 0.51459 0.49765 0.0
N800 N 0.83833 0.50206 0.48143 0.0
C801 C 0.87246 0.53653 0.47969 0.0
C802 C 0.86504 0.54981 0.49631 0.0
C803 C 0.84419 0.53876 0.50537 0.0
C804 C 0.8584 0.51255 0.47258 0.0
H805 H 0.81486 0.50615 0.50471 0.0
C806 C 0.78513 0.45125 0.4978 0.0
O807 O 0.81383 0.39882 0.52238 0.0
O808 O 0.83219 0.43789 0.53464 0.0
N809 N 0.85097 0.47486 0.45172 0.0
C810 C 0.85689 0.45877 0.43738 0.0
C811 C 0.87801 0.46643 0.42791 0.0
C812 C 0.89282 0.49057 0.43318 0.0
C813 C 0.88642 0.50678 0.44798 0.0
C814 C 0.86516 0.49809 0.45696 0.0
H815 H 0.84574 0.44013 0.43332 0.0
O816 O 0.8544 0.4275 0.49872 0.0
O817 O 0.83748 0.45558 0.49081 0.0
O818 O 0.81092 0.40785 0.47363 0.0
O819 O 0.80966 0.43713 0.45112 0.0
C820 C 0.90052 0.53106 0.4545 0.0
C821 C 0.89348 0.54597 0.47025 0.0
H822 H 0.87537 0.56837 0.50244 0.0
H823 H 0.83846 0.54883 0.51833 0.0
H824 H 0.8829 0.45372 0.41664 0.0
H825 H 0.90918 0.49637 0.42595 0.0
H826 H 0.91695 0.53835 0.44769 0.0
H827 H 0.90457 0.56455 0.47526 0.0
Mn828 Mn 0.67182 0.55231 0.33626 0.0
Mn829 Mn 0.71588 0.56693 0.37621 0.0
C830 C 0.69133 0.59281 0.34679 0.0
C831 C 0.65572 0.54349 0.30055 0.0
C832 C 0.66576 0.54692 0.38395 0.0
O833 O 0.68121 0.52116 0.33701 0.0
O834 O 0.71379 0.53443 0.36054 0.0
C835 C 0.75827 0.57196 0.35326 0.0
N836 N 0.74549 0.58225 0.36619 0.0
C837 C 0.77638 0.62064 0.37236 0.0
C838 C 0.7898 0.61047 0.35903 0.0
C839 C 0.7807 0.58604 0.34943 0.0
C840 C 0.75424 0.60566 0.37578 0.0
H841 H 0.75146 0.55311 0.34602 0.0
C842 C 0.69988 0.51865 0.34604 0.0
O843 O 0.64361 0.53624 0.31683 0.0
O844 O 0.67777 0.55456 0.30479 0.0
N845 N 0.71908 0.59874 0.39113 0.0
C846 C 0.7036 0.60619 0.40286 0.0
C847 C 0.70964 0.63055 0.41268 0.0
C848 C 0.73157 0.64699 0.41045 0.0
C849 C 0.74719 0.63894 0.39828 0.0
C850 C 0.74013 0.6145 0.3887 0.0
H851 H 0.68671 0.59374 0.40468 0.0
O852 O 0.67008 0.58661 0.3381 0.0
O853 O 0.70007 0.57488 0.34991 0.0
O854 O 0.65767 0.54727 0.36457 0.0
O855 O 0.6872 0.55196 0.38981 0.0
C856 C 0.76943 0.65429 0.39514 0.0
C857 C 0.78404 0.64513 0.38224 0.0
H858 H 0.80705 0.62131 0.35593 0.0
H859 H 0.79097 0.57806 0.33913 0.0
H860 H 0.69744 0.63663 0.42197 0.0
H861 H 0.73618 0.66576 0.41806 0.0
H862 H 0.77539 0.67324 0.4024 0.0
H863 H 0.80105 0.65717 0.37982 0.0
Tb864 Tb 0.0757 0.0511 0.04362 0.0
Tb865 Tb 0.02149 0.01848 0.02764 0.0
C866 C 0.03576 0.04842 0.07233 0.0
C867 C 0.13595 0.05931 0.05151 0.0
C868 C 0.16894 0.03393 0.04764 0.0
C869 C 0.1744 0.05628 0.06108 0.0
C870 C 0.1579 0.06901 0.06298 0.0
C871 C 0.13041 0.03639 0.03899 0.0
C872 C 0.14672 0.02389 0.037 0.0
C873 C 0.11817 0.07205 0.05265 0.0
O874 O 0.07481 0.01454 0.05301 0.0
O875 O 0.037 0.99158 0.04218 0.0
O876 O 0.0385 0.01928 0.99842 0.0
O877 O 0.07484 0.02599 0.01517 0.0
O878 O 0.98966 0.99899 0.03837 0.0
O879 O 0.99383 1.00161 1.00383 0.0
O880 O 0.02395 0.05441 0.01512 0.0
O881 O 0.06014 0.07854 0.03014 0.0
O882 O 0.05717 0.04832 0.07264 0.0
O883 O 0.02322 0.04626 0.05387 0.0
C884 C 0.05787 0.99363 0.05154 0.0
O885 O 0.10723 0.07276 0.03374 0.0
O886 O 0.10386 0.06516 0.06761 0.0
C887 C 0.05998 0.02014 0.99786 0.0
C888 C 0.96159 0.00947 0.01721 0.0
C889 C 0.92867 0.03467 0.01824 0.0
C890 C 0.92205 0.00966 0.01009 0.0
C891 C 0.93863 0.99704 0.00942 0.0
C892 C 0.9681 0.03472 0.02446 0.0
C893 C 0.95178 0.04729 0.02486 0.0
C894 C 0.97919 0.9968 0.01874 0.0
C895 C 0.04026 0.07595 0.01843 0.0
H896 H 0.19159 0.06426 0.06937 0.0
H897 H 0.16235 0.08646 0.07302 0.0
H898 H 0.11356 0.02825 0.03033 0.0
H899 H 0.14218 0.00661 0.02664 0.0
H900 H 0.90404 0.99978 1.00521 0.0
H901 H 0.93346 0.97759 1.00365 0.0
H902 H 0.98565 0.04455 0.03076 0.0
H903 H 0.95694 0.06646 0.03159 0.0
Tb904 Tb 0.28932 0.78565 0.30072 0.0
Tb905 Tb 0.32457 0.78855 0.26182 0.0
C906 C 0.27449 0.79532 0.2532 0.0
C907 C 0.25768 0.76563 0.34831 0.0
C908 C 0.25604 0.74012 0.38595 0.0
C909 C 0.24499 0.75854 0.38457 0.0
C910 C 0.24575 0.77121 0.36576 0.0
C911 C 0.26766 0.74629 0.34919 0.0
C912 C 0.26674 0.73349 0.36792 0.0
C913 C 0.26183 0.78158 0.33034 0.0
O914 O 0.27954 0.75145 0.28031 0.0
O915 O 0.3136 0.75018 0.26672 0.0
O916 O 0.34431 0.78739 0.29317 0.0
O917 O 0.31478 0.76864 0.31386 0.0
O918 O 0.33277 0.77716 0.23091 0.0
O919 O 0.35695 0.80722 0.25165 0.0
O920 O 0.3208 0.82441 0.26954 0.0
O921 O 0.31648 0.82022 0.30565 0.0
O922 O 0.27508 0.80224 0.27422 0.0
O923 O 0.28993 0.78528 0.24568 0.0
C924 C 0.2928 0.73946 0.27186 0.0
O925 O 0.28227 0.79778 0.33185 0.0
O926 O 0.25604 0.77035 0.31066 0.0
C927 C 0.33681 0.77521 0.31023 0.0
C928 C 0.35369 0.81145 0.21411 0.0
C929 C 0.35611 0.84176 0.17942 0.0
C930 C 0.37228 0.82862 0.18246 0.0
C931 C 0.37106 0.81353 0.19976 0.0
C932 C 0.33776 0.82475 0.21131 0.0
C933 C 0.33891 0.83972 0.19409 0.0
C934 C 0.35188 0.79549 0.23207 0.0
C935 C 0.32384 0.83396 0.28981 0.0
H936 H 0.23663 0.76379 0.39839 0.0
H937 H 0.23796 0.78607 0.36523 0.0
H938 H 0.27703 0.74186 0.33582 0.0
H939 H 0.27557 0.7195 0.36884 0.0
H940 H 0.38578 0.82996 0.17146 0.0
H941 H 0.38354 0.80341 0.20185 0.0
H942 H 0.32421 0.82329 0.2223 0.0
H943 H 0.3259 0.84917 0.19194 0.0
Tb944 Tb 0.52267 0.0392 0.53956 0.0
Tb945 Tb 0.57901 0.0424 0.53718 0.0
C946 C 0.55267 0.02538 0.57539 0.0
C947 C 0.46928 0.05991 0.54321 0.0
C948 C 0.44349 0.09443 0.54496 0.0
C949 C 0.44484 0.08012 0.56263 0.0
C950 C 0.45746 0.063 0.56169 0.0
C951 C 0.46839 0.07463 0.52576 0.0
C952 C 0.45561 0.09159 0.52661 0.0
C953 C 0.48143 0.04057 0.54201 0.0
O954 O 0.54211 0.07817 0.54462 0.0
O955 O 0.57837 0.07622 0.55681 0.0
O956 O 0.57252 0.06536 0.51273 0.0
O957 O 0.53309 0.04633 0.50695 0.0
O958 O 0.60985 0.04304 0.5554 0.0
O959 O 0.60774 0.04237 0.51991 0.0
O960 O 0.55826 0.00878 0.51703 0.0
O961 O 0.52261 1.00086 0.5314 0.0
O962 O 0.53911 0.03905 0.57198 0.0
O963 O 0.56103 0.01681 0.55877 0.0
C964 C 0.56283 0.08836 0.55495 0.0
O965 O 0.49015 0.03672 0.5237 0.0
O966 O 0.49534 0.04006 0.55896 0.0
C967 C 0.55269 0.06063 0.50116 0.0
C968 C 0.63326 0.02252 0.53614 0.0
C969 C 0.66005 0.98918 0.5329 0.0
C970 C 0.65903 1.00482 0.51624 0.0
C971 C 0.64589 0.02129 0.51789 0.0
C972 C 0.63414 0.00688 0.55284 0.0
C973 C 0.64736 0.99039 0.55121 0.0
C974 C 0.62029 0.04098 0.53765 0.0
C975 C 0.53781 0.99346 0.52031 0.0
H976 H 0.43553 0.08162 0.5769 0.0
H977 H 0.45766 0.05182 0.57533 0.0
H978 H 0.4773 0.07287 0.51127 0.0
H979 H 0.45516 0.10247 0.51282 0.0
H980 H 0.6683 1.00427 0.50179 0.0
H981 H 0.6457 0.03325 0.50485 0.0
H982 H 0.62482 0.00751 0.56726 0.0
H983 H 0.64799 0.97893 0.56453 0.0
Tb984 Tb 0.32463 0.28104 0.78825 0.0
Tb985 Tb 0.26658 0.28837 0.7818 0.0
C986 C 0.28562 0.24234 0.79043 0.0
C987 C 0.38489 0.28802 0.77328 0.0
C988 C 0.41934 0.28542 0.74511 0.0
C989 C 0.40976 0.26573 0.75771 0.0
C990 C 0.39279 0.26708 0.77177 0.0
C991 C 0.39415 0.30743 0.76024 0.0
C992 C 0.41111 0.30611 0.74631 0.0
C993 C 0.36799 0.29033 0.78908 0.0
O994 O 0.31213 0.27478 0.7525 0.0
O995 O 0.27312 0.27523 0.74838 0.0
O996 O 0.28772 0.32138 0.76954 0.0
O997 O 0.31456 0.31435 0.79275 0.0
O998 O 0.23351 0.26318 0.78243 0.0
O999 O 0.23832 0.30236 0.77875 0.0
O1000 O 0.27918 0.29771 0.81737 0.0
O1001 O 0.31433 0.28748 0.82209 0.0
O1002 O 0.30677 0.24199 0.79243 0.0
O1003 O 0.2855 0.26383 0.78543 0.0
C1004 C 0.29233 0.27241 0.74026 0.0
O1005 O 0.35695 0.30637 0.78528 0.0
O1006 O 0.35435 0.27 0.79542 0.0
C1007 C 0.30951 0.3258 0.77628 0.0
C1008 C 0.20797 0.28231 0.79966 0.0
C1009 C 0.17792 0.28583 0.83235 0.0
C1010 C 0.17812 0.29863 0.81347 0.0
C1011 C 0.19309 0.29698 0.79735 0.0
C1012 C 0.20778 0.26956 0.81858 0.0
C1013 C 0.19299 0.2714 0.83484 0.0
C1014 C 0.22381 0.28107 0.78245 0.0
C1015 C 0.29692 0.29463 0.82993 0.0
H1016 H 0.4159 0.24964 0.7572 0.0
H1017 H 0.38616 0.25192 0.78173 0.0
H1018 H 0.38855 0.32389 0.76101 0.0
H1019 H 0.41797 0.32142 0.73657 0.0
H1020 H 0.16673 0.30998 0.81123 0.0
H1021 H 0.19302 0.30717 0.78302 0.0
H1022 H 0.21904 0.25818 0.82075 0.0
H1023 H 0.193 0.26116 0.84915 0.0
Tb1024 Tb 0.04883 0.05317 0.56078 0.0
Tb1025 Tb 0.05568 0.0215 0.51881 0.0
C1026 C 1.00599 0.01394 0.53699 0.0
C1027 C 0.05854 0.07333 0.61845 0.0
C1028 C 0.0797 0.06676 0.6587 0.0
C1029 C 0.06517 0.08207 0.65793 0.0
C1030 C 0.05453 0.08523 0.63785 0.0
C1031 C 0.07297 0.05811 0.61922 0.0
C1032 C 0.08317 0.05455 0.63914 0.0
C1033 C 0.04791 0.07628 0.59717 0.0
O1034 O 0.05366 0.01804 0.57428 0.0
O1035 O 0.05935 0.99538 0.544 0.0
O1036 O 0.09079 0.03768 0.53387 0.0
O1037 O 0.08393 0.07042 0.55234 0.0
O1038 O 0.04174 0.99155 0.49503 0.0
O1039 O 0.07507 0.01736 0.49232 0.0
O1040 O 0.05257 0.05722 0.50559 0.0
O1041 O 0.04149 0.07696 0.5348 0.0
O1042 O 0.01334 0.03551 0.54829 0.0
O1043 O 0.01985 1.00504 0.52573 0.0
C1044 C 0.05692 0.99718 0.56547 0.0
O1045 O 0.06254 0.08477 0.58294 0.0
O1046 O 0.03129 0.05707 0.58865 0.0
C1047 C 0.09828 0.06027 0.54334 0.0
C1048 C 0.05026 1.00335 0.45961 0.0
C1049 C 0.03415 0.01451 0.41853 0.0
C1050 C 0.05755 0.02456 0.42638 0.0
C1051 C 0.06555 0.019 0.44672 0.0
C1052 C 0.02705 0.99256 0.45132 0.0
C1053 C 0.0191 0.9981 0.43103 0.0
C1054 C 0.058 0.99963 0.48216 0.0
C1055 C 0.0464 0.07653 0.5139 0.0
H1056 H 0.0624 0.09196 0.67273 0.0
H1057 H 0.04344 0.09708 0.63745 0.0
H1058 H 0.07655 0.04909 0.60435 0.0
H1059 H 0.09385 0.04227 0.63917 0.0
H1060 H 0.06954 0.03726 0.41708 0.0
H1061 H 0.08357 0.02745 0.45261 0.0
H1062 H 0.01483 0.98021 0.46068 0.0
H1063 H 1.00108 0.98956 0.42517 0.0
Tb1064 Tb 0.31116 0.81575 0.78127 0.0
Tb1065 Tb 0.28823 0.76063 0.79183 0.0
C1066 C 0.30677 0.77225 0.74686 0.0
C1067 C 0.31306 0.87859 0.77821 0.0
C1068 C 0.28309 0.90738 0.78509 0.0
C1069 C 0.29346 0.90732 0.76521 0.0
C1070 C 0.30826 0.89286 0.76174 0.0
C1071 C 0.30317 0.87933 0.79828 0.0
C1072 C 0.28838 0.89353 0.80166 0.0
C1073 C 0.3253 0.86018 0.77359 0.0
O1074 O 0.2736 0.80824 0.76783 0.0
O1075 O 0.2559 0.77168 0.78201 0.0
O1076 O 0.28781 0.78112 0.82227 0.0
O1077 O 0.29202 0.81878 0.80933 0.0
O1078 O 0.26882 0.72389 0.78134 0.0
O1079 O 0.28499 0.73344 0.81419 0.0
O1080 O 0.32737 0.76649 0.79751 0.0
O1081 O 0.34088 0.80849 0.80152 0.0
O1082 O 0.32107 0.79299 0.75604 0.0
O1083 O 0.28958 0.75964 0.75686 0.0
C1084 C 0.25407 0.79072 0.77089 0.0
O1085 O 0.33298 0.85162 0.7908 0.0
O1086 O 0.31473 0.84247 0.75844 0.0
C1087 C 0.28744 0.80387 0.82488 0.0
C1088 C 0.29178 0.70056 0.79419 0.0
C1089 C 0.32321 0.67442 0.7852 0.0
C1090 C 0.30566 0.66519 0.79911 0.0
C1091 C 0.28999 0.67837 0.80371 0.0
C1092 C 0.30979 0.70991 0.78094 0.0
C1093 C 0.32554 0.69724 0.77681 0.0
C1094 C 0.27656 0.7157 0.79866 0.0
C1095 C 0.34489 0.78692 0.80409 0.0
H1096 H 0.28966 0.91793 0.7522 0.0
H1097 H 0.31538 0.89223 0.74602 0.0
H1098 H 0.30634 0.86844 0.81131 0.0
H1099 H 0.28106 0.89365 0.81733 0.0
H1100 H 0.30361 0.64751 0.8057 0.0
H1101 H 0.27642 0.67117 0.8143 0.0
H1102 H 0.31154 0.72697 0.77342 0.0
H1103 H 0.33912 0.70489 0.76633 0.0
Tb1104 Tb 0.54478 0.0243 0.0601 0.0
Tb1105 Tb 0.5629 0.05681 0.02178 0.0
C1106 C 0.5941 0.04833 0.05941 0.0
C1107 C 0.51958 1.00146 0.10937 0.0
C1108 C 0.51592 0.02003 0.15191 0.0
C1109 C 0.53135 0.00635 0.1483 0.0
C1110 C 0.53297 0.99689 0.1272 0.0
C1111 C 0.50362 0.01454 0.11303 0.0
C1112 C 0.50176 0.0237 0.13422 0.0
C1113 C 0.52528 0.99596 0.0872 0.0
O1114 O 0.54797 0.06208 0.07737 0.0
O1115 O 0.56033 0.08542 0.0487 0.0
O1116 O 0.52673 0.03909 0.0128 0.0
O1117 O 0.52258 0.0444 0.04813 0.0
O1118 O 0.59251 0.07597 0.0073 0.0
O1119 O 0.55898 0.0801 0.99775 0.0
O1120 O 0.5574 0.01963 1.00314 0.0
O1121 O 0.54987 0.99712 0.03295 0.0
O1122 O 0.57888 0.0432 0.07347 0.0
O1123 O 0.5872 0.04167 0.03873 0.0
C1124 C 0.55413 0.0843 0.0693 0.0
O1125 O 0.51388 1.00239 0.07094 0.0
O1126 O 0.54749 1.0021 0.08518 0.0
C1127 C 0.51329 0.03967 0.02825 0.0
C1128 C 0.58213 0.07659 0.96968 0.0
C1129 C 0.57899 0.05619 0.92641 0.0
C1130 C 0.56685 0.07298 0.93166 0.0
C1131 C 0.5684 0.08313 0.95323 0.0
C1132 C 0.59494 0.06044 0.96415 0.0
C1133 C 0.59333 0.0503 0.94266 0.0
C1134 C 0.58018 0.08362 0.9927 0.0
C1135 C 0.55352 0.99791 0.01164 0.0
H1136 H 0.54245 1.00335 0.16173 0.0
H1137 H 0.5455 0.98698 0.12467 0.0
H1138 H 0.4931 0.01837 0.09956 0.0
H1139 H 0.48929 0.03368 0.13677 0.0
H1140 H 0.55604 0.07801 0.91913 0.0
H1141 H 0.55828 0.09543 0.95721 0.0
H1142 H 0.60571 0.05506 0.97646 0.0
H1143 H 0.60346 0.038 0.93866 0.0
Tb1144 Tb 0.28741 0.26032 0.27595 0.0
Tb1145 Tb 0.31012 0.31487 0.2945 0.0
C1146 C 0.29013 0.30212 0.24291 0.0
C1147 C 0.28806 0.19765 0.26676 0.0
C1148 C 0.32362 0.17584 0.27308 0.0
C1149 C 0.31376 0.17622 0.25179 0.0
C1150 C 0.29608 0.18714 0.24865 0.0
C1151 C 0.29695 0.19565 0.28809 0.0
C1152 C 0.31452 0.18485 0.29118 0.0
C1153 C 0.27441 0.21482 0.26338 0.0
O1154 O 0.32512 0.26726 0.26793 0.0
O1155 O 0.34198 0.30737 0.28172 0.0
O1156 O 0.32012 0.29632 0.32218 0.0
O1157 O 0.29478 0.2583 0.31177 0.0
O1158 O 0.32783 0.35174 0.28958 0.0
O1159 O 0.31541 0.34241 0.32073 0.0
O1160 O 0.27325 0.30555 0.30572 0.0
O1161 O 0.25491 0.26889 0.28599 0.0
O1162 O 0.28277 0.27851 0.2461 0.0
O1163 O 0.29915 0.31874 0.25973 0.0
C1164 C 0.34384 0.28725 0.27038 0.0
O1165 O 0.26794 0.22408 0.28093 0.0
O1166 O 0.28302 0.23194 0.25065 0.0
C1167 C 0.30839 0.27425 0.32724 0.0
C1168 C 0.30541 0.37395 0.30479 0.0
C1169 C 0.27191 0.39776 0.29617 0.0
C1170 C 0.29358 0.41109 0.30726 0.0
C1171 C 0.31029 0.39906 0.31181 0.0
C1172 C 0.28377 0.36098 0.294 0.0
C1173 C 0.26695 0.37239 0.29052 0.0
C1174 C 0.32185 0.35999 0.30786 0.0
C1175 C 0.25361 0.28716 0.30029 0.0
H1176 H 0.3204 0.1691 0.23762 0.0
H1177 H 0.28961 0.18868 0.23206 0.0
H1178 H 0.29128 0.2036 0.30245 0.0
H1179 H 0.32141 0.18409 0.30781 0.0
H1180 H 0.29784 0.43078 0.31173 0.0
H1181 H 0.32699 0.40935 0.32012 0.0
H1182 H 0.27995 0.34198 0.28757 0.0
H1183 H 0.25029 0.36141 0.28255 0.0
Tb1184 Tb 0.54747 0.55221 0.05885 0.0
Tb1185 Tb 0.5554 0.52171 0.01643 0.0
C1186 C 0.50572 0.51171 0.03501 0.0
C1187 C 0.55694 0.57269 0.1172 0.0
C1188 C 0.5778 0.56537 0.15747 0.0
C1189 C 0.55476 0.56592 0.15582 0.0
C1190 C 0.54443 0.56966 0.1358 0.0
C1191 C 0.58 0.57219 0.1189 0.0
C1192 C 0.59037 0.56874 0.13891 0.0
C1193 C 0.54528 0.5738 0.09567 0.0
O1194 O 0.55095 0.51631 0.07153 0.0
O1195 O 0.56141 0.4966 0.04186 0.0
O1196 O 0.59063 0.53849 0.03039 0.0
O1197 O 0.58381 0.56866 0.05304 0.0
O1198 O 0.54232 0.49083 0.99339 0.0
O1199 O 0.57349 0.51917 0.98855 0.0
O1200 O 0.5516 0.55749 1.0037 0.0
O1201 O 0.54062 0.57682 0.03321 0.0
O1202 O 0.5122 0.5337 0.04566 0.0
O1203 O 0.52014 0.50356 0.02397 0.0
C1204 C 0.55649 0.49676 0.0628 0.0
O1205 O 0.55854 0.58415 0.08098 0.0
O1206 O 0.53022 0.55323 0.08747 0.0
C1207 C 0.59795 0.55991 0.04203 0.0
C1208 C 0.54719 0.50276 0.95742 0.0
C1209 C 0.52906 0.51207 0.91653 0.0
C1210 C 0.55292 0.51578 0.92066 0.0
C1211 C 0.5619 0.51101 0.94092 0.0
C1212 C 0.52326 0.49885 0.95314 0.0
C1213 C 0.5143 0.50336 0.93286 0.0
C1214 C 0.55705 0.5001 0.97945 0.0
C1215 C 0.54556 0.57679 0.01228 0.0
H1216 H 0.54479 0.56344 0.16999 0.0
H1217 H 0.52654 0.56965 0.13472 0.0
H1218 H 0.58989 0.57391 0.10467 0.0
H1219 H 0.60806 0.56807 0.13973 0.0
H1220 H 0.56458 0.52238 0.90822 0.0
H1221 H 0.58038 0.51424 0.94389 0.0
H1222 H 0.51144 0.4928 0.96557 0.0
H1223 H 0.49587 0.50065 0.93013 0.0
Tb1224 Tb 0.81506 0.31412 0.27951 0.0
Tb1225 Tb 0.78826 0.25663 0.29521 0.0
C1226 C 0.80999 0.26861 0.24803 0.0
C1227 C 0.81435 0.37767 0.28238 0.0
C1228 C 0.78566 0.40842 0.28608 0.0
C1229 C 0.80346 0.41347 0.27188 0.0
C1230 C 0.8177 0.39816 0.27005 0.0
C1231 C 0.79662 0.37267 0.29661 0.0
C1232 C 0.78254 0.38797 0.29854 0.0
C1233 C 0.82792 0.36032 0.27913 0.0
O1234 O 0.77725 0.3066 0.26723 0.0
O1235 O 0.75848 0.26896 0.28045 0.0
O1236 O 0.77755 0.27324 0.3237 0.0
O1237 O 0.79812 0.30319 0.30707 0.0
O1238 O 0.76921 0.22008 0.28376 0.0
O1239 O 0.78508 0.22885 0.31688 0.0
O1240 O 0.82682 0.26702 0.30781 0.0
O1241 O 0.84583 0.3035 0.29338 0.0
O1242 O 0.82069 0.29223 0.25223 0.0
O1243 O 0.79705 0.25445 0.26137 0.0
C1244 C 0.75768 0.28851 0.2695 0.0
O1245 O 0.83149 0.34898 0.29627 0.0
O1246 O 0.82159 0.34517 0.26129 0.0
C1247 C 0.78767 0.29649 0.32411 0.0
C1248 C 0.79237 0.19689 0.29637 0.0
C1249 C 0.82459 0.17196 0.2876 0.0
C1250 C 0.80544 0.16077 0.29907 0.0
C1251 C 0.78923 0.17328 0.30346 0.0
C1252 C 0.81201 0.20813 0.28566 0.0
C1253 C 0.82791 0.19578 0.28123 0.0
C1254 C 0.77682 0.21151 0.30096 0.0
C1255 C 0.84666 0.28467 0.30514 0.0
H1256 H 0.80617 0.42904 0.26201 0.0
H1257 H 0.83108 0.40208 0.25877 0.0
H1258 H 0.79347 0.35677 0.30613 0.0
H1259 H 0.76933 0.38389 0.31 0.0
H1260 H 0.80275 0.14225 0.30404 0.0
H1261 H 0.77441 0.16462 0.31218 0.0
H1262 H 0.81513 0.2266 0.28064 0.0
H1263 H 0.84269 0.20472 0.27255 0.0
Tb1264 Tb 0.04987 0.51505 0.56287 0.0
Tb1265 Tb 0.05984 0.54909 0.52387 0.0
C1266 C 0.09804 0.54728 0.55665 0.0
C1267 C 0.0323 0.49702 0.61516 0.0
C1268 C 0.02057 0.51519 0.65469 0.0
C1269 C 0.0349 0.49983 0.65484 0.0
C1270 C 0.04087 0.49083 0.63504 0.0
C1271 C 0.01816 0.51269 0.61521 0.0
C1272 C 0.01229 0.52167 0.6349 0.0
C1273 C 0.03964 0.48925 0.5944 0.0
O1274 O 0.04559 0.55178 0.57732 0.0
O1275 O 0.06443 0.57749 0.55254 0.0
O1276 O 0.02713 0.54974 0.53414 0.0
O1277 O 0.01814 0.51067 0.54347 0.0
O1278 O 0.08224 0.57551 0.50662 0.0
O1279 O 0.04552 0.5608 0.49642 0.0
O1280 O 0.05118 0.51002 0.50735 0.0
O1281 O 0.06061 0.49154 0.53699 0.0
O1282 O 0.08328 0.54057 0.57108 0.0
O1283 O 0.09114 0.54195 0.53582 0.0
C1284 C 0.05478 0.5749 0.57152 0.0
O1285 O 0.0253 0.48795 0.57729 0.0
O1286 O 0.06091 0.50067 0.59091 0.0
C1287 C 0.01197 0.52992 0.53884 0.0
C1288 C 0.06973 0.56926 0.46874 0.0
C1289 C 0.07115 0.55232 0.42519 0.0
C1290 C 0.05559 0.56536 0.43043 0.0
C1291 C 0.05495 0.57385 0.45212 0.0
C1292 C 0.08561 0.55665 0.46351 0.0
C1293 C 0.08642 0.54837 0.44181 0.0
C1294 C 0.06563 0.57425 0.49146 0.0
C1295 C 0.05611 0.49063 0.51533 0.0
H1296 H 0.04131 0.49477 0.67021 0.0
H1297 H 0.0522 0.47923 0.63523 0.0
H1298 H 0.01169 0.51814 0.60005 0.0
H1299 H 1.00106 0.5334 0.63469 0.0
H1300 H 0.04373 0.56863 0.41783 0.0
H1301 H 0.0423 0.58319 0.45606 0.0
H1302 H 0.09695 0.55262 0.47617 0.0
H1303 H 0.09901 0.53893 0.43801 0.0
Tb1304 Tb 0.82509 0.79095 0.28816 0.0
Tb1305 Tb 0.77227 0.79767 0.28233 0.0
C1306 C 0.78138 0.74809 0.29201 0.0
C1307 C 0.88396 0.79108 0.27366 0.0
C1308 C 0.91825 0.78922 0.24495 0.0
C1309 C 0.91275 0.77237 0.26104 0.0
C1310 C 0.89587 0.7734 0.27533 0.0
C1311 C 0.88894 0.80741 0.25708 0.0
C1312 C 0.90594 0.80654 0.24297 0.0
C1313 C 0.86737 0.79315 0.2899 0.0
O1314 O 0.81603 0.78524 0.25234 0.0
O1315 O 0.77663 0.78078 0.24951 0.0
O1316 O 0.79437 0.82502 0.2643 0.0
O1317 O 0.82157 0.82754 0.29101 0.0
O1318 O 0.73642 0.78241 0.27489 0.0
O1319 O 0.75143 0.82104 0.28687 0.0
O1320 O 0.78727 0.81178 0.31667 0.0
O1321 O 0.81464 0.79129 0.32207 0.0
O1322 O 0.80164 0.75398 0.28424 0.0
O1323 O 0.77058 0.76417 0.29722 0.0
C1324 C 0.79572 0.77935 0.24059 0.0
O1325 O 0.85978 0.81232 0.28944 0.0
O1326 O 0.85088 0.77313 0.29276 0.0
C1327 C 0.81518 0.83584 0.2732 0.0
C1328 C 0.71596 0.79967 0.30017 0.0
C1329 C 0.68551 0.79557 0.33382 0.0
C1330 C 0.69082 0.81645 0.32174 0.0
C1331 C 0.7058 0.81841 0.30504 0.0
C1332 C 0.71086 0.77888 0.31238 0.0
C1333 C 0.69566 0.77678 0.32891 0.0
C1334 C 0.73242 0.80253 0.28297 0.0
C1335 C 0.80096 0.80354 0.33 0.0
H1336 H 0.92202 0.75891 0.26304 0.0
H1337 H 0.89241 0.76066 0.28798 0.0
H1338 H 0.88 0.82119 0.25518 0.0
H1339 H 0.90955 0.81953 0.23054 0.0
H1340 H 0.68302 0.83107 0.32494 0.0
H1341 H 0.70952 0.83464 0.29593 0.0
H1342 H 0.71866 0.76425 0.30924 0.0
H1343 H 0.69199 0.76055 0.338 0.0
Tb1344 Tb 0.78882 0.28676 0.80068 0.0
Tb1345 Tb 0.82415 0.29209 0.76168 0.0
C1346 C 0.77342 0.29817 0.75355 0.0
C1347 C 0.76348 0.26867 0.8514 0.0
C1348 C 0.76626 0.24369 0.88894 0.0
C1349 C 0.74659 0.25125 0.88368 0.0
C1350 C 0.7452 0.26367 0.8649 0.0
C1351 C 0.78299 0.26115 0.8567 0.0
C1352 C 0.78442 0.24884 0.87525 0.0
C1353 C 0.76218 0.28059 0.83117 0.0
O1354 O 0.77795 0.25517 0.77699 0.0
O1355 O 0.8127 0.25341 0.76575 0.0
O1356 O 0.84434 0.29173 0.79284 0.0
O1357 O 0.81529 0.27021 0.81247 0.0
O1358 O 0.8333 0.2814 0.73099 0.0
O1359 O 0.85622 0.31227 0.7519 0.0
O1360 O 0.81871 0.32684 0.77061 0.0
O1361 O 0.81619 0.3213 0.8066 0.0
O1362 O 0.77307 0.30287 0.7749 0.0
O1363 O 0.78996 0.29024 0.74541 0.0
C1364 C 0.79124 0.24291 0.76913 0.0
O1365 O 0.77882 0.3009 0.82974 0.0
O1366 O 0.75868 0.26573 0.81335 0.0
C1367 C 0.8374 0.27866 0.80951 0.0
C1368 C 0.85404 0.31579 0.71416 0.0
C1369 C 0.85657 0.34422 0.67811 0.0
C1370 C 0.87317 0.33189 0.68244 0.0
C1371 C 0.87188 0.31773 0.70038 0.0
C1372 C 0.8378 0.32851 0.71026 0.0
C1373 C 0.83901 0.34255 0.69235 0.0
C1374 C 0.85202 0.30026 0.73243 0.0
C1375 C 0.82295 0.33575 0.79105 0.0
H1376 H 0.73225 0.24731 0.89389 0.0
H1377 H 0.72991 0.26921 0.86087 0.0
H1378 H 0.79726 0.26487 0.84657 0.0
H1379 H 0.79998 0.24371 0.87902 0.0
H1380 H 0.88702 0.33306 0.67189 0.0
H1381 H 0.88461 0.3081 0.70336 0.0
H1382 H 0.82393 0.32718 0.72085 0.0
H1383 H 0.82574 0.35146 0.68928 0.0
Tb1384 Tb 0.79127 0.764 0.7783 0.0
Tb1385 Tb 0.81186 0.81901 0.79447 0.0
C1386 C 0.79279 0.80535 0.74417 0.0
C1387 C 0.79303 0.70208 0.76836 0.0
C1388 C 0.828 0.67917 0.77312 0.0
C1389 C 0.81512 0.67674 0.75275 0.0
C1390 C 0.79777 0.68828 0.75036 0.0
C1391 C 0.8053 0.7035 0.7889 0.0
C1392 C 0.8225 0.69209 0.79125 0.0
C1393 C 0.77886 0.7187 0.76508 0.0
O1394 O 0.83028 0.76994 0.77613 0.0
O1395 O 0.84172 0.81174 0.777 0.0
O1396 O 0.82134 0.80082 0.82314 0.0
O1397 O 0.7965 0.76239 0.81398 0.0
O1398 O 0.83316 0.85477 0.79036 0.0
O1399 O 0.81655 0.84704 0.82005 0.0
O1400 O 0.77441 0.81198 0.80356 0.0
O1401 O 0.75844 0.77196 0.78928 0.0
O1402 O 0.79052 0.78216 0.74753 0.0
O1403 O 0.79665 0.82197 0.76118 0.0
C1404 C 0.84655 0.79064 0.77217 0.0
O1405 O 0.77214 0.72745 0.78272 0.0
O1406 O 0.78721 0.73612 0.75256 0.0
C1407 C 0.80969 0.77901 0.82899 0.0
C1408 C 0.81457 0.88248 0.80458 0.0
C1409 C 0.78028 0.90612 0.80128 0.0
C1410 C 0.79458 0.90952 0.82089 0.0
C1411 C 0.81161 0.89753 0.82258 0.0
C1412 C 0.80142 0.88087 0.7845 0.0
C1413 C 0.78437 0.89251 0.78291 0.0
C1414 C 0.8268 0.86417 0.80793 0.0
C1415 C 0.75585 0.79182 0.80076 0.0
H1416 H 0.81899 0.66668 0.73859 0.0
H1417 H 0.78877 0.68735 0.73431 0.0
H1418 H 0.80234 0.71428 0.80306 0.0
H1419 H 0.83172 0.69366 0.8073 0.0
H1420 H 0.79174 0.92028 0.83513 0.0
H1421 H 0.82141 0.89872 0.83826 0.0
H1422 H 0.80325 0.86937 0.77033 0.0
H1423 H 0.77383 0.8902 0.76748 0.0
Tb1424 Tb 0.57989 0.55688 0.54955 0.0
Tb1425 Tb 0.52204 0.51832 0.52926 0.0
C1426 C 0.54302 0.55453 0.5736 0.0
C1427 C 0.64126 0.56245 0.55196 0.0
C1428 C 0.6742 0.53688 0.54786 0.0
C1429 C 0.67685 0.55481 0.5655 0.0
C1430 C 0.66041 0.56749 0.56757 0.0
C1431 C 0.63864 0.54432 0.53435 0.0
C1432 C 0.65506 0.53171 0.5323 0.0
C1433 C 0.62322 0.57463 0.55506 0.0
O1434 O 0.5731 0.51923 0.56144 0.0
O1435 O 0.53961 0.49243 0.54145 0.0
O1436 O 0.5394 0.51918 0.50037 0.0
O1437 O 0.57305 0.52836 0.52222 0.0
O1438 O 0.49219 0.50393 0.54513 0.0
O1439 O 0.49148 0.50054 0.50935 0.0
O1440 O 0.52401 0.55649 0.52132 0.0
O1441 O 0.56309 0.58018 0.53036 0.0
O1442 O 0.56404 0.56818 0.57824 0.0
O1443 O 0.54136 0.54365 0.55427 0.0
C1444 C 0.55837 0.4967 0.55547 0.0
O1445 O 0.61092 0.57656 0.53737 0.0
O1446 O 0.61032 0.56721 0.57096 0.0
C1447 C 0.56186 0.52837 0.5031 0.0
C1448 C 0.46236 0.51293 0.52493 0.0
C1449 C 0.43123 0.54016 0.521 0.0
C1450 C 0.42529 0.51596 0.51092 0.0
C1451 C 0.44099 0.50238 0.51273 0.0
C1452 C 0.46839 0.5374 0.5345 0.0
C1453 C 0.45289 0.55096 0.53252 0.0
C1454 C 0.47937 0.49954 0.52641 0.0
C1455 C 0.54159 0.5773 0.52149 0.0
H1456 H 0.69161 0.55898 0.57761 0.0
H1457 H 0.66252 0.58108 0.58144 0.0
H1458 H 0.62383 0.53975 0.52227 0.0
H1459 H 0.6529 0.51798 0.51852 0.0
H1460 H 0.40841 0.5075 0.50214 0.0
H1461 H 0.43642 0.48373 0.50485 0.0
H1462 H 0.48502 0.54599 0.54373 0.0
H1463 H 0.45742 0.56951 0.54066 0.0
Tb1464 Tb 0.02264 0.53962 0.03758 0.0
Tb1465 Tb 0.085 0.54344 0.03699 0.0
C1466 C 0.05094 0.52848 0.07263 0.0
C1467 C 0.97144 0.56426 0.03289 0.0
C1468 C 0.94322 0.59537 0.04047 0.0
C1469 C 0.94502 0.5782 0.05541 0.0
C1470 C 0.95892 0.56273 0.05163 0.0
C1471 C 0.97007 0.58207 0.01836 0.0
C1472 C 0.95604 0.59735 0.02206 0.0
C1473 C 0.98423 0.54617 0.02742 0.0
O1474 O 0.04275 0.57653 0.05168 0.0
O1475 O 0.08259 0.57873 0.05358 0.0
O1476 O 0.08233 0.5574 1.0047 0.0
O1477 O 0.05292 0.55094 0.02218 0.0
O1478 O 0.10927 0.53608 0.05965 0.0
O1479 O 0.11807 0.54675 0.0273 0.0
O1480 O 0.0637 0.50768 0.01922 0.0
O1481 O 0.02379 0.50346 0.02267 0.0
O1482 O 0.03213 0.53526 0.0712 0.0
O1483 O 0.05778 0.52079 0.05451 0.0
C1484 C 0.06516 0.58822 0.05684 0.0
O1485 O 1.00223 0.55354 0.01598 0.0
O1486 O 0.9876 0.53223 0.04285 0.0
C1487 C 0.0613 0.55792 1.00423 0.0
C1488 C 0.13516 0.51806 0.04204 0.0
C1489 C 0.15807 0.48164 0.03684 0.0
C1490 C 0.15232 0.49306 0.01862 0.0
C1491 C 0.14111 0.51121 0.0212 0.0
C1492 C 0.14062 0.50629 0.06018 0.0
C1493 C 0.15201 0.4883 0.05761 0.0
C1494 C 0.12445 0.53822 0.04513 0.0
C1495 C 0.04106 0.49522 0.01618 0.0
H1496 H 0.93518 0.5763 0.06967 0.0
H1497 H 0.9594 0.54919 0.06315 0.0
H1498 H 0.97948 0.58387 1.00385 0.0
H1499 H 0.95482 0.61041 0.01028 0.0
H1500 H 0.15715 0.48851 1.00251 0.0
H1501 H 0.13747 0.5201 0.00688 0.0
H1502 H 0.1364 0.51128 0.07643 0.0
H1503 H 0.15627 0.47969 0.07189 0.0
C1504 C 1.00641 0.19832 0.98366 0.0
C1505 C 0.01007 0.20343 0.96176 0.0
C1506 C 0.01121 0.17781 0.99274 0.0
C1507 C 0.02071 0.16197 0.98001 0.0
C1508 C 0.02471 0.16718 0.95792 0.0
C1509 C 0.01909 0.18747 0.94903 0.0
C1510 C 1.00612 0.17316 0.01613 0.0
C1511 C 0.03528 0.15147 0.94369 0.0
C1512 C 0.05221 0.12166 0.01067 0.0
C1513 C 0.03552 0.09817 0.00871 0.0
C1514 C 0.04778 0.14231 1.00138 0.0
C1515 C 0.02604 0.13987 0.9897 0.0
C1516 C 1.00915 0.11623 0.98774 0.0
C1517 C 0.01404 0.09593 0.99712 0.0
C1518 C 0.06647 0.16688 1.00413 0.0
C1519 C 0.98562 0.11236 0.97585 0.0
H1520 H 0.99955 0.21039 0.99382 0.0
H1521 H 0.02242 0.19126 0.93225 0.0
H1522 H 0.99499 0.15389 0.01684 0.0
H1523 H 0.02249 0.17536 0.02635 0.0
H1524 H 0.99735 0.18602 0.02346 0.0
H1525 H 0.03805 0.15818 0.92716 0.0
H1526 H 0.05216 0.15138 0.95176 0.0
H1527 H 0.02389 0.13205 0.9417 0.0
H1528 H 0.06889 0.12397 0.01947 0.0
H1529 H 1.00079 0.07815 0.99537 0.0
H1530 H 0.06039 0.18076 0.01357 0.0
H1531 H 0.07033 0.1737 0.98782 0.0
H1532 H 0.08271 0.16574 0.01284 0.0
H1533 H 0.97673 0.12446 0.98418 0.0
H1534 H 0.97448 0.09287 0.97522 0.0
H1535 H 0.9875 0.11766 0.9588 0.0
C1536 C 0.17831 0.81325 0.16203 0.0
C1537 C 0.15882 0.81546 0.17219 0.0
C1538 C 0.19804 0.81102 0.17445 0.0
C1539 C 0.19824 0.81031 0.19762 0.0
C1540 C 0.17869 0.81284 0.20794 0.0
C1541 C 0.15952 0.81565 0.19523 0.0
C1542 C 0.21859 0.80905 0.16271 0.0
C1543 C 0.17769 0.8118 0.23245 0.0
C1544 C 0.23843 0.77884 0.22716 0.0
C1545 C 0.25592 0.79909 0.23784 0.0
C1546 C 0.21962 0.7822 0.21415 0.0
C1547 C 0.21855 0.80645 0.21107 0.0
C1548 C 0.23654 0.82694 0.22152 0.0
C1549 C 0.25471 0.823 0.23502 0.0
C1550 C 0.20051 0.75972 0.20424 0.0
C1551 C 0.23666 0.8531 0.21842 0.0
H1552 H 0.17807 0.81295 0.1443 0.0
H1553 H 0.14459 0.81709 0.2034 0.0
H1554 H 0.23457 0.8231 0.17033 0.0
H1555 H 0.221 0.79061 0.16437 0.0
H1556 H 0.21655 0.81163 0.14495 0.0
H1557 H 0.16116 0.81364 0.23799 0.0
H1558 H 0.17971 0.794 0.23725 0.0
H1559 H 0.19217 0.82681 0.24132 0.0
H1560 H 0.23905 0.76031 0.2296 0.0
H1561 H 0.26813 0.83871 0.24332 0.0
H1562 H 0.19879 0.75973 0.18611 0.0
H1563 H 0.18376 0.76029 0.21018 0.0
H1564 H 0.20361 0.74216 0.20844 0.0
H1565 H 0.23765 0.85629 0.20079 0.0
H1566 H 0.25147 0.86702 0.22811 0.0
H1567 H 0.22036 0.85611 0.22332 0.0
C1568 C 0.51501 0.86545 0.45179 0.0
C1569 C 0.51462 0.84394 0.46226 0.0
C1570 C 0.51756 0.88825 0.46355 0.0
C1571 C 0.52023 0.89035 0.48674 0.0
C1572 C 0.51964 0.86886 0.49771 0.0
C1573 C 0.51664 0.84583 0.48536 0.0
C1574 C 0.51779 0.91031 0.45092 0.0
C1575 C 0.52238 0.87028 0.52244 0.0
C1576 C 0.55146 0.95716 0.50856 0.0
C1577 C 0.53308 0.96655 0.51312 0.0
C1578 C 0.54764 0.93199 0.5017 0.0
C1579 C 0.52479 0.91555 0.49885 0.0
C1580 C 0.50622 0.9247 0.50418 0.0
C1581 C 0.51058 0.94997 0.51136 0.0
C1582 C 0.56809 0.92325 0.49655 0.0
C1583 C 0.48155 0.90808 0.50123 0.0
H1584 H 0.51322 0.86465 0.43402 0.0
H1585 H 0.51625 0.82953 0.49375 0.0
H1586 H 0.50464 0.91884 0.4565 0.0
H1587 H 0.53493 0.92454 0.45408 0.0
H1588 H 0.51425 0.90532 0.43291 0.0
H1589 H 0.52207 0.85222 0.52857 0.0
H1590 H 0.53896 0.88427 0.52877 0.0
H1591 H 0.50828 0.87638 0.52928 0.0
H1592 H 0.56901 0.96954 0.5103 0.0
H1593 H 0.49625 0.95687 0.51502 0.0
H1594 H 0.56762 0.91908 0.47854 0.0
H1595 H 0.56727 0.90594 0.50431 0.0
H1596 H 0.58486 0.93731 0.50228 0.0
H1597 H 0.47591 0.9038 0.48344 0.0
H1598 H 0.46952 0.91682 0.50902 0.0
H1599 H 0.48018 0.89028 0.5083 0.0
C1600 C 0.5091 0.29893 0.65475 0.0
C1601 C 0.52925 0.29303 0.66135 0.0
C1602 C 0.49115 0.29639 0.66857 0.0
C1603 C 0.49317 0.28723 0.68931 0.0
C1604 C 0.51329 0.28077 0.69589 0.0
C1605 C 0.53123 0.28403 0.68192 0.0
C1606 C 0.47017 0.30388 0.66109 0.0
C1607 C 0.51577 0.27032 0.71762 0.0
C1608 C 0.45808 0.30598 0.73253 0.0
C1609 C 0.43859 0.28509 0.73146 0.0
C1610 C 0.47619 0.3066 0.7193 0.0
C1611 C 0.47479 0.28585 0.70454 0.0
C1612 C 0.45539 0.26444 0.7037 0.0
C1613 C 0.4375 0.26429 0.71724 0.0
C1614 C 0.49665 0.3297 0.72084 0.0
C1615 C 0.45325 0.24196 0.68813 0.0
H1616 H 0.50751 0.30588 0.63885 0.0
H1617 H 0.54661 0.27902 0.68688 0.0
H1618 H 0.45427 0.28803 0.66108 0.0
H1619 H 0.46843 0.31893 0.67272 0.0
H1620 H 0.47115 0.31037 0.64437 0.0
H1621 H 0.53246 0.26615 0.72029 0.0
H1622 H 0.51455 0.28357 0.7313 0.0
H1623 H 0.50141 0.25305 0.71836 0.0
H1624 H 0.45916 0.32192 0.74379 0.0
H1625 H 0.42241 0.24814 0.71633 0.0
H1626 H 0.49791 0.33774 0.70478 0.0
H1627 H 0.51292 0.32507 0.7247 0.0
H1628 H 0.4954 0.34396 0.73363 0.0
H1629 H 0.45136 0.24658 0.67093 0.0
H1630 H 0.43811 0.2261 0.69081 0.0
H1631 H 0.46915 0.23618 0.69006 0.0
C1632 C 0.07704 0.88417 0.64417 0.0
C1633 C 0.05641 0.86573 0.64836 0.0
C1634 C 0.07753 0.90473 0.63099 0.0
C1635 C 0.05686 0.90884 0.62138 0.0
C1636 C 0.03595 0.89045 0.62576 0.0
C1637 C 0.03597 0.86974 0.63865 0.0
C1638 C 0.10067 0.92245 0.6275 0.0
C1639 C 0.01304 0.89285 0.61696 0.0
C1640 C 0.05676 0.97607 0.60329 0.0
C1641 C 0.05743 0.97483 0.58001 0.0
C1642 C 0.05671 0.9556 0.61649 0.0
C1643 C 0.05712 0.93181 0.60707 0.0
C1644 C 0.05783 0.93049 0.58359 0.0
C1645 C 0.05804 0.95129 0.57082 0.0
C1646 C 0.05621 0.9596 0.64098 0.0
C1647 C 0.05847 0.90668 0.57165 0.0
H1648 H 0.09327 0.88258 0.65132 0.0
H1649 H 0.01956 0.85682 0.64157 0.0
H1650 H 0.1021 0.92453 0.60971 0.0
H1651 H 0.10223 0.94097 0.63567 0.0
H1652 H 0.11532 0.91629 0.63415 0.0
H1653 H 0.99816 0.87815 0.62198 0.0
H1654 H 0.01153 0.91116 0.62289 0.0
H1655 H 0.01204 0.89189 0.59875 0.0
H1656 H 0.0563 0.9934 0.61151 0.0
H1657 H 0.05852 0.94887 0.55318 0.0
H1658 H 0.07183 0.95674 0.64943 0.0
H1659 H 0.04092 0.9458 0.64639 0.0
H1660 H 0.05559 0.97847 0.64628 0.0
H1661 H 0.0744 0.90236 0.57753 0.0
H1662 H 0.05814 0.90758 0.55358 0.0
H1663 H 0.0435 0.89121 0.57532 0.0
C1664 C 0.48301 0.78213 0.84459 0.0
C1665 C 0.4879 0.7821 0.86773 0.0
C1666 C 0.46093 0.78309 0.83405 0.0
C1667 C 0.4411 0.78254 0.846 0.0
C1668 C 0.44534 0.78045 0.86908 0.0
C1669 C 0.46787 0.78075 0.87929 0.0
C1670 C 0.45881 0.78457 0.80962 0.0
C1671 C 0.42538 0.77654 0.8832 0.0
C1672 C 0.38713 0.80656 0.82543 0.0
C1673 C 0.36964 0.78569 0.81447 0.0
C1674 C 0.40951 0.80575 0.83519 0.0
C1675 C 0.41636 0.78348 0.83472 0.0
C1676 C 0.39883 0.76236 0.82343 0.0
C1677 C 0.37655 0.7637 0.81388 0.0
C1678 C 0.42628 0.82944 0.84595 0.0
C1679 C 0.40331 0.73766 0.8208 0.0
H1680 H 0.49638 0.78067 0.83429 0.0
H1681 H 0.46961 0.77938 0.89683 0.0
H1682 H 0.44374 0.76948 0.80179 0.0
H1683 H 0.4557 0.80233 0.80616 0.0
H1684 H 0.47452 0.78324 0.80195 0.0
H1685 H 0.43013 0.77287 0.90018 0.0
H1686 H 0.41917 0.79305 0.884 0.0
H1687 H 0.41073 0.76063 0.87574 0.0
H1688 H 0.3833 0.82403 0.82659 0.0
H1689 H 0.3644 0.747 0.80562 0.0
H1690 H 0.44324 0.83269 0.83898 0.0
H1691 H 0.42921 0.82791 0.86378 0.0
H1692 H 0.41996 0.84568 0.84379 0.0
H1693 H 0.40865 0.73494 0.80405 0.0
H1694 H 0.38724 0.72241 0.82229 0.0
H1695 H 0.41708 0.73615 0.83295 0.0
C1696 C 0.56122 0.21901 0.14442 0.0
C1697 C 0.53987 0.22474 0.14429 0.0
C1698 C 0.56395 0.19678 0.13326 0.0
C1699 C 0.54515 0.17868 0.12042 0.0
C1700 C 0.52351 0.18412 0.12049 0.0
C1701 C 0.52114 0.2059 0.13272 0.0
C1702 C 0.58725 0.19241 0.13577 0.0
C1703 C 0.50242 0.16701 0.10723 0.0
C1704 C 0.5578 0.13202 0.0742 0.0
C1705 C 0.5525 0.10853 0.08288 0.0
C1706 C 0.55561 0.1542 0.08585 0.0
C1707 C 0.54797 0.15437 0.10753 0.0
C1708 C 0.54273 0.13076 0.11648 0.0
C1709 C 0.54492 0.10878 0.10438 0.0
C1710 C 0.56118 0.17774 0.07454 0.0
C1711 C 0.53464 0.1286 0.1392 0.0
H1712 H 0.57613 0.23196 0.15379 0.0
H1713 H 0.50409 0.20735 0.13402 0.0
H1714 H 0.58533 0.17366 0.14113 0.0
H1715 H 0.59474 0.1932 0.1197 0.0
H1716 H 0.59959 0.20629 0.14787 0.0
H1717 H 0.50289 0.17169 0.08992 0.0
H1718 H 0.50199 0.14738 0.1073 0.0
H1719 H 0.48618 0.16899 0.11334 0.0
H1720 H 0.5636 0.13317 0.05783 0.0
H1721 H 0.54048 0.09149 0.11196 0.0
H1722 H 0.57558 0.19216 0.08418 0.0
H1723 H 0.54594 0.18479 0.07371 0.0
H1724 H 0.5662 0.1751 0.05764 0.0
H1725 H 0.54774 0.14178 0.15118 0.0
H1726 H 0.53154 0.10961 0.14441 0.0
H1727 H 0.51836 0.13366 0.13977 0.0
C1728 C 0.13605 0.28243 0.37584 0.0
C1729 C 0.11698 0.28742 0.36412 0.0
C1730 C 0.15766 0.28234 0.36626 0.0
C1731 C 0.16169 0.28666 0.34362 0.0
C1732 C 0.14231 0.29114 0.33171 0.0
C1733 C 0.12131 0.29179 0.34177 0.0
C1734 C 0.17664 0.27777 0.3808 0.0
C1735 C 0.14359 0.29512 0.3077 0.0
C1736 C 0.22601 0.30847 0.32175 0.0
C1737 C 0.22983 0.28705 0.31098 0.0
C1738 C 0.20481 0.30861 0.33186 0.0
C1739 C 0.18547 0.28669 0.33254 0.0
C1740 C 0.18924 0.26497 0.32178 0.0
C1741 C 0.21046 0.26543 0.31141 0.0
C1742 C 0.20313 0.33286 0.34194 0.0
C1743 C 0.1706 0.24061 0.32133 0.0
H1744 H 0.13443 0.27907 0.39294 0.0
H1745 H 0.10776 0.29563 0.33157 0.0
H1746 H 0.1807 0.26109 0.37396 0.0
H1747 H 0.19262 0.29362 0.38117 0.0
H1748 H 0.17191 0.27514 0.39788 0.0
H1749 H 0.12783 0.29872 0.30027 0.0
H1750 H 0.15889 0.31096 0.30549 0.0
H1751 H 0.14582 0.27853 0.2986 0.0
H1752 H 0.2398 0.32573 0.32215 0.0
H1753 H 0.21193 0.24827 0.30377 0.0
H1754 H 0.20021 0.33148 0.35957 0.0
H1755 H 0.18804 0.33709 0.33379 0.0
H1756 H 0.21894 0.34844 0.34048 0.0
H1757 H 0.16806 0.23555 0.33838 0.0
H1758 H 0.17487 0.22545 0.31178 0.0
H1759 H 0.15393 0.24224 0.31409 0.0
C1760 C 0.97171 0.01543 0.17893 0.0
C1761 C 0.95237 0.02405 0.17812 0.0
C1762 C 0.98432 0.01555 0.16078 0.0
C1763 C 0.97746 0.02493 0.14161 0.0
C1764 C 0.95677 0.03174 0.14006 0.0
C1765 C 0.94421 0.03108 0.15854 0.0
C1766 C 1.0059 0.00744 0.16278 0.0
C1767 C 0.94878 0.04107 0.11939 0.0
C1768 C 0.02515 0.05967 0.10896 0.0
C1769 C 0.02333 0.04206 0.09149 0.0
C1770 C 0.01037 0.05406 0.12572 0.0
C1771 C 0.99346 0.03054 0.12441 0.0
C1772 C 0.99225 0.01246 0.10706 0.0
C1773 C 1.00762 0.01839 0.09095 0.0
C1774 C 0.01245 0.07342 0.14453 0.0
C1775 C 0.97469 0.9871 0.10531 0.0
H1776 H 0.9774 0.00924 0.1941 0.0
H1777 H 0.9289 0.03723 0.15805 0.0
H1778 H 1.007 0.99573 0.14792 0.0
H1779 H 0.02138 0.02399 0.16436 0.0
H1780 H 1.00658 0.99695 0.17736 0.0
H1781 H 0.93104 0.04273 0.11993 0.0
H1782 H 0.96082 0.05954 0.11719 0.0
H1783 H 0.94909 0.02853 0.10479 0.0
H1784 H 0.03755 0.07789 0.10914 0.0
H1785 H 1.00706 1.00468 0.0776 0.0
H1786 H 0.01507 0.06586 0.16041 0.0
H1787 H 0.99617 0.07854 0.14467 0.0
H1788 H 0.02705 0.09041 0.14341 0.0
H1789 H 0.97907 0.9763 0.11846 0.0
H1790 H 0.97413 0.97659 0.08921 0.0
H1791 H 0.95715 0.98859 0.10757 0.0
C1792 C 0.26362 0.6897 0.50329 0.0
C1793 C 0.28257 0.68058 0.5055 0.0
C1794 C 0.25926 0.70064 0.48442 0.0
C1795 C 0.27456 0.70278 0.4677 0.0
C1796 C 0.29456 0.69488 0.47053 0.0
C1797 C 0.29818 0.68346 0.48944 0.0
C1798 C 0.23745 0.70824 0.48176 0.0
C1799 C 0.31145 0.69738 0.45316 0.0
C1800 C 0.25189 0.7049 0.40911 0.0
C1801 C 0.25928 0.73035 0.4071 0.0
C1802 C 0.25635 0.69563 0.42901 0.0
C1803 C 0.26908 0.71228 0.44685 0.0
C1804 C 0.27655 0.73799 0.44482 0.0
C1805 C 0.27132 0.74676 0.42496 0.0
C1806 C 0.24758 0.66812 0.43094 0.0
C1807 C 0.29036 0.75614 0.46348 0.0
H1808 H 0.25142 0.68685 0.51577 0.0
H1809 H 0.31254 0.67582 0.49122 0.0
H1810 H 0.24119 0.727 0.476 0.0
H1811 H 0.22503 0.69522 0.46916 0.0
H1812 H 0.22899 0.70808 0.49733 0.0
H1813 H 0.3272 0.69258 0.45887 0.0
H1814 H 0.30301 0.68497 0.43828 0.0
H1815 H 0.31671 0.71658 0.44828 0.0
H1816 H 0.24262 0.69235 0.39514 0.0
H1817 H 0.27726 0.76643 0.42313 0.0
H1818 H 0.23672 0.66439 0.44496 0.0
H1819 H 0.26236 0.66077 0.43432 0.0
H1820 H 0.23719 0.65784 0.41578 0.0
H1821 H 0.28021 0.7549 0.47801 0.0
H1822 H 0.29525 0.77553 0.45901 0.0
H1823 H 0.30637 0.75146 0.46844 0.0
C1824 C 0.61011 0.01747 0.68992 0.0
C1825 C 0.63349 0.03102 0.69398 0.0
C1826 C 0.5975 0.01934 0.67074 0.0
C1827 C 0.60878 0.03479 0.65517 0.0
C1828 C 0.63248 0.04831 0.6589 0.0
C1829 C 0.6447 0.04623 0.67844 0.0
C1830 C 0.57215 1.00467 0.6671 0.0
C1831 C 0.64471 0.06504 0.64243 0.0
C1832 C 0.57937 0.01161 0.59936 0.0
C1833 C 0.56538 0.02707 0.59667 0.0
C1834 C 0.59498 0.01529 0.61775 0.0
C1835 C 0.59597 0.03438 0.63408 0.0
C1836 C 0.58205 0.05023 0.6315 0.0
C1837 C 0.5667 0.0463 0.61268 0.0
C1838 C 0.60992 0.99831 0.61995 0.0
C1839 C 0.58286 0.07082 0.64876 0.0
H1840 H 0.60146 0.00579 0.70203 0.0
H1841 H 0.66272 0.05707 0.68186 0.0
H1842 H 0.56156 0.01716 0.66369 0.0
H1843 H 0.56924 0.99101 0.65258 0.0
H1844 H 0.56582 0.99459 0.68149 0.0
H1845 H 0.66313 0.07466 0.64812 0.0
H1846 H 0.64399 0.05415 0.62653 0.0
H1847 H 0.63583 0.07915 0.63928 0.0
H1848 H 0.57847 0.99687 0.58681 0.0
H1849 H 0.55622 0.05859 0.6103 0.0
H1850 H 0.60471 0.98667 0.6337 0.0
H1851 H 0.62834 0.00926 0.62385 0.0
H1852 H 0.60849 0.98593 0.60475 0.0
H1853 H 0.57263 0.06292 0.66233 0.0
H1854 H 0.57546 0.08482 0.642 0.0
H1855 H 0.60085 0.08022 0.65585 0.0
C1856 C 0.31473 0.3224 0.96455 0.0
C1857 C 0.29921 0.33466 0.97198 0.0
C1858 C 0.31409 0.314 0.94196 0.0
C1859 C 0.29786 0.31828 0.92597 0.0
C1860 C 0.28168 0.32989 0.93359 0.0
C1861 C 0.28255 0.33777 0.95619 0.0
C1862 C 0.33171 0.30172 0.93502 0.0
C1863 C 0.26422 0.33544 0.91765 0.0
C1864 C 0.31172 0.32312 0.86506 0.0
C1865 C 0.29769 0.3004 0.85452 0.0
C1866 C 0.31213 0.32902 0.88807 0.0
C1867 C 0.29833 0.31176 0.90132 0.0
C1868 C 0.28433 0.28866 0.89067 0.0
C1869 C 0.28417 0.28335 0.86762 0.0
C1870 C 0.32707 0.35405 0.89815 0.0
C1871 C 0.26935 0.26947 0.90365 0.0
H1872 H 0.32838 0.32079 0.97613 0.0
H1873 H 0.271 0.34803 0.96137 0.0
H1874 H 0.32312 0.28443 0.92435 0.0
H1875 H 0.34419 0.31418 0.92526 0.0
H1876 H 0.34148 0.29726 0.94932 0.0
H1877 H 0.25218 0.34362 0.9261 0.0
H1878 H 0.27336 0.34858 0.90622 0.0
H1879 H 0.25393 0.3183 0.90757 0.0
H1880 H 0.32222 0.33651 0.85521 0.0
H1881 H 0.2735 0.26566 0.85982 0.0
H1882 H 0.33905 0.35188 0.9118 0.0
H1883 H 0.31601 0.36455 0.90522 0.0
H1884 H 0.3374 0.36512 0.88599 0.0
H1885 H 0.28019 0.26483 0.917 0.0
H1886 H 0.25983 0.25223 0.89324 0.0
H1887 H 0.25659 0.277 0.91153 0.0
C1888 C 0.96424 1.00198 0.30643 0.0
C1889 C 0.96081 0.02339 0.2989 0.0
C1890 C 0.97984 1.00331 0.32454 0.0
C1891 C 0.99298 0.0268 0.33472 0.0
C1892 C 0.99137 0.04859 0.32561 0.0
C1893 C 0.97499 0.04664 0.30776 0.0
C1894 C 0.98084 0.97955 0.33369 0.0
C1895 C 1.00606 0.07386 0.33538 0.0
C1896 C 1.00356 0.02529 0.39574 0.0
C1897 C 0.02518 0.02102 0.39744 0.0
C1898 C 0.99347 0.02863 0.37548 0.0
C1899 C 1.00552 0.02817 0.35651 0.0
C1900 C 0.02804 0.02563 0.35832 0.0
C1901 C 0.03757 0.02187 0.3788 0.0
C1902 C 0.96931 0.03112 0.37416 0.0
C1903 C 0.04152 0.02541 0.33848 0.0
H1904 H 0.95437 0.98409 0.2984 0.0
H1905 H 0.97276 0.06315 0.30123 0.0
H1906 H 0.999 0.97957 0.33706 0.0
H1907 H 0.97278 0.97789 0.3495 0.0
H1908 H 0.97152 0.96299 0.32237 0.0
H1909 H 1.00579 0.08839 0.32418 0.0
H1910 H 0.99948 0.07858 0.35105 0.0
H1911 H 0.02423 0.074 0.33915 0.0
H1912 H 0.99421 0.02533 0.41023 0.0
H1913 H 0.05428 0.01856 0.38001 0.0
H1914 H 0.95728 0.01503 0.36391 0.0
H1915 H 0.96899 0.04799 0.36618 0.0
H1916 H 0.9627 0.0321 0.39059 0.0
H1917 H 0.03479 0.00712 0.32885 0.0
H1918 H 0.06023 0.02873 0.34324 0.0
H1919 H 0.03951 0.03962 0.32757 0.0
C1920 C 0.32519 0.70918 0.63255 0.0
C1921 C 0.30939 0.68549 0.62828 0.0
C1922 C 0.32544 0.72381 0.65197 0.0
C1923 C 0.30947 0.71453 0.66744 0.0
C1924 C 0.29381 0.69036 0.66352 0.0
C1925 C 0.29408 0.67603 0.64402 0.0
C1926 C 0.34229 0.74955 0.65562 0.0
C1927 C 0.27606 0.68009 0.67936 0.0
C1928 C 0.32406 0.74518 0.72556 0.0
C1929 C 0.31038 0.76109 0.7258 0.0
C1930 C 0.3236 0.72957 0.70673 0.0
C1931 C 0.30931 0.73026 0.68771 0.0
C1932 C 0.29544 0.74644 0.68793 0.0
C1933 C 0.29605 0.76161 0.70713 0.0
C1934 C 0.33783 0.7118 0.70739 0.0
C1935 C 0.27971 0.74745 0.66809 0.0
H1936 H 0.33686 0.71666 0.62034 0.0
H1937 H 0.28145 0.65792 0.64062 0.0
H1938 H 0.33265 0.76337 0.65667 0.0
H1939 H 0.35297 0.7517 0.67145 0.0
H1940 H 0.35397 0.7538 0.64224 0.0
H1941 H 0.26625 0.66037 0.67465 0.0
H1942 H 0.28451 0.68178 0.69625 0.0
H1943 H 0.26356 0.69094 0.67984 0.0
H1944 H 0.33433 0.74416 0.74044 0.0
H1945 H 0.28481 0.77333 0.70782 0.0
H1946 H 0.35 0.71519 0.69437 0.0
H1947 H 0.32634 0.6925 0.70403 0.0
H1948 H 0.34789 0.71347 0.72353 0.0
H1949 H 0.29031 0.75542 0.65477 0.0
H1950 H 0.26816 0.7589 0.67182 0.0
H1951 H 0.26885 0.72858 0.66173 0.0
C1952 C 0.61333 0.02145 0.80928 0.0
C1953 C 0.63723 0.02753 0.81513 0.0
C1954 C 0.59786 0.01976 0.8254 0.0
C1955 C 0.60668 0.02433 0.84764 0.0
C1956 C 0.63041 0.02768 0.85363 0.0
C1957 C 0.64546 0.02915 0.83719 0.0
C1958 C 0.57257 0.01563 0.81854 0.0
C1959 C 0.6404 0.03245 0.87733 0.0
C1960 C 0.58683 0.06366 0.88828 0.0
C1961 C 0.57901 0.04674 0.90367 0.0
C1962 C 0.59394 0.056 0.86858 0.0
C1963 C 0.59266 0.03079 0.86432 0.0
C1964 C 0.58198 0.01316 0.87856 0.0
C1965 C 0.57547 0.02145 0.8984 0.0
C1966 C 0.60547 0.07541 0.85379 0.0
C1967 C 0.57965 0.98605 0.87392 0.0
H1968 H 0.60677 0.01946 0.79215 0.0
H1969 H 0.66386 0.0333 0.84173 0.0
H1970 H 0.56139 1.00418 0.82992 0.0
H1971 H 0.56901 0.03372 0.819 0.0
H1972 H 0.56768 0.00653 0.80156 0.0
H1973 H 0.65859 0.03196 0.87916 0.0
H1974 H 0.64001 0.05095 0.88404 0.0
H1975 H 0.62995 0.01857 0.88743 0.0
H1976 H 0.58956 0.08321 0.89259 0.0
H1977 H 0.56911 0.00847 0.91042 0.0
H1978 H 0.59876 0.06949 0.8364 0.0
H1979 H 0.62437 0.07793 0.85501 0.0
H1980 H 0.60281 0.09359 0.85831 0.0
H1981 H 0.57368 0.97979 0.85641 0.0
H1982 H 0.56737 0.9744 0.88442 0.0
H1983 H 0.59677 0.98305 0.87717 0.0
C1984 C 0.31504 0.35973 0.12333 0.0
C1985 C 0.29879 0.34699 0.10574 0.0
C1986 C 0.31348 0.35264 0.1453 0.0
C1987 C 0.2946 0.33277 0.15073 0.0
C1988 C 0.27776 0.3203 0.13311 0.0
C1989 C 0.2803 0.3271 0.1111 0.0
C1990 C 0.33258 0.36613 0.16269 0.0
C1991 C 0.25667 0.29987 0.13756 0.0
C1992 C 0.2992 0.29754 0.20288 0.0
C1993 C 0.29026 0.30981 0.21932 0.0
C1994 C 0.30106 0.30499 0.18107 0.0
C1995 C 0.29281 0.32473 0.17449 0.0
C1996 C 0.28318 0.33679 0.19093 0.0
C1997 C 0.28263 0.32975 0.21299 0.0
C1998 C 0.31253 0.29198 0.16516 0.0
C1999 C 0.27323 0.35723 0.18524 0.0
H2000 H 0.32958 0.37496 0.11978 0.0
H2001 H 0.26741 0.31702 0.09803 0.0
H2002 H 0.32551 0.37527 0.1759 0.0
H2003 H 0.34013 0.35273 0.17033 0.0
H2004 H 0.34661 0.38037 0.15596 0.0
H2005 H 0.24465 0.29251 0.12255 0.0
H2006 H 0.26189 0.28445 0.14422 0.0
H2007 H 0.24726 0.30687 0.15019 0.0
H2008 H 0.30559 0.28242 0.20731 0.0
H2009 H 0.27573 0.33962 0.22523 0.0
H2010 H 0.32707 0.30571 0.15858 0.0
H2011 H 0.30003 0.28251 0.151 0.0
H2012 H 0.31931 0.27807 0.17289 0.0
H2013 H 0.28746 0.37408 0.18294 0.0
H2014 H 0.26298 0.36192 0.19832 0.0
H2015 H 0.26199 0.35184 0.16958 0.0
C2016 C 0.2463 0.95216 1.00535 0.0
C2017 C 0.26909 0.96726 1.00526 0.0
C2018 C 0.22981 0.96122 0.01512 0.0
C2019 C 0.23631 0.98612 0.02425 0.0
C2020 C 0.25955 1.00105 0.02492 0.0
C2021 C 0.2758 0.99099 0.01624 0.0
C2022 C 0.20552 0.9443 0.0156 0.0
C2023 C 0.26733 0.02763 0.03476 0.0
C2024 C 0.19139 0.01957 0.02048 0.0
C2025 C 0.18671 0.02217 0.04242 0.0
C2026 C 0.20732 0.00753 0.01443 0.0
C2027 C 0.21854 0.99753 0.03073 0.0
C2028 C 0.21382 0.99996 0.05299 0.0
C2029 C 0.19791 0.01249 0.05863 0.0
C2030 C 0.21251 0.00598 0.99066 0.0
C2031 C 0.22506 0.98889 0.07067 0.0
H2032 H 0.24156 0.93316 0.99818 0.0
H2033 H 0.29385 1.00141 0.01904 0.0
H2034 H 0.19981 0.94536 0.03239 0.0
H2035 H 0.19347 0.95029 1.00444 0.0
H2036 H 0.20411 0.92474 0.01045 0.0
H2037 H 0.28551 0.03732 0.03181 0.0
H2038 H 0.25603 0.03797 0.02775 0.0
H2039 H 0.26599 0.02826 0.05275 0.0
H2040 H 0.1826 0.02716 0.00804 0.0
H2041 H 0.19386 0.01427 0.07553 0.0
H2042 H 0.20871 0.98636 0.98417 0.0
H2043 H 0.23119 0.01516 0.98936 0.0
H2044 H 0.20228 0.01484 0.98008 0.0
H2045 H 0.21812 0.96842 0.06823 0.0
H2046 H 0.22173 0.99505 0.08741 0.0
H2047 H 0.24402 0.99377 0.06967 0.0
C2048 C 0.70881 0.66996 0.01601 0.0
C2049 C 0.72988 0.66611 0.02284 0.0
C2050 C 0.68745 0.65222 0.01862 0.0
C2051 C 0.68706 0.63022 0.02858 0.0
C2052 C 0.70835 0.62623 0.03525 0.0
C2053 C 0.72936 0.64431 0.03262 0.0
C2054 C 0.66523 0.65704 0.01079 0.0
C2055 C 0.70899 0.60293 0.04542 0.0
C2056 C 0.63265 0.59635 0.05559 0.0
C2057 C 0.62177 0.57645 0.03987 0.0
C2058 C 0.65398 0.61368 0.05226 0.0
C2059 C 0.66446 0.61163 0.03244 0.0
C2060 C 0.65339 0.5916 0.01654 0.0
C2061 C 0.63257 0.57409 0.02062 0.0
C2062 C 0.66521 0.63437 0.06991 0.0
C2063 C 0.66339 0.58821 0.99513 0.0
H2064 H 0.70905 0.68692 0.00877 0.0
H2065 H 0.74548 0.64163 0.03882 0.0
H2066 H 0.65492 0.64168 0.99871 0.0
H2067 H 0.65467 0.65763 0.02483 0.0
H2068 H 0.66835 0.67472 1.00302 0.0
H2069 H 0.72691 0.60297 0.05045 0.0
H2070 H 0.69892 0.60065 0.06003 0.0
H2071 H 0.70079 0.58666 0.03344 0.0
H2072 H 0.62442 0.59845 0.07047 0.0
H2073 H 0.62424 0.55903 0.00818 0.0
H2074 H 0.667 0.65248 0.06327 0.0
H2075 H 0.68288 0.63385 0.0752 0.0
H2076 H 0.65514 0.63322 0.08452 0.0
H2077 H 0.67301 0.60614 0.98932 0.0
H2078 H 0.64971 0.578 0.98206 0.0
H2079 H 0.67539 0.57704 0.99765 0.0
C2080 C 0.7054 0.49514 0.3126 0.0
C2081 C 0.70857 0.49963 0.33557 0.0
C2082 C 0.71732 0.48117 0.30142 0.0
C2083 C 0.73192 0.47056 0.31362 0.0
C2084 C 0.73458 0.47434 0.33689 0.0
C2085 C 0.72314 0.48925 0.3476 0.0
C2086 C 0.71463 0.47833 0.2766 0.0
C2087 C 0.74988 0.46306 0.35042 0.0
C2088 C 0.74721 0.41456 0.29128 0.0
C2089 C 0.77086 0.42479 0.28886 0.0
C2090 C 0.73387 0.42951 0.29815 0.0
C2091 C 0.7444 0.45529 0.3023 0.0
C2092 C 0.76762 0.46601 0.2978 0.0
C2093 C 0.7807 0.45057 0.29127 0.0
C2094 C 0.709 0.41755 0.30244 0.0
C2095 C 0.77902 0.49364 0.30111 0.0
H2096 H 0.69462 0.50377 0.30322 0.0
H2097 H 0.72584 0.49312 0.36531 0.0
H2098 H 0.73151 0.48021 0.2698 0.0
H2099 H 0.70292 0.45966 0.2708 0.0
H2100 H 0.70712 0.49222 0.26977 0.0
H2101 H 0.7493 0.46697 0.36835 0.0
H2102 H 0.74449 0.44271 0.3464 0.0
H2103 H 0.76806 0.47042 0.3464 0.0
H2104 H 0.73937 0.39468 0.28872 0.0
H2105 H 0.79892 0.45861 0.28928 0.0
H2106 H 0.69751 0.42673 0.29398 0.0
H2107 H 0.70717 0.41984 0.32031 0.0
H2108 H 0.70295 0.3975 0.29687 0.0
H2109 H 0.76765 0.50354 0.29348 0.0
H2110 H 0.79599 0.49923 0.29402 0.0
H2111 H 0.78185 0.49972 0.31894 0.0
C2112 C 0.89771 0.4661 0.4875 0.0
C2113 C 0.87768 0.46835 0.49598 0.0
C2114 C 0.91889 0.48356 0.49458 0.0
C2115 C 0.91948 0.50301 0.51066 0.0
C2116 C 0.89904 0.50616 0.51806 0.0
C2117 C 0.8783 0.48839 0.5109 0.0
C2118 C 0.94073 0.47986 0.48649 0.0
C2119 C 0.89924 0.52677 0.53508 0.0
C2120 C 0.97225 0.51045 0.54709 0.0
C2121 C 0.98782 0.52842 0.53667 0.0
C2122 C 0.94879 0.50397 0.54056 0.0
C2123 C 0.94138 0.51588 0.5232 0.0
C2124 C 0.95667 0.5366 0.51511 0.0
C2125 C 0.98006 0.54282 0.52213 0.0
C2126 C 0.93268 0.48215 0.55006 0.0
C2127 C 0.94887 0.55013 0.49725 0.0
H2128 H 0.89688 0.45036 0.47608 0.0
H2129 H 0.86262 0.48954 0.51784 0.0
H2130 H 0.95229 0.49752 0.48183 0.0
H2131 H 0.95024 0.47353 0.49986 0.0
H2132 H 0.93701 0.46586 0.4721 0.0
H2133 H 0.88155 0.52781 0.53742 0.0
H2134 H 0.90719 0.52385 0.5511 0.0
H2135 H 0.90984 0.54482 0.53026 0.0
H2136 H 0.97855 0.50015 0.55905 0.0
H2137 H 0.99235 0.55729 0.51465 0.0
H2138 H 0.92886 0.46555 0.53814 0.0
H2139 H 0.91603 0.48552 0.55314 0.0
H2140 H 0.94044 0.47796 0.56571 0.0
H2141 H 0.94474 0.53808 0.48159 0.0
H2142 H 0.96236 0.56755 0.4947 0.0
H2143 H 0.93298 0.55458 0.50137 0.0
C2144 C 0.38684 0.10116 0.33429 0.0
C2145 C 0.40779 0.09818 0.32828 0.0
C2146 C 0.37643 0.11632 0.32313 0.0
C2147 C 0.38726 0.12874 0.30557 0.0
C2148 C 0.40891 0.12681 0.30009 0.0
C2149 C 0.41909 0.11176 0.31171 0.0
C2150 C 0.35328 0.1181 0.32946 0.0
C2151 C 0.42088 0.13981 0.28143 0.0
C2152 C 0.34233 0.14256 0.2678 0.0
C2153 C 0.34335 0.16612 0.27697 0.0
C2154 C 0.35826 0.13087 0.27551 0.0
C2155 C 0.37528 0.14313 0.29277 0.0
C2156 C 0.37792 0.16794 0.30027 0.0
C2157 C 0.3619 0.17922 0.29216 0.0
C2158 C 0.35545 0.10458 0.2667 0.0
C2159 C 0.39605 0.18165 0.31848 0.0
H2160 H 0.37801 0.09078 0.34705 0.0
H2161 H 0.43535 0.10966 0.30697 0.0
H2162 H 0.35402 0.13777 0.33288 0.0
H2163 H 0.33985 0.11002 0.31562 0.0
H2164 H 0.34778 0.10823 0.34418 0.0
H2165 H 0.43661 0.13449 0.27799 0.0
H2166 H 0.40893 0.13552 0.26623 0.0
H2167 H 0.42602 0.16012 0.28551 0.0
H2168 H 0.32811 0.13257 0.25587 0.0
H2169 H 0.36299 0.19778 0.29875 0.0
H2170 H 0.34715 0.09177 0.27875 0.0
H2171 H 0.37252 0.10184 0.26429 0.0
H2172 H 0.34448 0.09946 0.25085 0.0
H2173 H 0.39085 0.17433 0.33433 0.0
H2174 H 0.3982 0.20182 0.3199 0.0
H2175 H 0.413 0.1788 0.31579 0.0
C2176 C 0.36956 0.19108 0.5322 0.0
C2177 C 0.34722 0.17996 0.53817 0.0
C2178 C 0.38744 0.18021 0.53633 0.0
C2179 C 0.38256 0.15725 0.54581 0.0
C2180 C 0.36037 0.14698 0.55313 0.0
C2181 C 0.34324 0.15875 0.54965 0.0
C2182 C 0.41116 0.19248 0.52933 0.0
C2183 C 0.35409 0.12249 0.56309 0.0
C2184 C 0.41373 0.11123 0.52666 0.0
C2185 C 0.42866 0.11137 0.54518 0.0
C2186 C 0.39901 0.12629 0.52665 0.0
C2187 C 0.39934 0.14236 0.54551 0.0
C2188 C 0.41462 0.14288 0.5642 0.0
C2189 C 0.42897 0.1273 0.56386 0.0
C2190 C 0.38256 0.12444 0.50658 0.0
C2191 C 0.41602 0.16005 0.58449 0.0
H2192 H 0.37273 0.20743 0.52328 0.0
H2193 H 0.32615 0.15048 0.55479 0.0
H2194 H 0.42469 0.1926 0.54247 0.0
H2195 H 0.41411 0.18185 0.51452 0.0
H2196 H 0.41322 0.21179 0.52543 0.0
H2197 H 0.33628 0.11734 0.56846 0.0
H2198 H 0.35528 0.10769 0.55086 0.0
H2199 H 0.36644 0.12314 0.57744 0.0
H2200 H 0.41309 0.09876 0.51228 0.0
H2201 H 0.44062 0.12774 0.57817 0.0
H2202 H 0.38564 0.14282 0.50011 0.0
H2203 H 0.36444 0.11855 0.51107 0.0
H2204 H 0.3844 0.11107 0.49325 0.0
H2205 H 0.42332 0.17948 0.58061 0.0
H2206 H 0.42708 0.15659 0.59833 0.0
H2207 H 0.39854 0.15811 0.5899 0.0
C2208 C 0.72777 0.61821 0.33472 0.0
C2209 C 0.70652 0.61698 0.34292 0.0
C2210 C 0.74138 0.63986 0.32736 0.0
C2211 C 0.73254 0.6601 0.32652 0.0
C2212 C 0.71072 0.65893 0.33401 0.0
C2213 C 0.69806 0.63736 0.34264 0.0
C2214 C 0.76494 0.64084 0.32004 0.0
C2215 C 0.70032 0.67986 0.33182 0.0
C2216 C 0.77457 0.72246 0.32238 0.0
C2217 C 0.77245 0.72414 0.29979 0.0
C2218 C 0.76148 0.70159 0.33139 0.0
C2219 C 0.74612 0.68227 0.31724 0.0
C2220 C 0.7445 0.68361 0.29421 0.0
C2221 C 0.75786 0.70482 0.28567 0.0
C2222 C 0.76374 0.7004 0.35596 0.0
C2223 C 0.72833 0.66302 0.27875 0.0
H2224 H 0.73334 0.60184 0.33292 0.0
H2225 H 0.68109 0.63591 0.34804 0.0
H2226 H 0.76695 0.64746 0.30346 0.0
H2227 H 0.77852 0.65415 0.33152 0.0
H2228 H 0.76809 0.62253 0.31965 0.0
H2229 H 0.68305 0.67587 0.33832 0.0
H2230 H 0.71196 0.69717 0.34067 0.0
H2231 H 0.69845 0.68326 0.31425 0.0
H2232 H 0.7858 0.73794 0.33302 0.0
H2233 H 0.75616 0.70681 0.2682 0.0
H2234 H 0.76853 0.68364 0.35969 0.0
H2235 H 0.74689 0.69891 0.36268 0.0
H2236 H 0.77698 0.71688 0.36453 0.0
H2237 H 0.7334 0.64586 0.27971 0.0
H2238 H 0.72842 0.66766 0.26141 0.0
H2239 H 0.7104 0.65896 0.28364 0.0
C2240 C 0.92458 0.46019 0.8274 0.0
C2241 C 0.91392 0.47894 0.82688 0.0
C2242 C 0.91232 0.43593 0.81931 0.0
C2243 C 0.88877 0.4305 0.81169 0.0
C2244 C 0.87813 0.44946 0.8107 0.0
C2245 C 0.89124 0.47365 0.81748 0.0
C2246 C 0.9245 0.41627 0.81861 0.0
C2247 C 0.85281 0.44419 0.80302 0.0
C2248 C 0.85074 0.37312 0.77946 0.0
C2249 C 0.83988 0.35996 0.79636 0.0
C2250 C 0.86833 0.39536 0.78431 0.0
C2251 C 0.87439 0.40488 0.80649 0.0
C2252 C 0.86403 0.39129 0.82363 0.0
C2253 C 0.84687 0.36884 0.81831 0.0
C2254 C 0.88007 0.40878 0.76573 0.0
C2255 C 0.87101 0.40008 0.8476 0.0
H2256 H 0.94263 0.46464 0.83353 0.0
H2257 H 0.88383 0.48847 0.81494 0.0
H2258 H 0.91727 0.40236 0.83016 0.0
H2259 H 0.92157 0.40641 0.80191 0.0
H2260 H 0.94343 0.42411 0.82301 0.0
H2261 H 0.8477 0.46134 0.8022 0.0
H2262 H 0.8487 0.43398 0.78651 0.0
H2263 H 0.84204 0.4323 0.8144 0.0
H2264 H 0.84574 0.36597 0.76242 0.0
H2265 H 0.83898 0.35828 0.83139 0.0
H2266 H 0.8991 0.41551 0.76974 0.0
H2267 H 0.87416 0.42517 0.76319 0.0
H2268 H 0.87622 0.39677 0.75001 0.0
H2269 H 0.8858 0.39358 0.85319 0.0
H2270 H 0.8567 0.39241 0.85797 0.0
H2271 H 0.87656 0.42048 0.85046 0.0
C2272 C 0.09331 0.87272 0.0857 0.0
C2273 C 0.08831 0.86658 0.10708 0.0
C2274 C 0.08905 0.89361 0.07705 0.0
C2275 C 0.07891 0.90881 0.08977 0.0
C2276 C 0.07419 0.90297 0.11157 0.0
C2277 C 0.07901 0.8821 0.11995 0.0
C2278 C 0.09471 0.89892 0.05391 0.0
C2279 C 0.06304 0.91814 0.12575 0.0
C2280 C 0.08445 0.97437 0.07284 0.0
C2281 C 0.06291 0.97163 0.06115 0.0
C2282 C 0.08968 0.95437 0.08232 0.0
C2283 C 0.07315 0.93057 0.08018 0.0
C2284 C 0.05136 0.92758 0.06838 0.0
C2285 C 0.04651 0.948 0.05914 0.0
C2286 C 0.11309 0.95876 0.09464 0.0
C2287 C 0.03317 0.90266 0.06532 0.0
H2288 H 0.09991 0.86057 0.07537 0.0
H2289 H 0.07419 0.87708 0.13613 0.0
H2290 H 0.07865 0.8976 0.04353 0.0
H2291 H 0.10637 0.91806 0.05382 0.0
H2292 H 0.10317 0.88589 0.04634 0.0
H2293 H 0.0614 0.91207 0.1426 0.0
H2294 H 0.07328 0.93797 0.12691 0.0
H2295 H 0.04553 0.91659 0.11811 0.0
H2296 H 0.09742 0.99234 0.07473 0.0
H2297 H 0.02983 0.94537 0.05023 0.0
H2298 H 0.12235 0.94673 0.08679 0.0
H2299 H 0.11094 0.95373 0.11174 0.0
H2300 H 0.12403 0.97831 0.09515 0.0
H2301 H 0.03966 0.88931 0.0556 0.0
H2302 H 0.01674 0.90346 0.05675 0.0
H2303 H 0.0295 0.89537 0.08149 0.0
C2304 C 0.94778 0.2607 0.88012 0.0
C2305 C 0.94878 0.26742 0.90274 0.0
C2306 C 0.92855 0.26035 0.86555 0.0
C2307 C 0.90959 0.26719 0.87353 0.0
C2308 C 0.9104 0.27364 0.89649 0.0
C2309 C 0.9297 0.27332 0.91075 0.0
C2310 C 0.92884 0.25309 0.84144 0.0
C2311 C 0.89108 0.28151 0.90596 0.0
C2312 C 0.87561 0.29444 0.83199 0.0
C2313 C 0.85514 0.27519 0.82623 0.0
C2314 C 0.89266 0.29215 0.84773 0.0
C2315 C 0.89013 0.26976 0.85768 0.0
C2316 C 0.86932 0.25011 0.85195 0.0
C2317 C 0.85194 0.2532 0.83664 0.0
C2318 C 0.91379 0.31371 0.85352 0.0
C2319 C 0.86565 0.22565 0.86157 0.0
H2320 H 0.96203 0.25534 0.87379 0.0
H2321 H 0.93011 0.2783 0.9282 0.0
H2322 H 0.91191 0.23997 0.83478 0.0
H2323 H 0.93185 0.26976 0.83224 0.0
H2324 H 0.9427 0.24446 0.83834 0.0
H2325 H 0.89377 0.28517 0.92414 0.0
H2326 H 0.88978 0.29857 0.89885 0.0
H2327 H 0.8743 0.26701 0.90153 0.0
H2328 H 0.87817 0.31165 0.8244 0.0
H2329 H 0.83613 0.23815 0.83238 0.0
H2330 H 0.9288 0.30734 0.85014 0.0
H2331 H 0.91517 0.31957 0.87132 0.0
H2332 H 0.914 0.32974 0.844 0.0
H2333 H 0.8789 0.21708 0.85628 0.0
H2334 H 0.84821 0.21259 0.85638 0.0
H2335 H 0.86786 0.22845 0.87977 0.0
C2336 C 0.58101 0.2182 0.62547 0.0
C2337 C 0.58325 0.2381 0.61244 0.0
C2338 C 0.58026 0.19452 0.61634 0.0
C2339 C 0.58073 0.19007 0.59336 0.0
C2340 C 0.5834 0.21015 0.58014 0.0
C2341 C 0.58554 0.23404 0.58998 0.0
C2342 C 0.57883 0.17418 0.63134 0.0
C2343 C 0.5837 0.20636 0.55557 0.0
C2344 C 0.59091 0.12976 0.57034 0.0
C2345 C 0.56814 0.11438 0.56496 0.0
C2346 C 0.59541 0.15454 0.57927 0.0
C2347 C 0.57672 0.1641 0.58319 0.0
C2348 C 0.5538 0.14845 0.578 0.0
C2349 C 0.54982 0.12405 0.56891 0.0
C2350 C 0.62016 0.17037 0.58474 0.0
C2351 C 0.53331 0.15769 0.58142 0.0
H2352 H 0.58019 0.22123 0.64302 0.0
H2353 H 0.58937 0.2496 0.58014 0.0
H2354 H 0.56163 0.16005 0.62823 0.0
H2355 H 0.59207 0.16481 0.62792 0.0
H2356 H 0.58142 0.18124 0.64897 0.0
H2357 H 0.58741 0.22404 0.54775 0.0
H2358 H 0.59685 0.19718 0.5514 0.0
H2359 H 0.56664 0.19396 0.54839 0.0
H2360 H 0.6052 0.12256 0.56734 0.0
H2361 H 0.53212 0.11242 0.56499 0.0
H2362 H 0.62353 0.17497 0.60277 0.0
H2363 H 0.62329 0.18809 0.5771 0.0
H2364 H 0.63271 0.16095 0.57912 0.0
H2365 H 0.53444 0.16625 0.59844 0.0
H2366 H 0.51655 0.14282 0.57811 0.0
H2367 H 0.53357 0.17209 0.57004 0.0
C2368 C 0.5751 0.79879 0.38711 0.0
C2369 C 0.56912 0.78839 0.40699 0.0
C2370 C 0.5961 0.79988 0.37858 0.0
C2371 C 0.61219 0.79072 0.39023 0.0
C2372 C 0.60698 0.78114 0.41077 0.0
C2373 C 0.58537 0.77989 0.41889 0.0
C2374 C 0.60061 0.81012 0.35654 0.0
C2375 C 0.62414 0.77201 0.42397 0.0
C2376 C 0.65032 0.77116 0.35067 0.0
C2377 C 0.66867 0.79302 0.35081 0.0
C2378 C 0.63267 0.76944 0.36479 0.0
C2379 C 0.63353 0.78996 0.3797 0.0
C2380 C 0.6529 0.81146 0.38098 0.0
C2381 C 0.6701 0.81283 0.36636 0.0
C2382 C 0.6121 0.74642 0.36241 0.0
C2383 C 0.65472 0.83368 0.39674 0.0
H2384 H 0.56307 0.80576 0.37762 0.0
H2385 H 0.58116 0.7721 0.43431 0.0
H2386 H 0.61692 0.82563 0.35801 0.0
H2387 H 0.60264 0.79555 0.34452 0.0
H2388 H 0.58642 0.81692 0.34979 0.0
H2389 H 0.6181 0.76631 0.4401 0.0
H2390 H 0.62719 0.75601 0.41464 0.0
H2391 H 0.641 0.78674 0.42682 0.0
H2392 H 0.64904 0.75583 0.33862 0.0
H2393 H 0.68444 0.82965 0.36676 0.0
H2394 H 0.59683 0.75069 0.3547 0.0
H2395 H 0.60771 0.74001 0.37874 0.0
H2396 H 0.61525 0.7311 0.35206 0.0
H2397 H 0.64309 0.84391 0.39023 0.0
H2398 H 0.67263 0.84655 0.39902 0.0
H2399 H 0.64921 0.82791 0.41298 0.0
C2400 C 0.05965 0.21048 0.45364 0.0
C2401 C 0.04702 0.20859 0.43282 0.0
C2402 C 0.05954 0.18953 0.46605 0.0
C2403 C 0.04594 0.16467 0.45859 0.0
C2404 C 0.03288 0.16261 0.43768 0.0
C2405 C 0.03376 0.18388 0.4253 0.0
C2406 C 0.07444 0.19421 0.48747 0.0
C2407 C 0.01709 0.13766 0.42848 0.0
C2408 C 0.05955 0.10506 0.48151 0.0
C2409 C 0.04566 0.09868 0.49937 0.0
C2410 C 0.05997 0.12587 0.46875 0.0
C2411 C 0.04548 0.14147 0.47249 0.0
C2412 C 0.03097 0.13472 0.49014 0.0
C2413 C 0.03161 0.11444 0.50326 0.0
C2414 C 0.07664 0.13152 0.45126 0.0
C2415 C 0.01436 0.14903 0.49538 0.0
H2416 H 0.0701 0.22876 0.46041 0.0
H2417 H 0.02346 0.18106 0.40969 0.0
H2418 H 0.06332 0.18979 0.50122 0.0
H2419 H 0.08567 0.18192 0.48753 0.0
H2420 H 0.08553 0.21373 0.49056 0.0
H2421 H 1.00909 0.13811 0.41174 0.0
H2422 H 0.02669 0.12381 0.42786 0.0
H2423 H 1.00311 0.13131 0.43951 0.0
H2424 H 0.07086 0.09401 0.47774 0.0
H2425 H 0.02055 0.11068 0.5166 0.0
H2426 H 0.08776 0.15103 0.45414 0.0
H2427 H 0.06694 0.12937 0.43491 0.0
H2428 H 0.08789 0.11923 0.45089 0.0
H2429 H 0.02401 0.16699 0.50457 0.0
H2430 H 1.00084 0.13889 0.5056 0.0
H2431 H 1.0058 0.15299 0.48007 0.0
C2432 C 0.62038 0.28433 0.22492 0.0
C2433 C 0.61855 0.29754 0.20626 0.0
C2434 C 0.64213 0.28256 0.23493 0.0
C2435 C 0.66407 0.29509 0.22734 0.0
C2436 C 0.66237 0.30898 0.20884 0.0
C2437 C 0.64028 0.30954 0.19851 0.0
C2438 C 0.6415 0.26681 0.25386 0.0
C2439 C 0.68425 0.32367 0.19986 0.0
C2440 C 0.72357 0.3088 0.26587 0.0
C2441 C 0.73363 0.29017 0.25894 0.0
C2442 C 0.70152 0.31035 0.25634 0.0
C2443 C 0.68826 0.29346 0.23836 0.0
C2444 C 0.69858 0.27488 0.23112 0.0
C2445 C 0.72028 0.27328 0.24141 0.0
C2446 C 0.69225 0.33031 0.26582 0.0
C2447 C 0.68658 0.25634 0.21213 0.0
H2448 H 0.60444 0.27458 0.23154 0.0
H2449 H 0.64014 0.32005 0.1844 0.0
H2450 H 0.65106 0.25324 0.25047 0.0
H2451 H 0.65026 0.27866 0.26893 0.0
H2452 H 0.62354 0.25661 0.25708 0.0
H2453 H 0.68079 0.33467 0.18644 0.0
H2454 H 0.69581 0.33643 0.2132 0.0
H2455 H 0.69368 0.311 0.19351 0.0
H2456 H 0.73286 0.32223 0.27925 0.0
H2457 H 0.7271 0.25875 0.23526 0.0
H2458 H 0.67508 0.32181 0.27182 0.0
H2459 H 0.68972 0.34224 0.25286 0.0
H2460 H 0.70396 0.34206 0.27965 0.0
H2461 H 0.66936 0.24523 0.21646 0.0
H2462 H 0.69669 0.24362 0.20751 0.0
H2463 H 0.68365 0.26609 0.19762 0.0
C2464 C 0.5451 0.85691 0.94667 0.0
C2465 C 0.55906 0.85812 0.92872 0.0
C2466 C 0.54349 0.87863 0.95975 0.0
C2467 C 0.55658 0.90342 0.95603 0.0
C2468 C 0.57099 0.90464 0.93821 0.0
C2469 C 0.57167 0.88275 0.92496 0.0
C2470 C 0.52697 0.87491 0.97741 0.0
C2471 C 0.58635 0.92945 0.9332 0.0
C2472 C 0.54135 0.96527 0.97645 0.0
C2473 C 0.55409 0.97371 0.99728 0.0
C2474 C 0.54136 0.94274 0.96365 0.0
C2475 C 0.55543 0.92765 0.97048 0.0
C2476 C 0.56869 0.93646 0.99129 0.0
C2477 C 0.56738 0.95828 1.00428 0.0
C2478 C 0.52563 0.93479 0.94271 0.0
C2479 C 0.58474 0.92285 1.00009 0.0
H2480 H 0.53457 0.83878 0.95013 0.0
H2481 H 0.5825 0.88507 0.91141 0.0
H2482 H 0.53672 0.88132 0.99372 0.0
H2483 H 0.515 0.88619 0.97496 0.0
H2484 H 0.51661 0.85523 0.97757 0.0
H2485 H 0.59681 0.92795 0.91924 0.0
H2486 H 0.57578 0.94179 0.9292 0.0
H2487 H 0.59822 0.93841 0.94795 0.0
H2488 H 0.53063 0.97602 0.97025 0.0
H2489 H 0.57752 0.96368 0.02001 0.0
H2490 H 0.51539 0.91501 0.94243 0.0
H2491 H 0.53607 0.93663 0.92838 0.0
H2492 H 0.51353 0.94601 0.94076 0.0
H2493 H 0.57453 0.90597 0.00712 0.0
H2494 H 0.59764 0.93437 0.01322 0.0
H2495 H 0.5941 0.91701 0.98677 0.0
C2496 C 0.98378 0.81306 0.72909 0.0
C2497 C 0.98685 0.79656 0.71153 0.0
C2498 C 0.96191 0.81162 0.73848 0.0
C2499 C 0.94044 0.79305 0.73097 0.0
C2500 C 0.9432 0.77621 0.71322 0.0
C2501 C 0.96549 0.77802 0.70409 0.0
C2502 C 0.96202 0.83034 0.75714 0.0
C2503 C 0.92213 0.75594 0.70344 0.0
C2504 C 0.88493 0.77588 0.76799 0.0
C2505 C 0.8705 0.79064 0.76164 0.0
C2506 C 0.9069 0.77667 0.7588 0.0
C2507 C 0.91588 0.79171 0.74133 0.0
C2508 C 0.90104 0.80611 0.7345 0.0
C2509 C 0.87975 0.80584 0.74468 0.0
C2510 C 0.92102 0.76148 0.76844 0.0
C2511 C 0.90759 0.82214 0.71592 0.0
H2512 H 0.999 0.8277 0.73595 0.0
H2513 H 0.966 0.76462 0.69085 0.0
H2514 H 0.94938 0.84035 0.7529 0.0
H2515 H 0.95656 0.82069 0.77196 0.0
H2516 H 0.97934 0.84408 0.76125 0.0
H2517 H 0.92618 0.74401 0.69014 0.0
H2518 H 0.9143 0.74424 0.71639 0.0
H2519 H 0.90896 0.7642 0.6967 0.0
H2520 H 0.87937 0.7639 0.7809 0.0
H2521 H 0.86987 0.81755 0.73874 0.0
H2522 H 0.93841 0.77378 0.77488 0.0
H2523 H 0.92362 0.7482 0.75548 0.0
H2524 H 0.91274 0.75104 0.78196 0.0
H2525 H 0.92271 0.83833 0.72164 0.0
H2526 H 0.89321 0.82897 0.70968 0.0
H2527 H 0.91268 0.81172 0.70214 0.0
C2528 C 0.15642 0.04552 0.92233 0.0
C2529 C 0.15082 0.04031 0.89962 0.0
C2530 C 0.13903 0.0429 0.93657 0.0
C2531 C 0.11566 0.03457 0.92777 0.0
C2532 C 0.10982 0.02962 0.90495 0.0
C2533 C 0.12752 0.03236 0.89109 0.0
C2534 C 0.14563 0.04899 0.96099 0.0
C2535 C 0.08493 0.02148 0.89527 0.0
C2536 C 0.07762 1.00221 0.96891 0.0
C2537 C 0.06931 0.02113 0.97693 0.0
C2538 C 0.0914 0.00578 0.95138 0.0
C2539 C 0.0974 0.02909 0.94271 0.0
C2540 C 0.08789 0.04777 0.95012 0.0
C2541 C 0.07359 0.04336 0.96719 0.0
C2542 C 0.10094 0.98538 0.94328 0.0
C2543 C 0.09444 0.07312 0.94174 0.0
H2544 H 0.17437 0.05213 0.92898 0.0
H2545 H 0.12304 0.02878 0.87351 0.0
H2546 H 0.13685 0.06215 0.96767 0.0
H2547 H 0.13983 0.03194 0.96961 0.0
H2548 H 0.1646 0.05724 0.96491 0.0
H2549 H 0.08342 0.01993 0.87702 0.0
H2550 H 0.07574 1.00326 0.90085 0.0
H2551 H 0.07594 0.0348 0.90115 0.0
H2552 H 0.07421 0.9852 0.97694 0.0
H2553 H 0.06723 0.05799 0.97405 0.0
H2554 H 0.11979 0.99068 0.94826 0.0
H2555 H 0.09864 0.98258 0.92507 0.0
H2556 H 0.09245 0.96758 0.95 0.0
H2557 H 0.11105 0.08459 0.95063 0.0
H2558 H 0.08118 0.08265 0.94467 0.0
H2559 H 0.09688 0.0722 0.92395 0.0
C2560 C 0.81444 0.38784 0.56897 0.0
C2561 C 0.83038 0.40686 0.55985 0.0
C2562 C 0.82058 0.37901 0.58857 0.0
C2563 C 0.84347 0.38881 0.59864 0.0
C2564 C 0.85977 0.40773 0.58919 0.0
C2565 C 0.85287 0.41688 0.57005 0.0
C2566 C 0.80259 0.3592 0.59849 0.0
C2567 C 0.8846 0.41778 0.59889 0.0
C2568 C 0.85087 0.37979 0.65896 0.0
C2569 C 0.85652 0.35754 0.65813 0.0
C2570 C 0.84747 0.39074 0.63972 0.0
C2571 C 0.85011 0.37933 0.61922 0.0
C2572 C 0.85731 0.35776 0.61838 0.0
C2573 C 0.86026 0.347 0.63787 0.0
C2574 C 0.83991 0.41382 0.64123 0.0
C2575 C 0.86077 0.34534 0.59685 0.0
H2576 H 0.79713 0.38005 0.56086 0.0
H2577 H 0.86533 0.43119 0.56256 0.0
H2578 H 0.80815 0.34231 0.59917 0.0
H2579 H 0.80079 0.36562 0.61562 0.0
H2580 H 0.78538 0.35421 0.58901 0.0
H2581 H 0.89499 0.43281 0.58972 0.0
H2582 H 0.88533 0.42498 0.61629 0.0
H2583 H 0.89274 0.40265 0.5987 0.0
H2584 H 0.84846 0.38829 0.67465 0.0
H2585 H 0.86447 0.32971 0.63708 0.0
H2586 H 0.82222 0.40973 0.63292 0.0
H2587 H 0.85154 0.42851 0.63266 0.0
H2588 H 0.83979 0.42109 0.65851 0.0
H2589 H 0.84371 0.33613 0.58764 0.0
H2590 H 0.8698 0.33118 0.59931 0.0
H2591 H 0.87091 0.35918 0.5865 0.0
C2592 C 0.49234 0.07663 0.38956 0.0
C2593 C 0.46999 0.06292 0.39398 0.0
C2594 C 0.51104 0.08095 0.40524 0.0
C2595 C 0.5071 0.07162 0.42581 0.0
C2596 C 0.48441 0.05896 0.43088 0.0
C2597 C 0.46596 0.05485 0.4148 0.0
C2598 C 0.53509 0.09429 0.39944 0.0
C2599 C 0.47979 0.04865 0.45284 0.0
C2600 C 0.54929 0.05242 0.46176 0.0
C2601 C 0.55192 0.06959 0.47981 0.0
C2602 C 0.53648 0.05421 0.44259 0.0
C2603 C 0.52673 0.07394 0.44186 0.0
C2604 C 0.53255 0.09337 0.45886 0.0
C2605 C 0.54514 0.09085 0.47797 0.0
C2606 C 0.53046 0.03302 0.42481 0.0
C2607 C 0.52268 0.11483 0.45823 0.0
H2608 H 0.49539 0.08311 0.37345 0.0
H2609 H 0.44871 0.04419 0.41812 0.0
H2610 H 0.54356 0.10999 0.41191 0.0
H2611 H 0.54587 0.08154 0.39953 0.0
H2612 H 0.53496 0.10142 0.38299 0.0
H2613 H 0.46109 0.03947 0.4541 0.0
H2614 H 0.48929 0.03495 0.45542 0.0
H2615 H 0.48616 0.06368 0.46632 0.0
H2616 H 0.55452 0.0359 0.46366 0.0
H2617 H 0.54715 0.10387 0.4923 0.0
H2618 H 0.52997 0.0397 0.40825 0.0
H2619 H 0.513 0.02041 0.42682 0.0
H2620 H 0.54297 0.02217 0.42576 0.0
H2621 H 0.52315 0.12165 0.44166 0.0
H2622 H 0.53223 0.13037 0.47051 0.0
H2623 H 0.50431 0.10861 0.46194 0.0
C2624 C 0.78217 0.71766 0.11316 0.0
C2625 C 0.7941 0.7343 0.09871 0.0
C2626 C 0.78209 0.72464 0.13591 0.0
C2627 C 0.79446 0.74899 0.14513 0.0
C2628 C 0.80679 0.76582 0.13069 0.0
C2629 C 0.80633 0.75842 0.10788 0.0
C2630 C 0.76857 0.7058 0.15012 0.0
C2631 C 0.82067 0.79177 0.13942 0.0
C2632 C 0.77761 0.77355 0.20066 0.0
C2633 C 0.79487 0.77123 0.21617 0.0
C2634 C 0.77743 0.76676 0.17778 0.0
C2635 C 0.7946 0.75673 0.16973 0.0
C2636 C 0.81183 0.75399 0.1854 0.0
C2637 C 0.81191 0.76144 0.20807 0.0
C2638 C 0.75884 0.77054 0.16209 0.0
C2639 C 0.8302 0.74285 0.17827 0.0
H2640 H 0.77256 0.69899 0.1066 0.0
H2641 H 0.81576 0.77158 0.09723 0.0
H2642 H 0.78026 0.70307 0.16377 0.0
H2643 H 0.75519 0.71264 0.15761 0.0
H2644 H 0.75993 0.68763 0.14072 0.0
H2645 H 0.82913 0.80285 0.12632 0.0
H2646 H 0.80929 0.80131 0.14729 0.0
H2647 H 0.83423 0.79118 0.15224 0.0
H2648 H 0.76439 0.78119 0.20635 0.0
H2649 H 0.82533 0.75925 0.2196 0.0
H2650 H 0.74864 0.7526 0.15317 0.0
H2651 H 0.76688 0.78289 0.14962 0.0
H2652 H 0.74687 0.77877 0.1706 0.0
H2653 H 0.82196 0.72354 0.17108 0.0
H2654 H 0.84292 0.74273 0.19212 0.0
H2655 H 0.83961 0.75329 0.1653 0.0
C2656 C 0.1544 0.0805 0.77187 0.0
C2657 C 0.15268 0.05796 0.78052 0.0
C2658 C 0.14209 0.08119 0.75196 0.0
C2659 C 0.12855 0.05871 0.74025 0.0
C2660 C 0.12751 0.03581 0.74859 0.0
C2661 C 0.1393 0.03575 0.76898 0.0
C2662 C 0.14298 0.10596 0.74381 0.0
C2663 C 0.11394 0.01149 0.73607 0.0
C2664 C 0.08072 0.06209 0.69905 0.0
C2665 C 0.09186 0.06399 0.67962 0.0
C2666 C 0.09237 0.05997 0.71896 0.0
C2667 C 0.1155 0.0593 0.71924 0.0
C2668 C 0.12662 0.06048 0.69962 0.0
C2669 C 0.11478 0.06319 0.68009 0.0
C2670 C 0.08011 0.05894 0.73972 0.0
C2671 C 0.15117 0.05934 0.69933 0.0
H2672 H 0.16451 0.09763 0.78119 0.0
H2673 H 0.13812 0.01838 0.7759 0.0
H2674 H 0.14974 0.10732 0.7274 0.0
H2675 H 0.12526 0.10777 0.74193 0.0
H2676 H 0.15407 0.12169 0.75513 0.0
H2677 H 0.11537 0.99534 0.74471 0.0
H2678 H 0.0954 0.01041 0.73355 0.0
H2679 H 0.12026 0.01017 0.71956 0.0
H2680 H 0.06289 0.06226 0.69869 0.0
H2681 H 0.12366 0.06508 0.66522 0.0
H2682 H 0.08963 0.07485 0.75163 0.0
H2683 H 0.07987 0.04185 0.7476 0.0
H2684 H 0.06201 0.05937 0.7366 0.0
H2685 H 0.16325 0.07617 0.70852 0.0
H2686 H 0.15643 0.058 0.68236 0.0
H2687 H 0.1531 0.04318 0.70761 0.0
C2688 C 0.79593 0.40145 0.41531 0.0
C2689 C 0.80478 0.397 0.43578 0.0
C2690 C 0.79612 0.38624 0.39653 0.0
C2691 C 0.80536 0.36631 0.39853 0.0
C2692 C 0.81535 0.36241 0.41887 0.0
C2693 C 0.81468 0.37769 0.43741 0.0
C2694 C 0.78595 0.39105 0.37471 0.0
C2695 C 0.82641 0.34196 0.42105 0.0
C2696 C 0.77641 0.31066 0.35926 0.0
C2697 C 0.79215 0.31359 0.34347 0.0
C2698 C 0.78094 0.32763 0.3777 0.0
C2699 C 0.80165 0.34765 0.38001 0.0
C2700 C 0.81802 0.35014 0.36435 0.0
C2701 C 0.81297 0.33296 0.34612 0.0
C2702 C 0.76347 0.32434 0.39456 0.0
C2703 C 0.84051 0.37098 0.36644 0.0
H2704 H 0.78892 0.41683 0.41398 0.0
H2705 H 0.82251 0.37491 0.45307 0.0
H2706 H 0.79842 0.39199 0.36209 0.0
H2707 H 0.77019 0.37554 0.36903 0.0
H2708 H 0.78124 0.40855 0.37569 0.0
H2709 H 0.83539 0.343 0.43764 0.0
H2710 H 0.813 0.32372 0.41784 0.0
H2711 H 0.83913 0.34282 0.40866 0.0
H2712 H 0.76051 0.29541 0.35701 0.0
H2713 H 0.82554 0.33447 0.33413 0.0
H2714 H 0.757 0.34069 0.39591 0.0
H2715 H 0.77179 0.32302 0.41091 0.0
H2716 H 0.74848 0.30749 0.39038 0.0
H2717 H 0.83716 0.38794 0.36099 0.0
H2718 H 0.85341 0.36661 0.35606 0.0
H2719 H 0.84819 0.37519 0.38371 0.0
C2720 C 0.49287 0.06248 0.27307 0.0
C2721 C 0.46872 0.05314 0.2728 0.0
C2722 C 0.50395 0.06015 0.25416 0.0
C2723 C 0.49041 0.04863 0.23462 0.0
C2724 C 0.46596 0.0403 0.23395 0.0
C2725 C 0.45535 0.04263 0.25318 0.0
C2726 C 0.53008 0.06888 0.25535 0.0
C2727 C 0.45111 0.02781 0.2132 0.0
C2728 C 0.51147 0.05303 0.17842 0.0
C2729 C 0.51358 0.02928 0.17427 0.0
C2730 C 0.50548 0.06042 0.19882 0.0
C2731 C 0.50164 0.04358 0.21513 0.0
C2732 C 0.50566 0.02039 0.21161 0.0
C2733 C 0.51157 0.01348 0.19108 0.0
C2734 C 0.5016 0.08542 0.20234 0.0
C2735 C 0.50198 1.00211 0.22885 0.0
H2736 H 0.50326 0.07059 0.2883 0.0
H2737 H 0.43669 0.03539 0.25301 0.0
H2738 H 0.53671 0.05304 0.25119 0.0
H2739 H 0.53592 0.08243 0.24312 0.0
H2740 H 0.53801 0.0776 0.27191 0.0
H2741 H 0.43233 0.02352 0.21524 0.0
H2742 H 0.45526 0.03979 0.19952 0.0
H2743 H 0.45483 0.01028 0.20835 0.0
H2744 H 0.51361 0.06541 0.16545 0.0
H2745 H 0.51321 0.9951 0.18779 0.0
H2746 H 0.51004 0.09495 0.21846 0.0
H2747 H 0.48278 0.08293 0.2025 0.0
H2748 H 0.5083 0.0975 0.18921 0.0
H2749 H 0.51103 0.01122 0.2449 0.0
H2750 H 0.50825 0.98609 0.22426 0.0
H2751 H 0.48326 0.99505 0.2311 0.0
C2752 C 0.79562 0.75372 0.96037 0.0
C2753 C 0.80352 0.73345 0.96508 0.0
C2754 C 0.7977 0.76359 0.93937 0.0
C2755 C 0.80795 0.75321 0.92229 0.0
C2756 C 0.81682 0.73354 0.92744 0.0
C2757 C 0.81449 0.72409 0.94833 0.0
C2758 C 0.78795 0.78455 0.93516 0.0
C2759 C 0.82815 0.72168 0.91047 0.0
C2760 C 0.79119 0.75447 0.86005 0.0
C2761 C 0.80981 0.77305 0.85307 0.0
C2762 C 0.79 0.74876 0.88231 0.0
C2763 C 0.80813 0.76132 0.89869 0.0
C2764 C 0.82703 0.78017 0.89181 0.0
C2765 C 0.82747 0.78601 0.86943 0.0
C2766 C 0.76916 0.72895 0.88829 0.0
C2767 C 0.84704 0.79408 0.90814 0.0
H2768 H 0.78683 0.76115 0.97268 0.0
H2769 H 0.82084 0.70855 0.95136 0.0
H2770 H 0.80071 0.79937 0.9277 0.0
H2771 H 0.77238 0.77769 0.92328 0.0
H2772 H 0.78303 0.79261 0.95044 0.0
H2773 H 0.83562 0.70777 0.91727 0.0
H2774 H 0.81522 0.71239 0.89654 0.0
H2775 H 0.84211 0.73599 0.90379 0.0
H2776 H 0.77709 0.74443 0.84802 0.0
H2777 H 0.84193 0.80052 0.86468 0.0
H2778 H 0.76145 0.73618 0.9022 0.0
H2779 H 0.77453 0.71307 0.89375 0.0
H2780 H 0.75565 0.72216 0.87429 0.0
H2781 H 0.8408 0.80408 0.92139 0.0
H2782 H 0.86077 0.80763 0.9004 0.0
H2783 H 0.85473 0.78091 0.91596 0.0
C2784 C 0.85149 0.11755 0.05989 0.0
C2785 C 0.82847 0.10388 0.05348 0.0
C2786 C 0.86945 0.1076 0.0554 0.0
C2787 C 0.86399 0.08376 0.04408 0.0
C2788 C 0.84076 0.06964 0.0383 0.0
C2789 C 0.8233 0.07973 0.04339 0.0
C2790 C 0.89419 0.12277 0.06213 0.0
C2791 C 0.83432 0.04414 0.02612 0.0
C2792 C 0.9057 0.06306 0.01041 0.0
C2793 C 0.91148 0.04662 0.024 0.0
C2794 C 0.89087 0.07631 0.01719 0.0
C2795 C 0.88227 0.07311 0.0381 0.0
C2796 C 0.88878 0.05705 0.05208 0.0
C2797 C 0.90329 0.0438 0.04474 0.0
C2798 C 0.88385 0.09308 1.00183 0.0
C2799 C 0.87998 0.05339 0.07451 0.0
H2800 H 0.8555 0.13616 0.06778 0.0
H2801 H 0.80549 0.06879 0.03878 0.0
H2802 H 0.90357 0.11162 0.07088 0.0
H2803 H 0.90319 0.12841 0.04727 0.0
H2804 H 0.89532 0.1397 0.0729 0.0
H2805 H 0.8153 0.03582 0.02263 0.0
H2806 H 0.84231 0.04514 0.01029 0.0
H2807 H 0.84105 0.03157 0.03587 0.0
H2808 H 0.91276 0.06546 0.99461 0.0
H2809 H 0.90855 0.03146 0.0553 0.0
H2810 H 0.88712 0.11183 0.01029 0.0
H2811 H 0.865 0.08578 0.99686 0.0
H2812 H 0.89327 0.09469 0.98677 0.0
H2813 H 0.88299 0.07154 0.08402 0.0
H2814 H 0.88845 0.04197 0.08406 0.0
H2815 H 0.86104 0.04411 0.07272 0.0
C2816 C 0.39085 0.39841 0.04759 0.0
C2817 C 0.37154 0.40645 0.04212 0.0
C2818 C 0.41346 0.41527 0.05065 0.0
C2819 C 0.41705 0.44031 0.04636 0.0
C2820 C 0.39755 0.44867 0.04229 0.0
C2821 C 0.37523 0.43191 0.04164 0.0
C2822 C 0.43333 0.40657 0.05918 0.0
C2823 C 0.40006 0.47498 0.03735 0.0
C2824 C 0.47238 0.49483 0.05756 0.0
C2825 C 0.48269 0.49405 0.03775 0.0
C2826 C 0.45197 0.47642 0.06136 0.0
C2827 C 0.44085 0.45744 0.04448 0.0
C2828 C 0.45142 0.45647 0.02458 0.0
C2829 C 0.47235 0.47446 0.02166 0.0
C2830 C 0.44234 0.47747 0.08343 0.0
C2831 C 0.44033 0.43676 0.00606 0.0
H2832 H 0.38828 0.37907 0.04993 0.0
H2833 H 0.3606 0.43886 0.04096 0.0
H2834 H 0.44554 0.407 0.04643 0.0
H2835 H 0.44312 0.41923 0.07348 0.0
H2836 H 0.42733 0.3875 0.06435 0.0
H2837 H 0.38385 0.47985 0.03922 0.0
H2838 H 0.41401 0.48864 0.048 0.0
H2839 H 0.40483 0.47712 0.02029 0.0
H2840 H 0.48068 0.5094 0.07042 0.0
H2841 H 0.48051 0.47337 0.00655 0.0
H2842 H 0.43509 0.45862 0.08871 0.0
H2843 H 0.42819 0.48611 0.08241 0.0
H2844 H 0.45579 0.48869 0.09627 0.0
H2845 H 0.43895 0.41819 0.01149 0.0
H2846 H 0.45028 0.4391 0.99135 0.0
H2847 H 0.42253 0.4372 1.00133 0.0
C2848 C 0.40832 0.59953 0.74248 0.0
C2849 C 0.39373 0.57532 0.73781 0.0
C2850 C 0.399 0.61877 0.74829 0.0
C2851 C 0.37489 0.61307 0.75045 0.0
C2852 C 0.36012 0.58889 0.74423 0.0
C2853 C 0.3697 0.57075 0.73685 0.0
C2854 C 0.41526 0.6446 0.75354 0.0
C2855 C 0.33435 0.58135 0.74668 0.0
C2856 C 0.35021 0.64908 0.79125 0.0
C2857 C 0.33754 0.65951 0.77698 0.0
C2858 C 0.36387 0.6351 0.78286 0.0
C2859 C 0.36472 0.63171 0.75979 0.0
C2860 C 0.35248 0.64291 0.7455 0.0
C2861 C 0.33883 0.65641 0.75426 0.0
C2862 C 0.37665 0.6232 0.79854 0.0
C2863 C 0.35286 0.63979 0.72086 0.0
H2864 H 0.42692 0.60312 0.74322 0.0
H2865 H 0.35837 0.55211 0.73273 0.0
H2866 H 0.4063 0.65896 0.75219 0.0
H2867 H 0.42346 0.64639 0.77054 0.0
H2868 H 0.42933 0.64819 0.74234 0.0
H2869 H 0.32747 0.56128 0.74879 0.0
H2870 H 0.33001 0.59171 0.76093 0.0
H2871 H 0.32514 0.5849 0.73162 0.0
H2872 H 0.34935 0.65181 0.80883 0.0
H2873 H 0.32879 0.66429 0.74322 0.0
H2874 H 0.39552 0.63045 0.79709 0.0
H2875 H 0.37143 0.6029 0.79425 0.0
H2876 H 0.37338 0.62679 0.81591 0.0
H2877 H 0.37028 0.63988 0.71628 0.0
H2878 H 0.34779 0.65459 0.71278 0.0
H2879 H 0.34036 0.6218 0.71432 0.0
C2880 C 0.21755 0.61329 0.57627 0.0
C2881 C 0.22676 0.63777 0.57177 0.0
C2882 C 0.19441 0.60409 0.57999 0.0
C2883 C 0.18075 0.62051 0.5807 0.0
C2884 C 0.19107 0.64614 0.57991 0.0
C2885 C 0.214 0.65448 0.57476 0.0
C2886 C 0.18447 0.57653 0.58145 0.0
C2887 C 0.17777 0.66455 0.58303 0.0
C2888 C 0.12858 0.58375 0.54778 0.0
C2889 C 0.11828 0.56829 0.56344 0.0
C2890 C 0.14674 0.60504 0.55417 0.0
C2891 C 0.15568 0.60975 0.57644 0.0
C2892 C 0.14326 0.59644 0.5926 0.0
C2893 C 0.12484 0.57535 0.58589 0.0
C2894 C 0.15648 0.62217 0.53704 0.0
C2895 C 0.15031 0.60337 0.61679 0.0
H2896 H 0.22834 0.60116 0.57643 0.0
H2897 H 0.22177 0.67394 0.57281 0.0
H2898 H 0.17678 0.57289 0.59723 0.0
H2899 H 0.17066 0.56836 0.56796 0.0
H2900 H 0.19777 0.56673 0.58047 0.0
H2901 H 0.1885 0.68103 0.59374 0.0
H2902 H 0.17402 0.67109 0.56694 0.0
H2903 H 0.16127 0.65666 0.59046 0.0
H2904 H 0.12241 0.57941 0.53055 0.0
H2905 H 0.1159 0.56429 0.59823 0.0
H2906 H 0.17558 0.62707 0.53802 0.0
H2907 H 0.15191 0.63954 0.54008 0.0
H2908 H 0.14928 0.61418 0.52011 0.0
H2909 H 0.15874 0.59018 0.62347 0.0
H2910 H 0.13472 0.60198 0.62578 0.0
H2911 H 0.16236 0.62243 0.62006 0.0
C2912 C 0.70099 0.97297 0.7494 0.0
C2913 C 0.68673 0.98087 0.76321 0.0
C2914 C 0.71182 0.95575 0.75607 0.0
C2915 C 0.70868 0.94731 0.77725 0.0
C2916 C 0.69224 0.95328 0.79008 0.0
C2917 C 0.68106 0.96979 0.78261 0.0
C2918 C 0.72878 0.94909 0.7417 0.0
C2919 C 0.68894 0.94531 0.81298 0.0
C2920 C 0.7388 0.90054 0.7913 0.0
C2921 C 0.76068 0.91616 0.79954 0.0
C2922 C 0.72103 0.91034 0.78506 0.0
C2923 C 0.72545 0.93622 0.78728 0.0
C2924 C 0.74694 0.95191 0.7973 0.0
C2925 C 0.76442 0.94158 0.80336 0.0
C2926 C 0.69819 0.89326 0.77465 0.0
C2927 C 0.75209 0.9797 0.80015 0.0
H2928 H 0.7055 0.98204 0.73457 0.0
H2929 H 0.67025 0.97655 0.79333 0.0
H2930 H 0.74668 0.95976 0.74824 0.0
H2931 H 0.72726 0.92914 0.74172 0.0
H2932 H 0.72607 0.95342 0.72449 0.0
H2933 H 0.67236 0.94688 0.81865 0.0
H2934 H 0.68936 0.92603 0.81392 0.0
H2935 H 0.70328 0.95746 0.82449 0.0
H2936 H 0.736 0.88075 0.78873 0.0
H2937 H 0.78142 0.95349 0.80974 0.0
H2938 H 0.69637 0.8961 0.75695 0.0
H2939 H 0.68357 0.89753 0.78227 0.0
H2940 H 0.69675 0.8735 0.77615 0.0
H2941 H 0.75405 0.98718 0.78387 0.0
H2942 H 0.76827 0.98876 0.81088 0.0
H2943 H 0.73761 0.98481 0.80729 0.0
C2944 C 0.74897 0.91122 0.54942 0.0
C2945 C 0.75047 0.89639 0.5307 0.0
C2946 C 0.73322 0.92513 0.54934 0.0
C2947 C 0.71819 0.9237 0.53025 0.0
C2948 C 0.7188 0.90766 0.5117 0.0
C2949 C 0.73522 0.89455 0.51202 0.0
C2950 C 0.7338 0.94266 0.56916 0.0
C2951 C 0.70317 0.90551 0.491 0.0
C2952 C 0.66664 0.94797 0.538 0.0
C2953 C 0.67455 0.97198 0.5313 0.0
C2954 C 0.68037 0.93188 0.53715 0.0
C2955 C 0.70266 0.93988 0.5295 0.0
C2956 C 0.71053 0.96385 0.52214 0.0
C2957 C 0.69646 0.97958 0.52322 0.0
C2958 C 0.67115 0.90635 0.54473 0.0
C2959 C 0.73414 0.97327 0.51379 0.0
H2960 H 0.76143 0.91353 0.56351 0.0
H2961 H 0.73693 0.88379 0.49727 0.0
H2962 H 0.73974 0.962 0.56469 0.0
H2963 H 0.71619 0.93945 0.57466 0.0
H2964 H 0.74559 0.94069 0.58311 0.0
H2965 H 0.70361 0.88996 0.4792 0.0
H2966 H 0.68505 0.9028 0.49493 0.0
H2967 H 0.7087 0.92292 0.48285 0.0
H2968 H 0.64959 0.94168 0.54385 0.0
H2969 H 0.70291 0.99814 0.5182 0.0
H2970 H 0.68211 0.90451 0.55935 0.0
H2971 H 0.67195 0.89218 0.53167 0.0
H2972 H 0.653 0.90235 0.54905 0.0
H2973 H 0.74763 0.97719 0.52779 0.0
H2974 H 0.73616 0.99051 0.5055 0.0
H2975 H 0.73737 0.95916 0.50207 0.0
C2976 C 0.41474 0.43779 0.74776 0.0
C2977 C 0.4027 0.45446 0.74228 0.0
C2978 C 0.4028 0.41274 0.74901 0.0
C2979 C 0.37832 0.40474 0.74564 0.0
C2980 C 0.36649 0.42117 0.73811 0.0
C2981 C 0.37903 0.44564 0.73591 0.0
C2982 C 0.41645 0.39539 0.75485 0.0
C2983 C 0.34049 0.41343 0.73334 0.0
C2984 C 0.33162 0.34425 0.74582 0.0
C2985 C 0.32784 0.34496 0.76808 0.0
C2986 C 0.35043 0.36185 0.7384 0.0
C2987 C 0.36459 0.38124 0.75349 0.0
C2988 C 0.36192 0.38035 0.77627 0.0
C2989 C 0.34359 0.36207 0.78325 0.0
C2990 C 0.35496 0.35936 0.71456 0.0
C2991 C 0.37834 0.3982 0.79359 0.0
H2992 H 0.43337 0.44436 0.75141 0.0
H2993 H 0.37022 0.45803 0.72944 0.0
H2994 H 0.4221 0.39854 0.77267 0.0
H2995 H 0.40632 0.37567 0.75079 0.0
H2996 H 0.43239 0.39939 0.74604 0.0
H2997 H 0.33497 0.39846 0.71981 0.0
H2998 H 0.33196 0.40627 0.74807 0.0
H2999 H 0.33415 0.42883 0.72822 0.0
H3000 H 0.32027 0.32969 0.73434 0.0
H3001 H 0.34129 0.36141 0.80065 0.0
H3002 H 0.37156 0.37252 0.71092 0.0
H3003 H 0.34053 0.36215 0.70402 0.0
H3004 H 0.35536 0.34023 0.70999 0.0
H3005 H 0.39325 0.39125 0.79753 0.0
H3006 H 0.37005 0.39941 0.80908 0.0
H3007 H 0.38504 0.4169 0.78803 0.0
C3008 C 0.21615 0.60588 0.24651 0.0
C3009 C 0.19472 0.60601 0.25356 0.0
C3010 C 0.23229 0.62768 0.24224 0.0
C3011 C 0.22618 0.64974 0.24405 0.0
C3012 C 0.20312 0.64918 0.2469 0.0
C3013 C 0.18762 0.62723 0.25235 0.0
C3014 C 0.25644 0.62742 0.23792 0.0
C3015 C 0.19557 0.67214 0.24577 0.0
C3016 C 0.26932 0.69991 0.28016 0.0
C3017 C 0.28169 0.71395 0.2648 0.0
C3018 C 0.25047 0.67961 0.27334 0.0
C3019 C 0.24474 0.67263 0.25054 0.0
C3020 C 0.25803 0.68622 0.23488 0.0
C3021 C 0.27672 0.70687 0.24232 0.0
C3022 C 0.23575 0.6672 0.29068 0.0
C3023 C 0.25201 0.68038 0.21043 0.0
H3024 H 0.2205 0.58878 0.24457 0.0
H3025 H 0.17027 0.62679 0.256 0.0
H3026 H 0.26198 0.63733 0.2233 0.0
H3027 H 0.26875 0.63711 0.25218 0.0
H3028 H 0.25763 0.60834 0.23508 0.0
H3029 H 0.17641 0.66765 0.24399 0.0
H3030 H 0.20225 0.68475 0.2609 0.0
H3031 H 0.20282 0.6823 0.23171 0.0
H3032 H 0.27303 0.70632 0.2975 0.0
H3033 H 0.28603 0.71865 0.23059 0.0
H3034 H 0.22934 0.64693 0.28677 0.0
H3035 H 0.2205 0.67406 0.2915 0.0
H3036 H 0.24531 0.6716 0.30724 0.0
H3037 H 0.26603 0.67454 0.20307 0.0
H3038 H 0.25116 0.69735 0.20284 0.0
H3039 H 0.23533 0.66571 0.20605 0.0
C3040 C 0.50294 0.68011 0.45214 0.0
C3041 C 0.51399 0.70447 0.46139 0.0
C3042 C 0.50698 0.65922 0.46146 0.0
C3043 C 0.52299 0.66235 0.48031 0.0
C3044 C 0.53456 0.68698 0.48934 0.0
C3045 C 0.52975 0.70742 0.48007 0.0
C3046 C 0.49386 0.63363 0.45121 0.0
C3047 C 0.55214 0.69181 0.50897 0.0
C3048 C 0.51854 0.60796 0.51691 0.0
C3049 C 0.53682 0.599 0.51101 0.0
C3050 C 0.51409 0.62849 0.50739 0.0
C3051 C 0.52755 0.64012 0.49068 0.0
C3052 C 0.5457 0.63067 0.48432 0.0
C3053 C 0.55035 0.61075 0.49476 0.0
C3054 C 0.49507 0.63797 0.51548 0.0
C3055 C 0.56019 0.64148 0.46625 0.0
H3056 H 0.49066 0.6773 0.43785 0.0
H3057 H 0.53865 0.72598 0.48742 0.0
H3058 H 0.50616 0.62354 0.44638 0.0
H3059 H 0.48322 0.623 0.46339 0.0
H3060 H 0.48229 0.63403 0.4365 0.0
H3061 H 0.55972 0.71186 0.51419 0.0
H3062 H 0.54398 0.68234 0.52298 0.0
H3063 H 0.56637 0.6841 0.50504 0.0
H3064 H 0.50795 0.59921 0.52944 0.0
H3065 H 0.56434 0.60393 0.48978 0.0
H3066 H 0.48178 0.6366 0.50175 0.0
H3067 H 0.50222 0.65781 0.52158 0.0
H3068 H 0.48655 0.62756 0.52892 0.0
H3069 H 0.54887 0.64013 0.45096 0.0
H3070 H 0.5733 0.63191 0.46278 0.0
H3071 H 0.56922 0.66139 0.4708 0.0
C3072 C 0.68019 0.33206 0.66945 0.0
C3073 C 0.65845 0.31442 0.66922 0.0
C3074 C 0.69946 0.33014 0.68277 0.0
C3075 C 0.69706 0.30984 0.69578 0.0
C3076 C 0.67511 0.29182 0.69518 0.0
C3077 C 0.65614 0.2945 0.68217 0.0
C3078 C 0.72232 0.35008 0.68327 0.0
C3079 C 0.67153 0.26976 0.70849 0.0
C3080 C 0.75086 0.29233 0.71627 0.0
C3081 C 0.75444 0.30181 0.73843 0.0
C3082 C 0.73242 0.2949 0.70224 0.0
C3083 C 0.71724 0.30758 0.71035 0.0
C3084 C 0.72088 0.31731 0.73267 0.0
C3085 C 0.73926 0.31425 0.74637 0.0
C3086 C 0.7289 0.28359 0.67879 0.0
C3087 C 0.70533 0.33103 0.74217 0.0
H3088 H 0.68199 0.34762 0.65967 0.0
H3089 H 0.63931 0.28085 0.68207 0.0
H3090 H 0.72774 0.35885 0.70029 0.0
H3091 H 0.73589 0.34187 0.67824 0.0
H3092 H 0.72149 0.36465 0.6723 0.0
H3093 H 0.65379 0.25663 0.7052 0.0
H3094 H 0.6842 0.25973 0.7048 0.0
H3095 H 0.67451 0.27605 0.72627 0.0
H3096 H 0.76223 0.28247 0.70992 0.0
H3097 H 0.74173 0.32171 0.76341 0.0
H3098 H 0.7296 0.29809 0.66736 0.0
H3099 H 0.7115 0.26981 0.67571 0.0
H3100 H 0.74212 0.27431 0.67492 0.0
H3101 H 0.70678 0.34795 0.73358 0.0
H3102 H 0.70975 0.3365 0.76004 0.0
H3103 H 0.68699 0.31943 0.73955 0.0
C3104 C 0.99787 0.3491 0.97572 0.0
C3105 C 0.01667 0.34206 0.96854 0.0
C3106 C 1.00086 0.37338 0.98509 0.0
C3107 C 0.02326 0.39088 0.98775 0.0
C3108 C 0.04248 0.38316 0.98199 0.0
C3109 C 0.03889 0.35906 0.97213 0.0
C3110 C 0.97984 0.38075 0.99073 0.0
C3111 C 0.06675 0.40077 0.98516 0.0
C3112 C 0.03068 0.46016 0.98637 0.0
C3113 C 0.03521 0.46857 0.00868 0.0
C3114 C 0.02626 0.43486 0.97941 0.0
C3115 C 0.02655 0.4176 0.99513 0.0
C3116 C 0.03095 0.42617 0.01773 0.0
C3117 C 0.03518 0.4515 0.0242 0.0
C3118 C 0.02164 0.42665 0.95516 0.0
C3119 C 0.03154 0.40864 0.03508 0.0
H3120 H 0.9806 0.33622 0.97253 0.0
H3121 H 0.05342 0.35379 0.96629 0.0
H3122 H 0.98259 0.39006 0.00762 0.0
H3123 H 0.97697 0.39417 0.97935 0.0
H3124 H 0.96397 0.36462 0.9895 0.0
H3125 H 0.07998 0.39134 0.98178 0.0
H3126 H 0.06839 0.41567 0.97398 0.0
H3127 H 0.07053 0.4097 1.00222 0.0
H3128 H 0.03082 0.4734 0.97438 0.0
H3129 H 0.03881 0.45809 0.04148 0.0
H3130 H 1.00503 0.41157 0.95194 0.0
H3131 H 0.03548 0.41913 0.94967 0.0
H3132 H 0.02087 0.44203 0.94513 0.0
H3133 H 0.01446 0.39438 0.03458 0.0
H3134 H 0.03589 0.41832 0.05188 0.0
H3135 H 0.04449 0.39885 0.03176 0.0
C3136 C 0.03174 0.79133 0.18316 0.0
C3137 C 0.02826 0.79452 0.16079 0.0
C3138 C 0.01399 0.78949 0.19721 0.0
C3139 C 0.99225 0.79113 0.18878 0.0
C3140 C 0.98861 0.79433 0.16623 0.0
C3141 C 1.00658 0.79584 0.15251 0.0
C3142 C 0.01847 0.78571 0.22107 0.0
C3143 C 0.96577 0.79637 0.15662 0.0
C3144 C 0.93918 0.76739 0.22041 0.0
C3145 C 0.93732 0.78943 0.23078 0.0
C3146 C 0.95702 0.76759 0.20678 0.0
C3147 C 0.97354 0.79036 0.20363 0.0
C3148 C 0.97193 0.81259 0.21436 0.0
C3149 C 0.95381 0.81187 0.22769 0.0
C3150 C 0.95806 0.7435 0.19556 0.0
C3151 C 0.98935 0.83721 0.21173 0.0
H3152 H 0.0483 0.78995 0.1897 0.0
H3153 H 1.00366 0.79828 0.13527 0.0
H3154 H 0.01524 0.80066 0.23179 0.0
H3155 H 1.00637 0.76797 0.22496 0.0
H3156 H 0.03647 0.7854 0.22519 0.0
H3157 H 0.96557 0.79843 0.1387 0.0
H3158 H 0.95155 0.7797 0.15942 0.0
H3159 H 0.96208 0.81256 0.16499 0.0
H3160 H 0.92641 0.75001 0.22265 0.0
H3161 H 0.95269 0.82891 0.23595 0.0
H3162 H 0.97499 0.74063 0.2002 0.0
H3163 H 0.95661 0.74416 0.17748 0.0
H3164 H 0.94405 0.72737 0.19987 0.0
H3165 H 1.007 0.83683 0.21728 0.0
H3166 H 0.98571 0.85279 0.22123 0.0
H3167 H 0.98936 0.84078 0.19414 0.0
C3168 C 0.54708 0.3593 0.1151 0.0
C3169 C 0.5494 0.35872 0.13841 0.0
C3170 C 0.54923 0.38142 0.10382 0.0
C3171 C 0.55315 0.40532 0.1153 0.0
C3172 C 0.55547 0.40513 0.13892 0.0
C3173 C 0.55382 0.38258 0.14988 0.0
C3174 C 0.54696 0.37897 0.07906 0.0
C3175 C 0.55916 0.429 0.15291 0.0
C3176 C 0.57586 0.46618 0.08251 0.0
C3177 C 0.55603 0.47381 0.07675 0.0
C3178 C 0.57534 0.44523 0.09524 0.0
C3179 C 0.55434 0.42963 0.10258 0.0
C3180 C 0.53425 0.43712 0.09655 0.0
C3181 C 0.53539 0.45862 0.08444 0.0
C3182 C 0.59774 0.4398 0.10097 0.0
C3183 C 0.51102 0.42199 0.10267 0.0
H3184 H 0.54333 0.34188 0.10518 0.0
H3185 H 0.55519 0.38368 0.16766 0.0
H3186 H 0.53194 0.38477 0.07289 0.0
H3187 H 0.56261 0.39143 0.07291 0.0
H3188 H 0.54466 0.35976 0.07208 0.0
H3189 H 0.56239 0.42701 0.17065 0.0
H3190 H 0.574 0.4436 0.14773 0.0
H3191 H 0.54361 0.43536 0.15054 0.0
H3192 H 0.59222 0.47695 0.07729 0.0
H3193 H 0.51958 0.46323 0.08051 0.0
H3194 H 0.59689 0.42127 0.0933 0.0
H3195 H 0.60046 0.43937 0.11902 0.0
H3196 H 0.61286 0.45376 0.09542 0.0
H3197 H 0.50692 0.40274 0.09506 0.0
H3198 H 0.4969 0.42964 0.09728 0.0
H3199 H 0.51152 0.42113 0.12074 0.0
C3200 C 0.97918 0.26827 0.34775 0.0
C3201 C 0.98872 0.28026 0.36895 0.0
C3202 C 0.95684 0.26836 0.33738 0.0
C3203 C 0.94246 0.28146 0.34741 0.0
C3204 C 0.95247 0.29429 0.36845 0.0
C3205 C 0.97432 0.29295 0.37886 0.0
C3206 C 0.94884 0.25415 0.31522 0.0
C3207 C 0.94012 0.31016 0.38011 0.0
C3208 C 0.89265 0.2996 0.31116 0.0
C3209 C 0.87104 0.28339 0.31591 0.0
C3210 C 0.91503 0.29896 0.3207 0.0
C3211 C 0.91761 0.28191 0.33632 0.0
C3212 C 0.89582 0.26537 0.34114 0.0
C3213 C 0.87356 0.26621 0.33117 0.0
C3214 C 0.9363 0.31678 0.31366 0.0
C3215 C 0.89595 0.24604 0.35676 0.0
H3216 H 0.98902 0.25802 0.33921 0.0
H3217 H 0.98044 0.30255 0.395 0.0
H3218 H 0.92969 0.24664 0.3128 0.0
H3219 H 0.95473 0.26672 0.30225 0.0
H3220 H 0.95635 0.23861 0.31301 0.0
H3221 H 0.95024 0.32048 0.39536 0.0
H3222 H 0.93674 0.32365 0.36902 0.0
H3223 H 0.92311 0.29847 0.38438 0.0
H3224 H 0.89221 0.31307 0.29956 0.0
H3225 H 0.85788 0.25313 0.33555 0.0
H3226 H 0.94595 0.30618 0.30449 0.0
H3227 H 0.94743 0.32689 0.32839 0.0
H3228 H 0.93232 0.33032 0.30298 0.0
H3229 H 0.90496 0.23325 0.34978 0.0
H3230 H 0.87821 0.23514 0.35998 0.0
H3231 H 0.90572 0.25487 0.37261 0.0
C3232 C 0.03479 0.7082 0.62409 0.0
C3233 C 0.04523 0.71737 0.64567 0.0
C3234 C 0.036 0.68534 0.61288 0.0
C3235 C 0.04854 0.67024 0.62256 0.0
C3236 C 0.05943 0.6796 0.64422 0.0
C3237 C 0.05745 0.70222 0.65529 0.0
C3238 C 0.02348 0.67721 0.59034 0.0
C3239 C 0.074 0.66597 0.65568 0.0
C3240 C 0.0371 0.59888 0.60108 0.0
C3241 C 0.05361 0.59888 0.58564 0.0
C3242 C 0.03523 0.62124 0.61277 0.0
C3243 C 0.05053 0.64538 0.61007 0.0
C3244 C 0.06764 0.64532 0.59499 0.0
C3245 C 0.06867 0.62283 0.58305 0.0
C3246 C 0.01628 0.61897 0.6279 0.0
C3247 C 0.08523 0.66936 0.59126 0.0
H3248 H 0.02535 0.71898 0.61576 0.0
H3249 H 0.06618 0.7084 0.67157 0.0
H3250 H 0.03591 0.67555 0.57828 0.0
H3251 H 0.01073 0.65864 0.59042 0.0
H3252 H 0.01427 0.69028 0.58474 0.0
H3253 H 0.08138 0.67495 0.6723 0.0
H3254 H 0.06352 0.64665 0.65724 0.0
H3255 H 0.08842 0.66513 0.64569 0.0
H3256 H 0.025 0.58123 0.60371 0.0
H3257 H 0.08173 0.62411 0.57157 0.0
H3258 H 1.00511 0.63028 0.6226 0.0
H3259 H 0.02387 0.6263 0.64484 0.0
H3260 H 1.00534 0.59952 0.62821 0.0
H3261 H 0.07666 0.68072 0.58183 0.0
H3262 H 0.09948 0.6664 0.58199 0.0
H3263 H 0.09279 0.68011 0.60719 0.0
C3264 C 0.64109 0.80702 0.87359 0.0
C3265 C 0.61844 0.79119 0.86584 0.0
C3266 C 0.66255 0.80695 0.86368 0.0
C3267 C 0.66319 0.79106 0.84439 0.0
C3268 C 0.64034 0.77525 0.83636 0.0
C3269 C 0.61922 0.77553 0.84672 0.0
C3270 C 0.685 0.82456 0.87407 0.0
C3271 C 0.63788 0.75771 0.81618 0.0
C3272 C 0.71898 0.8085 0.80752 0.0
C3273 C 0.73175 0.79137 0.81138 0.0
C3274 C 0.69733 0.80817 0.81719 0.0
C3275 C 0.68699 0.79114 0.83286 0.0
C3276 C 0.70009 0.77414 0.83715 0.0
C3277 C 0.72112 0.77415 0.82648 0.0
C3278 C 0.68518 0.82635 0.81012 0.0
C3279 C 0.69207 0.75578 0.85374 0.0
H3280 H 0.6422 0.82012 0.88761 0.0
H3281 H 0.60281 0.76329 0.83932 0.0
H3282 H 0.69811 0.81464 0.87653 0.0
H3283 H 0.69178 0.83912 0.86294 0.0
H3284 H 0.68294 0.83362 0.89013 0.0
H3285 H 0.61961 0.75008 0.80915 0.0
H3286 H 0.64852 0.7671 0.8034 0.0
H3287 H 0.64423 0.74205 0.82052 0.0
H3288 H 0.72571 0.82227 0.79628 0.0
H3289 H 0.72976 0.76064 0.83064 0.0
H3290 H 0.68686 0.84071 0.82383 0.0
H3291 H 0.66643 0.81685 0.80597 0.0
H3292 H 0.69248 0.8356 0.79566 0.0
H3293 H 0.69062 0.76568 0.86959 0.0
H3294 H 0.704 0.74454 0.8566 0.0
H3295 H 0.67461 0.74317 0.84806 0.0
C3296 C 0.44383 0.52874 0.65688 0.0
C3297 C 0.4548 0.52551 0.67676 0.0
C3298 C 0.45588 0.53166 0.63791 0.0
C3299 C 0.47904 0.53083 0.63911 0.0
C3300 C 0.48947 0.52585 0.65886 0.0
C3301 C 0.47725 0.52345 0.67747 0.0
C3302 C 0.44435 0.53672 0.61691 0.0
C3303 C 0.51398 0.52436 0.66072 0.0
C3304 C 0.51223 0.52439 0.59031 0.0
C3305 C 0.52546 0.5489 0.58916 0.0
C3306 C 0.49567 0.51836 0.60548 0.0
C3307 C 0.49331 0.53727 0.62052 0.0
C3308 C 0.507 0.56211 0.6196 0.0
C3309 C 0.52294 0.56764 0.60378 0.0
C3310 C 0.48159 0.49166 0.60611 0.0
C3311 C 0.50554 0.58261 0.63592 0.0
H3312 H 0.42639 0.53016 0.65643 0.0
H3313 H 0.48548 0.5204 0.69284 0.0
H3314 H 0.45323 0.55576 0.61287 0.0
H3315 H 0.44591 0.52384 0.60305 0.0
H3316 H 0.42575 0.53485 0.61817 0.0
H3317 H 0.51863 0.51805 0.67668 0.0
H3318 H 0.51641 0.51149 0.64731 0.0
H3319 H 0.52625 0.54285 0.65908 0.0
H3320 H 0.51559 0.5098 0.58003 0.0
H3321 H 0.5337 0.58652 0.60304 0.0
H3322 H 0.463 0.49011 0.60679 0.0
H3323 H 0.48723 0.48435 0.62113 0.0
H3324 H 0.48348 0.47984 0.59157 0.0
H3325 H 0.48735 0.58286 0.63616 0.0
H3326 H 0.51641 0.60108 0.63214 0.0
H3327 H 0.51135 0.57926 0.65267 0.0
C3328 C 0.79908 0.18927 0.99966 0.0
C3329 C 0.78243 0.16641 1.00079 0.0
C3330 C 0.79756 0.20346 0.98203 0.0
C3331 C 0.77809 0.19528 0.96631 0.0
C3332 C 0.76097 0.17263 0.96785 0.0
C3333 C 0.76415 0.15786 0.98421 0.0
C3334 C 0.81691 0.22677 0.9799 0.0
C3335 C 0.73926 0.16372 0.9522 0.0
C3336 C 0.76195 0.2389 0.92884 0.0
C3337 C 0.7685 0.23094 0.9088 0.0
C3338 C 0.7655 0.22788 0.94801 0.0
C3339 C 0.77631 0.20895 0.94703 0.0
C3340 C 0.78304 0.20094 0.92688 0.0
C3341 C 0.7786 0.21168 0.90792 0.0
C3342 C 0.75702 0.23587 0.96907 0.0
C3343 C 0.79461 0.18074 0.92525 0.0
H3344 H 0.81341 0.19579 0.01227 0.0
H3345 H 0.75175 0.13979 0.9842 0.0
H3346 H 0.82449 0.22514 0.96406 0.0
H3347 H 0.81012 0.24288 0.97969 0.0
H3348 H 0.83086 0.2305 0.99349 0.0
H3349 H 0.72544 0.14928 0.95901 0.0
H3350 H 0.73237 0.17921 0.94848 0.0
H3351 H 0.74323 0.15563 0.93651 0.0
H3352 H 0.75428 0.25388 0.92959 0.0
H3353 H 0.78315 0.20504 0.89235 0.0
H3354 H 0.77133 0.24154 0.98235 0.0
H3355 H 0.74344 0.22006 0.97441 0.0
H3356 H 0.74972 0.25149 0.96719 0.0
H3357 H 0.80873 0.18405 0.93859 0.0
H3358 H 0.80189 0.17939 0.9092 0.0
H3359 H 0.78185 0.16264 0.92717 0.0
C3360 C 0.10796 0.52462 0.18724 0.0
C3361 C 0.13208 0.53375 0.19078 0.0
C3362 C 0.09654 0.52691 0.16746 0.0
C3363 C 0.10966 0.53823 0.1507 0.0
C3364 C 0.13406 0.54732 0.15395 0.0
C3365 C 0.14509 0.54499 0.17413 0.0
C3366 C 0.07041 0.51704 0.16446 0.0
C3367 C 0.14836 0.5596 0.13625 0.0
C3368 C 0.07716 0.51389 0.09615 0.0
C3369 C 0.06578 0.5316 0.09276 0.0
C3370 C 0.093 0.51682 0.1143 0.0
C3371 C 0.09753 0.5381 0.1292 0.0
C3372 C 0.08702 0.55679 0.12517 0.0
C3373 C 0.07082 0.5531 0.10699 0.0
C3374 C 0.10383 0.49647 0.11814 0.0
C3375 C 0.09212 0.5801 0.14043 0.0
H3376 H 0.09783 0.5161 0.20015 0.0
H3377 H 0.16375 0.55236 0.17701 0.0
H3378 H 0.06301 0.53197 0.16011 0.0
H3379 H 0.06497 0.50219 0.15074 0.0
H3380 H 0.06285 0.50943 0.17947 0.0
H3381 H 0.16716 0.56605 0.14161 0.0
H3382 H 0.14547 0.54653 0.12131 0.0
H3383 H 0.14286 0.57567 0.13152 0.0
H3384 H 0.0734 0.49752 0.08467 0.0
H3385 H 0.06247 0.56711 0.1037 0.0
H3386 H 0.09679 0.48693 0.13255 0.0
H3387 H 0.12283 0.50427 0.12186 0.0
H3388 H 0.10035 0.48252 0.10374 0.0
H3389 H 0.08157 0.57623 0.15463 0.0
H3390 H 0.0878 0.59516 0.13207 0.0
H3391 H 0.1106 0.58667 0.1469 0.0
C3392 C 0.78197 0.83515 0.45845 0.0
C3393 C 0.8017 0.83817 0.47308 0.0
C3394 C 0.78125 0.82777 0.43569 0.0
C3395 C 0.80094 0.82362 0.42666 0.0
C3396 C 0.82066 0.82578 0.44149 0.0
C3397 C 0.82082 0.83304 0.46425 0.0
C3398 C 0.75967 0.82572 0.42106 0.0
C3399 C 0.84231 0.82206 0.43309 0.0
C3400 C 0.79534 0.78928 0.36846 0.0
C3401 C 0.80125 0.80867 0.3547 0.0
C3402 C 0.79487 0.79376 0.39155 0.0
C3403 C 0.80129 0.81838 0.40175 0.0
C3404 C 0.80775 0.83804 0.3879 0.0
C3405 C 0.80718 0.83299 0.36474 0.0
C3406 C 0.78708 0.77203 0.40505 0.0
C3407 C 0.81535 0.86461 0.39756 0.0
H3408 H 0.76743 0.84011 0.46461 0.0
H3409 H 0.83662 0.83641 0.4749 0.0
H3410 H 0.76332 0.84069 0.40985 0.0
H3411 H 0.75421 0.80785 0.41069 0.0
H3412 H 0.74511 0.82715 0.43062 0.0
H3413 H 0.85545 0.82223 0.44664 0.0
H3414 H 0.83813 0.80425 0.42275 0.0
H3415 H 0.84999 0.83701 0.42258 0.0
H3416 H 0.79048 0.77042 0.36107 0.0
H3417 H 0.81185 0.8482 0.35446 0.0
H3418 H 0.77187 0.77327 0.41365 0.0
H3419 H 0.80102 0.77243 0.41784 0.0
H3420 H 0.78233 0.75404 0.39486 0.0
H3421 H 0.80048 0.86926 0.40433 0.0
H3422 H 0.82221 0.87769 0.38519 0.0
H3423 H 0.82893 0.86737 0.41134 0.0
C3424 C 0.47908 0.53193 0.79778 0.0
C3425 C 0.45857 0.53821 0.79995 0.0
C3426 C 0.49322 0.53053 0.81631 0.0
C3427 C 0.48695 0.53612 0.83742 0.0
C3428 C 0.4675 0.54476 0.83961 0.0
C3429 C 0.45335 0.54544 0.8208 0.0
C3430 C 0.51355 0.52078 0.81327 0.0
C3431 C 0.46063 0.55147 0.86189 0.0
C3432 C 0.50012 0.50046 0.88393 0.0
C3433 C 0.5194 0.51777 0.89549 0.0
C3434 C 0.48973 0.50609 0.86471 0.0
C3435 C 0.49871 0.52975 0.8571 0.0
C3436 C 0.51842 0.54718 0.86849 0.0
C3437 C 0.52868 0.5409 0.88754 0.0
C3438 C 0.46897 0.48682 0.85272 0.0
C3439 C 0.52832 0.57257 0.86081 0.0
H3440 H 0.48318 0.52618 0.7817 0.0
H3441 H 0.43761 0.55049 0.82251 0.0
H3442 H 0.5289 0.5316 0.82433 0.0
H3443 H 0.50903 0.50135 0.81754 0.0
H3444 H 0.51831 0.52118 0.79605 0.0
H3445 H 0.44714 0.56108 0.86067 0.0
H3446 H 0.45374 0.53441 0.87025 0.0
H3447 H 0.47591 0.56355 0.87236 0.0
H3448 H 0.49312 0.4825 0.89002 0.0
H3449 H 0.5435 0.55434 0.89663 0.0
H3450 H 0.47222 0.4833 0.83536 0.0
H3451 H 0.45363 0.49368 0.85257 0.0
H3452 H 0.46473 0.46902 0.86038 0.0
H3453 H 0.53329 0.57095 0.84379 0.0
H3454 H 0.54374 0.58399 0.87154 0.0
H3455 H 0.51499 0.5824 0.8605 0.0
C3456 C 0.81561 0.21262 0.12694 0.0
C3457 C 0.80677 0.18678 0.12568 0.0
C3458 C 0.81577 0.22705 0.14644 0.0
C3459 C 0.80726 0.21527 0.16511 0.0
C3460 C 0.79846 0.1892 0.16403 0.0
C3461 C 0.79832 0.17523 0.14428 0.0
C3462 C 0.82461 0.25489 0.14697 0.0
C3463 C 0.78879 0.17614 0.1836 0.0
C3464 C 0.82917 0.24936 0.22103 0.0
C3465 C 0.81034 0.25723 0.22627 0.0
C3466 C 0.82838 0.23571 0.20098 0.0
C3467 C 0.80834 0.23019 0.18605 0.0
C3468 C 0.78936 0.23851 0.19133 0.0
C3469 C 0.79061 0.25197 0.21156 0.0
C3470 C 0.84866 0.2266 0.19603 0.0
C3471 C 0.76774 0.23317 0.1758 0.0
H3472 H 0.82163 0.22166 0.11247 0.0
H3473 H 0.79108 0.15527 0.14327 0.0
H3474 H 0.81088 0.26305 0.15163 0.0
H3475 H 0.83947 0.26222 0.15961 0.0
H3476 H 0.83019 0.26119 0.13087 0.0
H3477 H 0.78246 0.15572 0.17998 0.0
H3478 H 0.80226 0.18073 0.19767 0.0
H3479 H 0.77423 0.18259 0.18886 0.0
H3480 H 0.84415 0.25324 0.23289 0.0
H3481 H 0.77605 0.25808 0.21608 0.0
H3482 H 0.85516 0.23309 0.18029 0.0
H3483 H 0.84303 0.20608 0.19409 0.0
H3484 H 0.86312 0.23302 0.2092 0.0
H3485 H 0.77167 0.24423 0.16151 0.0
H3486 H 0.75346 0.23787 0.18379 0.0
H3487 H 0.76163 0.21339 0.16942 0.0
C3488 C 0.14355 0.54192 0.33515 0.0
C3489 C 0.13518 0.53325 0.31339 0.0
C3490 C 0.12832 0.54219 0.35114 0.0
C3491 C 0.1042 0.53279 0.34523 0.0
C3492 C 0.0956 0.52289 0.32355 0.0
C3493 C 0.11128 0.52337 0.30775 0.0
C3494 C 0.13808 0.5534 0.37413 0.0
C3495 C 0.06995 0.51259 0.31697 0.0
C3496 C 0.0757 0.52104 0.39704 0.0
C3497 C 0.07281 0.54426 0.40229 0.0
C3498 C 0.08348 0.51572 0.37691 0.0
C3499 C 0.08833 0.53412 0.362 0.0
C3500 C 0.08259 0.5563 0.3661 0.0
C3501 C 0.07486 0.56115 0.38638 0.0
C3502 C 0.08923 0.49176 0.37284 0.0
C3503 C 0.08754 0.57636 0.3505 0.0
H3504 H 0.162 0.54963 0.33955 0.0
H3505 H 0.1048 0.51653 0.29089 0.0
H3506 H 0.13141 0.56909 0.37871 0.0
H3507 H 0.13248 0.53947 0.3861 0.0
H3508 H 0.1573 0.56029 0.37575 0.0
H3509 H 0.06618 0.50478 0.29954 0.0
H3510 H 0.06193 0.4979 0.32759 0.0
H3511 H 0.06156 0.52736 0.31939 0.0
H3512 H 0.07349 0.50778 0.40929 0.0
H3513 H 0.07252 0.57909 0.39047 0.0
H3514 H 0.10821 0.49535 0.37589 0.0
H3515 H 0.08416 0.48398 0.35551 0.0
H3516 H 0.08054 0.47777 0.38383 0.0
H3517 H 0.10613 0.5872 0.35311 0.0
H3518 H 0.07715 0.58927 0.35338 0.0
H3519 H 0.08393 0.56847 0.33313 0.0
C3520 C 0.78309 0.82833 0.61205 0.0
C3521 C 0.80077 0.84905 0.60677 0.0
C3522 C 0.78082 0.8215 0.63405 0.0
C3523 C 0.79713 0.83488 0.65173 0.0
C3524 C 0.81535 0.85545 0.64634 0.0
C3525 C 0.81661 0.86251 0.62437 0.0
C3526 C 0.76069 0.7999 0.63837 0.0
C3527 C 0.83413 0.86966 0.66375 0.0
C3528 C 0.78436 0.83187 0.71368 0.0
C3529 C 0.79302 0.81281 0.7205 0.0
C3530 C 0.78495 0.83862 0.69155 0.0
C3531 C 0.79553 0.82713 0.67554 0.0
C3532 C 0.80481 0.8083 0.6826 0.0
C3533 C 0.80295 0.8011 0.70446 0.0
C3534 C 0.77384 0.85797 0.6852 0.0
C3535 C 0.81705 0.7957 0.66713 0.0
H3536 H 0.77061 0.81761 0.59893 0.0
H3537 H 0.8306 0.87831 0.62084 0.0
H3538 H 0.76709 0.78458 0.64356 0.0
H3539 H 0.75145 0.80533 0.65198 0.0
H3540 H 0.7482 0.7929 0.62363 0.0
H3541 H 0.8474 0.88481 0.65715 0.0
H3542 H 0.82655 0.87771 0.67727 0.0
H3543 H 0.84276 0.85688 0.67096 0.0
H3544 H 0.77662 0.84124 0.72557 0.0
H3545 H 0.81005 0.78659 0.70921 0.0
H3546 H 0.76116 0.85061 0.67065 0.0
H3547 H 0.78716 0.87441 0.68051 0.0
H3548 H 0.76484 0.86395 0.69875 0.0
H3549 H 0.80408 0.78198 0.65546 0.0
H3550 H 0.82765 0.78582 0.67604 0.0
H3551 H 0.82848 0.80927 0.65738 0.0
C3552 C 0.77309 0.47187 0.52922 0.0
C3553 C 0.76737 0.45922 0.50827 0.0
C3554 C 0.75858 0.48431 0.53824 0.0
C3555 C 0.73755 0.48319 0.5262 0.0
C3556 C 0.73123 0.46928 0.50543 0.0
C3557 C 0.74653 0.45782 0.49647 0.0
C3558 C 0.76623 0.49935 0.56017 0.0
C3559 C 0.70878 0.46743 0.49228 0.0
C3560 C 0.6892 0.50099 0.55238 0.0
C3561 C 0.69188 0.52431 0.54486 0.0
C3562 C 0.70469 0.48773 0.54734 0.0
C3563 C 0.72293 0.49809 0.5343 0.0
C3564 C 0.72621 0.52216 0.52753 0.0
C3565 C 0.71054 0.53499 0.53289 0.0
C3566 C 0.7011 0.46235 0.55519 0.0
C3567 C 0.74577 0.53398 0.51398 0.0
H3568 H 0.7896 0.47322 0.53799 0.0
H3569 H 0.7425 0.44825 0.48011 0.0
H3570 H 0.76434 0.51812 0.55938 0.0
H3571 H 0.75513 0.49025 0.57274 0.0
H3572 H 0.78453 0.50125 0.56569 0.0
H3573 H 0.70576 0.4545 0.47719 0.0
H3574 H 0.69405 0.46103 0.50245 0.0
H3575 H 0.70898 0.48596 0.48741 0.0
H3576 H 0.67466 0.49292 0.56169 0.0
H3577 H 0.71242 0.55308 0.52715 0.0
H3578 H 0.71719 0.46141 0.56428 0.0
H3579 H 0.69713 0.44828 0.54087 0.0
H3580 H 0.68678 0.45744 0.56607 0.0
H3581 H 0.76253 0.53374 0.52219 0.0
H3582 H 0.74676 0.5534 0.51129 0.0
H3583 H 0.74338 0.52323 0.49773 0.0
C3584 C 0.21015 0.16292 0.51036 0.0
C3585 C 0.2308 0.16346 0.52226 0.0
C3586 C 0.18924 0.14442 0.51281 0.0
C3587 C 0.18872 0.12674 0.52831 0.0
C3588 C 0.20971 0.1272 0.54018 0.0
C3589 C 0.23045 0.14527 0.53676 0.0
C3590 C 0.16758 0.14406 0.49908 0.0
C3591 C 0.21022 0.10915 0.55708 0.0
C3592 C 0.13096 0.09975 0.55258 0.0
C3593 C 0.12244 0.07605 0.54127 0.0
C3594 C 0.15257 0.11611 0.54882 0.0
C3595 C 0.16609 0.10889 0.53314 0.0
C3596 C 0.15781 0.08475 0.52215 0.0
C3597 C 0.13625 0.06865 0.52638 0.0
C3598 C 0.16083 0.14131 0.56147 0.0
C3599 C 0.17136 0.07613 0.50536 0.0
H3600 H 0.21038 0.17693 0.49912 0.0
H3601 H 0.24639 0.14578 0.54615 0.0
H3602 H 0.15912 0.12526 0.49081 0.0
H3603 H 0.1551 0.14864 0.50982 0.0
H3604 H 0.1712 0.15745 0.48639 0.0
H3605 H 0.22759 0.11318 0.5661 0.0
H3606 H 0.19745 0.10964 0.56915 0.0
H3607 H 0.20532 0.09008 0.54896 0.0
H3608 H 0.12053 0.10574 0.56419 0.0
H3609 H 0.12986 0.05052 0.5174 0.0
H3610 H 0.16248 0.15589 0.54996 0.0
H3611 H 0.17822 0.1442 0.57004 0.0
H3612 H 0.14886 0.14374 0.57381 0.0
H3613 H 0.17291 0.08796 0.49152 0.0
H3614 H 0.16314 0.05655 0.49882 0.0
H3615 H 0.18898 0.07806 0.5128 0.0
C3616 C 0.23157 0.99985 0.84668 0.0
C3617 C 0.21376 0.00652 0.8355 0.0
C3618 C 0.24027 0.98168 0.83715 0.0
C3619 C 0.23108 0.97019 0.81591 0.0
C3620 C 0.21251 0.9761 0.80492 0.0
C3621 C 0.20393 0.99403 0.81494 0.0
C3622 C 0.2599 0.97544 0.84946 0.0
C3623 C 0.20222 0.96415 0.78229 0.0
C3624 C 0.27384 0.94735 0.78513 0.0
C3625 C 0.2674 0.92241 0.78929 0.0
C3626 C 0.26129 0.96289 0.79271 0.0
C3627 C 0.24198 0.95317 0.80473 0.0
C3628 C 0.23437 0.92761 0.80748 0.0
C3629 C 0.24719 0.91249 0.79967 0.0
C3630 C 0.26949 0.99 0.78897 0.0
C3631 C 0.21365 0.9165 0.81991 0.0
H3632 H 0.23916 0.00927 0.86259 0.0
H3633 H 0.18997 0.99881 0.80619 0.0
H3634 H 0.25556 0.95515 0.85032 0.0
H3635 H 0.27569 0.98128 0.84054 0.0
H3636 H 0.26392 0.98467 0.86643 0.0
H3637 H 0.1882 0.97135 0.77576 0.0
H3638 H 0.21587 0.9674 0.77066 0.0
H3639 H 0.19508 0.94385 0.78274 0.0
H3640 H 0.28943 0.95503 0.77708 0.0
H3641 H 0.24192 0.89303 0.80245 0.0
H3642 H 0.27645 1.00112 0.80485 0.0
H3643 H 0.25484 0.99612 0.78233 0.0
H3644 H 0.28324 0.99408 0.77742 0.0
H3645 H 0.21819 0.92229 0.83771 0.0
H3646 H 0.20791 0.89596 0.81761 0.0
H3647 H 0.19892 0.92325 0.81467 0.0
C3648 C 0.38335 0.97846 0.01237 0.0
C3649 C 0.37715 0.95298 0.00683 0.0
C3650 C 0.40584 0.99156 0.01983 0.0
C3651 C 0.42173 0.97826 0.02387 0.0
C3652 C 0.41471 0.95224 0.02202 0.0
C3653 C 0.39259 0.93974 0.01237 0.0
C3654 C 0.41269 0.01955 0.02247 0.0
C3655 C 0.43054 0.93788 0.02989 0.0
C3656 C 0.47944 0.01106 0.00662 0.0
C3657 C 0.48897 0.02631 0.02572 0.0
C3658 C 0.45773 0.99386 0.00624 0.0
C3659 C 0.44603 0.99181 0.02565 0.0
C3660 C 0.45594 0.00668 0.04514 0.0
C3661 C 0.47686 0.02469 0.0446 0.0
C3662 C 0.44767 0.97774 0.98519 0.0
C3663 C 0.44505 1.00329 0.06673 0.0
H3664 H 0.37065 0.98826 0.01109 0.0
H3665 H 0.38724 0.91972 0.00981 0.0
H3666 H 0.42025 0.0267 0.03943 0.0
H3667 H 0.42598 0.02728 0.01111 0.0
H3668 H 0.39776 0.02667 0.01915 0.0
H3669 H 0.4205 0.91919 0.03397 0.0
H3670 H 0.44173 0.93554 0.01684 0.0
H3671 H 0.44189 0.94784 0.04466 0.0
H3672 H 0.48916 0.01199 0.99229 0.0
H3673 H 0.48441 0.03645 0.05954 0.0
H3674 H 0.42889 0.97513 0.98219 0.0
H3675 H 0.45004 0.95925 0.98649 0.0
H3676 H 0.45633 0.98558 0.97073 0.0
H3677 H 0.42588 0.99721 0.06459 0.0
H3678 H 0.45096 0.02055 0.07798 0.0
H3679 H 0.45047 0.98876 0.07489 0.0
C3680 C 0.89055 0.60433 0.83568 0.0
C3681 C 0.90977 0.59866 0.82805 0.0
C3682 C 0.88039 0.61969 0.82448 0.0
C3683 C 0.88954 0.6292 0.80507 0.0
C3684 C 0.90948 0.62438 0.79777 0.0
C3685 C 0.91959 0.60943 0.80957 0.0
C3686 C 0.85922 0.62477 0.83285 0.0
C3687 C 0.91949 0.63402 0.77701 0.0
C3688 C 0.84292 0.64285 0.76939 0.0
C3689 C 0.84677 0.66783 0.77622 0.0
C3690 C 0.85817 0.63035 0.7771 0.0
C3691 C 0.87737 0.64326 0.79208 0.0
C3692 C 0.88263 0.66904 0.7971 0.0
C3693 C 0.8673 0.68112 0.78889 0.0
C3694 C 0.85255 0.60292 0.77084 0.0
C3695 C 0.90305 0.68339 0.8129 0.0
H3696 H 0.88294 0.59606 0.84994 0.0
H3697 H 0.9344 0.60501 0.80345 0.0
H3698 H 0.86163 0.64497 0.83453 0.0
H3699 H 0.84398 0.61609 0.82089 0.0
H3700 H 0.85535 0.61744 0.849 0.0
H3701 H 0.93405 0.62696 0.77274 0.0
H3702 H 0.90591 0.62863 0.76302 0.0
H3703 H 0.92586 0.65451 0.77899 0.0
H3704 H 0.82714 0.63264 0.75943 0.0
H3705 H 0.87055 0.70067 0.79365 0.0
H3706 H 0.84545 0.59262 0.78486 0.0
H3707 H 0.86839 0.59803 0.7671 0.0
H3708 H 0.83957 0.59665 0.75638 0.0
H3709 H 0.89932 0.67875 0.82986 0.0
H3710 H 0.90673 0.70369 0.81239 0.0
H3711 H 0.9188 0.6783 0.80927 0.0
C3712 C 0.84784 0.66823 0.0537 0.0
C3713 C 0.84807 0.68152 0.03518 0.0
C3714 C 0.86416 0.65539 0.05764 0.0
C3715 C 0.88134 0.65617 0.04283 0.0
C3716 C 0.88247 0.67093 0.0249 0.0
C3717 C 0.86561 0.68307 0.0211 0.0
C3718 C 0.86199 0.63961 0.07673 0.0
C3719 C 0.90056 0.67253 0.00882 0.0
C3720 C 0.93357 0.63302 0.05549 0.0
C3721 C 0.92681 0.61003 0.04307 0.0
C3722 C 0.91864 0.64791 0.05635 0.0
C3723 C 0.89648 0.63957 0.04447 0.0
C3724 C 0.88935 0.61583 0.03265 0.0
C3725 C 0.90464 0.60144 0.03202 0.0
C3726 C 0.92689 0.67291 0.0693 0.0
C3727 C 0.8658 0.60591 0.02004 0.0
H3728 H 0.83381 0.66634 0.0642 0.0
H3729 H 0.86542 0.69276 0.00644 0.0
H3730 H 0.85783 0.61985 0.07052 0.0
H3731 H 0.87867 0.64454 0.08705 0.0
H3732 H 0.84827 0.6417 0.08718 0.0
H3733 H 0.9007 0.68674 0.99718 0.0
H3734 H 0.91801 0.67698 0.01771 0.0
H3735 H 0.89713 0.65435 0.99922 0.0
H3736 H 0.95074 0.63959 0.06406 0.0
H3737 H 0.89946 0.5836 0.02249 0.0
H3738 H 0.91402 0.67486 0.08079 0.0
H3739 H 0.92865 0.68764 0.05794 0.0
H3740 H 0.94384 0.67595 0.07886 0.0
H3741 H 0.85207 0.60687 0.03087 0.0
H3742 H 0.86225 0.58645 0.01309 0.0
H3743 H 0.86464 0.61747 0.00636 0.0
C3744 C 0.1871 0.13764 0.83937 0.0
C3745 C 0.20043 0.12574 0.85167 0.0
C3746 C 0.19776 0.15854 0.82868 0.0
C3747 C 0.222 0.16898 0.83209 0.0
C3748 C 0.23506 0.15906 0.84674 0.0
C3749 C 0.22421 0.1369 0.85522 0.0
C3750 C 0.1835 0.16763 0.81197 0.0
C3751 C 0.26092 0.17007 0.85187 0.0
C3752 C 0.26155 0.19921 0.7908 0.0
C3753 C 0.26634 0.22404 0.79831 0.0
C3754 C 0.24514 0.18104 0.80035 0.0
C3755 C 0.23437 0.1881 0.81847 0.0
C3756 C 0.23876 0.21331 0.82569 0.0
C3757 C 0.25435 0.23115 0.81503 0.0
C3758 C 0.24068 0.15424 0.79213 0.0
C3759 C 0.22872 0.22114 0.84591 0.0
H3760 H 0.16857 0.12925 0.83606 0.0
H3761 H 0.23477 0.12741 0.86287 0.0
H3762 H 0.18775 0.18805 0.81405 0.0
H3763 H 0.18765 0.1626 0.79523 0.0
H3764 H 0.16462 0.15934 0.81298 0.0
H3765 H 0.26993 0.15966 0.84157 0.0
H3766 H 0.26724 0.18992 0.84899 0.0
H3767 H 0.26583 0.16826 0.8693 0.0
H3768 H 0.27101 0.19399 0.77783 0.0
H3769 H 0.25837 0.25048 0.82079 0.0
H3770 H 0.22196 0.14403 0.79145 0.0
H3771 H 0.25005 0.1454 0.80359 0.0
H3772 H 0.24673 0.15228 0.77556 0.0
H3773 H 0.20956 0.21477 0.84354 0.0
H3774 H 0.23452 0.24147 0.84995 0.0
H3775 H 0.23395 0.21242 0.86026 0.0
C3776 C 0.42224 0.95937 0.32849 0.0
C3777 C 0.41225 0.97857 0.32729 0.0
C3778 C 0.40966 0.93526 0.32025 0.0
C3779 C 0.3865 0.93052 0.31151 0.0
C3780 C 0.37652 0.94991 0.30993 0.0
C3781 C 0.38989 0.97388 0.31715 0.0
C3782 C 0.42096 0.91492 0.32107 0.0
C3783 C 0.3516 0.94534 0.30115 0.0
C3784 C 0.35051 0.87234 0.27853 0.0
C3785 C 0.3392 0.859 0.2951 0.0
C3786 C 0.36706 0.89528 0.28375 0.0
C3787 C 0.37177 0.90509 0.30596 0.0
C3788 C 0.36064 0.8915 0.32275 0.0
C3789 C 0.3444 0.86857 0.31706 0.0
C3790 C 0.3798 0.90873 0.26566 0.0
C3791 C 0.36609 0.90036 0.34684 0.0
H3792 H 0.43998 0.96332 0.33544 0.0
H3793 H 0.38295 0.98902 0.31442 0.0
H3794 H 0.41398 0.90295 0.33414 0.0
H3795 H 0.41701 0.90311 0.30526 0.0
H3796 H 0.44005 0.92236 0.32458 0.0
H3797 H 0.34707 0.96279 0.29987 0.0
H3798 H 0.34804 0.93505 0.28467 0.0
H3799 H 0.33999 0.93378 0.31217 0.0
H3800 H 0.34684 0.86466 0.26152 0.0
H3801 H 0.33607 0.85801 0.32996 0.0
H3802 H 0.39868 0.91208 0.26926 0.0
H3803 H 0.37694 0.92706 0.26483 0.0
H3804 H 0.3743 0.89815 0.2493 0.0
H3805 H 0.37827 0.8912 0.35414 0.0
H3806 H 0.3502 0.89498 0.35568 0.0
H3807 H 0.37416 0.92058 0.34982 0.0
C3808 C 0.56873 0.37727 0.61634 0.0
C3809 C 0.58604 0.36774 0.60883 0.0
C3810 C 0.56498 0.39874 0.60842 0.0
C3811 C 0.57872 0.41114 0.59232 0.0
C3812 C 0.5966 0.40185 0.58503 0.0
C3813 C 0.59992 0.38026 0.59322 0.0
C3814 C 0.54562 0.40755 0.61668 0.0
C3815 C 0.61167 0.41418 0.56789 0.0
C3816 C 0.55259 0.45047 0.55552 0.0
C3817 C 0.56363 0.47479 0.56484 0.0
C3818 C 0.55756 0.42981 0.56401 0.0
C3819 C 0.57379 0.43319 0.58262 0.0
C3820 C 0.58491 0.45766 0.59215 0.0
C3821 C 0.57987 0.47801 0.58313 0.0
C3822 C 0.54539 0.40427 0.553 0.0
C3823 C 0.60203 0.46235 0.61213 0.0
H3824 H 0.55741 0.36725 0.62782 0.0
H3825 H 0.61279 0.37257 0.58676 0.0
H3826 H 0.55212 0.42751 0.62246 0.0
H3827 H 0.53199 0.40534 0.60307 0.0
H3828 H 0.53763 0.39711 0.63033 0.0
H3829 H 0.62542 0.40547 0.56458 0.0
H3830 H 0.60087 0.41313 0.55232 0.0
H3831 H 0.61995 0.43407 0.57326 0.0
H3832 H 0.54014 0.4475 0.54133 0.0
H3833 H 0.58852 0.49653 0.59067 0.0
H3834 H 0.53507 0.39264 0.5648 0.0
H3835 H 0.55832 0.39521 0.54776 0.0
H3836 H 0.53369 0.40467 0.5384 0.0
H3837 H 0.59334 0.45297 0.62596 0.0
H3838 H 0.60964 0.48238 0.6174 0.0
H3839 H 0.61624 0.45442 0.60868 0.0
C3840 C 0.44608 0.75669 0.38027 0.0
C3841 C 0.44652 0.76134 0.40313 0.0
C3842 C 0.42686 0.75662 0.36587 0.0
C3843 C 0.40661 0.75979 0.37441 0.0
C3844 C 0.40589 0.76124 0.39765 0.0
C3845 C 0.4259 0.76257 0.41167 0.0
C3846 C 0.42845 0.75336 0.34143 0.0
C3847 C 0.384 0.76155 0.40779 0.0
C3848 C 0.36832 0.79043 0.34083 0.0
C3849 C 0.35389 0.77069 0.32689 0.0
C3850 C 0.38441 0.7869 0.35702 0.0
C3851 C 0.38706 0.763 0.35908 0.0
C3852 C 0.37162 0.74271 0.34545 0.0
C3853 C 0.3553 0.74683 0.32965 0.0
C3854 C 0.39776 0.80926 0.37203 0.0
C3855 C 0.3715 0.71634 0.34743 0.0
H3856 H 0.46098 0.75323 0.37354 0.0
H3857 H 0.42544 0.76484 0.42933 0.0
H3858 H 0.41571 0.73582 0.33434 0.0
H3859 H 0.42432 0.76866 0.33334 0.0
H3860 H 0.44579 0.7526 0.33739 0.0
H3861 H 0.38404 0.75586 0.4248 0.0
H3862 H 0.38243 0.78054 0.40849 0.0
H3863 H 0.36856 0.74902 0.3978 0.0
H3864 H 0.36677 0.80882 0.33935 0.0
H3865 H 0.34376 0.73129 0.31929 0.0
H3866 H 0.41206 0.80623 0.38241 0.0
H3867 H 0.38579 0.81452 0.38299 0.0
H3868 H 0.40456 0.82511 0.36218 0.0
H3869 H 0.37621 0.70879 0.33181 0.0
H3870 H 0.35371 0.70479 0.34978 0.0
H3871 H 0.38341 0.71431 0.36118 0.0
C3872 C 0.09199 0.73475 0.09359 0.0
C3873 C 0.0817 0.73739 0.11309 0.0
C3874 C 0.09138 0.7112 0.08405 0.0
C3875 C 0.07956 0.68959 0.09388 0.0
C3876 C 0.0686 0.69228 0.11328 0.0
C3877 C 0.07028 0.71608 0.12289 0.0
C3878 C 0.10344 0.70966 0.06346 0.0
C3879 C 0.05488 0.66993 0.12382 0.0
C3880 C 0.0556 0.62794 0.0589 0.0
C3881 C 0.07054 0.61459 0.06564 0.0
C3882 C 0.0588 0.65232 0.06749 0.0
C3883 C 0.07742 0.66412 0.0834 0.0
C3884 C 0.09311 0.65105 0.08986 0.0
C3885 C 0.08956 0.62644 0.08084 0.0
C3886 C 0.04207 0.6654 0.05953 0.0
C3887 C 0.1135 0.663 0.10642 0.0
H3888 H 0.10125 0.7512 0.08617 0.0
H3889 H 0.06246 0.71806 0.13806 0.0
H3890 H 0.11168 0.69461 0.06341 0.0
H3891 H 0.09059 0.70571 0.04895 0.0
H3892 H 0.1169 0.72736 0.06159 0.0
H3893 H 0.04725 0.67508 0.13874 0.0
H3894 H 0.04067 0.65829 0.1119 0.0
H3895 H 0.06614 0.65847 0.1284 0.0
H3896 H 0.04116 0.61924 0.04676 0.0
H3897 H 0.10126 0.61631 0.08611 0.0
H3898 H 0.05175 0.68183 0.05168 0.0
H3899 H 0.03414 0.67167 0.0737 0.0
H3900 H 0.02808 0.6536 0.04745 0.0
H3901 H 0.12415 0.68059 0.10074 0.0
H3902 H 0.12459 0.65083 0.10919 0.0
H3903 H 0.10732 0.66764 0.12233 0.0
C3904 C 0.08421 0.31103 0.90757 0.0
C3905 C 0.07154 0.28975 0.91684 0.0
C3906 C 0.10404 0.31154 0.89689 0.0
C3907 C 0.11176 0.29034 0.89573 0.0
C3908 C 0.10054 0.26978 0.90715 0.0
C3909 C 0.0804 0.26964 0.91754 0.0
C3910 C 0.11519 0.33389 0.88498 0.0
C3911 C 0.10866 0.24711 0.90679 0.0
C3912 C 0.1375 0.27896 0.84247 0.0
C3913 C 0.16127 0.28672 0.84888 0.0
C3914 C 0.1213 0.27947 0.85772 0.0
C3915 C 0.12906 0.28841 0.87992 0.0
C3916 C 0.15313 0.29657 0.88644 0.0
C3917 C 0.16896 0.29533 0.87087 0.0
C3918 C 0.09584 0.27068 0.84997 0.0
C3919 C 0.16214 0.30712 0.90969 0.0
H3920 H 0.07753 0.32675 0.90717 0.0
H3921 H 0.07067 0.25315 0.9246 0.0
H3922 H 0.13433 0.33888 0.8873 0.0
H3923 H 0.11003 0.32953 0.8671 0.0
H3924 H 0.10981 0.35021 0.89058 0.0
H3925 H 0.10029 0.23424 0.9188 0.0
H3926 H 0.10451 0.23718 0.89011 0.0
H3927 H 0.12771 0.25244 0.9105 0.0
H3928 H 0.13157 0.27225 0.82547 0.0
H3929 H 0.18739 0.30157 0.87576 0.0
H3930 H 0.08826 0.28613 0.8523 0.0
H3931 H 0.08656 0.25582 0.85988 0.0
H3932 H 0.09264 0.2635 0.83236 0.0
H3933 H 0.1571 0.32408 0.91357 0.0
H3934 H 0.18128 0.31187 0.91234 0.0
H3935 H 0.15427 0.29369 0.92144 0.0
C3936 C 0.55768 0.71255 0.95378 0.0
C3937 C 0.54661 0.71083 0.93219 0.0
C3938 C 0.55751 0.69141 0.96608 0.0
C3939 C 0.54547 0.66632 0.9577 0.0
C3940 C 0.53399 0.66438 0.93598 0.0
C3941 C 0.53486 0.6859 0.9238 0.0
C3942 C 0.57065 0.69614 0.98844 0.0
C3943 C 0.5199 0.63922 0.92559 0.0
C3944 C 0.56012 0.60717 0.98125 0.0
C3945 C 0.54497 0.59935 0.99798 0.0
C3946 C 0.56067 0.6283 0.96875 0.0
C3947 C 0.54498 0.64279 0.97144 0.0
C3948 C 0.52922 0.63456 0.98793 0.0
C3949 C 0.52978 0.61407 1.00092 0.0
C3950 C 0.57878 0.63549 0.95274 0.0
C3951 C 0.51128 0.64747 0.99205 0.0
H3952 H 0.56695 0.7309 0.96132 0.0
H3953 H 0.52577 0.68304 0.90757 0.0
H3954 H 0.5584 0.6906 1.00115 0.0
H3955 H 0.58267 0.68474 0.98937 0.0
H3956 H 0.58074 0.71591 0.99238 0.0
H3957 H 0.51289 0.63985 0.9085 0.0
H3958 H 0.53051 0.62633 0.92544 0.0
H3959 H 0.50524 0.63151 0.93556 0.0
H3960 H 0.57237 0.59705 0.97821 0.0
H3961 H 0.5177 0.60928 0.01335 0.0
H3962 H 0.58874 0.65535 0.95624 0.0
H3963 H 0.57035 0.63303 0.93578 0.0
H3964 H 0.59102 0.62432 0.95342 0.0
H3965 H 0.51947 0.66507 1.00239 0.0
H3966 H 0.49697 0.63602 1.00073 0.0
H3967 H 0.50389 0.65199 0.97638 0.0
C3968 C 0.1373 0.81401 0.69972 0.0
C3969 C 0.11519 0.80409 0.70771 0.0
C3970 C 0.15902 0.81297 0.7106 0.0
C3971 C 0.16015 0.80059 0.73019 0.0
C3972 C 0.13788 0.79059 0.73843 0.0
C3973 C 0.11642 0.79261 0.72758 0.0
C3974 C 0.18117 0.82533 0.70082 0.0
C3975 C 0.13652 0.77721 0.75893 0.0
C3976 C 0.21429 0.7749 0.74528 0.0
C3977 C 0.22955 0.79273 0.76121 0.0
C3978 C 0.19261 0.77728 0.73537 0.0
C3979 C 0.18405 0.79772 0.74136 0.0
C3980 C 0.19914 0.81548 0.75785 0.0
C3981 C 0.22117 0.81313 0.76689 0.0
C3982 C 0.17877 0.75763 0.71792 0.0
C3983 C 0.19197 0.83741 0.76623 0.0
H3984 H 0.13773 0.82292 0.6846 0.0
H3985 H 0.10025 0.78425 0.73448 0.0
H3986 H 0.19335 0.83866 0.7134 0.0
H3987 H 0.18962 0.81127 0.69557 0.0
H3988 H 0.17827 0.83536 0.68647 0.0
H3989 H 0.11843 0.76946 0.76315 0.0
H3990 H 0.14434 0.76192 0.75678 0.0
H3991 H 0.14664 0.7901 0.77292 0.0
H3992 H 0.21964 0.75901 0.73994 0.0
H3993 H 0.23186 0.82747 0.77892 0.0
H3994 H 0.17674 0.76614 0.70241 0.0
H3995 H 0.16116 0.74913 0.72299 0.0
H3996 H 0.18703 0.74286 0.71465 0.0
H3997 H 0.19199 0.84972 0.7529 0.0
H3998 H 0.20363 0.84826 0.78048 0.0
H3999 H 0.17407 0.83111 0.77122 0.0
C4000 C 0.07419 0.37904 0.4251 0.0
C4001 C 0.06019 0.35461 0.42762 0.0
C4002 C 0.07387 0.4006 0.43895 0.0
C4003 C 0.0584 0.39912 0.45591 0.0
C4004 C 0.04373 0.37458 0.4581 0.0
C4005 C 0.04509 0.35317 0.4446 0.0
C4006 C 0.09039 0.42532 0.43532 0.0
C4007 C 0.02559 0.37094 0.47425 0.0
C4008 C 0.06887 0.45072 0.5064 0.0
C4009 C 0.05666 0.46733 0.49987 0.0
C4010 C 0.06984 0.42944 0.49254 0.0
C4011 C 0.05763 0.42276 0.4711 0.0
C4012 C 0.04488 0.43921 0.46455 0.0
C4013 C 0.04495 0.46095 0.47844 0.0
C4014 C 0.08459 0.41417 0.50086 0.0
C4015 C 0.03085 0.43396 0.4426 0.0
H4016 H 0.08581 0.38141 0.41217 0.0
H4017 H 0.03343 0.33515 0.44686 0.0
H4018 H 0.08054 0.43758 0.42929 0.0
H4019 H 0.10026 0.43438 0.45108 0.0
H4020 H 0.1028 0.42367 0.42318 0.0
H4021 H 0.01514 0.35125 0.47414 0.0
H4022 H 0.03382 0.37767 0.4911 0.0
H4023 H 0.01382 0.38205 0.47022 0.0
H4024 H 0.07828 0.45464 0.52253 0.0
H4025 H 0.03525 0.47282 0.47248 0.0
H4026 H 0.09722 0.41291 0.48885 0.0
H4027 H 0.07361 0.39506 0.50248 0.0
H4028 H 0.09418 0.42203 0.51704 0.0
H4029 H 0.04237 0.44103 0.42964 0.0
H4030 H 0.0171 0.44325 0.44224 0.0
H4031 H 0.02268 0.41379 0.43848 0.0
C4032 C 0.47303 0.31072 0.21047 0.0
C4033 C 0.47804 0.28877 0.20251 0.0
C4034 C 0.4525 0.31093 0.22173 0.0
C4035 C 0.43488 0.28868 0.22583 0.0
C4036 C 0.43997 0.26652 0.218 0.0
C4037 C 0.46056 0.26684 0.20673 0.0
C4038 C 0.44954 0.33555 0.22912 0.0
C4039 C 0.42322 0.24186 0.22137 0.0
C4040 C 0.38876 0.28904 0.27122 0.0
C4041 C 0.36726 0.28736 0.25927 0.0
C4042 C 0.40996 0.28916 0.26101 0.0
C4043 C 0.41149 0.28846 0.23755 0.0
C4044 C 0.38993 0.28727 0.22549 0.0
C4045 C 0.36882 0.2864 0.23607 0.0
C4046 C 0.43106 0.28992 0.2757 0.0
C4047 C 0.38914 0.28733 0.20088 0.0
H4048 H 0.48515 0.32821 0.20749 0.0
H4049 H 0.46281 0.24934 0.20095 0.0
H4050 H 0.43244 0.33655 0.22239 0.0
H4051 H 0.44988 0.33752 0.24729 0.0
H4052 H 0.46332 0.3513 0.22393 0.0
H4053 H 0.42951 0.22615 0.21581 0.0
H4054 H 0.4202 0.2409 0.23902 0.0
H4055 H 0.4063 0.23976 0.21216 0.0
H4056 H 0.38906 0.28991 0.28896 0.0
H4057 H 0.35328 0.28543 0.22584 0.0
H4058 H 0.44497 0.30737 0.2743 0.0
H4059 H 0.43771 0.27441 0.27037 0.0
H4060 H 0.42744 0.28871 0.2932 0.0
H4061 H 0.4022 0.30416 0.19644 0.0
H4062 H 0.37184 0.28688 0.19339 0.0
H4063 H 0.3937 0.27112 0.19369 0.0
C4064 C 0.65303 0.53284 0.41972 0.0
C4065 C 0.6496 0.54405 0.40073 0.0
C4066 C 0.63758 0.53078 0.43588 0.0
C4067 C 0.61885 0.54064 0.43284 0.0
C4068 C 0.61569 0.55254 0.41395 0.0
C4069 C 0.63109 0.55391 0.39794 0.0
C4070 C 0.64117 0.51806 0.45613 0.0
C4071 C 0.5963 0.56402 0.41079 0.0
C4072 C 0.56897 0.51464 0.46593 0.0
C4073 C 0.57479 0.53213 0.4841 0.0
C4074 C 0.58288 0.51765 0.44847 0.0
C4075 C 0.60264 0.53863 0.44962 0.0
C4076 C 0.60759 0.55708 0.46737 0.0
C4077 C 0.5934 0.55353 0.48449 0.0
C4078 C 0.57708 0.49802 0.42934 0.0
C4079 C 0.62829 0.57996 0.46878 0.0
H4080 H 0.66756 0.52551 0.42176 0.0
H4081 H 0.62895 0.56324 0.38342 0.0
H4082 H 0.64306 0.53086 0.47111 0.0
H4083 H 0.6258 0.50192 0.45737 0.0
H4084 H 0.65673 0.51156 0.45595 0.0
H4085 H 0.59668 0.57304 0.39521 0.0
H4086 H 0.57932 0.54968 0.41075 0.0
H4087 H 0.59746 0.57807 0.42466 0.0
H4088 H 0.55416 0.4983 0.46577 0.0
H4089 H 0.59688 0.56745 0.49823 0.0
H4090 H 0.5908 0.48874 0.42896 0.0
H4091 H 0.57651 0.50653 0.41361 0.0
H4092 H 0.56019 0.4838 0.43034 0.0
H4093 H 0.64436 0.57471 0.47186 0.0
H4094 H 0.62774 0.59386 0.48223 0.0
H4095 H 0.62936 0.58871 0.45307 0.0
C4096 C 0.34704 0.91865 0.07519 0.0
C4097 C 0.32393 0.90889 0.06635 0.0
C4098 C 0.35527 0.90937 0.09358 0.0
C4099 C 0.33979 0.89039 0.10368 0.0
C4100 C 0.31629 0.88092 0.09514 0.0
C4101 C 0.30872 0.89002 0.07626 0.0
C4102 C 0.38063 0.91922 0.10166 0.0
C4103 C 0.2992 0.86101 0.10583 0.0
C4104 C 0.35864 0.84676 0.13932 0.0
C4105 C 0.35601 0.85642 0.16033 0.0
C4106 C 0.35484 0.85855 0.12068 0.0
C4107 C 0.34797 0.88026 0.1232 0.0
C4108 C 0.34685 0.891 0.14444 0.0
C4109 C 0.35105 0.87901 0.16279 0.0
C4110 C 0.35691 0.84704 0.09826 0.0
C4111 C 0.33995 0.91437 0.14773 0.0
H4112 H 0.35902 0.93281 0.06709 0.0
H4113 H 0.29096 0.88238 0.06922 0.0
H4114 H 0.38278 0.92508 0.1195 0.0
H4115 H 0.38891 0.90434 0.09926 0.0
H4116 H 0.39 0.93513 0.09284 0.0
H4117 H 0.28141 0.8563 0.09759 0.0
H4118 H 0.30469 0.84401 0.10539 0.0
H4119 H 0.29881 0.86716 0.12335 0.0
H4120 H 0.36245 0.8293 0.13731 0.0
H4121 H 0.34962 0.88686 0.17907 0.0
H4122 H 0.36734 0.86122 0.08838 0.0
H4123 H 0.33947 0.83932 0.08935 0.0
H4124 H 0.36502 0.83193 0.09927 0.0
H4125 H 0.35117 0.92927 0.13907 0.0
H4126 H 0.34107 0.92101 0.16537 0.0
H4127 H 0.3219 0.91096 0.14056 0.0
C4128 C 0.99233 0.56952 0.89424 0.0
C4129 C 0.96855 0.55998 0.89628 0.0
C4130 C 1.00836 0.57144 0.9121 0.0
C4131 C 1.00025 0.56366 0.93229 0.0
C4132 C 0.9763 0.55527 0.93481 0.0
C4133 C 0.96063 0.55371 0.9167 0.0
C4134 C 0.0339 0.58041 0.90903 0.0
C4135 C 0.96726 0.54649 0.95617 0.0
C4136 C 0.03926 0.54021 0.96928 0.0
C4137 C 0.04757 0.56031 0.98501 0.0
C4138 C 0.02365 0.54104 0.95186 0.0
C4139 C 0.01684 0.5627 0.95035 0.0
C4140 C 0.02565 0.58323 0.96614 0.0
C4141 C 0.04089 0.58166 0.98361 0.0
C4142 C 0.01411 0.51863 0.93544 0.0
C4143 C 0.0187 0.60656 0.96473 0.0
H4144 H 0.99847 0.57457 0.87846 0.0
H4145 H 0.94224 0.54626 0.91829 0.0
H4146 H 0.04307 0.59516 0.92211 0.0
H4147 H 0.04145 0.56494 0.91042 0.0
H4148 H 0.03726 0.58768 0.89278 0.0
H4149 H 0.94818 0.54243 0.95589 0.0
H4150 H 0.97179 0.52945 0.95957 0.0
H4151 H 0.97553 0.56062 0.96994 0.0
H4152 H 0.0444 0.52363 0.97103 0.0
H4153 H 0.04736 0.59689 0.99631 0.0
H4154 H 0.01844 0.52365 0.91871 0.0
H4155 H 0.99496 0.51198 0.93507 0.0
H4156 H 0.02101 0.50318 0.93935 0.0
H4157 H 0.02295 0.61424 0.9488 0.0
H4158 H 0.02749 0.62095 0.97825 0.0
H4159 H 0.99971 0.6023 0.96536 0.0
C4160 C 0.28862 0.25464 0.60535 0.0
C4161 C 0.29392 0.23308 0.59793 0.0
C4162 C 0.28773 0.26114 0.62811 0.0
C4163 C 0.29306 0.24637 0.64438 0.0
C4164 C 0.29896 0.2249 0.63693 0.0
C4165 C 0.29887 0.21835 0.61407 0.0
C4166 C 0.28073 0.28378 0.63474 0.0
C4167 C 0.3054 0.2087 0.65319 0.0
C4168 C 0.31224 0.27482 0.70466 0.0
C4169 C 0.29207 0.26613 0.71562 0.0
C4170 C 0.31266 0.26899 0.68176 0.0
C4171 C 0.2926 0.25338 0.66902 0.0
C4172 C 0.27222 0.24435 0.68006 0.0
C4173 C 0.2721 0.25107 0.70291 0.0
C4174 C 0.3348 0.27957 0.67119 0.0
C4175 C 0.25044 0.22731 0.66774 0.0
H4176 H 0.28443 0.2661 0.59326 0.0
H4177 H 0.303 0.20167 0.60879 0.0
H4178 H 0.26544 0.27859 0.6444 0.0
H4179 H 0.29495 0.29722 0.64547 0.0
H4180 H 0.27643 0.29302 0.62034 0.0
H4181 H 0.31072 0.19341 0.64506 0.0
H4182 H 0.31984 0.21993 0.6651 0.0
H4183 H 0.29048 0.20062 0.66272 0.0
H4184 H 0.32782 0.28659 0.71401 0.0
H4185 H 0.25641 0.24395 0.71096 0.0
H4186 H 0.33162 0.29024 0.65742 0.0
H4187 H 0.34092 0.26434 0.66418 0.0
H4188 H 0.34873 0.29192 0.683 0.0
H4189 H 0.2446 0.23676 0.65424 0.0
H4190 H 0.23619 0.22129 0.67854 0.0
H4191 H 0.25396 0.21066 0.66012 0.0
C4192 C 0.6493 0.53363 0.25994 0.0
C4193 C 0.64382 0.54423 0.27926 0.0
C4194 C 0.63775 0.53507 0.23967 0.0
C4195 C 0.62128 0.54834 0.23894 0.0
C4196 C 0.61594 0.5592 0.25856 0.0
C4197 C 0.62701 0.55659 0.27856 0.0
C4198 C 0.64327 0.52263 0.21909 0.0
C4199 C 0.59905 0.57415 0.25843 0.0
C4200 C 0.6106 0.57661 0.18662 0.0
C4201 C 0.58877 0.56094 0.17838 0.0
C4202 C 0.62149 0.57252 0.20624 0.0
C4203 C 0.61039 0.55204 0.21763 0.0
C4204 C 0.58843 0.53599 0.20928 0.0
C4205 C 0.57776 0.54077 0.18977 0.0
C4206 C 0.64461 0.59043 0.21502 0.0
C4207 C 0.57625 0.51384 0.22094 0.0
H4208 H 0.66231 0.52402 0.26074 0.0
H4209 H 0.62309 0.56496 0.29369 0.0
H4210 H 0.62709 0.51044 0.20999 0.0
H4211 H 0.65155 0.53678 0.20809 0.0
H4212 H 0.65506 0.51141 0.22271 0.0
H4213 H 0.59735 0.58189 0.27516 0.0
H4214 H 0.60477 0.58967 0.24798 0.0
H4215 H 0.58172 0.56246 0.25127 0.0
H4216 H 0.61898 0.59232 0.17785 0.0
H4217 H 0.56098 0.52851 0.18321 0.0
H4218 H 0.65767 0.58045 0.21725 0.0
H4219 H 0.64313 0.5992 0.23139 0.0
H4220 H 0.65104 0.60524 0.20397 0.0
H4221 H 0.58759 0.50186 0.22319 0.0
H4222 H 0.55965 0.50265 0.21181 0.0
H4223 H 0.57262 0.51997 0.23754 0.0
C4224 C 0.31699 0.89256 0.92727 0.0
C4225 C 0.30103 0.89195 0.94289 0.0
C4226 C 0.31336 0.87339 0.91086 0.0
C4227 C 0.29218 0.85425 0.90878 0.0
C4228 C 0.27601 0.85316 0.92461 0.0
C4229 C 0.28095 0.87184 0.94197 0.0
C4230 C 0.33177 0.8744 0.89511 0.0
C4231 C 0.25315 0.83303 0.92253 0.0
C4232 C 0.27699 0.83503 0.84875 0.0
C4233 C 0.28406 0.81377 0.84662 0.0
C4234 C 0.27764 0.84723 0.86942 0.0
C4235 C 0.28587 0.83803 0.8882 0.0
C4236 C 0.29172 0.81571 0.88627 0.0
C4237 C 0.2905 0.80364 0.86537 0.0
C4238 C 0.27151 0.87119 0.87087 0.0
C4239 C 0.3016 0.80593 0.90574 0.0
H4240 H 0.33241 0.90801 0.92769 0.0
H4241 H 0.26873 0.87133 0.95421 0.0
H4242 H 0.33413 0.8559 0.89179 0.0
H4243 H 0.32641 0.88031 0.87924 0.0
H4244 H 0.34874 0.88765 0.90161 0.0
H4245 H 0.2433 0.83367 0.93711 0.0
H4246 H 0.24253 0.83505 0.90772 0.0
H4247 H 0.2559 0.81458 0.92028 0.0
H4248 H 0.27188 0.84271 0.8342 0.0
H4249 H 0.29621 0.78727 0.86366 0.0
H4250 H 0.28761 0.88699 0.8737 0.0
H4251 H 0.26098 0.87211 0.88487 0.0
H4252 H 0.26182 0.8735 0.85554 0.0
H4253 H 0.32043 0.81564 0.90861 0.0
H4254 H 0.2993 0.7858 0.90275 0.0
H4255 H 0.29357 0.80927 0.92093 0.0
C4256 C 0.98984 0.54464 0.7734 0.0
C4257 C 0.97045 0.55311 0.7739 0.0
C4258 C 0.99833 0.53999 0.7535 0.0
C4259 C 0.98768 0.545 0.73388 0.0
C4260 C 0.96879 0.55481 0.73442 0.0
C4261 C 0.95997 0.55823 0.75456 0.0
C4262 C 0.01788 0.52853 0.75338 0.0
C4263 C 0.95749 0.56084 0.71372 0.0
C4264 C 0.02257 0.54698 0.68496 0.0
C4265 C 0.01258 0.523 0.675 0.0
C4266 C 0.01416 0.55477 0.70398 0.0
C4267 C 0.99534 0.53812 0.71276 0.0
C4268 C 0.98494 0.51402 0.70231 0.0
C4269 C 0.99383 0.50671 0.68347 0.0
C4270 C 0.02557 0.58055 0.71487 0.0
C4271 C 0.96491 0.49572 0.71133 0.0
H4272 H 0.9975 0.54022 0.78849 0.0
H4273 H 0.94486 0.56465 0.75521 0.0
H4274 H 0.01213 0.51044 0.74333 0.0
H4275 H 0.03271 0.54057 0.74577 0.0
H4276 H 0.02397 0.5255 0.77016 0.0
H4277 H 0.94415 0.57007 0.71722 0.0
H4278 H 0.97075 0.57308 0.7045 0.0
H4279 H 0.9492 0.54362 0.70288 0.0
H4280 H 0.03695 0.55947 0.67791 0.0
H4281 H 0.9861 0.4883 0.67525 0.0
H4282 H 0.03387 0.5795 0.73132 0.0
H4283 H 0.0124 0.59026 0.7174 0.0
H4284 H 0.03896 0.59173 0.70508 0.0
H4285 H 0.97083 0.49046 0.72729 0.0
H4286 H 0.95752 0.47865 0.70002 0.0
H4287 H 0.95095 0.50416 0.71439 0.0
C4288 C 0.29036 0.24735 0.45739 0.0
C4289 C 0.30376 0.23253 0.46493 0.0
C4290 C 0.29164 0.25581 0.43584 0.0
C4291 C 0.3068 0.24965 0.42105 0.0
C4292 C 0.32106 0.23568 0.42908 0.0
C4293 C 0.31922 0.22725 0.45044 0.0
C4294 C 0.27588 0.27046 0.42852 0.0
C4295 C 0.3379 0.2288 0.41473 0.0
C4296 C 0.29395 0.24545 0.35738 0.0
C4297 C 0.30888 0.2677 0.3512 0.0
C4298 C 0.29282 0.23976 0.3797 0.0
C4299 C 0.30705 0.25642 0.397 0.0
C4300 C 0.32224 0.27889 0.3909 0.0
C4301 C 0.32285 0.28426 0.36842 0.0
C4302 C 0.27614 0.21569 0.38481 0.0
C4303 C 0.3379 0.29749 0.40822 0.0
H4304 H 0.27788 0.25121 0.46785 0.0
H4305 H 0.32959 0.21567 0.45563 0.0
H4306 H 0.28589 0.28743 0.42145 0.0
H4307 H 0.26282 0.25924 0.4154 0.0
H4308 H 0.2667 0.27582 0.44222 0.0
H4309 H 0.3489 0.21934 0.42362 0.0
H4310 H 0.32828 0.21635 0.40027 0.0
H4311 H 0.34929 0.2456 0.40845 0.0
H4312 H 0.28273 0.23241 0.34469 0.0
H4313 H 0.33432 0.30167 0.36437 0.0
H4314 H 0.26437 0.21933 0.39685 0.0
H4315 H 0.28582 0.2041 0.39245 0.0
H4316 H 0.26553 0.20503 0.36991 0.0
H4317 H 0.3273 0.30451 0.41961 0.0
H4318 H 0.34957 0.31345 0.40103 0.0
H4319 H 0.34858 0.28854 0.41814 0.0
C4320 C 0.32688 0.59414 0.52665 0.0
C4321 C 0.33047 0.61299 0.54376 0.0
C4322 C 0.34442 0.58412 0.52156 0.0
C4323 C 0.36605 0.59306 0.53396 0.0
C4324 C 0.37018 0.61252 0.55082 0.0
C4325 C 0.35223 0.62236 0.55556 0.0
C4326 C 0.33942 0.56322 0.50353 0.0
C4327 C 0.39325 0.62232 0.56426 0.0
C4328 C 0.39751 0.54553 0.53788 0.0
C4329 C 0.41383 0.5529 0.52273 0.0
C4330 C 0.38228 0.55904 0.54218 0.0
C4331 C 0.38334 0.58007 0.53068 0.0
C4332 C 0.3997 0.58744 0.51511 0.0
C4333 C 0.41512 0.57381 0.5115 0.0
C4334 C 0.36507 0.5508 0.55898 0.0
C4335 C 0.4007 0.60944 0.50224 0.0
H4336 H 0.31017 0.58681 0.51728 0.0
H4337 H 0.35512 0.63701 0.56867 0.0
H4338 H 0.35314 0.56701 0.492 0.0
H4339 H 0.33931 0.54581 0.51081 0.0
H4340 H 0.32244 0.5602 0.49403 0.0
H4341 H 0.39391 0.63818 0.5762 0.0
H4342 H 0.39675 0.6074 0.57343 0.0
H4343 H 0.40732 0.6283 0.55329 0.0
H4344 H 0.39715 0.52954 0.54677 0.0
H4345 H 0.42818 0.57943 0.50004 0.0
H4346 H 0.34719 0.54553 0.55094 0.0
H4347 H 0.36679 0.56624 0.57171 0.0
H4348 H 0.36744 0.53476 0.56722 0.0
H4349 H 0.38402 0.6063 0.49223 0.0
H4350 H 0.41485 0.613 0.49112 0.0
H4351 H 0.40326 0.62624 0.51362 0.0
C4352 C 0.8736 0.93643 0.54384 0.0
C4353 C 0.87054 0.91094 0.54274 0.0
C4354 C 0.89575 0.9537 0.54498 0.0
C4355 C 0.91557 0.94551 0.54746 0.0
C4356 C 0.91255 0.92021 0.55021 0.0
C4357 C 0.89018 0.90307 0.54691 0.0
C4358 C 0.89788 0.98061 0.54308 0.0
C4359 C 0.93283 0.91148 0.55743 0.0
C4360 C 0.97103 0.97899 0.5226 0.0
C4361 C 0.98231 0.99759 0.53921 0.0
C4362 C 0.94943 0.96204 0.5252 0.0
C4363 C 0.93912 0.96294 0.54529 0.0
C4364 C 0.95095 0.98123 0.56248 0.0
C4365 C 0.97205 0.99865 0.559 0.0
C4366 C 0.93786 0.94304 0.5063 0.0
C4367 C 0.94207 0.98257 0.58486 0.0
H4368 H 0.85865 0.94293 0.54395 0.0
H4369 H 0.88807 0.88358 0.54805 0.0
H4370 H 0.90884 0.99232 0.5572 0.0
H4371 H 0.90634 0.98659 0.52801 0.0
H4372 H 0.88088 0.98417 0.54264 0.0
H4373 H 0.92718 0.8925 0.56285 0.0
H4374 H 0.94397 0.91153 0.5438 0.0
H4375 H 0.94359 0.92426 0.57124 0.0
H4376 H 0.97907 0.97775 0.50744 0.0
H4377 H 0.981 0.0125 0.57223 0.0
H4378 H 0.91892 0.93981 0.50482 0.0
H4379 H 0.94102 0.92522 0.50924 0.0
H4380 H 0.94471 0.94869 0.49045 0.0
H4381 H 0.9375 1.00002 0.58757 0.0
H4382 H 0.95604 0.98335 0.59779 0.0
H4383 H 0.92682 0.96673 0.58713 0.0
C4384 C 0.90911 0.0947 0.24901 0.0
C4385 C 0.89456 0.07064 0.24999 0.0
C4386 C 0.90081 0.11505 0.25321 0.0
C4387 C 0.87756 0.11079 0.25816 0.0
C4388 C 0.86251 0.08646 0.25754 0.0
C4389 C 0.87127 0.06677 0.25363 0.0
C4390 C 0.91719 0.14088 0.25369 0.0
C4391 C 0.83742 0.08106 0.26232 0.0
C4392 C 0.85357 0.14997 0.29564 0.0
C4393 C 0.84027 0.15843 0.28038 0.0
C4394 C 0.86816 0.13658 0.28847 0.0
C4395 C 0.86874 0.13119 0.26562 0.0
C4396 C 0.85626 0.14096 0.25024 0.0
C4397 C 0.84218 0.15463 0.25786 0.0
C4398 C 0.88158 0.12665 0.30527 0.0
C4399 C 0.85615 0.13519 0.2258 0.0
H4400 H 0.92713 0.09764 0.24619 0.0
H4401 H 0.8599 0.04821 0.25428 0.0
H4402 H 0.90847 0.15355 0.24646 0.0
H4403 H 0.92321 0.14814 0.27101 0.0
H4404 H 0.93259 0.14118 0.24472 0.0
H4405 H 0.82771 0.06107 0.25933 0.0
H4406 H 0.83646 0.08708 0.27975 0.0
H4407 H 0.82859 0.09147 0.25197 0.0
H4408 H 0.8523 0.15353 0.31306 0.0
H4409 H 0.83189 0.16151 0.2462 0.0
H4410 H 0.89959 0.12957 0.30091 0.0
H4411 H 0.87341 0.10643 0.30542 0.0
H4412 H 0.88204 0.13553 0.32208 0.0
H4413 H 0.87397 0.13748 0.22117 0.0
H4414 H 0.84842 0.14717 0.21617 0.0
H4415 H 0.84588 0.11562 0.22114 0.0
C4416 C 0.71586 0.11227 0.07818 0.0
C4417 C 0.72483 0.1346 0.06909 0.0
C4418 C 0.69317 0.10517 0.08375 0.0
C4419 C 0.67926 0.12085 0.07977 0.0
C4420 C 0.68916 0.1448 0.07331 0.0
C4421 C 0.71196 0.15134 0.06769 0.0
C4422 C 0.68343 0.07962 0.09126 0.0
C4423 C 0.67512 0.1625 0.07033 0.0
C4424 C 0.62929 0.07661 0.04844 0.0
C4425 C 0.61509 0.06857 0.06507 0.0
C4426 C 0.64839 0.09725 0.05239 0.0
C4427 C 0.65463 0.10865 0.07402 0.0
C4428 C 0.63941 0.10206 0.09054 0.0
C4429 C 0.61958 0.08182 0.08587 0.0
C4430 C 0.66307 0.1052 0.0338 0.0
C4431 C 0.64452 0.11538 0.11326 0.0
H4432 H 0.72649 0.10018 0.08073 0.0
H4433 H 0.7195 0.16926 0.06172 0.0
H4434 H 0.67248 0.0801 0.10497 0.0
H4435 H 0.67249 0.06705 0.07745 0.0
H4436 H 0.69729 0.07165 0.09678 0.0
H4437 H 0.68626 0.18197 0.07365 0.0
H4438 H 0.66741 0.16015 0.05311 0.0
H4439 H 0.66084 0.15913 0.08126 0.0
H4440 H 0.62563 0.06665 0.03224 0.0
H4441 H 0.6079 0.07627 0.09853 0.0
H4442 H 0.68009 0.10232 0.03758 0.0
H4443 H 0.66606 0.1251 0.03196 0.0
H4444 H 0.65487 0.09488 0.01786 0.0
H4445 H 0.65224 0.10475 0.1244 0.0
H4446 H 0.62828 0.1167 0.1199 0.0
H4447 H 0.65675 0.13428 0.1134 0.0
C4448 C 0.1759 0.46276 0.26387 0.0
C4449 C 0.18845 0.48392 0.25472 0.0
C4450 C 0.1861 0.44422 0.268 0.0
C4451 C 0.20936 0.44784 0.26343 0.0
C4452 C 0.22097 0.46793 0.25188 0.0
C4453 C 0.20996 0.48549 0.24712 0.0
C4454 C 0.17293 0.42229 0.27934 0.0
C4455 C 0.24595 0.47267 0.24706 0.0
C4456 C 0.25054 0.4288 0.30189 0.0
C4457 C 0.25492 0.41001 0.28859 0.0
C4458 C 0.23468 0.44059 0.29426 0.0
C4459 C 0.22279 0.43289 0.27309 0.0
C4460 C 0.22636 0.41322 0.26005 0.0
C4461 C 0.24283 0.40243 0.26772 0.0
C4462 C 0.23145 0.46196 0.30839 0.0
C4463 C 0.21355 0.4043 0.23762 0.0
H4464 H 0.15918 0.4618 0.26967 0.0
H4465 H 0.21918 0.5018 0.23955 0.0
H4466 H 0.17719 0.40532 0.27363 0.0
H4467 H 0.17775 0.42594 0.29731 0.0
H4468 H 0.15394 0.41888 0.27646 0.0
H4469 H 0.25174 0.48819 0.23658 0.0
H4470 H 0.2572 0.47733 0.26274 0.0
H4471 H 0.24863 0.45592 0.23876 0.0
H4472 H 0.25964 0.43443 0.3181 0.0
H4473 H 0.24654 0.3883 0.25708 0.0
H4474 H 0.21286 0.45877 0.31067 0.0
H4475 H 0.23741 0.47922 0.30007 0.0
H4476 H 0.24121 0.46482 0.32482 0.0
H4477 H 0.19482 0.40206 0.23827 0.0
H4478 H 0.21566 0.38642 0.23116 0.0
H4479 H 0.22015 0.4182 0.22586 0.0
C4480 C 0.24817 0.4113 0.00927 0.0
C4481 C 0.25112 0.39477 0.02463 0.0
C4482 C 0.23047 0.42234 0.00998 0.0
C4483 C 0.21436 0.41596 0.02581 0.0
C4484 C 0.21556 0.39734 0.03983 0.0
C4485 C 0.23421 0.38721 0.03937 0.0
C4486 C 0.23063 0.44266 0.99515 0.0
C4487 C 0.19778 0.38911 0.05602 0.0
C4488 C 0.19244 0.46821 0.04758 0.0
C4489 C 0.17164 0.46394 0.03448 0.0
C4490 C 0.2062 0.45242 0.04513 0.0
C4491 C 0.19866 0.43137 0.02964 0.0
C4492 C 0.17741 0.42672 0.01657 0.0
C4493 C 0.16429 0.44332 0.01894 0.0
C4494 C 0.22928 0.45884 0.05858 0.0
C4495 C 0.16877 0.40456 0.99984 0.0
H4496 H 0.26063 0.41699 0.99729 0.0
H4497 H 0.23599 0.37421 0.05104 0.0
H4498 H 0.21298 0.44111 0.98801 0.0
H4499 H 0.23736 0.46085 1.00497 0.0
H4500 H 0.2418 0.44255 0.9815 0.0
H4501 H 0.19894 0.37208 0.06331 0.0
H4502 H 0.20035 0.404 0.06948 0.0
H4503 H 0.18009 0.38562 0.04788 0.0
H4504 H 0.1983 0.48442 0.0593 0.0
H4505 H 0.14822 0.44011 0.00874 0.0
H4506 H 0.24341 0.46122 0.04752 0.0
H4507 H 0.22986 0.44354 0.06873 0.0
H4508 H 0.23275 0.4761 0.06962 0.0
H4509 H 0.18021 0.40665 0.98625 0.0
H4510 H 0.15085 0.40215 0.99272 0.0
H4511 H 0.16922 0.38751 0.00747 0.0
C4512 C 0.87943 0.94217 0.22617 0.0
C4513 C 0.90332 0.94963 0.2313 0.0
C4514 C 0.86692 0.91717 0.22342 0.0
C4515 C 0.87896 0.89934 0.2252 0.0
C4516 C 0.90328 0.90688 0.22478 0.0
C4517 C 0.9154 0.93218 0.22858 0.0
C4518 C 0.84084 0.91019 0.22035 0.0
C4519 C 0.91642 0.8883 0.22152 0.0
C4520 C 0.85411 0.86387 0.27066 0.0
C4521 C 0.83311 0.84923 0.25997 0.0
C4522 C 0.87156 0.87736 0.25877 0.0
C4523 C 0.86743 0.87671 0.23562 0.0
C4524 C 0.84787 0.85872 0.2246 0.0
C4525 C 0.83048 0.84555 0.23696 0.0
C4526 C 0.89389 0.89303 0.27131 0.0
C4527 C 0.84484 0.85361 0.19994 0.0
H4528 H 0.87043 0.9559 0.2248 0.0
H4529 H 0.93416 0.93816 0.23007 0.0
H4530 H 0.83434 0.89749 0.20528 0.0
H4531 H 0.8332 0.90065 0.23453 0.0
H4532 H 0.83456 0.92649 0.21855 0.0
H4533 H 0.93447 0.89561 0.22923 0.0
H4534 H 0.9078 0.87038 0.22795 0.0
H4535 H 0.91717 0.88446 0.20362 0.0
H4536 H 0.85666 0.86533 0.28845 0.0
H4537 H 0.81492 0.83256 0.2286 0.0
H4538 H 0.89705 0.91273 0.26837 0.0
H4539 H 0.90857 0.88714 0.26567 0.0
H4540 H 0.8939 0.89135 0.28927 0.0
H4541 H 0.82771 0.85479 0.19348 0.0
H4542 H 0.8449 0.83433 0.1956 0.0
H4543 H 0.85874 0.86629 0.19169 0.0
C4544 C 0.71725 0.10657 0.74916 0.0
C4545 C 0.69595 0.10567 0.75708 0.0
C4546 C 0.73258 0.12891 0.74484 0.0
C4547 C 0.72584 0.15056 0.74761 0.0
C4548 C 0.70303 0.14922 0.7523 0.0
C4549 C 0.68833 0.12666 0.75749 0.0
C4550 C 0.75659 0.12961 0.73912 0.0
C4551 C 0.69475 0.17183 0.75281 0.0
C4552 C 0.77084 0.20311 0.7795 0.0
C4553 C 0.7804 0.21717 0.76286 0.0
C4554 C 0.75241 0.18184 0.77455 0.0
C4555 C 0.74411 0.17412 0.7523 0.0
C4556 C 0.75429 0.18801 0.73526 0.0
C4557 C 0.77271 0.20954 0.74083 0.0
C4558 C 0.7407 0.16907 0.79337 0.0
C4559 C 0.74519 0.18131 0.71143 0.0
H4560 H 0.72201 0.08979 0.74636 0.0
H4561 H 0.67109 0.12546 0.76202 0.0
H4562 H 0.76115 0.14021 0.72468 0.0
H4563 H 0.76937 0.1391 0.75311 0.0
H4564 H 0.75817 0.11081 0.73538 0.0
H4565 H 0.67599 0.16727 0.75505 0.0
H4566 H 0.70449 0.18567 0.76633 0.0
H4567 H 0.69812 0.18069 0.73724 0.0
H4568 H 0.77643 0.21002 0.79656 0.0
H4569 H 0.77975 0.2214 0.72821 0.0
H4570 H 0.73526 0.14877 0.78969 0.0
H4571 H 0.72493 0.1746 0.79592 0.0
H4572 H 0.752 0.17434 0.80899 0.0
H4573 H 0.75659 0.17232 0.70293 0.0
H4574 H 0.74561 0.19825 0.70316 0.0
H4575 H 0.72723 0.16863 0.7093 0.0
loop_
_geom_bond_atom_site_label_1
_geom_bond_atom_site_label_2
_geom_bond_distance
_geom_bond_site_symmetry_2
_ccdc_geom_bond_type
Mn0 O5 2.095 . S
Mn0 O15 2.162 . S
Mn0 O16 2.297 . S
Mn0 O24 2.385 1_455 S
Mn0 O25 2.209 . S
Mn0 O26 2.094 . S
Mn1 O6 2.121 . S
Mn1 N8 2.257 . S
Mn1 N17 2.282 . S
Mn1 O25 2.215 . S
Mn1 O27 2.117 . S
C2 O24 1.236 . S
C2 O25 1.269 1_655 S
C3 O15 1.281 . S
C3 O16 1.236 . S
C4 O26 1.240 . S
C4 O27 1.264 . S
O5 Mn0 2.095 . S
O5 C14 1.250 . S
O6 Mn1 2.121 . S
O6 C14 1.258 . S
C7 N8 1.326 . S
C7 C11 1.460 . S
C7 H13 0.929 . S
N8 Mn1 2.257 . S
N8 C7 1.326 . S
N8 C12 1.362 . S
C9 C10 1.259 1_655 S
C9 C12 1.432 1_655 S
C9 C29 1.446 . S
C10 C9 1.259 1_455 S
C10 C11 1.477 . S
C10 H30 0.931 . S
C11 C7 1.460 . S
C11 C10 1.477 . S
C11 H31 0.930 . S
C12 N8 1.362 . S
C12 C9 1.432 1_455 S
C12 C22 1.476 1_455 S
H13 C7 0.929 . S
C14 O5 1.250 . S
C14 O6 1.258 . S
O15 Mn0 2.162 . S
O15 C3 1.281 . S
O16 Mn0 2.297 . S
O16 C3 1.236 . S
N17 Mn1 2.282 . S
N17 C18 1.328 1_455 S
N17 C22 1.318 1_455 S
C18 N17 1.328 1_655 S
C18 C19 1.457 . S
C18 H23 0.929 1_655 S
C19 C18 1.457 . S
C19 C20 1.291 . S
C19 H32 0.931 . S
C20 C19 1.291 . S
C20 C21 1.373 . S
C20 H33 0.929 . S
C21 C20 1.373 . S
C21 C22 1.396 . S
C21 C28 1.403 . S
C22 C12 1.476 1_655 S
C22 N17 1.318 1_655 S
C22 C21 1.396 . S
H23 C18 0.929 1_455 S
O24 Mn0 2.385 1_655 S
O24 C2 1.236 . S
O25 Mn0 2.209 . S
O25 Mn1 2.215 . S
O25 C2 1.269 1_455 S
O26 Mn0 2.094 . S
O26 C4 1.240 . S
O27 Mn1 2.117 . S
O27 C4 1.264 . S
C28 C21 1.403 . S
C28 C29 1.399 . S
C28 H34 0.929 . S
C29 C9 1.446 . S
C29 C28 1.399 . S
C29 H35 0.930 . S
H30 C10 0.931 . S
H31 C11 0.930 . S
H32 C19 0.931 . S
H33 C20 0.929 . S
H34 C28 0.929 . S
H35 C29 0.930 . S
Mn36 O41 2.095 . S
Mn36 O51 2.162 . S
Mn36 O52 2.297 . S
Mn36 O60 2.385 . S
Mn36 O61 2.209 . S
Mn36 O62 2.094 . S
Mn37 O42 2.121 . S
Mn37 N44 2.257 . S
Mn37 N53 2.282 . S
Mn37 O61 2.215 . S
Mn37 O63 2.117 . S
C38 O60 1.234 . S
C38 O61 1.283 . S
C39 O51 1.281 . S
C39 O52 1.236 . S
C40 O62 1.240 . S
C40 O63 1.264 . S
O41 Mn36 2.095 . S
O41 C50 1.250 . S
O42 Mn37 2.121 . S
O42 C50 1.258 . S
C43 N44 1.326 . S
C43 C47 1.460 . S
C43 H49 0.929 . S
N44 Mn37 2.257 . S
N44 C43 1.326 . S
N44 C48 1.362 . S
C45 C46 1.258 . S
C45 C48 1.431 . S
C45 C65 1.449 . S
C46 C45 1.258 . S
C46 C47 1.477 . S
C46 H66 0.931 . S
C47 C43 1.460 . S
C47 C46 1.477 . S
C47 H67 0.930 . S
C48 N44 1.362 . S
C48 C45 1.431 . S
C48 C58 1.476 . S
H49 C43 0.929 . S
C50 O41 1.250 . S
C50 O42 1.258 . S
O51 Mn36 2.162 . S
O51 C39 1.281 . S
O52 Mn36 2.297 . S
O52 C39 1.236 . S
N53 Mn37 2.282 . S
N53 C54 1.328 . S
N53 C58 1.318 . S
C54 N53 1.328 . S
C54 C55 1.457 . S
C54 H59 0.929 . S
C55 C54 1.457 . S
C55 C56 1.291 . S
C55 H68 0.931 . S
C56 C55 1.291 . S
C56 C57 1.373 . S
C56 H69 0.929 . S
C57 C56 1.373 . S
C57 C58 1.396 . S
C57 C64 1.403 . S
C58 C48 1.476 . S
C58 N53 1.318 . S
C58 C57 1.396 . S
H59 C54 0.929 . S
O60 Mn36 2.385 . S
O60 C38 1.234 . S
O61 Mn36 2.209 . S
O61 Mn37 2.215 . S
O61 C38 1.283 . S
O62 Mn36 2.094 . S
O62 C40 1.240 . S
O63 Mn37 2.117 . S
O63 C40 1.264 . S
C64 C57 1.403 . S
C64 C65 1.399 . S
C64 H70 0.929 . S
C65 C45 1.449 . S
C65 C64 1.399 . S
C65 H71 0.930 . S
H66 C46 0.931 . S
H67 C47 0.930 . S
H68 C55 0.931 . S
H69 C56 0.929 . S
H70 C64 0.929 . S
H71 C65 0.930 . S
Mn72 O77 2.095 . S
Mn72 O87 2.162 . S
Mn72 O88 2.297 . S
Mn72 O96 2.385 . S
Mn72 O97 2.209 . S
Mn72 O98 2.094 . S
Mn73 O78 2.121 . S
Mn73 N80 2.257 . S
Mn73 N89 2.282 . S
Mn73 O97 2.215 . S
Mn73 O99 2.117 . S
C74 O96 1.234 . S
C74 O97 1.283 . S
C75 O87 1.281 . S
C75 O88 1.236 . S
C76 O98 1.240 . S
C76 O99 1.264 . S
O77 Mn72 2.095 . S
O77 C86 1.250 . S
O78 Mn73 2.121 . S
O78 C86 1.258 . S
C79 N80 1.326 . S
C79 C83 1.460 . S
C79 H85 0.929 . S
N80 Mn73 2.257 . S
N80 C79 1.326 . S
N80 C84 1.362 . S
C81 C82 1.258 . S
C81 C84 1.431 . S
C81 C101 1.449 . S
C82 C81 1.258 . S
C82 C83 1.477 . S
C82 H102 0.931 . S
C83 C79 1.460 . S
C83 C82 1.477 . S
C83 H103 0.930 . S
C84 N80 1.362 . S
C84 C81 1.431 . S
C84 C94 1.476 . S
H85 C79 0.929 . S
C86 O77 1.250 . S
C86 O78 1.258 . S
O87 Mn72 2.162 . S
O87 C75 1.281 . S
O88 Mn72 2.297 . S
O88 C75 1.236 . S
N89 Mn73 2.282 . S
N89 C90 1.328 . S
N89 C94 1.318 . S
C90 N89 1.328 . S
C90 C91 1.457 . S
C90 H95 0.929 . S
C91 C90 1.457 . S
C91 C92 1.291 . S
C91 H104 0.931 . S
C92 C91 1.291 . S
C92 C93 1.373 . S
C92 H105 0.929 . S
C93 C92 1.373 . S
C93 C94 1.396 . S
C93 C100 1.403 . S
C94 C84 1.476 . S
C94 N89 1.318 . S
C94 C93 1.396 . S
H95 C90 0.929 . S
O96 Mn72 2.385 . S
O96 C74 1.234 . S
O97 Mn72 2.209 . S
O97 Mn73 2.215 . S
O97 C74 1.283 . S
O98 Mn72 2.094 . S
O98 C76 1.240 . S
O99 Mn73 2.117 . S
O99 C76 1.264 . S
C100 C93 1.403 . S
C100 C101 1.399 . S
C100 H106 0.929 . S
C101 C81 1.449 . S
C101 C100 1.399 . S
C101 H107 0.930 . S
H102 C82 0.931 . S
H103 C83 0.930 . S
H104 C91 0.931 . S
H105 C92 0.929 . S
H106 C100 0.929 . S
H107 C101 0.930 . S
Mn108 O113 2.095 . S
Mn108 O123 2.162 . S
Mn108 O124 2.297 . S
Mn108 O132 2.385 . S
Mn108 O133 2.209 . S
Mn108 O134 2.094 . S
Mn109 O114 2.121 . S
Mn109 N116 2.257 . S
Mn109 N125 2.282 . S
Mn109 O133 2.215 . S
Mn109 O135 2.117 . S
C110 O132 1.234 . S
C110 O133 1.283 . S
C111 O123 1.281 . S
C111 O124 1.236 . S
C112 O134 1.240 . S
C112 O135 1.264 . S
O113 Mn108 2.095 . S
O113 C122 1.250 . S
O114 Mn109 2.121 . S
O114 C122 1.258 . S
C115 N116 1.326 . S
C115 C119 1.460 . S
C115 H121 0.929 . S
N116 Mn109 2.257 . S
N116 C115 1.326 . S
N116 C120 1.362 . S
C117 C118 1.258 . S
C117 C120 1.431 . S
C117 C137 1.449 . S
C118 C117 1.258 . S
C118 C119 1.477 . S
C118 H138 0.931 . S
C119 C115 1.460 . S
C119 C118 1.477 . S
C119 H139 0.930 . S
C120 N116 1.362 . S
C120 C117 1.431 . S
C120 C130 1.476 . S
H121 C115 0.929 . S
C122 O113 1.250 . S
C122 O114 1.258 . S
O123 Mn108 2.162 . S
O123 C111 1.281 . S
O124 Mn108 2.297 . S
O124 C111 1.236 . S
N125 Mn109 2.282 . S
N125 C126 1.328 . S
N125 C130 1.318 . S
C126 N125 1.328 . S
C126 C127 1.457 . S
C126 H131 0.929 . S
C127 C126 1.457 . S
C127 C128 1.291 . S
C127 H140 0.931 . S
C128 C127 1.291 . S
C128 C129 1.373 . S
C128 H141 0.929 . S
C129 C128 1.373 . S
C129 C130 1.396 . S
C129 C136 1.403 . S
C130 C120 1.476 . S
C130 N125 1.318 . S
C130 C129 1.396 . S
H131 C126 0.929 . S
O132 Mn108 2.385 . S
O132 C110 1.234 . S
O133 Mn108 2.209 . S
O133 Mn109 2.215 . S
O133 C110 1.283 . S
O134 Mn108 2.094 . S
O134 C112 1.240 . S
O135 Mn109 2.117 . S
O135 C112 1.264 . S
C136 C129 1.403 . S
C136 C137 1.399 . S
C136 H142 0.929 . S
C137 C117 1.449 . S
C137 C136 1.399 . S
C137 H143 0.930 . S
H138 C118 0.931 . S
H139 C119 0.930 . S
H140 C127 0.931 . S
H141 C128 0.929 . S
H142 C136 0.929 . S
H143 C137 0.930 . S
Mn144 O149 2.095 . S
Mn144 O159 2.162 . S
Mn144 O160 2.297 . S
Mn144 O168 2.385 . S
Mn144 O169 2.209 . S
Mn144 O170 2.094 . S
Mn145 O150 2.121 . S
Mn145 N152 2.257 . S
Mn145 N161 2.282 . S
Mn145 O169 2.215 . S
Mn145 O171 2.117 . S
C146 O168 1.234 . S
C146 O169 1.283 . S
C147 O159 1.281 . S
C147 O160 1.236 . S
C148 O170 1.240 . S
C148 O171 1.264 . S
O149 Mn144 2.095 . S
O149 C158 1.250 . S
O150 Mn145 2.121 . S
O150 C158 1.258 . S
C151 N152 1.326 . S
C151 C155 1.460 . S
C151 H157 0.929 . S
N152 Mn145 2.257 . S
N152 C151 1.326 . S
N152 C156 1.362 . S
C153 C154 1.258 . S
C153 C156 1.431 . S
C153 C173 1.449 . S
C154 C153 1.258 . S
C154 C155 1.477 . S
C154 H174 0.931 . S
C155 C151 1.460 . S
C155 C154 1.477 . S
C155 H175 0.930 . S
C156 N152 1.362 . S
C156 C153 1.431 . S
C156 C166 1.476 . S
H157 C151 0.929 . S
C158 O149 1.250 . S
C158 O150 1.258 . S
O159 Mn144 2.162 . S
O159 C147 1.281 . S
O160 Mn144 2.297 . S
O160 C147 1.236 . S
N161 Mn145 2.282 . S
N161 C162 1.328 . S
N161 C166 1.318 . S
C162 N161 1.328 . S
C162 C163 1.457 . S
C162 H167 0.929 . S
C163 C162 1.457 . S
C163 C164 1.291 . S
C163 H176 0.931 1_455 S
C164 C163 1.291 . S
C164 C165 1.373 . S
C164 H177 0.929 1_455 S
C165 C164 1.373 . S
C165 C166 1.396 . S
C165 C172 1.403 . S
C166 C156 1.476 . S
C166 N161 1.318 . S
C166 C165 1.396 . S
H167 C162 0.929 . S
O168 Mn144 2.385 . S
O168 C146 1.234 . S
O169 Mn144 2.209 . S
O169 Mn145 2.215 . S
O169 C146 1.283 . S
O170 Mn144 2.094 . S
O170 C148 1.240 . S
O171 Mn145 2.117 . S
O171 C148 1.264 . S
C172 C165 1.403 . S
C172 C173 1.399 . S
C172 H178 0.929 . S
C173 C153 1.449 . S
C173 C172 1.399 . S
C173 H179 0.930 . S
H174 C154 0.931 . S
H175 C155 0.930 . S
H176 C163 0.931 1_655 S
H177 C164 0.929 1_655 S
H178 C172 0.929 . S
H179 C173 0.930 . S
Mn180 O185 2.095 . S
Mn180 O195 2.162 . S
Mn180 O196 2.297 . S
Mn180 O204 2.385 . S
Mn180 O205 2.209 . S
Mn180 O206 2.094 . S
Mn181 O186 2.121 . S
Mn181 N188 2.257 . S
Mn181 N197 2.282 . S
Mn181 O205 2.215 . S
Mn181 O207 2.117 . S
C182 O204 1.234 . S
C182 O205 1.283 . S
C183 O195 1.281 . S
C183 O196 1.236 . S
C184 O206 1.240 . S
C184 O207 1.264 . S
O185 Mn180 2.095 . S
O185 C194 1.250 . S
O186 Mn181 2.121 . S
O186 C194 1.258 . S
C187 N188 1.326 . S
C187 C191 1.460 . S
C187 H193 0.929 . S
N188 Mn181 2.257 . S
N188 C187 1.326 . S
N188 C192 1.362 . S
C189 C190 1.258 . S
C189 C192 1.431 . S
C189 C209 1.449 . S
C190 C189 1.258 . S
C190 C191 1.477 . S
C190 H210 0.931 . S
C191 C187 1.460 . S
C191 C190 1.477 . S
C191 H211 0.930 . S
C192 N188 1.362 . S
C192 C189 1.431 . S
C192 C202 1.476 . S
H193 C187 0.929 . S
C194 O185 1.250 . S
C194 O186 1.258 . S
O195 Mn180 2.162 . S
O195 C183 1.281 . S
O196 Mn180 2.297 . S
O196 C183 1.236 . S
N197 Mn181 2.282 . S
N197 C198 1.328 . S
N197 C202 1.318 . S
C198 N197 1.328 . S
C198 C199 1.457 . S
C198 H203 0.929 . S
C199 C198 1.457 . S
C199 C200 1.291 . S
C199 H212 0.931 . S
C200 C199 1.291 . S
C200 C201 1.373 . S
C200 H213 0.929 . S
C201 C200 1.373 . S
C201 C202 1.396 . S
C201 C208 1.403 . S
C202 C192 1.476 . S
C202 N197 1.318 . S
C202 C201 1.396 . S
H203 C198 0.929 . S
O204 Mn180 2.385 . S
O204 C182 1.234 . S
O205 Mn180 2.209 . S
O205 Mn181 2.215 . S
O205 C182 1.283 . S
O206 Mn180 2.094 . S
O206 C184 1.240 . S
O207 Mn181 2.117 . S
O207 C184 1.264 . S
C208 C201 1.403 . S
C208 C209 1.399 . S
C208 H214 0.929 . S
C209 C189 1.449 . S
C209 C208 1.399 . S
C209 H215 0.930 . S
H210 C190 0.931 . S
H211 C191 0.930 . S
H212 C199 0.931 . S
H213 C200 0.929 . S
H214 C208 0.929 . S
H215 C209 0.930 . S
Mn216 O221 2.095 . S
Mn216 O231 2.162 . S
Mn216 O232 2.297 . S
Mn216 O240 2.385 . S
Mn216 O241 2.209 . S
Mn216 O242 2.094 . S
Mn217 O222 2.121 . S
Mn217 N224 2.257 . S
Mn217 N233 2.282 . S
Mn217 O241 2.215 . S
Mn217 O243 2.117 . S
C218 O240 1.234 . S
C218 O241 1.283 . S
C219 O231 1.281 . S
C219 O232 1.236 . S
C220 O242 1.240 . S
C220 O243 1.264 . S
O221 Mn216 2.095 . S
O221 C230 1.250 . S
O222 Mn217 2.121 . S
O222 C230 1.258 . S
C223 N224 1.326 . S
C223 C227 1.460 . S
C223 H229 0.929 . S
N224 Mn217 2.257 . S
N224 C223 1.326 . S
N224 C228 1.362 . S
C225 C226 1.258 . S
C225 C228 1.431 . S
C225 C245 1.449 . S
C226 C225 1.258 . S
C226 C227 1.477 . S
C226 H246 0.931 . S
C227 C223 1.460 . S
C227 C226 1.477 . S
C227 H247 0.930 . S
C228 N224 1.362 . S
C228 C225 1.431 . S
C228 C238 1.476 . S
H229 C223 0.929 . S
C230 O221 1.250 . S
C230 O222 1.258 . S
O231 Mn216 2.162 . S
O231 C219 1.281 . S
O232 Mn216 2.297 . S
O232 C219 1.236 . S
N233 Mn217 2.282 . S
N233 C234 1.328 . S
N233 C238 1.318 . S
C234 N233 1.328 . S
C234 C235 1.457 . S
C234 H239 0.929 . S
C235 C234 1.457 . S
C235 C236 1.291 . S
C235 H248 0.931 . S
C236 C235 1.291 . S
C236 C237 1.373 . S
C236 H249 0.929 . S
C237 C236 1.373 . S
C237 C238 1.396 . S
C237 C244 1.403 . S
C238 C228 1.476 . S
C238 N233 1.318 . S
C238 C237 1.396 . S
H239 C234 0.929 . S
O240 Mn216 2.385 . S
O240 C218 1.234 . S
O241 Mn216 2.209 . S
O241 Mn217 2.215 . S
O241 C218 1.283 . S
O242 Mn216 2.094 . S
O242 C220 1.240 . S
O243 Mn217 2.117 . S
O243 C220 1.264 . S
C244 C237 1.403 . S
C244 C245 1.399 . S
C244 H250 0.929 . S
C245 C225 1.449 . S
C245 C244 1.399 . S
C245 H251 0.930 . S
H246 C226 0.931 . S
H247 C227 0.930 . S
H248 C235 0.931 . S
H249 C236 0.929 . S
H250 C244 0.929 . S
H251 C245 0.930 . S
Mn252 O257 2.095 1_655 S
Mn252 O267 2.162 . S
Mn252 O268 2.297 . S
Mn252 O276 2.385 . S
Mn252 O277 2.209 . S
Mn252 O278 2.094 1_655 S
Mn253 O258 2.121 . S
Mn253 N260 2.257 1_455 S
Mn253 N269 2.282 1_455 S
Mn253 O277 2.215 1_455 S
Mn253 O279 2.117 . S
C254 O276 1.234 . S
C254 O277 1.283 . S
C255 O267 1.281 . S
C255 O268 1.236 . S
C256 O278 1.240 . S
C256 O279 1.264 . S
O257 Mn252 2.095 1_455 S
O257 C266 1.250 . S
O258 Mn253 2.121 . S
O258 C266 1.258 . S
C259 N260 1.324 1_455 S
C259 C263 1.459 1_455 S
C259 H265 0.932 . S
N260 Mn253 2.257 1_655 S
N260 C259 1.324 1_655 S
N260 C264 1.362 . S
C261 C262 1.258 . S
C261 C264 1.431 . S
C261 C281 1.449 . S
C262 C261 1.258 . S
C262 C263 1.477 . S
C262 H282 0.931 . S
C263 C259 1.459 1_655 S
C263 C262 1.477 . S
C263 H283 0.930 . S
C264 N260 1.362 . S
C264 C261 1.431 . S
C264 C274 1.476 . S
H265 C259 0.932 . S
C266 O257 1.250 . S
C266 O258 1.258 . S
O267 Mn252 2.162 . S
O267 C255 1.281 . S
O268 Mn252 2.297 . S
O268 C255 1.236 . S
N269 Mn253 2.282 1_655 S
N269 C270 1.328 . S
N269 C274 1.318 . S
C270 N269 1.328 . S
C270 C271 1.457 . S
C270 H275 0.929 . S
C271 C270 1.457 . S
C271 C272 1.291 . S
C271 H284 0.931 . S
C272 C271 1.291 . S
C272 C273 1.373 . S
C272 H285 0.929 . S
C273 C272 1.373 . S
C273 C274 1.396 . S
C273 C280 1.403 . S
C274 C264 1.476 . S
C274 N269 1.318 . S
C274 C273 1.396 . S
H275 C270 0.929 . S
O276 Mn252 2.385 . S
O276 C254 1.234 . S
O277 Mn252 2.209 . S
O277 Mn253 2.215 1_655 S
O277 C254 1.283 . S
O278 Mn252 2.094 1_455 S
O278 C256 1.240 . S
O279 Mn253 2.117 . S
O279 C256 1.264 . S
C280 C273 1.403 . S
C280 C281 1.399 . S
C280 H286 0.929 . S
C281 C261 1.449 . S
C281 C280 1.399 . S
C281 H287 0.930 . S
H282 C262 0.931 . S
H283 C263 0.930 . S
H284 C271 0.931 . S
H285 C272 0.929 . S
H286 C280 0.929 . S
H287 C281 0.930 . S
Mn288 O293 2.095 . S
Mn288 O303 2.162 . S
Mn288 O304 2.297 . S
Mn288 O312 2.385 1_545 S
Mn288 O313 2.209 . S
Mn288 O314 2.094 . S
Mn289 O294 2.121 . S
Mn289 N296 2.258 . S
Mn289 N305 2.282 1_545 S
Mn289 O313 2.215 . S
Mn289 O315 2.117 . S
C290 O312 1.234 . S
C290 O313 1.283 1_565 S
C291 O303 1.281 . S
C291 O304 1.236 . S
C292 O314 1.240 . S
C292 O315 1.264 . S
O293 Mn288 2.095 . S
O293 C302 1.250 . S
O294 Mn289 2.121 . S
O294 C302 1.258 . S
C295 N296 1.332 . S
C295 C299 1.460 1_545 S
C295 H301 0.929 . S
N296 Mn289 2.258 . S
N296 C295 1.332 . S
N296 C300 1.355 1_545 S
C297 C298 1.258 . S
C297 C300 1.431 . S
C297 C317 1.449 . S
C298 C297 1.258 . S
C298 C299 1.477 . S
C298 H318 0.931 . S
C299 C295 1.460 1_565 S
C299 C298 1.477 . S
C299 H319 0.930 1_565 S
C300 N296 1.355 1_565 S
C300 C297 1.431 . S
C300 C310 1.476 . S
H301 C295 0.929 . S
C302 O293 1.250 . S
C302 O294 1.258 . S
O303 Mn288 2.162 . S
O303 C291 1.281 . S
O304 Mn288 2.297 . S
O304 C291 1.236 . S
N305 Mn289 2.282 1_565 S
N305 C306 1.328 . S
N305 C310 1.318 . S
C306 N305 1.328 . S
C306 C307 1.457 . S
C306 H311 0.929 . S
C307 C306 1.457 . S
C307 C308 1.291 . S
C307 H320 0.931 . S
C308 C307 1.291 . S
C308 C309 1.373 . S
C308 H321 0.929 . S
C309 C308 1.373 . S
C309 C310 1.396 . S
C309 C316 1.403 . S
C310 C300 1.476 . S
C310 N305 1.318 . S
C310 C309 1.396 . S
H311 C306 0.929 . S
O312 Mn288 2.385 1_565 S
O312 C290 1.234 . S
O313 Mn288 2.209 . S
O313 Mn289 2.215 . S
O313 C290 1.283 1_545 S
O314 Mn288 2.094 . S
O314 C292 1.240 . S
O315 Mn289 2.117 . S
O315 C292 1.264 . S
C316 C309 1.403 . S
C316 C317 1.399 . S
C316 H322 0.929 . S
C317 C297 1.449 . S
C317 C316 1.399 . S
C317 H323 0.930 . S
H318 C298 0.931 . S
H319 C299 0.930 1_545 S
H320 C307 0.931 . S
H321 C308 0.929 . S
H322 C316 0.929 . S
H323 C317 0.930 . S
Mn324 O329 2.095 . S
Mn324 O339 2.162 . S
Mn324 O340 2.297 . S
Mn324 O348 2.385 . S
Mn324 O349 2.209 . S
Mn324 O350 2.094 . S
Mn325 O330 2.121 . S
Mn325 N332 2.257 . S
Mn325 N341 2.282 . S
Mn325 O349 2.215 . S
Mn325 O351 2.117 . S
C326 O348 1.234 . S
C326 O349 1.283 . S
C327 O339 1.281 . S
C327 O340 1.236 . S
C328 O350 1.240 . S
C328 O351 1.264 . S
O329 Mn324 2.095 . S
O329 C338 1.250 . S
O330 Mn325 2.121 . S
O330 C338 1.258 . S
C331 N332 1.326 . S
C331 C335 1.460 . S
C331 H337 0.929 . S
N332 Mn325 2.257 . S
N332 C331 1.326 . S
N332 C336 1.362 . S
C333 C334 1.258 . S
C333 C336 1.431 . S
C333 C353 1.449 . S
C334 C333 1.258 . S
C334 C335 1.477 . S
C334 H354 0.931 . S
C335 C331 1.460 . S
C335 C334 1.477 . S
C335 H355 0.930 . S
C336 N332 1.362 . S
C336 C333 1.431 . S
C336 C346 1.476 . S
H337 C331 0.929 . S
C338 O329 1.250 . S
C338 O330 1.258 . S
O339 Mn324 2.162 . S
O339 C327 1.281 . S
O340 Mn324 2.297 . S
O340 C327 1.236 . S
N341 Mn325 2.282 . S
N341 C342 1.328 . S
N341 C346 1.318 . S
C342 N341 1.328 . S
C342 C343 1.457 . S
C342 H347 0.929 . S
C343 C342 1.457 . S
C343 C344 1.291 . S
C343 H356 0.931 . S
C344 C343 1.291 . S
C344 C345 1.373 . S
C344 H357 0.929 . S
C345 C344 1.373 . S
C345 C346 1.396 . S
C345 C352 1.403 . S
C346 C336 1.476 . S
C346 N341 1.318 . S
C346 C345 1.396 . S
H347 C342 0.929 . S
O348 Mn324 2.385 . S
O348 C326 1.234 . S
O349 Mn324 2.209 . S
O349 Mn325 2.215 . S
O349 C326 1.283 . S
O350 Mn324 2.094 . S
O350 C328 1.240 . S
O351 Mn325 2.117 . S
O351 C328 1.264 . S
C352 C345 1.403 . S
C352 C353 1.399 . S
C352 H358 0.929 . S
C353 C333 1.449 . S
C353 C352 1.399 . S
C353 H359 0.930 . S
H354 C334 0.931 . S
H355 C335 0.930 . S
H356 C343 0.931 . S
H357 C344 0.929 . S
H358 C352 0.929 . S
H359 C353 0.930 . S
Mn360 O365 2.095 . S
Mn360 O375 2.162 . S
Mn360 O376 2.297 . S
Mn360 O384 2.385 . S
Mn360 O385 2.209 . S
Mn360 O386 2.094 . S
Mn361 O366 2.121 . S
Mn361 N368 2.257 . S
Mn361 N377 2.282 . S
Mn361 O385 2.215 . S
Mn361 O387 2.117 . S
C362 O384 1.234 . S
C362 O385 1.283 . S
C363 O375 1.281 . S
C363 O376 1.236 . S
C364 O386 1.240 . S
C364 O387 1.264 . S
O365 Mn360 2.095 . S
O365 C374 1.250 . S
O366 Mn361 2.121 . S
O366 C374 1.258 . S
C367 N368 1.326 . S
C367 C371 1.460 . S
C367 H373 0.929 . S
N368 Mn361 2.257 . S
N368 C367 1.326 . S
N368 C372 1.362 . S
C369 C370 1.258 . S
C369 C372 1.431 . S
C369 C389 1.449 . S
C370 C369 1.258 . S
C370 C371 1.477 . S
C370 H390 0.931 . S
C371 C367 1.460 . S
C371 C370 1.477 . S
C371 H391 0.930 . S
C372 N368 1.362 . S
C372 C369 1.431 . S
C372 C382 1.476 . S
H373 C367 0.929 . S
C374 O365 1.250 . S
C374 O366 1.258 . S
O375 Mn360 2.162 . S
O375 C363 1.281 . S
O376 Mn360 2.297 . S
O376 C363 1.236 . S
N377 Mn361 2.282 . S
N377 C378 1.328 . S
N377 C382 1.318 . S
C378 N377 1.328 . S
C378 C379 1.457 . S
C378 H383 0.929 . S
C379 C378 1.457 . S
C379 C380 1.291 . S
C379 H392 0.931 . S
C380 C379 1.291 . S
C380 C381 1.373 . S
C380 H393 0.929 . S
C381 C380 1.373 . S
C381 C382 1.396 . S
C381 C388 1.403 . S
C382 C372 1.476 . S
C382 N377 1.318 . S
C382 C381 1.396 . S
H383 C378 0.929 . S
O384 Mn360 2.385 . S
O384 C362 1.234 . S
O385 Mn360 2.209 . S
O385 Mn361 2.215 . S
O385 C362 1.283 . S
O386 Mn360 2.094 . S
O386 C364 1.240 . S
O387 Mn361 2.117 . S
O387 C364 1.264 . S
C388 C381 1.403 . S
C388 C389 1.399 . S
C388 H394 0.929 . S
C389 C369 1.449 . S
C389 C388 1.399 . S
C389 H395 0.930 . S
H390 C370 0.931 . S
H391 C371 0.930 . S
H392 C379 0.931 . S
H393 C380 0.929 . S
H394 C388 0.929 . S
H395 C389 0.930 . S
Mn396 O401 2.095 1_554 S
Mn396 O411 2.162 . S
Mn396 O412 2.297 . S
Mn396 O420 2.385 . S
Mn396 O421 2.201 1_554 S
Mn396 O422 2.094 1_554 S
Mn397 O402 2.121 . S
Mn397 N404 2.257 1_565 S
Mn397 N413 2.282 . S
Mn397 O421 2.246 . S
Mn397 O423 2.117 . S
C398 O420 1.234 . S
C398 O421 1.278 1_554 S
C399 O411 1.281 . S
C399 O412 1.236 . S
C400 O422 1.240 . S
C400 O423 1.264 . S
O401 Mn396 2.095 1_556 S
O401 C410 1.250 . S
O402 Mn397 2.121 . S
O402 C410 1.258 . S
C403 N404 1.326 . S
C403 C407 1.460 . S
C403 H409 0.929 . S
N404 Mn397 2.257 1_545 S
N404 C403 1.326 . S
N404 C408 1.362 . S
C405 C406 1.258 . S
C405 C408 1.431 . S
C405 C425 1.449 . S
C406 C405 1.258 . S
C406 C407 1.477 . S
C406 H426 0.931 . S
C407 C403 1.460 . S
C407 C406 1.477 . S
C407 H427 0.930 . S
C408 N404 1.362 . S
C408 C405 1.431 . S
C408 C418 1.474 . S
H409 C403 0.929 . S
C410 O401 1.250 . S
C410 O402 1.258 . S
O411 Mn396 2.162 . S
O411 C399 1.281 . S
O412 Mn396 2.297 . S
O412 C399 1.236 . S
N413 Mn397 2.282 . S
N413 C414 1.328 . S
N413 C418 1.319 1_565 S
C414 N413 1.328 . S
C414 C415 1.457 . S
C414 H419 0.929 . S
C415 C414 1.457 . S
C415 C416 1.291 . S
C415 H428 0.931 . S
C416 C415 1.291 . S
C416 C417 1.373 1_565 S
C416 H429 0.929 . S
C417 C416 1.373 1_545 S
C417 C418 1.396 . S
C417 C424 1.403 . S
C418 C408 1.474 . S
C418 N413 1.319 1_545 S
C418 C417 1.396 . S
H419 C414 0.929 . S
O420 Mn396 2.385 . S
O420 C398 1.234 . S
O421 Mn396 2.201 1_556 S
O421 Mn397 2.246 . S
O421 C398 1.278 1_556 S
O422 Mn396 2.094 1_556 S
O422 C400 1.240 . S
O423 Mn397 2.117 . S
O423 C400 1.264 . S
C424 C417 1.403 . S
C424 C425 1.399 . S
C424 H430 0.929 . S
C425 C405 1.449 . S
C425 C424 1.399 . S
C425 H431 0.930 . S
H426 C406 0.931 . S
H427 C407 0.930 . S
H428 C415 0.931 . S
H429 C416 0.929 . S
H430 C424 0.929 . S
H431 C425 0.930 . S
Mn432 O437 2.095 . S
Mn432 O447 2.162 . S
Mn432 O448 2.297 . S
Mn432 O456 2.385 . S
Mn432 O457 2.209 . S
Mn432 O458 2.094 . S
Mn433 O438 2.142 . S
Mn433 N440 2.261 . S
Mn433 N449 2.266 1_554 S
Mn433 O457 2.246 . S
Mn433 O459 2.105 1_554 S
C434 O456 1.234 . S
C434 O457 1.283 . S
C435 O447 1.281 . S
C435 O448 1.236 . S
C436 O458 1.240 1_556 S
C436 O459 1.264 . S
O437 Mn432 2.095 . S
O437 C446 1.250 . S
O438 Mn433 2.142 . S
O438 C446 1.258 . S
C439 N440 1.326 . S
C439 C443 1.460 . S
C439 H445 0.929 . S
N440 Mn433 2.261 . S
N440 C439 1.326 . S
N440 C444 1.375 . S
C441 C442 1.258 . S
C441 C444 1.431 . S
C441 C461 1.449 1_554 S
C442 C441 1.258 . S
C442 C443 1.477 . S
C442 H462 0.931 . S
C443 C439 1.460 . S
C443 C442 1.477 . S
C443 H463 0.930 . S
C444 N440 1.375 . S
C444 C441 1.431 . S
C444 C454 1.465 1_554 S
H445 C439 0.929 . S
C446 O437 1.250 . S
C446 O438 1.258 . S
O447 Mn432 2.162 . S
O447 C435 1.281 . S
O448 Mn432 2.297 . S
O448 C435 1.236 . S
N449 Mn433 2.266 1_556 S
N449 C450 1.328 . S
N449 C454 1.318 . S
C450 N449 1.328 . S
C450 C451 1.457 . S
C450 H455 0.929 . S
C451 C450 1.457 . S
C451 C452 1.291 . S
C451 H464 0.931 . S
C452 C451 1.291 . S
C452 C453 1.373 . S
C452 H465 0.929 . S
C453 C452 1.373 . S
C453 C454 1.396 . S
C453 C460 1.403 . S
C454 C444 1.465 1_556 S
C454 N449 1.318 . S
C454 C453 1.396 . S
H455 C450 0.929 . S
O456 Mn432 2.385 . S
O456 C434 1.234 . S
O457 Mn432 2.209 . S
O457 Mn433 2.246 . S
O457 C434 1.283 . S
O458 Mn432 2.094 . S
O458 C436 1.240 1_554 S
O459 Mn433 2.105 1_556 S
O459 C436 1.264 . S
C460 C453 1.403 . S
C460 C461 1.399 . S
C460 H466 0.929 . S
C461 C441 1.449 1_556 S
C461 C460 1.399 . S
C461 H467 0.930 . S
H462 C442 0.931 . S
H463 C443 0.930 . S
H464 C451 0.931 . S
H465 C452 0.929 . S
H466 C460 0.929 . S
H467 C461 0.930 . S
Mn468 O473 2.095 . S
Mn468 O483 2.162 . S
Mn468 O484 2.297 . S
Mn468 O492 2.385 . S
Mn468 O493 2.209 . S
Mn468 O494 2.094 . S
Mn469 O474 2.121 . S
Mn469 N476 2.257 . S
Mn469 N485 2.282 . S
Mn469 O493 2.215 . S
Mn469 O495 2.117 . S
C470 O492 1.234 . S
C470 O493 1.283 . S
C471 O483 1.281 . S
C471 O484 1.236 . S
C472 O494 1.240 . S
C472 O495 1.264 . S
O473 Mn468 2.095 . S
O473 C482 1.250 . S
O474 Mn469 2.121 . S
O474 C482 1.258 . S
C475 N476 1.326 . S
C475 C479 1.460 . S
C475 H481 0.929 . S
N476 Mn469 2.257 . S
N476 C475 1.326 . S
N476 C480 1.362 . S
C477 C478 1.258 . S
C477 C480 1.431 . S
C477 C497 1.449 . S
C478 C477 1.258 . S
C478 C479 1.477 . S
C478 H498 0.931 1_545 S
C479 C475 1.460 . S
C479 C478 1.477 . S
C479 H499 0.930 . S
C480 N476 1.362 . S
C480 C477 1.431 . S
C480 C490 1.476 . S
H481 C475 0.929 . S
C482 O473 1.250 . S
C482 O474 1.258 . S
O483 Mn468 2.162 . S
O483 C471 1.281 . S
O484 Mn468 2.297 . S
O484 C471 1.236 . S
N485 Mn469 2.282 . S
N485 C486 1.328 . S
N485 C490 1.318 . S
C486 N485 1.328 . S
C486 C487 1.457 1_554 S
C486 H491 0.929 . S
C487 C486 1.457 1_556 S
C487 C488 1.291 . S
C487 H500 0.931 . S
C488 C487 1.291 . S
C488 C489 1.384 . S
C488 H501 0.929 . S
C489 C488 1.384 . S
C489 C490 1.386 1_556 S
C489 C496 1.400 . S
C490 C480 1.476 . S
C490 N485 1.318 . S
C490 C489 1.386 1_554 S
H491 C486 0.929 . S
O492 Mn468 2.385 . S
O492 C470 1.234 . S
O493 Mn468 2.209 . S
O493 Mn469 2.215 . S
O493 C470 1.283 . S
O494 Mn468 2.094 . S
O494 C472 1.240 . S
O495 Mn469 2.117 . S
O495 C472 1.264 . S
C496 C489 1.400 . S
C496 C497 1.399 1_556 S
C496 H502 0.929 . S
C497 C477 1.449 . S
C497 C496 1.399 1_554 S
C497 H503 0.930 1_545 S
H498 C478 0.931 1_565 S
H499 C479 0.930 . S
H500 C487 0.931 . S
H501 C488 0.929 . S
H502 C496 0.929 . S
H503 C497 0.930 1_565 S
Mn504 O509 2.095 . S
Mn504 O519 2.162 . S
Mn504 O520 2.297 . S
Mn504 O528 2.385 . S
Mn504 O529 2.209 . S
Mn504 O530 2.094 . S
Mn505 O510 2.121 . S
Mn505 N512 2.257 . S
Mn505 N521 2.282 . S
Mn505 O529 2.215 . S
Mn505 O531 2.117 . S
C506 O528 1.234 . S
C506 O529 1.283 . S
C507 O519 1.281 . S
C507 O520 1.236 . S
C508 O530 1.240 . S
C508 O531 1.264 . S
O509 Mn504 2.095 . S
O509 C518 1.250 . S
O510 Mn505 2.121 . S
O510 C518 1.258 . S
C511 N512 1.326 . S
C511 C515 1.460 . S
C511 H517 0.929 . S
N512 Mn505 2.257 . S
N512 C511 1.326 . S
N512 C516 1.362 . S
C513 C514 1.258 . S
C513 C516 1.431 . S
C513 C533 1.449 . S
C514 C513 1.258 . S
C514 C515 1.477 . S
C514 H534 0.931 . S
C515 C511 1.460 . S
C515 C514 1.477 . S
C515 H535 0.930 . S
C516 N512 1.362 . S
C516 C513 1.431 . S
C516 C526 1.476 . S
H517 C511 0.929 . S
C518 O509 1.250 . S
C518 O510 1.258 . S
O519 Mn504 2.162 . S
O519 C507 1.281 . S
O520 Mn504 2.297 . S
O520 C507 1.236 . S
N521 Mn505 2.282 . S
N521 C522 1.328 . S
N521 C526 1.318 . S
C522 N521 1.328 . S
C522 C523 1.457 . S
C522 H527 0.929 . S
C523 C522 1.457 . S
C523 C524 1.291 . S
C523 H536 0.931 . S
C524 C523 1.291 . S
C524 C525 1.373 . S
C524 H537 0.929 . S
C525 C524 1.373 . S
C525 C526 1.396 . S
C525 C532 1.403 . S
C526 C516 1.476 . S
C526 N521 1.318 . S
C526 C525 1.396 . S
H527 C522 0.929 . S
O528 Mn504 2.385 . S
O528 C506 1.234 . S
O529 Mn504 2.209 . S
O529 Mn505 2.215 . S
O529 C506 1.283 . S
O530 Mn504 2.094 . S
O530 C508 1.240 . S
O531 Mn505 2.117 . S
O531 C508 1.264 . S
C532 C525 1.403 . S
C532 C533 1.399 . S
C532 H538 0.929 . S
C533 C513 1.449 . S
C533 C532 1.399 . S
C533 H539 0.930 . S
H534 C514 0.931 . S
H535 C515 0.930 . S
H536 C523 0.931 . S
H537 C524 0.929 . S
H538 C532 0.929 . S
H539 C533 0.930 . S
Mn540 O545 2.095 . S
Mn540 O555 2.162 . S
Mn540 O556 2.297 . S
Mn540 O564 2.385 . S
Mn540 O565 2.209 . S
Mn540 O566 2.094 . S
Mn541 O546 2.121 . S
Mn541 N548 2.257 . S
Mn541 N557 2.282 . S
Mn541 O565 2.215 . S
Mn541 O567 2.117 . S
C542 O564 1.234 . S
C542 O565 1.283 . S
C543 O555 1.281 . S
C543 O556 1.236 . S
C544 O566 1.240 . S
C544 O567 1.264 . S
O545 Mn540 2.095 . S
O545 C554 1.250 . S
O546 Mn541 2.121 . S
O546 C554 1.258 . S
C547 N548 1.326 . S
C547 C551 1.460 . S
C547 H553 0.929 . S
N548 Mn541 2.257 . S
N548 C547 1.326 . S
N548 C552 1.362 . S
C549 C550 1.258 . S
C549 C552 1.431 . S
C549 C569 1.449 . S
C550 C549 1.258 . S
C550 C551 1.477 . S
C550 H570 0.931 1_565 S
C551 C547 1.460 . S
C551 C550 1.477 . S
C551 H571 0.930 1_565 S
C552 N548 1.362 . S
C552 C549 1.431 . S
C552 C562 1.476 . S
H553 C547 0.929 . S
C554 O545 1.250 . S
C554 O546 1.258 . S
O555 Mn540 2.162 . S
O555 C543 1.281 . S
O556 Mn540 2.297 . S
O556 C543 1.236 . S
N557 Mn541 2.282 . S
N557 C558 1.328 . S
N557 C562 1.318 . S
C558 N557 1.328 . S
C558 C559 1.457 . S
C558 H563 0.929 . S
C559 C558 1.457 . S
C559 C560 1.291 . S
C559 H572 0.931 . S
C560 C559 1.291 . S
C560 C561 1.373 . S
C560 H573 0.929 . S
C561 C560 1.373 . S
C561 C562 1.396 . S
C561 C568 1.403 . S
C562 C552 1.476 . S
C562 N557 1.318 . S
C562 C561 1.396 . S
H563 C558 0.929 . S
O564 Mn540 2.385 . S
O564 C542 1.234 . S
O565 Mn540 2.209 . S
O565 Mn541 2.215 . S
O565 C542 1.283 . S
O566 Mn540 2.094 . S
O566 C544 1.240 . S
O567 Mn541 2.117 . S
O567 C544 1.264 . S
C568 C561 1.403 . S
C568 C569 1.399 . S
C568 H574 0.929 . S
C569 C549 1.449 . S
C569 C568 1.399 . S
C569 H575 0.930 1_565 S
H570 C550 0.931 1_545 S
H571 C551 0.930 1_545 S
H572 C559 0.931 . S
H573 C560 0.929 . S
H574 C568 0.929 . S
H575 C569 0.930 1_545 S
Mn576 O581 2.095 . S
Mn576 O591 2.162 . S
Mn576 O592 2.297 . S
Mn576 O600 2.385 1_545 S
Mn576 O601 2.209 1_545 S
Mn576 O602 2.094 . S
Mn577 O582 2.121 1_565 S
Mn577 N584 2.257 . S
Mn577 N593 2.282 . S
Mn577 O601 2.215 . S
Mn577 O603 2.117 1_565 S
C578 O600 1.234 . S
C578 O601 1.283 . S
C579 O591 1.281 . S
C579 O592 1.236 . S
C580 O602 1.240 . S
C580 O603 1.264 . S
O581 Mn576 2.095 . S
O581 C590 1.250 . S
O582 Mn577 2.121 1_545 S
O582 C590 1.258 . S
C583 N584 1.326 . S
C583 C587 1.460 . S
C583 H589 0.929 1_565 S
N584 Mn577 2.257 . S
N584 C583 1.326 . S
N584 C588 1.362 . S
C585 C586 1.258 . S
C585 C588 1.431 . S
C585 C605 1.449 . S
C586 C585 1.258 . S
C586 C587 1.477 . S
C586 H606 0.931 . S
C587 C583 1.460 . S
C587 C586 1.477 . S
C587 H607 0.930 . S
C588 N584 1.362 . S
C588 C585 1.431 . S
C588 C598 1.476 . S
H589 C583 0.929 1_545 S
C590 O581 1.250 . S
C590 O582 1.258 . S
O591 Mn576 2.162 . S
O591 C579 1.281 . S
O592 Mn576 2.297 . S
O592 C579 1.236 . S
N593 Mn577 2.282 . S
N593 C594 1.328 . S
N593 C598 1.318 . S
C594 N593 1.328 . S
C594 C595 1.457 . S
C594 H599 0.929 . S
C595 C594 1.457 . S
C595 C596 1.291 . S
C595 H608 0.931 . S
C596 C595 1.291 . S
C596 C597 1.373 . S
C596 H609 0.929 . S
C597 C596 1.373 . S
C597 C598 1.396 . S
C597 C604 1.403 . S
C598 C588 1.476 . S
C598 N593 1.318 . S
C598 C597 1.396 . S
H599 C594 0.929 . S
O600 Mn576 2.385 1_565 S
O600 C578 1.234 . S
O601 Mn576 2.209 1_565 S
O601 Mn577 2.215 . S
O601 C578 1.283 . S
O602 Mn576 2.094 . S
O602 C580 1.240 . S
O603 Mn577 2.117 1_545 S
O603 C580 1.264 . S
C604 C597 1.403 . S
C604 C605 1.399 . S
C604 H610 0.929 . S
C605 C585 1.449 . S
C605 C604 1.399 . S
C605 H611 0.930 . S
H606 C586 0.931 . S
H607 C587 0.930 . S
H608 C595 0.931 . S
H609 C596 0.929 . S
H610 C604 0.929 . S
H611 C605 0.930 . S
Mn612 O617 2.095 . S
Mn612 O627 2.162 . S
Mn612 O628 2.297 . S
Mn612 O636 2.385 . S
Mn612 O637 2.209 . S
Mn612 O638 2.094 . S
Mn613 O618 2.121 . S
Mn613 N620 2.257 . S
Mn613 N629 2.282 . S
Mn613 O637 2.215 . S
Mn613 O639 2.117 . S
C614 O636 1.234 . S
C614 O637 1.283 . S
C615 O627 1.281 . S
C615 O628 1.236 . S
C616 O638 1.240 . S
C616 O639 1.264 . S
O617 Mn612 2.095 . S
O617 C626 1.250 . S
O618 Mn613 2.121 . S
O618 C626 1.258 . S
C619 N620 1.326 . S
C619 C623 1.460 . S
C619 H625 0.929 . S
N620 Mn613 2.257 . S
N620 C619 1.326 . S
N620 C624 1.362 . S
C621 C622 1.258 . S
C621 C624 1.431 . S
C621 C641 1.449 . S
C622 C621 1.258 . S
C622 C623 1.477 . S
C622 H642 0.931 . S
C623 C619 1.460 . S
C623 C622 1.477 . S
C623 H643 0.930 . S
C624 N620 1.362 . S
C624 C621 1.431 . S
C624 C634 1.476 . S
H625 C619 0.929 . S
C626 O617 1.250 . S
C626 O618 1.258 . S
O627 Mn612 2.162 . S
O627 C615 1.281 . S
O628 Mn612 2.297 . S
O628 C615 1.236 . S
N629 Mn613 2.282 . S
N629 C630 1.328 . S
N629 C634 1.318 . S
C630 N629 1.328 . S
C630 C631 1.457 . S
C630 H635 0.929 . S
C631 C630 1.457 . S
C631 C632 1.291 . S
C631 H644 0.931 . S
C632 C631 1.291 . S
C632 C633 1.373 . S
C632 H645 0.929 . S
C633 C632 1.373 . S
C633 C634 1.396 . S
C633 C640 1.403 . S
C634 C624 1.476 . S
C634 N629 1.318 . S
C634 C633 1.396 . S
H635 C630 0.929 . S
O636 Mn612 2.385 . S
O636 C614 1.234 . S
O637 Mn612 2.209 . S
O637 Mn613 2.215 . S
O637 C614 1.283 . S
O638 Mn612 2.094 . S
O638 C616 1.240 . S
O639 Mn613 2.117 . S
O639 C616 1.264 . S
C640 C633 1.403 . S
C640 C641 1.399 . S
C640 H646 0.929 . S
C641 C621 1.449 . S
C641 C640 1.399 . S
C641 H647 0.930 . S
H642 C622 0.931 . S
H643 C623 0.930 . S
H644 C631 0.931 . S
H645 C632 0.929 . S
H646 C640 0.929 . S
H647 C641 0.930 . S
Mn648 O653 2.095 . S
Mn648 O663 2.162 . S
Mn648 O664 2.297 . S
Mn648 O672 2.385 . S
Mn648 O673 2.209 . S
Mn648 O674 2.094 . S
Mn649 O654 2.121 . S
Mn649 N656 2.257 . S
Mn649 N665 2.282 . S
Mn649 O673 2.215 . S
Mn649 O675 2.117 . S
C650 O672 1.234 . S
C650 O673 1.283 . S
C651 O663 1.281 . S
C651 O664 1.236 . S
C652 O674 1.240 . S
C652 O675 1.264 . S
O653 Mn648 2.095 . S
O653 C662 1.250 . S
O654 Mn649 2.121 . S
O654 C662 1.258 . S
C655 N656 1.326 . S
C655 C659 1.460 . S
C655 H661 0.929 . S
N656 Mn649 2.257 . S
N656 C655 1.326 . S
N656 C660 1.362 . S
C657 C658 1.258 . S
C657 C660 1.431 . S
C657 C677 1.449 . S
C658 C657 1.258 . S
C658 C659 1.477 . S
C658 H678 0.931 . S
C659 C655 1.460 . S
C659 C658 1.477 . S
C659 H679 0.930 . S
C660 N656 1.362 . S
C660 C657 1.431 . S
C660 C670 1.476 . S
H661 C655 0.929 . S
C662 O653 1.250 . S
C662 O654 1.258 . S
O663 Mn648 2.162 . S
O663 C651 1.281 . S
O664 Mn648 2.297 . S
O664 C651 1.236 . S
N665 Mn649 2.282 . S
N665 C666 1.328 . S
N665 C670 1.318 . S
C666 N665 1.328 . S
C666 C667 1.457 . S
C666 H671 0.929 . S
C667 C666 1.457 . S
C667 C668 1.291 . S
C667 H680 0.931 . S
C668 C667 1.291 . S
C668 C669 1.373 . S
C668 H681 0.929 . S
C669 C668 1.373 . S
C669 C670 1.396 . S
C669 C676 1.403 . S
C670 C660 1.476 . S
C670 N665 1.318 . S
C670 C669 1.396 . S
H671 C666 0.929 . S
O672 Mn648 2.385 . S
O672 C650 1.234 . S
O673 Mn648 2.209 . S
O673 Mn649 2.215 . S
O673 C650 1.283 . S
O674 Mn648 2.094 . S
O674 C652 1.240 . S
O675 Mn649 2.117 . S
O675 C652 1.264 . S
C676 C669 1.403 . S
C676 C677 1.399 . S
C676 H682 0.929 . S
C677 C657 1.449 . S
C677 C676 1.399 . S
C677 H683 0.930 . S
H678 C658 0.931 . S
H679 C659 0.930 . S
H680 C667 0.931 . S
H681 C668 0.929 . S
H682 C676 0.929 . S
H683 C677 0.930 . S
Mn684 O689 2.095 . S
Mn684 O699 2.162 . S
Mn684 O700 2.297 . S
Mn684 O708 2.385 . S
Mn684 O709 2.209 . S
Mn684 O710 2.094 . S
Mn685 O690 2.121 . S
Mn685 N692 2.257 . S
Mn685 N701 2.282 . S
Mn685 O709 2.215 . S
Mn685 O711 2.117 . S
C686 O708 1.234 . S
C686 O709 1.283 . S
C687 O699 1.281 . S
C687 O700 1.236 . S
C688 O710 1.240 . S
C688 O711 1.264 . S
O689 Mn684 2.095 . S
O689 C698 1.250 . S
O690 Mn685 2.121 . S
O690 C698 1.258 . S
C691 N692 1.326 . S
C691 C695 1.460 . S
C691 H697 0.929 . S
N692 Mn685 2.257 . S
N692 C691 1.326 . S
N692 C696 1.362 . S
C693 C694 1.258 . S
C693 C696 1.431 . S
C693 C713 1.449 . S
C694 C693 1.258 . S
C694 C695 1.477 . S
C694 H714 0.931 . S
C695 C691 1.460 . S
C695 C694 1.477 . S
C695 H715 0.930 . S
C696 N692 1.362 . S
C696 C693 1.431 . S
C696 C706 1.476 . S
H697 C691 0.929 . S
C698 O689 1.250 . S
C698 O690 1.258 . S
O699 Mn684 2.162 . S
O699 C687 1.281 . S
O700 Mn684 2.297 . S
O700 C687 1.236 . S
N701 Mn685 2.282 . S
N701 C702 1.328 . S
N701 C706 1.318 . S
C702 N701 1.328 . S
C702 C703 1.457 . S
C702 H707 0.929 . S
C703 C702 1.457 . S
C703 C704 1.291 . S
C703 H716 0.931 . S
C704 C703 1.291 . S
C704 C705 1.373 . S
C704 H717 0.929 . S
C705 C704 1.373 . S
C705 C706 1.396 . S
C705 C712 1.403 . S
C706 C696 1.476 . S
C706 N701 1.318 . S
C706 C705 1.396 . S
H707 C702 0.929 . S
O708 Mn684 2.385 . S
O708 C686 1.234 . S
O709 Mn684 2.209 . S
O709 Mn685 2.215 . S
O709 C686 1.283 . S
O710 Mn684 2.094 . S
O710 C688 1.240 . S
O711 Mn685 2.117 . S
O711 C688 1.264 . S
C712 C705 1.403 . S
C712 C713 1.399 . S
C712 H718 0.929 . S
C713 C693 1.449 . S
C713 C712 1.399 . S
C713 H719 0.930 . S
H714 C694 0.931 . S
H715 C695 0.930 . S
H716 C703 0.931 . S
H717 C704 0.929 . S
H718 C712 0.929 . S
H719 C713 0.930 . S
Mn720 O725 2.095 . S
Mn720 O735 2.162 . S
Mn720 O736 2.297 . S
Mn720 O744 2.385 . S
Mn720 O745 2.209 . S
Mn720 O746 2.094 . S
Mn721 O726 2.121 1_556 S
Mn721 N728 2.257 . S
Mn721 N737 2.282 . S
Mn721 O745 2.215 1_556 S
Mn721 O747 2.117 . S
C722 O744 1.234 . S
C722 O745 1.283 . S
C723 O735 1.281 . S
C723 O736 1.236 . S
C724 O746 1.240 1_556 S
C724 O747 1.264 . S
O725 Mn720 2.095 . S
O725 C734 1.250 . S
O726 Mn721 2.121 1_554 S
O726 C734 1.258 . S
C727 N728 1.326 1_554 S
C727 C731 1.460 . S
C727 H733 0.929 . S
N728 Mn721 2.257 . S
N728 C727 1.326 1_556 S
N728 C732 1.362 . S
C729 C730 1.258 . S
C729 C732 1.431 . S
C729 C749 1.449 . S
C730 C729 1.258 . S
C730 C731 1.477 1_556 S
C730 H750 0.931 . S
C731 C727 1.460 . S
C731 C730 1.477 1_554 S
C731 H751 0.930 . S
C732 N728 1.362 . S
C732 C729 1.431 . S
C732 C742 1.476 . S
H733 C727 0.929 . S
C734 O725 1.250 . S
C734 O726 1.258 . S
O735 Mn720 2.162 . S
O735 C723 1.281 . S
O736 Mn720 2.297 . S
O736 C723 1.236 . S
N737 Mn721 2.282 . S
N737 C738 1.328 . S
N737 C742 1.318 . S
C738 N737 1.328 . S
C738 C739 1.457 . S
C738 H743 0.929 . S
C739 C738 1.457 . S
C739 C740 1.291 . S
C739 H752 0.931 . S
C740 C739 1.291 . S
C740 C741 1.373 . S
C740 H753 0.929 . S
C741 C740 1.373 . S
C741 C742 1.396 . S
C741 C748 1.403 . S
C742 C732 1.476 . S
C742 N737 1.318 . S
C742 C741 1.396 . S
H743 C738 0.929 . S
O744 Mn720 2.385 . S
O744 C722 1.234 . S
O745 Mn720 2.209 . S
O745 Mn721 2.215 1_554 S
O745 C722 1.283 . S
O746 Mn720 2.094 . S
O746 C724 1.240 1_554 S
O747 Mn721 2.117 . S
O747 C724 1.264 . S
C748 C741 1.403 . S
C748 C749 1.399 . S
C748 H754 0.929 . S
C749 C729 1.449 . S
C749 C748 1.399 . S
C749 H755 0.930 . S
H750 C730 0.931 . S
H751 C731 0.930 . S
H752 C739 0.931 . S
H753 C740 0.929 . S
H754 C748 0.929 . S
H755 C749 0.930 . S
Mn756 O761 2.095 . S
Mn756 O771 2.162 . S
Mn756 O772 2.297 . S
Mn756 O780 2.385 . S
Mn756 O781 2.209 . S
Mn756 O782 2.094 . S
Mn757 O762 2.121 . S
Mn757 N764 2.257 . S
Mn757 N773 2.282 . S
Mn757 O781 2.215 . S
Mn757 O783 2.117 . S
C758 O780 1.234 . S
C758 O781 1.283 . S
C759 O771 1.281 . S
C759 O772 1.236 . S
C760 O782 1.240 . S
C760 O783 1.264 . S
O761 Mn756 2.095 . S
O761 C770 1.250 . S
O762 Mn757 2.121 . S
O762 C770 1.258 . S
C763 N764 1.326 . S
C763 C767 1.460 . S
C763 H769 0.929 . S
N764 Mn757 2.257 . S
N764 C763 1.326 . S
N764 C768 1.362 . S
C765 C766 1.258 . S
C765 C768 1.431 . S
C765 C785 1.449 . S
C766 C765 1.258 . S
C766 C767 1.477 . S
C766 H786 0.931 . S
C767 C763 1.460 . S
C767 C766 1.477 . S
C767 H787 0.930 . S
C768 N764 1.362 . S
C768 C765 1.431 . S
C768 C778 1.476 . S
H769 C763 0.929 . S
C770 O761 1.250 . S
C770 O762 1.258 . S
O771 Mn756 2.162 . S
O771 C759 1.281 . S
O772 Mn756 2.297 . S
O772 C759 1.236 . S
N773 Mn757 2.282 . S
N773 C774 1.328 . S
N773 C778 1.318 . S
C774 N773 1.328 . S
C774 C775 1.457 . S
C774 H779 0.929 . S
C775 C774 1.457 . S
C775 C776 1.291 . S
C775 H788 0.931 . S
C776 C775 1.291 . S
C776 C777 1.373 . S
C776 H789 0.929 . S
C777 C776 1.373 . S
C777 C778 1.396 . S
C777 C784 1.403 . S
C778 C768 1.476 . S
C778 N773 1.318 . S
C778 C777 1.396 . S
H779 C774 0.929 . S
O780 Mn756 2.385 . S
O780 C758 1.234 . S
O781 Mn756 2.209 . S
O781 Mn757 2.215 . S
O781 C758 1.283 . S
O782 Mn756 2.094 . S
O782 C760 1.240 . S
O783 Mn757 2.117 . S
O783 C760 1.264 . S
C784 C777 1.403 . S
C784 C785 1.399 . S
C784 H790 0.929 . S
C785 C765 1.449 . S
C785 C784 1.399 . S
C785 H791 0.930 . S
H786 C766 0.931 . S
H787 C767 0.930 . S
H788 C775 0.931 . S
H789 C776 0.929 . S
H790 C784 0.929 . S
H791 C785 0.930 . S
Mn792 O797 2.095 . S
Mn792 O807 2.162 . S
Mn792 O808 2.297 . S
Mn792 O816 2.385 . S
Mn792 O817 2.209 . S
Mn792 O818 2.094 . S
Mn793 O798 2.121 . S
Mn793 N800 2.257 . S
Mn793 N809 2.282 . S
Mn793 O817 2.215 . S
Mn793 O819 2.117 . S
C794 O816 1.234 . S
C794 O817 1.283 . S
C795 O807 1.281 . S
C795 O808 1.236 . S
C796 O818 1.240 . S
C796 O819 1.264 . S
O797 Mn792 2.095 . S
O797 C806 1.250 . S
O798 Mn793 2.121 . S
O798 C806 1.258 . S
C799 N800 1.326 . S
C799 C803 1.460 . S
C799 H805 0.929 . S
N800 Mn793 2.257 . S
N800 C799 1.326 . S
N800 C804 1.362 . S
C801 C802 1.258 . S
C801 C804 1.431 . S
C801 C821 1.449 . S
C802 C801 1.258 . S
C802 C803 1.477 . S
C802 H822 0.931 . S
C803 C799 1.460 . S
C803 C802 1.477 . S
C803 H823 0.930 . S
C804 N800 1.362 . S
C804 C801 1.431 . S
C804 C814 1.476 . S
H805 C799 0.929 . S
C806 O797 1.250 . S
C806 O798 1.258 . S
O807 Mn792 2.162 . S
O807 C795 1.281 . S
O808 Mn792 2.297 . S
O808 C795 1.236 . S
N809 Mn793 2.282 . S
N809 C810 1.328 . S
N809 C814 1.318 . S
C810 N809 1.328 . S
C810 C811 1.457 . S
C810 H815 0.929 . S
C811 C810 1.457 . S
C811 C812 1.291 . S
C811 H824 0.931 . S
C812 C811 1.291 . S
C812 C813 1.373 . S
C812 H825 0.929 . S
C813 C812 1.373 . S
C813 C814 1.396 . S
C813 C820 1.403 . S
C814 C804 1.476 . S
C814 N809 1.318 . S
C814 C813 1.396 . S
H815 C810 0.929 . S
O816 Mn792 2.385 . S
O816 C794 1.234 . S
O817 Mn792 2.209 . S
O817 Mn793 2.215 . S
O817 C794 1.283 . S
O818 Mn792 2.094 . S
O818 C796 1.240 . S
O819 Mn793 2.117 . S
O819 C796 1.264 . S
C820 C813 1.403 . S
C820 C821 1.399 . S
C820 H826 0.929 . S
C821 C801 1.449 . S
C821 C820 1.399 . S
C821 H827 0.930 . S
H822 C802 0.931 . S
H823 C803 0.930 . S
H824 C811 0.931 . S
H825 C812 0.929 . S
H826 C820 0.929 . S
H827 C821 0.930 . S
Mn828 O833 2.095 . S
Mn828 O843 2.162 . S
Mn828 O844 2.297 . S
Mn828 O852 2.385 . S
Mn828 O853 2.209 . S
Mn828 O854 2.094 . S
Mn829 O834 2.121 . S
Mn829 N836 2.257 . S
Mn829 N845 2.282 . S
Mn829 O853 2.215 . S
Mn829 O855 2.117 . S
C830 O852 1.234 . S
C830 O853 1.283 . S
C831 O843 1.281 . S
C831 O844 1.236 . S
C832 O854 1.240 . S
C832 O855 1.264 . S
O833 Mn828 2.095 . S
O833 C842 1.250 . S
O834 Mn829 2.121 . S
O834 C842 1.258 . S
C835 N836 1.326 . S
C835 C839 1.460 . S
C835 H841 0.929 . S
N836 Mn829 2.257 . S
N836 C835 1.326 . S
N836 C840 1.362 . S
C837 C838 1.258 . S
C837 C840 1.431 . S
C837 C857 1.449 . S
C838 C837 1.258 . S
C838 C839 1.477 . S
C838 H858 0.931 . S
C839 C835 1.460 . S
C839 C838 1.477 . S
C839 H859 0.930 . S
C840 N836 1.362 . S
C840 C837 1.431 . S
C840 C850 1.476 . S
H841 C835 0.929 . S
C842 O833 1.250 . S
C842 O834 1.258 . S
O843 Mn828 2.162 . S
O843 C831 1.281 . S
O844 Mn828 2.297 . S
O844 C831 1.236 . S
N845 Mn829 2.282 . S
N845 C846 1.328 . S
N845 C850 1.318 . S
C846 N845 1.328 . S
C846 C847 1.457 . S
C846 H851 0.929 . S
C847 C846 1.457 . S
C847 C848 1.291 . S
C847 H860 0.931 . S
C848 C847 1.291 . S
C848 C849 1.373 . S
C848 H861 0.929 . S
C849 C848 1.373 . S
C849 C850 1.396 . S
C849 C856 1.403 . S
C850 C840 1.476 . S
C850 N845 1.318 . S
C850 C849 1.396 . S
H851 C846 0.929 . S
O852 Mn828 2.385 . S
O852 C830 1.234 . S
O853 Mn828 2.209 . S
O853 Mn829 2.215 . S
O853 C830 1.283 . S
O854 Mn828 2.094 . S
O854 C832 1.240 . S
O855 Mn829 2.117 . S
O855 C832 1.264 . S
C856 C849 1.403 . S
C856 C857 1.399 . S
C856 H862 0.929 . S
C857 C837 1.449 . S
C857 C856 1.399 . S
C857 H863 0.930 . S
H858 C838 0.931 . S
H859 C839 0.930 . S
H860 C847 0.931 . S
H861 C848 0.929 . S
H862 C856 0.929 . S
H863 C857 0.930 . S
Tb864 C873 2.764 . S
Tb864 O874 2.290 1_545 S
Tb864 O877 2.303 . S
Tb864 O881 2.322 . S
Tb864 O882 2.349 . S
Tb864 O885 2.415 . S
Tb864 O886 2.399 . S
Tb865 O875 2.322 1_545 S
Tb865 O876 2.349 1_554 S
Tb865 O878 2.415 1_455 S
Tb865 O879 2.399 1_454 S
Tb865 O880 2.325 . S
Tb865 O883 2.303 . S
Tb865 C894 2.764 1_455 S
C866 O882 1.261 . S
C866 O883 1.257 . S
C867 C870 1.358 . S
C867 C871 1.332 . S
C867 C873 1.504 . S
C868 C869 1.373 . S
C868 C872 1.308 . S
C869 C868 1.373 . S
C869 C870 1.429 . S
C869 H896 0.932 . S
C870 C867 1.358 . S
C870 C869 1.429 . S
C870 H897 0.930 . S
C871 C867 1.332 . S
C871 C872 1.394 . S
C871 H898 0.932 . S
C872 C868 1.308 . S
C872 C871 1.394 . S
C872 H899 0.929 1_545 S
C873 Tb864 2.764 . S
C873 C867 1.504 . S
C873 O885 1.239 . S
C873 O886 1.263 . S
O874 Tb864 2.290 1_565 S
O874 C884 1.257 . S
O875 Tb865 2.322 1_565 S
O875 C884 1.257 . S
O876 Tb865 2.349 1_556 S
O876 C887 1.261 . S
O877 Tb864 2.303 . S
O877 C887 1.257 1_554 S
O878 Tb865 2.415 1_655 S
O878 C894 1.239 . S
O879 Tb865 2.399 1_656 S
O879 C894 1.263 1_556 S
O880 Tb865 2.325 . S
O880 C895 1.236 . S
O881 Tb864 2.322 . S
O881 C895 1.257 . S
O882 Tb864 2.349 . S
O882 C866 1.261 . S
O883 Tb865 2.303 . S
O883 C866 1.257 . S
C884 O874 1.257 . S
C884 O875 1.257 . S
O885 Tb864 2.415 . S
O885 C873 1.239 . S
O886 Tb864 2.399 . S
O886 C873 1.263 . S
C887 O876 1.261 . S
C887 O877 1.257 1_556 S
C888 C891 1.358 1_554 S
C888 C892 1.332 . S
C888 C894 1.504 . S
C889 C890 1.373 . S
C889 C893 1.308 1_556 S
C890 C889 1.373 . S
C890 C891 1.429 . S
C890 H900 0.932 . S
C891 C888 1.358 1_556 S
C891 C890 1.429 . S
C891 H901 0.930 . S
C892 C888 1.332 . S
C892 C893 1.394 . S
C892 H902 0.932 . S
C893 C889 1.308 1_554 S
C893 C892 1.394 . S
C893 H903 0.929 . S
C894 Tb865 2.764 1_655 S
C894 O878 1.239 . S
C894 O879 1.263 1_554 S
C894 C888 1.504 . S
C895 O880 1.236 . S
C895 O881 1.257 . S
H896 C869 0.932 . S
H897 C870 0.930 . S
H898 C871 0.932 . S
H899 C872 0.929 1_565 S
H900 C890 0.932 . S
H901 C891 0.930 . S
H902 C892 0.932 . S
H903 C893 0.929 . S
Tb904 C913 2.764 . S
Tb904 O914 2.325 . S
Tb904 O917 2.303 . S
Tb904 O921 2.322 . S
Tb904 O922 2.349 . S
Tb904 O925 2.415 . S
Tb904 O926 2.399 . S
Tb905 O915 2.322 . S
Tb905 O916 2.349 . S
Tb905 O918 2.415 . S
Tb905 O919 2.399 . S
Tb905 O920 2.325 . S
Tb905 O923 2.303 . S
Tb905 C934 2.764 . S
C906 O922 1.261 . S
C906 O923 1.257 . S
C907 C910 1.358 . S
C907 C911 1.332 . S
C907 C913 1.504 . S
C908 C909 1.373 . S
C908 C912 1.308 . S
C909 C908 1.373 . S
C909 C910 1.429 . S
C909 H936 0.932 . S
C910 C907 1.358 . S
C910 C909 1.429 . S
C910 H937 0.930 . S
C911 C907 1.332 . S
C911 C912 1.394 . S
C911 H938 0.932 . S
C912 C908 1.308 . S
C912 C911 1.394 . S
C912 H939 0.929 . S
C913 Tb904 2.764 . S
C913 C907 1.504 . S
C913 O925 1.239 . S
C913 O926 1.263 . S
O914 Tb904 2.325 . S
O914 C924 1.236 . S
O915 Tb905 2.322 . S
O915 C924 1.257 . S
O916 Tb905 2.349 . S
O916 C927 1.261 . S
O917 Tb904 2.303 . S
O917 C927 1.257 . S
O918 Tb905 2.415 . S
O918 C934 1.239 . S
O919 Tb905 2.399 . S
O919 C934 1.263 . S
O920 Tb905 2.325 . S
O920 C935 1.236 . S
O921 Tb904 2.322 . S
O921 C935 1.257 . S
O922 Tb904 2.349 . S
O922 C906 1.261 . S
O923 Tb905 2.303 . S
O923 C906 1.257 . S
C924 O914 1.236 . S
C924 O915 1.257 . S
O925 Tb904 2.415 . S
O925 C913 1.239 . S
O926 Tb904 2.399 . S
O926 C913 1.263 . S
C927 O916 1.261 . S
C927 O917 1.257 . S
C928 C931 1.358 . S
C928 C932 1.332 . S
C928 C934 1.504 . S
C929 C930 1.373 . S
C929 C933 1.308 . S
C930 C929 1.373 . S
C930 C931 1.429 . S
C930 H940 0.932 . S
C931 C928 1.358 . S
C931 C930 1.429 . S
C931 H941 0.930 . S
C932 C928 1.332 . S
C932 C933 1.394 . S
C932 H942 0.932 . S
C933 C929 1.308 . S
C933 C932 1.394 . S
C933 H943 0.929 . S
C934 Tb905 2.764 . S
C934 O918 1.239 . S
C934 O919 1.263 . S
C934 C928 1.504 . S
C935 O920 1.236 . S
C935 O921 1.257 . S
H936 C909 0.932 . S
H937 C910 0.930 . S
H938 C911 0.932 . S
H939 C912 0.929 . S
H940 C930 0.932 . S
H941 C931 0.930 . S
H942 C932 0.932 . S
H943 C933 0.929 . S
Tb944 C953 2.764 . S
Tb944 O954 2.325 . S
Tb944 O957 2.303 . S
Tb944 O961 2.322 1_545 S
Tb944 O962 2.349 . S
Tb944 O965 2.415 . S
Tb944 O966 2.399 . S
Tb945 O955 2.322 . S
Tb945 O956 2.349 . S
Tb945 O958 2.415 . S
Tb945 O959 2.399 . S
Tb945 O960 2.325 . S
Tb945 O963 2.303 . S
Tb945 C974 2.764 . S
C946 O962 1.261 . S
C946 O963 1.257 . S
C947 C950 1.358 . S
C947 C951 1.332 . S
C947 C953 1.504 . S
C948 C949 1.373 . S
C948 C952 1.308 . S
C949 C948 1.373 . S
C949 C950 1.429 . S
C949 H976 0.932 . S
C950 C947 1.358 . S
C950 C949 1.429 . S
C950 H977 0.930 . S
C951 C947 1.332 . S
C951 C952 1.394 . S
C951 H978 0.932 . S
C952 C948 1.308 . S
C952 C951 1.394 . S
C952 H979 0.929 . S
C953 Tb944 2.764 . S
C953 C947 1.504 . S
C953 O965 1.239 . S
C953 O966 1.263 . S
O954 Tb944 2.325 . S
O954 C964 1.236 . S
O955 Tb945 2.322 . S
O955 C964 1.257 . S
O956 Tb945 2.349 . S
O956 C967 1.261 . S
O957 Tb944 2.303 . S
O957 C967 1.257 . S
O958 Tb945 2.415 . S
O958 C974 1.239 . S
O959 Tb945 2.399 . S
O959 C974 1.263 . S
O960 Tb945 2.325 . S
O960 C975 1.236 1_545 S
O961 Tb944 2.322 1_565 S
O961 C975 1.257 . S
O962 Tb944 2.349 . S
O962 C946 1.261 . S
O963 Tb945 2.303 . S
O963 C946 1.257 . S
C964 O954 1.236 . S
C964 O955 1.257 . S
O965 Tb944 2.415 . S
O965 C953 1.239 . S
O966 Tb944 2.399 . S
O966 C953 1.263 . S
C967 O956 1.261 . S
C967 O957 1.257 . S
C968 C971 1.358 . S
C968 C972 1.332 1_545 S
C968 C974 1.504 . S
C969 C970 1.373 . S
C969 C973 1.308 . S
C970 C969 1.373 . S
C970 C971 1.429 1_565 S
C970 H980 0.931 1_565 S
C971 C968 1.358 . S
C971 C970 1.429 1_545 S
C971 H981 0.930 . S
C972 C968 1.332 1_565 S
C972 C973 1.394 . S
C972 H982 0.932 . S
C973 C969 1.308 . S
C973 C972 1.394 . S
C973 H983 0.929 . S
C974 Tb945 2.764 . S
C974 O958 1.239 . S
C974 O959 1.263 . S
C974 C968 1.504 . S
C975 O960 1.236 1_565 S
C975 O961 1.257 . S
H976 C949 0.932 . S
H977 C950 0.930 . S
H978 C951 0.932 . S
H979 C952 0.929 . S
H980 C970 0.931 1_545 S
H981 C971 0.930 . S
H982 C972 0.932 . S
H983 C973 0.929 . S
Tb984 C993 2.764 . S
Tb984 O994 2.325 . S
Tb984 O997 2.303 . S
Tb984 O1001 2.322 . S
Tb984 O1002 2.349 . S
Tb984 O1005 2.415 . S
Tb984 O1006 2.399 . S
Tb985 O995 2.322 . S
Tb985 O996 2.349 . S
Tb985 O998 2.415 . S
Tb985 O999 2.399 . S
Tb985 O1000 2.325 . S
Tb985 O1003 2.303 . S
Tb985 C1014 2.764 . S
C986 O1002 1.261 . S
C986 O1003 1.257 . S
C987 C990 1.358 . S
C987 C991 1.332 . S
C987 C993 1.504 . S
C988 C989 1.373 . S
C988 C992 1.308 . S
C989 C988 1.373 . S
C989 C990 1.429 . S
C989 H1016 0.932 . S
C990 C987 1.358 . S
C990 C989 1.429 . S
C990 H1017 0.930 . S
C991 C987 1.332 . S
C991 C992 1.394 . S
C991 H1018 0.932 . S
C992 C988 1.308 . S
C992 C991 1.394 . S
C992 H1019 0.929 . S
C993 Tb984 2.764 . S
C993 C987 1.504 . S
C993 O1005 1.239 . S
C993 O1006 1.263 . S
O994 Tb984 2.325 . S
O994 C1004 1.236 . S
O995 Tb985 2.322 . S
O995 C1004 1.257 . S
O996 Tb985 2.349 . S
O996 C1007 1.261 . S
O997 Tb984 2.303 . S
O997 C1007 1.257 . S
O998 Tb985 2.415 . S
O998 C1014 1.239 . S
O999 Tb985 2.399 . S
O999 C1014 1.263 . S
O1000 Tb985 2.325 . S
O1000 C1015 1.236 . S
O1001 Tb984 2.322 . S
O1001 C1015 1.257 . S
O1002 Tb984 2.349 . S
O1002 C986 1.261 . S
O1003 Tb985 2.303 . S
O1003 C986 1.257 . S
C1004 O994 1.236 . S
C1004 O995 1.257 . S
O1005 Tb984 2.415 . S
O1005 C993 1.239 . S
O1006 Tb984 2.399 . S
O1006 C993 1.263 . S
C1007 O996 1.261 . S
C1007 O997 1.257 . S
C1008 C1011 1.358 . S
C1008 C1012 1.332 . S
C1008 C1014 1.504 . S
C1009 C1010 1.373 . S
C1009 C1013 1.308 . S
C1010 C1009 1.373 . S
C1010 C1011 1.429 . S
C1010 H1020 0.932 . S
C1011 C1008 1.358 . S
C1011 C1010 1.429 . S
C1011 H1021 0.930 . S
C1012 C1008 1.332 . S
C1012 C1013 1.394 . S
C1012 H1022 0.932 . S
C1013 C1009 1.308 . S
C1013 C1012 1.394 . S
C1013 H1023 0.929 . S
C1014 Tb985 2.764 . S
C1014 O998 1.239 . S
C1014 O999 1.263 . S
C1014 C1008 1.504 . S
C1015 O1000 1.236 . S
C1015 O1001 1.257 . S
H1016 C989 0.932 . S
H1017 C990 0.930 . S
H1018 C991 0.932 . S
H1019 C992 0.929 . S
H1020 C1010 0.932 . S
H1021 C1011 0.930 . S
H1022 C1012 0.932 . S
H1023 C1013 0.929 . S
Tb1024 C1033 2.764 . S
Tb1024 O1034 2.325 . S
Tb1024 O1037 2.303 . S
Tb1024 O1041 2.322 . S
Tb1024 O1042 2.349 . S
Tb1024 O1045 2.415 . S
Tb1024 O1046 2.399 . S
Tb1025 O1035 2.322 1_545 S
Tb1025 O1036 2.349 . S
Tb1025 O1038 2.415 . S
Tb1025 O1039 2.399 . S
Tb1025 O1040 2.325 . S
Tb1025 O1043 2.303 . S
Tb1025 C1054 2.764 . S
C1026 O1042 1.261 1_655 S
C1026 O1043 1.257 1_655 S
C1027 C1030 1.358 . S
C1027 C1031 1.332 . S
C1027 C1033 1.504 . S
C1028 C1029 1.373 . S
C1028 C1032 1.308 . S
C1029 C1028 1.373 . S
C1029 C1030 1.429 . S
C1029 H1056 0.932 . S
C1030 C1027 1.358 . S
C1030 C1029 1.429 . S
C1030 H1057 0.930 . S
C1031 C1027 1.332 . S
C1031 C1032 1.394 . S
C1031 H1058 0.932 . S
C1032 C1028 1.308 . S
C1032 C1031 1.394 . S
C1032 H1059 0.929 . S
C1033 Tb1024 2.764 . S
C1033 C1027 1.504 . S
C1033 O1045 1.239 . S
C1033 O1046 1.263 . S
O1034 Tb1024 2.325 . S
O1034 C1044 1.236 1_545 S
O1035 Tb1025 2.322 1_565 S
O1035 C1044 1.257 . S
O1036 Tb1025 2.349 . S
O1036 C1047 1.261 . S
O1037 Tb1024 2.303 . S
O1037 C1047 1.257 . S
O1038 Tb1025 2.415 . S
O1038 C1054 1.239 . S
O1039 Tb1025 2.399 . S
O1039 C1054 1.263 . S
O1040 Tb1025 2.325 . S
O1040 C1055 1.236 . S
O1041 Tb1024 2.322 . S
O1041 C1055 1.257 . S
O1042 Tb1024 2.349 . S
O1042 C1026 1.261 1_455 S
O1043 Tb1025 2.303 . S
O1043 C1026 1.257 1_455 S
C1044 O1034 1.236 1_565 S
C1044 O1035 1.257 . S
O1045 Tb1024 2.415 . S
O1045 C1033 1.239 . S
O1046 Tb1024 2.399 . S
O1046 C1033 1.263 . S
C1047 O1036 1.261 . S
C1047 O1037 1.257 . S
C1048 C1051 1.358 . S
C1048 C1052 1.332 1_455 S
C1048 C1054 1.504 . S
C1049 C1050 1.373 . S
C1049 C1053 1.308 1_455 S
C1050 C1049 1.373 . S
C1050 C1051 1.429 . S
C1050 H1060 0.932 . S
C1051 C1048 1.358 . S
C1051 C1050 1.429 . S
C1051 H1061 0.930 . S
C1052 C1048 1.332 1_655 S
C1052 C1053 1.394 . S
C1052 H1062 0.932 . S
C1053 C1049 1.308 1_655 S
C1053 C1052 1.394 . S
C1053 H1063 0.929 . S
C1054 Tb1025 2.764 . S
C1054 O1038 1.239 . S
C1054 O1039 1.263 . S
C1054 C1048 1.504 . S
C1055 O1040 1.236 . S
C1055 O1041 1.257 . S
H1056 C1029 0.932 . S
H1057 C1030 0.930 . S
H1058 C1031 0.932 . S
H1059 C1032 0.929 . S
H1060 C1050 0.932 . S
H1061 C1051 0.930 . S
H1062 C1052 0.932 . S
H1063 C1053 0.929 . S
Tb1064 C1073 2.764 . S
Tb1064 O1074 2.325 . S
Tb1064 O1077 2.303 . S
Tb1064 O1081 2.322 . S
Tb1064 O1082 2.349 . S
Tb1064 O1085 2.415 . S
Tb1064 O1086 2.399 . S
Tb1065 O1075 2.322 . S
Tb1065 O1076 2.349 . S
Tb1065 O1078 2.415 . S
Tb1065 O1079 2.399 . S
Tb1065 O1080 2.325 . S
Tb1065 O1083 2.303 . S
Tb1065 C1094 2.764 . S
C1066 O1082 1.261 . S
C1066 O1083 1.257 . S
C1067 C1070 1.358 . S
C1067 C1071 1.332 . S
C1067 C1073 1.504 . S
C1068 C1069 1.373 . S
C1068 C1072 1.308 . S
C1069 C1068 1.373 . S
C1069 C1070 1.429 . S
C1069 H1096 0.932 . S
C1070 C1067 1.358 . S
C1070 C1069 1.429 . S
C1070 H1097 0.930 . S
C1071 C1067 1.332 . S
C1071 C1072 1.394 . S
C1071 H1098 0.932 . S
C1072 C1068 1.308 . S
C1072 C1071 1.394 . S
C1072 H1099 0.929 . S
C1073 Tb1064 2.764 . S
C1073 C1067 1.504 . S
C1073 O1085 1.239 . S
C1073 O1086 1.263 . S
O1074 Tb1064 2.325 . S
O1074 C1084 1.236 . S
O1075 Tb1065 2.322 . S
O1075 C1084 1.257 . S
O1076 Tb1065 2.349 . S
O1076 C1087 1.261 . S
O1077 Tb1064 2.303 . S
O1077 C1087 1.257 . S
O1078 Tb1065 2.415 . S
O1078 C1094 1.239 . S
O1079 Tb1065 2.399 . S
O1079 C1094 1.263 . S
O1080 Tb1065 2.325 . S
O1080 C1095 1.236 . S
O1081 Tb1064 2.322 . S
O1081 C1095 1.257 . S
O1082 Tb1064 2.349 . S
O1082 C1066 1.261 . S
O1083 Tb1065 2.303 . S
O1083 C1066 1.257 . S
C1084 O1074 1.236 . S
C1084 O1075 1.257 . S
O1085 Tb1064 2.415 . S
O1085 C1073 1.239 . S
O1086 Tb1064 2.399 . S
O1086 C1073 1.263 . S
C1087 O1076 1.261 . S
C1087 O1077 1.257 . S
C1088 C1091 1.358 . S
C1088 C1092 1.332 . S
C1088 C1094 1.504 . S
C1089 C1090 1.373 . S
C1089 C1093 1.308 . S
C1090 C1089 1.373 . S
C1090 C1091 1.429 . S
C1090 H1100 0.932 . S
C1091 C1088 1.358 . S
C1091 C1090 1.429 . S
C1091 H1101 0.930 . S
C1092 C1088 1.332 . S
C1092 C1093 1.394 . S
C1092 H1102 0.932 . S
C1093 C1089 1.308 . S
C1093 C1092 1.394 . S
C1093 H1103 0.929 . S
C1094 Tb1065 2.764 . S
C1094 O1078 1.239 . S
C1094 O1079 1.263 . S
C1094 C1088 1.504 . S
C1095 O1080 1.236 . S
C1095 O1081 1.257 . S
H1096 C1069 0.932 . S
H1097 C1070 0.930 . S
H1098 C1071 0.932 . S
H1099 C1072 0.929 . S
H1100 C1090 0.932 . S
H1101 C1091 0.930 . S
H1102 C1092 0.932 . S
H1103 C1093 0.929 . S
Tb1104 C1113 2.764 . S
Tb1104 O1114 2.325 . S
Tb1104 O1117 2.303 . S
Tb1104 O1121 2.322 1_545 S
Tb1104 O1122 2.349 . S
Tb1104 O1125 2.415 . S
Tb1104 O1126 2.399 . S
Tb1105 O1115 2.322 . S
Tb1105 O1116 2.349 . S
Tb1105 O1118 2.415 1_554 S
Tb1105 O1119 2.399 1_554 S
Tb1105 O1120 2.325 . S
Tb1105 O1123 2.303 . S
Tb1105 C1134 2.764 1_554 S
C1106 O1122 1.261 . S
C1106 O1123 1.257 . S
C1107 C1110 1.358 . S
C1107 C1111 1.332 . S
C1107 C1113 1.504 . S
C1108 C1109 1.373 . S
C1108 C1112 1.308 . S
C1109 C1108 1.373 . S
C1109 C1110 1.429 . S
C1109 H1136 0.932 . S
C1110 C1107 1.358 . S
C1110 C1109 1.429 . S
C1110 H1137 0.930 . S
C1111 C1107 1.332 . S
C1111 C1112 1.394 . S
C1111 H1138 0.932 . S
C1112 C1108 1.308 . S
C1112 C1111 1.394 . S
C1112 H1139 0.929 . S
C1113 Tb1104 2.764 . S
C1113 C1107 1.504 . S
C1113 O1125 1.239 . S
C1113 O1126 1.263 . S
O1114 Tb1104 2.325 . S
O1114 C1124 1.236 . S
O1115 Tb1105 2.322 . S
O1115 C1124 1.257 . S
O1116 Tb1105 2.349 . S
O1116 C1127 1.261 . S
O1117 Tb1104 2.303 . S
O1117 C1127 1.257 . S
O1118 Tb1105 2.415 1_556 S
O1118 C1134 1.239 . S
O1119 Tb1105 2.399 1_556 S
O1119 C1134 1.263 . S
O1120 Tb1105 2.325 . S
O1120 C1135 1.235 1_545 S
O1121 Tb1104 2.322 1_565 S
O1121 C1135 1.257 . S
O1122 Tb1104 2.349 . S
O1122 C1106 1.261 . S
O1123 Tb1105 2.303 . S
O1123 C1106 1.257 . S
C1124 O1114 1.236 . S
C1124 O1115 1.257 . S
O1125 Tb1104 2.415 . S
O1125 C1113 1.239 . S
O1126 Tb1104 2.399 . S
O1126 C1113 1.263 . S
C1127 O1116 1.261 . S
C1127 O1117 1.257 . S
C1128 C1131 1.358 . S
C1128 C1132 1.332 . S
C1128 C1134 1.504 . S
C1129 C1130 1.373 . S
C1129 C1133 1.308 . S
C1130 C1129 1.373 . S
C1130 C1131 1.429 . S
C1130 H1140 0.932 . S
C1131 C1128 1.358 . S
C1131 C1130 1.429 . S
C1131 H1141 0.930 . S
C1132 C1128 1.332 . S
C1132 C1133 1.394 . S
C1132 H1142 0.932 . S
C1133 C1129 1.308 . S
C1133 C1132 1.394 . S
C1133 H1143 0.929 . S
C1134 Tb1105 2.764 1_556 S
C1134 O1118 1.239 . S
C1134 O1119 1.263 . S
C1134 C1128 1.504 . S
C1135 O1120 1.235 1_565 S
C1135 O1121 1.257 . S
H1136 C1109 0.932 . S
H1137 C1110 0.930 . S
H1138 C1111 0.932 . S
H1139 C1112 0.929 . S
H1140 C1130 0.932 . S
H1141 C1131 0.930 . S
H1142 C1132 0.932 . S
H1143 C1133 0.929 . S
Tb1144 C1153 2.764 . S
Tb1144 O1154 2.325 . S
Tb1144 O1157 2.303 . S
Tb1144 O1161 2.322 . S
Tb1144 O1162 2.349 . S
Tb1144 O1165 2.415 . S
Tb1144 O1166 2.399 . S
Tb1145 O1155 2.322 . S
Tb1145 O1156 2.349 . S
Tb1145 O1158 2.415 . S
Tb1145 O1159 2.399 . S
Tb1145 O1160 2.325 . S
Tb1145 O1163 2.303 . S
Tb1145 C1174 2.764 . S
C1146 O1162 1.261 . S
C1146 O1163 1.257 . S
C1147 C1150 1.358 . S
C1147 C1151 1.332 . S
C1147 C1153 1.504 . S
C1148 C1149 1.373 . S
C1148 C1152 1.308 . S
C1149 C1148 1.373 . S
C1149 C1150 1.429 . S
C1149 H1176 0.932 . S
C1150 C1147 1.358 . S
C1150 C1149 1.429 . S
C1150 H1177 0.930 . S
C1151 C1147 1.332 . S
C1151 C1152 1.394 . S
C1151 H1178 0.932 . S
C1152 C1148 1.308 . S
C1152 C1151 1.394 . S
C1152 H1179 0.929 . S
C1153 Tb1144 2.764 . S
C1153 C1147 1.504 . S
C1153 O1165 1.239 . S
C1153 O1166 1.263 . S
O1154 Tb1144 2.325 . S
O1154 C1164 1.236 . S
O1155 Tb1145 2.322 . S
O1155 C1164 1.257 . S
O1156 Tb1145 2.349 . S
O1156 C1167 1.261 . S
O1157 Tb1144 2.303 . S
O1157 C1167 1.257 . S
O1158 Tb1145 2.415 . S
O1158 C1174 1.239 . S
O1159 Tb1145 2.399 . S
O1159 C1174 1.263 . S
O1160 Tb1145 2.325 . S
O1160 C1175 1.236 . S
O1161 Tb1144 2.322 . S
O1161 C1175 1.257 . S
O1162 Tb1144 2.349 . S
O1162 C1146 1.261 . S
O1163 Tb1145 2.303 . S
O1163 C1146 1.257 . S
C1164 O1154 1.236 . S
C1164 O1155 1.257 . S
O1165 Tb1144 2.415 . S
O1165 C1153 1.239 . S
O1166 Tb1144 2.399 . S
O1166 C1153 1.263 . S
C1167 O1156 1.261 . S
C1167 O1157 1.257 . S
C1168 C1171 1.358 . S
C1168 C1172 1.332 . S
C1168 C1174 1.504 . S
C1169 C1170 1.373 . S
C1169 C1173 1.308 . S
C1170 C1169 1.373 . S
C1170 C1171 1.429 . S
C1170 H1180 0.932 . S
C1171 C1168 1.358 . S
C1171 C1170 1.429 . S
C1171 H1181 0.930 . S
C1172 C1168 1.332 . S
C1172 C1173 1.394 . S
C1172 H1182 0.932 . S
C1173 C1169 1.308 . S
C1173 C1172 1.394 . S
C1173 H1183 0.929 . S
C1174 Tb1145 2.764 . S
C1174 O1158 1.239 . S
C1174 O1159 1.263 . S
C1174 C1168 1.504 . S
C1175 O1160 1.236 . S
C1175 O1161 1.257 . S
H1176 C1149 0.932 . S
H1177 C1150 0.930 . S
H1178 C1151 0.932 . S
H1179 C1152 0.929 . S
H1180 C1170 0.932 . S
H1181 C1171 0.930 . S
H1182 C1172 0.932 . S
H1183 C1173 0.929 . S
Tb1184 C1193 2.764 . S
Tb1184 O1194 2.325 . S
Tb1184 O1197 2.303 . S
Tb1184 O1201 2.322 . S
Tb1184 O1202 2.349 . S
Tb1184 O1205 2.415 . S
Tb1184 O1206 2.399 . S
Tb1185 O1195 2.322 . S
Tb1185 O1196 2.349 . S
Tb1185 O1198 2.415 1_554 S
Tb1185 O1199 2.399 1_554 S
Tb1185 O1200 2.325 . S
Tb1185 O1203 2.303 . S
Tb1185 C1214 2.764 1_554 S
C1186 O1202 1.261 . S
C1186 O1203 1.257 . S
C1187 C1190 1.358 . S
C1187 C1191 1.332 . S
C1187 C1193 1.504 . S
C1188 C1189 1.373 . S
C1188 C1192 1.308 . S
C1189 C1188 1.373 . S
C1189 C1190 1.429 . S
C1189 H1216 0.932 . S
C1190 C1187 1.358 . S
C1190 C1189 1.429 . S
C1190 H1217 0.930 . S
C1191 C1187 1.332 . S
C1191 C1192 1.394 . S
C1191 H1218 0.932 . S
C1192 C1188 1.308 . S
C1192 C1191 1.394 . S
C1192 H1219 0.929 . S
C1193 Tb1184 2.764 . S
C1193 C1187 1.504 . S
C1193 O1205 1.239 . S
C1193 O1206 1.263 . S
O1194 Tb1184 2.325 . S
O1194 C1204 1.236 . S
O1195 Tb1185 2.322 . S
O1195 C1204 1.257 . S
O1196 Tb1185 2.349 . S
O1196 C1207 1.261 . S
O1197 Tb1184 2.303 . S
O1197 C1207 1.257 . S
O1198 Tb1185 2.415 1_556 S
O1198 C1214 1.239 . S
O1199 Tb1185 2.399 1_556 S
O1199 C1214 1.263 . S
O1200 Tb1185 2.325 . S
O1200 C1215 1.236 . S
O1201 Tb1184 2.322 . S
O1201 C1215 1.257 . S
O1202 Tb1184 2.349 . S
O1202 C1186 1.261 . S
O1203 Tb1185 2.303 . S
O1203 C1186 1.257 . S
C1204 O1194 1.236 . S
C1204 O1195 1.257 . S
O1205 Tb1184 2.415 . S
O1205 C1193 1.239 . S
O1206 Tb1184 2.399 . S
O1206 C1193 1.263 . S
C1207 O1196 1.261 . S
C1207 O1197 1.257 . S
C1208 C1211 1.358 . S
C1208 C1212 1.332 . S
C1208 C1214 1.504 . S
C1209 C1210 1.373 . S
C1209 C1213 1.308 . S
C1210 C1209 1.373 . S
C1210 C1211 1.429 . S
C1210 H1220 0.932 . S
C1211 C1208 1.358 . S
C1211 C1210 1.429 . S
C1211 H1221 0.930 . S
C1212 C1208 1.332 . S
C1212 C1213 1.394 . S
C1212 H1222 0.932 . S
C1213 C1209 1.308 . S
C1213 C1212 1.394 . S
C1213 H1223 0.929 . S
C1214 Tb1185 2.764 1_556 S
C1214 O1198 1.239 . S
C1214 O1199 1.263 . S
C1214 C1208 1.504 . S
C1215 O1200 1.236 . S
C1215 O1201 1.257 . S
H1216 C1189 0.932 . S
H1217 C1190 0.930 . S
H1218 C1191 0.932 . S
H1219 C1192 0.929 . S
H1220 C1210 0.932 . S
H1221 C1211 0.930 . S
H1222 C1212 0.932 . S
H1223 C1213 0.929 . S
Tb1224 C1233 2.764 . S
Tb1224 O1234 2.325 . S
Tb1224 O1237 2.303 . S
Tb1224 O1241 2.322 . S
Tb1224 O1242 2.349 . S
Tb1224 O1245 2.415 . S
Tb1224 O1246 2.399 . S
Tb1225 O1235 2.322 . S
Tb1225 O1236 2.349 . S
Tb1225 O1238 2.415 . S
Tb1225 O1239 2.399 . S
Tb1225 O1240 2.325 . S
Tb1225 O1243 2.303 . S
Tb1225 C1254 2.764 . S
C1226 O1242 1.261 . S
C1226 O1243 1.257 . S
C1227 C1230 1.358 . S
C1227 C1231 1.332 . S
C1227 C1233 1.504 . S
C1228 C1229 1.373 . S
C1228 C1232 1.308 . S
C1229 C1228 1.373 . S
C1229 C1230 1.429 . S
C1229 H1256 0.932 . S
C1230 C1227 1.358 . S
C1230 C1229 1.429 . S
C1230 H1257 0.930 . S
C1231 C1227 1.332 . S
C1231 C1232 1.394 . S
C1231 H1258 0.932 . S
C1232 C1228 1.308 . S
C1232 C1231 1.394 . S
C1232 H1259 0.929 . S
C1233 Tb1224 2.764 . S
C1233 C1227 1.504 . S
C1233 O1245 1.239 . S
C1233 O1246 1.263 . S
O1234 Tb1224 2.325 . S
O1234 C1244 1.236 . S
O1235 Tb1225 2.322 . S
O1235 C1244 1.257 . S
O1236 Tb1225 2.349 . S
O1236 C1247 1.261 . S
O1237 Tb1224 2.303 . S
O1237 C1247 1.257 . S
O1238 Tb1225 2.415 . S
O1238 C1254 1.239 . S
O1239 Tb1225 2.399 . S
O1239 C1254 1.263 . S
O1240 Tb1225 2.325 . S
O1240 C1255 1.236 . S
O1241 Tb1224 2.322 . S
O1241 C1255 1.257 . S
O1242 Tb1224 2.349 . S
O1242 C1226 1.261 . S
O1243 Tb1225 2.303 . S
O1243 C1226 1.257 . S
C1244 O1234 1.236 . S
C1244 O1235 1.257 . S
O1245 Tb1224 2.415 . S
O1245 C1233 1.239 . S
O1246 Tb1224 2.399 . S
O1246 C1233 1.263 . S
C1247 O1236 1.261 . S
C1247 O1237 1.257 . S
C1248 C1251 1.358 . S
C1248 C1252 1.332 . S
C1248 C1254 1.504 . S
C1249 C1250 1.373 . S
C1249 C1253 1.308 . S
C1250 C1249 1.373 . S
C1250 C1251 1.429 . S
C1250 H1260 0.932 . S
C1251 C1248 1.358 . S
C1251 C1250 1.429 . S
C1251 H1261 0.930 . S
C1252 C1248 1.332 . S
C1252 C1253 1.394 . S
C1252 H1262 0.932 . S
C1253 C1249 1.308 . S
C1253 C1252 1.394 . S
C1253 H1263 0.929 . S
C1254 Tb1225 2.764 . S
C1254 O1238 1.239 . S
C1254 O1239 1.263 . S
C1254 C1248 1.504 . S
C1255 O1240 1.236 . S
C1255 O1241 1.257 . S
H1256 C1229 0.932 . S
H1257 C1230 0.930 . S
H1258 C1231 0.932 . S
H1259 C1232 0.929 . S
H1260 C1250 0.932 . S
H1261 C1251 0.930 . S
H1262 C1252 0.932 . S
H1263 C1253 0.929 . S
Tb1264 C1273 2.764 . S
Tb1264 O1274 2.325 . S
Tb1264 O1277 2.303 . S
Tb1264 O1281 2.322 . S
Tb1264 O1282 2.349 . S
Tb1264 O1285 2.415 . S
Tb1264 O1286 2.399 . S
Tb1265 O1275 2.322 . S
Tb1265 O1276 2.349 . S
Tb1265 O1278 2.415 . S
Tb1265 O1279 2.399 . S
Tb1265 O1280 2.325 . S
Tb1265 O1283 2.303 . S
Tb1265 C1294 2.764 . S
C1266 O1282 1.261 . S
C1266 O1283 1.257 . S
C1267 C1270 1.358 . S
C1267 C1271 1.332 . S
C1267 C1273 1.504 . S
C1268 C1269 1.373 . S
C1268 C1272 1.308 1_455 S
C1269 C1268 1.373 . S
C1269 C1270 1.429 . S
C1269 H1296 0.932 . S
C1270 C1267 1.358 . S
C1270 C1269 1.429 . S
C1270 H1297 0.930 . S
C1271 C1267 1.332 . S
C1271 C1272 1.394 1_455 S
C1271 H1298 0.932 1_455 S
C1272 C1268 1.308 1_655 S
C1272 C1271 1.394 1_655 S
C1272 H1299 0.929 . S
C1273 Tb1264 2.764 . S
C1273 C1267 1.504 . S
C1273 O1285 1.239 . S
C1273 O1286 1.263 . S
O1274 Tb1264 2.325 . S
O1274 C1284 1.236 . S
O1275 Tb1265 2.322 . S
O1275 C1284 1.257 . S
O1276 Tb1265 2.349 . S
O1276 C1287 1.263 . S
O1277 Tb1264 2.303 . S
O1277 C1287 1.269 . S
O1278 Tb1265 2.415 . S
O1278 C1294 1.239 . S
O1279 Tb1265 2.399 . S
O1279 C1294 1.263 . S
O1280 Tb1265 2.325 . S
O1280 C1295 1.236 . S
O1281 Tb1264 2.322 . S
O1281 C1295 1.257 . S
O1282 Tb1264 2.349 . S
O1282 C1266 1.261 . S
O1283 Tb1265 2.303 . S
O1283 C1266 1.257 . S
C1284 O1274 1.236 . S
C1284 O1275 1.257 . S
O1285 Tb1264 2.415 . S
O1285 C1273 1.239 . S
O1286 Tb1264 2.399 . S
O1286 C1273 1.263 . S
C1287 O1276 1.263 . S
C1287 O1277 1.269 . S
C1288 C1291 1.358 . S
C1288 C1292 1.332 . S
C1288 C1294 1.504 . S
C1289 C1290 1.373 . S
C1289 C1293 1.308 . S
C1290 C1289 1.373 . S
C1290 C1291 1.429 . S
C1290 H1300 0.932 . S
C1291 C1288 1.358 . S
C1291 C1290 1.429 . S
C1291 H1301 0.930 . S
C1292 C1288 1.332 . S
C1292 C1293 1.394 . S
C1292 H1302 0.932 . S
C1293 C1289 1.308 . S
C1293 C1292 1.394 . S
C1293 H1303 0.929 . S
C1294 Tb1265 2.764 . S
C1294 O1278 1.239 . S
C1294 O1279 1.263 . S
C1294 C1288 1.504 . S
C1295 O1280 1.236 . S
C1295 O1281 1.257 . S
H1296 C1269 0.932 . S
H1297 C1270 0.930 . S
H1298 C1271 0.932 1_655 S
H1299 C1272 0.929 . S
H1300 C1290 0.932 . S
H1301 C1291 0.930 . S
H1302 C1292 0.932 . S
H1303 C1293 0.929 . S
Tb1304 C1313 2.764 . S
Tb1304 O1314 2.325 . S
Tb1304 O1317 2.303 . S
Tb1304 O1321 2.322 . S
Tb1304 O1322 2.349 . S
Tb1304 O1325 2.415 . S
Tb1304 O1326 2.399 . S
Tb1305 O1315 2.322 . S
Tb1305 O1316 2.349 . S
Tb1305 O1318 2.415 . S
Tb1305 O1319 2.399 . S
Tb1305 O1320 2.325 . S
Tb1305 O1323 2.303 . S
Tb1305 C1334 2.764 . S
C1306 O1322 1.261 . S
C1306 O1323 1.257 . S
C1307 C1310 1.358 . S
C1307 C1311 1.332 . S
C1307 C1313 1.504 . S
C1308 C1309 1.373 . S
C1308 C1312 1.308 . S
C1309 C1308 1.373 . S
C1309 C1310 1.429 . S
C1309 H1336 0.932 . S
C1310 C1307 1.358 . S
C1310 C1309 1.429 . S
C1310 H1337 0.930 . S
C1311 C1307 1.332 . S
C1311 C1312 1.394 . S
C1311 H1338 0.932 . S
C1312 C1308 1.308 . S
C1312 C1311 1.394 . S
C1312 H1339 0.929 . S
C1313 Tb1304 2.764 . S
C1313 C1307 1.504 . S
C1313 O1325 1.239 . S
C1313 O1326 1.263 . S
O1314 Tb1304 2.325 . S
O1314 C1324 1.236 . S
O1315 Tb1305 2.322 . S
O1315 C1324 1.257 . S
O1316 Tb1305 2.349 . S
O1316 C1327 1.261 . S
O1317 Tb1304 2.303 . S
O1317 C1327 1.257 . S
O1318 Tb1305 2.415 . S
O1318 C1334 1.239 . S
O1319 Tb1305 2.399 . S
O1319 C1334 1.263 . S
O1320 Tb1305 2.325 . S
O1320 C1335 1.236 . S
O1321 Tb1304 2.322 . S
O1321 C1335 1.257 . S
O1322 Tb1304 2.349 . S
O1322 C1306 1.261 . S
O1323 Tb1305 2.303 . S
O1323 C1306 1.257 . S
C1324 O1314 1.236 . S
C1324 O1315 1.257 . S
O1325 Tb1304 2.415 . S
O1325 C1313 1.239 . S
O1326 Tb1304 2.399 . S
O1326 C1313 1.263 . S
C1327 O1316 1.261 . S
C1327 O1317 1.257 . S
C1328 C1331 1.358 . S
C1328 C1332 1.332 . S
C1328 C1334 1.504 . S
C1329 C1330 1.373 . S
C1329 C1333 1.308 . S
C1330 C1329 1.373 . S
C1330 C1331 1.429 . S
C1330 H1340 0.932 . S
C1331 C1328 1.358 . S
C1331 C1330 1.429 . S
C1331 H1341 0.930 . S
C1332 C1328 1.332 . S
C1332 C1333 1.394 . S
C1332 H1342 0.932 . S
C1333 C1329 1.308 . S
C1333 C1332 1.394 . S
C1333 H1343 0.929 . S
C1334 Tb1305 2.764 . S
C1334 O1318 1.239 . S
C1334 O1319 1.263 . S
C1334 C1328 1.504 . S
C1335 O1320 1.236 . S
C1335 O1321 1.257 . S
H1336 C1309 0.932 . S
H1337 C1310 0.930 . S
H1338 C1311 0.932 . S
H1339 C1312 0.929 . S
H1340 C1330 0.932 . S
H1341 C1331 0.930 . S
H1342 C1332 0.932 . S
H1343 C1333 0.929 . S
Tb1344 C1353 2.764 . S
Tb1344 O1354 2.325 . S
Tb1344 O1357 2.303 . S
Tb1344 O1361 2.322 . S
Tb1344 O1362 2.349 . S
Tb1344 O1365 2.415 . S
Tb1344 O1366 2.399 . S
Tb1345 O1355 2.322 . S
Tb1345 O1356 2.349 . S
Tb1345 O1358 2.415 . S
Tb1345 O1359 2.399 . S
Tb1345 O1360 2.325 . S
Tb1345 O1363 2.303 . S
Tb1345 C1374 2.764 . S
C1346 O1362 1.261 . S
C1346 O1363 1.257 . S
C1347 C1350 1.358 . S
C1347 C1351 1.332 . S
C1347 C1353 1.504 . S
C1348 C1349 1.373 . S
C1348 C1352 1.308 . S
C1349 C1348 1.373 . S
C1349 C1350 1.429 . S
C1349 H1376 0.932 . S
C1350 C1347 1.358 . S
C1350 C1349 1.429 . S
C1350 H1377 0.930 . S
C1351 C1347 1.332 . S
C1351 C1352 1.394 . S
C1351 H1378 0.932 . S
C1352 C1348 1.308 . S
C1352 C1351 1.394 . S
C1352 H1379 0.929 . S
C1353 Tb1344 2.764 . S
C1353 C1347 1.504 . S
C1353 O1365 1.239 . S
C1353 O1366 1.263 . S
O1354 Tb1344 2.325 . S
O1354 C1364 1.236 . S
O1355 Tb1345 2.322 . S
O1355 C1364 1.257 . S
O1356 Tb1345 2.349 . S
O1356 C1367 1.261 . S
O1357 Tb1344 2.303 . S
O1357 C1367 1.257 . S
O1358 Tb1345 2.415 . S
O1358 C1374 1.239 . S
O1359 Tb1345 2.399 . S
O1359 C1374 1.263 . S
O1360 Tb1345 2.325 . S
O1360 C1375 1.236 . S
O1361 Tb1344 2.322 . S
O1361 C1375 1.257 . S
O1362 Tb1344 2.349 . S
O1362 C1346 1.261 . S
O1363 Tb1345 2.303 . S
O1363 C1346 1.257 . S
C1364 O1354 1.236 . S
C1364 O1355 1.257 . S
O1365 Tb1344 2.415 . S
O1365 C1353 1.239 . S
O1366 Tb1344 2.399 . S
O1366 C1353 1.263 . S
C1367 O1356 1.261 . S
C1367 O1357 1.257 . S
C1368 C1371 1.358 . S
C1368 C1372 1.332 . S
C1368 C1374 1.504 . S
C1369 C1370 1.373 . S
C1369 C1373 1.308 . S
C1370 C1369 1.373 . S
C1370 C1371 1.429 . S
C1370 H1380 0.932 . S
C1371 C1368 1.358 . S
C1371 C1370 1.429 . S
C1371 H1381 0.930 . S
C1372 C1368 1.332 . S
C1372 C1373 1.394 . S
C1372 H1382 0.932 . S
C1373 C1369 1.308 . S
C1373 C1372 1.394 . S
C1373 H1383 0.929 . S
C1374 Tb1345 2.764 . S
C1374 O1358 1.239 . S
C1374 O1359 1.263 . S
C1374 C1368 1.504 . S
C1375 O1360 1.236 . S
C1375 O1361 1.257 . S
H1376 C1349 0.932 . S
H1377 C1350 0.930 . S
H1378 C1351 0.932 . S
H1379 C1352 0.929 . S
H1380 C1370 0.932 . S
H1381 C1371 0.930 . S
H1382 C1372 0.932 . S
H1383 C1373 0.929 . S
Tb1384 C1393 2.764 . S
Tb1384 O1394 2.325 . S
Tb1384 O1397 2.303 . S
Tb1384 O1401 2.322 . S
Tb1384 O1402 2.349 . S
Tb1384 O1405 2.415 . S
Tb1384 O1406 2.399 . S
Tb1385 O1395 2.322 . S
Tb1385 O1396 2.349 . S
Tb1385 O1398 2.415 . S
Tb1385 O1399 2.399 . S
Tb1385 O1400 2.325 . S
Tb1385 O1403 2.303 . S
Tb1385 C1414 2.764 . S
C1386 O1402 1.261 . S
C1386 O1403 1.257 . S
C1387 C1390 1.358 . S
C1387 C1391 1.332 . S
C1387 C1393 1.504 . S
C1388 C1389 1.373 . S
C1388 C1392 1.308 . S
C1389 C1388 1.373 . S
C1389 C1390 1.429 . S
C1389 H1416 0.932 . S
C1390 C1387 1.358 . S
C1390 C1389 1.429 . S
C1390 H1417 0.930 . S
C1391 C1387 1.332 . S
C1391 C1392 1.394 . S
C1391 H1418 0.932 . S
C1392 C1388 1.308 . S
C1392 C1391 1.394 . S
C1392 H1419 0.929 . S
C1393 Tb1384 2.764 . S
C1393 C1387 1.504 . S
C1393 O1405 1.239 . S
C1393 O1406 1.263 . S
O1394 Tb1384 2.325 . S
O1394 C1404 1.236 . S
O1395 Tb1385 2.322 . S
O1395 C1404 1.257 . S
O1396 Tb1385 2.349 . S
O1396 C1407 1.261 . S
O1397 Tb1384 2.303 . S
O1397 C1407 1.257 . S
O1398 Tb1385 2.415 . S
O1398 C1414 1.239 . S
O1399 Tb1385 2.399 . S
O1399 C1414 1.263 . S
O1400 Tb1385 2.325 . S
O1400 C1415 1.236 . S
O1401 Tb1384 2.322 . S
O1401 C1415 1.257 . S
O1402 Tb1384 2.349 . S
O1402 C1386 1.261 . S
O1403 Tb1385 2.303 . S
O1403 C1386 1.257 . S
C1404 O1394 1.236 . S
C1404 O1395 1.257 . S
O1405 Tb1384 2.415 . S
O1405 C1393 1.239 . S
O1406 Tb1384 2.399 . S
O1406 C1393 1.263 . S
C1407 O1396 1.261 . S
C1407 O1397 1.257 . S
C1408 C1411 1.358 . S
C1408 C1412 1.332 . S
C1408 C1414 1.504 . S
C1409 C1410 1.373 . S
C1409 C1413 1.308 . S
C1410 C1409 1.373 . S
C1410 C1411 1.429 . S
C1410 H1420 0.932 . S
C1411 C1408 1.358 . S
C1411 C1410 1.429 . S
C1411 H1421 0.930 . S
C1412 C1408 1.332 . S
C1412 C1413 1.394 . S
C1412 H1422 0.932 . S
C1413 C1409 1.308 . S
C1413 C1412 1.394 . S
C1413 H1423 0.929 . S
C1414 Tb1385 2.764 . S
C1414 O1398 1.239 . S
C1414 O1399 1.263 . S
C1414 C1408 1.504 . S
C1415 O1400 1.236 . S
C1415 O1401 1.257 . S
H1416 C1389 0.932 . S
H1417 C1390 0.930 . S
H1418 C1391 0.932 . S
H1419 C1392 0.929 . S
H1420 C1410 0.932 . S
H1421 C1411 0.930 . S
H1422 C1412 0.932 . S
H1423 C1413 0.929 . S
Tb1424 C1433 2.764 . S
Tb1424 O1434 2.325 . S
Tb1424 O1437 2.303 . S
Tb1424 O1441 2.322 . S
Tb1424 O1442 2.349 . S
Tb1424 O1445 2.415 . S
Tb1424 O1446 2.399 . S
Tb1425 O1435 2.322 . S
Tb1425 O1436 2.349 . S
Tb1425 O1438 2.415 . S
Tb1425 O1439 2.399 . S
Tb1425 O1440 2.325 . S
Tb1425 O1443 2.303 . S
Tb1425 C1454 2.764 . S
C1426 O1442 1.261 . S
C1426 O1443 1.257 . S
C1427 C1430 1.358 . S
C1427 C1431 1.332 . S
C1427 C1433 1.504 . S
C1428 C1429 1.373 . S
C1428 C1432 1.308 . S
C1429 C1428 1.373 . S
C1429 C1430 1.429 . S
C1429 H1456 0.932 . S
C1430 C1427 1.358 . S
C1430 C1429 1.429 . S
C1430 H1457 0.930 . S
C1431 C1427 1.332 . S
C1431 C1432 1.394 . S
C1431 H1458 0.932 . S
C1432 C1428 1.308 . S
C1432 C1431 1.394 . S
C1432 H1459 0.929 . S
C1433 Tb1424 2.764 . S
C1433 C1427 1.504 . S
C1433 O1445 1.239 . S
C1433 O1446 1.263 . S
O1434 Tb1424 2.325 . S
O1434 C1444 1.236 . S
O1435 Tb1425 2.322 . S
O1435 C1444 1.257 . S
O1436 Tb1425 2.349 . S
O1436 C1447 1.261 . S
O1437 Tb1424 2.303 . S
O1437 C1447 1.257 . S
O1438 Tb1425 2.415 . S
O1438 C1454 1.239 . S
O1439 Tb1425 2.399 . S
O1439 C1454 1.263 . S
O1440 Tb1425 2.325 . S
O1440 C1455 1.236 . S
O1441 Tb1424 2.322 . S
O1441 C1455 1.257 . S
O1442 Tb1424 2.349 . S
O1442 C1426 1.261 . S
O1443 Tb1425 2.303 . S
O1443 C1426 1.257 . S
C1444 O1434 1.236 . S
C1444 O1435 1.257 . S
O1445 Tb1424 2.415 . S
O1445 C1433 1.239 . S
O1446 Tb1424 2.399 . S
O1446 C1433 1.263 . S
C1447 O1436 1.261 . S
C1447 O1437 1.257 . S
C1448 C1451 1.358 . S
C1448 C1452 1.332 . S
C1448 C1454 1.504 . S
C1449 C1450 1.373 . S
C1449 C1453 1.308 . S
C1450 C1449 1.373 . S
C1450 C1451 1.429 . S
C1450 H1460 0.932 . S
C1451 C1448 1.358 . S
C1451 C1450 1.429 . S
C1451 H1461 0.930 . S
C1452 C1448 1.332 . S
C1452 C1453 1.394 . S
C1452 H1462 0.932 . S
C1453 C1449 1.308 . S
C1453 C1452 1.394 . S
C1453 H1463 0.929 . S
C1454 Tb1425 2.764 . S
C1454 O1438 1.239 . S
C1454 O1439 1.263 . S
C1454 C1448 1.504 . S
C1455 O1440 1.236 . S
C1455 O1441 1.257 . S
H1456 C1429 0.932 . S
H1457 C1430 0.930 . S
H1458 C1431 0.932 . S
H1459 C1432 0.929 . S
H1460 C1450 0.932 . S
H1461 C1451 0.930 . S
H1462 C1452 0.932 . S
H1463 C1453 0.929 . S
Tb1464 C1473 2.764 1_455 S
Tb1464 O1474 2.325 . S
Tb1464 O1477 2.303 . S
Tb1464 O1481 2.322 . S
Tb1464 O1482 2.349 . S
Tb1464 O1485 2.415 1_455 S
Tb1464 O1486 2.399 1_455 S
Tb1465 O1475 2.322 . S
Tb1465 O1476 2.349 1_554 S
Tb1465 O1478 2.415 . S
Tb1465 O1479 2.382 1_554 S
Tb1465 O1480 2.325 . S
Tb1465 O1483 2.303 . S
Tb1465 C1494 2.764 . S
C1466 O1482 1.261 . S
C1466 O1483 1.257 . S
C1467 C1470 1.358 . S
C1467 C1471 1.332 . S
C1467 C1473 1.504 . S
C1468 C1469 1.373 . S
C1468 C1472 1.308 . S
C1469 C1468 1.373 . S
C1469 C1470 1.429 . S
C1469 H1496 0.932 . S
C1470 C1467 1.358 . S
C1470 C1469 1.429 . S
C1470 H1497 0.930 . S
C1471 C1467 1.332 . S
C1471 C1472 1.394 . S
C1471 H1498 0.932 . S
C1472 C1468 1.308 . S
C1472 C1471 1.394 . S
C1472 H1499 0.929 . S
C1473 Tb1464 2.764 1_655 S
C1473 C1467 1.504 . S
C1473 O1485 1.239 . S
C1473 O1486 1.263 . S
O1474 Tb1464 2.325 . S
O1474 C1484 1.236 . S
O1475 Tb1465 2.322 . S
O1475 C1484 1.257 . S
O1476 Tb1465 2.349 1_556 S
O1476 C1487 1.261 . S
O1477 Tb1464 2.303 . S
O1477 C1487 1.257 1_554 S
O1478 Tb1465 2.415 . S
O1478 C1494 1.239 . S
O1479 Tb1465 2.382 1_556 S
O1479 C1494 1.240 1_556 S
O1480 Tb1465 2.325 . S
O1480 C1495 1.236 . S
O1481 Tb1464 2.322 . S
O1481 C1495 1.257 . S
O1482 Tb1464 2.349 . S
O1482 C1466 1.261 . S
O1483 Tb1465 2.303 . S
O1483 C1466 1.257 . S
C1484 O1474 1.236 . S
C1484 O1475 1.257 . S
O1485 Tb1464 2.415 1_655 S
O1485 C1473 1.239 . S
O1486 Tb1464 2.399 1_655 S
O1486 C1473 1.263 . S
C1487 O1476 1.261 . S
C1487 O1477 1.257 1_556 S
C1488 C1491 1.358 1_554 S
C1488 C1492 1.332 . S
C1488 C1494 1.504 . S
C1489 C1490 1.373 1_554 S
C1489 C1493 1.308 . S
C1490 C1489 1.373 1_556 S
C1490 C1491 1.429 . S
C1490 H1500 0.932 . S
C1491 C1488 1.358 1_556 S
C1491 C1490 1.429 . S
C1491 H1501 0.930 . S
C1492 C1488 1.332 . S
C1492 C1493 1.394 . S
C1492 H1502 0.932 . S
C1493 C1489 1.308 . S
C1493 C1492 1.394 . S
C1493 H1503 0.929 . S
C1494 Tb1465 2.764 . S
C1494 O1478 1.239 . S
C1494 O1479 1.240 1_554 S
C1494 C1488 1.504 . S
C1495 O1480 1.236 . S
C1495 O1481 1.257 . S
H1496 C1469 0.932 . S
H1497 C1470 0.930 . S
H1498 C1471 0.932 . S
H1499 C1472 0.929 . S
H1500 C1490 0.932 . S
H1501 C1491 0.930 . S
H1502 C1492 0.932 . S
H1503 C1493 0.929 . S
C1504 C1505 1.391 . S
C1504 C1506 1.394 . S
C1504 H1520 0.931 . S
C1505 C1504 1.391 . S
C1505 C1509 1.376 1_655 S
C1506 C1504 1.394 . S
C1506 C1507 1.369 1_655 S
C1506 C1510 1.531 1_556 S
C1507 C1506 1.369 1_455 S
C1507 C1508 1.410 . S
C1507 C1515 1.503 . S
C1508 C1507 1.410 . S
C1508 C1509 1.392 . S
C1508 C1511 1.511 . S
C1509 C1505 1.376 1_455 S
C1509 C1508 1.392 . S
C1509 H1521 0.929 . S
C1510 C1506 1.531 1_554 S
C1510 H1522 0.960 . S
C1510 H1523 0.962 . S
C1510 H1524 0.960 . S
C1511 C1508 1.511 . S
C1511 H1525 0.961 . S
C1511 H1526 0.961 . S
C1511 H1527 0.961 . S
C1512 C1513 1.370 . S
C1512 C1514 1.363 . S
C1512 H1528 0.931 . S
C1513 C1512 1.370 . S
C1513 C1517 1.429 . S
C1514 C1512 1.363 . S
C1514 C1515 1.370 1_554 S
C1514 C1518 1.524 . S
C1515 C1507 1.503 . S
C1515 C1514 1.370 1_556 S
C1515 C1516 1.403 1_455 S
C1516 C1515 1.403 1_655 S
C1516 C1517 1.383 1_656 S
C1516 C1519 1.539 . S
C1517 C1513 1.429 . S
C1517 C1516 1.383 1_454 S
C1517 H1529 0.934 1_454 S
C1518 C1514 1.524 . S
C1518 H1530 0.956 . S
C1518 H1531 0.961 1_554 S
C1518 H1532 0.961 . S
C1519 C1516 1.539 . S
C1519 H1533 0.958 . S
C1519 H1534 0.961 . S
C1519 H1535 0.960 . S
H1520 C1504 0.931 . S
H1521 C1509 0.929 . S
H1522 C1510 0.960 . S
H1523 C1510 0.962 . S
H1524 C1510 0.960 . S
H1525 C1511 0.961 . S
H1526 C1511 0.961 . S
H1527 C1511 0.961 . S
H1528 C1512 0.931 . S
H1529 C1517 0.934 1_656 S
H1530 C1518 0.956 . S
H1531 C1518 0.961 1_556 S
H1532 C1518 0.961 . S
H1533 C1519 0.958 . S
H1534 C1519 0.961 . S
H1535 C1519 0.960 . S
C1536 C1537 1.391 . S
C1536 C1538 1.394 . S
C1536 H1552 0.931 . S
C1537 C1536 1.391 . S
C1537 C1541 1.376 . S
C1538 C1536 1.394 . S
C1538 C1539 1.369 . S
C1538 C1542 1.531 . S
C1539 C1538 1.369 . S
C1539 C1540 1.410 . S
C1539 C1547 1.503 . S
C1540 C1539 1.410 . S
C1540 C1541 1.392 . S
C1540 C1543 1.511 . S
C1541 C1537 1.376 . S
C1541 C1540 1.392 . S
C1541 H1553 0.929 . S
C1542 C1538 1.531 . S
C1542 H1554 0.960 . S
C1542 H1555 0.962 . S
C1542 H1556 0.960 . S
C1543 C1540 1.511 . S
C1543 H1557 0.961 . S
C1543 H1558 0.961 . S
C1543 H1559 0.961 . S
C1544 C1545 1.370 . S
C1544 C1546 1.363 . S
C1544 H1560 0.931 . S
C1545 C1544 1.370 . S
C1545 C1549 1.408 . S
C1546 C1544 1.363 . S
C1546 C1547 1.370 . S
C1546 C1550 1.524 . S
C1547 C1539 1.503 . S
C1547 C1546 1.370 . S
C1547 C1548 1.403 . S
C1548 C1547 1.403 . S
C1548 C1549 1.404 . S
C1548 C1551 1.539 . S
C1549 C1545 1.408 . S
C1549 C1548 1.404 . S
C1549 H1561 0.930 . S
C1550 C1546 1.524 . S
C1550 H1562 0.956 . S
C1550 H1563 0.961 . S
C1550 H1564 0.961 . S
C1551 C1548 1.539 . S
C1551 H1565 0.958 . S
C1551 H1566 0.961 . S
C1551 H1567 0.960 . S
H1552 C1536 0.931 . S
H1553 C1541 0.929 . S
H1554 C1542 0.960 . S
H1555 C1542 0.962 . S
H1556 C1542 0.960 . S
H1557 C1543 0.961 . S
H1558 C1543 0.961 . S
H1559 C1543 0.961 . S
H1560 C1544 0.931 . S
H1561 C1549 0.930 . S
H1562 C1550 0.956 . S
H1563 C1550 0.961 . S
H1564 C1550 0.961 . S
H1565 C1551 0.958 . S
H1566 C1551 0.961 . S
H1567 C1551 0.960 . S
C1568 C1569 1.391 . S
C1568 C1570 1.394 . S
C1568 H1584 0.931 . S
C1569 C1568 1.391 . S
C1569 C1573 1.376 . S
C1570 C1568 1.394 . S
C1570 C1571 1.369 . S
C1570 C1574 1.531 . S
C1571 C1570 1.369 . S
C1571 C1572 1.410 . S
C1571 C1579 1.503 . S
C1572 C1571 1.410 . S
C1572 C1573 1.392 . S
C1572 C1575 1.511 . S
C1573 C1569 1.376 . S
C1573 C1572 1.392 . S
C1573 H1585 0.929 . S
C1574 C1570 1.531 . S
C1574 H1586 0.960 . S
C1574 H1587 0.962 . S
C1574 H1588 0.960 . S
C1575 C1572 1.511 . S
C1575 H1589 0.961 . S
C1575 H1590 0.961 . S
C1575 H1591 0.961 . S
C1576 C1577 1.370 . S
C1576 C1578 1.363 . S
C1576 H1592 0.931 . S
C1577 C1576 1.370 . S
C1577 C1581 1.408 . S
C1578 C1576 1.363 . S
C1578 C1579 1.370 . S
C1578 C1582 1.524 . S
C1579 C1571 1.503 . S
C1579 C1578 1.370 . S
C1579 C1580 1.403 . S
C1580 C1579 1.403 . S
C1580 C1581 1.404 . S
C1580 C1583 1.539 . S
C1581 C1577 1.408 . S
C1581 C1580 1.404 . S
C1581 H1593 0.930 . S
C1582 C1578 1.524 . S
C1582 H1594 0.956 . S
C1582 H1595 0.961 . S
C1582 H1596 0.961 . S
C1583 C1580 1.539 . S
C1583 H1597 0.958 . S
C1583 H1598 0.961 . S
C1583 H1599 0.960 . S
H1584 C1568 0.931 . S
H1585 C1573 0.929 . S
H1586 C1574 0.960 . S
H1587 C1574 0.962 . S
H1588 C1574 0.960 . S
H1589 C1575 0.961 . S
H1590 C1575 0.961 . S
H1591 C1575 0.961 . S
H1592 C1576 0.931 . S
H1593 C1581 0.930 . S
H1594 C1582 0.956 . S
H1595 C1582 0.961 . S
H1596 C1582 0.961 . S
H1597 C1583 0.958 . S
H1598 C1583 0.961 . S
H1599 C1583 0.960 . S
C1600 C1601 1.391 . S
C1600 C1602 1.394 . S
C1600 H1616 0.931 . S
C1601 C1600 1.391 . S
C1601 C1605 1.376 . S
C1602 C1600 1.394 . S
C1602 C1603 1.369 . S
C1602 C1606 1.531 . S
C1603 C1602 1.369 . S
C1603 C1604 1.410 . S
C1603 C1611 1.503 . S
C1604 C1603 1.410 . S
C1604 C1605 1.392 . S
C1604 C1607 1.511 . S
C1605 C1601 1.376 . S
C1605 C1604 1.392 . S
C1605 H1617 0.929 . S
C1606 C1602 1.531 . S
C1606 H1618 0.960 . S
C1606 H1619 0.962 . S
C1606 H1620 0.960 . S
C1607 C1604 1.511 . S
C1607 H1621 0.961 . S
C1607 H1622 0.961 . S
C1607 H1623 0.961 . S
C1608 C1609 1.370 . S
C1608 C1610 1.363 . S
C1608 H1624 0.931 . S
C1609 C1608 1.370 . S
C1609 C1613 1.408 . S
C1610 C1608 1.363 . S
C1610 C1611 1.370 . S
C1610 C1614 1.524 . S
C1611 C1603 1.503 . S
C1611 C1610 1.370 . S
C1611 C1612 1.403 . S
C1612 C1611 1.403 . S
C1612 C1613 1.404 . S
C1612 C1615 1.539 . S
C1613 C1609 1.408 . S
C1613 C1612 1.404 . S
C1613 H1625 0.930 . S
C1614 C1610 1.524 . S
C1614 H1626 0.956 . S
C1614 H1627 0.961 . S
C1614 H1628 0.961 . S
C1615 C1612 1.539 . S
C1615 H1629 0.958 . S
C1615 H1630 0.961 . S
C1615 H1631 0.960 . S
H1616 C1600 0.931 . S
H1617 C1605 0.929 . S
H1618 C1606 0.960 . S
H1619 C1606 0.962 . S
H1620 C1606 0.960 . S
H1621 C1607 0.961 . S
H1622 C1607 0.961 . S
H1623 C1607 0.961 . S
H1624 C1608 0.931 . S
H1625 C1613 0.930 . S
H1626 C1614 0.956 . S
H1627 C1614 0.961 . S
H1628 C1614 0.961 . S
H1629 C1615 0.958 . S
H1630 C1615 0.961 . S
H1631 C1615 0.960 . S
C1632 C1633 1.391 . S
C1632 C1634 1.394 . S
C1632 H1648 0.931 . S
C1633 C1632 1.391 . S
C1633 C1637 1.376 . S
C1634 C1632 1.394 . S
C1634 C1635 1.369 . S
C1634 C1638 1.531 . S
C1635 C1634 1.369 . S
C1635 C1636 1.410 . S
C1635 C1643 1.503 . S
C1636 C1635 1.410 . S
C1636 C1637 1.392 . S
C1636 C1639 1.511 . S
C1637 C1633 1.376 . S
C1637 C1636 1.392 . S
C1637 H1649 0.929 . S
C1638 C1634 1.531 . S
C1638 H1650 0.960 . S
C1638 H1651 0.962 . S
C1638 H1652 0.960 . S
C1639 C1636 1.511 . S
C1639 H1653 0.943 1_455 S
C1639 H1654 0.961 . S
C1639 H1655 0.961 . S
C1640 C1641 1.370 . S
C1640 C1642 1.363 . S
C1640 H1656 0.931 . S
C1641 C1640 1.370 . S
C1641 C1645 1.408 . S
C1642 C1640 1.363 . S
C1642 C1643 1.370 . S
C1642 C1646 1.524 . S
C1643 C1635 1.503 . S
C1643 C1642 1.370 . S
C1643 C1644 1.403 . S
C1644 C1643 1.403 . S
C1644 C1645 1.404 . S
C1644 C1647 1.539 . S
C1645 C1641 1.408 . S
C1645 C1644 1.404 . S
C1645 H1657 0.930 . S
C1646 C1642 1.524 . S
C1646 H1658 0.956 . S
C1646 H1659 0.961 . S
C1646 H1660 0.961 . S
C1647 C1644 1.539 . S
C1647 H1661 0.958 . S
C1647 H1662 0.961 . S
C1647 H1663 0.960 . S
H1648 C1632 0.931 . S
H1649 C1637 0.929 . S
H1650 C1638 0.960 . S
H1651 C1638 0.962 . S
H1652 C1638 0.960 . S
H1653 C1639 0.943 1_655 S
H1654 C1639 0.961 . S
H1655 C1639 0.961 . S
H1656 C1640 0.931 . S
H1657 C1645 0.930 . S
H1658 C1646 0.956 . S
H1659 C1646 0.961 . S
H1660 C1646 0.961 . S
H1661 C1647 0.958 . S
H1662 C1647 0.961 . S
H1663 C1647 0.960 . S
C1664 C1665 1.391 . S
C1664 C1666 1.394 . S
C1664 H1680 0.931 . S
C1665 C1664 1.391 . S
C1665 C1669 1.376 . S
C1666 C1664 1.394 . S
C1666 C1667 1.369 . S
C1666 C1670 1.531 . S
C1667 C1666 1.369 . S
C1667 C1668 1.410 . S
C1667 C1675 1.503 . S
C1668 C1667 1.410 . S
C1668 C1669 1.392 . S
C1668 C1671 1.511 . S
C1669 C1665 1.376 . S
C1669 C1668 1.392 . S
C1669 H1681 0.929 . S
C1670 C1666 1.531 . S
C1670 H1682 0.960 . S
C1670 H1683 0.962 . S
C1670 H1684 0.960 . S
C1671 C1668 1.511 . S
C1671 H1685 0.961 . S
C1671 H1686 0.961 . S
C1671 H1687 0.961 . S
C1672 C1673 1.370 . S
C1672 C1674 1.363 . S
C1672 H1688 0.931 . S
C1673 C1672 1.370 . S
C1673 C1677 1.408 . S
C1674 C1672 1.363 . S
C1674 C1675 1.370 . S
C1674 C1678 1.524 . S
C1675 C1667 1.503 . S
C1675 C1674 1.370 . S
C1675 C1676 1.403 . S
C1676 C1675 1.403 . S
C1676 C1677 1.404 . S
C1676 C1679 1.539 . S
C1677 C1673 1.408 . S
C1677 C1676 1.404 . S
C1677 H1689 0.930 . S
C1678 C1674 1.524 . S
C1678 H1690 0.956 . S
C1678 H1691 0.961 . S
C1678 H1692 0.961 . S
C1679 C1676 1.539 . S
C1679 H1693 0.958 . S
C1679 H1694 0.961 . S
C1679 H1695 0.960 . S
H1680 C1664 0.931 . S
H1681 C1669 0.929 . S
H1682 C1670 0.960 . S
H1683 C1670 0.962 . S
H1684 C1670 0.960 . S
H1685 C1671 0.961 . S
H1686 C1671 0.961 . S
H1687 C1671 0.961 . S
H1688 C1672 0.931 . S
H1689 C1677 0.930 . S
H1690 C1678 0.956 . S
H1691 C1678 0.961 . S
H1692 C1678 0.961 . S
H1693 C1679 0.958 . S
H1694 C1679 0.961 . S
H1695 C1679 0.960 . S
C1696 C1697 1.391 . S
C1696 C1698 1.394 . S
C1696 H1712 0.931 . S
C1697 C1696 1.391 . S
C1697 C1701 1.376 . S
C1698 C1696 1.394 . S
C1698 C1699 1.369 . S
C1698 C1702 1.531 . S
C1699 C1698 1.369 . S
C1699 C1700 1.410 . S
C1699 C1707 1.503 . S
C1700 C1699 1.410 . S
C1700 C1701 1.392 . S
C1700 C1703 1.511 . S
C1701 C1697 1.376 . S
C1701 C1700 1.392 . S
C1701 H1713 0.929 . S
C1702 C1698 1.531 . S
C1702 H1714 0.960 . S
C1702 H1715 0.962 . S
C1702 H1716 0.960 . S
C1703 C1700 1.511 . S
C1703 H1717 0.961 . S
C1703 H1718 0.961 . S
C1703 H1719 0.961 . S
C1704 C1705 1.370 . S
C1704 C1706 1.363 . S
C1704 H1720 0.931 . S
C1705 C1704 1.370 . S
C1705 C1709 1.408 . S
C1706 C1704 1.363 . S
C1706 C1707 1.370 . S
C1706 C1710 1.524 . S
C1707 C1699 1.503 . S
C1707 C1706 1.370 . S
C1707 C1708 1.403 . S
C1708 C1707 1.403 . S
C1708 C1709 1.404 . S
C1708 C1711 1.539 . S
C1709 C1705 1.408 . S
C1709 C1708 1.404 . S
C1709 H1721 0.930 . S
C1710 C1706 1.524 . S
C1710 H1722 0.956 . S
C1710 H1723 0.961 . S
C1710 H1724 0.961 . S
C1711 C1708 1.539 . S
C1711 H1725 0.958 . S
C1711 H1726 0.961 . S
C1711 H1727 0.960 . S
H1712 C1696 0.931 . S
H1713 C1701 0.929 . S
H1714 C1702 0.960 . S
H1715 C1702 0.962 . S
H1716 C1702 0.960 . S
H1717 C1703 0.961 . S
H1718 C1703 0.961 . S
H1719 C1703 0.961 . S
H1720 C1704 0.931 . S
H1721 C1709 0.930 . S
H1722 C1710 0.956 . S
H1723 C1710 0.961 . S
H1724 C1710 0.961 . S
H1725 C1711 0.958 . S
H1726 C1711 0.961 . S
H1727 C1711 0.960 . S
C1728 C1729 1.391 . S
C1728 C1730 1.394 . S
C1728 H1744 0.931 . S
C1729 C1728 1.391 . S
C1729 C1733 1.376 . S
C1730 C1728 1.394 . S
C1730 C1731 1.369 . S
C1730 C1734 1.531 . S
C1731 C1730 1.369 . S
C1731 C1732 1.410 . S
C1731 C1739 1.503 . S
C1732 C1731 1.410 . S
C1732 C1733 1.392 . S
C1732 C1735 1.511 . S
C1733 C1729 1.376 . S
C1733 C1732 1.392 . S
C1733 H1745 0.929 . S
C1734 C1730 1.531 . S
C1734 H1746 0.960 . S
C1734 H1747 0.962 . S
C1734 H1748 0.960 . S
C1735 C1732 1.511 . S
C1735 H1749 0.961 . S
C1735 H1750 0.961 . S
C1735 H1751 0.961 . S
C1736 C1737 1.370 . S
C1736 C1738 1.363 . S
C1736 H1752 0.931 . S
C1737 C1736 1.370 . S
C1737 C1741 1.408 . S
C1738 C1736 1.363 . S
C1738 C1739 1.370 . S
C1738 C1742 1.524 . S
C1739 C1731 1.503 . S
C1739 C1738 1.370 . S
C1739 C1740 1.403 . S
C1740 C1739 1.403 . S
C1740 C1741 1.404 . S
C1740 C1743 1.539 . S
C1741 C1737 1.408 . S
C1741 C1740 1.404 . S
C1741 H1753 0.930 . S
C1742 C1738 1.524 . S
C1742 H1754 0.956 . S
C1742 H1755 0.961 . S
C1742 H1756 0.961 . S
C1743 C1740 1.539 . S
C1743 H1757 0.958 . S
C1743 H1758 0.961 . S
C1743 H1759 0.960 . S
H1744 C1728 0.931 . S
H1745 C1733 0.929 . S
H1746 C1734 0.960 . S
H1747 C1734 0.962 . S
H1748 C1734 0.960 . S
H1749 C1735 0.961 . S
H1750 C1735 0.961 . S
H1751 C1735 0.961 . S
H1752 C1736 0.931 . S
H1753 C1741 0.930 . S
H1754 C1742 0.956 . S
H1755 C1742 0.961 . S
H1756 C1742 0.961 . S
H1757 C1743 0.958 . S
H1758 C1743 0.961 . S
H1759 C1743 0.960 . S
C1760 C1761 1.392 1_565 S
C1760 C1762 1.394 1_565 S
C1760 H1776 0.930 . S
C1761 C1760 1.392 1_545 S
C1761 C1765 1.376 . S
C1762 C1760 1.394 1_545 S
C1762 C1763 1.369 . S
C1762 C1766 1.531 1_645 S
C1763 C1762 1.369 . S
C1763 C1764 1.410 . S
C1763 C1771 1.503 . S
C1764 C1763 1.410 . S
C1764 C1765 1.392 . S
C1764 C1767 1.511 . S
C1765 C1761 1.376 . S
C1765 C1764 1.392 . S
C1765 H1777 0.929 . S
C1766 C1762 1.531 1_465 S
C1766 H1778 0.960 . S
C1766 H1779 0.962 1_565 S
C1766 H1780 0.963 1_455 S
C1767 C1764 1.511 . S
C1767 H1781 0.961 . S
C1767 H1782 0.961 . S
C1767 H1783 0.961 . S
C1768 C1769 1.370 . S
C1768 C1770 1.363 . S
C1768 H1784 0.931 . S
C1769 C1768 1.370 . S
C1769 C1773 1.408 . S
C1770 C1768 1.363 . S
C1770 C1771 1.370 1_455 S
C1770 C1774 1.524 . S
C1771 C1763 1.503 . S
C1771 C1770 1.370 1_655 S
C1771 C1772 1.403 . S
C1772 C1771 1.403 . S
C1772 C1773 1.404 1_655 S
C1772 C1775 1.539 1_545 S
C1773 C1769 1.408 . S
C1773 C1772 1.404 1_455 S
C1773 H1785 0.923 1_545 S
C1774 C1770 1.524 . S
C1774 H1786 0.956 . S
C1774 H1787 0.961 1_455 S
C1774 H1788 0.961 . S
C1775 C1772 1.539 1_565 S
C1775 H1789 0.958 . S
C1775 H1790 0.961 . S
C1775 H1791 0.960 . S
H1776 C1760 0.930 . S
H1777 C1765 0.929 . S
H1778 C1766 0.960 . S
H1779 C1766 0.962 1_545 S
H1780 C1766 0.963 1_655 S
H1781 C1767 0.961 . S
H1782 C1767 0.961 . S
H1783 C1767 0.961 . S
H1784 C1768 0.931 . S
H1785 C1773 0.923 1_565 S
H1786 C1774 0.956 . S
H1787 C1774 0.961 1_655 S
H1788 C1774 0.961 . S
H1789 C1775 0.958 . S
H1790 C1775 0.961 . S
H1791 C1775 0.960 . S
C1792 C1793 1.391 . S
C1792 C1794 1.394 . S
C1792 H1808 0.931 . S
C1793 C1792 1.391 . S
C1793 C1797 1.376 . S
C1794 C1792 1.394 . S
C1794 C1795 1.369 . S
C1794 C1798 1.531 . S
C1795 C1794 1.369 . S
C1795 C1796 1.410 . S
C1795 C1803 1.503 . S
C1796 C1795 1.410 . S
C1796 C1797 1.392 . S
C1796 C1799 1.511 . S
C1797 C1793 1.376 . S
C1797 C1796 1.392 . S
C1797 H1809 0.929 . S
C1798 C1794 1.531 . S
C1798 H1810 0.960 . S
C1798 H1811 0.962 . S
C1798 H1812 0.960 . S
C1799 C1796 1.511 . S
C1799 H1813 0.961 . S
C1799 H1814 0.961 . S
C1799 H1815 0.961 . S
C1800 C1801 1.370 . S
C1800 C1802 1.363 . S
C1800 H1816 0.931 . S
C1801 C1800 1.370 . S
C1801 C1805 1.408 . S
C1802 C1800 1.363 . S
C1802 C1803 1.370 . S
C1802 C1806 1.524 . S
C1803 C1795 1.503 . S
C1803 C1802 1.370 . S
C1803 C1804 1.403 . S
C1804 C1803 1.403 . S
C1804 C1805 1.404 . S
C1804 C1807 1.539 . S
C1805 C1801 1.408 . S
C1805 C1804 1.404 . S
C1805 H1817 0.930 . S
C1806 C1802 1.524 . S
C1806 H1818 0.956 . S
C1806 H1819 0.961 . S
C1806 H1820 0.961 . S
C1807 C1804 1.539 . S
C1807 H1821 0.958 . S
C1807 H1822 0.961 . S
C1807 H1823 0.960 . S
H1808 C1792 0.931 . S
H1809 C1797 0.929 . S
H1810 C1798 0.960 . S
H1811 C1798 0.962 . S
H1812 C1798 0.960 . S
H1813 C1799 0.961 . S
H1814 C1799 0.961 . S
H1815 C1799 0.961 . S
H1816 C1800 0.931 . S
H1817 C1805 0.930 . S
H1818 C1806 0.956 . S
H1819 C1806 0.961 . S
H1820 C1806 0.961 . S
H1821 C1807 0.958 . S
H1822 C1807 0.961 . S
H1823 C1807 0.960 . S
C1824 C1825 1.391 . S
C1824 C1826 1.394 . S
C1824 H1840 0.931 . S
C1825 C1824 1.391 . S
C1825 C1829 1.376 . S
C1826 C1824 1.394 . S
C1826 C1827 1.369 . S
C1826 C1830 1.531 . S
C1827 C1826 1.369 . S
C1827 C1828 1.410 . S
C1827 C1835 1.503 . S
C1828 C1827 1.410 . S
C1828 C1829 1.392 . S
C1828 C1831 1.511 . S
C1829 C1825 1.376 . S
C1829 C1828 1.392 . S
C1829 H1841 0.929 . S
C1830 C1826 1.531 . S
C1830 H1842 0.960 . S
C1830 H1843 0.962 1_545 S
C1830 H1844 0.960 . S
C1831 C1828 1.511 . S
C1831 H1845 0.961 . S
C1831 H1846 0.961 . S
C1831 H1847 0.961 . S
C1832 C1833 1.370 . S
C1832 C1834 1.363 . S
C1832 H1848 0.931 . S
C1833 C1832 1.370 . S
C1833 C1837 1.408 . S
C1834 C1832 1.363 . S
C1834 C1835 1.370 . S
C1834 C1838 1.536 . S
C1835 C1827 1.503 . S
C1835 C1834 1.370 . S
C1835 C1836 1.403 . S
C1836 C1835 1.403 . S
C1836 C1837 1.404 . S
C1836 C1839 1.539 . S
C1837 C1833 1.408 . S
C1837 C1836 1.404 . S
C1837 H1849 0.930 . S
C1838 C1834 1.536 . S
C1838 H1850 0.948 1_545 S
C1838 H1851 0.964 . S
C1838 H1852 0.953 1_545 S
C1839 C1836 1.539 . S
C1839 H1853 0.958 . S
C1839 H1854 0.961 . S
C1839 H1855 0.960 . S
H1840 C1824 0.931 . S
H1841 C1829 0.929 . S
H1842 C1830 0.960 . S
H1843 C1830 0.962 1_565 S
H1844 C1830 0.960 . S
H1845 C1831 0.961 . S
H1846 C1831 0.961 . S
H1847 C1831 0.961 . S
H1848 C1832 0.931 . S
H1849 C1837 0.930 . S
H1850 C1838 0.948 1_565 S
H1851 C1838 0.964 . S
H1852 C1838 0.953 1_565 S
H1853 C1839 0.958 . S
H1854 C1839 0.961 . S
H1855 C1839 0.960 . S
C1856 C1857 1.391 . S
C1856 C1858 1.394 . S
C1856 H1872 0.931 . S
C1857 C1856 1.391 . S
C1857 C1861 1.376 . S
C1858 C1856 1.394 . S
C1858 C1859 1.369 . S
C1858 C1862 1.531 . S
C1859 C1858 1.369 . S
C1859 C1860 1.410 . S
C1859 C1867 1.503 . S
C1860 C1859 1.410 . S
C1860 C1861 1.392 . S
C1860 C1863 1.511 . S
C1861 C1857 1.376 . S
C1861 C1860 1.392 . S
C1861 H1873 0.929 . S
C1862 C1858 1.531 . S
C1862 H1874 0.960 . S
C1862 H1875 0.962 . S
C1862 H1876 0.960 . S
C1863 C1860 1.511 . S
C1863 H1877 0.961 . S
C1863 H1878 0.961 . S
C1863 H1879 0.961 . S
C1864 C1865 1.370 . S
C1864 C1866 1.363 . S
C1864 H1880 0.931 . S
C1865 C1864 1.370 . S
C1865 C1869 1.408 . S
C1866 C1864 1.363 . S
C1866 C1867 1.370 . S
C1866 C1870 1.524 . S
C1867 C1859 1.503 . S
C1867 C1866 1.370 . S
C1867 C1868 1.403 . S
C1868 C1867 1.403 . S
C1868 C1869 1.404 . S
C1868 C1871 1.539 . S
C1869 C1865 1.408 . S
C1869 C1868 1.404 . S
C1869 H1881 0.930 . S
C1870 C1866 1.524 . S
C1870 H1882 0.956 . S
C1870 H1883 0.961 . S
C1870 H1884 0.961 . S
C1871 C1868 1.539 . S
C1871 H1885 0.958 . S
C1871 H1886 0.961 . S
C1871 H1887 0.960 . S
H1872 C1856 0.931 . S
H1873 C1861 0.929 . S
H1874 C1862 0.960 . S
H1875 C1862 0.962 . S
H1876 C1862 0.960 . S
H1877 C1863 0.961 . S
H1878 C1863 0.961 . S
H1879 C1863 0.961 . S
H1880 C1864 0.931 . S
H1881 C1869 0.930 . S
H1882 C1870 0.956 . S
H1883 C1870 0.961 . S
H1884 C1870 0.961 . S
H1885 C1871 0.958 . S
H1886 C1871 0.961 . S
H1887 C1871 0.960 . S
C1888 C1889 1.391 1_565 S
C1888 C1890 1.394 . S
C1888 H1904 0.931 . S
C1889 C1888 1.391 1_545 S
C1889 C1893 1.376 . S
C1890 C1888 1.394 . S
C1890 C1891 1.369 1_565 S
C1890 C1894 1.531 . S
C1891 C1890 1.369 1_545 S
C1891 C1892 1.410 . S
C1891 C1899 1.503 . S
C1892 C1891 1.410 . S
C1892 C1893 1.392 . S
C1892 C1895 1.511 . S
C1893 C1889 1.376 . S
C1893 C1892 1.392 . S
C1893 H1905 0.929 . S
C1894 C1890 1.531 . S
C1894 H1906 0.960 . S
C1894 H1907 0.962 . S
C1894 H1908 0.960 . S
C1895 C1892 1.511 . S
C1895 H1909 0.961 . S
C1895 H1910 0.961 . S
C1895 H1911 0.961 1_655 S
C1896 C1897 1.370 1_655 S
C1896 C1898 1.363 . S
C1896 H1912 0.931 . S
C1897 C1896 1.370 1_455 S
C1897 C1901 1.408 . S
C1898 C1896 1.363 . S
C1898 C1899 1.370 . S
C1898 C1902 1.524 . S
C1899 C1891 1.503 . S
C1899 C1898 1.370 . S
C1899 C1900 1.403 1_655 S
C1900 C1899 1.403 1_455 S
C1900 C1901 1.404 . S
C1900 C1903 1.539 . S
C1901 C1897 1.408 . S
C1901 C1900 1.404 . S
C1901 H1913 0.930 . S
C1902 C1898 1.524 . S
C1902 H1914 0.956 . S
C1902 H1915 0.961 . S
C1902 H1916 0.961 . S
C1903 C1900 1.539 . S
C1903 H1917 0.958 1_545 S
C1903 H1918 0.961 . S
C1903 H1919 0.960 . S
H1904 C1888 0.931 . S
H1905 C1893 0.929 . S
H1906 C1894 0.960 . S
H1907 C1894 0.962 . S
H1908 C1894 0.960 . S
H1909 C1895 0.961 . S
H1910 C1895 0.961 . S
H1911 C1895 0.961 1_455 S
H1912 C1896 0.931 . S
H1913 C1901 0.930 . S
H1914 C1902 0.956 . S
H1915 C1902 0.961 . S
H1916 C1902 0.961 . S
H1917 C1903 0.958 1_565 S
H1918 C1903 0.961 . S
H1919 C1903 0.960 . S
C1920 C1921 1.391 . S
C1920 C1922 1.394 . S
C1920 H1936 0.931 . S
C1921 C1920 1.391 . S
C1921 C1925 1.376 . S
C1922 C1920 1.394 . S
C1922 C1923 1.369 . S
C1922 C1926 1.531 . S
C1923 C1922 1.369 . S
C1923 C1924 1.410 . S
C1923 C1931 1.503 . S
C1924 C1923 1.410 . S
C1924 C1925 1.392 . S
C1924 C1927 1.511 . S
C1925 C1921 1.376 . S
C1925 C1924 1.392 . S
C1925 H1937 0.929 . S
C1926 C1922 1.531 . S
C1926 H1938 0.960 . S
C1926 H1939 0.962 . S
C1926 H1940 0.960 . S
C1927 C1924 1.511 . S
C1927 H1941 0.961 . S
C1927 H1942 0.961 . S
C1927 H1943 0.961 . S
C1928 C1929 1.370 . S
C1928 C1930 1.363 . S
C1928 H1944 0.931 . S
C1929 C1928 1.370 . S
C1929 C1933 1.408 . S
C1930 C1928 1.363 . S
C1930 C1931 1.370 . S
C1930 C1934 1.524 . S
C1931 C1923 1.503 . S
C1931 C1930 1.370 . S
C1931 C1932 1.403 . S
C1932 C1931 1.403 . S
C1932 C1933 1.404 . S
C1932 C1935 1.539 . S
C1933 C1929 1.408 . S
C1933 C1932 1.404 . S
C1933 H1945 0.930 . S
C1934 C1930 1.524 . S
C1934 H1946 0.956 . S
C1934 H1947 0.961 . S
C1934 H1948 0.961 . S
C1935 C1932 1.539 . S
C1935 H1949 0.958 . S
C1935 H1950 0.961 . S
C1935 H1951 0.960 . S
H1936 C1920 0.931 . S
H1937 C1925 0.929 . S
H1938 C1926 0.960 . S
H1939 C1926 0.962 . S
H1940 C1926 0.960 . S
H1941 C1927 0.961 . S
H1942 C1927 0.961 . S
H1943 C1927 0.961 . S
H1944 C1928 0.931 . S
H1945 C1933 0.930 . S
H1946 C1934 0.956 . S
H1947 C1934 0.961 . S
H1948 C1934 0.961 . S
H1949 C1935 0.958 . S
H1950 C1935 0.961 . S
H1951 C1935 0.960 . S
C1952 C1953 1.391 . S
C1952 C1954 1.394 . S
C1952 H1968 0.931 . S
C1953 C1952 1.391 . S
C1953 C1957 1.376 . S
C1954 C1952 1.394 . S
C1954 C1955 1.369 . S
C1954 C1958 1.531 . S
C1955 C1954 1.369 . S
C1955 C1956 1.410 . S
C1955 C1963 1.503 . S
C1956 C1955 1.410 . S
C1956 C1957 1.392 . S
C1956 C1959 1.511 . S
C1957 C1953 1.376 . S
C1957 C1956 1.392 . S
C1957 H1969 0.929 . S
C1958 C1954 1.531 . S
C1958 H1970 0.960 . S
C1958 H1971 0.962 . S
C1958 H1972 0.960 . S
C1959 C1956 1.511 . S
C1959 H1973 0.961 . S
C1959 H1974 0.961 . S
C1959 H1975 0.961 . S
C1960 C1961 1.370 . S
C1960 C1962 1.363 . S
C1960 H1976 0.931 . S
C1961 C1960 1.370 . S
C1961 C1965 1.408 . S
C1962 C1960 1.363 . S
C1962 C1963 1.370 . S
C1962 C1966 1.524 . S
C1963 C1955 1.503 . S
C1963 C1962 1.370 . S
C1963 C1964 1.403 . S
C1964 C1963 1.403 . S
C1964 C1965 1.404 . S
C1964 C1967 1.539 1_545 S
C1965 C1961 1.408 . S
C1965 C1964 1.404 . S
C1965 H1977 0.930 . S
C1966 C1962 1.524 . S
C1966 H1978 0.956 . S
C1966 H1979 0.961 . S
C1966 H1980 0.961 . S
C1967 C1964 1.539 1_565 S
C1967 H1981 0.958 . S
C1967 H1982 0.961 . S
C1967 H1983 0.960 . S
H1968 C1952 0.931 . S
H1969 C1957 0.929 . S
H1970 C1958 0.960 . S
H1971 C1958 0.962 . S
H1972 C1958 0.960 . S
H1973 C1959 0.961 . S
H1974 C1959 0.961 . S
H1975 C1959 0.961 . S
H1976 C1960 0.931 . S
H1977 C1965 0.930 . S
H1978 C1966 0.956 . S
H1979 C1966 0.961 . S
H1980 C1966 0.961 . S
H1981 C1967 0.958 . S
H1982 C1967 0.961 . S
H1983 C1967 0.960 . S
C1984 C1985 1.391 . S
C1984 C1986 1.394 . S
C1984 H2000 0.931 . S
C1985 C1984 1.391 . S
C1985 C1989 1.376 . S
C1986 C1984 1.394 . S
C1986 C1987 1.369 . S
C1986 C1990 1.531 . S
C1987 C1986 1.369 . S
C1987 C1988 1.410 . S
C1987 C1995 1.503 . S
C1988 C1987 1.410 . S
C1988 C1989 1.392 . S
C1988 C1991 1.511 . S
C1989 C1985 1.376 . S
C1989 C1988 1.392 . S
C1989 H2001 0.929 . S
C1990 C1986 1.531 . S
C1990 H2002 0.960 . S
C1990 H2003 0.962 . S
C1990 H2004 0.960 . S
C1991 C1988 1.511 . S
C1991 H2005 0.961 . S
C1991 H2006 0.961 . S
C1991 H2007 0.961 . S
C1992 C1993 1.370 . S
C1992 C1994 1.363 . S
C1992 H2008 0.931 . S
C1993 C1992 1.370 . S
C1993 C1997 1.408 . S
C1994 C1992 1.363 . S
C1994 C1995 1.370 . S
C1994 C1998 1.524 . S
C1995 C1987 1.503 . S
C1995 C1994 1.370 . S
C1995 C1996 1.403 . S
C1996 C1995 1.403 . S
C1996 C1997 1.404 . S
C1996 C1999 1.539 . S
C1997 C1993 1.408 . S
C1997 C1996 1.404 . S
C1997 H2009 0.930 . S
C1998 C1994 1.524 . S
C1998 H2010 0.956 . S
C1998 H2011 0.961 . S
C1998 H2012 0.961 . S
C1999 C1996 1.539 . S
C1999 H2013 0.958 . S
C1999 H2014 0.961 . S
C1999 H2015 0.960 . S
H2000 C1984 0.931 . S
H2001 C1989 0.929 . S
H2002 C1990 0.960 . S
H2003 C1990 0.962 . S
H2004 C1990 0.960 . S
H2005 C1991 0.961 . S
H2006 C1991 0.961 . S
H2007 C1991 0.961 . S
H2008 C1992 0.931 . S
H2009 C1997 0.930 . S
H2010 C1998 0.956 . S
H2011 C1998 0.961 . S
H2012 C1998 0.961 . S
H2013 C1999 0.958 . S
H2014 C1999 0.961 . S
H2015 C1999 0.960 . S
C2016 C2017 1.391 . S
C2016 C2018 1.394 . S
C2016 H2032 0.931 . S
C2017 C2016 1.391 . S
C2017 C2021 1.376 . S
C2018 C2016 1.394 . S
C2018 C2019 1.369 . S
C2018 C2022 1.531 . S
C2019 C2018 1.369 . S
C2019 C2020 1.410 . S
C2019 C2027 1.503 . S
C2020 C2019 1.410 . S
C2020 C2021 1.392 . S
C2020 C2023 1.511 1_565 S
C2021 C2017 1.376 . S
C2021 C2020 1.392 . S
C2021 H2033 0.929 . S
C2022 C2018 1.531 . S
C2022 H2034 0.960 . S
C2022 H2035 0.962 . S
C2022 H2036 0.960 . S
C2023 C2020 1.511 1_545 S
C2023 H2037 0.961 . S
C2023 H2038 0.961 . S
C2023 H2039 0.961 . S
C2024 C2025 1.370 . S
C2024 C2026 1.363 1_545 S
C2024 H2040 0.931 . S
C2025 C2024 1.370 . S
C2025 C2029 1.408 1_545 S
C2026 C2024 1.363 1_565 S
C2026 C2027 1.370 . S
C2026 C2030 1.524 . S
C2027 C2019 1.503 . S
C2027 C2026 1.370 . S
C2027 C2028 1.403 . S
C2028 C2027 1.403 . S
C2028 C2029 1.404 . S
C2028 C2031 1.539 . S
C2029 C2025 1.408 1_565 S
C2029 C2028 1.404 . S
C2029 H2041 0.931 . S
C2030 C2026 1.524 . S
C2030 H2042 0.956 1_554 S
C2030 H2043 0.968 1_554 S
C2030 H2044 0.961 1_554 S
C2031 C2028 1.539 . S
C2031 H2045 0.958 . S
C2031 H2046 0.961 . S
C2031 H2047 0.960 . S
H2032 C2016 0.931 . S
H2033 C2021 0.929 . S
H2034 C2022 0.960 . S
H2035 C2022 0.962 . S
H2036 C2022 0.960 . S
H2037 C2023 0.961 . S
H2038 C2023 0.961 . S
H2039 C2023 0.961 . S
H2040 C2024 0.931 . S
H2041 C2029 0.931 . S
H2042 C2030 0.956 1_556 S
H2043 C2030 0.968 1_556 S
H2044 C2030 0.961 1_556 S
H2045 C2031 0.958 . S
H2046 C2031 0.961 . S
H2047 C2031 0.960 . S
C2048 C2049 1.391 . S
C2048 C2050 1.394 . S
C2048 H2064 0.931 . S
C2049 C2048 1.391 . S
C2049 C2053 1.376 . S
C2050 C2048 1.394 . S
C2050 C2051 1.369 . S
C2050 C2054 1.531 . S
C2051 C2050 1.369 . S
C2051 C2052 1.410 . S
C2051 C2059 1.503 . S
C2052 C2051 1.410 . S
C2052 C2053 1.392 . S
C2052 C2055 1.511 . S
C2053 C2049 1.376 . S
C2053 C2052 1.392 . S
C2053 H2065 0.929 . S
C2054 C2050 1.531 . S
C2054 H2066 0.960 . S
C2054 H2067 0.962 . S
C2054 H2068 0.960 1_554 S
C2055 C2052 1.511 . S
C2055 H2069 0.961 . S
C2055 H2070 0.961 . S
C2055 H2071 0.961 . S
C2056 C2057 1.370 . S
C2056 C2058 1.363 . S
C2056 H2072 0.931 . S
C2057 C2056 1.370 . S
C2057 C2061 1.408 . S
C2058 C2056 1.363 . S
C2058 C2059 1.370 . S
C2058 C2062 1.524 . S
C2059 C2051 1.503 . S
C2059 C2058 1.370 . S
C2059 C2060 1.403 . S
C2060 C2059 1.403 . S
C2060 C2061 1.404 . S
C2060 C2063 1.539 1_554 S
C2061 C2057 1.408 . S
C2061 C2060 1.404 . S
C2061 H2073 0.931 . S
C2062 C2058 1.524 . S
C2062 H2074 0.956 . S
C2062 H2075 0.961 . S
C2062 H2076 0.961 . S
C2063 C2060 1.539 1_556 S
C2063 H2077 0.958 . S
C2063 H2078 0.961 . S
C2063 H2079 0.960 . S
H2064 C2048 0.931 . S
H2065 C2053 0.929 . S
H2066 C2054 0.960 . S
H2067 C2054 0.962 . S
H2068 C2054 0.960 1_556 S
H2069 C2055 0.961 . S
H2070 C2055 0.961 . S
H2071 C2055 0.961 . S
H2072 C2056 0.931 . S
H2073 C2061 0.931 . S
H2074 C2062 0.956 . S
H2075 C2062 0.961 . S
H2076 C2062 0.961 . S
H2077 C2063 0.958 . S
H2078 C2063 0.961 . S
H2079 C2063 0.960 . S
C2080 C2081 1.391 . S
C2080 C2082 1.394 . S
C2080 H2096 0.931 . S
C2081 C2080 1.391 . S
C2081 C2085 1.376 . S
C2082 C2080 1.394 . S
C2082 C2083 1.369 . S
C2082 C2086 1.531 . S
C2083 C2082 1.369 . S
C2083 C2084 1.410 . S
C2083 C2091 1.503 . S
C2084 C2083 1.410 . S
C2084 C2085 1.392 . S
C2084 C2087 1.511 . S
C2085 C2081 1.376 . S
C2085 C2084 1.392 . S
C2085 H2097 0.929 . S
C2086 C2082 1.531 . S
C2086 H2098 0.960 . S
C2086 H2099 0.962 . S
C2086 H2100 0.960 . S
C2087 C2084 1.511 . S
C2087 H2101 0.961 . S
C2087 H2102 0.961 . S
C2087 H2103 0.961 . S
C2088 C2089 1.370 . S
C2088 C2090 1.363 . S
C2088 H2104 0.931 . S
C2089 C2088 1.370 . S
C2089 C2093 1.408 . S
C2090 C2088 1.363 . S
C2090 C2091 1.370 . S
C2090 C2094 1.524 . S
C2091 C2083 1.503 . S
C2091 C2090 1.370 . S
C2091 C2092 1.403 . S
C2092 C2091 1.403 . S
C2092 C2093 1.404 . S
C2092 C2095 1.539 . S
C2093 C2089 1.408 . S
C2093 C2092 1.404 . S
C2093 H2105 0.930 . S
C2094 C2090 1.524 . S
C2094 H2106 0.956 . S
C2094 H2107 0.961 . S
C2094 H2108 0.961 . S
C2095 C2092 1.539 . S
C2095 H2109 0.958 . S
C2095 H2110 0.961 . S
C2095 H2111 0.960 . S
H2096 C2080 0.931 . S
H2097 C2085 0.929 . S
H2098 C2086 0.960 . S
H2099 C2086 0.962 . S
H2100 C2086 0.960 . S
H2101 C2087 0.961 . S
H2102 C2087 0.961 . S
H2103 C2087 0.961 . S
H2104 C2088 0.931 . S
H2105 C2093 0.930 . S
H2106 C2094 0.956 . S
H2107 C2094 0.961 . S
H2108 C2094 0.961 . S
H2109 C2095 0.958 . S
H2110 C2095 0.961 . S
H2111 C2095 0.960 . S
C2112 C2113 1.391 . S
C2112 C2114 1.394 . S
C2112 H2128 0.931 . S
C2113 C2112 1.391 . S
C2113 C2117 1.376 . S
C2114 C2112 1.394 . S
C2114 C2115 1.369 . S
C2114 C2118 1.531 . S
C2115 C2114 1.369 . S
C2115 C2116 1.410 . S
C2115 C2123 1.503 . S
C2116 C2115 1.410 . S
C2116 C2117 1.392 . S
C2116 C2119 1.511 . S
C2117 C2113 1.376 . S
C2117 C2116 1.392 . S
C2117 H2129 0.929 . S
C2118 C2114 1.531 . S
C2118 H2130 0.960 . S
C2118 H2131 0.962 . S
C2118 H2132 0.960 . S
C2119 C2116 1.511 . S
C2119 H2133 0.961 . S
C2119 H2134 0.961 . S
C2119 H2135 0.961 . S
C2120 C2121 1.370 . S
C2120 C2122 1.363 . S
C2120 H2136 0.931 . S
C2121 C2120 1.370 . S
C2121 C2125 1.408 . S
C2122 C2120 1.363 . S
C2122 C2123 1.370 . S
C2122 C2126 1.524 . S
C2123 C2115 1.503 . S
C2123 C2122 1.370 . S
C2123 C2124 1.403 . S
C2124 C2123 1.403 . S
C2124 C2125 1.404 . S
C2124 C2127 1.539 . S
C2125 C2121 1.408 . S
C2125 C2124 1.404 . S
C2125 H2137 0.930 . S
C2126 C2122 1.524 . S
C2126 H2138 0.956 . S
C2126 H2139 0.961 . S
C2126 H2140 0.961 . S
C2127 C2124 1.539 . S
C2127 H2141 0.958 . S
C2127 H2142 0.961 . S
C2127 H2143 0.960 . S
H2128 C2112 0.931 . S
H2129 C2117 0.929 . S
H2130 C2118 0.960 . S
H2131 C2118 0.962 . S
H2132 C2118 0.960 . S
H2133 C2119 0.961 . S
H2134 C2119 0.961 . S
H2135 C2119 0.961 . S
H2136 C2120 0.931 . S
H2137 C2125 0.930 . S
H2138 C2126 0.956 . S
H2139 C2126 0.961 . S
H2140 C2126 0.961 . S
H2141 C2127 0.958 . S
H2142 C2127 0.961 . S
H2143 C2127 0.960 . S
C2144 C2145 1.391 . S
C2144 C2146 1.394 . S
C2144 H2160 0.931 . S
C2145 C2144 1.391 . S
C2145 C2149 1.376 . S
C2146 C2144 1.394 . S
C2146 C2147 1.369 . S
C2146 C2150 1.531 . S
C2147 C2146 1.369 . S
C2147 C2148 1.410 . S
C2147 C2155 1.503 . S
C2148 C2147 1.410 . S
C2148 C2149 1.392 . S
C2148 C2151 1.511 . S
C2149 C2145 1.376 . S
C2149 C2148 1.392 . S
C2149 H2161 0.929 . S
C2150 C2146 1.531 . S
C2150 H2162 0.960 . S
C2150 H2163 0.962 . S
C2150 H2164 0.960 . S
C2151 C2148 1.511 . S
C2151 H2165 0.961 . S
C2151 H2166 0.961 . S
C2151 H2167 0.961 . S
C2152 C2153 1.370 . S
C2152 C2154 1.363 . S
C2152 H2168 0.931 . S
C2153 C2152 1.370 . S
C2153 C2157 1.408 . S
C2154 C2152 1.363 . S
C2154 C2155 1.370 . S
C2154 C2158 1.524 . S
C2155 C2147 1.503 . S
C2155 C2154 1.370 . S
C2155 C2156 1.403 . S
C2156 C2155 1.403 . S
C2156 C2157 1.404 . S
C2156 C2159 1.539 . S
C2157 C2153 1.408 . S
C2157 C2156 1.404 . S
C2157 H2169 0.930 . S
C2158 C2154 1.524 . S
C2158 H2170 0.956 . S
C2158 H2171 0.961 . S
C2158 H2172 0.961 . S
C2159 C2156 1.539 . S
C2159 H2173 0.958 . S
C2159 H2174 0.961 . S
C2159 H2175 0.960 . S
H2160 C2144 0.931 . S
H2161 C2149 0.929 . S
H2162 C2150 0.960 . S
H2163 C2150 0.962 . S
H2164 C2150 0.960 . S
H2165 C2151 0.961 . S
H2166 C2151 0.961 . S
H2167 C2151 0.961 . S
H2168 C2152 0.931 . S
H2169 C2157 0.930 . S
H2170 C2158 0.956 . S
H2171 C2158 0.961 . S
H2172 C2158 0.961 . S
H2173 C2159 0.958 . S
H2174 C2159 0.961 . S
H2175 C2159 0.960 . S
C2176 C2177 1.391 . S
C2176 C2178 1.394 . S
C2176 H2192 0.931 . S
C2177 C2176 1.391 . S
C2177 C2181 1.376 . S
C2178 C2176 1.394 . S
C2178 C2179 1.369 . S
C2178 C2182 1.531 . S
C2179 C2178 1.369 . S
C2179 C2180 1.410 . S
C2179 C2187 1.503 . S
C2180 C2179 1.410 . S
C2180 C2181 1.392 . S
C2180 C2183 1.511 . S
C2181 C2177 1.376 . S
C2181 C2180 1.392 . S
C2181 H2193 0.929 . S
C2182 C2178 1.531 . S
C2182 H2194 0.960 . S
C2182 H2195 0.962 . S
C2182 H2196 0.960 . S
C2183 C2180 1.511 . S
C2183 H2197 0.961 . S
C2183 H2198 0.961 . S
C2183 H2199 0.961 . S
C2184 C2185 1.370 . S
C2184 C2186 1.363 . S
C2184 H2200 0.931 . S
C2185 C2184 1.370 . S
C2185 C2189 1.408 . S
C2186 C2184 1.363 . S
C2186 C2187 1.370 . S
C2186 C2190 1.524 . S
C2187 C2179 1.503 . S
C2187 C2186 1.370 . S
C2187 C2188 1.403 . S
C2188 C2187 1.403 . S
C2188 C2189 1.404 . S
C2188 C2191 1.539 . S
C2189 C2185 1.408 . S
C2189 C2188 1.404 . S
C2189 H2201 0.930 . S
C2190 C2186 1.524 . S
C2190 H2202 0.956 . S
C2190 H2203 0.961 . S
C2190 H2204 0.961 . S
C2191 C2188 1.539 . S
C2191 H2205 0.958 . S
C2191 H2206 0.961 . S
C2191 H2207 0.960 . S
H2192 C2176 0.931 . S
H2193 C2181 0.929 . S
H2194 C2182 0.960 . S
H2195 C2182 0.962 . S
H2196 C2182 0.960 . S
H2197 C2183 0.961 . S
H2198 C2183 0.961 . S
H2199 C2183 0.961 . S
H2200 C2184 0.931 . S
H2201 C2189 0.930 . S
H2202 C2190 0.956 . S
H2203 C2190 0.961 . S
H2204 C2190 0.961 . S
H2205 C2191 0.958 . S
H2206 C2191 0.961 . S
H2207 C2191 0.960 . S
C2208 C2209 1.391 . S
C2208 C2210 1.394 . S
C2208 H2224 0.931 . S
C2209 C2208 1.391 . S
C2209 C2213 1.376 . S
C2210 C2208 1.394 . S
C2210 C2211 1.369 . S
C2210 C2214 1.531 . S
C2211 C2210 1.369 . S
C2211 C2212 1.410 . S
C2211 C2219 1.503 . S
C2212 C2211 1.410 . S
C2212 C2213 1.392 . S
C2212 C2215 1.511 . S
C2213 C2209 1.376 . S
C2213 C2212 1.392 . S
C2213 H2225 0.929 . S
C2214 C2210 1.531 . S
C2214 H2226 0.960 . S
C2214 H2227 0.962 . S
C2214 H2228 0.960 . S
C2215 C2212 1.511 . S
C2215 H2229 0.961 . S
C2215 H2230 0.961 . S
C2215 H2231 0.961 . S
C2216 C2217 1.370 . S
C2216 C2218 1.363 . S
C2216 H2232 0.931 . S
C2217 C2216 1.370 . S
C2217 C2221 1.408 . S
C2218 C2216 1.363 . S
C2218 C2219 1.370 . S
C2218 C2222 1.524 . S
C2219 C2211 1.503 . S
C2219 C2218 1.370 . S
C2219 C2220 1.403 . S
C2220 C2219 1.403 . S
C2220 C2221 1.404 . S
C2220 C2223 1.539 . S
C2221 C2217 1.408 . S
C2221 C2220 1.404 . S
C2221 H2233 0.930 . S
C2222 C2218 1.524 . S
C2222 H2234 0.956 . S
C2222 H2235 0.961 . S
C2222 H2236 0.961 . S
C2223 C2220 1.539 . S
C2223 H2237 0.958 . S
C2223 H2238 0.961 . S
C2223 H2239 0.960 . S
H2224 C2208 0.931 . S
H2225 C2213 0.929 . S
H2226 C2214 0.960 . S
H2227 C2214 0.962 . S
H2228 C2214 0.960 . S
H2229 C2215 0.961 . S
H2230 C2215 0.961 . S
H2231 C2215 0.961 . S
H2232 C2216 0.931 . S
H2233 C2221 0.930 . S
H2234 C2222 0.956 . S
H2235 C2222 0.961 . S
H2236 C2222 0.961 . S
H2237 C2223 0.958 . S
H2238 C2223 0.961 . S
H2239 C2223 0.960 . S
C2240 C2241 1.391 . S
C2240 C2242 1.394 . S
C2240 H2256 0.931 . S
C2241 C2240 1.391 . S
C2241 C2245 1.376 . S
C2242 C2240 1.394 . S
C2242 C2243 1.369 . S
C2242 C2246 1.531 . S
C2243 C2242 1.369 . S
C2243 C2244 1.410 . S
C2243 C2251 1.503 . S
C2244 C2243 1.410 . S
C2244 C2245 1.392 . S
C2244 C2247 1.511 . S
C2245 C2241 1.376 . S
C2245 C2244 1.392 . S
C2245 H2257 0.929 . S
C2246 C2242 1.531 . S
C2246 H2258 0.960 . S
C2246 H2259 0.962 . S
C2246 H2260 0.960 . S
C2247 C2244 1.511 . S
C2247 H2261 0.961 . S
C2247 H2262 0.961 . S
C2247 H2263 0.961 . S
C2248 C2249 1.370 . S
C2248 C2250 1.363 . S
C2248 H2264 0.931 . S
C2249 C2248 1.370 . S
C2249 C2253 1.408 . S
C2250 C2248 1.363 . S
C2250 C2251 1.370 . S
C2250 C2254 1.524 . S
C2251 C2243 1.503 . S
C2251 C2250 1.370 . S
C2251 C2252 1.403 . S
C2252 C2251 1.403 . S
C2252 C2253 1.404 . S
C2252 C2255 1.539 . S
C2253 C2249 1.408 . S
C2253 C2252 1.404 . S
C2253 H2265 0.930 . S
C2254 C2250 1.524 . S
C2254 H2266 0.956 . S
C2254 H2267 0.961 . S
C2254 H2268 0.961 . S
C2255 C2252 1.539 . S
C2255 H2269 0.958 . S
C2255 H2270 0.961 . S
C2255 H2271 0.960 . S
H2256 C2240 0.931 . S
H2257 C2245 0.929 . S
H2258 C2246 0.960 . S
H2259 C2246 0.962 . S
H2260 C2246 0.960 . S
H2261 C2247 0.961 . S
H2262 C2247 0.961 . S
H2263 C2247 0.961 . S
H2264 C2248 0.931 . S
H2265 C2253 0.930 . S
H2266 C2254 0.956 . S
H2267 C2254 0.961 . S
H2268 C2254 0.961 . S
H2269 C2255 0.958 . S
H2270 C2255 0.961 . S
H2271 C2255 0.960 . S
C2272 C2273 1.391 . S
C2272 C2274 1.394 . S
C2272 H2288 0.931 . S
C2273 C2272 1.391 . S
C2273 C2277 1.376 . S
C2274 C2272 1.394 . S
C2274 C2275 1.369 . S
C2274 C2278 1.531 . S
C2275 C2274 1.369 . S
C2275 C2276 1.410 . S
C2275 C2283 1.503 . S
C2276 C2275 1.410 . S
C2276 C2277 1.392 . S
C2276 C2279 1.511 . S
C2277 C2273 1.376 . S
C2277 C2276 1.392 . S
C2277 H2289 0.929 . S
C2278 C2274 1.531 . S
C2278 H2290 0.960 . S
C2278 H2291 0.962 . S
C2278 H2292 0.960 . S
C2279 C2276 1.511 . S
C2279 H2293 0.961 . S
C2279 H2294 0.961 . S
C2279 H2295 0.961 . S
C2280 C2281 1.370 . S
C2280 C2282 1.363 . S
C2280 H2296 0.931 . S
C2281 C2280 1.370 . S
C2281 C2285 1.408 . S
C2282 C2280 1.363 . S
C2282 C2283 1.370 . S
C2282 C2286 1.524 . S
C2283 C2275 1.503 . S
C2283 C2282 1.370 . S
C2283 C2284 1.403 . S
C2284 C2283 1.403 . S
C2284 C2285 1.404 . S
C2284 C2287 1.539 . S
C2285 C2281 1.408 . S
C2285 C2284 1.404 . S
C2285 H2297 0.930 . S
C2286 C2282 1.524 . S
C2286 H2298 0.956 . S
C2286 H2299 0.961 . S
C2286 H2300 0.961 . S
C2287 C2284 1.539 . S
C2287 H2301 0.958 . S
C2287 H2302 0.961 . S
C2287 H2303 0.960 . S
H2288 C2272 0.931 . S
H2289 C2277 0.929 . S
H2290 C2278 0.960 . S
H2291 C2278 0.962 . S
H2292 C2278 0.960 . S
H2293 C2279 0.961 . S
H2294 C2279 0.961 . S
H2295 C2279 0.961 . S
H2296 C2280 0.931 . S
H2297 C2285 0.930 . S
H2298 C2286 0.956 . S
H2299 C2286 0.961 . S
H2300 C2286 0.961 . S
H2301 C2287 0.958 . S
H2302 C2287 0.961 . S
H2303 C2287 0.960 . S
C2304 C2305 1.391 . S
C2304 C2306 1.394 . S
C2304 H2320 0.931 . S
C2305 C2304 1.391 . S
C2305 C2309 1.376 . S
C2306 C2304 1.394 . S
C2306 C2307 1.369 . S
C2306 C2310 1.531 . S
C2307 C2306 1.369 . S
C2307 C2308 1.410 . S
C2307 C2315 1.503 . S
C2308 C2307 1.410 . S
C2308 C2309 1.392 . S
C2308 C2311 1.511 . S
C2309 C2305 1.376 . S
C2309 C2308 1.392 . S
C2309 H2321 0.929 . S
C2310 C2306 1.531 . S
C2310 H2322 0.960 . S
C2310 H2323 0.962 . S
C2310 H2324 0.960 . S
C2311 C2308 1.511 . S
C2311 H2325 0.961 . S
C2311 H2326 0.961 . S
C2311 H2327 0.961 . S
C2312 C2313 1.370 . S
C2312 C2314 1.363 . S
C2312 H2328 0.931 . S
C2313 C2312 1.370 . S
C2313 C2317 1.408 . S
C2314 C2312 1.363 . S
C2314 C2315 1.370 . S
C2314 C2318 1.524 . S
C2315 C2307 1.503 . S
C2315 C2314 1.370 . S
C2315 C2316 1.403 . S
C2316 C2315 1.403 . S
C2316 C2317 1.404 . S
C2316 C2319 1.539 . S
C2317 C2313 1.408 . S
C2317 C2316 1.404 . S
C2317 H2329 0.930 . S
C2318 C2314 1.524 . S
C2318 H2330 0.956 . S
C2318 H2331 0.961 . S
C2318 H2332 0.961 . S
C2319 C2316 1.539 . S
C2319 H2333 0.958 . S
C2319 H2334 0.961 . S
C2319 H2335 0.960 . S
H2320 C2304 0.931 . S
H2321 C2309 0.929 . S
H2322 C2310 0.960 . S
H2323 C2310 0.962 . S
H2324 C2310 0.960 . S
H2325 C2311 0.961 . S
H2326 C2311 0.961 . S
H2327 C2311 0.961 . S
H2328 C2312 0.931 . S
H2329 C2317 0.930 . S
H2330 C2318 0.956 . S
H2331 C2318 0.961 . S
H2332 C2318 0.961 . S
H2333 C2319 0.958 . S
H2334 C2319 0.961 . S
H2335 C2319 0.960 . S
C2336 C2337 1.391 . S
C2336 C2338 1.394 . S
C2336 H2352 0.931 . S
C2337 C2336 1.391 . S
C2337 C2341 1.376 . S
C2338 C2336 1.394 . S
C2338 C2339 1.369 . S
C2338 C2342 1.531 . S
C2339 C2338 1.369 . S
C2339 C2340 1.410 . S
C2339 C2347 1.503 . S
C2340 C2339 1.410 . S
C2340 C2341 1.392 . S
C2340 C2343 1.511 . S
C2341 C2337 1.376 . S
C2341 C2340 1.392 . S
C2341 H2353 0.929 . S
C2342 C2338 1.531 . S
C2342 H2354 0.960 . S
C2342 H2355 0.962 . S
C2342 H2356 0.960 . S
C2343 C2340 1.511 . S
C2343 H2357 0.961 . S
C2343 H2358 0.961 . S
C2343 H2359 0.961 . S
C2344 C2345 1.370 . S
C2344 C2346 1.363 . S
C2344 H2360 0.931 . S
C2345 C2344 1.370 . S
C2345 C2349 1.408 . S
C2346 C2344 1.363 . S
C2346 C2347 1.370 . S
C2346 C2350 1.524 . S
C2347 C2339 1.503 . S
C2347 C2346 1.370 . S
C2347 C2348 1.403 . S
C2348 C2347 1.403 . S
C2348 C2349 1.404 . S
C2348 C2351 1.539 . S
C2349 C2345 1.408 . S
C2349 C2348 1.404 . S
C2349 H2361 0.930 . S
C2350 C2346 1.524 . S
C2350 H2362 0.956 . S
C2350 H2363 0.961 . S
C2350 H2364 0.961 . S
C2351 C2348 1.539 . S
C2351 H2365 0.958 . S
C2351 H2366 0.961 . S
C2351 H2367 0.960 . S
H2352 C2336 0.931 . S
H2353 C2341 0.929 . S
H2354 C2342 0.960 . S
H2355 C2342 0.962 . S
H2356 C2342 0.960 . S
H2357 C2343 0.961 . S
H2358 C2343 0.961 . S
H2359 C2343 0.961 . S
H2360 C2344 0.931 . S
H2361 C2349 0.930 . S
H2362 C2350 0.956 . S
H2363 C2350 0.961 . S
H2364 C2350 0.961 . S
H2365 C2351 0.958 . S
H2366 C2351 0.961 . S
H2367 C2351 0.960 . S
C2368 C2369 1.391 . S
C2368 C2370 1.394 . S
C2368 H2384 0.931 . S
C2369 C2368 1.391 . S
C2369 C2373 1.376 . S
C2370 C2368 1.394 . S
C2370 C2371 1.369 . S
C2370 C2374 1.531 . S
C2371 C2370 1.369 . S
C2371 C2372 1.410 . S
C2371 C2379 1.503 . S
C2372 C2371 1.410 . S
C2372 C2373 1.392 . S
C2372 C2375 1.511 . S
C2373 C2369 1.376 . S
C2373 C2372 1.392 . S
C2373 H2385 0.929 . S
C2374 C2370 1.531 . S
C2374 H2386 0.960 . S
C2374 H2387 0.962 . S
C2374 H2388 0.960 . S
C2375 C2372 1.511 . S
C2375 H2389 0.961 . S
C2375 H2390 0.961 . S
C2375 H2391 0.961 . S
C2376 C2377 1.370 . S
C2376 C2378 1.363 . S
C2376 H2392 0.931 . S
C2377 C2376 1.370 . S
C2377 C2381 1.408 . S
C2378 C2376 1.363 . S
C2378 C2379 1.370 . S
C2378 C2382 1.524 . S
C2379 C2371 1.503 . S
C2379 C2378 1.370 . S
C2379 C2380 1.403 . S
C2380 C2379 1.403 . S
C2380 C2381 1.404 . S
C2380 C2383 1.539 . S
C2381 C2377 1.408 . S
C2381 C2380 1.404 . S
C2381 H2393 0.930 . S
C2382 C2378 1.524 . S
C2382 H2394 0.956 . S
C2382 H2395 0.961 . S
C2382 H2396 0.961 . S
C2383 C2380 1.539 . S
C2383 H2397 0.958 . S
C2383 H2398 0.961 . S
C2383 H2399 0.960 . S
H2384 C2368 0.931 . S
H2385 C2373 0.929 . S
H2386 C2374 0.960 . S
H2387 C2374 0.962 . S
H2388 C2374 0.960 . S
H2389 C2375 0.961 . S
H2390 C2375 0.961 . S
H2391 C2375 0.961 . S
H2392 C2376 0.931 . S
H2393 C2381 0.930 . S
H2394 C2382 0.956 . S
H2395 C2382 0.961 . S
H2396 C2382 0.961 . S
H2397 C2383 0.958 . S
H2398 C2383 0.961 . S
H2399 C2383 0.960 . S
C2400 C2401 1.391 . S
C2400 C2402 1.394 . S
C2400 H2416 0.931 . S
C2401 C2400 1.391 . S
C2401 C2405 1.376 . S
C2402 C2400 1.394 . S
C2402 C2403 1.369 . S
C2402 C2406 1.531 . S
C2403 C2402 1.369 . S
C2403 C2404 1.410 . S
C2403 C2411 1.503 . S
C2404 C2403 1.410 . S
C2404 C2405 1.392 . S
C2404 C2407 1.511 1_455 S
C2405 C2401 1.376 . S
C2405 C2404 1.392 . S
C2405 H2417 0.929 . S
C2406 C2402 1.531 . S
C2406 H2418 0.960 . S
C2406 H2419 0.962 . S
C2406 H2420 0.960 . S
C2407 C2404 1.511 1_655 S
C2407 H2421 0.961 . S
C2407 H2422 0.961 1_655 S
C2407 H2423 0.961 . S
C2408 C2409 1.370 . S
C2408 C2410 1.363 . S
C2408 H2424 0.931 . S
C2409 C2408 1.370 . S
C2409 C2413 1.408 . S
C2410 C2408 1.363 . S
C2410 C2411 1.370 . S
C2410 C2414 1.524 . S
C2411 C2403 1.503 . S
C2411 C2410 1.370 . S
C2411 C2412 1.403 . S
C2412 C2411 1.403 . S
C2412 C2413 1.404 . S
C2412 C2415 1.539 1_455 S
C2413 C2409 1.408 . S
C2413 C2412 1.404 . S
C2413 H2425 0.916 1_455 S
C2414 C2410 1.524 . S
C2414 H2426 0.956 . S
C2414 H2427 0.961 . S
C2414 H2428 0.961 . S
C2415 C2412 1.539 1_655 S
C2415 H2429 0.958 . S
C2415 H2430 0.961 . S
C2415 H2431 0.960 . S
H2416 C2400 0.931 . S
H2417 C2405 0.929 . S
H2418 C2406 0.960 . S
H2419 C2406 0.962 . S
H2420 C2406 0.960 . S
H2421 C2407 0.961 . S
H2422 C2407 0.961 1_455 S
H2423 C2407 0.961 . S
H2424 C2408 0.931 . S
H2425 C2413 0.916 1_655 S
H2426 C2414 0.956 . S
H2427 C2414 0.961 . S
H2428 C2414 0.961 . S
H2429 C2415 0.958 . S
H2430 C2415 0.961 . S
H2431 C2415 0.960 . S
C2432 C2433 1.391 . S
C2432 C2434 1.394 . S
C2432 H2448 0.931 . S
C2433 C2432 1.391 . S
C2433 C2437 1.376 . S
C2434 C2432 1.394 . S
C2434 C2435 1.369 . S
C2434 C2438 1.531 . S
C2435 C2434 1.369 . S
C2435 C2436 1.410 . S
C2435 C2443 1.503 . S
C2436 C2435 1.410 . S
C2436 C2437 1.392 . S
C2436 C2439 1.511 . S
C2437 C2433 1.376 . S
C2437 C2436 1.392 . S
C2437 H2449 0.929 . S
C2438 C2434 1.531 . S
C2438 H2450 0.960 . S
C2438 H2451 0.962 . S
C2438 H2452 0.960 . S
C2439 C2436 1.511 . S
C2439 H2453 0.961 . S
C2439 H2454 0.961 . S
C2439 H2455 0.961 . S
C2440 C2441 1.370 . S
C2440 C2442 1.363 . S
C2440 H2456 0.931 . S
C2441 C2440 1.370 . S
C2441 C2445 1.408 . S
C2442 C2440 1.363 . S
C2442 C2443 1.370 . S
C2442 C2446 1.524 . S
C2443 C2435 1.503 . S
C2443 C2442 1.370 . S
C2443 C2444 1.403 . S
C2444 C2443 1.403 . S
C2444 C2445 1.404 . S
C2444 C2447 1.539 . S
C2445 C2441 1.408 . S
C2445 C2444 1.404 . S
C2445 H2457 0.930 . S
C2446 C2442 1.524 . S
C2446 H2458 0.956 . S
C2446 H2459 0.961 . S
C2446 H2460 0.961 . S
C2447 C2444 1.539 . S
C2447 H2461 0.958 . S
C2447 H2462 0.961 . S
C2447 H2463 0.960 . S
H2448 C2432 0.931 . S
H2449 C2437 0.929 . S
H2450 C2438 0.960 . S
H2451 C2438 0.962 . S
H2452 C2438 0.960 . S
H2453 C2439 0.961 . S
H2454 C2439 0.961 . S
H2455 C2439 0.961 . S
H2456 C2440 0.931 . S
H2457 C2445 0.930 . S
H2458 C2446 0.956 . S
H2459 C2446 0.961 . S
H2460 C2446 0.961 . S
H2461 C2447 0.958 . S
H2462 C2447 0.961 . S
H2463 C2447 0.960 . S
C2464 C2465 1.391 . S
C2464 C2466 1.394 . S
C2464 H2480 0.931 . S
C2465 C2464 1.391 . S
C2465 C2469 1.376 . S
C2466 C2464 1.394 . S
C2466 C2467 1.369 . S
C2466 C2470 1.531 . S
C2467 C2466 1.369 . S
C2467 C2468 1.410 . S
C2467 C2475 1.503 . S
C2468 C2467 1.410 . S
C2468 C2469 1.392 . S
C2468 C2471 1.511 . S
C2469 C2465 1.376 . S
C2469 C2468 1.392 . S
C2469 H2481 0.929 . S
C2470 C2466 1.531 . S
C2470 H2482 0.960 . S
C2470 H2483 0.962 . S
C2470 H2484 0.960 . S
C2471 C2468 1.511 . S
C2471 H2485 0.961 . S
C2471 H2486 0.961 . S
C2471 H2487 0.961 . S
C2472 C2473 1.370 . S
C2472 C2474 1.363 . S
C2472 H2488 0.931 . S
C2473 C2472 1.370 . S
C2473 C2477 1.408 . S
C2474 C2472 1.363 . S
C2474 C2475 1.370 . S
C2474 C2478 1.524 . S
C2475 C2467 1.503 . S
C2475 C2474 1.370 . S
C2475 C2476 1.403 . S
C2476 C2475 1.403 . S
C2476 C2477 1.404 . S
C2476 C2479 1.539 . S
C2477 C2473 1.408 . S
C2477 C2476 1.404 . S
C2477 H2489 0.930 1_556 S
C2478 C2474 1.524 . S
C2478 H2490 0.956 . S
C2478 H2491 0.961 . S
C2478 H2492 0.961 . S
C2479 C2476 1.539 . S
C2479 H2493 0.958 1_556 S
C2479 H2494 0.963 . S
C2479 H2495 0.960 . S
H2480 C2464 0.931 . S
H2481 C2469 0.929 . S
H2482 C2470 0.960 . S
H2483 C2470 0.962 . S
H2484 C2470 0.960 . S
H2485 C2471 0.961 . S
H2486 C2471 0.961 . S
H2487 C2471 0.961 . S
H2488 C2472 0.931 . S
H2489 C2477 0.930 1_554 S
H2490 C2478 0.956 . S
H2491 C2478 0.961 . S
H2492 C2478 0.961 . S
H2493 C2479 0.958 1_554 S
H2494 C2479 0.963 . S
H2495 C2479 0.960 . S
C2496 C2497 1.391 . S
C2496 C2498 1.394 . S
C2496 H2512 0.931 . S
C2497 C2496 1.391 . S
C2497 C2501 1.376 . S
C2498 C2496 1.394 . S
C2498 C2499 1.369 . S
C2498 C2502 1.531 . S
C2499 C2498 1.369 . S
C2499 C2500 1.410 . S
C2499 C2507 1.503 . S
C2500 C2499 1.410 . S
C2500 C2501 1.392 . S
C2500 C2503 1.511 . S
C2501 C2497 1.376 . S
C2501 C2500 1.392 . S
C2501 H2513 0.929 . S
C2502 C2498 1.531 . S
C2502 H2514 0.960 . S
C2502 H2515 0.962 . S
C2502 H2516 0.960 . S
C2503 C2500 1.511 . S
C2503 H2517 0.961 . S
C2503 H2518 0.961 . S
C2503 H2519 0.961 . S
C2504 C2505 1.370 . S
C2504 C2506 1.363 . S
C2504 H2520 0.931 . S
C2505 C2504 1.370 . S
C2505 C2509 1.408 . S
C2506 C2504 1.363 . S
C2506 C2507 1.370 . S
C2506 C2510 1.524 . S
C2507 C2499 1.503 . S
C2507 C2506 1.370 . S
C2507 C2508 1.403 . S
C2508 C2507 1.403 . S
C2508 C2509 1.404 . S
C2508 C2511 1.539 . S
C2509 C2505 1.408 . S
C2509 C2508 1.404 . S
C2509 H2521 0.930 . S
C2510 C2506 1.524 . S
C2510 H2522 0.956 . S
C2510 H2523 0.961 . S
C2510 H2524 0.961 . S
C2511 C2508 1.539 . S
C2511 H2525 0.958 . S
C2511 H2526 0.961 . S
C2511 H2527 0.960 . S
H2512 C2496 0.931 . S
H2513 C2501 0.929 . S
H2514 C2502 0.960 . S
H2515 C2502 0.962 . S
H2516 C2502 0.960 . S
H2517 C2503 0.961 . S
H2518 C2503 0.961 . S
H2519 C2503 0.961 . S
H2520 C2504 0.931 . S
H2521 C2509 0.930 . S
H2522 C2510 0.956 . S
H2523 C2510 0.961 . S
H2524 C2510 0.961 . S
H2525 C2511 0.958 . S
H2526 C2511 0.961 . S
H2527 C2511 0.960 . S
C2528 C2529 1.391 . S
C2528 C2530 1.394 . S
C2528 H2544 0.931 . S
C2529 C2528 1.391 . S
C2529 C2533 1.376 . S
C2530 C2528 1.394 . S
C2530 C2531 1.369 . S
C2530 C2534 1.531 . S
C2531 C2530 1.369 . S
C2531 C2532 1.410 . S
C2531 C2539 1.503 . S
C2532 C2531 1.410 . S
C2532 C2533 1.392 . S
C2532 C2535 1.511 . S
C2533 C2529 1.376 . S
C2533 C2532 1.392 . S
C2533 H2545 0.929 . S
C2534 C2530 1.531 . S
C2534 H2546 0.960 . S
C2534 H2547 0.962 . S
C2534 H2548 0.960 . S
C2535 C2532 1.511 . S
C2535 H2549 0.961 . S
C2535 H2550 0.961 . S
C2535 H2551 0.961 . S
C2536 C2537 1.370 . S
C2536 C2538 1.363 . S
C2536 H2552 0.931 1_545 S
C2537 C2536 1.370 . S
C2537 C2541 1.408 . S
C2538 C2536 1.363 . S
C2538 C2539 1.370 . S
C2538 C2542 1.524 1_545 S
C2539 C2531 1.503 . S
C2539 C2538 1.370 . S
C2539 C2540 1.403 . S
C2540 C2539 1.403 . S
C2540 C2541 1.404 . S
C2540 C2543 1.539 . S
C2541 C2537 1.408 . S
C2541 C2540 1.404 . S
C2541 H2553 0.930 . S
C2542 C2538 1.524 1_565 S
C2542 H2554 0.956 . S
C2542 H2555 0.961 . S
C2542 H2556 0.961 . S
C2543 C2540 1.539 . S
C2543 H2557 0.958 . S
C2543 H2558 0.961 . S
C2543 H2559 0.960 . S
H2544 C2528 0.931 . S
H2545 C2533 0.929 . S
H2546 C2534 0.960 . S
H2547 C2534 0.962 . S
H2548 C2534 0.960 . S
H2549 C2535 0.961 . S
H2550 C2535 0.961 . S
H2551 C2535 0.961 . S
H2552 C2536 0.931 1_565 S
H2553 C2541 0.930 . S
H2554 C2542 0.956 . S
H2555 C2542 0.961 . S
H2556 C2542 0.961 . S
H2557 C2543 0.958 . S
H2558 C2543 0.961 . S
H2559 C2543 0.960 . S
C2560 C2561 1.391 . S
C2560 C2562 1.394 . S
C2560 H2576 0.931 . S
C2561 C2560 1.391 . S
C2561 C2565 1.376 . S
C2562 C2560 1.394 . S
C2562 C2563 1.369 . S
C2562 C2566 1.531 . S
C2563 C2562 1.369 . S
C2563 C2564 1.410 . S
C2563 C2571 1.503 . S
C2564 C2563 1.410 . S
C2564 C2565 1.392 . S
C2564 C2567 1.511 . S
C2565 C2561 1.376 . S
C2565 C2564 1.392 . S
C2565 H2577 0.929 . S
C2566 C2562 1.531 . S
C2566 H2578 0.960 . S
C2566 H2579 0.962 . S
C2566 H2580 0.960 . S
C2567 C2564 1.511 . S
C2567 H2581 0.961 . S
C2567 H2582 0.961 . S
C2567 H2583 0.961 . S
C2568 C2569 1.370 . S
C2568 C2570 1.363 . S
C2568 H2584 0.931 . S
C2569 C2568 1.370 . S
C2569 C2573 1.408 . S
C2570 C2568 1.363 . S
C2570 C2571 1.370 . S
C2570 C2574 1.524 . S
C2571 C2563 1.503 . S
C2571 C2570 1.370 . S
C2571 C2572 1.403 . S
C2572 C2571 1.403 . S
C2572 C2573 1.404 . S
C2572 C2575 1.539 . S
C2573 C2569 1.408 . S
C2573 C2572 1.404 . S
C2573 H2585 0.930 . S
C2574 C2570 1.524 . S
C2574 H2586 0.956 . S
C2574 H2587 0.961 . S
C2574 H2588 0.961 . S
C2575 C2572 1.539 . S
C2575 H2589 0.958 . S
C2575 H2590 0.961 . S
C2575 H2591 0.960 . S
H2576 C2560 0.931 . S
H2577 C2565 0.929 . S
H2578 C2566 0.960 . S
H2579 C2566 0.962 . S
H2580 C2566 0.960 . S
H2581 C2567 0.961 . S
H2582 C2567 0.961 . S
H2583 C2567 0.961 . S
H2584 C2568 0.931 . S
H2585 C2573 0.930 . S
H2586 C2574 0.956 . S
H2587 C2574 0.961 . S
H2588 C2574 0.961 . S
H2589 C2575 0.958 . S
H2590 C2575 0.961 . S
H2591 C2575 0.960 . S
C2592 C2593 1.391 . S
C2592 C2594 1.394 . S
C2592 H2608 0.931 . S
C2593 C2592 1.391 . S
C2593 C2597 1.376 . S
C2594 C2592 1.394 . S
C2594 C2595 1.369 . S
C2594 C2598 1.531 . S
C2595 C2594 1.369 . S
C2595 C2596 1.410 . S
C2595 C2603 1.503 . S
C2596 C2595 1.410 . S
C2596 C2597 1.392 . S
C2596 C2599 1.511 . S
C2597 C2593 1.376 . S
C2597 C2596 1.392 . S
C2597 H2609 0.929 . S
C2598 C2594 1.531 . S
C2598 H2610 0.960 . S
C2598 H2611 0.962 . S
C2598 H2612 0.960 . S
C2599 C2596 1.511 . S
C2599 H2613 0.961 . S
C2599 H2614 0.961 . S
C2599 H2615 0.961 . S
C2600 C2601 1.370 . S
C2600 C2602 1.363 . S
C2600 H2616 0.931 . S
C2601 C2600 1.370 . S
C2601 C2605 1.408 . S
C2602 C2600 1.363 . S
C2602 C2603 1.370 . S
C2602 C2606 1.524 . S
C2603 C2595 1.503 . S
C2603 C2602 1.370 . S
C2603 C2604 1.403 . S
C2604 C2603 1.403 . S
C2604 C2605 1.404 . S
C2604 C2607 1.539 . S
C2605 C2601 1.408 . S
C2605 C2604 1.404 . S
C2605 H2617 0.930 . S
C2606 C2602 1.524 . S
C2606 H2618 0.956 . S
C2606 H2619 0.964 . S
C2606 H2620 0.961 1_545 S
C2607 C2604 1.539 . S
C2607 H2621 0.958 . S
C2607 H2622 0.961 . S
C2607 H2623 0.960 . S
H2608 C2592 0.931 . S
H2609 C2597 0.929 . S
H2610 C2598 0.960 . S
H2611 C2598 0.962 . S
H2612 C2598 0.960 . S
H2613 C2599 0.961 . S
H2614 C2599 0.961 . S
H2615 C2599 0.961 . S
H2616 C2600 0.931 . S
H2617 C2605 0.930 . S
H2618 C2606 0.956 . S
H2619 C2606 0.964 . S
H2620 C2606 0.961 1_565 S
H2621 C2607 0.958 . S
H2622 C2607 0.961 . S
H2623 C2607 0.960 . S
C2624 C2625 1.391 . S
C2624 C2626 1.394 . S
C2624 H2640 0.931 . S
C2625 C2624 1.391 . S
C2625 C2629 1.376 . S
C2626 C2624 1.394 . S
C2626 C2627 1.369 . S
C2626 C2630 1.531 . S
C2627 C2626 1.369 . S
C2627 C2628 1.410 . S
C2627 C2635 1.503 . S
C2628 C2627 1.410 . S
C2628 C2629 1.392 . S
C2628 C2631 1.511 . S
C2629 C2625 1.376 . S
C2629 C2628 1.392 . S
C2629 H2641 0.929 . S
C2630 C2626 1.531 . S
C2630 H2642 0.960 . S
C2630 H2643 0.962 . S
C2630 H2644 0.960 . S
C2631 C2628 1.511 . S
C2631 H2645 0.961 . S
C2631 H2646 0.961 . S
C2631 H2647 0.961 . S
C2632 C2633 1.370 . S
C2632 C2634 1.363 . S
C2632 H2648 0.931 . S
C2633 C2632 1.370 . S
C2633 C2637 1.408 . S
C2634 C2632 1.363 . S
C2634 C2635 1.370 . S
C2634 C2638 1.524 . S
C2635 C2627 1.503 . S
C2635 C2634 1.370 . S
C2635 C2636 1.403 . S
C2636 C2635 1.403 . S
C2636 C2637 1.404 . S
C2636 C2639 1.539 . S
C2637 C2633 1.408 . S
C2637 C2636 1.404 . S
C2637 H2649 0.930 . S
C2638 C2634 1.524 . S
C2638 H2650 0.956 . S
C2638 H2651 0.961 . S
C2638 H2652 0.961 . S
C2639 C2636 1.539 . S
C2639 H2653 0.958 . S
C2639 H2654 0.961 . S
C2639 H2655 0.960 . S
H2640 C2624 0.931 . S
H2641 C2629 0.929 . S
H2642 C2630 0.960 . S
H2643 C2630 0.962 . S
H2644 C2630 0.960 . S
H2645 C2631 0.961 . S
H2646 C2631 0.961 . S
H2647 C2631 0.961 . S
H2648 C2632 0.931 . S
H2649 C2637 0.930 . S
H2650 C2638 0.956 . S
H2651 C2638 0.961 . S
H2652 C2638 0.961 . S
H2653 C2639 0.958 . S
H2654 C2639 0.961 . S
H2655 C2639 0.960 . S
C2656 C2657 1.391 . S
C2656 C2658 1.394 . S
C2656 H2672 0.931 . S
C2657 C2656 1.391 . S
C2657 C2661 1.376 . S
C2658 C2656 1.394 . S
C2658 C2659 1.369 . S
C2658 C2662 1.531 . S
C2659 C2658 1.369 . S
C2659 C2660 1.410 . S
C2659 C2667 1.503 . S
C2660 C2659 1.410 . S
C2660 C2661 1.392 . S
C2660 C2663 1.511 . S
C2661 C2657 1.376 . S
C2661 C2660 1.392 . S
C2661 H2673 0.929 . S
C2662 C2658 1.531 . S
C2662 H2674 0.960 . S
C2662 H2675 0.962 . S
C2662 H2676 0.960 . S
C2663 C2660 1.511 . S
C2663 H2677 0.961 1_545 S
C2663 H2678 0.961 . S
C2663 H2679 0.961 . S
C2664 C2665 1.370 . S
C2664 C2666 1.363 . S
C2664 H2680 0.931 . S
C2665 C2664 1.370 . S
C2665 C2669 1.408 . S
C2666 C2664 1.363 . S
C2666 C2667 1.370 . S
C2666 C2670 1.524 . S
C2667 C2659 1.503 . S
C2667 C2666 1.370 . S
C2667 C2668 1.403 . S
C2668 C2667 1.403 . S
C2668 C2669 1.404 . S
C2668 C2671 1.539 . S
C2669 C2665 1.408 . S
C2669 C2668 1.404 . S
C2669 H2681 0.930 . S
C2670 C2666 1.524 . S
C2670 H2682 0.956 . S
C2670 H2683 0.961 . S
C2670 H2684 0.961 . S
C2671 C2668 1.539 . S
C2671 H2685 0.958 . S
C2671 H2686 0.961 . S
C2671 H2687 0.960 . S
H2672 C2656 0.931 . S
H2673 C2661 0.929 . S
H2674 C2662 0.960 . S
H2675 C2662 0.962 . S
H2676 C2662 0.960 . S
H2677 C2663 0.961 1_565 S
H2678 C2663 0.961 . S
H2679 C2663 0.961 . S
H2680 C2664 0.931 . S
H2681 C2669 0.930 . S
H2682 C2670 0.956 . S
H2683 C2670 0.961 . S
H2684 C2670 0.961 . S
H2685 C2671 0.958 . S
H2686 C2671 0.961 . S
H2687 C2671 0.960 . S
C2688 C2689 1.391 . S
C2688 C2690 1.394 . S
C2688 H2704 0.931 . S
C2689 C2688 1.391 . S
C2689 C2693 1.376 . S
C2690 C2688 1.394 . S
C2690 C2691 1.369 . S
C2690 C2694 1.531 . S
C2691 C2690 1.369 . S
C2691 C2692 1.410 . S
C2691 C2699 1.503 . S
C2692 C2691 1.410 . S
C2692 C2693 1.392 . S
C2692 C2695 1.511 . S
C2693 C2689 1.376 . S
C2693 C2692 1.392 . S
C2693 H2705 0.929 . S
C2694 C2690 1.531 . S
C2694 H2706 0.960 . S
C2694 H2707 0.962 . S
C2694 H2708 0.960 . S
C2695 C2692 1.511 . S
C2695 H2709 0.961 . S
C2695 H2710 0.961 . S
C2695 H2711 0.961 . S
C2696 C2697 1.370 . S
C2696 C2698 1.363 . S
C2696 H2712 0.931 . S
C2697 C2696 1.370 . S
C2697 C2701 1.408 . S
C2698 C2696 1.363 . S
C2698 C2699 1.370 . S
C2698 C2702 1.524 . S
C2699 C2691 1.503 . S
C2699 C2698 1.370 . S
C2699 C2700 1.403 . S
C2700 C2699 1.403 . S
C2700 C2701 1.404 . S
C2700 C2703 1.539 . S
C2701 C2697 1.408 . S
C2701 C2700 1.404 . S
C2701 H2713 0.930 . S
C2702 C2698 1.524 . S
C2702 H2714 0.956 . S
C2702 H2715 0.961 . S
C2702 H2716 0.961 . S
C2703 C2700 1.539 . S
C2703 H2717 0.958 . S
C2703 H2718 0.961 . S
C2703 H2719 0.960 . S
H2704 C2688 0.931 . S
H2705 C2693 0.929 . S
H2706 C2694 0.960 . S
H2707 C2694 0.962 . S
H2708 C2694 0.960 . S
H2709 C2695 0.961 . S
H2710 C2695 0.961 . S
H2711 C2695 0.961 . S
H2712 C2696 0.931 . S
H2713 C2701 0.930 . S
H2714 C2702 0.956 . S
H2715 C2702 0.961 . S
H2716 C2702 0.961 . S
H2717 C2703 0.958 . S
H2718 C2703 0.961 . S
H2719 C2703 0.960 . S
C2720 C2721 1.391 . S
C2720 C2722 1.394 . S
C2720 H2736 0.931 . S
C2721 C2720 1.391 . S
C2721 C2725 1.376 . S
C2722 C2720 1.394 . S
C2722 C2723 1.369 . S
C2722 C2726 1.531 . S
C2723 C2722 1.369 . S
C2723 C2724 1.410 . S
C2723 C2731 1.503 . S
C2724 C2723 1.410 . S
C2724 C2725 1.392 . S
C2724 C2727 1.511 . S
C2725 C2721 1.376 . S
C2725 C2724 1.392 . S
C2725 H2737 0.929 . S
C2726 C2722 1.531 . S
C2726 H2738 0.960 . S
C2726 H2739 0.962 . S
C2726 H2740 0.960 . S
C2727 C2724 1.511 . S
C2727 H2741 0.961 . S
C2727 H2742 0.961 . S
C2727 H2743 0.961 1_545 S
C2728 C2729 1.370 . S
C2728 C2730 1.363 . S
C2728 H2744 0.931 . S
C2729 C2728 1.370 . S
C2729 C2733 1.408 . S
C2730 C2728 1.363 . S
C2730 C2731 1.370 . S
C2730 C2734 1.524 . S
C2731 C2723 1.503 . S
C2731 C2730 1.370 . S
C2731 C2732 1.403 . S
C2732 C2731 1.403 . S
C2732 C2733 1.404 . S
C2732 C2735 1.539 1_545 S
C2733 C2729 1.408 . S
C2733 C2732 1.404 . S
C2733 H2745 0.930 1_545 S
C2734 C2730 1.524 . S
C2734 H2746 0.956 . S
C2734 H2747 0.961 . S
C2734 H2748 0.961 . S
C2735 C2732 1.539 1_565 S
C2735 H2749 0.958 . S
C2735 H2750 0.961 . S
C2735 H2751 0.960 . S
H2736 C2720 0.931 . S
H2737 C2725 0.929 . S
H2738 C2726 0.960 . S
H2739 C2726 0.962 . S
H2740 C2726 0.960 . S
H2741 C2727 0.961 . S
H2742 C2727 0.961 . S
H2743 C2727 0.961 1_565 S
H2744 C2728 0.931 . S
H2745 C2733 0.930 1_565 S
H2746 C2734 0.956 . S
H2747 C2734 0.961 . S
H2748 C2734 0.961 . S
H2749 C2735 0.958 . S
H2750 C2735 0.961 . S
H2751 C2735 0.960 . S
C2752 C2753 1.391 . S
C2752 C2754 1.394 . S
C2752 H2768 0.931 . S
C2753 C2752 1.391 . S
C2753 C2757 1.376 . S
C2754 C2752 1.394 . S
C2754 C2755 1.369 . S
C2754 C2758 1.531 . S
C2755 C2754 1.369 . S
C2755 C2756 1.410 . S
C2755 C2763 1.503 . S
C2756 C2755 1.410 . S
C2756 C2757 1.392 . S
C2756 C2759 1.511 . S
C2757 C2753 1.376 . S
C2757 C2756 1.392 . S
C2757 H2769 0.929 . S
C2758 C2754 1.531 . S
C2758 H2770 0.960 . S
C2758 H2771 0.962 . S
C2758 H2772 0.960 . S
C2759 C2756 1.511 . S
C2759 H2773 0.961 . S
C2759 H2774 0.961 . S
C2759 H2775 0.961 . S
C2760 C2761 1.370 . S
C2760 C2762 1.363 . S
C2760 H2776 0.931 . S
C2761 C2760 1.370 . S
C2761 C2765 1.408 . S
C2762 C2760 1.363 . S
C2762 C2763 1.370 . S
C2762 C2766 1.524 . S
C2763 C2755 1.503 . S
C2763 C2762 1.370 . S
C2763 C2764 1.403 . S
C2764 C2763 1.403 . S
C2764 C2765 1.404 . S
C2764 C2767 1.539 . S
C2765 C2761 1.408 . S
C2765 C2764 1.404 . S
C2765 H2777 0.930 . S
C2766 C2762 1.524 . S
C2766 H2778 0.956 . S
C2766 H2779 0.961 . S
C2766 H2780 0.961 . S
C2767 C2764 1.539 . S
C2767 H2781 0.958 . S
C2767 H2782 0.961 . S
C2767 H2783 0.960 . S
H2768 C2752 0.931 . S
H2769 C2757 0.929 . S
H2770 C2758 0.960 . S
H2771 C2758 0.962 . S
H2772 C2758 0.960 . S
H2773 C2759 0.961 . S
H2774 C2759 0.961 . S
H2775 C2759 0.961 . S
H2776 C2760 0.931 . S
H2777 C2765 0.930 . S
H2778 C2766 0.956 . S
H2779 C2766 0.961 . S
H2780 C2766 0.961 . S
H2781 C2767 0.958 . S
H2782 C2767 0.961 . S
H2783 C2767 0.960 . S
C2784 C2785 1.391 . S
C2784 C2786 1.394 . S
C2784 H2800 0.931 . S
C2785 C2784 1.391 . S
C2785 C2789 1.376 . S
C2786 C2784 1.394 . S
C2786 C2787 1.369 . S
C2786 C2790 1.531 . S
C2787 C2786 1.369 . S
C2787 C2788 1.410 . S
C2787 C2795 1.503 . S
C2788 C2787 1.410 . S
C2788 C2789 1.392 . S
C2788 C2791 1.511 . S
C2789 C2785 1.376 . S
C2789 C2788 1.392 . S
C2789 H2801 0.929 . S
C2790 C2786 1.531 . S
C2790 H2802 0.960 . S
C2790 H2803 0.962 . S
C2790 H2804 0.960 . S
C2791 C2788 1.511 . S
C2791 H2805 0.961 . S
C2791 H2806 0.961 . S
C2791 H2807 0.961 . S
C2792 C2793 1.370 1_556 S
C2792 C2794 1.363 1_556 S
C2792 H2808 0.931 . S
C2793 C2792 1.370 1_554 S
C2793 C2797 1.408 . S
C2794 C2792 1.363 1_554 S
C2794 C2795 1.370 . S
C2794 C2798 1.524 1_554 S
C2795 C2787 1.503 . S
C2795 C2794 1.370 . S
C2795 C2796 1.403 . S
C2796 C2795 1.403 . S
C2796 C2797 1.404 . S
C2796 C2799 1.539 . S
C2797 C2793 1.408 . S
C2797 C2796 1.404 . S
C2797 H2809 0.930 . S
C2798 C2794 1.524 1_556 S
C2798 H2810 0.956 1_556 S
C2798 H2811 0.961 . S
C2798 H2812 0.961 . S
C2799 C2796 1.539 . S
C2799 H2813 0.958 . S
C2799 H2814 0.961 . S
C2799 H2815 0.960 . S
H2800 C2784 0.931 . S
H2801 C2789 0.929 . S
H2802 C2790 0.960 . S
H2803 C2790 0.962 . S
H2804 C2790 0.960 . S
H2805 C2791 0.961 . S
H2806 C2791 0.961 . S
H2807 C2791 0.961 . S
H2808 C2792 0.931 . S
H2809 C2797 0.930 . S
H2810 C2798 0.956 1_554 S
H2811 C2798 0.961 . S
H2812 C2798 0.961 . S
H2813 C2799 0.958 . S
H2814 C2799 0.961 . S
H2815 C2799 0.960 . S
C2816 C2817 1.391 . S
C2816 C2818 1.394 . S
C2816 H2832 0.931 . S
C2817 C2816 1.391 . S
C2817 C2821 1.376 . S
C2818 C2816 1.394 . S
C2818 C2819 1.369 . S
C2818 C2822 1.531 . S
C2819 C2818 1.369 . S
C2819 C2820 1.410 . S
C2819 C2827 1.503 . S
C2820 C2819 1.410 . S
C2820 C2821 1.392 . S
C2820 C2823 1.511 1_554 S
C2821 C2817 1.376 . S
C2821 C2820 1.392 . S
C2821 H2833 0.929 . S
C2822 C2818 1.531 . S
C2822 H2834 0.960 . S
C2822 H2835 0.962 . S
C2822 H2836 0.960 . S
C2823 C2820 1.511 1_556 S
C2823 H2837 0.961 . S
C2823 H2838 0.961 1_556 S
C2823 H2839 0.961 . S
C2824 C2825 1.370 . S
C2824 C2826 1.363 . S
C2824 H2840 0.931 . S
C2825 C2824 1.370 . S
C2825 C2829 1.408 . S
C2826 C2824 1.363 . S
C2826 C2827 1.370 . S
C2826 C2830 1.524 . S
C2827 C2819 1.503 . S
C2827 C2826 1.370 . S
C2827 C2828 1.403 . S
C2828 C2827 1.403 . S
C2828 C2829 1.404 . S
C2828 C2831 1.539 . S
C2829 C2825 1.408 . S
C2829 C2828 1.404 . S
C2829 H2841 0.930 . S
C2830 C2826 1.524 . S
C2830 H2842 0.956 . S
C2830 H2843 0.961 . S
C2830 H2844 0.961 . S
C2831 C2828 1.539 . S
C2831 H2845 0.958 . S
C2831 H2846 0.961 1_554 S
C2831 H2847 0.960 . S
H2832 C2816 0.931 . S
H2833 C2821 0.929 . S
H2834 C2822 0.960 . S
H2835 C2822 0.962 . S
H2836 C2822 0.960 . S
H2837 C2823 0.961 . S
H2838 C2823 0.961 1_554 S
H2839 C2823 0.961 . S
H2840 C2824 0.931 . S
H2841 C2829 0.930 . S
H2842 C2830 0.956 . S
H2843 C2830 0.961 . S
H2844 C2830 0.961 . S
H2845 C2831 0.958 . S
H2846 C2831 0.961 1_556 S
H2847 C2831 0.960 . S
C2848 C2849 1.391 . S
C2848 C2850 1.394 . S
C2848 H2864 0.931 . S
C2849 C2848 1.391 . S
C2849 C2853 1.376 . S
C2850 C2848 1.394 . S
C2850 C2851 1.369 . S
C2850 C2854 1.531 . S
C2851 C2850 1.369 . S
C2851 C2852 1.410 . S
C2851 C2859 1.503 . S
C2852 C2851 1.410 . S
C2852 C2853 1.392 . S
C2852 C2855 1.511 . S
C2853 C2849 1.376 . S
C2853 C2852 1.392 . S
C2853 H2865 0.929 . S
C2854 C2850 1.531 . S
C2854 H2866 0.960 . S
C2854 H2867 0.962 . S
C2854 H2868 0.960 . S
C2855 C2852 1.511 . S
C2855 H2869 0.961 . S
C2855 H2870 0.961 . S
C2855 H2871 0.961 . S
C2856 C2857 1.370 . S
C2856 C2858 1.363 . S
C2856 H2872 0.931 . S
C2857 C2856 1.370 . S
C2857 C2861 1.408 . S
C2858 C2856 1.363 . S
C2858 C2859 1.370 . S
C2858 C2862 1.524 . S
C2859 C2851 1.503 . S
C2859 C2858 1.370 . S
C2859 C2860 1.403 . S
C2860 C2859 1.403 . S
C2860 C2861 1.404 . S
C2860 C2863 1.539 . S
C2861 C2857 1.408 . S
C2861 C2860 1.404 . S
C2861 H2873 0.930 . S
C2862 C2858 1.524 . S
C2862 H2874 0.956 . S
C2862 H2875 0.961 . S
C2862 H2876 0.961 . S
C2863 C2860 1.539 . S
C2863 H2877 0.958 . S
C2863 H2878 0.961 . S
C2863 H2879 0.960 . S
H2864 C2848 0.931 . S
H2865 C2853 0.929 . S
H2866 C2854 0.960 . S
H2867 C2854 0.962 . S
H2868 C2854 0.960 . S
H2869 C2855 0.961 . S
H2870 C2855 0.961 . S
H2871 C2855 0.961 . S
H2872 C2856 0.931 . S
H2873 C2861 0.930 . S
H2874 C2862 0.956 . S
H2875 C2862 0.961 . S
H2876 C2862 0.961 . S
H2877 C2863 0.958 . S
H2878 C2863 0.961 . S
H2879 C2863 0.960 . S
C2880 C2881 1.391 . S
C2880 C2882 1.394 . S
C2880 H2896 0.931 . S
C2881 C2880 1.391 . S
C2881 C2885 1.376 . S
C2882 C2880 1.394 . S
C2882 C2883 1.369 . S
C2882 C2886 1.531 . S
C2883 C2882 1.369 . S
C2883 C2884 1.410 . S
C2883 C2891 1.503 . S
C2884 C2883 1.410 . S
C2884 C2885 1.392 . S
C2884 C2887 1.511 . S
C2885 C2881 1.376 . S
C2885 C2884 1.392 . S
C2885 H2897 0.929 . S
C2886 C2882 1.531 . S
C2886 H2898 0.960 . S
C2886 H2899 0.962 . S
C2886 H2900 0.960 . S
C2887 C2884 1.511 . S
C2887 H2901 0.961 . S
C2887 H2902 0.961 . S
C2887 H2903 0.961 . S
C2888 C2889 1.370 . S
C2888 C2890 1.363 . S
C2888 H2904 0.931 . S
C2889 C2888 1.370 . S
C2889 C2893 1.408 . S
C2890 C2888 1.363 . S
C2890 C2891 1.370 . S
C2890 C2894 1.524 . S
C2891 C2883 1.503 . S
C2891 C2890 1.370 . S
C2891 C2892 1.403 . S
C2892 C2891 1.403 . S
C2892 C2893 1.404 . S
C2892 C2895 1.539 . S
C2893 C2889 1.408 . S
C2893 C2892 1.404 . S
C2893 H2905 0.930 . S
C2894 C2890 1.524 . S
C2894 H2906 0.956 . S
C2894 H2907 0.961 . S
C2894 H2908 0.961 . S
C2895 C2892 1.539 . S
C2895 H2909 0.958 . S
C2895 H2910 0.961 . S
C2895 H2911 0.960 . S
H2896 C2880 0.931 . S
H2897 C2885 0.929 . S
H2898 C2886 0.960 . S
H2899 C2886 0.962 . S
H2900 C2886 0.960 . S
H2901 C2887 0.961 . S
H2902 C2887 0.961 . S
H2903 C2887 0.961 . S
H2904 C2888 0.931 . S
H2905 C2893 0.930 . S
H2906 C2894 0.956 . S
H2907 C2894 0.961 . S
H2908 C2894 0.961 . S
H2909 C2895 0.958 . S
H2910 C2895 0.961 . S
H2911 C2895 0.960 . S
C2912 C2913 1.391 . S
C2912 C2914 1.394 . S
C2912 H2928 0.931 . S
C2913 C2912 1.391 . S
C2913 C2917 1.376 . S
C2914 C2912 1.394 . S
C2914 C2915 1.369 . S
C2914 C2918 1.531 . S
C2915 C2914 1.369 . S
C2915 C2916 1.410 . S
C2915 C2923 1.503 . S
C2916 C2915 1.410 . S
C2916 C2917 1.392 . S
C2916 C2919 1.511 . S
C2917 C2913 1.376 . S
C2917 C2916 1.392 . S
C2917 H2929 0.929 . S
C2918 C2914 1.531 . S
C2918 H2930 0.960 . S
C2918 H2931 0.962 . S
C2918 H2932 0.960 . S
C2919 C2916 1.511 . S
C2919 H2933 0.961 . S
C2919 H2934 0.961 . S
C2919 H2935 0.961 . S
C2920 C2921 1.370 . S
C2920 C2922 1.363 . S
C2920 H2936 0.931 . S
C2921 C2920 1.370 . S
C2921 C2925 1.408 . S
C2922 C2920 1.363 . S
C2922 C2923 1.370 . S
C2922 C2926 1.524 . S
C2923 C2915 1.503 . S
C2923 C2922 1.370 . S
C2923 C2924 1.403 . S
C2924 C2923 1.403 . S
C2924 C2925 1.404 . S
C2924 C2927 1.539 . S
C2925 C2921 1.408 . S
C2925 C2924 1.404 . S
C2925 H2937 0.930 . S
C2926 C2922 1.524 . S
C2926 H2938 0.956 . S
C2926 H2939 0.961 . S
C2926 H2940 0.961 . S
C2927 C2924 1.539 . S
C2927 H2941 0.951 1_565 S
C2927 H2942 0.961 1_565 S
C2927 H2943 0.960 1_565 S
H2928 C2912 0.931 . S
H2929 C2917 0.929 . S
H2930 C2918 0.960 . S
H2931 C2918 0.962 . S
H2932 C2918 0.960 . S
H2933 C2919 0.961 . S
H2934 C2919 0.961 . S
H2935 C2919 0.961 . S
H2936 C2920 0.931 . S
H2937 C2925 0.930 . S
H2938 C2926 0.956 . S
H2939 C2926 0.961 . S
H2940 C2926 0.961 . S
H2941 C2927 0.951 1_545 S
H2942 C2927 0.961 1_545 S
H2943 C2927 0.960 1_545 S
C2944 C2945 1.391 . S
C2944 C2946 1.394 . S
C2944 H2960 0.931 . S
C2945 C2944 1.391 . S
C2945 C2949 1.376 . S
C2946 C2944 1.394 . S
C2946 C2947 1.369 . S
C2946 C2950 1.531 . S
C2947 C2946 1.369 . S
C2947 C2948 1.410 . S
C2947 C2955 1.503 . S
C2948 C2947 1.410 . S
C2948 C2949 1.392 . S
C2948 C2951 1.511 . S
C2949 C2945 1.376 . S
C2949 C2948 1.392 . S
C2949 H2961 0.929 . S
C2950 C2946 1.531 . S
C2950 H2962 0.960 . S
C2950 H2963 0.962 . S
C2950 H2964 0.960 . S
C2951 C2948 1.511 . S
C2951 H2965 0.961 . S
C2951 H2966 0.961 . S
C2951 H2967 0.961 . S
C2952 C2953 1.370 . S
C2952 C2954 1.363 . S
C2952 H2968 0.931 . S
C2953 C2952 1.370 . S
C2953 C2957 1.408 . S
C2954 C2952 1.363 . S
C2954 C2955 1.370 . S
C2954 C2958 1.524 . S
C2955 C2947 1.503 . S
C2955 C2954 1.370 . S
C2955 C2956 1.403 . S
C2956 C2955 1.403 . S
C2956 C2957 1.404 . S
C2956 C2959 1.539 . S
C2957 C2953 1.408 . S
C2957 C2956 1.404 . S
C2957 H2969 0.930 . S
C2958 C2954 1.524 . S
C2958 H2970 0.956 . S
C2958 H2971 0.961 . S
C2958 H2972 0.961 . S
C2959 C2956 1.539 . S
C2959 H2973 0.958 . S
C2959 H2974 0.961 . S
C2959 H2975 0.960 . S
H2960 C2944 0.931 . S
H2961 C2949 0.929 . S
H2962 C2950 0.960 . S
H2963 C2950 0.962 . S
H2964 C2950 0.960 . S
H2965 C2951 0.961 . S
H2966 C2951 0.961 . S
H2967 C2951 0.961 . S
H2968 C2952 0.931 . S
H2969 C2957 0.930 . S
H2970 C2958 0.956 . S
H2971 C2958 0.961 . S
H2972 C2958 0.961 . S
H2973 C2959 0.958 . S
H2974 C2959 0.961 . S
H2975 C2959 0.960 . S
C2976 C2977 1.391 . S
C2976 C2978 1.394 . S
C2976 H2992 0.931 . S
C2977 C2976 1.391 . S
C2977 C2981 1.376 . S
C2978 C2976 1.394 . S
C2978 C2979 1.369 . S
C2978 C2982 1.531 . S
C2979 C2978 1.369 . S
C2979 C2980 1.410 . S
C2979 C2987 1.503 . S
C2980 C2979 1.410 . S
C2980 C2981 1.392 . S
C2980 C2983 1.511 . S
C2981 C2977 1.376 . S
C2981 C2980 1.392 . S
C2981 H2993 0.929 . S
C2982 C2978 1.531 . S
C2982 H2994 0.960 . S
C2982 H2995 0.962 . S
C2982 H2996 0.960 . S
C2983 C2980 1.511 . S
C2983 H2997 0.961 . S
C2983 H2998 0.961 . S
C2983 H2999 0.961 . S
C2984 C2985 1.370 . S
C2984 C2986 1.363 . S
C2984 H3000 0.931 . S
C2985 C2984 1.370 . S
C2985 C2989 1.408 . S
C2986 C2984 1.363 . S
C2986 C2987 1.370 . S
C2986 C2990 1.524 . S
C2987 C2979 1.503 . S
C2987 C2986 1.370 . S
C2987 C2988 1.403 . S
C2988 C2987 1.403 . S
C2988 C2989 1.404 . S
C2988 C2991 1.539 . S
C2989 C2985 1.408 . S
C2989 C2988 1.404 . S
C2989 H3001 0.930 . S
C2990 C2986 1.524 . S
C2990 H3002 0.956 . S
C2990 H3003 0.961 . S
C2990 H3004 0.961 . S
C2991 C2988 1.539 . S
C2991 H3005 0.958 . S
C2991 H3006 0.961 . S
C2991 H3007 0.960 . S
H2992 C2976 0.931 . S
H2993 C2981 0.929 . S
H2994 C2982 0.960 . S
H2995 C2982 0.962 . S
H2996 C2982 0.960 . S
H2997 C2983 0.961 . S
H2998 C2983 0.961 . S
H2999 C2983 0.961 . S
H3000 C2984 0.931 . S
H3001 C2989 0.930 . S
H3002 C2990 0.956 . S
H3003 C2990 0.961 . S
H3004 C2990 0.961 . S
H3005 C2991 0.958 . S
H3006 C2991 0.961 . S
H3007 C2991 0.960 . S
C3008 C3009 1.391 . S
C3008 C3010 1.394 . S
C3008 H3024 0.931 . S
C3009 C3008 1.391 . S
C3009 C3013 1.376 . S
C3010 C3008 1.394 . S
C3010 C3011 1.369 . S
C3010 C3014 1.531 . S
C3011 C3010 1.369 . S
C3011 C3012 1.410 . S
C3011 C3019 1.503 . S
C3012 C3011 1.410 . S
C3012 C3013 1.392 . S
C3012 C3015 1.511 . S
C3013 C3009 1.376 . S
C3013 C3012 1.392 . S
C3013 H3025 0.929 . S
C3014 C3010 1.531 . S
C3014 H3026 0.960 . S
C3014 H3027 0.962 . S
C3014 H3028 0.960 . S
C3015 C3012 1.511 . S
C3015 H3029 0.961 . S
C3015 H3030 0.961 . S
C3015 H3031 0.961 . S
C3016 C3017 1.370 . S
C3016 C3018 1.363 . S
C3016 H3032 0.931 . S
C3017 C3016 1.370 . S
C3017 C3021 1.408 . S
C3018 C3016 1.363 . S
C3018 C3019 1.370 . S
C3018 C3022 1.524 . S
C3019 C3011 1.503 . S
C3019 C3018 1.370 . S
C3019 C3020 1.403 . S
C3020 C3019 1.403 . S
C3020 C3021 1.404 . S
C3020 C3023 1.539 . S
C3021 C3017 1.408 . S
C3021 C3020 1.404 . S
C3021 H3033 0.930 . S
C3022 C3018 1.524 . S
C3022 H3034 0.956 . S
C3022 H3035 0.961 . S
C3022 H3036 0.961 . S
C3023 C3020 1.539 . S
C3023 H3037 0.958 . S
C3023 H3038 0.961 . S
C3023 H3039 0.960 . S
H3024 C3008 0.931 . S
H3025 C3013 0.929 . S
H3026 C3014 0.960 . S
H3027 C3014 0.962 . S
H3028 C3014 0.960 . S
H3029 C3015 0.961 . S
H3030 C3015 0.961 . S
H3031 C3015 0.961 . S
H3032 C3016 0.931 . S
H3033 C3021 0.930 . S
H3034 C3022 0.956 . S
H3035 C3022 0.961 . S
H3036 C3022 0.961 . S
H3037 C3023 0.958 . S
H3038 C3023 0.961 . S
H3039 C3023 0.960 . S
C3040 C3041 1.391 . S
C3040 C3042 1.394 . S
C3040 H3056 0.931 . S
C3041 C3040 1.391 . S
C3041 C3045 1.376 . S
C3042 C3040 1.394 . S
C3042 C3043 1.369 . S
C3042 C3046 1.531 . S
C3043 C3042 1.369 . S
C3043 C3044 1.410 . S
C3043 C3051 1.503 . S
C3044 C3043 1.410 . S
C3044 C3045 1.392 . S
C3044 C3047 1.511 . S
C3045 C3041 1.376 . S
C3045 C3044 1.392 . S
C3045 H3057 0.929 . S
C3046 C3042 1.531 . S
C3046 H3058 0.960 . S
C3046 H3059 0.962 . S
C3046 H3060 0.960 . S
C3047 C3044 1.511 . S
C3047 H3061 0.961 . S
C3047 H3062 0.961 . S
C3047 H3063 0.961 . S
C3048 C3049 1.370 . S
C3048 C3050 1.363 . S
C3048 H3064 0.931 . S
C3049 C3048 1.370 . S
C3049 C3053 1.408 . S
C3050 C3048 1.363 . S
C3050 C3051 1.370 . S
C3050 C3054 1.524 . S
C3051 C3043 1.503 . S
C3051 C3050 1.370 . S
C3051 C3052 1.403 . S
C3052 C3051 1.403 . S
C3052 C3053 1.404 . S
C3052 C3055 1.539 . S
C3053 C3049 1.408 . S
C3053 C3052 1.404 . S
C3053 H3065 0.930 . S
C3054 C3050 1.524 . S
C3054 H3066 0.956 . S
C3054 H3067 0.961 . S
C3054 H3068 0.961 . S
C3055 C3052 1.539 . S
C3055 H3069 0.958 . S
C3055 H3070 0.961 . S
C3055 H3071 0.960 . S
H3056 C3040 0.931 . S
H3057 C3045 0.929 . S
H3058 C3046 0.960 . S
H3059 C3046 0.962 . S
H3060 C3046 0.960 . S
H3061 C3047 0.961 . S
H3062 C3047 0.961 . S
H3063 C3047 0.961 . S
H3064 C3048 0.931 . S
H3065 C3053 0.930 . S
H3066 C3054 0.956 . S
H3067 C3054 0.961 . S
H3068 C3054 0.961 . S
H3069 C3055 0.958 . S
H3070 C3055 0.961 . S
H3071 C3055 0.960 . S
C3072 C3073 1.391 . S
C3072 C3074 1.394 . S
C3072 H3088 0.931 . S
C3073 C3072 1.391 . S
C3073 C3077 1.376 . S
C3074 C3072 1.394 . S
C3074 C3075 1.369 . S
C3074 C3078 1.531 . S
C3075 C3074 1.369 . S
C3075 C3076 1.410 . S
C3075 C3083 1.503 . S
C3076 C3075 1.410 . S
C3076 C3077 1.392 . S
C3076 C3079 1.511 . S
C3077 C3073 1.376 . S
C3077 C3076 1.392 . S
C3077 H3089 0.929 . S
C3078 C3074 1.531 . S
C3078 H3090 0.960 . S
C3078 H3091 0.962 . S
C3078 H3092 0.960 . S
C3079 C3076 1.511 . S
C3079 H3093 0.961 . S
C3079 H3094 0.961 . S
C3079 H3095 0.961 . S
C3080 C3081 1.370 . S
C3080 C3082 1.363 . S
C3080 H3096 0.931 . S
C3081 C3080 1.370 . S
C3081 C3085 1.408 . S
C3082 C3080 1.363 . S
C3082 C3083 1.370 . S
C3082 C3086 1.524 . S
C3083 C3075 1.503 . S
C3083 C3082 1.370 . S
C3083 C3084 1.403 . S
C3084 C3083 1.403 . S
C3084 C3085 1.404 . S
C3084 C3087 1.539 . S
C3085 C3081 1.408 . S
C3085 C3084 1.404 . S
C3085 H3097 0.930 . S
C3086 C3082 1.524 . S
C3086 H3098 0.956 . S
C3086 H3099 0.961 . S
C3086 H3100 0.961 . S
C3087 C3084 1.539 . S
C3087 H3101 0.958 . S
C3087 H3102 0.961 . S
C3087 H3103 0.960 . S
H3088 C3072 0.931 . S
H3089 C3077 0.929 . S
H3090 C3078 0.960 . S
H3091 C3078 0.962 . S
H3092 C3078 0.960 . S
H3093 C3079 0.961 . S
H3094 C3079 0.961 . S
H3095 C3079 0.961 . S
H3096 C3080 0.931 . S
H3097 C3085 0.930 . S
H3098 C3086 0.956 . S
H3099 C3086 0.961 . S
H3100 C3086 0.961 . S
H3101 C3087 0.958 . S
H3102 C3087 0.961 . S
H3103 C3087 0.960 . S
C3104 C3105 1.391 1_655 S
C3104 C3106 1.394 . S
C3104 H3120 0.931 . S
C3105 C3104 1.391 1_455 S
C3105 C3109 1.376 . S
C3106 C3104 1.394 . S
C3106 C3107 1.369 1_655 S
C3106 C3110 1.531 . S
C3107 C3106 1.369 1_455 S
C3107 C3108 1.410 . S
C3107 C3115 1.503 . S
C3108 C3107 1.410 . S
C3108 C3109 1.392 . S
C3108 C3111 1.511 . S
C3109 C3105 1.376 . S
C3109 C3108 1.392 . S
C3109 H3121 0.929 . S
C3110 C3106 1.531 . S
C3110 H3122 0.960 1_556 S
C3110 H3123 0.962 . S
C3110 H3124 0.960 . S
C3111 C3108 1.511 . S
C3111 H3125 0.961 . S
C3111 H3126 0.961 . S
C3111 H3127 0.961 1_556 S
C3112 C3113 1.370 1_556 S
C3112 C3114 1.363 . S
C3112 H3128 0.931 . S
C3113 C3112 1.370 1_554 S
C3113 C3117 1.408 . S
C3114 C3112 1.363 . S
C3114 C3115 1.370 . S
C3114 C3118 1.524 . S
C3115 C3107 1.503 . S
C3115 C3114 1.370 . S
C3115 C3116 1.403 1_556 S
C3116 C3115 1.403 1_554 S
C3116 C3117 1.404 . S
C3116 C3119 1.539 . S
C3117 C3113 1.408 . S
C3117 C3116 1.404 . S
C3117 H3129 0.930 . S
C3118 C3114 1.524 . S
C3118 H3130 0.956 . S
C3118 H3131 0.961 . S
C3118 H3132 0.961 . S
C3119 C3116 1.539 . S
C3119 H3133 0.958 . S
C3119 H3134 0.961 . S
C3119 H3135 0.960 . S
H3120 C3104 0.931 . S
H3121 C3109 0.929 . S
H3122 C3110 0.960 1_554 S
H3123 C3110 0.962 . S
H3124 C3110 0.960 . S
H3125 C3111 0.961 . S
H3126 C3111 0.961 . S
H3127 C3111 0.961 1_554 S
H3128 C3112 0.931 . S
H3129 C3117 0.930 . S
H3130 C3118 0.956 . S
H3131 C3118 0.961 . S
H3132 C3118 0.961 . S
H3133 C3119 0.958 . S
H3134 C3119 0.961 . S
H3135 C3119 0.960 . S
C3136 C3137 1.391 . S
C3136 C3138 1.394 . S
C3136 H3152 0.931 . S
C3137 C3136 1.391 . S
C3137 C3141 1.376 . S
C3138 C3136 1.394 . S
C3138 C3139 1.369 1_455 S
C3138 C3142 1.531 . S
C3139 C3138 1.369 1_655 S
C3139 C3140 1.410 . S
C3139 C3147 1.503 . S
C3140 C3139 1.410 . S
C3140 C3141 1.392 1_655 S
C3140 C3143 1.511 . S
C3141 C3137 1.376 . S
C3141 C3140 1.392 1_455 S
C3141 H3153 0.929 . S
C3142 C3138 1.531 . S
C3142 H3154 0.930 1_455 S
C3142 H3155 0.962 . S
C3142 H3156 0.960 . S
C3143 C3140 1.511 . S
C3143 H3157 0.961 . S
C3143 H3158 0.961 . S
C3143 H3159 0.961 . S
C3144 C3145 1.370 . S
C3144 C3146 1.363 . S
C3144 H3160 0.931 . S
C3145 C3144 1.370 . S
C3145 C3149 1.408 . S
C3146 C3144 1.363 . S
C3146 C3147 1.370 . S
C3146 C3150 1.524 . S
C3147 C3139 1.503 . S
C3147 C3146 1.370 . S
C3147 C3148 1.403 . S
C3148 C3147 1.403 . S
C3148 C3149 1.404 . S
C3148 C3151 1.539 . S
C3149 C3145 1.408 . S
C3149 C3148 1.404 . S
C3149 H3161 0.930 . S
C3150 C3146 1.524 . S
C3150 H3162 0.956 . S
C3150 H3163 0.961 . S
C3150 H3164 0.961 . S
C3151 C3148 1.539 . S
C3151 H3165 0.958 . S
C3151 H3166 0.961 . S
C3151 H3167 0.960 . S
H3152 C3136 0.931 . S
H3153 C3141 0.929 . S
H3154 C3142 0.930 1_655 S
H3155 C3142 0.962 . S
H3156 C3142 0.960 . S
H3157 C3143 0.961 . S
H3158 C3143 0.961 . S
H3159 C3143 0.961 . S
H3160 C3144 0.931 . S
H3161 C3149 0.930 . S
H3162 C3150 0.956 . S
H3163 C3150 0.961 . S
H3164 C3150 0.961 . S
H3165 C3151 0.958 . S
H3166 C3151 0.961 . S
H3167 C3151 0.960 . S
C3168 C3169 1.391 . S
C3168 C3170 1.394 . S
C3168 H3184 0.931 . S
C3169 C3168 1.391 . S
C3169 C3173 1.376 . S
C3170 C3168 1.394 . S
C3170 C3171 1.369 . S
C3170 C3174 1.531 . S
C3171 C3170 1.369 . S
C3171 C3172 1.410 . S
C3171 C3179 1.503 . S
C3172 C3171 1.410 . S
C3172 C3173 1.392 . S
C3172 C3175 1.511 . S
C3173 C3169 1.376 . S
C3173 C3172 1.392 . S
C3173 H3185 0.929 . S
C3174 C3170 1.531 . S
C3174 H3186 0.960 . S
C3174 H3187 0.962 . S
C3174 H3188 0.960 . S
C3175 C3172 1.511 . S
C3175 H3189 0.961 . S
C3175 H3190 0.961 . S
C3175 H3191 0.961 . S
C3176 C3177 1.370 . S
C3176 C3178 1.363 . S
C3176 H3192 0.931 . S
C3177 C3176 1.370 . S
C3177 C3181 1.408 . S
C3178 C3176 1.363 . S
C3178 C3179 1.370 . S
C3178 C3182 1.524 . S
C3179 C3171 1.503 . S
C3179 C3178 1.370 . S
C3179 C3180 1.403 . S
C3180 C3179 1.403 . S
C3180 C3181 1.404 . S
C3180 C3183 1.539 . S
C3181 C3177 1.408 . S
C3181 C3180 1.404 . S
C3181 H3193 0.930 . S
C3182 C3178 1.524 . S
C3182 H3194 0.956 . S
C3182 H3195 0.961 . S
C3182 H3196 0.961 . S
C3183 C3180 1.539 . S
C3183 H3197 0.958 . S
C3183 H3198 0.961 . S
C3183 H3199 0.960 . S
H3184 C3168 0.931 . S
H3185 C3173 0.929 . S
H3186 C3174 0.960 . S
H3187 C3174 0.962 . S
H3188 C3174 0.960 . S
H3189 C3175 0.961 . S
H3190 C3175 0.961 . S
H3191 C3175 0.961 . S
H3192 C3176 0.931 . S
H3193 C3181 0.930 . S
H3194 C3182 0.956 . S
H3195 C3182 0.961 . S
H3196 C3182 0.961 . S
H3197 C3183 0.958 . S
H3198 C3183 0.961 . S
H3199 C3183 0.960 . S
C3200 C3201 1.391 . S
C3200 C3202 1.394 . S
C3200 H3216 0.931 . S
C3201 C3200 1.391 . S
C3201 C3205 1.376 . S
C3202 C3200 1.394 . S
C3202 C3203 1.369 . S
C3202 C3206 1.531 . S
C3203 C3202 1.369 . S
C3203 C3204 1.410 . S
C3203 C3211 1.503 . S
C3204 C3203 1.410 . S
C3204 C3205 1.392 . S
C3204 C3207 1.511 . S
C3205 C3201 1.376 . S
C3205 C3204 1.392 . S
C3205 H3217 0.929 . S
C3206 C3202 1.531 . S
C3206 H3218 0.960 . S
C3206 H3219 0.962 . S
C3206 H3220 0.960 . S
C3207 C3204 1.511 . S
C3207 H3221 0.961 . S
C3207 H3222 0.961 . S
C3207 H3223 0.961 . S
C3208 C3209 1.370 . S
C3208 C3210 1.363 . S
C3208 H3224 0.931 . S
C3209 C3208 1.370 . S
C3209 C3213 1.408 . S
C3210 C3208 1.363 . S
C3210 C3211 1.370 . S
C3210 C3214 1.524 . S
C3211 C3203 1.503 . S
C3211 C3210 1.370 . S
C3211 C3212 1.403 . S
C3212 C3211 1.403 . S
C3212 C3213 1.404 . S
C3212 C3215 1.539 . S
C3213 C3209 1.408 . S
C3213 C3212 1.404 . S
C3213 H3225 0.930 . S
C3214 C3210 1.524 . S
C3214 H3226 0.956 . S
C3214 H3227 0.961 . S
C3214 H3228 0.961 . S
C3215 C3212 1.539 . S
C3215 H3229 0.958 . S
C3215 H3230 0.961 . S
C3215 H3231 0.960 . S
H3216 C3200 0.931 . S
H3217 C3205 0.929 . S
H3218 C3206 0.960 . S
H3219 C3206 0.962 . S
H3220 C3206 0.960 . S
H3221 C3207 0.961 . S
H3222 C3207 0.961 . S
H3223 C3207 0.961 . S
H3224 C3208 0.931 . S
H3225 C3213 0.930 . S
H3226 C3214 0.956 . S
H3227 C3214 0.961 . S
H3228 C3214 0.961 . S
H3229 C3215 0.958 . S
H3230 C3215 0.961 . S
H3231 C3215 0.960 . S
C3232 C3233 1.391 . S
C3232 C3234 1.394 . S
C3232 H3248 0.931 . S
C3233 C3232 1.391 . S
C3233 C3237 1.376 . S
C3234 C3232 1.394 . S
C3234 C3235 1.369 . S
C3234 C3238 1.531 . S
C3235 C3234 1.369 . S
C3235 C3236 1.410 . S
C3235 C3243 1.503 . S
C3236 C3235 1.410 . S
C3236 C3237 1.392 . S
C3236 C3239 1.511 . S
C3237 C3233 1.376 . S
C3237 C3236 1.392 . S
C3237 H3249 0.929 . S
C3238 C3234 1.531 . S
C3238 H3250 0.960 . S
C3238 H3251 0.937 1_455 S
C3238 H3252 0.960 . S
C3239 C3236 1.511 . S
C3239 H3253 0.961 . S
C3239 H3254 0.961 . S
C3239 H3255 0.961 . S
C3240 C3241 1.370 . S
C3240 C3242 1.363 . S
C3240 H3256 0.931 . S
C3241 C3240 1.370 . S
C3241 C3245 1.408 . S
C3242 C3240 1.363 . S
C3242 C3243 1.370 . S
C3242 C3246 1.524 . S
C3243 C3235 1.503 . S
C3243 C3242 1.370 . S
C3243 C3244 1.403 . S
C3244 C3243 1.403 . S
C3244 C3245 1.404 . S
C3244 C3247 1.539 . S
C3245 C3241 1.408 . S
C3245 C3244 1.404 . S
C3245 H3257 0.930 . S
C3246 C3242 1.524 . S
C3246 H3258 0.956 1_455 S
C3246 H3259 0.961 . S
C3246 H3260 0.961 1_455 S
C3247 C3244 1.539 . S
C3247 H3261 0.958 . S
C3247 H3262 0.961 . S
C3247 H3263 0.960 . S
H3248 C3232 0.931 . S
H3249 C3237 0.929 . S
H3250 C3238 0.960 . S
H3251 C3238 0.937 1_655 S
H3252 C3238 0.960 . S
H3253 C3239 0.961 . S
H3254 C3239 0.961 . S
H3255 C3239 0.961 . S
H3256 C3240 0.931 . S
H3257 C3245 0.930 . S
H3258 C3246 0.956 1_655 S
H3259 C3246 0.961 . S
H3260 C3246 0.961 1_655 S
H3261 C3247 0.958 . S
H3262 C3247 0.961 . S
H3263 C3247 0.960 . S
C3264 C3265 1.391 . S
C3264 C3266 1.394 . S
C3264 H3280 0.931 . S
C3265 C3264 1.391 . S
C3265 C3269 1.376 . S
C3266 C3264 1.394 . S
C3266 C3267 1.369 . S
C3266 C3270 1.531 . S
C3267 C3266 1.369 . S
C3267 C3268 1.410 . S
C3267 C3275 1.503 . S
C3268 C3267 1.410 . S
C3268 C3269 1.392 . S
C3268 C3271 1.511 . S
C3269 C3265 1.376 . S
C3269 C3268 1.392 . S
C3269 H3281 0.929 . S
C3270 C3266 1.531 . S
C3270 H3282 0.960 . S
C3270 H3283 0.962 . S
C3270 H3284 0.960 . S
C3271 C3268 1.511 . S
C3271 H3285 0.961 . S
C3271 H3286 0.961 . S
C3271 H3287 0.961 . S
C3272 C3273 1.370 . S
C3272 C3274 1.363 . S
C3272 H3288 0.931 . S
C3273 C3272 1.370 . S
C3273 C3277 1.408 . S
C3274 C3272 1.363 . S
C3274 C3275 1.370 . S
C3274 C3278 1.524 . S
C3275 C3267 1.503 . S
C3275 C3274 1.370 . S
C3275 C3276 1.403 . S
C3276 C3275 1.403 . S
C3276 C3277 1.404 . S
C3276 C3279 1.539 . S
C3277 C3273 1.408 . S
C3277 C3276 1.404 . S
C3277 H3289 0.930 . S
C3278 C3274 1.524 . S
C3278 H3290 0.956 . S
C3278 H3291 0.961 . S
C3278 H3292 0.961 . S
C3279 C3276 1.539 . S
C3279 H3293 0.958 . S
C3279 H3294 0.961 . S
C3279 H3295 0.960 . S
H3280 C3264 0.931 . S
H3281 C3269 0.929 . S
H3282 C3270 0.960 . S
H3283 C3270 0.962 . S
H3284 C3270 0.960 . S
H3285 C3271 0.961 . S
H3286 C3271 0.961 . S
H3287 C3271 0.961 . S
H3288 C3272 0.931 . S
H3289 C3277 0.930 . S
H3290 C3278 0.956 . S
H3291 C3278 0.961 . S
H3292 C3278 0.961 . S
H3293 C3279 0.958 . S
H3294 C3279 0.961 . S
H3295 C3279 0.960 . S
C3296 C3297 1.391 . S
C3296 C3298 1.394 . S
C3296 H3312 0.931 . S
C3297 C3296 1.391 . S
C3297 C3301 1.376 . S
C3298 C3296 1.394 . S
C3298 C3299 1.369 . S
C3298 C3302 1.531 . S
C3299 C3298 1.369 . S
C3299 C3300 1.410 . S
C3299 C3307 1.503 . S
C3300 C3299 1.410 . S
C3300 C3301 1.392 . S
C3300 C3303 1.511 . S
C3301 C3297 1.376 . S
C3301 C3300 1.392 . S
C3301 H3313 0.929 . S
C3302 C3298 1.531 . S
C3302 H3314 0.960 . S
C3302 H3315 0.962 . S
C3302 H3316 0.960 . S
C3303 C3300 1.511 . S
C3303 H3317 0.961 . S
C3303 H3318 0.961 . S
C3303 H3319 0.961 . S
C3304 C3305 1.370 . S
C3304 C3306 1.363 . S
C3304 H3320 0.931 . S
C3305 C3304 1.370 . S
C3305 C3309 1.408 . S
C3306 C3304 1.363 . S
C3306 C3307 1.370 . S
C3306 C3310 1.524 . S
C3307 C3299 1.503 . S
C3307 C3306 1.370 . S
C3307 C3308 1.403 . S
C3308 C3307 1.403 . S
C3308 C3309 1.404 . S
C3308 C3311 1.539 . S
C3309 C3305 1.408 . S
C3309 C3308 1.404 . S
C3309 H3321 0.930 . S
C3310 C3306 1.524 . S
C3310 H3322 0.956 . S
C3310 H3323 0.961 . S
C3310 H3324 0.961 . S
C3311 C3308 1.539 . S
C3311 H3325 0.958 . S
C3311 H3326 0.961 . S
C3311 H3327 0.960 . S
H3312 C3296 0.931 . S
H3313 C3301 0.929 . S
H3314 C3302 0.960 . S
H3315 C3302 0.962 . S
H3316 C3302 0.960 . S
H3317 C3303 0.961 . S
H3318 C3303 0.961 . S
H3319 C3303 0.961 . S
H3320 C3304 0.931 . S
H3321 C3309 0.930 . S
H3322 C3310 0.956 . S
H3323 C3310 0.961 . S
H3324 C3310 0.961 . S
H3325 C3311 0.958 . S
H3326 C3311 0.961 . S
H3327 C3311 0.960 . S
C3328 C3329 1.383 1_556 S
C3328 C3330 1.410 . S
C3328 H3344 0.923 1_556 S
C3329 C3328 1.383 1_554 S
C3329 C3333 1.376 1_554 S
C3330 C3328 1.410 . S
C3330 C3331 1.369 . S
C3330 C3334 1.531 . S
C3331 C3330 1.369 . S
C3331 C3332 1.410 . S
C3331 C3339 1.503 . S
C3332 C3331 1.410 . S
C3332 C3333 1.392 . S
C3332 C3335 1.511 . S
C3333 C3329 1.376 1_556 S
C3333 C3332 1.392 . S
C3333 H3345 0.926 1_556 S
C3334 C3330 1.531 . S
C3334 H3346 0.960 . S
C3334 H3347 0.962 . S
C3334 H3348 0.960 . S
C3335 C3332 1.511 . S
C3335 H3349 0.961 . S
C3335 H3350 0.961 . S
C3335 H3351 0.961 . S
C3336 C3337 1.370 . S
C3336 C3338 1.363 . S
C3336 H3352 0.931 . S
C3337 C3336 1.370 . S
C3337 C3341 1.408 . S
C3338 C3336 1.363 . S
C3338 C3339 1.370 . S
C3338 C3342 1.524 . S
C3339 C3331 1.503 . S
C3339 C3338 1.370 . S
C3339 C3340 1.403 . S
C3340 C3339 1.403 . S
C3340 C3341 1.404 . S
C3340 C3343 1.539 . S
C3341 C3337 1.408 . S
C3341 C3340 1.404 . S
C3341 H3353 0.930 . S
C3342 C3338 1.524 . S
C3342 H3354 0.956 . S
C3342 H3355 0.961 . S
C3342 H3356 0.961 . S
C3343 C3340 1.539 . S
C3343 H3357 0.958 . S
C3343 H3358 0.961 . S
C3343 H3359 0.960 . S
H3344 C3328 0.923 1_554 S
H3345 C3333 0.926 1_554 S
H3346 C3334 0.960 . S
H3347 C3334 0.962 . S
H3348 C3334 0.960 . S
H3349 C3335 0.961 . S
H3350 C3335 0.961 . S
H3351 C3335 0.961 . S
H3352 C3336 0.931 . S
H3353 C3341 0.930 . S
H3354 C3342 0.956 . S
H3355 C3342 0.961 . S
H3356 C3342 0.961 . S
H3357 C3343 0.958 . S
H3358 C3343 0.961 . S
H3359 C3343 0.960 . S
C3360 C3361 1.391 . S
C3360 C3362 1.394 . S
C3360 H3376 0.931 . S
C3361 C3360 1.391 . S
C3361 C3365 1.376 . S
C3362 C3360 1.394 . S
C3362 C3363 1.369 . S
C3362 C3366 1.531 . S
C3363 C3362 1.369 . S
C3363 C3364 1.410 . S
C3363 C3371 1.503 . S
C3364 C3363 1.410 . S
C3364 C3365 1.392 . S
C3364 C3367 1.511 . S
C3365 C3361 1.376 . S
C3365 C3364 1.392 . S
C3365 H3377 0.929 . S
C3366 C3362 1.531 . S
C3366 H3378 0.960 . S
C3366 H3379 0.962 . S
C3366 H3380 0.960 . S
C3367 C3364 1.511 . S
C3367 H3381 0.961 . S
C3367 H3382 0.961 . S
C3367 H3383 0.961 . S
C3368 C3369 1.370 . S
C3368 C3370 1.363 . S
C3368 H3384 0.931 . S
C3369 C3368 1.370 . S
C3369 C3373 1.408 . S
C3370 C3368 1.363 . S
C3370 C3371 1.370 . S
C3370 C3374 1.524 . S
C3371 C3363 1.503 . S
C3371 C3370 1.370 . S
C3371 C3372 1.403 . S
C3372 C3371 1.403 . S
C3372 C3373 1.404 . S
C3372 C3375 1.539 . S
C3373 C3369 1.408 . S
C3373 C3372 1.404 . S
C3373 H3385 0.930 . S
C3374 C3370 1.524 . S
C3374 H3386 0.956 . S
C3374 H3387 0.961 . S
C3374 H3388 0.961 . S
C3375 C3372 1.539 . S
C3375 H3389 0.958 . S
C3375 H3390 0.961 . S
C3375 H3391 0.960 . S
H3376 C3360 0.931 . S
H3377 C3365 0.929 . S
H3378 C3366 0.960 . S
H3379 C3366 0.962 . S
H3380 C3366 0.960 . S
H3381 C3367 0.961 . S
H3382 C3367 0.961 . S
H3383 C3367 0.961 . S
H3384 C3368 0.931 . S
H3385 C3373 0.930 . S
H3386 C3374 0.956 . S
H3387 C3374 0.961 . S
H3388 C3374 0.961 . S
H3389 C3375 0.958 . S
H3390 C3375 0.961 . S
H3391 C3375 0.960 . S
C3392 C3393 1.391 . S
C3392 C3394 1.394 . S
C3392 H3408 0.931 . S
C3393 C3392 1.391 . S
C3393 C3397 1.376 . S
C3394 C3392 1.394 . S
C3394 C3395 1.369 . S
C3394 C3398 1.531 . S
C3395 C3394 1.369 . S
C3395 C3396 1.410 . S
C3395 C3403 1.503 . S
C3396 C3395 1.410 . S
C3396 C3397 1.392 . S
C3396 C3399 1.511 . S
C3397 C3393 1.376 . S
C3397 C3396 1.392 . S
C3397 H3409 0.929 . S
C3398 C3394 1.531 . S
C3398 H3410 0.960 . S
C3398 H3411 0.962 . S
C3398 H3412 0.960 . S
C3399 C3396 1.511 . S
C3399 H3413 0.961 . S
C3399 H3414 0.961 . S
C3399 H3415 0.961 . S
C3400 C3401 1.370 . S
C3400 C3402 1.363 . S
C3400 H3416 0.931 . S
C3401 C3400 1.370 . S
C3401 C3405 1.408 . S
C3402 C3400 1.363 . S
C3402 C3403 1.370 . S
C3402 C3406 1.524 . S
C3403 C3395 1.503 . S
C3403 C3402 1.370 . S
C3403 C3404 1.403 . S
C3404 C3403 1.403 . S
C3404 C3405 1.404 . S
C3404 C3407 1.539 . S
C3405 C3401 1.408 . S
C3405 C3404 1.404 . S
C3405 H3417 0.930 . S
C3406 C3402 1.524 . S
C3406 H3418 0.956 . S
C3406 H3419 0.961 . S
C3406 H3420 0.961 . S
C3407 C3404 1.539 . S
C3407 H3421 0.958 . S
C3407 H3422 0.961 . S
C3407 H3423 0.960 . S
H3408 C3392 0.931 . S
H3409 C3397 0.929 . S
H3410 C3398 0.960 . S
H3411 C3398 0.962 . S
H3412 C3398 0.960 . S
H3413 C3399 0.961 . S
H3414 C3399 0.961 . S
H3415 C3399 0.961 . S
H3416 C3400 0.931 . S
H3417 C3405 0.930 . S
H3418 C3406 0.956 . S
H3419 C3406 0.961 . S
H3420 C3406 0.961 . S
H3421 C3407 0.958 . S
H3422 C3407 0.961 . S
H3423 C3407 0.960 . S
C3424 C3425 1.391 . S
C3424 C3426 1.394 . S
C3424 H3440 0.931 . S
C3425 C3424 1.391 . S
C3425 C3429 1.376 . S
C3426 C3424 1.394 . S
C3426 C3427 1.369 . S
C3426 C3430 1.531 . S
C3427 C3426 1.369 . S
C3427 C3428 1.410 . S
C3427 C3435 1.503 . S
C3428 C3427 1.410 . S
C3428 C3429 1.392 . S
C3428 C3431 1.511 . S
C3429 C3425 1.376 . S
C3429 C3428 1.392 . S
C3429 H3441 0.929 . S
C3430 C3426 1.531 . S
C3430 H3442 0.960 . S
C3430 H3443 0.962 . S
C3430 H3444 0.960 . S
C3431 C3428 1.511 . S
C3431 H3445 0.961 . S
C3431 H3446 0.961 . S
C3431 H3447 0.961 . S
C3432 C3433 1.370 . S
C3432 C3434 1.363 . S
C3432 H3448 0.931 . S
C3433 C3432 1.370 . S
C3433 C3437 1.408 . S
C3434 C3432 1.363 . S
C3434 C3435 1.370 . S
C3434 C3438 1.524 . S
C3435 C3427 1.503 . S
C3435 C3434 1.370 . S
C3435 C3436 1.403 . S
C3436 C3435 1.403 . S
C3436 C3437 1.404 . S
C3436 C3439 1.539 . S
C3437 C3433 1.408 . S
C3437 C3436 1.404 . S
C3437 H3449 0.930 . S
C3438 C3434 1.524 . S
C3438 H3450 0.956 . S
C3438 H3451 0.961 . S
C3438 H3452 0.961 . S
C3439 C3436 1.539 . S
C3439 H3453 0.958 . S
C3439 H3454 0.961 . S
C3439 H3455 0.960 . S
H3440 C3424 0.931 . S
H3441 C3429 0.929 . S
H3442 C3430 0.960 . S
H3443 C3430 0.962 . S
H3444 C3430 0.960 . S
H3445 C3431 0.961 . S
H3446 C3431 0.961 . S
H3447 C3431 0.961 . S
H3448 C3432 0.931 . S
H3449 C3437 0.930 . S
H3450 C3438 0.956 . S
H3451 C3438 0.961 . S
H3452 C3438 0.961 . S
H3453 C3439 0.958 . S
H3454 C3439 0.961 . S
H3455 C3439 0.960 . S
C3456 C3457 1.391 . S
C3456 C3458 1.394 . S
C3456 H3472 0.931 . S
C3457 C3456 1.391 . S
C3457 C3461 1.376 . S
C3458 C3456 1.394 . S
C3458 C3459 1.369 . S
C3458 C3462 1.531 . S
C3459 C3458 1.369 . S
C3459 C3460 1.410 . S
C3459 C3467 1.503 . S
C3460 C3459 1.410 . S
C3460 C3461 1.392 . S
C3460 C3463 1.511 . S
C3461 C3457 1.376 . S
C3461 C3460 1.392 . S
C3461 H3473 0.929 . S
C3462 C3458 1.531 . S
C3462 H3474 0.960 . S
C3462 H3475 0.962 . S
C3462 H3476 0.960 . S
C3463 C3460 1.511 . S
C3463 H3477 0.961 . S
C3463 H3478 0.961 . S
C3463 H3479 0.961 . S
C3464 C3465 1.370 . S
C3464 C3466 1.363 . S
C3464 H3480 0.931 . S
C3465 C3464 1.370 . S
C3465 C3469 1.408 . S
C3466 C3464 1.363 . S
C3466 C3467 1.370 . S
C3466 C3470 1.524 . S
C3467 C3459 1.503 . S
C3467 C3466 1.370 . S
C3467 C3468 1.403 . S
C3468 C3467 1.403 . S
C3468 C3469 1.404 . S
C3468 C3471 1.539 . S
C3469 C3465 1.408 . S
C3469 C3468 1.404 . S
C3469 H3481 0.930 . S
C3470 C3466 1.524 . S
C3470 H3482 0.956 . S
C3470 H3483 0.961 . S
C3470 H3484 0.961 . S
C3471 C3468 1.539 . S
C3471 H3485 0.958 . S
C3471 H3486 0.961 . S
C3471 H3487 0.960 . S
H3472 C3456 0.931 . S
H3473 C3461 0.929 . S
H3474 C3462 0.960 . S
H3475 C3462 0.962 . S
H3476 C3462 0.960 . S
H3477 C3463 0.961 . S
H3478 C3463 0.961 . S
H3479 C3463 0.961 . S
H3480 C3464 0.931 . S
H3481 C3469 0.930 . S
H3482 C3470 0.956 . S
H3483 C3470 0.961 . S
H3484 C3470 0.961 . S
H3485 C3471 0.958 . S
H3486 C3471 0.961 . S
H3487 C3471 0.960 . S
C3488 C3489 1.391 . S
C3488 C3490 1.394 . S
C3488 H3504 0.931 . S
C3489 C3488 1.391 . S
C3489 C3493 1.376 . S
C3490 C3488 1.394 . S
C3490 C3491 1.369 . S
C3490 C3494 1.531 . S
C3491 C3490 1.369 . S
C3491 C3492 1.410 . S
C3491 C3499 1.503 . S
C3492 C3491 1.410 . S
C3492 C3493 1.392 . S
C3492 C3495 1.511 . S
C3493 C3489 1.376 . S
C3493 C3492 1.392 . S
C3493 H3505 0.929 . S
C3494 C3490 1.531 . S
C3494 H3506 0.960 . S
C3494 H3507 0.962 . S
C3494 H3508 0.960 . S
C3495 C3492 1.511 . S
C3495 H3509 0.961 . S
C3495 H3510 0.961 . S
C3495 H3511 0.961 . S
C3496 C3497 1.370 . S
C3496 C3498 1.363 . S
C3496 H3512 0.931 . S
C3497 C3496 1.370 . S
C3497 C3501 1.408 . S
C3498 C3496 1.363 . S
C3498 C3499 1.370 . S
C3498 C3502 1.524 . S
C3499 C3491 1.503 . S
C3499 C3498 1.370 . S
C3499 C3500 1.403 . S
C3500 C3499 1.403 . S
C3500 C3501 1.404 . S
C3500 C3503 1.539 . S
C3501 C3497 1.408 . S
C3501 C3500 1.404 . S
C3501 H3513 0.930 . S
C3502 C3498 1.524 . S
C3502 H3514 0.956 . S
C3502 H3515 0.961 . S
C3502 H3516 0.961 . S
C3503 C3500 1.539 . S
C3503 H3517 0.958 . S
C3503 H3518 0.961 . S
C3503 H3519 0.960 . S
H3504 C3488 0.931 . S
H3505 C3493 0.929 . S
H3506 C3494 0.960 . S
H3507 C3494 0.962 . S
H3508 C3494 0.960 . S
H3509 C3495 0.961 . S
H3510 C3495 0.961 . S
H3511 C3495 0.961 . S
H3512 C3496 0.931 . S
H3513 C3501 0.930 . S
H3514 C3502 0.956 . S
H3515 C3502 0.961 . S
H3516 C3502 0.961 . S
H3517 C3503 0.958 . S
H3518 C3503 0.961 . S
H3519 C3503 0.960 . S
C3520 C3521 1.391 . S
C3520 C3522 1.394 . S
C3520 H3536 0.931 . S
C3521 C3520 1.391 . S
C3521 C3525 1.376 . S
C3522 C3520 1.394 . S
C3522 C3523 1.369 . S
C3522 C3526 1.531 . S
C3523 C3522 1.369 . S
C3523 C3524 1.410 . S
C3523 C3531 1.503 . S
C3524 C3523 1.410 . S
C3524 C3525 1.392 . S
C3524 C3527 1.511 . S
C3525 C3521 1.376 . S
C3525 C3524 1.392 . S
C3525 H3537 0.929 . S
C3526 C3522 1.531 . S
C3526 H3538 0.960 . S
C3526 H3539 0.962 . S
C3526 H3540 0.960 . S
C3527 C3524 1.511 . S
C3527 H3541 0.961 . S
C3527 H3542 0.961 . S
C3527 H3543 0.961 . S
C3528 C3529 1.370 . S
C3528 C3530 1.363 . S
C3528 H3544 0.931 . S
C3529 C3528 1.370 . S
C3529 C3533 1.408 . S
C3530 C3528 1.363 . S
C3530 C3531 1.370 . S
C3530 C3534 1.524 . S
C3531 C3523 1.503 . S
C3531 C3530 1.370 . S
C3531 C3532 1.403 . S
C3532 C3531 1.403 . S
C3532 C3533 1.404 . S
C3532 C3535 1.539 . S
C3533 C3529 1.408 . S
C3533 C3532 1.404 . S
C3533 H3545 0.930 . S
C3534 C3530 1.524 . S
C3534 H3546 0.956 . S
C3534 H3547 0.961 . S
C3534 H3548 0.961 . S
C3535 C3532 1.539 . S
C3535 H3549 0.958 . S
C3535 H3550 0.961 . S
C3535 H3551 0.960 . S
H3536 C3520 0.931 . S
H3537 C3525 0.929 . S
H3538 C3526 0.960 . S
H3539 C3526 0.962 . S
H3540 C3526 0.960 . S
H3541 C3527 0.961 . S
H3542 C3527 0.961 . S
H3543 C3527 0.961 . S
H3544 C3528 0.931 . S
H3545 C3533 0.930 . S
H3546 C3534 0.956 . S
H3547 C3534 0.961 . S
H3548 C3534 0.961 . S
H3549 C3535 0.958 . S
H3550 C3535 0.961 . S
H3551 C3535 0.960 . S
C3552 C3553 1.391 . S
C3552 C3554 1.394 . S
C3552 H3568 0.931 . S
C3553 C3552 1.391 . S
C3553 C3557 1.376 . S
C3554 C3552 1.394 . S
C3554 C3555 1.369 . S
C3554 C3558 1.531 . S
C3555 C3554 1.369 . S
C3555 C3556 1.410 . S
C3555 C3563 1.503 . S
C3556 C3555 1.410 . S
C3556 C3557 1.392 . S
C3556 C3559 1.511 . S
C3557 C3553 1.376 . S
C3557 C3556 1.392 . S
C3557 H3569 0.929 . S
C3558 C3554 1.531 . S
C3558 H3570 0.960 . S
C3558 H3571 0.962 . S
C3558 H3572 0.960 . S
C3559 C3556 1.511 . S
C3559 H3573 0.961 . S
C3559 H3574 0.961 . S
C3559 H3575 0.961 . S
C3560 C3561 1.370 . S
C3560 C3562 1.363 . S
C3560 H3576 0.931 . S
C3561 C3560 1.370 . S
C3561 C3565 1.408 . S
C3562 C3560 1.363 . S
C3562 C3563 1.370 . S
C3562 C3566 1.524 . S
C3563 C3555 1.503 . S
C3563 C3562 1.370 . S
C3563 C3564 1.403 . S
C3564 C3563 1.403 . S
C3564 C3565 1.404 . S
C3564 C3567 1.539 . S
C3565 C3561 1.408 . S
C3565 C3564 1.404 . S
C3565 H3577 0.930 . S
C3566 C3562 1.524 . S
C3566 H3578 0.956 . S
C3566 H3579 0.961 . S
C3566 H3580 0.961 . S
C3567 C3564 1.539 . S
C3567 H3581 0.958 . S
C3567 H3582 0.961 . S
C3567 H3583 0.960 . S
H3568 C3552 0.931 . S
H3569 C3557 0.929 . S
H3570 C3558 0.960 . S
H3571 C3558 0.962 . S
H3572 C3558 0.960 . S
H3573 C3559 0.961 . S
H3574 C3559 0.961 . S
H3575 C3559 0.961 . S
H3576 C3560 0.931 . S
H3577 C3565 0.930 . S
H3578 C3566 0.956 . S
H3579 C3566 0.961 . S
H3580 C3566 0.961 . S
H3581 C3567 0.958 . S
H3582 C3567 0.961 . S
H3583 C3567 0.960 . S
C3584 C3585 1.391 . S
C3584 C3586 1.394 . S
C3584 H3600 0.931 . S
C3585 C3584 1.391 . S
C3585 C3589 1.376 . S
C3586 C3584 1.394 . S
C3586 C3587 1.369 . S
C3586 C3590 1.531 . S
C3587 C3586 1.369 . S
C3587 C3588 1.410 . S
C3587 C3595 1.503 . S
C3588 C3587 1.410 . S
C3588 C3589 1.392 . S
C3588 C3591 1.511 . S
C3589 C3585 1.376 . S
C3589 C3588 1.392 . S
C3589 H3601 0.929 . S
C3590 C3586 1.531 . S
C3590 H3602 0.960 . S
C3590 H3603 0.962 . S
C3590 H3604 0.960 . S
C3591 C3588 1.511 . S
C3591 H3605 0.961 . S
C3591 H3606 0.961 . S
C3591 H3607 0.961 . S
C3592 C3593 1.370 . S
C3592 C3594 1.363 . S
C3592 H3608 0.931 . S
C3593 C3592 1.370 . S
C3593 C3597 1.408 . S
C3594 C3592 1.363 . S
C3594 C3595 1.370 . S
C3594 C3598 1.524 . S
C3595 C3587 1.503 . S
C3595 C3594 1.370 . S
C3595 C3596 1.403 . S
C3596 C3595 1.403 . S
C3596 C3597 1.404 . S
C3596 C3599 1.539 . S
C3597 C3593 1.408 . S
C3597 C3596 1.404 . S
C3597 H3609 0.930 . S
C3598 C3594 1.524 . S
C3598 H3610 0.956 . S
C3598 H3611 0.961 . S
C3598 H3612 0.961 . S
C3599 C3596 1.539 . S
C3599 H3613 0.958 . S
C3599 H3614 0.961 . S
C3599 H3615 0.960 . S
H3600 C3584 0.931 . S
H3601 C3589 0.929 . S
H3602 C3590 0.960 . S
H3603 C3590 0.962 . S
H3604 C3590 0.960 . S
H3605 C3591 0.961 . S
H3606 C3591 0.961 . S
H3607 C3591 0.961 . S
H3608 C3592 0.931 . S
H3609 C3597 0.930 . S
H3610 C3598 0.956 . S
H3611 C3598 0.961 . S
H3612 C3598 0.961 . S
H3613 C3599 0.958 . S
H3614 C3599 0.961 . S
H3615 C3599 0.960 . S
C3616 C3617 1.391 1_565 S
C3616 C3618 1.394 . S
C3616 H3632 0.931 1_565 S
C3617 C3616 1.391 1_545 S
C3617 C3621 1.376 1_545 S
C3618 C3616 1.394 . S
C3618 C3619 1.369 . S
C3618 C3622 1.531 . S
C3619 C3618 1.369 . S
C3619 C3620 1.410 . S
C3619 C3627 1.503 . S
C3620 C3619 1.410 . S
C3620 C3621 1.392 . S
C3620 C3623 1.511 . S
C3621 C3617 1.376 1_565 S
C3621 C3620 1.392 . S
C3621 H3633 0.929 . S
C3622 C3618 1.531 . S
C3622 H3634 0.960 . S
C3622 H3635 0.962 . S
C3622 H3636 0.960 . S
C3623 C3620 1.511 . S
C3623 H3637 0.961 . S
C3623 H3638 0.961 . S
C3623 H3639 0.961 . S
C3624 C3625 1.370 . S
C3624 C3626 1.363 . S
C3624 H3640 0.931 . S
C3625 C3624 1.370 . S
C3625 C3629 1.408 . S
C3626 C3624 1.363 . S
C3626 C3627 1.370 . S
C3626 C3630 1.524 . S
C3627 C3619 1.503 . S
C3627 C3626 1.370 . S
C3627 C3628 1.403 . S
C3628 C3627 1.403 . S
C3628 C3629 1.404 . S
C3628 C3631 1.539 . S
C3629 C3625 1.408 . S
C3629 C3628 1.404 . S
C3629 H3641 0.930 . S
C3630 C3626 1.524 . S
C3630 H3642 0.956 1_565 S
C3630 H3643 0.961 1_565 S
C3630 H3644 0.961 1_565 S
C3631 C3628 1.539 . S
C3631 H3645 0.958 . S
C3631 H3646 0.961 . S
C3631 H3647 0.960 . S
H3632 C3616 0.931 1_545 S
H3633 C3621 0.929 . S
H3634 C3622 0.960 . S
H3635 C3622 0.962 . S
H3636 C3622 0.960 . S
H3637 C3623 0.961 . S
H3638 C3623 0.961 . S
H3639 C3623 0.961 . S
H3640 C3624 0.931 . S
H3641 C3629 0.930 . S
H3642 C3630 0.956 1_545 S
H3643 C3630 0.961 1_545 S
H3644 C3630 0.961 1_545 S
H3645 C3631 0.958 . S
H3646 C3631 0.961 . S
H3647 C3631 0.960 . S
C3648 C3649 1.396 . S
C3648 C3650 1.396 . S
C3648 H3664 0.924 1_554 S
C3649 C3648 1.396 . S
C3649 C3653 1.376 . S
C3650 C3648 1.396 . S
C3650 C3651 1.369 . S
C3650 C3654 1.541 1_565 S
C3651 C3650 1.369 . S
C3651 C3652 1.410 . S
C3651 C3659 1.510 . S
C3652 C3651 1.410 . S
C3652 C3653 1.392 . S
C3652 C3655 1.511 . S
C3653 C3649 1.376 . S
C3653 C3652 1.392 . S
C3653 H3665 0.929 . S
C3654 C3650 1.541 1_545 S
C3654 H3666 0.978 . S
C3654 H3667 0.933 1_554 S
C3654 H3668 0.960 . S
C3655 C3652 1.511 . S
C3655 H3669 0.961 . S
C3655 H3670 0.961 . S
C3655 H3671 0.961 . S
C3656 C3657 1.370 . S
C3656 C3658 1.363 1_545 S
C3656 H3672 0.931 1_554 S
C3657 C3656 1.370 . S
C3657 C3661 1.408 . S
C3658 C3656 1.363 1_565 S
C3658 C3659 1.384 . S
C3658 C3662 1.524 1_554 S
C3659 C3651 1.510 . S
C3659 C3658 1.384 . S
C3659 C3660 1.384 1_565 S
C3660 C3659 1.384 1_545 S
C3660 C3661 1.404 . S
C3660 C3663 1.539 . S
C3661 C3657 1.408 . S
C3661 C3660 1.404 . S
C3661 H3673 0.930 . S
C3662 C3658 1.524 1_556 S
C3662 H3674 0.956 . S
C3662 H3675 0.961 . S
C3662 H3676 0.961 . S
C3663 C3660 1.539 . S
C3663 H3677 0.958 . S
C3663 H3678 0.961 . S
C3663 H3679 0.960 . S
H3664 C3648 0.924 1_556 S
H3665 C3653 0.929 . S
H3666 C3654 0.978 . S
H3667 C3654 0.933 1_556 S
H3668 C3654 0.960 . S
H3669 C3655 0.961 . S
H3670 C3655 0.961 . S
H3671 C3655 0.961 . S
H3672 C3656 0.931 1_556 S
H3673 C3661 0.930 . S
H3674 C3662 0.956 . S
H3675 C3662 0.961 . S
H3676 C3662 0.961 . S
H3677 C3663 0.958 . S
H3678 C3663 0.961 . S
H3679 C3663 0.960 . S
C3680 C3681 1.391 . S
C3680 C3682 1.394 . S
C3680 H3696 0.931 . S
C3681 C3680 1.391 . S
C3681 C3685 1.376 . S
C3682 C3680 1.394 . S
C3682 C3683 1.369 . S
C3682 C3686 1.531 . S
C3683 C3682 1.369 . S
C3683 C3684 1.410 . S
C3683 C3691 1.503 . S
C3684 C3683 1.410 . S
C3684 C3685 1.392 . S
C3684 C3687 1.511 . S
C3685 C3681 1.376 . S
C3685 C3684 1.392 . S
C3685 H3697 0.929 . S
C3686 C3682 1.531 . S
C3686 H3698 0.960 . S
C3686 H3699 0.962 . S
C3686 H3700 0.960 . S
C3687 C3684 1.511 . S
C3687 H3701 0.961 . S
C3687 H3702 0.961 . S
C3687 H3703 0.961 . S
C3688 C3689 1.370 . S
C3688 C3690 1.363 . S
C3688 H3704 0.931 . S
C3689 C3688 1.370 . S
C3689 C3693 1.408 . S
C3690 C3688 1.363 . S
C3690 C3691 1.370 . S
C3690 C3694 1.524 . S
C3691 C3683 1.503 . S
C3691 C3690 1.370 . S
C3691 C3692 1.403 . S
C3692 C3691 1.403 . S
C3692 C3693 1.404 . S
C3692 C3695 1.539 . S
C3693 C3689 1.408 . S
C3693 C3692 1.404 . S
C3693 H3705 0.930 . S
C3694 C3690 1.524 . S
C3694 H3706 0.956 . S
C3694 H3707 0.961 . S
C3694 H3708 0.961 . S
C3695 C3692 1.539 . S
C3695 H3709 0.958 . S
C3695 H3710 0.961 . S
C3695 H3711 0.960 . S
H3696 C3680 0.931 . S
H3697 C3685 0.929 . S
H3698 C3686 0.960 . S
H3699 C3686 0.962 . S
H3700 C3686 0.960 . S
H3701 C3687 0.961 . S
H3702 C3687 0.961 . S
H3703 C3687 0.961 . S
H3704 C3688 0.931 . S
H3705 C3693 0.930 . S
H3706 C3694 0.956 . S
H3707 C3694 0.961 . S
H3708 C3694 0.961 . S
H3709 C3695 0.958 . S
H3710 C3695 0.961 . S
H3711 C3695 0.960 . S
C3712 C3713 1.391 . S
C3712 C3714 1.394 . S
C3712 H3728 0.931 . S
C3713 C3712 1.391 . S
C3713 C3717 1.376 . S
C3714 C3712 1.394 . S
C3714 C3715 1.369 . S
C3714 C3718 1.531 . S
C3715 C3714 1.369 . S
C3715 C3716 1.410 . S
C3715 C3723 1.503 . S
C3716 C3715 1.410 . S
C3716 C3717 1.392 . S
C3716 C3719 1.511 . S
C3717 C3713 1.376 . S
C3717 C3716 1.392 . S
C3717 H3729 0.929 . S
C3718 C3714 1.531 . S
C3718 H3730 0.960 . S
C3718 H3731 0.962 . S
C3718 H3732 0.960 . S
C3719 C3716 1.511 . S
C3719 H3733 0.961 . S
C3719 H3734 0.961 . S
C3719 H3735 0.961 1_554 S
C3720 C3721 1.370 . S
C3720 C3722 1.363 . S
C3720 H3736 0.931 . S
C3721 C3720 1.370 . S
C3721 C3725 1.408 . S
C3722 C3720 1.363 . S
C3722 C3723 1.370 . S
C3722 C3726 1.524 . S
C3723 C3715 1.503 . S
C3723 C3722 1.370 . S
C3723 C3724 1.403 . S
C3724 C3723 1.403 . S
C3724 C3725 1.404 . S
C3724 C3727 1.539 . S
C3725 C3721 1.408 . S
C3725 C3724 1.404 . S
C3725 H3737 0.930 . S
C3726 C3722 1.524 . S
C3726 H3738 0.956 . S
C3726 H3739 0.961 . S
C3726 H3740 0.961 . S
C3727 C3724 1.539 . S
C3727 H3741 0.958 . S
C3727 H3742 0.961 . S
C3727 H3743 0.960 . S
H3728 C3712 0.931 . S
H3729 C3717 0.929 . S
H3730 C3718 0.960 . S
H3731 C3718 0.962 . S
H3732 C3718 0.960 . S
H3733 C3719 0.961 . S
H3734 C3719 0.961 . S
H3735 C3719 0.961 1_556 S
H3736 C3720 0.931 . S
H3737 C3725 0.930 . S
H3738 C3726 0.956 . S
H3739 C3726 0.961 . S
H3740 C3726 0.961 . S
H3741 C3727 0.958 . S
H3742 C3727 0.961 . S
H3743 C3727 0.960 . S
C3744 C3745 1.391 . S
C3744 C3746 1.394 . S
C3744 H3760 0.931 . S
C3745 C3744 1.391 . S
C3745 C3749 1.376 . S
C3746 C3744 1.394 . S
C3746 C3747 1.369 . S
C3746 C3750 1.531 . S
C3747 C3746 1.369 . S
C3747 C3748 1.410 . S
C3747 C3755 1.503 . S
C3748 C3747 1.410 . S
C3748 C3749 1.392 . S
C3748 C3751 1.511 . S
C3749 C3745 1.376 . S
C3749 C3748 1.392 . S
C3749 H3761 0.929 . S
C3750 C3746 1.531 . S
C3750 H3762 0.960 . S
C3750 H3763 0.962 . S
C3750 H3764 0.960 . S
C3751 C3748 1.511 . S
C3751 H3765 0.961 . S
C3751 H3766 0.961 . S
C3751 H3767 0.961 . S
C3752 C3753 1.370 . S
C3752 C3754 1.363 . S
C3752 H3768 0.931 . S
C3753 C3752 1.370 . S
C3753 C3757 1.408 . S
C3754 C3752 1.363 . S
C3754 C3755 1.370 . S
C3754 C3758 1.524 . S
C3755 C3747 1.503 . S
C3755 C3754 1.370 . S
C3755 C3756 1.403 . S
C3756 C3755 1.403 . S
C3756 C3757 1.404 . S
C3756 C3759 1.539 . S
C3757 C3753 1.408 . S
C3757 C3756 1.404 . S
C3757 H3769 0.930 . S
C3758 C3754 1.524 . S
C3758 H3770 0.956 . S
C3758 H3771 0.961 . S
C3758 H3772 0.961 . S
C3759 C3756 1.539 . S
C3759 H3773 0.958 . S
C3759 H3774 0.961 . S
C3759 H3775 0.960 . S
H3760 C3744 0.931 . S
H3761 C3749 0.929 . S
H3762 C3750 0.960 . S
H3763 C3750 0.962 . S
H3764 C3750 0.960 . S
H3765 C3751 0.961 . S
H3766 C3751 0.961 . S
H3767 C3751 0.961 . S
H3768 C3752 0.931 . S
H3769 C3757 0.930 . S
H3770 C3758 0.956 . S
H3771 C3758 0.961 . S
H3772 C3758 0.961 . S
H3773 C3759 0.958 . S
H3774 C3759 0.961 . S
H3775 C3759 0.960 . S
C3776 C3777 1.391 . S
C3776 C3778 1.394 . S
C3776 H3792 0.931 . S
C3777 C3776 1.391 . S
C3777 C3781 1.376 . S
C3778 C3776 1.394 . S
C3778 C3779 1.369 . S
C3778 C3782 1.531 . S
C3779 C3778 1.369 . S
C3779 C3780 1.410 . S
C3779 C3787 1.503 . S
C3780 C3779 1.410 . S
C3780 C3781 1.392 . S
C3780 C3783 1.511 . S
C3781 C3777 1.376 . S
C3781 C3780 1.392 . S
C3781 H3793 0.929 . S
C3782 C3778 1.531 . S
C3782 H3794 0.960 . S
C3782 H3795 0.962 . S
C3782 H3796 0.960 . S
C3783 C3780 1.511 . S
C3783 H3797 0.961 . S
C3783 H3798 0.961 . S
C3783 H3799 0.961 . S
C3784 C3785 1.370 . S
C3784 C3786 1.363 . S
C3784 H3800 0.931 . S
C3785 C3784 1.370 . S
C3785 C3789 1.408 . S
C3786 C3784 1.363 . S
C3786 C3787 1.370 . S
C3786 C3790 1.524 . S
C3787 C3779 1.503 . S
C3787 C3786 1.370 . S
C3787 C3788 1.403 . S
C3788 C3787 1.403 . S
C3788 C3789 1.404 . S
C3788 C3791 1.539 . S
C3789 C3785 1.408 . S
C3789 C3788 1.404 . S
C3789 H3801 0.930 . S
C3790 C3786 1.524 . S
C3790 H3802 0.956 . S
C3790 H3803 0.961 . S
C3790 H3804 0.961 . S
C3791 C3788 1.539 . S
C3791 H3805 0.958 . S
C3791 H3806 0.961 . S
C3791 H3807 0.960 . S
H3792 C3776 0.931 . S
H3793 C3781 0.929 . S
H3794 C3782 0.960 . S
H3795 C3782 0.962 . S
H3796 C3782 0.960 . S
H3797 C3783 0.961 . S
H3798 C3783 0.961 . S
H3799 C3783 0.961 . S
H3800 C3784 0.931 . S
H3801 C3789 0.930 . S
H3802 C3790 0.956 . S
H3803 C3790 0.961 . S
H3804 C3790 0.961 . S
H3805 C3791 0.958 . S
H3806 C3791 0.961 . S
H3807 C3791 0.960 . S
C3808 C3809 1.391 . S
C3808 C3810 1.394 . S
C3808 H3824 0.931 . S
C3809 C3808 1.391 . S
C3809 C3813 1.376 . S
C3810 C3808 1.394 . S
C3810 C3811 1.369 . S
C3810 C3814 1.531 . S
C3811 C3810 1.369 . S
C3811 C3812 1.410 . S
C3811 C3819 1.503 . S
C3812 C3811 1.410 . S
C3812 C3813 1.392 . S
C3812 C3815 1.511 . S
C3813 C3809 1.376 . S
C3813 C3812 1.392 . S
C3813 H3825 0.929 . S
C3814 C3810 1.531 . S
C3814 H3826 0.960 . S
C3814 H3827 0.962 . S
C3814 H3828 0.960 . S
C3815 C3812 1.511 . S
C3815 H3829 0.961 . S
C3815 H3830 0.961 . S
C3815 H3831 0.961 . S
C3816 C3817 1.370 . S
C3816 C3818 1.363 . S
C3816 H3832 0.931 . S
C3817 C3816 1.370 . S
C3817 C3821 1.408 . S
C3818 C3816 1.363 . S
C3818 C3819 1.370 . S
C3818 C3822 1.524 . S
C3819 C3811 1.503 . S
C3819 C3818 1.370 . S
C3819 C3820 1.403 . S
C3820 C3819 1.403 . S
C3820 C3821 1.404 . S
C3820 C3823 1.539 . S
C3821 C3817 1.408 . S
C3821 C3820 1.404 . S
C3821 H3833 0.930 . S
C3822 C3818 1.524 . S
C3822 H3834 0.956 . S
C3822 H3835 0.961 . S
C3822 H3836 0.961 . S
C3823 C3820 1.539 . S
C3823 H3837 0.958 . S
C3823 H3838 0.961 . S
C3823 H3839 0.960 . S
H3824 C3808 0.931 . S
H3825 C3813 0.929 . S
H3826 C3814 0.960 . S
H3827 C3814 0.962 . S
H3828 C3814 0.960 . S
H3829 C3815 0.961 . S
H3830 C3815 0.961 . S
H3831 C3815 0.961 . S
H3832 C3816 0.931 . S
H3833 C3821 0.930 . S
H3834 C3822 0.956 . S
H3835 C3822 0.961 . S
H3836 C3822 0.961 . S
H3837 C3823 0.958 . S
H3838 C3823 0.961 . S
H3839 C3823 0.960 . S
C3840 C3841 1.391 . S
C3840 C3842 1.394 . S
C3840 H3856 0.931 . S
C3841 C3840 1.391 . S
C3841 C3845 1.376 . S
C3842 C3840 1.394 . S
C3842 C3843 1.369 . S
C3842 C3846 1.531 . S
C3843 C3842 1.369 . S
C3843 C3844 1.410 . S
C3843 C3851 1.503 . S
C3844 C3843 1.410 . S
C3844 C3845 1.392 . S
C3844 C3847 1.511 . S
C3845 C3841 1.376 . S
C3845 C3844 1.392 . S
C3845 H3857 0.929 . S
C3846 C3842 1.531 . S
C3846 H3858 0.960 . S
C3846 H3859 0.962 . S
C3846 H3860 0.960 . S
C3847 C3844 1.511 . S
C3847 H3861 0.961 . S
C3847 H3862 0.961 . S
C3847 H3863 0.961 . S
C3848 C3849 1.370 . S
C3848 C3850 1.363 . S
C3848 H3864 0.931 . S
C3849 C3848 1.370 . S
C3849 C3853 1.408 . S
C3850 C3848 1.363 . S
C3850 C3851 1.370 . S
C3850 C3854 1.524 . S
C3851 C3843 1.503 . S
C3851 C3850 1.370 . S
C3851 C3852 1.403 . S
C3852 C3851 1.403 . S
C3852 C3853 1.404 . S
C3852 C3855 1.539 . S
C3853 C3849 1.408 . S
C3853 C3852 1.404 . S
C3853 H3865 0.930 . S
C3854 C3850 1.524 . S
C3854 H3866 0.956 . S
C3854 H3867 0.961 . S
C3854 H3868 0.961 . S
C3855 C3852 1.539 . S
C3855 H3869 0.958 . S
C3855 H3870 0.961 . S
C3855 H3871 0.960 . S
H3856 C3840 0.931 . S
H3857 C3845 0.929 . S
H3858 C3846 0.960 . S
H3859 C3846 0.962 . S
H3860 C3846 0.960 . S
H3861 C3847 0.961 . S
H3862 C3847 0.961 . S
H3863 C3847 0.961 . S
H3864 C3848 0.931 . S
H3865 C3853 0.930 . S
H3866 C3854 0.956 . S
H3867 C3854 0.961 . S
H3868 C3854 0.961 . S
H3869 C3855 0.958 . S
H3870 C3855 0.961 . S
H3871 C3855 0.960 . S
C3872 C3873 1.391 . S
C3872 C3874 1.394 . S
C3872 H3888 0.931 . S
C3873 C3872 1.391 . S
C3873 C3877 1.376 . S
C3874 C3872 1.394 . S
C3874 C3875 1.369 . S
C3874 C3878 1.531 . S
C3875 C3874 1.369 . S
C3875 C3876 1.410 . S
C3875 C3883 1.503 . S
C3876 C3875 1.410 . S
C3876 C3877 1.392 . S
C3876 C3879 1.511 . S
C3877 C3873 1.376 . S
C3877 C3876 1.392 . S
C3877 H3889 0.929 . S
C3878 C3874 1.531 . S
C3878 H3890 0.960 . S
C3878 H3891 0.962 . S
C3878 H3892 0.960 . S
C3879 C3876 1.511 . S
C3879 H3893 0.961 . S
C3879 H3894 0.961 . S
C3879 H3895 0.961 . S
C3880 C3881 1.370 . S
C3880 C3882 1.363 . S
C3880 H3896 0.931 . S
C3881 C3880 1.370 . S
C3881 C3885 1.408 . S
C3882 C3880 1.363 . S
C3882 C3883 1.370 . S
C3882 C3886 1.524 . S
C3883 C3875 1.503 . S
C3883 C3882 1.370 . S
C3883 C3884 1.403 . S
C3884 C3883 1.403 . S
C3884 C3885 1.404 . S
C3884 C3887 1.539 . S
C3885 C3881 1.408 . S
C3885 C3884 1.404 . S
C3885 H3897 0.930 . S
C3886 C3882 1.524 . S
C3886 H3898 0.956 . S
C3886 H3899 0.961 . S
C3886 H3900 0.961 . S
C3887 C3884 1.539 . S
C3887 H3901 0.958 . S
C3887 H3902 0.961 . S
C3887 H3903 0.960 . S
H3888 C3872 0.931 . S
H3889 C3877 0.929 . S
H3890 C3878 0.960 . S
H3891 C3878 0.962 . S
H3892 C3878 0.960 . S
H3893 C3879 0.961 . S
H3894 C3879 0.961 . S
H3895 C3879 0.961 . S
H3896 C3880 0.931 . S
H3897 C3885 0.930 . S
H3898 C3886 0.956 . S
H3899 C3886 0.961 . S
H3900 C3886 0.961 . S
H3901 C3887 0.958 . S
H3902 C3887 0.961 . S
H3903 C3887 0.960 . S
C3904 C3905 1.391 . S
C3904 C3906 1.394 . S
C3904 H3920 0.931 . S
C3905 C3904 1.391 . S
C3905 C3909 1.376 . S
C3906 C3904 1.394 . S
C3906 C3907 1.369 . S
C3906 C3910 1.531 . S
C3907 C3906 1.369 . S
C3907 C3908 1.410 . S
C3907 C3915 1.503 . S
C3908 C3907 1.410 . S
C3908 C3909 1.392 . S
C3908 C3911 1.511 . S
C3909 C3905 1.376 . S
C3909 C3908 1.392 . S
C3909 H3921 0.929 . S
C3910 C3906 1.531 . S
C3910 H3922 0.960 . S
C3910 H3923 0.962 . S
C3910 H3924 0.960 . S
C3911 C3908 1.511 . S
C3911 H3925 0.961 . S
C3911 H3926 0.961 . S
C3911 H3927 0.961 . S
C3912 C3913 1.370 . S
C3912 C3914 1.363 . S
C3912 H3928 0.931 . S
C3913 C3912 1.370 . S
C3913 C3917 1.408 . S
C3914 C3912 1.363 . S
C3914 C3915 1.370 . S
C3914 C3918 1.524 . S
C3915 C3907 1.503 . S
C3915 C3914 1.370 . S
C3915 C3916 1.403 . S
C3916 C3915 1.403 . S
C3916 C3917 1.404 . S
C3916 C3919 1.539 . S
C3917 C3913 1.408 . S
C3917 C3916 1.404 . S
C3917 H3929 0.930 . S
C3918 C3914 1.524 . S
C3918 H3930 0.956 . S
C3918 H3931 0.961 . S
C3918 H3932 0.961 . S
C3919 C3916 1.539 . S
C3919 H3933 0.958 . S
C3919 H3934 0.961 . S
C3919 H3935 0.960 . S
H3920 C3904 0.931 . S
H3921 C3909 0.929 . S
H3922 C3910 0.960 . S
H3923 C3910 0.962 . S
H3924 C3910 0.960 . S
H3925 C3911 0.961 . S
H3926 C3911 0.961 . S
H3927 C3911 0.961 . S
H3928 C3912 0.931 . S
H3929 C3917 0.930 . S
H3930 C3918 0.956 . S
H3931 C3918 0.961 . S
H3932 C3918 0.961 . S
H3933 C3919 0.958 . S
H3934 C3919 0.961 . S
H3935 C3919 0.960 . S
C3936 C3937 1.391 . S
C3936 C3938 1.394 . S
C3936 H3952 0.931 . S
C3937 C3936 1.391 . S
C3937 C3941 1.376 . S
C3938 C3936 1.394 . S
C3938 C3939 1.369 . S
C3938 C3942 1.531 . S
C3939 C3938 1.369 . S
C3939 C3940 1.410 . S
C3939 C3947 1.503 . S
C3940 C3939 1.410 . S
C3940 C3941 1.392 . S
C3940 C3943 1.511 . S
C3941 C3937 1.376 . S
C3941 C3940 1.392 . S
C3941 H3953 0.929 . S
C3942 C3938 1.531 . S
C3942 H3954 0.960 . S
C3942 H3955 0.962 . S
C3942 H3956 0.960 . S
C3943 C3940 1.511 . S
C3943 H3957 0.961 . S
C3943 H3958 0.961 . S
C3943 H3959 0.961 . S
C3944 C3945 1.370 . S
C3944 C3946 1.363 . S
C3944 H3960 0.931 . S
C3945 C3944 1.370 . S
C3945 C3949 1.408 . S
C3946 C3944 1.363 . S
C3946 C3947 1.370 . S
C3946 C3950 1.524 . S
C3947 C3939 1.503 . S
C3947 C3946 1.370 . S
C3947 C3948 1.403 . S
C3948 C3947 1.403 . S
C3948 C3949 1.404 . S
C3948 C3951 1.539 . S
C3949 C3945 1.408 . S
C3949 C3948 1.404 . S
C3949 H3961 0.930 1_556 S
C3950 C3946 1.524 . S
C3950 H3962 0.956 . S
C3950 H3963 0.961 . S
C3950 H3964 0.961 . S
C3951 C3948 1.539 . S
C3951 H3965 0.958 . S
C3951 H3966 0.961 . S
C3951 H3967 0.960 . S
H3952 C3936 0.931 . S
H3953 C3941 0.929 . S
H3954 C3942 0.960 . S
H3955 C3942 0.962 . S
H3956 C3942 0.960 . S
H3957 C3943 0.961 . S
H3958 C3943 0.961 . S
H3959 C3943 0.961 . S
H3960 C3944 0.931 . S
H3961 C3949 0.930 1_554 S
H3962 C3950 0.956 . S
H3963 C3950 0.961 . S
H3964 C3950 0.961 . S
H3965 C3951 0.958 . S
H3966 C3951 0.961 . S
H3967 C3951 0.960 . S
C3968 C3969 1.391 . S
C3968 C3970 1.394 . S
C3968 H3984 0.931 . S
C3969 C3968 1.391 . S
C3969 C3973 1.376 . S
C3970 C3968 1.394 . S
C3970 C3971 1.369 . S
C3970 C3974 1.531 . S
C3971 C3970 1.369 . S
C3971 C3972 1.410 . S
C3971 C3979 1.503 . S
C3972 C3971 1.410 . S
C3972 C3973 1.392 . S
C3972 C3975 1.511 . S
C3973 C3969 1.376 . S
C3973 C3972 1.392 . S
C3973 H3985 0.929 . S
C3974 C3970 1.531 . S
C3974 H3986 0.960 . S
C3974 H3987 0.962 . S
C3974 H3988 0.960 . S
C3975 C3972 1.511 . S
C3975 H3989 0.961 . S
C3975 H3990 0.961 . S
C3975 H3991 0.961 . S
C3976 C3977 1.370 . S
C3976 C3978 1.363 . S
C3976 H3992 0.931 . S
C3977 C3976 1.370 . S
C3977 C3981 1.408 . S
C3978 C3976 1.363 . S
C3978 C3979 1.370 . S
C3978 C3982 1.524 . S
C3979 C3971 1.503 . S
C3979 C3978 1.370 . S
C3979 C3980 1.403 . S
C3980 C3979 1.403 . S
C3980 C3981 1.404 . S
C3980 C3983 1.539 . S
C3981 C3977 1.408 . S
C3981 C3980 1.404 . S
C3981 H3993 0.930 . S
C3982 C3978 1.524 . S
C3982 H3994 0.956 . S
C3982 H3995 0.961 . S
C3982 H3996 0.961 . S
C3983 C3980 1.539 . S
C3983 H3997 0.958 . S
C3983 H3998 0.961 . S
C3983 H3999 0.960 . S
H3984 C3968 0.931 . S
H3985 C3973 0.929 . S
H3986 C3974 0.960 . S
H3987 C3974 0.962 . S
H3988 C3974 0.960 . S
H3989 C3975 0.961 . S
H3990 C3975 0.961 . S
H3991 C3975 0.961 . S
H3992 C3976 0.931 . S
H3993 C3981 0.930 . S
H3994 C3982 0.956 . S
H3995 C3982 0.961 . S
H3996 C3982 0.961 . S
H3997 C3983 0.958 . S
H3998 C3983 0.961 . S
H3999 C3983 0.960 . S
C4000 C4001 1.391 . S
C4000 C4002 1.394 . S
C4000 H4016 0.931 . S
C4001 C4000 1.391 . S
C4001 C4005 1.376 . S
C4002 C4000 1.394 . S
C4002 C4003 1.369 . S
C4002 C4006 1.531 . S
C4003 C4002 1.369 . S
C4003 C4004 1.410 . S
C4003 C4011 1.503 . S
C4004 C4003 1.410 . S
C4004 C4005 1.392 . S
C4004 C4007 1.511 . S
C4005 C4001 1.376 . S
C4005 C4004 1.392 . S
C4005 H4017 0.929 . S
C4006 C4002 1.531 . S
C4006 H4018 0.960 . S
C4006 H4019 0.962 . S
C4006 H4020 0.960 . S
C4007 C4004 1.511 . S
C4007 H4021 0.961 . S
C4007 H4022 0.961 . S
C4007 H4023 0.950 1_455 S
C4008 C4009 1.370 . S
C4008 C4010 1.363 . S
C4008 H4024 0.931 . S
C4009 C4008 1.370 . S
C4009 C4013 1.408 . S
C4010 C4008 1.363 . S
C4010 C4011 1.370 . S
C4010 C4014 1.524 . S
C4011 C4003 1.503 . S
C4011 C4010 1.370 . S
C4011 C4012 1.403 . S
C4012 C4011 1.403 . S
C4012 C4013 1.404 . S
C4012 C4015 1.539 . S
C4013 C4009 1.408 . S
C4013 C4012 1.404 . S
C4013 H4025 0.930 . S
C4014 C4010 1.524 . S
C4014 H4026 0.956 . S
C4014 H4027 0.961 . S
C4014 H4028 0.961 . S
C4015 C4012 1.539 . S
C4015 H4029 0.958 . S
C4015 H4030 0.961 . S
C4015 H4031 0.960 . S
H4016 C4000 0.931 . S
H4017 C4005 0.929 . S
H4018 C4006 0.960 . S
H4019 C4006 0.962 . S
H4020 C4006 0.960 . S
H4021 C4007 0.961 . S
H4022 C4007 0.961 . S
H4023 C4007 0.950 1_655 S
H4024 C4008 0.931 . S
H4025 C4013 0.930 . S
H4026 C4014 0.956 . S
H4027 C4014 0.961 . S
H4028 C4014 0.961 . S
H4029 C4015 0.958 . S
H4030 C4015 0.961 . S
H4031 C4015 0.960 . S
C4032 C4033 1.391 . S
C4032 C4034 1.394 . S
C4032 H4048 0.931 . S
C4033 C4032 1.391 . S
C4033 C4037 1.376 . S
C4034 C4032 1.394 . S
C4034 C4035 1.369 . S
C4034 C4038 1.531 . S
C4035 C4034 1.369 . S
C4035 C4036 1.410 . S
C4035 C4043 1.503 . S
C4036 C4035 1.410 . S
C4036 C4037 1.392 . S
C4036 C4039 1.511 . S
C4037 C4033 1.376 . S
C4037 C4036 1.392 . S
C4037 H4049 0.929 . S
C4038 C4034 1.531 . S
C4038 H4050 0.960 . S
C4038 H4051 0.962 . S
C4038 H4052 0.960 . S
C4039 C4036 1.511 . S
C4039 H4053 0.961 . S
C4039 H4054 0.961 . S
C4039 H4055 0.961 . S
C4040 C4041 1.370 . S
C4040 C4042 1.363 . S
C4040 H4056 0.931 . S
C4041 C4040 1.370 . S
C4041 C4045 1.408 . S
C4042 C4040 1.363 . S
C4042 C4043 1.370 . S
C4042 C4046 1.524 . S
C4043 C4035 1.503 . S
C4043 C4042 1.370 . S
C4043 C4044 1.403 . S
C4044 C4043 1.403 . S
C4044 C4045 1.404 . S
C4044 C4047 1.539 . S
C4045 C4041 1.408 . S
C4045 C4044 1.404 . S
C4045 H4057 0.930 . S
C4046 C4042 1.524 . S
C4046 H4058 0.956 . S
C4046 H4059 0.961 . S
C4046 H4060 0.961 . S
C4047 C4044 1.539 . S
C4047 H4061 0.958 . S
C4047 H4062 0.961 . S
C4047 H4063 0.960 . S
H4048 C4032 0.931 . S
H4049 C4037 0.929 . S
H4050 C4038 0.960 . S
H4051 C4038 0.962 . S
H4052 C4038 0.960 . S
H4053 C4039 0.961 . S
H4054 C4039 0.961 . S
H4055 C4039 0.961 . S
H4056 C4040 0.931 . S
H4057 C4045 0.930 . S
H4058 C4046 0.956 . S
H4059 C4046 0.961 . S
H4060 C4046 0.961 . S
H4061 C4047 0.958 . S
H4062 C4047 0.961 . S
H4063 C4047 0.960 . S
C4064 C4065 1.391 . S
C4064 C4066 1.394 . S
C4064 H4080 0.931 . S
C4065 C4064 1.391 . S
C4065 C4069 1.376 . S
C4066 C4064 1.394 . S
C4066 C4067 1.369 . S
C4066 C4070 1.531 . S
C4067 C4066 1.369 . S
C4067 C4068 1.410 . S
C4067 C4075 1.503 . S
C4068 C4067 1.410 . S
C4068 C4069 1.392 . S
C4068 C4071 1.511 . S
C4069 C4065 1.376 . S
C4069 C4068 1.392 . S
C4069 H4081 0.929 . S
C4070 C4066 1.531 . S
C4070 H4082 0.960 . S
C4070 H4083 0.962 . S
C4070 H4084 0.960 . S
C4071 C4068 1.511 . S
C4071 H4085 0.961 . S
C4071 H4086 0.961 . S
C4071 H4087 0.961 . S
C4072 C4073 1.370 . S
C4072 C4074 1.363 . S
C4072 H4088 0.931 . S
C4073 C4072 1.370 . S
C4073 C4077 1.408 . S
C4074 C4072 1.363 . S
C4074 C4075 1.370 . S
C4074 C4078 1.524 . S
C4075 C4067 1.503 . S
C4075 C4074 1.370 . S
C4075 C4076 1.403 . S
C4076 C4075 1.403 . S
C4076 C4077 1.404 . S
C4076 C4079 1.539 . S
C4077 C4073 1.408 . S
C4077 C4076 1.404 . S
C4077 H4089 0.930 . S
C4078 C4074 1.524 . S
C4078 H4090 0.956 . S
C4078 H4091 0.961 . S
C4078 H4092 0.961 . S
C4079 C4076 1.539 . S
C4079 H4093 0.958 . S
C4079 H4094 0.961 . S
C4079 H4095 0.960 . S
H4080 C4064 0.931 . S
H4081 C4069 0.929 . S
H4082 C4070 0.960 . S
H4083 C4070 0.962 . S
H4084 C4070 0.960 . S
H4085 C4071 0.961 . S
H4086 C4071 0.961 . S
H4087 C4071 0.961 . S
H4088 C4072 0.931 . S
H4089 C4077 0.930 . S
H4090 C4078 0.956 . S
H4091 C4078 0.961 . S
H4092 C4078 0.961 . S
H4093 C4079 0.958 . S
H4094 C4079 0.961 . S
H4095 C4079 0.960 . S
C4096 C4097 1.391 . S
C4096 C4098 1.394 . S
C4096 H4112 0.931 . S
C4097 C4096 1.391 . S
C4097 C4101 1.376 . S
C4098 C4096 1.394 . S
C4098 C4099 1.369 . S
C4098 C4102 1.531 . S
C4099 C4098 1.369 . S
C4099 C4100 1.410 . S
C4099 C4107 1.503 . S
C4100 C4099 1.410 . S
C4100 C4101 1.392 . S
C4100 C4103 1.511 . S
C4101 C4097 1.376 . S
C4101 C4100 1.392 . S
C4101 H4113 0.929 . S
C4102 C4098 1.531 . S
C4102 H4114 0.960 . S
C4102 H4115 0.962 . S
C4102 H4116 0.960 . S
C4103 C4100 1.511 . S
C4103 H4117 0.961 . S
C4103 H4118 0.961 . S
C4103 H4119 0.961 . S
C4104 C4105 1.370 . S
C4104 C4106 1.363 . S
C4104 H4120 0.931 . S
C4105 C4104 1.370 . S
C4105 C4109 1.408 . S
C4106 C4104 1.363 . S
C4106 C4107 1.370 . S
C4106 C4110 1.524 . S
C4107 C4099 1.503 . S
C4107 C4106 1.370 . S
C4107 C4108 1.403 . S
C4108 C4107 1.403 . S
C4108 C4109 1.404 . S
C4108 C4111 1.539 . S
C4109 C4105 1.408 . S
C4109 C4108 1.404 . S
C4109 H4121 0.930 . S
C4110 C4106 1.524 . S
C4110 H4122 0.956 . S
C4110 H4123 0.961 . S
C4110 H4124 0.961 . S
C4111 C4108 1.539 . S
C4111 H4125 0.958 . S
C4111 H4126 0.961 . S
C4111 H4127 0.960 . S
H4112 C4096 0.931 . S
H4113 C4101 0.929 . S
H4114 C4102 0.960 . S
H4115 C4102 0.962 . S
H4116 C4102 0.960 . S
H4117 C4103 0.961 . S
H4118 C4103 0.961 . S
H4119 C4103 0.961 . S
H4120 C4104 0.931 . S
H4121 C4109 0.930 . S
H4122 C4110 0.956 . S
H4123 C4110 0.961 . S
H4124 C4110 0.961 . S
H4125 C4111 0.958 . S
H4126 C4111 0.961 . S
H4127 C4111 0.960 . S
C4128 C4129 1.391 . S
C4128 C4130 1.394 1_655 S
C4128 H4144 0.931 . S
C4129 C4128 1.391 . S
C4129 C4133 1.376 . S
C4130 C4128 1.394 1_455 S
C4130 C4131 1.369 1_455 S
C4130 C4134 1.531 . S
C4131 C4130 1.369 1_655 S
C4131 C4132 1.410 . S
C4131 C4139 1.503 1_655 S
C4132 C4131 1.410 . S
C4132 C4133 1.392 . S
C4132 C4135 1.511 . S
C4133 C4129 1.376 . S
C4133 C4132 1.392 . S
C4133 H4145 0.929 . S
C4134 C4130 1.531 . S
C4134 H4146 0.960 . S
C4134 H4147 0.962 . S
C4134 H4148 0.960 . S
C4135 C4132 1.511 . S
C4135 H4149 0.961 . S
C4135 H4150 0.961 . S
C4135 H4151 0.961 . S
C4136 C4137 1.370 . S
C4136 C4138 1.363 . S
C4136 H4152 0.931 . S
C4137 C4136 1.370 . S
C4137 C4141 1.408 . S
C4138 C4136 1.363 . S
C4138 C4139 1.370 . S
C4138 C4142 1.524 . S
C4139 C4131 1.503 1_455 S
C4139 C4138 1.370 . S
C4139 C4140 1.403 . S
C4140 C4139 1.403 . S
C4140 C4141 1.404 . S
C4140 C4143 1.539 . S
C4141 C4137 1.408 . S
C4141 C4140 1.404 . S
C4141 H4153 0.930 . S
C4142 C4138 1.524 . S
C4142 H4154 0.984 . S
C4142 H4155 0.912 1_455 S
C4142 H4156 0.985 . S
C4143 C4140 1.539 . S
C4143 H4157 0.958 . S
C4143 H4158 0.961 . S
C4143 H4159 0.960 1_455 S
H4144 C4128 0.931 . S
H4145 C4133 0.929 . S
H4146 C4134 0.960 . S
H4147 C4134 0.962 . S
H4148 C4134 0.960 . S
H4149 C4135 0.961 . S
H4150 C4135 0.961 . S
H4151 C4135 0.961 . S
H4152 C4136 0.931 . S
H4153 C4141 0.930 . S
H4154 C4142 0.984 . S
H4155 C4142 0.912 1_655 S
H4156 C4142 0.985 . S
H4157 C4143 0.958 . S
H4158 C4143 0.961 . S
H4159 C4143 0.960 1_655 S
C4160 C4161 1.391 . S
C4160 C4162 1.394 . S
C4160 H4176 0.931 . S
C4161 C4160 1.391 . S
C4161 C4165 1.376 . S
C4162 C4160 1.394 . S
C4162 C4163 1.369 . S
C4162 C4166 1.531 . S
C4163 C4162 1.369 . S
C4163 C4164 1.410 . S
C4163 C4171 1.503 . S
C4164 C4163 1.410 . S
C4164 C4165 1.392 . S
C4164 C4167 1.511 . S
C4165 C4161 1.376 . S
C4165 C4164 1.392 . S
C4165 H4177 0.929 . S
C4166 C4162 1.531 . S
C4166 H4178 0.960 . S
C4166 H4179 0.962 . S
C4166 H4180 0.960 . S
C4167 C4164 1.511 . S
C4167 H4181 0.961 . S
C4167 H4182 0.961 . S
C4167 H4183 0.961 . S
C4168 C4169 1.370 . S
C4168 C4170 1.363 . S
C4168 H4184 0.931 . S
C4169 C4168 1.370 . S
C4169 C4173 1.408 . S
C4170 C4168 1.363 . S
C4170 C4171 1.370 . S
C4170 C4174 1.524 . S
C4171 C4163 1.503 . S
C4171 C4170 1.370 . S
C4171 C4172 1.403 . S
C4172 C4171 1.403 . S
C4172 C4173 1.404 . S
C4172 C4175 1.539 . S
C4173 C4169 1.408 . S
C4173 C4172 1.404 . S
C4173 H4185 0.930 . S
C4174 C4170 1.524 . S
C4174 H4186 0.956 . S
C4174 H4187 0.961 . S
C4174 H4188 0.961 . S
C4175 C4172 1.539 . S
C4175 H4189 0.958 . S
C4175 H4190 0.961 . S
C4175 H4191 0.960 . S
H4176 C4160 0.931 . S
H4177 C4165 0.929 . S
H4178 C4166 0.960 . S
H4179 C4166 0.962 . S
H4180 C4166 0.960 . S
H4181 C4167 0.961 . S
H4182 C4167 0.961 . S
H4183 C4167 0.961 . S
H4184 C4168 0.931 . S
H4185 C4173 0.930 . S
H4186 C4174 0.956 . S
H4187 C4174 0.961 . S
H4188 C4174 0.961 . S
H4189 C4175 0.958 . S
H4190 C4175 0.961 . S
H4191 C4175 0.960 . S
C4192 C4193 1.391 . S
C4192 C4194 1.394 . S
C4192 H4208 0.931 . S
C4193 C4192 1.391 . S
C4193 C4197 1.376 . S
C4194 C4192 1.394 . S
C4194 C4195 1.369 . S
C4194 C4198 1.531 . S
C4195 C4194 1.369 . S
C4195 C4196 1.410 . S
C4195 C4203 1.503 . S
C4196 C4195 1.410 . S
C4196 C4197 1.392 . S
C4196 C4199 1.511 . S
C4197 C4193 1.376 . S
C4197 C4196 1.392 . S
C4197 H4209 0.929 . S
C4198 C4194 1.531 . S
C4198 H4210 0.960 . S
C4198 H4211 0.962 . S
C4198 H4212 0.960 . S
C4199 C4196 1.511 . S
C4199 H4213 0.961 . S
C4199 H4214 0.961 . S
C4199 H4215 0.961 . S
C4200 C4201 1.370 . S
C4200 C4202 1.363 . S
C4200 H4216 0.931 . S
C4201 C4200 1.370 . S
C4201 C4205 1.408 . S
C4202 C4200 1.363 . S
C4202 C4203 1.370 . S
C4202 C4206 1.524 . S
C4203 C4195 1.503 . S
C4203 C4202 1.370 . S
C4203 C4204 1.403 . S
C4204 C4203 1.403 . S
C4204 C4205 1.404 . S
C4204 C4207 1.539 . S
C4205 C4201 1.408 . S
C4205 C4204 1.404 . S
C4205 H4217 0.930 . S
C4206 C4202 1.524 . S
C4206 H4218 0.956 . S
C4206 H4219 0.961 . S
C4206 H4220 0.961 . S
C4207 C4204 1.539 . S
C4207 H4221 0.958 . S
C4207 H4222 0.961 . S
C4207 H4223 0.960 . S
H4208 C4192 0.931 . S
H4209 C4197 0.929 . S
H4210 C4198 0.960 . S
H4211 C4198 0.962 . S
H4212 C4198 0.960 . S
H4213 C4199 0.961 . S
H4214 C4199 0.961 . S
H4215 C4199 0.961 . S
H4216 C4200 0.931 . S
H4217 C4205 0.930 . S
H4218 C4206 0.956 . S
H4219 C4206 0.961 . S
H4220 C4206 0.961 . S
H4221 C4207 0.958 . S
H4222 C4207 0.961 . S
H4223 C4207 0.960 . S
C4224 C4225 1.391 . S
C4224 C4226 1.394 . S
C4224 H4240 0.931 . S
C4225 C4224 1.391 . S
C4225 C4229 1.376 . S
C4226 C4224 1.394 . S
C4226 C4227 1.369 . S
C4226 C4230 1.531 . S
C4227 C4226 1.369 . S
C4227 C4228 1.410 . S
C4227 C4235 1.503 . S
C4228 C4227 1.410 . S
C4228 C4229 1.392 . S
C4228 C4231 1.511 . S
C4229 C4225 1.376 . S
C4229 C4228 1.392 . S
C4229 H4241 0.929 . S
C4230 C4226 1.531 . S
C4230 H4242 0.960 . S
C4230 H4243 0.962 . S
C4230 H4244 0.960 . S
C4231 C4228 1.511 . S
C4231 H4245 0.961 . S
C4231 H4246 0.961 . S
C4231 H4247 0.961 . S
C4232 C4233 1.370 . S
C4232 C4234 1.363 . S
C4232 H4248 0.931 . S
C4233 C4232 1.370 . S
C4233 C4237 1.408 . S
C4234 C4232 1.363 . S
C4234 C4235 1.370 . S
C4234 C4238 1.524 . S
C4235 C4227 1.503 . S
C4235 C4234 1.370 . S
C4235 C4236 1.403 . S
C4236 C4235 1.403 . S
C4236 C4237 1.404 . S
C4236 C4239 1.539 . S
C4237 C4233 1.408 . S
C4237 C4236 1.404 . S
C4237 H4249 0.930 . S
C4238 C4234 1.524 . S
C4238 H4250 0.956 . S
C4238 H4251 0.961 . S
C4238 H4252 0.961 . S
C4239 C4236 1.539 . S
C4239 H4253 0.958 . S
C4239 H4254 0.961 . S
C4239 H4255 0.960 . S
H4240 C4224 0.931 . S
H4241 C4229 0.929 . S
H4242 C4230 0.960 . S
H4243 C4230 0.962 . S
H4244 C4230 0.960 . S
H4245 C4231 0.961 . S
H4246 C4231 0.961 . S
H4247 C4231 0.961 . S
H4248 C4232 0.931 . S
H4249 C4237 0.930 . S
H4250 C4238 0.956 . S
H4251 C4238 0.961 . S
H4252 C4238 0.961 . S
H4253 C4239 0.958 . S
H4254 C4239 0.961 . S
H4255 C4239 0.960 . S
C4256 C4257 1.391 . S
C4256 C4258 1.394 . S
C4256 H4272 0.931 . S
C4257 C4256 1.391 . S
C4257 C4261 1.376 . S
C4258 C4256 1.394 . S
C4258 C4259 1.369 . S
C4258 C4262 1.531 1_655 S
C4259 C4258 1.369 . S
C4259 C4260 1.410 . S
C4259 C4267 1.503 . S
C4260 C4259 1.410 . S
C4260 C4261 1.392 . S
C4260 C4263 1.511 . S
C4261 C4257 1.376 . S
C4261 C4260 1.392 . S
C4261 H4273 0.929 . S
C4262 C4258 1.531 1_455 S
C4262 H4274 0.959 . S
C4262 H4275 0.962 . S
C4262 H4276 0.965 1_455 S
C4263 C4260 1.511 . S
C4263 H4277 0.961 . S
C4263 H4278 0.961 . S
C4263 H4279 0.961 . S
C4264 C4265 1.370 . S
C4264 C4266 1.363 . S
C4264 H4280 0.931 . S
C4265 C4264 1.370 . S
C4265 C4269 1.408 1_455 S
C4266 C4264 1.363 . S
C4266 C4267 1.370 1_455 S
C4266 C4270 1.524 . S
C4267 C4259 1.503 . S
C4267 C4266 1.370 1_655 S
C4267 C4268 1.403 . S
C4268 C4267 1.403 . S
C4268 C4269 1.404 . S
C4268 C4271 1.539 . S
C4269 C4265 1.408 1_655 S
C4269 C4268 1.404 . S
C4269 H4281 0.930 . S
C4270 C4266 1.524 . S
C4270 H4282 0.956 . S
C4270 H4283 0.987 . S
C4270 H4284 0.961 . S
C4271 C4268 1.539 . S
C4271 H4285 0.958 . S
C4271 H4286 0.961 . S
C4271 H4287 0.960 . S
H4272 C4256 0.931 . S
H4273 C4261 0.929 . S
H4274 C4262 0.959 . S
H4275 C4262 0.962 . S
H4276 C4262 0.965 1_655 S
H4277 C4263 0.961 . S
H4278 C4263 0.961 . S
H4279 C4263 0.961 . S
H4280 C4264 0.931 . S
H4281 C4269 0.930 . S
H4282 C4270 0.956 . S
H4283 C4270 0.987 . S
H4284 C4270 0.961 . S
H4285 C4271 0.958 . S
H4286 C4271 0.961 . S
H4287 C4271 0.960 . S
C4288 C4289 1.391 . S
C4288 C4290 1.394 . S
C4288 H4304 0.931 . S
C4289 C4288 1.391 . S
C4289 C4293 1.376 . S
C4290 C4288 1.394 . S
C4290 C4291 1.369 . S
C4290 C4294 1.531 . S
C4291 C4290 1.369 . S
C4291 C4292 1.410 . S
C4291 C4299 1.503 . S
C4292 C4291 1.410 . S
C4292 C4293 1.392 . S
C4292 C4295 1.511 . S
C4293 C4289 1.376 . S
C4293 C4292 1.392 . S
C4293 H4305 0.929 . S
C4294 C4290 1.531 . S
C4294 H4306 0.960 . S
C4294 H4307 0.962 . S
C4294 H4308 0.960 . S
C4295 C4292 1.511 . S
C4295 H4309 0.961 . S
C4295 H4310 0.961 . S
C4295 H4311 0.961 . S
C4296 C4297 1.370 . S
C4296 C4298 1.363 . S
C4296 H4312 0.931 . S
C4297 C4296 1.370 . S
C4297 C4301 1.408 . S
C4298 C4296 1.363 . S
C4298 C4299 1.370 . S
C4298 C4302 1.524 . S
C4299 C4291 1.503 . S
C4299 C4298 1.370 . S
C4299 C4300 1.403 . S
C4300 C4299 1.403 . S
C4300 C4301 1.404 . S
C4300 C4303 1.539 . S
C4301 C4297 1.408 . S
C4301 C4300 1.404 . S
C4301 H4313 0.930 . S
C4302 C4298 1.524 . S
C4302 H4314 0.956 . S
C4302 H4315 0.961 . S
C4302 H4316 0.961 . S
C4303 C4300 1.539 . S
C4303 H4317 0.958 . S
C4303 H4318 0.961 . S
C4303 H4319 0.960 . S
H4304 C4288 0.931 . S
H4305 C4293 0.929 . S
H4306 C4294 0.960 . S
H4307 C4294 0.962 . S
H4308 C4294 0.960 . S
H4309 C4295 0.961 . S
H4310 C4295 0.961 . S
H4311 C4295 0.961 . S
H4312 C4296 0.931 . S
H4313 C4301 0.930 . S
H4314 C4302 0.956 . S
H4315 C4302 0.961 . S
H4316 C4302 0.961 . S
H4317 C4303 0.958 . S
H4318 C4303 0.961 . S
H4319 C4303 0.960 . S
C4320 C4321 1.391 . S
C4320 C4322 1.394 . S
C4320 H4336 0.931 . S
C4321 C4320 1.391 . S
C4321 C4325 1.376 . S
C4322 C4320 1.394 . S
C4322 C4323 1.369 . S
C4322 C4326 1.531 . S
C4323 C4322 1.369 . S
C4323 C4324 1.410 . S
C4323 C4331 1.503 . S
C4324 C4323 1.410 . S
C4324 C4325 1.392 . S
C4324 C4327 1.511 . S
C4325 C4321 1.376 . S
C4325 C4324 1.392 . S
C4325 H4337 0.929 . S
C4326 C4322 1.531 . S
C4326 H4338 0.960 . S
C4326 H4339 0.962 . S
C4326 H4340 0.960 . S
C4327 C4324 1.511 . S
C4327 H4341 0.961 . S
C4327 H4342 0.961 . S
C4327 H4343 0.961 . S
C4328 C4329 1.370 . S
C4328 C4330 1.363 . S
C4328 H4344 0.931 . S
C4329 C4328 1.370 . S
C4329 C4333 1.408 . S
C4330 C4328 1.363 . S
C4330 C4331 1.370 . S
C4330 C4334 1.524 . S
C4331 C4323 1.503 . S
C4331 C4330 1.370 . S
C4331 C4332 1.403 . S
C4332 C4331 1.403 . S
C4332 C4333 1.404 . S
C4332 C4335 1.539 . S
C4333 C4329 1.408 . S
C4333 C4332 1.404 . S
C4333 H4345 0.930 . S
C4334 C4330 1.524 . S
C4334 H4346 0.956 . S
C4334 H4347 0.961 . S
C4334 H4348 0.961 . S
C4335 C4332 1.539 . S
C4335 H4349 0.958 . S
C4335 H4350 0.961 . S
C4335 H4351 0.960 . S
H4336 C4320 0.931 . S
H4337 C4325 0.929 . S
H4338 C4326 0.960 . S
H4339 C4326 0.962 . S
H4340 C4326 0.960 . S
H4341 C4327 0.961 . S
H4342 C4327 0.961 . S
H4343 C4327 0.961 . S
H4344 C4328 0.931 . S
H4345 C4333 0.930 . S
H4346 C4334 0.956 . S
H4347 C4334 0.961 . S
H4348 C4334 0.961 . S
H4349 C4335 0.958 . S
H4350 C4335 0.961 . S
H4351 C4335 0.960 . S
C4352 C4353 1.391 . S
C4352 C4354 1.394 . S
C4352 H4368 0.931 . S
C4353 C4352 1.391 . S
C4353 C4357 1.376 . S
C4354 C4352 1.394 . S
C4354 C4355 1.369 . S
C4354 C4358 1.531 . S
C4355 C4354 1.369 . S
C4355 C4356 1.410 . S
C4355 C4363 1.503 . S
C4356 C4355 1.410 . S
C4356 C4357 1.392 . S
C4356 C4359 1.511 . S
C4357 C4353 1.376 . S
C4357 C4356 1.392 . S
C4357 H4369 0.929 . S
C4358 C4354 1.531 . S
C4358 H4370 0.960 . S
C4358 H4371 0.962 . S
C4358 H4372 0.960 . S
C4359 C4356 1.511 . S
C4359 H4373 0.961 . S
C4359 H4374 0.961 . S
C4359 H4375 0.961 . S
C4360 C4361 1.395 . S
C4360 C4362 1.363 . S
C4360 H4376 0.931 . S
C4361 C4360 1.395 . S
C4361 C4365 1.393 1_565 S
C4362 C4360 1.363 . S
C4362 C4363 1.370 . S
C4362 C4366 1.524 . S
C4363 C4355 1.503 . S
C4363 C4362 1.370 . S
C4363 C4364 1.403 . S
C4364 C4363 1.403 . S
C4364 C4365 1.404 1_565 S
C4364 C4367 1.530 1_565 S
C4365 C4361 1.393 1_545 S
C4365 C4364 1.404 1_545 S
C4365 H4377 0.930 . S
C4366 C4362 1.524 . S
C4366 H4378 0.956 . S
C4366 H4379 0.961 . S
C4366 H4380 0.961 . S
C4367 C4364 1.530 1_545 S
C4367 H4381 0.972 . S
C4367 H4382 0.969 . S
C4367 H4383 0.947 1_545 S
H4368 C4352 0.931 . S
H4369 C4357 0.929 . S
H4370 C4358 0.960 . S
H4371 C4358 0.962 . S
H4372 C4358 0.960 . S
H4373 C4359 0.961 . S
H4374 C4359 0.961 . S
H4375 C4359 0.961 . S
H4376 C4360 0.931 . S
H4377 C4365 0.930 . S
H4378 C4366 0.956 . S
H4379 C4366 0.961 . S
H4380 C4366 0.961 . S
H4381 C4367 0.972 . S
H4382 C4367 0.969 . S
H4383 C4367 0.947 1_565 S
C4384 C4385 1.391 . S
C4384 C4386 1.394 . S
C4384 H4400 0.931 . S
C4385 C4384 1.391 . S
C4385 C4389 1.376 . S
C4386 C4384 1.394 . S
C4386 C4387 1.369 . S
C4386 C4390 1.531 . S
C4387 C4386 1.369 . S
C4387 C4388 1.410 . S
C4387 C4395 1.503 . S
C4388 C4387 1.410 . S
C4388 C4389 1.392 . S
C4388 C4391 1.511 . S
C4389 C4385 1.376 . S
C4389 C4388 1.392 . S
C4389 H4401 0.929 . S
C4390 C4386 1.531 . S
C4390 H4402 0.960 . S
C4390 H4403 0.962 . S
C4390 H4404 0.960 . S
C4391 C4388 1.511 . S
C4391 H4405 0.961 . S
C4391 H4406 0.961 . S
C4391 H4407 0.961 . S
C4392 C4393 1.370 . S
C4392 C4394 1.363 . S
C4392 H4408 0.931 . S
C4393 C4392 1.370 . S
C4393 C4397 1.408 . S
C4394 C4392 1.363 . S
C4394 C4395 1.370 . S
C4394 C4398 1.524 . S
C4395 C4387 1.503 . S
C4395 C4394 1.370 . S
C4395 C4396 1.403 . S
C4396 C4395 1.403 . S
C4396 C4397 1.404 . S
C4396 C4399 1.539 . S
C4397 C4393 1.408 . S
C4397 C4396 1.404 . S
C4397 H4409 0.930 . S
C4398 C4394 1.524 . S
C4398 H4410 0.956 . S
C4398 H4411 0.961 . S
C4398 H4412 0.961 . S
C4399 C4396 1.539 . S
C4399 H4413 0.958 . S
C4399 H4414 0.961 . S
C4399 H4415 0.960 . S
H4400 C4384 0.931 . S
H4401 C4389 0.929 . S
H4402 C4390 0.960 . S
H4403 C4390 0.962 . S
H4404 C4390 0.960 . S
H4405 C4391 0.961 . S
H4406 C4391 0.961 . S
H4407 C4391 0.961 . S
H4408 C4392 0.931 . S
H4409 C4397 0.930 . S
H4410 C4398 0.956 . S
H4411 C4398 0.961 . S
H4412 C4398 0.961 . S
H4413 C4399 0.958 . S
H4414 C4399 0.961 . S
H4415 C4399 0.960 . S
C4416 C4417 1.391 . S
C4416 C4418 1.394 . S
C4416 H4432 0.931 . S
C4417 C4416 1.391 . S
C4417 C4421 1.376 . S
C4418 C4416 1.394 . S
C4418 C4419 1.369 . S
C4418 C4422 1.531 . S
C4419 C4418 1.369 . S
C4419 C4420 1.410 . S
C4419 C4427 1.503 . S
C4420 C4419 1.410 . S
C4420 C4421 1.392 . S
C4420 C4423 1.511 . S
C4421 C4417 1.376 . S
C4421 C4420 1.392 . S
C4421 H4433 0.929 . S
C4422 C4418 1.531 . S
C4422 H4434 0.960 . S
C4422 H4435 0.962 . S
C4422 H4436 0.960 . S
C4423 C4420 1.511 . S
C4423 H4437 0.961 . S
C4423 H4438 0.961 . S
C4423 H4439 0.961 . S
C4424 C4425 1.370 . S
C4424 C4426 1.363 . S
C4424 H4440 0.931 . S
C4425 C4424 1.370 . S
C4425 C4429 1.408 . S
C4426 C4424 1.363 . S
C4426 C4427 1.370 . S
C4426 C4430 1.524 . S
C4427 C4419 1.503 . S
C4427 C4426 1.370 . S
C4427 C4428 1.403 . S
C4428 C4427 1.403 . S
C4428 C4429 1.404 . S
C4428 C4431 1.539 . S
C4429 C4425 1.408 . S
C4429 C4428 1.404 . S
C4429 H4441 0.930 . S
C4430 C4426 1.524 . S
C4430 H4442 0.956 . S
C4430 H4443 0.961 . S
C4430 H4444 0.961 . S
C4431 C4428 1.539 . S
C4431 H4445 0.958 . S
C4431 H4446 0.961 . S
C4431 H4447 0.960 . S
H4432 C4416 0.931 . S
H4433 C4421 0.929 . S
H4434 C4422 0.960 . S
H4435 C4422 0.962 . S
H4436 C4422 0.960 . S
H4437 C4423 0.961 . S
H4438 C4423 0.961 . S
H4439 C4423 0.961 . S
H4440 C4424 0.931 . S
H4441 C4429 0.930 . S
H4442 C4430 0.956 . S
H4443 C4430 0.961 . S
H4444 C4430 0.961 . S
H4445 C4431 0.958 . S
H4446 C4431 0.961 . S
H4447 C4431 0.960 . S
C4448 C4449 1.391 . S
C4448 C4450 1.394 . S
C4448 H4464 0.931 . S
C4449 C4448 1.391 . S
C4449 C4453 1.376 . S
C4450 C4448 1.394 . S
C4450 C4451 1.369 . S
C4450 C4454 1.531 . S
C4451 C4450 1.369 . S
C4451 C4452 1.410 . S
C4451 C4459 1.503 . S
C4452 C4451 1.410 . S
C4452 C4453 1.392 . S
C4452 C4455 1.511 . S
C4453 C4449 1.376 . S
C4453 C4452 1.392 . S
C4453 H4465 0.929 . S
C4454 C4450 1.531 . S
C4454 H4466 0.960 . S
C4454 H4467 0.962 . S
C4454 H4468 0.960 . S
C4455 C4452 1.511 . S
C4455 H4469 0.961 . S
C4455 H4470 0.961 . S
C4455 H4471 0.961 . S
C4456 C4457 1.370 . S
C4456 C4458 1.363 . S
C4456 H4472 0.931 . S
C4457 C4456 1.370 . S
C4457 C4461 1.408 . S
C4458 C4456 1.363 . S
C4458 C4459 1.370 . S
C4458 C4462 1.524 . S
C4459 C4451 1.503 . S
C4459 C4458 1.370 . S
C4459 C4460 1.403 . S
C4460 C4459 1.403 . S
C4460 C4461 1.404 . S
C4460 C4463 1.539 . S
C4461 C4457 1.408 . S
C4461 C4460 1.404 . S
C4461 H4473 0.930 . S
C4462 C4458 1.524 . S
C4462 H4474 0.956 . S
C4462 H4475 0.961 . S
C4462 H4476 0.961 . S
C4463 C4460 1.539 . S
C4463 H4477 0.958 . S
C4463 H4478 0.961 . S
C4463 H4479 0.960 . S
H4464 C4448 0.931 . S
H4465 C4453 0.929 . S
H4466 C4454 0.960 . S
H4467 C4454 0.962 . S
H4468 C4454 0.960 . S
H4469 C4455 0.961 . S
H4470 C4455 0.961 . S
H4471 C4455 0.961 . S
H4472 C4456 0.931 . S
H4473 C4461 0.930 . S
H4474 C4462 0.956 . S
H4475 C4462 0.961 . S
H4476 C4462 0.961 . S
H4477 C4463 0.958 . S
H4478 C4463 0.961 . S
H4479 C4463 0.960 . S
C4480 C4481 1.391 . S
C4480 C4482 1.394 . S
C4480 H4496 0.931 . S
C4481 C4480 1.391 . S
C4481 C4485 1.376 . S
C4482 C4480 1.394 . S
C4482 C4483 1.369 . S
C4482 C4486 1.531 1_554 S
C4483 C4482 1.369 . S
C4483 C4484 1.410 . S
C4483 C4491 1.503 . S
C4484 C4483 1.410 . S
C4484 C4485 1.392 . S
C4484 C4487 1.511 . S
C4485 C4481 1.376 . S
C4485 C4484 1.392 . S
C4485 H4497 0.929 . S
C4486 C4482 1.531 1_556 S
C4486 H4498 0.960 . S
C4486 H4499 0.962 1_556 S
C4486 H4500 0.960 . S
C4487 C4484 1.511 . S
C4487 H4501 0.961 . S
C4487 H4502 0.961 . S
C4487 H4503 0.961 . S
C4488 C4489 1.370 . S
C4488 C4490 1.363 . S
C4488 H4504 0.931 . S
C4489 C4488 1.370 . S
C4489 C4493 1.408 1_554 S
C4490 C4488 1.363 . S
C4490 C4491 1.370 . S
C4490 C4494 1.524 . S
C4491 C4483 1.503 . S
C4491 C4490 1.370 . S
C4491 C4492 1.403 1_554 S
C4492 C4491 1.403 1_556 S
C4492 C4493 1.404 . S
C4492 C4495 1.539 . S
C4493 C4489 1.408 1_556 S
C4493 C4492 1.404 . S
C4493 H4505 0.930 . S
C4494 C4490 1.524 . S
C4494 H4506 0.956 . S
C4494 H4507 0.961 . S
C4494 H4508 0.961 . S
C4495 C4492 1.539 . S
C4495 H4509 0.958 . S
C4495 H4510 0.961 . S
C4495 H4511 0.960 . S
H4496 C4480 0.931 . S
H4497 C4485 0.929 . S
H4498 C4486 0.960 . S
H4499 C4486 0.962 1_554 S
H4500 C4486 0.960 . S
H4501 C4487 0.961 . S
H4502 C4487 0.961 . S
H4503 C4487 0.961 . S
H4504 C4488 0.931 . S
H4505 C4493 0.930 . S
H4506 C4494 0.956 . S
H4507 C4494 0.961 . S
H4508 C4494 0.961 . S
H4509 C4495 0.958 . S
H4510 C4495 0.961 . S
H4511 C4495 0.960 . S
C4512 C4513 1.391 . S
C4512 C4514 1.394 . S
C4512 H4528 0.931 . S
C4513 C4512 1.391 . S
C4513 C4517 1.376 . S
C4514 C4512 1.394 . S
C4514 C4515 1.369 . S
C4514 C4518 1.531 . S
C4515 C4514 1.369 . S
C4515 C4516 1.410 . S
C4515 C4523 1.503 . S
C4516 C4515 1.410 . S
C4516 C4517 1.392 . S
C4516 C4519 1.511 . S
C4517 C4513 1.376 . S
C4517 C4516 1.392 . S
C4517 H4529 0.929 . S
C4518 C4514 1.531 . S
C4518 H4530 0.960 . S
C4518 H4531 0.962 . S
C4518 H4532 0.960 . S
C4519 C4516 1.511 . S
C4519 H4533 0.961 . S
C4519 H4534 0.961 . S
C4519 H4535 0.961 . S
C4520 C4521 1.370 . S
C4520 C4522 1.363 . S
C4520 H4536 0.931 . S
C4521 C4520 1.370 . S
C4521 C4525 1.408 . S
C4522 C4520 1.363 . S
C4522 C4523 1.370 . S
C4522 C4526 1.524 . S
C4523 C4515 1.503 . S
C4523 C4522 1.370 . S
C4523 C4524 1.403 . S
C4524 C4523 1.403 . S
C4524 C4525 1.404 . S
C4524 C4527 1.539 . S
C4525 C4521 1.408 . S
C4525 C4524 1.404 . S
C4525 H4537 0.930 . S
C4526 C4522 1.524 . S
C4526 H4538 0.956 . S
C4526 H4539 0.961 . S
C4526 H4540 0.961 . S
C4527 C4524 1.539 . S
C4527 H4541 0.958 . S
C4527 H4542 0.961 . S
C4527 H4543 0.960 . S
H4528 C4512 0.931 . S
H4529 C4517 0.929 . S
H4530 C4518 0.960 . S
H4531 C4518 0.962 . S
H4532 C4518 0.960 . S
H4533 C4519 0.961 . S
H4534 C4519 0.961 . S
H4535 C4519 0.961 . S
H4536 C4520 0.931 . S
H4537 C4525 0.930 . S
H4538 C4526 0.956 . S
H4539 C4526 0.961 . S
H4540 C4526 0.961 . S
H4541 C4527 0.958 . S
H4542 C4527 0.961 . S
H4543 C4527 0.960 . S
C4544 C4545 1.391 . S
C4544 C4546 1.394 . S
C4544 H4560 0.931 . S
C4545 C4544 1.391 . S
C4545 C4549 1.376 . S
C4546 C4544 1.394 . S
C4546 C4547 1.369 . S
C4546 C4550 1.531 . S
C4547 C4546 1.369 . S
C4547 C4548 1.410 . S
C4547 C4555 1.503 . S
C4548 C4547 1.410 . S
C4548 C4549 1.392 . S
C4548 C4551 1.511 . S
C4549 C4545 1.376 . S
C4549 C4548 1.392 . S
C4549 H4561 0.929 . S
C4550 C4546 1.531 . S
C4550 H4562 0.960 . S
C4550 H4563 0.962 . S
C4550 H4564 0.960 . S
C4551 C4548 1.511 . S
C4551 H4565 0.961 . S
C4551 H4566 0.961 . S
C4551 H4567 0.961 . S
C4552 C4553 1.370 . S
C4552 C4554 1.363 . S
C4552 H4568 0.931 . S
C4553 C4552 1.370 . S
C4553 C4557 1.408 . S
C4554 C4552 1.363 . S
C4554 C4555 1.370 . S
C4554 C4558 1.524 . S
C4555 C4547 1.503 . S
C4555 C4554 1.370 . S
C4555 C4556 1.403 . S
C4556 C4555 1.403 . S
C4556 C4557 1.404 . S
C4556 C4559 1.539 . S
C4557 C4553 1.408 . S
C4557 C4556 1.404 . S
C4557 H4569 0.930 . S
C4558 C4554 1.524 . S
C4558 H4570 0.956 . S
C4558 H4571 0.961 . S
C4558 H4572 0.961 . S
C4559 C4556 1.539 . S
C4559 H4573 0.958 . S
C4559 H4574 0.961 . S
C4559 H4575 0.960 . S
H4560 C4544 0.931 . S
H4561 C4549 0.929 . S
H4562 C4550 0.960 . S
H4563 C4550 0.962 . S
H4564 C4550 0.960 . S
H4565 C4551 0.961 . S
H4566 C4551 0.961 . S
H4567 C4551 0.961 . S
H4568 C4552 0.931 . S
H4569 C4557 0.930 . S
H4570 C4558 0.956 . S
H4571 C4558 0.961 . S
H4572 C4558 0.961 . S
H4573 C4559 0.958 . S
H4574 C4559 0.961 . S
H4575 C4559 0.960 . S
C1505 C255 2.120 . S
C1513 C895 2.093 . S
C1537 C147 1.795 . S
C1545 C906 1.817 . S
C1569 C184 1.610 . S
C1577 C975 1.595 . S
C1609 C988 1.199 . S
C1601 C220 1.195 . S
C1633 C40 2.497 . S
C1641 C1044 2.462 . S
C1673 C1095 2.142 . S
C1665 C74 2.161 . S
C1705 C1124 2.430 . S
C1697 C110 2.434 . S
C1729 C14 2.409 . S
C1737 C1175 2.376 . S
C1769 C866 1.284 . S
C1761 C579 1.302 . S
C1793 C616 0.981 . S
C1801 C908 0.933 . S
C1833 C946 1.084 . S
C1825 C687 1.096 . S
C1865 C1015 1.758 . S
C1857 C436 1.737 . S
C1889 C580 0.623 . S
C1897 C1049 0.639 . S
C1929 C1066 1.452 . S
C1921 C615 1.449 . S
C1961 C1129 0.413 . S
C1953 C688 0.449 . S
C1993 C1146 2.131 . S
C1985 C435 2.153 . S
C2025 C868 1.610 . S
C2017 C410 1.702 1_554 S
C2049 C722 1.678 . S
C2057 C1207 1.622 . S
C2089 C1228 1.474 . S
C2081 C842 1.544 . S
C2121 C1287 0.408 1_655 S
C2113 C794 0.492 . S
C2145 C302 1.087 . S
C2153 C1148 1.020 . S
C2177 C338 1.405 . S
C2185 C948 1.388 . S
C2209 C830 0.958 . S
C2217 C1306 1.007 . S
C2249 C1375 1.010 . S
C2241 C758 1.045 . S
C2281 C884 2.083 . S
C2273 C158 1.921 . S
C2313 C1367 1.802 . S
C2305 C254 1.803 . S
C2337 C218 1.627 . S
C2345 C964 1.608 . S
C2369 C194 1.117 . S
C2377 C1329 1.176 . S
C2409 C1055 2.436 . S
C2401 C3 2.442 . S
C2433 C111 2.041 . S
C2441 C1244 1.999 . S
C2473 C1135 2.357 1_556 S
C2465 C76 2.365 . S
C2505 C1404 2.435 . S
C2497 C50 2.392 1_655 S
C2537 C887 1.258 . S
C2529 C364 1.284 . S
C2569 C1369 0.968 . S
C2561 C795 0.971 . S
C2593 C292 1.049 . S
C2601 C967 1.046 . S
C2625 C723 1.662 . S
C2633 C1324 1.666 . S
C2657 C363 0.621 . S
C2665 C1028 0.591 . S
C2697 C1247 1.440 . S
C2689 C796 1.455 . S
C2721 C291 0.371 . S
C2729 C1108 0.403 . S
C2753 C724 2.128 . S
C2761 C1407 2.107 . S
C2785 C482 1.615 . S
C2793 C889 1.633 1_554 S
C2817 C434 1.648 . S
C2825 C1186 1.619 . S
C2849 C662 1.394 . S
C2857 C1089 1.442 . S
C2881 C614 0.457 . S
C2889 C1266 0.395 . S
C2921 C1409 1.041 . S
C2913 C698 0.909 1_565 S
C2945 C554 1.294 . S
C2953 C969 1.413 . S
C2985 C1007 0.937 . S
C2977 C650 0.893 . S
C3017 C924 0.986 . S
C3009 C506 1.034 . S
C3041 C183 2.093 . S
C3049 C1455 2.097 . S
C3081 C1346 1.813 . S
C3073 C219 1.775 . S
C3105 C256 1.623 . S
C3113 C1495 1.603 . S
C3137 C148 1.216 . S
C3145 C1308 1.182 . S
C3169 C122 2.420 . S
C3177 C1204 2.504 . S
C3209 C1255 2.069 . S
C3201 C2 2.096 . S
C3241 C1284 2.314 . S
C3233 C39 2.313 . S
C3273 C1415 2.430 . S
C3265 C86 2.469 . S
C3305 C1426 1.309 . S
C3297 C651 1.279 . S
C3329 C472 0.961 . S
C3337 C1348 0.939 . S
C3369 C1466 1.070 . S
C3361 C507 1.085 . S
C3401 C1335 1.757 . S
C3393 C544 1.699 . S
C3433 C1209 0.620 . S
C3425 C652 0.660 . S
C3457 C471 1.446 . S
C3465 C1226 1.439 . S
C3497 C1289 0.433 . S
C3489 C508 0.396 . S
C3521 C543 2.178 . S
C3529 C1386 2.133 . S
C3561 C1428 1.606 . S
C3553 C806 1.712 . S
C3585 C326 1.659 . S
C3593 C1047 1.608 . S
C3625 C1068 1.423 . S
C3617 C374 1.556 . S
C3657 C1127 0.482 . S
C3649 C398 0.447 . S
C3689 C1388 1.005 . S
C3681 C770 1.073 . S
C3713 C734 1.347 . S
C3721 C1468 1.367 . S
C3753 C986 0.995 . S
C3745 C362 0.991 . S
C3785 C935 1.029 . S
C3777 C290 1.065 . S
C3809 C230 1.979 . S
C3817 C1444 2.069 . S
C3849 C927 1.808 . S
C3841 C182 1.803 . S
C3873 C146 1.622 . S
C3881 C1484 1.601 . S
C3905 C266 1.144 . S
C3913 C1009 1.164 . S
C3937 C75 2.493 . S
C3945 C1215 2.484 1_556 S
C3977 C1084 2.146 . S
C3969 C38 2.169 . S
C4001 C4 2.299 . S
C4009 C1295 2.293 . S
C4033 C112 2.399 . S
C4041 C1164 2.343 . S
C4073 C1447 1.261 . S
C4065 C832 1.286 . S
C4097 C399 1.006 . S
C4105 C929 0.947 . S
C4137 C1487 1.039 . S
C4129 C760 1.044 . S
C4161 C327 1.653 . S
C4169 C1004 1.664 . S
C4193 C831 0.604 . S
C4201 C1188 0.625 . S
C4233 C1087 1.444 . S
C4225 C400 1.453 . S
C4257 C759 0.395 . S
C4265 C1268 0.398 . S
C4297 C1167 2.113 . S
C4289 C328 2.140 . S
C4329 C1449 1.648 . S
C4321 C626 1.559 . S
C4361 C1026 1.601 1_565 S
C4353 C542 1.663 . S
C4385 C590 1.374 . S
C4393 C1249 1.414 . S
C4425 C1106 0.412 . S
C4417 C470 0.429 . S
C4449 C518 1.018 . S
C4457 C1169 0.978 . S
C4481 C446 1.312 . S
C4489 C1489 1.393 . S
C4521 C1327 0.943 . S
C4513 C578 0.970 . S
C4553 C1364 0.957 . S
C4545 C686 1.008 . S
