# Generated by pormake.
# Topology tbo, (3,4)-cn, num edge types: 1
# Building blocks:
#     Node 0, Type 0, BuildingBlock: OLANEW_clean_sbu_2, # of connection points: 3
#     Node 1, Type 0, BuildingBlock: OLANEW_clean_sbu_2, # of connection points: 3
#     Node 2, Type 0, BuildingBlock: OLANEW_clean_sbu_2, # of connection points: 3
#     Node 3, Type 0, BuildingBlock: OLANEW_clean_sbu_2, # of connection points: 3
#     Node 4, Type 0, BuildingBlock: OLANEW_clean_sbu_2, # of connection points: 3
#     Node 5, Type 0, BuildingBlock: OLANEW_clean_sbu_2, # of connection points: 3
#     Node 6, Type 0, BuildingBlock: OLANEW_clean_sbu_2, # of connection points: 3
#     Node 7, Type 0, BuildingBlock: OLANEW_clean_sbu_2, # of connection points: 3
#     Node 8, Type 0, BuildingBlock: OLANEW_clean_sbu_2, # of connection points: 3
#     Node 9, Type 0, BuildingBlock: OLANEW_clean_sbu_2, # of connection points: 3
#     Node 10, Type 0, BuildingBlock: OLANEW_clean_sbu_2, # of connection points: 3
#     Node 11, Type 0, BuildingBlock: OLANEW_clean_sbu_2, # of connection points: 3
#     Node 12, Type 0, BuildingBlock: OLANEW_clean_sbu_2, # of connection points: 3
#     Node 13, Type 0, BuildingBlock: OLANEW_clean_sbu_2, # of connection points: 3
#     Node 14, Type 0, BuildingBlock: OLANEW_clean_sbu_2, # of connection points: 3
#     Node 15, Type 0, BuildingBlock: OLANEW_clean_sbu_2, # of connection points: 3
#     Node 16, Type 0, BuildingBlock: OLANEW_clean_sbu_2, # of connection points: 3
#     Node 17, Type 0, BuildingBlock: OLANEW_clean_sbu_2, # of connection points: 3
#     Node 18, Type 0, BuildingBlock: OLANEW_clean_sbu_2, # of connection points: 3
#     Node 19, Type 0, BuildingBlock: OLANEW_clean_sbu_2, # of connection points: 3
#     Node 20, Type 0, BuildingBlock: OLANEW_clean_sbu_2, # of connection points: 3
#     Node 21, Type 0, BuildingBlock: OLANEW_clean_sbu_2, # of connection points: 3
#     Node 22, Type 0, BuildingBlock: OLANEW_clean_sbu_2, # of connection points: 3
#     Node 23, Type 0, BuildingBlock: OLANEW_clean_sbu_2, # of connection points: 3
#     Node 24, Type 0, BuildingBlock: OLANEW_clean_sbu_2, # of connection points: 3
#     Node 25, Type 0, BuildingBlock: OLANEW_clean_sbu_2, # of connection points: 3
#     Node 26, Type 0, BuildingBlock: OLANEW_clean_sbu_2, # of connection points: 3
#     Node 27, Type 0, BuildingBlock: OLANEW_clean_sbu_2, # of connection points: 3
#     Node 28, Type 0, BuildingBlock: OLANEW_clean_sbu_2, # of connection points: 3
#     Node 29, Type 0, BuildingBlock: OLANEW_clean_sbu_2, # of connection points: 3
#     Node 30, Type 0, BuildingBlock: OLANEW_clean_sbu_2, # of connection points: 3
#     Node 31, Type 0, BuildingBlock: OLANEW_clean_sbu_2, # of connection points: 3
#     Node 32, Type 1, BuildingBlock: ESEHIV_clean_sbu_0, # of connection points: 4
#     Node 33, Type 1, BuildingBlock: ESEHIV_clean_sbu_0, # of connection points: 4
#     Node 34, Type 1, BuildingBlock: ESEHIV_clean_sbu_0, # of connection points: 4
#     Node 35, Type 1, BuildingBlock: ESEHIV_clean_sbu_0, # of connection points: 4
#     Node 36, Type 1, BuildingBlock: ESEHIV_clean_sbu_0, # of connection points: 4
#     Node 37, Type 1, BuildingBlock: ESEHIV_clean_sbu_0, # of connection points: 4
#     Node 38, Type 1, BuildingBlock: ESEHIV_clean_sbu_0, # of connection points: 4
#     Node 39, Type 1, BuildingBlock: ESEHIV_clean_sbu_0, # of connection points: 4
#     Node 40, Type 1, BuildingBlock: ESEHIV_clean_sbu_0, # of connection points: 4
#     Node 41, Type 1, BuildingBlock: ESEHIV_clean_sbu_0, # of connection points: 4
#     Node 42, Type 1, BuildingBlock: ESEHIV_clean_sbu_0, # of connection points: 4
#     Node 43, Type 1, BuildingBlock: ESEHIV_clean_sbu_0, # of connection points: 4
#     Node 44, Type 1, BuildingBlock: ESEHIV_clean_sbu_0, # of connection points: 4
#     Node 45, Type 1, BuildingBlock: ESEHIV_clean_sbu_0, # of connection points: 4
#     Node 46, Type 1, BuildingBlock: ESEHIV_clean_sbu_0, # of connection points: 4
#     Node 47, Type 1, BuildingBlock: ESEHIV_clean_sbu_0, # of connection points: 4
#     Node 48, Type 1, BuildingBlock: ESEHIV_clean_sbu_0, # of connection points: 4
#     Node 49, Type 1, BuildingBlock: ESEHIV_clean_sbu_0, # of connection points: 4
#     Node 50, Type 1, BuildingBlock: ESEHIV_clean_sbu_0, # of connection points: 4
#     Node 51, Type 1, BuildingBlock: ESEHIV_clean_sbu_0, # of connection points: 4
#     Node 52, Type 1, BuildingBlock: ESEHIV_clean_sbu_0, # of connection points: 4
#     Node 53, Type 1, BuildingBlock: ESEHIV_clean_sbu_0, # of connection points: 4
#     Node 54, Type 1, BuildingBlock: ESEHIV_clean_sbu_0, # of connection points: 4
#     Node 55, Type 1, BuildingBlock: ESEHIV_clean_sbu_0, # of connection points: 4
#     Edge 56, Type (0, 1), BuildingBlock: KIFKEQ_clean_linker_1, # of connection points: 2
#     Edge 57, Type (0, 1), BuildingBlock: KIFKEQ_clean_linker_1, # of connection points: 2
#     Edge 58, Type (0, 1), BuildingBlock: KIFKEQ_clean_linker_1, # of connection points: 2
#     Edge 59, Type (0, 1), BuildingBlock: KIFKEQ_clean_linker_1, # of connection points: 2
#     Edge 60, Type (0, 1), BuildingBlock: KIFKEQ_clean_linker_1, # of connection points: 2
#     Edge 61, Type (0, 1), BuildingBlock: KIFKEQ_clean_linker_1, # of connection points: 2
#     Edge 62, Type (0, 1), BuildingBlock: KIFKEQ_clean_linker_1, # of connection points: 2
#     Edge 63, Type (0, 1), BuildingBlock: KIFKEQ_clean_linker_1, # of connection points: 2
#     Edge 64, Type (0, 1), BuildingBlock: KIFKEQ_clean_linker_1, # of connection points: 2
#     Edge 65, Type (0, 1), BuildingBlock: KIFKEQ_clean_linker_1, # of connection points: 2
#     Edge 66, Type (0, 1), BuildingBlock: KIFKEQ_clean_linker_1, # of connection points: 2
#     Edge 67, Type (0, 1), BuildingBlock: KIFKEQ_clean_linker_1, # of connection points: 2
#     Edge 68, Type (0, 1), BuildingBlock: KIFKEQ_clean_linker_1, # of connection points: 2
#     Edge 69, Type (0, 1), BuildingBlock: KIFKEQ_clean_linker_1, # of connection points: 2
#     Edge 70, Type (0, 1), BuildingBlock: KIFKEQ_clean_linker_1, # of connection points: 2
#     Edge 71, Type (0, 1), BuildingBlock: KIFKEQ_clean_linker_1, # of connection points: 2
#     Edge 72, Type (0, 1), BuildingBlock: KIFKEQ_clean_linker_1, # of connection points: 2
#     Edge 73, Type (0, 1), BuildingBlock: KIFKEQ_clean_linker_1, # of connection points: 2
#     Edge 74, Type (0, 1), BuildingBlock: KIFKEQ_clean_linker_1, # of connection points: 2
#     Edge 75, Type (0, 1), BuildingBlock: KIFKEQ_clean_linker_1, # of connection points: 2
#     Edge 76, Type (0, 1), BuildingBlock: KIFKEQ_clean_linker_1, # of connection points: 2
#     Edge 77, Type (0, 1), BuildingBlock: KIFKEQ_clean_linker_1, # of connection points: 2
#     Edge 78, Type (0, 1), BuildingBlock: KIFKEQ_clean_linker_1, # of connection points: 2
#     Edge 79, Type (0, 1), BuildingBlock: KIFKEQ_clean_linker_1, # of connection points: 2
#     Edge 80, Type (0, 1), BuildingBlock: KIFKEQ_clean_linker_1, # of connection points: 2
#     Edge 81, Type (0, 1), BuildingBlock: KIFKEQ_clean_linker_1, # of connection points: 2
#     Edge 82, Type (0, 1), BuildingBlock: KIFKEQ_clean_linker_1, # of connection points: 2
#     Edge 83, Type (0, 1), BuildingBlock: KIFKEQ_clean_linker_1, # of connection points: 2
#     Edge 84, Type (0, 1), BuildingBlock: KIFKEQ_clean_linker_1, # of connection points: 2
#     Edge 85, Type (0, 1), BuildingBlock: KIFKEQ_clean_linker_1, # of connection points: 2
#     Edge 86, Type (0, 1), BuildingBlock: KIFKEQ_clean_linker_1, # of connection points: 2
#     Edge 87, Type (0, 1), BuildingBlock: KIFKEQ_clean_linker_1, # of connection points: 2
#     Edge 88, Type (0, 1), BuildingBlock: KIFKEQ_clean_linker_1, # of connection points: 2
#     Edge 89, Type (0, 1), BuildingBlock: KIFKEQ_clean_linker_1, # of connection points: 2
#     Edge 90, Type (0, 1), BuildingBlock: KIFKEQ_clean_linker_1, # of connection points: 2
#     Edge 91, Type (0, 1), BuildingBlock: KIFKEQ_clean_linker_1, # of connection points: 2
#     Edge 92, Type (0, 1), BuildingBlock: KIFKEQ_clean_linker_1, # of connection points: 2
#     Edge 93, Type (0, 1), BuildingBlock: KIFKEQ_clean_linker_1, # of connection points: 2
#     Edge 94, Type (0, 1), BuildingBlock: KIFKEQ_clean_linker_1, # of connection points: 2
#     Edge 95, Type (0, 1), BuildingBlock: KIFKEQ_clean_linker_1, # of connection points: 2
#     Edge 96, Type (0, 1), BuildingBlock: KIFKEQ_clean_linker_1, # of connection points: 2
#     Edge 97, Type (0, 1), BuildingBlock: KIFKEQ_clean_linker_1, # of connection points: 2
#     Edge 98, Type (0, 1), BuildingBlock: KIFKEQ_clean_linker_1, # of connection points: 2
#     Edge 99, Type (0, 1), BuildingBlock: KIFKEQ_clean_linker_1, # of connection points: 2
#     Edge 100, Type (0, 1), BuildingBlock: KIFKEQ_clean_linker_1, # of connection points: 2
#     Edge 101, Type (0, 1), BuildingBlock: KIFKEQ_clean_linker_1, # of connection points: 2
#     Edge 102, Type (0, 1), BuildingBlock: KIFKEQ_clean_linker_1, # of connection points: 2
#     Edge 103, Type (0, 1), BuildingBlock: KIFKEQ_clean_linker_1, # of connection points: 2
#     Edge 104, Type (0, 1), BuildingBlock: KIFKEQ_clean_linker_1, # of connection points: 2
#     Edge 105, Type (0, 1), BuildingBlock: KIFKEQ_clean_linker_1, # of connection points: 2
#     Edge 106, Type (0, 1), BuildingBlock: KIFKEQ_clean_linker_1, # of connection points: 2
#     Edge 107, Type (0, 1), BuildingBlock: KIFKEQ_clean_linker_1, # of connection points: 2
#     Edge 108, Type (0, 1), BuildingBlock: KIFKEQ_clean_linker_1, # of connection points: 2
#     Edge 109, Type (0, 1), BuildingBlock: KIFKEQ_clean_linker_1, # of connection points: 2
#     Edge 110, Type (0, 1), BuildingBlock: KIFKEQ_clean_linker_1, # of connection points: 2
#     Edge 111, Type (0, 1), BuildingBlock: KIFKEQ_clean_linker_1, # of connection points: 2
#     Edge 112, Type (0, 1), BuildingBlock: KIFKEQ_clean_linker_1, # of connection points: 2
#     Edge 113, Type (0, 1), BuildingBlock: KIFKEQ_clean_linker_1, # of connection points: 2
#     Edge 114, Type (0, 1), BuildingBlock: KIFKEQ_clean_linker_1, # of connection points: 2
#     Edge 115, Type (0, 1), BuildingBlock: KIFKEQ_clean_linker_1, # of connection points: 2
#     Edge 116, Type (0, 1), BuildingBlock: KIFKEQ_clean_linker_1, # of connection points: 2
#     Edge 117, Type (0, 1), BuildingBlock: KIFKEQ_clean_linker_1, # of connection points: 2
#     Edge 118, Type (0, 1), BuildingBlock: KIFKEQ_clean_linker_1, # of connection points: 2
#     Edge 119, Type (0, 1), BuildingBlock: KIFKEQ_clean_linker_1, # of connection points: 2
#     Edge 120, Type (0, 1), BuildingBlock: KIFKEQ_clean_linker_1, # of connection points: 2
#     Edge 121, Type (0, 1), BuildingBlock: KIFKEQ_clean_linker_1, # of connection points: 2
#     Edge 122, Type (0, 1), BuildingBlock: KIFKEQ_clean_linker_1, # of connection points: 2
#     Edge 123, Type (0, 1), BuildingBlock: KIFKEQ_clean_linker_1, # of connection points: 2
#     Edge 124, Type (0, 1), BuildingBlock: KIFKEQ_clean_linker_1, # of connection points: 2
#     Edge 125, Type (0, 1), BuildingBlock: KIFKEQ_clean_linker_1, # of connection points: 2
#     Edge 126, Type (0, 1), BuildingBlock: KIFKEQ_clean_linker_1, # of connection points: 2
#     Edge 127, Type (0, 1), BuildingBlock: KIFKEQ_clean_linker_1, # of connection points: 2
#     Edge 128, Type (0, 1), BuildingBlock: KIFKEQ_clean_linker_1, # of connection points: 2
#     Edge 129, Type (0, 1), BuildingBlock: KIFKEQ_clean_linker_1, # of connection points: 2
#     Edge 130, Type (0, 1), BuildingBlock: KIFKEQ_clean_linker_1, # of connection points: 2
#     Edge 131, Type (0, 1), BuildingBlock: KIFKEQ_clean_linker_1, # of connection points: 2
#     Edge 132, Type (0, 1), BuildingBlock: KIFKEQ_clean_linker_1, # of connection points: 2
#     Edge 133, Type (0, 1), BuildingBlock: KIFKEQ_clean_linker_1, # of connection points: 2
#     Edge 134, Type (0, 1), BuildingBlock: KIFKEQ_clean_linker_1, # of connection points: 2
#     Edge 135, Type (0, 1), BuildingBlock: KIFKEQ_clean_linker_1, # of connection points: 2
#     Edge 136, Type (0, 1), BuildingBlock: KIFKEQ_clean_linker_1, # of connection points: 2
#     Edge 137, Type (0, 1), BuildingBlock: KIFKEQ_clean_linker_1, # of connection points: 2
#     Edge 138, Type (0, 1), BuildingBlock: KIFKEQ_clean_linker_1, # of connection points: 2
#     Edge 139, Type (0, 1), BuildingBlock: KIFKEQ_clean_linker_1, # of connection points: 2
#     Edge 140, Type (0, 1), BuildingBlock: KIFKEQ_clean_linker_1, # of connection points: 2
#     Edge 141, Type (0, 1), BuildingBlock: KIFKEQ_clean_linker_1, # of connection points: 2
#     Edge 142, Type (0, 1), BuildingBlock: KIFKEQ_clean_linker_1, # of connection points: 2
#     Edge 143, Type (0, 1), BuildingBlock: KIFKEQ_clean_linker_1, # of connection points: 2
#     Edge 144, Type (0, 1), BuildingBlock: KIFKEQ_clean_linker_1, # of connection points: 2
#     Edge 145, Type (0, 1), BuildingBlock: KIFKEQ_clean_linker_1, # of connection points: 2
#     Edge 146, Type (0, 1), BuildingBlock: KIFKEQ_clean_linker_1, # of connection points: 2
#     Edge 147, Type (0, 1), BuildingBlock: KIFKEQ_clean_linker_1, # of connection points: 2
#     Edge 148, Type (0, 1), BuildingBlock: KIFKEQ_clean_linker_1, # of connection points: 2
#     Edge 149, Type (0, 1), BuildingBlock: KIFKEQ_clean_linker_1, # of connection points: 2
#     Edge 150, Type (0, 1), BuildingBlock: KIFKEQ_clean_linker_1, # of connection points: 2
#     Edge 151, Type (0, 1), BuildingBlock: KIFKEQ_clean_linker_1, # of connection points: 2
# Relax obj value: 0.023
# Max RMSD: 0.188
# Mean RMSD: 0.110
data_MOF--net-tbo--node1-OLANEW_clean_sbu_2--node2-ESEHIV_clean_sbu_0--edge1-KIFKEQ_clean_linker_1
_symmetry_space_group_name_H-M    P1
_symmetry_Int_Tables_number       1
_symmetry_cell_setting            triclinic
loop_
_symmetry_equiv_pos_as_xyz
'x, y, z'
_cell_length_a     79.331717
_cell_length_b     81.297877
_cell_length_c     78.498514
_cell_angle_alpha  96.599241
_cell_angle_beta   89.963196
_cell_angle_gamma 98.663839
loop_
_atom_site_label
_atom_site_type_symbol
_atom_site_fract_x
_atom_site_fract_y
_atom_site_fract_z
_atom_type_partial_charge
O0 O 0.20585 0.17416 0.19439 0.0
Cd1 Cd 0.19219 0.15781 0.21659 0.0
O2 O 0.18837 0.19296 0.19802 0.0
Cd3 Cd 0.17145 0.18393 0.21817 0.0
O4 O 0.1488 0.18908 0.23283 0.0
C5 C 0.14196 0.201 0.22799 0.0
O6 O 0.14879 0.20856 0.21516 0.0
C7 C 0.20093 0.18745 0.19041 0.0
C8 C 0.21057 0.13427 0.2285 0.0
O9 O 0.20076 0.13041 0.21522 0.0
O10 O 0.21205 0.14933 0.23589 0.0
O11 O 0.88533 0.21694 0.17578 0.0
Cd12 Cd 0.86146 0.20035 0.15861 0.0
O13 O 0.88456 0.19684 0.19246 0.0
Cd14 Cd 0.86279 0.1791 0.18128 0.0
O15 O 0.8454 0.15594 0.18412 0.0
C16 C 0.85102 0.14679 0.19422 0.0
O17 O 0.86624 0.15175 0.20125 0.0
C18 C 0.89127 0.2111 0.18849 0.0
C19 C 0.85162 0.21459 0.13009 0.0
O20 O 0.84468 0.21735 0.14469 0.0
O21 O 0.8634 0.20533 0.12905 0.0
O22 O 0.87331 0.83608 0.18728 0.0
Cd23 Cd 0.88224 0.85158 0.21534 0.0
O24 O 0.8787 0.85912 0.17474 0.0
Cd25 Cd 0.88355 0.87627 0.19844 0.0
O26 O 0.87804 0.89699 0.21701 0.0
C27 C 0.87287 0.90907 0.21063 0.0
O28 O 0.87196 0.90852 0.19386 0.0
C29 C 0.87401 0.84335 0.17372 0.0
C30 C 0.91061 0.84199 0.23043 0.0
O31 O 0.89542 0.83545 0.23379 0.0
O32 O 0.9124 0.85288 0.21971 0.0
O33 O 0.21301 0.85885 0.18519 0.0
Cd34 Cd 0.20386 0.83191 0.16829 0.0
O35 O 0.20554 0.84986 0.20992 0.0
Cd36 Cd 0.1923 0.82515 0.19978 0.0
O37 O 0.17087 0.80613 0.20471 0.0
C38 C 0.1574 0.80294 0.19541 0.0
O39 O 0.15678 0.81029 0.18141 0.0
C40 C 0.21232 0.86148 0.20143 0.0
C41 C 0.22428 0.82916 0.13946 0.0
O42 O 0.22847 0.82419 0.15356 0.0
O43 O 0.21029 0.8352 0.13892 0.0
O44 O 0.20691 0.84459 0.85018 0.0
Cd45 Cd 0.19228 0.81828 0.85934 0.0
O46 O 0.18279 0.84846 0.83888 0.0
Cd47 Cd 0.16539 0.85988 0.82376 0.0
O48 O 0.14185 0.86211 0.81019 0.0
C49 C 0.14067 0.86037 0.7939 0.0
O50 O 0.15425 0.85806 0.78488 0.0
C51 C 0.19857 0.85347 0.84202 0.0
C52 C 0.21031 0.80558 0.8842 0.0
O53 O 0.21291 0.80207 0.86816 0.0
O54 O 0.19925 0.81522 0.88853 0.0
O55 O 0.23334 0.16234 0.90929 0.0
Cd56 Cd 0.22215 0.15113 0.88054 0.0
O57 O 0.21222 0.17672 0.9091 0.0
Cd58 Cd 0.19641 0.19604 0.9172 0.0
O59 O 0.17821 0.21354 0.91546 0.0
C60 C 0.18271 0.22661 0.9081 0.0
O61 O 0.1984 0.22956 0.90258 0.0
C62 C 0.22503 0.17314 0.91688 0.0
C63 C 0.23599 0.12381 0.86478 0.0
O64 O 0.24293 0.13886 0.86328 0.0
O65 O 0.22272 0.12169 0.87408 0.0
O66 O 0.87831 0.22788 0.84871 0.0
Cd67 Cd 0.88377 0.21306 0.82084 0.0
O68 O 0.8656 0.2041 0.85614 0.0
Cd69 Cd 0.85086 0.18589 0.871 0.0
O70 O 0.83643 0.16165 0.87517 0.0
C71 C 0.82042 0.15881 0.87237 0.0
O72 O 0.8127 0.17099 0.86811 0.0
C73 C 0.87071 0.21968 0.86005 0.0
C74 C 0.9188 0.2179 0.81567 0.0
O75 O 0.90929 0.22766 0.81019 0.0
O76 O 0.91164 0.20554 0.82318 0.0
O77 O 0.87421 0.86546 0.83695 0.0
Cd78 Cd 0.85073 0.8786 0.8503 0.0
O79 O 0.87965 0.85374 0.85998 0.0
Cd80 Cd 0.85883 0.86016 0.87678 0.0
O81 O 0.84252 0.85639 0.8992 0.0
C82 C 0.84468 0.84398 0.90704 0.0
O83 O 0.85608 0.83466 0.90124 0.0
C84 C 0.88312 0.85671 0.84468 0.0
C85 C 0.83786 0.90182 0.83185 0.0
O86 O 0.85015 0.90653 0.84275 0.0
O87 O 0.83197 0.88615 0.82936 0.0
O88 O 0.21502 0.67158 0.67455 0.0
Cd89 Cd 0.2134 0.66154 0.70296 0.0
O90 O 0.19616 0.68843 0.68071 0.0
Cd91 Cd 0.17801 0.70608 0.67833 0.0
O92 O 0.15588 0.71837 0.68655 0.0
C93 C 0.1412 0.70949 0.68643 0.0
O94 O 0.13968 0.6935 0.68065 0.0
C95 C 0.20649 0.68252 0.67009 0.0
C96 C 0.23088 0.63448 0.7065 0.0
O97 O 0.21507 0.63211 0.70207 0.0
O98 O 0.23856 0.64962 0.70893 0.0
O99 O 0.86174 0.71504 0.65956 0.0
Cd100 Cd 0.83351 0.70092 0.64892 0.0
O101 O 0.86802 0.69257 0.66988 0.0
Cd102 Cd 0.84379 0.6758 0.66514 0.0
O103 O 0.82746 0.65338 0.67206 0.0
C104 C 0.82703 0.65148 0.68793 0.0
O105 O 0.83552 0.66326 0.69889 0.0
C106 C 0.87222 0.70773 0.66704 0.0
C107 C 0.82109 0.71586 0.62204 0.0
O108 O 0.81854 0.72104 0.63774 0.0
O109 O 0.82952 0.7036 0.61901 0.0
O110 O 0.90324 0.34053 0.69851 0.0
Cd111 Cd 0.91296 0.36112 0.72326 0.0
O112 O 0.87754 0.34765 0.70014 0.0
Cd113 Cd 0.88262 0.36796 0.72119 0.0
O114 O 0.87813 0.39118 0.73639 0.0
C115 C 0.87376 0.40235 0.72797 0.0
O116 O 0.87302 0.3995 0.71114 0.0
C117 C 0.88791 0.33861 0.69298 0.0
C118 C 0.93844 0.35278 0.74385 0.0
O119 O 0.92263 0.34798 0.74656 0.0
O120 O 0.94222 0.36124 0.73119 0.0
O121 O 0.17505 0.40498 0.65761 0.0
Cd122 Cd 0.15571 0.38458 0.63861 0.0
O123 O 0.17903 0.38468 0.67246 0.0
Cd124 Cd 0.18584 0.37429 0.69546 0.0
O125 O 0.17782 0.36092 0.71731 0.0
C126 C 0.16414 0.35054 0.71481 0.0
O127 O 0.15675 0.3483 0.69957 0.0
C128 C 0.18173 0.40015 0.67049 0.0
C129 C 0.16994 0.35762 0.62251 0.0
O130 O 0.16956 0.37087 0.61518 0.0
O131 O 0.16392 0.35725 0.63764 0.0
O132 O 0.22643 0.37505 0.39037 0.0
Cd133 Cd 0.21244 0.35296 0.40642 0.0
O134 O 0.203 0.37445 0.37544 0.0
Cd135 Cd 0.18509 0.37914 0.35576 0.0
O136 O 0.1611 0.37379 0.34068 0.0
C137 C 0.15985 0.36314 0.32736 0.0
O138 O 0.17336 0.35643 0.32237 0.0
C139 C 0.21853 0.38064 0.37873 0.0
C140 C 0.23369 0.34404 0.43111 0.0
O141 O 0.23283 0.33669 0.41571 0.0
O142 O 0.22467 0.35576 0.43476 0.0
O143 O 0.2094 0.63617 0.3758 0.0
Cd144 Cd 0.19672 0.62571 0.34728 0.0
O145 O 0.19301 0.65549 0.37635 0.0
Cd146 Cd 0.18034 0.67755 0.383 0.0
O147 O 0.16231 0.695 0.37982 0.0
C148 C 0.16491 0.70459 0.36807 0.0
O149 O 0.17874 0.70429 0.3589 0.0
C150 C 0.20437 0.64908 0.38368 0.0
C151 C 0.20783 0.59697 0.33076 0.0
O152 O 0.2161 0.6116 0.32959 0.0
O153 O 0.19448 0.59588 0.34002 0.0
O154 O 0.83775 0.73857 0.32289 0.0
Cd155 Cd 0.8457 0.72776 0.2941 0.0
O156 O 0.8312 0.7129 0.32929 0.0
Cd157 Cd 0.8215 0.69296 0.3449 0.0
O158 O 0.8126 0.66776 0.35158 0.0
C159 C 0.7968 0.66212 0.35236 0.0
O160 O 0.78557 0.67203 0.35004 0.0
C161 C 0.83274 0.72859 0.33381 0.0
C162 C 0.88112 0.73054 0.2925 0.0
O163 O 0.87335 0.74273 0.28974 0.0
O164 O 0.87211 0.71682 0.2957 0.0
O165 O 0.87521 0.36199 0.36598 0.0
Cd166 Cd 0.84973 0.37445 0.37502 0.0
O167 O 0.87422 0.34495 0.38613 0.0
Cd168 Cd 0.85175 0.3497 0.40119 0.0
O169 O 0.83653 0.3415 0.42303 0.0
C170 C 0.83991 0.34885 0.4381 0.0
O171 O 0.85163 0.36221 0.44015 0.0
C172 C 0.88132 0.35077 0.37306 0.0
C173 C 0.84399 0.40166 0.35774 0.0
O174 O 0.85266 0.40394 0.37182 0.0
O175 O 0.83827 0.38653 0.35166 0.0
O176 O 0.72351 0.17466 0.67619 0.0
Cd177 Cd 0.70911 0.1612 0.69985 0.0
O178 O 0.70442 0.19119 0.67252 0.0
Cd179 Cd 0.68716 0.18529 0.69362 0.0
O180 O 0.66662 0.19047 0.71138 0.0
C181 C 0.65128 0.18348 0.70845 0.0
O182 O 0.64787 0.17223 0.69501 0.0
C183 C 0.71821 0.18572 0.66817 0.0
C184 C 0.72562 0.13656 0.71234 0.0
O185 O 0.71481 0.13279 0.69985 0.0
O186 O 0.72889 0.15197 0.71868 0.0
O187 O 0.38219 0.19847 0.68388 0.0
Cd188 Cd 0.35574 0.18179 0.67202 0.0
O189 O 0.3967 0.17734 0.68296 0.0
Cd190 Cd 0.37442 0.15792 0.678 0.0
O191 O 0.35766 0.13553 0.68434 0.0
C192 C 0.35742 0.13297 0.70003 0.0
O193 O 0.36668 0.14392 0.71121 0.0
C194 C 0.39615 0.19297 0.68583 0.0
C195 C 0.343 0.19718 0.64577 0.0
O196 O 0.33927 0.20102 0.66147 0.0
O197 O 0.35264 0.18595 0.64244 0.0
O198 O 0.37613 0.81234 0.68212 0.0
Cd199 Cd 0.38461 0.83177 0.70817 0.0
O200 O 0.37315 0.83331 0.66749 0.0
Cd201 Cd 0.376 0.85281 0.68935 0.0
O202 O 0.3677 0.87377 0.70552 0.0
C203 C 0.35623 0.88058 0.69898 0.0
O204 O 0.3506 0.87483 0.68336 0.0
C205 C 0.37291 0.8177 0.66803 0.0
C206 C 0.41344 0.82634 0.72615 0.0
O207 O 0.39839 0.82003 0.73025 0.0
O208 O 0.41489 0.83488 0.71333 0.0
O209 O 0.68543 0.92061 0.64031 0.0
Cd210 Cd 0.67856 0.90703 0.61124 0.0
O211 O 0.67595 0.89747 0.65139 0.0
Cd212 Cd 0.66776 0.88252 0.67225 0.0
O213 O 0.65721 0.86793 0.69254 0.0
C214 C 0.6436 0.85751 0.68962 0.0
O215 O 0.63634 0.85563 0.67434 0.0
C216 C 0.68241 0.91289 0.65343 0.0
C217 C 0.70539 0.89318 0.59519 0.0
O218 O 0.70389 0.90855 0.59441 0.0
O219 O 0.69435 0.88446 0.60377 0.0
O220 O 0.69641 0.86618 0.34598 0.0
Cd221 Cd 0.6784 0.84347 0.35866 0.0
O222 O 0.67627 0.88219 0.34872 0.0
Cd223 Cd 0.65548 0.86287 0.35418 0.0
O224 O 0.62965 0.85154 0.3458 0.0
C225 C 0.62592 0.85238 0.3302 0.0
O226 O 0.63774 0.85927 0.32038 0.0
C227 C 0.69143 0.88018 0.34475 0.0
C228 C 0.69519 0.82742 0.38192 0.0
O229 O 0.68942 0.8411 0.38668 0.0
O230 O 0.69329 0.82142 0.36609 0.0
O231 O 0.73143 0.17725 0.38544 0.0
Cd232 Cd 0.719 0.16739 0.35697 0.0
O233 O 0.71574 0.19684 0.39391 0.0
Cd234 Cd 0.69825 0.19422 0.37168 0.0
O235 O 0.67677 0.20036 0.35703 0.0
C236 C 0.66733 0.20976 0.36527 0.0
O237 O 0.67092 0.21481 0.38155 0.0
C238 C 0.72783 0.18873 0.39664 0.0
C239 C 0.72993 0.13709 0.34466 0.0
O240 O 0.73928 0.15116 0.34333 0.0
O241 O 0.71533 0.13731 0.35163 0.0
O242 O 0.32593 0.25991 0.37749 0.0
Cd243 Cd 0.3414 0.27153 0.35363 0.0
O244 O 0.33706 0.23687 0.37168 0.0
Cd245 Cd 0.3395 0.21076 0.3738 0.0
O246 O 0.33966 0.18388 0.36799 0.0
C247 C 0.32549 0.17413 0.36679 0.0
O248 O 0.31137 0.1805 0.36984 0.0
C249 C 0.32738 0.24526 0.38084 0.0
C250 C 0.37645 0.27123 0.35583 0.0
O251 O 0.36987 0.28391 0.36244 0.0
O252 O 0.36642 0.25866 0.3483 0.0
O253 O 0.35724 0.85309 0.35889 0.0
Cd254 Cd 0.33598 0.86919 0.37277 0.0
O255 O 0.35089 0.83202 0.37438 0.0
Cd256 Cd 0.33049 0.83985 0.3909 0.0
O257 O 0.31279 0.83182 0.411 0.0
C258 C 0.31697 0.83514 0.42682 0.0
O259 O 0.33154 0.84473 0.43112 0.0
C260 C 0.35971 0.83883 0.36278 0.0
C261 C 0.32647 0.89481 0.35525 0.0
O262 O 0.33966 0.89749 0.36518 0.0
O263 O 0.31804 0.87995 0.35323 0.0
O264 O 0.70407 0.6927 0.1879 0.0
Cd265 Cd 0.69498 0.67687 0.21214 0.0
O266 O 0.68132 0.70538 0.18731 0.0
Cd267 Cd 0.66573 0.69638 0.20848 0.0
O268 O 0.6426 0.69881 0.2236 0.0
C269 C 0.63698 0.71266 0.22338 0.0
O270 O 0.64549 0.72409 0.2148 0.0
C271 C 0.69573 0.70271 0.18133 0.0
C272 C 0.71482 0.65222 0.21872 0.0
O273 O 0.7017 0.64865 0.2087 0.0
O274 O 0.71882 0.66748 0.22534 0.0
O275 O 0.36839 0.69128 0.16729 0.0
Cd276 Cd 0.34349 0.67292 0.1535 0.0
O277 O 0.3818 0.67004 0.17077 0.0
Cd278 Cd 0.3607 0.64969 0.16463 0.0
O279 O 0.35027 0.62683 0.17563 0.0
C280 C 0.34233 0.62829 0.18966 0.0
O281 O 0.33943 0.64323 0.19611 0.0
C282 C 0.38162 0.68575 0.17196 0.0
C283 C 0.33011 0.68647 0.12615 0.0
O284 O 0.32519 0.68979 0.14155 0.0
O285 O 0.34137 0.67671 0.12364 0.0
O286 O 0.38879 0.30052 0.18501 0.0
Cd287 Cd 0.39951 0.31404 0.21327 0.0
O288 O 0.37425 0.32045 0.17927 0.0
Cd289 Cd 0.37773 0.33849 0.20239 0.0
O290 O 0.36965 0.361 0.21617 0.0
C291 C 0.3542 0.36305 0.21417 0.0
O292 O 0.34392 0.35145 0.20458 0.0
C293 C 0.37929 0.30644 0.17495 0.0
C294 C 0.42927 0.30313 0.22409 0.0
O295 O 0.41448 0.29502 0.22653 0.0
O296 O 0.43003 0.31628 0.21637 0.0
O297 O 0.71369 0.40244 0.16794 0.0
Cd298 Cd 0.70654 0.37984 0.14468 0.0
O299 O 0.69985 0.38836 0.18713 0.0
Cd300 Cd 0.68845 0.3835 0.2118 0.0
O301 O 0.67283 0.372 0.23149 0.0
C302 C 0.66741 0.38043 0.24443 0.0
O303 O 0.67162 0.39681 0.24647 0.0
C304 C 0.70888 0.4017 0.18332 0.0
C305 C 0.73517 0.37414 0.12552 0.0
O306 O 0.72664 0.38572 0.12255 0.0
O307 O 0.73018 0.36524 0.13756 0.0
O308 O 0.71551 0.39369 0.8805 0.0
Cd309 Cd 0.70174 0.37436 0.90005 0.0
O310 O 0.69096 0.38807 0.86686 0.0
Cd311 Cd 0.67133 0.38932 0.84762 0.0
O312 O 0.6499 0.38091 0.82972 0.0
C313 C 0.6525 0.37339 0.81507 0.0
O314 O 0.66824 0.37191 0.81068 0.0
C315 C 0.7062 0.39576 0.86797 0.0
C316 C 0.72321 0.35747 0.91759 0.0
O317 O 0.71766 0.35179 0.90239 0.0
O318 O 0.71892 0.37133 0.92434 0.0
O319 O 0.7475 0.68127 0.90148 0.0
Cd320 Cd 0.74004 0.66675 0.87279 0.0
O321 O 0.7268 0.69523 0.89696 0.0
Cd322 Cd 0.70726 0.71193 0.89972 0.0
O323 O 0.68575 0.72482 0.89418 0.0
C324 C 0.6877 0.73586 0.88379 0.0
O325 O 0.70278 0.73971 0.87714 0.0
C326 C 0.73856 0.69249 0.90686 0.0
C327 C 0.75743 0.64014 0.8617 0.0
O328 O 0.76289 0.65503 0.85823 0.0
O329 O 0.74405 0.63795 0.87083 0.0
O330 O 0.3719 0.70991 0.84196 0.0
Cd331 Cd 0.3785 0.69602 0.81392 0.0
O332 O 0.35855 0.68574 0.84778 0.0
Cd333 Cd 0.34248 0.66725 0.86129 0.0
O334 O 0.32838 0.642 0.86158 0.0
C335 C 0.31603 0.63736 0.85094 0.0
O336 O 0.31158 0.64829 0.84137 0.0
C337 C 0.36345 0.70123 0.85243 0.0
C338 C 0.41309 0.70351 0.80693 0.0
O339 O 0.40235 0.7125 0.80228 0.0
O340 O 0.40744 0.69085 0.81475 0.0
O341 O 0.39269 0.34986 0.85709 0.0
Cd342 Cd 0.36884 0.36371 0.86835 0.0
O343 O 0.38412 0.32603 0.86767 0.0
Cd344 Cd 0.36312 0.33345 0.88352 0.0
O345 O 0.34617 0.33087 0.90556 0.0
C346 C 0.35269 0.33439 0.92059 0.0
O347 O 0.36903 0.34028 0.92228 0.0
C348 C 0.39454 0.33483 0.85875 0.0
C349 C 0.35952 0.38688 0.8475 0.0
O350 O 0.3709 0.39133 0.8594 0.0
O351 O 0.35264 0.37146 0.84534 0.0
Cu352 Cu 0.28393 0.25917 0.05517 0.0
N353 N 0.28572 0.27903 0.04496 0.0
N354 N 0.29292 0.29693 0.0256 0.0
C355 C 0.29091 0.28079 0.02884 0.0
C356 C 0.28883 0.30565 0.04033 0.0
C357 C 0.28445 0.29458 0.05225 0.0
O358 O 0.27756 0.24098 0.037 0.0
C359 C 0.3109 0.24859 0.07422 0.0
O360 O 0.30118 0.23406 0.07452 0.0
H361 H 0.29398 0.27049 0.01998 0.0
H362 H 0.2812 0.29774 0.06549 0.0
N363 N 0.26708 0.25834 0.07197 0.0
N364 N 0.25079 0.24985 0.09358 0.0
C365 C 0.26426 0.24729 0.08361 0.0
C366 C 0.25491 0.26819 0.07462 0.0
C367 C 0.24487 0.26301 0.08792 0.0
C368 C 0.26368 0.24171 0.02917 0.0
O369 O 0.25495 0.25377 0.03452 0.0
H370 H 0.27162 0.23727 0.08447 0.0
H371 H 0.25329 0.2783 0.06725 0.0
O372 O 0.30598 0.25963 0.06597 0.0
H373 H 0.28928 0.3191 0.04249 0.0
H374 H 0.23411 0.26859 0.09307 0.0
Cu375 Cu 0.82371 0.29873 0.01143 0.0
N376 N 0.82846 0.3199 0.02367 0.0
N377 N 0.82322 0.34053 0.0433 0.0
C378 C 0.8219 0.32384 0.03912 0.0
C379 C 0.83104 0.34741 0.02997 0.0
C380 C 0.83435 0.33461 0.01788 0.0
O381 O 0.81963 0.28311 0.02848 0.0
C382 C 0.80667 0.30674 0.9834 0.0
O383 O 0.8224 0.31257 0.9796 0.0
H384 H 0.81464 0.31466 0.04631 0.0
H385 H 0.83934 0.33592 0.0052 0.0
N386 N 0.84194 0.29375 0.99778 0.0
N387 N 0.85579 0.28247 0.97571 0.0
C388 C 0.84068 0.28271 0.98354 0.0
C389 C 0.85843 0.30076 0.99911 0.0
C390 C 0.86703 0.29385 0.98544 0.0
C391 C 0.82228 0.26796 0.02633 0.0
O392 O 0.82616 0.26138 0.01104 0.0
H393 H 0.82873 0.27546 0.97869 0.0
H394 H 0.86373 0.31044 0.0091 0.0
O395 O 0.804 0.29937 0.99685 0.0
H396 H 0.83313 0.36065 0.02858 0.0
H397 H 0.88045 0.29701 0.98284 0.0
Cu398 Cu 0.776 0.78068 0.04905 0.0
N399 N 0.77628 0.79867 0.03601 0.0
N400 N 0.78288 0.81353 0.01396 0.0
C401 C 0.78379 0.7991 0.02065 0.0
C402 C 0.77444 0.82258 0.02564 0.0
C403 C 0.77033 0.81336 0.03921 0.0
O404 O 0.77347 0.761 0.03211 0.0
C405 C 0.7989 0.79823 0.07283 0.0
O406 O 0.78729 0.80813 0.0725 0.0
H407 H 0.79021 0.78913 0.01473 0.0
H408 H 0.76375 0.81726 0.05069 0.0
N409 N 0.75778 0.7784 0.06423 0.0
N410 N 0.74167 0.76873 0.08543 0.0
C411 C 0.75604 0.76781 0.07635 0.0
C412 C 0.74401 0.78628 0.06562 0.0
C413 C 0.73408 0.78038 0.0787 0.0
C414 C 0.75929 0.75837 0.02389 0.0
O415 O 0.74776 0.76796 0.02853 0.0
H416 H 0.76528 0.75972 0.07854 0.0
H417 H 0.74124 0.79548 0.05755 0.0
O418 O 0.79685 0.78445 0.063 0.0
H419 H 0.77143 0.83496 0.02449 0.0
H420 H 0.72203 0.78414 0.08269 0.0
Cu421 Cu 0.30166 0.7674 1.00257 0.0
N422 N 0.30285 0.78815 0.01573 0.0
N423 N 0.2949 0.80666 0.03621 0.0
C424 C 0.29038 0.79197 0.02634 0.0
C425 C 0.31091 0.81239 0.03157 0.0
C426 C 0.31578 0.80094 0.0188 0.0
O427 O 0.29847 0.75039 0.01842 0.0
C428 C 0.2861 0.77746 0.9756 0.0
O429 O 0.30043 0.78802 0.97732 0.0
H430 H 0.2786 0.78355 0.02754 0.0
H431 H 0.32808 0.80152 0.01277 0.0
N432 N 0.32146 0.765 0.99027 0.0
N433 N 0.33742 0.75666 0.96847 0.0
C434 C 0.32154 0.75814 0.97385 0.0
C435 C 0.33789 0.7679 0.99555 0.0
C436 C 0.34781 0.7627 0.98208 0.0
C437 C 0.30795 0.75365 0.03188 0.0
O438 O 0.31896 0.76754 0.03377 0.0
H439 H 0.31008 0.75377 0.96617 0.0
H440 H 0.34232 0.77308 0.00835 0.0
O441 O 0.28325 0.76638 0.98592 0.0
H442 H 0.3187 0.82376 0.03731 0.0
H443 H 0.36153 0.76327 0.9823 0.0
Cu444 Cu 0.01285 0.28311 0.289 0.0
N445 N 0.02213 0.26326 0.28918 0.0
N446 N 0.04073 0.24529 0.28348 0.0
C447 C 0.03642 0.26027 0.28093 0.0
C448 C 0.02847 0.23845 0.29361 0.0
C449 C 0.01702 0.24961 0.29715 0.0
O450 O 0.03227 0.30074 0.28752 0.0
C451 C 0.98293 0.26933 0.27241 0.0
O452 O 0.98146 0.26286 0.28702 0.0
H453 H 0.0435 0.269 0.27315 0.0
H454 H 0.00589 0.24794 0.30509 0.0
N455 N 1.00127 0.28838 0.30923 0.0
N456 N 0.98249 0.29901 0.32697 0.0
C457 C 0.98863 0.29781 0.31088 0.0
C458 C 0.00326 0.28346 0.32479 0.0
C459 C 0.99172 0.29 0.33576 0.0
C460 C 0.04387 0.30091 0.29881 0.0
O461 O 0.04128 0.29037 0.31036 0.0
H462 H 0.98407 0.30363 0.30042 0.0
H463 H 0.01232 0.27552 0.32789 0.0
O464 O 0.99641 0.27942 0.26994 0.0
H465 H 0.02799 0.22644 0.29842 0.0
H466 H 0.99001 0.28792 0.34906 0.0
Cu467 Cu 0.78098 0.00955 0.2665 0.0
N468 N 0.77991 0.0199 0.2466 0.0
N469 N 0.78607 0.04052 0.22993 0.0
C470 C 0.78362 0.03654 0.24611 0.0
C471 C 0.78353 0.0257 0.21987 0.0
C472 C 0.7799 0.01302 0.23019 0.0
O473 O 0.77869 0.02667 0.28552 0.0
C474 C 0.80707 0.99078 0.27483 0.0
O475 O 0.79704 0.98589 0.28718 0.0
H476 H 0.78559 0.04541 0.25755 0.0
H477 H 0.77884 0.99974 0.2261 0.0
N478 N 0.76396 0.99087 0.26669 0.0
N479 N 0.74829 0.96844 0.27585 0.0
C480 C 0.75943 0.98256 0.28029 0.0
C481 C 0.75518 0.98181 0.25323 0.0
C482 C 0.74554 0.96796 0.25883 0.0
C483 C 0.76404 0.02854 0.2914 0.0
O484 O 0.75065 0.01778 0.28573 0.0
H485 H 0.76468 0.98649 0.29308 0.0
H486 H 0.75601 0.98478 0.24017 0.0
O487 O 0.80297 1.00172 0.26589 0.0
H488 H 0.7856 0.02398 0.20619 0.0
H489 H 0.73727 0.95821 0.25094 0.0
Cu490 Cu 0.03871 0.76922 0.29153 0.0
N491 N 0.03095 0.78961 0.29026 0.0
N492 N 0.01302 0.80694 0.28407 0.0
C493 C 0.01562 0.79088 0.28367 0.0
C494 C 0.02741 0.81618 0.29122 0.0
C495 C 0.03846 0.80542 0.29505 0.0
O496 O 0.0182 0.75294 0.29183 0.0
C497 C 0.05105 0.76949 0.25751 0.0
O498 O 0.03787 0.77693 0.25479 0.0
H499 H 0.00675 0.78012 0.27826 0.0
H500 H 0.05104 0.80888 0.30085 0.0
N501 N 0.05196 0.76986 0.31131 0.0
N502 N 0.07187 0.76378 0.32873 0.0
C503 C 0.06389 0.76006 0.31325 0.0
C504 C 0.05236 0.7802 0.32602 0.0
C505 C 0.06458 0.77644 0.33683 0.0
C506 C 0.00849 0.75536 0.30449 0.0
O507 O 0.01411 0.76687 0.31717 0.0
H508 H 0.06661 0.75037 0.30345 0.0
H509 H 0.04445 0.78991 0.32862 0.0
O510 O 0.05297 0.76447 0.27205 0.0
H511 H 0.0298 0.8297 0.29362 0.0
H512 H 0.0681 0.7828 0.34948 0.0
Cu513 Cu 0.28053 0.01722 0.28489 0.0
N514 N 0.29974 0.0337 0.29409 0.0
N515 N 0.31428 0.05678 0.30838 0.0
C516 C 0.2991 0.0467 0.3062 0.0
C517 C 0.32488 0.04971 0.29728 0.0
C518 C 0.31585 0.03543 0.28848 0.0
O519 O 0.27087 0.03541 0.27371 0.0
C520 C 0.28246 0.99088 0.30697 0.0
O521 O 0.2676 0.99467 0.31209 0.0
H522 H 0.28754 0.04913 0.31266 0.0
H523 H 0.32053 0.02718 0.27836 0.0
N524 N 0.26127 1.00076 0.27568 0.0
N525 N 0.24622 0.97715 0.26303 0.0
C526 C 0.26194 0.986 0.26623 0.0
C527 C 0.24466 1.00138 0.27855 0.0
C528 C 0.23532 0.98682 0.27073 0.0
C529 C 0.26126 0.04471 0.28185 0.0
O530 O 0.25732 0.04238 0.29775 0.0
H531 H 0.27374 0.9816 0.26236 0.0
H532 H 0.23971 0.01151 0.28608 0.0
O533 O 0.29047 0.99896 0.29572 0.0
H534 H 0.33811 0.05466 0.2954 0.0
H535 H 0.22158 0.9836 0.2708 0.0
Cu536 Cu 0.00551 0.78671 0.74673 0.0
N537 N 0.01855 0.76945 0.74762 0.0
N538 N 0.03931 0.75395 0.74135 0.0
C539 C 0.0322 0.76732 0.73785 0.0
C540 C 0.02965 0.74743 0.75385 0.0
C541 C 0.01689 0.75701 0.75769 0.0
O542 O 0.02191 0.8056 0.74134 0.0
C543 C 0.9766 0.76674 0.73361 0.0
O544 O 0.9788 0.76075 0.74816 0.0
H545 H 0.03667 0.77539 0.72823 0.0
H546 H 0.00715 0.75506 0.76721 0.0
N547 N 0.99555 0.79199 0.76793 0.0
N548 N 0.97768 0.80162 0.78736 0.0
C549 C 0.9815 0.79938 0.77056 0.0
C550 C 1.00082 0.7895 0.78359 0.0
C551 C 0.98978 0.79535 0.79559 0.0
C552 C 0.02338 0.8202 0.74955 0.0
O553 O 0.01108 0.82416 0.75968 0.0
H554 H 0.97423 0.80302 0.76032 0.0
H555 H 0.01201 0.78398 0.78611 0.0
O556 O 0.98729 0.77904 0.72976 0.0
H557 H 0.03175 0.73665 0.76001 0.0
H558 H 0.99079 0.79534 0.80934 0.0
Cu559 Cu 0.27881 0.995 0.77515 0.0
N560 N 0.28321 0.00779 0.75557 0.0
N561 N 0.29294 0.0277 0.7391 0.0
C562 C 0.29409 0.02205 0.75455 0.0
C563 C 0.28097 0.01644 0.73012 0.0
C564 C 0.275 0.0042 0.74032 0.0
O565 O 0.26938 0.01455 0.78833 0.0
C566 C 0.30443 0.9748 0.76414 0.0
O567 O 0.31386 0.98649 0.77443 0.0
H568 H 0.30233 0.02835 0.76502 0.0
H569 H 0.26525 0.9935 0.73694 0.0
N570 N 0.2738 0.98185 0.79441 0.0
N571 N 0.2623 0.96132 0.80931 0.0
C572 C 0.26443 0.96653 0.79362 0.0
C573 C 0.27787 0.98647 0.8111 0.0
C574 C 0.27069 0.97382 0.82034 0.0
C575 C 0.27953 0.02584 0.79732 0.0
O576 O 0.29582 0.02451 0.7978 0.0
H577 H 0.25889 0.95956 0.78186 0.0
H578 H 0.28529 0.99825 0.81623 0.0
O579 O 0.2887 0.97569 0.7622 0.0
H580 H 0.27683 0.01696 0.71709 0.0
H581 H 0.27161 0.97379 0.8341 0.0
Cu582 Cu 0.06448 0.29606 0.82743 0.0
N583 N 0.05163 0.31346 0.82778 0.0
N584 N 0.03165 0.3276 0.81936 0.0
C585 C 0.03763 0.31283 0.81793 0.0
C586 C 0.04235 0.33795 0.83062 0.0
C587 C 0.05468 0.32917 0.83581 0.0
O588 O 0.0487 0.27564 0.82132 0.0
C589 C 0.09351 0.3114 0.81248 0.0
O590 O 0.09404 0.3215 0.82687 0.0
H591 H 0.03242 0.30191 0.80927 0.0
H592 H 0.06536 0.33402 0.84443 0.0
N593 N 0.07532 0.29568 0.84842 0.0
N594 N 0.09345 0.28908 0.86738 0.0
C595 C 0.08838 0.28735 0.85077 0.0
C596 C 0.07196 0.30301 0.86405 0.0
C597 C 0.08311 0.2989 0.87581 0.0
C598 C 0.03971 0.26879 0.83273 0.0
O599 O 0.04259 0.27468 0.84893 0.0
H600 H 0.09381 0.27989 0.84048 0.0
H601 H 0.06201 0.31065 0.86671 0.0
O602 O 0.08157 0.29901 0.81006 0.0
H603 H 0.04148 0.35098 0.83465 0.0
H604 H 0.08363 0.30293 0.88945 0.0
Cu605 Cu 0.75665 0.01433 0.78829 0.0
N606 N 0.7562 0.0244 0.81084 0.0
N607 N 0.76332 0.04366 0.83332 0.0
C608 C 0.76718 0.03793 0.81721 0.0
C609 C 0.74936 0.03322 0.83732 0.0
C610 C 0.74506 0.02124 0.82342 0.0
O611 O 0.76091 0.03233 0.77353 0.0
C612 C 0.76908 0.98626 0.79564 0.0
O613 O 0.75407 0.98453 0.80287 0.0
H614 H 0.77731 0.04396 0.80978 0.0
H615 H 0.73434 0.01122 0.82243 0.0
N616 N 0.73569 1.00181 0.78112 0.0
N617 N 0.717 0.98377 0.76433 0.0
C618 C 0.73361 0.98957 0.76791 0.0
C619 C 0.71985 0.00391 0.78613 0.0
C620 C 0.70827 0.99278 0.77578 0.0
C621 C 0.75156 0.04377 0.77655 0.0
O622 O 0.7404 0.04255 0.78889 0.0
H623 H 0.74412 0.98561 0.76053 0.0
H624 H 0.71691 0.01327 0.79616 0.0
O625 O 0.77351 0.99907 0.78776 0.0
H626 H 0.74264 0.03431 0.8493 0.0
H627 H 0.69452 0.99166 0.7764 0.0
Cu628 Cu 0.27406 0.73496 0.53575 0.0
N629 N 0.29622 0.73877 0.54503 0.0
N630 N 0.31793 0.74811 0.5635 0.0
C631 C 0.3009 0.7463 0.56087 0.0
C632 C 0.32421 0.74146 0.54872 0.0
C633 C 0.31078 0.73568 0.53737 0.0
O634 O 0.25832 0.73183 0.5547 0.0
C635 C 0.27957 0.75357 0.50862 0.0
O636 O 0.28824 0.7413 0.504 0.0
H637 H 0.29201 0.75084 0.57007 0.0
H638 H 0.31161 0.72985 0.52436 0.0
N639 N 0.27055 0.71533 0.52031 0.0
N640 N 0.26073 0.6974 0.49742 0.0
C641 C 0.25931 0.71202 0.50704 0.0
C642 C 0.27932 0.70232 0.51917 0.0
C643 C 0.27328 0.69125 0.50511 0.0
C644 C 0.26107 0.72013 0.56336 0.0
O645 O 0.27357 0.71176 0.55865 0.0
H646 H 0.25052 0.72039 0.50437 0.0
H647 H 0.28968 0.70119 0.52769 0.0
O648 O 0.27178 0.75373 0.52285 0.0
H649 H 0.33754 0.74087 0.54627 0.0
H650 H 0.27823 0.67987 0.50057 0.0
Cu651 Cu 0.78543 0.78858 0.49395 0.0
N652 N 0.80324 0.78364 0.47963 0.0
N653 N 0.81666 0.77597 0.45559 0.0
C654 C 0.80391 0.78376 0.4625 0.0
C655 C 0.82458 0.77129 0.46907 0.0
C656 C 0.81628 0.776 0.48381 0.0
O657 O 0.76431 0.78628 0.48068 0.0
C658 C 0.79542 0.77917 0.52478 0.0
O659 O 0.80664 0.79268 0.52391 0.0
H660 H 0.79458 0.7886 0.45522 0.0
H661 H 0.81885 0.77297 0.49651 0.0
N662 N 0.78916 0.81093 0.50333 0.0
N663 N 0.78433 0.83391 0.51983 0.0
C664 C 0.78121 0.81705 0.51723 0.0
C665 C 0.79763 0.82435 0.49682 0.0
C666 C 0.79462 0.83862 0.50699 0.0
C667 C 0.76022 0.77622 0.46718 0.0
O668 O 0.76932 0.76426 0.46265 0.0
H669 H 0.77248 0.8093 0.52469 0.0
H670 H 0.8048 0.82382 0.4851 0.0
O671 O 0.78437 0.77464 0.5127 0.0
H672 H 0.83482 0.76384 0.4683 0.0
H673 H 0.79919 0.85143 0.50482 0.0
Cu674 Cu 0.80682 0.25082 0.55009 0.0
N675 N 0.80632 0.23419 0.53147 0.0
N676 N 0.79763 0.22009 0.50606 0.0
C677 C 0.79671 0.2338 0.51728 0.0
C678 C 0.80829 0.21148 0.51354 0.0
C679 C 0.81366 0.22023 0.52922 0.0
O680 O 0.8049 0.2713 0.53989 0.0
C681 C 0.78918 0.23016 0.57146 0.0
O682 O 0.8016 0.2218 0.56651 0.0
H683 H 0.78873 0.24318 0.51553 0.0
H684 H 0.82197 0.21642 0.53844 0.0
N685 N 0.82695 0.25416 0.5633 0.0
N686 N 0.8451 0.26516 0.58486 0.0
C687 C 0.82953 0.26484 0.57778 0.0
C688 C 0.84139 0.24739 0.56106 0.0
C689 C 0.85261 0.25412 0.57441 0.0
C690 C 0.8185 0.27877 0.53386 0.0
O691 O 0.83291 0.27311 0.536 0.0
H692 H 0.82003 0.27216 0.58306 0.0
H693 H 0.84375 0.23844 0.55039 0.0
O694 O 0.78843 0.24397 0.56548 0.0
H695 H 0.8119 0.19968 0.50815 0.0
H696 H 0.8654 0.25138 0.57606 0.0
Cu697 Cu 0.26027 0.25318 0.53376 0.0
N698 N 0.23838 0.25189 0.54253 0.0
N699 N 0.21721 0.26186 0.55714 0.0
C700 C 0.23423 0.2624 0.55582 0.0
C701 C 0.21036 0.25043 0.5442 0.0
C702 C 0.22347 0.24432 0.53516 0.0
O703 O 0.27559 0.2506 0.55216 0.0
C704 C 0.27747 0.28256 0.51918 0.0
O705 O 0.29183 0.27637 0.51923 0.0
H706 H 0.24356 0.27145 0.56331 0.0
H707 H 0.2222 0.23604 0.52329 0.0
N708 N 0.26139 0.2368 0.51517 0.0
N709 N 0.26915 0.22519 0.48979 0.0
C710 C 0.27158 0.23872 0.50162 0.0
C711 C 0.25222 0.2214 0.51181 0.0
C712 C 0.25687 0.21425 0.49599 0.0
C713 C 0.29006 0.24583 0.54985 0.0
O714 O 0.29591 0.24367 0.53423 0.0
H715 H 0.28031 0.24998 0.50016 0.0
H716 H 0.24269 0.21584 0.52015 0.0
O717 O 0.26416 0.27496 0.52549 0.0
H718 H 0.19692 0.24744 0.54088 0.0
H719 H 0.25168 0.20203 0.48957 0.0
Cu720 Cu 0.78596 0.51198 0.76935 0.0
N721 N 0.7843 0.52153 0.74899 0.0
N722 N 0.78649 0.54067 0.73044 0.0
C723 C 0.78598 0.53797 0.74713 0.0
C724 C 0.78499 0.52528 0.72151 0.0
C725 C 0.78376 0.51356 0.73296 0.0
O726 O 0.78448 0.52882 0.78861 0.0
C727 C 0.81092 0.49301 0.77917 0.0
O728 O 0.80101 0.49029 0.79227 0.0
H729 H 0.78778 0.54777 0.75781 0.0
H730 H 0.78335 0.5002 0.72982 0.0
N731 N 0.76809 0.49438 0.77085 0.0
N732 N 0.75125 0.47389 0.78207 0.0
C733 C 0.76279 0.48792 0.78533 0.0
C734 C 0.75939 0.48426 0.758 0.0
C735 C 0.74901 0.47159 0.76488 0.0
C736 C 0.79611 0.54111 0.79311 0.0
O737 O 0.81069 0.54228 0.78504 0.0
H738 H 0.76799 0.49293 0.79793 0.0
H739 H 0.76085 0.48559 0.74453 0.0
O740 O 0.8072 0.50284 0.76874 0.0
H741 H 0.78526 0.52266 0.70769 0.0
H742 H 0.74074 0.46131 0.75773 0.0
Cu743 Cu 0.28793 0.50097 0.76496 0.0
N744 N 0.30629 0.4893 0.76719 0.0
N745 N 0.32224 0.47179 0.77702 0.0
C746 C 0.30696 0.47729 0.77756 0.0
C747 C 0.33149 0.48071 0.7658 0.0
C748 C 0.32163 0.49148 0.75977 0.0
O749 O 0.26811 0.48462 0.75737 0.0
C750 C 0.29755 0.52157 0.79523 0.0
O751 O 0.31265 0.51827 0.79034 0.0
H752 H 0.29658 0.47307 0.78571 0.0
H753 H 0.32551 0.50047 0.75085 0.0
N754 N 0.29193 0.51624 0.74876 0.0
N755 N 0.28775 0.5381 0.73521 0.0
C756 C 0.28554 0.53075 0.74979 0.0
C757 C 0.29864 0.51439 0.73304 0.0
C758 C 0.29619 0.52793 0.72468 0.0
C759 C 0.25553 0.48867 0.74962 0.0
O760 O 0.25503 0.50454 0.7483 0.0
H761 H 0.27857 0.53534 0.76074 0.0
H762 H 0.30402 0.50351 0.72766 0.0
O763 O 0.28445 0.51433 0.78649 0.0
H764 H 0.34446 0.47957 0.76217 0.0
H765 H 0.29934 0.52958 0.7115 0.0
Cu766 Cu 0.29342 0.4934 0.2777 0.0
N767 N 0.29224 0.48935 0.3006 0.0
N768 N 0.28319 0.47533 0.32253 0.0
C769 C 0.28715 0.47421 0.30578 0.0
C770 C 0.28614 0.49185 0.32819 0.0
C771 C 0.29175 0.50048 0.31459 0.0
O772 O 0.29885 0.47335 0.26404 0.0
C773 C 0.25843 0.49698 0.28016 0.0
O774 O 0.25702 0.48417 0.2891 0.0
H775 H 0.28473 0.46278 0.29703 0.0
H776 H 0.29402 0.51394 0.31458 0.0
N777 N 0.31017 0.5114 0.27455 0.0
N778 N 0.32259 0.53418 0.26344 0.0
C779 C 0.30851 0.52264 0.26361 0.0
C780 C 0.32584 0.51598 0.28168 0.0
C781 C 0.3336 0.53003 0.27475 0.0
C782 C 0.312 0.46787 0.26911 0.0
O783 O 0.32062 0.4761 0.28253 0.0
H784 H 0.29725 0.52213 0.25566 0.0
H785 H 0.33125 0.50957 0.29118 0.0
O786 O 0.2721 0.50074 0.27204 0.0
H787 H 0.28356 0.49734 0.34097 0.0
H788 H 0.34626 0.53675 0.2779 0.0
Cu789 Cu 0.77727 0.52547 0.28663 0.0
N790 N 0.79695 0.51722 0.29284 0.0
N791 N 0.81316 0.49994 0.30275 0.0
C792 C 0.79721 0.50226 0.29859 0.0
C793 C 0.82331 0.51408 0.2994 0.0
C794 C 0.81329 0.5247 0.29334 0.0
O795 O 0.76158 0.50675 0.2755 0.0
C796 C 0.77509 0.54085 0.32091 0.0
O797 O 0.78769 0.53297 0.32447 0.0
H798 H 0.78576 0.49351 0.30013 0.0
H799 H 0.81758 0.5371 0.28984 0.0
N800 N 0.78148 0.54143 0.27112 0.0
N801 N 0.77651 0.56228 0.25637 0.0
C802 C 0.77044 0.55179 0.26786 0.0
C803 C 0.79507 0.54542 0.26131 0.0
C804 C 0.79206 0.55833 0.25224 0.0
C805 C 0.76706 0.49982 0.26167 0.0
O806 O 0.78233 0.50569 0.25653 0.0
H807 H 0.75825 0.55177 0.27407 0.0
H808 H 0.80632 0.53935 0.2607 0.0
O809 O 0.7677 0.53737 0.30627 0.0
H810 H 0.83701 0.51667 0.3012 0.0
H811 H 0.80056 0.56417 0.24314 0.0
Cu812 Cu 0.52445 0.26643 0.77424 0.0
N813 N 0.51372 0.27238 0.79478 0.0
N814 N 0.49535 0.28337 0.81267 0.0
C815 C 0.49914 0.27903 0.79617 0.0
C816 C 0.50808 0.2794 0.82206 0.0
C817 C 0.51939 0.27257 0.81096 0.0
O818 O 0.50737 0.26134 0.75596 0.0
C819 C 0.55565 0.28641 0.77967 0.0
O820 O 0.55697 0.27541 0.79043 0.0
H821 H 0.49172 0.2811 0.78526 0.0
H822 H 0.53108 0.26835 0.81443 0.0
N823 N 0.53493 0.24738 0.77497 0.0
N824 N 0.55353 0.2295 0.76887 0.0
C825 C 0.54835 0.24388 0.76547 0.0
C826 C 0.53131 0.2347 0.78463 0.0
C827 C 0.54276 0.22361 0.78086 0.0
C828 C 0.49401 0.25137 0.75891 0.0
O829 O 0.49267 0.24524 0.77371 0.0
H830 H 0.55421 0.2518 0.75625 0.0
H831 H 0.52119 0.2337 0.79387 0.0
O832 O 0.54202 0.2851 0.77075 0.0
H833 H 0.50912 0.28129 0.83591 0.0
H834 H 0.54335 0.21231 0.78676 0.0
Cu835 Cu 0.55458 0.78652 0.80219 0.0
N836 N 0.56709 0.78759 0.82264 0.0
N837 N 0.5871 0.78282 0.84079 0.0
C838 C 0.58135 0.78076 0.82435 0.0
C839 C 0.57595 0.79132 0.84973 0.0
C840 C 0.56363 0.79423 0.83852 0.0
O841 O 0.57017 0.79172 0.78392 0.0
C842 C 0.53404 0.75685 0.80899 0.0
O843 O 0.53879 0.76234 0.8249 0.0
H844 H 0.58707 0.77398 0.81375 0.0
H845 H 0.55271 0.80037 0.84182 0.0
N846 N 0.53907 0.80172 0.80309 0.0
N847 N 0.51667 0.81279 0.79485 0.0
C848 C 0.52594 0.80017 0.79189 0.0
C849 C 0.5382 0.81592 0.81352 0.0
C850 C 0.52427 0.82272 0.80852 0.0
C851 C 0.57993 0.80574 0.78606 0.0
O852 O 0.57935 0.81541 0.8006 0.0
H853 H 0.52322 0.78987 0.78176 0.0
H854 H 0.54716 0.82112 0.8238 0.0
O855 O 0.54067 0.76475 0.79695 0.0
H856 H 0.57657 0.79517 0.8634 0.0
H857 H 0.52032 0.83426 0.81422 0.0
Cu858 Cu 0.49055 0.7688 0.27939 0.0
N859 N 0.47698 0.77172 0.29871 0.0
N860 N 0.45669 0.78076 0.31562 0.0
C861 C 0.46242 0.77843 0.29941 0.0
C862 C 0.46811 0.77512 0.32541 0.0
C863 C 0.4806 0.76962 0.31497 0.0
O864 O 0.47582 0.76207 0.25928 0.0
C865 C 0.50793 0.80202 0.28849 0.0
O866 O 0.49535 0.80385 0.29906 0.0
H867 H 0.45647 0.78195 0.28825 0.0
H868 H 0.4919 0.76509 0.31904 0.0
N869 N 0.50415 0.7521 0.28097 0.0
N870 N 0.52601 0.73789 0.27535 0.0
C871 C 0.51833 0.75088 0.27178 0.0
C872 C 0.50271 0.73943 0.29077 0.0
C873 C 0.51621 0.73066 0.28736 0.0
C874 C 0.46618 0.74808 0.25942 0.0
O875 O 0.46671 0.74 0.27293 0.0
H876 H 0.52306 0.75962 0.26285 0.0
H877 H 0.49258 0.73675 0.29972 0.0
O878 O 0.50694 0.78887 0.2778 0.0
H879 H 0.46795 0.7756 0.33923 0.0
H880 H 0.51849 0.71972 0.29313 0.0
Cu881 Cu 0.54489 0.27769 0.31883 0.0
N882 N 0.52904 0.27783 0.33629 0.0
N883 N 0.50365 0.27656 0.34882 0.0
C884 C 0.51208 0.27631 0.33387 0.0
C885 C 0.51588 0.27844 0.36116 0.0
C886 C 0.53156 0.27918 0.35337 0.0
O887 O 0.53115 0.272 0.2978 0.0
C888 C 0.57148 0.25728 0.31297 0.0
O889 O 0.57275 0.26241 0.29769 0.0
H890 H 0.50609 0.27522 0.32134 0.0
H891 H 0.54389 0.2805 0.35966 0.0
N892 N 0.55726 0.29919 0.31952 0.0
N893 N 0.5769 0.32059 0.31405 0.0
C894 C 0.57225 0.3038 0.31206 0.0
C895 C 0.55235 0.31351 0.32668 0.0
C896 C 0.56442 0.32674 0.3233 0.0
C897 C 0.53322 0.27974 0.28456 0.0
O898 O 0.5472 0.29038 0.28321 0.0
H899 H 0.57915 0.29508 0.30457 0.0
H900 H 0.54059 0.31427 0.3335 0.0
O901 O 0.56008 0.26186 0.32308 0.0
H902 H 0.51368 0.27894 0.3748 0.0
H903 H 0.56389 0.33987 0.32715 0.0
H904 H 0.2253 0.17795 0.16783 0.0
H905 H 0.19563 0.21777 0.1816 0.0
H906 H 0.23766 0.19263 0.14416 0.0
H907 H 0.20819 0.23249 0.15841 0.0
H908 H 0.26797 0.23263 0.11368 0.0
H909 H 0.25659 0.2173 0.13719 0.0
H910 H 0.20679 0.23013 0.12781 0.0
H911 H 0.21818 0.24552 0.10451 0.0
C912 C 0.22153 0.18988 0.16592 0.0
C913 C 0.20937 0.19659 0.17657 0.0
C914 C 0.22866 0.19833 0.15239 0.0
C915 C 0.2238 0.21369 0.14923 0.0
C916 C 0.21196 0.22053 0.16017 0.0
C917 C 0.20482 0.2121 0.17359 0.0
C918 C 0.25456 0.23206 0.11655 0.0
C919 C 0.24402 0.24043 0.10724 0.0
C920 C 0.24803 0.22324 0.13004 0.0
C921 C 0.23079 0.22255 0.13452 0.0
C922 C 0.22022 0.23069 0.125 0.0
C923 C 0.22675 0.23953 0.11159 0.0
H924 H 0.86528 0.21269 0.09807 0.0
H925 H 0.82534 0.23252 0.12754 0.0
H926 H 0.8564 0.2246 0.07307 0.0
H927 H 0.81614 0.24406 0.10239 0.0
H928 H 0.81935 0.27953 0.06017 0.0
H929 H 0.8254 0.26599 0.08506 0.0
H930 H 0.83417 0.22205 0.05178 0.0
H931 H 0.82858 0.2358 0.0268 0.0
C932 C 0.85453 0.2195 0.09919 0.0
C933 C 0.84608 0.22172 0.11484 0.0
C934 C 0.84933 0.22622 0.08479 0.0
C935 C 0.8355 0.23527 0.08565 0.0
C936 C 0.82696 0.23735 0.10129 0.0
C937 C 0.83221 0.23068 0.11571 0.0
C938 C 0.82235 0.26689 0.05814 0.0
C939 C 0.82359 0.25881 0.04145 0.0
C940 C 0.82577 0.25909 0.07245 0.0
C941 C 0.83044 0.24297 0.07046 0.0
C942 C 0.83096 0.2346 0.05379 0.0
C943 C 0.8276 0.24244 0.03946 0.0
H944 H 0.87802 0.85388 0.142 0.0
H945 H 0.85537 0.81185 0.1676 0.0
H946 H 0.86328 0.84114 0.11547 0.0
H947 H 0.8403 0.79924 0.14102 0.0
H948 H 0.81891 0.77823 0.08713 0.0
H949 H 0.84069 0.78722 0.10999 0.0
H950 H 0.83293 0.83855 0.10885 0.0
H951 H 0.81157 0.8297 0.08631 0.0
C952 C 0.8701 0.84179 0.14192 0.0
C953 C 0.86765 0.83403 0.15702 0.0
C954 C 0.86161 0.8345 0.1267 0.0
C955 C 0.85036 0.81933 0.1262 0.0
C956 C 0.84891 0.81091 0.14095 0.0
C957 C 0.8575 0.81818 0.15621 0.0
C958 C 0.82216 0.79144 0.09161 0.0
C959 C 0.8135 0.80326 0.085 0.0
C960 C 0.83451 0.79657 0.10474 0.0
C961 C 0.83859 0.81361 0.11121 0.0
C962 C 0.83034 0.82538 0.10403 0.0
C963 C 0.81796 0.82027 0.09117 0.0
H964 H 0.21827 0.83752 0.10749 0.0
H965 H 0.25517 0.81811 0.13703 0.0
H966 H 0.23605 0.83484 0.08224 0.0
H967 H 0.27281 0.81523 0.11173 0.0
H968 H 0.30724 0.8236 0.06651 0.0
H969 H 0.29058 0.83133 0.09163 0.0
H970 H 0.24407 0.81151 0.06295 0.0
H971 H 0.2607 0.8042 0.03787 0.0
C972 C 0.23019 0.83271 0.10861 0.0
C973 C 0.23525 0.82793 0.12424 0.0
C974 C 0.24035 0.83115 0.09413 0.0
C975 C 0.25584 0.82482 0.09498 0.0
C976 C 0.26107 0.82036 0.11071 0.0
C977 C 0.25088 0.82187 0.12517 0.0
C978 C 0.29347 0.82126 0.0655 0.0
C979 C 0.28526 0.8132 0.05028 0.0
C980 C 0.28393 0.82551 0.07992 0.0
C981 C 0.26601 0.82191 0.07932 0.0
C982 C 0.25783 0.81456 0.06382 0.0
C983 C 0.26735 0.81024 0.0495 0.0
H984 H 0.20539 0.80781 0.9189 0.0
H985 H 0.23719 0.78829 0.87915 0.0
H986 H 0.22262 0.79832 0.94059 0.0
H987 H 0.25434 0.77885 0.90083 0.0
H988 H 0.29375 0.79067 0.94599 0.0
H989 H 0.27433 0.7952 0.92368 0.0
H990 H 0.23169 0.77192 0.95107 0.0
H991 H 0.25137 0.76723 0.97362 0.0
C992 C 0.21596 0.80138 0.91478 0.0
C993 C 0.22003 0.79896 0.89731 0.0
C994 C 0.22572 0.79583 0.92719 0.0
C995 C 0.23984 0.78789 0.9224 0.0
C996 C 0.2436 0.78505 0.9049 0.0
C997 C 0.23377 0.79045 0.89249 0.0
C998 C 0.28025 0.78637 0.94723 0.0
C999 C 0.27406 0.77866 0.96159 0.0
C1000 C 0.26913 0.78887 0.93437 0.0
C1001 C 0.2515 0.78391 0.93562 0.0
C1002 C 0.24524 0.77593 0.94984 0.0
C1003 C 0.25647 0.77316 0.96266 0.0
H1004 H 0.25741 0.18062 0.93007 0.0
H1005 H 0.20507 0.18441 0.94262 0.0
H1006 H 0.26674 0.19606 0.95783 0.0
H1007 H 0.21422 0.19942 0.97049 0.0
H1008 H 0.23714 0.24362 0.00806 0.0
H1009 H 0.22802 0.22618 0.98166 0.0
H1010 H 0.26749 0.19604 0.98833 0.0
H1011 H 0.27711 0.21409 0.01473 0.0
C1012 C 0.2479 0.18466 0.93884 0.0
C1013 C 0.23055 0.18172 0.93403 0.0
C1014 C 0.25322 0.19341 0.9548 0.0
C1015 C 0.24127 0.19919 0.96638 0.0
C1016 C 0.22384 0.1956 0.96174 0.0
C1017 C 0.21857 0.18704 0.94573 0.0
C1018 C 0.24387 0.23323 0.00401 0.0
C1019 C 0.25787 0.23025 0.01354 0.0
C1020 C 0.23853 0.22311 0.98886 0.0
C1021 C 0.24691 0.20958 0.98285 0.0
C1022 C 0.26084 0.20646 0.99247 0.0
C1023 C 0.2663 0.21672 0.00765 0.0
H1024 H 0.86983 0.25291 0.86849 0.0
H1025 H 0.86671 0.20638 0.89071 0.0
H1026 H 0.86682 0.26778 0.89685 0.0
H1027 H 0.86339 0.2212 0.91903 0.0
H1028 H 0.83896 0.25207 0.96313 0.0
H1029 H 0.84256 0.23658 0.93519 0.0
H1030 H 0.88322 0.27536 0.92416 0.0
H1031 H 0.87932 0.29104 0.95197 0.0
C1032 C 0.86837 0.24582 0.87941 0.0
C1033 C 0.86809 0.22837 0.87725 0.0
C1034 C 0.86675 0.25436 0.89567 0.0
C1035 C 0.86484 0.24566 0.91017 0.0
C1036 C 0.86455 0.22821 0.90805 0.0
C1037 C 0.86625 0.21967 0.89177 0.0
C1038 C 0.84864 0.2573 0.95473 0.0
C1039 C 0.85878 0.27283 0.95972 0.0
C1040 C 0.8508 0.24835 0.93879 0.0
C1041 C 0.86311 0.25479 0.92744 0.0
C1042 C 0.87348 0.27018 0.93255 0.0
C1043 C 0.87139 0.27907 0.94855 0.0
H1044 H 0.84659 0.81813 0.92581 0.0
H1045 H 0.82031 0.86066 0.92332 0.0
H1046 H 0.83076 0.81127 0.95117 0.0
H1047 H 0.80413 0.85356 0.94874 0.0
H1048 H 0.79377 0.84504 0.00598 0.0
H1049 H 0.80783 0.85279 0.97972 0.0
H1050 H 0.80229 0.80055 0.95942 0.0
H1051 H 0.78835 0.79285 0.98558 0.0
C1052 C 0.83735 0.826 0.93061 0.0
C1053 C 0.83472 0.83995 0.92247 0.0
C1054 C 0.82817 0.82198 0.94514 0.0
C1055 C 0.81605 0.83178 0.95196 0.0
C1056 C 0.81345 0.84581 0.94389 0.0
C1057 C 0.82266 0.84983 0.92928 0.0
C1058 C 0.79537 0.83523 0.99582 0.0
C1059 C 0.79011 0.8183 0.99801 0.0
C1060 C 0.80342 0.83968 0.98075 0.0
C1061 C 0.80638 0.82729 0.96751 0.0
C1062 C 0.80059 0.81041 0.96949 0.0
C1063 C 0.79259 0.80598 0.98453 0.0
H1064 H 0.12388 0.18825 0.25477 0.0
H1065 H 0.12579 0.22667 0.22077 0.0
H1066 H 0.09942 0.19852 0.26919 0.0
H1067 H 0.10145 0.23668 0.23493 0.0
H1068 H 0.07097 0.26257 0.27532 0.0
H1069 H 0.09534 0.25125 0.26262 0.0
H1070 H 0.06887 0.20099 0.26415 0.0
H1071 H 0.04427 0.2124 0.27688 0.0
C1072 C 0.11907 0.19882 0.25034 0.0
C1073 C 0.12687 0.20668 0.23667 0.0
C1074 C 0.10502 0.20465 0.25855 0.0
C1075 C 0.09857 0.21851 0.25331 0.0
C1076 C 0.10627 0.22618 0.23951 0.0
C1077 C 0.1202 0.22035 0.23131 0.0
C1078 C 0.07023 0.24911 0.27284 0.0
C1079 C 0.05552 0.23841 0.27688 0.0
C1080 C 0.08425 0.24261 0.26558 0.0
C1081 C 0.08399 0.22521 0.26215 0.0
C1082 C 0.06952 0.21445 0.2667 0.0
C1083 C 0.05542 0.22099 0.27399 0.0
H1084 H 0.81841 0.13308 0.18329 0.0
H1085 H 0.8601 0.12513 0.21526 0.0
H1086 H 0.80121 0.10782 0.19188 0.0
H1087 H 0.84313 0.1 0.22354 0.0
H1088 H 0.80416 0.06688 0.24993 0.0
H1089 H 0.81839 0.09282 0.2409 0.0
H1090 H 0.79963 0.07688 0.1891 0.0
H1091 H 0.78466 0.05095 0.1983 0.0
C1092 C 0.82393 0.12592 0.19206 0.0
C1093 C 0.8406 0.13119 0.19866 0.0
C1094 C 0.8141 0.11144 0.19693 0.0
C1095 C 0.82073 0.102 0.20854 0.0
C1096 C 0.83749 0.10716 0.21486 0.0
C1097 C 0.84728 0.12154 0.21 0.0
C1098 C 0.80269 0.0689 0.23668 0.0
C1099 C 0.79328 0.05662 0.22484 0.0
C1100 C 0.81108 0.08378 0.23145 0.0
C1101 C 0.81039 0.08682 0.21422 0.0
C1102 C 0.80043 0.07492 0.20247 0.0
C1103 C 0.79198 0.05998 0.20773 0.0
H1104 H 0.91088 0.82312 0.25704 0.0
H1105 H 0.94429 0.85032 0.22296 0.0
H1106 H 0.9355 0.81565 0.27116 0.0
H1107 H 0.96893 0.84234 0.23664 0.0
H1108 H 0.01094 0.83757 0.27411 0.0
H1109 H 0.98606 0.84671 0.26214 0.0
H1110 H 0.95662 0.79817 0.26654 0.0
H1111 H 0.98107 0.78944 0.27938 0.0
C1112 C 0.92349 0.8274 0.25247 0.0
C1113 C 0.92561 0.83728 0.23884 0.0
C1114 C 0.93763 0.82306 0.26053 0.0
C1115 C 0.95426 0.82834 0.25505 0.0
C1116 C 0.95636 0.83826 0.24142 0.0
C1117 C 0.94221 0.84273 0.23346 0.0
C1118 C 0.99911 0.82894 0.27277 0.0
C1119 C 0.99815 0.8127 0.27761 0.0
C1120 C 0.98486 0.83411 0.26569 0.0
C1121 C 0.9693 0.82316 0.26322 0.0
C1122 C 0.96829 0.80704 0.26837 0.0
C1123 C 0.98247 0.80192 0.27553 0.0
H1124 H 0.22678 0.88963 0.18756 0.0
H1125 H 0.2124 0.87133 0.2359 0.0
H1126 H 0.23565 0.91763 0.2025 0.0
H1127 H 0.2215 0.8992 0.25078 0.0
H1128 H 0.21864 0.95427 0.26793 0.0
H1129 H 0.21131 0.92626 0.25283 0.0
H1130 H 0.25711 0.93388 0.22313 0.0
H1131 H 0.26419 0.96222 0.23792 0.0
C1132 C 0.22565 0.89153 0.20137 0.0
C1133 C 0.21877 0.87825 0.21051 0.0
C1134 C 0.23081 0.90756 0.20994 0.0
C1135 C 0.22916 0.91064 0.2278 0.0
C1136 C 0.22267 0.89728 0.23697 0.0
C1137 C 0.21754 0.88127 0.22843 0.0
C1138 C 0.22707 0.95007 0.25807 0.0
C1139 C 0.24198 0.96052 0.25411 0.0
C1140 C 0.22298 0.93392 0.24956 0.0
C1141 C 0.23367 0.92782 0.23684 0.0
C1142 C 0.24856 0.93826 0.2328 0.0
C1143 C 0.25269 0.95443 0.24138 0.0
H1144 H 0.13316 0.85486 0.75944 0.0
H1145 H 0.10987 0.86256 0.80892 0.0
H1146 H 0.10497 0.84917 0.74568 0.0
H1147 H 0.08181 0.85649 0.79527 0.0
H1148 H 0.03232 0.85086 0.76827 0.0
H1149 H 0.06109 0.86445 0.77675 0.0
H1150 H 0.08193 0.82613 0.74425 0.0
H1151 H 0.05331 0.81284 0.73544 0.0
C1152 C 0.12205 0.85552 0.76737 0.0
C1153 C 0.12378 0.85898 0.78531 0.0
C1154 C 0.10588 0.85219 0.75948 0.0
C1155 C 0.09108 0.85225 0.76935 0.0
C1156 C 0.09289 0.85654 0.78721 0.0
C1157 C 0.10902 0.85989 0.79508 0.0
C1158 C 0.04305 0.84559 0.76257 0.0
C1159 C 0.04048 0.8306 0.75138 0.0
C1160 C 0.05955 0.85331 0.76755 0.0
C1161 C 0.07384 0.84621 0.76147 0.0
C1162 C 0.07127 0.83202 0.74916 0.0
C1163 C 0.05479 0.82434 0.74413 0.0
H1164 H 0.22292 0.09059 0.86371 0.0
H1165 H 0.26431 0.12427 0.84489 0.0
H1166 H 0.23351 0.06683 0.84765 0.0
H1167 H 0.27474 0.10054 0.82867 0.0
H1168 H 0.2982 0.0525 0.81651 0.0
H1169 H 0.28785 0.07593 0.8333 0.0
H1170 H 0.23614 0.05511 0.81755 0.0
H1171 H 0.24646 0.03149 0.80091 0.0
C1172 C 0.2343 0.09293 0.85619 0.0
C1173 C 0.24278 0.10933 0.85559 0.0
C1174 C 0.24029 0.07932 0.84689 0.0
C1175 C 0.25493 0.0818 0.83685 0.0
C1176 C 0.26352 0.09819 0.83643 0.0
C1177 C 0.2575 0.1118 0.84567 0.0
C1178 C 0.28462 0.05289 0.81662 0.0
C1179 C 0.27316 0.04012 0.80736 0.0
C1180 C 0.2787 0.06638 0.82618 0.0
C1181 C 0.26118 0.06739 0.82676 0.0
C1182 C 0.2497 0.05459 0.81753 0.0
C1183 C 0.25563 0.04112 0.80791 0.0
H1184 H 0.93755 0.24257 0.79983 0.0
H1185 H 0.94253 0.20163 0.82913 0.0
H1186 H 0.96829 0.25119 0.80158 0.0
H1187 H 0.97339 0.21018 0.8307 0.0
H1188 H 0.02501 0.26009 0.80077 0.0
H1189 H 0.99674 0.24421 0.79382 0.0
H1190 H 0.99085 0.23471 0.84668 0.0
H1191 H 0.01909 0.25036 0.8536 0.0
C1192 C 0.94523 0.23521 0.80636 0.0
C1193 C 0.93757 0.22155 0.81453 0.0
C1194 C 0.96289 0.24008 0.80726 0.0
C1195 C 0.97326 0.23142 0.81638 0.0
C1196 C 0.96569 0.21721 0.82375 0.0
C1197 C 0.94803 0.21229 0.8228 0.0
C1198 C 0.01785 0.25426 0.81082 0.0
C1199 C 0.0242 0.25664 0.82779 0.0
C1200 C 1.00162 0.24527 0.80685 0.0
C1201 C 0.9915 0.23836 0.81973 0.0
C1202 C 0.99836 0.23976 0.83643 0.0
C1203 C 0.01453 0.24883 0.84042 0.0
H1204 H 0.84615 0.93608 0.83576 0.0
H1205 H 0.81158 0.89555 0.80836 0.0
H1206 H 0.83084 0.95635 0.82412 0.0
H1207 H 0.7965 0.91578 0.79657 0.0
H1208 H 0.75968 0.95474 0.80373 0.0
H1209 H 0.77773 0.93452 0.80982 0.0
H1210 H 0.82233 0.96856 0.79811 0.0
H1211 H 0.80402 0.98912 0.79204 0.0
C1212 C 0.83547 0.93149 0.82703 0.0
C1213 C 0.82997 0.91417 0.82317 0.0
C1214 C 0.82676 0.94312 0.82027 0.0
C1215 C 0.81233 0.9377 0.80954 0.0
C1216 C 0.80739 0.92039 0.80502 0.0
C1217 C 0.81608 0.90878 0.81174 0.0
C1218 C 0.77332 0.95792 0.80227 0.0
C1219 C 0.78041 0.97359 0.79747 0.0
C1220 C 0.78369 0.94623 0.80564 0.0
C1221 C 0.8015 0.94987 0.80443 0.0
C1222 C 0.80865 0.96541 0.79925 0.0
C1223 C 0.79818 0.97713 0.79567 0.0
H1224 H 0.22947 0.1378 0.25821 0.0
H1225 H 0.21147 0.10184 0.2148 0.0
H1226 H 0.24248 0.11646 0.27063 0.0
H1227 H 0.2244 0.08046 0.22731 0.0
H1228 H 0.26359 0.0508 0.24817 0.0
H1229 H 0.25235 0.07273 0.23481 0.0
H1230 H 0.23246 0.0906 0.28355 0.0
H1231 H 0.24374 0.06884 0.2969 0.0
C1232 C 0.22836 0.12537 0.25126 0.0
C1233 C 0.21937 0.12154 0.23552 0.0
C1234 C 0.23573 0.1131 0.25844 0.0
C1235 C 0.2344 0.09671 0.25002 0.0
C1236 C 0.22578 0.09298 0.23407 0.0
C1237 C 0.2183 0.10523 0.22694 0.0
C1238 C 0.25685 0.05943 0.25603 0.0
C1239 C 0.25457 0.05804 0.27361 0.0
C1240 C 0.25033 0.07195 0.24836 0.0
C1241 C 0.24153 0.08346 0.25811 0.0
C1242 C 0.23936 0.0821 0.2757 0.0
C1243 C 0.24574 0.06952 0.28334 0.0
H1244 H 0.18578 0.8826 0.83989 0.0
H1245 H 0.23131 0.85983 0.83149 0.0
H1246 H 0.20088 0.90885 0.8313 0.0
H1247 H 0.24634 0.88602 0.82279 0.0
H1248 H 0.2598 0.93095 0.79067 0.0
H1249 H 0.24377 0.90452 0.79791 0.0
H1250 H 0.22692 0.93037 0.84446 0.0
H1251 H 0.24309 0.95673 0.83729 0.0
C1252 C 0.19891 0.88312 0.83592 0.0
C1253 C 0.20733 0.86914 0.83616 0.0
C1254 C 0.20758 0.89818 0.83119 0.0
C1255 C 0.22474 0.89942 0.82634 0.0
C1256 C 0.23307 0.88535 0.82633 0.0
C1257 C 0.2245 0.87041 0.83137 0.0
C1258 C 0.2526 0.93095 0.80239 0.0
C1259 C 0.25271 0.94584 0.81345 0.0
C1260 C 0.24352 0.91586 0.80657 0.0
C1261 C 0.23411 0.91545 0.82172 0.0
C1262 C 0.23399 0.93038 0.83265 0.0
C1263 C 0.24334 0.9454 0.82863 0.0
H1264 H 0.18811 0.2548 0.89175 0.0
H1265 H 0.14875 0.22304 0.91583 0.0
H1266 H 0.167 0.27133 0.88332 0.0
H1267 H 0.12758 0.23945 0.90712 0.0
H1268 H 0.09573 0.28052 0.89964 0.0
H1269 H 0.11796 0.26695 0.91121 0.0
H1270 H 0.14349 0.26672 0.86258 0.0
H1271 H 0.12164 0.2807 0.85126 0.0
C1272 C 0.17498 0.25139 0.89534 0.0
C1273 C 0.17011 0.23751 0.90435 0.0
C1274 C 0.16286 0.26083 0.89042 0.0
C1275 C 0.14558 0.25662 0.8944 0.0
C1276 C 0.1408 0.24311 0.90396 0.0
C1277 C 0.15293 0.23365 0.90888 0.0
C1278 C 0.10621 0.27777 0.89151 0.0
C1279 C 0.10685 0.28163 0.87449 0.0
C1280 C 0.11886 0.26985 0.89809 0.0
C1281 C 0.13249 0.26573 0.88782 0.0
C1282 C 0.13328 0.26987 0.87091 0.0
C1283 C 0.12062 0.27771 0.86433 0.0
H1284 H 0.83299 0.13045 0.8785 0.0
H1285 H 0.78681 0.14793 0.86402 0.0
H1286 H 0.81877 0.10157 0.87293 0.0
H1287 H 0.77272 0.11907 0.85817 0.0
H1288 H 0.74858 0.065 0.85565 0.0
H1289 H 0.76197 0.09244 0.86931 0.0
H1290 H 0.80986 0.08419 0.84613 0.0
H1291 H 0.7966 0.05675 0.83295 0.0
C1292 C 0.81974 0.12816 0.87435 0.0
C1293 C 0.81111 0.1415 0.87148 0.0
C1294 C 0.81162 0.1116 0.87109 0.0
C1295 C 0.79468 0.10801 0.86491 0.0
C1296 C 0.78573 0.12139 0.86304 0.0
C1297 C 0.79386 0.13795 0.86629 0.0
C1298 C 0.76205 0.06892 0.85384 0.0
C1299 C 0.77152 0.05881 0.84311 0.0
C1300 C 0.76968 0.08468 0.86151 0.0
C1301 C 0.78696 0.09054 0.85873 0.0
C1302 C 0.79658 0.08002 0.84869 0.0
C1303 C 0.78894 0.06437 0.84097 0.0
H1304 H 0.88949 0.85255 0.81015 0.0
H1305 H 0.90908 0.84449 0.85933 0.0
H1306 H 0.91201 0.83903 0.79587 0.0
H1307 H 0.93195 0.83173 0.84525 0.0
H1308 H 0.96028 0.79387 0.81567 0.0
H1309 H 0.93736 0.80729 0.829 0.0
H1310 H 0.94132 0.84112 0.79001 0.0
H1311 H 0.96387 0.82715 0.7764 0.0
C1312 C 0.89873 0.84809 0.81793 0.0
C1313 C 0.8974 0.84951 0.83588 0.0
C1314 C 0.91172 0.84039 0.80975 0.0
C1315 C 0.92382 0.83409 0.81934 0.0
C1316 C 0.92268 0.83597 0.83733 0.0
C1317 C 0.9096 0.84344 0.84546 0.0
C1318 C 0.95626 0.80419 0.80999 0.0
C1319 C 0.9639 0.80947 0.79501 0.0
C1320 C 0.94315 0.81198 0.81767 0.0
C1321 C 0.93748 0.82547 0.81073 0.0
C1322 C 0.9451 0.83066 0.79564 0.0
C1323 C 0.95808 0.82268 0.78783 0.0
H1324 H 0.8722 0.91412 0.24586 0.0
H1325 H 0.85929 0.93524 0.20041 0.0
H1326 H 0.85985 0.93583 0.26366 0.0
H1327 H 0.84657 0.95644 0.21799 0.0
H1328 H 0.8319 0.99889 0.25174 0.0
H1329 H 0.85111 0.98084 0.23811 0.0
H1330 H 0.83204 0.94257 0.27018 0.0
H1331 H 0.81332 0.96086 0.28422 0.0
C1332 C 0.86683 0.92344 0.23967 0.0
C1333 C 0.86666 0.92288 0.2217 0.0
C1334 C 0.85968 0.93584 0.24987 0.0
C1335 C 0.85217 0.94792 0.2423 0.0
C1336 C 0.85249 0.94758 0.22435 0.0
C1337 C 0.85967 0.93528 0.21421 0.0
C1338 C 0.83208 0.98677 0.25614 0.0
C1339 C 0.82092 0.98125 0.26892 0.0
C1340 C 0.843 0.97635 0.24822 0.0
C1341 C 0.8429 0.96008 0.25277 0.0
C1342 C 0.83256 0.95502 0.26638 0.0
C1343 C 0.82175 0.96552 0.27441 0.0
H1344 H 0.12626 0.79368 0.17916 0.0
H1345 H 0.15316 0.79047 0.22623 0.0
H1346 H 0.0997 0.78135 0.19142 0.0
H1347 H 0.12668 0.77882 0.23867 0.0
H1348 H 0.07863 0.75294 0.25752 0.0
H1349 H 0.10383 0.75678 0.23979 0.0
H1350 H 0.08069 0.79096 0.21223 0.0
H1351 H 0.05532 0.78656 0.22944 0.0
C1352 C 0.12655 0.79018 0.19205 0.0
C1353 C 0.14181 0.79324 0.20177 0.0
C1354 C 0.1113 0.78321 0.19913 0.0
C1355 C 0.11094 0.77925 0.21613 0.0
C1356 C 0.12641 0.78149 0.22548 0.0
C1357 C 0.14164 0.78832 0.21836 0.0
C1358 C 0.0788 0.761 0.24743 0.0
C1359 C 0.06505 0.7696 0.24503 0.0
C1360 C 0.09331 0.7633 0.23733 0.0
C1361 C 0.09448 0.7744 0.22473 0.0
C1362 C 0.08026 0.78219 0.22167 0.0
C1363 C 0.06569 0.77974 0.23164 0.0
H1364 H 0.90843 0.24293 0.18579 0.0
H1365 H 0.90682 0.20116 0.21555 0.0
H1366 H 0.93091 0.25903 0.20516 0.0
H1367 H 0.92903 0.21704 0.2345 0.0
H1368 H 0.95074 0.25458 0.27742 0.0
H1369 H 0.92912 0.24206 0.25607 0.0
H1370 H 0.96221 0.25889 0.21584 0.0
H1371 H 0.98415 0.27176 0.23753 0.0
C1372 C 0.91292 0.23714 0.19633 0.0
C1373 C 0.90565 0.22081 0.19921 0.0
C1374 C 0.92581 0.24634 0.20736 0.0
C1375 C 0.93153 0.23938 0.22149 0.0
C1376 C 0.92465 0.22289 0.22394 0.0
C1377 C 0.91192 0.21375 0.21299 0.0
C1378 C 0.95345 0.25579 0.26406 0.0
C1379 C 0.96929 0.26393 0.25916 0.0
C1380 C 0.94104 0.24856 0.2518 0.0
C1381 C 0.9441 0.24918 0.23426 0.0
C1382 C 0.95954 0.25818 0.22929 0.0
C1383 C 0.97207 0.26552 0.24168 0.0
H1384 H 0.20686 0.71415 0.66063 0.0
H1385 H 0.21295 0.66366 0.64091 0.0
H1386 H 0.21793 0.72404 0.63375 0.0
H1387 H 0.22332 0.67328 0.61409 0.0
H1388 H 0.2668 0.69752 0.58456 0.0
H1389 H 0.25068 0.68911 0.60898 0.0
H1390 H 0.21585 0.72377 0.60148 0.0
H1391 H 0.23247 0.7326 0.57669 0.0
C1392 C 0.21002 0.70512 0.65035 0.0
C1393 C 0.20927 0.68818 0.65291 0.0
C1394 C 0.21638 0.71076 0.63497 0.0
C1395 C 0.22192 0.69951 0.62193 0.0
C1396 C 0.21966 0.68237 0.62404 0.0
C1397 C 0.2136 0.67682 0.63938 0.0
C1398 C 0.25569 0.7034 0.58795 0.0
C1399 C 0.25087 0.71565 0.5785 0.0
C1400 C 0.24633 0.69845 0.60197 0.0
C1401 C 0.23173 0.70548 0.60702 0.0
C1402 C 0.227 0.71806 0.59787 0.0
C1403 C 0.23648 0.72307 0.58367 0.0
H1404 H 0.80647 0.74437 0.62453 0.0
H1405 H 0.82149 0.70592 0.5875 0.0
H1406 H 0.79777 0.75888 0.60124 0.0
H1407 H 0.81276 0.72051 0.56419 0.0
H1408 H 0.78277 0.74602 0.52683 0.0
H1409 H 0.78691 0.72974 0.5506 0.0
H1410 H 0.81455 0.7741 0.57929 0.0
H1411 H 0.81052 0.7902 0.55577 0.0
C1412 C 0.80779 0.73894 0.61143 0.0
C1413 C 0.81482 0.72407 0.60788 0.0
C1414 C 0.80284 0.74727 0.5981 0.0
C1415 C 0.80464 0.74086 0.58089 0.0
C1416 C 0.81109 0.72568 0.57732 0.0
C1417 C 0.8162 0.7174 0.59067 0.0
C1418 C 0.78954 0.75228 0.53832 0.0
C1419 C 0.79637 0.76936 0.53942 0.0
C1420 C 0.792 0.74296 0.55185 0.0
C1421 C 0.80105 0.75066 0.56681 0.0
C1422 C 0.80738 0.76784 0.56803 0.0
C1423 C 0.80515 0.77704 0.55449 0.0
H1424 H 0.85544 0.32956 0.68033 0.0
H1425 H 0.90704 0.32015 0.67114 0.0
H1426 H 0.84574 0.31126 0.65448 0.0
H1427 H 0.89729 0.30197 0.64486 0.0
H1428 H 0.86904 0.2584 0.60675 0.0
H1429 H 0.87994 0.27539 0.63333 0.0
H1430 H 0.84814 0.31227 0.62406 0.0
H1431 H 0.83729 0.29535 0.59774 0.0
C1432 C 0.86475 0.32358 0.6728 0.0
C1433 C 0.88206 0.32645 0.67778 0.0
C1434 C 0.85918 0.31314 0.65787 0.0
C1435 C 0.87076 0.30532 0.64743 0.0
C1436 C 0.88802 0.30775 0.65265 0.0
C1437 C 0.89361 0.31821 0.66768 0.0
C1438 C 0.8645 0.2702 0.61035 0.0
C1439 C 0.85213 0.2754 0.6002 0.0
C1440 C 0.87074 0.27994 0.62558 0.0
C1441 C 0.86476 0.29511 0.63096 0.0
C1442 C 0.85272 0.30046 0.62056 0.0
C1443 C 0.84648 0.29074 0.60543 0.0
H1444 H 0.17679 0.32964 0.63591 0.0
H1445 H 0.17818 0.35249 0.58877 0.0
H1446 H 0.18715 0.3052 0.62074 0.0
H1447 H 0.18846 0.32809 0.57369 0.0
H1448 H 0.18932 0.27494 0.54868 0.0
H1449 H 0.17719 0.29751 0.56522 0.0
H1450 H 0.21421 0.29873 0.60581 0.0
H1451 H 0.22625 0.276 0.58929 0.0
C1452 C 0.17932 0.32946 0.62233 0.0
C1453 C 0.17667 0.343 0.61354 0.0
C1454 C 0.18528 0.31549 0.61368 0.0
C1455 C 0.18849 0.31471 0.59602 0.0
C1456 C 0.18586 0.32825 0.58725 0.0
C1457 C 0.1801 0.34228 0.59592 0.0
C1458 C 0.19464 0.27978 0.56128 0.0
C1459 C 0.20876 0.27373 0.56769 0.0
C1460 C 0.18782 0.29283 0.57065 0.0
C1461 C 0.19485 0.29997 0.58673 0.0
C1462 C 0.20849 0.29343 0.59348 0.0
C1463 C 0.21544 0.28051 0.58401 0.0
H1464 H 0.23758 0.35671 0.46494 0.0
H1465 H 0.25315 0.31884 0.42759 0.0
H1466 H 0.25199 0.34561 0.48755 0.0
H1467 H 0.26726 0.30757 0.45022 0.0
H1468 H 0.29736 0.29342 0.49287 0.0
H1469 H 0.29009 0.31162 0.4721 0.0
H1470 H 0.24515 0.32003 0.50094 0.0
H1471 H 0.25251 0.30217 0.52167 0.0
C1472 C 0.24423 0.34613 0.46151 0.0
C1473 C 0.24404 0.33853 0.44449 0.0
C1474 C 0.25245 0.33975 0.47449 0.0
C1475 C 0.26067 0.32563 0.47073 0.0
C1476 C 0.26122 0.31857 0.45356 0.0
C1477 C 0.25299 0.32495 0.44058 0.0
C1478 C 0.28621 0.29957 0.49502 0.0
C1479 C 0.27542 0.29625 0.50882 0.0
C1480 C 0.28196 0.30985 0.48304 0.0
C1481 C 0.26693 0.31713 0.48475 0.0
C1482 C 0.25687 0.31476 0.49926 0.0
C1483 C 0.26105 0.30443 0.51112 0.0
H1484 H 0.19232 0.67139 0.40825 0.0
H1485 H 0.23368 0.64288 0.39798 0.0
H1486 H 0.20542 0.68316 0.43593 0.0
H1487 H 0.24665 0.65449 0.42569 0.0
H1488 H 0.24514 0.71398 0.47525 0.0
H1489 H 0.23087 0.70228 0.44813 0.0
H1490 H 0.24155 0.65322 0.4563 0.0
H1491 H 0.25568 0.66485 0.4835 0.0
C1492 C 0.20431 0.66782 0.4117 0.0
C1493 C 0.21204 0.65638 0.40067 0.0
C1494 C 0.21179 0.67451 0.42766 0.0
C1495 C 0.22709 0.66978 0.43304 0.0
C1496 C 0.23475 0.65825 0.42206 0.0
C1497 C 0.22732 0.65164 0.40612 0.0
C1498 C 0.24426 0.70066 0.47144 0.0
C1499 C 0.25166 0.6904 0.48163 0.0
C1500 C 0.23607 0.69395 0.45583 0.0
C1501 C 0.23514 0.67683 0.44998 0.0
C1502 C 0.2423 0.66652 0.46028 0.0
C1503 C 0.25043 0.67321 0.4759 0.0
H1504 H 0.83848 0.71566 0.36349 0.0
H1505 H 0.81994 0.75729 0.34403 0.0
H1506 H 0.83446 0.72796 0.39282 0.0
H1507 H 0.81605 0.76969 0.37343 0.0
H1508 H 0.79408 0.77409 0.42892 0.0
H1509 H 0.79767 0.76293 0.39928 0.0
H1510 H 0.84835 0.75423 0.41158 0.0
H1511 H 0.8451 0.76586 0.44117 0.0
C1512 C 0.8332 0.72725 0.36548 0.0
C1513 C 0.82923 0.73537 0.3515 0.0
C1514 C 0.83117 0.73442 0.38226 0.0
C1515 C 0.82499 0.74979 0.38538 0.0
C1516 C 0.82073 0.75778 0.37139 0.0
C1517 C 0.82299 0.75071 0.3546 0.0
C1518 C 0.80615 0.77015 0.42536 0.0
C1519 C 0.81926 0.77082 0.43765 0.0
C1520 C 0.80814 0.76366 0.40833 0.0
C1521 C 0.8232 0.75753 0.4032 0.0
C1522 C 0.83647 0.75858 0.41527 0.0
C1523 C 0.83458 0.76525 0.43225 0.0
H1524 H 0.81814 0.31927 0.43879 0.0
H1525 H 0.84533 0.36092 0.47193 0.0
H1526 H 0.81003 0.30472 0.46377 0.0
H1527 H 0.83701 0.34647 0.49685 0.0
H1528 H 0.84462 0.30303 0.52856 0.0
H1529 H 0.84669 0.32197 0.50662 0.0
H1530 H 0.79432 0.30364 0.49127 0.0
H1531 H 0.79229 0.28445 0.51343 0.0
C1532 C 0.82209 0.32548 0.45141 0.0
C1533 C 0.83262 0.34116 0.45331 0.0
C1534 C 0.81734 0.31717 0.46576 0.0
C1535 C 0.82303 0.32434 0.48231 0.0
C1536 C 0.83265 0.34048 0.48426 0.0
C1537 C 0.83738 0.34878 0.46995 0.0
C1538 C 0.83341 0.30327 0.52075 0.0
C1539 C 0.81831 0.29224 0.5227 0.0
C1540 C 0.83457 0.31421 0.50821 0.0
C1541 C 0.82069 0.31432 0.49712 0.0
C1542 C 0.80528 0.30378 0.49953 0.0
C1543 C 0.80406 0.29292 0.51231 0.0
H1544 H 0.10811 0.69416 0.68627 0.0
H1545 H 0.14024 0.74101 0.703 0.0
H1546 H 0.0836 0.7052 0.69911 0.0
H1547 H 0.11573 0.75196 0.71628 0.0
H1548 H 0.06474 0.77153 0.7245 0.0
H1549 H 0.08907 0.76112 0.7105 0.0
H1550 H 0.07228 0.71238 0.7267 0.0
H1551 H 0.04756 0.72254 0.73998 0.0
C1552 C 0.10997 0.70683 0.6927 0.0
C1553 C 0.12619 0.71667 0.69362 0.0
C1554 C 0.0959 0.71314 0.7002 0.0
C1555 C 0.09765 0.72945 0.70889 0.0
C1556 C 0.11384 0.7394 0.70956 0.0
C1557 C 0.12793 0.7331 0.702 0.0
C1558 C 0.06609 0.75854 0.72493 0.0
C1559 C 0.05402 0.74789 0.73336 0.0
C1560 C 0.08021 0.75261 0.71706 0.0
C1561 C 0.08269 0.73588 0.7174 0.0
C1562 C 0.0707 0.72528 0.72593 0.0
C1563 C 0.05657 0.73119 0.73377 0.0
H1564 H 0.81001 0.62359 0.66869 0.0
H1565 H 0.82478 0.64365 0.72082 0.0
H1566 H 0.79797 0.59697 0.6786 0.0
H1567 H 0.81315 0.61703 0.73063 0.0
H1568 H 0.77986 0.57078 0.74538 0.0
H1569 H 0.78742 0.59794 0.73476 0.0
H1570 H 0.80886 0.57394 0.68961 0.0
H1571 H 0.80128 0.54691 0.70016 0.0
C1572 C 0.8106 0.62237 0.68227 0.0
C1573 C 0.81845 0.63573 0.69394 0.0
C1574 C 0.80379 0.60707 0.68794 0.0
C1575 C 0.80467 0.6048 0.70541 0.0
C1576 C 0.81205 0.61836 0.71712 0.0
C1577 C 0.81884 0.63363 0.71146 0.0
C1578 C 0.78617 0.5713 0.73319 0.0
C1579 C 0.78999 0.55662 0.72369 0.0
C1580 C 0.79051 0.58688 0.72709 0.0
C1581 C 0.7988 0.58815 0.71133 0.0
C1582 C 0.80225 0.57342 0.70165 0.0
C1583 C 0.7979 0.55787 0.70774 0.0
H1584 H 0.97282 0.36323 0.74283 0.0
H1585 H 0.93461 0.33389 0.77069 0.0
H1586 H 0.99497 0.35743 0.76183 0.0
H1587 H 0.95676 0.32825 0.7898 0.0
H1588 H 0.00362 0.30637 0.80696 0.0
H1589 H 0.98095 0.31254 0.78887 0.0
H1590 H 0.00497 0.36415 0.79191 0.0
H1591 H 0.02791 0.35786 0.80967 0.0
C1592 C 0.96913 0.35555 0.75301 0.0
C1593 C 0.95194 0.349 0.75521 0.0
C1594 C 0.98182 0.35233 0.76399 0.0
C1595 C 0.97763 0.34242 0.77737 0.0
C1596 C 0.96044 0.3358 0.77952 0.0
C1597 C 0.94773 0.33909 0.7686 0.0
C1598 C 0.00409 0.31903 0.80374 0.0
C1599 C 0.01764 0.3316 0.80969 0.0
C1600 C 0.99101 0.3226 0.7935 0.0
C1601 C 0.99118 0.33882 0.78888 0.0
C1602 C 0.00457 0.35147 0.79507 0.0
C1603 C 0.01762 0.34792 0.80541 0.0
H1604 H 0.21011 0.39685 0.68873 0.0
H1605 H 0.17533 0.43147 0.68129 0.0
H1606 H 0.2269 0.41799 0.70902 0.0
H1607 H 0.19138 0.45233 0.70224 0.0
H1608 H 0.23452 0.4925 0.72348 0.0
H1609 H 0.21634 0.4709 0.70531 0.0
H1610 H 0.22943 0.43354 0.73596 0.0
H1611 H 0.24853 0.45525 0.75357 0.0
C1612 C 0.20588 0.40889 0.69173 0.0
C1613 C 0.19146 0.41255 0.68345 0.0
C1614 C 0.21545 0.42103 0.70344 0.0
C1615 C 0.21062 0.43702 0.70733 0.0
C1616 C 0.19583 0.44039 0.69932 0.0
C1617 C 0.18652 0.42839 0.68737 0.0
C1618 C 0.2334 0.4797 0.72647 0.0
C1619 C 0.24299 0.47559 0.73996 0.0
C1620 C 0.22284 0.46725 0.71606 0.0
C1621 C 0.22131 0.45034 0.71906 0.0
C1622 C 0.2305 0.44633 0.73298 0.0
C1623 C 0.24134 0.45879 0.74321 0.0
H1624 H 0.15249 0.33804 0.30098 0.0
H1625 H 0.12895 0.37344 0.33481 0.0
H1626 H 0.12443 0.32449 0.29018 0.0
H1627 H 0.10081 0.35978 0.32392 0.0
H1628 H 0.05193 0.33414 0.29372 0.0
H1629 H 0.08037 0.35134 0.29734 0.0
H1630 H 0.1021 0.30747 0.30651 0.0
H1631 H 0.074 0.29062 0.30321 0.0
C1632 C 0.14137 0.34314 0.30592 0.0
C1633 C 0.14298 0.35668 0.31898 0.0
C1634 C 0.12528 0.33535 0.29971 0.0
C1635 C 0.11042 0.34098 0.30631 0.0
C1636 C 0.11204 0.35522 0.31851 0.0
C1637 C 0.12816 0.36297 0.32484 0.0
C1638 C 0.0629 0.32823 0.29618 0.0
C1639 C 0.06084 0.31112 0.29826 0.0
C1640 C 0.0791 0.33804 0.29836 0.0
C1641 C 0.09346 0.33074 0.30219 0.0
C1642 C 0.09136 0.31345 0.30339 0.0
C1643 C 0.07525 0.30381 0.30159 0.0
H1644 H 0.23766 0.5948 0.31384 0.0
H1645 H 0.19068 0.56489 0.32671 0.0
H1646 H 0.24728 0.5699 0.29932 0.0
H1647 H 0.20001 0.54 0.3116 0.0
H1648 H 0.25791 0.52559 0.2649 0.0
H1649 H 0.24365 0.54928 0.27516 0.0
H1650 H 0.21979 0.52151 0.31481 0.0
H1651 H 0.23348 0.4977 0.30415 0.0
C1652 C 0.2293 0.58292 0.31341 0.0
C1653 C 0.21346 0.58182 0.32155 0.0
C1654 C 0.23474 0.56862 0.30491 0.0
C1655 C 0.22442 0.55286 0.30418 0.0
C1656 C 0.20842 0.55185 0.31208 0.0
C1657 C 0.20304 0.56614 0.32072 0.0
C1658 C 0.24927 0.52439 0.27553 0.0
C1659 C 0.24698 0.50977 0.28378 0.0
C1660 C 0.24124 0.53807 0.28156 0.0
C1661 C 0.23082 0.5375 0.29607 0.0
C1662 C 0.22762 0.52245 0.30356 0.0
C1663 C 0.23553 0.50873 0.29744 0.0
H1664 H 0.90157 0.70609 0.29171 0.0
H1665 H 0.90327 0.75971 0.29422 0.0
H1666 H 0.93281 0.71004 0.29429 0.0
H1667 H 0.93427 0.76355 0.29711 0.0
H1668 H 0.9839 0.7631 0.32681 0.0
H1669 H 0.95318 0.75571 0.32292 0.0
H1670 H 0.9603 0.72468 0.27589 0.0
H1671 H 0.99136 0.73234 0.2795 0.0
C1672 C 0.9086 0.71868 0.29271 0.0
C1673 C 0.89997 0.73261 0.29284 0.0
C1674 C 0.92642 0.7209 0.29412 0.0
C1675 C 0.93582 0.73708 0.29602 0.0
C1676 C 0.92724 0.75095 0.29579 0.0
C1677 C 0.90952 0.74873 0.29408 0.0
C1678 C 0.97903 0.7545 0.31573 0.0
C1679 C 0.99011 0.74842 0.30338 0.0
C1680 C 0.96142 0.75035 0.3135 0.0
C1681 C 0.95447 0.73981 0.29903 0.0
C1682 C 0.96543 0.73286 0.28715 0.0
C1683 C 0.98316 0.73723 0.28924 0.0
H1684 H 0.85138 0.43508 0.3692 0.0
H1685 H 0.8282 0.40086 0.32656 0.0
H1686 H 0.84421 0.45863 0.35556 0.0
H1687 H 0.82149 0.42444 0.31263 0.0
H1688 H 0.79519 0.46849 0.30171 0.0
H1689 H 0.80298 0.44499 0.31479 0.0
H1690 H 0.85075 0.47491 0.33248 0.0
H1691 H 0.84258 0.49871 0.32021 0.0
C1692 C 0.8449 0.43259 0.35682 0.0
C1693 C 0.84033 0.41606 0.34901 0.0
C1694 C 0.84086 0.44613 0.34892 0.0
C1695 C 0.83222 0.44352 0.33295 0.0
C1696 C 0.82788 0.42697 0.32504 0.0
C1697 C 0.83184 0.41342 0.33299 0.0
C1698 C 0.80729 0.47019 0.30851 0.0
C1699 C 0.81815 0.48568 0.30992 0.0
C1700 C 0.81188 0.45656 0.31585 0.0
C1701 C 0.82752 0.45796 0.32475 0.0
C1702 C 0.83849 0.47337 0.32596 0.0
C1703 C 0.83387 0.48703 0.31869 0.0
H1704 H 0.21694 0.60166 0.70682 0.0
H1705 H 0.26496 0.63496 0.71283 0.0
H1706 H 0.23119 0.57845 0.7132 0.0
H1707 H 0.27921 0.61166 0.71923 0.0
H1708 H 0.30008 0.56054 0.7135 0.0
H1709 H 0.28669 0.58395 0.70556 0.0
H1710 H 0.24493 0.57088 0.73918 0.0
H1711 H 0.25812 0.54754 0.74688 0.0
C1712 C 0.23056 0.60402 0.7094 0.0
C1713 C 0.23979 0.6202 0.70938 0.0
C1714 C 0.2387 0.59073 0.71315 0.0
C1715 C 0.25631 0.59323 0.71683 0.0
C1716 C 0.26565 0.6093 0.71635 0.0
C1717 C 0.25746 0.62266 0.71276 0.0
C1718 C 0.28804 0.5627 0.71915 0.0
C1719 C 0.28023 0.55222 0.73088 0.0
C1720 C 0.28043 0.57614 0.7147 0.0
C1721 C 0.26471 0.57922 0.72169 0.0
C1722 C 0.25695 0.56875 0.73343 0.0
C1723 C 0.26463 0.55548 0.73801 0.0
H1724 H 0.25252 0.38684 0.37326 0.0
H1725 H 0.20536 0.40498 0.36373 0.0
H1726 H 0.26832 0.40988 0.35984 0.0
H1727 H 0.22123 0.42802 0.35004 0.0
H1728 H 0.25865 0.47721 0.34642 0.0
H1729 H 0.24258 0.4539 0.35949 0.0
H1730 H 0.27173 0.41965 0.33087 0.0
H1731 H 0.2879 0.44298 0.31799 0.0
C1732 C 0.2455 0.39567 0.36814 0.0
C1733 C 0.22766 0.394 0.36938 0.0
C1734 C 0.25456 0.40882 0.36039 0.0
C1735 C 0.24602 0.42074 0.35389 0.0
C1736 C 0.22815 0.41905 0.35503 0.0
C1737 C 0.21904 0.40574 0.36264 0.0
C1738 C 0.26178 0.46474 0.34314 0.0
C1739 C 0.27459 0.4619 0.33125 0.0
C1740 C 0.25242 0.45138 0.35043 0.0
C1741 C 0.25583 0.43495 0.34612 0.0
C1742 C 0.26886 0.43218 0.33449 0.0
C1743 C 0.27808 0.4455 0.32708 0.0
H1744 H 0.13356 0.7061 0.38243 0.0
H1745 H 0.16679 0.72629 0.3438 0.0
H1746 H 0.11135 0.7212 0.37348 0.0
H1747 H 0.14475 0.7416 0.33511 0.0
H1748 H 0.09477 0.74825 0.30981 0.0
H1749 H 0.11744 0.73481 0.32025 0.0
H1750 H 0.10341 0.74897 0.37246 0.0
H1751 H 0.08022 0.76194 0.36195 0.0
C1752 C 0.13621 0.71391 0.37218 0.0
C1753 C 0.15192 0.71487 0.36375 0.0
C1754 C 0.12349 0.72263 0.36709 0.0
C1755 C 0.1262 0.73251 0.35347 0.0
C1756 C 0.14212 0.73387 0.34543 0.0
C1757 C 0.15481 0.72516 0.35049 0.0
C1758 C 0.09637 0.74839 0.32351 0.0
C1759 C 0.08557 0.75613 0.33502 0.0
C1760 C 0.10955 0.74086 0.32952 0.0
C1761 C 0.11231 0.74085 0.34721 0.0
C1762 C 0.10156 0.74863 0.35875 0.0
C1763 C 0.08837 0.75621 0.35273 0.0
H1764 H 0.81682 0.63812 0.3558 0.0
H1765 H 0.76415 0.64516 0.35134 0.0
H1766 H 0.80814 0.608 0.35301 0.0
H1767 H 0.75538 0.61487 0.34895 0.0
H1768 H 0.7549 0.56379 0.31388 0.0
H1769 H 0.75784 0.59286 0.32621 0.0
H1770 H 0.79363 0.58339 0.36406 0.0
H1771 H 0.79103 0.55429 0.35138 0.0
C1772 C 0.80333 0.63326 0.3546 0.0
C1773 C 0.79121 0.64405 0.35351 0.0
C1774 C 0.79832 0.61593 0.35316 0.0
C1775 C 0.78104 0.60896 0.35064 0.0
C1776 C 0.76881 0.61981 0.35063 0.0
C1777 C 0.77384 0.63718 0.35206 0.0
C1778 C 0.76304 0.56774 0.32513 0.0
C1779 C 0.77303 0.55678 0.33138 0.0
C1780 C 0.76468 0.58447 0.33228 0.0
C1781 C 0.77627 0.59057 0.34591 0.0
C1782 C 0.78491 0.57918 0.35328 0.0
C1783 C 0.78332 0.56245 0.34609 0.0
H1784 H 0.89824 0.32806 0.38617 0.0
H1785 H 0.89929 0.3582 0.34415 0.0
H1786 H 0.92293 0.31644 0.37479 0.0
H1787 H 0.92436 0.34665 0.33285 0.0
H1788 H 0.95626 0.3066 0.30851 0.0
H1789 H 0.93236 0.3201 0.31946 0.0
H1790 H 0.95324 0.32443 0.37085 0.0
H1791 H 0.97712 0.311 0.35992 0.0
C1792 C 0.90378 0.33231 0.37453 0.0
C1793 C 0.89671 0.3441 0.3661 0.0
C1794 C 0.91806 0.3257 0.36806 0.0
C1795 C 0.92571 0.33065 0.35294 0.0
C1796 C 0.91869 0.34246 0.34446 0.0
C1797 C 0.90438 0.34915 0.35099 0.0
C1798 C 0.9559 0.31062 0.32211 0.0
C1799 C 0.96863 0.30759 0.33333 0.0
C1800 C 0.94217 0.31838 0.32839 0.0
C1801 C 0.9408 0.32328 0.34605 0.0
C1802 C 0.95371 0.32055 0.35721 0.0
C1803 C 0.96742 0.31281 0.35094 0.0
H1804 H 0.86115 0.42686 0.71334 0.0
H1805 H 0.87339 0.4124 0.76259 0.0
H1806 H 0.8491 0.4504 0.72751 0.0
H1807 H 0.86177 0.43645 0.7769 0.0
H1808 H 0.81623 0.46478 0.79292 0.0
H1809 H 0.83428 0.44448 0.78179 0.0
H1810 H 0.85408 0.47693 0.74417 0.0
H1811 H 0.83551 0.49695 0.75492 0.0
C1812 C 0.86154 0.42887 0.72722 0.0
C1813 C 0.86811 0.41764 0.73682 0.0
C1814 C 0.85474 0.44251 0.73539 0.0
C1815 C 0.85442 0.44538 0.7534 0.0
C1816 C 0.86158 0.43449 0.76302 0.0
C1817 C 0.86833 0.42076 0.75482 0.0
C1818 C 0.82467 0.46774 0.78248 0.0
C1819 C 0.82424 0.48237 0.77464 0.0
C1820 C 0.8351 0.4561 0.77613 0.0
C1821 C 0.84547 0.45891 0.76188 0.0
C1822 C 0.84594 0.47414 0.75487 0.0
C1823 C 0.83538 0.4857 0.76111 0.0
H1824 H 0.17572 0.35231 0.74797 0.0
H1825 H 0.13339 0.33034 0.71404 0.0
H1826 H 0.16046 0.34078 0.77198 0.0
H1827 H 0.11798 0.31931 0.73801 0.0
H1828 H 0.09727 0.2924 0.78199 0.0
H1829 H 0.11629 0.29974 0.75871 0.0
H1830 H 0.13631 0.34655 0.78876 0.0
H1831 H 0.11773 0.33898 0.81215 0.0
C1832 C 0.16321 0.34495 0.74561 0.0
C1833 C 0.15571 0.34235 0.72912 0.0
C1834 C 0.15443 0.33841 0.75939 0.0
C1835 C 0.13794 0.32921 0.75696 0.0
C1836 C 0.13074 0.32614 0.74033 0.0
C1837 C 0.13954 0.33258 0.72658 0.0
C1838 C 0.10587 0.30417 0.78368 0.0
C1839 C 0.10589 0.31517 0.79886 0.0
C1840 C 0.11672 0.30842 0.77031 0.0
C1841 C 0.12776 0.3238 0.7718 0.0
C1842 C 0.12816 0.33451 0.78723 0.0
C1843 C 0.11739 0.33022 0.80062 0.0
H1844 H 0.89904 0.69453 0.67853 0.0
H1845 H 0.88343 0.74173 0.67032 0.0
H1846 H 0.92514 0.70935 0.69254 0.0
H1847 H 0.90966 0.75666 0.68474 0.0
H1848 H 0.96634 0.7761 0.70293 0.0
H1849 H 0.94204 0.76228 0.6845 0.0
H1850 H 0.92965 0.72609 0.7205 0.0
H1851 H 0.95363 0.73954 0.73857 0.0
C1852 C 0.90122 0.70809 0.6796 0.0
C1853 C 0.889 0.71694 0.67352 0.0
C1854 C 0.91619 0.71659 0.68769 0.0
C1855 C 0.91933 0.73419 0.69004 0.0
C1856 C 0.90761 0.7431 0.68311 0.0
C1857 C 0.89257 0.73454 0.6749 0.0
C1858 C 0.95841 0.76517 0.70683 0.0
C1859 C 0.962 0.75889 0.72218 0.0
C1860 C 0.94449 0.75731 0.69632 0.0
C1861 C 0.93405 0.74297 0.70094 0.0
C1862 C 0.93763 0.73688 0.71636 0.0
C1863 C 0.95137 0.74471 0.72681 0.0
H1864 H 0.74981 0.17974 0.65738 0.0
H1865 H 0.70914 0.20696 0.64626 0.0
H1866 H 0.76612 0.19088 0.6339 0.0
H1867 H 0.72525 0.21772 0.6224 0.0
H1868 H 0.76743 0.247 0.59178 0.0
H1869 H 0.74998 0.23652 0.61513 0.0
H1870 H 0.76625 0.18813 0.6035 0.0
H1871 H 0.78391 0.19869 0.58073 0.0
C1872 C 0.74428 0.18801 0.64985 0.0
C1873 C 0.72812 0.19239 0.65372 0.0
C1874 C 0.7536 0.19434 0.63629 0.0
C1875 C 0.74698 0.20514 0.62611 0.0
C1876 C 0.73085 0.2096 0.63004 0.0
C1877 C 0.72156 0.20333 0.64368 0.0
C1878 C 0.76713 0.2341 0.59416 0.0
C1879 C 0.77717 0.22374 0.5845 0.0
C1880 C 0.75711 0.22806 0.60753 0.0
C1881 C 0.75687 0.21151 0.6114 0.0
C1882 C 0.76645 0.20105 0.60124 0.0
C1883 C 0.7765 0.2071 0.58806 0.0
H1884 H 0.34469 0.18876 0.61113 0.0
H1885 H 0.32627 0.22438 0.64904 0.0
H1886 H 0.33289 0.20181 0.58837 0.0
H1887 H 0.31502 0.23784 0.62628 0.0
H1888 H 0.32178 0.2364 0.55013 0.0
H1889 H 0.33569 0.22602 0.57355 0.0
H1890 H 0.29247 0.2329 0.60572 0.0
H1891 H 0.27892 0.2438 0.58259 0.0
C1892 C 0.33826 0.19949 0.6146 0.0
C1893 C 0.33632 0.20546 0.6319 0.0
C1894 C 0.33161 0.20707 0.60153 0.0
C1895 C 0.32297 0.22091 0.60544 0.0
C1896 C 0.32132 0.22705 0.62277 0.0
C1897 C 0.32785 0.21937 0.63584 0.0
C1898 C 0.31535 0.23588 0.56227 0.0
C1899 C 0.29921 0.24089 0.56445 0.0
C1900 C 0.32326 0.2298 0.57567 0.0
C1901 C 0.31517 0.22848 0.59153 0.0
C1902 C 0.29922 0.23392 0.59381 0.0
C1903 C 0.29138 0.24011 0.58047 0.0
H1904 H 0.36095 0.78402 0.66584 0.0
H1905 H 0.37252 0.82485 0.63497 0.0
H1906 H 0.34901 0.76563 0.64043 0.0
H1907 H 0.36068 0.80653 0.60971 0.0
H1908 H 0.34987 0.76565 0.56481 0.0
H1909 H 0.36525 0.78097 0.59016 0.0
H1910 H 0.32277 0.76477 0.62173 0.0
H1911 H 0.30747 0.7493 0.5964 0.0
C1912 C 0.36121 0.789 0.65361 0.0
C1913 C 0.36762 0.80592 0.65244 0.0
C1914 C 0.35426 0.77851 0.6391 0.0
C1915 C 0.35385 0.78466 0.62309 0.0
C1916 C 0.36093 0.80137 0.62182 0.0
C1917 C 0.36764 0.81189 0.63633 0.0
C1918 C 0.34393 0.76516 0.57719 0.0
C1919 C 0.32742 0.75634 0.57859 0.0
C1920 C 0.35268 0.77402 0.59168 0.0
C1921 C 0.34521 0.7741 0.60793 0.0
C1922 C 0.32892 0.76484 0.60942 0.0
C1923 C 0.32009 0.75613 0.59489 0.0
H1924 H 0.70932 0.86021 0.59102 0.0
H1925 H 0.73228 0.90879 0.57825 0.0
H1926 H 0.7304 0.84721 0.57403 0.0
H1927 H 0.75384 0.89583 0.56167 0.0
H1928 H 0.7735 0.86321 0.51557 0.0
H1929 H 0.75603 0.87862 0.53525 0.0
H1930 H 0.75945 0.84362 0.57217 0.0
H1931 H 0.77647 0.82802 0.55218 0.0
C1932 C 0.71904 0.86815 0.58479 0.0
C1933 C 0.71906 0.88552 0.58592 0.0
C1934 C 0.73124 0.86071 0.57512 0.0
C1935 C 0.74388 0.87045 0.56645 0.0
C1936 C 0.74416 0.88791 0.56796 0.0
C1937 C 0.73186 0.89535 0.57755 0.0
C1938 C 0.77076 0.85904 0.52802 0.0
C1939 C 0.77618 0.84435 0.5323 0.0
C1940 C 0.76076 0.86786 0.53933 0.0
C1941 C 0.75612 0.86225 0.55525 0.0
C1942 C 0.76239 0.84806 0.55986 0.0
C1943 C 0.77221 0.83917 0.54848 0.0
H1944 H 0.70692 0.8399 0.41422 0.0
H1945 H 0.70244 0.79533 0.37786 0.0
H1946 H 0.72099 0.82594 0.43464 0.0
H1947 H 0.71581 0.78098 0.3986 0.0
H1948 H 0.7584 0.76798 0.43242 0.0
H1949 H 0.74186 0.77949 0.41185 0.0
H1950 H 0.71737 0.8057 0.45362 0.0
H1951 H 0.73458 0.79481 0.47411 0.0
C1952 C 0.70879 0.82703 0.41065 0.0
C1953 C 0.70361 0.81876 0.39438 0.0
C1954 C 0.71673 0.81893 0.42246 0.0
C1955 C 0.7195 0.80221 0.41842 0.0
C1956 C 0.71415 0.7939 0.40215 0.0
C1957 C 0.70641 0.80211 0.39024 0.0
C1958 C 0.74924 0.77595 0.4372 0.0
C1959 C 0.74786 0.78054 0.4549 0.0
C1960 C 0.73971 0.78257 0.42538 0.0
C1961 C 0.72838 0.79378 0.43098 0.0
C1962 C 0.72629 0.79752 0.44875 0.0
C1963 C 0.73601 0.79111 0.46055 0.0
H1964 H 0.7549 0.1745 0.40656 0.0
H1965 H 0.72393 0.2125 0.42347 0.0
H1966 H 0.77219 0.18199 0.43274 0.0
H1967 H 0.74102 0.21974 0.44978 0.0
H1968 H 0.78623 0.24085 0.48555 0.0
H1969 H 0.76942 0.23301 0.45917 0.0
H1970 H 0.77099 0.18078 0.46354 0.0
H1971 H 0.78789 0.18866 0.48998 0.0
C1972 C 0.7517 0.18439 0.41589 0.0
C1973 C 0.73803 0.19292 0.41285 0.0
C1974 C 0.76158 0.18862 0.43096 0.0
C1975 C 0.75805 0.20151 0.44336 0.0
C1976 C 0.74427 0.20993 0.44039 0.0
C1977 C 0.73439 0.2057 0.42533 0.0
C1978 C 0.78292 0.22769 0.48097 0.0
C1979 C 0.78835 0.21539 0.48998 0.0
C1980 C 0.77325 0.22318 0.46583 0.0
C1981 C 0.76873 0.20625 0.45928 0.0
C1982 C 0.77439 0.19395 0.46812 0.0
C1983 C 0.7841 0.19847 0.48328 0.0
H1984 H 0.29562 0.25001 0.39113 0.0
H1985 H 0.33795 0.22544 0.40327 0.0
H1986 H 0.28095 0.24117 0.41671 0.0
H1987 H 0.32328 0.21666 0.42894 0.0
H1988 H 0.30242 0.23439 0.48408 0.0
H1989 H 0.31609 0.23558 0.45623 0.0
H1990 H 0.26816 0.21438 0.43086 0.0
H1991 H 0.25455 0.21297 0.45892 0.0
C1992 C 0.30164 0.24248 0.39913 0.0
C1993 C 0.31785 0.2383 0.39519 0.0
C1994 C 0.2932 0.23732 0.41367 0.0
C1995 C 0.30097 0.22819 0.42473 0.0
C1996 C 0.317 0.22364 0.42056 0.0
C1997 C 0.32532 0.22855 0.40583 0.0
C1998 C 0.29493 0.2297 0.47253 0.0
C1999 C 0.27747 0.22365 0.47355 0.0
C2000 C 0.30274 0.23028 0.45664 0.0
C2001 C 0.29315 0.22509 0.44143 0.0
C2002 C 0.2758 0.21847 0.44243 0.0
C2003 C 0.26806 0.21758 0.45841 0.0
H2004 H 0.32324 0.83807 0.46144 0.0
H2005 H 0.2881 0.81183 0.42185 0.0
H2006 H 0.30991 0.81995 0.48193 0.0
H2007 H 0.27467 0.79386 0.44243 0.0
H2008 H 0.28116 0.74987 0.47414 0.0
H2009 H 0.28632 0.77163 0.4552 0.0
H2010 H 0.28402 0.80935 0.49829 0.0
H2011 H 0.27874 0.78724 0.51744 0.0
C2012 C 0.31244 0.82869 0.45718 0.0
C2013 C 0.30695 0.82622 0.4399 0.0
C2014 C 0.30471 0.81837 0.46898 0.0
C2015 C 0.29135 0.80533 0.46377 0.0
C2016 C 0.2851 0.80364 0.44679 0.0
C2017 C 0.29279 0.81398 0.435 0.0
C2018 C 0.28141 0.76278 0.47955 0.0
C2019 C 0.27965 0.76688 0.49726 0.0
C2020 C 0.28425 0.77527 0.46866 0.0
C2021 C 0.28562 0.79225 0.47522 0.0
C2022 C 0.28311 0.79637 0.49288 0.0
C2023 C 0.27997 0.78375 0.50381 0.0
H2024 H 0.61732 0.17056 0.7062 0.0
H2025 H 0.65335 0.20904 0.73472 0.0
H2026 H 0.59394 0.18116 0.72199 0.0
H2027 H 0.62996 0.21951 0.75061 0.0
H2028 H 0.5826 0.2462 0.75727 0.0
H2029 H 0.60638 0.23425 0.74385 0.0
H2030 H 0.58115 0.1846 0.7507 0.0
H2031 H 0.55708 0.19661 0.76384 0.0
C2032 C 0.62029 0.18117 0.71596 0.0
C2033 C 0.63723 0.18901 0.7191 0.0
C2034 C 0.60687 0.18718 0.72508 0.0
C2035 C 0.61006 0.20124 0.7375 0.0
C2036 C 0.62704 0.2088 0.74096 0.0
C2037 C 0.64047 0.20273 0.73192 0.0
C2038 C 0.58205 0.23273 0.75583 0.0
C2039 C 0.56786 0.22236 0.76151 0.0
C2040 C 0.5958 0.22589 0.74833 0.0
C2041 C 0.59569 0.20846 0.74621 0.0
C2042 C 0.58157 0.19806 0.75203 0.0
C2043 C 0.56785 0.20495 0.75968 0.0
H2044 H 0.33837 0.10671 0.68022 0.0
H2045 H 0.35397 0.12453 0.73266 0.0
H2046 H 0.32287 0.08114 0.68962 0.0
H2047 H 0.33821 0.0992 0.74207 0.0
H2048 H 0.32401 0.04407 0.75031 0.0
H2049 H 0.33943 0.06955 0.74075 0.0
H2050 H 0.298 0.07122 0.70561 0.0
H2051 H 0.28265 0.04576 0.71512 0.0
C2052 C 0.3384 0.10523 0.69376 0.0
C2053 C 0.34745 0.11766 0.70567 0.0
C2054 C 0.32945 0.0906 0.69916 0.0
C2055 C 0.32933 0.08808 0.71661 0.0
C2056 C 0.33826 0.1006 0.72851 0.0
C2057 C 0.3472 0.11519 0.72311 0.0
C2058 C 0.31814 0.04993 0.74064 0.0
C2059 C 0.30209 0.04281 0.73348 0.0
C2060 C 0.32698 0.06456 0.73515 0.0
C2061 C 0.31997 0.07245 0.72239 0.0
C2062 C 0.30391 0.06533 0.71525 0.0
C2063 C 0.2951 0.05071 0.72072 0.0
H2064 H 0.447 0.83377 0.71786 0.0
H2065 H 0.41432 0.81427 0.75723 0.0
H2066 H 0.47206 0.83085 0.73466 0.0
H2067 H 0.43943 0.81143 0.77405 0.0
H2068 H 0.48944 0.82695 0.80661 0.0
H2069 H 0.46431 0.83036 0.78998 0.0
H2070 H 0.48565 0.80731 0.7443 0.0
H2071 H 0.51071 0.80403 0.76086 0.0
C2072 C 0.44515 0.82883 0.73008 0.0
C2073 C 0.42865 0.82421 0.73618 0.0
C2074 C 0.45952 0.82712 0.73968 0.0
C2075 C 0.45771 0.82094 0.75569 0.0
C2076 C 0.44122 0.81638 0.76183 0.0
C2077 C 0.42685 0.81789 0.75213 0.0
C2078 C 0.48878 0.82273 0.79301 0.0
C2079 C 0.50202 0.81518 0.78506 0.0
C2080 C 0.47435 0.82454 0.78352 0.0
C2081 C 0.473 0.81908 0.76584 0.0
C2082 C 0.48636 0.81174 0.75788 0.0
C2083 C 0.50064 0.80973 0.76739 0.0
H2084 H 0.69311 0.90126 0.68241 0.0
H2085 H 0.6803 0.94558 0.66323 0.0
H2086 H 0.69954 0.91708 0.71065 0.0
H2087 H 0.68722 0.96152 0.69123 0.0
H2088 H 0.68728 0.98269 0.7469 0.0
H2089 H 0.67731 0.96416 0.72103 0.0
H2090 H 0.72186 0.93972 0.72307 0.0
H2091 H 0.73157 0.95794 0.74917 0.0
C2092 C 0.69133 0.91428 0.68432 0.0
C2093 C 0.68588 0.92211 0.67072 0.0
C2094 C 0.69525 0.9234 0.70042 0.0
C2095 C 0.69378 0.94053 0.7032 0.0
C2096 C 0.6882 0.94828 0.68959 0.0
C2097 C 0.68439 0.9392 0.67352 0.0
C2098 C 0.69477 0.97316 0.74202 0.0
C2099 C 0.71029 0.97188 0.75002 0.0
C2100 C 0.68915 0.96265 0.72711 0.0
C2101 C 0.69887 0.95057 0.71992 0.0
C2102 C 0.71403 0.94883 0.72832 0.0
C2103 C 0.71969 0.95939 0.74318 0.0
H2104 H 0.61482 0.85018 0.29696 0.0
H2105 H 0.59753 0.8408 0.34766 0.0
H2106 H 0.58603 0.84042 0.28545 0.0
H2107 H 0.56879 0.83094 0.3361 0.0
H2108 H 0.51617 0.82806 0.31379 0.0
H2109 H 0.54468 0.8417 0.3231 0.0
H2110 H 0.56627 0.81352 0.28078 0.0
H2111 H 0.53777 0.79992 0.27135 0.0
C2112 C 0.60489 0.84604 0.30565 0.0
C2113 C 0.60848 0.84624 0.32323 0.0
C2114 C 0.58841 0.84042 0.29904 0.0
C2115 C 0.57512 0.83501 0.30987 0.0
C2116 C 0.5787 0.83528 0.32746 0.0
C2117 C 0.5952 0.84079 0.33406 0.0
C2118 C 0.52694 0.825 0.30624 0.0
C2119 C 0.52468 0.81276 0.29192 0.0
C2120 C 0.54329 0.83272 0.31169 0.0
C2121 C 0.55772 0.82846 0.30285 0.0
C2122 C 0.5554 0.81708 0.28785 0.0
C2123 C 0.53905 0.80929 0.28245 0.0
H2124 H 0.71046 0.1067 0.33585 0.0
H2125 H 0.76266 0.13135 0.33925 0.0
H2126 H 0.71989 0.08057 0.32458 0.0
H2127 H 0.77235 0.10496 0.32903 0.0
H2128 H 0.73968 0.03218 0.31529 0.0
H2129 H 0.73261 0.05817 0.33012 0.0
H2130 H 0.77446 0.08605 0.30519 0.0
H2131 H 0.7821 0.05988 0.29137 0.0
C2132 C 0.724 0.10645 0.33441 0.0
C2133 C 0.7358 0.12108 0.33834 0.0
C2134 C 0.72948 0.09139 0.32809 0.0
C2135 C 0.74697 0.09046 0.32591 0.0
C2136 C 0.75878 0.10513 0.33018 0.0
C2137 C 0.75325 0.12028 0.33615 0.0
C2138 C 0.74755 0.04388 0.31331 0.0
C2139 C 0.76143 0.04403 0.30222 0.0
C2140 C 0.74338 0.05884 0.32163 0.0
C2141 C 0.7527 0.0744 0.31867 0.0
C2142 C 0.76704 0.07442 0.30803 0.0
C2143 C 0.77144 0.05939 0.30004 0.0
H2144 H 0.40117 0.2967 0.36895 0.0
H2145 H 0.39396 0.24588 0.34398 0.0
H2146 H 0.432 0.29736 0.36823 0.0
H2147 H 0.42475 0.2464 0.34361 0.0
H2148 H 0.47919 0.26132 0.32574 0.0
H2149 H 0.44854 0.25975 0.32854 0.0
H2150 H 0.45573 0.28595 0.37971 0.0
H2151 H 0.48659 0.28814 0.37662 0.0
C2152 C 0.40616 0.28561 0.36347 0.0
C2153 C 0.39511 0.27128 0.3564 0.0
C2154 C 0.42383 0.28595 0.36315 0.0
C2155 C 0.43086 0.27196 0.35578 0.0
C2156 C 0.41977 0.25749 0.34912 0.0
C2157 C 0.40211 0.25716 0.34941 0.0
C2158 C 0.4743 0.26688 0.33755 0.0
C2159 C 0.48542 0.27499 0.35091 0.0
C2160 C 0.45667 0.26577 0.33925 0.0
C2161 C 0.44965 0.2727 0.35436 0.0
C2162 C 0.46073 0.28062 0.36783 0.0
C2163 C 0.47842 0.28173 0.36613 0.0
H2164 H 0.29656 0.89422 0.33769 0.0
H2165 H 0.34329 0.9267 0.35417 0.0
H2166 H 0.28636 0.91732 0.32556 0.0
H2167 H 0.33304 0.94981 0.342 0.0
H2168 H 0.31449 0.98223 0.30286 0.0
H2169 H 0.32556 0.95884 0.31372 0.0
H2170 H 0.27712 0.94438 0.33709 0.0
H2171 H 0.26607 0.96768 0.32628 0.0
C2172 C 0.30472 0.90625 0.33863 0.0
C2173 C 0.32074 0.9086 0.34695 0.0
C2174 C 0.29881 0.91952 0.33176 0.0
C2175 C 0.30884 0.93543 0.33289 0.0
C2176 C 0.32505 0.93768 0.34082 0.0
C2177 C 0.33089 0.92445 0.34786 0.0
C2178 C 0.30621 0.97407 0.31032 0.0
C2179 C 0.28939 0.97686 0.31371 0.0
C2180 C 0.31258 0.96071 0.3166 0.0
C2181 C 0.3022 0.94971 0.32622 0.0
C2182 C 0.28538 0.9525 0.32955 0.0
C2183 C 0.27909 0.96594 0.32345 0.0
H2184 H 0.74715 0.14047 0.7402 0.0
H2185 H 0.72147 0.10282 0.70169 0.0
H2186 H 0.75719 0.11863 0.75456 0.0
H2187 H 0.73145 0.08094 0.71619 0.0
H2188 H 0.75993 0.04536 0.74259 0.0
H2189 H 0.7568 0.06836 0.72554 0.0
H2190 H 0.7414 0.0973 0.77092 0.0
H2191 H 0.74445 0.07458 0.78769 0.0
C2192 C 0.74381 0.12756 0.73467 0.0
C2193 C 0.73332 0.12341 0.7199 0.0
C2194 C 0.74955 0.11503 0.74293 0.0
C2195 C 0.74502 0.09802 0.7366 0.0
C2196 C 0.73528 0.09391 0.72132 0.0
C2197 C 0.72946 0.10646 0.71309 0.0
C2198 C 0.75623 0.0568 0.7489 0.0
C2199 C 0.75238 0.05817 0.76644 0.0
C2200 C 0.7543 0.06989 0.73915 0.0
C2201 C 0.74883 0.08466 0.74688 0.0
C2202 C 0.74582 0.08622 0.76458 0.0
C2203 C 0.74747 0.07313 0.77418 0.0
H2204 H 0.68735 0.91301 0.34648 0.0
H2205 H 0.72022 0.87811 0.32571 0.0
H2206 H 0.70276 0.93457 0.33085 0.0
H2207 H 0.73576 0.89985 0.31005 0.0
H2208 H 0.73957 0.93507 0.26674 0.0
H2209 H 0.72792 0.91405 0.28514 0.0
H2210 H 0.73076 0.9524 0.32836 0.0
H2211 H 0.74214 0.9735 0.30985 0.0
C2212 C 0.69805 0.91001 0.33878 0.0
C2213 C 0.70249 0.8938 0.33726 0.0
C2214 C 0.70694 0.92241 0.32988 0.0
C2215 C 0.72039 0.91888 0.31912 0.0
C2216 C 0.7253 0.90287 0.3181 0.0
C2217 C 0.7165 0.89047 0.32718 0.0
C2218 C 0.73764 0.93903 0.28014 0.0
C2219 C 0.74166 0.95598 0.2868 0.0
C2220 C 0.73119 0.92695 0.29074 0.0
C2221 C 0.72848 0.93156 0.30822 0.0
C2222 C 0.73265 0.94848 0.31493 0.0
C2223 C 0.73925 0.96055 0.30435 0.0
H2224 H 0.65612 0.20229 0.33166 0.0
H2225 H 0.64542 0.22985 0.37983 0.0
H2226 H 0.63212 0.21189 0.31816 0.0
H2227 H 0.62186 0.23964 0.36638 0.0
H2228 H 0.57136 0.24317 0.34295 0.0
H2229 H 0.59371 0.23011 0.3547 0.0
H2230 H 0.62352 0.23726 0.30933 0.0
H2231 H 0.60089 0.25001 0.29735 0.0
C2232 C 0.64867 0.21038 0.33937 0.0
C2233 C 0.6527 0.21526 0.35685 0.0
C2234 C 0.63497 0.21595 0.33161 0.0
C2235 C 0.62497 0.22648 0.34118 0.0
C2236 C 0.62904 0.23129 0.35866 0.0
C2237 C 0.64268 0.22575 0.36637 0.0
C2238 C 0.58259 0.24182 0.33537 0.0
C2239 C 0.58436 0.24778 0.31925 0.0
C2240 C 0.59548 0.23441 0.34217 0.0
C2241 C 0.61056 0.23283 0.33309 0.0
C2242 C 0.61205 0.23817 0.31665 0.0
C2243 C 0.59909 0.24555 0.3098 0.0
H2244 H 0.35213 0.15717 0.35791 0.0
H2245 H 0.29721 0.15034 0.36156 0.0
H2246 H 0.35064 0.12799 0.34569 0.0
H2247 H 0.29572 0.12135 0.34905 0.0
H2248 H 0.29866 0.06628 0.33779 0.0
H2249 H 0.30236 0.09409 0.35392 0.0
H2250 H 0.34113 0.1114 0.31869 0.0
H2251 H 0.33747 0.08361 0.30264 0.0
C2252 C 0.33975 0.14943 0.35621 0.0
C2253 C 0.32478 0.15611 0.36063 0.0
C2254 C 0.3389 0.13273 0.34912 0.0
C2255 C 0.32306 0.12235 0.34632 0.0
C2256 C 0.30814 0.12893 0.35122 0.0
C2257 C 0.30899 0.1456 0.3583 0.0
C2258 C 0.308 0.07601 0.33352 0.0
C2259 C 0.31766 0.07274 0.31883 0.0
C2260 C 0.31012 0.09195 0.34276 0.0
C2261 C 0.32195 0.10501 0.33753 0.0
C2262 C 0.33205 0.10158 0.32321 0.0
C2263 C 0.32995 0.08563 0.31398 0.0
H2264 H 0.36443 0.80648 0.36426 0.0
H2265 H 0.38554 0.85122 0.34213 0.0
H2266 H 0.38713 0.79225 0.3519 0.0
H2267 H 0.40871 0.83705 0.33012 0.0
H2268 H 0.44037 0.8018 0.29912 0.0
H2269 H 0.41634 0.81539 0.30934 0.0
H2270 H 0.41665 0.79226 0.35619 0.0
H2271 H 0.44001 0.77803 0.34564 0.0
C2272 C 0.37395 0.81333 0.35677 0.0
C2273 C 0.37318 0.83007 0.35429 0.0
C2274 C 0.38708 0.80516 0.34976 0.0
C2275 C 0.39994 0.81352 0.34016 0.0
C2276 C 0.39897 0.83015 0.33732 0.0
C2277 C 0.38571 0.83832 0.34426 0.0
C2278 C 0.43519 0.79938 0.31149 0.0
C2279 C 0.44223 0.78871 0.3215 0.0
C2280 C 0.4215 0.80739 0.31747 0.0
C2281 C 0.41448 0.80497 0.33361 0.0
C2282 C 0.42151 0.79428 0.34358 0.0
C2283 C 0.43512 0.78624 0.3376 0.0
H2284 H 0.36378 0.89479 0.73203 0.0
H2285 H 0.33219 0.89786 0.68802 0.0
H2286 H 0.35117 0.91731 0.74812 0.0
H2287 H 0.3199 0.92051 0.70392 0.0
H2288 H 0.28835 0.94807 0.74282 0.0
H2289 H 0.30095 0.9252 0.72755 0.0
H2290 H 0.35044 0.94723 0.74908 0.0
H2291 H 0.33777 0.96992 0.76464 0.0
C2292 C 0.35422 0.90032 0.72576 0.0
C2293 C 0.34897 0.89449 0.70875 0.0
C2294 C 0.34705 0.91328 0.73495 0.0
C2295 C 0.33448 0.92069 0.72733 0.0
C2296 C 0.32934 0.91491 0.71028 0.0
C2297 C 0.33649 0.90198 0.70112 0.0
C2298 C 0.30191 0.94803 0.74432 0.0
C2299 C 0.31205 0.96084 0.75492 0.0
C2300 C 0.30916 0.93496 0.73549 0.0
C2301 C 0.32673 0.9344 0.73704 0.0
C2302 C 0.33684 0.94716 0.74776 0.0
C2303 C 0.32959 0.96023 0.75659 0.0
H2304 H 0.65578 0.85766 0.72226 0.0
H2305 H 0.61327 0.83634 0.68829 0.0
H2306 H 0.64184 0.84355 0.74543 0.0
H2307 H 0.59915 0.82258 0.71155 0.0
H2308 H 0.58321 0.78991 0.75367 0.0
H2309 H 0.59996 0.80095 0.73024 0.0
H2310 H 0.61765 0.84649 0.76339 0.0
H2311 H 0.60133 0.83536 0.78679 0.0
C2312 C 0.64348 0.84994 0.71972 0.0
C2313 C 0.63559 0.84822 0.70345 0.0
C2314 C 0.63545 0.8419 0.73302 0.0
C2315 C 0.61932 0.83201 0.73039 0.0
C2316 C 0.61165 0.82994 0.71399 0.0
C2317 C 0.61971 0.83794 0.70067 0.0
C2318 C 0.59082 0.8022 0.75598 0.0
C2319 C 0.59088 0.81177 0.77208 0.0
C2320 C 0.60033 0.80857 0.74253 0.0
C2321 C 0.61011 0.82464 0.7449 0.0
C2322 C 0.61046 0.83399 0.76115 0.0
C2323 C 0.60099 0.82763 0.77456 0.0
H2324 H 0.39742 0.2245 0.70257 0.0
H2325 H 0.42932 0.1874 0.68539 0.0
H2326 H 0.42176 0.24166 0.71816 0.0
H2327 H 0.45369 0.20477 0.70079 0.0
H2328 H 0.4962 0.24693 0.72389 0.0
H2329 H 0.47293 0.23517 0.70327 0.0
H2330 H 0.43727 0.2331 0.74481 0.0
H2331 H 0.46039 0.24435 0.76529 0.0
C2332 C 0.40969 0.22019 0.70178 0.0
C2333 C 0.4114 0.2045 0.69291 0.0
C2334 C 0.42359 0.23001 0.71072 0.0
C2335 C 0.43953 0.22448 0.71068 0.0
C2336 C 0.44154 0.20935 0.7009 0.0
C2337 C 0.42757 0.19938 0.6922 0.0
C2338 C 0.48332 0.24419 0.7285 0.0
C2339 C 0.48004 0.24642 0.74613 0.0
C2340 C 0.47008 0.23744 0.71676 0.0
C2341 C 0.45335 0.2333 0.7225 0.0
C2342 C 0.45002 0.23633 0.74004 0.0
C2343 C 0.46325 0.24266 0.75176 0.0
H2344 H 0.72761 0.70373 0.16718 0.0
H2345 H 0.67973 0.72223 0.16253 0.0
H2346 H 0.73919 0.71971 0.14415 0.0
H2347 H 0.69108 0.73773 0.13936 0.0
H2348 H 0.72148 0.77794 0.11159 0.0
H2349 H 0.71089 0.76179 0.13466 0.0
H2350 H 0.73733 0.72148 0.11374 0.0
H2351 H 0.74809 0.73779 0.09076 0.0
C2352 C 0.71951 0.71108 0.16118 0.0
C2353 C 0.70276 0.71173 0.16682 0.0
C2354 C 0.72612 0.7202 0.14791 0.0
C2355 C 0.71613 0.73016 0.13994 0.0
C2356 C 0.6993 0.73053 0.14541 0.0
C2357 C 0.69273 0.7215 0.15866 0.0
C2358 C 0.72496 0.7656 0.11184 0.0
C2359 C 0.7356 0.75918 0.09925 0.0
C2360 C 0.71886 0.75629 0.12508 0.0
C2361 C 0.72314 0.74023 0.12606 0.0
C2362 C 0.73393 0.73387 0.11356 0.0
C2363 C 0.7401 0.74323 0.10034 0.0
H2364 H 0.33644 0.68047 0.09184 0.0
H2365 H 0.30869 0.70995 0.12802 0.0
H2366 H 0.32754 0.69513 0.06868 0.0
H2367 H 0.29979 0.72451 0.10487 0.0
H2368 H 0.31485 0.76282 0.06554 0.0
H2369 H 0.31719 0.74492 0.08789 0.0
H2370 H 0.30196 0.70113 0.05155 0.0
H2371 H 0.29948 0.71929 0.02892 0.0
C2372 C 0.32828 0.68992 0.09482 0.0
C2373 C 0.32346 0.69419 0.11182 0.0
C2374 C 0.32306 0.69821 0.08152 0.0
C2375 C 0.31303 0.71102 0.08498 0.0
C2376 C 0.30765 0.71479 0.10185 0.0
C2377 C 0.31274 0.70643 0.11511 0.0
C2378 C 0.31175 0.74937 0.06233 0.0
C2379 C 0.30705 0.74243 0.04549 0.0
C2380 C 0.31299 0.73912 0.07518 0.0
C2381 C 0.30977 0.72162 0.07149 0.0
C2382 C 0.30458 0.71459 0.05472 0.0
C2383 C 0.30305 0.72495 0.04184 0.0
H2384 H 0.3642 0.31785 0.14849 0.0
H2385 H 0.38042 0.27323 0.16382 0.0
H2386 H 0.35142 0.30191 0.12252 0.0
H2387 H 0.36767 0.25715 0.13741 0.0
H2388 H 0.33687 0.27434 0.07253 0.0
H2389 H 0.35726 0.28689 0.09526 0.0
H2390 H 0.33823 0.24762 0.12612 0.0
H2391 H 0.31808 0.2348 0.10314 0.0
C2392 C 0.36526 0.30465 0.14621 0.0
C2393 C 0.37324 0.29681 0.15832 0.0
C2394 C 0.35805 0.29551 0.13118 0.0
C2395 C 0.35857 0.27824 0.12782 0.0
C2396 C 0.36699 0.27042 0.13968 0.0
C2397 C 0.37436 0.27965 0.15474 0.0
C2398 C 0.33732 0.26814 0.08399 0.0
C2399 C 0.32568 0.25373 0.08616 0.0
C2400 C 0.34895 0.27539 0.09705 0.0
C2401 C 0.34911 0.26848 0.11266 0.0
C2402 C 0.33847 0.25325 0.11425 0.0
C2403 C 0.32689 0.24591 0.10108 0.0
H2404 H 0.75405 0.39512 0.10552 0.0
H2405 H 0.74999 0.34582 0.12197 0.0
H2406 H 0.77801 0.38937 0.08754 0.0
H2407 H 0.77322 0.33963 0.10333 0.0
H2408 H 0.82132 0.33387 0.07606 0.0
H2409 H 0.80216 0.34404 0.09783 0.0
H2410 H 0.78389 0.37419 0.06189 0.0
H2411 H 0.80376 0.36464 0.0407 0.0
C2412 C 0.75826 0.38302 0.10523 0.0
C2413 C 0.75011 0.37089 0.1151 0.0
C2414 C 0.77195 0.37967 0.09484 0.0
C2415 C 0.77762 0.36399 0.09383 0.0
C2416 C 0.76955 0.35198 0.10396 0.0
C2417 C 0.75607 0.35545 0.11457 0.0
C2418 C 0.81344 0.34298 0.07308 0.0
C2419 C 0.814 0.34852 0.05679 0.0
C2420 C 0.80231 0.34868 0.08543 0.0
C2421 C 0.79118 0.35976 0.08161 0.0
C2422 C 0.79236 0.36586 0.06549 0.0
C2423 C 0.80375 0.36039 0.05327 0.0
H2424 H 0.73843 0.33057 0.90526 0.0
H2425 H 0.73251 0.36336 0.95153 0.0
H2426 H 0.75683 0.31571 0.9209 0.0
H2427 H 0.75087 0.34846 0.96713 0.0
H2428 H 0.77386 0.3093 0.9932 0.0
H2429 H 0.75213 0.3199 0.97706 0.0
H2430 H 0.78615 0.32379 0.93426 0.0
H2431 H 0.80775 0.31334 0.95031 0.0
C2432 C 0.74098 0.33456 0.91877 0.0
C2433 C 0.7341 0.34823 0.92712 0.0
C2434 C 0.75152 0.32605 0.92771 0.0
C2435 C 0.75525 0.33089 0.94524 0.0
C2436 C 0.74806 0.34431 0.95368 0.0
C2437 C 0.73768 0.35294 0.9447 0.0
C2438 C 0.77652 0.31212 0.98022 0.0
C2439 C 0.79251 0.31057 0.97303 0.0
C2440 C 0.76417 0.3183 0.97105 0.0
C2441 C 0.76749 0.32276 0.95443 0.0
C2442 C 0.78316 0.32037 0.94697 0.0
C2443 C 0.79556 0.31445 0.9562 0.0
H2444 H 0.75618 0.68351 0.93328 0.0
H2445 H 0.72901 0.72254 0.91986 0.0
H2446 H 0.76146 0.69822 0.96213 0.0
H2447 H 0.73404 0.73703 0.94867 0.0
H2448 H 0.72952 0.74903 0.00589 0.0
H2449 H 0.72482 0.73259 0.97802 0.0
H2450 H 0.77743 0.72464 0.9775 0.0
H2451 H 0.7822 0.74116 0.00571 0.0
C2452 C 0.75127 0.6952 0.93647 0.0
C2453 C 0.74178 0.70163 0.92431 0.0
C2454 C 0.75436 0.70364 0.95299 0.0
C2455 C 0.74801 0.71868 0.95776 0.0
C2456 C 0.73877 0.72525 0.94553 0.0
C2457 C 0.73576 0.71686 0.92899 0.0
C2458 C 0.74011 0.74368 0.99996 0.0
C2459 C 0.75629 0.74652 0.00799 0.0
C2460 C 0.73741 0.73434 0.9839 0.0
C2461 C 0.7508 0.72754 0.97542 0.0
C2462 C 0.76684 0.72971 0.98374 0.0
C2463 C 0.76957 0.73915 0.99988 0.0
H2464 H 0.35874 0.73355 0.86085 0.0
H2465 H 0.35971 0.68727 0.88261 0.0
H2466 H 0.35299 0.74736 0.8891 0.0
H2467 H 0.35382 0.70108 0.91089 0.0
H2468 H 0.36264 0.73805 0.96104 0.0
H2469 H 0.36911 0.72445 0.93278 0.0
H2470 H 0.32862 0.74513 0.91008 0.0
H2471 H 0.32223 0.7587 0.93823 0.0
C2472 C 0.35762 0.72631 0.87166 0.0
C2473 C 0.35938 0.70926 0.86948 0.0
C2474 C 0.35428 0.7342 0.88781 0.0
C2475 C 0.35293 0.72528 0.90217 0.0
C2476 C 0.35486 0.70826 0.90004 0.0
C2477 C 0.35798 0.7003 0.88382 0.0
C2478 C 0.35527 0.73979 0.94997 0.0
C2479 C 0.34192 0.74938 0.95181 0.0
C2480 C 0.35885 0.7319 0.93385 0.0
C2481 C 0.34932 0.7337 0.91926 0.0
C2482 C 0.33622 0.74359 0.92108 0.0
C2483 C 0.33249 0.75126 0.93719 0.0
H2484 H 0.31951 0.31894 0.92172 0.0
H2485 H 0.36284 0.34117 0.95422 0.0
H2486 H 0.30363 0.31103 0.94696 0.0
H2487 H 0.34711 0.33306 0.97931 0.0
H2488 H 0.3102 0.32801 0.02292 0.0
H2489 H 0.32311 0.33843 0.9973 0.0
H2490 H 0.30454 0.29099 0.96779 0.0
H2491 H 0.29115 0.28076 0.99329 0.0
C2492 C 0.32561 0.32225 0.93423 0.0
C2493 C 0.34248 0.33065 0.93592 0.0
C2494 C 0.31655 0.31762 0.94869 0.0
C2495 C 0.3241 0.32135 0.96517 0.0
C2496 C 0.3408 0.33015 0.96686 0.0
C2497 C 0.34988 0.33472 0.95243 0.0
C2498 C 0.30861 0.31989 0.01093 0.0
C2499 C 0.2997 0.30349 0.01023 0.0
C2500 C 0.31618 0.32581 0.99626 0.0
C2501 C 0.31497 0.31552 0.98049 0.0
C2502 C 0.30563 0.29931 0.97968 0.0
C2503 C 0.29811 0.29336 0.99436 0.0
H2504 H 0.62244 0.74105 0.22486 0.0
H2505 H 0.61496 0.69154 0.24121 0.0
H2506 H 0.59565 0.74635 0.23771 0.0
H2507 H 0.5878 0.69682 0.25395 0.0
H2508 H 0.54846 0.72082 0.28945 0.0
H2509 H 0.57531 0.71402 0.27732 0.0
H2510 H 0.56548 0.73712 0.23222 0.0
H2511 H 0.53879 0.74385 0.24424 0.0
C2512 C 0.61507 0.73126 0.23119 0.0
C2513 C 0.62086 0.71583 0.23191 0.0
C2514 C 0.59961 0.73427 0.23848 0.0
C2515 C 0.58944 0.72195 0.24671 0.0
C2516 C 0.59536 0.70661 0.24778 0.0
C2517 C 0.61089 0.70356 0.24042 0.0
C2518 C 0.55194 0.72429 0.27688 0.0
C2519 C 0.5415 0.73308 0.26794 0.0
C2520 C 0.56735 0.72039 0.26992 0.0
C2521 C 0.57267 0.72519 0.25388 0.0
C2522 C 0.56199 0.73357 0.24478 0.0
C2523 C 0.54665 0.73745 0.2517 0.0
H2524 H 0.32252 0.62637 0.21804 0.0
H2525 H 0.35292 0.59762 0.184 0.0
H2526 H 0.31759 0.60349 0.2359 0.0
H2527 H 0.34796 0.57474 0.20191 0.0
H2528 H 0.35237 0.54771 0.25025 0.0
H2529 H 0.35655 0.57026 0.23182 0.0
H2530 H 0.30283 0.57383 0.2344 0.0
H2531 H 0.29872 0.55147 0.25296 0.0
C2532 C 0.32803 0.61512 0.21428 0.0
C2533 C 0.33813 0.61383 0.1996 0.0
C2534 C 0.32517 0.602 0.22449 0.0
C2535 C 0.33248 0.58738 0.22036 0.0
C2536 C 0.34234 0.58596 0.20552 0.0
C2537 C 0.34505 0.599 0.1952 0.0
C2538 C 0.34151 0.55342 0.24698 0.0
C2539 C 0.32522 0.5478 0.25302 0.0
C2540 C 0.34386 0.56619 0.23629 0.0
C2541 C 0.33 0.57375 0.23161 0.0
C2542 C 0.31376 0.56829 0.23785 0.0
C2543 C 0.31139 0.55541 0.24836 0.0
H2544 H 0.43254 0.27333 0.23585 0.0
H2545 H 0.46144 0.32089 0.22696 0.0
H2546 H 0.45799 0.26514 0.24773 0.0
H2547 H 0.48668 0.3131 0.23952 0.0
H2548 H 0.53316 0.29284 0.25395 0.0
H2549 H 0.50846 0.29645 0.23711 0.0
H2550 H 0.4752 0.27082 0.27252 0.0
H2551 H 0.49986 0.26655 0.28877 0.0
C2552 C 0.44434 0.28204 0.23644 0.0
C2553 C 0.44494 0.29779 0.23051 0.0
C2554 C 0.45895 0.27739 0.24336 0.0
C2555 C 0.47449 0.28845 0.24473 0.0
C2556 C 0.4751 0.30408 0.23845 0.0
C2557 C 0.46055 0.30863 0.23134 0.0
C2558 C 0.52058 0.28768 0.25792 0.0
C2559 C 0.51852 0.2795 0.27278 0.0
C2560 C 0.50636 0.2899 0.24836 0.0
C2561 C 0.48971 0.2842 0.25354 0.0
C2562 C 0.48774 0.27528 0.26795 0.0
C2563 C 0.50196 0.27286 0.27737 0.0
H2564 H 0.71444 0.40243 0.21809 0.0
H2565 H 0.71549 0.43415 0.17746 0.0
H2566 H 0.72623 0.42674 0.23816 0.0
H2567 H 0.72744 0.45826 0.19737 0.0
H2568 H 0.77299 0.48755 0.22903 0.0
H2569 H 0.7566 0.46419 0.21132 0.0
H2570 H 0.72119 0.45632 0.25243 0.0
H2571 H 0.73775 0.48002 0.27044 0.0
C2572 C 0.71666 0.41462 0.21356 0.0
C2573 C 0.71395 0.41638 0.1962 0.0
C2574 C 0.7235 0.42853 0.22503 0.0
C2575 C 0.72787 0.44433 0.21926 0.0
C2576 C 0.7244 0.44617 0.20211 0.0
C2577 C 0.71756 0.43237 0.19072 0.0
C2578 C 0.7617 0.48092 0.23437 0.0
C2579 C 0.75665 0.48566 0.25114 0.0
C2580 C 0.75225 0.46759 0.22415 0.0
C2581 C 0.73755 0.45855 0.23045 0.0
C2582 C 0.73249 0.46311 0.24729 0.0
C2583 C 0.7419 0.47668 0.25752 0.0
H2584 H 0.61846 0.37421 0.81997 0.0
H2585 H 0.6536 0.35105 0.78643 0.0
H2586 H 0.59471 0.35467 0.80617 0.0
H2587 H 0.62981 0.33154 0.77268 0.0
H2588 H 0.58918 0.28507 0.78331 0.0
H2589 H 0.61245 0.30842 0.78699 0.0
H2590 H 0.57738 0.34262 0.77864 0.0
H2591 H 0.55391 0.31895 0.77467 0.0
C2592 C 0.62108 0.36522 0.80939 0.0
C2593 C 0.63795 0.36397 0.80453 0.0
C2594 C 0.60746 0.35411 0.8014 0.0
C2595 C 0.61045 0.34148 0.78848 0.0
C2596 C 0.62717 0.34106 0.78273 0.0
C2597 C 0.64079 0.35225 0.79061 0.0
C2598 C 0.5865 0.29753 0.78187 0.0
C2599 C 0.56978 0.30027 0.77882 0.0
C2600 C 0.59985 0.31089 0.78385 0.0
C2601 C 0.59672 0.32734 0.78312 0.0
C2602 C 0.58011 0.33004 0.77927 0.0
C2603 C 0.56673 0.31654 0.77693 0.0
H2604 H 0.78215 0.6398 0.83744 0.0
H2605 H 0.75115 0.60786 0.86943 0.0
H2606 H 0.79304 0.61552 0.82298 0.0
H2607 H 0.76249 0.58363 0.8554 0.0
H2608 H 0.76626 0.54357 0.80979 0.0
H2609 H 0.75879 0.56732 0.82824 0.0
H2610 H 0.80994 0.59369 0.8243 0.0
H2611 H 0.81728 0.56998 0.80526 0.0
C2612 C 0.77791 0.62763 0.84162 0.0
C2613 C 0.76564 0.62574 0.85446 0.0
C2614 C 0.78424 0.61369 0.83339 0.0
C2615 C 0.77855 0.59754 0.83789 0.0
C2616 C 0.7669 0.59581 0.85134 0.0
C2617 C 0.76047 0.60973 0.85946 0.0
C2618 C 0.776 0.55434 0.81297 0.0
C2619 C 0.79234 0.5549 0.80592 0.0
C2620 C 0.77174 0.56797 0.8237 0.0
C2621 C 0.78373 0.58251 0.82777 0.0
C2622 C 0.80029 0.58282 0.82123 0.0
C2623 C 0.80454 0.56917 0.8104 0.0
H2624 H 0.4288 0.72945 0.79066 0.0
H2625 H 0.43919 0.68795 0.81672 0.0
H2626 H 0.45927 0.73874 0.78851 0.0
H2627 H 0.46976 0.69712 0.81431 0.0
H2628 H 0.51782 0.73677 0.83133 0.0
H2629 H 0.48923 0.72094 0.82821 0.0
H2630 H 0.48628 0.73267 0.77609 0.0
H2631 H 0.51488 0.74882 0.77932 0.0
C2632 C 0.43759 0.72215 0.79569 0.0
C2633 C 0.43156 0.70807 0.80403 0.0
C2634 C 0.45508 0.72739 0.79432 0.0
C2635 C 0.46696 0.71869 0.80128 0.0
C2636 C 0.46093 0.70419 0.80898 0.0
C2637 C 0.44342 0.69892 0.81032 0.0
C2638 C 0.51124 0.73567 0.81907 0.0
C2639 C 0.51854 0.74424 0.80566 0.0
C2640 C 0.49486 0.72651 0.81725 0.0
C2641 C 0.48539 0.72573 0.80197 0.0
C2642 C 0.49316 0.73328 0.78812 0.0
C2643 C 0.50961 0.74241 0.78992 0.0
H2644 H 0.37193 0.42032 0.84886 0.0
H2645 H 0.33526 0.38141 0.82184 0.0
H2646 H 0.36292 0.44071 0.83169 0.0
H2647 H 0.32644 0.40176 0.80447 0.0
H2648 H 0.30224 0.44628 0.79016 0.0
H2649 H 0.31137 0.42584 0.80714 0.0
H2650 H 0.36384 0.44835 0.80264 0.0
H2651 H 0.35466 0.46914 0.78617 0.0
C2652 C 0.36201 0.41608 0.8392 0.0
C2653 C 0.35431 0.39922 0.83676 0.0
C2654 C 0.3569 0.42777 0.82928 0.0
C2655 C 0.34394 0.4229 0.81668 0.0
C2656 C 0.3363 0.40601 0.8142 0.0
C2657 C 0.34144 0.39431 0.8241 0.0
C2658 C 0.31571 0.44698 0.79289 0.0
C2659 C 0.32769 0.45943 0.78678 0.0
C2660 C 0.32097 0.43511 0.80248 0.0
C2661 C 0.33835 0.43541 0.80627 0.0
C2662 C 0.35034 0.44783 0.80013 0.0
C2663 C 0.34508 0.45966 0.79049 0.0
H2664 H 0.74423 0.6561 0.23805 0.0
H2665 H 0.70773 0.61839 0.20917 0.0
H2666 H 0.75951 0.63426 0.24635 0.0
H2667 H 0.7231 0.59659 0.21736 0.0
H2668 H 0.74245 0.56223 0.25331 0.0
H2669 H 0.72812 0.584 0.24351 0.0
H2670 H 0.77697 0.61294 0.23475 0.0
H2671 H 0.79133 0.59126 0.24496 0.0
C2672 C 0.73953 0.64317 0.23336 0.0
C2673 C 0.7247 0.63902 0.22298 0.0
C2674 C 0.74835 0.63064 0.23805 0.0
C2675 C 0.74251 0.61364 0.23259 0.0
C2676 C 0.72783 0.60953 0.22199 0.0
C2677 C 0.71907 0.62205 0.2172 0.0
C2678 C 0.75016 0.57326 0.2494 0.0
C2679 C 0.76807 0.57499 0.25001 0.0
C2680 C 0.74193 0.58568 0.24358 0.0
C2681 C 0.75138 0.60024 0.23831 0.0
C2682 C 0.7693 0.60196 0.23884 0.0
C2683 C 0.77754 0.58945 0.24454 0.0
H2684 H 0.69751 0.39339 0.83392 0.0
H2685 H 0.73083 0.42319 0.87296 0.0
H2686 H 0.70752 0.41275 0.81343 0.0
H2687 H 0.74178 0.44207 0.85212 0.0
H2688 H 0.7448 0.48226 0.81558 0.0
H2689 H 0.73387 0.46334 0.83637 0.0
H2690 H 0.73162 0.42127 0.79697 0.0
H2691 H 0.7422 0.44023 0.77623 0.0
C2692 C 0.70677 0.40424 0.83822 0.0
C2693 C 0.71292 0.40707 0.85523 0.0
C2694 C 0.71283 0.41517 0.82633 0.0
C2695 C 0.7254 0.42909 0.8311 0.0
C2696 C 0.73185 0.43169 0.84806 0.0
C2697 C 0.7257 0.42078 0.85997 0.0
C2698 C 0.74197 0.46897 0.8114 0.0
C2699 C 0.7443 0.46277 0.79424 0.0
C2700 C 0.73577 0.4581 0.82332 0.0
C2701 C 0.73186 0.44073 0.81839 0.0
C2702 C 0.73418 0.43457 0.80119 0.0
C2703 C 0.74026 0.44545 0.78926 0.0
H2704 H 0.68798 0.76029 0.86257 0.0
H2705 H 0.65419 0.72896 0.89289 0.0
H2706 H 0.66386 0.77225 0.8528 0.0
H2707 H 0.62997 0.74067 0.88279 0.0
H2708 H 0.59242 0.77624 0.87341 0.0
H2709 H 0.61694 0.76581 0.88449 0.0
H2710 H 0.6392 0.76427 0.83421 0.0
H2711 H 0.61506 0.77537 0.82331 0.0
C2712 C 0.6754 0.75594 0.86716 0.0
C2713 C 0.67304 0.74362 0.87849 0.0
C2714 C 0.66154 0.76273 0.86146 0.0
C2715 C 0.64492 0.75737 0.8669 0.0
C2716 C 0.6426 0.74524 0.87847 0.0
C2717 C 0.65649 0.73845 0.8842 0.0
C2718 C 0.60262 0.77389 0.86474 0.0
C2719 C 0.60169 0.77669 0.84742 0.0
C2720 C 0.61662 0.7677 0.87107 0.0
C2721 C 0.63008 0.76416 0.86026 0.0
C2722 C 0.62919 0.76703 0.84297 0.0
C2723 C 0.6152 0.77322 0.83665 0.0
H2724 H 0.29306 0.62278 0.82574 0.0
H2725 H 0.32258 0.61124 0.86783 0.0
H2726 H 0.2853 0.59309 0.81633 0.0
H2727 H 0.31434 0.5814 0.85872 0.0
H2728 H 0.32244 0.53708 0.81784 0.0
H2729 H 0.32337 0.56394 0.83502 0.0
H2730 H 0.27124 0.56547 0.82012 0.0
H2731 H 0.27049 0.53859 0.80239 0.0
C2732 C 0.29755 0.6139 0.83326 0.0
C2733 C 0.30873 0.6194 0.84734 0.0
C2734 C 0.29297 0.59681 0.82793 0.0
C2735 C 0.29938 0.5848 0.83662 0.0
C2736 C 0.30947 0.59031 0.85152 0.0
C2737 C 0.31414 0.60742 0.85679 0.0
C2738 C 0.31104 0.54295 0.81848 0.0
C2739 C 0.29649 0.53582 0.80853 0.0
C2740 C 0.31152 0.55835 0.82849 0.0
C2741 C 0.29744 0.56701 0.82883 0.0
C2742 C 0.28241 0.55926 0.81991 0.0
C2743 C 0.28192 0.54379 0.80986 0.0
H2744 H 0.42507 0.35142 0.84909 0.0
H2745 H 0.39704 0.30176 0.8506 0.0
H2746 H 0.4497 0.33914 0.83756 0.0
H2747 H 0.42151 0.28959 0.83878 0.0
H2748 H 0.46329 0.27688 0.79949 0.0
H2749 H 0.43863 0.28972 0.80994 0.0
H2750 H 0.47011 0.32012 0.85005 0.0
H2751 H 0.49473 0.30709 0.83972 0.0
C2752 C 0.4241 0.33791 0.8468 0.0
C2753 C 0.40912 0.32756 0.85078 0.0
C2754 C 0.43822 0.33091 0.84031 0.0
C2755 C 0.43749 0.31343 0.83732 0.0
C2756 C 0.42238 0.3031 0.84089 0.0
C2757 C 0.40841 0.31008 0.84771 0.0
C2758 C 0.46492 0.28634 0.8105 0.0
C2759 C 0.48089 0.29097 0.81883 0.0
C2760 C 0.45083 0.29362 0.81651 0.0
C2761 C 0.4525 0.30592 0.83077 0.0
C2762 C 0.46852 0.31073 0.83897 0.0
C2763 C 0.48254 0.3032 0.83316 0.0
H2764 H 0.32139 0.36966 0.21475 0.0
H2765 H 0.37271 0.39132 0.23118 0.0
H2766 H 0.31092 0.39485 0.22758 0.0
H2767 H 0.36234 0.41672 0.24353 0.0
H2768 H 0.3365 0.45154 0.2804 0.0
H2769 H 0.34628 0.42639 0.26705 0.0
H2770 H 0.31054 0.42398 0.22498 0.0
H2771 H 0.30029 0.44912 0.23877 0.0
C2772 C 0.33047 0.37983 0.22103 0.0
C2773 C 0.34789 0.37842 0.22203 0.0
C2774 C 0.32447 0.39435 0.22828 0.0
C2775 C 0.33575 0.40786 0.23664 0.0
C2776 C 0.35321 0.40648 0.23747 0.0
C2777 C 0.35919 0.39192 0.23032 0.0
C2778 C 0.33068 0.4457 0.26829 0.0
C2779 C 0.31763 0.45241 0.26062 0.0
C2780 C 0.33641 0.43129 0.26055 0.0
C2781 C 0.32935 0.42318 0.24483 0.0
C2782 C 0.31617 0.4298 0.23717 0.0
C2783 C 0.31034 0.44425 0.24501 0.0
H2784 H 0.65574 0.34694 0.24325 0.0
H2785 H 0.65237 0.39457 0.27276 0.0
H2786 H 0.63495 0.33303 0.26171 0.0
H2787 H 0.63176 0.38054 0.29151 0.0
H2788 H 0.57916 0.35197 0.30477 0.0
H2789 H 0.60233 0.3668 0.28955 0.0
H2790 H 0.63038 0.32528 0.29039 0.0
H2791 H 0.60711 0.31041 0.30557 0.0
C2792 C 0.65071 0.35443 0.2538 0.0
C2793 C 0.65565 0.37189 0.25645 0.0
C2794 C 0.63886 0.34642 0.26447 0.0
C2795 C 0.63166 0.35566 0.27809 0.0
C2796 C 0.6369 0.37308 0.281 0.0
C2797 C 0.64878 0.38111 0.2703 0.0
C2798 C 0.59037 0.34611 0.30199 0.0
C2799 C 0.59121 0.32993 0.30629 0.0
C2800 C 0.60369 0.35463 0.29325 0.0
C2801 C 0.61818 0.34719 0.28865 0.0
C2802 C 0.61926 0.33124 0.29346 0.0
C2803 C 0.60593 0.32271 0.30216 0.0
H2804 H 0.41295 0.6783 0.17928 0.0
H2805 H 0.38331 0.71902 0.18451 0.0
H2806 H 0.43485 0.69496 0.19829 0.0
H2807 H 0.4054 0.73571 0.20375 0.0
H2808 H 0.45649 0.76278 0.23173 0.0
H2809 H 0.43749 0.74936 0.20768 0.0
H2810 H 0.43182 0.70277 0.23003 0.0
H2811 H 0.45045 0.71595 0.25376 0.0
C2812 C 0.41122 0.69092 0.18424 0.0
C2813 C 0.39622 0.69721 0.18061 0.0
C2814 C 0.42378 0.70045 0.19516 0.0
C2815 C 0.42167 0.7165 0.20274 0.0
C2816 C 0.40734 0.72337 0.19808 0.0
C2817 C 0.39469 0.71379 0.18709 0.0
C2818 C 0.45119 0.74967 0.23141 0.0
C2819 C 0.45497 0.74043 0.24464 0.0
C2820 C 0.44031 0.74203 0.21771 0.0
C2821 C 0.43334 0.72499 0.21691 0.0
C2822 C 0.43722 0.71584 0.23012 0.0
C2823 C 0.44782 0.72346 0.24382 0.0
loop_
_geom_bond_atom_site_label_1
_geom_bond_atom_site_label_2
_geom_bond_distance
_geom_bond_site_symmetry_2
_ccdc_geom_bond_type
O0 Cd1 2.300 . S
O0 C7 1.275 . S
Cd1 O0 2.300 . S
Cd1 O9 2.381 . S
Cd1 O10 2.378 . S
O2 Cd3 2.385 . S
O2 C7 1.255 . S
Cd3 O2 2.385 . S
Cd3 O4 2.317 . S
O4 Cd3 2.317 . S
O4 C5 1.232 . S
C5 O4 1.232 . S
C5 O6 1.218 . S
O6 C5 1.218 . S
C7 O0 1.275 . S
C7 O2 1.255 . S
C8 O9 1.258 . S
C8 O10 1.256 . S
O9 Cd1 2.381 . S
O9 C8 1.258 . S
O10 Cd1 2.378 . S
O10 C8 1.256 . S
O11 Cd12 2.300 . S
O11 C18 1.275 . S
Cd12 O11 2.300 . S
Cd12 O20 2.381 . S
Cd12 O21 2.378 . S
O13 Cd14 2.385 . S
O13 C18 1.255 . S
Cd14 O13 2.385 . S
Cd14 O15 2.317 . S
O15 Cd14 2.317 . S
O15 C16 1.232 . S
C16 O15 1.232 . S
C16 O17 1.218 . S
O17 C16 1.218 . S
C18 O11 1.275 . S
C18 O13 1.255 . S
C19 O20 1.258 . S
C19 O21 1.256 . S
O20 Cd12 2.381 . S
O20 C19 1.258 . S
O21 Cd12 2.378 . S
O21 C19 1.256 . S
O22 Cd23 2.300 . S
O22 C29 1.275 . S
Cd23 O22 2.300 . S
Cd23 O31 2.381 . S
Cd23 O32 2.378 . S
O24 Cd25 2.385 . S
O24 C29 1.255 . S
Cd25 O24 2.385 . S
Cd25 O26 2.317 . S
O26 Cd25 2.317 . S
O26 C27 1.232 . S
C27 O26 1.232 . S
C27 O28 1.218 . S
O28 C27 1.218 . S
C29 O22 1.275 . S
C29 O24 1.255 . S
C30 O31 1.258 . S
C30 O32 1.256 . S
O31 Cd23 2.381 . S
O31 C30 1.258 . S
O32 Cd23 2.378 . S
O32 C30 1.256 . S
O33 Cd34 2.300 . S
O33 C40 1.275 . S
Cd34 O33 2.300 . S
Cd34 O42 2.381 . S
Cd34 O43 2.378 . S
O35 Cd36 2.385 . S
O35 C40 1.255 . S
Cd36 O35 2.385 . S
Cd36 O37 2.317 . S
O37 Cd36 2.317 . S
O37 C38 1.232 . S
C38 O37 1.232 . S
C38 O39 1.218 . S
O39 C38 1.218 . S
C40 O33 1.275 . S
C40 O35 1.255 . S
C41 O42 1.258 . S
C41 O43 1.256 . S
O42 Cd34 2.381 . S
O42 C41 1.258 . S
O43 Cd34 2.378 . S
O43 C41 1.256 . S
O44 Cd45 2.300 . S
O44 C51 1.275 . S
Cd45 O44 2.300 . S
Cd45 O53 2.381 . S
Cd45 O54 2.378 . S
O46 Cd47 2.385 . S
O46 C51 1.255 . S
Cd47 O46 2.385 . S
Cd47 O48 2.317 . S
O48 Cd47 2.317 . S
O48 C49 1.232 . S
C49 O48 1.232 . S
C49 O50 1.218 . S
O50 C49 1.218 . S
C51 O44 1.275 . S
C51 O46 1.255 . S
C52 O53 1.258 . S
C52 O54 1.256 . S
O53 Cd45 2.381 . S
O53 C52 1.258 . S
O54 Cd45 2.378 . S
O54 C52 1.256 . S
O55 Cd56 2.300 . S
O55 C62 1.275 . S
Cd56 O55 2.300 . S
Cd56 O64 2.381 . S
Cd56 O65 2.378 . S
O57 Cd58 2.385 . S
O57 C62 1.255 . S
Cd58 O57 2.385 . S
Cd58 O59 2.317 . S
O59 Cd58 2.317 . S
O59 C60 1.232 . S
C60 O59 1.232 . S
C60 O61 1.218 . S
O61 C60 1.218 . S
C62 O55 1.275 . S
C62 O57 1.255 . S
C63 O64 1.258 . S
C63 O65 1.256 . S
O64 Cd56 2.381 . S
O64 C63 1.258 . S
O65 Cd56 2.378 . S
O65 C63 1.256 . S
O66 Cd67 2.300 . S
O66 C73 1.275 . S
Cd67 O66 2.300 . S
Cd67 O75 2.381 . S
Cd67 O76 2.378 . S
O68 Cd69 2.385 . S
O68 C73 1.255 . S
Cd69 O68 2.385 . S
Cd69 O70 2.317 . S
O70 Cd69 2.317 . S
O70 C71 1.232 . S
C71 O70 1.232 . S
C71 O72 1.218 . S
O72 C71 1.218 . S
C73 O66 1.275 . S
C73 O68 1.255 . S
C74 O75 1.258 . S
C74 O76 1.256 . S
O75 Cd67 2.381 . S
O75 C74 1.258 . S
O76 Cd67 2.378 . S
O76 C74 1.256 . S
O77 Cd78 2.300 . S
O77 C84 1.275 . S
Cd78 O77 2.300 . S
Cd78 O86 2.381 . S
Cd78 O87 2.378 . S
O79 Cd80 2.385 . S
O79 C84 1.255 . S
Cd80 O79 2.385 . S
Cd80 O81 2.317 . S
O81 Cd80 2.317 . S
O81 C82 1.232 . S
C82 O81 1.232 . S
C82 O83 1.218 . S
O83 C82 1.218 . S
C84 O77 1.275 . S
C84 O79 1.255 . S
C85 O86 1.258 . S
C85 O87 1.256 . S
O86 Cd78 2.381 . S
O86 C85 1.258 . S
O87 Cd78 2.378 . S
O87 C85 1.256 . S
O88 Cd89 2.300 . S
O88 C95 1.275 . S
Cd89 O88 2.300 . S
Cd89 O97 2.381 . S
Cd89 O98 2.378 . S
O90 Cd91 2.385 . S
O90 C95 1.255 . S
Cd91 O90 2.385 . S
Cd91 O92 2.317 . S
O92 Cd91 2.317 . S
O92 C93 1.232 . S
C93 O92 1.232 . S
C93 O94 1.218 . S
O94 C93 1.218 . S
C95 O88 1.275 . S
C95 O90 1.255 . S
C96 O97 1.258 . S
C96 O98 1.256 . S
O97 Cd89 2.381 . S
O97 C96 1.258 . S
O98 Cd89 2.378 . S
O98 C96 1.256 . S
O99 Cd100 2.300 . S
O99 C106 1.275 . S
Cd100 O99 2.300 . S
Cd100 O108 2.381 . S
Cd100 O109 2.378 . S
O101 Cd102 2.385 . S
O101 C106 1.255 . S
Cd102 O101 2.385 . S
Cd102 O103 2.317 . S
O103 Cd102 2.317 . S
O103 C104 1.232 . S
C104 O103 1.232 . S
C104 O105 1.218 . S
O105 C104 1.218 . S
C106 O99 1.275 . S
C106 O101 1.255 . S
C107 O108 1.258 . S
C107 O109 1.256 . S
O108 Cd100 2.381 . S
O108 C107 1.258 . S
O109 Cd100 2.378 . S
O109 C107 1.256 . S
O110 Cd111 2.300 . S
O110 C117 1.275 . S
Cd111 O110 2.300 . S
Cd111 O119 2.381 . S
Cd111 O120 2.378 . S
O112 Cd113 2.385 . S
O112 C117 1.255 . S
Cd113 O112 2.385 . S
Cd113 O114 2.317 . S
O114 Cd113 2.317 . S
O114 C115 1.232 . S
C115 O114 1.232 . S
C115 O116 1.218 . S
O116 C115 1.218 . S
C117 O110 1.275 . S
C117 O112 1.255 . S
C118 O119 1.258 . S
C118 O120 1.256 . S
O119 Cd111 2.381 . S
O119 C118 1.258 . S
O120 Cd111 2.378 . S
O120 C118 1.256 . S
O121 Cd122 2.300 . S
O121 C128 1.275 . S
Cd122 O121 2.300 . S
Cd122 O130 2.381 . S
Cd122 O131 2.378 . S
O123 Cd124 2.385 . S
O123 C128 1.255 . S
Cd124 O123 2.385 . S
Cd124 O125 2.317 . S
O125 Cd124 2.317 . S
O125 C126 1.232 . S
C126 O125 1.232 . S
C126 O127 1.218 . S
O127 C126 1.218 . S
C128 O121 1.275 . S
C128 O123 1.255 . S
C129 O130 1.258 . S
C129 O131 1.256 . S
O130 Cd122 2.381 . S
O130 C129 1.258 . S
O131 Cd122 2.378 . S
O131 C129 1.256 . S
O132 Cd133 2.300 . S
O132 C139 1.275 . S
Cd133 O132 2.300 . S
Cd133 O141 2.381 . S
Cd133 O142 2.378 . S
O134 Cd135 2.385 . S
O134 C139 1.255 . S
Cd135 O134 2.385 . S
Cd135 O136 2.317 . S
O136 Cd135 2.317 . S
O136 C137 1.232 . S
C137 O136 1.232 . S
C137 O138 1.218 . S
O138 C137 1.218 . S
C139 O132 1.275 . S
C139 O134 1.255 . S
C140 O141 1.258 . S
C140 O142 1.256 . S
O141 Cd133 2.381 . S
O141 C140 1.258 . S
O142 Cd133 2.378 . S
O142 C140 1.256 . S
O143 Cd144 2.300 . S
O143 C150 1.275 . S
Cd144 O143 2.300 . S
Cd144 O152 2.381 . S
Cd144 O153 2.378 . S
O145 Cd146 2.385 . S
O145 C150 1.255 . S
Cd146 O145 2.385 . S
Cd146 O147 2.317 . S
O147 Cd146 2.317 . S
O147 C148 1.232 . S
C148 O147 1.232 . S
C148 O149 1.218 . S
O149 C148 1.218 . S
C150 O143 1.275 . S
C150 O145 1.255 . S
C151 O152 1.258 . S
C151 O153 1.256 . S
O152 Cd144 2.381 . S
O152 C151 1.258 . S
O153 Cd144 2.378 . S
O153 C151 1.256 . S
O154 Cd155 2.300 . S
O154 C161 1.275 . S
Cd155 O154 2.300 . S
Cd155 O163 2.381 . S
Cd155 O164 2.378 . S
O156 Cd157 2.385 . S
O156 C161 1.255 . S
Cd157 O156 2.385 . S
Cd157 O158 2.317 . S
O158 Cd157 2.317 . S
O158 C159 1.232 . S
C159 O158 1.232 . S
C159 O160 1.218 . S
O160 C159 1.218 . S
C161 O154 1.275 . S
C161 O156 1.255 . S
C162 O163 1.258 . S
C162 O164 1.256 . S
O163 Cd155 2.381 . S
O163 C162 1.258 . S
O164 Cd155 2.378 . S
O164 C162 1.256 . S
O165 Cd166 2.300 . S
O165 C172 1.275 . S
Cd166 O165 2.300 . S
Cd166 O174 2.381 . S
Cd166 O175 2.378 . S
O167 Cd168 2.385 . S
O167 C172 1.255 . S
Cd168 O167 2.385 . S
Cd168 O169 2.317 . S
O169 Cd168 2.317 . S
O169 C170 1.232 . S
C170 O169 1.232 . S
C170 O171 1.218 . S
O171 C170 1.218 . S
C172 O165 1.275 . S
C172 O167 1.255 . S
C173 O174 1.258 . S
C173 O175 1.256 . S
O174 Cd166 2.381 . S
O174 C173 1.258 . S
O175 Cd166 2.378 . S
O175 C173 1.256 . S
O176 Cd177 2.300 . S
O176 C183 1.275 . S
Cd177 O176 2.300 . S
Cd177 O185 2.381 . S
Cd177 O186 2.378 . S
O178 Cd179 2.385 . S
O178 C183 1.255 . S
Cd179 O178 2.385 . S
Cd179 O180 2.317 . S
O180 Cd179 2.317 . S
O180 C181 1.232 . S
C181 O180 1.232 . S
C181 O182 1.218 . S
O182 C181 1.218 . S
C183 O176 1.275 . S
C183 O178 1.255 . S
C184 O185 1.258 . S
C184 O186 1.256 . S
O185 Cd177 2.381 . S
O185 C184 1.258 . S
O186 Cd177 2.378 . S
O186 C184 1.256 . S
O187 Cd188 2.300 . S
O187 C194 1.275 . S
Cd188 O187 2.300 . S
Cd188 O196 2.381 . S
Cd188 O197 2.378 . S
O189 Cd190 2.385 . S
O189 C194 1.255 . S
Cd190 O189 2.385 . S
Cd190 O191 2.317 . S
O191 Cd190 2.317 . S
O191 C192 1.232 . S
C192 O191 1.232 . S
C192 O193 1.218 . S
O193 C192 1.218 . S
C194 O187 1.275 . S
C194 O189 1.255 . S
C195 O196 1.258 . S
C195 O197 1.256 . S
O196 Cd188 2.381 . S
O196 C195 1.258 . S
O197 Cd188 2.378 . S
O197 C195 1.256 . S
O198 Cd199 2.300 . S
O198 C205 1.275 . S
Cd199 O198 2.300 . S
Cd199 O207 2.381 . S
Cd199 O208 2.378 . S
O200 Cd201 2.385 . S
O200 C205 1.255 . S
Cd201 O200 2.385 . S
Cd201 O202 2.317 . S
O202 Cd201 2.317 . S
O202 C203 1.232 . S
C203 O202 1.232 . S
C203 O204 1.218 . S
O204 C203 1.218 . S
C205 O198 1.275 . S
C205 O200 1.255 . S
C206 O207 1.258 . S
C206 O208 1.256 . S
O207 Cd199 2.381 . S
O207 C206 1.258 . S
O208 Cd199 2.378 . S
O208 C206 1.256 . S
O209 Cd210 2.300 . S
O209 C216 1.275 . S
Cd210 O209 2.300 . S
Cd210 O218 2.381 . S
Cd210 O219 2.378 . S
O211 Cd212 2.385 . S
O211 C216 1.255 . S
Cd212 O211 2.385 . S
Cd212 O213 2.317 . S
O213 Cd212 2.317 . S
O213 C214 1.232 . S
C214 O213 1.232 . S
C214 O215 1.218 . S
O215 C214 1.218 . S
C216 O209 1.275 . S
C216 O211 1.255 . S
C217 O218 1.258 . S
C217 O219 1.256 . S
O218 Cd210 2.381 . S
O218 C217 1.258 . S
O219 Cd210 2.378 . S
O219 C217 1.256 . S
O220 Cd221 2.300 . S
O220 C227 1.275 . S
Cd221 O220 2.300 . S
Cd221 O229 2.381 . S
Cd221 O230 2.378 . S
O222 Cd223 2.385 . S
O222 C227 1.255 . S
Cd223 O222 2.385 . S
Cd223 O224 2.317 . S
O224 Cd223 2.317 . S
O224 C225 1.232 . S
C225 O224 1.232 . S
C225 O226 1.218 . S
O226 C225 1.218 . S
C227 O220 1.275 . S
C227 O222 1.255 . S
C228 O229 1.258 . S
C228 O230 1.256 . S
O229 Cd221 2.381 . S
O229 C228 1.258 . S
O230 Cd221 2.378 . S
O230 C228 1.256 . S
O231 Cd232 2.300 . S
O231 C238 1.275 . S
Cd232 O231 2.300 . S
Cd232 O240 2.381 . S
Cd232 O241 2.378 . S
O233 Cd234 2.385 . S
O233 C238 1.255 . S
Cd234 O233 2.385 . S
Cd234 O235 2.317 . S
O235 Cd234 2.317 . S
O235 C236 1.232 . S
C236 O235 1.232 . S
C236 O237 1.218 . S
O237 C236 1.218 . S
C238 O231 1.275 . S
C238 O233 1.255 . S
C239 O240 1.258 . S
C239 O241 1.256 . S
O240 Cd232 2.381 . S
O240 C239 1.258 . S
O241 Cd232 2.378 . S
O241 C239 1.256 . S
O242 Cd243 2.300 . S
O242 C249 1.275 . S
Cd243 O242 2.300 . S
Cd243 O251 2.381 . S
Cd243 O252 2.378 . S
O244 Cd245 2.385 . S
O244 C249 1.255 . S
Cd245 O244 2.385 . S
Cd245 O246 2.317 . S
O246 Cd245 2.317 . S
O246 C247 1.232 . S
C247 O246 1.232 . S
C247 O248 1.218 . S
O248 C247 1.218 . S
C249 O242 1.275 . S
C249 O244 1.255 . S
C250 O251 1.258 . S
C250 O252 1.256 . S
O251 Cd243 2.381 . S
O251 C250 1.258 . S
O252 Cd243 2.378 . S
O252 C250 1.256 . S
O253 Cd254 2.300 . S
O253 C260 1.275 . S
Cd254 O253 2.300 . S
Cd254 O262 2.381 . S
Cd254 O263 2.378 . S
O255 Cd256 2.385 . S
O255 C260 1.255 . S
Cd256 O255 2.385 . S
Cd256 O257 2.317 . S
O257 Cd256 2.317 . S
O257 C258 1.232 . S
C258 O257 1.232 . S
C258 O259 1.218 . S
O259 C258 1.218 . S
C260 O253 1.275 . S
C260 O255 1.255 . S
C261 O262 1.258 . S
C261 O263 1.256 . S
O262 Cd254 2.381 . S
O262 C261 1.258 . S
O263 Cd254 2.378 . S
O263 C261 1.256 . S
O264 Cd265 2.300 . S
O264 C271 1.275 . S
Cd265 O264 2.300 . S
Cd265 O273 2.381 . S
Cd265 O274 2.378 . S
O266 Cd267 2.385 . S
O266 C271 1.255 . S
Cd267 O266 2.385 . S
Cd267 O268 2.317 . S
O268 Cd267 2.317 . S
O268 C269 1.232 . S
C269 O268 1.232 . S
C269 O270 1.218 . S
O270 C269 1.218 . S
C271 O264 1.275 . S
C271 O266 1.255 . S
C272 O273 1.258 . S
C272 O274 1.256 . S
O273 Cd265 2.381 . S
O273 C272 1.258 . S
O274 Cd265 2.378 . S
O274 C272 1.256 . S
O275 Cd276 2.300 . S
O275 C282 1.275 . S
Cd276 O275 2.300 . S
Cd276 O284 2.381 . S
Cd276 O285 2.378 . S
O277 Cd278 2.385 . S
O277 C282 1.255 . S
Cd278 O277 2.385 . S
Cd278 O279 2.317 . S
O279 Cd278 2.317 . S
O279 C280 1.232 . S
C280 O279 1.232 . S
C280 O281 1.218 . S
O281 C280 1.218 . S
C282 O275 1.275 . S
C282 O277 1.255 . S
C283 O284 1.258 . S
C283 O285 1.256 . S
O284 Cd276 2.381 . S
O284 C283 1.258 . S
O285 Cd276 2.378 . S
O285 C283 1.256 . S
O286 Cd287 2.300 . S
O286 C293 1.275 . S
Cd287 O286 2.300 . S
Cd287 O295 2.381 . S
Cd287 O296 2.378 . S
O288 Cd289 2.385 . S
O288 C293 1.255 . S
Cd289 O288 2.385 . S
Cd289 O290 2.317 . S
O290 Cd289 2.317 . S
O290 C291 1.232 . S
C291 O290 1.232 . S
C291 O292 1.218 . S
O292 C291 1.218 . S
C293 O286 1.275 . S
C293 O288 1.255 . S
C294 O295 1.258 . S
C294 O296 1.256 . S
O295 Cd287 2.381 . S
O295 C294 1.258 . S
O296 Cd287 2.378 . S
O296 C294 1.256 . S
O297 Cd298 2.300 . S
O297 C304 1.275 . S
Cd298 O297 2.300 . S
Cd298 O306 2.381 . S
Cd298 O307 2.378 . S
O299 Cd300 2.385 . S
O299 C304 1.255 . S
Cd300 O299 2.385 . S
Cd300 O301 2.317 . S
O301 Cd300 2.317 . S
O301 C302 1.232 . S
C302 O301 1.232 . S
C302 O303 1.218 . S
O303 C302 1.218 . S
C304 O297 1.275 . S
C304 O299 1.255 . S
C305 O306 1.258 . S
C305 O307 1.256 . S
O306 Cd298 2.381 . S
O306 C305 1.258 . S
O307 Cd298 2.378 . S
O307 C305 1.256 . S
O308 Cd309 2.300 . S
O308 C315 1.275 . S
Cd309 O308 2.300 . S
Cd309 O317 2.381 . S
Cd309 O318 2.378 . S
O310 Cd311 2.385 . S
O310 C315 1.255 . S
Cd311 O310 2.385 . S
Cd311 O312 2.317 . S
O312 Cd311 2.317 . S
O312 C313 1.232 . S
C313 O312 1.232 . S
C313 O314 1.218 . S
O314 C313 1.218 . S
C315 O308 1.275 . S
C315 O310 1.255 . S
C316 O317 1.258 . S
C316 O318 1.256 . S
O317 Cd309 2.381 . S
O317 C316 1.258 . S
O318 Cd309 2.378 . S
O318 C316 1.256 . S
O319 Cd320 2.300 . S
O319 C326 1.275 . S
Cd320 O319 2.300 . S
Cd320 O328 2.381 . S
Cd320 O329 2.378 . S
O321 Cd322 2.385 . S
O321 C326 1.255 . S
Cd322 O321 2.385 . S
Cd322 O323 2.317 . S
O323 Cd322 2.317 . S
O323 C324 1.232 . S
C324 O323 1.232 . S
C324 O325 1.218 . S
O325 C324 1.218 . S
C326 O319 1.275 . S
C326 O321 1.255 . S
C327 O328 1.258 . S
C327 O329 1.256 . S
O328 Cd320 2.381 . S
O328 C327 1.258 . S
O329 Cd320 2.378 . S
O329 C327 1.256 . S
O330 Cd331 2.300 . S
O330 C337 1.275 . S
Cd331 O330 2.300 . S
Cd331 O339 2.381 . S
Cd331 O340 2.378 . S
O332 Cd333 2.385 . S
O332 C337 1.255 . S
Cd333 O332 2.385 . S
Cd333 O334 2.317 . S
O334 Cd333 2.317 . S
O334 C335 1.232 . S
C335 O334 1.232 . S
C335 O336 1.218 . S
O336 C335 1.218 . S
C337 O330 1.275 . S
C337 O332 1.255 . S
C338 O339 1.258 . S
C338 O340 1.256 . S
O339 Cd331 2.381 . S
O339 C338 1.258 . S
O340 Cd331 2.378 . S
O340 C338 1.256 . S
O341 Cd342 2.300 . S
O341 C348 1.275 . S
Cd342 O341 2.300 . S
Cd342 O350 2.381 . S
Cd342 O351 2.378 . S
O343 Cd344 2.385 . S
O343 C348 1.255 . S
Cd344 O343 2.385 . S
Cd344 O345 2.317 . S
O345 Cd344 2.317 . S
O345 C346 1.232 . S
C346 O345 1.232 . S
C346 O347 1.218 . S
O347 C346 1.218 . S
C348 O341 1.275 . S
C348 O343 1.255 . S
C349 O350 1.258 . S
C349 O351 1.256 . S
O350 Cd342 2.381 . S
O350 C349 1.258 . S
O351 Cd342 2.378 . S
O351 C349 1.256 . S
Cu352 N353 1.999 . S
Cu352 O358 1.974 . S
Cu352 N363 1.985 . S
Cu352 O372 1.959 . S
N353 Cu352 1.999 . S
N353 C355 1.263 . S
N353 C357 1.389 . S
N354 C355 1.358 . S
N354 C356 1.400 . S
C355 N353 1.263 . S
C355 N354 1.358 . S
C355 H361 0.930 . S
C356 N354 1.400 . S
C356 C357 1.351 . S
C356 H373 0.930 . S
C357 N353 1.389 . S
C357 C356 1.351 . S
C357 H362 0.930 . S
O358 Cu352 1.974 . S
O358 C368 1.282 . S
C359 O360 1.261 . S
C359 O372 1.251 . S
O360 C359 1.261 . S
H361 C355 0.930 . S
H362 C357 0.930 . S
N363 Cu352 1.985 . S
N363 C365 1.335 . S
N363 C366 1.390 . S
N364 C365 1.345 . S
N364 C367 1.336 . S
C365 N363 1.335 . S
C365 N364 1.345 . S
C365 H370 0.930 . S
C366 N363 1.390 . S
C366 C367 1.346 . S
C366 H371 0.930 . S
C367 N364 1.336 . S
C367 C366 1.346 . S
C367 H374 0.929 . S
C368 O358 1.282 . S
C368 O369 1.216 . S
O369 C368 1.216 . S
H370 C365 0.930 . S
H371 C366 0.930 . S
O372 Cu352 1.959 . S
O372 C359 1.251 . S
H373 C356 0.930 . S
H374 C367 0.929 . S
Cu375 N376 1.999 . S
Cu375 O381 1.974 . S
Cu375 N386 1.985 1_554 S
Cu375 O395 1.959 1_554 S
N376 Cu375 1.999 . S
N376 C378 1.263 . S
N376 C380 1.389 . S
N377 C378 1.358 . S
N377 C379 1.400 . S
C378 N376 1.263 . S
C378 N377 1.358 . S
C378 H384 0.930 . S
C379 N377 1.400 . S
C379 C380 1.351 . S
C379 H396 0.930 . S
C380 N376 1.389 . S
C380 C379 1.351 . S
C380 H385 0.930 . S
O381 Cu375 1.974 . S
O381 C391 1.282 . S
C382 O383 1.261 . S
C382 O395 1.251 . S
O383 C382 1.261 . S
H384 C378 0.930 . S
H385 C380 0.930 . S
N386 Cu375 1.985 1_556 S
N386 C388 1.335 . S
N386 C389 1.390 . S
N387 C388 1.345 . S
N387 C390 1.336 . S
C388 N386 1.335 . S
C388 N387 1.345 . S
C388 H393 0.930 . S
C389 N386 1.390 . S
C389 C390 1.346 . S
C389 H394 0.917 1_556 S
C390 N387 1.336 . S
C390 C389 1.346 . S
C390 H397 0.929 . S
C391 O381 1.282 . S
C391 O392 1.216 . S
O392 C391 1.216 . S
H393 C388 0.930 . S
H394 C389 0.917 1_554 S
O395 Cu375 1.959 1_556 S
O395 C382 1.251 . S
H396 C379 0.930 . S
H397 C390 0.929 . S
Cu398 N399 1.999 . S
Cu398 O404 1.974 . S
Cu398 N409 1.985 . S
Cu398 O418 1.959 . S
N399 Cu398 1.999 . S
N399 C401 1.263 . S
N399 C403 1.389 . S
N400 C401 1.379 . S
N400 C402 1.428 . S
C401 N399 1.263 . S
C401 N400 1.379 . S
C401 H407 0.930 . S
C402 N400 1.428 . S
C402 C403 1.351 . S
C402 H419 0.930 . S
C403 N399 1.389 . S
C403 C402 1.351 . S
C403 H408 0.930 . S
O404 Cu398 1.974 . S
O404 C414 1.282 . S
C405 O406 1.261 . S
C405 O418 1.251 . S
O406 C405 1.261 . S
H407 C401 0.930 . S
H408 C403 0.930 . S
N409 Cu398 1.985 . S
N409 C411 1.335 . S
N409 C412 1.390 . S
N410 C411 1.345 . S
N410 C413 1.336 . S
C411 N409 1.335 . S
C411 N410 1.345 . S
C411 H416 0.930 . S
C412 N409 1.390 . S
C412 C413 1.346 . S
C412 H417 0.930 . S
C413 N410 1.336 . S
C413 C412 1.346 . S
C413 H420 0.929 . S
C414 O404 1.282 . S
C414 O415 1.216 . S
O415 C414 1.216 . S
H416 C411 0.930 . S
H417 C412 0.930 . S
O418 Cu398 1.959 . S
O418 C405 1.251 . S
H419 C402 0.930 . S
H420 C413 0.929 . S
Cu421 N422 1.999 1_556 S
Cu421 O427 1.974 1_556 S
Cu421 N432 1.985 . S
Cu421 O441 1.959 . S
N422 Cu421 1.999 1_554 S
N422 C424 1.263 . S
N422 C426 1.389 . S
N423 C424 1.358 . S
N423 C425 1.400 . S
C424 N422 1.263 . S
C424 N423 1.358 . S
C424 H430 0.930 . S
C425 N423 1.400 . S
C425 C426 1.351 . S
C425 H442 0.930 . S
C426 N422 1.389 . S
C426 C425 1.351 . S
C426 H431 0.930 . S
O427 Cu421 1.974 1_554 S
O427 C437 1.282 . S
C428 O429 1.261 . S
C428 O441 1.251 . S
O429 C428 1.261 . S
H430 C424 0.930 . S
H431 C426 0.930 . S
N432 Cu421 1.985 . S
N432 C434 1.335 . S
N432 C435 1.390 . S
N433 C434 1.345 . S
N433 C436 1.336 . S
C434 N432 1.335 . S
C434 N433 1.345 . S
C434 H439 0.930 . S
C435 N432 1.390 . S
C435 C436 1.346 . S
C435 H440 0.930 . S
C436 N433 1.336 . S
C436 C435 1.346 . S
C436 H443 0.929 . S
C437 O427 1.282 . S
C437 O438 1.216 . S
O438 C437 1.216 . S
H439 C434 0.930 . S
H440 C435 0.930 . S
O441 Cu421 1.959 . S
O441 C428 1.251 . S
H442 C425 0.930 . S
H443 C436 0.929 . S
Cu444 N445 1.999 . S
Cu444 O450 1.974 . S
Cu444 N455 1.985 1_455 S
Cu444 O464 1.959 1_455 S
N445 Cu444 1.999 . S
N445 C447 1.263 . S
N445 C449 1.389 . S
N446 C447 1.358 . S
N446 C448 1.400 . S
C447 N445 1.263 . S
C447 N446 1.358 . S
C447 H453 0.930 . S
C448 N446 1.400 . S
C448 C449 1.351 . S
C448 H465 0.930 . S
C449 N445 1.389 . S
C449 C448 1.351 . S
C449 H454 0.930 . S
O450 Cu444 1.974 . S
O450 C460 1.282 . S
C451 O452 1.261 . S
C451 O464 1.251 . S
O452 C451 1.261 . S
H453 C447 0.930 . S
H454 C449 0.930 . S
N455 Cu444 1.985 1_655 S
N455 C457 1.335 . S
N455 C458 1.390 . S
N456 C457 1.345 . S
N456 C459 1.336 . S
C457 N455 1.335 . S
C457 N456 1.345 . S
C457 H462 0.930 . S
C458 N455 1.390 . S
C458 C459 1.346 . S
C458 H463 0.930 1_655 S
C459 N456 1.336 . S
C459 C458 1.346 . S
C459 H466 0.929 . S
C460 O450 1.282 . S
C460 O461 1.216 . S
O461 C460 1.216 . S
H462 C457 0.930 . S
H463 C458 0.930 1_455 S
O464 Cu444 1.959 1_655 S
O464 C451 1.251 . S
H465 C448 0.930 . S
H466 C459 0.929 . S
Cu467 N468 2.028 . S
Cu467 O473 2.009 . S
Cu467 N478 1.958 1_545 S
Cu467 O487 1.925 1_545 S
N468 Cu467 2.028 . S
N468 C470 1.263 . S
N468 C472 1.389 . S
N469 C470 1.358 . S
N469 C471 1.400 . S
C470 N468 1.263 . S
C470 N469 1.358 . S
C470 H476 0.930 . S
C471 N469 1.400 . S
C471 C472 1.351 . S
C471 H488 0.930 . S
C472 N468 1.389 . S
C472 C471 1.351 . S
C472 H477 0.930 . S
O473 Cu467 2.009 . S
O473 C483 1.282 . S
C474 O475 1.261 . S
C474 O487 1.251 . S
O475 C474 1.261 . S
H476 C470 0.930 . S
H477 C472 0.930 . S
N478 Cu467 1.958 1_565 S
N478 C480 1.335 . S
N478 C481 1.390 . S
N479 C480 1.345 . S
N479 C482 1.336 . S
C480 N478 1.335 . S
C480 N479 1.345 . S
C480 H485 0.930 . S
C481 N478 1.390 . S
C481 C482 1.346 . S
C481 H486 0.930 1_565 S
C482 N479 1.336 . S
C482 C481 1.346 . S
C482 H489 0.929 . S
C483 O473 1.282 . S
C483 O484 1.216 . S
O484 C483 1.216 . S
H485 C480 0.930 . S
H486 C481 0.930 1_545 S
O487 Cu467 1.925 1_565 S
O487 C474 1.251 . S
H488 C471 0.930 . S
H489 C482 0.929 . S
Cu490 N491 1.999 . S
Cu490 O496 1.974 . S
Cu490 N501 1.985 . S
Cu490 O510 1.959 . S
N491 Cu490 1.999 . S
N491 C493 1.263 . S
N491 C495 1.389 . S
N492 C493 1.358 . S
N492 C494 1.400 . S
C493 N491 1.263 . S
C493 N492 1.358 . S
C493 H499 0.930 . S
C494 N492 1.400 . S
C494 C495 1.351 . S
C494 H511 0.930 . S
C495 N491 1.389 . S
C495 C494 1.351 . S
C495 H500 0.930 . S
O496 Cu490 1.974 . S
O496 C506 1.282 . S
C497 O498 1.261 . S
C497 O510 1.251 . S
O498 C497 1.261 . S
H499 C493 0.930 . S
H500 C495 0.930 . S
N501 Cu490 1.985 . S
N501 C503 1.335 . S
N501 C504 1.390 . S
N502 C503 1.345 . S
N502 C505 1.336 . S
C503 N501 1.335 . S
C503 N502 1.345 . S
C503 H508 0.930 . S
C504 N501 1.390 . S
C504 C505 1.346 . S
C504 H509 0.930 . S
C505 N502 1.336 . S
C505 C504 1.346 . S
C505 H512 0.929 . S
C506 O496 1.282 . S
C506 O507 1.216 . S
O507 C506 1.216 . S
H508 C503 0.930 . S
H509 C504 0.930 . S
O510 Cu490 1.959 . S
O510 C497 1.251 . S
H511 C494 0.930 . S
H512 C505 0.929 . S
Cu513 N514 1.999 . S
Cu513 O519 1.974 . S
Cu513 N524 1.985 1_545 S
Cu513 O533 1.959 1_545 S
N514 Cu513 1.999 . S
N514 C516 1.263 . S
N514 C518 1.389 . S
N515 C516 1.358 . S
N515 C517 1.400 . S
C516 N514 1.263 . S
C516 N515 1.358 . S
C516 H522 0.930 . S
C517 N515 1.400 . S
C517 C518 1.351 . S
C517 H534 0.930 . S
C518 N514 1.389 . S
C518 C517 1.351 . S
C518 H523 0.930 . S
O519 Cu513 1.974 . S
O519 C529 1.282 . S
C520 O521 1.261 . S
C520 O533 1.251 . S
O521 C520 1.261 . S
H522 C516 0.930 . S
H523 C518 0.930 . S
N524 Cu513 1.985 1_565 S
N524 C526 1.335 . S
N524 C527 1.390 . S
N525 C526 1.345 . S
N525 C528 1.336 . S
C526 N524 1.335 . S
C526 N525 1.345 . S
C526 H531 0.930 . S
C527 N524 1.390 . S
C527 C528 1.346 . S
C527 H532 0.930 . S
C528 N525 1.336 . S
C528 C527 1.346 . S
C528 H535 0.929 . S
C529 O519 1.282 . S
C529 O530 1.216 . S
O530 C529 1.216 . S
H531 C526 0.930 . S
H532 C527 0.930 . S
O533 Cu513 1.959 1_565 S
O533 C520 1.251 . S
H534 C517 0.930 . S
H535 C528 0.929 . S
Cu536 N537 1.999 . S
Cu536 O542 1.974 . S
Cu536 N547 1.985 1_455 S
Cu536 O556 1.959 1_455 S
N537 Cu536 1.999 . S
N537 C539 1.263 . S
N537 C541 1.389 . S
N538 C539 1.358 . S
N538 C540 1.400 . S
C539 N537 1.263 . S
C539 N538 1.358 . S
C539 H545 0.930 . S
C540 N538 1.400 . S
C540 C541 1.351 . S
C540 H557 0.930 . S
C541 N537 1.389 . S
C541 C540 1.351 . S
C541 H546 0.930 . S
O542 Cu536 1.974 . S
O542 C552 1.282 . S
C543 O544 1.261 . S
C543 O556 1.251 . S
O544 C543 1.261 . S
H545 C539 0.930 . S
H546 C541 0.930 . S
N547 Cu536 1.985 1_655 S
N547 C549 1.335 . S
N547 C550 1.390 . S
N548 C549 1.345 . S
N548 C551 1.336 . S
C549 N547 1.335 . S
C549 N548 1.345 . S
C549 H554 0.930 . S
C550 N547 1.390 . S
C550 C551 1.346 . S
C550 H555 0.930 1_655 S
C551 N548 1.336 . S
C551 C550 1.346 . S
C551 H558 0.929 . S
C552 O542 1.282 . S
C552 O553 1.216 . S
O553 C552 1.216 . S
H554 C549 0.930 . S
H555 C550 0.930 1_455 S
O556 Cu536 1.959 1_655 S
O556 C543 1.251 . S
H557 C540 0.930 . S
H558 C551 0.929 . S
Cu559 N560 1.999 . S
Cu559 O565 1.974 . S
Cu559 N570 1.985 1_545 S
Cu559 O579 1.959 1_545 S
N560 Cu559 1.999 . S
N560 C562 1.263 . S
N560 C564 1.389 . S
N561 C562 1.358 . S
N561 C563 1.400 . S
C562 N560 1.263 . S
C562 N561 1.358 . S
C562 H568 0.930 . S
C563 N561 1.400 . S
C563 C564 1.351 . S
C563 H580 0.930 . S
C564 N560 1.389 . S
C564 C563 1.351 . S
C564 H569 0.930 . S
O565 Cu559 1.974 . S
O565 C575 1.282 . S
C566 O567 1.261 . S
C566 O579 1.251 . S
O567 C566 1.261 . S
H568 C562 0.930 . S
H569 C564 0.930 . S
N570 Cu559 1.985 1_565 S
N570 C572 1.335 . S
N570 C573 1.390 . S
N571 C572 1.345 . S
N571 C574 1.336 . S
C572 N570 1.335 . S
C572 N571 1.345 . S
C572 H577 0.930 . S
C573 N570 1.390 . S
C573 C574 1.346 . S
C573 H578 0.930 1_565 S
C574 N571 1.336 . S
C574 C573 1.346 . S
C574 H581 0.929 . S
C575 O565 1.282 . S
C575 O576 1.216 . S
O576 C575 1.216 . S
H577 C572 0.930 . S
H578 C573 0.930 1_545 S
O579 Cu559 1.959 1_565 S
O579 C566 1.251 . S
H580 C563 0.930 . S
H581 C574 0.929 . S
Cu582 N583 1.999 . S
Cu582 O588 1.974 . S
Cu582 N593 1.985 . S
Cu582 O602 1.959 . S
N583 Cu582 1.999 . S
N583 C585 1.263 . S
N583 C587 1.389 . S
N584 C585 1.358 . S
N584 C586 1.400 . S
C585 N583 1.263 . S
C585 N584 1.358 . S
C585 H591 0.930 . S
C586 N584 1.400 . S
C586 C587 1.351 . S
C586 H603 0.930 . S
C587 N583 1.389 . S
C587 C586 1.351 . S
C587 H592 0.930 . S
O588 Cu582 1.974 . S
O588 C598 1.282 . S
C589 O590 1.261 . S
C589 O602 1.251 . S
O590 C589 1.261 . S
H591 C585 0.930 . S
H592 C587 0.930 . S
N593 Cu582 1.985 . S
N593 C595 1.335 . S
N593 C596 1.390 . S
N594 C595 1.345 . S
N594 C597 1.336 . S
C595 N593 1.335 . S
C595 N594 1.345 . S
C595 H600 0.930 . S
C596 N593 1.390 . S
C596 C597 1.346 . S
C596 H601 0.930 . S
C597 N594 1.336 . S
C597 C596 1.346 . S
C597 H604 0.929 . S
C598 O588 1.282 . S
C598 O599 1.216 . S
O599 C598 1.216 . S
H600 C595 0.930 . S
H601 C596 0.930 . S
O602 Cu582 1.959 . S
O602 C589 1.251 . S
H603 C586 0.930 . S
H604 C597 0.929 . S
Cu605 N606 1.999 . S
Cu605 O611 1.974 . S
Cu605 N616 1.985 . S
Cu605 O625 1.959 . S
N606 Cu605 1.999 . S
N606 C608 1.263 . S
N606 C610 1.389 . S
N607 C608 1.358 . S
N607 C609 1.400 . S
C608 N606 1.263 . S
C608 N607 1.358 . S
C608 H614 0.930 . S
C609 N607 1.400 . S
C609 C610 1.351 . S
C609 H626 0.930 . S
C610 N606 1.389 . S
C610 C609 1.351 . S
C610 H615 0.930 . S
O611 Cu605 1.974 . S
O611 C621 1.282 . S
C612 O613 1.261 . S
C612 O625 1.251 . S
O613 C612 1.261 . S
H614 C608 0.930 . S
H615 C610 0.930 . S
N616 Cu605 1.985 . S
N616 C618 1.335 1_545 S
N616 C619 1.390 . S
N617 C618 1.345 . S
N617 C620 1.336 . S
C618 N616 1.335 1_565 S
C618 N617 1.345 . S
C618 H623 0.930 . S
C619 N616 1.390 . S
C619 C620 1.346 1_545 S
C619 H624 0.930 . S
C620 N617 1.336 . S
C620 C619 1.346 1_565 S
C620 H627 0.929 . S
C621 O611 1.282 . S
C621 O622 1.216 . S
O622 C621 1.216 . S
H623 C618 0.930 . S
H624 C619 0.930 . S
O625 Cu605 1.959 . S
O625 C612 1.251 . S
H626 C609 0.930 . S
H627 C620 0.929 . S
Cu628 N629 1.999 . S
Cu628 O634 1.974 . S
Cu628 N639 1.985 . S
Cu628 O648 1.959 . S
N629 Cu628 1.999 . S
N629 C631 1.263 . S
N629 C633 1.389 . S
N630 C631 1.358 . S
N630 C632 1.400 . S
C631 N629 1.263 . S
C631 N630 1.358 . S
C631 H637 0.930 . S
C632 N630 1.400 . S
C632 C633 1.351 . S
C632 H649 0.930 . S
C633 N629 1.389 . S
C633 C632 1.351 . S
C633 H638 0.930 . S
O634 Cu628 1.974 . S
O634 C644 1.282 . S
C635 O636 1.261 . S
C635 O648 1.251 . S
O636 C635 1.261 . S
H637 C631 0.930 . S
H638 C633 0.930 . S
N639 Cu628 1.985 . S
N639 C641 1.335 . S
N639 C642 1.390 . S
N640 C641 1.345 . S
N640 C643 1.336 . S
C641 N639 1.335 . S
C641 N640 1.345 . S
C641 H646 0.930 . S
C642 N639 1.390 . S
C642 C643 1.346 . S
C642 H647 0.930 . S
C643 N640 1.336 . S
C643 C642 1.346 . S
C643 H650 0.929 . S
C644 O634 1.282 . S
C644 O645 1.216 . S
O645 C644 1.216 . S
H646 C641 0.930 . S
H647 C642 0.930 . S
O648 Cu628 1.959 . S
O648 C635 1.251 . S
H649 C632 0.930 . S
H650 C643 0.929 . S
Cu651 N652 1.999 . S
Cu651 O657 1.974 . S
Cu651 N662 1.985 . S
Cu651 O671 1.959 . S
N652 Cu651 1.999 . S
N652 C654 1.263 . S
N652 C656 1.389 . S
N653 C654 1.358 . S
N653 C655 1.400 . S
C654 N652 1.263 . S
C654 N653 1.358 . S
C654 H660 0.930 . S
C655 N653 1.400 . S
C655 C656 1.351 . S
C655 H672 0.930 . S
C656 N652 1.389 . S
C656 C655 1.351 . S
C656 H661 0.930 . S
O657 Cu651 1.974 . S
O657 C667 1.282 . S
C658 O659 1.261 . S
C658 O671 1.251 . S
O659 C658 1.261 . S
H660 C654 0.930 . S
H661 C656 0.930 . S
N662 Cu651 1.985 . S
N662 C664 1.335 . S
N662 C665 1.390 . S
N663 C664 1.345 . S
N663 C666 1.336 . S
C664 N662 1.335 . S
C664 N663 1.345 . S
C664 H669 0.930 . S
C665 N662 1.390 . S
C665 C666 1.346 . S
C665 H670 0.930 . S
C666 N663 1.336 . S
C666 C665 1.346 . S
C666 H673 0.929 . S
C667 O657 1.282 . S
C667 O668 1.216 . S
O668 C667 1.216 . S
H669 C664 0.930 . S
H670 C665 0.930 . S
O671 Cu651 1.959 . S
O671 C658 1.251 . S
H672 C655 0.930 . S
H673 C666 0.929 . S
Cu674 N675 1.999 . S
Cu674 O680 1.974 . S
Cu674 N685 1.985 . S
Cu674 O694 1.959 . S
N675 Cu674 1.999 . S
N675 C677 1.263 . S
N675 C679 1.389 . S
N676 C677 1.358 . S
N676 C678 1.400 . S
C677 N675 1.263 . S
C677 N676 1.358 . S
C677 H683 0.930 . S
C678 N676 1.400 . S
C678 C679 1.351 . S
C678 H695 0.930 . S
C679 N675 1.389 . S
C679 C678 1.351 . S
C679 H684 0.930 . S
O680 Cu674 1.974 . S
O680 C690 1.282 . S
C681 O682 1.261 . S
C681 O694 1.251 . S
O682 C681 1.261 . S
H683 C677 0.930 . S
H684 C679 0.930 . S
N685 Cu674 1.985 . S
N685 C687 1.335 . S
N685 C688 1.390 . S
N686 C687 1.345 . S
N686 C689 1.336 . S
C687 N685 1.335 . S
C687 N686 1.345 . S
C687 H692 0.930 . S
C688 N685 1.390 . S
C688 C689 1.346 . S
C688 H693 0.930 . S
C689 N686 1.336 . S
C689 C688 1.346 . S
C689 H696 0.929 . S
C690 O680 1.282 . S
C690 O691 1.216 . S
O691 C690 1.216 . S
H692 C687 0.930 . S
H693 C688 0.930 . S
O694 Cu674 1.959 . S
O694 C681 1.251 . S
H695 C678 0.930 . S
H696 C689 0.929 . S
Cu697 N698 1.999 . S
Cu697 O703 1.974 . S
Cu697 N708 1.985 . S
Cu697 O717 1.959 . S
N698 Cu697 1.999 . S
N698 C700 1.263 . S
N698 C702 1.389 . S
N699 C700 1.358 . S
N699 C701 1.400 . S
C700 N698 1.263 . S
C700 N699 1.358 . S
C700 H706 0.930 . S
C701 N699 1.400 . S
C701 C702 1.351 . S
C701 H718 0.930 . S
C702 N698 1.389 . S
C702 C701 1.351 . S
C702 H707 0.930 . S
O703 Cu697 1.974 . S
O703 C713 1.282 . S
C704 O705 1.261 . S
C704 O717 1.251 . S
O705 C704 1.261 . S
H706 C700 0.930 . S
H707 C702 0.930 . S
N708 Cu697 1.985 . S
N708 C710 1.335 . S
N708 C711 1.390 . S
N709 C710 1.345 . S
N709 C712 1.336 . S
C710 N708 1.335 . S
C710 N709 1.345 . S
C710 H715 0.930 . S
C711 N708 1.390 . S
C711 C712 1.346 . S
C711 H716 0.930 . S
C712 N709 1.336 . S
C712 C711 1.346 . S
C712 H719 0.929 . S
C713 O703 1.282 . S
C713 O714 1.216 . S
O714 C713 1.216 . S
H715 C710 0.930 . S
H716 C711 0.930 . S
O717 Cu697 1.959 . S
O717 C704 1.251 . S
H718 C701 0.930 . S
H719 C712 0.929 . S
Cu720 N721 1.999 . S
Cu720 O726 1.974 . S
Cu720 N731 1.985 . S
Cu720 O740 1.959 . S
N721 Cu720 1.999 . S
N721 C723 1.263 . S
N721 C725 1.389 . S
N722 C723 1.358 . S
N722 C724 1.400 . S
C723 N721 1.263 . S
C723 N722 1.358 . S
C723 H729 0.930 . S
C724 N722 1.400 . S
C724 C725 1.351 . S
C724 H741 0.930 . S
C725 N721 1.389 . S
C725 C724 1.351 . S
C725 H730 0.930 . S
O726 Cu720 1.974 . S
O726 C736 1.282 . S
C727 O728 1.261 . S
C727 O740 1.251 . S
O728 C727 1.261 . S
H729 C723 0.930 . S
H730 C725 0.930 . S
N731 Cu720 1.985 . S
N731 C733 1.335 . S
N731 C734 1.390 . S
N732 C733 1.345 . S
N732 C735 1.336 . S
C733 N731 1.335 . S
C733 N732 1.345 . S
C733 H738 0.930 . S
C734 N731 1.390 . S
C734 C735 1.346 . S
C734 H739 0.930 . S
C735 N732 1.336 . S
C735 C734 1.346 . S
C735 H742 0.929 . S
C736 O726 1.282 . S
C736 O737 1.216 . S
O737 C736 1.216 . S
H738 C733 0.930 . S
H739 C734 0.930 . S
O740 Cu720 1.959 . S
O740 C727 1.251 . S
H741 C724 0.930 . S
H742 C735 0.929 . S
Cu743 N744 1.999 . S
Cu743 O749 1.974 . S
Cu743 N754 1.985 . S
Cu743 O763 1.959 . S
N744 Cu743 1.999 . S
N744 C746 1.263 . S
N744 C748 1.389 . S
N745 C746 1.358 . S
N745 C747 1.400 . S
C746 N744 1.263 . S
C746 N745 1.358 . S
C746 H752 0.930 . S
C747 N745 1.400 . S
C747 C748 1.351 . S
C747 H764 0.930 . S
C748 N744 1.389 . S
C748 C747 1.351 . S
C748 H753 0.930 . S
O749 Cu743 1.974 . S
O749 C759 1.282 . S
C750 O751 1.261 . S
C750 O763 1.251 . S
O751 C750 1.261 . S
H752 C746 0.930 . S
H753 C748 0.930 . S
N754 Cu743 1.985 . S
N754 C756 1.335 . S
N754 C757 1.390 . S
N755 C756 1.345 . S
N755 C758 1.336 . S
C756 N754 1.335 . S
C756 N755 1.345 . S
C756 H761 0.930 . S
C757 N754 1.390 . S
C757 C758 1.346 . S
C757 H762 0.930 . S
C758 N755 1.336 . S
C758 C757 1.346 . S
C758 H765 0.929 . S
C759 O749 1.282 . S
C759 O760 1.216 . S
O760 C759 1.216 . S
H761 C756 0.930 . S
H762 C757 0.930 . S
O763 Cu743 1.959 . S
O763 C750 1.251 . S
H764 C747 0.930 . S
H765 C758 0.929 . S
Cu766 N767 1.999 . S
Cu766 O772 1.974 . S
Cu766 N777 1.985 . S
Cu766 O786 1.959 . S
N767 Cu766 1.999 . S
N767 C769 1.263 . S
N767 C771 1.389 . S
N768 C769 1.358 . S
N768 C770 1.400 . S
C769 N767 1.263 . S
C769 N768 1.358 . S
C769 H775 0.930 . S
C770 N768 1.400 . S
C770 C771 1.351 . S
C770 H787 0.930 . S
C771 N767 1.389 . S
C771 C770 1.351 . S
C771 H776 0.930 . S
O772 Cu766 1.974 . S
O772 C782 1.282 . S
C773 O774 1.261 . S
C773 O786 1.251 . S
O774 C773 1.261 . S
H775 C769 0.930 . S
H776 C771 0.930 . S
N777 Cu766 1.985 . S
N777 C779 1.335 . S
N777 C780 1.390 . S
N778 C779 1.345 . S
N778 C781 1.336 . S
C779 N777 1.335 . S
C779 N778 1.345 . S
C779 H784 0.930 . S
C780 N777 1.390 . S
C780 C781 1.346 . S
C780 H785 0.930 . S
C781 N778 1.336 . S
C781 C780 1.346 . S
C781 H788 0.929 . S
C782 O772 1.282 . S
C782 O783 1.216 . S
O783 C782 1.216 . S
H784 C779 0.930 . S
H785 C780 0.930 . S
O786 Cu766 1.959 . S
O786 C773 1.251 . S
H787 C770 0.930 . S
H788 C781 0.929 . S
Cu789 N790 1.999 . S
Cu789 O795 1.974 . S
Cu789 N800 1.985 . S
Cu789 O809 1.959 . S
N790 Cu789 1.999 . S
N790 C792 1.263 . S
N790 C794 1.389 . S
N791 C792 1.358 . S
N791 C793 1.400 . S
C792 N790 1.263 . S
C792 N791 1.358 . S
C792 H798 0.930 . S
C793 N791 1.400 . S
C793 C794 1.351 . S
C793 H810 0.930 . S
C794 N790 1.389 . S
C794 C793 1.351 . S
C794 H799 0.930 . S
O795 Cu789 1.974 . S
O795 C805 1.282 . S
C796 O797 1.261 . S
C796 O809 1.251 . S
O797 C796 1.261 . S
H798 C792 0.930 . S
H799 C794 0.930 . S
N800 Cu789 1.985 . S
N800 C802 1.335 . S
N800 C803 1.390 . S
N801 C802 1.345 . S
N801 C804 1.336 . S
C802 N800 1.335 . S
C802 N801 1.345 . S
C802 H807 0.930 . S
C803 N800 1.390 . S
C803 C804 1.346 . S
C803 H808 0.930 . S
C804 N801 1.336 . S
C804 C803 1.346 . S
C804 H811 0.929 . S
C805 O795 1.282 . S
C805 O806 1.216 . S
O806 C805 1.216 . S
H807 C802 0.930 . S
H808 C803 0.930 . S
O809 Cu789 1.959 . S
O809 C796 1.251 . S
H810 C793 0.930 . S
H811 C804 0.929 . S
Cu812 N813 1.999 . S
Cu812 O818 1.974 . S
Cu812 N823 1.985 . S
Cu812 O832 1.959 . S
N813 Cu812 1.999 . S
N813 C815 1.263 . S
N813 C817 1.389 . S
N814 C815 1.358 . S
N814 C816 1.400 . S
C815 N813 1.263 . S
C815 N814 1.358 . S
C815 H821 0.930 . S
C816 N814 1.400 . S
C816 C817 1.351 . S
C816 H833 0.930 . S
C817 N813 1.389 . S
C817 C816 1.351 . S
C817 H822 0.930 . S
O818 Cu812 1.974 . S
O818 C828 1.282 . S
C819 O820 1.261 . S
C819 O832 1.251 . S
O820 C819 1.261 . S
H821 C815 0.930 . S
H822 C817 0.930 . S
N823 Cu812 1.985 . S
N823 C825 1.335 . S
N823 C826 1.390 . S
N824 C825 1.345 . S
N824 C827 1.336 . S
C825 N823 1.335 . S
C825 N824 1.345 . S
C825 H830 0.930 . S
C826 N823 1.390 . S
C826 C827 1.346 . S
C826 H831 0.930 . S
C827 N824 1.336 . S
C827 C826 1.346 . S
C827 H834 0.929 . S
C828 O818 1.282 . S
C828 O829 1.216 . S
O829 C828 1.216 . S
H830 C825 0.930 . S
H831 C826 0.930 . S
O832 Cu812 1.959 . S
O832 C819 1.251 . S
H833 C816 0.930 . S
H834 C827 0.929 . S
Cu835 N836 1.999 . S
Cu835 O841 1.974 . S
Cu835 N846 1.985 . S
Cu835 O855 1.959 . S
N836 Cu835 1.999 . S
N836 C838 1.263 . S
N836 C840 1.389 . S
N837 C838 1.358 . S
N837 C839 1.400 . S
C838 N836 1.263 . S
C838 N837 1.358 . S
C838 H844 0.930 . S
C839 N837 1.400 . S
C839 C840 1.351 . S
C839 H856 0.930 . S
C840 N836 1.389 . S
C840 C839 1.351 . S
C840 H845 0.930 . S
O841 Cu835 1.974 . S
O841 C851 1.282 . S
C842 O843 1.261 . S
C842 O855 1.251 . S
O843 C842 1.261 . S
H844 C838 0.930 . S
H845 C840 0.930 . S
N846 Cu835 1.985 . S
N846 C848 1.335 . S
N846 C849 1.390 . S
N847 C848 1.345 . S
N847 C850 1.336 . S
C848 N846 1.335 . S
C848 N847 1.345 . S
C848 H853 0.930 . S
C849 N846 1.390 . S
C849 C850 1.346 . S
C849 H854 0.930 . S
C850 N847 1.336 . S
C850 C849 1.346 . S
C850 H857 0.929 . S
C851 O841 1.282 . S
C851 O852 1.216 . S
O852 C851 1.216 . S
H853 C848 0.930 . S
H854 C849 0.930 . S
O855 Cu835 1.959 . S
O855 C842 1.251 . S
H856 C839 0.930 . S
H857 C850 0.929 . S
Cu858 N859 1.999 . S
Cu858 O864 1.974 . S
Cu858 N869 1.985 . S
Cu858 O878 1.959 . S
N859 Cu858 1.999 . S
N859 C861 1.263 . S
N859 C863 1.389 . S
N860 C861 1.358 . S
N860 C862 1.400 . S
C861 N859 1.263 . S
C861 N860 1.358 . S
C861 H867 0.930 . S
C862 N860 1.400 . S
C862 C863 1.351 . S
C862 H879 0.930 . S
C863 N859 1.389 . S
C863 C862 1.351 . S
C863 H868 0.930 . S
O864 Cu858 1.974 . S
O864 C874 1.282 . S
C865 O866 1.261 . S
C865 O878 1.251 . S
O866 C865 1.261 . S
H867 C861 0.930 . S
H868 C863 0.930 . S
N869 Cu858 1.985 . S
N869 C871 1.335 . S
N869 C872 1.390 . S
N870 C871 1.345 . S
N870 C873 1.336 . S
C871 N869 1.335 . S
C871 N870 1.345 . S
C871 H876 0.930 . S
C872 N869 1.390 . S
C872 C873 1.346 . S
C872 H877 0.930 . S
C873 N870 1.336 . S
C873 C872 1.346 . S
C873 H880 0.929 . S
C874 O864 1.282 . S
C874 O875 1.216 . S
O875 C874 1.216 . S
H876 C871 0.930 . S
H877 C872 0.930 . S
O878 Cu858 1.959 . S
O878 C865 1.251 . S
H879 C862 0.930 . S
H880 C873 0.929 . S
Cu881 N882 1.999 . S
Cu881 O887 1.974 . S
Cu881 N892 1.985 . S
Cu881 O901 1.959 . S
N882 Cu881 1.999 . S
N882 C884 1.263 . S
N882 C886 1.389 . S
N883 C884 1.358 . S
N883 C885 1.400 . S
C884 N882 1.263 . S
C884 N883 1.358 . S
C884 H890 0.930 . S
C885 N883 1.400 . S
C885 C886 1.351 . S
C885 H902 0.930 . S
C886 N882 1.389 . S
C886 C885 1.351 . S
C886 H891 0.930 . S
O887 Cu881 1.974 . S
O887 C897 1.282 . S
C888 O889 1.261 . S
C888 O901 1.251 . S
O889 C888 1.261 . S
H890 C884 0.930 . S
H891 C886 0.930 . S
N892 Cu881 1.985 . S
N892 C894 1.335 . S
N892 C895 1.390 . S
N893 C894 1.345 . S
N893 C896 1.336 . S
C894 N892 1.335 . S
C894 N893 1.345 . S
C894 H899 0.930 . S
C895 N892 1.390 . S
C895 C896 1.346 . S
C895 H900 0.930 . S
C896 N893 1.336 . S
C896 C895 1.346 . S
C896 H903 0.929 . S
C897 O887 1.282 . S
C897 O898 1.216 . S
O898 C897 1.216 . S
H899 C894 0.930 . S
H900 C895 0.930 . S
O901 Cu881 1.959 . S
O901 C888 1.251 . S
H902 C885 0.930 . S
H903 C896 0.929 . S
H904 C912 0.950 . S
H905 C917 0.950 . S
H906 C914 0.950 . S
H907 C916 0.950 . S
H908 C918 0.950 . S
H909 C920 0.950 . S
H910 C922 0.950 . S
H911 C923 0.950 . S
C912 H904 0.950 . S
C912 C913 1.386 . S
C912 C914 1.391 . S
C913 C912 1.386 . S
C913 C917 1.393 . S
C914 H906 0.950 . S
C914 C912 1.391 . S
C914 C915 1.400 . S
C915 C914 1.400 . S
C915 C916 1.398 . S
C915 C921 1.491 . S
C916 H907 0.950 . S
C916 C915 1.398 . S
C916 C917 1.391 . S
C917 H905 0.950 . S
C917 C913 1.393 . S
C917 C916 1.391 . S
C918 H908 0.950 . S
C918 C919 1.386 . S
C918 C920 1.391 . S
C919 C918 1.386 . S
C919 C923 1.393 . S
C920 H909 0.950 . S
C920 C918 1.391 . S
C920 C921 1.400 . S
C921 C915 1.491 . S
C921 C920 1.400 . S
C921 C922 1.398 . S
C922 H910 0.950 . S
C922 C921 1.398 . S
C922 C923 1.391 . S
C923 H911 0.950 . S
C923 C919 1.393 . S
C923 C922 1.391 . S
H924 C932 0.950 . S
H925 C937 0.950 . S
H926 C934 0.950 . S
H927 C936 0.950 . S
H928 C938 0.950 . S
H929 C940 0.950 . S
H930 C942 0.950 . S
H931 C943 0.950 . S
C932 H924 0.950 . S
C932 C933 1.386 . S
C932 C934 1.391 . S
C933 C932 1.386 . S
C933 C937 1.393 . S
C934 H926 0.950 . S
C934 C932 1.391 . S
C934 C935 1.400 . S
C935 C934 1.400 . S
C935 C936 1.398 . S
C935 C941 1.491 . S
C936 H927 0.950 . S
C936 C935 1.398 . S
C936 C937 1.391 . S
C937 H925 0.950 . S
C937 C933 1.393 . S
C937 C936 1.391 . S
C938 H928 0.950 . S
C938 C939 1.386 . S
C938 C940 1.391 . S
C939 C938 1.386 . S
C939 C943 1.393 . S
C940 H929 0.950 . S
C940 C938 1.391 . S
C940 C941 1.400 . S
C941 C935 1.491 . S
C941 C940 1.400 . S
C941 C942 1.398 . S
C942 H930 0.950 . S
C942 C941 1.398 . S
C942 C943 1.391 . S
C943 H931 0.950 . S
C943 C939 1.393 . S
C943 C942 1.391 . S
H944 C952 0.950 . S
H945 C957 0.950 . S
H946 C954 0.950 . S
H947 C956 0.950 . S
H948 C958 0.950 . S
H949 C960 0.950 . S
H950 C962 0.950 . S
H951 C963 0.950 . S
C952 H944 0.950 . S
C952 C953 1.386 . S
C952 C954 1.391 . S
C953 C952 1.386 . S
C953 C957 1.393 . S
C954 H946 0.950 . S
C954 C952 1.391 . S
C954 C955 1.400 . S
C955 C954 1.400 . S
C955 C956 1.398 . S
C955 C961 1.491 . S
C956 H947 0.950 . S
C956 C955 1.398 . S
C956 C957 1.391 . S
C957 H945 0.950 . S
C957 C953 1.393 . S
C957 C956 1.391 . S
C958 H948 0.950 . S
C958 C959 1.386 . S
C958 C960 1.391 . S
C959 C958 1.386 . S
C959 C963 1.393 . S
C960 H949 0.950 . S
C960 C958 1.391 . S
C960 C961 1.400 . S
C961 C955 1.491 . S
C961 C960 1.400 . S
C961 C962 1.398 . S
C962 H950 0.950 . S
C962 C961 1.398 . S
C962 C963 1.391 . S
C963 H951 0.950 . S
C963 C959 1.393 . S
C963 C962 1.391 . S
H964 C972 0.950 . S
H965 C977 0.950 . S
H966 C974 0.950 . S
H967 C976 0.950 . S
H968 C978 0.950 . S
H969 C980 0.950 . S
H970 C982 0.950 . S
H971 C983 0.950 . S
C972 H964 0.950 . S
C972 C973 1.386 . S
C972 C974 1.391 . S
C973 C972 1.386 . S
C973 C977 1.393 . S
C974 H966 0.950 . S
C974 C972 1.391 . S
C974 C975 1.400 . S
C975 C974 1.400 . S
C975 C976 1.398 . S
C975 C981 1.491 . S
C976 H967 0.950 . S
C976 C975 1.398 . S
C976 C977 1.391 . S
C977 H965 0.950 . S
C977 C973 1.393 . S
C977 C976 1.391 . S
C978 H968 0.950 . S
C978 C979 1.386 . S
C978 C980 1.391 . S
C979 C978 1.386 . S
C979 C983 1.393 . S
C980 H969 0.950 . S
C980 C978 1.391 . S
C980 C981 1.400 . S
C981 C975 1.491 . S
C981 C980 1.400 . S
C981 C982 1.398 . S
C982 H970 0.950 . S
C982 C981 1.398 . S
C982 C983 1.391 . S
C983 H971 0.950 . S
C983 C979 1.393 . S
C983 C982 1.391 . S
H984 C992 0.950 . S
H985 C997 0.950 . S
H986 C994 0.950 . S
H987 C996 0.950 . S
H988 C998 0.950 . S
H989 C1000 0.950 . S
H990 C1002 0.950 . S
H991 C1003 0.950 . S
C992 H984 0.950 . S
C992 C993 1.386 . S
C992 C994 1.391 . S
C993 C992 1.386 . S
C993 C997 1.393 . S
C994 H986 0.950 . S
C994 C992 1.391 . S
C994 C995 1.400 . S
C995 C994 1.400 . S
C995 C996 1.398 . S
C995 C1001 1.491 . S
C996 H987 0.950 . S
C996 C995 1.398 . S
C996 C997 1.391 . S
C997 H985 0.950 . S
C997 C993 1.393 . S
C997 C996 1.391 . S
C998 H988 0.950 . S
C998 C999 1.386 . S
C998 C1000 1.391 . S
C999 C998 1.386 . S
C999 C1003 1.393 . S
C1000 H989 0.950 . S
C1000 C998 1.391 . S
C1000 C1001 1.400 . S
C1001 C995 1.491 . S
C1001 C1000 1.400 . S
C1001 C1002 1.398 . S
C1002 H990 0.950 . S
C1002 C1001 1.398 . S
C1002 C1003 1.391 . S
C1003 H991 0.950 . S
C1003 C999 1.393 . S
C1003 C1002 1.391 . S
H1004 C1012 0.950 . S
H1005 C1017 0.950 . S
H1006 C1014 0.950 . S
H1007 C1016 0.950 . S
H1008 C1018 0.950 . S
H1009 C1020 0.950 . S
H1010 C1022 0.950 . S
H1011 C1023 0.950 . S
C1012 H1004 0.950 . S
C1012 C1013 1.386 . S
C1012 C1014 1.391 . S
C1013 C1012 1.386 . S
C1013 C1017 1.393 . S
C1014 H1006 0.950 . S
C1014 C1012 1.391 . S
C1014 C1015 1.400 . S
C1015 C1014 1.400 . S
C1015 C1016 1.398 . S
C1015 C1021 1.491 . S
C1016 H1007 0.950 . S
C1016 C1015 1.398 . S
C1016 C1017 1.391 . S
C1017 H1005 0.950 . S
C1017 C1013 1.393 . S
C1017 C1016 1.391 . S
C1018 H1008 0.950 . S
C1018 C1019 1.386 . S
C1018 C1020 1.391 1_554 S
C1019 C1018 1.386 . S
C1019 C1023 1.393 1_554 S
C1020 H1009 0.950 . S
C1020 C1018 1.391 1_556 S
C1020 C1021 1.400 . S
C1021 C1015 1.491 . S
C1021 C1020 1.400 . S
C1021 C1022 1.398 . S
C1022 H1010 0.950 . S
C1022 C1021 1.398 . S
C1022 C1023 1.391 . S
C1023 H1011 0.950 . S
C1023 C1019 1.393 1_556 S
C1023 C1022 1.391 . S
H1024 C1032 0.950 . S
H1025 C1037 0.950 . S
H1026 C1034 0.950 . S
H1027 C1036 0.950 . S
H1028 C1038 0.950 . S
H1029 C1040 0.950 . S
H1030 C1042 0.950 . S
H1031 C1043 0.950 . S
C1032 H1024 0.950 . S
C1032 C1033 1.386 . S
C1032 C1034 1.391 . S
C1033 C1032 1.386 . S
C1033 C1037 1.393 . S
C1034 H1026 0.950 . S
C1034 C1032 1.391 . S
C1034 C1035 1.400 . S
C1035 C1034 1.400 . S
C1035 C1036 1.398 . S
C1035 C1041 1.491 . S
C1036 H1027 0.950 . S
C1036 C1035 1.398 . S
C1036 C1037 1.391 . S
C1037 H1025 0.950 . S
C1037 C1033 1.393 . S
C1037 C1036 1.391 . S
C1038 H1028 0.950 . S
C1038 C1039 1.386 . S
C1038 C1040 1.391 . S
C1039 C1038 1.386 . S
C1039 C1043 1.393 . S
C1040 H1029 0.950 . S
C1040 C1038 1.391 . S
C1040 C1041 1.400 . S
C1041 C1035 1.491 . S
C1041 C1040 1.400 . S
C1041 C1042 1.398 . S
C1042 H1030 0.950 . S
C1042 C1041 1.398 . S
C1042 C1043 1.391 . S
C1043 H1031 0.950 . S
C1043 C1039 1.393 . S
C1043 C1042 1.391 . S
H1044 C1052 0.950 . S
H1045 C1057 0.950 . S
H1046 C1054 0.950 . S
H1047 C1056 0.950 . S
H1048 C1058 0.950 . S
H1049 C1060 0.950 . S
H1050 C1062 0.950 . S
H1051 C1063 0.950 . S
C1052 H1044 0.950 . S
C1052 C1053 1.386 . S
C1052 C1054 1.391 . S
C1053 C1052 1.386 . S
C1053 C1057 1.393 . S
C1054 H1046 0.950 . S
C1054 C1052 1.391 . S
C1054 C1055 1.400 . S
C1055 C1054 1.400 . S
C1055 C1056 1.398 . S
C1055 C1061 1.491 . S
C1056 H1047 0.950 . S
C1056 C1055 1.398 . S
C1056 C1057 1.391 . S
C1057 H1045 0.950 . S
C1057 C1053 1.393 . S
C1057 C1056 1.391 . S
C1058 H1048 0.950 . S
C1058 C1059 1.386 . S
C1058 C1060 1.391 . S
C1059 C1058 1.386 . S
C1059 C1063 1.393 . S
C1060 H1049 0.950 . S
C1060 C1058 1.391 . S
C1060 C1061 1.400 . S
C1061 C1055 1.491 . S
C1061 C1060 1.400 . S
C1061 C1062 1.398 . S
C1062 H1050 0.950 . S
C1062 C1061 1.398 . S
C1062 C1063 1.391 . S
C1063 H1051 0.950 . S
C1063 C1059 1.393 . S
C1063 C1062 1.391 . S
H1064 C1072 0.950 . S
H1065 C1077 0.950 . S
H1066 C1074 0.950 . S
H1067 C1076 0.950 . S
H1068 C1078 0.950 . S
H1069 C1080 0.950 . S
H1070 C1082 0.950 . S
H1071 C1083 0.950 . S
C1072 H1064 0.950 . S
C1072 C1073 1.386 . S
C1072 C1074 1.391 . S
C1073 C1072 1.386 . S
C1073 C1077 1.393 . S
C1074 H1066 0.950 . S
C1074 C1072 1.391 . S
C1074 C1075 1.400 . S
C1075 C1074 1.400 . S
C1075 C1076 1.398 . S
C1075 C1081 1.491 . S
C1076 H1067 0.950 . S
C1076 C1075 1.398 . S
C1076 C1077 1.391 . S
C1077 H1065 0.950 . S
C1077 C1073 1.393 . S
C1077 C1076 1.391 . S
C1078 H1068 0.950 . S
C1078 C1079 1.386 . S
C1078 C1080 1.391 . S
C1079 C1078 1.386 . S
C1079 C1083 1.393 . S
C1080 H1069 0.950 . S
C1080 C1078 1.391 . S
C1080 C1081 1.400 . S
C1081 C1075 1.491 . S
C1081 C1080 1.400 . S
C1081 C1082 1.398 . S
C1082 H1070 0.950 . S
C1082 C1081 1.398 . S
C1082 C1083 1.391 . S
C1083 H1071 0.950 . S
C1083 C1079 1.393 . S
C1083 C1082 1.391 . S
H1084 C1092 0.950 . S
H1085 C1097 0.950 . S
H1086 C1094 0.950 . S
H1087 C1096 0.950 . S
H1088 C1098 0.950 . S
H1089 C1100 0.950 . S
H1090 C1102 0.950 . S
H1091 C1103 0.950 . S
C1092 H1084 0.950 . S
C1092 C1093 1.386 . S
C1092 C1094 1.391 . S
C1093 C1092 1.386 . S
C1093 C1097 1.393 . S
C1094 H1086 0.950 . S
C1094 C1092 1.391 . S
C1094 C1095 1.400 . S
C1095 C1094 1.400 . S
C1095 C1096 1.398 . S
C1095 C1101 1.491 . S
C1096 H1087 0.950 . S
C1096 C1095 1.398 . S
C1096 C1097 1.391 . S
C1097 H1085 0.950 . S
C1097 C1093 1.393 . S
C1097 C1096 1.391 . S
C1098 H1088 0.950 . S
C1098 C1099 1.386 . S
C1098 C1100 1.391 . S
C1099 C1098 1.386 . S
C1099 C1103 1.393 . S
C1100 H1089 0.950 . S
C1100 C1098 1.391 . S
C1100 C1101 1.400 . S
C1101 C1095 1.491 . S
C1101 C1100 1.400 . S
C1101 C1102 1.398 . S
C1102 H1090 0.950 . S
C1102 C1101 1.398 . S
C1102 C1103 1.391 . S
C1103 H1091 0.950 . S
C1103 C1099 1.393 . S
C1103 C1102 1.391 . S
H1104 C1112 0.950 . S
H1105 C1117 0.950 . S
H1106 C1114 0.950 . S
H1107 C1116 0.950 . S
H1108 C1118 0.950 . S
H1109 C1120 0.950 . S
H1110 C1122 0.950 . S
H1111 C1123 0.950 . S
C1112 H1104 0.950 . S
C1112 C1113 1.386 . S
C1112 C1114 1.391 . S
C1113 C1112 1.386 . S
C1113 C1117 1.393 . S
C1114 H1106 0.950 . S
C1114 C1112 1.391 . S
C1114 C1115 1.400 . S
C1115 C1114 1.400 . S
C1115 C1116 1.398 . S
C1115 C1121 1.491 . S
C1116 H1107 0.950 . S
C1116 C1115 1.398 . S
C1116 C1117 1.391 . S
C1117 H1105 0.950 . S
C1117 C1113 1.393 . S
C1117 C1116 1.391 . S
C1118 H1108 0.950 . S
C1118 C1119 1.386 . S
C1118 C1120 1.391 . S
C1119 C1118 1.386 . S
C1119 C1123 1.393 . S
C1120 H1109 0.950 . S
C1120 C1118 1.391 . S
C1120 C1121 1.400 . S
C1121 C1115 1.491 . S
C1121 C1120 1.400 . S
C1121 C1122 1.398 . S
C1122 H1110 0.950 . S
C1122 C1121 1.398 . S
C1122 C1123 1.391 . S
C1123 H1111 0.950 . S
C1123 C1119 1.393 . S
C1123 C1122 1.391 . S
H1124 C1132 0.950 . S
H1125 C1137 0.950 . S
H1126 C1134 0.950 . S
H1127 C1136 0.950 . S
H1128 C1138 0.950 . S
H1129 C1140 0.950 . S
H1130 C1142 0.950 . S
H1131 C1143 0.950 . S
C1132 H1124 0.950 . S
C1132 C1133 1.386 . S
C1132 C1134 1.391 . S
C1133 C1132 1.386 . S
C1133 C1137 1.393 . S
C1134 H1126 0.950 . S
C1134 C1132 1.391 . S
C1134 C1135 1.400 . S
C1135 C1134 1.400 . S
C1135 C1136 1.398 . S
C1135 C1141 1.491 . S
C1136 H1127 0.950 . S
C1136 C1135 1.398 . S
C1136 C1137 1.391 . S
C1137 H1125 0.950 . S
C1137 C1133 1.393 . S
C1137 C1136 1.391 . S
C1138 H1128 0.950 . S
C1138 C1139 1.386 . S
C1138 C1140 1.391 . S
C1139 C1138 1.386 . S
C1139 C1143 1.393 . S
C1140 H1129 0.950 . S
C1140 C1138 1.391 . S
C1140 C1141 1.400 . S
C1141 C1135 1.491 . S
C1141 C1140 1.400 . S
C1141 C1142 1.398 . S
C1142 H1130 0.950 . S
C1142 C1141 1.398 . S
C1142 C1143 1.391 . S
C1143 H1131 0.950 . S
C1143 C1139 1.393 . S
C1143 C1142 1.391 . S
H1144 C1152 0.950 . S
H1145 C1157 0.950 . S
H1146 C1154 0.950 . S
H1147 C1156 0.950 . S
H1148 C1158 0.950 . S
H1149 C1160 0.950 . S
H1150 C1162 0.950 . S
H1151 C1163 0.950 . S
C1152 H1144 0.950 . S
C1152 C1153 1.386 . S
C1152 C1154 1.391 . S
C1153 C1152 1.386 . S
C1153 C1157 1.393 . S
C1154 H1146 0.950 . S
C1154 C1152 1.391 . S
C1154 C1155 1.400 . S
C1155 C1154 1.400 . S
C1155 C1156 1.398 . S
C1155 C1161 1.491 . S
C1156 H1147 0.950 . S
C1156 C1155 1.398 . S
C1156 C1157 1.391 . S
C1157 H1145 0.950 . S
C1157 C1153 1.393 . S
C1157 C1156 1.391 . S
C1158 H1148 0.950 . S
C1158 C1159 1.386 . S
C1158 C1160 1.391 . S
C1159 C1158 1.386 . S
C1159 C1163 1.393 . S
C1160 H1149 0.950 . S
C1160 C1158 1.391 . S
C1160 C1161 1.400 . S
C1161 C1155 1.491 . S
C1161 C1160 1.400 . S
C1161 C1162 1.398 . S
C1162 H1150 0.950 . S
C1162 C1161 1.398 . S
C1162 C1163 1.391 . S
C1163 H1151 0.950 . S
C1163 C1159 1.393 . S
C1163 C1162 1.391 . S
H1164 C1172 0.950 . S
H1165 C1177 0.950 . S
H1166 C1174 0.950 . S
H1167 C1176 0.950 . S
H1168 C1178 0.950 . S
H1169 C1180 0.950 . S
H1170 C1182 0.950 . S
H1171 C1183 0.950 . S
C1172 H1164 0.950 . S
C1172 C1173 1.386 . S
C1172 C1174 1.391 . S
C1173 C1172 1.386 . S
C1173 C1177 1.393 . S
C1174 H1166 0.950 . S
C1174 C1172 1.391 . S
C1174 C1175 1.400 . S
C1175 C1174 1.400 . S
C1175 C1176 1.398 . S
C1175 C1181 1.491 . S
C1176 H1167 0.950 . S
C1176 C1175 1.398 . S
C1176 C1177 1.391 . S
C1177 H1165 0.950 . S
C1177 C1173 1.393 . S
C1177 C1176 1.391 . S
C1178 H1168 0.950 . S
C1178 C1179 1.386 . S
C1178 C1180 1.391 . S
C1179 C1178 1.386 . S
C1179 C1183 1.393 . S
C1180 H1169 0.950 . S
C1180 C1178 1.391 . S
C1180 C1181 1.400 . S
C1181 C1175 1.491 . S
C1181 C1180 1.400 . S
C1181 C1182 1.398 . S
C1182 H1170 0.950 . S
C1182 C1181 1.398 . S
C1182 C1183 1.391 . S
C1183 H1171 0.950 . S
C1183 C1179 1.393 . S
C1183 C1182 1.391 . S
H1184 C1192 0.950 . S
H1185 C1197 0.950 . S
H1186 C1194 0.950 . S
H1187 C1196 0.950 . S
H1188 C1198 0.950 . S
H1189 C1200 0.950 . S
H1190 C1202 0.980 . S
H1191 C1203 0.950 . S
C1192 H1184 0.950 . S
C1192 C1193 1.386 . S
C1192 C1194 1.391 . S
C1193 C1192 1.386 . S
C1193 C1197 1.393 . S
C1194 H1186 0.950 . S
C1194 C1192 1.391 . S
C1194 C1195 1.400 . S
C1195 C1194 1.400 . S
C1195 C1196 1.398 . S
C1195 C1201 1.491 . S
C1196 H1187 0.950 . S
C1196 C1195 1.398 . S
C1196 C1197 1.391 . S
C1197 H1185 0.950 . S
C1197 C1193 1.393 . S
C1197 C1196 1.391 . S
C1198 H1188 0.950 . S
C1198 C1199 1.386 . S
C1198 C1200 1.391 . S
C1199 C1198 1.386 . S
C1199 C1203 1.393 . S
C1200 H1189 0.950 . S
C1200 C1198 1.391 . S
C1200 C1201 1.400 1_455 S
C1201 C1195 1.491 . S
C1201 C1200 1.400 1_655 S
C1201 C1202 1.396 . S
C1202 H1190 0.980 . S
C1202 C1201 1.396 . S
C1202 C1203 1.365 1_655 S
C1203 H1191 0.950 . S
C1203 C1199 1.393 . S
C1203 C1202 1.365 1_455 S
H1204 C1212 0.950 . S
H1205 C1217 0.950 . S
H1206 C1214 0.950 . S
H1207 C1216 0.950 . S
H1208 C1218 0.950 . S
H1209 C1220 0.950 . S
H1210 C1222 0.950 . S
H1211 C1223 0.950 . S
C1212 H1204 0.950 . S
C1212 C1213 1.386 . S
C1212 C1214 1.391 . S
C1213 C1212 1.386 . S
C1213 C1217 1.393 . S
C1214 H1206 0.950 . S
C1214 C1212 1.391 . S
C1214 C1215 1.400 . S
C1215 C1214 1.400 . S
C1215 C1216 1.398 . S
C1215 C1221 1.491 . S
C1216 H1207 0.950 . S
C1216 C1215 1.398 . S
C1216 C1217 1.391 . S
C1217 H1205 0.950 . S
C1217 C1213 1.393 . S
C1217 C1216 1.391 . S
C1218 H1208 0.950 . S
C1218 C1219 1.386 . S
C1218 C1220 1.391 . S
C1219 C1218 1.386 . S
C1219 C1223 1.393 . S
C1220 H1209 0.950 . S
C1220 C1218 1.391 . S
C1220 C1221 1.400 . S
C1221 C1215 1.491 . S
C1221 C1220 1.400 . S
C1221 C1222 1.398 . S
C1222 H1210 0.950 . S
C1222 C1221 1.398 . S
C1222 C1223 1.391 . S
C1223 H1211 0.950 . S
C1223 C1219 1.393 . S
C1223 C1222 1.391 . S
H1224 C1232 0.950 . S
H1225 C1237 0.950 . S
H1226 C1234 0.950 . S
H1227 C1236 0.950 . S
H1228 C1238 0.950 . S
H1229 C1240 0.950 . S
H1230 C1242 0.950 . S
H1231 C1243 0.950 . S
C1232 H1224 0.950 . S
C1232 C1233 1.386 . S
C1232 C1234 1.391 . S
C1233 C1232 1.386 . S
C1233 C1237 1.393 . S
C1234 H1226 0.950 . S
C1234 C1232 1.391 . S
C1234 C1235 1.400 . S
C1235 C1234 1.400 . S
C1235 C1236 1.398 . S
C1235 C1241 1.491 . S
C1236 H1227 0.950 . S
C1236 C1235 1.398 . S
C1236 C1237 1.391 . S
C1237 H1225 0.950 . S
C1237 C1233 1.393 . S
C1237 C1236 1.391 . S
C1238 H1228 0.950 . S
C1238 C1239 1.386 . S
C1238 C1240 1.391 . S
C1239 C1238 1.386 . S
C1239 C1243 1.393 . S
C1240 H1229 0.950 . S
C1240 C1238 1.391 . S
C1240 C1241 1.400 . S
C1241 C1235 1.491 . S
C1241 C1240 1.400 . S
C1241 C1242 1.398 . S
C1242 H1230 0.950 . S
C1242 C1241 1.398 . S
C1242 C1243 1.391 . S
C1243 H1231 0.950 . S
C1243 C1239 1.393 . S
C1243 C1242 1.391 . S
H1244 C1252 0.950 . S
H1245 C1257 0.950 . S
H1246 C1254 0.950 . S
H1247 C1256 0.950 . S
H1248 C1258 0.950 . S
H1249 C1260 0.950 . S
H1250 C1262 0.950 . S
H1251 C1263 0.950 . S
C1252 H1244 0.950 . S
C1252 C1253 1.386 . S
C1252 C1254 1.391 . S
C1253 C1252 1.386 . S
C1253 C1257 1.393 . S
C1254 H1246 0.950 . S
C1254 C1252 1.391 . S
C1254 C1255 1.400 . S
C1255 C1254 1.400 . S
C1255 C1256 1.398 . S
C1255 C1261 1.491 . S
C1256 H1247 0.950 . S
C1256 C1255 1.398 . S
C1256 C1257 1.391 . S
C1257 H1245 0.950 . S
C1257 C1253 1.393 . S
C1257 C1256 1.391 . S
C1258 H1248 0.950 . S
C1258 C1259 1.386 . S
C1258 C1260 1.391 . S
C1259 C1258 1.386 . S
C1259 C1263 1.393 . S
C1260 H1249 0.950 . S
C1260 C1258 1.391 . S
C1260 C1261 1.400 . S
C1261 C1255 1.491 . S
C1261 C1260 1.400 . S
C1261 C1262 1.398 . S
C1262 H1250 0.950 . S
C1262 C1261 1.398 . S
C1262 C1263 1.391 . S
C1263 H1251 0.950 . S
C1263 C1259 1.393 . S
C1263 C1262 1.391 . S
H1264 C1272 0.950 . S
H1265 C1277 0.950 . S
H1266 C1274 0.950 . S
H1267 C1276 0.950 . S
H1268 C1278 0.950 . S
H1269 C1280 0.950 . S
H1270 C1282 0.950 . S
H1271 C1283 0.950 . S
C1272 H1264 0.950 . S
C1272 C1273 1.386 . S
C1272 C1274 1.391 . S
C1273 C1272 1.386 . S
C1273 C1277 1.393 . S
C1274 H1266 0.950 . S
C1274 C1272 1.391 . S
C1274 C1275 1.400 . S
C1275 C1274 1.400 . S
C1275 C1276 1.398 . S
C1275 C1281 1.491 . S
C1276 H1267 0.950 . S
C1276 C1275 1.398 . S
C1276 C1277 1.391 . S
C1277 H1265 0.950 . S
C1277 C1273 1.393 . S
C1277 C1276 1.391 . S
C1278 H1268 0.950 . S
C1278 C1279 1.386 . S
C1278 C1280 1.391 . S
C1279 C1278 1.386 . S
C1279 C1283 1.393 . S
C1280 H1269 0.950 . S
C1280 C1278 1.391 . S
C1280 C1281 1.400 . S
C1281 C1275 1.491 . S
C1281 C1280 1.400 . S
C1281 C1282 1.398 . S
C1282 H1270 0.950 . S
C1282 C1281 1.398 . S
C1282 C1283 1.391 . S
C1283 H1271 0.950 . S
C1283 C1279 1.393 . S
C1283 C1282 1.391 . S
H1284 C1292 0.950 . S
H1285 C1297 0.950 . S
H1286 C1294 0.950 . S
H1287 C1296 0.950 . S
H1288 C1298 0.950 . S
H1289 C1300 0.950 . S
H1290 C1302 0.950 . S
H1291 C1303 0.950 . S
C1292 H1284 0.950 . S
C1292 C1293 1.386 . S
C1292 C1294 1.391 . S
C1293 C1292 1.386 . S
C1293 C1297 1.393 . S
C1294 H1286 0.950 . S
C1294 C1292 1.391 . S
C1294 C1295 1.400 . S
C1295 C1294 1.400 . S
C1295 C1296 1.398 . S
C1295 C1301 1.491 . S
C1296 H1287 0.950 . S
C1296 C1295 1.398 . S
C1296 C1297 1.391 . S
C1297 H1285 0.950 . S
C1297 C1293 1.393 . S
C1297 C1296 1.391 . S
C1298 H1288 0.950 . S
C1298 C1299 1.386 . S
C1298 C1300 1.391 . S
C1299 C1298 1.386 . S
C1299 C1303 1.393 . S
C1300 H1289 0.950 . S
C1300 C1298 1.391 . S
C1300 C1301 1.400 . S
C1301 C1295 1.491 . S
C1301 C1300 1.400 . S
C1301 C1302 1.398 . S
C1302 H1290 0.950 . S
C1302 C1301 1.398 . S
C1302 C1303 1.391 . S
C1303 H1291 0.950 . S
C1303 C1299 1.393 . S
C1303 C1302 1.391 . S
H1304 C1312 0.950 . S
H1305 C1317 0.950 . S
H1306 C1314 0.950 . S
H1307 C1316 0.950 . S
H1308 C1318 0.950 . S
H1309 C1320 0.950 . S
H1310 C1322 0.950 . S
H1311 C1323 0.950 . S
C1312 H1304 0.950 . S
C1312 C1313 1.386 . S
C1312 C1314 1.391 . S
C1313 C1312 1.386 . S
C1313 C1317 1.393 . S
C1314 H1306 0.950 . S
C1314 C1312 1.391 . S
C1314 C1315 1.400 . S
C1315 C1314 1.400 . S
C1315 C1316 1.398 . S
C1315 C1321 1.491 . S
C1316 H1307 0.950 . S
C1316 C1315 1.398 . S
C1316 C1317 1.391 . S
C1317 H1305 0.950 . S
C1317 C1313 1.393 . S
C1317 C1316 1.391 . S
C1318 H1308 0.950 . S
C1318 C1319 1.386 . S
C1318 C1320 1.391 . S
C1319 C1318 1.386 . S
C1319 C1323 1.393 . S
C1320 H1309 0.950 . S
C1320 C1318 1.391 . S
C1320 C1321 1.400 . S
C1321 C1315 1.491 . S
C1321 C1320 1.400 . S
C1321 C1322 1.398 . S
C1322 H1310 0.950 . S
C1322 C1321 1.398 . S
C1322 C1323 1.391 . S
C1323 H1311 0.950 . S
C1323 C1319 1.393 . S
C1323 C1322 1.391 . S
H1324 C1332 0.950 . S
H1325 C1337 0.950 . S
H1326 C1334 0.950 . S
H1327 C1336 0.950 . S
H1328 C1338 0.950 . S
H1329 C1340 0.950 . S
H1330 C1342 0.950 . S
H1331 C1343 0.950 . S
C1332 H1324 0.950 . S
C1332 C1333 1.386 . S
C1332 C1334 1.391 . S
C1333 C1332 1.386 . S
C1333 C1337 1.393 . S
C1334 H1326 0.950 . S
C1334 C1332 1.391 . S
C1334 C1335 1.400 . S
C1335 C1334 1.400 . S
C1335 C1336 1.398 . S
C1335 C1341 1.491 . S
C1336 H1327 0.950 . S
C1336 C1335 1.398 . S
C1336 C1337 1.391 . S
C1337 H1325 0.950 . S
C1337 C1333 1.393 . S
C1337 C1336 1.391 . S
C1338 H1328 0.950 . S
C1338 C1339 1.386 . S
C1338 C1340 1.391 . S
C1339 C1338 1.386 . S
C1339 C1343 1.393 . S
C1340 H1329 0.950 . S
C1340 C1338 1.391 . S
C1340 C1341 1.400 . S
C1341 C1335 1.491 . S
C1341 C1340 1.400 . S
C1341 C1342 1.398 . S
C1342 H1330 0.950 . S
C1342 C1341 1.398 . S
C1342 C1343 1.391 . S
C1343 H1331 0.950 . S
C1343 C1339 1.393 . S
C1343 C1342 1.391 . S
H1344 C1352 0.950 . S
H1345 C1357 0.950 . S
H1346 C1354 0.950 . S
H1347 C1356 0.950 . S
H1348 C1358 0.950 . S
H1349 C1360 0.950 . S
H1350 C1362 0.950 . S
H1351 C1363 0.950 . S
C1352 H1344 0.950 . S
C1352 C1353 1.386 . S
C1352 C1354 1.391 . S
C1353 C1352 1.386 . S
C1353 C1357 1.393 . S
C1354 H1346 0.950 . S
C1354 C1352 1.391 . S
C1354 C1355 1.400 . S
C1355 C1354 1.400 . S
C1355 C1356 1.398 . S
C1355 C1361 1.491 . S
C1356 H1347 0.950 . S
C1356 C1355 1.398 . S
C1356 C1357 1.391 . S
C1357 H1345 0.950 . S
C1357 C1353 1.393 . S
C1357 C1356 1.391 . S
C1358 H1348 0.950 . S
C1358 C1359 1.386 . S
C1358 C1360 1.391 . S
C1359 C1358 1.386 . S
C1359 C1363 1.393 . S
C1360 H1349 0.950 . S
C1360 C1358 1.391 . S
C1360 C1361 1.400 . S
C1361 C1355 1.491 . S
C1361 C1360 1.400 . S
C1361 C1362 1.398 . S
C1362 H1350 0.950 . S
C1362 C1361 1.398 . S
C1362 C1363 1.391 . S
C1363 H1351 0.950 . S
C1363 C1359 1.393 . S
C1363 C1362 1.391 . S
H1364 C1372 0.950 . S
H1365 C1377 0.950 . S
H1366 C1374 0.950 . S
H1367 C1376 0.950 . S
H1368 C1378 0.950 . S
H1369 C1380 0.950 . S
H1370 C1382 0.950 . S
H1371 C1383 0.950 . S
C1372 H1364 0.950 . S
C1372 C1373 1.386 . S
C1372 C1374 1.391 . S
C1373 C1372 1.386 . S
C1373 C1377 1.393 . S
C1374 H1366 0.950 . S
C1374 C1372 1.391 . S
C1374 C1375 1.400 . S
C1375 C1374 1.400 . S
C1375 C1376 1.398 . S
C1375 C1381 1.491 . S
C1376 H1367 0.950 . S
C1376 C1375 1.398 . S
C1376 C1377 1.391 . S
C1377 H1365 0.950 . S
C1377 C1373 1.393 . S
C1377 C1376 1.391 . S
C1378 H1368 0.950 . S
C1378 C1379 1.386 . S
C1378 C1380 1.391 . S
C1379 C1378 1.386 . S
C1379 C1383 1.393 . S
C1380 H1369 0.950 . S
C1380 C1378 1.391 . S
C1380 C1381 1.400 . S
C1381 C1375 1.491 . S
C1381 C1380 1.400 . S
C1381 C1382 1.398 . S
C1382 H1370 0.950 . S
C1382 C1381 1.398 . S
C1382 C1383 1.391 . S
C1383 H1371 0.950 . S
C1383 C1379 1.393 . S
C1383 C1382 1.391 . S
H1384 C1392 0.950 . S
H1385 C1397 0.950 . S
H1386 C1394 0.950 . S
H1387 C1396 0.950 . S
H1388 C1398 0.950 . S
H1389 C1400 0.950 . S
H1390 C1402 0.950 . S
H1391 C1403 0.950 . S
C1392 H1384 0.950 . S
C1392 C1393 1.386 . S
C1392 C1394 1.391 . S
C1393 C1392 1.386 . S
C1393 C1397 1.393 . S
C1394 H1386 0.950 . S
C1394 C1392 1.391 . S
C1394 C1395 1.400 . S
C1395 C1394 1.400 . S
C1395 C1396 1.398 . S
C1395 C1401 1.491 . S
C1396 H1387 0.950 . S
C1396 C1395 1.398 . S
C1396 C1397 1.391 . S
C1397 H1385 0.950 . S
C1397 C1393 1.393 . S
C1397 C1396 1.391 . S
C1398 H1388 0.950 . S
C1398 C1399 1.386 . S
C1398 C1400 1.391 . S
C1399 C1398 1.386 . S
C1399 C1403 1.393 . S
C1400 H1389 0.950 . S
C1400 C1398 1.391 . S
C1400 C1401 1.400 . S
C1401 C1395 1.491 . S
C1401 C1400 1.400 . S
C1401 C1402 1.398 . S
C1402 H1390 0.950 . S
C1402 C1401 1.398 . S
C1402 C1403 1.391 . S
C1403 H1391 0.950 . S
C1403 C1399 1.393 . S
C1403 C1402 1.391 . S
H1404 C1412 0.950 . S
H1405 C1417 0.950 . S
H1406 C1414 0.950 . S
H1407 C1416 0.950 . S
H1408 C1418 0.950 . S
H1409 C1420 0.950 . S
H1410 C1422 0.950 . S
H1411 C1423 0.950 . S
C1412 H1404 0.950 . S
C1412 C1413 1.386 . S
C1412 C1414 1.391 . S
C1413 C1412 1.386 . S
C1413 C1417 1.393 . S
C1414 H1406 0.950 . S
C1414 C1412 1.391 . S
C1414 C1415 1.400 . S
C1415 C1414 1.400 . S
C1415 C1416 1.398 . S
C1415 C1421 1.491 . S
C1416 H1407 0.950 . S
C1416 C1415 1.398 . S
C1416 C1417 1.391 . S
C1417 H1405 0.950 . S
C1417 C1413 1.393 . S
C1417 C1416 1.391 . S
C1418 H1408 0.950 . S
C1418 C1419 1.386 . S
C1418 C1420 1.391 . S
C1419 C1418 1.386 . S
C1419 C1423 1.393 . S
C1420 H1409 0.950 . S
C1420 C1418 1.391 . S
C1420 C1421 1.400 . S
C1421 C1415 1.491 . S
C1421 C1420 1.400 . S
C1421 C1422 1.398 . S
C1422 H1410 0.950 . S
C1422 C1421 1.398 . S
C1422 C1423 1.391 . S
C1423 H1411 0.950 . S
C1423 C1419 1.393 . S
C1423 C1422 1.391 . S
H1424 C1432 0.950 . S
H1425 C1437 0.950 . S
H1426 C1434 0.950 . S
H1427 C1436 0.950 . S
H1428 C1438 0.950 . S
H1429 C1440 0.950 . S
H1430 C1442 0.950 . S
H1431 C1443 0.950 . S
C1432 H1424 0.950 . S
C1432 C1433 1.386 . S
C1432 C1434 1.391 . S
C1433 C1432 1.386 . S
C1433 C1437 1.393 . S
C1434 H1426 0.950 . S
C1434 C1432 1.391 . S
C1434 C1435 1.400 . S
C1435 C1434 1.400 . S
C1435 C1436 1.398 . S
C1435 C1441 1.491 . S
C1436 H1427 0.950 . S
C1436 C1435 1.398 . S
C1436 C1437 1.391 . S
C1437 H1425 0.950 . S
C1437 C1433 1.393 . S
C1437 C1436 1.391 . S
C1438 H1428 0.950 . S
C1438 C1439 1.386 . S
C1438 C1440 1.391 . S
C1439 C1438 1.386 . S
C1439 C1443 1.393 . S
C1440 H1429 0.950 . S
C1440 C1438 1.391 . S
C1440 C1441 1.400 . S
C1441 C1435 1.491 . S
C1441 C1440 1.400 . S
C1441 C1442 1.398 . S
C1442 H1430 0.950 . S
C1442 C1441 1.398 . S
C1442 C1443 1.391 . S
C1443 H1431 0.950 . S
C1443 C1439 1.393 . S
C1443 C1442 1.391 . S
H1444 C1452 0.950 . S
H1445 C1457 0.950 . S
H1446 C1454 0.950 . S
H1447 C1456 0.950 . S
H1448 C1458 0.950 . S
H1449 C1460 0.950 . S
H1450 C1462 0.950 . S
H1451 C1463 0.950 . S
C1452 H1444 0.950 . S
C1452 C1453 1.386 . S
C1452 C1454 1.391 . S
C1453 C1452 1.386 . S
C1453 C1457 1.393 . S
C1454 H1446 0.950 . S
C1454 C1452 1.391 . S
C1454 C1455 1.400 . S
C1455 C1454 1.400 . S
C1455 C1456 1.398 . S
C1455 C1461 1.491 . S
C1456 H1447 0.950 . S
C1456 C1455 1.398 . S
C1456 C1457 1.391 . S
C1457 H1445 0.950 . S
C1457 C1453 1.393 . S
C1457 C1456 1.391 . S
C1458 H1448 0.950 . S
C1458 C1459 1.386 . S
C1458 C1460 1.391 . S
C1459 C1458 1.386 . S
C1459 C1463 1.393 . S
C1460 H1449 0.950 . S
C1460 C1458 1.391 . S
C1460 C1461 1.400 . S
C1461 C1455 1.491 . S
C1461 C1460 1.400 . S
C1461 C1462 1.398 . S
C1462 H1450 0.950 . S
C1462 C1461 1.398 . S
C1462 C1463 1.391 . S
C1463 H1451 0.950 . S
C1463 C1459 1.393 . S
C1463 C1462 1.391 . S
H1464 C1472 0.950 . S
H1465 C1477 0.950 . S
H1466 C1474 0.950 . S
H1467 C1476 0.950 . S
H1468 C1478 0.950 . S
H1469 C1480 0.950 . S
H1470 C1482 0.950 . S
H1471 C1483 0.950 . S
C1472 H1464 0.950 . S
C1472 C1473 1.386 . S
C1472 C1474 1.391 . S
C1473 C1472 1.386 . S
C1473 C1477 1.393 . S
C1474 H1466 0.950 . S
C1474 C1472 1.391 . S
C1474 C1475 1.400 . S
C1475 C1474 1.400 . S
C1475 C1476 1.398 . S
C1475 C1481 1.491 . S
C1476 H1467 0.950 . S
C1476 C1475 1.398 . S
C1476 C1477 1.391 . S
C1477 H1465 0.950 . S
C1477 C1473 1.393 . S
C1477 C1476 1.391 . S
C1478 H1468 0.950 . S
C1478 C1479 1.386 . S
C1478 C1480 1.391 . S
C1479 C1478 1.386 . S
C1479 C1483 1.393 . S
C1480 H1469 0.950 . S
C1480 C1478 1.391 . S
C1480 C1481 1.400 . S
C1481 C1475 1.491 . S
C1481 C1480 1.400 . S
C1481 C1482 1.398 . S
C1482 H1470 0.950 . S
C1482 C1481 1.398 . S
C1482 C1483 1.391 . S
C1483 H1471 0.950 . S
C1483 C1479 1.393 . S
C1483 C1482 1.391 . S
H1484 C1492 0.950 . S
H1485 C1497 0.950 . S
H1486 C1494 0.950 . S
H1487 C1496 0.950 . S
H1488 C1498 0.950 . S
H1489 C1500 0.950 . S
H1490 C1502 0.950 . S
H1491 C1503 0.950 . S
C1492 H1484 0.950 . S
C1492 C1493 1.386 . S
C1492 C1494 1.391 . S
C1493 C1492 1.386 . S
C1493 C1497 1.393 . S
C1494 H1486 0.950 . S
C1494 C1492 1.391 . S
C1494 C1495 1.400 . S
C1495 C1494 1.400 . S
C1495 C1496 1.398 . S
C1495 C1501 1.491 . S
C1496 H1487 0.950 . S
C1496 C1495 1.398 . S
C1496 C1497 1.391 . S
C1497 H1485 0.950 . S
C1497 C1493 1.393 . S
C1497 C1496 1.391 . S
C1498 H1488 0.950 . S
C1498 C1499 1.386 . S
C1498 C1500 1.391 . S
C1499 C1498 1.386 . S
C1499 C1503 1.393 . S
C1500 H1489 0.950 . S
C1500 C1498 1.391 . S
C1500 C1501 1.400 . S
C1501 C1495 1.491 . S
C1501 C1500 1.400 . S
C1501 C1502 1.398 . S
C1502 H1490 0.950 . S
C1502 C1501 1.398 . S
C1502 C1503 1.391 . S
C1503 H1491 0.950 . S
C1503 C1499 1.393 . S
C1503 C1502 1.391 . S
H1504 C1512 0.950 . S
H1505 C1517 0.950 . S
H1506 C1514 0.950 . S
H1507 C1516 0.950 . S
H1508 C1518 0.950 . S
H1509 C1520 0.950 . S
H1510 C1522 0.950 . S
H1511 C1523 0.950 . S
C1512 H1504 0.950 . S
C1512 C1513 1.386 . S
C1512 C1514 1.391 . S
C1513 C1512 1.386 . S
C1513 C1517 1.393 . S
C1514 H1506 0.950 . S
C1514 C1512 1.391 . S
C1514 C1515 1.400 . S
C1515 C1514 1.400 . S
C1515 C1516 1.398 . S
C1515 C1521 1.491 . S
C1516 H1507 0.950 . S
C1516 C1515 1.398 . S
C1516 C1517 1.391 . S
C1517 H1505 0.950 . S
C1517 C1513 1.393 . S
C1517 C1516 1.391 . S
C1518 H1508 0.950 . S
C1518 C1519 1.386 . S
C1518 C1520 1.391 . S
C1519 C1518 1.386 . S
C1519 C1523 1.393 . S
C1520 H1509 0.950 . S
C1520 C1518 1.391 . S
C1520 C1521 1.400 . S
C1521 C1515 1.491 . S
C1521 C1520 1.400 . S
C1521 C1522 1.398 . S
C1522 H1510 0.950 . S
C1522 C1521 1.398 . S
C1522 C1523 1.391 . S
C1523 H1511 0.950 . S
C1523 C1519 1.393 . S
C1523 C1522 1.391 . S
H1524 C1532 0.950 . S
H1525 C1537 0.950 . S
H1526 C1534 0.950 . S
H1527 C1536 0.950 . S
H1528 C1538 0.950 . S
H1529 C1540 0.950 . S
H1530 C1542 0.950 . S
H1531 C1543 0.950 . S
C1532 H1524 0.950 . S
C1532 C1533 1.386 . S
C1532 C1534 1.391 . S
C1533 C1532 1.386 . S
C1533 C1537 1.393 . S
C1534 H1526 0.950 . S
C1534 C1532 1.391 . S
C1534 C1535 1.400 . S
C1535 C1534 1.400 . S
C1535 C1536 1.398 . S
C1535 C1541 1.491 . S
C1536 H1527 0.950 . S
C1536 C1535 1.398 . S
C1536 C1537 1.391 . S
C1537 H1525 0.950 . S
C1537 C1533 1.393 . S
C1537 C1536 1.391 . S
C1538 H1528 0.950 . S
C1538 C1539 1.386 . S
C1538 C1540 1.391 . S
C1539 C1538 1.386 . S
C1539 C1543 1.393 . S
C1540 H1529 0.950 . S
C1540 C1538 1.391 . S
C1540 C1541 1.400 . S
C1541 C1535 1.491 . S
C1541 C1540 1.400 . S
C1541 C1542 1.398 . S
C1542 H1530 0.950 . S
C1542 C1541 1.398 . S
C1542 C1543 1.391 . S
C1543 H1531 0.950 . S
C1543 C1539 1.393 . S
C1543 C1542 1.391 . S
H1544 C1552 0.950 . S
H1545 C1557 0.950 . S
H1546 C1554 0.950 . S
H1547 C1556 0.950 . S
H1548 C1558 0.950 . S
H1549 C1560 0.950 . S
H1550 C1562 0.950 . S
H1551 C1563 0.950 . S
C1552 H1544 0.950 . S
C1552 C1553 1.386 . S
C1552 C1554 1.391 . S
C1553 C1552 1.386 . S
C1553 C1557 1.393 . S
C1554 H1546 0.950 . S
C1554 C1552 1.391 . S
C1554 C1555 1.400 . S
C1555 C1554 1.400 . S
C1555 C1556 1.398 . S
C1555 C1561 1.491 . S
C1556 H1547 0.950 . S
C1556 C1555 1.398 . S
C1556 C1557 1.391 . S
C1557 H1545 0.950 . S
C1557 C1553 1.393 . S
C1557 C1556 1.391 . S
C1558 H1548 0.950 . S
C1558 C1559 1.386 . S
C1558 C1560 1.391 . S
C1559 C1558 1.386 . S
C1559 C1563 1.393 . S
C1560 H1549 0.950 . S
C1560 C1558 1.391 . S
C1560 C1561 1.400 . S
C1561 C1555 1.491 . S
C1561 C1560 1.400 . S
C1561 C1562 1.398 . S
C1562 H1550 0.950 . S
C1562 C1561 1.398 . S
C1562 C1563 1.391 . S
C1563 H1551 0.950 . S
C1563 C1559 1.393 . S
C1563 C1562 1.391 . S
H1564 C1572 0.950 . S
H1565 C1577 0.950 . S
H1566 C1574 0.950 . S
H1567 C1576 0.950 . S
H1568 C1578 0.950 . S
H1569 C1580 0.950 . S
H1570 C1582 0.950 . S
H1571 C1583 0.950 . S
C1572 H1564 0.950 . S
C1572 C1573 1.386 . S
C1572 C1574 1.391 . S
C1573 C1572 1.386 . S
C1573 C1577 1.393 . S
C1574 H1566 0.950 . S
C1574 C1572 1.391 . S
C1574 C1575 1.400 . S
C1575 C1574 1.400 . S
C1575 C1576 1.398 . S
C1575 C1581 1.491 . S
C1576 H1567 0.950 . S
C1576 C1575 1.398 . S
C1576 C1577 1.391 . S
C1577 H1565 0.950 . S
C1577 C1573 1.393 . S
C1577 C1576 1.391 . S
C1578 H1568 0.950 . S
C1578 C1579 1.386 . S
C1578 C1580 1.391 . S
C1579 C1578 1.386 . S
C1579 C1583 1.393 . S
C1580 H1569 0.950 . S
C1580 C1578 1.391 . S
C1580 C1581 1.400 . S
C1581 C1575 1.491 . S
C1581 C1580 1.400 . S
C1581 C1582 1.398 . S
C1582 H1570 0.950 . S
C1582 C1581 1.398 . S
C1582 C1583 1.391 . S
C1583 H1571 0.950 . S
C1583 C1579 1.393 . S
C1583 C1582 1.391 . S
H1584 C1592 0.950 . S
H1585 C1597 0.950 . S
H1586 C1594 0.950 . S
H1587 C1596 0.950 . S
H1588 C1598 0.950 . S
H1589 C1600 0.950 . S
H1590 C1602 0.950 . S
H1591 C1603 0.950 . S
C1592 H1584 0.950 . S
C1592 C1593 1.386 . S
C1592 C1594 1.391 . S
C1593 C1592 1.386 . S
C1593 C1597 1.393 . S
C1594 H1586 0.950 . S
C1594 C1592 1.391 . S
C1594 C1595 1.400 . S
C1595 C1594 1.400 . S
C1595 C1596 1.398 . S
C1595 C1601 1.491 . S
C1596 H1587 0.950 . S
C1596 C1595 1.398 . S
C1596 C1597 1.391 . S
C1597 H1585 0.950 . S
C1597 C1593 1.393 . S
C1597 C1596 1.391 . S
C1598 H1588 0.950 . S
C1598 C1599 1.386 . S
C1598 C1600 1.391 1_455 S
C1599 C1598 1.386 . S
C1599 C1603 1.393 . S
C1600 H1589 0.950 . S
C1600 C1598 1.391 1_655 S
C1600 C1601 1.400 . S
C1601 C1595 1.491 . S
C1601 C1600 1.400 . S
C1601 C1602 1.398 1_655 S
C1602 H1590 0.950 . S
C1602 C1601 1.398 1_455 S
C1602 C1603 1.391 . S
C1603 H1591 0.950 . S
C1603 C1599 1.393 . S
C1603 C1602 1.391 . S
H1604 C1612 0.950 . S
H1605 C1617 0.950 . S
H1606 C1614 0.950 . S
H1607 C1616 0.950 . S
H1608 C1618 0.950 . S
H1609 C1620 0.950 . S
H1610 C1622 0.950 . S
H1611 C1623 0.950 . S
C1612 H1604 0.950 . S
C1612 C1613 1.386 . S
C1612 C1614 1.391 . S
C1613 C1612 1.386 . S
C1613 C1617 1.393 . S
C1614 H1606 0.950 . S
C1614 C1612 1.391 . S
C1614 C1615 1.400 . S
C1615 C1614 1.400 . S
C1615 C1616 1.398 . S
C1615 C1621 1.491 . S
C1616 H1607 0.950 . S
C1616 C1615 1.398 . S
C1616 C1617 1.391 . S
C1617 H1605 0.950 . S
C1617 C1613 1.393 . S
C1617 C1616 1.391 . S
C1618 H1608 0.950 . S
C1618 C1619 1.386 . S
C1618 C1620 1.391 . S
C1619 C1618 1.386 . S
C1619 C1623 1.393 . S
C1620 H1609 0.950 . S
C1620 C1618 1.391 . S
C1620 C1621 1.400 . S
C1621 C1615 1.491 . S
C1621 C1620 1.400 . S
C1621 C1622 1.398 . S
C1622 H1610 0.950 . S
C1622 C1621 1.398 . S
C1622 C1623 1.391 . S
C1623 H1611 0.950 . S
C1623 C1619 1.393 . S
C1623 C1622 1.391 . S
H1624 C1632 0.950 . S
H1625 C1637 0.950 . S
H1626 C1634 0.950 . S
H1627 C1636 0.950 . S
H1628 C1638 0.950 . S
H1629 C1640 0.950 . S
H1630 C1642 0.950 . S
H1631 C1643 0.950 . S
C1632 H1624 0.950 . S
C1632 C1633 1.386 . S
C1632 C1634 1.391 . S
C1633 C1632 1.386 . S
C1633 C1637 1.393 . S
C1634 H1626 0.950 . S
C1634 C1632 1.391 . S
C1634 C1635 1.400 . S
C1635 C1634 1.400 . S
C1635 C1636 1.398 . S
C1635 C1641 1.491 . S
C1636 H1627 0.950 . S
C1636 C1635 1.398 . S
C1636 C1637 1.391 . S
C1637 H1625 0.950 . S
C1637 C1633 1.393 . S
C1637 C1636 1.391 . S
C1638 H1628 0.950 . S
C1638 C1639 1.386 . S
C1638 C1640 1.391 . S
C1639 C1638 1.386 . S
C1639 C1643 1.393 . S
C1640 H1629 0.950 . S
C1640 C1638 1.391 . S
C1640 C1641 1.400 . S
C1641 C1635 1.491 . S
C1641 C1640 1.400 . S
C1641 C1642 1.398 . S
C1642 H1630 0.950 . S
C1642 C1641 1.398 . S
C1642 C1643 1.391 . S
C1643 H1631 0.950 . S
C1643 C1639 1.393 . S
C1643 C1642 1.391 . S
H1644 C1652 0.950 . S
H1645 C1657 0.950 . S
H1646 C1654 0.950 . S
H1647 C1656 0.950 . S
H1648 C1658 0.950 . S
H1649 C1660 0.950 . S
H1650 C1662 0.950 . S
H1651 C1663 0.950 . S
C1652 H1644 0.950 . S
C1652 C1653 1.386 . S
C1652 C1654 1.391 . S
C1653 C1652 1.386 . S
C1653 C1657 1.393 . S
C1654 H1646 0.950 . S
C1654 C1652 1.391 . S
C1654 C1655 1.400 . S
C1655 C1654 1.400 . S
C1655 C1656 1.398 . S
C1655 C1661 1.491 . S
C1656 H1647 0.950 . S
C1656 C1655 1.398 . S
C1656 C1657 1.391 . S
C1657 H1645 0.950 . S
C1657 C1653 1.393 . S
C1657 C1656 1.391 . S
C1658 H1648 0.950 . S
C1658 C1659 1.386 . S
C1658 C1660 1.391 . S
C1659 C1658 1.386 . S
C1659 C1663 1.393 . S
C1660 H1649 0.950 . S
C1660 C1658 1.391 . S
C1660 C1661 1.400 . S
C1661 C1655 1.491 . S
C1661 C1660 1.400 . S
C1661 C1662 1.398 . S
C1662 H1650 0.950 . S
C1662 C1661 1.398 . S
C1662 C1663 1.391 . S
C1663 H1651 0.950 . S
C1663 C1659 1.393 . S
C1663 C1662 1.391 . S
H1664 C1672 0.950 . S
H1665 C1677 0.950 . S
H1666 C1674 0.950 . S
H1667 C1676 0.950 . S
H1668 C1678 0.950 . S
H1669 C1680 0.950 . S
H1670 C1682 0.950 . S
H1671 C1683 0.950 1_455 S
C1672 H1664 0.950 . S
C1672 C1673 1.386 . S
C1672 C1674 1.391 . S
C1673 C1672 1.386 . S
C1673 C1677 1.393 . S
C1674 H1666 0.950 . S
C1674 C1672 1.391 . S
C1674 C1675 1.400 . S
C1675 C1674 1.400 . S
C1675 C1676 1.398 . S
C1675 C1681 1.491 . S
C1676 H1667 0.950 . S
C1676 C1675 1.398 . S
C1676 C1677 1.391 . S
C1677 H1665 0.950 . S
C1677 C1673 1.393 . S
C1677 C1676 1.391 . S
C1678 H1668 0.950 . S
C1678 C1679 1.386 1_655 S
C1678 C1680 1.391 . S
C1679 C1678 1.386 1_455 S
C1679 C1683 1.393 1_455 S
C1680 H1669 0.950 . S
C1680 C1678 1.391 . S
C1680 C1681 1.400 . S
C1681 C1675 1.491 . S
C1681 C1680 1.400 . S
C1681 C1682 1.398 . S
C1682 H1670 0.950 . S
C1682 C1681 1.398 . S
C1682 C1683 1.391 . S
C1683 H1671 0.950 1_655 S
C1683 C1679 1.393 1_655 S
C1683 C1682 1.391 . S
H1684 C1692 0.950 . S
H1685 C1697 0.950 . S
H1686 C1694 0.950 . S
H1687 C1696 0.950 . S
H1688 C1698 0.950 . S
H1689 C1700 0.950 . S
H1690 C1702 0.950 . S
H1691 C1703 0.950 . S
C1692 H1684 0.950 . S
C1692 C1693 1.386 . S
C1692 C1694 1.391 . S
C1693 C1692 1.386 . S
C1693 C1697 1.393 . S
C1694 H1686 0.950 . S
C1694 C1692 1.391 . S
C1694 C1695 1.400 . S
C1695 C1694 1.400 . S
C1695 C1696 1.398 . S
C1695 C1701 1.491 . S
C1696 H1687 0.950 . S
C1696 C1695 1.398 . S
C1696 C1697 1.391 . S
C1697 H1685 0.950 . S
C1697 C1693 1.393 . S
C1697 C1696 1.391 . S
C1698 H1688 0.950 . S
C1698 C1699 1.386 . S
C1698 C1700 1.391 . S
C1699 C1698 1.386 . S
C1699 C1703 1.393 . S
C1700 H1689 0.950 . S
C1700 C1698 1.391 . S
C1700 C1701 1.400 . S
C1701 C1695 1.491 . S
C1701 C1700 1.400 . S
C1701 C1702 1.398 . S
C1702 H1690 0.950 . S
C1702 C1701 1.398 . S
C1702 C1703 1.391 . S
C1703 H1691 0.950 . S
C1703 C1699 1.393 . S
C1703 C1702 1.391 . S
H1704 C1712 0.950 . S
H1705 C1717 0.950 . S
H1706 C1714 0.950 . S
H1707 C1716 0.950 . S
H1708 C1718 0.950 . S
H1709 C1720 0.950 . S
H1710 C1722 0.950 . S
H1711 C1723 0.950 . S
C1712 H1704 0.950 . S
C1712 C1713 1.386 . S
C1712 C1714 1.391 . S
C1713 C1712 1.386 . S
C1713 C1717 1.393 . S
C1714 H1706 0.950 . S
C1714 C1712 1.391 . S
C1714 C1715 1.400 . S
C1715 C1714 1.400 . S
C1715 C1716 1.398 . S
C1715 C1721 1.491 . S
C1716 H1707 0.950 . S
C1716 C1715 1.398 . S
C1716 C1717 1.391 . S
C1717 H1705 0.950 . S
C1717 C1713 1.393 . S
C1717 C1716 1.391 . S
C1718 H1708 0.950 . S
C1718 C1719 1.386 . S
C1718 C1720 1.391 . S
C1719 C1718 1.386 . S
C1719 C1723 1.393 . S
C1720 H1709 0.950 . S
C1720 C1718 1.391 . S
C1720 C1721 1.400 . S
C1721 C1715 1.491 . S
C1721 C1720 1.400 . S
C1721 C1722 1.398 . S
C1722 H1710 0.950 . S
C1722 C1721 1.398 . S
C1722 C1723 1.391 . S
C1723 H1711 0.950 . S
C1723 C1719 1.393 . S
C1723 C1722 1.391 . S
H1724 C1732 0.950 . S
H1725 C1737 0.950 . S
H1726 C1734 0.950 . S
H1727 C1736 0.950 . S
H1728 C1738 0.950 . S
H1729 C1740 0.950 . S
H1730 C1742 0.950 . S
H1731 C1743 0.950 . S
C1732 H1724 0.950 . S
C1732 C1733 1.386 . S
C1732 C1734 1.391 . S
C1733 C1732 1.386 . S
C1733 C1737 1.393 . S
C1734 H1726 0.950 . S
C1734 C1732 1.391 . S
C1734 C1735 1.400 . S
C1735 C1734 1.400 . S
C1735 C1736 1.398 . S
C1735 C1741 1.491 . S
C1736 H1727 0.950 . S
C1736 C1735 1.398 . S
C1736 C1737 1.391 . S
C1737 H1725 0.950 . S
C1737 C1733 1.393 . S
C1737 C1736 1.391 . S
C1738 H1728 0.950 . S
C1738 C1739 1.386 . S
C1738 C1740 1.391 . S
C1739 C1738 1.386 . S
C1739 C1743 1.393 . S
C1740 H1729 0.950 . S
C1740 C1738 1.391 . S
C1740 C1741 1.400 . S
C1741 C1735 1.491 . S
C1741 C1740 1.400 . S
C1741 C1742 1.398 . S
C1742 H1730 0.950 . S
C1742 C1741 1.398 . S
C1742 C1743 1.391 . S
C1743 H1731 0.950 . S
C1743 C1739 1.393 . S
C1743 C1742 1.391 . S
H1744 C1752 0.950 . S
H1745 C1757 0.950 . S
H1746 C1754 0.950 . S
H1747 C1756 0.950 . S
H1748 C1758 0.950 . S
H1749 C1760 0.950 . S
H1750 C1762 0.950 . S
H1751 C1763 0.950 . S
C1752 H1744 0.950 . S
C1752 C1753 1.386 . S
C1752 C1754 1.391 . S
C1753 C1752 1.386 . S
C1753 C1757 1.393 . S
C1754 H1746 0.950 . S
C1754 C1752 1.391 . S
C1754 C1755 1.400 . S
C1755 C1754 1.400 . S
C1755 C1756 1.398 . S
C1755 C1761 1.491 . S
C1756 H1747 0.950 . S
C1756 C1755 1.398 . S
C1756 C1757 1.391 . S
C1757 H1745 0.950 . S
C1757 C1753 1.393 . S
C1757 C1756 1.391 . S
C1758 H1748 0.950 . S
C1758 C1759 1.386 . S
C1758 C1760 1.391 . S
C1759 C1758 1.386 . S
C1759 C1763 1.393 . S
C1760 H1749 0.950 . S
C1760 C1758 1.391 . S
C1760 C1761 1.400 . S
C1761 C1755 1.491 . S
C1761 C1760 1.400 . S
C1761 C1762 1.398 . S
C1762 H1750 0.950 . S
C1762 C1761 1.398 . S
C1762 C1763 1.391 . S
C1763 H1751 0.950 . S
C1763 C1759 1.393 . S
C1763 C1762 1.391 . S
H1764 C1772 0.950 . S
H1765 C1777 0.950 . S
H1766 C1774 0.950 . S
H1767 C1776 0.950 . S
H1768 C1778 0.950 . S
H1769 C1780 0.950 . S
H1770 C1782 0.950 . S
H1771 C1783 0.950 . S
C1772 H1764 0.950 . S
C1772 C1773 1.386 . S
C1772 C1774 1.391 . S
C1773 C1772 1.386 . S
C1773 C1777 1.393 . S
C1774 H1766 0.950 . S
C1774 C1772 1.391 . S
C1774 C1775 1.400 . S
C1775 C1774 1.400 . S
C1775 C1776 1.398 . S
C1775 C1781 1.491 . S
C1776 H1767 0.950 . S
C1776 C1775 1.398 . S
C1776 C1777 1.391 . S
C1777 H1765 0.950 . S
C1777 C1773 1.393 . S
C1777 C1776 1.391 . S
C1778 H1768 0.950 . S
C1778 C1779 1.386 . S
C1778 C1780 1.391 . S
C1779 C1778 1.386 . S
C1779 C1783 1.393 . S
C1780 H1769 0.950 . S
C1780 C1778 1.391 . S
C1780 C1781 1.400 . S
C1781 C1775 1.491 . S
C1781 C1780 1.400 . S
C1781 C1782 1.398 . S
C1782 H1770 0.950 . S
C1782 C1781 1.398 . S
C1782 C1783 1.391 . S
C1783 H1771 0.950 . S
C1783 C1779 1.393 . S
C1783 C1782 1.391 . S
H1784 C1792 0.950 . S
H1785 C1797 0.950 . S
H1786 C1794 0.950 . S
H1787 C1796 0.950 . S
H1788 C1798 0.950 . S
H1789 C1800 0.950 . S
H1790 C1802 0.950 . S
H1791 C1803 0.950 . S
C1792 H1784 0.950 . S
C1792 C1793 1.386 . S
C1792 C1794 1.391 . S
C1793 C1792 1.386 . S
C1793 C1797 1.393 . S
C1794 H1786 0.950 . S
C1794 C1792 1.391 . S
C1794 C1795 1.400 . S
C1795 C1794 1.400 . S
C1795 C1796 1.398 . S
C1795 C1801 1.491 . S
C1796 H1787 0.950 . S
C1796 C1795 1.398 . S
C1796 C1797 1.391 . S
C1797 H1785 0.950 . S
C1797 C1793 1.393 . S
C1797 C1796 1.391 . S
C1798 H1788 0.950 . S
C1798 C1799 1.386 . S
C1798 C1800 1.391 . S
C1799 C1798 1.386 . S
C1799 C1803 1.393 . S
C1800 H1789 0.950 . S
C1800 C1798 1.391 . S
C1800 C1801 1.400 . S
C1801 C1795 1.491 . S
C1801 C1800 1.400 . S
C1801 C1802 1.398 . S
C1802 H1790 0.950 . S
C1802 C1801 1.398 . S
C1802 C1803 1.391 . S
C1803 H1791 0.950 . S
C1803 C1799 1.393 . S
C1803 C1802 1.391 . S
H1804 C1812 0.950 . S
H1805 C1817 0.950 . S
H1806 C1814 0.950 . S
H1807 C1816 0.950 . S
H1808 C1818 0.950 . S
H1809 C1820 0.950 . S
H1810 C1822 0.950 . S
H1811 C1823 0.950 . S
C1812 H1804 0.950 . S
C1812 C1813 1.386 . S
C1812 C1814 1.391 . S
C1813 C1812 1.386 . S
C1813 C1817 1.393 . S
C1814 H1806 0.950 . S
C1814 C1812 1.391 . S
C1814 C1815 1.400 . S
C1815 C1814 1.400 . S
C1815 C1816 1.398 . S
C1815 C1821 1.491 . S
C1816 H1807 0.950 . S
C1816 C1815 1.398 . S
C1816 C1817 1.391 . S
C1817 H1805 0.950 . S
C1817 C1813 1.393 . S
C1817 C1816 1.391 . S
C1818 H1808 0.950 . S
C1818 C1819 1.386 . S
C1818 C1820 1.391 . S
C1819 C1818 1.386 . S
C1819 C1823 1.393 . S
C1820 H1809 0.950 . S
C1820 C1818 1.391 . S
C1820 C1821 1.400 . S
C1821 C1815 1.491 . S
C1821 C1820 1.400 . S
C1821 C1822 1.398 . S
C1822 H1810 0.950 . S
C1822 C1821 1.398 . S
C1822 C1823 1.391 . S
C1823 H1811 0.950 . S
C1823 C1819 1.393 . S
C1823 C1822 1.391 . S
H1824 C1832 0.950 . S
H1825 C1837 0.950 . S
H1826 C1834 0.950 . S
H1827 C1836 0.950 . S
H1828 C1838 0.950 . S
H1829 C1840 0.950 . S
H1830 C1842 0.950 . S
H1831 C1843 0.950 . S
C1832 H1824 0.950 . S
C1832 C1833 1.386 . S
C1832 C1834 1.391 . S
C1833 C1832 1.386 . S
C1833 C1837 1.393 . S
C1834 H1826 0.950 . S
C1834 C1832 1.391 . S
C1834 C1835 1.400 . S
C1835 C1834 1.400 . S
C1835 C1836 1.398 . S
C1835 C1841 1.491 . S
C1836 H1827 0.950 . S
C1836 C1835 1.398 . S
C1836 C1837 1.391 . S
C1837 H1825 0.950 . S
C1837 C1833 1.393 . S
C1837 C1836 1.391 . S
C1838 H1828 0.950 . S
C1838 C1839 1.386 . S
C1838 C1840 1.391 . S
C1839 C1838 1.386 . S
C1839 C1843 1.393 . S
C1840 H1829 0.950 . S
C1840 C1838 1.391 . S
C1840 C1841 1.400 . S
C1841 C1835 1.491 . S
C1841 C1840 1.400 . S
C1841 C1842 1.398 . S
C1842 H1830 0.950 . S
C1842 C1841 1.398 . S
C1842 C1843 1.391 . S
C1843 H1831 0.950 . S
C1843 C1839 1.393 . S
C1843 C1842 1.391 . S
H1844 C1852 0.950 . S
H1845 C1857 0.950 . S
H1846 C1854 0.950 . S
H1847 C1856 0.950 . S
H1848 C1858 0.950 . S
H1849 C1860 0.950 . S
H1850 C1862 0.950 . S
H1851 C1863 0.950 . S
C1852 H1844 0.950 . S
C1852 C1853 1.386 . S
C1852 C1854 1.391 . S
C1853 C1852 1.386 . S
C1853 C1857 1.393 . S
C1854 H1846 0.950 . S
C1854 C1852 1.391 . S
C1854 C1855 1.400 . S
C1855 C1854 1.400 . S
C1855 C1856 1.398 . S
C1855 C1861 1.491 . S
C1856 H1847 0.950 . S
C1856 C1855 1.398 . S
C1856 C1857 1.391 . S
C1857 H1845 0.950 . S
C1857 C1853 1.393 . S
C1857 C1856 1.391 . S
C1858 H1848 0.950 . S
C1858 C1859 1.386 . S
C1858 C1860 1.391 . S
C1859 C1858 1.386 . S
C1859 C1863 1.393 . S
C1860 H1849 0.950 . S
C1860 C1858 1.391 . S
C1860 C1861 1.400 . S
C1861 C1855 1.491 . S
C1861 C1860 1.400 . S
C1861 C1862 1.398 . S
C1862 H1850 0.950 . S
C1862 C1861 1.398 . S
C1862 C1863 1.391 . S
C1863 H1851 0.950 . S
C1863 C1859 1.393 . S
C1863 C1862 1.391 . S
H1864 C1872 0.950 . S
H1865 C1877 0.950 . S
H1866 C1874 0.950 . S
H1867 C1876 0.950 . S
H1868 C1878 0.950 . S
H1869 C1880 0.950 . S
H1870 C1882 0.950 . S
H1871 C1883 0.950 . S
C1872 H1864 0.950 . S
C1872 C1873 1.386 . S
C1872 C1874 1.391 . S
C1873 C1872 1.386 . S
C1873 C1877 1.393 . S
C1874 H1866 0.950 . S
C1874 C1872 1.391 . S
C1874 C1875 1.400 . S
C1875 C1874 1.400 . S
C1875 C1876 1.398 . S
C1875 C1881 1.491 . S
C1876 H1867 0.950 . S
C1876 C1875 1.398 . S
C1876 C1877 1.391 . S
C1877 H1865 0.950 . S
C1877 C1873 1.393 . S
C1877 C1876 1.391 . S
C1878 H1868 0.950 . S
C1878 C1879 1.386 . S
C1878 C1880 1.391 . S
C1879 C1878 1.386 . S
C1879 C1883 1.393 . S
C1880 H1869 0.950 . S
C1880 C1878 1.391 . S
C1880 C1881 1.400 . S
C1881 C1875 1.491 . S
C1881 C1880 1.400 . S
C1881 C1882 1.398 . S
C1882 H1870 0.950 . S
C1882 C1881 1.398 . S
C1882 C1883 1.391 . S
C1883 H1871 0.950 . S
C1883 C1879 1.393 . S
C1883 C1882 1.391 . S
H1884 C1892 0.950 . S
H1885 C1897 0.950 . S
H1886 C1894 0.950 . S
H1887 C1896 0.950 . S
H1888 C1898 0.950 . S
H1889 C1900 0.950 . S
H1890 C1902 0.950 . S
H1891 C1903 0.950 . S
C1892 H1884 0.950 . S
C1892 C1893 1.386 . S
C1892 C1894 1.391 . S
C1893 C1892 1.386 . S
C1893 C1897 1.393 . S
C1894 H1886 0.950 . S
C1894 C1892 1.391 . S
C1894 C1895 1.400 . S
C1895 C1894 1.400 . S
C1895 C1896 1.398 . S
C1895 C1901 1.491 . S
C1896 H1887 0.950 . S
C1896 C1895 1.398 . S
C1896 C1897 1.391 . S
C1897 H1885 0.950 . S
C1897 C1893 1.393 . S
C1897 C1896 1.391 . S
C1898 H1888 0.950 . S
C1898 C1899 1.386 . S
C1898 C1900 1.391 . S
C1899 C1898 1.386 . S
C1899 C1903 1.393 . S
C1900 H1889 0.950 . S
C1900 C1898 1.391 . S
C1900 C1901 1.400 . S
C1901 C1895 1.491 . S
C1901 C1900 1.400 . S
C1901 C1902 1.398 . S
C1902 H1890 0.950 . S
C1902 C1901 1.398 . S
C1902 C1903 1.391 . S
C1903 H1891 0.950 . S
C1903 C1899 1.393 . S
C1903 C1902 1.391 . S
H1904 C1912 0.950 . S
H1905 C1917 0.950 . S
H1906 C1914 0.950 . S
H1907 C1916 0.950 . S
H1908 C1918 0.950 . S
H1909 C1920 0.950 . S
H1910 C1922 0.950 . S
H1911 C1923 0.950 . S
C1912 H1904 0.950 . S
C1912 C1913 1.386 . S
C1912 C1914 1.391 . S
C1913 C1912 1.386 . S
C1913 C1917 1.393 . S
C1914 H1906 0.950 . S
C1914 C1912 1.391 . S
C1914 C1915 1.400 . S
C1915 C1914 1.400 . S
C1915 C1916 1.398 . S
C1915 C1921 1.491 . S
C1916 H1907 0.950 . S
C1916 C1915 1.398 . S
C1916 C1917 1.391 . S
C1917 H1905 0.950 . S
C1917 C1913 1.393 . S
C1917 C1916 1.391 . S
C1918 H1908 0.950 . S
C1918 C1919 1.386 . S
C1918 C1920 1.391 . S
C1919 C1918 1.386 . S
C1919 C1923 1.393 . S
C1920 H1909 0.950 . S
C1920 C1918 1.391 . S
C1920 C1921 1.400 . S
C1921 C1915 1.491 . S
C1921 C1920 1.400 . S
C1921 C1922 1.398 . S
C1922 H1910 0.950 . S
C1922 C1921 1.398 . S
C1922 C1923 1.391 . S
C1923 H1911 0.950 . S
C1923 C1919 1.393 . S
C1923 C1922 1.391 . S
H1924 C1932 0.950 . S
H1925 C1937 0.950 . S
H1926 C1934 0.950 . S
H1927 C1936 0.950 . S
H1928 C1938 0.950 . S
H1929 C1940 0.950 . S
H1930 C1942 0.950 . S
H1931 C1943 0.950 . S
C1932 H1924 0.950 . S
C1932 C1933 1.386 . S
C1932 C1934 1.391 . S
C1933 C1932 1.386 . S
C1933 C1937 1.393 . S
C1934 H1926 0.950 . S
C1934 C1932 1.391 . S
C1934 C1935 1.400 . S
C1935 C1934 1.400 . S
C1935 C1936 1.398 . S
C1935 C1941 1.491 . S
C1936 H1927 0.950 . S
C1936 C1935 1.398 . S
C1936 C1937 1.391 . S
C1937 H1925 0.950 . S
C1937 C1933 1.393 . S
C1937 C1936 1.391 . S
C1938 H1928 0.950 . S
C1938 C1939 1.386 . S
C1938 C1940 1.391 . S
C1939 C1938 1.386 . S
C1939 C1943 1.393 . S
C1940 H1929 0.950 . S
C1940 C1938 1.391 . S
C1940 C1941 1.400 . S
C1941 C1935 1.491 . S
C1941 C1940 1.400 . S
C1941 C1942 1.398 . S
C1942 H1930 0.950 . S
C1942 C1941 1.398 . S
C1942 C1943 1.391 . S
C1943 H1931 0.950 . S
C1943 C1939 1.393 . S
C1943 C1942 1.391 . S
H1944 C1952 0.950 . S
H1945 C1957 0.950 . S
H1946 C1954 0.950 . S
H1947 C1956 0.950 . S
H1948 C1958 0.950 . S
H1949 C1960 0.950 . S
H1950 C1962 0.950 . S
H1951 C1963 0.950 . S
C1952 H1944 0.950 . S
C1952 C1953 1.386 . S
C1952 C1954 1.391 . S
C1953 C1952 1.386 . S
C1953 C1957 1.393 . S
C1954 H1946 0.950 . S
C1954 C1952 1.391 . S
C1954 C1955 1.400 . S
C1955 C1954 1.400 . S
C1955 C1956 1.398 . S
C1955 C1961 1.491 . S
C1956 H1947 0.950 . S
C1956 C1955 1.398 . S
C1956 C1957 1.391 . S
C1957 H1945 0.950 . S
C1957 C1953 1.393 . S
C1957 C1956 1.391 . S
C1958 H1948 0.950 . S
C1958 C1959 1.386 . S
C1958 C1960 1.391 . S
C1959 C1958 1.386 . S
C1959 C1963 1.393 . S
C1960 H1949 0.950 . S
C1960 C1958 1.391 . S
C1960 C1961 1.400 . S
C1961 C1955 1.491 . S
C1961 C1960 1.400 . S
C1961 C1962 1.398 . S
C1962 H1950 0.950 . S
C1962 C1961 1.398 . S
C1962 C1963 1.391 . S
C1963 H1951 0.950 . S
C1963 C1959 1.393 . S
C1963 C1962 1.391 . S
H1964 C1972 0.950 . S
H1965 C1977 0.950 . S
H1966 C1974 0.950 . S
H1967 C1976 0.950 . S
H1968 C1978 0.950 . S
H1969 C1980 0.950 . S
H1970 C1982 0.950 . S
H1971 C1983 0.950 . S
C1972 H1964 0.950 . S
C1972 C1973 1.386 . S
C1972 C1974 1.391 . S
C1973 C1972 1.386 . S
C1973 C1977 1.393 . S
C1974 H1966 0.950 . S
C1974 C1972 1.391 . S
C1974 C1975 1.400 . S
C1975 C1974 1.400 . S
C1975 C1976 1.398 . S
C1975 C1981 1.491 . S
C1976 H1967 0.950 . S
C1976 C1975 1.398 . S
C1976 C1977 1.391 . S
C1977 H1965 0.950 . S
C1977 C1973 1.393 . S
C1977 C1976 1.391 . S
C1978 H1968 0.950 . S
C1978 C1979 1.386 . S
C1978 C1980 1.391 . S
C1979 C1978 1.386 . S
C1979 C1983 1.393 . S
C1980 H1969 0.950 . S
C1980 C1978 1.391 . S
C1980 C1981 1.400 . S
C1981 C1975 1.491 . S
C1981 C1980 1.400 . S
C1981 C1982 1.398 . S
C1982 H1970 0.950 . S
C1982 C1981 1.398 . S
C1982 C1983 1.391 . S
C1983 H1971 0.950 . S
C1983 C1979 1.393 . S
C1983 C1982 1.391 . S
H1984 C1992 0.950 . S
H1985 C1997 0.950 . S
H1986 C1994 0.950 . S
H1987 C1996 0.950 . S
H1988 C1998 0.950 . S
H1989 C2000 0.950 . S
H1990 C2002 0.950 . S
H1991 C2003 0.950 . S
C1992 H1984 0.950 . S
C1992 C1993 1.386 . S
C1992 C1994 1.391 . S
C1993 C1992 1.386 . S
C1993 C1997 1.393 . S
C1994 H1986 0.950 . S
C1994 C1992 1.391 . S
C1994 C1995 1.400 . S
C1995 C1994 1.400 . S
C1995 C1996 1.398 . S
C1995 C2001 1.491 . S
C1996 H1987 0.950 . S
C1996 C1995 1.398 . S
C1996 C1997 1.391 . S
C1997 H1985 0.950 . S
C1997 C1993 1.393 . S
C1997 C1996 1.391 . S
C1998 H1988 0.950 . S
C1998 C1999 1.386 . S
C1998 C2000 1.391 . S
C1999 C1998 1.386 . S
C1999 C2003 1.393 . S
C2000 H1989 0.950 . S
C2000 C1998 1.391 . S
C2000 C2001 1.400 . S
C2001 C1995 1.491 . S
C2001 C2000 1.400 . S
C2001 C2002 1.398 . S
C2002 H1990 0.950 . S
C2002 C2001 1.398 . S
C2002 C2003 1.391 . S
C2003 H1991 0.950 . S
C2003 C1999 1.393 . S
C2003 C2002 1.391 . S
H2004 C2012 0.950 . S
H2005 C2017 0.950 . S
H2006 C2014 0.950 . S
H2007 C2016 0.950 . S
H2008 C2018 0.950 . S
H2009 C2020 0.950 . S
H2010 C2022 0.950 . S
H2011 C2023 0.950 . S
C2012 H2004 0.950 . S
C2012 C2013 1.386 . S
C2012 C2014 1.391 . S
C2013 C2012 1.386 . S
C2013 C2017 1.393 . S
C2014 H2006 0.950 . S
C2014 C2012 1.391 . S
C2014 C2015 1.400 . S
C2015 C2014 1.400 . S
C2015 C2016 1.398 . S
C2015 C2021 1.491 . S
C2016 H2007 0.950 . S
C2016 C2015 1.398 . S
C2016 C2017 1.391 . S
C2017 H2005 0.950 . S
C2017 C2013 1.393 . S
C2017 C2016 1.391 . S
C2018 H2008 0.950 . S
C2018 C2019 1.386 . S
C2018 C2020 1.391 . S
C2019 C2018 1.386 . S
C2019 C2023 1.393 . S
C2020 H2009 0.950 . S
C2020 C2018 1.391 . S
C2020 C2021 1.400 . S
C2021 C2015 1.491 . S
C2021 C2020 1.400 . S
C2021 C2022 1.398 . S
C2022 H2010 0.950 . S
C2022 C2021 1.398 . S
C2022 C2023 1.391 . S
C2023 H2011 0.950 . S
C2023 C2019 1.393 . S
C2023 C2022 1.391 . S
H2024 C2032 0.950 . S
H2025 C2037 0.950 . S
H2026 C2034 0.950 . S
H2027 C2036 0.950 . S
H2028 C2038 0.950 . S
H2029 C2040 0.950 . S
H2030 C2042 0.950 . S
H2031 C2043 0.950 . S
C2032 H2024 0.950 . S
C2032 C2033 1.386 . S
C2032 C2034 1.391 . S
C2033 C2032 1.386 . S
C2033 C2037 1.393 . S
C2034 H2026 0.950 . S
C2034 C2032 1.391 . S
C2034 C2035 1.400 . S
C2035 C2034 1.400 . S
C2035 C2036 1.398 . S
C2035 C2041 1.491 . S
C2036 H2027 0.950 . S
C2036 C2035 1.398 . S
C2036 C2037 1.391 . S
C2037 H2025 0.950 . S
C2037 C2033 1.393 . S
C2037 C2036 1.391 . S
C2038 H2028 0.950 . S
C2038 C2039 1.386 . S
C2038 C2040 1.391 . S
C2039 C2038 1.386 . S
C2039 C2043 1.393 . S
C2040 H2029 0.950 . S
C2040 C2038 1.391 . S
C2040 C2041 1.400 . S
C2041 C2035 1.491 . S
C2041 C2040 1.400 . S
C2041 C2042 1.398 . S
C2042 H2030 0.950 . S
C2042 C2041 1.398 . S
C2042 C2043 1.391 . S
C2043 H2031 0.950 . S
C2043 C2039 1.393 . S
C2043 C2042 1.391 . S
H2044 C2052 0.950 . S
H2045 C2057 0.950 . S
H2046 C2054 0.950 . S
H2047 C2056 0.950 . S
H2048 C2058 0.950 . S
H2049 C2060 0.950 . S
H2050 C2062 0.950 . S
H2051 C2063 0.950 . S
C2052 H2044 0.950 . S
C2052 C2053 1.386 . S
C2052 C2054 1.391 . S
C2053 C2052 1.386 . S
C2053 C2057 1.393 . S
C2054 H2046 0.950 . S
C2054 C2052 1.391 . S
C2054 C2055 1.400 . S
C2055 C2054 1.400 . S
C2055 C2056 1.398 . S
C2055 C2061 1.491 . S
C2056 H2047 0.950 . S
C2056 C2055 1.398 . S
C2056 C2057 1.391 . S
C2057 H2045 0.950 . S
C2057 C2053 1.393 . S
C2057 C2056 1.391 . S
C2058 H2048 0.950 . S
C2058 C2059 1.386 . S
C2058 C2060 1.391 . S
C2059 C2058 1.386 . S
C2059 C2063 1.393 . S
C2060 H2049 0.950 . S
C2060 C2058 1.391 . S
C2060 C2061 1.400 . S
C2061 C2055 1.491 . S
C2061 C2060 1.400 . S
C2061 C2062 1.398 . S
C2062 H2050 0.950 . S
C2062 C2061 1.398 . S
C2062 C2063 1.391 . S
C2063 H2051 0.950 . S
C2063 C2059 1.393 . S
C2063 C2062 1.391 . S
H2064 C2072 0.950 . S
H2065 C2077 0.950 . S
H2066 C2074 0.950 . S
H2067 C2076 0.950 . S
H2068 C2078 0.950 . S
H2069 C2080 0.950 . S
H2070 C2082 0.950 . S
H2071 C2083 0.950 . S
C2072 H2064 0.950 . S
C2072 C2073 1.386 . S
C2072 C2074 1.391 . S
C2073 C2072 1.386 . S
C2073 C2077 1.393 . S
C2074 H2066 0.950 . S
C2074 C2072 1.391 . S
C2074 C2075 1.400 . S
C2075 C2074 1.400 . S
C2075 C2076 1.398 . S
C2075 C2081 1.491 . S
C2076 H2067 0.950 . S
C2076 C2075 1.398 . S
C2076 C2077 1.391 . S
C2077 H2065 0.950 . S
C2077 C2073 1.393 . S
C2077 C2076 1.391 . S
C2078 H2068 0.950 . S
C2078 C2079 1.386 . S
C2078 C2080 1.391 . S
C2079 C2078 1.386 . S
C2079 C2083 1.393 . S
C2080 H2069 0.950 . S
C2080 C2078 1.391 . S
C2080 C2081 1.400 . S
C2081 C2075 1.491 . S
C2081 C2080 1.400 . S
C2081 C2082 1.398 . S
C2082 H2070 0.950 . S
C2082 C2081 1.398 . S
C2082 C2083 1.391 . S
C2083 H2071 0.950 . S
C2083 C2079 1.393 . S
C2083 C2082 1.391 . S
H2084 C2092 0.950 . S
H2085 C2097 0.950 . S
H2086 C2094 0.950 . S
H2087 C2096 0.950 . S
H2088 C2098 0.950 . S
H2089 C2100 0.950 . S
H2090 C2102 0.950 . S
H2091 C2103 0.950 . S
C2092 H2084 0.950 . S
C2092 C2093 1.386 . S
C2092 C2094 1.391 . S
C2093 C2092 1.386 . S
C2093 C2097 1.393 . S
C2094 H2086 0.950 . S
C2094 C2092 1.391 . S
C2094 C2095 1.400 . S
C2095 C2094 1.400 . S
C2095 C2096 1.398 . S
C2095 C2101 1.491 . S
C2096 H2087 0.950 . S
C2096 C2095 1.398 . S
C2096 C2097 1.391 . S
C2097 H2085 0.950 . S
C2097 C2093 1.393 . S
C2097 C2096 1.391 . S
C2098 H2088 0.950 . S
C2098 C2099 1.386 . S
C2098 C2100 1.391 . S
C2099 C2098 1.386 . S
C2099 C2103 1.393 . S
C2100 H2089 0.950 . S
C2100 C2098 1.391 . S
C2100 C2101 1.400 . S
C2101 C2095 1.491 . S
C2101 C2100 1.400 . S
C2101 C2102 1.398 . S
C2102 H2090 0.950 . S
C2102 C2101 1.398 . S
C2102 C2103 1.391 . S
C2103 H2091 0.950 . S
C2103 C2099 1.393 . S
C2103 C2102 1.391 . S
H2104 C2112 0.950 . S
H2105 C2117 0.950 . S
H2106 C2114 0.950 . S
H2107 C2116 0.950 . S
H2108 C2118 0.950 . S
H2109 C2120 0.950 . S
H2110 C2122 0.950 . S
H2111 C2123 0.950 . S
C2112 H2104 0.950 . S
C2112 C2113 1.386 . S
C2112 C2114 1.391 . S
C2113 C2112 1.386 . S
C2113 C2117 1.393 . S
C2114 H2106 0.950 . S
C2114 C2112 1.391 . S
C2114 C2115 1.400 . S
C2115 C2114 1.400 . S
C2115 C2116 1.398 . S
C2115 C2121 1.491 . S
C2116 H2107 0.950 . S
C2116 C2115 1.398 . S
C2116 C2117 1.391 . S
C2117 H2105 0.950 . S
C2117 C2113 1.393 . S
C2117 C2116 1.391 . S
C2118 H2108 0.950 . S
C2118 C2119 1.386 . S
C2118 C2120 1.391 . S
C2119 C2118 1.386 . S
C2119 C2123 1.393 . S
C2120 H2109 0.950 . S
C2120 C2118 1.391 . S
C2120 C2121 1.400 . S
C2121 C2115 1.491 . S
C2121 C2120 1.400 . S
C2121 C2122 1.398 . S
C2122 H2110 0.950 . S
C2122 C2121 1.398 . S
C2122 C2123 1.391 . S
C2123 H2111 0.950 . S
C2123 C2119 1.393 . S
C2123 C2122 1.391 . S
H2124 C2132 0.950 . S
H2125 C2137 0.950 . S
H2126 C2134 0.950 . S
H2127 C2136 0.950 . S
H2128 C2138 0.950 . S
H2129 C2140 0.950 . S
H2130 C2142 0.950 . S
H2131 C2143 0.950 . S
C2132 H2124 0.950 . S
C2132 C2133 1.386 . S
C2132 C2134 1.391 . S
C2133 C2132 1.386 . S
C2133 C2137 1.393 . S
C2134 H2126 0.950 . S
C2134 C2132 1.391 . S
C2134 C2135 1.400 . S
C2135 C2134 1.400 . S
C2135 C2136 1.398 . S
C2135 C2141 1.491 . S
C2136 H2127 0.950 . S
C2136 C2135 1.398 . S
C2136 C2137 1.391 . S
C2137 H2125 0.950 . S
C2137 C2133 1.393 . S
C2137 C2136 1.391 . S
C2138 H2128 0.950 . S
C2138 C2139 1.386 . S
C2138 C2140 1.391 . S
C2139 C2138 1.386 . S
C2139 C2143 1.393 . S
C2140 H2129 0.950 . S
C2140 C2138 1.391 . S
C2140 C2141 1.400 . S
C2141 C2135 1.491 . S
C2141 C2140 1.400 . S
C2141 C2142 1.398 . S
C2142 H2130 0.950 . S
C2142 C2141 1.398 . S
C2142 C2143 1.391 . S
C2143 H2131 0.950 . S
C2143 C2139 1.393 . S
C2143 C2142 1.391 . S
H2144 C2152 0.950 . S
H2145 C2157 0.950 . S
H2146 C2154 0.950 . S
H2147 C2156 0.950 . S
H2148 C2158 0.950 . S
H2149 C2160 0.950 . S
H2150 C2162 0.950 . S
H2151 C2163 0.950 . S
C2152 H2144 0.950 . S
C2152 C2153 1.386 . S
C2152 C2154 1.391 . S
C2153 C2152 1.386 . S
C2153 C2157 1.393 . S
C2154 H2146 0.950 . S
C2154 C2152 1.391 . S
C2154 C2155 1.400 . S
C2155 C2154 1.400 . S
C2155 C2156 1.398 . S
C2155 C2161 1.491 . S
C2156 H2147 0.950 . S
C2156 C2155 1.398 . S
C2156 C2157 1.391 . S
C2157 H2145 0.950 . S
C2157 C2153 1.393 . S
C2157 C2156 1.391 . S
C2158 H2148 0.950 . S
C2158 C2159 1.386 . S
C2158 C2160 1.391 . S
C2159 C2158 1.386 . S
C2159 C2163 1.393 . S
C2160 H2149 0.950 . S
C2160 C2158 1.391 . S
C2160 C2161 1.400 . S
C2161 C2155 1.491 . S
C2161 C2160 1.400 . S
C2161 C2162 1.398 . S
C2162 H2150 0.950 . S
C2162 C2161 1.398 . S
C2162 C2163 1.391 . S
C2163 H2151 0.950 . S
C2163 C2159 1.393 . S
C2163 C2162 1.391 . S
H2164 C2172 0.950 . S
H2165 C2177 0.950 . S
H2166 C2174 0.950 . S
H2167 C2176 0.950 . S
H2168 C2178 0.950 . S
H2169 C2180 0.950 . S
H2170 C2182 0.950 . S
H2171 C2183 0.950 . S
C2172 H2164 0.950 . S
C2172 C2173 1.386 . S
C2172 C2174 1.391 . S
C2173 C2172 1.386 . S
C2173 C2177 1.393 . S
C2174 H2166 0.950 . S
C2174 C2172 1.391 . S
C2174 C2175 1.400 . S
C2175 C2174 1.400 . S
C2175 C2176 1.398 . S
C2175 C2181 1.491 . S
C2176 H2167 0.950 . S
C2176 C2175 1.398 . S
C2176 C2177 1.391 . S
C2177 H2165 0.950 . S
C2177 C2173 1.393 . S
C2177 C2176 1.391 . S
C2178 H2168 0.950 . S
C2178 C2179 1.386 . S
C2178 C2180 1.391 . S
C2179 C2178 1.386 . S
C2179 C2183 1.393 . S
C2180 H2169 0.950 . S
C2180 C2178 1.391 . S
C2180 C2181 1.400 . S
C2181 C2175 1.491 . S
C2181 C2180 1.400 . S
C2181 C2182 1.398 . S
C2182 H2170 0.950 . S
C2182 C2181 1.398 . S
C2182 C2183 1.391 . S
C2183 H2171 0.950 . S
C2183 C2179 1.393 . S
C2183 C2182 1.391 . S
H2184 C2192 0.950 . S
H2185 C2197 0.950 . S
H2186 C2194 0.950 . S
H2187 C2196 0.950 . S
H2188 C2198 0.950 . S
H2189 C2200 0.950 . S
H2190 C2202 0.950 . S
H2191 C2203 0.950 . S
C2192 H2184 0.950 . S
C2192 C2193 1.386 . S
C2192 C2194 1.391 . S
C2193 C2192 1.386 . S
C2193 C2197 1.393 . S
C2194 H2186 0.950 . S
C2194 C2192 1.391 . S
C2194 C2195 1.400 . S
C2195 C2194 1.400 . S
C2195 C2196 1.398 . S
C2195 C2201 1.491 . S
C2196 H2187 0.950 . S
C2196 C2195 1.398 . S
C2196 C2197 1.391 . S
C2197 H2185 0.950 . S
C2197 C2193 1.393 . S
C2197 C2196 1.391 . S
C2198 H2188 0.950 . S
C2198 C2199 1.386 . S
C2198 C2200 1.391 . S
C2199 C2198 1.386 . S
C2199 C2203 1.393 . S
C2200 H2189 0.950 . S
C2200 C2198 1.391 . S
C2200 C2201 1.400 . S
C2201 C2195 1.491 . S
C2201 C2200 1.400 . S
C2201 C2202 1.398 . S
C2202 H2190 0.950 . S
C2202 C2201 1.398 . S
C2202 C2203 1.391 . S
C2203 H2191 0.950 . S
C2203 C2199 1.393 . S
C2203 C2202 1.391 . S
H2204 C2212 0.950 . S
H2205 C2217 0.950 . S
H2206 C2214 0.950 . S
H2207 C2216 0.950 . S
H2208 C2218 0.950 . S
H2209 C2220 0.950 . S
H2210 C2222 0.950 . S
H2211 C2223 0.950 . S
C2212 H2204 0.950 . S
C2212 C2213 1.386 . S
C2212 C2214 1.391 . S
C2213 C2212 1.386 . S
C2213 C2217 1.393 . S
C2214 H2206 0.950 . S
C2214 C2212 1.391 . S
C2214 C2215 1.400 . S
C2215 C2214 1.400 . S
C2215 C2216 1.398 . S
C2215 C2221 1.491 . S
C2216 H2207 0.950 . S
C2216 C2215 1.398 . S
C2216 C2217 1.391 . S
C2217 H2205 0.950 . S
C2217 C2213 1.393 . S
C2217 C2216 1.391 . S
C2218 H2208 0.950 . S
C2218 C2219 1.386 . S
C2218 C2220 1.391 . S
C2219 C2218 1.386 . S
C2219 C2223 1.393 . S
C2220 H2209 0.950 . S
C2220 C2218 1.391 . S
C2220 C2221 1.400 . S
C2221 C2215 1.491 . S
C2221 C2220 1.400 . S
C2221 C2222 1.398 . S
C2222 H2210 0.950 . S
C2222 C2221 1.398 . S
C2222 C2223 1.391 . S
C2223 H2211 0.950 . S
C2223 C2219 1.393 . S
C2223 C2222 1.391 . S
H2224 C2232 0.950 . S
H2225 C2237 0.950 . S
H2226 C2234 0.950 . S
H2227 C2236 0.950 . S
H2228 C2238 0.950 . S
H2229 C2240 0.950 . S
H2230 C2242 0.950 . S
H2231 C2243 0.950 . S
C2232 H2224 0.950 . S
C2232 C2233 1.386 . S
C2232 C2234 1.391 . S
C2233 C2232 1.386 . S
C2233 C2237 1.393 . S
C2234 H2226 0.950 . S
C2234 C2232 1.391 . S
C2234 C2235 1.400 . S
C2235 C2234 1.400 . S
C2235 C2236 1.398 . S
C2235 C2241 1.491 . S
C2236 H2227 0.950 . S
C2236 C2235 1.398 . S
C2236 C2237 1.391 . S
C2237 H2225 0.950 . S
C2237 C2233 1.393 . S
C2237 C2236 1.391 . S
C2238 H2228 0.950 . S
C2238 C2239 1.386 . S
C2238 C2240 1.391 . S
C2239 C2238 1.386 . S
C2239 C2243 1.393 . S
C2240 H2229 0.950 . S
C2240 C2238 1.391 . S
C2240 C2241 1.400 . S
C2241 C2235 1.491 . S
C2241 C2240 1.400 . S
C2241 C2242 1.398 . S
C2242 H2230 0.950 . S
C2242 C2241 1.398 . S
C2242 C2243 1.391 . S
C2243 H2231 0.950 . S
C2243 C2239 1.393 . S
C2243 C2242 1.391 . S
H2244 C2252 0.950 . S
H2245 C2257 0.950 . S
H2246 C2254 0.950 . S
H2247 C2256 0.950 . S
H2248 C2258 0.950 . S
H2249 C2260 0.950 . S
H2250 C2262 0.950 . S
H2251 C2263 0.950 . S
C2252 H2244 0.950 . S
C2252 C2253 1.386 . S
C2252 C2254 1.391 . S
C2253 C2252 1.386 . S
C2253 C2257 1.393 . S
C2254 H2246 0.950 . S
C2254 C2252 1.391 . S
C2254 C2255 1.400 . S
C2255 C2254 1.400 . S
C2255 C2256 1.398 . S
C2255 C2261 1.491 . S
C2256 H2247 0.950 . S
C2256 C2255 1.398 . S
C2256 C2257 1.391 . S
C2257 H2245 0.950 . S
C2257 C2253 1.393 . S
C2257 C2256 1.391 . S
C2258 H2248 0.950 . S
C2258 C2259 1.386 . S
C2258 C2260 1.391 . S
C2259 C2258 1.386 . S
C2259 C2263 1.393 . S
C2260 H2249 0.950 . S
C2260 C2258 1.391 . S
C2260 C2261 1.400 . S
C2261 C2255 1.491 . S
C2261 C2260 1.400 . S
C2261 C2262 1.398 . S
C2262 H2250 0.950 . S
C2262 C2261 1.398 . S
C2262 C2263 1.391 . S
C2263 H2251 0.950 . S
C2263 C2259 1.393 . S
C2263 C2262 1.391 . S
H2264 C2272 0.950 . S
H2265 C2277 0.950 . S
H2266 C2274 0.950 . S
H2267 C2276 0.950 . S
H2268 C2278 0.950 . S
H2269 C2280 0.950 . S
H2270 C2282 0.950 . S
H2271 C2283 0.950 . S
C2272 H2264 0.950 . S
C2272 C2273 1.386 . S
C2272 C2274 1.391 . S
C2273 C2272 1.386 . S
C2273 C2277 1.393 . S
C2274 H2266 0.950 . S
C2274 C2272 1.391 . S
C2274 C2275 1.400 . S
C2275 C2274 1.400 . S
C2275 C2276 1.398 . S
C2275 C2281 1.491 . S
C2276 H2267 0.950 . S
C2276 C2275 1.398 . S
C2276 C2277 1.391 . S
C2277 H2265 0.950 . S
C2277 C2273 1.393 . S
C2277 C2276 1.391 . S
C2278 H2268 0.950 . S
C2278 C2279 1.386 . S
C2278 C2280 1.391 . S
C2279 C2278 1.386 . S
C2279 C2283 1.393 . S
C2280 H2269 0.950 . S
C2280 C2278 1.391 . S
C2280 C2281 1.400 . S
C2281 C2275 1.491 . S
C2281 C2280 1.400 . S
C2281 C2282 1.398 . S
C2282 H2270 0.950 . S
C2282 C2281 1.398 . S
C2282 C2283 1.391 . S
C2283 H2271 0.950 . S
C2283 C2279 1.393 . S
C2283 C2282 1.391 . S
H2284 C2292 0.950 . S
H2285 C2297 0.950 . S
H2286 C2294 0.950 . S
H2287 C2296 0.950 . S
H2288 C2298 0.950 . S
H2289 C2300 0.950 . S
H2290 C2302 0.950 . S
H2291 C2303 0.950 . S
C2292 H2284 0.950 . S
C2292 C2293 1.386 . S
C2292 C2294 1.391 . S
C2293 C2292 1.386 . S
C2293 C2297 1.393 . S
C2294 H2286 0.950 . S
C2294 C2292 1.391 . S
C2294 C2295 1.400 . S
C2295 C2294 1.400 . S
C2295 C2296 1.398 . S
C2295 C2301 1.491 . S
C2296 H2287 0.950 . S
C2296 C2295 1.398 . S
C2296 C2297 1.391 . S
C2297 H2285 0.950 . S
C2297 C2293 1.393 . S
C2297 C2296 1.391 . S
C2298 H2288 0.950 . S
C2298 C2299 1.386 . S
C2298 C2300 1.391 . S
C2299 C2298 1.386 . S
C2299 C2303 1.393 . S
C2300 H2289 0.950 . S
C2300 C2298 1.391 . S
C2300 C2301 1.400 . S
C2301 C2295 1.491 . S
C2301 C2300 1.400 . S
C2301 C2302 1.398 . S
C2302 H2290 0.950 . S
C2302 C2301 1.398 . S
C2302 C2303 1.391 . S
C2303 H2291 0.950 . S
C2303 C2299 1.393 . S
C2303 C2302 1.391 . S
H2304 C2312 0.950 . S
H2305 C2317 0.950 . S
H2306 C2314 0.950 . S
H2307 C2316 0.950 . S
H2308 C2318 0.950 . S
H2309 C2320 0.950 . S
H2310 C2322 0.950 . S
H2311 C2323 0.950 . S
C2312 H2304 0.950 . S
C2312 C2313 1.386 . S
C2312 C2314 1.391 . S
C2313 C2312 1.386 . S
C2313 C2317 1.393 . S
C2314 H2306 0.950 . S
C2314 C2312 1.391 . S
C2314 C2315 1.400 . S
C2315 C2314 1.400 . S
C2315 C2316 1.398 . S
C2315 C2321 1.491 . S
C2316 H2307 0.950 . S
C2316 C2315 1.398 . S
C2316 C2317 1.391 . S
C2317 H2305 0.950 . S
C2317 C2313 1.393 . S
C2317 C2316 1.391 . S
C2318 H2308 0.950 . S
C2318 C2319 1.386 . S
C2318 C2320 1.391 . S
C2319 C2318 1.386 . S
C2319 C2323 1.393 . S
C2320 H2309 0.950 . S
C2320 C2318 1.391 . S
C2320 C2321 1.400 . S
C2321 C2315 1.491 . S
C2321 C2320 1.400 . S
C2321 C2322 1.398 . S
C2322 H2310 0.950 . S
C2322 C2321 1.398 . S
C2322 C2323 1.391 . S
C2323 H2311 0.950 . S
C2323 C2319 1.393 . S
C2323 C2322 1.391 . S
H2324 C2332 0.950 . S
H2325 C2337 0.950 . S
H2326 C2334 0.950 . S
H2327 C2336 0.950 . S
H2328 C2338 0.950 . S
H2329 C2340 0.950 . S
H2330 C2342 0.950 . S
H2331 C2343 0.950 . S
C2332 H2324 0.950 . S
C2332 C2333 1.386 . S
C2332 C2334 1.391 . S
C2333 C2332 1.386 . S
C2333 C2337 1.393 . S
C2334 H2326 0.950 . S
C2334 C2332 1.391 . S
C2334 C2335 1.400 . S
C2335 C2334 1.400 . S
C2335 C2336 1.398 . S
C2335 C2341 1.491 . S
C2336 H2327 0.950 . S
C2336 C2335 1.398 . S
C2336 C2337 1.391 . S
C2337 H2325 0.950 . S
C2337 C2333 1.393 . S
C2337 C2336 1.391 . S
C2338 H2328 0.950 . S
C2338 C2339 1.386 . S
C2338 C2340 1.391 . S
C2339 C2338 1.386 . S
C2339 C2343 1.393 . S
C2340 H2329 0.950 . S
C2340 C2338 1.391 . S
C2340 C2341 1.400 . S
C2341 C2335 1.491 . S
C2341 C2340 1.400 . S
C2341 C2342 1.398 . S
C2342 H2330 0.950 . S
C2342 C2341 1.398 . S
C2342 C2343 1.391 . S
C2343 H2331 0.950 . S
C2343 C2339 1.393 . S
C2343 C2342 1.391 . S
H2344 C2352 0.950 . S
H2345 C2357 0.950 . S
H2346 C2354 0.950 . S
H2347 C2356 0.950 . S
H2348 C2358 0.950 . S
H2349 C2360 0.950 . S
H2350 C2362 0.950 . S
H2351 C2363 0.950 . S
C2352 H2344 0.950 . S
C2352 C2353 1.386 . S
C2352 C2354 1.391 . S
C2353 C2352 1.386 . S
C2353 C2357 1.393 . S
C2354 H2346 0.950 . S
C2354 C2352 1.391 . S
C2354 C2355 1.400 . S
C2355 C2354 1.400 . S
C2355 C2356 1.398 . S
C2355 C2361 1.491 . S
C2356 H2347 0.950 . S
C2356 C2355 1.398 . S
C2356 C2357 1.391 . S
C2357 H2345 0.950 . S
C2357 C2353 1.393 . S
C2357 C2356 1.391 . S
C2358 H2348 0.950 . S
C2358 C2359 1.386 . S
C2358 C2360 1.391 . S
C2359 C2358 1.386 . S
C2359 C2363 1.393 . S
C2360 H2349 0.950 . S
C2360 C2358 1.391 . S
C2360 C2361 1.400 . S
C2361 C2355 1.491 . S
C2361 C2360 1.400 . S
C2361 C2362 1.398 . S
C2362 H2350 0.950 . S
C2362 C2361 1.398 . S
C2362 C2363 1.391 . S
C2363 H2351 0.950 . S
C2363 C2359 1.393 . S
C2363 C2362 1.391 . S
H2364 C2372 0.950 . S
H2365 C2377 0.950 . S
H2366 C2374 0.950 . S
H2367 C2376 0.950 . S
H2368 C2378 0.950 . S
H2369 C2380 0.950 . S
H2370 C2382 0.950 . S
H2371 C2383 0.950 . S
C2372 H2364 0.950 . S
C2372 C2373 1.386 . S
C2372 C2374 1.391 . S
C2373 C2372 1.386 . S
C2373 C2377 1.393 . S
C2374 H2366 0.950 . S
C2374 C2372 1.391 . S
C2374 C2375 1.400 . S
C2375 C2374 1.400 . S
C2375 C2376 1.398 . S
C2375 C2381 1.491 . S
C2376 H2367 0.950 . S
C2376 C2375 1.398 . S
C2376 C2377 1.391 . S
C2377 H2365 0.950 . S
C2377 C2373 1.393 . S
C2377 C2376 1.391 . S
C2378 H2368 0.950 . S
C2378 C2379 1.386 . S
C2378 C2380 1.391 . S
C2379 C2378 1.386 . S
C2379 C2383 1.393 . S
C2380 H2369 0.950 . S
C2380 C2378 1.391 . S
C2380 C2381 1.400 . S
C2381 C2375 1.491 . S
C2381 C2380 1.400 . S
C2381 C2382 1.398 . S
C2382 H2370 0.950 . S
C2382 C2381 1.398 . S
C2382 C2383 1.391 . S
C2383 H2371 0.950 . S
C2383 C2379 1.393 . S
C2383 C2382 1.391 . S
H2384 C2392 0.950 . S
H2385 C2397 0.950 . S
H2386 C2394 0.950 . S
H2387 C2396 0.950 . S
H2388 C2398 0.950 . S
H2389 C2400 0.950 . S
H2390 C2402 0.950 . S
H2391 C2403 0.950 . S
C2392 H2384 0.950 . S
C2392 C2393 1.386 . S
C2392 C2394 1.391 . S
C2393 C2392 1.386 . S
C2393 C2397 1.393 . S
C2394 H2386 0.950 . S
C2394 C2392 1.391 . S
C2394 C2395 1.400 . S
C2395 C2394 1.400 . S
C2395 C2396 1.398 . S
C2395 C2401 1.491 . S
C2396 H2387 0.950 . S
C2396 C2395 1.398 . S
C2396 C2397 1.391 . S
C2397 H2385 0.950 . S
C2397 C2393 1.393 . S
C2397 C2396 1.391 . S
C2398 H2388 0.950 . S
C2398 C2399 1.386 . S
C2398 C2400 1.391 . S
C2399 C2398 1.386 . S
C2399 C2403 1.393 . S
C2400 H2389 0.950 . S
C2400 C2398 1.391 . S
C2400 C2401 1.400 . S
C2401 C2395 1.491 . S
C2401 C2400 1.400 . S
C2401 C2402 1.398 . S
C2402 H2390 0.950 . S
C2402 C2401 1.398 . S
C2402 C2403 1.391 . S
C2403 H2391 0.950 . S
C2403 C2399 1.393 . S
C2403 C2402 1.391 . S
H2404 C2412 0.950 . S
H2405 C2417 0.950 . S
H2406 C2414 0.950 . S
H2407 C2416 0.950 . S
H2408 C2418 0.950 . S
H2409 C2420 0.950 . S
H2410 C2422 0.950 . S
H2411 C2423 0.950 . S
C2412 H2404 0.950 . S
C2412 C2413 1.386 . S
C2412 C2414 1.391 . S
C2413 C2412 1.386 . S
C2413 C2417 1.393 . S
C2414 H2406 0.950 . S
C2414 C2412 1.391 . S
C2414 C2415 1.400 . S
C2415 C2414 1.400 . S
C2415 C2416 1.398 . S
C2415 C2421 1.491 . S
C2416 H2407 0.950 . S
C2416 C2415 1.398 . S
C2416 C2417 1.391 . S
C2417 H2405 0.950 . S
C2417 C2413 1.393 . S
C2417 C2416 1.391 . S
C2418 H2408 0.950 . S
C2418 C2419 1.386 . S
C2418 C2420 1.391 . S
C2419 C2418 1.386 . S
C2419 C2423 1.393 . S
C2420 H2409 0.950 . S
C2420 C2418 1.391 . S
C2420 C2421 1.400 . S
C2421 C2415 1.491 . S
C2421 C2420 1.400 . S
C2421 C2422 1.398 . S
C2422 H2410 0.950 . S
C2422 C2421 1.398 . S
C2422 C2423 1.391 . S
C2423 H2411 0.950 . S
C2423 C2419 1.393 . S
C2423 C2422 1.391 . S
H2424 C2432 0.950 . S
H2425 C2437 0.950 . S
H2426 C2434 0.950 . S
H2427 C2436 0.950 . S
H2428 C2438 0.950 . S
H2429 C2440 0.950 . S
H2430 C2442 0.950 . S
H2431 C2443 0.950 . S
C2432 H2424 0.950 . S
C2432 C2433 1.386 . S
C2432 C2434 1.391 . S
C2433 C2432 1.386 . S
C2433 C2437 1.393 . S
C2434 H2426 0.950 . S
C2434 C2432 1.391 . S
C2434 C2435 1.400 . S
C2435 C2434 1.400 . S
C2435 C2436 1.398 . S
C2435 C2441 1.491 . S
C2436 H2427 0.950 . S
C2436 C2435 1.398 . S
C2436 C2437 1.391 . S
C2437 H2425 0.950 . S
C2437 C2433 1.393 . S
C2437 C2436 1.391 . S
C2438 H2428 0.950 . S
C2438 C2439 1.386 . S
C2438 C2440 1.391 . S
C2439 C2438 1.386 . S
C2439 C2443 1.393 . S
C2440 H2429 0.950 . S
C2440 C2438 1.391 . S
C2440 C2441 1.400 . S
C2441 C2435 1.491 . S
C2441 C2440 1.400 . S
C2441 C2442 1.398 . S
C2442 H2430 0.950 . S
C2442 C2441 1.398 . S
C2442 C2443 1.391 . S
C2443 H2431 0.950 . S
C2443 C2439 1.393 . S
C2443 C2442 1.391 . S
H2444 C2452 0.950 . S
H2445 C2457 0.950 . S
H2446 C2454 0.950 . S
H2447 C2456 0.950 . S
H2448 C2458 0.950 . S
H2449 C2460 0.950 . S
H2450 C2462 0.950 . S
H2451 C2463 1.001 . S
C2452 H2444 0.950 . S
C2452 C2453 1.386 . S
C2452 C2454 1.391 . S
C2453 C2452 1.386 . S
C2453 C2457 1.393 . S
C2454 H2446 0.950 . S
C2454 C2452 1.391 . S
C2454 C2455 1.400 . S
C2455 C2454 1.400 . S
C2455 C2456 1.398 . S
C2455 C2461 1.491 . S
C2456 H2447 0.950 . S
C2456 C2455 1.398 . S
C2456 C2457 1.391 . S
C2457 H2445 0.950 . S
C2457 C2453 1.393 . S
C2457 C2456 1.391 . S
C2458 H2448 0.950 . S
C2458 C2459 1.386 . S
C2458 C2460 1.391 . S
C2459 C2458 1.386 . S
C2459 C2463 1.393 . S
C2460 H2449 0.950 . S
C2460 C2458 1.391 . S
C2460 C2461 1.400 . S
C2461 C2455 1.491 . S
C2461 C2460 1.400 . S
C2461 C2462 1.398 . S
C2462 H2450 0.950 . S
C2462 C2461 1.398 . S
C2462 C2463 1.391 . S
C2463 H2451 1.001 . S
C2463 C2459 1.393 . S
C2463 C2462 1.391 . S
H2464 C2472 0.950 . S
H2465 C2477 0.950 . S
H2466 C2474 0.950 . S
H2467 C2476 0.950 . S
H2468 C2478 0.950 . S
H2469 C2480 0.950 . S
H2470 C2482 0.950 . S
H2471 C2483 0.950 . S
C2472 H2464 0.950 . S
C2472 C2473 1.386 . S
C2472 C2474 1.391 . S
C2473 C2472 1.386 . S
C2473 C2477 1.393 . S
C2474 H2466 0.950 . S
C2474 C2472 1.391 . S
C2474 C2475 1.400 . S
C2475 C2474 1.400 . S
C2475 C2476 1.398 . S
C2475 C2481 1.491 . S
C2476 H2467 0.950 . S
C2476 C2475 1.398 . S
C2476 C2477 1.391 . S
C2477 H2465 0.950 . S
C2477 C2473 1.393 . S
C2477 C2476 1.391 . S
C2478 H2468 0.950 . S
C2478 C2479 1.386 . S
C2478 C2480 1.391 . S
C2479 C2478 1.386 . S
C2479 C2483 1.393 . S
C2480 H2469 0.950 . S
C2480 C2478 1.391 . S
C2480 C2481 1.400 . S
C2481 C2475 1.491 . S
C2481 C2480 1.400 . S
C2481 C2482 1.398 . S
C2482 H2470 0.950 . S
C2482 C2481 1.398 . S
C2482 C2483 1.391 . S
C2483 H2471 0.950 . S
C2483 C2479 1.393 . S
C2483 C2482 1.391 . S
H2484 C2492 0.950 . S
H2485 C2497 0.950 . S
H2486 C2494 0.950 . S
H2487 C2496 0.950 . S
H2488 C2498 1.006 . S
H2489 C2500 0.950 . S
H2490 C2502 0.950 . S
H2491 C2503 0.950 . S
C2492 H2484 0.950 . S
C2492 C2493 1.386 . S
C2492 C2494 1.391 . S
C2493 C2492 1.386 . S
C2493 C2497 1.393 . S
C2494 H2486 0.950 . S
C2494 C2492 1.391 . S
C2494 C2495 1.400 . S
C2495 C2494 1.400 . S
C2495 C2496 1.398 . S
C2495 C2501 1.491 . S
C2496 H2487 0.950 . S
C2496 C2495 1.398 . S
C2496 C2497 1.391 . S
C2497 H2485 0.950 . S
C2497 C2493 1.393 . S
C2497 C2496 1.391 . S
C2498 H2488 1.006 . S
C2498 C2499 1.382 1_554 S
C2498 C2500 1.342 1_554 S
C2499 C2498 1.382 1_556 S
C2499 C2503 1.393 . S
C2500 H2489 0.950 . S
C2500 C2498 1.342 1_556 S
C2500 C2501 1.400 . S
C2501 C2495 1.491 . S
C2501 C2500 1.400 . S
C2501 C2502 1.398 . S
C2502 H2490 0.950 . S
C2502 C2501 1.398 . S
C2502 C2503 1.391 . S
C2503 H2491 0.950 . S
C2503 C2499 1.393 . S
C2503 C2502 1.391 . S
H2504 C2512 0.950 . S
H2505 C2517 0.950 . S
H2506 C2514 0.950 . S
H2507 C2516 0.950 . S
H2508 C2518 0.950 . S
H2509 C2520 0.950 . S
H2510 C2522 0.950 . S
H2511 C2523 0.950 . S
C2512 H2504 0.950 . S
C2512 C2513 1.386 . S
C2512 C2514 1.391 . S
C2513 C2512 1.386 . S
C2513 C2517 1.393 . S
C2514 H2506 0.950 . S
C2514 C2512 1.391 . S
C2514 C2515 1.400 . S
C2515 C2514 1.400 . S
C2515 C2516 1.398 . S
C2515 C2521 1.491 . S
C2516 H2507 0.950 . S
C2516 C2515 1.398 . S
C2516 C2517 1.391 . S
C2517 H2505 0.950 . S
C2517 C2513 1.393 . S
C2517 C2516 1.391 . S
C2518 H2508 0.950 . S
C2518 C2519 1.386 . S
C2518 C2520 1.391 . S
C2519 C2518 1.386 . S
C2519 C2523 1.393 . S
C2520 H2509 0.950 . S
C2520 C2518 1.391 . S
C2520 C2521 1.400 . S
C2521 C2515 1.491 . S
C2521 C2520 1.400 . S
C2521 C2522 1.398 . S
C2522 H2510 0.950 . S
C2522 C2521 1.398 . S
C2522 C2523 1.391 . S
C2523 H2511 0.950 . S
C2523 C2519 1.393 . S
C2523 C2522 1.391 . S
H2524 C2532 0.950 . S
H2525 C2537 0.950 . S
H2526 C2534 0.950 . S
H2527 C2536 0.950 . S
H2528 C2538 0.950 . S
H2529 C2540 0.950 . S
H2530 C2542 0.950 . S
H2531 C2543 0.950 . S
C2532 H2524 0.950 . S
C2532 C2533 1.386 . S
C2532 C2534 1.391 . S
C2533 C2532 1.386 . S
C2533 C2537 1.393 . S
C2534 H2526 0.950 . S
C2534 C2532 1.391 . S
C2534 C2535 1.400 . S
C2535 C2534 1.400 . S
C2535 C2536 1.398 . S
C2535 C2541 1.491 . S
C2536 H2527 0.950 . S
C2536 C2535 1.398 . S
C2536 C2537 1.391 . S
C2537 H2525 0.950 . S
C2537 C2533 1.393 . S
C2537 C2536 1.391 . S
C2538 H2528 0.950 . S
C2538 C2539 1.386 . S
C2538 C2540 1.391 . S
C2539 C2538 1.386 . S
C2539 C2543 1.393 . S
C2540 H2529 0.950 . S
C2540 C2538 1.391 . S
C2540 C2541 1.400 . S
C2541 C2535 1.491 . S
C2541 C2540 1.400 . S
C2541 C2542 1.398 . S
C2542 H2530 0.950 . S
C2542 C2541 1.398 . S
C2542 C2543 1.391 . S
C2543 H2531 0.950 . S
C2543 C2539 1.393 . S
C2543 C2542 1.391 . S
H2544 C2552 0.950 . S
H2545 C2557 0.950 . S
H2546 C2554 0.950 . S
H2547 C2556 0.950 . S
H2548 C2558 0.950 . S
H2549 C2560 0.950 . S
H2550 C2562 0.950 . S
H2551 C2563 0.950 . S
C2552 H2544 0.950 . S
C2552 C2553 1.386 . S
C2552 C2554 1.391 . S
C2553 C2552 1.386 . S
C2553 C2557 1.393 . S
C2554 H2546 0.950 . S
C2554 C2552 1.391 . S
C2554 C2555 1.400 . S
C2555 C2554 1.400 . S
C2555 C2556 1.398 . S
C2555 C2561 1.491 . S
C2556 H2547 0.950 . S
C2556 C2555 1.398 . S
C2556 C2557 1.391 . S
C2557 H2545 0.950 . S
C2557 C2553 1.393 . S
C2557 C2556 1.391 . S
C2558 H2548 0.950 . S
C2558 C2559 1.386 . S
C2558 C2560 1.391 . S
C2559 C2558 1.386 . S
C2559 C2563 1.393 . S
C2560 H2549 0.950 . S
C2560 C2558 1.391 . S
C2560 C2561 1.400 . S
C2561 C2555 1.491 . S
C2561 C2560 1.400 . S
C2561 C2562 1.398 . S
C2562 H2550 0.950 . S
C2562 C2561 1.398 . S
C2562 C2563 1.391 . S
C2563 H2551 0.950 . S
C2563 C2559 1.393 . S
C2563 C2562 1.391 . S
H2564 C2572 0.950 . S
H2565 C2577 0.950 . S
H2566 C2574 0.950 . S
H2567 C2576 0.950 . S
H2568 C2578 0.950 . S
H2569 C2580 0.950 . S
H2570 C2582 0.950 . S
H2571 C2583 0.950 . S
C2572 H2564 0.950 . S
C2572 C2573 1.386 . S
C2572 C2574 1.391 . S
C2573 C2572 1.386 . S
C2573 C2577 1.393 . S
C2574 H2566 0.950 . S
C2574 C2572 1.391 . S
C2574 C2575 1.400 . S
C2575 C2574 1.400 . S
C2575 C2576 1.398 . S
C2575 C2581 1.491 . S
C2576 H2567 0.950 . S
C2576 C2575 1.398 . S
C2576 C2577 1.391 . S
C2577 H2565 0.950 . S
C2577 C2573 1.393 . S
C2577 C2576 1.391 . S
C2578 H2568 0.950 . S
C2578 C2579 1.386 . S
C2578 C2580 1.391 . S
C2579 C2578 1.386 . S
C2579 C2583 1.393 . S
C2580 H2569 0.950 . S
C2580 C2578 1.391 . S
C2580 C2581 1.400 . S
C2581 C2575 1.491 . S
C2581 C2580 1.400 . S
C2581 C2582 1.398 . S
C2582 H2570 0.950 . S
C2582 C2581 1.398 . S
C2582 C2583 1.391 . S
C2583 H2571 0.950 . S
C2583 C2579 1.393 . S
C2583 C2582 1.391 . S
H2584 C2592 0.950 . S
H2585 C2597 0.950 . S
H2586 C2594 0.950 . S
H2587 C2596 0.950 . S
H2588 C2598 0.950 . S
H2589 C2600 0.950 . S
H2590 C2602 0.950 . S
H2591 C2603 0.950 . S
C2592 H2584 0.950 . S
C2592 C2593 1.386 . S
C2592 C2594 1.391 . S
C2593 C2592 1.386 . S
C2593 C2597 1.393 . S
C2594 H2586 0.950 . S
C2594 C2592 1.391 . S
C2594 C2595 1.400 . S
C2595 C2594 1.400 . S
C2595 C2596 1.398 . S
C2595 C2601 1.491 . S
C2596 H2587 0.950 . S
C2596 C2595 1.398 . S
C2596 C2597 1.391 . S
C2597 H2585 0.950 . S
C2597 C2593 1.393 . S
C2597 C2596 1.391 . S
C2598 H2588 0.950 . S
C2598 C2599 1.386 . S
C2598 C2600 1.391 . S
C2599 C2598 1.386 . S
C2599 C2603 1.393 . S
C2600 H2589 0.950 . S
C2600 C2598 1.391 . S
C2600 C2601 1.400 . S
C2601 C2595 1.491 . S
C2601 C2600 1.400 . S
C2601 C2602 1.398 . S
C2602 H2590 0.950 . S
C2602 C2601 1.398 . S
C2602 C2603 1.391 . S
C2603 H2591 0.950 . S
C2603 C2599 1.393 . S
C2603 C2602 1.391 . S
H2604 C2612 0.950 . S
H2605 C2617 0.950 . S
H2606 C2614 0.950 . S
H2607 C2616 0.950 . S
H2608 C2618 0.950 . S
H2609 C2620 0.950 . S
H2610 C2622 0.950 . S
H2611 C2623 0.950 . S
C2612 H2604 0.950 . S
C2612 C2613 1.386 . S
C2612 C2614 1.391 . S
C2613 C2612 1.386 . S
C2613 C2617 1.393 . S
C2614 H2606 0.950 . S
C2614 C2612 1.391 . S
C2614 C2615 1.400 . S
C2615 C2614 1.400 . S
C2615 C2616 1.398 . S
C2615 C2621 1.491 . S
C2616 H2607 0.950 . S
C2616 C2615 1.398 . S
C2616 C2617 1.391 . S
C2617 H2605 0.950 . S
C2617 C2613 1.393 . S
C2617 C2616 1.391 . S
C2618 H2608 0.950 . S
C2618 C2619 1.386 . S
C2618 C2620 1.391 . S
C2619 C2618 1.386 . S
C2619 C2623 1.393 . S
C2620 H2609 0.950 . S
C2620 C2618 1.391 . S
C2620 C2621 1.400 . S
C2621 C2615 1.491 . S
C2621 C2620 1.400 . S
C2621 C2622 1.398 . S
C2622 H2610 0.950 . S
C2622 C2621 1.398 . S
C2622 C2623 1.391 . S
C2623 H2611 0.950 . S
C2623 C2619 1.393 . S
C2623 C2622 1.391 . S
H2624 C2632 0.950 . S
H2625 C2637 0.950 . S
H2626 C2634 0.950 . S
H2627 C2636 0.950 . S
H2628 C2638 0.950 . S
H2629 C2640 0.950 . S
H2630 C2642 0.950 . S
H2631 C2643 0.950 . S
C2632 H2624 0.950 . S
C2632 C2633 1.386 . S
C2632 C2634 1.391 . S
C2633 C2632 1.386 . S
C2633 C2637 1.393 . S
C2634 H2626 0.950 . S
C2634 C2632 1.391 . S
C2634 C2635 1.400 . S
C2635 C2634 1.400 . S
C2635 C2636 1.398 . S
C2635 C2641 1.491 . S
C2636 H2627 0.950 . S
C2636 C2635 1.398 . S
C2636 C2637 1.391 . S
C2637 H2625 0.950 . S
C2637 C2633 1.393 . S
C2637 C2636 1.391 . S
C2638 H2628 0.950 . S
C2638 C2639 1.386 . S
C2638 C2640 1.391 . S
C2639 C2638 1.386 . S
C2639 C2643 1.393 . S
C2640 H2629 0.950 . S
C2640 C2638 1.391 . S
C2640 C2641 1.400 . S
C2641 C2635 1.491 . S
C2641 C2640 1.400 . S
C2641 C2642 1.398 . S
C2642 H2630 0.950 . S
C2642 C2641 1.398 . S
C2642 C2643 1.391 . S
C2643 H2631 0.950 . S
C2643 C2639 1.393 . S
C2643 C2642 1.391 . S
H2644 C2652 0.950 . S
H2645 C2657 0.950 . S
H2646 C2654 0.950 . S
H2647 C2656 0.950 . S
H2648 C2658 0.950 . S
H2649 C2660 0.950 . S
H2650 C2662 0.950 . S
H2651 C2663 0.950 . S
C2652 H2644 0.950 . S
C2652 C2653 1.386 . S
C2652 C2654 1.391 . S
C2653 C2652 1.386 . S
C2653 C2657 1.393 . S
C2654 H2646 0.950 . S
C2654 C2652 1.391 . S
C2654 C2655 1.400 . S
C2655 C2654 1.400 . S
C2655 C2656 1.398 . S
C2655 C2661 1.491 . S
C2656 H2647 0.950 . S
C2656 C2655 1.398 . S
C2656 C2657 1.391 . S
C2657 H2645 0.950 . S
C2657 C2653 1.393 . S
C2657 C2656 1.391 . S
C2658 H2648 0.950 . S
C2658 C2659 1.386 . S
C2658 C2660 1.391 . S
C2659 C2658 1.386 . S
C2659 C2663 1.393 . S
C2660 H2649 0.950 . S
C2660 C2658 1.391 . S
C2660 C2661 1.400 . S
C2661 C2655 1.491 . S
C2661 C2660 1.400 . S
C2661 C2662 1.398 . S
C2662 H2650 0.950 . S
C2662 C2661 1.398 . S
C2662 C2663 1.391 . S
C2663 H2651 0.950 . S
C2663 C2659 1.393 . S
C2663 C2662 1.391 . S
H2664 C2672 0.950 . S
H2665 C2677 0.950 . S
H2666 C2674 0.950 . S
H2667 C2676 0.950 . S
H2668 C2678 0.950 . S
H2669 C2680 0.950 . S
H2670 C2682 0.950 . S
H2671 C2683 0.950 . S
C2672 H2664 0.950 . S
C2672 C2673 1.386 . S
C2672 C2674 1.391 . S
C2673 C2672 1.386 . S
C2673 C2677 1.393 . S
C2674 H2666 0.950 . S
C2674 C2672 1.391 . S
C2674 C2675 1.400 . S
C2675 C2674 1.400 . S
C2675 C2676 1.398 . S
C2675 C2681 1.491 . S
C2676 H2667 0.950 . S
C2676 C2675 1.398 . S
C2676 C2677 1.391 . S
C2677 H2665 0.950 . S
C2677 C2673 1.393 . S
C2677 C2676 1.391 . S
C2678 H2668 0.950 . S
C2678 C2679 1.386 . S
C2678 C2680 1.391 . S
C2679 C2678 1.386 . S
C2679 C2683 1.393 . S
C2680 H2669 0.950 . S
C2680 C2678 1.391 . S
C2680 C2681 1.400 . S
C2681 C2675 1.491 . S
C2681 C2680 1.400 . S
C2681 C2682 1.398 . S
C2682 H2670 0.950 . S
C2682 C2681 1.398 . S
C2682 C2683 1.391 . S
C2683 H2671 0.950 . S
C2683 C2679 1.393 . S
C2683 C2682 1.391 . S
H2684 C2692 0.950 . S
H2685 C2697 0.950 . S
H2686 C2694 0.950 . S
H2687 C2696 0.950 . S
H2688 C2698 0.950 . S
H2689 C2700 0.950 . S
H2690 C2702 0.950 . S
H2691 C2703 0.950 . S
C2692 H2684 0.950 . S
C2692 C2693 1.386 . S
C2692 C2694 1.391 . S
C2693 C2692 1.386 . S
C2693 C2697 1.393 . S
C2694 H2686 0.950 . S
C2694 C2692 1.391 . S
C2694 C2695 1.400 . S
C2695 C2694 1.400 . S
C2695 C2696 1.398 . S
C2695 C2701 1.491 . S
C2696 H2687 0.950 . S
C2696 C2695 1.398 . S
C2696 C2697 1.391 . S
C2697 H2685 0.950 . S
C2697 C2693 1.393 . S
C2697 C2696 1.391 . S
C2698 H2688 0.950 . S
C2698 C2699 1.386 . S
C2698 C2700 1.391 . S
C2699 C2698 1.386 . S
C2699 C2703 1.393 . S
C2700 H2689 0.950 . S
C2700 C2698 1.391 . S
C2700 C2701 1.400 . S
C2701 C2695 1.491 . S
C2701 C2700 1.400 . S
C2701 C2702 1.398 . S
C2702 H2690 0.950 . S
C2702 C2701 1.398 . S
C2702 C2703 1.391 . S
C2703 H2691 0.950 . S
C2703 C2699 1.393 . S
C2703 C2702 1.391 . S
H2704 C2712 0.950 . S
H2705 C2717 0.950 . S
H2706 C2714 0.950 . S
H2707 C2716 0.950 . S
H2708 C2718 0.950 . S
H2709 C2720 0.950 . S
H2710 C2722 0.950 . S
H2711 C2723 0.950 . S
C2712 H2704 0.950 . S
C2712 C2713 1.386 . S
C2712 C2714 1.391 . S
C2713 C2712 1.386 . S
C2713 C2717 1.393 . S
C2714 H2706 0.950 . S
C2714 C2712 1.391 . S
C2714 C2715 1.400 . S
C2715 C2714 1.400 . S
C2715 C2716 1.398 . S
C2715 C2721 1.491 . S
C2716 H2707 0.950 . S
C2716 C2715 1.398 . S
C2716 C2717 1.391 . S
C2717 H2705 0.950 . S
C2717 C2713 1.393 . S
C2717 C2716 1.391 . S
C2718 H2708 0.950 . S
C2718 C2719 1.386 . S
C2718 C2720 1.391 . S
C2719 C2718 1.386 . S
C2719 C2723 1.393 . S
C2720 H2709 0.950 . S
C2720 C2718 1.391 . S
C2720 C2721 1.400 . S
C2721 C2715 1.491 . S
C2721 C2720 1.400 . S
C2721 C2722 1.398 . S
C2722 H2710 0.950 . S
C2722 C2721 1.398 . S
C2722 C2723 1.391 . S
C2723 H2711 0.950 . S
C2723 C2719 1.393 . S
C2723 C2722 1.391 . S
H2724 C2732 0.950 . S
H2725 C2737 0.950 . S
H2726 C2734 0.950 . S
H2727 C2736 0.950 . S
H2728 C2738 0.950 . S
H2729 C2740 0.950 . S
H2730 C2742 0.950 . S
H2731 C2743 0.950 . S
C2732 H2724 0.950 . S
C2732 C2733 1.386 . S
C2732 C2734 1.391 . S
C2733 C2732 1.386 . S
C2733 C2737 1.393 . S
C2734 H2726 0.950 . S
C2734 C2732 1.391 . S
C2734 C2735 1.400 . S
C2735 C2734 1.400 . S
C2735 C2736 1.398 . S
C2735 C2741 1.491 . S
C2736 H2727 0.950 . S
C2736 C2735 1.398 . S
C2736 C2737 1.391 . S
C2737 H2725 0.950 . S
C2737 C2733 1.393 . S
C2737 C2736 1.391 . S
C2738 H2728 0.950 . S
C2738 C2739 1.386 . S
C2738 C2740 1.391 . S
C2739 C2738 1.386 . S
C2739 C2743 1.393 . S
C2740 H2729 0.950 . S
C2740 C2738 1.391 . S
C2740 C2741 1.400 . S
C2741 C2735 1.491 . S
C2741 C2740 1.400 . S
C2741 C2742 1.398 . S
C2742 H2730 0.950 . S
C2742 C2741 1.398 . S
C2742 C2743 1.391 . S
C2743 H2731 0.950 . S
C2743 C2739 1.393 . S
C2743 C2742 1.391 . S
H2744 C2752 0.950 . S
H2745 C2757 0.950 . S
H2746 C2754 0.950 . S
H2747 C2756 0.950 . S
H2748 C2758 0.950 . S
H2749 C2760 0.950 . S
H2750 C2762 0.950 . S
H2751 C2763 0.950 . S
C2752 H2744 0.950 . S
C2752 C2753 1.386 . S
C2752 C2754 1.391 . S
C2753 C2752 1.386 . S
C2753 C2757 1.393 . S
C2754 H2746 0.950 . S
C2754 C2752 1.391 . S
C2754 C2755 1.400 . S
C2755 C2754 1.400 . S
C2755 C2756 1.398 . S
C2755 C2761 1.491 . S
C2756 H2747 0.950 . S
C2756 C2755 1.398 . S
C2756 C2757 1.391 . S
C2757 H2745 0.950 . S
C2757 C2753 1.393 . S
C2757 C2756 1.391 . S
C2758 H2748 0.950 . S
C2758 C2759 1.386 . S
C2758 C2760 1.391 . S
C2759 C2758 1.386 . S
C2759 C2763 1.393 . S
C2760 H2749 0.950 . S
C2760 C2758 1.391 . S
C2760 C2761 1.400 . S
C2761 C2755 1.491 . S
C2761 C2760 1.400 . S
C2761 C2762 1.398 . S
C2762 H2750 0.950 . S
C2762 C2761 1.398 . S
C2762 C2763 1.391 . S
C2763 H2751 0.950 . S
C2763 C2759 1.393 . S
C2763 C2762 1.391 . S
H2764 C2772 0.950 . S
H2765 C2777 0.950 . S
H2766 C2774 0.950 . S
H2767 C2776 0.950 . S
H2768 C2778 0.950 . S
H2769 C2780 0.950 . S
H2770 C2782 0.950 . S
H2771 C2783 0.950 . S
C2772 H2764 0.950 . S
C2772 C2773 1.386 . S
C2772 C2774 1.391 . S
C2773 C2772 1.386 . S
C2773 C2777 1.393 . S
C2774 H2766 0.950 . S
C2774 C2772 1.391 . S
C2774 C2775 1.400 . S
C2775 C2774 1.400 . S
C2775 C2776 1.398 . S
C2775 C2781 1.491 . S
C2776 H2767 0.950 . S
C2776 C2775 1.398 . S
C2776 C2777 1.391 . S
C2777 H2765 0.950 . S
C2777 C2773 1.393 . S
C2777 C2776 1.391 . S
C2778 H2768 0.950 . S
C2778 C2779 1.386 . S
C2778 C2780 1.391 . S
C2779 C2778 1.386 . S
C2779 C2783 1.393 . S
C2780 H2769 0.950 . S
C2780 C2778 1.391 . S
C2780 C2781 1.400 . S
C2781 C2775 1.491 . S
C2781 C2780 1.400 . S
C2781 C2782 1.398 . S
C2782 H2770 0.950 . S
C2782 C2781 1.398 . S
C2782 C2783 1.391 . S
C2783 H2771 0.950 . S
C2783 C2779 1.393 . S
C2783 C2782 1.391 . S
H2784 C2792 0.950 . S
H2785 C2797 0.950 . S
H2786 C2794 0.950 . S
H2787 C2796 0.950 . S
H2788 C2798 0.950 . S
H2789 C2800 0.950 . S
H2790 C2802 0.950 . S
H2791 C2803 0.950 . S
C2792 H2784 0.950 . S
C2792 C2793 1.386 . S
C2792 C2794 1.391 . S
C2793 C2792 1.386 . S
C2793 C2797 1.393 . S
C2794 H2786 0.950 . S
C2794 C2792 1.391 . S
C2794 C2795 1.400 . S
C2795 C2794 1.400 . S
C2795 C2796 1.398 . S
C2795 C2801 1.491 . S
C2796 H2787 0.950 . S
C2796 C2795 1.398 . S
C2796 C2797 1.391 . S
C2797 H2785 0.950 . S
C2797 C2793 1.393 . S
C2797 C2796 1.391 . S
C2798 H2788 0.950 . S
C2798 C2799 1.386 . S
C2798 C2800 1.391 . S
C2799 C2798 1.386 . S
C2799 C2803 1.393 . S
C2800 H2789 0.950 . S
C2800 C2798 1.391 . S
C2800 C2801 1.400 . S
C2801 C2795 1.491 . S
C2801 C2800 1.400 . S
C2801 C2802 1.398 . S
C2802 H2790 0.950 . S
C2802 C2801 1.398 . S
C2802 C2803 1.391 . S
C2803 H2791 0.950 . S
C2803 C2799 1.393 . S
C2803 C2802 1.391 . S
H2804 C2812 0.950 . S
H2805 C2817 0.950 . S
H2806 C2814 0.950 . S
H2807 C2816 0.950 . S
H2808 C2818 0.950 . S
H2809 C2820 0.950 . S
H2810 C2822 0.950 . S
H2811 C2823 0.950 . S
C2812 H2804 0.950 . S
C2812 C2813 1.386 . S
C2812 C2814 1.391 . S
C2813 C2812 1.386 . S
C2813 C2817 1.393 . S
C2814 H2806 0.950 . S
C2814 C2812 1.391 . S
C2814 C2815 1.400 . S
C2815 C2814 1.400 . S
C2815 C2816 1.398 . S
C2815 C2821 1.491 . S
C2816 H2807 0.950 . S
C2816 C2815 1.398 . S
C2816 C2817 1.391 . S
C2817 H2805 0.950 . S
C2817 C2813 1.393 . S
C2817 C2816 1.391 . S
C2818 H2808 0.950 . S
C2818 C2819 1.386 . S
C2818 C2820 1.391 . S
C2819 C2818 1.386 . S
C2819 C2823 1.393 . S
C2820 H2809 0.950 . S
C2820 C2818 1.391 . S
C2820 C2821 1.400 . S
C2821 C2815 1.491 . S
C2821 C2820 1.400 . S
C2821 C2822 1.398 . S
C2822 H2810 0.950 . S
C2822 C2821 1.398 . S
C2822 C2823 1.391 . S
C2823 H2811 0.950 . S
C2823 C2819 1.393 . S
C2823 C2822 1.391 . S
C919 N364 1.931 . S
C913 C7 1.913 . S
C939 C391 1.461 . S
C933 C19 1.450 . S
C953 C29 1.817 . S
C959 C405 1.849 . S
C979 N423 1.111 . S
C973 C41 1.108 . S
C993 C52 1.516 . S
C999 C428 1.510 . S
C1013 C62 1.600 . S
C1019 C368 1.627 . S
C1033 C73 1.110 . S
C1039 N387 1.108 . S
C1059 N400 1.753 1_556 S
C1053 C82 1.563 . S
C1079 N446 1.755 . S
C1073 C5 1.508 . S
C1093 C16 1.464 . S
C1099 N469 1.623 . S
C1113 C30 1.620 . S
C1119 N492 1.563 1_655 S
C1139 N525 1.149 . S
C1133 C40 1.149 . S
C1153 C49 1.311 . S
C1159 C552 1.467 . S
C1179 C575 1.494 . S
C1173 C63 1.524 . S
C1193 C74 1.101 . S
C1199 C598 1.127 . S
C1219 C612 1.572 1_565 S
C1213 C85 1.541 . S
C1233 C8 1.610 . S
C1239 C529 1.626 . S
C1253 C51 1.567 . S
C1259 N571 1.573 . S
C1279 N594 1.728 . S
C1273 C60 1.607 . S
C1293 C71 1.023 . S
C1299 N607 1.191 . S
C1319 N548 1.931 . S
C1313 C84 1.901 . S
C1339 C474 1.635 . S
C1333 C27 1.449 . S
C1353 C38 1.078 . S
C1359 C497 1.203 . S
C1379 C451 1.714 . S
C1373 C18 1.684 . S
C1399 C644 1.977 . S
C1393 C95 1.862 . S
C1413 C107 1.423 . S
C1419 C658 1.432 . S
C1433 C117 1.793 . S
C1439 N686 1.760 . S
C1459 N699 1.176 . S
C1453 C129 1.175 . S
C1473 C140 1.483 . S
C1479 C704 1.476 . S
C1493 C150 1.552 . S
C1499 N640 1.556 . S
C1513 C161 1.190 . S
C1519 N653 1.191 . S
C1533 C170 1.516 . S
C1539 C690 1.799 . S
C1559 N538 1.744 . S
C1553 C93 1.514 . S
C1573 C104 1.447 . S
C1579 N722 1.569 . S
C1599 N584 1.555 . S
C1593 C118 1.644 . S
C1613 C128 1.049 . S
C1619 C759 1.078 . S
C1633 C137 1.321 . S
C1639 C460 1.482 . S
C1659 C773 1.513 . S
C1653 C151 1.511 . S
C1673 C162 1.101 . S
C1679 C506 1.111 . S
C1699 N791 1.493 . S
C1693 C173 1.511 . S
C1713 C96 1.578 . S
C1719 N755 1.565 . S
C1739 N768 1.599 . S
C1733 C139 1.609 . S
C1753 C148 1.512 . S
C1759 N502 1.652 . S
C1779 C796 1.176 . S
C1773 C159 0.990 . S
C1793 C172 1.891 . S
C1799 N456 1.918 . S
C1813 C115 1.408 . S
C1819 C727 1.538 . S
C1833 C126 1.192 . S
C1839 C589 1.343 . S
C1853 C106 1.708 . S
C1859 C543 1.753 . S
C1873 C183 1.959 . S
C1879 C681 2.051 . S
C1899 C713 1.365 . S
C1893 C195 1.366 . S
C1913 C205 1.774 . S
C1919 N630 1.756 . S
C1933 C217 1.114 . S
C1939 N663 1.086 . S
C1953 C228 1.546 . S
C1959 C667 1.539 . S
C1973 C238 1.624 . S
C1979 N676 1.624 . S
C1999 N709 1.095 . S
C1993 C249 1.075 . S
C2013 C258 1.613 . S
C2019 C635 1.867 . S
C2039 N824 1.765 . S
C2033 C181 1.542 . S
C2053 C192 1.377 . S
C2059 N561 1.529 . S
C2079 N847 1.513 . S
C2073 C206 1.525 . S
C2093 C216 1.096 . S
C2099 N617 1.114 . S
C2113 C225 1.333 . S
C2119 C865 1.498 . S
C2133 C239 1.602 . S
C2139 C483 1.577 . S
C2159 N883 1.082 . S
C2153 C250 1.044 . S
C2173 C261 1.602 . S
C2179 C520 1.618 . S
C2199 C621 1.649 . S
C2193 C184 1.634 . S
C2219 N479 1.615 . S
C2213 C227 1.628 . S
C2233 C236 1.673 . S
C2239 C888 1.858 . S
C2253 C247 0.971 . S
C2259 N515 1.119 . S
C2279 N860 2.011 . S
C2273 C260 1.935 . S
C2299 C566 1.517 . S
C2293 C203 1.358 . S
C2319 C851 1.358 . S
C2313 C214 1.189 . S
C2339 C828 1.704 . S
C2333 C194 1.673 . S
C2353 C271 1.794 . S
C2359 N410 1.830 . S
C2373 C283 1.392 . S
C2379 C437 1.386 . S
C2399 C359 1.912 . S
C2393 C293 1.885 . S
C2419 N377 1.077 . S
C2413 C305 1.091 . S
C2439 C382 1.517 . S
C2433 C316 1.522 . S
C2459 C414 1.598 1_556 S
C2453 C326 1.573 . S
C2479 N433 1.225 . S
C2473 C337 1.213 . S
C2493 C346 1.538 . S
C2499 N354 1.803 1_556 S
C2513 C269 1.495 . S
C2519 N870 1.708 . S
C2539 N778 1.573 . S
C2533 C280 1.412 . S
C2559 C897 1.727 . S
C2553 C294 1.755 . S
C2579 C805 1.007 . S
C2573 C304 0.994 . S
C2593 C313 1.319 . S
C2599 C819 1.495 . S
C2619 C736 1.499 . S
C2613 C327 1.515 . S
C2639 C842 1.228 . S
C2633 C338 1.240 . S
C2653 C349 1.530 . S
C2659 N745 1.515 . S
C2679 N801 1.486 . S
C2673 C272 1.502 . S
C2699 N732 1.578 . S
C2693 C315 1.557 . S
C2719 N837 1.586 . S
C2713 C324 1.483 . S
C2733 C335 1.076 . S
C2739 C750 1.223 . S
C2753 C348 1.875 . S
C2759 N814 1.935 . S
C2773 C291 1.488 . S
C2779 C782 1.629 . S
C2793 C302 1.106 . S
C2799 N893 1.205 . S
C2819 C874 1.669 . S
C2813 C282 1.640 . S
