# Generated by pormake.
# Topology apo, (3,6)-cn, num edge types: 1
# Building blocks:
#     Node 0, Type 0, BuildingBlock: WUSLED_clean_sbu_0, # of connection points: 3
#     Node 1, Type 0, BuildingBlock: WUSLED_clean_sbu_0, # of connection points: 3
#     Node 2, Type 0, BuildingBlock: WUSLED_clean_sbu_0, # of connection points: 3
#     Node 3, Type 0, BuildingBlock: WUSLED_clean_sbu_0, # of connection points: 3
#     Node 4, Type 0, BuildingBlock: WUSLED_clean_sbu_0, # of connection points: 3
#     Node 5, Type 0, BuildingBlock: WUSLED_clean_sbu_0, # of connection points: 3
#     Node 6, Type 0, BuildingBlock: WUSLED_clean_sbu_0, # of connection points: 3
#     Node 7, Type 0, BuildingBlock: WUSLED_clean_sbu_0, # of connection points: 3
#     Node 8, Type 1, BuildingBlock: MIDCAF_clean_sbu_0, # of connection points: 6
#     Node 9, Type 1, BuildingBlock: MIDCAF_clean_sbu_0, # of connection points: 6
#     Node 10, Type 1, BuildingBlock: MIDCAF_clean_sbu_0, # of connection points: 6
#     Node 11, Type 1, BuildingBlock: MIDCAF_clean_sbu_0, # of connection points: 6
#     Edge 12, Type (0, 1), None
#     Edge 13, Type (0, 1), None
#     Edge 14, Type (0, 1), None
#     Edge 15, Type (0, 1), None
#     Edge 16, Type (0, 1), None
#     Edge 17, Type (0, 1), None
#     Edge 18, Type (0, 1), None
#     Edge 19, Type (0, 1), None
#     Edge 20, Type (0, 1), None
#     Edge 21, Type (0, 1), None
#     Edge 22, Type (0, 1), None
#     Edge 23, Type (0, 1), None
#     Edge 24, Type (0, 1), None
#     Edge 25, Type (0, 1), None
#     Edge 26, Type (0, 1), None
#     Edge 27, Type (0, 1), None
#     Edge 28, Type (0, 1), None
#     Edge 29, Type (0, 1), None
#     Edge 30, Type (0, 1), None
#     Edge 31, Type (0, 1), None
#     Edge 32, Type (0, 1), None
#     Edge 33, Type (0, 1), None
#     Edge 34, Type (0, 1), None
#     Edge 35, Type (0, 1), None
# Relax obj value: 0.080
# Max RMSD: 0.097
# Mean RMSD: 0.088
data_MOF--net-apo--node1-WUSLED_clean_sbu_0--node2-MIDCAF_clean_sbu_0--edge1-none
_symmetry_space_group_name_H-M    P1
_symmetry_Int_Tables_number       1
_symmetry_cell_setting            triclinic
loop_
_symmetry_equiv_pos_as_xyz
'x, y, z'
_cell_length_a     27.208956
_cell_length_b     31.867091
_cell_length_c     23.767723
_cell_angle_alpha  87.915751
_cell_angle_beta   90.948048
_cell_angle_gamma 90.268147
loop_
_atom_site_label
_atom_site_type_symbol
_atom_site_fract_x
_atom_site_fract_y
_atom_site_fract_z
_atom_type_partial_charge
C0 C 0.37012 0.42862 0.37175 0.0
C1 C 0.39928 0.4302 0.42102 0.0
C2 C 0.43211 0.49791 0.39089 0.0
C3 C 0.42961 0.4646 0.43074 0.0
C4 C 0.40549 0.49527 0.33981 0.0
C5 C 0.37427 0.46091 0.33048 0.0
U6 U 0.30276 0.34995 0.45445 0.0
O7 O 0.2269 0.326 0.46028 0.0
O8 O 0.2882 0.2823 0.4482 0.0
C9 C 0.24052 0.28689 0.45374 0.0
C10 C 0.33227 0.39546 0.36803 0.0
C11 C 0.20749 0.25848 0.42271 0.0
C12 C 0.12715 0.2437 0.38039 0.0
C13 C 0.16403 0.27256 0.39521 0.0
C14 C 0.17812 0.18663 0.41697 0.0
C15 C 0.13308 0.20069 0.39381 0.0
C16 C 0.21498 0.21516 0.4309 0.0
C17 C 0.35615 0.35912 0.60753 0.0
C18 C 0.37205 0.30578 0.68086 0.0
C19 C 0.40402 0.37644 0.68995 0.0
C20 C 0.38157 0.38865 0.63911 0.0
C21 C 0.40122 0.33461 0.70965 0.0
C22 C 0.3496 0.31799 0.62949 0.0
C23 C 0.34732 0.36995 0.54816 0.0
O24 O 0.34865 0.35727 0.37934 0.0
O25 O 0.29138 0.40354 0.39439 0.0
O26 O 0.36515 0.34345 0.51283 0.0
O27 O 0.30448 0.38574 0.53255 0.0
H28 H 0.39683 0.40575 0.45346 0.0
H29 H 0.44914 0.46618 0.47073 0.0
H30 H 0.40596 0.52116 0.30899 0.0
H31 H 0.35181 0.46055 0.29246 0.0
H32 H 0.09246 0.25533 0.3633 0.0
H33 H 0.15707 0.30583 0.38872 0.0
H34 H 0.18344 0.15367 0.42818 0.0
H35 H 0.24782 0.20343 0.4525 0.0
H36 H 0.36933 0.27341 0.69611 0.0
H37 H 0.42556 0.39918 0.7125 0.0
H38 H 0.38721 0.42042 0.62249 0.0
H39 H 0.33022 0.29481 0.60523 0.0
C40 C 0.12559 0.19175 0.10699 0.0
C41 C 0.0858 0.16415 0.10296 0.0
C42 C 0.06796 0.17268 0.20166 0.0
C43 C 0.05736 0.15482 0.1495 0.0
C44 C 0.10816 0.20021 0.20628 0.0
C45 C 0.13691 0.20984 0.15878 0.0
U46 U 0.15356 0.1591 0.96226 0.0
O47 O 0.17294 0.19453 0.88447 0.0
O48 O 0.22375 0.14741 0.92112 0.0
C49 C 0.2177 0.17905 0.88463 0.0
C50 C 0.15587 0.19889 1.05709 0.0
C51 C 0.25728 0.21057 0.8858 0.0
C52 C 0.30176 0.2634 0.9372 0.0
C53 C 0.2628 0.23515 0.93319 0.0
C54 C 0.3298 0.24408 0.84543 0.0
C55 C 0.33605 0.26792 0.89375 0.0
C56 C 0.29069 0.21534 0.84165 0.0
C57 C 0.06863 0.06319 0.92296 0.0
C58 C 0.08371 0.00256 0.86658 0.0
C59 C 0.01051 0.00496 0.9229 0.0
C60 C 0.02412 0.04486 0.94032 0.0
C61 C 0.04116 0.98287 0.88768 0.0
C62 C 0.09735 0.04264 0.88396 0.0
C63 C 0.08797 0.09858 0.95496 0.0
O64 O 0.18509 0.16747 1.04696 0.0
O65 O 0.13162 0.21278 1.01187 0.0
O66 O 0.13196 0.09349 0.97775 0.0
O67 O 0.07959 0.13715 0.93571 0.0
H68 H 0.07686 0.14943 1.06366 0.0
H69 H 0.02699 0.13308 0.1444 0.0
H70 H 0.1169 0.21444 0.24593 0.0
H71 H 0.16791 0.23105 0.16247 0.0
H72 H 0.30514 0.28156 0.97474 0.0
H73 H 0.23729 0.23196 0.96765 0.0
H74 H 0.35566 0.24684 0.81133 0.0
H75 H 0.28695 0.1965 0.80479 0.0
H76 H 0.10832 0.98562 0.84023 0.0
H77 H 0.97827 -0.01008 0.94087 0.0
H78 H 0.00182 0.05992 0.97106 0.0
H79 H 0.13202 0.05608 0.87042 0.0
C80 C 0.8733 0.04985 0.77029 0.0
C81 C 0.89953 0.04195 0.72155 0.0
C82 C 0.93479 0.97934 0.76823 0.0
C83 C 0.92996 0.00657 0.72045 0.0
C84 C 0.91075 0.98906 0.81777 0.0
C85 C 0.87997 0.0238 0.81854 0.0
U86 U 0.78215 0.14511 0.73237 0.0
O87 O 0.76725 0.19043 0.79718 0.0
O88 O 0.70911 0.14706 0.77091 0.0
C89 C 0.72107 0.17887 0.80212 0.0
C90 C 0.83649 0.0831 0.77283 0.0
C91 C 0.6852 0.21304 0.80298 0.0
C92 C 0.61175 0.24248 0.84274 0.0
C93 C 0.64698 0.21069 0.84189 0.0
C94 C 0.65377 0.27988 0.76696 0.0
C95 C 0.61471 0.27735 0.80519 0.0
C96 C 0.68862 0.24794 0.76572 0.0
C97 C 0.81824 0.16526 0.57809 0.0
C98 C 0.85959 0.19058 0.49298 0.0
C99 C 0.87515 0.12047 0.53165 0.0
C100 C 0.84224 0.12674 0.57479 0.0
C101 C 0.8854 0.15269 0.49133 0.0
C102 C 0.8259 0.19671 0.53603 0.0
C103 C 0.78861 0.17405 0.62752 0.0
O104 O 0.85129 0.12241 0.77208 0.0
O105 O 0.79354 0.07731 0.74806 0.0
O106 O 0.81325 0.18996 0.66981 0.0
O107 O 0.75742 0.1445 0.64368 0.0
H108 H 0.89493 0.06195 0.68403 0.0
H109 H 0.94788 -0.00063 0.68162 0.0
H110 H 0.91269 0.96807 0.85464 0.0
H111 H 0.85967 0.02938 0.85641 0.0
H112 H 0.58097 0.23878 0.87079 0.0
H113 H 0.64377 0.18377 0.87079 0.0
H114 H 0.65667 0.30611 0.73688 0.0
H115 H 0.71778 0.25022 0.73524 0.0
H116 H 0.86801 0.21637 0.46406 0.0
H117 H 0.89489 0.09099 0.53169 0.0
H118 H 0.83713 0.10214 0.60686 0.0
H119 H 0.80773 0.22678 0.53816 0.0
C120 C 0.64036 0.29632 1.08742 0.0
C121 C 0.61126 0.33214 1.09026 0.0
C122 C 0.57679 0.32037 0.9972 0.0
C123 C 0.58044 0.34422 1.04578 0.0
C124 C 0.6075 0.28523 0.99299 0.0
C125 C 0.63934 0.27322 1.03811 0.0
U126 U 0.66834 0.32019 0.23509 0.0
O127 O 0.68405 0.28324 0.31315 0.0
O128 O 0.73866 0.32847 0.28079 0.0
C129 C 0.72974 0.29685 0.31631 0.0
C130 C 0.67023 0.28435 0.13746 0.0
C131 C 0.76737 0.26374 0.31835 0.0
C132 C 0.79876 0.1995 0.28145 0.0
C133 C 0.7623 0.22985 0.2828 0.0
C134 C 0.84715 0.23667 0.3502 0.0
C135 C 0.84185 0.2026 0.31477 0.0
C136 C 0.80981 0.26687 0.35248 0.0
C137 C 0.58345 0.4158 0.27316 0.0
C138 C 0.59716 0.4808 0.32158 0.0
C139 C 0.51969 0.46916 0.27299 0.0
C140 C 0.53569 0.42934 0.25861 0.0
C141 C 0.5512 0.49588 0.30234 0.0
C142 C 0.61317 0.44088 0.3073 0.0
C143 C 0.60419 0.38118 0.24167 0.0
O144 O 0.70168 0.3135 0.15222 0.0
O145 O 0.64489 0.2691 0.18027 0.0
O146 O 0.64904 0.38654 0.22286 0.0
O147 O 0.59421 0.34216 0.25761 0.0
H148 H 0.61158 0.3505 0.12768 0.0
H149 H 0.55783 0.37172 1.05064 0.0
H150 H 0.60531 0.26609 0.95653 0.0
H151 H 0.66195 0.24554 1.03513 0.0
H152 H 0.79381 0.17417 0.25264 0.0
H153 H 0.73049 0.22724 0.25507 0.0
H154 H 0.88102 0.24109 0.37377 0.0
H155 H 0.81478 0.29334 0.37935 0.0
H156 H 0.6223 0.50124 0.34355 0.0
H157 H 0.48467 0.48053 0.25648 0.0
H158 H 0.51238 0.41072 0.23168 0.0
H159 H 0.65021 0.43119 0.3188 0.0
C160 C 0.58066 0.5544 0.78562 0.0
C161 C 0.55199 0.5472 0.73735 0.0
C162 C 0.52681 0.47901 0.77793 0.0
C163 C 0.52532 0.50953 0.73346 0.0
C164 C 0.55332 0.48773 0.82725 0.0
C165 C 0.58008 0.52497 0.83089 0.0
U166 U 0.66646 0.6535 0.74895 0.0
O167 O 0.74088 0.65443 0.78602 0.0
O168 O 0.68628 0.69989 0.81203 0.0
C169 C 0.73217 0.68723 0.8161 0.0
C170 C 0.61565 0.58945 0.78943 0.0
C171 C 0.77002 0.72007 0.81306 0.0
C172 C 0.8452 0.75038 0.85098 0.0
C173 C 0.80628 0.72165 0.8556 0.0
C174 C 0.81072 0.77709 0.76228 0.0
C175 C 0.84799 0.77828 0.80422 0.0
C176 C 0.77228 0.74808 0.76649 0.0
C177 C 0.62857 0.67373 0.59289 0.0
C178 C 0.61133 0.68917 0.49353 0.0
C179 C 0.56652 0.63391 0.54346 0.0
C180 C 0.59305 0.64183 0.59275 0.0
C181 C 0.57553 0.65737 0.49333 0.0
C182 C 0.6374 0.69752 0.54319 0.0
C183 C 0.6572 0.68225 0.64413 0.0
O184 O 0.65806 0.58556 0.76454 0.0
O185 O 0.59927 0.62824 0.78921 0.0
O186 O 0.68893 0.65312 0.66047 0.0
O187 O 0.63236 0.69711 0.68598 0.0
H188 H 0.552 0.5696 0.702 0.0
H189 H 0.50543 0.50335 0.69477 0.0
H190 H 0.55635 0.46447 0.86151 0.0
H191 H 0.60245 0.52985 0.86827 0.0
H192 H 0.87416 0.7495 0.88247 0.0
H193 H 0.80532 0.69977 0.89154 0.0
H194 H 0.81179 0.79794 0.7253 0.0
H195 H 0.74491 0.74695 0.73292 0.0
H196 H 0.61879 0.70781 0.45577 0.0
H197 H 0.53927 0.609 0.54443 0.0
H198 H 0.58594 0.62308 0.63068 0.0
H199 H 0.66464 0.72244 0.54274 0.0
C200 C 0.82491 0.8038 1.06356 0.0
C201 C 0.83749 0.84525 1.0474 0.0
C202 C 0.8931 0.81992 0.97741 0.0
C203 C 0.87105 0.85316 1.00464 0.0
C204 C 0.87952 0.77849 0.99217 0.0
C205 C 0.84507 0.7705 1.03455 0.0
U206 U 0.80301 0.83149 0.21251 0.0
O207 O 0.73492 0.83938 0.25996 0.0
O208 O 0.79024 0.79366 0.29009 0.0
C209 C 0.74496 0.8073 0.29458 0.0
C210 C 0.79688 0.79537 0.11538 0.0
C211 C 0.7071 0.77412 0.29661 0.0
C212 C 0.66941 0.71319 0.25497 0.0
C213 C 0.70588 0.74407 0.25497 0.0
C214 C 0.63435 0.74182 0.33829 0.0
C215 C 0.63318 0.71167 0.29655 0.0
C216 C 0.6712 0.77283 0.3384 0.0
C217 C 0.89326 0.92421 0.25192 0.0
C218 C 0.88621 -0.00959 0.29834 0.0
C219 C 0.96368 0.97137 0.25783 0.0
C220 C 0.94318 0.93301 0.2425 0.0
C221 C 0.93469 0.001 0.28381 0.0
C222 C 0.86549 0.95231 0.28238 0.0
C223 C 0.86962 0.89107 0.21915 0.0
O224 O 0.8231 0.77992 0.15813 0.0
O225 O 0.76714 0.82549 0.12958 0.0
O226 O 0.82417 0.89766 0.20133 0.0
O227 O 0.87884 0.85164 0.23351 0.0
H228 H 0.82344 0.87158 1.06974 0.0
H229 H 0.88205 0.88534 0.99507 0.0
H230 H 0.8981 0.75232 0.97421 0.0
H231 H 0.83658 0.73829 1.04711 0.0
H232 H 0.66939 0.69061 0.22197 0.0
H233 H 0.73295 0.74475 0.222 0.0
H234 H 0.60586 0.74234 0.36944 0.0
H235 H 0.67118 0.79616 0.37043 0.0
H236 H 0.86278 0.01344 0.31682 0.0
H237 H 0.00048 0.97945 0.2444 0.0
H238 H 0.96508 0.91195 0.21846 0.0
H239 H 0.82682 0.9465 0.28965 0.0
C240 C 0.0907 0.91886 0.39357 0.0
C241 C 0.06124 0.92685 0.43974 0.0
C242 C 0.03763 -0.00565 0.39563 0.0
C243 C 0.03493 0.96458 0.4408 0.0
C244 C 0.06434 0.98471 0.34798 0.0
C245 C 0.09079 0.94733 0.34712 0.0
U246 U 0.17972 0.82211 0.43553 0.0
O247 O 0.25261 0.82226 0.39719 0.0
O248 O 0.19753 0.77551 0.37304 0.0
C249 C 0.24326 0.78859 0.36863 0.0
C250 C 0.12597 0.8841 0.39357 0.0
C251 C 0.28105 0.75607 0.37395 0.0
C252 C 0.35713 0.72636 0.34158 0.0
C253 C 0.31912 0.7556 0.33496 0.0
C254 C 0.31844 0.69731 0.42547 0.0
C255 C 0.35706 0.69671 0.38664 0.0
C256 C 0.28096 0.72688 0.41937 0.0
C257 C 0.14917 0.80287 0.59275 0.0
C258 C 0.11242 0.77746 0.68066 0.0
C259 C 0.0997 0.84919 0.64652 0.0
C260 C 0.12847 0.84234 0.59989 0.0
C261 C 0.09005 0.81658 0.68639 0.0
C262 C 0.14233 0.7708 0.63423 0.0
C263 C 0.17598 0.79435 0.54119 0.0
O264 O 0.169 0.88965 0.41815 0.0
O265 O 0.11023 0.84499 0.39585 0.0
O266 O 0.20628 0.82403 0.52328 0.0
O267 O 0.14963 0.7783 0.5003 0.0
H268 H 0.06068 0.90518 0.47591 0.0
H269 H 0.01478 0.97163 0.47821 0.0
H270 H 0.06809 0.00752 0.31336 0.0
H271 H 0.11368 0.94175 0.31127 0.0
H272 H 0.38741 0.72793 0.31282 0.0
H273 H 0.32007 0.77851 0.30016 0.0
H274 H 0.31742 0.67529 0.46125 0.0
H275 H 0.25226 0.7273 0.45042 0.0
H276 H 0.10408 0.75139 0.70929 0.0
H277 H 0.08186 0.87938 0.64931 0.0
H278 H 0.13292 0.86741 0.56833 0.0
H279 H 0.15816 0.74004 0.62925 0.0
C280 C 0.32088 0.67167 0.11979 0.0
C281 C 0.33648 0.63038 0.13206 0.0
C282 C 0.38991 0.65457 0.20731 0.0
C283 C 0.37037 0.62196 0.1755 0.0
C284 C 0.37273 0.69565 0.19688 0.0
C285 C 0.33804 0.70408 0.15359 0.0
U286 U 0.29709 0.64664 0.96933 0.0
O287 O 0.22835 0.64025 0.91972 0.0
O288 O 0.28492 0.68521 0.89189 0.0
C289 C 0.23942 0.67194 0.88515 0.0
C290 C 0.29252 0.68128 1.0675 0.0
C291 C 0.20221 0.70547 0.87979 0.0
C292 C 0.16734 0.76926 0.91451 0.0
C293 C 0.20302 0.73798 0.91789 0.0
C294 C 0.12891 0.73633 0.83474 0.0
C295 C 0.1296 0.76874 0.87324 0.0
C296 C 0.16515 0.70493 0.83787 0.0
C297 C 0.38349 0.55439 0.92665 0.0
C298 C 0.37162 0.49041 0.8757 0.0
C299 C 0.45176 0.50638 0.91533 0.0
C300 C 0.43345 0.54426 0.93431 0.0
C301 C 0.42023 0.47825 0.88848 0.0
C302 C 0.35334 0.5283 0.89446 0.0
C303 C 0.36238 0.58662 0.96207 0.0
O304 O 0.31866 0.69718 1.02581 0.0
O305 O 0.26213 0.65159 1.05164 0.0
O306 O 0.37231 0.62624 0.94967 0.0
O307 O 0.31718 0.58024 0.97937 0.0
H308 H 0.32459 0.60483 0.10614 0.0
H309 H 0.38378 0.59012 0.18192 0.0
H310 H 0.38899 0.72164 0.21855 0.0
H311 H 0.32703 0.73624 0.14421 0.0
H312 H 0.16877 0.79354 0.94525 0.0
H313 H 0.23094 0.73889 0.95088 0.0
H314 H 0.09921 0.7342 0.8042 0.0
H315 H 0.16362 0.67977 0.80844 0.0
H316 H 0.34647 0.46877 0.85588 0.0
H317 H 0.48891 0.49716 0.92711 0.0
H318 H 0.45725 0.56378 0.95947 0.0
H319 H 0.3147 0.53533 0.88801 0.0
Zn320 Zn 0.02558 0.11555 0.44492 0.0
Zn321 Zn 0.93079 0.12483 0.21712 0.0
Zn322 Zn 0.98834 0.12969 0.34824 0.0
C323 C 0.03473 0.16189 0.24837 0.0
C324 C 0.94692 0.04574 0.27741 0.0
O325 O 0.93027 0.15347 0.40326 0.0
O326 O 0.96659 0.13261 0.48326 0.0
C327 C 0.09023 0.17214 0.39742 0.0
O328 O 0.04546 0.16393 0.30051 0.0
O329 O -0.0064 0.14723 0.2361 0.0
O330 O 0.92671 0.06485 0.23565 0.0
O331 O 0.97102 0.06509 0.31638 0.0
O332 O 0.08351 0.15264 0.44378 0.0
O333 O 0.05967 0.16725 0.35585 0.0
O334 O 0.00378 0.06105 0.36313 0.0
O335 O 0.0375 0.05493 0.44825 0.0
C336 C 0.02342 0.03825 0.40355 0.0
O337 O 0.91701 0.16521 0.34183 0.0
O338 O 0.88352 0.15939 0.2553 0.0
C339 C 0.92971 0.14787 0.45721 0.0
C340 C 0.8829 0.17377 0.30434 0.0
Zn341 Zn 0.5173 0.35948 0.7017 0.0
Zn342 Zn 0.43645 0.35451 0.93749 0.0
Zn343 Zn 0.47577 0.34866 0.85103 0.0
C344 C 0.43146 0.43319 0.89144 0.0
C345 C 0.3784 0.29665 0.90086 0.0
O346 O 0.54515 0.31431 0.84083 0.0
O347 O 0.56554 0.32277 0.74936 0.0
C348 C 0.51018 0.43547 0.76919 0.0
O349 O 0.46514 0.41662 0.86219 0.0
O350 O 0.40737 0.4106 0.92576 0.0
O351 O 0.38925 0.30865 0.94942 0.0
O352 O 0.40382 0.31052 0.85848 0.0
O353 O 0.51941 0.42024 0.72179 0.0
O354 O 0.49523 0.41238 0.81192 0.0
O355 O 0.41634 0.31914 0.806 0.0
O356 O 0.47843 0.32623 0.75419 0.0
C357 C 0.43296 0.3209 0.75665 0.0
O358 O 0.53393 0.32044 0.9056 0.0
O359 O 0.49973 0.3495 0.97773 0.0
C360 C 0.57378 0.30756 0.7991 0.0
C361 C 0.53561 0.33045 0.95749 0.0
Zn362 Zn 0.03261 0.85832 0.92573 0.0
Zn363 Zn 0.95515 0.85695 0.73573 0.0
Zn364 Zn -0.0068 0.85084 0.83247 0.0
C365 C 0.95461 0.93678 0.7635 0.0
C366 C 0.89107 0.8062 0.79546 0.0
O367 O 0.06319 0.81277 0.83341 0.0
O368 O 0.07948 0.81225 0.92477 0.0
C369 C 0.03639 0.93694 0.88676 0.0
O370 O 0.97425 0.91722 0.80687 0.0
O371 O 0.9433 0.91695 0.7203 0.0
O372 O 0.89702 0.82199 0.7467 0.0
O373 O 0.92284 0.81366 0.83496 0.0
O374 O 0.0602 0.9155 0.92331 0.0
O375 O 0.00626 0.91866 0.85288 0.0
O376 O 0.93981 0.82127 0.89143 0.0
O377 O 0.97122 0.84932 0.96783 0.0
C378 C 0.93707 0.82936 0.94403 0.0
O379 O 0.04924 0.82375 0.77585 0.0
O380 O 0.00846 0.83334 0.69514 0.0
C381 C 0.0888 0.79924 0.87666 0.0
C382 C 0.04683 0.82198 0.72166 0.0
Zn383 Zn 0.53518 0.61924 0.25114 0.0
Zn384 Zn 0.44957 0.60876 0.48285 0.0
Zn385 Zn 0.4997 0.62766 0.34373 0.0
C386 C 0.54656 0.64825 0.44217 0.0
C387 C 0.45247 0.53852 0.40776 0.0
O388 O 0.44131 0.6565 0.29175 0.0
O389 O 0.4684 0.62584 0.21647 0.0
C390 C 0.59297 0.68036 0.29289 0.0
O391 O 0.55997 0.65694 0.39222 0.0
O392 O 0.50531 0.63145 0.44561 0.0
O393 O 0.43955 0.55132 0.45531 0.0
O394 O 0.475 0.56243 0.37084 0.0
O395 O 0.58189 0.66655 0.24524 0.0
O396 O 0.56942 0.66673 0.33676 0.0
O397 O 0.51279 0.55987 0.33058 0.0
O398 O 0.56377 0.56224 0.25946 0.0
C399 C 0.54272 0.54144 0.29822 0.0
O400 O 0.43001 0.66124 0.35718 0.0
O401 O 0.40164 0.64918 0.44509 0.0
C402 C 0.43521 0.64592 0.24046 0.0
C403 C 0.39834 0.6671 0.39628 0.0
loop_
_geom_bond_atom_site_label_1
_geom_bond_atom_site_label_2
_geom_bond_distance
_geom_bond_site_symmetry_2
_ccdc_geom_bond_type
C0 C1 1.264 . S
C0 C5 1.479 . S
C0 C10 1.465 . S
C1 C0 1.264 . S
C1 C3 1.339 . S
C1 H28 0.931 . S
C2 C3 1.395 . S
C2 C4 1.320 . S
C3 C1 1.339 . S
C3 C2 1.395 . S
C3 H29 0.929 . S
C4 C2 1.320 . S
C4 C5 1.405 . S
C4 H30 0.930 . S
C5 C0 1.479 . S
C5 C4 1.405 . S
C5 H31 0.931 . S
U6 O7 2.454 . S
U6 O8 2.458 . S
U6 C9 2.984 . S
U6 C10 2.847 . S
U6 C23 2.882 . S
U6 O24 2.441 . S
U6 O25 2.420 . S
U6 O26 2.455 . S
U6 O27 2.449 . S
O7 U6 2.454 . S
O7 C9 1.353 . S
O8 U6 2.458 . S
O8 C9 1.286 . S
C9 U6 2.984 . S
C9 O7 1.353 . S
C9 O8 1.286 . S
C9 C11 1.363 . S
C10 C0 1.465 . S
C10 U6 2.847 . S
C10 O24 1.249 . S
C10 O25 1.202 . S
C11 C9 1.363 . S
C11 C13 1.408 . S
C11 C16 1.342 . S
C12 C13 1.310 . S
C12 C15 1.461 . S
C12 H32 0.932 . S
C13 C11 1.408 . S
C13 C12 1.310 . S
C13 H33 0.930 . S
C14 C15 1.474 . S
C14 C16 1.285 . S
C14 H34 0.929 . S
C15 C12 1.461 . S
C15 C14 1.474 . S
C16 C11 1.342 . S
C16 C14 1.285 . S
C16 H35 0.930 . S
C17 C20 1.424 . S
C17 C22 1.245 . S
C17 C23 1.428 . S
C18 C21 1.260 . S
C18 C22 1.477 . S
C18 H36 0.932 . S
C19 C20 1.384 . S
C19 C21 1.479 . S
C19 H37 0.929 . S
C20 C17 1.424 . S
C20 C19 1.384 . S
C20 H38 0.928 . S
C21 C18 1.260 . S
C21 C19 1.479 . S
C22 C17 1.245 . S
C22 C18 1.477 . S
C22 H39 0.932 . S
C23 U6 2.882 . S
C23 C17 1.428 . S
C23 O26 1.301 . S
C23 O27 1.282 . S
O24 U6 2.441 . S
O24 C10 1.249 . S
O25 U6 2.420 . S
O25 C10 1.202 . S
O26 U6 2.455 . S
O26 C23 1.301 . S
O27 U6 2.449 . S
O27 C23 1.282 . S
H28 C1 0.931 . S
H29 C3 0.929 . S
H30 C4 0.930 . S
H31 C5 0.931 . S
H32 C12 0.932 . S
H33 C13 0.930 . S
H34 C14 0.929 . S
H35 C16 0.930 . S
H36 C18 0.932 . S
H37 C19 0.929 . S
H38 C20 0.928 . S
H39 C22 0.932 . S
C40 C41 1.264 . S
C40 C45 1.479 . S
C40 C50 1.465 1_554 S
C41 C40 1.264 . S
C41 C43 1.339 . S
C41 H68 0.931 . S
C42 C43 1.395 . S
C42 C44 1.320 . S
C43 C41 1.339 . S
C43 C42 1.395 . S
C43 H69 0.929 . S
C44 C42 1.320 . S
C44 C45 1.405 . S
C44 H70 0.930 . S
C45 C40 1.479 . S
C45 C44 1.405 . S
C45 H71 0.931 . S
U46 O47 2.454 . S
U46 O48 2.458 . S
U46 C49 2.984 . S
U46 C50 2.847 . S
U46 C63 2.882 . S
U46 O64 2.441 . S
U46 O65 2.420 . S
U46 O66 2.455 . S
U46 O67 2.449 . S
O47 U46 2.454 . S
O47 C49 1.353 . S
O48 U46 2.458 . S
O48 C49 1.286 . S
C49 U46 2.984 . S
C49 O47 1.353 . S
C49 O48 1.286 . S
C49 C51 1.363 . S
C50 C40 1.465 1_556 S
C50 U46 2.847 . S
C50 O64 1.249 . S
C50 O65 1.202 . S
C51 C49 1.363 . S
C51 C53 1.408 . S
C51 C56 1.342 . S
C52 C53 1.310 . S
C52 C55 1.461 . S
C52 H72 0.932 . S
C53 C51 1.408 . S
C53 C52 1.310 . S
C53 H73 0.930 . S
C54 C55 1.474 . S
C54 C56 1.285 . S
C54 H74 0.929 . S
C55 C52 1.461 . S
C55 C54 1.474 . S
C56 C51 1.342 . S
C56 C54 1.285 . S
C56 H75 0.930 . S
C57 C60 1.424 . S
C57 C62 1.245 . S
C57 C63 1.428 . S
C58 C61 1.260 1_545 S
C58 C62 1.477 . S
C58 H76 0.932 . S
C59 C60 1.394 . S
C59 C61 1.475 1_545 S
C59 H77 0.922 1_545 S
C60 C57 1.424 . S
C60 C59 1.394 . S
C60 H78 0.928 . S
C61 C58 1.260 1_565 S
C61 C59 1.475 1_565 S
C62 C57 1.245 . S
C62 C58 1.477 . S
C62 H79 0.932 . S
C63 U46 2.882 . S
C63 C57 1.428 . S
C63 O66 1.301 . S
C63 O67 1.282 . S
O64 U46 2.441 . S
O64 C50 1.249 . S
O65 U46 2.420 . S
O65 C50 1.202 . S
O66 U46 2.455 . S
O66 C63 1.301 . S
O67 U46 2.449 . S
O67 C63 1.282 . S
H68 C41 0.931 . S
H69 C43 0.929 . S
H70 C44 0.930 . S
H71 C45 0.931 . S
H72 C52 0.932 . S
H73 C53 0.930 . S
H74 C54 0.929 . S
H75 C56 0.930 . S
H76 C58 0.932 . S
H77 C59 0.922 1_565 S
H78 C60 0.928 . S
H79 C62 0.932 . S
C80 C81 1.264 . S
C80 C85 1.479 . S
C80 C90 1.465 . S
C81 C80 1.264 . S
C81 C83 1.339 1_545 S
C81 H108 0.931 . S
C82 C83 1.395 . S
C82 C84 1.320 . S
C83 C81 1.339 1_565 S
C83 C82 1.395 . S
C83 H109 0.929 . S
C84 C82 1.320 . S
C84 C85 1.405 1_565 S
C84 H110 0.930 . S
C85 C80 1.479 . S
C85 C84 1.405 1_545 S
C85 H111 0.931 . S
U86 O87 2.454 . S
U86 O88 2.458 . S
U86 C89 2.984 . S
U86 C90 2.847 . S
U86 C103 2.882 . S
U86 O104 2.441 . S
U86 O105 2.420 . S
U86 O106 2.455 . S
U86 O107 2.449 . S
O87 U86 2.454 . S
O87 C89 1.353 . S
O88 U86 2.458 . S
O88 C89 1.286 . S
C89 U86 2.984 . S
C89 O87 1.353 . S
C89 O88 1.286 . S
C89 C91 1.363 . S
C90 C80 1.465 . S
C90 U86 2.847 . S
C90 O104 1.249 . S
C90 O105 1.202 . S
C91 C89 1.363 . S
C91 C93 1.408 . S
C91 C96 1.342 . S
C92 C93 1.310 . S
C92 C95 1.461 . S
C92 H112 0.932 . S
C93 C91 1.408 . S
C93 C92 1.310 . S
C93 H113 0.930 . S
C94 C95 1.474 . S
C94 C96 1.285 . S
C94 H114 0.929 . S
C95 C92 1.461 . S
C95 C94 1.474 . S
C96 C91 1.342 . S
C96 C94 1.285 . S
C96 H115 0.930 . S
C97 C100 1.424 . S
C97 C102 1.245 . S
C97 C103 1.428 . S
C98 C101 1.260 . S
C98 C102 1.477 . S
C98 H116 0.932 . S
C99 C100 1.384 . S
C99 C101 1.479 . S
C99 H117 0.929 . S
C100 C97 1.424 . S
C100 C99 1.384 . S
C100 H118 0.928 . S
C101 C98 1.260 . S
C101 C99 1.479 . S
C102 C97 1.245 . S
C102 C98 1.477 . S
C102 H119 0.932 . S
C103 U86 2.882 . S
C103 C97 1.428 . S
C103 O106 1.301 . S
C103 O107 1.282 . S
O104 U86 2.441 . S
O104 C90 1.249 . S
O105 U86 2.420 . S
O105 C90 1.202 . S
O106 U86 2.455 . S
O106 C103 1.301 . S
O107 U86 2.449 . S
O107 C103 1.282 . S
H108 C81 0.931 . S
H109 C83 0.929 . S
H110 C84 0.930 . S
H111 C85 0.931 . S
H112 C92 0.932 . S
H113 C93 0.930 . S
H114 C94 0.929 . S
H115 C96 0.930 . S
H116 C98 0.932 . S
H117 C99 0.929 . S
H118 C100 0.928 . S
H119 C102 0.932 . S
C120 C121 1.264 . S
C120 C125 1.479 . S
C120 C130 1.465 1_556 S
C121 C120 1.264 . S
C121 C123 1.339 . S
C121 H148 0.931 . S
C122 C123 1.395 . S
C122 C124 1.320 . S
C123 C121 1.339 . S
C123 C122 1.395 . S
C123 H149 0.929 . S
C124 C122 1.320 . S
C124 C125 1.405 . S
C124 H150 0.930 . S
C125 C120 1.479 . S
C125 C124 1.405 . S
C125 H151 0.931 . S
U126 O127 2.454 . S
U126 O128 2.458 . S
U126 C129 2.984 . S
U126 C130 2.847 . S
U126 C143 2.882 . S
U126 O144 2.441 . S
U126 O145 2.420 . S
U126 O146 2.455 . S
U126 O147 2.449 . S
O127 U126 2.454 . S
O127 C129 1.353 . S
O128 U126 2.458 . S
O128 C129 1.286 . S
C129 U126 2.984 . S
C129 O127 1.353 . S
C129 O128 1.286 . S
C129 C131 1.363 . S
C130 C120 1.465 1_554 S
C130 U126 2.847 . S
C130 O144 1.249 . S
C130 O145 1.202 . S
C131 C129 1.363 . S
C131 C133 1.408 . S
C131 C136 1.342 . S
C132 C133 1.310 . S
C132 C135 1.461 . S
C132 H152 0.932 . S
C133 C131 1.408 . S
C133 C132 1.310 . S
C133 H153 0.930 . S
C134 C135 1.474 . S
C134 C136 1.285 . S
C134 H154 0.929 . S
C135 C132 1.461 . S
C135 C134 1.474 . S
C136 C131 1.342 . S
C136 C134 1.285 . S
C136 H155 0.930 . S
C137 C140 1.424 . S
C137 C142 1.245 . S
C137 C143 1.428 . S
C138 C141 1.260 . S
C138 C142 1.477 . S
C138 H156 0.932 . S
C139 C140 1.384 . S
C139 C141 1.479 . S
C139 H157 0.929 . S
C140 C137 1.424 . S
C140 C139 1.384 . S
C140 H158 0.928 . S
C141 C138 1.260 . S
C141 C139 1.479 . S
C142 C137 1.245 . S
C142 C138 1.477 . S
C142 H159 0.932 . S
C143 U126 2.882 . S
C143 C137 1.428 . S
C143 O146 1.301 . S
C143 O147 1.282 . S
O144 U126 2.441 . S
O144 C130 1.249 . S
O145 U126 2.420 . S
O145 C130 1.202 . S
O146 U126 2.455 . S
O146 C143 1.301 . S
O147 U126 2.449 . S
O147 C143 1.282 . S
H148 C121 0.931 . S
H149 C123 0.929 . S
H150 C124 0.930 . S
H151 C125 0.931 . S
H152 C132 0.932 . S
H153 C133 0.930 . S
H154 C134 0.929 . S
H155 C136 0.930 . S
H156 C138 0.932 . S
H157 C139 0.929 . S
H158 C140 0.928 . S
H159 C142 0.932 . S
C160 C161 1.264 . S
C160 C165 1.479 . S
C160 C170 1.465 . S
C161 C160 1.264 . S
C161 C163 1.339 . S
C161 H188 0.931 . S
C162 C163 1.395 . S
C162 C164 1.320 . S
C163 C161 1.339 . S
C163 C162 1.395 . S
C163 H189 0.929 . S
C164 C162 1.320 . S
C164 C165 1.405 . S
C164 H190 0.930 . S
C165 C160 1.479 . S
C165 C164 1.405 . S
C165 H191 0.931 . S
U166 O167 2.454 . S
U166 O168 2.458 . S
U166 C169 2.984 . S
U166 C170 2.847 . S
U166 C183 2.882 . S
U166 O184 2.441 . S
U166 O185 2.420 . S
U166 O186 2.455 . S
U166 O187 2.449 . S
O167 U166 2.454 . S
O167 C169 1.353 . S
O168 U166 2.458 . S
O168 C169 1.286 . S
C169 U166 2.984 . S
C169 O167 1.353 . S
C169 O168 1.286 . S
C169 C171 1.363 . S
C170 C160 1.465 . S
C170 U166 2.847 . S
C170 O184 1.249 . S
C170 O185 1.202 . S
C171 C169 1.363 . S
C171 C173 1.408 . S
C171 C176 1.342 . S
C172 C173 1.310 . S
C172 C175 1.461 . S
C172 H192 0.932 . S
C173 C171 1.408 . S
C173 C172 1.310 . S
C173 H193 0.930 . S
C174 C175 1.474 . S
C174 C176 1.285 . S
C174 H194 0.929 . S
C175 C172 1.461 . S
C175 C174 1.474 . S
C176 C171 1.342 . S
C176 C174 1.285 . S
C176 H195 0.930 . S
C177 C180 1.424 . S
C177 C182 1.245 . S
C177 C183 1.428 . S
C178 C181 1.260 . S
C178 C182 1.477 . S
C178 H196 0.932 . S
C179 C180 1.384 . S
C179 C181 1.479 . S
C179 H197 0.929 . S
C180 C177 1.424 . S
C180 C179 1.384 . S
C180 H198 0.928 . S
C181 C178 1.260 . S
C181 C179 1.479 . S
C182 C177 1.245 . S
C182 C178 1.477 . S
C182 H199 0.932 . S
C183 U166 2.882 . S
C183 C177 1.428 . S
C183 O186 1.301 . S
C183 O187 1.282 . S
O184 U166 2.441 . S
O184 C170 1.249 . S
O185 U166 2.420 . S
O185 C170 1.202 . S
O186 U166 2.455 . S
O186 C183 1.301 . S
O187 U166 2.449 . S
O187 C183 1.282 . S
H188 C161 0.931 . S
H189 C163 0.929 . S
H190 C164 0.930 . S
H191 C165 0.931 . S
H192 C172 0.932 . S
H193 C173 0.930 . S
H194 C174 0.929 . S
H195 C176 0.930 . S
H196 C178 0.932 . S
H197 C179 0.929 . S
H198 C180 0.928 . S
H199 C182 0.932 . S
C200 C201 1.264 . S
C200 C205 1.479 . S
C200 C210 1.445 1_556 S
C201 C200 1.264 . S
C201 C203 1.339 . S
C201 H228 0.931 . S
C202 C203 1.395 . S
C202 C204 1.320 . S
C203 C201 1.339 . S
C203 C202 1.395 . S
C203 H229 0.929 . S
C204 C202 1.320 . S
C204 C205 1.405 . S
C204 H230 0.930 . S
C205 C200 1.479 . S
C205 C204 1.405 . S
C205 H231 0.931 . S
U206 O207 2.454 . S
U206 O208 2.458 . S
U206 C209 2.984 . S
U206 C210 2.869 . S
U206 C223 2.882 . S
U206 O224 2.441 . S
U206 O225 2.420 . S
U206 O226 2.455 . S
U206 O227 2.449 . S
O207 U206 2.454 . S
O207 C209 1.353 . S
O208 U206 2.458 . S
O208 C209 1.286 . S
C209 U206 2.984 . S
C209 O207 1.353 . S
C209 O208 1.286 . S
C209 C211 1.363 . S
C210 C200 1.445 1_554 S
C210 U206 2.869 . S
C210 O224 1.260 . S
C210 O225 1.214 . S
C211 C209 1.363 . S
C211 C213 1.408 . S
C211 C216 1.342 . S
C212 C213 1.310 . S
C212 C215 1.461 . S
C212 H232 0.932 . S
C213 C211 1.408 . S
C213 C212 1.310 . S
C213 H233 0.930 . S
C214 C215 1.474 . S
C214 C216 1.285 . S
C214 H234 0.929 . S
C215 C212 1.461 . S
C215 C214 1.474 . S
C216 C211 1.342 . S
C216 C214 1.285 . S
C216 H235 0.930 . S
C217 C220 1.424 . S
C217 C222 1.245 . S
C217 C223 1.428 . S
C218 C221 1.246 1_565 S
C218 C222 1.496 . S
C218 H236 0.926 1_565 S
C219 C220 1.384 1_545 S
C219 C221 1.479 . S
C219 H237 0.929 . S
C220 C217 1.424 . S
C220 C219 1.384 1_565 S
C220 H238 0.928 . S
C221 C218 1.246 1_545 S
C221 C219 1.479 . S
C222 C217 1.245 . S
C222 C218 1.496 . S
C222 H239 0.932 . S
C223 U206 2.882 . S
C223 C217 1.428 . S
C223 O226 1.301 . S
C223 O227 1.282 . S
O224 U206 2.441 . S
O224 C210 1.260 . S
O225 U206 2.420 . S
O225 C210 1.214 . S
O226 U206 2.455 . S
O226 C223 1.301 . S
O227 U206 2.449 . S
O227 C223 1.282 . S
H228 C201 0.931 . S
H229 C203 0.929 . S
H230 C204 0.930 . S
H231 C205 0.931 . S
H232 C212 0.932 . S
H233 C213 0.930 . S
H234 C214 0.929 . S
H235 C216 0.930 . S
H236 C218 0.926 1_545 S
H237 C219 0.929 . S
H238 C220 0.928 . S
H239 C222 0.932 . S
C240 C241 1.264 . S
C240 C245 1.479 . S
C240 C250 1.465 . S
C241 C240 1.264 . S
C241 C243 1.339 1_565 S
C241 H268 0.931 . S
C242 C243 1.395 . S
C242 C244 1.320 1_545 S
C243 C241 1.339 1_545 S
C243 C242 1.395 . S
C243 H269 0.929 . S
C244 C242 1.320 1_565 S
C244 C245 1.405 . S
C244 H270 0.930 1_565 S
C245 C240 1.479 . S
C245 C244 1.405 . S
C245 H271 0.931 . S
U246 O247 2.454 . S
U246 O248 2.458 . S
U246 C249 2.984 . S
U246 C250 2.847 . S
U246 C263 2.882 . S
U246 O264 2.441 . S
U246 O265 2.420 . S
U246 O266 2.455 . S
U246 O267 2.449 . S
O247 U246 2.454 . S
O247 C249 1.353 . S
O248 U246 2.458 . S
O248 C249 1.286 . S
C249 U246 2.984 . S
C249 O247 1.353 . S
C249 O248 1.286 . S
C249 C251 1.363 . S
C250 C240 1.465 . S
C250 U246 2.847 . S
C250 O264 1.249 . S
C250 O265 1.202 . S
C251 C249 1.363 . S
C251 C253 1.408 . S
C251 C256 1.342 . S
C252 C253 1.310 . S
C252 C255 1.461 . S
C252 H272 0.932 . S
C253 C251 1.408 . S
C253 C252 1.310 . S
C253 H273 0.930 . S
C254 C255 1.474 . S
C254 C256 1.285 . S
C254 H274 0.929 . S
C255 C252 1.461 . S
C255 C254 1.474 . S
C256 C251 1.342 . S
C256 C254 1.285 . S
C256 H275 0.930 . S
C257 C260 1.424 . S
C257 C262 1.245 . S
C257 C263 1.428 . S
C258 C261 1.260 . S
C258 C262 1.477 . S
C258 H276 0.932 . S
C259 C260 1.384 . S
C259 C261 1.479 . S
C259 H277 0.929 . S
C260 C257 1.424 . S
C260 C259 1.384 . S
C260 H278 0.928 . S
C261 C258 1.260 . S
C261 C259 1.479 . S
C262 C257 1.245 . S
C262 C258 1.477 . S
C262 H279 0.932 . S
C263 U246 2.882 . S
C263 C257 1.428 . S
C263 O266 1.301 . S
C263 O267 1.282 . S
O264 U246 2.441 . S
O264 C250 1.249 . S
O265 U246 2.420 . S
O265 C250 1.202 . S
O266 U246 2.455 . S
O266 C263 1.301 . S
O267 U246 2.449 . S
O267 C263 1.282 . S
H268 C241 0.931 . S
H269 C243 0.929 . S
H270 C244 0.930 1_545 S
H271 C245 0.931 . S
H272 C252 0.932 . S
H273 C253 0.930 . S
H274 C254 0.929 . S
H275 C256 0.930 . S
H276 C258 0.932 . S
H277 C259 0.929 . S
H278 C260 0.928 . S
H279 C262 0.932 . S
C280 C281 1.264 . S
C280 C285 1.479 . S
C280 C290 1.465 1_554 S
C281 C280 1.264 . S
C281 C283 1.339 . S
C281 H308 0.931 . S
C282 C283 1.395 . S
C282 C284 1.320 . S
C283 C281 1.339 . S
C283 C282 1.395 . S
C283 H309 0.929 . S
C284 C282 1.320 . S
C284 C285 1.405 . S
C284 H310 0.930 . S
C285 C280 1.479 . S
C285 C284 1.405 . S
C285 H311 0.931 . S
U286 O287 2.454 . S
U286 O288 2.458 . S
U286 C289 2.984 . S
U286 C290 2.847 . S
U286 C303 2.882 . S
U286 O304 2.441 . S
U286 O305 2.420 . S
U286 O306 2.455 . S
U286 O307 2.449 . S
O287 U286 2.454 . S
O287 C289 1.353 . S
O288 U286 2.458 . S
O288 C289 1.286 . S
C289 U286 2.984 . S
C289 O287 1.353 . S
C289 O288 1.286 . S
C289 C291 1.363 . S
C290 C280 1.465 1_556 S
C290 U286 2.847 . S
C290 O304 1.249 . S
C290 O305 1.202 . S
C291 C289 1.363 . S
C291 C293 1.408 . S
C291 C296 1.342 . S
C292 C293 1.310 . S
C292 C295 1.461 . S
C292 H312 0.932 . S
C293 C291 1.408 . S
C293 C292 1.310 . S
C293 H313 0.930 . S
C294 C295 1.474 . S
C294 C296 1.285 . S
C294 H314 0.929 . S
C295 C292 1.461 . S
C295 C294 1.474 . S
C296 C291 1.342 . S
C296 C294 1.285 . S
C296 H315 0.930 . S
C297 C300 1.424 . S
C297 C302 1.245 . S
C297 C303 1.428 . S
C298 C301 1.260 . S
C298 C302 1.477 . S
C298 H316 0.932 . S
C299 C300 1.384 . S
C299 C301 1.479 . S
C299 H317 0.929 . S
C300 C297 1.424 . S
C300 C299 1.384 . S
C300 H318 0.928 . S
C301 C298 1.260 . S
C301 C299 1.479 . S
C302 C297 1.245 . S
C302 C298 1.477 . S
C302 H319 0.932 . S
C303 U286 2.882 . S
C303 C297 1.428 . S
C303 O306 1.301 . S
C303 O307 1.282 . S
O304 U286 2.441 . S
O304 C290 1.249 . S
O305 U286 2.420 . S
O305 C290 1.202 . S
O306 U286 2.455 . S
O306 C303 1.301 . S
O307 U286 2.449 . S
O307 C303 1.282 . S
H308 C281 0.931 . S
H309 C283 0.929 . S
H310 C284 0.930 . S
H311 C285 0.931 . S
H312 C292 0.932 . S
H313 C293 0.930 . S
H314 C294 0.929 . S
H315 C296 0.930 . S
H316 C298 0.932 . S
H317 C299 0.929 . S
H318 C300 0.928 . S
H319 C302 0.932 . S
Zn320 O326 1.920 1_455 S
Zn320 O332 1.898 . S
Zn320 O335 1.905 . S
Zn321 O329 1.905 1_655 S
Zn321 O330 1.898 . S
Zn321 O338 1.920 . S
Zn322 O325 2.080 1_455 S
Zn322 O328 2.114 . S
Zn322 O331 2.120 1_455 S
Zn322 O333 2.120 . S
Zn322 O334 2.114 . S
Zn322 O337 2.080 1_455 S
C323 O328 1.166 . S
C323 O329 1.182 . S
C324 O330 1.167 . S
C324 O331 1.299 . S
O325 Zn322 2.080 1_655 S
O325 C339 1.305 . S
O326 Zn320 1.920 1_655 S
O326 C339 1.234 . S
C327 O332 1.167 . S
C327 O333 1.299 . S
O328 Zn322 2.114 . S
O328 C323 1.166 . S
O329 Zn321 1.905 1_455 S
O329 C323 1.182 . S
O330 Zn321 1.898 . S
O330 C324 1.167 . S
O331 Zn322 2.120 1_655 S
O331 C324 1.299 . S
O332 Zn320 1.898 . S
O332 C327 1.167 . S
O333 Zn322 2.120 . S
O333 C327 1.299 . S
O334 Zn322 2.114 . S
O334 C336 1.166 . S
O335 Zn320 1.905 . S
O335 C336 1.182 . S
C336 O334 1.166 . S
C336 O335 1.182 . S
O337 Zn322 2.080 1_655 S
O337 C340 1.305 . S
O338 Zn321 1.920 . S
O338 C340 1.234 . S
C339 O325 1.305 . S
C339 O326 1.234 . S
C340 O337 1.305 . S
C340 O338 1.234 . S
Zn341 O347 1.920 . S
Zn341 O353 1.898 . S
Zn341 O356 1.905 . S
Zn342 O350 1.905 . S
Zn342 O351 1.898 . S
Zn342 O359 1.920 . S
Zn343 O346 2.080 . S
Zn343 O349 2.114 . S
Zn343 O352 2.120 . S
Zn343 O354 2.120 . S
Zn343 O355 2.114 . S
Zn343 O358 2.080 . S
C344 O349 1.166 . S
C344 O350 1.182 . S
C345 O351 1.167 . S
C345 O352 1.299 . S
O346 Zn343 2.080 . S
O346 C360 1.305 . S
O347 Zn341 1.920 . S
O347 C360 1.234 . S
C348 O353 1.167 . S
C348 O354 1.299 . S
O349 Zn343 2.114 . S
O349 C344 1.166 . S
O350 Zn342 1.905 . S
O350 C344 1.182 . S
O351 Zn342 1.898 . S
O351 C345 1.167 . S
O352 Zn343 2.120 . S
O352 C345 1.299 . S
O353 Zn341 1.898 . S
O353 C348 1.167 . S
O354 Zn343 2.120 . S
O354 C348 1.299 . S
O355 Zn343 2.114 . S
O355 C357 1.166 . S
O356 Zn341 1.905 . S
O356 C357 1.182 . S
C357 O355 1.166 . S
C357 O356 1.182 . S
O358 Zn343 2.080 . S
O358 C361 1.305 . S
O359 Zn342 1.920 . S
O359 C361 1.234 . S
C360 O346 1.305 . S
C360 O347 1.234 . S
C361 O358 1.305 . S
C361 O359 1.234 . S
Zn362 O368 1.920 . S
Zn362 O374 1.898 . S
Zn362 O377 1.905 . S
Zn363 O371 1.905 . S
Zn363 O372 1.898 . S
Zn363 O380 1.920 1_655 S
Zn364 O367 2.080 . S
Zn364 O370 2.114 1_455 S
Zn364 O373 2.120 1_455 S
Zn364 O375 2.120 . S
Zn364 O376 2.114 1_455 S
Zn364 O379 2.080 . S
C365 O370 1.166 . S
C365 O371 1.182 . S
C366 O372 1.167 . S
C366 O373 1.299 . S
O367 Zn364 2.080 . S
O367 C381 1.305 . S
O368 Zn362 1.920 . S
O368 C381 1.234 . S
C369 O374 1.167 . S
C369 O375 1.299 . S
O370 Zn364 2.114 1_655 S
O370 C365 1.166 . S
O371 Zn363 1.905 . S
O371 C365 1.182 . S
O372 Zn363 1.898 . S
O372 C366 1.167 . S
O373 Zn364 2.120 1_655 S
O373 C366 1.299 . S
O374 Zn362 1.898 . S
O374 C369 1.167 . S
O375 Zn364 2.120 . S
O375 C369 1.299 . S
O376 Zn364 2.114 1_655 S
O376 C378 1.166 . S
O377 Zn362 1.905 . S
O377 C378 1.182 1_455 S
C378 O376 1.166 . S
C378 O377 1.182 1_655 S
O379 Zn364 2.080 . S
O379 C382 1.305 . S
O380 Zn363 1.920 1_455 S
O380 C382 1.234 . S
C381 O367 1.305 . S
C381 O368 1.234 . S
C382 O379 1.305 . S
C382 O380 1.234 . S
Zn383 O389 1.920 . S
Zn383 O395 1.898 . S
Zn383 O398 1.905 . S
Zn384 O392 1.905 . S
Zn384 O393 1.898 . S
Zn384 O401 1.920 . S
Zn385 O388 2.080 . S
Zn385 O391 2.114 . S
Zn385 O394 2.120 . S
Zn385 O396 2.120 . S
Zn385 O397 2.114 . S
Zn385 O400 2.080 . S
C386 O391 1.166 . S
C386 O392 1.182 . S
C387 O393 1.167 . S
C387 O394 1.299 . S
O388 Zn385 2.080 . S
O388 C402 1.305 . S
O389 Zn383 1.920 . S
O389 C402 1.234 . S
C390 O395 1.167 . S
C390 O396 1.299 . S
O391 Zn385 2.114 . S
O391 C386 1.166 . S
O392 Zn384 1.905 . S
O392 C386 1.182 . S
O393 Zn384 1.898 . S
O393 C387 1.167 . S
O394 Zn385 2.120 . S
O394 C387 1.299 . S
O395 Zn383 1.898 . S
O395 C390 1.167 . S
O396 Zn385 2.120 . S
O396 C390 1.299 . S
O397 Zn385 2.114 . S
O397 C399 1.166 . S
O398 Zn383 1.905 . S
O398 C399 1.182 . S
C399 O397 1.166 . S
C399 O398 1.182 . S
O400 Zn385 2.080 . S
O400 C403 1.305 . S
O401 Zn384 1.920 . S
O401 C403 1.234 . S
C402 O388 1.305 . S
C402 O389 1.234 . S
C403 O400 1.305 . S
C403 O401 1.234 . S
C242 C336 2.427 . S
C344 C301 2.195 . S
C348 C162 2.395 . S
C221 C324 2.154 . S
C365 C82 2.267 . S
C399 C141 2.380 . S
C2 C387 2.221 . S
C61 C369 2.354 . S
C323 C42 1.659 . S
C357 C21 1.547 . S
C361 C122 1.626 . S
C339 C101 1.543 . S
C378 C202 1.630 . S
C181 C386 1.572 . S
C402 C282 1.619 . S
C261 C382 1.541 . S
C327 C15 1.297 . S
C345 C55 1.309 . S
C95 C360 1.279 . S
C340 C135 1.296 . S
C366 C175 1.311 . S
C215 C390 1.296 . S
C255 C403 1.291 . S
C295 C381 1.284 . S
