# Generated by pormake.
# Topology zzz, (3,6)-cn, num edge types: 1
# Building blocks:
#     Node 0, Type 0, BuildingBlock: WUSLED_clean_sbu_0, # of connection points: 3
#     Node 1, Type 0, BuildingBlock: WUSLED_clean_sbu_0, # of connection points: 3
#     Node 2, Type 0, BuildingBlock: WUSLED_clean_sbu_0, # of connection points: 3
#     Node 3, Type 0, BuildingBlock: WUSLED_clean_sbu_0, # of connection points: 3
#     Node 4, Type 0, BuildingBlock: WUSLED_clean_sbu_0, # of connection points: 3
#     Node 5, Type 0, BuildingBlock: WUSLED_clean_sbu_0, # of connection points: 3
#     Node 6, Type 0, BuildingBlock: WUSLED_clean_sbu_0, # of connection points: 3
#     Node 7, Type 0, BuildingBlock: WUSLED_clean_sbu_0, # of connection points: 3
#     Node 8, Type 1, BuildingBlock: BETDEL_clean_sbu_0, # of connection points: 6
#     Node 9, Type 1, BuildingBlock: BETDEL_clean_sbu_0, # of connection points: 6
#     Node 10, Type 1, BuildingBlock: BETDEL_clean_sbu_0, # of connection points: 6
#     Node 11, Type 1, BuildingBlock: BETDEL_clean_sbu_0, # of connection points: 6
#     Edge 12, Type (0, 1), BuildingBlock: TEMPAE_clean_linker_10, # of connection points: 2
#     Edge 13, Type (0, 1), BuildingBlock: TEMPAE_clean_linker_10, # of connection points: 2
#     Edge 14, Type (0, 1), BuildingBlock: TEMPAE_clean_linker_10, # of connection points: 2
#     Edge 15, Type (0, 1), BuildingBlock: TEMPAE_clean_linker_10, # of connection points: 2
#     Edge 16, Type (0, 1), BuildingBlock: TEMPAE_clean_linker_10, # of connection points: 2
#     Edge 17, Type (0, 1), BuildingBlock: TEMPAE_clean_linker_10, # of connection points: 2
#     Edge 18, Type (0, 1), BuildingBlock: TEMPAE_clean_linker_10, # of connection points: 2
#     Edge 19, Type (0, 1), BuildingBlock: TEMPAE_clean_linker_10, # of connection points: 2
#     Edge 20, Type (0, 1), BuildingBlock: TEMPAE_clean_linker_10, # of connection points: 2
#     Edge 21, Type (0, 1), BuildingBlock: TEMPAE_clean_linker_10, # of connection points: 2
#     Edge 22, Type (0, 1), BuildingBlock: TEMPAE_clean_linker_10, # of connection points: 2
#     Edge 23, Type (0, 1), BuildingBlock: TEMPAE_clean_linker_10, # of connection points: 2
#     Edge 24, Type (0, 1), BuildingBlock: TEMPAE_clean_linker_10, # of connection points: 2
#     Edge 25, Type (0, 1), BuildingBlock: TEMPAE_clean_linker_10, # of connection points: 2
#     Edge 26, Type (0, 1), BuildingBlock: TEMPAE_clean_linker_10, # of connection points: 2
#     Edge 27, Type (0, 1), BuildingBlock: TEMPAE_clean_linker_10, # of connection points: 2
#     Edge 28, Type (0, 1), BuildingBlock: TEMPAE_clean_linker_10, # of connection points: 2
#     Edge 29, Type (0, 1), BuildingBlock: TEMPAE_clean_linker_10, # of connection points: 2
#     Edge 30, Type (0, 1), BuildingBlock: TEMPAE_clean_linker_10, # of connection points: 2
#     Edge 31, Type (0, 1), BuildingBlock: TEMPAE_clean_linker_10, # of connection points: 2
#     Edge 32, Type (0, 1), BuildingBlock: TEMPAE_clean_linker_10, # of connection points: 2
#     Edge 33, Type (0, 1), BuildingBlock: TEMPAE_clean_linker_10, # of connection points: 2
#     Edge 34, Type (0, 1), BuildingBlock: TEMPAE_clean_linker_10, # of connection points: 2
#     Edge 35, Type (0, 1), BuildingBlock: TEMPAE_clean_linker_10, # of connection points: 2
# Relax obj value: 0.314
# Max RMSD: 0.219
# Mean RMSD: 0.203
data_MOF--net-zzz--node1-WUSLED_clean_sbu_0--node2-BETDEL_clean_sbu_0--edge1-TEMPAE_clean_linker_10
_symmetry_space_group_name_H-M    P1
_symmetry_Int_Tables_number       1
_symmetry_cell_setting            triclinic
loop_
_symmetry_equiv_pos_as_xyz
'x, y, z'
_cell_length_a     61.785319
_cell_length_b     61.097083
_cell_length_c     21.520125
_cell_angle_alpha  90.906871
_cell_angle_beta   89.84163
_cell_angle_gamma 96.002052
loop_
_atom_site_label
_atom_site_type_symbol
_atom_site_fract_x
_atom_site_fract_y
_atom_site_fract_z
_atom_type_partial_charge
C0 C 0.78794 0.44758 0.20701 0.0
C1 C 0.80772 0.44578 0.17602 0.0
C2 C 0.8282 0.45476 0.27275 0.0
C3 C 0.8276 0.44925 0.20857 0.0
C4 C 0.80819 0.45608 0.30337 0.0
C5 C 0.78843 0.45252 0.27099 0.0
U6 U 0.74387 0.43957 0.07079 0.0
O7 O 0.70984 0.42436 0.07738 0.0
O8 O 0.71672 0.45997 0.06649 0.0
C9 C 0.7018 0.44302 0.06646 0.0
C10 C 0.76653 0.44578 0.1748 0.0
C11 C 0.68534 0.44283 0.01633 0.0
C12 C 0.64745 0.44378 0.98658 0.0
C13 C 0.6632 0.44123 0.03191 0.0
C14 C 0.67564 0.44859 0.90828 0.0
C15 C 0.65346 0.44801 0.92438 0.0
C16 C 0.69143 0.44608 0.95382 0.0
C17 C 0.78156 0.43 0.9283 0.0
C18 C 0.80094 0.43506 0.83071 0.0
C19 C 0.81991 0.42552 0.92351 0.0
C20 C 0.80058 0.42489 0.95747 0.0
C21 C 0.82024 0.43117 0.86044 0.0
C22 C 0.78169 0.43452 0.86464 0.0
C23 C 0.76152 0.43214 0.96272 0.0
O24 O 0.7629 0.4617 0.13707 0.0
O25 O 0.75791 0.42629 0.15521 0.0
O26 O 0.75473 0.41632 1.00107 0.0
O27 O 0.75907 0.45196 0.98429 0.0
H28 H 0.80782 0.44198 0.1267 0.0
H29 H 0.84253 0.44765 0.18324 0.0
H30 H 0.80771 0.46056 0.35218 0.0
H31 H 0.77341 0.45413 0.29595 0.0
H32 H 0.63053 0.44281 1.00055 0.0
H33 H 0.65811 0.43865 0.07968 0.0
H34 H 0.68091 0.45191 0.86101 0.0
H35 H 0.70844 0.44738 0.94058 0.0
H36 H 0.80103 0.43983 0.78241 0.0
H37 H 0.83482 0.42262 0.947 0.0
H38 H 0.80066 0.42131 0.00661 0.0
H39 H 0.76704 0.43853 0.84171 0.0
C40 C 0.94506 0.78453 0.20198 0.0
C41 C 0.94244 0.80439 0.17221 0.0
C42 C 0.95084 0.82509 0.26939 0.0
C43 C 0.9452 0.82451 0.20578 0.0
C44 C 0.95285 0.80503 0.29886 0.0
C45 C 0.94997 0.78509 0.26561 0.0
U46 U 0.93996 0.73954 0.06496 0.0
O47 O 0.96033 0.71212 0.06341 0.0
O48 O 0.92489 0.70526 0.07105 0.0
C49 C 0.94357 0.69703 0.06307 0.0
C50 C 0.94395 0.76292 0.16916 0.0
C51 C 0.94442 0.67949 0.01519 0.0
C52 C 0.95831 0.64523 0.98315 0.0
C53 C 0.95589 0.66152 0.02829 0.0
C54 C 0.93746 0.66443 0.91065 0.0
C55 C 0.94923 0.64643 0.92349 0.0
C56 C 0.93515 0.68085 0.95598 0.0
C57 C 0.93337 0.77889 0.92895 0.0
C58 C 0.93008 0.79944 0.83482 0.0
C59 C 0.94168 0.81841 0.93091 0.0
C60 C 0.93964 0.79844 0.96186 0.0
C61 C 0.93749 0.81901 0.8667 0.0
C62 C 0.92808 0.77949 0.86585 0.0
C63 C 0.93463 0.75756 0.95719 0.0
O64 O 0.92508 0.75411 0.14743 0.0
O65 O 0.96047 0.75918 0.13338 0.0
O66 O 0.95377 0.75449 0.97998 0.0
O67 O 0.91825 0.7502 0.9929 0.0
H68 H 0.93862 0.80439 0.12317 0.0
H69 H 0.94358 0.83965 0.18155 0.0
H70 H 0.95678 0.80473 0.34783 0.0
H71 H 0.95199 0.76998 0.28965 0.0
H72 H 0.96786 0.63198 0.99469 0.0
H73 H 0.96339 0.66029 0.07338 0.0
H74 H 0.93004 0.66586 0.86557 0.0
H75 H 0.92634 0.69468 0.94457 0.0
H76 H 0.92655 0.79946 0.78555 0.0
H77 H 0.94775 0.83317 0.95656 0.0
H78 H 0.94395 0.79811 0.01054 0.0
H79 H 0.92327 0.76441 0.83997 0.0
C80 C 0.73105 0.01202 0.25108 0.0
C81 C 0.713 0.01831 0.21897 0.0
C82 C 0.69029 0.01232 0.3117 0.0
C83 C 0.69283 0.0185 0.24901 0.0
C84 C 0.70852 0.0061 0.34347 0.0
C85 C 0.72865 0.00598 0.31347 0.0
U86 U 0.76748 0.01144 0.106 0.0
O87 O 0.80044 0.02781 0.08903 0.0
O88 O 0.79474 0.99173 0.08794 0.0
C89 C 0.80883 0.00911 0.07996 0.0
C90 C 0.75243 0.01137 0.22052 0.0
C91 C 0.82441 0.00801 0.02802 0.0
C92 C 0.86187 0.0055 0.99614 0.0
C93 C 0.84625 0.00658 0.04281 0.0
C94 C 0.83399 0.00703 0.91802 0.0
C95 C 0.85608 0.00588 0.93302 0.0
C96 C 0.81825 0.00811 0.96518 0.0
C97 C 0.7242 0.01317 0.96626 0.0
C98 C 0.71223 1.0024 0.86214 0.0
C99 C 0.68936 0.02224 0.93024 0.0
C100 C 0.70507 0.02306 0.97656 0.0
C101 C 0.69286 0.0118 0.87319 0.0
C102 C 0.72782 1.00286 0.90904 0.0
C103 C 0.73975 0.01255 0.0165 0.0
O104 O 0.75497 0.99333 0.18855 0.0
O105 O 0.76026 0.02935 0.19191 0.0
O106 O 0.74934 0.03068 0.04224 0.0
O107 O 0.74507 0.99387 0.03823 0.0
H108 H 0.7145 0.02304 0.17071 0.0
H109 H 0.67927 0.02365 0.22321 0.0
H110 H 0.70718 1.00089 0.39131 0.0
H111 H 0.74235 1.00097 0.33898 0.0
H112 H 0.87853 1.00417 0.00971 0.0
H113 H 0.8513 0.00629 0.09095 0.0
H114 H 0.82893 0.0075 0.86996 0.0
H115 H 0.80142 0.00912 0.95269 0.0
H116 H 0.71509 0.99448 0.81791 0.0
H117 H 0.67445 0.02971 0.93883 0.0
H118 H 0.70209 0.03093 0.02079 0.0
H119 H 0.74261 0.99517 0.90084 0.0
C120 C 0.58315 0.72485 0.22063 0.0
C121 C 0.58518 0.70493 0.18876 0.0
C122 C 0.5775 0.68397 0.28462 0.0
C123 C 0.58247 0.68476 0.22038 0.0
C124 C 0.57607 0.70415 0.31626 0.0
C125 C 0.57888 0.7242 0.28475 0.0
U126 U 0.58906 0.76902 0.08514 0.0
O127 O 0.56705 0.79494 0.0781 0.0
O128 O 0.60195 0.80417 0.09115 0.0
C129 C 0.58288 0.81102 0.07966 0.0
C130 C 0.58373 0.74647 0.18909 0.0
C131 C 0.58182 0.82797 0.03125 0.0
C132 C 0.56864 0.8625 1.00101 0.0
C133 C 0.57171 0.84685 0.04613 0.0
C134 C 0.58639 0.84106 0.92467 0.0
C135 C 0.5758 0.85993 0.93926 0.0
C136 C 0.58927 0.82521 0.97006 0.0
C137 C 0.60101 0.72925 0.94941 0.0
C138 C 0.60317 0.70901 0.85243 0.0
C139 C 0.59565 0.68948 0.94872 0.0
C140 C 0.59713 0.70947 0.98149 0.0
C141 C 0.59784 0.68921 0.88365 0.0
C142 C 0.60479 0.72893 0.88525 0.0
C143 C 0.59805 0.75031 0.97917 0.0
O144 O 0.60262 0.75636 0.17124 0.0
O145 O 0.56792 0.74902 0.15001 0.0
O146 O 0.57816 0.7524 0.99833 0.0
O147 O 0.6132 0.75861 0.01816 0.0
H148 H 0.58849 0.7049 0.13941 0.0
H149 H 0.58414 0.66975 0.19422 0.0
H150 H 0.572 0.70452 0.36518 0.0
H151 H 0.5771 0.73929 0.31049 0.0
H152 H 0.55996 0.8763 0.0146 0.0
H153 H 0.56562 0.84926 0.09274 0.0
H154 H 0.59246 0.83844 0.87822 0.0
H155 H 0.59704 0.8107 0.95718 0.0
H156 H 0.60503 0.70914 0.80235 0.0
H157 H 0.59132 0.67438 0.97365 0.0
H158 H 0.59402 0.70958 0.03096 0.0
H159 H 0.60774 0.74416 0.85998 0.0
C160 C 0.23344 0.55535 0.9356 0.0
C161 C 0.21554 0.56553 0.958 0.0
C162 C 0.19332 0.55066 0.8692 0.0
C163 C 0.19568 0.56323 0.92507 0.0
C164 C 0.21148 0.54064 0.8475 0.0
C165 C 0.23117 0.54303 0.88005 0.0
U166 U 0.27769 0.56171 0.07091 0.0
O167 O 0.30481 0.5411 0.07254 0.0
O168 O 0.31167 0.57685 0.06433 0.0
C169 C 0.31977 0.558 0.07211 0.0
C170 C 0.25493 0.55705 0.96706 0.0
C171 C 0.33725 0.55742 0.11886 0.0
C172 C 0.37078 0.54279 0.14914 0.0
C173 C 0.35469 0.54522 0.10492 0.0
C174 C 0.35277 0.56547 0.22195 0.0
C175 C 0.36993 0.55268 0.20836 0.0
C176 C 0.33643 0.56767 0.17772 0.0
C177 C 0.23831 0.57066 0.20764 0.0
C178 C 0.2183 0.57926 0.30032 0.0
C179 C 0.19896 0.56722 0.20581 0.0
C180 C 0.21873 0.56563 0.17537 0.0
C181 C 0.19857 0.5739 0.26874 0.0
C182 C 0.23802 0.57765 0.26989 0.0
C183 C 0.25929 0.56802 0.17871 0.0
O184 O 0.26335 0.57629 0.98912 0.0
O185 O 0.259 0.5405 1.00187 0.0
O186 O 0.26165 0.54839 0.15536 0.0
O187 O 0.26745 0.58421 0.14344 0.0
H188 H 0.21688 0.57521 1.00068 0.0
H189 H 0.18228 0.57147 0.94324 0.0
H190 H 0.21047 0.53045 0.80581 0.0
H191 H 0.24474 0.53503 0.86175 0.0
H192 H 0.38386 0.53298 0.13718 0.0
H193 H 0.35565 0.53716 0.05992 0.0
H194 H 0.35162 0.57314 0.26741 0.0
H195 H 0.32303 0.57703 0.18983 0.0
H196 H 0.21848 0.58463 0.34856 0.0
H197 H 0.18398 0.56266 0.18058 0.0
H198 H 0.21876 0.56015 0.12724 0.0
H199 H 0.25309 0.58161 0.29525 0.0
C200 C 0.08557 0.22841 0.92487 0.0
C201 C 0.0884 0.20887 0.95605 0.0
C202 C 0.07788 0.1871 0.86221 0.0
C203 C 0.0847 0.18839 0.92484 0.0
C204 C 0.07561 0.20682 0.83121 0.0
C205 C 0.07941 0.22717 0.86216 0.0
U206 U 0.09156 0.26918 0.06735 0.0
O207 O 0.0724 0.29722 0.07851 0.0
O208 O 0.10803 0.30303 0.07608 0.0
C209 C 0.08956 0.31171 0.08353 0.0
C210 C 0.08753 0.25025 0.9564 0.0
C211 C 0.08835 0.32864 0.13291 0.0
C212 C 0.08199 0.36633 0.1587 0.0
C213 C 0.08638 0.35026 0.11486 0.0
C214 C 0.08257 0.3397 0.24061 0.0
C215 C 0.07958 0.3612 0.22194 0.0
C216 C 0.08676 0.32346 0.19632 0.0
C217 C 0.09541 0.23134 0.21895 0.0
C218 C 0.07755 0.21691 0.31215 0.0
C219 C 0.10408 0.19664 0.25922 0.0
C220 C 0.1079 0.21349 0.21647 0.0
C221 C 0.08797 0.19774 0.30497 0.0
C222 C 0.08113 0.23362 0.26881 0.0
C223 C 0.09413 0.24489 0.16416 0.0
O224 O 0.07096 0.25441 0.99136 0.0
O225 O 0.10644 0.25753 0.981 0.0
O226 O 0.1116 0.25295 0.13376 0.0
O227 O 0.07536 0.24973 0.14256 0.0
H228 H 0.09303 0.20942 0.00461 0.0
H229 H 0.0865 0.17354 0.95027 0.0
H230 H 0.07074 0.20655 0.78287 0.0
H231 H 0.07714 0.24202 0.8372 0.0
H232 H 0.08002 0.38275 0.14289 0.0
H233 H 0.08745 0.35457 0.06621 0.0
H234 H 0.08069 0.33522 0.28897 0.0
H235 H 0.08804 0.30679 0.21123 0.0
H236 H 0.06495 0.21791 0.34689 0.0
H237 H 0.11213 0.18183 0.2529 0.0
H238 H 0.11893 0.21149 0.17805 0.0
H239 H 0.07146 0.24742 0.27134 0.0
C240 C 0.29004 0.01152 0.88039 0.0
C241 C 0.3096 0.01944 0.91022 0.0
C242 C 0.33038 0.01019 0.81884 0.0
C243 C 0.32958 0.01895 0.87945 0.0
C244 C 0.31088 1.00202 0.78935 0.0
C245 C 0.29087 1.00281 0.81977 0.0
U246 U 0.25651 0.01113 0.02907 0.0
O247 O 0.22953 0.0303 0.0564 0.0
O248 O 0.22432 0.99416 0.05165 0.0
C249 C 0.21589 0.01259 0.06488 0.0
C250 C 0.26877 0.01203 0.91202 0.0
C251 C 0.20091 0.01271 0.11879 0.0
C252 C 0.16693 0.02377 0.16044 0.0
C253 C 0.18302 0.02496 0.11444 0.0
C254 C 0.18664 0.9985 0.21778 0.0
C255 C 0.16827 0.01025 0.21229 0.0
C256 C 0.20278 0.99964 0.17133 0.0
C257 C 0.29579 0.00756 0.17334 0.0
C258 C 0.31899 0.02603 0.25318 0.0
C259 C 0.31505 0.98621 0.24487 0.0
C260 C 0.3005 0.98712 0.19589 0.0
C261 C 0.32518 0.0057 0.2714 0.0
C262 C 0.30424 0.02697 0.20461 0.0
C263 C 0.28781 0.00873 0.10928 0.0
O264 O 0.2613 0.99383 0.94012 0.0
O265 O 0.26638 0.02984 0.94533 0.0
O266 O 0.28187 0.02752 0.08996 0.0
O267 O 0.27653 0.99125 0.0849 0.0
H268 H 0.30943 0.02601 0.95726 0.0
H269 H 0.34445 0.02518 0.90322 0.0
H270 H 0.31114 0.99522 0.74259 0.0
H271 H 0.27601 0.99658 0.79597 0.0
H272 H 0.1533 0.03337 0.15507 0.0
H273 H 0.18119 0.03512 0.07435 0.0
H274 H 0.18819 0.98785 0.25692 0.0
H275 H 0.21639 0.98994 0.17576 0.0
H276 H 0.32686 0.04121 0.2731 0.0
H277 H 0.31998 0.9704 0.25783 0.0
H278 H 0.29461 0.97192 0.17207 0.0
H279 H 0.30113 0.04297 0.18791 0.0
C280 C 0.43067 0.2845 0.92383 0.0
C281 C 0.42464 0.30433 0.94925 0.0
C282 C 0.43693 0.32414 0.85475 0.0
C283 C 0.42766 0.32394 0.91492 0.0
C284 C 0.44219 0.30401 0.82922 0.0
C285 C 0.43913 0.28458 0.86323 0.0
U286 U 0.42342 0.24109 0.0622 0.0
O287 O 0.41137 0.20569 0.05587 0.0
O288 O 0.44607 0.21589 0.06989 0.0
C289 C 0.4307 0.1994 0.06708 0.0
C290 C 0.42965 0.2635 0.95845 0.0
C291 C 0.43237 0.18217 0.11413 0.0
C292 C 0.44564 0.14722 0.13935 0.0
C293 C 0.44099 0.16277 0.0956 0.0
C294 C 0.43217 0.16966 0.2215 0.0
C295 C 0.4417 0.1506 0.20301 0.0
C296 C 0.42771 0.18543 0.17748 0.0
C297 C 0.41096 0.2821 0.1919 0.0
C298 C 0.41279 0.30554 0.28394 0.0
C299 C 0.41918 0.32141 0.18205 0.0
C300 C 0.41517 0.30059 0.15454 0.0
C301 C 0.41931 0.32383 0.24717 0.0
C302 C 0.40867 0.28472 0.25628 0.0
C303 C 0.4134 0.26018 0.16687 0.0
O304 O 0.44506 0.26139 0.99919 0.0
O305 O 0.41059 0.2536 0.97491 0.0
O306 O 0.39863 0.25168 0.12702 0.0
O307 O 0.43339 0.25737 0.15017 0.0
H308 H 0.41798 0.30475 0.99571 0.0
H309 H 0.42341 0.33908 0.93631 0.0
H310 H 0.4489 0.30326 0.78278 0.0
H311 H 0.44379 0.26951 0.8423 0.0
H312 H 0.4527 0.13263 0.12339 0.0
H313 H 0.4448 0.15992 0.04715 0.0
H314 H 0.42902 0.1728 0.2702 0.0
H315 H 0.42125 0.2004 0.19304 0.0
H316 H 0.41285 0.30695 0.33419 0.0
H317 H 0.4239 0.33538 0.15277 0.0
H318 H 0.41708 0.29873 0.10482 0.0
H319 H 0.4055 0.27049 0.28562 0.0
Dy320 Dy 0.01788 0.98896 0.62658 0.0
C321 C 0.01313 0.05411 0.43841 0.0
C322 C 0.01329 0.95933 0.71977 0.0
Dy323 Dy 0.00662 0.02077 0.51937 0.0
O324 O 0.02684 0.95887 0.67378 0.0
O325 O 1.0041 0.97745 0.71764 0.0
O326 O 0.04385 0.97639 0.56673 0.0
O327 O 0.036 0.00861 0.5558 0.0
C328 C 0.04685 0.99394 0.53326 0.0
C329 C 0.97236 0.01207 0.59745 0.0
O330 O 0.9993 0.98793 0.47105 0.0
O331 O 0.99493 0.96819 0.56281 0.0
O332 O 0.99855 0.05265 0.48193 0.0
O333 O 0.0228 0.03617 0.43539 0.0
O334 O 0.97175 0.02457 0.54928 0.0
O335 O 0.99073 0.00501 0.59754 0.0
O336 O 0.02929 0.02124 0.67438 0.0
O337 O 0.0248 0.04353 0.58894 0.0
C338 C 0.99317 0.96949 0.50143 0.0
C339 C 0.03097 0.04078 0.64709 0.0
Dy340 Dy 0.49744 0.98686 0.52836 0.0
C341 C 0.56173 0.0447 0.65497 0.0
C342 C 0.46208 0.96816 0.46491 0.0
Dy343 Dy 0.52429 0.02381 0.60925 0.0
O344 O 0.48077 0.97499 0.44035 0.0
O345 O 0.46385 0.96962 0.52505 0.0
O346 O 0.52857 0.97451 0.4949 0.0
O347 O 0.52763 0.00799 0.51864 0.0
C348 C 0.53997 0.99357 0.50317 0.0
C349 C 0.48356 0.01536 0.65382 0.0
O350 O 0.5105 0.04665 0.54314 0.0
O351 O 0.48924 0.01898 0.48802 0.0
O352 O 0.54509 0.03726 0.68826 0.0
O353 O 0.55675 0.04267 0.59645 0.0
O354 O 0.49769 0.03034 0.6784 0.0
O355 O 0.49257 0.00659 0.60877 0.0
O356 O 0.50652 0.96607 0.60706 0.0
O357 O 0.53487 0.99143 0.64178 0.0
C358 C 0.49613 0.04008 0.49894 0.0
C359 C 0.52415 0.97138 0.6415 0.0
Dy360 Dy 0.50652 0.51841 0.63396 0.0
C361 C 0.50442 0.45752 0.42946 0.0
C362 C 0.52869 0.5465 0.71365 0.0
Dy363 Dy 0.51462 0.4889 0.51738 0.0
O364 O 0.50758 0.54137 0.7169 0.0
O365 O 0.53721 0.5351 0.67047 0.0
O366 O 0.4751 0.5313 0.60291 0.0
O367 O 0.49196 0.51115 0.54598 0.0
C368 C 0.47588 0.52221 0.54764 0.0
C369 C 0.54588 0.49203 0.60454 0.0
O370 O 0.52757 0.52112 0.47542 0.0
O371 O 0.52378 0.54217 0.56541 0.0
O372 O 0.51924 0.45671 0.47174 0.0
O373 O 0.49643 0.47634 0.4323 0.0
O374 O 0.54988 0.49013 0.54524 0.0
O375 O 0.52558 0.49107 0.61292 0.0
O376 O 0.49185 0.48641 0.67351 0.0
O377 O 0.49155 0.467 0.57888 0.0
C378 C 0.52987 0.54019 0.50651 0.0
C379 C 0.48643 0.46831 0.63912 0.0
Dy380 Dy 1.00161 0.4894 0.62162 0.0
C381 C 0.04947 0.54042 0.43755 0.0
C382 C 0.96772 0.48036 0.69876 0.0
Dy383 Dy 0.02007 0.52004 0.51667 0.0
O384 O 0.98442 0.46887 0.69628 0.0
O385 O 0.9708 0.49739 0.66354 0.0
O386 O 0.01082 0.45677 0.58611 0.0
O387 O 0.01843 0.48537 0.53511 0.0
C388 C 0.01967 0.46485 0.53522 0.0
C389 C 0.99499 0.53801 0.60079 0.0
O390 O 0.98992 0.50597 0.4661 0.0
O391 O 0.97415 0.48789 0.55197 0.0
O392 O 0.03998 0.55011 0.48252 0.0
O393 O 0.04171 0.51985 0.43329 0.0
O394 O 0.99529 0.54311 0.54223 0.0
O395 O 0.0089 0.52477 0.61102 0.0
O396 O 0.03324 0.50063 0.66903 0.0
O397 O 0.04834 0.51998 0.5836 0.0
C398 C 0.97332 0.49443 0.49375 0.0
C399 C 0.04971 0.51238 0.64095 0.0
C400 C 0.15465 0.00783 0.32307 0.0
C401 C 0.15022 0.00809 0.25915 0.0
C402 C 0.1377 0.00612 0.36727 0.0
C403 C 0.11572 1.00437 0.34736 0.0
C404 C 0.11117 1.00471 0.283 0.0
C405 C 0.12839 0.00653 0.23982 0.0
C406 C 0.14328 0.00659 0.43548 0.0
C407 C 0.08805 1.00326 0.25976 0.0
C408 C 0.07232 0.97854 0.45809 0.0
C409 C 0.06358 0.99699 0.48351 0.0
C410 C 0.08901 0.98074 0.41335 0.0
C411 C 0.09752 1.00195 0.39388 0.0
C412 C 0.0887 0.02067 0.41935 0.0
C413 C 0.07165 0.01796 0.46324 0.0
C414 C 0.09772 0.96032 0.38736 0.0
C415 C 0.09711 0.04369 0.40094 0.0
H416 H 0.17141 0.00938 0.33866 0.0
H417 H 0.12471 0.00647 0.1906 0.0
H418 H 0.13645 0.02071 0.45868 0.0
H419 H 0.13577 0.99137 0.45771 0.0
H420 H 0.16112 0.00807 0.44365 0.0
H421 H 0.08714 1.00321 0.20821 0.0
H422 H 0.07867 0.98807 0.27697 0.0
H423 H 0.08008 0.01747 0.27827 0.0
H424 H 0.06611 0.96226 0.47338 0.0
H425 H 0.06508 0.03233 0.4829 0.0
H426 H 0.11528 0.96068 0.39854 0.0
H427 H 0.09622 0.95984 0.33597 0.0
H428 H 0.08903 0.94499 0.40613 0.0
H429 H 0.0964 0.05513 0.44125 0.0
H430 H 0.08665 0.04908 0.36351 0.0
H431 H 0.11411 0.04498 0.38366 0.0
C432 C 0.46972 0.12791 0.24526 0.0
C433 C 0.4488 0.13482 0.24944 0.0
C434 C 0.47692 0.11291 0.28751 0.0
C435 C 0.46279 0.10413 0.33499 0.0
C436 C 0.44151 0.11088 0.33919 0.0
C437 C 0.43491 0.1264 0.29707 0.0
C438 C 0.49968 0.10631 0.28084 0.0
C439 C 0.42568 0.10192 0.38835 0.0
C440 C 0.47591 0.04977 0.40367 0.0
C441 C 0.48724 0.05665 0.45837 0.0
C442 C 0.46756 0.06492 0.364 0.0
C443 C 0.47035 0.08768 0.37915 0.0
C444 C 0.48125 0.09472 0.43505 0.0
C445 C 0.4897 0.07919 0.47367 0.0
C446 C 0.4558 0.05654 0.3056 0.0
C447 C 0.48405 0.11871 0.45392 0.0
H448 H 0.48065 0.13449 0.20904 0.0
H449 H 0.41869 0.13157 0.30059 0.0
H450 H 0.50854 0.10891 0.32557 0.0
H451 H 0.49891 0.08853 0.26873 0.0
H452 H 0.50916 0.11576 0.24432 0.0
H453 H 0.4086 0.10379 0.37521 0.0
H454 H 0.42708 0.08427 0.39704 0.0
H455 H 0.42931 0.11117 0.43253 0.0
H456 H 0.47376 0.03243 0.39112 0.0
H457 H 0.49814 0.08473 0.51606 0.0
H458 H 0.46434 0.06386 0.26426 0.0
H459 H 0.43909 0.06166 0.30567 0.0
H460 H 0.4547 0.03833 0.30087 0.0
H461 H 0.49329 0.12843 0.4176 0.0
H462 H 0.49272 0.12159 0.49893 0.0
H463 H 0.46786 0.12495 0.458 0.0
C464 C 0.39037 0.52694 0.26913 0.0
C465 C 0.38633 0.54857 0.25639 0.0
C466 C 0.40547 0.52244 0.31476 0.0
C467 C 0.41729 0.54002 0.34781 0.0
C468 C 0.41368 0.56199 0.33396 0.0
C469 C 0.39801 0.56599 0.28911 0.0
C470 C 0.40831 0.49879 0.32876 0.0
C471 C 0.42648 0.58125 0.36626 0.0
C472 C 0.43934 0.52942 0.50886 0.0
C473 C 0.46081 0.52544 0.49588 0.0
C474 C 0.42501 0.53386 0.4611 0.0
C475 C 0.43255 0.53531 0.39887 0.0
C476 C 0.45444 0.53175 0.3857 0.0
C477 C 0.46818 0.5264 0.4342 0.0
C478 C 0.40173 0.53693 0.47734 0.0
C479 C 0.46346 0.53396 0.32062 0.0
H480 H 0.38128 0.51342 0.24424 0.0
H481 H 0.39512 0.58276 0.27889 0.0
H482 H 0.4256 0.4958 0.32307 0.0
H483 H 0.40376 0.49534 0.37783 0.0
H484 H 0.39819 0.48703 0.29815 0.0
H485 H 0.42257 0.59729 0.34809 0.0
H486 H 0.42304 0.58088 0.41685 0.0
H487 H 0.44418 0.58009 0.36032 0.0
H488 H 0.43367 0.52883 0.55658 0.0
H489 H 0.48493 0.52377 0.42418 0.0
H490 H 0.39049 0.52535 0.44933 0.0
H491 H 0.39828 0.55385 0.46591 0.0
H492 H 0.39814 0.53415 0.52737 0.0
H493 H 0.45538 0.52073 0.29027 0.0
H494 H 0.4813 0.53292 0.31915 0.0
H495 H 0.46004 0.54991 0.3009 0.0
C496 C 0.0548 0.38955 0.25206 0.0
C497 C 0.07245 0.3779 0.26687 0.0
C498 C 0.04724 0.40495 0.29387 0.0
C499 C 0.05775 0.40918 0.35186 0.0
C500 C 0.07597 0.39789 0.36647 0.0
C501 C 0.08294 0.38219 0.32418 0.0
C502 C 0.02749 0.41614 0.27674 0.0
C503 C 0.08788 0.40215 0.42726 0.0
C504 C 0.04471 0.46048 0.44375 0.0
C505 C 0.02948 0.45132 0.48696 0.0
C506 C 0.05442 0.44699 0.40014 0.0
C507 C 0.04843 0.4239 0.39908 0.0
C508 C 0.03289 0.41475 0.44241 0.0
C509 C 0.02382 0.4285 0.48598 0.0
C510 C 0.07125 0.45738 0.35568 0.0
C511 C 0.02563 0.39037 0.4425 0.0
H512 H 0.04645 0.38615 0.20817 0.0
H513 H 0.0967 0.37338 0.33573 0.0
H514 H 0.0141 0.41145 0.30997 0.0
H515 H 0.03126 0.43427 0.28011 0.0
H516 H 0.02166 0.41168 0.22897 0.0
H517 H 0.10314 0.39405 0.42868 0.0
H518 H 0.09189 0.42011 0.43525 0.0
H519 H 0.07725 0.39589 0.46608 0.0
H520 H 0.04937 0.47806 0.44491 0.0
H521 H 0.01202 0.42131 0.51922 0.0
H522 H 0.06577 0.45411 0.30708 0.0
H523 H 0.08673 0.44989 0.36122 0.0
H524 H 0.07448 0.47545 0.36319 0.0
H525 H 0.01884 0.38502 0.39637 0.0
H526 H 0.01309 0.38591 0.47851 0.0
H527 H 0.03977 0.38103 0.45098 0.0
C528 C 0.89379 0.01739 0.89264 0.0
C529 C 0.87328 0.00547 0.88386 0.0
C530 C 0.91033 0.01712 0.84771 0.0
C531 C 0.90636 1.00478 0.79191 0.0
C532 C 0.88583 0.99246 0.78295 0.0
C533 C 0.86953 0.99299 0.82883 0.0
C534 C 0.93193 0.03046 0.8595 0.0
C535 C 0.88101 0.97888 0.72452 0.0
C536 C 0.93934 0.02409 0.64929 0.0
C537 C 0.95532 0.00943 0.64647 0.0
C538 C 0.92335 0.02264 0.69609 0.0
C539 C 0.92315 0.00602 0.74129 0.0
C540 C 0.93911 0.99095 0.7382 0.0
C541 C 0.95492 0.99283 0.69067 0.0
C542 C 0.90675 0.03908 0.6975 0.0
C543 C 0.93961 0.97304 0.78546 0.0
H544 H 0.89685 0.02734 0.93444 0.0
H545 H 0.85392 0.98344 0.82184 0.0
H546 H 0.94544 0.02004 0.85282 0.0
H547 H 0.93433 0.04398 0.82556 0.0
H548 H 0.93304 0.03775 0.90716 0.0
H549 H 0.86458 0.96958 0.72541 0.0
H550 H 0.88213 0.98974 0.68356 0.0
H551 H 0.89331 0.96703 0.71812 0.0
H552 H 0.9395 0.03699 0.61523 0.0
H553 H 0.96679 0.98117 0.68755 0.0
H554 H 0.90786 0.04843 0.7422 0.0
H555 H 0.89011 0.03034 0.69445 0.0
H556 H 0.90902 0.05094 0.65886 0.0
H557 H 0.94285 0.98053 0.83225 0.0
H558 H 0.95232 0.96196 0.7749 0.0
H559 H 0.92357 0.96305 0.78753 0.0
C560 C 0.57036 0.89879 0.90731 0.0
C561 C 0.57138 0.87653 0.89074 0.0
C562 C 0.56395 0.91408 0.86449 0.0
C563 C 0.55886 0.90734 0.80248 0.0
C564 C 0.56114 0.8853 0.78421 0.0
C565 C 0.56713 0.87017 0.82841 0.0
C566 C 0.56206 0.93741 0.88628 0.0
C567 C 0.55699 0.8776 0.71795 0.0
C568 C 0.51896 0.939 0.71276 0.0
C569 C 0.53294 0.95429 0.68005 0.0
C570 C 0.5272 0.92371 0.75252 0.0
C571 C 0.55002 0.92306 0.75817 0.0
C572 C 0.56418 0.938 0.72334 0.0
C573 C 0.55551 0.95365 0.68571 0.0
C574 C 0.51145 0.9086 0.78983 0.0
C575 C 0.5885 0.93725 0.72494 0.0
H576 H 0.57435 0.90436 0.95429 0.0
H577 H 0.5678 0.85317 0.81423 0.0
H578 H 0.57236 0.94915 0.85711 0.0
H579 H 0.54499 0.94121 0.88121 0.0
H580 H 0.56702 0.94023 0.93559 0.0
H581 H 0.55936 0.85996 0.71095 0.0
H582 H 0.54015 0.88008 0.70416 0.0
H583 H 0.56818 0.88756 0.68642 0.0
H584 H 0.50153 0.93951 0.70892 0.0
H585 H 0.56643 0.96525 0.65989 0.0
H586 H 0.51475 0.91138 0.84017 0.0
H587 H 0.51374 0.89119 0.77891 0.0
H588 H 0.49423 0.91118 0.78059 0.0
H589 H 0.59737 0.95113 0.69964 0.0
H590 H 0.59253 0.92161 0.70313 0.0
H591 H 0.59446 0.93756 0.77351 0.0
C592 C 0.63698 0.4448 0.81653 0.0
C593 C 0.6368 0.45313 0.87773 0.0
C594 C 0.62164 0.45018 0.77229 0.0
C595 C 0.60595 0.46459 0.78905 0.0
C596 C 0.60558 0.47285 0.85089 0.0
C597 C 0.62086 0.46696 0.89431 0.0
C598 C 0.62227 0.44046 0.7075 0.0
C599 C 0.5893 0.48832 0.87104 0.0
C600 C 0.58196 0.49647 0.65875 0.0
C601 C 0.56101 0.48553 0.65272 0.0
C602 C 0.59655 0.49006 0.70359 0.0
C603 C 0.59039 0.47167 0.74164 0.0
C604 C 0.56925 0.46038 0.73488 0.0
C605 C 0.55471 0.46768 0.69131 0.0
C606 C 0.61855 0.50309 0.71062 0.0
C607 C 0.56215 0.44021 0.77236 0.0
H608 H 0.64902 0.4339 0.80331 0.0
H609 H 0.62069 0.47375 0.94112 0.0
H610 H 0.606 0.43218 0.69477 0.0
H611 H 0.62634 0.45376 0.67362 0.0
H612 H 0.63443 0.42837 0.7029 0.0
H613 H 0.59117 0.49334 0.92074 0.0
H614 H 0.59124 0.50331 0.84224 0.0
H615 H 0.57251 0.48037 0.86375 0.0
H616 H 0.5868 0.51029 0.62901 0.0
H617 H 0.53858 0.45898 0.68609 0.0
H618 H 0.63157 0.49245 0.69958 0.0
H619 H 0.62095 0.5089 0.75949 0.0
H620 H 0.62048 0.51758 0.67979 0.0
H621 H 0.57198 0.42675 0.75847 0.0
H622 H 0.54466 0.43439 0.76536 0.0
H623 H 0.56503 0.44358 0.82261 0.0
C624 C 0.9569 0.63526 0.81265 0.0
C625 C 0.95282 0.62935 0.87475 0.0
C626 C 0.9621 0.61965 0.76762 0.0
C627 C 0.96336 0.59752 0.78478 0.0
C628 C 0.95848 0.59127 0.84675 0.0
C629 C 0.95326 0.60717 0.89078 0.0
C630 C 0.96705 0.62703 0.70206 0.0
C631 C 0.9594 0.56787 0.86711 0.0
C632 C 0.96437 0.55462 0.65362 0.0
C633 C 0.98661 0.55216 0.64963 0.0
C634 C 0.95643 0.56875 0.69872 0.0
C635 C 0.9712 0.58134 0.73902 0.0
C636 C 0.99371 0.57883 0.73479 0.0
C637 C 1.00109 0.56399 0.6909 0.0
C638 C 0.93227 0.57029 0.70299 0.0
C639 C 0.01011 0.59221 0.77569 0.0
H640 H 0.95684 0.6523 0.79952 0.0
H641 H 0.94968 0.60222 0.93814 0.0
H642 H 0.98431 0.62514 0.6909 0.0
H643 H 0.95685 0.61654 0.66858 0.0
H644 H 0.96417 0.64447 0.69515 0.0
H645 H 0.95282 0.5651 0.91475 0.0
H646 H 0.95009 0.55622 0.83448 0.0
H647 H 0.97653 0.56395 0.86639 0.0
H648 H 0.9532 0.54533 0.62181 0.0
H649 H 0.01832 0.56216 0.6874 0.0
H650 H 0.9287 0.5871 0.69074 0.0
H651 H 0.92656 0.56734 0.75137 0.0
H652 H 0.92285 0.55824 0.67156 0.0
H653 H 0.00937 0.61001 0.76761 0.0
H654 H 0.02701 0.58827 0.76682 0.0
H655 H 0.00615 0.5892 0.82533 0.0
C656 C 0.07595 0.17463 0.39623 0.0
C657 C 0.07783 0.1773 0.33195 0.0
C658 C 0.06481 0.15539 0.42035 0.0
C659 C 0.05511 0.13904 0.37876 0.0
C660 C 0.05664 0.14207 0.3139 0.0
C661 C 0.06814 0.1611 0.29134 0.0
C662 C 0.06431 0.15222 0.48975 0.0
C663 C 0.04627 0.12511 0.2682 0.0
C664 C 0.04594 0.0785 0.41011 0.0
C665 C 0.02338 0.07555 0.4188 0.0
C666 C 0.05679 0.09953 0.40259 0.0
C667 C 0.04463 0.11785 0.40134 0.0
C668 C 0.0219 0.11505 0.41165 0.0
C669 C 0.01153 0.09385 0.42084 0.0
C670 C 0.08118 0.10182 0.39419 0.0
C671 C 0.00855 0.13436 0.41165 0.0
H672 H 0.08336 0.1874 0.42728 0.0
H673 H 0.0692 0.16359 0.24157 0.0
H674 H 0.04832 0.1442 0.50527 0.0
H675 H 0.07683 0.1413 0.50231 0.0
H676 H 0.06788 0.16809 0.51549 0.0
H677 H 0.04788 0.13069 0.21938 0.0
H678 H 0.05403 0.1096 0.27213 0.0
H679 H 0.02872 0.12131 0.27902 0.0
H680 H 0.05526 0.06446 0.41137 0.0
H681 H 0.99417 0.09157 0.42992 0.0
H682 H 0.08889 0.11867 0.40482 0.0
H683 H 0.08505 0.09751 0.3454 0.0
H684 H 0.08865 0.09035 0.42493 0.0
H685 H 0.01572 0.14742 0.4441 0.0
H686 H 0.99137 0.12961 0.42529 0.0
H687 H 0.0088 0.14149 0.36452 0.0
C688 C 0.36508 0.01208 0.27858 0.0
C689 C 0.34525 1.00478 0.30674 0.0
C690 C 0.38475 0.00744 0.30445 0.0
C691 C 0.38441 0.99567 0.36064 0.0
C692 C 0.36444 0.98991 0.39181 0.0
C693 C 0.34495 0.99403 0.36348 0.0
C694 C 0.40543 0.01452 0.26922 0.0
C695 C 0.36347 0.97866 0.45382 0.0
C696 C 0.42908 0.96003 0.39866 0.0
C697 C 0.44238 0.97446 0.43628 0.0
C698 C 0.41021 0.96694 0.37245 0.0
C699 C 0.40468 0.9885 0.38557 0.0
C700 C 0.41856 1.00323 0.42225 0.0
C701 C 0.43738 0.99604 0.44659 0.0
C702 C 0.39631 0.95133 0.33033 0.0
C703 C 0.41358 0.02652 0.43581 0.0
H704 H 0.36515 0.0203 0.23424 0.0
H705 H 0.32948 0.98844 0.38488 0.0
H706 H 0.42041 0.00994 0.29155 0.0
H707 H 0.40435 0.00712 0.22173 0.0
H708 H 0.40698 0.03266 0.2638 0.0
H709 H 0.36367 0.96068 0.44622 0.0
H710 H 0.37762 0.98464 0.48333 0.0
H711 H 0.34832 0.98137 0.47942 0.0
H712 H 0.43341 0.94352 0.38986 0.0
H713 H 0.44821 0.00735 0.47416 0.0
H714 H 0.39342 0.95946 0.28576 0.0
H715 H 0.38023 0.9469 0.35235 0.0
H716 H 0.40392 0.93597 0.32028 0.0
H717 H 0.41436 0.03595 0.39209 0.0
H718 H 0.42521 0.03521 0.4695 0.0
H719 H 0.39684 0.02646 0.45475 0.0
C720 C 0.42147 0.35383 0.32867 0.0
C721 C 0.4302 0.34403 0.27626 0.0
C722 C 0.43278 0.37234 0.35768 0.0
C723 C 0.45334 0.38078 0.33399 0.0
C724 C 0.46237 0.37055 0.28213 0.0
C725 C 0.45066 0.35237 0.25382 0.0
C726 C 0.42292 0.38232 0.41432 0.0
C727 C 0.48457 0.37866 0.2569 0.0
C728 C 0.47646 0.43994 0.35726 0.0
C729 C 0.49268 0.43783 0.40124 0.0
C730 C 0.46286 0.4215 0.33684 0.0
C731 C 0.46555 0.40063 0.36147 0.0
C732 C 0.48153 0.39853 0.40718 0.0
C733 C 0.49512 0.41718 0.42608 0.0
C734 C 0.44557 0.42427 0.28909 0.0
C735 C 0.48396 0.37673 0.43696 0.0
H736 H 0.40585 0.34706 0.34683 0.0
H737 H 0.45782 0.34428 0.2148 0.0
H738 H 0.42722 0.40039 0.41756 0.0
H739 H 0.4049 0.37884 0.41441 0.0
H740 H 0.42919 0.37493 0.45655 0.0
H741 H 0.48921 0.36879 0.21612 0.0
H742 H 0.48486 0.39609 0.24295 0.0
H743 H 0.49704 0.37794 0.29363 0.0
H744 H 0.4742 0.45606 0.33953 0.0
H745 H 0.50713 0.41569 0.462 0.0
H746 H 0.42939 0.4177 0.30723 0.0
H747 H 0.44871 0.41467 0.24638 0.0
H748 H 0.445 0.44176 0.27649 0.0
H749 H 0.46902 0.37147 0.46388 0.0
H750 H 0.49814 0.37762 0.46888 0.0
H751 H 0.48582 0.36387 0.40091 0.0
C752 C 0.17467 0.56519 0.36102 0.0
C753 C 0.17759 0.57429 0.30173 0.0
C754 C 0.15407 0.56281 0.389 0.0
C755 C 0.13608 0.56944 0.35636 0.0
C756 C 0.13928 0.58015 0.29883 0.0
C757 C 0.16003 0.58247 0.27218 0.0
C758 C 0.15143 0.55172 0.45116 0.0
C759 C 0.12049 0.58785 0.26349 0.0
C760 C 0.08179 0.53548 0.373 0.0
C761 C 0.07043 0.5491 0.41106 0.0
C762 C 0.10335 0.54183 0.35597 0.0
C763 C 0.11364 0.56238 0.3771 0.0
C764 C 0.10218 0.57631 0.41521 0.0
C765 C 0.0806 0.56949 0.43171 0.0
C766 C 0.11525 0.52633 0.31632 0.0
C767 C 0.11292 0.59797 0.44022 0.0
H768 H 0.18822 0.55885 0.3842 0.0
H769 H 0.16239 0.59006 0.22713 0.0
H770 H 0.13868 0.55854 0.47977 0.0
H771 H 0.14645 0.5339 0.44355 0.0
H772 H 0.16693 0.55346 0.47767 0.0
H773 H 0.12602 0.59777 0.22251 0.0
H774 H 0.10953 0.57335 0.24722 0.0
H775 H 0.11084 0.59787 0.29427 0.0
H776 H 0.07405 0.51952 0.35814 0.0
H777 H 0.07195 0.57979 0.4625 0.0
H778 H 0.12976 0.52188 0.34154 0.0
H779 H 0.12106 0.53458 0.27289 0.0
H780 H 0.10485 0.51095 0.30386 0.0
H781 H 0.12612 0.59488 0.47278 0.0
H782 H 0.10125 0.6076 0.46529 0.0
H783 H 0.12049 0.60804 0.40192 0.0
C784 C 0.93933 0.85981 0.85929 0.0
C785 C 0.94326 0.83957 0.83252 0.0
C786 C 0.94881 0.87955 0.83454 0.0
C787 C 0.96224 0.87892 0.78138 0.0
C788 C 0.96438 0.85871 0.7503 0.0
C789 C 0.95502 0.83916 0.77671 0.0
C790 C 0.94549 0.90098 0.86734 0.0
C791 C 0.97774 0.85752 0.69173 0.0
C792 C 0.98015 0.93374 0.70975 0.0
C793 C 1.00053 0.939 0.73772 0.0
C794 C 0.96769 0.91388 0.72179 0.0
C795 C 0.9759 0.89905 0.76299 0.0
C796 C 0.99689 0.90395 0.78951 0.0
C797 C 0.00913 0.92394 0.77599 0.0
C798 C 0.94578 0.90893 0.69078 0.0
C799 C 0.00626 0.88818 0.8327 0.0
H800 H 0.92966 0.86015 0.90134 0.0
H801 H 0.9581 0.82356 0.75561 0.0
H802 H 0.96142 0.90955 0.88203 0.0
H803 H 0.93798 0.91196 0.83507 0.0
H804 H 0.9349 0.89851 0.90897 0.0
H805 H 0.97359 0.84173 0.66598 0.0
H806 H 0.97532 0.87131 0.66042 0.0
H807 H 0.99525 0.85879 0.70409 0.0
H808 H 0.97411 0.94502 0.67728 0.0
H809 H 0.02525 0.92786 0.7955 0.0
H810 H 0.93272 0.91085 0.72525 0.0
H811 H 0.94354 0.89172 0.67287 0.0
H812 H 0.9437 0.92019 0.65168 0.0
H813 H 0.99543 0.88522 0.87362 0.0
H814 H 0.0228 0.89446 0.84923 0.0
H815 H 0.00716 0.87211 0.80863 0.0
C816 C 0.67825 0.02677 0.77848 0.0
C817 C 0.67611 0.01127 0.82558 0.0
C818 C 0.66026 0.03045 0.74246 0.0
C819 C 0.63997 0.01825 0.75447 0.0
C820 C 0.63842 1.00094 0.79761 0.0
C821 C 0.6566 0.99785 0.83354 0.0
C822 C 0.66248 0.04856 0.69527 0.0
C823 C 0.61737 0.98682 0.81003 0.0
C824 C 0.5903 0.04851 0.73544 0.0
C825 C 0.58347 0.04139 0.67611 0.0
C826 C 0.60887 0.0411 0.76151 0.0
C827 C 0.62015 0.02569 0.72795 0.0
C828 C 0.61282 0.0179 0.66893 0.0
C829 C 0.59486 0.02632 0.64285 0.0
C830 C 0.61594 0.04908 0.82577 0.0
C831 C 0.62291 0.99954 0.63573 0.0
H832 H 0.69352 0.03704 0.77292 0.0
H833 H 0.65525 0.98578 0.87017 0.0
H834 H 0.65557 0.04238 0.64999 0.0
H835 H 0.65313 0.06217 0.71119 0.0
H836 H 0.6797 0.05527 0.68812 0.0
H837 H 0.60943 0.9934 0.85164 0.0
H838 H 0.60583 0.98641 0.77056 0.0
H839 H 0.6206 0.9697 0.8203 0.0
H840 H 0.5808 0.05936 0.76192 0.0
H841 H 0.58876 0.01982 0.59835 0.0
H842 H 0.63327 0.05604 0.82507 0.0
H843 H 0.61455 0.03501 0.85804 0.0
H844 H 0.60595 0.06181 0.84433 0.0
H845 H 0.61647 0.99658 0.58791 0.0
H846 H 0.61931 0.98413 0.66204 0.0
H847 H 0.64086 1.00309 0.63404 0.0
C848 C 0.57587 0.66872 0.80101 0.0
C849 C 0.59148 0.66877 0.84819 0.0
C850 C 0.56678 0.64894 0.77388 0.0
C851 C 0.5735 0.62892 0.79473 0.0
C852 C 0.5905 0.62902 0.83856 0.0
C853 C 0.59918 0.64902 0.86544 0.0
C854 C 0.54948 0.64936 0.72467 0.0
C855 C 0.59892 0.60794 0.85851 0.0
C856 C 0.53265 0.57825 0.78856 0.0
C857 C 0.54042 0.56687 0.73791 0.0
C858 C 0.54341 0.59859 0.80762 0.0
C859 C 0.56182 0.60781 0.77383 0.0
C860 C 0.56922 0.59661 0.72137 0.0
C861 C 0.55872 0.57605 0.70497 0.0
C862 C 0.53511 0.61027 0.86374 0.0
C863 C 0.58823 0.60592 0.68219 0.0
H864 H 0.56993 0.68405 0.78761 0.0
H865 H 0.61156 0.6492 0.90111 0.0
H866 H 0.5537 0.63962 0.68323 0.0
H867 H 0.5337 0.64165 0.74274 0.0
H868 H 0.54738 0.66637 0.71004 0.0
H869 H 0.61296 0.61095 0.89075 0.0
H870 H 0.58572 0.59738 0.88188 0.0
H871 H 0.60403 0.5987 0.81711 0.0
H872 H 0.51831 0.57125 0.81319 0.0
H873 H 0.56452 0.56749 0.66467 0.0
H874 H 0.5307 0.62671 0.85044 0.0
H875 H 0.54813 0.61292 0.8993 0.0
H876 H 0.52065 0.60088 0.88488 0.0
H877 H 0.58541 0.60145 0.63238 0.0
H878 H 0.60305 0.59861 0.697 0.0
H879 H 0.59142 0.62408 0.68627 0.0
C880 C 0.84679 0.42586 0.77505 0.0
C881 C 0.84108 0.43692 0.82917 0.0
C882 C 0.86688 0.43183 0.74608 0.0
C883 C 0.8811 0.44921 0.77206 0.0
C884 C 0.87463 0.46122 0.82433 0.0
C885 C 0.85477 0.45472 0.85275 0.0
C886 C 0.87289 0.41976 0.68789 0.0
C887 C 0.88864 0.48102 0.85004 0.0
C888 C 0.9422 0.45402 0.75785 0.0
C889 C 0.94578 0.47186 0.7181 0.0
C890 C 0.92091 0.44551 0.77287 0.0
C891 C 0.90308 0.45488 0.74649 0.0
C892 C 0.90674 0.47201 0.70327 0.0
C893 C 0.92805 0.4805 0.69037 0.0
C894 C 0.91742 0.42702 0.81862 0.0
C895 C 0.88857 0.482 0.67083 0.0
H896 H 0.83572 0.4125 0.75611 0.0
H897 H 0.84976 0.46372 0.89325 0.0
H898 H 0.87741 0.43169 0.65046 0.0
H899 H 0.88732 0.4109 0.697 0.0
H900 H 0.85938 0.4077 0.67112 0.0
H901 H 0.88105 0.48864 0.89072 0.0
H902 H 0.90472 0.4762 0.86421 0.0
H903 H 0.89154 0.4936 0.81343 0.0
H904 H 0.95596 0.447 0.77776 0.0
H905 H 0.93074 0.4938 0.65752 0.0
H906 H 0.90617 0.41337 0.79871 0.0
H907 H 0.9097 0.43299 0.86143 0.0
H908 H 0.93289 0.42052 0.83156 0.0
H909 H 0.89064 0.48022 0.61975 0.0
H910 H 0.88974 0.49992 0.68164 0.0
H911 H 0.87207 0.47447 0.68338 0.0
C912 C 0.08549 0.14816 0.83566 0.0
C913 C 0.07232 0.16539 0.82965 0.0
C914 C 0.08018 0.12768 0.80532 0.0
C915 C 0.06103 0.12409 0.76881 0.0
C916 C 0.04782 0.14151 0.76201 0.0
C917 C 0.05363 0.16187 0.79224 0.0
C918 C 0.0951 0.10985 0.81215 0.0
C919 C 0.02725 0.13851 0.72376 0.0
C920 C 0.05322 0.07733 0.6484 0.0
C921 C 0.04041 0.06092 0.6809 0.0
C922 C 0.06054 0.09766 0.67675 0.0
C923 C 0.0545 0.10201 0.73893 0.0
C924 C 0.04161 0.08545 0.77202 0.0
C925 C 0.035 0.06498 0.74295 0.0
C926 C 0.07456 0.11452 0.63979 0.0
C927 C 0.03416 0.08965 0.83753 0.0
H928 H 0.10014 0.1508 0.86354 0.0
H929 H 0.0432 0.17495 0.78764 0.0
H930 H 0.08619 0.09524 0.834 0.0
H931 H 0.10057 0.10457 0.76562 0.0
H932 H 0.10965 0.11535 0.84077 0.0
H933 H 0.0193 0.15394 0.72068 0.0
H934 H 0.03084 0.13282 0.67599 0.0
H935 H 0.0156 0.12564 0.74471 0.0
H936 H 0.05744 0.07429 0.6003 0.0
H937 H 0.02476 0.05253 0.76783 0.0
H938 H 0.09052 0.11836 0.66314 0.0
H939 H 0.06683 0.13008 0.63767 0.0
H940 H 0.07741 0.10874 0.59152 0.0
H941 H 0.04844 0.09391 0.86814 0.0
H942 H 0.02412 0.07521 0.85692 0.0
H943 H 0.02442 0.10393 0.83841 0.0
C944 C 0.35965 0.9893 0.77388 0.0
C945 C 0.3516 0.00948 0.78681 0.0
C946 C 0.38048 0.98849 0.74773 0.0
C947 C 0.39333 0.00832 0.73297 0.0
C948 C 0.38469 0.02868 0.74306 0.0
C949 C 0.36409 0.02904 0.77083 0.0
C950 C 0.38903 0.96647 0.73792 0.0
C951 C 0.39738 0.05012 0.72535 0.0
C952 C 0.45522 0.01312 0.7364 0.0
C953 C 0.46053 0.01126 0.67341 0.0
C954 C 0.43344 0.01108 0.75633 0.0
C955 C 0.41644 0.00802 0.71198 0.0
C956 C 0.42175 0.00579 0.64815 0.0
C957 C 0.44377 0.00718 0.62978 0.0
C958 C 0.42862 0.0126 0.82498 0.0
C959 C 0.40442 1.00314 0.59861 0.0
H960 H 0.34993 0.97418 0.78619 0.0
H961 H 0.35771 0.04463 0.78021 0.0
H962 H 0.39487 0.96481 0.68945 0.0
H963 H 0.40314 0.96531 0.76908 0.0
H964 H 0.3765 0.95253 0.74754 0.0
H965 H 0.38762 0.06431 0.73083 0.0
H966 H 0.41211 0.0532 0.75485 0.0
H967 H 0.4029 0.04918 0.67634 0.0
H968 H 0.46819 0.0162 0.77025 0.0
H969 H 0.44788 0.00612 0.58108 0.0
H970 H 0.41705 0.99841 0.83903 0.0
H971 H 0.42079 0.02779 0.83524 0.0
H972 H 0.44356 0.0129 0.85372 0.0
H973 H 0.38919 0.99385 0.61523 0.0
H974 H 0.41017 0.99458 0.55683 0.0
H975 H 0.40054 0.0197 0.58463 0.0
C976 C 0.42778 0.36153 0.81853 0.0
C977 C 0.44214 0.34514 0.81942 0.0
C978 C 0.43294 0.38136 0.78607 0.0
C979 C 0.45315 0.38526 0.75442 0.0
C980 C 0.46745 0.36856 0.75405 0.0
C981 C 0.4618 0.34886 0.78624 0.0
C982 C 0.41681 0.39823 0.78594 0.0
C983 C 0.48917 0.37178 0.72135 0.0
C984 C 0.46495 0.43076 0.63394 0.0
C985 C 0.47611 0.44788 0.66945 0.0
C986 C 0.45672 0.41066 0.66105 0.0
C987 C 0.46008 0.40722 0.72524 0.0
C988 C 0.4712 0.42451 0.76126 0.0
C989 C 0.47882 0.44461 0.73325 0.0
C990 C 0.44464 0.39302 0.62071 0.0
C991 C 0.47575 0.42152 0.82926 0.0
H992 H 0.41238 0.35878 0.84286 0.0
H993 H 0.4732 0.33654 0.78683 0.0
H994 H 0.4239 0.41352 0.80988 0.0
H995 H 0.4132 0.40257 0.73745 0.0
H996 H 0.40131 0.39228 0.80938 0.0
H997 H 0.49748 0.35651 0.7201 0.0
H998 H 0.48714 0.37719 0.67297 0.0
H999 H 0.49984 0.3849 0.74573 0.0
H1000 H 0.46272 0.43303 0.58459 0.0
H1001 H 0.48768 0.4575 0.76107 0.0
H1002 H 0.42792 0.38901 0.63901 0.0
H1003 H 0.45281 0.37771 0.62193 0.0
H1004 H 0.44357 0.39812 0.57156 0.0
H1005 H 0.46027 0.41726 0.85466 0.0
H1006 H 0.48443 0.43652 0.8511 0.0
H1007 H 0.4858 0.40764 0.8348 0.0
C1008 C 0.15203 0.54555 0.86587 0.0
C1009 C 0.17206 0.54728 0.83426 0.0
C1010 C 0.13213 0.5409 0.83393 0.0
C1011 C 0.13201 0.53735 0.76863 0.0
C1012 C 0.1521 0.53952 0.73614 0.0
C1013 C 0.17171 0.54475 0.76905 0.0
C1014 C 0.11115 0.53949 0.87035 0.0
C1015 C 0.15305 0.53628 0.66651 0.0
C1016 C 0.08178 0.50265 0.70251 0.0
C1017 C 0.07039 0.51859 0.67502 0.0
C1018 C 0.10214 0.50846 0.7312 0.0
C1019 C 0.1109 0.53088 0.73503 0.0
C1020 C 0.09925 0.54704 0.70767 0.0
C1021 C 0.07941 0.54065 0.67699 0.0
C1022 C 0.11455 0.49055 0.75619 0.0
C1023 C 0.10766 0.57111 0.71101 0.0
H1024 H 0.15183 0.54725 0.91602 0.0
H1025 H 0.18686 0.54675 0.74329 0.0
H1026 H 0.09986 0.55035 0.84968 0.0
H1027 H 0.10306 0.52241 0.86798 0.0
H1028 H 0.1138 0.54428 0.91997 0.0
H1029 H 0.16965 0.53344 0.65051 0.0
H1030 H 0.14148 0.52217 0.65082 0.0
H1031 H 0.14847 0.55124 0.64349 0.0
H1032 H 0.0751 0.48553 0.69978 0.0
H1033 H 0.07069 0.55302 0.6553 0.0
H1034 H 0.11695 0.49292 0.807 0.0
H1035 H 0.13093 0.49151 0.73439 0.0
H1036 H 0.10606 0.47387 0.74721 0.0
H1037 H 0.11144 0.57618 0.75987 0.0
H1038 H 0.0958 0.58178 0.69227 0.0
H1039 H 0.12298 0.57396 0.68403 0.0
C1040 C 0.94189 0.86331 0.29998 0.0
C1041 C 0.95548 0.84638 0.30488 0.0
C1042 C 0.94625 0.88328 0.33375 0.0
C1043 C 0.96496 0.88676 0.3721 0.0
C1044 C 0.97846 0.86956 0.37811 0.0
C1045 C 0.97355 0.84966 0.34475 0.0
C1046 C 0.93066 0.90058 0.32922 0.0
C1047 C 0.99819 0.87223 0.41973 0.0
C1048 C 0.9899 0.94586 0.40418 0.0
C1049 C 0.98444 0.94915 0.46666 0.0
C1050 C 0.98353 0.92572 0.37307 0.0
C1051 C 0.97085 0.90857 0.40445 0.0
C1052 C 0.96475 0.91211 0.46715 0.0
C1053 C 0.97184 0.93215 0.4975 0.0
C1054 C 0.99111 0.92248 0.30717 0.0
C1055 C 0.95135 0.89474 0.50396 0.0
H1056 H 0.92762 0.86079 0.27052 0.0
H1057 H 0.98419 0.83673 0.34903 0.0
H1058 H 0.92537 0.90529 0.3765 0.0
H1059 H 0.93896 0.91559 0.30778 0.0
H1060 H 0.91604 0.89483 0.30118 0.0
H1061 H 0.00752 0.85764 0.41773 0.0
H1062 H 0.00911 0.88698 0.40627 0.0
H1063 H 0.99303 0.8748 0.4685 0.0
H1064 H 0.9999 0.95871 0.38019 0.0
H1065 H 0.96753 0.93441 0.54591 0.0
H1066 H 0.97689 0.91851 0.27614 0.0
H1067 H 1.00099 0.90832 0.30479 0.0
H1068 H 1.00103 0.93727 0.28932 0.0
H1069 H 0.93932 0.90241 0.5334 0.0
H1070 H 0.96225 0.88688 0.53577 0.0
H1071 H 0.94252 0.88177 0.47428 0.0
C1072 C 0.66722 0.01848 0.40609 0.0
C1073 C 0.66867 0.01185 0.34356 0.0
C1074 C 0.64709 0.01731 0.43731 0.0
C1075 C 0.62778 0.00905 0.40562 0.0
C1076 C 0.62909 1.00295 0.34198 0.0
C1077 C 0.64942 1.00433 0.31192 0.0
C1078 C 0.64713 0.02435 0.50469 0.0
C1079 C 0.60894 0.99474 0.30555 0.0
C1080 C 0.57692 0.98151 0.48444 0.0
C1081 C 0.56314 0.99832 0.48483 0.0
C1082 C 0.59845 0.98521 0.46247 0.0
C1083 C 0.60622 0.00602 0.43838 0.0
C1084 C 0.59265 0.02333 0.44127 0.0
C1085 C 0.57134 0.01933 0.46494 0.0
C1086 C 0.61283 0.96676 0.46424 0.0
C1087 C 0.60047 0.04587 0.41759 0.0
H1088 H 0.68188 0.02468 0.43099 0.0
H1089 H 0.65027 0.99898 0.26381 0.0
H1090 H 0.63088 0.02775 0.52192 0.0
H1091 H 0.65304 0.01108 0.53253 0.0
H1092 H 0.65869 0.03933 0.5124 0.0
H1093 H 0.61249 0.99199 0.25557 0.0
H1094 H 0.60151 0.97902 0.32511 0.0
H1095 H 0.59673 0.00679 0.30949 0.0
H1096 H 0.57079 0.96537 0.50103 0.0
H1097 H 0.5608 0.03245 0.46558 0.0
H1098 H 0.6286 0.97265 0.48655 0.0
H1099 H 0.61637 0.96136 0.41615 0.0
H1100 H 0.60519 0.95236 0.49009 0.0
H1101 H 0.61567 0.05235 0.44193 0.0
H1102 H 0.58819 0.05774 0.42439 0.0
H1103 H 0.60432 0.04475 0.3673 0.0
C1104 C 0.57823 0.6603 0.38103 0.0
C1105 C 0.57278 0.66237 0.31797 0.0
C1106 C 0.57261 0.64055 0.41351 0.0
C1107 C 0.56126 0.62214 0.38257 0.0
C1108 C 0.55612 0.62397 0.31879 0.0
C1109 C 0.56188 0.64388 0.28754 0.0
C1110 C 0.57883 0.63942 0.48106 0.0
C1111 C 0.54388 0.60499 0.28379 0.0
C1112 C 0.55839 0.56306 0.44393 0.0
C1113 C 0.53816 0.56083 0.47419 0.0
C1114 C 0.56654 0.58316 0.41639 0.0
C1115 C 0.55384 0.60126 0.41686 0.0
C1116 C 0.53337 0.59893 0.44746 0.0
C1117 C 0.52603 0.57899 0.47659 0.0
C1118 C 0.58887 0.58514 0.38728 0.0
C1119 C 0.51905 0.61748 0.4491 0.0
H1120 H 0.587 0.67414 0.40529 0.0
H1121 H 0.55715 0.64512 0.2394 0.0
H1122 H 0.56417 0.63497 0.50985 0.0
H1123 H 0.5898 0.62636 0.48712 0.0
H1124 H 0.58716 0.65526 0.49895 0.0
H1125 H 0.54142 0.60877 0.23415 0.0
H1126 H 0.55283 0.59021 0.28621 0.0
H1127 H 0.52773 0.60079 0.30572 0.0
H1128 H 0.56808 0.54925 0.44318 0.0
H1129 H 0.51047 0.57743 0.50041 0.0
H1130 H 0.59922 0.59905 0.40934 0.0
H1131 H 0.5877 0.58882 0.33717 0.0
H1132 H 0.59702 0.56989 0.39221 0.0
H1133 H 0.52712 0.63157 0.47632 0.0
H1134 H 0.50291 0.61249 0.47031 0.0
H1135 H 0.51652 0.6233 0.40134 0.0
C1136 C 0.86767 0.47091 0.27753 0.0
C1137 C 0.84946 0.4599 0.30715 0.0
C1138 C 0.8875 0.47643 0.30918 0.0
C1139 C 0.8895 0.47096 0.37254 0.0
C1140 C 0.87124 0.45985 0.40301 0.0
C1141 C 0.85155 0.4545 0.37016 0.0
C1142 C 0.90639 0.48833 0.27471 0.0
C1143 C 0.87225 0.45387 0.47066 0.0
C1144 C 0.94763 0.46816 0.43186 0.0
C1145 C 0.95244 0.4889 0.46021 0.0
C1146 C 0.92711 0.46195 0.40454 0.0
C1147 C 0.91084 0.47674 0.40589 0.0
C1148 C 0.91551 0.49747 0.43638 0.0
C1149 C 0.93621 0.50328 0.46309 0.0
C1150 C 0.92272 0.43946 0.37453 0.0
C1151 C 0.89857 0.51347 0.4412 0.0
H1152 H 0.86636 0.47568 0.22955 0.0
H1153 H 0.83782 0.44588 0.394 0.0
H1154 H 0.91155 0.50429 0.29833 0.0
H1155 H 0.92047 0.47845 0.27524 0.0
H1156 H 0.90232 0.49151 0.22566 0.0
H1157 H 0.85858 0.44154 0.48391 0.0
H1158 H 0.88783 0.44725 0.4816 0.0
H1159 H 0.87131 0.46886 0.49986 0.0
H1160 H 0.95992 0.45672 0.4315 0.0
H1161 H 0.93965 0.51901 0.48703 0.0
H1162 H 0.91871 0.44111 0.32471 0.0
H1163 H 0.90843 0.43023 0.3969 0.0
H1164 H 0.93686 0.42971 0.37811 0.0
H1165 H 0.89319 0.51761 0.39407 0.0
H1166 H 0.90471 0.52892 0.46615 0.0
H1167 H 0.88407 0.50576 0.4662 0.0
loop_
_geom_bond_atom_site_label_1
_geom_bond_atom_site_label_2
_geom_bond_distance
_geom_bond_site_symmetry_2
_ccdc_geom_bond_type
C0 C1 1.264 . S
C0 C5 1.479 . S
C0 C10 1.465 . S
C1 C0 1.264 . S
C1 C3 1.339 . S
C1 H28 0.931 . S
C2 C3 1.395 . S
C2 C4 1.320 . S
C3 C1 1.339 . S
C3 C2 1.395 . S
C3 H29 0.929 . S
C4 C2 1.320 . S
C4 C5 1.405 . S
C4 H30 0.930 . S
C5 C0 1.479 . S
C5 C4 1.405 . S
C5 H31 0.931 . S
U6 O7 2.454 . S
U6 O8 2.458 1_554 S
U6 C9 2.984 1_554 S
U6 C10 2.847 . S
U6 C23 2.882 1_554 S
U6 O24 2.441 . S
U6 O25 2.420 . S
U6 O26 2.455 1_554 S
U6 O27 2.449 1_554 S
O7 U6 2.454 . S
O7 C9 1.353 1_554 S
O8 U6 2.458 1_556 S
O8 C9 1.286 . S
C9 U6 2.984 1_556 S
C9 O7 1.353 1_556 S
C9 O8 1.286 . S
C9 C11 1.363 . S
C10 C0 1.465 . S
C10 U6 2.847 . S
C10 O24 1.249 . S
C10 O25 1.202 . S
C11 C9 1.363 . S
C11 C13 1.408 1_556 S
C11 C16 1.342 . S
C12 C13 1.310 . S
C12 C15 1.461 1_554 S
C12 H32 0.932 . S
C13 C11 1.408 1_554 S
C13 C12 1.310 . S
C13 H33 0.930 . S
C14 C15 1.474 . S
C14 C16 1.285 . S
C14 H34 0.929 . S
C15 C12 1.461 1_556 S
C15 C14 1.474 . S
C16 C11 1.342 . S
C16 C14 1.285 . S
C16 H35 0.930 . S
C17 C20 1.424 . S
C17 C22 1.245 . S
C17 C23 1.428 . S
C18 C21 1.260 . S
C18 C22 1.477 . S
C18 H36 0.932 . S
C19 C20 1.384 . S
C19 C21 1.479 . S
C19 H37 0.929 . S
C20 C17 1.424 . S
C20 C19 1.384 . S
C20 H38 0.928 . S
C21 C18 1.260 . S
C21 C19 1.479 . S
C22 C17 1.245 . S
C22 C18 1.477 . S
C22 H39 0.932 . S
C23 U6 2.882 1_556 S
C23 C17 1.428 . S
C23 O26 1.301 . S
C23 O27 1.282 . S
O24 U6 2.441 . S
O24 C10 1.249 . S
O25 U6 2.420 . S
O25 C10 1.202 . S
O26 U6 2.455 1_556 S
O26 C23 1.301 . S
O27 U6 2.449 1_556 S
O27 C23 1.282 . S
H28 C1 0.931 . S
H29 C3 0.929 . S
H30 C4 0.930 . S
H31 C5 0.931 . S
H32 C12 0.932 . S
H33 C13 0.930 . S
H34 C14 0.929 . S
H35 C16 0.930 . S
H36 C18 0.932 . S
H37 C19 0.929 . S
H38 C20 0.928 . S
H39 C22 0.932 . S
C40 C41 1.264 . S
C40 C45 1.479 . S
C40 C50 1.465 . S
C41 C40 1.264 . S
C41 C43 1.339 . S
C41 H68 0.931 . S
C42 C43 1.395 . S
C42 C44 1.320 . S
C43 C41 1.339 . S
C43 C42 1.395 . S
C43 H69 0.929 . S
C44 C42 1.320 . S
C44 C45 1.405 . S
C44 H70 0.930 . S
C45 C40 1.479 . S
C45 C44 1.405 . S
C45 H71 0.931 . S
U46 O47 2.454 . S
U46 O48 2.458 1_554 S
U46 C49 2.984 1_554 S
U46 C50 2.847 . S
U46 C63 2.882 1_554 S
U46 O64 2.441 . S
U46 O65 2.420 . S
U46 O66 2.455 1_554 S
U46 O67 2.449 1_554 S
O47 U46 2.454 . S
O47 C49 1.353 1_554 S
O48 U46 2.458 1_556 S
O48 C49 1.286 . S
C49 U46 2.984 1_556 S
C49 O47 1.353 1_556 S
C49 O48 1.286 . S
C49 C51 1.363 . S
C50 C40 1.465 . S
C50 U46 2.847 . S
C50 O64 1.249 . S
C50 O65 1.202 . S
C51 C49 1.363 . S
C51 C53 1.408 1_556 S
C51 C56 1.342 . S
C52 C53 1.310 1_556 S
C52 C55 1.461 . S
C52 H72 0.932 1_556 S
C53 C51 1.408 1_554 S
C53 C52 1.310 1_554 S
C53 H73 0.930 . S
C54 C55 1.474 . S
C54 C56 1.285 . S
C54 H74 0.929 . S
C55 C52 1.461 . S
C55 C54 1.474 . S
C56 C51 1.342 . S
C56 C54 1.285 . S
C56 H75 0.930 . S
C57 C60 1.424 . S
C57 C62 1.245 . S
C57 C63 1.428 . S
C58 C61 1.260 . S
C58 C62 1.477 . S
C58 H76 0.932 . S
C59 C60 1.384 . S
C59 C61 1.479 . S
C59 H77 0.929 . S
C60 C57 1.424 . S
C60 C59 1.384 . S
C60 H78 0.928 . S
C61 C58 1.260 . S
C61 C59 1.479 . S
C62 C57 1.245 . S
C62 C58 1.477 . S
C62 H79 0.932 . S
C63 U46 2.882 1_556 S
C63 C57 1.428 . S
C63 O66 1.301 . S
C63 O67 1.282 . S
O64 U46 2.441 . S
O64 C50 1.249 . S
O65 U46 2.420 . S
O65 C50 1.202 . S
O66 U46 2.455 1_556 S
O66 C63 1.301 . S
O67 U46 2.449 1_556 S
O67 C63 1.282 . S
H68 C41 0.931 . S
H69 C43 0.929 . S
H70 C44 0.930 . S
H71 C45 0.931 . S
H72 C52 0.932 1_554 S
H73 C53 0.930 . S
H74 C54 0.929 . S
H75 C56 0.930 . S
H76 C58 0.932 . S
H77 C59 0.929 . S
H78 C60 0.928 . S
H79 C62 0.932 . S
C80 C81 1.264 . S
C80 C85 1.479 . S
C80 C90 1.465 . S
C81 C80 1.264 . S
C81 C83 1.339 . S
C81 H108 0.931 . S
C82 C83 1.395 . S
C82 C84 1.320 . S
C83 C81 1.339 . S
C83 C82 1.395 . S
C83 H109 0.929 . S
C84 C82 1.320 . S
C84 C85 1.405 . S
C84 H110 0.917 1_545 S
C85 C80 1.479 . S
C85 C84 1.405 . S
C85 H111 0.931 . S
U86 O87 2.454 . S
U86 O88 2.458 1_554 S
U86 C89 2.984 . S
U86 C90 2.847 . S
U86 C103 2.882 1_554 S
U86 O104 2.441 . S
U86 O105 2.420 . S
U86 O106 2.455 1_554 S
U86 O107 2.448 . S
O87 U86 2.454 . S
O87 C89 1.353 . S
O88 U86 2.458 1_556 S
O88 C89 1.286 1_556 S
C89 U86 2.984 . S
C89 O87 1.353 . S
C89 O88 1.286 1_554 S
C89 C91 1.363 1_554 S
C90 C80 1.465 . S
C90 U86 2.847 . S
C90 O104 1.249 . S
C90 O105 1.202 . S
C91 C89 1.363 1_556 S
C91 C93 1.408 1_556 S
C91 C96 1.342 . S
C92 C93 1.310 . S
C92 C95 1.461 1_554 S
C92 H112 0.932 . S
C93 C91 1.408 1_554 S
C93 C92 1.310 . S
C93 H113 0.930 . S
C94 C95 1.475 1_565 S
C94 C96 1.284 1_565 S
C94 H114 0.930 . S
C95 C92 1.461 1_556 S
C95 C94 1.475 1_545 S
C96 C91 1.342 . S
C96 C94 1.284 1_545 S
C96 H115 0.929 . S
C97 C100 1.424 . S
C97 C102 1.245 . S
C97 C103 1.428 . S
C98 C101 1.260 . S
C98 C102 1.477 . S
C98 H116 0.932 . S
C99 C100 1.384 . S
C99 C101 1.479 . S
C99 H117 0.929 . S
C100 C97 1.424 . S
C100 C99 1.384 . S
C100 H118 0.928 . S
C101 C98 1.260 . S
C101 C99 1.479 . S
C102 C97 1.245 . S
C102 C98 1.477 . S
C102 H119 0.932 . S
C103 U86 2.882 1_556 S
C103 C97 1.428 . S
C103 O106 1.301 . S
C103 O107 1.284 1_556 S
O104 U86 2.441 . S
O104 C90 1.249 . S
O105 U86 2.420 . S
O105 C90 1.202 . S
O106 U86 2.455 1_556 S
O106 C103 1.301 . S
O107 U86 2.448 . S
O107 C103 1.284 1_554 S
H108 C81 0.931 . S
H109 C83 0.929 . S
H110 C84 0.917 1_565 S
H111 C85 0.931 . S
H112 C92 0.932 . S
H113 C93 0.930 . S
H114 C94 0.930 . S
H115 C96 0.929 . S
H116 C98 0.932 . S
H117 C99 0.929 . S
H118 C100 0.928 . S
H119 C102 0.932 . S
C120 C121 1.264 . S
C120 C125 1.479 . S
C120 C130 1.465 . S
C121 C120 1.264 . S
C121 C123 1.339 . S
C121 H148 0.931 . S
C122 C123 1.395 . S
C122 C124 1.320 . S
C123 C121 1.339 . S
C123 C122 1.395 . S
C123 H149 0.929 . S
C124 C122 1.320 . S
C124 C125 1.405 . S
C124 H150 0.930 . S
C125 C120 1.479 . S
C125 C124 1.405 . S
C125 H151 0.931 . S
U126 O127 2.454 . S
U126 O128 2.458 1_554 S
U126 C129 2.984 . S
U126 C130 2.847 . S
U126 C143 2.882 1_554 S
U126 O144 2.441 . S
U126 O145 2.420 . S
U126 O146 2.455 1_554 S
U126 O147 2.449 . S
O127 U126 2.454 . S
O127 C129 1.353 . S
O128 U126 2.458 1_556 S
O128 C129 1.286 1_556 S
C129 U126 2.984 . S
C129 O127 1.353 . S
C129 O128 1.286 1_554 S
C129 C131 1.363 . S
C130 C120 1.465 . S
C130 U126 2.847 . S
C130 O144 1.249 . S
C130 O145 1.202 . S
C131 C129 1.363 . S
C131 C133 1.408 . S
C131 C136 1.342 1_554 S
C132 C133 1.310 . S
C132 C135 1.461 1_554 S
C132 H152 0.932 . S
C133 C131 1.408 . S
C133 C132 1.310 . S
C133 H153 0.930 . S
C134 C135 1.474 . S
C134 C136 1.285 . S
C134 H154 0.929 . S
C135 C132 1.461 1_556 S
C135 C134 1.474 . S
C136 C131 1.342 1_556 S
C136 C134 1.285 . S
C136 H155 0.930 . S
C137 C140 1.424 . S
C137 C142 1.245 . S
C137 C143 1.428 . S
C138 C141 1.260 . S
C138 C142 1.477 . S
C138 H156 0.932 . S
C139 C140 1.384 . S
C139 C141 1.479 . S
C139 H157 0.929 . S
C140 C137 1.424 . S
C140 C139 1.384 . S
C140 H158 0.928 . S
C141 C138 1.260 . S
C141 C139 1.479 . S
C142 C137 1.245 . S
C142 C138 1.477 . S
C142 H159 0.932 . S
C143 U126 2.882 1_556 S
C143 C137 1.428 . S
C143 O146 1.301 . S
C143 O147 1.282 1_556 S
O144 U126 2.441 . S
O144 C130 1.249 . S
O145 U126 2.420 . S
O145 C130 1.202 . S
O146 U126 2.455 1_556 S
O146 C143 1.301 . S
O147 U126 2.449 . S
O147 C143 1.282 1_554 S
H148 C121 0.931 . S
H149 C123 0.929 . S
H150 C124 0.930 . S
H151 C125 0.931 . S
H152 C132 0.932 . S
H153 C133 0.930 . S
H154 C134 0.929 . S
H155 C136 0.930 . S
H156 C138 0.932 . S
H157 C139 0.929 . S
H158 C140 0.928 . S
H159 C142 0.932 . S
C160 C161 1.264 . S
C160 C165 1.479 . S
C160 C170 1.465 . S
C161 C160 1.264 . S
C161 C163 1.339 . S
C161 H188 0.931 . S
C162 C163 1.395 . S
C162 C164 1.320 . S
C163 C161 1.339 . S
C163 C162 1.395 . S
C163 H189 0.929 . S
C164 C162 1.320 . S
C164 C165 1.405 . S
C164 H190 0.930 . S
C165 C160 1.479 . S
C165 C164 1.405 . S
C165 H191 0.931 . S
U166 O167 2.454 . S
U166 O168 2.458 . S
U166 C169 2.984 . S
U166 C170 2.847 1_554 S
U166 C183 2.882 . S
U166 O184 2.441 1_554 S
U166 O185 2.420 . S
U166 O186 2.455 . S
U166 O187 2.449 . S
O167 U166 2.454 . S
O167 C169 1.353 . S
O168 U166 2.458 . S
O168 C169 1.286 . S
C169 U166 2.984 . S
C169 O167 1.353 . S
C169 O168 1.286 . S
C169 C171 1.363 . S
C170 C160 1.465 . S
C170 U166 2.847 1_556 S
C170 O184 1.249 . S
C170 O185 1.202 1_556 S
C171 C169 1.363 . S
C171 C173 1.408 . S
C171 C176 1.342 . S
C172 C173 1.310 . S
C172 C175 1.461 . S
C172 H192 0.932 . S
C173 C171 1.408 . S
C173 C172 1.310 . S
C173 H193 0.930 . S
C174 C175 1.474 . S
C174 C176 1.285 . S
C174 H194 0.929 . S
C175 C172 1.461 . S
C175 C174 1.474 . S
C176 C171 1.342 . S
C176 C174 1.285 . S
C176 H195 0.930 . S
C177 C180 1.424 . S
C177 C182 1.245 . S
C177 C183 1.428 . S
C178 C181 1.260 . S
C178 C182 1.477 . S
C178 H196 0.932 . S
C179 C180 1.384 . S
C179 C181 1.479 . S
C179 H197 0.929 . S
C180 C177 1.424 . S
C180 C179 1.384 . S
C180 H198 0.928 . S
C181 C178 1.260 . S
C181 C179 1.479 . S
C182 C177 1.245 . S
C182 C178 1.477 . S
C182 H199 0.932 . S
C183 U166 2.882 . S
C183 C177 1.428 . S
C183 O186 1.301 . S
C183 O187 1.282 . S
O184 U166 2.441 1_556 S
O184 C170 1.249 . S
O185 U166 2.420 . S
O185 C170 1.202 1_554 S
O186 U166 2.455 . S
O186 C183 1.301 . S
O187 U166 2.449 . S
O187 C183 1.282 . S
H188 C161 0.931 . S
H189 C163 0.929 . S
H190 C164 0.930 . S
H191 C165 0.931 . S
H192 C172 0.932 . S
H193 C173 0.930 . S
H194 C174 0.929 . S
H195 C176 0.930 . S
H196 C178 0.932 . S
H197 C179 0.929 . S
H198 C180 0.928 . S
H199 C182 0.932 . S
C200 C201 1.264 . S
C200 C205 1.479 . S
C200 C210 1.465 . S
C201 C200 1.264 . S
C201 C203 1.339 . S
C201 H228 0.931 . S
C202 C203 1.395 . S
C202 C204 1.320 . S
C203 C201 1.339 . S
C203 C202 1.395 . S
C203 H229 0.929 . S
C204 C202 1.320 . S
C204 C205 1.405 . S
C204 H230 0.930 . S
C205 C200 1.479 . S
C205 C204 1.405 . S
C205 H231 0.931 . S
U206 O207 2.454 . S
U206 O208 2.458 . S
U206 C209 2.984 . S
U206 C210 2.847 1_554 S
U206 C223 2.882 . S
U206 O224 2.441 . S
U206 O225 2.420 . S
U206 O226 2.455 . S
U206 O227 2.449 . S
O207 U206 2.454 . S
O207 C209 1.353 . S
O208 U206 2.458 . S
O208 C209 1.286 . S
C209 U206 2.984 . S
C209 O207 1.353 . S
C209 O208 1.286 . S
C209 C211 1.363 . S
C210 C200 1.465 . S
C210 U206 2.847 1_556 S
C210 O224 1.249 1_556 S
C210 O225 1.202 1_556 S
C211 C209 1.363 . S
C211 C213 1.408 . S
C211 C216 1.342 . S
C212 C213 1.310 . S
C212 C215 1.461 . S
C212 H232 0.932 . S
C213 C211 1.408 . S
C213 C212 1.310 . S
C213 H233 0.930 . S
C214 C215 1.474 . S
C214 C216 1.285 . S
C214 H234 0.929 . S
C215 C212 1.461 . S
C215 C214 1.474 . S
C216 C211 1.342 . S
C216 C214 1.285 . S
C216 H235 0.930 . S
C217 C220 1.424 . S
C217 C222 1.245 . S
C217 C223 1.428 . S
C218 C221 1.260 . S
C218 C222 1.477 . S
C218 H236 0.932 . S
C219 C220 1.384 . S
C219 C221 1.479 . S
C219 H237 0.929 . S
C220 C217 1.424 . S
C220 C219 1.384 . S
C220 H238 0.928 . S
C221 C218 1.260 . S
C221 C219 1.479 . S
C222 C217 1.245 . S
C222 C218 1.477 . S
C222 H239 0.932 . S
C223 U206 2.882 . S
C223 C217 1.428 . S
C223 O226 1.301 . S
C223 O227 1.282 . S
O224 U206 2.441 . S
O224 C210 1.249 1_554 S
O225 U206 2.420 . S
O225 C210 1.202 1_554 S
O226 U206 2.455 . S
O226 C223 1.301 . S
O227 U206 2.449 . S
O227 C223 1.282 . S
H228 C201 0.931 . S
H229 C203 0.929 . S
H230 C204 0.930 . S
H231 C205 0.931 . S
H232 C212 0.932 . S
H233 C213 0.930 . S
H234 C214 0.929 . S
H235 C216 0.930 . S
H236 C218 0.932 . S
H237 C219 0.929 . S
H238 C220 0.928 . S
H239 C222 0.932 . S
C240 C241 1.264 . S
C240 C245 1.479 . S
C240 C250 1.465 . S
C241 C240 1.264 . S
C241 C243 1.339 . S
C241 H268 0.931 . S
C242 C243 1.395 . S
C242 C244 1.320 . S
C243 C241 1.339 . S
C243 C242 1.395 . S
C243 H269 0.929 . S
C244 C242 1.320 . S
C244 C245 1.405 . S
C244 H270 0.926 1_545 S
C245 C240 1.479 . S
C245 C244 1.405 . S
C245 H271 0.931 . S
U246 O247 2.454 . S
U246 O248 2.458 . S
U246 C249 2.984 . S
U246 C250 2.847 1_554 S
U246 C263 2.882 . S
U246 O264 2.441 1_554 S
U246 O265 2.420 . S
U246 O266 2.455 . S
U246 O267 2.449 . S
O247 U246 2.454 . S
O247 C249 1.353 . S
O248 U246 2.458 . S
O248 C249 1.286 . S
C249 U246 2.984 . S
C249 O247 1.353 . S
C249 O248 1.286 . S
C249 C251 1.363 . S
C250 C240 1.465 . S
C250 U246 2.847 1_556 S
C250 O264 1.249 . S
C250 O265 1.202 1_556 S
C251 C249 1.363 . S
C251 C253 1.408 . S
C251 C256 1.342 . S
C252 C253 1.310 . S
C252 C255 1.462 . S
C252 H272 0.932 . S
C253 C251 1.408 . S
C253 C252 1.310 . S
C253 H273 0.930 . S
C254 C255 1.473 1_565 S
C254 C256 1.285 1_565 S
C254 H274 0.929 . S
C255 C252 1.462 . S
C255 C254 1.473 1_545 S
C256 C251 1.342 . S
C256 C254 1.285 1_545 S
C256 H275 0.938 . S
C257 C260 1.424 . S
C257 C262 1.245 . S
C257 C263 1.428 . S
C258 C261 1.260 . S
C258 C262 1.477 . S
C258 H276 0.932 . S
C259 C260 1.384 . S
C259 C261 1.479 . S
C259 H277 0.929 . S
C260 C257 1.424 . S
C260 C259 1.384 . S
C260 H278 0.928 . S
C261 C258 1.260 . S
C261 C259 1.479 . S
C262 C257 1.245 . S
C262 C258 1.477 . S
C262 H279 0.932 . S
C263 U246 2.882 . S
C263 C257 1.428 . S
C263 O266 1.301 . S
C263 O267 1.282 . S
O264 U246 2.441 1_556 S
O264 C250 1.249 . S
O265 U246 2.420 . S
O265 C250 1.202 1_554 S
O266 U246 2.455 . S
O266 C263 1.301 . S
O267 U246 2.449 . S
O267 C263 1.282 . S
H268 C241 0.931 . S
H269 C243 0.929 . S
H270 C244 0.926 1_565 S
H271 C245 0.931 . S
H272 C252 0.932 . S
H273 C253 0.930 . S
H274 C254 0.929 . S
H275 C256 0.938 . S
H276 C258 0.932 . S
H277 C259 0.929 . S
H278 C260 0.928 . S
H279 C262 0.932 . S
C280 C281 1.264 . S
C280 C285 1.479 . S
C280 C290 1.465 . S
C281 C280 1.264 . S
C281 C283 1.339 . S
C281 H308 0.931 . S
C282 C283 1.395 . S
C282 C284 1.320 . S
C283 C281 1.339 . S
C283 C282 1.395 . S
C283 H309 0.929 . S
C284 C282 1.320 . S
C284 C285 1.405 . S
C284 H310 0.930 . S
C285 C280 1.479 . S
C285 C284 1.405 . S
C285 H311 0.931 . S
U286 O287 2.454 . S
U286 O288 2.458 . S
U286 C289 2.984 . S
U286 C290 2.847 1_554 S
U286 C303 2.882 . S
U286 O304 2.441 1_554 S
U286 O305 2.420 1_554 S
U286 O306 2.455 . S
U286 O307 2.449 . S
O287 U286 2.454 . S
O287 C289 1.353 . S
O288 U286 2.458 . S
O288 C289 1.286 . S
C289 U286 2.984 . S
C289 O287 1.353 . S
C289 O288 1.286 . S
C289 C291 1.363 . S
C290 C280 1.465 . S
C290 U286 2.847 1_556 S
C290 O304 1.249 . S
C290 O305 1.202 . S
C291 C289 1.363 . S
C291 C293 1.408 . S
C291 C296 1.342 . S
C292 C293 1.310 . S
C292 C295 1.461 . S
C292 H312 0.932 . S
C293 C291 1.408 . S
C293 C292 1.310 . S
C293 H313 0.930 . S
C294 C295 1.474 . S
C294 C296 1.285 . S
C294 H314 0.929 . S
C295 C292 1.461 . S
C295 C294 1.474 . S
C296 C291 1.342 . S
C296 C294 1.285 . S
C296 H315 0.930 . S
C297 C300 1.424 . S
C297 C302 1.245 . S
C297 C303 1.428 . S
C298 C301 1.260 . S
C298 C302 1.477 . S
C298 H316 0.932 . S
C299 C300 1.384 . S
C299 C301 1.479 . S
C299 H317 0.929 . S
C300 C297 1.424 . S
C300 C299 1.384 . S
C300 H318 0.928 . S
C301 C298 1.260 . S
C301 C299 1.479 . S
C302 C297 1.245 . S
C302 C298 1.477 . S
C302 H319 0.932 . S
C303 U286 2.882 . S
C303 C297 1.428 . S
C303 O306 1.301 . S
C303 O307 1.282 . S
O304 U286 2.441 1_556 S
O304 C290 1.249 . S
O305 U286 2.420 1_556 S
O305 C290 1.202 . S
O306 U286 2.455 . S
O306 C303 1.301 . S
O307 U286 2.449 . S
O307 C303 1.282 . S
H308 C281 0.931 . S
H309 C283 0.929 . S
H310 C284 0.930 . S
H311 C285 0.931 . S
H312 C292 0.932 . S
H313 C293 0.930 . S
H314 C294 0.929 . S
H315 C296 0.930 . S
H316 C298 0.932 . S
H317 C299 0.929 . S
H318 C300 0.928 . S
H319 C302 0.932 . S
Dy320 O324 2.398 . S
Dy320 O325 2.491 1_455 S
Dy320 O326 2.403 . S
Dy320 O327 2.664 1_565 S
Dy320 O331 2.326 . S
Dy320 O335 2.310 1_455 S
Dy320 O336 2.351 1_565 S
C321 O332 1.185 1_455 S
C321 O333 1.355 . S
C322 O324 1.185 . S
C322 O325 1.355 1_455 S
Dy323 O327 2.310 1_655 S
Dy323 O330 2.351 1_545 S
Dy323 O332 2.398 . S
Dy323 O333 2.491 1_655 S
Dy323 O334 2.403 . S
Dy323 O335 2.664 1_545 S
Dy323 O337 2.326 1_655 S
O324 Dy320 2.398 . S
O324 C322 1.185 . S
O325 Dy320 2.491 1_655 S
O325 C322 1.355 1_655 S
O326 Dy320 2.403 . S
O326 C328 1.254 . S
O327 Dy320 2.664 1_545 S
O327 Dy323 2.310 1_455 S
O327 C328 1.268 1_545 S
C328 O326 1.254 . S
C328 O327 1.268 1_565 S
C329 O334 1.254 . S
C329 O335 1.268 1_545 S
O330 Dy323 2.351 1_565 S
O330 C338 1.249 . S
O331 Dy320 2.326 . S
O331 C338 1.267 1_455 S
O332 C321 1.185 1_655 S
O332 Dy323 2.398 . S
O333 C321 1.355 . S
O333 Dy323 2.491 1_455 S
O334 Dy323 2.403 . S
O334 C329 1.254 . S
O335 Dy320 2.310 1_655 S
O335 Dy323 2.664 1_565 S
O335 C329 1.268 1_565 S
O336 Dy320 2.351 1_545 S
O336 C339 1.249 . S
O337 Dy323 2.326 1_455 S
O337 C339 1.267 . S
C338 O330 1.249 . S
C338 O331 1.267 1_655 S
C339 O336 1.249 . S
C339 O337 1.267 . S
Dy340 O344 2.398 . S
Dy340 O345 2.491 . S
Dy340 O346 2.403 . S
Dy340 O347 2.664 . S
Dy340 O351 2.326 1_565 S
Dy340 O355 2.310 1_565 S
Dy340 O356 2.351 . S
C341 O352 1.185 . S
C341 O353 1.355 . S
C342 O344 1.185 . S
C342 O345 1.355 . S
Dy343 O347 2.310 1_545 S
Dy343 O350 2.351 . S
Dy343 O352 2.398 . S
Dy343 O353 2.491 . S
Dy343 O354 2.403 . S
Dy343 O355 2.664 . S
Dy343 O357 2.326 1_545 S
O344 Dy340 2.398 . S
O344 C342 1.185 . S
O345 Dy340 2.491 . S
O345 C342 1.355 . S
O346 Dy340 2.403 . S
O346 C348 1.254 . S
O347 Dy340 2.664 . S
O347 Dy343 2.310 1_565 S
O347 C348 1.268 . S
C348 O346 1.254 . S
C348 O347 1.268 . S
C349 O354 1.254 . S
C349 O355 1.268 . S
O350 Dy343 2.351 . S
O350 C358 1.249 . S
O351 Dy340 2.326 1_545 S
O351 C358 1.267 . S
O352 C341 1.185 . S
O352 Dy343 2.398 . S
O353 C341 1.355 . S
O353 Dy343 2.491 . S
O354 Dy343 2.403 . S
O354 C349 1.254 . S
O355 Dy340 2.310 1_545 S
O355 Dy343 2.664 . S
O355 C349 1.268 . S
O356 Dy340 2.351 . S
O356 C359 1.249 . S
O357 Dy343 2.326 1_565 S
O357 C359 1.267 . S
C358 O350 1.249 . S
C358 O351 1.267 . S
C359 O356 1.249 . S
C359 O357 1.267 . S
Dy360 O364 2.398 . S
Dy360 O365 2.491 . S
Dy360 O366 2.403 . S
Dy360 O367 2.664 . S
Dy360 O371 2.326 . S
Dy360 O375 2.310 . S
Dy360 O376 2.351 . S
C361 O372 1.185 . S
C361 O373 1.355 . S
C362 O364 1.185 . S
C362 O365 1.355 . S
Dy363 O367 2.310 . S
Dy363 O370 2.351 . S
Dy363 O372 2.398 . S
Dy363 O373 2.491 . S
Dy363 O374 2.403 . S
Dy363 O375 2.664 . S
Dy363 O377 2.326 . S
O364 Dy360 2.398 . S
O364 C362 1.185 . S
O365 Dy360 2.491 . S
O365 C362 1.355 . S
O366 Dy360 2.403 . S
O366 C368 1.254 . S
O367 Dy360 2.664 . S
O367 Dy363 2.310 . S
O367 C368 1.268 . S
C368 O366 1.254 . S
C368 O367 1.268 . S
C369 O374 1.254 . S
C369 O375 1.268 . S
O370 Dy363 2.351 . S
O370 C378 1.249 . S
O371 Dy360 2.326 . S
O371 C378 1.267 . S
O372 C361 1.185 . S
O372 Dy363 2.398 . S
O373 C361 1.355 . S
O373 Dy363 2.491 . S
O374 Dy363 2.403 . S
O374 C369 1.254 . S
O375 Dy360 2.310 . S
O375 Dy363 2.664 . S
O375 C369 1.268 . S
O376 Dy360 2.351 . S
O376 C379 1.249 . S
O377 Dy363 2.326 . S
O377 C379 1.267 . S
C378 O370 1.249 . S
C378 O371 1.267 . S
C379 O376 1.249 . S
C379 O377 1.267 . S
Dy380 O384 2.398 . S
Dy380 O385 2.491 . S
Dy380 O386 2.403 1_655 S
Dy380 O387 2.664 1_655 S
Dy380 O391 2.326 . S
Dy380 O395 2.310 . S
Dy380 O396 2.351 1_655 S
C381 O392 1.185 . S
C381 O393 1.355 . S
C382 O384 1.185 . S
C382 O385 1.355 . S
Dy383 O387 2.310 . S
Dy383 O390 2.351 1_455 S
Dy383 O392 2.398 . S
Dy383 O393 2.491 . S
Dy383 O394 2.403 . S
Dy383 O395 2.664 1_455 S
Dy383 O397 2.326 . S
O384 Dy380 2.398 . S
O384 C382 1.185 . S
O385 Dy380 2.491 . S
O385 C382 1.355 . S
O386 Dy380 2.403 1_455 S
O386 C388 1.254 . S
O387 Dy380 2.664 1_455 S
O387 Dy383 2.310 . S
O387 C388 1.268 . S
C388 O386 1.254 . S
C388 O387 1.268 . S
C389 O394 1.254 1_655 S
C389 O395 1.268 . S
O390 Dy383 2.351 1_655 S
O390 C398 1.249 . S
O391 Dy380 2.326 . S
O391 C398 1.267 . S
O392 C381 1.185 . S
O392 Dy383 2.398 . S
O393 C381 1.355 . S
O393 Dy383 2.491 . S
O394 Dy383 2.403 . S
O394 C389 1.254 1_455 S
O395 Dy380 2.310 . S
O395 Dy383 2.664 1_655 S
O395 C389 1.268 . S
O396 Dy380 2.351 1_455 S
O396 C399 1.249 . S
O397 Dy383 2.326 . S
O397 C399 1.267 . S
C398 O390 1.249 . S
C398 O391 1.267 . S
C399 O396 1.249 . S
C399 O397 1.267 . S
C400 C401 1.391 . S
C400 C402 1.394 . S
C400 H416 0.937 . S
C401 C400 1.391 . S
C401 C405 1.376 . S
C402 C400 1.394 . S
C402 C403 1.369 . S
C402 C406 1.531 . S
C403 C402 1.369 . S
C403 C404 1.410 . S
C403 C411 1.503 . S
C404 C403 1.410 . S
C404 C405 1.392 . S
C404 C407 1.511 . S
C405 C401 1.376 . S
C405 C404 1.392 . S
C405 H417 0.929 . S
C406 C402 1.531 . S
C406 H418 0.960 . S
C406 H419 0.962 1_545 S
C406 H420 0.960 . S
C407 C404 1.511 . S
C407 H421 0.968 . S
C407 H422 0.947 1_545 S
C407 H423 0.961 . S
C408 C409 1.370 . S
C408 C410 1.363 . S
C408 H424 0.931 . S
C409 C408 1.370 . S
C409 C413 1.408 1_565 S
C410 C408 1.363 . S
C410 C411 1.370 1_565 S
C410 C414 1.524 . S
C411 C403 1.503 . S
C411 C410 1.370 1_545 S
C411 C412 1.403 . S
C412 C411 1.403 . S
C412 C413 1.404 . S
C412 C415 1.539 . S
C413 C409 1.408 1_545 S
C413 C412 1.404 . S
C413 H425 0.930 . S
C414 C410 1.524 . S
C414 H426 0.956 . S
C414 H427 0.961 . S
C414 H428 0.961 . S
C415 C412 1.539 . S
C415 H429 0.958 . S
C415 H430 0.961 . S
C415 H431 0.960 . S
H416 C400 0.937 . S
H417 C405 0.929 . S
H418 C406 0.960 . S
H419 C406 0.962 1_565 S
H420 C406 0.960 . S
H421 C407 0.968 . S
H422 C407 0.947 1_565 S
H423 C407 0.961 . S
H424 C408 0.931 . S
H425 C413 0.930 . S
H426 C414 0.956 . S
H427 C414 0.961 . S
H428 C414 0.961 . S
H429 C415 0.958 . S
H430 C415 0.961 . S
H431 C415 0.960 . S
C432 C433 1.391 . S
C432 C434 1.394 . S
C432 H448 0.931 . S
C433 C432 1.391 . S
C433 C437 1.376 . S
C434 C432 1.394 . S
C434 C435 1.369 . S
C434 C438 1.531 . S
C435 C434 1.369 . S
C435 C436 1.410 . S
C435 C443 1.503 . S
C436 C435 1.410 . S
C436 C437 1.392 . S
C436 C439 1.511 . S
C437 C433 1.376 . S
C437 C436 1.392 . S
C437 H449 0.929 . S
C438 C434 1.531 . S
C438 H450 0.960 . S
C438 H451 0.962 . S
C438 H452 0.960 . S
C439 C436 1.511 . S
C439 H453 0.961 . S
C439 H454 0.961 . S
C439 H455 0.961 . S
C440 C441 1.370 . S
C440 C442 1.363 . S
C440 H456 0.931 . S
C441 C440 1.370 . S
C441 C445 1.408 . S
C442 C440 1.363 . S
C442 C443 1.370 . S
C442 C446 1.524 . S
C443 C435 1.503 . S
C443 C442 1.370 . S
C443 C444 1.403 . S
C444 C443 1.403 . S
C444 C445 1.404 . S
C444 C447 1.539 . S
C445 C441 1.408 . S
C445 C444 1.404 . S
C445 H457 0.930 . S
C446 C442 1.524 . S
C446 H458 0.956 . S
C446 H459 0.961 . S
C446 H460 0.961 . S
C447 C444 1.539 . S
C447 H461 0.958 . S
C447 H462 0.961 . S
C447 H463 0.960 . S
H448 C432 0.931 . S
H449 C437 0.929 . S
H450 C438 0.960 . S
H451 C438 0.962 . S
H452 C438 0.960 . S
H453 C439 0.961 . S
H454 C439 0.961 . S
H455 C439 0.961 . S
H456 C440 0.931 . S
H457 C445 0.930 . S
H458 C446 0.956 . S
H459 C446 0.961 . S
H460 C446 0.961 . S
H461 C447 0.958 . S
H462 C447 0.961 . S
H463 C447 0.960 . S
C464 C465 1.391 . S
C464 C466 1.394 . S
C464 H480 0.931 . S
C465 C464 1.391 . S
C465 C469 1.376 . S
C466 C464 1.394 . S
C466 C467 1.369 . S
C466 C470 1.531 . S
C467 C466 1.369 . S
C467 C468 1.410 . S
C467 C475 1.503 . S
C468 C467 1.410 . S
C468 C469 1.392 . S
C468 C471 1.511 . S
C469 C465 1.376 . S
C469 C468 1.392 . S
C469 H481 0.929 . S
C470 C466 1.531 . S
C470 H482 0.960 . S
C470 H483 0.962 . S
C470 H484 0.960 . S
C471 C468 1.511 . S
C471 H485 0.961 . S
C471 H486 0.961 . S
C471 H487 0.961 . S
C472 C473 1.370 . S
C472 C474 1.363 . S
C472 H488 0.931 . S
C473 C472 1.370 . S
C473 C477 1.408 . S
C474 C472 1.363 . S
C474 C475 1.370 . S
C474 C478 1.524 . S
C475 C467 1.503 . S
C475 C474 1.370 . S
C475 C476 1.403 . S
C476 C475 1.403 . S
C476 C477 1.404 . S
C476 C479 1.539 . S
C477 C473 1.408 . S
C477 C476 1.404 . S
C477 H489 0.930 . S
C478 C474 1.524 . S
C478 H490 0.956 . S
C478 H491 0.961 . S
C478 H492 0.961 . S
C479 C476 1.539 . S
C479 H493 0.958 . S
C479 H494 0.961 . S
C479 H495 0.960 . S
H480 C464 0.931 . S
H481 C469 0.929 . S
H482 C470 0.960 . S
H483 C470 0.962 . S
H484 C470 0.960 . S
H485 C471 0.961 . S
H486 C471 0.961 . S
H487 C471 0.961 . S
H488 C472 0.931 . S
H489 C477 0.930 . S
H490 C478 0.956 . S
H491 C478 0.961 . S
H492 C478 0.961 . S
H493 C479 0.958 . S
H494 C479 0.961 . S
H495 C479 0.960 . S
C496 C497 1.391 . S
C496 C498 1.394 . S
C496 H512 0.931 . S
C497 C496 1.391 . S
C497 C501 1.376 . S
C498 C496 1.394 . S
C498 C499 1.369 . S
C498 C502 1.531 . S
C499 C498 1.369 . S
C499 C500 1.410 . S
C499 C507 1.503 . S
C500 C499 1.410 . S
C500 C501 1.392 . S
C500 C503 1.511 . S
C501 C497 1.376 . S
C501 C500 1.392 . S
C501 H513 0.929 . S
C502 C498 1.531 . S
C502 H514 0.960 . S
C502 H515 0.962 . S
C502 H516 0.960 . S
C503 C500 1.511 . S
C503 H517 0.961 . S
C503 H518 0.961 . S
C503 H519 0.961 . S
C504 C505 1.370 . S
C504 C506 1.363 . S
C504 H520 0.931 . S
C505 C504 1.370 . S
C505 C509 1.408 . S
C506 C504 1.363 . S
C506 C507 1.370 . S
C506 C510 1.524 . S
C507 C499 1.503 . S
C507 C506 1.370 . S
C507 C508 1.403 . S
C508 C507 1.403 . S
C508 C509 1.404 . S
C508 C511 1.539 . S
C509 C505 1.408 . S
C509 C508 1.404 . S
C509 H521 0.930 . S
C510 C506 1.524 . S
C510 H522 0.956 . S
C510 H523 0.961 . S
C510 H524 0.961 . S
C511 C508 1.539 . S
C511 H525 0.958 . S
C511 H526 0.961 . S
C511 H527 0.960 . S
H512 C496 0.931 . S
H513 C501 0.929 . S
H514 C502 0.960 . S
H515 C502 0.962 . S
H516 C502 0.960 . S
H517 C503 0.961 . S
H518 C503 0.961 . S
H519 C503 0.961 . S
H520 C504 0.931 . S
H521 C509 0.930 . S
H522 C510 0.956 . S
H523 C510 0.961 . S
H524 C510 0.961 . S
H525 C511 0.958 . S
H526 C511 0.961 . S
H527 C511 0.960 . S
C528 C529 1.371 1_545 S
C528 C530 1.394 . S
C528 H544 0.931 . S
C529 C528 1.371 1_565 S
C529 C533 1.404 . S
C530 C528 1.394 . S
C530 C531 1.369 1_545 S
C530 C534 1.531 . S
C531 C530 1.369 1_565 S
C531 C532 1.410 . S
C531 C539 1.504 . S
C532 C531 1.410 . S
C532 C533 1.392 . S
C532 C535 1.511 . S
C533 C529 1.404 . S
C533 C532 1.392 . S
C533 H545 0.929 . S
C534 C530 1.531 . S
C534 H546 0.960 . S
C534 H547 0.962 . S
C534 H548 0.960 . S
C535 C532 1.511 . S
C535 H549 0.961 . S
C535 H550 0.961 . S
C535 H551 0.961 . S
C536 C537 1.370 . S
C536 C538 1.363 . S
C536 H552 0.931 . S
C537 C536 1.370 . S
C537 C541 1.408 1_545 S
C538 C536 1.363 . S
C538 C539 1.353 1_545 S
C538 C542 1.524 . S
C539 C531 1.504 . S
C539 C538 1.353 1_565 S
C539 C540 1.420 . S
C540 C539 1.420 . S
C540 C541 1.404 . S
C540 C543 1.539 . S
C541 C537 1.408 1_565 S
C541 C540 1.404 . S
C541 H553 0.930 . S
C542 C538 1.524 . S
C542 H554 0.956 . S
C542 H555 0.961 . S
C542 H556 0.961 . S
C543 C540 1.539 . S
C543 H557 0.958 . S
C543 H558 0.961 . S
C543 H559 0.960 . S
H544 C528 0.931 . S
H545 C533 0.929 . S
H546 C534 0.960 . S
H547 C534 0.962 . S
H548 C534 0.960 . S
H549 C535 0.961 . S
H550 C535 0.961 . S
H551 C535 0.961 . S
H552 C536 0.931 . S
H553 C541 0.930 . S
H554 C542 0.956 . S
H555 C542 0.961 . S
H556 C542 0.961 . S
H557 C543 0.958 . S
H558 C543 0.961 . S
H559 C543 0.960 . S
C560 C561 1.391 . S
C560 C562 1.394 . S
C560 H576 0.931 . S
C561 C560 1.391 . S
C561 C565 1.376 . S
C562 C560 1.394 . S
C562 C563 1.369 . S
C562 C566 1.531 . S
C563 C562 1.369 . S
C563 C564 1.410 . S
C563 C571 1.503 . S
C564 C563 1.410 . S
C564 C565 1.392 . S
C564 C567 1.511 . S
C565 C561 1.376 . S
C565 C564 1.392 . S
C565 H577 0.929 . S
C566 C562 1.531 . S
C566 H578 0.960 . S
C566 H579 0.962 . S
C566 H580 0.960 . S
C567 C564 1.511 . S
C567 H581 0.961 . S
C567 H582 0.961 . S
C567 H583 0.961 . S
C568 C569 1.370 . S
C568 C570 1.363 . S
C568 H584 0.931 . S
C569 C568 1.370 . S
C569 C573 1.408 . S
C570 C568 1.363 . S
C570 C571 1.370 . S
C570 C574 1.524 . S
C571 C563 1.503 . S
C571 C570 1.370 . S
C571 C572 1.403 . S
C572 C571 1.403 . S
C572 C573 1.404 . S
C572 C575 1.539 . S
C573 C569 1.408 . S
C573 C572 1.404 . S
C573 H585 0.930 . S
C574 C570 1.524 . S
C574 H586 0.956 . S
C574 H587 0.961 . S
C574 H588 0.961 . S
C575 C572 1.539 . S
C575 H589 0.958 . S
C575 H590 0.961 . S
C575 H591 0.960 . S
H576 C560 0.931 . S
H577 C565 0.929 . S
H578 C566 0.960 . S
H579 C566 0.962 . S
H580 C566 0.960 . S
H581 C567 0.961 . S
H582 C567 0.961 . S
H583 C567 0.961 . S
H584 C568 0.931 . S
H585 C573 0.930 . S
H586 C574 0.956 . S
H587 C574 0.961 . S
H588 C574 0.961 . S
H589 C575 0.958 . S
H590 C575 0.961 . S
H591 C575 0.960 . S
C592 C593 1.391 . S
C592 C594 1.394 . S
C592 H608 0.931 . S
C593 C592 1.391 . S
C593 C597 1.376 . S
C594 C592 1.394 . S
C594 C595 1.369 . S
C594 C598 1.531 . S
C595 C594 1.369 . S
C595 C596 1.410 . S
C595 C603 1.503 . S
C596 C595 1.410 . S
C596 C597 1.392 . S
C596 C599 1.511 . S
C597 C593 1.376 . S
C597 C596 1.392 . S
C597 H609 0.929 . S
C598 C594 1.531 . S
C598 H610 0.960 . S
C598 H611 0.962 . S
C598 H612 0.960 . S
C599 C596 1.511 . S
C599 H613 0.961 . S
C599 H614 0.961 . S
C599 H615 0.961 . S
C600 C601 1.370 . S
C600 C602 1.363 . S
C600 H616 0.931 . S
C601 C600 1.370 . S
C601 C605 1.408 . S
C602 C600 1.363 . S
C602 C603 1.370 . S
C602 C606 1.524 . S
C603 C595 1.503 . S
C603 C602 1.370 . S
C603 C604 1.403 . S
C604 C603 1.403 . S
C604 C605 1.404 . S
C604 C607 1.539 . S
C605 C601 1.408 . S
C605 C604 1.404 . S
C605 H617 0.930 . S
C606 C602 1.524 . S
C606 H618 0.956 . S
C606 H619 0.961 . S
C606 H620 0.961 . S
C607 C604 1.539 . S
C607 H621 0.958 . S
C607 H622 0.961 . S
C607 H623 0.960 . S
H608 C592 0.931 . S
H609 C597 0.929 . S
H610 C598 0.960 . S
H611 C598 0.962 . S
H612 C598 0.960 . S
H613 C599 0.961 . S
H614 C599 0.961 . S
H615 C599 0.961 . S
H616 C600 0.931 . S
H617 C605 0.930 . S
H618 C606 0.956 . S
H619 C606 0.961 . S
H620 C606 0.961 . S
H621 C607 0.958 . S
H622 C607 0.961 . S
H623 C607 0.960 . S
C624 C625 1.391 . S
C624 C626 1.394 . S
C624 H640 0.931 . S
C625 C624 1.391 . S
C625 C629 1.376 . S
C626 C624 1.394 . S
C626 C627 1.369 . S
C626 C630 1.531 . S
C627 C626 1.369 . S
C627 C628 1.410 . S
C627 C635 1.503 . S
C628 C627 1.410 . S
C628 C629 1.392 . S
C628 C631 1.511 . S
C629 C625 1.376 . S
C629 C628 1.392 . S
C629 H641 0.929 . S
C630 C626 1.531 . S
C630 H642 0.960 . S
C630 H643 0.962 . S
C630 H644 0.960 . S
C631 C628 1.511 . S
C631 H645 0.961 . S
C631 H646 0.961 . S
C631 H647 0.961 . S
C632 C633 1.370 . S
C632 C634 1.363 . S
C632 H648 0.931 . S
C633 C632 1.370 . S
C633 C637 1.408 . S
C634 C632 1.363 . S
C634 C635 1.370 . S
C634 C638 1.524 . S
C635 C627 1.503 . S
C635 C634 1.370 . S
C635 C636 1.403 . S
C636 C635 1.403 . S
C636 C637 1.404 . S
C636 C639 1.539 1_655 S
C637 C633 1.408 . S
C637 C636 1.404 . S
C637 H649 0.930 1_655 S
C638 C634 1.524 . S
C638 H650 0.956 . S
C638 H651 0.961 . S
C638 H652 0.961 . S
C639 C636 1.539 1_455 S
C639 H653 0.958 . S
C639 H654 0.961 . S
C639 H655 0.960 1_455 S
H640 C624 0.931 . S
H641 C629 0.929 . S
H642 C630 0.960 . S
H643 C630 0.962 . S
H644 C630 0.960 . S
H645 C631 0.961 . S
H646 C631 0.961 . S
H647 C631 0.961 . S
H648 C632 0.931 . S
H649 C637 0.930 1_455 S
H650 C638 0.956 . S
H651 C638 0.961 . S
H652 C638 0.961 . S
H653 C639 0.958 . S
H654 C639 0.961 . S
H655 C639 0.960 1_655 S
C656 C657 1.391 . S
C656 C658 1.394 . S
C656 H672 0.931 . S
C657 C656 1.391 . S
C657 C661 1.376 . S
C658 C656 1.394 . S
C658 C659 1.369 . S
C658 C662 1.531 . S
C659 C658 1.369 . S
C659 C660 1.410 . S
C659 C667 1.503 . S
C660 C659 1.410 . S
C660 C661 1.392 . S
C660 C663 1.511 . S
C661 C657 1.376 . S
C661 C660 1.392 . S
C661 H673 0.929 . S
C662 C658 1.531 . S
C662 H674 0.960 . S
C662 H675 0.962 . S
C662 H676 0.960 . S
C663 C660 1.511 . S
C663 H677 0.961 . S
C663 H678 0.961 . S
C663 H679 0.961 . S
C664 C665 1.370 . S
C664 C666 1.363 . S
C664 H680 0.931 . S
C665 C664 1.370 . S
C665 C669 1.408 . S
C666 C664 1.363 . S
C666 C667 1.370 . S
C666 C670 1.524 . S
C667 C659 1.503 . S
C667 C666 1.370 . S
C667 C668 1.403 . S
C668 C667 1.403 . S
C668 C669 1.404 . S
C668 C671 1.539 . S
C669 C665 1.408 . S
C669 C668 1.404 . S
C669 H681 0.930 1_455 S
C670 C666 1.524 . S
C670 H682 0.956 . S
C670 H683 0.961 . S
C670 H684 0.961 . S
C671 C668 1.539 . S
C671 H685 0.958 . S
C671 H686 0.961 1_455 S
C671 H687 0.960 . S
H672 C656 0.931 . S
H673 C661 0.929 . S
H674 C662 0.960 . S
H675 C662 0.962 . S
H676 C662 0.960 . S
H677 C663 0.961 . S
H678 C663 0.961 . S
H679 C663 0.961 . S
H680 C664 0.931 . S
H681 C669 0.930 1_655 S
H682 C670 0.956 . S
H683 C670 0.961 . S
H684 C670 0.961 . S
H685 C671 0.958 . S
H686 C671 0.961 1_655 S
H687 C671 0.960 . S
C688 C689 1.391 . S
C688 C690 1.394 . S
C688 H704 0.931 . S
C689 C688 1.391 . S
C689 C693 1.376 1_545 S
C690 C688 1.394 . S
C690 C691 1.369 . S
C690 C694 1.531 . S
C691 C690 1.369 . S
C691 C692 1.410 1_545 S
C691 C699 1.503 1_545 S
C692 C691 1.410 1_565 S
C692 C693 1.392 . S
C692 C695 1.511 . S
C693 C689 1.376 1_565 S
C693 C692 1.392 . S
C693 H705 0.929 . S
C694 C690 1.531 . S
C694 H706 0.960 . S
C694 H707 0.962 . S
C694 H708 0.960 . S
C695 C692 1.511 . S
C695 H709 0.961 . S
C695 H710 0.961 . S
C695 H711 0.961 1_565 S
C696 C697 1.370 . S
C696 C698 1.363 . S
C696 H712 0.931 . S
C697 C696 1.370 . S
C697 C701 1.408 1_565 S
C698 C696 1.363 . S
C698 C699 1.370 . S
C698 C702 1.524 . S
C699 C691 1.503 1_565 S
C699 C698 1.370 . S
C699 C700 1.403 1_565 S
C700 C699 1.403 1_545 S
C700 C701 1.404 . S
C700 C703 1.539 . S
C701 C697 1.408 1_545 S
C701 C700 1.404 . S
C701 H713 0.930 . S
C702 C698 1.524 . S
C702 H714 0.956 . S
C702 H715 0.961 . S
C702 H716 0.961 . S
C703 C700 1.539 . S
C703 H717 0.958 . S
C703 H718 0.961 . S
C703 H719 0.960 . S
H704 C688 0.931 . S
H705 C693 0.929 . S
H706 C694 0.960 . S
H707 C694 0.962 . S
H708 C694 0.960 . S
H709 C695 0.961 . S
H710 C695 0.961 . S
H711 C695 0.961 1_545 S
H712 C696 0.931 . S
H713 C701 0.930 . S
H714 C702 0.956 . S
H715 C702 0.961 . S
H716 C702 0.961 . S
H717 C703 0.958 . S
H718 C703 0.961 . S
H719 C703 0.960 . S
C720 C721 1.391 . S
C720 C722 1.394 . S
C720 H736 0.931 . S
C721 C720 1.391 . S
C721 C725 1.376 . S
C722 C720 1.394 . S
C722 C723 1.369 . S
C722 C726 1.531 . S
C723 C722 1.369 . S
C723 C724 1.410 . S
C723 C731 1.503 . S
C724 C723 1.410 . S
C724 C725 1.392 . S
C724 C727 1.511 . S
C725 C721 1.376 . S
C725 C724 1.392 . S
C725 H737 0.929 . S
C726 C722 1.531 . S
C726 H738 0.960 . S
C726 H739 0.962 . S
C726 H740 0.960 . S
C727 C724 1.511 . S
C727 H741 0.961 . S
C727 H742 0.961 . S
C727 H743 0.961 . S
C728 C729 1.370 . S
C728 C730 1.363 . S
C728 H744 0.931 . S
C729 C728 1.370 . S
C729 C733 1.408 . S
C730 C728 1.363 . S
C730 C731 1.370 . S
C730 C734 1.524 . S
C731 C723 1.503 . S
C731 C730 1.370 . S
C731 C732 1.403 . S
C732 C731 1.403 . S
C732 C733 1.404 . S
C732 C735 1.539 . S
C733 C729 1.408 . S
C733 C732 1.404 . S
C733 H745 0.930 . S
C734 C730 1.524 . S
C734 H746 0.956 . S
C734 H747 0.961 . S
C734 H748 0.961 . S
C735 C732 1.539 . S
C735 H749 0.958 . S
C735 H750 0.961 . S
C735 H751 0.960 . S
H736 C720 0.931 . S
H737 C725 0.929 . S
H738 C726 0.960 . S
H739 C726 0.962 . S
H740 C726 0.960 . S
H741 C727 0.961 . S
H742 C727 0.961 . S
H743 C727 0.961 . S
H744 C728 0.931 . S
H745 C733 0.930 . S
H746 C734 0.956 . S
H747 C734 0.961 . S
H748 C734 0.961 . S
H749 C735 0.958 . S
H750 C735 0.961 . S
H751 C735 0.960 . S
C752 C753 1.391 . S
C752 C754 1.394 . S
C752 H768 0.931 . S
C753 C752 1.391 . S
C753 C757 1.376 . S
C754 C752 1.394 . S
C754 C755 1.369 . S
C754 C758 1.531 . S
C755 C754 1.369 . S
C755 C756 1.410 . S
C755 C763 1.503 . S
C756 C755 1.410 . S
C756 C757 1.392 . S
C756 C759 1.511 . S
C757 C753 1.376 . S
C757 C756 1.392 . S
C757 H769 0.929 . S
C758 C754 1.531 . S
C758 H770 0.960 . S
C758 H771 0.962 . S
C758 H772 0.960 . S
C759 C756 1.511 . S
C759 H773 0.961 . S
C759 H774 0.961 . S
C759 H775 0.961 . S
C760 C761 1.370 . S
C760 C762 1.363 . S
C760 H776 0.931 . S
C761 C760 1.370 . S
C761 C765 1.408 . S
C762 C760 1.363 . S
C762 C763 1.370 . S
C762 C766 1.524 . S
C763 C755 1.503 . S
C763 C762 1.370 . S
C763 C764 1.403 . S
C764 C763 1.403 . S
C764 C765 1.404 . S
C764 C767 1.539 . S
C765 C761 1.408 . S
C765 C764 1.404 . S
C765 H777 0.930 . S
C766 C762 1.524 . S
C766 H778 0.956 . S
C766 H779 0.961 . S
C766 H780 0.961 . S
C767 C764 1.539 . S
C767 H781 0.958 . S
C767 H782 0.961 . S
C767 H783 0.960 . S
H768 C752 0.931 . S
H769 C757 0.929 . S
H770 C758 0.960 . S
H771 C758 0.962 . S
H772 C758 0.960 . S
H773 C759 0.961 . S
H774 C759 0.961 . S
H775 C759 0.961 . S
H776 C760 0.931 . S
H777 C765 0.930 . S
H778 C766 0.956 . S
H779 C766 0.961 . S
H780 C766 0.961 . S
H781 C767 0.958 . S
H782 C767 0.961 . S
H783 C767 0.960 . S
C784 C785 1.391 . S
C784 C786 1.394 . S
C784 H800 0.931 . S
C785 C784 1.391 . S
C785 C789 1.376 . S
C786 C784 1.394 . S
C786 C787 1.369 . S
C786 C790 1.531 . S
C787 C786 1.369 . S
C787 C788 1.410 . S
C787 C795 1.503 . S
C788 C787 1.410 . S
C788 C789 1.392 . S
C788 C791 1.511 . S
C789 C785 1.376 . S
C789 C788 1.392 . S
C789 H801 0.929 . S
C790 C786 1.531 . S
C790 H802 0.960 . S
C790 H803 0.962 . S
C790 H804 0.960 . S
C791 C788 1.511 . S
C791 H805 0.961 . S
C791 H806 0.961 . S
C791 H807 0.961 . S
C792 C793 1.370 . S
C792 C794 1.363 . S
C792 H808 0.931 . S
C793 C792 1.370 . S
C793 C797 1.408 1_655 S
C794 C792 1.363 . S
C794 C795 1.370 . S
C794 C798 1.524 . S
C795 C787 1.503 . S
C795 C794 1.370 . S
C795 C796 1.403 . S
C796 C795 1.403 . S
C796 C797 1.404 1_655 S
C796 C799 1.562 . S
C797 C793 1.408 1_455 S
C797 C796 1.404 1_455 S
C797 H809 0.930 . S
C798 C794 1.524 . S
C798 H810 0.956 . S
C798 H811 0.961 . S
C798 H812 0.961 . S
C799 C796 1.562 . S
C799 H813 0.976 . S
C799 H814 0.907 1_655 S
C799 H815 0.977 . S
H800 C784 0.931 . S
H801 C789 0.929 . S
H802 C790 0.960 . S
H803 C790 0.962 . S
H804 C790 0.960 . S
H805 C791 0.961 . S
H806 C791 0.961 . S
H807 C791 0.961 . S
H808 C792 0.931 . S
H809 C797 0.930 . S
H810 C798 0.956 . S
H811 C798 0.961 . S
H812 C798 0.961 . S
H813 C799 0.976 . S
H814 C799 0.907 1_455 S
H815 C799 0.977 . S
C816 C817 1.391 1_545 S
C816 C818 1.394 . S
C816 H832 0.931 . S
C817 C816 1.391 1_565 S
C817 C821 1.376 . S
C818 C816 1.394 . S
C818 C819 1.369 . S
C818 C822 1.531 . S
C819 C818 1.369 . S
C819 C820 1.410 1_545 S
C819 C827 1.503 . S
C820 C819 1.410 1_565 S
C820 C821 1.392 . S
C820 C823 1.511 . S
C821 C817 1.376 . S
C821 C820 1.392 . S
C821 H833 0.929 . S
C822 C818 1.531 . S
C822 H834 0.960 . S
C822 H835 0.962 . S
C822 H836 0.960 . S
C823 C820 1.511 . S
C823 H837 0.961 . S
C823 H838 0.961 . S
C823 H839 0.961 . S
C824 C825 1.370 . S
C824 C826 1.363 . S
C824 H840 0.931 . S
C825 C824 1.370 . S
C825 C829 1.408 1_545 S
C826 C824 1.363 . S
C826 C827 1.370 . S
C826 C830 1.524 . S
C827 C819 1.503 . S
C827 C826 1.370 . S
C827 C828 1.403 1_545 S
C828 C827 1.403 1_565 S
C828 C829 1.404 . S
C828 C831 1.539 . S
C829 C825 1.408 1_565 S
C829 C828 1.404 . S
C829 H841 0.930 . S
C830 C826 1.524 . S
C830 H842 0.956 . S
C830 H843 0.961 . S
C830 H844 0.961 . S
C831 C828 1.539 . S
C831 H845 0.958 . S
C831 H846 0.961 . S
C831 H847 0.960 . S
H832 C816 0.931 . S
H833 C821 0.929 . S
H834 C822 0.960 . S
H835 C822 0.962 . S
H836 C822 0.960 . S
H837 C823 0.961 . S
H838 C823 0.961 . S
H839 C823 0.961 . S
H840 C824 0.931 . S
H841 C829 0.930 . S
H842 C830 0.956 . S
H843 C830 0.961 . S
H844 C830 0.961 . S
H845 C831 0.958 . S
H846 C831 0.961 . S
H847 C831 0.960 . S
C848 C849 1.391 . S
C848 C850 1.394 . S
C848 H864 0.931 . S
C849 C848 1.391 . S
C849 C853 1.376 . S
C850 C848 1.394 . S
C850 C851 1.369 . S
C850 C854 1.531 . S
C851 C850 1.369 . S
C851 C852 1.410 . S
C851 C859 1.503 . S
C852 C851 1.410 . S
C852 C853 1.392 . S
C852 C855 1.511 . S
C853 C849 1.376 . S
C853 C852 1.392 . S
C853 H865 0.929 . S
C854 C850 1.531 . S
C854 H866 0.960 . S
C854 H867 0.962 . S
C854 H868 0.960 . S
C855 C852 1.511 . S
C855 H869 0.961 . S
C855 H870 0.961 . S
C855 H871 0.961 . S
C856 C857 1.370 . S
C856 C858 1.363 . S
C856 H872 0.931 . S
C857 C856 1.370 . S
C857 C861 1.408 . S
C858 C856 1.363 . S
C858 C859 1.370 . S
C858 C862 1.524 . S
C859 C851 1.503 . S
C859 C858 1.370 . S
C859 C860 1.403 . S
C860 C859 1.403 . S
C860 C861 1.404 . S
C860 C863 1.539 . S
C861 C857 1.408 . S
C861 C860 1.404 . S
C861 H873 0.930 . S
C862 C858 1.524 . S
C862 H874 0.956 . S
C862 H875 0.961 . S
C862 H876 0.961 . S
C863 C860 1.539 . S
C863 H877 0.958 . S
C863 H878 0.961 . S
C863 H879 0.960 . S
H864 C848 0.931 . S
H865 C853 0.929 . S
H866 C854 0.960 . S
H867 C854 0.962 . S
H868 C854 0.960 . S
H869 C855 0.961 . S
H870 C855 0.961 . S
H871 C855 0.961 . S
H872 C856 0.931 . S
H873 C861 0.930 . S
H874 C862 0.956 . S
H875 C862 0.961 . S
H876 C862 0.961 . S
H877 C863 0.958 . S
H878 C863 0.961 . S
H879 C863 0.960 . S
C880 C881 1.391 . S
C880 C882 1.394 . S
C880 H896 0.931 . S
C881 C880 1.391 . S
C881 C885 1.376 . S
C882 C880 1.394 . S
C882 C883 1.369 . S
C882 C886 1.531 . S
C883 C882 1.369 . S
C883 C884 1.410 . S
C883 C891 1.503 . S
C884 C883 1.410 . S
C884 C885 1.392 . S
C884 C887 1.511 . S
C885 C881 1.376 . S
C885 C884 1.392 . S
C885 H897 0.929 . S
C886 C882 1.531 . S
C886 H898 0.960 . S
C886 H899 0.962 . S
C886 H900 0.960 . S
C887 C884 1.511 . S
C887 H901 0.961 . S
C887 H902 0.961 . S
C887 H903 0.961 . S
C888 C889 1.370 . S
C888 C890 1.363 . S
C888 H904 0.931 . S
C889 C888 1.370 . S
C889 C893 1.408 . S
C890 C888 1.363 . S
C890 C891 1.370 . S
C890 C894 1.524 . S
C891 C883 1.503 . S
C891 C890 1.370 . S
C891 C892 1.403 . S
C892 C891 1.403 . S
C892 C893 1.404 . S
C892 C895 1.539 . S
C893 C889 1.408 . S
C893 C892 1.404 . S
C893 H905 0.930 . S
C894 C890 1.524 . S
C894 H906 0.956 . S
C894 H907 0.961 . S
C894 H908 0.961 . S
C895 C892 1.539 . S
C895 H909 0.958 . S
C895 H910 0.961 . S
C895 H911 0.960 . S
H896 C880 0.931 . S
H897 C885 0.929 . S
H898 C886 0.960 . S
H899 C886 0.962 . S
H900 C886 0.960 . S
H901 C887 0.961 . S
H902 C887 0.961 . S
H903 C887 0.961 . S
H904 C888 0.931 . S
H905 C893 0.930 . S
H906 C894 0.956 . S
H907 C894 0.961 . S
H908 C894 0.961 . S
H909 C895 0.958 . S
H910 C895 0.961 . S
H911 C895 0.960 . S
C912 C913 1.391 . S
C912 C914 1.394 . S
C912 H928 0.931 . S
C913 C912 1.391 . S
C913 C917 1.376 . S
C914 C912 1.394 . S
C914 C915 1.369 . S
C914 C918 1.531 . S
C915 C914 1.369 . S
C915 C916 1.410 . S
C915 C923 1.503 . S
C916 C915 1.410 . S
C916 C917 1.392 . S
C916 C919 1.511 . S
C917 C913 1.376 . S
C917 C916 1.392 . S
C917 H929 0.929 . S
C918 C914 1.531 . S
C918 H930 0.960 . S
C918 H931 0.962 . S
C918 H932 0.960 . S
C919 C916 1.511 . S
C919 H933 0.961 . S
C919 H934 0.961 . S
C919 H935 0.961 . S
C920 C921 1.370 . S
C920 C922 1.363 . S
C920 H936 0.931 . S
C921 C920 1.370 . S
C921 C925 1.408 . S
C922 C920 1.363 . S
C922 C923 1.370 . S
C922 C926 1.524 . S
C923 C915 1.503 . S
C923 C922 1.370 . S
C923 C924 1.403 . S
C924 C923 1.403 . S
C924 C925 1.404 . S
C924 C927 1.539 . S
C925 C921 1.408 . S
C925 C924 1.404 . S
C925 H937 0.930 . S
C926 C922 1.524 . S
C926 H938 0.956 . S
C926 H939 0.961 . S
C926 H940 0.961 . S
C927 C924 1.539 . S
C927 H941 0.958 . S
C927 H942 0.961 . S
C927 H943 0.960 . S
H928 C912 0.931 . S
H929 C917 0.929 . S
H930 C918 0.960 . S
H931 C918 0.962 . S
H932 C918 0.960 . S
H933 C919 0.961 . S
H934 C919 0.961 . S
H935 C919 0.961 . S
H936 C920 0.931 . S
H937 C925 0.930 . S
H938 C926 0.956 . S
H939 C926 0.961 . S
H940 C926 0.961 . S
H941 C927 0.958 . S
H942 C927 0.961 . S
H943 C927 0.960 . S
C944 C945 1.358 1_565 S
C944 C946 1.394 . S
C944 H960 0.931 . S
C945 C944 1.358 1_545 S
C945 C949 1.407 . S
C946 C944 1.394 . S
C946 C947 1.369 1_565 S
C946 C950 1.531 . S
C947 C946 1.369 1_545 S
C947 C948 1.410 . S
C947 C955 1.503 . S
C948 C947 1.410 . S
C948 C949 1.392 . S
C948 C951 1.511 . S
C949 C945 1.407 . S
C949 C948 1.392 . S
C949 H961 0.929 . S
C950 C946 1.531 . S
C950 H962 0.960 . S
C950 H963 0.962 . S
C950 H964 0.960 . S
C951 C948 1.511 . S
C951 H965 0.961 . S
C951 H966 0.961 . S
C951 H967 0.961 . S
C952 C953 1.370 . S
C952 C954 1.363 . S
C952 H968 0.931 . S
C953 C952 1.370 . S
C953 C957 1.408 . S
C954 C952 1.363 . S
C954 C955 1.370 . S
C954 C958 1.524 . S
C955 C947 1.503 . S
C955 C954 1.370 . S
C955 C956 1.403 . S
C956 C955 1.403 . S
C956 C957 1.404 . S
C956 C959 1.539 . S
C957 C953 1.408 . S
C957 C956 1.404 . S
C957 H969 0.930 . S
C958 C954 1.524 . S
C958 H970 0.956 1_545 S
C958 H971 0.961 . S
C958 H972 0.961 . S
C959 C956 1.539 . S
C959 H973 0.958 1_545 S
C959 H974 0.961 . S
C959 H975 0.960 . S
H960 C944 0.931 . S
H961 C949 0.929 . S
H962 C950 0.960 . S
H963 C950 0.962 . S
H964 C950 0.960 . S
H965 C951 0.961 . S
H966 C951 0.961 . S
H967 C951 0.961 . S
H968 C952 0.931 . S
H969 C957 0.930 . S
H970 C958 0.956 1_565 S
H971 C958 0.961 . S
H972 C958 0.961 . S
H973 C959 0.958 1_565 S
H974 C959 0.961 . S
H975 C959 0.960 . S
C976 C977 1.391 . S
C976 C978 1.394 . S
C976 H992 0.931 . S
C977 C976 1.391 . S
C977 C981 1.376 . S
C978 C976 1.394 . S
C978 C979 1.369 . S
C978 C982 1.531 . S
C979 C978 1.369 . S
C979 C980 1.410 . S
C979 C987 1.503 . S
C980 C979 1.410 . S
C980 C981 1.392 . S
C980 C983 1.511 . S
C981 C977 1.376 . S
C981 C980 1.392 . S
C981 H993 0.929 . S
C982 C978 1.531 . S
C982 H994 0.960 . S
C982 H995 0.962 . S
C982 H996 0.960 . S
C983 C980 1.511 . S
C983 H997 0.961 . S
C983 H998 0.961 . S
C983 H999 0.961 . S
C984 C985 1.370 . S
C984 C986 1.363 . S
C984 H1000 0.931 . S
C985 C984 1.370 . S
C985 C989 1.408 . S
C986 C984 1.363 . S
C986 C987 1.370 . S
C986 C990 1.524 . S
C987 C979 1.503 . S
C987 C986 1.370 . S
C987 C988 1.403 . S
C988 C987 1.403 . S
C988 C989 1.404 . S
C988 C991 1.539 . S
C989 C985 1.408 . S
C989 C988 1.404 . S
C989 H1001 0.930 . S
C990 C986 1.524 . S
C990 H1002 0.956 . S
C990 H1003 0.961 . S
C990 H1004 0.961 . S
C991 C988 1.539 . S
C991 H1005 0.958 . S
C991 H1006 0.961 . S
C991 H1007 0.960 . S
H992 C976 0.931 . S
H993 C981 0.929 . S
H994 C982 0.960 . S
H995 C982 0.962 . S
H996 C982 0.960 . S
H997 C983 0.961 . S
H998 C983 0.961 . S
H999 C983 0.961 . S
H1000 C984 0.931 . S
H1001 C989 0.930 . S
H1002 C990 0.956 . S
H1003 C990 0.961 . S
H1004 C990 0.961 . S
H1005 C991 0.958 . S
H1006 C991 0.961 . S
H1007 C991 0.960 . S
C1008 C1009 1.391 . S
C1008 C1010 1.394 . S
C1008 H1024 0.931 . S
C1009 C1008 1.391 . S
C1009 C1013 1.376 . S
C1010 C1008 1.394 . S
C1010 C1011 1.369 . S
C1010 C1014 1.531 . S
C1011 C1010 1.369 . S
C1011 C1012 1.410 . S
C1011 C1019 1.503 . S
C1012 C1011 1.410 . S
C1012 C1013 1.392 . S
C1012 C1015 1.511 . S
C1013 C1009 1.376 . S
C1013 C1012 1.392 . S
C1013 H1025 0.929 . S
C1014 C1010 1.531 . S
C1014 H1026 0.960 . S
C1014 H1027 0.962 . S
C1014 H1028 0.960 . S
C1015 C1012 1.511 . S
C1015 H1029 0.961 . S
C1015 H1030 0.961 . S
C1015 H1031 0.961 . S
C1016 C1017 1.370 . S
C1016 C1018 1.363 . S
C1016 H1032 0.931 . S
C1017 C1016 1.370 . S
C1017 C1021 1.408 . S
C1018 C1016 1.363 . S
C1018 C1019 1.370 . S
C1018 C1022 1.524 . S
C1019 C1011 1.503 . S
C1019 C1018 1.370 . S
C1019 C1020 1.403 . S
C1020 C1019 1.403 . S
C1020 C1021 1.404 . S
C1020 C1023 1.539 . S
C1021 C1017 1.408 . S
C1021 C1020 1.404 . S
C1021 H1033 0.930 . S
C1022 C1018 1.524 . S
C1022 H1034 0.956 . S
C1022 H1035 0.961 . S
C1022 H1036 0.961 . S
C1023 C1020 1.539 . S
C1023 H1037 0.958 . S
C1023 H1038 0.961 . S
C1023 H1039 0.960 . S
H1024 C1008 0.931 . S
H1025 C1013 0.929 . S
H1026 C1014 0.960 . S
H1027 C1014 0.962 . S
H1028 C1014 0.960 . S
H1029 C1015 0.961 . S
H1030 C1015 0.961 . S
H1031 C1015 0.961 . S
H1032 C1016 0.931 . S
H1033 C1021 0.930 . S
H1034 C1022 0.956 . S
H1035 C1022 0.961 . S
H1036 C1022 0.961 . S
H1037 C1023 0.958 . S
H1038 C1023 0.961 . S
H1039 C1023 0.960 . S
C1040 C1041 1.391 . S
C1040 C1042 1.394 . S
C1040 H1056 0.931 . S
C1041 C1040 1.391 . S
C1041 C1045 1.376 . S
C1042 C1040 1.394 . S
C1042 C1043 1.369 . S
C1042 C1046 1.531 . S
C1043 C1042 1.369 . S
C1043 C1044 1.410 . S
C1043 C1051 1.503 . S
C1044 C1043 1.410 . S
C1044 C1045 1.392 . S
C1044 C1047 1.511 . S
C1045 C1041 1.376 . S
C1045 C1044 1.392 . S
C1045 H1057 0.929 . S
C1046 C1042 1.531 . S
C1046 H1058 0.960 . S
C1046 H1059 0.962 . S
C1046 H1060 0.960 . S
C1047 C1044 1.511 . S
C1047 H1061 0.961 . S
C1047 H1062 0.961 . S
C1047 H1063 0.961 . S
C1048 C1049 1.370 . S
C1048 C1050 1.363 . S
C1048 H1064 0.931 . S
C1049 C1048 1.370 . S
C1049 C1053 1.408 . S
C1050 C1048 1.363 . S
C1050 C1051 1.370 . S
C1050 C1054 1.524 . S
C1051 C1043 1.503 . S
C1051 C1050 1.370 . S
C1051 C1052 1.403 . S
C1052 C1051 1.403 . S
C1052 C1053 1.404 . S
C1052 C1055 1.539 . S
C1053 C1049 1.408 . S
C1053 C1052 1.404 . S
C1053 H1065 0.930 . S
C1054 C1050 1.524 . S
C1054 H1066 0.956 . S
C1054 H1067 0.961 . S
C1054 H1068 0.961 . S
C1055 C1052 1.539 . S
C1055 H1069 0.958 . S
C1055 H1070 0.961 . S
C1055 H1071 0.960 . S
H1056 C1040 0.931 . S
H1057 C1045 0.929 . S
H1058 C1046 0.960 . S
H1059 C1046 0.962 . S
H1060 C1046 0.960 . S
H1061 C1047 0.961 . S
H1062 C1047 0.961 . S
H1063 C1047 0.961 . S
H1064 C1048 0.931 . S
H1065 C1053 0.930 . S
H1066 C1054 0.956 . S
H1067 C1054 0.961 . S
H1068 C1054 0.961 . S
H1069 C1055 0.958 . S
H1070 C1055 0.961 . S
H1071 C1055 0.960 . S
C1072 C1073 1.391 . S
C1072 C1074 1.394 . S
C1072 H1088 0.931 . S
C1073 C1072 1.391 . S
C1073 C1077 1.376 1_545 S
C1074 C1072 1.394 . S
C1074 C1075 1.369 . S
C1074 C1078 1.531 . S
C1075 C1074 1.369 . S
C1075 C1076 1.410 1_545 S
C1075 C1083 1.503 . S
C1076 C1075 1.410 1_565 S
C1076 C1077 1.392 . S
C1076 C1079 1.511 . S
C1077 C1073 1.376 1_565 S
C1077 C1076 1.392 . S
C1077 H1089 0.929 . S
C1078 C1074 1.531 . S
C1078 H1090 0.960 . S
C1078 H1091 0.962 . S
C1078 H1092 0.960 . S
C1079 C1076 1.511 . S
C1079 H1093 0.961 . S
C1079 H1094 0.961 . S
C1079 H1095 0.961 1_565 S
C1080 C1081 1.370 . S
C1080 C1082 1.363 . S
C1080 H1096 0.931 . S
C1081 C1080 1.370 . S
C1081 C1085 1.408 1_565 S
C1082 C1080 1.363 . S
C1082 C1083 1.370 1_565 S
C1082 C1086 1.524 . S
C1083 C1075 1.503 . S
C1083 C1082 1.370 1_545 S
C1083 C1084 1.403 . S
C1084 C1083 1.403 . S
C1084 C1085 1.404 . S
C1084 C1087 1.539 . S
C1085 C1081 1.408 1_545 S
C1085 C1084 1.404 . S
C1085 H1097 0.930 . S
C1086 C1082 1.524 . S
C1086 H1098 0.956 . S
C1086 H1099 0.961 . S
C1086 H1100 0.961 . S
C1087 C1084 1.539 . S
C1087 H1101 0.958 . S
C1087 H1102 0.961 . S
C1087 H1103 0.960 . S
H1088 C1072 0.931 . S
H1089 C1077 0.929 . S
H1090 C1078 0.960 . S
H1091 C1078 0.962 . S
H1092 C1078 0.960 . S
H1093 C1079 0.961 . S
H1094 C1079 0.961 . S
H1095 C1079 0.961 1_545 S
H1096 C1080 0.931 . S
H1097 C1085 0.930 . S
H1098 C1086 0.956 . S
H1099 C1086 0.961 . S
H1100 C1086 0.961 . S
H1101 C1087 0.958 . S
H1102 C1087 0.961 . S
H1103 C1087 0.960 . S
C1104 C1105 1.391 . S
C1104 C1106 1.394 . S
C1104 H1120 0.931 . S
C1105 C1104 1.391 . S
C1105 C1109 1.376 . S
C1106 C1104 1.394 . S
C1106 C1107 1.369 . S
C1106 C1110 1.531 . S
C1107 C1106 1.369 . S
C1107 C1108 1.410 . S
C1107 C1115 1.503 . S
C1108 C1107 1.410 . S
C1108 C1109 1.392 . S
C1108 C1111 1.511 . S
C1109 C1105 1.376 . S
C1109 C1108 1.392 . S
C1109 H1121 0.929 . S
C1110 C1106 1.531 . S
C1110 H1122 0.960 . S
C1110 H1123 0.962 . S
C1110 H1124 0.960 . S
C1111 C1108 1.511 . S
C1111 H1125 0.961 . S
C1111 H1126 0.961 . S
C1111 H1127 0.961 . S
C1112 C1113 1.370 . S
C1112 C1114 1.363 . S
C1112 H1128 0.931 . S
C1113 C1112 1.370 . S
C1113 C1117 1.408 . S
C1114 C1112 1.363 . S
C1114 C1115 1.370 . S
C1114 C1118 1.524 . S
C1115 C1107 1.503 . S
C1115 C1114 1.370 . S
C1115 C1116 1.403 . S
C1116 C1115 1.403 . S
C1116 C1117 1.404 . S
C1116 C1119 1.539 . S
C1117 C1113 1.408 . S
C1117 C1116 1.404 . S
C1117 H1129 0.930 . S
C1118 C1114 1.524 . S
C1118 H1130 0.956 . S
C1118 H1131 0.961 . S
C1118 H1132 0.961 . S
C1119 C1116 1.539 . S
C1119 H1133 0.958 . S
C1119 H1134 0.961 . S
C1119 H1135 0.960 . S
H1120 C1104 0.931 . S
H1121 C1109 0.929 . S
H1122 C1110 0.960 . S
H1123 C1110 0.962 . S
H1124 C1110 0.960 . S
H1125 C1111 0.961 . S
H1126 C1111 0.961 . S
H1127 C1111 0.961 . S
H1128 C1112 0.931 . S
H1129 C1117 0.930 . S
H1130 C1118 0.956 . S
H1131 C1118 0.961 . S
H1132 C1118 0.961 . S
H1133 C1119 0.958 . S
H1134 C1119 0.961 . S
H1135 C1119 0.960 . S
C1136 C1137 1.391 . S
C1136 C1138 1.394 . S
C1136 H1152 0.931 . S
C1137 C1136 1.391 . S
C1137 C1141 1.376 . S
C1138 C1136 1.394 . S
C1138 C1139 1.369 . S
C1138 C1142 1.531 . S
C1139 C1138 1.369 . S
C1139 C1140 1.410 . S
C1139 C1147 1.503 . S
C1140 C1139 1.410 . S
C1140 C1141 1.392 . S
C1140 C1143 1.511 . S
C1141 C1137 1.376 . S
C1141 C1140 1.392 . S
C1141 H1153 0.929 . S
C1142 C1138 1.531 . S
C1142 H1154 0.960 . S
C1142 H1155 0.962 . S
C1142 H1156 0.960 . S
C1143 C1140 1.511 . S
C1143 H1157 0.961 . S
C1143 H1158 0.961 . S
C1143 H1159 0.961 . S
C1144 C1145 1.370 . S
C1144 C1146 1.363 . S
C1144 H1160 0.931 . S
C1145 C1144 1.370 . S
C1145 C1149 1.408 . S
C1146 C1144 1.363 . S
C1146 C1147 1.370 . S
C1146 C1150 1.524 . S
C1147 C1139 1.503 . S
C1147 C1146 1.370 . S
C1147 C1148 1.403 . S
C1148 C1147 1.403 . S
C1148 C1149 1.404 . S
C1148 C1151 1.539 . S
C1149 C1145 1.408 . S
C1149 C1148 1.404 . S
C1149 H1161 0.930 . S
C1150 C1146 1.524 . S
C1150 H1162 0.956 . S
C1150 H1163 0.961 . S
C1150 H1164 0.961 . S
C1151 C1148 1.539 . S
C1151 H1165 0.958 . S
C1151 H1166 0.961 . S
C1151 H1167 0.960 . S
H1152 C1136 0.931 . S
H1153 C1141 0.929 . S
H1154 C1142 0.960 . S
H1155 C1142 0.962 . S
H1156 C1142 0.960 . S
H1157 C1143 0.961 . S
H1158 C1143 0.961 . S
H1159 C1143 0.961 . S
H1160 C1144 0.931 . S
H1161 C1149 0.930 . S
H1162 C1150 0.956 . S
H1163 C1150 0.961 . S
H1164 C1150 0.961 . S
H1165 C1151 0.958 . S
H1166 C1151 0.961 . S
H1167 C1151 0.960 . S
C401 C255 1.748 . S
C409 C328 1.836 . S
C441 C358 2.576 . S
C433 C295 2.416 . S
C473 C368 1.948 . S
C465 C175 1.885 . S
C505 C388 1.868 . S
C497 C215 1.692 . S
C537 C329 1.835 . S
C529 C95 1.759 1_565 S
C561 C135 2.454 . S
C569 C359 2.573 . S
C593 C15 1.892 . S
C601 C369 1.943 . S
C625 C55 1.696 . S
C633 C389 1.868 . S
C665 C321 0.892 . S
C657 C221 0.841 . S
C697 C342 0.326 . S
C689 C261 0.469 . S
C729 C361 1.211 . S
C721 C301 1.175 . S
C753 C181 0.721 . S
C761 C381 0.565 . S
C785 C61 0.732 . S
C793 C322 0.892 1_655 S
C825 C341 0.307 . S
C817 C101 0.611 1_565 S
C857 C362 1.197 . S
C849 C141 1.131 . S
C881 C21 0.641 . S
C889 C382 0.577 . S
C913 C202 2.512 . S
C921 C339 2.683 . S
C945 C242 2.013 . S
C953 C349 2.171 . S
C985 C379 2.941 . S
C977 C282 2.731 . S
C1017 C399 2.752 . S
C1009 C162 2.538 . S
C1041 C42 2.474 . S
C1049 C338 2.694 . S
C1081 C348 2.179 . S
C1073 C82 1.961 . S
C1113 C378 2.936 . S
C1105 C122 2.633 . S
C1137 C2 2.629 . S
C1145 C398 2.761 . S
