# Generated by pormake.
# Topology csq, (4,8)-cn, num edge types: 1
# Building blocks:
#     Node 0, Type 0, BuildingBlock: MUDLON_clean_sbu_0, # of connection points: 4
#     Node 1, Type 0, BuildingBlock: MUDLON_clean_sbu_0, # of connection points: 4
#     Node 2, Type 0, BuildingBlock: MUDLON_clean_sbu_0, # of connection points: 4
#     Node 3, Type 0, BuildingBlock: MUDLON_clean_sbu_0, # of connection points: 4
#     Node 4, Type 0, BuildingBlock: MUDLON_clean_sbu_0, # of connection points: 4
#     Node 5, Type 0, BuildingBlock: MUDLON_clean_sbu_0, # of connection points: 4
#     Node 6, Type 1, BuildingBlock: TAGTUT_clean_sbu_1, # of connection points: 8
#     Node 7, Type 1, BuildingBlock: TAGTUT_clean_sbu_1, # of connection points: 8
#     Node 8, Type 1, BuildingBlock: TAGTUT_clean_sbu_1, # of connection points: 8
#     Edge 9, Type (0, 1), BuildingBlock: MIFKUJ_clean_linker_0, # of connection points: 2
#     Edge 10, Type (0, 1), BuildingBlock: MIFKUJ_clean_linker_0, # of connection points: 2
#     Edge 11, Type (0, 1), BuildingBlock: MIFKUJ_clean_linker_0, # of connection points: 2
#     Edge 12, Type (0, 1), BuildingBlock: MIFKUJ_clean_linker_0, # of connection points: 2
#     Edge 13, Type (0, 1), BuildingBlock: MIFKUJ_clean_linker_0, # of connection points: 2
#     Edge 14, Type (0, 1), BuildingBlock: MIFKUJ_clean_linker_0, # of connection points: 2
#     Edge 15, Type (0, 1), BuildingBlock: MIFKUJ_clean_linker_0, # of connection points: 2
#     Edge 16, Type (0, 1), BuildingBlock: MIFKUJ_clean_linker_0, # of connection points: 2
#     Edge 17, Type (0, 1), BuildingBlock: MIFKUJ_clean_linker_0, # of connection points: 2
#     Edge 18, Type (0, 1), BuildingBlock: MIFKUJ_clean_linker_0, # of connection points: 2
#     Edge 19, Type (0, 1), BuildingBlock: MIFKUJ_clean_linker_0, # of connection points: 2
#     Edge 20, Type (0, 1), BuildingBlock: MIFKUJ_clean_linker_0, # of connection points: 2
#     Edge 21, Type (0, 1), BuildingBlock: MIFKUJ_clean_linker_0, # of connection points: 2
#     Edge 22, Type (0, 1), BuildingBlock: MIFKUJ_clean_linker_0, # of connection points: 2
#     Edge 23, Type (0, 1), BuildingBlock: MIFKUJ_clean_linker_0, # of connection points: 2
#     Edge 24, Type (0, 1), BuildingBlock: MIFKUJ_clean_linker_0, # of connection points: 2
#     Edge 25, Type (0, 1), BuildingBlock: MIFKUJ_clean_linker_0, # of connection points: 2
#     Edge 26, Type (0, 1), BuildingBlock: MIFKUJ_clean_linker_0, # of connection points: 2
#     Edge 27, Type (0, 1), BuildingBlock: MIFKUJ_clean_linker_0, # of connection points: 2
#     Edge 28, Type (0, 1), BuildingBlock: MIFKUJ_clean_linker_0, # of connection points: 2
#     Edge 29, Type (0, 1), BuildingBlock: MIFKUJ_clean_linker_0, # of connection points: 2
#     Edge 30, Type (0, 1), BuildingBlock: MIFKUJ_clean_linker_0, # of connection points: 2
#     Edge 31, Type (0, 1), BuildingBlock: MIFKUJ_clean_linker_0, # of connection points: 2
#     Edge 32, Type (0, 1), BuildingBlock: MIFKUJ_clean_linker_0, # of connection points: 2
# Relax obj value: 0.064
# Max RMSD: 0.138
# Mean RMSD: 0.100
data_MOF--net-csq--node1-MUDLON_clean_sbu_0--node2-TAGTUT_clean_sbu_1--edge1-MIFKUJ_clean_linker_0
_symmetry_space_group_name_H-M    P1
_symmetry_Int_Tables_number       1
_symmetry_cell_setting            triclinic
loop_
_symmetry_equiv_pos_as_xyz
'x, y, z'
_cell_length_a     63.477965
_cell_length_b     62.69813
_cell_length_c     26.010961
_cell_angle_alpha  92.237838
_cell_angle_beta   92.091224
_cell_angle_gamma 119.89047
loop_
_atom_site_label
_atom_site_type_symbol
_atom_site_fract_x
_atom_site_fract_y
_atom_site_fract_z
_atom_type_partial_charge
Mg0 Mg 0.25316 0.48685 0.15709 0.0
C1 C 0.22732 0.4836 0.06009 0.0
O2 O 0.22387 0.46148 0.06688 0.0
C3 C 0.27887 0.51445 0.25933 0.0
O4 O 0.25638 0.50481 0.27293 0.0
C5 C 0.2029 0.46432 0.20014 0.0
O6 O 0.19852 0.4721 0.15711 0.0
O7 O 0.22332 0.46521 0.20752 0.0
O8 O 0.2394 0.50056 0.09548 0.0
O9 O 0.27366 0.47326 0.11296 0.0
C10 C 0.26855 0.45368 0.08599 0.0
O11 O 0.24658 0.43437 0.08547 0.0
O12 O 0.28253 0.5132 0.21174 0.0
Mg13 Mg 0.78264 0.24739 0.13507 0.0
C14 C 0.82358 0.25725 0.06648 0.0
O15 O 0.80502 0.24242 0.03437 0.0
C16 C 0.74908 0.22125 0.21251 0.0
O17 O 0.74024 0.23324 0.18769 0.0
C18 C 0.80166 0.30183 0.15537 0.0
O19 O 0.81171 0.30313 0.11148 0.0
O20 O 0.78562 0.28088 0.16888 0.0
O21 O 0.8197 0.26021 0.11316 0.0
O22 O 0.75757 0.23015 0.06758 0.0
C23 C 0.74736 0.23937 0.04072 0.0
O24 O 0.75131 0.26156 0.05393 0.0
O25 O 0.76864 0.22266 0.19779 0.0
Mg26 Mg 0.50575 0.75512 0.07582 0.0
C27 C 0.52795 0.80444 0.1337 0.0
O28 O 0.54452 0.80588 0.10302 0.0
C29 C 0.52249 0.72283 0.02371 0.0
O30 O 0.5389 0.73469 0.06199 0.0
C31 C 0.5247 0.79289 0.98811 0.0
O32 O 0.54415 0.79076 0.99535 0.0
O33 O 0.50618 0.78002 0.01334 0.0
O34 O 0.50838 0.78393 0.13534 0.0
O35 O 0.50416 0.72941 0.13778 0.0
C36 C 0.52208 0.73419 0.16898 0.0
O37 O 0.54187 0.75594 0.16967 0.0
O38 O 0.50546 0.72765 0.01607 0.0
Mg39 Mg 0.76772 0.51305 0.09445 0.0
C40 C 0.74019 0.51139 1.00116 0.0
O41 O 0.73806 0.48948 1.00298 0.0
C42 C 0.79307 0.52692 0.19764 0.0
O43 O 0.77428 0.50481 0.20093 0.0
C44 C 0.72293 0.50104 0.14649 0.0
O45 O 0.72828 0.52118 0.1232 0.0
O46 O 0.73565 0.49077 0.13856 0.0
O47 O 0.75324 0.52785 0.03678 0.0
O48 O 0.78531 0.49675 0.04809 0.0
C49 C 0.79568 0.50909 0.00964 0.0
O50 O 0.79473 0.52916 1.00179 0.0
O51 O 0.79578 0.5371 0.15495 0.0
Mg52 Mg 0.25301 0.76352 0.11035 0.0
C53 C 0.2279 0.70859 0.09268 0.0
O54 O 0.22106 0.71017 0.13904 0.0
C55 C 0.28667 0.80198 0.18694 0.0
O56 O 0.27431 0.8111 0.16439 0.0
C57 C 0.21761 0.75246 0.19158 0.0
O58 O 0.23804 0.76 0.21941 0.0
O59 O 0.21848 0.75455 0.14309 0.0
O60 O 0.24456 0.728 0.07467 0.0
O61 O 0.26524 0.78798 0.04705 0.0
C62 C 0.28331 0.78799 0.02729 0.0
O63 O 0.29133 0.77415 0.04687 0.0
O64 O 0.28211 0.78048 0.17153 0.0
Mg65 Mg 0.44961 0.2322 0.19741 0.0
C66 C 0.40385 0.23717 0.1986 0.0
O67 O 0.38086 0.22991 0.18674 0.0
C68 C 0.47118 0.20427 0.14537 0.0
O69 O 0.48791 0.21591 0.18313 0.0
C70 C 0.48259 0.27618 0.1387 0.0
O71 O 0.48718 0.25996 0.1161 0.0
O72 O 0.46966 0.27023 0.17744 0.0
O73 O 0.41159 0.22226 0.18955 0.0
O74 O 0.45858 0.22274 0.27144 0.0
C75 C 0.4802 0.23118 0.29055 0.0
O76 O 0.49829 0.24931 0.26886 0.0
O77 O 0.45351 0.20833 0.14065 0.0
C78 C 0.99808 0.43745 0.76202 0.0
C79 C 0.06498 0.47953 0.68366 0.0
C80 C 0.04982 0.55426 0.69503 0.0
Mg81 Mg 0.0104 0.44975 0.64784 0.0
O82 O 0.00659 0.47652 0.67076 0.0
Mg83 Mg 0.02737 0.49747 0.73297 0.0
Mg84 Mg 0.01423 0.5033 0.6232 0.0
O85 O 0.02247 0.53003 0.57487 0.0
Mg86 Mg 0.02234 0.55929 0.59324 0.0
Mg87 Mg 0.00288 0.50968 0.51143 0.0
C88 C 0.97996 0.4534 0.54893 0.0
C89 C 0.04559 0.49626 0.53176 0.0
O90 O 0.00938 0.46071 0.77542 0.0
O91 O 0.99587 0.42922 0.71499 0.0
O92 O 0.05886 0.49189 0.71342 0.0
O93 O 0.04951 0.46232 0.65159 0.0
O94 O 0.9873 0.44093 0.57499 0.0
O95 O 0.9864 0.47586 0.56256 0.0
C96 C 0.98199 0.50712 0.71636 0.0
O97 O 0.98488 0.50859 0.66745 0.0
O98 O 0.99584 0.50318 0.74662 0.0
O99 O 0.02378 0.54558 0.46744 0.0
O100 O 0.03847 0.57827 0.52538 0.0
O101 O 0.973 0.51933 0.52538 0.0
C102 C 0.03596 0.56892 0.47931 0.0
O103 O 0.98453 0.5505 0.58475 0.0
O104 O 0.04473 0.56776 0.66676 0.0
C105 C 0.96859 0.53409 0.55197 0.0
O106 O 0.04161 0.53126 0.68326 0.0
O107 O 0.0432 0.49685 0.58068 0.0
O108 O 0.03251 0.50058 0.50015 0.0
C109 C 0.47199 0.02667 0.78971 0.0
C110 C 0.44362 0.9597 0.69387 0.0
C111 C 0.53719 0.98376 0.68115 0.0
Mg112 Mg 0.46512 0.01416 0.67107 0.0
O113 O 0.49683 0.01996 0.68455 0.0
Mg114 Mg 0.50213 0.00038 0.73732 0.0
Mg115 Mg 0.51455 0.01545 0.62762 0.0
O116 O 0.53233 0.01089 0.57133 0.0
Mg117 Mg 0.5635 0.01546 0.5858 0.0
Mg118 Mg 0.52805 0.03116 0.51885 0.0
C119 C 0.4916 0.04666 0.5754 0.0
C120 C 0.47546 0.98235 0.53252 0.0
O121 O 0.48547 0.01677 0.79385 0.0
O122 O 0.46277 0.02813 0.74616 0.0
O123 O 0.4639 0.96658 0.71906 0.0
O124 O 0.44015 0.9747 0.66785 0.0
O125 O 0.47333 0.03693 0.60404 0.0
O126 O 0.50984 0.04314 0.58146 0.0
C127 C 0.55429 0.04921 0.72124 0.0
O128 O 0.54928 0.0462 0.67235 0.0
O129 O 0.53955 0.03431 0.7522 0.0
O130 O 0.54444 0.0142 0.46229 0.0
O131 O 0.56543 0.00125 0.51108 0.0
O132 O 0.56687 0.06455 0.53819 0.0
C133 C 0.55691 0.00322 0.46716 0.0
O134 O 0.58912 0.05452 0.58958 0.0
O135 O 0.55553 0.99271 0.65276 0.0
C136 C 0.58682 0.07026 0.5638 0.0
O137 O 0.51959 0.98816 0.67432 0.0
O138 O 0.47974 0.98466 0.5817 0.0
O139 O 0.49071 0.99774 0.50302 0.0
C140 C 0.53728 0.55001 0.45066 0.0
C141 C 0.56805 0.50729 0.51323 0.0
C142 C 0.47687 0.44069 0.55043 0.0
Mg143 Mg 0.55236 0.54288 0.56152 0.0
O144 O 0.51946 0.51788 0.55443 0.0
Mg145 Mg 0.5091 0.49275 0.49488 0.0
Mg146 Mg 0.50567 0.49542 0.61133 0.0
O147 O 0.49289 0.47315 0.66888 0.0
Mg148 Mg 0.46216 0.44483 0.66655 0.0
Mg149 Mg 0.50333 0.49775 0.72922 0.0
C150 C 0.53437 0.54917 0.67367 0.0
C151 C 0.55268 0.50362 0.68326 0.0
O152 O 0.52292 0.52653 0.44366 0.0
O153 O 0.55004 0.56022 0.49312 0.0
O154 O 0.54618 0.49482 0.49367 0.0
O155 O 0.57472 0.52611 0.54463 0.0
O156 O 0.55017 0.55766 0.63906 0.0
O157 O 0.51535 0.5276 0.66831 0.0
C158 C 0.46169 0.49295 0.53724 0.0
O159 O 0.46868 0.49299 0.58437 0.0
O160 O 0.47368 0.49201 0.49967 0.0
O161 O 0.49352 0.46501 0.78148 0.0
O162 O 0.46959 0.42966 0.73347 0.0
O163 O 0.46401 0.49113 0.73567 0.0
C164 C 0.48191 0.44132 0.77555 0.0
O165 O 0.43695 0.45674 0.68959 0.0
O166 O 0.4625 0.43114 0.58712 0.0
C167 C 0.44198 0.47538 0.72016 0.0
O168 O 0.49518 0.46274 0.55491 0.0
O169 O 0.54333 0.49974 0.63687 0.0
O170 O 0.54099 0.50363 0.72216 0.0
H171 H 0.15497 0.45089 0.19201 0.0
H172 H 0.13054 0.45325 0.25985 0.0
H173 H 0.18956 0.47238 0.37307 0.0
H174 H 0.21384 0.46896 0.30523 0.0
H175 H 0.1451 0.44574 0.41564 0.0
H176 H 0.18391 0.51773 0.31965 0.0
H177 H 0.19573 0.54063 0.24094 0.0
H178 H 0.12052 0.51371 0.19567 0.0
H179 H 0.10822 0.49037 0.27379 0.0
H180 H 0.08819 0.50024 0.57612 0.0
H181 H 0.11808 0.49316 0.53146 0.0
H182 H 0.07168 0.47039 0.39138 0.0
H183 H 0.04244 0.4775 0.43473 0.0
H184 H 0.11686 0.50426 0.37329 0.0
H185 H 0.07827 0.42908 0.46516 0.0
H186 H 0.0663 0.40741 0.54536 0.0
H187 H 0.1413 0.44203 0.60068 0.0
H188 H 0.15377 0.46432 0.52108 0.0
C189 C 0.16257 0.45496 0.2315 0.0
C190 C 0.18654 0.46013 0.24293 0.0
C191 C 0.14861 0.45645 0.27035 0.0
C192 C 0.15843 0.46377 0.32152 0.0
C193 C 0.18161 0.46695 0.33389 0.0
C194 C 0.19551 0.46501 0.29496 0.0
C195 C 0.14538 0.4705 0.36002 0.0
C196 C 0.13922 0.45879 0.40671 0.0
C197 C 0.13779 0.48771 0.34897 0.0
C198 C 0.14515 0.50219 0.30247 0.0
C199 C 0.16989 0.51662 0.29282 0.0
C200 C 0.17667 0.52968 0.24831 0.0
C201 C 0.15889 0.52859 0.21329 0.0
C202 C 0.13427 0.51453 0.22283 0.0
C203 C 0.12739 0.50141 0.26727 0.0
C204 C 0.08435 0.49347 0.536 0.0
C205 C 0.06307 0.48983 0.50891 0.0
C206 C 0.10142 0.48944 0.51046 0.0
C207 C 0.09729 0.48146 0.45769 0.0
C208 C 0.07557 0.47689 0.43171 0.0
C209 C 0.05878 0.48099 0.45679 0.0
C210 C 0.1155 0.47864 0.42765 0.0
C211 C 0.12291 0.49137 0.38256 0.0
C212 C 0.12422 0.46253 0.44047 0.0
C213 C 0.11692 0.44851 0.48738 0.0
C214 C 0.09222 0.43216 0.49452 0.0
C215 C 0.08536 0.4198 0.53988 0.0
C216 C 0.10306 0.42346 0.57818 0.0
C217 C 0.12767 0.43935 0.57103 0.0
C218 C 0.13464 0.45182 0.52578 0.0
H219 H 0.09772 0.41395 0.61336 0.0
H220 H 0.16417 0.53868 0.1788 0.0
H221 H 0.70907 0.21843 0.25348 0.0
H222 H 0.68846 0.19702 0.3279 0.0
H223 H 0.73974 0.17151 0.34944 0.0
H224 H 0.76072 0.19308 0.27392 0.0
H225 H 0.6922 0.13464 0.35804 0.0
H226 H 0.74382 0.21606 0.43137 0.0
H227 H 0.76346 0.26139 0.43739 0.0
H228 H 0.69376 0.25621 0.4486 0.0
H229 H 0.67363 0.21082 0.44183 0.0
H230 H 0.6345 0.08265 0.58224 0.0
H231 H 0.66905 0.11356 0.5387 0.0
H232 H 0.62428 0.14137 0.47637 0.0
H233 H 0.58947 0.11033 0.51916 0.0
H234 H 0.67519 0.17855 0.49907 0.0
H235 H 0.62407 0.09819 0.40887 0.0
H236 H 0.60362 0.05277 0.40274 0.0
H237 H 0.67282 0.05648 0.42341 0.0
H238 H 0.69364 0.10198 0.43065 0.0
C239 C 0.71612 0.20833 0.27386 0.0
C240 C 0.73666 0.20756 0.25767 0.0
C241 C 0.70433 0.19619 0.31677 0.0
C242 C 0.71276 0.18299 0.3449 0.0
C243 C 0.73302 0.18175 0.32853 0.0
C244 C 0.74499 0.19408 0.28541 0.0
C245 C 0.69969 0.17008 0.39034 0.0
C246 C 0.68904 0.14434 0.38954 0.0
C247 C 0.69517 0.18265 0.43114 0.0
C248 C 0.70719 0.20999 0.43579 0.0
C249 C 0.73265 0.22457 0.43478 0.0
C250 C 0.74388 0.25029 0.43837 0.0
C251 C 0.72987 0.26168 0.4433 0.0
C252 C 0.70459 0.24736 0.44478 0.0
C253 C 0.69327 0.22163 0.44115 0.0
C254 C 0.63214 0.09588 0.56087 0.0
C255 C 0.60901 0.09362 0.55327 0.0
C256 C 0.65196 0.11351 0.53583 0.0
C257 C 0.64907 0.12939 0.50346 0.0
C258 C 0.62685 0.12918 0.50093 0.0
C259 C 0.60694 0.11137 0.52543 0.0
C260 C 0.66754 0.14324 0.46611 0.0
C261 C 0.67897 0.16903 0.46825 0.0
C262 C 0.6728 0.13076 0.4265 0.0
C263 C 0.66038 0.10345 0.42092 0.0
C264 C 0.63491 0.08931 0.41248 0.0
C265 C 0.62325 0.06356 0.40878 0.0
C266 C 0.63691 0.05174 0.41283 0.0
C267 C 0.66226 0.06566 0.42039 0.0
C268 C 0.674 0.09143 0.42431 0.0
H269 H 0.62784 0.03181 0.40999 0.0
H270 H 0.7386 0.28159 0.44603 0.0
H271 H 0.55863 0.73685 0.23298 0.0
H272 H 0.56005 0.703 0.27324 0.0
H273 H 0.48739 0.65217 0.20881 0.0
H274 H 0.48569 0.68599 0.16889 0.0
H275 H 0.49256 0.64245 0.30548 0.0
H276 H 0.53598 0.65367 0.15493 0.0
H277 H 0.56615 0.67575 0.09138 0.0
H278 H 0.62428 0.69771 0.20744 0.0
H279 H 0.59448 0.67589 0.27185 0.0
H280 H 0.50282 0.53869 0.37171 0.0
H281 H 0.49934 0.56742 0.31569 0.0
H282 H 0.56729 0.62686 0.3845 0.0
H283 H 0.57094 0.59835 0.44059 0.0
H284 H 0.56196 0.62875 0.27731 0.0
H285 H 0.51539 0.61809 0.42851 0.0
H286 H 0.48369 0.59339 0.48726 0.0
H287 H 0.42912 0.56729 0.36182 0.0
H288 H 0.46058 0.59161 0.30212 0.0
C289 C 0.54285 0.71853 0.22771 0.0
C290 C 0.52208 0.71416 0.19756 0.0
C291 C 0.54376 0.69913 0.25043 0.0
C292 C 0.52399 0.67493 0.24328 0.0
C293 C 0.50291 0.67065 0.21466 0.0
C294 C 0.50198 0.69004 0.19191 0.0
C295 C 0.52541 0.65419 0.26572 0.0
C296 C 0.50753 0.63922 0.2986 0.0
C297 C 0.54493 0.64992 0.25684 0.0
C298 C 0.56296 0.66332 0.21838 0.0
C299 C 0.55519 0.66338 0.16704 0.0
C300 C 0.57222 0.67581 0.13082 0.0
C301 C 0.59709 0.6882 0.1454 0.0
C302 C 0.605 0.68813 0.19621 0.0
C303 C 0.58805 0.67569 0.23258 0.0
C304 C 0.5173 0.55776 0.37416 0.0
C305 C 0.5371 0.56625 0.41088 0.0
C306 C 0.51519 0.57418 0.34233 0.0
C307 C 0.5329 0.59933 0.34645 0.0
C308 C 0.55339 0.60755 0.38081 0.0
C309 C 0.55541 0.59122 0.41294 0.0
C310 C 0.52943 0.61747 0.31775 0.0
C311 C 0.54691 0.63191 0.28369 0.0
C312 C 0.5093 0.62095 0.3248 0.0
C313 C 0.49037 0.60649 0.36076 0.0
C314 C 0.49666 0.60695 0.41338 0.0
C315 C 0.47873 0.59305 0.44685 0.0
C316 C 0.45441 0.57878 0.42827 0.0
C317 C 0.44797 0.57837 0.37614 0.0
C318 C 0.46584 0.59221 0.34248 0.0
H319 H 0.44055 0.5681 0.45428 0.0
H320 H 0.61024 0.69779 0.11727 0.0
H321 H 0.84213 0.56083 0.19707 0.0
H322 H 0.87318 0.57013 0.26705 0.0
H323 H 0.81678 0.52499 0.36612 0.0
H324 H 0.78599 0.5162 0.2974 0.0
H325 H 0.85322 0.56191 0.42273 0.0
H326 H 0.84403 0.50059 0.28923 0.0
H327 H 0.8445 0.48647 0.1996 0.0
H328 H 0.91934 0.54303 0.19493 0.0
H329 H 0.9192 0.55764 0.28442 0.0
H330 H 0.92656 0.49705 0.50431 0.0
H331 H 0.8962 0.50168 0.45349 0.0
H332 H 0.93088 0.5783 0.50737 0.0
H333 H 0.96133 0.57374 0.5589 0.0
H334 H 0.90826 0.53061 0.3744 0.0
H335 H 0.88713 0.59682 0.49254 0.0
H336 H 0.8837 0.60715 0.58322 0.0
H337 H 0.8651 0.53411 0.62194 0.0
H338 H 0.86808 0.52324 0.53142 0.0
C339 C 0.83639 0.55357 0.23431 0.0
C340 C 0.81166 0.53748 0.24149 0.0
C341 C 0.85413 0.55876 0.2742 0.0
C342 C 0.84735 0.54784 0.32162 0.0
C343 C 0.82254 0.53357 0.33001 0.0
C344 C 0.80493 0.52843 0.29042 0.0
C345 C 0.8656 0.54833 0.36012 0.0
C346 C 0.86551 0.55539 0.4121 0.0
C347 C 0.88132 0.53936 0.34663 0.0
C348 C 0.88153 0.53036 0.29321 0.0
C349 C 0.86054 0.51007 0.26897 0.0
C350 C 0.86075 0.50198 0.21823 0.0
C351 C 0.88191 0.5139 0.19154 0.0
C352 C 0.90294 0.53386 0.21562 0.0
C353 C 0.90282 0.54204 0.26634 0.0
C354 C 0.9273 0.51471 0.50674 0.0
C355 C 0.94649 0.53507 0.53542 0.0
C356 C 0.91003 0.51738 0.47727 0.0
C357 C 0.91147 0.54043 0.47586 0.0
C358 C 0.92936 0.56032 0.50785 0.0
C359 C 0.94668 0.55763 0.53764 0.0
C360 C 0.89572 0.54391 0.43722 0.0
C361 C 0.89634 0.5376 0.38509 0.0
C362 C 0.88022 0.55311 0.45086 0.0
C363 C 0.87814 0.55934 0.50531 0.0
C364 C 0.88225 0.58295 0.52039 0.0
C365 C 0.88038 0.5889 0.57177 0.0
C366 C 0.87428 0.57133 0.60836 0.0
C367 C 0.86993 0.54774 0.59361 0.0
C368 C 0.87175 0.54169 0.54229 0.0
H369 H 0.87286 0.57598 0.64811 0.0
H370 H 0.88203 0.50763 0.15223 0.0
H371 H 0.29749 0.84681 0.22984 0.0
H372 H 0.32717 0.87129 0.30032 0.0
H373 H 0.34617 0.81452 0.31468 0.0
H374 H 0.31639 0.78978 0.24317 0.0
H375 H 0.33255 0.86561 0.39885 0.0
H376 H 0.40954 0.84509 0.34918 0.0
H377 H 0.42586 0.8342 0.2742 0.0
H378 H 0.39319 0.86383 0.17346 0.0
H379 H 0.37705 0.87525 0.24788 0.0
H380 H 0.43977 0.94124 0.57658 0.0
H381 H 0.40537 0.90452 0.53079 0.0
H382 H 0.42715 0.93835 0.38639 0.0
H383 H 0.46096 0.97451 0.43078 0.0
H384 H 0.4194 0.8912 0.3823 0.0
H385 H 0.38043 0.93718 0.43787 0.0
H386 H 0.36869 0.95768 0.50445 0.0
H387 H 0.32913 0.88948 0.57676 0.0
H388 H 0.34095 0.86854 0.5109 0.0
C389 C 0.30789 0.8394 0.24791 0.0
C390 C 0.30464 0.81636 0.23055 0.0
C391 C 0.32476 0.85339 0.28861 0.0
C392 C 0.33893 0.8448 0.31292 0.0
C393 C 0.33553 0.82161 0.29632 0.0
C394 C 0.31853 0.8075 0.25544 0.0
C395 C 0.35801 0.86094 0.35364 0.0
C396 C 0.35151 0.87097 0.39543 0.0
C397 C 0.38284 0.86819 0.34927 0.0
C398 C 0.39159 0.86047 0.30401 0.0
C399 C 0.40571 0.84912 0.31098 0.0
C400 C 0.41501 0.84295 0.2686 0.0
C401 C 0.41042 0.84816 0.21906 0.0
C402 C 0.39658 0.85963 0.21181 0.0
C403 C 0.3873 0.8659 0.25407 0.0
C404 C 0.43705 0.94087 0.53514 0.0
C405 C 0.45327 0.96081 0.50743 0.0
C406 C 0.41748 0.91987 0.50907 0.0
C407 C 0.41399 0.9186 0.4551 0.0
C408 C 0.42977 0.93874 0.42789 0.0
C409 C 0.44907 0.95954 0.4536 0.0
C410 C 0.39406 0.89665 0.42552 0.0
C411 C 0.40035 0.88531 0.38623 0.0
C412 C 0.3693 0.88913 0.43074 0.0
C413 C 0.36178 0.90139 0.46985 0.0
C414 C 0.36935 0.92658 0.46818 0.0
C415 C 0.36268 0.93825 0.50575 0.0
C416 C 0.34825 0.92486 0.54493 0.0
C417 C 0.34038 0.89975 0.54647 0.0
C418 C 0.34704 0.88798 0.50902 0.0
H419 H 0.34311 0.93393 0.57402 0.0
H420 H 0.41768 0.84342 0.18632 0.0
H421 H 0.40416 0.27961 0.17845 0.0
H422 H 0.42614 0.31932 0.22881 0.0
H423 H 0.46082 0.29015 0.32642 0.0
H424 H 0.4387 0.25046 0.27651 0.0
H425 H 0.43546 0.30589 0.37971 0.0
H426 H 0.4988 0.34027 0.26751 0.0
H427 H 0.52249 0.35471 0.19066 0.0
H428 H 0.48771 0.39656 0.15509 0.0
H429 H 0.46397 0.38257 0.2321 0.0
H430 H 0.51082 0.44241 0.48655 0.0
H431 H 0.50472 0.41132 0.41862 0.0
H432 H 0.42749 0.37295 0.43894 0.0
H433 H 0.43366 0.4033 0.50824 0.0
H434 H 0.48144 0.39217 0.32923 0.0
H435 H 0.40477 0.31257 0.43445 0.0
H436 H 0.39228 0.30295 0.52321 0.0
H437 H 0.46579 0.35207 0.58286 0.0
H438 H 0.47877 0.36171 0.49446 0.0
C439 C 0.41693 0.28191 0.20993 0.0
C440 C 0.41991 0.26205 0.22344 0.0
C441 C 0.42966 0.30466 0.23832 0.0
C442 C 0.44526 0.30776 0.28116 0.0
C443 C 0.44909 0.28825 0.29315 0.0
C444 C 0.43654 0.26561 0.26451 0.0
C445 C 0.45366 0.32931 0.31858 0.0
C446 C 0.44563 0.32475 0.36863 0.0
C447 C 0.4674 0.35393 0.30466 0.0
C448 C 0.47946 0.3602 0.25534 0.0
C449 C 0.49595 0.35228 0.24293 0.0
C450 C 0.50964 0.36066 0.19975 0.0
C451 C 0.50679 0.37674 0.16833 0.0
C452 C 0.49003 0.38425 0.17968 0.0
C453 C 0.47651 0.37616 0.22317 0.0
C454 C 0.4925 0.42757 0.47581 0.0
C455 C 0.47274 0.425 0.50312 0.0
C456 C 0.48904 0.40981 0.43702 0.0
C457 C 0.46574 0.38943 0.42467 0.0
C458 C 0.44574 0.38811 0.44889 0.0
C459 C 0.44925 0.40551 0.48829 0.0
C460 C 0.46241 0.36861 0.38945 0.0
C461 C 0.47129 0.37328 0.34007 0.0
C462 C 0.45026 0.34405 0.40454 0.0
C463 C 0.44268 0.33801 0.45784 0.0
C464 C 0.41828 0.32122 0.4665 0.0
C465 C 0.41112 0.31578 0.51675 0.0
C466 C 0.42822 0.32694 0.55865 0.0
C467 C 0.45254 0.34349 0.55038 0.0
C468 C 0.45981 0.34896 0.50022 0.0
H469 H 0.42262 0.32273 0.59752 0.0
H470 H 0.51736 0.38315 0.13483 0.0
H471 H 0.4869 0.80016 0.96 0.0
H472 H 0.48841 0.83332 0.91095 0.0
H473 H 0.56511 0.8623 0.89416 0.0
H474 H 0.5638 0.8292 0.94325 0.0
H475 H 0.55465 0.89845 0.92455 0.0
H476 H 0.52565 0.83203 0.79402 0.0
H477 H 0.49858 0.78997 0.75514 0.0
H478 H 0.4374 0.80145 0.76051 0.0
H479 H 0.46407 0.8435 0.80013 0.0
H480 H 0.57397 0.97723 0.72046 0.0
H481 H 0.5707 0.94591 0.77773 0.0
H482 H 0.49417 0.92023 0.78809 0.0
H483 H 0.49725 0.95149 0.73058 0.0
H484 H 0.50303 0.88262 0.76391 0.0
H485 H 0.53232 0.94984 0.89037 0.0
H486 H 0.55942 0.99204 0.92844 0.0
H487 H 0.61993 0.97931 0.9307 0.0
H488 H 0.59325 0.93712 0.89186 0.0
C489 C 0.50407 0.81347 0.94556 0.0
C490 C 0.52522 0.81197 0.95543 0.0
C491 C 0.50488 0.8324 0.91748 0.0
C492 C 0.52686 0.85023 0.89876 0.0
C493 C 0.54798 0.84875 0.90833 0.0
C494 C 0.54715 0.82972 0.93612 0.0
C495 C 0.52787 0.87062 0.86976 0.0
C496 C 0.54359 0.89502 0.88908 0.0
C497 C 0.5129 0.86609 0.82433 0.0
C498 C 0.49682 0.84081 0.80059 0.0
C499 C 0.50639 0.82551 0.78736 0.0
C500 C 0.49112 0.80169 0.7651 0.0
C501 C 0.46627 0.79302 0.75551 0.0
C502 C 0.45665 0.80818 0.76805 0.0
C503 C 0.47183 0.83201 0.79038 0.0
C504 C 0.5565 0.96516 0.73545 0.0
C505 C 0.53587 0.96689 0.7209 0.0
C506 C 0.55468 0.9473 0.76834 0.0
C507 C 0.53221 0.93077 0.78729 0.0
C508 C 0.51169 0.93282 0.77392 0.0
C509 C 0.51353 0.95083 0.74133 0.0
C510 C 0.52994 0.91049 0.81848 0.0
C511 C 0.51399 0.88608 0.79955 0.0
C512 C 0.54469 0.91503 0.86427 0.0
C513 C 0.56081 0.94038 0.88773 0.0
C514 C 0.55144 0.9561 0.89855 0.0
C515 C 0.56672 0.98001 0.92035 0.0
C516 C 0.59139 0.98837 0.93186 0.0
C517 C 0.60082 0.97281 0.9217 0.0
C518 C 0.58562 0.94889 0.89983 0.0
H519 H 0.60319 0.00689 0.94876 0.0
H520 H 0.45449 0.77457 0.73824 0.0
H521 H 0.72289 0.48569 0.90843 0.0
H522 H 0.69604 0.48879 0.84339 0.0
H523 H 0.69879 0.54919 0.93451 0.0
H524 H 0.72595 0.54624 1.00013 0.0
H525 H 0.65164 0.5116 0.90521 0.0
H526 H 0.72633 0.5601 0.82426 0.0
H527 H 0.7653 0.56907 0.78937 0.0
H528 H 0.72759 0.50675 0.67977 0.0
H529 H 0.68839 0.49717 0.71453 0.0
H530 H 0.58664 0.54316 0.74042 0.0
H531 H 0.62421 0.54837 0.78143 0.0
H532 H 0.6133 0.48309 0.69526 0.0
H533 H 0.57538 0.47792 0.65337 0.0
H534 H 0.66503 0.52269 0.71891 0.0
H535 H 0.59034 0.47437 0.79841 0.0
H536 H 0.55117 0.46542 0.83194 0.0
H537 H 0.58854 0.52575 0.94616 0.0
H538 H 0.62792 0.53574 0.91192 0.0
C539 C 0.71807 0.49988 0.9144 0.0
C540 C 0.72646 0.51568 0.95951 0.0
C541 C 0.7028 0.50169 0.877 0.0
C542 C 0.69546 0.51926 0.88396 0.0
C543 C 0.7043 0.53553 0.92835 0.0
C544 C 0.71988 0.53392 0.96565 0.0
C545 C 0.67717 0.5193 0.8467 0.0
C546 C 0.65474 0.51446 0.86467 0.0
C547 C 0.68088 0.52204 0.79339 0.0
C548 C 0.70443 0.52777 0.77236 0.0
C549 C 0.72635 0.54817 0.79303 0.0
C550 C 0.74849 0.55339 0.77321 0.0
C551 C 0.74893 0.53845 0.73247 0.0
C552 C 0.72722 0.51829 0.71138 0.0
C553 C 0.70504 0.51296 0.73109 0.0
C554 C 0.59272 0.53042 0.72881 0.0
C555 C 0.57813 0.51002 0.69426 0.0
C556 C 0.61416 0.53342 0.75226 0.0
C557 C 0.62124 0.51586 0.74213 0.0
C558 C 0.60806 0.4968 0.7036 0.0
C559 C 0.58648 0.49387 0.67968 0.0
C560 C 0.63978 0.51544 0.77776 0.0
C561 C 0.66205 0.51996 0.75951 0.0
C562 C 0.63589 0.5122 0.83091 0.0
C563 C 0.61215 0.50606 0.85198 0.0
C564 C 0.59023 0.48606 0.83002 0.0
C565 C 0.56795 0.48078 0.84917 0.0
C566 C 0.56736 0.49506 0.89105 0.0
C567 C 0.58903 0.51472 0.91367 0.0
C568 C 0.61134 0.52025 0.89428 0.0
H569 H 0.55012 0.49082 0.90611 0.0
H570 H 0.76608 0.54253 0.71717 0.0
H571 H 0.1824 0.67144 0.10838 0.0
H572 H 0.15265 0.64059 0.04442 0.0
H573 H 0.20626 0.66717 0.93065 0.0
H574 H 0.2363 0.69802 0.99482 0.0
H575 H 0.16282 0.66711 0.90326 0.0
H576 H 0.18581 0.60887 0.97038 0.0
H577 H 0.19318 0.58941 0.04432 0.0
H578 H 0.11992 0.56277 0.08711 0.0
H579 H 0.11211 0.58199 0.01327 0.0
H580 H 0.09624 0.59003 0.69054 0.0
H581 H 0.12688 0.61145 0.76165 0.0
H582 H 0.07435 0.56816 0.86982 0.0
H583 H 0.04408 0.54527 0.7974 0.0
H584 H 0.11572 0.57592 0.90539 0.0
H585 H 0.0895 0.62959 0.84581 0.0
H586 H 0.07893 0.65214 0.78397 0.0
H587 H 0.15298 0.69115 0.74137 0.0
H588 H 0.16394 0.66859 0.80246 0.0
C589 C 0.18819 0.67007 0.07041 0.0
C590 C 0.21181 0.687 0.05694 0.0
C591 C 0.17109 0.6525 0.03376 0.0
C592 C 0.17729 0.65149 0.98291 0.0
C593 C 0.20116 0.66761 0.96982 0.0
C594 C 0.21832 0.68516 0.00655 0.0
C595 C 0.15821 0.63559 0.94226 0.0
C596 C 0.15284 0.64714 0.903 0.0
C597 C 0.14418 0.6097 0.94405 0.0
C598 C 0.1484 0.59687 0.98641 0.0
C599 C 0.17127 0.59877 0.99548 0.0
C600 C 0.17553 0.58782 0.03739 0.0
C601 C 0.15707 0.57496 0.07054 0.0
C602 C 0.13421 0.57276 0.06145 0.0
C603 C 0.12981 0.58355 0.01939 0.0
C604 C 0.09133 0.58506 0.72955 0.0
C605 C 0.06783 0.56641 0.73891 0.0
C606 C 0.10877 0.59737 0.77025 0.0
C607 C 0.10279 0.59209 0.8215 0.0
C608 C 0.07941 0.57278 0.83077 0.0
C609 C 0.0621 0.55983 0.78959 0.0
C610 C 0.12083 0.6074 0.86477 0.0
C611 C 0.12581 0.59585 0.905 0.0
C612 C 0.13395 0.63352 0.86518 0.0
C613 C 0.12749 0.64722 0.82841 0.0
C614 C 0.1035 0.64286 0.823 0.0
C615 C 0.09744 0.65565 0.78811 0.0
C616 C 0.11526 0.67302 0.75867 0.0
C617 C 0.13919 0.67767 0.76416 0.0
C618 C 0.14534 0.6649 0.79895 0.0
H619 H 0.11053 0.68291 0.73167 0.0
H620 H 0.16042 0.56658 0.10308 0.0
H621 H 0.5035 0.18767 0.15246 0.0
H622 H 0.50297 0.15417 0.10034 0.0
H623 H 0.44055 0.14478 0.00861 0.0
H624 H 0.44037 0.17767 0.06185 0.0
H625 H 0.43403 0.10152 0.03227 0.0
H626 H 0.50023 0.17437 0.9652 0.0
H627 H 0.53915 0.21377 0.97185 0.0
H628 H 0.57556 0.17784 0.03646 0.0
H629 H 0.53685 0.13827 0.03035 0.0
H630 H 0.43914 0.0423 0.80053 0.0
H631 H 0.43816 0.06834 0.87135 0.0
H632 H 0.49674 0.06547 0.95411 0.0
H633 H 0.49798 0.03943 0.88309 0.0
H634 H 0.50646 0.11236 0.94436 0.0
H635 H 0.44156 0.0386 1.00095 0.0
H636 H 0.40298 0.99895 0.99357 0.0
H637 H 0.36416 0.03589 0.94958 0.0
H638 H 0.40257 0.07574 0.95593 0.0
C639 C 0.4897 0.17855 0.12107 0.0
C640 C 0.47194 0.18528 0.11134 0.0
C641 C 0.48949 0.15945 0.09121 0.0
C642 C 0.47185 0.1471 0.05032 0.0
C643 C 0.45428 0.15401 0.0401 0.0
C644 C 0.45429 0.1729 0.07036 0.0
C645 C 0.47149 0.12678 0.01846 0.0
C646 C 0.44978 0.10395 0.01257 0.0
C647 C 0.49233 0.12966 0.99445 0.0
C648 C 0.51562 0.15343 0.99775 0.0
C649 C 0.51653 0.17492 0.98105 0.0
C650 C 0.53856 0.19726 0.98462 0.0
C651 C 0.55982 0.19832 0.00458 0.0
C652 C 0.55911 0.17701 0.0209 0.0
C653 C 0.53714 0.15461 0.01732 0.0
C654 C 0.45154 0.04682 0.83415 0.0
C655 C 0.46877 0.03895 0.83598 0.0
C656 C 0.45086 0.0616 0.87475 0.0
C657 C 0.46734 0.06877 0.91798 0.0
C658 C 0.48385 0.06008 0.92103 0.0
C659 C 0.48446 0.04513 0.88051 0.0
C660 C 0.46883 0.08731 0.95713 0.0
C661 C 0.49077 0.10981 0.96447 0.0
C662 C 0.44821 0.0841 0.98242 0.0
C663 C 0.42501 0.06016 0.97856 0.0
C664 C 0.42484 0.03826 0.98928 0.0
C665 C 0.40298 0.01574 0.98536 0.0
C666 C 0.38114 0.01489 0.97102 0.0
C667 C 0.3811 0.03657 0.96066 0.0
C668 C 0.40291 0.05914 0.96448 0.0
H669 H 0.36424 0.99744 0.96802 0.0
H670 H 0.57686 0.21564 0.00736 0.0
H671 H 0.2618 0.41901 0.00907 0.0
H672 H 0.28967 0.42283 0.94275 0.0
H673 H 0.34334 0.49415 0.01213 0.0
H674 H 0.31553 0.49064 0.07793 0.0
H675 H 0.33975 0.49663 0.91148 0.0
H676 H 0.34919 0.44232 0.02238 0.0
H677 H 0.33587 0.40548 0.07195 0.0
H678 H 0.3051 0.35885 0.93274 0.0
H679 H 0.31796 0.39544 0.88238 0.0
H680 H 0.44534 0.51023 0.79248 0.0
H681 H 0.41403 0.50653 0.84924 0.0
H682 H 0.36173 0.43833 0.76634 0.0
H683 H 0.39297 0.44164 0.70966 0.0
H684 H 0.36297 0.43354 0.86985 0.0
H685 H 0.35774 0.48964 0.75834 0.0
H686 H 0.37292 0.5273 0.71094 0.0
H687 H 0.39744 0.57174 0.85375 0.0
H688 H 0.38298 0.53437 0.90206 0.0
C689 C 0.27965 0.43537 0.01067 0.0
C690 C 0.28635 0.45448 0.04907 0.0
C691 C 0.29562 0.43755 0.97261 0.0
C692 C 0.31874 0.45879 0.97228 0.0
C693 C 0.32561 0.47764 0.01119 0.0
C694 C 0.30968 0.47551 0.0491 0.0
C695 C 0.3356 0.4617 0.93091 0.0
C696 C 0.34505 0.48295 0.90282 0.0
C697 C 0.34214 0.44365 0.91852 0.0
C698 C 0.33429 0.42161 0.9487 0.0
C699 C 0.33939 0.4242 1.00239 0.0
C700 C 0.33196 0.40337 0.03062 0.0
C701 C 0.31958 0.37984 0.00554 0.0
C702 C 0.31465 0.37709 0.95214 0.0
C703 C 0.32202 0.39787 0.92372 0.0
C704 C 0.42704 0.49473 0.78531 0.0
C705 C 0.42182 0.47619 0.74635 0.0
C706 C 0.40912 0.49265 0.81794 0.0
C707 C 0.38547 0.47215 0.81221 0.0
C708 C 0.37985 0.45427 0.77173 0.0
C709 C 0.39775 0.45633 0.739 0.0
C710 C 0.36722 0.46852 0.85064 0.0
C711 C 0.35755 0.44714 0.87826 0.0
C712 C 0.36069 0.48659 0.86287 0.0
C713 C 0.36946 0.50915 0.83386 0.0
C714 C 0.3666 0.50744 0.77968 0.0
C715 C 0.37504 0.52875 0.75263 0.0
C716 C 0.38613 0.5519 0.77931 0.0
C717 C 0.38879 0.55379 0.83313 0.0
C718 C 0.38052 0.53254 0.86037 0.0
H719 H 0.39269 0.56837 0.75829 0.0
H720 H 0.31385 0.36373 0.02746 0.0
H721 H 0.84039 0.25239 0.97416 0.0
H722 H 0.87583 0.28382 0.93349 0.0
H723 H 0.89519 0.33283 0.06982 0.0
H724 H 0.85989 0.30136 0.11106 0.0
H725 H 0.89161 0.35376 0.97918 0.0
H726 H 0.93126 0.31114 0.04133 0.0
H727 H 0.93607 0.27512 0.05566 0.0
H728 H 0.93393 0.26089 0.89218 0.0
H729 H 0.92875 0.29663 0.87681 0.0
H730 H 0.99471 0.44681 0.86474 0.0
H731 H 0.97049 0.41701 0.9265 0.0
H732 H 0.94829 0.35762 0.81006 0.0
H733 H 0.97271 0.38708 0.74852 0.0
H734 H 0.95669 0.34413 0.90062 0.0
H735 H 0.91185 0.38203 0.83713 0.0
H736 H 0.90545 0.4168 0.8191 0.0
H737 H 0.9153 0.43834 0.98084 0.0
H738 H 0.92209 0.40387 0.99977 0.0
C739 C 0.85249 0.26963 0.99597 0.0
C740 C 0.8473 0.27434 0.04583 0.0
C741 C 0.87276 0.28759 0.97267 0.0
C742 C 0.88815 0.31069 0.9986 0.0
C743 C 0.88356 0.31513 0.04914 0.0
C744 C 0.86346 0.29704 0.07277 0.0
C745 C 0.90773 0.33072 0.97121 0.0
C746 C 0.90618 0.35192 0.96296 0.0
C747 C 0.92631 0.328 0.94886 0.0
C748 C 0.92942 0.30647 0.95793 0.0
C749 C 0.9316 0.30021 0.00841 0.0
C750 C 0.93444 0.27986 0.01673 0.0
C751 C 0.93525 0.26569 0.97486 0.0
C752 C 0.93328 0.27188 0.92458 0.0
C753 C 0.93042 0.2922 0.91605 0.0
C754 C 0.98494 0.42739 0.8524 0.0
C755 C 0.98555 0.41943 0.80139 0.0
C756 C 0.97099 0.41037 0.88775 0.0
C757 C 0.95725 0.38508 0.87272 0.0
C758 C 0.95869 0.37702 0.82257 0.0
C759 C 0.97263 0.39397 0.78731 0.0
C760 C 0.94042 0.36704 0.90808 0.0
C761 C 0.94239 0.34618 0.9176 0.0
C762 C 0.922 0.3699 0.93106 0.0
C763 C 0.91778 0.39055 0.91981 0.0
C764 C 0.91284 0.3943 0.86881 0.0
C765 C 0.90911 0.41393 0.85843 0.0
C766 C 0.91006 0.42982 0.89878 0.0
C767 C 0.91464 0.42605 0.94961 0.0
C768 C 0.91841 0.40646 0.9602 0.0
H769 H 0.90718 0.44502 0.89067 0.0
H770 H 0.93746 0.24995 0.98138 0.0
H771 H 0.82595 0.49092 0.03432 0.0
H772 H 0.85515 0.48833 0.97829 0.0
H773 H 0.82658 0.51024 0.85075 0.0
H774 H 0.79798 0.5135 0.90667 0.0
H775 H 0.83931 0.47072 0.82622 0.0
H776 H 0.87199 0.5536 0.90677 0.0
H777 H 0.8822 0.58291 0.98219 0.0
H778 H 0.92805 0.55789 0.05007 0.0
H779 H 0.91784 0.52819 0.97525 0.0
H780 H 0.94216 0.50796 0.66974 0.0
H781 H 0.9079 0.50709 0.71326 0.0
H782 H 0.9418 0.50788 0.86068 0.0
H783 H 0.9758 0.50962 0.81863 0.0
H784 H 0.92464 0.53659 0.87086 0.0
H785 H 0.89321 0.45388 0.79817 0.0
H786 H 0.88279 0.42172 0.72853 0.0
H787 H 0.83519 0.44249 0.65224 0.0
H788 H 0.84555 0.47496 0.72128 0.0
C789 C 0.8255 0.49452 0.99401 0.0
C790 C 0.80975 0.50243 0.97481 0.0
C791 C 0.84222 0.49313 0.9621 0.0
C792 C 0.84306 0.49916 0.91035 0.0
C793 C 0.82619 0.50542 0.89039 0.0
C794 C 0.80992 0.50733 0.92245 0.0
C795 C 0.86313 0.50167 0.87868 0.0
C796 C 0.85796 0.48524 0.83556 0.0
C797 C 0.88747 0.52039 0.89124 0.0
C798 C 0.89398 0.53855 0.9357 0.0
C799 C 0.88412 0.55425 0.93795 0.0
C800 C 0.88993 0.57094 0.98054 0.0
C801 C 0.90572 0.57222 0.02096 0.0
C802 C 0.91581 0.55686 0.01876 0.0
C803 C 0.91004 0.54012 0.97625 0.0
C804 C 0.94238 0.50826 0.71142 0.0
C805 C 0.96179 0.50873 0.7404 0.0
C806 C 0.92269 0.50755 0.7363 0.0
C807 C 0.92204 0.50713 0.79047 0.0
C808 C 0.94172 0.50824 0.81906 0.0
C809 C 0.96125 0.50912 0.79458 0.0
C810 C 0.9011 0.50532 0.81847 0.0
C811 C 0.90605 0.52204 0.86104 0.0
C812 C 0.87667 0.48651 0.80595 0.0
C813 C 0.87035 0.46701 0.76452 0.0
C814 C 0.88065 0.45169 0.76635 0.0
C815 C 0.87473 0.43339 0.72704 0.0
C816 C 0.85839 0.43012 0.68589 0.0
C817 C 0.84788 0.44508 0.68408 0.0
C818 C 0.85375 0.46342 0.72331 0.0
H819 H 0.85384 0.41594 0.65548 0.0
H820 H 0.91018 0.58514 0.05393 0.0
H821 H 0.32342 0.79253 0.98352 0.0
H822 H 0.3457 0.81882 0.91576 0.0
H823 H 0.29444 0.8448 0.9045 0.0
H824 H 0.27173 0.81828 0.97325 0.0
H825 H 0.30998 0.83355 0.8048 0.0
H826 H 0.34357 0.88116 0.96651 0.0
H827 H 0.35989 0.88815 0.05688 0.0
H828 H 0.41819 0.87713 0.01049 0.0
H829 H 0.40199 0.86969 0.91988 0.0
H830 H 0.39483 0.94454 0.68328 0.0
H831 H 0.36262 0.91095 0.72729 0.0
H832 H 0.41283 0.88687 0.77451 0.0
H833 H 0.44505 0.9204 0.7312 0.0
H834 H 0.39506 0.89827 0.8557 0.0
H835 H 0.36287 0.85073 0.6956 0.0
H836 H 0.34607 0.8404 0.60538 0.0
H837 H 0.28576 0.84906 0.64658 0.0
H838 H 0.30244 0.85996 0.73695 0.0
C839 C 0.31666 0.80367 0.96666 0.0
C840 C 0.29584 0.80342 0.98423 0.0
C841 C 0.32946 0.81868 0.92774 0.0
C842 C 0.32181 0.83384 0.9053 0.0
C843 C 0.30059 0.83316 0.92133 0.0
C844 C 0.28775 0.81814 0.96076 0.0
C845 C 0.33717 0.85139 0.86764 0.0
C846 C 0.32844 0.84806 0.81586 0.0
C847 C 0.36144 0.86982 0.88205 0.0
C848 C 0.37145 0.87467 0.93644 0.0
C849 C 0.35977 0.88005 0.97561 0.0
C850 C 0.36902 0.88412 0.02688 0.0
C851 C 0.39003 0.88303 0.03944 0.0
C852 C 0.4019 0.87795 1.00071 0.0
C853 C 0.39271 0.87383 0.94938 0.0
C854 C 0.39878 0.93154 0.70135 0.0
C855 C 0.42266 0.93544 0.70453 0.0
C856 C 0.38032 0.91234 0.72668 0.0
C857 C 0.38541 0.89663 0.75502 0.0
C858 C 0.40855 0.89897 0.75351 0.0
C859 C 0.42696 0.91812 0.72848 0.0
C860 C 0.36815 0.8803 0.79214 0.0
C861 C 0.37655 0.88395 0.84423 0.0
C862 C 0.34371 0.86215 0.77771 0.0
C863 C 0.33406 0.85643 0.72304 0.0
C864 C 0.3462 0.85078 0.68536 0.0
C865 C 0.33664 0.8447 0.63421 0.0
C866 C 0.31481 0.84397 0.62033 0.0
C867 C 0.30262 0.84955 0.65745 0.0
C868 C 0.31214 0.85571 0.70863 0.0
H869 H 0.3074 0.83918 0.58074 0.0
H870 H 0.39715 0.88616 0.07916 0.0
H871 H 0.46213 0.30502 0.15501 0.0
H872 H 0.46427 0.33699 0.1014 0.0
H873 H 0.51532 0.32947 0.00812 0.0
H874 H 0.51315 0.2973 0.06162 0.0
H875 H 0.5276 0.37641 0.01928 0.0
H876 H 0.45298 0.29943 0.97291 0.0
H877 H 0.41406 0.26328 0.99213 0.0
H878 H 0.38786 0.31097 0.04563 0.0
H879 H 0.42677 0.34742 0.02724 0.0
H880 H 0.46273 0.39141 0.77498 0.0
H881 H 0.46598 0.36765 0.84345 0.0
H882 H 0.50759 0.43437 0.94131 0.0
H883 H 0.50483 0.45848 0.87231 0.0
H884 H 0.44936 0.36037 0.93433 0.0
H885 H 0.54542 0.4267 0.02644 0.0
H886 H 0.58604 0.45898 0.00379 0.0
H887 H 0.57058 0.42791 0.84768 0.0
H888 H 0.52986 0.39549 0.86939 0.0
C889 C 0.47413 0.31042 0.12364 0.0
C890 C 0.48735 0.29849 0.11233 0.0
C891 C 0.47521 0.32862 0.09276 0.0
C892 C 0.48971 0.33543 0.05026 0.0
C893 C 0.50403 0.32457 0.04074 0.0
C894 C 0.50276 0.30615 0.07131 0.0
C895 C 0.48869 0.3525 0.01352 0.0
C896 C 0.51049 0.37302 1.00091 0.0
C897 C 0.4664 0.34799 0.98923 0.0
C898 C 0.44281 0.32611 0.99909 0.0
C899 C 0.43893 0.30218 0.98892 0.0
C900 C 0.41689 0.28166 0.99968 0.0
C901 C 0.39852 0.28483 0.02021 0.0
C902 C 0.40212 0.30854 0.02979 0.0
C903 C 0.42414 0.32914 0.01915 0.0
C904 C 0.47259 0.40113 0.81099 0.0
C905 C 0.48347 0.42691 0.81804 0.0
C906 C 0.47442 0.38747 0.85023 0.0
C907 C 0.48714 0.39918 0.89753 0.0
C908 C 0.49797 0.42491 0.90493 0.0
C909 C 0.49623 0.43866 0.8655 0.0
C910 C 0.48836 0.38411 0.93906 0.0
C911 C 0.46651 0.36401 0.95298 0.0
C912 C 0.51066 0.38875 0.96366 0.0
C913 C 0.53455 0.40884 0.94946 0.0
C914 C 0.55067 0.42685 0.98723 0.0
C915 C 0.57371 0.44513 0.97459 0.0
C916 C 0.58091 0.44542 0.9244 0.0
C917 C 0.56498 0.42762 0.88657 0.0
C918 C 0.54186 0.40938 0.89894 0.0
H919 H 0.59884 0.45947 0.91483 0.0
H920 H 0.38149 0.26892 0.02859 0.0
H921 H 0.22137 0.52313 0.0383 0.0
H922 H 0.20055 0.52707 0.96069 0.0
H923 H 0.18844 0.45698 0.89705 0.0
H924 H 0.20919 0.45308 0.97342 0.0
H925 H 0.1993 0.48808 0.82251 0.0
H926 H 0.1465 0.462 0.96104 0.0
H927 H 0.13195 0.46365 0.04682 0.0
H928 H 0.1302 0.52913 0.01237 0.0
H929 H 0.14606 0.52875 0.92756 0.0
H930 H 0.08048 0.44565 0.68097 0.0
H931 H 0.11679 0.45099 0.73017 0.0
H932 H 0.14113 0.52811 0.7612 0.0
H933 H 0.10539 0.52305 0.71178 0.0
H934 H 0.12642 0.49589 0.8488 0.0
H935 H 0.17657 0.51866 0.70477 0.0
H936 H 0.18822 0.51341 0.61788 0.0
H937 H 0.19006 0.44887 0.66052 0.0
H938 H 0.1778 0.45335 0.74736 0.0
C939 C 0.21451 0.50875 0.00745 0.0
C940 C 0.21667 0.48767 0.01235 0.0
C941 C 0.2026 0.51098 0.96317 0.0
C942 C 0.19273 0.49218 0.92317 0.0
C943 C 0.1959 0.47173 0.9272 0.0
C944 C 0.20762 0.46945 0.97127 0.0
C945 C 0.17751 0.49266 0.87882 0.0
C946 C 0.18331 0.48973 0.82825 0.0
C947 C 0.15663 0.4948 0.88623 0.0
C948 C 0.14797 0.49562 0.9382 0.0
C949 C 0.14357 0.4771 0.97218 0.0
C950 C 0.13512 0.47784 0.02073 0.0
C951 C 0.13048 0.49671 0.03539 0.0
C952 C 0.13426 0.51484 1.00145 0.0
C953 C 0.14308 0.51443 0.9532 0.0
C954 C 0.09422 0.46396 0.69599 0.0
C955 C 0.08994 0.48385 0.69338 0.0
C956 C 0.11488 0.46697 0.72437 0.0
C957 C 0.13138 0.48987 0.74998 0.0
C958 C 0.12854 0.51028 0.74198 0.0
C959 C 0.10812 0.50735 0.7136 0.0
C960 C 0.14837 0.49162 0.79273 0.0
C961 C 0.14265 0.49467 0.8431 0.0
C962 C 0.16895 0.48913 0.78501 0.0
C963 C 0.17598 0.48619 0.73252 0.0
C964 C 0.17911 0.50314 0.69548 0.0
C965 C 0.18592 0.50036 0.64625 0.0
C966 C 0.18992 0.48085 0.63372 0.0
C967 C 0.18702 0.46402 0.67033 0.0
C968 C 0.1801 0.46664 0.71954 0.0
H969 H 0.1952 0.47873 0.59559 0.0
H970 H 0.12377 0.49716 0.07285 0.0
H971 H 0.71606 0.24898 0.9838 0.0
H972 H 0.68594 0.22227 0.91466 0.0
H973 H 0.71061 0.16973 0.92742 0.0
H974 H 0.74069 0.19621 0.99598 0.0
H975 H 0.69932 0.17398 0.82546 0.0
H976 H 0.66316 0.16281 0.99296 0.0
H977 H 0.65207 0.17744 0.07129 0.0
H978 H 0.61256 0.20254 0.97797 0.0
H979 H 0.62355 0.18816 0.89913 0.0
H980 H 0.5737 0.05685 0.81963 0.0
H981 H 0.60848 0.09386 0.86005 0.0
H982 H 0.621 0.12848 0.7155 0.0
H983 H 0.586 0.09104 0.67413 0.0
H984 H 0.61371 0.13905 0.87197 0.0
H985 H 0.68282 0.1711 0.71913 0.0
H986 H 0.6923 0.15427 0.64155 0.0
H987 H 0.66483 0.08435 0.70795 0.0
H988 H 0.65534 0.10081 0.78596 0.0
C989 C 0.71528 0.2319 0.97139 0.0
C990 C 0.73054 0.22457 0.9959 0.0
C991 C 0.6981 0.21669 0.93183 0.0
C992 C 0.69596 0.19395 0.9161 0.0
C993 C 0.712 0.18723 0.93876 0.0
C994 C 0.72905 0.20231 0.97835 0.0
C995 C 0.67551 0.17584 0.8803 0.0
C996 C 0.68057 0.16655 0.83523 0.0
C997 C 0.65104 0.16615 0.89288 0.0
C998 C 0.6444 0.17469 0.94026 0.0
C999 C 0.65223 0.17159 0.98921 0.0
C1000 C 0.64592 0.17978 0.03368 0.0
C1001 C 0.63165 0.19095 0.02963 0.0
C1002 C 0.62361 0.19389 0.98109 0.0
C1003 C 0.62985 0.1857 0.93651 0.0
C1004 C 0.58387 0.07221 0.79611 0.0
C1005 C 0.57694 0.07101 0.74365 0.0
C1006 C 0.60373 0.09343 0.81942 0.0
C1007 C 0.61721 0.114 0.79098 0.0
C1008 C 0.61087 0.11276 0.73816 0.0
C1009 C 0.59091 0.09135 0.71457 0.0
C1010 C 0.6375 0.13666 0.81791 0.0
C1011 C 0.63239 0.14688 0.86135 0.0
C1012 C 0.66183 0.14702 0.80389 0.0
C1013 C 0.66825 0.13715 0.75813 0.0
C1014 C 0.67895 0.15219 0.71724 0.0
C1015 C 0.68428 0.1427 0.67318 0.0
C1016 C 0.67916 0.11826 0.66984 0.0
C1017 C 0.66875 0.10326 0.71057 0.0
C1018 C 0.66338 0.11265 0.75467 0.0
H1019 H 0.68327 0.11094 0.63571 0.0
H1020 H 0.62677 0.19728 0.06408 0.0
H1021 H 0.54018 0.69358 0.05369 0.0
H1022 H 0.54241 0.66163 1.00135 0.0
H1023 H 0.51002 0.67718 0.86969 0.0
H1024 H 0.50649 0.70821 0.92295 0.0
H1025 H 0.49206 0.63016 0.87104 0.0
H1026 H 0.57462 0.7003 0.88979 0.0
H1027 H 0.61094 0.73213 0.9416 0.0
H1028 H 0.6171 0.67587 0.01826 0.0
H1029 H 0.58075 0.64371 0.96701 0.0
H1030 H 0.56649 0.5986 0.69051 0.0
H1031 H 0.56594 0.62645 0.75799 0.0
H1032 H 0.50877 0.56451 0.82846 0.0
H1033 H 0.50838 0.53673 0.7602 0.0
H1034 H 0.57169 0.63377 0.86053 0.0
H1035 H 0.46785 0.57949 0.86955 0.0
H1036 H 0.43147 0.54852 0.81687 0.0
H1037 H 0.46829 0.57584 0.67867 0.0
H1038 H 0.50487 0.6072 0.73055 0.0
C1039 C 0.53355 0.69013 0.01355 0.0
C1040 C 0.52342 0.70346 0.992 0.0
C1041 C 0.53491 0.67196 0.98366 0.0
C1042 C 0.52695 0.66743 0.93126 0.0
C1043 C 0.51637 0.68043 0.91 0.0
C1044 C 0.51442 0.69818 0.94029 0.0
C1045 C 0.52988 0.64937 0.89831 0.0
C1046 C 0.50947 0.63097 0.86881 0.0
C1047 C 0.55259 0.65036 0.8954 0.0
C1048 C 0.57494 0.66964 0.92477 0.0
C1049 C 0.58375 0.69474 0.91768 0.0
C1050 C 0.60432 0.71283 0.94695 0.0
C1051 C 0.6163 0.70602 0.98324 0.0
C1052 C 0.60782 0.68111 0.9901 0.0
C1053 C 0.58728 0.66295 0.96086 0.0
C1054 C 0.55406 0.59082 0.72079 0.0
C1055 C 0.53725 0.5654 0.71941 0.0
C1056 C 0.55382 0.60679 0.75944 0.0
C1057 C 0.53694 0.59758 0.79752 0.0
C1058 C 0.52158 0.57205 0.79874 0.0
C1059 C 0.52151 0.55614 0.7597 0.0
C1060 C 0.53394 0.6148 0.8329 0.0
C1061 C 0.55428 0.63295 0.86297 0.0
C1062 C 0.51123 0.61382 0.8358 0.0
C1063 C 0.48915 0.59553 0.80399 0.0
C1064 C 0.46814 0.57898 0.82791 0.0
C1065 C 0.44749 0.56135 0.79819 0.0
C1066 C 0.44756 0.56015 0.74447 0.0
C1067 C 0.46827 0.57672 0.72031 0.0
C1068 C 0.48898 0.59444 0.74985 0.0
H1069 H 0.43155 0.54641 0.7216 0.0
H1070 H 0.63216 0.72005 0.006 0.0
H1071 H 0.52358 0.23359 0.31664 0.0
H1072 H 0.52974 0.20479 0.36722 0.0
H1073 H 0.45379 0.16693 0.39901 0.0
H1074 H 0.44749 0.19562 0.34876 0.0
H1075 H 0.48303 0.17141 0.48347 0.0
H1076 H 0.47277 0.14432 0.3025 0.0
H1077 H 0.48261 0.14883 0.21137 0.0
H1078 H 0.55539 0.16505 0.25366 0.0
H1079 H 0.54592 0.1606 0.34519 0.0
H1080 H 0.45415 0.05324 0.54211 0.0
H1081 H 0.45665 0.08706 0.49463 0.0
H1082 H 0.53317 0.11476 0.47828 0.0
H1083 H 0.53085 0.08069 0.52583 0.0
H1084 H 0.50944 0.11903 0.3901 0.0
H1085 H 0.51767 0.14064 0.57049 0.0
H1086 H 0.50686 0.13448 0.66093 0.0
H1087 H 0.43801 0.12885 0.62034 0.0
H1088 H 0.44824 0.13459 0.52945 0.0
C1089 C 0.5083 0.21946 0.33529 0.0
C1090 C 0.485 0.21681 0.32841 0.0
C1091 C 0.51182 0.20289 0.36382 0.0
C1092 C 0.49214 0.18347 0.38614 0.0
C1093 C 0.46921 0.18171 0.38192 0.0
C1094 C 0.46564 0.19813 0.35316 0.0
C1095 C 0.49495 0.1642 0.41177 0.0
C1096 C 0.4887 0.15989 0.463 0.0
C1097 C 0.50296 0.14958 0.3855 0.0
C1098 C 0.50873 0.15242 0.33065 0.0
C1099 C 0.49092 0.14904 0.29238 0.0
C1100 C 0.49642 0.15154 0.24065 0.0
C1101 C 0.51967 0.15738 0.22674 0.0
C1102 C 0.53742 0.1606 0.26452 0.0
C1103 C 0.53198 0.15803 0.3163 0.0
C1104 C 0.47148 0.06627 0.52784 0.0
C1105 C 0.49238 0.06441 0.53841 0.0
C1106 C 0.47288 0.08567 0.50085 0.0
C1107 C 0.49521 0.10375 0.48408 0.0
C1108 C 0.5158 0.1011 0.49134 0.0
C1109 C 0.51441 0.08157 0.51838 0.0
C1110 C 0.497 0.12591 0.46141 0.0
C1111 C 0.50413 0.13078 0.41084 0.0
C1112 C 0.48982 0.1411 0.48833 0.0
C1113 C 0.48366 0.13787 0.54306 0.0
C1114 C 0.50015 0.13791 0.58077 0.0
C1115 C 0.49413 0.13452 0.63213 0.0
C1116 C 0.47174 0.13123 0.64635 0.0
C1117 C 0.45534 0.13138 0.60925 0.0
C1118 C 0.46125 0.13474 0.55782 0.0
H1119 H 0.46711 0.1286 0.68614 0.0
H1120 H 0.52394 0.15933 0.1867 0.0
H1121 H 0.27566 0.51077 0.36378 0.0
H1122 H 0.30522 0.50981 0.42514 0.0
H1123 H 0.35619 0.52869 0.30646 0.0
H1124 H 0.32668 0.5294 0.24471 0.0
H1125 H 0.34738 0.48679 0.34871 0.0
H1126 H 0.36639 0.56836 0.41146 0.0
H1127 H 0.35712 0.59949 0.44762 0.0
H1128 H 0.33035 0.55807 0.58119 0.0
H1129 H 0.33916 0.52651 0.54548 0.0
H1130 H 0.45837 0.51626 0.45559 0.0
H1131 H 0.42475 0.52118 0.42508 0.0
H1132 H 0.38516 0.48582 0.55655 0.0
H1133 H 0.41955 0.48065 0.58829 0.0
H1134 H 0.38265 0.53086 0.51994 0.0
H1135 H 0.36704 0.45081 0.45921 0.0
H1136 H 0.3784 0.42124 0.4232 0.0
H1137 H 0.39921 0.46047 0.28541 0.0
H1138 H 0.38836 0.49053 0.32095 0.0
C1139 C 0.29339 0.51536 0.35098 0.0
C1140 C 0.29865 0.51986 0.29901 0.0
C1141 C 0.3103 0.51481 0.38626 0.0
C1142 C 0.33285 0.51895 0.37035 0.0
C1143 C 0.3388 0.52523 0.31951 0.0
C1144 C 0.32193 0.52575 0.28425 0.0
C1145 C 0.34916 0.51409 0.40437 0.0
C1146 C 0.35511 0.49654 0.38604 0.0
C1147 C 0.35849 0.52599 0.45412 0.0
C1148 C 0.35314 0.54492 0.47548 0.0
C1149 C 0.3583 0.56576 0.44829 0.0
C1150 C 0.35318 0.58351 0.46877 0.0
C1151 C 0.34307 0.58072 0.51658 0.0
C1152 C 0.33813 0.56019 0.5441 0.0
C1153 C 0.34319 0.54238 0.52378 0.0
C1154 C 0.4426 0.50944 0.47845 0.0
C1155 C 0.44136 0.49739 0.52374 0.0
C1156 C 0.42345 0.51254 0.46102 0.0
C1157 C 0.40237 0.50361 0.48809 0.0
C1158 C 0.40135 0.49277 0.53505 0.0
C1159 C 0.42087 0.48973 0.55299 0.0
C1160 C 0.38118 0.50407 0.46342 0.0
C1161 C 0.37436 0.52075 0.48317 0.0
C1162 C 0.37086 0.49131 0.41489 0.0
C1163 C 0.37694 0.47297 0.39285 0.0
C1164 C 0.37415 0.4532 0.42134 0.0
C1165 C 0.3805 0.43635 0.40101 0.0
C1166 C 0.38953 0.43898 0.35206 0.0
C1167 C 0.39219 0.45845 0.3233 0.0
C1168 C 0.3859 0.47537 0.34349 0.0
H1169 H 0.39446 0.42593 0.33641 0.0
H1170 H 0.33913 0.59448 0.53238 0.0
H1171 H 0.80266 0.29834 0.25905 0.0
H1172 H 0.83106 0.32926 0.32325 0.0
H1173 H 0.85812 0.38302 0.20817 0.0
H1174 H 0.83079 0.3511 0.14222 0.0
H1175 H 0.8942 0.38695 0.25575 0.0
H1176 H 0.82457 0.38529 0.31988 0.0
H1177 H 0.7826 0.36718 0.34725 0.0
H1178 H 0.79956 0.33277 0.46896 0.0
H1179 H 0.84156 0.35045 0.44204 0.0
H1180 H 0.96662 0.47441 0.47276 0.0
H1181 H 0.93482 0.45333 0.40337 0.0
H1182 H 0.91992 0.38306 0.4557 0.0
H1183 H 0.9522 0.4039 0.52437 0.0
H1184 H 0.87758 0.39453 0.43841 0.0
H1185 H 0.94671 0.39402 0.36072 0.0
H1186 H 0.9887 0.41517 0.33283 0.0
H1187 H 0.97137 0.45881 0.23551 0.0
H1188 H 0.92935 0.43816 0.26353 0.0
C1189 C 0.81416 0.31689 0.24745 0.0
C1190 C 0.81445 0.32228 0.19545 0.0
C1191 C 0.8304 0.33475 0.28456 0.0
C1192 C 0.84665 0.3588 0.27118 0.0
C1193 C 0.84586 0.36464 0.21969 0.0
C1194 C 0.83009 0.34647 0.18205 0.0
C1195 C 0.86609 0.37668 0.30969 0.0
C1196 C 0.89032 0.38899 0.29532 0.0
C1197 C 0.86139 0.37948 0.36174 0.0
C1198 C 0.83623 0.36915 0.37875 0.0
C1199 C 0.81934 0.3738 0.35237 0.0
C1200 C 0.79554 0.36361 0.36783 0.0
C1201 C 0.78841 0.34882 0.40978 0.0
C1202 C 0.80511 0.34426 0.43651 0.0
C1203 C 0.82894 0.35442 0.42125 0.0
C1204 C 0.95692 0.45451 0.46922 0.0
C1205 C 0.96219 0.4409 0.50407 0.0
C1206 C 0.93865 0.44251 0.42962 0.0
C1207 C 0.92504 0.41671 0.42477 0.0
C1208 C 0.93026 0.40303 0.45909 0.0
C1209 C 0.94884 0.41499 0.49804 0.0
C1210 C 0.90514 0.40386 0.38418 0.0
C1211 C 0.88104 0.39268 0.39841 0.0
C1212 C 0.90986 0.40261 0.3319 0.0
C1213 C 0.93501 0.41478 0.31471 0.0
C1214 C 0.95193 0.4083 0.33379 0.0
C1215 C 0.97571 0.42016 0.31787 0.0
C1216 C 0.98272 0.43838 0.28255 0.0
C1217 C 0.96593 0.44472 0.26294 0.0
C1218 C 0.94213 0.43295 0.27881 0.0
H1219 H 1.00115 0.44754 0.27028 0.0
H1220 H 0.76996 0.34089 0.4216 0.0
H1221 H 0.55891 0.85187 0.11306 0.0
H1222 H 0.56451 0.88932 0.15825 0.0
H1223 H 0.51066 0.84542 0.26343 0.0
H1224 H 0.50424 0.80772 0.2168 0.0
H1225 H 0.50508 0.8825 0.23957 0.0
H1226 H 0.57346 0.8736 0.29485 0.0
H1227 H 0.60926 0.86874 0.28307 0.0
H1228 H 0.64423 0.93684 0.20846 0.0
H1229 H 0.60849 0.94194 0.21926 0.0
H1230 H 0.57911 0.97566 0.46503 0.0
H1231 H 0.57507 0.94605 0.39743 0.0
H1232 H 0.53588 0.96973 0.29766 0.0
H1233 H 0.53875 0.99888 0.36695 0.0
H1234 H 0.58817 0.94554 0.30798 0.0
H1235 H 0.49362 0.91765 0.21611 0.0
H1236 H 0.45655 0.91921 0.23451 0.0
H1237 H 0.4721 0.9202 0.39688 0.0
H1238 H 0.50901 0.91806 0.3794 0.0
C1239 C 0.54829 0.85018 0.14591 0.0
C1240 C 0.53135 0.8269 0.1619 0.0
C1241 C 0.55151 0.87161 0.17168 0.0
C1242 C 0.53831 0.8702 0.21475 0.0
C1243 C 0.52106 0.84695 0.23027 0.0
C1244 C 0.5175 0.82544 0.20387 0.0
C1245 C 0.54298 0.89294 0.24456 0.0
C1246 C 0.52324 0.89634 0.25453 0.0
C1247 C 0.5667 0.91103 0.26382 0.0
C1248 C 0.5882 0.908 0.25733 0.0
C1249 C 0.58871 0.88744 0.27559 0.0
C1250 C 0.609 0.88465 0.26915 0.0
C1251 C 0.62897 0.90243 0.24489 0.0
C1252 C 0.62873 0.92306 0.22715 0.0
C1253 C 0.60847 0.92592 0.23345 0.0
C1254 C 0.56984 0.9749 0.42863 0.0
C1255 C 0.55882 0.98935 0.4219 0.0
C1256 C 0.5676 0.95791 0.38974 0.0
C1257 C 0.55467 0.95519 0.34275 0.0
C1258 C 0.54538 0.97103 0.33412 0.0
C1259 C 0.54724 0.98785 0.37359 0.0
C1260 C 0.55013 0.93479 0.30486 0.0
C1261 C 0.56999 0.93189 0.2927 0.0
C1262 C 0.5264 0.91684 0.28494 0.0
C1263 C 0.50434 0.91818 0.29643 0.0
C1264 C 0.48914 0.9182 0.25575 0.0
C1265 C 0.46814 0.91913 0.26599 0.0
C1266 C 0.46211 0.92002 0.31682 0.0
C1267 C 0.47691 0.91968 0.35753 0.0
C1268 C 0.49788 0.9186 0.34747 0.0
H1269 H 0.44596 0.92095 0.32451 0.0
H1270 H 0.64467 0.90024 0.23994 0.0
H1271 H 0.68494 0.50911 0.15137 0.0
H1272 H 0.66121 0.50568 0.22537 0.0
H1273 H 0.69804 0.47457 0.3098 0.0
H1274 H 0.72174 0.47759 0.23482 0.0
H1275 H 0.6501 0.45365 0.33302 0.0
H1276 H 0.71764 0.53446 0.33057 0.0
H1277 H 0.74592 0.57332 0.29284 0.0
H1278 H 0.68745 0.58781 0.26223 0.0
H1279 H 0.65872 0.54883 0.29905 0.0
H1280 H 0.61804 0.53245 0.5324 0.0
H1281 H 0.64766 0.52667 0.48484 0.0
H1282 H 0.58883 0.46423 0.39681 0.0
H1283 H 0.55949 0.46912 0.44529 0.0
H1284 H 0.65558 0.53275 0.39073 0.0
H1285 H 0.60412 0.42624 0.34126 0.0
H1286 H 0.57872 0.38812 0.38454 0.0
H1287 H 0.61072 0.42631 0.53199 0.0
H1288 H 0.63656 0.46458 0.48962 0.0
C1289 C 0.68766 0.50103 0.18525 0.0
C1290 C 0.70532 0.49376 0.18732 0.0
C1291 C 0.67417 0.49922 0.22772 0.0
C1292 C 0.67826 0.49047 0.27371 0.0
C1293 C 0.69468 0.48156 0.27487 0.0
C1294 C 0.70813 0.48317 0.23192 0.0
C1295 C 0.66641 0.49229 0.3209 0.0
C1296 C 0.65135 0.47092 0.34591 0.0
C1297 C 0.66876 0.51502 0.33912 0.0
C1298 C 0.68599 0.53863 0.31733 0.0
C1299 C 0.71077 0.54586 0.31551 0.0
C1300 C 0.72689 0.56791 0.29431 0.0
C1301 C 0.71848 0.58301 0.27509 0.0
C1302 C 0.69393 0.5761 0.27713 0.0
C1303 C 0.67773 0.55403 0.29822 0.0
C1304 C 0.61145 0.51705 0.50401 0.0
C1305 C 0.58631 0.50141 0.49258 0.0
C1306 C 0.62843 0.51383 0.47653 0.0
C1307 C 0.62064 0.49493 0.43706 0.0
C1308 C 0.59555 0.47862 0.4276 0.0
C1309 C 0.57867 0.48163 0.4553 0.0
C1310 C 0.63823 0.49384 0.40177 0.0
C1311 C 0.65448 0.51544 0.37873 0.0
C1312 C 0.63739 0.47142 0.38644 0.0
C1313 C 0.6222 0.44834 0.4122 0.0
C1314 C 0.60587 0.42648 0.38289 0.0
C1315 C 0.59136 0.40485 0.40728 0.0
C1316 C 0.59307 0.40481 0.46098 0.0
C1317 C 0.60936 0.42638 0.4904 0.0
C1318 C 0.62392 0.44806 0.46622 0.0
H1319 H 0.5818 0.38805 0.47978 0.0
H1320 H 0.73098 0.60008 0.25868 0.0
H1321 H 0.20971 0.74819 0.29351 0.0
H1322 H 0.1742 0.71673 0.33286 0.0
H1323 H 0.13703 0.68846 0.18248 0.0
H1324 H 0.17304 0.71977 0.14252 0.0
H1325 H 0.13008 0.70479 0.34072 0.0
H1326 H 0.10047 0.62502 0.18299 0.0
H1327 H 0.11806 0.60896 0.11967 0.0
H1328 H 0.18754 0.6485 0.20449 0.0
H1329 H 0.17037 0.6647 0.26834 0.0
H1330 H 0.02883 0.60487 0.44164 0.0
H1331 H 0.05368 0.63529 0.38113 0.0
H1332 H 0.09928 0.60235 0.37167 0.0
H1333 H 0.07317 0.57086 0.42854 0.0
H1334 H 0.09806 0.61685 0.2858 0.0
H1335 H 0.1125 0.65676 0.45549 0.0
H1336 H 0.10149 0.66991 0.5359 0.0
H1337 H 0.07439 0.70922 0.44965 0.0
H1338 H 0.085 0.69606 0.36866 0.0
C1339 C 0.19387 0.73555 0.26873 0.0
C1340 C 0.19427 0.73649 0.21486 0.0
C1341 C 0.1735 0.71752 0.29134 0.0
C1342 C 0.15298 0.69992 0.26072 0.0
C1343 C 0.15278 0.70156 0.20694 0.0
C1344 C 0.17326 0.71968 0.18417 0.0
C1345 C 0.13239 0.67957 0.28566 0.0
C1346 C 0.12296 0.68556 0.32837 0.0
C1347 C 0.12329 0.6544 0.27039 0.0
C1348 C 0.1342 0.64634 0.22999 0.0
C1349 C 0.11955 0.63043 0.18786 0.0
C1350 C 0.12941 0.62121 0.15204 0.0
C1351 C 0.15386 0.62759 0.15827 0.0
C1352 C 0.16859 0.64351 0.19985 0.0
C1353 C 0.15884 0.65285 0.23566 0.0
C1354 C 0.04392 0.60398 0.42562 0.0
C1355 C 0.04921 0.58568 0.43938 0.0
C1356 C 0.05827 0.62147 0.3915 0.0
C1357 C 0.07886 0.62166 0.37262 0.0
C1358 C 0.08357 0.60274 0.38539 0.0
C1359 C 0.06872 0.58477 0.41802 0.0
C1360 C 0.09626 0.64203 0.34182 0.0
C1361 C 0.10489 0.63608 0.29766 0.0
C1362 C 0.10563 0.66724 0.35747 0.0
C1363 C 0.09926 0.67519 0.40604 0.0
C1364 C 0.10405 0.66808 0.45369 0.0
C1365 C 0.0979 0.67555 0.49935 0.0
C1366 C 0.08717 0.69032 0.49786 0.0
C1367 C 0.08264 0.69773 0.45073 0.0
C1368 C 0.08873 0.69028 0.40494 0.0
H1369 H 0.08242 0.69608 0.53325 0.0
H1370 H 0.16145 0.62037 0.13068 0.0
loop_
_geom_bond_atom_site_label_1
_geom_bond_atom_site_label_2
_geom_bond_distance
_geom_bond_site_symmetry_2
_ccdc_geom_bond_type
Mg0 O7 2.141 . S
Mg0 O8 2.048 . S
Mg0 O9 2.048 . S
Mg0 O12 2.141 . S
C1 O2 1.313 . S
C1 O8 1.195 . S
O2 C1 1.313 . S
C3 O4 1.245 . S
C3 O12 1.289 . S
O4 C3 1.245 . S
C5 O6 1.245 . S
C5 O7 1.289 . S
O6 C5 1.245 . S
O7 Mg0 2.141 . S
O7 C5 1.289 . S
O8 Mg0 2.048 . S
O8 C1 1.195 . S
O9 Mg0 2.048 . S
O9 C10 1.195 . S
C10 O9 1.195 . S
C10 O11 1.313 . S
O11 C10 1.313 . S
O12 Mg0 2.141 . S
O12 C3 1.289 . S
Mg13 O20 2.141 . S
Mg13 O21 2.048 . S
Mg13 O22 2.048 . S
Mg13 O25 2.141 . S
C14 O15 1.313 . S
C14 O21 1.195 . S
O15 C14 1.313 . S
C16 O17 1.245 . S
C16 O25 1.289 . S
O17 C16 1.245 . S
C18 O19 1.245 . S
C18 O20 1.289 . S
O19 C18 1.245 . S
O20 Mg13 2.141 . S
O20 C18 1.289 . S
O21 Mg13 2.048 . S
O21 C14 1.195 . S
O22 Mg13 2.048 . S
O22 C23 1.195 . S
C23 O22 1.195 . S
C23 O24 1.313 . S
O24 C23 1.313 . S
O25 Mg13 2.141 . S
O25 C16 1.289 . S
Mg26 O33 2.141 1_554 S
Mg26 O34 2.048 . S
Mg26 O35 2.048 . S
Mg26 O38 2.141 1_554 S
C27 O28 1.313 . S
C27 O34 1.195 . S
O28 C27 1.313 . S
C29 O30 1.245 . S
C29 O38 1.289 . S
O30 C29 1.245 . S
C31 O32 1.245 . S
C31 O33 1.289 . S
O32 C31 1.245 . S
O33 Mg26 2.141 1_556 S
O33 C31 1.289 . S
O34 Mg26 2.048 . S
O34 C27 1.195 . S
O35 Mg26 2.048 . S
O35 C36 1.195 . S
C36 O35 1.195 . S
C36 O37 1.313 . S
O37 C36 1.313 . S
O38 Mg26 2.141 1_556 S
O38 C29 1.289 . S
Mg39 O46 2.141 . S
Mg39 O47 2.048 . S
Mg39 O48 2.048 . S
Mg39 O51 2.141 . S
C40 O41 1.313 . S
C40 O47 1.195 1_556 S
O41 C40 1.313 . S
C42 O43 1.245 . S
C42 O51 1.289 . S
O43 C42 1.245 . S
C44 O45 1.245 . S
C44 O46 1.289 . S
O45 C44 1.245 . S
O46 Mg39 2.141 . S
O46 C44 1.289 . S
O47 Mg39 2.048 . S
O47 C40 1.195 1_554 S
O48 Mg39 2.048 . S
O48 C49 1.183 1_554 S
C49 O48 1.183 1_556 S
C49 O50 1.314 . S
O50 C49 1.314 . S
O51 Mg39 2.141 . S
O51 C42 1.289 . S
Mg52 O59 2.141 . S
Mg52 O60 2.048 . S
Mg52 O61 2.048 . S
Mg52 O64 2.141 . S
C53 O54 1.313 . S
C53 O60 1.195 . S
O54 C53 1.313 . S
C55 O56 1.245 . S
C55 O64 1.289 . S
O56 C55 1.245 . S
C57 O58 1.245 . S
C57 O59 1.289 . S
O58 C57 1.245 . S
O59 Mg52 2.141 . S
O59 C57 1.289 . S
O60 Mg52 2.048 . S
O60 C53 1.195 . S
O61 Mg52 2.048 . S
O61 C62 1.195 . S
C62 O61 1.195 . S
C62 O63 1.313 . S
O63 C62 1.313 . S
O64 Mg52 2.141 . S
O64 C55 1.289 . S
Mg65 O72 2.141 . S
Mg65 O73 2.048 . S
Mg65 O74 2.048 . S
Mg65 O77 2.141 . S
C66 O67 1.313 . S
C66 O73 1.195 . S
O67 C66 1.313 . S
C68 O69 1.245 . S
C68 O77 1.289 . S
O69 C68 1.245 . S
C70 O71 1.245 . S
C70 O72 1.289 . S
O71 C70 1.245 . S
O72 Mg65 2.141 . S
O72 C70 1.289 . S
O73 Mg65 2.048 . S
O73 C66 1.195 . S
O74 Mg65 2.048 . S
O74 C75 1.195 . S
C75 O74 1.195 . S
C75 O76 1.313 . S
O76 C75 1.313 . S
O77 Mg65 2.141 . S
O77 C68 1.289 . S
C78 O90 1.241 . S
C78 O91 1.280 . S
C79 O92 1.277 . S
C79 O93 1.245 . S
C80 O104 1.247 . S
C80 O106 1.289 . S
Mg81 O82 1.905 . S
Mg81 O91 1.984 . S
Mg81 O93 1.988 1_655 S
Mg81 O94 2.061 . S
O82 Mg81 1.905 . S
O82 Mg83 1.990 1_655 S
O82 Mg84 1.922 1_655 S
Mg83 O82 1.990 1_455 S
Mg83 O90 2.042 1_455 S
Mg83 O92 2.041 . S
Mg83 O98 2.038 1_455 S
Mg83 O106 2.238 . S
Mg84 O82 1.922 1_455 S
Mg84 O85 1.917 . S
Mg84 O95 2.106 1_455 S
Mg84 O97 2.079 1_455 S
Mg84 O106 2.106 . S
Mg84 O107 2.079 . S
O85 Mg84 1.917 . S
O85 Mg86 1.926 . S
O85 Mg87 1.986 . S
Mg86 O85 1.926 . S
Mg86 O100 1.984 . S
Mg86 O103 1.988 1_455 S
Mg86 O104 2.061 . S
Mg87 O85 1.986 . S
Mg87 O95 2.238 1_455 S
Mg87 O99 2.042 . S
Mg87 O101 2.041 1_455 S
Mg87 O108 2.038 . S
C88 O94 1.247 . S
C88 O95 1.289 . S
C89 O107 1.245 . S
C89 O108 1.274 . S
O90 C78 1.241 . S
O90 Mg83 2.042 1_655 S
O91 C78 1.280 . S
O91 Mg81 1.984 . S
O92 C79 1.277 . S
O92 Mg83 2.041 . S
O93 C79 1.245 . S
O93 Mg81 1.988 1_455 S
O94 Mg81 2.061 . S
O94 C88 1.247 . S
O95 Mg84 2.106 1_655 S
O95 Mg87 2.238 1_655 S
O95 C88 1.289 . S
C96 O97 1.245 . S
C96 O98 1.274 . S
O97 Mg84 2.079 1_655 S
O97 C96 1.245 . S
O98 Mg83 2.038 1_655 S
O98 C96 1.274 . S
O99 Mg87 2.042 . S
O99 C102 1.241 . S
O100 Mg86 1.984 . S
O100 C102 1.280 . S
O101 Mg87 2.041 1_655 S
O101 C105 1.277 . S
C102 O99 1.241 . S
C102 O100 1.280 . S
O103 Mg86 1.988 1_655 S
O103 C105 1.245 . S
O104 C80 1.247 . S
O104 Mg86 2.061 . S
C105 O101 1.277 . S
C105 O103 1.245 . S
O106 C80 1.289 . S
O106 Mg83 2.238 . S
O106 Mg84 2.106 . S
O107 Mg84 2.079 . S
O107 C89 1.245 . S
O108 Mg87 2.038 . S
O108 C89 1.274 . S
C109 O121 1.241 . S
C109 O122 1.280 . S
C110 O123 1.277 . S
C110 O124 1.245 . S
C111 O135 1.247 . S
C111 O137 1.289 . S
Mg112 O113 1.926 . S
Mg112 O122 1.984 . S
Mg112 O124 1.988 1_545 S
Mg112 O125 2.061 . S
O113 Mg112 1.926 . S
O113 Mg114 1.986 . S
O113 Mg115 1.917 . S
Mg114 O113 1.986 . S
Mg114 O121 2.042 . S
Mg114 O123 2.041 1_545 S
Mg114 O129 2.038 . S
Mg114 O137 2.238 1_545 S
Mg115 O113 1.917 . S
Mg115 O116 1.917 1_545 S
Mg115 O126 2.106 . S
Mg115 O128 2.079 . S
Mg115 O137 2.106 1_545 S
Mg115 O138 2.079 1_545 S
O116 Mg115 1.917 1_565 S
O116 Mg117 1.926 . S
O116 Mg118 1.986 1_565 S
Mg117 O116 1.926 . S
Mg117 O131 1.984 . S
Mg117 O134 1.988 1_565 S
Mg117 O135 2.061 . S
Mg118 O116 1.986 1_545 S
Mg118 O126 2.238 . S
Mg118 O130 2.042 1_545 S
Mg118 O132 2.041 . S
Mg118 O139 2.038 1_545 S
C119 O125 1.247 . S
C119 O126 1.289 . S
C120 O138 1.245 . S
C120 O139 1.274 . S
O121 C109 1.241 . S
O121 Mg114 2.042 . S
O122 C109 1.280 . S
O122 Mg112 1.984 . S
O123 C110 1.277 . S
O123 Mg114 2.041 1_565 S
O124 C110 1.245 . S
O124 Mg112 1.988 1_565 S
O125 Mg112 2.061 . S
O125 C119 1.247 . S
O126 Mg115 2.106 . S
O126 Mg118 2.238 . S
O126 C119 1.289 . S
C127 O128 1.245 . S
C127 O129 1.274 . S
O128 Mg115 2.079 . S
O128 C127 1.245 . S
O129 Mg114 2.038 . S
O129 C127 1.274 . S
O130 Mg118 2.042 1_565 S
O130 C133 1.241 . S
O131 Mg117 1.984 . S
O131 C133 1.280 . S
O132 Mg118 2.041 . S
O132 C136 1.277 . S
C133 O130 1.241 . S
C133 O131 1.280 . S
O134 Mg117 1.988 1_545 S
O134 C136 1.245 . S
O135 C111 1.247 . S
O135 Mg117 2.061 . S
C136 O132 1.277 . S
C136 O134 1.245 . S
O137 C111 1.289 . S
O137 Mg114 2.238 1_565 S
O137 Mg115 2.106 1_565 S
O138 Mg115 2.079 1_565 S
O138 C120 1.245 . S
O139 Mg118 2.038 1_565 S
O139 C120 1.274 . S
C140 O152 1.241 . S
C140 O153 1.280 . S
C141 O154 1.277 . S
C141 O155 1.245 . S
C142 O166 1.247 . S
C142 O168 1.289 . S
Mg143 O144 1.926 . S
Mg143 O153 1.984 . S
Mg143 O155 1.988 . S
Mg143 O156 2.061 . S
O144 Mg143 1.926 . S
O144 Mg145 1.986 . S
O144 Mg146 1.917 . S
Mg145 O144 1.986 . S
Mg145 O152 2.042 . S
Mg145 O154 2.041 . S
Mg145 O160 2.038 . S
Mg145 O168 2.238 . S
Mg146 O144 1.917 . S
Mg146 O147 1.917 . S
Mg146 O157 2.106 . S
Mg146 O159 2.079 . S
Mg146 O168 2.106 . S
Mg146 O169 2.079 . S
O147 Mg146 1.917 . S
O147 Mg148 1.926 . S
O147 Mg149 1.986 . S
Mg148 O147 1.926 . S
Mg148 O162 1.984 . S
Mg148 O165 1.988 . S
Mg148 O166 2.061 . S
Mg149 O147 1.986 . S
Mg149 O157 2.238 . S
Mg149 O161 2.042 . S
Mg149 O163 2.041 . S
Mg149 O170 2.038 . S
C150 O156 1.247 . S
C150 O157 1.289 . S
C151 O169 1.245 . S
C151 O170 1.274 . S
O152 C140 1.241 . S
O152 Mg145 2.042 . S
O153 C140 1.280 . S
O153 Mg143 1.984 . S
O154 C141 1.277 . S
O154 Mg145 2.041 . S
O155 C141 1.245 . S
O155 Mg143 1.988 . S
O156 Mg143 2.061 . S
O156 C150 1.247 . S
O157 Mg146 2.106 . S
O157 Mg149 2.238 . S
O157 C150 1.289 . S
C158 O159 1.245 . S
C158 O160 1.274 . S
O159 Mg146 2.079 . S
O159 C158 1.245 . S
O160 Mg145 2.038 . S
O160 C158 1.274 . S
O161 Mg149 2.042 . S
O161 C164 1.241 . S
O162 Mg148 1.984 . S
O162 C164 1.280 . S
O163 Mg149 2.041 . S
O163 C167 1.277 . S
C164 O161 1.241 . S
C164 O162 1.280 . S
O165 Mg148 1.988 . S
O165 C167 1.245 . S
O166 C142 1.247 . S
O166 Mg148 2.061 . S
C167 O163 1.277 . S
C167 O165 1.245 . S
O168 C142 1.289 . S
O168 Mg145 2.238 . S
O168 Mg146 2.106 . S
O169 Mg146 2.079 . S
O169 C151 1.245 . S
O170 Mg149 2.038 . S
O170 C151 1.274 . S
H171 C189 0.951 . S
H172 C191 0.951 . S
H173 C193 0.950 . S
H174 C194 0.950 . S
H175 C196 0.950 . S
H176 C199 0.950 . S
H177 C200 0.950 . S
H178 C202 0.950 . S
H179 C203 0.950 . S
H180 C204 0.951 . S
H181 C206 0.951 . S
H182 C208 0.950 . S
H183 C209 0.950 . S
H184 C211 0.950 . S
H185 C214 0.950 . S
H186 C215 0.950 . S
H187 C217 0.950 . S
H188 C218 0.950 . S
C189 H171 0.951 . S
C189 C190 1.366 . S
C189 C191 1.388 . S
C190 C189 1.366 . S
C190 C194 1.385 . S
C191 H172 0.951 . S
C191 C189 1.388 . S
C191 C192 1.366 . S
C192 C191 1.366 . S
C192 C193 1.414 . S
C192 C195 1.499 . S
C193 H173 0.950 . S
C193 C192 1.414 . S
C193 C194 1.374 . S
C194 H174 0.950 . S
C194 C190 1.385 . S
C194 C193 1.374 . S
C195 C192 1.499 . S
C195 C196 1.373 . S
C195 C197 1.389 . S
C196 H175 0.950 . S
C196 C195 1.373 . S
C196 C212 1.377 . S
C197 C195 1.389 . S
C197 C198 1.524 . S
C197 C211 1.377 . S
C198 C197 1.524 . S
C198 C199 1.397 . S
C198 C203 1.363 . S
C199 H176 0.950 . S
C199 C198 1.397 . S
C199 C200 1.334 . S
C200 H177 0.950 . S
C200 C199 1.334 . S
C200 C201 1.287 . S
C201 C200 1.287 . S
C201 C202 1.524 . S
C201 H220 0.913 . S
C202 H178 0.950 . S
C202 C201 1.524 . S
C202 C203 1.415 . S
C203 H179 0.950 . S
C203 C198 1.363 . S
C203 C202 1.415 . S
C204 H180 0.951 . S
C204 C205 1.366 . S
C204 C206 1.388 . S
C205 C204 1.366 . S
C205 C209 1.385 . S
C206 H181 0.951 . S
C206 C204 1.388 . S
C206 C207 1.366 . S
C207 C206 1.366 . S
C207 C208 1.414 . S
C207 C210 1.499 . S
C208 H182 0.950 . S
C208 C207 1.414 . S
C208 C209 1.374 . S
C209 H183 0.950 . S
C209 C205 1.385 . S
C209 C208 1.374 . S
C210 C207 1.499 . S
C210 C211 1.373 . S
C210 C212 1.389 . S
C211 H184 0.950 . S
C211 C197 1.377 . S
C211 C210 1.373 . S
C212 C196 1.377 . S
C212 C210 1.389 . S
C212 C213 1.524 . S
C213 C212 1.524 . S
C213 C214 1.397 . S
C213 C218 1.363 . S
C214 H185 0.950 . S
C214 C213 1.397 . S
C214 C215 1.334 . S
C215 H186 0.950 . S
C215 C214 1.334 . S
C215 C216 1.287 . S
C216 C215 1.287 . S
C216 C217 1.524 . S
C216 H219 0.999 . S
C217 H187 0.950 . S
C217 C216 1.524 . S
C217 C218 1.415 . S
C218 H188 0.950 . S
C218 C213 1.363 . S
C218 C217 1.415 . S
H219 C216 0.999 . S
H220 C201 0.913 . S
H221 C239 0.951 . S
H222 C241 0.951 . S
H223 C243 0.950 . S
H224 C244 0.950 . S
H225 C246 0.950 . S
H226 C249 0.950 . S
H227 C250 0.950 . S
H228 C252 0.950 . S
H229 C253 0.950 . S
H230 C254 0.951 . S
H231 C256 0.951 . S
H232 C258 0.950 . S
H233 C259 0.950 . S
H234 C261 0.950 . S
H235 C264 0.950 . S
H236 C265 0.950 . S
H237 C267 0.950 . S
H238 C268 0.950 . S
C239 H221 0.951 . S
C239 C240 1.366 . S
C239 C241 1.388 . S
C240 C239 1.366 . S
C240 C244 1.385 . S
C241 H222 0.951 . S
C241 C239 1.388 . S
C241 C242 1.366 . S
C242 C241 1.366 . S
C242 C243 1.414 . S
C242 C245 1.499 . S
C243 H223 0.950 . S
C243 C242 1.414 . S
C243 C244 1.374 . S
C244 H224 0.950 . S
C244 C240 1.385 . S
C244 C243 1.374 . S
C245 C242 1.499 . S
C245 C246 1.373 . S
C245 C247 1.389 . S
C246 H225 0.950 . S
C246 C245 1.373 . S
C246 C262 1.377 . S
C247 C245 1.389 . S
C247 C248 1.524 . S
C247 C261 1.377 . S
C248 C247 1.524 . S
C248 C249 1.397 . S
C248 C253 1.363 . S
C249 H226 0.950 . S
C249 C248 1.397 . S
C249 C250 1.334 . S
C250 H227 0.950 . S
C250 C249 1.334 . S
C250 C251 1.287 . S
C251 C250 1.287 . S
C251 C252 1.524 . S
C251 H270 0.913 . S
C252 H228 0.950 . S
C252 C251 1.524 . S
C252 C253 1.415 . S
C253 H229 0.950 . S
C253 C248 1.363 . S
C253 C252 1.415 . S
C254 H230 0.951 . S
C254 C255 1.366 . S
C254 C256 1.388 . S
C255 C254 1.366 . S
C255 C259 1.385 . S
C256 H231 0.951 . S
C256 C254 1.388 . S
C256 C257 1.366 . S
C257 C256 1.366 . S
C257 C258 1.414 . S
C257 C260 1.499 . S
C258 H232 0.950 . S
C258 C257 1.414 . S
C258 C259 1.374 . S
C259 H233 0.950 . S
C259 C255 1.385 . S
C259 C258 1.374 . S
C260 C257 1.499 . S
C260 C261 1.373 . S
C260 C262 1.389 . S
C261 H234 0.950 . S
C261 C247 1.377 . S
C261 C260 1.373 . S
C262 C246 1.377 . S
C262 C260 1.389 . S
C262 C263 1.524 . S
C263 C262 1.524 . S
C263 C264 1.397 . S
C263 C268 1.363 . S
C264 H235 0.950 . S
C264 C263 1.397 . S
C264 C265 1.334 . S
C265 H236 0.950 . S
C265 C264 1.334 . S
C265 C266 1.287 . S
C266 C265 1.287 . S
C266 C267 1.524 . S
C266 H269 0.963 1_545 S
C267 H237 0.950 . S
C267 C266 1.524 . S
C267 C268 1.415 . S
C268 H238 0.950 . S
C268 C263 1.363 . S
C268 C267 1.415 . S
H269 C266 0.963 1_565 S
H270 C251 0.913 . S
H271 C289 0.951 . S
H272 C291 0.951 . S
H273 C293 0.950 . S
H274 C294 0.950 . S
H275 C296 0.950 . S
H276 C299 0.950 . S
H277 C300 0.950 . S
H278 C302 0.950 . S
H279 C303 0.950 . S
H280 C304 0.951 . S
H281 C306 0.951 . S
H282 C308 0.950 . S
H283 C309 0.950 . S
H284 C311 0.950 . S
H285 C314 0.950 . S
H286 C315 0.950 . S
H287 C317 0.950 . S
H288 C318 0.950 . S
C289 H271 0.951 . S
C289 C290 1.366 . S
C289 C291 1.388 . S
C290 C289 1.366 . S
C290 C294 1.385 . S
C291 H272 0.951 . S
C291 C289 1.388 . S
C291 C292 1.366 . S
C292 C291 1.366 . S
C292 C293 1.414 . S
C292 C295 1.499 . S
C293 H273 0.950 . S
C293 C292 1.414 . S
C293 C294 1.374 . S
C294 H274 0.950 . S
C294 C290 1.385 . S
C294 C293 1.374 . S
C295 C292 1.499 . S
C295 C296 1.373 . S
C295 C297 1.389 . S
C296 H275 0.950 . S
C296 C295 1.373 . S
C296 C312 1.377 . S
C297 C295 1.389 . S
C297 C298 1.524 . S
C297 C311 1.377 . S
C298 C297 1.524 . S
C298 C299 1.397 . S
C298 C303 1.363 . S
C299 H276 0.950 . S
C299 C298 1.397 . S
C299 C300 1.334 . S
C300 H277 0.950 . S
C300 C299 1.334 . S
C300 C301 1.287 . S
C301 C300 1.287 . S
C301 C302 1.524 . S
C301 H320 0.913 . S
C302 H278 0.950 . S
C302 C301 1.524 . S
C302 C303 1.415 . S
C303 H279 0.950 . S
C303 C298 1.363 . S
C303 C302 1.415 . S
C304 H280 0.951 . S
C304 C305 1.366 . S
C304 C306 1.388 . S
C305 C304 1.366 . S
C305 C309 1.385 . S
C306 H281 0.951 . S
C306 C304 1.388 . S
C306 C307 1.366 . S
C307 C306 1.366 . S
C307 C308 1.414 . S
C307 C310 1.499 . S
C308 H282 0.950 . S
C308 C307 1.414 . S
C308 C309 1.374 . S
C309 H283 0.950 . S
C309 C305 1.385 . S
C309 C308 1.374 . S
C310 C307 1.499 . S
C310 C311 1.373 . S
C310 C312 1.389 . S
C311 H284 0.950 . S
C311 C297 1.377 . S
C311 C310 1.373 . S
C312 C296 1.377 . S
C312 C310 1.389 . S
C312 C313 1.524 . S
C313 C312 1.524 . S
C313 C314 1.397 . S
C313 C318 1.363 . S
C314 H285 0.950 . S
C314 C313 1.397 . S
C314 C315 1.334 . S
C315 H286 0.950 . S
C315 C314 1.334 . S
C315 C316 1.287 . S
C316 C315 1.287 . S
C316 C317 1.524 . S
C316 H319 0.999 . S
C317 H287 0.950 . S
C317 C316 1.524 . S
C317 C318 1.415 . S
C318 H288 0.950 . S
C318 C313 1.363 . S
C318 C317 1.415 . S
H319 C316 0.999 . S
H320 C301 0.913 . S
H321 C339 0.951 . S
H322 C341 0.951 . S
H323 C343 0.950 . S
H324 C344 0.950 . S
H325 C346 0.950 . S
H326 C349 0.950 . S
H327 C350 0.950 . S
H328 C352 0.950 . S
H329 C353 0.950 . S
H330 C354 0.951 . S
H331 C356 0.951 . S
H332 C358 0.950 . S
H333 C359 0.950 . S
H334 C361 0.950 . S
H335 C364 0.950 . S
H336 C365 0.950 . S
H337 C367 0.950 . S
H338 C368 0.950 . S
C339 H321 0.951 . S
C339 C340 1.366 . S
C339 C341 1.388 . S
C340 C339 1.366 . S
C340 C344 1.385 . S
C341 H322 0.951 . S
C341 C339 1.388 . S
C341 C342 1.366 . S
C342 C341 1.366 . S
C342 C343 1.414 . S
C342 C345 1.499 . S
C343 H323 0.950 . S
C343 C342 1.414 . S
C343 C344 1.374 . S
C344 H324 0.950 . S
C344 C340 1.385 . S
C344 C343 1.374 . S
C345 C342 1.499 . S
C345 C346 1.373 . S
C345 C347 1.389 . S
C346 H325 0.950 . S
C346 C345 1.373 . S
C346 C362 1.377 . S
C347 C345 1.389 . S
C347 C348 1.524 . S
C347 C361 1.377 . S
C348 C347 1.524 . S
C348 C349 1.397 . S
C348 C353 1.363 . S
C349 H326 0.950 . S
C349 C348 1.397 . S
C349 C350 1.334 . S
C350 H327 0.950 . S
C350 C349 1.334 . S
C350 C351 1.287 . S
C351 C350 1.287 . S
C351 C352 1.524 . S
C351 H370 0.913 . S
C352 H328 0.950 . S
C352 C351 1.524 . S
C352 C353 1.415 . S
C353 H329 0.950 . S
C353 C348 1.363 . S
C353 C352 1.415 . S
C354 H330 0.951 . S
C354 C355 1.366 . S
C354 C356 1.388 . S
C355 C354 1.366 . S
C355 C359 1.385 . S
C356 H331 0.951 . S
C356 C354 1.388 . S
C356 C357 1.366 . S
C357 C356 1.366 . S
C357 C358 1.414 . S
C357 C360 1.499 . S
C358 H332 0.950 . S
C358 C357 1.414 . S
C358 C359 1.374 . S
C359 H333 0.950 . S
C359 C355 1.385 . S
C359 C358 1.374 . S
C360 C357 1.499 . S
C360 C361 1.373 . S
C360 C362 1.389 . S
C361 H334 0.950 . S
C361 C347 1.377 . S
C361 C360 1.373 . S
C362 C346 1.377 . S
C362 C360 1.389 . S
C362 C363 1.524 . S
C363 C362 1.524 . S
C363 C364 1.397 . S
C363 C368 1.363 . S
C364 H335 0.950 . S
C364 C363 1.397 . S
C364 C365 1.334 . S
C365 H336 0.950 . S
C365 C364 1.334 . S
C365 C366 1.287 . S
C366 C365 1.287 . S
C366 C367 1.524 . S
C366 H369 0.999 . S
C367 H337 0.950 . S
C367 C366 1.524 . S
C367 C368 1.415 . S
C368 H338 0.950 . S
C368 C363 1.363 . S
C368 C367 1.415 . S
H369 C366 0.999 . S
H370 C351 0.913 . S
H371 C389 0.951 . S
H372 C391 0.951 . S
H373 C393 0.950 . S
H374 C394 0.950 . S
H375 C396 0.950 . S
H376 C399 0.950 . S
H377 C400 0.950 . S
H378 C402 0.950 . S
H379 C403 0.950 . S
H380 C404 0.951 . S
H381 C406 0.951 . S
H382 C408 0.950 . S
H383 C409 0.950 . S
H384 C411 0.950 . S
H385 C414 0.950 . S
H386 C415 0.950 . S
H387 C417 0.950 . S
H388 C418 0.950 . S
C389 H371 0.951 . S
C389 C390 1.366 . S
C389 C391 1.388 . S
C390 C389 1.366 . S
C390 C394 1.385 . S
C391 H372 0.951 . S
C391 C389 1.388 . S
C391 C392 1.366 . S
C392 C391 1.366 . S
C392 C393 1.414 . S
C392 C395 1.499 . S
C393 H373 0.950 . S
C393 C392 1.414 . S
C393 C394 1.374 . S
C394 H374 0.950 . S
C394 C390 1.385 . S
C394 C393 1.374 . S
C395 C392 1.499 . S
C395 C396 1.373 . S
C395 C397 1.389 . S
C396 H375 0.950 . S
C396 C395 1.373 . S
C396 C412 1.377 . S
C397 C395 1.389 . S
C397 C398 1.524 . S
C397 C411 1.377 . S
C398 C397 1.524 . S
C398 C399 1.397 . S
C398 C403 1.363 . S
C399 H376 0.950 . S
C399 C398 1.397 . S
C399 C400 1.334 . S
C400 H377 0.950 . S
C400 C399 1.334 . S
C400 C401 1.287 . S
C401 C400 1.287 . S
C401 C402 1.524 . S
C401 H420 0.913 . S
C402 H378 0.950 . S
C402 C401 1.524 . S
C402 C403 1.415 . S
C403 H379 0.950 . S
C403 C398 1.363 . S
C403 C402 1.415 . S
C404 H380 0.951 . S
C404 C405 1.366 . S
C404 C406 1.388 . S
C405 C404 1.366 . S
C405 C409 1.385 . S
C406 H381 0.951 . S
C406 C404 1.388 . S
C406 C407 1.366 . S
C407 C406 1.366 . S
C407 C408 1.414 . S
C407 C410 1.499 . S
C408 H382 0.950 . S
C408 C407 1.414 . S
C408 C409 1.374 . S
C409 H383 0.950 . S
C409 C405 1.385 . S
C409 C408 1.374 . S
C410 C407 1.499 . S
C410 C411 1.373 . S
C410 C412 1.389 . S
C411 H384 0.950 . S
C411 C397 1.377 . S
C411 C410 1.373 . S
C412 C396 1.377 . S
C412 C410 1.389 . S
C412 C413 1.524 . S
C413 C412 1.524 . S
C413 C414 1.397 . S
C413 C418 1.363 . S
C414 H385 0.950 . S
C414 C413 1.397 . S
C414 C415 1.334 . S
C415 H386 0.950 . S
C415 C414 1.334 . S
C415 C416 1.287 . S
C416 C415 1.287 . S
C416 C417 1.524 . S
C416 H419 0.999 . S
C417 H387 0.950 . S
C417 C416 1.524 . S
C417 C418 1.415 . S
C418 H388 0.950 . S
C418 C413 1.363 . S
C418 C417 1.415 . S
H419 C416 0.999 . S
H420 C401 0.913 . S
H421 C439 0.951 . S
H422 C441 0.951 . S
H423 C443 0.950 . S
H424 C444 0.950 . S
H425 C446 0.950 . S
H426 C449 0.950 . S
H427 C450 0.950 . S
H428 C452 0.950 . S
H429 C453 0.950 . S
H430 C454 0.951 . S
H431 C456 0.951 . S
H432 C458 0.950 . S
H433 C459 0.950 . S
H434 C461 0.950 . S
H435 C464 0.950 . S
H436 C465 0.950 . S
H437 C467 0.950 . S
H438 C468 0.950 . S
C439 H421 0.951 . S
C439 C440 1.366 . S
C439 C441 1.388 . S
C440 C439 1.366 . S
C440 C444 1.385 . S
C441 H422 0.951 . S
C441 C439 1.388 . S
C441 C442 1.366 . S
C442 C441 1.366 . S
C442 C443 1.414 . S
C442 C445 1.499 . S
C443 H423 0.950 . S
C443 C442 1.414 . S
C443 C444 1.374 . S
C444 H424 0.950 . S
C444 C440 1.385 . S
C444 C443 1.374 . S
C445 C442 1.499 . S
C445 C446 1.373 . S
C445 C447 1.389 . S
C446 H425 0.950 . S
C446 C445 1.373 . S
C446 C462 1.377 . S
C447 C445 1.389 . S
C447 C448 1.524 . S
C447 C461 1.377 . S
C448 C447 1.524 . S
C448 C449 1.397 . S
C448 C453 1.363 . S
C449 H426 0.950 . S
C449 C448 1.397 . S
C449 C450 1.334 . S
C450 H427 0.950 . S
C450 C449 1.334 . S
C450 C451 1.287 . S
C451 C450 1.287 . S
C451 C452 1.524 . S
C451 H470 0.913 . S
C452 H428 0.950 . S
C452 C451 1.524 . S
C452 C453 1.415 . S
C453 H429 0.950 . S
C453 C448 1.363 . S
C453 C452 1.415 . S
C454 H430 0.951 . S
C454 C455 1.366 . S
C454 C456 1.388 . S
C455 C454 1.366 . S
C455 C459 1.385 . S
C456 H431 0.951 . S
C456 C454 1.388 . S
C456 C457 1.366 . S
C457 C456 1.366 . S
C457 C458 1.414 . S
C457 C460 1.499 . S
C458 H432 0.950 . S
C458 C457 1.414 . S
C458 C459 1.374 . S
C459 H433 0.950 . S
C459 C455 1.385 . S
C459 C458 1.374 . S
C460 C457 1.499 . S
C460 C461 1.373 . S
C460 C462 1.389 . S
C461 H434 0.950 . S
C461 C447 1.377 . S
C461 C460 1.373 . S
C462 C446 1.377 . S
C462 C460 1.389 . S
C462 C463 1.524 . S
C463 C462 1.524 . S
C463 C464 1.397 . S
C463 C468 1.363 . S
C464 H435 0.950 . S
C464 C463 1.397 . S
C464 C465 1.334 . S
C465 H436 0.950 . S
C465 C464 1.334 . S
C465 C466 1.287 . S
C466 C465 1.287 . S
C466 C467 1.524 . S
C466 H469 0.999 . S
C467 H437 0.950 . S
C467 C466 1.524 . S
C467 C468 1.415 . S
C468 H438 0.950 . S
C468 C463 1.363 . S
C468 C467 1.415 . S
H469 C466 0.999 . S
H470 C451 0.913 . S
H471 C489 0.951 . S
H472 C491 0.951 . S
H473 C493 0.950 . S
H474 C494 0.950 . S
H475 C496 0.950 . S
H476 C499 0.950 . S
H477 C500 0.950 . S
H478 C502 0.950 . S
H479 C503 0.950 . S
H480 C504 0.951 . S
H481 C506 0.951 . S
H482 C508 0.950 . S
H483 C509 0.950 . S
H484 C511 0.950 . S
H485 C514 0.950 . S
H486 C515 0.950 . S
H487 C517 0.950 . S
H488 C518 0.950 . S
C489 H471 0.951 . S
C489 C490 1.366 . S
C489 C491 1.388 . S
C490 C489 1.366 . S
C490 C494 1.385 . S
C491 H472 0.951 . S
C491 C489 1.388 . S
C491 C492 1.366 . S
C492 C491 1.366 . S
C492 C493 1.414 . S
C492 C495 1.499 . S
C493 H473 0.950 . S
C493 C492 1.414 . S
C493 C494 1.374 . S
C494 H474 0.950 . S
C494 C490 1.385 . S
C494 C493 1.374 . S
C495 C492 1.499 . S
C495 C496 1.373 . S
C495 C497 1.389 . S
C496 H475 0.950 . S
C496 C495 1.373 . S
C496 C512 1.377 . S
C497 C495 1.389 . S
C497 C498 1.524 . S
C497 C511 1.377 . S
C498 C497 1.524 . S
C498 C499 1.397 . S
C498 C503 1.363 . S
C499 H476 0.950 . S
C499 C498 1.397 . S
C499 C500 1.334 . S
C500 H477 0.950 . S
C500 C499 1.334 . S
C500 C501 1.287 . S
C501 C500 1.287 . S
C501 C502 1.524 . S
C501 H520 0.913 . S
C502 H478 0.950 . S
C502 C501 1.524 . S
C502 C503 1.415 . S
C503 H479 0.950 . S
C503 C498 1.363 . S
C503 C502 1.415 . S
C504 H480 0.951 . S
C504 C505 1.366 . S
C504 C506 1.388 . S
C505 C504 1.366 . S
C505 C509 1.385 . S
C506 H481 0.951 . S
C506 C504 1.388 . S
C506 C507 1.366 . S
C507 C506 1.366 . S
C507 C508 1.414 . S
C507 C510 1.499 . S
C508 H482 0.950 . S
C508 C507 1.414 . S
C508 C509 1.374 . S
C509 H483 0.950 . S
C509 C505 1.385 . S
C509 C508 1.374 . S
C510 C507 1.499 . S
C510 C511 1.373 . S
C510 C512 1.389 . S
C511 H484 0.950 . S
C511 C497 1.377 . S
C511 C510 1.373 . S
C512 C496 1.377 . S
C512 C510 1.389 . S
C512 C513 1.524 . S
C513 C512 1.524 . S
C513 C514 1.397 . S
C513 C518 1.363 . S
C514 H485 0.950 . S
C514 C513 1.397 . S
C514 C515 1.334 . S
C515 H486 0.950 . S
C515 C514 1.334 . S
C515 C516 1.287 . S
C516 C515 1.287 . S
C516 C517 1.524 . S
C516 H519 0.999 . S
C517 H487 0.950 . S
C517 C516 1.524 . S
C517 C518 1.415 . S
C518 H488 0.950 . S
C518 C513 1.363 . S
C518 C517 1.415 . S
H519 C516 0.999 . S
H520 C501 0.913 . S
H521 C539 0.951 . S
H522 C541 0.951 . S
H523 C543 0.950 . S
H524 C544 0.950 . S
H525 C546 0.950 . S
H526 C549 0.950 . S
H527 C550 0.950 . S
H528 C552 0.950 . S
H529 C553 0.950 . S
H530 C554 0.951 . S
H531 C556 0.951 . S
H532 C558 0.950 . S
H533 C559 0.950 . S
H534 C561 0.950 . S
H535 C564 0.950 . S
H536 C565 0.950 . S
H537 C567 0.950 . S
H538 C568 0.950 . S
C539 H521 0.951 . S
C539 C540 1.366 . S
C539 C541 1.388 . S
C540 C539 1.366 . S
C540 C544 1.385 . S
C541 H522 0.951 . S
C541 C539 1.388 . S
C541 C542 1.366 . S
C542 C541 1.366 . S
C542 C543 1.414 . S
C542 C545 1.499 . S
C543 H523 0.950 . S
C543 C542 1.414 . S
C543 C544 1.374 . S
C544 H524 0.950 . S
C544 C540 1.385 . S
C544 C543 1.374 . S
C545 C542 1.499 . S
C545 C546 1.373 . S
C545 C547 1.389 . S
C546 H525 0.950 . S
C546 C545 1.373 . S
C546 C562 1.377 . S
C547 C545 1.389 . S
C547 C548 1.524 . S
C547 C561 1.377 . S
C548 C547 1.524 . S
C548 C549 1.397 . S
C548 C553 1.363 . S
C549 H526 0.950 . S
C549 C548 1.397 . S
C549 C550 1.334 . S
C550 H527 0.950 . S
C550 C549 1.334 . S
C550 C551 1.287 . S
C551 C550 1.287 . S
C551 C552 1.524 . S
C551 H570 0.913 . S
C552 H528 0.950 . S
C552 C551 1.524 . S
C552 C553 1.415 . S
C553 H529 0.950 . S
C553 C548 1.363 . S
C553 C552 1.415 . S
C554 H530 0.951 . S
C554 C555 1.366 . S
C554 C556 1.388 . S
C555 C554 1.366 . S
C555 C559 1.385 . S
C556 H531 0.951 . S
C556 C554 1.388 . S
C556 C557 1.366 . S
C557 C556 1.366 . S
C557 C558 1.414 . S
C557 C560 1.499 . S
C558 H532 0.950 . S
C558 C557 1.414 . S
C558 C559 1.374 . S
C559 H533 0.950 . S
C559 C555 1.385 . S
C559 C558 1.374 . S
C560 C557 1.499 . S
C560 C561 1.373 . S
C560 C562 1.389 . S
C561 H534 0.950 . S
C561 C547 1.377 . S
C561 C560 1.373 . S
C562 C546 1.377 . S
C562 C560 1.389 . S
C562 C563 1.524 . S
C563 C562 1.524 . S
C563 C564 1.397 . S
C563 C568 1.363 . S
C564 H535 0.950 . S
C564 C563 1.397 . S
C564 C565 1.334 . S
C565 H536 0.950 . S
C565 C564 1.334 . S
C565 C566 1.287 . S
C566 C565 1.287 . S
C566 C567 1.524 . S
C566 H569 0.999 . S
C567 H537 0.950 . S
C567 C566 1.524 . S
C567 C568 1.415 . S
C568 H538 0.950 . S
C568 C563 1.363 . S
C568 C567 1.415 . S
H569 C566 0.999 . S
H570 C551 0.913 . S
H571 C589 0.951 . S
H572 C591 0.951 . S
H573 C593 0.950 . S
H574 C594 0.950 . S
H575 C596 0.950 . S
H576 C599 0.950 . S
H577 C600 0.950 . S
H578 C602 0.950 . S
H579 C603 0.950 . S
H580 C604 0.951 . S
H581 C606 0.951 . S
H582 C608 0.950 . S
H583 C609 0.950 . S
H584 C611 0.950 . S
H585 C614 0.950 . S
H586 C615 0.950 . S
H587 C617 0.950 . S
H588 C618 0.950 . S
C589 H571 0.951 . S
C589 C590 1.366 1_554 S
C589 C591 1.388 1_554 S
C590 C589 1.366 1_556 S
C590 C594 1.385 . S
C591 H572 0.951 . S
C591 C589 1.388 1_556 S
C591 C592 1.366 . S
C592 C591 1.366 . S
C592 C593 1.414 . S
C592 C595 1.499 . S
C593 H573 0.950 . S
C593 C592 1.414 . S
C593 C594 1.374 . S
C594 H574 0.950 . S
C594 C590 1.385 . S
C594 C593 1.374 . S
C595 C592 1.499 . S
C595 C596 1.373 . S
C595 C597 1.389 . S
C596 H575 0.950 . S
C596 C595 1.373 . S
C596 C612 1.377 . S
C597 C595 1.389 . S
C597 C598 1.524 . S
C597 C611 1.377 . S
C598 C597 1.524 . S
C598 C599 1.397 . S
C598 C603 1.363 . S
C599 H576 0.950 . S
C599 C598 1.397 . S
C599 C600 1.334 . S
C600 H577 0.950 . S
C600 C599 1.334 . S
C600 C601 1.287 1_556 S
C601 C600 1.287 1_554 S
C601 C602 1.524 . S
C601 H620 0.913 . S
C602 H578 0.950 . S
C602 C601 1.524 . S
C602 C603 1.415 1_554 S
C603 H579 0.950 . S
C603 C598 1.363 . S
C603 C602 1.415 1_556 S
C604 H580 0.951 . S
C604 C605 1.366 . S
C604 C606 1.388 . S
C605 C604 1.366 . S
C605 C609 1.385 . S
C606 H581 0.951 . S
C606 C604 1.388 . S
C606 C607 1.366 . S
C607 C606 1.366 . S
C607 C608 1.414 . S
C607 C610 1.499 . S
C608 H582 0.950 . S
C608 C607 1.414 . S
C608 C609 1.374 . S
C609 H583 0.950 . S
C609 C605 1.385 . S
C609 C608 1.374 . S
C610 C607 1.499 . S
C610 C611 1.373 . S
C610 C612 1.389 . S
C611 H584 0.950 . S
C611 C597 1.377 . S
C611 C610 1.373 . S
C612 C596 1.377 . S
C612 C610 1.389 . S
C612 C613 1.524 . S
C613 C612 1.524 . S
C613 C614 1.397 . S
C613 C618 1.363 . S
C614 H585 0.950 . S
C614 C613 1.397 . S
C614 C615 1.334 . S
C615 H586 0.950 . S
C615 C614 1.334 . S
C615 C616 1.287 . S
C616 C615 1.287 . S
C616 C617 1.524 . S
C616 H619 0.999 . S
C617 H587 0.950 . S
C617 C616 1.524 . S
C617 C618 1.415 . S
C618 H588 0.950 . S
C618 C613 1.363 . S
C618 C617 1.415 . S
H619 C616 0.999 . S
H620 C601 0.913 . S
H621 C639 0.951 . S
H622 C641 0.951 . S
H623 C643 0.950 . S
H624 C644 0.950 . S
H625 C646 0.963 . S
H626 C649 0.950 . S
H627 C650 0.950 . S
H628 C652 0.950 . S
H629 C653 0.950 . S
H630 C654 0.951 . S
H631 C656 0.951 . S
H632 C658 0.950 . S
H633 C659 0.950 . S
H634 C661 0.950 . S
H635 C664 0.950 . S
H636 C665 0.950 . S
H637 C667 0.950 . S
H638 C668 0.950 . S
C639 H621 0.951 . S
C639 C640 1.366 . S
C639 C641 1.388 . S
C640 C639 1.366 . S
C640 C644 1.385 . S
C641 H622 0.951 . S
C641 C639 1.388 . S
C641 C642 1.366 . S
C642 C641 1.366 . S
C642 C643 1.414 . S
C642 C645 1.499 1_554 S
C643 H623 0.950 . S
C643 C642 1.414 . S
C643 C644 1.374 . S
C644 H624 0.950 . S
C644 C640 1.385 . S
C644 C643 1.374 . S
C645 C642 1.499 1_556 S
C645 C646 1.373 . S
C645 C647 1.389 . S
C646 H625 0.963 . S
C646 C645 1.373 . S
C646 C662 1.377 . S
C647 C645 1.389 . S
C647 C648 1.524 . S
C647 C661 1.377 . S
C648 C647 1.524 . S
C648 C649 1.397 . S
C648 C653 1.363 . S
C649 H626 0.950 . S
C649 C648 1.397 . S
C649 C650 1.334 . S
C650 H627 0.950 . S
C650 C649 1.334 . S
C650 C651 1.287 . S
C651 C650 1.287 . S
C651 C652 1.524 . S
C651 H670 0.913 . S
C652 H628 0.950 . S
C652 C651 1.524 . S
C652 C653 1.415 . S
C653 H629 0.950 . S
C653 C648 1.363 . S
C653 C652 1.415 . S
C654 H630 0.951 . S
C654 C655 1.366 . S
C654 C656 1.388 . S
C655 C654 1.366 . S
C655 C659 1.385 . S
C656 H631 0.951 . S
C656 C654 1.388 . S
C656 C657 1.366 . S
C657 C656 1.366 . S
C657 C658 1.414 . S
C657 C660 1.499 . S
C658 H632 0.950 . S
C658 C657 1.414 . S
C658 C659 1.374 . S
C659 H633 0.950 . S
C659 C655 1.385 . S
C659 C658 1.374 . S
C660 C657 1.499 . S
C660 C661 1.373 . S
C660 C662 1.389 . S
C661 H634 0.950 . S
C661 C647 1.377 . S
C661 C660 1.373 . S
C662 C646 1.377 . S
C662 C660 1.389 . S
C662 C663 1.524 . S
C663 C662 1.524 . S
C663 C664 1.397 . S
C663 C668 1.363 . S
C664 H635 0.950 . S
C664 C663 1.397 . S
C664 C665 1.334 . S
C665 H636 0.950 . S
C665 C664 1.334 . S
C665 C666 1.287 . S
C666 C665 1.287 . S
C666 C667 1.524 . S
C666 H669 0.999 . S
C667 H637 0.950 . S
C667 C666 1.524 . S
C667 C668 1.415 . S
C668 H638 0.950 . S
C668 C663 1.363 . S
C668 C667 1.415 . S
H669 C666 0.999 . S
H670 C651 0.913 . S
H671 C689 0.951 . S
H672 C691 0.951 . S
H673 C693 0.950 . S
H674 C694 0.950 . S
H675 C696 0.950 . S
H676 C699 0.950 . S
H677 C700 0.950 . S
H678 C702 0.950 . S
H679 C703 0.950 . S
H680 C704 0.951 . S
H681 C706 0.951 . S
H682 C708 0.950 . S
H683 C709 0.950 . S
H684 C711 0.950 . S
H685 C714 0.950 . S
H686 C715 0.950 . S
H687 C717 0.950 . S
H688 C718 0.950 . S
C689 H671 0.951 . S
C689 C690 1.366 . S
C689 C691 1.388 1_554 S
C690 C689 1.366 . S
C690 C694 1.385 . S
C691 H672 0.951 . S
C691 C689 1.388 1_556 S
C691 C692 1.366 . S
C692 C691 1.366 . S
C692 C693 1.414 . S
C692 C695 1.499 . S
C693 H673 0.950 . S
C693 C692 1.414 . S
C693 C694 1.374 1_556 S
C694 H674 0.950 . S
C694 C690 1.385 . S
C694 C693 1.374 1_554 S
C695 C692 1.499 . S
C695 C696 1.373 . S
C695 C697 1.389 . S
C696 H675 0.950 . S
C696 C695 1.373 . S
C696 C712 1.377 . S
C697 C695 1.389 . S
C697 C698 1.524 . S
C697 C711 1.377 . S
C698 C697 1.524 . S
C698 C699 1.397 1_556 S
C698 C703 1.363 . S
C699 H676 0.950 . S
C699 C698 1.397 1_554 S
C699 C700 1.334 . S
C700 H677 0.950 . S
C700 C699 1.334 . S
C700 C701 1.287 . S
C701 C700 1.287 . S
C701 C702 1.524 . S
C701 H720 0.913 . S
C702 H678 0.950 . S
C702 C701 1.524 . S
C702 C703 1.415 1_554 S
C703 H679 0.950 . S
C703 C698 1.363 . S
C703 C702 1.415 1_556 S
C704 H680 0.951 . S
C704 C705 1.366 . S
C704 C706 1.388 . S
C705 C704 1.366 . S
C705 C709 1.385 . S
C706 H681 0.951 . S
C706 C704 1.388 . S
C706 C707 1.366 . S
C707 C706 1.366 . S
C707 C708 1.414 . S
C707 C710 1.499 . S
C708 H682 0.950 . S
C708 C707 1.414 . S
C708 C709 1.374 . S
C709 H683 0.950 . S
C709 C705 1.385 . S
C709 C708 1.374 . S
C710 C707 1.499 . S
C710 C711 1.373 . S
C710 C712 1.389 . S
C711 H684 0.950 . S
C711 C697 1.377 . S
C711 C710 1.373 . S
C712 C696 1.377 . S
C712 C710 1.389 . S
C712 C713 1.524 . S
C713 C712 1.524 . S
C713 C714 1.397 . S
C713 C718 1.363 . S
C714 H685 0.950 . S
C714 C713 1.397 . S
C714 C715 1.334 . S
C715 H686 0.950 . S
C715 C714 1.334 . S
C715 C716 1.287 . S
C716 C715 1.287 . S
C716 C717 1.524 . S
C716 H719 0.999 . S
C717 H687 0.950 . S
C717 C716 1.524 . S
C717 C718 1.415 . S
C718 H688 0.950 . S
C718 C713 1.363 . S
C718 C717 1.415 . S
H719 C716 0.999 . S
H720 C701 0.913 . S
H721 C739 0.951 . S
H722 C741 0.951 . S
H723 C743 0.950 . S
H724 C744 0.950 . S
H725 C746 0.950 . S
H726 C749 0.950 . S
H727 C750 0.950 . S
H728 C752 0.950 . S
H729 C753 0.950 . S
H730 C754 0.951 . S
H731 C756 0.951 . S
H732 C758 0.950 . S
H733 C759 0.950 . S
H734 C761 0.950 . S
H735 C764 0.950 . S
H736 C765 0.950 . S
H737 C767 0.950 . S
H738 C768 0.950 . S
C739 H721 0.951 . S
C739 C740 1.366 1_556 S
C739 C741 1.388 . S
C740 C739 1.366 1_554 S
C740 C744 1.385 . S
C741 H722 0.951 . S
C741 C739 1.388 . S
C741 C742 1.366 . S
C742 C741 1.366 . S
C742 C743 1.414 1_556 S
C742 C745 1.499 . S
C743 H723 0.950 . S
C743 C742 1.414 1_554 S
C743 C744 1.374 . S
C744 H724 0.950 . S
C744 C740 1.385 . S
C744 C743 1.374 . S
C745 C742 1.499 . S
C745 C746 1.373 . S
C745 C747 1.389 . S
C746 H725 0.950 . S
C746 C745 1.373 . S
C746 C762 1.377 . S
C747 C745 1.389 . S
C747 C748 1.524 . S
C747 C761 1.377 . S
C748 C747 1.524 . S
C748 C749 1.397 1_556 S
C748 C753 1.363 . S
C749 H726 0.950 . S
C749 C748 1.397 1_554 S
C749 C750 1.334 . S
C750 H727 0.950 . S
C750 C749 1.334 . S
C750 C751 1.287 1_554 S
C751 C750 1.287 1_556 S
C751 C752 1.524 . S
C751 H770 0.913 1_556 S
C752 H728 0.950 . S
C752 C751 1.524 . S
C752 C753 1.415 . S
C753 H729 0.950 . S
C753 C748 1.363 . S
C753 C752 1.415 . S
C754 H730 0.951 . S
C754 C755 1.366 . S
C754 C756 1.388 . S
C755 C754 1.366 . S
C755 C759 1.385 . S
C756 H731 0.951 . S
C756 C754 1.388 . S
C756 C757 1.366 . S
C757 C756 1.366 . S
C757 C758 1.414 . S
C757 C760 1.499 . S
C758 H732 0.950 . S
C758 C757 1.414 . S
C758 C759 1.374 . S
C759 H733 0.950 . S
C759 C755 1.385 . S
C759 C758 1.374 . S
C760 C757 1.499 . S
C760 C761 1.373 . S
C760 C762 1.389 . S
C761 H734 0.950 . S
C761 C747 1.377 . S
C761 C760 1.373 . S
C762 C746 1.377 . S
C762 C760 1.389 . S
C762 C763 1.524 . S
C763 C762 1.524 . S
C763 C764 1.397 . S
C763 C768 1.363 . S
C764 H735 0.950 . S
C764 C763 1.397 . S
C764 C765 1.334 . S
C765 H736 0.950 . S
C765 C764 1.334 . S
C765 C766 1.287 . S
C766 C765 1.287 . S
C766 C767 1.524 . S
C766 H769 0.999 . S
C767 H737 0.950 . S
C767 C766 1.524 . S
C767 C768 1.415 . S
C768 H738 0.950 . S
C768 C763 1.363 . S
C768 C767 1.415 . S
H769 C766 0.999 . S
H770 C751 0.913 1_554 S
H771 C789 0.951 1_554 S
H772 C791 0.951 . S
H773 C793 0.950 . S
H774 C794 0.950 . S
H775 C796 0.950 . S
H776 C799 0.950 . S
H777 C800 0.950 . S
H778 C802 0.950 . S
H779 C803 0.950 . S
H780 C804 0.951 . S
H781 C806 0.951 . S
H782 C808 0.950 . S
H783 C809 0.950 . S
H784 C811 0.950 . S
H785 C814 0.950 . S
H786 C815 0.950 . S
H787 C817 0.950 . S
H788 C818 0.950 . S
C789 H771 0.951 1_556 S
C789 C790 1.366 . S
C789 C791 1.388 . S
C790 C789 1.366 . S
C790 C794 1.385 . S
C791 H772 0.951 . S
C791 C789 1.388 . S
C791 C792 1.366 . S
C792 C791 1.366 . S
C792 C793 1.414 . S
C792 C795 1.499 . S
C793 H773 0.950 . S
C793 C792 1.414 . S
C793 C794 1.374 . S
C794 H774 0.950 . S
C794 C790 1.385 . S
C794 C793 1.374 . S
C795 C792 1.499 . S
C795 C796 1.373 . S
C795 C797 1.389 . S
C796 H775 0.950 . S
C796 C795 1.373 . S
C796 C812 1.377 . S
C797 C795 1.389 . S
C797 C798 1.524 . S
C797 C811 1.377 . S
C798 C797 1.524 . S
C798 C799 1.397 . S
C798 C803 1.363 . S
C799 H776 0.950 . S
C799 C798 1.397 . S
C799 C800 1.334 . S
C800 H777 0.950 . S
C800 C799 1.334 . S
C800 C801 1.287 . S
C801 C800 1.287 . S
C801 C802 1.524 . S
C801 H820 0.913 . S
C802 H778 0.950 . S
C802 C801 1.524 . S
C802 C803 1.415 . S
C803 H779 0.950 . S
C803 C798 1.363 . S
C803 C802 1.415 . S
C804 H780 0.951 . S
C804 C805 1.366 . S
C804 C806 1.388 . S
C805 C804 1.366 . S
C805 C809 1.385 . S
C806 H781 0.951 . S
C806 C804 1.388 . S
C806 C807 1.366 . S
C807 C806 1.366 . S
C807 C808 1.414 . S
C807 C810 1.499 . S
C808 H782 0.950 . S
C808 C807 1.414 . S
C808 C809 1.374 . S
C809 H783 0.950 . S
C809 C805 1.385 . S
C809 C808 1.374 . S
C810 C807 1.499 . S
C810 C811 1.373 . S
C810 C812 1.389 . S
C811 H784 0.950 . S
C811 C797 1.377 . S
C811 C810 1.373 . S
C812 C796 1.377 . S
C812 C810 1.389 . S
C812 C813 1.524 . S
C813 C812 1.524 . S
C813 C814 1.397 . S
C813 C818 1.363 . S
C814 H785 0.950 . S
C814 C813 1.397 . S
C814 C815 1.334 . S
C815 H786 0.950 . S
C815 C814 1.334 . S
C815 C816 1.287 . S
C816 C815 1.287 . S
C816 C817 1.524 . S
C816 H819 0.999 . S
C817 H787 0.950 . S
C817 C816 1.524 . S
C817 C818 1.415 . S
C818 H788 0.950 . S
C818 C813 1.363 . S
C818 C817 1.415 . S
H819 C816 0.999 . S
H820 C801 0.913 . S
H821 C839 0.951 . S
H822 C841 0.951 . S
H823 C843 0.950 . S
H824 C844 0.950 . S
H825 C846 0.950 . S
H826 C849 0.950 . S
H827 C850 0.950 . S
H828 C852 0.949 1_554 S
H829 C853 0.950 . S
H830 C854 0.951 . S
H831 C856 0.951 . S
H832 C858 0.950 . S
H833 C859 0.950 . S
H834 C861 0.950 . S
H835 C864 0.950 . S
H836 C865 0.950 . S
H837 C867 0.950 . S
H838 C868 0.950 . S
C839 H821 0.951 . S
C839 C840 1.366 . S
C839 C841 1.388 . S
C840 C839 1.366 . S
C840 C844 1.385 . S
C841 H822 0.951 . S
C841 C839 1.388 . S
C841 C842 1.366 . S
C842 C841 1.366 . S
C842 C843 1.414 . S
C842 C845 1.499 . S
C843 H823 0.950 . S
C843 C842 1.414 . S
C843 C844 1.374 . S
C844 H824 0.950 . S
C844 C840 1.385 . S
C844 C843 1.374 . S
C845 C842 1.499 . S
C845 C846 1.373 . S
C845 C847 1.389 . S
C846 H825 0.950 . S
C846 C845 1.373 . S
C846 C862 1.377 . S
C847 C845 1.389 . S
C847 C848 1.524 . S
C847 C861 1.377 . S
C848 C847 1.524 . S
C848 C849 1.397 1_556 S
C848 C853 1.363 . S
C849 H826 0.950 . S
C849 C848 1.397 1_554 S
C849 C850 1.334 . S
C850 H827 0.950 . S
C850 C849 1.334 . S
C850 C851 1.287 . S
C851 C850 1.287 . S
C851 C852 1.506 1_554 S
C851 H870 0.913 . S
C852 H828 0.949 1_556 S
C852 C851 1.506 1_556 S
C852 C853 1.433 . S
C853 H829 0.950 . S
C853 C848 1.363 . S
C853 C852 1.433 . S
C854 H830 0.951 . S
C854 C855 1.366 . S
C854 C856 1.388 . S
C855 C854 1.366 . S
C855 C859 1.385 . S
C856 H831 0.951 . S
C856 C854 1.388 . S
C856 C857 1.366 . S
C857 C856 1.366 . S
C857 C858 1.414 . S
C857 C860 1.499 . S
C858 H832 0.950 . S
C858 C857 1.414 . S
C858 C859 1.374 . S
C859 H833 0.950 . S
C859 C855 1.385 . S
C859 C858 1.374 . S
C860 C857 1.499 . S
C860 C861 1.373 . S
C860 C862 1.389 . S
C861 H834 0.950 . S
C861 C847 1.377 . S
C861 C860 1.373 . S
C862 C846 1.377 . S
C862 C860 1.389 . S
C862 C863 1.524 . S
C863 C862 1.524 . S
C863 C864 1.397 . S
C863 C868 1.363 . S
C864 H835 0.950 . S
C864 C863 1.397 . S
C864 C865 1.334 . S
C865 H836 0.950 . S
C865 C864 1.334 . S
C865 C866 1.287 . S
C866 C865 1.287 . S
C866 C867 1.524 . S
C866 H869 0.999 . S
C867 H837 0.950 . S
C867 C866 1.524 . S
C867 C868 1.415 . S
C868 H838 0.950 . S
C868 C863 1.363 . S
C868 C867 1.415 . S
H869 C866 0.999 . S
H870 C851 0.913 . S
H871 C889 0.951 . S
H872 C891 0.951 . S
H873 C893 0.950 1_556 S
H874 C894 0.950 . S
H875 C896 0.950 . S
H876 C899 0.950 . S
H877 C900 0.950 . S
H878 C902 0.950 . S
H879 C903 0.950 . S
H880 C904 0.951 . S
H881 C906 0.951 . S
H882 C908 0.950 . S
H883 C909 0.950 . S
H884 C911 0.950 . S
H885 C914 0.950 . S
H886 C915 0.950 . S
H887 C917 0.950 . S
H888 C918 0.950 . S
C889 H871 0.951 . S
C889 C890 1.366 . S
C889 C891 1.388 . S
C890 C889 1.366 . S
C890 C894 1.385 . S
C891 H872 0.951 . S
C891 C889 1.388 . S
C891 C892 1.366 . S
C892 C891 1.366 . S
C892 C893 1.414 . S
C892 C895 1.499 1_554 S
C893 H873 0.950 1_554 S
C893 C892 1.414 . S
C893 C894 1.374 . S
C894 H874 0.950 . S
C894 C890 1.385 . S
C894 C893 1.374 . S
C895 C892 1.499 1_556 S
C895 C896 1.373 . S
C895 C897 1.389 . S
C896 H875 0.950 . S
C896 C895 1.373 . S
C896 C912 1.377 . S
C897 C895 1.389 . S
C897 C898 1.524 . S
C897 C911 1.377 . S
C898 C897 1.524 . S
C898 C899 1.397 . S
C898 C903 1.363 . S
C899 H876 0.950 . S
C899 C898 1.397 . S
C899 C900 1.334 . S
C900 H877 0.950 . S
C900 C899 1.334 . S
C900 C901 1.287 . S
C901 C900 1.287 . S
C901 C902 1.524 . S
C901 H920 0.913 . S
C902 H878 0.950 . S
C902 C901 1.524 . S
C902 C903 1.415 . S
C903 H879 0.950 . S
C903 C898 1.363 . S
C903 C902 1.415 . S
C904 H880 0.951 . S
C904 C905 1.366 . S
C904 C906 1.388 . S
C905 C904 1.366 . S
C905 C909 1.385 . S
C906 H881 0.951 . S
C906 C904 1.388 . S
C906 C907 1.366 . S
C907 C906 1.366 . S
C907 C908 1.414 . S
C907 C910 1.499 . S
C908 H882 0.950 . S
C908 C907 1.414 . S
C908 C909 1.374 . S
C909 H883 0.950 . S
C909 C905 1.385 . S
C909 C908 1.374 . S
C910 C907 1.499 . S
C910 C911 1.373 . S
C910 C912 1.389 . S
C911 H884 0.950 . S
C911 C897 1.377 . S
C911 C910 1.373 . S
C912 C896 1.377 . S
C912 C910 1.389 . S
C912 C913 1.524 . S
C913 C912 1.524 . S
C913 C914 1.397 . S
C913 C918 1.363 . S
C914 H885 0.950 . S
C914 C913 1.397 . S
C914 C915 1.334 . S
C915 H886 0.950 . S
C915 C914 1.334 . S
C915 C916 1.287 . S
C916 C915 1.287 . S
C916 C917 1.524 . S
C916 H919 0.999 . S
C917 H887 0.950 . S
C917 C916 1.524 . S
C917 C918 1.415 . S
C918 H888 0.950 . S
C918 C913 1.363 . S
C918 C917 1.415 . S
H919 C916 0.999 . S
H920 C901 0.913 . S
H921 C939 0.951 . S
H922 C941 0.951 . S
H923 C943 0.950 . S
H924 C944 0.950 1_556 S
H925 C946 0.950 . S
H926 C949 0.950 . S
H927 C950 0.950 . S
H928 C952 0.950 . S
H929 C953 0.950 . S
H930 C954 0.951 . S
H931 C956 0.951 . S
H932 C958 0.950 . S
H933 C959 0.950 . S
H934 C961 0.950 . S
H935 C964 0.950 . S
H936 C965 0.950 . S
H937 C967 0.950 . S
H938 C968 0.950 . S
C939 H921 0.951 . S
C939 C940 1.366 . S
C939 C941 1.388 . S
C940 C939 1.366 . S
C940 C944 1.385 . S
C941 H922 0.951 . S
C941 C939 1.388 . S
C941 C942 1.366 1_554 S
C942 C941 1.366 1_556 S
C942 C943 1.414 . S
C942 C945 1.499 . S
C943 H923 0.950 . S
C943 C942 1.414 . S
C943 C944 1.374 1_556 S
C944 H924 0.950 1_554 S
C944 C940 1.385 . S
C944 C943 1.374 1_554 S
C945 C942 1.499 . S
C945 C946 1.373 . S
C945 C947 1.389 . S
C946 H925 0.950 . S
C946 C945 1.373 . S
C946 C962 1.377 . S
C947 C945 1.389 . S
C947 C948 1.524 1_556 S
C947 C961 1.377 . S
C948 C947 1.524 1_554 S
C948 C949 1.397 . S
C948 C953 1.363 . S
C949 H926 0.950 . S
C949 C948 1.397 . S
C949 C950 1.334 . S
C950 H927 0.950 . S
C950 C949 1.334 . S
C950 C951 1.287 . S
C951 C950 1.287 . S
C951 C952 1.524 . S
C951 H970 0.913 . S
C952 H928 0.950 . S
C952 C951 1.524 . S
C952 C953 1.415 . S
C953 H929 0.950 . S
C953 C948 1.363 . S
C953 C952 1.415 . S
C954 H930 0.951 . S
C954 C955 1.366 . S
C954 C956 1.388 . S
C955 C954 1.366 . S
C955 C959 1.385 . S
C956 H931 0.951 . S
C956 C954 1.388 . S
C956 C957 1.366 . S
C957 C956 1.366 . S
C957 C958 1.414 . S
C957 C960 1.499 . S
C958 H932 0.950 . S
C958 C957 1.414 . S
C958 C959 1.374 . S
C959 H933 0.950 . S
C959 C955 1.385 . S
C959 C958 1.374 . S
C960 C957 1.499 . S
C960 C961 1.373 . S
C960 C962 1.389 . S
C961 H934 0.950 . S
C961 C947 1.377 . S
C961 C960 1.373 . S
C962 C946 1.377 . S
C962 C960 1.389 . S
C962 C963 1.524 . S
C963 C962 1.524 . S
C963 C964 1.397 . S
C963 C968 1.363 . S
C964 H935 0.950 . S
C964 C963 1.397 . S
C964 C965 1.334 . S
C965 H936 0.950 . S
C965 C964 1.334 . S
C965 C966 1.287 . S
C966 C965 1.287 . S
C966 C967 1.524 . S
C966 H969 0.999 . S
C967 H937 0.950 . S
C967 C966 1.524 . S
C967 C968 1.415 . S
C968 H938 0.950 . S
C968 C963 1.363 . S
C968 C967 1.415 . S
H969 C966 0.999 . S
H970 C951 0.913 . S
H971 C989 0.951 . S
H972 C991 0.951 . S
H973 C993 0.950 . S
H974 C994 0.950 . S
H975 C996 0.950 . S
H976 C999 0.950 . S
H977 C1000 0.950 . S
H978 C1002 0.950 . S
H979 C1003 0.950 . S
H980 C1004 0.951 . S
H981 C1006 0.951 . S
H982 C1008 0.950 . S
H983 C1009 0.950 . S
H984 C1011 0.950 . S
H985 C1014 0.950 . S
H986 C1015 0.950 . S
H987 C1017 0.950 . S
H988 C1018 0.950 . S
C989 H971 0.951 . S
C989 C990 1.366 . S
C989 C991 1.388 1_554 S
C990 C989 1.366 . S
C990 C994 1.385 1_554 S
C991 H972 0.951 . S
C991 C989 1.388 1_556 S
C991 C992 1.366 . S
C992 C991 1.366 . S
C992 C993 1.414 . S
C992 C995 1.499 . S
C993 H973 0.950 . S
C993 C992 1.414 . S
C993 C994 1.374 . S
C994 H974 0.950 . S
C994 C990 1.385 1_556 S
C994 C993 1.374 . S
C995 C992 1.499 . S
C995 C996 1.373 . S
C995 C997 1.389 . S
C996 H975 0.950 . S
C996 C995 1.373 . S
C996 C1012 1.377 . S
C997 C995 1.389 . S
C997 C998 1.524 . S
C997 C1011 1.377 . S
C998 C997 1.524 . S
C998 C999 1.397 1_556 S
C998 C1003 1.363 . S
C999 H976 0.950 . S
C999 C998 1.397 1_554 S
C999 C1000 1.334 . S
C1000 H977 0.950 . S
C1000 C999 1.334 . S
C1000 C1001 1.287 . S
C1001 C1000 1.287 . S
C1001 C1002 1.524 . S
C1001 H1020 0.913 . S
C1002 H978 0.950 . S
C1002 C1001 1.524 . S
C1002 C1003 1.415 1_554 S
C1003 H979 0.950 . S
C1003 C998 1.363 . S
C1003 C1002 1.415 1_556 S
C1004 H980 0.951 . S
C1004 C1005 1.366 . S
C1004 C1006 1.388 . S
C1005 C1004 1.366 . S
C1005 C1009 1.385 . S
C1006 H981 0.951 . S
C1006 C1004 1.388 . S
C1006 C1007 1.366 . S
C1007 C1006 1.366 . S
C1007 C1008 1.414 . S
C1007 C1010 1.499 . S
C1008 H982 0.950 . S
C1008 C1007 1.414 . S
C1008 C1009 1.374 . S
C1009 H983 0.950 . S
C1009 C1005 1.385 . S
C1009 C1008 1.374 . S
C1010 C1007 1.499 . S
C1010 C1011 1.373 . S
C1010 C1012 1.389 . S
C1011 H984 0.950 . S
C1011 C997 1.377 . S
C1011 C1010 1.373 . S
C1012 C996 1.377 . S
C1012 C1010 1.389 . S
C1012 C1013 1.524 . S
C1013 C1012 1.524 . S
C1013 C1014 1.397 . S
C1013 C1018 1.363 . S
C1014 H985 0.950 . S
C1014 C1013 1.397 . S
C1014 C1015 1.334 . S
C1015 H986 0.950 . S
C1015 C1014 1.334 . S
C1015 C1016 1.287 . S
C1016 C1015 1.287 . S
C1016 C1017 1.524 . S
C1016 H1019 0.999 . S
C1017 H987 0.950 . S
C1017 C1016 1.524 . S
C1017 C1018 1.415 . S
C1018 H988 0.950 . S
C1018 C1013 1.363 . S
C1018 C1017 1.415 . S
H1019 C1016 0.999 . S
H1020 C1001 0.913 . S
H1021 C1039 0.951 . S
H1022 C1041 0.951 . S
H1023 C1043 0.950 . S
H1024 C1044 0.950 . S
H1025 C1046 0.950 . S
H1026 C1049 0.950 . S
H1027 C1050 0.950 . S
H1028 C1052 0.950 1_554 S
H1029 C1053 0.950 . S
H1030 C1054 0.951 . S
H1031 C1056 0.951 . S
H1032 C1058 0.950 . S
H1033 C1059 0.950 . S
H1034 C1061 0.950 . S
H1035 C1064 0.950 . S
H1036 C1065 0.950 . S
H1037 C1067 0.950 . S
H1038 C1068 0.950 . S
C1039 H1021 0.951 . S
C1039 C1040 1.366 . S
C1039 C1041 1.388 . S
C1040 C1039 1.366 . S
C1040 C1044 1.385 . S
C1041 H1022 0.951 . S
C1041 C1039 1.388 . S
C1041 C1042 1.366 . S
C1042 C1041 1.366 . S
C1042 C1043 1.414 . S
C1042 C1045 1.499 . S
C1043 H1023 0.950 . S
C1043 C1042 1.414 . S
C1043 C1044 1.374 . S
C1044 H1024 0.950 . S
C1044 C1040 1.385 . S
C1044 C1043 1.374 . S
C1045 C1042 1.499 . S
C1045 C1046 1.373 . S
C1045 C1047 1.389 . S
C1046 H1025 0.950 . S
C1046 C1045 1.373 . S
C1046 C1062 1.377 . S
C1047 C1045 1.389 . S
C1047 C1048 1.524 . S
C1047 C1061 1.377 . S
C1048 C1047 1.524 . S
C1048 C1049 1.397 . S
C1048 C1053 1.363 . S
C1049 H1026 0.950 . S
C1049 C1048 1.397 . S
C1049 C1050 1.334 . S
C1050 H1027 0.950 . S
C1050 C1049 1.334 . S
C1050 C1051 1.287 . S
C1051 C1050 1.287 . S
C1051 C1052 1.524 . S
C1051 H1070 0.913 1_556 S
C1052 H1028 0.950 1_556 S
C1052 C1051 1.524 . S
C1052 C1053 1.415 . S
C1053 H1029 0.950 . S
C1053 C1048 1.363 . S
C1053 C1052 1.415 . S
C1054 H1030 0.951 . S
C1054 C1055 1.366 . S
C1054 C1056 1.388 . S
C1055 C1054 1.366 . S
C1055 C1059 1.385 . S
C1056 H1031 0.951 . S
C1056 C1054 1.388 . S
C1056 C1057 1.366 . S
C1057 C1056 1.366 . S
C1057 C1058 1.414 . S
C1057 C1060 1.499 . S
C1058 H1032 0.950 . S
C1058 C1057 1.414 . S
C1058 C1059 1.374 . S
C1059 H1033 0.950 . S
C1059 C1055 1.385 . S
C1059 C1058 1.374 . S
C1060 C1057 1.499 . S
C1060 C1061 1.373 . S
C1060 C1062 1.389 . S
C1061 H1034 0.950 . S
C1061 C1047 1.377 . S
C1061 C1060 1.373 . S
C1062 C1046 1.377 . S
C1062 C1060 1.389 . S
C1062 C1063 1.524 . S
C1063 C1062 1.524 . S
C1063 C1064 1.397 . S
C1063 C1068 1.363 . S
C1064 H1035 0.950 . S
C1064 C1063 1.397 . S
C1064 C1065 1.334 . S
C1065 H1036 0.950 . S
C1065 C1064 1.334 . S
C1065 C1066 1.287 . S
C1066 C1065 1.287 . S
C1066 C1067 1.524 . S
C1066 H1069 0.999 . S
C1067 H1037 0.950 . S
C1067 C1066 1.524 . S
C1067 C1068 1.415 . S
C1068 H1038 0.950 . S
C1068 C1063 1.363 . S
C1068 C1067 1.415 . S
H1069 C1066 0.999 . S
H1070 C1051 0.913 1_554 S
H1071 C1089 0.951 . S
H1072 C1091 0.951 . S
H1073 C1093 0.950 . S
H1074 C1094 0.950 . S
H1075 C1096 0.950 . S
H1076 C1099 0.950 . S
H1077 C1100 0.950 . S
H1078 C1102 0.950 . S
H1079 C1103 0.950 . S
H1080 C1104 0.951 . S
H1081 C1106 0.951 . S
H1082 C1108 0.950 . S
H1083 C1109 0.950 . S
H1084 C1111 0.950 . S
H1085 C1114 0.950 . S
H1086 C1115 0.950 . S
H1087 C1117 0.950 . S
H1088 C1118 0.950 . S
C1089 H1071 0.951 . S
C1089 C1090 1.366 . S
C1089 C1091 1.388 . S
C1090 C1089 1.366 . S
C1090 C1094 1.385 . S
C1091 H1072 0.951 . S
C1091 C1089 1.388 . S
C1091 C1092 1.366 . S
C1092 C1091 1.366 . S
C1092 C1093 1.414 . S
C1092 C1095 1.499 . S
C1093 H1073 0.950 . S
C1093 C1092 1.414 . S
C1093 C1094 1.374 . S
C1094 H1074 0.950 . S
C1094 C1090 1.385 . S
C1094 C1093 1.374 . S
C1095 C1092 1.499 . S
C1095 C1096 1.373 . S
C1095 C1097 1.389 . S
C1096 H1075 0.950 . S
C1096 C1095 1.373 . S
C1096 C1112 1.377 . S
C1097 C1095 1.389 . S
C1097 C1098 1.524 . S
C1097 C1111 1.377 . S
C1098 C1097 1.524 . S
C1098 C1099 1.397 . S
C1098 C1103 1.363 . S
C1099 H1076 0.950 . S
C1099 C1098 1.397 . S
C1099 C1100 1.334 . S
C1100 H1077 0.950 . S
C1100 C1099 1.334 . S
C1100 C1101 1.287 . S
C1101 C1100 1.287 . S
C1101 C1102 1.524 . S
C1101 H1120 0.913 . S
C1102 H1078 0.950 . S
C1102 C1101 1.524 . S
C1102 C1103 1.415 . S
C1103 H1079 0.950 . S
C1103 C1098 1.363 . S
C1103 C1102 1.415 . S
C1104 H1080 0.951 . S
C1104 C1105 1.366 . S
C1104 C1106 1.388 . S
C1105 C1104 1.366 . S
C1105 C1109 1.385 . S
C1106 H1081 0.951 . S
C1106 C1104 1.388 . S
C1106 C1107 1.366 . S
C1107 C1106 1.366 . S
C1107 C1108 1.414 . S
C1107 C1110 1.499 . S
C1108 H1082 0.950 . S
C1108 C1107 1.414 . S
C1108 C1109 1.374 . S
C1109 H1083 0.950 . S
C1109 C1105 1.385 . S
C1109 C1108 1.374 . S
C1110 C1107 1.499 . S
C1110 C1111 1.373 . S
C1110 C1112 1.389 . S
C1111 H1084 0.950 . S
C1111 C1097 1.377 . S
C1111 C1110 1.373 . S
C1112 C1096 1.377 . S
C1112 C1110 1.389 . S
C1112 C1113 1.524 . S
C1113 C1112 1.524 . S
C1113 C1114 1.397 . S
C1113 C1118 1.363 . S
C1114 H1085 0.950 . S
C1114 C1113 1.397 . S
C1114 C1115 1.334 . S
C1115 H1086 0.950 . S
C1115 C1114 1.334 . S
C1115 C1116 1.287 . S
C1116 C1115 1.287 . S
C1116 C1117 1.524 . S
C1116 H1119 0.999 . S
C1117 H1087 0.950 . S
C1117 C1116 1.524 . S
C1117 C1118 1.415 . S
C1118 H1088 0.950 . S
C1118 C1113 1.363 . S
C1118 C1117 1.415 . S
H1119 C1116 0.999 . S
H1120 C1101 0.913 . S
H1121 C1139 0.951 . S
H1122 C1141 0.951 . S
H1123 C1143 0.950 . S
H1124 C1144 0.950 . S
H1125 C1146 0.950 . S
H1126 C1149 0.950 . S
H1127 C1150 0.950 . S
H1128 C1152 0.950 . S
H1129 C1153 0.950 . S
H1130 C1154 0.951 . S
H1131 C1156 0.951 . S
H1132 C1158 0.950 . S
H1133 C1159 0.950 . S
H1134 C1161 0.950 . S
H1135 C1164 0.950 . S
H1136 C1165 0.950 . S
H1137 C1167 0.950 . S
H1138 C1168 0.950 . S
C1139 H1121 0.951 . S
C1139 C1140 1.366 . S
C1139 C1141 1.388 . S
C1140 C1139 1.366 . S
C1140 C1144 1.385 . S
C1141 H1122 0.951 . S
C1141 C1139 1.388 . S
C1141 C1142 1.366 . S
C1142 C1141 1.366 . S
C1142 C1143 1.414 . S
C1142 C1145 1.499 . S
C1143 H1123 0.950 . S
C1143 C1142 1.414 . S
C1143 C1144 1.374 . S
C1144 H1124 0.950 . S
C1144 C1140 1.385 . S
C1144 C1143 1.374 . S
C1145 C1142 1.499 . S
C1145 C1146 1.373 . S
C1145 C1147 1.389 . S
C1146 H1125 0.950 . S
C1146 C1145 1.373 . S
C1146 C1162 1.377 . S
C1147 C1145 1.389 . S
C1147 C1148 1.524 . S
C1147 C1161 1.377 . S
C1148 C1147 1.524 . S
C1148 C1149 1.397 . S
C1148 C1153 1.363 . S
C1149 H1126 0.950 . S
C1149 C1148 1.397 . S
C1149 C1150 1.334 . S
C1150 H1127 0.950 . S
C1150 C1149 1.334 . S
C1150 C1151 1.287 . S
C1151 C1150 1.287 . S
C1151 C1152 1.524 . S
C1151 H1170 0.913 . S
C1152 H1128 0.950 . S
C1152 C1151 1.524 . S
C1152 C1153 1.415 . S
C1153 H1129 0.950 . S
C1153 C1148 1.363 . S
C1153 C1152 1.415 . S
C1154 H1130 0.951 . S
C1154 C1155 1.366 . S
C1154 C1156 1.388 . S
C1155 C1154 1.366 . S
C1155 C1159 1.385 . S
C1156 H1131 0.951 . S
C1156 C1154 1.388 . S
C1156 C1157 1.366 . S
C1157 C1156 1.366 . S
C1157 C1158 1.414 . S
C1157 C1160 1.499 . S
C1158 H1132 0.950 . S
C1158 C1157 1.414 . S
C1158 C1159 1.374 . S
C1159 H1133 0.950 . S
C1159 C1155 1.385 . S
C1159 C1158 1.374 . S
C1160 C1157 1.499 . S
C1160 C1161 1.373 . S
C1160 C1162 1.389 . S
C1161 H1134 0.950 . S
C1161 C1147 1.377 . S
C1161 C1160 1.373 . S
C1162 C1146 1.377 . S
C1162 C1160 1.389 . S
C1162 C1163 1.524 . S
C1163 C1162 1.524 . S
C1163 C1164 1.397 . S
C1163 C1168 1.363 . S
C1164 H1135 0.950 . S
C1164 C1163 1.397 . S
C1164 C1165 1.334 . S
C1165 H1136 0.950 . S
C1165 C1164 1.334 . S
C1165 C1166 1.287 . S
C1166 C1165 1.287 . S
C1166 C1167 1.524 . S
C1166 H1169 0.999 . S
C1167 H1137 0.950 . S
C1167 C1166 1.524 . S
C1167 C1168 1.415 . S
C1168 H1138 0.950 . S
C1168 C1163 1.363 . S
C1168 C1167 1.415 . S
H1169 C1166 0.999 . S
H1170 C1151 0.913 . S
H1171 C1189 0.951 . S
H1172 C1191 0.951 . S
H1173 C1193 0.950 . S
H1174 C1194 0.950 . S
H1175 C1196 0.950 . S
H1176 C1199 0.950 . S
H1177 C1200 0.950 . S
H1178 C1202 0.950 . S
H1179 C1203 0.950 . S
H1180 C1204 0.951 . S
H1181 C1206 0.951 . S
H1182 C1208 0.950 . S
H1183 C1209 0.950 . S
H1184 C1211 0.950 . S
H1185 C1214 0.950 . S
H1186 C1215 0.950 . S
H1187 C1217 0.950 . S
H1188 C1218 0.950 . S
C1189 H1171 0.951 . S
C1189 C1190 1.366 . S
C1189 C1191 1.388 . S
C1190 C1189 1.366 . S
C1190 C1194 1.385 . S
C1191 H1172 0.951 . S
C1191 C1189 1.388 . S
C1191 C1192 1.366 . S
C1192 C1191 1.366 . S
C1192 C1193 1.414 . S
C1192 C1195 1.499 . S
C1193 H1173 0.950 . S
C1193 C1192 1.414 . S
C1193 C1194 1.374 . S
C1194 H1174 0.950 . S
C1194 C1190 1.385 . S
C1194 C1193 1.374 . S
C1195 C1192 1.499 . S
C1195 C1196 1.373 . S
C1195 C1197 1.389 . S
C1196 H1175 0.950 . S
C1196 C1195 1.373 . S
C1196 C1212 1.377 . S
C1197 C1195 1.389 . S
C1197 C1198 1.524 . S
C1197 C1211 1.377 . S
C1198 C1197 1.524 . S
C1198 C1199 1.397 . S
C1198 C1203 1.363 . S
C1199 H1176 0.950 . S
C1199 C1198 1.397 . S
C1199 C1200 1.334 . S
C1200 H1177 0.950 . S
C1200 C1199 1.334 . S
C1200 C1201 1.287 . S
C1201 C1200 1.287 . S
C1201 C1202 1.524 . S
C1201 H1220 0.913 . S
C1202 H1178 0.950 . S
C1202 C1201 1.524 . S
C1202 C1203 1.415 . S
C1203 H1179 0.950 . S
C1203 C1198 1.363 . S
C1203 C1202 1.415 . S
C1204 H1180 0.951 . S
C1204 C1205 1.366 . S
C1204 C1206 1.388 . S
C1205 C1204 1.366 . S
C1205 C1209 1.385 . S
C1206 H1181 0.951 . S
C1206 C1204 1.388 . S
C1206 C1207 1.366 . S
C1207 C1206 1.366 . S
C1207 C1208 1.414 . S
C1207 C1210 1.499 . S
C1208 H1182 0.950 . S
C1208 C1207 1.414 . S
C1208 C1209 1.374 . S
C1209 H1183 0.950 . S
C1209 C1205 1.385 . S
C1209 C1208 1.374 . S
C1210 C1207 1.499 . S
C1210 C1211 1.373 . S
C1210 C1212 1.389 . S
C1211 H1184 0.950 . S
C1211 C1197 1.377 . S
C1211 C1210 1.373 . S
C1212 C1196 1.377 . S
C1212 C1210 1.389 . S
C1212 C1213 1.524 . S
C1213 C1212 1.524 . S
C1213 C1214 1.397 . S
C1213 C1218 1.363 . S
C1214 H1185 0.950 . S
C1214 C1213 1.397 . S
C1214 C1215 1.334 . S
C1215 H1186 0.950 . S
C1215 C1214 1.334 . S
C1215 C1216 1.287 . S
C1216 C1215 1.287 . S
C1216 C1217 1.524 . S
C1216 H1219 0.999 . S
C1217 H1187 0.950 . S
C1217 C1216 1.524 . S
C1217 C1218 1.415 . S
C1218 H1188 0.950 . S
C1218 C1213 1.363 . S
C1218 C1217 1.415 . S
H1219 C1216 0.999 . S
H1220 C1201 0.913 . S
H1221 C1239 0.951 . S
H1222 C1241 0.951 . S
H1223 C1243 0.950 . S
H1224 C1244 0.950 . S
H1225 C1246 0.950 . S
H1226 C1249 0.950 . S
H1227 C1250 0.950 . S
H1228 C1252 0.950 . S
H1229 C1253 0.950 . S
H1230 C1254 0.951 . S
H1231 C1256 0.951 . S
H1232 C1258 0.950 . S
H1233 C1259 0.950 . S
H1234 C1261 0.950 . S
H1235 C1264 0.950 . S
H1236 C1265 0.950 . S
H1237 C1267 0.950 . S
H1238 C1268 0.950 . S
C1239 H1221 0.951 . S
C1239 C1240 1.366 . S
C1239 C1241 1.388 . S
C1240 C1239 1.366 . S
C1240 C1244 1.385 . S
C1241 H1222 0.951 . S
C1241 C1239 1.388 . S
C1241 C1242 1.366 . S
C1242 C1241 1.366 . S
C1242 C1243 1.414 . S
C1242 C1245 1.499 . S
C1243 H1223 0.950 . S
C1243 C1242 1.414 . S
C1243 C1244 1.374 . S
C1244 H1224 0.950 . S
C1244 C1240 1.385 . S
C1244 C1243 1.374 . S
C1245 C1242 1.499 . S
C1245 C1246 1.373 . S
C1245 C1247 1.389 . S
C1246 H1225 0.950 . S
C1246 C1245 1.373 . S
C1246 C1262 1.377 . S
C1247 C1245 1.389 . S
C1247 C1248 1.524 . S
C1247 C1261 1.377 . S
C1248 C1247 1.524 . S
C1248 C1249 1.397 . S
C1248 C1253 1.363 . S
C1249 H1226 0.950 . S
C1249 C1248 1.397 . S
C1249 C1250 1.334 . S
C1250 H1227 0.950 . S
C1250 C1249 1.334 . S
C1250 C1251 1.287 . S
C1251 C1250 1.287 . S
C1251 C1252 1.524 . S
C1251 H1270 0.913 . S
C1252 H1228 0.950 . S
C1252 C1251 1.524 . S
C1252 C1253 1.415 . S
C1253 H1229 0.950 . S
C1253 C1248 1.363 . S
C1253 C1252 1.415 . S
C1254 H1230 0.951 . S
C1254 C1255 1.366 . S
C1254 C1256 1.388 . S
C1255 C1254 1.366 . S
C1255 C1259 1.385 . S
C1256 H1231 0.951 . S
C1256 C1254 1.388 . S
C1256 C1257 1.366 . S
C1257 C1256 1.366 . S
C1257 C1258 1.414 . S
C1257 C1260 1.499 . S
C1258 H1232 0.950 . S
C1258 C1257 1.414 . S
C1258 C1259 1.374 . S
C1259 H1233 0.950 . S
C1259 C1255 1.385 . S
C1259 C1258 1.374 . S
C1260 C1257 1.499 . S
C1260 C1261 1.373 . S
C1260 C1262 1.389 . S
C1261 H1234 0.950 . S
C1261 C1247 1.377 . S
C1261 C1260 1.373 . S
C1262 C1246 1.377 . S
C1262 C1260 1.389 . S
C1262 C1263 1.524 . S
C1263 C1262 1.524 . S
C1263 C1264 1.397 . S
C1263 C1268 1.363 . S
C1264 H1235 0.950 . S
C1264 C1263 1.397 . S
C1264 C1265 1.334 . S
C1265 H1236 0.950 . S
C1265 C1264 1.334 . S
C1265 C1266 1.287 . S
C1266 C1265 1.287 . S
C1266 C1267 1.524 . S
C1266 H1269 0.999 . S
C1267 H1237 0.950 . S
C1267 C1266 1.524 . S
C1267 C1268 1.415 . S
C1268 H1238 0.950 . S
C1268 C1263 1.363 . S
C1268 C1267 1.415 . S
H1269 C1266 0.999 . S
H1270 C1251 0.913 . S
H1271 C1289 0.951 . S
H1272 C1291 0.951 . S
H1273 C1293 0.950 . S
H1274 C1294 0.950 . S
H1275 C1296 0.950 . S
H1276 C1299 0.950 . S
H1277 C1300 0.950 . S
H1278 C1302 0.950 . S
H1279 C1303 0.950 . S
H1280 C1304 0.951 . S
H1281 C1306 0.951 . S
H1282 C1308 0.950 . S
H1283 C1309 0.950 . S
H1284 C1311 0.950 . S
H1285 C1314 0.950 . S
H1286 C1315 0.950 . S
H1287 C1317 0.950 . S
H1288 C1318 0.950 . S
C1289 H1271 0.951 . S
C1289 C1290 1.366 . S
C1289 C1291 1.388 . S
C1290 C1289 1.366 . S
C1290 C1294 1.385 . S
C1291 H1272 0.951 . S
C1291 C1289 1.388 . S
C1291 C1292 1.366 . S
C1292 C1291 1.366 . S
C1292 C1293 1.414 . S
C1292 C1295 1.499 . S
C1293 H1273 0.950 . S
C1293 C1292 1.414 . S
C1293 C1294 1.374 . S
C1294 H1274 0.950 . S
C1294 C1290 1.385 . S
C1294 C1293 1.374 . S
C1295 C1292 1.499 . S
C1295 C1296 1.373 . S
C1295 C1297 1.389 . S
C1296 H1275 0.950 . S
C1296 C1295 1.373 . S
C1296 C1312 1.377 . S
C1297 C1295 1.389 . S
C1297 C1298 1.524 . S
C1297 C1311 1.377 . S
C1298 C1297 1.524 . S
C1298 C1299 1.397 . S
C1298 C1303 1.363 . S
C1299 H1276 0.950 . S
C1299 C1298 1.397 . S
C1299 C1300 1.334 . S
C1300 H1277 0.950 . S
C1300 C1299 1.334 . S
C1300 C1301 1.287 . S
C1301 C1300 1.287 . S
C1301 C1302 1.524 . S
C1301 H1320 0.913 . S
C1302 H1278 0.950 . S
C1302 C1301 1.524 . S
C1302 C1303 1.415 . S
C1303 H1279 0.950 . S
C1303 C1298 1.363 . S
C1303 C1302 1.415 . S
C1304 H1280 0.951 . S
C1304 C1305 1.366 . S
C1304 C1306 1.388 . S
C1305 C1304 1.366 . S
C1305 C1309 1.385 . S
C1306 H1281 0.951 . S
C1306 C1304 1.388 . S
C1306 C1307 1.366 . S
C1307 C1306 1.366 . S
C1307 C1308 1.414 . S
C1307 C1310 1.499 . S
C1308 H1282 0.950 . S
C1308 C1307 1.414 . S
C1308 C1309 1.374 . S
C1309 H1283 0.950 . S
C1309 C1305 1.385 . S
C1309 C1308 1.374 . S
C1310 C1307 1.499 . S
C1310 C1311 1.373 . S
C1310 C1312 1.389 . S
C1311 H1284 0.950 . S
C1311 C1297 1.377 . S
C1311 C1310 1.373 . S
C1312 C1296 1.377 . S
C1312 C1310 1.389 . S
C1312 C1313 1.524 . S
C1313 C1312 1.524 . S
C1313 C1314 1.397 . S
C1313 C1318 1.363 . S
C1314 H1285 0.950 . S
C1314 C1313 1.397 . S
C1314 C1315 1.334 . S
C1315 H1286 0.950 . S
C1315 C1314 1.334 . S
C1315 C1316 1.287 . S
C1316 C1315 1.287 . S
C1316 C1317 1.524 . S
C1316 H1319 0.999 . S
C1317 H1287 0.950 . S
C1317 C1316 1.524 . S
C1317 C1318 1.415 . S
C1318 H1288 0.950 . S
C1318 C1313 1.363 . S
C1318 C1317 1.415 . S
H1319 C1316 0.999 . S
H1320 C1301 0.913 . S
H1321 C1339 0.951 . S
H1322 C1341 0.951 . S
H1323 C1343 0.950 . S
H1324 C1344 0.950 . S
H1325 C1346 0.950 . S
H1326 C1349 0.950 . S
H1327 C1350 0.950 . S
H1328 C1352 0.950 . S
H1329 C1353 0.950 . S
H1330 C1354 0.951 . S
H1331 C1356 0.951 . S
H1332 C1358 0.950 . S
H1333 C1359 0.950 . S
H1334 C1361 0.950 . S
H1335 C1364 0.950 . S
H1336 C1365 0.950 . S
H1337 C1367 0.950 . S
H1338 C1368 0.950 . S
C1339 H1321 0.951 . S
C1339 C1340 1.366 . S
C1339 C1341 1.388 . S
C1340 C1339 1.366 . S
C1340 C1344 1.385 . S
C1341 H1322 0.951 . S
C1341 C1339 1.388 . S
C1341 C1342 1.366 . S
C1342 C1341 1.366 . S
C1342 C1343 1.414 . S
C1342 C1345 1.499 . S
C1343 H1323 0.950 . S
C1343 C1342 1.414 . S
C1343 C1344 1.374 . S
C1344 H1324 0.950 . S
C1344 C1340 1.385 . S
C1344 C1343 1.374 . S
C1345 C1342 1.499 . S
C1345 C1346 1.373 . S
C1345 C1347 1.389 . S
C1346 H1325 0.950 . S
C1346 C1345 1.373 . S
C1346 C1362 1.377 . S
C1347 C1345 1.389 . S
C1347 C1348 1.524 . S
C1347 C1361 1.377 . S
C1348 C1347 1.524 . S
C1348 C1349 1.397 . S
C1348 C1353 1.363 . S
C1349 H1326 0.950 . S
C1349 C1348 1.397 . S
C1349 C1350 1.334 . S
C1350 H1327 0.950 . S
C1350 C1349 1.334 . S
C1350 C1351 1.287 . S
C1351 C1350 1.287 . S
C1351 C1352 1.524 . S
C1351 H1370 0.913 . S
C1352 H1328 0.950 . S
C1352 C1351 1.524 . S
C1352 C1353 1.415 . S
C1353 H1329 0.950 . S
C1353 C1348 1.363 . S
C1353 C1352 1.415 . S
C1354 H1330 0.951 . S
C1354 C1355 1.366 . S
C1354 C1356 1.388 . S
C1355 C1354 1.366 . S
C1355 C1359 1.385 . S
C1356 H1331 0.951 . S
C1356 C1354 1.388 . S
C1356 C1357 1.366 . S
C1357 C1356 1.366 . S
C1357 C1358 1.414 . S
C1357 C1360 1.499 . S
C1358 H1332 0.950 . S
C1358 C1357 1.414 . S
C1358 C1359 1.374 . S
C1359 H1333 0.950 . S
C1359 C1355 1.385 . S
C1359 C1358 1.374 . S
C1360 C1357 1.499 . S
C1360 C1361 1.373 . S
C1360 C1362 1.389 . S
C1361 H1334 0.950 . S
C1361 C1347 1.377 . S
C1361 C1360 1.373 . S
C1362 C1346 1.377 . S
C1362 C1360 1.389 . S
C1362 C1363 1.524 . S
C1363 C1362 1.524 . S
C1363 C1364 1.397 . S
C1363 C1368 1.363 . S
C1364 H1335 0.950 . S
C1364 C1363 1.397 . S
C1364 C1365 1.334 . S
C1365 H1336 0.950 . S
C1365 C1364 1.334 . S
C1365 C1366 1.287 . S
C1366 C1365 1.287 . S
C1366 C1367 1.524 . S
C1366 H1369 0.999 . S
C1367 H1337 0.950 . S
C1367 C1366 1.524 . S
C1367 C1368 1.415 . S
C1368 H1338 0.950 . S
C1368 C1363 1.363 . S
C1368 C1367 1.415 . S
H1369 C1366 0.999 . S
H1370 C1351 0.913 . S
C190 C5 1.726 . S
C205 C89 1.636 . S
C240 C16 1.505 . S
C255 C136 1.493 . S
C305 C140 1.799 . S
C290 C36 1.861 . S
C355 C105 1.444 . S
C340 C42 1.461 . S
C390 C55 1.630 . S
C405 C120 1.585 . S
C455 C142 0.837 . S
C440 C66 0.843 . S
C505 C111 1.183 . S
C490 C31 1.226 . S
C540 C40 1.314 . S
C555 C151 1.284 . S
C605 C80 1.215 . S
C590 C53 1.241 1_556 S
C640 C68 1.362 . S
C655 C109 1.344 . S
C690 C10 1.967 . S
C705 C167 1.906 . S
C755 C78 1.472 . S
C740 C14 1.495 . S
C805 C96 1.723 . S
C790 C49 1.787 . S
C855 C110 1.572 . S
C840 C62 1.593 1_556 S
C905 C164 1.727 . S
C890 C70 1.757 . S
C955 C79 1.514 . S
C940 C1 1.561 . S
C1005 C127 1.661 . S
C990 C23 1.718 . S
C1040 C29 0.759 . S
C1055 C150 0.756 . S
C1105 C119 1.267 . S
C1090 C75 1.295 . S
C1155 C158 1.201 . S
C1140 C3 1.257 . S
C1205 C88 1.140 . S
C1190 C18 1.156 . S
C1255 C133 1.414 . S
C1240 C27 1.459 . S
C1290 C44 1.861 . S
C1305 C141 1.834 . S
C1340 C57 1.410 . S
C1355 C102 1.396 . S
