# Generated by pormake.
# Topology anh, (6,3)-cn, num edge types: 1
# Building blocks:
#     Node 0, Type 0, BuildingBlock: VOLQOD_clean_sbu_1, # of connection points: 6
#     Node 1, Type 0, BuildingBlock: VOLQOD_clean_sbu_1, # of connection points: 6
#     Node 2, Type 0, BuildingBlock: VOLQOD_clean_sbu_1, # of connection points: 6
#     Node 3, Type 1, BuildingBlock: WUSLED_clean_sbu_0, # of connection points: 3
#     Node 4, Type 1, BuildingBlock: WUSLED_clean_sbu_0, # of connection points: 3
#     Node 5, Type 1, BuildingBlock: WUSLED_clean_sbu_0, # of connection points: 3
#     Node 6, Type 1, BuildingBlock: WUSLED_clean_sbu_0, # of connection points: 3
#     Node 7, Type 1, BuildingBlock: WUSLED_clean_sbu_0, # of connection points: 3
#     Node 8, Type 1, BuildingBlock: WUSLED_clean_sbu_0, # of connection points: 3
#     Edge 9, Type (0, 1), None
#     Edge 10, Type (0, 1), None
#     Edge 11, Type (0, 1), None
#     Edge 12, Type (0, 1), None
#     Edge 13, Type (0, 1), None
#     Edge 14, Type (0, 1), None
#     Edge 15, Type (0, 1), None
#     Edge 16, Type (0, 1), None
#     Edge 17, Type (0, 1), None
#     Edge 18, Type (0, 1), None
#     Edge 19, Type (0, 1), None
#     Edge 20, Type (0, 1), None
#     Edge 21, Type (0, 1), None
#     Edge 22, Type (0, 1), None
#     Edge 23, Type (0, 1), None
#     Edge 24, Type (0, 1), None
#     Edge 25, Type (0, 1), None
#     Edge 26, Type (0, 1), None
# Relax obj value: 0.164
# Max RMSD: 0.228
# Mean RMSD: 0.111
data_MOF--net-anh--node1-VOLQOD_clean_sbu_1--node2-WUSLED_clean_sbu_0--edge1-none
_symmetry_space_group_name_H-M    P1
_symmetry_Int_Tables_number       1
_symmetry_cell_setting            triclinic
loop_
_symmetry_equiv_pos_as_xyz
'x, y, z'
_cell_length_a     21.574157
_cell_length_b     21.427598
_cell_length_c     45.55893
_cell_angle_alpha  89.692928
_cell_angle_beta   90.330509
_cell_angle_gamma 120.8197
loop_
_atom_site_label
_atom_site_type_symbol
_atom_site_fract_x
_atom_site_fract_y
_atom_site_fract_z
_atom_type_partial_charge
O0 O 0.95843 0.52017 0.24557 0.0
Zn1 Zn 0.96917 0.56309 0.20496 0.0
O2 O 0.98551 0.50515 0.17648 0.0
Zn3 Zn 0.90622 0.45969 0.14928 0.0
Zn4 Zn 0.9936 0.42838 0.19655 0.0
Zn5 Zn 0.07039 0.56837 0.15324 0.0
O6 O 0.93788 0.4731 0.10743 0.0
O7 O 0.04694 0.57182 0.10979 0.0
O8 O 0.88035 0.5699 0.19405 0.0
O9 O 0.84647 0.50504 0.15295 0.0
O10 O 0.84001 0.35442 0.15865 0.0
O11 O 0.89979 0.33078 0.19237 0.0
O12 O 0.08088 0.42477 0.18078 0.0
O13 O 0.05919 0.66304 0.20813 0.0
O14 O 0.13395 0.52669 0.15417 0.0
O15 O 0.1296 0.66753 0.17182 0.0
C16 C 0.97947 0.47928 0.25667 0.0
C17 C 0.99313 0.52448 0.09482 0.0
C18 C 0.84357 0.31075 0.17665 0.0
C19 C 0.83928 0.54484 0.17155 0.0
C20 C 0.13287 0.47117 0.1648 0.0
C21 C 0.11866 0.69627 0.19412 0.0
O22 O 1.00186 0.44635 0.2405 0.0
O23 O 0.49641 0.0513 0.44511 0.0
Zn24 Zn 0.45852 0.03133 0.48701 0.0
O25 O 0.52164 0.01337 0.51216 0.0
Zn26 Zn 0.57188 0.09044 0.54032 0.0
Zn27 Zn 0.59253 1.00567 0.48819 0.0
Zn28 Zn 0.46333 0.92553 0.53473 0.0
O29 O 0.56013 0.05305 0.58187 0.0
O30 O 0.46192 0.94354 0.57827 0.0
O31 O 0.44845 0.11503 0.50315 0.0
O32 O 0.53 0.15396 0.53924 0.0
O33 O 0.6762 0.15448 0.52984 0.0
O34 O 0.69153 0.09725 0.49267 0.0
O35 O 0.59573 0.91401 0.49885 0.0
O36 O 0.36101 0.93881 0.4836 0.0
O37 O 0.50912 0.86591 0.53255 0.0
O38 O 0.36397 0.86423 0.51684 0.0
C39 C 0.53509 0.03147 0.43151 0.0
C40 C 0.50989 0.99535 0.59381 0.0
C41 C 0.71586 0.1515 0.50998 0.0
C42 C 0.48282 0.15865 0.52417 0.0
C43 C 0.55875 0.86516 0.51797 0.0
C44 C 0.33176 0.87678 0.49614 0.0
O45 O 0.56877 1.00568 0.44528 0.0
O46 O 0.46564 0.50187 0.77825 0.0
Zn47 Zn 0.44563 0.46468 0.82041 0.0
O48 O 0.52706 0.53008 0.84584 0.0
Zn49 Zn 0.49874 0.57753 0.87425 0.0
Zn50 Zn 0.60632 0.60442 0.82209 0.0
Zn51 Zn 0.55843 0.47397 0.86822 0.0
O52 O 0.51768 0.5605 0.91621 0.0
O53 O 0.53521 0.46766 0.91148 0.0
O54 O 0.35084 0.45464 0.83499 0.0
O55 O 0.39324 0.53603 0.87112 0.0
O56 O 0.54138 0.68345 0.86514 0.0
O57 O 0.61171 0.70176 0.82677 0.0
O58 O 0.70265 0.61183 0.83276 0.0
O59 O 0.43907 0.36674 0.81815 0.0
O60 O 0.66535 0.52422 0.86638 0.0
O61 O 0.52089 0.37508 0.85023 0.0
C62 C 0.52478 0.54397 0.76496 0.0
C63 C 0.52593 0.5107 0.92756 0.0
C64 C 0.58268 0.72448 0.84484 0.0
C65 C 0.34139 0.48937 0.85548 0.0
C66 C 0.71565 0.57581 0.85173 0.0
C67 C 0.47383 0.3401 0.83041 0.0
O68 O 0.58385 0.58109 0.77909 0.0
C69 C 0.64043 0.11987 0.19707 0.0
C70 C 0.69909 0.14373 0.21648 0.0
C71 C 0.777 0.23961 0.18215 0.0
C72 C 0.76699 0.20282 0.209 0.0
C73 C 0.71876 0.21315 0.16228 0.0
C74 C 0.65124 0.15383 0.16967 0.0
U75 U 0.49986 0.01582 0.25624 0.0
O76 O 0.38562 0.98578 0.25836 0.0
O77 O 0.41431 0.90113 0.2596 0.0
C78 C 0.36212 0.91579 0.25853 0.0
C79 C 0.56669 0.06415 0.20587 0.0
C80 C 0.3008 0.86979 0.23894 0.0
C81 C 0.25072 0.79212 0.19606 0.0
C82 C 0.31052 0.84486 0.2119 0.0
C83 C 0.17083 0.79232 0.23313 0.0
C84 C 0.18019 0.76324 0.20705 0.0
C85 C 0.23055 0.84493 0.2489 0.0
C86 C 0.55946 0.05677 0.33742 0.0
C87 C 0.50139 0.06118 0.38248 0.0
C88 C 0.59168 0.02616 0.38436 0.0
C89 C 0.60024 0.03501 0.35397 0.0
C90 C 0.54246 0.0395 0.39908 0.0
C91 C 0.5097 0.06963 0.35195 0.0
C92 C 0.57224 0.06813 0.3054 0.0
O93 O 0.55963 1.00626 0.21919 0.0
O94 O 0.52942 0.08966 0.21835 0.0
O95 O 0.54098 0.09831 0.29116 0.0
O96 O 0.57044 0.01431 0.29094 0.0
H97 H 0.69174 0.11849 0.23785 0.0
H98 H 0.81041 0.22213 0.22492 0.0
H99 H 0.72453 0.2401 0.14142 0.0
H100 H 0.60666 0.13625 0.15441 0.0
H101 H 0.26015 0.77119 0.17606 0.0
H102 H 0.36433 0.86369 0.20369 0.0
H103 H 0.11754 0.77176 0.24225 0.0
H104 H 0.2219 0.86372 0.26965 0.0
H105 H 0.46289 0.07179 0.39306 0.0
H106 H 0.62443 1.00961 0.39634 0.0
H107 H 0.63936 0.02531 0.34337 0.0
H108 H 0.47751 0.08665 0.33984 0.0
C109 C 0.55865 0.66895 0.53428 0.0
C110 C 0.55576 0.70971 0.5576 0.0
C111 C 0.57 0.80382 0.52353 0.0
C112 C 0.56096 0.77628 0.55225 0.0
C113 C 0.57813 0.76554 0.50038 0.0
C114 C 0.57192 0.69797 0.50574 0.0
U115 U 0.51631 0.51956 0.58861 0.0
O116 O 0.43298 0.40296 0.58741 0.0
O117 O 0.5477 0.43731 0.59167 0.0
C118 C 0.48129 0.38295 0.58771 0.0
C119 C 0.54124 0.59404 0.53972 0.0
C120 C 0.47182 0.32796 0.56592 0.0
C121 C 0.52155 0.28866 0.52738 0.0
C122 C 0.5229 0.34445 0.54368 0.0
C123 C 0.41391 0.2 0.55313 0.0
C124 C 0.46847 0.21594 0.5327 0.0
C125 C 0.4156 0.25574 0.56965 0.0
C126 C 0.52717 0.57053 0.6708 0.0
C127 C 0.46242 0.50974 0.71558 0.0
C128 C 0.58901 0.6025 0.71804 0.0
C129 C 0.58979 0.61196 0.68766 0.0
C130 C 0.52525 0.55166 0.73247 0.0
C131 C 0.46334 0.51904 0.68504 0.0
C132 C 0.52991 0.58521 0.63886 0.0
O133 O 0.59116 0.58746 0.55361 0.0
O134 O 0.47619 0.55117 0.55032 0.0
O135 O 0.46903 0.55199 0.6239 0.0
O136 O 0.58441 0.58832 0.62479 0.0
H137 H 0.54589 0.6883 0.57979 0.0
H138 H 0.5547 0.80486 0.57049 0.0
H139 H 0.58439 0.78537 0.47804 0.0
H140 H 0.57432 0.66707 0.4875 0.0
H141 H 0.56508 0.30184 0.51219 0.0
H142 H 0.5666 0.39977 0.54021 0.0
H143 H 0.37364 0.14408 0.55808 0.0
H144 H 0.37575 0.24185 0.5867 0.0
H145 H 0.41236 0.47004 0.72594 0.0
H146 H 0.63844 0.63594 0.73022 0.0
H147 H 0.63955 0.65251 0.67733 0.0
H148 H 0.41401 0.48644 0.67269 0.0
C149 C 0.91546 0.58373 0.86561 0.0
C150 C 0.8719 0.57763 0.88945 0.0
C151 C 0.78945 0.58989 0.85662 0.0
C152 C 0.80928 0.58019 0.88497 0.0
C153 C 0.83588 0.60151 0.83303 0.0
C154 C 0.8984 0.59782 0.83748 0.0
U155 U 0.02405 0.54007 0.9177 0.0
O156 O 0.05006 0.45306 0.91567 0.0
O157 O 0.13687 0.56744 0.9191 0.0
C158 C 0.11994 0.49957 0.91549 0.0
C159 C 0.9731 0.56705 0.8699 0.0
C160 C 0.16305 0.48675 0.89393 0.0
C161 C 0.25584 0.53342 0.85639 0.0
C162 C 0.20248 0.53786 0.87189 0.0
C163 C 0.22594 0.42269 0.88241 0.0
C164 C 0.26973 0.47736 0.86235 0.0
C165 C 0.17287 0.42737 0.89811 0.0
C166 C 0.98443 0.54229 1.00056 0.0
C167 C 0.04974 0.58724 0.04691 0.0
C168 C 0.93188 0.4778 0.04624 0.0
C169 C 0.9279 0.48421 0.01586 0.0
C170 C 0.99233 0.52975 0.06226 0.0
C171 C 0.0458 0.59356 0.01638 0.0
C172 C 0.97514 0.55168 0.96884 0.0
O173 O 0.03143 0.61696 0.88349 0.0
O174 O 0.95008 0.50119 0.87998 0.0
O175 O 0.94304 0.49225 0.95287 0.0
O176 O 0.0295 0.60665 0.9553 0.0
H177 H 0.88427 0.56689 0.91132 0.0
H178 H 0.7745 0.57126 0.90355 0.0
H179 H 0.82138 0.60837 0.81094 0.0
H180 H 0.93143 0.6025 0.81882 0.0
H181 H 0.29025 0.57709 0.84149 0.0
H182 H 0.1958 0.58404 0.86812 0.0
H183 H 0.23712 0.38015 0.88791 0.0
H184 H 0.14318 0.38745 0.91504 0.0
H185 H 0.09709 0.62818 0.05851 0.0
H186 H 0.88654 0.43265 0.0572 0.0
H187 H 0.87958 0.44438 1.00441 0.0
H188 H 0.09017 0.63946 1.00533 0.0
C189 C 0.90901 0.35351 0.49021 0.0
C190 C 0.88118 0.2964 0.46984 0.0
C191 C 0.78752 0.2172 0.50448 0.0
C192 C 0.82121 0.22861 0.47698 0.0
C193 C 0.81793 0.27369 0.52525 0.0
C194 C 0.87811 0.34111 0.51817 0.0
U195 U 1.01162 0.49785 0.43184 0.0
O196 O 0.04229 0.61322 0.43097 0.0
O197 O 0.12562 0.58353 0.42832 0.0
C198 C 0.11167 0.63633 0.43042 0.0
C199 C 0.96526 0.42775 0.48184 0.0
C200 C 0.15823 0.69627 0.45054 0.0
C201 C 0.23901 0.74332 0.49268 0.0
C202 C 0.18606 0.68435 0.47652 0.0
C203 C 0.23317 0.82659 0.4582 0.0
C204 C 0.26511 0.81523 0.48311 0.0
C205 C 0.18043 0.76769 0.44209 0.0
C206 C 0.96536 0.44508 0.35046 0.0
C207 C 0.96027 0.51079 0.3076 0.0
C208 C 0.9879 0.41542 0.30163 0.0
C209 C 0.98212 0.40358 0.33198 0.0
C210 C 0.97636 0.46872 0.28901 0.0
C211 C 0.95501 0.49925 0.33799 0.0
C212 C 0.95631 0.4288 0.38231 0.0
O213 O 0.02139 0.43423 0.46781 0.0
O214 O 0.94065 0.46722 0.4703 0.0
O215 O 0.9272 0.45878 0.39784 0.0
O216 O 1.0108 0.42952 0.3957 0.0
H217 H 0.904 0.3051 0.44803 0.0
H218 H 0.7989 0.18661 0.46037 0.0
H219 H 0.79347 0.26683 0.54663 0.0
H220 H 0.89873 0.38457 0.53415 0.0
H221 H 0.26212 0.73238 0.51177 0.0
H222 H 0.16927 0.62959 0.48359 0.0
H223 H 0.25152 0.881 0.4502 0.0
H224 H 0.15936 0.77804 0.42218 0.0
H225 H 0.95135 0.55252 0.29869 0.0
H226 H 1.00023 0.3819 0.28803 0.0
H227 H 0.99002 0.36127 0.34102 0.0
H228 H 0.94215 0.53232 0.35162 0.0
C229 C 0.56773 0.91301 0.82595 0.0
C230 C 0.59703 0.88736 0.80509 0.0
C231 C 0.58691 0.79509 0.83958 0.0
C232 C 0.60698 0.8292 0.8119 0.0
C233 C 0.56072 0.82338 0.86079 0.0
C234 C 0.55133 0.88177 0.85402 0.0
U235 U 0.52124 0.01362 0.76892 0.0
O236 O 0.43811 0.04449 0.76965 0.0
O237 O 0.55261 0.12835 0.7651 0.0
C238 C 0.48602 0.11429 0.76801 0.0
C239 C 0.54889 0.9682 0.8182 0.0
C240 C 0.47529 0.16271 0.7875 0.0
C241 C 0.51447 0.24908 0.82775 0.0
C242 C 0.51842 0.19461 0.81246 0.0
C243 C 0.42114 0.23704 0.79441 0.0
C244 C 0.4675 0.27273 0.81827 0.0
C245 C 0.42516 0.18272 0.77919 0.0
C246 C 0.51979 0.96934 0.6873 0.0
C247 C 0.55512 0.04703 0.64398 0.0
C248 C 0.46813 0.9184 0.63949 0.0
C249 C 0.47333 0.90968 0.66971 0.0
C250 C 0.50998 0.987 0.62618 0.0
C251 C 0.55975 0.0384 0.67421 0.0
C252 C 0.52848 0.95789 0.71878 0.0
O253 O 0.59793 0.02521 0.8036 0.0
O254 O 0.48329 0.94211 0.80771 0.0
O255 O 0.46964 0.92912 0.73481 0.0
O256 O 0.58504 1.01095 0.73213 0.0
H257 H 0.60972 0.91054 0.78321 0.0
H258 H 0.62663 0.80849 0.79495 0.0
H259 H 0.54469 0.79853 0.8823 0.0
H260 H 0.52868 0.90081 0.87041 0.0
H261 H 0.55088 0.2751 0.84606 0.0
H262 H 0.55726 0.17971 0.81939 0.0
H263 H 0.38414 0.25345 0.78651 0.0
H264 H 0.39124 0.1586 0.76003 0.0
H265 H 0.58776 0.10071 0.63451 0.0
H266 H 0.43294 0.87096 0.62644 0.0
H267 H 0.44203 0.85591 0.67928 0.0
H268 H 0.59571 0.08568 0.68718 0.0
C269 C 0.64339 0.54485 0.15772 0.0
C270 C 0.68578 0.5485 0.13386 0.0
C271 C 0.77768 0.55592 0.16723 0.0
C272 C 0.75217 0.5538 0.13856 0.0
C273 C 0.7375 0.55736 0.19113 0.0
C274 C 0.6703 0.55133 0.18637 0.0
U275 U 0.49462 0.49991 0.10352 0.0
O276 O 0.37816 0.41814 0.10547 0.0
O277 O 0.41486 0.53367 0.09891 0.0
C278 C 0.35987 0.46791 0.10392 0.0
C279 C 0.56899 0.52746 0.15242 0.0
C280 C 0.30575 0.46211 0.12525 0.0
C281 C 0.26368 0.52103 0.1583 0.0
C282 C 0.31971 0.52132 0.14305 0.0
C283 C 0.18011 0.39929 0.14098 0.0
C284 C 0.19302 0.46117 0.15654 0.0
C285 C 0.23615 0.39999 0.12526 0.0
C286 C 0.54217 0.50282 0.02174 0.0
C287 C 0.50753 0.54426 0.97817 0.0
C288 C 0.55292 0.4623 0.97323 0.0
C289 C 0.56034 0.46166 1.00376 0.0
C290 C 0.52784 0.50485 0.96002 0.0
C291 C 0.51432 0.54304 1.0087 0.0
C292 C 0.55847 0.50798 0.05353 0.0
O293 O 0.56264 0.57708 0.1379 0.0
O294 O 0.52578 0.46135 0.14251 0.0
O295 O 0.52403 0.44764 0.06897 0.0
O296 O 0.56416 0.56467 0.06709 0.0
H297 H 0.66592 0.54373 0.11159 0.0
H298 H 0.78214 0.55293 0.11972 0.0
H299 H 0.75566 0.55833 0.21343 0.0
H300 H 0.63807 0.54856 0.20503 0.0
H301 H 0.27468 0.56953 0.17006 0.0
H302 H 0.37285 0.56975 0.14378 0.0
H303 H 0.12579 0.35304 0.13894 0.0
H304 H 0.22412 0.35371 0.11169 0.0
H305 H 0.48744 0.57711 0.96878 0.0
H306 H 0.56901 0.43124 0.95995 0.0
H307 H 0.58217 0.43047 0.01329 0.0
H308 H 0.4995 0.57511 0.02199 0.0
loop_
_geom_bond_atom_site_label_1
_geom_bond_atom_site_label_2
_geom_bond_distance
_geom_bond_site_symmetry_2
_ccdc_geom_bond_type
O0 Zn1 1.953 . S
O0 C16 1.225 1_655 S
Zn1 O0 1.953 . S
Zn1 O2 1.949 1_655 S
Zn1 O8 1.919 . S
Zn1 O13 1.924 1_655 S
O2 Zn1 1.949 1_455 S
O2 Zn3 1.923 1_455 S
O2 Zn4 1.950 . S
O2 Zn5 1.945 . S
Zn3 O2 1.923 1_655 S
Zn3 O6 1.933 . S
Zn3 O9 1.941 . S
Zn3 O10 1.965 . S
Zn4 O2 1.950 . S
Zn4 O11 1.938 1_455 S
Zn4 O12 1.906 . S
Zn4 O22 1.953 . S
Zn5 O2 1.945 . S
Zn5 O7 1.932 . S
Zn5 O14 1.977 . S
Zn5 O15 1.910 . S
O6 Zn3 1.933 . S
O6 C17 1.226 1_655 S
O7 Zn5 1.932 . S
O7 C17 1.307 . S
O8 Zn1 1.919 . S
O8 C19 1.253 . S
O9 Zn3 1.941 . S
O9 C19 1.283 . S
O10 Zn3 1.965 . S
O10 C18 1.303 . S
O11 Zn4 1.938 1_655 S
O11 C18 1.247 . S
O12 Zn4 1.906 . S
O12 C20 1.304 . S
O13 Zn1 1.924 1_455 S
O13 C21 1.311 . S
O14 Zn5 1.977 . S
O14 C20 1.272 . S
O15 Zn5 1.910 . S
O15 C21 1.231 . S
C16 O0 1.225 1_455 S
C16 O22 1.298 . S
C17 O6 1.226 1_455 S
C17 O7 1.307 . S
C18 O10 1.303 . S
C18 O11 1.247 . S
C19 O8 1.253 . S
C19 O9 1.283 . S
C20 O12 1.304 . S
C20 O14 1.272 . S
C21 O13 1.311 . S
C21 O15 1.231 . S
O22 Zn4 1.953 . S
O22 C16 1.298 . S
O23 Zn24 1.953 . S
O23 C39 1.225 . S
Zn24 O23 1.953 . S
Zn24 O25 1.949 . S
Zn24 O31 1.919 . S
Zn24 O36 1.924 1_545 S
O25 Zn24 1.949 . S
O25 Zn26 1.923 . S
O25 Zn27 1.950 1_545 S
O25 Zn28 1.945 1_545 S
Zn26 O25 1.923 . S
Zn26 O29 1.933 . S
Zn26 O32 1.941 . S
Zn26 O33 1.965 . S
Zn27 O25 1.950 1_565 S
Zn27 O34 1.938 1_565 S
Zn27 O35 1.906 . S
Zn27 O45 1.953 . S
Zn28 O25 1.945 1_565 S
Zn28 O30 1.932 . S
Zn28 O37 1.977 . S
Zn28 O38 1.910 . S
O29 Zn26 1.933 . S
O29 C40 1.226 . S
O30 Zn28 1.932 . S
O30 C40 1.307 1_565 S
O31 Zn24 1.919 . S
O31 C42 1.253 . S
O32 Zn26 1.941 . S
O32 C42 1.283 . S
O33 Zn26 1.965 . S
O33 C41 1.303 . S
O34 Zn27 1.938 1_545 S
O34 C41 1.247 . S
O35 Zn27 1.906 . S
O35 C43 1.304 . S
O36 Zn24 1.924 1_565 S
O36 C44 1.311 . S
O37 Zn28 1.977 . S
O37 C43 1.272 . S
O38 Zn28 1.910 . S
O38 C44 1.231 . S
C39 O23 1.225 . S
C39 O45 1.298 1_545 S
C40 O29 1.226 . S
C40 O30 1.307 1_545 S
C41 O33 1.303 . S
C41 O34 1.247 . S
C42 O31 1.253 . S
C42 O32 1.283 . S
C43 O35 1.304 . S
C43 O37 1.272 . S
C44 O36 1.311 . S
C44 O38 1.231 . S
O45 Zn27 1.953 . S
O45 C39 1.298 1_565 S
O46 Zn47 1.953 . S
O46 C62 1.225 . S
Zn47 O46 1.953 . S
Zn47 O48 1.949 . S
Zn47 O54 1.919 . S
Zn47 O59 1.924 . S
O48 Zn47 1.949 . S
O48 Zn49 1.923 . S
O48 Zn50 1.950 . S
O48 Zn51 1.945 . S
Zn49 O48 1.923 . S
Zn49 O52 1.933 . S
Zn49 O55 1.941 . S
Zn49 O56 1.965 . S
Zn50 O48 1.950 . S
Zn50 O57 1.938 . S
Zn50 O58 1.906 . S
Zn50 O68 1.953 . S
Zn51 O48 1.945 . S
Zn51 O53 1.932 . S
Zn51 O60 1.977 . S
Zn51 O61 1.910 . S
O52 Zn49 1.933 . S
O52 C63 1.226 . S
O53 Zn51 1.932 . S
O53 C63 1.307 . S
O54 Zn47 1.919 . S
O54 C65 1.253 . S
O55 Zn49 1.941 . S
O55 C65 1.283 . S
O56 Zn49 1.965 . S
O56 C64 1.303 . S
O57 Zn50 1.938 . S
O57 C64 1.247 . S
O58 Zn50 1.906 . S
O58 C66 1.304 . S
O59 Zn47 1.924 . S
O59 C67 1.311 . S
O60 Zn51 1.977 . S
O60 C66 1.272 . S
O61 Zn51 1.910 . S
O61 C67 1.231 . S
C62 O46 1.225 . S
C62 O68 1.298 . S
C63 O52 1.226 . S
C63 O53 1.307 . S
C64 O56 1.303 . S
C64 O57 1.247 . S
C65 O54 1.253 . S
C65 O55 1.283 . S
C66 O58 1.304 . S
C66 O60 1.272 . S
C67 O59 1.311 . S
C67 O61 1.231 . S
O68 Zn50 1.953 . S
O68 C62 1.298 . S
C69 C70 1.264 . S
C69 C74 1.479 . S
C69 C79 1.465 . S
C70 C69 1.264 . S
C70 C72 1.339 . S
C70 H97 0.931 . S
C71 C72 1.395 . S
C71 C73 1.320 . S
C72 C70 1.339 . S
C72 C71 1.395 . S
C72 H98 0.929 . S
C73 C71 1.320 . S
C73 C74 1.405 . S
C73 H99 0.930 . S
C74 C69 1.479 . S
C74 C73 1.405 . S
C74 H100 0.931 . S
U75 O76 2.454 1_545 S
U75 O77 2.458 1_545 S
U75 C78 2.984 1_545 S
U75 C79 2.847 . S
U75 C92 2.882 . S
U75 O93 2.441 . S
U75 O94 2.420 . S
U75 O95 2.455 1_545 S
U75 O96 2.449 . S
O76 U75 2.454 1_565 S
O76 C78 1.353 . S
O77 U75 2.458 1_565 S
O77 C78 1.286 . S
C78 U75 2.984 1_565 S
C78 O76 1.353 . S
C78 O77 1.286 . S
C78 C80 1.363 . S
C79 C69 1.465 . S
C79 U75 2.847 . S
C79 O93 1.249 . S
C79 O94 1.202 . S
C80 C78 1.363 . S
C80 C82 1.408 . S
C80 C85 1.342 . S
C81 C82 1.310 . S
C81 C84 1.461 . S
C81 H101 0.932 . S
C82 C80 1.408 . S
C82 C81 1.310 . S
C82 H102 0.930 . S
C83 C84 1.474 . S
C83 C85 1.285 . S
C83 H103 0.929 . S
C84 C81 1.461 . S
C84 C83 1.474 . S
C85 C80 1.342 . S
C85 C83 1.285 . S
C85 H104 0.930 . S
C86 C89 1.424 . S
C86 C91 1.245 1_545 S
C86 C92 1.428 . S
C87 C90 1.260 1_565 S
C87 C91 1.477 . S
C87 H105 0.932 . S
C88 C89 1.384 . S
C88 C90 1.479 . S
C88 H106 0.929 . S
C89 C86 1.424 . S
C89 C88 1.384 . S
C89 H107 0.928 . S
C90 C87 1.260 1_545 S
C90 C88 1.479 . S
C91 C86 1.245 1_565 S
C91 C87 1.477 . S
C91 H108 0.932 . S
C92 U75 2.882 . S
C92 C86 1.428 . S
C92 O95 1.301 1_545 S
C92 O96 1.282 . S
O93 U75 2.441 . S
O93 C79 1.249 . S
O94 U75 2.420 . S
O94 C79 1.202 . S
O95 U75 2.455 1_565 S
O95 C92 1.301 1_565 S
O96 U75 2.449 . S
O96 C92 1.282 . S
H97 C70 0.931 . S
H98 C72 0.929 . S
H99 C73 0.930 . S
H100 C74 0.931 . S
H101 C81 0.932 . S
H102 C82 0.930 . S
H103 C83 0.929 . S
H104 C85 0.930 . S
H105 C87 0.932 . S
H106 C88 0.929 . S
H107 C89 0.928 . S
H108 C91 0.932 . S
C109 C110 1.264 . S
C109 C114 1.479 . S
C109 C119 1.465 . S
C110 C109 1.264 . S
C110 C112 1.339 . S
C110 H137 0.931 . S
C111 C112 1.395 . S
C111 C113 1.320 . S
C112 C110 1.339 . S
C112 C111 1.395 . S
C112 H138 0.929 . S
C113 C111 1.320 . S
C113 C114 1.405 . S
C113 H139 0.930 . S
C114 C109 1.479 . S
C114 C113 1.405 . S
C114 H140 0.931 . S
U115 O116 2.454 . S
U115 O117 2.458 . S
U115 C118 2.984 . S
U115 C119 2.847 . S
U115 C132 2.882 . S
U115 O133 2.441 . S
U115 O134 2.420 . S
U115 O135 2.455 . S
U115 O136 2.449 . S
O116 U115 2.454 . S
O116 C118 1.353 . S
O117 U115 2.458 . S
O117 C118 1.286 . S
C118 U115 2.984 . S
C118 O116 1.353 . S
C118 O117 1.286 . S
C118 C120 1.363 . S
C119 C109 1.465 . S
C119 U115 2.847 . S
C119 O133 1.249 . S
C119 O134 1.202 . S
C120 C118 1.363 . S
C120 C122 1.408 . S
C120 C125 1.342 . S
C121 C122 1.310 . S
C121 C124 1.461 . S
C121 H141 0.932 . S
C122 C120 1.408 . S
C122 C121 1.310 . S
C122 H142 0.930 . S
C123 C124 1.474 . S
C123 C125 1.285 . S
C123 H143 0.929 . S
C124 C121 1.461 . S
C124 C123 1.474 . S
C125 C120 1.342 . S
C125 C123 1.285 . S
C125 H144 0.930 . S
C126 C129 1.424 . S
C126 C131 1.245 . S
C126 C132 1.428 . S
C127 C130 1.260 . S
C127 C131 1.477 . S
C127 H145 0.932 . S
C128 C129 1.384 . S
C128 C130 1.479 . S
C128 H146 0.929 . S
C129 C126 1.424 . S
C129 C128 1.384 . S
C129 H147 0.928 . S
C130 C127 1.260 . S
C130 C128 1.479 . S
C131 C126 1.245 . S
C131 C127 1.477 . S
C131 H148 0.932 . S
C132 U115 2.882 . S
C132 C126 1.428 . S
C132 O135 1.301 . S
C132 O136 1.282 . S
O133 U115 2.441 . S
O133 C119 1.249 . S
O134 U115 2.420 . S
O134 C119 1.202 . S
O135 U115 2.455 . S
O135 C132 1.301 . S
O136 U115 2.449 . S
O136 C132 1.282 . S
H137 C110 0.931 . S
H138 C112 0.929 . S
H139 C113 0.930 . S
H140 C114 0.931 . S
H141 C121 0.932 . S
H142 C122 0.930 . S
H143 C123 0.929 . S
H144 C125 0.930 . S
H145 C127 0.932 . S
H146 C128 0.929 . S
H147 C129 0.928 . S
H148 C131 0.932 . S
C149 C150 1.264 . S
C149 C154 1.479 . S
C149 C159 1.465 . S
C150 C149 1.264 . S
C150 C152 1.339 . S
C150 H177 0.931 . S
C151 C152 1.395 . S
C151 C153 1.320 . S
C152 C150 1.339 . S
C152 C151 1.395 . S
C152 H178 0.929 . S
C153 C151 1.320 . S
C153 C154 1.405 . S
C153 H179 0.930 . S
C154 C149 1.479 . S
C154 C153 1.405 . S
C154 H180 0.931 . S
U155 O156 2.454 . S
U155 O157 2.458 . S
U155 C158 2.984 . S
U155 C159 2.847 1_455 S
U155 C172 2.882 1_455 S
U155 O173 2.441 1_455 S
U155 O174 2.420 1_455 S
U155 O175 2.455 . S
U155 O176 2.449 1_455 S
O156 U155 2.454 . S
O156 C158 1.353 . S
O157 U155 2.458 . S
O157 C158 1.286 . S
C158 U155 2.984 . S
C158 O156 1.353 . S
C158 O157 1.286 . S
C158 C160 1.363 . S
C159 C149 1.465 . S
C159 U155 2.847 1_655 S
C159 O173 1.249 . S
C159 O174 1.202 . S
C160 C158 1.363 . S
C160 C162 1.408 . S
C160 C165 1.342 . S
C161 C162 1.310 . S
C161 C164 1.461 . S
C161 H181 0.932 . S
C162 C160 1.408 . S
C162 C161 1.310 . S
C162 H182 0.930 . S
C163 C164 1.474 . S
C163 C165 1.285 . S
C163 H183 0.929 . S
C164 C161 1.461 . S
C164 C163 1.474 . S
C165 C160 1.342 . S
C165 C163 1.285 . S
C165 H184 0.930 . S
C166 C169 1.408 1_456 S
C166 C171 1.226 1_556 S
C166 C172 1.465 1_455 S
C167 C170 1.260 . S
C167 C171 1.477 . S
C167 H185 0.932 . S
C168 C169 1.384 . S
C168 C170 1.479 1_655 S
C168 H186 0.929 . S
C169 C166 1.408 1_654 S
C169 C168 1.384 . S
C169 H187 0.938 . S
C170 C167 1.260 . S
C170 C168 1.479 1_455 S
C171 C166 1.226 1_554 S
C171 C167 1.477 . S
C171 H188 0.932 . S
C172 U155 2.882 1_655 S
C172 C166 1.465 1_655 S
C172 O175 1.301 1_655 S
C172 O176 1.282 . S
O173 U155 2.441 1_655 S
O173 C159 1.249 . S
O174 U155 2.420 1_655 S
O174 C159 1.202 . S
O175 U155 2.455 . S
O175 C172 1.301 1_455 S
O176 U155 2.449 1_655 S
O176 C172 1.282 . S
H177 C150 0.931 . S
H178 C152 0.929 . S
H179 C153 0.930 . S
H180 C154 0.931 . S
H181 C161 0.932 . S
H182 C162 0.930 . S
H183 C163 0.929 . S
H184 C165 0.930 . S
H185 C167 0.932 . S
H186 C168 0.929 . S
H187 C169 0.938 . S
H188 C171 0.932 . S
C189 C190 1.264 . S
C189 C194 1.479 . S
C189 C199 1.465 . S
C190 C189 1.264 . S
C190 C192 1.339 . S
C190 H217 0.931 . S
C191 C192 1.395 . S
C191 C193 1.320 . S
C192 C190 1.339 . S
C192 C191 1.395 . S
C192 H218 0.929 . S
C193 C191 1.320 . S
C193 C194 1.405 . S
C193 H219 0.930 . S
C194 C189 1.479 . S
C194 C193 1.405 . S
C194 H220 0.931 . S
U195 O196 2.454 1_655 S
U195 O197 2.458 1_655 S
U195 C198 2.984 1_655 S
U195 C199 2.847 . S
U195 C212 2.882 . S
U195 O213 2.441 . S
U195 O214 2.420 . S
U195 O215 2.455 1_655 S
U195 O216 2.449 . S
O196 U195 2.454 1_455 S
O196 C198 1.353 . S
O197 U195 2.458 1_455 S
O197 C198 1.286 . S
C198 U195 2.984 1_455 S
C198 O196 1.353 . S
C198 O197 1.286 . S
C198 C200 1.363 . S
C199 C189 1.465 . S
C199 U195 2.847 . S
C199 O213 1.249 . S
C199 O214 1.202 . S
C200 C198 1.363 . S
C200 C202 1.408 . S
C200 C205 1.342 . S
C201 C202 1.310 . S
C201 C204 1.461 . S
C201 H221 0.932 . S
C202 C200 1.408 . S
C202 C201 1.310 . S
C202 H222 0.930 . S
C203 C204 1.474 . S
C203 C205 1.285 . S
C203 H223 0.929 . S
C204 C201 1.461 . S
C204 C203 1.474 . S
C205 C200 1.342 . S
C205 C203 1.285 . S
C205 H224 0.930 . S
C206 C209 1.424 . S
C206 C211 1.245 1_655 S
C206 C212 1.428 . S
C207 C210 1.260 1_455 S
C207 C211 1.477 . S
C207 H225 0.932 . S
C208 C209 1.384 . S
C208 C210 1.479 . S
C208 H226 0.929 . S
C209 C206 1.424 . S
C209 C208 1.384 . S
C209 H227 0.928 . S
C210 C207 1.260 1_655 S
C210 C208 1.479 . S
C211 C206 1.245 1_455 S
C211 C207 1.477 . S
C211 H228 0.932 . S
C212 U195 2.882 . S
C212 C206 1.428 . S
C212 O215 1.301 1_655 S
C212 O216 1.282 . S
O213 U195 2.441 . S
O213 C199 1.249 . S
O214 U195 2.420 . S
O214 C199 1.202 . S
O215 U195 2.455 1_455 S
O215 C212 1.301 1_455 S
O216 U195 2.449 . S
O216 C212 1.282 . S
H217 C190 0.931 . S
H218 C192 0.929 . S
H219 C193 0.930 . S
H220 C194 0.931 . S
H221 C201 0.932 . S
H222 C202 0.930 . S
H223 C203 0.929 . S
H224 C205 0.930 . S
H225 C207 0.932 . S
H226 C208 0.929 . S
H227 C209 0.928 . S
H228 C211 0.932 . S
C229 C230 1.264 . S
C229 C234 1.479 . S
C229 C239 1.465 . S
C230 C229 1.264 . S
C230 C232 1.339 . S
C230 H257 0.931 . S
C231 C232 1.395 . S
C231 C233 1.320 . S
C232 C230 1.339 . S
C232 C231 1.395 . S
C232 H258 0.929 . S
C233 C231 1.320 . S
C233 C234 1.405 . S
C233 H259 0.930 . S
C234 C229 1.479 . S
C234 C233 1.405 . S
C234 H260 0.931 . S
U235 O236 2.454 1_565 S
U235 O237 2.458 1_565 S
U235 C238 2.984 1_565 S
U235 C239 2.847 . S
U235 C252 2.882 . S
U235 O253 2.441 . S
U235 O254 2.420 . S
U235 O255 2.455 1_565 S
U235 O256 2.449 . S
O236 U235 2.454 1_545 S
O236 C238 1.353 . S
O237 U235 2.458 1_545 S
O237 C238 1.286 . S
C238 U235 2.984 1_545 S
C238 O236 1.353 . S
C238 O237 1.286 . S
C238 C240 1.363 . S
C239 C229 1.465 . S
C239 U235 2.847 . S
C239 O253 1.249 . S
C239 O254 1.202 . S
C240 C238 1.363 . S
C240 C242 1.408 . S
C240 C245 1.342 . S
C241 C242 1.310 . S
C241 C244 1.461 . S
C241 H261 0.932 . S
C242 C240 1.408 . S
C242 C241 1.310 . S
C242 H262 0.930 . S
C243 C244 1.474 . S
C243 C245 1.285 . S
C243 H263 0.929 . S
C244 C241 1.461 . S
C244 C243 1.474 . S
C245 C240 1.342 . S
C245 C243 1.285 . S
C245 H264 0.930 . S
C246 C249 1.424 . S
C246 C251 1.245 1_565 S
C246 C252 1.428 . S
C247 C250 1.260 1_545 S
C247 C251 1.477 . S
C247 H265 0.932 . S
C248 C249 1.384 . S
C248 C250 1.479 . S
C248 H266 0.929 . S
C249 C246 1.424 . S
C249 C248 1.384 . S
C249 H267 0.928 . S
C250 C247 1.260 1_565 S
C250 C248 1.479 . S
C251 C246 1.245 1_545 S
C251 C247 1.477 . S
C251 H268 0.932 . S
C252 U235 2.882 . S
C252 C246 1.428 . S
C252 O255 1.301 1_565 S
C252 O256 1.282 . S
O253 U235 2.441 . S
O253 C239 1.249 . S
O254 U235 2.420 . S
O254 C239 1.202 . S
O255 U235 2.455 1_545 S
O255 C252 1.301 1_545 S
O256 U235 2.449 . S
O256 C252 1.282 . S
H257 C230 0.931 . S
H258 C232 0.929 . S
H259 C233 0.930 . S
H260 C234 0.931 . S
H261 C241 0.932 . S
H262 C242 0.930 . S
H263 C243 0.929 . S
H264 C245 0.930 . S
H265 C247 0.932 . S
H266 C248 0.929 . S
H267 C249 0.928 . S
H268 C251 0.932 . S
C269 C270 1.264 . S
C269 C274 1.479 . S
C269 C279 1.465 . S
C270 C269 1.264 . S
C270 C272 1.339 . S
C270 H297 0.931 . S
C271 C272 1.395 . S
C271 C273 1.320 . S
C272 C270 1.339 . S
C272 C271 1.395 . S
C272 H298 0.929 . S
C273 C271 1.320 . S
C273 C274 1.405 . S
C273 H299 0.930 . S
C274 C269 1.479 . S
C274 C273 1.405 . S
C274 H300 0.931 . S
U275 O276 2.454 . S
U275 O277 2.458 . S
U275 C278 2.984 . S
U275 C279 2.847 . S
U275 C292 2.882 . S
U275 O293 2.441 . S
U275 O294 2.420 . S
U275 O295 2.455 . S
U275 O296 2.449 . S
O276 U275 2.454 . S
O276 C278 1.353 . S
O277 U275 2.458 . S
O277 C278 1.286 . S
C278 U275 2.984 . S
C278 O276 1.353 . S
C278 O277 1.286 . S
C278 C280 1.363 . S
C279 C269 1.465 . S
C279 U275 2.847 . S
C279 O293 1.249 . S
C279 O294 1.202 . S
C280 C278 1.363 . S
C280 C282 1.408 . S
C280 C285 1.342 . S
C281 C282 1.310 . S
C281 C284 1.461 . S
C281 H301 0.932 . S
C282 C280 1.408 . S
C282 C281 1.310 . S
C282 H302 0.930 . S
C283 C284 1.474 . S
C283 C285 1.285 . S
C283 H303 0.929 . S
C284 C281 1.461 . S
C284 C283 1.474 . S
C285 C280 1.342 . S
C285 C283 1.285 . S
C285 H304 0.930 . S
C286 C289 1.408 1_554 S
C286 C291 1.225 1_554 S
C286 C292 1.466 . S
C287 C290 1.260 . S
C287 C291 1.477 . S
C287 H305 0.932 . S
C288 C289 1.384 . S
C288 C290 1.479 . S
C288 H306 0.929 . S
C289 C286 1.408 1_556 S
C289 C288 1.384 . S
C289 H307 0.937 . S
C290 C287 1.260 . S
C290 C288 1.479 . S
C291 C286 1.225 1_556 S
C291 C287 1.477 . S
C291 H308 0.932 . S
C292 U275 2.882 . S
C292 C286 1.466 . S
C292 O295 1.301 . S
C292 O296 1.282 . S
O293 U275 2.441 . S
O293 C279 1.249 . S
O294 U275 2.420 . S
O294 C279 1.202 . S
O295 U275 2.455 . S
O295 C292 1.301 . S
O296 U275 2.449 . S
O296 C292 1.282 . S
H297 C270 0.931 . S
H298 C272 0.929 . S
H299 C273 0.930 . S
H300 C274 0.931 . S
H301 C281 0.932 . S
H302 C282 0.930 . S
H303 C283 0.929 . S
H304 C285 0.930 . S
H305 C287 0.932 . S
H306 C288 0.929 . S
H307 C289 0.937 . S
H308 C291 0.932 . S
C20 C284 1.412 . S
C41 C191 1.941 . S
C64 C231 2.057 . S
C19 C271 1.786 . S
C204 C44 1.624 . S
C244 C67 1.577 . S
C43 C111 1.556 . S
C66 C151 1.528 . S
C21 C84 1.640 . S
C124 C42 1.540 . S
C164 C65 1.614 . S
C18 C71 1.923 . S
C170 C17 1.424 . S
C39 C90 1.443 . S
C62 C130 1.448 . S
C250 C40 1.456 1_565 S
C290 C63 1.510 . S
C16 C210 1.443 1_455 S
