# Generated by pormake.
# Topology tbo, (3,4)-cn, num edge types: 1
# Building blocks:
#     Node 0, Type 0, BuildingBlock: OLANEW_clean_sbu_2, # of connection points: 3
#     Node 1, Type 0, BuildingBlock: OLANEW_clean_sbu_2, # of connection points: 3
#     Node 2, Type 0, BuildingBlock: OLANEW_clean_sbu_2, # of connection points: 3
#     Node 3, Type 0, BuildingBlock: OLANEW_clean_sbu_2, # of connection points: 3
#     Node 4, Type 0, BuildingBlock: OLANEW_clean_sbu_2, # of connection points: 3
#     Node 5, Type 0, BuildingBlock: OLANEW_clean_sbu_2, # of connection points: 3
#     Node 6, Type 0, BuildingBlock: OLANEW_clean_sbu_2, # of connection points: 3
#     Node 7, Type 0, BuildingBlock: OLANEW_clean_sbu_2, # of connection points: 3
#     Node 8, Type 0, BuildingBlock: OLANEW_clean_sbu_2, # of connection points: 3
#     Node 9, Type 0, BuildingBlock: OLANEW_clean_sbu_2, # of connection points: 3
#     Node 10, Type 0, BuildingBlock: OLANEW_clean_sbu_2, # of connection points: 3
#     Node 11, Type 0, BuildingBlock: OLANEW_clean_sbu_2, # of connection points: 3
#     Node 12, Type 0, BuildingBlock: OLANEW_clean_sbu_2, # of connection points: 3
#     Node 13, Type 0, BuildingBlock: OLANEW_clean_sbu_2, # of connection points: 3
#     Node 14, Type 0, BuildingBlock: OLANEW_clean_sbu_2, # of connection points: 3
#     Node 15, Type 0, BuildingBlock: OLANEW_clean_sbu_2, # of connection points: 3
#     Node 16, Type 0, BuildingBlock: OLANEW_clean_sbu_2, # of connection points: 3
#     Node 17, Type 0, BuildingBlock: OLANEW_clean_sbu_2, # of connection points: 3
#     Node 18, Type 0, BuildingBlock: OLANEW_clean_sbu_2, # of connection points: 3
#     Node 19, Type 0, BuildingBlock: OLANEW_clean_sbu_2, # of connection points: 3
#     Node 20, Type 0, BuildingBlock: OLANEW_clean_sbu_2, # of connection points: 3
#     Node 21, Type 0, BuildingBlock: OLANEW_clean_sbu_2, # of connection points: 3
#     Node 22, Type 0, BuildingBlock: OLANEW_clean_sbu_2, # of connection points: 3
#     Node 23, Type 0, BuildingBlock: OLANEW_clean_sbu_2, # of connection points: 3
#     Node 24, Type 0, BuildingBlock: OLANEW_clean_sbu_2, # of connection points: 3
#     Node 25, Type 0, BuildingBlock: OLANEW_clean_sbu_2, # of connection points: 3
#     Node 26, Type 0, BuildingBlock: OLANEW_clean_sbu_2, # of connection points: 3
#     Node 27, Type 0, BuildingBlock: OLANEW_clean_sbu_2, # of connection points: 3
#     Node 28, Type 0, BuildingBlock: OLANEW_clean_sbu_2, # of connection points: 3
#     Node 29, Type 0, BuildingBlock: OLANEW_clean_sbu_2, # of connection points: 3
#     Node 30, Type 0, BuildingBlock: OLANEW_clean_sbu_2, # of connection points: 3
#     Node 31, Type 0, BuildingBlock: OLANEW_clean_sbu_2, # of connection points: 3
#     Node 32, Type 1, BuildingBlock: ESEHIV_clean_sbu_0, # of connection points: 4
#     Node 33, Type 1, BuildingBlock: ESEHIV_clean_sbu_0, # of connection points: 4
#     Node 34, Type 1, BuildingBlock: ESEHIV_clean_sbu_0, # of connection points: 4
#     Node 35, Type 1, BuildingBlock: ESEHIV_clean_sbu_0, # of connection points: 4
#     Node 36, Type 1, BuildingBlock: ESEHIV_clean_sbu_0, # of connection points: 4
#     Node 37, Type 1, BuildingBlock: ESEHIV_clean_sbu_0, # of connection points: 4
#     Node 38, Type 1, BuildingBlock: ESEHIV_clean_sbu_0, # of connection points: 4
#     Node 39, Type 1, BuildingBlock: ESEHIV_clean_sbu_0, # of connection points: 4
#     Node 40, Type 1, BuildingBlock: ESEHIV_clean_sbu_0, # of connection points: 4
#     Node 41, Type 1, BuildingBlock: ESEHIV_clean_sbu_0, # of connection points: 4
#     Node 42, Type 1, BuildingBlock: ESEHIV_clean_sbu_0, # of connection points: 4
#     Node 43, Type 1, BuildingBlock: ESEHIV_clean_sbu_0, # of connection points: 4
#     Node 44, Type 1, BuildingBlock: ESEHIV_clean_sbu_0, # of connection points: 4
#     Node 45, Type 1, BuildingBlock: ESEHIV_clean_sbu_0, # of connection points: 4
#     Node 46, Type 1, BuildingBlock: ESEHIV_clean_sbu_0, # of connection points: 4
#     Node 47, Type 1, BuildingBlock: ESEHIV_clean_sbu_0, # of connection points: 4
#     Node 48, Type 1, BuildingBlock: ESEHIV_clean_sbu_0, # of connection points: 4
#     Node 49, Type 1, BuildingBlock: ESEHIV_clean_sbu_0, # of connection points: 4
#     Node 50, Type 1, BuildingBlock: ESEHIV_clean_sbu_0, # of connection points: 4
#     Node 51, Type 1, BuildingBlock: ESEHIV_clean_sbu_0, # of connection points: 4
#     Node 52, Type 1, BuildingBlock: ESEHIV_clean_sbu_0, # of connection points: 4
#     Node 53, Type 1, BuildingBlock: ESEHIV_clean_sbu_0, # of connection points: 4
#     Node 54, Type 1, BuildingBlock: ESEHIV_clean_sbu_0, # of connection points: 4
#     Node 55, Type 1, BuildingBlock: ESEHIV_clean_sbu_0, # of connection points: 4
#     Edge 56, Type (0, 1), BuildingBlock: CIFDUS_clean_linker_0, # of connection points: 2
#     Edge 57, Type (0, 1), BuildingBlock: CIFDUS_clean_linker_0, # of connection points: 2
#     Edge 58, Type (0, 1), BuildingBlock: CIFDUS_clean_linker_0, # of connection points: 2
#     Edge 59, Type (0, 1), BuildingBlock: CIFDUS_clean_linker_0, # of connection points: 2
#     Edge 60, Type (0, 1), BuildingBlock: CIFDUS_clean_linker_0, # of connection points: 2
#     Edge 61, Type (0, 1), BuildingBlock: CIFDUS_clean_linker_0, # of connection points: 2
#     Edge 62, Type (0, 1), BuildingBlock: CIFDUS_clean_linker_0, # of connection points: 2
#     Edge 63, Type (0, 1), BuildingBlock: CIFDUS_clean_linker_0, # of connection points: 2
#     Edge 64, Type (0, 1), BuildingBlock: CIFDUS_clean_linker_0, # of connection points: 2
#     Edge 65, Type (0, 1), BuildingBlock: CIFDUS_clean_linker_0, # of connection points: 2
#     Edge 66, Type (0, 1), BuildingBlock: CIFDUS_clean_linker_0, # of connection points: 2
#     Edge 67, Type (0, 1), BuildingBlock: CIFDUS_clean_linker_0, # of connection points: 2
#     Edge 68, Type (0, 1), BuildingBlock: CIFDUS_clean_linker_0, # of connection points: 2
#     Edge 69, Type (0, 1), BuildingBlock: CIFDUS_clean_linker_0, # of connection points: 2
#     Edge 70, Type (0, 1), BuildingBlock: CIFDUS_clean_linker_0, # of connection points: 2
#     Edge 71, Type (0, 1), BuildingBlock: CIFDUS_clean_linker_0, # of connection points: 2
#     Edge 72, Type (0, 1), BuildingBlock: CIFDUS_clean_linker_0, # of connection points: 2
#     Edge 73, Type (0, 1), BuildingBlock: CIFDUS_clean_linker_0, # of connection points: 2
#     Edge 74, Type (0, 1), BuildingBlock: CIFDUS_clean_linker_0, # of connection points: 2
#     Edge 75, Type (0, 1), BuildingBlock: CIFDUS_clean_linker_0, # of connection points: 2
#     Edge 76, Type (0, 1), BuildingBlock: CIFDUS_clean_linker_0, # of connection points: 2
#     Edge 77, Type (0, 1), BuildingBlock: CIFDUS_clean_linker_0, # of connection points: 2
#     Edge 78, Type (0, 1), BuildingBlock: CIFDUS_clean_linker_0, # of connection points: 2
#     Edge 79, Type (0, 1), BuildingBlock: CIFDUS_clean_linker_0, # of connection points: 2
#     Edge 80, Type (0, 1), BuildingBlock: CIFDUS_clean_linker_0, # of connection points: 2
#     Edge 81, Type (0, 1), BuildingBlock: CIFDUS_clean_linker_0, # of connection points: 2
#     Edge 82, Type (0, 1), BuildingBlock: CIFDUS_clean_linker_0, # of connection points: 2
#     Edge 83, Type (0, 1), BuildingBlock: CIFDUS_clean_linker_0, # of connection points: 2
#     Edge 84, Type (0, 1), BuildingBlock: CIFDUS_clean_linker_0, # of connection points: 2
#     Edge 85, Type (0, 1), BuildingBlock: CIFDUS_clean_linker_0, # of connection points: 2
#     Edge 86, Type (0, 1), BuildingBlock: CIFDUS_clean_linker_0, # of connection points: 2
#     Edge 87, Type (0, 1), BuildingBlock: CIFDUS_clean_linker_0, # of connection points: 2
#     Edge 88, Type (0, 1), BuildingBlock: CIFDUS_clean_linker_0, # of connection points: 2
#     Edge 89, Type (0, 1), BuildingBlock: CIFDUS_clean_linker_0, # of connection points: 2
#     Edge 90, Type (0, 1), BuildingBlock: CIFDUS_clean_linker_0, # of connection points: 2
#     Edge 91, Type (0, 1), BuildingBlock: CIFDUS_clean_linker_0, # of connection points: 2
#     Edge 92, Type (0, 1), BuildingBlock: CIFDUS_clean_linker_0, # of connection points: 2
#     Edge 93, Type (0, 1), BuildingBlock: CIFDUS_clean_linker_0, # of connection points: 2
#     Edge 94, Type (0, 1), BuildingBlock: CIFDUS_clean_linker_0, # of connection points: 2
#     Edge 95, Type (0, 1), BuildingBlock: CIFDUS_clean_linker_0, # of connection points: 2
#     Edge 96, Type (0, 1), BuildingBlock: CIFDUS_clean_linker_0, # of connection points: 2
#     Edge 97, Type (0, 1), BuildingBlock: CIFDUS_clean_linker_0, # of connection points: 2
#     Edge 98, Type (0, 1), BuildingBlock: CIFDUS_clean_linker_0, # of connection points: 2
#     Edge 99, Type (0, 1), BuildingBlock: CIFDUS_clean_linker_0, # of connection points: 2
#     Edge 100, Type (0, 1), BuildingBlock: CIFDUS_clean_linker_0, # of connection points: 2
#     Edge 101, Type (0, 1), BuildingBlock: CIFDUS_clean_linker_0, # of connection points: 2
#     Edge 102, Type (0, 1), BuildingBlock: CIFDUS_clean_linker_0, # of connection points: 2
#     Edge 103, Type (0, 1), BuildingBlock: CIFDUS_clean_linker_0, # of connection points: 2
#     Edge 104, Type (0, 1), BuildingBlock: CIFDUS_clean_linker_0, # of connection points: 2
#     Edge 105, Type (0, 1), BuildingBlock: CIFDUS_clean_linker_0, # of connection points: 2
#     Edge 106, Type (0, 1), BuildingBlock: CIFDUS_clean_linker_0, # of connection points: 2
#     Edge 107, Type (0, 1), BuildingBlock: CIFDUS_clean_linker_0, # of connection points: 2
#     Edge 108, Type (0, 1), BuildingBlock: CIFDUS_clean_linker_0, # of connection points: 2
#     Edge 109, Type (0, 1), BuildingBlock: CIFDUS_clean_linker_0, # of connection points: 2
#     Edge 110, Type (0, 1), BuildingBlock: CIFDUS_clean_linker_0, # of connection points: 2
#     Edge 111, Type (0, 1), BuildingBlock: CIFDUS_clean_linker_0, # of connection points: 2
#     Edge 112, Type (0, 1), BuildingBlock: CIFDUS_clean_linker_0, # of connection points: 2
#     Edge 113, Type (0, 1), BuildingBlock: CIFDUS_clean_linker_0, # of connection points: 2
#     Edge 114, Type (0, 1), BuildingBlock: CIFDUS_clean_linker_0, # of connection points: 2
#     Edge 115, Type (0, 1), BuildingBlock: CIFDUS_clean_linker_0, # of connection points: 2
#     Edge 116, Type (0, 1), BuildingBlock: CIFDUS_clean_linker_0, # of connection points: 2
#     Edge 117, Type (0, 1), BuildingBlock: CIFDUS_clean_linker_0, # of connection points: 2
#     Edge 118, Type (0, 1), BuildingBlock: CIFDUS_clean_linker_0, # of connection points: 2
#     Edge 119, Type (0, 1), BuildingBlock: CIFDUS_clean_linker_0, # of connection points: 2
#     Edge 120, Type (0, 1), BuildingBlock: CIFDUS_clean_linker_0, # of connection points: 2
#     Edge 121, Type (0, 1), BuildingBlock: CIFDUS_clean_linker_0, # of connection points: 2
#     Edge 122, Type (0, 1), BuildingBlock: CIFDUS_clean_linker_0, # of connection points: 2
#     Edge 123, Type (0, 1), BuildingBlock: CIFDUS_clean_linker_0, # of connection points: 2
#     Edge 124, Type (0, 1), BuildingBlock: CIFDUS_clean_linker_0, # of connection points: 2
#     Edge 125, Type (0, 1), BuildingBlock: CIFDUS_clean_linker_0, # of connection points: 2
#     Edge 126, Type (0, 1), BuildingBlock: CIFDUS_clean_linker_0, # of connection points: 2
#     Edge 127, Type (0, 1), BuildingBlock: CIFDUS_clean_linker_0, # of connection points: 2
#     Edge 128, Type (0, 1), BuildingBlock: CIFDUS_clean_linker_0, # of connection points: 2
#     Edge 129, Type (0, 1), BuildingBlock: CIFDUS_clean_linker_0, # of connection points: 2
#     Edge 130, Type (0, 1), BuildingBlock: CIFDUS_clean_linker_0, # of connection points: 2
#     Edge 131, Type (0, 1), BuildingBlock: CIFDUS_clean_linker_0, # of connection points: 2
#     Edge 132, Type (0, 1), BuildingBlock: CIFDUS_clean_linker_0, # of connection points: 2
#     Edge 133, Type (0, 1), BuildingBlock: CIFDUS_clean_linker_0, # of connection points: 2
#     Edge 134, Type (0, 1), BuildingBlock: CIFDUS_clean_linker_0, # of connection points: 2
#     Edge 135, Type (0, 1), BuildingBlock: CIFDUS_clean_linker_0, # of connection points: 2
#     Edge 136, Type (0, 1), BuildingBlock: CIFDUS_clean_linker_0, # of connection points: 2
#     Edge 137, Type (0, 1), BuildingBlock: CIFDUS_clean_linker_0, # of connection points: 2
#     Edge 138, Type (0, 1), BuildingBlock: CIFDUS_clean_linker_0, # of connection points: 2
#     Edge 139, Type (0, 1), BuildingBlock: CIFDUS_clean_linker_0, # of connection points: 2
#     Edge 140, Type (0, 1), BuildingBlock: CIFDUS_clean_linker_0, # of connection points: 2
#     Edge 141, Type (0, 1), BuildingBlock: CIFDUS_clean_linker_0, # of connection points: 2
#     Edge 142, Type (0, 1), BuildingBlock: CIFDUS_clean_linker_0, # of connection points: 2
#     Edge 143, Type (0, 1), BuildingBlock: CIFDUS_clean_linker_0, # of connection points: 2
#     Edge 144, Type (0, 1), BuildingBlock: CIFDUS_clean_linker_0, # of connection points: 2
#     Edge 145, Type (0, 1), BuildingBlock: CIFDUS_clean_linker_0, # of connection points: 2
#     Edge 146, Type (0, 1), BuildingBlock: CIFDUS_clean_linker_0, # of connection points: 2
#     Edge 147, Type (0, 1), BuildingBlock: CIFDUS_clean_linker_0, # of connection points: 2
#     Edge 148, Type (0, 1), BuildingBlock: CIFDUS_clean_linker_0, # of connection points: 2
#     Edge 149, Type (0, 1), BuildingBlock: CIFDUS_clean_linker_0, # of connection points: 2
#     Edge 150, Type (0, 1), BuildingBlock: CIFDUS_clean_linker_0, # of connection points: 2
#     Edge 151, Type (0, 1), BuildingBlock: CIFDUS_clean_linker_0, # of connection points: 2
# Relax obj value: 0.024
# Max RMSD: 0.192
# Mean RMSD: 0.109
data_MOF--net-tbo--node1-OLANEW_clean_sbu_2--node2-ESEHIV_clean_sbu_0--edge1-CIFDUS_clean_linker_0
_symmetry_space_group_name_H-M    P1
_symmetry_Int_Tables_number       1
_symmetry_cell_setting            triclinic
loop_
_symmetry_equiv_pos_as_xyz
'x, y, z'
_cell_length_a     69.043641
_cell_length_b     70.870533
_cell_length_c     68.373708
_cell_angle_alpha  96.926408
_cell_angle_beta   90.112815
_cell_angle_gamma 98.89889
loop_
_atom_site_label
_atom_site_type_symbol
_atom_site_fract_x
_atom_site_fract_y
_atom_site_fract_z
_atom_type_partial_charge
O0 O 0.20935 0.12842 0.17504 0.0
Cd1 Cd 0.19024 0.10801 0.19679 0.0
O2 O 0.19199 0.15179 0.18073 0.0
Cd3 Cd 0.17842 0.1783 0.18231 0.0
O4 O 0.15641 0.19638 0.19356 0.0
C5 C 0.15661 0.21403 0.19147 0.0
O6 O 0.17087 0.22287 0.18164 0.0
C7 C 0.20601 0.14493 0.17169 0.0
C8 C 0.21181 0.08618 0.21755 0.0
O9 O 0.20522 0.07988 0.20006 0.0
O10 O 0.20864 0.10291 0.22493 0.0
O11 O 0.88913 0.2631 0.16912 0.0
Cd12 Cd 0.85729 0.26321 0.15305 0.0
O13 O 0.87725 0.23383 0.17457 0.0
Cd14 Cd 0.87612 0.20548 0.18468 0.0
O15 O 0.86934 0.17604 0.19213 0.0
C16 C 0.86713 0.17285 0.20995 0.0
O17 O 0.86942 0.18751 0.22393 0.0
C18 C 0.89117 0.24802 0.17677 0.0
C19 C 0.85741 0.2868 0.12312 0.0
O20 O 0.85623 0.29358 0.14125 0.0
O21 O 0.85893 0.26894 0.11916 0.0
O22 O 0.87469 0.8279 0.20194 0.0
Cd23 Cd 0.87999 0.84196 0.23652 0.0
O24 O 0.89002 0.85382 0.19062 0.0
Cd25 Cd 0.89455 0.87139 0.21935 0.0
O26 O 0.89126 0.89772 0.23854 0.0
C27 C 0.89967 0.91349 0.23323 0.0
O28 O 0.9108 0.91288 0.21767 0.0
C29 C 0.88085 0.8367 0.18745 0.0
C30 C 0.91233 0.83217 0.25544 0.0
O31 O 0.89549 0.82155 0.25512 0.0
O32 O 0.91395 0.84724 0.24654 0.0
O33 O 0.16575 0.86305 0.14395 0.0
Cd34 Cd 0.15004 0.83599 0.1205 0.0
O35 O 0.16291 0.84176 0.16476 0.0
Cd36 Cd 0.1604 0.83194 0.19379 0.0
O37 O 0.14542 0.81691 0.21676 0.0
C38 C 0.13231 0.80273 0.21076 0.0
O39 O 0.12936 0.79795 0.1917 0.0
C40 C 0.16755 0.85914 0.16146 0.0
C41 C 0.17301 0.81885 0.09215 0.0
O42 O 0.16418 0.83274 0.08855 0.0
O43 O 0.17157 0.81353 0.10943 0.0
O44 O 0.21455 0.88718 0.88051 0.0
Cd45 Cd 0.20518 0.86226 0.90219 0.0
O46 O 0.18579 0.87689 0.86637 0.0
Cd47 Cd 0.16001 0.87562 0.84697 0.0
O48 O 0.13286 0.86875 0.82904 0.0
C49 C 0.13168 0.85587 0.81424 0.0
O50 O 0.14703 0.84745 0.80978 0.0
C51 C 0.20194 0.88847 0.86733 0.0
C52 C 0.23502 0.84902 0.92189 0.0
O53 O 0.22973 0.842 0.90417 0.0
O54 O 0.22671 0.86284 0.93007 0.0
O55 O 0.2126 0.18164 0.92579 0.0
Cd56 Cd 0.1967 0.16907 0.89361 0.0
O57 O 0.20209 0.20973 0.93068 0.0
Cd58 Cd 0.18449 0.20826 0.90378 0.0
O59 O 0.16446 0.22075 0.88601 0.0
C60 C 0.16073 0.23729 0.89284 0.0
O61 O 0.16904 0.24559 0.90966 0.0
C62 C 0.2119 0.19756 0.93644 0.0
C63 C 0.2101 0.13552 0.87623 0.0
O64 O 0.21694 0.15201 0.87107 0.0
O65 O 0.19706 0.13487 0.88954 0.0
O66 O 0.88541 0.22489 0.87782 0.0
Cd67 Cd 0.89586 0.20537 0.84878 0.0
O68 O 0.87832 0.2012 0.89597 0.0
Cd69 Cd 0.8799 0.1779 0.87248 0.0
O70 O 0.86118 0.15175 0.85932 0.0
C71 C 0.84301 0.15122 0.86275 0.0
O72 O 0.83725 0.16612 0.87312 0.0
C73 C 0.87999 0.219 0.89409 0.0
C74 C 0.92693 0.22683 0.83107 0.0
O75 O 0.90907 0.22845 0.82753 0.0
O76 O 0.9302 0.21475 0.84272 0.0
O77 O 0.87407 0.87835 0.84536 0.0
Cd78 Cd 0.85006 0.89981 0.85555 0.0
O79 O 0.87517 0.86655 0.87386 0.0
Cd80 Cd 0.85221 0.87742 0.89207 0.0
O81 O 0.83648 0.87227 0.91944 0.0
C82 C 0.84227 0.85953 0.92867 0.0
O83 O 0.85669 0.85096 0.92132 0.0
C84 C 0.88124 0.86777 0.8564 0.0
C85 C 0.83352 0.9173 0.82601 0.0
O86 O 0.84953 0.92544 0.83494 0.0
O87 O 0.82583 0.90078 0.83055 0.0
O88 O 0.19584 0.66629 0.696 0.0
Cd89 Cd 0.17688 0.65156 0.72235 0.0
O90 O 0.17869 0.6893 0.69105 0.0
Cd91 Cd 0.15502 0.6852 0.71225 0.0
O92 O 0.12858 0.69468 0.72557 0.0
C93 C 0.12903 0.71278 0.7293 0.0
O94 O 0.1452 0.7242 0.7258 0.0
C95 C 0.19315 0.68044 0.68695 0.0
C96 C 0.18889 0.61745 0.73213 0.0
O97 O 0.17587 0.61706 0.71863 0.0
O98 O 0.1965 0.63396 0.74089 0.0
O99 O 0.8629 0.77331 0.66606 0.0
Cd100 Cd 0.82821 0.77009 0.65592 0.0
O101 O 0.8535 0.74403 0.67279 0.0
Cd102 Cd 0.85386 0.71651 0.6843 0.0
O103 O 0.84951 0.68685 0.69128 0.0
C104 C 0.83731 0.68157 0.70421 0.0
O105 O 0.8277 0.69433 0.71372 0.0
C106 C 0.86711 0.75837 0.67264 0.0
C107 C 0.82084 0.76669 0.61538 0.0
O108 O 0.82093 0.7828 0.62617 0.0
O109 O 0.82452 0.75231 0.62365 0.0
O110 O 0.89809 0.3558 0.67492 0.0
Cd111 Cd 0.90712 0.37651 0.70599 0.0
O112 O 0.86669 0.35666 0.67963 0.0
Cd113 Cd 0.87034 0.37767 0.70625 0.0
O114 O 0.8653 0.4006 0.72941 0.0
C115 C 0.87034 0.41815 0.72682 0.0
O116 O 0.87938 0.42216 0.71059 0.0
C117 C 0.88027 0.35045 0.66936 0.0
C118 C 0.93774 0.36562 0.72664 0.0
O119 O 0.91999 0.35743 0.72804 0.0
O120 O 0.94109 0.3789 0.71536 0.0
O121 O 0.30461 0.36696 0.70357 0.0
Cd122 Cd 0.30695 0.33367 0.69136 0.0
O123 O 0.27394 0.35699 0.70988 0.0
Cd124 Cd 0.24447 0.35742 0.72186 0.0
O125 O 0.21582 0.35584 0.73586 0.0
C126 C 0.20245 0.34127 0.73239 0.0
O127 O 0.20572 0.32667 0.71974 0.0
C128 C 0.28819 0.37079 0.70989 0.0
C129 C 0.31303 0.32992 0.651 0.0
O130 O 0.29584 0.3302 0.65795 0.0
O131 O 0.32747 0.33123 0.66315 0.0
O132 O 0.20693 0.37458 0.3874 0.0
Cd133 Cd 0.18843 0.34583 0.39894 0.0
O134 O 0.18495 0.36896 0.36373 0.0
Cd135 Cd 0.16553 0.3677 0.33792 0.0
O136 O 0.13784 0.35379 0.32288 0.0
C137 C 0.13663 0.33707 0.31333 0.0
O138 O 0.15251 0.32895 0.31144 0.0
C139 C 0.2003 0.37941 0.37169 0.0
C140 C 0.21066 0.32699 0.42203 0.0
O141 O 0.21048 0.32365 0.40318 0.0
O142 O 0.20044 0.33938 0.42998 0.0
O143 O 0.19996 0.63536 0.42566 0.0
Cd144 Cd 0.17793 0.62471 0.39669 0.0
O145 O 0.19328 0.66493 0.42769 0.0
Cd146 Cd 0.17065 0.66076 0.40444 0.0
O147 O 0.14572 0.66935 0.38976 0.0
C148 C 0.14812 0.67788 0.37442 0.0
O149 O 0.16562 0.68048 0.36674 0.0
C150 C 0.20269 0.65268 0.43392 0.0
C151 C 0.19511 0.60279 0.36664 0.0
O152 O 0.19789 0.62123 0.36824 0.0
O153 O 0.18408 0.5946 0.37922 0.0
O154 O 0.83864 0.74057 0.30207 0.0
Cd155 Cd 0.84863 0.72966 0.26885 0.0
O156 O 0.83085 0.70987 0.30448 0.0
Cd157 Cd 0.82132 0.684 0.31872 0.0
O158 O 0.80978 0.65532 0.32613 0.0
C159 C 0.79179 0.64865 0.32254 0.0
O160 O 0.78054 0.65956 0.31526 0.0
C161 C 0.83189 0.72726 0.31224 0.0
C162 C 0.88819 0.72582 0.26907 0.0
O163 O 0.88259 0.74113 0.26438 0.0
O164 O 0.87505 0.7122 0.27342 0.0
O165 O 0.89565 0.35943 0.33755 0.0
Cd166 Cd 0.86508 0.36945 0.35004 0.0
O167 O 0.90676 0.35533 0.3668 0.0
Cd168 Cd 0.87912 0.35525 0.38303 0.0
O169 O 0.85873 0.33914 0.40225 0.0
C170 C 0.84994 0.34549 0.41745 0.0
O171 O 0.85194 0.36413 0.42282 0.0
C172 C 0.90934 0.35594 0.34842 0.0
C173 C 0.8561 0.40136 0.33315 0.0
O174 O 0.86764 0.40345 0.34822 0.0
O175 O 0.84878 0.38418 0.32597 0.0
O176 O 0.7165 0.17511 0.6481 0.0
Cd177 Cd 0.69797 0.15469 0.67059 0.0
O178 O 0.69612 0.1956 0.64387 0.0
Cd179 Cd 0.67282 0.18619 0.66415 0.0
O180 O 0.64542 0.1867 0.68068 0.0
C181 C 0.64188 0.20287 0.6889 0.0
O182 O 0.65493 0.21826 0.68767 0.0
C183 C 0.71219 0.18931 0.64005 0.0
C184 C 0.71999 0.1332 0.69184 0.0
O185 O 0.71343 0.12665 0.67439 0.0
O186 O 0.71662 0.14995 0.69892 0.0
O187 O 0.36123 0.26115 0.69415 0.0
Cd188 Cd 0.32594 0.26214 0.69169 0.0
O189 O 0.35255 0.23254 0.70312 0.0
Cd190 Cd 0.35552 0.20551 0.71465 0.0
O191 O 0.35315 0.17644 0.72311 0.0
C192 C 0.34094 0.17128 0.73609 0.0
O193 O 0.33043 0.18381 0.74455 0.0
C194 C 0.3661 0.246 0.69961 0.0
C195 C 0.3116 0.25854 0.65302 0.0
O196 O 0.31733 0.27512 0.6627 0.0
O197 O 0.31277 0.24363 0.6616 0.0
O198 O 0.37045 0.81231 0.72563 0.0
Cd199 Cd 0.38204 0.82401 0.75963 0.0
O200 O 0.35927 0.83947 0.72517 0.0
Cd201 Cd 0.34389 0.86259 0.71728 0.0
O202 O 0.33321 0.89013 0.72597 0.0
C203 C 0.31733 0.89439 0.71954 0.0
O204 O 0.30664 0.88206 0.70637 0.0
C205 C 0.36136 0.82299 0.71647 0.0
C206 C 0.42087 0.82109 0.76919 0.0
O207 O 0.40686 0.80733 0.77112 0.0
O208 O 0.41659 0.83598 0.76223 0.0
O209 O 0.71888 0.8952 0.63915 0.0
Cd210 Cd 0.71745 0.87176 0.60973 0.0
O211 O 0.70152 0.87299 0.6543 0.0
Cd212 Cd 0.68449 0.86117 0.67825 0.0
O213 O 0.66972 0.85049 0.7039 0.0
C214 C 0.6591 0.83405 0.70288 0.0
O215 O 0.6568 0.82308 0.68586 0.0
C216 C 0.7103 0.89021 0.65459 0.0
C217 C 0.75271 0.87011 0.59007 0.0
O218 O 0.7411 0.88155 0.58575 0.0
O219 O 0.74791 0.85993 0.6041 0.0
O220 O 0.71888 0.89138 0.32239 0.0
Cd221 Cd 0.69574 0.8671 0.33686 0.0
O222 O 0.7017 0.88804 0.29468 0.0
Cd223 Cd 0.67842 0.86678 0.30378 0.0
O224 O 0.65153 0.84846 0.31028 0.0
C225 C 0.63609 0.8483 0.30006 0.0
O226 O 0.6368 0.85913 0.2857 0.0
C227 C 0.71658 0.89607 0.30522 0.0
C228 C 0.71291 0.84458 0.36084 0.0
O229 O 0.7103 0.83944 0.34227 0.0
O230 O 0.70768 0.86052 0.36805 0.0
O231 O 0.74436 0.17618 0.36986 0.0
Cd232 Cd 0.73783 0.16081 0.33615 0.0
O233 O 0.72105 0.19375 0.36948 0.0
Cd234 Cd 0.69936 0.21365 0.37408 0.0
O235 O 0.67507 0.22703 0.3633 0.0
C236 C 0.6772 0.23382 0.34688 0.0
O237 O 0.69382 0.23312 0.33768 0.0
C238 C 0.73514 0.18878 0.37874 0.0
C239 C 0.75905 0.13034 0.32801 0.0
O240 O 0.76661 0.14757 0.32562 0.0
O241 O 0.74144 0.12751 0.3342 0.0
O242 O 0.34773 0.21233 0.3483 0.0
Cd243 Cd 0.35683 0.21584 0.31442 0.0
O244 O 0.32939 0.1838 0.344 0.0
Cd245 Cd 0.31435 0.15733 0.35422 0.0
O246 O 0.30512 0.12648 0.35521 0.0
C247 C 0.28785 0.11889 0.35909 0.0
O248 O 0.27454 0.13003 0.3635 0.0
C249 C 0.33768 0.19828 0.35542 0.0
C250 C 0.39397 0.23799 0.31808 0.0
O251 O 0.37885 0.24584 0.31525 0.0
O252 O 0.3916 0.21971 0.31814 0.0
O253 O 0.35915 0.83942 0.3734 0.0
Cd254 Cd 0.32884 0.85133 0.38391 0.0
O255 O 0.35319 0.81191 0.38615 0.0
Cd256 Cd 0.32727 0.81628 0.40385 0.0
O257 O 0.3086 0.80485 0.42721 0.0
C258 C 0.30651 0.81349 0.44435 0.0
O259 O 0.31499 0.83142 0.44876 0.0
C260 C 0.36385 0.82319 0.37595 0.0
C261 C 0.32088 0.88182 0.36394 0.0
O262 O 0.33099 0.88492 0.38007 0.0
O263 O 0.31465 0.86428 0.35707 0.0
O264 O 0.70253 0.68819 0.18584 0.0
Cd265 Cd 0.68666 0.66791 0.2097 0.0
O266 O 0.68204 0.70934 0.18748 0.0
Cd267 Cd 0.66264 0.6995 0.21093 0.0
O268 O 0.63993 0.70648 0.23198 0.0
C269 C 0.62615 0.69477 0.23825 0.0
O270 O 0.62502 0.67626 0.23251 0.0
C271 C 0.69706 0.70301 0.1801 0.0
C272 C 0.70586 0.63631 0.21344 0.0
O273 O 0.693 0.6357 0.19973 0.0
O274 O 0.7097 0.65185 0.2254 0.0
O275 O 0.36651 0.71828 0.18803 0.0
Cd276 Cd 0.33733 0.70009 0.17043 0.0
O277 O 0.37629 0.69383 0.20049 0.0
Cd278 Cd 0.35325 0.66916 0.19286 0.0
O279 O 0.34614 0.641 0.20368 0.0
C280 C 0.33379 0.63839 0.21725 0.0
O281 O 0.32399 0.65232 0.22361 0.0
C282 C 0.37885 0.71154 0.19797 0.0
C283 C 0.33434 0.70874 0.13169 0.0
O284 O 0.32787 0.71911 0.14612 0.0
O285 O 0.34232 0.69441 0.13558 0.0
O286 O 0.37963 0.31138 0.19774 0.0
Cd287 Cd 0.39897 0.33063 0.2256 0.0
O288 O 0.36192 0.33226 0.18798 0.0
Cd289 Cd 0.36884 0.35698 0.21055 0.0
O290 O 0.36069 0.3829 0.22724 0.0
C291 C 0.34447 0.3882 0.22321 0.0
O292 O 0.33309 0.37799 0.20909 0.0
C293 C 0.36712 0.31569 0.18594 0.0
C294 C 0.42874 0.31251 0.24017 0.0
O295 O 0.41104 0.30923 0.24603 0.0
O296 O 0.43242 0.32417 0.22722 0.0
O297 O 0.77906 0.3745 0.23611 0.0
Cd298 Cd 0.7942 0.34604 0.22571 0.0
O299 O 0.76417 0.36188 0.26097 0.0
Cd300 Cd 0.74263 0.36301 0.2843 0.0
O301 O 0.71481 0.36355 0.29927 0.0
C302 C 0.70372 0.37511 0.29459 0.0
O303 O 0.70982 0.38685 0.28162 0.0
C304 C 0.76794 0.37586 0.25084 0.0
C305 C 0.79096 0.33615 0.18491 0.0
O306 O 0.80543 0.34827 0.19272 0.0
O307 O 0.77811 0.32867 0.19641 0.0
O308 O 0.72042 0.40233 0.85275 0.0
Cd309 Cd 0.70651 0.37306 0.86682 0.0
O310 O 0.6978 0.39889 0.82921 0.0
Cd311 Cd 0.67885 0.37348 0.83711 0.0
O312 O 0.65213 0.35227 0.83309 0.0
C313 C 0.6393 0.35514 0.82086 0.0
O314 O 0.64271 0.37053 0.81166 0.0
C315 C 0.71345 0.40811 0.83768 0.0
C316 C 0.73318 0.36078 0.89166 0.0
O317 O 0.73277 0.35574 0.873 0.0
O318 O 0.72104 0.37171 0.89863 0.0
O319 O 0.76771 0.69445 0.91713 0.0
Cd320 Cd 0.75614 0.6836 0.88322 0.0
O321 O 0.73818 0.69514 0.92924 0.0
Cd322 Cd 0.72172 0.69214 0.90127 0.0
O323 O 0.69863 0.70079 0.88367 0.0
C324 C 0.69445 0.71752 0.88886 0.0
O325 O 0.70441 0.72832 0.90364 0.0
C326 C 0.75666 0.69675 0.93181 0.0
C327 C 0.77055 0.65023 0.86751 0.0
O328 O 0.78029 0.66696 0.86628 0.0
O329 O 0.75408 0.64928 0.87625 0.0
O330 O 0.37393 0.74041 0.84813 0.0
Cd331 Cd 0.39183 0.7501 0.81921 0.0
O332 O 0.36671 0.71026 0.83541 0.0
Cd333 Cd 0.35502 0.67962 0.83385 0.0
O334 O 0.34584 0.64902 0.82418 0.0
C335 C 0.34498 0.64355 0.80575 0.0
O336 O 0.34957 0.65645 0.79355 0.0
C337 C 0.36556 0.72339 0.8496 0.0
C338 C 0.42882 0.73906 0.81607 0.0
O339 O 0.42555 0.75309 0.82862 0.0
O340 O 0.41458 0.72998 0.80497 0.0
O341 O 0.3784 0.33715 0.85122 0.0
Cd342 Cd 0.35411 0.3521 0.87189 0.0
O343 O 0.37882 0.31408 0.87016 0.0
Cd344 Cd 0.35826 0.32086 0.89322 0.0
O345 O 0.34811 0.31084 0.9211 0.0
C346 C 0.35349 0.2951 0.92435 0.0
O347 O 0.36398 0.28653 0.91104 0.0
C348 C 0.38488 0.32209 0.85515 0.0
C349 C 0.33232 0.37717 0.85557 0.0
O350 O 0.34908 0.38346 0.86398 0.0
O351 O 0.3262 0.35902 0.85426 0.0
Cu352 Cu 0.29874 0.22657 0.06123 0.0
N353 N 0.31842 0.22699 0.04246 0.0
N354 N 0.33488 0.23508 0.01573 0.0
C355 C 0.32022 0.2385 0.02806 0.0
C356 C 0.34265 0.22081 0.02276 0.0
C357 C 0.33245 0.21582 0.03917 0.0
O358 O 0.27464 0.22459 0.04613 0.0
C359 C 0.30415 0.24883 0.09877 0.0
O360 O 0.29563 0.23298 0.10523 0.0
H361 H 0.31045 0.24874 0.02631 0.0
H362 H 0.33487 0.20451 0.04771 0.0
N363 N 0.29678 0.20475 0.07443 0.0
N364 N 0.28382 0.18344 0.09424 0.0
C365 C 0.28019 0.19621 0.0821 0.0
C366 C 0.31139 0.19706 0.08192 0.0
C367 C 0.30342 0.18377 0.09397 0.0
C368 C 0.26886 0.23817 0.0383 0.0
O369 O 0.27757 0.25595 0.04327 0.0
H370 H 0.26594 0.20024 0.07982 0.0
H371 H 0.32683 0.20188 0.08012 0.0
O372 O 0.30529 0.24964 0.08028 0.0
H373 H 0.35474 0.21427 0.01647 0.0
H374 H 0.31156 0.17607 0.10302 0.0
Cu375 Cu 0.81254 0.31996 0.01156 0.0
N376 N 0.79941 0.31895 0.03541 0.0
N377 N 0.79233 0.32232 0.0675 0.0
C378 C 0.80519 0.32766 0.05352 0.0
C379 C 0.7775 0.31031 0.05749 0.0
C380 C 0.78187 0.30838 0.03781 0.0
O381 O 0.83753 0.33742 0.01434 0.0
C382 C 0.79891 0.32978 0.9753 0.0
O383 O 0.81473 0.32366 0.96802 0.0
H384 H 0.81849 0.33775 0.0563 0.0
H385 H 0.77298 0.29962 0.02603 0.0
N386 N 0.81641 0.29515 1.0014 0.0
N387 N 0.82856 0.2708 0.98437 0.0
C388 C 0.82892 0.29007 0.98731 0.0
C389 C 0.80785 0.27856 0.0075 0.0
C390 C 0.81525 0.26356 0.99703 0.0
C391 C 0.85182 0.33906 0.02664 0.0
O392 O 0.86639 0.35327 0.02606 0.0
H393 H 0.83856 0.30034 0.97991 0.0
H394 H 0.79717 0.27738 0.01897 0.0
O395 O 0.79551 0.32943 0.99355 0.0
H396 H 0.76437 0.30329 0.06378 0.0
H397 H 0.81101 0.24848 0.99858 0.0
Cu398 Cu 0.79079 0.7767 0.06406 0.0
N399 N 0.79494 0.79849 0.05073 0.0
N400 N 0.8047 0.81691 0.02707 0.0
C401 C 0.80416 0.79952 0.03347 0.0
C402 C 0.79533 0.8272 0.04089 0.0
C403 C 0.78935 0.81579 0.05548 0.0
O404 O 0.7903 0.75474 0.04391 0.0
C405 C 0.82629 0.79032 0.08664 0.0
O406 O 0.83077 0.8017 0.07297 0.0
H407 H 0.81012 0.78758 0.02565 0.0
H408 H 0.78148 0.81981 0.06861 0.0
N409 N 0.7667 0.775 0.07663 0.0
N410 N 0.74318 0.76602 0.0976 0.0
C411 C 0.7622 0.76629 0.09285 0.0
C412 C 0.75005 0.78062 0.07096 0.0
C413 C 0.73552 0.77515 0.08391 0.0
C414 C 0.7783 0.73915 0.04372 0.0
O415 O 0.7674 0.73631 0.05912 0.0
H416 H 0.77265 0.75995 0.10074 0.0
H417 H 0.74847 0.78771 0.05802 0.0
O418 O 0.81068 0.77802 0.08463 0.0
H419 H 0.79319 0.84198 0.04066 0.0
H420 H 0.72033 0.77712 0.08286 0.0
Cu421 Cu 0.28897 0.75608 0.99889 0.0
N422 N 0.26253 0.7506 0.00451 0.0
N423 N 0.23556 0.75585 0.02085 0.0
C424 C 0.25496 0.75545 0.02219 0.0
C425 C 0.23065 0.75079 1.00161 0.0
C426 C 0.24735 0.74752 0.99155 0.0
O427 O 0.30374 0.75599 0.02317 0.0
C428 C 0.28569 0.79528 0.99795 0.0
O429 O 0.28017 0.79473 0.01628 0.0
H430 H 0.26389 0.76082 0.03532 0.0
H431 H 0.2487 0.74498 0.97573 0.0
N432 N 0.29594 0.73848 0.9786 0.0
N433 N 0.31135 0.72741 0.95188 0.0
C434 C 0.31042 0.7424 0.96589 0.0
C435 C 0.28727 0.72039 0.97248 0.0
C436 C 0.29677 0.7135 0.95599 0.0
C437 C 0.30721 0.74004 0.02807 0.0
O438 O 0.30221 0.72429 0.01578 0.0
H439 H 0.31958 0.75632 0.96655 0.0
H440 H 0.27473 0.71289 0.97932 0.0
O441 O 0.29205 0.7808 0.98889 0.0
H442 H 0.21635 0.75086 0.99511 0.0
H443 H 0.29311 0.6994 0.94767 0.0
Cu444 Cu 0.02791 0.2847 0.25621 0.0
N445 N 0.05278 0.28975 0.24522 0.0
N446 N 0.08102 0.28378 0.23146 0.0
C447 C 0.06298 0.27617 0.23701 0.0
C448 C 0.08202 0.30299 0.23616 0.0
C449 C 0.06461 0.30662 0.24458 0.0
O450 O 0.02767 0.26347 0.27191 0.0
C451 C 0.99253 0.26585 0.23754 0.0
O452 O 0.99011 0.25839 0.25422 0.0
H453 H 0.05728 0.26095 0.23543 0.0
H454 H 0.061 0.32057 0.25003 0.0
N455 N 0.02007 0.30586 0.27169 0.0
N456 N 0.99972 0.32351 0.28816 0.0
C457 C 1.00128 0.30731 0.27608 0.0
C458 C 0.03075 0.32189 0.28117 0.0
C459 C 0.01824 0.33271 0.2915 0.0
C460 C 0.04181 0.25968 0.282 0.0
O461 O 0.03951 0.2436 0.29008 0.0
H462 H 0.98898 0.29645 0.27087 0.0
H463 H 0.04652 0.32538 0.28093 0.0
O464 O 0.00834 0.27712 0.23506 0.0
H465 H 0.0946 0.31369 0.23414 0.0
H466 H 0.02241 0.34631 0.30066 0.0
Cu467 Cu 0.82282 0.02248 0.25735 0.0
N468 N 0.82976 0.0364 0.2363 0.0
N469 N 0.83785 0.06112 0.21892 0.0
C470 C 0.83023 0.0554 0.23581 0.0
C471 C 0.84204 0.04499 0.20826 0.0
C472 C 0.83705 0.02978 0.21904 0.0
O473 O 0.81657 0.03992 0.27961 0.0
C474 C 0.84504 0.9989 0.27659 0.0
O475 O 0.83264 1.00035 0.29104 0.0
H476 H 0.82532 0.06488 0.24771 0.0
H477 H 0.83919 0.01504 0.21491 0.0
N478 N 0.8003 0.00475 0.25052 0.0
N479 N 0.77631 0.97985 0.25183 0.0
C480 C 0.7938 0.98909 0.25938 0.0
C481 C 0.78656 0.0055 0.23681 0.0
C482 C 0.77174 0.99014 0.23754 0.0
C483 C 0.82785 0.05522 0.28644 0.0
O484 O 0.84586 0.05837 0.28005 0.0
H485 H 0.8017 0.98463 0.27121 0.0
H486 H 0.78708 0.01668 0.22727 0.0
O487 O 0.84389 0.00837 0.26209 0.0
H488 H 0.84899 0.04433 0.19408 0.0
H489 H 0.75838 0.9872 0.22867 0.0
Cu490 Cu 0.02862 0.74934 0.30846 0.0
N491 N 0.01643 0.77093 0.31492 0.0
N492 N 0.99387 0.78986 0.31148 0.0
C493 C 0.99799 0.77176 0.30914 0.0
C494 C 0.01039 0.80093 0.31933 0.0
C495 C 0.0243 0.78919 0.32146 0.0
O496 O 0.00872 0.73068 0.29386 0.0
C497 C 0.06607 0.76655 0.2983 0.0
O498 O 0.068 0.77206 0.31734 0.0
H499 H 0.98829 0.75955 0.30181 0.0
H500 H 0.03942 0.79383 0.32619 0.0
N501 N 0.03763 0.74032 0.33075 0.0
N502 N 0.05546 0.72582 0.34989 0.0
C503 C 0.05198 0.72952 0.33139 0.0
C504 C 0.03179 0.74362 0.34943 0.0
C505 C 0.04272 0.73464 0.36128 0.0
C506 C 0.99621 0.71935 0.30224 0.0
O507 O 0.9993 0.71697 0.32068 0.0
H508 H 0.05968 0.72452 0.31849 0.0
H509 H 0.02052 0.75213 0.35409 0.0
O510 O 0.05024 0.75619 0.29149 0.0
H511 H 0.01257 0.81646 0.32244 0.0
H512 H 0.0417 0.735 0.37711 0.0
Cu513 Cu 0.24256 0.96928 0.289 0.0
N514 N 0.23846 0.98316 0.3133 0.0
N515 N 0.24103 0.00915 0.33576 0.0
C516 C 0.24877 1.00053 0.31963 0.0
C517 C 0.22521 0.99661 0.33987 0.0
C518 C 0.2237 0.98051 0.326 0.0
O519 O 0.24902 0.98812 0.27037 0.0
C520 C 0.27545 0.95643 0.30581 0.0
O521 O 0.27844 0.97357 0.31603 0.0
H522 H 0.26084 0.00732 0.31157 0.0
H523 H 0.21208 0.96827 0.32462 0.0
N524 N 0.21983 0.95331 0.27893 0.0
N525 N 0.20155 0.93084 0.2581 0.0
C526 C 0.21958 0.93732 0.26606 0.0
C527 C 0.20126 0.95699 0.27925 0.0
C528 C 0.18994 0.94315 0.26631 0.0
C529 C 0.23793 1.00103 0.2712 0.0
O530 O 0.22362 1.00053 0.28383 0.0
H531 H 0.23264 0.93139 0.26153 0.0
H532 H 0.19651 0.96942 0.28743 0.0
O533 O 0.26202 0.95262 0.29249 0.0
H534 H 0.21505 0.99918 0.35157 0.0
H535 H 0.17458 0.94257 0.26266 0.0
Cu536 Cu 0.99584 0.78812 0.76335 0.0
N537 N 0.00494 0.76458 0.76338 0.0
N538 N 0.02561 0.74306 0.75947 0.0
C539 C 0.02238 0.76083 0.7565 0.0
C540 C 0.00948 0.73532 0.76857 0.0
C541 C 0.99682 0.74867 0.77107 0.0
O542 O 0.01937 0.80736 0.76549 0.0
C543 C 0.96808 0.77331 0.73311 0.0
O544 O 0.96885 0.7572 0.74055 0.0
H545 H 0.03252 0.77104 0.74949 0.0
H546 H 0.9828 0.74701 0.77823 0.0
N547 N 0.98 0.79276 0.78494 0.0
N548 N 0.95749 0.80545 0.80357 0.0
C549 C 0.96592 0.804 0.78574 0.0
C550 C 0.98051 0.78669 0.80278 0.0
C551 C 0.96662 0.79445 0.8143 0.0
C552 C 0.02109 0.82363 0.77602 0.0
O553 O 0.00546 0.82946 0.7841 0.0
H554 H 0.9625 0.8115 0.77361 0.0
H555 H 0.99044 0.7775 0.80718 0.0
O556 O 0.97967 0.78843 0.74002 0.0
H557 H 0.00719 0.72123 0.77354 0.0
H558 H 0.96359 0.79214 0.82941 0.0
Cu559 Cu 0.26548 0.02119 0.7828 0.0
N560 N 0.28529 0.03861 0.77035 0.0
N561 N 0.30237 0.0659 0.7621 0.0
C562 C 0.29096 0.05761 0.77575 0.0
C563 C 0.30411 0.05145 0.74772 0.0
C564 C 0.29351 0.0347 0.7528 0.0
O565 O 0.25381 0.04437 0.79577 0.0
C566 C 0.292 0.99286 0.77685 0.0
O567 O 0.30071 0.00314 0.79261 0.0
H568 H 0.28623 0.06531 0.78905 0.0
H569 H 0.29109 0.02089 0.74378 0.0
N570 N 0.24541 0.00369 0.79449 0.0
N571 N 0.23113 0.98005 0.81078 0.0
C572 C 0.24803 0.99159 0.80765 0.0
C573 C 0.22633 0.99977 0.78914 0.0
C574 C 0.21746 0.98515 0.79919 0.0
C575 C 0.25215 0.04793 0.81435 0.0
O576 O 0.25752 0.03604 0.82589 0.0
H577 H 0.26212 0.99074 0.81417 0.0
H578 H 0.21952 0.00671 0.77831 0.0
O579 O 0.27679 0.99789 0.76979 0.0
H580 H 0.31143 0.05303 0.7339 0.0
H581 H 0.20218 0.97864 0.79794 0.0
Cu582 Cu 0.06327 0.30999 0.80019 0.0
N583 N 0.05259 0.33205 0.79651 0.0
N584 N 0.03304 0.35041 0.78451 0.0
C585 C 0.03747 0.33251 0.78422 0.0
C586 C 0.04598 0.36173 0.79737 0.0
C587 C 0.05799 0.35033 0.80484 0.0
O588 O 0.04222 0.28806 0.79754 0.0
C589 C 0.09887 0.32166 0.78445 0.0
O590 O 0.09805 0.33546 0.79895 0.0
H591 H 0.02992 0.31993 0.77516 0.0
H592 H 0.06977 0.35504 0.81561 0.0
N593 N 0.07411 0.31132 0.82537 0.0
N594 N 0.09175 0.30329 0.84964 0.0
C595 C 0.08713 0.30029 0.8302 0.0
C596 C 0.07024 0.32173 0.84227 0.0
C597 C 0.08119 0.31686 0.85729 0.0
C598 C 0.02657 0.29066 0.80665 0.0
O599 O 0.02562 0.30749 0.81668 0.0
H600 H 0.09304 0.29023 0.81956 0.0
H601 H 0.05992 0.33181 0.84364 0.0
O602 O 0.08447 0.30794 0.78172 0.0
H603 H 0.04648 0.37706 0.80134 0.0
H604 H 0.08094 0.32249 0.87271 0.0
Cu605 Cu 0.76466 0.01997 0.7626 0.0
N606 N 0.76545 0.03332 0.78786 0.0
N607 N 0.77883 0.05476 0.81269 0.0
C608 C 0.78187 0.04455 0.79536 0.0
C609 C 0.75963 0.04966 0.81635 0.0
C610 C 0.75139 0.0363 0.80099 0.0
O611 O 0.76718 0.03905 0.74376 0.0
C612 C 0.78146 0.98989 0.77315 0.0
O613 O 0.76427 0.98715 0.78137 0.0
H614 H 0.79553 0.04609 0.78753 0.0
H615 H 0.7361 0.03009 0.79907 0.0
N616 N 0.74118 0.00354 0.75573 0.0
N617 N 0.72201 0.98046 0.73639 0.0
C618 C 0.73763 0.99451 0.73735 0.0
C619 C 0.72704 0.99512 0.76683 0.0
C620 C 0.71526 0.98068 0.7549 0.0
C621 C 0.75672 0.05242 0.74728 0.0
O622 O 0.74591 0.05271 0.76304 0.0
H623 H 0.74739 0.9971 0.72525 0.0
H624 H 0.72629 0.99811 0.78266 0.0
O625 O 0.78548 0.00401 0.76308 0.0
H626 H 0.75198 0.05557 0.82887 0.0
H627 H 0.70337 0.97051 0.75962 0.0
Cu628 Cu 0.27747 0.74534 0.57379 0.0
N629 N 0.30144 0.75326 0.58762 0.0
N630 N 0.32126 0.76679 0.61308 0.0
C631 C 0.30368 0.75637 0.60742 0.0
C632 C 0.33053 0.7704 0.59631 0.0
C633 C 0.3183 0.76199 0.58062 0.0
O634 O 0.25705 0.74053 0.59308 0.0
C635 C 0.28366 0.76395 0.54065 0.0
O636 O 0.29505 0.75075 0.53733 0.0
H637 H 0.29211 0.75249 0.61752 0.0
H638 H 0.32104 0.76337 0.56527 0.0
N639 N 0.27598 0.72243 0.55662 0.0
N640 N 0.26511 0.70277 0.52945 0.0
C641 C 0.26196 0.71778 0.54246 0.0
C642 C 0.28841 0.70962 0.55278 0.0
C643 C 0.28163 0.69733 0.53599 0.0
C644 C 0.25813 0.726 0.60219 0.0
O645 O 0.27247 0.71609 0.59794 0.0
H646 H 0.25021 0.72608 0.54115 0.0
H647 H 0.30195 0.70989 0.56086 0.0
O648 O 0.27419 0.76506 0.55669 0.0
H649 H 0.34477 0.77911 0.59551 0.0
H650 H 0.28895 0.68617 0.52848 0.0
Cu651 Cu 0.79416 0.79447 0.47025 0.0
N652 N 0.80586 0.7774 0.45284 0.0
N653 N 0.8163 0.76335 0.4247 0.0
C654 C 0.81316 0.7801 0.43494 0.0
C655 C 0.81104 0.74973 0.43667 0.0
C656 C 0.80452 0.7584 0.45392 0.0
O657 O 0.77242 0.8027 0.45713 0.0
C658 C 0.79988 0.7767 0.50325 0.0
O659 O 0.81704 0.77633 0.49508 0.0
H660 H 0.81446 0.79367 0.42891 0.0
H661 H 0.79796 0.75113 0.46587 0.0
N662 N 0.81102 0.81702 0.47916 0.0
N663 N 0.81656 0.84374 0.50079 0.0
C664 C 0.81091 0.82453 0.49815 0.0
C665 C 0.81753 0.83197 0.46926 0.0
C666 C 0.82099 0.84851 0.4826 0.0
C667 C 0.76429 0.7943 0.441 0.0
O668 O 0.7688 0.77761 0.43356 0.0
H669 H 0.80361 0.81663 0.50931 0.0
H670 H 0.81722 0.83136 0.45337 0.0
O671 O 0.78657 0.78298 0.49412 0.0
H672 H 0.81097 0.73445 0.43282 0.0
H673 H 0.82432 0.86306 0.47888 0.0
Cu674 Cu 0.79324 0.26324 0.53081 0.0
N675 N 0.79311 0.24117 0.51273 0.0
N676 N 0.78587 0.22101 0.48498 0.0
C677 C 0.78311 0.23779 0.4954 0.0
C678 C 0.79803 0.21353 0.49639 0.0
C679 C 0.80248 0.22599 0.51346 0.0
O680 O 0.79316 0.28437 0.5148 0.0
C681 C 0.77438 0.24407 0.55902 0.0
O682 O 0.79063 0.23668 0.55648 0.0
H683 H 0.77446 0.24781 0.49034 0.0
H684 H 0.81197 0.22415 0.52545 0.0
N685 N 0.81585 0.26953 0.54691 0.0
N686 N 0.83431 0.28323 0.57332 0.0
C687 C 0.81665 0.28106 0.56411 0.0
C688 C 0.83369 0.2642 0.54497 0.0
C689 C 0.84515 0.27268 0.56125 0.0
C690 C 0.80691 0.28484 0.5023 0.0
O691 O 0.8191 0.27234 0.50235 0.0
H692 H 0.8044 0.28783 0.56962 0.0
H693 H 0.83804 0.25477 0.53268 0.0
O694 O 0.77153 0.25727 0.54863 0.0
H695 H 0.80338 0.2 0.49276 0.0
H696 H 0.86015 0.27091 0.5641 0.0
Cu697 Cu 0.29714 0.25666 0.5067 0.0
N698 N 0.31663 0.27713 0.51542 0.0
N699 N 0.3324 0.29792 0.53949 0.0
C700 C 0.32456 0.27949 0.53368 0.0
C701 C 0.32955 0.30754 0.52413 0.0
C702 C 0.31992 0.29464 0.50921 0.0
O703 O 0.28515 0.24957 0.53093 0.0
C704 C 0.28406 0.27013 0.47294 0.0
O705 O 0.30167 0.26783 0.46683 0.0
H706 H 0.32199 0.26858 0.54359 0.0
H707 H 0.31359 0.29828 0.49596 0.0
N708 N 0.30841 0.23678 0.49322 0.0
N709 N 0.31612 0.21594 0.46844 0.0
C710 C 0.30282 0.22696 0.47551 0.0
C711 C 0.32562 0.23151 0.49772 0.0
C712 C 0.33043 0.21866 0.48244 0.0
C713 C 0.28715 0.23436 0.53836 0.0
O714 O 0.29369 0.22025 0.52743 0.0
H715 H 0.29013 0.22914 0.46724 0.0
H716 H 0.33454 0.23746 0.51068 0.0
O717 O 0.27885 0.2658 0.48989 0.0
H718 H 0.33212 0.32305 0.52457 0.0
H719 H 0.34395 0.21268 0.4812 0.0
Cu720 Cu 0.80287 0.53676 0.77423 0.0
N721 N 0.80309 0.5518 0.75364 0.0
N722 N 0.80627 0.57737 0.73708 0.0
C723 C 0.80356 0.57097 0.75484 0.0
C724 C 0.80727 0.56157 0.7242 0.0
C725 C 0.80529 0.54582 0.73446 0.0
O726 O 0.80399 0.55358 0.79891 0.0
C727 C 0.82889 0.50939 0.77954 0.0
O728 O 0.81994 0.50651 0.79609 0.0
H729 H 0.80292 0.58018 0.76857 0.0
H730 H 0.80609 0.53112 0.72851 0.0
N731 N 0.77929 0.51976 0.773 0.0
N732 N 0.75588 0.49587 0.77945 0.0
C733 C 0.77401 0.50559 0.78429 0.0
C734 C 0.76395 0.51918 0.7607 0.0
C735 C 0.7495 0.50448 0.76461 0.0
C736 C 0.81732 0.56804 0.80311 0.0
O737 O 0.83264 0.57023 0.79176 0.0
H738 H 0.78337 0.50239 0.79569 0.0
H739 H 0.76332 0.52881 0.74966 0.0
O740 O 0.82446 0.52226 0.76964 0.0
H741 H 0.80967 0.56143 0.70854 0.0
H742 H 0.73537 0.50063 0.75715 0.0
Cu743 Cu 0.2724 0.49975 0.78692 0.0
N744 N 0.26983 0.48366 0.80685 0.0
N745 N 0.27854 0.46116 0.824 0.0
C746 C 0.28482 0.47621 0.81402 0.0
C747 C 0.25877 0.45922 0.82329 0.0
C748 C 0.25345 0.47309 0.81268 0.0
O749 O 0.27867 0.48334 0.76391 0.0
C750 C 0.29963 0.53263 0.78208 0.0
O751 O 0.29399 0.52837 0.76349 0.0
H752 H 0.29998 0.48067 0.81053 0.0
H753 H 0.23871 0.47444 0.80832 0.0
N754 N 0.24939 0.50948 0.78172 0.0
N755 N 0.23034 0.53027 0.77327 0.0
C756 C 0.24809 0.52807 0.78025 0.0
C757 C 0.2318 0.49955 0.77556 0.0
C758 C 0.22002 0.51231 0.77039 0.0
C759 C 0.29557 0.47843 0.76203 0.0
O760 O 0.30989 0.48735 0.77401 0.0
H761 H 0.26029 0.53964 0.78324 0.0
H762 H 0.2281 0.48404 0.77414 0.0
O763 O 0.29279 0.5214 0.79442 0.0
H764 H 0.24887 0.44803 0.82922 0.0
H765 H 0.20515 0.50856 0.76457 0.0
Cu766 Cu 0.27755 0.50317 0.2956 0.0
N767 N 0.27852 0.49273 0.31927 0.0
N768 N 0.26896 0.47185 0.34073 0.0
C769 C 0.26681 0.47642 0.32235 0.0
C770 C 0.28279 0.48595 0.34955 0.0
C771 C 0.28863 0.49889 0.33626 0.0
O772 O 0.28079 0.4823 0.27506 0.0
C773 C 0.25389 0.52826 0.30942 0.0
O774 O 0.27019 0.53412 0.3198 0.0
H775 H 0.25691 0.46806 0.31112 0.0
H776 H 0.29918 0.51194 0.33889 0.0
N777 N 0.29729 0.52388 0.29239 0.0
N778 N 0.31084 0.55088 0.28073 0.0
C779 C 0.29438 0.53819 0.28198 0.0
C780 C 0.31636 0.5277 0.298 0.0
C781 C 0.32482 0.54435 0.29066 0.0
C782 C 0.29671 0.47572 0.27754 0.0
O783 O 0.30816 0.48355 0.29266 0.0
H784 H 0.28045 0.53908 0.27513 0.0
H785 H 0.32365 0.51898 0.30666 0.0
O786 O 0.25295 0.51354 0.2965 0.0
H787 H 0.28802 0.48712 0.36465 0.0
H788 H 0.33994 0.55122 0.29262 0.0
Cu789 Cu 0.76841 0.51225 0.278 0.0
N790 N 0.79223 0.5029 0.27845 0.0
N791 N 0.81257 0.48233 0.28385 0.0
C792 C 0.79377 0.48516 0.28279 0.0
C793 C 0.82339 0.49899 0.27999 0.0
C794 C 0.81075 0.51165 0.2765 0.0
O795 O 0.74882 0.48926 0.27546 0.0
C796 C 0.77889 0.53579 0.31448 0.0
O797 O 0.7937 0.52632 0.31548 0.0
H798 H 0.78133 0.4748 0.28602 0.0
H799 H 0.81476 0.52636 0.27344 0.0
N800 N 0.76684 0.52723 0.25753 0.0
N801 N 0.75931 0.55166 0.24271 0.0
C802 C 0.75851 0.54329 0.25943 0.0
C803 C 0.77338 0.52542 0.23895 0.0
C804 C 0.76854 0.54043 0.22967 0.0
C805 C 0.74246 0.48089 0.25865 0.0
O806 O 0.744 0.49077 0.24353 0.0
H807 H 0.75175 0.54862 0.27281 0.0
H808 H 0.78102 0.514 0.23262 0.0
O809 O 0.7654 0.52966 0.30154 0.0
H810 H 0.83925 0.50188 0.27996 0.0
H811 H 0.77179 0.54303 0.21466 0.0
Cu812 Cu 0.5076 0.26656 0.76254 0.0
N813 N 0.49227 0.26278 0.7846 0.0
N814 N 0.46874 0.2672 0.80641 0.0
C815 C 0.4769 0.27191 0.78936 0.0
C816 C 0.4795 0.25451 0.81252 0.0
C817 C 0.49399 0.25183 0.79904 0.0
O818 O 0.48926 0.26977 0.74214 0.0
C819 C 0.53944 0.28771 0.78305 0.0
O820 O 0.53732 0.27185 0.79152 0.0
H821 H 0.47183 0.28178 0.78035 0.0
H822 H 0.50517 0.2428 0.79989 0.0
N823 N 0.52137 0.24622 0.75457 0.0
N824 N 0.54627 0.23181 0.74253 0.0
C825 C 0.53864 0.24836 0.74536 0.0
C826 C 0.5178 0.22762 0.75767 0.0
C827 C 0.5331 0.21867 0.75017 0.0
C828 C 0.47689 0.25504 0.73578 0.0
O829 O 0.47894 0.23836 0.74138 0.0
H830 H 0.54553 0.26196 0.74102 0.0
H831 H 0.5052 0.22113 0.76522 0.0
O832 O 0.52727 0.28909 0.76946 0.0
H833 H 0.47742 0.24793 0.82599 0.0
H834 H 0.53469 0.20381 0.75091 0.0
Cu835 Cu 0.56753 0.77006 0.81067 0.0
N836 N 0.58421 0.77298 0.83278 0.0
N837 N 0.60858 0.76933 0.85292 0.0
C838 C 0.59965 0.76385 0.83507 0.0
C839 C 0.59826 0.78238 0.86214 0.0
C840 C 0.58327 0.78459 0.84971 0.0
O841 O 0.58302 0.77296 0.78729 0.0
C842 C 0.54247 0.7402 0.82467 0.0
O843 O 0.55256 0.74604 0.84117 0.0
H844 H 0.60433 0.75358 0.82375 0.0
H845 H 0.57234 0.79389 0.85283 0.0
N846 N 0.55103 0.78872 0.81254 0.0
N847 N 0.52358 0.80103 0.80841 0.0
C848 C 0.53196 0.78497 0.80705 0.0
C849 C 0.55494 0.80789 0.81761 0.0
C850 C 0.538 0.81555 0.81503 0.0
C851 C 0.59615 0.78778 0.78803 0.0
O852 O 0.59895 0.79944 0.80459 0.0
H853 H 0.52455 0.77078 0.80137 0.0
H854 H 0.56914 0.81579 0.82249 0.0
O855 O 0.54931 0.74612 0.80884 0.0
H856 H 0.60109 0.78961 0.87696 0.0
H857 H 0.53645 0.83061 0.81771 0.0
Cu858 Cu 0.4965 0.75935 0.30029 0.0
N859 N 0.48154 0.7665 0.32203 0.0
N860 N 0.45682 0.77664 0.33921 0.0
C861 C 0.46218 0.76757 0.32204 0.0
C862 C 0.47325 0.78136 0.35048 0.0
C863 C 0.48845 0.77499 0.33992 0.0
O864 O 0.4797 0.75042 0.27739 0.0
C865 C 0.53131 0.78423 0.30748 0.0
O866 O 0.53174 0.77382 0.32208 0.0
H867 H 0.45246 0.76286 0.30937 0.0
H868 H 0.50362 0.77724 0.34472 0.0
N869 N 0.50992 0.739 0.30374 0.0
N870 N 0.53253 0.71971 0.29772 0.0
C871 C 0.52594 0.73574 0.29352 0.0
C872 C 0.50602 0.72443 0.31478 0.0
C873 C 0.51997 0.71243 0.31104 0.0
C874 C 0.46894 0.7599 0.2686 0.0
O875 O 0.46885 0.77816 0.2748 0.0
H876 H 0.53233 0.74476 0.28276 0.0
H877 H 0.49378 0.72253 0.32458 0.0
O878 O 0.51644 0.78084 0.29581 0.0
H879 H 0.47426 0.78933 0.36509 0.0
H880 H 0.52081 0.69941 0.31759 0.0
Cu881 Cu 0.55165 0.29742 0.31949 0.0
N882 N 0.5325 0.29505 0.3386 0.0
N883 N 0.5027 0.28556 0.34997 0.0
C884 C 0.51304 0.293 0.33523 0.0
C885 C 0.51626 0.28363 0.36357 0.0
C886 C 0.53462 0.2895 0.3565 0.0
O887 O 0.53831 0.29676 0.29414 0.0
C888 C 0.58303 0.27549 0.31179 0.0
O889 O 0.58741 0.2861 0.29745 0.0
H890 H 0.50659 0.29497 0.32137 0.0
H891 H 0.5485 0.28808 0.36308 0.0
N892 N 0.56784 0.32113 0.32481 0.0
N893 N 0.59555 0.34233 0.32795 0.0
C894 C 0.5873 0.32384 0.32837 0.0
C895 C 0.56346 0.33858 0.3225 0.0
C896 C 0.58055 0.35171 0.32438 0.0
C897 C 0.52408 0.28375 0.28785 0.0
O898 O 0.52035 0.26823 0.29682 0.0
H899 H 0.59548 0.31224 0.32977 0.0
H900 H 0.54907 0.34132 0.31854 0.0
O901 O 0.56756 0.27722 0.3215 0.0
H902 H 0.51323 0.27701 0.37692 0.0
H903 H 0.58193 0.36676 0.32234 0.0
H904 H 0.23667 0.1328 0.15224 0.0
H905 H 0.20349 0.17996 0.15838 0.0
H906 H 0.22427 0.19574 0.13428 0.0
H907 H 0.25239 0.19628 0.11179 0.0
H908 H 0.28519 0.14889 0.10622 0.0
H909 H 0.26393 0.133 0.1298 0.0
C910 C 0.23386 0.14654 0.14839 0.0
C911 C 0.21846 0.15515 0.15729 0.0
C912 C 0.24582 0.15546 0.13454 0.0
C913 C 0.2152 0.17298 0.15196 0.0
C914 C 0.22709 0.182 0.13809 0.0
C915 C 0.25468 0.18235 0.11553 0.0
C916 C 0.27034 0.17372 0.10721 0.0
C917 C 0.24246 0.17336 0.12929 0.0
C918 C 0.27335 0.15585 0.11251 0.0
C919 C 0.26118 0.14677 0.12597 0.0
H920 H 0.85201 0.27548 0.08378 0.0
H921 H 0.86115 0.32598 0.12685 0.0
H922 H 0.86058 0.34653 0.1007 0.0
H923 H 0.85789 0.3502 0.0655 0.0
H924 H 0.84813 0.29991 0.02263 0.0
H925 H 0.84838 0.27915 0.04867 0.0
C926 C 0.85393 0.29098 0.08744 0.0
C927 C 0.85684 0.29918 0.10722 0.0
C928 C 0.85329 0.30271 0.07236 0.0
C929 C 0.85901 0.31929 0.11174 0.0
C930 C 0.85872 0.33107 0.0968 0.0
C931 C 0.85574 0.33467 0.06194 0.0
C932 C 0.85201 0.32645 0.04228 0.0
C933 C 0.85595 0.32294 0.07706 0.0
C934 C 0.84963 0.30641 0.03774 0.0
C935 C 0.85019 0.2946 0.05263 0.0
H936 H 0.85614 0.80337 0.17512 0.0
H937 H 0.89365 0.8506 0.15341 0.0
H938 H 0.88155 0.83914 0.1199 0.0
H939 H 0.8579 0.81778 0.09728 0.0
H940 H 0.81955 0.77114 0.11902 0.0
H941 H 0.83458 0.78017 0.15183 0.0
C942 C 0.86191 0.81099 0.16303 0.0
C943 C 0.87565 0.82796 0.16689 0.0
C944 C 0.85462 0.80451 0.14376 0.0
C945 C 0.88296 0.8376 0.15097 0.0
C946 C 0.87602 0.83107 0.13176 0.0
C947 C 0.853 0.80939 0.1091 0.0
C948 C 0.83745 0.79393 0.10567 0.0
C949 C 0.86146 0.81487 0.12805 0.0
C950 C 0.8314 0.78319 0.12121 0.0
C951 C 0.83995 0.78838 0.14004 0.0
H952 H 0.19598 0.79146 0.09603 0.0
H953 H 0.17416 0.82335 0.05308 0.0
H954 H 0.19066 0.80575 0.02696 0.0
H955 H 0.21161 0.78151 0.01629 0.0
H956 H 0.23472 0.75066 0.05918 0.0
H957 H 0.21731 0.7675 0.08539 0.0
C958 C 0.19486 0.79458 0.08096 0.0
C959 C 0.18383 0.80871 0.07654 0.0
C960 C 0.2045 0.78448 0.066 0.0
C961 C 0.1826 0.81262 0.05693 0.0
C962 C 0.19197 0.8025 0.04195 0.0
C963 C 0.21253 0.77828 0.03133 0.0
C964 C 0.22413 0.76469 0.03585 0.0
C965 C 0.20291 0.78837 0.0463 0.0
C966 C 0.22573 0.761 0.05546 0.0
C967 C 0.21584 0.77065 0.07038 0.0
H968 H 0.24375 0.85582 0.96125 0.0
H969 H 0.25759 0.82228 0.9076 0.0
H970 H 0.27699 0.80445 0.92642 0.0
H971 H 0.28675 0.79585 0.95822 0.0
H972 H 0.27139 0.82809 0.01207 0.0
H973 H 0.2562 0.84914 0.99304 0.0
C974 C 0.25128 0.84483 0.95364 0.0
C975 C 0.24904 0.84028 0.93305 0.0
C976 C 0.26207 0.8343 0.9646 0.0
C977 C 0.25891 0.82599 0.92344 0.0
C978 C 0.27 0.81575 0.9342 0.0
C979 C 0.28044 0.80771 0.96584 0.0
C980 C 0.28008 0.81024 0.98659 0.0
C981 C 0.27121 0.81941 0.95482 0.0
C982 C 0.2718 0.82571 0.99614 0.0
C983 C 0.26302 0.83772 0.98526 0.0
H984 H 0.21789 0.23177 0.96032 0.0
H985 H 0.2293 0.17321 0.95634 0.0
H986 H 0.24636 0.18032 0.98829 0.0
H987 H 0.259 0.20328 0.0167 0.0
H988 H 0.24929 0.26229 0.02014 0.0
H989 H 0.23031 0.25477 0.98914 0.0
C990 C 0.22405 0.22052 0.96645 0.0
C991 C 0.22232 0.20197 0.95586 0.0
C992 C 0.23404 0.22476 0.98477 0.0
C993 C 0.23048 0.18763 0.96405 0.0
C994 C 0.24019 0.19166 0.98237 0.0
C995 C 0.25252 0.21448 0.01086 0.0
C996 C 0.25548 0.23332 0.02082 0.0
C997 C 0.24214 0.21018 0.9928 0.0
C998 C 0.24719 0.24767 0.01282 0.0
C999 C 0.23641 0.24339 0.99505 0.0
H1000 H 0.86979 0.2114 0.93099 0.0
H1001 H 0.87577 0.25679 0.89357 0.0
H1002 H 0.86124 0.27739 0.91883 0.0
H1003 H 0.84428 0.28141 0.95038 0.0
H1004 H 0.83865 0.23587 0.98758 0.0
H1005 H 0.8554 0.21639 0.96343 0.0
C1006 C 0.86812 0.22587 0.92839 0.0
C1007 C 0.87371 0.23244 0.91031 0.0
C1008 C 0.85955 0.23754 0.94284 0.0
C1009 C 0.87157 0.25131 0.90732 0.0
C1010 C 0.86316 0.26308 0.92173 0.0
C1011 C 0.84698 0.26736 0.95336 0.0
C1012 C 0.83989 0.26005 0.97069 0.0
C1013 C 0.85672 0.25619 0.93938 0.0
C1014 C 0.84346 0.24172 0.9742 0.0
C1015 C 0.85318 0.23059 0.96044 0.0
H1016 H 0.8518 0.8329 0.95082 0.0
H1017 H 0.812 0.87393 0.94839 0.0
H1018 H 0.79694 0.86455 0.97888 0.0
H1019 H 0.79484 0.84425 0.00605 0.0
H1020 H 0.83509 0.80357 0.00806 0.0
H1021 H 0.85004 0.81316 0.97785 0.0
C1022 C 0.83984 0.83985 0.95691 0.0
C1023 C 0.83307 0.85412 0.94726 0.0
C1024 C 0.83125 0.83437 0.97438 0.0
C1025 C 0.81753 0.86291 0.95547 0.0
C1026 C 0.8089 0.85754 0.97292 0.0
C1027 C 0.80698 0.8376 0.99998 0.0
C1028 C 0.8137 0.82308 0.00935 0.0
C1029 C 0.81563 0.84325 0.98251 0.0
C1030 C 0.82934 0.8145 1.00107 0.0
C1031 C 0.83802 0.82007 0.98382 0.0
H1032 H 0.15212 0.25137 0.18912 0.0
H1033 H 0.12582 0.20032 0.21363 0.0
H1034 H 0.10021 0.21737 0.22819 0.0
H1035 H 0.08532 0.24679 0.23419 0.0
H1036 H 0.11123 0.29768 0.20922 0.0
H1037 H 0.13698 0.28075 0.1949 0.0
C1038 C 0.14079 0.24394 0.19763 0.0
C1039 C 0.14097 0.22453 0.20021 0.0
C1040 C 0.12602 0.25384 0.20599 0.0
C1041 C 0.12611 0.21522 0.21133 0.0
C1042 C 0.11142 0.22497 0.2197 0.0
C1043 C 0.09644 0.25418 0.22547 0.0
C1044 C 0.09619 0.27358 0.22286 0.0
C1045 C 0.1112 0.24428 0.21711 0.0
C1046 C 0.11106 0.28288 0.21174 0.0
C1047 C 0.12579 0.27315 0.20342 0.0
H1048 H 0.85886 0.13985 0.18451 0.0
H1049 H 0.86303 0.16107 0.24652 0.0
H1050 H 0.8539 0.12835 0.25475 0.0
H1051 H 0.84533 0.09372 0.24441 0.0
H1052 H 0.84069 0.07245 0.18246 0.0
H1053 H 0.84957 0.1052 0.17417 0.0
C1054 C 0.8578 0.13734 0.19983 0.0
C1055 C 0.86168 0.15293 0.21486 0.0
C1056 C 0.85249 0.11847 0.20449 0.0
C1057 C 0.86015 0.14937 0.23464 0.0
C1058 C 0.85492 0.13065 0.23937 0.0
C1059 C 0.84598 0.09622 0.22908 0.0
C1060 C 0.84231 0.08057 0.21408 0.0
C1061 C 0.85107 0.11509 0.22442 0.0
C1062 C 0.84363 0.08416 0.1943 0.0
C1063 C 0.84864 0.10291 0.18955 0.0
H1064 H 0.91396 0.80029 0.27363 0.0
H1065 H 0.94898 0.8532 0.26101 0.0
H1066 H 0.97704 0.84537 0.27842 0.0
H1067 H 0.99198 0.82301 0.29635 0.0
H1068 H 0.95714 0.76987 0.30839 0.0
H1069 H 0.92871 0.77825 0.29209 0.0
C1070 C 0.92771 0.81014 0.27471 0.0
C1071 C 0.92934 0.8273 0.26598 0.0
C1072 C 0.94384 0.80551 0.28468 0.0
C1073 C 0.94731 0.83986 0.26752 0.0
C1074 C 0.96337 0.83542 0.27753 0.0
C1075 C 0.97808 0.81345 0.29574 0.0
C1076 C 0.9767 0.79588 0.30367 0.0
C1077 C 0.96183 0.81826 0.28612 0.0
C1078 C 0.95863 0.78345 0.30235 0.0
C1079 C 0.94236 0.78823 0.29303 0.0
H1080 H 0.18908 0.85807 0.19458 0.0
H1081 H 0.15833 0.89526 0.16487 0.0
H1082 H 0.16543 0.92062 0.19266 0.0
H1083 H 0.18011 0.93213 0.22566 0.0
H1084 H 0.21248 0.89579 0.25457 0.0
H1085 H 0.20484 0.87003 0.22705 0.0
C1086 C 0.18381 0.87167 0.1943 0.0
C1087 C 0.17296 0.87471 0.17786 0.0
C1088 C 0.18816 0.88627 0.21024 0.0
C1089 C 0.16672 0.8926 0.17738 0.0
C1090 C 0.17069 0.90707 0.1933 0.0
C1091 C 0.18529 0.91848 0.22594 0.0
C1092 C 0.19659 0.91565 0.24214 0.0
C1093 C 0.18128 0.90402 0.20985 0.0
C1094 C 0.20369 0.89814 0.24222 0.0
C1095 C 0.19934 0.88348 0.22652 0.0
H1096 H 0.09756 0.87077 0.81881 0.0
H1097 H 0.12343 0.82606 0.78474 0.0
H1098 H 0.09185 0.81325 0.7685 0.0
H1099 H 0.05642 0.81317 0.76583 0.0
H1100 H 0.03034 0.85755 0.8002 0.0
H1101 H 0.0625 0.87218 0.81417 0.0
C1102 C 0.09634 0.85832 0.80771 0.0
C1103 C 0.11284 0.84929 0.80319 0.0
C1104 C 0.07807 0.85094 0.79846 0.0
C1105 C 0.11099 0.83327 0.78863 0.0
C1106 C 0.0929 0.8259 0.77932 0.0
C1107 C 0.05777 0.82621 0.77615 0.0
C1108 C 0.0409 0.83413 0.78205 0.0
C1109 C 0.07627 0.8344 0.78438 0.0
C1110 C 0.04301 0.85107 0.79542 0.0
C1111 C 0.06141 0.85941 0.8035 0.0
H1112 H 0.22713 0.12936 0.84054 0.0
H1113 H 0.20845 0.10163 0.89161 0.0
H1114 H 0.22001 0.07226 0.87716 0.0
H1115 H 0.23554 0.05439 0.85004 0.0
H1116 H 0.25233 0.08128 0.79801 0.0
H1117 H 0.24138 0.11094 0.81271 0.0
C1118 C 0.22564 0.11689 0.84851 0.0
C1119 C 0.21705 0.11773 0.86719 0.0
C1120 C 0.23195 0.09986 0.8399 0.0
C1121 C 0.21499 0.10137 0.87721 0.0
C1122 C 0.22162 0.08456 0.86896 0.0
C1123 C 0.2368 0.06675 0.84193 0.0
C1124 C 0.24482 0.06565 0.823 0.0
C1125 C 0.23013 0.08364 0.85033 0.0
C1126 C 0.24615 0.08171 0.81257 0.0
C1127 C 0.23994 0.09871 0.821 0.0
H1128 H 0.96467 0.22057 0.82532 0.0
H1129 H 0.92573 0.26164 0.81881 0.0
H1130 H 0.95307 0.28448 0.80905 0.0
H1131 H 0.98841 0.2939 0.80527 0.0
H1132 H 0.0275 0.25273 0.80997 0.0
H1133 H 0.99973 0.22864 0.81722 0.0
C1134 C 0.96218 0.23445 0.82156 0.0
C1135 C 0.94325 0.23952 0.82304 0.0
C1136 C 0.97797 0.24746 0.81566 0.0
C1137 C 0.94015 0.25742 0.81785 0.0
C1138 C 0.95579 0.27052 0.81232 0.0
C1139 C 0.99076 0.27953 0.80757 0.0
C1140 C 0.00988 0.27505 0.80728 0.0
C1141 C 0.97479 0.26585 0.81159 0.0
C1142 C 0.01284 0.2564 0.81005 0.0
C1143 C 0.997 0.24272 0.81435 0.0
H1144 H 0.84582 0.9522 0.81261 0.0
H1145 H 0.79795 0.90468 0.80796 0.0
H1146 H 0.77874 0.9222 0.78879 0.0
H1147 H 0.77389 0.95224 0.77673 0.0
H1148 H 0.82106 1.00013 0.78089 0.0
H1149 H 0.84233 0.98116 0.79644 0.0
C1150 C 0.8313 0.94557 0.80716 0.0
C1151 C 0.82328 0.9272 0.81204 0.0
C1152 C 0.82018 0.95582 0.79606 0.0
C1153 C 0.80449 0.9188 0.80465 0.0
C1154 C 0.79343 0.92884 0.79366 0.0
C1155 C 0.78899 0.95838 0.78064 0.0
C1156 C 0.7959 0.97756 0.77777 0.0
C1157 C 0.80091 0.94752 0.78977 0.0
C1158 C 0.81548 0.98534 0.7828 0.0
C1159 C 0.82754 0.97454 0.7919 0.0
H1160 H 0.22451 0.05197 0.20538 0.0
H1161 H 0.22034 0.09281 0.25686 0.0
H1162 H 0.23105 0.07078 0.27781 0.0
H1163 H 0.23722 0.03841 0.28199 0.0
H1164 H 0.24182 0.99728 0.23113 0.0
H1165 H 0.23576 0.02103 0.20936 0.0
C1166 C 0.22624 0.05616 0.22114 0.0
C1167 C 0.22127 0.07391 0.22955 0.0
C1168 C 0.23245 0.04336 0.2332 0.0
C1169 C 0.22387 0.07921 0.24998 0.0
C1170 C 0.22997 0.0666 0.26201 0.0
C1171 C 0.23742 0.03486 0.2661 0.0
C1172 C 0.23987 0.01621 0.25808 0.0
C1173 C 0.23369 0.04844 0.25385 0.0
C1174 C 0.24015 0.01166 0.23755 0.0
C1175 C 0.23644 0.02516 0.22516 0.0
H1176 H 0.22666 0.9224 0.87407 0.0
H1177 H 0.1871 0.88801 0.83003 0.0
H1178 H 0.19203 0.9137 0.80905 0.0
H1179 H 0.20756 0.94606 0.80315 0.0
H1180 H 0.24882 0.97973 0.84596 0.0
H1181 H 0.24365 0.95408 0.86731 0.0
C1182 C 0.21915 0.92051 0.85986 0.0
C1183 C 0.20587 0.90358 0.85402 0.0
C1184 C 0.2225 0.93519 0.84759 0.0
C1185 C 0.19653 0.90125 0.83542 0.0
C1186 C 0.1996 0.91585 0.82323 0.0
C1187 C 0.2153 0.9478 0.81721 0.0
C1188 C 0.2284 0.96479 0.8231 0.0
C1189 C 0.21239 0.93295 0.82925 0.0
C1190 C 0.23872 0.96672 0.84113 0.0
C1191 C 0.2357 0.95211 0.85335 0.0
H1192 H 0.15041 0.27251 0.90373 0.0
H1193 H 0.14058 0.22411 0.85811 0.0
H1194 H 0.11823 0.2403 0.84078 0.0
H1195 H 0.10133 0.26801 0.83874 0.0
H1196 H 0.11161 0.31663 0.88403 0.0
H1197 H 0.13372 0.30035 0.90149 0.0
C1198 C 0.1434 0.26547 0.88999 0.0
C1199 C 0.14721 0.2471 0.88224 0.0
C1200 C 0.13057 0.27485 0.88009 0.0
C1201 C 0.13795 0.23824 0.86442 0.0
C1202 C 0.12515 0.24748 0.8545 0.0
C1203 C 0.10855 0.27519 0.8523 0.0
C1204 C 0.10479 0.2936 0.85998 0.0
C1205 C 0.12137 0.26579 0.86219 0.0
C1206 C 0.11401 0.30241 0.87784 0.0
C1207 C 0.12677 0.29315 0.88779 0.0
H1208 H 0.85011 0.11639 0.8453 0.0
H1209 H 0.80315 0.14781 0.86378 0.0
H1210 H 0.77899 0.12014 0.85115 0.0
H1211 H 0.77114 0.08753 0.83341 0.0
H1212 H 0.81802 0.05607 0.81513 0.0
H1213 H 0.84223 0.08317 0.8292 0.0
C1214 C 0.8346 0.11718 0.84659 0.0
C1215 C 0.82849 0.13421 0.85534 0.0
C1216 C 0.82073 0.10119 0.83934 0.0
C1217 C 0.8083 0.13491 0.85705 0.0
C1218 C 0.79443 0.11908 0.84984 0.0
C1219 C 0.78662 0.08648 0.83284 0.0
C1220 C 0.79277 0.06986 0.82313 0.0
C1221 C 0.80047 0.10219 0.84083 0.0
C1222 C 0.81294 0.06882 0.8223 0.0
C1223 C 0.82678 0.0843 0.83035 0.0
H1224 H 0.8908 0.85685 0.81823 0.0
H1225 H 0.90667 0.85325 0.87863 0.0
H1226 H 0.93165 0.83384 0.86764 0.0
H1227 H 0.94895 0.81775 0.84112 0.0
H1228 H 0.93227 0.81965 0.78058 0.0
H1229 H 0.90793 0.83995 0.79141 0.0
C1230 C 0.89981 0.8519 0.82896 0.0
C1231 C 0.89682 0.85655 0.84923 0.0
C1232 C 0.91405 0.8404 0.82255 0.0
C1233 C 0.90854 0.84985 0.86293 0.0
C1234 C 0.92287 0.83873 0.85668 0.0
C1235 C 0.9399 0.82235 0.83022 0.0
C1236 C 0.94265 0.81708 0.81002 0.0
C1237 C 0.92568 0.83381 0.83654 0.0
C1238 C 0.93083 0.82361 0.79623 0.0
C1239 C 0.91677 0.83518 0.80241 0.0
H1240 H 0.87703 0.92016 0.26535 0.0
H1241 H 0.91105 0.94887 0.22154 0.0
H1242 H 0.89895 0.97871 0.23291 0.0
H1243 H 0.87574 0.99555 0.25246 0.0
H1244 H 0.84143 0.96711 0.29618 0.0
H1245 H 0.8569 0.93847 0.28795 0.0
C1246 C 0.88202 0.93301 0.25848 0.0
C1247 C 0.89467 0.93214 0.24237 0.0
C1248 C 0.87489 0.95019 0.26502 0.0
C1249 C 0.90118 0.94902 0.23383 0.0
C1250 C 0.89423 0.96613 0.24029 0.0
C1251 C 0.8719 0.98321 0.26044 0.0
C1252 C 0.85727 0.98338 0.27472 0.0
C1253 C 0.88063 0.96671 0.25545 0.0
C1254 C 0.85263 0.96737 0.2851 0.0
C1255 C 0.86136 0.95091 0.28029 0.0
H1256 H 0.13421 0.80913 0.25089 0.0
H1257 H 0.10155 0.77374 0.20223 0.0
H1258 H 0.07881 0.75873 0.22511 0.0
H1259 H 0.06712 0.75686 0.25869 0.0
H1260 H 0.09955 0.79225 0.30746 0.0
H1261 H 0.12352 0.80591 0.28476 0.0
C1262 C 0.1222 0.79804 0.24529 0.0
C1263 C 0.11952 0.79269 0.22486 0.0
C1264 C 0.10909 0.78949 0.25853 0.0
C1265 C 0.10394 0.77821 0.21788 0.0
C1266 C 0.09088 0.76961 0.23095 0.0
C1267 C 0.07949 0.76747 0.2644 0.0
C1268 C 0.08143 0.77362 0.28473 0.0
C1269 C 0.09315 0.77534 0.25127 0.0
C1270 C 0.09765 0.78729 0.29186 0.0
C1271 C 0.11135 0.79515 0.27889 0.0
H1272 H 0.92779 0.26731 0.17244 0.0
H1273 H 0.89446 0.2285 0.20841 0.0
H1274 H 0.9233 0.22932 0.22926 0.0
H1275 H 0.95737 0.24269 0.23865 0.0
H1276 H 0.9907 0.28237 0.20348 0.0
H1277 H 0.96254 0.27959 0.18102 0.0
C1278 C 0.92692 0.2589 0.18474 0.0
C1279 C 0.90907 0.24752 0.18857 0.0
C1280 C 0.94354 0.25973 0.19694 0.0
C1281 C 0.90813 0.2368 0.20464 0.0
C1282 C 0.92459 0.23749 0.21678 0.0
C1283 C 0.95858 0.25062 0.22599 0.0
C1284 C 0.97613 0.26281 0.22286 0.0
C1285 C 0.94229 0.24907 0.21321 0.0
C1286 C 0.97739 0.2729 0.2063 0.0
C1287 C 0.96126 0.27137 0.19346 0.0
H1288 H 0.19236 0.71043 0.66534 0.0
H1289 H 0.22513 0.66467 0.67364 0.0
H1290 H 0.24783 0.67483 0.64829 0.0
H1291 H 0.25843 0.69648 0.62385 0.0
H1292 H 0.22612 0.74243 0.61522 0.0
H1293 H 0.20317 0.73236 0.64067 0.0
C1294 C 0.20445 0.70265 0.66163 0.0
C1295 C 0.20695 0.68675 0.67147 0.0
C1296 C 0.21754 0.70859 0.64698 0.0
C1297 C 0.22277 0.67692 0.66639 0.0
C1298 C 0.23579 0.68273 0.65187 0.0
C1299 C 0.24638 0.70436 0.62747 0.0
C1300 C 0.24402 0.72021 0.61757 0.0
C1301 C 0.23331 0.69851 0.64208 0.0
C1302 C 0.2283 0.73018 0.62257 0.0
C1303 C 0.21517 0.72442 0.63713 0.0
H1304 H 0.79825 0.78676 0.59577 0.0
H1305 H 0.83441 0.7421 0.58699 0.0
H1306 H 0.82963 0.74002 0.55132 0.0
H1307 H 0.81712 0.75255 0.52261 0.0
H1308 H 0.77953 0.79596 0.53118 0.0
H1309 H 0.7826 0.7967 0.56694 0.0
C1310 C 0.80499 0.77654 0.58601 0.0
C1311 C 0.8169 0.7648 0.59393 0.0
C1312 C 0.80182 0.77513 0.56553 0.0
C1313 C 0.82526 0.75134 0.5812 0.0
C1314 C 0.82254 0.75015 0.56082 0.0
C1315 C 0.80928 0.76186 0.53234 0.0
C1316 C 0.79816 0.77419 0.52433 0.0
C1317 C 0.81108 0.76215 0.55282 0.0
C1318 C 0.78801 0.78619 0.53701 0.0
C1319 C 0.78994 0.78676 0.55746 0.0
H1320 H 0.84405 0.33275 0.65628 0.0
H1321 H 0.90505 0.33845 0.64076 0.0
H1322 H 0.89631 0.31772 0.60975 0.0
H1323 H 0.8711 0.29882 0.58651 0.0
H1324 H 0.81032 0.2927 0.60299 0.0
H1325 H 0.81925 0.31285 0.63398 0.0
C1326 C 0.85548 0.32947 0.64616 0.0
C1327 C 0.87518 0.33727 0.65085 0.0
C1328 C 0.85038 0.31752 0.62841 0.0
C1329 C 0.88976 0.33268 0.63756 0.0
C1330 C 0.88477 0.32083 0.61979 0.0
C1331 C 0.85983 0.30171 0.59695 0.0
C1332 C 0.84 0.29438 0.59215 0.0
C1333 C 0.86509 0.31326 0.61499 0.0
C1334 C 0.82562 0.29844 0.60593 0.0
C1335 C 0.83073 0.30989 0.6238 0.0
H1336 H 0.3421 0.31474 0.63099 0.0
H1337 H 0.29011 0.34001 0.62296 0.0
H1338 H 0.29334 0.33469 0.58724 0.0
H1339 H 0.30927 0.32041 0.55835 0.0
H1340 H 0.35878 0.29178 0.566 0.0
H1341 H 0.35847 0.30092 0.60184 0.0
C1342 C 0.33168 0.31932 0.62138 0.0
C1343 C 0.31592 0.32779 0.62953 0.0
C1344 C 0.33324 0.3156 0.60084 0.0
C1345 C 0.3023 0.33338 0.61698 0.0
C1346 C 0.30416 0.33038 0.59659 0.0
C1347 C 0.3203 0.31673 0.56791 0.0
C1348 C 0.33437 0.30595 0.55977 0.0
C1349 C 0.31937 0.32124 0.58837 0.0
C1350 C 0.34814 0.30045 0.57214 0.0
C1351 C 0.34783 0.30554 0.59254 0.0
H1352 H 0.23899 0.30588 0.40985 0.0
H1353 H 0.20851 0.3253 0.46167 0.0
H1354 H 0.22778 0.3085 0.48187 0.0
H1355 H 0.25383 0.28887 0.48492 0.0
H1356 H 0.28538 0.27094 0.43332 0.0
H1357 H 0.26507 0.28647 0.41291 0.0
C1358 C 0.23651 0.30639 0.42556 0.0
C1359 C 0.22233 0.3168 0.43424 0.0
C1360 C 0.24782 0.29694 0.43712 0.0
C1361 C 0.2194 0.31744 0.45463 0.0
C1362 C 0.23037 0.3078 0.46619 0.0
C1363 C 0.25612 0.28823 0.46918 0.0
C1364 C 0.27102 0.27873 0.46062 0.0
C1365 C 0.24468 0.29756 0.4576 0.0
C1366 C 0.27402 0.27822 0.44026 0.0
C1367 C 0.26242 0.28709 0.42858 0.0
H1368 H 0.2137 0.6889 0.45207 0.0
H1369 H 0.22246 0.63026 0.45464 0.0
H1370 H 0.24343 0.64064 0.48415 0.0
H1371 H 0.25812 0.66651 0.51027 0.0
H1372 H 0.24874 0.7248 0.50673 0.0
H1373 H 0.22921 0.71441 0.47667 0.0
C1374 C 0.2202 0.67831 0.45899 0.0
C1375 C 0.21635 0.65879 0.45116 0.0
C1376 C 0.2321 0.68434 0.47593 0.0
C1377 C 0.22511 0.64539 0.46034 0.0
C1378 C 0.23709 0.65132 0.47725 0.0
C1379 C 0.2519 0.67688 0.50278 0.0
C1380 C 0.25461 0.69635 0.51097 0.0
C1381 C 0.24053 0.67076 0.48533 0.0
C1382 C 0.24649 0.70967 0.50108 0.0
C1383 C 0.2354 0.70377 0.48378 0.0
H1384 H 0.84657 0.75848 0.33797 0.0
H1385 H 0.80307 0.70731 0.3323 0.0
H1386 H 0.79492 0.71372 0.36686 0.0
H1387 H 0.80032 0.73365 0.39877 0.0
H1388 H 0.8422 0.78586 0.40454 0.0
H1389 H 0.85058 0.77959 0.36972 0.0
C1390 C 0.83527 0.74878 0.34432 0.0
C1391 C 0.82601 0.73199 0.3328 0.0
C1392 C 0.83032 0.75283 0.36415 0.0
C1393 C 0.81117 0.71973 0.34109 0.0
C1394 C 0.80628 0.72356 0.3608 0.0
C1395 C 0.8114 0.74356 0.39243 0.0
C1396 C 0.82089 0.76002 0.40419 0.0
C1397 C 0.81593 0.73992 0.3725 0.0
C1398 C 0.83479 0.77308 0.3957 0.0
C1399 C 0.83958 0.76945 0.37586 0.0
H1400 H 0.82998 0.35333 0.45158 0.0
H1401 H 0.84593 0.30641 0.41163 0.0
H1402 H 0.83206 0.28358 0.43359 0.0
H1403 H 0.81836 0.27705 0.46531 0.0
H1404 H 0.80192 0.32299 0.50585 0.0
H1405 H 0.81267 0.34605 0.48236 0.0
C1406 C 0.83023 0.33809 0.44758 0.0
C1407 C 0.83931 0.33171 0.43003 0.0
C1408 C 0.82217 0.32486 0.46039 0.0
C1409 C 0.83926 0.31185 0.42505 0.0
C1410 C 0.83133 0.29872 0.43762 0.0
C1411 C 0.81687 0.29209 0.46891 0.0
C1412 C 0.80956 0.29839 0.48732 0.0
C1413 C 0.8232 0.30511 0.4555 0.0
C1414 C 0.80745 0.31782 0.49171 0.0
C1415 C 0.81376 0.33099 0.47835 0.0
H1416 H 0.0921 0.69384 0.73478 0.0
H1417 H 0.12644 0.75062 0.73966 0.0
H1418 H 0.09758 0.76492 0.74968 0.0
H1419 H 0.0625 0.76153 0.75647 0.0
H1420 H 0.02774 0.70503 0.75125 0.0
H1421 H 0.05683 0.69045 0.74222 0.0
C1422 C 0.09329 0.70933 0.73814 0.0
C1423 C 0.11146 0.72109 0.73639 0.0
C1424 C 0.07653 0.71755 0.74383 0.0
C1425 C 0.11268 0.74116 0.7408 0.0
C1426 C 0.09615 0.7494 0.74653 0.0
C1427 C 0.06121 0.74604 0.75319 0.0
C1428 C 0.04287 0.73443 0.75443 0.0
C1429 C 0.07797 0.73776 0.74792 0.0
C1430 C 0.04166 0.71432 0.75056 0.0
C1431 C 0.05829 0.70597 0.7453 0.0
H1432 H 0.81366 0.66604 0.73191 0.0
H1433 H 0.85246 0.65122 0.68502 0.0
H1434 H 0.84584 0.61754 0.69078 0.0
H1435 H 0.8293 0.59232 0.70925 0.0
H1436 H 0.79082 0.607 0.75634 0.0
H1437 H 0.79714 0.64074 0.75045 0.0
C1438 C 0.82069 0.65546 0.72294 0.0
C1439 C 0.83353 0.66119 0.70804 0.0
C1440 C 0.81687 0.63609 0.72636 0.0
C1441 C 0.84253 0.64726 0.69661 0.0
C1442 C 0.83873 0.62796 0.69986 0.0
C1443 C 0.8221 0.60285 0.71806 0.0
C1444 C 0.80952 0.59713 0.73315 0.0
C1445 C 0.82591 0.62221 0.71467 0.0
C1446 C 0.80065 0.61106 0.74472 0.0
C1447 C 0.80422 0.63033 0.74132 0.0
H1448 H 0.97419 0.3859 0.73505 0.0
H1449 H 0.93734 0.33263 0.74351 0.0
H1450 H 0.96378 0.32308 0.76199 0.0
H1451 H 0.99735 0.32992 0.7759 0.0
H1452 H 0.03375 0.38369 0.7688 0.0
H1453 H 0.0075 0.39312 0.74978 0.0
C1454 C 0.97198 0.37218 0.74088 0.0
C1455 C 0.95386 0.35995 0.73781 0.0
C1456 C 0.98714 0.36692 0.7518 0.0
C1457 C 0.95113 0.34231 0.74567 0.0
C1458 C 0.96626 0.33683 0.75622 0.0
C1459 C 0.99954 0.34364 0.77006 0.0
C1460 C 0.01747 0.35606 0.7736 0.0
C1461 C 0.98431 0.34901 0.75937 0.0
C1462 C 0.02002 0.37396 0.76632 0.0
C1463 C 0.00505 0.3793 0.75539 0.0
H1464 H 0.31732 0.39927 0.72405 0.0
H1465 H 0.25499 0.38781 0.71194 0.0
H1466 H 0.25201 0.42058 0.72578 0.0
H1467 H 0.26693 0.45206 0.74261 0.0
H1468 H 0.32938 0.4636 0.75443 0.0
H1469 H 0.33256 0.43142 0.73881 0.0
C1470 C 0.30307 0.40394 0.72439 0.0
C1471 C 0.28628 0.39084 0.71763 0.0
C1472 C 0.30153 0.42292 0.73208 0.0
C1473 C 0.268 0.39724 0.71791 0.0
C1474 C 0.26634 0.41611 0.72554 0.0
C1475 C 0.2813 0.44768 0.74151 0.0
C1476 C 0.29789 0.46024 0.74977 0.0
C1477 C 0.28298 0.429 0.73289 0.0
C1478 C 0.31636 0.45424 0.74824 0.0
C1479 C 0.31818 0.43579 0.7394 0.0
H1480 H 0.12925 0.30145 0.29229 0.0
H1481 H 0.10036 0.34757 0.31924 0.0
H1482 H 0.06845 0.32794 0.31122 0.0
H1483 H 0.0487 0.29662 0.29867 0.0
H1484 H 0.0775 0.25057 0.27222 0.0
H1485 H 0.1095 0.27101 0.27802 0.0
C1486 C 0.11599 0.30732 0.2962 0.0
C1487 C 0.11728 0.32596 0.30647 0.0
C1488 C 0.09764 0.29589 0.29166 0.0
C1489 C 0.09987 0.33329 0.31136 0.0
C1490 C 0.08157 0.32205 0.30681 0.0
C1491 C 0.06198 0.29144 0.29358 0.0
C1492 C 0.06083 0.27249 0.28443 0.0
C1493 C 0.08028 0.30324 0.2972 0.0
C1494 C 0.07813 0.26528 0.27905 0.0
C1495 C 0.09637 0.27695 0.28236 0.0
H1496 H 0.18746 0.56409 0.35451 0.0
H1497 H 0.22584 0.61609 0.34465 0.0
H1498 H 0.24569 0.59738 0.32294 0.0
H1499 H 0.25473 0.56612 0.31055 0.0
H1500 H 0.21687 0.5139 0.31993 0.0
H1501 H 0.19389 0.53276 0.3376 0.0
C1502 C 0.20002 0.57132 0.3474 0.0
C1503 C 0.20537 0.59144 0.35151 0.0
C1504 C 0.2114 0.56044 0.3348 0.0
C1505 C 0.22148 0.60064 0.34191 0.0
C1506 C 0.23287 0.58995 0.32949 0.0
C1507 C 0.24109 0.55893 0.31591 0.0
C1508 C 0.23735 0.53875 0.31396 0.0
C1509 C 0.2283 0.56984 0.32632 0.0
C1510 C 0.21981 0.52946 0.32103 0.0
C1511 C 0.20686 0.54025 0.33138 0.0
H1512 H 0.90511 0.70101 0.28834 0.0
H1513 H 0.91856 0.74756 0.25283 0.0
H1514 H 0.95357 0.74703 0.25712 0.0
H1515 H 0.98017 0.73546 0.27333 0.0
H1516 H 0.96688 0.69195 0.31244 0.0
H1517 H 0.93203 0.68855 0.30368 0.0
C1518 C 0.91571 0.71084 0.2813 0.0
C1519 C 0.90926 0.72431 0.27029 0.0
C1520 C 0.93584 0.71087 0.28435 0.0
C1521 C 0.92315 0.73709 0.26143 0.0
C1522 C 0.94317 0.73677 0.26384 0.0
C1523 C 0.96973 0.72499 0.27973 0.0
C1524 C 0.97611 0.71408 0.29367 0.0
C1525 C 0.94967 0.72399 0.27559 0.0
C1526 C 0.96234 0.70057 0.30173 0.0
C1527 C 0.9424 0.69873 0.29685 0.0
H1528 H 0.82676 0.40233 0.30671 0.0
H1529 H 0.87439 0.43859 0.34031 0.0
H1530 H 0.86594 0.46676 0.32692 0.0
H1531 H 0.84416 0.4814 0.30667 0.0
H1532 H 0.79564 0.44542 0.2744 0.0
H1533 H 0.80525 0.41689 0.28617 0.0
C1534 C 0.83537 0.41637 0.31102 0.0
C1535 C 0.85119 0.41831 0.32451 0.0
C1536 C 0.83022 0.4326 0.3035 0.0
C1537 C 0.86209 0.43667 0.33002 0.0
C1538 C 0.85729 0.45281 0.32234 0.0
C1539 C 0.83591 0.46727 0.30201 0.0
C1540 C 0.81927 0.4655 0.28965 0.0
C1541 C 0.8413 0.45098 0.30919 0.0
C1542 C 0.80844 0.44714 0.28401 0.0
C1543 C 0.81395 0.43083 0.29072 0.0
H1544 H 0.2156 0.61349 0.76037 0.0
H1545 H 0.17513 0.58055 0.71619 0.0
H1546 H 0.18408 0.55071 0.72524 0.0
H1547 H 0.20357 0.53385 0.74548 0.0
H1548 H 0.24395 0.56667 0.78976 0.0
H1549 H 0.23497 0.59655 0.7808 0.0
C1550 C 0.20874 0.5998 0.7527 0.0
C1551 C 0.19469 0.59936 0.73759 0.0
C1552 C 0.21396 0.5826 0.75799 0.0
C1553 C 0.18599 0.58141 0.72785 0.0
C1554 C 0.19108 0.56429 0.73304 0.0
C1555 C 0.21026 0.5475 0.75335 0.0
C1556 C 0.22444 0.5479 0.76832 0.0
C1557 C 0.20503 0.56469 0.7481 0.0
C1558 C 0.23316 0.56585 0.77806 0.0
C1559 C 0.22797 0.58298 0.77299 0.0
H1560 H 0.23507 0.40095 0.38407 0.0
H1561 H 0.18851 0.39697 0.34083 0.0
H1562 H 0.20559 0.42539 0.32771 0.0
H1563 H 0.23359 0.45146 0.32867 0.0
H1564 H 0.28046 0.45503 0.3715 0.0
H1565 H 0.26312 0.4269 0.38491 0.0
C1566 C 0.22859 0.40625 0.37176 0.0
C1567 C 0.2105 0.39665 0.36341 0.0
C1568 C 0.23849 0.42264 0.36431 0.0
C1569 C 0.20243 0.40383 0.34748 0.0
C1570 C 0.21218 0.42018 0.34 0.0
C1571 C 0.2402 0.44603 0.34079 0.0
C1572 C 0.25846 0.45543 0.34895 0.0
C1573 C 0.23024 0.42967 0.34828 0.0
C1574 C 0.26641 0.4483 0.365 0.0
C1575 C 0.25654 0.43211 0.37261 0.0
H1576 H 0.112 0.67973 0.38989 0.0
H1577 H 0.1478 0.69517 0.34082 0.0
H1578 H 0.12199 0.71092 0.32858 0.0
H1579 H 0.08989 0.72156 0.33257 0.0
H1580 H 0.0542 0.70637 0.38172 0.0
H1581 H 0.07944 0.68948 0.39326 0.0
C1582 C 0.11412 0.6864 0.37643 0.0
C1583 C 0.13186 0.68626 0.36632 0.0
C1584 C 0.0993 0.69565 0.36957 0.0
C1585 C 0.13433 0.69506 0.34894 0.0
C1586 C 0.11958 0.70411 0.34192 0.0
C1587 C 0.08749 0.71434 0.34565 0.0
C1588 C 0.07014 0.7153 0.35627 0.0
C1589 C 0.10209 0.70466 0.35222 0.0
C1590 C 0.06749 0.70611 0.37341 0.0
C1591 C 0.08188 0.69635 0.37996 0.0
H1592 H 0.81017 0.62298 0.33918 0.0
H1593 H 0.75655 0.62816 0.30908 0.0
H1594 H 0.74618 0.59349 0.30704 0.0
H1595 H 0.75426 0.56153 0.3099 0.0
H1596 H 0.80852 0.5561 0.33866 0.0
H1597 H 0.81634 0.59104 0.34571 0.0
C1598 C 0.79609 0.61656 0.33242 0.0
C1599 C 0.78432 0.62813 0.32402 0.0
C1600 C 0.79029 0.59655 0.33108 0.0
C1601 C 0.76599 0.61961 0.31555 0.0
C1602 C 0.76003 0.59975 0.31435 0.0
C1603 C 0.76762 0.56792 0.31808 0.0
C1604 C 0.78097 0.55616 0.32338 0.0
C1605 C 0.77235 0.58803 0.32151 0.0
C1606 C 0.79806 0.56476 0.33421 0.0
C1607 C 0.80263 0.58478 0.33812 0.0
H1608 H 0.9158 0.34198 0.3105 0.0
H1609 H 0.94517 0.36068 0.36682 0.0
H1610 H 0.97607 0.3532 0.35287 0.0
H1611 H 0.99464 0.34037 0.32483 0.0
H1612 H 0.96476 0.31956 0.26926 0.0
H1613 H 0.93422 0.32874 0.28265 0.0
C1614 C 0.929 0.34456 0.31967 0.0
C1615 C 0.92819 0.35198 0.33965 0.0
C1616 C 0.94663 0.33973 0.31168 0.0
C1617 C 0.94538 0.35496 0.35141 0.0
C1618 C 0.96307 0.35069 0.34344 0.0
C1619 C 0.98146 0.33803 0.31566 0.0
C1620 C 0.98193 0.32938 0.29607 0.0
C1621 C 0.96385 0.34295 0.32363 0.0
C1622 C 0.96469 0.3261 0.2844 0.0
C1623 C 0.94726 0.33139 0.29205 0.0
H1624 H 0.87575 0.45647 0.72356 0.0
H1625 H 0.85111 0.41492 0.76156 0.0
H1626 H 0.83805 0.44011 0.78269 0.0
H1627 H 0.83095 0.4733 0.78857 0.0
H1628 H 0.85441 0.51435 0.74956 0.0
H1629 H 0.8708 0.49007 0.73085 0.0
C1630 C 0.86772 0.45293 0.73658 0.0
C1631 C 0.86427 0.43376 0.74082 0.0
C1632 C 0.85997 0.46742 0.74849 0.0
C1633 C 0.85388 0.42951 0.75783 0.0
C1634 C 0.84638 0.44392 0.76993 0.0
C1635 C 0.83997 0.47705 0.77621 0.0
C1636 C 0.84136 0.49561 0.77043 0.0
C1637 C 0.84896 0.46285 0.76516 0.0
C1638 C 0.85299 0.50015 0.75428 0.0
C1639 C 0.86233 0.48625 0.74351 0.0
H1640 H 0.17091 0.31238 0.72884 0.0
H1641 H 0.19171 0.36871 0.75984 0.0
H1642 H 0.16142 0.36757 0.77814 0.0
H1643 H 0.12952 0.35056 0.78592 0.0
H1644 H 0.10809 0.29425 0.75539 0.0
H1645 H 0.13816 0.29546 0.73624 0.0
C1646 C 0.1688 0.32443 0.73956 0.0
C1647 C 0.18366 0.34059 0.74297 0.0
C1648 C 0.15127 0.32369 0.75012 0.0
C1649 C 0.18061 0.35607 0.7569 0.0
C1650 C 0.16327 0.35545 0.7674 0.0
C1651 C 0.13134 0.33851 0.77507 0.0
C1652 C 0.11657 0.32229 0.77216 0.0
C1653 C 0.14858 0.33931 0.76421 0.0
C1654 C 0.11921 0.3069 0.75793 0.0
C1655 C 0.13642 0.30759 0.74701 0.0
H1656 H 0.89377 0.78914 0.68771 0.0
H1657 H 0.88574 0.72729 0.67502 0.0
H1658 H 0.91678 0.72662 0.69172 0.0
H1659 H 0.94518 0.74336 0.71176 0.0
H1660 H 0.95409 0.80531 0.7237 0.0
H1661 H 0.92408 0.80623 0.70496 0.0
C1662 C 0.89889 0.77553 0.68846 0.0
C1663 C 0.88698 0.7582 0.68086 0.0
C1664 C 0.91701 0.77528 0.69784 0.0
C1665 C 0.89402 0.74074 0.68166 0.0
C1666 C 0.91197 0.74037 0.69095 0.0
C1667 C 0.94069 0.7571 0.71008 0.0
C1668 C 0.95179 0.77422 0.71927 0.0
C1669 C 0.92336 0.75751 0.69947 0.0
C1670 C 0.94586 0.79191 0.71676 0.0
C1671 C 0.92862 0.79243 0.70616 0.0
H1672 H 0.70699 0.21803 0.61773 0.0
H1673 H 0.74842 0.18096 0.63031 0.0
H1674 H 0.77094 0.19491 0.60673 0.0
H1675 H 0.77887 0.21699 0.58242 0.0
H1676 H 0.73816 0.25427 0.56884 0.0
H1677 H 0.71536 0.24086 0.59303 0.0
C1678 C 0.72097 0.21303 0.61536 0.0
C1679 C 0.72592 0.19837 0.62586 0.0
C1680 C 0.73396 0.22112 0.6016 0.0
C1681 C 0.74412 0.19213 0.62251 0.0
C1682 C 0.75705 0.20011 0.60899 0.0
C1683 C 0.76502 0.22229 0.58466 0.0
C1684 C 0.76025 0.23663 0.57373 0.0
C1685 C 0.7521 0.21452 0.59843 0.0
C1686 C 0.74223 0.24325 0.577 0.0
C1687 C 0.72919 0.23556 0.59083 0.0
H1688 H 0.30325 0.22583 0.62718 0.0
H1689 H 0.30316 0.28709 0.63264 0.0
H1690 H 0.29329 0.28465 0.59801 0.0
H1691 H 0.2872 0.26556 0.56573 0.0
H1692 H 0.28833 0.20439 0.5598 0.0
H1693 H 0.29482 0.20629 0.59521 0.0
C1694 C 0.30092 0.23863 0.62083 0.0
C1695 C 0.30426 0.25669 0.6324 0.0
C1696 C 0.29534 0.23711 0.60086 0.0
C1697 C 0.30106 0.2731 0.62397 0.0
C1698 C 0.29532 0.27169 0.60419 0.0
C1699 C 0.28845 0.25254 0.57219 0.0
C1700 C 0.28731 0.23483 0.56008 0.0
C1701 C 0.29275 0.25383 0.59242 0.0
C1702 C 0.28916 0.21819 0.56877 0.0
C1703 C 0.29298 0.21929 0.58899 0.0
H1704 H 0.34733 0.78622 0.70206 0.0
H1705 H 0.35739 0.84379 0.68582 0.0
H1706 H 0.3463 0.83136 0.65195 0.0
H1707 H 0.33446 0.80375 0.62669 0.0
H1708 H 0.32196 0.74674 0.64384 0.0
H1709 H 0.33332 0.75917 0.67764 0.0
C1710 C 0.34702 0.79605 0.6911 0.0
C1711 C 0.35326 0.81588 0.69638 0.0
C1712 C 0.3403 0.78883 0.67183 0.0
C1713 C 0.35254 0.82849 0.68214 0.0
C1714 C 0.34632 0.82136 0.66276 0.0
C1715 C 0.33433 0.79414 0.6379 0.0
C1716 C 0.32771 0.77434 0.63289 0.0
C1717 C 0.34032 0.80153 0.65739 0.0
C1718 C 0.32712 0.76199 0.64749 0.0
C1719 C 0.3336 0.7691 0.66674 0.0
H1720 H 0.76537 0.88785 0.55816 0.0
H1721 H 0.77903 0.84585 0.59471 0.0
H1722 H 0.80374 0.83676 0.57151 0.0
H1723 H 0.8175 0.83714 0.53852 0.0
H1724 H 0.80187 0.8772 0.5008 0.0
H1725 H 0.78273 0.89127 0.52707 0.0
C1726 C 0.77402 0.87698 0.56126 0.0
C1727 C 0.77008 0.86731 0.57798 0.0
C1728 C 0.78796 0.87152 0.54763 0.0
C1729 C 0.78158 0.85339 0.58185 0.0
C1730 C 0.79573 0.84816 0.56858 0.0
C1731 C 0.81028 0.84928 0.53625 0.0
C1732 C 0.81085 0.85585 0.51761 0.0
C1733 C 0.79847 0.85661 0.55107 0.0
C1734 C 0.80173 0.87181 0.51495 0.0
C1735 C 0.79051 0.87969 0.52991 0.0
H1736 H 0.72061 0.85176 0.4004 0.0
H1737 H 0.72477 0.80988 0.34983 0.0
H1738 H 0.73961 0.78997 0.37047 0.0
H1739 H 0.75264 0.78502 0.40255 0.0
H1740 H 0.74936 0.82728 0.45299 0.0
H1741 H 0.73274 0.84629 0.43277 0.0
C1742 C 0.72471 0.83826 0.39389 0.0
C1743 C 0.72165 0.83241 0.37355 0.0
C1744 C 0.73334 0.82688 0.40584 0.0
C1745 C 0.72702 0.81482 0.36541 0.0
C1746 C 0.73549 0.80338 0.37721 0.0
C1747 C 0.74807 0.79826 0.40921 0.0
C1748 C 0.75226 0.80468 0.42929 0.0
C1749 C 0.73885 0.80933 0.39741 0.0
C1750 C 0.74635 0.82197 0.43758 0.0
C1751 C 0.73689 0.83291 0.42601 0.0
H1752 H 0.76596 0.18118 0.39899 0.0
H1753 H 0.71888 0.21494 0.40476 0.0
H1754 H 0.73036 0.22781 0.43842 0.0
H1755 H 0.75389 0.22919 0.46622 0.0
H1756 H 0.80107 0.19552 0.45905 0.0
H1757 H 0.78911 0.18267 0.42598 0.0
C1758 C 0.75808 0.19135 0.40751 0.0
C1759 C 0.74152 0.19706 0.39921 0.0
C1760 C 0.76474 0.19862 0.4267 0.0
C1761 C 0.73166 0.21029 0.41064 0.0
C1762 C 0.73823 0.21763 0.42993 0.0
C1763 C 0.76166 0.21916 0.45741 0.0
C1764 C 0.7784 0.21333 0.46536 0.0
C1765 C 0.7548 0.2119 0.43811 0.0
C1766 C 0.78803 0.20008 0.45365 0.0
C1767 C 0.78128 0.1928 0.4346 0.0
H1768 H 0.30609 0.18823 0.37796 0.0
H1769 H 0.36805 0.20996 0.38096 0.0
H1770 H 0.36728 0.21493 0.41685 0.0
H1771 H 0.34849 0.21652 0.44693 0.0
H1772 H 0.28609 0.19759 0.44449 0.0
H1773 H 0.28741 0.18797 0.40888 0.0
C1774 C 0.31943 0.19367 0.38657 0.0
C1775 C 0.33709 0.19873 0.37697 0.0
C1776 C 0.31873 0.19715 0.40725 0.0
C1777 C 0.35427 0.20607 0.38814 0.0
C1778 C 0.35385 0.20892 0.40863 0.0
C1779 C 0.33527 0.20982 0.43871 0.0
C1780 C 0.31724 0.20768 0.44827 0.0
C1781 C 0.33609 0.20499 0.41829 0.0
C1782 C 0.30012 0.19941 0.43734 0.0
C1783 C 0.30089 0.19396 0.41703 0.0
H1784 H 0.30028 0.82661 0.48294 0.0
H1785 H 0.29157 0.7753 0.44081 0.0
H1786 H 0.28097 0.75586 0.46694 0.0
H1787 H 0.27839 0.75277 0.50208 0.0
H1788 H 0.28683 0.80335 0.54478 0.0
H1789 H 0.29295 0.82381 0.51813 0.0
C1790 C 0.29577 0.81122 0.47943 0.0
C1791 C 0.29711 0.80244 0.45991 0.0
C1792 C 0.2897 0.79999 0.49465 0.0
C1793 C 0.29095 0.78249 0.45565 0.0
C1794 C 0.28488 0.7713 0.47061 0.0
C1795 C 0.28108 0.76832 0.50549 0.0
C1796 C 0.28224 0.77661 0.52526 0.0
C1797 C 0.28481 0.77981 0.4902 0.0
C1798 C 0.28569 0.79672 0.52961 0.0
C1799 C 0.2894 0.80835 0.51438 0.0
H1800 H 0.63092 0.23518 0.70827 0.0
H1801 H 0.61037 0.17462 0.69212 0.0
H1802 H 0.57897 0.17812 0.70758 0.0
H1803 H 0.55697 0.19869 0.72492 0.0
H1804 H 0.57825 0.25912 0.74127 0.0
H1805 H 0.60956 0.25534 0.72633 0.0
C1806 C 0.61963 0.22269 0.70815 0.0
C1807 C 0.62305 0.20467 0.69897 0.0
C1808 C 0.60161 0.22481 0.717 0.0
C1809 C 0.60819 0.18868 0.69906 0.0
C1810 C 0.59019 0.19067 0.70788 0.0
C1811 C 0.5685 0.211 0.72537 0.0
C1812 C 0.56503 0.22922 0.73408 0.0
C1813 C 0.58668 0.20871 0.71681 0.0
C1814 C 0.5802 0.24501 0.73435 0.0
C1815 C 0.59824 0.24284 0.72591 0.0
H1816 H 0.31449 0.15537 0.76122 0.0
H1817 H 0.35987 0.14173 0.721 0.0
H1818 H 0.35277 0.10801 0.72661 0.0
H1819 H 0.33258 0.08212 0.74161 0.0
H1820 H 0.28639 0.09573 0.78079 0.0
H1821 H 0.29524 0.1297 0.77724 0.0
C1822 C 0.32294 0.14507 0.75377 0.0
C1823 C 0.3376 0.15109 0.7406 0.0
C1824 C 0.31867 0.12564 0.75691 0.0
C1825 C 0.34844 0.13751 0.73115 0.0
C1826 C 0.34438 0.1182 0.73433 0.0
C1827 C 0.32441 0.09249 0.74935 0.0
C1828 C 0.30874 0.08621 0.76135 0.0
C1829 C 0.32932 0.11205 0.74694 0.0
C1830 C 0.29862 0.09999 0.7716 0.0
C1831 C 0.30357 0.11949 0.76945 0.0
H1832 H 0.43423 0.79206 0.78535 0.0
H1833 H 0.45342 0.84808 0.76715 0.0
H1834 H 0.48683 0.84709 0.77826 0.0
H1835 H 0.51075 0.83024 0.79298 0.0
H1836 H 0.49158 0.77426 0.81106 0.0
H1837 H 0.45808 0.77531 0.80018 0.0
C1838 C 0.44572 0.80404 0.78375 0.0
C1839 C 0.44127 0.82011 0.77538 0.0
C1840 C 0.46494 0.8034 0.7902 0.0
C1841 C 0.45639 0.83551 0.77349 0.0
C1842 C 0.47552 0.83498 0.77988 0.0
C1843 C 0.4992 0.81838 0.79472 0.0
C1844 C 0.50368 0.8022 0.8028 0.0
C1845 C 0.47997 0.81903 0.7883 0.0
C1846 C 0.48857 0.78678 0.80468 0.0
C1847 C 0.4694 0.7874 0.79851 0.0
H1848 H 0.71178 0.92857 0.65532 0.0
H1849 H 0.70992 0.88417 0.6935 0.0
H1850 H 0.71065 0.90815 0.7224 0.0
H1851 H 0.71435 0.94218 0.73689 0.0
H1852 H 0.71887 0.98662 0.69866 0.0
H1853 H 0.71459 0.96232 0.66969 0.0
C1854 C 0.71143 0.92414 0.66998 0.0
C1855 C 0.7103 0.90454 0.67223 0.0
C1856 C 0.7124 0.93807 0.68652 0.0
C1857 C 0.70997 0.89902 0.6913 0.0
C1858 C 0.71067 0.91279 0.70787 0.0
C1859 C 0.71394 0.94643 0.72221 0.0
C1860 C 0.71675 0.96608 0.7198 0.0
C1861 C 0.71205 0.93238 0.70566 0.0
C1862 C 0.71668 0.97154 0.70074 0.0
C1863 C 0.71432 0.95767 0.68424 0.0
H1864 H 0.60108 0.84327 0.28006 0.0
H1865 H 0.62958 0.82568 0.32964 0.0
H1866 H 0.59942 0.80505 0.33658 0.0
H1867 H 0.56543 0.7915 0.32833 0.0
H1868 H 0.53658 0.80816 0.27851 0.0
H1869 H 0.56647 0.82983 0.272 0.0
C1870 C 0.60068 0.83496 0.29241 0.0
C1871 C 0.6176 0.83601 0.30428 0.0
C1872 C 0.58327 0.823 0.2963 0.0
C1873 C 0.61682 0.82513 0.32022 0.0
C1874 C 0.59956 0.81333 0.32423 0.0
C1875 C 0.56557 0.79992 0.31608 0.0
C1876 C 0.54878 0.79821 0.30392 0.0
C1877 C 0.58277 0.8121 0.31233 0.0
C1878 C 0.5493 0.80923 0.28811 0.0
C1879 C 0.56639 0.82158 0.28436 0.0
H1880 H 0.79767 0.13212 0.31899 0.0
H1881 H 0.7452 0.09197 0.32636 0.0
H1882 H 0.76257 0.06506 0.31614 0.0
H1883 H 0.7918 0.05301 0.30267 0.0
H1884 H 0.84426 0.09305 0.29494 0.0
H1885 H 0.82784 0.11986 0.30812 0.0
C1886 C 0.79006 0.11748 0.31848 0.0
C1887 C 0.77009 0.11409 0.32321 0.0
C1888 C 0.80014 0.10203 0.31258 0.0
C1889 C 0.76053 0.09502 0.32269 0.0
C1890 C 0.77045 0.0796 0.31684 0.0
C1891 C 0.79976 0.06757 0.30413 0.0
C1892 C 0.8192 0.07099 0.29767 0.0
C1893 C 0.79015 0.08295 0.31142 0.0
C1894 C 0.82931 0.08996 0.29981 0.0
C1895 C 0.81988 0.10534 0.30721 0.0
H1896 H 0.42294 0.22956 0.34034 0.0
H1897 H 0.40824 0.27295 0.30628 0.0
H1898 H 0.44048 0.29238 0.3143 0.0
H1899 H 0.47318 0.29642 0.33034 0.0
H1900 H 0.48702 0.25309 0.36504 0.0
H1901 H 0.45456 0.23453 0.35792 0.0
C1902 C 0.42684 0.24323 0.33459 0.0
C1903 C 0.41341 0.24972 0.32252 0.0
C1904 C 0.44512 0.25445 0.33963 0.0
C1905 C 0.41843 0.26764 0.31553 0.0
C1906 C 0.43681 0.27875 0.32015 0.0
C1907 C 0.469 0.28299 0.33646 0.0
C1908 C 0.48258 0.2762 0.34821 0.0
C1909 C 0.4503 0.27224 0.33213 0.0
C1910 C 0.47686 0.25886 0.35621 0.0
C1911 C 0.45835 0.24808 0.35194 0.0
H1912 H 0.30023 0.87994 0.32943 0.0
H1913 H 0.33051 0.92028 0.37607 0.0
H1914 H 0.32062 0.947 0.36118 0.0
H1915 H 0.30156 0.95882 0.33626 0.0
H1916 H 0.27073 0.91858 0.28987 0.0
H1917 H 0.28291 0.89204 0.30315 0.0
C1918 C 0.30479 0.89458 0.33627 0.0
C1919 C 0.31597 0.89803 0.35397 0.0
C1920 C 0.29896 0.90995 0.32767 0.0
C1921 C 0.32183 0.91714 0.36253 0.0
C1922 C 0.31617 0.93247 0.35401 0.0
C1923 C 0.29768 0.94429 0.32887 0.0
C1924 C 0.28512 0.94075 0.31214 0.0
C1925 C 0.30448 0.92903 0.33677 0.0
C1926 C 0.28033 0.92178 0.30278 0.0
C1927 C 0.28723 0.90655 0.31043 0.0
H1928 H 0.73385 0.0993 0.68023 0.0
H1929 H 0.72847 0.14048 0.73112 0.0
H1930 H 0.74129 0.11988 0.75233 0.0
H1931 H 0.75111 0.089 0.75701 0.0
H1932 H 0.75745 0.04767 0.70675 0.0
H1933 H 0.74757 0.06959 0.68469 0.0
C1934 C 0.73569 0.10385 0.69593 0.0
C1935 C 0.72993 0.12137 0.70406 0.0
C1936 C 0.74325 0.09189 0.70817 0.0
C1937 C 0.73264 0.12709 0.72442 0.0
C1938 C 0.73997 0.11529 0.73661 0.0
C1939 C 0.75066 0.08492 0.74118 0.0
C1940 C 0.75488 0.06672 0.73351 0.0
C1941 C 0.7449 0.09751 0.72872 0.0
C1942 C 0.7544 0.06167 0.71299 0.0
C1943 C 0.74856 0.07413 0.70041 0.0
H1944 H 0.7169 0.9075 0.26867 0.0
H1945 H 0.74767 0.91939 0.32493 0.0
H1946 H 0.76921 0.9462 0.31313 0.0
H1947 H 0.77817 0.96711 0.28749 0.0
H1948 H 0.74777 0.95476 0.23104 0.0
H1949 H 0.72699 0.92741 0.24249 0.0
C1950 C 0.72838 0.91587 0.27837 0.0
C1951 C 0.73058 0.91146 0.29771 0.0
C1952 C 0.74064 0.9313 0.27154 0.0
C1953 C 0.74562 0.92244 0.30998 0.0
C1954 C 0.75791 0.93782 0.30327 0.0
C1955 C 0.76724 0.95833 0.27752 0.0
C1956 C 0.76456 0.96318 0.25839 0.0
C1957 C 0.75542 0.94249 0.28414 0.0
C1958 C 0.75001 0.95166 0.24591 0.0
C1959 C 0.73817 0.93591 0.25241 0.0
H1960 H 0.63893 0.23247 0.35814 0.0
H1961 H 0.67963 0.25369 0.31504 0.0
H1962 H 0.65396 0.2673 0.29972 0.0
H1963 H 0.6202 0.27405 0.29892 0.0
H1964 H 0.57926 0.25295 0.34186 0.0
H1965 H 0.60461 0.23828 0.35658 0.0
C1966 C 0.64218 0.24009 0.34541 0.0
C1967 C 0.66128 0.2421 0.33787 0.0
C1968 C 0.62724 0.24783 0.33649 0.0
C1969 C 0.66513 0.2519 0.32124 0.0
C1970 C 0.65042 0.2597 0.3124 0.0
C1971 C 0.61671 0.26605 0.31135 0.0
C1972 C 0.59777 0.26465 0.31921 0.0
C1973 C 0.63144 0.25781 0.31992 0.0
C1974 C 0.59365 0.25428 0.33542 0.0
C1975 C 0.6082 0.24594 0.34394 0.0
H1976 H 0.25197 0.09769 0.36394 0.0
H1977 H 0.31182 0.09221 0.34921 0.0
H1978 H 0.30278 0.05742 0.34243 0.0
H1979 H 0.27757 0.0288 0.33829 0.0
H1980 H 0.21759 0.03395 0.35207 0.0
H1981 H 0.22705 0.0685 0.36205 0.0
C1982 C 0.26308 0.08888 0.35943 0.0
C1983 C 0.28251 0.09764 0.35689 0.0
C1984 C 0.25776 0.0688 0.35539 0.0
C1985 C 0.29672 0.08594 0.35115 0.0
C1986 C 0.29158 0.066 0.34725 0.0
C1987 C 0.26659 0.03749 0.34357 0.0
C1988 C 0.24689 0.02885 0.34424 0.0
C1989 C 0.27209 0.05733 0.34893 0.0
C1990 C 0.23287 0.0402 0.35151 0.0
C1991 C 0.23826 0.06 0.35705 0.0
H1992 H 0.37116 0.78716 0.36321 0.0
H1993 H 0.39788 0.84682 0.37037 0.0
H1994 H 0.42923 0.83763 0.35948 0.0
H1995 H 0.44945 0.81241 0.34928 0.0
H1996 H 0.42235 0.75312 0.33947 0.0
H1997 H 0.39066 0.76223 0.34994 0.0
C1998 C 0.38385 0.79813 0.36228 0.0
C1999 C 0.38228 0.81763 0.36777 0.0
C2000 C 0.40171 0.79276 0.35559 0.0
C2001 C 0.39872 0.83173 0.36621 0.0
C2002 C 0.41666 0.82648 0.36006 0.0
C2003 C 0.4365 0.8016 0.34938 0.0
C2004 C 0.43806 0.78215 0.34388 0.0
C2005 C 0.41838 0.80704 0.35494 0.0
C2006 C 0.4213 0.76815 0.3437 0.0
C2007 C 0.40329 0.77337 0.34972 0.0
H2008 H 0.33414 0.92132 0.7491 0.0
H2009 H 0.28504 0.90856 0.70793 0.0
H2010 H 0.27311 0.93797 0.72166 0.0
H2011 H 0.27618 0.96703 0.74585 0.0
H2012 H 0.32506 0.97943 0.7873 0.0
H2013 H 0.33744 0.95052 0.77295 0.0
C2014 C 0.32087 0.92499 0.74305 0.0
C2015 C 0.31052 0.91267 0.72749 0.0
C2016 C 0.31398 0.94188 0.75111 0.0
C2017 C 0.29332 0.9177 0.71991 0.0
C2018 C 0.28646 0.93454 0.72777 0.0
C2019 C 0.28958 0.96345 0.75172 0.0
C2020 C 0.29963 0.97544 0.76768 0.0
C2021 C 0.29661 0.94669 0.74345 0.0
C2022 C 0.31696 0.97051 0.77507 0.0
C2023 C 0.32408 0.95395 0.76686 0.0
H2024 H 0.63398 0.80072 0.70559 0.0
H2025 H 0.6623 0.85268 0.7403 0.0
H2026 H 0.64592 0.84247 0.76964 0.0
H2027 H 0.62307 0.81939 0.78532 0.0
H2028 H 0.59406 0.76758 0.75099 0.0
H2029 H 0.61133 0.77711 0.72164 0.0
C2030 C 0.63661 0.80979 0.71958 0.0
C2031 C 0.64932 0.82748 0.72068 0.0
C2032 C 0.62704 0.80387 0.73646 0.0
C2033 C 0.65255 0.83903 0.73896 0.0
C2034 C 0.6432 0.83321 0.75578 0.0
C2035 C 0.62055 0.81009 0.77146 0.0
C2036 C 0.60725 0.7928 0.77037 0.0
C2037 C 0.63035 0.81573 0.75468 0.0
C2038 C 0.60421 0.78097 0.75226 0.0
C2039 C 0.61405 0.78643 0.73546 0.0
H2040 H 0.39602 0.27541 0.70921 0.0
H2041 H 0.38352 0.21363 0.69614 0.0
H2042 H 0.41722 0.21116 0.70483 0.0
H2043 H 0.44953 0.22635 0.71839 0.0
H2044 H 0.46249 0.28819 0.73101 0.0
H2045 H 0.42954 0.29089 0.71963 0.0
C2046 C 0.40073 0.26142 0.70811 0.0
C2047 C 0.38704 0.24465 0.70285 0.0
C2048 C 0.42027 0.26014 0.7129 0.0
C2049 C 0.39344 0.22667 0.70116 0.0
C2050 C 0.41282 0.22527 0.70584 0.0
C2051 C 0.44526 0.24045 0.71842 0.0
C2052 C 0.45841 0.25703 0.72572 0.0
C2053 C 0.42623 0.24188 0.71216 0.0
C2054 C 0.45268 0.27519 0.72546 0.0
C2055 C 0.43378 0.27674 0.71909 0.0
H2056 H 0.68895 0.73432 0.16385 0.0
H2057 H 0.73016 0.69409 0.1615 0.0
H2058 H 0.74822 0.71025 0.13598 0.0
H2059 H 0.75205 0.73544 0.11393 0.0
H2060 H 0.71096 0.77569 0.11634 0.0
H2061 H 0.69304 0.75975 0.14209 0.0
C2062 C 0.7019 0.72907 0.15781 0.0
C2063 C 0.70813 0.71296 0.16466 0.0
C2064 C 0.71222 0.7384 0.14307 0.0
C2065 C 0.72496 0.70642 0.15656 0.0
C2066 C 0.73533 0.71566 0.14194 0.0
C2067 C 0.73933 0.7409 0.12024 0.0
C2068 C 0.73292 0.75681 0.11317 0.0
C2069 C 0.72909 0.73164 0.13507 0.0
C2070 C 0.71613 0.76339 0.12131 0.0
C2071 C 0.70591 0.75431 0.13612 0.0
H2072 H 0.32441 0.74111 0.11897 0.0
H2073 H 0.33917 0.68527 0.09803 0.0
H2074 H 0.33331 0.69062 0.06409 0.0
H2075 H 0.32216 0.71026 0.04047 0.0
H2076 H 0.30791 0.76636 0.061 0.0
H2077 H 0.31568 0.76192 0.09492 0.0
C2078 C 0.32644 0.73016 0.10697 0.0
C2079 C 0.33204 0.71273 0.11108 0.0
C2080 C 0.32316 0.73338 0.0874 0.0
C2081 C 0.33482 0.69879 0.09533 0.0
C2082 C 0.33144 0.70182 0.07589 0.0
C2083 C 0.32092 0.72161 0.05234 0.0
C2084 C 0.31433 0.73855 0.04821 0.0
C2085 C 0.32535 0.71893 0.07177 0.0
C2086 C 0.313 0.75319 0.06375 0.0
C2087 C 0.31732 0.75061 0.08317 0.0
H2088 H 0.34927 0.32143 0.15207 0.0
H2089 H 0.36286 0.27673 0.18507 0.0
H2090 H 0.34404 0.25231 0.16121 0.0
H2091 H 0.32298 0.24371 0.13167 0.0
H2092 H 0.31105 0.28776 0.09708 0.0
H2093 H 0.32993 0.31251 0.12096 0.0
C2094 C 0.34819 0.30633 0.15396 0.0
C2095 C 0.35735 0.30091 0.1704 0.0
C2096 C 0.33753 0.29232 0.14004 0.0
C2097 C 0.35603 0.28129 0.17253 0.0
C2098 C 0.34517 0.26732 0.15896 0.0
C2099 C 0.3244 0.25875 0.12942 0.0
C2100 C 0.31536 0.26401 0.11289 0.0
C2101 C 0.33569 0.2727 0.14282 0.0
C2102 C 0.31777 0.28345 0.10982 0.0
C2103 C 0.32856 0.29755 0.12344 0.0
H2104 H 0.81308 0.35259 0.15664 0.0
H2105 H 0.76437 0.3082 0.16453 0.0
H2106 H 0.76063 0.29997 0.1289 0.0
H2107 H 0.77105 0.30532 0.09576 0.0
H2108 H 0.81897 0.35058 0.08764 0.0
H2109 H 0.82328 0.3582 0.1231 0.0
C2110 C 0.80167 0.34109 0.15057 0.0
C2111 C 0.78901 0.33105 0.16327 0.0
C2112 C 0.79945 0.33652 0.13002 0.0
C2113 C 0.77428 0.31621 0.15513 0.0
C2114 C 0.77213 0.31148 0.13474 0.0
C2115 C 0.7823 0.31704 0.10154 0.0
C2116 C 0.79455 0.32732 0.08866 0.0
C2117 C 0.78457 0.3216 0.12205 0.0
C2118 C 0.80929 0.34221 0.09687 0.0
C2119 C 0.81177 0.34669 0.11729 0.0
H2120 H 0.73383 0.36414 0.93181 0.0
H2121 H 0.76405 0.34224 0.88084 0.0
H2122 H 0.78714 0.33103 0.90215 0.0
H2123 H 0.7987 0.32724 0.93524 0.0
H2124 H 0.76794 0.34825 0.98622 0.0
H2125 H 0.74516 0.35997 0.96493 0.0
C2126 C 0.7455 0.35696 0.92536 0.0
C2127 C 0.74721 0.35409 0.90473 0.0
C2128 C 0.75864 0.35035 0.93771 0.0
C2129 C 0.76235 0.34463 0.89665 0.0
C2130 C 0.77559 0.33822 0.90883 0.0
C2131 C 0.78705 0.33442 0.94172 0.0
C2132 C 0.7851 0.33689 0.96232 0.0
C2133 C 0.77387 0.34097 0.92938 0.0
C2134 C 0.7698 0.34612 0.97042 0.0
C2135 C 0.75676 0.35285 0.95825 0.0
H2136 H 0.73953 0.69074 0.96665 0.0
H2137 H 0.7931 0.7166 0.94183 0.0
H2138 H 0.80553 0.73071 0.97474 0.0
H2139 H 0.79963 0.73837 0.01014 0.0
H2140 H 0.74635 0.71154 0.0349 0.0
H2141 H 0.73555 0.69491 1.00253 0.0
C2142 C 0.75402 0.69927 0.96849 0.0
C2143 C 0.76526 0.70285 0.95183 0.0
C2144 C 0.76111 0.70722 0.98744 0.0
C2145 C 0.78415 0.71367 0.95443 0.0
C2146 C 0.79122 0.72181 0.97324 0.0
C2147 C 0.7858 0.72863 0.00851 0.0
C2148 C 0.77372 0.72644 0.0249 0.0
C2149 C 0.77962 0.71908 0.9898 0.0
C2150 C 0.75595 0.71359 0.02256 0.0
C2151 C 0.74967 0.70413 0.00401 0.0
H2152 H 0.37352 0.7414 0.88637 0.0
H2153 H 0.33234 0.69727 0.85298 0.0
H2154 H 0.31242 0.69363 0.88225 0.0
H2155 H 0.30544 0.70496 0.91667 0.0
H2156 H 0.34703 0.74909 0.9498 0.0
H2157 H 0.36787 0.75092 0.92124 0.0
C2158 C 0.36028 0.73084 0.88556 0.0
C2159 C 0.35452 0.7195 0.86758 0.0
C2160 C 0.34881 0.72903 0.90234 0.0
C2161 C 0.33736 0.70585 0.86674 0.0
C2162 C 0.32584 0.70394 0.88343 0.0
C2163 C 0.31919 0.71476 0.91778 0.0
C2164 C 0.32442 0.72709 0.93539 0.0
C2165 C 0.33126 0.71569 0.90125 0.0
C2166 C 0.34232 0.73976 0.93639 0.0
C2167 C 0.35436 0.74075 0.92007 0.0
H2168 H 0.3619 0.26126 0.93421 0.0
H2169 H 0.33377 0.30972 0.95603 0.0
H2170 H 0.32588 0.29556 0.9865 0.0
H2171 H 0.32717 0.26952 0.00692 0.0
H2172 H 0.35449 0.22067 0.98438 0.0
H2173 H 0.36282 0.23515 0.9544 0.0
C2174 C 0.35403 0.26877 0.94561 0.0
C2175 C 0.34844 0.28655 0.9428 0.0
C2176 C 0.34952 0.26054 0.96304 0.0
C2177 C 0.33823 0.29601 0.95776 0.0
C2178 C 0.33374 0.28793 0.97521 0.0
C2179 C 0.33478 0.26189 0.99544 0.0
C2180 C 0.34015 0.24394 0.99809 0.0
C2181 C 0.3393 0.27019 0.978 0.0
C2182 C 0.35036 0.23457 0.98303 0.0
C2183 C 0.35502 0.24279 0.96574 0.0
H2184 H 0.59472 0.67422 0.25464 0.0
H2185 H 0.62305 0.73228 0.25026 0.0
H2186 H 0.59702 0.745 0.26908 0.0
H2187 H 0.56557 0.73984 0.28559 0.0
H2188 H 0.53679 0.68212 0.29012 0.0
H2189 H 0.56376 0.66909 0.27277 0.0
C2190 C 0.59526 0.68965 0.25789 0.0
C2191 C 0.61082 0.70224 0.25086 0.0
C2192 C 0.58015 0.69695 0.26877 0.0
C2193 C 0.61128 0.72221 0.25536 0.0
C2194 C 0.59637 0.72954 0.26613 0.0
C2195 C 0.56517 0.7244 0.28273 0.0
C2196 C 0.54908 0.71197 0.28895 0.0
C2197 C 0.58062 0.71706 0.27268 0.0
C2198 C 0.54902 0.692 0.28557 0.0
C2199 C 0.56439 0.68455 0.27554 0.0
H2200 H 0.30503 0.62554 0.24174 0.0
H2201 H 0.35842 0.6115 0.21511 0.0
H2202 H 0.35656 0.58356 0.23315 0.0
H2203 H 0.33982 0.56313 0.25689 0.0
H2204 H 0.28562 0.57627 0.28198 0.0
H2205 H 0.28774 0.60457 0.26433 0.0
C2206 C 0.31623 0.61634 0.23982 0.0
C2207 C 0.33186 0.62067 0.22712 0.0
C2208 C 0.31497 0.60018 0.2501 0.0
C2209 C 0.34617 0.60848 0.22472 0.0
C2210 C 0.34518 0.59253 0.23511 0.0
C2211 C 0.32862 0.57234 0.25854 0.0
C2212 C 0.31268 0.56781 0.27077 0.0
C2213 C 0.32971 0.5883 0.24794 0.0
C2214 C 0.29799 0.57955 0.27259 0.0
C2215 C 0.29921 0.59569 0.26251 0.0
H2216 H 0.46834 0.32147 0.23608 0.0
H2217 H 0.42452 0.28338 0.26336 0.0
H2218 H 0.45021 0.2696 0.27862 0.0
H2219 H 0.48504 0.26994 0.28622 0.0
H2220 H 0.52895 0.30936 0.26073 0.0
H2221 H 0.50336 0.32091 0.2427 0.0
C2222 C 0.4644 0.31005 0.24524 0.0
C2223 C 0.44448 0.30352 0.24856 0.0
C2224 C 0.47929 0.30243 0.25435 0.0
C2225 C 0.43969 0.28877 0.26058 0.0
C2226 C 0.45439 0.28086 0.26934 0.0
C2227 C 0.48907 0.28075 0.27638 0.0
C2228 C 0.50894 0.28864 0.27468 0.0
C2229 C 0.47424 0.28776 0.26656 0.0
C2230 C 0.5138 0.30298 0.26222 0.0
C2231 C 0.49916 0.30965 0.25198 0.0
H2232 H 0.75264 0.39684 0.22602 0.0
H2233 H 0.76528 0.39497 0.28744 0.0
H2234 H 0.755 0.4264 0.2959 0.0
H2235 H 0.74614 0.45584 0.28528 0.0
H2236 H 0.73432 0.45801 0.2236 0.0
H2237 H 0.73981 0.4248 0.21591 0.0
C2238 C 0.75285 0.40325 0.24127 0.0
C2239 C 0.75965 0.3937 0.2561 0.0
C2240 C 0.74699 0.42133 0.24598 0.0
C2241 C 0.75982 0.40199 0.27582 0.0
C2242 C 0.75405 0.42 0.28064 0.0
C2243 C 0.74434 0.44895 0.2702 0.0
C2244 C 0.74024 0.4596 0.255 0.0
C2245 C 0.74805 0.42999 0.26578 0.0
C2246 C 0.73769 0.45028 0.2356 0.0
C2247 C 0.74099 0.4313 0.23113 0.0
H2248 H 0.60984 0.35681 0.79486 0.0
H2249 H 0.62768 0.32206 0.83731 0.0
H2250 H 0.59805 0.29861 0.82973 0.0
H2251 H 0.56763 0.28758 0.81059 0.0
H2252 H 0.54971 0.32187 0.76778 0.0
H2253 H 0.57885 0.34599 0.77608 0.0
C2254 C 0.60724 0.34414 0.80251 0.0
C2255 C 0.62103 0.3412 0.81661 0.0
C2256 C 0.59018 0.33065 0.79802 0.0
C2257 C 0.61737 0.32469 0.82638 0.0
C2258 C 0.60042 0.31126 0.82205 0.0
C2259 C 0.57 0.30035 0.80309 0.0
C2260 C 0.55649 0.30288 0.78855 0.0
C2261 C 0.5868 0.31404 0.80783 0.0
C2262 C 0.55985 0.31956 0.77903 0.0
C2263 C 0.57654 0.33334 0.78375 0.0
H2264 H 0.80579 0.6474 0.85035 0.0
H2265 H 0.75145 0.61324 0.86447 0.0
H2266 H 0.76206 0.5844 0.84751 0.0
H2267 H 0.78558 0.56931 0.82656 0.0
H2268 H 0.83976 0.60346 0.81196 0.0
H2269 H 0.83052 0.63173 0.83151 0.0
C2270 C 0.79632 0.63363 0.84984 0.0
C2271 C 0.77775 0.63256 0.85851 0.0
C2272 C 0.80248 0.61706 0.83999 0.0
C2273 C 0.76576 0.61454 0.85785 0.0
C2274 C 0.77181 0.59801 0.84814 0.0
C2275 C 0.79553 0.58286 0.82787 0.0
C2276 C 0.81329 0.58424 0.81763 0.0
C2277 C 0.78999 0.59915 0.83887 0.0
C2278 C 0.82599 0.60193 0.81961 0.0
C2279 C 0.82067 0.61817 0.83072 0.0
H2280 H 0.45421 0.73697 0.84539 0.0
H2281 H 0.44788 0.7305 0.78215 0.0
H2282 H 0.48264 0.72737 0.77886 0.0
H2283 H 0.5155 0.73055 0.79429 0.0
H2284 H 0.5211 0.73574 0.85773 0.0
H2285 H 0.48585 0.73455 0.86058 0.0
C2286 C 0.46043 0.73454 0.83091 0.0
C2287 C 0.44874 0.73419 0.81404 0.0
C2288 C 0.48024 0.73245 0.82917 0.0
C2289 C 0.45673 0.73079 0.79533 0.0
C2290 C 0.47657 0.72907 0.79346 0.0
C2291 C 0.50897 0.73091 0.80872 0.0
C2292 C 0.52106 0.73371 0.82577 0.0
C2293 C 0.4886 0.7304 0.81031 0.0
C2294 C 0.51226 0.73386 0.84433 0.0
C2295 C 0.49207 0.73333 0.84602 0.0
H2296 H 0.34146 0.41612 0.85553 0.0
H2297 H 0.29532 0.3682 0.8394 0.0
H2298 H 0.27439 0.39 0.8288 0.0
H2299 H 0.26904 0.42272 0.82407 0.0
H2300 H 0.31524 0.47057 0.83958 0.0
H2301 H 0.33622 0.44882 0.85043 0.0
C2302 C 0.32685 0.41042 0.84964 0.0
C2303 C 0.32003 0.39049 0.8483 0.0
C2304 C 0.31482 0.42307 0.84352 0.0
C2305 C 0.30103 0.38343 0.84059 0.0
C2306 C 0.28899 0.39591 0.83457 0.0
C2307 C 0.28361 0.42841 0.83004 0.0
C2308 C 0.2905 0.4483 0.83114 0.0
C2309 C 0.29568 0.41577 0.83604 0.0
C2310 C 0.3096 0.45535 0.83852 0.0
C2311 C 0.3216 0.44291 0.84474 0.0
H2312 H 0.72697 0.62993 0.245 0.0
H2313 H 0.70691 0.60479 0.18644 0.0
H2314 H 0.72269 0.57675 0.18988 0.0
H2315 H 0.7414 0.55881 0.20998 0.0
H2316 H 0.75996 0.58328 0.26904 0.0
H2317 H 0.74563 0.61208 0.26502 0.0
C2318 C 0.72614 0.61836 0.23295 0.0
C2319 C 0.71579 0.61949 0.21548 0.0
C2320 C 0.73496 0.60211 0.23516 0.0
C2321 C 0.71472 0.60428 0.20008 0.0
C2322 C 0.72377 0.58824 0.20202 0.0
C2323 C 0.74246 0.57057 0.22183 0.0
C2324 C 0.75172 0.56896 0.23976 0.0
C2325 C 0.73384 0.58693 0.21953 0.0
C2326 C 0.75275 0.58415 0.25517 0.0
C2327 C 0.7446 0.60063 0.25285 0.0
H2328 H 0.70511 0.42107 0.80334 0.0
H2329 H 0.74441 0.43431 0.85402 0.0
H2330 H 0.76073 0.46299 0.84066 0.0
H2331 H 0.76369 0.48423 0.81467 0.0
H2332 H 0.72517 0.46989 0.76336 0.0
H2333 H 0.70846 0.44193 0.77719 0.0
C2334 C 0.71723 0.43022 0.81153 0.0
C2335 C 0.72349 0.42552 0.8297 0.0
C2336 C 0.72661 0.44657 0.80372 0.0
C2337 C 0.73929 0.43754 0.84 0.0
C2338 C 0.74861 0.45396 0.83238 0.0
C2339 C 0.7518 0.47497 0.80634 0.0
C2340 C 0.74581 0.47939 0.7879 0.0
C2341 C 0.74241 0.4586 0.81422 0.0
C2342 C 0.73004 0.4672 0.77766 0.0
C2343 C 0.72051 0.45104 0.7855 0.0
H2344 H 0.6827 0.7524 0.8969 0.0
H2345 H 0.66945 0.69853 0.85908 0.0
H2346 H 0.64185 0.70999 0.84422 0.0
H2347 H 0.62086 0.73501 0.84277 0.0
H2348 H 0.63464 0.78881 0.88063 0.0
H2349 H 0.66251 0.77755 0.89477 0.0
C2350 C 0.67385 0.74314 0.88536 0.0
C2351 C 0.67816 0.7246 0.87917 0.0
C2352 C 0.65798 0.74977 0.87696 0.0
C2353 C 0.66649 0.71286 0.86415 0.0
C2354 C 0.65068 0.7194 0.85566 0.0
C2355 C 0.63007 0.74436 0.85395 0.0
C2356 C 0.62549 0.76272 0.86067 0.0
C2357 C 0.64621 0.7378 0.86204 0.0
C2358 C 0.63753 0.77451 0.87537 0.0
C2359 C 0.65359 0.76813 0.88341 0.0
H2360 H 0.3377 0.6129 0.82663 0.0
H2361 H 0.33734 0.62829 0.76744 0.0
H2362 H 0.32475 0.59499 0.75471 0.0
H2363 H 0.31206 0.56191 0.76054 0.0
H2364 H 0.31219 0.54653 0.81975 0.0
H2365 H 0.32689 0.57934 0.83221 0.0
C2366 C 0.33494 0.60897 0.81094 0.0
C2367 C 0.3383 0.62313 0.79805 0.0
C2368 C 0.32769 0.58977 0.80368 0.0
C2369 C 0.33482 0.61772 0.77773 0.0
C2370 C 0.32761 0.59866 0.77041 0.0
C2371 C 0.31551 0.56565 0.77614 0.0
C2372 C 0.31088 0.55178 0.78918 0.0
C2373 C 0.32376 0.58462 0.78327 0.0
C2374 C 0.31552 0.55691 0.80936 0.0
C2375 C 0.32387 0.57571 0.81653 0.0
H2376 H 0.39799 0.28827 0.85763 0.0
H2377 H 0.40621 0.33746 0.82525 0.0
H2378 H 0.43278 0.32461 0.807 0.0
H2379 H 0.45454 0.30008 0.80139 0.0
H2380 H 0.44545 0.25073 0.83361 0.0
H2381 H 0.41854 0.26323 0.85099 0.0
C2382 C 0.4055 0.29622 0.84654 0.0
C2383 C 0.40011 0.3139 0.84293 0.0
C2384 C 0.42076 0.28881 0.8362 0.0
C2385 C 0.40999 0.32384 0.82836 0.0
C2386 C 0.42524 0.31651 0.81796 0.0
C2387 C 0.44658 0.29188 0.81201 0.0
C2388 C 0.4523 0.27446 0.81619 0.0
C2389 C 0.43088 0.29909 0.8219 0.0
C2390 C 0.44178 0.26429 0.83026 0.0
C2391 C 0.42623 0.27138 0.84015 0.0
H2392 H 0.3105 0.40287 0.2189 0.0
H2393 H 0.3647 0.41241 0.25291 0.0
H2394 H 0.3547 0.44042 0.27202 0.0
H2395 H 0.33068 0.46173 0.27956 0.0
H2396 H 0.27611 0.45282 0.24637 0.0
H2397 H 0.28625 0.42501 0.2263 0.0
C2398 C 0.32014 0.4111 0.23047 0.0
C2399 C 0.33834 0.40546 0.23447 0.0
C2400 C 0.31426 0.42727 0.24151 0.0
C2401 C 0.35063 0.41634 0.2495 0.0
C2402 C 0.34493 0.43239 0.26045 0.0
C2403 C 0.32091 0.45379 0.26793 0.0
C2404 C 0.30259 0.45934 0.26453 0.0
C2405 C 0.32677 0.4379 0.25665 0.0
C2406 C 0.29027 0.44887 0.2493 0.0
C2407 C 0.29607 0.43296 0.23787 0.0
H2408 H 0.68675 0.35277 0.32154 0.0
H2409 H 0.67495 0.39449 0.28381 0.0
H2410 H 0.64045 0.38949 0.29255 0.0
H2411 H 0.61313 0.37082 0.30812 0.0
H2412 H 0.62484 0.32898 0.34567 0.0
H2413 H 0.65988 0.33652 0.33981 0.0
C2414 C 0.67669 0.36093 0.31539 0.0
C2415 C 0.6834 0.37379 0.30183 0.0
C2416 C 0.65681 0.35786 0.32032 0.0
C2417 C 0.67018 0.38439 0.29417 0.0
C2418 C 0.65041 0.38152 0.29913 0.0
C2419 C 0.62335 0.36368 0.31542 0.0
C2420 C 0.61629 0.34917 0.32713 0.0
C2421 C 0.64348 0.36795 0.31182 0.0
C2422 C 0.62983 0.33995 0.33631 0.0
C2423 C 0.64988 0.34428 0.33298 0.0
H2424 H 0.41229 0.70112 0.21038 0.0
H2425 H 0.38358 0.75072 0.20805 0.0
H2426 H 0.40992 0.77073 0.22863 0.0
H2427 H 0.43956 0.77325 0.24986 0.0
H2428 H 0.46759 0.723 0.2517 0.0
H2429 H 0.4431 0.70423 0.22868 0.0
C2430 C 0.41185 0.71635 0.21421 0.0
C2431 C 0.39589 0.72436 0.20793 0.0
C2432 C 0.42687 0.72765 0.2261 0.0
C2433 C 0.39571 0.74419 0.21274 0.0
C2434 C 0.41071 0.75561 0.2246 0.0
C2435 C 0.44044 0.75826 0.24503 0.0
C2436 C 0.45526 0.74952 0.25277 0.0
C2437 C 0.42614 0.74738 0.23177 0.0
C2438 C 0.45623 0.7301 0.24622 0.0
C2439 C 0.44222 0.71929 0.23302 0.0
loop_
_geom_bond_atom_site_label_1
_geom_bond_atom_site_label_2
_geom_bond_distance
_geom_bond_site_symmetry_2
_ccdc_geom_bond_type
O0 Cd1 2.300 . S
O0 C7 1.275 . S
Cd1 O0 2.300 . S
Cd1 O9 2.381 . S
Cd1 O10 2.378 . S
O2 Cd3 2.385 . S
O2 C7 1.255 . S
Cd3 O2 2.385 . S
Cd3 O4 2.317 . S
O4 Cd3 2.317 . S
O4 C5 1.232 . S
C5 O4 1.232 . S
C5 O6 1.218 . S
O6 C5 1.218 . S
C7 O0 1.275 . S
C7 O2 1.255 . S
C8 O9 1.258 . S
C8 O10 1.256 . S
O9 Cd1 2.381 . S
O9 C8 1.258 . S
O10 Cd1 2.378 . S
O10 C8 1.256 . S
O11 Cd12 2.300 . S
O11 C18 1.275 . S
Cd12 O11 2.300 . S
Cd12 O20 2.381 . S
Cd12 O21 2.378 . S
O13 Cd14 2.385 . S
O13 C18 1.255 . S
Cd14 O13 2.385 . S
Cd14 O15 2.317 . S
O15 Cd14 2.317 . S
O15 C16 1.232 . S
C16 O15 1.232 . S
C16 O17 1.218 . S
O17 C16 1.218 . S
C18 O11 1.275 . S
C18 O13 1.255 . S
C19 O20 1.258 . S
C19 O21 1.256 . S
O20 Cd12 2.381 . S
O20 C19 1.258 . S
O21 Cd12 2.378 . S
O21 C19 1.256 . S
O22 Cd23 2.300 . S
O22 C29 1.275 . S
Cd23 O22 2.300 . S
Cd23 O31 2.381 . S
Cd23 O32 2.378 . S
O24 Cd25 2.385 . S
O24 C29 1.255 . S
Cd25 O24 2.385 . S
Cd25 O26 2.317 . S
O26 Cd25 2.317 . S
O26 C27 1.232 . S
C27 O26 1.232 . S
C27 O28 1.218 . S
O28 C27 1.218 . S
C29 O22 1.275 . S
C29 O24 1.255 . S
C30 O31 1.258 . S
C30 O32 1.256 . S
O31 Cd23 2.381 . S
O31 C30 1.258 . S
O32 Cd23 2.378 . S
O32 C30 1.256 . S
O33 Cd34 2.300 . S
O33 C40 1.275 . S
Cd34 O33 2.300 . S
Cd34 O42 2.381 . S
Cd34 O43 2.378 . S
O35 Cd36 2.385 . S
O35 C40 1.255 . S
Cd36 O35 2.385 . S
Cd36 O37 2.317 . S
O37 Cd36 2.317 . S
O37 C38 1.232 . S
C38 O37 1.232 . S
C38 O39 1.218 . S
O39 C38 1.218 . S
C40 O33 1.275 . S
C40 O35 1.255 . S
C41 O42 1.258 . S
C41 O43 1.256 . S
O42 Cd34 2.381 . S
O42 C41 1.258 . S
O43 Cd34 2.378 . S
O43 C41 1.256 . S
O44 Cd45 2.300 . S
O44 C51 1.275 . S
Cd45 O44 2.300 . S
Cd45 O53 2.381 . S
Cd45 O54 2.378 . S
O46 Cd47 2.385 . S
O46 C51 1.255 . S
Cd47 O46 2.385 . S
Cd47 O48 2.317 . S
O48 Cd47 2.317 . S
O48 C49 1.232 . S
C49 O48 1.232 . S
C49 O50 1.218 . S
O50 C49 1.218 . S
C51 O44 1.275 . S
C51 O46 1.255 . S
C52 O53 1.258 . S
C52 O54 1.256 . S
O53 Cd45 2.381 . S
O53 C52 1.258 . S
O54 Cd45 2.378 . S
O54 C52 1.256 . S
O55 Cd56 2.300 . S
O55 C62 1.275 . S
Cd56 O55 2.300 . S
Cd56 O64 2.381 . S
Cd56 O65 2.378 . S
O57 Cd58 2.385 . S
O57 C62 1.255 . S
Cd58 O57 2.385 . S
Cd58 O59 2.317 . S
O59 Cd58 2.317 . S
O59 C60 1.232 . S
C60 O59 1.232 . S
C60 O61 1.218 . S
O61 C60 1.218 . S
C62 O55 1.275 . S
C62 O57 1.255 . S
C63 O64 1.258 . S
C63 O65 1.256 . S
O64 Cd56 2.381 . S
O64 C63 1.258 . S
O65 Cd56 2.378 . S
O65 C63 1.256 . S
O66 Cd67 2.300 . S
O66 C73 1.275 . S
Cd67 O66 2.300 . S
Cd67 O75 2.381 . S
Cd67 O76 2.378 . S
O68 Cd69 2.385 . S
O68 C73 1.255 . S
Cd69 O68 2.385 . S
Cd69 O70 2.317 . S
O70 Cd69 2.317 . S
O70 C71 1.232 . S
C71 O70 1.232 . S
C71 O72 1.218 . S
O72 C71 1.218 . S
C73 O66 1.275 . S
C73 O68 1.255 . S
C74 O75 1.258 . S
C74 O76 1.256 . S
O75 Cd67 2.381 . S
O75 C74 1.258 . S
O76 Cd67 2.378 . S
O76 C74 1.256 . S
O77 Cd78 2.300 . S
O77 C84 1.275 . S
Cd78 O77 2.300 . S
Cd78 O86 2.381 . S
Cd78 O87 2.378 . S
O79 Cd80 2.385 . S
O79 C84 1.255 . S
Cd80 O79 2.385 . S
Cd80 O81 2.317 . S
O81 Cd80 2.317 . S
O81 C82 1.232 . S
C82 O81 1.232 . S
C82 O83 1.218 . S
O83 C82 1.218 . S
C84 O77 1.275 . S
C84 O79 1.255 . S
C85 O86 1.258 . S
C85 O87 1.256 . S
O86 Cd78 2.381 . S
O86 C85 1.258 . S
O87 Cd78 2.378 . S
O87 C85 1.256 . S
O88 Cd89 2.300 . S
O88 C95 1.275 . S
Cd89 O88 2.300 . S
Cd89 O97 2.381 . S
Cd89 O98 2.378 . S
O90 Cd91 2.385 . S
O90 C95 1.255 . S
Cd91 O90 2.385 . S
Cd91 O92 2.317 . S
O92 Cd91 2.317 . S
O92 C93 1.232 . S
C93 O92 1.232 . S
C93 O94 1.218 . S
O94 C93 1.218 . S
C95 O88 1.275 . S
C95 O90 1.255 . S
C96 O97 1.258 . S
C96 O98 1.256 . S
O97 Cd89 2.381 . S
O97 C96 1.258 . S
O98 Cd89 2.378 . S
O98 C96 1.256 . S
O99 Cd100 2.300 . S
O99 C106 1.275 . S
Cd100 O99 2.300 . S
Cd100 O108 2.381 . S
Cd100 O109 2.378 . S
O101 Cd102 2.385 . S
O101 C106 1.255 . S
Cd102 O101 2.385 . S
Cd102 O103 2.317 . S
O103 Cd102 2.317 . S
O103 C104 1.232 . S
C104 O103 1.232 . S
C104 O105 1.218 . S
O105 C104 1.218 . S
C106 O99 1.275 . S
C106 O101 1.255 . S
C107 O108 1.258 . S
C107 O109 1.256 . S
O108 Cd100 2.381 . S
O108 C107 1.258 . S
O109 Cd100 2.378 . S
O109 C107 1.256 . S
O110 Cd111 2.300 . S
O110 C117 1.275 . S
Cd111 O110 2.300 . S
Cd111 O119 2.381 . S
Cd111 O120 2.378 . S
O112 Cd113 2.385 . S
O112 C117 1.255 . S
Cd113 O112 2.385 . S
Cd113 O114 2.317 . S
O114 Cd113 2.317 . S
O114 C115 1.232 . S
C115 O114 1.232 . S
C115 O116 1.218 . S
O116 C115 1.218 . S
C117 O110 1.275 . S
C117 O112 1.255 . S
C118 O119 1.258 . S
C118 O120 1.256 . S
O119 Cd111 2.381 . S
O119 C118 1.258 . S
O120 Cd111 2.378 . S
O120 C118 1.256 . S
O121 Cd122 2.300 . S
O121 C128 1.275 . S
Cd122 O121 2.300 . S
Cd122 O130 2.381 . S
Cd122 O131 2.378 . S
O123 Cd124 2.385 . S
O123 C128 1.255 . S
Cd124 O123 2.385 . S
Cd124 O125 2.317 . S
O125 Cd124 2.317 . S
O125 C126 1.232 . S
C126 O125 1.232 . S
C126 O127 1.218 . S
O127 C126 1.218 . S
C128 O121 1.275 . S
C128 O123 1.255 . S
C129 O130 1.258 . S
C129 O131 1.256 . S
O130 Cd122 2.381 . S
O130 C129 1.258 . S
O131 Cd122 2.378 . S
O131 C129 1.256 . S
O132 Cd133 2.300 . S
O132 C139 1.275 . S
Cd133 O132 2.300 . S
Cd133 O141 2.381 . S
Cd133 O142 2.378 . S
O134 Cd135 2.385 . S
O134 C139 1.255 . S
Cd135 O134 2.385 . S
Cd135 O136 2.317 . S
O136 Cd135 2.317 . S
O136 C137 1.232 . S
C137 O136 1.232 . S
C137 O138 1.218 . S
O138 C137 1.218 . S
C139 O132 1.275 . S
C139 O134 1.255 . S
C140 O141 1.258 . S
C140 O142 1.256 . S
O141 Cd133 2.381 . S
O141 C140 1.258 . S
O142 Cd133 2.378 . S
O142 C140 1.256 . S
O143 Cd144 2.300 . S
O143 C150 1.275 . S
Cd144 O143 2.300 . S
Cd144 O152 2.381 . S
Cd144 O153 2.378 . S
O145 Cd146 2.385 . S
O145 C150 1.255 . S
Cd146 O145 2.385 . S
Cd146 O147 2.317 . S
O147 Cd146 2.317 . S
O147 C148 1.232 . S
C148 O147 1.232 . S
C148 O149 1.218 . S
O149 C148 1.218 . S
C150 O143 1.275 . S
C150 O145 1.255 . S
C151 O152 1.258 . S
C151 O153 1.256 . S
O152 Cd144 2.381 . S
O152 C151 1.258 . S
O153 Cd144 2.378 . S
O153 C151 1.256 . S
O154 Cd155 2.300 . S
O154 C161 1.275 . S
Cd155 O154 2.300 . S
Cd155 O163 2.381 . S
Cd155 O164 2.378 . S
O156 Cd157 2.385 . S
O156 C161 1.255 . S
Cd157 O156 2.385 . S
Cd157 O158 2.317 . S
O158 Cd157 2.317 . S
O158 C159 1.232 . S
C159 O158 1.232 . S
C159 O160 1.218 . S
O160 C159 1.218 . S
C161 O154 1.275 . S
C161 O156 1.255 . S
C162 O163 1.258 . S
C162 O164 1.256 . S
O163 Cd155 2.381 . S
O163 C162 1.258 . S
O164 Cd155 2.378 . S
O164 C162 1.256 . S
O165 Cd166 2.300 . S
O165 C172 1.275 . S
Cd166 O165 2.300 . S
Cd166 O174 2.381 . S
Cd166 O175 2.378 . S
O167 Cd168 2.385 . S
O167 C172 1.255 . S
Cd168 O167 2.385 . S
Cd168 O169 2.317 . S
O169 Cd168 2.317 . S
O169 C170 1.232 . S
C170 O169 1.232 . S
C170 O171 1.218 . S
O171 C170 1.218 . S
C172 O165 1.275 . S
C172 O167 1.255 . S
C173 O174 1.258 . S
C173 O175 1.256 . S
O174 Cd166 2.381 . S
O174 C173 1.258 . S
O175 Cd166 2.378 . S
O175 C173 1.256 . S
O176 Cd177 2.300 . S
O176 C183 1.275 . S
Cd177 O176 2.300 . S
Cd177 O185 2.381 . S
Cd177 O186 2.378 . S
O178 Cd179 2.385 . S
O178 C183 1.255 . S
Cd179 O178 2.385 . S
Cd179 O180 2.317 . S
O180 Cd179 2.317 . S
O180 C181 1.232 . S
C181 O180 1.232 . S
C181 O182 1.218 . S
O182 C181 1.218 . S
C183 O176 1.275 . S
C183 O178 1.255 . S
C184 O185 1.258 . S
C184 O186 1.256 . S
O185 Cd177 2.381 . S
O185 C184 1.258 . S
O186 Cd177 2.378 . S
O186 C184 1.256 . S
O187 Cd188 2.300 . S
O187 C194 1.275 . S
Cd188 O187 2.300 . S
Cd188 O196 2.381 . S
Cd188 O197 2.378 . S
O189 Cd190 2.385 . S
O189 C194 1.255 . S
Cd190 O189 2.385 . S
Cd190 O191 2.317 . S
O191 Cd190 2.317 . S
O191 C192 1.232 . S
C192 O191 1.232 . S
C192 O193 1.218 . S
O193 C192 1.218 . S
C194 O187 1.275 . S
C194 O189 1.255 . S
C195 O196 1.258 . S
C195 O197 1.256 . S
O196 Cd188 2.381 . S
O196 C195 1.258 . S
O197 Cd188 2.378 . S
O197 C195 1.256 . S
O198 Cd199 2.300 . S
O198 C205 1.275 . S
Cd199 O198 2.300 . S
Cd199 O207 2.381 . S
Cd199 O208 2.378 . S
O200 Cd201 2.385 . S
O200 C205 1.255 . S
Cd201 O200 2.385 . S
Cd201 O202 2.317 . S
O202 Cd201 2.317 . S
O202 C203 1.232 . S
C203 O202 1.232 . S
C203 O204 1.218 . S
O204 C203 1.218 . S
C205 O198 1.275 . S
C205 O200 1.255 . S
C206 O207 1.258 . S
C206 O208 1.256 . S
O207 Cd199 2.381 . S
O207 C206 1.258 . S
O208 Cd199 2.378 . S
O208 C206 1.256 . S
O209 Cd210 2.300 . S
O209 C216 1.275 . S
Cd210 O209 2.300 . S
Cd210 O218 2.381 . S
Cd210 O219 2.378 . S
O211 Cd212 2.385 . S
O211 C216 1.255 . S
Cd212 O211 2.385 . S
Cd212 O213 2.317 . S
O213 Cd212 2.317 . S
O213 C214 1.232 . S
C214 O213 1.232 . S
C214 O215 1.218 . S
O215 C214 1.218 . S
C216 O209 1.275 . S
C216 O211 1.255 . S
C217 O218 1.258 . S
C217 O219 1.256 . S
O218 Cd210 2.381 . S
O218 C217 1.258 . S
O219 Cd210 2.378 . S
O219 C217 1.256 . S
O220 Cd221 2.300 . S
O220 C227 1.275 . S
Cd221 O220 2.300 . S
Cd221 O229 2.381 . S
Cd221 O230 2.378 . S
O222 Cd223 2.385 . S
O222 C227 1.255 . S
Cd223 O222 2.385 . S
Cd223 O224 2.317 . S
O224 Cd223 2.317 . S
O224 C225 1.232 . S
C225 O224 1.232 . S
C225 O226 1.218 . S
O226 C225 1.218 . S
C227 O220 1.275 . S
C227 O222 1.255 . S
C228 O229 1.258 . S
C228 O230 1.256 . S
O229 Cd221 2.381 . S
O229 C228 1.258 . S
O230 Cd221 2.378 . S
O230 C228 1.256 . S
O231 Cd232 2.300 . S
O231 C238 1.275 . S
Cd232 O231 2.300 . S
Cd232 O240 2.381 . S
Cd232 O241 2.378 . S
O233 Cd234 2.385 . S
O233 C238 1.255 . S
Cd234 O233 2.385 . S
Cd234 O235 2.317 . S
O235 Cd234 2.317 . S
O235 C236 1.232 . S
C236 O235 1.232 . S
C236 O237 1.218 . S
O237 C236 1.218 . S
C238 O231 1.275 . S
C238 O233 1.255 . S
C239 O240 1.258 . S
C239 O241 1.256 . S
O240 Cd232 2.381 . S
O240 C239 1.258 . S
O241 Cd232 2.378 . S
O241 C239 1.256 . S
O242 Cd243 2.300 . S
O242 C249 1.275 . S
Cd243 O242 2.300 . S
Cd243 O251 2.381 . S
Cd243 O252 2.378 . S
O244 Cd245 2.385 . S
O244 C249 1.255 . S
Cd245 O244 2.385 . S
Cd245 O246 2.317 . S
O246 Cd245 2.317 . S
O246 C247 1.232 . S
C247 O246 1.232 . S
C247 O248 1.218 . S
O248 C247 1.218 . S
C249 O242 1.275 . S
C249 O244 1.255 . S
C250 O251 1.258 . S
C250 O252 1.256 . S
O251 Cd243 2.381 . S
O251 C250 1.258 . S
O252 Cd243 2.378 . S
O252 C250 1.256 . S
O253 Cd254 2.300 . S
O253 C260 1.275 . S
Cd254 O253 2.300 . S
Cd254 O262 2.381 . S
Cd254 O263 2.378 . S
O255 Cd256 2.385 . S
O255 C260 1.255 . S
Cd256 O255 2.385 . S
Cd256 O257 2.317 . S
O257 Cd256 2.317 . S
O257 C258 1.232 . S
C258 O257 1.232 . S
C258 O259 1.218 . S
O259 C258 1.218 . S
C260 O253 1.275 . S
C260 O255 1.255 . S
C261 O262 1.258 . S
C261 O263 1.256 . S
O262 Cd254 2.381 . S
O262 C261 1.258 . S
O263 Cd254 2.378 . S
O263 C261 1.256 . S
O264 Cd265 2.300 . S
O264 C271 1.275 . S
Cd265 O264 2.300 . S
Cd265 O273 2.381 . S
Cd265 O274 2.378 . S
O266 Cd267 2.385 . S
O266 C271 1.255 . S
Cd267 O266 2.385 . S
Cd267 O268 2.317 . S
O268 Cd267 2.317 . S
O268 C269 1.232 . S
C269 O268 1.232 . S
C269 O270 1.218 . S
O270 C269 1.218 . S
C271 O264 1.275 . S
C271 O266 1.255 . S
C272 O273 1.258 . S
C272 O274 1.256 . S
O273 Cd265 2.381 . S
O273 C272 1.258 . S
O274 Cd265 2.378 . S
O274 C272 1.256 . S
O275 Cd276 2.300 . S
O275 C282 1.275 . S
Cd276 O275 2.300 . S
Cd276 O284 2.381 . S
Cd276 O285 2.378 . S
O277 Cd278 2.385 . S
O277 C282 1.255 . S
Cd278 O277 2.385 . S
Cd278 O279 2.317 . S
O279 Cd278 2.317 . S
O279 C280 1.232 . S
C280 O279 1.232 . S
C280 O281 1.218 . S
O281 C280 1.218 . S
C282 O275 1.275 . S
C282 O277 1.255 . S
C283 O284 1.258 . S
C283 O285 1.256 . S
O284 Cd276 2.381 . S
O284 C283 1.258 . S
O285 Cd276 2.378 . S
O285 C283 1.256 . S
O286 Cd287 2.300 . S
O286 C293 1.275 . S
Cd287 O286 2.300 . S
Cd287 O295 2.381 . S
Cd287 O296 2.378 . S
O288 Cd289 2.385 . S
O288 C293 1.255 . S
Cd289 O288 2.385 . S
Cd289 O290 2.317 . S
O290 Cd289 2.317 . S
O290 C291 1.232 . S
C291 O290 1.232 . S
C291 O292 1.218 . S
O292 C291 1.218 . S
C293 O286 1.275 . S
C293 O288 1.255 . S
C294 O295 1.258 . S
C294 O296 1.256 . S
O295 Cd287 2.381 . S
O295 C294 1.258 . S
O296 Cd287 2.378 . S
O296 C294 1.256 . S
O297 Cd298 2.300 . S
O297 C304 1.275 . S
Cd298 O297 2.300 . S
Cd298 O306 2.381 . S
Cd298 O307 2.378 . S
O299 Cd300 2.385 . S
O299 C304 1.255 . S
Cd300 O299 2.385 . S
Cd300 O301 2.317 . S
O301 Cd300 2.317 . S
O301 C302 1.232 . S
C302 O301 1.232 . S
C302 O303 1.218 . S
O303 C302 1.218 . S
C304 O297 1.275 . S
C304 O299 1.255 . S
C305 O306 1.258 . S
C305 O307 1.256 . S
O306 Cd298 2.381 . S
O306 C305 1.258 . S
O307 Cd298 2.378 . S
O307 C305 1.256 . S
O308 Cd309 2.300 . S
O308 C315 1.275 . S
Cd309 O308 2.300 . S
Cd309 O317 2.381 . S
Cd309 O318 2.378 . S
O310 Cd311 2.385 . S
O310 C315 1.255 . S
Cd311 O310 2.385 . S
Cd311 O312 2.317 . S
O312 Cd311 2.317 . S
O312 C313 1.232 . S
C313 O312 1.232 . S
C313 O314 1.218 . S
O314 C313 1.218 . S
C315 O308 1.275 . S
C315 O310 1.255 . S
C316 O317 1.258 . S
C316 O318 1.256 . S
O317 Cd309 2.381 . S
O317 C316 1.258 . S
O318 Cd309 2.378 . S
O318 C316 1.256 . S
O319 Cd320 2.300 . S
O319 C326 1.275 . S
Cd320 O319 2.300 . S
Cd320 O328 2.381 . S
Cd320 O329 2.378 . S
O321 Cd322 2.385 . S
O321 C326 1.255 . S
Cd322 O321 2.385 . S
Cd322 O323 2.317 . S
O323 Cd322 2.317 . S
O323 C324 1.232 . S
C324 O323 1.232 . S
C324 O325 1.218 . S
O325 C324 1.218 . S
C326 O319 1.275 . S
C326 O321 1.255 . S
C327 O328 1.258 . S
C327 O329 1.256 . S
O328 Cd320 2.381 . S
O328 C327 1.258 . S
O329 Cd320 2.378 . S
O329 C327 1.256 . S
O330 Cd331 2.300 . S
O330 C337 1.275 . S
Cd331 O330 2.300 . S
Cd331 O339 2.381 . S
Cd331 O340 2.378 . S
O332 Cd333 2.385 . S
O332 C337 1.255 . S
Cd333 O332 2.385 . S
Cd333 O334 2.317 . S
O334 Cd333 2.317 . S
O334 C335 1.232 . S
C335 O334 1.232 . S
C335 O336 1.218 . S
O336 C335 1.218 . S
C337 O330 1.275 . S
C337 O332 1.255 . S
C338 O339 1.258 . S
C338 O340 1.256 . S
O339 Cd331 2.381 . S
O339 C338 1.258 . S
O340 Cd331 2.378 . S
O340 C338 1.256 . S
O341 Cd342 2.300 . S
O341 C348 1.275 . S
Cd342 O341 2.300 . S
Cd342 O350 2.381 . S
Cd342 O351 2.378 . S
O343 Cd344 2.385 . S
O343 C348 1.255 . S
Cd344 O343 2.385 . S
Cd344 O345 2.317 . S
O345 Cd344 2.317 . S
O345 C346 1.232 . S
C346 O345 1.232 . S
C346 O347 1.218 . S
O347 C346 1.218 . S
C348 O341 1.275 . S
C348 O343 1.255 . S
C349 O350 1.258 . S
C349 O351 1.256 . S
O350 Cd342 2.381 . S
O350 C349 1.258 . S
O351 Cd342 2.378 . S
O351 C349 1.256 . S
Cu352 N353 1.999 . S
Cu352 O358 1.974 . S
Cu352 N363 1.985 . S
Cu352 O372 1.959 . S
N353 Cu352 1.999 . S
N353 C355 1.263 . S
N353 C357 1.389 . S
N354 C355 1.358 . S
N354 C356 1.400 . S
C355 N353 1.263 . S
C355 N354 1.358 . S
C355 H361 0.930 . S
C356 N354 1.400 . S
C356 C357 1.351 . S
C356 H373 0.930 . S
C357 N353 1.389 . S
C357 C356 1.351 . S
C357 H362 0.930 . S
O358 Cu352 1.974 . S
O358 C368 1.282 . S
C359 O360 1.261 . S
C359 O372 1.251 . S
O360 C359 1.261 . S
H361 C355 0.930 . S
H362 C357 0.930 . S
N363 Cu352 1.985 . S
N363 C365 1.335 . S
N363 C366 1.390 . S
N364 C365 1.345 . S
N364 C367 1.336 . S
C365 N363 1.335 . S
C365 N364 1.345 . S
C365 H370 0.930 . S
C366 N363 1.390 . S
C366 C367 1.346 . S
C366 H371 0.930 . S
C367 N364 1.336 . S
C367 C366 1.346 . S
C367 H374 0.929 . S
C368 O358 1.282 . S
C368 O369 1.216 . S
O369 C368 1.216 . S
H370 C365 0.930 . S
H371 C366 0.930 . S
O372 Cu352 1.959 . S
O372 C359 1.251 . S
H373 C356 0.930 . S
H374 C367 0.929 . S
Cu375 N376 1.999 . S
Cu375 O381 1.974 . S
Cu375 N386 1.985 1_554 S
Cu375 O395 1.959 1_554 S
N376 Cu375 1.999 . S
N376 C378 1.263 . S
N376 C380 1.389 . S
N377 C378 1.358 . S
N377 C379 1.400 . S
C378 N376 1.263 . S
C378 N377 1.358 . S
C378 H384 0.930 . S
C379 N377 1.400 . S
C379 C380 1.351 . S
C379 H396 0.930 . S
C380 N376 1.389 . S
C380 C379 1.351 . S
C380 H385 0.930 . S
O381 Cu375 1.974 . S
O381 C391 1.282 . S
C382 O383 1.261 . S
C382 O395 1.251 . S
O383 C382 1.261 . S
H384 C378 0.930 . S
H385 C380 0.930 . S
N386 Cu375 1.985 1_556 S
N386 C388 1.335 . S
N386 C389 1.390 . S
N387 C388 1.345 . S
N387 C390 1.336 . S
C388 N386 1.335 . S
C388 N387 1.345 . S
C388 H393 0.930 . S
C389 N386 1.390 . S
C389 C390 1.346 . S
C389 H394 0.897 1_556 S
C390 N387 1.336 . S
C390 C389 1.346 . S
C390 H397 0.929 . S
C391 O381 1.282 . S
C391 O392 1.216 . S
O392 C391 1.216 . S
H393 C388 0.930 . S
H394 C389 0.897 1_554 S
O395 Cu375 1.959 1_556 S
O395 C382 1.251 . S
H396 C379 0.930 . S
H397 C390 0.929 . S
Cu398 N399 1.999 . S
Cu398 O404 1.974 . S
Cu398 N409 1.985 . S
Cu398 O418 1.959 . S
N399 Cu398 1.999 . S
N399 C401 1.263 . S
N399 C403 1.389 . S
N400 C401 1.358 1_556 S
N400 C402 1.400 1_556 S
C401 N399 1.263 . S
C401 N400 1.358 1_554 S
C401 H407 0.930 1_554 S
C402 N400 1.400 1_554 S
C402 C403 1.351 . S
C402 H419 0.930 . S
C403 N399 1.389 . S
C403 C402 1.351 . S
C403 H408 0.930 . S
O404 Cu398 1.974 . S
O404 C414 1.282 . S
C405 O406 1.261 . S
C405 O418 1.251 . S
O406 C405 1.261 . S
H407 C401 0.930 1_556 S
H408 C403 0.930 . S
N409 Cu398 1.985 . S
N409 C411 1.335 . S
N409 C412 1.390 . S
N410 C411 1.345 . S
N410 C413 1.336 . S
C411 N409 1.335 . S
C411 N410 1.345 . S
C411 H416 0.930 . S
C412 N409 1.390 . S
C412 C413 1.346 . S
C412 H417 0.930 . S
C413 N410 1.336 . S
C413 C412 1.346 . S
C413 H420 0.929 . S
C414 O404 1.282 . S
C414 O415 1.216 . S
O415 C414 1.216 . S
H416 C411 0.930 . S
H417 C412 0.930 . S
O418 Cu398 1.959 . S
O418 C405 1.251 . S
H419 C402 0.930 . S
H420 C413 0.929 . S
Cu421 N422 1.999 1_556 S
Cu421 O427 1.974 1_556 S
Cu421 N432 1.985 . S
Cu421 O441 1.959 . S
N422 Cu421 1.999 1_554 S
N422 C424 1.263 . S
N422 C426 1.389 . S
N423 C424 1.358 . S
N423 C425 1.400 . S
C424 N422 1.263 . S
C424 N423 1.358 . S
C424 H430 0.930 . S
C425 N423 1.400 . S
C425 C426 1.351 . S
C425 H442 0.930 . S
C426 N422 1.389 . S
C426 C425 1.351 . S
C426 H431 0.930 . S
O427 Cu421 1.974 1_554 S
O427 C437 1.282 . S
C428 O429 1.261 . S
C428 O441 1.251 . S
O429 C428 1.261 . S
H430 C424 0.930 . S
H431 C426 0.930 . S
N432 Cu421 1.985 . S
N432 C434 1.335 . S
N432 C435 1.390 . S
N433 C434 1.345 . S
N433 C436 1.336 . S
C434 N432 1.335 . S
C434 N433 1.345 . S
C434 H439 0.930 . S
C435 N432 1.390 . S
C435 C436 1.346 . S
C435 H440 0.930 . S
C436 N433 1.336 . S
C436 C435 1.346 . S
C436 H443 0.929 . S
C437 O427 1.282 . S
C437 O438 1.216 . S
O438 C437 1.216 . S
H439 C434 0.930 . S
H440 C435 0.930 . S
O441 Cu421 1.959 . S
O441 C428 1.251 . S
H442 C425 0.930 . S
H443 C436 0.929 . S
Cu444 N445 1.999 . S
Cu444 O450 1.974 . S
Cu444 N455 1.985 1_455 S
Cu444 O464 1.959 1_455 S
N445 Cu444 1.999 . S
N445 C447 1.263 . S
N445 C449 1.389 . S
N446 C447 1.358 . S
N446 C448 1.400 . S
C447 N445 1.263 . S
C447 N446 1.358 . S
C447 H453 0.930 . S
C448 N446 1.400 . S
C448 C449 1.351 . S
C448 H465 0.930 . S
C449 N445 1.389 . S
C449 C448 1.351 . S
C449 H454 0.930 . S
O450 Cu444 1.974 . S
O450 C460 1.282 . S
C451 O452 1.261 . S
C451 O464 1.251 . S
O452 C451 1.261 . S
H453 C447 0.930 . S
H454 C449 0.930 . S
N455 Cu444 1.985 1_655 S
N455 C457 1.335 . S
N455 C458 1.390 . S
N456 C457 1.345 . S
N456 C459 1.336 . S
C457 N455 1.335 . S
C457 N456 1.345 . S
C457 H462 0.930 . S
C458 N455 1.390 . S
C458 C459 1.346 . S
C458 H463 0.930 1_655 S
C459 N456 1.336 . S
C459 C458 1.346 . S
C459 H466 0.929 . S
C460 O450 1.282 . S
C460 O461 1.216 . S
O461 C460 1.216 . S
H462 C457 0.930 . S
H463 C458 0.930 1_455 S
O464 Cu444 1.959 1_655 S
O464 C451 1.251 . S
H465 C448 0.930 . S
H466 C459 0.929 . S
Cu467 N468 2.000 . S
Cu467 O473 1.974 . S
Cu467 N478 1.984 1_545 S
Cu467 O487 1.959 1_545 S
N468 Cu467 2.000 . S
N468 C470 1.263 . S
N468 C472 1.389 . S
N469 C470 1.358 . S
N469 C471 1.400 . S
C470 N468 1.263 . S
C470 N469 1.358 . S
C470 H476 0.930 . S
C471 N469 1.400 . S
C471 C472 1.351 . S
C471 H488 0.930 . S
C472 N468 1.389 . S
C472 C471 1.351 . S
C472 H477 0.930 . S
O473 Cu467 1.974 . S
O473 C483 1.282 . S
C474 O475 1.261 . S
C474 O487 1.251 . S
O475 C474 1.261 . S
H476 C470 0.930 . S
H477 C472 0.930 . S
N478 Cu467 1.984 1_565 S
N478 C480 1.335 . S
N478 C481 1.390 . S
N479 C480 1.345 . S
N479 C482 1.336 . S
C480 N478 1.335 . S
C480 N479 1.345 . S
C480 H485 0.930 . S
C481 N478 1.390 . S
C481 C482 1.346 . S
C481 H486 0.930 1_565 S
C482 N479 1.336 . S
C482 C481 1.346 . S
C482 H489 0.929 . S
C483 O473 1.282 . S
C483 O484 1.216 . S
O484 C483 1.216 . S
H485 C480 0.930 . S
H486 C481 0.930 1_545 S
O487 Cu467 1.959 1_565 S
O487 C474 1.251 . S
H488 C471 0.930 . S
H489 C482 0.929 . S
Cu490 N491 1.999 . S
Cu490 O496 1.974 . S
Cu490 N501 1.985 . S
Cu490 O510 1.959 . S
N491 Cu490 1.999 . S
N491 C493 1.263 . S
N491 C495 1.389 . S
N492 C493 1.358 . S
N492 C494 1.400 . S
C493 N491 1.263 . S
C493 N492 1.358 . S
C493 H499 0.930 . S
C494 N492 1.400 . S
C494 C495 1.351 . S
C494 H511 0.930 . S
C495 N491 1.389 . S
C495 C494 1.351 . S
C495 H500 0.930 . S
O496 Cu490 1.974 . S
O496 C506 1.282 . S
C497 O498 1.261 . S
C497 O510 1.251 . S
O498 C497 1.261 . S
H499 C493 0.930 . S
H500 C495 0.930 . S
N501 Cu490 1.985 . S
N501 C503 1.335 . S
N501 C504 1.390 . S
N502 C503 1.345 . S
N502 C505 1.336 . S
C503 N501 1.335 . S
C503 N502 1.345 . S
C503 H508 0.930 . S
C504 N501 1.390 . S
C504 C505 1.346 . S
C504 H509 0.930 . S
C505 N502 1.336 . S
C505 C504 1.346 . S
C505 H512 0.929 . S
C506 O496 1.282 . S
C506 O507 1.216 . S
O507 C506 1.216 . S
H508 C503 0.930 . S
H509 C504 0.930 . S
O510 Cu490 1.959 . S
O510 C497 1.251 . S
H511 C494 0.930 . S
H512 C505 0.929 . S
Cu513 N514 1.999 . S
Cu513 O519 1.974 . S
Cu513 N524 1.985 1_545 S
Cu513 O533 1.959 1_545 S
N514 Cu513 1.999 . S
N514 C516 1.263 . S
N514 C518 1.389 . S
N515 C516 1.358 . S
N515 C517 1.400 . S
C516 N514 1.263 . S
C516 N515 1.358 . S
C516 H522 0.930 . S
C517 N515 1.400 . S
C517 C518 1.351 . S
C517 H534 0.930 . S
C518 N514 1.389 . S
C518 C517 1.351 . S
C518 H523 0.930 . S
O519 Cu513 1.974 . S
O519 C529 1.282 . S
C520 O521 1.261 . S
C520 O533 1.251 . S
O521 C520 1.261 . S
H522 C516 0.930 . S
H523 C518 0.930 . S
N524 Cu513 1.985 1_565 S
N524 C526 1.335 . S
N524 C527 1.390 . S
N525 C526 1.345 . S
N525 C528 1.336 . S
C526 N524 1.335 . S
C526 N525 1.345 . S
C526 H531 0.930 . S
C527 N524 1.390 . S
C527 C528 1.346 . S
C527 H532 0.930 . S
C528 N525 1.336 . S
C528 C527 1.346 . S
C528 H535 0.929 . S
C529 O519 1.282 . S
C529 O530 1.216 . S
O530 C529 1.216 . S
H531 C526 0.930 . S
H532 C527 0.930 . S
O533 Cu513 1.959 1_565 S
O533 C520 1.251 . S
H534 C517 0.930 . S
H535 C528 0.929 . S
Cu536 N537 1.999 . S
Cu536 O542 1.974 . S
Cu536 N547 1.985 1_455 S
Cu536 O556 1.959 1_455 S
N537 Cu536 1.999 . S
N537 C539 1.263 . S
N537 C541 1.389 . S
N538 C539 1.358 . S
N538 C540 1.400 . S
C539 N537 1.263 . S
C539 N538 1.358 . S
C539 H545 0.930 . S
C540 N538 1.400 . S
C540 C541 1.351 . S
C540 H557 0.930 . S
C541 N537 1.389 . S
C541 C540 1.351 . S
C541 H546 0.930 . S
O542 Cu536 1.974 . S
O542 C552 1.282 . S
C543 O544 1.261 . S
C543 O556 1.251 . S
O544 C543 1.261 . S
H545 C539 0.930 . S
H546 C541 0.930 . S
N547 Cu536 1.985 1_655 S
N547 C549 1.335 . S
N547 C550 1.390 . S
N548 C549 1.345 . S
N548 C551 1.336 . S
C549 N547 1.335 . S
C549 N548 1.345 . S
C549 H554 0.930 . S
C550 N547 1.390 . S
C550 C551 1.346 . S
C550 H555 0.930 1_655 S
C551 N548 1.336 . S
C551 C550 1.346 . S
C551 H558 0.929 . S
C552 O542 1.282 . S
C552 O553 1.216 . S
O553 C552 1.216 . S
H554 C549 0.930 . S
H555 C550 0.930 1_455 S
O556 Cu536 1.959 1_655 S
O556 C543 1.251 . S
H557 C540 0.930 . S
H558 C551 0.929 . S
Cu559 N560 1.999 . S
Cu559 O565 1.974 . S
Cu559 N570 1.985 1_545 S
Cu559 O579 1.959 1_545 S
N560 Cu559 1.999 . S
N560 C562 1.263 . S
N560 C564 1.389 . S
N561 C562 1.358 . S
N561 C563 1.400 . S
C562 N560 1.263 . S
C562 N561 1.358 . S
C562 H568 0.930 . S
C563 N561 1.400 . S
C563 C564 1.351 . S
C563 H580 0.930 . S
C564 N560 1.389 . S
C564 C563 1.351 . S
C564 H569 0.930 . S
O565 Cu559 1.974 . S
O565 C575 1.282 . S
C566 O567 1.261 . S
C566 O579 1.251 . S
O567 C566 1.261 . S
H568 C562 0.930 . S
H569 C564 0.930 . S
N570 Cu559 1.985 1_565 S
N570 C572 1.335 . S
N570 C573 1.390 . S
N571 C572 1.345 . S
N571 C574 1.336 . S
C572 N570 1.335 . S
C572 N571 1.345 . S
C572 H577 0.930 . S
C573 N570 1.390 . S
C573 C574 1.346 . S
C573 H578 0.930 1_565 S
C574 N571 1.336 . S
C574 C573 1.346 . S
C574 H581 0.929 . S
C575 O565 1.282 . S
C575 O576 1.216 . S
O576 C575 1.216 . S
H577 C572 0.930 . S
H578 C573 0.930 1_545 S
O579 Cu559 1.959 1_565 S
O579 C566 1.251 . S
H580 C563 0.930 . S
H581 C574 0.929 . S
Cu582 N583 1.999 . S
Cu582 O588 1.974 . S
Cu582 N593 1.985 . S
Cu582 O602 1.959 . S
N583 Cu582 1.999 . S
N583 C585 1.263 . S
N583 C587 1.389 . S
N584 C585 1.358 . S
N584 C586 1.400 . S
C585 N583 1.263 . S
C585 N584 1.358 . S
C585 H591 0.930 . S
C586 N584 1.400 . S
C586 C587 1.351 . S
C586 H603 0.930 . S
C587 N583 1.389 . S
C587 C586 1.351 . S
C587 H592 0.930 . S
O588 Cu582 1.974 . S
O588 C598 1.282 . S
C589 O590 1.261 . S
C589 O602 1.251 . S
O590 C589 1.261 . S
H591 C585 0.930 . S
H592 C587 0.930 . S
N593 Cu582 1.985 . S
N593 C595 1.335 . S
N593 C596 1.390 . S
N594 C595 1.345 . S
N594 C597 1.336 . S
C595 N593 1.335 . S
C595 N594 1.345 . S
C595 H600 0.930 . S
C596 N593 1.390 . S
C596 C597 1.346 . S
C596 H601 0.930 . S
C597 N594 1.336 . S
C597 C596 1.346 . S
C597 H604 0.929 . S
C598 O588 1.282 . S
C598 O599 1.216 . S
O599 C598 1.216 . S
H600 C595 0.930 . S
H601 C596 0.930 . S
O602 Cu582 1.959 . S
O602 C589 1.251 . S
H603 C586 0.930 . S
H604 C597 0.929 . S
Cu605 N606 1.999 . S
Cu605 O611 1.974 . S
Cu605 N616 1.985 . S
Cu605 O625 1.959 . S
N606 Cu605 1.999 . S
N606 C608 1.263 . S
N606 C610 1.389 . S
N607 C608 1.358 . S
N607 C609 1.400 . S
C608 N606 1.263 . S
C608 N607 1.358 . S
C608 H614 0.930 . S
C609 N607 1.400 . S
C609 C610 1.351 . S
C609 H626 0.930 . S
C610 N606 1.389 . S
C610 C609 1.351 . S
C610 H615 0.930 . S
O611 Cu605 1.974 . S
O611 C621 1.282 . S
C612 O613 1.261 . S
C612 O625 1.251 . S
O613 C612 1.261 . S
H614 C608 0.930 . S
H615 C610 0.930 . S
N616 Cu605 1.985 . S
N616 C618 1.335 1_545 S
N616 C619 1.390 . S
N617 C618 1.345 . S
N617 C620 1.336 . S
C618 N616 1.335 1_565 S
C618 N617 1.345 . S
C618 H623 0.930 . S
C619 N616 1.390 . S
C619 C620 1.346 1_545 S
C619 H624 0.930 . S
C620 N617 1.336 . S
C620 C619 1.346 1_565 S
C620 H627 0.929 . S
C621 O611 1.282 . S
C621 O622 1.216 . S
O622 C621 1.216 . S
H623 C618 0.930 . S
H624 C619 0.930 . S
O625 Cu605 1.959 . S
O625 C612 1.251 . S
H626 C609 0.930 . S
H627 C620 0.929 . S
Cu628 N629 1.999 . S
Cu628 O634 1.974 . S
Cu628 N639 1.985 . S
Cu628 O648 1.959 . S
N629 Cu628 1.999 . S
N629 C631 1.263 . S
N629 C633 1.389 . S
N630 C631 1.358 . S
N630 C632 1.400 . S
C631 N629 1.263 . S
C631 N630 1.358 . S
C631 H637 0.930 . S
C632 N630 1.400 . S
C632 C633 1.351 . S
C632 H649 0.930 . S
C633 N629 1.389 . S
C633 C632 1.351 . S
C633 H638 0.930 . S
O634 Cu628 1.974 . S
O634 C644 1.282 . S
C635 O636 1.261 . S
C635 O648 1.251 . S
O636 C635 1.261 . S
H637 C631 0.930 . S
H638 C633 0.930 . S
N639 Cu628 1.985 . S
N639 C641 1.335 . S
N639 C642 1.390 . S
N640 C641 1.345 . S
N640 C643 1.336 . S
C641 N639 1.335 . S
C641 N640 1.345 . S
C641 H646 0.930 . S
C642 N639 1.390 . S
C642 C643 1.346 . S
C642 H647 0.930 . S
C643 N640 1.336 . S
C643 C642 1.346 . S
C643 H650 0.929 . S
C644 O634 1.282 . S
C644 O645 1.216 . S
O645 C644 1.216 . S
H646 C641 0.930 . S
H647 C642 0.930 . S
O648 Cu628 1.959 . S
O648 C635 1.251 . S
H649 C632 0.930 . S
H650 C643 0.929 . S
Cu651 N652 1.999 . S
Cu651 O657 1.974 . S
Cu651 N662 1.985 . S
Cu651 O671 1.959 . S
N652 Cu651 1.999 . S
N652 C654 1.263 . S
N652 C656 1.389 . S
N653 C654 1.358 . S
N653 C655 1.400 . S
C654 N652 1.263 . S
C654 N653 1.358 . S
C654 H660 0.930 . S
C655 N653 1.400 . S
C655 C656 1.351 . S
C655 H672 0.930 . S
C656 N652 1.389 . S
C656 C655 1.351 . S
C656 H661 0.930 . S
O657 Cu651 1.974 . S
O657 C667 1.282 . S
C658 O659 1.261 . S
C658 O671 1.251 . S
O659 C658 1.261 . S
H660 C654 0.930 . S
H661 C656 0.930 . S
N662 Cu651 1.985 . S
N662 C664 1.335 . S
N662 C665 1.390 . S
N663 C664 1.345 . S
N663 C666 1.336 . S
C664 N662 1.335 . S
C664 N663 1.345 . S
C664 H669 0.930 . S
C665 N662 1.390 . S
C665 C666 1.346 . S
C665 H670 0.930 . S
C666 N663 1.336 . S
C666 C665 1.346 . S
C666 H673 0.929 . S
C667 O657 1.282 . S
C667 O668 1.216 . S
O668 C667 1.216 . S
H669 C664 0.930 . S
H670 C665 0.930 . S
O671 Cu651 1.959 . S
O671 C658 1.251 . S
H672 C655 0.930 . S
H673 C666 0.929 . S
Cu674 N675 1.999 . S
Cu674 O680 1.974 . S
Cu674 N685 1.985 . S
Cu674 O694 1.959 . S
N675 Cu674 1.999 . S
N675 C677 1.263 . S
N675 C679 1.389 . S
N676 C677 1.358 . S
N676 C678 1.400 . S
C677 N675 1.263 . S
C677 N676 1.358 . S
C677 H683 0.930 . S
C678 N676 1.400 . S
C678 C679 1.351 . S
C678 H695 0.930 . S
C679 N675 1.389 . S
C679 C678 1.351 . S
C679 H684 0.930 . S
O680 Cu674 1.974 . S
O680 C690 1.282 . S
C681 O682 1.261 . S
C681 O694 1.251 . S
O682 C681 1.261 . S
H683 C677 0.930 . S
H684 C679 0.930 . S
N685 Cu674 1.985 . S
N685 C687 1.335 . S
N685 C688 1.390 . S
N686 C687 1.345 . S
N686 C689 1.336 . S
C687 N685 1.335 . S
C687 N686 1.345 . S
C687 H692 0.930 . S
C688 N685 1.390 . S
C688 C689 1.346 . S
C688 H693 0.930 . S
C689 N686 1.336 . S
C689 C688 1.346 . S
C689 H696 0.929 . S
C690 O680 1.282 . S
C690 O691 1.216 . S
O691 C690 1.216 . S
H692 C687 0.930 . S
H693 C688 0.930 . S
O694 Cu674 1.959 . S
O694 C681 1.251 . S
H695 C678 0.930 . S
H696 C689 0.929 . S
Cu697 N698 1.999 . S
Cu697 O703 1.974 . S
Cu697 N708 1.985 . S
Cu697 O717 1.959 . S
N698 Cu697 1.999 . S
N698 C700 1.263 . S
N698 C702 1.389 . S
N699 C700 1.358 . S
N699 C701 1.400 . S
C700 N698 1.263 . S
C700 N699 1.358 . S
C700 H706 0.930 . S
C701 N699 1.400 . S
C701 C702 1.351 . S
C701 H718 0.930 . S
C702 N698 1.389 . S
C702 C701 1.351 . S
C702 H707 0.930 . S
O703 Cu697 1.974 . S
O703 C713 1.282 . S
C704 O705 1.261 . S
C704 O717 1.251 . S
O705 C704 1.261 . S
H706 C700 0.930 . S
H707 C702 0.930 . S
N708 Cu697 1.985 . S
N708 C710 1.335 . S
N708 C711 1.390 . S
N709 C710 1.345 . S
N709 C712 1.336 . S
C710 N708 1.335 . S
C710 N709 1.345 . S
C710 H715 0.930 . S
C711 N708 1.390 . S
C711 C712 1.346 . S
C711 H716 0.930 . S
C712 N709 1.336 . S
C712 C711 1.346 . S
C712 H719 0.929 . S
C713 O703 1.282 . S
C713 O714 1.216 . S
O714 C713 1.216 . S
H715 C710 0.930 . S
H716 C711 0.930 . S
O717 Cu697 1.959 . S
O717 C704 1.251 . S
H718 C701 0.930 . S
H719 C712 0.929 . S
Cu720 N721 1.999 . S
Cu720 O726 1.974 . S
Cu720 N731 1.985 . S
Cu720 O740 1.959 . S
N721 Cu720 1.999 . S
N721 C723 1.263 . S
N721 C725 1.389 . S
N722 C723 1.358 . S
N722 C724 1.400 . S
C723 N721 1.263 . S
C723 N722 1.358 . S
C723 H729 0.930 . S
C724 N722 1.400 . S
C724 C725 1.351 . S
C724 H741 0.930 . S
C725 N721 1.389 . S
C725 C724 1.351 . S
C725 H730 0.930 . S
O726 Cu720 1.974 . S
O726 C736 1.282 . S
C727 O728 1.261 . S
C727 O740 1.251 . S
O728 C727 1.261 . S
H729 C723 0.930 . S
H730 C725 0.930 . S
N731 Cu720 1.985 . S
N731 C733 1.335 . S
N731 C734 1.390 . S
N732 C733 1.345 . S
N732 C735 1.336 . S
C733 N731 1.335 . S
C733 N732 1.345 . S
C733 H738 0.930 . S
C734 N731 1.390 . S
C734 C735 1.346 . S
C734 H739 0.930 . S
C735 N732 1.336 . S
C735 C734 1.346 . S
C735 H742 0.929 . S
C736 O726 1.282 . S
C736 O737 1.216 . S
O737 C736 1.216 . S
H738 C733 0.930 . S
H739 C734 0.930 . S
O740 Cu720 1.959 . S
O740 C727 1.251 . S
H741 C724 0.930 . S
H742 C735 0.929 . S
Cu743 N744 1.999 . S
Cu743 O749 1.974 . S
Cu743 N754 1.985 . S
Cu743 O763 1.959 . S
N744 Cu743 1.999 . S
N744 C746 1.263 . S
N744 C748 1.389 . S
N745 C746 1.358 . S
N745 C747 1.400 . S
C746 N744 1.263 . S
C746 N745 1.358 . S
C746 H752 0.930 . S
C747 N745 1.400 . S
C747 C748 1.351 . S
C747 H764 0.930 . S
C748 N744 1.389 . S
C748 C747 1.351 . S
C748 H753 0.930 . S
O749 Cu743 1.974 . S
O749 C759 1.282 . S
C750 O751 1.261 . S
C750 O763 1.251 . S
O751 C750 1.261 . S
H752 C746 0.930 . S
H753 C748 0.930 . S
N754 Cu743 1.985 . S
N754 C756 1.335 . S
N754 C757 1.390 . S
N755 C756 1.345 . S
N755 C758 1.336 . S
C756 N754 1.335 . S
C756 N755 1.345 . S
C756 H761 0.930 . S
C757 N754 1.390 . S
C757 C758 1.346 . S
C757 H762 0.930 . S
C758 N755 1.336 . S
C758 C757 1.346 . S
C758 H765 0.929 . S
C759 O749 1.282 . S
C759 O760 1.216 . S
O760 C759 1.216 . S
H761 C756 0.930 . S
H762 C757 0.930 . S
O763 Cu743 1.959 . S
O763 C750 1.251 . S
H764 C747 0.930 . S
H765 C758 0.929 . S
Cu766 N767 1.999 . S
Cu766 O772 1.974 . S
Cu766 N777 1.985 . S
Cu766 O786 1.959 . S
N767 Cu766 1.999 . S
N767 C769 1.263 . S
N767 C771 1.389 . S
N768 C769 1.358 . S
N768 C770 1.400 . S
C769 N767 1.263 . S
C769 N768 1.358 . S
C769 H775 0.930 . S
C770 N768 1.400 . S
C770 C771 1.351 . S
C770 H787 0.930 . S
C771 N767 1.389 . S
C771 C770 1.351 . S
C771 H776 0.930 . S
O772 Cu766 1.974 . S
O772 C782 1.282 . S
C773 O774 1.261 . S
C773 O786 1.251 . S
O774 C773 1.261 . S
H775 C769 0.930 . S
H776 C771 0.930 . S
N777 Cu766 1.985 . S
N777 C779 1.335 . S
N777 C780 1.390 . S
N778 C779 1.345 . S
N778 C781 1.336 . S
C779 N777 1.335 . S
C779 N778 1.345 . S
C779 H784 0.930 . S
C780 N777 1.390 . S
C780 C781 1.346 . S
C780 H785 0.930 . S
C781 N778 1.336 . S
C781 C780 1.346 . S
C781 H788 0.929 . S
C782 O772 1.282 . S
C782 O783 1.216 . S
O783 C782 1.216 . S
H784 C779 0.930 . S
H785 C780 0.930 . S
O786 Cu766 1.959 . S
O786 C773 1.251 . S
H787 C770 0.930 . S
H788 C781 0.929 . S
Cu789 N790 1.999 . S
Cu789 O795 1.974 . S
Cu789 N800 1.985 . S
Cu789 O809 1.959 . S
N790 Cu789 1.999 . S
N790 C792 1.263 . S
N790 C794 1.389 . S
N791 C792 1.358 . S
N791 C793 1.400 . S
C792 N790 1.263 . S
C792 N791 1.358 . S
C792 H798 0.930 . S
C793 N791 1.400 . S
C793 C794 1.351 . S
C793 H810 0.930 . S
C794 N790 1.389 . S
C794 C793 1.351 . S
C794 H799 0.930 . S
O795 Cu789 1.974 . S
O795 C805 1.282 . S
C796 O797 1.261 . S
C796 O809 1.251 . S
O797 C796 1.261 . S
H798 C792 0.930 . S
H799 C794 0.930 . S
N800 Cu789 1.985 . S
N800 C802 1.335 . S
N800 C803 1.390 . S
N801 C802 1.345 . S
N801 C804 1.336 . S
C802 N800 1.335 . S
C802 N801 1.345 . S
C802 H807 0.930 . S
C803 N800 1.390 . S
C803 C804 1.346 . S
C803 H808 0.930 . S
C804 N801 1.336 . S
C804 C803 1.346 . S
C804 H811 0.929 . S
C805 O795 1.282 . S
C805 O806 1.216 . S
O806 C805 1.216 . S
H807 C802 0.930 . S
H808 C803 0.930 . S
O809 Cu789 1.959 . S
O809 C796 1.251 . S
H810 C793 0.930 . S
H811 C804 0.929 . S
Cu812 N813 1.999 . S
Cu812 O818 1.974 . S
Cu812 N823 1.985 . S
Cu812 O832 1.959 . S
N813 Cu812 1.999 . S
N813 C815 1.263 . S
N813 C817 1.389 . S
N814 C815 1.358 . S
N814 C816 1.400 . S
C815 N813 1.263 . S
C815 N814 1.358 . S
C815 H821 0.930 . S
C816 N814 1.400 . S
C816 C817 1.351 . S
C816 H833 0.930 . S
C817 N813 1.389 . S
C817 C816 1.351 . S
C817 H822 0.930 . S
O818 Cu812 1.974 . S
O818 C828 1.282 . S
C819 O820 1.261 . S
C819 O832 1.251 . S
O820 C819 1.261 . S
H821 C815 0.930 . S
H822 C817 0.930 . S
N823 Cu812 1.985 . S
N823 C825 1.335 . S
N823 C826 1.390 . S
N824 C825 1.345 . S
N824 C827 1.336 . S
C825 N823 1.335 . S
C825 N824 1.345 . S
C825 H830 0.930 . S
C826 N823 1.390 . S
C826 C827 1.346 . S
C826 H831 0.930 . S
C827 N824 1.336 . S
C827 C826 1.346 . S
C827 H834 0.929 . S
C828 O818 1.282 . S
C828 O829 1.216 . S
O829 C828 1.216 . S
H830 C825 0.930 . S
H831 C826 0.930 . S
O832 Cu812 1.959 . S
O832 C819 1.251 . S
H833 C816 0.930 . S
H834 C827 0.929 . S
Cu835 N836 1.999 . S
Cu835 O841 1.974 . S
Cu835 N846 1.985 . S
Cu835 O855 1.959 . S
N836 Cu835 1.999 . S
N836 C838 1.263 . S
N836 C840 1.389 . S
N837 C838 1.358 . S
N837 C839 1.400 . S
C838 N836 1.263 . S
C838 N837 1.358 . S
C838 H844 0.930 . S
C839 N837 1.400 . S
C839 C840 1.351 . S
C839 H856 0.930 . S
C840 N836 1.389 . S
C840 C839 1.351 . S
C840 H845 0.930 . S
O841 Cu835 1.974 . S
O841 C851 1.282 . S
C842 O843 1.261 . S
C842 O855 1.251 . S
O843 C842 1.261 . S
H844 C838 0.930 . S
H845 C840 0.930 . S
N846 Cu835 1.985 . S
N846 C848 1.335 . S
N846 C849 1.390 . S
N847 C848 1.345 . S
N847 C850 1.336 . S
C848 N846 1.335 . S
C848 N847 1.345 . S
C848 H853 0.930 . S
C849 N846 1.390 . S
C849 C850 1.346 . S
C849 H854 0.930 . S
C850 N847 1.336 . S
C850 C849 1.346 . S
C850 H857 0.929 . S
C851 O841 1.282 . S
C851 O852 1.216 . S
O852 C851 1.216 . S
H853 C848 0.930 . S
H854 C849 0.930 . S
O855 Cu835 1.959 . S
O855 C842 1.251 . S
H856 C839 0.930 . S
H857 C850 0.929 . S
Cu858 N859 1.999 . S
Cu858 O864 1.974 . S
Cu858 N869 1.985 . S
Cu858 O878 1.959 . S
N859 Cu858 1.999 . S
N859 C861 1.263 . S
N859 C863 1.389 . S
N860 C861 1.358 . S
N860 C862 1.400 . S
C861 N859 1.263 . S
C861 N860 1.358 . S
C861 H867 0.930 . S
C862 N860 1.400 . S
C862 C863 1.351 . S
C862 H879 0.930 . S
C863 N859 1.389 . S
C863 C862 1.351 . S
C863 H868 0.930 . S
O864 Cu858 1.974 . S
O864 C874 1.282 . S
C865 O866 1.261 . S
C865 O878 1.251 . S
O866 C865 1.261 . S
H867 C861 0.930 . S
H868 C863 0.930 . S
N869 Cu858 1.985 . S
N869 C871 1.335 . S
N869 C872 1.390 . S
N870 C871 1.345 . S
N870 C873 1.336 . S
C871 N869 1.335 . S
C871 N870 1.345 . S
C871 H876 0.930 . S
C872 N869 1.390 . S
C872 C873 1.346 . S
C872 H877 0.930 . S
C873 N870 1.336 . S
C873 C872 1.346 . S
C873 H880 0.929 . S
C874 O864 1.282 . S
C874 O875 1.216 . S
O875 C874 1.216 . S
H876 C871 0.930 . S
H877 C872 0.930 . S
O878 Cu858 1.959 . S
O878 C865 1.251 . S
H879 C862 0.930 . S
H880 C873 0.929 . S
Cu881 N882 1.999 . S
Cu881 O887 1.974 . S
Cu881 N892 1.985 . S
Cu881 O901 1.959 . S
N882 Cu881 1.999 . S
N882 C884 1.263 . S
N882 C886 1.389 . S
N883 C884 1.358 . S
N883 C885 1.400 . S
C884 N882 1.263 . S
C884 N883 1.358 . S
C884 H890 0.930 . S
C885 N883 1.400 . S
C885 C886 1.351 . S
C885 H902 0.930 . S
C886 N882 1.389 . S
C886 C885 1.351 . S
C886 H891 0.930 . S
O887 Cu881 1.974 . S
O887 C897 1.282 . S
C888 O889 1.261 . S
C888 O901 1.251 . S
O889 C888 1.261 . S
H890 C884 0.930 . S
H891 C886 0.930 . S
N892 Cu881 1.985 . S
N892 C894 1.335 . S
N892 C895 1.390 . S
N893 C894 1.345 . S
N893 C896 1.336 . S
C894 N892 1.335 . S
C894 N893 1.345 . S
C894 H899 0.930 . S
C895 N892 1.390 . S
C895 C896 1.346 . S
C895 H900 0.930 . S
C896 N893 1.336 . S
C896 C895 1.346 . S
C896 H903 0.929 . S
C897 O887 1.282 . S
C897 O898 1.216 . S
O898 C897 1.216 . S
H899 C894 0.930 . S
H900 C895 0.930 . S
O901 Cu881 1.959 . S
O901 C888 1.251 . S
H902 C885 0.930 . S
H903 C896 0.929 . S
H904 C910 0.930 . S
H905 C913 0.930 . S
H906 C914 0.930 . S
H907 C915 0.930 . S
H908 C918 0.930 . S
H909 C919 0.930 . S
C910 H904 0.930 . S
C910 C911 1.355 . S
C910 C912 1.415 . S
C911 C910 1.355 . S
C911 C913 1.419 . S
C912 C910 1.415 . S
C912 C917 1.425 . S
C912 C919 1.409 . S
C913 H905 0.930 . S
C913 C911 1.419 . S
C913 C914 1.362 . S
C914 H906 0.930 . S
C914 C913 1.362 . S
C914 C917 1.409 . S
C915 H907 0.930 . S
C915 C916 1.355 . S
C915 C917 1.415 . S
C916 C915 1.355 . S
C916 C918 1.419 . S
C917 C912 1.425 . S
C917 C914 1.409 . S
C917 C915 1.415 . S
C918 H908 0.930 . S
C918 C916 1.419 . S
C918 C919 1.362 . S
C919 H909 0.930 . S
C919 C912 1.409 . S
C919 C918 1.362 . S
H920 C926 0.930 . S
H921 C929 0.930 . S
H922 C930 0.930 . S
H923 C931 0.930 . S
H924 C934 0.930 . S
H925 C935 0.930 . S
C926 H920 0.930 . S
C926 C927 1.355 . S
C926 C928 1.415 . S
C927 C926 1.355 . S
C927 C929 1.419 . S
C928 C926 1.415 . S
C928 C933 1.425 . S
C928 C935 1.409 . S
C929 H921 0.930 . S
C929 C927 1.419 . S
C929 C930 1.362 . S
C930 H922 0.930 . S
C930 C929 1.362 . S
C930 C933 1.409 . S
C931 H923 0.930 . S
C931 C932 1.355 . S
C931 C933 1.415 . S
C932 C931 1.355 . S
C932 C934 1.419 . S
C933 C928 1.425 . S
C933 C930 1.409 . S
C933 C931 1.415 . S
C934 H924 0.930 . S
C934 C932 1.419 . S
C934 C935 1.362 . S
C935 H925 0.930 . S
C935 C928 1.409 . S
C935 C934 1.362 . S
H936 C942 0.930 . S
H937 C945 0.930 . S
H938 C946 0.930 . S
H939 C947 0.930 . S
H940 C950 0.930 . S
H941 C951 0.930 . S
C942 H936 0.930 . S
C942 C943 1.355 . S
C942 C944 1.415 . S
C943 C942 1.355 . S
C943 C945 1.419 . S
C944 C942 1.415 . S
C944 C949 1.425 . S
C944 C951 1.409 . S
C945 H937 0.930 . S
C945 C943 1.419 . S
C945 C946 1.362 . S
C946 H938 0.930 . S
C946 C945 1.362 . S
C946 C949 1.409 . S
C947 H939 0.930 . S
C947 C948 1.355 . S
C947 C949 1.415 . S
C948 C947 1.355 . S
C948 C950 1.419 . S
C949 C944 1.425 . S
C949 C946 1.409 . S
C949 C947 1.415 . S
C950 H940 0.930 . S
C950 C948 1.419 . S
C950 C951 1.362 . S
C951 H941 0.930 . S
C951 C944 1.409 . S
C951 C950 1.362 . S
H952 C958 0.930 . S
H953 C961 0.930 . S
H954 C962 0.930 . S
H955 C963 0.930 . S
H956 C966 0.930 . S
H957 C967 0.930 . S
C958 H952 0.930 . S
C958 C959 1.355 . S
C958 C960 1.415 . S
C959 C958 1.355 . S
C959 C961 1.419 . S
C960 C958 1.415 . S
C960 C965 1.425 . S
C960 C967 1.409 . S
C961 H953 0.930 . S
C961 C959 1.419 . S
C961 C962 1.362 . S
C962 H954 0.930 . S
C962 C961 1.362 . S
C962 C965 1.409 . S
C963 H955 0.930 . S
C963 C964 1.355 . S
C963 C965 1.415 . S
C964 C963 1.355 . S
C964 C966 1.419 . S
C965 C960 1.425 . S
C965 C962 1.409 . S
C965 C963 1.415 . S
C966 H956 0.930 . S
C966 C964 1.419 . S
C966 C967 1.362 . S
C967 H957 0.930 . S
C967 C960 1.409 . S
C967 C966 1.362 . S
H968 C974 0.930 . S
H969 C977 0.930 . S
H970 C978 0.930 . S
H971 C979 0.930 . S
H972 C982 0.930 . S
H973 C983 0.930 . S
C974 H968 0.930 . S
C974 C975 1.355 . S
C974 C976 1.415 . S
C975 C974 1.355 . S
C975 C977 1.419 . S
C976 C974 1.415 . S
C976 C981 1.425 . S
C976 C983 1.409 . S
C977 H969 0.930 . S
C977 C975 1.419 . S
C977 C978 1.362 . S
C978 H970 0.930 . S
C978 C977 1.362 . S
C978 C981 1.409 . S
C979 H971 0.930 . S
C979 C980 1.355 . S
C979 C981 1.415 . S
C980 C979 1.355 . S
C980 C982 1.419 . S
C981 C976 1.425 . S
C981 C978 1.409 . S
C981 C979 1.415 . S
C982 H972 0.930 . S
C982 C980 1.419 . S
C982 C983 1.362 . S
C983 H973 0.930 . S
C983 C976 1.409 . S
C983 C982 1.362 . S
H984 C990 0.930 . S
H985 C993 0.930 . S
H986 C994 0.930 . S
H987 C995 0.930 . S
H988 C998 0.930 . S
H989 C999 0.930 . S
C990 H984 0.930 . S
C990 C991 1.355 . S
C990 C992 1.415 . S
C991 C990 1.355 . S
C991 C993 1.419 . S
C992 C990 1.415 . S
C992 C997 1.425 . S
C992 C999 1.409 . S
C993 H985 0.930 . S
C993 C991 1.419 . S
C993 C994 1.362 . S
C994 H986 0.930 . S
C994 C993 1.362 . S
C994 C997 1.409 . S
C995 H987 0.930 . S
C995 C996 1.355 1_556 S
C995 C997 1.415 . S
C996 C995 1.355 1_554 S
C996 C998 1.419 1_554 S
C997 C992 1.425 . S
C997 C994 1.409 . S
C997 C995 1.415 . S
C998 H988 0.930 . S
C998 C996 1.419 1_556 S
C998 C999 1.362 . S
C999 H989 0.930 . S
C999 C992 1.409 . S
C999 C998 1.362 . S
H1000 C1006 0.930 . S
H1001 C1009 0.930 . S
H1002 C1010 0.930 . S
H1003 C1011 0.930 . S
H1004 C1014 0.930 . S
H1005 C1015 0.930 . S
C1006 H1000 0.930 . S
C1006 C1007 1.355 . S
C1006 C1008 1.415 . S
C1007 C1006 1.355 . S
C1007 C1009 1.419 . S
C1008 C1006 1.415 . S
C1008 C1013 1.425 . S
C1008 C1015 1.409 . S
C1009 H1001 0.930 . S
C1009 C1007 1.419 . S
C1009 C1010 1.362 . S
C1010 H1002 0.930 . S
C1010 C1009 1.362 . S
C1010 C1013 1.409 . S
C1011 H1003 0.930 . S
C1011 C1012 1.355 . S
C1011 C1013 1.415 . S
C1012 C1011 1.355 . S
C1012 C1014 1.419 . S
C1013 C1008 1.425 . S
C1013 C1010 1.409 . S
C1013 C1011 1.415 . S
C1014 H1004 0.930 . S
C1014 C1012 1.419 . S
C1014 C1015 1.362 . S
C1015 H1005 0.930 . S
C1015 C1008 1.409 . S
C1015 C1014 1.362 . S
H1016 C1022 0.930 . S
H1017 C1025 0.930 . S
H1018 C1026 0.930 . S
H1019 C1027 0.930 . S
H1020 C1030 0.930 . S
H1021 C1031 0.930 . S
C1022 H1016 0.930 . S
C1022 C1023 1.355 . S
C1022 C1024 1.415 . S
C1023 C1022 1.355 . S
C1023 C1025 1.419 . S
C1024 C1022 1.415 . S
C1024 C1029 1.425 . S
C1024 C1031 1.409 . S
C1025 H1017 0.930 . S
C1025 C1023 1.419 . S
C1025 C1026 1.362 . S
C1026 H1018 0.930 . S
C1026 C1025 1.362 . S
C1026 C1029 1.409 . S
C1027 H1019 0.930 . S
C1027 C1028 1.355 . S
C1027 C1029 1.415 . S
C1028 C1027 1.355 . S
C1028 C1030 1.419 . S
C1029 C1024 1.425 . S
C1029 C1026 1.409 . S
C1029 C1027 1.415 . S
C1030 H1020 0.930 . S
C1030 C1028 1.419 . S
C1030 C1031 1.362 . S
C1031 H1021 0.930 . S
C1031 C1024 1.409 . S
C1031 C1030 1.362 . S
H1032 C1038 0.930 . S
H1033 C1041 0.930 . S
H1034 C1042 0.930 . S
H1035 C1043 0.930 . S
H1036 C1046 0.930 . S
H1037 C1047 0.930 . S
C1038 H1032 0.930 . S
C1038 C1039 1.355 . S
C1038 C1040 1.415 . S
C1039 C1038 1.355 . S
C1039 C1041 1.419 . S
C1040 C1038 1.415 . S
C1040 C1045 1.425 . S
C1040 C1047 1.409 . S
C1041 H1033 0.930 . S
C1041 C1039 1.419 . S
C1041 C1042 1.362 . S
C1042 H1034 0.930 . S
C1042 C1041 1.362 . S
C1042 C1045 1.409 . S
C1043 H1035 0.930 . S
C1043 C1044 1.355 . S
C1043 C1045 1.415 . S
C1044 C1043 1.355 . S
C1044 C1046 1.419 . S
C1045 C1040 1.425 . S
C1045 C1042 1.409 . S
C1045 C1043 1.415 . S
C1046 H1036 0.930 . S
C1046 C1044 1.419 . S
C1046 C1047 1.362 . S
C1047 H1037 0.930 . S
C1047 C1040 1.409 . S
C1047 C1046 1.362 . S
H1048 C1054 0.930 . S
H1049 C1057 0.930 . S
H1050 C1058 0.930 . S
H1051 C1059 0.930 . S
H1052 C1062 0.930 . S
H1053 C1063 0.930 . S
C1054 H1048 0.930 . S
C1054 C1055 1.355 . S
C1054 C1056 1.415 . S
C1055 C1054 1.355 . S
C1055 C1057 1.419 . S
C1056 C1054 1.415 . S
C1056 C1061 1.425 . S
C1056 C1063 1.409 . S
C1057 H1049 0.930 . S
C1057 C1055 1.419 . S
C1057 C1058 1.362 . S
C1058 H1050 0.930 . S
C1058 C1057 1.362 . S
C1058 C1061 1.409 . S
C1059 H1051 0.930 . S
C1059 C1060 1.355 . S
C1059 C1061 1.415 . S
C1060 C1059 1.355 . S
C1060 C1062 1.419 . S
C1061 C1056 1.425 . S
C1061 C1058 1.409 . S
C1061 C1059 1.415 . S
C1062 H1052 0.930 . S
C1062 C1060 1.419 . S
C1062 C1063 1.362 . S
C1063 H1053 0.930 . S
C1063 C1056 1.409 . S
C1063 C1062 1.362 . S
H1064 C1070 0.930 . S
H1065 C1073 0.930 . S
H1066 C1074 0.930 . S
H1067 C1075 0.930 . S
H1068 C1078 0.930 . S
H1069 C1079 0.930 . S
C1070 H1064 0.930 . S
C1070 C1071 1.355 . S
C1070 C1072 1.415 . S
C1071 C1070 1.355 . S
C1071 C1073 1.419 . S
C1072 C1070 1.415 . S
C1072 C1077 1.425 . S
C1072 C1079 1.409 . S
C1073 H1065 0.930 . S
C1073 C1071 1.419 . S
C1073 C1074 1.362 . S
C1074 H1066 0.930 . S
C1074 C1073 1.362 . S
C1074 C1077 1.409 . S
C1075 H1067 0.930 . S
C1075 C1076 1.355 . S
C1075 C1077 1.415 . S
C1076 C1075 1.355 . S
C1076 C1078 1.419 . S
C1077 C1072 1.425 . S
C1077 C1074 1.409 . S
C1077 C1075 1.415 . S
C1078 H1068 0.930 . S
C1078 C1076 1.419 . S
C1078 C1079 1.362 . S
C1079 H1069 0.930 . S
C1079 C1072 1.409 . S
C1079 C1078 1.362 . S
H1080 C1086 0.930 . S
H1081 C1089 0.930 . S
H1082 C1090 0.930 . S
H1083 C1091 0.930 . S
H1084 C1094 0.930 . S
H1085 C1095 0.930 . S
C1086 H1080 0.930 . S
C1086 C1087 1.355 . S
C1086 C1088 1.415 . S
C1087 C1086 1.355 . S
C1087 C1089 1.419 . S
C1088 C1086 1.415 . S
C1088 C1093 1.425 . S
C1088 C1095 1.409 . S
C1089 H1081 0.930 . S
C1089 C1087 1.419 . S
C1089 C1090 1.362 . S
C1090 H1082 0.930 . S
C1090 C1089 1.362 . S
C1090 C1093 1.409 . S
C1091 H1083 0.930 . S
C1091 C1092 1.355 . S
C1091 C1093 1.415 . S
C1092 C1091 1.355 . S
C1092 C1094 1.419 . S
C1093 C1088 1.425 . S
C1093 C1090 1.409 . S
C1093 C1091 1.415 . S
C1094 H1084 0.930 . S
C1094 C1092 1.419 . S
C1094 C1095 1.362 . S
C1095 H1085 0.930 . S
C1095 C1088 1.409 . S
C1095 C1094 1.362 . S
H1096 C1102 0.930 . S
H1097 C1105 0.930 . S
H1098 C1106 0.930 . S
H1099 C1107 0.930 . S
H1100 C1110 0.930 . S
H1101 C1111 0.930 . S
C1102 H1096 0.930 . S
C1102 C1103 1.355 . S
C1102 C1104 1.415 . S
C1103 C1102 1.355 . S
C1103 C1105 1.419 . S
C1104 C1102 1.415 . S
C1104 C1109 1.425 . S
C1104 C1111 1.409 . S
C1105 H1097 0.930 . S
C1105 C1103 1.419 . S
C1105 C1106 1.362 . S
C1106 H1098 0.930 . S
C1106 C1105 1.362 . S
C1106 C1109 1.409 . S
C1107 H1099 0.930 . S
C1107 C1108 1.355 . S
C1107 C1109 1.415 . S
C1108 C1107 1.355 . S
C1108 C1110 1.419 . S
C1109 C1104 1.425 . S
C1109 C1106 1.409 . S
C1109 C1107 1.415 . S
C1110 H1100 0.930 . S
C1110 C1108 1.419 . S
C1110 C1111 1.362 . S
C1111 H1101 0.930 . S
C1111 C1104 1.409 . S
C1111 C1110 1.362 . S
H1112 C1118 0.930 . S
H1113 C1121 0.930 . S
H1114 C1122 0.930 . S
H1115 C1123 0.930 . S
H1116 C1126 0.930 . S
H1117 C1127 0.930 . S
C1118 H1112 0.930 . S
C1118 C1119 1.355 . S
C1118 C1120 1.415 . S
C1119 C1118 1.355 . S
C1119 C1121 1.419 . S
C1120 C1118 1.415 . S
C1120 C1125 1.425 . S
C1120 C1127 1.409 . S
C1121 H1113 0.930 . S
C1121 C1119 1.419 . S
C1121 C1122 1.362 . S
C1122 H1114 0.930 . S
C1122 C1121 1.362 . S
C1122 C1125 1.409 . S
C1123 H1115 0.930 . S
C1123 C1124 1.355 . S
C1123 C1125 1.415 . S
C1124 C1123 1.355 . S
C1124 C1126 1.419 . S
C1125 C1120 1.425 . S
C1125 C1122 1.409 . S
C1125 C1123 1.415 . S
C1126 H1116 0.930 . S
C1126 C1124 1.419 . S
C1126 C1127 1.362 . S
C1127 H1117 0.930 . S
C1127 C1120 1.409 . S
C1127 C1126 1.362 . S
H1128 C1134 0.930 . S
H1129 C1137 0.930 . S
H1130 C1138 0.930 . S
H1131 C1139 0.930 . S
H1132 C1142 0.930 . S
H1133 C1143 0.930 . S
C1134 H1128 0.930 . S
C1134 C1135 1.355 . S
C1134 C1136 1.415 . S
C1135 C1134 1.355 . S
C1135 C1137 1.419 . S
C1136 C1134 1.415 . S
C1136 C1141 1.425 . S
C1136 C1143 1.409 1_655 S
C1137 H1129 0.930 . S
C1137 C1135 1.419 . S
C1137 C1138 1.362 . S
C1138 H1130 0.930 . S
C1138 C1137 1.362 . S
C1138 C1141 1.409 . S
C1139 H1131 0.930 . S
C1139 C1140 1.355 . S
C1139 C1141 1.415 1_455 S
C1140 C1139 1.355 . S
C1140 C1142 1.419 . S
C1141 C1136 1.425 . S
C1141 C1138 1.409 . S
C1141 C1139 1.415 1_655 S
C1142 H1132 0.930 . S
C1142 C1140 1.419 . S
C1142 C1143 1.362 . S
C1143 H1133 0.930 . S
C1143 C1136 1.409 1_455 S
C1143 C1142 1.362 . S
H1144 C1150 0.930 . S
H1145 C1153 0.930 . S
H1146 C1154 0.930 . S
H1147 C1155 0.930 . S
H1148 C1158 0.930 1_545 S
H1149 C1159 0.930 . S
C1150 H1144 0.930 . S
C1150 C1151 1.355 . S
C1150 C1152 1.415 . S
C1151 C1150 1.355 . S
C1151 C1153 1.419 . S
C1152 C1150 1.415 . S
C1152 C1157 1.425 . S
C1152 C1159 1.409 . S
C1153 H1145 0.930 . S
C1153 C1151 1.419 . S
C1153 C1154 1.362 . S
C1154 H1146 0.930 . S
C1154 C1153 1.362 . S
C1154 C1157 1.409 . S
C1155 H1147 0.930 . S
C1155 C1156 1.355 . S
C1155 C1157 1.415 . S
C1156 C1155 1.355 . S
C1156 C1158 1.419 . S
C1157 C1152 1.425 . S
C1157 C1154 1.409 . S
C1157 C1155 1.415 . S
C1158 H1148 0.930 1_565 S
C1158 C1156 1.419 . S
C1158 C1159 1.362 . S
C1159 H1149 0.930 . S
C1159 C1152 1.409 . S
C1159 C1158 1.362 . S
H1160 C1166 0.930 . S
H1161 C1169 0.930 . S
H1162 C1170 0.930 . S
H1163 C1171 0.930 . S
H1164 C1174 0.930 . S
H1165 C1175 0.930 . S
C1166 H1160 0.930 . S
C1166 C1167 1.355 . S
C1166 C1168 1.415 . S
C1167 C1166 1.355 . S
C1167 C1169 1.419 . S
C1168 C1166 1.415 . S
C1168 C1173 1.425 . S
C1168 C1175 1.409 . S
C1169 H1161 0.930 . S
C1169 C1167 1.419 . S
C1169 C1170 1.362 . S
C1170 H1162 0.930 . S
C1170 C1169 1.362 . S
C1170 C1173 1.409 . S
C1171 H1163 0.930 . S
C1171 C1172 1.355 . S
C1171 C1173 1.415 . S
C1172 C1171 1.355 . S
C1172 C1174 1.419 . S
C1173 C1168 1.425 . S
C1173 C1170 1.409 . S
C1173 C1171 1.415 . S
C1174 H1164 0.930 . S
C1174 C1172 1.419 . S
C1174 C1175 1.362 . S
C1175 H1165 0.930 . S
C1175 C1168 1.409 . S
C1175 C1174 1.362 . S
H1176 C1182 0.930 . S
H1177 C1185 0.930 . S
H1178 C1186 0.930 . S
H1179 C1187 0.930 . S
H1180 C1190 0.930 . S
H1181 C1191 0.930 . S
C1182 H1176 0.930 . S
C1182 C1183 1.355 . S
C1182 C1184 1.415 . S
C1183 C1182 1.355 . S
C1183 C1185 1.419 . S
C1184 C1182 1.415 . S
C1184 C1189 1.425 . S
C1184 C1191 1.409 . S
C1185 H1177 0.930 . S
C1185 C1183 1.419 . S
C1185 C1186 1.362 . S
C1186 H1178 0.930 . S
C1186 C1185 1.362 . S
C1186 C1189 1.409 . S
C1187 H1179 0.930 . S
C1187 C1188 1.355 . S
C1187 C1189 1.415 . S
C1188 C1187 1.355 . S
C1188 C1190 1.419 . S
C1189 C1184 1.425 . S
C1189 C1186 1.409 . S
C1189 C1187 1.415 . S
C1190 H1180 0.930 . S
C1190 C1188 1.419 . S
C1190 C1191 1.362 . S
C1191 H1181 0.930 . S
C1191 C1184 1.409 . S
C1191 C1190 1.362 . S
H1192 C1198 0.930 . S
H1193 C1201 0.930 . S
H1194 C1202 0.930 . S
H1195 C1203 0.930 . S
H1196 C1206 0.930 . S
H1197 C1207 0.930 . S
C1198 H1192 0.930 . S
C1198 C1199 1.355 . S
C1198 C1200 1.415 . S
C1199 C1198 1.355 . S
C1199 C1201 1.419 . S
C1200 C1198 1.415 . S
C1200 C1205 1.425 . S
C1200 C1207 1.409 . S
C1201 H1193 0.930 . S
C1201 C1199 1.419 . S
C1201 C1202 1.362 . S
C1202 H1194 0.930 . S
C1202 C1201 1.362 . S
C1202 C1205 1.409 . S
C1203 H1195 0.930 . S
C1203 C1204 1.355 . S
C1203 C1205 1.415 . S
C1204 C1203 1.355 . S
C1204 C1206 1.419 . S
C1205 C1200 1.425 . S
C1205 C1202 1.409 . S
C1205 C1203 1.415 . S
C1206 H1196 0.930 . S
C1206 C1204 1.419 . S
C1206 C1207 1.362 . S
C1207 H1197 0.930 . S
C1207 C1200 1.409 . S
C1207 C1206 1.362 . S
H1208 C1214 0.930 . S
H1209 C1217 0.930 . S
H1210 C1218 0.930 . S
H1211 C1219 0.930 . S
H1212 C1222 0.930 . S
H1213 C1223 0.930 . S
C1214 H1208 0.930 . S
C1214 C1215 1.355 . S
C1214 C1216 1.415 . S
C1215 C1214 1.355 . S
C1215 C1217 1.419 . S
C1216 C1214 1.415 . S
C1216 C1221 1.425 . S
C1216 C1223 1.409 . S
C1217 H1209 0.930 . S
C1217 C1215 1.419 . S
C1217 C1218 1.362 . S
C1218 H1210 0.930 . S
C1218 C1217 1.362 . S
C1218 C1221 1.409 . S
C1219 H1211 0.930 . S
C1219 C1220 1.355 . S
C1219 C1221 1.415 . S
C1220 C1219 1.355 . S
C1220 C1222 1.419 . S
C1221 C1216 1.425 . S
C1221 C1218 1.409 . S
C1221 C1219 1.415 . S
C1222 H1212 0.930 . S
C1222 C1220 1.419 . S
C1222 C1223 1.362 . S
C1223 H1213 0.930 . S
C1223 C1216 1.409 . S
C1223 C1222 1.362 . S
H1224 C1230 0.930 . S
H1225 C1233 0.930 . S
H1226 C1234 0.930 . S
H1227 C1235 0.930 . S
H1228 C1238 0.930 . S
H1229 C1239 0.930 . S
C1230 H1224 0.930 . S
C1230 C1231 1.355 . S
C1230 C1232 1.415 . S
C1231 C1230 1.355 . S
C1231 C1233 1.419 . S
C1232 C1230 1.415 . S
C1232 C1237 1.425 . S
C1232 C1239 1.409 . S
C1233 H1225 0.930 . S
C1233 C1231 1.419 . S
C1233 C1234 1.362 . S
C1234 H1226 0.930 . S
C1234 C1233 1.362 . S
C1234 C1237 1.409 . S
C1235 H1227 0.930 . S
C1235 C1236 1.355 . S
C1235 C1237 1.415 . S
C1236 C1235 1.355 . S
C1236 C1238 1.419 . S
C1237 C1232 1.425 . S
C1237 C1234 1.409 . S
C1237 C1235 1.415 . S
C1238 H1228 0.930 . S
C1238 C1236 1.419 . S
C1238 C1239 1.362 . S
C1239 H1229 0.930 . S
C1239 C1232 1.409 . S
C1239 C1238 1.362 . S
H1240 C1246 0.930 . S
H1241 C1249 0.930 . S
H1242 C1250 0.930 . S
H1243 C1251 0.930 . S
H1244 C1254 0.930 . S
H1245 C1255 0.930 . S
C1246 H1240 0.930 . S
C1246 C1247 1.355 . S
C1246 C1248 1.415 . S
C1247 C1246 1.355 . S
C1247 C1249 1.419 . S
C1248 C1246 1.415 . S
C1248 C1253 1.425 . S
C1248 C1255 1.409 . S
C1249 H1241 0.930 . S
C1249 C1247 1.419 . S
C1249 C1250 1.362 . S
C1250 H1242 0.930 . S
C1250 C1249 1.362 . S
C1250 C1253 1.409 . S
C1251 H1243 0.930 . S
C1251 C1252 1.355 . S
C1251 C1253 1.415 . S
C1252 C1251 1.355 . S
C1252 C1254 1.419 . S
C1253 C1248 1.425 . S
C1253 C1250 1.409 . S
C1253 C1251 1.415 . S
C1254 H1244 0.930 . S
C1254 C1252 1.419 . S
C1254 C1255 1.362 . S
C1255 H1245 0.930 . S
C1255 C1248 1.409 . S
C1255 C1254 1.362 . S
H1256 C1262 0.930 . S
H1257 C1265 0.930 . S
H1258 C1266 0.930 . S
H1259 C1267 0.930 . S
H1260 C1270 0.930 . S
H1261 C1271 0.930 . S
C1262 H1256 0.930 . S
C1262 C1263 1.355 . S
C1262 C1264 1.415 . S
C1263 C1262 1.355 . S
C1263 C1265 1.419 . S
C1264 C1262 1.415 . S
C1264 C1269 1.425 . S
C1264 C1271 1.409 . S
C1265 H1257 0.930 . S
C1265 C1263 1.419 . S
C1265 C1266 1.362 . S
C1266 H1258 0.930 . S
C1266 C1265 1.362 . S
C1266 C1269 1.409 . S
C1267 H1259 0.930 . S
C1267 C1268 1.355 . S
C1267 C1269 1.415 . S
C1268 C1267 1.355 . S
C1268 C1270 1.419 . S
C1269 C1264 1.425 . S
C1269 C1266 1.409 . S
C1269 C1267 1.415 . S
C1270 H1260 0.930 . S
C1270 C1268 1.419 . S
C1270 C1271 1.362 . S
C1271 H1261 0.930 . S
C1271 C1264 1.409 . S
C1271 C1270 1.362 . S
H1272 C1278 0.930 . S
H1273 C1281 0.930 . S
H1274 C1282 0.930 . S
H1275 C1283 0.930 . S
H1276 C1286 0.930 . S
H1277 C1287 0.930 . S
C1278 H1272 0.930 . S
C1278 C1279 1.355 . S
C1278 C1280 1.415 . S
C1279 C1278 1.355 . S
C1279 C1281 1.419 . S
C1280 C1278 1.415 . S
C1280 C1285 1.425 . S
C1280 C1287 1.409 . S
C1281 H1273 0.930 . S
C1281 C1279 1.419 . S
C1281 C1282 1.362 . S
C1282 H1274 0.930 . S
C1282 C1281 1.362 . S
C1282 C1285 1.409 . S
C1283 H1275 0.930 . S
C1283 C1284 1.355 . S
C1283 C1285 1.415 . S
C1284 C1283 1.355 . S
C1284 C1286 1.419 . S
C1285 C1280 1.425 . S
C1285 C1282 1.409 . S
C1285 C1283 1.415 . S
C1286 H1276 0.930 . S
C1286 C1284 1.419 . S
C1286 C1287 1.362 . S
C1287 H1277 0.930 . S
C1287 C1280 1.409 . S
C1287 C1286 1.362 . S
H1288 C1294 0.930 . S
H1289 C1297 0.930 . S
H1290 C1298 0.930 . S
H1291 C1299 0.930 . S
H1292 C1302 0.930 . S
H1293 C1303 0.930 . S
C1294 H1288 0.930 . S
C1294 C1295 1.355 . S
C1294 C1296 1.415 . S
C1295 C1294 1.355 . S
C1295 C1297 1.419 . S
C1296 C1294 1.415 . S
C1296 C1301 1.425 . S
C1296 C1303 1.409 . S
C1297 H1289 0.930 . S
C1297 C1295 1.419 . S
C1297 C1298 1.362 . S
C1298 H1290 0.930 . S
C1298 C1297 1.362 . S
C1298 C1301 1.409 . S
C1299 H1291 0.930 . S
C1299 C1300 1.355 . S
C1299 C1301 1.415 . S
C1300 C1299 1.355 . S
C1300 C1302 1.419 . S
C1301 C1296 1.425 . S
C1301 C1298 1.409 . S
C1301 C1299 1.415 . S
C1302 H1292 0.930 . S
C1302 C1300 1.419 . S
C1302 C1303 1.362 . S
C1303 H1293 0.930 . S
C1303 C1296 1.409 . S
C1303 C1302 1.362 . S
H1304 C1310 0.930 . S
H1305 C1313 0.930 . S
H1306 C1314 0.930 . S
H1307 C1315 0.930 . S
H1308 C1318 0.930 . S
H1309 C1319 0.930 . S
C1310 H1304 0.930 . S
C1310 C1311 1.355 . S
C1310 C1312 1.415 . S
C1311 C1310 1.355 . S
C1311 C1313 1.419 . S
C1312 C1310 1.415 . S
C1312 C1317 1.425 . S
C1312 C1319 1.409 . S
C1313 H1305 0.930 . S
C1313 C1311 1.419 . S
C1313 C1314 1.362 . S
C1314 H1306 0.930 . S
C1314 C1313 1.362 . S
C1314 C1317 1.409 . S
C1315 H1307 0.930 . S
C1315 C1316 1.355 . S
C1315 C1317 1.415 . S
C1316 C1315 1.355 . S
C1316 C1318 1.419 . S
C1317 C1312 1.425 . S
C1317 C1314 1.409 . S
C1317 C1315 1.415 . S
C1318 H1308 0.930 . S
C1318 C1316 1.419 . S
C1318 C1319 1.362 . S
C1319 H1309 0.930 . S
C1319 C1312 1.409 . S
C1319 C1318 1.362 . S
H1320 C1326 0.930 . S
H1321 C1329 0.930 . S
H1322 C1330 0.930 . S
H1323 C1331 0.930 . S
H1324 C1334 0.930 . S
H1325 C1335 0.930 . S
C1326 H1320 0.930 . S
C1326 C1327 1.355 . S
C1326 C1328 1.415 . S
C1327 C1326 1.355 . S
C1327 C1329 1.419 . S
C1328 C1326 1.415 . S
C1328 C1333 1.425 . S
C1328 C1335 1.409 . S
C1329 H1321 0.930 . S
C1329 C1327 1.419 . S
C1329 C1330 1.362 . S
C1330 H1322 0.930 . S
C1330 C1329 1.362 . S
C1330 C1333 1.409 . S
C1331 H1323 0.930 . S
C1331 C1332 1.355 . S
C1331 C1333 1.415 . S
C1332 C1331 1.355 . S
C1332 C1334 1.419 . S
C1333 C1328 1.425 . S
C1333 C1330 1.409 . S
C1333 C1331 1.415 . S
C1334 H1324 0.930 . S
C1334 C1332 1.419 . S
C1334 C1335 1.362 . S
C1335 H1325 0.930 . S
C1335 C1328 1.409 . S
C1335 C1334 1.362 . S
H1336 C1342 0.930 . S
H1337 C1345 0.930 . S
H1338 C1346 0.930 . S
H1339 C1347 0.930 . S
H1340 C1350 0.930 . S
H1341 C1351 0.930 . S
C1342 H1336 0.930 . S
C1342 C1343 1.355 . S
C1342 C1344 1.415 . S
C1343 C1342 1.355 . S
C1343 C1345 1.419 . S
C1344 C1342 1.415 . S
C1344 C1349 1.425 . S
C1344 C1351 1.409 . S
C1345 H1337 0.930 . S
C1345 C1343 1.419 . S
C1345 C1346 1.362 . S
C1346 H1338 0.930 . S
C1346 C1345 1.362 . S
C1346 C1349 1.409 . S
C1347 H1339 0.930 . S
C1347 C1348 1.355 . S
C1347 C1349 1.415 . S
C1348 C1347 1.355 . S
C1348 C1350 1.419 . S
C1349 C1344 1.425 . S
C1349 C1346 1.409 . S
C1349 C1347 1.415 . S
C1350 H1340 0.930 . S
C1350 C1348 1.419 . S
C1350 C1351 1.362 . S
C1351 H1341 0.930 . S
C1351 C1344 1.409 . S
C1351 C1350 1.362 . S
H1352 C1358 0.930 . S
H1353 C1361 0.930 . S
H1354 C1362 0.930 . S
H1355 C1363 0.930 . S
H1356 C1366 0.930 . S
H1357 C1367 0.930 . S
C1358 H1352 0.930 . S
C1358 C1359 1.355 . S
C1358 C1360 1.415 . S
C1359 C1358 1.355 . S
C1359 C1361 1.419 . S
C1360 C1358 1.415 . S
C1360 C1365 1.425 . S
C1360 C1367 1.409 . S
C1361 H1353 0.930 . S
C1361 C1359 1.419 . S
C1361 C1362 1.362 . S
C1362 H1354 0.930 . S
C1362 C1361 1.362 . S
C1362 C1365 1.409 . S
C1363 H1355 0.930 . S
C1363 C1364 1.355 . S
C1363 C1365 1.415 . S
C1364 C1363 1.355 . S
C1364 C1366 1.419 . S
C1365 C1360 1.425 . S
C1365 C1362 1.409 . S
C1365 C1363 1.415 . S
C1366 H1356 0.930 . S
C1366 C1364 1.419 . S
C1366 C1367 1.362 . S
C1367 H1357 0.930 . S
C1367 C1360 1.409 . S
C1367 C1366 1.362 . S
H1368 C1374 0.930 . S
H1369 C1377 0.930 . S
H1370 C1378 0.930 . S
H1371 C1379 0.930 . S
H1372 C1382 0.930 . S
H1373 C1383 0.930 . S
C1374 H1368 0.930 . S
C1374 C1375 1.355 . S
C1374 C1376 1.415 . S
C1375 C1374 1.355 . S
C1375 C1377 1.419 . S
C1376 C1374 1.415 . S
C1376 C1381 1.425 . S
C1376 C1383 1.409 . S
C1377 H1369 0.930 . S
C1377 C1375 1.419 . S
C1377 C1378 1.362 . S
C1378 H1370 0.930 . S
C1378 C1377 1.362 . S
C1378 C1381 1.409 . S
C1379 H1371 0.930 . S
C1379 C1380 1.355 . S
C1379 C1381 1.415 . S
C1380 C1379 1.355 . S
C1380 C1382 1.419 . S
C1381 C1376 1.425 . S
C1381 C1378 1.409 . S
C1381 C1379 1.415 . S
C1382 H1372 0.930 . S
C1382 C1380 1.419 . S
C1382 C1383 1.362 . S
C1383 H1373 0.930 . S
C1383 C1376 1.409 . S
C1383 C1382 1.362 . S
H1384 C1390 0.930 . S
H1385 C1393 0.930 . S
H1386 C1394 0.930 . S
H1387 C1395 0.930 . S
H1388 C1398 0.930 . S
H1389 C1399 0.930 . S
C1390 H1384 0.930 . S
C1390 C1391 1.355 . S
C1390 C1392 1.415 . S
C1391 C1390 1.355 . S
C1391 C1393 1.419 . S
C1392 C1390 1.415 . S
C1392 C1397 1.425 . S
C1392 C1399 1.409 . S
C1393 H1385 0.930 . S
C1393 C1391 1.419 . S
C1393 C1394 1.362 . S
C1394 H1386 0.930 . S
C1394 C1393 1.362 . S
C1394 C1397 1.409 . S
C1395 H1387 0.930 . S
C1395 C1396 1.355 . S
C1395 C1397 1.415 . S
C1396 C1395 1.355 . S
C1396 C1398 1.419 . S
C1397 C1392 1.425 . S
C1397 C1394 1.409 . S
C1397 C1395 1.415 . S
C1398 H1388 0.930 . S
C1398 C1396 1.419 . S
C1398 C1399 1.362 . S
C1399 H1389 0.930 . S
C1399 C1392 1.409 . S
C1399 C1398 1.362 . S
H1400 C1406 0.930 . S
H1401 C1409 0.930 . S
H1402 C1410 0.930 . S
H1403 C1411 0.930 . S
H1404 C1414 0.930 . S
H1405 C1415 0.930 . S
C1406 H1400 0.930 . S
C1406 C1407 1.355 . S
C1406 C1408 1.415 . S
C1407 C1406 1.355 . S
C1407 C1409 1.419 . S
C1408 C1406 1.415 . S
C1408 C1413 1.425 . S
C1408 C1415 1.409 . S
C1409 H1401 0.930 . S
C1409 C1407 1.419 . S
C1409 C1410 1.362 . S
C1410 H1402 0.930 . S
C1410 C1409 1.362 . S
C1410 C1413 1.409 . S
C1411 H1403 0.930 . S
C1411 C1412 1.355 . S
C1411 C1413 1.415 . S
C1412 C1411 1.355 . S
C1412 C1414 1.419 . S
C1413 C1408 1.425 . S
C1413 C1410 1.409 . S
C1413 C1411 1.415 . S
C1414 H1404 0.930 . S
C1414 C1412 1.419 . S
C1414 C1415 1.362 . S
C1415 H1405 0.930 . S
C1415 C1408 1.409 . S
C1415 C1414 1.362 . S
H1416 C1422 0.930 . S
H1417 C1425 0.930 . S
H1418 C1426 0.930 . S
H1419 C1427 0.930 . S
H1420 C1430 0.930 . S
H1421 C1431 0.930 . S
C1422 H1416 0.930 . S
C1422 C1423 1.355 . S
C1422 C1424 1.415 . S
C1423 C1422 1.355 . S
C1423 C1425 1.419 . S
C1424 C1422 1.415 . S
C1424 C1429 1.425 . S
C1424 C1431 1.409 . S
C1425 H1417 0.930 . S
C1425 C1423 1.419 . S
C1425 C1426 1.362 . S
C1426 H1418 0.930 . S
C1426 C1425 1.362 . S
C1426 C1429 1.409 . S
C1427 H1419 0.930 . S
C1427 C1428 1.355 . S
C1427 C1429 1.415 . S
C1428 C1427 1.355 . S
C1428 C1430 1.419 . S
C1429 C1424 1.425 . S
C1429 C1426 1.409 . S
C1429 C1427 1.415 . S
C1430 H1420 0.930 . S
C1430 C1428 1.419 . S
C1430 C1431 1.362 . S
C1431 H1421 0.930 . S
C1431 C1424 1.409 . S
C1431 C1430 1.362 . S
H1432 C1438 0.930 . S
H1433 C1441 0.930 . S
H1434 C1442 0.930 . S
H1435 C1443 0.930 . S
H1436 C1446 0.930 . S
H1437 C1447 0.930 . S
C1438 H1432 0.930 . S
C1438 C1439 1.355 . S
C1438 C1440 1.415 . S
C1439 C1438 1.355 . S
C1439 C1441 1.419 . S
C1440 C1438 1.415 . S
C1440 C1445 1.425 . S
C1440 C1447 1.409 . S
C1441 H1433 0.930 . S
C1441 C1439 1.419 . S
C1441 C1442 1.362 . S
C1442 H1434 0.930 . S
C1442 C1441 1.362 . S
C1442 C1445 1.409 . S
C1443 H1435 0.930 . S
C1443 C1444 1.355 . S
C1443 C1445 1.415 . S
C1444 C1443 1.355 . S
C1444 C1446 1.419 . S
C1445 C1440 1.425 . S
C1445 C1442 1.409 . S
C1445 C1443 1.415 . S
C1446 H1436 0.930 . S
C1446 C1444 1.419 . S
C1446 C1447 1.362 . S
C1447 H1437 0.930 . S
C1447 C1440 1.409 . S
C1447 C1446 1.362 . S
H1448 C1454 0.930 . S
H1449 C1457 0.930 . S
H1450 C1458 0.930 . S
H1451 C1459 0.945 . S
H1452 C1462 0.930 . S
H1453 C1463 0.930 . S
C1454 H1448 0.930 . S
C1454 C1455 1.355 . S
C1454 C1456 1.415 . S
C1455 C1454 1.355 . S
C1455 C1457 1.419 . S
C1456 C1454 1.415 . S
C1456 C1461 1.425 . S
C1456 C1463 1.409 1_655 S
C1457 H1449 0.930 . S
C1457 C1455 1.419 . S
C1457 C1458 1.362 . S
C1458 H1450 0.930 . S
C1458 C1457 1.362 . S
C1458 C1461 1.409 . S
C1459 H1451 0.945 . S
C1459 C1460 1.304 1_655 S
C1459 C1461 1.452 . S
C1460 C1459 1.304 1_455 S
C1460 C1462 1.419 . S
C1461 C1456 1.425 . S
C1461 C1458 1.409 . S
C1461 C1459 1.452 . S
C1462 H1452 0.930 . S
C1462 C1460 1.419 . S
C1462 C1463 1.362 . S
C1463 H1453 0.930 . S
C1463 C1456 1.409 1_455 S
C1463 C1462 1.362 . S
H1464 C1470 0.930 . S
H1465 C1473 0.930 . S
H1466 C1474 0.930 . S
H1467 C1475 0.930 . S
H1468 C1478 0.930 . S
H1469 C1479 0.930 . S
C1470 H1464 0.930 . S
C1470 C1471 1.355 . S
C1470 C1472 1.415 . S
C1471 C1470 1.355 . S
C1471 C1473 1.419 . S
C1472 C1470 1.415 . S
C1472 C1477 1.425 . S
C1472 C1479 1.409 . S
C1473 H1465 0.930 . S
C1473 C1471 1.419 . S
C1473 C1474 1.362 . S
C1474 H1466 0.930 . S
C1474 C1473 1.362 . S
C1474 C1477 1.409 . S
C1475 H1467 0.930 . S
C1475 C1476 1.355 . S
C1475 C1477 1.415 . S
C1476 C1475 1.355 . S
C1476 C1478 1.419 . S
C1477 C1472 1.425 . S
C1477 C1474 1.409 . S
C1477 C1475 1.415 . S
C1478 H1468 0.930 . S
C1478 C1476 1.419 . S
C1478 C1479 1.362 . S
C1479 H1469 0.930 . S
C1479 C1472 1.409 . S
C1479 C1478 1.362 . S
H1480 C1486 0.930 . S
H1481 C1489 0.930 . S
H1482 C1490 0.930 . S
H1483 C1491 0.930 . S
H1484 C1494 0.930 . S
H1485 C1495 0.930 . S
C1486 H1480 0.930 . S
C1486 C1487 1.355 . S
C1486 C1488 1.415 . S
C1487 C1486 1.355 . S
C1487 C1489 1.419 . S
C1488 C1486 1.415 . S
C1488 C1493 1.425 . S
C1488 C1495 1.409 . S
C1489 H1481 0.930 . S
C1489 C1487 1.419 . S
C1489 C1490 1.362 . S
C1490 H1482 0.930 . S
C1490 C1489 1.362 . S
C1490 C1493 1.409 . S
C1491 H1483 0.930 . S
C1491 C1492 1.355 . S
C1491 C1493 1.415 . S
C1492 C1491 1.355 . S
C1492 C1494 1.419 . S
C1493 C1488 1.425 . S
C1493 C1490 1.409 . S
C1493 C1491 1.415 . S
C1494 H1484 0.930 . S
C1494 C1492 1.419 . S
C1494 C1495 1.362 . S
C1495 H1485 0.930 . S
C1495 C1488 1.409 . S
C1495 C1494 1.362 . S
H1496 C1502 0.930 . S
H1497 C1505 0.930 . S
H1498 C1506 0.930 . S
H1499 C1507 0.930 . S
H1500 C1510 0.930 . S
H1501 C1511 0.930 . S
C1502 H1496 0.930 . S
C1502 C1503 1.355 . S
C1502 C1504 1.415 . S
C1503 C1502 1.355 . S
C1503 C1505 1.419 . S
C1504 C1502 1.415 . S
C1504 C1509 1.425 . S
C1504 C1511 1.409 . S
C1505 H1497 0.930 . S
C1505 C1503 1.419 . S
C1505 C1506 1.362 . S
C1506 H1498 0.930 . S
C1506 C1505 1.362 . S
C1506 C1509 1.409 . S
C1507 H1499 0.930 . S
C1507 C1508 1.355 . S
C1507 C1509 1.415 . S
C1508 C1507 1.355 . S
C1508 C1510 1.419 . S
C1509 C1504 1.425 . S
C1509 C1506 1.409 . S
C1509 C1507 1.415 . S
C1510 H1500 0.930 . S
C1510 C1508 1.419 . S
C1510 C1511 1.362 . S
C1511 H1501 0.930 . S
C1511 C1504 1.409 . S
C1511 C1510 1.362 . S
H1512 C1518 0.930 . S
H1513 C1521 0.930 . S
H1514 C1522 0.930 . S
H1515 C1523 0.930 . S
H1516 C1526 0.930 1_455 S
H1517 C1527 0.930 . S
C1518 H1512 0.930 . S
C1518 C1519 1.355 . S
C1518 C1520 1.415 . S
C1519 C1518 1.355 . S
C1519 C1521 1.419 . S
C1520 C1518 1.415 . S
C1520 C1525 1.425 . S
C1520 C1527 1.409 . S
C1521 H1513 0.930 . S
C1521 C1519 1.419 . S
C1521 C1522 1.362 . S
C1522 H1514 0.930 . S
C1522 C1521 1.362 . S
C1522 C1525 1.409 . S
C1523 H1515 0.930 . S
C1523 C1524 1.355 . S
C1523 C1525 1.415 . S
C1524 C1523 1.355 . S
C1524 C1526 1.419 . S
C1525 C1520 1.425 . S
C1525 C1522 1.409 . S
C1525 C1523 1.415 . S
C1526 H1516 0.930 1_655 S
C1526 C1524 1.419 . S
C1526 C1527 1.362 . S
C1527 H1517 0.930 . S
C1527 C1520 1.409 . S
C1527 C1526 1.362 . S
H1528 C1534 0.930 . S
H1529 C1537 0.930 . S
H1530 C1538 0.930 . S
H1531 C1539 0.930 . S
H1532 C1542 0.930 . S
H1533 C1543 0.930 . S
C1534 H1528 0.930 . S
C1534 C1535 1.355 . S
C1534 C1536 1.415 . S
C1535 C1534 1.355 . S
C1535 C1537 1.419 . S
C1536 C1534 1.415 . S
C1536 C1541 1.425 . S
C1536 C1543 1.409 . S
C1537 H1529 0.930 . S
C1537 C1535 1.419 . S
C1537 C1538 1.362 . S
C1538 H1530 0.930 . S
C1538 C1537 1.362 . S
C1538 C1541 1.409 . S
C1539 H1531 0.930 . S
C1539 C1540 1.355 . S
C1539 C1541 1.415 . S
C1540 C1539 1.355 . S
C1540 C1542 1.419 . S
C1541 C1536 1.425 . S
C1541 C1538 1.409 . S
C1541 C1539 1.415 . S
C1542 H1532 0.930 . S
C1542 C1540 1.419 . S
C1542 C1543 1.362 . S
C1543 H1533 0.930 . S
C1543 C1536 1.409 . S
C1543 C1542 1.362 . S
H1544 C1550 0.930 . S
H1545 C1553 0.930 . S
H1546 C1554 0.930 . S
H1547 C1555 0.930 . S
H1548 C1558 0.930 . S
H1549 C1559 0.930 . S
C1550 H1544 0.930 . S
C1550 C1551 1.355 . S
C1550 C1552 1.415 . S
C1551 C1550 1.355 . S
C1551 C1553 1.419 . S
C1552 C1550 1.415 . S
C1552 C1557 1.425 . S
C1552 C1559 1.409 . S
C1553 H1545 0.930 . S
C1553 C1551 1.419 . S
C1553 C1554 1.362 . S
C1554 H1546 0.930 . S
C1554 C1553 1.362 . S
C1554 C1557 1.409 . S
C1555 H1547 0.930 . S
C1555 C1556 1.355 . S
C1555 C1557 1.415 . S
C1556 C1555 1.355 . S
C1556 C1558 1.419 . S
C1557 C1552 1.425 . S
C1557 C1554 1.409 . S
C1557 C1555 1.415 . S
C1558 H1548 0.930 . S
C1558 C1556 1.419 . S
C1558 C1559 1.362 . S
C1559 H1549 0.930 . S
C1559 C1552 1.409 . S
C1559 C1558 1.362 . S
H1560 C1566 0.930 . S
H1561 C1569 0.930 . S
H1562 C1570 0.930 . S
H1563 C1571 0.930 . S
H1564 C1574 0.930 . S
H1565 C1575 0.930 . S
C1566 H1560 0.930 . S
C1566 C1567 1.355 . S
C1566 C1568 1.415 . S
C1567 C1566 1.355 . S
C1567 C1569 1.419 . S
C1568 C1566 1.415 . S
C1568 C1573 1.425 . S
C1568 C1575 1.409 . S
C1569 H1561 0.930 . S
C1569 C1567 1.419 . S
C1569 C1570 1.362 . S
C1570 H1562 0.930 . S
C1570 C1569 1.362 . S
C1570 C1573 1.409 . S
C1571 H1563 0.930 . S
C1571 C1572 1.355 . S
C1571 C1573 1.415 . S
C1572 C1571 1.355 . S
C1572 C1574 1.419 . S
C1573 C1568 1.425 . S
C1573 C1570 1.409 . S
C1573 C1571 1.415 . S
C1574 H1564 0.930 . S
C1574 C1572 1.419 . S
C1574 C1575 1.362 . S
C1575 H1565 0.930 . S
C1575 C1568 1.409 . S
C1575 C1574 1.362 . S
H1576 C1582 0.930 . S
H1577 C1585 0.930 . S
H1578 C1586 0.930 . S
H1579 C1587 0.930 . S
H1580 C1590 0.930 . S
H1581 C1591 0.930 . S
C1582 H1576 0.930 . S
C1582 C1583 1.355 . S
C1582 C1584 1.415 . S
C1583 C1582 1.355 . S
C1583 C1585 1.419 . S
C1584 C1582 1.415 . S
C1584 C1589 1.425 . S
C1584 C1591 1.409 . S
C1585 H1577 0.930 . S
C1585 C1583 1.419 . S
C1585 C1586 1.362 . S
C1586 H1578 0.930 . S
C1586 C1585 1.362 . S
C1586 C1589 1.409 . S
C1587 H1579 0.930 . S
C1587 C1588 1.355 . S
C1587 C1589 1.415 . S
C1588 C1587 1.355 . S
C1588 C1590 1.419 . S
C1589 C1584 1.425 . S
C1589 C1586 1.409 . S
C1589 C1587 1.415 . S
C1590 H1580 0.930 . S
C1590 C1588 1.419 . S
C1590 C1591 1.362 . S
C1591 H1581 0.930 . S
C1591 C1584 1.409 . S
C1591 C1590 1.362 . S
H1592 C1598 0.930 . S
H1593 C1601 0.930 . S
H1594 C1602 0.930 . S
H1595 C1603 0.930 . S
H1596 C1606 0.930 . S
H1597 C1607 0.930 . S
C1598 H1592 0.930 . S
C1598 C1599 1.355 . S
C1598 C1600 1.415 . S
C1599 C1598 1.355 . S
C1599 C1601 1.419 . S
C1600 C1598 1.415 . S
C1600 C1605 1.425 . S
C1600 C1607 1.409 . S
C1601 H1593 0.930 . S
C1601 C1599 1.419 . S
C1601 C1602 1.362 . S
C1602 H1594 0.930 . S
C1602 C1601 1.362 . S
C1602 C1605 1.409 . S
C1603 H1595 0.930 . S
C1603 C1604 1.355 . S
C1603 C1605 1.415 . S
C1604 C1603 1.355 . S
C1604 C1606 1.419 . S
C1605 C1600 1.425 . S
C1605 C1602 1.409 . S
C1605 C1603 1.415 . S
C1606 H1596 0.930 . S
C1606 C1604 1.419 . S
C1606 C1607 1.362 . S
C1607 H1597 0.930 . S
C1607 C1600 1.409 . S
C1607 C1606 1.362 . S
H1608 C1614 0.930 . S
H1609 C1617 0.930 . S
H1610 C1618 0.930 . S
H1611 C1619 0.930 . S
H1612 C1622 0.930 . S
H1613 C1623 0.930 . S
C1614 H1608 0.930 . S
C1614 C1615 1.355 . S
C1614 C1616 1.415 . S
C1615 C1614 1.355 . S
C1615 C1617 1.419 . S
C1616 C1614 1.415 . S
C1616 C1621 1.425 . S
C1616 C1623 1.409 . S
C1617 H1609 0.930 . S
C1617 C1615 1.419 . S
C1617 C1618 1.362 . S
C1618 H1610 0.930 . S
C1618 C1617 1.362 . S
C1618 C1621 1.409 . S
C1619 H1611 0.930 . S
C1619 C1620 1.355 . S
C1619 C1621 1.415 . S
C1620 C1619 1.355 . S
C1620 C1622 1.419 . S
C1621 C1616 1.425 . S
C1621 C1618 1.409 . S
C1621 C1619 1.415 . S
C1622 H1612 0.930 . S
C1622 C1620 1.419 . S
C1622 C1623 1.362 . S
C1623 H1613 0.930 . S
C1623 C1616 1.409 . S
C1623 C1622 1.362 . S
H1624 C1630 0.930 . S
H1625 C1633 0.930 . S
H1626 C1634 0.930 . S
H1627 C1635 0.930 . S
H1628 C1638 0.930 . S
H1629 C1639 0.930 . S
C1630 H1624 0.930 . S
C1630 C1631 1.355 . S
C1630 C1632 1.415 . S
C1631 C1630 1.355 . S
C1631 C1633 1.419 . S
C1632 C1630 1.415 . S
C1632 C1637 1.425 . S
C1632 C1639 1.409 . S
C1633 H1625 0.930 . S
C1633 C1631 1.419 . S
C1633 C1634 1.362 . S
C1634 H1626 0.930 . S
C1634 C1633 1.362 . S
C1634 C1637 1.409 . S
C1635 H1627 0.930 . S
C1635 C1636 1.355 . S
C1635 C1637 1.415 . S
C1636 C1635 1.355 . S
C1636 C1638 1.419 . S
C1637 C1632 1.425 . S
C1637 C1634 1.409 . S
C1637 C1635 1.415 . S
C1638 H1628 0.930 . S
C1638 C1636 1.419 . S
C1638 C1639 1.362 . S
C1639 H1629 0.930 . S
C1639 C1632 1.409 . S
C1639 C1638 1.362 . S
H1640 C1646 0.930 . S
H1641 C1649 0.930 . S
H1642 C1650 0.930 . S
H1643 C1651 0.930 . S
H1644 C1654 0.930 . S
H1645 C1655 0.930 . S
C1646 H1640 0.930 . S
C1646 C1647 1.355 . S
C1646 C1648 1.415 . S
C1647 C1646 1.355 . S
C1647 C1649 1.419 . S
C1648 C1646 1.415 . S
C1648 C1653 1.425 . S
C1648 C1655 1.409 . S
C1649 H1641 0.930 . S
C1649 C1647 1.419 . S
C1649 C1650 1.362 . S
C1650 H1642 0.930 . S
C1650 C1649 1.362 . S
C1650 C1653 1.409 . S
C1651 H1643 0.930 . S
C1651 C1652 1.355 . S
C1651 C1653 1.415 . S
C1652 C1651 1.355 . S
C1652 C1654 1.419 . S
C1653 C1648 1.425 . S
C1653 C1650 1.409 . S
C1653 C1651 1.415 . S
C1654 H1644 0.930 . S
C1654 C1652 1.419 . S
C1654 C1655 1.362 . S
C1655 H1645 0.930 . S
C1655 C1648 1.409 . S
C1655 C1654 1.362 . S
H1656 C1662 0.930 . S
H1657 C1665 0.930 . S
H1658 C1666 0.930 . S
H1659 C1667 0.930 . S
H1660 C1670 0.930 . S
H1661 C1671 0.930 . S
C1662 H1656 0.930 . S
C1662 C1663 1.355 . S
C1662 C1664 1.415 . S
C1663 C1662 1.355 . S
C1663 C1665 1.419 . S
C1664 C1662 1.415 . S
C1664 C1669 1.425 . S
C1664 C1671 1.409 . S
C1665 H1657 0.930 . S
C1665 C1663 1.419 . S
C1665 C1666 1.362 . S
C1666 H1658 0.930 . S
C1666 C1665 1.362 . S
C1666 C1669 1.409 . S
C1667 H1659 0.930 . S
C1667 C1668 1.355 . S
C1667 C1669 1.415 . S
C1668 C1667 1.355 . S
C1668 C1670 1.419 . S
C1669 C1664 1.425 . S
C1669 C1666 1.409 . S
C1669 C1667 1.415 . S
C1670 H1660 0.930 . S
C1670 C1668 1.419 . S
C1670 C1671 1.362 . S
C1671 H1661 0.930 . S
C1671 C1664 1.409 . S
C1671 C1670 1.362 . S
H1672 C1678 0.930 . S
H1673 C1681 0.930 . S
H1674 C1682 0.930 . S
H1675 C1683 0.930 . S
H1676 C1686 0.930 . S
H1677 C1687 0.930 . S
C1678 H1672 0.930 . S
C1678 C1679 1.355 . S
C1678 C1680 1.415 . S
C1679 C1678 1.355 . S
C1679 C1681 1.419 . S
C1680 C1678 1.415 . S
C1680 C1685 1.425 . S
C1680 C1687 1.409 . S
C1681 H1673 0.930 . S
C1681 C1679 1.419 . S
C1681 C1682 1.362 . S
C1682 H1674 0.930 . S
C1682 C1681 1.362 . S
C1682 C1685 1.409 . S
C1683 H1675 0.930 . S
C1683 C1684 1.355 . S
C1683 C1685 1.415 . S
C1684 C1683 1.355 . S
C1684 C1686 1.419 . S
C1685 C1680 1.425 . S
C1685 C1682 1.409 . S
C1685 C1683 1.415 . S
C1686 H1676 0.930 . S
C1686 C1684 1.419 . S
C1686 C1687 1.362 . S
C1687 H1677 0.930 . S
C1687 C1680 1.409 . S
C1687 C1686 1.362 . S
H1688 C1694 0.930 . S
H1689 C1697 0.930 . S
H1690 C1698 0.930 . S
H1691 C1699 0.930 . S
H1692 C1702 0.930 . S
H1693 C1703 0.930 . S
C1694 H1688 0.930 . S
C1694 C1695 1.355 . S
C1694 C1696 1.415 . S
C1695 C1694 1.355 . S
C1695 C1697 1.419 . S
C1696 C1694 1.415 . S
C1696 C1701 1.425 . S
C1696 C1703 1.409 . S
C1697 H1689 0.930 . S
C1697 C1695 1.419 . S
C1697 C1698 1.362 . S
C1698 H1690 0.930 . S
C1698 C1697 1.362 . S
C1698 C1701 1.409 . S
C1699 H1691 0.930 . S
C1699 C1700 1.355 . S
C1699 C1701 1.415 . S
C1700 C1699 1.355 . S
C1700 C1702 1.419 . S
C1701 C1696 1.425 . S
C1701 C1698 1.409 . S
C1701 C1699 1.415 . S
C1702 H1692 0.930 . S
C1702 C1700 1.419 . S
C1702 C1703 1.362 . S
C1703 H1693 0.930 . S
C1703 C1696 1.409 . S
C1703 C1702 1.362 . S
H1704 C1710 0.930 . S
H1705 C1713 0.930 . S
H1706 C1714 0.930 . S
H1707 C1715 0.930 . S
H1708 C1718 0.930 . S
H1709 C1719 0.930 . S
C1710 H1704 0.930 . S
C1710 C1711 1.355 . S
C1710 C1712 1.415 . S
C1711 C1710 1.355 . S
C1711 C1713 1.419 . S
C1712 C1710 1.415 . S
C1712 C1717 1.425 . S
C1712 C1719 1.409 . S
C1713 H1705 0.930 . S
C1713 C1711 1.419 . S
C1713 C1714 1.362 . S
C1714 H1706 0.930 . S
C1714 C1713 1.362 . S
C1714 C1717 1.409 . S
C1715 H1707 0.930 . S
C1715 C1716 1.355 . S
C1715 C1717 1.415 . S
C1716 C1715 1.355 . S
C1716 C1718 1.419 . S
C1717 C1712 1.425 . S
C1717 C1714 1.409 . S
C1717 C1715 1.415 . S
C1718 H1708 0.930 . S
C1718 C1716 1.419 . S
C1718 C1719 1.362 . S
C1719 H1709 0.930 . S
C1719 C1712 1.409 . S
C1719 C1718 1.362 . S
H1720 C1726 0.930 . S
H1721 C1729 0.930 . S
H1722 C1730 0.930 . S
H1723 C1731 0.930 . S
H1724 C1734 0.930 . S
H1725 C1735 0.930 . S
C1726 H1720 0.930 . S
C1726 C1727 1.355 . S
C1726 C1728 1.415 . S
C1727 C1726 1.355 . S
C1727 C1729 1.419 . S
C1728 C1726 1.415 . S
C1728 C1733 1.425 . S
C1728 C1735 1.409 . S
C1729 H1721 0.930 . S
C1729 C1727 1.419 . S
C1729 C1730 1.362 . S
C1730 H1722 0.930 . S
C1730 C1729 1.362 . S
C1730 C1733 1.409 . S
C1731 H1723 0.930 . S
C1731 C1732 1.355 . S
C1731 C1733 1.415 . S
C1732 C1731 1.355 . S
C1732 C1734 1.419 . S
C1733 C1728 1.425 . S
C1733 C1730 1.409 . S
C1733 C1731 1.415 . S
C1734 H1724 0.930 . S
C1734 C1732 1.419 . S
C1734 C1735 1.362 . S
C1735 H1725 0.930 . S
C1735 C1728 1.409 . S
C1735 C1734 1.362 . S
H1736 C1742 0.930 . S
H1737 C1745 0.930 . S
H1738 C1746 0.930 . S
H1739 C1747 0.930 . S
H1740 C1750 0.930 . S
H1741 C1751 0.930 . S
C1742 H1736 0.930 . S
C1742 C1743 1.355 . S
C1742 C1744 1.415 . S
C1743 C1742 1.355 . S
C1743 C1745 1.419 . S
C1744 C1742 1.415 . S
C1744 C1749 1.425 . S
C1744 C1751 1.409 . S
C1745 H1737 0.930 . S
C1745 C1743 1.419 . S
C1745 C1746 1.362 . S
C1746 H1738 0.930 . S
C1746 C1745 1.362 . S
C1746 C1749 1.409 . S
C1747 H1739 0.930 . S
C1747 C1748 1.355 . S
C1747 C1749 1.415 . S
C1748 C1747 1.355 . S
C1748 C1750 1.419 . S
C1749 C1744 1.425 . S
C1749 C1746 1.409 . S
C1749 C1747 1.415 . S
C1750 H1740 0.930 . S
C1750 C1748 1.419 . S
C1750 C1751 1.362 . S
C1751 H1741 0.930 . S
C1751 C1744 1.409 . S
C1751 C1750 1.362 . S
H1752 C1758 0.930 . S
H1753 C1761 0.930 . S
H1754 C1762 0.930 . S
H1755 C1763 0.930 . S
H1756 C1766 0.930 . S
H1757 C1767 0.930 . S
C1758 H1752 0.930 . S
C1758 C1759 1.355 . S
C1758 C1760 1.415 . S
C1759 C1758 1.355 . S
C1759 C1761 1.419 . S
C1760 C1758 1.415 . S
C1760 C1765 1.425 . S
C1760 C1767 1.409 . S
C1761 H1753 0.930 . S
C1761 C1759 1.419 . S
C1761 C1762 1.362 . S
C1762 H1754 0.930 . S
C1762 C1761 1.362 . S
C1762 C1765 1.409 . S
C1763 H1755 0.930 . S
C1763 C1764 1.355 . S
C1763 C1765 1.415 . S
C1764 C1763 1.355 . S
C1764 C1766 1.419 . S
C1765 C1760 1.425 . S
C1765 C1762 1.409 . S
C1765 C1763 1.415 . S
C1766 H1756 0.930 . S
C1766 C1764 1.419 . S
C1766 C1767 1.362 . S
C1767 H1757 0.930 . S
C1767 C1760 1.409 . S
C1767 C1766 1.362 . S
H1768 C1774 0.930 . S
H1769 C1777 0.930 . S
H1770 C1778 0.930 . S
H1771 C1779 0.930 . S
H1772 C1782 0.930 . S
H1773 C1783 0.930 . S
C1774 H1768 0.930 . S
C1774 C1775 1.355 . S
C1774 C1776 1.415 . S
C1775 C1774 1.355 . S
C1775 C1777 1.419 . S
C1776 C1774 1.415 . S
C1776 C1781 1.425 . S
C1776 C1783 1.409 . S
C1777 H1769 0.930 . S
C1777 C1775 1.419 . S
C1777 C1778 1.362 . S
C1778 H1770 0.930 . S
C1778 C1777 1.362 . S
C1778 C1781 1.409 . S
C1779 H1771 0.930 . S
C1779 C1780 1.355 . S
C1779 C1781 1.415 . S
C1780 C1779 1.355 . S
C1780 C1782 1.419 . S
C1781 C1776 1.425 . S
C1781 C1778 1.409 . S
C1781 C1779 1.415 . S
C1782 H1772 0.930 . S
C1782 C1780 1.419 . S
C1782 C1783 1.362 . S
C1783 H1773 0.930 . S
C1783 C1776 1.409 . S
C1783 C1782 1.362 . S
H1784 C1790 0.930 . S
H1785 C1793 0.930 . S
H1786 C1794 0.930 . S
H1787 C1795 0.930 . S
H1788 C1798 0.930 . S
H1789 C1799 0.930 . S
C1790 H1784 0.930 . S
C1790 C1791 1.355 . S
C1790 C1792 1.415 . S
C1791 C1790 1.355 . S
C1791 C1793 1.419 . S
C1792 C1790 1.415 . S
C1792 C1797 1.425 . S
C1792 C1799 1.409 . S
C1793 H1785 0.930 . S
C1793 C1791 1.419 . S
C1793 C1794 1.362 . S
C1794 H1786 0.930 . S
C1794 C1793 1.362 . S
C1794 C1797 1.409 . S
C1795 H1787 0.930 . S
C1795 C1796 1.355 . S
C1795 C1797 1.415 . S
C1796 C1795 1.355 . S
C1796 C1798 1.419 . S
C1797 C1792 1.425 . S
C1797 C1794 1.409 . S
C1797 C1795 1.415 . S
C1798 H1788 0.930 . S
C1798 C1796 1.419 . S
C1798 C1799 1.362 . S
C1799 H1789 0.930 . S
C1799 C1792 1.409 . S
C1799 C1798 1.362 . S
H1800 C1806 0.930 . S
H1801 C1809 0.930 . S
H1802 C1810 0.930 . S
H1803 C1811 0.930 . S
H1804 C1814 0.930 . S
H1805 C1815 0.930 . S
C1806 H1800 0.930 . S
C1806 C1807 1.355 . S
C1806 C1808 1.415 . S
C1807 C1806 1.355 . S
C1807 C1809 1.419 . S
C1808 C1806 1.415 . S
C1808 C1813 1.425 . S
C1808 C1815 1.409 . S
C1809 H1801 0.930 . S
C1809 C1807 1.419 . S
C1809 C1810 1.362 . S
C1810 H1802 0.930 . S
C1810 C1809 1.362 . S
C1810 C1813 1.409 . S
C1811 H1803 0.930 . S
C1811 C1812 1.355 . S
C1811 C1813 1.415 . S
C1812 C1811 1.355 . S
C1812 C1814 1.419 . S
C1813 C1808 1.425 . S
C1813 C1810 1.409 . S
C1813 C1811 1.415 . S
C1814 H1804 0.930 . S
C1814 C1812 1.419 . S
C1814 C1815 1.362 . S
C1815 H1805 0.930 . S
C1815 C1808 1.409 . S
C1815 C1814 1.362 . S
H1816 C1822 0.930 . S
H1817 C1825 0.930 . S
H1818 C1826 0.930 . S
H1819 C1827 0.930 . S
H1820 C1830 0.930 . S
H1821 C1831 0.930 . S
C1822 H1816 0.930 . S
C1822 C1823 1.355 . S
C1822 C1824 1.415 . S
C1823 C1822 1.355 . S
C1823 C1825 1.419 . S
C1824 C1822 1.415 . S
C1824 C1829 1.425 . S
C1824 C1831 1.409 . S
C1825 H1817 0.930 . S
C1825 C1823 1.419 . S
C1825 C1826 1.362 . S
C1826 H1818 0.930 . S
C1826 C1825 1.362 . S
C1826 C1829 1.409 . S
C1827 H1819 0.930 . S
C1827 C1828 1.355 . S
C1827 C1829 1.415 . S
C1828 C1827 1.355 . S
C1828 C1830 1.419 . S
C1829 C1824 1.425 . S
C1829 C1826 1.409 . S
C1829 C1827 1.415 . S
C1830 H1820 0.930 . S
C1830 C1828 1.419 . S
C1830 C1831 1.362 . S
C1831 H1821 0.930 . S
C1831 C1824 1.409 . S
C1831 C1830 1.362 . S
H1832 C1838 0.930 . S
H1833 C1841 0.930 . S
H1834 C1842 0.930 . S
H1835 C1843 0.930 . S
H1836 C1846 0.930 . S
H1837 C1847 0.930 . S
C1838 H1832 0.930 . S
C1838 C1839 1.355 . S
C1838 C1840 1.415 . S
C1839 C1838 1.355 . S
C1839 C1841 1.419 . S
C1840 C1838 1.415 . S
C1840 C1845 1.425 . S
C1840 C1847 1.409 . S
C1841 H1833 0.930 . S
C1841 C1839 1.419 . S
C1841 C1842 1.362 . S
C1842 H1834 0.930 . S
C1842 C1841 1.362 . S
C1842 C1845 1.409 . S
C1843 H1835 0.930 . S
C1843 C1844 1.355 . S
C1843 C1845 1.415 . S
C1844 C1843 1.355 . S
C1844 C1846 1.419 . S
C1845 C1840 1.425 . S
C1845 C1842 1.409 . S
C1845 C1843 1.415 . S
C1846 H1836 0.930 . S
C1846 C1844 1.419 . S
C1846 C1847 1.362 . S
C1847 H1837 0.930 . S
C1847 C1840 1.409 . S
C1847 C1846 1.362 . S
H1848 C1854 0.930 . S
H1849 C1857 0.930 . S
H1850 C1858 0.930 . S
H1851 C1859 0.930 . S
H1852 C1862 0.930 . S
H1853 C1863 0.930 . S
C1854 H1848 0.930 . S
C1854 C1855 1.355 . S
C1854 C1856 1.415 . S
C1855 C1854 1.355 . S
C1855 C1857 1.419 . S
C1856 C1854 1.415 . S
C1856 C1861 1.425 . S
C1856 C1863 1.409 . S
C1857 H1849 0.930 . S
C1857 C1855 1.419 . S
C1857 C1858 1.362 . S
C1858 H1850 0.930 . S
C1858 C1857 1.362 . S
C1858 C1861 1.409 . S
C1859 H1851 0.930 . S
C1859 C1860 1.355 . S
C1859 C1861 1.415 . S
C1860 C1859 1.355 . S
C1860 C1862 1.419 . S
C1861 C1856 1.425 . S
C1861 C1858 1.409 . S
C1861 C1859 1.415 . S
C1862 H1852 0.930 . S
C1862 C1860 1.419 . S
C1862 C1863 1.362 . S
C1863 H1853 0.930 . S
C1863 C1856 1.409 . S
C1863 C1862 1.362 . S
H1864 C1870 0.930 . S
H1865 C1873 0.930 . S
H1866 C1874 0.930 . S
H1867 C1875 0.930 . S
H1868 C1878 0.930 . S
H1869 C1879 0.930 . S
C1870 H1864 0.930 . S
C1870 C1871 1.355 . S
C1870 C1872 1.415 . S
C1871 C1870 1.355 . S
C1871 C1873 1.419 . S
C1872 C1870 1.415 . S
C1872 C1877 1.425 . S
C1872 C1879 1.409 . S
C1873 H1865 0.930 . S
C1873 C1871 1.419 . S
C1873 C1874 1.362 . S
C1874 H1866 0.930 . S
C1874 C1873 1.362 . S
C1874 C1877 1.409 . S
C1875 H1867 0.930 . S
C1875 C1876 1.355 . S
C1875 C1877 1.415 . S
C1876 C1875 1.355 . S
C1876 C1878 1.419 . S
C1877 C1872 1.425 . S
C1877 C1874 1.409 . S
C1877 C1875 1.415 . S
C1878 H1868 0.930 . S
C1878 C1876 1.419 . S
C1878 C1879 1.362 . S
C1879 H1869 0.930 . S
C1879 C1872 1.409 . S
C1879 C1878 1.362 . S
H1880 C1886 0.930 . S
H1881 C1889 0.930 . S
H1882 C1890 0.930 . S
H1883 C1891 0.930 . S
H1884 C1894 0.930 . S
H1885 C1895 0.930 . S
C1886 H1880 0.930 . S
C1886 C1887 1.355 . S
C1886 C1888 1.415 . S
C1887 C1886 1.355 . S
C1887 C1889 1.419 . S
C1888 C1886 1.415 . S
C1888 C1893 1.425 . S
C1888 C1895 1.409 . S
C1889 H1881 0.930 . S
C1889 C1887 1.419 . S
C1889 C1890 1.362 . S
C1890 H1882 0.930 . S
C1890 C1889 1.362 . S
C1890 C1893 1.409 . S
C1891 H1883 0.930 . S
C1891 C1892 1.355 . S
C1891 C1893 1.415 . S
C1892 C1891 1.355 . S
C1892 C1894 1.419 . S
C1893 C1888 1.425 . S
C1893 C1890 1.409 . S
C1893 C1891 1.415 . S
C1894 H1884 0.930 . S
C1894 C1892 1.419 . S
C1894 C1895 1.362 . S
C1895 H1885 0.930 . S
C1895 C1888 1.409 . S
C1895 C1894 1.362 . S
H1896 C1902 0.930 . S
H1897 C1905 0.930 . S
H1898 C1906 0.930 . S
H1899 C1907 0.930 . S
H1900 C1910 0.930 . S
H1901 C1911 0.930 . S
C1902 H1896 0.930 . S
C1902 C1903 1.355 . S
C1902 C1904 1.415 . S
C1903 C1902 1.355 . S
C1903 C1905 1.419 . S
C1904 C1902 1.415 . S
C1904 C1909 1.425 . S
C1904 C1911 1.409 . S
C1905 H1897 0.930 . S
C1905 C1903 1.419 . S
C1905 C1906 1.362 . S
C1906 H1898 0.930 . S
C1906 C1905 1.362 . S
C1906 C1909 1.409 . S
C1907 H1899 0.930 . S
C1907 C1908 1.355 . S
C1907 C1909 1.415 . S
C1908 C1907 1.355 . S
C1908 C1910 1.419 . S
C1909 C1904 1.425 . S
C1909 C1906 1.409 . S
C1909 C1907 1.415 . S
C1910 H1900 0.930 . S
C1910 C1908 1.419 . S
C1910 C1911 1.362 . S
C1911 H1901 0.930 . S
C1911 C1904 1.409 . S
C1911 C1910 1.362 . S
H1912 C1918 0.930 . S
H1913 C1921 0.930 . S
H1914 C1922 0.930 . S
H1915 C1923 0.930 . S
H1916 C1926 0.930 . S
H1917 C1927 0.930 . S
C1918 H1912 0.930 . S
C1918 C1919 1.355 . S
C1918 C1920 1.415 . S
C1919 C1918 1.355 . S
C1919 C1921 1.419 . S
C1920 C1918 1.415 . S
C1920 C1925 1.425 . S
C1920 C1927 1.409 . S
C1921 H1913 0.930 . S
C1921 C1919 1.419 . S
C1921 C1922 1.362 . S
C1922 H1914 0.930 . S
C1922 C1921 1.362 . S
C1922 C1925 1.409 . S
C1923 H1915 0.930 . S
C1923 C1924 1.355 . S
C1923 C1925 1.415 . S
C1924 C1923 1.355 . S
C1924 C1926 1.419 . S
C1925 C1920 1.425 . S
C1925 C1922 1.409 . S
C1925 C1923 1.415 . S
C1926 H1916 0.930 . S
C1926 C1924 1.419 . S
C1926 C1927 1.362 . S
C1927 H1917 0.930 . S
C1927 C1920 1.409 . S
C1927 C1926 1.362 . S
H1928 C1934 0.930 . S
H1929 C1937 0.930 . S
H1930 C1938 0.930 . S
H1931 C1939 0.930 . S
H1932 C1942 0.930 . S
H1933 C1943 0.930 . S
C1934 H1928 0.930 . S
C1934 C1935 1.355 . S
C1934 C1936 1.415 . S
C1935 C1934 1.355 . S
C1935 C1937 1.419 . S
C1936 C1934 1.415 . S
C1936 C1941 1.425 . S
C1936 C1943 1.409 . S
C1937 H1929 0.930 . S
C1937 C1935 1.419 . S
C1937 C1938 1.362 . S
C1938 H1930 0.930 . S
C1938 C1937 1.362 . S
C1938 C1941 1.409 . S
C1939 H1931 0.930 . S
C1939 C1940 1.355 . S
C1939 C1941 1.415 . S
C1940 C1939 1.355 . S
C1940 C1942 1.419 . S
C1941 C1936 1.425 . S
C1941 C1938 1.409 . S
C1941 C1939 1.415 . S
C1942 H1932 0.930 . S
C1942 C1940 1.419 . S
C1942 C1943 1.362 . S
C1943 H1933 0.930 . S
C1943 C1936 1.409 . S
C1943 C1942 1.362 . S
H1944 C1950 0.930 . S
H1945 C1953 0.930 . S
H1946 C1954 0.930 . S
H1947 C1955 0.930 . S
H1948 C1958 0.930 . S
H1949 C1959 0.930 . S
C1950 H1944 0.930 . S
C1950 C1951 1.355 . S
C1950 C1952 1.415 . S
C1951 C1950 1.355 . S
C1951 C1953 1.419 . S
C1952 C1950 1.415 . S
C1952 C1957 1.425 . S
C1952 C1959 1.409 . S
C1953 H1945 0.930 . S
C1953 C1951 1.419 . S
C1953 C1954 1.362 . S
C1954 H1946 0.930 . S
C1954 C1953 1.362 . S
C1954 C1957 1.409 . S
C1955 H1947 0.930 . S
C1955 C1956 1.355 . S
C1955 C1957 1.415 . S
C1956 C1955 1.355 . S
C1956 C1958 1.419 . S
C1957 C1952 1.425 . S
C1957 C1954 1.409 . S
C1957 C1955 1.415 . S
C1958 H1948 0.930 . S
C1958 C1956 1.419 . S
C1958 C1959 1.362 . S
C1959 H1949 0.930 . S
C1959 C1952 1.409 . S
C1959 C1958 1.362 . S
H1960 C1966 0.930 . S
H1961 C1969 0.930 . S
H1962 C1970 0.930 . S
H1963 C1971 0.930 . S
H1964 C1974 0.930 . S
H1965 C1975 0.930 . S
C1966 H1960 0.930 . S
C1966 C1967 1.355 . S
C1966 C1968 1.415 . S
C1967 C1966 1.355 . S
C1967 C1969 1.419 . S
C1968 C1966 1.415 . S
C1968 C1973 1.425 . S
C1968 C1975 1.409 . S
C1969 H1961 0.930 . S
C1969 C1967 1.419 . S
C1969 C1970 1.362 . S
C1970 H1962 0.930 . S
C1970 C1969 1.362 . S
C1970 C1973 1.409 . S
C1971 H1963 0.930 . S
C1971 C1972 1.355 . S
C1971 C1973 1.415 . S
C1972 C1971 1.355 . S
C1972 C1974 1.419 . S
C1973 C1968 1.425 . S
C1973 C1970 1.409 . S
C1973 C1971 1.415 . S
C1974 H1964 0.930 . S
C1974 C1972 1.419 . S
C1974 C1975 1.362 . S
C1975 H1965 0.930 . S
C1975 C1968 1.409 . S
C1975 C1974 1.362 . S
H1976 C1982 0.930 . S
H1977 C1985 0.930 . S
H1978 C1986 0.930 . S
H1979 C1987 0.930 . S
H1980 C1990 0.930 . S
H1981 C1991 0.930 . S
C1982 H1976 0.930 . S
C1982 C1983 1.355 . S
C1982 C1984 1.415 . S
C1983 C1982 1.355 . S
C1983 C1985 1.419 . S
C1984 C1982 1.415 . S
C1984 C1989 1.425 . S
C1984 C1991 1.409 . S
C1985 H1977 0.930 . S
C1985 C1983 1.419 . S
C1985 C1986 1.362 . S
C1986 H1978 0.930 . S
C1986 C1985 1.362 . S
C1986 C1989 1.409 . S
C1987 H1979 0.930 . S
C1987 C1988 1.355 . S
C1987 C1989 1.415 . S
C1988 C1987 1.355 . S
C1988 C1990 1.419 . S
C1989 C1984 1.425 . S
C1989 C1986 1.409 . S
C1989 C1987 1.415 . S
C1990 H1980 0.930 . S
C1990 C1988 1.419 . S
C1990 C1991 1.362 . S
C1991 H1981 0.930 . S
C1991 C1984 1.409 . S
C1991 C1990 1.362 . S
H1992 C1998 0.930 . S
H1993 C2001 0.930 . S
H1994 C2002 0.930 . S
H1995 C2003 0.930 . S
H1996 C2006 0.930 . S
H1997 C2007 0.930 . S
C1998 H1992 0.930 . S
C1998 C1999 1.355 . S
C1998 C2000 1.415 . S
C1999 C1998 1.355 . S
C1999 C2001 1.419 . S
C2000 C1998 1.415 . S
C2000 C2005 1.425 . S
C2000 C2007 1.409 . S
C2001 H1993 0.930 . S
C2001 C1999 1.419 . S
C2001 C2002 1.362 . S
C2002 H1994 0.930 . S
C2002 C2001 1.362 . S
C2002 C2005 1.409 . S
C2003 H1995 0.930 . S
C2003 C2004 1.355 . S
C2003 C2005 1.415 . S
C2004 C2003 1.355 . S
C2004 C2006 1.419 . S
C2005 C2000 1.425 . S
C2005 C2002 1.409 . S
C2005 C2003 1.415 . S
C2006 H1996 0.930 . S
C2006 C2004 1.419 . S
C2006 C2007 1.362 . S
C2007 H1997 0.930 . S
C2007 C2000 1.409 . S
C2007 C2006 1.362 . S
H2008 C2014 0.930 . S
H2009 C2017 0.930 . S
H2010 C2018 0.930 . S
H2011 C2019 0.930 . S
H2012 C2022 0.930 . S
H2013 C2023 0.930 . S
C2014 H2008 0.930 . S
C2014 C2015 1.355 . S
C2014 C2016 1.415 . S
C2015 C2014 1.355 . S
C2015 C2017 1.419 . S
C2016 C2014 1.415 . S
C2016 C2021 1.425 . S
C2016 C2023 1.409 . S
C2017 H2009 0.930 . S
C2017 C2015 1.419 . S
C2017 C2018 1.362 . S
C2018 H2010 0.930 . S
C2018 C2017 1.362 . S
C2018 C2021 1.409 . S
C2019 H2011 0.930 . S
C2019 C2020 1.355 . S
C2019 C2021 1.415 . S
C2020 C2019 1.355 . S
C2020 C2022 1.419 . S
C2021 C2016 1.425 . S
C2021 C2018 1.409 . S
C2021 C2019 1.415 . S
C2022 H2012 0.930 . S
C2022 C2020 1.419 . S
C2022 C2023 1.362 . S
C2023 H2013 0.930 . S
C2023 C2016 1.409 . S
C2023 C2022 1.362 . S
H2024 C2030 0.930 . S
H2025 C2033 0.930 . S
H2026 C2034 0.930 . S
H2027 C2035 0.930 . S
H2028 C2038 0.930 . S
H2029 C2039 0.930 . S
C2030 H2024 0.930 . S
C2030 C2031 1.355 . S
C2030 C2032 1.415 . S
C2031 C2030 1.355 . S
C2031 C2033 1.419 . S
C2032 C2030 1.415 . S
C2032 C2037 1.425 . S
C2032 C2039 1.409 . S
C2033 H2025 0.930 . S
C2033 C2031 1.419 . S
C2033 C2034 1.362 . S
C2034 H2026 0.930 . S
C2034 C2033 1.362 . S
C2034 C2037 1.409 . S
C2035 H2027 0.930 . S
C2035 C2036 1.355 . S
C2035 C2037 1.415 . S
C2036 C2035 1.355 . S
C2036 C2038 1.419 . S
C2037 C2032 1.425 . S
C2037 C2034 1.409 . S
C2037 C2035 1.415 . S
C2038 H2028 0.930 . S
C2038 C2036 1.419 . S
C2038 C2039 1.362 . S
C2039 H2029 0.930 . S
C2039 C2032 1.409 . S
C2039 C2038 1.362 . S
H2040 C2046 0.930 . S
H2041 C2049 0.930 . S
H2042 C2050 0.930 . S
H2043 C2051 0.930 . S
H2044 C2054 0.930 . S
H2045 C2055 0.930 . S
C2046 H2040 0.930 . S
C2046 C2047 1.355 . S
C2046 C2048 1.415 . S
C2047 C2046 1.355 . S
C2047 C2049 1.419 . S
C2048 C2046 1.415 . S
C2048 C2053 1.425 . S
C2048 C2055 1.409 . S
C2049 H2041 0.930 . S
C2049 C2047 1.419 . S
C2049 C2050 1.362 . S
C2050 H2042 0.930 . S
C2050 C2049 1.362 . S
C2050 C2053 1.409 . S
C2051 H2043 0.930 . S
C2051 C2052 1.355 . S
C2051 C2053 1.415 . S
C2052 C2051 1.355 . S
C2052 C2054 1.419 . S
C2053 C2048 1.425 . S
C2053 C2050 1.409 . S
C2053 C2051 1.415 . S
C2054 H2044 0.930 . S
C2054 C2052 1.419 . S
C2054 C2055 1.362 . S
C2055 H2045 0.930 . S
C2055 C2048 1.409 . S
C2055 C2054 1.362 . S
H2056 C2062 0.930 . S
H2057 C2065 0.930 . S
H2058 C2066 0.930 . S
H2059 C2067 0.930 . S
H2060 C2070 0.930 . S
H2061 C2071 0.930 . S
C2062 H2056 0.930 . S
C2062 C2063 1.355 . S
C2062 C2064 1.415 . S
C2063 C2062 1.355 . S
C2063 C2065 1.419 . S
C2064 C2062 1.415 . S
C2064 C2069 1.425 . S
C2064 C2071 1.409 . S
C2065 H2057 0.930 . S
C2065 C2063 1.419 . S
C2065 C2066 1.362 . S
C2066 H2058 0.930 . S
C2066 C2065 1.362 . S
C2066 C2069 1.409 . S
C2067 H2059 0.930 . S
C2067 C2068 1.355 . S
C2067 C2069 1.415 . S
C2068 C2067 1.355 . S
C2068 C2070 1.419 . S
C2069 C2064 1.425 . S
C2069 C2066 1.409 . S
C2069 C2067 1.415 . S
C2070 H2060 0.930 . S
C2070 C2068 1.419 . S
C2070 C2071 1.362 . S
C2071 H2061 0.930 . S
C2071 C2064 1.409 . S
C2071 C2070 1.362 . S
H2072 C2078 0.930 . S
H2073 C2081 0.930 . S
H2074 C2082 0.930 . S
H2075 C2083 0.930 . S
H2076 C2086 0.930 . S
H2077 C2087 0.930 . S
C2078 H2072 0.930 . S
C2078 C2079 1.355 . S
C2078 C2080 1.415 . S
C2079 C2078 1.355 . S
C2079 C2081 1.419 . S
C2080 C2078 1.415 . S
C2080 C2085 1.425 . S
C2080 C2087 1.409 . S
C2081 H2073 0.930 . S
C2081 C2079 1.419 . S
C2081 C2082 1.362 . S
C2082 H2074 0.930 . S
C2082 C2081 1.362 . S
C2082 C2085 1.409 . S
C2083 H2075 0.930 . S
C2083 C2084 1.355 . S
C2083 C2085 1.415 . S
C2084 C2083 1.355 . S
C2084 C2086 1.419 . S
C2085 C2080 1.425 . S
C2085 C2082 1.409 . S
C2085 C2083 1.415 . S
C2086 H2076 0.930 . S
C2086 C2084 1.419 . S
C2086 C2087 1.362 . S
C2087 H2077 0.930 . S
C2087 C2080 1.409 . S
C2087 C2086 1.362 . S
H2088 C2094 0.930 . S
H2089 C2097 0.930 . S
H2090 C2098 0.930 . S
H2091 C2099 0.930 . S
H2092 C2102 0.930 . S
H2093 C2103 0.930 . S
C2094 H2088 0.930 . S
C2094 C2095 1.355 . S
C2094 C2096 1.415 . S
C2095 C2094 1.355 . S
C2095 C2097 1.419 . S
C2096 C2094 1.415 . S
C2096 C2101 1.425 . S
C2096 C2103 1.409 . S
C2097 H2089 0.930 . S
C2097 C2095 1.419 . S
C2097 C2098 1.362 . S
C2098 H2090 0.930 . S
C2098 C2097 1.362 . S
C2098 C2101 1.409 . S
C2099 H2091 0.930 . S
C2099 C2100 1.355 . S
C2099 C2101 1.415 . S
C2100 C2099 1.355 . S
C2100 C2102 1.419 . S
C2101 C2096 1.425 . S
C2101 C2098 1.409 . S
C2101 C2099 1.415 . S
C2102 H2092 0.930 . S
C2102 C2100 1.419 . S
C2102 C2103 1.362 . S
C2103 H2093 0.930 . S
C2103 C2096 1.409 . S
C2103 C2102 1.362 . S
H2104 C2110 0.930 . S
H2105 C2113 0.930 . S
H2106 C2114 0.930 . S
H2107 C2115 0.930 . S
H2108 C2118 0.930 . S
H2109 C2119 0.930 . S
C2110 H2104 0.930 . S
C2110 C2111 1.355 . S
C2110 C2112 1.415 . S
C2111 C2110 1.355 . S
C2111 C2113 1.419 . S
C2112 C2110 1.415 . S
C2112 C2117 1.425 . S
C2112 C2119 1.409 . S
C2113 H2105 0.930 . S
C2113 C2111 1.419 . S
C2113 C2114 1.362 . S
C2114 H2106 0.930 . S
C2114 C2113 1.362 . S
C2114 C2117 1.409 . S
C2115 H2107 0.930 . S
C2115 C2116 1.355 . S
C2115 C2117 1.415 . S
C2116 C2115 1.355 . S
C2116 C2118 1.419 . S
C2117 C2112 1.425 . S
C2117 C2114 1.409 . S
C2117 C2115 1.415 . S
C2118 H2108 0.930 . S
C2118 C2116 1.419 . S
C2118 C2119 1.362 . S
C2119 H2109 0.930 . S
C2119 C2112 1.409 . S
C2119 C2118 1.362 . S
H2120 C2126 0.930 . S
H2121 C2129 0.930 . S
H2122 C2130 0.930 . S
H2123 C2131 0.930 . S
H2124 C2134 0.930 . S
H2125 C2135 0.930 . S
C2126 H2120 0.930 . S
C2126 C2127 1.355 . S
C2126 C2128 1.415 . S
C2127 C2126 1.355 . S
C2127 C2129 1.419 . S
C2128 C2126 1.415 . S
C2128 C2133 1.425 . S
C2128 C2135 1.409 . S
C2129 H2121 0.930 . S
C2129 C2127 1.419 . S
C2129 C2130 1.362 . S
C2130 H2122 0.930 . S
C2130 C2129 1.362 . S
C2130 C2133 1.409 . S
C2131 H2123 0.930 . S
C2131 C2132 1.355 . S
C2131 C2133 1.415 . S
C2132 C2131 1.355 . S
C2132 C2134 1.419 . S
C2133 C2128 1.425 . S
C2133 C2130 1.409 . S
C2133 C2131 1.415 . S
C2134 H2124 0.930 . S
C2134 C2132 1.419 . S
C2134 C2135 1.362 . S
C2135 H2125 0.930 . S
C2135 C2128 1.409 . S
C2135 C2134 1.362 . S
H2136 C2142 0.930 . S
H2137 C2145 0.930 . S
H2138 C2146 0.930 . S
H2139 C2147 0.930 . S
H2140 C2150 0.930 . S
H2141 C2151 0.930 . S
C2142 H2136 0.930 . S
C2142 C2143 1.355 . S
C2142 C2144 1.415 . S
C2143 C2142 1.355 . S
C2143 C2145 1.419 . S
C2144 C2142 1.415 . S
C2144 C2149 1.425 . S
C2144 C2151 1.409 . S
C2145 H2137 0.930 . S
C2145 C2143 1.419 . S
C2145 C2146 1.362 . S
C2146 H2138 0.930 . S
C2146 C2145 1.362 . S
C2146 C2149 1.409 . S
C2147 H2139 0.930 . S
C2147 C2148 1.355 . S
C2147 C2149 1.415 . S
C2148 C2147 1.355 . S
C2148 C2150 1.419 . S
C2149 C2144 1.425 . S
C2149 C2146 1.409 . S
C2149 C2147 1.415 . S
C2150 H2140 0.930 . S
C2150 C2148 1.419 . S
C2150 C2151 1.362 . S
C2151 H2141 0.930 . S
C2151 C2144 1.409 . S
C2151 C2150 1.362 . S
H2152 C2158 0.930 . S
H2153 C2161 0.930 . S
H2154 C2162 0.930 . S
H2155 C2163 0.930 . S
H2156 C2166 0.930 . S
H2157 C2167 0.930 . S
C2158 H2152 0.930 . S
C2158 C2159 1.355 . S
C2158 C2160 1.415 . S
C2159 C2158 1.355 . S
C2159 C2161 1.419 . S
C2160 C2158 1.415 . S
C2160 C2165 1.425 . S
C2160 C2167 1.409 . S
C2161 H2153 0.930 . S
C2161 C2159 1.419 . S
C2161 C2162 1.362 . S
C2162 H2154 0.930 . S
C2162 C2161 1.362 . S
C2162 C2165 1.409 . S
C2163 H2155 0.930 . S
C2163 C2164 1.355 . S
C2163 C2165 1.415 . S
C2164 C2163 1.355 . S
C2164 C2166 1.419 . S
C2165 C2160 1.425 . S
C2165 C2162 1.409 . S
C2165 C2163 1.415 . S
C2166 H2156 0.930 . S
C2166 C2164 1.419 . S
C2166 C2167 1.362 . S
C2167 H2157 0.930 . S
C2167 C2160 1.409 . S
C2167 C2166 1.362 . S
H2168 C2174 0.930 . S
H2169 C2177 0.930 . S
H2170 C2178 0.930 . S
H2171 C2179 0.930 . S
H2172 C2182 0.930 . S
H2173 C2183 0.930 . S
C2174 H2168 0.930 . S
C2174 C2175 1.355 . S
C2174 C2176 1.415 . S
C2175 C2174 1.355 . S
C2175 C2177 1.419 . S
C2176 C2174 1.415 . S
C2176 C2181 1.425 . S
C2176 C2183 1.409 . S
C2177 H2169 0.930 . S
C2177 C2175 1.419 . S
C2177 C2178 1.362 . S
C2178 H2170 0.930 . S
C2178 C2177 1.362 . S
C2178 C2181 1.409 . S
C2179 H2171 0.930 . S
C2179 C2180 1.355 . S
C2179 C2181 1.415 . S
C2180 C2179 1.355 . S
C2180 C2182 1.419 . S
C2181 C2176 1.425 . S
C2181 C2178 1.409 . S
C2181 C2179 1.415 . S
C2182 H2172 0.930 . S
C2182 C2180 1.419 . S
C2182 C2183 1.362 . S
C2183 H2173 0.930 . S
C2183 C2176 1.409 . S
C2183 C2182 1.362 . S
H2184 C2190 0.930 . S
H2185 C2193 0.930 . S
H2186 C2194 0.930 . S
H2187 C2195 0.930 . S
H2188 C2198 0.930 . S
H2189 C2199 0.930 . S
C2190 H2184 0.930 . S
C2190 C2191 1.355 . S
C2190 C2192 1.415 . S
C2191 C2190 1.355 . S
C2191 C2193 1.419 . S
C2192 C2190 1.415 . S
C2192 C2197 1.425 . S
C2192 C2199 1.409 . S
C2193 H2185 0.930 . S
C2193 C2191 1.419 . S
C2193 C2194 1.362 . S
C2194 H2186 0.930 . S
C2194 C2193 1.362 . S
C2194 C2197 1.409 . S
C2195 H2187 0.930 . S
C2195 C2196 1.355 . S
C2195 C2197 1.415 . S
C2196 C2195 1.355 . S
C2196 C2198 1.419 . S
C2197 C2192 1.425 . S
C2197 C2194 1.409 . S
C2197 C2195 1.415 . S
C2198 H2188 0.930 . S
C2198 C2196 1.419 . S
C2198 C2199 1.362 . S
C2199 H2189 0.930 . S
C2199 C2192 1.409 . S
C2199 C2198 1.362 . S
H2200 C2206 0.930 . S
H2201 C2209 0.930 . S
H2202 C2210 0.930 . S
H2203 C2211 0.930 . S
H2204 C2214 0.930 . S
H2205 C2215 0.930 . S
C2206 H2200 0.930 . S
C2206 C2207 1.355 . S
C2206 C2208 1.415 . S
C2207 C2206 1.355 . S
C2207 C2209 1.419 . S
C2208 C2206 1.415 . S
C2208 C2213 1.425 . S
C2208 C2215 1.409 . S
C2209 H2201 0.930 . S
C2209 C2207 1.419 . S
C2209 C2210 1.362 . S
C2210 H2202 0.930 . S
C2210 C2209 1.362 . S
C2210 C2213 1.409 . S
C2211 H2203 0.930 . S
C2211 C2212 1.355 . S
C2211 C2213 1.415 . S
C2212 C2211 1.355 . S
C2212 C2214 1.419 . S
C2213 C2208 1.425 . S
C2213 C2210 1.409 . S
C2213 C2211 1.415 . S
C2214 H2204 0.930 . S
C2214 C2212 1.419 . S
C2214 C2215 1.362 . S
C2215 H2205 0.930 . S
C2215 C2208 1.409 . S
C2215 C2214 1.362 . S
H2216 C2222 0.930 . S
H2217 C2225 0.930 . S
H2218 C2226 0.930 . S
H2219 C2227 0.930 . S
H2220 C2230 0.930 . S
H2221 C2231 0.930 . S
C2222 H2216 0.930 . S
C2222 C2223 1.355 . S
C2222 C2224 1.415 . S
C2223 C2222 1.355 . S
C2223 C2225 1.419 . S
C2224 C2222 1.415 . S
C2224 C2229 1.425 . S
C2224 C2231 1.409 . S
C2225 H2217 0.930 . S
C2225 C2223 1.419 . S
C2225 C2226 1.362 . S
C2226 H2218 0.930 . S
C2226 C2225 1.362 . S
C2226 C2229 1.409 . S
C2227 H2219 0.930 . S
C2227 C2228 1.355 . S
C2227 C2229 1.415 . S
C2228 C2227 1.355 . S
C2228 C2230 1.419 . S
C2229 C2224 1.425 . S
C2229 C2226 1.409 . S
C2229 C2227 1.415 . S
C2230 H2220 0.930 . S
C2230 C2228 1.419 . S
C2230 C2231 1.362 . S
C2231 H2221 0.930 . S
C2231 C2224 1.409 . S
C2231 C2230 1.362 . S
H2232 C2238 0.930 . S
H2233 C2241 0.930 . S
H2234 C2242 0.930 . S
H2235 C2243 0.930 . S
H2236 C2246 0.930 . S
H2237 C2247 0.930 . S
C2238 H2232 0.930 . S
C2238 C2239 1.355 . S
C2238 C2240 1.415 . S
C2239 C2238 1.355 . S
C2239 C2241 1.419 . S
C2240 C2238 1.415 . S
C2240 C2245 1.425 . S
C2240 C2247 1.409 . S
C2241 H2233 0.930 . S
C2241 C2239 1.419 . S
C2241 C2242 1.362 . S
C2242 H2234 0.930 . S
C2242 C2241 1.362 . S
C2242 C2245 1.409 . S
C2243 H2235 0.930 . S
C2243 C2244 1.355 . S
C2243 C2245 1.415 . S
C2244 C2243 1.355 . S
C2244 C2246 1.419 . S
C2245 C2240 1.425 . S
C2245 C2242 1.409 . S
C2245 C2243 1.415 . S
C2246 H2236 0.930 . S
C2246 C2244 1.419 . S
C2246 C2247 1.362 . S
C2247 H2237 0.930 . S
C2247 C2240 1.409 . S
C2247 C2246 1.362 . S
H2248 C2254 0.930 . S
H2249 C2257 0.930 . S
H2250 C2258 0.930 . S
H2251 C2259 0.930 . S
H2252 C2262 0.930 . S
H2253 C2263 0.930 . S
C2254 H2248 0.930 . S
C2254 C2255 1.355 . S
C2254 C2256 1.415 . S
C2255 C2254 1.355 . S
C2255 C2257 1.419 . S
C2256 C2254 1.415 . S
C2256 C2261 1.425 . S
C2256 C2263 1.409 . S
C2257 H2249 0.930 . S
C2257 C2255 1.419 . S
C2257 C2258 1.362 . S
C2258 H2250 0.930 . S
C2258 C2257 1.362 . S
C2258 C2261 1.409 . S
C2259 H2251 0.930 . S
C2259 C2260 1.355 . S
C2259 C2261 1.415 . S
C2260 C2259 1.355 . S
C2260 C2262 1.419 . S
C2261 C2256 1.425 . S
C2261 C2258 1.409 . S
C2261 C2259 1.415 . S
C2262 H2252 0.930 . S
C2262 C2260 1.419 . S
C2262 C2263 1.362 . S
C2263 H2253 0.930 . S
C2263 C2256 1.409 . S
C2263 C2262 1.362 . S
H2264 C2270 0.930 . S
H2265 C2273 0.930 . S
H2266 C2274 0.930 . S
H2267 C2275 0.930 . S
H2268 C2278 0.930 . S
H2269 C2279 0.930 . S
C2270 H2264 0.930 . S
C2270 C2271 1.355 . S
C2270 C2272 1.415 . S
C2271 C2270 1.355 . S
C2271 C2273 1.419 . S
C2272 C2270 1.415 . S
C2272 C2277 1.425 . S
C2272 C2279 1.409 . S
C2273 H2265 0.930 . S
C2273 C2271 1.419 . S
C2273 C2274 1.362 . S
C2274 H2266 0.930 . S
C2274 C2273 1.362 . S
C2274 C2277 1.409 . S
C2275 H2267 0.930 . S
C2275 C2276 1.355 . S
C2275 C2277 1.415 . S
C2276 C2275 1.355 . S
C2276 C2278 1.419 . S
C2277 C2272 1.425 . S
C2277 C2274 1.409 . S
C2277 C2275 1.415 . S
C2278 H2268 0.930 . S
C2278 C2276 1.419 . S
C2278 C2279 1.362 . S
C2279 H2269 0.930 . S
C2279 C2272 1.409 . S
C2279 C2278 1.362 . S
H2280 C2286 0.930 . S
H2281 C2289 0.930 . S
H2282 C2290 0.930 . S
H2283 C2291 0.930 . S
H2284 C2294 0.930 . S
H2285 C2295 0.930 . S
C2286 H2280 0.930 . S
C2286 C2287 1.355 . S
C2286 C2288 1.415 . S
C2287 C2286 1.355 . S
C2287 C2289 1.419 . S
C2288 C2286 1.415 . S
C2288 C2293 1.425 . S
C2288 C2295 1.409 . S
C2289 H2281 0.930 . S
C2289 C2287 1.419 . S
C2289 C2290 1.362 . S
C2290 H2282 0.930 . S
C2290 C2289 1.362 . S
C2290 C2293 1.409 . S
C2291 H2283 0.930 . S
C2291 C2292 1.355 . S
C2291 C2293 1.415 . S
C2292 C2291 1.355 . S
C2292 C2294 1.419 . S
C2293 C2288 1.425 . S
C2293 C2290 1.409 . S
C2293 C2291 1.415 . S
C2294 H2284 0.930 . S
C2294 C2292 1.419 . S
C2294 C2295 1.362 . S
C2295 H2285 0.930 . S
C2295 C2288 1.409 . S
C2295 C2294 1.362 . S
H2296 C2302 0.930 . S
H2297 C2305 0.930 . S
H2298 C2306 0.930 . S
H2299 C2307 0.930 . S
H2300 C2310 0.930 . S
H2301 C2311 0.930 . S
C2302 H2296 0.930 . S
C2302 C2303 1.355 . S
C2302 C2304 1.415 . S
C2303 C2302 1.355 . S
C2303 C2305 1.419 . S
C2304 C2302 1.415 . S
C2304 C2309 1.425 . S
C2304 C2311 1.409 . S
C2305 H2297 0.930 . S
C2305 C2303 1.419 . S
C2305 C2306 1.362 . S
C2306 H2298 0.930 . S
C2306 C2305 1.362 . S
C2306 C2309 1.409 . S
C2307 H2299 0.930 . S
C2307 C2308 1.355 . S
C2307 C2309 1.415 . S
C2308 C2307 1.355 . S
C2308 C2310 1.419 . S
C2309 C2304 1.425 . S
C2309 C2306 1.409 . S
C2309 C2307 1.415 . S
C2310 H2300 0.930 . S
C2310 C2308 1.419 . S
C2310 C2311 1.362 . S
C2311 H2301 0.930 . S
C2311 C2304 1.409 . S
C2311 C2310 1.362 . S
H2312 C2318 0.930 . S
H2313 C2321 0.930 . S
H2314 C2322 0.930 . S
H2315 C2323 0.930 . S
H2316 C2326 0.930 . S
H2317 C2327 0.930 . S
C2318 H2312 0.930 . S
C2318 C2319 1.355 . S
C2318 C2320 1.415 . S
C2319 C2318 1.355 . S
C2319 C2321 1.419 . S
C2320 C2318 1.415 . S
C2320 C2325 1.425 . S
C2320 C2327 1.409 . S
C2321 H2313 0.930 . S
C2321 C2319 1.419 . S
C2321 C2322 1.362 . S
C2322 H2314 0.930 . S
C2322 C2321 1.362 . S
C2322 C2325 1.409 . S
C2323 H2315 0.930 . S
C2323 C2324 1.355 . S
C2323 C2325 1.415 . S
C2324 C2323 1.355 . S
C2324 C2326 1.419 . S
C2325 C2320 1.425 . S
C2325 C2322 1.409 . S
C2325 C2323 1.415 . S
C2326 H2316 0.930 . S
C2326 C2324 1.419 . S
C2326 C2327 1.362 . S
C2327 H2317 0.930 . S
C2327 C2320 1.409 . S
C2327 C2326 1.362 . S
H2328 C2334 0.930 . S
H2329 C2337 0.930 . S
H2330 C2338 0.930 . S
H2331 C2339 0.930 . S
H2332 C2342 0.930 . S
H2333 C2343 0.930 . S
C2334 H2328 0.930 . S
C2334 C2335 1.355 . S
C2334 C2336 1.415 . S
C2335 C2334 1.355 . S
C2335 C2337 1.419 . S
C2336 C2334 1.415 . S
C2336 C2341 1.425 . S
C2336 C2343 1.409 . S
C2337 H2329 0.930 . S
C2337 C2335 1.419 . S
C2337 C2338 1.362 . S
C2338 H2330 0.930 . S
C2338 C2337 1.362 . S
C2338 C2341 1.409 . S
C2339 H2331 0.930 . S
C2339 C2340 1.355 . S
C2339 C2341 1.415 . S
C2340 C2339 1.355 . S
C2340 C2342 1.419 . S
C2341 C2336 1.425 . S
C2341 C2338 1.409 . S
C2341 C2339 1.415 . S
C2342 H2332 0.930 . S
C2342 C2340 1.419 . S
C2342 C2343 1.362 . S
C2343 H2333 0.930 . S
C2343 C2336 1.409 . S
C2343 C2342 1.362 . S
H2344 C2350 0.930 . S
H2345 C2353 0.930 . S
H2346 C2354 0.930 . S
H2347 C2355 0.930 . S
H2348 C2358 0.930 . S
H2349 C2359 0.930 . S
C2350 H2344 0.930 . S
C2350 C2351 1.355 . S
C2350 C2352 1.415 . S
C2351 C2350 1.355 . S
C2351 C2353 1.419 . S
C2352 C2350 1.415 . S
C2352 C2357 1.425 . S
C2352 C2359 1.409 . S
C2353 H2345 0.930 . S
C2353 C2351 1.419 . S
C2353 C2354 1.362 . S
C2354 H2346 0.930 . S
C2354 C2353 1.362 . S
C2354 C2357 1.409 . S
C2355 H2347 0.930 . S
C2355 C2356 1.355 . S
C2355 C2357 1.415 . S
C2356 C2355 1.355 . S
C2356 C2358 1.419 . S
C2357 C2352 1.425 . S
C2357 C2354 1.409 . S
C2357 C2355 1.415 . S
C2358 H2348 0.930 . S
C2358 C2356 1.419 . S
C2358 C2359 1.362 . S
C2359 H2349 0.930 . S
C2359 C2352 1.409 . S
C2359 C2358 1.362 . S
H2360 C2366 0.930 . S
H2361 C2369 0.930 . S
H2362 C2370 0.930 . S
H2363 C2371 0.930 . S
H2364 C2374 0.930 . S
H2365 C2375 0.930 . S
C2366 H2360 0.930 . S
C2366 C2367 1.355 . S
C2366 C2368 1.415 . S
C2367 C2366 1.355 . S
C2367 C2369 1.419 . S
C2368 C2366 1.415 . S
C2368 C2373 1.425 . S
C2368 C2375 1.409 . S
C2369 H2361 0.930 . S
C2369 C2367 1.419 . S
C2369 C2370 1.362 . S
C2370 H2362 0.930 . S
C2370 C2369 1.362 . S
C2370 C2373 1.409 . S
C2371 H2363 0.930 . S
C2371 C2372 1.355 . S
C2371 C2373 1.415 . S
C2372 C2371 1.355 . S
C2372 C2374 1.419 . S
C2373 C2368 1.425 . S
C2373 C2370 1.409 . S
C2373 C2371 1.415 . S
C2374 H2364 0.930 . S
C2374 C2372 1.419 . S
C2374 C2375 1.362 . S
C2375 H2365 0.930 . S
C2375 C2368 1.409 . S
C2375 C2374 1.362 . S
H2376 C2382 0.930 . S
H2377 C2385 0.930 . S
H2378 C2386 0.930 . S
H2379 C2387 0.930 . S
H2380 C2390 0.930 . S
H2381 C2391 0.930 . S
C2382 H2376 0.930 . S
C2382 C2383 1.355 . S
C2382 C2384 1.415 . S
C2383 C2382 1.355 . S
C2383 C2385 1.419 . S
C2384 C2382 1.415 . S
C2384 C2389 1.425 . S
C2384 C2391 1.409 . S
C2385 H2377 0.930 . S
C2385 C2383 1.419 . S
C2385 C2386 1.362 . S
C2386 H2378 0.930 . S
C2386 C2385 1.362 . S
C2386 C2389 1.409 . S
C2387 H2379 0.930 . S
C2387 C2388 1.355 . S
C2387 C2389 1.415 . S
C2388 C2387 1.355 . S
C2388 C2390 1.419 . S
C2389 C2384 1.425 . S
C2389 C2386 1.409 . S
C2389 C2387 1.415 . S
C2390 H2380 0.930 . S
C2390 C2388 1.419 . S
C2390 C2391 1.362 . S
C2391 H2381 0.930 . S
C2391 C2384 1.409 . S
C2391 C2390 1.362 . S
H2392 C2398 0.930 . S
H2393 C2401 0.930 . S
H2394 C2402 0.930 . S
H2395 C2403 0.930 . S
H2396 C2406 0.930 . S
H2397 C2407 0.930 . S
C2398 H2392 0.930 . S
C2398 C2399 1.355 . S
C2398 C2400 1.415 . S
C2399 C2398 1.355 . S
C2399 C2401 1.419 . S
C2400 C2398 1.415 . S
C2400 C2405 1.425 . S
C2400 C2407 1.409 . S
C2401 H2393 0.930 . S
C2401 C2399 1.419 . S
C2401 C2402 1.362 . S
C2402 H2394 0.930 . S
C2402 C2401 1.362 . S
C2402 C2405 1.409 . S
C2403 H2395 0.930 . S
C2403 C2404 1.355 . S
C2403 C2405 1.415 . S
C2404 C2403 1.355 . S
C2404 C2406 1.419 . S
C2405 C2400 1.425 . S
C2405 C2402 1.409 . S
C2405 C2403 1.415 . S
C2406 H2396 0.930 . S
C2406 C2404 1.419 . S
C2406 C2407 1.362 . S
C2407 H2397 0.930 . S
C2407 C2400 1.409 . S
C2407 C2406 1.362 . S
H2408 C2414 0.930 . S
H2409 C2417 0.930 . S
H2410 C2418 0.930 . S
H2411 C2419 0.930 . S
H2412 C2422 0.930 . S
H2413 C2423 0.930 . S
C2414 H2408 0.930 . S
C2414 C2415 1.355 . S
C2414 C2416 1.415 . S
C2415 C2414 1.355 . S
C2415 C2417 1.419 . S
C2416 C2414 1.415 . S
C2416 C2421 1.425 . S
C2416 C2423 1.409 . S
C2417 H2409 0.930 . S
C2417 C2415 1.419 . S
C2417 C2418 1.362 . S
C2418 H2410 0.930 . S
C2418 C2417 1.362 . S
C2418 C2421 1.409 . S
C2419 H2411 0.930 . S
C2419 C2420 1.355 . S
C2419 C2421 1.415 . S
C2420 C2419 1.355 . S
C2420 C2422 1.419 . S
C2421 C2416 1.425 . S
C2421 C2418 1.409 . S
C2421 C2419 1.415 . S
C2422 H2412 0.930 . S
C2422 C2420 1.419 . S
C2422 C2423 1.362 . S
C2423 H2413 0.930 . S
C2423 C2416 1.409 . S
C2423 C2422 1.362 . S
H2424 C2430 0.930 . S
H2425 C2433 0.930 . S
H2426 C2434 0.930 . S
H2427 C2435 0.930 . S
H2428 C2438 0.930 . S
H2429 C2439 0.930 . S
C2430 H2424 0.930 . S
C2430 C2431 1.355 . S
C2430 C2432 1.415 . S
C2431 C2430 1.355 . S
C2431 C2433 1.419 . S
C2432 C2430 1.415 . S
C2432 C2437 1.425 . S
C2432 C2439 1.409 . S
C2433 H2425 0.930 . S
C2433 C2431 1.419 . S
C2433 C2434 1.362 . S
C2434 H2426 0.930 . S
C2434 C2433 1.362 . S
C2434 C2437 1.409 . S
C2435 H2427 0.930 . S
C2435 C2436 1.355 . S
C2435 C2437 1.415 . S
C2436 C2435 1.355 . S
C2436 C2438 1.419 . S
C2437 C2432 1.425 . S
C2437 C2434 1.409 . S
C2437 C2435 1.415 . S
C2438 H2428 0.930 . S
C2438 C2436 1.419 . S
C2438 C2439 1.362 . S
C2439 H2429 0.930 . S
C2439 C2432 1.409 . S
C2439 C2438 1.362 . S
C916 N364 1.849 . S
C911 C7 1.821 . S
C932 C391 1.483 . S
C927 C19 1.462 . S
C943 C29 1.806 . S
C948 C405 1.806 . S
C964 N423 1.175 . S
C959 C41 1.171 . S
C975 C52 1.530 . S
C980 C428 1.505 . S
C991 C62 1.560 . S
C996 C368 1.603 . S
C1007 C73 1.189 . S
C1012 N387 1.100 . S
C1028 N400 1.723 . S
C1023 C82 1.487 . S
C1044 N446 1.709 . S
C1039 C5 1.438 . S
C1055 C16 1.484 . S
C1060 N469 1.593 . S
C1071 C30 1.601 . S
C1076 N492 1.496 1_655 S
C1092 N525 1.197 . S
C1087 C40 1.200 . S
C1103 C49 1.375 . S
C1108 C552 1.471 . S
C1124 C575 1.519 . S
C1119 C63 1.519 . S
C1135 C74 1.170 . S
C1140 C598 1.194 . S
C1156 C612 1.556 1_565 S
C1151 C85 1.512 . S
C1167 C8 1.575 . S
C1172 C529 1.619 . S
C1183 C51 1.582 . S
C1188 N571 1.546 . S
C1204 N594 1.728 . S
C1199 C60 1.541 . S
C1215 C71 1.043 . S
C1220 N607 1.188 . S
C1236 N548 1.900 . S
C1231 C84 1.876 . S
C1252 C474 1.629 . S
C1247 C27 1.424 . S
C1263 C38 1.162 . S
C1268 C497 1.279 . S
C1284 C451 1.695 . S
C1279 C18 1.696 . S
C1300 C644 1.945 . S
C1295 C95 1.812 . S
C1311 C107 1.439 . S
C1316 C658 1.451 . S
C1327 C117 1.747 . S
C1332 N686 1.742 . S
C1348 N699 1.251 . S
C1343 C129 1.245 . S
C1359 C140 1.493 . S
C1364 C704 1.486 . S
C1375 C150 1.527 . S
C1380 N640 1.559 . S
C1391 C161 1.256 . S
C1396 N653 1.247 . S
C1407 C170 1.488 . S
C1412 C690 1.758 . S
C1428 N538 1.724 . S
C1423 C93 1.442 . S
C1439 C104 1.379 . S
C1444 N722 1.580 . S
C1460 N584 1.538 . S
C1455 C118 1.646 . S
C1471 C128 1.126 . S
C1476 C759 1.080 . S
C1487 C137 1.280 . S
C1492 C460 1.500 . S
C1508 C773 1.518 . S
C1503 C151 1.517 . S
C1519 C162 1.181 . S
C1524 C506 1.181 1_655 S
C1540 N791 1.473 . S
C1535 C173 1.503 . S
C1551 C96 1.567 . S
C1556 N755 1.560 . S
C1572 N768 1.599 . S
C1567 C139 1.606 . S
C1583 C148 1.552 . S
C1588 N502 1.591 . S
C1604 C796 1.213 . S
C1599 C159 1.114 . S
C1615 C172 1.873 . S
C1620 N456 1.900 . S
C1631 C115 1.421 . S
C1636 C727 1.545 . S
C1647 C126 1.166 . S
C1652 C589 1.365 . S
C1663 C106 1.697 . S
C1668 C543 1.748 . S
C1679 C183 1.865 . S
C1684 C681 1.992 . S
C1700 C713 1.382 . S
C1695 C195 1.390 . S
C1711 C205 1.750 . S
C1716 N630 1.735 . S
C1727 C217 1.161 . S
C1732 N663 1.107 . S
C1743 C228 1.565 . S
C1748 C667 1.523 . S
C1759 C238 1.587 . S
C1764 N676 1.633 . S
C1780 N709 1.087 . S
C1775 C249 1.142 . S
C1791 C258 1.528 . S
C1796 C635 1.831 . S
C1812 N824 1.749 . S
C1807 C181 1.564 . S
C1823 C192 1.352 . S
C1828 N561 1.551 . S
C1844 N847 1.483 . S
C1839 C206 1.510 . S
C1855 C216 1.167 . S
C1860 N617 1.154 . S
C1871 C225 1.300 . S
C1876 C865 1.514 . S
C1887 C239 1.594 . S
C1892 C483 1.563 . S
C1908 N883 1.139 . S
C1903 C250 1.120 . S
C1919 C261 1.591 . S
C1924 C520 1.617 . S
C1940 C621 1.641 . S
C1935 C184 1.609 . S
C1956 N479 1.621 . S
C1951 C227 1.595 . S
C1967 C236 1.687 . S
C1972 C888 1.806 . S
C1983 C247 0.927 . S
C1988 N515 1.157 . S
C2004 N860 1.994 . S
C1999 C260 1.919 . S
C2020 C566 1.497 . S
C2015 C203 1.414 . S
C2036 C851 1.389 . S
C2031 C214 1.157 . S
C2052 C828 1.688 . S
C2047 C194 1.632 . S
C2063 C271 1.712 . S
C2068 N410 1.758 . S
C2079 C283 1.388 . S
C2084 C437 1.414 . S
C2100 C359 1.867 . S
C2095 C293 1.879 . S
C2116 N377 1.165 . S
C2111 C305 1.146 . S
C2132 C382 1.509 . S
C2127 C316 1.540 . S
C2148 C414 1.579 1_556 S
C2143 C326 1.573 . S
C2164 N433 1.240 . S
C2159 C337 1.270 . S
C2175 C346 1.507 . S
C2180 N354 1.748 1_556 S
C2191 C269 1.374 . S
C2196 N870 1.637 . S
C2212 N778 1.588 . S
C2207 C280 1.356 . S
C2228 C897 1.724 . S
C2223 C294 1.746 . S
C2244 C805 1.041 . S
C2239 C304 1.014 . S
C2255 C313 1.332 . S
C2260 C819 1.500 . S
C2276 C736 1.471 . S
C2271 C327 1.517 . S
C2292 C842 1.334 . S
C2287 C338 1.316 . S
C2303 C349 1.525 . S
C2308 N745 1.535 . S
C2324 N801 1.510 . S
C2319 C272 1.516 . S
C2340 N732 1.554 . S
C2335 C315 1.516 . S
C2356 N837 1.583 . S
C2351 C324 1.441 . S
C2367 C335 1.144 . S
C2372 C750 1.249 . S
C2383 C348 1.851 . S
C2388 N814 1.910 . S
C2399 C291 1.443 . S
C2404 C782 1.646 . S
C2415 C302 1.194 . S
C2420 N893 1.277 . S
C2436 C874 1.662 . S
C2431 C282 1.669 . S
