# Generated by pormake.
# Topology gar, (4,6)-cn, num edge types: 1
# Building blocks:
#     Node 0, Type 0, BuildingBlock: CEKHIL_clean_sbu_0, # of connection points: 4
#     Node 1, Type 0, BuildingBlock: CEKHIL_clean_sbu_0, # of connection points: 4
#     Node 2, Type 0, BuildingBlock: CEKHIL_clean_sbu_0, # of connection points: 4
#     Node 3, Type 0, BuildingBlock: CEKHIL_clean_sbu_0, # of connection points: 4
#     Node 4, Type 0, BuildingBlock: CEKHIL_clean_sbu_0, # of connection points: 4
#     Node 5, Type 0, BuildingBlock: CEKHIL_clean_sbu_0, # of connection points: 4
#     Node 6, Type 0, BuildingBlock: CEKHIL_clean_sbu_0, # of connection points: 4
#     Node 7, Type 0, BuildingBlock: CEKHIL_clean_sbu_0, # of connection points: 4
#     Node 8, Type 0, BuildingBlock: CEKHIL_clean_sbu_0, # of connection points: 4
#     Node 9, Type 0, BuildingBlock: CEKHIL_clean_sbu_0, # of connection points: 4
#     Node 10, Type 0, BuildingBlock: CEKHIL_clean_sbu_0, # of connection points: 4
#     Node 11, Type 0, BuildingBlock: CEKHIL_clean_sbu_0, # of connection points: 4
#     Node 12, Type 0, BuildingBlock: CEKHIL_clean_sbu_0, # of connection points: 4
#     Node 13, Type 0, BuildingBlock: CEKHIL_clean_sbu_0, # of connection points: 4
#     Node 14, Type 0, BuildingBlock: CEKHIL_clean_sbu_0, # of connection points: 4
#     Node 15, Type 0, BuildingBlock: CEKHIL_clean_sbu_0, # of connection points: 4
#     Node 16, Type 0, BuildingBlock: CEKHIL_clean_sbu_0, # of connection points: 4
#     Node 17, Type 0, BuildingBlock: CEKHIL_clean_sbu_0, # of connection points: 4
#     Node 18, Type 0, BuildingBlock: CEKHIL_clean_sbu_0, # of connection points: 4
#     Node 19, Type 0, BuildingBlock: CEKHIL_clean_sbu_0, # of connection points: 4
#     Node 20, Type 0, BuildingBlock: CEKHIL_clean_sbu_0, # of connection points: 4
#     Node 21, Type 0, BuildingBlock: CEKHIL_clean_sbu_0, # of connection points: 4
#     Node 22, Type 0, BuildingBlock: CEKHIL_clean_sbu_0, # of connection points: 4
#     Node 23, Type 0, BuildingBlock: CEKHIL_clean_sbu_0, # of connection points: 4
#     Node 24, Type 1, BuildingBlock: KUMJIN_clean_sbu_1, # of connection points: 6
#     Node 25, Type 1, BuildingBlock: KUMJIN_clean_sbu_1, # of connection points: 6
#     Node 26, Type 1, BuildingBlock: KUMJIN_clean_sbu_1, # of connection points: 6
#     Node 27, Type 1, BuildingBlock: KUMJIN_clean_sbu_1, # of connection points: 6
#     Node 28, Type 1, BuildingBlock: KUMJIN_clean_sbu_1, # of connection points: 6
#     Node 29, Type 1, BuildingBlock: KUMJIN_clean_sbu_1, # of connection points: 6
#     Node 30, Type 1, BuildingBlock: KUMJIN_clean_sbu_1, # of connection points: 6
#     Node 31, Type 1, BuildingBlock: KUMJIN_clean_sbu_1, # of connection points: 6
#     Node 32, Type 1, BuildingBlock: KUMJIN_clean_sbu_1, # of connection points: 6
#     Node 33, Type 1, BuildingBlock: KUMJIN_clean_sbu_1, # of connection points: 6
#     Node 34, Type 1, BuildingBlock: KUMJIN_clean_sbu_1, # of connection points: 6
#     Node 35, Type 1, BuildingBlock: KUMJIN_clean_sbu_1, # of connection points: 6
#     Node 36, Type 1, BuildingBlock: KUMJIN_clean_sbu_1, # of connection points: 6
#     Node 37, Type 1, BuildingBlock: KUMJIN_clean_sbu_1, # of connection points: 6
#     Node 38, Type 1, BuildingBlock: KUMJIN_clean_sbu_1, # of connection points: 6
#     Node 39, Type 1, BuildingBlock: KUMJIN_clean_sbu_1, # of connection points: 6
#     Edge 40, Type (0, 1), BuildingBlock: MIFKUJ_clean_linker_0, # of connection points: 2
#     Edge 41, Type (0, 1), BuildingBlock: MIFKUJ_clean_linker_0, # of connection points: 2
#     Edge 42, Type (0, 1), BuildingBlock: MIFKUJ_clean_linker_0, # of connection points: 2
#     Edge 43, Type (0, 1), BuildingBlock: MIFKUJ_clean_linker_0, # of connection points: 2
#     Edge 44, Type (0, 1), BuildingBlock: MIFKUJ_clean_linker_0, # of connection points: 2
#     Edge 45, Type (0, 1), BuildingBlock: MIFKUJ_clean_linker_0, # of connection points: 2
#     Edge 46, Type (0, 1), BuildingBlock: MIFKUJ_clean_linker_0, # of connection points: 2
#     Edge 47, Type (0, 1), BuildingBlock: MIFKUJ_clean_linker_0, # of connection points: 2
#     Edge 48, Type (0, 1), BuildingBlock: MIFKUJ_clean_linker_0, # of connection points: 2
#     Edge 49, Type (0, 1), BuildingBlock: MIFKUJ_clean_linker_0, # of connection points: 2
#     Edge 50, Type (0, 1), BuildingBlock: MIFKUJ_clean_linker_0, # of connection points: 2
#     Edge 51, Type (0, 1), BuildingBlock: MIFKUJ_clean_linker_0, # of connection points: 2
#     Edge 52, Type (0, 1), BuildingBlock: MIFKUJ_clean_linker_0, # of connection points: 2
#     Edge 53, Type (0, 1), BuildingBlock: MIFKUJ_clean_linker_0, # of connection points: 2
#     Edge 54, Type (0, 1), BuildingBlock: MIFKUJ_clean_linker_0, # of connection points: 2
#     Edge 55, Type (0, 1), BuildingBlock: MIFKUJ_clean_linker_0, # of connection points: 2
#     Edge 56, Type (0, 1), BuildingBlock: MIFKUJ_clean_linker_0, # of connection points: 2
#     Edge 57, Type (0, 1), BuildingBlock: MIFKUJ_clean_linker_0, # of connection points: 2
#     Edge 58, Type (0, 1), BuildingBlock: MIFKUJ_clean_linker_0, # of connection points: 2
#     Edge 59, Type (0, 1), BuildingBlock: MIFKUJ_clean_linker_0, # of connection points: 2
#     Edge 60, Type (0, 1), BuildingBlock: MIFKUJ_clean_linker_0, # of connection points: 2
#     Edge 61, Type (0, 1), BuildingBlock: MIFKUJ_clean_linker_0, # of connection points: 2
#     Edge 62, Type (0, 1), BuildingBlock: MIFKUJ_clean_linker_0, # of connection points: 2
#     Edge 63, Type (0, 1), BuildingBlock: MIFKUJ_clean_linker_0, # of connection points: 2
#     Edge 64, Type (0, 1), BuildingBlock: MIFKUJ_clean_linker_0, # of connection points: 2
#     Edge 65, Type (0, 1), BuildingBlock: MIFKUJ_clean_linker_0, # of connection points: 2
#     Edge 66, Type (0, 1), BuildingBlock: MIFKUJ_clean_linker_0, # of connection points: 2
#     Edge 67, Type (0, 1), BuildingBlock: MIFKUJ_clean_linker_0, # of connection points: 2
#     Edge 68, Type (0, 1), BuildingBlock: MIFKUJ_clean_linker_0, # of connection points: 2
#     Edge 69, Type (0, 1), BuildingBlock: MIFKUJ_clean_linker_0, # of connection points: 2
#     Edge 70, Type (0, 1), BuildingBlock: MIFKUJ_clean_linker_0, # of connection points: 2
#     Edge 71, Type (0, 1), BuildingBlock: MIFKUJ_clean_linker_0, # of connection points: 2
#     Edge 72, Type (0, 1), BuildingBlock: MIFKUJ_clean_linker_0, # of connection points: 2
#     Edge 73, Type (0, 1), BuildingBlock: MIFKUJ_clean_linker_0, # of connection points: 2
#     Edge 74, Type (0, 1), BuildingBlock: MIFKUJ_clean_linker_0, # of connection points: 2
#     Edge 75, Type (0, 1), BuildingBlock: MIFKUJ_clean_linker_0, # of connection points: 2
#     Edge 76, Type (0, 1), BuildingBlock: MIFKUJ_clean_linker_0, # of connection points: 2
#     Edge 77, Type (0, 1), BuildingBlock: MIFKUJ_clean_linker_0, # of connection points: 2
#     Edge 78, Type (0, 1), BuildingBlock: MIFKUJ_clean_linker_0, # of connection points: 2
#     Edge 79, Type (0, 1), BuildingBlock: MIFKUJ_clean_linker_0, # of connection points: 2
#     Edge 80, Type (0, 1), BuildingBlock: MIFKUJ_clean_linker_0, # of connection points: 2
#     Edge 81, Type (0, 1), BuildingBlock: MIFKUJ_clean_linker_0, # of connection points: 2
#     Edge 82, Type (0, 1), BuildingBlock: MIFKUJ_clean_linker_0, # of connection points: 2
#     Edge 83, Type (0, 1), BuildingBlock: MIFKUJ_clean_linker_0, # of connection points: 2
#     Edge 84, Type (0, 1), BuildingBlock: MIFKUJ_clean_linker_0, # of connection points: 2
#     Edge 85, Type (0, 1), BuildingBlock: MIFKUJ_clean_linker_0, # of connection points: 2
#     Edge 86, Type (0, 1), BuildingBlock: MIFKUJ_clean_linker_0, # of connection points: 2
#     Edge 87, Type (0, 1), BuildingBlock: MIFKUJ_clean_linker_0, # of connection points: 2
#     Edge 88, Type (0, 1), BuildingBlock: MIFKUJ_clean_linker_0, # of connection points: 2
#     Edge 89, Type (0, 1), BuildingBlock: MIFKUJ_clean_linker_0, # of connection points: 2
#     Edge 90, Type (0, 1), BuildingBlock: MIFKUJ_clean_linker_0, # of connection points: 2
#     Edge 91, Type (0, 1), BuildingBlock: MIFKUJ_clean_linker_0, # of connection points: 2
#     Edge 92, Type (0, 1), BuildingBlock: MIFKUJ_clean_linker_0, # of connection points: 2
#     Edge 93, Type (0, 1), BuildingBlock: MIFKUJ_clean_linker_0, # of connection points: 2
#     Edge 94, Type (0, 1), BuildingBlock: MIFKUJ_clean_linker_0, # of connection points: 2
#     Edge 95, Type (0, 1), BuildingBlock: MIFKUJ_clean_linker_0, # of connection points: 2
#     Edge 96, Type (0, 1), BuildingBlock: MIFKUJ_clean_linker_0, # of connection points: 2
#     Edge 97, Type (0, 1), BuildingBlock: MIFKUJ_clean_linker_0, # of connection points: 2
#     Edge 98, Type (0, 1), BuildingBlock: MIFKUJ_clean_linker_0, # of connection points: 2
#     Edge 99, Type (0, 1), BuildingBlock: MIFKUJ_clean_linker_0, # of connection points: 2
#     Edge 100, Type (0, 1), BuildingBlock: MIFKUJ_clean_linker_0, # of connection points: 2
#     Edge 101, Type (0, 1), BuildingBlock: MIFKUJ_clean_linker_0, # of connection points: 2
#     Edge 102, Type (0, 1), BuildingBlock: MIFKUJ_clean_linker_0, # of connection points: 2
#     Edge 103, Type (0, 1), BuildingBlock: MIFKUJ_clean_linker_0, # of connection points: 2
#     Edge 104, Type (0, 1), BuildingBlock: MIFKUJ_clean_linker_0, # of connection points: 2
#     Edge 105, Type (0, 1), BuildingBlock: MIFKUJ_clean_linker_0, # of connection points: 2
#     Edge 106, Type (0, 1), BuildingBlock: MIFKUJ_clean_linker_0, # of connection points: 2
#     Edge 107, Type (0, 1), BuildingBlock: MIFKUJ_clean_linker_0, # of connection points: 2
#     Edge 108, Type (0, 1), BuildingBlock: MIFKUJ_clean_linker_0, # of connection points: 2
#     Edge 109, Type (0, 1), BuildingBlock: MIFKUJ_clean_linker_0, # of connection points: 2
#     Edge 110, Type (0, 1), BuildingBlock: MIFKUJ_clean_linker_0, # of connection points: 2
#     Edge 111, Type (0, 1), BuildingBlock: MIFKUJ_clean_linker_0, # of connection points: 2
#     Edge 112, Type (0, 1), BuildingBlock: MIFKUJ_clean_linker_0, # of connection points: 2
#     Edge 113, Type (0, 1), BuildingBlock: MIFKUJ_clean_linker_0, # of connection points: 2
#     Edge 114, Type (0, 1), BuildingBlock: MIFKUJ_clean_linker_0, # of connection points: 2
#     Edge 115, Type (0, 1), BuildingBlock: MIFKUJ_clean_linker_0, # of connection points: 2
#     Edge 116, Type (0, 1), BuildingBlock: MIFKUJ_clean_linker_0, # of connection points: 2
#     Edge 117, Type (0, 1), BuildingBlock: MIFKUJ_clean_linker_0, # of connection points: 2
#     Edge 118, Type (0, 1), BuildingBlock: MIFKUJ_clean_linker_0, # of connection points: 2
#     Edge 119, Type (0, 1), BuildingBlock: MIFKUJ_clean_linker_0, # of connection points: 2
#     Edge 120, Type (0, 1), BuildingBlock: MIFKUJ_clean_linker_0, # of connection points: 2
#     Edge 121, Type (0, 1), BuildingBlock: MIFKUJ_clean_linker_0, # of connection points: 2
#     Edge 122, Type (0, 1), BuildingBlock: MIFKUJ_clean_linker_0, # of connection points: 2
#     Edge 123, Type (0, 1), BuildingBlock: MIFKUJ_clean_linker_0, # of connection points: 2
#     Edge 124, Type (0, 1), BuildingBlock: MIFKUJ_clean_linker_0, # of connection points: 2
#     Edge 125, Type (0, 1), BuildingBlock: MIFKUJ_clean_linker_0, # of connection points: 2
#     Edge 126, Type (0, 1), BuildingBlock: MIFKUJ_clean_linker_0, # of connection points: 2
#     Edge 127, Type (0, 1), BuildingBlock: MIFKUJ_clean_linker_0, # of connection points: 2
#     Edge 128, Type (0, 1), BuildingBlock: MIFKUJ_clean_linker_0, # of connection points: 2
#     Edge 129, Type (0, 1), BuildingBlock: MIFKUJ_clean_linker_0, # of connection points: 2
#     Edge 130, Type (0, 1), BuildingBlock: MIFKUJ_clean_linker_0, # of connection points: 2
#     Edge 131, Type (0, 1), BuildingBlock: MIFKUJ_clean_linker_0, # of connection points: 2
#     Edge 132, Type (0, 1), BuildingBlock: MIFKUJ_clean_linker_0, # of connection points: 2
#     Edge 133, Type (0, 1), BuildingBlock: MIFKUJ_clean_linker_0, # of connection points: 2
#     Edge 134, Type (0, 1), BuildingBlock: MIFKUJ_clean_linker_0, # of connection points: 2
#     Edge 135, Type (0, 1), BuildingBlock: MIFKUJ_clean_linker_0, # of connection points: 2
# Relax obj value: 0.055
# Max RMSD: 0.172
# Mean RMSD: 0.104
data_MOF--net-gar--node1-CEKHIL_clean_sbu_0--node2-KUMJIN_clean_sbu_1--edge1-MIFKUJ_clean_linker_0
_symmetry_space_group_name_H-M    P1
_symmetry_Int_Tables_number       1
_symmetry_cell_setting            triclinic
loop_
_symmetry_equiv_pos_as_xyz
'x, y, z'
_cell_length_a     76.859377
_cell_length_b     76.049094
_cell_length_c     71.103446
_cell_angle_alpha  95.52757
_cell_angle_beta   95.651502
_cell_angle_gamma 100.28504
loop_
_atom_site_label
_atom_site_type_symbol
_atom_site_fract_x
_atom_site_fract_y
_atom_site_fract_z
_atom_type_partial_charge
Co0 Co 0.04844 0.30885 0.36358 0.0
O1 O 0.07465 0.31113 0.36793 0.0
O2 O 0.05921 0.30051 0.34066 0.0
C3 C 0.04755 0.33716 0.37871 0.0
O4 O 0.02089 0.30491 0.35321 0.0
Co5 Co 0.02604 0.31068 0.39794 0.0
O6 O 1.00561 0.30927 0.37825 0.0
C7 C 0.04207 0.27879 0.38918 0.0
C8 C 0.07492 0.30456 0.35047 0.0
C9 C 1.00595 0.3058 0.3604 0.0
O10 O 0.04528 0.2837 0.37268 0.0
O11 O 0.03639 0.28875 0.40182 0.0
O12 O 0.05128 0.33522 0.36126 0.0
O13 O 0.04594 0.32254 0.38658 0.0
Co14 Co 0.01442 0.75787 0.6847 0.0
O15 O 0.9884 0.75637 0.67928 0.0
O16 O 1.00107 0.7525 0.70688 0.0
C17 C 0.02102 0.78452 0.67179 0.0
O18 O 0.04135 0.75939 0.69621 0.0
Co19 Co 0.03947 0.75955 0.65276 0.0
O20 O 0.05915 0.76686 0.67366 0.0
C21 C 0.01674 0.72465 0.65746 0.0
C22 C 0.98641 0.75397 0.69677 0.0
C23 C 0.05716 0.76404 0.69075 0.0
O24 O 0.0123 0.7312 0.67356 0.0
O25 O 0.0259 0.7343 0.64678 0.0
O26 O 0.0172 0.78438 0.68916 0.0
O27 O 0.02014 0.76885 0.66274 0.0
Co28 Co 0.54736 0.80874 0.86382 0.0
O29 O 0.57362 0.81134 0.86781 0.0
O30 O 0.55782 0.79941 0.8411 0.0
C31 C 0.54683 0.83751 0.87794 0.0
O32 O 0.51975 0.80435 0.85356 0.0
Co33 Co 0.52481 0.81258 0.89761 0.0
O34 O 0.5044 0.81086 0.87792 0.0
C35 C 0.54006 0.77964 0.89044 0.0
C36 C 0.57365 0.80401 0.85059 0.0
C37 C 0.50482 0.80609 0.86032 0.0
O38 O 0.54449 0.7841 0.87415 0.0
O39 O 0.53371 0.79005 0.90205 0.0
O40 O 0.54983 0.83484 0.86029 0.0
O41 O 0.54532 0.82332 0.88648 0.0
Co42 Co 0.51549 0.25807 0.18478 0.0
O43 O 0.48938 0.25654 0.18023 0.0
O44 O 0.50273 0.25204 0.20723 0.0
C45 C 0.52114 0.28511 0.17228 0.0
O46 O 0.54283 0.25965 0.19522 0.0
Co47 Co 0.53909 0.26123 0.15154 0.0
O48 O 0.5593 0.26759 0.17179 0.0
C49 C 0.5174 0.22565 0.15622 0.0
C50 C 0.48783 0.25358 0.19763 0.0
C51 C 0.55829 0.2644 0.18895 0.0
O52 O 0.51327 0.23157 0.17274 0.0
O53 O 0.52604 0.23592 0.14567 0.0
O54 O 0.51825 0.28467 0.18992 0.0
O55 O 0.5201 0.26958 0.16297 0.0
Co56 Co 0.05229 0.79358 0.11625 0.0
O57 O 0.02633 0.7909 0.11252 0.0
O58 O 0.04178 0.78728 0.13906 0.0
C59 C 0.05693 0.82132 0.10331 0.0
O60 O 0.07851 0.79593 0.12819 0.0
Co61 Co 0.07551 0.79308 0.08669 0.0
O62 O 0.0965 0.79385 0.10576 0.0
C63 C 0.05529 0.75807 0.09179 0.0
C64 C 0.02634 0.78767 0.13013 0.0
C65 C 0.09406 0.79515 0.1232 0.0
O66 O 0.05055 0.76634 0.10674 0.0
O67 O 0.06429 0.76685 0.0804 0.0
O68 O 0.05452 0.81994 0.12093 0.0
O69 O 0.05633 0.80584 0.09333 0.0
Co70 Co 0.51184 0.77111 0.4313 0.0
O71 O 0.53782 0.77506 0.43539 0.0
O72 O 0.52158 0.76357 0.40831 0.0
C73 C 0.5098 0.79966 0.44503 0.0
O74 O 0.4853 0.76631 0.41937 0.0
Co75 Co 0.4881 0.7692 0.46123 0.0
O76 O 0.46863 0.77244 0.44213 0.0
C77 C 0.5042 0.7375 0.45381 0.0
C78 C 0.53733 0.76892 0.4176 0.0
C79 C 0.47028 0.76916 0.42461 0.0
O80 O 0.51071 0.74549 0.44 0.0
O81 O 0.49478 0.74505 0.46477 0.0
O82 O 0.51308 0.79648 0.42764 0.0
O83 O 0.50879 0.78571 0.45452 0.0
Co84 Co 0.55165 0.2937 0.61583 0.0
O85 O 0.52569 0.29058 0.61152 0.0
O86 O 0.54087 0.28708 0.63837 0.0
C87 C 0.55637 0.32175 0.60364 0.0
O88 O 0.5778 0.29607 0.62788 0.0
Co89 Co 0.57568 0.29465 0.58637 0.0
O90 O 0.59664 0.29924 0.60609 0.0
C91 C 0.55596 0.25889 0.59126 0.0
C92 C 0.52554 0.28729 0.62909 0.0
C93 C 0.59382 0.29818 0.62328 0.0
O94 O 0.55036 0.26677 0.60588 0.0
O95 O 0.56541 0.26807 0.58046 0.0
O96 O 0.55336 0.31991 0.621 0.0
O97 O 0.55613 0.3065 0.59339 0.0
Co98 Co 0.0117 0.27201 0.93073 0.0
O99 O 0.03774 0.27589 0.93458 0.0
O100 O 0.02126 0.2648 0.90752 0.0
C101 C 0.00961 0.30044 0.94483 0.0
O102 O 0.98511 0.26725 0.91903 0.0
Co103 Co 0.9882 0.26989 0.96107 0.0
O104 O 0.96851 0.27291 0.94202 0.0
C105 C 1.0049 0.23858 0.95352 0.0
C106 C 0.03708 0.27004 0.91668 0.0
C107 C 0.97009 0.26984 0.92443 0.0
O108 O 0.01058 0.24628 0.93916 0.0
O109 O 0.99602 0.24629 0.965 0.0
O110 O 0.01284 0.29745 0.92738 0.0
O111 O 0.00875 0.28637 0.95411 0.0
Co112 Co 0.38647 0.02301 0.30171 0.0
O113 O 0.39093 0.0484 0.30192 0.0
O114 O 0.36496 0.02971 0.29217 0.0
C115 C 0.39973 0.02271 0.33068 0.0
O116 O 0.37678 0.99661 0.29987 0.0
Co117 Co 0.41697 1.00117 0.30561 0.0
O118 O 0.39776 0.98223 0.31159 0.0
C119 C 0.40676 0.01441 0.26913 0.0
C120 C 0.3742 0.04598 0.29524 0.0
C121 C 0.38167 0.98271 0.3058 0.0
O122 O 0.39368 0.02034 0.27559 0.0
O123 O 0.41788 0.00722 0.27892 0.0
O124 O 0.3835 0.0255 0.32852 0.0
O125 O 0.40778 0.02177 0.31562 0.0
Co126 Co 0.27151 0.16605 0.50646 0.0
O127 O 0.29722 0.17046 0.50861 0.0
O128 O 0.28016 0.1453 0.51431 0.0
C129 C 0.26861 0.17695 0.47776 0.0
O130 O 0.24497 0.1552 0.50495 0.0
Co131 Co 0.24891 0.19514 0.50397 0.0
O132 O 0.22765 0.17571 0.50134 0.0
C133 C 0.26642 0.19023 0.54158 0.0
C134 C 0.29602 0.15416 0.51311 0.0
C135 C 0.22958 0.15965 0.50291 0.0
O136 O 0.27219 0.17655 0.53409 0.0
O137 O 0.2578 0.19982 0.53177 0.0
O138 O 0.2706 0.16046 0.47887 0.0
O139 O 0.26884 0.18651 0.49388 0.0
Co140 Co 0.1411 0.03692 0.79092 0.0
O141 O 0.13588 0.01084 0.78842 0.0
O142 O 0.16114 0.02744 0.7827 0.0
C143 C 0.13094 0.04003 0.82001 0.0
O144 O 0.15278 0.06346 0.7923 0.0
Co145 Co 0.11447 0.06173 0.79519 0.0
O146 O 0.13511 0.08178 0.80258 0.0
C147 C 0.11673 0.04333 0.75681 0.0
C148 C 0.15191 0.01162 0.78379 0.0
C149 C 0.1501 0.07921 0.798 0.0
O150 O 0.13026 0.03695 0.76352 0.0
O151 O 0.10822 0.05247 0.76744 0.0
O152 O 0.14699 0.03738 0.8185 0.0
O153 O 0.12131 0.04034 0.80413 0.0
Co154 Co 0.29086 0.92621 0.99756 0.0
O155 O 0.26598 0.92317 0.9979 0.0
O156 O 0.28559 0.9487 0.00737 0.0
C157 C 0.28919 0.91239 0.9686 0.0
O158 O 0.31724 0.93384 0.99848 0.0
Co159 Co 0.30843 0.89229 0.99286 0.0
O160 O 0.32949 0.91025 0.98897 0.0
C161 C 0.29333 0.90254 0.02793 0.0
C162 C 0.26915 0.94006 0.00451 0.0
C163 C 0.33045 0.92704 0.99362 0.0
O164 O 0.29338 0.91846 0.02347 0.0
O165 O 0.29689 0.88973 0.01681 0.0
O166 O 0.28823 0.92934 0.97067 0.0
O167 O 0.28988 0.90443 0.98373 0.0
Co168 Co 0.2916 0.38962 0.03182 0.0
O169 O 0.26588 0.38439 0.02962 0.0
O170 O 0.28276 0.41052 0.04157 0.0
C171 C 0.29344 0.37736 0.00173 0.0
O172 O 0.31809 0.40119 0.03523 0.0
Co173 Co 0.31454 0.36051 0.0287 0.0
O174 O 0.33514 0.38053 0.02988 0.0
C175 C 0.29635 0.36547 0.06298 0.0
C176 C 0.26688 0.401 0.03666 0.0
C177 C 0.33332 0.39676 0.0335 0.0
O178 O 0.29292 0.38051 0.05798 0.0
O179 O 0.30339 0.35489 0.05228 0.0
O180 O 0.2904 0.39359 0.00494 0.0
O181 O 0.29421 0.3687 0.01648 0.0
Co182 Co 0.77615 0.12946 0.04033 0.0
O183 O 0.8013 0.13386 0.04733 0.0
O184 O 0.78245 0.1081 0.04855 0.0
C185 C 0.77701 0.14135 0.01298 0.0
O186 O 0.74993 0.11979 0.03414 0.0
Co187 Co 0.75482 0.16011 0.03441 0.0
O188 O 0.73577 0.14027 0.02197 0.0
C189 C 0.76535 0.15123 0.07312 0.0
C190 C 0.79867 0.11716 0.05074 0.0
C191 C 0.73613 0.12439 0.02596 0.0
O192 O 0.77245 0.13823 0.06667 0.0
O193 O 0.75857 0.16172 0.06275 0.0
O194 O 0.77953 0.12498 0.01367 0.0
O195 O 0.77552 0.15034 0.02888 0.0
Co196 Co 0.17724 0.53452 0.25825 0.0
O197 O 0.17307 0.50919 0.25272 0.0
O198 O 0.19773 0.52801 0.24826 0.0
C199 C 0.16788 0.53491 0.28665 0.0
O200 O 0.18581 0.5612 0.26262 0.0
Co201 Co 0.14475 0.55332 0.26375 0.0
O202 O 0.1634 0.5754 0.26907 0.0
C203 C 0.15024 0.53682 0.2263 0.0
C204 C 0.18886 0.51161 0.24727 0.0
C205 C 0.17967 0.57548 0.26686 0.0
O206 O 0.16639 0.53649 0.23227 0.0
O207 O 0.13881 0.54091 0.23706 0.0
O208 O 0.18402 0.53266 0.28496 0.0
O209 O 0.15766 0.53505 0.2712 0.0
Co210 Co 0.79049 0.88892 0.53067 0.0
O211 O 0.7647 0.8839 0.52942 0.0
O212 O 0.78211 0.9103 0.53943 0.0
C213 C 0.79153 0.87531 0.50085 0.0
O214 O 0.81689 0.90074 0.53317 0.0
Co215 Co 0.81417 0.86063 0.52827 0.0
O216 O 0.83431 0.88063 0.52724 0.0
C217 C 0.79838 0.86767 0.56393 0.0
C218 C 0.76614 0.90085 0.53546 0.0
C219 C 0.83216 0.89674 0.5308 0.0
O220 O 0.79251 0.88108 0.55742 0.0
O221 O 0.80642 0.85739 0.55404 0.0
O222 O 0.78857 0.8916 0.50349 0.0
O223 O 0.79289 0.86734 0.51607 0.0
Co224 Co 0.92233 0.02051 0.26539 0.0
O225 O 0.92619 0.0465 0.26705 0.0
O226 O 0.90065 0.02805 0.25651 0.0
C227 C 0.93568 0.01954 0.29512 0.0
O228 O 0.912 0.99357 0.26246 0.0
Co229 Co 0.95196 0.99845 0.2682 0.0
O230 O 0.93293 0.97767 0.27033 0.0
C231 C 0.94393 0.01399 0.23241 0.0
C232 C 0.90939 0.04443 0.26083 0.0
C233 C 0.91672 0.97869 0.2659 0.0
O234 O 0.93034 0.0193 0.23882 0.0
O235 O 0.95459 0.00644 0.24241 0.0
O236 O 0.91923 0.02153 0.29241 0.0
O237 O 0.9439 0.01914 0.28011 0.0
Co238 Co 0.27499 0.62997 0.53893 0.0
O239 O 0.30001 0.6335 0.54571 0.0
O240 O 0.28051 0.60836 0.5476 0.0
C241 C 0.27596 0.64123 0.51131 0.0
O242 O 0.2485 0.6216 0.53293 0.0
Co243 Co 0.25649 0.66298 0.53392 0.0
O244 O 0.23526 0.64429 0.52473 0.0
C245 C 0.26688 0.65349 0.57216 0.0
C246 C 0.2969 0.61704 0.54981 0.0
C247 C 0.23476 0.62783 0.52704 0.0
O248 O 0.27207 0.63939 0.5653 0.0
O249 O 0.26131 0.66494 0.5622 0.0
O250 O 0.27791 0.62471 0.51223 0.0
O251 O 0.27534 0.65074 0.52717 0.0
Co252 Co 0.42216 0.51965 0.76531 0.0
O253 O 0.42659 0.54568 0.7669 0.0
O254 O 0.40067 0.52772 0.75672 0.0
C255 C 0.43576 0.51857 0.795 0.0
O256 O 0.41127 0.49274 0.76254 0.0
Co257 Co 0.45132 0.497 0.76752 0.0
O258 O 0.43207 0.47606 0.76825 0.0
C259 C 0.44324 0.5127 0.73193 0.0
C260 C 0.4098 0.54395 0.76083 0.0
C261 C 0.41588 0.47752 0.76473 0.0
O262 O 0.42983 0.5182 0.73857 0.0
O263 O 0.45386 0.50495 0.74171 0.0
O264 O 0.41943 0.52098 0.79243 0.0
O265 O 0.44373 0.51783 0.77981 0.0
Co266 Co 0.67796 0.03532 0.75584 0.0
O267 O 0.67436 0.01001 0.75202 0.0
O268 O 0.69965 0.0287 0.74922 0.0
C269 C 0.66544 0.03653 0.78254 0.0
O270 O 0.68592 0.062 0.7592 0.0
Co271 Co 0.64468 0.05378 0.75633 0.0
O272 O 0.66297 0.07574 0.76459 0.0
C273 C 0.65405 0.03626 0.72091 0.0
C274 C 0.6908 0.01231 0.74854 0.0
C275 C 0.67945 0.07608 0.76331 0.0
O276 O 0.66962 0.03575 0.72864 0.0
O277 O 0.64169 0.041 0.72989 0.0
O278 O 0.68208 0.03508 0.78324 0.0
O279 O 0.65689 0.03586 0.76591 0.0
Co280 Co 0.77294 0.66735 0.00655 0.0
O281 O 0.79873 0.67215 0.00864 0.0
O282 O 0.78203 0.64679 0.01425 0.0
C283 C 0.76948 0.67817 0.9778 0.0
O284 O 0.74649 0.65588 0.00501 0.0
Co285 Co 0.74966 0.69575 0.0048 0.0
O286 O 0.72868 0.67604 0.00218 0.0
C287 C 0.76734 0.69082 0.0422 0.0
C288 C 0.79779 0.65581 0.01299 0.0
C289 C 0.73093 0.66002 0.00335 0.0
O290 O 0.77353 0.67759 0.03433 0.0
O291 O 0.7582 0.70021 0.03273 0.0
O292 O 0.77221 0.66194 0.97902 0.0
O293 O 0.7696 0.68778 0.99389 0.0
Co294 Co 0.88768 0.52111 0.80097 0.0
O295 O 0.891 0.54621 0.79971 0.0
O296 O 0.86606 0.52631 0.78926 0.0
C297 C 0.89974 0.52416 0.83073 0.0
O298 O 0.87939 0.49461 0.80061 0.0
Co299 Co 0.9195 0.50192 0.80997 0.0
O300 O 0.90075 0.48151 0.81381 0.0
C301 C 0.91208 0.51435 0.77219 0.0
C302 C 0.87445 0.54296 0.7924 0.0
C303 C 0.88471 0.48108 0.807 0.0
O304 O 0.89688 0.51751 0.77597 0.0
O305 O 0.92333 0.5096 0.78427 0.0
O306 O 0.88297 0.52478 0.82725 0.0
O307 O 0.90858 0.52232 0.81645 0.0
Co308 Co 0.78924 0.42762 0.49685 0.0
O309 O 0.76423 0.42387 0.49699 0.0
O310 O 0.78312 0.44999 0.50568 0.0
C311 C 0.78855 0.41319 0.46821 0.0
O312 O 0.8157 0.4362 0.49793 0.0
Co313 Co 0.80869 0.3949 0.49372 0.0
O314 O 0.82846 0.41318 0.48784 0.0
C315 C 0.7967 0.40741 0.53003 0.0
C316 C 0.76688 0.4409 0.50301 0.0
C317 C 0.82907 0.42987 0.49266 0.0
O318 O 0.79194 0.42107 0.52333 0.0
O319 O 0.80264 0.39516 0.52039 0.0
O320 O 0.78651 0.42983 0.46983 0.0
O321 O 0.78932 0.40554 0.4836 0.0
Co322 Co 0.64161 0.53799 0.28946 0.0
O323 O 0.63703 0.51191 0.28718 0.0
O324 O 0.66209 0.52909 0.28184 0.0
C325 C 0.63095 0.54102 0.31827 0.0
O326 O 0.65262 0.56465 0.29068 0.0
Co327 Co 0.61378 0.56182 0.29275 0.0
O328 O 0.63383 0.58269 0.29867 0.0
C329 C 0.61634 0.54206 0.25523 0.0
C330 C 0.65325 0.5131 0.28302 0.0
C331 C 0.6492 0.58033 0.29516 0.0
O332 O 0.63091 0.53746 0.26196 0.0
O333 O 0.60706 0.55045 0.26566 0.0
O334 O 0.64722 0.53887 0.31713 0.0
O335 O 0.62154 0.54103 0.30216 0.0
Eu336 Eu 0.05473 0.03797 0.03752 0.0
C337 C 0.99796 0.97699 0.99221 0.0
N338 N 1.00597 0.993 0.98707 0.0
C339 C 1.0077 0.97893 0.95585 0.0
C340 C 0.99477 0.96121 0.97925 0.0
C341 C 0.01064 0.99424 0.96914 0.0
C342 C 0.99977 0.96234 0.96093 0.0
C343 C 0.98512 0.95978 0.01631 0.0
C344 C 0.99309 0.97629 0.01061 0.0
C345 C 0.98194 0.94409 0.00337 0.0
C346 C 0.9867 0.94481 0.98491 0.0
Eu347 Eu 0.00833 0.01797 0.01011 0.0
N348 N 0.99654 0.99164 0.02304 0.0
C349 C 0.98057 0.9595 0.03489 0.0
C350 C 0.9913 0.99158 0.0408 0.0
C351 C 0.98356 0.9755 0.04713 0.0
H352 H 0.01606 0.00708 0.96476 0.0
H353 H 0.97963 0.97551 0.06134 0.0
H354 H 0.04617 0.05054 0.08221 0.0
H355 H 0.09486 0.07585 0.9904 0.0
H356 H 0.99254 1.0039 0.04993 0.0
H357 H 0.97448 0.94707 0.03982 0.0
H358 H 0.07722 0.04899 0.00081 0.0
H359 H 0.01135 0.97997 0.94163 0.0
H360 H 0.97579 0.9313 0.00751 0.0
H361 H 0.98412 0.93256 0.97511 0.0
H362 H 0.05194 0.07787 0.10504 0.0
H363 H 0.99746 0.95052 0.95055 0.0
H364 H 0.10097 0.10476 0.01126 0.0
N365 N 0.05879 0.06341 0.06046 0.0
C366 C 0.06891 0.07865 0.05589 0.0
C367 C 0.05657 0.07834 0.09118 0.0
C368 C 0.07287 0.09452 0.06878 0.0
C369 C 0.053 0.06291 0.078 0.0
C370 C 0.06643 0.09425 0.08651 0.0
N371 N 0.07157 0.06289 0.02614 0.0
C372 C 0.07888 0.06168 0.00948 0.0
C373 C 0.0862 0.09392 0.03332 0.0
C374 C 0.07558 0.07835 0.03835 0.0
C375 C 0.09282 0.09307 0.01567 0.0
C376 C 0.0893 0.07681 0.00379 0.0
H377 H 0.06927 0.10614 0.09682 0.0
H378 H 0.08645 0.12239 0.07343 0.0
H379 H 0.09801 0.12189 0.04239 0.0
O380 O 0.0784 0.02673 0.03299 0.0
O381 O 0.04054 0.06039 0.02702 0.0
O382 O 0.0169 0.04729 0.0043 0.0
O383 O 0.07518 0.03937 0.0613 0.0
O384 O 0.05309 0.02362 0.00734 0.0
O385 O 0.02817 0.03016 0.99139 0.0
O386 O 0.98158 0.02138 0.01523 0.0
O387 O 0.02662 0.99755 0.01784 0.0
O388 O 0.04208 0.01074 0.04608 0.0
O389 O 0.98748 0.01536 0.98643 0.0
O390 O 0.00858 0.03402 0.03913 0.0
O391 O 0.03344 0.02807 0.05554 0.0
C392 C 0.0278 0.06168 0.0135 0.0
C393 C 0.10181 0.02723 0.0587 0.0
C394 C 0.12789 0.01475 0.05377 0.0
C395 C 0.13299 0.01683 0.07345 0.0
C396 C 0.10696 0.02957 0.07845 0.0
C397 C 0.12256 0.02439 0.08577 0.0
C398 C 0.11247 0.02005 0.04642 0.0
C399 C 0.04456 0.02754 0.9918 0.0
C400 C 0.08484 0.03106 0.05088 0.0
C401 C 0.0833 0.11008 0.06371 0.0
C402 C 0.08992 0.10979 0.04603 0.0
C403 C 0.0355 0.99609 0.03435 0.0
C404 C 0.96695 0.03453 0.99124 0.0
C405 C 0.94499 0.05306 0.99663 0.0
C406 C 0.949 0.0617 0.98063 0.0
C407 C 0.97106 0.04332 0.97523 0.0
C408 C 0.95395 0.03956 0.00192 0.0
C409 C 0.96212 0.05689 0.97003 0.0
C410 C 0.01781 0.03256 0.05525 0.0
C411 C 0.97599 0.02019 0.99715 0.0
H412 H 0.14504 0.01274 0.07919 0.0
H413 H 0.0988 0.03508 0.08821 0.0
H414 H 0.12648 0.02608 0.10097 0.0
H415 H 0.10864 0.01818 0.03114 0.0
H416 H 0.94203 0.07215 0.97642 0.0
H417 H 0.98118 0.0398 0.96679 0.0
H418 H 0.9506 0.03283 0.01423 0.0
H419 H 0.96533 0.06365 0.95774 0.0
Eu420 Eu 0.26583 0.78106 0.29949 0.0
C421 C 0.30441 0.74696 0.22646 0.0
N422 N 0.31254 0.76092 0.23943 0.0
C423 C 0.3391 0.74851 0.24203 0.0
C424 C 0.31307 0.73267 0.22131 0.0
C425 C 0.32983 0.76224 0.24673 0.0
C426 C 0.33056 0.73346 0.22951 0.0
C427 C 0.27916 0.73372 0.20337 0.0
C428 C 0.28774 0.74751 0.21773 0.0
C429 C 0.28719 0.71886 0.19894 0.0
C430 C 0.30416 0.71836 0.20787 0.0
Eu431 Eu 0.29536 0.78191 0.24986 0.0
N432 N 0.28057 0.76223 0.22229 0.0
C433 C 0.26315 0.73565 0.19338 0.0
C434 C 0.26596 0.76497 0.21113 0.0
C435 C 0.25678 0.75157 0.19694 0.0
H436 H 0.33649 0.77403 0.25597 0.0
H437 H 0.24491 0.75363 0.1886 0.0
H438 H 0.22304 0.78395 0.28637 0.0
H439 H 0.31355 0.82076 0.35727 0.0
H440 H 0.26127 0.7775 0.21275 0.0
H441 H 0.25609 0.72535 0.1823 0.0
H442 H 0.30365 0.79838 0.32944 0.0
H443 H 0.35279 0.74955 0.24803 0.0
H444 H 0.28067 0.70801 0.18816 0.0
H445 H 0.31046 0.70712 0.20391 0.0
H446 H 0.20128 0.80213 0.2959 0.0
H447 H 0.33773 0.72281 0.22589 0.0
H448 H 0.29276 0.83918 0.36946 0.0
N449 N 0.2439 0.79787 0.30742 0.0
C450 C 0.2485 0.81052 0.32284 0.0
C451 C 0.21456 0.80474 0.30349 0.0
C452 C 0.23629 0.82107 0.32891 0.0
C453 C 0.22707 0.79462 0.29797 0.0
C454 C 0.21921 0.81809 0.31896 0.0
N455 N 0.27715 0.80305 0.32604 0.0
C456 C 0.29421 0.80572 0.3348 0.0
C457 C 0.27079 0.82642 0.34829 0.0
C458 C 0.26551 0.81307 0.33253 0.0
C459 C 0.28821 0.82904 0.35735 0.0
C460 C 0.29997 0.81867 0.35053 0.0
H461 H 0.20947 0.82591 0.32319 0.0
H462 H 0.23227 0.84248 0.34949 0.0
H463 H 0.2625 0.84722 0.36639 0.0
O464 O 0.26784 0.7617 0.31997 0.0
O465 O 0.2787 0.80965 0.29781 0.0
O466 O 0.28452 0.79315 0.27411 0.0
O467 O 0.24216 0.76337 0.30556 0.0
O468 O 0.29476 0.77528 0.30346 0.0
O469 O 0.31247 0.78329 0.27886 0.0
O470 O 0.29636 0.804 0.23274 0.0
O471 O 0.29044 0.7553 0.26102 0.0
O472 O 0.26654 0.76319 0.27235 0.0
O473 O 0.32069 0.79985 0.24802 0.0
O474 O 0.26634 0.7867 0.24496 0.0
O475 O 0.24931 0.78282 0.27085 0.0
C476 C 0.2866 0.80914 0.28281 0.0
C477 C 0.24272 0.756 0.33696 0.0
C478 C 0.24442 0.74788 0.36925 0.0
C479 C 0.22667 0.75004 0.37003 0.0
C480 C 0.22504 0.7582 0.33799 0.0
C481 C 0.21718 0.75545 0.35457 0.0
C482 C 0.25245 0.75149 0.35282 0.0
C483 C 0.31034 0.77829 0.29618 0.0
C484 C 0.2506 0.75669 0.31901 0.0
C485 C 0.24146 0.83424 0.34468 0.0
C486 C 0.25866 0.83691 0.35433 0.0
C487 C 0.27703 0.75153 0.27076 0.0
C488 C 0.32165 0.80958 0.2174 0.0
C489 C 0.31926 0.81936 0.18605 0.0
C490 C 0.33073 0.80804 0.18018 0.0
C491 C 0.33329 0.79835 0.21164 0.0
C492 C 0.31516 0.82043 0.20472 0.0
C493 C 0.33796 0.79778 0.1931 0.0
C494 C 0.25122 0.78585 0.25292 0.0
C495 C 0.31364 0.80832 0.23514 0.0
H496 H 0.21981 0.74691 0.38222 0.0
H497 H 0.21716 0.76165 0.32589 0.0
H498 H 0.20348 0.75689 0.3552 0.0
H499 H 0.26617 0.75014 0.35206 0.0
H500 H 0.33406 0.80719 0.16571 0.0
H501 H 0.33834 0.78968 0.22118 0.0
H502 H 0.30593 0.82889 0.20904 0.0
H503 H 0.3468 0.78902 0.1886 0.0
Eu504 Eu 0.5051 0.02398 0.53406 0.0
C505 C 0.56933 0.06735 0.49764 0.0
N506 N 0.5599 0.0504 0.49178 0.0
C507 C 0.55641 0.05767 0.45964 0.0
C508 C 0.57191 0.08031 0.48473 0.0
C509 C 0.55449 0.04517 0.47282 0.0
C510 C 0.56485 0.07539 0.46567 0.0
C511 C 0.58826 0.08853 0.52246 0.0
C512 C 0.57743 0.07155 0.51637 0.0
C513 C 0.59014 0.10164 0.50984 0.0
C514 C 0.58195 0.09756 0.49105 0.0
Eu515 Eu 0.55652 0.03142 0.51645 0.0
N516 N 0.57501 0.05886 0.52858 0.0
C517 C 0.59723 0.09166 0.54096 0.0
C518 C 0.58493 0.06117 0.54586 0.0
C519 C 0.59586 0.07777 0.55258 0.0
H520 H 0.54888 0.03132 0.46755 0.0
H521 H 0.60339 0.07976 0.56655 0.0
H522 H 0.51143 0.02284 0.58254 0.0
H523 H 0.46363 0.97567 0.47884 0.0
H524 H 0.58459 0.05004 0.5542 0.0
H525 H 0.60577 0.10449 0.54611 0.0
H526 H 0.4836 1.00429 0.49195 0.0
H527 H 0.55165 0.05353 0.44476 0.0
H528 H 0.59823 0.11485 0.51434 0.0
H529 H 0.58389 0.1077 0.48135 0.0
H530 H 0.50412 1.00099 0.60498 0.0
H531 H 0.5665 0.08498 0.45535 0.0
H532 H 0.45485 0.95261 0.50015 0.0
N533 N 0.49934 1.00479 0.55789 0.0
C534 C 0.48847 0.98866 0.5514 0.0
C535 C 0.49986 0.99727 0.58993 0.0
C536 C 0.48335 0.97603 0.56409 0.0
C537 C 0.50435 0.00952 0.57697 0.0
C538 C 0.48949 0.98039 0.58346 0.0
N539 N 0.48716 0.99688 0.5198 0.0
C540 C 0.48033 0.99407 0.5011 0.0
C541 C 0.47021 0.96842 0.52527 0.0
C542 C 0.48189 0.98482 0.53206 0.0
C543 C 0.46382 0.96506 0.50587 0.0
C544 C 0.46881 0.978 0.49376 0.0
H545 H 0.48587 0.97102 0.59362 0.0
H546 H 0.46801 0.94977 0.56681 0.0
H547 H 0.45656 0.94313 0.53291 0.0
O548 O 0.48373 0.03554 0.52005 0.0
O549 O 0.51506 0.99814 0.52214 0.0
O550 O 0.54099 1.00274 0.50681 0.0
O551 O 0.48268 0.02878 0.54879 0.0
O552 O 0.51708 0.03658 0.50996 0.0
O553 O 0.53429 0.02207 0.49304 0.0
O554 O 0.57728 0.01865 0.52999 0.0
O555 O 0.54744 0.05701 0.53004 0.0
O556 O 0.52035 0.05297 0.54332 0.0
O557 O 0.57953 0.02766 0.50229 0.0
O558 O 0.54589 0.02014 0.5422 0.0
O559 O 0.52665 0.03325 0.55796 0.0
C560 C 0.52714 0.99209 0.51223 0.0
C561 C 0.47072 0.0538 0.54143 0.0
C562 C 0.44934 0.0738 0.54096 0.0
C563 C 0.46052 0.08574 0.55525 0.0
C564 C 0.48184 0.06595 0.55568 0.0
C565 C 0.47671 0.08181 0.56256 0.0
C566 C 0.45441 0.05777 0.53407 0.0
C567 C 0.51916 0.02723 0.49435 0.0
C568 C 0.47555 0.03649 0.53524 0.0
C569 C 0.47199 0.9596 0.55722 0.0
C570 C 0.46541 0.95583 0.53792 0.0
C571 C 0.53503 0.06329 0.53911 0.0
C572 C 0.5919 1.00243 0.50819 0.0
C573 C 0.61385 0.98297 0.50864 0.0
C574 C 0.60417 0.97233 0.49247 0.0
C575 C 0.58243 0.99167 0.49193 0.0
C576 C 0.60763 0.99798 0.5166 0.0
C577 C 0.58848 0.97663 0.48422 0.0
C578 C 0.54259 0.02998 0.55703 0.0
C579 C 0.58623 0.01908 0.51531 0.0
H580 H 0.45663 0.09805 0.56083 0.0
H581 H 0.49433 0.06301 0.56177 0.0
H582 H 0.48524 0.09101 0.57368 0.0
H583 H 0.44568 0.0484 0.52321 0.0
H584 H 0.60886 0.96076 0.48616 0.0
H585 H 0.57057 0.99517 0.48493 0.0
H586 H 0.61521 0.00636 0.52897 0.0
H587 H 0.58115 0.96846 0.47165 0.0
Eu588 Eu 0.306 0.27013 0.77717 0.0
C589 C 0.23922 0.29488 0.73262 0.0
N590 N 0.25051 0.30333 0.7481 0.0
C591 C 0.2514 0.3317 0.73582 0.0
C592 C 0.23372 0.30465 0.71798 0.0
C593 C 0.25625 0.32153 0.75014 0.0
C594 C 0.24017 0.32322 0.71962 0.0
C595 C 0.22076 0.26742 0.7159 0.0
C596 C 0.23295 0.27639 0.73147 0.0
C597 C 0.21534 0.27714 0.7013 0.0
C598 C 0.22189 0.29566 0.70227 0.0
Eu599 Eu 0.2576 0.28462 0.77114 0.0
N600 N 0.23914 0.26707 0.74528 0.0
C601 C 0.21467 0.24886 0.71531 0.0
C602 C 0.23271 0.24919 0.7452 0.0
C603 C 0.22058 0.23973 0.73009 0.0
H604 H 0.26423 0.32836 0.76296 0.0
H605 H 0.21565 0.22547 0.72998 0.0
H606 H 0.29838 0.22692 0.78676 0.0
H607 H 0.34582 0.33026 0.81922 0.0
H608 H 0.23655 0.24232 0.75698 0.0
H609 H 0.20533 0.24148 0.70358 0.0
H610 H 0.32681 0.31276 0.79125 0.0
H611 H 0.25612 0.34611 0.73742 0.0
H612 H 0.20614 0.27044 0.68913 0.0
H613 H 0.21758 0.30295 0.69086 0.0
H614 H 0.3058 0.20965 0.81299 0.0
H615 H 0.23633 0.33117 0.70863 0.0
H616 H 0.35453 0.31492 0.84683 0.0
N617 N 0.31214 0.25211 0.80129 0.0
C618 C 0.32293 0.26081 0.81699 0.0
C619 C 0.31059 0.22405 0.81436 0.0
C620 C 0.32773 0.25136 0.83221 0.0
C621 C 0.3062 0.23394 0.79961 0.0
C622 C 0.32134 0.23279 0.83076 0.0
N623 N 0.32387 0.28816 0.8033 0.0
C624 C 0.33007 0.3061 0.80339 0.0
C625 C 0.34015 0.28866 0.83415 0.0
C626 C 0.3291 0.27928 0.81795 0.0
C627 C 0.34602 0.30724 0.83464 0.0
C628 C 0.34106 0.31596 0.81913 0.0
H629 H 0.32474 0.22506 0.84215 0.0
H630 H 0.34253 0.25364 0.86018 0.0
H631 H 0.35338 0.28626 0.86188 0.0
O632 O 0.32999 0.27951 0.76233 0.0
O633 O 0.29412 0.27904 0.80444 0.0
O634 O 0.27655 0.29943 0.79626 0.0
O635 O 0.32354 0.25217 0.76987 0.0
O636 O 0.3025 0.29451 0.76189 0.0
O637 O 0.28149 0.30777 0.77591 0.0
O638 O 0.23671 0.27463 0.78886 0.0
O639 O 0.26821 0.27498 0.74343 0.0
O640 O 0.28764 0.25625 0.75137 0.0
O641 O 0.23632 0.29926 0.77621 0.0
O642 O 0.26143 0.26016 0.78613 0.0
O643 O 0.28208 0.24721 0.77132 0.0
C644 C 0.28559 0.29218 0.80911 0.0
C645 C 0.35096 0.25842 0.75596 0.0
C646 C 0.37583 0.26037 0.7364 0.0
C647 C 0.38078 0.2455 0.74429 0.0
C648 C 0.35657 0.24367 0.76357 0.0
C649 C 0.37129 0.23731 0.75777 0.0
C650 C 0.36086 0.26702 0.74239 0.0
C651 C 0.29634 0.30889 0.76782 0.0
C652 C 0.33441 0.26369 0.76215 0.0
C653 C 0.33873 0.26068 0.84835 0.0
C654 C 0.34492 0.27927 0.84932 0.0
C655 C 0.27849 0.26345 0.73868 0.0
C656 C 0.22025 0.29562 0.80294 0.0
C657 C 0.19485 0.29476 0.8215 0.0
C658 C 0.20172 0.31262 0.8292 0.0
C659 C 0.22714 0.31324 0.81153 0.0
C660 C 0.20415 0.28625 0.80825 0.0
C661 C 0.21789 0.32165 0.82451 0.0
C662 C 0.26751 0.24594 0.77976 0.0
C663 C 0.2284 0.28797 0.78673 0.0
H664 H 0.39217 0.24021 0.74 0.0
H665 H 0.34948 0.23685 0.77404 0.0
H666 H 0.37531 0.22587 0.76371 0.0
H667 H 0.35677 0.27835 0.73628 0.0
H668 H 0.19467 0.31952 0.83915 0.0
H669 H 0.2394 0.32073 0.80773 0.0
H670 H 0.19863 0.27268 0.8017 0.0
H671 H 0.22314 0.33535 0.83079 0.0
Eu672 Eu 0.03948 1.0021 0.51905 0.0
C673 C 0.01585 0.06786 0.56436 0.0
N674 N 1.00733 0.05675 0.54876 0.0
C675 C 0.97979 0.0541 0.56238 0.0
C676 C 1.00664 0.07215 0.57986 0.0
C677 C 0.98945 0.05024 0.54735 0.0
C678 C 0.98844 0.06497 0.57877 0.0
C679 C 0.04304 0.08675 0.58065 0.0
C680 C 0.03386 0.07505 0.5648 0.0
C681 C 0.03398 0.09081 0.59624 0.0
C682 C 0.01584 0.08353 0.59585 0.0
Eu683 Eu 0.02513 0.05083 0.52449 0.0
N684 N 0.04242 0.0705 0.54973 0.0
C685 C 0.06103 0.09414 0.58024 0.0
C686 C 0.05949 0.0786 0.54865 0.0
C687 C 0.06922 0.09026 0.56403 0.0
H688 H 0.98248 0.04233 0.53452 0.0
H689 H 0.08292 0.09643 0.56327 0.0
H690 H 0.08258 0.00745 0.51141 0.0
H691 H 0.97946 0.96706 0.47369 0.0
H692 H 0.0654 0.07642 0.53574 0.0
H693 H 0.06857 0.1032 0.59213 0.0
H694 H 0.99674 0.98355 0.50305 0.0
H695 H 0.96564 0.04879 0.56124 0.0
H696 H 0.04084 0.0997 0.60859 0.0
H697 H 0.009 0.08691 0.60792 0.0
H698 H 0.1001 0.99957 0.48566 0.0
H699 H 0.98089 0.06796 0.59037 0.0
H700 H 0.995 0.9579 0.44659 0.0
N701 N 0.05767 0.99507 0.49576 0.0
C702 C 0.04901 0.98519 0.47946 0.0
C703 C 0.08575 0.99551 0.48372 0.0
C704 C 0.05855 0.98016 0.46453 0.0
C705 C 0.07577 1.00011 0.4982 0.0
C706 C 0.07711 0.98552 0.4668 0.0
N707 N 0.02153 0.98569 0.49201 0.0
C708 C 1.00356 0.98039 0.4911 0.0
C709 C 0.02121 0.97013 0.46078 0.0
C710 C 0.03049 0.98024 0.47759 0.0
C711 C 1.00263 0.96552 0.45933 0.0
C712 C 0.99379 0.97061 0.47461 0.0
H713 H 0.0849 0.98195 0.45562 0.0
H714 H 0.05645 0.96597 0.43623 0.0
H715 H 0.0238 0.95716 0.43299 0.0
O716 O 0.02866 0.97947 0.5343 0.0
O717 O 0.03354 0.01551 0.49203 0.0
O718 O 0.01173 0.03101 0.49939 0.0
O719 O 0.05443 0.9809 0.52445 0.0
O720 O 0.01512 1.00557 0.53399 0.0
O721 O 1.00273 0.02643 0.51871 0.0
O722 O 0.03307 0.07299 0.50656 0.0
O723 O 0.03428 0.03975 0.55229 0.0
O724 O 0.05339 0.02034 0.54516 0.0
O725 O 1.00754 0.06915 0.51798 0.0
O726 O 0.05099 0.0484 0.5118 0.0
O727 O 0.06267 0.02575 0.52538 0.0
C728 C 0.02026 0.02344 0.48685 0.0
C729 C 0.04966 0.96543 0.5515 0.0
C730 C 0.04945 0.94161 0.57253 0.0
C731 C 0.06494 0.95175 0.5832 0.0
C732 C 0.06512 0.97524 0.56253 0.0
C733 C 0.07262 0.96848 0.5783 0.0
C734 C 0.0417 0.94857 0.55668 0.0
C735 C 1.00121 0.01225 0.52807 0.0
C736 C 0.04271 0.9721 0.53385 0.0
C737 C 0.04932 0.96999 0.44783 0.0
C738 C 0.03072 0.96499 0.44597 0.0
C739 C 0.04673 0.03059 0.55745 0.0
C740 C 0.01247 0.09406 0.49908 0.0
C741 C 0.0166 0.11956 0.47998 0.0
C742 C 0.99953 0.12241 0.48309 0.0
C743 C 0.99543 0.09752 0.50179 0.0
C744 C 0.02321 0.1053 0.48806 0.0
C745 C 0.98909 0.11152 0.4939 0.0
C746 C 0.0645 0.04095 0.51762 0.0
C747 C 0.01808 0.07857 0.5079 0.0
H748 H 0.07117 0.94663 0.59534 0.0
H749 H 0.07165 0.98796 0.55865 0.0
H750 H 0.08463 0.97611 0.5866 0.0
H751 H 0.02991 0.94072 0.54815 0.0
H752 H 0.99424 0.13322 0.47709 0.0
H753 H 0.98681 0.08933 0.51006 0.0
H754 H 0.03635 0.10294 0.48572 0.0
H755 H 0.97595 0.11392 0.49616 0.0
Eu756 Eu 0.28362 0.80377 0.76026 0.0
C757 C 0.24564 0.73427 0.80038 0.0
N758 N 0.26154 0.74551 0.80615 0.0
C759 C 0.2564 0.74471 0.83876 0.0
C760 C 0.23413 0.72843 0.81374 0.0
C761 C 0.26751 0.74983 0.82502 0.0
C762 C 0.23949 0.73424 0.83308 0.0
C763 C 0.22558 0.71483 0.77508 0.0
C764 C 0.24133 0.72756 0.78119 0.0
C765 C 0.21377 0.70964 0.78826 0.0
C766 C 0.21798 0.71648 0.80751 0.0
Eu767 Eu 0.27873 0.75354 0.78162 0.0
N768 N 0.2527 0.73321 0.76853 0.0
C769 C 0.22226 0.7076 0.7559 0.0
C770 C 0.25021 0.72528 0.75019 0.0
C771 C 0.23478 0.71263 0.74348 0.0
H772 H 0.28099 0.75691 0.82948 0.0
H773 H 0.23266 0.70663 0.72881 0.0
H774 H 0.28172 0.79603 0.71184 0.0
H775 H 0.33462 0.84689 0.81177 0.0
H776 H 0.26019 0.7286 0.74088 0.0
H777 H 0.21031 0.69779 0.75066 0.0
H778 H 0.30634 0.82561 0.80124 0.0
H779 H 0.26102 0.74854 0.85372 0.0
H780 H 0.20147 0.70008 0.78377 0.0
H781 H 0.20891 0.71201 0.81757 0.0
H782 H 0.30163 0.80252 0.68742 0.0
H783 H 0.23101 0.73009 0.84377 0.0
H784 H 0.35524 0.85573 0.7883 0.0
N785 N 0.30099 0.80902 0.735 0.0
C786 C 0.31718 0.81999 0.74015 0.0
C787 C 0.30625 0.8073 0.70221 0.0
C788 C 0.32875 0.82452 0.72639 0.0
C789 C 0.29512 0.80335 0.71624 0.0
C790 C 0.32322 0.81774 0.70732 0.0
N791 N 0.31091 0.82265 0.77233 0.0
C792 C 0.31516 0.82959 0.79097 0.0
C793 C 0.33859 0.83901 0.76462 0.0
C794 C 0.3221 0.82723 0.75915 0.0
C795 C 0.34295 0.84627 0.7837 0.0
C796 C 0.33125 0.84145 0.79696 0.0
H797 H 0.33175 0.82091 0.69637 0.0
H798 H 0.35436 0.83949 0.72155 0.0
H799 H 0.36291 0.8522 0.75493 0.0
O800 O 0.27646 0.8292 0.77133 0.0
O801 O 0.30971 0.79472 0.77265 0.0
O802 O 0.30492 0.77282 0.79373 0.0
O803 O 0.2701 0.81928 0.74149 0.0
O804 O 0.2706 0.79494 0.78581 0.0
O805 O 0.28367 0.77713 0.80437 0.0
O806 O 0.29363 0.73473 0.76794 0.0
O807 O 0.25195 0.76011 0.7681 0.0
O808 O 0.25538 0.78743 0.75501 0.0
O809 O 0.28583 0.73147 0.79595 0.0
O810 O 0.29066 0.76444 0.75681 0.0
O811 O 0.27594 0.78011 0.73814 0.0
C812 C 0.31561 0.78499 0.78576 0.0
C813 C 0.2691 0.84995 0.7499 0.0
C814 C 0.25439 0.87586 0.74949 0.0
C815 C 0.26504 0.88228 0.73572 0.0
C816 C 0.27977 0.85669 0.73634 0.0
C817 C 0.27776 0.87283 0.72935 0.0
C818 C 0.25665 0.85974 0.75673 0.0
C819 C 0.27852 0.79241 0.80215 0.0
C820 C 0.26873 0.83163 0.75496 0.0
C821 C 0.34531 0.83596 0.73193 0.0
C822 C 0.35017 0.84323 0.75096 0.0
C823 C 0.24544 0.7725 0.75902 0.0
C824 C 0.31169 0.72117 0.78916 0.0
C825 C 0.33086 0.69894 0.78999 0.0
C826 C 0.34192 0.70972 0.80524 0.0
C827 C 0.32301 0.73194 0.80425 0.0
C828 C 0.31583 0.7048 0.78184 0.0
C829 C 0.3381 0.72624 0.81219 0.0
C830 C 0.28116 0.76519 0.74094 0.0
C831 C 0.2945 0.72571 0.78259 0.0
H832 H 0.26354 0.89466 0.72993 0.0
H833 H 0.28926 0.84921 0.73075 0.0
H834 H 0.28584 0.87788 0.71869 0.0
H835 H 0.24812 0.85438 0.76693 0.0
H836 H 0.35352 0.70533 0.81175 0.0
H837 H 0.31987 0.74446 0.81026 0.0
H838 H 0.30701 0.69633 0.77041 0.0
H839 H 0.34666 0.73448 0.82398 0.0
Eu840 Eu 0.53037 0.04399 0.99834 0.0
C841 C 0.56132 0.99865 0.06757 0.0
N842 N 0.54811 0.99301 0.05299 0.0
C843 C 0.55867 0.96553 0.04661 0.0
C844 C 0.57407 0.98798 0.07197 0.0
C845 C 0.54648 0.97665 0.04261 0.0
C846 C 0.57259 0.97124 0.06127 0.0
C847 C 0.5761 0.02167 0.09288 0.0
C848 C 0.56229 0.01531 0.07786 0.0
C849 C 0.58893 0.01117 0.09718 0.0
C850 C 0.5879 0.99436 0.08677 0.0
Eu851 Eu 0.52867 0.0128 0.04614 0.0
N852 N 0.54985 0.02532 0.07309 0.0
C853 C 0.57665 0.03841 0.10316 0.0
C854 C 0.55002 0.04137 0.08367 0.0
C855 C 0.56344 0.0482 0.09864 0.0
H856 H 0.53574 0.97212 0.03125 0.0
H857 H 0.56354 0.06103 0.10675 0.0
H858 H 0.52082 0.08454 0.01075 0.0
H859 H 0.50153 0.99429 0.93678 0.0
H860 H 0.53987 0.04909 0.08103 0.0
H861 H 0.58705 0.04377 0.11475 0.0
H862 H 0.52288 0.00725 0.96445 0.0
H863 H 0.55737 0.9526 0.03836 0.0
H864 H 0.59967 0.01591 0.10858 0.0
H865 H 0.59788 0.98639 0.09027 0.0
H866 H 0.49945 0.10326 0.00039 0.0
H867 H 0.58209 0.96262 0.06422 0.0
H868 H 0.47841 0.01078 0.92529 0.0
N869 N 0.51064 0.06294 0.98908 0.0
C870 C 0.49897 0.05685 0.97319 0.0
C871 C 0.49908 0.09019 0.99269 0.0
C872 C 0.48654 0.06715 0.96668 0.0
C873 C 0.51105 0.07945 0.99868 0.0
C874 C 0.4867 0.08398 0.97667 0.0
N875 N 0.51125 0.03033 0.97035 0.0
C876 C 0.51251 0.01437 0.96046 0.0
C877 C 0.48697 0.03329 0.94728 0.0
C878 C 0.49922 0.04008 0.96359 0.0
C879 C 0.48762 0.01647 0.93782 0.0
C880 C 0.50057 0.00708 0.94433 0.0
H881 H 0.4774 0.09231 0.97209 0.0
H882 H 0.46464 0.06807 0.94536 0.0
H883 H 0.46498 0.03842 0.92842 0.0
O884 O 0.55077 0.04452 0.97948 0.0
O885 O 0.50156 0.03416 0.00159 0.0
O886 O 0.51814 0.02353 0.02154 0.0
O887 O 0.54542 0.06965 0.99238 0.0
O888 O 0.53795 0.01538 0.99504 0.0
O889 O 0.52418 0.99682 0.01624 0.0
O890 O 0.50747 0.01293 0.06406 0.0
O891 O 0.55594 0.01987 0.03758 0.0
O892 O 0.54811 0.04379 0.02558 0.0
O893 O 0.51142 0.98762 0.05001 0.0
O894 O 0.52266 0.0415 0.05203 0.0
O895 O 0.52948 0.05999 0.02768 0.0
C896 C 0.5021 0.02454 0.0153 0.0
C897 C 0.55344 0.06828 0.96113 0.0
C898 C 0.56276 0.06493 0.92974 0.0
C899 C 0.5513 0.07619 0.92347 0.0
C900 C 0.54197 0.07959 0.95495 0.0
C901 C 0.54105 0.08362 0.93615 0.0
C902 C 0.56394 0.06129 0.94857 0.0
C903 C 0.5322 0.99927 0.00066 0.0
C904 C 0.5537 0.06195 0.97984 0.0
C905 C 0.47432 0.06036 0.95052 0.0
C906 C 0.4745 0.04347 0.94087 0.0
C907 C 0.5597 0.0333 0.0277 0.0
C908 C 0.50273 0.9881 0.08108 0.0
C909 C 0.4929 0.98984 0.11238 0.0
C910 C 0.50038 0.97489 0.11634 0.0
C911 C 0.51049 0.97327 0.08514 0.0
C912 C 0.49422 0.99645 0.09489 0.0
C913 C 0.50932 0.96676 0.10278 0.0
C914 C 0.52482 0.05735 0.04501 0.0
C915 C 0.50347 0.99545 0.06284 0.0
H916 H 0.55038 0.07928 0.9089 0.0
H917 H 0.53357 0.08504 0.96445 0.0
H918 H 0.53223 0.09231 0.93134 0.0
H919 H 0.57256 0.05231 0.9533 0.0
H920 H 0.49925 0.96953 0.12984 0.0
H921 H 0.51738 0.96674 0.07477 0.0
H922 H 0.48802 0.00777 0.09178 0.0
H923 H 0.5152 0.95529 0.10588 0.0
Eu924 Eu 0.26782 0.25252 0.25716 0.0
C925 C 0.32941 0.31412 0.30452 0.0
N926 N 0.31424 0.30404 0.30905 0.0
C927 C 0.32867 0.30278 0.34029 0.0
C928 C 0.34497 0.31853 0.31767 0.0
C929 C 0.31358 0.29881 0.32683 0.0
C930 C 0.34449 0.31255 0.33564 0.0
C931 C 0.34468 0.33134 0.28193 0.0
C932 C 0.32926 0.32056 0.2869 0.0
C933 C 0.36026 0.33542 0.29484 0.0
C934 C 0.3604 0.32906 0.31268 0.0
Eu935 Eu 0.28907 0.29935 0.28571 0.0
N936 N 0.31405 0.31626 0.27457 0.0
C937 C 0.34397 0.33773 0.26411 0.0
C938 C 0.31305 0.32328 0.25766 0.0
C939 C 0.32802 0.33379 0.25199 0.0
H940 H 0.30131 0.29226 0.33103 0.0
H941 H 0.32716 0.3391 0.23841 0.0
H942 H 0.25814 0.26162 0.21207 0.0
H943 H 0.22383 0.22309 0.30656 0.0
H944 H 0.30064 0.32125 0.24875 0.0
H945 H 0.35554 0.34598 0.25973 0.0
H946 H 0.25239 0.23615 0.29631 0.0
H947 H 0.32798 0.29858 0.35436 0.0
H948 H 0.37223 0.34363 0.29124 0.0
H949 H 0.37245 0.33253 0.32259 0.0
H950 H 0.23191 0.25796 0.18842 0.0
H951 H 0.35612 0.31575 0.34617 0.0
H952 H 0.19616 0.21893 0.2844 0.0
N953 N 0.24349 0.25183 0.23397 0.0
C954 C 0.22736 0.2439 0.23855 0.0
C955 C 0.23037 0.25432 0.20256 0.0
C956 C 0.21198 0.24131 0.22525 0.0
C957 C 0.24522 0.25675 0.21618 0.0
C958 C 0.21365 0.2467 0.20713 0.0
N959 N 0.24117 0.24084 0.26925 0.0
C960 C 0.24049 0.23515 0.28681 0.0
C961 C 0.20952 0.23032 0.26169 0.0
C962 C 0.22617 0.23827 0.25659 0.0
C963 C 0.2087 0.22504 0.27995 0.0
C964 C 0.22427 0.22743 0.29254 0.0
H965 H 0.20218 0.24476 0.19647 0.0
H966 H 0.18355 0.23112 0.22023 0.0
H967 H 0.18137 0.22168 0.25214 0.0
O968 O 0.26822 0.22424 0.25946 0.0
O969 O 0.24867 0.2717 0.2658 0.0
O970 O 0.26233 0.28601 0.29444 0.0
O971 O 0.26598 0.2336 0.23176 0.0
O972 O 0.28186 0.25078 0.28662 0.0
O973 O 0.28063 0.2775 0.30419 0.0
O974 O 0.27686 0.32252 0.28055 0.0
O975 O 0.3107 0.28614 0.27248 0.0
O976 O 0.29807 0.25849 0.25538 0.0
O977 O 0.29036 0.32062 0.30884 0.0
O978 O 0.27445 0.29815 0.25587 0.0
O979 O 0.28066 0.27319 0.23952 0.0
C980 C 0.24762 0.27994 0.28279 0.0
C981 C 0.28321 0.21136 0.23576 0.0
C982 C 0.30477 0.19265 0.2437 0.0
C983 C 0.31104 0.19432 0.22591 0.0
C984 C 0.28951 0.21283 0.21794 0.0
C985 C 0.30345 0.20443 0.21315 0.0
C986 C 0.29097 0.20132 0.24854 0.0
C987 C 0.28202 0.26048 0.30303 0.0
C988 C 0.2688 0.22044 0.24126 0.0
C989 C 0.19547 0.23325 0.2303 0.0
C990 C 0.19423 0.22784 0.24847 0.0
C991 C 0.31208 0.27126 0.26185 0.0
C992 C 0.27708 0.34674 0.30556 0.0
C993 C 0.26572 0.37355 0.29974 0.0
C994 C 0.26839 0.37939 0.31929 0.0
C995 C 0.27969 0.35251 0.32518 0.0
C996 C 0.26993 0.35724 0.29291 0.0
C997 C 0.27528 0.36879 0.332 0.0
C998 C 0.2779 0.2897 0.24006 0.0
C999 C 0.28136 0.32965 0.29821 0.0
H1000 H 0.32147 0.18747 0.22164 0.0
H1001 H 0.28374 0.22049 0.20775 0.0
H1002 H 0.30825 0.20559 0.19942 0.0
H1003 H 0.28629 0.20027 0.26235 0.0
H1004 H 0.26498 0.39201 0.32467 0.0
H1005 H 0.28502 0.34442 0.33523 0.0
H1006 H 0.26777 0.35289 0.27773 0.0
H1007 H 0.27721 0.37318 0.34712 0.0
Eu1008 Eu 0.54131 0.50384 0.02045 0.0
C1009 C 0.51551 0.569 0.06358 0.0
N1010 N 0.50704 0.55791 0.04797 0.0
C1011 C 0.47942 0.55527 0.0614 0.0
C1012 C 0.50623 0.57338 0.07897 0.0
C1013 C 0.48919 0.55127 0.04651 0.0
C1014 C 0.48799 0.56627 0.07776 0.0
C1015 C 0.5428 0.58745 0.08016 0.0
C1016 C 0.53361 0.5759 0.06421 0.0
C1017 C 0.53363 0.5917 0.09561 0.0
C1018 C 0.5154 0.58468 0.09502 0.0
Eu1019 Eu 0.52489 0.55144 0.02399 0.0
N1020 N 0.54225 0.57116 0.04925 0.0
C1021 C 0.5609 0.59449 0.08001 0.0
C1022 C 0.55951 0.57886 0.04849 0.0
C1023 C 0.56923 0.59037 0.06398 0.0
H1024 H 0.48238 0.54311 0.03375 0.0
H1025 H 0.58306 0.59624 0.06344 0.0
H1026 H 0.58381 0.512 0.01075 0.0
H1027 H 0.48225 0.46116 0.9796 0.0
H1028 H 0.56562 0.57649 0.03577 0.0
H1029 H 0.56845 0.60342 0.09199 0.0
H1030 H 0.49917 0.48156 0.00683 0.0
H1031 H 0.46528 0.54995 0.0602 0.0
H1032 H 0.54048 0.60049 0.10804 0.0
H1033 H 0.5085 0.58815 0.10701 0.0
H1034 H 0.60117 0.50366 0.98508 0.0
H1035 H 0.48037 0.56932 0.08928 0.0
H1036 H 0.49776 0.45117 0.9528 0.0
N1037 N 0.5592 0.49675 0.99682 0.0
C1038 C 0.55079 0.48512 0.98158 0.0
C1039 C 0.58701 0.49842 0.98388 0.0
C1040 C 0.56031 0.4797 0.96678 0.0
C1041 C 0.57708 0.50329 0.99829 0.0
C1042 C 0.5786 0.48659 0.96804 0.0
N1043 N 0.52362 0.48451 0.99497 0.0
C1044 C 0.50592 0.478 0.99495 0.0
C1045 C 0.52353 0.46659 0.96507 0.0
C1046 C 0.53255 0.47873 0.98068 0.0
C1047 C 0.50518 0.46045 0.96458 0.0
C1048 C 0.49636 0.46613 0.97964 0.0
H1049 H 0.58636 0.48275 0.95694 0.0
H1050 H 0.55849 0.46305 0.93989 0.0
H1051 H 0.52651 0.45112 0.93876 0.0
O1052 O 0.53349 0.48144 0.03802 0.0
O1053 O 0.53409 0.51503 0.99229 0.0
O1054 O 0.51216 0.53052 0.99948 0.0
O1055 O 0.55988 0.48691 0.02858 0.0
O1056 O 0.51593 0.50572 0.03425 0.0
O1057 O 0.50322 0.52644 0.01881 0.0
O1058 O 0.53237 0.57367 0.0061 0.0
O1059 O 0.53259 0.54028 0.05213 0.0
O1060 O 0.55436 0.52468 0.04479 0.0
O1061 O 0.5062 0.56831 0.01609 0.0
O1062 O 0.55063 0.54997 0.01061 0.0
O1063 O 0.56314 0.52876 0.02558 0.0
C1064 C 0.52048 0.5225 0.987 0.0
C1065 C 0.55519 0.4623 0.04787 0.0
C1066 C 0.55068 0.43627 0.06607 0.0
C1067 C 0.56869 0.43523 0.0657 0.0
C1068 C 0.57318 0.46076 0.04792 0.0
C1069 C 0.57981 0.44738 0.05675 0.0
C1070 C 0.54385 0.44997 0.05719 0.0
C1071 C 0.50194 0.51242 0.02846 0.0
C1072 C 0.54915 0.47704 0.03811 0.0
C1073 C 0.55137 0.46752 0.9513 0.0
C1074 C 0.53309 0.46085 0.95056 0.0
C1075 C 0.54621 0.53279 0.05735 0.0
C1076 C 0.51038 0.59249 0.99622 0.0
C1077 C 0.51466 0.61906 0.97877 0.0
C1078 C 0.49631 0.61891 0.9778 0.0
C1079 C 0.49205 0.59285 0.99482 0.0
C1080 C 0.52178 0.60566 0.98793 0.0
C1081 C 0.48514 0.6059 0.98569 0.0
C1082 C 0.56442 0.54278 0.01595 0.0
C1083 C 0.51672 0.57804 0.00624 0.0
H1084 H 0.57417 0.42488 0.0724 0.0
H1085 H 0.5823 0.46996 0.0411 0.0
H1086 H 0.59368 0.44641 0.05661 0.0
H1087 H 0.52996 0.45087 0.05739 0.0
H1088 H 0.49059 0.62899 0.97086 0.0
H1089 H 0.48289 0.58295 0.00078 0.0
H1090 H 0.53594 0.60568 0.9888 0.0
H1091 H 0.47101 0.60596 0.98478 0.0
Eu1092 Eu 0.78412 0.30271 0.26024 0.0
C1093 C 0.74369 0.23776 0.30016 0.0
N1094 N 0.75975 0.24865 0.30634 0.0
C1095 C 0.75252 0.25038 0.3384 0.0
C1096 C 0.73123 0.23316 0.31301 0.0
C1097 C 0.76453 0.2545 0.32522 0.0
C1098 C 0.73575 0.2398 0.33226 0.0
C1099 C 0.72328 0.21943 0.27431 0.0
C1100 C 0.73971 0.2309 0.28093 0.0
C1101 C 0.71082 0.21508 0.28709 0.0
C1102 C 0.71477 0.22193 0.30635 0.0
Eu1103 Eu 0.77858 0.25422 0.28253 0.0
N1104 N 0.75171 0.23582 0.2686 0.0
C1105 C 0.71988 0.21265 0.255 0.0
C1106 C 0.74887 0.22857 0.25003 0.0
C1107 C 0.73281 0.21708 0.24286 0.0
H1108 H 0.7777 0.26203 0.33029 0.0
H1109 H 0.73048 0.21154 0.22803 0.0
H1110 H 0.78636 0.29134 0.21289 0.0
H1111 H 0.82836 0.3533 0.3106 0.0
H1112 H 0.75904 0.23151 0.24083 0.0
H1113 H 0.70743 0.20376 0.24939 0.0
H1114 H 0.80178 0.3298 0.29966 0.0
H1115 H 0.75628 0.25518 0.35333 0.0
H1116 H 0.6981 0.20634 0.28224 0.0
H1117 H 0.70503 0.21832 0.31603 0.0
H1118 H 0.80805 0.29683 0.19011 0.0
H1119 H 0.72653 0.23657 0.34256 0.0
H1120 H 0.85187 0.35978 0.28958 0.0
N1121 N 0.80367 0.30645 0.23657 0.0
C1122 C 0.8193 0.31824 0.24218 0.0
C1123 C 0.81152 0.30265 0.20478 0.0
C1124 C 0.83188 0.32223 0.22927 0.0
C1125 C 0.79935 0.29927 0.21795 0.0
C1126 C 0.82795 0.31397 0.2105 0.0
N1127 N 0.81027 0.32299 0.27298 0.0
C1128 C 0.81213 0.33229 0.29063 0.0
C1129 C 0.83812 0.34002 0.2665 0.0
C1130 C 0.82251 0.32701 0.2607 0.0
C1131 C 0.84033 0.34933 0.2848 0.0
C1132 C 0.82715 0.34561 0.2968 0.0
H1133 H 0.83725 0.31672 0.20017 0.0
H1134 H 0.85749 0.33793 0.2255 0.0
H1135 H 0.86274 0.35371 0.25791 0.0
O1136 O 0.77243 0.32635 0.27019 0.0
O1137 O 0.81047 0.29478 0.27312 0.0
O1138 O 0.80624 0.27163 0.29271 0.0
O1139 O 0.77647 0.32029 0.24035 0.0
O1140 O 0.77224 0.29578 0.28694 0.0
O1141 O 0.78669 0.2781 0.30431 0.0
O1142 O 0.78971 0.23175 0.27003 0.0
O1143 O 0.75239 0.26375 0.27185 0.0
O1144 O 0.75678 0.28498 0.25039 0.0
O1145 O 0.78469 0.23334 0.2995 0.0
O1146 O 0.79161 0.26235 0.25712 0.0
O1147 O 0.77591 0.27821 0.23923 0.0
C1148 C 0.81666 0.2845 0.28538 0.0
C1149 C 0.76458 0.34703 0.24709 0.0
C1150 C 0.74745 0.37093 0.25125 0.0
C1151 C 0.75155 0.37625 0.2336 0.0
C1152 C 0.76858 0.35277 0.2295 0.0
C1153 C 0.76211 0.36726 0.22285 0.0
C1154 C 0.75409 0.35635 0.25816 0.0
C1155 C 0.78138 0.29332 0.30262 0.0
C1156 C 0.77106 0.33097 0.25295 0.0
C1157 C 0.8477 0.33474 0.23524 0.0
C1158 C 0.85074 0.3437 0.25374 0.0
C1159 C 0.74622 0.27343 0.259 0.0
C1160 C 0.80878 0.21997 0.29177 0.0
C1161 C 0.829 0.19874 0.28975 0.0
C1162 C 0.8412 0.21009 0.30368 0.0
C1163 C 0.82121 0.23122 0.30564 0.0
C1164 C 0.8127 0.20364 0.28388 0.0
C1165 C 0.83728 0.22622 0.3116 0.0
C1166 C 0.78256 0.26383 0.24117 0.0
C1167 C 0.7915 0.22489 0.28609 0.0
H1168 H 0.74655 0.38746 0.22815 0.0
H1169 H 0.77669 0.34597 0.22073 0.0
H1170 H 0.76522 0.37147 0.20926 0.0
H1171 H 0.75082 0.35211 0.27171 0.0
H1172 H 0.85374 0.2064 0.30849 0.0
H1173 H 0.81841 0.24377 0.31201 0.0
H1174 H 0.80319 0.19487 0.27319 0.0
H1175 H 0.84673 0.23487 0.3224 0.0
Eu1176 Eu 0.03051 0.54394 0.49792 0.0
C1177 C 0.05769 0.49631 0.56997 0.0
N1178 N 0.04519 0.49133 0.55463 0.0
C1179 C 0.05111 0.4614 0.55219 0.0
C1180 C 0.06747 0.48386 0.57708 0.0
C1181 C 0.0419 0.47426 0.54553 0.0
C1182 C 0.06393 0.4662 0.56805 0.0
C1183 C 0.07498 0.51994 0.59324 0.0
C1184 C 0.06132 0.51412 0.57797 0.0
C1185 C 0.08436 0.50747 0.60078 0.0
C1186 C 0.08062 0.48948 0.5927 0.0
Eu1187 Eu 0.02893 0.5131 0.54543 0.0
N1188 N 0.05238 0.52597 0.56998 0.0
C1189 C 0.07925 0.53824 0.60007 0.0
C1190 C 0.05756 0.544 0.57565 0.0
C1191 C 0.07071 0.55035 0.591 0.0
H1192 H 0.03187 0.47043 0.53335 0.0
H1193 H 0.07447 0.56465 0.59559 0.0
H1194 H 0.02418 0.58596 0.50822 0.0
H1195 H 0.99824 0.49302 0.43852 0.0
H1196 H 0.05213 0.55374 0.56816 0.0
H1197 H 0.0896 0.54323 0.61181 0.0
H1198 H 0.02013 0.50567 0.46576 0.0
H1199 H 0.04822 0.44778 0.54518 0.0
H1200 H 0.09482 0.5117 0.61255 0.0
H1201 H 0.08822 0.48008 0.59841 0.0
H1202 H 1.00397 0.60572 0.49731 0.0
H1203 H 0.07113 0.45622 0.57311 0.0
H1204 H 0.97662 0.51078 0.42619 0.0
N1205 N 0.01208 0.56379 0.48791 0.0
C1206 C 1.00003 0.55773 0.47231 0.0
C1207 C 1.00256 0.59219 0.49029 0.0
C1208 C 0.98838 0.56865 0.46539 0.0
C1209 C 0.01376 0.58085 0.49668 0.0
C1210 C 0.98972 0.58602 0.47466 0.0
N1211 N 0.01061 0.53023 0.47041 0.0
C1212 C 0.01059 0.51355 0.4613 0.0
C1213 C 0.98665 0.5338 0.44725 0.0
C1214 C 0.99928 0.54052 0.46328 0.0
C1215 C 0.98615 0.51643 0.43848 0.0
C1216 C 0.99827 0.50634 0.44546 0.0
H1217 H 0.98106 0.59483 0.46973 0.0
H1218 H 0.96672 0.57014 0.44402 0.0
H1219 H 0.96513 0.5396 0.42822 0.0
O1220 O 0.05079 0.5441 0.47856 0.0
O1221 O 1.00157 0.53378 0.50059 0.0
O1222 O 0.01808 0.52302 0.52043 0.0
O1223 O 0.0468 0.56921 0.49286 0.0
O1224 O 0.03843 0.5154 0.49451 0.0
O1225 O 0.02488 0.49681 0.5158 0.0
O1226 O 0.0085 0.51519 0.56398 0.0
O1227 O 0.05619 0.51954 0.5368 0.0
O1228 O 0.04741 0.54332 0.52559 0.0
O1229 O 0.01016 0.48908 0.54982 0.0
O1230 O 0.02342 0.54186 0.55236 0.0
O1231 O 0.02721 0.55976 0.52686 0.0
C1232 C 1.00206 0.52405 0.51423 0.0
C1233 C 0.05313 0.5688 0.46102 0.0
C1234 C 0.0622 0.56856 0.42933 0.0
C1235 C 0.05064 0.58025 0.42471 0.0
C1236 C 0.04156 0.58053 0.45633 0.0
C1237 C 0.04032 0.58618 0.43821 0.0
C1238 C 0.06344 0.56299 0.4475 0.0
C1239 C 0.03295 0.49925 0.50026 0.0
C1240 C 0.05413 0.56158 0.4794 0.0
C1241 C 0.97581 0.56196 0.44948 0.0
C1242 C 0.97492 0.54458 0.44047 0.0
C1243 C 0.05954 0.53338 0.52739 0.0
C1244 C 1.0022 0.4907 0.58118 0.0
C1245 C 0.99287 0.49389 0.61271 0.0
C1246 C 1.00091 0.47944 0.61744 0.0
C1247 C 0.01017 0.4762 0.5859 0.0
C1248 C 0.9937 0.49946 0.59464 0.0
C1249 C 0.00951 0.47064 0.60402 0.0
C1250 C 0.02376 0.55731 0.54469 0.0
C1251 C 1.0032 0.49782 0.56286 0.0
H1252 H 0.04953 0.58468 0.41068 0.0
H1253 H 0.03346 0.58532 0.46652 0.0
H1254 H 0.03135 0.59513 0.43463 0.0
H1255 H 0.07254 0.55413 0.4512 0.0
H1256 H 1.00025 0.47477 0.63132 0.0
H1257 H 0.01699 0.4693 0.57574 0.0
H1258 H 0.98776 0.51079 0.59102 0.0
H1259 H 0.01563 0.45947 0.60767 0.0
Eu1260 Eu 0.80639 0.77029 0.27502 0.0
C1261 C 0.74136 0.79299 0.23017 0.0
N1262 N 0.75123 0.80182 0.24639 0.0
C1263 C 0.75221 0.82996 0.23352 0.0
C1264 C 0.73714 0.80235 0.21466 0.0
C1265 C 0.75562 0.82016 0.24867 0.0
C1266 C 0.74322 0.82097 0.2163 0.0
C1267 C 0.72251 0.76563 0.21376 0.0
C1268 C 0.73414 0.77482 0.22964 0.0
C1269 C 0.71901 0.77473 0.19795 0.0
C1270 C 0.72628 0.79304 0.19843 0.0
Eu1271 Eu 0.75694 0.78367 0.27069 0.0
N1272 N 0.73789 0.76627 0.24504 0.0
C1273 C 0.71432 0.74775 0.21452 0.0
C1274 C 0.729 0.74932 0.24646 0.0
C1275 C 0.71735 0.73966 0.23108 0.0
H1276 H 0.76129 0.82734 0.2623 0.0
H1277 H 0.71066 0.72604 0.23204 0.0
H1278 H 0.79786 0.72645 0.28308 0.0
H1279 H 0.84961 0.82817 0.31759 0.0
H1280 H 0.73104 0.74333 0.25947 0.0
H1281 H 0.70526 0.74025 0.20263 0.0
H1282 H 0.82896 0.81227 0.29003 0.0
H1283 H 0.75612 0.84447 0.23529 0.0
H1284 H 0.71027 0.76786 0.18552 0.0
H1285 H 0.72286 0.80007 0.18647 0.0
H1286 H 0.80429 0.70838 0.3088 0.0
H1287 H 0.74029 0.82863 0.20469 0.0
H1288 H 0.85832 0.81147 0.34399 0.0
N1289 N 0.81161 0.7513 0.29849 0.0
C1290 C 0.82277 0.75935 0.31423 0.0
C1291 C 0.80938 0.72273 0.31061 0.0
C1292 C 0.82716 0.74934 0.32912 0.0
C1293 C 0.80549 0.73314 0.29617 0.0
C1294 C 0.82011 0.73088 0.32725 0.0
N1295 N 0.8254 0.78713 0.30104 0.0
C1296 C 0.83228 0.805 0.30164 0.0
C1297 C 0.84167 0.78624 0.33156 0.0
C1298 C 0.82999 0.77766 0.31545 0.0
C1299 C 0.84887 0.80456 0.33217 0.0
C1300 C 0.84407 0.814 0.31722 0.0
H1301 H 0.82317 0.72274 0.33837 0.0
H1302 H 0.84203 0.75047 0.35688 0.0
H1303 H 0.85473 0.78274 0.35901 0.0
O1304 O 0.83394 0.77617 0.26715 0.0
O1305 O 0.79459 0.77841 0.3026 0.0
O1306 O 0.77688 0.79889 0.29491 0.0
O1307 O 0.81708 0.74958 0.25908 0.0
O1308 O 0.80503 0.7968 0.26367 0.0
O1309 O 0.78044 0.80796 0.2732 0.0
O1310 O 0.73865 0.77494 0.29154 0.0
O1311 O 0.76405 0.76496 0.24654 0.0
O1312 O 0.79329 0.77704 0.24742 0.0
O1313 O 0.73362 0.7957 0.27446 0.0
O1314 O 0.763 0.75999 0.28568 0.0
O1315 O 0.78247 0.74733 0.26873 0.0
C1316 C 0.78646 0.79184 0.3075 0.0
C1317 C 0.84687 0.75311 0.2493 0.0
C1318 C 0.87356 0.75678 0.23247 0.0
C1319 C 0.8735 0.73833 0.23252 0.0
C1320 C 0.84724 0.73468 0.24891 0.0
C1321 C 0.86045 0.7274 0.24065 0.0
C1322 C 0.86016 0.76428 0.24097 0.0
C1323 C 0.79657 0.81014 0.26741 0.0
C1324 C 0.83242 0.75999 0.25844 0.0
C1325 C 0.83859 0.75795 0.34529 0.0
C1326 C 0.84585 0.77633 0.34648 0.0
C1327 C 0.77869 0.76723 0.23825 0.0
C1328 C 0.72029 0.79498 0.30316 0.0
C1329 C 0.69669 0.79525 0.32413 0.0
C1330 C 0.70412 0.81332 0.33068 0.0
C1331 C 0.72744 0.81297 0.31019 0.0
C1332 C 0.70477 0.78613 0.31011 0.0
C1333 C 0.7193 0.82207 0.32375 0.0
C1334 C 0.76817 0.74585 0.27764 0.0
C1335 C 0.72804 0.78596 0.2875 0.0
H1336 H 0.88362 0.73231 0.22617 0.0
H1337 H 0.83733 0.72584 0.2552 0.0
H1338 H 0.86059 0.71319 0.24055 0.0
H1339 H 0.86007 0.77851 0.24105 0.0
H1340 H 0.69806 0.82076 0.34117 0.0
H1341 H 0.73915 0.82009 0.30494 0.0
H1342 H 0.69907 0.77227 0.3047 0.0
H1343 H 0.72476 0.83603 0.32888 0.0
Eu1344 Eu 0.76544 0.28193 0.79922 0.0
C1345 C 0.80822 0.24973 0.72664 0.0
N1346 N 0.8148 0.26398 0.73992 0.0
C1347 C 0.84354 0.25573 0.74196 0.0
C1348 C 0.81904 0.23755 0.7208 0.0
C1349 C 0.83225 0.26733 0.74736 0.0
C1350 C 0.83686 0.24065 0.72875 0.0
C1351 C 0.78345 0.23277 0.7048 0.0
C1352 C 0.79066 0.24743 0.71879 0.0
C1353 C 0.79403 0.22038 0.69922 0.0
C1354 C 0.8118 0.22277 0.7072 0.0
Eu1355 Eu 0.79485 0.28197 0.75034 0.0
N1356 N 0.78072 0.25958 0.72469 0.0
C1357 C 0.76583 0.23102 0.6967 0.0
C1358 C 0.76363 0.25808 0.71629 0.0
C1359 C 0.75597 0.24384 0.70236 0.0
H1360 H 0.83754 0.27911 0.75735 0.0
H1361 H 0.74242 0.24277 0.69599 0.0
H1362 H 0.72256 0.28454 0.78922 0.0
H1363 H 0.81713 0.32592 0.85052 0.0
H1364 H 0.75554 0.26765 0.71992 0.0
H1365 H 0.75981 0.21997 0.68592 0.0
H1366 H 0.80586 0.30354 0.82308 0.0
H1367 H 0.85737 0.25841 0.748 0.0
H1368 H 0.78865 0.20899 0.68862 0.0
H1369 H 0.81986 0.2132 0.70265 0.0
H1370 H 0.70076 0.30156 0.80142 0.0
H1371 H 0.84561 0.23162 0.72463 0.0
H1372 H 0.79645 0.34189 0.86667 0.0
N1373 N 0.744 0.29822 0.80942 0.0
C1374 C 0.74933 0.3107 0.82487 0.0
C1375 C 0.7144 0.30434 0.80809 0.0
C1376 C 0.73726 0.32062 0.83247 0.0
C1377 C 0.72683 0.2949 0.80102 0.0
C1378 C 0.71962 0.31725 0.8239 0.0
N1379 N 0.77858 0.30501 0.82433 0.0
C1380 C 0.79642 0.30944 0.83041 0.0
C1381 C 0.77314 0.32763 0.84812 0.0
C1382 C 0.76706 0.31408 0.83268 0.0
C1383 C 0.79128 0.33156 0.85487 0.0
C1384 C 0.80298 0.32256 0.84582 0.0
H1385 H 0.70997 0.32459 0.82933 0.0
H1386 H 0.73408 0.34143 0.85422 0.0
H1387 H 0.7655 0.34761 0.86787 0.0
O1388 O 0.76819 0.26244 0.81928 0.0
O1389 O 0.77536 0.31082 0.79515 0.0
O1390 O 0.78507 0.29325 0.77523 0.0
O1391 O 0.74202 0.2644 0.80628 0.0
O1392 O 0.79418 0.27585 0.80387 0.0
O1393 O 0.81206 0.28248 0.77907 0.0
O1394 O 0.79453 0.30226 0.73103 0.0
O1395 O 0.78893 0.25496 0.7603 0.0
O1396 O 0.76584 0.26409 0.77205 0.0
O1397 O 0.81886 0.30194 0.74907 0.0
O1398 O 0.76651 0.2888 0.74543 0.0
O1399 O 0.74873 0.28239 0.77031 0.0
C1400 C 0.78466 0.30961 0.78127 0.0
C1401 C 0.74426 0.25683 0.8377 0.0
C1402 C 0.74739 0.24752 0.86936 0.0
C1403 C 0.73062 0.25161 0.87222 0.0
C1404 C 0.72756 0.26097 0.84071 0.0
C1405 C 0.72089 0.25851 0.85801 0.0
C1406 C 0.75423 0.25062 0.85222 0.0
C1407 C 0.80971 0.27789 0.79649 0.0
C1408 C 0.75102 0.25756 0.81918 0.0
C1409 C 0.74318 0.33372 0.84818 0.0
C1410 C 0.76106 0.33721 0.85599 0.0
C1411 C 0.77588 0.25201 0.77063 0.0
C1412 C 0.82104 0.31065 0.71815 0.0
C1413 C 0.82188 0.32144 0.68728 0.0
C1414 C 0.83689 0.31379 0.68454 0.0
C1415 C 0.836 0.30287 0.71538 0.0
C1416 C 0.81418 0.31999 0.70413 0.0
C1417 C 0.8439 0.3045 0.69859 0.0
C1418 C 0.75099 0.28687 0.75284 0.0
C1419 C 0.81153 0.30865 0.73484 0.0
H1420 H 0.72472 0.24892 0.88511 0.0
H1421 H 0.71954 0.26579 0.82966 0.0
H1422 H 0.70793 0.26147 0.86021 0.0
H1423 H 0.76719 0.24767 0.8499 0.0
H1424 H 0.84302 0.31483 0.67151 0.0
H1425 H 0.84159 0.29561 0.72606 0.0
H1426 H 0.80271 0.32612 0.70634 0.0
H1427 H 0.85542 0.29851 0.69644 0.0
Eu1428 Eu 0.76836 0.7531 0.75842 0.0
C1429 C 0.82946 0.81064 0.80453 0.0
N1430 N 0.8138 0.80169 0.80926 0.0
C1431 C 0.82797 0.79904 0.84017 0.0
C1432 C 0.84511 0.81384 0.81749 0.0
C1433 C 0.81278 0.79618 0.82691 0.0
C1434 C 0.84421 0.80784 0.83544 0.0
C1435 C 0.84592 0.826 0.78142 0.0
C1436 C 0.82986 0.81668 0.78663 0.0
C1437 C 0.86151 0.82905 0.79428 0.0
C1438 C 0.8611 0.82303 0.81226 0.0
Eu1439 Eu 0.78886 0.79909 0.78625 0.0
N1440 N 0.81459 0.81348 0.77436 0.0
C1441 C 0.84578 0.83222 0.76351 0.0
C1442 C 0.81416 0.82061 0.7575 0.0
C1443 C 0.82978 0.82968 0.75159 0.0
H1444 H 0.80019 0.79014 0.83112 0.0
H1445 H 0.82938 0.83506 0.73804 0.0
H1446 H 0.75907 0.7616 0.71284 0.0
H1447 H 0.72501 0.72021 0.80612 0.0
H1448 H 0.80175 0.82003 0.74891 0.0
H1449 H 0.85784 0.83941 0.75898 0.0
H1450 H 0.7532 0.73559 0.79677 0.0
H1451 H 0.82709 0.79467 0.85413 0.0
H1452 H 0.87395 0.83621 0.79051 0.0
H1453 H 0.87323 0.82562 0.82206 0.0
H1454 H 0.73315 0.75651 0.68853 0.0
H1455 H 0.85592 0.81012 0.84582 0.0
H1456 H 0.69774 0.71399 0.7831 0.0
N1457 N 0.74441 0.75049 0.73424 0.0
C1458 C 0.72848 0.74155 0.73833 0.0
C1459 C 0.73161 0.75243 0.70254 0.0
C1460 C 0.71339 0.73792 0.72457 0.0
C1461 C 0.74625 0.75564 0.71655 0.0
C1462 C 0.7151 0.74359 0.70658 0.0
N1463 N 0.74186 0.73983 0.76957 0.0
C1464 C 0.74132 0.73388 0.78701 0.0
C1465 C 0.71088 0.72655 0.76086 0.0
C1466 C 0.72723 0.73588 0.75634 0.0
C1467 C 0.71006 0.72115 0.77908 0.0
C1468 C 0.72538 0.72475 0.79217 0.0
H1469 H 0.70383 0.741 0.69562 0.0
H1470 H 0.68542 0.7257 0.71865 0.0
H1471 H 0.68322 0.71581 0.75038 0.0
O1472 O 0.77411 0.72698 0.76399 0.0
O1473 O 0.74731 0.77014 0.76702 0.0
O1474 O 0.76071 0.7888 0.79377 0.0
O1475 O 0.76553 0.73159 0.73522 0.0
O1476 O 0.78299 0.75312 0.78822 0.0
O1477 O 0.77718 0.7784 0.80436 0.0
O1478 O 0.78162 0.82489 0.78173 0.0
O1479 O 0.80984 0.78189 0.778 0.0
O1480 O 0.79667 0.76331 0.75108 0.0
O1481 O 0.79114 0.8196 0.81046 0.0
O1482 O 0.77438 0.7988 0.75635 0.0
O1483 O 0.78047 0.77363 0.74027 0.0
C1484 C 0.74616 0.78067 0.78264 0.0
C1485 C 0.78639 0.71276 0.7393 0.0
C1486 C 0.80601 0.6917 0.74401 0.0
C1487 C 0.81544 0.69791 0.72928 0.0
C1488 C 0.79572 0.71896 0.72443 0.0
C1489 C 0.81019 0.71147 0.71943 0.0
C1490 C 0.79148 0.69904 0.74884 0.0
C1491 C 0.78063 0.76219 0.80416 0.0
C1492 C 0.77192 0.72083 0.74597 0.0
C1493 C 0.69713 0.72863 0.72908 0.0
C1494 C 0.69588 0.72297 0.74715 0.0
C1495 C 0.81116 0.77168 0.76223 0.0
C1496 C 0.78353 0.84874 0.80746 0.0
C1497 C 0.7711 0.87523 0.80328 0.0
C1498 C 0.77617 0.88155 0.82258 0.0
C1499 C 0.78885 0.85511 0.82675 0.0
C1500 C 0.77498 0.85903 0.79571 0.0
C1501 C 0.78523 0.87156 0.83424 0.0
C1502 C 0.77733 0.78997 0.74053 0.0
C1503 C 0.78545 0.83081 0.79979 0.0
H1504 H 0.82664 0.69212 0.7253 0.0
H1505 H 0.792 0.72968 0.71685 0.0
H1506 H 0.81739 0.71624 0.70801 0.0
H1507 H 0.78435 0.6943 0.76039 0.0
H1508 H 0.77309 0.89413 0.82855 0.0
H1509 H 0.79548 0.84728 0.83609 0.0
H1510 H 0.77059 0.85413 0.78085 0.0
H1511 H 0.78918 0.8764 0.84913 0.0
Eu1512 Eu 0.55732 0.54003 0.53853 0.0
C1513 C 0.49684 0.47854 0.49452 0.0
N1514 N 0.50424 0.49468 0.4893 0.0
C1515 C 0.50163 0.48158 0.45683 0.0
C1516 C 0.4921 0.46309 0.48104 0.0
C1517 C 0.50544 0.49658 0.47058 0.0
C1518 C 0.49527 0.46466 0.46217 0.0
C1519 C 0.48243 0.46189 0.51805 0.0
C1520 C 0.4921 0.47788 0.51284 0.0
C1521 C 0.47807 0.44645 0.50476 0.0
C1522 C 0.48315 0.44695 0.48642 0.0
Eu1523 Eu 0.50965 0.51946 0.51327 0.0
N1524 N 0.49568 0.49328 0.5251 0.0
C1525 C 0.47652 0.46216 0.53607 0.0
C1526 C 0.4886 0.494 0.54197 0.0
C1527 C 0.47939 0.47837 0.54798 0.0
H1528 H 0.50813 0.50978 0.46613 0.0
H1529 H 0.47422 0.47892 0.5616 0.0
H1530 H 0.54794 0.55105 0.58355 0.0
H1531 H 0.58687 0.58361 0.48832 0.0
H1532 H 0.48994 0.50666 0.55068 0.0
H1533 H 0.46909 0.45012 0.54059 0.0
H1534 H 0.57194 0.55539 0.49826 0.0
H1535 H 0.50288 0.4832 0.44204 0.0
H1536 H 0.47006 0.43428 0.50823 0.0
H1537 H 0.47925 0.43501 0.47621 0.0
H1538 H 0.55297 0.57772 0.60697 0.0
H1539 H 0.49177 0.45312 0.4514 0.0
H1540 H 0.59439 0.61114 0.51127 0.0
N1541 N 0.55891 0.56505 0.56154 0.0
C1542 C 0.56821 0.58084 0.55717 0.0
C1543 C 0.55705 0.57886 0.59292 0.0
C1544 C 0.57186 0.5964 0.57055 0.0
C1545 C 0.55376 0.56379 0.57931 0.0
C1546 C 0.56608 0.59525 0.58852 0.0
N1547 N 0.57016 0.56654 0.52633 0.0
C1548 C 0.57476 0.56716 0.50833 0.0
C1549 C 0.583 0.59806 0.53418 0.0
C1550 C 0.57402 0.5816 0.53919 0.0
C1551 C 0.58765 0.59871 0.51569 0.0
C1552 C 0.58338 0.58323 0.50268 0.0
H1553 H 0.56874 0.60687 0.59918 0.0
H1554 H 0.58423 0.6246 0.57586 0.0
H1555 H 0.59372 0.62612 0.54398 0.0
O1556 O 0.58606 0.54166 0.5395 0.0
O1557 O 0.53958 0.56038 0.52944 0.0
O1558 O 0.52159 0.54603 0.50267 0.0
O1559 O 0.57315 0.53781 0.56485 0.0
O1560 O 0.5582 0.52676 0.50868 0.0
O1561 O 0.53022 0.52543 0.49232 0.0
O1562 O 0.48765 0.53169 0.52178 0.0
O1563 O 0.52249 0.50049 0.53147 0.0
O1564 O 0.55265 0.50901 0.53135 0.0
O1565 O 0.48505 0.51594 0.49424 0.0
O1566 O 0.51335 0.53671 0.54183 0.0
O1567 O 0.53712 0.52802 0.55701 0.0
C1568 C 0.52962 0.56104 0.51328 0.0
C1569 C 0.59832 0.52483 0.56222 0.0
C1570 C 0.61902 0.50536 0.55434 0.0
C1571 C 0.61885 0.49956 0.57252 0.0
C1572 C 0.59843 0.51906 0.58042 0.0
C1573 C 0.60855 0.50638 0.58546 0.0
C1574 C 0.60862 0.51788 0.54922 0.0
C1575 C 0.54742 0.52518 0.49272 0.0
C1576 C 0.58788 0.53845 0.55722 0.0
C1577 C 0.58125 0.61259 0.5657 0.0
C1578 C 0.58672 0.61343 0.54757 0.0
C1579 C 0.53865 0.49678 0.53357 0.0
C1580 C 0.46856 0.53906 0.49724 0.0
C1581 C 0.44506 0.55607 0.49885 0.0
C1582 C 0.44889 0.56291 0.48181 0.0
C1583 C 0.47257 0.54583 0.48015 0.0
C1584 C 0.45492 0.54429 0.50655 0.0
C1585 C 0.46274 0.55783 0.47252 0.0
C1586 C 0.52142 0.53227 0.55722 0.0
C1587 C 0.47779 0.52607 0.50563 0.0
H1588 H 0.62707 0.49017 0.57693 0.0
H1589 H 0.59075 0.52442 0.59081 0.0
H1590 H 0.60862 0.50205 0.59952 0.0
H1591 H 0.60869 0.52228 0.53517 0.0
H1592 H 0.44119 0.57206 0.47577 0.0
H1593 H 0.48312 0.54181 0.47272 0.0
H1594 H 0.45176 0.53898 0.51972 0.0
H1595 H 0.46577 0.56306 0.45935 0.0
Eu1596 Eu 1.00674 0.52758 0.03422 0.0
C1597 C 0.0685 0.56743 0.9998 0.0
N1598 N 0.05796 0.55106 0.99363 0.0
C1599 C 0.05246 0.56043 0.9626 0.0
C1600 C 0.07044 0.58125 0.98783 0.0
C1601 C 0.05114 0.54708 0.97486 0.0
C1602 C 0.0618 0.57771 0.96923 0.0
C1603 C 0.09032 0.58642 0.02392 0.0
C1604 C 0.07855 0.57001 0.01762 0.0
C1605 C 0.09145 0.60048 0.01242 0.0
C1606 C 0.08157 0.59789 0.99442 0.0
Eu1607 Eu 0.05664 0.53005 0.01645 0.0
N1608 N 0.07719 0.55627 0.02861 0.0
C1609 C 0.10097 0.58804 0.04141 0.0
C1610 C 0.08849 0.55721 0.04484 0.0
C1611 C 0.10027 0.57326 0.05175 0.0
H1612 H 0.04504 0.53356 0.9689 0.0
H1613 H 0.10887 0.57417 0.06495 0.0
H1614 H 0.01628 0.52162 0.08097 0.0
H1615 H 0.95686 0.48766 0.97945 0.0
H1616 H 0.08825 0.54558 0.05245 0.0
H1617 H 0.11017 0.60045 0.04674 0.0
H1618 H 0.97955 0.51422 0.9936 0.0
H1619 H 0.04662 0.55725 0.94791 0.0
H1620 H 0.10032 0.61324 0.01709 0.0
H1621 H 0.08306 0.60868 0.98545 0.0
H1622 H 0.0084 0.49837 0.10184 0.0
H1623 H 0.06303 0.58795 0.9596 0.0
H1624 H 0.94805 0.46279 0.99864 0.0
N1625 N 1.00054 0.50658 0.05624 0.0
C1626 C 0.98754 0.49201 0.04954 0.0
C1627 C 1.00268 0.49626 0.08708 0.0
C1628 C 0.98237 0.4785 0.06126 0.0
C1629 C 1.00743 0.50929 0.07499 0.0
C1630 C 0.99031 0.48068 0.08013 0.0
N1631 N 0.98441 0.50363 0.01966 0.0
C1632 C 0.97622 0.50307 0.00169 0.0
C1633 C 0.96604 0.47537 0.02358 0.0
C1634 C 0.9792 0.49054 0.03088 0.0
C1635 C 0.95816 0.47426 0.00477 0.0
C1636 C 0.96316 0.48825 0.99385 0.0
H1637 H 0.98664 0.47064 0.08958 0.0
H1638 H 0.96534 0.45281 0.06271 0.0
H1639 H 0.95125 0.44996 0.02973 0.0
O1640 O 0.98126 0.53695 0.02846 0.0
O1641 O 0.01298 0.49954 0.02323 0.0
O1642 O 0.04008 0.50168 0.01043 0.0
O1643 O 0.99664 0.54256 0.0568 0.0
O1644 O 0.01463 0.53742 0.00713 0.0
O1645 O 0.03311 0.52062 0.99431 0.0
O1646 O 0.07977 0.5175 0.02564 0.0
O1647 O 0.05107 0.55473 0.0355 0.0
O1648 O 0.02165 0.55407 0.02557 0.0
O1649 O 0.07399 0.52298 0.99627 0.0
O1650 O 0.04831 0.51764 0.04255 0.0
O1651 O 0.03034 0.53491 0.05629 0.0
C1652 C 0.02504 0.49221 0.01459 0.0
C1653 C 0.96901 0.55371 0.05375 0.0
C1654 C 0.94231 0.56689 0.04986 0.0
C1655 C 0.9435 0.57067 0.06974 0.0
C1656 C 0.96979 0.55759 0.07358 0.0
C1657 C 0.95716 0.56608 0.08147 0.0
C1658 C 0.95532 0.55863 0.04183 0.0
C1659 C 0.01828 0.5267 0.99333 0.0
C1660 C 0.98242 0.54426 0.04602 0.0
C1661 C 0.96934 0.46335 0.05393 0.0
C1662 C 0.96126 0.46176 0.03515 0.0
C1663 C 0.03742 0.56311 0.03337 0.0
C1664 C 0.09961 0.50933 0.00205 0.0
C1665 C 0.12289 0.4915 0.00589 0.0
C1666 C 0.12675 0.49395 0.98733 0.0
C1667 C 0.1039 0.51166 0.98352 0.0
C1668 C 0.10935 0.49932 0.01339 0.0
C1669 C 0.11735 0.50404 0.97628 0.0
C1670 C 0.04374 0.52654 0.05734 0.0
C1671 C 0.08421 0.5165 0.00837 0.0
H1672 H 0.93384 0.57728 0.07624 0.0
H1673 H 0.98013 0.55394 0.08308 0.0
H1674 H 0.95791 0.56902 0.09676 0.0
H1675 H 0.95465 0.55583 0.02654 0.0
H1676 H 0.13712 0.48802 0.98139 0.0
H1677 H 0.09669 0.51925 0.97443 0.0
H1678 H 0.10618 0.49723 0.02762 0.0
H1679 H 0.12042 0.50584 0.96197 0.0
H1680 H 0.98249 0.20551 0.94517 0.0
H1681 H 0.987 0.17621 0.95423 0.0
H1682 H 0.0395 0.20059 0.98158 0.0
H1683 H 0.03522 0.22971 0.97147 0.0
H1684 H 0.0428 0.16969 0.96978 0.0
H1685 H 0.99795 0.18636 0.00603 0.0
H1686 H 0.96973 0.19583 0.01206 0.0
H1687 H 0.94025 0.14866 0.97713 0.0
H1688 H 0.96831 0.13896 0.97083 0.0
H1689 H 0.04918 0.0955 0.02544 0.0
H1690 H 0.04648 0.12472 0.01495 0.0
H1691 H 0.99902 0.09977 0.97783 0.0
H1692 H 1.00201 0.07047 0.98793 0.0
H1693 H 0.99387 0.13099 0.99543 0.0
H1694 H 0.04074 0.11425 0.96133 0.0
H1695 H 0.06962 0.10481 0.95912 0.0
H1696 H 0.09633 0.1531 0.99412 0.0
H1697 H 0.06756 0.16269 0.9968 0.0
C1698 C 0.99512 0.20459 0.95284 0.0
C1699 C 0.00853 0.22014 0.95729 0.0
C1700 C 0.99765 0.18771 0.9584 0.0
C1701 C 0.01349 0.1857 0.9693 0.0
C1702 C 0.02707 0.20126 0.97334 0.0
C1703 C 0.02463 0.2181 0.96748 0.0
C1704 C 0.01581 0.16765 0.97648 0.0
C1705 C 0.03206 0.16148 0.97559 0.0
C1706 C 1.00206 0.15625 0.98411 0.0
C1707 C 0.98521 0.16207 0.98777 0.0
C1708 C 0.98544 0.17809 0.99953 0.0
C1709 C 0.96949 0.18347 0.00303 0.0
C1710 C 0.95322 0.1729 0.9949 0.0
C1711 C 0.95287 0.15688 0.98333 0.0
C1712 C 0.96878 0.1514 0.97984 0.0
C1713 C 0.03829 0.09604 0.01488 0.0
C1714 C 0.02601 0.08014 0.0075 0.0
C1715 C 0.0367 0.11299 0.00881 0.0
C1716 C 0.02261 0.11487 0.99524 0.0
C1717 C 0.01012 0.09907 0.98819 0.0
C1718 C 0.01187 0.08211 0.99403 0.0
C1719 C 0.0207 0.13309 0.98854 0.0
C1720 C 1.00455 0.13927 0.98958 0.0
C1721 C 0.03465 0.1446 0.98143 0.0
C1722 C 0.05198 0.13911 0.9794 0.0
C1723 C 0.05277 0.12281 0.96863 0.0
C1724 C 0.06911 0.11743 0.96729 0.0
C1725 C 0.0848 0.12833 0.97651 0.0
C1726 C 0.08417 0.14467 0.98701 0.0
C1727 C 0.06785 0.15009 0.98843 0.0
H1728 H 0.09743 0.12412 0.9755 0.0
H1729 H 0.94087 0.17708 0.99765 0.0
H1730 H 0.11695 0.77151 0.12271 0.0
H1731 H 0.14224 0.77013 0.14614 0.0
H1732 H 0.1319 0.8163 0.18014 0.0
H1733 H 0.10593 0.81717 0.15708 0.0
H1734 H 0.17072 0.81628 0.17069 0.0
H1735 H 0.12276 0.78335 0.19887 0.0
H1736 H 0.09623 0.76004 0.19996 0.0
H1737 H 0.12574 0.71878 0.18541 0.0
H1738 H 0.15239 0.74189 0.18391 0.0
H1739 H 0.23395 0.81437 0.25143 0.0
H1740 H 0.20696 0.81634 0.23066 0.0
H1741 H 0.204 0.76178 0.2056 0.0
H1742 H 0.23087 0.75985 0.22651 0.0
H1743 H 0.17133 0.7667 0.21112 0.0
H1744 H 0.21863 0.79837 0.18175 0.0
H1745 H 0.24566 0.82084 0.17994 0.0
H1746 H 0.21811 0.86348 0.1955 0.0
H1747 H 0.19097 0.84122 0.19765 0.0
C1748 C 0.12 0.78136 0.1352 0.0
C1749 C 0.10938 0.79451 0.1379 0.0
C1750 C 0.13449 0.78053 0.14865 0.0
C1751 C 0.13918 0.79314 0.165 0.0
C1752 C 0.12867 0.8064 0.1677 0.0
C1753 C 0.11377 0.80687 0.15451 0.0
C1754 C 0.15515 0.79249 0.17896 0.0
C1755 C 0.17072 0.80561 0.17977 0.0
C1756 C 0.15556 0.77829 0.19046 0.0
C1757 C 0.13949 0.76437 0.19098 0.0
C1758 C 0.12353 0.76932 0.19562 0.0
C1759 C 0.10848 0.75614 0.19639 0.0
C1760 C 0.10928 0.73794 0.19268 0.0
C1761 C 0.12513 0.73288 0.18823 0.0
C1762 C 0.14021 0.74602 0.18741 0.0
C1763 C 0.22755 0.80284 0.24142 0.0
C1764 C 0.23475 0.78708 0.24038 0.0
C1765 C 0.2121 0.80397 0.22946 0.0
C1766 C 0.20334 0.7893 0.21617 0.0
C1767 C 0.21036 0.77338 0.21553 0.0
C1768 C 0.22586 0.7723 0.22741 0.0
C1769 C 0.18697 0.79057 0.20297 0.0
C1770 C 0.17135 0.77748 0.20217 0.0
C1771 C 0.18657 0.80471 0.19133 0.0
C1772 C 0.20283 0.81813 0.19005 0.0
C1773 C 0.21838 0.81253 0.18493 0.0
C1774 C 0.23371 0.82523 0.18382 0.0
C1775 C 0.23361 0.84358 0.18765 0.0
C1776 C 0.21817 0.84926 0.19256 0.0
C1777 C 0.20281 0.83661 0.19372 0.0
H1778 H 0.24549 0.85339 0.18677 0.0
H1779 H 0.09763 0.72775 0.19332 0.0
H1780 H 0.53111 0.82998 0.4365 0.0
H1781 H 0.53364 0.86139 0.4498 0.0
H1782 H 0.49404 0.84512 0.4867 0.0
H1783 H 0.492 0.81331 0.47388 0.0
H1784 H 0.48866 0.87665 0.46618 0.0
H1785 H 0.53227 0.85796 0.50747 0.0
H1786 H 0.55817 0.84471 0.51758 0.0
H1787 H 0.59185 0.88286 0.48981 0.0
H1788 H 0.56605 0.89615 0.47923 0.0
H1789 H 0.50455 0.96343 0.52411 0.0
H1790 H 0.50038 0.93124 0.51348 0.0
H1791 H 0.54215 0.94189 0.47767 0.0
H1792 H 0.5451 0.9742 0.48692 0.0
H1793 H 0.54551 0.91274 0.49925 0.0
H1794 H 0.50093 0.93082 0.45741 0.0
H1795 H 0.47517 0.94517 0.44983 0.0
H1796 H 0.44323 0.90856 0.48082 0.0
H1797 H 0.46893 0.89418 0.48888 0.0
C1798 C 0.52296 0.83297 0.44754 0.0
C1799 C 0.51135 0.81888 0.45406 0.0
C1800 C 0.52445 0.85108 0.45519 0.0
C1801 C 0.51403 0.85597 0.46933 0.0
C1802 C 0.50227 0.84194 0.47582 0.0
C1803 C 0.50116 0.82366 0.46853 0.0
C1804 C 0.51556 0.87564 0.47707 0.0
C1805 C 0.50104 0.88439 0.47367 0.0
C1806 C 0.53173 0.88621 0.48661 0.0
C1807 C 0.54716 0.87786 0.49228 0.0
C1808 C 0.54514 0.86334 0.50324 0.0
C1809 C 0.55982 0.85587 0.50913 0.0
C1810 C 0.57664 0.86289 0.50427 0.0
C1811 C 0.5788 0.87739 0.49351 0.0
C1812 C 0.56415 0.88489 0.48755 0.0
C1813 C 0.51237 0.95914 0.51343 0.0
C1814 C 0.52479 0.97194 0.50609 0.0
C1815 C 0.51021 0.94049 0.50756 0.0
C1816 C 0.52086 0.93379 0.49457 0.0
C1817 C 0.53366 0.94644 0.48765 0.0
C1818 C 0.5354 0.96511 0.49308 0.0
C1819 C 0.5187 0.91374 0.48824 0.0
C1820 C 0.53312 0.90496 0.49181 0.0
C1821 C 0.50243 0.90315 0.47898 0.0
C1822 C 0.48689 0.91154 0.47391 0.0
C1823 C 0.48845 0.92591 0.46273 0.0
C1824 C 0.47386 0.93404 0.45833 0.0
C1825 C 0.45758 0.92778 0.46485 0.0
C1826 C 0.45585 0.91338 0.47577 0.0
C1827 C 0.47043 0.90523 0.48027 0.0
H1828 H 0.4463 0.93411 0.46145 0.0
H1829 H 0.588 0.85713 0.50891 0.0
H1830 H 0.49347 0.26429 0.61866 0.0
H1831 H 0.467 0.26144 0.63557 0.0
H1832 H 0.4938 0.30549 0.67727 0.0
H1833 H 0.52073 0.30686 0.66142 0.0
H1834 H 0.4769 0.28531 0.69556 0.0
H1835 H 0.45673 0.30586 0.63655 0.0
H1836 H 0.451 0.3048 0.60165 0.0
H1837 H 0.41722 0.25288 0.59863 0.0
H1838 H 0.4229 0.25355 0.63348 0.0
H1839 H 0.39909 0.29272 0.73952 0.0
H1840 H 0.42317 0.30057 0.71968 0.0
H1841 H 0.40272 0.25177 0.68193 0.0
H1842 H 0.37852 0.24432 0.70137 0.0
H1843 H 0.41591 0.27629 0.66169 0.0
H1844 H 0.43762 0.25632 0.72121 0.0
H1845 H 0.44353 0.25827 0.75617 0.0
H1846 H 0.47459 0.31141 0.758 0.0
H1847 H 0.46869 0.30985 0.72307 0.0
C1848 C 0.49363 0.27328 0.63148 0.0
C1849 C 0.50914 0.28577 0.63875 0.0
C1850 C 0.47837 0.27186 0.64108 0.0
C1851 C 0.47789 0.28358 0.65762 0.0
C1852 C 0.49351 0.29618 0.66467 0.0
C1853 C 0.50897 0.29705 0.65554 0.0
C1854 C 0.46154 0.28249 0.66798 0.0
C1855 C 0.46365 0.28372 0.68801 0.0
C1856 C 0.44395 0.28 0.6585 0.0
C1857 C 0.44034 0.27971 0.63759 0.0
C1858 C 0.44813 0.2942 0.62842 0.0
C1859 C 0.44489 0.29366 0.60866 0.0
C1860 C 0.43379 0.27877 0.59793 0.0
C1861 C 0.42583 0.26441 0.60696 0.0
C1862 C 0.42903 0.26487 0.62671 0.0
C1863 C 0.39936 0.2841 0.72655 0.0
C1864 C 0.38678 0.26802 0.72188 0.0
C1865 C 0.41333 0.28839 0.71537 0.0
C1866 C 0.41518 0.27653 0.69947 0.0
C1867 C 0.40181 0.26115 0.6941 0.0
C1868 C 0.38785 0.25694 0.70516 0.0
C1869 C 0.43142 0.27928 0.68908 0.0
C1870 C 0.42926 0.27821 0.66911 0.0
C1871 C 0.44898 0.28218 0.6986 0.0
C1872 C 0.45256 0.28303 0.71957 0.0
C1873 C 0.44562 0.26845 0.72909 0.0
C1874 C 0.44898 0.26948 0.7489 0.0
C1875 C 0.45939 0.28497 0.75931 0.0
C1876 C 0.4665 0.29944 0.74993 0.0
C1877 C 0.46317 0.29848 0.73014 0.0
H1878 H 0.46197 0.28574 0.77463 0.0
H1879 H 0.43132 0.27837 0.58263 0.0
H1880 H 0.00834 0.81569 0.67901 0.0
H1881 H 0.01102 0.84158 0.6605 0.0
H1882 H 0.04353 0.81664 0.62408 0.0
H1883 H 0.04034 0.79049 0.64205 0.0
H1884 H 0.0566 0.85576 0.63933 0.0
H1885 H 1.00639 0.8141 0.60515 0.0
H1886 H 0.97712 0.79385 0.60161 0.0
H1887 H 0.95289 0.83798 0.62079 0.0
H1888 H 0.98212 0.85846 0.62475 0.0
H1889 H 0.0628 0.91112 0.56655 0.0
H1890 H 0.05574 0.88353 0.58172 0.0
H1891 H 0.01403 0.90436 0.60765 0.0
H1892 H 0.02092 0.93191 0.59205 0.0
H1893 H 1.00478 0.86751 0.59831 0.0
H1894 H 0.05446 0.90928 0.63237 0.0
H1895 H 0.08347 0.92997 0.63546 0.0
H1896 H 0.10847 0.88612 0.61722 0.0
H1897 H 0.07953 0.86521 0.61372 0.0
C1898 C 0.01621 0.81583 0.66719 0.0
C1899 C 0.02421 0.80108 0.66207 0.0
C1900 C 0.01763 0.83057 0.65654 0.0
C1901 C 0.02742 0.83103 0.64084 0.0
C1902 C 0.03589 0.81658 0.6361 0.0
C1903 C 0.03408 0.80166 0.64641 0.0
C1904 C 0.02883 0.84653 0.6293 0.0
C1905 C 0.04531 0.85821 0.63022 0.0
C1906 C 0.01403 0.85003 0.61772 0.0
C1907 C 0.99648 0.83775 0.61552 0.0
C1908 C 0.99487 0.81944 0.60885 0.0
C1909 C 0.97827 0.80793 0.60671 0.0
C1910 C 0.96316 0.8146 0.61104 0.0
C1911 C 0.96462 0.83282 0.61749 0.0
C1912 C 0.98119 0.84438 0.61968 0.0
C1913 C 0.05176 0.90955 0.57501 0.0
C1914 C 0.04231 0.92356 0.57802 0.0
C1915 C 0.04782 0.89385 0.58383 0.0
C1916 C 0.03457 0.89194 0.5962 0.0
C1917 C 0.02434 0.90547 0.59824 0.0
C1918 C 0.02822 0.92118 0.58928 0.0
C1919 C 0.03262 0.87668 0.60819 0.0
C1920 C 0.01606 0.86511 0.60745 0.0
C1921 C 0.04733 0.87331 0.62007 0.0
C1922 C 0.06482 0.88572 0.62265 0.0
C1923 C 0.06614 0.90407 0.62894 0.0
C1924 C 0.08256 0.91584 0.63076 0.0
C1925 C 0.0978 0.90937 0.62651 0.0
C1926 C 0.09665 0.89111 0.62049 0.0
C1927 C 0.08025 0.87929 0.61861 0.0
H1928 H 0.1105 0.9185 0.6279 0.0
H1929 H 0.95032 0.80568 0.60935 0.0
H1930 H 0.47331 0.79251 0.87243 0.0
H1931 H 0.4432 0.78843 0.85682 0.0
H1932 H 0.46334 0.8051 0.80562 0.0
H1933 H 0.49419 0.80971 0.8217 0.0
H1934 H 0.43508 0.81998 0.81074 0.0
H1935 H 0.4423 0.75949 0.80944 0.0
H1936 H 0.45031 0.7322 0.82123 0.0
H1937 H 0.41263 0.73309 0.8619 0.0
H1938 H 0.40452 0.76051 0.85049 0.0
H1939 H 0.34363 0.79934 0.76656 0.0
H1940 H 0.3756 0.80188 0.7752 0.0
H1941 H 0.36548 0.77978 0.82757 0.0
H1942 H 0.33347 0.77661 0.81851 0.0
H1943 H 0.39005 0.76619 0.81731 0.0
H1944 H 0.38852 0.8313 0.82167 0.0
H1945 H 0.38236 0.85911 0.80943 0.0
H1946 H 0.40896 0.84787 0.76052 0.0
H1947 H 0.41587 0.82035 0.77292 0.0
C1948 C 0.47158 0.79522 0.85775 0.0
C1949 C 0.48659 0.80148 0.84851 0.0
C1950 C 0.45407 0.7927 0.84868 0.0
C1951 C 0.45048 0.79613 0.82974 0.0
C1952 C 0.46542 0.8022 0.8202 0.0
C1953 C 0.4832 0.80469 0.82937 0.0
C1954 C 0.43117 0.7939 0.82067 0.0
C1955 C 0.42536 0.80804 0.81196 0.0
C1956 C 0.41798 0.77851 0.82213 0.0
C1957 C 0.42291 0.76214 0.8292 0.0
C1958 C 0.43583 0.75395 0.821 0.0
C1959 C 0.44036 0.73843 0.82759 0.0
C1960 C 0.43201 0.73094 0.84233 0.0
C1961 C 0.41909 0.73892 0.85049 0.0
C1962 C 0.4145 0.75443 0.84395 0.0
C1963 C 0.34816 0.79522 0.78006 0.0
C1964 C 0.3356 0.78777 0.79176 0.0
C1965 C 0.36673 0.79682 0.78516 0.0
C1966 C 0.37365 0.79142 0.80242 0.0
C1967 C 0.36102 0.78412 0.81415 0.0
C1968 C 0.34247 0.78229 0.80893 0.0
C1969 C 0.39371 0.79262 0.8081 0.0
C1970 C 0.39971 0.77818 0.8161 0.0
C1971 C 0.40708 0.80763 0.80579 0.0
C1972 C 0.40251 0.82376 0.79809 0.0
C1973 C 0.39297 0.83476 0.80828 0.0
C1974 C 0.38945 0.8505 0.80137 0.0
C1975 C 0.39511 0.85518 0.78411 0.0
C1976 C 0.40454 0.84422 0.77385 0.0
C1977 C 0.4084 0.82865 0.7809 0.0
H1978 H 0.39225 0.86732 0.77873 0.0
H1979 H 0.43554 0.71892 0.84741 0.0
H1980 H 0.5164 0.19386 0.1737 0.0
H1981 H 0.51527 0.16343 0.1574 0.0
H1982 H 0.50965 0.1841 0.10311 0.0
H1983 H 0.50915 0.21339 0.11903 0.0
H1984 H 0.49295 0.1547 0.09614 0.0
H1985 H 0.55155 0.17417 0.12937 0.0
H1986 H 0.57474 0.18436 0.15669 0.0
H1987 H 0.55743 0.13584 0.18144 0.0
H1988 H 0.534 0.12545 0.15435 0.0
H1989 H 0.53511 0.09335 0.0407 0.0
H1990 H 0.53135 0.1197 0.0613 0.0
H1991 H 0.50812 0.08533 0.10054 0.0
H1992 H 0.51066 0.05872 0.07934 0.0
H1993 H 0.5378 0.11888 0.11659 0.0
H1994 H 0.48068 0.10027 0.07635 0.0
H1995 H 0.46293 0.09236 0.04486 0.0
H1996 H 0.48453 0.14409 0.02881 0.0
H1997 H 0.50266 0.15218 0.06009 0.0
C1998 C 0.51425 0.19167 0.15831 0.0
C1999 C 0.51284 0.20623 0.14779 0.0
C2000 C 0.51403 0.17429 0.14889 0.0
C2001 C 0.51281 0.17116 0.12876 0.0
C2002 C 0.51056 0.18564 0.1185 0.0
C2003 C 0.51034 0.20264 0.12776 0.0
C2004 C 0.51415 0.15328 0.11797 0.0
C2005 C 0.50294 0.14712 0.10076 0.0
C2006 C 0.52702 0.14284 0.12354 0.0
C2007 C 0.54086 0.14917 0.13999 0.0
C2008 C 0.55259 0.16576 0.14073 0.0
C2009 C 0.56579 0.17155 0.15615 0.0
C2010 C 0.56751 0.16079 0.17083 0.0
C2011 C 0.55605 0.14419 0.17009 0.0
C2012 C 0.5428 0.13834 0.15471 0.0
C2013 C 0.5288 0.09122 0.05343 0.0
C2014 C 0.5229 0.07364 0.05797 0.0
C2015 C 0.52691 0.10644 0.06541 0.0
C2016 C 0.51949 0.10462 0.08258 0.0
C2017 C 0.51397 0.08717 0.08746 0.0
C2018 C 0.51544 0.07191 0.07524 0.0
C2019 C 0.5169 0.12091 0.09497 0.0
C2020 C 0.52783 0.12662 0.11232 0.0
C2021 C 0.50442 0.13148 0.08911 0.0
C2022 C 0.49312 0.12677 0.07052 0.0
C2023 C 0.48173 0.10991 0.06607 0.0
C2024 C 0.4716 0.1054 0.04825 0.0
C2025 C 0.47263 0.1177 0.03482 0.0
C2026 C 0.48375 0.13456 0.03921 0.0
C2027 C 0.49395 0.13912 0.05699 0.0
H2028 H 0.4648 0.11417 0.02103 0.0
H2029 H 0.57776 0.16529 0.18274 0.0
H2030 H 0.0807 0.29246 0.31356 0.0
H2031 H 0.10873 0.2886 0.30134 0.0
H2032 H 0.13701 0.30622 0.35726 0.0
H2033 H 0.10914 0.31067 0.36926 0.0
H2034 H 0.15788 0.31944 0.33482 0.0
H2035 H 0.1251 0.25834 0.33179 0.0
H2036 H 0.09974 0.23325 0.32162 0.0
H2037 H 0.10623 0.23879 0.26304 0.0
H2038 H 0.13148 0.26405 0.27288 0.0
H2039 H 0.23982 0.29179 0.31856 0.0
H2040 H 0.21119 0.29528 0.32911 0.0
H2041 H 0.1852 0.27678 0.27237 0.0
H2042 H 0.21389 0.27287 0.26189 0.0
H2043 H 0.16298 0.26442 0.29402 0.0
H2044 H 0.19541 0.32405 0.29549 0.0
H2045 H 0.22114 0.34898 0.30408 0.0
H2046 H 0.21505 0.34736 0.36328 0.0
H2047 H 0.18952 0.32211 0.35509 0.0
C2048 C 0.09285 0.29551 0.32332 0.0
C2049 C 0.09226 0.30185 0.34257 0.0
C2050 C 0.1091 0.29312 0.3163 0.0
C2051 C 0.12555 0.29668 0.32823 0.0
C2052 C 0.12491 0.30321 0.34742 0.0
C2053 C 0.10872 0.30572 0.35439 0.0
C2054 C 0.1433 0.29388 0.32098 0.0
C2055 C 0.15887 0.30721 0.32613 0.0
C2056 C 0.14518 0.27835 0.30895 0.0
C2057 C 0.13004 0.26318 0.30307 0.0
C2058 C 0.12103 0.25427 0.31675 0.0
C2059 C 0.1067 0.24002 0.31104 0.0
C2060 C 0.10135 0.23447 0.2917 0.0
C2061 C 0.11036 0.24312 0.27802 0.0
C2062 C 0.12469 0.2574 0.28365 0.0
C2063 C 0.22808 0.28846 0.30821 0.0
C2064 C 0.22958 0.28205 0.28921 0.0
C2065 C 0.21147 0.29062 0.3143 0.0
C2066 C 0.19551 0.2868 0.30164 0.0
C2067 C 0.19696 0.28004 0.28271 0.0
C2068 C 0.21358 0.27778 0.27663 0.0
C2069 C 0.17755 0.28985 0.30807 0.0
C2070 C 0.16197 0.27662 0.30274 0.0
C2071 C 0.1756 0.30559 0.3197 0.0
C2072 C 0.19064 0.32107 0.32468 0.0
C2073 C 0.1996 0.32895 0.31035 0.0
C2074 C 0.21416 0.34313 0.31514 0.0
C2075 C 0.21974 0.34974 0.33421 0.0
C2076 C 0.21073 0.34221 0.34852 0.0
C2077 C 0.19621 0.32795 0.34381 0.0
H2078 H 0.23104 0.3607 0.33787 0.0
H2079 H 0.09025 0.22343 0.28731 0.0
H2080 H 0.961 0.99345 0.21008 0.0
H2081 H 0.97144 0.99899 0.17962 0.0
H2082 H 0.94721 0.04592 0.17925 0.0
H2083 H 0.93624 0.04016 0.20997 0.0
H2084 H 0.9442 0.02665 0.14282 0.0
H2085 H 0.99132 0.05095 0.19346 0.0
H2086 H 0.01081 0.04967 0.22281 0.0
H2087 H 0.03106 1.0062 0.19501 0.0
H2088 H 0.01152 0.00706 0.16557 0.0
H2089 H 0.9941 0.05326 0.06698 0.0
H2090 H 0.98085 0.05347 0.09703 0.0
H2091 H 0.00866 0.01169 0.11331 0.0
H2092 H 0.02279 0.01247 0.08414 0.0
H2093 H 0.00955 0.03264 0.14273 0.0
H2094 H 0.96125 1.00526 0.09392 0.0
H2095 H 0.94239 1.00531 0.06377 0.0
H2096 H 0.92449 0.05222 0.08714 0.0
H2097 H 0.94343 0.05257 0.11737 0.0
C2098 C 0.9577 1.00489 0.20351 0.0
C2099 C 0.94798 0.01651 0.21265 0.0
C2100 C 0.96373 0.00806 0.18604 0.0
C2101 C 0.96053 0.02313 0.17729 0.0
C2102 C 0.94998 0.03427 0.18578 0.0
C2103 C 0.9437 0.03097 0.20333 0.0
C2104 C 0.96914 0.02748 0.1599 0.0
C2105 C 0.95851 0.02825 0.14286 0.0
C2106 C 0.98781 0.02926 0.15976 0.0
C2107 C 0.9999 0.02903 0.17733 0.0
C2108 C 0.99989 0.04108 0.19362 0.0
C2109 C 0.01094 0.04043 0.21028 0.0
C2110 C 0.02215 0.02785 0.21078 0.0
C2111 C 0.02238 0.01594 0.1946 0.0
C2112 C 0.01134 0.01653 0.17792 0.0
C2113 C 0.99737 0.04421 0.07706 0.0
C2114 C 0.00944 0.03285 0.0732 0.0
C2115 C 0.98971 0.04421 0.09421 0.0
C2116 C 0.99338 0.03231 0.10747 0.0
C2117 C 1.00555 0.02106 0.10352 0.0
C2118 C 0.0136 0.02147 0.08674 0.0
C2119 C 0.98461 0.03128 0.12538 0.0
C2120 C 0.99524 0.03117 0.14261 0.0
C2121 C 0.96595 0.02982 0.12558 0.0
C2122 C 0.95381 0.029 0.10785 0.0
C2123 C 0.95325 0.01556 0.09263 0.0
C2124 C 0.94259 0.01554 0.07552 0.0
C2125 C 0.93227 0.02878 0.07353 0.0
C2126 C 0.93249 0.04198 0.08871 0.0
C2127 C 0.94316 0.04208 0.10584 0.0
H2128 H 0.92409 0.02881 0.06024 0.0
H2129 H 0.03068 0.02735 0.22369 0.0
H2130 H 0.2537 0.66374 0.50287 0.0
H2131 H 0.25112 0.67868 0.47441 0.0
H2132 H 0.28972 0.65083 0.45087 0.0
H2133 H 0.29188 0.63507 0.47948 0.0
H2134 H 0.29686 0.69131 0.45627 0.0
H2135 H 0.25344 0.64066 0.42726 0.0
H2136 H 0.22704 0.6166 0.42587 0.0
H2137 H 0.1942 0.65613 0.43443 0.0
H2138 H 0.22045 0.68044 0.43621 0.0
H2139 H 0.26809 0.72501 0.36536 0.0
H2140 H 0.27951 0.70805 0.38926 0.0
H2141 H 0.2522 0.7336 0.43099 0.0
H2142 H 0.24192 0.75213 0.40764 0.0
H2143 H 0.24234 0.69127 0.41272 0.0
H2144 H 0.28524 0.74156 0.44531 0.0
H2145 H 0.31156 0.76595 0.45087 0.0
H2146 H 0.34523 0.72761 0.44002 0.0
H2147 H 0.31907 0.70327 0.43309 0.0
C2148 C 0.26136 0.66046 0.49154 0.0
C2149 C 0.27305 0.64838 0.49328 0.0
C2150 C 0.25979 0.66892 0.47526 0.0
C2151 C 0.27016 0.66567 0.4607 0.0
C2152 C 0.28152 0.65323 0.46205 0.0
C2153 C 0.28273 0.64432 0.47825 0.0
C2154 C 0.27044 0.67716 0.44541 0.0
C2155 C 0.2852 0.69108 0.44622 0.0
C2156 C 0.25486 0.67698 0.43313 0.0
C2157 C 0.23896 0.66239 0.43193 0.0
C2158 C 0.24062 0.64424 0.42898 0.0
C2159 C 0.22567 0.63054 0.42811 0.0
C2160 C 0.20895 0.63483 0.43007 0.0
C2161 C 0.20715 0.65282 0.4329 0.0
C2162 C 0.22206 0.66657 0.43381 0.0
C2163 C 0.26523 0.72792 0.37981 0.0
C2164 C 0.25386 0.73992 0.38448 0.0
C2165 C 0.27179 0.71809 0.39344 0.0
C2166 C 0.26679 0.71981 0.41175 0.0
C2167 C 0.25637 0.73243 0.41688 0.0
C2168 C 0.25024 0.74271 0.40342 0.0
C2169 C 0.2687 0.70562 0.42376 0.0
C2170 C 0.25424 0.69125 0.4223 0.0
C2171 C 0.28449 0.70556 0.43563 0.0
C2172 C 0.30006 0.7206 0.43809 0.0
C2173 C 0.29816 0.73841 0.44334 0.0
C2174 C 0.31311 0.75227 0.44682 0.0
C2175 C 0.33009 0.74844 0.44549 0.0
C2176 C 0.33212 0.73074 0.44063 0.0
C2177 C 0.31721 0.71691 0.4368 0.0
H2178 H 0.34168 0.75915 0.44845 0.0
H2179 H 0.19739 0.62421 0.42939 0.0
H2180 H 0.66951 0.0536 0.69367 0.0
H2181 H 0.65634 0.05123 0.66039 0.0
H2182 H 0.61641 0.00637 0.67011 0.0
H2183 H 0.62937 0.00891 0.70317 0.0
H2184 H 0.62459 1.0048 0.63282 0.0
H2185 H 0.6121 0.04836 0.68415 0.0
H2186 H 0.62104 0.0752 0.70786 0.0
H2187 H 0.63852 0.10707 0.66416 0.0
H2188 H 0.62999 0.08031 0.64028 0.0
H2189 H 0.54439 1.00335 0.57906 0.0
H2190 H 0.56604 1.0044 0.60693 0.0
H2191 H 0.58838 0.0596 0.60026 0.0
H2192 H 0.56406 0.05948 0.5755 0.0
H2193 H 0.59472 0.05748 0.63252 0.0
H2194 H 0.60341 0.0146 0.57944 0.0
H2195 H 0.5936 0.98759 0.556 0.0
H2196 H 0.58358 0.95495 0.60124 0.0
H2197 H 0.59326 0.98173 0.62489 0.0
C2198 C 0.65841 0.04278 0.6883 0.0
C2199 C 0.65009 0.03156 0.7006 0.0
C2200 C 0.65098 0.04142 0.66943 0.0
C2201 C 0.63534 0.02882 0.6631 0.0
C2202 C 0.6285 0.01616 0.67486 0.0
C2203 C 0.63577 0.01767 0.69368 0.0
C2204 C 0.62371 0.03108 0.64638 0.0
C2205 C 0.61823 0.01643 0.63234 0.0
C2206 C 0.61556 0.04631 0.64605 0.0
C2207 C 0.62074 0.06228 0.66052 0.0
C2208 C 0.61803 0.06104 0.67966 0.0
C2209 C 0.623 0.07625 0.69311 0.0
C2210 C 0.63043 0.09282 0.68754 0.0
C2211 C 0.63286 0.09422 0.66848 0.0
C2212 C 0.628 0.07903 0.655 0.0
C2213 C 0.55376 0.01574 0.58406 0.0
C2214 C 0.55368 0.03108 0.57477 0.0
C2215 C 0.56635 0.01626 0.59961 0.0
C2216 C 0.57984 0.03158 0.6047 0.0
C2217 C 0.57853 0.04738 0.59633 0.0
C2218 C 0.56491 0.04729 0.58198 0.0
C2219 C 0.59543 0.03118 0.61838 0.0
C2220 C 0.6015 0.04613 0.63209 0.0
C2221 C 0.60428 0.01629 0.61817 0.0
C2222 C 0.59906 1.00016 0.6039 0.0
C2223 C 0.59917 1.00165 0.58435 0.0
C2224 C 0.59361 0.98639 0.57104 0.0
C2225 C 0.58798 0.96957 0.57713 0.0
C2226 C 0.58798 0.96796 0.59654 0.0
C2227 C 0.59356 0.98316 0.6099 0.0
H2228 H 0.58362 0.95779 0.56681 0.0
H2229 H 0.63426 0.10458 0.69797 0.0
H2230 H 0.30488 0.3461 0.99153 0.0
H2231 H 0.30414 0.33084 0.95937 0.0
H2232 H 0.28185 0.3732 0.93571 0.0
H2233 H 0.2828 0.38865 0.9678 0.0
H2234 H 0.26368 0.33837 0.92078 0.0
H2235 H 0.32321 0.37204 0.93178 0.0
H2236 H 0.35258 0.38222 0.95048 0.0
H2237 H 0.36189 0.32802 0.94555 0.0
H2238 H 0.33226 0.31742 0.92718 0.0
H2239 H 0.27249 0.32128 0.82323 0.0
H2240 H 0.27399 0.33411 0.85617 0.0
H2241 H 0.30267 0.29376 0.8745 0.0
H2242 H 0.301 0.28059 0.84137 0.0
H2243 H 0.31766 0.32585 0.89324 0.0
H2244 H 0.2584 0.29226 0.88094 0.0
H2245 H 0.22711 0.28124 0.86736 0.0
H2246 H 0.21648 0.33474 0.87637 0.0
H2247 H 0.24777 0.34618 0.88964 0.0
C2248 C 0.29996 0.35224 0.97946 0.0
C2249 C 0.29397 0.36863 0.98222 0.0
C2250 C 0.29954 0.3435 0.96108 0.0
C2251 C 0.29296 0.35087 0.94508 0.0
C2252 C 0.28697 0.36724 0.94782 0.0
C2253 C 0.28763 0.37611 0.96617 0.0
C2254 C 0.29212 0.34145 0.92549 0.0
C2255 C 0.27549 0.33587 0.9146 0.0
C2256 C 0.30747 0.3376 0.91772 0.0
C2257 C 0.32547 0.34392 0.92826 0.0
C2258 C 0.33147 0.36226 0.93479 0.0
C2259 C 0.34818 0.36811 0.94532 0.0
C2260 C 0.35914 0.35578 0.94922 0.0
C2261 C 0.35339 0.33756 0.94253 0.0
C2262 C 0.33663 0.33162 0.93206 0.0
C2263 C 0.2791 0.31501 0.83419 0.0
C2264 C 0.28676 0.2999 0.82945 0.0
C2265 C 0.27987 0.32237 0.85314 0.0
C2266 C 0.28827 0.31486 0.86799 0.0
C2267 C 0.29609 0.29986 0.86336 0.0
C2268 C 0.29521 0.29237 0.84434 0.0
C2269 C 0.2891 0.32296 0.8882 0.0
C2270 C 0.30578 0.3283 0.89929 0.0
C2271 C 0.27372 0.32659 0.89619 0.0
C2272 C 0.25546 0.32008 0.88627 0.0
C2273 C 0.24949 0.30174 0.8797 0.0
C2274 C 0.23173 0.2954 0.87216 0.0
C2275 C 0.21981 0.30726 0.87129 0.0
C2276 C 0.22572 0.32557 0.87727 0.0
C2277 C 0.24346 0.33198 0.88475 0.0
H2278 H 0.20596 0.30229 0.8661 0.0
H2279 H 0.37208 0.36035 0.95739 0.0
H2280 H 0.92126 1.00557 0.32535 0.0
H2281 H 0.93633 1.00492 0.35717 0.0
H2282 H 0.98543 0.03266 0.34034 0.0
H2283 H 0.97065 0.03191 0.30813 0.0
H2284 H 0.99408 0.01101 0.36137 0.0
H2285 H 0.95513 0.05331 0.36986 0.0
H2286 H 0.92647 0.06376 0.36768 0.0
H2287 H 0.90503 0.0228 0.40113 0.0
H2288 H 0.93349 0.01198 0.40333 0.0
H2289 H 0.03713 0.03464 0.45695 0.0
H2290 H 0.0238 0.03431 0.42413 0.0
H2291 H 0.9737 1.00612 0.43835 0.0
H2292 H 0.98663 0.00831 0.47149 0.0
H2293 H 0.96633 0.02906 0.41839 0.0
H2294 H 1.0071 0.98669 0.4083 0.0
H2295 H 0.03679 0.97835 0.40994 0.0
H2296 H 0.05619 0.02297 0.38021 0.0
H2297 H 0.02657 0.0314 0.37804 0.0
C2298 C 0.93529 0.01143 0.32848 0.0
C2299 C 0.94478 0.01883 0.31431 0.0
C2300 C 0.94391 0.01124 0.34676 0.0
C2301 C 0.96202 0.0192 0.35155 0.0
C2302 C 0.9715 0.02643 0.33722 0.0
C2303 C 0.96303 0.02605 0.31877 0.0
C2304 C 0.97117 0.01993 0.37135 0.0
C2305 C 0.98802 0.01514 0.3738 0.0
C2306 C 0.96342 0.02516 0.3878 0.0
C2307 C 0.94637 0.03175 0.38661 0.0
C2308 C 0.94426 0.04648 0.37667 0.0
C2309 C 0.92806 0.05248 0.37544 0.0
C2310 C 0.91393 0.04392 0.38422 0.0
C2311 C 0.91598 0.0294 0.39431 0.0
C2312 C 0.93215 0.02335 0.39558 0.0
C2313 C 0.02332 0.02826 0.4529 0.0
C2314 C 0.01291 0.02137 0.46661 0.0
C2315 C 0.01569 0.02788 0.43407 0.0
C2316 C 0.99771 0.01981 0.42836 0.0
C2317 C 0.98754 0.01249 0.44216 0.0
C2318 C 0.99496 0.01358 0.4611 0.0
C2319 C 0.98906 0.01972 0.40845 0.0
C2320 C 0.97233 0.02479 0.40597 0.0
C2321 C 0.99705 0.01502 0.392 0.0
C2322 C 0.0147 0.00973 0.39313 0.0
C2323 C 0.01772 0.99472 0.40215 0.0
C2324 C 0.03452 0.98999 0.40319 0.0
C2325 C 0.04839 1.00021 0.39539 0.0
C2326 C 0.04545 0.01508 0.3863 0.0
C2327 C 0.02865 0.01979 0.38506 0.0
H2328 H 0.0614 0.99655 0.39631 0.0
H2329 H 0.90139 0.04857 0.38324 0.0
H2330 H 0.24122 0.66264 0.59195 0.0
H2331 H 0.24556 0.6769 0.62475 0.0
H2332 H 0.29971 0.66817 0.63072 0.0
H2333 H 0.29517 0.6532 0.59796 0.0
H2334 H 0.28171 0.66857 0.66579 0.0
H2335 H 0.29564 0.70373 0.61386 0.0
H2336 H 0.28914 0.71327 0.58214 0.0
H2337 H 0.24262 0.73116 0.59947 0.0
H2338 H 0.24868 0.72144 0.63118 0.0
H2339 H 0.30684 0.74585 0.73476 0.0
H2340 H 0.30665 0.72344 0.70772 0.0
H2341 H 0.25552 0.73279 0.68415 0.0
H2342 H 0.25609 0.75583 0.71077 0.0
H2343 H 0.27678 0.73181 0.65821 0.0
H2344 H 0.26115 0.69602 0.70914 0.0
H2345 H 0.26572 0.68513 0.74048 0.0
H2346 H 0.31358 0.66831 0.72574 0.0
H2347 H 0.30944 0.67937 0.69439 0.0
C2348 C 0.25379 0.66315 0.60056 0.0
C2349 C 0.268 0.65728 0.59266 0.0
C2350 C 0.25622 0.67116 0.61921 0.0
C2351 C 0.27305 0.67382 0.62975 0.0
C2352 C 0.28668 0.66616 0.62261 0.0
C2353 C 0.28411 0.65775 0.604 0.0
C2354 C 0.27717 0.68756 0.64615 0.0
C2355 C 0.28091 0.68247 0.66426 0.0
C2356 C 0.27602 0.70558 0.64382 0.0
C2357 C 0.27255 0.71172 0.62484 0.0
C2358 C 0.28396 0.70958 0.61086 0.0
C2359 C 0.28036 0.71503 0.59288 0.0
C2360 C 0.26546 0.72278 0.58878 0.0
C2361 C 0.25415 0.72514 0.60266 0.0
C2362 C 0.25767 0.71968 0.62064 0.0
C2363 C 0.29559 0.74305 0.72377 0.0
C2364 C 0.28138 0.75227 0.72467 0.0
C2365 C 0.29547 0.73026 0.70846 0.0
C2366 C 0.28094 0.72632 0.69425 0.0
C2367 C 0.26683 0.73571 0.69509 0.0
C2368 C 0.26716 0.74881 0.71015 0.0
C2369 C 0.28049 0.71275 0.6781 0.0
C2370 C 0.27773 0.71796 0.65989 0.0
C2371 C 0.2824 0.69489 0.68045 0.0
C2372 C 0.28502 0.68858 0.69944 0.0
C2373 C 0.27272 0.69013 0.71263 0.0
C2374 C 0.27522 0.6839 0.73038 0.0
C2375 C 0.28986 0.67592 0.73503 0.0
C2376 C 0.30219 0.6744 0.72206 0.0
C2377 C 0.29978 0.68065 0.70431 0.0
H2378 H 0.29164 0.67085 0.74866 0.0
H2379 H 0.26269 0.72699 0.57485 0.0
H2380 H 0.63012 0.03088 0.78347 0.0
H2381 H 0.61434 0.03359 0.81111 0.0
H2382 H 0.66434 0.05008 0.84727 0.0
H2383 H 0.68046 0.04664 0.81934 0.0
H2384 H 0.64124 0.02546 0.86183 0.0
H2385 H 0.63889 0.08138 0.8365 0.0
H2386 H 0.63367 0.10131 0.81198 0.0
H2387 H 0.57887 0.07481 0.80065 0.0
H2388 H 0.5838 0.0546 0.82494 0.0
H2389 H 0.59807 0.06458 0.93591 0.0
H2390 H 0.61654 0.05348 0.91318 0.0
H2391 H 0.56987 0.03475 0.87238 0.0
H2392 H 0.55134 0.04612 0.89503 0.0
H2393 H 0.59335 0.06135 0.86173 0.0
H2394 H 0.59552 1.00527 0.8869 0.0
H2395 H 0.6008 0.98467 0.91069 0.0
H2396 H 0.65557 0.01119 0.92247 0.0
H2397 H 0.65058 0.03207 0.89891 0.0
C2398 C 0.63779 0.03515 0.79728 0.0
C2399 C 0.65645 0.03865 0.79941 0.0
C2400 C 0.62876 0.03678 0.81302 0.0
C2401 C 0.63824 0.04241 0.83104 0.0
C2402 C 0.65691 0.04584 0.83333 0.0
C2403 C 0.66604 0.0439 0.8175 0.0
C2404 C 0.62831 0.04414 0.8474 0.0
C2405 C 0.63097 0.03355 0.86211 0.0
C2406 C 0.61469 0.05437 0.84726 0.0
C2407 C 0.61175 0.06643 0.83249 0.0
C2408 C 0.62576 0.07972 0.82868 0.0
C2409 C 0.62284 0.09109 0.81484 0.0
C2410 C 0.60596 0.08932 0.80475 0.0
C2411 C 0.59194 0.07618 0.80848 0.0
C2412 C 0.59478 0.06479 0.82231 0.0
C2413 C 0.59175 0.05775 0.92221 0.0
C2414 C 0.57347 0.05665 0.91681 0.0
C2415 C 0.60225 0.05117 0.90942 0.0
C2416 C 0.59449 0.04335 0.89122 0.0
C2417 C 0.57598 0.04079 0.88645 0.0
C2418 C 0.56552 0.04753 0.89917 0.0
C2419 C 0.60583 0.04222 0.87598 0.0
C2420 C 0.60359 0.05319 0.86155 0.0
C2421 C 0.6198 0.03242 0.87652 0.0
C2422 C 0.62261 0.02038 0.8913 0.0
C2423 C 0.60863 0.00689 0.89476 0.0
C2424 C 0.61159 0.9951 0.90814 0.0
C2425 C 0.62849 0.99665 0.91813 0.0
C2426 C 0.64247 0.01001 0.91476 0.0
C2427 C 0.63959 0.02182 0.90138 0.0
H2428 H 0.63077 0.98747 0.92843 0.0
H2429 H 0.60372 0.09814 0.79406 0.0
H2430 H 0.2897 0.38567 0.09537 0.0
H2431 H 0.2844 0.37509 0.12639 0.0
H2432 H 0.28841 0.32143 0.1039 0.0
H2433 H 0.29348 0.33169 0.07331 0.0
H2434 H 0.26159 0.31955 0.12394 0.0
H2435 H 0.32268 0.34984 0.1327 0.0
H2436 H 0.34799 0.37508 0.13399 0.0
H2437 H 0.32631 0.40521 0.17711 0.0
H2438 H 0.30069 0.38024 0.17583 0.0
H2439 H 0.28787 0.27785 0.20572 0.0
H2440 H 0.28794 0.29249 0.17655 0.0
H2441 H 0.26881 0.33678 0.20468 0.0
H2442 H 0.26785 0.32183 0.23374 0.0
H2443 H 0.30065 0.3458 0.18337 0.0
H2444 H 0.24062 0.31289 0.17588 0.0
H2445 H 0.21676 0.28628 0.17466 0.0
H2446 H 0.23839 0.25957 0.12898 0.0
H2447 H 0.26257 0.28593 0.13012 0.0
C2448 C 0.28934 0.37161 0.09705 0.0
C2449 C 0.29218 0.35961 0.08179 0.0
C2450 C 0.28641 0.36558 0.11483 0.0
C2451 C 0.28613 0.34743 0.11763 0.0
C2452 C 0.28853 0.33547 0.10224 0.0
C2453 C 0.29155 0.34144 0.08468 0.0
C2454 C 0.2835 0.34055 0.1364 0.0
C2455 C 0.27022 0.3253 0.13689 0.0
C2456 C 0.29448 0.34812 0.1535 0.0
C2457 C 0.30962 0.3633 0.15393 0.0
C2458 C 0.32318 0.36195 0.14226 0.0
C2459 C 0.33761 0.37618 0.14303 0.0
C2460 C 0.33872 0.39178 0.15556 0.0
C2461 C 0.3254 0.39316 0.16736 0.0
C2462 C 0.31091 0.37897 0.1666 0.0
C2463 C 0.28342 0.29058 0.2057 0.0
C2464 C 0.27773 0.29856 0.22215 0.0
C2465 C 0.28354 0.29897 0.18899 0.0
C2466 C 0.27837 0.31573 0.18841 0.0
C2467 C 0.27286 0.32385 0.2048 0.0
C2468 C 0.2723 0.31525 0.2214 0.0
C2469 C 0.27897 0.32476 0.17071 0.0
C2470 C 0.29189 0.34029 0.17045 0.0
C2471 C 0.26784 0.31732 0.15374 0.0
C2472 C 0.25352 0.30132 0.15323 0.0
C2473 C 0.24042 0.30127 0.16572 0.0
C2474 C 0.22679 0.28626 0.16498 0.0
C2475 C 0.22606 0.27125 0.15174 0.0
C2476 C 0.23898 0.27121 0.13922 0.0
C2477 C 0.25264 0.28619 0.1399 0.0
H2478 H 0.2155 0.25964 0.15121 0.0
H2479 H 0.34993 0.40276 0.15617 0.0
H2480 H 0.26902 0.97579 0.0055 0.0
H2481 H 0.24294 0.99002 0.00684 0.0
H2482 H 0.21014 0.93846 0.01112 0.0
H2483 H 0.23592 0.92416 0.00922 0.0
H2484 H 0.19391 0.95609 0.98683 0.0
H2485 H 0.22403 0.96744 0.05003 0.0
H2486 H 0.24963 0.97762 0.07478 0.0
H2487 H 0.25448 0.03146 0.05965 0.0
H2488 H 0.22901 0.02152 0.03462 0.0
H2489 H 0.13101 0.97998 0.04774 0.0
H2490 H 0.15238 0.96801 0.02909 0.0
H2491 H 0.17002 0.02067 0.01214 0.0
H2492 H 0.14836 0.03255 0.03046 0.0
H2493 H 0.1942 1.00549 0.03785 0.0
H2494 H 0.1568 0.99084 0.97798 0.0
H2495 H 0.12959 0.977 0.95657 0.0
H2496 H 0.13595 0.92464 0.97051 0.0
H2497 H 0.16305 0.93818 0.99222 0.0
C2498 C 0.25626 0.96761 0.00692 0.0
C2499 C 0.25433 0.94901 0.00737 0.0
C2500 C 0.24144 0.97567 0.00754 0.0
C2501 C 0.22478 0.96519 0.00903 0.0
C2502 C 0.22293 0.94665 0.00974 0.0
C2503 C 0.23764 0.93858 0.00886 0.0
C2504 C 0.20929 0.9736 0.01067 0.0
C2505 C 0.19388 0.9669 0.99796 0.0
C2506 C 0.20952 0.98765 0.02519 0.0
C2507 C 0.22476 0.99371 0.04031 0.0
C2508 C 0.23064 0.98142 0.05188 0.0
C2509 C 0.24511 0.98715 0.06598 0.0
C2510 C 0.25371 1.00516 0.06874 0.0
C2511 C 0.24782 0.0175 0.05746 0.0
C2512 C 0.23336 0.01183 0.04333 0.0
C2513 C 0.13919 0.98877 0.03959 0.0
C2514 C 0.13867 0.00712 0.0407 0.0
C2515 C 0.15108 0.98194 0.02878 0.0
C2516 C 0.16255 0.99355 0.01931 0.0
C2517 C 0.16102 0.01161 0.01924 0.0
C2518 C 0.14893 0.01837 0.02983 0.0
C2519 C 0.17874 0.98799 0.01403 0.0
C2520 C 0.19434 0.99508 0.02631 0.0
C2521 C 0.17835 0.97375 0.9997 0.0
C2522 C 0.16192 0.96557 0.98682 0.0
C2523 C 0.15231 0.9764 0.97663 0.0
C2524 C 0.13692 0.9686 0.96439 0.0
C2525 C 0.13103 0.94996 0.96219 0.0
C2526 C 0.14052 0.93907 0.97222 0.0
C2527 C 0.15592 0.94681 0.98447 0.0
H2528 H 0.11913 0.94394 0.95269 0.0
H2529 H 0.26492 0.00958 0.07966 0.0
H2530 H 0.70523 0.66183 0.02648 0.0
H2531 H 0.67844 0.63925 0.02811 0.0
H2532 H 0.69366 0.60441 0.98372 0.0
H2533 H 0.72101 0.62673 0.98263 0.0
H2534 H 0.65477 0.61536 0.98135 0.0
H2535 H 0.69819 0.58917 0.01893 0.0
H2536 H 0.72203 0.59055 0.04522 0.0
H2537 H 0.68771 0.60562 0.08556 0.0
H2538 H 0.66376 0.60463 0.05947 0.0
H2539 H 0.57968 0.54684 0.98327 0.0
H2540 H 0.60944 0.56335 0.98006 0.0
H2541 H 0.61826 0.5788 0.0409 0.0
H2542 H 0.58981 0.55988 0.04413 0.0
H2543 H 0.64681 0.57674 0.03336 0.0
H2544 H 0.60521 0.60721 0.0006 0.0
H2545 H 0.58041 0.61022 0.97704 0.0
H2546 H 0.60886 0.59344 0.93159 0.0
H2547 H 0.63374 0.59017 0.95489 0.0
C2548 C 0.70288 0.64931 0.01713 0.0
C2549 C 0.71508 0.64603 0.00434 0.0
C2550 C 0.68763 0.63643 0.01811 0.0
C2551 C 0.68407 0.62021 0.00602 0.0
C2552 C 0.69622 0.61686 0.99319 0.0
C2553 C 0.71179 0.62956 0.99259 0.0
C2554 C 0.66733 0.60711 0.00648 0.0
C2555 C 0.65301 0.60667 0.99253 0.0
C2556 C 0.66487 0.59645 0.02155 0.0
C2557 C 0.67927 0.59702 0.03722 0.0
C2558 C 0.6958 0.59298 0.03338 0.0
C2559 C 0.70931 0.59364 0.04826 0.0
C2560 C 0.70641 0.59822 0.06704 0.0
C2561 C 0.68996 0.6021 0.071 0.0
C2562 C 0.67641 0.60148 0.05618 0.0
C2563 C 0.58816 0.55369 0.99589 0.0
C2564 C 0.58238 0.55255 0.01388 0.0
C2565 C 0.60509 0.56341 0.99407 0.0
C2566 C 0.61611 0.5732 0.01011 0.0
C2567 C 0.61028 0.5716 0.02816 0.0
C2568 C 0.59386 0.56095 0.03004 0.0
C2569 C 0.63366 0.58499 0.0083 0.0
C2570 C 0.64827 0.5853 0.02205 0.0
C2571 C 0.63613 0.59619 0.99349 0.0
C2572 C 0.62124 0.59828 0.97948 0.0
C2573 C 0.60613 0.60409 0.98558 0.0
C2574 C 0.59207 0.60585 0.97227 0.0
C2575 C 0.59304 0.60198 0.95283 0.0
C2576 C 0.60811 0.59641 0.94665 0.0
C2577 C 0.6222 0.59463 0.95989 0.0
H2578 H 0.58214 0.60333 0.94255 0.0
H2579 H 0.71688 0.59871 0.07854 0.0
H2580 H 0.63834 0.47831 0.26891 0.0
H2581 H 0.6533 0.45243 0.26653 0.0
H2582 H 0.70233 0.48641 0.29339 0.0
H2583 H 0.68776 0.51238 0.29413 0.0
H2584 H 0.71073 0.46709 0.2679 0.0
H2585 H 0.67194 0.45199 0.31583 0.0
H2586 H 0.64332 0.44582 0.32918 0.0
H2587 H 0.62353 0.40275 0.28439 0.0
H2588 H 0.65196 0.40879 0.27068 0.0
H2589 H 0.75783 0.39743 0.28073 0.0
H2590 H 0.74063 0.42027 0.29067 0.0
H2591 H 0.69471 0.3909 0.25356 0.0
H2592 H 0.71184 0.36804 0.24389 0.0
H2593 H 0.68496 0.40725 0.28558 0.0
H2594 H 0.72405 0.42365 0.23781 0.0
H2595 H 0.7531 0.42975 0.22533 0.0
H2596 H 0.77289 0.47097 0.27198 0.0
H2597 H 0.74403 0.46493 0.28487 0.0
C2598 C 0.65233 0.48016 0.27417 0.0
C2599 C 0.66196 0.49731 0.28153 0.0
C2600 C 0.66086 0.46533 0.27307 0.0
C2601 C 0.67896 0.46724 0.28014 0.0
C2602 C 0.68842 0.48444 0.28773 0.0
C2603 C 0.68009 0.49932 0.28817 0.0
C2604 C 0.6884 0.45168 0.27894 0.0
C2605 C 0.70516 0.45416 0.2722 0.0
C2606 C 0.68111 0.43451 0.28397 0.0
C2607 C 0.664 0.43095 0.29216 0.0
C2608 C 0.66143 0.44129 0.30878 0.0
C2609 C 0.64525 0.4378 0.31641 0.0
C2610 C 0.6316 0.42393 0.30761 0.0
C2611 C 0.6341 0.4135 0.29118 0.0
C2612 C 0.65025 0.41693 0.28349 0.0
C2613 C 0.74385 0.39551 0.27541 0.0
C2614 C 0.73603 0.38098 0.26174 0.0
C2615 C 0.7341 0.40864 0.28087 0.0
C2616 C 0.71649 0.40746 0.27254 0.0
C2617 C 0.70826 0.39211 0.26013 0.0
C2618 C 0.718 0.37901 0.25469 0.0
C2619 C 0.70726 0.42295 0.27503 0.0
C2620 C 0.69054 0.42036 0.28171 0.0
C2621 C 0.71465 0.44011 0.27019 0.0
C2622 C 0.73197 0.4437 0.2624 0.0
C2623 C 0.73465 0.43391 0.24547 0.0
C2624 C 0.75107 0.43738 0.23831 0.0
C2625 C 0.76484 0.45071 0.24788 0.0
C2626 C 0.76222 0.46063 0.2646 0.0
C2627 C 0.74584 0.45719 0.27184 0.0
H2628 H 0.77754 0.45338 0.24231 0.0
H2629 H 0.61908 0.42125 0.31355 0.0
H2630 H 0.83706 0.46523 0.50749 0.0
H2631 H 0.86675 0.48361 0.51586 0.0
H2632 H 0.88986 0.44051 0.49094 0.0
H2633 H 0.86032 0.42194 0.48256 0.0
H2634 H 0.90387 0.45284 0.52825 0.0
H2635 H 0.88974 0.47636 0.46914 0.0
H2636 H 0.87167 0.49041 0.44651 0.0
H2637 H 0.87749 0.53725 0.48717 0.0
H2638 H 0.89538 0.52335 0.51016 0.0
H2639 H 0.98991 0.48861 0.51177 0.0
H2640 H 0.95985 0.47432 0.51572 0.0
H2641 H 0.94855 0.52592 0.53656 0.0
H2642 H 0.97869 0.54035 0.53164 0.0
H2643 H 0.92699 0.5118 0.50684 0.0
H2644 H 0.94382 0.48851 0.56529 0.0
H2645 H 0.96214 0.47364 0.58686 0.0
H2646 H 0.95283 0.42655 0.54618 0.0
H2647 H 0.93395 0.44083 0.52459 0.0
C2648 C 0.84842 0.45976 0.50346 0.0
C2649 C 0.84641 0.44204 0.49461 0.0
C2650 C 0.86532 0.47028 0.50828 0.0
C2651 C 0.88031 0.46323 0.50415 0.0
C2652 C 0.87832 0.44598 0.49437 0.0
C2653 C 0.86146 0.43546 0.48955 0.0
C2654 C 0.89818 0.47337 0.51098 0.0
C2655 C 0.90902 0.46574 0.52361 0.0
C2656 C 0.90446 0.49038 0.50528 0.0
C2657 C 0.89369 0.49872 0.49146 0.0
C2658 C 0.88701 0.48958 0.47333 0.0
C2659 C 0.87684 0.49753 0.46042 0.0
C2660 C 0.87338 0.51469 0.46543 0.0
C2661 C 0.88014 0.52395 0.48333 0.0
C2662 C 0.8903 0.51604 0.4963 0.0
C2663 C 0.98123 0.49671 0.51798 0.0
C2664 C 0.98632 0.51539 0.52159 0.0
C2665 C 0.96409 0.48856 0.52038 0.0
C2666 C 0.95204 0.49905 0.52669 0.0
C2667 C 0.95773 0.51763 0.5318 0.0
C2668 C 0.97481 0.52583 0.52902 0.0
C2669 C 0.93295 0.49122 0.52404 0.0
C2670 C 0.92178 0.4992 0.51206 0.0
C2671 C 0.92639 0.47449 0.53026 0.0
C2672 C 0.93751 0.46576 0.54333 0.0
C2673 C 0.9457 0.47499 0.56094 0.0
C2674 C 0.95618 0.46668 0.57317 0.0
C2675 C 0.95885 0.4493 0.56781 0.0
C2676 C 0.95079 0.44004 0.55031 0.0
C2677 C 0.94005 0.44815 0.53815 0.0
H2678 H 0.9671 0.44298 0.57726 0.0
H2679 H 0.86551 0.52083 0.45541 0.0
H2680 H 0.33967 0.04777 0.29718 0.0
H2681 H 0.32612 0.07424 0.2943 0.0
H2682 H 0.37641 0.10441 0.2828 0.0
H2683 H 0.39021 0.07827 0.28672 0.0
H2684 H 0.36237 0.12313 0.30753 0.0
H2685 H 0.34146 0.08726 0.24688 0.0
H2686 H 0.32681 0.05939 0.22654 0.0
H2687 H 0.27818 0.06115 0.25105 0.0
H2688 H 0.29261 0.08896 0.27167 0.0
H2689 H 0.33934 0.18911 0.25191 0.0
H2690 H 0.34985 0.16598 0.2689 0.0
H2691 H 0.29679 0.14746 0.2829 0.0
H2692 H 0.28593 0.16974 0.26493 0.0
H2693 H 0.30906 0.12232 0.26184 0.0
H2694 H 0.33418 0.15526 0.32714 0.0
H2695 H 0.35205 0.18049 0.34937 0.0
H2696 H 0.39409 0.18424 0.31358 0.0
H2697 H 0.37685 0.1584 0.29175 0.0
C2698 C 0.34772 0.06006 0.2939 0.0
C2699 C 0.36586 0.06121 0.29209 0.0
C2700 C 0.34001 0.07507 0.29225 0.0
C2701 C 0.35028 0.09109 0.28817 0.0
C2702 C 0.36836 0.0921 0.28605 0.0
C2703 C 0.37617 0.07724 0.28818 0.0
C2704 C 0.34236 0.10699 0.28637 0.0
C2705 C 0.35073 0.123 0.29749 0.0
C2706 C 0.32696 0.10655 0.27364 0.0
C2707 C 0.31814 0.09011 0.26089 0.0
C2708 C 0.32765 0.08167 0.24796 0.0
C2709 C 0.31939 0.06589 0.23638 0.0
C2710 C 0.30159 0.05849 0.23752 0.0
C2711 C 0.29198 0.0669 0.25018 0.0
C2712 C 0.30018 0.08269 0.26179 0.0
C2713 C 0.32998 0.18028 0.25884 0.0
C2714 C 0.3118 0.18101 0.2568 0.0
C2715 C 0.33608 0.16736 0.26894 0.0
C2716 C 0.32411 0.15525 0.27736 0.0
C2717 C 0.30622 0.1569 0.27667 0.0
C2718 C 0.30007 0.16963 0.26637 0.0
C2719 C 0.32934 0.13866 0.28273 0.0
C2720 C 0.32044 0.1224 0.27221 0.0
C2721 C 0.34448 0.13889 0.29568 0.0
C2722 C 0.35409 0.15532 0.30764 0.0
C2723 C 0.34713 0.16168 0.32392 0.0
C2724 C 0.35722 0.17591 0.33654 0.0
C2725 C 0.37404 0.18418 0.33271 0.0
C2726 C 0.38098 0.17797 0.31643 0.0
C2727 C 0.37115 0.16343 0.30404 0.0
H2728 H 0.38176 0.19528 0.34244 0.0
H2729 H 0.29522 0.04626 0.22858 0.0
H2730 H 0.32858 0.16489 0.50125 0.0
H2731 H 0.35409 0.14958 0.50353 0.0
H2732 H 0.32451 0.10888 0.53241 0.0
H2733 H 0.2989 0.12394 0.52996 0.0
H2734 H 0.35938 0.12305 0.55008 0.0
H2735 H 0.32887 0.09911 0.48777 0.0
H2736 H 0.31578 0.10047 0.45499 0.0
H2737 H 0.36649 0.12686 0.44156 0.0
H2738 H 0.37983 0.12593 0.47438 0.0
H2739 H 0.41648 0.06075 0.55031 0.0
H2740 H 0.3893 0.07282 0.54309 0.0
H2741 H 0.4173 0.10979 0.50889 0.0
H2742 H 0.44438 0.09761 0.51605 0.0
H2743 H 0.38332 0.09771 0.4933 0.0
H2744 H 0.41413 0.12303 0.55398 0.0
H2745 H 0.42865 0.12296 0.58646 0.0
H2746 H 0.37919 0.09671 0.60299 0.0
H2747 H 0.36444 0.09627 0.57047 0.0
C2748 C 0.32757 0.15275 0.5082 0.0
C2749 C 0.31179 0.14563 0.5155 0.0
C2750 C 0.34208 0.14396 0.50935 0.0
C2751 C 0.34108 0.12804 0.51799 0.0
C2752 C 0.32548 0.12112 0.52562 0.0
C2753 C 0.31089 0.12974 0.52423 0.0
C2754 C 0.35642 0.11874 0.51948 0.0
C2755 C 0.36446 0.11727 0.53768 0.0
C2756 C 0.36339 0.1118 0.50325 0.0
C2757 C 0.35529 0.11267 0.48362 0.0
C2758 C 0.33718 0.10542 0.47791 0.0
C2759 C 0.32973 0.10606 0.4593 0.0
C2760 C 0.34028 0.1138 0.44622 0.0
C2761 C 0.35832 0.12091 0.45172 0.0
C2762 C 0.36583 0.12033 0.47032 0.0
C2763 C 0.41659 0.0711 0.54085 0.0
C2764 C 0.43233 0.07833 0.53366 0.0
C2765 C 0.40117 0.07807 0.53684 0.0
C2766 C 0.40141 0.09241 0.52573 0.0
C2767 C 0.41686 0.09878 0.51754 0.0
C2768 C 0.43228 0.09186 0.5216 0.0
C2769 C 0.38609 0.10176 0.52391 0.0
C2770 C 0.37816 0.10339 0.50569 0.0
C2771 C 0.3794 0.10916 0.54012 0.0
C2772 C 0.38823 0.1094 0.55971 0.0
C2773 C 0.40638 0.11707 0.56448 0.0
C2774 C 0.41465 0.11715 0.58291 0.0
C2775 C 0.40486 0.10978 0.59676 0.0
C2776 C 0.38677 0.10236 0.59222 0.0
C2777 C 0.37845 0.10219 0.57379 0.0
H2778 H 0.41128 0.10988 0.61103 0.0
H2779 H 0.33449 0.11425 0.43181 0.0
H2780 H 0.66844 0.60394 0.32435 0.0
H2781 H 0.69073 0.63086 0.32194 0.0
H2782 H 0.68236 0.61979 0.26066 0.0
H2783 H 0.66103 0.59229 0.26325 0.0
H2784 H 0.71532 0.63189 0.27006 0.0
H2785 H 0.6628 0.65275 0.28903 0.0
H2786 H 0.63926 0.65528 0.30982 0.0
H2787 H 0.67894 0.67718 0.35704 0.0
H2788 H 0.7027 0.67462 0.33657 0.0
H2789 H 0.7543 0.71892 0.24936 0.0
H2790 H 0.7346 0.69046 0.25217 0.0
H2791 H 0.74065 0.70358 0.31326 0.0
H2792 H 0.75879 0.73281 0.31008 0.0
H2793 H 0.7092 0.69008 0.30412 0.0
H2794 H 0.76195 0.67005 0.28532 0.0
H2795 H 0.78556 0.66837 0.26445 0.0
H2796 H 0.74613 0.64523 0.21739 0.0
H2797 H 0.72228 0.64697 0.23792 0.0
C2798 C 0.67152 0.60728 0.31043 0.0
C2799 C 0.66301 0.59624 0.29398 0.0
C2800 C 0.68414 0.62273 0.30901 0.0
C2801 C 0.68796 0.62776 0.29107 0.0
C2802 C 0.67968 0.61637 0.27467 0.0
C2803 C 0.66743 0.60069 0.27613 0.0
C2804 C 0.70031 0.64496 0.28928 0.0
C2805 C 0.71387 0.64463 0.27741 0.0
C2806 C 0.6988 0.66166 0.2991 0.0
C2807 C 0.6845 0.66336 0.31131 0.0
C2808 C 0.66648 0.65803 0.30387 0.0
C2809 C 0.65311 0.65948 0.31559 0.0
C2810 C 0.6576 0.66635 0.33475 0.0
C2811 C 0.67548 0.67185 0.34221 0.0
C2812 C 0.6889 0.67043 0.33055 0.0
C2813 C 0.75149 0.71555 0.26336 0.0
C2814 C 0.75806 0.72788 0.27953 0.0
C2815 C 0.74033 0.69921 0.26502 0.0
C2816 C 0.73635 0.69445 0.28301 0.0
C2817 C 0.74338 0.70677 0.2992 0.0
C2818 C 0.75387 0.72342 0.29743 0.0
C2819 C 0.7244 0.67705 0.28506 0.0
C2820 C 0.71082 0.67735 0.2969 0.0
C2821 C 0.72598 0.66034 0.2753 0.0
C2822 C 0.74035 0.65871 0.26314 0.0
C2823 C 0.75833 0.66461 0.27052 0.0
C2824 C 0.77175 0.66367 0.25874 0.0
C2825 C 0.76735 0.65671 0.2396 0.0
C2826 C 0.74952 0.6506 0.23222 0.0
C2827 C 0.73605 0.65154 0.24392 0.0
H2828 H 0.77775 0.65604 0.2305 0.0
H2829 H 0.64723 0.66745 0.3438 0.0
H2830 H 0.85225 0.47369 0.78587 0.0
H2831 H 0.83361 0.44428 0.77638 0.0
H2832 H 0.86948 0.42026 0.81192 0.0
H2833 H 0.88867 0.44971 0.82115 0.0
H2834 H 0.86374 0.40441 0.77598 0.0
H2835 H 0.82777 0.42417 0.82312 0.0
H2836 H 0.80993 0.44427 0.83814 0.0
H2837 H 0.77409 0.43728 0.78654 0.0
H2838 H 0.79188 0.41733 0.77113 0.0
H2839 H 0.81889 0.32181 0.7927 0.0
H2840 H 0.83555 0.35129 0.78894 0.0
H2841 H 0.79093 0.36119 0.75213 0.0
H2842 H 0.77385 0.3317 0.75688 0.0
H2843 H 0.79938 0.38555 0.78114 0.0
H2844 H 0.8338 0.36229 0.73553 0.0
H2845 H 0.85139 0.34124 0.72183 0.0
H2846 H 0.8893 0.3531 0.77199 0.0
H2847 H 0.87224 0.37464 0.7858 0.0
C2848 C 0.85607 0.46223 0.79198 0.0
C2849 C 0.87208 0.46392 0.80406 0.0
C2850 C 0.84533 0.44546 0.78656 0.0
C2851 C 0.85027 0.43024 0.79343 0.0
C2852 C 0.86563 0.43198 0.8064 0.0
C2853 C 0.87652 0.44875 0.81168 0.0
C2854 C 0.84031 0.41231 0.78586 0.0
C2855 C 0.84967 0.40019 0.77717 0.0
C2856 C 0.82184 0.40728 0.78664 0.0
C2857 C 0.81129 0.41945 0.79589 0.0
C2858 C 0.8162 0.42708 0.81491 0.0
C2859 C 0.80607 0.43841 0.82351 0.0
C2860 C 0.79092 0.4421 0.81328 0.0
C2861 C 0.78585 0.43444 0.79444 0.0
C2862 C 0.79595 0.42313 0.78577 0.0
C2863 C 0.81297 0.33011 0.7833 0.0
C2864 C 0.79535 0.32492 0.77502 0.0
C2865 C 0.82251 0.34682 0.78094 0.0
C2866 C 0.81455 0.35829 0.76997 0.0
C2867 C 0.79728 0.3524 0.76049 0.0
C2868 C 0.78758 0.33574 0.76319 0.0
C2869 C 0.82294 0.37735 0.77184 0.0
C2870 C 0.81332 0.38983 0.77941 0.0
C2871 C 0.84119 0.3827 0.77012 0.0
C2872 C 0.85174 0.37009 0.76167 0.0
C2873 C 0.8459 0.36042 0.74363 0.0
C2874 C 0.85576 0.34838 0.73586 0.0
C2875 C 0.87133 0.34565 0.74611 0.0
C2876 C 0.87723 0.3552 0.76406 0.0
C2877 C 0.86756 0.36746 0.77179 0.0
H2878 H 0.87886 0.33621 0.7401 0.0
H2879 H 0.78309 0.45086 0.81997 0.0
H2880 H 0.04782 0.82705 0.06555 0.0
H2881 H 0.04335 0.85504 0.05296 0.0
H2882 H 0.05912 0.88397 0.10899 0.0
H2883 H 0.06242 0.85584 0.12165 0.0
H2884 H 0.03615 0.89898 0.0964 0.0
H2885 H 0.085 0.88466 0.06374 0.0
H2886 H 0.10054 0.86636 0.04296 0.0
H2887 H 0.05947 0.86399 0.99672 0.0
H2888 H 0.04361 0.88211 0.01729 0.0
H2889 H 0.05006 0.98808 0.06896 0.0
H2890 H 0.05355 0.95898 0.07912 0.0
H2891 H 0.02895 0.93251 0.02421 0.0
H2892 H 0.02601 0.96181 0.01374 0.0
H2893 H 0.05499 0.916 0.03495 0.0
H2894 H 1.00742 0.93205 0.06728 0.0
H2895 H 0.993 0.95188 0.08758 0.0
H2896 H 0.03268 0.95181 0.13452 0.0
H2897 H 0.04753 0.93222 0.1144 0.0
C2898 C 0.05053 0.83939 0.0752 0.0
C2899 C 0.0557 0.83886 0.09475 0.0
C2900 C 0.04807 0.85569 0.06789 0.0
C2901 C 0.05118 0.87239 0.07967 0.0
C2902 C 0.05648 0.87173 0.09919 0.0
C2903 C 0.05855 0.85543 0.10653 0.0
C2904 C 0.04855 0.89031 0.07214 0.0
C2905 C 0.04064 0.90261 0.08307 0.0
C2906 C 0.05363 0.89558 0.05439 0.0
C2907 C 0.06303 0.88454 0.04211 0.0
C2908 C 0.07923 0.88011 0.04918 0.0
C2909 C 0.0881 0.8698 0.03743 0.0
C2910 C 0.08097 0.86397 0.01855 0.0
C2911 C 0.06496 0.86848 0.01136 0.0
C2912 C 0.05603 0.87877 0.02305 0.0
C2913 C 0.04533 0.97614 0.05892 0.0
C2914 C 0.0375 0.97769 0.04045 0.0
C2915 C 0.04724 0.95925 0.06488 0.0
C2916 C 0.04127 0.94297 0.05275 0.0
C2917 C 0.03369 0.94452 0.03415 0.0
C2918 C 0.03184 0.96147 0.02814 0.0
C2919 C 0.04302 0.92461 0.05943 0.0
C2920 C 0.05063 0.91227 0.04831 0.0
C2921 C 0.03778 0.91933 0.07705 0.0
C2922 C 0.02866 0.93078 0.08929 0.0
C2923 C 0.01312 0.93632 0.08191 0.0
C2924 C 1.00487 0.94753 0.09338 0.0
C2925 C 0.01194 0.95313 0.11232 0.0
C2926 C 0.02724 0.94748 0.11985 0.0
C2927 C 0.03557 0.93632 0.10842 0.0
H2928 H 1.00555 0.96182 0.12118 0.0
H2929 H 0.08786 0.856 0.00948 0.0
H2930 H 0.96557 0.26085 0.885 0.0
H2931 H 0.93907 0.26044 0.86249 0.0
H2932 H 0.91167 0.278 0.9088 0.0
H2933 H 0.93765 0.27781 0.93121 0.0
H2934 H 0.88915 0.25436 0.88688 0.0
H2935 H 0.93164 0.30616 0.87302 0.0
H2936 H 0.96002 0.32072 0.86296 0.0
H2937 H 0.9488 0.28611 0.8101 0.0
H2938 H 0.92046 0.27122 0.81995 0.0
H2939 H 0.81478 0.27902 0.83588 0.0
H2940 H 0.84172 0.27779 0.85632 0.0
H2941 H 0.86837 0.26791 0.80682 0.0
H2942 H 0.842 0.271 0.78653 0.0
H2943 H 0.89181 0.28602 0.82924 0.0
H2944 H 0.85039 0.23434 0.84044 0.0
H2945 H 0.82222 0.21752 0.84878 0.0
H2946 H 0.83154 0.24766 0.90424 0.0
H2947 H 0.85964 0.26487 0.89613 0.0
C2948 C 0.9539 0.2646 0.89042 0.0
C2949 C 0.95399 0.26936 0.91012 0.0
C2950 C 0.93867 0.26451 0.87743 0.0
C2951 C 0.92311 0.26948 0.88366 0.0
C2952 C 0.92325 0.27408 0.90334 0.0
C2953 C 0.93831 0.27401 0.91627 0.0
C2954 C 0.9066 0.26982 0.87009 0.0
C2955 C 0.88979 0.26148 0.87439 0.0
C2956 C 0.90709 0.2784 0.8532 0.0
C2957 C 0.92404 0.28748 0.8473 0.0
C2958 C 0.93528 0.3016 0.8593 0.0
C2959 C 0.95135 0.30991 0.85363 0.0
C2960 C 0.95623 0.30431 0.83593 0.0
C2961 C 0.94502 0.29042 0.82382 0.0
C2962 C 0.92896 0.28205 0.82944 0.0
C2963 C 0.82641 0.27689 0.82922 0.0
C2964 C 0.82604 0.27567 0.80924 0.0
C2965 C 0.84193 0.27579 0.84108 0.0
C2966 C 0.85745 0.27234 0.83346 0.0
C2967 C 0.85693 0.27072 0.81347 0.0
C2968 C 0.84162 0.27249 0.80167 0.0
C2969 C 0.8742 0.2707 0.84609 0.0
C2970 C 0.89107 0.2788 0.84165 0.0
C2971 C 0.8738 0.26148 0.86261 0.0
C2972 C 0.85704 0.25099 0.86761 0.0
C2973 C 0.84639 0.23743 0.85439 0.0
C2974 C 0.83043 0.22783 0.85907 0.0
C2975 C 0.82508 0.23154 0.87702 0.0
C2976 C 0.8357 0.24482 0.89034 0.0
C2977 C 0.85164 0.25449 0.88571 0.0
H2978 H 0.81271 0.2241 0.88061 0.0
H2979 H 0.96868 0.31075 0.83157 0.0
H2980 H 0.5557 0.23907 0.55678 0.0
H2981 H 0.55164 0.20651 0.54889 0.0
H2982 H 0.54399 0.19908 0.60699 0.0
H2983 H 0.54783 0.23196 0.61497 0.0
H2984 H 0.56634 0.17704 0.59329 0.0
H2985 H 0.509 0.18827 0.57185 0.0
H2986 H 0.48687 0.20245 0.5545 0.0
H2987 H 0.50406 0.18475 0.50142 0.0
H2988 H 0.5265 0.17069 0.51849 0.0
H2989 H 0.52695 0.08103 0.57197 0.0
H2990 H 0.53061 0.11365 0.58121 0.0
H2991 H 0.55209 0.12385 0.52879 0.0
H2992 H 0.54878 0.09131 0.5197 0.0
H2993 H 0.52245 0.14405 0.54012 0.0
H2994 H 0.58025 0.13367 0.56126 0.0
H2995 H 0.60199 0.11881 0.57829 0.0
H2996 H 0.58369 0.13442 0.63139 0.0
H2997 H 0.56162 0.14918 0.61465 0.0
C2998 C 0.55301 0.23061 0.56796 0.0
C2999 C 0.55205 0.23849 0.58658 0.0
C3000 C 0.55063 0.21179 0.56336 0.0
C3001 C 0.54739 0.19992 0.57721 0.0
C3002 C 0.54645 0.20769 0.59588 0.0
C3003 C 0.54853 0.22662 0.60045 0.0
C3004 C 0.54523 0.17961 0.57206 0.0
C3005 C 0.55651 0.16988 0.58184 0.0
C3006 C 0.5328 0.1699 0.55678 0.0
C3007 C 0.51958 0.17862 0.54648 0.0
C3008 C 0.50821 0.18758 0.5565 0.0
C3009 C 0.49558 0.19556 0.54671 0.0
C3010 C 0.4941 0.19456 0.52687 0.0
C3011 C 0.50525 0.18556 0.51679 0.0
C3012 C 0.51792 0.17758 0.52651 0.0
C3013 C 0.53257 0.09019 0.56243 0.0
C3014 C 0.53779 0.08333 0.54515 0.0
C3015 C 0.53468 0.10894 0.56777 0.0
C3016 C 0.54167 0.1215 0.55579 0.0
C3017 C 0.5467 0.11466 0.53841 0.0
C3018 C 0.54497 0.09594 0.53329 0.0
C3019 C 0.54353 0.14162 0.56132 0.0
C3020 C 0.53222 0.15127 0.55159 0.0
C3021 C 0.55596 0.15124 0.57656 0.0
C3022 C 0.56909 0.1423 0.58667 0.0
C3023 C 0.58068 0.13374 0.57654 0.0
C3024 C 0.5931 0.12537 0.58613 0.0
C3025 C 0.59415 0.12558 0.60588 0.0
C3026 C 0.58282 0.13422 0.61608 0.0
C3027 C 0.57035 0.1426 0.60655 0.0
H3028 H 0.60379 0.11911 0.61328 0.0
H3029 H 0.48428 0.20071 0.51932 0.0
H3030 H 0.57225 0.77662 0.43379 0.0
H3031 H 0.59911 0.77774 0.41771 0.0
H3032 H 0.56659 0.76325 0.36351 0.0
H3033 H 0.53976 0.76139 0.37961 0.0
H3034 H 0.5928 0.74683 0.36248 0.0
H3035 H 0.5897 0.80863 0.38161 0.0
H3036 H 0.58819 0.83519 0.40378 0.0
H3037 H 0.63709 0.8301 0.43572 0.0
H3038 H 0.63878 0.80337 0.41386 0.0
H3039 H 0.66328 0.77953 0.306 0.0
H3040 H 0.63594 0.77135 0.32112 0.0
H3041 H 0.66684 0.78352 0.37639 0.0
H3042 H 0.69384 0.79205 0.36137 0.0
H3043 H 0.64103 0.80064 0.37621 0.0
H3044 H 0.64479 0.73941 0.35618 0.0
H3045 H 0.64619 0.71283 0.33398 0.0
H3046 H 0.5963 0.7169 0.3034 0.0
H3047 H 0.59471 0.74364 0.32526 0.0
C3048 C 0.57082 0.77356 0.41846 0.0
C3049 C 0.55379 0.76895 0.40803 0.0
C3050 C 0.58623 0.77435 0.40921 0.0
C3051 C 0.58506 0.77095 0.38923 0.0
C3052 C 0.56802 0.76598 0.37888 0.0
C3053 C 0.55262 0.76496 0.38814 0.0
C3054 C 0.60146 0.77271 0.37908 0.0
C3055 C 0.60324 0.75872 0.36534 0.0
C3056 C 0.6154 0.788 0.38292 0.0
C3057 C 0.61425 0.8039 0.39622 0.0
C3058 C 0.60004 0.81309 0.39346 0.0
C3059 C 0.59917 0.82819 0.40595 0.0
C3060 C 0.61251 0.8343 0.42118 0.0
C3061 C 0.62675 0.82533 0.42394 0.0
C3062 C 0.62767 0.81022 0.4115 0.0
C3063 C 0.66423 0.77998 0.32134 0.0
C3064 C 0.68071 0.7865 0.33251 0.0
C3065 C 0.64858 0.77531 0.33002 0.0
C3066 C 0.64917 0.77687 0.35002 0.0
C3067 C 0.66586 0.78232 0.36099 0.0
C3068 C 0.68135 0.78712 0.35239 0.0
C3069 C 0.63254 0.77468 0.35975 0.0
C3070 C 0.63065 0.78869 0.37336 0.0
C3071 C 0.61855 0.75944 0.35572 0.0
C3072 C 0.61976 0.74369 0.34222 0.0
C3073 C 0.63423 0.73478 0.34458 0.0
C3074 C 0.63503 0.71965 0.33209 0.0
C3075 C 0.62138 0.71323 0.31725 0.0
C3076 C 0.60689 0.72192 0.31487 0.0
C3077 C 0.60604 0.73706 0.32731 0.0
H3078 H 0.622 0.70148 0.30764 0.0
H3079 H 0.61183 0.84601 0.43082 0.0
H3080 H 0.03123 0.24522 0.36835 0.0
H3081 H 0.03023 0.21584 0.38065 0.0
H3082 H 0.05645 0.24277 0.43489 0.0
H3083 H 0.05742 0.2718 0.42274 0.0
H3084 H 0.06906 0.21315 0.4267 0.0
H3085 H 0.01128 0.22865 0.42703 0.0
H3086 H 0.98325 0.23648 0.41352 0.0
H3087 H 0.97106 0.18654 0.37687 0.0
H3088 H 0.99918 0.17853 0.38997 0.0
H3089 H 0.04122 0.15012 0.49199 0.0
H3090 H 0.04931 0.17537 0.47353 0.0
H3091 H 0.02067 0.14326 0.42288 0.0
H3092 H 0.01239 0.11819 0.44148 0.0
H3093 H 0.01009 0.17404 0.42663 0.0
H3094 H 0.06769 0.1578 0.42924 0.0
H3095 H 0.0955 0.15064 0.44425 0.0
H3096 H 0.10774 0.20266 0.47706 0.0
H3097 H 0.07988 0.21004 0.46243 0.0
C3098 C 0.03721 0.24477 0.3827 0.0
C3099 C 0.04451 0.26084 0.39453 0.0
C3100 C 0.03644 0.228 0.38983 0.0
C3101 C 0.04308 0.22699 0.40885 0.0
C3102 C 0.05122 0.24303 0.42022 0.0
C3103 C 0.05179 0.25967 0.41322 0.0
C3104 C 0.04102 0.20955 0.41743 0.0
C3105 C 0.05614 0.20464 0.42673 0.0
C3106 C 0.02423 0.19821 0.41738 0.0
C3107 C 1.00746 0.20312 0.40927 0.0
C3108 C 1.00272 0.21943 0.41593 0.0
C3109 C 0.9868 0.22388 0.40838 0.0
C3110 C 0.97542 0.21205 0.39428 0.0
C3111 C 0.97992 0.19572 0.38774 0.0
C3112 C 0.99585 0.19122 0.39522 0.0
C3113 C 0.03739 0.14821 0.47675 0.0
C3114 C 0.0266 0.13199 0.46809 0.0
C3115 C 0.04188 0.16273 0.46617 0.0
C3116 C 0.03567 0.16137 0.44666 0.0
C3117 C 0.02567 0.14479 0.43784 0.0
C3118 C 0.02117 0.13032 0.44842 0.0
C3119 C 0.03818 0.17755 0.43588 0.0
C3120 C 0.02308 0.18233 0.42632 0.0
C3121 C 0.05497 0.18887 0.43587 0.0
C3122 C 0.07162 0.1844 0.44485 0.0
C3123 C 0.07623 0.16764 0.43978 0.0
C3124 C 0.09202 0.16356 0.4482 0.0
C3125 C 0.10336 0.17617 0.46163 0.0
C3126 C 0.09893 0.1929 0.46667 0.0
C3127 C 0.08316 0.19704 0.45831 0.0
H3128 H 0.11559 0.17299 0.46811 0.0
H3129 H 0.96308 0.21551 0.38848 0.0
H3130 H 0.59087 0.2796 0.17993 0.0
H3131 H 0.62041 0.27906 0.19467 0.0
H3132 H 0.59821 0.25203 0.23976 0.0
H3133 H 0.56773 0.25206 0.22451 0.0
H3134 H 0.63102 0.28062 0.25233 0.0
H3135 H 0.61348 0.22732 0.20893 0.0
H3136 H 0.60072 0.2088 0.1787 0.0
H3137 H 0.64019 0.23896 0.14952 0.0
H3138 H 0.65304 0.25786 0.17956 0.0
H3139 H 0.71848 0.25977 0.27901 0.0
H3140 H 0.68627 0.25705 0.27039 0.0
H3141 H 0.69606 0.27901 0.21798 0.0
H3142 H 0.72819 0.28185 0.22656 0.0
H3143 H 0.66823 0.25007 0.21173 0.0
H3144 H 0.68472 0.30422 0.25499 0.0
H3145 H 0.69756 0.32269 0.28523 0.0
H3146 H 0.66021 0.29044 0.31504 0.0
H3147 H 0.64732 0.27156 0.28499 0.0
C3148 C 0.5919 0.27349 0.19304 0.0
C3149 C 0.57636 0.26568 0.2007 0.0
C3150 C 0.60912 0.27324 0.20153 0.0
C3151 C 0.61194 0.26534 0.21833 0.0
C3152 C 0.59663 0.25822 0.22676 0.0
C3153 C 0.57908 0.25827 0.21802 0.0
C3154 C 0.6309 0.26411 0.22597 0.0
C3155 C 0.63899 0.27356 0.24362 0.0
C3156 C 0.64179 0.25536 0.21462 0.0
C3157 C 0.63412 0.24411 0.19648 0.0
C3158 C 0.61934 0.23011 0.19604 0.0
C3159 C 0.61211 0.21953 0.17894 0.0
C3160 C 0.61961 0.22273 0.16219 0.0
C3161 C 0.63438 0.23651 0.16251 0.0
C3162 C 0.64166 0.24716 0.17958 0.0
C3163 C 0.71384 0.26389 0.26556 0.0
C3164 C 0.72624 0.27099 0.25352 0.0
C3165 C 0.69527 0.26246 0.26067 0.0
C3166 C 0.68837 0.26791 0.24348 0.0
C3167 C 0.70074 0.27467 0.23132 0.0
C3168 C 0.71927 0.27635 0.23631 0.0
C3169 C 0.66844 0.26664 0.23805 0.0
C3170 C 0.66021 0.25687 0.22064 0.0
C3171 C 0.65748 0.27502 0.24969 0.0
C3172 C 0.66519 0.28633 0.26777 0.0
C3173 C 0.67935 0.30095 0.26801 0.0
C3174 C 0.68663 0.31151 0.28512 0.0
C3175 C 0.67974 0.3077 0.30205 0.0
C3176 C 0.66555 0.29334 0.30191 0.0
C3177 C 0.65825 0.28271 0.28485 0.0
H3178 H 0.68538 0.31591 0.31528 0.0
H3179 H 0.614 0.2145 0.14897 0.0
H3180 H 0.51787 0.85406 0.87893 0.0
H3181 H 0.51516 0.88112 0.8994 0.0
H3182 H 0.57049 0.88793 0.92179 0.0
H3183 H 0.57287 0.86046 0.90183 0.0
H3184 H 0.55428 0.89544 0.94984 0.0
H3185 H 0.552 0.91592 0.88825 0.0
H3186 H 0.54109 0.91499 0.8543 0.0
H3187 H 0.48884 0.91876 0.86881 0.0
H3188 H 0.4994 0.91949 0.90285 0.0
H3189 H 0.56252 0.98787 0.99119 0.0
H3190 H 0.56495 0.96069 0.9705 0.0
H3191 H 0.50773 0.94649 0.96003 0.0
H3192 H 0.50534 0.97329 0.9813 0.0
H3193 H 0.52478 0.94322 0.92602 0.0
H3194 H 0.52763 0.92245 0.98765 0.0
H3195 H 0.53875 0.92264 0.0214 0.0
H3196 H 0.5911 0.92034 0.0063 0.0
H3197 H 0.58025 0.92008 0.9724 0.0
C3198 C 0.52954 0.86157 0.88792 0.0
C3199 C 0.54574 0.85538 0.88826 0.0
C3200 C 0.52802 0.87715 0.89972 0.0
C3201 C 0.54271 0.88717 0.91213 0.0
C3202 C 0.55888 0.8808 0.91245 0.0
C3203 C 0.56033 0.86513 0.90081 0.0
C3204 C 0.5412 0.90392 0.925 0.0
C3205 C 0.54807 0.90595 0.9444 0.0
C3206 C 0.53279 0.9178 0.91846 0.0
C3207 C 0.52645 0.91762 0.89807 0.0
C3208 C 0.53816 0.91647 0.88419 0.0
C3209 C 0.53204 0.91598 0.86493 0.0
C3210 C 0.51427 0.91678 0.8594 0.0
C3211 C 0.5026 0.91813 0.87312 0.0
C3212 C 0.50865 0.9186 0.8924 0.0
C3213 C 0.55047 0.97892 0.9845 0.0
C3214 C 0.53374 0.98278 0.98794 0.0
C3215 C 0.55185 0.96331 0.97268 0.0
C3216 C 0.53653 0.95132 0.96354 0.0
C3217 C 0.5198 0.95537 0.96679 0.0
C3218 C 0.51843 0.9707 0.97904 0.0
C3219 C 0.53796 0.93466 0.95066 0.0
C3220 C 0.53106 0.93269 0.93132 0.0
C3221 C 0.54651 0.92095 0.95718 0.0
C3222 C 0.55317 0.92143 0.97753 0.0
C3223 C 0.54155 0.92213 0.99155 0.0
C3224 C 0.54778 0.92215 0.01068 0.0
C3225 C 0.56564 0.92155 0.016 0.0
C3226 C 0.57728 0.92083 0.00216 0.0
C3227 C 0.57108 0.92068 0.98297 0.0
H3228 H 0.57045 0.92163 0.03084 0.0
H3229 H 0.50956 0.91639 0.84449 0.0
H3230 H 0.97996 0.76423 0.73377 0.0
H3231 H 0.95189 0.76843 0.74544 0.0
H3232 H 0.92399 0.749 0.68961 0.0
H3233 H 0.95232 0.74642 0.67771 0.0
H3234 H 0.90728 0.77074 0.70025 0.0
H3235 H 0.9246 0.72562 0.73816 0.0
H3236 H 0.94416 0.71302 0.76076 0.0
H3237 H 0.9449 0.75762 0.80295 0.0
H3238 H 0.9255 0.77056 0.78054 0.0
H3239 H 0.81941 0.75496 0.72871 0.0
H3240 H 0.84843 0.75191 0.71891 0.0
H3241 H 0.87433 0.78191 0.77178 0.0
H3242 H 0.84515 0.78429 0.78198 0.0
H3243 H 0.892 0.75602 0.76369 0.0
H3244 H 0.87301 0.79968 0.72634 0.0
H3245 H 0.85225 0.81142 0.70431 0.0
H3246 H 0.85383 0.7684 0.66109 0.0
H3247 H 0.87439 0.75623 0.68298 0.0
C3248 C 0.96782 0.76063 0.72399 0.0
C3249 C 0.9687 0.75466 0.70473 0.0
C3250 C 0.95145 0.76289 0.73078 0.0
C3251 C 0.93498 0.75859 0.71883 0.0
C3252 C 0.936 0.75252 0.69956 0.0
C3253 C 0.95242 0.75083 0.69267 0.0
C3254 C 0.91693 0.76078 0.72592 0.0
C3255 C 0.90405 0.76711 0.71404 0.0
C3256 C 0.9121 0.75686 0.7442 0.0
C3257 C 0.92378 0.74913 0.75762 0.0
C3258 C 0.92903 0.73277 0.75223 0.0
C3259 C 0.94007 0.72558 0.765 0.0
C3260 C 0.94581 0.73454 0.78326 0.0
C3261 C 0.94048 0.75071 0.7888 0.0
C3262 C 0.92945 0.75797 0.77608 0.0
C3263 C 0.83119 0.76087 0.73841 0.0
C3264 C 0.82949 0.76997 0.75626 0.0
C3265 C 0.84804 0.75927 0.73263 0.0
C3266 C 0.86413 0.76689 0.74428 0.0
C3267 C 0.86246 0.77584 0.76223 0.0
C3268 C 0.84556 0.77736 0.76807 0.0
C3269 C 0.88245 0.76547 0.73782 0.0
C3270 C 0.89533 0.75945 0.74985 0.0
C3271 C 0.88723 0.76952 0.71965 0.0
C3272 C 0.87514 0.77697 0.70635 0.0
C3273 C 0.86886 0.79268 0.71216 0.0
C3274 C 0.85713 0.7994 0.69971 0.0
C3275 C 0.85171 0.79065 0.68132 0.0
C3276 C 0.85804 0.77516 0.67534 0.0
C3277 C 0.86974 0.76835 0.68776 0.0
H3278 H 0.84265 0.7959 0.6717 0.0
H3279 H 0.95436 0.72895 0.79312 0.0
H3280 H 0.10829 0.01148 0.82922 0.0
H3281 H 0.09419 0.00863 0.85845 0.0
H3282 H 0.12032 0.06286 0.88025 0.0
H3283 H 0.13532 0.06517 0.85131 0.0
H3284 H 0.12006 0.04492 0.90831 0.0
H3285 H 0.07332 0.04902 0.85986 0.0
H3286 H 0.05429 0.04081 0.82913 0.0
H3287 H 0.0363 0.98783 0.84426 0.0
H3288 H 0.0554 0.99565 0.87498 0.0
H3289 H 0.04763 0.05425 0.96884 0.0
H3290 H 0.06261 0.05582 0.93984 0.0
H3291 H 0.07467 1.00315 0.94492 0.0
H3292 H 0.06057 1.002 0.97454 0.0
H3293 H 0.05523 0.02076 0.90409 0.0
H3294 H 0.10657 0.01746 0.95162 0.0
H3295 H 0.12339 0.02808 0.98324 0.0
H3296 H 0.13086 0.08251 0.96957 0.0
H3297 H 0.1136 0.0722 0.93805 0.0
C3298 C 0.11106 0.02274 0.84033 0.0
C3299 C 0.12281 0.03856 0.83802 0.0
C3300 C 0.10285 0.0212 0.85702 0.0
C3301 C 0.10568 0.03569 0.87159 0.0
C3302 C 0.11774 0.05146 0.86933 0.0
C3303 C 0.12629 0.05283 0.85277 0.0
C3304 C 0.09612 0.03437 0.88908 0.0
C3305 C 0.10587 0.03969 0.9072 0.0
C3306 C 0.07751 0.02756 0.88806 0.0
C3307 C 0.06591 0.02288 0.86965 0.0
C3308 C 0.06538 0.03559 0.85659 0.0
C3309 C 0.05457 0.03101 0.83918 0.0
C3310 C 0.04412 0.0138 0.83473 0.0
C3311 C 0.04442 1.00115 0.84771 0.0
C3312 C 0.05522 1.00566 0.86513 0.0
C3313 C 0.05351 0.04303 0.96374 0.0
C3314 C 0.05309 0.02806 0.97397 0.0
C3315 C 0.06206 0.04394 0.9472 0.0
C3316 C 0.06992 0.02968 0.94029 0.0
C3317 C 0.06895 0.01443 0.95015 0.0
C3318 C 0.06092 0.01377 0.96704 0.0
C3319 C 0.0793 0.03087 0.92291 0.0
C3320 C 0.06945 0.02577 0.90494 0.0
C3321 C 0.09771 0.03798 0.92402 0.0
C3322 C 0.10857 0.0441 0.94264 0.0
C3323 C 0.1116 0.03171 0.95546 0.0
C3324 C 0.12124 0.03766 0.97334 0.0
C3325 C 0.12813 0.05597 0.97844 0.0
C3326 C 0.12546 0.06834 0.96562 0.0
C3327 C 0.11573 0.06245 0.94776 0.0
H3328 H 0.13558 0.06057 0.9923 0.0
H3329 H 0.03577 0.01028 0.82124 0.0
H3330 H 0.76613 0.4008 0.54607 0.0
H3331 H 0.763 0.38746 0.576 0.0
H3332 H 0.82026 0.39532 0.58754 0.0
H3333 H 0.8233 0.40793 0.55746 0.0
H3334 H 0.80319 0.35979 0.58315 0.0
H3335 H 0.79666 0.41783 0.61636 0.0
H3336 H 0.78097 0.44341 0.61931 0.0
H3337 H 0.73208 0.40714 0.62313 0.0
H3338 H 0.74749 0.38135 0.62008 0.0
H3339 H 0.83906 0.34885 0.67063 0.0
H3340 H 0.82627 0.36498 0.64625 0.0
H3341 H 0.77443 0.33236 0.64747 0.0
H3342 H 0.78719 0.31617 0.67208 0.0
H3343 H 0.77902 0.37505 0.64361 0.0
H3344 H 0.78643 0.31706 0.61346 0.0
H3345 H 0.80271 0.2919 0.61079 0.0
H3346 H 0.84949 0.32817 0.60045 0.0
H3347 H 0.83348 0.35353 0.60316 0.0
C3348 C 0.77796 0.40026 0.55547 0.0
C3349 C 0.79493 0.40515 0.54977 0.0
C3350 C 0.77617 0.39267 0.57243 0.0
C3351 C 0.79141 0.39028 0.58369 0.0
C3352 C 0.80839 0.39699 0.57885 0.0
C3353 C 0.81014 0.40422 0.56183 0.0
C3354 C 0.79002 0.37834 0.59866 0.0
C3355 C 0.79776 0.36306 0.5963 0.0
C3356 C 0.7822 0.38218 0.61534 0.0
C3357 C 0.77317 0.39771 0.61791 0.0
C3358 C 0.78256 0.41534 0.61781 0.0
C3359 C 0.77372 0.42986 0.6195 0.0
C3360 C 0.75553 0.4269 0.62138 0.0
C3361 C 0.74616 0.40942 0.62169 0.0
C3362 C 0.75495 0.39485 0.62003 0.0
C3363 C 0.82496 0.34519 0.66571 0.0
C3364 C 0.81412 0.33118 0.67282 0.0
C3365 C 0.81763 0.35454 0.65211 0.0
C3366 C 0.79946 0.34981 0.64533 0.0
C3367 C 0.78842 0.33625 0.65285 0.0
C3368 C 0.79574 0.32696 0.66663 0.0
C3369 C 0.79311 0.35727 0.62835 0.0
C3370 C 0.78383 0.3715 0.63018 0.0
C3371 C 0.79934 0.35243 0.61097 0.0
C3372 C 0.80877 0.33713 0.60848 0.0
C3373 C 0.80019 0.31963 0.6106 0.0
C3374 C 0.80936 0.30535 0.60909 0.0
C3375 C 0.82712 0.30844 0.60545 0.0
C3376 C 0.83572 0.32579 0.60321 0.0
C3377 C 0.82659 0.34011 0.60466 0.0
H3378 H 0.83423 0.29738 0.60435 0.0
H3379 H 0.7487 0.43816 0.62261 0.0
H3380 H 0.4273 1.00546 0.33627 0.0
H3381 H 0.44409 1.00326 0.36637 0.0
H3382 H 0.40885 0.03098 0.39632 0.0
H3383 H 0.39151 0.03294 0.36592 0.0
H3384 H 0.44667 0.04715 0.4008 0.0
H3385 H 0.40803 0.99038 0.40408 0.0
H3386 H 0.39215 0.95987 0.39112 0.0
H3387 H 0.44196 0.94368 0.38342 0.0
H3388 H 0.45813 0.97417 0.39604 0.0
H3389 H 0.49373 0.04734 0.48944 0.0
H3390 H 0.47106 0.04418 0.46252 0.0
H3391 H 0.49519 1.00414 0.43298 0.0
H3392 H 0.51716 1.00608 0.46085 0.0
H3393 H 0.46098 0.99363 0.4293 0.0
H3394 H 0.49998 0.04775 0.42158 0.0
H3395 H 0.51838 0.0779 0.43128 0.0
H3396 H 0.47169 0.09889 0.4426 0.0
H3397 H 0.45303 0.06878 0.43329 0.0
C3398 C 0.42284 0.01075 0.34923 0.0
C3399 C 0.40825 0.01951 0.34889 0.0
C3400 C 0.43236 0.00935 0.36639 0.0
C3401 C 0.42751 0.01686 0.38335 0.0
C3402 C 0.41253 0.02499 0.38321 0.0
C3403 C 0.40274 0.02612 0.36596 0.0
C3404 C 0.43975 0.01841 0.40067 0.0
C3405 C 0.44956 0.03555 0.40744 0.0
C3406 C 0.44399 1.00304 0.40828 0.0
C3407 C 0.43428 0.98461 0.40094 0.0
C3408 C 0.41559 0.98035 0.39951 0.0
C3409 C 0.40654 0.96305 0.39224 0.0
C3410 C 0.41604 0.94985 0.38643 0.0
C3411 C 0.43462 0.95391 0.38793 0.0
C3412 C 0.44373 0.9712 0.39517 0.0
C3413 C 0.49408 0.03767 0.47734 0.0
C3414 C 0.50689 0.02667 0.47728 0.0
C3415 C 0.48129 0.03609 0.46187 0.0
C3416 C 0.48164 0.02409 0.44577 0.0
C3417 C 0.49478 0.01345 0.44538 0.0
C3418 C 0.50735 0.01469 0.46114 0.0
C3419 C 0.46793 0.02243 0.42956 0.0
C3420 C 0.45797 1.00529 0.4229 0.0
C3421 C 0.46396 0.03775 0.42153 0.0
C3422 C 0.47512 0.05597 0.42688 0.0
C3423 C 0.49364 0.05877 0.42625 0.0
C3424 C 0.50412 0.07586 0.43167 0.0
C3425 C 0.49621 0.0903 0.43758 0.0
C3426 C 0.4778 0.08769 0.43803 0.0
C3427 C 0.46726 0.07062 0.43267 0.0
H3428 H 0.50434 0.10352 0.44178 0.0
H3429 H 0.409 0.93646 0.3808 0.0
H3430 H 0.79851 0.6973 0.06673 0.0
H3431 H 0.8025 0.70949 0.10052 0.0
H3432 H 0.74566 0.70611 0.09876 0.0
H3433 H 0.74195 0.69514 0.06496 0.0
H3434 H 0.75941 0.73607 0.11557 0.0
H3435 H 0.77284 0.67736 0.12319 0.0
H3436 H 0.78884 0.65219 0.1185 0.0
H3437 H 0.83808 0.68701 0.14195 0.0
H3438 H 0.82241 0.71244 0.14654 0.0
H3439 H 0.751 0.74575 0.21469 0.0
H3440 H 0.75087 0.73255 0.18199 0.0
H3441 H 0.80705 0.75377 0.18485 0.0
H3442 H 0.80706 0.76782 0.2174 0.0
H3443 H 0.79604 0.71647 0.16805 0.0
H3444 H 0.78152 0.77451 0.16179 0.0
H3445 H 0.76505 0.79928 0.16646 0.0
H3446 H 0.71665 0.76433 0.14079 0.0
H3447 H 0.73277 0.73922 0.1363 0.0
C3448 C 0.78691 0.69893 0.07372 0.0
C3449 C 0.76992 0.69529 0.06323 0.0
C3450 C 0.78915 0.70586 0.0931 0.0
C3451 C 0.77438 0.70876 0.1025 0.0
C3452 C 0.75737 0.70428 0.09204 0.0
C3453 C 0.75521 0.69785 0.07268 0.0
C3454 C 0.7764 0.71739 0.12277 0.0
C3455 C 0.76722 0.73146 0.127 0.0
C3456 C 0.78707 0.71207 0.13787 0.0
C3457 C 0.79649 0.69683 0.13498 0.0
C3458 C 0.78711 0.67967 0.12718 0.0
C3459 C 0.79611 0.66536 0.12458 0.0
C3460 C 0.81447 0.66801 0.12986 0.0
C3461 C 0.82387 0.68498 0.13782 0.0
C3462 C 0.81493 0.69934 0.14043 0.0
C3463 C 0.76325 0.74796 0.20832 0.0
C3464 C 0.77887 0.75836 0.2186 0.0
C3465 C 0.7632 0.74021 0.18962 0.0
C3466 C 0.77892 0.74228 0.18084 0.0
C3467 C 0.79474 0.75204 0.19127 0.0
C3468 C 0.79469 0.76013 0.20988 0.0
C3469 C 0.77863 0.73456 0.16065 0.0
C3470 C 0.7882 0.72086 0.1565 0.0
C3471 C 0.76815 0.74003 0.14561 0.0
C3472 C 0.75834 0.75495 0.14882 0.0
C3473 C 0.76733 0.77204 0.15736 0.0
C3474 C 0.75806 0.78615 0.15991 0.0
C3475 C 0.73984 0.7834 0.15381 0.0
C3476 C 0.73078 0.76645 0.14542 0.0
C3477 C 0.73997 0.75228 0.14288 0.0
H3478 H 0.73275 0.79441 0.15552 0.0
H3479 H 0.82142 0.6569 0.12785 0.0
H3480 H 0.1288 0.02347 0.72745 0.0
H3481 H 0.11773 0.01968 0.69333 0.0
H3482 H 0.07978 0.05364 0.70484 0.0
H3483 H 0.09032 0.05714 0.73844 0.0
H3484 H 0.06383 0.02599 0.68126 0.0
H3485 H 0.12032 0.06775 0.68527 0.0
H3486 H 0.15294 0.0772 0.69206 0.0
H3487 H 0.16003 0.03295 0.65311 0.0
H3488 H 0.12745 0.02311 0.64631 0.0
H3489 H 0.03545 0.04705 0.58935 0.0
H3490 H 0.04806 0.04866 0.62258 0.0
H3491 H 0.08698 0.01789 0.60521 0.0
H3492 H 0.07553 0.01772 0.57212 0.0
H3493 H 0.1028 0.04146 0.63141 0.0
H3494 H 0.04744 0.99985 0.62609 0.0
H3495 H 0.015 0.98931 0.61865 0.0
H3496 H 1.00582 0.03106 0.65951 0.0
H3497 H 0.0382 0.04201 0.66699 0.0
C3498 C 0.11809 0.0301 0.72269 0.0
C3499 C 0.1105 0.04059 0.73589 0.0
C3500 C 0.1118 0.02799 0.70312 0.0
C3501 C 0.09791 0.03647 0.69634 0.0
C3502 C 0.0904 0.04686 0.70955 0.0
C3503 C 0.09655 0.04888 0.72892 0.0
C3504 C 0.09087 0.03471 0.67565 0.0
C3505 C 0.07238 0.02953 0.6704 0.0
C3506 C 0.10192 0.03873 0.66121 0.0
C3507 C 0.12147 0.04457 0.66547 0.0
C3508 C 0.12884 0.05995 0.6783 0.0
C3509 C 0.14732 0.06539 0.68212 0.0
C3510 C 0.15855 0.05565 0.67307 0.0
C3511 C 0.15132 0.04046 0.66015 0.0
C3512 C 0.13286 0.03494 0.65631 0.0
C3513 C 0.04686 0.04089 0.59255 0.0
C3514 C 0.05431 0.03212 0.57788 0.0
C3515 C 0.05394 0.04156 0.61168 0.0
C3516 C 0.06833 0.03305 0.61667 0.0
C3517 C 0.07588 0.02453 0.60197 0.0
C3518 C 0.0691 0.02423 0.58292 0.0
C3519 C 0.0757 0.03304 0.63705 0.0
C3520 C 0.09423 0.03783 0.64222 0.0
C3521 C 0.0647 0.02844 0.6514 0.0
C3522 C 0.04524 0.02185 0.64696 0.0
C3523 C 0.0385 0.00686 0.63339 0.0
C3524 C 0.02012 1.0008 0.62918 0.0
C3525 C 0.00836 0.00954 0.63857 0.0
C3526 C 0.01494 0.02432 0.65222 0.0
C3527 C 0.03331 0.03045 0.65646 0.0
H3528 H 0.99414 1.00483 0.63529 0.0
H3529 H 0.17285 0.0599 0.67603 0.0
H3530 H 0.77996 0.42181 0.43267 0.0
H3531 H 0.78123 0.40357 0.40259 0.0
H3532 H 0.80406 0.36545 0.43363 0.0
H3533 H 0.80261 0.38321 0.46341 0.0
H3534 H 0.81951 0.37247 0.40082 0.0
H3535 H 0.76256 0.35669 0.42348 0.0
H3536 H 0.7342 0.36183 0.43432 0.0
H3537 H 0.71926 0.38017 0.38086 0.0
H3538 H 0.74773 0.37544 0.36984 0.0
H3539 H 0.79918 0.29233 0.33741 0.0
H3540 H 0.80194 0.3143 0.36532 0.0
H3541 H 0.77043 0.34552 0.33332 0.0
H3542 H 0.76603 0.32273 0.30612 0.0
H3543 H 0.76057 0.34377 0.36606 0.0
H3544 H 0.81963 0.35501 0.34335 0.0
H3545 H 0.84767 0.34594 0.33529 0.0
H3546 H 0.85796 0.3318 0.3917 0.0
H3547 H 0.83009 0.34061 0.40007 0.0
C3548 C 0.7855 0.40969 0.43295 0.0
C3549 C 0.79103 0.40375 0.45022 0.0
C3550 C 0.78624 0.39939 0.4159 0.0
C3551 C 0.79269 0.3833 0.41617 0.0
C3552 C 0.79915 0.37794 0.43332 0.0
C3553 C 0.79818 0.38803 0.45029 0.0
C3554 C 0.79115 0.37096 0.39889 0.0
C3555 C 0.80669 0.36623 0.39302 0.0
C3556 C 0.77433 0.3628 0.38922 0.0
C3557 C 0.75741 0.36605 0.39598 0.0
C3558 C 0.75335 0.36209 0.41415 0.0
C3559 C 0.73723 0.36486 0.4203 0.0
C3560 C 0.72497 0.37141 0.40833 0.0
C3561 C 0.72881 0.37518 0.39016 0.0
C3562 C 0.74494 0.37247 0.38396 0.0
C3563 C 0.79263 0.30375 0.33645 0.0
C3564 C 0.78257 0.306 0.31959 0.0
C3565 C 0.79448 0.31642 0.35227 0.0
C3566 C 0.7869 0.33178 0.35108 0.0
C3567 C 0.77655 0.33381 0.33438 0.0
C3568 C 0.7741 0.32083 0.31885 0.0
C3569 C 0.78902 0.3455 0.36742 0.0
C3570 C 0.7735 0.35035 0.37336 0.0
C3571 C 0.80587 0.35342 0.37739 0.0
C3572 C 0.82274 0.34838 0.37228 0.0
C3573 C 0.82786 0.3499 0.35397 0.0
C3574 C 0.84368 0.34481 0.34936 0.0
C3575 C 0.85449 0.33826 0.36292 0.0
C3576 C 0.84957 0.33686 0.38119 0.0
C3577 C 0.83379 0.34193 0.38589 0.0
H3578 H 0.8667 0.33431 0.35929 0.0
H3579 H 0.71248 0.3735 0.41309 0.0
H3580 H 0.41687 0.04535 0.25411 0.0
H3581 H 0.42932 0.04783 0.22376 0.0
H3582 H 0.41517 0.99008 0.21023 0.0
H3583 H 0.40362 0.98762 0.24088 0.0
H3584 H 0.45016 1.00231 0.21216 0.0
H3585 H 0.39588 0.01943 0.18372 0.0
H3586 H 0.37346 0.03896 0.18345 0.0
H3587 H 0.41435 0.08507 0.18142 0.0
H3588 H 0.43702 0.0658 0.18184 0.0
H3589 H 0.46273 0.97317 0.12414 0.0
H3590 H 0.4451 0.9857 0.14692 0.0
H3591 H 0.48161 0.03665 0.15328 0.0
H3592 H 0.49892 0.0243 0.12958 0.0
H3593 H 0.43964 0.03518 0.15632 0.0
H3594 H 0.4939 0.01767 0.18454 0.0
H3595 H 0.51571 0.99748 0.18373 0.0
H3596 H 0.47415 0.95213 0.18639 0.0
H3597 H 0.4521 0.97207 0.18708 0.0
C3598 C 0.41598 0.03333 0.24427 0.0
C3599 C 0.40957 0.0163 0.24954 0.0
C3600 C 0.42299 0.03475 0.22701 0.0
C3601 C 0.42323 0.01911 0.21493 0.0
C3602 C 0.41517 1.00225 0.21951 0.0
C3603 C 0.40858 1.00083 0.23688 0.0
C3604 C 0.43433 0.01972 0.19927 0.0
C3605 C 0.44782 0.00954 0.2 0.0
C3606 C 0.43182 0.02981 0.18387 0.0
C3607 C 0.41812 0.04122 0.18291 0.0
C3608 C 0.40007 0.03374 0.18325 0.0
C3609 C 0.38733 0.04476 0.18307 0.0
C3610 C 0.39249 0.06325 0.18245 0.0
C3611 C 0.41038 0.07074 0.1819 0.0
C3612 C 0.42317 0.05978 0.18206 0.0
C3613 C 0.46678 0.98711 0.13018 0.0
C3614 C 0.48228 0.99772 0.12568 0.0
C3615 C 0.4566 0.99433 0.14285 0.0
C3616 C 0.46215 0.01204 0.15162 0.0
C3617 C 0.47709 0.02304 0.14638 0.0
C3618 C 0.48708 0.01591 0.13323 0.0
C3619 C 0.45466 0.01708 0.16903 0.0
C3620 C 0.44212 0.02838 0.16876 0.0
C3621 C 0.45805 0.00816 0.18509 0.0
C3622 C 0.47141 0.99633 0.1859 0.0
C3623 C 0.48946 1.0034 0.18501 0.0
C3624 C 0.50184 0.992 0.18454 0.0
C3625 C 0.49632 0.97353 0.18502 0.0
C3626 C 0.47842 0.96644 0.18608 0.0
C3627 C 0.46599 0.97778 0.18659 0.0
H3628 H 0.50591 0.96472 0.18455 0.0
H3629 H 0.38261 0.07177 0.18238 0.0
H3630 H 0.74971 0.70176 0.96398 0.0
H3631 H 0.75207 0.71581 0.93426 0.0
H3632 H 0.79469 0.68823 0.92194 0.0
H3633 H 0.79175 0.67348 0.95103 0.0
H3634 H 0.79864 0.73085 0.91991 0.0
H3635 H 0.76546 0.67133 0.89654 0.0
H3636 H 0.74106 0.64522 0.89527 0.0
H3637 H 0.70271 0.67849 0.88293 0.0
H3638 H 0.72692 0.70492 0.88457 0.0
H3639 H 0.80132 0.73888 0.81738 0.0
H3640 H 0.80052 0.72551 0.84763 0.0
H3641 H 0.75784 0.7525 0.86131 0.0
H3642 H 0.7591 0.76642 0.83167 0.0
H3643 H 0.7545 0.71031 0.86277 0.0
H3644 H 0.78728 0.76975 0.8861 0.0
H3645 H 0.81141 0.79614 0.88748 0.0
H3646 H 0.85028 0.76341 0.89973 0.0
H3647 H 0.82634 0.73673 0.89811 0.0
C3648 C 0.75946 0.6986 0.95481 0.0
C3649 C 0.7704 0.68638 0.95969 0.0
C3650 C 0.76084 0.70666 0.93789 0.0
C3651 C 0.77358 0.70309 0.92588 0.0
C3652 C 0.78475 0.69115 0.93095 0.0
C3653 C 0.78297 0.68265 0.9475 0.0
C3654 C 0.77513 0.71167 0.90794 0.0
C3655 C 0.7891 0.72623 0.90735 0.0
C3656 C 0.76255 0.70589 0.89163 0.0
C3657 C 0.74797 0.69016 0.89104 0.0
C3658 C 0.75181 0.67315 0.8939 0.0
C3659 C 0.73802 0.65827 0.89303 0.0
C3660 C 0.72034 0.66021 0.88912 0.0
C3661 C 0.71641 0.67703 0.88605 0.0
C3662 C 0.73016 0.69196 0.88696 0.0
C3663 C 0.79183 0.74197 0.82689 0.0
C3664 C 0.78029 0.75369 0.82216 0.0
C3665 C 0.79142 0.73441 0.84418 0.0
C3666 C 0.77916 0.73807 0.85677 0.0
C3667 C 0.76748 0.74957 0.8519 0.0
C3668 C 0.76823 0.75752 0.83496 0.0
C3669 C 0.77802 0.72945 0.8747 0.0
C3670 C 0.76408 0.7149 0.8753 0.0
C3671 C 0.79061 0.73528 0.89101 0.0
C3672 C 0.80504 0.75118 0.89161 0.0
C3673 C 0.80098 0.76811 0.88877 0.0
C3674 C 0.81461 0.78314 0.88971 0.0
C3675 C 0.83237 0.78144 0.8936 0.0
C3676 C 0.83652 0.7647 0.89663 0.0
C3677 C 0.82292 0.74962 0.89571 0.0
H3678 H 0.84291 0.79309 0.89431 0.0
H3679 H 0.70967 0.64866 0.88839 0.0
H3680 H 0.80083 0.08501 0.03345 0.0
H3681 H 0.82758 0.07252 0.03169 0.0
H3682 H 0.85686 0.11609 0.07263 0.0
H3683 H 0.8302 0.12966 0.07275 0.0
H3684 H 0.87445 0.11277 0.04536 0.0
H3685 H 0.84578 0.06881 0.08187 0.0
H3686 H 0.82 0.04746 0.08943 0.0
H3687 H 0.8181 0.01564 0.03573 0.0
H3688 H 0.8437 0.03692 0.02772 0.0
H3689 H 0.94909 0.07084 0.03213 0.0
H3690 H 0.92537 0.07953 0.0498 0.0
H3691 H 0.88604 0.0532 0.00338 0.0
H3692 H 0.90972 0.04485 0.98564 0.0
H3693 H 0.87673 0.04772 0.04122 0.0
H3694 H 0.90018 0.09427 0.00277 0.0
H3695 H 0.92422 0.11638 0.99305 0.0
H3696 H 0.93455 0.14372 0.04987 0.0
H3697 H 0.91082 0.12152 0.06002 0.0
C3698 C 0.81287 0.0916 0.04248 0.0
C3699 C 0.81361 0.10806 0.05345 0.0
C3700 C 0.82814 0.0844 0.0416 0.0
C3701 C 0.84414 0.09304 0.05251 0.0
C3702 C 0.84461 0.10911 0.06426 0.0
C3703 C 0.82945 0.11677 0.06445 0.0
C3704 C 0.8607 0.0864 0.04977 0.0
C3705 C 0.87515 0.09862 0.04513 0.0
C3706 C 0.86145 0.06787 0.04898 0.0
C3707 C 0.84673 0.05445 0.05425 0.0
C3708 C 0.83991 0.05722 0.07171 0.0
C3709 C 0.82529 0.04516 0.07605 0.0
C3710 C 0.81744 0.03019 0.06308 0.0
C3711 C 0.82424 0.02721 0.04579 0.0
C3712 C 0.83885 0.03923 0.04137 0.0
C3713 C 0.93533 0.06691 0.02588 0.0
C3714 C 0.93098 0.05759 0.00754 0.0
C3715 C 0.92191 0.07172 0.03594 0.0
C3716 C 0.90412 0.06698 0.02776 0.0
C3717 C 0.89976 0.05686 0.00983 0.0
C3718 C 0.91318 0.05231 0.99968 0.0
C3719 C 0.89012 0.07409 0.03679 0.0
C3720 C 0.87619 0.06194 0.04237 0.0
C3721 C 0.8898 0.09267 0.03845 0.0
C3722 C 0.90397 0.10603 0.03225 0.0
C3723 C 0.90773 0.10485 0.01325 0.0
C3724 C 0.92127 0.11742 0.00765 0.0
C3725 C 0.93097 0.13137 0.02087 0.0
C3726 C 0.92708 0.13285 0.03967 0.0
C3727 C 0.91361 0.12026 0.04536 0.0
H3728 H 0.94149 0.14105 0.01658 0.0
H3729 H 0.80607 0.02092 0.06643 0.0
H3730 H 0.33856 0.42688 0.0152 0.0
H3731 H 0.36673 0.44825 0.01538 0.0
H3732 H 0.3924 0.42011 0.05647 0.0
H3733 H 0.36452 0.39831 0.05568 0.0
H3734 H 0.40015 0.46061 0.0633 0.0
H3735 H 0.40012 0.41013 0.01712 0.0
H3736 H 0.38872 0.38794 0.98906 0.0
H3737 H 0.38895 0.43059 0.95362 0.0
H3738 H 0.39996 0.45309 0.98158 0.0
H3739 H 0.49263 0.48879 0.05414 0.0
H3740 H 0.46306 0.47104 0.05617 0.0
H3741 H 0.44118 0.49503 0.00894 0.0
H3742 H 0.4706 0.51293 0.00696 0.0
H3743 H 0.43087 0.45758 0.00519 0.0
H3744 H 0.43247 0.5081 0.05113 0.0
H3745 H 0.44494 0.53013 0.07904 0.0
H3746 H 0.4425 0.48758 0.1148 0.0
H3747 H 0.43022 0.46523 0.08704 0.0
C3748 C 0.35018 0.42544 0.02444 0.0
C3749 C 0.34945 0.41098 0.03541 0.0
C3750 C 0.36623 0.43759 0.0245 0.0
C3751 C 0.38164 0.43571 0.03591 0.0
C3752 C 0.38066 0.42179 0.04758 0.0
C3753 C 0.36478 0.40935 0.04709 0.0
C3754 C 0.39903 0.44756 0.03485 0.0
C3755 C 0.40695 0.45987 0.05067 0.0
C3756 C 0.40774 0.44677 0.01825 0.0
C3757 C 0.40059 0.43331 0.00151 0.0
C3758 C 0.39744 0.41481 0.00341 0.0
C3759 C 0.39112 0.40217 0.98751 0.0
C3760 C 0.3881 0.40786 0.96958 0.0
C3761 C 0.39127 0.42621 0.96753 0.0
C3762 C 0.39753 0.43891 0.98341 0.0
C3763 C 0.48149 0.49039 0.04429 0.0
C3764 C 0.48394 0.50237 0.03049 0.0
C3765 C 0.4646 0.48026 0.04548 0.0
C3766 C 0.44989 0.48177 0.03275 0.0
C3767 C 0.45233 0.49368 0.01893 0.0
C3768 C 0.46913 0.50399 0.01791 0.0
C3769 C 0.43203 0.47068 0.03364 0.0
C3770 C 0.42403 0.45846 0.01779 0.0
C3771 C 0.42327 0.47156 0.05021 0.0
C3772 C 0.43059 0.48496 0.06696 0.0
C3773 C 0.43474 0.50341 0.06491 0.0
C3774 C 0.44176 0.51596 0.0807 0.0
C3775 C 0.44458 0.51025 0.09866 0.0
C3776 C 0.44034 0.49198 0.10087 0.0
C3777 C 0.43333 0.47936 0.08511 0.0
H3778 H 0.45001 0.52 0.11087 0.0
H3779 H 0.38345 0.39807 0.95724 0.0
H3780 H 0.38446 0.55012 0.78268 0.0
H3781 H 0.36995 0.57615 0.78495 0.0
H3782 H 0.39988 0.59843 0.74161 0.0
H3783 H 0.41561 0.57292 0.74069 0.0
H3784 H 0.39789 0.62419 0.76559 0.0
H3785 H 0.35257 0.57597 0.73379 0.0
H3786 H 0.33413 0.54547 0.72942 0.0
H3787 H 0.3128 0.55666 0.78192 0.0
H3788 H 0.33126 0.58715 0.78671 0.0
H3789 H 0.34223 0.68927 0.75613 0.0
H3790 H 0.35357 0.66173 0.74714 0.0
H3791 H 0.33988 0.64178 0.7996 0.0
H3792 H 0.32891 0.66941 0.80872 0.0
H3793 H 0.33247 0.61504 0.76697 0.0
H3794 H 0.3801 0.66216 0.79942 0.0
H3795 H 0.39829 0.69276 0.80341 0.0
H3796 H 0.41452 0.68346 0.74779 0.0
H3797 H 0.3962 0.65287 0.74338 0.0
C3798 C 0.38787 0.5606 0.77363 0.0
C3799 C 0.4009 0.55953 0.76133 0.0
C3800 C 0.37946 0.57541 0.77478 0.0
C3801 C 0.38326 0.58905 0.76295 0.0
C3802 C 0.39652 0.58804 0.75076 0.0
C3803 C 0.40545 0.57348 0.75014 0.0
C3804 C 0.37363 0.60446 0.76366 0.0
C3805 C 0.38355 0.62208 0.76545 0.0
C3806 C 0.35487 0.60194 0.76377 0.0
C3807 C 0.34335 0.58381 0.76064 0.0
C3808 C 0.34396 0.57191 0.74441 0.0
C3809 C 0.33352 0.55462 0.74187 0.0
C3810 C 0.32232 0.54913 0.75539 0.0
C3811 C 0.32147 0.56094 0.77145 0.0
C3812 C 0.33189 0.57824 0.77406 0.0
C3813 C 0.3414 0.67882 0.76551 0.0
C3814 C 0.33492 0.68137 0.78314 0.0
C3815 C 0.34787 0.66317 0.76042 0.0
C3816 C 0.34771 0.64984 0.77282 0.0
C3817 C 0.34014 0.65192 0.78987 0.0
C3818 C 0.33395 0.66766 0.79509 0.0
C3819 C 0.35679 0.63448 0.76896 0.0
C3820 C 0.34677 0.61697 0.76668 0.0
C3821 C 0.37538 0.63709 0.76819 0.0
C3822 C 0.38666 0.65531 0.77099 0.0
C3823 C 0.38746 0.66669 0.788 0.0
C3824 C 0.3978 0.68402 0.79034 0.0
C3825 C 0.40752 0.69007 0.77584 0.0
C3826 C 0.40697 0.67877 0.759 0.0
C3827 C 0.39662 0.66143 0.75657 0.0
H3828 H 0.4155 0.7035 0.77768 0.0
H3829 H 0.31428 0.53572 0.75342 0.0
H3830 H 0.22792 0.59173 0.52984 0.0
H3831 H 0.19877 0.57267 0.52987 0.0
H3832 H 0.17331 0.61762 0.51977 0.0
H3833 H 0.20224 0.63683 0.51971 0.0
H3834 H 0.16239 0.59899 0.55072 0.0
H3835 H 0.17163 0.58722 0.48393 0.0
H3836 H 0.18869 0.57775 0.4584 0.0
H3837 H 0.18722 0.52649 0.47944 0.0
H3838 H 0.17026 0.53574 0.50519 0.0
H3839 H 0.07323 0.56721 0.52044 0.0
H3840 H 0.10457 0.58011 0.52034 0.0
H3841 H 0.11861 0.52875 0.52897 0.0
H3842 H 0.0871 0.51555 0.52875 0.0
H3843 H 0.13693 0.54715 0.50194 0.0
H3844 H 0.12624 0.55659 0.56652 0.0
H3845 H 0.10993 0.5648 0.59313 0.0
H3846 H 0.11455 0.61859 0.57792 0.0
H3847 H 0.13113 0.61073 0.55131 0.0
C3848 C 0.21612 0.59751 0.52738 0.0
C3849 C 0.21735 0.61578 0.52476 0.0
C3850 C 0.19955 0.58662 0.52745 0.0
C3851 C 0.18413 0.5939 0.52488 0.0
C3852 C 0.18524 0.61194 0.52185 0.0
C3853 C 0.20174 0.62281 0.52168 0.0
C3854 C 0.16669 0.58283 0.52559 0.0
C3855 C 0.15674 0.58772 0.54003 0.0
C3856 C 0.15981 0.56777 0.51205 0.0
C3857 C 0.16987 0.56222 0.49654 0.0
C3858 C 0.17507 0.57398 0.48317 0.0
C3859 C 0.18469 0.56865 0.46866 0.0
C3860 C 0.18909 0.55155 0.46734 0.0
C3861 C 0.18382 0.53973 0.48049 0.0
C3862 C 0.17419 0.545 0.49503 0.0
C3863 C 0.08292 0.55855 0.52184 0.0
C3864 C 0.07786 0.54042 0.52458 0.0
C3865 C 0.10077 0.56596 0.52199 0.0
C3866 C 0.11367 0.55534 0.52498 0.0
C3867 C 0.10866 0.53704 0.52677 0.0
C3868 C 0.09077 0.52959 0.52663 0.0
C3869 C 0.13245 0.56367 0.52668 0.0
C3870 C 0.14267 0.55826 0.51279 0.0
C3871 C 0.13968 0.5781 0.54088 0.0
C3872 C 0.12978 0.58303 0.55685 0.0
C3873 C 0.12368 0.57014 0.56878 0.0
C3874 C 0.1144 0.57473 0.58387 0.0
C3875 C 0.11102 0.59213 0.58711 0.0
C3876 C 0.1171 0.60507 0.57537 0.0
C3877 C 0.12654 0.60059 0.56034 0.0
H3878 H 0.10375 0.59552 0.59878 0.0
H3879 H 0.19654 0.54744 0.4561 0.0
H3880 H 0.67516 0.97769 0.7488 0.0
H3881 H 0.69012 0.95239 0.75149 0.0
H3882 H 0.7402 0.98597 0.74507 0.0
H3883 H 0.72536 0.01187 0.7428 0.0
H3884 H 0.72458 0.94244 0.72501 0.0
H3885 H 0.74311 0.98628 0.78295 0.0
H3886 H 0.73692 0.00696 0.8093 0.0
H3887 H 0.69915 0.96433 0.8261 0.0
H3888 H 0.70481 0.94352 0.79958 0.0
H3889 H 0.78129 0.89051 0.77228 0.0
H3890 H 0.76568 0.91028 0.75447 0.0
H3891 H 0.72199 0.89997 0.78827 0.0
H3892 H 0.73806 0.88109 0.80668 0.0
H3893 H 0.73634 0.93343 0.79292 0.0
H3894 H 0.71645 0.88921 0.73913 0.0
H3895 H 0.71735 0.86681 0.71192 0.0
H3896 H 0.75185 0.9066 0.6869 0.0
H3897 H 0.75131 0.92905 0.71393 0.0
C3898 C 0.68929 0.97969 0.74751 0.0
C3899 C 0.69925 0.99674 0.74592 0.0
C3900 C 0.69773 0.96522 0.74899 0.0
C3901 C 0.71611 0.96764 0.74864 0.0
C3902 C 0.72593 0.98417 0.74537 0.0
C3903 C 0.7175 0.99882 0.74412 0.0
C3904 C 0.725 0.95333 0.7541 0.0
C3905 C 0.72764 0.94049 0.73981 0.0
C3906 C 0.72788 0.95073 0.77342 0.0
C3907 C 0.72416 0.96344 0.78906 0.0
C3908 C 0.73324 0.98141 0.79204 0.0
C3909 C 0.72989 0.99313 0.80706 0.0
C3910 C 0.71759 0.98699 0.81931 0.0
C3911 C 0.70862 0.9691 0.81656 0.0
C3912 C 0.71188 0.95735 0.80152 0.0
C3913 C 0.76823 0.89238 0.77561 0.0
C3914 C 0.76094 0.88502 0.79107 0.0
C3915 C 0.75923 0.90334 0.76528 0.0
C3916 C 0.74277 0.90658 0.77019 0.0
C3917 C 0.73476 0.89766 0.78442 0.0
C3918 C 0.74394 0.88713 0.79502 0.0
C3919 C 0.73592 0.92203 0.76379 0.0
C3920 C 0.73361 0.93522 0.77802 0.0
C3921 C 0.73291 0.92461 0.74441 0.0
C3922 C 0.73406 0.91074 0.72871 0.0
C3923 C 0.72447 0.89307 0.72796 0.0
C3924 C 0.72483 0.88037 0.71249 0.0
C3925 C 0.73469 0.88521 0.69766 0.0
C3926 C 0.74423 0.90276 0.69832 0.0
C3927 C 0.74391 0.91548 0.71372 0.0
H3928 H 0.73488 0.87538 0.68567 0.0
H3929 H 0.71506 0.99607 0.83098 0.0
H3930 H 0.7341 0.88892 0.54825 0.0
H3931 H 0.70851 0.90412 0.54821 0.0
H3932 H 0.73714 0.94679 0.52077 0.0
H3933 H 0.76311 0.93253 0.52271 0.0
H3934 H 0.72114 0.96177 0.5428 0.0
H3935 H 0.70003 0.90801 0.49797 0.0
H3936 H 0.69231 0.87541 0.48731 0.0
H3937 H 0.65656 0.86832 0.52992 0.0
H3938 H 0.6642 0.90082 0.54093 0.0
H3939 H 0.6465 0.99251 0.49729 0.0
H3940 H 0.67313 0.9801 0.50616 0.0
H3941 H 0.64505 0.94969 0.54582 0.0
H3942 H 0.61842 0.96215 0.53689 0.0
H3943 H 0.65977 0.92876 0.52083 0.0
H3944 H 0.67905 0.98441 0.56184 0.0
H3945 H 0.68602 0.01739 0.56967 0.0
H3946 H 0.72498 0.02127 0.53018 0.0
H3947 H 0.71806 0.98833 0.5219 0.0
C3948 C 0.73485 0.90162 0.54238 0.0
C3949 C 0.75052 0.90963 0.53556 0.0
C3950 C 0.72015 0.91023 0.54211 0.0
C3951 C 0.72056 0.92652 0.53407 0.0
C3952 C 0.73633 0.93436 0.52717 0.0
C3953 C 0.7512 0.92616 0.52821 0.0
C3954 C 0.70486 0.93569 0.53292 0.0
C3955 C 0.70779 0.95447 0.53771 0.0
C3956 C 0.6872 0.92633 0.52686 0.0
C3957 C 0.68285 0.90678 0.52041 0.0
C3958 C 0.69064 0.89945 0.50515 0.0
C3959 C 0.68625 0.88101 0.49903 0.0
C3960 C 0.674 0.86979 0.50797 0.0
C3961 C 0.66608 0.877 0.52303 0.0
C3962 C 0.67043 0.89543 0.52921 0.0
C3963 C 0.64627 0.98357 0.50828 0.0
C3964 C 0.63063 0.97833 0.51659 0.0
C3965 C 0.66142 0.97648 0.51333 0.0
C3966 C 0.66109 0.96402 0.52671 0.0
C3967 C 0.6456 0.95932 0.53551 0.0
C3968 C 0.63048 0.96648 0.53052 0.0
C3969 C 0.67628 0.95467 0.53019 0.0
C3970 C 0.67319 0.93591 0.52591 0.0
C3971 C 0.69381 0.96409 0.53623 0.0
C3972 C 0.69794 0.98391 0.54116 0.0
C3973 C 0.689 0.9923 0.55471 0.0
C3974 C 0.69296 0.01099 0.55925 0.0
C3975 C 0.70591 0.02142 0.5504 0.0
C3976 C 0.71494 0.01318 0.53701 0.0
C3977 C 0.71102 0.9945 0.53241 0.0
H3978 H 0.70897 0.03588 0.55396 0.0
H3979 H 0.67062 0.85552 0.5032 0.0
H3980 H 0.38158 0.4743 0.77368 0.0
H3981 H 0.35956 0.4464 0.77299 0.0
H3982 H 0.3966 0.41567 0.7509 0.0
H3983 H 0.41876 0.44333 0.75204 0.0
H3984 H 0.36033 0.40552 0.73218 0.0
H3985 H 0.39382 0.41589 0.79439 0.0
H3986 H 0.40637 0.43365 0.8251 0.0
H3987 H 0.35371 0.43713 0.83842 0.0
H3988 H 0.34085 0.41964 0.80759 0.0
H3989 H 0.32532 0.31659 0.74845 0.0
H3990 H 0.34394 0.34582 0.74703 0.0
H3991 H 0.31013 0.37144 0.78124 0.0
H3992 H 0.29185 0.34205 0.78346 0.0
H3993 H 0.34329 0.3854 0.79329 0.0
H3994 H 0.30942 0.37323 0.73182 0.0
H3995 H 0.29695 0.35543 0.70109 0.0
H3996 H 0.34972 0.35553 0.68604 0.0
H3997 H 0.36253 0.37307 0.71683 0.0
C3998 C 0.38496 0.4616 0.76855 0.0
C3999 C 0.40196 0.46099 0.76306 0.0
C4000 C 0.3724 0.44568 0.7682 0.0
C4001 C 0.37648 0.42895 0.76196 0.0
C4002 C 0.39317 0.42841 0.75577 0.0
C4003 C 0.40585 0.44423 0.75653 0.0
C4004 C 0.36373 0.41188 0.76261 0.0
C4005 C 0.35666 0.40104 0.74553 0.0
C4006 C 0.3587 0.40622 0.78 0.0
C4007 C 0.36638 0.41668 0.79856 0.0
C4008 C 0.38492 0.42061 0.80377 0.0
C4009 C 0.39209 0.4306 0.82121 0.0
C4010 C 0.38085 0.43658 0.83367 0.0
C4011 C 0.3624 0.43253 0.82873 0.0
C4012 C 0.35516 0.42258 0.81127 0.0
C4013 C 0.32171 0.32842 0.75557 0.0
C4014 C 0.30686 0.32692 0.76583 0.0
C4015 C 0.33237 0.3452 0.75466 0.0
C4016 C 0.32831 0.36098 0.76371 0.0
C4017 C 0.31351 0.35953 0.77401 0.0
C4018 C 0.30293 0.3427 0.77509 0.0
C4019 C 0.33976 0.37889 0.7628 0.0
C4020 C 0.3467 0.3899 0.77987 0.0
C4021 C 0.3446 0.38473 0.74535 0.0
C4022 C 0.33694 0.37435 0.72671 0.0
C4023 C 0.31837 0.36936 0.72201 0.0
C4024 C 0.31124 0.35932 0.70458 0.0
C4025 C 0.32254 0.35432 0.69164 0.0
C4026 C 0.34099 0.35939 0.69609 0.0
C4027 C 0.34819 0.3694 0.71352 0.0
H4028 H 0.31699 0.34654 0.67815 0.0
H4029 H 0.38642 0.4443 0.84718 0.0
H4030 H 0.21319 0.58137 0.25639 0.0
H4031 H 0.23237 0.61032 0.25524 0.0
H4032 H 0.19299 0.63757 0.27799 0.0
H4033 H 0.17349 0.60869 0.27893 0.0
H4034 H 0.20549 0.65143 0.24663 0.0
H4035 H 0.22954 0.63263 0.30605 0.0
H4036 H 0.24303 0.61221 0.3254 0.0
H4037 H 0.28693 0.61607 0.29206 0.0
H4038 H 0.27356 0.63633 0.27236 0.0
H4039 H 0.2451 0.73759 0.28155 0.0
H4040 H 0.23164 0.70609 0.27974 0.0
H4041 H 0.27883 0.69124 0.25964 0.0
H4042 H 0.29303 0.72296 0.26275 0.0
H4043 H 0.26513 0.66947 0.28416 0.0
H4044 H 0.24383 0.69237 0.22826 0.0
H4045 H 0.23132 0.71407 0.20996 0.0
H4046 H 0.18292 0.70304 0.23575 0.0
H4047 H 0.19525 0.68153 0.25451 0.0
C4048 C 0.20865 0.5935 0.26134 0.0
C4049 C 0.19183 0.5928 0.26778 0.0
C4050 C 0.21962 0.60998 0.26062 0.0
C4051 C 0.214 0.62589 0.26656 0.0
C4052 C 0.1974 0.62529 0.27327 0.0
C4053 C 0.18636 0.60883 0.27389 0.0
C4054 C 0.22535 0.64332 0.26575 0.0
C4055 C 0.21851 0.65547 0.25486 0.0
C4056 C 0.24258 0.64809 0.27587 0.0
C4057 C 0.25045 0.63577 0.2876 0.0
C4058 C 0.24198 0.62897 0.30274 0.0
C4059 C 0.24962 0.61746 0.31379 0.0
C4060 C 0.26579 0.61279 0.30992 0.0
C4061 C 0.27438 0.61965 0.29501 0.0
C4062 C 0.26678 0.63114 0.28391 0.0
C4063 C 0.25292 0.72769 0.27751 0.0
C4064 C 0.27014 0.7327 0.27247 0.0
C4065 C 0.24507 0.70971 0.27609 0.0
C4066 C 0.25413 0.69657 0.26902 0.0
C4067 C 0.27167 0.70137 0.26492 0.0
C4068 C 0.27971 0.71942 0.26673 0.0
C4069 C 0.24498 0.67783 0.26571 0.0
C4070 C 0.25227 0.66536 0.27562 0.0
C4071 C 0.22822 0.67276 0.25457 0.0
C4072 C 0.22052 0.68535 0.24287 0.0
C4073 C 0.23055 0.69462 0.2301 0.0
C4074 C 0.22349 0.7069 0.21965 0.0
C4075 C 0.20635 0.70995 0.22171 0.0
C4076 C 0.1962 0.70067 0.23417 0.0
C4077 C 0.20321 0.6884 0.2447 0.0
H4078 H 0.20092 0.7195 0.21363 0.0
H4079 H 0.2717 0.6039 0.31851 0.0
H4080 H 0.47951 0.70676 0.4549 0.0
H4081 H 0.48402 0.67736 0.46323 0.0
H4082 H 0.5408 0.69691 0.4721 0.0
H4083 H 0.53617 0.72584 0.46182 0.0
H4084 H 0.53983 0.66572 0.46369 0.0
H4085 H 0.50842 0.68844 0.51068 0.0
H4086 H 0.48535 0.70211 0.52506 0.0
H4087 H 0.44527 0.65728 0.4994 0.0
H4088 H 0.46808 0.64324 0.48484 0.0
H4089 H 0.54517 0.59583 0.52982 0.0
H4090 H 0.54221 0.62479 0.51874 0.0
H4091 H 0.50379 0.5974 0.47236 0.0
H4092 H 0.50793 0.56827 0.48241 0.0
H4093 H 0.49674 0.63234 0.50119 0.0
H4094 H 0.53718 0.61027 0.45826 0.0
H4095 H 0.56549 0.60011 0.45396 0.0
H4096 H 0.59489 0.64967 0.48418 0.0
H4097 H 0.56686 0.65998 0.48918 0.0
C4098 C 0.493 0.70473 0.45835 0.0
C4099 C 0.50742 0.71887 0.45749 0.0
C4100 C 0.49565 0.68781 0.46358 0.0
C4101 C 0.51282 0.68444 0.46927 0.0
C4102 C 0.52731 0.69857 0.468 0.0
C4103 C 0.52467 0.71534 0.46207 0.0
C4104 C 0.51556 0.66643 0.47641 0.0
C4105 C 0.53031 0.65868 0.47196 0.0
C4106 C 0.50375 0.65671 0.4878 0.0
C4107 C 0.48993 0.66491 0.49651 0.0
C4108 C 0.49466 0.68152 0.50804 0.0
C4109 C 0.48164 0.6893 0.51626 0.0
C4110 C 0.46384 0.68054 0.51313 0.0
C4111 C 0.45906 0.66396 0.50183 0.0
C4112 C 0.47202 0.65607 0.49363 0.0
C4113 C 0.53647 0.59576 0.51695 0.0
C4114 C 0.52721 0.57923 0.50691 0.0
C4115 C 0.53458 0.61255 0.51071 0.0
C4116 C 0.5228 0.61363 0.49454 0.0
C4117 C 0.51308 0.59723 0.4848 0.0
C4118 C 0.51544 0.58041 0.49066 0.0
C4119 C 0.52054 0.63172 0.48791 0.0
C4120 C 0.506 0.63945 0.49267 0.0
C4121 C 0.53314 0.64192 0.47789 0.0
C4122 C 0.54989 0.63582 0.47426 0.0
C4123 C 0.54966 0.61893 0.46415 0.0
C4124 C 0.56564 0.61315 0.46156 0.0
C4125 C 0.58191 0.62421 0.4688 0.0
C4126 C 0.58227 0.64111 0.4786 0.0
C4127 C 0.56635 0.64692 0.48132 0.0
H4128 H 0.59424 0.61968 0.46678 0.0
H4129 H 0.45375 0.68658 0.51946 0.0
H4130 H 0.59384 0.28989 0.6605 0.0
H4131 H 0.61943 0.28782 0.68313 0.0
H4132 H 0.65493 0.30464 0.64218 0.0
H4133 H 0.6295 0.30613 0.61943 0.0
H4134 H 0.66618 0.27914 0.65686 0.0
H4135 H 0.648 0.33227 0.68574 0.0
H4136 H 0.62735 0.34958 0.69998 0.0
H4137 H 0.62074 0.3137 0.74291 0.0
H4138 H 0.64118 0.29604 0.72878 0.0
H4139 H 0.74863 0.30052 0.71811 0.0
H4140 H 0.72181 0.30206 0.69709 0.0
H4141 H 0.689 0.27838 0.73726 0.0
H4142 H 0.71561 0.27604 0.75783 0.0
H4143 H 0.67586 0.30639 0.72413 0.0
H4144 H 0.69157 0.25287 0.69613 0.0
H4145 H 0.71071 0.23341 0.68251 0.0
H4146 H 0.7211 0.2684 0.63932 0.0
H4147 H 0.70178 0.28795 0.65258 0.0
C4148 C 0.6071 0.29334 0.65636 0.0
C4149 C 0.60942 0.29828 0.638 0.0
C4150 C 0.62185 0.29222 0.66942 0.0
C4151 C 0.63943 0.29628 0.66469 0.0
C4152 C 0.64169 0.30137 0.64643 0.0
C4153 C 0.62701 0.30232 0.63335 0.0
C4154 C 0.65549 0.29476 0.67824 0.0
C4155 C 0.66832 0.28543 0.67146 0.0
C4156 C 0.65832 0.30221 0.69768 0.0
C4157 C 0.64594 0.31273 0.70607 0.0
C4158 C 0.64202 0.32799 0.69812 0.0
C4159 C 0.63038 0.33788 0.70619 0.0
C4160 C 0.62269 0.33271 0.7223 0.0
C4161 C 0.62667 0.31766 0.73041 0.0
C4162 C 0.63828 0.30772 0.72238 0.0
C4163 C 0.73574 0.29562 0.72254 0.0
C4164 C 0.73454 0.28845 0.74006 0.0
C4165 C 0.72032 0.29647 0.71041 0.0
C4166 C 0.70317 0.29035 0.71545 0.0
C4167 C 0.70194 0.28337 0.73297 0.0
C4168 C 0.71732 0.28223 0.74494 0.0
C4169 C 0.68659 0.29121 0.70251 0.0
C4170 C 0.67368 0.30028 0.70946 0.0
C4171 C 0.68355 0.28339 0.68329 0.0
C4172 C 0.69544 0.27197 0.67547 0.0
C4173 C 0.69806 0.25648 0.68382 0.0
C4174 C 0.70887 0.2454 0.67612 0.0
C4175 C 0.71725 0.24975 0.66015 0.0
C4176 C 0.71466 0.26509 0.65173 0.0
C4177 C 0.70371 0.27613 0.65927 0.0
H4178 H 0.72569 0.24118 0.65427 0.0
H4179 H 0.61369 0.34039 0.72853 0.0
H4180 H 0.02581 0.33187 0.933 0.0
H4181 H 0.0276 0.36296 0.94676 0.0
H4182 H 0.99686 0.34429 0.99083 0.0
H4183 H 0.9955 0.31281 0.97731 0.0
H4184 H 0.98534 0.37462 0.97419 0.0
H4185 H 0.03882 0.36011 0.00307 0.0
H4186 H 0.06728 0.34935 0.00504 0.0
H4187 H 0.08852 0.38939 0.97046 0.0
H4188 H 0.06006 0.40021 0.96802 0.0
H4189 H 1.00113 0.46406 0.02612 0.0
H4190 H 0.99743 0.43163 0.01642 0.0
H4191 H 0.03816 0.44189 0.97918 0.0
H4192 H 0.042 0.47403 0.98897 0.0
H4193 H 0.04379 0.41469 0.99484 0.0
H4194 H 0.98989 0.42818 0.9642 0.0
H4195 H 0.9621 0.4402 0.9635 0.0
H4196 H 0.94198 0.40286 0.0014 0.0
H4197 H 0.96979 0.39082 0.00257 0.0
C4198 C 0.01942 0.33424 0.94566 0.0
C4199 C 0.0105 0.31955 0.95394 0.0
C4200 C 0.02049 0.3522 0.9536 0.0
C4201 C 0.01239 0.35634 0.96997 0.0
C4202 C 1.00325 0.34172 0.97821 0.0
C4203 C 1.00254 0.32361 0.97049 0.0
C4204 C 0.01366 0.37585 0.97825 0.0
C4205 C 0.99815 0.38327 0.97896 0.0
C4206 C 0.03027 0.38759 0.98421 0.0
C4207 C 0.04722 0.38081 0.98515 0.0
C4208 C 0.04947 0.36646 0.99566 0.0
C4209 C 0.06562 0.36039 0.99692 0.0
C4210 C 0.07968 0.36864 0.98783 0.0
C4211 C 0.0776 0.38298 0.97746 0.0
C4212 C 0.06146 0.38909 0.97613 0.0
C4213 C 0.00911 0.45949 0.01565 0.0
C4214 C 0.02175 0.47206 0.00832 0.0
C4215 C 1.007 0.44074 0.01004 0.0
C4216 C 0.01735 0.43382 0.99673 0.0
C4217 C 0.02993 0.44643 0.98945 0.0
C4218 C 0.03209 0.46506 0.9951 0.0
C4219 C 0.0155 0.41368 0.99049 0.0
C4220 C 0.03095 0.4061 0.9901 0.0
C4221 C 0.99885 0.40187 0.98472 0.0
C4222 C 0.98196 0.40872 0.98361 0.0
C4223 C 0.97956 0.42258 0.97244 0.0
C4224 C 0.96381 0.4294 0.97196 0.0
C4225 C 0.9503 0.42232 0.98243 0.0
C4226 C 0.95247 0.40835 0.99332 0.0
C4227 C 0.96821 0.40151 0.99389 0.0
H4228 H 0.93813 0.42763 0.98207 0.0
H4229 H 0.0922 0.36396 0.98887 0.0
H4230 H 0.99193 0.78851 0.11549 0.0
H4231 H 0.96536 0.78605 0.13229 0.0
H4232 H 0.99709 0.78044 0.1841 0.0
H4233 H 0.02347 0.78242 0.16731 0.0
H4234 H 0.96765 0.75751 0.1812 0.0
H4235 H 0.98147 0.82068 0.17469 0.0
H4236 H 0.98737 0.84729 0.15735 0.0
H4237 H 0.93555 0.83173 0.12541 0.0
H4238 H 0.92943 0.80489 0.1424 0.0
H4239 H 0.90808 0.76832 0.24725 0.0
H4240 H 0.93344 0.77694 0.22953 0.0
H4241 H 0.89738 0.77565 0.17876 0.0
H4242 H 0.87193 0.76726 0.19667 0.0
H4243 H 0.92787 0.80219 0.17997 0.0
H4244 H 0.91421 0.73919 0.18665 0.0
H4245 H 0.90804 0.7131 0.20468 0.0
H4246 H 0.95991 0.72874 0.23651 0.0
H4247 H 0.96627 0.75512 0.21888 0.0
C4248 C 0.99323 0.78666 0.13045 0.0
C4249 C 0.00989 0.78561 0.13999 0.0
C4250 C 0.97801 0.78542 0.14012 0.0
C4251 C 0.9791 0.78329 0.15965 0.0
C4252 C 0.99574 0.78207 0.16909 0.0
C4253 C 0.01089 0.78322 0.15943 0.0
C4254 C 0.96301 0.78193 0.17028 0.0
C4255 C 0.95916 0.76747 0.18107 0.0
C4256 C 0.95144 0.79456 0.16987 0.0
C4257 C 0.95507 0.81069 0.15967 0.0
C4258 C 0.97139 0.82287 0.16387 0.0
C4259 C 0.97476 0.838 0.15412 0.0
C4260 C 0.96186 0.84117 0.14025 0.0
C4261 C 0.94554 0.82924 0.13613 0.0
C4262 C 0.9421 0.81407 0.14583 0.0
C4263 C 0.90556 0.77063 0.23251 0.0
C4264 C 0.88802 0.76741 0.22343 0.0
C4265 C 0.92008 0.77534 0.2223 0.0
C4266 C 0.91742 0.77663 0.20264 0.0
C4267 C 0.89985 0.77474 0.19386 0.0
C4268 C 0.88528 0.77007 0.20414 0.0
C4269 C 0.93284 0.778 0.19108 0.0
C4270 C 0.93645 0.79232 0.18007 0.0
C4271 C 0.94426 0.76527 0.19126 0.0
C4272 C 0.94065 0.7492 0.20156 0.0
C4273 C 0.92426 0.73711 0.19756 0.0
C4274 C 0.92073 0.72227 0.20771 0.0
C4275 C 0.93357 0.71928 0.22176 0.0
C4276 C 0.94998 0.73109 0.22564 0.0
C4277 C 0.95356 0.74598 0.21557 0.0
H4278 H 0.9308 0.70779 0.22961 0.0
H4279 H 0.9645 0.85289 0.13272 0.0
H4280 H 0.52124 0.32021 0.18683 0.0
H4281 H 0.52396 0.34686 0.16952 0.0
H4282 H 0.52935 0.31401 0.11826 0.0
H4283 H 0.52715 0.2877 0.13548 0.0
H4284 H 0.55151 0.34366 0.11993 0.0
H4285 H 0.48956 0.32903 0.12687 0.0
H4286 H 0.46327 0.32262 0.14414 0.0
H4287 H 0.47748 0.37531 0.17543 0.0
H4288 H 0.50401 0.38194 0.15851 0.0
H4289 H 0.53732 0.40161 0.05203 0.0
H4290 H 0.52934 0.37656 0.0707 0.0
H4291 H 0.53384 0.41413 0.12116 0.0
H4292 H 0.54177 0.43926 0.10236 0.0
H4293 H 0.50664 0.38316 0.12078 0.0
H4294 H 0.56889 0.397 0.11149 0.0
H4295 H 0.59365 0.40231 0.09191 0.0
H4296 H 0.57692 0.34902 0.06246 0.0
H4297 H 0.55187 0.34349 0.08167 0.0
C4298 C 0.52318 0.31874 0.17192 0.0
C4299 C 0.52398 0.30178 0.1626 0.0
C4300 C 0.52457 0.33397 0.16195 0.0
C4301 C 0.52662 0.33253 0.1424 0.0
C4302 C 0.52779 0.31563 0.13327 0.0
C4303 C 0.5265 0.30051 0.14319 0.0
C4304 C 0.52758 0.34845 0.13129 0.0
C4305 C 0.54155 0.35212 0.12004 0.0
C4306 C 0.51479 0.35981 0.13143 0.0
C4307 C 0.49886 0.35591 0.14159 0.0
C4308 C 0.48715 0.3392 0.13754 0.0
C4309 C 0.47219 0.33553 0.14724 0.0
C4310 C 0.46874 0.34853 0.16091 0.0
C4311 C 0.4802 0.36524 0.16487 0.0
C4312 C 0.49519 0.36897 0.15521 0.0
C4313 C 0.53577 0.40454 0.06692 0.0
C4314 C 0.53983 0.4224 0.07566 0.0
C4315 C 0.53145 0.3902 0.07766 0.0
C4316 C 0.53129 0.39338 0.09745 0.0
C4317 C 0.53388 0.41129 0.10595 0.0
C4318 C 0.53824 0.42568 0.09516 0.0
C4319 C 0.53044 0.37814 0.1094 0.0
C4320 C 0.51657 0.37466 0.1208 0.0
C4321 C 0.54315 0.36673 0.10917 0.0
C4322 C 0.55843 0.36989 0.09791 0.0
C4323 C 0.57044 0.38645 0.10077 0.0
C4324 C 0.58453 0.3895 0.08974 0.0
C4325 C 0.58684 0.37602 0.07593 0.0
C4326 C 0.5751 0.35945 0.07316 0.0
C4327 C 0.56096 0.35635 0.08412 0.0
H4328 H 0.59775 0.37842 0.06739 0.0
H4329 H 0.45715 0.34567 0.16842 0.0
H4330 H 0.97414 0.29361 0.37279 0.0
H4331 H 0.94414 0.28991 0.3572 0.0
H4332 H 0.96449 0.30503 0.30557 0.0
H4333 H 0.99533 0.30932 0.32164 0.0
H4334 H 0.93614 0.32031 0.31022 0.0
H4335 H 0.9433 0.25977 0.31061 0.0
H4336 H 0.95108 0.23273 0.32324 0.0
H4337 H 0.91331 0.23493 0.36365 0.0
H4338 H 0.90543 0.2621 0.3514 0.0
H4339 H 0.84455 0.29903 0.26612 0.0
H4340 H 0.87657 0.30182 0.2748 0.0
H4341 H 0.86656 0.28017 0.32744 0.0
H4342 H 0.83455 0.27645 0.31817 0.0
H4343 H 0.89113 0.26685 0.31779 0.0
H4344 H 0.88732 0.33077 0.31879 0.0
H4345 H 0.88074 0.35778 0.30509 0.0
H4346 H 0.91196 0.34784 0.25971 0.0
H4347 H 0.91898 0.32093 0.27336 0.0
C4348 C 0.97252 0.29613 0.35804 0.0
C4349 C 0.98763 0.30185 0.34869 0.0
C4350 C 0.95504 0.29381 0.34898 0.0
C4351 C 0.95152 0.29684 0.32991 0.0
C4352 C 0.96651 0.30244 0.32026 0.0
C4353 C 0.98429 0.30477 0.32944 0.0
C4354 C 0.93221 0.29452 0.32077 0.0
C4355 C 0.9264 0.30846 0.31167 0.0
C4356 C 0.91901 0.27923 0.32256 0.0
C4357 C 0.92389 0.26306 0.33019 0.0
C4358 C 0.93676 0.25458 0.3223 0.0
C4359 C 0.94116 0.2392 0.32937 0.0
C4360 C 0.93273 0.23214 0.34427 0.0
C4361 C 0.91985 0.24043 0.35212 0.0
C4362 C 0.91539 0.2558 0.34511 0.0
C4363 C 0.84913 0.29505 0.27967 0.0
C4364 C 0.83663 0.28755 0.29139 0.0
C4365 C 0.86772 0.29679 0.2848 0.0
C4366 C 0.87469 0.29162 0.30217 0.0
C4367 C 0.86208 0.28432 0.31393 0.0
C4368 C 0.84353 0.28222 0.30862 0.0
C4369 C 0.89475 0.29303 0.30796 0.0
C4370 C 0.90077 0.27879 0.31638 0.0
C4371 C 0.90811 0.30796 0.30538 0.0
C4372 C 0.90355 0.32383 0.297 0.0
C4373 C 0.89269 0.33432 0.30584 0.0
C4374 C 0.88892 0.34962 0.2981 0.0
C4375 C 0.89586 0.35449 0.2815 0.0
C4376 C 0.9066 0.34406 0.27258 0.0
C4377 C 0.91055 0.32884 0.28035 0.0
H4378 H 0.89298 0.36638 0.27558 0.0
H4379 H 0.93614 0.22023 0.3497 0.0
H4380 H 0.99976 0.71075 0.62281 0.0
H4381 H 0.99947 0.68129 0.60589 0.0
H4382 H 0.02397 0.66489 0.65684 0.0
H4383 H 0.02467 0.69494 0.67379 0.0
H4384 H 0.04072 0.6557 0.62792 0.0
H4385 H 0.97871 0.64667 0.63593 0.0
H4386 H 0.9488 0.65434 0.63455 0.0
H4387 H 0.94699 0.65474 0.57403 0.0
H4388 H 0.977 0.64732 0.5751 0.0
H4389 H 0.02969 0.56363 0.58414 0.0
H4390 H 0.02795 0.59078 0.60478 0.0
H4391 H 0.00965 0.61477 0.55595 0.0
H4392 H 0.01159 0.5878 0.53528 0.0
H4393 H 0.98944 0.61899 0.58538 0.0
H4394 H 0.05075 0.62978 0.57668 0.0
H4395 H 0.08225 0.62702 0.57724 0.0
H4396 H 0.08625 0.62553 0.6377 0.0
H4397 H 0.05466 0.62796 0.63747 0.0
C4398 C 1.00446 0.70065 0.63067 0.0
C4399 C 0.01174 0.70514 0.64988 0.0
C4400 C 1.00436 0.6837 0.62089 0.0
C4401 C 0.01146 0.67045 0.62996 0.0
C4402 C 0.01825 0.67467 0.6494 0.0
C4403 C 0.01836 0.69179 0.65926 0.0
C4404 C 0.01277 0.65287 0.61871 0.0
C4405 C 0.02935 0.64744 0.61903 0.0
C4406 C 0.99823 0.64227 0.60633 0.0
C4407 C 0.98013 0.64654 0.60562 0.0
C4408 C 0.97197 0.64849 0.62235 0.0
C4409 C 0.955 0.65279 0.62162 0.0
C4410 C 0.94601 0.65505 0.60422 0.0
C4411 C 0.95396 0.65299 0.5875 0.0
C4412 C 0.97094 0.64871 0.58816 0.0
C4413 C 0.02558 0.57473 0.57762 0.0
C4414 C 0.02155 0.57357 0.55765 0.0
C4415 C 0.02458 0.59036 0.58957 0.0
C4416 C 0.01899 0.60516 0.58203 0.0
C4417 C 0.01428 0.60377 0.56224 0.0
C4418 C 0.01563 0.58831 0.55028 0.0
C4419 C 0.01736 0.62175 0.59475 0.0
C4420 C 1.00073 0.62704 0.59458 0.0
C4421 C 0.03189 0.63226 0.60716 0.0
C4422 C 0.05026 0.62882 0.60702 0.0
C4423 C 0.05821 0.62845 0.59003 0.0
C4424 C 0.07613 0.62706 0.59031 0.0
C4425 C 0.08625 0.62618 0.60751 0.0
C4426 C 0.07839 0.62625 0.6244 0.0
C4427 C 0.06048 0.62759 0.6242 0.0
H4428 H 0.10023 0.62564 0.60783 0.0
H4429 H 0.93287 0.65839 0.60368 0.0
H4430 H 0.57856 0.78248 0.81805 0.0
H4431 H 0.6066 0.77794 0.80597 0.0
H4432 H 0.63635 0.81488 0.85259 0.0
H4433 H 0.60846 0.81916 0.86484 0.0
H4434 H 0.65075 0.8214 0.81944 0.0
H4435 H 0.63342 0.76827 0.85052 0.0
H4436 H 0.61344 0.74058 0.85616 0.0
H4437 H 0.61309 0.71853 0.79818 0.0
H4438 H 0.63287 0.7462 0.79212 0.0
H4439 H 0.73845 0.80262 0.81302 0.0
H4440 H 0.70953 0.80616 0.82302 0.0
H4441 H 0.68295 0.76719 0.77649 0.0
H4442 H 0.7118 0.76441 0.76582 0.0
H4443 H 0.66632 0.76106 0.80816 0.0
H4444 H 0.68129 0.81072 0.77515 0.0
H4445 H 0.69854 0.83796 0.76499 0.0
H4446 H 0.70076 0.86599 0.82081 0.0
H4447 H 0.68371 0.83877 0.83143 0.0
C4448 C 0.59104 0.78966 0.82579 0.0
C4449 C 0.5909 0.80123 0.84258 0.0
C4450 C 0.60725 0.78698 0.81886 0.0
C4451 C 0.62406 0.79592 0.82826 0.0
C4452 C 0.62387 0.80769 0.84484 0.0
C4453 C 0.60772 0.81012 0.85194 0.0
C4454 C 0.64172 0.79319 0.82097 0.0
C4455 C 0.65417 0.80818 0.81735 0.0
C4456 C 0.64638 0.77597 0.8172 0.0
C4457 C 0.63446 0.75938 0.82082 0.0
C4458 C 0.62895 0.75758 0.83893 0.0
C4459 C 0.61769 0.74188 0.84221 0.0
C4460 C 0.61196 0.72783 0.82752 0.0
C4461 C 0.61751 0.72944 0.80953 0.0
C4462 C 0.62875 0.74512 0.80617 0.0
C4463 C 0.72652 0.79476 0.80478 0.0
C4464 C 0.72794 0.78289 0.78863 0.0
C4465 C 0.70978 0.79684 0.81058 0.0
C4466 C 0.69358 0.78695 0.80072 0.0
C4467 C 0.69494 0.77498 0.78468 0.0
C4468 C 0.71169 0.77326 0.77858 0.0
C4469 C 0.67546 0.78932 0.80701 0.0
C4470 C 0.66295 0.77429 0.8104 0.0
C4471 C 0.67051 0.80645 0.81008 0.0
C4472 C 0.6814 0.82264 0.80416 0.0
C4473 C 0.68567 0.8226 0.78536 0.0
C4474 C 0.69536 0.83805 0.77949 0.0
C4475 C 0.70073 0.85367 0.79225 0.0
C4476 C 0.69658 0.85385 0.81096 0.0
C4477 C 0.6869 0.83842 0.81691 0.0
H4478 H 0.70798 0.86566 0.78757 0.0
H4479 H 0.60325 0.71567 0.8301 0.0
H4480 H 0.4552 0.48939 0.70749 0.0
H4481 H 0.46635 0.49456 0.67721 0.0
H4482 H 0.4523 0.54711 0.68141 0.0
H4483 H 0.44042 0.54164 0.71176 0.0
H4484 H 0.44712 0.53135 0.6442 0.0
H4485 H 0.49527 0.54222 0.69515 0.0
H4486 H 0.51272 0.53466 0.72323 0.0
H4487 H 0.52309 0.48812 0.69025 0.0
H4488 H 0.50552 0.49528 0.66204 0.0
H4489 H 0.50224 0.55614 0.57204 0.0
H4490 H 0.48845 0.55556 0.60167 0.0
H4491 H 0.50643 0.50611 0.61115 0.0
H4492 H 0.52151 0.50769 0.58248 0.0
H4493 H 0.50981 0.52389 0.64266 0.0
H4494 H 0.46031 0.51129 0.59223 0.0
H4495 H 0.44336 0.51859 0.56365 0.0
H4496 H 0.43539 0.56724 0.5947 0.0
H4497 H 0.45252 0.56035 0.62339 0.0
C4498 C 0.45419 0.50195 0.70186 0.0
C4499 C 0.44708 0.51517 0.71214 0.0
C4500 C 0.46068 0.50494 0.68454 0.0
C4501 C 0.4607 0.52144 0.67721 0.0
C4502 C 0.4526 0.53432 0.68683 0.0
C4503 C 0.44577 0.53118 0.70414 0.0
C4504 C 0.47017 0.52536 0.66021 0.0
C4505 C 0.46089 0.52994 0.64392 0.0
C4506 C 0.48811 0.52334 0.65965 0.0
C4507 C 0.499 0.51925 0.67651 0.0
C4508 C 0.50122 0.53034 0.69391 0.0
C4509 C 0.51113 0.52612 0.70985 0.0
C4510 C 0.51899 0.51091 0.70853 0.0
C4511 C 0.517 0.4999 0.69125 0.0
C4512 C 0.5071 0.50405 0.67528 0.0
C4513 C 0.50323 0.54521 0.58054 0.0
C4514 C 0.51283 0.53192 0.57497 0.0
C4515 C 0.49521 0.54476 0.59742 0.0
C4516 C 0.49586 0.5305 0.60861 0.0
C4517 C 0.50561 0.51728 0.60295 0.0
C4518 C 0.51421 0.51814 0.5865 0.0
C4519 C 0.48663 0.52925 0.62623 0.0
C4520 C 0.49602 0.5253 0.64279 0.0
C4521 C 0.46877 0.53167 0.6269 0.0
C4522 C 0.45777 0.53535 0.60992 0.0
C4523 C 0.45492 0.52353 0.59296 0.0
C4524 C 0.44532 0.52762 0.57673 0.0
C4525 C 0.43832 0.54339 0.57735 0.0
C4526 C 0.44082 0.55504 0.59424 0.0
C4527 C 0.45046 0.55104 0.61049 0.0
H4528 H 0.43095 0.54657 0.56476 0.0
H4529 H 0.52664 0.50765 0.72089 0.0
H4530 H 0.78984 0.13261 0.97962 0.0
H4531 H 0.78768 0.14813 0.95089 0.0
H4532 H 0.75548 0.18198 0.97762 0.0
H4533 H 0.75797 0.16716 0.00611 0.0
H4534 H 0.74349 0.16958 0.93903 0.0
H4535 H 0.79579 0.1985 0.98192 0.0
H4536 H 0.82407 0.19848 0.00157 0.0
H4537 H 0.84651 0.18055 0.95184 0.0
H4538 H 0.8182 0.18021 0.93194 0.0
H4539 H 0.74992 0.25307 0.90823 0.0
H4540 H 0.76045 0.23357 0.93041 0.0
H4541 H 0.77788 0.20254 0.88439 0.0
H4542 H 0.76649 0.221 0.86195 0.0
H4543 H 0.79911 0.21002 0.92824 0.0
H4544 H 0.7431 0.18402 0.88548 0.0
H4545 H 0.71454 0.18876 0.86962 0.0
H4546 H 0.69874 0.20532 0.92382 0.0
H4547 H 0.72738 0.20101 0.93993 0.0
C4548 C 0.7821 0.14318 0.97914 0.0
C4549 C 0.77421 0.14885 0.99505 0.0
C4550 C 0.78088 0.15195 0.96284 0.0
C4551 C 0.77144 0.16609 0.96235 0.0
C4552 C 0.76272 0.17099 0.97782 0.0
C4553 C 0.76427 0.16257 0.99413 0.0
C4554 C 0.77188 0.1772 0.94669 0.0
C4555 C 0.75568 0.17816 0.9364 0.0
C4556 C 0.78777 0.1886 0.9437 0.0
C4557 C 0.80485 0.18908 0.95551 0.0
C4558 C 0.80672 0.19441 0.97521 0.0
C4559 C 0.82274 0.19448 0.98639 0.0
C4560 C 0.83706 0.18944 0.97797 0.0
C4561 C 0.83539 0.1844 0.95834 0.0
C4562 C 0.81936 0.18426 0.94711 0.0
C4563 C 0.75621 0.24226 0.90286 0.0
C4564 C 0.757 0.23839 0.88329 0.0
C4565 C 0.76252 0.23141 0.91557 0.0
C4566 C 0.76986 0.21677 0.90883 0.0
C4567 C 0.77241 0.21398 0.88971 0.0
C4568 C 0.76582 0.22458 0.87693 0.0
C4569 C 0.77076 0.20224 0.92065 0.0
C4570 C 0.7871 0.20083 0.9303 0.0
C4571 C 0.75493 0.19067 0.92343 0.0
C4572 C 0.73737 0.19229 0.91386 0.0
C4573 C 0.73354 0.18872 0.89398 0.0
C4574 C 0.71736 0.19135 0.88495 0.0
C4575 C 0.70485 0.19736 0.8957 0.0
C4576 C 0.70845 0.20067 0.91551 0.0
C4577 C 0.72464 0.19812 0.92459 0.0
H4578 H 0.69235 0.19943 0.88869 0.0
H4579 H 0.84947 0.1895 0.98664 0.0
H4580 H 0.11961 0.51631 0.20897 0.0
H4581 H 0.1087 0.5134 0.17512 0.0
H4582 H 0.15754 0.54677 0.16448 0.0
H4583 H 0.16883 0.54918 0.19835 0.0
H4584 H 0.12182 0.55886 0.15808 0.0
H4585 H 0.15188 0.51007 0.14292 0.0
H4586 H 0.16046 0.48114 0.14857 0.0
H4587 H 0.10567 0.4546 0.1376 0.0
H4588 H 0.09666 0.48347 0.13268 0.0
H4589 H 0.06579 0.55694 0.07252 0.0
H4590 H 0.09106 0.55904 0.09655 0.0
H4591 H 0.07028 0.50485 0.10825 0.0
H4592 H 0.04739 0.50175 0.08113 0.0
H4593 H 0.10142 0.50632 0.10911 0.0
H4594 H 0.06961 0.54993 0.13811 0.0
H4595 H 0.05574 0.57683 0.13908 0.0
H4596 H 0.10556 0.60955 0.13129 0.0
H4597 H 0.11968 0.5828 0.13016 0.0
C4598 C 0.12813 0.52262 0.19927 0.0
C4599 C 0.14483 0.53313 0.20598 0.0
C4600 C 0.12203 0.52081 0.18006 0.0
C4601 C 0.13247 0.5298 0.16757 0.0
C4602 C 0.14954 0.5396 0.17406 0.0
C4603 C 0.15586 0.54102 0.19327 0.0
C4604 C 0.12393 0.5316 0.14886 0.0
C4605 C 0.11761 0.54757 0.14702 0.0
C4606 C 0.11812 0.51653 0.13514 0.0
C4607 C 0.12361 0.49901 0.13743 0.0
C4608 C 0.14164 0.49811 0.14186 0.0
C4609 C 0.14656 0.48171 0.14501 0.0
C4610 C 0.13363 0.46604 0.14338 0.0
C4611 C 0.1157 0.46674 0.13876 0.0
C4612 C 0.11067 0.48314 0.13585 0.0
C4613 C 0.06691 0.54553 0.08021 0.0
C4614 C 0.05538 0.52907 0.07489 0.0
C4615 C 0.0811 0.54681 0.09421 0.0
C4616 C 0.08262 0.53217 0.10447 0.0
C4617 C 0.06975 0.51622 0.10026 0.0
C4618 C 0.05651 0.51448 0.0851 0.0
C4619 C 0.09778 0.53304 0.11914 0.0
C4620 C 0.10566 0.51776 0.11993 0.0
C4621 C 0.10403 0.54827 0.13278 0.0
C4622 C 0.09563 0.56438 0.13386 0.0
C4623 C 0.07757 0.56287 0.13657 0.0
C4624 C 0.06967 0.57808 0.13714 0.0
C4625 C 0.07975 0.59488 0.13519 0.0
C4626 C 0.09777 0.59652 0.13277 0.0
C4627 C 0.10574 0.58136 0.1322 0.0
H4628 H 0.0736 0.60663 0.13559 0.0
H4629 H 0.1375 0.45335 0.14571 0.0
H4630 H 0.7811 0.88592 0.46645 0.0
H4631 H 0.78001 0.86984 0.43467 0.0
H4632 H 0.80114 0.82736 0.45945 0.0
H4633 H 0.80206 0.84331 0.49135 0.0
H4634 H 0.81765 0.83736 0.42834 0.0
H4635 H 0.75847 0.82037 0.44309 0.0
H4636 H 0.72949 0.82443 0.45306 0.0
H4637 H 0.72019 0.85363 0.40546 0.0
H4638 H 0.74929 0.85005 0.3954 0.0
H4639 H 0.80155 0.77957 0.33953 0.0
H4640 H 0.80289 0.79201 0.37284 0.0
H4641 H 0.77559 0.83362 0.35524 0.0
H4642 H 0.77412 0.82128 0.32213 0.0
H4643 H 0.76169 0.82137 0.38414 0.0
H4644 H 0.82259 0.84193 0.3723 0.0
H4645 H 0.85234 0.83932 0.36351 0.0
H4646 H 0.85803 0.8032 0.4056 0.0
H4647 H 0.82836 0.80579 0.41478 0.0
C4648 C 0.78558 0.87318 0.46516 0.0
C4649 C 0.79168 0.86591 0.48148 0.0
C4650 C 0.78484 0.86393 0.44695 0.0
C4651 C 0.79032 0.84726 0.44459 0.0
C4652 C 0.79677 0.84015 0.46085 0.0
C4653 C 0.79728 0.84929 0.4791 0.0
C4654 C 0.78955 0.83743 0.42513 0.0
C4655 C 0.80534 0.83361 0.41879 0.0
C4656 C 0.77358 0.83272 0.41247 0.0
C4657 C 0.75617 0.83512 0.41862 0.0
C4658 C 0.75035 0.82785 0.43487 0.0
C4659 C 0.73388 0.83002 0.44052 0.0
C4660 C 0.72303 0.83933 0.42994 0.0
C4661 C 0.72863 0.84646 0.41367 0.0
C4662 C 0.74511 0.84437 0.40799 0.0
C4663 C 0.79603 0.7915 0.3427 0.0
C4664 C 0.78788 0.79945 0.32795 0.0
C4665 C 0.79681 0.79865 0.36185 0.0
C4666 C 0.7895 0.81396 0.36675 0.0
C4667 C 0.78133 0.82183 0.35202 0.0
C4668 C 0.78055 0.81473 0.33296 0.0
C4669 C 0.78992 0.8217 0.38711 0.0
C4670 C 0.77401 0.82506 0.39369 0.0
C4671 C 0.80577 0.826 0.4 0.0
C4672 C 0.82324 0.8239 0.39406 0.0
C4673 C 0.83015 0.83333 0.37956 0.0
C4674 C 0.84703 0.83194 0.3746 0.0
C4675 C 0.85706 0.82106 0.38397 0.0
C4676 C 0.85025 0.8116 0.39835 0.0
C4677 C 0.83344 0.81308 0.40349 0.0
H4678 H 0.87012 0.81997 0.38007 0.0
H4679 H 0.71026 0.84097 0.43431 0.0
H4680 H 0.42136 0.51658 0.82864 0.0
H4681 H 0.43691 0.51725 0.86048 0.0
H4682 H 0.48695 0.52129 0.83698 0.0
H4683 H 0.47133 0.51996 0.80503 0.0
H4684 H 0.48669 0.49943 0.86255 0.0
H4685 H 0.47308 0.55851 0.86205 0.0
H4686 H 0.45394 0.58098 0.85786 0.0
H4687 H 0.42316 0.56059 0.90099 0.0
H4688 H 0.44197 0.53784 0.90526 0.0
H4689 H 0.53769 0.5198 0.95496 0.0
H4690 H 0.52506 0.51968 0.92187 0.0
H4691 H 0.47309 0.51924 0.94021 0.0
H4692 H 0.48586 0.52048 0.97315 0.0
H4693 H 0.47652 0.54136 0.91641 0.0
H4694 H 0.48616 0.47928 0.91239 0.0
H4695 H 0.50401 0.45568 0.91582 0.0
H4696 H 0.54203 0.48208 0.88226 0.0
H4697 H 0.52394 0.50551 0.87806 0.0
C4698 C 0.43567 0.51754 0.83025 0.0
C4699 C 0.4451 0.51825 0.81427 0.0
C4700 C 0.4446 0.51808 0.84853 0.0
C4701 C 0.46323 0.51971 0.85134 0.0
C4702 C 0.47261 0.52011 0.83532 0.0
C4703 C 0.46365 0.51935 0.81701 0.0
C4704 C 0.47289 0.52068 0.87089 0.0
C4705 C 0.48462 0.50881 0.87424 0.0
C4706 C 0.47014 0.53268 0.88638 0.0
C4707 C 0.45885 0.54638 0.88386 0.0
C4708 C 0.46216 0.55874 0.87055 0.0
C4709 C 0.45138 0.57154 0.86817 0.0
C4710 C 0.43732 0.57219 0.87912 0.0
C4711 C 0.43404 0.56006 0.8925 0.0
C4712 C 0.44476 0.54723 0.89492 0.0
C4713 C 0.52355 0.51952 0.95184 0.0
C4714 C 0.51281 0.52027 0.96668 0.0
C4715 C 0.51626 0.51933 0.93286 0.0
C4716 C 0.49796 0.51929 0.92826 0.0
C4717 C 0.48723 0.51945 0.94317 0.0
C4718 C 0.49456 0.52007 0.96207 0.0
C4719 C 0.4899 0.51971 0.90821 0.0
C4720 C 0.47859 0.53199 0.90472 0.0
C4721 C 0.49297 0.50808 0.8926 0.0
C4722 C 0.50385 0.49416 0.8951 0.0
C4723 C 0.49836 0.48004 0.9058 0.0
C4724 C 0.5085 0.46669 0.90784 0.0
C4725 C 0.52431 0.46749 0.89949 0.0
C4726 C 0.52983 0.48151 0.88879 0.0
C4727 C 0.51956 0.49474 0.88644 0.0
H4728 H 0.53222 0.4572 0.90123 0.0
H4729 H 0.42899 0.58211 0.87726 0.0
H4730 H 0.79165 0.14786 0.10035 0.0
H4731 H 0.7963 0.163 0.13301 0.0
H4732 H 0.74525 0.17894 0.12427 0.0
H4733 H 0.74056 0.16403 0.09178 0.0
H4734 H 0.77803 0.2069 0.12877 0.0
H4735 H 0.74824 0.15512 0.1558 0.0
H4736 H 0.74383 0.12394 0.16383 0.0
H4737 H 0.79614 0.1345 0.19491 0.0
H4738 H 0.80096 0.16569 0.18678 0.0
H4739 H 0.76045 0.25829 0.20836 0.0
H4740 H 0.76062 0.23633 0.18105 0.0
H4741 H 0.80706 0.22063 0.20889 0.0
H4742 H 0.80665 0.2422 0.2365 0.0
H4743 H 0.78212 0.19225 0.19534 0.0
H4744 H 0.81119 0.24465 0.17103 0.0
H4745 H 0.81566 0.2761 0.16384 0.0
H4746 H 0.76561 0.26487 0.1282 0.0
H4747 H 0.76083 0.23333 0.13518 0.0
C4748 C 0.78115 0.15397 0.10572 0.0
C4749 C 0.76596 0.15528 0.09364 0.0
C4750 C 0.7838 0.16252 0.12429 0.0
C4751 C 0.77116 0.17211 0.13069 0.0
C4752 C 0.75509 0.17157 0.11935 0.0
C4753 C 0.7525 0.16319 0.10085 0.0
C4754 C 0.77606 0.18578 0.14708 0.0
C4755 C 0.77888 0.20377 0.14337 0.0
C4756 C 0.77786 0.18145 0.16588 0.0
C4757 C 0.77508 0.16262 0.1704 0.0
C4758 C 0.75891 0.15071 0.16409 0.0
C4759 C 0.7563 0.13306 0.16873 0.0
C4760 C 0.76973 0.12722 0.1798 0.0
C4761 C 0.78577 0.13902 0.18628 0.0
C4762 C 0.78845 0.15668 0.18166 0.0
C4763 C 0.77082 0.25031 0.20848 0.0
C4764 C 0.78353 0.2518 0.22435 0.0
C4765 C 0.77094 0.23787 0.19294 0.0
C4766 C 0.78402 0.22716 0.19301 0.0
C4767 C 0.79693 0.22889 0.2087 0.0
C4768 C 0.79667 0.24115 0.22437 0.0
C4769 C 0.78346 0.2134 0.17705 0.0
C4770 C 0.78163 0.19542 0.18077 0.0
C4771 C 0.78268 0.21773 0.15819 0.0
C4772 C 0.78563 0.23663 0.15368 0.0
C4773 C 0.80111 0.2489 0.16171 0.0
C4774 C 0.8037 0.26675 0.15766 0.0
C4775 C 0.79089 0.27251 0.14564 0.0
C4776 C 0.77552 0.2604 0.13752 0.0
C4777 C 0.7729 0.24251 0.14144 0.0
H4778 H 0.7929 0.28635 0.14259 0.0
H4779 H 0.76767 0.11355 0.18341 0.0
H4780 H 0.16599 0.51156 0.31294 0.0
H4781 H 0.14974 0.51318 0.34106 0.0
H4782 H 0.13893 0.56494 0.32881 0.0
H4783 H 0.15436 0.56299 0.30044 0.0
H4784 H 0.15333 0.55722 0.37076 0.0
H4785 H 0.10777 0.5415 0.31443 0.0
H4786 H 0.09385 0.52239 0.28489 0.0
H4787 H 0.08745 0.4759 0.31519 0.0
H4788 H 0.10164 0.49475 0.34487 0.0
H4789 H 0.08323 0.58911 0.40818 0.0
H4790 H 0.10421 0.5793 0.38761 0.0
H4791 H 0.08813 0.52462 0.39977 0.0
H4792 H 0.06686 0.53431 0.42013 0.0
H4793 H 0.08955 0.52764 0.36169 0.0
H4794 H 0.12783 0.54611 0.41991 0.0
H4795 H 0.14203 0.5656 0.44913 0.0
H4796 H 0.16229 0.60709 0.41573 0.0
H4797 H 0.14811 0.58791 0.38632 0.0
C4798 C 0.16042 0.52339 0.31662 0.0
C4799 C 0.16133 0.53723 0.3049 0.0
C4800 C 0.15116 0.52424 0.33246 0.0
C4801 C 0.14326 0.53914 0.33669 0.0
C4802 C 0.14505 0.5534 0.32556 0.0
C4803 C 0.15382 0.5523 0.30949 0.0
C4804 C 0.13223 0.53969 0.35215 0.0
C4805 C 0.13941 0.5507 0.36898 0.0
C4806 C 0.11429 0.5308 0.34962 0.0
C4807 C 0.10608 0.51944 0.33175 0.0
C4808 C 0.10366 0.52716 0.31472 0.0
C4809 C 0.09565 0.51639 0.29797 0.0
C4810 C 0.08986 0.49792 0.29814 0.0
C4811 C 0.09203 0.49019 0.31507 0.0
C4812 C 0.10007 0.5009 0.33184 0.0
C4813 C 0.08403 0.57499 0.40624 0.0
C4814 C 0.07353 0.56244 0.41563 0.0
C4815 C 0.09614 0.56945 0.39478 0.0
C4816 C 0.09788 0.55135 0.39265 0.0
C4817 C 0.08705 0.53868 0.40155 0.0
C4818 C 0.07496 0.54422 0.41307 0.0
C4819 C 0.11048 0.54566 0.38029 0.0
C4820 C 0.1036 0.53371 0.36392 0.0
C4821 C 0.12871 0.55378 0.38324 0.0
C4822 C 0.13683 0.56559 0.40092 0.0
C4823 C 0.13517 0.55946 0.41881 0.0
C4824 C 0.14326 0.57043 0.4354 0.0
C4825 C 0.15303 0.58757 0.43429 0.0
C4826 C 0.15472 0.5938 0.41657 0.0
C4827 C 0.1467 0.58287 0.39994 0.0
H4828 H 0.15932 0.59602 0.44715 0.0
H4829 H 0.08362 0.48961 0.28517 0.0
H4830 H 0.76971 0.87007 0.58409 0.0
H4831 H 0.76423 0.85778 0.61416 0.0
H4832 H 0.81608 0.84316 0.61824 0.0
H4833 H 0.82117 0.8546 0.58802 0.0
H4834 H 0.7934 0.81605 0.6248 0.0
H4835 H 0.80443 0.88023 0.6513 0.0
H4836 H 0.79802 0.91085 0.65036 0.0
H4837 H 0.7425 0.89038 0.65246 0.0
H4838 H 0.74871 0.85976 0.65393 0.0
H4839 H 0.80311 0.79055 0.71706 0.0
H4840 H 0.80588 0.80539 0.6883 0.0
H4841 H 0.75608 0.82301 0.69424 0.0
H4842 H 0.75436 0.80957 0.72425 0.0
H4843 H 0.7745 0.8477 0.68129 0.0
H4844 H 0.76358 0.78446 0.65989 0.0
H4845 H 0.7685 0.75322 0.65884 0.0
H4846 H 0.82113 0.76991 0.64361 0.0
H4847 H 0.81661 0.80128 0.64481 0.0
C4848 C 0.78004 0.86454 0.59163 0.0
C4849 C 0.79586 0.86329 0.58361 0.0
C4850 C 0.77693 0.85752 0.6089 0.0
C4851 C 0.78976 0.8495 0.61873 0.0
C4852 C 0.80584 0.84905 0.61102 0.0
C4853 C 0.80879 0.85572 0.59372 0.0
C4854 C 0.78641 0.84068 0.63643 0.0
C4855 C 0.78947 0.82308 0.63723 0.0
C4856 C 0.78054 0.84936 0.65249 0.0
C4857 C 0.77702 0.86781 0.65268 0.0
C4858 C 0.7909 0.88234 0.6517 0.0
C4859 C 0.7873 0.89967 0.65112 0.0
C4860 C 0.76986 0.90256 0.65136 0.0
C4861 C 0.75601 0.88814 0.65233 0.0
C4862 C 0.75958 0.87084 0.65323 0.0
C4863 C 0.79276 0.7976 0.71219 0.0
C4864 C 0.77846 0.79882 0.72281 0.0
C4865 C 0.79422 0.80596 0.69555 0.0
C4866 C 0.78087 0.81491 0.6884 0.0
C4867 C 0.76658 0.81618 0.69918 0.0
C4868 C 0.76552 0.80844 0.71632 0.0
C4869 C 0.78199 0.82311 0.66995 0.0
C4870 C 0.77841 0.84056 0.66893 0.0
C4871 C 0.78715 0.81413 0.65352 0.0
C4872 C 0.78979 0.79523 0.65258 0.0
C4873 C 0.77622 0.78147 0.6564 0.0
C4874 C 0.77895 0.76374 0.65578 0.0
C4875 C 0.79514 0.75959 0.6512 0.0
C4876 C 0.80861 0.77314 0.64717 0.0
C4877 C 0.80597 0.79089 0.64779 0.0
H4878 H 0.79723 0.74586 0.65075 0.0
H4879 H 0.76708 0.91597 0.65081 0.0
H4880 H 0.76487 0.47578 0.50007 0.0
H4881 H 0.73826 0.48915 0.50165 0.0
H4882 H 0.70869 0.43849 0.51393 0.0
H4883 H 0.73492 0.42495 0.51149 0.0
H4884 H 0.68975 0.4522 0.48873 0.0
H4885 H 0.72534 0.4736 0.54939 0.0
H4886 H 0.75287 0.48865 0.56971 0.0
H4887 H 0.75071 0.53758 0.54481 0.0
H4888 H 0.72323 0.52274 0.52422 0.0
H4889 H 0.6249 0.47135 0.54625 0.0
H4890 H 0.64858 0.46255 0.52918 0.0
H4891 H 0.66354 0.51688 0.51549 0.0
H4892 H 0.64035 0.52595 0.53321 0.0
H4893 H 0.69025 0.50542 0.53509 0.0
H4894 H 0.64899 0.48247 0.47918 0.0
H4895 H 0.62117 0.46516 0.4611 0.0
H4896 H 0.63322 0.41643 0.48046 0.0
H4897 H 0.66103 0.43346 0.49876 0.0
C4898 C 0.75269 0.46764 0.50326 0.0
C4899 C 0.75177 0.44947 0.50577 0.0
C4900 C 0.73756 0.47521 0.50408 0.0
C4901 C 0.72164 0.46476 0.50795 0.0
C4902 C 0.72086 0.44667 0.51074 0.0
C4903 C 0.73583 0.43902 0.50951 0.0
C4904 C 0.70575 0.47263 0.50962 0.0
C4905 C 0.68978 0.46385 0.49884 0.0
C4906 C 0.70606 0.48801 0.52253 0.0
C4907 C 0.72234 0.49704 0.53518 0.0
C4908 C 0.73078 0.48755 0.54822 0.0
C4909 C 0.74636 0.49604 0.55978 0.0
C4910 C 0.75355 0.51405 0.55852 0.0
C4911 C 0.74513 0.52363 0.54576 0.0
C4912 C 0.72954 0.5152 0.53416 0.0
C4913 C 0.63307 0.48132 0.53934 0.0
C4914 C 0.63102 0.49934 0.54126 0.0
C4915 C 0.64638 0.47625 0.52935 0.0
C4916 C 0.65763 0.48909 0.521 0.0
C4917 C 0.65483 0.50682 0.52177 0.0
C4918 C 0.64158 0.51193 0.53185 0.0
C4919 C 0.67404 0.48468 0.51458 0.0
C4920 C 0.69021 0.49411 0.52453 0.0
C4921 C 0.6738 0.46957 0.50133 0.0
C4922 C 0.65707 0.45927 0.49036 0.0
C4923 C 0.64565 0.46808 0.47966 0.0
C4924 C 0.6299 0.45831 0.46935 0.0
C4925 C 0.62543 0.43971 0.46964 0.0
C4926 C 0.63671 0.43083 0.48022 0.0
C4927 C 0.6525 0.44053 0.49052 0.0
H4928 H 0.61322 0.43217 0.46166 0.0
H4929 H 0.76563 0.52059 0.56746 0.0
H4930 H 0.21817 0.12686 0.48159 0.0
H4931 H 0.19074 0.10496 0.4836 0.0
H4932 H 0.17831 0.13961 0.52999 0.0
H4933 H 0.20516 0.16178 0.52745 0.0
H4934 H 0.17609 0.09938 0.53409 0.0
H4935 H 0.15654 0.14225 0.49411 0.0
H4936 H 0.15745 0.15923 0.46627 0.0
H4937 H 0.14639 0.10973 0.42889 0.0
H4938 H 0.14573 0.09246 0.45656 0.0
H4939 H 0.08852 0.05939 0.54631 0.0
H4940 H 0.11645 0.07932 0.54361 0.0
H4941 H 0.11063 0.06174 0.48324 0.0
H4942 H 0.08106 0.04426 0.48571 0.0
H4943 H 0.12375 0.09271 0.48547 0.0
H4944 H 0.1421 0.04887 0.52415 0.0
H4945 H 0.14153 0.03113 0.55146 0.0
H4946 H 0.15616 0.07977 0.59009 0.0
H4947 H 0.1566 0.09779 0.56304 0.0
C4948 C 0.20952 0.12974 0.49216 0.0
C4949 C 0.21358 0.14603 0.50423 0.0
C4950 C 0.19392 0.11727 0.49331 0.0
C4951 C 0.18251 0.12073 0.50692 0.0
C4952 C 0.18691 0.13673 0.51937 0.0
C4953 C 0.20216 0.14939 0.51785 0.0
C4954 C 0.16574 0.1079 0.50803 0.0
C4955 C 0.16458 0.09785 0.52352 0.0
C4956 C 0.15094 0.1057 0.49401 0.0
C4957 C 0.15136 0.11608 0.4774 0.0
C4958 C 0.15453 0.13499 0.47997 0.0
C4959 C 0.15495 0.14467 0.46422 0.0
C4960 C 0.15205 0.13557 0.44582 0.0
C4961 C 0.14868 0.11677 0.44314 0.0
C4962 C 0.14829 0.10703 0.45886 0.0
C4963 C 0.09322 0.05997 0.53247 0.0
C4964 C 0.08262 0.0506 0.51617 0.0
C4965 C 0.10945 0.0711 0.53094 0.0
C4966 C 0.1163 0.07181 0.51329 0.0
C4967 C 0.10587 0.06167 0.49708 0.0
C4968 C 0.08904 0.05149 0.49845 0.0
C4969 C 0.13385 0.08359 0.51155 0.0
C4970 C 0.13522 0.0937 0.49597 0.0
C4971 C 0.14901 0.08553 0.52533 0.0
C4972 C 0.1493 0.07467 0.54157 0.0
C4973 C 0.14519 0.05577 0.53847 0.0
C4974 C 0.14486 0.04567 0.55391 0.0
C4975 C 0.14879 0.05432 0.57249 0.0
C4976 C 0.15312 0.07309 0.57569 0.0
C4977 C 0.15345 0.08325 0.56032 0.0
H4978 H 0.14848 0.04648 0.58442 0.0
H4979 H 0.15236 0.14308 0.43364 0.0
H4980 H 0.14866 0.98619 0.75326 0.0
H4981 H 0.164 0.96054 0.75049 0.0
H4982 H 0.18864 0.97542 0.80847 0.0
H4983 H 0.17395 1.00149 0.81079 0.0
H4984 H 0.21224 0.96742 0.78885 0.0
H4985 H 0.15352 0.93746 0.79401 0.0
H4986 H 0.12087 0.92936 0.78667 0.0
H4987 H 0.12643 0.90829 0.7298 0.0
H4988 H 0.15913 0.91651 0.73671 0.0
H4989 H 0.2499 0.88832 0.78579 0.0
H4990 H 0.22973 0.90841 0.79529 0.0
H4991 H 0.20794 0.90592 0.7366 0.0
H4992 H 0.228 0.88592 0.72714 0.0
H4993 H 0.18212 0.90599 0.76072 0.0
H4994 H 0.2417 0.93982 0.75658 0.0
H4995 H 0.2742 0.94744 0.7657 0.0
H4996 H 0.26609 0.96024 0.82396 0.0
H4997 H 0.23353 0.95246 0.8152 0.0
C4998 C 0.15728 0.98382 0.76537 0.0
C4999 C 0.16014 0.99561 0.78224 0.0
C5000 C 0.16595 0.96912 0.76388 0.0
C5001 C 0.1773 0.96577 0.77939 0.0
C5002 C 0.17997 0.97761 0.79631 0.0
C5003 C 0.17154 0.99244 0.79767 0.0
C5004 C 0.18702 0.95047 0.77771 0.0
C5005 C 0.20551 0.95393 0.78305 0.0
C5006 C 0.17843 0.93279 0.77005 0.0
C5007 C 0.15877 0.92774 0.76584 0.0
C5008 C 0.14778 0.93121 0.77989 0.0
C5009 C 0.12926 0.92659 0.77582 0.0
C5010 C 0.12158 0.91835 0.75776 0.0
C5011 C 0.1324 0.91468 0.74377 0.0
C5012 C 0.15093 0.91931 0.74776 0.0
C5013 C 0.24056 0.89184 0.77501 0.0
C5014 C 0.24067 0.88586 0.75571 0.0
C5015 C 0.22911 0.90335 0.78042 0.0
C5016 C 0.21754 0.90891 0.7666 0.0
C5017 C 0.21683 0.90192 0.74749 0.0
C5018 C 0.22835 0.89059 0.74208 0.0
C5019 C 0.20721 0.92312 0.77158 0.0
C5020 C 0.18867 0.91945 0.76682 0.0
C5021 C 0.21569 0.94053 0.78008 0.0
C5022 C 0.23523 0.94539 0.78527 0.0
C5023 C 0.24687 0.94416 0.77135 0.0
C5024 C 0.26529 0.94852 0.77645 0.0
C5025 C 0.27221 0.95428 0.7954 0.0
C5026 C 0.26072 0.95575 0.80929 0.0
C5027 C 0.24228 0.95138 0.80427 0.0
H5028 H 0.28647 0.95765 0.79932 0.0
H5029 H 0.10724 0.91478 0.75463 0.0
H5030 H 0.33799 0.96301 0.00561 0.0
H5031 H 0.36736 0.982 0.01291 0.0
H5032 H 0.39136 0.93783 0.99233 0.0
H5033 H 0.36203 0.9185 0.98523 0.0
H5034 H 0.40465 0.95223 0.02857 0.0
H5035 H 0.39104 0.97307 0.9679 0.0
H5036 H 0.37347 0.98605 0.94381 0.0
H5037 H 0.37832 0.03438 0.98209 0.0
H5038 H 0.3957 0.02157 0.00653 0.0
H5039 H 0.49057 0.98902 0.01382 0.0
H5040 H 0.46063 0.9744 0.01744 0.0
H5041 H 0.44776 0.02596 0.03568 0.0
H5042 H 0.47795 0.04073 0.03135 0.0
H5043 H 0.42723 0.01052 0.00545 0.0
H5044 H 0.44192 0.98996 0.06576 0.0
H5045 H 0.45955 0.97678 0.08944 0.0
H5046 H 0.45412 0.9285 0.05104 0.0
H5047 H 0.43576 0.94114 0.0273 0.0
C5048 C 0.34947 0.95736 0.00234 0.0
C5049 C 0.34777 0.93915 0.99514 0.0
C5050 C 0.36619 0.96828 0.00645 0.0
C5051 C 0.38134 0.96118 0.00319 0.0
C5052 C 0.37967 0.94338 0.99499 0.0
C5053 C 0.36295 0.9324 0.99094 0.0
C5054 C 0.39902 0.97179 0.00994 0.0
C5055 C 0.40969 0.96494 0.02346 0.0
C5056 C 0.40509 0.98864 0.00378 0.0
C5057 C 0.39448 0.99627 0.98914 0.0
C5058 C 0.38819 0.98638 0.97126 0.0
C5059 C 0.3783 0.99373 0.95753 0.0
C5060 C 0.37472 0.01101 0.96144 0.0
C5061 C 0.38106 0.02098 0.97909 0.0
C5062 C 0.39094 0.01369 0.99289 0.0
C5063 C 0.48164 0.9971 0.01953 0.0
C5064 C 0.48634 0.01583 0.02259 0.0
C5065 C 0.46452 0.98875 0.02168 0.0
C5066 C 0.45205 0.9991 0.02708 0.0
C5067 C 0.45729 0.01778 0.03165 0.0
C5068 C 0.47439 0.02617 0.0292 0.0
C5069 C 0.4331 0.99085 0.0239 0.0
C5070 C 0.42209 0.99807 0.01099 0.0
C5071 C 0.4267 0.9743 0.03055 0.0
C5072 C 0.43755 0.96653 0.04477 0.0
C5073 C 0.44451 0.97655 0.06236 0.0
C5074 C 0.45463 0.96916 0.0758 0.0
C5075 C 0.45823 0.95192 0.0717 0.0
C5076 C 0.45139 0.94188 0.05421 0.0
C5077 C 0.44095 0.94907 0.04082 0.0
H5078 H 0.46623 0.94634 0.08212 0.0
H5079 H 0.36709 0.01668 0.95078 0.0
H5080 H 0.88821 0.57838 0.80151 0.0
H5081 H 0.87254 0.60329 0.79909 0.0
H5082 H 0.82428 0.56612 0.77575 0.0
H5083 H 0.83992 0.54092 0.77801 0.0
H5084 H 0.83426 0.59349 0.75442 0.0
H5085 H 0.82691 0.58649 0.81946 0.0
H5086 H 0.83682 0.58321 0.85276 0.0
H5087 H 0.87064 0.63535 0.85884 0.0
H5088 H 0.86119 0.63883 0.82547 0.0
H5089 H 0.78468 0.66036 0.7479 0.0
H5090 H 0.79326 0.63515 0.76307 0.0
H5091 H 0.84645 0.6659 0.77903 0.0
H5092 H 0.83795 0.69118 0.76362 0.0
H5093 H 0.83091 0.64079 0.80653 0.0
H5094 H 0.84394 0.64519 0.74177 0.0
H5095 H 0.83677 0.64913 0.70808 0.0
H5096 H 0.79565 0.60189 0.7013 0.0
H5097 H 0.80226 0.59799 0.73516 0.0
C5098 C 0.87426 0.57548 0.79583 0.0
C5099 C 0.86523 0.5578 0.78978 0.0
C5100 C 0.86532 0.58967 0.79475 0.0
C5101 C 0.84728 0.58632 0.78767 0.0
C5102 C 0.8382 0.56874 0.78152 0.0
C5103 C 0.84715 0.55447 0.78263 0.0
C5104 C 0.83853 0.60146 0.78469 0.0
C5105 C 0.83306 0.60358 0.76585 0.0
C5106 C 0.83779 0.61483 0.79969 0.0
C5107 C 0.84338 0.61288 0.81988 0.0
C5108 C 0.83656 0.59721 0.82784 0.0
C5109 C 0.84209 0.59532 0.84675 0.0
C5110 C 0.85436 0.60905 0.8579 0.0
C5111 C 0.86112 0.62472 0.85018 0.0
C5112 C 0.85566 0.62667 0.83127 0.0
C5113 C 0.79811 0.66177 0.75493 0.0
C5114 C 0.81089 0.6773 0.75431 0.0
C5115 C 0.80288 0.64756 0.76374 0.0
C5116 C 0.82041 0.64889 0.77203 0.0
C5117 C 0.83283 0.66489 0.77273 0.0
C5118 C 0.82811 0.67906 0.76369 0.0
C5119 C 0.82656 0.63256 0.77634 0.0
C5120 C 0.83172 0.63038 0.79526 0.0
C5121 C 0.82738 0.61917 0.76143 0.0
C5122 C 0.82333 0.62153 0.74109 0.0
C5123 C 0.83316 0.63583 0.73319 0.0
C5124 C 0.82924 0.63802 0.71404 0.0
C5125 C 0.81569 0.62583 0.70257 0.0
C5126 C 0.80607 0.61138 0.71023 0.0
C5127 C 0.80987 0.6092 0.72941 0.0
H5128 H 0.81271 0.62752 0.68773 0.0
H5129 H 0.85862 0.60757 0.87254 0.0
H5130 H 0.83021 0.66651 0.00056 0.0
H5131 H 0.85572 0.65108 0.00235 0.0
H5132 H 0.82652 0.6105 0.03167 0.0
H5133 H 0.80099 0.62564 0.0297 0.0
H5134 H 0.86133 0.62482 0.04908 0.0
H5135 H 0.83042 0.60095 0.98671 0.0
H5136 H 0.81763 0.60275 0.95392 0.0
H5137 H 0.86893 0.62781 0.94077 0.0
H5138 H 0.88198 0.62642 0.9736 0.0
H5139 H 0.90725 0.55639 0.05255 0.0
H5140 H 0.8833 0.57127 0.04118 0.0
H5141 H 0.91945 0.6043 0.01034 0.0
H5142 H 0.94341 0.58867 0.0211 0.0
H5143 H 0.88393 0.59708 0.99258 0.0
H5144 H 0.91544 0.62026 0.05351 0.0
H5145 H 0.92916 0.61854 0.08594 0.0
H5146 H 0.87796 0.59659 0.10182 0.0
H5147 H 0.86396 0.59784 0.06935 0.0
C5148 C 0.82931 0.65437 0.0075 0.0
C5149 C 0.81365 0.64733 0.01509 0.0
C5150 C 0.84381 0.6455 0.00836 0.0
C5151 C 0.84294 0.62959 0.01702 0.0
C5152 C 0.82743 0.62274 0.02488 0.0
C5153 C 0.81287 0.63142 0.02377 0.0
C5154 C 0.85828 0.62022 0.0185 0.0
C5155 C 0.86617 0.61865 0.03672 0.0
C5156 C 0.86503 0.61277 0.00234 0.0
C5157 C 0.85712 0.61382 0.98269 0.0
C5158 C 0.83893 0.60705 0.9769 0.0
C5159 C 0.83165 0.60795 0.95829 0.0
C5160 C 0.84245 0.61545 0.94529 0.0
C5161 C 0.86057 0.62205 0.95087 0.0
C5162 C 0.86792 0.62121 0.96948 0.0
C5163 C 0.90993 0.5664 0.04282 0.0
C5164 C 0.92727 0.57184 0.03819 0.0
C5165 C 0.89628 0.57495 0.03641 0.0
C5166 C 0.89977 0.58933 0.0255 0.0
C5167 C 0.91656 0.59342 0.01901 0.0
C5168 C 0.93024 0.58457 0.02521 0.0
C5169 C 0.88655 0.60125 0.02318 0.0
C5170 C 0.87917 0.60341 0.0049 0.0
C5171 C 0.88037 0.60952 0.03928 0.0
C5172 C 0.88867 0.60902 0.05894 0.0
C5173 C 0.90711 0.61495 0.06388 0.0
C5174 C 0.91494 0.61407 0.08227 0.0
C5175 C 0.90444 0.60744 0.09593 0.0
C5176 C 0.88608 0.60171 0.09122 0.0
C5177 C 0.87819 0.60251 0.07283 0.0
H5178 H 0.91053 0.60676 0.11016 0.0
H5179 H 0.83679 0.6161 0.93088 0.0
H5180 H 0.16307 0.10724 0.82564 0.0
H5181 H 0.18515 0.13423 0.82336 0.0
H5182 H 0.18963 0.11451 0.76534 0.0
H5183 H 0.16883 0.0868 0.76836 0.0
H5184 H 0.21975 0.13101 0.77872 0.0
H5185 H 0.16241 0.14853 0.78081 0.0
H5186 H 0.13461 0.15094 0.79469 0.0
H5187 H 0.16484 0.18059 0.84551 0.0
H5188 H 0.1928 0.17819 0.832 0.0
H5189 H 0.25936 0.21638 0.75347 0.0
H5190 H 0.23995 0.18771 0.75595 0.0
H5191 H 0.2346 0.20602 0.81417 0.0
H5192 H 0.25252 0.23533 0.81089 0.0
H5193 H 0.20486 0.19001 0.79984 0.0
H5194 H 0.26266 0.17255 0.79665 0.0
H5195 H 0.28987 0.17077 0.78137 0.0
H5196 H 0.25819 0.14154 0.73116 0.0
H5197 H 0.2308 0.14333 0.74607 0.0
C5198 C 0.16897 0.10864 0.81251 0.0
C5199 C 0.16421 0.09503 0.79715 0.0
C5200 C 0.18145 0.12418 0.81109 0.0
C5201 C 0.1887 0.1269 0.79391 0.0
C5202 C 0.18426 0.11296 0.77874 0.0
C5203 C 0.17232 0.09711 0.78043 0.0
C5204 C 0.20057 0.1443 0.79158 0.0
C5205 C 0.21636 0.14389 0.78321 0.0
C5206 C 0.19647 0.16129 0.79754 0.0
C5207 C 0.17966 0.16307 0.80545 0.0
C5208 C 0.1631 0.15553 0.79496 0.0
C5209 C 0.14733 0.15688 0.80276 0.0
C5210 C 0.14796 0.16588 0.82098 0.0
C5211 C 0.16437 0.17361 0.8314 0.0
C5212 C 0.18018 0.17229 0.82367 0.0
C5213 C 0.25415 0.21413 0.76683 0.0
C5214 C 0.25749 0.22795 0.78204 0.0
C5215 C 0.24313 0.19767 0.76833 0.0
C5216 C 0.23604 0.19429 0.78545 0.0
C5217 C 0.2398 0.20811 0.80078 0.0
C5218 C 0.25016 0.22484 0.79898 0.0
C5219 C 0.22422 0.17675 0.78735 0.0
C5220 C 0.20834 0.17714 0.7955 0.0
C5221 C 0.2282 0.15979 0.78106 0.0
C5222 C 0.24471 0.15813 0.77245 0.0
C5223 C 0.26152 0.16573 0.78236 0.0
C5224 C 0.27696 0.16475 0.77375 0.0
C5225 C 0.27576 0.15606 0.7553 0.0
C5226 C 0.25911 0.14826 0.74545 0.0
C5227 C 0.24363 0.14922 0.75398 0.0
H5228 H 0.28772 0.15536 0.74864 0.0
H5229 H 0.13574 0.16688 0.82701 0.0
H5230 H 0.35358 0.97361 0.27845 0.0
H5231 H 0.33566 0.9437 0.26919 0.0
H5232 H 0.36211 0.9244 0.31733 0.0
H5233 H 0.38075 0.95422 0.32618 0.0
H5234 H 0.36496 0.90578 0.28455 0.0
H5235 H 0.31691 0.92923 0.31307 0.0
H5236 H 0.29594 0.95014 0.31608 0.0
H5237 H 0.27496 0.93515 0.25735 0.0
H5238 H 0.29595 0.91433 0.25393 0.0
H5239 H 0.31706 0.82559 0.30296 0.0
H5240 H 0.33353 0.85531 0.29941 0.0
H5241 H 0.29818 0.85715 0.2487 0.0
H5242 H 0.28103 0.82761 0.25305 0.0
H5243 H 0.29949 0.88509 0.27325 0.0
H5244 H 0.3426 0.85732 0.24646 0.0
H5245 H 0.3628 0.83584 0.24258 0.0
H5246 H 0.39324 0.85878 0.29596 0.0
H5247 H 0.37284 0.87997 0.30056 0.0
C5248 C 0.35526 0.96308 0.28733 0.0
C5249 C 0.36865 0.96598 0.30286 0.0
C5250 C 0.34498 0.94606 0.28204 0.0
C5251 C 0.34767 0.93197 0.29257 0.0
C5252 C 0.36003 0.93521 0.309 0.0
C5253 C 0.37062 0.95214 0.31404 0.0
C5254 C 0.33933 0.91344 0.28529 0.0
C5255 C 0.35064 0.90115 0.28225 0.0
C5256 C 0.32072 0.90787 0.28101 0.0
C5257 C 0.30813 0.92039 0.2832 0.0
C5258 C 0.30792 0.93051 0.30077 0.0
C5259 C 0.29601 0.94232 0.30255 0.0
C5260 C 0.28416 0.94401 0.2869 0.0
C5261 C 0.28416 0.93386 0.26945 0.0
C5262 C 0.29605 0.92205 0.26759 0.0
C5263 C 0.31325 0.8322 0.29077 0.0
C5264 C 0.29825 0.82456 0.278 0.0
C5265 C 0.32267 0.84902 0.28863 0.0
C5266 C 0.31722 0.85819 0.27355 0.0
C5267 C 0.30263 0.85009 0.26024 0.0
C5268 C 0.293 0.83332 0.26261 0.0
C5269 C 0.32513 0.87719 0.27378 0.0
C5270 C 0.31382 0.8897 0.27521 0.0
C5271 C 0.34377 0.88302 0.27645 0.0
C5272 C 0.35618 0.87031 0.2738 0.0
C5273 C 0.35351 0.85772 0.25746 0.0
C5274 C 0.36497 0.84554 0.25515 0.0
C5275 C 0.37928 0.84595 0.269 0.0
C5276 C 0.38212 0.85846 0.28525 0.0
C5277 C 0.37061 0.87057 0.28772 0.0
H5278 H 0.3882 0.83661 0.26704 0.0
H5279 H 0.27496 0.95316 0.28831 0.0
H5280 H 0.56982 0.33509 0.5714 0.0
H5281 H 0.56784 0.36416 0.55925 0.0
H5282 H 0.53763 0.37749 0.60463 0.0
H5283 H 0.54015 0.34904 0.61714 0.0
H5284 H 0.5225 0.38424 0.56751 0.0
H5285 H 0.57881 0.39798 0.60737 0.0
H5286 H 0.6094 0.3943 0.61762 0.0
H5287 H 0.62459 0.4048 0.56265 0.0
H5288 H 0.59398 0.40825 0.55197 0.0
H5289 H 0.51682 0.47476 0.55381 0.0
H5290 H 0.52005 0.44617 0.56497 0.0
H5291 H 0.56874 0.44792 0.53917 0.0
H5292 H 0.56601 0.47742 0.52917 0.0
H5293 H 0.57486 0.43232 0.56563 0.0
H5294 H 0.52077 0.41387 0.52294 0.0
H5295 H 0.49004 0.41212 0.50821 0.0
H5296 H 0.47085 0.40776 0.56263 0.0
H5297 H 0.50148 0.40883 0.57755 0.0
C5298 C 0.56281 0.34422 0.57886 0.0
C5299 C 0.55526 0.33945 0.59544 0.0
C5300 C 0.5617 0.36099 0.57189 0.0
C5301 C 0.55258 0.37344 0.58092 0.0
C5302 C 0.54478 0.36846 0.59723 0.0
C5303 C 0.54631 0.35202 0.60446 0.0
C5304 C 0.55091 0.39143 0.57351 0.0
C5305 C 0.53399 0.3948 0.5673 0.0
C5306 C 0.56574 0.40531 0.57241 0.0
C5307 C 0.58407 0.40315 0.5788 0.0
C5308 C 0.58862 0.39931 0.5974 0.0
C5309 C 0.60597 0.3973 0.60331 0.0
C5310 C 0.61892 0.39925 0.59078 0.0
C5311 C 0.61454 0.40325 0.57233 0.0
C5312 C 0.5972 0.40523 0.56634 0.0
C5313 C 0.52816 0.46905 0.55026 0.0
C5314 C 0.54095 0.47865 0.54017 0.0
C5315 C 0.52995 0.45227 0.55656 0.0
C5316 C 0.54438 0.44378 0.55259 0.0
C5317 C 0.55732 0.45355 0.54264 0.0
C5318 C 0.55573 0.47063 0.53674 0.0
C5319 C 0.54627 0.42533 0.55928 0.0
C5320 C 0.56327 0.42185 0.56557 0.0
C5321 C 0.53152 0.41105 0.5599 0.0
C5322 C 0.51338 0.41168 0.55136 0.0
C5323 C 0.51001 0.41273 0.53177 0.0
C5324 C 0.4926 0.41172 0.52338 0.0
C5325 C 0.4785 0.40998 0.53451 0.0
C5326 C 0.48178 0.40915 0.55404 0.0
C5327 C 0.49914 0.40982 0.56245 0.0
H5328 H 0.46501 0.40919 0.52799 0.0
H5329 H 0.63236 0.39772 0.59538 0.0
H5330 H 0.43755 0.77628 0.43132 0.0
H5331 H 0.41174 0.77665 0.40885 0.0
H5332 H 0.43992 0.76116 0.36237 0.0
H5333 H 0.46636 0.76139 0.38503 0.0
H5334 H 0.42156 0.78551 0.35211 0.0
H5335 H 0.40306 0.72955 0.37895 0.0
H5336 H 0.39912 0.71187 0.40612 0.0
H5337 H 0.36717 0.74769 0.42913 0.0
H5338 H 0.37031 0.76502 0.40181 0.0
H5339 H 0.34404 0.77676 0.2862 0.0
H5340 H 0.37014 0.772 0.30524 0.0
H5341 H 0.34199 0.77266 0.35483 0.0
H5342 H 0.31478 0.77367 0.33477 0.0
H5343 H 0.3617 0.75399 0.36256 0.0
H5344 H 0.38042 0.81092 0.33688 0.0
H5345 H 0.38649 0.83078 0.31192 0.0
H5346 H 0.42012 0.79682 0.28882 0.0
H5347 H 0.41407 0.77665 0.31354 0.0
C5348 C 0.43839 0.77282 0.41635 0.0
C5349 C 0.45426 0.76865 0.41022 0.0
C5350 C 0.42338 0.77289 0.40338 0.0
C5351 C 0.42338 0.76847 0.3837 0.0
C5352 C 0.43928 0.76448 0.37741 0.0
C5353 C 0.45447 0.76455 0.39045 0.0
C5354 C 0.40699 0.76849 0.36989 0.0
C5355 C 0.40849 0.77843 0.35427 0.0
C5356 C 0.38969 0.75967 0.37263 0.0
C5357 C 0.38689 0.74852 0.38838 0.0
C5358 C 0.39501 0.73346 0.38972 0.0
C5359 C 0.39283 0.72344 0.4051 0.0
C5360 C 0.38269 0.72848 0.41926 0.0
C5361 C 0.37465 0.74349 0.418 0.0
C5362 C 0.37652 0.75334 0.40251 0.0
C5363 C 0.34314 0.77562 0.30102 0.0
C5364 C 0.32693 0.77605 0.3086 0.0
C5365 C 0.35856 0.7734 0.3123 0.0
C5366 C 0.35897 0.77291 0.33213 0.0
C5367 C 0.34267 0.77317 0.33976 0.0
C5368 C 0.32692 0.77418 0.32817 0.0
C5369 C 0.37593 0.77164 0.34479 0.0
C5370 C 0.37462 0.76128 0.36022 0.0
C5371 C 0.39341 0.78033 0.34198 0.0
C5372 C 0.39671 0.79226 0.32696 0.0
C5373 C 0.38902 0.80766 0.32641 0.0
C5374 C 0.39247 0.81897 0.3123 0.0
C5375 C 0.40373 0.81509 0.29881 0.0
C5376 C 0.41143 0.79982 0.29929 0.0
C5377 C 0.408 0.78846 0.31334 0.0
H5378 H 0.40661 0.82396 0.28806 0.0
H5379 H 0.38116 0.72082 0.43126 0.0
H5380 H 0.05902 0.73169 0.11575 0.0
H5381 H 0.0561 0.69899 0.10686 0.0
H5382 H 0.03936 0.7054 0.04876 0.0
H5383 H 0.04296 0.73799 0.05741 0.0
H5384 H 0.01806 0.6744 0.06367 0.0
H5385 H 0.07928 0.70025 0.05782 0.0
H5386 H 0.1091 0.71789 0.06984 0.0
H5387 H 0.11423 0.6829 0.11316 0.0
H5388 H 0.0843 0.6652 0.10156 0.0
H5389 H 0.01952 0.58752 0.0178 0.0
H5390 H 0.02252 0.61968 0.02736 0.0
H5391 H 0.06248 0.6166 0.07338 0.0
H5392 H 0.06075 0.58475 0.06237 0.0
H5393 H 0.07167 0.64652 0.0663 0.0
H5394 H 0.0119 0.6208 0.07492 0.0
H5395 H 0.98107 0.60392 0.06694 0.0
H5396 H 0.97174 0.63799 0.02372 0.0
H5397 H 1.00257 0.65491 0.03125 0.0
C5398 C 0.05444 0.72612 0.10114 0.0
C5399 C 0.05104 0.73769 0.08739 0.0
C5400 C 0.0529 0.70733 0.09599 0.0
C5401 C 0.0475 0.69939 0.07701 0.0
C5402 C 0.04351 0.71089 0.06348 0.0
C5403 C 0.04554 0.72965 0.06849 0.0
C5404 C 0.04638 0.67934 0.07104 0.0
C5405 C 0.02982 0.66834 0.06412 0.0
C5406 C 0.0615 0.67097 0.07205 0.0
C5407 C 0.07948 0.68154 0.07897 0.0
C5408 C 0.0867 0.69643 0.07002 0.0
C5409 C 0.10363 0.70641 0.07674 0.0
C5410 C 0.11354 0.70155 0.09229 0.0
C5411 C 0.10654 0.68666 0.10114 0.0
C5412 C 0.08959 0.67665 0.09449 0.0
C5413 C 0.02901 0.59367 0.02995 0.0
C5414 C 0.0397 0.58319 0.03937 0.0
C5415 C 0.03055 0.61227 0.03572 0.0
C5416 C 0.0422 0.62113 0.05185 0.0
C5417 C 0.05318 0.61063 0.06103 0.0
C5418 C 0.05213 0.59214 0.05476 0.0
C5419 C 0.04315 0.64113 0.05889 0.0
C5420 C 0.05974 0.65229 0.06595 0.0
C5421 C 0.02792 0.64954 0.05854 0.0
C5422 C 0.00957 0.63906 0.05359 0.0
C5423 C 1.00331 0.62459 0.06361 0.0
C5424 C 0.98584 0.61503 0.05919 0.0
C5425 C 0.97446 0.61994 0.04489 0.0
C5426 C 0.98057 0.63425 0.03482 0.0
C5427 C 0.99803 0.64383 0.03917 0.0
H5428 H 0.96088 0.61275 0.04174 0.0
H5429 H 0.12665 0.7093 0.09746 0.0
H5430 H 0.03981 0.27187 0.87899 0.0
H5431 H 0.06628 0.27349 0.86253 0.0
H5432 H 0.09776 0.26959 0.91516 0.0
H5433 H 0.07133 0.2694 0.93197 0.0
H5434 H 0.11733 0.29056 0.89839 0.0
H5435 H 0.08269 0.23288 0.87507 0.0
H5436 H 0.05602 0.21069 0.86103 0.0
H5437 H 0.0551 0.23618 0.80971 0.0
H5438 H 0.08161 0.25868 0.82355 0.0
H5439 H 0.19052 0.27336 0.85 0.0
H5440 H 0.16348 0.26561 0.86562 0.0
H5441 H 0.13385 0.28856 0.82279 0.0
H5442 H 0.16104 0.29685 0.80757 0.0
H5443 H 0.11444 0.25562 0.83514 0.0
H5444 H 0.15014 0.31384 0.86126 0.0
H5445 H 0.17874 0.33278 0.87548 0.0
H5446 H 0.17912 0.30203 0.92305 0.0
H5447 H 0.15071 0.28261 0.90886 0.0
C5448 C 0.05236 0.27127 0.88707 0.0
C5449 C 0.05337 0.27029 0.90678 0.0
C5450 C 0.06757 0.27204 0.87756 0.0
C5451 C 0.08419 0.27108 0.8873 0.0
C5452 C 0.08523 0.27024 0.90711 0.0
C5453 C 0.07005 0.27003 0.91675 0.0
C5454 C 0.10042 0.27136 0.87687 0.0
C5455 C 0.11662 0.28262 0.88473 0.0
C5456 C 0.09989 0.26117 0.85887 0.0
C5457 C 0.08405 0.24755 0.85041 0.0
C5458 C 0.07674 0.23381 0.86083 0.0
C5459 C 0.06165 0.22118 0.85291 0.0
C5460 C 0.05385 0.22205 0.83451 0.0
C5461 C 0.06115 0.23553 0.82397 0.0
C5462 C 0.07622 0.24822 0.83184 0.0
C5463 C 0.17812 0.27633 0.84368 0.0
C5464 C 0.17785 0.28568 0.82758 0.0
C5465 C 0.16269 0.27196 0.85264 0.0
C5466 C 0.14661 0.27667 0.84552 0.0
C5467 C 0.14604 0.28478 0.82857 0.0
C5468 C 0.16156 0.28944 0.81982 0.0
C5469 C 0.13097 0.27482 0.85666 0.0
C5470 C 0.11498 0.26335 0.8489 0.0
C5471 C 0.13181 0.28443 0.87492 0.0
C5472 C 0.14838 0.29668 0.88392 0.0
C5473 C 0.15636 0.31107 0.87472 0.0
C5474 C 0.17254 0.32188 0.88276 0.0
C5475 C 0.18076 0.31859 0.90014 0.0
C5476 C 0.17275 0.30454 0.90957 0.0
C5477 C 0.15661 0.29363 0.90153 0.0
H5478 H 0.19332 0.32693 0.90632 0.0
H5479 H 0.04216 0.21227 0.8284 0.0
H5480 H 0.54538 0.7481 0.86973 0.0
H5481 H 0.54612 0.71876 0.88173 0.0
H5482 H 0.53866 0.74161 0.93761 0.0
H5483 H 0.5385 0.77037 0.9262 0.0
H5484 H 0.56251 0.72256 0.94165 0.0
H5485 H 0.50444 0.71362 0.90452 0.0
H5486 H 0.48359 0.71126 0.8753 0.0
H5487 H 0.50699 0.66915 0.84947 0.0
H5488 H 0.52814 0.67143 0.87846 0.0
H5489 H 0.5229 0.6542 0.99278 0.0
H5490 H 0.53217 0.67964 0.97526 0.0
H5491 H 0.53869 0.64309 0.9273 0.0
H5492 H 0.52882 0.61745 0.94487 0.0
H5493 H 0.52025 0.66653 0.91525 0.0
H5494 H 0.57535 0.67319 0.95561 0.0
H5495 H 0.59473 0.67557 0.98589 0.0
H5496 H 0.57549 0.72255 0.00671 0.0
H5497 H 0.55584 0.72033 0.97665 0.0
C5498 C 0.54411 0.74685 0.8846 0.0
C5499 C 0.54182 0.76175 0.89688 0.0
C5500 C 0.54437 0.73002 0.89144 0.0
C5501 C 0.54233 0.7278 0.91066 0.0
C5502 C 0.54035 0.74278 0.92279 0.0
C5503 C 0.54016 0.75936 0.9161 0.0
C5504 C 0.54225 0.71026 0.91876 0.0
C5505 C 0.55321 0.71034 0.93584 0.0
C5506 C 0.53055 0.69402 0.91104 0.0
C5507 C 0.51805 0.69289 0.89353 0.0
C5508 C 0.50527 0.704 0.89252 0.0
C5509 C 0.49337 0.70265 0.87602 0.0
C5510 C 0.49402 0.69012 0.86051 0.0
C5511 C 0.50655 0.67889 0.86147 0.0
C5512 C 0.5185 0.68022 0.87793 0.0
C5513 C 0.52701 0.65163 0.97879 0.0
C5514 C 0.52557 0.63385 0.97039 0.0
C5515 C 0.53225 0.66621 0.96867 0.0
C5516 C 0.53638 0.66347 0.94989 0.0
C5517 C 0.53568 0.64567 0.94175 0.0
C5518 C 0.53033 0.63101 0.9519 0.0
C5519 C 0.54005 0.6791 0.93851 0.0
C5520 C 0.5298 0.67865 0.92086 0.0
C5521 C 0.55224 0.69515 0.94581 0.0
C5522 C 0.56408 0.69654 0.96389 0.0
C5523 C 0.57519 0.68397 0.96669 0.0
C5524 C 0.58623 0.6853 0.98381 0.0
C5525 C 0.58633 0.6992 0.99822 0.0
C5526 C 0.57541 0.7118 0.99553 0.0
C5527 C 0.56434 0.71053 0.97844 0.0
H5528 H 0.59489 0.7002 0.01146 0.0
H5529 H 0.48477 0.68907 0.84776 0.0
H5530 H 0.08575 0.79141 0.69475 0.0
H5531 H 0.11621 0.79203 0.70854 0.0
H5532 H 0.09963 0.74053 0.72824 0.0
H5533 H 0.06866 0.74015 0.71471 0.0
H5534 H 0.12642 0.76021 0.75361 0.0
H5535 H 0.12026 0.74567 0.68563 0.0
H5536 H 0.11232 0.74995 0.65213 0.0
H5537 H 0.14831 0.80092 0.66 0.0
H5538 H 0.1563 0.79704 0.69361 0.0
H5539 H 0.21722 0.74667 0.76708 0.0
H5540 H 0.18531 0.74383 0.7576 0.0
H5541 H 0.19584 0.79188 0.72976 0.0
H5542 H 0.22765 0.79395 0.73807 0.0
H5543 H 0.17139 0.77164 0.70862 0.0
H5544 H 0.17725 0.78736 0.77639 0.0
H5545 H 0.18591 0.78365 0.80991 0.0
H5546 H 0.15148 0.7318 0.80297 0.0
H5547 H 0.14277 0.73512 0.76933 0.0
C5548 C 0.08838 0.78039 0.70248 0.0
C5549 C 0.07443 0.76584 0.70371 0.0
C5550 C 0.10604 0.78063 0.7102 0.0
C5551 C 0.11075 0.76609 0.7191 0.0
C5552 C 0.09668 0.75195 0.72139 0.0
C5553 C 0.07881 0.75179 0.71377 0.0
C5554 C 0.13031 0.76551 0.72497 0.0
C5555 C 0.13616 0.76248 0.74363 0.0
C5556 C 0.14352 0.76879 0.71236 0.0
C5557 C 0.13875 0.77113 0.69216 0.0
C5558 C 0.12639 0.75784 0.68024 0.0
C5559 C 0.12189 0.76019 0.66123 0.0
C5560 C 0.12977 0.77571 0.65395 0.0
C5561 C 0.1422 0.78891 0.66566 0.0
C5562 C 0.14673 0.78664 0.68468 0.0
C5563 C 0.21287 0.7564 0.75861 0.0
C5564 C 0.22548 0.7703 0.7532 0.0
C5565 C 0.19435 0.75501 0.75344 0.0
C5566 C 0.18761 0.76779 0.74305 0.0
C5567 C 0.20024 0.78168 0.73767 0.0
C5568 C 0.21869 0.78289 0.74257 0.0
C5569 C 0.16768 0.76675 0.73739 0.0
C5570 C 0.16172 0.76941 0.71868 0.0
C5571 C 0.15449 0.76331 0.75003 0.0
C5572 C 0.15947 0.76142 0.77031 0.0
C5573 C 0.17158 0.77514 0.782 0.0
C5574 C 0.1765 0.77311 0.80101 0.0
C5575 C 0.16929 0.75748 0.80855 0.0
C5576 C 0.15708 0.74389 0.7971 0.0
C5577 C 0.15213 0.74584 0.77807 0.0
H5578 H 0.17312 0.75593 0.82326 0.0
H5579 H 0.12628 0.7775 0.63923 0.0
H5580 H 0.01912 0.34494 0.39609 0.0
H5581 H 0.01686 0.37271 0.41574 0.0
H5582 H 0.07027 0.39621 0.40686 0.0
H5583 H 0.07222 0.36869 0.38642 0.0
H5584 H 0.06201 0.39958 0.44733 0.0
H5585 H 0.04116 0.41217 0.38533 0.0
H5586 H 0.02264 0.40634 0.35426 0.0
H5587 H 0.97543 0.40458 0.38223 0.0
H5588 H 0.99368 0.41009 0.41353 0.0
H5589 H 0.06085 0.4933 0.48043 0.0
H5590 H 0.06349 0.46597 0.46013 0.0
H5591 H 0.01116 0.44054 0.47049 0.0
H5592 H 0.00881 0.46748 0.49146 0.0
H5593 H 0.01907 0.43834 0.42916 0.0
H5594 H 0.0387 0.4234 0.49047 0.0
H5595 H 0.05624 0.42727 0.522 0.0
H5596 H 0.10465 0.43294 0.4959 0.0
H5597 H 0.08736 0.42888 0.46411 0.0
C5598 C 0.03028 0.35613 0.39806 0.0
C5599 C 0.04573 0.35466 0.38935 0.0
C5600 C 0.02901 0.37203 0.40941 0.0
C5601 C 0.0434 0.38673 0.41295 0.0
C5602 C 0.05894 0.38518 0.40443 0.0
C5603 C 0.06 0.36948 0.39257 0.0
C5604 C 0.04213 0.4036 0.42549 0.0
C5605 C 0.05281 0.40817 0.44316 0.0
C5606 C 0.02981 0.41474 0.42053 0.0
C5607 C 0.01877 0.41132 0.40178 0.0
C5608 C 0.02682 0.41033 0.38487 0.0
C5609 C 0.01637 0.40713 0.36721 0.0
C5610 C 0.99786 0.40504 0.36627 0.0
C5611 C 0.98977 0.40617 0.38299 0.0
C5612 C 1.00016 0.40933 0.4007 0.0
C5613 C 0.04992 0.48187 0.47842 0.0
C5614 C 0.03463 0.48266 0.48767 0.0
C5615 C 0.05145 0.46619 0.46681 0.0
C5616 C 0.03752 0.45104 0.46362 0.0
C5617 C 0.02213 0.45193 0.47261 0.0
C5618 C 0.02083 0.46738 0.48469 0.0
C5619 C 0.03902 0.43435 0.45093 0.0
C5620 C 0.02835 0.4298 0.43327 0.0
C5621 C 0.05125 0.42316 0.45593 0.0
C5622 C 0.06176 0.42614 0.47495 0.0
C5623 C 0.0531 0.42572 0.49146 0.0
C5624 C 0.06299 0.42789 0.50938 0.0
C5625 C 0.08156 0.43058 0.51099 0.0
C5626 C 0.09027 0.43095 0.49464 0.0
C5627 C 0.08043 0.42865 0.47666 0.0
H5628 H 0.08918 0.43225 0.52489 0.0
H5629 H 0.9898 0.40259 0.35258 0.0
H5630 H 0.47849 0.28249 0.21788 0.0
H5631 H 0.44976 0.28563 0.22858 0.0
H5632 H 0.42855 0.23013 0.20732 0.0
H5633 H 0.45714 0.22746 0.1956 0.0
H5634 H 0.40312 0.24508 0.20069 0.0
H5635 H 0.44108 0.25192 0.26017 0.0
H5636 H 0.46705 0.26517 0.28365 0.0
H5637 H 0.45218 0.31699 0.28376 0.0
H5638 H 0.42622 0.30408 0.26014 0.0
H5639 H 0.32262 0.24081 0.24502 0.0
H5640 H 0.35168 0.23725 0.23568 0.0
H5641 H 0.37257 0.2932 0.25503 0.0
H5642 H 0.34375 0.29645 0.26517 0.0
H5643 H 0.3981 0.27795 0.26292 0.0
H5644 H 0.36062 0.27133 0.20314 0.0
H5645 H 0.33398 0.25799 0.18057 0.0
H5646 H 0.34767 0.20575 0.1818 0.0
H5647 H 0.37433 0.21877 0.20445 0.0
C5648 C 0.46781 0.27083 0.21576 0.0
C5649 C 0.47056 0.25455 0.20626 0.0
C5650 C 0.45115 0.27259 0.22206 0.0
C5651 C 0.43645 0.25802 0.21953 0.0
C5652 C 0.43927 0.24175 0.20985 0.0
C5653 C 0.45586 0.2401 0.20324 0.0
C5654 C 0.41822 0.2598 0.22629 0.0
C5655 C 0.40224 0.25207 0.21448 0.0
C5656 C 0.41625 0.26929 0.24407 0.0
C5657 C 0.43183 0.27706 0.25825 0.0
C5658 C 0.44342 0.26615 0.26513 0.0
C5659 C 0.45812 0.2736 0.27847 0.0
C5660 C 0.46129 0.29191 0.28515 0.0
C5661 C 0.44973 0.30281 0.27855 0.0
C5662 C 0.43501 0.29543 0.2652 0.0
C5663 C 0.33333 0.25244 0.24734 0.0
C5664 C 0.33036 0.26902 0.25599 0.0
C5665 C 0.35018 0.25042 0.24172 0.0
C5666 C 0.36485 0.26502 0.24398 0.0
C5667 C 0.3619 0.28152 0.25285 0.0
C5668 C 0.34514 0.28344 0.25871 0.0
C5669 C 0.38309 0.26318 0.23736 0.0
C5670 C 0.39904 0.27093 0.24916 0.0
C5671 C 0.38505 0.25373 0.21959 0.0
C5672 C 0.36938 0.24599 0.20555 0.0
C5673 C 0.35792 0.257 0.19858 0.0
C5674 C 0.34283 0.24949 0.18579 0.0
C5675 C 0.33912 0.23103 0.17978 0.0
C5676 C 0.35056 0.22004 0.18646 0.0
C5677 C 0.36569 0.22748 0.19924 0.0
H5678 H 0.3274 0.22524 0.16993 0.0
H5679 H 0.47268 0.29765 0.29548 0.0
H5680 H 0.64765 0.54718 0.355 0.0
H5681 H 0.63381 0.54503 0.38454 0.0
H5682 H 0.58192 0.53055 0.35185 0.0
H5683 H 0.59563 0.53377 0.32257 0.0
H5684 H 0.57849 0.5506 0.38057 0.0
H5685 H 0.60728 0.49916 0.37397 0.0
H5686 H 0.63263 0.48365 0.37086 0.0
H5687 H 0.65939 0.51249 0.42372 0.0
H5688 H 0.63431 0.52834 0.42701 0.0
H5689 H 0.53107 0.52331 0.45577 0.0
H5690 H 0.54427 0.52297 0.42644 0.0
H5691 H 0.59643 0.53133 0.45832 0.0
H5692 H 0.58278 0.52753 0.48743 0.0
H5693 H 0.59973 0.51462 0.42943 0.0
H5694 H 0.56856 0.56579 0.43578 0.0
H5695 H 0.54135 0.57866 0.43805 0.0
H5696 H 0.51794 0.54928 0.38433 0.0
H5697 H 0.54456 0.53567 0.38203 0.0
C5698 C 0.63328 0.54369 0.35417 0.0
C5699 C 0.62277 0.54066 0.33641 0.0
C5700 C 0.62534 0.54227 0.37109 0.0
C5701 C 0.60672 0.53719 0.37062 0.0
C5702 C 0.59626 0.53446 0.35282 0.0
C5703 C 0.60415 0.5363 0.33599 0.0
C5704 C 0.598 0.53474 0.38847 0.0
C5705 C 0.5831 0.54264 0.39121 0.0
C5706 C 0.60399 0.52458 0.40265 0.0
C5707 C 0.61903 0.51506 0.40062 0.0
C5708 C 0.61863 0.50227 0.38485 0.0
C5709 C 0.63294 0.49342 0.38307 0.0
C5710 C 0.64763 0.49712 0.39705 0.0
C5711 C 0.64802 0.50966 0.41288 0.0
C5712 C 0.63377 0.51857 0.41471 0.0
C5713 C 0.5452 0.52406 0.45666 0.0
C5714 C 0.55558 0.52496 0.47431 0.0
C5715 C 0.55297 0.5247 0.43966 0.0
C5716 C 0.5716 0.52809 0.43981 0.0
C5717 C 0.58204 0.52884 0.45743 0.0
C5718 C 0.57415 0.5268 0.47427 0.0
C5719 C 0.5803 0.53078 0.42188 0.0
C5720 C 0.59518 0.52284 0.41903 0.0
C5721 C 0.5742 0.54086 0.40754 0.0
C5722 C 0.55853 0.54964 0.4088 0.0
C5723 C 0.5576 0.56208 0.42446 0.0
C5724 C 0.54229 0.56947 0.42578 0.0
C5725 C 0.52803 0.56488 0.41132 0.0
C5726 C 0.529 0.55284 0.39552 0.0
C5727 C 0.54416 0.54524 0.39423 0.0
H5728 H 0.51621 0.57063 0.41239 0.0
H5729 H 0.65869 0.49025 0.39565 0.0
H5730 H 0.27235 0.87306 0.03696 0.0
H5731 H 0.27015 0.86396 0.0688 0.0
H5732 H 0.30422 0.91401 0.0932 0.0
H5733 H 0.30607 0.92342 0.06124 0.0
H5734 H 0.31669 0.88003 0.098 0.0
H5735 H 0.267 0.90859 0.10752 0.0
H5736 H 0.23791 0.91589 0.09684 0.0
H5737 H 0.2136 0.85999 0.09216 0.0
H5738 H 0.24263 0.85233 0.10259 0.0
H5739 H 0.32203 0.8554 0.18926 0.0
H5740 H 0.30958 0.87306 0.16612 0.0
H5741 H 0.28423 0.82414 0.13074 0.0
H5742 H 0.29707 0.80639 0.1537 0.0
H5743 H 0.26591 0.86078 0.1343 0.0
H5744 H 0.31417 0.83174 0.11342 0.0
H5745 H 0.34234 0.82125 0.12102 0.0
H5746 H 0.3681 0.87511 0.14332 0.0
H5747 H 0.33989 0.88581 0.13621 0.0
C5748 C 0.27893 0.88228 0.0492 0.0
C5749 C 0.28953 0.89876 0.04691 0.0
C5750 C 0.27755 0.87718 0.06729 0.0
C5751 C 0.28698 0.88841 0.08314 0.0
C5752 C 0.29674 0.90536 0.08099 0.0
C5753 C 0.29781 0.91066 0.06286 0.0
C5754 C 0.28921 0.88086 0.10116 0.0
C5755 C 0.30573 0.87629 0.10626 0.0
C5756 C 0.27462 0.87531 0.11121 0.0
C5757 C 0.25699 0.87989 0.10583 0.0
C5758 C 0.25545 0.89785 0.1042 0.0
C5759 C 0.23898 0.90206 0.09817 0.0
C5760 C 0.22391 0.88841 0.09382 0.0
C5761 C 0.22528 0.87055 0.09558 0.0
C5762 C 0.24173 0.86627 0.1016 0.0
C5763 C 0.31359 0.84849 0.17665 0.0
C5764 C 0.31086 0.82972 0.17276 0.0
C5765 C 0.30626 0.8585 0.16371 0.0
C5766 C 0.29594 0.84978 0.14697 0.0
C5767 C 0.292 0.83096 0.14379 0.0
C5768 C 0.29962 0.82092 0.15659 0.0
C5769 C 0.29339 0.8602 0.13106 0.0
C5770 C 0.27691 0.86503 0.12629 0.0
C5771 C 0.30785 0.86567 0.12084 0.0
C5772 C 0.32495 0.85951 0.12451 0.0
C5773 C 0.32583 0.84131 0.12006 0.0
C5774 C 0.34178 0.83532 0.12428 0.0
C5775 C 0.35699 0.8475 0.13271 0.0
C5776 C 0.35629 0.8657 0.13685 0.0
C5777 C 0.34033 0.87172 0.13274 0.0
H5778 H 0.36933 0.84285 0.13598 0.0
H5779 H 0.21118 0.89168 0.08908 0.0
H5780 H 0.93165 0.54389 0.84312 0.0
H5781 H 0.95026 0.54144 0.87213 0.0
H5782 H 0.90725 0.50387 0.88925 0.0
H5783 H 0.88826 0.50666 0.8601 0.0
H5784 H 0.92667 0.52916 0.91871 0.0
H5785 H 0.93791 0.48689 0.86855 0.0
H5786 H 0.94458 0.4773 0.83633 0.0
H5787 H 0.99405 0.51524 0.84571 0.0
H5788 H 0.98757 0.52523 0.87788 0.0
H5789 H 1.00566 0.49619 0.9698 0.0
H5790 H 0.98284 0.49285 0.94226 0.0
H5791 H 0.98566 0.55039 0.94844 0.0
H5792 H 1.00754 0.5536 0.97649 0.0
H5793 H 0.98333 0.5089 0.90828 0.0
H5794 H 0.95556 0.55941 0.94814 0.0
H5795 H 0.947 0.56977 0.97933 0.0
H5796 H 0.92919 0.51493 0.98906 0.0
H5797 H 0.938 0.50432 0.95807 0.0
C5798 C 0.92608 0.53545 0.85334 0.0
C5799 C 0.90876 0.52538 0.84969 0.0
C5800 C 0.93669 0.53397 0.8697 0.0
C5801 C 0.93015 0.52208 0.88229 0.0
C5802 C 0.9124 0.51292 0.87938 0.0
C5803 C 0.90161 0.51461 0.86298 0.0
C5804 C 0.94228 0.51899 0.89811 0.0
C5805 C 0.93891 0.52443 0.91649 0.0
C5806 C 0.95822 0.51289 0.89495 0.0
C5807 C 0.96221 0.50683 0.87562 0.0
C5808 C 0.95016 0.49325 0.8637 0.0
C5809 C 0.95392 0.48774 0.84545 0.0
C5810 C 0.96973 0.49565 0.83898 0.0
C5811 C 0.98182 0.5091 0.85075 0.0
C5812 C 0.97812 0.51467 0.86901 0.0
C5813 C 1.00149 0.50805 0.96496 0.0
C5814 C 1.00782 0.52507 0.97509 0.0
C5815 C 0.98848 0.50614 0.94951 0.0
C5816 C 0.98223 0.52133 0.94407 0.0
C5817 C 0.98982 0.5385 0.95317 0.0
C5818 C 1.00239 0.54035 0.96888 0.0
C5819 C 0.96782 0.5194 0.92875 0.0
C5820 C 0.97084 0.51312 0.91048 0.0
C5821 C 0.95163 0.52482 0.93191 0.0
C5822 C 0.94764 0.5311 0.95104 0.0
C5823 C 0.95003 0.5496 0.95709 0.0
C5824 C 0.94514 0.55551 0.97469 0.0
C5825 C 0.93752 0.54301 0.98614 0.0
C5826 C 0.93514 0.52458 0.9802 0.0
C5827 C 0.94021 0.51862 0.9627 0.0
H5828 H 0.93326 0.54759 0.9995 0.0
H5829 H 0.97262 0.49136 0.82486 0.0
H5830 H 0.29595 0.19066 0.56741 0.0
H5831 H 0.30043 0.20299 0.60124 0.0
H5832 H 0.2466 0.21268 0.59661 0.0
H5833 H 0.24247 0.20125 0.56301 0.0
H5834 H 0.26698 0.24107 0.61351 0.0
H5835 H 0.26262 0.1774 0.62091 0.0
H5836 H 0.27187 0.14794 0.61705 0.0
H5837 H 0.32398 0.17179 0.64511 0.0
H5838 H 0.31509 0.20142 0.64892 0.0
H5839 H 0.25253 0.26133 0.70858 0.0
H5840 H 0.25195 0.24809 0.67604 0.0
H5841 H 0.30515 0.23827 0.68939 0.0
H5842 H 0.3049 0.25011 0.72255 0.0
H5843 H 0.28847 0.21139 0.66793 0.0
H5844 H 0.29315 0.27443 0.66225 0.0
H5845 H 0.28447 0.3041 0.66706 0.0
H5846 H 0.23316 0.28236 0.6359 0.0
H5847 H 0.24145 0.25251 0.6311 0.0
C5848 C 0.28505 0.19522 0.57376 0.0
C5849 C 0.26891 0.19512 0.56254 0.0
C5850 C 0.28759 0.20225 0.59312 0.0
C5851 C 0.27385 0.20886 0.60164 0.0
C5852 C 0.25752 0.20794 0.59048 0.0
C5853 C 0.25513 0.20131 0.57123 0.0
C5854 C 0.27635 0.21755 0.6218 0.0
C5855 C 0.27153 0.23445 0.6254 0.0
C5856 C 0.28295 0.20942 0.63743 0.0
C5857 C 0.28826 0.19163 0.63498 0.0
C5858 C 0.27609 0.17637 0.6261 0.0
C5859 C 0.28126 0.15964 0.62395 0.0
C5860 C 0.29852 0.158 0.63077 0.0
C5861 C 0.31063 0.17308 0.63979 0.0
C5862 C 0.30553 0.18983 0.64195 0.0
C5863 C 0.264 0.2563 0.7047 0.0
C5864 C 0.27857 0.25667 0.71833 0.0
C5865 C 0.26382 0.24888 0.68587 0.0
C5866 C 0.27868 0.24244 0.67989 0.0
C5867 C 0.29345 0.24306 0.69347 0.0
C5868 C 0.29332 0.24992 0.71246 0.0
C5869 C 0.27865 0.2347 0.65967 0.0
C5870 C 0.28403 0.21808 0.65605 0.0
C5871 C 0.27271 0.24316 0.64397 0.0
C5872 C 0.26789 0.26122 0.64641 0.0
C5873 C 0.28 0.27597 0.65646 0.0
C5874 C 0.27515 0.29282 0.6592 0.0
C5875 C 0.25826 0.2951 0.65182 0.0
C5876 C 0.24623 0.28057 0.64161 0.0
C5877 C 0.25101 0.2637 0.63885 0.0
H5878 H 0.25451 0.30814 0.654 0.0
H5879 H 0.30249 0.14504 0.6291 0.0
H5880 H 0.63494 0.53457 0.22481 0.0
H5881 H 0.6239 0.53135 0.19072 0.0
H5882 H 0.57194 0.53783 0.20485 0.0
H5883 H 0.58269 0.54082 0.23852 0.0
H5884 H 0.5685 0.51246 0.17559 0.0
H5885 H 0.60252 0.57292 0.19266 0.0
H5886 H 0.62948 0.59554 0.20474 0.0
H5887 H 0.65752 0.57424 0.16121 0.0
H5888 H 0.6308 0.5513 0.14907 0.0
H5889 H 0.53013 0.54004 0.08958 0.0
H5890 H 0.54251 0.54019 0.1229 0.0
H5891 H 0.59174 0.52962 0.10429 0.0
H5892 H 0.57953 0.52924 0.07127 0.0
H5893 H 0.59756 0.55569 0.13501 0.0
H5894 H 0.56417 0.49645 0.11679 0.0
H5895 H 0.53794 0.47312 0.10425 0.0
H5896 H 0.50952 0.49091 0.14927 0.0
H5897 H 0.53549 0.51462 0.16186 0.0
C5898 C 0.62111 0.53507 0.22062 0.0
C5899 C 0.60978 0.53815 0.23449 0.0
C5900 C 0.61483 0.53334 0.20111 0.0
C5901 C 0.59709 0.5346 0.19511 0.0
C5902 C 0.58566 0.53686 0.20898 0.0
C5903 C 0.5919 0.53867 0.22833 0.0
C5904 C 0.59036 0.53431 0.17456 0.0
C5905 C 0.57478 0.52204 0.1668 0.0
C5906 C 0.5987 0.54649 0.16281 0.0
C5907 C 0.61474 0.56027 0.17011 0.0
C5908 C 0.61449 0.57297 0.18577 0.0
C5909 C 0.62971 0.58586 0.19262 0.0
C5910 C 0.64522 0.5863 0.18379 0.0
C5911 C 0.64552 0.57386 0.16807 0.0
C5912 C 0.63034 0.56091 0.1612 0.0
C5913 C 0.54362 0.53787 0.09263 0.0
C5914 C 0.55375 0.53448 0.07771 0.0
C5915 C 0.55066 0.53787 0.11166 0.0
C5916 C 0.56804 0.53474 0.11613 0.0
C5917 C 0.57833 0.53201 0.10127 0.0
C5918 C 0.57125 0.53174 0.08234 0.0
C5919 C 0.57556 0.53406 0.13619 0.0
C5920 C 0.59129 0.54611 0.14382 0.0
C5921 C 0.56743 0.5216 0.14776 0.0
C5922 C 0.55171 0.50748 0.14012 0.0
C5923 C 0.55226 0.49554 0.12389 0.0
C5924 C 0.53745 0.48221 0.1168 0.0
C5925 C 0.52206 0.48056 0.12593 0.0
C5926 C 0.52145 0.49223 0.14218 0.0
C5927 C 0.53621 0.50563 0.1493 0.0
H5928 H 0.51062 0.47021 0.12045 0.0
H5929 H 0.65699 0.5963 0.1891 0.0
H5930 H 0.29915 0.92542 0.93592 0.0
H5931 H 0.30024 0.90714 0.90565 0.0
H5932 H 0.2807 0.85895 0.9307 0.0
H5933 H 0.28007 0.87676 0.96057 0.0
H5934 H 0.30827 0.85533 0.91101 0.0
H5935 H 0.25274 0.88077 0.90374 0.0
H5936 H 0.23775 0.90677 0.90166 0.0
H5937 H 0.26719 0.92288 0.85587 0.0
H5938 H 0.28246 0.89707 0.85785 0.0
H5939 H 0.27714 0.78509 0.8392 0.0
H5940 H 0.27736 0.80657 0.86679 0.0
H5941 H 0.28035 0.84931 0.83057 0.0
H5942 H 0.276 0.82741 0.8033 0.0
H5943 H 0.26552 0.85904 0.85525 0.0
H5944 H 0.31968 0.83285 0.85934 0.0
H5945 H 0.3353 0.80723 0.86088 0.0
H5946 H 0.31183 0.79402 0.91133 0.0
H5947 H 0.29597 0.81943 0.90996 0.0
C5948 C 0.29515 0.91092 0.93478 0.0
C5949 C 0.28957 0.90236 0.95034 0.0
C5950 C 0.29584 0.90059 0.91768 0.0
C5951 C 0.29064 0.88182 0.91621 0.0
C5952 C 0.28501 0.87342 0.93177 0.0
C5953 C 0.28456 0.88361 0.94875 0.0
C5954 C 0.28997 0.87046 0.89838 0.0
C5955 C 0.29917 0.85617 0.89858 0.0
C5956 C 0.27827 0.87189 0.88234 0.0
C5957 C 0.26883 0.88715 0.88107 0.0
C5958 C 0.25604 0.88992 0.8933 0.0
C5959 C 0.24751 0.90461 0.89213 0.0
C5960 C 0.25155 0.9165 0.87868 0.0
C5961 C 0.2641 0.91369 0.86631 0.0
C5962 C 0.27268 0.89904 0.86744 0.0
C5963 C 0.27746 0.79897 0.83712 0.0
C5964 C 0.27747 0.8047 0.81897 0.0
C5965 C 0.27792 0.81135 0.85297 0.0
C5966 C 0.28006 0.82977 0.85096 0.0
C5967 C 0.27899 0.83524 0.83273 0.0
C5968 C 0.27686 0.82267 0.81695 0.0
C5969 C 0.2839 0.84357 0.86755 0.0
C5970 C 0.27519 0.8583 0.8672 0.0
C5971 C 0.29643 0.84273 0.88328 0.0
C5972 C 0.30662 0.82798 0.8845 0.0
C5973 C 0.31792 0.8245 0.87078 0.0
C5974 C 0.32677 0.80999 0.8716 0.0
C5975 C 0.32455 0.799 0.88619 0.0
C5976 C 0.31355 0.80254 0.90005 0.0
C5977 C 0.30466 0.81701 0.89928 0.0
H5978 H 0.33135 0.78774 0.88675 0.0
H5979 H 0.24495 0.92788 0.87781 0.0
H5980 H 0.89034 0.51588 0.73966 0.0
H5981 H 0.89949 0.51962 0.70794 0.0
H5982 H 0.95423 0.52209 0.73045 0.0
H5983 H 0.94537 0.51841 0.76186 0.0
H5984 H 0.95032 0.54819 0.70725 0.0
H5985 H 0.93122 0.48425 0.70945 0.0
H5986 H 0.91039 0.45611 0.7119 0.0
H5987 H 0.87619 0.4657 0.66401 0.0
H5988 H 0.89672 0.4941 0.66149 0.0
H5989 H 1.00295 0.50514 0.65042 0.0
H5990 H 0.98528 0.51812 0.67294 0.0
H5991 H 0.9432 0.51643 0.62751 0.0
H5992 H 0.96055 0.50316 0.60504 0.0
H5993 H 0.93341 0.49687 0.65633 0.0
H5994 H 0.96207 0.5567 0.65033 0.0
H5995 H 0.98692 0.58187 0.6491 0.0
H5996 H 1.00801 0.57663 0.70606 0.0
H5997 H 0.98347 0.55127 0.70756 0.0
C5998 C 0.90432 0.51733 0.7378 0.0
C5999 C 0.91716 0.51675 0.75315 0.0
C6000 C 0.90948 0.51948 0.71976 0.0
C6001 C 0.92748 0.52123 0.71707 0.0
C6002 C 0.94028 0.52093 0.73241 0.0
C6003 C 0.93517 0.51864 0.75028 0.0
C6004 C 0.93335 0.52243 0.69819 0.0
C6005 C 0.94657 0.5371 0.69595 0.0
C6006 C 0.92803 0.50808 0.68347 0.0
C6007 C 0.91526 0.49151 0.68558 0.0
C6008 C 0.91909 0.48054 0.69968 0.0
C6009 C 0.90739 0.46449 0.70102 0.0
C6010 C 0.89191 0.45918 0.6882 0.0
C6011 C 0.88812 0.4699 0.67401 0.0
C6012 C 0.89976 0.48598 0.67264 0.0
C6013 C 0.99 0.5077 0.64526 0.0
C6014 C 0.98298 0.50292 0.62613 0.0
C6015 C 0.9801 0.51543 0.658 0.0
C6016 C 0.9631 0.51843 0.65171 0.0
C6017 C 0.95642 0.51442 0.63247 0.0
C6018 C 0.9663 0.50675 0.61974 0.0
C6019 C 0.95115 0.52218 0.66579 0.0
C6020 C 0.93667 0.50843 0.66713 0.0
C6021 C 0.95585 0.53702 0.68001 0.0
C6022 C 0.97089 0.55204 0.67903 0.0
C6023 C 0.97208 0.56081 0.66254 0.0
C6024 C 0.98611 0.57514 0.66181 0.0
C6025 C 0.99903 0.58085 0.67749 0.0
C6026 C 0.99798 0.57222 0.69393 0.0
C6027 C 0.98399 0.55788 0.69473 0.0
H6028 H 0.00985 0.59198 0.67691 0.0
H6029 H 0.88291 0.44671 0.6892 0.0
H6030 H 0.27394 0.21268 0.47327 0.0
H6031 H 0.27718 0.22657 0.44397 0.0
H6032 H 0.26785 0.17403 0.41177 0.0
H6033 H 0.26542 0.16003 0.44132 0.0
H6034 H 0.29399 0.19559 0.3988 0.0
H6035 H 0.23467 0.20269 0.41476 0.0
H6036 H 0.21443 0.2132 0.43636 0.0
H6037 H 0.24363 0.26732 0.43971 0.0
H6038 H 0.26412 0.25711 0.41829 0.0
H6039 H 0.28282 0.22502 0.30767 0.0
H6040 H 0.27898 0.21025 0.33631 0.0
H6041 H 0.27714 0.26117 0.36789 0.0
H6042 H 0.27749 0.27507 0.33874 0.0
H6043 H 0.25697 0.24009 0.3816 0.0
H6044 H 0.31688 0.23653 0.36982 0.0
H6045 H 0.33752 0.23015 0.34672 0.0
H6046 H 0.31141 0.17467 0.33744 0.0
H6047 H 0.29059 0.18074 0.3605 0.0
C6048 C 0.27243 0.20405 0.45994 0.0
C6049 C 0.26921 0.18522 0.45964 0.0
C6050 C 0.27425 0.21204 0.44312 0.0
C6051 C 0.27242 0.20141 0.42546 0.0
C6052 C 0.26927 0.18258 0.42514 0.0
C6053 C 0.26774 0.17457 0.44204 0.0
C6054 C 0.27372 0.20991 0.40737 0.0
C6055 C 0.28578 0.20521 0.39498 0.0
C6056 C 0.26356 0.223 0.40251 0.0
C6057 C 0.25094 0.22912 0.415 0.0
C6058 C 0.23677 0.21682 0.42013 0.0
C6059 C 0.22527 0.22273 0.43235 0.0
C6060 C 0.22776 0.24091 0.43942 0.0
C6061 C 0.24171 0.25325 0.43423 0.0
C6062 C 0.25325 0.24741 0.42203 0.0
C6063 C 0.28164 0.23309 0.32073 0.0
C6064 C 0.28131 0.25153 0.32087 0.0
C6065 C 0.27969 0.22463 0.33731 0.0
C6066 C 0.27857 0.23459 0.3548 0.0
C6067 C 0.2782 0.25301 0.35486 0.0
C6068 C 0.279 0.26118 0.3381 0.0
C6069 C 0.27738 0.22597 0.37295 0.0
C6070 C 0.26534 0.2306 0.38538 0.0
C6071 C 0.28807 0.2134 0.37821 0.0
C6072 C 0.30213 0.20911 0.36672 0.0
C6073 C 0.31573 0.22292 0.36305 0.0
C6074 C 0.32738 0.21938 0.3499 0.0
C6075 C 0.32562 0.20208 0.34046 0.0
C6076 C 0.31267 0.1881 0.34469 0.0
C6077 C 0.301 0.19155 0.35789 0.0
H6078 H 0.33425 0.19956 0.32979 0.0
H6079 H 0.21886 0.24544 0.4489 0.0
H6080 H 0.29801 0.58218 0.53983 0.0
H6081 H 0.32495 0.56964 0.53887 0.0
H6082 H 0.35603 0.6192 0.56879 0.0
H6083 H 0.32913 0.63217 0.56868 0.0
H6084 H 0.3675 0.61133 0.5364 0.0
H6085 H 0.3512 0.57735 0.58817 0.0
H6086 H 0.32935 0.55759 0.60368 0.0
H6087 H 0.32381 0.51618 0.55677 0.0
H6088 H 0.34544 0.53579 0.54085 0.0
H6089 H 0.44757 0.58198 0.52811 0.0
H6090 H 0.42316 0.58948 0.54528 0.0
H6091 H 0.38621 0.54693 0.50975 0.0
H6092 H 0.41066 0.53948 0.49258 0.0
H6093 H 0.37952 0.55126 0.54899 0.0
H6094 H 0.38822 0.58363 0.49516 0.0
H6095 H 0.40609 0.60188 0.47454 0.0
H6096 H 0.42183 0.64461 0.52043 0.0
H6097 H 0.40431 0.62639 0.54147 0.0
C6098 C 0.3105 0.59011 0.54682 0.0
C6099 C 0.3117 0.60806 0.55427 0.0
C6100 C 0.32587 0.58293 0.54635 0.0
C6101 C 0.34243 0.59347 0.55394 0.0
C6102 C 0.34333 0.6109 0.56292 0.0
C6103 C 0.32803 0.61824 0.56291 0.0
C6104 C 0.3589 0.58744 0.54977 0.0
C6105 C 0.37042 0.59845 0.53975 0.0
C6106 C 0.36211 0.57024 0.55324 0.0
C6107 C 0.34998 0.55803 0.56335 0.0
C6108 C 0.34536 0.56401 0.58119 0.0
C6109 C 0.33298 0.55285 0.59003 0.0
C6110 C 0.32521 0.53563 0.58123 0.0
C6111 C 0.32988 0.5295 0.5636 0.0
C6112 C 0.34225 0.54061 0.55469 0.0
C6113 C 0.43419 0.57435 0.52406 0.0
C6114 C 0.43056 0.5607 0.50877 0.0
C6115 C 0.42043 0.57839 0.53397 0.0
C6116 C 0.40304 0.56873 0.52863 0.0
C6117 C 0.39963 0.5544 0.51403 0.0
C6118 C 0.41339 0.55041 0.50406 0.0
C6119 C 0.38812 0.57538 0.53618 0.0
C6120 C 0.37685 0.56442 0.54643 0.0
C6121 C 0.38477 0.59245 0.53254 0.0
C6122 C 0.39516 0.60357 0.51994 0.0
C6123 C 0.39564 0.59685 0.50091 0.0
C6124 C 0.40568 0.60718 0.48914 0.0
C6125 C 0.41512 0.62436 0.49617 0.0
C6126 C 0.41454 0.63126 0.51501 0.0
C6127 C 0.40456 0.62094 0.52687 0.0
H6128 H 0.42279 0.63232 0.48695 0.0
H6129 H 0.31556 0.52705 0.58806 0.0
H6130 H 0.85886 0.90619 0.55998 0.0
H6131 H 0.88663 0.92829 0.56103 0.0
H6132 H 0.86896 0.94144 0.50552 0.0
H6133 H 0.84105 0.91959 0.50469 0.0
H6134 H 0.9028 0.93299 0.50811 0.0
H6135 H 0.87111 0.97136 0.54306 0.0
H6136 H 0.85391 0.98081 0.56842 0.0
H6137 H 0.89674 0.97756 0.61075 0.0
H6138 H 0.9141 0.9678 0.58564 0.0
H6139 H 0.97063 0.01003 0.50426 0.0
H6140 H 0.94142 0.99135 0.50583 0.0
H6141 H 0.96178 0.97323 0.55773 0.0
H6142 H 0.99125 0.99141 0.55588 0.0
H6143 H 0.92672 0.98464 0.55746 0.0
H6144 H 0.95785 0.94532 0.52408 0.0
H6145 H 0.97527 0.93422 0.49978 0.0
H6146 H 0.93406 0.93785 0.45576 0.0
H6147 H 0.91651 0.94932 0.4798 0.0
C6148 C 0.86085 0.91406 0.54819 0.0
C6149 C 0.84791 0.91131 0.53228 0.0
C6150 C 0.87666 0.92668 0.5488 0.0
C6151 C 0.87988 0.93657 0.53337 0.0
C6152 C 0.86675 0.93401 0.5176 0.0
C6153 C 0.85082 0.9216 0.51714 0.0
C6154 C 0.89743 0.94855 0.53308 0.0
C6155 C 0.90787 0.94449 0.51871 0.0
C6156 C 0.90437 0.96314 0.54732 0.0
C6157 C 0.89381 0.96861 0.56247 0.0
C6158 C 0.87677 0.97243 0.55778 0.0
C6159 C 0.86702 0.9779 0.57211 0.0
C6160 C 0.8742 0.97973 0.59119 0.0
C6161 C 0.89117 0.9761 0.59597 0.0
C6162 C 0.90098 0.9706 0.58169 0.0
C6163 C 0.96883 1.00221 0.51611 0.0
C6164 C 0.9832 1.0022 0.52998 0.0
C6165 C 0.95218 0.99148 0.51692 0.0
C6166 C 0.94946 0.98088 0.53186 0.0
C6167 C 0.96362 0.98131 0.54609 0.0
C6168 C 0.98042 0.99167 0.545 0.0
C6169 C 0.9319 0.96914 0.5324 0.0
C6170 C 0.92154 0.97321 0.54681 0.0
C6171 C 0.92508 0.95442 0.51833 0.0
C6172 C 0.93597 0.94842 0.50374 0.0
C6173 C 0.95262 0.94404 0.50921 0.0
C6174 C 0.96246 0.93756 0.49549 0.0
C6175 C 0.95573 0.93525 0.47625 0.0
C6176 C 0.93922 0.93959 0.47067 0.0
C6177 C 0.92933 0.94611 0.48434 0.0
H6178 H 0.96336 0.93019 0.46565 0.0
H6179 H 0.86664 0.98401 0.60226 0.0
H6180 H 0.87604 0.04523 0.26943 0.0
H6181 H 0.86133 0.07105 0.27204 0.0
H6182 H 0.90688 0.10406 0.25364 0.0
H6183 H 0.92227 0.07842 0.25276 0.0
H6184 H 0.89683 0.12277 0.27927 0.0
H6185 H 0.86325 0.08623 0.22412 0.0
H6186 H 0.84592 0.05818 0.20611 0.0
H6187 H 0.8066 0.05683 0.24514 0.0
H6188 H 0.82379 0.08477 0.26349 0.0
H6189 H 0.85451 0.19562 0.26676 0.0
H6190 H 0.86627 0.16854 0.25769 0.0
H6191 H 0.82674 0.13719 0.28632 0.0
H6192 H 0.81456 0.1643 0.29482 0.0
H6193 H 0.83343 0.11808 0.25401 0.0
H6194 H 0.86856 0.15466 0.30933 0.0
H6195 H 0.88593 0.18327 0.32612 0.0
H6196 H 0.92268 0.18505 0.28429 0.0
H6197 H 0.90541 0.15655 0.26714 0.0
C6198 C 0.88282 0.05797 0.26576 0.0
C6199 C 0.90017 0.05983 0.26064 0.0
C6200 C 0.87434 0.07274 0.26711 0.0
C6201 C 0.88268 0.08951 0.26245 0.0
C6202 C 0.90005 0.0913 0.25721 0.0
C6203 C 0.90882 0.07665 0.25658 0.0
C6204 C 0.87356 0.10528 0.2638 0.0
C6205 C 0.88307 0.12174 0.27338 0.0
C6206 C 0.85544 0.10405 0.25654 0.0
C6207 C 0.84485 0.08753 0.24522 0.0
C6208 C 0.85092 0.07992 0.22887 0.0
C6209 C 0.84113 0.06404 0.21861 0.0
C6210 C 0.82519 0.05571 0.22449 0.0
C6211 C 0.81895 0.0633 0.2406 0.0
C6212 C 0.82869 0.07917 0.25091 0.0
C6213 C 0.8481 0.18284 0.27067 0.0
C6214 C 0.83373 0.18193 0.28148 0.0
C6215 C 0.85486 0.16742 0.26561 0.0
C6216 C 0.84766 0.15094 0.27174 0.0
C6217 C 0.83255 0.14979 0.28154 0.0
C6218 C 0.8256 0.16522 0.28637 0.0
C6219 C 0.85678 0.13536 0.26927 0.0
C6220 C 0.84725 0.11901 0.25963 0.0
C6221 C 0.87494 0.13673 0.27623 0.0
C6222 C 0.88565 0.15354 0.28691 0.0
C6223 C 0.88033 0.16117 0.30371 0.0
C6224 C 0.89015 0.17737 0.31328 0.0
C6225 C 0.90539 0.18598 0.30627 0.0
C6226 C 0.91088 0.17837 0.28971 0.0
C6227 C 0.9011 0.16218 0.28008 0.0
H6228 H 0.91295 0.19854 0.31367 0.0
H6229 H 0.81765 0.0434 0.21656 0.0
H6230 H 0.7085 0.11903 0.99783 0.0
H6231 H 0.67877 0.10122 0.99859 0.0
H6232 H 0.69609 0.0854 0.05308 0.0
H6233 H 0.72599 0.10207 0.05168 0.0
H6234 H 0.6741 0.05923 0.03509 0.0
H6235 H 0.67343 0.12113 0.0498 0.0
H6236 H 0.67866 0.15354 0.04628 0.0
H6237 H 0.64416 0.14288 0.99354 0.0
H6238 H 0.63886 0.11038 0.99666 0.0
H6239 H 0.58359 0.04382 0.05876 0.0
H6240 H 0.61479 0.05859 0.05952 0.0
H6241 H 0.60821 0.05544 0.99821 0.0
H6242 H 0.57747 0.03966 0.99744 0.0
H6243 H 0.62433 0.09184 0.02297 0.0
H6244 H 0.62776 0.02724 0.01144 0.0
H6245 H 0.62049 0.99679 0.02127 0.0
H6246 H 0.64888 0.01598 0.07663 0.0
H6247 H 0.65613 0.0466 0.06714 0.0
C6248 C 0.70595 0.11136 0.00967 0.0
C6249 C 0.7193 0.11182 0.02467 0.0
C6250 C 0.68904 0.10138 0.01022 0.0
C6251 C 0.6852 0.09247 0.02616 0.0
C6252 C 0.69881 0.09222 0.04069 0.0
C6253 C 0.71584 0.10171 0.03985 0.0
C6254 C 0.66681 0.08423 0.02813 0.0
C6255 C 0.66328 0.06645 0.0326 0.0
C6256 C 0.65274 0.09379 0.02536 0.0
C6257 C 0.65588 0.11332 0.02337 0.0
C6258 C 0.66706 0.12569 0.03738 0.0
C6259 C 0.67001 0.14408 0.03548 0.0
C6260 C 0.66178 0.15026 0.01967 0.0
C6261 C 0.65054 0.13807 0.00576 0.0
C6262 C 0.64753 0.11967 0.00761 0.0
C6263 C 0.58896 0.04615 0.04551 0.0
C6264 C 0.5783 0.04108 0.028 0.0
C6265 C 0.60657 0.05465 0.04597 0.0
C6266 C 0.61341 0.05817 0.02892 0.0
C6267 C 0.60282 0.05298 0.01144 0.0
C6268 C 0.58533 0.04422 0.01099 0.0
C6269 C 0.63185 0.06692 0.0292 0.0
C6270 C 0.63529 0.08479 0.02539 0.0
C6271 C 0.64585 0.05773 0.03336 0.0
C6272 C 0.64246 0.03915 0.0386 0.0
C6273 C 0.63246 0.02494 0.02569 0.0
C6274 C 0.62832 0.00767 0.03121 0.0
C6275 C 0.63421 1.00445 0.04957 0.0
C6276 C 0.64435 0.01848 0.0624 0.0
C6277 C 0.64851 0.03578 0.05695 0.0
H6278 H 0.63092 0.9911 0.05385 0.0
H6279 H 0.66409 0.1645 0.01822 0.0
H6280 H 0.17162 0.47726 0.23807 0.0
H6281 H 0.18508 0.45066 0.23877 0.0
H6282 H 0.23743 0.4842 0.24672 0.0
H6283 H 0.22404 0.51106 0.24605 0.0
H6284 H 0.23462 0.4505 0.22407 0.0
H6285 H 0.22132 0.47555 0.28426 0.0
H6286 H 0.20319 0.48714 0.30757 0.0
H6287 H 0.16717 0.43621 0.29993 0.0
H6288 H 0.18492 0.4244 0.27629 0.0
H6289 H 0.28215 0.40512 0.28992 0.0
H6290 H 0.2687 0.42501 0.27014 0.0
H6291 H 0.21956 0.38599 0.26006 0.0
H6292 H 0.2332 0.36587 0.27939 0.0
H6293 H 0.21936 0.42056 0.2809 0.0
H6294 H 0.23625 0.39513 0.22266 0.0
H6295 H 0.25636 0.38478 0.20087 0.0
H6296 H 0.2884 0.43788 0.20764 0.0
H6297 H 0.26858 0.4485 0.22963 0.0
C6298 C 0.186 0.47894 0.23939 0.0
C6299 C 0.19687 0.4961 0.24238 0.0
C6300 C 0.19361 0.46378 0.23977 0.0
C6301 C 0.21211 0.46571 0.24316 0.0
C6302 C 0.22308 0.48267 0.24414 0.0
C6303 C 0.21545 0.49791 0.24375 0.0
C6304 C 0.21976 0.45035 0.24819 0.0
C6305 C 0.23142 0.44394 0.23651 0.0
C6306 C 0.21529 0.44194 0.26439 0.0
C6307 C 0.20429 0.44919 0.27823 0.0
C6308 C 0.20938 0.4669 0.28731 0.0
C6309 C 0.19921 0.4735 0.30065 0.0
C6310 C 0.18399 0.46245 0.30516 0.0
C6311 C 0.17892 0.44477 0.29636 0.0
C6312 C 0.18903 0.43813 0.28298 0.0
C6313 C 0.26862 0.40075 0.28309 0.0
C6314 C 0.25842 0.38439 0.28633 0.0
C6315 C 0.26107 0.4119 0.27167 0.0
C6316 C 0.24326 0.40677 0.26368 0.0
C6317 C 0.2334 0.38993 0.26602 0.0
C6318 C 0.24106 0.37864 0.27717 0.0
C6319 C 0.23407 0.42046 0.25662 0.0
C6320 C 0.22228 0.42681 0.26818 0.0
C6321 C 0.23876 0.42901 0.24061 0.0
C6322 C 0.25102 0.42255 0.22792 0.0
C6323 C 0.24771 0.40454 0.21968 0.0
C6324 C 0.25902 0.39865 0.20724 0.0
C6325 C 0.27368 0.41065 0.2029 0.0
C6326 C 0.27706 0.42859 0.21102 0.0
C6327 C 0.26578 0.43456 0.22345 0.0
H6328 H 0.28239 0.40607 0.19323 0.0
H6329 H 0.17616 0.46756 0.31553 0.0
H6330 H 0.2327 0.38583 0.02207 0.0
H6331 H 0.20666 0.40022 0.0205 0.0
H6332 H 0.23856 0.44902 0.05083 0.0
H6333 H 0.2647 0.43468 0.05252 0.0
H6334 H 0.20605 0.4417 0.06338 0.0
H6335 H 0.22902 0.44574 0.00357 0.0
H6336 H 0.23939 0.43512 0.97354 0.0
H6337 H 0.18814 0.40153 0.95584 0.0
H6338 H 0.17754 0.41175 0.9859 0.0
H6339 H 0.15079 0.50329 0.03337 0.0
H6340 H 0.17379 0.48628 0.04295 0.0
H6341 H 0.1422 0.43819 0.01076 0.0
H6342 H 0.11946 0.45534 0.00091 0.0
H6343 H 0.17438 0.44484 0.99992 0.0
H6344 H 0.15127 0.4426 0.06029 0.0
H6345 H 0.14139 0.45575 0.08955 0.0
H6346 H 0.19354 0.488 0.10557 0.0
H6347 H 0.20369 0.47525 0.07629 0.0
C6348 C 0.23414 0.39955 0.02862 0.0
C6349 C 0.25078 0.40912 0.0374 0.0
C6350 C 0.21926 0.40779 0.0276 0.0
C6351 C 0.22071 0.42577 0.03534 0.0
C6352 C 0.23715 0.43515 0.04473 0.0
C6353 C 0.25207 0.42694 0.04567 0.0
C6354 C 0.2052 0.4349 0.03315 0.0
C6355 C 0.19919 0.44251 0.0495 0.0
C6356 C 0.19612 0.43579 0.01505 0.0
C6357 C 0.20256 0.42933 0.99711 0.0
C6358 C 0.22003 0.43592 0.99338 0.0
C6359 C 0.22593 0.43001 0.97633 0.0
C6360 C 0.21445 0.4176 0.96282 0.0
C6361 C 0.19703 0.4111 0.96633 0.0
C6362 C 0.19107 0.41695 0.98338 0.0
C6363 C 0.14848 0.48893 0.02908 0.0
C6364 C 0.13333 0.48051 0.01667 0.0
C6365 C 0.16164 0.47922 0.03445 0.0
C6366 C 0.15976 0.46093 0.02755 0.0
C6367 C 0.14398 0.45227 0.01624 0.0
C6368 C 0.1309 0.46199 0.0108 0.0
C6369 C 0.17496 0.45138 0.03017 0.0
C6370 C 0.18104 0.44382 0.01384 0.0
C6371 C 0.18416 0.45069 0.04825 0.0
C6372 C 0.17819 0.45809 0.06603 0.0
C6373 C 0.1606 0.45257 0.07 0.0
C6374 C 0.15496 0.45994 0.08659 0.0
C6375 C 0.16682 0.47275 0.09934 0.0
C6376 C 0.18438 0.47811 0.09564 0.0
C6377 C 0.19008 0.4708 0.07907 0.0
H6378 H 0.16242 0.47855 0.11206 0.0
H6379 H 0.21903 0.41307 0.94961 0.0
H6380 H 0.88051 0.97593 0.26536 0.0
H6381 H 0.85799 0.94845 0.26412 0.0
H6382 H 0.89897 0.91653 0.26206 0.0
H6383 H 0.92152 0.94382 0.26339 0.0
H6384 H 0.86934 0.90284 0.23574 0.0
H6385 H 0.8826 0.92477 0.30267 0.0
H6386 H 0.88523 0.94749 0.3305 0.0
H6387 H 0.8296 0.94898 0.31947 0.0
H6388 H 0.82671 0.92646 0.29138 0.0
H6389 H 0.82931 0.8184 0.25535 0.0
H6390 H 0.84756 0.84746 0.25488 0.0
H6391 H 0.80524 0.87318 0.27273 0.0
H6392 H 0.78766 0.84371 0.27609 0.0
H6393 H 0.83317 0.89186 0.28896 0.0
H6394 H 0.81916 0.86825 0.22282 0.0
H6395 H 0.81676 0.84576 0.1948 0.0
H6396 H 0.87322 0.84789 0.20315 0.0
H6397 H 0.87594 0.87021 0.23134 0.0
C6398 C 0.88473 0.96306 0.26458 0.0
C6399 C 0.90287 0.96211 0.26457 0.0
C6400 C 0.87184 0.94737 0.26394 0.0
C6401 C 0.87682 0.93045 0.26313 0.0
C6402 C 0.89483 0.92945 0.26271 0.0
C6403 C 0.90772 0.94509 0.26356 0.0
C6404 C 0.86339 0.91369 0.26288 0.0
C6405 C 0.86145 0.90036 0.24738 0.0
C6406 C 0.85277 0.91069 0.27783 0.0
C6407 C 0.85448 0.9241 0.29481 0.0
C6408 C 0.87096 0.93005 0.30609 0.0
C6409 C 0.8725 0.94288 0.32193 0.0
C6410 C 0.8576 0.94972 0.32672 0.0
C6411 C 0.84113 0.9437 0.31572 0.0
C6412 C 0.83954 0.9309 0.29985 0.0
C6413 C 0.82366 0.83013 0.2592 0.0
C6414 C 0.80663 0.82845 0.26542 0.0
C6415 C 0.83417 0.84693 0.25859 0.0
C6416 C 0.82763 0.86274 0.26287 0.0
C6417 C 0.81058 0.86124 0.26899 0.0
C6418 C 0.80032 0.84429 0.27057 0.0
C6419 C 0.83902 0.88069 0.26175 0.0
C6420 C 0.8407 0.89431 0.27705 0.0
C6421 C 0.84933 0.88403 0.24646 0.0
C6422 C 0.84773 0.87087 0.22924 0.0
C6423 C 0.83105 0.8639 0.2187 0.0
C6424 C 0.82964 0.85117 0.20279 0.0
C6425 C 0.84482 0.84539 0.19721 0.0
C6426 C 0.86147 0.85238 0.20748 0.0
C6427 C 0.86296 0.8651 0.2234 0.0
H6428 H 0.84369 0.83552 0.18491 0.0
H6429 H 0.85881 0.95965 0.33898 0.0
H6430 H 0.67194 0.10917 0.77328 0.0
H6431 H 0.69179 0.13812 0.7741 0.0
H6432 H 0.73402 0.11123 0.75829 0.0
H6433 H 0.71446 0.08217 0.75764 0.0
H6434 H 0.74478 0.13868 0.78774 0.0
H6435 H 0.71342 0.12906 0.72506 0.0
H6436 H 0.68716 0.12129 0.70084 0.0
H6437 H 0.66625 0.16591 0.72506 0.0
H6438 H 0.69224 0.1738 0.74961 0.0
H6439 H 0.79306 0.22385 0.76791 0.0
H6440 H 0.77943 0.19217 0.76711 0.0
H6441 H 0.73015 0.20741 0.78042 0.0
H6442 H 0.74323 0.23885 0.78014 0.0
H6443 H 0.7263 0.18401 0.74818 0.0
H6444 H 0.75517 0.19072 0.81331 0.0
H6445 H 0.78152 0.19915 0.83742 0.0
H6446 H 0.80703 0.16067 0.80805 0.0
H6447 H 0.78088 0.15214 0.78368 0.0
C6448 C 0.68546 0.10939 0.77009 0.0
C6449 C 0.69161 0.09345 0.7653 0.0
C6450 C 0.69671 0.12588 0.77047 0.0
C6451 C 0.71412 0.12656 0.76592 0.0
C6452 C 0.72053 0.11076 0.76171 0.0
C6453 C 0.70932 0.09425 0.76138 0.0
C6454 C 0.72561 0.14395 0.76573 0.0
C6455 C 0.74097 0.14854 0.77888 0.0
C6456 C 0.7204 0.15659 0.75412 0.0
C6457 C 0.70476 0.15195 0.73927 0.0
C6458 C 0.70317 0.13714 0.72532 0.0
C6459 C 0.68833 0.13273 0.71151 0.0
C6460 C 0.67503 0.14308 0.71143 0.0
C6461 C 0.67656 0.1579 0.72514 0.0
C6462 C 0.69136 0.16236 0.73899 0.0
C6463 C 0.77943 0.22041 0.77105 0.0
C6464 C 0.76916 0.2337 0.77418 0.0
C6465 C 0.77173 0.20241 0.77062 0.0
C6466 C 0.75388 0.19771 0.77367 0.0
C6467 C 0.74398 0.21099 0.77801 0.0
C6468 C 0.75155 0.22892 0.77814 0.0
C6469 C 0.74492 0.17895 0.77084 0.0
C6470 C 0.73019 0.17407 0.75689 0.0
C6471 C 0.75067 0.16609 0.78172 0.0
C6472 C 0.76614 0.17086 0.79665 0.0
C6473 C 0.76643 0.1841 0.81198 0.0
C6474 C 0.78131 0.18889 0.82569 0.0
C6475 C 0.79594 0.18046 0.82425 0.0
C6476 C 0.79569 0.16718 0.80915 0.0
C6477 C 0.78083 0.16233 0.79541 0.0
H6478 H 0.80747 0.1842 0.83486 0.0
H6479 H 0.66355 0.13962 0.70074 0.0
loop_
_geom_bond_atom_site_label_1
_geom_bond_atom_site_label_2
_geom_bond_distance
_geom_bond_site_symmetry_2
_ccdc_geom_bond_type
Co0 O1 2.216 . S
Co0 O2 2.091 . S
Co0 O4 2.004 . S
Co0 O10 2.021 . S
Co0 O12 2.137 . S
Co0 O13 2.244 . S
O1 Co0 2.216 . S
O1 C8 1.247 . S
O2 Co0 2.091 . S
O2 C8 1.261 . S
C3 O12 1.247 . S
C3 O13 1.272 . S
O4 Co0 2.004 . S
O4 C9 1.259 1_455 S
Co5 O6 2.061 1_455 S
Co5 O11 2.052 . S
Co5 O13 2.135 . S
O6 Co5 2.061 1_655 S
O6 C9 1.235 . S
C7 O10 1.238 . S
C7 O11 1.241 . S
C8 O1 1.247 . S
C8 O2 1.261 . S
C9 O4 1.259 1_655 S
C9 O6 1.235 . S
O10 Co0 2.021 . S
O10 C7 1.238 . S
O11 Co5 2.052 . S
O11 C7 1.241 . S
O12 Co0 2.137 . S
O12 C3 1.247 . S
O13 Co0 2.244 . S
O13 C3 1.272 . S
O13 Co5 2.135 . S
Co14 O15 2.216 1_455 S
Co14 O16 2.091 1_455 S
Co14 O18 2.004 . S
Co14 O24 2.021 . S
Co14 O26 2.137 . S
Co14 O27 2.244 . S
O15 Co14 2.216 1_655 S
O15 C22 1.247 . S
O16 Co14 2.091 1_655 S
O16 C22 1.261 . S
C17 O26 1.247 . S
C17 O27 1.272 . S
O18 Co14 2.004 . S
O18 C23 1.259 . S
Co19 O20 2.061 . S
Co19 O25 2.052 . S
Co19 O27 2.135 . S
O20 Co19 2.061 . S
O20 C23 1.235 . S
C21 O24 1.238 . S
C21 O25 1.241 . S
C22 O15 1.247 . S
C22 O16 1.261 . S
C23 O18 1.259 . S
C23 O20 1.235 . S
O24 Co14 2.021 . S
O24 C21 1.238 . S
O25 Co19 2.052 . S
O25 C21 1.241 . S
O26 Co14 2.137 . S
O26 C17 1.247 . S
O27 Co14 2.244 . S
O27 C17 1.272 . S
O27 Co19 2.135 . S
Co28 O29 2.216 . S
Co28 O30 2.091 . S
Co28 O32 2.004 . S
Co28 O38 2.021 . S
Co28 O40 2.137 . S
Co28 O41 2.244 . S
O29 Co28 2.216 . S
O29 C36 1.247 . S
O30 Co28 2.091 . S
O30 C36 1.261 . S
C31 O40 1.247 . S
C31 O41 1.272 . S
O32 Co28 2.004 . S
O32 C37 1.259 . S
Co33 O34 2.061 . S
Co33 O39 2.052 . S
Co33 O41 2.135 . S
O34 Co33 2.061 . S
O34 C37 1.235 . S
C35 O38 1.238 . S
C35 O39 1.241 . S
C36 O29 1.247 . S
C36 O30 1.261 . S
C37 O32 1.259 . S
C37 O34 1.235 . S
O38 Co28 2.021 . S
O38 C35 1.238 . S
O39 Co33 2.052 . S
O39 C35 1.241 . S
O40 Co28 2.137 . S
O40 C31 1.247 . S
O41 Co28 2.244 . S
O41 C31 1.272 . S
O41 Co33 2.135 . S
Co42 O43 2.216 . S
Co42 O44 2.091 . S
Co42 O46 2.004 . S
Co42 O52 2.021 . S
Co42 O54 2.137 . S
Co42 O55 2.244 . S
O43 Co42 2.216 . S
O43 C50 1.247 . S
O44 Co42 2.091 . S
O44 C50 1.261 . S
C45 O54 1.247 . S
C45 O55 1.272 . S
O46 Co42 2.004 . S
O46 C51 1.259 . S
Co47 O48 2.061 . S
Co47 O53 2.052 . S
Co47 O55 2.135 . S
O48 Co47 2.061 . S
O48 C51 1.235 . S
C49 O52 1.238 . S
C49 O53 1.241 . S
C50 O43 1.247 . S
C50 O44 1.261 . S
C51 O46 1.259 . S
C51 O48 1.235 . S
O52 Co42 2.021 . S
O52 C49 1.238 . S
O53 Co47 2.052 . S
O53 C49 1.241 . S
O54 Co42 2.137 . S
O54 C45 1.247 . S
O55 Co42 2.244 . S
O55 C45 1.272 . S
O55 Co47 2.135 . S
Co56 O57 2.216 . S
Co56 O58 2.091 . S
Co56 O60 2.004 . S
Co56 O66 2.021 . S
Co56 O68 2.137 . S
Co56 O69 2.244 . S
O57 Co56 2.216 . S
O57 C64 1.247 . S
O58 Co56 2.091 . S
O58 C64 1.261 . S
C59 O68 1.247 . S
C59 O69 1.272 . S
O60 Co56 2.004 . S
O60 C65 1.259 . S
Co61 O62 2.061 . S
Co61 O67 2.052 . S
Co61 O69 2.135 . S
O62 Co61 2.061 . S
O62 C65 1.235 . S
C63 O66 1.238 . S
C63 O67 1.241 . S
C64 O57 1.247 . S
C64 O58 1.261 . S
C65 O60 1.259 . S
C65 O62 1.235 . S
O66 Co56 2.021 . S
O66 C63 1.238 . S
O67 Co61 2.052 . S
O67 C63 1.241 . S
O68 Co56 2.137 . S
O68 C59 1.247 . S
O69 Co56 2.244 . S
O69 C59 1.272 . S
O69 Co61 2.135 . S
Co70 O71 2.216 . S
Co70 O72 2.091 . S
Co70 O74 2.004 . S
Co70 O80 2.021 . S
Co70 O82 2.137 . S
Co70 O83 2.244 . S
O71 Co70 2.216 . S
O71 C78 1.247 . S
O72 Co70 2.091 . S
O72 C78 1.261 . S
C73 O82 1.247 . S
C73 O83 1.272 . S
O74 Co70 2.004 . S
O74 C79 1.259 . S
Co75 O76 2.061 . S
Co75 O81 2.052 . S
Co75 O83 2.135 . S
O76 Co75 2.061 . S
O76 C79 1.235 . S
C77 O80 1.238 . S
C77 O81 1.241 . S
C78 O71 1.247 . S
C78 O72 1.261 . S
C79 O74 1.259 . S
C79 O76 1.235 . S
O80 Co70 2.021 . S
O80 C77 1.238 . S
O81 Co75 2.052 . S
O81 C77 1.241 . S
O82 Co70 2.137 . S
O82 C73 1.247 . S
O83 Co70 2.244 . S
O83 C73 1.272 . S
O83 Co75 2.135 . S
Co84 O85 2.216 . S
Co84 O86 2.091 . S
Co84 O88 2.004 . S
Co84 O94 2.021 . S
Co84 O96 2.137 . S
Co84 O97 2.244 . S
O85 Co84 2.216 . S
O85 C92 1.247 . S
O86 Co84 2.091 . S
O86 C92 1.261 . S
C87 O96 1.247 . S
C87 O97 1.272 . S
O88 Co84 2.004 . S
O88 C93 1.259 . S
Co89 O90 2.061 . S
Co89 O95 2.052 . S
Co89 O97 2.135 . S
O90 Co89 2.061 . S
O90 C93 1.235 . S
C91 O94 1.238 . S
C91 O95 1.241 . S
C92 O85 1.247 . S
C92 O86 1.261 . S
C93 O88 1.259 . S
C93 O90 1.235 . S
O94 Co84 2.021 . S
O94 C91 1.238 . S
O95 Co89 2.052 . S
O95 C91 1.241 . S
O96 Co84 2.137 . S
O96 C87 1.247 . S
O97 Co84 2.244 . S
O97 C87 1.272 . S
O97 Co89 2.135 . S
Co98 O99 2.216 . S
Co98 O100 2.091 . S
Co98 O102 2.004 1_455 S
Co98 O108 2.021 1_455 S
Co98 O110 2.137 . S
Co98 O111 2.244 1_455 S
O99 Co98 2.216 . S
O99 C106 1.247 . S
O100 Co98 2.091 . S
O100 C106 1.261 . S
C101 O110 1.247 . S
C101 O111 1.272 1_455 S
O102 Co98 2.004 1_655 S
O102 C107 1.259 . S
Co103 O104 2.061 . S
Co103 O109 2.052 . S
Co103 O111 2.135 . S
O104 Co103 2.061 . S
O104 C107 1.235 . S
C105 O108 1.238 . S
C105 O109 1.241 . S
C106 O99 1.247 . S
C106 O100 1.261 . S
C107 O102 1.259 . S
C107 O104 1.235 . S
O108 Co98 2.021 1_655 S
O108 C105 1.238 . S
O109 Co103 2.052 . S
O109 C105 1.241 . S
O110 Co98 2.137 . S
O110 C101 1.247 . S
O111 Co98 2.244 1_655 S
O111 C101 1.272 1_655 S
O111 Co103 2.135 . S
Co112 O113 2.216 . S
Co112 O114 2.091 . S
Co112 O116 2.004 1_545 S
Co112 O122 2.021 . S
Co112 O124 2.137 . S
Co112 O125 2.244 . S
O113 Co112 2.216 . S
O113 C120 1.247 . S
O114 Co112 2.091 . S
O114 C120 1.261 . S
C115 O124 1.247 . S
C115 O125 1.272 . S
O116 Co112 2.004 1_565 S
O116 C121 1.259 . S
Co117 O118 2.061 . S
Co117 O123 2.052 . S
Co117 O125 2.135 1_565 S
O118 Co117 2.061 . S
O118 C121 1.235 . S
C119 O122 1.238 . S
C119 O123 1.241 1_545 S
C120 O113 1.247 . S
C120 O114 1.261 . S
C121 O116 1.259 . S
C121 O118 1.235 . S
O122 Co112 2.021 . S
O122 C119 1.238 . S
O123 Co117 2.052 . S
O123 C119 1.241 1_565 S
O124 Co112 2.137 . S
O124 C115 1.247 . S
O125 Co112 2.244 . S
O125 C115 1.272 . S
O125 Co117 2.135 1_545 S
Co126 O127 2.216 . S
Co126 O128 2.091 . S
Co126 O130 2.004 . S
Co126 O136 2.021 . S
Co126 O138 2.137 . S
Co126 O139 2.244 . S
O127 Co126 2.216 . S
O127 C134 1.247 . S
O128 Co126 2.091 . S
O128 C134 1.261 . S
C129 O138 1.247 . S
C129 O139 1.272 . S
O130 Co126 2.004 . S
O130 C135 1.259 . S
Co131 O132 2.061 . S
Co131 O137 2.052 . S
Co131 O139 2.135 . S
O132 Co131 2.061 . S
O132 C135 1.235 . S
C133 O136 1.238 . S
C133 O137 1.241 . S
C134 O127 1.247 . S
C134 O128 1.261 . S
C135 O130 1.259 . S
C135 O132 1.235 . S
O136 Co126 2.021 . S
O136 C133 1.238 . S
O137 Co131 2.052 . S
O137 C133 1.241 . S
O138 Co126 2.137 . S
O138 C129 1.247 . S
O139 Co126 2.244 . S
O139 C129 1.272 . S
O139 Co131 2.135 . S
Co140 O141 2.220 . S
Co140 O142 2.091 . S
Co140 O144 2.004 . S
Co140 O150 2.021 . S
Co140 O152 2.137 . S
Co140 O153 2.244 . S
O141 Co140 2.220 . S
O141 C148 1.248 . S
O142 Co140 2.091 . S
O142 C148 1.271 . S
C143 O152 1.247 . S
C143 O153 1.272 . S
O144 Co140 2.004 . S
O144 C149 1.259 . S
Co145 O146 2.061 . S
Co145 O151 2.052 . S
Co145 O153 2.135 . S
O146 Co145 2.061 . S
O146 C149 1.235 . S
C147 O150 1.238 . S
C147 O151 1.241 . S
C148 O141 1.248 . S
C148 O142 1.271 . S
C149 O144 1.259 . S
C149 O146 1.235 . S
O150 Co140 2.021 . S
O150 C147 1.238 . S
O151 Co145 2.052 . S
O151 C147 1.241 . S
O152 Co140 2.137 . S
O152 C143 1.247 . S
O153 Co140 2.244 . S
O153 C143 1.272 . S
O153 Co145 2.135 . S
Co154 O155 2.216 . S
Co154 O156 2.091 1_556 S
Co154 O158 2.000 . S
Co154 O164 2.021 1_556 S
Co154 O166 2.137 . S
Co154 O167 2.244 . S
O155 Co154 2.216 . S
O155 C162 1.250 . S
O156 Co154 2.091 1_554 S
O156 C162 1.264 1_554 S
C157 O166 1.247 . S
C157 O167 1.272 . S
O158 Co154 2.000 . S
O158 C163 1.254 1_556 S
Co159 O160 2.061 1_556 S
Co159 O165 2.052 1_556 S
Co159 O167 2.135 . S
O160 Co159 2.061 1_554 S
O160 C163 1.235 . S
C161 O164 1.238 . S
C161 O165 1.241 . S
C162 O155 1.250 . S
C162 O156 1.264 1_556 S
C163 O158 1.254 1_554 S
C163 O160 1.235 . S
O164 Co154 2.021 1_554 S
O164 C161 1.238 . S
O165 Co159 2.052 1_554 S
O165 C161 1.241 . S
O166 Co154 2.137 . S
O166 C157 1.247 . S
O167 Co154 2.244 . S
O167 C157 1.272 . S
O167 Co159 2.135 . S
Co168 O169 2.216 . S
Co168 O170 2.091 . S
Co168 O172 2.004 . S
Co168 O178 2.021 . S
Co168 O180 2.137 . S
Co168 O181 2.244 . S
O169 Co168 2.216 . S
O169 C176 1.247 . S
O170 Co168 2.091 . S
O170 C176 1.261 . S
C171 O180 1.247 . S
C171 O181 1.272 . S
O172 Co168 2.004 . S
O172 C177 1.259 . S
Co173 O174 2.061 . S
Co173 O179 2.052 . S
Co173 O181 2.135 . S
O174 Co173 2.061 . S
O174 C177 1.235 . S
C175 O178 1.238 . S
C175 O179 1.241 . S
C176 O169 1.247 . S
C176 O170 1.261 . S
C177 O172 1.259 . S
C177 O174 1.235 . S
O178 Co168 2.021 . S
O178 C175 1.238 . S
O179 Co173 2.052 . S
O179 C175 1.241 . S
O180 Co168 2.137 . S
O180 C171 1.247 . S
O181 Co168 2.244 . S
O181 C171 1.272 . S
O181 Co173 2.135 . S
Co182 O183 2.216 . S
Co182 O184 2.091 . S
Co182 O186 2.004 . S
Co182 O192 2.021 . S
Co182 O194 2.137 . S
Co182 O195 2.244 . S
O183 Co182 2.216 . S
O183 C190 1.247 . S
O184 Co182 2.091 . S
O184 C190 1.261 . S
C185 O194 1.247 . S
C185 O195 1.272 . S
O186 Co182 2.004 . S
O186 C191 1.259 . S
Co187 O188 2.061 . S
Co187 O193 2.052 . S
Co187 O195 2.135 . S
O188 Co187 2.061 . S
O188 C191 1.235 . S
C189 O192 1.238 . S
C189 O193 1.241 . S
C190 O183 1.247 . S
C190 O184 1.261 . S
C191 O186 1.259 . S
C191 O188 1.235 . S
O192 Co182 2.021 . S
O192 C189 1.238 . S
O193 Co187 2.052 . S
O193 C189 1.241 . S
O194 Co182 2.137 . S
O194 C185 1.247 . S
O195 Co182 2.244 . S
O195 C185 1.272 . S
O195 Co187 2.135 . S
Co196 O197 2.216 . S
Co196 O198 2.091 . S
Co196 O200 2.004 . S
Co196 O206 2.021 . S
Co196 O208 2.137 . S
Co196 O209 2.244 . S
O197 Co196 2.216 . S
O197 C204 1.247 . S
O198 Co196 2.091 . S
O198 C204 1.261 . S
C199 O208 1.247 . S
C199 O209 1.272 . S
O200 Co196 2.004 . S
O200 C205 1.259 . S
Co201 O202 2.061 . S
Co201 O207 2.052 . S
Co201 O209 2.135 . S
O202 Co201 2.061 . S
O202 C205 1.235 . S
C203 O206 1.238 . S
C203 O207 1.241 . S
C204 O197 1.247 . S
C204 O198 1.261 . S
C205 O200 1.259 . S
C205 O202 1.235 . S
O206 Co196 2.021 . S
O206 C203 1.238 . S
O207 Co201 2.052 . S
O207 C203 1.241 . S
O208 Co196 2.137 . S
O208 C199 1.247 . S
O209 Co196 2.244 . S
O209 C199 1.272 . S
O209 Co201 2.135 . S
Co210 O211 2.216 . S
Co210 O212 2.091 . S
Co210 O214 2.004 . S
Co210 O220 2.021 . S
Co210 O222 2.137 . S
Co210 O223 2.244 . S
O211 Co210 2.216 . S
O211 C218 1.247 . S
O212 Co210 2.091 . S
O212 C218 1.261 . S
C213 O222 1.247 . S
C213 O223 1.272 . S
O214 Co210 2.004 . S
O214 C219 1.259 . S
Co215 O216 2.061 . S
Co215 O221 2.052 . S
Co215 O223 2.135 . S
O216 Co215 2.061 . S
O216 C219 1.235 . S
C217 O220 1.238 . S
C217 O221 1.241 . S
C218 O211 1.247 . S
C218 O212 1.261 . S
C219 O214 1.259 . S
C219 O216 1.235 . S
O220 Co210 2.021 . S
O220 C217 1.238 . S
O221 Co215 2.052 . S
O221 C217 1.241 . S
O222 Co210 2.137 . S
O222 C213 1.247 . S
O223 Co210 2.244 . S
O223 C213 1.272 . S
O223 Co215 2.135 . S
Co224 O225 2.216 . S
Co224 O226 2.091 . S
Co224 O228 2.004 1_545 S
Co224 O234 2.021 . S
Co224 O236 2.137 . S
Co224 O237 2.244 . S
O225 Co224 2.216 . S
O225 C232 1.247 . S
O226 Co224 2.091 . S
O226 C232 1.261 . S
C227 O236 1.247 . S
C227 O237 1.272 . S
O228 Co224 2.004 1_565 S
O228 C233 1.259 . S
Co229 O230 2.061 . S
Co229 O235 2.052 1_565 S
Co229 O237 2.135 1_565 S
O230 Co229 2.061 . S
O230 C233 1.235 . S
C231 O234 1.238 . S
C231 O235 1.241 . S
C232 O225 1.247 . S
C232 O226 1.261 . S
C233 O228 1.259 . S
C233 O230 1.235 . S
O234 Co224 2.021 . S
O234 C231 1.238 . S
O235 Co229 2.052 1_545 S
O235 C231 1.241 . S
O236 Co224 2.137 . S
O236 C227 1.247 . S
O237 Co224 2.244 . S
O237 C227 1.272 . S
O237 Co229 2.135 1_545 S
Co238 O239 2.216 . S
Co238 O240 2.091 . S
Co238 O242 2.004 . S
Co238 O248 2.021 . S
Co238 O250 2.137 . S
Co238 O251 2.244 . S
O239 Co238 2.216 . S
O239 C246 1.247 . S
O240 Co238 2.091 . S
O240 C246 1.261 . S
C241 O250 1.247 . S
C241 O251 1.272 . S
O242 Co238 2.004 . S
O242 C247 1.259 . S
Co243 O244 2.061 . S
Co243 O249 2.052 . S
Co243 O251 2.135 . S
O244 Co243 2.061 . S
O244 C247 1.235 . S
C245 O248 1.238 . S
C245 O249 1.241 . S
C246 O239 1.247 . S
C246 O240 1.261 . S
C247 O242 1.259 . S
C247 O244 1.235 . S
O248 Co238 2.021 . S
O248 C245 1.238 . S
O249 Co243 2.052 . S
O249 C245 1.241 . S
O250 Co238 2.137 . S
O250 C241 1.247 . S
O251 Co238 2.244 . S
O251 C241 1.272 . S
O251 Co243 2.135 . S
Co252 O253 2.216 . S
Co252 O254 2.091 . S
Co252 O256 2.004 . S
Co252 O262 2.021 . S
Co252 O264 2.137 . S
Co252 O265 2.244 . S
O253 Co252 2.216 . S
O253 C260 1.247 . S
O254 Co252 2.091 . S
O254 C260 1.261 . S
C255 O264 1.247 . S
C255 O265 1.272 . S
O256 Co252 2.004 . S
O256 C261 1.259 . S
Co257 O258 2.061 . S
Co257 O263 2.052 . S
Co257 O265 2.135 . S
O258 Co257 2.061 . S
O258 C261 1.235 . S
C259 O262 1.238 . S
C259 O263 1.241 . S
C260 O253 1.247 . S
C260 O254 1.261 . S
C261 O256 1.259 . S
C261 O258 1.235 . S
O262 Co252 2.021 . S
O262 C259 1.238 . S
O263 Co257 2.052 . S
O263 C259 1.241 . S
O264 Co252 2.137 . S
O264 C255 1.247 . S
O265 Co252 2.244 . S
O265 C255 1.272 . S
O265 Co257 2.135 . S
Co266 O267 2.216 . S
Co266 O268 2.091 . S
Co266 O270 2.004 . S
Co266 O276 2.021 . S
Co266 O278 2.137 . S
Co266 O279 2.244 . S
O267 Co266 2.216 . S
O267 C274 1.247 . S
O268 Co266 2.091 . S
O268 C274 1.261 . S
C269 O278 1.247 . S
C269 O279 1.272 . S
O270 Co266 2.004 . S
O270 C275 1.259 . S
Co271 O272 2.061 . S
Co271 O277 2.052 . S
Co271 O279 2.135 . S
O272 Co271 2.061 . S
O272 C275 1.235 . S
C273 O276 1.238 . S
C273 O277 1.241 . S
C274 O267 1.247 . S
C274 O268 1.261 . S
C275 O270 1.259 . S
C275 O272 1.235 . S
O276 Co266 2.021 . S
O276 C273 1.238 . S
O277 Co271 2.052 . S
O277 C273 1.241 . S
O278 Co266 2.137 . S
O278 C269 1.247 . S
O279 Co266 2.244 . S
O279 C269 1.272 . S
O279 Co271 2.135 . S
Co280 O281 2.216 . S
Co280 O282 2.091 . S
Co280 O284 2.004 . S
Co280 O290 2.021 . S
Co280 O292 2.137 1_554 S
Co280 O293 2.244 1_554 S
O281 Co280 2.216 . S
O281 C288 1.247 . S
O282 Co280 2.091 . S
O282 C288 1.261 . S
C283 O292 1.247 . S
C283 O293 1.272 . S
O284 Co280 2.004 . S
O284 C289 1.259 . S
Co285 O286 2.061 . S
Co285 O291 2.052 . S
Co285 O293 2.135 1_554 S
O286 Co285 2.061 . S
O286 C289 1.235 . S
C287 O290 1.238 . S
C287 O291 1.241 . S
C288 O281 1.247 . S
C288 O282 1.261 . S
C289 O284 1.259 . S
C289 O286 1.235 . S
O290 Co280 2.021 . S
O290 C287 1.238 . S
O291 Co285 2.052 . S
O291 C287 1.241 . S
O292 Co280 2.137 1_556 S
O292 C283 1.247 . S
O293 Co280 2.244 1_556 S
O293 C283 1.272 . S
O293 Co285 2.135 1_556 S
Co294 O295 2.216 . S
Co294 O296 2.091 . S
Co294 O298 2.004 . S
Co294 O304 2.021 . S
Co294 O306 2.137 . S
Co294 O307 2.244 . S
O295 Co294 2.216 . S
O295 C302 1.247 . S
O296 Co294 2.091 . S
O296 C302 1.261 . S
C297 O306 1.247 . S
C297 O307 1.272 . S
O298 Co294 2.004 . S
O298 C303 1.259 . S
Co299 O300 2.061 . S
Co299 O305 2.052 . S
Co299 O307 2.135 . S
O300 Co299 2.061 . S
O300 C303 1.235 . S
C301 O304 1.238 . S
C301 O305 1.241 . S
C302 O295 1.247 . S
C302 O296 1.261 . S
C303 O298 1.259 . S
C303 O300 1.235 . S
O304 Co294 2.021 . S
O304 C301 1.238 . S
O305 Co299 2.052 . S
O305 C301 1.241 . S
O306 Co294 2.137 . S
O306 C297 1.247 . S
O307 Co294 2.244 . S
O307 C297 1.272 . S
O307 Co299 2.135 . S
Co308 O309 2.216 . S
Co308 O310 2.091 . S
Co308 O312 2.004 . S
Co308 O318 2.021 . S
Co308 O320 2.137 . S
Co308 O321 2.244 . S
O309 Co308 2.216 . S
O309 C316 1.247 . S
O310 Co308 2.091 . S
O310 C316 1.261 . S
C311 O320 1.247 . S
C311 O321 1.272 . S
O312 Co308 2.004 . S
O312 C317 1.259 . S
Co313 O314 2.061 . S
Co313 O319 2.052 . S
Co313 O321 2.135 . S
O314 Co313 2.061 . S
O314 C317 1.235 . S
C315 O318 1.238 . S
C315 O319 1.241 . S
C316 O309 1.247 . S
C316 O310 1.261 . S
C317 O312 1.259 . S
C317 O314 1.235 . S
O318 Co308 2.021 . S
O318 C315 1.238 . S
O319 Co313 2.052 . S
O319 C315 1.241 . S
O320 Co308 2.137 . S
O320 C311 1.247 . S
O321 Co308 2.244 . S
O321 C311 1.272 . S
O321 Co313 2.135 . S
Co322 O323 2.216 . S
Co322 O324 2.091 . S
Co322 O326 2.004 . S
Co322 O332 2.021 . S
Co322 O334 2.137 . S
Co322 O335 2.244 . S
O323 Co322 2.216 . S
O323 C330 1.247 . S
O324 Co322 2.091 . S
O324 C330 1.261 . S
C325 O334 1.247 . S
C325 O335 1.272 . S
O326 Co322 2.004 . S
O326 C331 1.259 . S
Co327 O328 2.061 . S
Co327 O333 2.052 . S
Co327 O335 2.135 . S
O328 Co327 2.061 . S
O328 C331 1.235 . S
C329 O332 1.238 . S
C329 O333 1.241 . S
C330 O323 1.247 . S
C330 O324 1.261 . S
C331 O326 1.259 . S
C331 O328 1.235 . S
O332 Co322 2.021 . S
O332 C329 1.238 . S
O333 Co327 2.052 . S
O333 C329 1.241 . S
O334 Co322 2.137 . S
O334 C325 1.247 . S
O335 Co322 2.244 . S
O335 C325 1.272 . S
O335 Co327 2.135 . S
Eu336 N365 2.600 . S
Eu336 N371 2.562 . S
Eu336 O380 2.462 . S
Eu336 O381 2.373 . S
Eu336 O383 2.432 . S
Eu336 O384 2.291 . S
Eu336 O388 2.335 . S
Eu336 O391 2.372 . S
Eu336 C400 2.787 . S
C337 N338 1.365 . S
C337 C340 1.405 . S
C337 C344 1.448 1_556 S
N338 C337 1.365 . S
N338 C341 1.319 . S
N338 Eu347 2.600 1_566 S
C339 C341 1.397 . S
C339 C342 1.367 . S
C339 H359 0.931 . S
C340 C337 1.405 . S
C340 C342 1.403 . S
C340 C346 1.439 . S
C341 N338 1.319 . S
C341 C339 1.397 . S
C341 H352 0.927 . S
C342 C339 1.367 . S
C342 C340 1.403 . S
C342 H363 0.929 . S
C343 C344 1.430 . S
C343 C345 1.387 . S
C343 C349 1.404 . S
C344 C337 1.448 1_554 S
C344 C343 1.430 . S
C344 N348 1.351 . S
C345 C343 1.387 . S
C345 C346 1.375 1_554 S
C345 H360 0.931 . S
C346 C340 1.439 . S
C346 C345 1.375 1_556 S
C346 H361 0.931 . S
Eu347 N338 2.600 1_544 S
Eu347 N348 2.562 1_545 S
Eu347 O382 2.335 1_655 S
Eu347 O385 2.372 1_654 S
Eu347 O386 2.462 . S
Eu347 O387 2.373 1_645 S
Eu347 O389 2.432 1_554 S
Eu347 O390 2.291 1_655 S
Eu347 C411 2.787 . S
N348 C344 1.351 . S
N348 Eu347 2.562 1_565 S
N348 C350 1.325 . S
C349 C343 1.404 . S
C349 C351 1.366 . S
C349 H357 0.930 . S
C350 N348 1.325 . S
C350 C351 1.416 . S
C350 H356 0.929 . S
C351 C349 1.366 . S
C351 C350 1.416 . S
C351 H353 0.930 . S
H352 C341 0.927 . S
H353 C351 0.930 . S
H354 C369 0.930 . S
H355 C376 0.930 1_556 S
H356 C350 0.929 . S
H357 C349 0.930 . S
H358 C372 0.929 . S
H359 C339 0.931 . S
H360 C345 0.931 . S
H361 C346 0.931 . S
H362 C367 0.931 . S
H363 C342 0.929 . S
H364 C375 0.930 . S
N365 Eu336 2.600 . S
N365 C366 1.365 . S
N365 C369 1.319 . S
C366 N365 1.365 . S
C366 C368 1.405 . S
C366 C374 1.448 . S
C367 H362 0.931 . S
C367 C369 1.397 . S
C367 C370 1.367 . S
C368 C366 1.405 . S
C368 C370 1.403 . S
C368 C401 1.439 . S
C369 H354 0.930 . S
C369 N365 1.319 . S
C369 C367 1.397 . S
C370 C367 1.367 . S
C370 C368 1.403 . S
C370 H377 0.929 . S
N371 Eu336 2.562 . S
N371 C372 1.325 . S
N371 C374 1.351 . S
C372 H358 0.929 . S
C372 N371 1.325 . S
C372 C376 1.416 . S
C373 C374 1.430 . S
C373 C375 1.404 . S
C373 C402 1.387 . S
C374 C366 1.448 . S
C374 N371 1.351 . S
C374 C373 1.430 . S
C375 H364 0.930 . S
C375 C373 1.404 . S
C375 C376 1.366 . S
C376 H355 0.930 1_554 S
C376 C372 1.416 . S
C376 C375 1.366 . S
H377 C370 0.929 . S
H378 C401 0.931 . S
H379 C402 0.931 . S
O380 Eu336 2.462 . S
O380 C400 1.252 . S
O381 Eu336 2.373 . S
O381 C392 1.249 . S
O382 Eu347 2.335 1_455 S
O382 C392 1.264 . S
O383 Eu336 2.432 . S
O383 C400 1.268 . S
O384 Eu336 2.291 . S
O384 C399 1.255 1_554 S
O385 Eu347 2.372 1_456 S
O385 C399 1.257 . S
O386 Eu347 2.462 . S
O386 C411 1.252 . S
O387 Eu347 2.373 1_465 S
O387 C403 1.249 . S
O388 Eu336 2.335 . S
O388 C403 1.264 1_545 S
O389 Eu347 2.432 1_556 S
O389 C411 1.268 1_556 S
O390 Eu347 2.291 1_455 S
O390 C410 1.255 . S
O391 Eu336 2.372 . S
O391 C410 1.257 . S
C392 O381 1.249 . S
C392 O382 1.264 . S
C393 C396 1.382 . S
C393 C398 1.390 . S
C393 C400 1.506 . S
C394 C395 1.398 . S
C394 C398 1.392 . S
C395 C394 1.398 . S
C395 C397 1.372 . S
C395 H412 0.931 1_545 S
C396 C393 1.382 . S
C396 C397 1.390 . S
C396 H413 0.931 . S
C397 C395 1.372 . S
C397 C396 1.390 . S
C397 H414 0.929 . S
C398 C393 1.390 . S
C398 C394 1.392 . S
C398 H415 0.930 . S
C399 O384 1.255 1_556 S
C399 O385 1.257 . S
C400 Eu336 2.787 . S
C400 O380 1.252 . S
C400 O383 1.268 . S
C400 C393 1.506 . S
C401 C368 1.439 . S
C401 H378 0.931 . S
C401 C402 1.374 . S
C402 C373 1.387 . S
C402 H379 0.931 . S
C402 C401 1.374 . S
C403 O387 1.249 . S
C403 O388 1.264 1_565 S
C404 C407 1.382 1_554 S
C404 C408 1.390 . S
C404 C411 1.506 . S
C405 C406 1.398 1_554 S
C405 C408 1.392 . S
C406 C405 1.398 1_556 S
C406 C409 1.372 . S
C406 H416 0.931 . S
C407 C404 1.382 1_556 S
C407 C409 1.390 . S
C407 H417 0.931 . S
C408 C404 1.390 . S
C408 C405 1.392 . S
C408 H418 0.930 . S
C409 C406 1.372 . S
C409 C407 1.390 . S
C409 H419 0.929 . S
C410 O390 1.255 . S
C410 O391 1.257 . S
C411 Eu347 2.787 . S
C411 O386 1.252 . S
C411 O389 1.268 1_554 S
C411 C404 1.506 . S
H412 C395 0.931 1_565 S
H413 C396 0.931 . S
H414 C397 0.929 . S
H415 C398 0.930 . S
H416 C406 0.931 . S
H417 C407 0.931 . S
H418 C408 0.930 . S
H419 C409 0.929 . S
Eu420 N449 2.600 . S
Eu420 N455 2.562 . S
Eu420 O464 2.462 . S
Eu420 O465 2.373 . S
Eu420 O467 2.432 . S
Eu420 O468 2.291 . S
Eu420 O472 2.335 . S
Eu420 O475 2.372 . S
Eu420 C484 2.787 . S
C421 N422 1.365 . S
C421 C424 1.405 . S
C421 C428 1.448 . S
N422 C421 1.365 . S
N422 C425 1.319 . S
N422 Eu431 2.600 . S
C423 C425 1.397 . S
C423 C426 1.367 . S
C423 H443 0.931 . S
C424 C421 1.405 . S
C424 C426 1.403 . S
C424 C430 1.439 . S
C425 N422 1.319 . S
C425 C423 1.397 . S
C425 H436 0.930 . S
C426 C423 1.367 . S
C426 C424 1.403 . S
C426 H447 0.929 . S
C427 C428 1.430 . S
C427 C429 1.387 . S
C427 C433 1.404 . S
C428 C421 1.448 . S
C428 C427 1.430 . S
C428 N432 1.351 . S
C429 C427 1.387 . S
C429 C430 1.374 . S
C429 H444 0.931 . S
C430 C424 1.439 . S
C430 C429 1.374 . S
C430 H445 0.931 . S
Eu431 N422 2.600 . S
Eu431 N432 2.562 . S
Eu431 O466 2.335 . S
Eu431 O469 2.372 . S
Eu431 O470 2.462 . S
Eu431 O471 2.373 . S
Eu431 O473 2.432 . S
Eu431 O474 2.291 . S
Eu431 C495 2.787 . S
N432 C428 1.351 . S
N432 Eu431 2.562 . S
N432 C434 1.325 . S
C433 C427 1.404 . S
C433 C435 1.366 . S
C433 H441 0.930 . S
C434 N432 1.325 . S
C434 C435 1.416 . S
C434 H440 0.929 . S
C435 C433 1.366 . S
C435 C434 1.416 . S
C435 H437 0.930 . S
H436 C425 0.930 . S
H437 C435 0.930 . S
H438 C453 0.930 . S
H439 C460 0.930 . S
H440 C434 0.929 . S
H441 C433 0.930 . S
H442 C456 0.929 . S
H443 C423 0.931 . S
H444 C429 0.931 . S
H445 C430 0.931 . S
H446 C451 0.931 . S
H447 C426 0.929 . S
H448 C459 0.930 . S
N449 Eu420 2.600 . S
N449 C450 1.365 . S
N449 C453 1.319 . S
C450 N449 1.365 . S
C450 C452 1.405 . S
C450 C458 1.448 . S
C451 H446 0.931 . S
C451 C453 1.397 . S
C451 C454 1.367 . S
C452 C450 1.405 . S
C452 C454 1.403 . S
C452 C485 1.439 . S
C453 H438 0.930 . S
C453 N449 1.319 . S
C453 C451 1.397 . S
C454 C451 1.367 . S
C454 C452 1.403 . S
C454 H461 0.929 . S
N455 Eu420 2.562 . S
N455 C456 1.325 . S
N455 C458 1.351 . S
C456 H442 0.929 . S
C456 N455 1.325 . S
C456 C460 1.416 . S
C457 C458 1.430 . S
C457 C459 1.404 . S
C457 C486 1.387 . S
C458 C450 1.448 . S
C458 N455 1.351 . S
C458 C457 1.430 . S
C459 H448 0.930 . S
C459 C457 1.404 . S
C459 C460 1.366 . S
C460 H439 0.930 . S
C460 C456 1.416 . S
C460 C459 1.366 . S
H461 C454 0.929 . S
H462 C485 0.931 . S
H463 C486 0.931 . S
O464 Eu420 2.462 . S
O464 C484 1.252 . S
O465 Eu420 2.373 . S
O465 C476 1.249 . S
O466 Eu431 2.335 . S
O466 C476 1.264 . S
O467 Eu420 2.432 . S
O467 C484 1.268 . S
O468 Eu420 2.291 . S
O468 C483 1.255 . S
O469 Eu431 2.372 . S
O469 C483 1.257 . S
O470 Eu431 2.462 . S
O470 C495 1.252 . S
O471 Eu431 2.373 . S
O471 C487 1.249 . S
O472 Eu420 2.335 . S
O472 C487 1.264 . S
O473 Eu431 2.432 . S
O473 C495 1.268 . S
O474 Eu431 2.291 . S
O474 C494 1.255 . S
O475 Eu420 2.372 . S
O475 C494 1.257 . S
C476 O465 1.249 . S
C476 O466 1.264 . S
C477 C480 1.382 . S
C477 C482 1.390 . S
C477 C484 1.506 . S
C478 C479 1.398 . S
C478 C482 1.392 . S
C479 C478 1.398 . S
C479 C481 1.372 . S
C479 H496 0.931 . S
C480 C477 1.382 . S
C480 C481 1.390 . S
C480 H497 0.931 . S
C481 C479 1.372 . S
C481 C480 1.390 . S
C481 H498 0.929 . S
C482 C477 1.390 . S
C482 C478 1.392 . S
C482 H499 0.930 . S
C483 O468 1.255 . S
C483 O469 1.257 . S
C484 Eu420 2.787 . S
C484 O464 1.252 . S
C484 O467 1.268 . S
C484 C477 1.506 . S
C485 C452 1.439 . S
C485 H462 0.931 . S
C485 C486 1.374 . S
C486 C457 1.387 . S
C486 H463 0.931 . S
C486 C485 1.374 . S
C487 O471 1.249 . S
C487 O472 1.264 . S
C488 C491 1.382 . S
C488 C492 1.390 . S
C488 C495 1.506 . S
C489 C490 1.398 . S
C489 C492 1.392 . S
C490 C489 1.398 . S
C490 C493 1.372 . S
C490 H500 0.931 . S
C491 C488 1.382 . S
C491 C493 1.390 . S
C491 H501 0.931 . S
C492 C488 1.390 . S
C492 C489 1.392 . S
C492 H502 0.930 . S
C493 C490 1.372 . S
C493 C491 1.390 . S
C493 H503 0.929 . S
C494 O474 1.255 . S
C494 O475 1.257 . S
C495 Eu431 2.787 . S
C495 O470 1.252 . S
C495 O473 1.268 . S
C495 C488 1.506 . S
H496 C479 0.931 . S
H497 C480 0.931 . S
H498 C481 0.929 . S
H499 C482 0.930 . S
H500 C490 0.931 . S
H501 C491 0.931 . S
H502 C492 0.930 . S
H503 C493 0.929 . S
Eu504 N533 2.600 1_545 S
Eu504 N539 2.562 1_545 S
Eu504 O548 2.462 . S
Eu504 O549 2.373 1_545 S
Eu504 O551 2.432 . S
Eu504 O552 2.291 . S
Eu504 O556 2.335 . S
Eu504 O559 2.372 . S
Eu504 C568 2.787 . S
C505 N506 1.365 . S
C505 C508 1.405 . S
C505 C512 1.448 . S
N506 C505 1.365 . S
N506 C509 1.319 . S
N506 Eu515 2.600 . S
C507 C509 1.397 . S
C507 C510 1.367 . S
C507 H527 0.931 . S
C508 C505 1.405 . S
C508 C510 1.403 . S
C508 C514 1.439 . S
C509 N506 1.319 . S
C509 C507 1.397 . S
C509 H520 0.930 . S
C510 C507 1.367 . S
C510 C508 1.403 . S
C510 H531 0.929 . S
C511 C512 1.430 . S
C511 C513 1.387 . S
C511 C517 1.404 . S
C512 C505 1.448 . S
C512 C511 1.430 . S
C512 N516 1.351 . S
C513 C511 1.387 . S
C513 C514 1.374 . S
C513 H528 0.931 . S
C514 C508 1.439 . S
C514 C513 1.374 . S
C514 H529 0.931 . S
Eu515 N506 2.600 . S
Eu515 N516 2.562 . S
Eu515 O550 2.335 1_545 S
Eu515 O553 2.372 . S
Eu515 O554 2.462 . S
Eu515 O555 2.373 . S
Eu515 O557 2.432 . S
Eu515 O558 2.291 . S
Eu515 C579 2.787 . S
N516 C512 1.351 . S
N516 Eu515 2.562 . S
N516 C518 1.325 . S
C517 C511 1.404 . S
C517 C519 1.366 . S
C517 H525 0.930 . S
C518 N516 1.325 . S
C518 C519 1.416 . S
C518 H524 0.929 . S
C519 C517 1.366 . S
C519 C518 1.416 . S
C519 H521 0.930 . S
H520 C509 0.930 . S
H521 C519 0.930 . S
H522 C537 0.904 1_545 S
H523 C544 0.930 . S
H524 C518 0.929 . S
H525 C517 0.930 . S
H526 C540 0.929 . S
H527 C507 0.931 . S
H528 C513 0.931 . S
H529 C514 0.931 . S
H530 C535 0.931 . S
H531 C510 0.929 . S
H532 C543 0.930 . S
N533 Eu504 2.600 1_565 S
N533 C534 1.365 . S
N533 C537 1.318 . S
C534 N533 1.365 . S
C534 C536 1.405 . S
C534 C542 1.448 . S
C535 H530 0.931 . S
C535 C537 1.423 . S
C535 C538 1.367 . S
C536 C534 1.405 . S
C536 C538 1.403 . S
C536 C569 1.439 . S
C537 H522 0.904 1_565 S
C537 N533 1.318 . S
C537 C535 1.423 . S
C538 C535 1.367 . S
C538 C536 1.403 . S
C538 H545 0.929 . S
N539 Eu504 2.562 1_565 S
N539 C540 1.325 . S
N539 C542 1.351 . S
C540 H526 0.929 . S
C540 N539 1.325 . S
C540 C544 1.416 . S
C541 C542 1.430 . S
C541 C543 1.404 . S
C541 C570 1.387 . S
C542 C534 1.448 . S
C542 N539 1.351 . S
C542 C541 1.430 . S
C543 H532 0.930 . S
C543 C541 1.404 . S
C543 C544 1.366 . S
C544 H523 0.930 . S
C544 C540 1.416 . S
C544 C543 1.366 . S
H545 C538 0.929 . S
H546 C569 0.931 . S
H547 C570 0.931 . S
O548 Eu504 2.462 . S
O548 C568 1.252 . S
O549 Eu504 2.373 1_565 S
O549 C560 1.249 . S
O550 Eu515 2.335 1_565 S
O550 C560 1.264 . S
O551 Eu504 2.432 . S
O551 C568 1.268 . S
O552 Eu504 2.291 . S
O552 C567 1.255 . S
O553 Eu515 2.372 . S
O553 C567 1.257 . S
O554 Eu515 2.462 . S
O554 C579 1.252 . S
O555 Eu515 2.373 . S
O555 C571 1.249 . S
O556 Eu504 2.335 . S
O556 C571 1.264 . S
O557 Eu515 2.432 . S
O557 C579 1.268 . S
O558 Eu515 2.291 . S
O558 C578 1.255 . S
O559 Eu504 2.372 . S
O559 C578 1.257 . S
C560 O549 1.249 . S
C560 O550 1.264 . S
C561 C564 1.382 . S
C561 C566 1.390 . S
C561 C568 1.506 . S
C562 C563 1.398 . S
C562 C566 1.392 . S
C563 C562 1.398 . S
C563 C565 1.372 . S
C563 H580 0.931 . S
C564 C561 1.382 . S
C564 C565 1.390 . S
C564 H581 0.931 . S
C565 C563 1.372 . S
C565 C564 1.390 . S
C565 H582 0.929 . S
C566 C561 1.390 . S
C566 C562 1.392 . S
C566 H583 0.930 . S
C567 O552 1.255 . S
C567 O553 1.257 . S
C568 Eu504 2.787 . S
C568 O548 1.252 . S
C568 O551 1.268 . S
C568 C561 1.506 . S
C569 C536 1.439 . S
C569 H546 0.931 . S
C569 C570 1.374 . S
C570 C541 1.387 . S
C570 H547 0.931 . S
C570 C569 1.374 . S
C571 O555 1.249 . S
C571 O556 1.264 . S
C572 C575 1.382 . S
C572 C576 1.390 . S
C572 C579 1.506 1_565 S
C573 C574 1.398 . S
C573 C576 1.392 . S
C574 C573 1.398 . S
C574 C577 1.372 . S
C574 H584 0.931 . S
C575 C572 1.382 . S
C575 C577 1.390 . S
C575 H585 0.931 . S
C576 C572 1.390 . S
C576 C573 1.392 . S
C576 H586 0.930 . S
C577 C574 1.372 . S
C577 C575 1.390 . S
C577 H587 0.929 . S
C578 O558 1.255 . S
C578 O559 1.257 . S
C579 Eu515 2.787 . S
C579 O554 1.252 . S
C579 O557 1.268 . S
C579 C572 1.506 1_545 S
H580 C563 0.931 . S
H581 C564 0.931 . S
H582 C565 0.929 . S
H583 C566 0.930 . S
H584 C574 0.931 . S
H585 C575 0.931 . S
H586 C576 0.930 . S
H587 C577 0.929 . S
Eu588 N617 2.600 . S
Eu588 N623 2.562 . S
Eu588 O632 2.462 . S
Eu588 O633 2.373 . S
Eu588 O635 2.432 . S
Eu588 O636 2.291 . S
Eu588 O640 2.335 . S
Eu588 O643 2.372 . S
Eu588 C652 2.787 . S
C589 N590 1.365 . S
C589 C592 1.405 . S
C589 C596 1.448 . S
N590 C589 1.365 . S
N590 C593 1.319 . S
N590 Eu599 2.600 . S
C591 C593 1.397 . S
C591 C594 1.367 . S
C591 H611 0.931 . S
C592 C589 1.405 . S
C592 C594 1.403 . S
C592 C598 1.439 . S
C593 N590 1.319 . S
C593 C591 1.397 . S
C593 H604 0.930 . S
C594 C591 1.367 . S
C594 C592 1.403 . S
C594 H615 0.929 . S
C595 C596 1.430 . S
C595 C597 1.387 . S
C595 C601 1.404 . S
C596 C589 1.448 . S
C596 C595 1.430 . S
C596 N600 1.351 . S
C597 C595 1.387 . S
C597 C598 1.374 . S
C597 H612 0.931 . S
C598 C592 1.439 . S
C598 C597 1.374 . S
C598 H613 0.931 . S
Eu599 N590 2.600 . S
Eu599 N600 2.562 . S
Eu599 O634 2.335 . S
Eu599 O637 2.372 . S
Eu599 O638 2.462 . S
Eu599 O639 2.373 . S
Eu599 O641 2.432 . S
Eu599 O642 2.291 . S
Eu599 C663 2.787 . S
N600 C596 1.351 . S
N600 Eu599 2.562 . S
N600 C602 1.325 . S
C601 C595 1.404 . S
C601 C603 1.366 . S
C601 H609 0.930 . S
C602 N600 1.325 . S
C602 C603 1.416 . S
C602 H608 0.929 . S
C603 C601 1.366 . S
C603 C602 1.416 . S
C603 H605 0.930 . S
H604 C593 0.930 . S
H605 C603 0.930 . S
H606 C621 0.930 . S
H607 C628 0.930 . S
H608 C602 0.929 . S
H609 C601 0.930 . S
H610 C624 0.929 . S
H611 C591 0.931 . S
H612 C597 0.931 . S
H613 C598 0.931 . S
H614 C619 0.931 . S
H615 C594 0.929 . S
H616 C627 0.930 . S
N617 Eu588 2.600 . S
N617 C618 1.365 . S
N617 C621 1.319 . S
C618 N617 1.365 . S
C618 C620 1.405 . S
C618 C626 1.448 . S
C619 H614 0.931 . S
C619 C621 1.397 . S
C619 C622 1.367 . S
C620 C618 1.405 . S
C620 C622 1.403 . S
C620 C653 1.439 . S
C621 H606 0.930 . S
C621 N617 1.319 . S
C621 C619 1.397 . S
C622 C619 1.367 . S
C622 C620 1.403 . S
C622 H629 0.929 . S
N623 Eu588 2.562 . S
N623 C624 1.325 . S
N623 C626 1.351 . S
C624 H610 0.929 . S
C624 N623 1.325 . S
C624 C628 1.416 . S
C625 C626 1.430 . S
C625 C627 1.404 . S
C625 C654 1.387 . S
C626 C618 1.448 . S
C626 N623 1.351 . S
C626 C625 1.430 . S
C627 H616 0.930 . S
C627 C625 1.404 . S
C627 C628 1.366 . S
C628 H607 0.930 . S
C628 C624 1.416 . S
C628 C627 1.366 . S
H629 C622 0.929 . S
H630 C653 0.931 . S
H631 C654 0.931 . S
O632 Eu588 2.462 . S
O632 C652 1.252 . S
O633 Eu588 2.373 . S
O633 C644 1.249 . S
O634 Eu599 2.335 . S
O634 C644 1.264 . S
O635 Eu588 2.432 . S
O635 C652 1.268 . S
O636 Eu588 2.291 . S
O636 C651 1.255 . S
O637 Eu599 2.372 . S
O637 C651 1.257 . S
O638 Eu599 2.462 . S
O638 C663 1.252 . S
O639 Eu599 2.373 . S
O639 C655 1.249 . S
O640 Eu588 2.335 . S
O640 C655 1.264 . S
O641 Eu599 2.432 . S
O641 C663 1.268 . S
O642 Eu599 2.291 . S
O642 C662 1.255 . S
O643 Eu588 2.372 . S
O643 C662 1.257 . S
C644 O633 1.249 . S
C644 O634 1.264 . S
C645 C648 1.382 . S
C645 C650 1.390 . S
C645 C652 1.506 . S
C646 C647 1.398 . S
C646 C650 1.392 . S
C647 C646 1.398 . S
C647 C649 1.372 . S
C647 H664 0.931 . S
C648 C645 1.382 . S
C648 C649 1.390 . S
C648 H665 0.931 . S
C649 C647 1.372 . S
C649 C648 1.390 . S
C649 H666 0.929 . S
C650 C645 1.390 . S
C650 C646 1.392 . S
C650 H667 0.930 . S
C651 O636 1.255 . S
C651 O637 1.257 . S
C652 Eu588 2.787 . S
C652 O632 1.252 . S
C652 O635 1.268 . S
C652 C645 1.506 . S
C653 C620 1.439 . S
C653 H630 0.931 . S
C653 C654 1.374 . S
C654 C625 1.387 . S
C654 H631 0.931 . S
C654 C653 1.374 . S
C655 O639 1.249 . S
C655 O640 1.264 . S
C656 C659 1.382 . S
C656 C660 1.390 . S
C656 C663 1.506 . S
C657 C658 1.398 . S
C657 C660 1.392 . S
C658 C657 1.398 . S
C658 C661 1.372 . S
C658 H668 0.931 . S
C659 C656 1.382 . S
C659 C661 1.390 . S
C659 H669 0.931 . S
C660 C656 1.390 . S
C660 C657 1.392 . S
C660 H670 0.930 . S
C661 C658 1.372 . S
C661 C659 1.390 . S
C661 H671 0.929 . S
C662 O642 1.255 . S
C662 O643 1.257 . S
C663 Eu599 2.787 . S
C663 O638 1.252 . S
C663 O641 1.268 . S
C663 C656 1.506 . S
H664 C647 0.931 . S
H665 C648 0.931 . S
H666 C649 0.929 . S
H667 C650 0.930 . S
H668 C658 0.931 . S
H669 C659 0.931 . S
H670 C660 0.930 . S
H671 C661 0.929 . S
Eu672 N701 2.600 . S
Eu672 N707 2.562 . S
Eu672 O716 2.462 . S
Eu672 O717 2.373 1_565 S
Eu672 O719 2.432 . S
Eu672 O720 2.279 1_565 S
Eu672 O724 2.335 1_565 S
Eu672 O727 2.372 1_565 S
Eu672 C736 2.787 . S
C673 N674 1.365 1_455 S
C673 C676 1.405 1_455 S
C673 C680 1.448 . S
N674 C673 1.365 1_655 S
N674 C677 1.319 . S
N674 Eu683 2.600 1_655 S
C675 C677 1.397 . S
C675 C678 1.367 . S
C675 H695 0.931 . S
C676 C673 1.405 1_655 S
C676 C678 1.403 . S
C676 C682 1.439 1_655 S
C677 N674 1.319 . S
C677 C675 1.397 . S
C677 H688 0.930 . S
C678 C675 1.367 . S
C678 C676 1.403 . S
C678 H699 0.929 . S
C679 C680 1.430 . S
C679 C681 1.387 . S
C679 C685 1.404 . S
C680 C673 1.448 . S
C680 C679 1.430 . S
C680 N684 1.351 . S
C681 C679 1.387 . S
C681 C682 1.374 . S
C681 H696 0.931 . S
C682 C676 1.439 1_455 S
C682 C681 1.374 . S
C682 H697 0.926 . S
Eu683 N674 2.600 1_455 S
Eu683 N684 2.562 . S
Eu683 O718 2.335 . S
Eu683 O721 2.372 1_455 S
Eu683 O722 2.462 . S
Eu683 O723 2.373 . S
Eu683 O725 2.432 1_455 S
Eu683 O726 2.291 . S
Eu683 C747 2.787 . S
N684 C680 1.351 . S
N684 Eu683 2.562 . S
N684 C686 1.325 . S
C685 C679 1.404 . S
C685 C687 1.366 . S
C685 H693 0.930 . S
C686 N684 1.325 . S
C686 C687 1.416 . S
C686 H692 0.929 . S
C687 C685 1.366 . S
C687 C686 1.416 . S
C687 H689 0.930 . S
H688 C677 0.930 . S
H689 C687 0.930 . S
H690 C705 0.899 1_545 S
H691 C712 0.930 . S
H692 C686 0.929 . S
H693 C685 0.930 . S
H694 C708 0.893 1_655 S
H695 C675 0.931 . S
H696 C681 0.931 . S
H697 C682 0.926 . S
H698 C703 0.931 . S
H699 C678 0.929 . S
H700 C711 0.950 . S
N701 Eu672 2.600 . S
N701 C702 1.365 . S
N701 C705 1.319 . S
C702 N701 1.365 . S
C702 C704 1.405 . S
C702 C710 1.448 . S
C703 H698 0.931 . S
C703 C705 1.397 . S
C703 C706 1.367 . S
C704 C702 1.405 . S
C704 C706 1.403 . S
C704 C737 1.439 . S
C705 H690 0.899 1_565 S
C705 N701 1.319 . S
C705 C703 1.397 . S
C706 C703 1.367 . S
C706 C704 1.403 . S
C706 H713 0.929 . S
N707 Eu672 2.562 . S
N707 C708 1.382 . S
N707 C710 1.351 . S
C708 H694 0.893 1_455 S
C708 N707 1.382 . S
C708 C712 1.395 1_455 S
C709 C710 1.430 . S
C709 C711 1.352 1_455 S
C709 C738 1.387 . S
C710 C702 1.448 . S
C710 N707 1.351 . S
C710 C709 1.430 . S
C711 H700 0.950 . S
C711 C709 1.352 1_655 S
C711 C712 1.401 . S
C712 H691 0.930 . S
C712 C708 1.395 1_655 S
C712 C711 1.401 . S
H713 C706 0.929 . S
H714 C737 0.931 . S
H715 C738 0.931 . S
O716 Eu672 2.462 . S
O716 C736 1.252 . S
O717 Eu672 2.373 1_545 S
O717 C728 1.249 . S
O718 Eu683 2.335 . S
O718 C728 1.264 . S
O719 Eu672 2.432 . S
O719 C736 1.268 . S
O720 Eu672 2.279 1_545 S
O720 C735 1.277 1_455 S
O721 Eu683 2.372 1_655 S
O721 C735 1.257 . S
O722 Eu683 2.462 . S
O722 C747 1.252 . S
O723 Eu683 2.373 . S
O723 C739 1.249 . S
O724 Eu672 2.335 1_545 S
O724 C739 1.264 . S
O725 Eu683 2.432 1_655 S
O725 C747 1.268 1_655 S
O726 Eu683 2.291 . S
O726 C746 1.255 . S
O727 Eu672 2.372 1_545 S
O727 C746 1.257 . S
C728 O717 1.249 . S
C728 O718 1.264 . S
C729 C732 1.382 . S
C729 C734 1.390 . S
C729 C736 1.506 . S
C730 C731 1.398 . S
C730 C734 1.392 . S
C731 C730 1.398 . S
C731 C733 1.372 . S
C731 H748 0.931 . S
C732 C729 1.382 . S
C732 C733 1.390 . S
C732 H749 0.931 . S
C733 C731 1.372 . S
C733 C732 1.390 . S
C733 H750 0.929 . S
C734 C729 1.390 . S
C734 C730 1.392 . S
C734 H751 0.930 . S
C735 O720 1.277 1_655 S
C735 O721 1.257 . S
C736 Eu672 2.787 . S
C736 O716 1.252 . S
C736 O719 1.268 . S
C736 C729 1.506 . S
C737 C704 1.439 . S
C737 H714 0.931 . S
C737 C738 1.374 . S
C738 C709 1.387 . S
C738 H715 0.931 . S
C738 C737 1.374 . S
C739 O723 1.249 . S
C739 O724 1.264 . S
C740 C743 1.382 1_455 S
C740 C744 1.390 . S
C740 C747 1.506 . S
C741 C742 1.398 . S
C741 C744 1.392 . S
C742 C741 1.398 . S
C742 C745 1.372 1_455 S
C742 H752 0.916 1_455 S
C743 C740 1.382 1_655 S
C743 C745 1.390 . S
C743 H753 0.931 . S
C744 C740 1.390 . S
C744 C741 1.392 . S
C744 H754 0.930 . S
C745 C742 1.372 1_655 S
C745 C743 1.390 . S
C745 H755 0.929 . S
C746 O726 1.255 . S
C746 O727 1.257 . S
C747 Eu683 2.787 . S
C747 O722 1.252 . S
C747 O725 1.268 1_455 S
C747 C740 1.506 . S
H748 C731 0.931 . S
H749 C732 0.931 . S
H750 C733 0.929 . S
H751 C734 0.930 . S
H752 C742 0.916 1_655 S
H753 C743 0.931 . S
H754 C744 0.930 . S
H755 C745 0.929 . S
Eu756 N785 2.600 . S
Eu756 N791 2.562 . S
Eu756 O800 2.462 . S
Eu756 O801 2.373 . S
Eu756 O803 2.432 . S
Eu756 O804 2.291 . S
Eu756 O808 2.335 . S
Eu756 O811 2.372 . S
Eu756 C820 2.787 . S
C757 N758 1.365 . S
C757 C760 1.405 . S
C757 C764 1.448 . S
N758 C757 1.365 . S
N758 C761 1.319 . S
N758 Eu767 2.600 . S
C759 C761 1.397 . S
C759 C762 1.367 . S
C759 H779 0.931 . S
C760 C757 1.405 . S
C760 C762 1.403 . S
C760 C766 1.439 . S
C761 N758 1.319 . S
C761 C759 1.397 . S
C761 H772 0.930 . S
C762 C759 1.367 . S
C762 C760 1.403 . S
C762 H783 0.929 . S
C763 C764 1.430 . S
C763 C765 1.387 . S
C763 C769 1.404 . S
C764 C757 1.448 . S
C764 C763 1.430 . S
C764 N768 1.351 . S
C765 C763 1.387 . S
C765 C766 1.374 . S
C765 H780 0.931 . S
C766 C760 1.439 . S
C766 C765 1.374 . S
C766 H781 0.931 . S
Eu767 N758 2.600 . S
Eu767 N768 2.562 . S
Eu767 O802 2.335 . S
Eu767 O805 2.372 . S
Eu767 O806 2.462 . S
Eu767 O807 2.373 . S
Eu767 O809 2.432 . S
Eu767 O810 2.291 . S
Eu767 C831 2.787 . S
N768 C764 1.351 . S
N768 Eu767 2.562 . S
N768 C770 1.325 . S
C769 C763 1.404 . S
C769 C771 1.366 . S
C769 H777 0.930 . S
C770 N768 1.325 . S
C770 C771 1.416 . S
C770 H776 0.929 . S
C771 C769 1.366 . S
C771 C770 1.416 . S
C771 H773 0.930 . S
H772 C761 0.930 . S
H773 C771 0.930 . S
H774 C789 0.930 . S
H775 C796 0.930 . S
H776 C770 0.929 . S
H777 C769 0.930 . S
H778 C792 0.929 . S
H779 C759 0.931 . S
H780 C765 0.931 . S
H781 C766 0.931 . S
H782 C787 0.931 . S
H783 C762 0.929 . S
H784 C795 0.930 . S
N785 Eu756 2.600 . S
N785 C786 1.365 . S
N785 C789 1.319 . S
C786 N785 1.365 . S
C786 C788 1.405 . S
C786 C794 1.448 . S
C787 H782 0.931 . S
C787 C789 1.397 . S
C787 C790 1.367 . S
C788 C786 1.405 . S
C788 C790 1.403 . S
C788 C821 1.439 . S
C789 H774 0.930 . S
C789 N785 1.319 . S
C789 C787 1.397 . S
C790 C787 1.367 . S
C790 C788 1.403 . S
C790 H797 0.929 . S
N791 Eu756 2.562 . S
N791 C792 1.325 . S
N791 C794 1.351 . S
C792 H778 0.929 . S
C792 N791 1.325 . S
C792 C796 1.416 . S
C793 C794 1.430 . S
C793 C795 1.404 . S
C793 C822 1.387 . S
C794 C786 1.448 . S
C794 N791 1.351 . S
C794 C793 1.430 . S
C795 H784 0.930 . S
C795 C793 1.404 . S
C795 C796 1.366 . S
C796 H775 0.930 . S
C796 C792 1.416 . S
C796 C795 1.366 . S
H797 C790 0.929 . S
H798 C821 0.931 . S
H799 C822 0.931 . S
O800 Eu756 2.462 . S
O800 C820 1.252 . S
O801 Eu756 2.373 . S
O801 C812 1.249 . S
O802 Eu767 2.335 . S
O802 C812 1.264 . S
O803 Eu756 2.432 . S
O803 C820 1.268 . S
O804 Eu756 2.291 . S
O804 C819 1.255 . S
O805 Eu767 2.372 . S
O805 C819 1.257 . S
O806 Eu767 2.462 . S
O806 C831 1.252 . S
O807 Eu767 2.373 . S
O807 C823 1.249 . S
O808 Eu756 2.335 . S
O808 C823 1.264 . S
O809 Eu767 2.432 . S
O809 C831 1.268 . S
O810 Eu767 2.291 . S
O810 C830 1.255 . S
O811 Eu756 2.372 . S
O811 C830 1.257 . S
C812 O801 1.249 . S
C812 O802 1.264 . S
C813 C816 1.382 . S
C813 C818 1.390 . S
C813 C820 1.506 . S
C814 C815 1.398 . S
C814 C818 1.392 . S
C815 C814 1.398 . S
C815 C817 1.372 . S
C815 H832 0.931 . S
C816 C813 1.382 . S
C816 C817 1.390 . S
C816 H833 0.931 . S
C817 C815 1.372 . S
C817 C816 1.390 . S
C817 H834 0.929 . S
C818 C813 1.390 . S
C818 C814 1.392 . S
C818 H835 0.930 . S
C819 O804 1.255 . S
C819 O805 1.257 . S
C820 Eu756 2.787 . S
C820 O800 1.252 . S
C820 O803 1.268 . S
C820 C813 1.506 . S
C821 C788 1.439 . S
C821 H798 0.931 . S
C821 C822 1.374 . S
C822 C793 1.387 . S
C822 H799 0.931 . S
C822 C821 1.374 . S
C823 O807 1.249 . S
C823 O808 1.264 . S
C824 C827 1.382 . S
C824 C828 1.390 . S
C824 C831 1.506 . S
C825 C826 1.398 . S
C825 C828 1.392 . S
C826 C825 1.398 . S
C826 C829 1.372 . S
C826 H836 0.931 . S
C827 C824 1.382 . S
C827 C829 1.390 . S
C827 H837 0.931 . S
C828 C824 1.390 . S
C828 C825 1.392 . S
C828 H838 0.930 . S
C829 C826 1.372 . S
C829 C827 1.390 . S
C829 H839 0.929 . S
C830 O810 1.255 . S
C830 O811 1.257 . S
C831 Eu767 2.787 . S
C831 O806 1.252 . S
C831 O809 1.268 . S
C831 C824 1.506 . S
H832 C815 0.931 . S
H833 C816 0.931 . S
H834 C817 0.929 . S
H835 C818 0.930 . S
H836 C826 0.931 . S
H837 C827 0.931 . S
H838 C828 0.930 . S
H839 C829 0.929 . S
Eu840 N869 2.600 . S
Eu840 N875 2.562 . S
Eu840 O884 2.462 . S
Eu840 O885 2.373 1_556 S
Eu840 O887 2.432 . S
Eu840 O888 2.298 . S
Eu840 O892 2.335 1_556 S
Eu840 O895 2.372 1_556 S
Eu840 C904 2.787 . S
C841 N842 1.365 . S
C841 C844 1.405 . S
C841 C848 1.448 1_565 S
N842 C841 1.365 . S
N842 C845 1.319 . S
N842 Eu851 2.600 1_565 S
C843 C845 1.397 . S
C843 C846 1.367 . S
C843 H863 0.931 . S
C844 C841 1.405 . S
C844 C846 1.403 . S
C844 C850 1.439 . S
C845 N842 1.319 . S
C845 C843 1.397 . S
C845 H856 0.930 . S
C846 C843 1.367 . S
C846 C844 1.403 . S
C846 H867 0.929 . S
C847 C848 1.430 . S
C847 C849 1.387 . S
C847 C853 1.404 . S
C848 C841 1.448 1_545 S
C848 C847 1.430 . S
C848 N852 1.351 . S
C849 C847 1.387 . S
C849 C850 1.374 1_545 S
C849 H864 0.931 . S
C850 C844 1.439 . S
C850 C849 1.374 1_565 S
C850 H865 0.931 . S
Eu851 N842 2.600 1_545 S
Eu851 N852 2.562 . S
Eu851 O886 2.335 . S
Eu851 O889 2.372 1_545 S
Eu851 O890 2.462 . S
Eu851 O891 2.373 . S
Eu851 O893 2.432 1_545 S
Eu851 O894 2.291 . S
Eu851 C915 2.787 . S
N852 C848 1.351 . S
N852 Eu851 2.562 . S
N852 C854 1.325 . S
C853 C847 1.404 . S
C853 C855 1.366 . S
C853 H861 0.930 . S
C854 N852 1.325 . S
C854 C855 1.416 . S
C854 H860 0.929 . S
C855 C853 1.366 . S
C855 C854 1.416 . S
C855 H857 0.930 . S
H856 C845 0.930 . S
H857 C855 0.930 . S
H858 C873 0.930 1_554 S
H859 C880 0.930 . S
H860 C854 0.929 . S
H861 C853 0.930 . S
H862 C876 0.905 1_565 S
H863 C843 0.931 . S
H864 C849 0.931 . S
H865 C850 0.931 . S
H866 C871 0.931 . S
H867 C846 0.929 . S
H868 C879 0.918 1_565 S
N869 Eu840 2.600 . S
N869 C870 1.365 . S
N869 C873 1.319 . S
C870 N869 1.365 . S
C870 C872 1.405 . S
C870 C878 1.448 . S
C871 H866 0.931 . S
C871 C873 1.397 . S
C871 C874 1.367 . S
C872 C870 1.405 . S
C872 C874 1.403 . S
C872 C905 1.439 . S
C873 H858 0.930 1_556 S
C873 N869 1.319 . S
C873 C871 1.397 . S
C874 C871 1.367 . S
C874 C872 1.403 . S
C874 H881 0.929 . S
N875 Eu840 2.562 . S
N875 C876 1.325 . S
N875 C878 1.351 . S
C876 H862 0.905 1_545 S
C876 N875 1.325 . S
C876 C880 1.416 1_545 S
C877 C878 1.430 . S
C877 C879 1.404 . S
C877 C906 1.387 . S
C878 C870 1.448 . S
C878 N875 1.351 . S
C878 C877 1.430 . S
C879 H868 0.918 1_545 S
C879 C877 1.404 . S
C879 C880 1.366 1_545 S
C880 H859 0.930 . S
C880 C876 1.416 1_565 S
C880 C879 1.366 1_565 S
H881 C874 0.929 . S
H882 C905 0.931 . S
H883 C906 0.931 . S
O884 Eu840 2.462 . S
O884 C904 1.252 . S
O885 Eu840 2.373 1_554 S
O885 C896 1.249 . S
O886 Eu851 2.335 . S
O886 C896 1.264 . S
O887 Eu840 2.432 . S
O887 C904 1.268 . S
O888 Eu840 2.298 . S
O888 C903 1.242 1_546 S
O889 Eu851 2.372 1_565 S
O889 C903 1.257 . S
O890 Eu851 2.462 . S
O890 C915 1.252 . S
O891 Eu851 2.373 . S
O891 C907 1.249 . S
O892 Eu840 2.335 1_554 S
O892 C907 1.264 . S
O893 Eu851 2.432 1_565 S
O893 C915 1.268 1_565 S
O894 Eu851 2.291 . S
O894 C914 1.255 . S
O895 Eu840 2.372 1_554 S
O895 C914 1.257 . S
C896 O885 1.249 . S
C896 O886 1.264 . S
C897 C900 1.382 . S
C897 C902 1.390 . S
C897 C904 1.506 . S
C898 C899 1.398 . S
C898 C902 1.392 . S
C899 C898 1.398 . S
C899 C901 1.372 . S
C899 H916 0.931 . S
C900 C897 1.382 . S
C900 C901 1.390 . S
C900 H917 0.931 . S
C901 C899 1.372 . S
C901 C900 1.390 . S
C901 H918 0.929 . S
C902 C897 1.390 . S
C902 C898 1.392 . S
C902 H919 0.930 . S
C903 O888 1.242 1_564 S
C903 O889 1.257 . S
C904 Eu840 2.787 . S
C904 O884 1.252 . S
C904 O887 1.268 . S
C904 C897 1.506 . S
C905 C872 1.439 . S
C905 H882 0.931 . S
C905 C906 1.374 . S
C906 C877 1.387 . S
C906 H883 0.931 . S
C906 C905 1.374 . S
C907 O891 1.249 . S
C907 O892 1.264 . S
C908 C911 1.382 . S
C908 C912 1.390 1_565 S
C908 C915 1.506 1_565 S
C909 C910 1.398 1_545 S
C909 C912 1.392 . S
C910 C909 1.398 1_565 S
C910 C913 1.372 . S
C910 H920 0.931 . S
C911 C908 1.382 . S
C911 C913 1.390 . S
C911 H921 0.931 . S
C912 C908 1.390 1_545 S
C912 C909 1.392 . S
C912 H922 0.930 . S
C913 C910 1.372 . S
C913 C911 1.390 . S
C913 H923 0.929 . S
C914 O894 1.255 . S
C914 O895 1.257 . S
C915 Eu851 2.787 . S
C915 O890 1.252 . S
C915 O893 1.268 1_545 S
C915 C908 1.506 1_545 S
H916 C899 0.931 . S
H917 C900 0.931 . S
H918 C901 0.929 . S
H919 C902 0.930 . S
H920 C910 0.931 . S
H921 C911 0.931 . S
H922 C912 0.930 . S
H923 C913 0.929 . S
Eu924 N953 2.600 . S
Eu924 N959 2.562 . S
Eu924 O968 2.462 . S
Eu924 O969 2.373 . S
Eu924 O971 2.432 . S
Eu924 O972 2.291 . S
Eu924 O976 2.335 . S
Eu924 O979 2.372 . S
Eu924 C988 2.787 . S
C925 N926 1.365 . S
C925 C928 1.405 . S
C925 C932 1.448 . S
N926 C925 1.365 . S
N926 C929 1.319 . S
N926 Eu935 2.600 . S
C927 C929 1.397 . S
C927 C930 1.367 . S
C927 H947 0.931 . S
C928 C925 1.405 . S
C928 C930 1.403 . S
C928 C934 1.439 . S
C929 N926 1.319 . S
C929 C927 1.397 . S
C929 H940 0.930 . S
C930 C927 1.367 . S
C930 C928 1.403 . S
C930 H951 0.929 . S
C931 C932 1.430 . S
C931 C933 1.387 . S
C931 C937 1.404 . S
C932 C925 1.448 . S
C932 C931 1.430 . S
C932 N936 1.351 . S
C933 C931 1.387 . S
C933 C934 1.374 . S
C933 H948 0.931 . S
C934 C928 1.439 . S
C934 C933 1.374 . S
C934 H949 0.931 . S
Eu935 N926 2.600 . S
Eu935 N936 2.562 . S
Eu935 O970 2.335 . S
Eu935 O973 2.372 . S
Eu935 O974 2.462 . S
Eu935 O975 2.373 . S
Eu935 O977 2.432 . S
Eu935 O978 2.291 . S
Eu935 C999 2.787 . S
N936 C932 1.351 . S
N936 Eu935 2.562 . S
N936 C938 1.325 . S
C937 C931 1.404 . S
C937 C939 1.366 . S
C937 H945 0.930 . S
C938 N936 1.325 . S
C938 C939 1.416 . S
C938 H944 0.929 . S
C939 C937 1.366 . S
C939 C938 1.416 . S
C939 H941 0.930 . S
H940 C929 0.930 . S
H941 C939 0.930 . S
H942 C957 0.930 . S
H943 C964 0.930 . S
H944 C938 0.929 . S
H945 C937 0.930 . S
H946 C960 0.929 . S
H947 C927 0.931 . S
H948 C933 0.931 . S
H949 C934 0.931 . S
H950 C955 0.931 . S
H951 C930 0.929 . S
H952 C963 0.930 . S
N953 Eu924 2.600 . S
N953 C954 1.365 . S
N953 C957 1.319 . S
C954 N953 1.365 . S
C954 C956 1.405 . S
C954 C962 1.448 . S
C955 H950 0.931 . S
C955 C957 1.397 . S
C955 C958 1.367 . S
C956 C954 1.405 . S
C956 C958 1.403 . S
C956 C989 1.439 . S
C957 H942 0.930 . S
C957 N953 1.319 . S
C957 C955 1.397 . S
C958 C955 1.367 . S
C958 C956 1.403 . S
C958 H965 0.929 . S
N959 Eu924 2.562 . S
N959 C960 1.325 . S
N959 C962 1.351 . S
C960 H946 0.929 . S
C960 N959 1.325 . S
C960 C964 1.416 . S
C961 C962 1.430 . S
C961 C963 1.404 . S
C961 C990 1.387 . S
C962 C954 1.448 . S
C962 N959 1.351 . S
C962 C961 1.430 . S
C963 H952 0.930 . S
C963 C961 1.404 . S
C963 C964 1.366 . S
C964 H943 0.930 . S
C964 C960 1.416 . S
C964 C963 1.366 . S
H965 C958 0.929 . S
H966 C989 0.931 . S
H967 C990 0.931 . S
O968 Eu924 2.462 . S
O968 C988 1.252 . S
O969 Eu924 2.373 . S
O969 C980 1.249 . S
O970 Eu935 2.335 . S
O970 C980 1.264 . S
O971 Eu924 2.432 . S
O971 C988 1.268 . S
O972 Eu924 2.291 . S
O972 C987 1.255 . S
O973 Eu935 2.372 . S
O973 C987 1.257 . S
O974 Eu935 2.462 . S
O974 C999 1.252 . S
O975 Eu935 2.373 . S
O975 C991 1.249 . S
O976 Eu924 2.335 . S
O976 C991 1.264 . S
O977 Eu935 2.432 . S
O977 C999 1.268 . S
O978 Eu935 2.291 . S
O978 C998 1.255 . S
O979 Eu924 2.372 . S
O979 C998 1.257 . S
C980 O969 1.249 . S
C980 O970 1.264 . S
C981 C984 1.382 . S
C981 C986 1.390 . S
C981 C988 1.506 . S
C982 C983 1.398 . S
C982 C986 1.392 . S
C983 C982 1.398 . S
C983 C985 1.372 . S
C983 H1000 0.931 . S
C984 C981 1.382 . S
C984 C985 1.390 . S
C984 H1001 0.931 . S
C985 C983 1.372 . S
C985 C984 1.390 . S
C985 H1002 0.929 . S
C986 C981 1.390 . S
C986 C982 1.392 . S
C986 H1003 0.930 . S
C987 O972 1.255 . S
C987 O973 1.257 . S
C988 Eu924 2.787 . S
C988 O968 1.252 . S
C988 O971 1.268 . S
C988 C981 1.506 . S
C989 C956 1.439 . S
C989 H966 0.931 . S
C989 C990 1.374 . S
C990 C961 1.387 . S
C990 H967 0.931 . S
C990 C989 1.374 . S
C991 O975 1.249 . S
C991 O976 1.264 . S
C992 C995 1.382 . S
C992 C996 1.390 . S
C992 C999 1.506 . S
C993 C994 1.398 . S
C993 C996 1.392 . S
C994 C993 1.398 . S
C994 C997 1.372 . S
C994 H1004 0.931 . S
C995 C992 1.382 . S
C995 C997 1.390 . S
C995 H1005 0.931 . S
C996 C992 1.390 . S
C996 C993 1.392 . S
C996 H1006 0.930 . S
C997 C994 1.372 . S
C997 C995 1.390 . S
C997 H1007 0.929 . S
C998 O978 1.255 . S
C998 O979 1.257 . S
C999 Eu935 2.787 . S
C999 O974 1.252 . S
C999 O977 1.268 . S
C999 C992 1.506 . S
H1000 C983 0.931 . S
H1001 C984 0.931 . S
H1002 C985 0.929 . S
H1003 C986 0.930 . S
H1004 C994 0.931 . S
H1005 C995 0.931 . S
H1006 C996 0.930 . S
H1007 C997 0.929 . S
Eu1008 N1037 2.600 1_554 S
Eu1008 N1043 2.562 1_554 S
Eu1008 O1052 2.462 . S
Eu1008 O1053 2.373 1_554 S
Eu1008 O1055 2.432 . S
Eu1008 O1056 2.291 . S
Eu1008 O1060 2.335 . S
Eu1008 O1063 2.372 . S
Eu1008 C1072 2.787 . S
C1009 N1010 1.365 . S
C1009 C1012 1.405 . S
C1009 C1016 1.448 . S
N1010 C1009 1.365 . S
N1010 C1013 1.319 . S
N1010 Eu1019 2.600 . S
C1011 C1013 1.397 . S
C1011 C1014 1.367 . S
C1011 H1031 0.931 . S
C1012 C1009 1.405 . S
C1012 C1014 1.403 . S
C1012 C1018 1.439 . S
C1013 N1010 1.319 . S
C1013 C1011 1.397 . S
C1013 H1024 0.930 . S
C1014 C1011 1.367 . S
C1014 C1012 1.403 . S
C1014 H1035 0.929 . S
C1015 C1016 1.430 . S
C1015 C1017 1.387 . S
C1015 C1021 1.404 . S
C1016 C1009 1.448 . S
C1016 C1015 1.430 . S
C1016 N1020 1.351 . S
C1017 C1015 1.387 . S
C1017 C1018 1.374 . S
C1017 H1032 0.931 . S
C1018 C1012 1.439 . S
C1018 C1017 1.374 . S
C1018 H1033 0.931 . S
Eu1019 N1010 2.600 . S
Eu1019 N1020 2.562 . S
Eu1019 O1054 2.335 1_554 S
Eu1019 O1057 2.372 . S
Eu1019 O1058 2.462 . S
Eu1019 O1059 2.373 . S
Eu1019 O1061 2.432 . S
Eu1019 O1062 2.291 . S
Eu1019 C1083 2.787 . S
N1020 C1016 1.351 . S
N1020 Eu1019 2.562 . S
N1020 C1022 1.325 . S
C1021 C1015 1.404 . S
C1021 C1023 1.366 . S
C1021 H1029 0.930 . S
C1022 N1020 1.325 . S
C1022 C1023 1.416 . S
C1022 H1028 0.929 . S
C1023 C1021 1.366 . S
C1023 C1022 1.416 . S
C1023 H1025 0.930 . S
H1024 C1013 0.930 . S
H1025 C1023 0.930 . S
H1026 C1041 0.930 1_554 S
H1027 C1048 0.930 . S
H1028 C1022 0.929 . S
H1029 C1021 0.930 . S
H1030 C1044 0.929 1_554 S
H1031 C1011 0.931 . S
H1032 C1017 0.931 . S
H1033 C1018 0.931 . S
H1034 C1039 0.931 . S
H1035 C1014 0.929 . S
H1036 C1047 0.930 . S
N1037 Eu1008 2.600 1_556 S
N1037 C1038 1.365 . S
N1037 C1041 1.319 . S
C1038 N1037 1.365 . S
C1038 C1040 1.405 . S
C1038 C1046 1.448 . S
C1039 H1034 0.931 . S
C1039 C1041 1.397 . S
C1039 C1042 1.367 . S
C1040 C1038 1.405 . S
C1040 C1042 1.403 . S
C1040 C1073 1.439 . S
C1041 H1026 0.930 1_556 S
C1041 N1037 1.319 . S
C1041 C1039 1.397 . S
C1042 C1039 1.367 . S
C1042 C1040 1.403 . S
C1042 H1049 0.929 . S
N1043 Eu1008 2.562 1_556 S
N1043 C1044 1.325 . S
N1043 C1046 1.351 . S
C1044 H1030 0.929 1_556 S
C1044 N1043 1.325 . S
C1044 C1048 1.416 . S
C1045 C1046 1.430 . S
C1045 C1047 1.404 . S
C1045 C1074 1.387 . S
C1046 C1038 1.448 . S
C1046 N1043 1.351 . S
C1046 C1045 1.430 . S
C1047 H1036 0.930 . S
C1047 C1045 1.404 . S
C1047 C1048 1.366 . S
C1048 H1027 0.930 . S
C1048 C1044 1.416 . S
C1048 C1047 1.366 . S
H1049 C1042 0.929 . S
H1050 C1073 0.931 . S
H1051 C1074 0.931 . S
O1052 Eu1008 2.462 . S
O1052 C1072 1.252 . S
O1053 Eu1008 2.373 1_556 S
O1053 C1064 1.249 . S
O1054 Eu1019 2.335 1_556 S
O1054 C1064 1.264 . S
O1055 Eu1008 2.432 . S
O1055 C1072 1.268 . S
O1056 Eu1008 2.291 . S
O1056 C1071 1.255 . S
O1057 Eu1019 2.372 . S
O1057 C1071 1.257 . S
O1058 Eu1019 2.462 . S
O1058 C1083 1.252 . S
O1059 Eu1019 2.373 . S
O1059 C1075 1.249 . S
O1060 Eu1008 2.335 . S
O1060 C1075 1.264 . S
O1061 Eu1019 2.432 . S
O1061 C1083 1.268 . S
O1062 Eu1019 2.291 . S
O1062 C1082 1.255 . S
O1063 Eu1008 2.372 . S
O1063 C1082 1.257 . S
C1064 O1053 1.249 . S
C1064 O1054 1.264 . S
C1065 C1068 1.382 . S
C1065 C1070 1.390 . S
C1065 C1072 1.506 . S
C1066 C1067 1.398 . S
C1066 C1070 1.392 . S
C1067 C1066 1.398 . S
C1067 C1069 1.372 . S
C1067 H1084 0.931 . S
C1068 C1065 1.382 . S
C1068 C1069 1.390 . S
C1068 H1085 0.931 . S
C1069 C1067 1.372 . S
C1069 C1068 1.390 . S
C1069 H1086 0.929 . S
C1070 C1065 1.390 . S
C1070 C1066 1.392 . S
C1070 H1087 0.930 . S
C1071 O1056 1.255 . S
C1071 O1057 1.257 . S
C1072 Eu1008 2.787 . S
C1072 O1052 1.252 . S
C1072 O1055 1.268 . S
C1072 C1065 1.506 . S
C1073 C1040 1.439 . S
C1073 H1050 0.931 . S
C1073 C1074 1.374 . S
C1074 C1045 1.387 . S
C1074 H1051 0.931 . S
C1074 C1073 1.374 . S
C1075 O1059 1.249 . S
C1075 O1060 1.264 . S
C1076 C1079 1.382 . S
C1076 C1080 1.390 . S
C1076 C1083 1.506 1_556 S
C1077 C1078 1.398 . S
C1077 C1080 1.392 . S
C1078 C1077 1.398 . S
C1078 C1081 1.372 . S
C1078 H1088 0.931 . S
C1079 C1076 1.382 . S
C1079 C1081 1.390 . S
C1079 H1089 0.932 . S
C1080 C1076 1.390 . S
C1080 C1077 1.392 . S
C1080 H1090 0.930 . S
C1081 C1078 1.372 . S
C1081 C1079 1.390 . S
C1081 H1091 0.929 . S
C1082 O1062 1.255 . S
C1082 O1063 1.257 . S
C1083 Eu1019 2.787 . S
C1083 O1058 1.252 . S
C1083 O1061 1.268 . S
C1083 C1076 1.506 1_554 S
H1084 C1067 0.931 . S
H1085 C1068 0.931 . S
H1086 C1069 0.929 . S
H1087 C1070 0.930 . S
H1088 C1078 0.931 . S
H1089 C1079 0.932 . S
H1090 C1080 0.930 . S
H1091 C1081 0.929 . S
Eu1092 N1121 2.600 . S
Eu1092 N1127 2.562 . S
Eu1092 O1136 2.462 . S
Eu1092 O1137 2.373 . S
Eu1092 O1139 2.432 . S
Eu1092 O1140 2.291 . S
Eu1092 O1144 2.335 . S
Eu1092 O1147 2.372 . S
Eu1092 C1156 2.787 . S
C1093 N1094 1.365 . S
C1093 C1096 1.405 . S
C1093 C1100 1.448 . S
N1094 C1093 1.365 . S
N1094 C1097 1.319 . S
N1094 Eu1103 2.600 . S
C1095 C1097 1.397 . S
C1095 C1098 1.367 . S
C1095 H1115 0.931 . S
C1096 C1093 1.405 . S
C1096 C1098 1.403 . S
C1096 C1102 1.439 . S
C1097 N1094 1.319 . S
C1097 C1095 1.397 . S
C1097 H1108 0.930 . S
C1098 C1095 1.367 . S
C1098 C1096 1.403 . S
C1098 H1119 0.929 . S
C1099 C1100 1.430 . S
C1099 C1101 1.387 . S
C1099 C1105 1.404 . S
C1100 C1093 1.448 . S
C1100 C1099 1.430 . S
C1100 N1104 1.351 . S
C1101 C1099 1.387 . S
C1101 C1102 1.374 . S
C1101 H1116 0.931 . S
C1102 C1096 1.439 . S
C1102 C1101 1.374 . S
C1102 H1117 0.931 . S
Eu1103 N1094 2.600 . S
Eu1103 N1104 2.562 . S
Eu1103 O1138 2.335 . S
Eu1103 O1141 2.372 . S
Eu1103 O1142 2.462 . S
Eu1103 O1143 2.373 . S
Eu1103 O1145 2.432 . S
Eu1103 O1146 2.291 . S
Eu1103 C1167 2.787 . S
N1104 C1100 1.351 . S
N1104 Eu1103 2.562 . S
N1104 C1106 1.325 . S
C1105 C1099 1.404 . S
C1105 C1107 1.366 . S
C1105 H1113 0.930 . S
C1106 N1104 1.325 . S
C1106 C1107 1.416 . S
C1106 H1112 0.929 . S
C1107 C1105 1.366 . S
C1107 C1106 1.416 . S
C1107 H1109 0.930 . S
H1108 C1097 0.930 . S
H1109 C1107 0.930 . S
H1110 C1125 0.930 . S
H1111 C1132 0.930 . S
H1112 C1106 0.929 . S
H1113 C1105 0.930 . S
H1114 C1128 0.929 . S
H1115 C1095 0.931 . S
H1116 C1101 0.931 . S
H1117 C1102 0.931 . S
H1118 C1123 0.931 . S
H1119 C1098 0.929 . S
H1120 C1131 0.930 . S
N1121 Eu1092 2.600 . S
N1121 C1122 1.365 . S
N1121 C1125 1.319 . S
C1122 N1121 1.365 . S
C1122 C1124 1.405 . S
C1122 C1130 1.448 . S
C1123 H1118 0.931 . S
C1123 C1125 1.397 . S
C1123 C1126 1.367 . S
C1124 C1122 1.405 . S
C1124 C1126 1.403 . S
C1124 C1157 1.439 . S
C1125 H1110 0.930 . S
C1125 N1121 1.319 . S
C1125 C1123 1.397 . S
C1126 C1123 1.367 . S
C1126 C1124 1.403 . S
C1126 H1133 0.929 . S
N1127 Eu1092 2.562 . S
N1127 C1128 1.325 . S
N1127 C1130 1.351 . S
C1128 H1114 0.929 . S
C1128 N1127 1.325 . S
C1128 C1132 1.416 . S
C1129 C1130 1.430 . S
C1129 C1131 1.404 . S
C1129 C1158 1.387 . S
C1130 C1122 1.448 . S
C1130 N1127 1.351 . S
C1130 C1129 1.430 . S
C1131 H1120 0.930 . S
C1131 C1129 1.404 . S
C1131 C1132 1.366 . S
C1132 H1111 0.930 . S
C1132 C1128 1.416 . S
C1132 C1131 1.366 . S
H1133 C1126 0.929 . S
H1134 C1157 0.931 . S
H1135 C1158 0.931 . S
O1136 Eu1092 2.462 . S
O1136 C1156 1.252 . S
O1137 Eu1092 2.373 . S
O1137 C1148 1.249 . S
O1138 Eu1103 2.335 . S
O1138 C1148 1.264 . S
O1139 Eu1092 2.432 . S
O1139 C1156 1.268 . S
O1140 Eu1092 2.291 . S
O1140 C1155 1.255 . S
O1141 Eu1103 2.372 . S
O1141 C1155 1.257 . S
O1142 Eu1103 2.462 . S
O1142 C1167 1.252 . S
O1143 Eu1103 2.373 . S
O1143 C1159 1.249 . S
O1144 Eu1092 2.335 . S
O1144 C1159 1.264 . S
O1145 Eu1103 2.432 . S
O1145 C1167 1.268 . S
O1146 Eu1103 2.291 . S
O1146 C1166 1.255 . S
O1147 Eu1092 2.372 . S
O1147 C1166 1.257 . S
C1148 O1137 1.249 . S
C1148 O1138 1.264 . S
C1149 C1152 1.382 . S
C1149 C1154 1.390 . S
C1149 C1156 1.506 . S
C1150 C1151 1.398 . S
C1150 C1154 1.392 . S
C1151 C1150 1.398 . S
C1151 C1153 1.372 . S
C1151 H1168 0.931 . S
C1152 C1149 1.382 . S
C1152 C1153 1.390 . S
C1152 H1169 0.931 . S
C1153 C1151 1.372 . S
C1153 C1152 1.390 . S
C1153 H1170 0.929 . S
C1154 C1149 1.390 . S
C1154 C1150 1.392 . S
C1154 H1171 0.930 . S
C1155 O1140 1.255 . S
C1155 O1141 1.257 . S
C1156 Eu1092 2.787 . S
C1156 O1136 1.252 . S
C1156 O1139 1.268 . S
C1156 C1149 1.506 . S
C1157 C1124 1.439 . S
C1157 H1134 0.931 . S
C1157 C1158 1.374 . S
C1158 C1129 1.387 . S
C1158 H1135 0.931 . S
C1158 C1157 1.374 . S
C1159 O1143 1.249 . S
C1159 O1144 1.264 . S
C1160 C1163 1.382 . S
C1160 C1164 1.390 . S
C1160 C1167 1.506 . S
C1161 C1162 1.398 . S
C1161 C1164 1.392 . S
C1162 C1161 1.398 . S
C1162 C1165 1.372 . S
C1162 H1172 0.931 . S
C1163 C1160 1.382 . S
C1163 C1165 1.390 . S
C1163 H1173 0.931 . S
C1164 C1160 1.390 . S
C1164 C1161 1.392 . S
C1164 H1174 0.930 . S
C1165 C1162 1.372 . S
C1165 C1163 1.390 . S
C1165 H1175 0.929 . S
C1166 O1146 1.255 . S
C1166 O1147 1.257 . S
C1167 Eu1103 2.787 . S
C1167 O1142 1.252 . S
C1167 O1145 1.268 . S
C1167 C1160 1.506 . S
H1168 C1151 0.931 . S
H1169 C1152 0.931 . S
H1170 C1153 0.929 . S
H1171 C1154 0.930 . S
H1172 C1162 0.931 . S
H1173 C1163 0.931 . S
H1174 C1164 0.930 . S
H1175 C1165 0.929 . S
Eu1176 N1205 2.600 1_455 S
Eu1176 N1211 2.562 1_455 S
Eu1176 O1220 2.462 . S
Eu1176 O1221 2.373 1_455 S
Eu1176 O1223 2.432 . S
Eu1176 O1224 2.291 . S
Eu1176 O1228 2.335 . S
Eu1176 O1231 2.372 . S
Eu1176 C1240 2.787 . S
C1177 N1178 1.365 . S
C1177 C1180 1.405 . S
C1177 C1184 1.448 . S
N1178 C1177 1.365 . S
N1178 C1181 1.319 . S
N1178 Eu1187 2.600 . S
C1179 C1181 1.397 . S
C1179 C1182 1.367 . S
C1179 H1199 0.931 . S
C1180 C1177 1.405 . S
C1180 C1182 1.403 . S
C1180 C1186 1.439 . S
C1181 N1178 1.319 . S
C1181 C1179 1.397 . S
C1181 H1192 0.930 . S
C1182 C1179 1.367 . S
C1182 C1180 1.403 . S
C1182 H1203 0.929 . S
C1183 C1184 1.430 . S
C1183 C1185 1.387 . S
C1183 C1189 1.404 . S
C1184 C1177 1.448 . S
C1184 C1183 1.430 . S
C1184 N1188 1.351 . S
C1185 C1183 1.387 . S
C1185 C1186 1.374 . S
C1185 H1200 0.931 . S
C1186 C1180 1.439 . S
C1186 C1185 1.374 . S
C1186 H1201 0.931 . S
Eu1187 N1178 2.600 . S
Eu1187 N1188 2.562 . S
Eu1187 O1222 2.335 1_455 S
Eu1187 O1225 2.372 . S
Eu1187 O1226 2.462 . S
Eu1187 O1227 2.373 . S
Eu1187 O1229 2.432 . S
Eu1187 O1230 2.291 . S
Eu1187 C1251 2.787 . S
N1188 C1184 1.351 . S
N1188 Eu1187 2.562 . S
N1188 C1190 1.325 . S
C1189 C1183 1.404 . S
C1189 C1191 1.366 . S
C1189 H1197 0.930 . S
C1190 N1188 1.325 . S
C1190 C1191 1.416 . S
C1190 H1196 0.929 . S
C1191 C1189 1.366 . S
C1191 C1190 1.416 . S
C1191 H1193 0.930 . S
H1192 C1181 0.930 . S
H1193 C1191 0.930 . S
H1194 C1209 0.930 1_455 S
H1195 C1216 0.930 . S
H1196 C1190 0.929 . S
H1197 C1189 0.930 . S
H1198 C1212 0.929 1_455 S
H1199 C1179 0.931 . S
H1200 C1185 0.931 . S
H1201 C1186 0.931 . S
H1202 C1207 0.931 . S
H1203 C1182 0.929 . S
H1204 C1215 0.930 . S
N1205 Eu1176 2.600 1_655 S
N1205 C1206 1.365 . S
N1205 C1209 1.319 . S
C1206 N1205 1.365 . S
C1206 C1208 1.405 . S
C1206 C1214 1.448 . S
C1207 H1202 0.931 . S
C1207 C1209 1.397 . S
C1207 C1210 1.367 . S
C1208 C1206 1.405 . S
C1208 C1210 1.403 . S
C1208 C1241 1.439 . S
C1209 H1194 0.930 1_655 S
C1209 N1205 1.319 . S
C1209 C1207 1.397 . S
C1210 C1207 1.367 . S
C1210 C1208 1.403 . S
C1210 H1217 0.929 . S
N1211 Eu1176 2.562 1_655 S
N1211 C1212 1.325 . S
N1211 C1214 1.351 . S
C1212 H1198 0.929 1_655 S
C1212 N1211 1.325 . S
C1212 C1216 1.416 . S
C1213 C1214 1.430 . S
C1213 C1215 1.404 . S
C1213 C1242 1.387 . S
C1214 C1206 1.448 . S
C1214 N1211 1.351 . S
C1214 C1213 1.430 . S
C1215 H1204 0.930 . S
C1215 C1213 1.404 . S
C1215 C1216 1.366 . S
C1216 H1195 0.930 . S
C1216 C1212 1.416 . S
C1216 C1215 1.366 . S
H1217 C1210 0.929 . S
H1218 C1241 0.931 . S
H1219 C1242 0.931 . S
O1220 Eu1176 2.462 . S
O1220 C1240 1.252 . S
O1221 Eu1176 2.373 1_655 S
O1221 C1232 1.249 . S
O1222 Eu1187 2.335 1_655 S
O1222 C1232 1.264 . S
O1223 Eu1176 2.432 . S
O1223 C1240 1.268 . S
O1224 Eu1176 2.291 . S
O1224 C1239 1.255 . S
O1225 Eu1187 2.372 . S
O1225 C1239 1.257 . S
O1226 Eu1187 2.462 . S
O1226 C1251 1.252 . S
O1227 Eu1187 2.373 . S
O1227 C1243 1.249 . S
O1228 Eu1176 2.335 . S
O1228 C1243 1.264 . S
O1229 Eu1187 2.432 . S
O1229 C1251 1.268 . S
O1230 Eu1187 2.291 . S
O1230 C1250 1.255 . S
O1231 Eu1176 2.372 . S
O1231 C1250 1.257 . S
C1232 O1221 1.249 . S
C1232 O1222 1.264 . S
C1233 C1236 1.382 . S
C1233 C1238 1.390 . S
C1233 C1240 1.506 . S
C1234 C1235 1.398 . S
C1234 C1238 1.392 . S
C1235 C1234 1.398 . S
C1235 C1237 1.372 . S
C1235 H1252 0.931 . S
C1236 C1233 1.382 . S
C1236 C1237 1.390 . S
C1236 H1253 0.931 . S
C1237 C1235 1.372 . S
C1237 C1236 1.390 . S
C1237 H1254 0.929 . S
C1238 C1233 1.390 . S
C1238 C1234 1.392 . S
C1238 H1255 0.930 . S
C1239 O1224 1.255 . S
C1239 O1225 1.257 . S
C1240 Eu1176 2.787 . S
C1240 O1220 1.252 . S
C1240 O1223 1.268 . S
C1240 C1233 1.506 . S
C1241 C1208 1.439 . S
C1241 H1218 0.931 . S
C1241 C1242 1.374 . S
C1242 C1213 1.387 . S
C1242 H1219 0.931 . S
C1242 C1241 1.374 . S
C1243 O1227 1.249 . S
C1243 O1228 1.264 . S
C1244 C1247 1.382 . S
C1244 C1248 1.390 . S
C1244 C1251 1.506 1_655 S
C1245 C1246 1.398 . S
C1245 C1248 1.392 . S
C1246 C1245 1.398 . S
C1246 C1249 1.372 . S
C1246 H1256 0.931 . S
C1247 C1244 1.382 . S
C1247 C1249 1.390 . S
C1247 H1257 0.931 . S
C1248 C1244 1.390 . S
C1248 C1245 1.392 . S
C1248 H1258 0.930 . S
C1249 C1246 1.372 . S
C1249 C1247 1.390 . S
C1249 H1259 0.929 . S
C1250 O1230 1.255 . S
C1250 O1231 1.257 . S
C1251 Eu1187 2.787 . S
C1251 O1226 1.252 . S
C1251 O1229 1.268 . S
C1251 C1244 1.506 1_455 S
H1252 C1235 0.931 . S
H1253 C1236 0.931 . S
H1254 C1237 0.929 . S
H1255 C1238 0.930 . S
H1256 C1246 0.931 . S
H1257 C1247 0.931 . S
H1258 C1248 0.930 . S
H1259 C1249 0.929 . S
Eu1260 N1289 2.600 . S
Eu1260 N1295 2.562 . S
Eu1260 O1304 2.462 . S
Eu1260 O1305 2.373 . S
Eu1260 O1307 2.432 . S
Eu1260 O1308 2.291 . S
Eu1260 O1312 2.335 . S
Eu1260 O1315 2.372 . S
Eu1260 C1324 2.787 . S
C1261 N1262 1.365 . S
C1261 C1264 1.405 . S
C1261 C1268 1.448 . S
N1262 C1261 1.365 . S
N1262 C1265 1.319 . S
N1262 Eu1271 2.600 . S
C1263 C1265 1.397 . S
C1263 C1266 1.367 . S
C1263 H1283 0.931 . S
C1264 C1261 1.405 . S
C1264 C1266 1.403 . S
C1264 C1270 1.439 . S
C1265 N1262 1.319 . S
C1265 C1263 1.397 . S
C1265 H1276 0.930 . S
C1266 C1263 1.367 . S
C1266 C1264 1.403 . S
C1266 H1287 0.929 . S
C1267 C1268 1.430 . S
C1267 C1269 1.387 . S
C1267 C1273 1.404 . S
C1268 C1261 1.448 . S
C1268 C1267 1.430 . S
C1268 N1272 1.351 . S
C1269 C1267 1.387 . S
C1269 C1270 1.374 . S
C1269 H1284 0.931 . S
C1270 C1264 1.439 . S
C1270 C1269 1.374 . S
C1270 H1285 0.931 . S
Eu1271 N1262 2.600 . S
Eu1271 N1272 2.562 . S
Eu1271 O1306 2.335 . S
Eu1271 O1309 2.372 . S
Eu1271 O1310 2.462 . S
Eu1271 O1311 2.373 . S
Eu1271 O1313 2.432 . S
Eu1271 O1314 2.291 . S
Eu1271 C1335 2.787 . S
N1272 C1268 1.351 . S
N1272 Eu1271 2.562 . S
N1272 C1274 1.325 . S
C1273 C1267 1.404 . S
C1273 C1275 1.366 . S
C1273 H1281 0.930 . S
C1274 N1272 1.325 . S
C1274 C1275 1.416 . S
C1274 H1280 0.929 . S
C1275 C1273 1.366 . S
C1275 C1274 1.416 . S
C1275 H1277 0.930 . S
H1276 C1265 0.930 . S
H1277 C1275 0.930 . S
H1278 C1293 0.930 . S
H1279 C1300 0.930 . S
H1280 C1274 0.929 . S
H1281 C1273 0.930 . S
H1282 C1296 0.929 . S
H1283 C1263 0.931 . S
H1284 C1269 0.931 . S
H1285 C1270 0.931 . S
H1286 C1291 0.931 . S
H1287 C1266 0.929 . S
H1288 C1299 0.930 . S
N1289 Eu1260 2.600 . S
N1289 C1290 1.365 . S
N1289 C1293 1.319 . S
C1290 N1289 1.365 . S
C1290 C1292 1.405 . S
C1290 C1298 1.448 . S
C1291 H1286 0.931 . S
C1291 C1293 1.397 . S
C1291 C1294 1.367 . S
C1292 C1290 1.405 . S
C1292 C1294 1.403 . S
C1292 C1325 1.439 . S
C1293 H1278 0.930 . S
C1293 N1289 1.319 . S
C1293 C1291 1.397 . S
C1294 C1291 1.367 . S
C1294 C1292 1.403 . S
C1294 H1301 0.929 . S
N1295 Eu1260 2.562 . S
N1295 C1296 1.325 . S
N1295 C1298 1.351 . S
C1296 H1282 0.929 . S
C1296 N1295 1.325 . S
C1296 C1300 1.416 . S
C1297 C1298 1.430 . S
C1297 C1299 1.404 . S
C1297 C1326 1.387 . S
C1298 C1290 1.448 . S
C1298 N1295 1.351 . S
C1298 C1297 1.430 . S
C1299 H1288 0.930 . S
C1299 C1297 1.404 . S
C1299 C1300 1.366 . S
C1300 H1279 0.930 . S
C1300 C1296 1.416 . S
C1300 C1299 1.366 . S
H1301 C1294 0.929 . S
H1302 C1325 0.931 . S
H1303 C1326 0.931 . S
O1304 Eu1260 2.462 . S
O1304 C1324 1.252 . S
O1305 Eu1260 2.373 . S
O1305 C1316 1.249 . S
O1306 Eu1271 2.335 . S
O1306 C1316 1.264 . S
O1307 Eu1260 2.432 . S
O1307 C1324 1.268 . S
O1308 Eu1260 2.291 . S
O1308 C1323 1.255 . S
O1309 Eu1271 2.372 . S
O1309 C1323 1.257 . S
O1310 Eu1271 2.462 . S
O1310 C1335 1.252 . S
O1311 Eu1271 2.373 . S
O1311 C1327 1.249 . S
O1312 Eu1260 2.335 . S
O1312 C1327 1.264 . S
O1313 Eu1271 2.432 . S
O1313 C1335 1.268 . S
O1314 Eu1271 2.291 . S
O1314 C1334 1.255 . S
O1315 Eu1260 2.372 . S
O1315 C1334 1.257 . S
C1316 O1305 1.249 . S
C1316 O1306 1.264 . S
C1317 C1320 1.382 . S
C1317 C1322 1.390 . S
C1317 C1324 1.506 . S
C1318 C1319 1.398 . S
C1318 C1322 1.392 . S
C1319 C1318 1.398 . S
C1319 C1321 1.372 . S
C1319 H1336 0.931 . S
C1320 C1317 1.382 . S
C1320 C1321 1.390 . S
C1320 H1337 0.931 . S
C1321 C1319 1.372 . S
C1321 C1320 1.390 . S
C1321 H1338 0.929 . S
C1322 C1317 1.390 . S
C1322 C1318 1.392 . S
C1322 H1339 0.930 . S
C1323 O1308 1.255 . S
C1323 O1309 1.257 . S
C1324 Eu1260 2.787 . S
C1324 O1304 1.252 . S
C1324 O1307 1.268 . S
C1324 C1317 1.506 . S
C1325 C1292 1.439 . S
C1325 H1302 0.931 . S
C1325 C1326 1.374 . S
C1326 C1297 1.387 . S
C1326 H1303 0.931 . S
C1326 C1325 1.374 . S
C1327 O1311 1.249 . S
C1327 O1312 1.264 . S
C1328 C1331 1.382 . S
C1328 C1332 1.390 . S
C1328 C1335 1.506 . S
C1329 C1330 1.398 . S
C1329 C1332 1.392 . S
C1330 C1329 1.398 . S
C1330 C1333 1.372 . S
C1330 H1340 0.931 . S
C1331 C1328 1.382 . S
C1331 C1333 1.390 . S
C1331 H1341 0.931 . S
C1332 C1328 1.390 . S
C1332 C1329 1.392 . S
C1332 H1342 0.930 . S
C1333 C1330 1.372 . S
C1333 C1331 1.390 . S
C1333 H1343 0.929 . S
C1334 O1314 1.255 . S
C1334 O1315 1.257 . S
C1335 Eu1271 2.787 . S
C1335 O1310 1.252 . S
C1335 O1313 1.268 . S
C1335 C1328 1.506 . S
H1336 C1319 0.931 . S
H1337 C1320 0.931 . S
H1338 C1321 0.929 . S
H1339 C1322 0.930 . S
H1340 C1330 0.931 . S
H1341 C1331 0.931 . S
H1342 C1332 0.930 . S
H1343 C1333 0.929 . S
Eu1344 N1373 2.600 . S
Eu1344 N1379 2.562 . S
Eu1344 O1388 2.462 . S
Eu1344 O1389 2.373 . S
Eu1344 O1391 2.432 . S
Eu1344 O1392 2.291 . S
Eu1344 O1396 2.335 . S
Eu1344 O1399 2.372 . S
Eu1344 C1408 2.787 . S
C1345 N1346 1.365 . S
C1345 C1348 1.405 . S
C1345 C1352 1.448 . S
N1346 C1345 1.365 . S
N1346 C1349 1.319 . S
N1346 Eu1355 2.600 . S
C1347 C1349 1.397 . S
C1347 C1350 1.367 . S
C1347 H1367 0.931 . S
C1348 C1345 1.405 . S
C1348 C1350 1.403 . S
C1348 C1354 1.439 . S
C1349 N1346 1.319 . S
C1349 C1347 1.397 . S
C1349 H1360 0.930 . S
C1350 C1347 1.367 . S
C1350 C1348 1.403 . S
C1350 H1371 0.929 . S
C1351 C1352 1.430 . S
C1351 C1353 1.387 . S
C1351 C1357 1.404 . S
C1352 C1345 1.448 . S
C1352 C1351 1.430 . S
C1352 N1356 1.351 . S
C1353 C1351 1.387 . S
C1353 C1354 1.374 . S
C1353 H1368 0.931 . S
C1354 C1348 1.439 . S
C1354 C1353 1.374 . S
C1354 H1369 0.931 . S
Eu1355 N1346 2.600 . S
Eu1355 N1356 2.562 . S
Eu1355 O1390 2.335 . S
Eu1355 O1393 2.372 . S
Eu1355 O1394 2.462 . S
Eu1355 O1395 2.373 . S
Eu1355 O1397 2.432 . S
Eu1355 O1398 2.291 . S
Eu1355 C1419 2.787 . S
N1356 C1352 1.351 . S
N1356 Eu1355 2.562 . S
N1356 C1358 1.325 . S
C1357 C1351 1.404 . S
C1357 C1359 1.366 . S
C1357 H1365 0.930 . S
C1358 N1356 1.325 . S
C1358 C1359 1.416 . S
C1358 H1364 0.929 . S
C1359 C1357 1.366 . S
C1359 C1358 1.416 . S
C1359 H1361 0.930 . S
H1360 C1349 0.930 . S
H1361 C1359 0.930 . S
H1362 C1377 0.930 . S
H1363 C1384 0.930 . S
H1364 C1358 0.929 . S
H1365 C1357 0.930 . S
H1366 C1380 0.929 . S
H1367 C1347 0.931 . S
H1368 C1353 0.931 . S
H1369 C1354 0.931 . S
H1370 C1375 0.931 . S
H1371 C1350 0.929 . S
H1372 C1383 0.930 . S
N1373 Eu1344 2.600 . S
N1373 C1374 1.365 . S
N1373 C1377 1.319 . S
C1374 N1373 1.365 . S
C1374 C1376 1.405 . S
C1374 C1382 1.448 . S
C1375 H1370 0.931 . S
C1375 C1377 1.397 . S
C1375 C1378 1.367 . S
C1376 C1374 1.405 . S
C1376 C1378 1.403 . S
C1376 C1409 1.439 . S
C1377 H1362 0.930 . S
C1377 N1373 1.319 . S
C1377 C1375 1.397 . S
C1378 C1375 1.367 . S
C1378 C1376 1.403 . S
C1378 H1385 0.929 . S
N1379 Eu1344 2.562 . S
N1379 C1380 1.325 . S
N1379 C1382 1.351 . S
C1380 H1366 0.929 . S
C1380 N1379 1.325 . S
C1380 C1384 1.416 . S
C1381 C1382 1.430 . S
C1381 C1383 1.404 . S
C1381 C1410 1.387 . S
C1382 C1374 1.448 . S
C1382 N1379 1.351 . S
C1382 C1381 1.430 . S
C1383 H1372 0.930 . S
C1383 C1381 1.404 . S
C1383 C1384 1.366 . S
C1384 H1363 0.930 . S
C1384 C1380 1.416 . S
C1384 C1383 1.366 . S
H1385 C1378 0.929 . S
H1386 C1409 0.931 . S
H1387 C1410 0.931 . S
O1388 Eu1344 2.462 . S
O1388 C1408 1.252 . S
O1389 Eu1344 2.373 . S
O1389 C1400 1.249 . S
O1390 Eu1355 2.335 . S
O1390 C1400 1.264 . S
O1391 Eu1344 2.432 . S
O1391 C1408 1.268 . S
O1392 Eu1344 2.291 . S
O1392 C1407 1.255 . S
O1393 Eu1355 2.372 . S
O1393 C1407 1.257 . S
O1394 Eu1355 2.462 . S
O1394 C1419 1.252 . S
O1395 Eu1355 2.373 . S
O1395 C1411 1.249 . S
O1396 Eu1344 2.335 . S
O1396 C1411 1.264 . S
O1397 Eu1355 2.432 . S
O1397 C1419 1.268 . S
O1398 Eu1355 2.291 . S
O1398 C1418 1.255 . S
O1399 Eu1344 2.372 . S
O1399 C1418 1.257 . S
C1400 O1389 1.249 . S
C1400 O1390 1.264 . S
C1401 C1404 1.382 . S
C1401 C1406 1.390 . S
C1401 C1408 1.506 . S
C1402 C1403 1.398 . S
C1402 C1406 1.392 . S
C1403 C1402 1.398 . S
C1403 C1405 1.372 . S
C1403 H1420 0.931 . S
C1404 C1401 1.382 . S
C1404 C1405 1.390 . S
C1404 H1421 0.931 . S
C1405 C1403 1.372 . S
C1405 C1404 1.390 . S
C1405 H1422 0.929 . S
C1406 C1401 1.390 . S
C1406 C1402 1.392 . S
C1406 H1423 0.930 . S
C1407 O1392 1.255 . S
C1407 O1393 1.257 . S
C1408 Eu1344 2.787 . S
C1408 O1388 1.252 . S
C1408 O1391 1.268 . S
C1408 C1401 1.506 . S
C1409 C1376 1.439 . S
C1409 H1386 0.931 . S
C1409 C1410 1.374 . S
C1410 C1381 1.387 . S
C1410 H1387 0.931 . S
C1410 C1409 1.374 . S
C1411 O1395 1.249 . S
C1411 O1396 1.264 . S
C1412 C1415 1.382 . S
C1412 C1416 1.390 . S
C1412 C1419 1.506 . S
C1413 C1414 1.398 . S
C1413 C1416 1.392 . S
C1414 C1413 1.398 . S
C1414 C1417 1.372 . S
C1414 H1424 0.931 . S
C1415 C1412 1.382 . S
C1415 C1417 1.390 . S
C1415 H1425 0.931 . S
C1416 C1412 1.390 . S
C1416 C1413 1.392 . S
C1416 H1426 0.930 . S
C1417 C1414 1.372 . S
C1417 C1415 1.390 . S
C1417 H1427 0.929 . S
C1418 O1398 1.255 . S
C1418 O1399 1.257 . S
C1419 Eu1355 2.787 . S
C1419 O1394 1.252 . S
C1419 O1397 1.268 . S
C1419 C1412 1.506 . S
H1420 C1403 0.931 . S
H1421 C1404 0.931 . S
H1422 C1405 0.929 . S
H1423 C1406 0.930 . S
H1424 C1414 0.931 . S
H1425 C1415 0.931 . S
H1426 C1416 0.930 . S
H1427 C1417 0.929 . S
Eu1428 N1457 2.600 . S
Eu1428 N1463 2.562 . S
Eu1428 O1472 2.462 . S
Eu1428 O1473 2.373 . S
Eu1428 O1475 2.432 . S
Eu1428 O1476 2.291 . S
Eu1428 O1480 2.335 . S
Eu1428 O1483 2.372 . S
Eu1428 C1492 2.787 . S
C1429 N1430 1.365 . S
C1429 C1432 1.405 . S
C1429 C1436 1.448 . S
N1430 C1429 1.365 . S
N1430 C1433 1.319 . S
N1430 Eu1439 2.600 . S
C1431 C1433 1.397 . S
C1431 C1434 1.367 . S
C1431 H1451 0.931 . S
C1432 C1429 1.405 . S
C1432 C1434 1.403 . S
C1432 C1438 1.439 . S
C1433 N1430 1.319 . S
C1433 C1431 1.397 . S
C1433 H1444 0.930 . S
C1434 C1431 1.367 . S
C1434 C1432 1.403 . S
C1434 H1455 0.929 . S
C1435 C1436 1.430 . S
C1435 C1437 1.387 . S
C1435 C1441 1.404 . S
C1436 C1429 1.448 . S
C1436 C1435 1.430 . S
C1436 N1440 1.351 . S
C1437 C1435 1.387 . S
C1437 C1438 1.374 . S
C1437 H1452 0.931 . S
C1438 C1432 1.439 . S
C1438 C1437 1.374 . S
C1438 H1453 0.931 . S
Eu1439 N1430 2.600 . S
Eu1439 N1440 2.562 . S
Eu1439 O1474 2.335 . S
Eu1439 O1477 2.372 . S
Eu1439 O1478 2.462 . S
Eu1439 O1479 2.373 . S
Eu1439 O1481 2.432 . S
Eu1439 O1482 2.291 . S
Eu1439 C1503 2.787 . S
N1440 C1436 1.351 . S
N1440 Eu1439 2.562 . S
N1440 C1442 1.325 . S
C1441 C1435 1.404 . S
C1441 C1443 1.366 . S
C1441 H1449 0.930 . S
C1442 N1440 1.325 . S
C1442 C1443 1.416 . S
C1442 H1448 0.929 . S
C1443 C1441 1.366 . S
C1443 C1442 1.416 . S
C1443 H1445 0.930 . S
H1444 C1433 0.930 . S
H1445 C1443 0.930 . S
H1446 C1461 0.930 . S
H1447 C1468 0.930 . S
H1448 C1442 0.929 . S
H1449 C1441 0.930 . S
H1450 C1464 0.929 . S
H1451 C1431 0.931 . S
H1452 C1437 0.931 . S
H1453 C1438 0.931 . S
H1454 C1459 0.931 . S
H1455 C1434 0.929 . S
H1456 C1467 0.930 . S
N1457 Eu1428 2.600 . S
N1457 C1458 1.365 . S
N1457 C1461 1.319 . S
C1458 N1457 1.365 . S
C1458 C1460 1.405 . S
C1458 C1466 1.448 . S
C1459 H1454 0.931 . S
C1459 C1461 1.397 . S
C1459 C1462 1.367 . S
C1460 C1458 1.405 . S
C1460 C1462 1.403 . S
C1460 C1493 1.439 . S
C1461 H1446 0.930 . S
C1461 N1457 1.319 . S
C1461 C1459 1.397 . S
C1462 C1459 1.367 . S
C1462 C1460 1.403 . S
C1462 H1469 0.929 . S
N1463 Eu1428 2.562 . S
N1463 C1464 1.325 . S
N1463 C1466 1.351 . S
C1464 H1450 0.929 . S
C1464 N1463 1.325 . S
C1464 C1468 1.416 . S
C1465 C1466 1.430 . S
C1465 C1467 1.404 . S
C1465 C1494 1.387 . S
C1466 C1458 1.448 . S
C1466 N1463 1.351 . S
C1466 C1465 1.430 . S
C1467 H1456 0.930 . S
C1467 C1465 1.404 . S
C1467 C1468 1.366 . S
C1468 H1447 0.930 . S
C1468 C1464 1.416 . S
C1468 C1467 1.366 . S
H1469 C1462 0.929 . S
H1470 C1493 0.931 . S
H1471 C1494 0.931 . S
O1472 Eu1428 2.462 . S
O1472 C1492 1.252 . S
O1473 Eu1428 2.373 . S
O1473 C1484 1.249 . S
O1474 Eu1439 2.335 . S
O1474 C1484 1.264 . S
O1475 Eu1428 2.432 . S
O1475 C1492 1.268 . S
O1476 Eu1428 2.291 . S
O1476 C1491 1.255 . S
O1477 Eu1439 2.372 . S
O1477 C1491 1.257 . S
O1478 Eu1439 2.462 . S
O1478 C1503 1.252 . S
O1479 Eu1439 2.373 . S
O1479 C1495 1.249 . S
O1480 Eu1428 2.335 . S
O1480 C1495 1.264 . S
O1481 Eu1439 2.432 . S
O1481 C1503 1.268 . S
O1482 Eu1439 2.291 . S
O1482 C1502 1.255 . S
O1483 Eu1428 2.372 . S
O1483 C1502 1.257 . S
C1484 O1473 1.249 . S
C1484 O1474 1.264 . S
C1485 C1488 1.382 . S
C1485 C1490 1.390 . S
C1485 C1492 1.506 . S
C1486 C1487 1.398 . S
C1486 C1490 1.392 . S
C1487 C1486 1.398 . S
C1487 C1489 1.372 . S
C1487 H1504 0.931 . S
C1488 C1485 1.382 . S
C1488 C1489 1.390 . S
C1488 H1505 0.931 . S
C1489 C1487 1.372 . S
C1489 C1488 1.390 . S
C1489 H1506 0.929 . S
C1490 C1485 1.390 . S
C1490 C1486 1.392 . S
C1490 H1507 0.930 . S
C1491 O1476 1.255 . S
C1491 O1477 1.257 . S
C1492 Eu1428 2.787 . S
C1492 O1472 1.252 . S
C1492 O1475 1.268 . S
C1492 C1485 1.506 . S
C1493 C1460 1.439 . S
C1493 H1470 0.931 . S
C1493 C1494 1.374 . S
C1494 C1465 1.387 . S
C1494 H1471 0.931 . S
C1494 C1493 1.374 . S
C1495 O1479 1.249 . S
C1495 O1480 1.264 . S
C1496 C1499 1.382 . S
C1496 C1500 1.390 . S
C1496 C1503 1.506 . S
C1497 C1498 1.398 . S
C1497 C1500 1.392 . S
C1498 C1497 1.398 . S
C1498 C1501 1.372 . S
C1498 H1508 0.931 . S
C1499 C1496 1.382 . S
C1499 C1501 1.390 . S
C1499 H1509 0.931 . S
C1500 C1496 1.390 . S
C1500 C1497 1.392 . S
C1500 H1510 0.930 . S
C1501 C1498 1.372 . S
C1501 C1499 1.390 . S
C1501 H1511 0.929 . S
C1502 O1482 1.255 . S
C1502 O1483 1.257 . S
C1503 Eu1439 2.787 . S
C1503 O1478 1.252 . S
C1503 O1481 1.268 . S
C1503 C1496 1.506 . S
H1504 C1487 0.931 . S
H1505 C1488 0.931 . S
H1506 C1489 0.929 . S
H1507 C1490 0.930 . S
H1508 C1498 0.931 . S
H1509 C1499 0.931 . S
H1510 C1500 0.930 . S
H1511 C1501 0.929 . S
Eu1512 N1541 2.600 . S
Eu1512 N1547 2.562 . S
Eu1512 O1556 2.462 . S
Eu1512 O1557 2.373 . S
Eu1512 O1559 2.432 . S
Eu1512 O1560 2.291 . S
Eu1512 O1564 2.335 . S
Eu1512 O1567 2.372 . S
Eu1512 C1576 2.787 . S
C1513 N1514 1.365 . S
C1513 C1516 1.405 . S
C1513 C1520 1.448 . S
N1514 C1513 1.365 . S
N1514 C1517 1.319 . S
N1514 Eu1523 2.600 . S
C1515 C1517 1.397 . S
C1515 C1518 1.367 . S
C1515 H1535 0.931 . S
C1516 C1513 1.405 . S
C1516 C1518 1.403 . S
C1516 C1522 1.439 . S
C1517 N1514 1.319 . S
C1517 C1515 1.397 . S
C1517 H1528 0.930 . S
C1518 C1515 1.367 . S
C1518 C1516 1.403 . S
C1518 H1539 0.929 . S
C1519 C1520 1.430 . S
C1519 C1521 1.387 . S
C1519 C1525 1.404 . S
C1520 C1513 1.448 . S
C1520 C1519 1.430 . S
C1520 N1524 1.351 . S
C1521 C1519 1.387 . S
C1521 C1522 1.374 . S
C1521 H1536 0.931 . S
C1522 C1516 1.439 . S
C1522 C1521 1.374 . S
C1522 H1537 0.931 . S
Eu1523 N1514 2.600 . S
Eu1523 N1524 2.562 . S
Eu1523 O1558 2.335 . S
Eu1523 O1561 2.372 . S
Eu1523 O1562 2.462 . S
Eu1523 O1563 2.373 . S
Eu1523 O1565 2.432 . S
Eu1523 O1566 2.291 . S
Eu1523 C1587 2.787 . S
N1524 C1520 1.351 . S
N1524 Eu1523 2.562 . S
N1524 C1526 1.325 . S
C1525 C1519 1.404 . S
C1525 C1527 1.366 . S
C1525 H1533 0.930 . S
C1526 N1524 1.325 . S
C1526 C1527 1.416 . S
C1526 H1532 0.929 . S
C1527 C1525 1.366 . S
C1527 C1526 1.416 . S
C1527 H1529 0.930 . S
H1528 C1517 0.930 . S
H1529 C1527 0.930 . S
H1530 C1545 0.930 . S
H1531 C1552 0.930 . S
H1532 C1526 0.929 . S
H1533 C1525 0.930 . S
H1534 C1548 0.929 . S
H1535 C1515 0.931 . S
H1536 C1521 0.931 . S
H1537 C1522 0.931 . S
H1538 C1543 0.931 . S
H1539 C1518 0.929 . S
H1540 C1551 0.930 . S
N1541 Eu1512 2.600 . S
N1541 C1542 1.365 . S
N1541 C1545 1.319 . S
C1542 N1541 1.365 . S
C1542 C1544 1.405 . S
C1542 C1550 1.448 . S
C1543 H1538 0.931 . S
C1543 C1545 1.397 . S
C1543 C1546 1.367 . S
C1544 C1542 1.405 . S
C1544 C1546 1.403 . S
C1544 C1577 1.439 . S
C1545 H1530 0.930 . S
C1545 N1541 1.319 . S
C1545 C1543 1.397 . S
C1546 C1543 1.367 . S
C1546 C1544 1.403 . S
C1546 H1553 0.929 . S
N1547 Eu1512 2.562 . S
N1547 C1548 1.325 . S
N1547 C1550 1.351 . S
C1548 H1534 0.929 . S
C1548 N1547 1.325 . S
C1548 C1552 1.416 . S
C1549 C1550 1.430 . S
C1549 C1551 1.404 . S
C1549 C1578 1.387 . S
C1550 C1542 1.448 . S
C1550 N1547 1.351 . S
C1550 C1549 1.430 . S
C1551 H1540 0.930 . S
C1551 C1549 1.404 . S
C1551 C1552 1.366 . S
C1552 H1531 0.930 . S
C1552 C1548 1.416 . S
C1552 C1551 1.366 . S
H1553 C1546 0.929 . S
H1554 C1577 0.931 . S
H1555 C1578 0.931 . S
O1556 Eu1512 2.462 . S
O1556 C1576 1.252 . S
O1557 Eu1512 2.373 . S
O1557 C1568 1.249 . S
O1558 Eu1523 2.335 . S
O1558 C1568 1.264 . S
O1559 Eu1512 2.432 . S
O1559 C1576 1.268 . S
O1560 Eu1512 2.291 . S
O1560 C1575 1.255 . S
O1561 Eu1523 2.372 . S
O1561 C1575 1.257 . S
O1562 Eu1523 2.462 . S
O1562 C1587 1.252 . S
O1563 Eu1523 2.373 . S
O1563 C1579 1.249 . S
O1564 Eu1512 2.335 . S
O1564 C1579 1.264 . S
O1565 Eu1523 2.432 . S
O1565 C1587 1.268 . S
O1566 Eu1523 2.291 . S
O1566 C1586 1.255 . S
O1567 Eu1512 2.372 . S
O1567 C1586 1.257 . S
C1568 O1557 1.249 . S
C1568 O1558 1.264 . S
C1569 C1572 1.382 . S
C1569 C1574 1.390 . S
C1569 C1576 1.506 . S
C1570 C1571 1.398 . S
C1570 C1574 1.392 . S
C1571 C1570 1.398 . S
C1571 C1573 1.372 . S
C1571 H1588 0.931 . S
C1572 C1569 1.382 . S
C1572 C1573 1.390 . S
C1572 H1589 0.931 . S
C1573 C1571 1.372 . S
C1573 C1572 1.390 . S
C1573 H1590 0.929 . S
C1574 C1569 1.390 . S
C1574 C1570 1.392 . S
C1574 H1591 0.930 . S
C1575 O1560 1.255 . S
C1575 O1561 1.257 . S
C1576 Eu1512 2.787 . S
C1576 O1556 1.252 . S
C1576 O1559 1.268 . S
C1576 C1569 1.506 . S
C1577 C1544 1.439 . S
C1577 H1554 0.931 . S
C1577 C1578 1.374 . S
C1578 C1549 1.387 . S
C1578 H1555 0.931 . S
C1578 C1577 1.374 . S
C1579 O1563 1.249 . S
C1579 O1564 1.264 . S
C1580 C1583 1.382 . S
C1580 C1584 1.390 . S
C1580 C1587 1.506 . S
C1581 C1582 1.398 . S
C1581 C1584 1.392 . S
C1582 C1581 1.398 . S
C1582 C1585 1.372 . S
C1582 H1592 0.931 . S
C1583 C1580 1.382 . S
C1583 C1585 1.390 . S
C1583 H1593 0.931 . S
C1584 C1580 1.390 . S
C1584 C1581 1.392 . S
C1584 H1594 0.930 . S
C1585 C1582 1.372 . S
C1585 C1583 1.390 . S
C1585 H1595 0.929 . S
C1586 O1566 1.255 . S
C1586 O1567 1.257 . S
C1587 Eu1523 2.787 . S
C1587 O1562 1.252 . S
C1587 O1565 1.268 . S
C1587 C1580 1.506 . S
H1588 C1571 0.931 . S
H1589 C1572 0.931 . S
H1590 C1573 0.929 . S
H1591 C1574 0.930 . S
H1592 C1582 0.931 . S
H1593 C1583 0.931 . S
H1594 C1584 0.930 . S
H1595 C1585 0.929 . S
Eu1596 N1625 2.600 . S
Eu1596 N1631 2.562 . S
Eu1596 O1640 2.462 . S
Eu1596 O1641 2.373 1_655 S
Eu1596 O1643 2.432 . S
Eu1596 O1644 2.291 1_655 S
Eu1596 O1648 2.335 1_655 S
Eu1596 O1651 2.372 1_655 S
Eu1596 C1660 2.787 . S
C1597 N1598 1.365 . S
C1597 C1600 1.405 . S
C1597 C1604 1.448 1_556 S
N1598 C1597 1.365 . S
N1598 C1601 1.319 . S
N1598 Eu1607 2.600 1_556 S
C1599 C1601 1.397 . S
C1599 C1602 1.367 . S
C1599 H1619 0.931 . S
C1600 C1597 1.405 . S
C1600 C1602 1.403 . S
C1600 C1606 1.439 . S
C1601 N1598 1.319 . S
C1601 C1599 1.397 . S
C1601 H1612 0.930 . S
C1602 C1599 1.367 . S
C1602 C1600 1.403 . S
C1602 H1623 0.929 . S
C1603 C1604 1.430 . S
C1603 C1605 1.387 . S
C1603 C1609 1.404 . S
C1604 C1597 1.448 1_554 S
C1604 C1603 1.430 . S
C1604 N1608 1.351 . S
C1605 C1603 1.387 . S
C1605 C1606 1.374 1_554 S
C1605 H1620 0.931 . S
C1606 C1600 1.439 . S
C1606 C1605 1.374 1_556 S
C1606 H1621 0.931 . S
Eu1607 N1598 2.600 1_554 S
Eu1607 N1608 2.562 . S
Eu1607 O1642 2.335 . S
Eu1607 O1645 2.372 1_554 S
Eu1607 O1646 2.462 . S
Eu1607 O1647 2.373 . S
Eu1607 O1649 2.432 1_554 S
Eu1607 O1650 2.291 . S
Eu1607 C1671 2.787 . S
N1608 C1604 1.351 . S
N1608 Eu1607 2.562 . S
N1608 C1610 1.325 . S
C1609 C1603 1.404 . S
C1609 C1611 1.366 . S
C1609 H1617 0.930 . S
C1610 N1608 1.325 . S
C1610 C1611 1.416 . S
C1610 H1616 0.929 . S
C1611 C1609 1.366 . S
C1611 C1610 1.416 . S
C1611 H1613 0.930 . S
H1612 C1601 0.930 . S
H1613 C1611 0.930 . S
H1614 C1629 0.930 1_455 S
H1615 C1636 0.930 1_556 S
H1616 C1610 0.929 . S
H1617 C1609 0.930 . S
H1618 C1632 0.929 . S
H1619 C1599 0.931 . S
H1620 C1605 0.931 . S
H1621 C1606 0.931 . S
H1622 C1627 0.931 . S
H1623 C1602 0.929 . S
H1624 C1635 0.930 . S
N1625 Eu1596 2.600 . S
N1625 C1626 1.365 . S
N1625 C1629 1.319 . S
C1626 N1625 1.365 . S
C1626 C1628 1.405 . S
C1626 C1634 1.448 . S
C1627 H1622 0.931 . S
C1627 C1629 1.397 . S
C1627 C1630 1.367 . S
C1628 C1626 1.405 . S
C1628 C1630 1.403 . S
C1628 C1661 1.439 . S
C1629 H1614 0.930 1_655 S
C1629 N1625 1.319 . S
C1629 C1627 1.397 . S
C1630 C1627 1.367 . S
C1630 C1628 1.403 . S
C1630 H1637 0.929 . S
N1631 Eu1596 2.562 . S
N1631 C1632 1.325 . S
N1631 C1634 1.351 . S
C1632 H1618 0.929 . S
C1632 N1631 1.325 . S
C1632 C1636 1.416 . S
C1633 C1634 1.430 . S
C1633 C1635 1.404 . S
C1633 C1662 1.387 . S
C1634 C1626 1.448 . S
C1634 N1631 1.351 . S
C1634 C1633 1.430 . S
C1635 H1624 0.930 . S
C1635 C1633 1.404 . S
C1635 C1636 1.366 . S
C1636 H1615 0.930 1_554 S
C1636 C1632 1.416 . S
C1636 C1635 1.366 . S
H1637 C1630 0.929 . S
H1638 C1661 0.931 . S
H1639 C1662 0.931 . S
O1640 Eu1596 2.462 . S
O1640 C1660 1.252 . S
O1641 Eu1596 2.373 1_455 S
O1641 C1652 1.249 . S
O1642 Eu1607 2.335 . S
O1642 C1652 1.264 . S
O1643 Eu1596 2.432 . S
O1643 C1660 1.268 . S
O1644 Eu1596 2.291 1_455 S
O1644 C1659 1.255 1_554 S
O1645 Eu1607 2.372 1_556 S
O1645 C1659 1.257 . S
O1646 Eu1607 2.462 . S
O1646 C1671 1.252 . S
O1647 Eu1607 2.373 . S
O1647 C1663 1.249 . S
O1648 Eu1596 2.335 1_455 S
O1648 C1663 1.264 . S
O1649 Eu1607 2.432 1_556 S
O1649 C1671 1.268 1_556 S
O1650 Eu1607 2.291 . S
O1650 C1670 1.255 . S
O1651 Eu1596 2.372 1_455 S
O1651 C1670 1.257 . S
C1652 O1641 1.249 . S
C1652 O1642 1.264 . S
C1653 C1656 1.382 . S
C1653 C1658 1.390 . S
C1653 C1660 1.506 . S
C1654 C1655 1.398 . S
C1654 C1658 1.392 . S
C1655 C1654 1.398 . S
C1655 C1657 1.372 . S
C1655 H1672 0.931 . S
C1656 C1653 1.382 . S
C1656 C1657 1.390 . S
C1656 H1673 0.931 . S
C1657 C1655 1.372 . S
C1657 C1656 1.390 . S
C1657 H1674 0.929 . S
C1658 C1653 1.390 . S
C1658 C1654 1.392 . S
C1658 H1675 0.930 . S
C1659 O1644 1.255 1_556 S
C1659 O1645 1.257 . S
C1660 Eu1596 2.787 . S
C1660 O1640 1.252 . S
C1660 O1643 1.268 . S
C1660 C1653 1.506 . S
C1661 C1628 1.439 . S
C1661 H1638 0.931 . S
C1661 C1662 1.374 . S
C1662 C1633 1.387 . S
C1662 H1639 0.931 . S
C1662 C1661 1.374 . S
C1663 O1647 1.249 . S
C1663 O1648 1.264 . S
C1664 C1667 1.382 1_554 S
C1664 C1668 1.390 . S
C1664 C1671 1.506 . S
C1665 C1666 1.398 1_554 S
C1665 C1668 1.392 . S
C1666 C1665 1.398 1_556 S
C1666 C1669 1.372 . S
C1666 H1676 0.931 . S
C1667 C1664 1.382 1_556 S
C1667 C1669 1.390 . S
C1667 H1677 0.931 . S
C1668 C1664 1.390 . S
C1668 C1665 1.392 . S
C1668 H1678 0.930 . S
C1669 C1666 1.372 . S
C1669 C1667 1.390 . S
C1669 H1679 0.929 . S
C1670 O1650 1.255 . S
C1670 O1651 1.257 . S
C1671 Eu1607 2.787 . S
C1671 O1646 1.252 . S
C1671 O1649 1.268 1_554 S
C1671 C1664 1.506 . S
H1672 C1655 0.931 . S
H1673 C1656 0.931 . S
H1674 C1657 0.929 . S
H1675 C1658 0.930 . S
H1676 C1666 0.931 . S
H1677 C1667 0.931 . S
H1678 C1668 0.930 . S
H1679 C1669 0.929 . S
H1680 C1698 0.951 . S
H1681 C1700 0.951 . S
H1682 C1702 0.950 . S
H1683 C1703 0.950 . S
H1684 C1705 0.950 . S
H1685 C1708 0.950 . S
H1686 C1709 0.950 . S
H1687 C1711 0.950 . S
H1688 C1712 0.950 . S
H1689 C1713 0.951 . S
H1690 C1715 0.951 . S
H1691 C1717 0.950 1_655 S
H1692 C1718 0.946 1_656 S
H1693 C1720 0.950 . S
H1694 C1723 0.950 . S
H1695 C1724 0.950 . S
H1696 C1726 0.950 . S
H1697 C1727 0.950 . S
C1698 H1680 0.951 . S
C1698 C1699 1.359 1_655 S
C1698 C1700 1.388 . S
C1699 C1698 1.359 1_455 S
C1699 C1703 1.395 . S
C1700 H1681 0.951 . S
C1700 C1698 1.388 . S
C1700 C1701 1.366 1_655 S
C1701 C1700 1.366 1_455 S
C1701 C1702 1.414 . S
C1701 C1704 1.499 . S
C1702 H1682 0.950 . S
C1702 C1701 1.414 . S
C1702 C1703 1.374 . S
C1703 H1683 0.950 . S
C1703 C1699 1.395 . S
C1703 C1702 1.374 . S
C1704 C1701 1.499 . S
C1704 C1705 1.373 . S
C1704 C1706 1.389 1_455 S
C1705 H1684 0.950 . S
C1705 C1704 1.373 . S
C1705 C1721 1.377 . S
C1706 C1704 1.389 1_655 S
C1706 C1707 1.524 . S
C1706 C1720 1.377 . S
C1707 C1706 1.524 . S
C1707 C1708 1.397 1_556 S
C1707 C1712 1.363 . S
C1708 H1685 0.950 . S
C1708 C1707 1.397 1_554 S
C1708 C1709 1.334 . S
C1709 H1686 0.950 . S
C1709 C1708 1.334 . S
C1709 C1710 1.287 . S
C1710 C1709 1.287 . S
C1710 C1711 1.524 1_554 S
C1710 H1729 0.913 . S
C1711 H1687 0.950 . S
C1711 C1710 1.524 1_556 S
C1711 C1712 1.415 . S
C1712 H1688 0.950 . S
C1712 C1707 1.363 . S
C1712 C1711 1.415 . S
C1713 H1689 0.951 . S
C1713 C1714 1.366 . S
C1713 C1715 1.388 . S
C1714 C1713 1.366 . S
C1714 C1718 1.404 . S
C1715 H1690 0.951 . S
C1715 C1713 1.388 . S
C1715 C1716 1.338 1_554 S
C1716 C1715 1.338 1_556 S
C1716 C1717 1.421 . S
C1716 C1719 1.520 . S
C1717 H1691 0.950 1_455 S
C1717 C1716 1.421 . S
C1717 C1718 1.360 1_556 S
C1718 H1692 0.946 1_454 S
C1718 C1714 1.404 . S
C1718 C1717 1.360 1_554 S
C1719 C1716 1.520 . S
C1719 C1720 1.373 1_455 S
C1719 C1721 1.389 . S
C1720 H1693 0.950 . S
C1720 C1706 1.377 . S
C1720 C1719 1.373 1_655 S
C1721 C1705 1.377 . S
C1721 C1719 1.389 . S
C1721 C1722 1.524 . S
C1722 C1721 1.524 . S
C1722 C1723 1.397 . S
C1722 C1727 1.363 . S
C1723 H1694 0.950 . S
C1723 C1722 1.397 . S
C1723 C1724 1.334 . S
C1724 H1695 0.950 . S
C1724 C1723 1.334 . S
C1724 C1725 1.287 . S
C1725 C1724 1.287 . S
C1725 C1726 1.524 . S
C1725 H1728 0.999 . S
C1726 H1696 0.950 . S
C1726 C1725 1.524 . S
C1726 C1727 1.415 . S
C1727 H1697 0.950 . S
C1727 C1722 1.363 . S
C1727 C1726 1.415 . S
H1728 C1725 0.999 . S
H1729 C1710 0.913 . S
H1730 C1748 0.951 . S
H1731 C1750 0.951 . S
H1732 C1752 0.950 . S
H1733 C1753 0.950 . S
H1734 C1755 0.950 . S
H1735 C1758 0.950 . S
H1736 C1759 0.950 . S
H1737 C1761 0.950 . S
H1738 C1762 0.950 . S
H1739 C1763 0.951 . S
H1740 C1765 0.951 . S
H1741 C1767 0.950 . S
H1742 C1768 0.950 . S
H1743 C1770 0.950 . S
H1744 C1773 0.950 . S
H1745 C1774 0.950 . S
H1746 C1776 0.950 . S
H1747 C1777 0.950 . S
C1748 H1730 0.951 . S
C1748 C1749 1.366 . S
C1748 C1750 1.388 . S
C1749 C1748 1.366 . S
C1749 C1753 1.385 . S
C1750 H1731 0.951 . S
C1750 C1748 1.388 . S
C1750 C1751 1.366 . S
C1751 C1750 1.366 . S
C1751 C1752 1.414 . S
C1751 C1754 1.499 . S
C1752 H1732 0.950 . S
C1752 C1751 1.414 . S
C1752 C1753 1.374 . S
C1753 H1733 0.950 . S
C1753 C1749 1.385 . S
C1753 C1752 1.374 . S
C1754 C1751 1.499 . S
C1754 C1755 1.373 . S
C1754 C1756 1.389 . S
C1755 H1734 0.950 . S
C1755 C1754 1.373 . S
C1755 C1771 1.377 . S
C1756 C1754 1.389 . S
C1756 C1757 1.524 . S
C1756 C1770 1.377 . S
C1757 C1756 1.524 . S
C1757 C1758 1.397 . S
C1757 C1762 1.363 . S
C1758 H1735 0.950 . S
C1758 C1757 1.397 . S
C1758 C1759 1.334 . S
C1759 H1736 0.950 . S
C1759 C1758 1.334 . S
C1759 C1760 1.287 . S
C1760 C1759 1.287 . S
C1760 C1761 1.524 . S
C1760 H1779 0.913 . S
C1761 H1737 0.950 . S
C1761 C1760 1.524 . S
C1761 C1762 1.415 . S
C1762 H1738 0.950 . S
C1762 C1757 1.363 . S
C1762 C1761 1.415 . S
C1763 H1739 0.951 . S
C1763 C1764 1.366 . S
C1763 C1765 1.388 . S
C1764 C1763 1.366 . S
C1764 C1768 1.385 . S
C1765 H1740 0.951 . S
C1765 C1763 1.388 . S
C1765 C1766 1.366 . S
C1766 C1765 1.366 . S
C1766 C1767 1.414 . S
C1766 C1769 1.499 . S
C1767 H1741 0.950 . S
C1767 C1766 1.414 . S
C1767 C1768 1.374 . S
C1768 H1742 0.950 . S
C1768 C1764 1.385 . S
C1768 C1767 1.374 . S
C1769 C1766 1.499 . S
C1769 C1770 1.373 . S
C1769 C1771 1.389 . S
C1770 H1743 0.950 . S
C1770 C1756 1.377 . S
C1770 C1769 1.373 . S
C1771 C1755 1.377 . S
C1771 C1769 1.389 . S
C1771 C1772 1.524 . S
C1772 C1771 1.524 . S
C1772 C1773 1.397 . S
C1772 C1777 1.363 . S
C1773 H1744 0.950 . S
C1773 C1772 1.397 . S
C1773 C1774 1.334 . S
C1774 H1745 0.950 . S
C1774 C1773 1.334 . S
C1774 C1775 1.287 . S
C1775 C1774 1.287 . S
C1775 C1776 1.524 . S
C1775 H1778 0.999 . S
C1776 H1746 0.950 . S
C1776 C1775 1.524 . S
C1776 C1777 1.415 . S
C1777 H1747 0.950 . S
C1777 C1772 1.363 . S
C1777 C1776 1.415 . S
H1778 C1775 0.999 . S
H1779 C1760 0.913 . S
H1780 C1798 0.951 . S
H1781 C1800 0.951 . S
H1782 C1802 0.950 . S
H1783 C1803 0.950 . S
H1784 C1805 0.950 . S
H1785 C1808 0.950 . S
H1786 C1809 0.950 . S
H1787 C1811 0.950 . S
H1788 C1812 0.950 . S
H1789 C1813 0.951 . S
H1790 C1815 0.951 . S
H1791 C1817 0.950 . S
H1792 C1818 0.950 . S
H1793 C1820 0.950 . S
H1794 C1823 0.950 . S
H1795 C1824 0.950 . S
H1796 C1826 0.950 . S
H1797 C1827 0.950 . S
C1798 H1780 0.951 . S
C1798 C1799 1.366 . S
C1798 C1800 1.388 . S
C1799 C1798 1.366 . S
C1799 C1803 1.385 . S
C1800 H1781 0.951 . S
C1800 C1798 1.388 . S
C1800 C1801 1.366 . S
C1801 C1800 1.366 . S
C1801 C1802 1.414 . S
C1801 C1804 1.499 . S
C1802 H1782 0.950 . S
C1802 C1801 1.414 . S
C1802 C1803 1.374 . S
C1803 H1783 0.950 . S
C1803 C1799 1.385 . S
C1803 C1802 1.374 . S
C1804 C1801 1.499 . S
C1804 C1805 1.373 . S
C1804 C1806 1.389 . S
C1805 H1784 0.950 . S
C1805 C1804 1.373 . S
C1805 C1821 1.377 . S
C1806 C1804 1.389 . S
C1806 C1807 1.524 . S
C1806 C1820 1.377 . S
C1807 C1806 1.524 . S
C1807 C1808 1.397 . S
C1807 C1812 1.363 . S
C1808 H1785 0.950 . S
C1808 C1807 1.397 . S
C1808 C1809 1.334 . S
C1809 H1786 0.950 . S
C1809 C1808 1.334 . S
C1809 C1810 1.287 . S
C1810 C1809 1.287 . S
C1810 C1811 1.524 . S
C1810 H1829 0.913 . S
C1811 H1787 0.950 . S
C1811 C1810 1.524 . S
C1811 C1812 1.415 . S
C1812 H1788 0.950 . S
C1812 C1807 1.363 . S
C1812 C1811 1.415 . S
C1813 H1789 0.951 . S
C1813 C1814 1.366 . S
C1813 C1815 1.388 . S
C1814 C1813 1.366 . S
C1814 C1818 1.385 . S
C1815 H1790 0.951 . S
C1815 C1813 1.388 . S
C1815 C1816 1.366 . S
C1816 C1815 1.366 . S
C1816 C1817 1.414 . S
C1816 C1819 1.499 . S
C1817 H1791 0.950 . S
C1817 C1816 1.414 . S
C1817 C1818 1.374 . S
C1818 H1792 0.950 . S
C1818 C1814 1.385 . S
C1818 C1817 1.374 . S
C1819 C1816 1.499 . S
C1819 C1820 1.373 . S
C1819 C1821 1.389 . S
C1820 H1793 0.950 . S
C1820 C1806 1.377 . S
C1820 C1819 1.373 . S
C1821 C1805 1.377 . S
C1821 C1819 1.389 . S
C1821 C1822 1.524 . S
C1822 C1821 1.524 . S
C1822 C1823 1.397 . S
C1822 C1827 1.363 . S
C1823 H1794 0.950 . S
C1823 C1822 1.397 . S
C1823 C1824 1.334 . S
C1824 H1795 0.950 . S
C1824 C1823 1.334 . S
C1824 C1825 1.287 . S
C1825 C1824 1.287 . S
C1825 C1826 1.524 . S
C1825 H1828 0.999 . S
C1826 H1796 0.950 . S
C1826 C1825 1.524 . S
C1826 C1827 1.415 . S
C1827 H1797 0.950 . S
C1827 C1822 1.363 . S
C1827 C1826 1.415 . S
H1828 C1825 0.999 . S
H1829 C1810 0.913 . S
H1830 C1848 0.951 . S
H1831 C1850 0.951 . S
H1832 C1852 0.950 . S
H1833 C1853 0.950 . S
H1834 C1855 0.950 . S
H1835 C1858 0.950 . S
H1836 C1859 0.950 . S
H1837 C1861 0.950 . S
H1838 C1862 0.950 . S
H1839 C1863 0.951 . S
H1840 C1865 0.951 . S
H1841 C1867 0.950 . S
H1842 C1868 0.950 . S
H1843 C1870 0.950 . S
H1844 C1873 0.950 . S
H1845 C1874 0.950 . S
H1846 C1876 0.950 . S
H1847 C1877 0.950 . S
C1848 H1830 0.951 . S
C1848 C1849 1.366 . S
C1848 C1850 1.388 . S
C1849 C1848 1.366 . S
C1849 C1853 1.385 . S
C1850 H1831 0.951 . S
C1850 C1848 1.388 . S
C1850 C1851 1.366 . S
C1851 C1850 1.366 . S
C1851 C1852 1.414 . S
C1851 C1854 1.499 . S
C1852 H1832 0.950 . S
C1852 C1851 1.414 . S
C1852 C1853 1.374 . S
C1853 H1833 0.950 . S
C1853 C1849 1.385 . S
C1853 C1852 1.374 . S
C1854 C1851 1.499 . S
C1854 C1855 1.373 . S
C1854 C1856 1.389 . S
C1855 H1834 0.950 . S
C1855 C1854 1.373 . S
C1855 C1871 1.377 . S
C1856 C1854 1.389 . S
C1856 C1857 1.524 . S
C1856 C1870 1.377 . S
C1857 C1856 1.524 . S
C1857 C1858 1.397 . S
C1857 C1862 1.363 . S
C1858 H1835 0.950 . S
C1858 C1857 1.397 . S
C1858 C1859 1.334 . S
C1859 H1836 0.950 . S
C1859 C1858 1.334 . S
C1859 C1860 1.287 . S
C1860 C1859 1.287 . S
C1860 C1861 1.524 . S
C1860 H1879 0.913 . S
C1861 H1837 0.950 . S
C1861 C1860 1.524 . S
C1861 C1862 1.415 . S
C1862 H1838 0.950 . S
C1862 C1857 1.363 . S
C1862 C1861 1.415 . S
C1863 H1839 0.951 . S
C1863 C1864 1.366 . S
C1863 C1865 1.388 . S
C1864 C1863 1.366 . S
C1864 C1868 1.385 . S
C1865 H1840 0.951 . S
C1865 C1863 1.388 . S
C1865 C1866 1.366 . S
C1866 C1865 1.366 . S
C1866 C1867 1.414 . S
C1866 C1869 1.499 . S
C1867 H1841 0.950 . S
C1867 C1866 1.414 . S
C1867 C1868 1.374 . S
C1868 H1842 0.950 . S
C1868 C1864 1.385 . S
C1868 C1867 1.374 . S
C1869 C1866 1.499 . S
C1869 C1870 1.373 . S
C1869 C1871 1.389 . S
C1870 H1843 0.950 . S
C1870 C1856 1.377 . S
C1870 C1869 1.373 . S
C1871 C1855 1.377 . S
C1871 C1869 1.389 . S
C1871 C1872 1.524 . S
C1872 C1871 1.524 . S
C1872 C1873 1.397 . S
C1872 C1877 1.363 . S
C1873 H1844 0.950 . S
C1873 C1872 1.397 . S
C1873 C1874 1.334 . S
C1874 H1845 0.950 . S
C1874 C1873 1.334 . S
C1874 C1875 1.287 . S
C1875 C1874 1.287 . S
C1875 C1876 1.524 . S
C1875 H1878 0.999 . S
C1876 H1846 0.950 . S
C1876 C1875 1.524 . S
C1876 C1877 1.415 . S
C1877 H1847 0.950 . S
C1877 C1872 1.363 . S
C1877 C1876 1.415 . S
H1878 C1875 0.999 . S
H1879 C1860 0.913 . S
H1880 C1898 0.951 1_655 S
H1881 C1900 0.951 1_655 S
H1882 C1902 0.950 . S
H1883 C1903 0.950 . S
H1884 C1905 0.950 . S
H1885 C1908 0.950 . S
H1886 C1909 0.950 . S
H1887 C1911 0.950 . S
H1888 C1912 0.950 . S
H1889 C1913 0.951 . S
H1890 C1915 0.951 . S
H1891 C1917 0.950 . S
H1892 C1918 0.950 . S
H1893 C1920 0.950 1_655 S
H1894 C1923 0.950 . S
H1895 C1924 0.950 . S
H1896 C1926 0.950 . S
H1897 C1927 0.950 . S
C1898 H1880 0.951 1_455 S
C1898 C1899 1.366 . S
C1898 C1900 1.388 . S
C1899 C1898 1.366 . S
C1899 C1903 1.385 . S
C1900 H1881 0.951 1_455 S
C1900 C1898 1.388 . S
C1900 C1901 1.366 . S
C1901 C1900 1.366 . S
C1901 C1902 1.414 . S
C1901 C1904 1.499 . S
C1902 H1882 0.950 . S
C1902 C1901 1.414 . S
C1902 C1903 1.374 . S
C1903 H1883 0.950 . S
C1903 C1899 1.385 . S
C1903 C1902 1.374 . S
C1904 C1901 1.499 . S
C1904 C1905 1.373 . S
C1904 C1906 1.389 . S
C1905 H1884 0.950 . S
C1905 C1904 1.373 . S
C1905 C1921 1.377 . S
C1906 C1904 1.389 . S
C1906 C1907 1.524 1_455 S
C1906 C1920 1.377 . S
C1907 C1906 1.524 1_655 S
C1907 C1908 1.397 . S
C1907 C1912 1.363 . S
C1908 H1885 0.950 . S
C1908 C1907 1.397 . S
C1908 C1909 1.334 . S
C1909 H1886 0.950 . S
C1909 C1908 1.334 . S
C1909 C1910 1.287 . S
C1910 C1909 1.287 . S
C1910 C1911 1.524 . S
C1910 H1929 0.913 . S
C1911 H1887 0.950 . S
C1911 C1910 1.524 . S
C1911 C1912 1.415 . S
C1912 H1888 0.950 . S
C1912 C1907 1.363 . S
C1912 C1911 1.415 . S
C1913 H1889 0.951 . S
C1913 C1914 1.366 . S
C1913 C1915 1.388 . S
C1914 C1913 1.366 . S
C1914 C1918 1.385 . S
C1915 H1890 0.951 . S
C1915 C1913 1.388 . S
C1915 C1916 1.366 . S
C1916 C1915 1.366 . S
C1916 C1917 1.414 . S
C1916 C1919 1.499 . S
C1917 H1891 0.950 . S
C1917 C1916 1.414 . S
C1917 C1918 1.374 . S
C1918 H1892 0.950 . S
C1918 C1914 1.385 . S
C1918 C1917 1.374 . S
C1919 C1916 1.499 . S
C1919 C1920 1.373 . S
C1919 C1921 1.389 . S
C1920 H1893 0.950 1_455 S
C1920 C1906 1.377 . S
C1920 C1919 1.373 . S
C1921 C1905 1.377 . S
C1921 C1919 1.389 . S
C1921 C1922 1.524 . S
C1922 C1921 1.524 . S
C1922 C1923 1.397 . S
C1922 C1927 1.363 . S
C1923 H1894 0.950 . S
C1923 C1922 1.397 . S
C1923 C1924 1.334 . S
C1924 H1895 0.950 . S
C1924 C1923 1.334 . S
C1924 C1925 1.287 . S
C1925 C1924 1.287 . S
C1925 C1926 1.524 . S
C1925 H1928 0.999 . S
C1926 H1896 0.950 . S
C1926 C1925 1.524 . S
C1926 C1927 1.415 . S
C1927 H1897 0.950 . S
C1927 C1922 1.363 . S
C1927 C1926 1.415 . S
H1928 C1925 0.999 . S
H1929 C1910 0.913 . S
H1930 C1948 0.951 . S
H1931 C1950 0.951 . S
H1932 C1952 0.950 . S
H1933 C1953 0.950 . S
H1934 C1955 0.950 . S
H1935 C1958 0.950 . S
H1936 C1959 0.950 . S
H1937 C1961 0.950 . S
H1938 C1962 0.950 . S
H1939 C1963 0.951 . S
H1940 C1965 0.951 . S
H1941 C1967 0.950 . S
H1942 C1968 0.950 . S
H1943 C1970 0.950 . S
H1944 C1973 0.950 . S
H1945 C1974 0.950 . S
H1946 C1976 0.950 . S
H1947 C1977 0.950 . S
C1948 H1930 0.951 . S
C1948 C1949 1.366 . S
C1948 C1950 1.388 . S
C1949 C1948 1.366 . S
C1949 C1953 1.385 . S
C1950 H1931 0.951 . S
C1950 C1948 1.388 . S
C1950 C1951 1.366 . S
C1951 C1950 1.366 . S
C1951 C1952 1.414 . S
C1951 C1954 1.499 . S
C1952 H1932 0.950 . S
C1952 C1951 1.414 . S
C1952 C1953 1.374 . S
C1953 H1933 0.950 . S
C1953 C1949 1.385 . S
C1953 C1952 1.374 . S
C1954 C1951 1.499 . S
C1954 C1955 1.373 . S
C1954 C1956 1.389 . S
C1955 H1934 0.950 . S
C1955 C1954 1.373 . S
C1955 C1971 1.377 . S
C1956 C1954 1.389 . S
C1956 C1957 1.524 . S
C1956 C1970 1.377 . S
C1957 C1956 1.524 . S
C1957 C1958 1.397 . S
C1957 C1962 1.363 . S
C1958 H1935 0.950 . S
C1958 C1957 1.397 . S
C1958 C1959 1.334 . S
C1959 H1936 0.950 . S
C1959 C1958 1.334 . S
C1959 C1960 1.287 . S
C1960 C1959 1.287 . S
C1960 C1961 1.524 . S
C1960 H1979 0.913 . S
C1961 H1937 0.950 . S
C1961 C1960 1.524 . S
C1961 C1962 1.415 . S
C1962 H1938 0.950 . S
C1962 C1957 1.363 . S
C1962 C1961 1.415 . S
C1963 H1939 0.951 . S
C1963 C1964 1.366 . S
C1963 C1965 1.388 . S
C1964 C1963 1.366 . S
C1964 C1968 1.385 . S
C1965 H1940 0.951 . S
C1965 C1963 1.388 . S
C1965 C1966 1.366 . S
C1966 C1965 1.366 . S
C1966 C1967 1.414 . S
C1966 C1969 1.499 . S
C1967 H1941 0.950 . S
C1967 C1966 1.414 . S
C1967 C1968 1.374 . S
C1968 H1942 0.950 . S
C1968 C1964 1.385 . S
C1968 C1967 1.374 . S
C1969 C1966 1.499 . S
C1969 C1970 1.373 . S
C1969 C1971 1.389 . S
C1970 H1943 0.950 . S
C1970 C1956 1.377 . S
C1970 C1969 1.373 . S
C1971 C1955 1.377 . S
C1971 C1969 1.389 . S
C1971 C1972 1.524 . S
C1972 C1971 1.524 . S
C1972 C1973 1.397 . S
C1972 C1977 1.363 . S
C1973 H1944 0.950 . S
C1973 C1972 1.397 . S
C1973 C1974 1.334 . S
C1974 H1945 0.950 . S
C1974 C1973 1.334 . S
C1974 C1975 1.287 . S
C1975 C1974 1.287 . S
C1975 C1976 1.524 . S
C1975 H1978 0.999 . S
C1976 H1946 0.950 . S
C1976 C1975 1.524 . S
C1976 C1977 1.415 . S
C1977 H1947 0.950 . S
C1977 C1972 1.363 . S
C1977 C1976 1.415 . S
H1978 C1975 0.999 . S
H1979 C1960 0.913 . S
H1980 C1998 0.951 . S
H1981 C2000 0.951 . S
H1982 C2002 0.950 . S
H1983 C2003 0.950 . S
H1984 C2005 0.950 . S
H1985 C2008 0.950 . S
H1986 C2009 0.950 . S
H1987 C2011 0.950 . S
H1988 C2012 0.950 . S
H1989 C2013 0.951 . S
H1990 C2015 0.951 . S
H1991 C2017 0.950 . S
H1992 C2018 0.950 . S
H1993 C2020 0.950 . S
H1994 C2023 0.950 . S
H1995 C2024 0.950 . S
H1996 C2026 0.950 . S
H1997 C2027 0.950 . S
C1998 H1980 0.951 . S
C1998 C1999 1.366 . S
C1998 C2000 1.388 . S
C1999 C1998 1.366 . S
C1999 C2003 1.385 . S
C2000 H1981 0.951 . S
C2000 C1998 1.388 . S
C2000 C2001 1.366 . S
C2001 C2000 1.366 . S
C2001 C2002 1.414 . S
C2001 C2004 1.499 . S
C2002 H1982 0.950 . S
C2002 C2001 1.414 . S
C2002 C2003 1.374 . S
C2003 H1983 0.950 . S
C2003 C1999 1.385 . S
C2003 C2002 1.374 . S
C2004 C2001 1.499 . S
C2004 C2005 1.373 . S
C2004 C2006 1.389 . S
C2005 H1984 0.950 . S
C2005 C2004 1.373 . S
C2005 C2021 1.377 . S
C2006 C2004 1.389 . S
C2006 C2007 1.524 . S
C2006 C2020 1.377 . S
C2007 C2006 1.524 . S
C2007 C2008 1.397 . S
C2007 C2012 1.363 . S
C2008 H1985 0.950 . S
C2008 C2007 1.397 . S
C2008 C2009 1.334 . S
C2009 H1986 0.950 . S
C2009 C2008 1.334 . S
C2009 C2010 1.287 . S
C2010 C2009 1.287 . S
C2010 C2011 1.524 . S
C2010 H2029 0.913 . S
C2011 H1987 0.950 . S
C2011 C2010 1.524 . S
C2011 C2012 1.415 . S
C2012 H1988 0.950 . S
C2012 C2007 1.363 . S
C2012 C2011 1.415 . S
C2013 H1989 0.951 . S
C2013 C2014 1.366 . S
C2013 C2015 1.388 . S
C2014 C2013 1.366 . S
C2014 C2018 1.385 . S
C2015 H1990 0.951 . S
C2015 C2013 1.388 . S
C2015 C2016 1.366 . S
C2016 C2015 1.366 . S
C2016 C2017 1.414 . S
C2016 C2019 1.499 . S
C2017 H1991 0.950 . S
C2017 C2016 1.414 . S
C2017 C2018 1.374 . S
C2018 H1992 0.950 . S
C2018 C2014 1.385 . S
C2018 C2017 1.374 . S
C2019 C2016 1.499 . S
C2019 C2020 1.373 . S
C2019 C2021 1.389 . S
C2020 H1993 0.950 . S
C2020 C2006 1.377 . S
C2020 C2019 1.373 . S
C2021 C2005 1.377 . S
C2021 C2019 1.389 . S
C2021 C2022 1.524 . S
C2022 C2021 1.524 . S
C2022 C2023 1.397 . S
C2022 C2027 1.363 . S
C2023 H1994 0.950 . S
C2023 C2022 1.397 . S
C2023 C2024 1.334 . S
C2024 H1995 0.950 . S
C2024 C2023 1.334 . S
C2024 C2025 1.287 . S
C2025 C2024 1.287 . S
C2025 C2026 1.524 . S
C2025 H2028 0.999 . S
C2026 H1996 0.950 . S
C2026 C2025 1.524 . S
C2026 C2027 1.415 . S
C2027 H1997 0.950 . S
C2027 C2022 1.363 . S
C2027 C2026 1.415 . S
H2028 C2025 0.999 . S
H2029 C2010 0.913 . S
H2030 C2048 0.951 . S
H2031 C2050 0.951 . S
H2032 C2052 0.950 . S
H2033 C2053 0.950 . S
H2034 C2055 0.950 . S
H2035 C2058 0.950 . S
H2036 C2059 0.950 . S
H2037 C2061 0.950 . S
H2038 C2062 0.950 . S
H2039 C2063 0.951 . S
H2040 C2065 0.951 . S
H2041 C2067 0.950 . S
H2042 C2068 0.950 . S
H2043 C2070 0.950 . S
H2044 C2073 0.950 . S
H2045 C2074 0.950 . S
H2046 C2076 0.950 . S
H2047 C2077 0.950 . S
C2048 H2030 0.951 . S
C2048 C2049 1.366 . S
C2048 C2050 1.388 . S
C2049 C2048 1.366 . S
C2049 C2053 1.385 . S
C2050 H2031 0.951 . S
C2050 C2048 1.388 . S
C2050 C2051 1.366 . S
C2051 C2050 1.366 . S
C2051 C2052 1.414 . S
C2051 C2054 1.499 . S
C2052 H2032 0.950 . S
C2052 C2051 1.414 . S
C2052 C2053 1.374 . S
C2053 H2033 0.950 . S
C2053 C2049 1.385 . S
C2053 C2052 1.374 . S
C2054 C2051 1.499 . S
C2054 C2055 1.373 . S
C2054 C2056 1.389 . S
C2055 H2034 0.950 . S
C2055 C2054 1.373 . S
C2055 C2071 1.377 . S
C2056 C2054 1.389 . S
C2056 C2057 1.524 . S
C2056 C2070 1.377 . S
C2057 C2056 1.524 . S
C2057 C2058 1.397 . S
C2057 C2062 1.363 . S
C2058 H2035 0.950 . S
C2058 C2057 1.397 . S
C2058 C2059 1.334 . S
C2059 H2036 0.950 . S
C2059 C2058 1.334 . S
C2059 C2060 1.287 . S
C2060 C2059 1.287 . S
C2060 C2061 1.524 . S
C2060 H2079 0.913 . S
C2061 H2037 0.950 . S
C2061 C2060 1.524 . S
C2061 C2062 1.415 . S
C2062 H2038 0.950 . S
C2062 C2057 1.363 . S
C2062 C2061 1.415 . S
C2063 H2039 0.951 . S
C2063 C2064 1.366 . S
C2063 C2065 1.388 . S
C2064 C2063 1.366 . S
C2064 C2068 1.385 . S
C2065 H2040 0.951 . S
C2065 C2063 1.388 . S
C2065 C2066 1.366 . S
C2066 C2065 1.366 . S
C2066 C2067 1.414 . S
C2066 C2069 1.499 . S
C2067 H2041 0.950 . S
C2067 C2066 1.414 . S
C2067 C2068 1.374 . S
C2068 H2042 0.950 . S
C2068 C2064 1.385 . S
C2068 C2067 1.374 . S
C2069 C2066 1.499 . S
C2069 C2070 1.373 . S
C2069 C2071 1.389 . S
C2070 H2043 0.950 . S
C2070 C2056 1.377 . S
C2070 C2069 1.373 . S
C2071 C2055 1.377 . S
C2071 C2069 1.389 . S
C2071 C2072 1.524 . S
C2072 C2071 1.524 . S
C2072 C2073 1.397 . S
C2072 C2077 1.363 . S
C2073 H2044 0.950 . S
C2073 C2072 1.397 . S
C2073 C2074 1.334 . S
C2074 H2045 0.950 . S
C2074 C2073 1.334 . S
C2074 C2075 1.287 . S
C2075 C2074 1.287 . S
C2075 C2076 1.524 . S
C2075 H2078 0.999 . S
C2076 H2046 0.950 . S
C2076 C2075 1.524 . S
C2076 C2077 1.415 . S
C2077 H2047 0.950 . S
C2077 C2072 1.363 . S
C2077 C2076 1.415 . S
H2078 C2075 0.999 . S
H2079 C2060 0.913 . S
H2080 C2098 0.951 1_565 S
H2081 C2100 0.951 1_565 S
H2082 C2102 0.950 . S
H2083 C2103 0.950 . S
H2084 C2105 0.950 . S
H2085 C2108 0.950 . S
H2086 C2109 0.950 . S
H2087 C2111 0.950 1_565 S
H2088 C2112 0.950 1_565 S
H2089 C2113 0.951 . S
H2090 C2115 0.951 . S
H2091 C2117 0.949 1_455 S
H2092 C2118 0.950 . S
H2093 C2120 0.896 1_455 S
H2094 C2123 0.950 . S
H2095 C2124 0.950 . S
H2096 C2126 0.950 . S
H2097 C2127 0.950 . S
C2098 H2080 0.951 1_545 S
C2098 C2099 1.366 . S
C2098 C2100 1.388 . S
C2099 C2098 1.366 . S
C2099 C2103 1.385 . S
C2100 H2081 0.951 1_545 S
C2100 C2098 1.388 . S
C2100 C2101 1.366 . S
C2101 C2100 1.366 . S
C2101 C2102 1.414 . S
C2101 C2104 1.499 . S
C2102 H2082 0.950 . S
C2102 C2101 1.414 . S
C2102 C2103 1.374 . S
C2103 H2083 0.950 . S
C2103 C2099 1.385 . S
C2103 C2102 1.374 . S
C2104 C2101 1.499 . S
C2104 C2105 1.373 . S
C2104 C2106 1.389 . S
C2105 H2084 0.950 . S
C2105 C2104 1.373 . S
C2105 C2121 1.377 . S
C2106 C2104 1.389 . S
C2106 C2107 1.524 . S
C2106 C2120 1.377 . S
C2107 C2106 1.524 . S
C2107 C2108 1.397 . S
C2107 C2112 1.363 1_655 S
C2108 H2085 0.950 . S
C2108 C2107 1.397 . S
C2108 C2109 1.334 1_655 S
C2109 H2086 0.950 . S
C2109 C2108 1.334 1_455 S
C2109 C2110 1.287 . S
C2110 C2109 1.287 . S
C2110 C2111 1.524 . S
C2110 H2129 0.913 . S
C2111 H2087 0.950 1_545 S
C2111 C2110 1.524 . S
C2111 C2112 1.415 . S
C2112 H2088 0.950 1_545 S
C2112 C2107 1.363 1_455 S
C2112 C2111 1.415 . S
C2113 H2089 0.951 . S
C2113 C2114 1.366 1_655 S
C2113 C2115 1.388 . S
C2114 C2113 1.366 1_455 S
C2114 C2118 1.385 . S
C2115 H2090 0.951 . S
C2115 C2113 1.388 . S
C2115 C2116 1.366 . S
C2116 C2115 1.366 . S
C2116 C2117 1.414 . S
C2116 C2119 1.499 . S
C2117 H2091 0.949 1_655 S
C2117 C2116 1.414 . S
C2117 C2118 1.374 1_655 S
C2118 H2092 0.950 . S
C2118 C2114 1.385 . S
C2118 C2117 1.374 1_455 S
C2119 C2116 1.499 . S
C2119 C2120 1.373 . S
C2119 C2121 1.389 . S
C2120 H2093 0.896 1_655 S
C2120 C2106 1.377 . S
C2120 C2119 1.373 . S
C2121 C2105 1.377 . S
C2121 C2119 1.389 . S
C2121 C2122 1.524 . S
C2122 C2121 1.524 . S
C2122 C2123 1.397 . S
C2122 C2127 1.363 . S
C2123 H2094 0.950 . S
C2123 C2122 1.397 . S
C2123 C2124 1.334 . S
C2124 H2095 0.950 . S
C2124 C2123 1.334 . S
C2124 C2125 1.287 . S
C2125 C2124 1.287 . S
C2125 C2126 1.524 . S
C2125 H2128 0.999 . S
C2126 H2096 0.950 . S
C2126 C2125 1.524 . S
C2126 C2127 1.415 . S
C2127 H2097 0.950 . S
C2127 C2122 1.363 . S
C2127 C2126 1.415 . S
H2128 C2125 0.999 . S
H2129 C2110 0.913 . S
H2130 C2148 0.951 . S
H2131 C2150 0.951 . S
H2132 C2152 0.950 . S
H2133 C2153 0.950 . S
H2134 C2155 0.950 . S
H2135 C2158 0.950 . S
H2136 C2159 0.950 . S
H2137 C2161 0.950 . S
H2138 C2162 0.950 . S
H2139 C2163 0.951 . S
H2140 C2165 0.951 . S
H2141 C2167 0.950 . S
H2142 C2168 0.950 . S
H2143 C2170 0.950 . S
H2144 C2173 0.950 . S
H2145 C2174 0.950 . S
H2146 C2176 0.950 . S
H2147 C2177 0.950 . S
C2148 H2130 0.951 . S
C2148 C2149 1.366 . S
C2148 C2150 1.388 . S
C2149 C2148 1.366 . S
C2149 C2153 1.385 . S
C2150 H2131 0.951 . S
C2150 C2148 1.388 . S
C2150 C2151 1.366 . S
C2151 C2150 1.366 . S
C2151 C2152 1.414 . S
C2151 C2154 1.499 . S
C2152 H2132 0.950 . S
C2152 C2151 1.414 . S
C2152 C2153 1.374 . S
C2153 H2133 0.950 . S
C2153 C2149 1.385 . S
C2153 C2152 1.374 . S
C2154 C2151 1.499 . S
C2154 C2155 1.373 . S
C2154 C2156 1.389 . S
C2155 H2134 0.950 . S
C2155 C2154 1.373 . S
C2155 C2171 1.377 . S
C2156 C2154 1.389 . S
C2156 C2157 1.524 . S
C2156 C2170 1.377 . S
C2157 C2156 1.524 . S
C2157 C2158 1.397 . S
C2157 C2162 1.363 . S
C2158 H2135 0.950 . S
C2158 C2157 1.397 . S
C2158 C2159 1.334 . S
C2159 H2136 0.950 . S
C2159 C2158 1.334 . S
C2159 C2160 1.287 . S
C2160 C2159 1.287 . S
C2160 C2161 1.524 . S
C2160 H2179 0.913 . S
C2161 H2137 0.950 . S
C2161 C2160 1.524 . S
C2161 C2162 1.415 . S
C2162 H2138 0.950 . S
C2162 C2157 1.363 . S
C2162 C2161 1.415 . S
C2163 H2139 0.951 . S
C2163 C2164 1.366 . S
C2163 C2165 1.388 . S
C2164 C2163 1.366 . S
C2164 C2168 1.385 . S
C2165 H2140 0.951 . S
C2165 C2163 1.388 . S
C2165 C2166 1.366 . S
C2166 C2165 1.366 . S
C2166 C2167 1.414 . S
C2166 C2169 1.499 . S
C2167 H2141 0.950 . S
C2167 C2166 1.414 . S
C2167 C2168 1.374 . S
C2168 H2142 0.950 . S
C2168 C2164 1.385 . S
C2168 C2167 1.374 . S
C2169 C2166 1.499 . S
C2169 C2170 1.373 . S
C2169 C2171 1.389 . S
C2170 H2143 0.950 . S
C2170 C2156 1.377 . S
C2170 C2169 1.373 . S
C2171 C2155 1.377 . S
C2171 C2169 1.389 . S
C2171 C2172 1.524 . S
C2172 C2171 1.524 . S
C2172 C2173 1.397 . S
C2172 C2177 1.363 . S
C2173 H2144 0.950 . S
C2173 C2172 1.397 . S
C2173 C2174 1.334 . S
C2174 H2145 0.950 . S
C2174 C2173 1.334 . S
C2174 C2175 1.287 . S
C2175 C2174 1.287 . S
C2175 C2176 1.524 . S
C2175 H2178 0.999 . S
C2176 H2146 0.950 . S
C2176 C2175 1.524 . S
C2176 C2177 1.415 . S
C2177 H2147 0.950 . S
C2177 C2172 1.363 . S
C2177 C2176 1.415 . S
H2178 C2175 0.999 . S
H2179 C2160 0.913 . S
H2180 C2198 0.951 . S
H2181 C2200 0.951 . S
H2182 C2202 0.950 . S
H2183 C2203 0.950 . S
H2184 C2205 0.950 . S
H2185 C2208 0.950 . S
H2186 C2209 0.950 . S
H2187 C2211 0.950 . S
H2188 C2212 0.950 . S
H2189 C2213 0.978 . S
H2190 C2215 0.951 . S
H2191 C2217 0.950 . S
H2192 C2218 0.950 . S
H2193 C2220 0.950 . S
H2194 C2223 0.977 . S
H2195 C2224 0.950 . S
H2196 C2226 0.950 . S
H2197 C2227 0.950 . S
C2198 H2180 0.951 . S
C2198 C2199 1.366 . S
C2198 C2200 1.388 . S
C2199 C2198 1.366 . S
C2199 C2203 1.385 . S
C2200 H2181 0.951 . S
C2200 C2198 1.388 . S
C2200 C2201 1.366 . S
C2201 C2200 1.366 . S
C2201 C2202 1.414 . S
C2201 C2204 1.499 . S
C2202 H2182 0.950 . S
C2202 C2201 1.414 . S
C2202 C2203 1.374 . S
C2203 H2183 0.950 . S
C2203 C2199 1.385 . S
C2203 C2202 1.374 . S
C2204 C2201 1.499 . S
C2204 C2205 1.373 . S
C2204 C2206 1.389 . S
C2205 H2184 0.950 . S
C2205 C2204 1.373 . S
C2205 C2221 1.377 . S
C2206 C2204 1.389 . S
C2206 C2207 1.524 . S
C2206 C2220 1.377 . S
C2207 C2206 1.524 . S
C2207 C2208 1.397 . S
C2207 C2212 1.363 . S
C2208 H2185 0.950 . S
C2208 C2207 1.397 . S
C2208 C2209 1.334 . S
C2209 H2186 0.950 . S
C2209 C2208 1.334 . S
C2209 C2210 1.287 . S
C2210 C2209 1.287 . S
C2210 C2211 1.524 . S
C2210 H2229 0.913 . S
C2211 H2187 0.950 . S
C2211 C2210 1.524 . S
C2211 C2212 1.415 . S
C2212 H2188 0.950 . S
C2212 C2207 1.363 . S
C2212 C2211 1.415 . S
C2213 H2189 0.978 . S
C2213 C2214 1.366 . S
C2213 C2215 1.388 . S
C2214 C2213 1.366 . S
C2214 C2218 1.385 . S
C2215 H2190 0.951 . S
C2215 C2213 1.388 . S
C2215 C2216 1.366 . S
C2216 C2215 1.366 . S
C2216 C2217 1.414 . S
C2216 C2219 1.499 . S
C2217 H2191 0.950 . S
C2217 C2216 1.414 . S
C2217 C2218 1.374 . S
C2218 H2192 0.950 . S
C2218 C2214 1.385 . S
C2218 C2217 1.374 . S
C2219 C2216 1.499 . S
C2219 C2220 1.373 . S
C2219 C2221 1.389 . S
C2220 H2193 0.950 . S
C2220 C2206 1.377 . S
C2220 C2219 1.373 . S
C2221 C2205 1.377 . S
C2221 C2219 1.389 . S
C2221 C2222 1.524 1_545 S
C2222 C2221 1.524 1_565 S
C2222 C2223 1.397 . S
C2222 C2227 1.363 . S
C2223 H2194 0.977 . S
C2223 C2222 1.397 . S
C2223 C2224 1.334 . S
C2224 H2195 0.950 . S
C2224 C2223 1.334 . S
C2224 C2225 1.287 . S
C2225 C2224 1.287 . S
C2225 C2226 1.524 . S
C2225 H2228 0.999 . S
C2226 H2196 0.950 . S
C2226 C2225 1.524 . S
C2226 C2227 1.415 . S
C2227 H2197 0.950 . S
C2227 C2222 1.363 . S
C2227 C2226 1.415 . S
H2228 C2225 0.999 . S
H2229 C2210 0.913 . S
H2230 C2248 0.951 . S
H2231 C2250 0.951 . S
H2232 C2252 0.950 . S
H2233 C2253 0.950 . S
H2234 C2255 0.950 . S
H2235 C2258 0.950 . S
H2236 C2259 0.950 . S
H2237 C2261 0.950 . S
H2238 C2262 0.950 . S
H2239 C2263 0.951 . S
H2240 C2265 0.951 . S
H2241 C2267 0.950 . S
H2242 C2268 0.950 . S
H2243 C2270 0.950 . S
H2244 C2273 0.950 . S
H2245 C2274 0.950 . S
H2246 C2276 0.950 . S
H2247 C2277 0.950 . S
C2248 H2230 0.951 . S
C2248 C2249 1.366 . S
C2248 C2250 1.388 . S
C2249 C2248 1.366 . S
C2249 C2253 1.385 . S
C2250 H2231 0.951 . S
C2250 C2248 1.388 . S
C2250 C2251 1.366 . S
C2251 C2250 1.366 . S
C2251 C2252 1.414 . S
C2251 C2254 1.499 . S
C2252 H2232 0.950 . S
C2252 C2251 1.414 . S
C2252 C2253 1.374 . S
C2253 H2233 0.950 . S
C2253 C2249 1.385 . S
C2253 C2252 1.374 . S
C2254 C2251 1.499 . S
C2254 C2255 1.373 . S
C2254 C2256 1.389 . S
C2255 H2234 0.950 . S
C2255 C2254 1.373 . S
C2255 C2271 1.377 . S
C2256 C2254 1.389 . S
C2256 C2257 1.524 . S
C2256 C2270 1.377 . S
C2257 C2256 1.524 . S
C2257 C2258 1.397 . S
C2257 C2262 1.363 . S
C2258 H2235 0.950 . S
C2258 C2257 1.397 . S
C2258 C2259 1.334 . S
C2259 H2236 0.950 . S
C2259 C2258 1.334 . S
C2259 C2260 1.287 . S
C2260 C2259 1.287 . S
C2260 C2261 1.524 . S
C2260 H2279 0.913 . S
C2261 H2237 0.950 . S
C2261 C2260 1.524 . S
C2261 C2262 1.415 . S
C2262 H2238 0.950 . S
C2262 C2257 1.363 . S
C2262 C2261 1.415 . S
C2263 H2239 0.951 . S
C2263 C2264 1.366 . S
C2263 C2265 1.388 . S
C2264 C2263 1.366 . S
C2264 C2268 1.385 . S
C2265 H2240 0.951 . S
C2265 C2263 1.388 . S
C2265 C2266 1.366 . S
C2266 C2265 1.366 . S
C2266 C2267 1.414 . S
C2266 C2269 1.499 . S
C2267 H2241 0.950 . S
C2267 C2266 1.414 . S
C2267 C2268 1.374 . S
C2268 H2242 0.950 . S
C2268 C2264 1.385 . S
C2268 C2267 1.374 . S
C2269 C2266 1.499 . S
C2269 C2270 1.373 . S
C2269 C2271 1.389 . S
C2270 H2243 0.950 . S
C2270 C2256 1.377 . S
C2270 C2269 1.373 . S
C2271 C2255 1.377 . S
C2271 C2269 1.389 . S
C2271 C2272 1.524 . S
C2272 C2271 1.524 . S
C2272 C2273 1.397 . S
C2272 C2277 1.363 . S
C2273 H2244 0.950 . S
C2273 C2272 1.397 . S
C2273 C2274 1.334 . S
C2274 H2245 0.950 . S
C2274 C2273 1.334 . S
C2274 C2275 1.287 . S
C2275 C2274 1.287 . S
C2275 C2276 1.524 . S
C2275 H2278 0.999 . S
C2276 H2246 0.950 . S
C2276 C2275 1.524 . S
C2276 C2277 1.415 . S
C2277 H2247 0.950 . S
C2277 C2272 1.363 . S
C2277 C2276 1.415 . S
H2278 C2275 0.999 . S
H2279 C2260 0.913 . S
H2280 C2298 0.951 1_565 S
H2281 C2300 0.925 1_565 S
H2282 C2302 0.950 . S
H2283 C2303 0.950 . S
H2284 C2305 0.950 . S
H2285 C2308 0.950 . S
H2286 C2309 0.950 . S
H2287 C2311 0.950 . S
H2288 C2312 0.950 . S
H2289 C2313 0.951 . S
H2290 C2315 0.951 . S
H2291 C2317 0.944 1_565 S
H2292 C2318 0.968 . S
H2293 C2320 0.950 . S
H2294 C2323 0.950 . S
H2295 C2324 0.950 . S
H2296 C2326 0.950 . S
H2297 C2327 0.950 . S
C2298 H2280 0.951 1_545 S
C2298 C2299 1.366 . S
C2298 C2300 1.388 . S
C2299 C2298 1.366 . S
C2299 C2303 1.385 . S
C2300 H2281 0.925 1_545 S
C2300 C2298 1.388 . S
C2300 C2301 1.366 . S
C2301 C2300 1.366 . S
C2301 C2302 1.414 . S
C2301 C2304 1.499 . S
C2302 H2282 0.950 . S
C2302 C2301 1.414 . S
C2302 C2303 1.374 . S
C2303 H2283 0.950 . S
C2303 C2299 1.385 . S
C2303 C2302 1.374 . S
C2304 C2301 1.499 . S
C2304 C2305 1.373 . S
C2304 C2306 1.389 . S
C2305 H2284 0.950 . S
C2305 C2304 1.373 . S
C2305 C2321 1.377 . S
C2306 C2304 1.389 . S
C2306 C2307 1.524 . S
C2306 C2320 1.377 . S
C2307 C2306 1.524 . S
C2307 C2308 1.397 . S
C2307 C2312 1.363 . S
C2308 H2285 0.950 . S
C2308 C2307 1.397 . S
C2308 C2309 1.334 . S
C2309 H2286 0.950 . S
C2309 C2308 1.334 . S
C2309 C2310 1.287 . S
C2310 C2309 1.287 . S
C2310 C2311 1.524 . S
C2310 H2329 0.913 . S
C2311 H2287 0.950 . S
C2311 C2310 1.524 . S
C2311 C2312 1.415 . S
C2312 H2288 0.950 . S
C2312 C2307 1.363 . S
C2312 C2311 1.415 . S
C2313 H2289 0.951 . S
C2313 C2314 1.366 . S
C2313 C2315 1.388 . S
C2314 C2313 1.366 . S
C2314 C2318 1.385 1_455 S
C2315 H2290 0.951 . S
C2315 C2313 1.388 . S
C2315 C2316 1.366 1_455 S
C2316 C2315 1.366 1_655 S
C2316 C2317 1.414 . S
C2316 C2319 1.499 . S
C2317 H2291 0.944 1_545 S
C2317 C2316 1.414 . S
C2317 C2318 1.374 . S
C2318 H2292 0.968 . S
C2318 C2314 1.385 1_655 S
C2318 C2317 1.374 . S
C2319 C2316 1.499 . S
C2319 C2320 1.373 . S
C2319 C2321 1.389 . S
C2320 H2293 0.950 . S
C2320 C2306 1.377 . S
C2320 C2319 1.373 . S
C2321 C2305 1.377 . S
C2321 C2319 1.389 . S
C2321 C2322 1.524 1_655 S
C2322 C2321 1.524 1_455 S
C2322 C2323 1.397 1_545 S
C2322 C2327 1.363 . S
C2323 H2294 0.950 . S
C2323 C2322 1.397 1_565 S
C2323 C2324 1.334 . S
C2324 H2295 0.950 . S
C2324 C2323 1.334 . S
C2324 C2325 1.287 . S
C2325 C2324 1.287 . S
C2325 C2326 1.524 1_565 S
C2325 H2328 0.999 . S
C2326 H2296 0.950 . S
C2326 C2325 1.524 1_545 S
C2326 C2327 1.415 . S
C2327 H2297 0.950 . S
C2327 C2322 1.363 . S
C2327 C2326 1.415 . S
H2328 C2325 0.999 . S
H2329 C2310 0.913 . S
H2330 C2348 0.951 . S
H2331 C2350 0.951 . S
H2332 C2352 0.950 . S
H2333 C2353 0.950 . S
H2334 C2355 0.950 . S
H2335 C2358 0.950 . S
H2336 C2359 0.950 . S
H2337 C2361 0.950 . S
H2338 C2362 0.950 . S
H2339 C2363 0.951 . S
H2340 C2365 0.951 . S
H2341 C2367 0.950 . S
H2342 C2368 0.950 . S
H2343 C2370 0.950 . S
H2344 C2373 0.950 . S
H2345 C2374 0.950 . S
H2346 C2376 0.950 . S
H2347 C2377 0.950 . S
C2348 H2330 0.951 . S
C2348 C2349 1.366 . S
C2348 C2350 1.388 . S
C2349 C2348 1.366 . S
C2349 C2353 1.385 . S
C2350 H2331 0.951 . S
C2350 C2348 1.388 . S
C2350 C2351 1.366 . S
C2351 C2350 1.366 . S
C2351 C2352 1.414 . S
C2351 C2354 1.499 . S
C2352 H2332 0.950 . S
C2352 C2351 1.414 . S
C2352 C2353 1.374 . S
C2353 H2333 0.950 . S
C2353 C2349 1.385 . S
C2353 C2352 1.374 . S
C2354 C2351 1.499 . S
C2354 C2355 1.373 . S
C2354 C2356 1.389 . S
C2355 H2334 0.950 . S
C2355 C2354 1.373 . S
C2355 C2371 1.377 . S
C2356 C2354 1.389 . S
C2356 C2357 1.524 . S
C2356 C2370 1.377 . S
C2357 C2356 1.524 . S
C2357 C2358 1.397 . S
C2357 C2362 1.363 . S
C2358 H2335 0.950 . S
C2358 C2357 1.397 . S
C2358 C2359 1.334 . S
C2359 H2336 0.950 . S
C2359 C2358 1.334 . S
C2359 C2360 1.287 . S
C2360 C2359 1.287 . S
C2360 C2361 1.524 . S
C2360 H2379 0.913 . S
C2361 H2337 0.950 . S
C2361 C2360 1.524 . S
C2361 C2362 1.415 . S
C2362 H2338 0.950 . S
C2362 C2357 1.363 . S
C2362 C2361 1.415 . S
C2363 H2339 0.951 . S
C2363 C2364 1.366 . S
C2363 C2365 1.388 . S
C2364 C2363 1.366 . S
C2364 C2368 1.385 . S
C2365 H2340 0.951 . S
C2365 C2363 1.388 . S
C2365 C2366 1.366 . S
C2366 C2365 1.366 . S
C2366 C2367 1.414 . S
C2366 C2369 1.499 . S
C2367 H2341 0.950 . S
C2367 C2366 1.414 . S
C2367 C2368 1.374 . S
C2368 H2342 0.950 . S
C2368 C2364 1.385 . S
C2368 C2367 1.374 . S
C2369 C2366 1.499 . S
C2369 C2370 1.373 . S
C2369 C2371 1.389 . S
C2370 H2343 0.950 . S
C2370 C2356 1.377 . S
C2370 C2369 1.373 . S
C2371 C2355 1.377 . S
C2371 C2369 1.389 . S
C2371 C2372 1.524 . S
C2372 C2371 1.524 . S
C2372 C2373 1.397 . S
C2372 C2377 1.363 . S
C2373 H2344 0.950 . S
C2373 C2372 1.397 . S
C2373 C2374 1.334 . S
C2374 H2345 0.950 . S
C2374 C2373 1.334 . S
C2374 C2375 1.287 . S
C2375 C2374 1.287 . S
C2375 C2376 1.524 . S
C2375 H2378 0.999 . S
C2376 H2346 0.950 . S
C2376 C2375 1.524 . S
C2376 C2377 1.415 . S
C2377 H2347 0.950 . S
C2377 C2372 1.363 . S
C2377 C2376 1.415 . S
H2378 C2375 0.999 . S
H2379 C2360 0.913 . S
H2380 C2398 0.951 . S
H2381 C2400 0.951 . S
H2382 C2402 0.950 . S
H2383 C2403 0.950 . S
H2384 C2405 0.950 . S
H2385 C2408 0.950 . S
H2386 C2409 0.950 . S
H2387 C2411 0.950 . S
H2388 C2412 0.950 . S
H2389 C2413 0.951 . S
H2390 C2415 0.951 . S
H2391 C2417 0.950 . S
H2392 C2418 0.950 . S
H2393 C2420 0.950 . S
H2394 C2423 0.946 . S
H2395 C2424 0.950 . S
H2396 C2426 0.950 . S
H2397 C2427 0.950 . S
C2398 H2380 0.951 . S
C2398 C2399 1.366 . S
C2398 C2400 1.388 . S
C2399 C2398 1.366 . S
C2399 C2403 1.385 . S
C2400 H2381 0.951 . S
C2400 C2398 1.388 . S
C2400 C2401 1.366 . S
C2401 C2400 1.366 . S
C2401 C2402 1.414 . S
C2401 C2404 1.499 . S
C2402 H2382 0.950 . S
C2402 C2401 1.414 . S
C2402 C2403 1.374 . S
C2403 H2383 0.950 . S
C2403 C2399 1.385 . S
C2403 C2402 1.374 . S
C2404 C2401 1.499 . S
C2404 C2405 1.373 . S
C2404 C2406 1.389 . S
C2405 H2384 0.950 . S
C2405 C2404 1.373 . S
C2405 C2421 1.377 . S
C2406 C2404 1.389 . S
C2406 C2407 1.524 . S
C2406 C2420 1.377 . S
C2407 C2406 1.524 . S
C2407 C2408 1.397 . S
C2407 C2412 1.363 . S
C2408 H2385 0.950 . S
C2408 C2407 1.397 . S
C2408 C2409 1.334 . S
C2409 H2386 0.950 . S
C2409 C2408 1.334 . S
C2409 C2410 1.287 . S
C2410 C2409 1.287 . S
C2410 C2411 1.524 . S
C2410 H2429 0.913 . S
C2411 H2387 0.950 . S
C2411 C2410 1.524 . S
C2411 C2412 1.415 . S
C2412 H2388 0.950 . S
C2412 C2407 1.363 . S
C2412 C2411 1.415 . S
C2413 H2389 0.951 . S
C2413 C2414 1.366 . S
C2413 C2415 1.388 . S
C2414 C2413 1.366 . S
C2414 C2418 1.385 . S
C2415 H2390 0.951 . S
C2415 C2413 1.388 . S
C2415 C2416 1.366 . S
C2416 C2415 1.366 . S
C2416 C2417 1.414 . S
C2416 C2419 1.499 . S
C2417 H2391 0.950 . S
C2417 C2416 1.414 . S
C2417 C2418 1.374 . S
C2418 H2392 0.950 . S
C2418 C2414 1.385 . S
C2418 C2417 1.374 . S
C2419 C2416 1.499 . S
C2419 C2420 1.373 . S
C2419 C2421 1.389 . S
C2420 H2393 0.950 . S
C2420 C2406 1.377 . S
C2420 C2419 1.373 . S
C2421 C2405 1.377 . S
C2421 C2419 1.389 . S
C2421 C2422 1.524 . S
C2422 C2421 1.524 . S
C2422 C2423 1.397 . S
C2422 C2427 1.363 . S
C2423 H2394 0.946 . S
C2423 C2422 1.397 . S
C2423 C2424 1.334 1_545 S
C2424 H2395 0.950 . S
C2424 C2423 1.334 1_565 S
C2424 C2425 1.287 . S
C2425 C2424 1.287 . S
C2425 C2426 1.524 1_565 S
C2425 H2428 0.999 . S
C2426 H2396 0.950 . S
C2426 C2425 1.524 1_545 S
C2426 C2427 1.415 . S
C2427 H2397 0.950 . S
C2427 C2422 1.363 . S
C2427 C2426 1.415 . S
H2428 C2425 0.999 . S
H2429 C2410 0.913 . S
H2430 C2448 0.951 . S
H2431 C2450 0.951 . S
H2432 C2452 0.950 . S
H2433 C2453 0.950 . S
H2434 C2455 0.950 . S
H2435 C2458 0.950 . S
H2436 C2459 0.950 . S
H2437 C2461 0.950 . S
H2438 C2462 0.950 . S
H2439 C2463 0.951 . S
H2440 C2465 0.951 . S
H2441 C2467 0.950 . S
H2442 C2468 0.950 . S
H2443 C2470 0.950 . S
H2444 C2473 0.950 . S
H2445 C2474 0.950 . S
H2446 C2476 0.950 . S
H2447 C2477 0.950 . S
C2448 H2430 0.951 . S
C2448 C2449 1.366 . S
C2448 C2450 1.388 . S
C2449 C2448 1.366 . S
C2449 C2453 1.385 . S
C2450 H2431 0.951 . S
C2450 C2448 1.388 . S
C2450 C2451 1.366 . S
C2451 C2450 1.366 . S
C2451 C2452 1.414 . S
C2451 C2454 1.499 . S
C2452 H2432 0.950 . S
C2452 C2451 1.414 . S
C2452 C2453 1.374 . S
C2453 H2433 0.950 . S
C2453 C2449 1.385 . S
C2453 C2452 1.374 . S
C2454 C2451 1.499 . S
C2454 C2455 1.373 . S
C2454 C2456 1.389 . S
C2455 H2434 0.950 . S
C2455 C2454 1.373 . S
C2455 C2471 1.377 . S
C2456 C2454 1.389 . S
C2456 C2457 1.524 . S
C2456 C2470 1.377 . S
C2457 C2456 1.524 . S
C2457 C2458 1.397 . S
C2457 C2462 1.363 . S
C2458 H2435 0.950 . S
C2458 C2457 1.397 . S
C2458 C2459 1.334 . S
C2459 H2436 0.950 . S
C2459 C2458 1.334 . S
C2459 C2460 1.287 . S
C2460 C2459 1.287 . S
C2460 C2461 1.524 . S
C2460 H2479 0.913 . S
C2461 H2437 0.950 . S
C2461 C2460 1.524 . S
C2461 C2462 1.415 . S
C2462 H2438 0.950 . S
C2462 C2457 1.363 . S
C2462 C2461 1.415 . S
C2463 H2439 0.951 . S
C2463 C2464 1.366 . S
C2463 C2465 1.388 . S
C2464 C2463 1.366 . S
C2464 C2468 1.385 . S
C2465 H2440 0.951 . S
C2465 C2463 1.388 . S
C2465 C2466 1.366 . S
C2466 C2465 1.366 . S
C2466 C2467 1.414 . S
C2466 C2469 1.499 . S
C2467 H2441 0.950 . S
C2467 C2466 1.414 . S
C2467 C2468 1.374 . S
C2468 H2442 0.950 . S
C2468 C2464 1.385 . S
C2468 C2467 1.374 . S
C2469 C2466 1.499 . S
C2469 C2470 1.373 . S
C2469 C2471 1.389 . S
C2470 H2443 0.950 . S
C2470 C2456 1.377 . S
C2470 C2469 1.373 . S
C2471 C2455 1.377 . S
C2471 C2469 1.389 . S
C2471 C2472 1.524 . S
C2472 C2471 1.524 . S
C2472 C2473 1.397 . S
C2472 C2477 1.363 . S
C2473 H2444 0.950 . S
C2473 C2472 1.397 . S
C2473 C2474 1.334 . S
C2474 H2445 0.950 . S
C2474 C2473 1.334 . S
C2474 C2475 1.287 . S
C2475 C2474 1.287 . S
C2475 C2476 1.524 . S
C2475 H2478 0.999 . S
C2476 H2446 0.950 . S
C2476 C2475 1.524 . S
C2476 C2477 1.415 . S
C2477 H2447 0.950 . S
C2477 C2472 1.363 . S
C2477 C2476 1.415 . S
H2478 C2475 0.999 . S
H2479 C2460 0.913 . S
H2480 C2498 0.936 1_556 S
H2481 C2500 0.951 . S
H2482 C2502 0.950 . S
H2483 C2503 0.950 . S
H2484 C2505 0.950 1_556 S
H2485 C2508 0.950 . S
H2486 C2509 0.950 . S
H2487 C2511 0.950 . S
H2488 C2512 0.950 1_545 S
H2489 C2513 0.951 . S
H2490 C2515 0.951 . S
H2491 C2517 0.973 . S
H2492 C2518 0.950 . S
H2493 C2520 0.950 . S
H2494 C2523 0.950 . S
H2495 C2524 0.950 . S
H2496 C2526 0.950 . S
H2497 C2527 0.950 . S
C2498 H2480 0.936 1_554 S
C2498 C2499 1.366 . S
C2498 C2500 1.388 . S
C2499 C2498 1.366 . S
C2499 C2503 1.386 . S
C2500 H2481 0.951 . S
C2500 C2498 1.388 . S
C2500 C2501 1.366 . S
C2501 C2500 1.366 . S
C2501 C2502 1.414 . S
C2501 C2504 1.499 . S
C2502 H2482 0.950 . S
C2502 C2501 1.414 . S
C2502 C2503 1.374 . S
C2503 H2483 0.950 . S
C2503 C2499 1.386 . S
C2503 C2502 1.374 . S
C2504 C2501 1.499 . S
C2504 C2505 1.373 . S
C2504 C2506 1.389 . S
C2505 H2484 0.950 1_554 S
C2505 C2504 1.373 . S
C2505 C2521 1.377 . S
C2506 C2504 1.389 . S
C2506 C2507 1.524 . S
C2506 C2520 1.377 . S
C2507 C2506 1.524 . S
C2507 C2508 1.397 . S
C2507 C2512 1.363 . S
C2508 H2485 0.950 . S
C2508 C2507 1.397 . S
C2508 C2509 1.334 . S
C2509 H2486 0.950 . S
C2509 C2508 1.334 . S
C2509 C2510 1.287 . S
C2510 C2509 1.287 . S
C2510 C2511 1.524 1_565 S
C2510 H2529 0.913 . S
C2511 H2487 0.950 . S
C2511 C2510 1.524 1_545 S
C2511 C2512 1.415 1_545 S
C2512 H2488 0.950 1_565 S
C2512 C2507 1.363 . S
C2512 C2511 1.415 1_565 S
C2513 H2489 0.951 . S
C2513 C2514 1.366 . S
C2513 C2515 1.388 . S
C2514 C2513 1.366 . S
C2514 C2518 1.385 1_565 S
C2515 H2490 0.951 . S
C2515 C2513 1.388 . S
C2515 C2516 1.366 . S
C2516 C2515 1.366 . S
C2516 C2517 1.368 1_565 S
C2516 C2519 1.499 . S
C2517 H2491 0.973 . S
C2517 C2516 1.368 1_545 S
C2517 C2518 1.399 . S
C2518 H2492 0.950 . S
C2518 C2514 1.385 1_545 S
C2518 C2517 1.399 . S
C2519 C2516 1.499 . S
C2519 C2520 1.373 . S
C2519 C2521 1.389 . S
C2520 H2493 0.950 . S
C2520 C2506 1.377 . S
C2520 C2519 1.373 . S
C2521 C2505 1.377 . S
C2521 C2519 1.389 . S
C2521 C2522 1.524 1_554 S
C2522 C2521 1.524 1_556 S
C2522 C2523 1.397 . S
C2522 C2527 1.363 . S
C2523 H2494 0.950 . S
C2523 C2522 1.397 . S
C2523 C2524 1.334 . S
C2524 H2495 0.950 . S
C2524 C2523 1.334 . S
C2524 C2525 1.287 . S
C2525 C2524 1.287 . S
C2525 C2526 1.524 . S
C2525 H2528 0.999 . S
C2526 H2496 0.950 . S
C2526 C2525 1.524 . S
C2526 C2527 1.415 . S
C2527 H2497 0.950 . S
C2527 C2522 1.363 . S
C2527 C2526 1.415 . S
H2528 C2525 0.999 . S
H2529 C2510 0.913 . S
H2530 C2548 0.951 . S
H2531 C2550 0.951 . S
H2532 C2552 0.950 . S
H2533 C2553 0.950 . S
H2534 C2555 0.950 . S
H2535 C2558 0.950 . S
H2536 C2559 0.950 . S
H2537 C2561 0.950 . S
H2538 C2562 0.950 . S
H2539 C2563 0.951 . S
H2540 C2565 0.951 . S
H2541 C2567 0.950 . S
H2542 C2568 0.950 . S
H2543 C2570 0.950 . S
H2544 C2573 0.950 . S
H2545 C2574 0.950 . S
H2546 C2576 0.950 . S
H2547 C2577 0.950 . S
C2548 H2530 0.951 . S
C2548 C2549 1.366 . S
C2548 C2550 1.388 . S
C2549 C2548 1.366 . S
C2549 C2553 1.385 1_554 S
C2550 H2531 0.951 . S
C2550 C2548 1.388 . S
C2550 C2551 1.366 . S
C2551 C2550 1.366 . S
C2551 C2552 1.414 1_554 S
C2551 C2554 1.499 . S
C2552 H2532 0.950 . S
C2552 C2551 1.414 1_556 S
C2552 C2553 1.374 . S
C2553 H2533 0.950 . S
C2553 C2549 1.385 1_556 S
C2553 C2552 1.374 . S
C2554 C2551 1.499 . S
C2554 C2555 1.373 1_554 S
C2554 C2556 1.389 . S
C2555 H2534 0.950 . S
C2555 C2554 1.373 1_556 S
C2555 C2571 1.377 . S
C2556 C2554 1.389 . S
C2556 C2557 1.524 . S
C2556 C2570 1.377 . S
C2557 C2556 1.524 . S
C2557 C2558 1.397 . S
C2557 C2562 1.363 . S
C2558 H2535 0.950 . S
C2558 C2557 1.397 . S
C2558 C2559 1.334 . S
C2559 H2536 0.950 . S
C2559 C2558 1.334 . S
C2559 C2560 1.287 . S
C2560 C2559 1.287 . S
C2560 C2561 1.524 . S
C2560 H2579 0.913 . S
C2561 H2537 0.950 . S
C2561 C2560 1.524 . S
C2561 C2562 1.415 . S
C2562 H2538 0.950 . S
C2562 C2557 1.363 . S
C2562 C2561 1.415 . S
C2563 H2539 0.951 . S
C2563 C2564 1.366 1_556 S
C2563 C2565 1.388 . S
C2564 C2563 1.366 1_554 S
C2564 C2568 1.385 . S
C2565 H2540 0.951 . S
C2565 C2563 1.388 . S
C2565 C2566 1.366 1_556 S
C2566 C2565 1.366 1_554 S
C2566 C2567 1.414 . S
C2566 C2569 1.499 . S
C2567 H2541 0.950 . S
C2567 C2566 1.414 . S
C2567 C2568 1.374 . S
C2568 H2542 0.950 . S
C2568 C2564 1.385 . S
C2568 C2567 1.374 . S
C2569 C2566 1.499 . S
C2569 C2570 1.373 . S
C2569 C2571 1.389 1_554 S
C2570 H2543 0.950 . S
C2570 C2556 1.377 . S
C2570 C2569 1.373 . S
C2571 C2555 1.377 . S
C2571 C2569 1.389 1_556 S
C2571 C2572 1.524 . S
C2572 C2571 1.524 . S
C2572 C2573 1.397 . S
C2572 C2577 1.363 . S
C2573 H2544 0.950 . S
C2573 C2572 1.397 . S
C2573 C2574 1.334 . S
C2574 H2545 0.950 . S
C2574 C2573 1.334 . S
C2574 C2575 1.287 . S
C2575 C2574 1.287 . S
C2575 C2576 1.524 . S
C2575 H2578 0.999 . S
C2576 H2546 0.950 . S
C2576 C2575 1.524 . S
C2576 C2577 1.415 . S
C2577 H2547 0.950 . S
C2577 C2572 1.363 . S
C2577 C2576 1.415 . S
H2578 C2575 0.999 . S
H2579 C2560 0.913 . S
H2580 C2598 0.951 . S
H2581 C2600 0.951 . S
H2582 C2602 0.950 . S
H2583 C2603 0.950 . S
H2584 C2605 0.950 . S
H2585 C2608 0.950 . S
H2586 C2609 0.950 . S
H2587 C2611 0.950 . S
H2588 C2612 0.950 . S
H2589 C2613 0.951 . S
H2590 C2615 0.951 . S
H2591 C2617 0.950 . S
H2592 C2618 0.950 . S
H2593 C2620 0.950 . S
H2594 C2623 0.950 . S
H2595 C2624 0.950 . S
H2596 C2626 0.950 . S
H2597 C2627 0.950 . S
C2598 H2580 0.951 . S
C2598 C2599 1.366 . S
C2598 C2600 1.388 . S
C2599 C2598 1.366 . S
C2599 C2603 1.385 . S
C2600 H2581 0.951 . S
C2600 C2598 1.388 . S
C2600 C2601 1.366 . S
C2601 C2600 1.366 . S
C2601 C2602 1.414 . S
C2601 C2604 1.499 . S
C2602 H2582 0.950 . S
C2602 C2601 1.414 . S
C2602 C2603 1.374 . S
C2603 H2583 0.950 . S
C2603 C2599 1.385 . S
C2603 C2602 1.374 . S
C2604 C2601 1.499 . S
C2604 C2605 1.373 . S
C2604 C2606 1.389 . S
C2605 H2584 0.950 . S
C2605 C2604 1.373 . S
C2605 C2621 1.377 . S
C2606 C2604 1.389 . S
C2606 C2607 1.524 . S
C2606 C2620 1.377 . S
C2607 C2606 1.524 . S
C2607 C2608 1.397 . S
C2607 C2612 1.363 . S
C2608 H2585 0.950 . S
C2608 C2607 1.397 . S
C2608 C2609 1.334 . S
C2609 H2586 0.950 . S
C2609 C2608 1.334 . S
C2609 C2610 1.287 . S
C2610 C2609 1.287 . S
C2610 C2611 1.524 . S
C2610 H2629 0.913 . S
C2611 H2587 0.950 . S
C2611 C2610 1.524 . S
C2611 C2612 1.415 . S
C2612 H2588 0.950 . S
C2612 C2607 1.363 . S
C2612 C2611 1.415 . S
C2613 H2589 0.951 . S
C2613 C2614 1.366 . S
C2613 C2615 1.388 . S
C2614 C2613 1.366 . S
C2614 C2618 1.385 . S
C2615 H2590 0.951 . S
C2615 C2613 1.388 . S
C2615 C2616 1.366 . S
C2616 C2615 1.366 . S
C2616 C2617 1.414 . S
C2616 C2619 1.499 . S
C2617 H2591 0.950 . S
C2617 C2616 1.414 . S
C2617 C2618 1.374 . S
C2618 H2592 0.950 . S
C2618 C2614 1.385 . S
C2618 C2617 1.374 . S
C2619 C2616 1.499 . S
C2619 C2620 1.373 . S
C2619 C2621 1.389 . S
C2620 H2593 0.950 . S
C2620 C2606 1.377 . S
C2620 C2619 1.373 . S
C2621 C2605 1.377 . S
C2621 C2619 1.389 . S
C2621 C2622 1.524 . S
C2622 C2621 1.524 . S
C2622 C2623 1.397 . S
C2622 C2627 1.363 . S
C2623 H2594 0.950 . S
C2623 C2622 1.397 . S
C2623 C2624 1.334 . S
C2624 H2595 0.950 . S
C2624 C2623 1.334 . S
C2624 C2625 1.287 . S
C2625 C2624 1.287 . S
C2625 C2626 1.524 . S
C2625 H2628 0.999 . S
C2626 H2596 0.950 . S
C2626 C2625 1.524 . S
C2626 C2627 1.415 . S
C2627 H2597 0.950 . S
C2627 C2622 1.363 . S
C2627 C2626 1.415 . S
H2628 C2625 0.999 . S
H2629 C2610 0.913 . S
H2630 C2648 0.951 . S
H2631 C2650 0.951 . S
H2632 C2652 0.950 . S
H2633 C2653 0.950 . S
H2634 C2655 0.950 . S
H2635 C2658 0.950 . S
H2636 C2659 0.950 . S
H2637 C2661 0.950 . S
H2638 C2662 0.950 . S
H2639 C2663 0.951 . S
H2640 C2665 0.951 . S
H2641 C2667 0.950 . S
H2642 C2668 0.950 . S
H2643 C2670 0.950 . S
H2644 C2673 0.950 . S
H2645 C2674 0.950 . S
H2646 C2676 0.950 . S
H2647 C2677 0.950 . S
C2648 H2630 0.951 . S
C2648 C2649 1.366 . S
C2648 C2650 1.388 . S
C2649 C2648 1.366 . S
C2649 C2653 1.385 . S
C2650 H2631 0.951 . S
C2650 C2648 1.388 . S
C2650 C2651 1.366 . S
C2651 C2650 1.366 . S
C2651 C2652 1.414 . S
C2651 C2654 1.499 . S
C2652 H2632 0.950 . S
C2652 C2651 1.414 . S
C2652 C2653 1.374 . S
C2653 H2633 0.950 . S
C2653 C2649 1.385 . S
C2653 C2652 1.374 . S
C2654 C2651 1.499 . S
C2654 C2655 1.373 . S
C2654 C2656 1.389 . S
C2655 H2634 0.950 . S
C2655 C2654 1.373 . S
C2655 C2671 1.377 . S
C2656 C2654 1.389 . S
C2656 C2657 1.524 . S
C2656 C2670 1.377 . S
C2657 C2656 1.524 . S
C2657 C2658 1.397 . S
C2657 C2662 1.363 . S
C2658 H2635 0.950 . S
C2658 C2657 1.397 . S
C2658 C2659 1.334 . S
C2659 H2636 0.950 . S
C2659 C2658 1.334 . S
C2659 C2660 1.287 . S
C2660 C2659 1.287 . S
C2660 C2661 1.524 . S
C2660 H2679 0.913 . S
C2661 H2637 0.950 . S
C2661 C2660 1.524 . S
C2661 C2662 1.415 . S
C2662 H2638 0.950 . S
C2662 C2657 1.363 . S
C2662 C2661 1.415 . S
C2663 H2639 0.951 . S
C2663 C2664 1.366 . S
C2663 C2665 1.388 . S
C2664 C2663 1.366 . S
C2664 C2668 1.385 . S
C2665 H2640 0.951 . S
C2665 C2663 1.388 . S
C2665 C2666 1.366 . S
C2666 C2665 1.366 . S
C2666 C2667 1.414 . S
C2666 C2669 1.499 . S
C2667 H2641 0.950 . S
C2667 C2666 1.414 . S
C2667 C2668 1.374 . S
C2668 H2642 0.950 . S
C2668 C2664 1.385 . S
C2668 C2667 1.374 . S
C2669 C2666 1.499 . S
C2669 C2670 1.373 . S
C2669 C2671 1.389 . S
C2670 H2643 0.950 . S
C2670 C2656 1.377 . S
C2670 C2669 1.373 . S
C2671 C2655 1.377 . S
C2671 C2669 1.389 . S
C2671 C2672 1.524 . S
C2672 C2671 1.524 . S
C2672 C2673 1.397 . S
C2672 C2677 1.363 . S
C2673 H2644 0.950 . S
C2673 C2672 1.397 . S
C2673 C2674 1.334 . S
C2674 H2645 0.950 . S
C2674 C2673 1.334 . S
C2674 C2675 1.287 . S
C2675 C2674 1.287 . S
C2675 C2676 1.524 . S
C2675 H2678 0.999 . S
C2676 H2646 0.950 . S
C2676 C2675 1.524 . S
C2676 C2677 1.415 . S
C2677 H2647 0.950 . S
C2677 C2672 1.363 . S
C2677 C2676 1.415 . S
H2678 C2675 0.999 . S
H2679 C2660 0.913 . S
H2680 C2698 0.951 . S
H2681 C2700 0.951 . S
H2682 C2702 0.950 . S
H2683 C2703 0.950 . S
H2684 C2705 0.950 . S
H2685 C2708 0.950 . S
H2686 C2709 0.950 . S
H2687 C2711 0.950 . S
H2688 C2712 0.950 . S
H2689 C2713 0.951 . S
H2690 C2715 0.951 . S
H2691 C2717 0.950 . S
H2692 C2718 0.950 . S
H2693 C2720 0.950 . S
H2694 C2723 0.950 . S
H2695 C2724 0.950 . S
H2696 C2726 0.950 . S
H2697 C2727 0.950 . S
C2698 H2680 0.951 . S
C2698 C2699 1.366 . S
C2698 C2700 1.388 . S
C2699 C2698 1.366 . S
C2699 C2703 1.385 . S
C2700 H2681 0.951 . S
C2700 C2698 1.388 . S
C2700 C2701 1.366 . S
C2701 C2700 1.366 . S
C2701 C2702 1.414 . S
C2701 C2704 1.499 . S
C2702 H2682 0.950 . S
C2702 C2701 1.414 . S
C2702 C2703 1.374 . S
C2703 H2683 0.950 . S
C2703 C2699 1.385 . S
C2703 C2702 1.374 . S
C2704 C2701 1.499 . S
C2704 C2705 1.373 . S
C2704 C2706 1.389 . S
C2705 H2684 0.950 . S
C2705 C2704 1.373 . S
C2705 C2721 1.377 . S
C2706 C2704 1.389 . S
C2706 C2707 1.524 . S
C2706 C2720 1.377 . S
C2707 C2706 1.524 . S
C2707 C2708 1.397 . S
C2707 C2712 1.363 . S
C2708 H2685 0.950 . S
C2708 C2707 1.397 . S
C2708 C2709 1.334 . S
C2709 H2686 0.950 . S
C2709 C2708 1.334 . S
C2709 C2710 1.287 . S
C2710 C2709 1.287 . S
C2710 C2711 1.524 . S
C2710 H2729 0.913 . S
C2711 H2687 0.950 . S
C2711 C2710 1.524 . S
C2711 C2712 1.415 . S
C2712 H2688 0.950 . S
C2712 C2707 1.363 . S
C2712 C2711 1.415 . S
C2713 H2689 0.951 . S
C2713 C2714 1.366 . S
C2713 C2715 1.388 . S
C2714 C2713 1.366 . S
C2714 C2718 1.385 . S
C2715 H2690 0.951 . S
C2715 C2713 1.388 . S
C2715 C2716 1.366 . S
C2716 C2715 1.366 . S
C2716 C2717 1.414 . S
C2716 C2719 1.499 . S
C2717 H2691 0.950 . S
C2717 C2716 1.414 . S
C2717 C2718 1.374 . S
C2718 H2692 0.950 . S
C2718 C2714 1.385 . S
C2718 C2717 1.374 . S
C2719 C2716 1.499 . S
C2719 C2720 1.373 . S
C2719 C2721 1.389 . S
C2720 H2693 0.950 . S
C2720 C2706 1.377 . S
C2720 C2719 1.373 . S
C2721 C2705 1.377 . S
C2721 C2719 1.389 . S
C2721 C2722 1.524 . S
C2722 C2721 1.524 . S
C2722 C2723 1.397 . S
C2722 C2727 1.363 . S
C2723 H2694 0.950 . S
C2723 C2722 1.397 . S
C2723 C2724 1.334 . S
C2724 H2695 0.950 . S
C2724 C2723 1.334 . S
C2724 C2725 1.287 . S
C2725 C2724 1.287 . S
C2725 C2726 1.524 . S
C2725 H2728 0.999 . S
C2726 H2696 0.950 . S
C2726 C2725 1.524 . S
C2726 C2727 1.415 . S
C2727 H2697 0.950 . S
C2727 C2722 1.363 . S
C2727 C2726 1.415 . S
H2728 C2725 0.999 . S
H2729 C2710 0.913 . S
H2730 C2748 0.951 . S
H2731 C2750 0.951 . S
H2732 C2752 0.950 . S
H2733 C2753 0.950 . S
H2734 C2755 0.950 . S
H2735 C2758 0.950 . S
H2736 C2759 0.950 . S
H2737 C2761 0.950 . S
H2738 C2762 0.950 . S
H2739 C2763 0.951 . S
H2740 C2765 0.951 . S
H2741 C2767 0.950 . S
H2742 C2768 0.950 . S
H2743 C2770 0.950 . S
H2744 C2773 0.950 . S
H2745 C2774 0.950 . S
H2746 C2776 0.950 . S
H2747 C2777 0.950 . S
C2748 H2730 0.951 . S
C2748 C2749 1.366 . S
C2748 C2750 1.388 . S
C2749 C2748 1.366 . S
C2749 C2753 1.385 . S
C2750 H2731 0.951 . S
C2750 C2748 1.388 . S
C2750 C2751 1.366 . S
C2751 C2750 1.366 . S
C2751 C2752 1.414 . S
C2751 C2754 1.499 . S
C2752 H2732 0.950 . S
C2752 C2751 1.414 . S
C2752 C2753 1.374 . S
C2753 H2733 0.950 . S
C2753 C2749 1.385 . S
C2753 C2752 1.374 . S
C2754 C2751 1.499 . S
C2754 C2755 1.373 . S
C2754 C2756 1.389 . S
C2755 H2734 0.950 . S
C2755 C2754 1.373 . S
C2755 C2771 1.377 . S
C2756 C2754 1.389 . S
C2756 C2757 1.524 . S
C2756 C2770 1.377 . S
C2757 C2756 1.524 . S
C2757 C2758 1.397 . S
C2757 C2762 1.363 . S
C2758 H2735 0.950 . S
C2758 C2757 1.397 . S
C2758 C2759 1.334 . S
C2759 H2736 0.950 . S
C2759 C2758 1.334 . S
C2759 C2760 1.287 . S
C2760 C2759 1.287 . S
C2760 C2761 1.524 . S
C2760 H2779 0.913 . S
C2761 H2737 0.950 . S
C2761 C2760 1.524 . S
C2761 C2762 1.415 . S
C2762 H2738 0.950 . S
C2762 C2757 1.363 . S
C2762 C2761 1.415 . S
C2763 H2739 0.951 . S
C2763 C2764 1.366 . S
C2763 C2765 1.388 . S
C2764 C2763 1.366 . S
C2764 C2768 1.385 . S
C2765 H2740 0.951 . S
C2765 C2763 1.388 . S
C2765 C2766 1.366 . S
C2766 C2765 1.366 . S
C2766 C2767 1.414 . S
C2766 C2769 1.499 . S
C2767 H2741 0.950 . S
C2767 C2766 1.414 . S
C2767 C2768 1.374 . S
C2768 H2742 0.950 . S
C2768 C2764 1.385 . S
C2768 C2767 1.374 . S
C2769 C2766 1.499 . S
C2769 C2770 1.373 . S
C2769 C2771 1.389 . S
C2770 H2743 0.950 . S
C2770 C2756 1.377 . S
C2770 C2769 1.373 . S
C2771 C2755 1.377 . S
C2771 C2769 1.389 . S
C2771 C2772 1.524 . S
C2772 C2771 1.524 . S
C2772 C2773 1.397 . S
C2772 C2777 1.363 . S
C2773 H2744 0.950 . S
C2773 C2772 1.397 . S
C2773 C2774 1.334 . S
C2774 H2745 0.950 . S
C2774 C2773 1.334 . S
C2774 C2775 1.287 . S
C2775 C2774 1.287 . S
C2775 C2776 1.524 . S
C2775 H2778 0.999 . S
C2776 H2746 0.950 . S
C2776 C2775 1.524 . S
C2776 C2777 1.415 . S
C2777 H2747 0.950 . S
C2777 C2772 1.363 . S
C2777 C2776 1.415 . S
H2778 C2775 0.999 . S
H2779 C2760 0.913 . S
H2780 C2798 0.951 . S
H2781 C2800 0.951 . S
H2782 C2802 0.950 . S
H2783 C2803 0.950 . S
H2784 C2805 0.950 . S
H2785 C2808 0.950 . S
H2786 C2809 0.950 . S
H2787 C2811 0.950 . S
H2788 C2812 0.950 . S
H2789 C2813 0.951 . S
H2790 C2815 0.951 . S
H2791 C2817 0.950 . S
H2792 C2818 0.950 . S
H2793 C2820 0.950 . S
H2794 C2823 0.950 . S
H2795 C2824 0.950 . S
H2796 C2826 0.950 . S
H2797 C2827 0.950 . S
C2798 H2780 0.951 . S
C2798 C2799 1.366 . S
C2798 C2800 1.388 . S
C2799 C2798 1.366 . S
C2799 C2803 1.385 . S
C2800 H2781 0.951 . S
C2800 C2798 1.388 . S
C2800 C2801 1.366 . S
C2801 C2800 1.366 . S
C2801 C2802 1.414 . S
C2801 C2804 1.499 . S
C2802 H2782 0.950 . S
C2802 C2801 1.414 . S
C2802 C2803 1.374 . S
C2803 H2783 0.950 . S
C2803 C2799 1.385 . S
C2803 C2802 1.374 . S
C2804 C2801 1.499 . S
C2804 C2805 1.373 . S
C2804 C2806 1.389 . S
C2805 H2784 0.950 . S
C2805 C2804 1.373 . S
C2805 C2821 1.377 . S
C2806 C2804 1.389 . S
C2806 C2807 1.524 . S
C2806 C2820 1.377 . S
C2807 C2806 1.524 . S
C2807 C2808 1.397 . S
C2807 C2812 1.363 . S
C2808 H2785 0.950 . S
C2808 C2807 1.397 . S
C2808 C2809 1.334 . S
C2809 H2786 0.950 . S
C2809 C2808 1.334 . S
C2809 C2810 1.287 . S
C2810 C2809 1.287 . S
C2810 C2811 1.524 . S
C2810 H2829 0.913 . S
C2811 H2787 0.950 . S
C2811 C2810 1.524 . S
C2811 C2812 1.415 . S
C2812 H2788 0.950 . S
C2812 C2807 1.363 . S
C2812 C2811 1.415 . S
C2813 H2789 0.951 . S
C2813 C2814 1.366 . S
C2813 C2815 1.388 . S
C2814 C2813 1.366 . S
C2814 C2818 1.385 . S
C2815 H2790 0.951 . S
C2815 C2813 1.388 . S
C2815 C2816 1.366 . S
C2816 C2815 1.366 . S
C2816 C2817 1.414 . S
C2816 C2819 1.499 . S
C2817 H2791 0.950 . S
C2817 C2816 1.414 . S
C2817 C2818 1.374 . S
C2818 H2792 0.950 . S
C2818 C2814 1.385 . S
C2818 C2817 1.374 . S
C2819 C2816 1.499 . S
C2819 C2820 1.373 . S
C2819 C2821 1.389 . S
C2820 H2793 0.950 . S
C2820 C2806 1.377 . S
C2820 C2819 1.373 . S
C2821 C2805 1.377 . S
C2821 C2819 1.389 . S
C2821 C2822 1.524 . S
C2822 C2821 1.524 . S
C2822 C2823 1.397 . S
C2822 C2827 1.363 . S
C2823 H2794 0.950 . S
C2823 C2822 1.397 . S
C2823 C2824 1.334 . S
C2824 H2795 0.950 . S
C2824 C2823 1.334 . S
C2824 C2825 1.287 . S
C2825 C2824 1.287 . S
C2825 C2826 1.524 . S
C2825 H2828 0.999 . S
C2826 H2796 0.950 . S
C2826 C2825 1.524 . S
C2826 C2827 1.415 . S
C2827 H2797 0.950 . S
C2827 C2822 1.363 . S
C2827 C2826 1.415 . S
H2828 C2825 0.999 . S
H2829 C2810 0.913 . S
H2830 C2848 0.951 . S
H2831 C2850 0.951 . S
H2832 C2852 0.950 . S
H2833 C2853 0.950 . S
H2834 C2855 0.950 . S
H2835 C2858 0.950 . S
H2836 C2859 0.950 . S
H2837 C2861 0.950 . S
H2838 C2862 0.950 . S
H2839 C2863 0.951 . S
H2840 C2865 0.951 . S
H2841 C2867 0.950 . S
H2842 C2868 0.950 . S
H2843 C2870 0.950 . S
H2844 C2873 0.950 . S
H2845 C2874 0.950 . S
H2846 C2876 0.950 . S
H2847 C2877 0.950 . S
C2848 H2830 0.951 . S
C2848 C2849 1.366 . S
C2848 C2850 1.388 . S
C2849 C2848 1.366 . S
C2849 C2853 1.385 . S
C2850 H2831 0.951 . S
C2850 C2848 1.388 . S
C2850 C2851 1.366 . S
C2851 C2850 1.366 . S
C2851 C2852 1.414 . S
C2851 C2854 1.499 . S
C2852 H2832 0.950 . S
C2852 C2851 1.414 . S
C2852 C2853 1.374 . S
C2853 H2833 0.950 . S
C2853 C2849 1.385 . S
C2853 C2852 1.374 . S
C2854 C2851 1.499 . S
C2854 C2855 1.373 . S
C2854 C2856 1.389 . S
C2855 H2834 0.950 . S
C2855 C2854 1.373 . S
C2855 C2871 1.377 . S
C2856 C2854 1.389 . S
C2856 C2857 1.524 . S
C2856 C2870 1.377 . S
C2857 C2856 1.524 . S
C2857 C2858 1.397 . S
C2857 C2862 1.363 . S
C2858 H2835 0.950 . S
C2858 C2857 1.397 . S
C2858 C2859 1.334 . S
C2859 H2836 0.950 . S
C2859 C2858 1.334 . S
C2859 C2860 1.287 . S
C2860 C2859 1.287 . S
C2860 C2861 1.524 . S
C2860 H2879 0.913 . S
C2861 H2837 0.950 . S
C2861 C2860 1.524 . S
C2861 C2862 1.415 . S
C2862 H2838 0.950 . S
C2862 C2857 1.363 . S
C2862 C2861 1.415 . S
C2863 H2839 0.951 . S
C2863 C2864 1.366 . S
C2863 C2865 1.388 . S
C2864 C2863 1.366 . S
C2864 C2868 1.385 . S
C2865 H2840 0.951 . S
C2865 C2863 1.388 . S
C2865 C2866 1.366 . S
C2866 C2865 1.366 . S
C2866 C2867 1.414 . S
C2866 C2869 1.499 . S
C2867 H2841 0.950 . S
C2867 C2866 1.414 . S
C2867 C2868 1.374 . S
C2868 H2842 0.950 . S
C2868 C2864 1.385 . S
C2868 C2867 1.374 . S
C2869 C2866 1.499 . S
C2869 C2870 1.373 . S
C2869 C2871 1.389 . S
C2870 H2843 0.950 . S
C2870 C2856 1.377 . S
C2870 C2869 1.373 . S
C2871 C2855 1.377 . S
C2871 C2869 1.389 . S
C2871 C2872 1.524 . S
C2872 C2871 1.524 . S
C2872 C2873 1.397 . S
C2872 C2877 1.363 . S
C2873 H2844 0.950 . S
C2873 C2872 1.397 . S
C2873 C2874 1.334 . S
C2874 H2845 0.950 . S
C2874 C2873 1.334 . S
C2874 C2875 1.287 . S
C2875 C2874 1.287 . S
C2875 C2876 1.524 . S
C2875 H2878 0.999 . S
C2876 H2846 0.950 . S
C2876 C2875 1.524 . S
C2876 C2877 1.415 . S
C2877 H2847 0.950 . S
C2877 C2872 1.363 . S
C2877 C2876 1.415 . S
H2878 C2875 0.999 . S
H2879 C2860 0.913 . S
H2880 C2898 0.951 . S
H2881 C2900 0.951 . S
H2882 C2902 0.950 . S
H2883 C2903 0.950 . S
H2884 C2905 0.950 . S
H2885 C2908 0.950 . S
H2886 C2909 0.950 . S
H2887 C2911 0.950 1_556 S
H2888 C2912 0.950 . S
H2889 C2913 0.951 . S
H2890 C2915 0.951 . S
H2891 C2917 0.950 . S
H2892 C2918 0.950 . S
H2893 C2920 0.950 . S
H2894 C2923 0.950 . S
H2895 C2924 0.950 . S
H2896 C2926 0.950 . S
H2897 C2927 0.950 . S
C2898 H2880 0.951 . S
C2898 C2899 1.366 . S
C2898 C2900 1.388 . S
C2899 C2898 1.366 . S
C2899 C2903 1.385 . S
C2900 H2881 0.951 . S
C2900 C2898 1.388 . S
C2900 C2901 1.366 . S
C2901 C2900 1.366 . S
C2901 C2902 1.414 . S
C2901 C2904 1.499 . S
C2902 H2882 0.950 . S
C2902 C2901 1.414 . S
C2902 C2903 1.374 . S
C2903 H2883 0.950 . S
C2903 C2899 1.385 . S
C2903 C2902 1.374 . S
C2904 C2901 1.499 . S
C2904 C2905 1.373 . S
C2904 C2906 1.389 . S
C2905 H2884 0.950 . S
C2905 C2904 1.373 . S
C2905 C2921 1.377 . S
C2906 C2904 1.389 . S
C2906 C2907 1.524 . S
C2906 C2920 1.377 . S
C2907 C2906 1.524 . S
C2907 C2908 1.397 . S
C2907 C2912 1.363 . S
C2908 H2885 0.950 . S
C2908 C2907 1.397 . S
C2908 C2909 1.334 . S
C2909 H2886 0.950 . S
C2909 C2908 1.334 . S
C2909 C2910 1.287 . S
C2910 C2909 1.287 . S
C2910 C2911 1.524 . S
C2910 H2929 0.913 . S
C2911 H2887 0.950 1_554 S
C2911 C2910 1.524 . S
C2911 C2912 1.415 . S
C2912 H2888 0.950 . S
C2912 C2907 1.363 . S
C2912 C2911 1.415 . S
C2913 H2889 0.951 . S
C2913 C2914 1.366 . S
C2913 C2915 1.388 . S
C2914 C2913 1.366 . S
C2914 C2918 1.385 . S
C2915 H2890 0.951 . S
C2915 C2913 1.388 . S
C2915 C2916 1.366 . S
C2916 C2915 1.366 . S
C2916 C2917 1.414 . S
C2916 C2919 1.499 . S
C2917 H2891 0.950 . S
C2917 C2916 1.414 . S
C2917 C2918 1.374 . S
C2918 H2892 0.950 . S
C2918 C2914 1.385 . S
C2918 C2917 1.374 . S
C2919 C2916 1.499 . S
C2919 C2920 1.373 . S
C2919 C2921 1.389 . S
C2920 H2893 0.950 . S
C2920 C2906 1.377 . S
C2920 C2919 1.373 . S
C2921 C2905 1.377 . S
C2921 C2919 1.389 . S
C2921 C2922 1.524 . S
C2922 C2921 1.524 . S
C2922 C2923 1.397 . S
C2922 C2927 1.363 . S
C2923 H2894 0.950 . S
C2923 C2922 1.397 . S
C2923 C2924 1.334 1_455 S
C2924 H2895 0.950 . S
C2924 C2923 1.334 1_655 S
C2924 C2925 1.287 1_655 S
C2925 C2924 1.287 1_455 S
C2925 C2926 1.524 . S
C2925 H2928 0.999 1_455 S
C2926 H2896 0.950 . S
C2926 C2925 1.524 . S
C2926 C2927 1.415 . S
C2927 H2897 0.950 . S
C2927 C2922 1.363 . S
C2927 C2926 1.415 . S
H2928 C2925 0.999 1_655 S
H2929 C2910 0.913 . S
H2930 C2948 0.951 . S
H2931 C2950 0.951 . S
H2932 C2952 0.950 . S
H2933 C2953 0.950 . S
H2934 C2955 0.950 . S
H2935 C2958 0.950 . S
H2936 C2959 0.950 . S
H2937 C2961 0.950 . S
H2938 C2962 0.950 . S
H2939 C2963 0.951 . S
H2940 C2965 0.951 . S
H2941 C2967 0.950 . S
H2942 C2968 0.950 . S
H2943 C2970 0.950 . S
H2944 C2973 0.950 . S
H2945 C2974 0.950 . S
H2946 C2976 0.950 . S
H2947 C2977 0.950 . S
C2948 H2930 0.951 . S
C2948 C2949 1.366 . S
C2948 C2950 1.388 . S
C2949 C2948 1.366 . S
C2949 C2953 1.385 . S
C2950 H2931 0.951 . S
C2950 C2948 1.388 . S
C2950 C2951 1.366 . S
C2951 C2950 1.366 . S
C2951 C2952 1.414 . S
C2951 C2954 1.499 . S
C2952 H2932 0.950 . S
C2952 C2951 1.414 . S
C2952 C2953 1.374 . S
C2953 H2933 0.950 . S
C2953 C2949 1.385 . S
C2953 C2952 1.374 . S
C2954 C2951 1.499 . S
C2954 C2955 1.373 . S
C2954 C2956 1.389 . S
C2955 H2934 0.950 . S
C2955 C2954 1.373 . S
C2955 C2971 1.377 . S
C2956 C2954 1.389 . S
C2956 C2957 1.524 . S
C2956 C2970 1.377 . S
C2957 C2956 1.524 . S
C2957 C2958 1.397 . S
C2957 C2962 1.363 . S
C2958 H2935 0.950 . S
C2958 C2957 1.397 . S
C2958 C2959 1.334 . S
C2959 H2936 0.950 . S
C2959 C2958 1.334 . S
C2959 C2960 1.287 . S
C2960 C2959 1.287 . S
C2960 C2961 1.524 . S
C2960 H2979 0.913 . S
C2961 H2937 0.950 . S
C2961 C2960 1.524 . S
C2961 C2962 1.415 . S
C2962 H2938 0.950 . S
C2962 C2957 1.363 . S
C2962 C2961 1.415 . S
C2963 H2939 0.951 . S
C2963 C2964 1.366 . S
C2963 C2965 1.388 . S
C2964 C2963 1.366 . S
C2964 C2968 1.385 . S
C2965 H2940 0.951 . S
C2965 C2963 1.388 . S
C2965 C2966 1.366 . S
C2966 C2965 1.366 . S
C2966 C2967 1.414 . S
C2966 C2969 1.499 . S
C2967 H2941 0.950 . S
C2967 C2966 1.414 . S
C2967 C2968 1.374 . S
C2968 H2942 0.950 . S
C2968 C2964 1.385 . S
C2968 C2967 1.374 . S
C2969 C2966 1.499 . S
C2969 C2970 1.373 . S
C2969 C2971 1.389 . S
C2970 H2943 0.950 . S
C2970 C2956 1.377 . S
C2970 C2969 1.373 . S
C2971 C2955 1.377 . S
C2971 C2969 1.389 . S
C2971 C2972 1.524 . S
C2972 C2971 1.524 . S
C2972 C2973 1.397 . S
C2972 C2977 1.363 . S
C2973 H2944 0.950 . S
C2973 C2972 1.397 . S
C2973 C2974 1.334 . S
C2974 H2945 0.950 . S
C2974 C2973 1.334 . S
C2974 C2975 1.287 . S
C2975 C2974 1.287 . S
C2975 C2976 1.524 . S
C2975 H2978 0.999 . S
C2976 H2946 0.950 . S
C2976 C2975 1.524 . S
C2976 C2977 1.415 . S
C2977 H2947 0.950 . S
C2977 C2972 1.363 . S
C2977 C2976 1.415 . S
H2978 C2975 0.999 . S
H2979 C2960 0.913 . S
H2980 C2998 0.951 . S
H2981 C3000 0.951 . S
H2982 C3002 0.950 . S
H2983 C3003 0.950 . S
H2984 C3005 0.950 . S
H2985 C3008 0.950 . S
H2986 C3009 0.950 . S
H2987 C3011 0.950 . S
H2988 C3012 0.950 . S
H2989 C3013 0.951 . S
H2990 C3015 0.951 . S
H2991 C3017 0.950 . S
H2992 C3018 0.950 . S
H2993 C3020 0.950 . S
H2994 C3023 0.950 . S
H2995 C3024 0.950 . S
H2996 C3026 0.950 . S
H2997 C3027 0.950 . S
C2998 H2980 0.951 . S
C2998 C2999 1.366 . S
C2998 C3000 1.388 . S
C2999 C2998 1.366 . S
C2999 C3003 1.385 . S
C3000 H2981 0.951 . S
C3000 C2998 1.388 . S
C3000 C3001 1.366 . S
C3001 C3000 1.366 . S
C3001 C3002 1.414 . S
C3001 C3004 1.499 . S
C3002 H2982 0.950 . S
C3002 C3001 1.414 . S
C3002 C3003 1.374 . S
C3003 H2983 0.950 . S
C3003 C2999 1.385 . S
C3003 C3002 1.374 . S
C3004 C3001 1.499 . S
C3004 C3005 1.373 . S
C3004 C3006 1.389 . S
C3005 H2984 0.950 . S
C3005 C3004 1.373 . S
C3005 C3021 1.377 . S
C3006 C3004 1.389 . S
C3006 C3007 1.524 . S
C3006 C3020 1.377 . S
C3007 C3006 1.524 . S
C3007 C3008 1.397 . S
C3007 C3012 1.363 . S
C3008 H2985 0.950 . S
C3008 C3007 1.397 . S
C3008 C3009 1.334 . S
C3009 H2986 0.950 . S
C3009 C3008 1.334 . S
C3009 C3010 1.287 . S
C3010 C3009 1.287 . S
C3010 C3011 1.524 . S
C3010 H3029 0.913 . S
C3011 H2987 0.950 . S
C3011 C3010 1.524 . S
C3011 C3012 1.415 . S
C3012 H2988 0.950 . S
C3012 C3007 1.363 . S
C3012 C3011 1.415 . S
C3013 H2989 0.951 . S
C3013 C3014 1.366 . S
C3013 C3015 1.388 . S
C3014 C3013 1.366 . S
C3014 C3018 1.385 . S
C3015 H2990 0.951 . S
C3015 C3013 1.388 . S
C3015 C3016 1.366 . S
C3016 C3015 1.366 . S
C3016 C3017 1.414 . S
C3016 C3019 1.499 . S
C3017 H2991 0.950 . S
C3017 C3016 1.414 . S
C3017 C3018 1.374 . S
C3018 H2992 0.950 . S
C3018 C3014 1.385 . S
C3018 C3017 1.374 . S
C3019 C3016 1.499 . S
C3019 C3020 1.373 . S
C3019 C3021 1.389 . S
C3020 H2993 0.950 . S
C3020 C3006 1.377 . S
C3020 C3019 1.373 . S
C3021 C3005 1.377 . S
C3021 C3019 1.389 . S
C3021 C3022 1.524 . S
C3022 C3021 1.524 . S
C3022 C3023 1.397 . S
C3022 C3027 1.363 . S
C3023 H2994 0.950 . S
C3023 C3022 1.397 . S
C3023 C3024 1.334 . S
C3024 H2995 0.950 . S
C3024 C3023 1.334 . S
C3024 C3025 1.287 . S
C3025 C3024 1.287 . S
C3025 C3026 1.524 . S
C3025 H3028 0.999 . S
C3026 H2996 0.950 . S
C3026 C3025 1.524 . S
C3026 C3027 1.415 . S
C3027 H2997 0.950 . S
C3027 C3022 1.363 . S
C3027 C3026 1.415 . S
H3028 C3025 0.999 . S
H3029 C3010 0.913 . S
H3030 C3048 0.951 . S
H3031 C3050 0.951 . S
H3032 C3052 0.950 . S
H3033 C3053 0.950 . S
H3034 C3055 0.950 . S
H3035 C3058 0.950 . S
H3036 C3059 0.950 . S
H3037 C3061 0.950 . S
H3038 C3062 0.950 . S
H3039 C3063 0.951 . S
H3040 C3065 0.951 . S
H3041 C3067 0.950 . S
H3042 C3068 0.950 . S
H3043 C3070 0.950 . S
H3044 C3073 0.950 . S
H3045 C3074 0.950 . S
H3046 C3076 0.950 . S
H3047 C3077 0.950 . S
C3048 H3030 0.951 . S
C3048 C3049 1.366 . S
C3048 C3050 1.388 . S
C3049 C3048 1.366 . S
C3049 C3053 1.385 . S
C3050 H3031 0.951 . S
C3050 C3048 1.388 . S
C3050 C3051 1.366 . S
C3051 C3050 1.366 . S
C3051 C3052 1.414 . S
C3051 C3054 1.499 . S
C3052 H3032 0.950 . S
C3052 C3051 1.414 . S
C3052 C3053 1.374 . S
C3053 H3033 0.950 . S
C3053 C3049 1.385 . S
C3053 C3052 1.374 . S
C3054 C3051 1.499 . S
C3054 C3055 1.373 . S
C3054 C3056 1.389 . S
C3055 H3034 0.950 . S
C3055 C3054 1.373 . S
C3055 C3071 1.377 . S
C3056 C3054 1.389 . S
C3056 C3057 1.524 . S
C3056 C3070 1.377 . S
C3057 C3056 1.524 . S
C3057 C3058 1.397 . S
C3057 C3062 1.363 . S
C3058 H3035 0.950 . S
C3058 C3057 1.397 . S
C3058 C3059 1.334 . S
C3059 H3036 0.950 . S
C3059 C3058 1.334 . S
C3059 C3060 1.287 . S
C3060 C3059 1.287 . S
C3060 C3061 1.524 . S
C3060 H3079 0.913 . S
C3061 H3037 0.950 . S
C3061 C3060 1.524 . S
C3061 C3062 1.415 . S
C3062 H3038 0.950 . S
C3062 C3057 1.363 . S
C3062 C3061 1.415 . S
C3063 H3039 0.951 . S
C3063 C3064 1.366 . S
C3063 C3065 1.388 . S
C3064 C3063 1.366 . S
C3064 C3068 1.385 . S
C3065 H3040 0.951 . S
C3065 C3063 1.388 . S
C3065 C3066 1.366 . S
C3066 C3065 1.366 . S
C3066 C3067 1.414 . S
C3066 C3069 1.499 . S
C3067 H3041 0.950 . S
C3067 C3066 1.414 . S
C3067 C3068 1.374 . S
C3068 H3042 0.950 . S
C3068 C3064 1.385 . S
C3068 C3067 1.374 . S
C3069 C3066 1.499 . S
C3069 C3070 1.373 . S
C3069 C3071 1.389 . S
C3070 H3043 0.950 . S
C3070 C3056 1.377 . S
C3070 C3069 1.373 . S
C3071 C3055 1.377 . S
C3071 C3069 1.389 . S
C3071 C3072 1.524 . S
C3072 C3071 1.524 . S
C3072 C3073 1.397 . S
C3072 C3077 1.363 . S
C3073 H3044 0.950 . S
C3073 C3072 1.397 . S
C3073 C3074 1.334 . S
C3074 H3045 0.950 . S
C3074 C3073 1.334 . S
C3074 C3075 1.287 . S
C3075 C3074 1.287 . S
C3075 C3076 1.524 . S
C3075 H3078 0.999 . S
C3076 H3046 0.950 . S
C3076 C3075 1.524 . S
C3076 C3077 1.415 . S
C3077 H3047 0.950 . S
C3077 C3072 1.363 . S
C3077 C3076 1.415 . S
H3078 C3075 0.999 . S
H3079 C3060 0.913 . S
H3080 C3098 0.951 . S
H3081 C3100 0.951 . S
H3082 C3102 0.950 . S
H3083 C3103 0.950 . S
H3084 C3105 0.950 . S
H3085 C3108 0.950 . S
H3086 C3109 0.950 . S
H3087 C3111 0.950 . S
H3088 C3112 0.950 . S
H3089 C3113 0.951 . S
H3090 C3115 0.951 . S
H3091 C3117 0.950 . S
H3092 C3118 0.950 . S
H3093 C3120 0.950 . S
H3094 C3123 0.950 . S
H3095 C3124 0.950 . S
H3096 C3126 0.950 . S
H3097 C3127 0.950 . S
C3098 H3080 0.951 . S
C3098 C3099 1.366 . S
C3098 C3100 1.388 . S
C3099 C3098 1.366 . S
C3099 C3103 1.385 . S
C3100 H3081 0.951 . S
C3100 C3098 1.388 . S
C3100 C3101 1.366 . S
C3101 C3100 1.366 . S
C3101 C3102 1.414 . S
C3101 C3104 1.499 . S
C3102 H3082 0.950 . S
C3102 C3101 1.414 . S
C3102 C3103 1.374 . S
C3103 H3083 0.950 . S
C3103 C3099 1.385 . S
C3103 C3102 1.374 . S
C3104 C3101 1.499 . S
C3104 C3105 1.373 . S
C3104 C3106 1.389 . S
C3105 H3084 0.950 . S
C3105 C3104 1.373 . S
C3105 C3121 1.377 . S
C3106 C3104 1.389 . S
C3106 C3107 1.524 1_455 S
C3106 C3120 1.377 . S
C3107 C3106 1.524 1_655 S
C3107 C3108 1.397 . S
C3107 C3112 1.363 . S
C3108 H3085 0.950 . S
C3108 C3107 1.397 . S
C3108 C3109 1.334 . S
C3109 H3086 0.950 . S
C3109 C3108 1.334 . S
C3109 C3110 1.287 . S
C3110 C3109 1.287 . S
C3110 C3111 1.524 . S
C3110 H3129 0.913 . S
C3111 H3087 0.950 . S
C3111 C3110 1.524 . S
C3111 C3112 1.415 . S
C3112 H3088 0.950 . S
C3112 C3107 1.363 . S
C3112 C3111 1.415 . S
C3113 H3089 0.951 . S
C3113 C3114 1.366 . S
C3113 C3115 1.388 . S
C3114 C3113 1.366 . S
C3114 C3118 1.385 . S
C3115 H3090 0.951 . S
C3115 C3113 1.388 . S
C3115 C3116 1.366 . S
C3116 C3115 1.366 . S
C3116 C3117 1.414 . S
C3116 C3119 1.499 . S
C3117 H3091 0.950 . S
C3117 C3116 1.414 . S
C3117 C3118 1.374 . S
C3118 H3092 0.950 . S
C3118 C3114 1.385 . S
C3118 C3117 1.374 . S
C3119 C3116 1.499 . S
C3119 C3120 1.373 . S
C3119 C3121 1.389 . S
C3120 H3093 0.950 . S
C3120 C3106 1.377 . S
C3120 C3119 1.373 . S
C3121 C3105 1.377 . S
C3121 C3119 1.389 . S
C3121 C3122 1.524 . S
C3122 C3121 1.524 . S
C3122 C3123 1.397 . S
C3122 C3127 1.363 . S
C3123 H3094 0.950 . S
C3123 C3122 1.397 . S
C3123 C3124 1.334 . S
C3124 H3095 0.950 . S
C3124 C3123 1.334 . S
C3124 C3125 1.287 . S
C3125 C3124 1.287 . S
C3125 C3126 1.524 . S
C3125 H3128 0.999 . S
C3126 H3096 0.950 . S
C3126 C3125 1.524 . S
C3126 C3127 1.415 . S
C3127 H3097 0.950 . S
C3127 C3122 1.363 . S
C3127 C3126 1.415 . S
H3128 C3125 0.999 . S
H3129 C3110 0.913 . S
H3130 C3148 0.951 . S
H3131 C3150 0.951 . S
H3132 C3152 0.950 . S
H3133 C3153 0.950 . S
H3134 C3155 0.950 . S
H3135 C3158 0.950 . S
H3136 C3159 0.950 . S
H3137 C3161 0.950 . S
H3138 C3162 0.950 . S
H3139 C3163 0.951 . S
H3140 C3165 0.951 . S
H3141 C3167 0.950 . S
H3142 C3168 0.950 . S
H3143 C3170 0.950 . S
H3144 C3173 0.950 . S
H3145 C3174 0.950 . S
H3146 C3176 0.950 . S
H3147 C3177 0.950 . S
C3148 H3130 0.951 . S
C3148 C3149 1.366 . S
C3148 C3150 1.388 . S
C3149 C3148 1.366 . S
C3149 C3153 1.385 . S
C3150 H3131 0.951 . S
C3150 C3148 1.388 . S
C3150 C3151 1.366 . S
C3151 C3150 1.366 . S
C3151 C3152 1.414 . S
C3151 C3154 1.499 . S
C3152 H3132 0.950 . S
C3152 C3151 1.414 . S
C3152 C3153 1.374 . S
C3153 H3133 0.950 . S
C3153 C3149 1.385 . S
C3153 C3152 1.374 . S
C3154 C3151 1.499 . S
C3154 C3155 1.373 . S
C3154 C3156 1.389 . S
C3155 H3134 0.950 . S
C3155 C3154 1.373 . S
C3155 C3171 1.377 . S
C3156 C3154 1.389 . S
C3156 C3157 1.524 . S
C3156 C3170 1.377 . S
C3157 C3156 1.524 . S
C3157 C3158 1.397 . S
C3157 C3162 1.363 . S
C3158 H3135 0.950 . S
C3158 C3157 1.397 . S
C3158 C3159 1.334 . S
C3159 H3136 0.950 . S
C3159 C3158 1.334 . S
C3159 C3160 1.287 . S
C3160 C3159 1.287 . S
C3160 C3161 1.524 . S
C3160 H3179 0.913 . S
C3161 H3137 0.950 . S
C3161 C3160 1.524 . S
C3161 C3162 1.415 . S
C3162 H3138 0.950 . S
C3162 C3157 1.363 . S
C3162 C3161 1.415 . S
C3163 H3139 0.951 . S
C3163 C3164 1.366 . S
C3163 C3165 1.388 . S
C3164 C3163 1.366 . S
C3164 C3168 1.385 . S
C3165 H3140 0.951 . S
C3165 C3163 1.388 . S
C3165 C3166 1.366 . S
C3166 C3165 1.366 . S
C3166 C3167 1.414 . S
C3166 C3169 1.499 . S
C3167 H3141 0.950 . S
C3167 C3166 1.414 . S
C3167 C3168 1.374 . S
C3168 H3142 0.950 . S
C3168 C3164 1.385 . S
C3168 C3167 1.374 . S
C3169 C3166 1.499 . S
C3169 C3170 1.373 . S
C3169 C3171 1.389 . S
C3170 H3143 0.950 . S
C3170 C3156 1.377 . S
C3170 C3169 1.373 . S
C3171 C3155 1.377 . S
C3171 C3169 1.389 . S
C3171 C3172 1.524 . S
C3172 C3171 1.524 . S
C3172 C3173 1.397 . S
C3172 C3177 1.363 . S
C3173 H3144 0.950 . S
C3173 C3172 1.397 . S
C3173 C3174 1.334 . S
C3174 H3145 0.950 . S
C3174 C3173 1.334 . S
C3174 C3175 1.287 . S
C3175 C3174 1.287 . S
C3175 C3176 1.524 . S
C3175 H3178 0.999 . S
C3176 H3146 0.950 . S
C3176 C3175 1.524 . S
C3176 C3177 1.415 . S
C3177 H3147 0.950 . S
C3177 C3172 1.363 . S
C3177 C3176 1.415 . S
H3178 C3175 0.999 . S
H3179 C3160 0.913 . S
H3180 C3198 0.951 . S
H3181 C3200 0.951 . S
H3182 C3202 0.950 . S
H3183 C3203 0.950 . S
H3184 C3205 0.950 . S
H3185 C3208 0.950 . S
H3186 C3209 0.950 . S
H3187 C3211 0.950 . S
H3188 C3212 0.950 . S
H3189 C3213 0.951 . S
H3190 C3215 0.951 . S
H3191 C3217 0.950 . S
H3192 C3218 0.950 . S
H3193 C3220 0.950 . S
H3194 C3223 0.950 . S
H3195 C3224 0.950 . S
H3196 C3226 0.950 . S
H3197 C3227 0.950 . S
C3198 H3180 0.951 . S
C3198 C3199 1.366 . S
C3198 C3200 1.388 . S
C3199 C3198 1.366 . S
C3199 C3203 1.385 . S
C3200 H3181 0.951 . S
C3200 C3198 1.388 . S
C3200 C3201 1.366 . S
C3201 C3200 1.366 . S
C3201 C3202 1.414 . S
C3201 C3204 1.499 . S
C3202 H3182 0.950 . S
C3202 C3201 1.414 . S
C3202 C3203 1.374 . S
C3203 H3183 0.950 . S
C3203 C3199 1.385 . S
C3203 C3202 1.374 . S
C3204 C3201 1.499 . S
C3204 C3205 1.373 . S
C3204 C3206 1.389 . S
C3205 H3184 0.950 . S
C3205 C3204 1.373 . S
C3205 C3221 1.377 . S
C3206 C3204 1.389 . S
C3206 C3207 1.524 . S
C3206 C3220 1.377 . S
C3207 C3206 1.524 . S
C3207 C3208 1.397 . S
C3207 C3212 1.363 . S
C3208 H3185 0.950 . S
C3208 C3207 1.397 . S
C3208 C3209 1.334 . S
C3209 H3186 0.950 . S
C3209 C3208 1.334 . S
C3209 C3210 1.287 . S
C3210 C3209 1.287 . S
C3210 C3211 1.524 . S
C3210 H3229 0.913 . S
C3211 H3187 0.950 . S
C3211 C3210 1.524 . S
C3211 C3212 1.415 . S
C3212 H3188 0.950 . S
C3212 C3207 1.363 . S
C3212 C3211 1.415 . S
C3213 H3189 0.951 . S
C3213 C3214 1.366 . S
C3213 C3215 1.388 . S
C3214 C3213 1.366 . S
C3214 C3218 1.385 . S
C3215 H3190 0.951 . S
C3215 C3213 1.388 . S
C3215 C3216 1.366 . S
C3216 C3215 1.366 . S
C3216 C3217 1.414 . S
C3216 C3219 1.499 . S
C3217 H3191 0.950 . S
C3217 C3216 1.414 . S
C3217 C3218 1.374 . S
C3218 H3192 0.950 . S
C3218 C3214 1.385 . S
C3218 C3217 1.374 . S
C3219 C3216 1.499 . S
C3219 C3220 1.373 . S
C3219 C3221 1.389 . S
C3220 H3193 0.950 . S
C3220 C3206 1.377 . S
C3220 C3219 1.373 . S
C3221 C3205 1.377 . S
C3221 C3219 1.389 . S
C3221 C3222 1.524 . S
C3222 C3221 1.524 . S
C3222 C3223 1.397 . S
C3222 C3227 1.363 . S
C3223 H3194 0.950 . S
C3223 C3222 1.397 . S
C3223 C3224 1.334 1_556 S
C3224 H3195 0.950 . S
C3224 C3223 1.334 1_554 S
C3224 C3225 1.287 . S
C3225 C3224 1.287 . S
C3225 C3226 1.524 . S
C3225 H3228 0.999 . S
C3226 H3196 0.950 . S
C3226 C3225 1.524 . S
C3226 C3227 1.415 1_554 S
C3227 H3197 0.950 . S
C3227 C3222 1.363 . S
C3227 C3226 1.415 1_556 S
H3228 C3225 0.999 . S
H3229 C3210 0.913 . S
H3230 C3248 0.951 . S
H3231 C3250 0.951 . S
H3232 C3252 0.950 . S
H3233 C3253 0.950 . S
H3234 C3255 0.950 . S
H3235 C3258 0.950 . S
H3236 C3259 0.950 . S
H3237 C3261 0.950 . S
H3238 C3262 0.950 . S
H3239 C3263 0.951 . S
H3240 C3265 0.951 . S
H3241 C3267 0.950 . S
H3242 C3268 0.950 . S
H3243 C3270 0.950 . S
H3244 C3273 0.950 . S
H3245 C3274 0.950 . S
H3246 C3276 0.950 . S
H3247 C3277 0.950 . S
C3248 H3230 0.951 . S
C3248 C3249 1.366 . S
C3248 C3250 1.388 . S
C3249 C3248 1.366 . S
C3249 C3253 1.385 . S
C3250 H3231 0.951 . S
C3250 C3248 1.388 . S
C3250 C3251 1.366 . S
C3251 C3250 1.366 . S
C3251 C3252 1.414 . S
C3251 C3254 1.499 . S
C3252 H3232 0.950 . S
C3252 C3251 1.414 . S
C3252 C3253 1.374 . S
C3253 H3233 0.950 . S
C3253 C3249 1.385 . S
C3253 C3252 1.374 . S
C3254 C3251 1.499 . S
C3254 C3255 1.373 . S
C3254 C3256 1.389 . S
C3255 H3234 0.950 . S
C3255 C3254 1.373 . S
C3255 C3271 1.377 . S
C3256 C3254 1.389 . S
C3256 C3257 1.524 . S
C3256 C3270 1.377 . S
C3257 C3256 1.524 . S
C3257 C3258 1.397 . S
C3257 C3262 1.363 . S
C3258 H3235 0.950 . S
C3258 C3257 1.397 . S
C3258 C3259 1.334 . S
C3259 H3236 0.950 . S
C3259 C3258 1.334 . S
C3259 C3260 1.287 . S
C3260 C3259 1.287 . S
C3260 C3261 1.524 . S
C3260 H3279 0.913 . S
C3261 H3237 0.950 . S
C3261 C3260 1.524 . S
C3261 C3262 1.415 . S
C3262 H3238 0.950 . S
C3262 C3257 1.363 . S
C3262 C3261 1.415 . S
C3263 H3239 0.951 . S
C3263 C3264 1.366 . S
C3263 C3265 1.388 . S
C3264 C3263 1.366 . S
C3264 C3268 1.385 . S
C3265 H3240 0.951 . S
C3265 C3263 1.388 . S
C3265 C3266 1.366 . S
C3266 C3265 1.366 . S
C3266 C3267 1.414 . S
C3266 C3269 1.499 . S
C3267 H3241 0.950 . S
C3267 C3266 1.414 . S
C3267 C3268 1.374 . S
C3268 H3242 0.950 . S
C3268 C3264 1.385 . S
C3268 C3267 1.374 . S
C3269 C3266 1.499 . S
C3269 C3270 1.373 . S
C3269 C3271 1.389 . S
C3270 H3243 0.950 . S
C3270 C3256 1.377 . S
C3270 C3269 1.373 . S
C3271 C3255 1.377 . S
C3271 C3269 1.389 . S
C3271 C3272 1.524 . S
C3272 C3271 1.524 . S
C3272 C3273 1.397 . S
C3272 C3277 1.363 . S
C3273 H3244 0.950 . S
C3273 C3272 1.397 . S
C3273 C3274 1.334 . S
C3274 H3245 0.950 . S
C3274 C3273 1.334 . S
C3274 C3275 1.287 . S
C3275 C3274 1.287 . S
C3275 C3276 1.524 . S
C3275 H3278 0.999 . S
C3276 H3246 0.950 . S
C3276 C3275 1.524 . S
C3276 C3277 1.415 . S
C3277 H3247 0.950 . S
C3277 C3272 1.363 . S
C3277 C3276 1.415 . S
H3278 C3275 0.999 . S
H3279 C3260 0.913 . S
H3280 C3298 0.951 . S
H3281 C3300 0.951 . S
H3282 C3302 0.950 . S
H3283 C3303 0.950 . S
H3284 C3305 0.950 . S
H3285 C3308 0.950 . S
H3286 C3309 0.950 . S
H3287 C3311 0.950 . S
H3288 C3312 0.950 . S
H3289 C3313 0.951 . S
H3290 C3315 0.951 . S
H3291 C3317 0.950 1_565 S
H3292 C3318 0.950 1_565 S
H3293 C3320 0.950 . S
H3294 C3323 0.950 . S
H3295 C3324 0.950 . S
H3296 C3326 0.950 . S
H3297 C3327 0.950 . S
C3298 H3280 0.951 . S
C3298 C3299 1.366 . S
C3298 C3300 1.388 . S
C3299 C3298 1.366 . S
C3299 C3303 1.385 . S
C3300 H3281 0.951 . S
C3300 C3298 1.388 . S
C3300 C3301 1.366 . S
C3301 C3300 1.366 . S
C3301 C3302 1.414 . S
C3301 C3304 1.499 . S
C3302 H3282 0.950 . S
C3302 C3301 1.414 . S
C3302 C3303 1.374 . S
C3303 H3283 0.950 . S
C3303 C3299 1.385 . S
C3303 C3302 1.374 . S
C3304 C3301 1.499 . S
C3304 C3305 1.373 . S
C3304 C3306 1.389 . S
C3305 H3284 0.950 . S
C3305 C3304 1.373 . S
C3305 C3321 1.377 . S
C3306 C3304 1.389 . S
C3306 C3307 1.524 . S
C3306 C3320 1.377 . S
C3307 C3306 1.524 . S
C3307 C3308 1.397 . S
C3307 C3312 1.363 1_545 S
C3308 H3285 0.950 . S
C3308 C3307 1.397 . S
C3308 C3309 1.334 . S
C3309 H3286 0.950 . S
C3309 C3308 1.334 . S
C3309 C3310 1.287 . S
C3310 C3309 1.287 . S
C3310 C3311 1.524 1_545 S
C3310 H3329 0.913 . S
C3311 H3287 0.950 . S
C3311 C3310 1.524 1_565 S
C3311 C3312 1.415 . S
C3312 H3288 0.950 . S
C3312 C3307 1.363 1_565 S
C3312 C3311 1.415 . S
C3313 H3289 0.951 . S
C3313 C3314 1.366 . S
C3313 C3315 1.388 . S
C3314 C3313 1.366 . S
C3314 C3318 1.385 . S
C3315 H3290 0.951 . S
C3315 C3313 1.388 . S
C3315 C3316 1.366 . S
C3316 C3315 1.366 . S
C3316 C3317 1.414 . S
C3316 C3319 1.499 . S
C3317 H3291 0.950 1_545 S
C3317 C3316 1.414 . S
C3317 C3318 1.374 . S
C3318 H3292 0.950 1_545 S
C3318 C3314 1.385 . S
C3318 C3317 1.374 . S
C3319 C3316 1.499 . S
C3319 C3320 1.373 . S
C3319 C3321 1.389 . S
C3320 H3293 0.950 . S
C3320 C3306 1.377 . S
C3320 C3319 1.373 . S
C3321 C3305 1.377 . S
C3321 C3319 1.389 . S
C3321 C3322 1.524 . S
C3322 C3321 1.524 . S
C3322 C3323 1.397 . S
C3322 C3327 1.363 . S
C3323 H3294 0.950 . S
C3323 C3322 1.397 . S
C3323 C3324 1.334 . S
C3324 H3295 0.950 . S
C3324 C3323 1.334 . S
C3324 C3325 1.287 . S
C3325 C3324 1.287 . S
C3325 C3326 1.524 . S
C3325 H3328 0.999 . S
C3326 H3296 0.950 . S
C3326 C3325 1.524 . S
C3326 C3327 1.415 . S
C3327 H3297 0.950 . S
C3327 C3322 1.363 . S
C3327 C3326 1.415 . S
H3328 C3325 0.999 . S
H3329 C3310 0.913 . S
H3330 C3348 0.951 . S
H3331 C3350 0.951 . S
H3332 C3352 0.950 . S
H3333 C3353 0.950 . S
H3334 C3355 0.950 . S
H3335 C3358 0.950 . S
H3336 C3359 0.950 . S
H3337 C3361 0.950 . S
H3338 C3362 0.950 . S
H3339 C3363 0.951 . S
H3340 C3365 0.951 . S
H3341 C3367 0.950 . S
H3342 C3368 0.950 . S
H3343 C3370 0.950 . S
H3344 C3373 0.950 . S
H3345 C3374 0.950 . S
H3346 C3376 0.950 . S
H3347 C3377 0.950 . S
C3348 H3330 0.951 . S
C3348 C3349 1.366 . S
C3348 C3350 1.388 . S
C3349 C3348 1.366 . S
C3349 C3353 1.385 . S
C3350 H3331 0.951 . S
C3350 C3348 1.388 . S
C3350 C3351 1.366 . S
C3351 C3350 1.366 . S
C3351 C3352 1.414 . S
C3351 C3354 1.499 . S
C3352 H3332 0.950 . S
C3352 C3351 1.414 . S
C3352 C3353 1.374 . S
C3353 H3333 0.950 . S
C3353 C3349 1.385 . S
C3353 C3352 1.374 . S
C3354 C3351 1.499 . S
C3354 C3355 1.373 . S
C3354 C3356 1.389 . S
C3355 H3334 0.950 . S
C3355 C3354 1.373 . S
C3355 C3371 1.377 . S
C3356 C3354 1.389 . S
C3356 C3357 1.524 . S
C3356 C3370 1.377 . S
C3357 C3356 1.524 . S
C3357 C3358 1.397 . S
C3357 C3362 1.363 . S
C3358 H3335 0.950 . S
C3358 C3357 1.397 . S
C3358 C3359 1.334 . S
C3359 H3336 0.950 . S
C3359 C3358 1.334 . S
C3359 C3360 1.287 . S
C3360 C3359 1.287 . S
C3360 C3361 1.524 . S
C3360 H3379 0.913 . S
C3361 H3337 0.950 . S
C3361 C3360 1.524 . S
C3361 C3362 1.415 . S
C3362 H3338 0.950 . S
C3362 C3357 1.363 . S
C3362 C3361 1.415 . S
C3363 H3339 0.951 . S
C3363 C3364 1.366 . S
C3363 C3365 1.388 . S
C3364 C3363 1.366 . S
C3364 C3368 1.385 . S
C3365 H3340 0.951 . S
C3365 C3363 1.388 . S
C3365 C3366 1.366 . S
C3366 C3365 1.366 . S
C3366 C3367 1.414 . S
C3366 C3369 1.499 . S
C3367 H3341 0.950 . S
C3367 C3366 1.414 . S
C3367 C3368 1.374 . S
C3368 H3342 0.950 . S
C3368 C3364 1.385 . S
C3368 C3367 1.374 . S
C3369 C3366 1.499 . S
C3369 C3370 1.373 . S
C3369 C3371 1.389 . S
C3370 H3343 0.950 . S
C3370 C3356 1.377 . S
C3370 C3369 1.373 . S
C3371 C3355 1.377 . S
C3371 C3369 1.389 . S
C3371 C3372 1.524 . S
C3372 C3371 1.524 . S
C3372 C3373 1.397 . S
C3372 C3377 1.363 . S
C3373 H3344 0.950 . S
C3373 C3372 1.397 . S
C3373 C3374 1.334 . S
C3374 H3345 0.950 . S
C3374 C3373 1.334 . S
C3374 C3375 1.287 . S
C3375 C3374 1.287 . S
C3375 C3376 1.524 . S
C3375 H3378 0.999 . S
C3376 H3346 0.950 . S
C3376 C3375 1.524 . S
C3376 C3377 1.415 . S
C3377 H3347 0.950 . S
C3377 C3372 1.363 . S
C3377 C3376 1.415 . S
H3378 C3375 0.999 . S
H3379 C3360 0.913 . S
H3380 C3398 0.930 1_565 S
H3381 C3400 0.951 1_565 S
H3382 C3402 0.950 . S
H3383 C3403 0.950 . S
H3384 C3405 0.950 . S
H3385 C3408 0.950 . S
H3386 C3409 0.950 . S
H3387 C3411 0.950 . S
H3388 C3412 0.950 . S
H3389 C3413 0.951 . S
H3390 C3415 0.951 . S
H3391 C3417 0.950 . S
H3392 C3418 0.950 . S
H3393 C3420 0.950 1_565 S
H3394 C3423 0.950 . S
H3395 C3424 0.950 . S
H3396 C3426 0.950 . S
H3397 C3427 0.950 . S
C3398 H3380 0.930 1_545 S
C3398 C3399 1.393 . S
C3398 C3400 1.383 . S
C3399 C3398 1.393 . S
C3399 C3403 1.385 . S
C3400 H3381 0.951 1_545 S
C3400 C3398 1.383 . S
C3400 C3401 1.366 . S
C3401 C3400 1.366 . S
C3401 C3402 1.414 . S
C3401 C3404 1.499 . S
C3402 H3382 0.950 . S
C3402 C3401 1.414 . S
C3402 C3403 1.374 . S
C3403 H3383 0.950 . S
C3403 C3399 1.385 . S
C3403 C3402 1.374 . S
C3404 C3401 1.499 . S
C3404 C3405 1.373 . S
C3404 C3406 1.383 1_545 S
C3405 H3384 0.950 . S
C3405 C3404 1.373 . S
C3405 C3421 1.377 . S
C3406 C3404 1.383 1_565 S
C3406 C3407 1.530 . S
C3406 C3420 1.377 1_565 S
C3407 C3406 1.530 . S
C3407 C3408 1.397 . S
C3407 C3412 1.363 . S
C3408 H3385 0.950 . S
C3408 C3407 1.397 . S
C3408 C3409 1.334 . S
C3409 H3386 0.950 . S
C3409 C3408 1.334 . S
C3409 C3410 1.287 . S
C3410 C3409 1.287 . S
C3410 C3411 1.524 . S
C3410 H3429 0.913 . S
C3411 H3387 0.950 . S
C3411 C3410 1.524 . S
C3411 C3412 1.415 . S
C3412 H3388 0.950 . S
C3412 C3407 1.363 . S
C3412 C3411 1.415 . S
C3413 H3389 0.951 . S
C3413 C3414 1.366 . S
C3413 C3415 1.388 . S
C3414 C3413 1.366 . S
C3414 C3418 1.385 . S
C3415 H3390 0.951 . S
C3415 C3413 1.388 . S
C3415 C3416 1.366 . S
C3416 C3415 1.366 . S
C3416 C3417 1.414 . S
C3416 C3419 1.499 . S
C3417 H3391 0.950 . S
C3417 C3416 1.414 . S
C3417 C3418 1.374 . S
C3418 H3392 0.950 . S
C3418 C3414 1.385 . S
C3418 C3417 1.374 . S
C3419 C3416 1.499 . S
C3419 C3420 1.373 . S
C3419 C3421 1.389 . S
C3420 H3393 0.950 1_545 S
C3420 C3406 1.377 1_545 S
C3420 C3419 1.373 . S
C3421 C3405 1.377 . S
C3421 C3419 1.389 . S
C3421 C3422 1.524 . S
C3422 C3421 1.524 . S
C3422 C3423 1.397 . S
C3422 C3427 1.363 . S
C3423 H3394 0.950 . S
C3423 C3422 1.397 . S
C3423 C3424 1.334 . S
C3424 H3395 0.950 . S
C3424 C3423 1.334 . S
C3424 C3425 1.287 . S
C3425 C3424 1.287 . S
C3425 C3426 1.524 . S
C3425 H3428 0.999 . S
C3426 H3396 0.950 . S
C3426 C3425 1.524 . S
C3426 C3427 1.415 . S
C3427 H3397 0.950 . S
C3427 C3422 1.363 . S
C3427 C3426 1.415 . S
H3428 C3425 0.999 . S
H3429 C3410 0.913 . S
H3430 C3448 0.951 . S
H3431 C3450 0.951 . S
H3432 C3452 0.950 . S
H3433 C3453 0.950 . S
H3434 C3455 0.950 . S
H3435 C3458 0.950 . S
H3436 C3459 0.950 . S
H3437 C3461 0.950 . S
H3438 C3462 0.950 . S
H3439 C3463 0.951 . S
H3440 C3465 0.951 . S
H3441 C3467 0.950 . S
H3442 C3468 0.950 . S
H3443 C3470 0.950 . S
H3444 C3473 0.950 . S
H3445 C3474 0.950 . S
H3446 C3476 0.950 . S
H3447 C3477 0.950 . S
C3448 H3430 0.951 . S
C3448 C3449 1.366 . S
C3448 C3450 1.388 . S
C3449 C3448 1.366 . S
C3449 C3453 1.385 . S
C3450 H3431 0.951 . S
C3450 C3448 1.388 . S
C3450 C3451 1.366 . S
C3451 C3450 1.366 . S
C3451 C3452 1.414 . S
C3451 C3454 1.499 . S
C3452 H3432 0.950 . S
C3452 C3451 1.414 . S
C3452 C3453 1.374 . S
C3453 H3433 0.950 . S
C3453 C3449 1.385 . S
C3453 C3452 1.374 . S
C3454 C3451 1.499 . S
C3454 C3455 1.373 . S
C3454 C3456 1.389 . S
C3455 H3434 0.950 . S
C3455 C3454 1.373 . S
C3455 C3471 1.377 . S
C3456 C3454 1.389 . S
C3456 C3457 1.524 . S
C3456 C3470 1.377 . S
C3457 C3456 1.524 . S
C3457 C3458 1.397 . S
C3457 C3462 1.363 . S
C3458 H3435 0.950 . S
C3458 C3457 1.397 . S
C3458 C3459 1.334 . S
C3459 H3436 0.950 . S
C3459 C3458 1.334 . S
C3459 C3460 1.287 . S
C3460 C3459 1.287 . S
C3460 C3461 1.524 . S
C3460 H3479 0.913 . S
C3461 H3437 0.950 . S
C3461 C3460 1.524 . S
C3461 C3462 1.415 . S
C3462 H3438 0.950 . S
C3462 C3457 1.363 . S
C3462 C3461 1.415 . S
C3463 H3439 0.951 . S
C3463 C3464 1.366 . S
C3463 C3465 1.388 . S
C3464 C3463 1.366 . S
C3464 C3468 1.385 . S
C3465 H3440 0.951 . S
C3465 C3463 1.388 . S
C3465 C3466 1.366 . S
C3466 C3465 1.366 . S
C3466 C3467 1.414 . S
C3466 C3469 1.499 . S
C3467 H3441 0.950 . S
C3467 C3466 1.414 . S
C3467 C3468 1.374 . S
C3468 H3442 0.950 . S
C3468 C3464 1.385 . S
C3468 C3467 1.374 . S
C3469 C3466 1.499 . S
C3469 C3470 1.373 . S
C3469 C3471 1.389 . S
C3470 H3443 0.950 . S
C3470 C3456 1.377 . S
C3470 C3469 1.373 . S
C3471 C3455 1.377 . S
C3471 C3469 1.389 . S
C3471 C3472 1.524 . S
C3472 C3471 1.524 . S
C3472 C3473 1.397 . S
C3472 C3477 1.363 . S
C3473 H3444 0.950 . S
C3473 C3472 1.397 . S
C3473 C3474 1.334 . S
C3474 H3445 0.950 . S
C3474 C3473 1.334 . S
C3474 C3475 1.287 . S
C3475 C3474 1.287 . S
C3475 C3476 1.524 . S
C3475 H3478 0.999 . S
C3476 H3446 0.950 . S
C3476 C3475 1.524 . S
C3476 C3477 1.415 . S
C3477 H3447 0.950 . S
C3477 C3472 1.363 . S
C3477 C3476 1.415 . S
H3478 C3475 0.999 . S
H3479 C3460 0.913 . S
H3480 C3498 0.951 . S
H3481 C3500 0.951 . S
H3482 C3502 0.950 . S
H3483 C3503 0.950 . S
H3484 C3505 0.950 . S
H3485 C3508 0.950 . S
H3486 C3509 0.950 . S
H3487 C3511 0.950 . S
H3488 C3512 0.950 . S
H3489 C3513 0.951 . S
H3490 C3515 0.951 . S
H3491 C3517 0.950 . S
H3492 C3518 0.950 . S
H3493 C3520 0.950 . S
H3494 C3523 0.924 1_565 S
H3495 C3524 0.950 . S
H3496 C3526 0.994 . S
H3497 C3527 0.950 . S
C3498 H3480 0.951 . S
C3498 C3499 1.366 . S
C3498 C3500 1.388 . S
C3499 C3498 1.366 . S
C3499 C3503 1.385 . S
C3500 H3481 0.951 . S
C3500 C3498 1.388 . S
C3500 C3501 1.366 . S
C3501 C3500 1.366 . S
C3501 C3502 1.414 . S
C3501 C3504 1.499 . S
C3502 H3482 0.950 . S
C3502 C3501 1.414 . S
C3502 C3503 1.374 . S
C3503 H3483 0.950 . S
C3503 C3499 1.385 . S
C3503 C3502 1.374 . S
C3504 C3501 1.499 . S
C3504 C3505 1.373 . S
C3504 C3506 1.389 . S
C3505 H3484 0.950 . S
C3505 C3504 1.373 . S
C3505 C3521 1.377 . S
C3506 C3504 1.389 . S
C3506 C3507 1.524 . S
C3506 C3520 1.377 . S
C3507 C3506 1.524 . S
C3507 C3508 1.397 . S
C3507 C3512 1.363 . S
C3508 H3485 0.950 . S
C3508 C3507 1.397 . S
C3508 C3509 1.334 . S
C3509 H3486 0.950 . S
C3509 C3508 1.334 . S
C3509 C3510 1.287 . S
C3510 C3509 1.287 . S
C3510 C3511 1.524 . S
C3510 H3529 0.913 . S
C3511 H3487 0.950 . S
C3511 C3510 1.524 . S
C3511 C3512 1.415 . S
C3512 H3488 0.950 . S
C3512 C3507 1.363 . S
C3512 C3511 1.415 . S
C3513 H3489 0.951 . S
C3513 C3514 1.366 . S
C3513 C3515 1.388 . S
C3514 C3513 1.366 . S
C3514 C3518 1.385 . S
C3515 H3490 0.951 . S
C3515 C3513 1.388 . S
C3515 C3516 1.366 . S
C3516 C3515 1.366 . S
C3516 C3517 1.414 . S
C3516 C3519 1.499 . S
C3517 H3491 0.950 . S
C3517 C3516 1.414 . S
C3517 C3518 1.374 . S
C3518 H3492 0.950 . S
C3518 C3514 1.385 . S
C3518 C3517 1.374 . S
C3519 C3516 1.499 . S
C3519 C3520 1.373 . S
C3519 C3521 1.389 . S
C3520 H3493 0.950 . S
C3520 C3506 1.377 . S
C3520 C3519 1.373 . S
C3521 C3505 1.377 . S
C3521 C3519 1.389 . S
C3521 C3522 1.524 . S
C3522 C3521 1.524 . S
C3522 C3523 1.431 . S
C3522 C3527 1.363 . S
C3523 H3494 0.924 1_545 S
C3523 C3522 1.431 . S
C3523 C3524 1.327 1_545 S
C3524 H3495 0.950 . S
C3524 C3523 1.327 1_565 S
C3524 C3525 1.287 1_565 S
C3525 C3524 1.287 1_545 S
C3525 C3526 1.524 . S
C3525 H3528 0.999 1_445 S
C3526 H3496 0.994 . S
C3526 C3525 1.524 . S
C3526 C3527 1.415 . S
C3527 H3497 0.950 . S
C3527 C3522 1.363 . S
C3527 C3526 1.415 . S
H3528 C3525 0.999 1_665 S
H3529 C3510 0.913 . S
H3530 C3548 0.951 . S
H3531 C3550 0.951 . S
H3532 C3552 0.950 . S
H3533 C3553 0.950 . S
H3534 C3555 0.950 . S
H3535 C3558 0.950 . S
H3536 C3559 0.950 . S
H3537 C3561 0.950 . S
H3538 C3562 0.950 . S
H3539 C3563 0.951 . S
H3540 C3565 0.951 . S
H3541 C3567 0.950 . S
H3542 C3568 0.950 . S
H3543 C3570 0.950 . S
H3544 C3573 0.950 . S
H3545 C3574 0.950 . S
H3546 C3576 0.950 . S
H3547 C3577 0.950 . S
C3548 H3530 0.951 . S
C3548 C3549 1.366 . S
C3548 C3550 1.388 . S
C3549 C3548 1.366 . S
C3549 C3553 1.385 . S
C3550 H3531 0.951 . S
C3550 C3548 1.388 . S
C3550 C3551 1.366 . S
C3551 C3550 1.366 . S
C3551 C3552 1.414 . S
C3551 C3554 1.499 . S
C3552 H3532 0.950 . S
C3552 C3551 1.414 . S
C3552 C3553 1.374 . S
C3553 H3533 0.950 . S
C3553 C3549 1.385 . S
C3553 C3552 1.374 . S
C3554 C3551 1.499 . S
C3554 C3555 1.373 . S
C3554 C3556 1.389 . S
C3555 H3534 0.950 . S
C3555 C3554 1.373 . S
C3555 C3571 1.377 . S
C3556 C3554 1.389 . S
C3556 C3557 1.524 . S
C3556 C3570 1.377 . S
C3557 C3556 1.524 . S
C3557 C3558 1.397 . S
C3557 C3562 1.363 . S
C3558 H3535 0.950 . S
C3558 C3557 1.397 . S
C3558 C3559 1.334 . S
C3559 H3536 0.950 . S
C3559 C3558 1.334 . S
C3559 C3560 1.287 . S
C3560 C3559 1.287 . S
C3560 C3561 1.524 . S
C3560 H3579 0.913 . S
C3561 H3537 0.950 . S
C3561 C3560 1.524 . S
C3561 C3562 1.415 . S
C3562 H3538 0.950 . S
C3562 C3557 1.363 . S
C3562 C3561 1.415 . S
C3563 H3539 0.951 . S
C3563 C3564 1.366 . S
C3563 C3565 1.388 . S
C3564 C3563 1.366 . S
C3564 C3568 1.385 . S
C3565 H3540 0.951 . S
C3565 C3563 1.388 . S
C3565 C3566 1.366 . S
C3566 C3565 1.366 . S
C3566 C3567 1.414 . S
C3566 C3569 1.499 . S
C3567 H3541 0.950 . S
C3567 C3566 1.414 . S
C3567 C3568 1.374 . S
C3568 H3542 0.950 . S
C3568 C3564 1.385 . S
C3568 C3567 1.374 . S
C3569 C3566 1.499 . S
C3569 C3570 1.373 . S
C3569 C3571 1.389 . S
C3570 H3543 0.950 . S
C3570 C3556 1.377 . S
C3570 C3569 1.373 . S
C3571 C3555 1.377 . S
C3571 C3569 1.389 . S
C3571 C3572 1.524 . S
C3572 C3571 1.524 . S
C3572 C3573 1.397 . S
C3572 C3577 1.363 . S
C3573 H3544 0.950 . S
C3573 C3572 1.397 . S
C3573 C3574 1.334 . S
C3574 H3545 0.950 . S
C3574 C3573 1.334 . S
C3574 C3575 1.287 . S
C3575 C3574 1.287 . S
C3575 C3576 1.524 . S
C3575 H3578 0.999 . S
C3576 H3546 0.950 . S
C3576 C3575 1.524 . S
C3576 C3577 1.415 . S
C3577 H3547 0.950 . S
C3577 C3572 1.363 . S
C3577 C3576 1.415 . S
H3578 C3575 0.999 . S
H3579 C3560 0.913 . S
H3580 C3598 0.951 . S
H3581 C3600 0.951 . S
H3582 C3602 0.950 . S
H3583 C3603 0.950 . S
H3584 C3605 0.950 . S
H3585 C3608 0.950 . S
H3586 C3609 0.950 . S
H3587 C3611 0.950 . S
H3588 C3612 0.950 . S
H3589 C3613 0.951 . S
H3590 C3615 0.951 . S
H3591 C3617 0.950 . S
H3592 C3618 0.950 . S
H3593 C3620 0.950 . S
H3594 C3623 0.950 1_545 S
H3595 C3624 0.950 . S
H3596 C3626 0.950 . S
H3597 C3627 0.950 . S
C3598 H3580 0.951 . S
C3598 C3599 1.366 . S
C3598 C3600 1.388 . S
C3599 C3598 1.366 . S
C3599 C3603 1.385 1_545 S
C3600 H3581 0.951 . S
C3600 C3598 1.388 . S
C3600 C3601 1.366 . S
C3601 C3600 1.366 . S
C3601 C3602 1.414 1_545 S
C3601 C3604 1.499 . S
C3602 H3582 0.950 . S
C3602 C3601 1.414 1_565 S
C3602 C3603 1.374 . S
C3603 H3583 0.950 . S
C3603 C3599 1.385 1_565 S
C3603 C3602 1.374 . S
C3604 C3601 1.499 . S
C3604 C3605 1.373 1_545 S
C3604 C3606 1.389 . S
C3605 H3584 0.950 . S
C3605 C3604 1.373 1_565 S
C3605 C3621 1.377 . S
C3606 C3604 1.389 . S
C3606 C3607 1.524 . S
C3606 C3620 1.377 . S
C3607 C3606 1.524 . S
C3607 C3608 1.397 . S
C3607 C3612 1.363 . S
C3608 H3585 0.950 . S
C3608 C3607 1.397 . S
C3608 C3609 1.334 . S
C3609 H3586 0.950 . S
C3609 C3608 1.334 . S
C3609 C3610 1.287 . S
C3610 C3609 1.287 . S
C3610 C3611 1.524 . S
C3610 H3629 0.913 . S
C3611 H3587 0.950 . S
C3611 C3610 1.524 . S
C3611 C3612 1.415 . S
C3612 H3588 0.950 . S
C3612 C3607 1.363 . S
C3612 C3611 1.415 . S
C3613 H3589 0.951 . S
C3613 C3614 1.366 1_565 S
C3613 C3615 1.388 . S
C3614 C3613 1.366 1_545 S
C3614 C3618 1.385 . S
C3615 H3590 0.951 . S
C3615 C3613 1.388 . S
C3615 C3616 1.366 1_565 S
C3616 C3615 1.366 1_545 S
C3616 C3617 1.414 . S
C3616 C3619 1.499 . S
C3617 H3591 0.950 . S
C3617 C3616 1.414 . S
C3617 C3618 1.374 . S
C3618 H3592 0.950 . S
C3618 C3614 1.385 . S
C3618 C3617 1.374 . S
C3619 C3616 1.499 . S
C3619 C3620 1.373 . S
C3619 C3621 1.389 1_545 S
C3620 H3593 0.950 . S
C3620 C3606 1.377 . S
C3620 C3619 1.373 . S
C3621 C3605 1.377 . S
C3621 C3619 1.389 1_565 S
C3621 C3622 1.524 . S
C3622 C3621 1.524 . S
C3622 C3623 1.397 . S
C3622 C3627 1.363 . S
C3623 H3594 0.950 1_565 S
C3623 C3622 1.397 . S
C3623 C3624 1.334 . S
C3624 H3595 0.950 . S
C3624 C3623 1.334 . S
C3624 C3625 1.287 . S
C3625 C3624 1.287 . S
C3625 C3626 1.524 . S
C3625 H3628 0.999 . S
C3626 H3596 0.950 . S
C3626 C3625 1.524 . S
C3626 C3627 1.415 . S
C3627 H3597 0.950 . S
C3627 C3622 1.363 . S
C3627 C3626 1.415 . S
H3628 C3625 0.999 . S
H3629 C3610 0.913 . S
H3630 C3648 0.951 . S
H3631 C3650 0.951 . S
H3632 C3652 0.950 . S
H3633 C3653 0.950 . S
H3634 C3655 0.950 . S
H3635 C3658 0.950 . S
H3636 C3659 0.950 . S
H3637 C3661 0.950 . S
H3638 C3662 0.950 . S
H3639 C3663 0.951 . S
H3640 C3665 0.951 . S
H3641 C3667 0.950 . S
H3642 C3668 0.950 . S
H3643 C3670 0.950 . S
H3644 C3673 0.950 . S
H3645 C3674 0.950 . S
H3646 C3676 0.950 . S
H3647 C3677 0.950 . S
C3648 H3630 0.951 . S
C3648 C3649 1.366 . S
C3648 C3650 1.388 . S
C3649 C3648 1.366 . S
C3649 C3653 1.385 . S
C3650 H3631 0.951 . S
C3650 C3648 1.388 . S
C3650 C3651 1.366 . S
C3651 C3650 1.366 . S
C3651 C3652 1.414 . S
C3651 C3654 1.499 . S
C3652 H3632 0.950 . S
C3652 C3651 1.414 . S
C3652 C3653 1.374 . S
C3653 H3633 0.950 . S
C3653 C3649 1.385 . S
C3653 C3652 1.374 . S
C3654 C3651 1.499 . S
C3654 C3655 1.373 . S
C3654 C3656 1.389 . S
C3655 H3634 0.950 . S
C3655 C3654 1.373 . S
C3655 C3671 1.377 . S
C3656 C3654 1.389 . S
C3656 C3657 1.524 . S
C3656 C3670 1.377 . S
C3657 C3656 1.524 . S
C3657 C3658 1.397 . S
C3657 C3662 1.363 . S
C3658 H3635 0.950 . S
C3658 C3657 1.397 . S
C3658 C3659 1.334 . S
C3659 H3636 0.950 . S
C3659 C3658 1.334 . S
C3659 C3660 1.287 . S
C3660 C3659 1.287 . S
C3660 C3661 1.524 . S
C3660 H3679 0.913 . S
C3661 H3637 0.950 . S
C3661 C3660 1.524 . S
C3661 C3662 1.415 . S
C3662 H3638 0.950 . S
C3662 C3657 1.363 . S
C3662 C3661 1.415 . S
C3663 H3639 0.951 . S
C3663 C3664 1.366 . S
C3663 C3665 1.388 . S
C3664 C3663 1.366 . S
C3664 C3668 1.385 . S
C3665 H3640 0.951 . S
C3665 C3663 1.388 . S
C3665 C3666 1.366 . S
C3666 C3665 1.366 . S
C3666 C3667 1.414 . S
C3666 C3669 1.499 . S
C3667 H3641 0.950 . S
C3667 C3666 1.414 . S
C3667 C3668 1.374 . S
C3668 H3642 0.950 . S
C3668 C3664 1.385 . S
C3668 C3667 1.374 . S
C3669 C3666 1.499 . S
C3669 C3670 1.373 . S
C3669 C3671 1.389 . S
C3670 H3643 0.950 . S
C3670 C3656 1.377 . S
C3670 C3669 1.373 . S
C3671 C3655 1.377 . S
C3671 C3669 1.389 . S
C3671 C3672 1.524 . S
C3672 C3671 1.524 . S
C3672 C3673 1.397 . S
C3672 C3677 1.363 . S
C3673 H3644 0.950 . S
C3673 C3672 1.397 . S
C3673 C3674 1.334 . S
C3674 H3645 0.950 . S
C3674 C3673 1.334 . S
C3674 C3675 1.287 . S
C3675 C3674 1.287 . S
C3675 C3676 1.524 . S
C3675 H3678 0.999 . S
C3676 H3646 0.950 . S
C3676 C3675 1.524 . S
C3676 C3677 1.415 . S
C3677 H3647 0.950 . S
C3677 C3672 1.363 . S
C3677 C3676 1.415 . S
H3678 C3675 0.999 . S
H3679 C3660 0.913 . S
H3680 C3698 0.951 . S
H3681 C3700 0.951 . S
H3682 C3702 0.950 . S
H3683 C3703 0.950 . S
H3684 C3705 0.950 . S
H3685 C3708 0.950 . S
H3686 C3709 0.950 . S
H3687 C3711 0.950 . S
H3688 C3712 0.950 . S
H3689 C3713 0.951 . S
H3690 C3715 0.951 . S
H3691 C3717 0.950 . S
H3692 C3718 0.950 . S
H3693 C3720 0.950 . S
H3694 C3723 0.975 . S
H3695 C3724 0.950 1_556 S
H3696 C3726 0.950 . S
H3697 C3727 0.950 . S
C3698 H3680 0.951 . S
C3698 C3699 1.366 . S
C3698 C3700 1.388 . S
C3699 C3698 1.366 . S
C3699 C3703 1.385 . S
C3700 H3681 0.951 . S
C3700 C3698 1.388 . S
C3700 C3701 1.366 . S
C3701 C3700 1.366 . S
C3701 C3702 1.414 . S
C3701 C3704 1.499 . S
C3702 H3682 0.950 . S
C3702 C3701 1.414 . S
C3702 C3703 1.374 . S
C3703 H3683 0.950 . S
C3703 C3699 1.385 . S
C3703 C3702 1.374 . S
C3704 C3701 1.499 . S
C3704 C3705 1.373 . S
C3704 C3706 1.389 . S
C3705 H3684 0.950 . S
C3705 C3704 1.373 . S
C3705 C3721 1.377 . S
C3706 C3704 1.389 . S
C3706 C3707 1.524 . S
C3706 C3720 1.377 . S
C3707 C3706 1.524 . S
C3707 C3708 1.397 . S
C3707 C3712 1.363 . S
C3708 H3685 0.950 . S
C3708 C3707 1.397 . S
C3708 C3709 1.334 . S
C3709 H3686 0.950 . S
C3709 C3708 1.334 . S
C3709 C3710 1.287 . S
C3710 C3709 1.287 . S
C3710 C3711 1.524 . S
C3710 H3729 0.913 . S
C3711 H3687 0.950 . S
C3711 C3710 1.524 . S
C3711 C3712 1.415 . S
C3712 H3688 0.950 . S
C3712 C3707 1.363 . S
C3712 C3711 1.415 . S
C3713 H3689 0.951 . S
C3713 C3714 1.366 . S
C3713 C3715 1.388 . S
C3714 C3713 1.366 . S
C3714 C3718 1.385 . S
C3715 H3690 0.951 . S
C3715 C3713 1.388 . S
C3715 C3716 1.366 . S
C3716 C3715 1.366 . S
C3716 C3717 1.414 . S
C3716 C3719 1.499 . S
C3717 H3691 0.950 . S
C3717 C3716 1.414 . S
C3717 C3718 1.374 . S
C3718 H3692 0.950 . S
C3718 C3714 1.385 . S
C3718 C3717 1.374 . S
C3719 C3716 1.499 . S
C3719 C3720 1.373 . S
C3719 C3721 1.389 . S
C3720 H3693 0.950 . S
C3720 C3706 1.377 . S
C3720 C3719 1.373 . S
C3721 C3705 1.377 . S
C3721 C3719 1.389 . S
C3721 C3722 1.524 . S
C3722 C3721 1.524 . S
C3722 C3723 1.397 . S
C3722 C3727 1.363 . S
C3723 H3694 0.975 . S
C3723 C3722 1.397 . S
C3723 C3724 1.334 . S
C3724 H3695 0.950 1_554 S
C3724 C3723 1.334 . S
C3724 C3725 1.287 . S
C3725 C3724 1.287 . S
C3725 C3726 1.524 . S
C3725 H3728 0.999 . S
C3726 H3696 0.950 . S
C3726 C3725 1.524 . S
C3726 C3727 1.415 . S
C3727 H3697 0.950 . S
C3727 C3722 1.363 . S
C3727 C3726 1.415 . S
H3728 C3725 0.999 . S
H3729 C3710 0.913 . S
H3730 C3748 0.951 . S
H3731 C3750 0.951 . S
H3732 C3752 0.950 . S
H3733 C3753 0.950 . S
H3734 C3755 0.950 . S
H3735 C3758 0.950 . S
H3736 C3759 0.950 . S
H3737 C3761 0.950 . S
H3738 C3762 0.950 . S
H3739 C3763 0.951 . S
H3740 C3765 0.951 . S
H3741 C3767 0.950 . S
H3742 C3768 0.950 . S
H3743 C3770 0.950 . S
H3744 C3773 0.950 . S
H3745 C3774 0.950 . S
H3746 C3776 0.950 . S
H3747 C3777 0.950 . S
C3748 H3730 0.951 . S
C3748 C3749 1.366 . S
C3748 C3750 1.388 . S
C3749 C3748 1.366 . S
C3749 C3753 1.385 . S
C3750 H3731 0.951 . S
C3750 C3748 1.388 . S
C3750 C3751 1.366 . S
C3751 C3750 1.366 . S
C3751 C3752 1.414 . S
C3751 C3754 1.499 . S
C3752 H3732 0.950 . S
C3752 C3751 1.414 . S
C3752 C3753 1.374 . S
C3753 H3733 0.950 . S
C3753 C3749 1.385 . S
C3753 C3752 1.374 . S
C3754 C3751 1.499 . S
C3754 C3755 1.373 . S
C3754 C3756 1.389 . S
C3755 H3734 0.950 . S
C3755 C3754 1.373 . S
C3755 C3771 1.377 . S
C3756 C3754 1.389 . S
C3756 C3757 1.524 . S
C3756 C3770 1.377 . S
C3757 C3756 1.524 . S
C3757 C3758 1.397 . S
C3757 C3762 1.363 1_554 S
C3758 H3735 0.950 . S
C3758 C3757 1.397 . S
C3758 C3759 1.334 1_554 S
C3759 H3736 0.950 . S
C3759 C3758 1.334 1_556 S
C3759 C3760 1.287 . S
C3760 C3759 1.287 . S
C3760 C3761 1.524 . S
C3760 H3779 0.913 . S
C3761 H3737 0.950 . S
C3761 C3760 1.524 . S
C3761 C3762 1.415 . S
C3762 H3738 0.950 . S
C3762 C3757 1.363 1_556 S
C3762 C3761 1.415 . S
C3763 H3739 0.951 . S
C3763 C3764 1.366 . S
C3763 C3765 1.388 . S
C3764 C3763 1.366 . S
C3764 C3768 1.385 . S
C3765 H3740 0.951 . S
C3765 C3763 1.388 . S
C3765 C3766 1.366 . S
C3766 C3765 1.366 . S
C3766 C3767 1.414 . S
C3766 C3769 1.499 . S
C3767 H3741 0.950 . S
C3767 C3766 1.414 . S
C3767 C3768 1.374 . S
C3768 H3742 0.950 . S
C3768 C3764 1.385 . S
C3768 C3767 1.374 . S
C3769 C3766 1.499 . S
C3769 C3770 1.373 . S
C3769 C3771 1.389 . S
C3770 H3743 0.950 . S
C3770 C3756 1.377 . S
C3770 C3769 1.373 . S
C3771 C3755 1.377 . S
C3771 C3769 1.389 . S
C3771 C3772 1.524 . S
C3772 C3771 1.524 . S
C3772 C3773 1.397 . S
C3772 C3777 1.363 . S
C3773 H3744 0.950 . S
C3773 C3772 1.397 . S
C3773 C3774 1.334 . S
C3774 H3745 0.950 . S
C3774 C3773 1.334 . S
C3774 C3775 1.287 . S
C3775 C3774 1.287 . S
C3775 C3776 1.524 . S
C3775 H3778 0.999 . S
C3776 H3746 0.950 . S
C3776 C3775 1.524 . S
C3776 C3777 1.415 . S
C3777 H3747 0.950 . S
C3777 C3772 1.363 . S
C3777 C3776 1.415 . S
H3778 C3775 0.999 . S
H3779 C3760 0.913 . S
H3780 C3798 0.951 . S
H3781 C3800 0.951 . S
H3782 C3802 0.950 . S
H3783 C3803 0.950 . S
H3784 C3805 0.950 . S
H3785 C3808 0.950 . S
H3786 C3809 0.950 . S
H3787 C3811 0.950 . S
H3788 C3812 0.950 . S
H3789 C3813 0.951 . S
H3790 C3815 0.951 . S
H3791 C3817 0.950 . S
H3792 C3818 0.950 . S
H3793 C3820 0.950 . S
H3794 C3823 0.950 . S
H3795 C3824 0.950 . S
H3796 C3826 0.950 . S
H3797 C3827 0.950 . S
C3798 H3780 0.951 . S
C3798 C3799 1.366 . S
C3798 C3800 1.388 . S
C3799 C3798 1.366 . S
C3799 C3803 1.385 . S
C3800 H3781 0.951 . S
C3800 C3798 1.388 . S
C3800 C3801 1.366 . S
C3801 C3800 1.366 . S
C3801 C3802 1.414 . S
C3801 C3804 1.499 . S
C3802 H3782 0.950 . S
C3802 C3801 1.414 . S
C3802 C3803 1.374 . S
C3803 H3783 0.950 . S
C3803 C3799 1.385 . S
C3803 C3802 1.374 . S
C3804 C3801 1.499 . S
C3804 C3805 1.373 . S
C3804 C3806 1.389 . S
C3805 H3784 0.950 . S
C3805 C3804 1.373 . S
C3805 C3821 1.377 . S
C3806 C3804 1.389 . S
C3806 C3807 1.524 . S
C3806 C3820 1.377 . S
C3807 C3806 1.524 . S
C3807 C3808 1.397 . S
C3807 C3812 1.363 . S
C3808 H3785 0.950 . S
C3808 C3807 1.397 . S
C3808 C3809 1.334 . S
C3809 H3786 0.950 . S
C3809 C3808 1.334 . S
C3809 C3810 1.287 . S
C3810 C3809 1.287 . S
C3810 C3811 1.524 . S
C3810 H3829 0.913 . S
C3811 H3787 0.950 . S
C3811 C3810 1.524 . S
C3811 C3812 1.415 . S
C3812 H3788 0.950 . S
C3812 C3807 1.363 . S
C3812 C3811 1.415 . S
C3813 H3789 0.951 . S
C3813 C3814 1.366 . S
C3813 C3815 1.388 . S
C3814 C3813 1.366 . S
C3814 C3818 1.385 . S
C3815 H3790 0.951 . S
C3815 C3813 1.388 . S
C3815 C3816 1.366 . S
C3816 C3815 1.366 . S
C3816 C3817 1.414 . S
C3816 C3819 1.499 . S
C3817 H3791 0.950 . S
C3817 C3816 1.414 . S
C3817 C3818 1.374 . S
C3818 H3792 0.950 . S
C3818 C3814 1.385 . S
C3818 C3817 1.374 . S
C3819 C3816 1.499 . S
C3819 C3820 1.373 . S
C3819 C3821 1.389 . S
C3820 H3793 0.950 . S
C3820 C3806 1.377 . S
C3820 C3819 1.373 . S
C3821 C3805 1.377 . S
C3821 C3819 1.389 . S
C3821 C3822 1.524 . S
C3822 C3821 1.524 . S
C3822 C3823 1.397 . S
C3822 C3827 1.363 . S
C3823 H3794 0.950 . S
C3823 C3822 1.397 . S
C3823 C3824 1.334 . S
C3824 H3795 0.950 . S
C3824 C3823 1.334 . S
C3824 C3825 1.287 . S
C3825 C3824 1.287 . S
C3825 C3826 1.524 . S
C3825 H3828 0.999 . S
C3826 H3796 0.950 . S
C3826 C3825 1.524 . S
C3826 C3827 1.415 . S
C3827 H3797 0.950 . S
C3827 C3822 1.363 . S
C3827 C3826 1.415 . S
H3828 C3825 0.999 . S
H3829 C3810 0.913 . S
H3830 C3848 0.951 . S
H3831 C3850 0.951 . S
H3832 C3852 0.950 . S
H3833 C3853 0.950 . S
H3834 C3855 0.950 . S
H3835 C3858 0.950 . S
H3836 C3859 0.950 . S
H3837 C3861 0.950 . S
H3838 C3862 0.950 . S
H3839 C3863 0.951 . S
H3840 C3865 0.951 . S
H3841 C3867 0.950 . S
H3842 C3868 0.950 . S
H3843 C3870 0.950 . S
H3844 C3873 0.950 . S
H3845 C3874 0.950 . S
H3846 C3876 0.950 . S
H3847 C3877 0.950 . S
C3848 H3830 0.951 . S
C3848 C3849 1.366 . S
C3848 C3850 1.388 . S
C3849 C3848 1.366 . S
C3849 C3853 1.385 . S
C3850 H3831 0.951 . S
C3850 C3848 1.388 . S
C3850 C3851 1.366 . S
C3851 C3850 1.366 . S
C3851 C3852 1.414 . S
C3851 C3854 1.499 . S
C3852 H3832 0.950 . S
C3852 C3851 1.414 . S
C3852 C3853 1.374 . S
C3853 H3833 0.950 . S
C3853 C3849 1.385 . S
C3853 C3852 1.374 . S
C3854 C3851 1.499 . S
C3854 C3855 1.373 . S
C3854 C3856 1.389 . S
C3855 H3834 0.950 . S
C3855 C3854 1.373 . S
C3855 C3871 1.377 . S
C3856 C3854 1.389 . S
C3856 C3857 1.524 . S
C3856 C3870 1.377 . S
C3857 C3856 1.524 . S
C3857 C3858 1.397 . S
C3857 C3862 1.363 . S
C3858 H3835 0.950 . S
C3858 C3857 1.397 . S
C3858 C3859 1.334 . S
C3859 H3836 0.950 . S
C3859 C3858 1.334 . S
C3859 C3860 1.287 . S
C3860 C3859 1.287 . S
C3860 C3861 1.524 . S
C3860 H3879 0.913 . S
C3861 H3837 0.950 . S
C3861 C3860 1.524 . S
C3861 C3862 1.415 . S
C3862 H3838 0.950 . S
C3862 C3857 1.363 . S
C3862 C3861 1.415 . S
C3863 H3839 0.951 . S
C3863 C3864 1.366 . S
C3863 C3865 1.388 . S
C3864 C3863 1.366 . S
C3864 C3868 1.385 . S
C3865 H3840 0.951 . S
C3865 C3863 1.388 . S
C3865 C3866 1.366 . S
C3866 C3865 1.366 . S
C3866 C3867 1.414 . S
C3866 C3869 1.499 . S
C3867 H3841 0.950 . S
C3867 C3866 1.414 . S
C3867 C3868 1.374 . S
C3868 H3842 0.950 . S
C3868 C3864 1.385 . S
C3868 C3867 1.374 . S
C3869 C3866 1.499 . S
C3869 C3870 1.373 . S
C3869 C3871 1.389 . S
C3870 H3843 0.950 . S
C3870 C3856 1.377 . S
C3870 C3869 1.373 . S
C3871 C3855 1.377 . S
C3871 C3869 1.389 . S
C3871 C3872 1.524 . S
C3872 C3871 1.524 . S
C3872 C3873 1.397 . S
C3872 C3877 1.363 . S
C3873 H3844 0.950 . S
C3873 C3872 1.397 . S
C3873 C3874 1.334 . S
C3874 H3845 0.950 . S
C3874 C3873 1.334 . S
C3874 C3875 1.287 . S
C3875 C3874 1.287 . S
C3875 C3876 1.524 . S
C3875 H3878 0.999 . S
C3876 H3846 0.950 . S
C3876 C3875 1.524 . S
C3876 C3877 1.415 . S
C3877 H3847 0.950 . S
C3877 C3872 1.363 . S
C3877 C3876 1.415 . S
H3878 C3875 0.999 . S
H3879 C3860 0.913 . S
H3880 C3898 0.951 . S
H3881 C3900 0.951 . S
H3882 C3902 0.950 . S
H3883 C3903 0.950 1_545 S
H3884 C3905 0.950 . S
H3885 C3908 0.950 . S
H3886 C3909 0.950 . S
H3887 C3911 0.950 . S
H3888 C3912 0.950 . S
H3889 C3913 0.951 . S
H3890 C3915 0.951 . S
H3891 C3917 0.950 . S
H3892 C3918 0.950 . S
H3893 C3920 0.950 . S
H3894 C3923 0.950 . S
H3895 C3924 0.950 . S
H3896 C3926 0.950 . S
H3897 C3927 0.950 . S
C3898 H3880 0.951 . S
C3898 C3899 1.366 . S
C3898 C3900 1.388 . S
C3899 C3898 1.366 . S
C3899 C3903 1.385 . S
C3900 H3881 0.951 . S
C3900 C3898 1.388 . S
C3900 C3901 1.366 . S
C3901 C3900 1.366 . S
C3901 C3902 1.414 . S
C3901 C3904 1.499 . S
C3902 H3882 0.950 . S
C3902 C3901 1.414 . S
C3902 C3903 1.374 . S
C3903 H3883 0.950 1_565 S
C3903 C3899 1.385 . S
C3903 C3902 1.374 . S
C3904 C3901 1.499 . S
C3904 C3905 1.373 . S
C3904 C3906 1.389 . S
C3905 H3884 0.950 . S
C3905 C3904 1.373 . S
C3905 C3921 1.377 . S
C3906 C3904 1.389 . S
C3906 C3907 1.524 . S
C3906 C3920 1.377 . S
C3907 C3906 1.524 . S
C3907 C3908 1.397 . S
C3907 C3912 1.363 . S
C3908 H3885 0.950 . S
C3908 C3907 1.397 . S
C3908 C3909 1.334 . S
C3909 H3886 0.950 . S
C3909 C3908 1.334 . S
C3909 C3910 1.287 . S
C3910 C3909 1.287 . S
C3910 C3911 1.524 . S
C3910 H3929 0.913 . S
C3911 H3887 0.950 . S
C3911 C3910 1.524 . S
C3911 C3912 1.415 . S
C3912 H3888 0.950 . S
C3912 C3907 1.363 . S
C3912 C3911 1.415 . S
C3913 H3889 0.951 . S
C3913 C3914 1.366 . S
C3913 C3915 1.388 . S
C3914 C3913 1.366 . S
C3914 C3918 1.385 . S
C3915 H3890 0.951 . S
C3915 C3913 1.388 . S
C3915 C3916 1.366 . S
C3916 C3915 1.366 . S
C3916 C3917 1.414 . S
C3916 C3919 1.499 . S
C3917 H3891 0.950 . S
C3917 C3916 1.414 . S
C3917 C3918 1.374 . S
C3918 H3892 0.950 . S
C3918 C3914 1.385 . S
C3918 C3917 1.374 . S
C3919 C3916 1.499 . S
C3919 C3920 1.373 . S
C3919 C3921 1.389 . S
C3920 H3893 0.950 . S
C3920 C3906 1.377 . S
C3920 C3919 1.373 . S
C3921 C3905 1.377 . S
C3921 C3919 1.389 . S
C3921 C3922 1.524 . S
C3922 C3921 1.524 . S
C3922 C3923 1.397 . S
C3922 C3927 1.363 . S
C3923 H3894 0.950 . S
C3923 C3922 1.397 . S
C3923 C3924 1.334 . S
C3924 H3895 0.950 . S
C3924 C3923 1.334 . S
C3924 C3925 1.287 . S
C3925 C3924 1.287 . S
C3925 C3926 1.524 . S
C3925 H3928 0.999 . S
C3926 H3896 0.950 . S
C3926 C3925 1.524 . S
C3926 C3927 1.415 . S
C3927 H3897 0.950 . S
C3927 C3922 1.363 . S
C3927 C3926 1.415 . S
H3928 C3925 0.999 . S
H3929 C3910 0.913 . S
H3930 C3948 0.951 . S
H3931 C3950 0.951 . S
H3932 C3952 0.950 . S
H3933 C3953 0.950 . S
H3934 C3955 0.950 . S
H3935 C3958 0.950 . S
H3936 C3959 0.950 . S
H3937 C3961 0.950 . S
H3938 C3962 0.950 . S
H3939 C3963 0.951 . S
H3940 C3965 0.951 . S
H3941 C3967 0.950 . S
H3942 C3968 0.950 . S
H3943 C3970 0.950 . S
H3944 C3973 0.950 . S
H3945 C3974 0.950 . S
H3946 C3976 0.950 . S
H3947 C3977 0.950 . S
C3948 H3930 0.951 . S
C3948 C3949 1.366 . S
C3948 C3950 1.388 . S
C3949 C3948 1.366 . S
C3949 C3953 1.385 . S
C3950 H3931 0.951 . S
C3950 C3948 1.388 . S
C3950 C3951 1.366 . S
C3951 C3950 1.366 . S
C3951 C3952 1.414 . S
C3951 C3954 1.499 . S
C3952 H3932 0.950 . S
C3952 C3951 1.414 . S
C3952 C3953 1.374 . S
C3953 H3933 0.950 . S
C3953 C3949 1.385 . S
C3953 C3952 1.374 . S
C3954 C3951 1.499 . S
C3954 C3955 1.373 . S
C3954 C3956 1.389 . S
C3955 H3934 0.950 . S
C3955 C3954 1.373 . S
C3955 C3971 1.377 . S
C3956 C3954 1.389 . S
C3956 C3957 1.524 . S
C3956 C3970 1.377 . S
C3957 C3956 1.524 . S
C3957 C3958 1.397 . S
C3957 C3962 1.363 . S
C3958 H3935 0.950 . S
C3958 C3957 1.397 . S
C3958 C3959 1.334 . S
C3959 H3936 0.950 . S
C3959 C3958 1.334 . S
C3959 C3960 1.287 . S
C3960 C3959 1.287 . S
C3960 C3961 1.524 . S
C3960 H3979 0.913 . S
C3961 H3937 0.950 . S
C3961 C3960 1.524 . S
C3961 C3962 1.415 . S
C3962 H3938 0.950 . S
C3962 C3957 1.363 . S
C3962 C3961 1.415 . S
C3963 H3939 0.951 . S
C3963 C3964 1.366 . S
C3963 C3965 1.388 . S
C3964 C3963 1.366 . S
C3964 C3968 1.385 . S
C3965 H3940 0.951 . S
C3965 C3963 1.388 . S
C3965 C3966 1.366 . S
C3966 C3965 1.366 . S
C3966 C3967 1.414 . S
C3966 C3969 1.499 . S
C3967 H3941 0.950 . S
C3967 C3966 1.414 . S
C3967 C3968 1.374 . S
C3968 H3942 0.950 . S
C3968 C3964 1.385 . S
C3968 C3967 1.374 . S
C3969 C3966 1.499 . S
C3969 C3970 1.373 . S
C3969 C3971 1.389 . S
C3970 H3943 0.950 . S
C3970 C3956 1.377 . S
C3970 C3969 1.373 . S
C3971 C3955 1.377 . S
C3971 C3969 1.389 . S
C3971 C3972 1.524 . S
C3972 C3971 1.524 . S
C3972 C3973 1.397 . S
C3972 C3977 1.363 . S
C3973 H3944 0.950 . S
C3973 C3972 1.397 . S
C3973 C3974 1.334 1_565 S
C3974 H3945 0.950 . S
C3974 C3973 1.334 1_545 S
C3974 C3975 1.287 . S
C3975 C3974 1.287 . S
C3975 C3976 1.524 . S
C3975 H3978 0.999 . S
C3976 H3946 0.950 . S
C3976 C3975 1.524 . S
C3976 C3977 1.415 1_545 S
C3977 H3947 0.950 . S
C3977 C3972 1.363 . S
C3977 C3976 1.415 1_565 S
H3978 C3975 0.999 . S
H3979 C3960 0.913 . S
H3980 C3998 0.951 . S
H3981 C4000 0.951 . S
H3982 C4002 0.950 . S
H3983 C4003 0.950 . S
H3984 C4005 0.950 . S
H3985 C4008 0.950 . S
H3986 C4009 0.950 . S
H3987 C4011 0.950 . S
H3988 C4012 0.950 . S
H3989 C4013 0.951 . S
H3990 C4015 0.951 . S
H3991 C4017 0.950 . S
H3992 C4018 0.950 . S
H3993 C4020 0.950 . S
H3994 C4023 0.950 . S
H3995 C4024 0.950 . S
H3996 C4026 0.950 . S
H3997 C4027 0.950 . S
C3998 H3980 0.951 . S
C3998 C3999 1.366 . S
C3998 C4000 1.388 . S
C3999 C3998 1.366 . S
C3999 C4003 1.385 . S
C4000 H3981 0.951 . S
C4000 C3998 1.388 . S
C4000 C4001 1.366 . S
C4001 C4000 1.366 . S
C4001 C4002 1.414 . S
C4001 C4004 1.499 . S
C4002 H3982 0.950 . S
C4002 C4001 1.414 . S
C4002 C4003 1.374 . S
C4003 H3983 0.950 . S
C4003 C3999 1.385 . S
C4003 C4002 1.374 . S
C4004 C4001 1.499 . S
C4004 C4005 1.373 . S
C4004 C4006 1.389 . S
C4005 H3984 0.950 . S
C4005 C4004 1.373 . S
C4005 C4021 1.377 . S
C4006 C4004 1.389 . S
C4006 C4007 1.524 . S
C4006 C4020 1.377 . S
C4007 C4006 1.524 . S
C4007 C4008 1.397 . S
C4007 C4012 1.363 . S
C4008 H3985 0.950 . S
C4008 C4007 1.397 . S
C4008 C4009 1.334 . S
C4009 H3986 0.950 . S
C4009 C4008 1.334 . S
C4009 C4010 1.287 . S
C4010 C4009 1.287 . S
C4010 C4011 1.524 . S
C4010 H4029 0.913 . S
C4011 H3987 0.950 . S
C4011 C4010 1.524 . S
C4011 C4012 1.415 . S
C4012 H3988 0.950 . S
C4012 C4007 1.363 . S
C4012 C4011 1.415 . S
C4013 H3989 0.951 . S
C4013 C4014 1.366 . S
C4013 C4015 1.388 . S
C4014 C4013 1.366 . S
C4014 C4018 1.385 . S
C4015 H3990 0.951 . S
C4015 C4013 1.388 . S
C4015 C4016 1.366 . S
C4016 C4015 1.366 . S
C4016 C4017 1.414 . S
C4016 C4019 1.499 . S
C4017 H3991 0.950 . S
C4017 C4016 1.414 . S
C4017 C4018 1.374 . S
C4018 H3992 0.950 . S
C4018 C4014 1.385 . S
C4018 C4017 1.374 . S
C4019 C4016 1.499 . S
C4019 C4020 1.373 . S
C4019 C4021 1.389 . S
C4020 H3993 0.950 . S
C4020 C4006 1.377 . S
C4020 C4019 1.373 . S
C4021 C4005 1.377 . S
C4021 C4019 1.389 . S
C4021 C4022 1.524 . S
C4022 C4021 1.524 . S
C4022 C4023 1.397 . S
C4022 C4027 1.363 . S
C4023 H3994 0.950 . S
C4023 C4022 1.397 . S
C4023 C4024 1.334 . S
C4024 H3995 0.950 . S
C4024 C4023 1.334 . S
C4024 C4025 1.287 . S
C4025 C4024 1.287 . S
C4025 C4026 1.524 . S
C4025 H4028 0.999 . S
C4026 H3996 0.950 . S
C4026 C4025 1.524 . S
C4026 C4027 1.415 . S
C4027 H3997 0.950 . S
C4027 C4022 1.363 . S
C4027 C4026 1.415 . S
H4028 C4025 0.999 . S
H4029 C4010 0.913 . S
H4030 C4048 0.951 . S
H4031 C4050 0.951 . S
H4032 C4052 0.950 . S
H4033 C4053 0.950 . S
H4034 C4055 0.950 . S
H4035 C4058 0.950 . S
H4036 C4059 0.950 . S
H4037 C4061 0.950 . S
H4038 C4062 0.950 . S
H4039 C4063 0.951 . S
H4040 C4065 0.951 . S
H4041 C4067 0.950 . S
H4042 C4068 0.950 . S
H4043 C4070 0.950 . S
H4044 C4073 0.950 . S
H4045 C4074 0.950 . S
H4046 C4076 0.950 . S
H4047 C4077 0.950 . S
C4048 H4030 0.951 . S
C4048 C4049 1.366 . S
C4048 C4050 1.388 . S
C4049 C4048 1.366 . S
C4049 C4053 1.385 . S
C4050 H4031 0.951 . S
C4050 C4048 1.388 . S
C4050 C4051 1.366 . S
C4051 C4050 1.366 . S
C4051 C4052 1.414 . S
C4051 C4054 1.499 . S
C4052 H4032 0.950 . S
C4052 C4051 1.414 . S
C4052 C4053 1.374 . S
C4053 H4033 0.950 . S
C4053 C4049 1.385 . S
C4053 C4052 1.374 . S
C4054 C4051 1.499 . S
C4054 C4055 1.373 . S
C4054 C4056 1.389 . S
C4055 H4034 0.950 . S
C4055 C4054 1.373 . S
C4055 C4071 1.377 . S
C4056 C4054 1.389 . S
C4056 C4057 1.524 . S
C4056 C4070 1.377 . S
C4057 C4056 1.524 . S
C4057 C4058 1.397 . S
C4057 C4062 1.363 . S
C4058 H4035 0.950 . S
C4058 C4057 1.397 . S
C4058 C4059 1.334 . S
C4059 H4036 0.950 . S
C4059 C4058 1.334 . S
C4059 C4060 1.287 . S
C4060 C4059 1.287 . S
C4060 C4061 1.524 . S
C4060 H4079 0.913 . S
C4061 H4037 0.950 . S
C4061 C4060 1.524 . S
C4061 C4062 1.415 . S
C4062 H4038 0.950 . S
C4062 C4057 1.363 . S
C4062 C4061 1.415 . S
C4063 H4039 0.951 . S
C4063 C4064 1.366 . S
C4063 C4065 1.388 . S
C4064 C4063 1.366 . S
C4064 C4068 1.385 . S
C4065 H4040 0.951 . S
C4065 C4063 1.388 . S
C4065 C4066 1.366 . S
C4066 C4065 1.366 . S
C4066 C4067 1.414 . S
C4066 C4069 1.499 . S
C4067 H4041 0.950 . S
C4067 C4066 1.414 . S
C4067 C4068 1.374 . S
C4068 H4042 0.950 . S
C4068 C4064 1.385 . S
C4068 C4067 1.374 . S
C4069 C4066 1.499 . S
C4069 C4070 1.373 . S
C4069 C4071 1.389 . S
C4070 H4043 0.950 . S
C4070 C4056 1.377 . S
C4070 C4069 1.373 . S
C4071 C4055 1.377 . S
C4071 C4069 1.389 . S
C4071 C4072 1.524 . S
C4072 C4071 1.524 . S
C4072 C4073 1.397 . S
C4072 C4077 1.363 . S
C4073 H4044 0.950 . S
C4073 C4072 1.397 . S
C4073 C4074 1.334 . S
C4074 H4045 0.950 . S
C4074 C4073 1.334 . S
C4074 C4075 1.287 . S
C4075 C4074 1.287 . S
C4075 C4076 1.524 . S
C4075 H4078 0.999 . S
C4076 H4046 0.950 . S
C4076 C4075 1.524 . S
C4076 C4077 1.415 . S
C4077 H4047 0.950 . S
C4077 C4072 1.363 . S
C4077 C4076 1.415 . S
H4078 C4075 0.999 . S
H4079 C4060 0.913 . S
H4080 C4098 0.951 . S
H4081 C4100 0.951 . S
H4082 C4102 0.950 . S
H4083 C4103 0.950 . S
H4084 C4105 0.950 . S
H4085 C4108 0.950 . S
H4086 C4109 0.950 . S
H4087 C4111 0.950 . S
H4088 C4112 0.950 . S
H4089 C4113 0.951 . S
H4090 C4115 0.951 . S
H4091 C4117 0.950 . S
H4092 C4118 0.950 . S
H4093 C4120 0.950 . S
H4094 C4123 0.950 . S
H4095 C4124 0.950 . S
H4096 C4126 0.950 . S
H4097 C4127 0.950 . S
C4098 H4080 0.951 . S
C4098 C4099 1.366 . S
C4098 C4100 1.388 . S
C4099 C4098 1.366 . S
C4099 C4103 1.385 . S
C4100 H4081 0.951 . S
C4100 C4098 1.388 . S
C4100 C4101 1.366 . S
C4101 C4100 1.366 . S
C4101 C4102 1.414 . S
C4101 C4104 1.499 . S
C4102 H4082 0.950 . S
C4102 C4101 1.414 . S
C4102 C4103 1.374 . S
C4103 H4083 0.950 . S
C4103 C4099 1.385 . S
C4103 C4102 1.374 . S
C4104 C4101 1.499 . S
C4104 C4105 1.373 . S
C4104 C4106 1.389 . S
C4105 H4084 0.950 . S
C4105 C4104 1.373 . S
C4105 C4121 1.377 . S
C4106 C4104 1.389 . S
C4106 C4107 1.524 . S
C4106 C4120 1.377 . S
C4107 C4106 1.524 . S
C4107 C4108 1.397 . S
C4107 C4112 1.363 . S
C4108 H4085 0.950 . S
C4108 C4107 1.397 . S
C4108 C4109 1.334 . S
C4109 H4086 0.950 . S
C4109 C4108 1.334 . S
C4109 C4110 1.287 . S
C4110 C4109 1.287 . S
C4110 C4111 1.524 . S
C4110 H4129 0.913 . S
C4111 H4087 0.950 . S
C4111 C4110 1.524 . S
C4111 C4112 1.415 . S
C4112 H4088 0.950 . S
C4112 C4107 1.363 . S
C4112 C4111 1.415 . S
C4113 H4089 0.951 . S
C4113 C4114 1.366 . S
C4113 C4115 1.388 . S
C4114 C4113 1.366 . S
C4114 C4118 1.385 . S
C4115 H4090 0.951 . S
C4115 C4113 1.388 . S
C4115 C4116 1.366 . S
C4116 C4115 1.366 . S
C4116 C4117 1.414 . S
C4116 C4119 1.499 . S
C4117 H4091 0.950 . S
C4117 C4116 1.414 . S
C4117 C4118 1.374 . S
C4118 H4092 0.950 . S
C4118 C4114 1.385 . S
C4118 C4117 1.374 . S
C4119 C4116 1.499 . S
C4119 C4120 1.373 . S
C4119 C4121 1.389 . S
C4120 H4093 0.950 . S
C4120 C4106 1.377 . S
C4120 C4119 1.373 . S
C4121 C4105 1.377 . S
C4121 C4119 1.389 . S
C4121 C4122 1.524 . S
C4122 C4121 1.524 . S
C4122 C4123 1.397 . S
C4122 C4127 1.363 . S
C4123 H4094 0.950 . S
C4123 C4122 1.397 . S
C4123 C4124 1.334 . S
C4124 H4095 0.950 . S
C4124 C4123 1.334 . S
C4124 C4125 1.287 . S
C4125 C4124 1.287 . S
C4125 C4126 1.524 . S
C4125 H4128 0.999 . S
C4126 H4096 0.950 . S
C4126 C4125 1.524 . S
C4126 C4127 1.415 . S
C4127 H4097 0.950 . S
C4127 C4122 1.363 . S
C4127 C4126 1.415 . S
H4128 C4125 0.999 . S
H4129 C4110 0.913 . S
H4130 C4148 0.951 . S
H4131 C4150 0.951 . S
H4132 C4152 0.950 . S
H4133 C4153 0.950 . S
H4134 C4155 0.950 . S
H4135 C4158 0.950 . S
H4136 C4159 0.950 . S
H4137 C4161 0.950 . S
H4138 C4162 0.950 . S
H4139 C4163 0.951 . S
H4140 C4165 0.951 . S
H4141 C4167 0.950 . S
H4142 C4168 0.950 . S
H4143 C4170 0.950 . S
H4144 C4173 0.950 . S
H4145 C4174 0.950 . S
H4146 C4176 0.950 . S
H4147 C4177 0.950 . S
C4148 H4130 0.951 . S
C4148 C4149 1.366 . S
C4148 C4150 1.388 . S
C4149 C4148 1.366 . S
C4149 C4153 1.385 . S
C4150 H4131 0.951 . S
C4150 C4148 1.388 . S
C4150 C4151 1.366 . S
C4151 C4150 1.366 . S
C4151 C4152 1.414 . S
C4151 C4154 1.499 . S
C4152 H4132 0.950 . S
C4152 C4151 1.414 . S
C4152 C4153 1.374 . S
C4153 H4133 0.950 . S
C4153 C4149 1.385 . S
C4153 C4152 1.374 . S
C4154 C4151 1.499 . S
C4154 C4155 1.373 . S
C4154 C4156 1.389 . S
C4155 H4134 0.950 . S
C4155 C4154 1.373 . S
C4155 C4171 1.377 . S
C4156 C4154 1.389 . S
C4156 C4157 1.524 . S
C4156 C4170 1.377 . S
C4157 C4156 1.524 . S
C4157 C4158 1.397 . S
C4157 C4162 1.363 . S
C4158 H4135 0.950 . S
C4158 C4157 1.397 . S
C4158 C4159 1.334 . S
C4159 H4136 0.950 . S
C4159 C4158 1.334 . S
C4159 C4160 1.287 . S
C4160 C4159 1.287 . S
C4160 C4161 1.524 . S
C4160 H4179 0.913 . S
C4161 H4137 0.950 . S
C4161 C4160 1.524 . S
C4161 C4162 1.415 . S
C4162 H4138 0.950 . S
C4162 C4157 1.363 . S
C4162 C4161 1.415 . S
C4163 H4139 0.951 . S
C4163 C4164 1.366 . S
C4163 C4165 1.388 . S
C4164 C4163 1.366 . S
C4164 C4168 1.385 . S
C4165 H4140 0.951 . S
C4165 C4163 1.388 . S
C4165 C4166 1.366 . S
C4166 C4165 1.366 . S
C4166 C4167 1.414 . S
C4166 C4169 1.499 . S
C4167 H4141 0.950 . S
C4167 C4166 1.414 . S
C4167 C4168 1.374 . S
C4168 H4142 0.950 . S
C4168 C4164 1.385 . S
C4168 C4167 1.374 . S
C4169 C4166 1.499 . S
C4169 C4170 1.373 . S
C4169 C4171 1.389 . S
C4170 H4143 0.950 . S
C4170 C4156 1.377 . S
C4170 C4169 1.373 . S
C4171 C4155 1.377 . S
C4171 C4169 1.389 . S
C4171 C4172 1.524 . S
C4172 C4171 1.524 . S
C4172 C4173 1.397 . S
C4172 C4177 1.363 . S
C4173 H4144 0.950 . S
C4173 C4172 1.397 . S
C4173 C4174 1.334 . S
C4174 H4145 0.950 . S
C4174 C4173 1.334 . S
C4174 C4175 1.287 . S
C4175 C4174 1.287 . S
C4175 C4176 1.524 . S
C4175 H4178 0.999 . S
C4176 H4146 0.950 . S
C4176 C4175 1.524 . S
C4176 C4177 1.415 . S
C4177 H4147 0.950 . S
C4177 C4172 1.363 . S
C4177 C4176 1.415 . S
H4178 C4175 0.999 . S
H4179 C4160 0.913 . S
H4180 C4198 0.951 . S
H4181 C4200 0.951 . S
H4182 C4202 0.950 . S
H4183 C4203 0.950 . S
H4184 C4205 0.950 . S
H4185 C4208 0.926 1_554 S
H4186 C4209 0.950 . S
H4187 C4211 0.950 . S
H4188 C4212 0.950 . S
H4189 C4213 0.951 1_655 S
H4190 C4215 0.951 1_655 S
H4191 C4217 0.950 . S
H4192 C4218 0.950 . S
H4193 C4220 0.950 . S
H4194 C4223 0.950 . S
H4195 C4224 0.950 . S
H4196 C4226 0.950 . S
H4197 C4227 0.933 1_554 S
C4198 H4180 0.951 . S
C4198 C4199 1.366 . S
C4198 C4200 1.388 . S
C4199 C4198 1.366 . S
C4199 C4203 1.385 1_455 S
C4200 H4181 0.951 . S
C4200 C4198 1.388 . S
C4200 C4201 1.366 . S
C4201 C4200 1.366 . S
C4201 C4202 1.414 1_455 S
C4201 C4204 1.499 . S
C4202 H4182 0.950 . S
C4202 C4201 1.414 1_655 S
C4202 C4203 1.374 . S
C4203 H4183 0.950 . S
C4203 C4199 1.385 1_655 S
C4203 C4202 1.374 . S
C4204 C4201 1.499 . S
C4204 C4205 1.373 1_455 S
C4204 C4206 1.389 . S
C4205 H4184 0.950 . S
C4205 C4204 1.373 1_655 S
C4205 C4221 1.377 . S
C4206 C4204 1.389 . S
C4206 C4207 1.524 . S
C4206 C4220 1.377 . S
C4207 C4206 1.524 . S
C4207 C4208 1.425 . S
C4207 C4212 1.363 . S
C4208 H4185 0.926 1_556 S
C4208 C4207 1.425 . S
C4208 C4209 1.331 1_556 S
C4209 H4186 0.950 . S
C4209 C4208 1.331 1_554 S
C4209 C4210 1.287 1_554 S
C4210 C4209 1.287 1_556 S
C4210 C4211 1.524 . S
C4210 H4229 0.913 . S
C4211 H4187 0.950 . S
C4211 C4210 1.524 . S
C4211 C4212 1.415 . S
C4212 H4188 0.950 . S
C4212 C4207 1.363 . S
C4212 C4211 1.415 . S
C4213 H4189 0.951 1_455 S
C4213 C4214 1.366 . S
C4213 C4215 1.388 . S
C4214 C4213 1.366 . S
C4214 C4218 1.385 1_554 S
C4215 H4190 0.951 1_455 S
C4215 C4213 1.388 . S
C4215 C4216 1.366 1_554 S
C4216 C4215 1.366 1_556 S
C4216 C4217 1.414 . S
C4216 C4219 1.499 . S
C4217 H4191 0.950 . S
C4217 C4216 1.414 . S
C4217 C4218 1.374 . S
C4218 H4192 0.950 . S
C4218 C4214 1.385 1_556 S
C4218 C4217 1.374 . S
C4219 C4216 1.499 . S
C4219 C4220 1.373 . S
C4219 C4221 1.389 1_455 S
C4220 H4193 0.950 . S
C4220 C4206 1.377 . S
C4220 C4219 1.373 . S
C4221 C4205 1.377 . S
C4221 C4219 1.389 1_655 S
C4221 C4222 1.524 . S
C4222 C4221 1.524 . S
C4222 C4223 1.397 . S
C4222 C4227 1.363 . S
C4223 H4194 0.950 . S
C4223 C4222 1.397 . S
C4223 C4224 1.334 . S
C4224 H4195 0.950 . S
C4224 C4223 1.334 . S
C4224 C4225 1.287 . S
C4225 C4224 1.287 . S
C4225 C4226 1.524 . S
C4225 H4228 0.999 . S
C4226 H4196 0.950 . S
C4226 C4225 1.524 . S
C4226 C4227 1.415 . S
C4227 H4197 0.933 1_556 S
C4227 C4222 1.363 . S
C4227 C4226 1.415 . S
H4228 C4225 0.999 . S
H4229 C4210 0.913 . S
H4230 C4248 0.951 . S
H4231 C4250 0.951 . S
H4232 C4252 0.950 . S
H4233 C4253 0.927 1_455 S
H4234 C4255 0.950 . S
H4235 C4258 0.950 . S
H4236 C4259 0.950 . S
H4237 C4261 0.950 . S
H4238 C4262 0.950 . S
H4239 C4263 0.951 . S
H4240 C4265 0.951 . S
H4241 C4267 0.950 . S
H4242 C4268 0.950 . S
H4243 C4270 0.950 . S
H4244 C4273 0.950 . S
H4245 C4274 0.950 . S
H4246 C4276 0.950 . S
H4247 C4277 0.950 . S
C4248 H4230 0.951 . S
C4248 C4249 1.366 . S
C4248 C4250 1.388 . S
C4249 C4248 1.366 . S
C4249 C4253 1.386 . S
C4250 H4231 0.951 . S
C4250 C4248 1.388 . S
C4250 C4251 1.366 . S
C4251 C4250 1.366 . S
C4251 C4252 1.414 . S
C4251 C4254 1.499 . S
C4252 H4232 0.950 . S
C4252 C4251 1.414 . S
C4252 C4253 1.395 . S
C4253 H4233 0.927 1_655 S
C4253 C4249 1.386 . S
C4253 C4252 1.395 . S
C4254 C4251 1.499 . S
C4254 C4255 1.373 . S
C4254 C4256 1.389 . S
C4255 H4234 0.950 . S
C4255 C4254 1.373 . S
C4255 C4271 1.377 . S
C4256 C4254 1.389 . S
C4256 C4257 1.524 . S
C4256 C4270 1.377 . S
C4257 C4256 1.524 . S
C4257 C4258 1.397 . S
C4257 C4262 1.363 . S
C4258 H4235 0.950 . S
C4258 C4257 1.397 . S
C4258 C4259 1.334 . S
C4259 H4236 0.950 . S
C4259 C4258 1.334 . S
C4259 C4260 1.287 . S
C4260 C4259 1.287 . S
C4260 C4261 1.524 . S
C4260 H4279 0.913 . S
C4261 H4237 0.950 . S
C4261 C4260 1.524 . S
C4261 C4262 1.415 . S
C4262 H4238 0.950 . S
C4262 C4257 1.363 . S
C4262 C4261 1.415 . S
C4263 H4239 0.951 . S
C4263 C4264 1.366 . S
C4263 C4265 1.388 . S
C4264 C4263 1.366 . S
C4264 C4268 1.385 . S
C4265 H4240 0.951 . S
C4265 C4263 1.388 . S
C4265 C4266 1.366 . S
C4266 C4265 1.366 . S
C4266 C4267 1.414 . S
C4266 C4269 1.499 . S
C4267 H4241 0.950 . S
C4267 C4266 1.414 . S
C4267 C4268 1.374 . S
C4268 H4242 0.950 . S
C4268 C4264 1.385 . S
C4268 C4267 1.374 . S
C4269 C4266 1.499 . S
C4269 C4270 1.373 . S
C4269 C4271 1.389 . S
C4270 H4243 0.950 . S
C4270 C4256 1.377 . S
C4270 C4269 1.373 . S
C4271 C4255 1.377 . S
C4271 C4269 1.389 . S
C4271 C4272 1.524 . S
C4272 C4271 1.524 . S
C4272 C4273 1.397 . S
C4272 C4277 1.363 . S
C4273 H4244 0.950 . S
C4273 C4272 1.397 . S
C4273 C4274 1.334 . S
C4274 H4245 0.950 . S
C4274 C4273 1.334 . S
C4274 C4275 1.287 . S
C4275 C4274 1.287 . S
C4275 C4276 1.524 . S
C4275 H4278 0.999 . S
C4276 H4246 0.950 . S
C4276 C4275 1.524 . S
C4276 C4277 1.415 . S
C4277 H4247 0.950 . S
C4277 C4272 1.363 . S
C4277 C4276 1.415 . S
H4278 C4275 0.999 . S
H4279 C4260 0.913 . S
H4280 C4298 0.951 . S
H4281 C4300 0.951 . S
H4282 C4302 0.950 . S
H4283 C4303 0.950 . S
H4284 C4305 0.950 . S
H4285 C4308 0.950 . S
H4286 C4309 0.950 . S
H4287 C4311 0.950 . S
H4288 C4312 0.950 . S
H4289 C4313 0.951 . S
H4290 C4315 0.951 . S
H4291 C4317 0.950 . S
H4292 C4318 0.950 . S
H4293 C4320 0.950 . S
H4294 C4323 0.950 . S
H4295 C4324 0.950 . S
H4296 C4326 0.950 . S
H4297 C4327 0.950 . S
C4298 H4280 0.951 . S
C4298 C4299 1.366 . S
C4298 C4300 1.388 . S
C4299 C4298 1.366 . S
C4299 C4303 1.385 . S
C4300 H4281 0.951 . S
C4300 C4298 1.388 . S
C4300 C4301 1.366 . S
C4301 C4300 1.366 . S
C4301 C4302 1.414 . S
C4301 C4304 1.499 . S
C4302 H4282 0.950 . S
C4302 C4301 1.414 . S
C4302 C4303 1.374 . S
C4303 H4283 0.950 . S
C4303 C4299 1.385 . S
C4303 C4302 1.374 . S
C4304 C4301 1.499 . S
C4304 C4305 1.373 . S
C4304 C4306 1.389 . S
C4305 H4284 0.950 . S
C4305 C4304 1.373 . S
C4305 C4321 1.377 . S
C4306 C4304 1.389 . S
C4306 C4307 1.524 . S
C4306 C4320 1.377 . S
C4307 C4306 1.524 . S
C4307 C4308 1.397 . S
C4307 C4312 1.363 . S
C4308 H4285 0.950 . S
C4308 C4307 1.397 . S
C4308 C4309 1.334 . S
C4309 H4286 0.950 . S
C4309 C4308 1.334 . S
C4309 C4310 1.287 . S
C4310 C4309 1.287 . S
C4310 C4311 1.524 . S
C4310 H4329 0.913 . S
C4311 H4287 0.950 . S
C4311 C4310 1.524 . S
C4311 C4312 1.415 . S
C4312 H4288 0.950 . S
C4312 C4307 1.363 . S
C4312 C4311 1.415 . S
C4313 H4289 0.951 . S
C4313 C4314 1.366 . S
C4313 C4315 1.388 . S
C4314 C4313 1.366 . S
C4314 C4318 1.385 . S
C4315 H4290 0.951 . S
C4315 C4313 1.388 . S
C4315 C4316 1.366 . S
C4316 C4315 1.366 . S
C4316 C4317 1.414 . S
C4316 C4319 1.499 . S
C4317 H4291 0.950 . S
C4317 C4316 1.414 . S
C4317 C4318 1.374 . S
C4318 H4292 0.950 . S
C4318 C4314 1.385 . S
C4318 C4317 1.374 . S
C4319 C4316 1.499 . S
C4319 C4320 1.373 . S
C4319 C4321 1.389 . S
C4320 H4293 0.950 . S
C4320 C4306 1.377 . S
C4320 C4319 1.373 . S
C4321 C4305 1.377 . S
C4321 C4319 1.389 . S
C4321 C4322 1.524 . S
C4322 C4321 1.524 . S
C4322 C4323 1.397 . S
C4322 C4327 1.363 . S
C4323 H4294 0.950 . S
C4323 C4322 1.397 . S
C4323 C4324 1.334 . S
C4324 H4295 0.950 . S
C4324 C4323 1.334 . S
C4324 C4325 1.287 . S
C4325 C4324 1.287 . S
C4325 C4326 1.524 . S
C4325 H4328 0.999 . S
C4326 H4296 0.950 . S
C4326 C4325 1.524 . S
C4326 C4327 1.415 . S
C4327 H4297 0.950 . S
C4327 C4322 1.363 . S
C4327 C4326 1.415 . S
H4328 C4325 0.999 . S
H4329 C4310 0.913 . S
H4330 C4348 0.951 . S
H4331 C4350 0.951 . S
H4332 C4352 0.950 . S
H4333 C4353 0.950 . S
H4334 C4355 0.950 . S
H4335 C4358 0.950 . S
H4336 C4359 0.950 . S
H4337 C4361 0.950 . S
H4338 C4362 0.950 . S
H4339 C4363 0.951 . S
H4340 C4365 0.951 . S
H4341 C4367 0.950 . S
H4342 C4368 0.950 . S
H4343 C4370 0.950 . S
H4344 C4373 0.950 . S
H4345 C4374 0.950 . S
H4346 C4376 0.950 . S
H4347 C4377 0.950 . S
C4348 H4330 0.951 . S
C4348 C4349 1.366 . S
C4348 C4350 1.388 . S
C4349 C4348 1.366 . S
C4349 C4353 1.385 . S
C4350 H4331 0.951 . S
C4350 C4348 1.388 . S
C4350 C4351 1.366 . S
C4351 C4350 1.366 . S
C4351 C4352 1.414 . S
C4351 C4354 1.499 . S
C4352 H4332 0.950 . S
C4352 C4351 1.414 . S
C4352 C4353 1.374 . S
C4353 H4333 0.950 . S
C4353 C4349 1.385 . S
C4353 C4352 1.374 . S
C4354 C4351 1.499 . S
C4354 C4355 1.373 . S
C4354 C4356 1.389 . S
C4355 H4334 0.950 . S
C4355 C4354 1.373 . S
C4355 C4371 1.377 . S
C4356 C4354 1.389 . S
C4356 C4357 1.524 . S
C4356 C4370 1.377 . S
C4357 C4356 1.524 . S
C4357 C4358 1.397 . S
C4357 C4362 1.363 . S
C4358 H4335 0.950 . S
C4358 C4357 1.397 . S
C4358 C4359 1.334 . S
C4359 H4336 0.950 . S
C4359 C4358 1.334 . S
C4359 C4360 1.287 . S
C4360 C4359 1.287 . S
C4360 C4361 1.524 . S
C4360 H4379 0.913 . S
C4361 H4337 0.950 . S
C4361 C4360 1.524 . S
C4361 C4362 1.415 . S
C4362 H4338 0.950 . S
C4362 C4357 1.363 . S
C4362 C4361 1.415 . S
C4363 H4339 0.951 . S
C4363 C4364 1.366 . S
C4363 C4365 1.388 . S
C4364 C4363 1.366 . S
C4364 C4368 1.385 . S
C4365 H4340 0.951 . S
C4365 C4363 1.388 . S
C4365 C4366 1.366 . S
C4366 C4365 1.366 . S
C4366 C4367 1.414 . S
C4366 C4369 1.499 . S
C4367 H4341 0.950 . S
C4367 C4366 1.414 . S
C4367 C4368 1.374 . S
C4368 H4342 0.950 . S
C4368 C4364 1.385 . S
C4368 C4367 1.374 . S
C4369 C4366 1.499 . S
C4369 C4370 1.373 . S
C4369 C4371 1.389 . S
C4370 H4343 0.950 . S
C4370 C4356 1.377 . S
C4370 C4369 1.373 . S
C4371 C4355 1.377 . S
C4371 C4369 1.389 . S
C4371 C4372 1.524 . S
C4372 C4371 1.524 . S
C4372 C4373 1.397 . S
C4372 C4377 1.363 . S
C4373 H4344 0.950 . S
C4373 C4372 1.397 . S
C4373 C4374 1.334 . S
C4374 H4345 0.950 . S
C4374 C4373 1.334 . S
C4374 C4375 1.287 . S
C4375 C4374 1.287 . S
C4375 C4376 1.524 . S
C4375 H4378 0.999 . S
C4376 H4346 0.950 . S
C4376 C4375 1.524 . S
C4376 C4377 1.415 . S
C4377 H4347 0.950 . S
C4377 C4372 1.363 . S
C4377 C4376 1.415 . S
H4378 C4375 0.999 . S
H4379 C4360 0.913 . S
H4380 C4398 0.951 1_655 S
H4381 C4400 0.941 1_655 S
H4382 C4402 0.950 . S
H4383 C4403 0.950 . S
H4384 C4405 0.950 . S
H4385 C4408 0.950 . S
H4386 C4409 0.950 . S
H4387 C4411 0.950 . S
H4388 C4412 0.950 . S
H4389 C4413 0.951 . S
H4390 C4415 0.951 . S
H4391 C4417 0.950 . S
H4392 C4418 0.950 . S
H4393 C4420 0.950 . S
H4394 C4423 0.950 . S
H4395 C4424 0.950 . S
H4396 C4426 0.950 . S
H4397 C4427 0.950 . S
C4398 H4380 0.951 1_455 S
C4398 C4399 1.366 . S
C4398 C4400 1.388 . S
C4399 C4398 1.366 . S
C4399 C4403 1.385 . S
C4400 H4381 0.941 1_455 S
C4400 C4398 1.388 . S
C4400 C4401 1.366 . S
C4401 C4400 1.366 . S
C4401 C4402 1.414 . S
C4401 C4404 1.499 . S
C4402 H4382 0.950 . S
C4402 C4401 1.414 . S
C4402 C4403 1.374 . S
C4403 H4383 0.950 . S
C4403 C4399 1.385 . S
C4403 C4402 1.374 . S
C4404 C4401 1.499 . S
C4404 C4405 1.373 . S
C4404 C4406 1.389 1_455 S
C4405 H4384 0.950 . S
C4405 C4404 1.373 . S
C4405 C4421 1.377 . S
C4406 C4404 1.389 1_655 S
C4406 C4407 1.524 . S
C4406 C4420 1.377 . S
C4407 C4406 1.524 . S
C4407 C4408 1.397 . S
C4407 C4412 1.363 . S
C4408 H4385 0.950 . S
C4408 C4407 1.397 . S
C4408 C4409 1.334 . S
C4409 H4386 0.950 . S
C4409 C4408 1.334 . S
C4409 C4410 1.287 . S
C4410 C4409 1.287 . S
C4410 C4411 1.524 . S
C4410 H4429 0.913 . S
C4411 H4387 0.950 . S
C4411 C4410 1.524 . S
C4411 C4412 1.415 . S
C4412 H4388 0.950 . S
C4412 C4407 1.363 . S
C4412 C4411 1.415 . S
C4413 H4389 0.951 . S
C4413 C4414 1.366 . S
C4413 C4415 1.388 . S
C4414 C4413 1.366 . S
C4414 C4418 1.385 . S
C4415 H4390 0.951 . S
C4415 C4413 1.388 . S
C4415 C4416 1.366 . S
C4416 C4415 1.366 . S
C4416 C4417 1.414 . S
C4416 C4419 1.499 . S
C4417 H4391 0.950 . S
C4417 C4416 1.414 . S
C4417 C4418 1.374 . S
C4418 H4392 0.950 . S
C4418 C4414 1.385 . S
C4418 C4417 1.374 . S
C4419 C4416 1.499 . S
C4419 C4420 1.373 1_455 S
C4419 C4421 1.389 . S
C4420 H4393 0.950 . S
C4420 C4406 1.377 . S
C4420 C4419 1.373 1_655 S
C4421 C4405 1.377 . S
C4421 C4419 1.389 . S
C4421 C4422 1.524 . S
C4422 C4421 1.524 . S
C4422 C4423 1.397 . S
C4422 C4427 1.363 . S
C4423 H4394 0.950 . S
C4423 C4422 1.397 . S
C4423 C4424 1.334 . S
C4424 H4395 0.950 . S
C4424 C4423 1.334 . S
C4424 C4425 1.287 . S
C4425 C4424 1.287 . S
C4425 C4426 1.524 . S
C4425 H4428 0.999 . S
C4426 H4396 0.950 . S
C4426 C4425 1.524 . S
C4426 C4427 1.415 . S
C4427 H4397 0.950 . S
C4427 C4422 1.363 . S
C4427 C4426 1.415 . S
H4428 C4425 0.999 . S
H4429 C4410 0.913 . S
H4430 C4448 0.951 . S
H4431 C4450 0.951 . S
H4432 C4452 0.950 . S
H4433 C4453 0.950 . S
H4434 C4455 0.950 . S
H4435 C4458 0.950 . S
H4436 C4459 0.950 . S
H4437 C4461 0.950 . S
H4438 C4462 0.950 . S
H4439 C4463 0.951 . S
H4440 C4465 0.951 . S
H4441 C4467 0.950 . S
H4442 C4468 0.950 . S
H4443 C4470 0.950 . S
H4444 C4473 0.950 . S
H4445 C4474 0.950 . S
H4446 C4476 0.950 . S
H4447 C4477 0.950 . S
C4448 H4430 0.951 . S
C4448 C4449 1.366 . S
C4448 C4450 1.388 . S
C4449 C4448 1.366 . S
C4449 C4453 1.385 . S
C4450 H4431 0.951 . S
C4450 C4448 1.388 . S
C4450 C4451 1.366 . S
C4451 C4450 1.366 . S
C4451 C4452 1.414 . S
C4451 C4454 1.499 . S
C4452 H4432 0.950 . S
C4452 C4451 1.414 . S
C4452 C4453 1.374 . S
C4453 H4433 0.950 . S
C4453 C4449 1.385 . S
C4453 C4452 1.374 . S
C4454 C4451 1.499 . S
C4454 C4455 1.373 . S
C4454 C4456 1.389 . S
C4455 H4434 0.950 . S
C4455 C4454 1.373 . S
C4455 C4471 1.377 . S
C4456 C4454 1.389 . S
C4456 C4457 1.524 . S
C4456 C4470 1.377 . S
C4457 C4456 1.524 . S
C4457 C4458 1.397 . S
C4457 C4462 1.363 . S
C4458 H4435 0.950 . S
C4458 C4457 1.397 . S
C4458 C4459 1.334 . S
C4459 H4436 0.950 . S
C4459 C4458 1.334 . S
C4459 C4460 1.287 . S
C4460 C4459 1.287 . S
C4460 C4461 1.524 . S
C4460 H4479 0.913 . S
C4461 H4437 0.950 . S
C4461 C4460 1.524 . S
C4461 C4462 1.415 . S
C4462 H4438 0.950 . S
C4462 C4457 1.363 . S
C4462 C4461 1.415 . S
C4463 H4439 0.951 . S
C4463 C4464 1.366 . S
C4463 C4465 1.388 . S
C4464 C4463 1.366 . S
C4464 C4468 1.385 . S
C4465 H4440 0.951 . S
C4465 C4463 1.388 . S
C4465 C4466 1.366 . S
C4466 C4465 1.366 . S
C4466 C4467 1.414 . S
C4466 C4469 1.499 . S
C4467 H4441 0.950 . S
C4467 C4466 1.414 . S
C4467 C4468 1.374 . S
C4468 H4442 0.950 . S
C4468 C4464 1.385 . S
C4468 C4467 1.374 . S
C4469 C4466 1.499 . S
C4469 C4470 1.373 . S
C4469 C4471 1.389 . S
C4470 H4443 0.950 . S
C4470 C4456 1.377 . S
C4470 C4469 1.373 . S
C4471 C4455 1.377 . S
C4471 C4469 1.389 . S
C4471 C4472 1.524 . S
C4472 C4471 1.524 . S
C4472 C4473 1.397 . S
C4472 C4477 1.363 . S
C4473 H4444 0.950 . S
C4473 C4472 1.397 . S
C4473 C4474 1.334 . S
C4474 H4445 0.950 . S
C4474 C4473 1.334 . S
C4474 C4475 1.287 . S
C4475 C4474 1.287 . S
C4475 C4476 1.524 . S
C4475 H4478 0.999 . S
C4476 H4446 0.950 . S
C4476 C4475 1.524 . S
C4476 C4477 1.415 . S
C4477 H4447 0.950 . S
C4477 C4472 1.363 . S
C4477 C4476 1.415 . S
H4478 C4475 0.999 . S
H4479 C4460 0.913 . S
H4480 C4498 0.951 . S
H4481 C4500 0.951 . S
H4482 C4502 0.950 . S
H4483 C4503 0.950 . S
H4484 C4505 0.950 . S
H4485 C4508 0.950 . S
H4486 C4509 0.950 . S
H4487 C4511 0.950 . S
H4488 C4512 0.950 . S
H4489 C4513 0.951 . S
H4490 C4515 0.951 . S
H4491 C4517 0.950 . S
H4492 C4518 0.950 . S
H4493 C4520 0.950 . S
H4494 C4523 0.950 . S
H4495 C4524 0.950 . S
H4496 C4526 0.950 . S
H4497 C4527 0.950 . S
C4498 H4480 0.951 . S
C4498 C4499 1.366 . S
C4498 C4500 1.388 . S
C4499 C4498 1.366 . S
C4499 C4503 1.385 . S
C4500 H4481 0.951 . S
C4500 C4498 1.388 . S
C4500 C4501 1.366 . S
C4501 C4500 1.366 . S
C4501 C4502 1.414 . S
C4501 C4504 1.499 . S
C4502 H4482 0.950 . S
C4502 C4501 1.414 . S
C4502 C4503 1.374 . S
C4503 H4483 0.950 . S
C4503 C4499 1.385 . S
C4503 C4502 1.374 . S
C4504 C4501 1.499 . S
C4504 C4505 1.373 . S
C4504 C4506 1.389 . S
C4505 H4484 0.950 . S
C4505 C4504 1.373 . S
C4505 C4521 1.377 . S
C4506 C4504 1.389 . S
C4506 C4507 1.524 . S
C4506 C4520 1.377 . S
C4507 C4506 1.524 . S
C4507 C4508 1.397 . S
C4507 C4512 1.363 . S
C4508 H4485 0.950 . S
C4508 C4507 1.397 . S
C4508 C4509 1.334 . S
C4509 H4486 0.950 . S
C4509 C4508 1.334 . S
C4509 C4510 1.287 . S
C4510 C4509 1.287 . S
C4510 C4511 1.524 . S
C4510 H4529 0.913 . S
C4511 H4487 0.950 . S
C4511 C4510 1.524 . S
C4511 C4512 1.415 . S
C4512 H4488 0.950 . S
C4512 C4507 1.363 . S
C4512 C4511 1.415 . S
C4513 H4489 0.951 . S
C4513 C4514 1.366 . S
C4513 C4515 1.388 . S
C4514 C4513 1.366 . S
C4514 C4518 1.385 . S
C4515 H4490 0.951 . S
C4515 C4513 1.388 . S
C4515 C4516 1.366 . S
C4516 C4515 1.366 . S
C4516 C4517 1.414 . S
C4516 C4519 1.499 . S
C4517 H4491 0.950 . S
C4517 C4516 1.414 . S
C4517 C4518 1.374 . S
C4518 H4492 0.950 . S
C4518 C4514 1.385 . S
C4518 C4517 1.374 . S
C4519 C4516 1.499 . S
C4519 C4520 1.373 . S
C4519 C4521 1.389 . S
C4520 H4493 0.950 . S
C4520 C4506 1.377 . S
C4520 C4519 1.373 . S
C4521 C4505 1.377 . S
C4521 C4519 1.389 . S
C4521 C4522 1.524 . S
C4522 C4521 1.524 . S
C4522 C4523 1.397 . S
C4522 C4527 1.363 . S
C4523 H4494 0.950 . S
C4523 C4522 1.397 . S
C4523 C4524 1.334 . S
C4524 H4495 0.950 . S
C4524 C4523 1.334 . S
C4524 C4525 1.287 . S
C4525 C4524 1.287 . S
C4525 C4526 1.524 . S
C4525 H4528 0.999 . S
C4526 H4496 0.950 . S
C4526 C4525 1.524 . S
C4526 C4527 1.415 . S
C4527 H4497 0.950 . S
C4527 C4522 1.363 . S
C4527 C4526 1.415 . S
H4528 C4525 0.999 . S
H4529 C4510 0.913 . S
H4530 C4548 0.951 . S
H4531 C4550 0.951 . S
H4532 C4552 0.950 . S
H4533 C4553 0.950 . S
H4534 C4555 0.950 . S
H4535 C4558 0.950 . S
H4536 C4559 0.950 1_554 S
H4537 C4561 0.950 . S
H4538 C4562 0.950 . S
H4539 C4563 0.951 . S
H4540 C4565 0.951 . S
H4541 C4567 0.950 . S
H4542 C4568 0.950 . S
H4543 C4570 0.950 . S
H4544 C4573 0.950 . S
H4545 C4574 0.950 . S
H4546 C4576 0.950 . S
H4547 C4577 0.950 . S
C4548 H4530 0.951 . S
C4548 C4549 1.366 1_556 S
C4548 C4550 1.388 . S
C4549 C4548 1.366 1_554 S
C4549 C4553 1.385 . S
C4550 H4531 0.951 . S
C4550 C4548 1.388 . S
C4550 C4551 1.366 . S
C4551 C4550 1.366 . S
C4551 C4552 1.414 . S
C4551 C4554 1.499 . S
C4552 H4532 0.950 . S
C4552 C4551 1.414 . S
C4552 C4553 1.374 1_556 S
C4553 H4533 0.950 . S
C4553 C4549 1.385 . S
C4553 C4552 1.374 1_554 S
C4554 C4551 1.499 . S
C4554 C4555 1.373 . S
C4554 C4556 1.389 . S
C4555 H4534 0.950 . S
C4555 C4554 1.373 . S
C4555 C4571 1.377 . S
C4556 C4554 1.389 . S
C4556 C4557 1.524 . S
C4556 C4570 1.377 . S
C4557 C4556 1.524 . S
C4557 C4558 1.397 . S
C4557 C4562 1.363 . S
C4558 H4535 0.950 . S
C4558 C4557 1.397 . S
C4558 C4559 1.334 . S
C4559 H4536 0.950 1_556 S
C4559 C4558 1.334 . S
C4559 C4560 1.287 . S
C4560 C4559 1.287 . S
C4560 C4561 1.524 . S
C4560 H4579 0.913 . S
C4561 H4537 0.950 . S
C4561 C4560 1.524 . S
C4561 C4562 1.415 . S
C4562 H4538 0.950 . S
C4562 C4557 1.363 . S
C4562 C4561 1.415 . S
C4563 H4539 0.951 . S
C4563 C4564 1.366 . S
C4563 C4565 1.388 . S
C4564 C4563 1.366 . S
C4564 C4568 1.385 . S
C4565 H4540 0.951 . S
C4565 C4563 1.388 . S
C4565 C4566 1.366 . S
C4566 C4565 1.366 . S
C4566 C4567 1.414 . S
C4566 C4569 1.499 . S
C4567 H4541 0.950 . S
C4567 C4566 1.414 . S
C4567 C4568 1.374 . S
C4568 H4542 0.950 . S
C4568 C4564 1.385 . S
C4568 C4567 1.374 . S
C4569 C4566 1.499 . S
C4569 C4570 1.373 . S
C4569 C4571 1.389 . S
C4570 H4543 0.950 . S
C4570 C4556 1.377 . S
C4570 C4569 1.373 . S
C4571 C4555 1.377 . S
C4571 C4569 1.389 . S
C4571 C4572 1.524 . S
C4572 C4571 1.524 . S
C4572 C4573 1.397 . S
C4572 C4577 1.363 . S
C4573 H4544 0.950 . S
C4573 C4572 1.397 . S
C4573 C4574 1.334 . S
C4574 H4545 0.950 . S
C4574 C4573 1.334 . S
C4574 C4575 1.287 . S
C4575 C4574 1.287 . S
C4575 C4576 1.524 . S
C4575 H4578 0.999 . S
C4576 H4546 0.950 . S
C4576 C4575 1.524 . S
C4576 C4577 1.415 . S
C4577 H4547 0.950 . S
C4577 C4572 1.363 . S
C4577 C4576 1.415 . S
H4578 C4575 0.999 . S
H4579 C4560 0.913 . S
H4580 C4598 0.951 . S
H4581 C4600 0.951 . S
H4582 C4602 0.950 . S
H4583 C4603 0.950 . S
H4584 C4605 0.950 . S
H4585 C4608 0.950 . S
H4586 C4609 0.950 . S
H4587 C4611 0.950 . S
H4588 C4612 0.950 . S
H4589 C4613 0.951 . S
H4590 C4615 0.951 . S
H4591 C4617 0.950 . S
H4592 C4618 0.950 . S
H4593 C4620 0.950 . S
H4594 C4623 0.950 . S
H4595 C4624 0.950 . S
H4596 C4626 0.950 . S
H4597 C4627 0.950 . S
C4598 H4580 0.951 . S
C4598 C4599 1.366 . S
C4598 C4600 1.388 . S
C4599 C4598 1.366 . S
C4599 C4603 1.385 . S
C4600 H4581 0.951 . S
C4600 C4598 1.388 . S
C4600 C4601 1.366 . S
C4601 C4600 1.366 . S
C4601 C4602 1.414 . S
C4601 C4604 1.499 . S
C4602 H4582 0.950 . S
C4602 C4601 1.414 . S
C4602 C4603 1.374 . S
C4603 H4583 0.950 . S
C4603 C4599 1.385 . S
C4603 C4602 1.374 . S
C4604 C4601 1.499 . S
C4604 C4605 1.373 . S
C4604 C4606 1.389 . S
C4605 H4584 0.950 . S
C4605 C4604 1.373 . S
C4605 C4621 1.377 . S
C4606 C4604 1.389 . S
C4606 C4607 1.524 . S
C4606 C4620 1.377 . S
C4607 C4606 1.524 . S
C4607 C4608 1.397 . S
C4607 C4612 1.363 . S
C4608 H4585 0.950 . S
C4608 C4607 1.397 . S
C4608 C4609 1.334 . S
C4609 H4586 0.950 . S
C4609 C4608 1.334 . S
C4609 C4610 1.287 . S
C4610 C4609 1.287 . S
C4610 C4611 1.524 . S
C4610 H4629 0.913 . S
C4611 H4587 0.950 . S
C4611 C4610 1.524 . S
C4611 C4612 1.415 . S
C4612 H4588 0.950 . S
C4612 C4607 1.363 . S
C4612 C4611 1.415 . S
C4613 H4589 0.951 . S
C4613 C4614 1.366 . S
C4613 C4615 1.388 . S
C4614 C4613 1.366 . S
C4614 C4618 1.385 . S
C4615 H4590 0.951 . S
C4615 C4613 1.388 . S
C4615 C4616 1.366 . S
C4616 C4615 1.366 . S
C4616 C4617 1.414 . S
C4616 C4619 1.499 . S
C4617 H4591 0.950 . S
C4617 C4616 1.414 . S
C4617 C4618 1.374 . S
C4618 H4592 0.950 . S
C4618 C4614 1.385 . S
C4618 C4617 1.374 . S
C4619 C4616 1.499 . S
C4619 C4620 1.373 . S
C4619 C4621 1.389 . S
C4620 H4593 0.950 . S
C4620 C4606 1.377 . S
C4620 C4619 1.373 . S
C4621 C4605 1.377 . S
C4621 C4619 1.389 . S
C4621 C4622 1.524 . S
C4622 C4621 1.524 . S
C4622 C4623 1.397 . S
C4622 C4627 1.363 . S
C4623 H4594 0.950 . S
C4623 C4622 1.397 . S
C4623 C4624 1.334 . S
C4624 H4595 0.950 . S
C4624 C4623 1.334 . S
C4624 C4625 1.287 . S
C4625 C4624 1.287 . S
C4625 C4626 1.524 . S
C4625 H4628 0.999 . S
C4626 H4596 0.950 . S
C4626 C4625 1.524 . S
C4626 C4627 1.415 . S
C4627 H4597 0.950 . S
C4627 C4622 1.363 . S
C4627 C4626 1.415 . S
H4628 C4625 0.999 . S
H4629 C4610 0.913 . S
H4630 C4648 0.951 . S
H4631 C4650 0.951 . S
H4632 C4652 0.950 . S
H4633 C4653 0.950 . S
H4634 C4655 0.950 . S
H4635 C4658 0.950 . S
H4636 C4659 0.950 . S
H4637 C4661 0.950 . S
H4638 C4662 0.950 . S
H4639 C4663 0.951 . S
H4640 C4665 0.951 . S
H4641 C4667 0.950 . S
H4642 C4668 0.950 . S
H4643 C4670 0.950 . S
H4644 C4673 0.950 . S
H4645 C4674 0.950 . S
H4646 C4676 0.950 . S
H4647 C4677 0.950 . S
C4648 H4630 0.951 . S
C4648 C4649 1.366 . S
C4648 C4650 1.388 . S
C4649 C4648 1.366 . S
C4649 C4653 1.385 . S
C4650 H4631 0.951 . S
C4650 C4648 1.388 . S
C4650 C4651 1.366 . S
C4651 C4650 1.366 . S
C4651 C4652 1.414 . S
C4651 C4654 1.499 . S
C4652 H4632 0.950 . S
C4652 C4651 1.414 . S
C4652 C4653 1.374 . S
C4653 H4633 0.950 . S
C4653 C4649 1.385 . S
C4653 C4652 1.374 . S
C4654 C4651 1.499 . S
C4654 C4655 1.373 . S
C4654 C4656 1.389 . S
C4655 H4634 0.950 . S
C4655 C4654 1.373 . S
C4655 C4671 1.377 . S
C4656 C4654 1.389 . S
C4656 C4657 1.524 . S
C4656 C4670 1.377 . S
C4657 C4656 1.524 . S
C4657 C4658 1.397 . S
C4657 C4662 1.363 . S
C4658 H4635 0.950 . S
C4658 C4657 1.397 . S
C4658 C4659 1.334 . S
C4659 H4636 0.950 . S
C4659 C4658 1.334 . S
C4659 C4660 1.287 . S
C4660 C4659 1.287 . S
C4660 C4661 1.524 . S
C4660 H4679 0.913 . S
C4661 H4637 0.950 . S
C4661 C4660 1.524 . S
C4661 C4662 1.415 . S
C4662 H4638 0.950 . S
C4662 C4657 1.363 . S
C4662 C4661 1.415 . S
C4663 H4639 0.951 . S
C4663 C4664 1.366 . S
C4663 C4665 1.388 . S
C4664 C4663 1.366 . S
C4664 C4668 1.385 . S
C4665 H4640 0.951 . S
C4665 C4663 1.388 . S
C4665 C4666 1.366 . S
C4666 C4665 1.366 . S
C4666 C4667 1.414 . S
C4666 C4669 1.499 . S
C4667 H4641 0.950 . S
C4667 C4666 1.414 . S
C4667 C4668 1.374 . S
C4668 H4642 0.950 . S
C4668 C4664 1.385 . S
C4668 C4667 1.374 . S
C4669 C4666 1.499 . S
C4669 C4670 1.373 . S
C4669 C4671 1.389 . S
C4670 H4643 0.950 . S
C4670 C4656 1.377 . S
C4670 C4669 1.373 . S
C4671 C4655 1.377 . S
C4671 C4669 1.389 . S
C4671 C4672 1.524 . S
C4672 C4671 1.524 . S
C4672 C4673 1.397 . S
C4672 C4677 1.363 . S
C4673 H4644 0.950 . S
C4673 C4672 1.397 . S
C4673 C4674 1.334 . S
C4674 H4645 0.950 . S
C4674 C4673 1.334 . S
C4674 C4675 1.287 . S
C4675 C4674 1.287 . S
C4675 C4676 1.524 . S
C4675 H4678 0.999 . S
C4676 H4646 0.950 . S
C4676 C4675 1.524 . S
C4676 C4677 1.415 . S
C4677 H4647 0.950 . S
C4677 C4672 1.363 . S
C4677 C4676 1.415 . S
H4678 C4675 0.999 . S
H4679 C4660 0.913 . S
H4680 C4698 0.951 . S
H4681 C4700 0.951 . S
H4682 C4702 0.950 . S
H4683 C4703 0.950 . S
H4684 C4705 0.950 . S
H4685 C4708 0.950 . S
H4686 C4709 0.950 . S
H4687 C4711 0.950 . S
H4688 C4712 0.950 . S
H4689 C4713 0.951 . S
H4690 C4715 0.951 . S
H4691 C4717 0.950 . S
H4692 C4718 0.950 . S
H4693 C4720 0.950 . S
H4694 C4723 0.950 . S
H4695 C4724 0.950 . S
H4696 C4726 0.950 . S
H4697 C4727 0.950 . S
C4698 H4680 0.951 . S
C4698 C4699 1.366 . S
C4698 C4700 1.388 . S
C4699 C4698 1.366 . S
C4699 C4703 1.385 . S
C4700 H4681 0.951 . S
C4700 C4698 1.388 . S
C4700 C4701 1.366 . S
C4701 C4700 1.366 . S
C4701 C4702 1.414 . S
C4701 C4704 1.499 . S
C4702 H4682 0.950 . S
C4702 C4701 1.414 . S
C4702 C4703 1.374 . S
C4703 H4683 0.950 . S
C4703 C4699 1.385 . S
C4703 C4702 1.374 . S
C4704 C4701 1.499 . S
C4704 C4705 1.373 . S
C4704 C4706 1.389 . S
C4705 H4684 0.950 . S
C4705 C4704 1.373 . S
C4705 C4721 1.377 . S
C4706 C4704 1.389 . S
C4706 C4707 1.524 . S
C4706 C4720 1.377 . S
C4707 C4706 1.524 . S
C4707 C4708 1.397 . S
C4707 C4712 1.363 . S
C4708 H4685 0.950 . S
C4708 C4707 1.397 . S
C4708 C4709 1.334 . S
C4709 H4686 0.950 . S
C4709 C4708 1.334 . S
C4709 C4710 1.287 . S
C4710 C4709 1.287 . S
C4710 C4711 1.524 . S
C4710 H4729 0.913 . S
C4711 H4687 0.950 . S
C4711 C4710 1.524 . S
C4711 C4712 1.415 . S
C4712 H4688 0.950 . S
C4712 C4707 1.363 . S
C4712 C4711 1.415 . S
C4713 H4689 0.951 . S
C4713 C4714 1.366 . S
C4713 C4715 1.388 . S
C4714 C4713 1.366 . S
C4714 C4718 1.385 . S
C4715 H4690 0.951 . S
C4715 C4713 1.388 . S
C4715 C4716 1.366 . S
C4716 C4715 1.366 . S
C4716 C4717 1.414 . S
C4716 C4719 1.499 . S
C4717 H4691 0.950 . S
C4717 C4716 1.414 . S
C4717 C4718 1.374 . S
C4718 H4692 0.950 . S
C4718 C4714 1.385 . S
C4718 C4717 1.374 . S
C4719 C4716 1.499 . S
C4719 C4720 1.373 . S
C4719 C4721 1.389 . S
C4720 H4693 0.950 . S
C4720 C4706 1.377 . S
C4720 C4719 1.373 . S
C4721 C4705 1.377 . S
C4721 C4719 1.389 . S
C4721 C4722 1.524 . S
C4722 C4721 1.524 . S
C4722 C4723 1.397 . S
C4722 C4727 1.363 . S
C4723 H4694 0.950 . S
C4723 C4722 1.397 . S
C4723 C4724 1.334 . S
C4724 H4695 0.950 . S
C4724 C4723 1.334 . S
C4724 C4725 1.287 . S
C4725 C4724 1.287 . S
C4725 C4726 1.524 . S
C4725 H4728 0.999 . S
C4726 H4696 0.950 . S
C4726 C4725 1.524 . S
C4726 C4727 1.415 . S
C4727 H4697 0.950 . S
C4727 C4722 1.363 . S
C4727 C4726 1.415 . S
H4728 C4725 0.999 . S
H4729 C4710 0.913 . S
H4730 C4748 0.951 . S
H4731 C4750 0.951 . S
H4732 C4752 0.950 . S
H4733 C4753 0.950 . S
H4734 C4755 0.950 . S
H4735 C4758 0.950 . S
H4736 C4759 0.950 . S
H4737 C4761 0.950 . S
H4738 C4762 0.950 . S
H4739 C4763 0.951 . S
H4740 C4765 0.951 . S
H4741 C4767 0.950 . S
H4742 C4768 0.950 . S
H4743 C4770 0.950 . S
H4744 C4773 0.950 . S
H4745 C4774 0.950 . S
H4746 C4776 0.950 . S
H4747 C4777 0.950 . S
C4748 H4730 0.951 . S
C4748 C4749 1.366 . S
C4748 C4750 1.388 . S
C4749 C4748 1.366 . S
C4749 C4753 1.385 . S
C4750 H4731 0.951 . S
C4750 C4748 1.388 . S
C4750 C4751 1.366 . S
C4751 C4750 1.366 . S
C4751 C4752 1.414 . S
C4751 C4754 1.499 . S
C4752 H4732 0.950 . S
C4752 C4751 1.414 . S
C4752 C4753 1.374 . S
C4753 H4733 0.950 . S
C4753 C4749 1.385 . S
C4753 C4752 1.374 . S
C4754 C4751 1.499 . S
C4754 C4755 1.373 . S
C4754 C4756 1.389 . S
C4755 H4734 0.950 . S
C4755 C4754 1.373 . S
C4755 C4771 1.377 . S
C4756 C4754 1.389 . S
C4756 C4757 1.524 . S
C4756 C4770 1.377 . S
C4757 C4756 1.524 . S
C4757 C4758 1.397 . S
C4757 C4762 1.363 . S
C4758 H4735 0.950 . S
C4758 C4757 1.397 . S
C4758 C4759 1.334 . S
C4759 H4736 0.950 . S
C4759 C4758 1.334 . S
C4759 C4760 1.287 . S
C4760 C4759 1.287 . S
C4760 C4761 1.524 . S
C4760 H4779 0.913 . S
C4761 H4737 0.950 . S
C4761 C4760 1.524 . S
C4761 C4762 1.415 . S
C4762 H4738 0.950 . S
C4762 C4757 1.363 . S
C4762 C4761 1.415 . S
C4763 H4739 0.951 . S
C4763 C4764 1.366 . S
C4763 C4765 1.388 . S
C4764 C4763 1.366 . S
C4764 C4768 1.385 . S
C4765 H4740 0.951 . S
C4765 C4763 1.388 . S
C4765 C4766 1.366 . S
C4766 C4765 1.366 . S
C4766 C4767 1.414 . S
C4766 C4769 1.499 . S
C4767 H4741 0.950 . S
C4767 C4766 1.414 . S
C4767 C4768 1.374 . S
C4768 H4742 0.950 . S
C4768 C4764 1.385 . S
C4768 C4767 1.374 . S
C4769 C4766 1.499 . S
C4769 C4770 1.373 . S
C4769 C4771 1.389 . S
C4770 H4743 0.950 . S
C4770 C4756 1.377 . S
C4770 C4769 1.373 . S
C4771 C4755 1.377 . S
C4771 C4769 1.389 . S
C4771 C4772 1.524 . S
C4772 C4771 1.524 . S
C4772 C4773 1.397 . S
C4772 C4777 1.363 . S
C4773 H4744 0.950 . S
C4773 C4772 1.397 . S
C4773 C4774 1.334 . S
C4774 H4745 0.950 . S
C4774 C4773 1.334 . S
C4774 C4775 1.287 . S
C4775 C4774 1.287 . S
C4775 C4776 1.524 . S
C4775 H4778 0.999 . S
C4776 H4746 0.950 . S
C4776 C4775 1.524 . S
C4776 C4777 1.415 . S
C4777 H4747 0.950 . S
C4777 C4772 1.363 . S
C4777 C4776 1.415 . S
H4778 C4775 0.999 . S
H4779 C4760 0.913 . S
H4780 C4798 0.951 . S
H4781 C4800 0.951 . S
H4782 C4802 0.950 . S
H4783 C4803 0.950 . S
H4784 C4805 0.950 . S
H4785 C4808 0.950 . S
H4786 C4809 0.950 . S
H4787 C4811 0.950 . S
H4788 C4812 0.950 . S
H4789 C4813 0.951 . S
H4790 C4815 0.951 . S
H4791 C4817 0.950 . S
H4792 C4818 0.950 . S
H4793 C4820 0.950 . S
H4794 C4823 0.950 . S
H4795 C4824 0.950 . S
H4796 C4826 0.950 . S
H4797 C4827 0.950 . S
C4798 H4780 0.951 . S
C4798 C4799 1.366 . S
C4798 C4800 1.388 . S
C4799 C4798 1.366 . S
C4799 C4803 1.385 . S
C4800 H4781 0.951 . S
C4800 C4798 1.388 . S
C4800 C4801 1.366 . S
C4801 C4800 1.366 . S
C4801 C4802 1.414 . S
C4801 C4804 1.499 . S
C4802 H4782 0.950 . S
C4802 C4801 1.414 . S
C4802 C4803 1.374 . S
C4803 H4783 0.950 . S
C4803 C4799 1.385 . S
C4803 C4802 1.374 . S
C4804 C4801 1.499 . S
C4804 C4805 1.373 . S
C4804 C4806 1.389 . S
C4805 H4784 0.950 . S
C4805 C4804 1.373 . S
C4805 C4821 1.377 . S
C4806 C4804 1.389 . S
C4806 C4807 1.524 . S
C4806 C4820 1.377 . S
C4807 C4806 1.524 . S
C4807 C4808 1.397 . S
C4807 C4812 1.363 . S
C4808 H4785 0.950 . S
C4808 C4807 1.397 . S
C4808 C4809 1.334 . S
C4809 H4786 0.950 . S
C4809 C4808 1.334 . S
C4809 C4810 1.287 . S
C4810 C4809 1.287 . S
C4810 C4811 1.524 . S
C4810 H4829 0.913 . S
C4811 H4787 0.950 . S
C4811 C4810 1.524 . S
C4811 C4812 1.415 . S
C4812 H4788 0.950 . S
C4812 C4807 1.363 . S
C4812 C4811 1.415 . S
C4813 H4789 0.951 . S
C4813 C4814 1.366 . S
C4813 C4815 1.388 . S
C4814 C4813 1.366 . S
C4814 C4818 1.385 . S
C4815 H4790 0.951 . S
C4815 C4813 1.388 . S
C4815 C4816 1.366 . S
C4816 C4815 1.366 . S
C4816 C4817 1.414 . S
C4816 C4819 1.499 . S
C4817 H4791 0.950 . S
C4817 C4816 1.414 . S
C4817 C4818 1.374 . S
C4818 H4792 0.950 . S
C4818 C4814 1.385 . S
C4818 C4817 1.374 . S
C4819 C4816 1.499 . S
C4819 C4820 1.373 . S
C4819 C4821 1.389 . S
C4820 H4793 0.950 . S
C4820 C4806 1.377 . S
C4820 C4819 1.373 . S
C4821 C4805 1.377 . S
C4821 C4819 1.389 . S
C4821 C4822 1.524 . S
C4822 C4821 1.524 . S
C4822 C4823 1.397 . S
C4822 C4827 1.363 . S
C4823 H4794 0.950 . S
C4823 C4822 1.397 . S
C4823 C4824 1.334 . S
C4824 H4795 0.950 . S
C4824 C4823 1.334 . S
C4824 C4825 1.287 . S
C4825 C4824 1.287 . S
C4825 C4826 1.524 . S
C4825 H4828 0.999 . S
C4826 H4796 0.950 . S
C4826 C4825 1.524 . S
C4826 C4827 1.415 . S
C4827 H4797 0.950 . S
C4827 C4822 1.363 . S
C4827 C4826 1.415 . S
H4828 C4825 0.999 . S
H4829 C4810 0.913 . S
H4830 C4848 0.951 . S
H4831 C4850 0.951 . S
H4832 C4852 0.950 . S
H4833 C4853 0.950 . S
H4834 C4855 0.950 . S
H4835 C4858 0.950 . S
H4836 C4859 0.950 . S
H4837 C4861 0.950 . S
H4838 C4862 0.950 . S
H4839 C4863 0.951 . S
H4840 C4865 0.951 . S
H4841 C4867 0.950 . S
H4842 C4868 0.950 . S
H4843 C4870 0.950 . S
H4844 C4873 0.950 . S
H4845 C4874 0.950 . S
H4846 C4876 0.950 . S
H4847 C4877 0.950 . S
C4848 H4830 0.951 . S
C4848 C4849 1.366 . S
C4848 C4850 1.388 . S
C4849 C4848 1.366 . S
C4849 C4853 1.385 . S
C4850 H4831 0.951 . S
C4850 C4848 1.388 . S
C4850 C4851 1.366 . S
C4851 C4850 1.366 . S
C4851 C4852 1.414 . S
C4851 C4854 1.499 . S
C4852 H4832 0.950 . S
C4852 C4851 1.414 . S
C4852 C4853 1.374 . S
C4853 H4833 0.950 . S
C4853 C4849 1.385 . S
C4853 C4852 1.374 . S
C4854 C4851 1.499 . S
C4854 C4855 1.373 . S
C4854 C4856 1.389 . S
C4855 H4834 0.950 . S
C4855 C4854 1.373 . S
C4855 C4871 1.377 . S
C4856 C4854 1.389 . S
C4856 C4857 1.524 . S
C4856 C4870 1.377 . S
C4857 C4856 1.524 . S
C4857 C4858 1.397 . S
C4857 C4862 1.363 . S
C4858 H4835 0.950 . S
C4858 C4857 1.397 . S
C4858 C4859 1.334 . S
C4859 H4836 0.950 . S
C4859 C4858 1.334 . S
C4859 C4860 1.287 . S
C4860 C4859 1.287 . S
C4860 C4861 1.524 . S
C4860 H4879 0.913 . S
C4861 H4837 0.950 . S
C4861 C4860 1.524 . S
C4861 C4862 1.415 . S
C4862 H4838 0.950 . S
C4862 C4857 1.363 . S
C4862 C4861 1.415 . S
C4863 H4839 0.951 . S
C4863 C4864 1.366 . S
C4863 C4865 1.388 . S
C4864 C4863 1.366 . S
C4864 C4868 1.385 . S
C4865 H4840 0.951 . S
C4865 C4863 1.388 . S
C4865 C4866 1.366 . S
C4866 C4865 1.366 . S
C4866 C4867 1.414 . S
C4866 C4869 1.499 . S
C4867 H4841 0.950 . S
C4867 C4866 1.414 . S
C4867 C4868 1.374 . S
C4868 H4842 0.950 . S
C4868 C4864 1.385 . S
C4868 C4867 1.374 . S
C4869 C4866 1.499 . S
C4869 C4870 1.373 . S
C4869 C4871 1.389 . S
C4870 H4843 0.950 . S
C4870 C4856 1.377 . S
C4870 C4869 1.373 . S
C4871 C4855 1.377 . S
C4871 C4869 1.389 . S
C4871 C4872 1.524 . S
C4872 C4871 1.524 . S
C4872 C4873 1.397 . S
C4872 C4877 1.363 . S
C4873 H4844 0.950 . S
C4873 C4872 1.397 . S
C4873 C4874 1.334 . S
C4874 H4845 0.950 . S
C4874 C4873 1.334 . S
C4874 C4875 1.287 . S
C4875 C4874 1.287 . S
C4875 C4876 1.524 . S
C4875 H4878 0.999 . S
C4876 H4846 0.950 . S
C4876 C4875 1.524 . S
C4876 C4877 1.415 . S
C4877 H4847 0.950 . S
C4877 C4872 1.363 . S
C4877 C4876 1.415 . S
H4878 C4875 0.999 . S
H4879 C4860 0.913 . S
H4880 C4898 0.951 . S
H4881 C4900 0.951 . S
H4882 C4902 0.950 . S
H4883 C4903 0.950 . S
H4884 C4905 0.950 . S
H4885 C4908 0.950 . S
H4886 C4909 0.950 . S
H4887 C4911 0.950 . S
H4888 C4912 0.950 . S
H4889 C4913 0.951 . S
H4890 C4915 0.951 . S
H4891 C4917 0.950 . S
H4892 C4918 0.950 . S
H4893 C4920 0.950 . S
H4894 C4923 0.950 . S
H4895 C4924 0.950 . S
H4896 C4926 0.950 . S
H4897 C4927 0.950 . S
C4898 H4880 0.951 . S
C4898 C4899 1.366 . S
C4898 C4900 1.388 . S
C4899 C4898 1.366 . S
C4899 C4903 1.385 . S
C4900 H4881 0.951 . S
C4900 C4898 1.388 . S
C4900 C4901 1.366 . S
C4901 C4900 1.366 . S
C4901 C4902 1.414 . S
C4901 C4904 1.499 . S
C4902 H4882 0.950 . S
C4902 C4901 1.414 . S
C4902 C4903 1.374 . S
C4903 H4883 0.950 . S
C4903 C4899 1.385 . S
C4903 C4902 1.374 . S
C4904 C4901 1.499 . S
C4904 C4905 1.373 . S
C4904 C4906 1.389 . S
C4905 H4884 0.950 . S
C4905 C4904 1.373 . S
C4905 C4921 1.377 . S
C4906 C4904 1.389 . S
C4906 C4907 1.524 . S
C4906 C4920 1.377 . S
C4907 C4906 1.524 . S
C4907 C4908 1.397 . S
C4907 C4912 1.363 . S
C4908 H4885 0.950 . S
C4908 C4907 1.397 . S
C4908 C4909 1.334 . S
C4909 H4886 0.950 . S
C4909 C4908 1.334 . S
C4909 C4910 1.287 . S
C4910 C4909 1.287 . S
C4910 C4911 1.524 . S
C4910 H4929 0.913 . S
C4911 H4887 0.950 . S
C4911 C4910 1.524 . S
C4911 C4912 1.415 . S
C4912 H4888 0.950 . S
C4912 C4907 1.363 . S
C4912 C4911 1.415 . S
C4913 H4889 0.951 . S
C4913 C4914 1.366 . S
C4913 C4915 1.388 . S
C4914 C4913 1.366 . S
C4914 C4918 1.385 . S
C4915 H4890 0.951 . S
C4915 C4913 1.388 . S
C4915 C4916 1.366 . S
C4916 C4915 1.366 . S
C4916 C4917 1.414 . S
C4916 C4919 1.499 . S
C4917 H4891 0.950 . S
C4917 C4916 1.414 . S
C4917 C4918 1.374 . S
C4918 H4892 0.950 . S
C4918 C4914 1.385 . S
C4918 C4917 1.374 . S
C4919 C4916 1.499 . S
C4919 C4920 1.373 . S
C4919 C4921 1.389 . S
C4920 H4893 0.950 . S
C4920 C4906 1.377 . S
C4920 C4919 1.373 . S
C4921 C4905 1.377 . S
C4921 C4919 1.389 . S
C4921 C4922 1.524 . S
C4922 C4921 1.524 . S
C4922 C4923 1.397 . S
C4922 C4927 1.363 . S
C4923 H4894 0.950 . S
C4923 C4922 1.397 . S
C4923 C4924 1.334 . S
C4924 H4895 0.950 . S
C4924 C4923 1.334 . S
C4924 C4925 1.287 . S
C4925 C4924 1.287 . S
C4925 C4926 1.524 . S
C4925 H4928 0.999 . S
C4926 H4896 0.950 . S
C4926 C4925 1.524 . S
C4926 C4927 1.415 . S
C4927 H4897 0.950 . S
C4927 C4922 1.363 . S
C4927 C4926 1.415 . S
H4928 C4925 0.999 . S
H4929 C4910 0.913 . S
H4930 C4948 0.951 . S
H4931 C4950 0.951 . S
H4932 C4952 0.950 . S
H4933 C4953 0.950 . S
H4934 C4955 0.950 . S
H4935 C4958 0.950 . S
H4936 C4959 0.950 . S
H4937 C4961 0.950 . S
H4938 C4962 0.950 . S
H4939 C4963 0.951 . S
H4940 C4965 0.951 . S
H4941 C4967 0.950 . S
H4942 C4968 0.950 . S
H4943 C4970 0.950 . S
H4944 C4973 0.950 . S
H4945 C4974 0.950 . S
H4946 C4976 0.950 . S
H4947 C4977 0.950 . S
C4948 H4930 0.951 . S
C4948 C4949 1.366 . S
C4948 C4950 1.388 . S
C4949 C4948 1.366 . S
C4949 C4953 1.385 . S
C4950 H4931 0.951 . S
C4950 C4948 1.388 . S
C4950 C4951 1.366 . S
C4951 C4950 1.366 . S
C4951 C4952 1.414 . S
C4951 C4954 1.499 . S
C4952 H4932 0.950 . S
C4952 C4951 1.414 . S
C4952 C4953 1.374 . S
C4953 H4933 0.950 . S
C4953 C4949 1.385 . S
C4953 C4952 1.374 . S
C4954 C4951 1.499 . S
C4954 C4955 1.373 . S
C4954 C4956 1.389 . S
C4955 H4934 0.950 . S
C4955 C4954 1.373 . S
C4955 C4971 1.377 . S
C4956 C4954 1.389 . S
C4956 C4957 1.524 . S
C4956 C4970 1.377 . S
C4957 C4956 1.524 . S
C4957 C4958 1.397 . S
C4957 C4962 1.363 . S
C4958 H4935 0.950 . S
C4958 C4957 1.397 . S
C4958 C4959 1.334 . S
C4959 H4936 0.950 . S
C4959 C4958 1.334 . S
C4959 C4960 1.287 . S
C4960 C4959 1.287 . S
C4960 C4961 1.524 . S
C4960 H4979 0.913 . S
C4961 H4937 0.950 . S
C4961 C4960 1.524 . S
C4961 C4962 1.415 . S
C4962 H4938 0.950 . S
C4962 C4957 1.363 . S
C4962 C4961 1.415 . S
C4963 H4939 0.951 . S
C4963 C4964 1.366 . S
C4963 C4965 1.388 . S
C4964 C4963 1.366 . S
C4964 C4968 1.385 . S
C4965 H4940 0.951 . S
C4965 C4963 1.388 . S
C4965 C4966 1.366 . S
C4966 C4965 1.366 . S
C4966 C4967 1.414 . S
C4966 C4969 1.499 . S
C4967 H4941 0.950 . S
C4967 C4966 1.414 . S
C4967 C4968 1.374 . S
C4968 H4942 0.950 . S
C4968 C4964 1.385 . S
C4968 C4967 1.374 . S
C4969 C4966 1.499 . S
C4969 C4970 1.373 . S
C4969 C4971 1.389 . S
C4970 H4943 0.950 . S
C4970 C4956 1.377 . S
C4970 C4969 1.373 . S
C4971 C4955 1.377 . S
C4971 C4969 1.389 . S
C4971 C4972 1.524 . S
C4972 C4971 1.524 . S
C4972 C4973 1.397 . S
C4972 C4977 1.363 . S
C4973 H4944 0.950 . S
C4973 C4972 1.397 . S
C4973 C4974 1.334 . S
C4974 H4945 0.950 . S
C4974 C4973 1.334 . S
C4974 C4975 1.287 . S
C4975 C4974 1.287 . S
C4975 C4976 1.524 . S
C4975 H4978 0.999 . S
C4976 H4946 0.950 . S
C4976 C4975 1.524 . S
C4976 C4977 1.415 . S
C4977 H4947 0.950 . S
C4977 C4972 1.363 . S
C4977 C4976 1.415 . S
H4978 C4975 0.999 . S
H4979 C4960 0.913 . S
H4980 C4998 0.951 . S
H4981 C5000 0.951 . S
H4982 C5002 0.950 . S
H4983 C5003 0.950 . S
H4984 C5005 0.950 . S
H4985 C5008 0.950 . S
H4986 C5009 0.950 . S
H4987 C5011 0.950 . S
H4988 C5012 0.950 . S
H4989 C5013 0.951 . S
H4990 C5015 0.951 . S
H4991 C5017 0.950 . S
H4992 C5018 0.950 . S
H4993 C5020 0.950 . S
H4994 C5023 0.950 . S
H4995 C5024 0.950 . S
H4996 C5026 0.950 . S
H4997 C5027 0.950 . S
C4998 H4980 0.951 . S
C4998 C4999 1.366 . S
C4998 C5000 1.388 . S
C4999 C4998 1.366 . S
C4999 C5003 1.385 . S
C5000 H4981 0.951 . S
C5000 C4998 1.388 . S
C5000 C5001 1.366 . S
C5001 C5000 1.366 . S
C5001 C5002 1.414 . S
C5001 C5004 1.499 . S
C5002 H4982 0.950 . S
C5002 C5001 1.414 . S
C5002 C5003 1.374 . S
C5003 H4983 0.950 . S
C5003 C4999 1.385 . S
C5003 C5002 1.374 . S
C5004 C5001 1.499 . S
C5004 C5005 1.373 . S
C5004 C5006 1.389 . S
C5005 H4984 0.950 . S
C5005 C5004 1.373 . S
C5005 C5021 1.377 . S
C5006 C5004 1.389 . S
C5006 C5007 1.524 . S
C5006 C5020 1.377 . S
C5007 C5006 1.524 . S
C5007 C5008 1.397 . S
C5007 C5012 1.363 . S
C5008 H4985 0.950 . S
C5008 C5007 1.397 . S
C5008 C5009 1.334 . S
C5009 H4986 0.950 . S
C5009 C5008 1.334 . S
C5009 C5010 1.287 . S
C5010 C5009 1.287 . S
C5010 C5011 1.524 . S
C5010 H5029 0.913 . S
C5011 H4987 0.950 . S
C5011 C5010 1.524 . S
C5011 C5012 1.415 . S
C5012 H4988 0.950 . S
C5012 C5007 1.363 . S
C5012 C5011 1.415 . S
C5013 H4989 0.951 . S
C5013 C5014 1.366 . S
C5013 C5015 1.388 . S
C5014 C5013 1.366 . S
C5014 C5018 1.385 . S
C5015 H4990 0.951 . S
C5015 C5013 1.388 . S
C5015 C5016 1.366 . S
C5016 C5015 1.366 . S
C5016 C5017 1.414 . S
C5016 C5019 1.499 . S
C5017 H4991 0.950 . S
C5017 C5016 1.414 . S
C5017 C5018 1.374 . S
C5018 H4992 0.950 . S
C5018 C5014 1.385 . S
C5018 C5017 1.374 . S
C5019 C5016 1.499 . S
C5019 C5020 1.373 . S
C5019 C5021 1.389 . S
C5020 H4993 0.950 . S
C5020 C5006 1.377 . S
C5020 C5019 1.373 . S
C5021 C5005 1.377 . S
C5021 C5019 1.389 . S
C5021 C5022 1.524 . S
C5022 C5021 1.524 . S
C5022 C5023 1.397 . S
C5022 C5027 1.363 . S
C5023 H4994 0.950 . S
C5023 C5022 1.397 . S
C5023 C5024 1.334 . S
C5024 H4995 0.950 . S
C5024 C5023 1.334 . S
C5024 C5025 1.287 . S
C5025 C5024 1.287 . S
C5025 C5026 1.524 . S
C5025 H5028 0.999 . S
C5026 H4996 0.950 . S
C5026 C5025 1.524 . S
C5026 C5027 1.415 . S
C5027 H4997 0.950 . S
C5027 C5022 1.363 . S
C5027 C5026 1.415 . S
H5028 C5025 0.999 . S
H5029 C5010 0.913 . S
H5030 C5048 0.951 . S
H5031 C5050 0.951 . S
H5032 C5052 0.950 1_556 S
H5033 C5053 0.952 . S
H5034 C5055 0.950 . S
H5035 C5058 0.950 . S
H5036 C5059 0.950 . S
H5037 C5061 0.950 . S
H5038 C5062 0.950 . S
H5039 C5063 0.951 . S
H5040 C5065 0.951 . S
H5041 C5067 0.950 . S
H5042 C5068 0.950 . S
H5043 C5070 0.934 1_546 S
H5044 C5073 0.950 . S
H5045 C5074 0.950 . S
H5046 C5076 0.950 . S
H5047 C5077 0.950 . S
C5048 H5030 0.951 . S
C5048 C5049 1.366 . S
C5048 C5050 1.388 . S
C5049 C5048 1.366 . S
C5049 C5053 1.382 1_554 S
C5050 H5031 0.951 . S
C5050 C5048 1.388 . S
C5050 C5051 1.366 . S
C5051 C5050 1.366 . S
C5051 C5052 1.414 . S
C5051 C5054 1.499 . S
C5052 H5032 0.950 1_554 S
C5052 C5051 1.414 . S
C5052 C5053 1.375 1_554 S
C5053 H5033 0.952 . S
C5053 C5049 1.382 1_556 S
C5053 C5052 1.375 1_556 S
C5054 C5051 1.499 . S
C5054 C5055 1.373 . S
C5054 C5056 1.375 1_554 S
C5055 H5034 0.950 . S
C5055 C5054 1.373 . S
C5055 C5071 1.377 . S
C5056 C5054 1.375 1_556 S
C5056 C5057 1.542 . S
C5056 C5070 1.377 1_556 S
C5057 C5056 1.542 . S
C5057 C5058 1.397 . S
C5057 C5062 1.363 1_565 S
C5058 H5035 0.950 . S
C5058 C5057 1.397 . S
C5058 C5059 1.334 . S
C5059 H5036 0.950 . S
C5059 C5058 1.334 . S
C5059 C5060 1.316 . S
C5060 C5059 1.316 . S
C5060 C5061 1.508 1_565 S
C5060 H5079 0.899 1_565 S
C5061 H5037 0.950 . S
C5061 C5060 1.508 1_545 S
C5061 C5062 1.415 . S
C5062 H5038 0.950 . S
C5062 C5057 1.363 1_545 S
C5062 C5061 1.415 . S
C5063 H5039 0.951 . S
C5063 C5064 1.366 1_565 S
C5063 C5065 1.388 . S
C5064 C5063 1.366 1_545 S
C5064 C5068 1.385 . S
C5065 H5040 0.951 . S
C5065 C5063 1.388 . S
C5065 C5066 1.366 . S
C5066 C5065 1.366 . S
C5066 C5067 1.414 1_565 S
C5066 C5069 1.499 . S
C5067 H5041 0.950 . S
C5067 C5066 1.414 1_545 S
C5067 C5068 1.374 . S
C5068 H5042 0.950 . S
C5068 C5064 1.385 . S
C5068 C5067 1.374 . S
C5069 C5066 1.499 . S
C5069 C5070 1.373 . S
C5069 C5071 1.389 . S
C5070 H5043 0.934 1_564 S
C5070 C5056 1.377 1_554 S
C5070 C5069 1.373 . S
C5071 C5055 1.377 . S
C5071 C5069 1.389 . S
C5071 C5072 1.524 . S
C5072 C5071 1.524 . S
C5072 C5073 1.397 . S
C5072 C5077 1.363 . S
C5073 H5044 0.950 . S
C5073 C5072 1.397 . S
C5073 C5074 1.334 . S
C5074 H5045 0.950 . S
C5074 C5073 1.334 . S
C5074 C5075 1.287 . S
C5075 C5074 1.287 . S
C5075 C5076 1.524 . S
C5075 H5078 0.999 . S
C5076 H5046 0.950 . S
C5076 C5075 1.524 . S
C5076 C5077 1.415 . S
C5077 H5047 0.950 . S
C5077 C5072 1.363 . S
C5077 C5076 1.415 . S
H5078 C5075 0.999 . S
H5079 C5060 0.899 1_545 S
H5080 C5098 0.951 . S
H5081 C5100 0.951 . S
H5082 C5102 0.950 . S
H5083 C5103 0.950 . S
H5084 C5105 0.950 . S
H5085 C5108 0.950 . S
H5086 C5109 0.950 . S
H5087 C5111 0.950 . S
H5088 C5112 0.950 . S
H5089 C5113 0.951 . S
H5090 C5115 0.951 . S
H5091 C5117 0.950 . S
H5092 C5118 0.950 . S
H5093 C5120 0.950 . S
H5094 C5123 0.950 . S
H5095 C5124 0.950 . S
H5096 C5126 0.950 . S
H5097 C5127 0.950 . S
C5098 H5080 0.951 . S
C5098 C5099 1.366 . S
C5098 C5100 1.388 . S
C5099 C5098 1.366 . S
C5099 C5103 1.385 . S
C5100 H5081 0.951 . S
C5100 C5098 1.388 . S
C5100 C5101 1.366 . S
C5101 C5100 1.366 . S
C5101 C5102 1.414 . S
C5101 C5104 1.499 . S
C5102 H5082 0.950 . S
C5102 C5101 1.414 . S
C5102 C5103 1.374 . S
C5103 H5083 0.950 . S
C5103 C5099 1.385 . S
C5103 C5102 1.374 . S
C5104 C5101 1.499 . S
C5104 C5105 1.373 . S
C5104 C5106 1.389 . S
C5105 H5084 0.950 . S
C5105 C5104 1.373 . S
C5105 C5121 1.377 . S
C5106 C5104 1.389 . S
C5106 C5107 1.524 . S
C5106 C5120 1.377 . S
C5107 C5106 1.524 . S
C5107 C5108 1.397 . S
C5107 C5112 1.363 . S
C5108 H5085 0.950 . S
C5108 C5107 1.397 . S
C5108 C5109 1.334 . S
C5109 H5086 0.950 . S
C5109 C5108 1.334 . S
C5109 C5110 1.287 . S
C5110 C5109 1.287 . S
C5110 C5111 1.524 . S
C5110 H5129 0.913 . S
C5111 H5087 0.950 . S
C5111 C5110 1.524 . S
C5111 C5112 1.415 . S
C5112 H5088 0.950 . S
C5112 C5107 1.363 . S
C5112 C5111 1.415 . S
C5113 H5089 0.951 . S
C5113 C5114 1.366 . S
C5113 C5115 1.388 . S
C5114 C5113 1.366 . S
C5114 C5118 1.385 . S
C5115 H5090 0.951 . S
C5115 C5113 1.388 . S
C5115 C5116 1.366 . S
C5116 C5115 1.366 . S
C5116 C5117 1.414 . S
C5116 C5119 1.499 . S
C5117 H5091 0.950 . S
C5117 C5116 1.414 . S
C5117 C5118 1.374 . S
C5118 H5092 0.950 . S
C5118 C5114 1.385 . S
C5118 C5117 1.374 . S
C5119 C5116 1.499 . S
C5119 C5120 1.373 . S
C5119 C5121 1.389 . S
C5120 H5093 0.950 . S
C5120 C5106 1.377 . S
C5120 C5119 1.373 . S
C5121 C5105 1.377 . S
C5121 C5119 1.389 . S
C5121 C5122 1.524 . S
C5122 C5121 1.524 . S
C5122 C5123 1.397 . S
C5122 C5127 1.363 . S
C5123 H5094 0.950 . S
C5123 C5122 1.397 . S
C5123 C5124 1.334 . S
C5124 H5095 0.950 . S
C5124 C5123 1.334 . S
C5124 C5125 1.287 . S
C5125 C5124 1.287 . S
C5125 C5126 1.524 . S
C5125 H5128 0.999 . S
C5126 H5096 0.950 . S
C5126 C5125 1.524 . S
C5126 C5127 1.415 . S
C5127 H5097 0.950 . S
C5127 C5122 1.363 . S
C5127 C5126 1.415 . S
H5128 C5125 0.999 . S
H5129 C5110 0.913 . S
H5130 C5148 0.951 1_556 S
H5131 C5150 0.951 1_556 S
H5132 C5152 0.950 . S
H5133 C5153 0.950 . S
H5134 C5155 0.950 . S
H5135 C5158 0.950 . S
H5136 C5159 0.950 . S
H5137 C5161 0.950 . S
H5138 C5162 0.950 . S
H5139 C5163 0.951 . S
H5140 C5165 0.951 . S
H5141 C5167 0.950 . S
H5142 C5168 0.950 . S
H5143 C5170 0.950 1_556 S
H5144 C5173 0.950 . S
H5145 C5174 0.950 . S
H5146 C5176 0.950 . S
H5147 C5177 0.950 . S
C5148 H5130 0.951 1_554 S
C5148 C5149 1.366 . S
C5148 C5150 1.388 . S
C5149 C5148 1.366 . S
C5149 C5153 1.385 . S
C5150 H5131 0.951 1_554 S
C5150 C5148 1.388 . S
C5150 C5151 1.366 . S
C5151 C5150 1.366 . S
C5151 C5152 1.414 . S
C5151 C5154 1.499 . S
C5152 H5132 0.950 . S
C5152 C5151 1.414 . S
C5152 C5153 1.374 . S
C5153 H5133 0.950 . S
C5153 C5149 1.385 . S
C5153 C5152 1.374 . S
C5154 C5151 1.499 . S
C5154 C5155 1.373 . S
C5154 C5156 1.389 . S
C5155 H5134 0.950 . S
C5155 C5154 1.373 . S
C5155 C5171 1.377 . S
C5156 C5154 1.389 . S
C5156 C5157 1.524 1_554 S
C5156 C5170 1.377 . S
C5157 C5156 1.524 1_556 S
C5157 C5158 1.397 . S
C5157 C5162 1.363 . S
C5158 H5135 0.950 . S
C5158 C5157 1.397 . S
C5158 C5159 1.334 . S
C5159 H5136 0.950 . S
C5159 C5158 1.334 . S
C5159 C5160 1.287 . S
C5160 C5159 1.287 . S
C5160 C5161 1.524 . S
C5160 H5179 0.913 . S
C5161 H5137 0.950 . S
C5161 C5160 1.524 . S
C5161 C5162 1.415 . S
C5162 H5138 0.950 . S
C5162 C5157 1.363 . S
C5162 C5161 1.415 . S
C5163 H5139 0.951 . S
C5163 C5164 1.366 . S
C5163 C5165 1.388 . S
C5164 C5163 1.366 . S
C5164 C5168 1.385 . S
C5165 H5140 0.951 . S
C5165 C5163 1.388 . S
C5165 C5166 1.366 . S
C5166 C5165 1.366 . S
C5166 C5167 1.414 . S
C5166 C5169 1.499 . S
C5167 H5141 0.950 . S
C5167 C5166 1.414 . S
C5167 C5168 1.374 . S
C5168 H5142 0.950 . S
C5168 C5164 1.385 . S
C5168 C5167 1.374 . S
C5169 C5166 1.499 . S
C5169 C5170 1.373 . S
C5169 C5171 1.389 . S
C5170 H5143 0.950 1_554 S
C5170 C5156 1.377 . S
C5170 C5169 1.373 . S
C5171 C5155 1.377 . S
C5171 C5169 1.389 . S
C5171 C5172 1.524 . S
C5172 C5171 1.524 . S
C5172 C5173 1.397 . S
C5172 C5177 1.363 . S
C5173 H5144 0.950 . S
C5173 C5172 1.397 . S
C5173 C5174 1.334 . S
C5174 H5145 0.950 . S
C5174 C5173 1.334 . S
C5174 C5175 1.287 . S
C5175 C5174 1.287 . S
C5175 C5176 1.524 . S
C5175 H5178 0.999 . S
C5176 H5146 0.950 . S
C5176 C5175 1.524 . S
C5176 C5177 1.415 . S
C5177 H5147 0.950 . S
C5177 C5172 1.363 . S
C5177 C5176 1.415 . S
H5178 C5175 0.999 . S
H5179 C5160 0.913 . S
H5180 C5198 0.951 . S
H5181 C5200 0.951 . S
H5182 C5202 0.950 . S
H5183 C5203 0.950 . S
H5184 C5205 0.950 . S
H5185 C5208 0.950 . S
H5186 C5209 0.950 . S
H5187 C5211 0.950 . S
H5188 C5212 0.950 . S
H5189 C5213 0.951 . S
H5190 C5215 0.951 . S
H5191 C5217 0.950 . S
H5192 C5218 0.950 . S
H5193 C5220 0.950 . S
H5194 C5223 0.950 . S
H5195 C5224 0.950 . S
H5196 C5226 0.950 . S
H5197 C5227 0.950 . S
C5198 H5180 0.951 . S
C5198 C5199 1.366 . S
C5198 C5200 1.388 . S
C5199 C5198 1.366 . S
C5199 C5203 1.385 . S
C5200 H5181 0.951 . S
C5200 C5198 1.388 . S
C5200 C5201 1.366 . S
C5201 C5200 1.366 . S
C5201 C5202 1.414 . S
C5201 C5204 1.499 . S
C5202 H5182 0.950 . S
C5202 C5201 1.414 . S
C5202 C5203 1.374 . S
C5203 H5183 0.950 . S
C5203 C5199 1.385 . S
C5203 C5202 1.374 . S
C5204 C5201 1.499 . S
C5204 C5205 1.373 . S
C5204 C5206 1.389 . S
C5205 H5184 0.950 . S
C5205 C5204 1.373 . S
C5205 C5221 1.377 . S
C5206 C5204 1.389 . S
C5206 C5207 1.524 . S
C5206 C5220 1.377 . S
C5207 C5206 1.524 . S
C5207 C5208 1.397 . S
C5207 C5212 1.363 . S
C5208 H5185 0.950 . S
C5208 C5207 1.397 . S
C5208 C5209 1.334 . S
C5209 H5186 0.950 . S
C5209 C5208 1.334 . S
C5209 C5210 1.287 . S
C5210 C5209 1.287 . S
C5210 C5211 1.524 . S
C5210 H5229 0.913 . S
C5211 H5187 0.950 . S
C5211 C5210 1.524 . S
C5211 C5212 1.415 . S
C5212 H5188 0.950 . S
C5212 C5207 1.363 . S
C5212 C5211 1.415 . S
C5213 H5189 0.951 . S
C5213 C5214 1.366 . S
C5213 C5215 1.388 . S
C5214 C5213 1.366 . S
C5214 C5218 1.385 . S
C5215 H5190 0.951 . S
C5215 C5213 1.388 . S
C5215 C5216 1.366 . S
C5216 C5215 1.366 . S
C5216 C5217 1.414 . S
C5216 C5219 1.499 . S
C5217 H5191 0.950 . S
C5217 C5216 1.414 . S
C5217 C5218 1.374 . S
C5218 H5192 0.950 . S
C5218 C5214 1.385 . S
C5218 C5217 1.374 . S
C5219 C5216 1.499 . S
C5219 C5220 1.373 . S
C5219 C5221 1.389 . S
C5220 H5193 0.950 . S
C5220 C5206 1.377 . S
C5220 C5219 1.373 . S
C5221 C5205 1.377 . S
C5221 C5219 1.389 . S
C5221 C5222 1.524 . S
C5222 C5221 1.524 . S
C5222 C5223 1.397 . S
C5222 C5227 1.363 . S
C5223 H5194 0.950 . S
C5223 C5222 1.397 . S
C5223 C5224 1.334 . S
C5224 H5195 0.950 . S
C5224 C5223 1.334 . S
C5224 C5225 1.287 . S
C5225 C5224 1.287 . S
C5225 C5226 1.524 . S
C5225 H5228 0.999 . S
C5226 H5196 0.950 . S
C5226 C5225 1.524 . S
C5226 C5227 1.415 . S
C5227 H5197 0.950 . S
C5227 C5222 1.363 . S
C5227 C5226 1.415 . S
H5228 C5225 0.999 . S
H5229 C5210 0.913 . S
H5230 C5248 0.951 . S
H5231 C5250 0.951 . S
H5232 C5252 0.950 . S
H5233 C5253 0.950 . S
H5234 C5255 0.950 . S
H5235 C5258 0.950 . S
H5236 C5259 0.950 . S
H5237 C5261 0.950 . S
H5238 C5262 0.950 . S
H5239 C5263 0.951 . S
H5240 C5265 0.951 . S
H5241 C5267 0.950 . S
H5242 C5268 0.950 . S
H5243 C5270 0.950 . S
H5244 C5273 0.950 . S
H5245 C5274 0.950 . S
H5246 C5276 0.950 . S
H5247 C5277 0.950 . S
C5248 H5230 0.951 . S
C5248 C5249 1.366 . S
C5248 C5250 1.388 . S
C5249 C5248 1.366 . S
C5249 C5253 1.385 . S
C5250 H5231 0.951 . S
C5250 C5248 1.388 . S
C5250 C5251 1.366 . S
C5251 C5250 1.366 . S
C5251 C5252 1.414 . S
C5251 C5254 1.499 . S
C5252 H5232 0.950 . S
C5252 C5251 1.414 . S
C5252 C5253 1.374 . S
C5253 H5233 0.950 . S
C5253 C5249 1.385 . S
C5253 C5252 1.374 . S
C5254 C5251 1.499 . S
C5254 C5255 1.373 . S
C5254 C5256 1.389 . S
C5255 H5234 0.950 . S
C5255 C5254 1.373 . S
C5255 C5271 1.377 . S
C5256 C5254 1.389 . S
C5256 C5257 1.524 . S
C5256 C5270 1.377 . S
C5257 C5256 1.524 . S
C5257 C5258 1.397 . S
C5257 C5262 1.363 . S
C5258 H5235 0.950 . S
C5258 C5257 1.397 . S
C5258 C5259 1.334 . S
C5259 H5236 0.950 . S
C5259 C5258 1.334 . S
C5259 C5260 1.287 . S
C5260 C5259 1.287 . S
C5260 C5261 1.524 . S
C5260 H5279 0.913 . S
C5261 H5237 0.950 . S
C5261 C5260 1.524 . S
C5261 C5262 1.415 . S
C5262 H5238 0.950 . S
C5262 C5257 1.363 . S
C5262 C5261 1.415 . S
C5263 H5239 0.951 . S
C5263 C5264 1.366 . S
C5263 C5265 1.388 . S
C5264 C5263 1.366 . S
C5264 C5268 1.385 . S
C5265 H5240 0.951 . S
C5265 C5263 1.388 . S
C5265 C5266 1.366 . S
C5266 C5265 1.366 . S
C5266 C5267 1.414 . S
C5266 C5269 1.499 . S
C5267 H5241 0.950 . S
C5267 C5266 1.414 . S
C5267 C5268 1.374 . S
C5268 H5242 0.950 . S
C5268 C5264 1.385 . S
C5268 C5267 1.374 . S
C5269 C5266 1.499 . S
C5269 C5270 1.373 . S
C5269 C5271 1.389 . S
C5270 H5243 0.950 . S
C5270 C5256 1.377 . S
C5270 C5269 1.373 . S
C5271 C5255 1.377 . S
C5271 C5269 1.389 . S
C5271 C5272 1.524 . S
C5272 C5271 1.524 . S
C5272 C5273 1.397 . S
C5272 C5277 1.363 . S
C5273 H5244 0.950 . S
C5273 C5272 1.397 . S
C5273 C5274 1.334 . S
C5274 H5245 0.950 . S
C5274 C5273 1.334 . S
C5274 C5275 1.287 . S
C5275 C5274 1.287 . S
C5275 C5276 1.524 . S
C5275 H5278 0.999 . S
C5276 H5246 0.950 . S
C5276 C5275 1.524 . S
C5276 C5277 1.415 . S
C5277 H5247 0.950 . S
C5277 C5272 1.363 . S
C5277 C5276 1.415 . S
H5278 C5275 0.999 . S
H5279 C5260 0.913 . S
H5280 C5298 0.951 . S
H5281 C5300 0.951 . S
H5282 C5302 0.950 . S
H5283 C5303 0.950 . S
H5284 C5305 0.950 . S
H5285 C5308 0.950 . S
H5286 C5309 0.950 . S
H5287 C5311 0.950 . S
H5288 C5312 0.950 . S
H5289 C5313 0.951 . S
H5290 C5315 0.951 . S
H5291 C5317 0.950 . S
H5292 C5318 0.950 . S
H5293 C5320 0.950 . S
H5294 C5323 0.950 . S
H5295 C5324 0.950 . S
H5296 C5326 0.950 . S
H5297 C5327 0.950 . S
C5298 H5280 0.951 . S
C5298 C5299 1.366 . S
C5298 C5300 1.388 . S
C5299 C5298 1.366 . S
C5299 C5303 1.385 . S
C5300 H5281 0.951 . S
C5300 C5298 1.388 . S
C5300 C5301 1.366 . S
C5301 C5300 1.366 . S
C5301 C5302 1.414 . S
C5301 C5304 1.499 . S
C5302 H5282 0.950 . S
C5302 C5301 1.414 . S
C5302 C5303 1.374 . S
C5303 H5283 0.950 . S
C5303 C5299 1.385 . S
C5303 C5302 1.374 . S
C5304 C5301 1.499 . S
C5304 C5305 1.373 . S
C5304 C5306 1.389 . S
C5305 H5284 0.950 . S
C5305 C5304 1.373 . S
C5305 C5321 1.377 . S
C5306 C5304 1.389 . S
C5306 C5307 1.524 . S
C5306 C5320 1.377 . S
C5307 C5306 1.524 . S
C5307 C5308 1.397 . S
C5307 C5312 1.363 . S
C5308 H5285 0.950 . S
C5308 C5307 1.397 . S
C5308 C5309 1.334 . S
C5309 H5286 0.950 . S
C5309 C5308 1.334 . S
C5309 C5310 1.287 . S
C5310 C5309 1.287 . S
C5310 C5311 1.524 . S
C5310 H5329 0.913 . S
C5311 H5287 0.950 . S
C5311 C5310 1.524 . S
C5311 C5312 1.415 . S
C5312 H5288 0.950 . S
C5312 C5307 1.363 . S
C5312 C5311 1.415 . S
C5313 H5289 0.951 . S
C5313 C5314 1.366 . S
C5313 C5315 1.388 . S
C5314 C5313 1.366 . S
C5314 C5318 1.385 . S
C5315 H5290 0.951 . S
C5315 C5313 1.388 . S
C5315 C5316 1.366 . S
C5316 C5315 1.366 . S
C5316 C5317 1.414 . S
C5316 C5319 1.499 . S
C5317 H5291 0.950 . S
C5317 C5316 1.414 . S
C5317 C5318 1.374 . S
C5318 H5292 0.950 . S
C5318 C5314 1.385 . S
C5318 C5317 1.374 . S
C5319 C5316 1.499 . S
C5319 C5320 1.373 . S
C5319 C5321 1.389 . S
C5320 H5293 0.950 . S
C5320 C5306 1.377 . S
C5320 C5319 1.373 . S
C5321 C5305 1.377 . S
C5321 C5319 1.389 . S
C5321 C5322 1.524 . S
C5322 C5321 1.524 . S
C5322 C5323 1.397 . S
C5322 C5327 1.363 . S
C5323 H5294 0.950 . S
C5323 C5322 1.397 . S
C5323 C5324 1.334 . S
C5324 H5295 0.950 . S
C5324 C5323 1.334 . S
C5324 C5325 1.287 . S
C5325 C5324 1.287 . S
C5325 C5326 1.524 . S
C5325 H5328 0.999 . S
C5326 H5296 0.950 . S
C5326 C5325 1.524 . S
C5326 C5327 1.415 . S
C5327 H5297 0.950 . S
C5327 C5322 1.363 . S
C5327 C5326 1.415 . S
H5328 C5325 0.999 . S
H5329 C5310 0.913 . S
H5330 C5348 0.951 . S
H5331 C5350 0.951 . S
H5332 C5352 0.950 . S
H5333 C5353 0.950 . S
H5334 C5355 0.950 . S
H5335 C5358 0.950 . S
H5336 C5359 0.950 . S
H5337 C5361 0.950 . S
H5338 C5362 0.950 . S
H5339 C5363 0.951 . S
H5340 C5365 0.951 . S
H5341 C5367 0.950 . S
H5342 C5368 0.950 . S
H5343 C5370 0.950 . S
H5344 C5373 0.950 . S
H5345 C5374 0.950 . S
H5346 C5376 0.950 . S
H5347 C5377 0.950 . S
C5348 H5330 0.951 . S
C5348 C5349 1.366 . S
C5348 C5350 1.388 . S
C5349 C5348 1.366 . S
C5349 C5353 1.385 . S
C5350 H5331 0.951 . S
C5350 C5348 1.388 . S
C5350 C5351 1.366 . S
C5351 C5350 1.366 . S
C5351 C5352 1.414 . S
C5351 C5354 1.499 . S
C5352 H5332 0.950 . S
C5352 C5351 1.414 . S
C5352 C5353 1.374 . S
C5353 H5333 0.950 . S
C5353 C5349 1.385 . S
C5353 C5352 1.374 . S
C5354 C5351 1.499 . S
C5354 C5355 1.373 . S
C5354 C5356 1.389 . S
C5355 H5334 0.950 . S
C5355 C5354 1.373 . S
C5355 C5371 1.377 . S
C5356 C5354 1.389 . S
C5356 C5357 1.524 . S
C5356 C5370 1.377 . S
C5357 C5356 1.524 . S
C5357 C5358 1.397 . S
C5357 C5362 1.363 . S
C5358 H5335 0.950 . S
C5358 C5357 1.397 . S
C5358 C5359 1.334 . S
C5359 H5336 0.950 . S
C5359 C5358 1.334 . S
C5359 C5360 1.287 . S
C5360 C5359 1.287 . S
C5360 C5361 1.524 . S
C5360 H5379 0.913 . S
C5361 H5337 0.950 . S
C5361 C5360 1.524 . S
C5361 C5362 1.415 . S
C5362 H5338 0.950 . S
C5362 C5357 1.363 . S
C5362 C5361 1.415 . S
C5363 H5339 0.951 . S
C5363 C5364 1.366 . S
C5363 C5365 1.388 . S
C5364 C5363 1.366 . S
C5364 C5368 1.385 . S
C5365 H5340 0.951 . S
C5365 C5363 1.388 . S
C5365 C5366 1.366 . S
C5366 C5365 1.366 . S
C5366 C5367 1.414 . S
C5366 C5369 1.499 . S
C5367 H5341 0.950 . S
C5367 C5366 1.414 . S
C5367 C5368 1.374 . S
C5368 H5342 0.950 . S
C5368 C5364 1.385 . S
C5368 C5367 1.374 . S
C5369 C5366 1.499 . S
C5369 C5370 1.373 . S
C5369 C5371 1.389 . S
C5370 H5343 0.950 . S
C5370 C5356 1.377 . S
C5370 C5369 1.373 . S
C5371 C5355 1.377 . S
C5371 C5369 1.389 . S
C5371 C5372 1.524 . S
C5372 C5371 1.524 . S
C5372 C5373 1.397 . S
C5372 C5377 1.363 . S
C5373 H5344 0.950 . S
C5373 C5372 1.397 . S
C5373 C5374 1.334 . S
C5374 H5345 0.950 . S
C5374 C5373 1.334 . S
C5374 C5375 1.287 . S
C5375 C5374 1.287 . S
C5375 C5376 1.524 . S
C5375 H5378 0.999 . S
C5376 H5346 0.950 . S
C5376 C5375 1.524 . S
C5376 C5377 1.415 . S
C5377 H5347 0.950 . S
C5377 C5372 1.363 . S
C5377 C5376 1.415 . S
H5378 C5375 0.999 . S
H5379 C5360 0.913 . S
H5380 C5398 0.951 . S
H5381 C5400 0.951 . S
H5382 C5402 0.950 . S
H5383 C5403 0.950 . S
H5384 C5405 0.950 . S
H5385 C5408 0.950 . S
H5386 C5409 0.950 . S
H5387 C5411 0.950 . S
H5388 C5412 0.950 . S
H5389 C5413 0.951 . S
H5390 C5415 0.951 . S
H5391 C5417 0.950 . S
H5392 C5418 0.950 . S
H5393 C5420 0.950 . S
H5394 C5423 0.951 1_455 S
H5395 C5424 0.950 . S
H5396 C5426 0.950 . S
H5397 C5427 0.950 . S
C5398 H5380 0.951 . S
C5398 C5399 1.366 . S
C5398 C5400 1.388 . S
C5399 C5398 1.366 . S
C5399 C5403 1.385 . S
C5400 H5381 0.951 . S
C5400 C5398 1.388 . S
C5400 C5401 1.366 . S
C5401 C5400 1.366 . S
C5401 C5402 1.414 . S
C5401 C5404 1.499 . S
C5402 H5382 0.950 . S
C5402 C5401 1.414 . S
C5402 C5403 1.374 . S
C5403 H5383 0.950 . S
C5403 C5399 1.385 . S
C5403 C5402 1.374 . S
C5404 C5401 1.499 . S
C5404 C5405 1.373 . S
C5404 C5406 1.389 . S
C5405 H5384 0.950 . S
C5405 C5404 1.373 . S
C5405 C5421 1.377 . S
C5406 C5404 1.389 . S
C5406 C5407 1.524 . S
C5406 C5420 1.377 . S
C5407 C5406 1.524 . S
C5407 C5408 1.397 . S
C5407 C5412 1.363 . S
C5408 H5385 0.950 . S
C5408 C5407 1.397 . S
C5408 C5409 1.334 . S
C5409 H5386 0.950 . S
C5409 C5408 1.334 . S
C5409 C5410 1.287 . S
C5410 C5409 1.287 . S
C5410 C5411 1.524 . S
C5410 H5429 0.913 . S
C5411 H5387 0.950 . S
C5411 C5410 1.524 . S
C5411 C5412 1.415 . S
C5412 H5388 0.950 . S
C5412 C5407 1.363 . S
C5412 C5411 1.415 . S
C5413 H5389 0.951 . S
C5413 C5414 1.366 . S
C5413 C5415 1.388 . S
C5414 C5413 1.366 . S
C5414 C5418 1.385 . S
C5415 H5390 0.951 . S
C5415 C5413 1.388 . S
C5415 C5416 1.366 . S
C5416 C5415 1.366 . S
C5416 C5417 1.414 . S
C5416 C5419 1.499 . S
C5417 H5391 0.950 . S
C5417 C5416 1.414 . S
C5417 C5418 1.374 . S
C5418 H5392 0.950 . S
C5418 C5414 1.385 . S
C5418 C5417 1.374 . S
C5419 C5416 1.499 . S
C5419 C5420 1.373 . S
C5419 C5421 1.389 . S
C5420 H5393 0.950 . S
C5420 C5406 1.377 . S
C5420 C5419 1.373 . S
C5421 C5405 1.377 . S
C5421 C5419 1.389 . S
C5421 C5422 1.510 1_455 S
C5422 C5421 1.510 1_655 S
C5422 C5423 1.402 . S
C5422 C5427 1.372 . S
C5423 H5394 0.951 1_655 S
C5423 C5422 1.402 . S
C5423 C5424 1.334 . S
C5424 H5395 0.950 . S
C5424 C5423 1.334 . S
C5424 C5425 1.287 . S
C5425 C5424 1.287 . S
C5425 C5426 1.524 . S
C5425 H5428 0.999 . S
C5426 H5396 0.950 . S
C5426 C5425 1.524 . S
C5426 C5427 1.415 . S
C5427 H5397 0.950 . S
C5427 C5422 1.372 . S
C5427 C5426 1.415 . S
H5428 C5425 0.999 . S
H5429 C5410 0.913 . S
H5430 C5448 0.951 . S
H5431 C5450 0.951 . S
H5432 C5452 0.950 . S
H5433 C5453 0.950 . S
H5434 C5455 0.950 . S
H5435 C5458 0.950 . S
H5436 C5459 0.950 . S
H5437 C5461 0.950 . S
H5438 C5462 0.950 . S
H5439 C5463 0.951 . S
H5440 C5465 0.951 . S
H5441 C5467 0.950 . S
H5442 C5468 0.950 . S
H5443 C5470 0.950 . S
H5444 C5473 0.950 . S
H5445 C5474 0.950 . S
H5446 C5476 0.950 . S
H5447 C5477 0.950 . S
C5448 H5430 0.951 . S
C5448 C5449 1.366 . S
C5448 C5450 1.388 . S
C5449 C5448 1.366 . S
C5449 C5453 1.385 . S
C5450 H5431 0.951 . S
C5450 C5448 1.388 . S
C5450 C5451 1.366 . S
C5451 C5450 1.366 . S
C5451 C5452 1.414 . S
C5451 C5454 1.499 . S
C5452 H5432 0.950 . S
C5452 C5451 1.414 . S
C5452 C5453 1.374 . S
C5453 H5433 0.950 . S
C5453 C5449 1.385 . S
C5453 C5452 1.374 . S
C5454 C5451 1.499 . S
C5454 C5455 1.373 . S
C5454 C5456 1.389 . S
C5455 H5434 0.950 . S
C5455 C5454 1.373 . S
C5455 C5471 1.377 . S
C5456 C5454 1.389 . S
C5456 C5457 1.524 . S
C5456 C5470 1.377 . S
C5457 C5456 1.524 . S
C5457 C5458 1.397 . S
C5457 C5462 1.363 . S
C5458 H5435 0.950 . S
C5458 C5457 1.397 . S
C5458 C5459 1.334 . S
C5459 H5436 0.950 . S
C5459 C5458 1.334 . S
C5459 C5460 1.287 . S
C5460 C5459 1.287 . S
C5460 C5461 1.524 . S
C5460 H5479 0.913 . S
C5461 H5437 0.950 . S
C5461 C5460 1.524 . S
C5461 C5462 1.415 . S
C5462 H5438 0.950 . S
C5462 C5457 1.363 . S
C5462 C5461 1.415 . S
C5463 H5439 0.951 . S
C5463 C5464 1.366 . S
C5463 C5465 1.388 . S
C5464 C5463 1.366 . S
C5464 C5468 1.385 . S
C5465 H5440 0.951 . S
C5465 C5463 1.388 . S
C5465 C5466 1.366 . S
C5466 C5465 1.366 . S
C5466 C5467 1.414 . S
C5466 C5469 1.499 . S
C5467 H5441 0.950 . S
C5467 C5466 1.414 . S
C5467 C5468 1.374 . S
C5468 H5442 0.950 . S
C5468 C5464 1.385 . S
C5468 C5467 1.374 . S
C5469 C5466 1.499 . S
C5469 C5470 1.373 . S
C5469 C5471 1.389 . S
C5470 H5443 0.950 . S
C5470 C5456 1.377 . S
C5470 C5469 1.373 . S
C5471 C5455 1.377 . S
C5471 C5469 1.389 . S
C5471 C5472 1.524 . S
C5472 C5471 1.524 . S
C5472 C5473 1.397 . S
C5472 C5477 1.363 . S
C5473 H5444 0.950 . S
C5473 C5472 1.397 . S
C5473 C5474 1.334 . S
C5474 H5445 0.950 . S
C5474 C5473 1.334 . S
C5474 C5475 1.287 . S
C5475 C5474 1.287 . S
C5475 C5476 1.524 . S
C5475 H5478 0.999 . S
C5476 H5446 0.950 . S
C5476 C5475 1.524 . S
C5476 C5477 1.415 . S
C5477 H5447 0.950 . S
C5477 C5472 1.363 . S
C5477 C5476 1.415 . S
H5478 C5475 0.999 . S
H5479 C5460 0.913 . S
H5480 C5498 0.951 . S
H5481 C5500 0.951 . S
H5482 C5502 0.950 . S
H5483 C5503 0.950 . S
H5484 C5505 0.950 . S
H5485 C5508 0.950 . S
H5486 C5509 0.950 . S
H5487 C5511 0.950 . S
H5488 C5512 0.950 . S
H5489 C5513 0.951 . S
H5490 C5515 0.951 . S
H5491 C5517 0.950 . S
H5492 C5518 0.950 . S
H5493 C5520 0.950 . S
H5494 C5523 0.950 . S
H5495 C5524 0.950 . S
H5496 C5526 0.950 1_554 S
H5497 C5527 0.950 . S
C5498 H5480 0.951 . S
C5498 C5499 1.366 . S
C5498 C5500 1.388 . S
C5499 C5498 1.366 . S
C5499 C5503 1.385 . S
C5500 H5481 0.951 . S
C5500 C5498 1.388 . S
C5500 C5501 1.366 . S
C5501 C5500 1.366 . S
C5501 C5502 1.414 . S
C5501 C5504 1.499 . S
C5502 H5482 0.950 . S
C5502 C5501 1.414 . S
C5502 C5503 1.374 . S
C5503 H5483 0.950 . S
C5503 C5499 1.385 . S
C5503 C5502 1.374 . S
C5504 C5501 1.499 . S
C5504 C5505 1.373 . S
C5504 C5506 1.389 . S
C5505 H5484 0.950 . S
C5505 C5504 1.373 . S
C5505 C5521 1.377 . S
C5506 C5504 1.389 . S
C5506 C5507 1.524 . S
C5506 C5520 1.377 . S
C5507 C5506 1.524 . S
C5507 C5508 1.397 . S
C5507 C5512 1.363 . S
C5508 H5485 0.950 . S
C5508 C5507 1.397 . S
C5508 C5509 1.334 . S
C5509 H5486 0.950 . S
C5509 C5508 1.334 . S
C5509 C5510 1.287 . S
C5510 C5509 1.287 . S
C5510 C5511 1.524 . S
C5510 H5529 0.913 . S
C5511 H5487 0.950 . S
C5511 C5510 1.524 . S
C5511 C5512 1.415 . S
C5512 H5488 0.950 . S
C5512 C5507 1.363 . S
C5512 C5511 1.415 . S
C5513 H5489 0.951 . S
C5513 C5514 1.366 . S
C5513 C5515 1.388 . S
C5514 C5513 1.366 . S
C5514 C5518 1.385 . S
C5515 H5490 0.951 . S
C5515 C5513 1.388 . S
C5515 C5516 1.366 . S
C5516 C5515 1.366 . S
C5516 C5517 1.414 . S
C5516 C5519 1.499 . S
C5517 H5491 0.950 . S
C5517 C5516 1.414 . S
C5517 C5518 1.374 . S
C5518 H5492 0.950 . S
C5518 C5514 1.385 . S
C5518 C5517 1.374 . S
C5519 C5516 1.499 . S
C5519 C5520 1.373 . S
C5519 C5521 1.389 . S
C5520 H5493 0.950 . S
C5520 C5506 1.377 . S
C5520 C5519 1.373 . S
C5521 C5505 1.377 . S
C5521 C5519 1.389 . S
C5521 C5522 1.524 . S
C5522 C5521 1.524 . S
C5522 C5523 1.397 . S
C5522 C5527 1.363 . S
C5523 H5494 0.950 . S
C5523 C5522 1.397 . S
C5523 C5524 1.334 . S
C5524 H5495 0.950 . S
C5524 C5523 1.334 . S
C5524 C5525 1.287 . S
C5525 C5524 1.287 . S
C5525 C5526 1.524 . S
C5525 H5528 0.999 1_556 S
C5526 H5496 0.950 1_556 S
C5526 C5525 1.524 . S
C5526 C5527 1.415 . S
C5527 H5497 0.950 . S
C5527 C5522 1.363 . S
C5527 C5526 1.415 . S
H5528 C5525 0.999 1_554 S
H5529 C5510 0.913 . S
H5530 C5548 0.951 . S
H5531 C5550 0.951 . S
H5532 C5552 0.950 . S
H5533 C5553 0.950 . S
H5534 C5555 0.950 . S
H5535 C5558 0.950 . S
H5536 C5559 0.950 . S
H5537 C5561 0.950 . S
H5538 C5562 0.950 . S
H5539 C5563 0.951 . S
H5540 C5565 0.951 . S
H5541 C5567 0.950 . S
H5542 C5568 0.950 . S
H5543 C5570 0.950 . S
H5544 C5573 0.950 . S
H5545 C5574 0.950 . S
H5546 C5576 0.950 . S
H5547 C5577 0.950 . S
C5548 H5530 0.951 . S
C5548 C5549 1.366 . S
C5548 C5550 1.388 . S
C5549 C5548 1.366 . S
C5549 C5553 1.385 . S
C5550 H5531 0.951 . S
C5550 C5548 1.388 . S
C5550 C5551 1.366 . S
C5551 C5550 1.366 . S
C5551 C5552 1.414 . S
C5551 C5554 1.499 . S
C5552 H5532 0.950 . S
C5552 C5551 1.414 . S
C5552 C5553 1.374 . S
C5553 H5533 0.950 . S
C5553 C5549 1.385 . S
C5553 C5552 1.374 . S
C5554 C5551 1.499 . S
C5554 C5555 1.373 . S
C5554 C5556 1.389 . S
C5555 H5534 0.950 . S
C5555 C5554 1.373 . S
C5555 C5571 1.377 . S
C5556 C5554 1.389 . S
C5556 C5557 1.524 . S
C5556 C5570 1.377 . S
C5557 C5556 1.524 . S
C5557 C5558 1.397 . S
C5557 C5562 1.363 . S
C5558 H5535 0.950 . S
C5558 C5557 1.397 . S
C5558 C5559 1.334 . S
C5559 H5536 0.950 . S
C5559 C5558 1.334 . S
C5559 C5560 1.287 . S
C5560 C5559 1.287 . S
C5560 C5561 1.524 . S
C5560 H5579 0.913 . S
C5561 H5537 0.950 . S
C5561 C5560 1.524 . S
C5561 C5562 1.415 . S
C5562 H5538 0.950 . S
C5562 C5557 1.363 . S
C5562 C5561 1.415 . S
C5563 H5539 0.951 . S
C5563 C5564 1.366 . S
C5563 C5565 1.388 . S
C5564 C5563 1.366 . S
C5564 C5568 1.385 . S
C5565 H5540 0.951 . S
C5565 C5563 1.388 . S
C5565 C5566 1.366 . S
C5566 C5565 1.366 . S
C5566 C5567 1.414 . S
C5566 C5569 1.499 . S
C5567 H5541 0.950 . S
C5567 C5566 1.414 . S
C5567 C5568 1.374 . S
C5568 H5542 0.950 . S
C5568 C5564 1.385 . S
C5568 C5567 1.374 . S
C5569 C5566 1.499 . S
C5569 C5570 1.373 . S
C5569 C5571 1.389 . S
C5570 H5543 0.950 . S
C5570 C5556 1.377 . S
C5570 C5569 1.373 . S
C5571 C5555 1.377 . S
C5571 C5569 1.389 . S
C5571 C5572 1.524 . S
C5572 C5571 1.524 . S
C5572 C5573 1.397 . S
C5572 C5577 1.363 . S
C5573 H5544 0.950 . S
C5573 C5572 1.397 . S
C5573 C5574 1.334 . S
C5574 H5545 0.950 . S
C5574 C5573 1.334 . S
C5574 C5575 1.287 . S
C5575 C5574 1.287 . S
C5575 C5576 1.524 . S
C5575 H5578 0.999 . S
C5576 H5546 0.950 . S
C5576 C5575 1.524 . S
C5576 C5577 1.415 . S
C5577 H5547 0.950 . S
C5577 C5572 1.363 . S
C5577 C5576 1.415 . S
H5578 C5575 0.999 . S
H5579 C5560 0.913 . S
H5580 C5598 0.951 . S
H5581 C5600 0.951 . S
H5582 C5602 0.950 . S
H5583 C5603 0.950 . S
H5584 C5605 0.950 . S
H5585 C5608 0.950 . S
H5586 C5609 0.950 . S
H5587 C5611 0.950 . S
H5588 C5612 0.950 . S
H5589 C5613 0.951 . S
H5590 C5615 0.951 . S
H5591 C5617 0.950 . S
H5592 C5618 0.950 . S
H5593 C5620 0.950 . S
H5594 C5623 0.950 . S
H5595 C5624 0.950 . S
H5596 C5626 0.950 . S
H5597 C5627 0.950 . S
C5598 H5580 0.951 . S
C5598 C5599 1.366 . S
C5598 C5600 1.388 . S
C5599 C5598 1.366 . S
C5599 C5603 1.385 . S
C5600 H5581 0.951 . S
C5600 C5598 1.388 . S
C5600 C5601 1.366 . S
C5601 C5600 1.366 . S
C5601 C5602 1.414 . S
C5601 C5604 1.499 . S
C5602 H5582 0.950 . S
C5602 C5601 1.414 . S
C5602 C5603 1.374 . S
C5603 H5583 0.950 . S
C5603 C5599 1.385 . S
C5603 C5602 1.374 . S
C5604 C5601 1.499 . S
C5604 C5605 1.373 . S
C5604 C5606 1.389 . S
C5605 H5584 0.950 . S
C5605 C5604 1.373 . S
C5605 C5621 1.377 . S
C5606 C5604 1.389 . S
C5606 C5607 1.524 . S
C5606 C5620 1.377 . S
C5607 C5606 1.524 . S
C5607 C5608 1.397 . S
C5607 C5612 1.363 1_455 S
C5608 H5585 0.950 . S
C5608 C5607 1.397 . S
C5608 C5609 1.334 . S
C5609 H5586 0.950 . S
C5609 C5608 1.334 . S
C5609 C5610 1.287 1_455 S
C5610 C5609 1.287 1_655 S
C5610 C5611 1.524 . S
C5610 H5629 0.913 . S
C5611 H5587 0.950 . S
C5611 C5610 1.524 . S
C5611 C5612 1.415 . S
C5612 H5588 0.950 . S
C5612 C5607 1.363 1_655 S
C5612 C5611 1.415 . S
C5613 H5589 0.951 . S
C5613 C5614 1.366 . S
C5613 C5615 1.388 . S
C5614 C5613 1.366 . S
C5614 C5618 1.385 . S
C5615 H5590 0.951 . S
C5615 C5613 1.388 . S
C5615 C5616 1.366 . S
C5616 C5615 1.366 . S
C5616 C5617 1.414 . S
C5616 C5619 1.499 . S
C5617 H5591 0.950 . S
C5617 C5616 1.414 . S
C5617 C5618 1.374 . S
C5618 H5592 0.950 . S
C5618 C5614 1.385 . S
C5618 C5617 1.374 . S
C5619 C5616 1.499 . S
C5619 C5620 1.373 . S
C5619 C5621 1.389 . S
C5620 H5593 0.950 . S
C5620 C5606 1.377 . S
C5620 C5619 1.373 . S
C5621 C5605 1.377 . S
C5621 C5619 1.389 . S
C5621 C5622 1.524 . S
C5622 C5621 1.524 . S
C5622 C5623 1.397 . S
C5622 C5627 1.363 . S
C5623 H5594 0.950 . S
C5623 C5622 1.397 . S
C5623 C5624 1.334 . S
C5624 H5595 0.950 . S
C5624 C5623 1.334 . S
C5624 C5625 1.287 . S
C5625 C5624 1.287 . S
C5625 C5626 1.524 . S
C5625 H5628 0.999 . S
C5626 H5596 0.950 . S
C5626 C5625 1.524 . S
C5626 C5627 1.415 . S
C5627 H5597 0.950 . S
C5627 C5622 1.363 . S
C5627 C5626 1.415 . S
H5628 C5625 0.999 . S
H5629 C5610 0.913 . S
H5630 C5648 0.951 . S
H5631 C5650 0.951 . S
H5632 C5652 0.950 . S
H5633 C5653 0.950 . S
H5634 C5655 0.950 . S
H5635 C5658 0.950 . S
H5636 C5659 0.950 . S
H5637 C5661 0.950 . S
H5638 C5662 0.950 . S
H5639 C5663 0.951 . S
H5640 C5665 0.951 . S
H5641 C5667 0.950 . S
H5642 C5668 0.950 . S
H5643 C5670 0.950 . S
H5644 C5673 0.950 . S
H5645 C5674 0.950 . S
H5646 C5676 0.950 . S
H5647 C5677 0.950 . S
C5648 H5630 0.951 . S
C5648 C5649 1.366 . S
C5648 C5650 1.388 . S
C5649 C5648 1.366 . S
C5649 C5653 1.385 . S
C5650 H5631 0.951 . S
C5650 C5648 1.388 . S
C5650 C5651 1.366 . S
C5651 C5650 1.366 . S
C5651 C5652 1.414 . S
C5651 C5654 1.499 . S
C5652 H5632 0.950 . S
C5652 C5651 1.414 . S
C5652 C5653 1.374 . S
C5653 H5633 0.950 . S
C5653 C5649 1.385 . S
C5653 C5652 1.374 . S
C5654 C5651 1.499 . S
C5654 C5655 1.373 . S
C5654 C5656 1.389 . S
C5655 H5634 0.950 . S
C5655 C5654 1.373 . S
C5655 C5671 1.377 . S
C5656 C5654 1.389 . S
C5656 C5657 1.524 . S
C5656 C5670 1.377 . S
C5657 C5656 1.524 . S
C5657 C5658 1.397 . S
C5657 C5662 1.363 . S
C5658 H5635 0.950 . S
C5658 C5657 1.397 . S
C5658 C5659 1.334 . S
C5659 H5636 0.950 . S
C5659 C5658 1.334 . S
C5659 C5660 1.287 . S
C5660 C5659 1.287 . S
C5660 C5661 1.524 . S
C5660 H5679 0.913 . S
C5661 H5637 0.950 . S
C5661 C5660 1.524 . S
C5661 C5662 1.415 . S
C5662 H5638 0.950 . S
C5662 C5657 1.363 . S
C5662 C5661 1.415 . S
C5663 H5639 0.951 . S
C5663 C5664 1.366 . S
C5663 C5665 1.388 . S
C5664 C5663 1.366 . S
C5664 C5668 1.385 . S
C5665 H5640 0.951 . S
C5665 C5663 1.388 . S
C5665 C5666 1.366 . S
C5666 C5665 1.366 . S
C5666 C5667 1.414 . S
C5666 C5669 1.499 . S
C5667 H5641 0.950 . S
C5667 C5666 1.414 . S
C5667 C5668 1.374 . S
C5668 H5642 0.950 . S
C5668 C5664 1.385 . S
C5668 C5667 1.374 . S
C5669 C5666 1.499 . S
C5669 C5670 1.373 . S
C5669 C5671 1.389 . S
C5670 H5643 0.950 . S
C5670 C5656 1.377 . S
C5670 C5669 1.373 . S
C5671 C5655 1.377 . S
C5671 C5669 1.389 . S
C5671 C5672 1.524 . S
C5672 C5671 1.524 . S
C5672 C5673 1.397 . S
C5672 C5677 1.363 . S
C5673 H5644 0.950 . S
C5673 C5672 1.397 . S
C5673 C5674 1.334 . S
C5674 H5645 0.950 . S
C5674 C5673 1.334 . S
C5674 C5675 1.287 . S
C5675 C5674 1.287 . S
C5675 C5676 1.524 . S
C5675 H5678 0.999 . S
C5676 H5646 0.950 . S
C5676 C5675 1.524 . S
C5676 C5677 1.415 . S
C5677 H5647 0.950 . S
C5677 C5672 1.363 . S
C5677 C5676 1.415 . S
H5678 C5675 0.999 . S
H5679 C5660 0.913 . S
H5680 C5698 0.951 . S
H5681 C5700 0.951 . S
H5682 C5702 0.950 . S
H5683 C5703 0.950 . S
H5684 C5705 0.950 . S
H5685 C5708 0.950 . S
H5686 C5709 0.950 . S
H5687 C5711 0.950 . S
H5688 C5712 0.950 . S
H5689 C5713 0.951 . S
H5690 C5715 0.951 . S
H5691 C5717 0.950 . S
H5692 C5718 0.950 . S
H5693 C5720 0.950 . S
H5694 C5723 0.950 . S
H5695 C5724 0.950 . S
H5696 C5726 0.950 . S
H5697 C5727 0.950 . S
C5698 H5680 0.951 . S
C5698 C5699 1.366 . S
C5698 C5700 1.388 . S
C5699 C5698 1.366 . S
C5699 C5703 1.385 . S
C5700 H5681 0.951 . S
C5700 C5698 1.388 . S
C5700 C5701 1.366 . S
C5701 C5700 1.366 . S
C5701 C5702 1.414 . S
C5701 C5704 1.499 . S
C5702 H5682 0.950 . S
C5702 C5701 1.414 . S
C5702 C5703 1.374 . S
C5703 H5683 0.950 . S
C5703 C5699 1.385 . S
C5703 C5702 1.374 . S
C5704 C5701 1.499 . S
C5704 C5705 1.373 . S
C5704 C5706 1.389 . S
C5705 H5684 0.950 . S
C5705 C5704 1.373 . S
C5705 C5721 1.377 . S
C5706 C5704 1.389 . S
C5706 C5707 1.524 . S
C5706 C5720 1.377 . S
C5707 C5706 1.524 . S
C5707 C5708 1.397 . S
C5707 C5712 1.363 . S
C5708 H5685 0.950 . S
C5708 C5707 1.397 . S
C5708 C5709 1.334 . S
C5709 H5686 0.950 . S
C5709 C5708 1.334 . S
C5709 C5710 1.287 . S
C5710 C5709 1.287 . S
C5710 C5711 1.524 . S
C5710 H5729 0.913 . S
C5711 H5687 0.950 . S
C5711 C5710 1.524 . S
C5711 C5712 1.415 . S
C5712 H5688 0.950 . S
C5712 C5707 1.363 . S
C5712 C5711 1.415 . S
C5713 H5689 0.951 . S
C5713 C5714 1.366 . S
C5713 C5715 1.388 . S
C5714 C5713 1.366 . S
C5714 C5718 1.385 . S
C5715 H5690 0.951 . S
C5715 C5713 1.388 . S
C5715 C5716 1.366 . S
C5716 C5715 1.366 . S
C5716 C5717 1.414 . S
C5716 C5719 1.499 . S
C5717 H5691 0.950 . S
C5717 C5716 1.414 . S
C5717 C5718 1.374 . S
C5718 H5692 0.950 . S
C5718 C5714 1.385 . S
C5718 C5717 1.374 . S
C5719 C5716 1.499 . S
C5719 C5720 1.373 . S
C5719 C5721 1.389 . S
C5720 H5693 0.950 . S
C5720 C5706 1.377 . S
C5720 C5719 1.373 . S
C5721 C5705 1.377 . S
C5721 C5719 1.389 . S
C5721 C5722 1.524 . S
C5722 C5721 1.524 . S
C5722 C5723 1.397 . S
C5722 C5727 1.363 . S
C5723 H5694 0.950 . S
C5723 C5722 1.397 . S
C5723 C5724 1.334 . S
C5724 H5695 0.950 . S
C5724 C5723 1.334 . S
C5724 C5725 1.287 . S
C5725 C5724 1.287 . S
C5725 C5726 1.524 . S
C5725 H5728 0.999 . S
C5726 H5696 0.950 . S
C5726 C5725 1.524 . S
C5726 C5727 1.415 . S
C5727 H5697 0.950 . S
C5727 C5722 1.363 . S
C5727 C5726 1.415 . S
H5728 C5725 0.999 . S
H5729 C5710 0.913 . S
H5730 C5748 0.951 . S
H5731 C5750 0.951 . S
H5732 C5752 0.950 . S
H5733 C5753 0.950 . S
H5734 C5755 0.950 . S
H5735 C5758 0.950 . S
H5736 C5759 0.950 . S
H5737 C5761 0.950 . S
H5738 C5762 0.950 . S
H5739 C5763 0.951 . S
H5740 C5765 0.951 . S
H5741 C5767 0.950 . S
H5742 C5768 0.950 . S
H5743 C5770 0.950 . S
H5744 C5773 0.950 . S
H5745 C5774 0.950 . S
H5746 C5776 0.950 . S
H5747 C5777 0.950 . S
C5748 H5730 0.951 . S
C5748 C5749 1.366 . S
C5748 C5750 1.388 . S
C5749 C5748 1.366 . S
C5749 C5753 1.385 . S
C5750 H5731 0.951 . S
C5750 C5748 1.388 . S
C5750 C5751 1.366 . S
C5751 C5750 1.366 . S
C5751 C5752 1.414 . S
C5751 C5754 1.499 . S
C5752 H5732 0.950 . S
C5752 C5751 1.414 . S
C5752 C5753 1.374 . S
C5753 H5733 0.950 . S
C5753 C5749 1.385 . S
C5753 C5752 1.374 . S
C5754 C5751 1.499 . S
C5754 C5755 1.373 . S
C5754 C5756 1.389 . S
C5755 H5734 0.950 . S
C5755 C5754 1.373 . S
C5755 C5771 1.377 . S
C5756 C5754 1.389 . S
C5756 C5757 1.524 . S
C5756 C5770 1.377 . S
C5757 C5756 1.524 . S
C5757 C5758 1.397 . S
C5757 C5762 1.363 . S
C5758 H5735 0.950 . S
C5758 C5757 1.397 . S
C5758 C5759 1.334 . S
C5759 H5736 0.950 . S
C5759 C5758 1.334 . S
C5759 C5760 1.287 . S
C5760 C5759 1.287 . S
C5760 C5761 1.524 . S
C5760 H5779 0.913 . S
C5761 H5737 0.950 . S
C5761 C5760 1.524 . S
C5761 C5762 1.415 . S
C5762 H5738 0.950 . S
C5762 C5757 1.363 . S
C5762 C5761 1.415 . S
C5763 H5739 0.951 . S
C5763 C5764 1.366 . S
C5763 C5765 1.388 . S
C5764 C5763 1.366 . S
C5764 C5768 1.385 . S
C5765 H5740 0.951 . S
C5765 C5763 1.388 . S
C5765 C5766 1.366 . S
C5766 C5765 1.366 . S
C5766 C5767 1.414 . S
C5766 C5769 1.499 . S
C5767 H5741 0.950 . S
C5767 C5766 1.414 . S
C5767 C5768 1.374 . S
C5768 H5742 0.950 . S
C5768 C5764 1.385 . S
C5768 C5767 1.374 . S
C5769 C5766 1.499 . S
C5769 C5770 1.373 . S
C5769 C5771 1.389 . S
C5770 H5743 0.950 . S
C5770 C5756 1.377 . S
C5770 C5769 1.373 . S
C5771 C5755 1.377 . S
C5771 C5769 1.389 . S
C5771 C5772 1.524 . S
C5772 C5771 1.524 . S
C5772 C5773 1.397 . S
C5772 C5777 1.363 . S
C5773 H5744 0.950 . S
C5773 C5772 1.397 . S
C5773 C5774 1.334 . S
C5774 H5745 0.950 . S
C5774 C5773 1.334 . S
C5774 C5775 1.287 . S
C5775 C5774 1.287 . S
C5775 C5776 1.524 . S
C5775 H5778 0.999 . S
C5776 H5746 0.950 . S
C5776 C5775 1.524 . S
C5776 C5777 1.415 . S
C5777 H5747 0.950 . S
C5777 C5772 1.363 . S
C5777 C5776 1.415 . S
H5778 C5775 0.999 . S
H5779 C5760 0.913 . S
H5780 C5798 0.951 . S
H5781 C5800 0.951 . S
H5782 C5802 0.950 . S
H5783 C5803 0.950 . S
H5784 C5805 0.950 . S
H5785 C5808 0.950 . S
H5786 C5809 0.950 . S
H5787 C5811 0.950 . S
H5788 C5812 0.950 . S
H5789 C5813 0.951 . S
H5790 C5815 0.951 . S
H5791 C5817 0.950 . S
H5792 C5818 0.950 . S
H5793 C5820 0.950 . S
H5794 C5823 0.950 . S
H5795 C5824 0.950 . S
H5796 C5826 0.950 . S
H5797 C5827 0.950 . S
C5798 H5780 0.951 . S
C5798 C5799 1.366 . S
C5798 C5800 1.388 . S
C5799 C5798 1.366 . S
C5799 C5803 1.385 . S
C5800 H5781 0.951 . S
C5800 C5798 1.388 . S
C5800 C5801 1.366 . S
C5801 C5800 1.366 . S
C5801 C5802 1.414 . S
C5801 C5804 1.499 . S
C5802 H5782 0.950 . S
C5802 C5801 1.414 . S
C5802 C5803 1.374 . S
C5803 H5783 0.950 . S
C5803 C5799 1.385 . S
C5803 C5802 1.374 . S
C5804 C5801 1.499 . S
C5804 C5805 1.373 . S
C5804 C5806 1.389 . S
C5805 H5784 0.950 . S
C5805 C5804 1.373 . S
C5805 C5821 1.377 . S
C5806 C5804 1.389 . S
C5806 C5807 1.524 . S
C5806 C5820 1.377 . S
C5807 C5806 1.524 . S
C5807 C5808 1.397 . S
C5807 C5812 1.363 . S
C5808 H5785 0.950 . S
C5808 C5807 1.397 . S
C5808 C5809 1.334 . S
C5809 H5786 0.950 . S
C5809 C5808 1.334 . S
C5809 C5810 1.287 . S
C5810 C5809 1.287 . S
C5810 C5811 1.524 . S
C5810 H5829 0.913 . S
C5811 H5787 0.950 . S
C5811 C5810 1.524 . S
C5811 C5812 1.415 . S
C5812 H5788 0.950 . S
C5812 C5807 1.363 . S
C5812 C5811 1.415 . S
C5813 H5789 0.951 . S
C5813 C5814 1.366 . S
C5813 C5815 1.388 . S
C5814 C5813 1.366 . S
C5814 C5818 1.385 1_655 S
C5815 H5790 0.951 . S
C5815 C5813 1.388 . S
C5815 C5816 1.366 . S
C5816 C5815 1.366 . S
C5816 C5817 1.414 . S
C5816 C5819 1.499 . S
C5817 H5791 0.950 . S
C5817 C5816 1.414 . S
C5817 C5818 1.374 1_655 S
C5818 H5792 0.950 . S
C5818 C5814 1.385 1_455 S
C5818 C5817 1.374 1_455 S
C5819 C5816 1.499 . S
C5819 C5820 1.373 . S
C5819 C5821 1.389 . S
C5820 H5793 0.950 . S
C5820 C5806 1.377 . S
C5820 C5819 1.373 . S
C5821 C5805 1.377 . S
C5821 C5819 1.389 . S
C5821 C5822 1.524 . S
C5822 C5821 1.524 . S
C5822 C5823 1.397 . S
C5822 C5827 1.363 . S
C5823 H5794 0.950 . S
C5823 C5822 1.397 . S
C5823 C5824 1.334 . S
C5824 H5795 0.950 . S
C5824 C5823 1.334 . S
C5824 C5825 1.287 . S
C5825 C5824 1.287 . S
C5825 C5826 1.524 . S
C5825 H5828 0.999 . S
C5826 H5796 0.950 . S
C5826 C5825 1.524 . S
C5826 C5827 1.415 . S
C5827 H5797 0.950 . S
C5827 C5822 1.363 . S
C5827 C5826 1.415 . S
H5828 C5825 0.999 . S
H5829 C5810 0.913 . S
H5830 C5848 0.951 . S
H5831 C5850 0.951 . S
H5832 C5852 0.950 . S
H5833 C5853 0.950 . S
H5834 C5855 0.950 . S
H5835 C5858 0.950 . S
H5836 C5859 0.950 . S
H5837 C5861 0.950 . S
H5838 C5862 0.950 . S
H5839 C5863 0.951 . S
H5840 C5865 0.951 . S
H5841 C5867 0.950 . S
H5842 C5868 0.950 . S
H5843 C5870 0.950 . S
H5844 C5873 0.950 . S
H5845 C5874 0.950 . S
H5846 C5876 0.950 . S
H5847 C5877 0.950 . S
C5848 H5830 0.951 . S
C5848 C5849 1.366 . S
C5848 C5850 1.388 . S
C5849 C5848 1.366 . S
C5849 C5853 1.385 . S
C5850 H5831 0.951 . S
C5850 C5848 1.388 . S
C5850 C5851 1.366 . S
C5851 C5850 1.366 . S
C5851 C5852 1.414 . S
C5851 C5854 1.499 . S
C5852 H5832 0.950 . S
C5852 C5851 1.414 . S
C5852 C5853 1.374 . S
C5853 H5833 0.950 . S
C5853 C5849 1.385 . S
C5853 C5852 1.374 . S
C5854 C5851 1.499 . S
C5854 C5855 1.373 . S
C5854 C5856 1.389 . S
C5855 H5834 0.950 . S
C5855 C5854 1.373 . S
C5855 C5871 1.377 . S
C5856 C5854 1.389 . S
C5856 C5857 1.524 . S
C5856 C5870 1.377 . S
C5857 C5856 1.524 . S
C5857 C5858 1.397 . S
C5857 C5862 1.363 . S
C5858 H5835 0.950 . S
C5858 C5857 1.397 . S
C5858 C5859 1.334 . S
C5859 H5836 0.950 . S
C5859 C5858 1.334 . S
C5859 C5860 1.287 . S
C5860 C5859 1.287 . S
C5860 C5861 1.524 . S
C5860 H5879 0.913 . S
C5861 H5837 0.950 . S
C5861 C5860 1.524 . S
C5861 C5862 1.415 . S
C5862 H5838 0.950 . S
C5862 C5857 1.363 . S
C5862 C5861 1.415 . S
C5863 H5839 0.951 . S
C5863 C5864 1.366 . S
C5863 C5865 1.388 . S
C5864 C5863 1.366 . S
C5864 C5868 1.385 . S
C5865 H5840 0.951 . S
C5865 C5863 1.388 . S
C5865 C5866 1.366 . S
C5866 C5865 1.366 . S
C5866 C5867 1.414 . S
C5866 C5869 1.499 . S
C5867 H5841 0.950 . S
C5867 C5866 1.414 . S
C5867 C5868 1.374 . S
C5868 H5842 0.950 . S
C5868 C5864 1.385 . S
C5868 C5867 1.374 . S
C5869 C5866 1.499 . S
C5869 C5870 1.373 . S
C5869 C5871 1.389 . S
C5870 H5843 0.950 . S
C5870 C5856 1.377 . S
C5870 C5869 1.373 . S
C5871 C5855 1.377 . S
C5871 C5869 1.389 . S
C5871 C5872 1.524 . S
C5872 C5871 1.524 . S
C5872 C5873 1.397 . S
C5872 C5877 1.363 . S
C5873 H5844 0.950 . S
C5873 C5872 1.397 . S
C5873 C5874 1.334 . S
C5874 H5845 0.950 . S
C5874 C5873 1.334 . S
C5874 C5875 1.287 . S
C5875 C5874 1.287 . S
C5875 C5876 1.524 . S
C5875 H5878 0.999 . S
C5876 H5846 0.950 . S
C5876 C5875 1.524 . S
C5876 C5877 1.415 . S
C5877 H5847 0.950 . S
C5877 C5872 1.363 . S
C5877 C5876 1.415 . S
H5878 C5875 0.999 . S
H5879 C5860 0.913 . S
H5880 C5898 0.951 . S
H5881 C5900 0.951 . S
H5882 C5902 0.950 . S
H5883 C5903 0.950 . S
H5884 C5905 0.950 . S
H5885 C5908 0.950 . S
H5886 C5909 0.950 . S
H5887 C5911 0.950 . S
H5888 C5912 0.950 . S
H5889 C5913 0.951 . S
H5890 C5915 0.951 . S
H5891 C5917 0.950 . S
H5892 C5918 0.950 . S
H5893 C5920 0.950 . S
H5894 C5923 0.950 . S
H5895 C5924 0.950 . S
H5896 C5926 0.950 . S
H5897 C5927 0.950 . S
C5898 H5880 0.951 . S
C5898 C5899 1.366 . S
C5898 C5900 1.388 . S
C5899 C5898 1.366 . S
C5899 C5903 1.385 . S
C5900 H5881 0.951 . S
C5900 C5898 1.388 . S
C5900 C5901 1.366 . S
C5901 C5900 1.366 . S
C5901 C5902 1.414 . S
C5901 C5904 1.499 . S
C5902 H5882 0.950 . S
C5902 C5901 1.414 . S
C5902 C5903 1.374 . S
C5903 H5883 0.950 . S
C5903 C5899 1.385 . S
C5903 C5902 1.374 . S
C5904 C5901 1.499 . S
C5904 C5905 1.373 . S
C5904 C5906 1.389 . S
C5905 H5884 0.950 . S
C5905 C5904 1.373 . S
C5905 C5921 1.377 . S
C5906 C5904 1.389 . S
C5906 C5907 1.524 . S
C5906 C5920 1.377 . S
C5907 C5906 1.524 . S
C5907 C5908 1.397 . S
C5907 C5912 1.363 . S
C5908 H5885 0.950 . S
C5908 C5907 1.397 . S
C5908 C5909 1.334 . S
C5909 H5886 0.950 . S
C5909 C5908 1.334 . S
C5909 C5910 1.287 . S
C5910 C5909 1.287 . S
C5910 C5911 1.524 . S
C5910 H5929 0.913 . S
C5911 H5887 0.950 . S
C5911 C5910 1.524 . S
C5911 C5912 1.415 . S
C5912 H5888 0.950 . S
C5912 C5907 1.363 . S
C5912 C5911 1.415 . S
C5913 H5889 0.951 . S
C5913 C5914 1.366 . S
C5913 C5915 1.388 . S
C5914 C5913 1.366 . S
C5914 C5918 1.385 . S
C5915 H5890 0.951 . S
C5915 C5913 1.388 . S
C5915 C5916 1.366 . S
C5916 C5915 1.366 . S
C5916 C5917 1.414 . S
C5916 C5919 1.499 . S
C5917 H5891 0.950 . S
C5917 C5916 1.414 . S
C5917 C5918 1.374 . S
C5918 H5892 0.950 . S
C5918 C5914 1.385 . S
C5918 C5917 1.374 . S
C5919 C5916 1.499 . S
C5919 C5920 1.373 . S
C5919 C5921 1.389 . S
C5920 H5893 0.950 . S
C5920 C5906 1.377 . S
C5920 C5919 1.373 . S
C5921 C5905 1.377 . S
C5921 C5919 1.389 . S
C5921 C5922 1.524 . S
C5922 C5921 1.524 . S
C5922 C5923 1.397 . S
C5922 C5927 1.363 . S
C5923 H5894 0.950 . S
C5923 C5922 1.397 . S
C5923 C5924 1.334 . S
C5924 H5895 0.950 . S
C5924 C5923 1.334 . S
C5924 C5925 1.287 . S
C5925 C5924 1.287 . S
C5925 C5926 1.524 . S
C5925 H5928 0.999 . S
C5926 H5896 0.950 . S
C5926 C5925 1.524 . S
C5926 C5927 1.415 . S
C5927 H5897 0.950 . S
C5927 C5922 1.363 . S
C5927 C5926 1.415 . S
H5928 C5925 0.999 . S
H5929 C5910 0.913 . S
H5930 C5948 0.951 . S
H5931 C5950 0.951 . S
H5932 C5952 0.950 . S
H5933 C5953 0.950 . S
H5934 C5955 0.950 . S
H5935 C5958 0.950 . S
H5936 C5959 0.950 . S
H5937 C5961 0.950 . S
H5938 C5962 0.950 . S
H5939 C5963 0.951 . S
H5940 C5965 0.951 . S
H5941 C5967 0.950 . S
H5942 C5968 0.950 . S
H5943 C5970 0.950 . S
H5944 C5973 0.950 . S
H5945 C5974 0.950 . S
H5946 C5976 0.950 . S
H5947 C5977 0.950 . S
C5948 H5930 0.951 . S
C5948 C5949 1.366 . S
C5948 C5950 1.388 . S
C5949 C5948 1.366 . S
C5949 C5953 1.385 . S
C5950 H5931 0.951 . S
C5950 C5948 1.388 . S
C5950 C5951 1.366 . S
C5951 C5950 1.366 . S
C5951 C5952 1.414 . S
C5951 C5954 1.499 . S
C5952 H5932 0.950 . S
C5952 C5951 1.414 . S
C5952 C5953 1.374 . S
C5953 H5933 0.950 . S
C5953 C5949 1.385 . S
C5953 C5952 1.374 . S
C5954 C5951 1.499 . S
C5954 C5955 1.373 . S
C5954 C5956 1.389 . S
C5955 H5934 0.950 . S
C5955 C5954 1.373 . S
C5955 C5971 1.377 . S
C5956 C5954 1.389 . S
C5956 C5957 1.524 . S
C5956 C5970 1.377 . S
C5957 C5956 1.524 . S
C5957 C5958 1.397 . S
C5957 C5962 1.363 . S
C5958 H5935 0.950 . S
C5958 C5957 1.397 . S
C5958 C5959 1.334 . S
C5959 H5936 0.950 . S
C5959 C5958 1.334 . S
C5959 C5960 1.287 . S
C5960 C5959 1.287 . S
C5960 C5961 1.524 . S
C5960 H5979 0.913 . S
C5961 H5937 0.950 . S
C5961 C5960 1.524 . S
C5961 C5962 1.415 . S
C5962 H5938 0.950 . S
C5962 C5957 1.363 . S
C5962 C5961 1.415 . S
C5963 H5939 0.951 . S
C5963 C5964 1.366 . S
C5963 C5965 1.388 . S
C5964 C5963 1.366 . S
C5964 C5968 1.385 . S
C5965 H5940 0.951 . S
C5965 C5963 1.388 . S
C5965 C5966 1.366 . S
C5966 C5965 1.366 . S
C5966 C5967 1.414 . S
C5966 C5969 1.499 . S
C5967 H5941 0.950 . S
C5967 C5966 1.414 . S
C5967 C5968 1.374 . S
C5968 H5942 0.950 . S
C5968 C5964 1.385 . S
C5968 C5967 1.374 . S
C5969 C5966 1.499 . S
C5969 C5970 1.373 . S
C5969 C5971 1.389 . S
C5970 H5943 0.950 . S
C5970 C5956 1.377 . S
C5970 C5969 1.373 . S
C5971 C5955 1.377 . S
C5971 C5969 1.389 . S
C5971 C5972 1.524 . S
C5972 C5971 1.524 . S
C5972 C5973 1.397 . S
C5972 C5977 1.363 . S
C5973 H5944 0.950 . S
C5973 C5972 1.397 . S
C5973 C5974 1.334 . S
C5974 H5945 0.950 . S
C5974 C5973 1.334 . S
C5974 C5975 1.287 . S
C5975 C5974 1.287 . S
C5975 C5976 1.524 . S
C5975 H5978 0.999 . S
C5976 H5946 0.950 . S
C5976 C5975 1.524 . S
C5976 C5977 1.415 . S
C5977 H5947 0.950 . S
C5977 C5972 1.363 . S
C5977 C5976 1.415 . S
H5978 C5975 0.999 . S
H5979 C5960 0.913 . S
H5980 C5998 0.951 . S
H5981 C6000 0.951 . S
H5982 C6002 0.950 . S
H5983 C6003 0.950 . S
H5984 C6005 0.950 . S
H5985 C6008 0.950 . S
H5986 C6009 0.950 . S
H5987 C6011 0.950 . S
H5988 C6012 0.950 . S
H5989 C6013 0.951 . S
H5990 C6015 0.951 . S
H5991 C6017 0.950 . S
H5992 C6018 0.950 . S
H5993 C6020 0.950 . S
H5994 C6023 0.950 . S
H5995 C6024 0.950 . S
H5996 C6026 0.950 . S
H5997 C6027 0.950 . S
C5998 H5980 0.951 . S
C5998 C5999 1.366 . S
C5998 C6000 1.388 . S
C5999 C5998 1.366 . S
C5999 C6003 1.385 . S
C6000 H5981 0.951 . S
C6000 C5998 1.388 . S
C6000 C6001 1.366 . S
C6001 C6000 1.366 . S
C6001 C6002 1.414 . S
C6001 C6004 1.499 . S
C6002 H5982 0.950 . S
C6002 C6001 1.414 . S
C6002 C6003 1.374 . S
C6003 H5983 0.950 . S
C6003 C5999 1.385 . S
C6003 C6002 1.374 . S
C6004 C6001 1.499 . S
C6004 C6005 1.373 . S
C6004 C6006 1.389 . S
C6005 H5984 0.950 . S
C6005 C6004 1.373 . S
C6005 C6021 1.377 . S
C6006 C6004 1.389 . S
C6006 C6007 1.524 . S
C6006 C6020 1.377 . S
C6007 C6006 1.524 . S
C6007 C6008 1.397 . S
C6007 C6012 1.363 . S
C6008 H5985 0.950 . S
C6008 C6007 1.397 . S
C6008 C6009 1.334 . S
C6009 H5986 0.950 . S
C6009 C6008 1.334 . S
C6009 C6010 1.287 . S
C6010 C6009 1.287 . S
C6010 C6011 1.524 . S
C6010 H6029 0.913 . S
C6011 H5987 0.950 . S
C6011 C6010 1.524 . S
C6011 C6012 1.415 . S
C6012 H5988 0.950 . S
C6012 C6007 1.363 . S
C6012 C6011 1.415 . S
C6013 H5989 0.951 . S
C6013 C6014 1.366 . S
C6013 C6015 1.388 . S
C6014 C6013 1.366 . S
C6014 C6018 1.385 . S
C6015 H5990 0.951 . S
C6015 C6013 1.388 . S
C6015 C6016 1.366 . S
C6016 C6015 1.366 . S
C6016 C6017 1.414 . S
C6016 C6019 1.499 . S
C6017 H5991 0.950 . S
C6017 C6016 1.414 . S
C6017 C6018 1.374 . S
C6018 H5992 0.950 . S
C6018 C6014 1.385 . S
C6018 C6017 1.374 . S
C6019 C6016 1.499 . S
C6019 C6020 1.373 . S
C6019 C6021 1.389 . S
C6020 H5993 0.950 . S
C6020 C6006 1.377 . S
C6020 C6019 1.373 . S
C6021 C6005 1.377 . S
C6021 C6019 1.389 . S
C6021 C6022 1.524 . S
C6022 C6021 1.524 . S
C6022 C6023 1.397 . S
C6022 C6027 1.363 . S
C6023 H5994 0.950 . S
C6023 C6022 1.397 . S
C6023 C6024 1.334 . S
C6024 H5995 0.950 . S
C6024 C6023 1.334 . S
C6024 C6025 1.287 . S
C6025 C6024 1.287 . S
C6025 C6026 1.524 . S
C6025 H6028 0.999 . S
C6026 H5996 0.950 . S
C6026 C6025 1.524 . S
C6026 C6027 1.415 . S
C6027 H5997 0.950 . S
C6027 C6022 1.363 . S
C6027 C6026 1.415 . S
H6028 C6025 0.999 . S
H6029 C6010 0.913 . S
H6030 C6048 0.951 . S
H6031 C6050 0.951 . S
H6032 C6052 0.950 . S
H6033 C6053 0.950 . S
H6034 C6055 0.950 . S
H6035 C6058 0.950 . S
H6036 C6059 0.950 . S
H6037 C6061 0.950 . S
H6038 C6062 0.950 . S
H6039 C6063 0.951 . S
H6040 C6065 0.951 . S
H6041 C6067 0.950 . S
H6042 C6068 0.950 . S
H6043 C6070 0.950 . S
H6044 C6073 0.950 . S
H6045 C6074 0.950 . S
H6046 C6076 0.950 . S
H6047 C6077 0.950 . S
C6048 H6030 0.951 . S
C6048 C6049 1.366 . S
C6048 C6050 1.388 . S
C6049 C6048 1.366 . S
C6049 C6053 1.385 . S
C6050 H6031 0.951 . S
C6050 C6048 1.388 . S
C6050 C6051 1.366 . S
C6051 C6050 1.366 . S
C6051 C6052 1.414 . S
C6051 C6054 1.499 . S
C6052 H6032 0.950 . S
C6052 C6051 1.414 . S
C6052 C6053 1.374 . S
C6053 H6033 0.950 . S
C6053 C6049 1.385 . S
C6053 C6052 1.374 . S
C6054 C6051 1.499 . S
C6054 C6055 1.373 . S
C6054 C6056 1.389 . S
C6055 H6034 0.950 . S
C6055 C6054 1.373 . S
C6055 C6071 1.377 . S
C6056 C6054 1.389 . S
C6056 C6057 1.524 . S
C6056 C6070 1.377 . S
C6057 C6056 1.524 . S
C6057 C6058 1.397 . S
C6057 C6062 1.363 . S
C6058 H6035 0.950 . S
C6058 C6057 1.397 . S
C6058 C6059 1.334 . S
C6059 H6036 0.950 . S
C6059 C6058 1.334 . S
C6059 C6060 1.287 . S
C6060 C6059 1.287 . S
C6060 C6061 1.524 . S
C6060 H6079 0.913 . S
C6061 H6037 0.950 . S
C6061 C6060 1.524 . S
C6061 C6062 1.415 . S
C6062 H6038 0.950 . S
C6062 C6057 1.363 . S
C6062 C6061 1.415 . S
C6063 H6039 0.951 . S
C6063 C6064 1.366 . S
C6063 C6065 1.388 . S
C6064 C6063 1.366 . S
C6064 C6068 1.385 . S
C6065 H6040 0.951 . S
C6065 C6063 1.388 . S
C6065 C6066 1.366 . S
C6066 C6065 1.366 . S
C6066 C6067 1.414 . S
C6066 C6069 1.499 . S
C6067 H6041 0.950 . S
C6067 C6066 1.414 . S
C6067 C6068 1.374 . S
C6068 H6042 0.950 . S
C6068 C6064 1.385 . S
C6068 C6067 1.374 . S
C6069 C6066 1.499 . S
C6069 C6070 1.373 . S
C6069 C6071 1.389 . S
C6070 H6043 0.950 . S
C6070 C6056 1.377 . S
C6070 C6069 1.373 . S
C6071 C6055 1.377 . S
C6071 C6069 1.389 . S
C6071 C6072 1.524 . S
C6072 C6071 1.524 . S
C6072 C6073 1.397 . S
C6072 C6077 1.363 . S
C6073 H6044 0.950 . S
C6073 C6072 1.397 . S
C6073 C6074 1.334 . S
C6074 H6045 0.950 . S
C6074 C6073 1.334 . S
C6074 C6075 1.287 . S
C6075 C6074 1.287 . S
C6075 C6076 1.524 . S
C6075 H6078 0.999 . S
C6076 H6046 0.950 . S
C6076 C6075 1.524 . S
C6076 C6077 1.415 . S
C6077 H6047 0.950 . S
C6077 C6072 1.363 . S
C6077 C6076 1.415 . S
H6078 C6075 0.999 . S
H6079 C6060 0.913 . S
H6080 C6098 0.951 . S
H6081 C6100 0.951 . S
H6082 C6102 0.950 . S
H6083 C6103 0.950 . S
H6084 C6105 0.950 . S
H6085 C6108 0.950 . S
H6086 C6109 0.950 . S
H6087 C6111 0.950 . S
H6088 C6112 0.950 . S
H6089 C6113 0.951 . S
H6090 C6115 0.951 . S
H6091 C6117 0.950 . S
H6092 C6118 0.950 . S
H6093 C6120 0.950 . S
H6094 C6123 0.950 . S
H6095 C6124 0.950 . S
H6096 C6126 0.950 . S
H6097 C6127 0.950 . S
C6098 H6080 0.951 . S
C6098 C6099 1.366 . S
C6098 C6100 1.388 . S
C6099 C6098 1.366 . S
C6099 C6103 1.385 . S
C6100 H6081 0.951 . S
C6100 C6098 1.388 . S
C6100 C6101 1.366 . S
C6101 C6100 1.366 . S
C6101 C6102 1.414 . S
C6101 C6104 1.499 . S
C6102 H6082 0.950 . S
C6102 C6101 1.414 . S
C6102 C6103 1.374 . S
C6103 H6083 0.950 . S
C6103 C6099 1.385 . S
C6103 C6102 1.374 . S
C6104 C6101 1.499 . S
C6104 C6105 1.373 . S
C6104 C6106 1.389 . S
C6105 H6084 0.950 . S
C6105 C6104 1.373 . S
C6105 C6121 1.377 . S
C6106 C6104 1.389 . S
C6106 C6107 1.524 . S
C6106 C6120 1.377 . S
C6107 C6106 1.524 . S
C6107 C6108 1.397 . S
C6107 C6112 1.363 . S
C6108 H6085 0.950 . S
C6108 C6107 1.397 . S
C6108 C6109 1.334 . S
C6109 H6086 0.950 . S
C6109 C6108 1.334 . S
C6109 C6110 1.287 . S
C6110 C6109 1.287 . S
C6110 C6111 1.524 . S
C6110 H6129 0.913 . S
C6111 H6087 0.950 . S
C6111 C6110 1.524 . S
C6111 C6112 1.415 . S
C6112 H6088 0.950 . S
C6112 C6107 1.363 . S
C6112 C6111 1.415 . S
C6113 H6089 0.951 . S
C6113 C6114 1.366 . S
C6113 C6115 1.388 . S
C6114 C6113 1.366 . S
C6114 C6118 1.385 . S
C6115 H6090 0.951 . S
C6115 C6113 1.388 . S
C6115 C6116 1.366 . S
C6116 C6115 1.366 . S
C6116 C6117 1.414 . S
C6116 C6119 1.499 . S
C6117 H6091 0.950 . S
C6117 C6116 1.414 . S
C6117 C6118 1.374 . S
C6118 H6092 0.950 . S
C6118 C6114 1.385 . S
C6118 C6117 1.374 . S
C6119 C6116 1.499 . S
C6119 C6120 1.373 . S
C6119 C6121 1.389 . S
C6120 H6093 0.950 . S
C6120 C6106 1.377 . S
C6120 C6119 1.373 . S
C6121 C6105 1.377 . S
C6121 C6119 1.389 . S
C6121 C6122 1.524 . S
C6122 C6121 1.524 . S
C6122 C6123 1.397 . S
C6122 C6127 1.363 . S
C6123 H6094 0.950 . S
C6123 C6122 1.397 . S
C6123 C6124 1.334 . S
C6124 H6095 0.950 . S
C6124 C6123 1.334 . S
C6124 C6125 1.287 . S
C6125 C6124 1.287 . S
C6125 C6126 1.524 . S
C6125 H6128 0.999 . S
C6126 H6096 0.950 . S
C6126 C6125 1.524 . S
C6126 C6127 1.415 . S
C6127 H6097 0.950 . S
C6127 C6122 1.363 . S
C6127 C6126 1.415 . S
H6128 C6125 0.999 . S
H6129 C6110 0.913 . S
H6130 C6148 0.951 . S
H6131 C6150 0.951 . S
H6132 C6152 0.950 . S
H6133 C6153 0.950 . S
H6134 C6155 0.950 . S
H6135 C6158 0.950 . S
H6136 C6159 0.950 . S
H6137 C6161 0.950 . S
H6138 C6162 0.950 . S
H6139 C6163 0.951 . S
H6140 C6165 0.951 . S
H6141 C6167 0.950 . S
H6142 C6168 0.950 . S
H6143 C6170 0.950 . S
H6144 C6173 0.950 . S
H6145 C6174 0.950 . S
H6146 C6176 0.950 . S
H6147 C6177 0.950 . S
C6148 H6130 0.951 . S
C6148 C6149 1.366 . S
C6148 C6150 1.388 . S
C6149 C6148 1.366 . S
C6149 C6153 1.385 . S
C6150 H6131 0.951 . S
C6150 C6148 1.388 . S
C6150 C6151 1.366 . S
C6151 C6150 1.366 . S
C6151 C6152 1.414 . S
C6151 C6154 1.499 . S
C6152 H6132 0.950 . S
C6152 C6151 1.414 . S
C6152 C6153 1.374 . S
C6153 H6133 0.950 . S
C6153 C6149 1.385 . S
C6153 C6152 1.374 . S
C6154 C6151 1.499 . S
C6154 C6155 1.373 . S
C6154 C6156 1.389 . S
C6155 H6134 0.950 . S
C6155 C6154 1.373 . S
C6155 C6171 1.377 . S
C6156 C6154 1.389 . S
C6156 C6157 1.524 . S
C6156 C6170 1.377 . S
C6157 C6156 1.524 . S
C6157 C6158 1.397 . S
C6157 C6162 1.363 . S
C6158 H6135 0.950 . S
C6158 C6157 1.397 . S
C6158 C6159 1.334 . S
C6159 H6136 0.950 . S
C6159 C6158 1.334 . S
C6159 C6160 1.287 . S
C6160 C6159 1.287 . S
C6160 C6161 1.524 . S
C6160 H6179 0.913 . S
C6161 H6137 0.950 . S
C6161 C6160 1.524 . S
C6161 C6162 1.415 . S
C6162 H6138 0.950 . S
C6162 C6157 1.363 . S
C6162 C6161 1.415 . S
C6163 H6139 0.951 . S
C6163 C6164 1.366 . S
C6163 C6165 1.388 . S
C6164 C6163 1.366 . S
C6164 C6168 1.385 . S
C6165 H6140 0.951 . S
C6165 C6163 1.388 . S
C6165 C6166 1.366 . S
C6166 C6165 1.366 . S
C6166 C6167 1.414 . S
C6166 C6169 1.499 . S
C6167 H6141 0.950 . S
C6167 C6166 1.414 . S
C6167 C6168 1.374 . S
C6168 H6142 0.950 . S
C6168 C6164 1.385 . S
C6168 C6167 1.374 . S
C6169 C6166 1.499 . S
C6169 C6170 1.373 . S
C6169 C6171 1.389 . S
C6170 H6143 0.950 . S
C6170 C6156 1.377 . S
C6170 C6169 1.373 . S
C6171 C6155 1.377 . S
C6171 C6169 1.389 . S
C6171 C6172 1.524 . S
C6172 C6171 1.524 . S
C6172 C6173 1.397 . S
C6172 C6177 1.363 . S
C6173 H6144 0.950 . S
C6173 C6172 1.397 . S
C6173 C6174 1.334 . S
C6174 H6145 0.950 . S
C6174 C6173 1.334 . S
C6174 C6175 1.287 . S
C6175 C6174 1.287 . S
C6175 C6176 1.524 . S
C6175 H6178 0.999 . S
C6176 H6146 0.950 . S
C6176 C6175 1.524 . S
C6176 C6177 1.415 . S
C6177 H6147 0.950 . S
C6177 C6172 1.363 . S
C6177 C6176 1.415 . S
H6178 C6175 0.999 . S
H6179 C6160 0.913 . S
H6180 C6198 0.951 . S
H6181 C6200 0.951 . S
H6182 C6202 0.950 . S
H6183 C6203 0.950 . S
H6184 C6205 0.950 . S
H6185 C6208 0.950 . S
H6186 C6209 0.950 . S
H6187 C6211 0.950 . S
H6188 C6212 0.950 . S
H6189 C6213 0.951 . S
H6190 C6215 0.951 . S
H6191 C6217 0.950 . S
H6192 C6218 0.950 . S
H6193 C6220 0.950 . S
H6194 C6223 0.950 . S
H6195 C6224 0.950 . S
H6196 C6226 0.950 . S
H6197 C6227 0.950 . S
C6198 H6180 0.951 . S
C6198 C6199 1.366 . S
C6198 C6200 1.388 . S
C6199 C6198 1.366 . S
C6199 C6203 1.385 . S
C6200 H6181 0.951 . S
C6200 C6198 1.388 . S
C6200 C6201 1.366 . S
C6201 C6200 1.366 . S
C6201 C6202 1.414 . S
C6201 C6204 1.499 . S
C6202 H6182 0.950 . S
C6202 C6201 1.414 . S
C6202 C6203 1.374 . S
C6203 H6183 0.950 . S
C6203 C6199 1.385 . S
C6203 C6202 1.374 . S
C6204 C6201 1.499 . S
C6204 C6205 1.373 . S
C6204 C6206 1.389 . S
C6205 H6184 0.950 . S
C6205 C6204 1.373 . S
C6205 C6221 1.377 . S
C6206 C6204 1.389 . S
C6206 C6207 1.524 . S
C6206 C6220 1.377 . S
C6207 C6206 1.524 . S
C6207 C6208 1.397 . S
C6207 C6212 1.363 . S
C6208 H6185 0.950 . S
C6208 C6207 1.397 . S
C6208 C6209 1.334 . S
C6209 H6186 0.950 . S
C6209 C6208 1.334 . S
C6209 C6210 1.287 . S
C6210 C6209 1.287 . S
C6210 C6211 1.524 . S
C6210 H6229 0.913 . S
C6211 H6187 0.950 . S
C6211 C6210 1.524 . S
C6211 C6212 1.415 . S
C6212 H6188 0.950 . S
C6212 C6207 1.363 . S
C6212 C6211 1.415 . S
C6213 H6189 0.951 . S
C6213 C6214 1.366 . S
C6213 C6215 1.388 . S
C6214 C6213 1.366 . S
C6214 C6218 1.385 . S
C6215 H6190 0.951 . S
C6215 C6213 1.388 . S
C6215 C6216 1.366 . S
C6216 C6215 1.366 . S
C6216 C6217 1.414 . S
C6216 C6219 1.499 . S
C6217 H6191 0.950 . S
C6217 C6216 1.414 . S
C6217 C6218 1.374 . S
C6218 H6192 0.950 . S
C6218 C6214 1.385 . S
C6218 C6217 1.374 . S
C6219 C6216 1.499 . S
C6219 C6220 1.373 . S
C6219 C6221 1.389 . S
C6220 H6193 0.950 . S
C6220 C6206 1.377 . S
C6220 C6219 1.373 . S
C6221 C6205 1.377 . S
C6221 C6219 1.389 . S
C6221 C6222 1.524 . S
C6222 C6221 1.524 . S
C6222 C6223 1.397 . S
C6222 C6227 1.363 . S
C6223 H6194 0.950 . S
C6223 C6222 1.397 . S
C6223 C6224 1.334 . S
C6224 H6195 0.950 . S
C6224 C6223 1.334 . S
C6224 C6225 1.287 . S
C6225 C6224 1.287 . S
C6225 C6226 1.524 . S
C6225 H6228 0.999 . S
C6226 H6196 0.950 . S
C6226 C6225 1.524 . S
C6226 C6227 1.415 . S
C6227 H6197 0.950 . S
C6227 C6222 1.363 . S
C6227 C6226 1.415 . S
H6228 C6225 0.999 . S
H6229 C6210 0.913 . S
H6230 C6248 0.951 . S
H6231 C6250 0.951 . S
H6232 C6252 0.950 . S
H6233 C6253 0.950 . S
H6234 C6255 0.950 . S
H6235 C6258 0.950 . S
H6236 C6259 0.950 . S
H6237 C6261 0.950 1_556 S
H6238 C6262 0.916 1_556 S
H6239 C6263 0.951 . S
H6240 C6265 0.951 . S
H6241 C6267 0.950 . S
H6242 C6268 0.955 . S
H6243 C6270 0.950 . S
H6244 C6273 0.950 . S
H6245 C6274 0.950 1_565 S
H6246 C6276 0.950 . S
H6247 C6277 0.950 . S
C6248 H6230 0.951 . S
C6248 C6249 1.366 . S
C6248 C6250 1.388 . S
C6249 C6248 1.366 . S
C6249 C6253 1.385 . S
C6250 H6231 0.951 . S
C6250 C6248 1.388 . S
C6250 C6251 1.366 . S
C6251 C6250 1.366 . S
C6251 C6252 1.414 . S
C6251 C6254 1.499 . S
C6252 H6232 0.950 . S
C6252 C6251 1.414 . S
C6252 C6253 1.374 . S
C6253 H6233 0.950 . S
C6253 C6249 1.385 . S
C6253 C6252 1.374 . S
C6254 C6251 1.499 . S
C6254 C6255 1.373 . S
C6254 C6256 1.389 . S
C6255 H6234 0.950 . S
C6255 C6254 1.373 . S
C6255 C6271 1.377 . S
C6256 C6254 1.389 . S
C6256 C6257 1.524 . S
C6256 C6270 1.377 . S
C6257 C6256 1.524 . S
C6257 C6258 1.397 . S
C6257 C6262 1.363 . S
C6258 H6235 0.950 . S
C6258 C6257 1.397 . S
C6258 C6259 1.334 . S
C6259 H6236 0.950 . S
C6259 C6258 1.334 . S
C6259 C6260 1.287 . S
C6260 C6259 1.287 . S
C6260 C6261 1.524 . S
C6260 H6279 0.913 . S
C6261 H6237 0.950 1_554 S
C6261 C6260 1.524 . S
C6261 C6262 1.415 . S
C6262 H6238 0.916 1_554 S
C6262 C6257 1.363 . S
C6262 C6261 1.415 . S
C6263 H6239 0.951 . S
C6263 C6264 1.366 . S
C6263 C6265 1.388 . S
C6264 C6263 1.366 . S
C6264 C6268 1.385 . S
C6265 H6240 0.951 . S
C6265 C6263 1.388 . S
C6265 C6266 1.366 . S
C6266 C6265 1.366 . S
C6266 C6267 1.414 . S
C6266 C6269 1.499 . S
C6267 H6241 0.950 . S
C6267 C6266 1.414 . S
C6267 C6268 1.374 . S
C6268 H6242 0.955 . S
C6268 C6264 1.385 . S
C6268 C6267 1.374 . S
C6269 C6266 1.499 . S
C6269 C6270 1.373 . S
C6269 C6271 1.389 . S
C6270 H6243 0.950 . S
C6270 C6256 1.377 . S
C6270 C6269 1.373 . S
C6271 C6255 1.377 . S
C6271 C6269 1.389 . S
C6271 C6272 1.524 . S
C6272 C6271 1.524 . S
C6272 C6273 1.397 . S
C6272 C6277 1.363 . S
C6273 H6244 0.950 . S
C6273 C6272 1.397 . S
C6273 C6274 1.334 . S
C6274 H6245 0.950 1_545 S
C6274 C6273 1.334 . S
C6274 C6275 1.287 . S
C6275 C6274 1.287 . S
C6275 C6276 1.524 . S
C6275 H6278 0.999 1_545 S
C6276 H6246 0.950 . S
C6276 C6275 1.524 . S
C6276 C6277 1.415 . S
C6277 H6247 0.950 . S
C6277 C6272 1.363 . S
C6277 C6276 1.415 . S
H6278 C6275 0.999 1_565 S
H6279 C6260 0.913 . S
H6280 C6298 0.951 . S
H6281 C6300 0.951 . S
H6282 C6302 0.950 . S
H6283 C6303 0.950 . S
H6284 C6305 0.950 . S
H6285 C6308 0.950 . S
H6286 C6309 0.950 . S
H6287 C6311 0.950 . S
H6288 C6312 0.950 . S
H6289 C6313 0.951 . S
H6290 C6315 0.951 . S
H6291 C6317 0.950 . S
H6292 C6318 0.950 . S
H6293 C6320 0.950 . S
H6294 C6323 0.950 . S
H6295 C6324 0.950 . S
H6296 C6326 0.950 . S
H6297 C6327 0.950 . S
C6298 H6280 0.951 . S
C6298 C6299 1.366 . S
C6298 C6300 1.388 . S
C6299 C6298 1.366 . S
C6299 C6303 1.385 . S
C6300 H6281 0.951 . S
C6300 C6298 1.388 . S
C6300 C6301 1.366 . S
C6301 C6300 1.366 . S
C6301 C6302 1.414 . S
C6301 C6304 1.499 . S
C6302 H6282 0.950 . S
C6302 C6301 1.414 . S
C6302 C6303 1.374 . S
C6303 H6283 0.950 . S
C6303 C6299 1.385 . S
C6303 C6302 1.374 . S
C6304 C6301 1.499 . S
C6304 C6305 1.373 . S
C6304 C6306 1.389 . S
C6305 H6284 0.950 . S
C6305 C6304 1.373 . S
C6305 C6321 1.377 . S
C6306 C6304 1.389 . S
C6306 C6307 1.524 . S
C6306 C6320 1.377 . S
C6307 C6306 1.524 . S
C6307 C6308 1.397 . S
C6307 C6312 1.363 . S
C6308 H6285 0.950 . S
C6308 C6307 1.397 . S
C6308 C6309 1.334 . S
C6309 H6286 0.950 . S
C6309 C6308 1.334 . S
C6309 C6310 1.287 . S
C6310 C6309 1.287 . S
C6310 C6311 1.524 . S
C6310 H6329 0.913 . S
C6311 H6287 0.950 . S
C6311 C6310 1.524 . S
C6311 C6312 1.415 . S
C6312 H6288 0.950 . S
C6312 C6307 1.363 . S
C6312 C6311 1.415 . S
C6313 H6289 0.951 . S
C6313 C6314 1.366 . S
C6313 C6315 1.388 . S
C6314 C6313 1.366 . S
C6314 C6318 1.385 . S
C6315 H6290 0.951 . S
C6315 C6313 1.388 . S
C6315 C6316 1.366 . S
C6316 C6315 1.366 . S
C6316 C6317 1.414 . S
C6316 C6319 1.499 . S
C6317 H6291 0.950 . S
C6317 C6316 1.414 . S
C6317 C6318 1.374 . S
C6318 H6292 0.950 . S
C6318 C6314 1.385 . S
C6318 C6317 1.374 . S
C6319 C6316 1.499 . S
C6319 C6320 1.373 . S
C6319 C6321 1.389 . S
C6320 H6293 0.950 . S
C6320 C6306 1.377 . S
C6320 C6319 1.373 . S
C6321 C6305 1.377 . S
C6321 C6319 1.389 . S
C6321 C6322 1.524 . S
C6322 C6321 1.524 . S
C6322 C6323 1.397 . S
C6322 C6327 1.363 . S
C6323 H6294 0.950 . S
C6323 C6322 1.397 . S
C6323 C6324 1.334 . S
C6324 H6295 0.950 . S
C6324 C6323 1.334 . S
C6324 C6325 1.287 . S
C6325 C6324 1.287 . S
C6325 C6326 1.524 . S
C6325 H6328 0.999 . S
C6326 H6296 0.950 . S
C6326 C6325 1.524 . S
C6326 C6327 1.415 . S
C6327 H6297 0.950 . S
C6327 C6322 1.363 . S
C6327 C6326 1.415 . S
H6328 C6325 0.999 . S
H6329 C6310 0.913 . S
H6330 C6348 0.951 . S
H6331 C6350 0.951 . S
H6332 C6352 0.950 . S
H6333 C6353 0.950 . S
H6334 C6355 0.950 . S
H6335 C6358 0.931 1_554 S
H6336 C6359 0.950 . S
H6337 C6361 0.950 . S
H6338 C6362 0.950 . S
H6339 C6363 0.951 . S
H6340 C6365 0.951 . S
H6341 C6367 0.950 . S
H6342 C6368 0.950 . S
H6343 C6370 0.898 1_556 S
H6344 C6373 0.950 . S
H6345 C6374 0.950 . S
H6346 C6376 0.950 . S
H6347 C6377 0.950 . S
C6348 H6330 0.951 . S
C6348 C6349 1.366 . S
C6348 C6350 1.388 . S
C6349 C6348 1.366 . S
C6349 C6353 1.385 . S
C6350 H6331 0.951 . S
C6350 C6348 1.388 . S
C6350 C6351 1.366 . S
C6351 C6350 1.366 . S
C6351 C6352 1.414 . S
C6351 C6354 1.499 . S
C6352 H6332 0.950 . S
C6352 C6351 1.414 . S
C6352 C6353 1.374 . S
C6353 H6333 0.950 . S
C6353 C6349 1.385 . S
C6353 C6352 1.374 . S
C6354 C6351 1.499 . S
C6354 C6355 1.373 . S
C6354 C6356 1.389 . S
C6355 H6334 0.950 . S
C6355 C6354 1.373 . S
C6355 C6371 1.377 . S
C6356 C6354 1.389 . S
C6356 C6357 1.524 1_554 S
C6356 C6370 1.377 . S
C6357 C6356 1.524 1_556 S
C6357 C6358 1.397 . S
C6357 C6362 1.363 . S
C6358 H6335 0.931 1_556 S
C6358 C6357 1.397 . S
C6358 C6359 1.334 . S
C6359 H6336 0.950 . S
C6359 C6358 1.334 . S
C6359 C6360 1.287 . S
C6360 C6359 1.287 . S
C6360 C6361 1.524 . S
C6360 H6379 0.913 . S
C6361 H6337 0.950 . S
C6361 C6360 1.524 . S
C6361 C6362 1.415 . S
C6362 H6338 0.950 . S
C6362 C6357 1.363 . S
C6362 C6361 1.415 . S
C6363 H6339 0.951 . S
C6363 C6364 1.366 . S
C6363 C6365 1.388 . S
C6364 C6363 1.366 . S
C6364 C6368 1.385 . S
C6365 H6340 0.951 . S
C6365 C6363 1.388 . S
C6365 C6366 1.366 . S
C6366 C6365 1.366 . S
C6366 C6367 1.414 . S
C6366 C6369 1.499 . S
C6367 H6341 0.950 . S
C6367 C6366 1.414 . S
C6367 C6368 1.374 . S
C6368 H6342 0.950 . S
C6368 C6364 1.385 . S
C6368 C6367 1.374 . S
C6369 C6366 1.499 . S
C6369 C6370 1.373 . S
C6369 C6371 1.389 . S
C6370 H6343 0.898 1_554 S
C6370 C6356 1.377 . S
C6370 C6369 1.373 . S
C6371 C6355 1.377 . S
C6371 C6369 1.389 . S
C6371 C6372 1.524 . S
C6372 C6371 1.524 . S
C6372 C6373 1.397 . S
C6372 C6377 1.363 . S
C6373 H6344 0.950 . S
C6373 C6372 1.397 . S
C6373 C6374 1.334 . S
C6374 H6345 0.950 . S
C6374 C6373 1.334 . S
C6374 C6375 1.287 . S
C6375 C6374 1.287 . S
C6375 C6376 1.524 . S
C6375 H6378 0.999 . S
C6376 H6346 0.950 . S
C6376 C6375 1.524 . S
C6376 C6377 1.415 . S
C6377 H6347 0.950 . S
C6377 C6372 1.363 . S
C6377 C6376 1.415 . S
H6378 C6375 0.999 . S
H6379 C6360 0.913 . S
H6380 C6398 0.951 . S
H6381 C6400 0.951 . S
H6382 C6402 0.950 . S
H6383 C6403 0.950 . S
H6384 C6405 0.950 . S
H6385 C6408 0.950 . S
H6386 C6409 0.950 . S
H6387 C6411 0.950 . S
H6388 C6412 0.950 . S
H6389 C6413 0.951 . S
H6390 C6415 0.951 . S
H6391 C6417 0.950 . S
H6392 C6418 0.950 . S
H6393 C6420 0.950 . S
H6394 C6423 0.950 . S
H6395 C6424 0.950 . S
H6396 C6426 0.950 . S
H6397 C6427 0.950 . S
C6398 H6380 0.951 . S
C6398 C6399 1.366 . S
C6398 C6400 1.388 . S
C6399 C6398 1.366 . S
C6399 C6403 1.385 . S
C6400 H6381 0.951 . S
C6400 C6398 1.388 . S
C6400 C6401 1.366 . S
C6401 C6400 1.366 . S
C6401 C6402 1.414 . S
C6401 C6404 1.499 . S
C6402 H6382 0.950 . S
C6402 C6401 1.414 . S
C6402 C6403 1.374 . S
C6403 H6383 0.950 . S
C6403 C6399 1.385 . S
C6403 C6402 1.374 . S
C6404 C6401 1.499 . S
C6404 C6405 1.373 . S
C6404 C6406 1.389 . S
C6405 H6384 0.950 . S
C6405 C6404 1.373 . S
C6405 C6421 1.377 . S
C6406 C6404 1.389 . S
C6406 C6407 1.524 . S
C6406 C6420 1.377 . S
C6407 C6406 1.524 . S
C6407 C6408 1.397 . S
C6407 C6412 1.363 . S
C6408 H6385 0.950 . S
C6408 C6407 1.397 . S
C6408 C6409 1.334 . S
C6409 H6386 0.950 . S
C6409 C6408 1.334 . S
C6409 C6410 1.287 . S
C6410 C6409 1.287 . S
C6410 C6411 1.524 . S
C6410 H6429 0.913 . S
C6411 H6387 0.950 . S
C6411 C6410 1.524 . S
C6411 C6412 1.415 . S
C6412 H6388 0.950 . S
C6412 C6407 1.363 . S
C6412 C6411 1.415 . S
C6413 H6389 0.951 . S
C6413 C6414 1.366 . S
C6413 C6415 1.388 . S
C6414 C6413 1.366 . S
C6414 C6418 1.385 . S
C6415 H6390 0.951 . S
C6415 C6413 1.388 . S
C6415 C6416 1.366 . S
C6416 C6415 1.366 . S
C6416 C6417 1.414 . S
C6416 C6419 1.499 . S
C6417 H6391 0.950 . S
C6417 C6416 1.414 . S
C6417 C6418 1.374 . S
C6418 H6392 0.950 . S
C6418 C6414 1.385 . S
C6418 C6417 1.374 . S
C6419 C6416 1.499 . S
C6419 C6420 1.373 . S
C6419 C6421 1.389 . S
C6420 H6393 0.950 . S
C6420 C6406 1.377 . S
C6420 C6419 1.373 . S
C6421 C6405 1.377 . S
C6421 C6419 1.389 . S
C6421 C6422 1.524 . S
C6422 C6421 1.524 . S
C6422 C6423 1.397 . S
C6422 C6427 1.363 . S
C6423 H6394 0.950 . S
C6423 C6422 1.397 . S
C6423 C6424 1.334 . S
C6424 H6395 0.950 . S
C6424 C6423 1.334 . S
C6424 C6425 1.287 . S
C6425 C6424 1.287 . S
C6425 C6426 1.524 . S
C6425 H6428 0.999 . S
C6426 H6396 0.950 . S
C6426 C6425 1.524 . S
C6426 C6427 1.415 . S
C6427 H6397 0.950 . S
C6427 C6422 1.363 . S
C6427 C6426 1.415 . S
H6428 C6425 0.999 . S
H6429 C6410 0.913 . S
H6430 C6448 0.951 . S
H6431 C6450 0.951 . S
H6432 C6452 0.950 . S
H6433 C6453 0.950 . S
H6434 C6455 0.950 . S
H6435 C6458 0.950 . S
H6436 C6459 0.950 . S
H6437 C6461 0.950 . S
H6438 C6462 0.950 . S
H6439 C6463 0.951 . S
H6440 C6465 0.951 . S
H6441 C6467 0.950 . S
H6442 C6468 0.950 . S
H6443 C6470 0.950 . S
H6444 C6473 0.950 . S
H6445 C6474 0.950 . S
H6446 C6476 0.950 . S
H6447 C6477 0.950 . S
C6448 H6430 0.951 . S
C6448 C6449 1.366 . S
C6448 C6450 1.388 . S
C6449 C6448 1.366 . S
C6449 C6453 1.385 . S
C6450 H6431 0.951 . S
C6450 C6448 1.388 . S
C6450 C6451 1.366 . S
C6451 C6450 1.366 . S
C6451 C6452 1.414 . S
C6451 C6454 1.499 . S
C6452 H6432 0.950 . S
C6452 C6451 1.414 . S
C6452 C6453 1.374 . S
C6453 H6433 0.950 . S
C6453 C6449 1.385 . S
C6453 C6452 1.374 . S
C6454 C6451 1.499 . S
C6454 C6455 1.373 . S
C6454 C6456 1.389 . S
C6455 H6434 0.950 . S
C6455 C6454 1.373 . S
C6455 C6471 1.377 . S
C6456 C6454 1.389 . S
C6456 C6457 1.524 . S
C6456 C6470 1.377 . S
C6457 C6456 1.524 . S
C6457 C6458 1.397 . S
C6457 C6462 1.363 . S
C6458 H6435 0.950 . S
C6458 C6457 1.397 . S
C6458 C6459 1.334 . S
C6459 H6436 0.950 . S
C6459 C6458 1.334 . S
C6459 C6460 1.287 . S
C6460 C6459 1.287 . S
C6460 C6461 1.524 . S
C6460 H6479 0.913 . S
C6461 H6437 0.950 . S
C6461 C6460 1.524 . S
C6461 C6462 1.415 . S
C6462 H6438 0.950 . S
C6462 C6457 1.363 . S
C6462 C6461 1.415 . S
C6463 H6439 0.951 . S
C6463 C6464 1.366 . S
C6463 C6465 1.388 . S
C6464 C6463 1.366 . S
C6464 C6468 1.385 . S
C6465 H6440 0.951 . S
C6465 C6463 1.388 . S
C6465 C6466 1.366 . S
C6466 C6465 1.366 . S
C6466 C6467 1.414 . S
C6466 C6469 1.499 . S
C6467 H6441 0.950 . S
C6467 C6466 1.414 . S
C6467 C6468 1.374 . S
C6468 H6442 0.950 . S
C6468 C6464 1.385 . S
C6468 C6467 1.374 . S
C6469 C6466 1.499 . S
C6469 C6470 1.373 . S
C6469 C6471 1.389 . S
C6470 H6443 0.950 . S
C6470 C6456 1.377 . S
C6470 C6469 1.373 . S
C6471 C6455 1.377 . S
C6471 C6469 1.389 . S
C6471 C6472 1.524 . S
C6472 C6471 1.524 . S
C6472 C6473 1.397 . S
C6472 C6477 1.363 . S
C6473 H6444 0.950 . S
C6473 C6472 1.397 . S
C6473 C6474 1.334 . S
C6474 H6445 0.950 . S
C6474 C6473 1.334 . S
C6474 C6475 1.287 . S
C6475 C6474 1.287 . S
C6475 C6476 1.524 . S
C6475 H6478 0.999 . S
C6476 H6446 0.950 . S
C6476 C6475 1.524 . S
C6476 C6477 1.415 . S
C6477 H6447 0.950 . S
C6477 C6472 1.363 . S
C6477 C6476 1.415 . S
H6478 C6475 0.999 . S
H6479 C6460 0.913 . S
C1699 C105 2.009 1_455 S
C1714 C392 2.017 . S
C1749 C65 1.855 . S
C1764 C494 1.837 . S
C1799 C73 1.802 . S
C1814 C560 1.815 . S
C1864 C646 1.471 . S
C1849 C92 1.578 . S
C1899 C17 1.646 . S
C1914 C730 1.520 . S
C1964 C812 1.788 . S
C1949 C37 1.756 . S
C2014 C914 1.853 . S
C1999 C49 1.786 . S
C2049 C8 1.952 . S
C2064 C980 1.950 . S
C2114 C410 1.541 . S
C2099 C231 1.553 . S
C2149 C241 0.908 . S
C2164 C478 0.871 . S
C2214 C578 1.093 . S
C2199 C273 1.070 . S
C2264 C644 1.606 . S
C2249 C171 1.605 1_556 S
C2299 C227 1.591 . S
C2314 C728 1.592 . S
C2364 C830 1.099 . S
C2349 C245 1.074 . S
C2414 C898 0.871 . S
C2399 C269 0.908 . S
C2464 C998 1.532 . S
C2449 C175 1.545 . S
C2514 C394 0.888 1_565 S
C2499 C162 0.911 1_554 S
C2549 C289 1.701 . S
C2564 C1082 1.679 . S
C2614 C1150 1.297 . S
C2599 C330 1.369 . S
C2664 C1232 0.802 . S
C2649 C317 0.800 . S
C2699 C120 0.873 . S
C2714 C982 0.850 . S
C2749 C134 1.387 . S
C2764 C562 1.313 . S
C2799 C331 1.657 . S
C2814 C1334 1.637 . S
C2864 C1400 0.735 . S
C2849 C303 0.735 . S
C2914 C403 2.052 . S
C2899 C59 2.031 . S
C2964 C1407 1.891 . S
C2949 C107 1.903 . S
C2999 C91 1.853 . S
C3014 C571 1.876 . S
C3049 C78 1.617 . S
C3064 C1329 1.503 . S
C3114 C741 1.558 . S
C3099 C7 1.646 . S
C3149 C51 1.807 . S
C3164 C1159 1.842 . S
C3214 C903 1.905 1_556 S
C3199 C31 1.924 . S
C3264 C1495 1.990 . S
C3249 C22 1.978 . S
C3314 C399 1.589 . S
C3299 C143 1.623 . S
C3364 C1413 0.910 . S
C3349 C315 0.937 . S
C3399 C115 1.150 . S
C3414 C567 1.136 . S
C3449 C287 1.625 . S
C3464 C1327 1.660 . S
C3499 C147 1.615 . S
C3514 C739 1.650 . S
C3564 C1155 1.142 . S
C3549 C311 1.156 . S
C3599 C119 0.935 . S
C3614 C909 0.908 . S
C3649 C283 1.614 . S
C3664 C1491 1.579 . S
C3699 C190 0.931 . S
C3714 C405 0.904 . S
C3749 C177 1.741 . S
C3764 C1071 1.724 . S
C3799 C260 1.386 . S
C3814 C825 1.313 . S
C3849 C247 0.852 . S
C3864 C1243 0.856 . S
C3914 C1497 0.866 . S
C3899 C274 0.891 1_565 S
C3949 C218 1.408 . S
C3964 C573 1.330 . S
C4014 C651 1.682 . S
C3999 C261 1.698 . S
C4064 C487 0.788 . S
C4049 C205 0.787 . S
C4099 C77 2.013 . S
C4114 C1568 2.017 . S
C4164 C1418 1.837 . S
C4149 C93 1.855 . S
C4199 C101 1.802 . S
C4214 C1652 1.815 . S
C4249 C64 1.578 1_655 S
C4264 C1318 1.472 . S
C4299 C45 1.646 . S
C4314 C1066 1.520 . S
C4364 C1148 1.789 . S
C4349 C9 1.757 . S
C4414 C1250 1.854 . S
C4399 C21 1.785 . S
C4464 C1484 1.950 . S
C4449 C36 1.952 . S
C4514 C1586 1.541 . S
C4499 C259 1.553 . S
C4549 C185 0.908 . S
C4564 C1402 0.873 . S
C4614 C1670 1.094 . S
C4599 C203 1.069 . S
C4664 C1316 1.606 . S
C4649 C213 1.606 . S
C4714 C1064 1.591 . S
C4699 C255 1.590 . S
C4749 C189 1.072 . S
C4764 C1166 1.098 . S
C4814 C1234 0.873 . S
C4799 C199 0.908 . S
C4849 C217 1.545 . S
C4864 C1502 1.533 . S
C4914 C1570 0.888 . S
C4899 C316 0.917 . S
C4949 C135 1.701 . S
C4964 C746 1.680 . S
C5014 C814 1.297 . S
C4999 C148 1.357 1_565 S
C5064 C896 0.802 . S
C5049 C163 0.800 . S
C5114 C1486 0.853 . S
C5099 C302 0.872 . S
C5149 C288 1.387 . S
C5164 C1654 1.313 . S
C5214 C662 1.636 . S
C5199 C149 1.657 . S
C5264 C476 0.735 . S
C5249 C121 0.735 . S
C5299 C87 2.031 . S
C5314 C1579 2.051 . S
C5364 C483 1.892 . S
C5349 C79 1.903 . S
C5399 C63 1.854 . S
C5414 C1663 1.876 . S
C5449 C106 1.617 . S
C5464 C657 1.505 . S
C5499 C35 1.646 . S
C5514 C1077 1.558 . S
C5564 C823 1.842 . S
C5549 C23 1.807 . S
C5599 C3 1.923 . S
C5614 C1239 1.905 . S
C5649 C50 1.978 . S
C5664 C991 1.990 . S
C5714 C1575 1.590 . S
C5699 C325 1.623 . S
C5749 C161 0.937 . S
C5764 C489 0.905 . S
C5814 C1659 1.136 1_655 S
C5799 C297 1.151 . S
C5849 C133 1.625 . S
C5864 C655 1.660 . S
C5899 C329 1.615 . S
C5914 C1075 1.650 . S
C5964 C819 1.143 . S
C5949 C157 1.162 . S
C5999 C301 0.936 . S
C6014 C1245 0.906 . S
C6064 C987 1.579 . S
C6049 C129 1.613 . S
C6114 C1581 0.905 . S
C6099 C246 0.931 . S
C6164 C735 1.724 1_565 S
C6149 C219 1.740 . S
C6199 C232 1.386 . S
C6214 C1161 1.313 . S
C6264 C907 0.856 . S
C6249 C191 0.853 . S
C6299 C204 0.890 . S
C6314 C993 0.866 . S
C6349 C176 1.408 . S
C6364 C1665 1.330 . S
C6414 C1323 1.682 . S
C6399 C233 1.698 . S
C6464 C1411 0.788 . S
C6449 C275 0.787 . S
