# Generated by pormake.
# Topology ctn, (3,4)-cn, num edge types: 1
# Building blocks:
#     Node 0, Type 0, BuildingBlock: OLANEW_clean_sbu_2, # of connection points: 3
#     Node 1, Type 0, BuildingBlock: OLANEW_clean_sbu_2, # of connection points: 3
#     Node 2, Type 0, BuildingBlock: OLANEW_clean_sbu_2, # of connection points: 3
#     Node 3, Type 0, BuildingBlock: OLANEW_clean_sbu_2, # of connection points: 3
#     Node 4, Type 0, BuildingBlock: OLANEW_clean_sbu_2, # of connection points: 3
#     Node 5, Type 0, BuildingBlock: OLANEW_clean_sbu_2, # of connection points: 3
#     Node 6, Type 0, BuildingBlock: OLANEW_clean_sbu_2, # of connection points: 3
#     Node 7, Type 0, BuildingBlock: OLANEW_clean_sbu_2, # of connection points: 3
#     Node 8, Type 0, BuildingBlock: OLANEW_clean_sbu_2, # of connection points: 3
#     Node 9, Type 0, BuildingBlock: OLANEW_clean_sbu_2, # of connection points: 3
#     Node 10, Type 0, BuildingBlock: OLANEW_clean_sbu_2, # of connection points: 3
#     Node 11, Type 0, BuildingBlock: OLANEW_clean_sbu_2, # of connection points: 3
#     Node 12, Type 0, BuildingBlock: OLANEW_clean_sbu_2, # of connection points: 3
#     Node 13, Type 0, BuildingBlock: OLANEW_clean_sbu_2, # of connection points: 3
#     Node 14, Type 0, BuildingBlock: OLANEW_clean_sbu_2, # of connection points: 3
#     Node 15, Type 0, BuildingBlock: OLANEW_clean_sbu_2, # of connection points: 3
#     Node 16, Type 1, BuildingBlock: KUFVIS_clean_sbu_0, # of connection points: 4
#     Node 17, Type 1, BuildingBlock: KUFVIS_clean_sbu_0, # of connection points: 4
#     Node 18, Type 1, BuildingBlock: KUFVIS_clean_sbu_0, # of connection points: 4
#     Node 19, Type 1, BuildingBlock: KUFVIS_clean_sbu_0, # of connection points: 4
#     Node 20, Type 1, BuildingBlock: KUFVIS_clean_sbu_0, # of connection points: 4
#     Node 21, Type 1, BuildingBlock: KUFVIS_clean_sbu_0, # of connection points: 4
#     Node 22, Type 1, BuildingBlock: KUFVIS_clean_sbu_0, # of connection points: 4
#     Node 23, Type 1, BuildingBlock: KUFVIS_clean_sbu_0, # of connection points: 4
#     Node 24, Type 1, BuildingBlock: KUFVIS_clean_sbu_0, # of connection points: 4
#     Node 25, Type 1, BuildingBlock: KUFVIS_clean_sbu_0, # of connection points: 4
#     Node 26, Type 1, BuildingBlock: KUFVIS_clean_sbu_0, # of connection points: 4
#     Node 27, Type 1, BuildingBlock: KUFVIS_clean_sbu_0, # of connection points: 4
#     Edge 28, Type (0, 1), BuildingBlock: UVAHIK_clean_linker_0, # of connection points: 2
#     Edge 29, Type (0, 1), BuildingBlock: UVAHIK_clean_linker_0, # of connection points: 2
#     Edge 30, Type (0, 1), BuildingBlock: UVAHIK_clean_linker_0, # of connection points: 2
#     Edge 31, Type (0, 1), BuildingBlock: UVAHIK_clean_linker_0, # of connection points: 2
#     Edge 32, Type (0, 1), BuildingBlock: UVAHIK_clean_linker_0, # of connection points: 2
#     Edge 33, Type (0, 1), BuildingBlock: UVAHIK_clean_linker_0, # of connection points: 2
#     Edge 34, Type (0, 1), BuildingBlock: UVAHIK_clean_linker_0, # of connection points: 2
#     Edge 35, Type (0, 1), BuildingBlock: UVAHIK_clean_linker_0, # of connection points: 2
#     Edge 36, Type (0, 1), BuildingBlock: UVAHIK_clean_linker_0, # of connection points: 2
#     Edge 37, Type (0, 1), BuildingBlock: UVAHIK_clean_linker_0, # of connection points: 2
#     Edge 38, Type (0, 1), BuildingBlock: UVAHIK_clean_linker_0, # of connection points: 2
#     Edge 39, Type (0, 1), BuildingBlock: UVAHIK_clean_linker_0, # of connection points: 2
#     Edge 40, Type (0, 1), BuildingBlock: UVAHIK_clean_linker_0, # of connection points: 2
#     Edge 41, Type (0, 1), BuildingBlock: UVAHIK_clean_linker_0, # of connection points: 2
#     Edge 42, Type (0, 1), BuildingBlock: UVAHIK_clean_linker_0, # of connection points: 2
#     Edge 43, Type (0, 1), BuildingBlock: UVAHIK_clean_linker_0, # of connection points: 2
#     Edge 44, Type (0, 1), BuildingBlock: UVAHIK_clean_linker_0, # of connection points: 2
#     Edge 45, Type (0, 1), BuildingBlock: UVAHIK_clean_linker_0, # of connection points: 2
#     Edge 46, Type (0, 1), BuildingBlock: UVAHIK_clean_linker_0, # of connection points: 2
#     Edge 47, Type (0, 1), BuildingBlock: UVAHIK_clean_linker_0, # of connection points: 2
#     Edge 48, Type (0, 1), BuildingBlock: UVAHIK_clean_linker_0, # of connection points: 2
#     Edge 49, Type (0, 1), BuildingBlock: UVAHIK_clean_linker_0, # of connection points: 2
#     Edge 50, Type (0, 1), BuildingBlock: UVAHIK_clean_linker_0, # of connection points: 2
#     Edge 51, Type (0, 1), BuildingBlock: UVAHIK_clean_linker_0, # of connection points: 2
#     Edge 52, Type (0, 1), BuildingBlock: UVAHIK_clean_linker_0, # of connection points: 2
#     Edge 53, Type (0, 1), BuildingBlock: UVAHIK_clean_linker_0, # of connection points: 2
#     Edge 54, Type (0, 1), BuildingBlock: UVAHIK_clean_linker_0, # of connection points: 2
#     Edge 55, Type (0, 1), BuildingBlock: UVAHIK_clean_linker_0, # of connection points: 2
#     Edge 56, Type (0, 1), BuildingBlock: UVAHIK_clean_linker_0, # of connection points: 2
#     Edge 57, Type (0, 1), BuildingBlock: UVAHIK_clean_linker_0, # of connection points: 2
#     Edge 58, Type (0, 1), BuildingBlock: UVAHIK_clean_linker_0, # of connection points: 2
#     Edge 59, Type (0, 1), BuildingBlock: UVAHIK_clean_linker_0, # of connection points: 2
#     Edge 60, Type (0, 1), BuildingBlock: UVAHIK_clean_linker_0, # of connection points: 2
#     Edge 61, Type (0, 1), BuildingBlock: UVAHIK_clean_linker_0, # of connection points: 2
#     Edge 62, Type (0, 1), BuildingBlock: UVAHIK_clean_linker_0, # of connection points: 2
#     Edge 63, Type (0, 1), BuildingBlock: UVAHIK_clean_linker_0, # of connection points: 2
#     Edge 64, Type (0, 1), BuildingBlock: UVAHIK_clean_linker_0, # of connection points: 2
#     Edge 65, Type (0, 1), BuildingBlock: UVAHIK_clean_linker_0, # of connection points: 2
#     Edge 66, Type (0, 1), BuildingBlock: UVAHIK_clean_linker_0, # of connection points: 2
#     Edge 67, Type (0, 1), BuildingBlock: UVAHIK_clean_linker_0, # of connection points: 2
#     Edge 68, Type (0, 1), BuildingBlock: UVAHIK_clean_linker_0, # of connection points: 2
#     Edge 69, Type (0, 1), BuildingBlock: UVAHIK_clean_linker_0, # of connection points: 2
#     Edge 70, Type (0, 1), BuildingBlock: UVAHIK_clean_linker_0, # of connection points: 2
#     Edge 71, Type (0, 1), BuildingBlock: UVAHIK_clean_linker_0, # of connection points: 2
#     Edge 72, Type (0, 1), BuildingBlock: UVAHIK_clean_linker_0, # of connection points: 2
#     Edge 73, Type (0, 1), BuildingBlock: UVAHIK_clean_linker_0, # of connection points: 2
#     Edge 74, Type (0, 1), BuildingBlock: UVAHIK_clean_linker_0, # of connection points: 2
#     Edge 75, Type (0, 1), BuildingBlock: UVAHIK_clean_linker_0, # of connection points: 2
# Relax obj value: 0.059
# Max RMSD: 0.168
# Mean RMSD: 0.105
data_MOF--net-ctn--node1-OLANEW_clean_sbu_2--node2-KUFVIS_clean_sbu_0--edge1-UVAHIK_clean_linker_0
_symmetry_space_group_name_H-M    P1
_symmetry_Int_Tables_number       1
_symmetry_cell_setting            triclinic
loop_
_symmetry_equiv_pos_as_xyz
'x, y, z'
_cell_length_a     73.45656
_cell_length_b     75.103726
_cell_length_c     71.708482
_cell_angle_alpha  92.116809
_cell_angle_beta   94.294058
_cell_angle_gamma 96.951904
loop_
_atom_site_label
_atom_site_type_symbol
_atom_site_fract_x
_atom_site_fract_y
_atom_site_fract_z
_atom_type_partial_charge
O0 O 0.04005 0.05297 0.00644 0.0
Cd1 Cd 0.03999 0.02127 0.01344 0.0
O2 O 0.01991 0.05292 0.02729 0.0
Cd3 Cd 0.00046 0.06151 0.04645 0.0
O4 O 0.98296 0.05604 0.06948 0.0
C5 C 0.97596 0.06771 0.079 0.0
O6 O 0.97889 0.08468 0.07495 0.0
C7 C 0.02904 0.06132 0.01524 0.0
C8 C 0.07258 0.00654 0.009 0.0
O9 O 0.06062 0.0071 0.99514 0.0
O10 O 0.06936 0.0134 0.02488 0.0
O11 O 0.36972 0.71806 0.19405 0.0
Cd12 Cd 0.35247 0.71446 0.16345 0.0
O13 O 0.35402 0.69261 0.20012 0.0
Cd14 Cd 0.34328 0.67097 0.21734 0.0
O15 O 0.32383 0.65029 0.22801 0.0
C16 C 0.32099 0.64964 0.24525 0.0
O17 O 0.3306 0.6614 0.2573 0.0
C18 C 0.36618 0.70571 0.20535 0.0
C19 C 0.34395 0.74661 0.14885 0.0
O20 O 0.33318 0.73784 0.1595 0.0
O21 O 0.35887 0.7403 0.14541 0.0
O22 O 0.98334 0.50884 0.1066 0.0
Cd23 Cd 0.96224 0.50151 0.0785 0.0
O24 O 0.99269 0.48207 0.10544 0.0
Cd25 Cd 0.97874 0.47141 0.07871 0.0
O26 O 0.97702 0.44996 0.05699 0.0
C27 C 0.96759 0.435 0.05938 0.0
O28 O 0.95803 0.43337 0.07413 0.0
C29 C 0.99297 0.49741 0.11365 0.0
C30 C 0.94153 0.52901 0.06818 0.0
O31 O 0.93687 0.51858 0.08121 0.0
O32 O 0.95613 0.52665 0.06016 0.0
O33 O 0.67749 0.8501 0.16383 0.0
Cd34 Cd 0.65442 0.82513 0.15263 0.0
O35 O 0.66876 0.84502 0.19178 0.0
Cd36 Cd 0.66617 0.84761 0.22195 0.0
O37 O 0.65498 0.84037 0.24841 0.0
C38 C 0.65091 0.85168 0.26057 0.0
O39 O 0.65417 0.86891 0.25772 0.0
C40 C 0.67934 0.854 0.18132 0.0
C41 C 0.66975 0.80012 0.13101 0.0
O42 O 0.66183 0.81264 0.12339 0.0
O43 O 0.67034 0.79939 0.14887 0.0
O44 O 0.07088 0.00124 0.50703 0.0
Cd45 Cd 0.03919 0.98707 0.50762 0.0
O46 O 0.06381 0.0182 0.48385 0.0
Cd47 Cd 0.03524 0.00652 0.47784 0.0
O48 O 0.01098 0.00131 0.45802 0.0
C49 C 0.00371 0.01478 0.45212 0.0
O50 O 0.01032 0.03088 0.45914 0.0
C51 C 0.07562 0.01348 0.49595 0.0
C52 C 0.03734 0.95693 0.52929 0.0
O53 O 0.038 0.95541 0.5115 0.0
O54 O 0.03749 0.97269 0.53683 0.0
O55 O 0.21034 0.67084 0.90717 0.0
Cd56 Cd 0.20173 0.63939 0.89692 0.0
O57 O 0.18579 0.6757 0.88988 0.0
Cd58 Cd 0.16692 0.69199 0.8755 0.0
O59 O 0.14747 0.70232 0.85548 0.0
C60 C 0.15222 0.71584 0.84601 0.0
O61 O 0.16904 0.72417 0.84889 0.0
C62 C 0.19973 0.68176 0.90087 0.0
C63 C 0.23018 0.62368 0.88188 0.0
O64 O 0.22008 0.63303 0.87187 0.0
O65 O 0.22696 0.62191 0.89909 0.0
O66 O 0.9708 0.5174 0.4711 0.0
Cd67 Cd 0.94994 0.5254 0.4942 0.0
O68 O 0.99004 0.5364 0.48871 0.0
Cd69 Cd 0.01428 0.55521 0.49825 0.0
O70 O 0.02532 0.57777 0.51743 0.0
C71 C 0.03293 0.59268 0.51224 0.0
O72 O 0.03561 0.59451 0.49446 0.0
C73 C 0.98685 0.52587 0.47423 0.0
C74 C 0.91722 0.50252 0.49431 0.0
O75 O 0.91872 0.5155 0.48319 0.0
O76 O 0.93135 0.50015 0.50512 0.0
O77 O 0.85776 0.82572 0.86445 0.0
Cd78 Cd 0.86624 0.85025 0.84405 0.0
O79 O 0.82972 0.83212 0.8589 0.0
Cd80 Cd 0.80009 0.83238 0.86067 0.0
O81 O 0.77431 0.84421 0.85698 0.0
C82 C 0.7728 0.85816 0.86706 0.0
O83 O 0.78619 0.86404 0.87979 0.0
C84 C 0.84075 0.82243 0.86691 0.0
C85 C 0.88435 0.83914 0.81371 0.0
O86 O 0.8934 0.84637 0.82862 0.0
O87 O 0.86674 0.83715 0.81316 0.0
O88 O 0.35974 0.33363 0.37643 0.0
Cd89 Cd 0.3698 0.35987 0.35891 0.0
O90 O 0.33185 0.3402 0.37012 0.0
Cd91 Cd 0.30201 0.3396 0.37084 0.0
O92 O 0.27573 0.3506 0.36813 0.0
C93 C 0.27307 0.36272 0.38011 0.0
O94 O 0.28565 0.36722 0.39404 0.0
C95 C 0.34255 0.32993 0.37767 0.0
C96 C 0.38509 0.34983 0.3263 0.0
O97 O 0.3953 0.35471 0.34134 0.0
O98 O 0.36767 0.34984 0.32666 0.0
O99 O 0.48329 0.0041 0.58534 0.0
Cd100 Cd 0.46664 0.00068 0.55429 0.0
O101 O 0.49367 0.97789 0.58254 0.0
Cd102 Cd 0.48211 0.96945 0.55427 0.0
O103 O 0.48078 0.94796 0.53268 0.0
C104 C 0.47126 0.93313 0.53538 0.0
O105 O 0.46164 0.93194 0.55011 0.0
C106 C 0.49251 0.99223 0.59212 0.0
C107 C 0.44288 0.02674 0.54849 0.0
O108 O 0.43757 0.01194 0.55594 0.0
O109 O 0.45948 0.02928 0.54384 0.0
O110 O 0.17512 0.33735 0.67527 0.0
Cd111 Cd 0.15205 0.31244 0.66392 0.0
O112 O 0.16442 0.33549 0.70287 0.0
Cd113 Cd 0.16111 0.34195 0.73238 0.0
O114 O 0.15188 0.3415 0.76066 0.0
C115 C 0.13703 0.34777 0.76379 0.0
O116 O 0.1281 0.35508 0.7501 0.0
C117 C 0.17609 0.34281 0.69234 0.0
C118 C 0.16709 0.28944 0.63965 0.0
O119 O 0.15845 0.30211 0.63341 0.0
O120 O 0.16846 0.28755 0.65737 0.0
O121 O 0.84062 0.21607 0.72929 0.0
Cd122 Cd 0.81231 0.20849 0.70891 0.0
O123 O 0.85141 0.19071 0.72264 0.0
Cd124 Cd 0.82586 0.17919 0.70705 0.0
O125 O 0.80014 0.16191 0.70928 0.0
C126 C 0.79511 0.16125 0.72585 0.0
O127 O 0.80505 0.17129 0.7392 0.0
C128 C 0.85334 0.20603 0.73121 0.0
C129 C 0.80537 0.23549 0.68459 0.0
O130 O 0.79917 0.2352 0.70083 0.0
O131 O 0.81496 0.22311 0.67994 0.0
O132 O 0.54061 0.56209 0.5314 0.0
Cd133 Cd 0.54312 0.53659 0.55147 0.0
O134 O 0.51197 0.56273 0.53827 0.0
Cd135 Cd 0.51081 0.54231 0.5592 0.0
O136 O 0.49953 0.53001 0.58369 0.0
C137 C 0.49256 0.54054 0.59464 0.0
O138 O 0.49322 0.55756 0.59078 0.0
C139 C 0.52552 0.56879 0.52931 0.0
C140 C 0.56929 0.5143 0.5423 0.0
O141 O 0.55316 0.51235 0.53378 0.0
O142 O 0.5732 0.52702 0.55491 0.0
O143 O 0.58829 0.4813 0.0015 0.0
Cd144 Cd 0.56222 0.45844 0.99235 0.0
O145 O 0.57461 0.50288 0.98873 0.0
Cd146 Cd 0.54904 0.48635 0.9788 0.0
O147 O 0.52475 0.4798 0.95926 0.0
C148 C 0.51647 0.49291 0.9541 0.0
O149 O 0.52244 0.50906 0.96142 0.0
C150 C 0.58857 0.49767 0.99747 0.0
C151 C 0.55498 0.43395 0.01992 0.0
O152 O 0.56784 0.43243 0.00906 0.0
O153 O 0.54557 0.44714 0.01787 0.0
O154 O 0.68064 0.15359 0.4159 0.0
Cd155 Cd 0.67536 0.12332 0.40139 0.0
O156 O 0.65739 0.15944 0.39723 0.0
Cd157 Cd 0.63908 0.17648 0.3832 0.0
O158 O 0.62094 0.18833 0.36304 0.0
C159 C 0.62745 0.20042 0.35258 0.0
O160 O 0.64514 0.20618 0.35462 0.0
C161 C 0.67001 0.16469 0.41004 0.0
C162 C 0.7062 0.11371 0.38499 0.0
O163 O 0.69488 0.12273 0.37615 0.0
O164 O 0.70299 0.10931 0.40164 0.0
O165 O 0.49061 0.04414 0.96941 0.0
Cd166 Cd 0.4744 0.05732 0.99399 0.0
O167 O 0.50405 0.02527 0.9869 0.0
Cd168 Cd 0.49514 0.03802 0.01186 0.0
O169 O 0.49329 0.0607 0.03124 0.0
C170 C 0.50232 0.07542 0.02729 0.0
O171 O 0.51179 0.07568 0.01244 0.0
C172 C 0.50065 0.03152 0.97094 0.0
C173 C 0.44041 0.0371 0.99684 0.0
O174 O 0.44229 0.04957 0.98516 0.0
O175 O 0.45459 0.03434 0.00737 0.0
Mn176 Mn 0.2525 0.88151 0.00483 0.0
Mn177 Mn 0.24825 0.89041 0.9591 0.0
C178 C 0.23846 0.85969 0.9832 0.0
C179 C 0.27001 0.87171 0.02993 0.0
C180 C 0.22414 0.90406 0.98774 0.0
O181 O 0.27061 0.90392 0.00333 0.0
O182 O 0.26834 0.90769 0.97222 0.0
C183 C 0.28402 0.8807 0.94831 0.0
N184 N 0.26529 0.87832 0.94606 0.0
C185 C 0.26538 0.85507 0.92207 0.0
C186 C 0.28467 0.85737 0.92403 0.0
C187 C 0.29402 0.87023 0.93722 0.0
C188 C 0.25616 0.86601 0.93339 0.0
H189 H 0.29127 0.89046 0.95854 0.0
C190 C 0.27555 0.91205 0.98887 0.0
O191 O 0.25707 0.88165 0.0327 0.0
O192 O 0.27286 0.86778 0.01273 0.0
N193 N 0.22952 0.87446 0.94489 0.0
C194 C 0.2109 0.87323 0.94546 0.0
C195 C 0.19953 0.86063 0.93347 0.0
C196 C 0.2074 0.84947 0.92103 0.0
C197 C 0.22657 0.85108 0.92059 0.0
C198 C 0.23721 0.86402 0.9327 0.0
H199 H 0.20478 0.88168 0.95509 0.0
O200 O 0.23541 0.85868 0.00074 0.0
O201 O 0.24969 0.87339 0.97895 0.0
O202 O 0.23094 0.8964 0.00178 0.0
O203 O 0.22986 0.90293 0.97138 0.0
C204 C 0.23557 0.84009 0.90889 0.0
C205 C 0.25496 0.84209 0.90963 0.0
H206 H 0.29244 0.84922 0.91561 0.0
H207 H 0.30891 0.872 0.93889 0.0
H208 H 0.18474 0.85945 0.93393 0.0
H209 H 0.19859 0.83961 0.91198 0.0
H210 H 0.22771 0.82991 0.89944 0.0
H211 H 0.26172 0.83341 0.90073 0.0
Mn212 Mn 0.14222 0.51382 0.30891 0.0
Mn213 Mn 0.13654 0.55774 0.30866 0.0
C214 C 0.16393 0.534 0.29673 0.0
C215 C 0.1529 0.48983 0.32425 0.0
C216 C 0.11551 0.5295 0.28115 0.0
O217 O 0.12267 0.51594 0.32721 0.0
O218 O 0.12164 0.54582 0.32781 0.0
C219 C 0.1544 0.56935 0.34624 0.0
N220 N 0.15327 0.57096 0.32735 0.0
C221 C 0.17811 0.59516 0.32985 0.0
C222 C 0.17948 0.59383 0.34935 0.0
C223 C 0.1676 0.58084 0.35757 0.0
C224 C 0.16467 0.58337 0.31929 0.0
H225 H 0.14532 0.55936 0.3526 0.0
C226 C 0.11676 0.53009 0.33352 0.0
O227 O 0.13996 0.48719 0.31071 0.0
O228 O 0.15926 0.50635 0.3291 0.0
N229 N 0.1503 0.57096 0.29094 0.0
C230 C 0.14778 0.5699 0.27189 0.0
C231 C 0.15892 0.58167 0.26149 0.0
C232 C 0.17237 0.59451 0.27076 0.0
C233 C 0.17454 0.59549 0.29038 0.0
C234 C 0.16301 0.58345 0.30001 0.0
H235 H 0.13744 0.56009 0.26468 0.0
O236 O 0.16276 0.51701 0.29217 0.0
O237 O 0.15252 0.53865 0.3085 0.0
O238 O 0.1234 0.51625 0.28687 0.0
O239 O 0.11908 0.54536 0.28866 0.0
C240 C 0.18787 0.60778 0.30075 0.0
C241 C 0.18971 0.60756 0.32047 0.0
H242 H 0.18968 0.60264 0.35813 0.0
H243 H 0.16863 0.57968 0.3726 0.0
H244 H 0.15716 0.58082 0.24635 0.0
H245 H 0.18103 0.60348 0.26269 0.0
H246 H 0.19694 0.61729 0.29369 0.0
H247 H 0.20021 0.61688 0.32826 0.0
Mn248 Mn 0.7746 0.64824 0.00554 0.0
Mn249 Mn 0.73642 0.65074 0.97677 0.0
C250 C 0.74978 0.62617 0.00552 0.0
C251 C 0.8038 0.63936 0.0109 0.0
C252 C 0.74509 0.67249 0.01349 0.0
O253 O 0.7835 0.66721 0.98754 0.0
O254 O 0.75762 0.66662 0.96859 0.0
C255 C 0.74898 0.63383 0.9429 0.0
N256 N 0.73627 0.63438 0.95572 0.0
C257 C 0.71644 0.60998 0.93946 0.0
C258 C 0.72927 0.60919 0.92601 0.0
C259 C 0.74565 0.62111 0.9278 0.0
C260 C 0.72061 0.62279 0.95431 0.0
H261 H 0.76152 0.64307 0.94416 0.0
C262 C 0.77447 0.67251 0.97334 0.0
O263 O 0.79854 0.65216 0.02108 0.0
O264 O 0.79238 0.6322 0.99724 0.0
N265 N 0.71446 0.63629 0.98251 0.0
C266 C 0.7036 0.63871 0.99676 0.0
C267 C 0.68675 0.62773 0.99717 0.0
C268 C 0.68103 0.61469 0.98269 0.0
C269 C 0.69222 0.61276 0.96792 0.0
C270 C 0.70892 0.62398 0.96835 0.0
H271 H 0.70779 0.64892 0.00776 0.0
O272 O 0.76223 0.62841 0.01947 0.0
O273 O 0.75249 0.63648 0.99151 0.0
O274 O 0.76009 0.66627 0.01838 0.0
O275 O 0.73534 0.66769 0.9982 0.0
C276 C 0.68748 0.6001 0.95281 0.0
C277 C 0.69966 0.59858 0.9387 0.0
H278 H 0.72669 0.59947 0.91428 0.0
H279 H 0.75564 0.62056 0.9175 0.0
H280 H 0.67815 0.62938 0.00856 0.0
H281 H 0.66802 0.60625 0.98305 0.0
H282 H 0.67455 0.59138 0.95196 0.0
H283 H 0.69597 0.58864 0.92729 0.0
Mn284 Mn 0.84812 0.0114 0.26345 0.0
Mn285 Mn 0.86249 0.97139 0.25356 0.0
C286 C 0.82844 0.98917 0.2467 0.0
C287 C 0.83519 0.03014 0.2839 0.0
C288 C 0.87408 0.00525 0.23324 0.0
O289 O 0.87089 0.01143 0.28139 0.0
O290 O 0.87758 0.9833 0.27584 0.0
C291 C 0.85195 0.95233 0.28729 0.0
N292 N 0.8508 0.95335 0.26832 0.0
C293 C 0.83074 0.92545 0.2643 0.0
C294 C 0.83179 0.92404 0.28378 0.0
C295 C 0.84241 0.93756 0.29532 0.0
C296 C 0.8406 0.94044 0.25709 0.0
H297 H 0.86004 0.96272 0.29622 0.0
C298 C 0.88018 0.9985 0.28503 0.0
O299 O 0.84552 0.03666 0.27122 0.0
O300 O 0.83264 0.01282 0.28485 0.0
N301 N 0.84878 0.95839 0.23254 0.0
C302 C 0.84831 0.96231 0.21411 0.0
C303 C 0.8378 0.95041 0.20075 0.0
C304 C 0.82799 0.93457 0.20644 0.0
C305 C 0.82881 0.93076 0.22545 0.0
C306 C 0.83959 0.94307 0.23813 0.0
H307 H 0.8558 0.97446 0.20964 0.0
O308 O 0.82553 0.00584 0.24591 0.0
O309 O 0.84266 0.98605 0.2574 0.0
O310 O 0.86411 0.01535 0.24147 0.0
O311 O 0.87495 0.98891 0.23725 0.0
C312 C 0.8191 0.91538 0.23236 0.0
C313 C 0.82002 0.91275 0.25177 0.0
H314 H 0.82439 0.91271 0.29004 0.0
H315 H 0.84322 0.93661 0.31038 0.0
H316 H 0.83721 0.95347 0.1861 0.0
H317 H 0.81978 0.9255 0.19611 0.0
H318 H 0.81065 0.90562 0.22289 0.0
H319 H 0.81225 0.90102 0.25693 0.0
Mn320 Mn 0.27218 0.14726 0.50221 0.0
Mn321 Mn 0.2339 0.15137 0.47423 0.0
C322 C 0.24698 0.12567 0.50196 0.0
C323 C 0.30118 0.13763 0.50638 0.0
C324 C 0.24358 0.17207 0.51147 0.0
O325 O 0.28117 0.16661 0.48471 0.0
O326 O 0.2553 0.16695 0.46596 0.0
C327 C 0.24542 0.1346 0.43976 0.0
N328 N 0.23301 0.13524 0.45287 0.0
C329 C 0.21267 0.11106 0.43684 0.0
C330 C 0.22518 0.11019 0.42309 0.0
C331 C 0.24168 0.12196 0.42462 0.0
C332 C 0.21726 0.12379 0.45172 0.0
H333 H 0.25807 0.1437 0.44084 0.0
C334 C 0.27224 0.17243 0.47075 0.0
O335 O 0.29649 0.15031 0.51716 0.0
O336 O 0.28925 0.13101 0.4929 0.0
N337 N 0.21176 0.13731 0.48014 0.0
C338 C 0.20107 0.14002 0.49447 0.0
C339 C 0.18407 0.12934 0.49504 0.0
C340 C 0.17802 0.11629 0.48065 0.0
C341 C 0.18901 0.1141 0.46577 0.0
C342 C 0.20586 0.12508 0.466 0.0
H343 H 0.20551 0.15022 0.50541 0.0
O344 O 0.25964 0.1272 0.51571 0.0
O345 O 0.24972 0.1364 0.4883 0.0
O346 O 0.25834 0.16527 0.51597 0.0
O347 O 0.23366 0.16802 0.49613 0.0
C348 C 0.1839 0.1015 0.45069 0.0
C349 C 0.1958 0.09984 0.43634 0.0
H350 H 0.22229 0.10053 0.41133 0.0
H351 H 0.25143 0.12134 0.41409 0.0
H352 H 0.1756 0.1312 0.5065 0.0
H353 H 0.16492 0.10805 0.48116 0.0
H354 H 0.17087 0.09294 0.45003 0.0
H355 H 0.1918 0.08995 0.42493 0.0
Mn356 Mn 0.35466 0.49095 0.77054 0.0
Mn357 Mn 0.36452 0.44866 0.76329 0.0
C358 C 0.33332 0.46986 0.75422 0.0
C359 C 0.34354 0.5125 0.78927 0.0
C360 C 0.38056 0.48024 0.74191 0.0
O361 O 0.37643 0.48944 0.78939 0.0
O362 O 0.38014 0.46021 0.78539 0.0
C363 C 0.35107 0.43258 0.79754 0.0
N364 N 0.35058 0.43267 0.77852 0.0
C365 C 0.32789 0.40658 0.77522 0.0
C366 C 0.32823 0.40613 0.79477 0.0
C367 C 0.33983 0.41922 0.80598 0.0
C368 C 0.33943 0.42018 0.76761 0.0
H369 H 0.35994 0.44263 0.8062 0.0
C370 C 0.38414 0.47569 0.79388 0.0
O371 O 0.35489 0.51703 0.77672 0.0
O372 O 0.3389 0.49547 0.79111 0.0
N373 N 0.35015 0.43596 0.74249 0.0
C374 C 0.35064 0.43893 0.72389 0.0
C375 C 0.33936 0.42737 0.71078 0.0
C376 C 0.32782 0.41282 0.71691 0.0
C377 C 0.32768 0.40995 0.73611 0.0
C378 C 0.33926 0.42187 0.74852 0.0
H379 H 0.35948 0.45008 0.71908 0.0
O380 O 0.33242 0.48686 0.75237 0.0
O381 O 0.34661 0.46577 0.76564 0.0
O382 O 0.37161 0.49188 0.74918 0.0
O383 O 0.3793 0.46391 0.74659 0.0
C384 C 0.31628 0.3959 0.74344 0.0
C385 C 0.31634 0.39425 0.76298 0.0
H386 H 0.31953 0.3959 0.80133 0.0
H387 H 0.34011 0.41902 0.82108 0.0
H388 H 0.33953 0.42969 0.69599 0.0
H389 H 0.31904 0.40402 0.70677 0.0
H390 H 0.30718 0.38646 0.73419 0.0
H391 H 0.30728 0.38357 0.76846 0.0
Mn392 Mn 0.72222 0.36129 0.52192 0.0
Mn393 Mn 0.71457 0.36851 0.47603 0.0
C394 C 0.70493 0.33963 0.50209 0.0
C395 C 0.74011 0.35065 0.5463 0.0
C396 C 0.69498 0.38588 0.50633 0.0
O397 O 0.74195 0.38184 0.51789 0.0
O398 O 0.73654 0.38485 0.48682 0.0
C399 C 0.74796 0.35555 0.46251 0.0
N400 N 0.72928 0.35444 0.46199 0.0
C401 C 0.72568 0.32989 0.43895 0.0
C402 C 0.74488 0.33085 0.43915 0.0
C403 C 0.75606 0.34373 0.45099 0.0
C404 C 0.71839 0.34213 0.45061 0.0
H405 H 0.75661 0.36533 0.47169 0.0
C406 C 0.74577 0.38912 0.50261 0.0
O407 O 0.7289 0.36233 0.5495 0.0
O408 O 0.74123 0.34561 0.52899 0.0
N409 N 0.69392 0.35322 0.46405 0.0
C410 C 0.67569 0.35335 0.46634 0.0
C411 C 0.66265 0.34096 0.45587 0.0
C412 C 0.66849 0.32855 0.44318 0.0
C413 C 0.68732 0.3287 0.44101 0.0
C414 C 0.69966 0.34152 0.45165 0.0
H415 H 0.67113 0.36274 0.47621 0.0
O416 O 0.70304 0.33979 0.51994 0.0
O417 O 0.71661 0.3523 0.49652 0.0
O418 O 0.70254 0.37843 0.52009 0.0
O419 O 0.69852 0.38315 0.48934 0.0
C420 C 0.69435 0.3164 0.429 0.0
C421 C 0.71351 0.31699 0.42797 0.0
H422 H 0.75118 0.32165 0.4304 0.0
H423 H 0.77088 0.34449 0.45129 0.0
H424 H 0.64815 0.34087 0.45768 0.0
H425 H 0.65842 0.31885 0.4353 0.0
H426 H 0.68514 0.30627 0.42068 0.0
H427 H 0.71875 0.30731 0.41886 0.0
Mn428 Mn 0.63549 0.00475 0.79178 0.0
Mn429 Mn 0.62574 0.04762 0.79295 0.0
C430 C 0.65474 0.0268 0.77902 0.0
C431 C 0.64906 0.98174 0.80618 0.0
C432 C 0.60636 0.01876 0.76522 0.0
O433 O 0.61653 0.00461 0.81101 0.0
O434 O 0.61217 0.03379 0.8118 0.0
C435 C 0.64366 0.05894 0.83057 0.0
N436 N 0.6418 0.06135 0.81182 0.0
C437 C 0.66462 0.08735 0.81486 0.0
C438 C 0.66669 0.08523 0.83422 0.0
C439 C 0.6562 0.07093 0.84209 0.0
C440 C 0.65189 0.07499 0.80409 0.0
H441 H 0.63565 0.04794 0.83666 0.0
C442 C 0.60908 0.01779 0.81741 0.0
O443 O 0.63575 0.97826 0.79309 0.0
O444 O 0.65419 0.9985 0.81105 0.0
N445 N 0.63782 0.06276 0.77555 0.0
C446 C 0.63459 0.06259 0.75658 0.0
C447 C 0.64417 0.07587 0.74649 0.0
C448 C 0.65681 0.08929 0.75603 0.0
C449 C 0.65968 0.08936 0.77558 0.0
C450 C 0.64962 0.07587 0.7849 0.0
H451 H 0.62484 0.05235 0.74917 0.0
O452 O 0.65499 0.01003 0.77417 0.0
O453 O 0.64351 0.03019 0.79152 0.0
O454 O 0.61537 0.00607 0.77055 0.0
O455 O 0.60899 0.03459 0.77288 0.0
C456 C 0.67235 0.10212 0.78618 0.0
C457 C 0.67486 0.10108 0.80579 0.0
H458 H 0.67638 0.09441 0.84315 0.0
H459 H 0.65779 0.06916 0.85701 0.0
H460 H 0.64186 0.07573 0.73141 0.0
H461 H 0.66429 0.09942 0.74819 0.0
H462 H 0.68041 0.11264 0.77935 0.0
H463 H 0.68481 0.11083 0.81376 0.0
Mn464 Mn 0.00323 0.25977 0.91446 0.0
Mn465 Mn 0.95939 0.24741 0.92415 0.0
C466 C 0.98236 0.24451 0.89193 0.0
C467 C 0.02582 0.28044 0.90357 0.0
C468 C 0.99134 0.22823 0.93849 0.0
O469 O 0.00057 0.27576 0.93741 0.0
O470 O 0.97062 0.26758 0.94167 0.0
C471 C 0.94324 0.28031 0.91386 0.0
N472 N 0.94347 0.26225 0.91158 0.0
C473 C 0.9177 0.25963 0.88844 0.0
C474 C 0.91712 0.27818 0.89061 0.0
C475 C 0.92997 0.28856 0.90335 0.0
C476 C 0.93119 0.25214 0.89934 0.0
H477 H 0.95311 0.28835 0.92361 0.0
C478 C 0.98608 0.27733 0.94584 0.0
O479 O 0.03006 0.26807 0.91471 0.0
O480 O 0.00845 0.28118 0.89934 0.0
N481 N 0.94699 0.22825 0.90784 0.0
C482 C 0.95016 0.21076 0.90653 0.0
C483 C 0.93892 0.19869 0.89388 0.0
C484 C 0.92449 0.20469 0.88281 0.0
C485 C 0.92143 0.22272 0.8845 0.0
C486 C 0.93303 0.23412 0.89739 0.0
H487 H 0.96125 0.20607 0.91497 0.0
O488 O 0.99988 0.24415 0.89092 0.0
O489 O 0.97768 0.25358 0.90619 0.0
O490 O 0.0037 0.23777 0.93042 0.0
O491 O 0.97448 0.23098 0.93738 0.0
C492 C 0.9075 0.2299 0.87367 0.0
C493 C 0.90565 0.24834 0.87563 0.0
H494 H 0.90697 0.28461 0.88247 0.0
H495 H 0.92967 0.3029 0.90505 0.0
H496 H 0.9414 0.1848 0.89263 0.0
H497 H 0.91594 0.19537 0.87298 0.0
H498 H 0.89833 0.22141 0.86358 0.0
H499 H 0.89507 0.25375 0.86701 0.0
Mn500 Mn 0.50389 0.752 0.39717 0.0
Mn501 Mn 0.46006 0.74113 0.40781 0.0
C502 C 0.48246 0.73616 0.3755 0.0
C503 C 0.52672 0.7719 0.38558 0.0
C504 C 0.49167 0.72169 0.42257 0.0
O505 O 0.5019 0.76897 0.41953 0.0
O506 O 0.47197 0.76173 0.42438 0.0
C507 C 0.4448 0.77409 0.39611 0.0
N508 N 0.44445 0.75591 0.3947 0.0
C509 C 0.41838 0.75305 0.3719 0.0
C510 C 0.4184 0.77173 0.37319 0.0
C511 C 0.4317 0.78229 0.38531 0.0
C512 C 0.43176 0.74563 0.38302 0.0
H513 H 0.45502 0.78227 0.40538 0.0
C514 C 0.48763 0.77125 0.42804 0.0
O515 O 0.53077 0.75977 0.39709 0.0
O516 O 0.5094 0.77272 0.38114 0.0
N517 N 0.44689 0.72161 0.39253 0.0
C518 C 0.4493 0.70389 0.39225 0.0
C519 C 0.43739 0.69156 0.38048 0.0
C520 C 0.42308 0.69753 0.36921 0.0
C521 C 0.42077 0.71579 0.36986 0.0
C522 C 0.43299 0.72745 0.38195 0.0
H523 H 0.46027 0.69922 0.40088 0.0
O524 O 0.4999 0.73549 0.37423 0.0
O525 O 0.47818 0.746 0.38938 0.0
O526 O 0.5041 0.73063 0.41404 0.0
O527 O 0.47492 0.72485 0.42155 0.0
C528 C 0.40697 0.72292 0.3588 0.0
C529 C 0.4058 0.74154 0.3598 0.0
H530 H 0.40836 0.77811 0.36484 0.0
H531 H 0.43186 0.79672 0.38632 0.0
H532 H 0.43928 0.67748 0.38004 0.0
H533 H 0.41401 0.68799 0.36004 0.0
H534 H 0.39736 0.71424 0.34929 0.0
H535 H 0.3953 0.74689 0.35103 0.0
Mn536 Mn 0.02373 0.77175 0.65263 0.0
Mn537 Mn 0.99919 0.73252 0.66178 0.0
C538 C 0.02755 0.74589 0.63577 0.0
C539 C 0.02565 0.79854 0.63715 0.0
C540 C 0.03282 0.74959 0.68618 0.0
O541 O 0.00391 0.7795 0.66828 0.0
O542 O 0.98697 0.75287 0.67137 0.0
C543 C 0.96576 0.73525 0.63686 0.0
N544 N 0.98 0.72611 0.64238 0.0
C545 C 0.969 0.70156 0.62032 0.0
C546 C 0.95414 0.71065 0.61446 0.0
C547 C 0.95257 0.72761 0.62271 0.0
C548 C 0.98177 0.7099 0.63439 0.0
H549 H 0.96447 0.74824 0.64323 0.0
C550 C 0.99003 0.76997 0.67395 0.0
O551 O 0.03565 0.79705 0.65261 0.0
O552 O 0.01445 0.78456 0.63087 0.0
N553 N 0.00909 0.71149 0.65337 0.0
C554 C 0.02463 0.70484 0.66008 0.0
C555 C 0.02853 0.68818 0.65292 0.0
C556 C 0.01625 0.67838 0.63922 0.0
C557 C 0.00019 0.68535 0.63278 0.0
C558 C 0.99709 0.70207 0.64034 0.0
H559 H 0.03401 0.71222 0.67076 0.0
O560 O 0.03996 0.7598 0.63638 0.0
O561 O 0.01297 0.7477 0.6446 0.0
O562 O 0.03686 0.76295 0.6761 0.0
O563 O 0.01885 0.7378 0.68227 0.0
C564 C 0.98719 0.67644 0.61906 0.0
C565 C 0.9717 0.68461 0.6127 0.0
H566 H 0.94392 0.70479 0.60358 0.0
H567 H 0.94118 0.73474 0.61822 0.0
H568 H 0.04094 0.68287 0.65799 0.0
H569 H 0.01932 0.66555 0.6337 0.0
H570 H 0.98909 0.66338 0.61313 0.0
H571 H 0.96198 0.67775 0.6019 0.0
Mn572 Mn 0.50633 0.26423 0.15856 0.0
Mn573 Mn 0.47678 0.22894 0.16976 0.0
C574 C 0.50517 0.23711 0.14207 0.0
C575 C 0.51201 0.29052 0.14264 0.0
C576 C 0.51286 0.24188 0.1925 0.0
O577 O 0.48922 0.27556 0.17519 0.0
O578 O 0.46828 0.25166 0.17875 0.0
C579 C 0.44422 0.23546 0.1453 0.0
N580 N 0.45676 0.22442 0.15094 0.0
C581 C 0.44217 0.20052 0.12966 0.0
C582 C 0.429 0.21158 0.12371 0.0
C583 C 0.43008 0.22916 0.13151 0.0
C584 C 0.45597 0.20757 0.14338 0.0
H585 H 0.44501 0.24897 0.15129 0.0
C586 C 0.47424 0.2684 0.18113 0.0
O587 O 0.52213 0.28757 0.15757 0.0
O588 O 0.49843 0.27831 0.13711 0.0
N589 N 0.48301 0.20593 0.162 0.0
C590 C 0.49707 0.19716 0.16891 0.0
C591 C 0.49819 0.17952 0.1623 0.0
C592 C 0.48469 0.17097 0.14893 0.0
C593 C 0.47015 0.18013 0.14232 0.0
C594 C 0.46975 0.1977 0.14941 0.0
H595 H 0.50739 0.20359 0.17931 0.0
O596 O 0.51926 0.24926 0.14165 0.0
O597 O 0.4918 0.24145 0.15157 0.0
O598 O 0.51865 0.25392 0.18153 0.0
O599 O 0.49718 0.23231 0.18972 0.0
C600 C 0.4561 0.17259 0.12887 0.0
C601 C 0.44221 0.18282 0.12243 0.0
H602 H 0.41807 0.20676 0.11309 0.0
H603 H 0.42003 0.2378 0.12693 0.0
H604 H 0.50943 0.17252 0.16752 0.0
H605 H 0.48566 0.1574 0.14379 0.0
H606 H 0.45597 0.15899 0.12324 0.0
H607 H 0.43165 0.17696 0.11188 0.0
C608 C 0.1894 0.71146 0.90885 0.0
C609 C 0.20373 0.70109 0.90616 0.0
C610 C 0.19328 0.72953 0.91488 0.0
C611 C 0.2307 0.76143 0.93925 0.0
H612 H 0.19942 0.79714 0.92365 0.0
C613 C 0.24822 0.83574 0.96296 0.0
C614 C 0.23397 0.84355 0.97075 0.0
C615 C 0.24456 0.81928 0.95291 0.0
C616 C 0.20822 0.78726 0.92812 0.0
H617 H 0.23331 0.70144 0.90728 0.0
H618 H 0.24016 0.73309 0.91724 0.0
H619 H 0.19323 0.76655 0.90976 0.0
H620 H 0.20489 0.84032 0.97476 0.0
H621 H 0.19832 0.81144 0.95685 0.0
H622 H 0.24572 0.78216 0.95751 0.0
C623 C 0.2259 0.72726 0.91513 0.0
C624 C 0.20466 0.76974 0.92025 0.0
C625 C 0.22201 0.70915 0.90933 0.0
C626 C 0.21598 0.83465 0.96847 0.0
C627 C 0.21225 0.81824 0.95821 0.0
C628 C 0.23435 0.77895 0.94694 0.0
C629 C 0.2116 0.73764 0.91825 0.0
C630 C 0.21578 0.75655 0.92584 0.0
C631 C 0.22658 0.81026 0.95061 0.0
C632 C 0.22308 0.79199 0.94158 0.0
H633 H 0.17519 0.70545 0.90703 0.0
H634 H 0.18191 0.73696 0.91749 0.0
H635 H 0.23932 0.75161 0.94423 0.0
H636 H 0.26229 0.84217 0.96505 0.0
H637 H 0.25585 0.81346 0.94716 0.0
C638 C 0.01972 0.52788 0.46634 0.0
C639 C 0.00087 0.52427 0.46071 0.0
C640 C 0.03283 0.52709 0.45326 0.0
C641 C 0.05609 0.53651 0.42097 0.0
H642 H 0.04982 0.50022 0.38032 0.0
C643 C 0.09722 0.54379 0.35594 0.0
C644 C 0.10378 0.52844 0.34843 0.0
C645 C 0.08518 0.54239 0.37013 0.0
C646 C 0.05188 0.51035 0.39169 0.0
H647 H 0.98097 0.51638 0.4371 0.0
H648 H 0.00379 0.51521 0.41425 0.0
H649 H 0.02814 0.49874 0.40455 0.0
H650 H 0.10274 0.49952 0.35007 0.0
H651 H 0.0818 0.49715 0.37496 0.0
H652 H 0.07991 0.54802 0.40824 0.0
C653 C 0.0085 0.51852 0.42877 0.0
C654 C 0.03934 0.50961 0.40546 0.0
C655 C 0.99541 0.51927 0.44186 0.0
C656 C 0.09794 0.51163 0.35547 0.0
C657 C 0.08586 0.51025 0.36968 0.0
C658 C 0.06862 0.53725 0.40721 0.0
C659 C 0.02736 0.52262 0.43428 0.0
C660 C 0.0412 0.52278 0.42017 0.0
C661 C 0.07939 0.52563 0.37721 0.0
C662 C 0.06655 0.52429 0.3923 0.0
H663 H 0.0244 0.53109 0.48086 0.0
H664 H 0.04727 0.52993 0.45804 0.0
H665 H 0.05785 0.54697 0.43199 0.0
H666 H 0.10135 0.55696 0.35089 0.0
H667 H 0.08022 0.55447 0.37539 0.0
C668 C 0.84636 0.80216 0.89305 0.0
C669 C 0.83429 0.80774 0.87892 0.0
C670 C 0.84064 0.78782 0.904 0.0
C671 C 0.79868 0.76051 0.91787 0.0
H672 H 0.83228 0.726 0.93086 0.0
C673 C 0.77342 0.69245 0.9462 0.0
C674 C 0.78325 0.68692 0.96212 0.0
C675 C 0.78058 0.7071 0.93651 0.0
C676 C 0.82283 0.73564 0.9275 0.0
H677 H 0.807 0.80218 0.86471 0.0
H678 H 0.79698 0.7772 0.88372 0.0
H679 H 0.84272 0.752 0.91317 0.0
H680 H 0.80879 0.69213 0.9798 0.0
H681 H 0.8214 0.71781 0.96264 0.0
H682 H 0.77871 0.74398 0.93188 0.0
C683 C 0.81071 0.78422 0.88676 0.0
C684 C 0.82879 0.75055 0.9174 0.0
C685 C 0.81641 0.79862 0.87589 0.0
C686 C 0.80083 0.69603 0.96763 0.0
C687 C 0.80807 0.71071 0.9578 0.0
C688 C 0.79271 0.74557 0.92783 0.0
C689 C 0.82276 0.77862 0.90095 0.0
C690 C 0.81672 0.76309 0.91231 0.0
C691 C 0.79781 0.71661 0.94238 0.0
C692 C 0.80464 0.73287 0.93259 0.0
H693 H 0.86025 0.80893 0.8957 0.0
H694 H 0.85021 0.78404 0.91495 0.0
H695 H 0.78914 0.77007 0.91458 0.0
H696 H 0.75993 0.68569 0.94135 0.0
H697 H 0.77253 0.71108 0.92444 0.0
C698 C 0.98441 0.99588 0.42667 0.0
C699 C 0.98943 0.01264 0.43623 0.0
C700 C 0.9722 0.99426 0.41061 0.0
C701 C 0.93667 0.01653 0.38468 0.0
H702 H 0.95006 0.98945 0.34179 0.0
C703 C 0.8978 0.01721 0.31178 0.0
C704 C 0.89392 0.00071 0.30146 0.0
C705 C 0.90972 0.01885 0.32806 0.0
C706 C 0.946 0.99689 0.35369 0.0
H707 H 0.98504 0.04071 0.43679 0.0
H708 H 0.96374 0.03784 0.4088 0.0
H709 H 0.96947 0.99144 0.37107 0.0
H710 H 0.89983 0.97306 0.30014 0.0
H711 H 0.92036 0.9759 0.32856 0.0
H712 H 0.91313 0.0219 0.36737 0.0
C713 C 0.96921 0.02596 0.41375 0.0
C714 C 0.95712 0.99801 0.37047 0.0
C715 C 0.98149 0.02761 0.42975 0.0
C716 C 0.90255 0.98601 0.30764 0.0
C717 C 0.91441 0.98765 0.32393 0.0
C718 C 0.9255 0.01535 0.36791 0.0
C719 C 0.96466 0.00933 0.40384 0.0
C720 C 0.95258 0.00785 0.38615 0.0
C721 C 0.918 0.00404 0.33445 0.0
C722 C 0.93004 0.00552 0.35221 0.0
H723 H 0.99024 0.98407 0.43132 0.0
H724 H 0.96875 0.98121 0.40343 0.0
H725 H 0.93271 0.02405 0.39659 0.0
H726 H 0.89147 0.02883 0.30743 0.0
H727 H 0.91243 0.03175 0.33566 0.0
C728 C 0.1873 0.26554 0.6338 0.0
C729 C 0.17534 0.27742 0.62678 0.0
C730 C 0.19524 0.25434 0.62161 0.0
C731 C 0.18835 0.23289 0.57451 0.0
H732 H 0.24057 0.22881 0.58059 0.0
C733 C 0.22357 0.19567 0.51881 0.0
C734 C 0.23713 0.185 0.52484 0.0
C735 C 0.21667 0.20722 0.53145 0.0
C736 C 0.22592 0.22959 0.57884 0.0
H737 H 0.16232 0.28682 0.60147 0.0
H738 H 0.17604 0.2671 0.58022 0.0
H739 H 0.22709 0.24817 0.60246 0.0
H740 H 0.25424 0.17827 0.5489 0.0
H741 H 0.24187 0.19814 0.57109 0.0
H742 H 0.18697 0.21414 0.55117 0.0
C743 C 0.17924 0.26647 0.59515 0.0
C744 C 0.21823 0.24072 0.59134 0.0
C745 C 0.17145 0.27781 0.60732 0.0
C746 C 0.24386 0.18637 0.54378 0.0
C747 C 0.23681 0.19782 0.55649 0.0
C748 C 0.19598 0.22165 0.56213 0.0
C749 C 0.19123 0.25464 0.60217 0.0
C750 C 0.19939 0.24257 0.58921 0.0
C751 C 0.22299 0.20826 0.5505 0.0
C752 C 0.2149 0.21997 0.56402 0.0
H753 H 0.1906 0.26496 0.64873 0.0
H754 H 0.20432 0.24524 0.6274 0.0
H755 H 0.17373 0.23384 0.57271 0.0
H756 H 0.2182 0.19511 0.50429 0.0
H757 H 0.20637 0.21535 0.52623 0.0
C758 C 0.47495 0.54558 0.62248 0.0
C759 C 0.483 0.53375 0.61091 0.0
C760 C 0.46515 0.53923 0.63733 0.0
C761 C 0.43993 0.49811 0.65379 0.0
H762 H 0.44284 0.52621 0.70062 0.0
C763 C 0.40194 0.47323 0.71763 0.0
C764 C 0.39303 0.48589 0.72728 0.0
C765 C 0.41372 0.47858 0.70388 0.0
C766 C 0.44177 0.51828 0.68757 0.0
H767 H 0.48738 0.50595 0.60611 0.0
H768 H 0.47039 0.49486 0.63222 0.0
H769 H 0.46242 0.53629 0.67612 0.0
H770 H 0.38961 0.51417 0.72993 0.0
H771 H 0.41004 0.52342 0.70591 0.0
H772 H 0.41919 0.48016 0.66524 0.0
C773 C 0.47147 0.50905 0.62962 0.0
C774 C 0.45299 0.52405 0.67353 0.0
C775 C 0.48129 0.51542 0.61473 0.0
C776 C 0.39622 0.50403 0.72283 0.0
C777 C 0.40805 0.50937 0.70914 0.0
C778 C 0.42873 0.49232 0.66786 0.0
C779 C 0.46318 0.52088 0.64102 0.0
C780 C 0.45207 0.51414 0.65638 0.0
C781 C 0.41694 0.49671 0.6995 0.0
C782 C 0.42938 0.50244 0.68484 0.0
H783 H 0.47595 0.55978 0.61992 0.0
H784 H 0.45874 0.54868 0.64564 0.0
H785 H 0.43869 0.49028 0.64066 0.0
H786 H 0.39982 0.45914 0.72066 0.0
H787 H 0.42048 0.46852 0.69683 0.0
C788 C 0.80785 0.24941 0.65352 0.0
C789 C 0.80115 0.24941 0.67137 0.0
C790 C 0.8031 0.26194 0.64066 0.0
C791 C 0.7843 0.30535 0.6361 0.0
H792 H 0.77021 0.28697 0.58518 0.0
C793 C 0.74586 0.34439 0.58025 0.0
C794 C 0.75016 0.34226 0.5616 0.0
C795 C 0.75379 0.33456 0.59424 0.0
C796 C 0.77438 0.29243 0.59925 0.0
H797 H 0.78456 0.26287 0.68987 0.0
H798 H 0.77612 0.28462 0.66733 0.0
H799 H 0.78084 0.26701 0.60838 0.0
H800 H 0.76697 0.32901 0.54317 0.0
H801 H 0.78102 0.31222 0.56753 0.0
H802 H 0.77759 0.33078 0.62689 0.0
C803 C 0.7852 0.27504 0.66335 0.0
C804 C 0.78047 0.28095 0.61258 0.0
C805 C 0.78995 0.2625 0.67623 0.0
C806 C 0.76321 0.33082 0.55738 0.0
C807 C 0.77118 0.32109 0.57133 0.0
C808 C 0.7782 0.31688 0.62272 0.0
C809 C 0.79152 0.27475 0.64533 0.0
C810 C 0.78548 0.28724 0.63117 0.0
C811 C 0.76622 0.32247 0.58983 0.0
C812 C 0.77317 0.31053 0.60412 0.0
H813 H 0.8166 0.2396 0.64937 0.0
H814 H 0.80844 0.26153 0.627 0.0
H815 H 0.78823 0.31065 0.65027 0.0
H816 H 0.73582 0.3531 0.58392 0.0
H817 H 0.74958 0.33588 0.60833 0.0
C818 C 0.50233 0.01108 0.62172 0.0
C819 C 0.50221 0.99497 0.61107 0.0
C820 C 0.51202 0.01363 0.63937 0.0
C821 C 0.5329 0.98901 0.67768 0.0
H822 H 0.5635 0.03435 0.68961 0.0
C823 C 0.59009 0.99888 0.73852 0.0
C824 C 0.59254 0.01537 0.74891 0.0
C825 C 0.57776 0.99625 0.72253 0.0
C826 C 0.55483 0.02169 0.68662 0.0
H827 H 0.51199 0.9688 0.61079 0.0
H828 H 0.52893 0.97334 0.64133 0.0
H829 H 0.54405 0.03025 0.66036 0.0
H830 H 0.58346 0.04182 0.75083 0.0
H831 H 0.56194 0.03711 0.72321 0.0
H832 H 0.54386 0.98038 0.70387 0.0
C833 C 0.52139 0.98393 0.63619 0.0
C834 C 0.54367 0.01936 0.66986 0.0
C835 C 0.51176 0.98139 0.61858 0.0
C836 C 0.58206 0.02897 0.74315 0.0
C837 C 0.56976 0.02633 0.72722 0.0
C838 C 0.54406 0.99134 0.69446 0.0
C839 C 0.52173 0.0001 0.64675 0.0
C840 C 0.5327 0.00294 0.66511 0.0
C841 C 0.56762 0.01003 0.71658 0.0
C842 C 0.55526 0.00766 0.69906 0.0
H843 H 0.49507 0.02178 0.61638 0.0
H844 H 0.51188 0.02619 0.64727 0.0
H845 H 0.52439 0.97628 0.67455 0.0
H846 H 0.59793 0.98812 0.7425 0.0
H847 H 0.57655 0.98358 0.71454 0.0
C848 C 0.87192 0.22836 0.7541 0.0
C849 C 0.8694 0.21132 0.74485 0.0
C850 C 0.88556 0.23248 0.76879 0.0
C851 C 0.92731 0.21717 0.79257 0.0
H852 H 0.91191 0.24249 0.83557 0.0
C853 C 0.96882 0.22358 0.86516 0.0
C854 C 0.96975 0.24014 0.87508 0.0
C855 C 0.95715 0.22001 0.84875 0.0
C856 C 0.9165 0.2355 0.82368 0.0
H857 H 0.87985 0.18553 0.74321 0.0
H858 H 0.90339 0.1926 0.769 0.0
H859 H 0.89118 0.23688 0.80746 0.0
H860 H 0.96063 0.26648 0.87506 0.0
H861 H 0.94037 0.26039 0.84649 0.0
H862 H 0.9526 0.21562 0.80904 0.0
C863 C 0.89498 0.20288 0.76479 0.0
C864 C 0.90464 0.23238 0.80747 0.0
C865 C 0.88141 0.1988 0.75002 0.0
C866 C 0.95956 0.25336 0.86798 0.0
C867 C 0.94801 0.24986 0.85161 0.0
C868 C 0.93918 0.22021 0.80888 0.0
C869 C 0.89692 0.21961 0.77465 0.0
C870 C 0.9099 0.22324 0.79167 0.0
C871 C 0.94653 0.23311 0.84186 0.0
C872 C 0.9339 0.22945 0.82461 0.0
H873 H 0.86302 0.23838 0.75036 0.0
H874 H 0.88696 0.24565 0.7758 0.0
H875 H 0.93187 0.21023 0.78059 0.0
H876 H 0.97689 0.21335 0.87026 0.0
H877 H 0.95626 0.20694 0.84161 0.0
C878 C 0.48582 0.91702 0.51026 0.0
C879 C 0.47248 0.91695 0.52335 0.0
C880 C 0.48798 0.90127 0.50008 0.0
C881 C 0.46406 0.85681 0.48423 0.0
H882 H 0.5132 0.84359 0.48095 0.0
C883 C 0.47458 0.78749 0.45399 0.0
C884 C 0.48847 0.78672 0.44163 0.0
C885 C 0.47363 0.80309 0.46486 0.0
C886 C 0.4994 0.84717 0.48156 0.0
H887 H 0.45064 0.9004 0.53563 0.0
H888 H 0.4543 0.873 0.51775 0.0
H889 H 0.50906 0.87186 0.49711 0.0
H890 H 0.51273 0.80155 0.4316 0.0
H891 H 0.5109 0.82893 0.45036 0.0
H892 H 0.45433 0.83238 0.4685 0.0
C893 C 0.46309 0.88523 0.51537 0.0
C894 C 0.49704 0.86336 0.49081 0.0
C895 C 0.46103 0.90092 0.52566 0.0
C896 C 0.50192 0.80165 0.44106 0.0
C897 C 0.50086 0.81737 0.45183 0.0
C898 C 0.46641 0.84071 0.4749 0.0
C899 C 0.47673 0.88518 0.50264 0.0
C900 C 0.47933 0.8683 0.49232 0.0
C901 C 0.48642 0.81841 0.46351 0.0
C902 C 0.4841 0.8356 0.47354 0.0
H903 H 0.49488 0.92914 0.50816 0.0
H904 H 0.49846 0.90167 0.4902 0.0
H905 H 0.45026 0.86038 0.48494 0.0
H906 H 0.46411 0.77615 0.45493 0.0
H907 H 0.46262 0.80324 0.47408 0.0
C908 C 0.11162 0.35059 0.78473 0.0
C909 C 0.12895 0.34525 0.78198 0.0
C910 C 0.10311 0.34663 0.80113 0.0
C911 C 0.10246 0.31382 0.83785 0.0
H912 H 0.07063 0.34462 0.86042 0.0
C913 C 0.05868 0.28943 0.89726 0.0
C914 C 0.04005 0.292 0.89456 0.0
C915 C 0.07174 0.29854 0.88665 0.0
C916 C 0.07946 0.33586 0.85426 0.0
H917 H 0.15135 0.33236 0.79474 0.0
H918 H 0.13657 0.32561 0.82344 0.0
H919 H 0.08974 0.35593 0.83593 0.0
H920 H 0.02068 0.3069 0.87939 0.0
H921 H 0.04336 0.32265 0.86083 0.0
H922 H 0.09185 0.29359 0.85573 0.0
C923 C 0.12942 0.33259 0.81276 0.0
C924 C 0.09039 0.34233 0.84022 0.0
C925 C 0.13792 0.33654 0.79634 0.0
C926 C 0.03492 0.3046 0.88179 0.0
C927 C 0.04797 0.31372 0.87121 0.0
C928 C 0.09157 0.30736 0.85188 0.0
C929 C 0.11174 0.33726 0.81518 0.0
C930 C 0.10174 0.33125 0.83158 0.0
C931 C 0.06644 0.31044 0.87315 0.0
C932 C 0.07966 0.31818 0.85999 0.0
H933 H 0.10432 0.35735 0.77397 0.0
H934 H 0.08941 0.35025 0.80241 0.0
H935 H 0.11082 0.30481 0.83133 0.0
H936 H 0.06309 0.27987 0.90706 0.0
H937 H 0.08592 0.29592 0.88867 0.0
C938 C 0.53858 0.59255 0.50834 0.0
C939 C 0.52348 0.58384 0.51679 0.0
C940 C 0.53642 0.60714 0.49707 0.0
C941 C 0.50079 0.62845 0.4698 0.0
H942 H 0.53553 0.67179 0.47668 0.0
C943 C 0.48304 0.69548 0.44221 0.0
C944 C 0.49663 0.70636 0.43359 0.0
C945 C 0.48738 0.68046 0.45169 0.0
C946 C 0.52583 0.65971 0.47443 0.0
H947 H 0.49426 0.58358 0.51985 0.0
H948 H 0.49058 0.60884 0.50041 0.0
H949 H 0.54139 0.64526 0.49387 0.0
H950 H 0.52561 0.71004 0.42857 0.0
H951 H 0.53313 0.68374 0.44513 0.0
H952 H 0.48512 0.64284 0.45057 0.0
C953 C 0.50404 0.60436 0.50228 0.0
C954 C 0.52921 0.64451 0.48424 0.0
C955 C 0.5062 0.58991 0.51356 0.0
C956 C 0.51477 0.70199 0.43503 0.0
C957 C 0.51912 0.68695 0.44459 0.0
C958 C 0.49743 0.64359 0.46002 0.0
C959 C 0.5191 0.61319 0.49392 0.0
C960 C 0.51654 0.62881 0.48228 0.0
C961 C 0.50542 0.67589 0.45284 0.0
C962 C 0.50973 0.65951 0.46245 0.0
H963 H 0.55208 0.58822 0.51056 0.0
H964 H 0.54826 0.61361 0.49072 0.0
H965 H 0.49095 0.61645 0.46768 0.0
H966 H 0.46893 0.69841 0.44147 0.0
H967 H 0.47657 0.67242 0.45819 0.0
C968 C 0.88453 0.82129 0.78355 0.0
C969 C 0.89395 0.83317 0.79765 0.0
C970 C 0.89373 0.81527 0.76863 0.0
C971 C 0.93347 0.82635 0.74158 0.0
H972 H 0.93068 0.77497 0.73158 0.0
C973 C 0.98333 0.79522 0.69511 0.0
C974 C 0.97728 0.77891 0.68507 0.0
C975 C 0.97198 0.80266 0.70727 0.0
C976 C 0.93134 0.78938 0.73384 0.0
H977 H 0.92027 0.84839 0.80694 0.0
H978 H 0.93626 0.83809 0.78064 0.0
H979 H 0.91293 0.78648 0.75563 0.0
H980 H 0.95418 0.75813 0.67904 0.0
H981 H 0.93409 0.77144 0.6996 0.0
H982 H 0.95162 0.82937 0.71965 0.0
C983 C 0.92178 0.83339 0.78124 0.0
C984 C 0.92123 0.79593 0.74773 0.0
C985 C 0.91266 0.83918 0.79633 0.0
C986 C 0.95932 0.77061 0.68677 0.0
C987 C 0.94785 0.77819 0.69869 0.0
C988 C 0.94338 0.81981 0.72747 0.0
C989 C 0.91244 0.82126 0.76735 0.0
C990 C 0.92237 0.81446 0.75188 0.0
C991 C 0.95417 0.79409 0.70945 0.0
C992 C 0.94265 0.80121 0.72356 0.0
H993 H 0.8701 0.81641 0.7842 0.0
H994 H 0.88622 0.80597 0.75804 0.0
H995 H 0.93442 0.84071 0.7444 0.0
H996 H 0.99715 0.80188 0.69421 0.0
H997 H 0.97748 0.81476 0.71548 0.0
C998 C 0.03204 0.92365 0.53236 0.0
C999 C 0.03649 0.94095 0.54081 0.0
C1000 C 0.0312 0.90855 0.54322 0.0
C1001 C 0.02793 0.8946 0.59232 0.0
H1002 H 0.04295 0.85059 0.57197 0.0
C1003 C 0.03606 0.83144 0.6353 0.0
C1004 C 0.02715 0.81523 0.6268 0.0
C1005 C 0.03751 0.84714 0.62528 0.0
C1006 C 0.03865 0.86279 0.57779 0.0
H1007 H 0.04377 0.956 0.56724 0.0
H1008 H 0.04296 0.92967 0.58613 0.0
H1009 H 0.04528 0.87734 0.55367 0.0
H1010 H 0.01287 0.80269 0.60118 0.0
H1011 H 0.01573 0.82999 0.58365 0.0
H1012 H 0.02174 0.87995 0.61665 0.0
C1013 C 0.0396 0.92772 0.57118 0.0
C1014 C 0.03987 0.87811 0.56727 0.0
C1015 C 0.04017 0.94284 0.56033 0.0
C1016 C 0.01979 0.81499 0.60812 0.0
C1017 C 0.0215 0.83057 0.59805 0.0
C1018 C 0.02697 0.87932 0.60294 0.0
C1019 C 0.03507 0.91035 0.56277 0.0
C1020 C 0.03433 0.89419 0.57429 0.0
C1021 C 0.03036 0.84679 0.60652 0.0
C1022 C 0.03214 0.86323 0.59569 0.0
H1023 H 0.02899 0.92177 0.51735 0.0
H1024 H 0.02728 0.89546 0.53624 0.0
H1025 H 0.02326 0.90661 0.59811 0.0
H1026 H 0.04184 0.83203 0.64969 0.0
H1027 H 0.04447 0.85948 0.63209 0.0
C1028 C 0.14475 0.73554 0.81968 0.0
C1029 C 0.13938 0.72116 0.8309 0.0
C1030 C 0.13306 0.73967 0.80457 0.0
C1031 C 0.09496 0.71853 0.77197 0.0
H1032 H 0.08788 0.76736 0.76032 0.0
C1033 C 0.04031 0.73339 0.71515 0.0
C1034 C 0.04497 0.74737 0.70319 0.0
C1035 C 0.05183 0.73093 0.73096 0.0
C1036 C 0.08989 0.75366 0.76327 0.0
H1037 H 0.11726 0.70023 0.83542 0.0
H1038 H 0.09692 0.7075 0.80918 0.0
H1039 H 0.10789 0.76193 0.78779 0.0
H1040 H 0.06545 0.76984 0.69867 0.0
H1041 H 0.08571 0.76535 0.72619 0.0
H1042 H 0.07718 0.7102 0.74746 0.0
C1043 C 0.11026 0.71542 0.81189 0.0
C1044 C 0.10132 0.75056 0.77901 0.0
C1045 C 0.12189 0.71133 0.827 0.0
C1046 C 0.0614 0.75895 0.70757 0.0
C1047 C 0.07297 0.75644 0.72341 0.0
C1048 C 0.08362 0.72162 0.75624 0.0
C1049 C 0.11581 0.72945 0.80034 0.0
C1050 C 0.10387 0.73294 0.78359 0.0
C1051 C 0.06837 0.74232 0.73521 0.0
C1052 C 0.08083 0.73921 0.75176 0.0
H1053 H 0.15812 0.74339 0.82232 0.0
H1054 H 0.13776 0.7505 0.79586 0.0
H1055 H 0.09695 0.70482 0.7749 0.0
H1056 H 0.02773 0.72426 0.71232 0.0
H1057 H 0.0477 0.72012 0.73993 0.0
C1058 C 0.03029 0.60691 0.54382 0.0
C1059 C 0.03625 0.60838 0.52569 0.0
C1060 C 0.03112 0.62209 0.5558 0.0
C1061 C 0.05218 0.66848 0.56578 0.0
H1062 H 0.00594 0.67427 0.58659 0.0
C1063 C 0.04533 0.72229 0.62393 0.0
C1064 C 0.02911 0.73042 0.62314 0.0
C1065 C 0.04708 0.70793 0.6115 0.0
C1066 C 0.01895 0.67288 0.58096 0.0
H1067 H 0.0488 0.6268 0.50637 0.0
H1068 H 0.05043 0.65339 0.52753 0.0
H1069 H 0.00829 0.64786 0.56673 0.0
H1070 H 0.00276 0.73135 0.60784 0.0
H1071 H 0.0057 0.70625 0.58602 0.0
H1072 H 0.06283 0.69356 0.5801 0.0
C1073 C 0.04501 0.64044 0.53232 0.0
C1074 C 0.02033 0.65769 0.56965 0.0
C1075 C 0.04402 0.62524 0.52021 0.0
C1076 C 0.01507 0.72472 0.60913 0.0
C1077 C 0.01682 0.71043 0.59664 0.0
C1078 C 0.05087 0.68361 0.57737 0.0
C1079 C 0.0381 0.63905 0.55002 0.0
C1080 C 0.03695 0.65529 0.562 0.0
C1081 C 0.03277 0.70173 0.59781 0.0
C1082 C 0.03423 0.68594 0.58514 0.0
H1083 H 0.02435 0.59413 0.54857 0.0
H1084 H 0.02594 0.62063 0.56949 0.0
H1085 H 0.06514 0.66694 0.56 0.0
H1086 H 0.05649 0.72681 0.63441 0.0
H1087 H 0.05948 0.70146 0.61287 0.0
C1088 C 0.70056 0.88185 0.17706 0.0
C1089 C 0.69363 0.86859 0.18889 0.0
C1090 C 0.71479 0.89514 0.18363 0.0
C1091 C 0.75288 0.90459 0.22059 0.0
H1092 H 0.75324 0.95354 0.20507 0.0
C1093 C 0.80638 0.96251 0.25212 0.0
C1094 C 0.81379 0.97492 0.23973 0.0
C1095 C 0.79172 0.94953 0.24599 0.0
C1096 C 0.75345 0.93988 0.20935 0.0
H1097 H 0.69666 0.85865 0.2168 0.0
H1098 H 0.72099 0.8822 0.22851 0.0
H1099 H 0.72726 0.93117 0.1947 0.0
H1100 H 0.81127 0.98436 0.21166 0.0
H1101 H 0.78574 0.9614 0.20066 0.0
H1102 H 0.77895 0.91337 0.23542 0.0
C1103 C 0.71545 0.88228 0.21409 0.0
C1104 C 0.73854 0.92706 0.20343 0.0
C1105 C 0.70122 0.86895 0.20749 0.0
C1106 C 0.80594 0.97463 0.2213 0.0
C1107 C 0.79129 0.9616 0.2151 0.0
C1108 C 0.76774 0.91744 0.22659 0.0
C1109 C 0.72248 0.89547 0.2022 0.0
C1110 C 0.7381 0.90924 0.20892 0.0
C1111 C 0.78401 0.94889 0.22739 0.0
C1112 C 0.76823 0.93522 0.22097 0.0
H1113 H 0.69509 0.88188 0.1626 0.0
H1114 H 0.72005 0.90489 0.17399 0.0
H1115 H 0.75314 0.89093 0.22484 0.0
H1116 H 0.81183 0.96298 0.26662 0.0
H1117 H 0.78622 0.94019 0.25591 0.0
C1118 C 0.73161 0.09445 0.38347 0.0
C1119 C 0.72221 0.10812 0.37603 0.0
C1120 C 0.74606 0.08843 0.37441 0.0
C1121 C 0.76499 0.08775 0.32786 0.0
H1122 H 0.80528 0.0689 0.3555 0.0
C1123 C 0.82355 0.05937 0.29135 0.0
C1124 C 0.82588 0.04177 0.29615 0.0
C1125 C 0.81305 0.06964 0.30196 0.0
C1126 C 0.79412 0.07417 0.34763 0.0
H1127 H 0.72107 0.12672 0.35369 0.0
H1128 H 0.7467 0.1167 0.33823 0.0
H1129 H 0.783 0.0833 0.37246 0.0
H1130 H 0.81984 0.02142 0.31624 0.0
H1131 H 0.80182 0.0395 0.33494 0.0
H1132 H 0.77628 0.07866 0.30304 0.0
C1133 C 0.74257 0.11019 0.35074 0.0
C1134 C 0.78127 0.08232 0.35732 0.0
C1135 C 0.72793 0.11602 0.35966 0.0
C1136 C 0.81822 0.03493 0.31218 0.0
C1137 C 0.808 0.0453 0.32294 0.0
C1138 C 0.77799 0.07985 0.31819 0.0
C1139 C 0.75166 0.09611 0.35783 0.0
C1140 C 0.76631 0.0889 0.34756 0.0
C1141 C 0.80501 0.06261 0.31772 0.0
C1142 C 0.79248 0.07269 0.32799 0.0
H1143 H 0.72746 0.08803 0.39603 0.0
H1144 H 0.75246 0.07736 0.38015 0.0
H1145 H 0.75353 0.09235 0.31982 0.0
H1146 H 0.82928 0.06497 0.27904 0.0
H1147 H 0.81101 0.08299 0.2977 0.0
C1148 C 0.40824 0.02642 0.98374 0.0
C1149 C 0.42254 0.02588 0.99778 0.0
C1150 C 0.39168 0.01517 0.98407 0.0
C1151 C 0.37199 0.97303 0.00427 0.0
H1152 H 0.32561 0.98837 0.98603 0.0
C1153 C 0.30246 0.92903 0.00812 0.0
C1154 C 0.29105 0.92674 0.99133 0.0
C1155 C 0.31785 0.94204 0.00999 0.0
C1156 C 0.33848 0.98391 0.9911 0.0
H1157 H 0.43048 0.01354 0.02351 0.0
H1158 H 0.40141 0.9943 0.02443 0.0
H1159 H 0.35369 0.00957 0.98773 0.0
H1160 H 0.28662 0.93676 0.96356 0.0
H1161 H 0.31342 0.9596 0.96696 0.0
H1162 H 0.35668 0.94742 0.00779 0.0
C1163 C 0.40313 0.00305 0.01285 0.0
C1164 C 0.35459 0.99601 0.99201 0.0
C1165 C 0.41977 0.01417 0.0124 0.0
C1166 C 0.29512 0.93812 0.97666 0.0
C1167 C 0.31041 0.95127 0.97863 0.0
C1168 C 0.35586 0.96101 0.00355 0.0
C1169 C 0.38894 0.00324 0.99857 0.0
C1170 C 0.3716 0.99068 0.99844 0.0
C1171 C 0.32207 0.95318 0.99521 0.0
C1172 C 0.33898 0.96628 0.9968 0.0
H1173 H 0.40999 0.03524 0.97222 0.0
H1174 H 0.38121 0.01551 0.97267 0.0
H1175 H 0.38484 0.96831 0.00896 0.0
H1176 H 0.29978 0.92049 0.01971 0.0
H1177 H 0.32653 0.94334 0.02299 0.0
C1178 C 0.25547 0.38763 0.38964 0.0
C1179 C 0.25723 0.37309 0.37728 0.0
C1180 C 0.24185 0.39877 0.38591 0.0
C1181 C 0.1984 0.40298 0.3578 0.0
H1182 H 0.21664 0.45373 0.36155 0.0
C1183 C 0.15885 0.45765 0.32404 0.0
C1184 C 0.16111 0.47483 0.33297 0.0
C1185 C 0.16865 0.44416 0.33113 0.0
C1186 C 0.21114 0.43966 0.36075 0.0
H1187 H 0.2454 0.35827 0.35181 0.0
H1188 H 0.2216 0.37778 0.34529 0.0
H1189 H 0.23696 0.43199 0.37109 0.0
H1190 H 0.17435 0.49102 0.35698 0.0
H1191 H 0.19089 0.46744 0.36968 0.0
H1192 H 0.17253 0.41073 0.34735 0.0
C1193 C 0.23077 0.38052 0.35789 0.0
C1194 C 0.22285 0.42717 0.3662 0.0
C1195 C 0.24446 0.3694 0.36158 0.0
C1196 C 0.17251 0.47797 0.34965 0.0
C1197 C 0.1821 0.46447 0.35685 0.0
C1198 C 0.18658 0.41553 0.35246 0.0
C1199 C 0.22962 0.39559 0.36977 0.0
C1200 C 0.21667 0.40869 0.36471 0.0
C1201 C 0.18075 0.44756 0.34739 0.0
C1202 C 0.19284 0.43404 0.3538 0.0
H1203 H 0.26496 0.39079 0.40194 0.0
H1204 H 0.24112 0.4101 0.39549 0.0
H1205 H 0.19322 0.38882 0.35661 0.0
H1206 H 0.15018 0.45485 0.31112 0.0
H1207 H 0.16735 0.43136 0.32338 0.0
C1208 C 0.09962 0.03651 0.48529 0.0
C1209 C 0.09483 0.02234 0.49696 0.0
C1210 C 0.11763 0.04499 0.48606 0.0
C1211 C 0.1606 0.05338 0.5166 0.0
H1212 H 0.18036 0.06958 0.47071 0.0
C1213 C 0.22053 0.11014 0.51692 0.0
C1214 C 0.23152 0.11134 0.50178 0.0
C1215 C 0.2057 0.09663 0.51687 0.0
C1216 C 0.17525 0.06507 0.4837 0.0
H1217 H 0.10533 0.00593 0.51857 0.0
H1218 H 0.13697 0.0207 0.51977 0.0
H1219 H 0.15094 0.05098 0.46927 0.0
H1220 H 0.23732 0.09842 0.47583 0.0
H1221 H 0.21184 0.07428 0.47592 0.0
H1222 H 0.18503 0.06726 0.53103 0.0
C1223 C 0.12666 0.02533 0.51016 0.0
C1224 C 0.15821 0.05451 0.48286 0.0
C1225 C 0.10855 0.01683 0.50942 0.0
C1226 C 0.22848 0.09806 0.48728 0.0
C1227 C 0.21388 0.08427 0.48739 0.0
C1228 C 0.17772 0.06392 0.51744 0.0
C1229 C 0.13139 0.0395 0.49845 0.0
C1230 C 0.15044 0.04895 0.49932 0.0
C1231 C 0.20197 0.08363 0.50195 0.0
C1232 C 0.18503 0.07039 0.50102 0.0
H1233 H 0.08941 0.04119 0.47559 0.0
H1234 H 0.1207 0.0561 0.47712 0.0
H1235 H 0.15503 0.04929 0.52957 0.0
H1236 H 0.22299 0.12009 0.52845 0.0
H1237 H 0.1968 0.09685 0.52821 0.0
C1238 C 0.76896 0.13705 0.7165 0.0
C1239 C 0.77938 0.14839 0.73046 0.0
C1240 C 0.75497 0.12407 0.72126 0.0
C1241 C 0.74112 0.09732 0.7608 0.0
H1242 H 0.69355 0.08828 0.73259 0.0
C1243 C 0.68069 0.05099 0.7865 0.0
C1244 C 0.66893 0.04037 0.77306 0.0
C1245 C 0.69436 0.06381 0.78095 0.0
C1246 C 0.70685 0.09048 0.74046 0.0
H1247 H 0.78285 0.15537 0.76028 0.0
H1248 H 0.75849 0.1328 0.76849 0.0
H1249 H 0.71657 0.11188 0.72335 0.0
H1250 H 0.66305 0.03345 0.74351 0.0
H1251 H 0.687 0.05592 0.73364 0.0
H1252 H 0.73159 0.0759 0.7778 0.0
C1253 C 0.76129 0.13379 0.75392 0.0
C1254 C 0.72 0.10402 0.73519 0.0
C1255 C 0.77518 0.14679 0.74918 0.0
C1256 C 0.67169 0.04193 0.75404 0.0
C1257 C 0.68531 0.05482 0.74845 0.0
C1258 C 0.72804 0.08375 0.766 0.0
C1259 C 0.7512 0.12212 0.74006 0.0
C1260 C 0.73723 0.10765 0.74538 0.0
C1261 C 0.69666 0.06607 0.76184 0.0
C1262 C 0.71071 0.08022 0.75596 0.0
H1263 H 0.77185 0.13796 0.70195 0.0
H1264 H 0.74747 0.1152 0.71029 0.0
H1265 H 0.7544 0.09959 0.76872 0.0
H1266 H 0.67915 0.0495 0.80129 0.0
H1267 H 0.70278 0.07227 0.79165 0.0
C1268 C 0.41233 0.03789 0.55131 0.0
C1269 C 0.43014 0.04037 0.54512 0.0
C1270 C 0.40013 0.05049 0.54774 0.0
C1271 C 0.39036 0.0856 0.51541 0.0
H1272 H 0.35813 0.09847 0.55281 0.0
C1273 C 0.3236 0.11687 0.49755 0.0
C1274 C 0.31866 0.12995 0.51008 0.0
C1275 C 0.33901 0.10812 0.50186 0.0
C1276 C 0.36718 0.0952 0.54228 0.0
H1277 H 0.44914 0.05817 0.5305 0.0
H1278 H 0.42778 0.08016 0.52425 0.0
H1279 H 0.3816 0.07905 0.56085 0.0
H1280 H 0.32639 0.14457 0.53669 0.0
H1281 H 0.35338 0.12926 0.54424 0.0
H1282 H 0.37581 0.10163 0.49679 0.0
C1283 C 0.42325 0.06839 0.53177 0.0
C1284 C 0.38049 0.08391 0.54683 0.0
C1285 C 0.43551 0.05583 0.53543 0.0
C1286 C 0.32983 0.13454 0.52675 0.0
C1287 C 0.34521 0.12569 0.53113 0.0
C1288 C 0.37698 0.09682 0.51083 0.0
C1289 C 0.40539 0.06583 0.53783 0.0
C1290 C 0.39208 0.07879 0.53338 0.0
C1291 C 0.3498 0.11218 0.51886 0.0
C1292 C 0.36508 0.10157 0.52414 0.0
H1293 H 0.40775 0.02612 0.55881 0.0
H1294 H 0.38639 0.04799 0.5524 0.0
H1295 H 0.39898 0.08182 0.5047 0.0
H1296 H 0.31528 0.11302 0.48459 0.0
H1297 H 0.34205 0.09766 0.49219 0.0
C1298 C 0.59821 0.50078 0.55068 0.0
C1299 C 0.5828 0.50188 0.53811 0.0
C1300 C 0.61045 0.48837 0.54722 0.0
C1301 C 0.62771 0.46206 0.51003 0.0
H1302 H 0.64009 0.43037 0.54925 0.0
C1303 C 0.66915 0.40313 0.49585 0.0
C1304 C 0.68168 0.39865 0.51019 0.0
C1305 C 0.65696 0.41555 0.49934 0.0
C1306 C 0.63706 0.43928 0.53821 0.0
H1307 H 0.56836 0.49112 0.51186 0.0
H1308 H 0.59001 0.46972 0.50563 0.0
H1309 H 0.61972 0.45293 0.5551 0.0
H1310 H 0.69128 0.40385 0.53945 0.0
H1311 H 0.67053 0.42597 0.54538 0.0
H1312 H 0.64539 0.4489 0.49327 0.0
C1313 C 0.59251 0.47838 0.51821 0.0
C1314 C 0.62531 0.45216 0.54158 0.0
C1315 C 0.5801 0.49058 0.52182 0.0
C1316 C 0.68169 0.40687 0.52812 0.0
C1317 C 0.66969 0.41951 0.53154 0.0
C1318 C 0.6397 0.44937 0.50675 0.0
C1319 C 0.60769 0.47702 0.53098 0.0
C1320 C 0.62045 0.46361 0.5275 0.0
C1321 C 0.65716 0.42407 0.51719 0.0
C1322 C 0.64448 0.43772 0.52076 0.0
H1323 H 0.60065 0.50927 0.56338 0.0
H1324 H 0.62213 0.48769 0.55722 0.0
H1325 H 0.62433 0.47086 0.499 0.0
H1326 H 0.66868 0.39695 0.4819 0.0
H1327 H 0.64728 0.41836 0.48801 0.0
C1328 C 0.69049 0.19165 0.42356 0.0
C1329 C 0.67271 0.18337 0.4178 0.0
C1330 C 0.69319 0.20907 0.43161 0.0
C1331 C 0.67026 0.25017 0.43866 0.0
H1332 H 0.7086 0.26021 0.47917 0.0
C1333 C 0.68158 0.31427 0.48915 0.0
C1334 C 0.69973 0.32283 0.49082 0.0
C1335 C 0.6773 0.29767 0.47925 0.0
C1336 C 0.6979 0.2576 0.46782 0.0
H1337 H 0.64374 0.1866 0.41633 0.0
H1338 H 0.64835 0.21694 0.4307 0.0
H1339 H 0.70299 0.23041 0.46386 0.0
H1340 H 0.72776 0.32062 0.48454 0.0
H1341 H 0.72038 0.29159 0.46751 0.0
H1342 H 0.66504 0.27749 0.44317 0.0
C1343 C 0.6603 0.21023 0.42847 0.0
C1344 C 0.69474 0.24056 0.45894 0.0
C1345 C 0.65764 0.19285 0.4202 0.0
C1346 C 0.71359 0.31442 0.48299 0.0
C1347 C 0.7094 0.2978 0.4734 0.0
C1348 C 0.6733 0.26722 0.44776 0.0
C1349 C 0.67811 0.21851 0.43443 0.0
C1350 C 0.68103 0.23665 0.44409 0.0
C1351 C 0.69125 0.28922 0.47151 0.0
C1352 C 0.68728 0.27109 0.46228 0.0
H1353 H 0.70236 0.18467 0.42178 0.0
H1354 H 0.70713 0.21512 0.43563 0.0
H1355 H 0.65971 0.2477 0.42717 0.0
H1356 H 0.67079 0.32045 0.49542 0.0
H1357 H 0.66324 0.2912 0.4781 0.0
C1358 C 0.5205 0.0112 0.95556 0.0
C1359 C 0.50906 0.0249 0.95429 0.0
C1360 C 0.52951 0.00606 0.94007 0.0
C1361 C 0.5303 0.01067 0.88849 0.0
H1362 H 0.5821 0.00564 0.89764 0.0
C1363 C 0.58304 0.0265 0.83473 0.0
C1364 C 0.59611 0.01462 0.83209 0.0
C1365 C 0.57105 0.02401 0.84884 0.0
C1366 C 0.56758 0.00669 0.89489 0.0
H1367 H 0.49773 0.04357 0.93559 0.0
H1368 H 0.51363 0.03495 0.90892 0.0
H1369 H 0.56326 0.00791 0.92405 0.0
H1370 H 0.60678 0.99073 0.84215 0.0
H1371 H 0.58596 0.98664 0.86728 0.0
H1372 H 0.53494 0.01044 0.85935 0.0
C1373 C 0.51544 0.02788 0.92169 0.0
C1374 C 0.55675 0.00795 0.91 0.0
C1375 C 0.50641 0.03295 0.93708 0.0
C1376 C 0.59682 7e-05 0.84382 0.0
C1377 C 0.58498 0.99776 0.8582 0.0
C1378 C 0.54117 0.00961 0.87342 0.0
C1379 C 0.52729 0.01453 0.92302 0.0
C1380 C 0.53809 0.01047 0.907 0.0
C1381 C 0.572 0.00973 0.86082 0.0
C1382 C 0.56 0.00808 0.87651 0.0
H1383 H 0.52277 0.00466 0.96859 0.0
H1384 H 0.53836 0.99558 0.94152 0.0
H1385 H 0.51589 0.01215 0.88564 0.0
H1386 H 0.58207 0.03779 0.82588 0.0
H1387 H 0.56133 0.03356 0.85071 0.0
C1388 C 0.34671 0.30745 0.40198 0.0
C1389 C 0.33547 0.31406 0.38779 0.0
C1390 C 0.34044 0.29204 0.41112 0.0
C1391 C 0.29781 0.26287 0.41994 0.0
H1392 H 0.33132 0.22809 0.43218 0.0
C1393 C 0.27181 0.19316 0.44422 0.0
C1394 C 0.28131 0.18709 0.46006 0.0
C1395 C 0.27922 0.2082 0.43524 0.0
C1396 C 0.32186 0.23776 0.42899 0.0
H1397 H 0.30915 0.30923 0.3715 0.0
H1398 H 0.29816 0.2824 0.38741 0.0
H1399 H 0.34244 0.25547 0.41702 0.0
H1400 H 0.30652 0.19173 0.47832 0.0
H1401 H 0.31949 0.21807 0.46249 0.0
H1402 H 0.27721 0.24509 0.43172 0.0
C1403 C 0.31163 0.2894 0.3919 0.0
C1404 C 0.32822 0.25347 0.42035 0.0
C1405 C 0.31788 0.30487 0.38282 0.0
C1406 C 0.29881 0.19602 0.46618 0.0
C1407 C 0.30627 0.2111 0.4571 0.0
C1408 C 0.29146 0.24715 0.42848 0.0
C1409 C 0.32284 0.28278 0.40615 0.0
C1410 C 0.31624 0.26619 0.41565 0.0
C1411 C 0.29634 0.21756 0.44179 0.0
C1412 C 0.30337 0.23437 0.433 0.0
H1413 H 0.36036 0.31425 0.40608 0.0
H1414 H 0.34935 0.28747 0.42218 0.0
H1415 H 0.2883 0.27251 0.41688 0.0
H1416 H 0.2584 0.18654 0.43893 0.0
H1417 H 0.27141 0.21262 0.42323 0.0
C1418 C 0.49276 0.50515 0.93301 0.0
C1419 C 0.50138 0.49041 0.93901 0.0
C1420 C 0.47943 0.50314 0.91789 0.0
C1421 C 0.46429 0.47424 0.87571 0.0
H1422 H 0.42074 0.49873 0.87552 0.0
C1423 C 0.406 0.46241 0.81639 0.0
C1424 C 0.39796 0.47746 0.81023 0.0
C1425 C 0.41845 0.46385 0.83222 0.0
C1426 C 0.43294 0.49197 0.87528 0.0
H1427 H 0.50238 0.46187 0.93416 0.0
H1428 H 0.47897 0.45834 0.90784 0.0
H1429 H 0.44221 0.50112 0.90341 0.0
H1430 H 0.39699 0.50592 0.8159 0.0
H1431 H 0.4189 0.50844 0.84338 0.0
H1432 H 0.4551 0.46517 0.84757 0.0
C1433 C 0.48273 0.47151 0.91469 0.0
C1434 C 0.44522 0.49331 0.89127 0.0
C1435 C 0.49605 0.47351 0.92984 0.0
C1436 C 0.40286 0.49403 0.82022 0.0
C1437 C 0.41533 0.49546 0.83607 0.0
C1438 C 0.45203 0.4729 0.85973 0.0
C1439 C 0.47443 0.48635 0.9084 0.0
C1440 C 0.46106 0.48449 0.89165 0.0
C1441 C 0.4232 0.48036 0.8423 0.0
C1442 C 0.43623 0.48179 0.85931 0.0
H1443 H 0.49655 0.51836 0.93975 0.0
H1444 H 0.47344 0.51487 0.91328 0.0
H1445 H 0.47653 0.46753 0.87544 0.0
H1446 H 0.4025 0.44939 0.80913 0.0
H1447 H 0.4241 0.45191 0.83677 0.0
C1448 C 0.67433 0.78576 0.09995 0.0
C1449 C 0.67793 0.7869 0.11951 0.0
C1450 C 0.68189 0.77315 0.08907 0.0
C1451 C 0.71998 0.74602 0.08839 0.0
H1452 H 0.68823 0.71689 0.05037 0.0
C1453 C 0.74509 0.6883 0.04503 0.0
C1454 C 0.73832 0.68583 0.02613 0.0
C1455 C 0.73801 0.70045 0.05698 0.0
C1456 C 0.69737 0.72507 0.06073 0.0
H1457 H 0.69247 0.77587 0.14298 0.0
H1458 H 0.70586 0.75396 0.12388 0.0
H1459 H 0.67542 0.7386 0.07 0.0
H1460 H 0.7192 0.69463 0.00486 0.0
H1461 H 0.70735 0.71605 0.02542 0.0
H1462 H 0.74205 0.73283 0.07885 0.0
C1463 C 0.69715 0.76282 0.11703 0.0
C1464 C 0.68999 0.73746 0.07202 0.0
C1465 C 0.6894 0.77529 0.12794 0.0
C1466 C 0.72461 0.69602 0.01938 0.0
C1467 C 0.7177 0.70826 0.03124 0.0
C1468 C 0.72744 0.73374 0.07694 0.0
C1469 C 0.69337 0.76156 0.0975 0.0
C1470 C 0.70123 0.74813 0.08588 0.0
C1471 C 0.72414 0.7105 0.05024 0.0
C1472 C 0.71624 0.7232 0.06288 0.0
H1473 H 0.66556 0.79452 0.09303 0.0
H1474 H 0.67889 0.77258 0.07402 0.0
H1475 H 0.72898 0.75419 0.09889 0.0
H1476 H 0.75558 0.68059 0.0507 0.0
H1477 H 0.74317 0.70168 0.07158 0.0
C1478 C 0.96274 0.044 0.09953 0.0
C1479 C 0.9649 0.06208 0.09472 0.0
C1480 C 0.95252 0.03856 0.11442 0.0
C1481 C 0.93458 0.05555 0.15757 0.0
H1482 H 0.9036 0.00972 0.15283 0.0
C1483 C 0.88531 0.03073 0.2135 0.0
C1484 C 0.88478 0.01256 0.21786 0.0
C1485 C 0.8949 0.03737 0.19857 0.0
C1486 C 0.91231 0.02248 0.15444 0.0
H1487 H 0.95793 0.08861 0.10183 0.0
H1488 H 0.93984 0.07904 0.12774 0.0
H1489 H 0.92026 0.02029 0.12646 0.0
H1490 H 0.89417 0.98721 0.20992 0.0
H1491 H 0.91088 0.99882 0.18405 0.0
H1492 H 0.92653 0.05768 0.18561 0.0
C1493 C 0.94628 0.06912 0.1201 0.0
C1494 C 0.92188 0.02854 0.13932 0.0
C1495 C 0.95656 0.07459 0.10518 0.0
C1496 C 0.89423 0.00127 0.20702 0.0
C1497 C 0.90372 0.00789 0.19206 0.0
C1498 C 0.92494 0.0495 0.17271 0.0
C1499 C 0.94413 0.05103 0.12488 0.0
C1500 C 0.93329 0.04506 0.14075 0.0
C1501 C 0.90408 0.02598 0.18758 0.0
C1502 C 0.91385 0.0328 0.17137 0.0
H1503 H 0.96905 0.03401 0.09186 0.0
H1504 H 0.95144 0.02459 0.1179 0.0
H1505 H 0.9434 0.06824 0.15923 0.0
H1506 H 0.87821 0.03983 0.22153 0.0
H1507 H 0.89481 0.05134 0.19538 0.0
C1508 C 0.3225 0.76988 0.14379 0.0
C1509 C 0.33888 0.763 0.14 0.0
C1510 C 0.31692 0.78437 0.13409 0.0
C1511 C 0.32144 0.80446 0.08892 0.0
H1512 H 0.29963 0.844 0.11084 0.0
C1513 C 0.29758 0.85847 0.04243 0.0
C1514 C 0.28043 0.86403 0.04539 0.0
C1515 C 0.30644 0.84877 0.05578 0.0
C1516 C 0.30556 0.83297 0.1045 0.0
H1517 H 0.36267 0.76647 0.12368 0.0
H1518 H 0.35289 0.79167 0.10675 0.0
H1519 H 0.31187 0.82195 0.13109 0.0
H1520 H 0.25945 0.86464 0.06499 0.0
H1521 H 0.27462 0.84708 0.08818 0.0
H1522 H 0.31465 0.81481 0.06237 0.0
C1523 C 0.34429 0.78576 0.1171 0.0
C1524 C 0.3126 0.82039 0.1161 0.0
C1525 C 0.34991 0.77136 0.12685 0.0
C1526 C 0.27271 0.86053 0.0624 0.0
C1527 C 0.28144 0.85052 0.07569 0.0
C1528 C 0.31429 0.81687 0.07736 0.0
C1529 C 0.32756 0.79218 0.12033 0.0
C1530 C 0.32062 0.80602 0.10839 0.0
C1531 C 0.29817 0.84406 0.07227 0.0
C1532 C 0.30628 0.83132 0.08495 0.0
H1533 H 0.31373 0.76378 0.15389 0.0
H1534 H 0.3039 0.78897 0.13679 0.0
H1535 H 0.32716 0.79331 0.08252 0.0
H1536 H 0.30397 0.86122 0.02953 0.0
H1537 H 0.31956 0.84453 0.05291 0.0
C1538 C 0.00627 0.51872 0.14057 0.0
C1539 C 0.00452 0.50161 0.1315 0.0
C1540 C 0.01731 0.5224 0.15739 0.0
C1541 C 0.03834 0.49989 0.19712 0.0
H1542 H 0.07231 0.54375 0.20402 0.0
C1543 C 0.09757 0.50955 0.25548 0.0
C1544 C 0.10173 0.52656 0.26474 0.0
C1545 C 0.08488 0.50695 0.23979 0.0
C1546 C 0.06272 0.53154 0.20244 0.0
H1547 H 0.01301 0.47495 0.13307 0.0
H1548 H 0.03217 0.48138 0.16216 0.0
H1549 H 0.05138 0.53868 0.17574 0.0
H1550 H 0.09559 0.55414 0.26474 0.0
H1551 H 0.07335 0.54951 0.23758 0.0
H1552 H 0.0497 0.49268 0.22372 0.0
C1553 C 0.0249 0.49192 0.15644 0.0
C1554 C 0.05073 0.52865 0.18623 0.0
C1555 C 0.01399 0.48828 0.13965 0.0
C1556 C 0.09278 0.54085 0.25798 0.0
C1557 C 0.08009 0.53824 0.24231 0.0
C1558 C 0.05029 0.50279 0.21332 0.0
C1559 C 0.02669 0.50899 0.16553 0.0
C1560 C 0.03856 0.51269 0.18328 0.0
C1561 C 0.07602 0.52128 0.23299 0.0
C1562 C 0.06277 0.51856 0.21609 0.0
H1563 H 0.99915 0.52929 0.13467 0.0
H1564 H 0.01834 0.53566 0.16414 0.0
H1565 H 0.0289 0.48759 0.19541 0.0
H1566 H 0.10421 0.49824 0.26023 0.0
H1567 H 0.08226 0.49377 0.23279 0.0
C1568 C 0.38166 0.72376 0.23322 0.0
C1569 C 0.37591 0.70689 0.22421 0.0
C1570 C 0.39161 0.72511 0.25068 0.0
C1571 C 0.42341 0.70246 0.27978 0.0
H1572 H 0.41143 0.7345 0.31938 0.0
C1573 C 0.46723 0.71349 0.35099 0.0
C1574 C 0.46937 0.73091 0.35918 0.0
C1575 C 0.45471 0.70892 0.33535 0.0
C1576 C 0.4151 0.72559 0.30846 0.0
H1577 H 0.37645 0.67823 0.22614 0.0
H1578 H 0.39397 0.6806 0.25675 0.0
H1579 H 0.3913 0.7295 0.29069 0.0
H1580 H 0.46154 0.75764 0.35682 0.0
H1581 H 0.44025 0.75001 0.32929 0.0
H1582 H 0.44759 0.69907 0.29717 0.0
C1583 C 0.39053 0.69274 0.25036 0.0
C1584 C 0.40349 0.7227 0.29204 0.0
C1585 C 0.38032 0.69137 0.23298 0.0
C1586 C 0.45961 0.74394 0.35104 0.0
C1587 C 0.44735 0.73951 0.33531 0.0
C1588 C 0.43515 0.7055 0.29616 0.0
C1589 C 0.39627 0.70963 0.25936 0.0
C1590 C 0.40768 0.71133 0.27742 0.0
C1591 C 0.44453 0.72189 0.32736 0.0
C1592 C 0.43131 0.71736 0.31059 0.0
H1593 H 0.37851 0.73594 0.22672 0.0
H1594 H 0.39606 0.73832 0.2572 0.0
H1595 H 0.42703 0.69373 0.26864 0.0
H1596 H 0.47491 0.70334 0.35695 0.0
H1597 H 0.45285 0.6952 0.32968 0.0
C1598 C 0.95754 0.40294 0.04876 0.0
C1599 C 0.96888 0.41913 0.04688 0.0
C1600 C 0.95967 0.38756 0.03798 0.0
C1601 C 0.99382 0.36675 0.01264 0.0
H1602 H 0.9514 0.33621 0.98906 0.0
C1603 C 0.99976 0.30739 0.96031 0.0
C1604 C 0.98644 0.29224 0.96003 0.0
C1605 C 0.99837 0.32258 0.97177 0.0
C1606 C 0.9634 0.34441 0.99581 0.0
H1607 H 0.99117 0.43194 0.03195 0.0
H1608 H 0.9949 0.40503 0.01315 0.0
H1609 H 0.94703 0.36349 0.00669 0.0
H1610 H 0.9619 0.28077 0.97247 0.0
H1611 H 0.95983 0.30694 0.99281 0.0
H1612 H 0.0102 0.34757 0.00197 0.0
C1613 C 0.98443 0.40425 0.02307 0.0
C1614 C 0.96087 0.3601 0.00583 0.0
C1615 C 0.98219 0.41969 0.03373 0.0
C1616 C 0.97229 0.29228 0.97219 0.0
C1617 C 0.97101 0.30736 0.98375 0.0
C1618 C 0.99635 0.35096 0.00272 0.0
C1619 C 0.9733 0.38799 0.02519 0.0
C1620 C 0.97604 0.37144 0.01434 0.0
C1621 C 0.98372 0.3229 0.98331 0.0
C1622 C 0.98116 0.33957 0.99419 0.0
H1623 H 0.94716 0.40205 0.05877 0.0
H1624 H 0.95096 0.37519 0.04 0.0
H1625 H 0.00576 0.37513 0.01926 0.0
H1626 H 0.01076 0.30786 0.95103 0.0
H1627 H 0.00834 0.33433 0.97095 0.0
C1628 C 0.63626 0.85755 0.2904 0.0
C1629 C 0.64129 0.84532 0.27697 0.0
C1630 C 0.62605 0.85144 0.30513 0.0
C1631 C 0.61091 0.81018 0.33002 0.0
H1632 H 0.57004 0.83571 0.34161 0.0
C1633 C 0.55987 0.78305 0.38246 0.0
C1634 C 0.54118 0.7835 0.37692 0.0
C1635 C 0.57354 0.79275 0.37304 0.0
C1636 C 0.58137 0.82839 0.33852 0.0
H1637 H 0.63989 0.81705 0.26878 0.0
H1638 H 0.62189 0.80648 0.29409 0.0
H1639 H 0.59153 0.84803 0.31975 0.0
H1640 H 0.52216 0.79495 0.35759 0.0
H1641 H 0.54589 0.81148 0.34091 0.0
H1642 H 0.6002 0.79004 0.34792 0.0
C1643 C 0.62605 0.82077 0.29352 0.0
C1644 C 0.59385 0.83559 0.32616 0.0
C1645 C 0.63629 0.82685 0.27888 0.0
C1646 C 0.53644 0.79434 0.36222 0.0
C1647 C 0.55009 0.80393 0.35272 0.0
C1648 C 0.59837 0.80293 0.34227 0.0
C1649 C 0.62062 0.83297 0.30673 0.0
C1650 C 0.60856 0.82638 0.32145 0.0
C1651 C 0.56882 0.80303 0.35779 0.0
C1652 C 0.58323 0.81176 0.3464 0.0
H1653 H 0.63997 0.87186 0.28939 0.0
H1654 H 0.62231 0.8612 0.31519 0.0
H1655 H 0.62225 0.80287 0.32697 0.0
H1656 H 0.56395 0.77492 0.39384 0.0
H1657 H 0.58781 0.79199 0.37755 0.0
C1658 C 0.01007 0.08696 0.01333 0.0
C1659 C 0.02673 0.08008 0.01091 0.0
C1660 C 0.00739 0.10409 0.00745 0.0
C1661 C 0.02459 0.13742 0.9742 0.0
H1662 H 0.99612 0.16879 0.00085 0.0
C1663 C 0.01457 0.20806 0.94935 0.0
C1664 C 0.99657 0.21271 0.94905 0.0
C1665 C 0.01917 0.19281 0.95834 0.0
C1666 C 0.00401 0.16012 0.9932 0.0
H1667 H 0.05382 0.08593 0.00087 0.0
H1668 H 0.04932 0.11589 0.99098 0.0
H1669 H 0.00267 0.14059 0.01424 0.0
H1670 H 0.96939 0.20506 0.95842 0.0
H1671 H 0.97744 0.17851 0.97402 0.0
H1672 H 0.02584 0.15687 0.95312 0.0
C1673 C 0.03817 0.10798 0.99711 0.0
C1674 C 0.00775 0.14395 0.00086 0.0
C1675 C 0.0408 0.09084 0.00289 0.0
C1676 C 0.9834 0.20194 0.95835 0.0
C1677 C 0.98803 0.18675 0.96741 0.0
C1678 C 0.02092 0.1536 0.9666 0.0
C1679 C 0.02132 0.11471 0.99901 0.0
C1680 C 0.01799 0.13233 0.99139 0.0
C1681 C 0.00591 0.18188 0.96732 0.0
C1682 C 0.01048 0.16509 0.97593 0.0
H1683 H 0.99876 0.07884 0.01895 0.0
H1684 H 0.99413 0.10869 0.00886 0.0
H1685 H 0.0322 0.12868 0.96632 0.0
H1686 H 0.0251 0.21603 0.94239 0.0
H1687 H 0.03313 0.18955 0.95822 0.0
C1688 C 0.41218 0.34727 0.30758 0.0
C1689 C 0.39313 0.34392 0.30918 0.0
C1690 C 0.41985 0.341 0.29171 0.0
C1691 C 0.41244 0.30487 0.25605 0.0
H1692 H 0.44814 0.33427 0.2295 0.0
C1693 C 0.4447 0.27464 0.1937 0.0
C1694 C 0.46358 0.27969 0.19235 0.0
C1695 C 0.43498 0.28411 0.20589 0.0
C1696 C 0.43834 0.32581 0.23687 0.0
H1697 H 0.36715 0.33161 0.2953 0.0
H1698 H 0.38066 0.32034 0.26776 0.0
H1699 H 0.43355 0.34776 0.25512 0.0
H1700 H 0.48698 0.29896 0.20229 0.0
H1701 H 0.47028 0.31508 0.22409 0.0
H1702 H 0.41771 0.28273 0.23864 0.0
C1703 C 0.38959 0.3279 0.27875 0.0
C1704 C 0.42994 0.33358 0.25147 0.0
C1705 C 0.38188 0.3344 0.29448 0.0
C1706 C 0.47241 0.29482 0.20295 0.0
C1707 C 0.46277 0.30411 0.21541 0.0
C1708 C 0.42102 0.29704 0.24168 0.0
C1709 C 0.40866 0.33104 0.27729 0.0
C1710 C 0.41697 0.32315 0.26123 0.0
C1711 C 0.444 0.29866 0.21732 0.0
C1712 C 0.43416 0.30737 0.23192 0.0
H1713 H 0.42119 0.35462 0.31865 0.0
H1714 H 0.43461 0.34348 0.29098 0.0
H1715 H 0.40267 0.29647 0.26354 0.0
H1716 H 0.43746 0.26317 0.18552 0.0
H1717 H 0.42045 0.27981 0.20655 0.0
C1718 C 0.56458 0.41051 0.0411 0.0
C1719 C 0.55093 0.42061 0.03414 0.0
C1720 C 0.56064 0.39751 0.05415 0.0
C1721 C 0.52504 0.38069 0.08631 0.0
H1722 H 0.55002 0.33811 0.0842 0.0
C1723 C 0.50258 0.31265 0.11972 0.0
C1724 C 0.5162 0.30673 0.13196 0.0
C1725 C 0.5068 0.32754 0.10898 0.0
C1726 C 0.54304 0.35 0.08497 0.0
H1727 H 0.52244 0.42506 0.03526 0.0
H1728 H 0.51521 0.40174 0.0572 0.0
H1729 H 0.55722 0.36189 0.06278 0.0
H1730 H 0.54485 0.31168 0.14263 0.0
H1731 H 0.55235 0.33736 0.12327 0.0
H1732 H 0.51018 0.36803 0.10795 0.0
C1733 C 0.52919 0.40422 0.05323 0.0
C1734 C 0.54724 0.36373 0.07281 0.0
C1735 C 0.53327 0.41754 0.04052 0.0
C1736 C 0.53407 0.31602 0.13336 0.0
C1737 C 0.53839 0.33063 0.12229 0.0
C1738 C 0.52055 0.36672 0.09818 0.0
C1739 C 0.5428 0.39395 0.06019 0.0
C1740 C 0.53836 0.37934 0.07333 0.0
C1741 C 0.5248 0.33645 0.10998 0.0
C1742 C 0.52958 0.35133 0.09763 0.0
H1743 H 0.57838 0.41275 0.03657 0.0
H1744 H 0.57167 0.39029 0.05949 0.0
H1745 H 0.51813 0.39257 0.08747 0.0
H1746 H 0.48868 0.30575 0.11841 0.0
H1747 H 0.49614 0.33179 0.09949 0.0
C1748 C 0.6227 0.22001 0.32551 0.0
C1749 C 0.61551 0.20695 0.33743 0.0
C1750 C 0.61168 0.22533 0.3105 0.0
C1751 C 0.56307 0.22453 0.29183 0.0
H1752 H 0.58419 0.22947 0.24403 0.0
C1753 C 0.51866 0.22631 0.22234 0.0
C1754 C 0.52484 0.23883 0.20937 0.0
C1755 C 0.52985 0.22352 0.23832 0.0
C1756 C 0.57816 0.22836 0.25733 0.0
H1757 H 0.59098 0.1895 0.34313 0.0
H1758 H 0.57187 0.19859 0.31686 0.0
H1759 H 0.60343 0.22298 0.27154 0.0
H1760 H 0.54776 0.25818 0.2031 0.0
H1761 H 0.56724 0.25326 0.231 0.0
H1762 H 0.53772 0.22961 0.27751 0.0
C1763 C 0.58595 0.20492 0.31923 0.0
C1764 C 0.58918 0.22468 0.27311 0.0
C1765 C 0.59695 0.19962 0.33425 0.0
C1766 C 0.54253 0.24842 0.21275 0.0
C1767 C 0.55375 0.24556 0.22871 0.0
C1768 C 0.55204 0.22815 0.27604 0.0
C1769 C 0.59322 0.2177 0.30706 0.0
C1770 C 0.58173 0.22257 0.29051 0.0
C1771 C 0.54751 0.23311 0.24168 0.0
C1772 C 0.55942 0.22996 0.25859 0.0
H1773 H 0.63692 0.22599 0.32763 0.0
H1774 H 0.61763 0.23541 0.30155 0.0
H1775 H 0.55698 0.22329 0.30508 0.0
H1776 H 0.50516 0.21863 0.2202 0.0
H1777 H 0.52476 0.21365 0.24792 0.0
C1778 C 0.4917 0.09213 0.05461 0.0
C1779 C 0.5022 0.09203 0.03901 0.0
C1780 C 0.4917 0.10791 0.06559 0.0
C1781 C 0.51911 0.15183 0.07765 0.0
H1782 H 0.47369 0.16491 0.09524 0.0
C1783 C 0.51864 0.20985 0.1323 0.0
C1784 C 0.50421 0.22043 0.13055 0.0
C1785 C 0.5182 0.19428 0.12094 0.0
C1786 C 0.48649 0.16149 0.09042 0.0
H1787 H 0.52083 0.10846 0.02265 0.0
H1788 H 0.52074 0.13592 0.04171 0.0
H1789 H 0.47315 0.13743 0.07593 0.0
H1790 H 0.47888 0.2242 0.11466 0.0
H1791 H 0.47812 0.19705 0.09449 0.0
H1792 H 0.53242 0.17599 0.09181 0.0
C1793 C 0.51268 0.12378 0.0456 0.0
C1794 C 0.48619 0.14565 0.07948 0.0
C1795 C 0.51264 0.10804 0.03461 0.0
C1796 C 0.48979 0.21579 0.11665 0.0
C1797 C 0.4894 0.20029 0.10514 0.0
C1798 C 0.51941 0.16762 0.08863 0.0
C1799 C 0.50225 0.1239 0.06123 0.0
C1800 C 0.50251 0.14065 0.07297 0.0
C1801 C 0.50355 0.18927 0.10724 0.0
C1802 C 0.50312 0.17262 0.09523 0.0
H1803 H 0.48351 0.08001 0.05837 0.0
H1804 H 0.48366 0.10754 0.07766 0.0
H1805 H 0.53194 0.14829 0.07297 0.0
H1806 H 0.53007 0.21346 0.14273 0.0
H1807 H 0.52922 0.18604 0.12311 0.0
C1808 C 0.19883 0.36927 0.68706 0.0
C1809 C 0.1908 0.35718 0.69948 0.0
C1810 C 0.21366 0.38206 0.69326 0.0
C1811 C 0.25115 0.39085 0.73094 0.0
H1812 H 0.25632 0.43878 0.71209 0.0
C1813 C 0.30854 0.44592 0.76055 0.0
C1814 C 0.31744 0.45678 0.74766 0.0
C1815 C 0.29288 0.43403 0.75475 0.0
C1816 C 0.25517 0.42538 0.71732 0.0
H1817 H 0.19248 0.34872 0.72806 0.0
H1818 H 0.21776 0.37152 0.73912 0.0
H1819 H 0.22894 0.4179 0.70224 0.0
H1820 H 0.31658 0.46472 0.71897 0.0
H1821 H 0.28928 0.4436 0.70856 0.0
H1822 H 0.27721 0.39839 0.74621 0.0
C1823 C 0.21264 0.37108 0.72453 0.0
C1824 C 0.23947 0.41341 0.71169 0.0
C1825 C 0.19785 0.35823 0.71828 0.0
C1826 C 0.31008 0.45614 0.72902 0.0
C1827 C 0.29442 0.44418 0.72315 0.0
C1828 C 0.26677 0.40285 0.73665 0.0
C1829 C 0.22086 0.38302 0.71205 0.0
C1830 C 0.2373 0.39598 0.7184 0.0
C1831 C 0.28567 0.43295 0.73596 0.0
C1832 C 0.26902 0.42023 0.72985 0.0
H1833 H 0.1938 0.3687 0.67243 0.0
H1834 H 0.21981 0.39084 0.68319 0.0
H1835 H 0.25012 0.37744 0.73612 0.0
H1836 H 0.31364 0.44673 0.77517 0.0
H1837 H 0.28627 0.42587 0.76505 0.0
C1838 C 0.25122 0.62 0.85651 0.0
C1839 C 0.24473 0.61471 0.87364 0.0
C1840 C 0.26431 0.61094 0.84825 0.0
C1841 C 0.29738 0.57752 0.85773 0.0
H1842 H 0.2917 0.56995 0.80371 0.0
C1843 C 0.32666 0.52122 0.81649 0.0
C1844 C 0.3355 0.52606 0.80039 0.0
C1845 C 0.31787 0.53368 0.82629 0.0
C1846 C 0.29359 0.57215 0.81879 0.0
H1847 H 0.24696 0.59591 0.89565 0.0
H1848 H 0.26916 0.57961 0.88095 0.0
H1849 H 0.2718 0.58851 0.81911 0.0
H1850 H 0.34238 0.5478 0.78208 0.0
H1851 H 0.32657 0.56949 0.799 0.0
H1852 H 0.31861 0.56028 0.85728 0.0
C1853 C 0.26465 0.59109 0.87408 0.0
C1854 C 0.28224 0.58286 0.82765 0.0
C1855 C 0.25179 0.60036 0.88249 0.0
C1856 C 0.3357 0.54371 0.79447 0.0
C1857 C 0.32662 0.55608 0.80408 0.0
C1858 C 0.30853 0.56655 0.84887 0.0
C1859 C 0.27098 0.59615 0.85676 0.0
C1860 C 0.28386 0.58559 0.84728 0.0
C1861 C 0.31748 0.55112 0.81997 0.0
C1862 C 0.30663 0.56368 0.82933 0.0
H1863 H 0.24616 0.63115 0.84945 0.0
H1864 H 0.26913 0.61551 0.83514 0.0
H1865 H 0.29934 0.57958 0.87281 0.0
H1866 H 0.32633 0.50773 0.8214 0.0
H1867 H 0.3108 0.52949 0.83842 0.0
C1868 C 0.89702 0.47889 0.50942 0.0
C1869 C 0.89955 0.49092 0.49501 0.0
C1870 C 0.88008 0.46845 0.51051 0.0
C1871 C 0.83819 0.44941 0.48226 0.0
H1872 H 0.81642 0.44629 0.52985 0.0
C1873 C 0.76525 0.41325 0.48738 0.0
C1874 C 0.76233 0.40252 0.5028 0.0
C1875 C 0.78152 0.42489 0.48686 0.0
C1876 C 0.8224 0.44684 0.5165 0.0
H1877 H 0.88636 0.50127 0.47031 0.0
H1878 H 0.85684 0.48285 0.47211 0.0
H1879 H 0.84607 0.46443 0.52794 0.0
H1880 H 0.77415 0.39588 0.52993 0.0
H1881 H 0.80268 0.41586 0.52882 0.0
H1882 H 0.81485 0.43155 0.47083 0.0
C1883 C 0.86798 0.48154 0.48256 0.0
C1884 C 0.83936 0.45725 0.51541 0.0
C1885 C 0.88486 0.49212 0.48157 0.0
C1886 C 0.77589 0.40403 0.51788 0.0
C1887 C 0.79225 0.41556 0.51728 0.0
C1888 C 0.82133 0.43887 0.48336 0.0
C1889 C 0.86539 0.46968 0.4971 0.0
C1890 C 0.84741 0.45865 0.49828 0.0
C1891 C 0.79536 0.42597 0.50165 0.0
C1892 C 0.81319 0.43746 0.50049 0.0
H1893 H 0.90807 0.47768 0.52001 0.0
H1894 H 0.87852 0.45928 0.52176 0.0
H1895 H 0.8442 0.45006 0.46892 0.0
H1896 H 0.75503 0.41255 0.47559 0.0
H1897 H 0.78326 0.43299 0.47479 0.0
C1898 C 0.75648 0.88479 0.8737 0.0
C1899 C 0.75728 0.86876 0.86322 0.0
C1900 C 0.74302 0.89584 0.86896 0.0
C1901 C 0.6984 0.89777 0.84199 0.0
H1902 H 0.7167 0.94826 0.84016 0.0
C1903 C 0.6564 0.94995 0.80651 0.0
C1904 C 0.65873 0.96747 0.81462 0.0
C1905 C 0.66702 0.93704 0.81354 0.0
C1906 C 0.71124 0.93427 0.84088 0.0
H1907 H 0.74401 0.85135 0.84005 0.0
H1908 H 0.72051 0.87074 0.83175 0.0
H1909 H 0.7375 0.92725 0.85067 0.0
H1910 H 0.67326 0.98495 0.83707 0.0
H1911 H 0.69137 0.96244 0.84959 0.0
H1912 H 0.67209 0.90489 0.8321 0.0
C1913 C 0.73029 0.8747 0.84367 0.0
C1914 C 0.72321 0.9222 0.84689 0.0
C1915 C 0.74381 0.86364 0.84839 0.0
C1916 C 0.67129 0.97162 0.83037 0.0
C1917 C 0.68177 0.95873 0.83747 0.0
C1918 C 0.68636 0.90991 0.83604 0.0
C1919 C 0.73001 0.89112 0.85366 0.0
C1920 C 0.71696 0.90382 0.84755 0.0
C1921 C 0.6801 0.9414 0.8289 0.0
C1922 C 0.69264 0.92833 0.83544 0.0
H1923 H 0.76654 0.88908 0.8853 0.0
H1924 H 0.74298 0.90825 0.87714 0.0
H1925 H 0.69316 0.8837 0.84246 0.0
H1926 H 0.64683 0.94637 0.79433 0.0
H1927 H 0.66545 0.92387 0.80651 0.0
C1928 C 0.60651 0.52775 0.99449 0.0
C1929 C 0.60556 0.51043 0.00145 0.0
C1930 C 0.62302 0.53921 0.99626 0.0
C1931 C 0.66811 0.54908 0.02216 0.0
H1932 H 0.68191 0.5712 0.97647 0.0
C1933 C 0.72414 0.60991 0.02115 0.0
C1934 C 0.73461 0.61155 0.00561 0.0
C1935 C 0.70975 0.59597 0.02149 0.0
C1936 C 0.67837 0.56511 0.98933 0.0
H1937 H 0.62104 0.49193 0.01658 0.0
H1938 H 0.64996 0.51219 0.01987 0.0
H1939 H 0.65369 0.55061 0.976 0.0
H1940 H 0.73988 0.59904 0.97924 0.0
H1941 H 0.71477 0.57449 0.97975 0.0
H1942 H 0.69276 0.56377 0.03553 0.0
C1943 C 0.63786 0.51675 0.01294 0.0
C1944 C 0.6621 0.5534 0.98909 0.0
C1945 C 0.62133 0.50516 0.01101 0.0
C1946 C 0.73141 0.59838 0.99099 0.0
C1947 C 0.71712 0.58433 0.99137 0.0
C1948 C 0.68434 0.56101 0.02245 0.0
C1949 C 0.63893 0.53371 0.00517 0.0
C1950 C 0.65668 0.54545 0.00553 0.0
C1951 C 0.70588 0.58316 0.00646 0.0
C1952 C 0.68952 0.56935 0.00606 0.0
H1953 H 0.59464 0.53232 0.98714 0.0
H1954 H 0.62341 0.55234 0.99042 0.0
H1955 H 0.66426 0.54307 0.03502 0.0
H1956 H 0.72672 0.61975 0.03277 0.0
H1957 H 0.70131 0.5956 0.03325 0.0
C1958 C 0.29471 0.62526 0.23813 0.0
C1959 C 0.30617 0.63653 0.25138 0.0
C1960 C 0.28005 0.61359 0.2437 0.0
C1961 C 0.2496 0.60686 0.2822 0.0
H1962 H 0.23638 0.55969 0.2577 0.0
C1963 C 0.19173 0.55565 0.30603 0.0
C1964 C 0.17991 0.54611 0.29185 0.0
C1965 C 0.20757 0.56638 0.30159 0.0
C1966 C 0.23978 0.5729 0.26454 0.0
H1967 H 0.31148 0.64403 0.28097 0.0
H1968 H 0.28605 0.62341 0.29074 0.0
H1969 H 0.26361 0.57862 0.24935 0.0
H1970 H 0.17565 0.53926 0.26217 0.0
H1971 H 0.20316 0.55834 0.25421 0.0
H1972 H 0.22588 0.60106 0.29752 0.0
C1973 C 0.28821 0.62385 0.27598 0.0
C1974 C 0.2554 0.58375 0.25977 0.0
C1975 C 0.30286 0.63559 0.2704 0.0
C1976 C 0.18445 0.54685 0.27325 0.0
C1977 C 0.20024 0.55764 0.26877 0.0
C1978 C 0.23403 0.59597 0.28705 0.0
C1979 C 0.27653 0.61283 0.26268 0.0
C1980 C 0.26042 0.60093 0.26841 0.0
C1981 C 0.21199 0.56754 0.28289 0.0
C1982 C 0.22883 0.57893 0.27813 0.0
H1983 H 0.29682 0.62568 0.22336 0.0
H1984 H 0.2712 0.6055 0.23304 0.0
H1985 H 0.2529 0.62012 0.28896 0.0
H1986 H 0.1888 0.55467 0.32057 0.0
H1987 H 0.21648 0.57355 0.31284 0.0
C1988 C 0.9306 0.54944 0.04406 0.0
C1989 C 0.93004 0.54297 0.06219 0.0
C1990 C 0.91881 0.56172 0.03796 0.0
C1991 C 0.89252 0.59676 0.05285 0.0
H1992 H 0.85805 0.58116 0.01014 0.0
C1993 C 0.82899 0.63307 0.0342 0.0
C1994 C 0.82123 0.63198 0.01565 0.0
C1995 C 0.84397 0.62389 0.03924 0.0
C1996 C 0.86781 0.58605 0.0218 0.0
H1997 H 0.91722 0.54477 0.08834 0.0
H1998 H 0.89704 0.56674 0.07782 0.0
H1999 H 0.88142 0.56241 0.02008 0.0
H2000 H 0.8237 0.62143 0.98757 0.0
H2001 H 0.85048 0.60637 0.99601 0.0
H2002 H 0.87943 0.62062 0.05439 0.0
C2003 C 0.90644 0.56208 0.06832 0.0
C2004 C 0.88112 0.57516 0.02756 0.0
C2005 C 0.91791 0.54948 0.07429 0.0
C2006 C 0.82932 0.62236 0.00203 0.0
C2007 C 0.84458 0.61355 0.00696 0.0
C2008 C 0.87948 0.60788 0.04684 0.0
C2009 C 0.9066 0.56809 0.05002 0.0
C2010 C 0.89341 0.5803 0.04328 0.0
C2011 C 0.85181 0.61372 0.02575 0.0
C2012 C 0.86671 0.60258 0.03138 0.0
H2013 H 0.93976 0.54461 0.03441 0.0
H2014 H 0.91917 0.5662 0.02379 0.0
H2015 H 0.90197 0.60104 0.06495 0.0
H2016 H 0.82291 0.64027 0.04503 0.0
H2017 H 0.84883 0.62422 0.05389 0.0
C2018 C 0.09343 0.99147 0.98916 0.0
C2019 C 0.08921 0.99752 0.00691 0.0
C2020 C 0.10845 0.98196 0.98728 0.0
C2021 C 0.1516 0.97113 0.01246 0.0
H2022 H 0.14557 0.93096 0.97604 0.0
C2023 C 0.20393 0.91937 0.00839 0.0
C2024 C 0.20875 0.91478 0.99037 0.0
C2025 C 0.18952 0.92966 0.01071 0.0
C2026 C 0.14751 0.94223 0.98617 0.0
H2027 H 0.09763 0.99855 0.03661 0.0
H2028 H 0.12361 0.98165 0.0334 0.0
H2029 H 0.12037 0.94882 0.97944 0.0
H2030 H 0.20203 0.91737 0.96065 0.0
H2031 H 0.17694 0.93517 0.96474 0.0
H2032 H 0.17872 0.96426 0.01932 0.0
C2033 C 0.11552 0.98451 0.02086 0.0
C2034 C 0.1331 0.95253 0.98808 0.0
C2035 C 0.10056 0.99414 0.02272 0.0
C2036 C 0.19875 0.92065 0.97474 0.0
C2037 C 0.18427 0.93077 0.97707 0.0
C2038 C 0.16599 0.96073 0.01063 0.0
C2039 C 0.11955 0.97813 0.00313 0.0
C2040 C 0.13497 0.96718 0.00118 0.0
C2041 C 0.17952 0.93542 0.99506 0.0
C2042 C 0.16413 0.94623 0.99739 0.0
H2043 H 0.08503 0.99395 0.97668 0.0
H2044 H 0.11135 0.97759 0.97337 0.0
H2045 H 0.15364 0.98245 0.02252 0.0
H2046 H 0.21134 0.91512 0.02074 0.0
H2047 H 0.18606 0.93293 0.02475 0.0
loop_
_geom_bond_atom_site_label_1
_geom_bond_atom_site_label_2
_geom_bond_distance
_geom_bond_site_symmetry_2
_ccdc_geom_bond_type
O0 Cd1 2.300 . S
O0 C7 1.275 . S
Cd1 O0 2.300 . S
Cd1 O9 2.381 . S
Cd1 O10 2.378 . S
O2 Cd3 2.385 . S
O2 C7 1.255 . S
Cd3 O2 2.385 . S
Cd3 O4 2.317 . S
O4 Cd3 2.317 . S
O4 C5 1.232 . S
C5 O4 1.232 . S
C5 O6 1.215 1_455 S
O6 C5 1.215 1_655 S
C7 O0 1.275 . S
C7 O2 1.255 . S
C8 O9 1.258 . S
C8 O10 1.256 . S
O9 Cd1 2.381 . S
O9 C8 1.258 . S
O10 Cd1 2.378 . S
O10 C8 1.256 . S
O11 Cd12 2.300 . S
O11 C18 1.275 . S
Cd12 O11 2.300 . S
Cd12 O20 2.381 . S
Cd12 O21 2.378 . S
O13 Cd14 2.385 . S
O13 C18 1.255 . S
Cd14 O13 2.385 . S
Cd14 O15 2.317 . S
O15 Cd14 2.317 . S
O15 C16 1.232 . S
C16 O15 1.232 . S
C16 O17 1.218 . S
O17 C16 1.218 . S
C18 O11 1.275 . S
C18 O13 1.255 . S
C19 O20 1.258 . S
C19 O21 1.256 . S
O20 Cd12 2.381 . S
O20 C19 1.258 . S
O21 Cd12 2.378 . S
O21 C19 1.256 . S
O22 Cd23 2.300 . S
O22 C29 1.275 . S
Cd23 O22 2.300 . S
Cd23 O31 2.381 . S
Cd23 O32 2.378 . S
O24 Cd25 2.385 . S
O24 C29 1.255 . S
Cd25 O24 2.385 . S
Cd25 O26 2.317 . S
O26 Cd25 2.317 . S
O26 C27 1.232 . S
C27 O26 1.232 . S
C27 O28 1.218 . S
O28 C27 1.218 . S
C29 O22 1.275 . S
C29 O24 1.255 . S
C30 O31 1.258 . S
C30 O32 1.256 . S
O31 Cd23 2.381 . S
O31 C30 1.258 . S
O32 Cd23 2.378 . S
O32 C30 1.256 . S
O33 Cd34 2.300 . S
O33 C40 1.275 . S
Cd34 O33 2.300 . S
Cd34 O42 2.381 . S
Cd34 O43 2.378 . S
O35 Cd36 2.385 . S
O35 C40 1.255 . S
Cd36 O35 2.385 . S
Cd36 O37 2.317 . S
O37 Cd36 2.317 . S
O37 C38 1.232 . S
C38 O37 1.232 . S
C38 O39 1.218 . S
O39 C38 1.218 . S
C40 O33 1.275 . S
C40 O35 1.255 . S
C41 O42 1.258 . S
C41 O43 1.256 . S
O42 Cd34 2.381 . S
O42 C41 1.258 . S
O43 Cd34 2.378 . S
O43 C41 1.256 . S
O44 Cd45 2.300 . S
O44 C51 1.288 . S
Cd45 O44 2.300 . S
Cd45 O53 2.381 . S
Cd45 O54 2.378 . S
O46 Cd47 2.385 . S
O46 C51 1.250 1_545 S
Cd47 O46 2.385 . S
Cd47 O48 2.317 1_545 S
O48 Cd47 2.317 1_565 S
O48 C49 1.232 . S
C49 O48 1.232 . S
C49 O50 1.218 1_565 S
O50 C49 1.218 1_545 S
C51 O44 1.288 . S
C51 O46 1.250 1_565 S
C52 O53 1.258 . S
C52 O54 1.256 . S
O53 Cd45 2.381 . S
O53 C52 1.258 . S
O54 Cd45 2.378 . S
O54 C52 1.256 . S
O55 Cd56 2.300 . S
O55 C62 1.275 . S
Cd56 O55 2.300 . S
Cd56 O64 2.381 . S
Cd56 O65 2.378 . S
O57 Cd58 2.385 . S
O57 C62 1.255 . S
Cd58 O57 2.385 . S
Cd58 O59 2.317 . S
O59 Cd58 2.317 . S
O59 C60 1.232 . S
C60 O59 1.232 . S
C60 O61 1.218 . S
O61 C60 1.218 . S
C62 O55 1.275 . S
C62 O57 1.255 . S
C63 O64 1.258 . S
C63 O65 1.256 . S
O64 Cd56 2.381 . S
O64 C63 1.258 . S
O65 Cd56 2.378 . S
O65 C63 1.256 . S
O66 Cd67 2.300 . S
O66 C73 1.275 . S
Cd67 O66 2.300 . S
Cd67 O75 2.381 . S
Cd67 O76 2.378 . S
O68 Cd69 2.402 . S
O68 C73 1.244 1_455 S
Cd69 O68 2.402 . S
Cd69 O70 2.317 1_455 S
O70 Cd69 2.317 1_655 S
O70 C71 1.210 1_655 S
C71 O70 1.210 1_455 S
C71 O72 1.266 . S
O72 C71 1.266 . S
C73 O66 1.275 . S
C73 O68 1.244 1_655 S
C74 O75 1.258 . S
C74 O76 1.256 . S
O75 Cd67 2.381 . S
O75 C74 1.258 . S
O76 Cd67 2.378 . S
O76 C74 1.256 . S
O77 Cd78 2.300 . S
O77 C84 1.275 . S
Cd78 O77 2.300 . S
Cd78 O86 2.381 . S
Cd78 O87 2.378 . S
O79 Cd80 2.385 . S
O79 C84 1.255 . S
Cd80 O79 2.385 . S
Cd80 O81 2.317 . S
O81 Cd80 2.317 . S
O81 C82 1.232 . S
C82 O81 1.232 . S
C82 O83 1.218 . S
O83 C82 1.218 . S
C84 O77 1.275 . S
C84 O79 1.255 . S
C85 O86 1.258 . S
C85 O87 1.256 . S
O86 Cd78 2.381 . S
O86 C85 1.258 . S
O87 Cd78 2.378 . S
O87 C85 1.256 . S
O88 Cd89 2.300 . S
O88 C95 1.275 . S
Cd89 O88 2.300 . S
Cd89 O97 2.381 . S
Cd89 O98 2.378 . S
O90 Cd91 2.385 . S
O90 C95 1.255 . S
Cd91 O90 2.385 . S
Cd91 O92 2.317 . S
O92 Cd91 2.317 . S
O92 C93 1.232 . S
C93 O92 1.232 . S
C93 O94 1.218 . S
O94 C93 1.218 . S
C95 O88 1.275 . S
C95 O90 1.255 . S
C96 O97 1.258 . S
C96 O98 1.256 . S
O97 Cd89 2.381 . S
O97 C96 1.258 . S
O98 Cd89 2.378 . S
O98 C96 1.256 . S
O99 Cd100 2.301 . S
O99 C106 1.275 . S
Cd100 O99 2.301 . S
Cd100 O108 2.381 1_565 S
Cd100 O109 2.377 1_565 S
O101 Cd102 2.385 . S
O101 C106 1.255 . S
Cd102 O101 2.385 . S
Cd102 O103 2.317 . S
O103 Cd102 2.317 . S
O103 C104 1.232 . S
C104 O103 1.232 . S
C104 O105 1.218 . S
O105 C104 1.218 . S
C106 O99 1.275 . S
C106 O101 1.255 . S
C107 O108 1.258 . S
C107 O109 1.256 . S
O108 Cd100 2.381 1_545 S
O108 C107 1.258 . S
O109 Cd100 2.377 1_545 S
O109 C107 1.256 . S
O110 Cd111 2.300 . S
O110 C117 1.275 . S
Cd111 O110 2.300 . S
Cd111 O119 2.381 . S
Cd111 O120 2.378 . S
O112 Cd113 2.385 . S
O112 C117 1.255 . S
Cd113 O112 2.385 . S
Cd113 O114 2.317 . S
O114 Cd113 2.317 . S
O114 C115 1.232 . S
C115 O114 1.232 . S
C115 O116 1.218 . S
O116 C115 1.218 . S
C117 O110 1.275 . S
C117 O112 1.255 . S
C118 O119 1.258 . S
C118 O120 1.256 . S
O119 Cd111 2.381 . S
O119 C118 1.258 . S
O120 Cd111 2.378 . S
O120 C118 1.256 . S
O121 Cd122 2.300 . S
O121 C128 1.275 . S
Cd122 O121 2.300 . S
Cd122 O130 2.381 . S
Cd122 O131 2.378 . S
O123 Cd124 2.385 . S
O123 C128 1.255 . S
Cd124 O123 2.385 . S
Cd124 O125 2.317 . S
O125 Cd124 2.317 . S
O125 C126 1.232 . S
C126 O125 1.232 . S
C126 O127 1.218 . S
O127 C126 1.218 . S
C128 O121 1.275 . S
C128 O123 1.255 . S
C129 O130 1.258 . S
C129 O131 1.256 . S
O130 Cd122 2.381 . S
O130 C129 1.258 . S
O131 Cd122 2.378 . S
O131 C129 1.256 . S
O132 Cd133 2.300 . S
O132 C139 1.275 . S
Cd133 O132 2.300 . S
Cd133 O141 2.381 . S
Cd133 O142 2.378 . S
O134 Cd135 2.385 . S
O134 C139 1.255 . S
Cd135 O134 2.385 . S
Cd135 O136 2.317 . S
O136 Cd135 2.317 . S
O136 C137 1.232 . S
C137 O136 1.232 . S
C137 O138 1.218 . S
O138 C137 1.218 . S
C139 O132 1.275 . S
C139 O134 1.255 . S
C140 O141 1.258 . S
C140 O142 1.256 . S
O141 Cd133 2.381 . S
O141 C140 1.258 . S
O142 Cd133 2.378 . S
O142 C140 1.256 . S
O143 Cd144 2.300 1_556 S
O143 C150 1.275 . S
Cd144 O143 2.300 1_554 S
Cd144 O152 2.381 . S
Cd144 O153 2.378 . S
O145 Cd146 2.385 . S
O145 C150 1.255 . S
Cd146 O145 2.385 . S
Cd146 O147 2.317 . S
O147 Cd146 2.317 . S
O147 C148 1.232 . S
C148 O147 1.232 . S
C148 O149 1.218 . S
O149 C148 1.218 . S
C150 O143 1.275 . S
C150 O145 1.255 . S
C151 O152 1.258 . S
C151 O153 1.256 . S
O152 Cd144 2.381 . S
O152 C151 1.258 . S
O153 Cd144 2.378 . S
O153 C151 1.256 . S
O154 Cd155 2.300 . S
O154 C161 1.275 . S
Cd155 O154 2.300 . S
Cd155 O163 2.381 . S
Cd155 O164 2.378 . S
O156 Cd157 2.385 . S
O156 C161 1.255 . S
Cd157 O156 2.385 . S
Cd157 O158 2.317 . S
O158 Cd157 2.317 . S
O158 C159 1.232 . S
C159 O158 1.232 . S
C159 O160 1.218 . S
O160 C159 1.218 . S
C161 O154 1.275 . S
C161 O156 1.255 . S
C162 O163 1.258 . S
C162 O164 1.256 . S
O163 Cd155 2.381 . S
O163 C162 1.258 . S
O164 Cd155 2.378 . S
O164 C162 1.256 . S
O165 Cd166 2.300 1_556 S
O165 C172 1.275 . S
Cd166 O165 2.300 1_554 S
Cd166 O174 2.381 1_554 S
Cd166 O175 2.378 . S
O167 Cd168 2.385 1_556 S
O167 C172 1.255 . S
Cd168 O167 2.385 1_554 S
Cd168 O169 2.317 . S
O169 Cd168 2.317 . S
O169 C170 1.232 . S
C170 O169 1.232 . S
C170 O171 1.218 . S
O171 C170 1.218 . S
C172 O165 1.275 . S
C172 O167 1.255 . S
C173 O174 1.209 1_554 S
C173 O175 1.304 . S
O174 Cd166 2.381 1_556 S
O174 C173 1.209 1_556 S
O175 Cd166 2.378 . S
O175 C173 1.304 . S
Mn176 O181 2.095 . S
Mn176 O191 2.162 . S
Mn176 O192 2.297 . S
Mn176 O200 2.385 . S
Mn176 O201 2.209 1_554 S
Mn176 O202 2.094 . S
Mn177 O182 2.121 . S
Mn177 N184 2.257 . S
Mn177 N193 2.282 . S
Mn177 O201 2.215 . S
Mn177 O203 2.117 . S
C178 O200 1.234 1_556 S
C178 O201 1.283 . S
C179 O191 1.281 . S
C179 O192 1.236 . S
C180 O202 1.240 . S
C180 O203 1.264 1_554 S
O181 Mn176 2.095 . S
O181 C190 1.250 . S
O182 Mn177 2.121 . S
O182 C190 1.258 1_556 S
C183 N184 1.326 . S
C183 C187 1.460 . S
C183 H189 0.929 . S
N184 Mn177 2.257 . S
N184 C183 1.326 . S
N184 C188 1.362 . S
C185 C186 1.258 . S
C185 C188 1.431 . S
C185 C205 1.449 . S
C186 C185 1.258 . S
C186 C187 1.477 . S
C186 H206 0.931 . S
C187 C183 1.460 . S
C187 C186 1.477 . S
C187 H207 0.930 . S
C188 N184 1.362 . S
C188 C185 1.431 . S
C188 C198 1.476 . S
H189 C183 0.929 . S
C190 O181 1.250 . S
C190 O182 1.258 1_554 S
O191 Mn176 2.162 . S
O191 C179 1.281 . S
O192 Mn176 2.297 . S
O192 C179 1.236 . S
N193 Mn177 2.282 . S
N193 C194 1.328 . S
N193 C198 1.318 . S
C194 N193 1.328 . S
C194 C195 1.457 . S
C194 H199 0.929 . S
C195 C194 1.457 . S
C195 C196 1.291 . S
C195 H208 0.931 . S
C196 C195 1.291 . S
C196 C197 1.373 . S
C196 H209 0.929 . S
C197 C196 1.373 . S
C197 C198 1.396 . S
C197 C204 1.403 . S
C198 C188 1.476 . S
C198 N193 1.318 . S
C198 C197 1.396 . S
H199 C194 0.929 . S
O200 Mn176 2.385 . S
O200 C178 1.234 1_554 S
O201 Mn176 2.209 1_556 S
O201 Mn177 2.215 . S
O201 C178 1.283 . S
O202 Mn176 2.094 . S
O202 C180 1.240 . S
O203 Mn177 2.117 . S
O203 C180 1.264 1_556 S
C204 C197 1.403 . S
C204 C205 1.399 . S
C204 H210 0.929 . S
C205 C185 1.449 . S
C205 C204 1.399 . S
C205 H211 0.930 . S
H206 C186 0.931 . S
H207 C187 0.930 . S
H208 C195 0.931 . S
H209 C196 0.929 . S
H210 C204 0.929 . S
H211 C205 0.930 . S
Mn212 O217 2.095 . S
Mn212 O227 2.162 . S
Mn212 O228 2.297 . S
Mn212 O236 2.385 . S
Mn212 O237 2.209 . S
Mn212 O238 2.094 . S
Mn213 O218 2.121 . S
Mn213 N220 2.257 . S
Mn213 N229 2.282 . S
Mn213 O237 2.215 . S
Mn213 O239 2.117 . S
C214 O236 1.234 . S
C214 O237 1.283 . S
C215 O227 1.281 . S
C215 O228 1.236 . S
C216 O238 1.240 . S
C216 O239 1.264 . S
O217 Mn212 2.095 . S
O217 C226 1.250 . S
O218 Mn213 2.121 . S
O218 C226 1.258 . S
C219 N220 1.326 . S
C219 C223 1.460 . S
C219 H225 0.929 . S
N220 Mn213 2.257 . S
N220 C219 1.326 . S
N220 C224 1.362 . S
C221 C222 1.258 . S
C221 C224 1.431 . S
C221 C241 1.449 . S
C222 C221 1.258 . S
C222 C223 1.477 . S
C222 H242 0.931 . S
C223 C219 1.460 . S
C223 C222 1.477 . S
C223 H243 0.930 . S
C224 N220 1.362 . S
C224 C221 1.431 . S
C224 C234 1.476 . S
H225 C219 0.929 . S
C226 O217 1.250 . S
C226 O218 1.258 . S
O227 Mn212 2.162 . S
O227 C215 1.281 . S
O228 Mn212 2.297 . S
O228 C215 1.236 . S
N229 Mn213 2.282 . S
N229 C230 1.328 . S
N229 C234 1.318 . S
C230 N229 1.328 . S
C230 C231 1.457 . S
C230 H235 0.929 . S
C231 C230 1.457 . S
C231 C232 1.291 . S
C231 H244 0.931 . S
C232 C231 1.291 . S
C232 C233 1.373 . S
C232 H245 0.929 . S
C233 C232 1.373 . S
C233 C234 1.396 . S
C233 C240 1.403 . S
C234 C224 1.476 . S
C234 N229 1.318 . S
C234 C233 1.396 . S
H235 C230 0.929 . S
O236 Mn212 2.385 . S
O236 C214 1.234 . S
O237 Mn212 2.209 . S
O237 Mn213 2.215 . S
O237 C214 1.283 . S
O238 Mn212 2.094 . S
O238 C216 1.240 . S
O239 Mn213 2.117 . S
O239 C216 1.264 . S
C240 C233 1.403 . S
C240 C241 1.399 . S
C240 H246 0.929 . S
C241 C221 1.449 . S
C241 C240 1.399 . S
C241 H247 0.930 . S
H242 C222 0.931 . S
H243 C223 0.930 . S
H244 C231 0.931 . S
H245 C232 0.929 . S
H246 C240 0.929 . S
H247 C241 0.930 . S
Mn248 O253 2.095 1_554 S
Mn248 O263 2.162 . S
Mn248 O264 2.297 1_554 S
Mn248 O272 2.385 . S
Mn248 O273 2.209 1_554 S
Mn248 O274 2.094 . S
Mn249 O254 2.121 . S
Mn249 N256 2.257 . S
Mn249 N265 2.282 . S
Mn249 O273 2.215 . S
Mn249 O275 2.117 1_556 S
C250 O272 1.234 . S
C250 O273 1.283 1_554 S
C251 O263 1.281 . S
C251 O264 1.236 1_554 S
C252 O274 1.240 . S
C252 O275 1.264 . S
O253 Mn248 2.095 1_556 S
O253 C262 1.250 . S
O254 Mn249 2.121 . S
O254 C262 1.258 . S
C255 N256 1.326 . S
C255 C259 1.460 . S
C255 H261 0.929 . S
N256 Mn249 2.257 . S
N256 C255 1.326 . S
N256 C260 1.362 . S
C257 C258 1.258 . S
C257 C260 1.431 . S
C257 C277 1.449 . S
C258 C257 1.258 . S
C258 C259 1.477 . S
C258 H278 0.931 . S
C259 C255 1.460 . S
C259 C258 1.477 . S
C259 H279 0.930 . S
C260 N256 1.362 . S
C260 C257 1.431 . S
C260 C270 1.476 . S
H261 C255 0.929 . S
C262 O253 1.250 . S
C262 O254 1.258 . S
O263 Mn248 2.162 . S
O263 C251 1.281 . S
O264 Mn248 2.297 1_556 S
O264 C251 1.236 1_556 S
N265 Mn249 2.282 . S
N265 C266 1.328 1_556 S
N265 C270 1.318 . S
C266 N265 1.328 1_554 S
C266 C267 1.457 . S
C266 H271 0.929 . S
C267 C266 1.457 . S
C267 C268 1.291 . S
C267 H280 0.931 . S
C268 C267 1.291 . S
C268 C269 1.373 1_554 S
C268 H281 0.929 . S
C269 C268 1.373 1_556 S
C269 C270 1.396 . S
C269 C276 1.403 . S
C270 C260 1.476 . S
C270 N265 1.318 . S
C270 C269 1.396 . S
H271 C266 0.929 . S
O272 Mn248 2.385 . S
O272 C250 1.234 . S
O273 Mn248 2.209 1_556 S
O273 Mn249 2.215 . S
O273 C250 1.283 1_556 S
O274 Mn248 2.094 . S
O274 C252 1.240 . S
O275 Mn249 2.117 1_554 S
O275 C252 1.264 . S
C276 C269 1.403 . S
C276 C277 1.399 . S
C276 H282 0.929 . S
C277 C257 1.449 . S
C277 C276 1.399 . S
C277 H283 0.930 . S
H278 C258 0.931 . S
H279 C259 0.930 . S
H280 C267 0.931 . S
H281 C268 0.929 . S
H282 C276 0.929 . S
H283 C277 0.930 . S
Mn284 O289 2.095 . S
Mn284 O299 2.162 . S
Mn284 O300 2.297 . S
Mn284 O308 2.385 . S
Mn284 O309 2.166 1_545 S
Mn284 O310 2.094 . S
Mn285 O290 2.122 . S
Mn285 N292 2.257 . S
Mn285 N301 2.282 . S
Mn285 O309 2.237 . S
Mn285 O311 2.117 1_565 S
C286 O308 1.198 1_565 S
C286 O309 1.283 . S
C287 O299 1.281 . S
C287 O300 1.236 . S
C288 O310 1.240 . S
C288 O311 1.264 . S
O289 Mn284 2.095 . S
O289 C298 1.250 . S
O290 Mn285 2.122 . S
O290 C298 1.257 1_565 S
C291 N292 1.326 . S
C291 C295 1.460 . S
C291 H297 0.929 . S
N292 Mn285 2.257 . S
N292 C291 1.326 . S
N292 C296 1.362 . S
C293 C294 1.258 . S
C293 C296 1.431 . S
C293 C313 1.449 . S
C294 C293 1.258 . S
C294 C295 1.477 . S
C294 H314 0.931 . S
C295 C291 1.460 . S
C295 C294 1.477 . S
C295 H315 0.930 . S
C296 N292 1.362 . S
C296 C293 1.431 . S
C296 C306 1.476 . S
H297 C291 0.929 . S
C298 O289 1.250 . S
C298 O290 1.257 1_545 S
O299 Mn284 2.162 . S
O299 C287 1.281 . S
O300 Mn284 2.297 . S
O300 C287 1.236 . S
N301 Mn285 2.282 . S
N301 C302 1.328 . S
N301 C306 1.318 . S
C302 N301 1.328 . S
C302 C303 1.457 . S
C302 H307 0.929 . S
C303 C302 1.457 . S
C303 C304 1.291 . S
C303 H316 0.931 . S
C304 C303 1.291 . S
C304 C305 1.373 . S
C304 H317 0.929 . S
C305 C304 1.373 . S
C305 C306 1.396 . S
C305 C312 1.403 . S
C306 C296 1.476 . S
C306 N301 1.318 . S
C306 C305 1.396 . S
H307 C302 0.929 . S
O308 Mn284 2.385 . S
O308 C286 1.198 1_545 S
O309 Mn284 2.166 1_565 S
O309 Mn285 2.237 . S
O309 C286 1.283 . S
O310 Mn284 2.094 . S
O310 C288 1.240 . S
O311 Mn285 2.117 1_545 S
O311 C288 1.264 . S
C312 C305 1.403 . S
C312 C313 1.399 . S
C312 H318 0.929 . S
C313 C293 1.449 . S
C313 C312 1.399 . S
C313 H319 0.930 . S
H314 C294 0.931 . S
H315 C295 0.930 . S
H316 C303 0.931 . S
H317 C304 0.929 . S
H318 C312 0.929 . S
H319 C313 0.930 . S
Mn320 O325 2.095 . S
Mn320 O335 2.162 . S
Mn320 O336 2.297 . S
Mn320 O344 2.385 . S
Mn320 O345 2.209 . S
Mn320 O346 2.094 . S
Mn321 O326 2.121 . S
Mn321 N328 2.257 . S
Mn321 N337 2.282 . S
Mn321 O345 2.215 . S
Mn321 O347 2.117 . S
C322 O344 1.234 . S
C322 O345 1.283 . S
C323 O335 1.281 . S
C323 O336 1.236 . S
C324 O346 1.240 . S
C324 O347 1.264 . S
O325 Mn320 2.095 . S
O325 C334 1.250 . S
O326 Mn321 2.121 . S
O326 C334 1.258 . S
C327 N328 1.326 . S
C327 C331 1.460 . S
C327 H333 0.929 . S
N328 Mn321 2.257 . S
N328 C327 1.326 . S
N328 C332 1.362 . S
C329 C330 1.258 . S
C329 C332 1.431 . S
C329 C349 1.449 . S
C330 C329 1.258 . S
C330 C331 1.477 . S
C330 H350 0.931 . S
C331 C327 1.460 . S
C331 C330 1.477 . S
C331 H351 0.930 . S
C332 N328 1.362 . S
C332 C329 1.431 . S
C332 C342 1.476 . S
H333 C327 0.929 . S
C334 O325 1.250 . S
C334 O326 1.258 . S
O335 Mn320 2.162 . S
O335 C323 1.281 . S
O336 Mn320 2.297 . S
O336 C323 1.236 . S
N337 Mn321 2.282 . S
N337 C338 1.328 . S
N337 C342 1.318 . S
C338 N337 1.328 . S
C338 C339 1.457 . S
C338 H343 0.929 . S
C339 C338 1.457 . S
C339 C340 1.291 . S
C339 H352 0.931 . S
C340 C339 1.291 . S
C340 C341 1.373 . S
C340 H353 0.929 . S
C341 C340 1.373 . S
C341 C342 1.396 . S
C341 C348 1.403 . S
C342 C332 1.476 . S
C342 N337 1.318 . S
C342 C341 1.396 . S
H343 C338 0.929 . S
O344 Mn320 2.385 . S
O344 C322 1.234 . S
O345 Mn320 2.209 . S
O345 Mn321 2.215 . S
O345 C322 1.283 . S
O346 Mn320 2.094 . S
O346 C324 1.240 . S
O347 Mn321 2.117 . S
O347 C324 1.264 . S
C348 C341 1.403 . S
C348 C349 1.399 . S
C348 H354 0.929 . S
C349 C329 1.449 . S
C349 C348 1.399 . S
C349 H355 0.930 . S
H350 C330 0.931 . S
H351 C331 0.930 . S
H352 C339 0.931 . S
H353 C340 0.929 . S
H354 C348 0.929 . S
H355 C349 0.930 . S
Mn356 O361 2.095 . S
Mn356 O371 2.162 . S
Mn356 O372 2.297 . S
Mn356 O380 2.385 . S
Mn356 O381 2.209 . S
Mn356 O382 2.094 . S
Mn357 O362 2.121 . S
Mn357 N364 2.257 . S
Mn357 N373 2.282 . S
Mn357 O381 2.215 . S
Mn357 O383 2.117 . S
C358 O380 1.234 . S
C358 O381 1.283 . S
C359 O371 1.281 . S
C359 O372 1.236 . S
C360 O382 1.240 . S
C360 O383 1.264 . S
O361 Mn356 2.095 . S
O361 C370 1.250 . S
O362 Mn357 2.121 . S
O362 C370 1.258 . S
C363 N364 1.326 . S
C363 C367 1.460 . S
C363 H369 0.929 . S
N364 Mn357 2.257 . S
N364 C363 1.326 . S
N364 C368 1.362 . S
C365 C366 1.258 . S
C365 C368 1.431 . S
C365 C385 1.449 . S
C366 C365 1.258 . S
C366 C367 1.477 . S
C366 H386 0.931 . S
C367 C363 1.460 . S
C367 C366 1.477 . S
C367 H387 0.930 . S
C368 N364 1.362 . S
C368 C365 1.431 . S
C368 C378 1.476 . S
H369 C363 0.929 . S
C370 O361 1.250 . S
C370 O362 1.258 . S
O371 Mn356 2.162 . S
O371 C359 1.281 . S
O372 Mn356 2.297 . S
O372 C359 1.236 . S
N373 Mn357 2.282 . S
N373 C374 1.328 . S
N373 C378 1.318 . S
C374 N373 1.328 . S
C374 C375 1.457 . S
C374 H379 0.929 . S
C375 C374 1.457 . S
C375 C376 1.291 . S
C375 H388 0.931 . S
C376 C375 1.291 . S
C376 C377 1.373 . S
C376 H389 0.929 . S
C377 C376 1.373 . S
C377 C378 1.396 . S
C377 C384 1.403 . S
C378 C368 1.476 . S
C378 N373 1.318 . S
C378 C377 1.396 . S
H379 C374 0.929 . S
O380 Mn356 2.385 . S
O380 C358 1.234 . S
O381 Mn356 2.209 . S
O381 Mn357 2.215 . S
O381 C358 1.283 . S
O382 Mn356 2.094 . S
O382 C360 1.240 . S
O383 Mn357 2.117 . S
O383 C360 1.264 . S
C384 C377 1.403 . S
C384 C385 1.399 . S
C384 H390 0.929 . S
C385 C365 1.449 . S
C385 C384 1.399 . S
C385 H391 0.930 . S
H386 C366 0.931 . S
H387 C367 0.930 . S
H388 C375 0.931 . S
H389 C376 0.929 . S
H390 C384 0.929 . S
H391 C385 0.930 . S
Mn392 O397 2.095 . S
Mn392 O407 2.162 . S
Mn392 O408 2.297 . S
Mn392 O416 2.385 . S
Mn392 O417 2.209 . S
Mn392 O418 2.094 . S
Mn393 O398 2.121 . S
Mn393 N400 2.257 . S
Mn393 N409 2.282 . S
Mn393 O417 2.215 . S
Mn393 O419 2.117 . S
C394 O416 1.234 . S
C394 O417 1.283 . S
C395 O407 1.281 . S
C395 O408 1.236 . S
C396 O418 1.240 . S
C396 O419 1.264 . S
O397 Mn392 2.095 . S
O397 C406 1.250 . S
O398 Mn393 2.121 . S
O398 C406 1.258 . S
C399 N400 1.326 . S
C399 C403 1.460 . S
C399 H405 0.929 . S
N400 Mn393 2.257 . S
N400 C399 1.326 . S
N400 C404 1.362 . S
C401 C402 1.258 . S
C401 C404 1.431 . S
C401 C421 1.449 . S
C402 C401 1.258 . S
C402 C403 1.477 . S
C402 H422 0.931 . S
C403 C399 1.460 . S
C403 C402 1.477 . S
C403 H423 0.930 . S
C404 N400 1.362 . S
C404 C401 1.431 . S
C404 C414 1.476 . S
H405 C399 0.929 . S
C406 O397 1.250 . S
C406 O398 1.258 . S
O407 Mn392 2.162 . S
O407 C395 1.281 . S
O408 Mn392 2.297 . S
O408 C395 1.236 . S
N409 Mn393 2.282 . S
N409 C410 1.328 . S
N409 C414 1.318 . S
C410 N409 1.328 . S
C410 C411 1.457 . S
C410 H415 0.929 . S
C411 C410 1.457 . S
C411 C412 1.291 . S
C411 H424 0.931 . S
C412 C411 1.291 . S
C412 C413 1.373 . S
C412 H425 0.929 . S
C413 C412 1.373 . S
C413 C414 1.396 . S
C413 C420 1.403 . S
C414 C404 1.476 . S
C414 N409 1.318 . S
C414 C413 1.396 . S
H415 C410 0.929 . S
O416 Mn392 2.385 . S
O416 C394 1.234 . S
O417 Mn392 2.209 . S
O417 Mn393 2.215 . S
O417 C394 1.283 . S
O418 Mn392 2.094 . S
O418 C396 1.240 . S
O419 Mn393 2.117 . S
O419 C396 1.264 . S
C420 C413 1.403 . S
C420 C421 1.399 . S
C420 H426 0.929 . S
C421 C401 1.449 . S
C421 C420 1.399 . S
C421 H427 0.930 . S
H422 C402 0.931 . S
H423 C403 0.930 . S
H424 C411 0.931 . S
H425 C412 0.929 . S
H426 C420 0.929 . S
H427 C421 0.930 . S
Mn428 O433 2.095 . S
Mn428 O443 2.162 . S
Mn428 O444 2.297 . S
Mn428 O452 2.385 1_565 S
Mn428 O453 2.209 1_565 S
Mn428 O454 2.094 . S
Mn429 O434 2.121 . S
Mn429 N436 2.257 . S
Mn429 N445 2.282 . S
Mn429 O453 2.215 . S
Mn429 O455 2.117 . S
C430 O452 1.234 . S
C430 O453 1.283 . S
C431 O443 1.281 . S
C431 O444 1.236 . S
C432 O454 1.240 1_545 S
C432 O455 1.264 . S
O433 Mn428 2.095 . S
O433 C442 1.250 1_565 S
O434 Mn429 2.121 . S
O434 C442 1.258 . S
C435 N436 1.326 . S
C435 C439 1.460 . S
C435 H441 0.929 . S
N436 Mn429 2.257 . S
N436 C435 1.326 . S
N436 C440 1.362 . S
C437 C438 1.258 . S
C437 C440 1.431 . S
C437 C457 1.449 . S
C438 C437 1.258 . S
C438 C439 1.477 . S
C438 H458 0.931 . S
C439 C435 1.460 . S
C439 C438 1.477 . S
C439 H459 0.930 . S
C440 N436 1.362 . S
C440 C437 1.431 . S
C440 C450 1.476 . S
H441 C435 0.929 . S
C442 O433 1.250 1_545 S
C442 O434 1.258 . S
O443 Mn428 2.162 . S
O443 C431 1.281 . S
O444 Mn428 2.297 . S
O444 C431 1.236 . S
N445 Mn429 2.282 . S
N445 C446 1.328 . S
N445 C450 1.318 . S
C446 N445 1.328 . S
C446 C447 1.457 . S
C446 H451 0.929 . S
C447 C446 1.457 . S
C447 C448 1.291 . S
C447 H460 0.931 . S
C448 C447 1.291 . S
C448 C449 1.373 . S
C448 H461 0.929 . S
C449 C448 1.373 . S
C449 C450 1.396 . S
C449 C456 1.403 . S
C450 C440 1.476 . S
C450 N445 1.318 . S
C450 C449 1.396 . S
H451 C446 0.929 . S
O452 Mn428 2.385 1_545 S
O452 C430 1.234 . S
O453 Mn428 2.209 1_545 S
O453 Mn429 2.215 . S
O453 C430 1.283 . S
O454 Mn428 2.094 . S
O454 C432 1.240 1_565 S
O455 Mn429 2.117 . S
O455 C432 1.264 . S
C456 C449 1.403 . S
C456 C457 1.399 . S
C456 H462 0.929 . S
C457 C437 1.449 . S
C457 C456 1.399 . S
C457 H463 0.930 . S
H458 C438 0.931 . S
H459 C439 0.930 . S
H460 C447 0.931 . S
H461 C448 0.929 . S
H462 C456 0.929 . S
H463 C457 0.930 . S
Mn464 O469 2.095 . S
Mn464 O479 2.162 . S
Mn464 O480 2.297 . S
Mn464 O488 2.385 1_455 S
Mn464 O489 2.209 1_455 S
Mn464 O490 2.094 . S
Mn465 O470 2.121 . S
Mn465 N472 2.257 . S
Mn465 N481 2.282 . S
Mn465 O489 2.215 . S
Mn465 O491 2.117 . S
C466 O488 1.234 . S
C466 O489 1.283 . S
C467 O479 1.281 . S
C467 O480 1.236 . S
C468 O490 1.240 . S
C468 O491 1.264 1_455 S
O469 Mn464 2.095 . S
O469 C478 1.250 . S
O470 Mn465 2.121 . S
O470 C478 1.258 1_655 S
C471 N472 1.326 . S
C471 C475 1.460 . S
C471 H477 0.929 . S
N472 Mn465 2.257 . S
N472 C471 1.326 . S
N472 C476 1.362 . S
C473 C474 1.258 . S
C473 C476 1.431 . S
C473 C493 1.449 . S
C474 C473 1.258 . S
C474 C475 1.477 . S
C474 H494 0.931 . S
C475 C471 1.460 . S
C475 C474 1.477 . S
C475 H495 0.930 . S
C476 N472 1.362 . S
C476 C473 1.431 . S
C476 C486 1.476 . S
H477 C471 0.929 . S
C478 O469 1.250 . S
C478 O470 1.258 1_455 S
O479 Mn464 2.162 . S
O479 C467 1.281 . S
O480 Mn464 2.297 . S
O480 C467 1.236 . S
N481 Mn465 2.282 . S
N481 C482 1.328 . S
N481 C486 1.318 . S
C482 N481 1.328 . S
C482 C483 1.457 . S
C482 H487 0.929 . S
C483 C482 1.457 . S
C483 C484 1.291 . S
C483 H496 0.931 . S
C484 C483 1.291 . S
C484 C485 1.373 . S
C484 H497 0.929 . S
C485 C484 1.373 . S
C485 C486 1.396 . S
C485 C492 1.403 . S
C486 C476 1.476 . S
C486 N481 1.318 . S
C486 C485 1.396 . S
H487 C482 0.929 . S
O488 Mn464 2.385 1_655 S
O488 C466 1.234 . S
O489 Mn464 2.209 1_655 S
O489 Mn465 2.215 . S
O489 C466 1.283 . S
O490 Mn464 2.094 . S
O490 C468 1.240 . S
O491 Mn465 2.117 . S
O491 C468 1.264 1_655 S
C492 C485 1.403 . S
C492 C493 1.399 . S
C492 H498 0.929 . S
C493 C473 1.449 . S
C493 C492 1.399 . S
C493 H499 0.930 . S
H494 C474 0.931 . S
H495 C475 0.930 . S
H496 C483 0.931 . S
H497 C484 0.929 . S
H498 C492 0.929 . S
H499 C493 0.930 . S
Mn500 O505 2.095 . S
Mn500 O515 2.162 . S
Mn500 O516 2.297 . S
Mn500 O524 2.385 . S
Mn500 O525 2.209 . S
Mn500 O526 2.094 . S
Mn501 O506 2.121 . S
Mn501 N508 2.257 . S
Mn501 N517 2.282 . S
Mn501 O525 2.215 . S
Mn501 O527 2.117 . S
C502 O524 1.234 . S
C502 O525 1.283 . S
C503 O515 1.281 . S
C503 O516 1.236 . S
C504 O526 1.240 . S
C504 O527 1.264 . S
O505 Mn500 2.095 . S
O505 C514 1.250 . S
O506 Mn501 2.121 . S
O506 C514 1.258 . S
C507 N508 1.326 . S
C507 C511 1.460 . S
C507 H513 0.929 . S
N508 Mn501 2.257 . S
N508 C507 1.326 . S
N508 C512 1.362 . S
C509 C510 1.258 . S
C509 C512 1.431 . S
C509 C529 1.449 . S
C510 C509 1.258 . S
C510 C511 1.477 . S
C510 H530 0.931 . S
C511 C507 1.460 . S
C511 C510 1.477 . S
C511 H531 0.930 . S
C512 N508 1.362 . S
C512 C509 1.431 . S
C512 C522 1.476 . S
H513 C507 0.929 . S
C514 O505 1.250 . S
C514 O506 1.258 . S
O515 Mn500 2.162 . S
O515 C503 1.281 . S
O516 Mn500 2.297 . S
O516 C503 1.236 . S
N517 Mn501 2.282 . S
N517 C518 1.328 . S
N517 C522 1.318 . S
C518 N517 1.328 . S
C518 C519 1.457 . S
C518 H523 0.929 . S
C519 C518 1.457 . S
C519 C520 1.291 . S
C519 H532 0.931 . S
C520 C519 1.291 . S
C520 C521 1.373 . S
C520 H533 0.929 . S
C521 C520 1.373 . S
C521 C522 1.396 . S
C521 C528 1.403 . S
C522 C512 1.476 . S
C522 N517 1.318 . S
C522 C521 1.396 . S
H523 C518 0.929 . S
O524 Mn500 2.385 . S
O524 C502 1.234 . S
O525 Mn500 2.209 . S
O525 Mn501 2.215 . S
O525 C502 1.283 . S
O526 Mn500 2.094 . S
O526 C504 1.240 . S
O527 Mn501 2.117 . S
O527 C504 1.264 . S
C528 C521 1.403 . S
C528 C529 1.399 . S
C528 H534 0.929 . S
C529 C509 1.449 . S
C529 C528 1.399 . S
C529 H535 0.930 . S
H530 C510 0.931 . S
H531 C511 0.930 . S
H532 C519 0.931 . S
H533 C520 0.929 . S
H534 C528 0.929 . S
H535 C529 0.930 . S
Mn536 O541 2.095 . S
Mn536 O551 2.162 . S
Mn536 O552 2.297 . S
Mn536 O560 2.385 . S
Mn536 O561 2.209 . S
Mn536 O562 2.094 . S
Mn537 O542 2.121 1_455 S
Mn537 N544 2.257 1_455 S
Mn537 N553 2.282 . S
Mn537 O561 2.215 . S
Mn537 O563 2.117 . S
C538 O560 1.234 . S
C538 O561 1.283 . S
C539 O551 1.281 . S
C539 O552 1.236 . S
C540 O562 1.240 . S
C540 O563 1.264 . S
O541 Mn536 2.095 . S
O541 C550 1.250 . S
O542 Mn537 2.121 1_655 S
O542 C550 1.258 1_655 S
C543 N544 1.326 . S
C543 C547 1.460 . S
C543 H549 0.929 . S
N544 Mn537 2.257 1_655 S
N544 C543 1.326 . S
N544 C548 1.362 . S
C545 C546 1.258 . S
C545 C548 1.431 . S
C545 C565 1.449 . S
C546 C545 1.258 . S
C546 C547 1.477 . S
C546 H566 0.931 . S
C547 C543 1.460 . S
C547 C546 1.477 . S
C547 H567 0.930 . S
C548 N544 1.362 . S
C548 C545 1.431 . S
C548 C558 1.476 1_655 S
H549 C543 0.929 . S
C550 O541 1.250 . S
C550 O542 1.258 1_455 S
O551 Mn536 2.162 . S
O551 C539 1.281 . S
O552 Mn536 2.297 . S
O552 C539 1.236 . S
N553 Mn537 2.282 . S
N553 C554 1.328 . S
N553 C558 1.318 . S
C554 N553 1.328 . S
C554 C555 1.457 . S
C554 H559 0.929 . S
C555 C554 1.457 . S
C555 C556 1.291 . S
C555 H568 0.931 . S
C556 C555 1.291 . S
C556 C557 1.373 . S
C556 H569 0.929 . S
C557 C556 1.373 . S
C557 C558 1.396 . S
C557 C564 1.403 1_455 S
C558 C548 1.476 1_455 S
C558 N553 1.318 . S
C558 C557 1.396 . S
H559 C554 0.929 . S
O560 Mn536 2.385 . S
O560 C538 1.234 . S
O561 Mn536 2.209 . S
O561 Mn537 2.215 . S
O561 C538 1.283 . S
O562 Mn536 2.094 . S
O562 C540 1.240 . S
O563 Mn537 2.117 . S
O563 C540 1.264 . S
C564 C557 1.403 1_655 S
C564 C565 1.399 . S
C564 H570 0.929 . S
C565 C545 1.449 . S
C565 C564 1.399 . S
C565 H571 0.930 . S
H566 C546 0.931 . S
H567 C547 0.930 . S
H568 C555 0.931 . S
H569 C556 0.929 . S
H570 C564 0.929 . S
H571 C565 0.930 . S
Mn572 O577 2.095 . S
Mn572 O587 2.162 . S
Mn572 O588 2.297 . S
Mn572 O596 2.385 . S
Mn572 O597 2.209 . S
Mn572 O598 2.094 . S
Mn573 O578 2.121 . S
Mn573 N580 2.257 . S
Mn573 N589 2.282 . S
Mn573 O597 2.215 . S
Mn573 O599 2.117 . S
C574 O596 1.234 . S
C574 O597 1.283 . S
C575 O587 1.281 . S
C575 O588 1.236 . S
C576 O598 1.240 . S
C576 O599 1.264 . S
O577 Mn572 2.095 . S
O577 C586 1.250 . S
O578 Mn573 2.121 . S
O578 C586 1.258 . S
C579 N580 1.326 . S
C579 C583 1.460 . S
C579 H585 0.929 . S
N580 Mn573 2.257 . S
N580 C579 1.326 . S
N580 C584 1.362 . S
C581 C582 1.258 . S
C581 C584 1.431 . S
C581 C601 1.449 . S
C582 C581 1.258 . S
C582 C583 1.477 . S
C582 H602 0.931 . S
C583 C579 1.460 . S
C583 C582 1.477 . S
C583 H603 0.930 . S
C584 N580 1.362 . S
C584 C581 1.431 . S
C584 C594 1.476 . S
H585 C579 0.929 . S
C586 O577 1.250 . S
C586 O578 1.258 . S
O587 Mn572 2.162 . S
O587 C575 1.281 . S
O588 Mn572 2.297 . S
O588 C575 1.236 . S
N589 Mn573 2.282 . S
N589 C590 1.328 . S
N589 C594 1.318 . S
C590 N589 1.328 . S
C590 C591 1.457 . S
C590 H595 0.929 . S
C591 C590 1.457 . S
C591 C592 1.291 . S
C591 H604 0.931 . S
C592 C591 1.291 . S
C592 C593 1.373 . S
C592 H605 0.929 . S
C593 C592 1.373 . S
C593 C594 1.396 . S
C593 C600 1.403 . S
C594 C584 1.476 . S
C594 N589 1.318 . S
C594 C593 1.396 . S
H595 C590 0.929 . S
O596 Mn572 2.385 . S
O596 C574 1.234 . S
O597 Mn572 2.209 . S
O597 Mn573 2.215 . S
O597 C574 1.283 . S
O598 Mn572 2.094 . S
O598 C576 1.240 . S
O599 Mn573 2.117 . S
O599 C576 1.264 . S
C600 C593 1.403 . S
C600 C601 1.399 . S
C600 H606 0.929 . S
C601 C581 1.449 . S
C601 C600 1.399 . S
C601 H607 0.930 . S
H602 C582 0.931 . S
H603 C583 0.930 . S
H604 C591 0.931 . S
H605 C592 0.929 . S
H606 C600 0.929 . S
H607 C601 0.930 . S
C608 C609 1.349 . S
C608 C610 1.327 . S
C608 H633 0.950 . S
C609 C608 1.349 . S
C609 C625 1.349 . S
C610 C608 1.327 . S
C610 C629 1.429 . S
C610 H634 0.950 . S
C611 C628 1.574 . S
C611 C630 1.368 . S
C611 H635 0.949 . S
H612 C616 0.949 . S
C613 C614 1.349 . S
C613 C615 1.327 . S
C613 H636 0.950 . S
C614 C613 1.349 . S
C614 C626 1.349 . S
C615 C613 1.327 . S
C615 C631 1.429 . S
C615 H637 0.950 . S
C616 H612 0.949 . S
C616 C624 1.574 . S
C616 C632 1.368 . S
H617 C625 0.950 . S
H618 C623 0.950 . S
H619 C624 0.949 . S
H620 C626 0.950 . S
H621 C627 0.950 . S
H622 C628 0.949 . S
C623 H618 0.950 . S
C623 C625 1.327 . S
C623 C629 1.429 . S
C624 C616 1.574 . S
C624 H619 0.949 . S
C624 C630 1.368 . S
C625 C609 1.349 . S
C625 H617 0.950 . S
C625 C623 1.327 . S
C626 C614 1.349 . S
C626 H620 0.950 . S
C626 C627 1.327 . S
C627 H621 0.950 . S
C627 C626 1.327 . S
C627 C631 1.429 . S
C628 C611 1.574 . S
C628 H622 0.949 . S
C628 C632 1.368 . S
C629 C610 1.429 . S
C629 C623 1.429 . S
C629 C630 1.523 . S
C630 C611 1.368 . S
C630 C624 1.368 . S
C630 C629 1.523 . S
C631 C615 1.429 . S
C631 C627 1.429 . S
C631 C632 1.523 . S
C632 C616 1.368 . S
C632 C628 1.368 . S
C632 C631 1.523 . S
H633 C608 0.950 . S
H634 C610 0.950 . S
H635 C611 0.949 . S
H636 C613 0.950 . S
H637 C615 0.950 . S
C638 C639 1.349 . S
C638 C640 1.327 . S
C638 H663 0.950 . S
C639 C638 1.349 . S
C639 C655 1.349 . S
C640 C638 1.327 . S
C640 C659 1.429 . S
C640 H664 0.950 . S
C641 C658 1.574 . S
C641 C660 1.368 . S
C641 H665 0.949 . S
H642 C646 0.949 . S
C643 C644 1.349 . S
C643 C645 1.327 . S
C643 H666 0.950 . S
C644 C643 1.349 . S
C644 C656 1.349 . S
C645 C643 1.327 . S
C645 C661 1.429 . S
C645 H667 0.950 . S
C646 H642 0.949 . S
C646 C654 1.574 . S
C646 C662 1.368 . S
H647 C655 0.950 1_655 S
H648 C653 0.950 . S
H649 C654 0.949 . S
H650 C656 0.950 . S
H651 C657 0.950 . S
H652 C658 0.949 . S
C653 H648 0.950 . S
C653 C655 1.327 . S
C653 C659 1.429 . S
C654 C646 1.574 . S
C654 H649 0.949 . S
C654 C660 1.368 . S
C655 C639 1.349 . S
C655 H647 0.950 1_455 S
C655 C653 1.327 . S
C656 C644 1.349 . S
C656 H650 0.950 . S
C656 C657 1.327 . S
C657 H651 0.950 . S
C657 C656 1.327 . S
C657 C661 1.429 . S
C658 C641 1.574 . S
C658 H652 0.949 . S
C658 C662 1.368 . S
C659 C640 1.429 . S
C659 C653 1.429 . S
C659 C660 1.523 . S
C660 C641 1.368 . S
C660 C654 1.368 . S
C660 C659 1.523 . S
C661 C645 1.429 . S
C661 C657 1.429 . S
C661 C662 1.523 . S
C662 C646 1.368 . S
C662 C658 1.368 . S
C662 C661 1.523 . S
H663 C638 0.950 . S
H664 C640 0.950 . S
H665 C641 0.949 . S
H666 C643 0.950 . S
H667 C645 0.950 . S
C668 C669 1.349 . S
C668 C670 1.327 . S
C668 H693 0.950 . S
C669 C668 1.349 . S
C669 C685 1.349 . S
C670 C668 1.327 . S
C670 C689 1.429 . S
C670 H694 0.950 . S
C671 C688 1.574 . S
C671 C690 1.368 . S
C671 H695 0.949 . S
H672 C676 0.949 . S
C673 C674 1.349 . S
C673 C675 1.327 . S
C673 H696 0.950 . S
C674 C673 1.349 . S
C674 C686 1.349 . S
C675 C673 1.327 . S
C675 C691 1.429 . S
C675 H697 0.950 . S
C676 H672 0.949 . S
C676 C684 1.574 . S
C676 C692 1.368 . S
H677 C685 0.950 . S
H678 C683 0.950 . S
H679 C684 0.949 . S
H680 C686 0.950 . S
H681 C687 0.950 . S
H682 C688 0.949 . S
C683 H678 0.950 . S
C683 C685 1.327 . S
C683 C689 1.429 . S
C684 C676 1.574 . S
C684 H679 0.949 . S
C684 C690 1.368 . S
C685 C669 1.349 . S
C685 H677 0.950 . S
C685 C683 1.327 . S
C686 C674 1.349 . S
C686 H680 0.950 . S
C686 C687 1.327 . S
C687 H681 0.950 . S
C687 C686 1.327 . S
C687 C691 1.429 . S
C688 C671 1.574 . S
C688 H682 0.949 . S
C688 C692 1.368 . S
C689 C670 1.429 . S
C689 C683 1.429 . S
C689 C690 1.523 . S
C690 C671 1.368 . S
C690 C684 1.368 . S
C690 C689 1.523 . S
C691 C675 1.429 . S
C691 C687 1.429 . S
C691 C692 1.523 . S
C692 C676 1.368 . S
C692 C688 1.368 . S
C692 C691 1.523 . S
H693 C668 0.950 . S
H694 C670 0.950 . S
H695 C671 0.949 . S
H696 C673 0.950 . S
H697 C675 0.950 . S
C698 C699 1.349 1_655 S
C698 C700 1.327 . S
C698 H723 0.950 . S
C699 C698 1.349 1_455 S
C699 C715 1.349 1_565 S
C700 C698 1.327 . S
C700 C719 1.425 . S
C700 H724 0.950 . S
C701 C718 1.574 . S
C701 C720 1.368 . S
C701 H725 0.949 . S
H702 C706 0.949 . S
C703 C704 1.349 . S
C703 C705 1.327 . S
C703 H726 0.950 . S
C704 C703 1.349 . S
C704 C716 1.349 . S
C705 C703 1.327 . S
C705 C721 1.429 . S
C705 H727 0.950 . S
C706 H702 0.949 . S
C706 C714 1.574 . S
C706 C722 1.368 1_565 S
H707 C715 0.950 . S
H708 C713 0.950 . S
H709 C714 0.949 . S
H710 C716 0.950 1_565 S
H711 C717 1.006 . S
H712 C718 0.949 . S
C713 H708 0.950 . S
C713 C715 1.327 1_655 S
C713 C719 1.431 1_545 S
C714 C706 1.574 . S
C714 H709 0.949 . S
C714 C720 1.368 1_565 S
C715 C699 1.349 1_545 S
C715 H707 0.950 . S
C715 C713 1.327 1_455 S
C716 C704 1.349 . S
C716 H710 0.950 1_545 S
C716 C717 1.310 1_545 S
C717 H711 1.006 . S
C717 C716 1.310 1_565 S
C717 C721 1.393 1_565 S
C718 C701 1.574 . S
C718 H712 0.949 . S
C718 C722 1.368 . S
C719 C700 1.425 . S
C719 C713 1.431 1_565 S
C719 C720 1.524 1_565 S
C720 C701 1.368 . S
C720 C714 1.368 1_545 S
C720 C719 1.524 1_545 S
C721 C705 1.429 . S
C721 C717 1.393 1_545 S
C721 C722 1.523 . S
C722 C706 1.368 1_545 S
C722 C718 1.368 . S
C722 C721 1.523 . S
H723 C698 0.950 . S
H724 C700 0.950 . S
H725 C701 0.949 . S
H726 C703 0.950 . S
H727 C705 0.950 . S
C728 C729 1.349 . S
C728 C730 1.327 . S
C728 H753 0.950 . S
C729 C728 1.349 . S
C729 C745 1.349 . S
C730 C728 1.327 . S
C730 C749 1.429 . S
C730 H754 0.950 . S
C731 C748 1.574 . S
C731 C750 1.368 . S
C731 H755 0.949 . S
H732 C736 0.949 . S
C733 C734 1.349 . S
C733 C735 1.327 . S
C733 H756 0.950 . S
C734 C733 1.349 . S
C734 C746 1.349 . S
C735 C733 1.327 . S
C735 C751 1.429 . S
C735 H757 0.950 . S
C736 H732 0.949 . S
C736 C744 1.574 . S
C736 C752 1.368 . S
H737 C745 0.950 . S
H738 C743 0.950 . S
H739 C744 0.949 . S
H740 C746 0.950 . S
H741 C747 0.950 . S
H742 C748 0.949 . S
C743 H738 0.950 . S
C743 C745 1.327 . S
C743 C749 1.429 . S
C744 C736 1.574 . S
C744 H739 0.949 . S
C744 C750 1.368 . S
C745 C729 1.349 . S
C745 H737 0.950 . S
C745 C743 1.327 . S
C746 C734 1.349 . S
C746 H740 0.950 . S
C746 C747 1.327 . S
C747 H741 0.950 . S
C747 C746 1.327 . S
C747 C751 1.429 . S
C748 C731 1.574 . S
C748 H742 0.949 . S
C748 C752 1.368 . S
C749 C730 1.429 . S
C749 C743 1.429 . S
C749 C750 1.523 . S
C750 C731 1.368 . S
C750 C744 1.368 . S
C750 C749 1.523 . S
C751 C735 1.429 . S
C751 C747 1.429 . S
C751 C752 1.523 . S
C752 C736 1.368 . S
C752 C748 1.368 . S
C752 C751 1.523 . S
H753 C728 0.950 . S
H754 C730 0.950 . S
H755 C731 0.949 . S
H756 C733 0.950 . S
H757 C735 0.950 . S
C758 C759 1.349 . S
C758 C760 1.327 . S
C758 H783 0.950 . S
C759 C758 1.349 . S
C759 C775 1.349 . S
C760 C758 1.327 . S
C760 C779 1.429 . S
C760 H784 0.950 . S
C761 C778 1.574 . S
C761 C780 1.368 . S
C761 H785 0.949 . S
H762 C766 0.949 . S
C763 C764 1.349 . S
C763 C765 1.327 . S
C763 H786 0.950 . S
C764 C763 1.349 . S
C764 C776 1.349 . S
C765 C763 1.327 . S
C765 C781 1.429 . S
C765 H787 0.950 . S
C766 H762 0.949 . S
C766 C774 1.574 . S
C766 C782 1.368 . S
H767 C775 0.950 . S
H768 C773 0.950 . S
H769 C774 0.949 . S
H770 C776 0.950 . S
H771 C777 0.950 . S
H772 C778 0.949 . S
C773 H768 0.950 . S
C773 C775 1.327 . S
C773 C779 1.429 . S
C774 C766 1.574 . S
C774 H769 0.949 . S
C774 C780 1.368 . S
C775 C759 1.349 . S
C775 H767 0.950 . S
C775 C773 1.327 . S
C776 C764 1.349 . S
C776 H770 0.950 . S
C776 C777 1.327 . S
C777 H771 0.950 . S
C777 C776 1.327 . S
C777 C781 1.429 . S
C778 C761 1.574 . S
C778 H772 0.949 . S
C778 C782 1.368 . S
C779 C760 1.429 . S
C779 C773 1.429 . S
C779 C780 1.523 . S
C780 C761 1.368 . S
C780 C774 1.368 . S
C780 C779 1.523 . S
C781 C765 1.429 . S
C781 C777 1.429 . S
C781 C782 1.523 . S
C782 C766 1.368 . S
C782 C778 1.368 . S
C782 C781 1.523 . S
H783 C758 0.950 . S
H784 C760 0.950 . S
H785 C761 0.949 . S
H786 C763 0.950 . S
H787 C765 0.950 . S
C788 C789 1.349 . S
C788 C790 1.327 . S
C788 H813 0.950 . S
C789 C788 1.349 . S
C789 C805 1.349 . S
C790 C788 1.327 . S
C790 C809 1.429 . S
C790 H814 0.950 . S
C791 C808 1.574 . S
C791 C810 1.368 . S
C791 H815 0.949 . S
H792 C796 0.949 . S
C793 C794 1.349 . S
C793 C795 1.327 . S
C793 H816 0.950 . S
C794 C793 1.349 . S
C794 C806 1.349 . S
C795 C793 1.327 . S
C795 C811 1.429 . S
C795 H817 0.950 . S
C796 H792 0.949 . S
C796 C804 1.574 . S
C796 C812 1.368 . S
H797 C805 0.950 . S
H798 C803 0.950 . S
H799 C804 0.949 . S
H800 C806 0.950 . S
H801 C807 0.950 . S
H802 C808 0.949 . S
C803 H798 0.950 . S
C803 C805 1.327 . S
C803 C809 1.429 . S
C804 C796 1.574 . S
C804 H799 0.949 . S
C804 C810 1.368 . S
C805 C789 1.349 . S
C805 H797 0.950 . S
C805 C803 1.327 . S
C806 C794 1.349 . S
C806 H800 0.950 . S
C806 C807 1.327 . S
C807 H801 0.950 . S
C807 C806 1.327 . S
C807 C811 1.429 . S
C808 C791 1.574 . S
C808 H802 0.949 . S
C808 C812 1.368 . S
C809 C790 1.429 . S
C809 C803 1.429 . S
C809 C810 1.523 . S
C810 C791 1.368 . S
C810 C804 1.368 . S
C810 C809 1.523 . S
C811 C795 1.429 . S
C811 C807 1.429 . S
C811 C812 1.523 . S
C812 C796 1.368 . S
C812 C808 1.368 . S
C812 C811 1.523 . S
H813 C788 0.950 . S
H814 C790 0.950 . S
H815 C791 0.949 . S
H816 C793 0.950 . S
H817 C795 0.950 . S
C818 C819 1.349 . S
C818 C820 1.327 . S
C818 H843 0.950 1_565 S
C819 C818 1.349 . S
C819 C835 1.349 . S
C820 C818 1.327 . S
C820 C839 1.429 . S
C820 H844 0.950 1_565 S
C821 C838 1.574 . S
C821 C840 1.368 . S
C821 H845 0.949 . S
H822 C826 0.949 . S
C823 C824 1.349 . S
C823 C825 1.327 . S
C823 H846 0.950 . S
C824 C823 1.349 . S
C824 C836 1.349 1_565 S
C825 C823 1.327 . S
C825 C841 1.429 . S
C825 H847 0.950 . S
C826 H822 0.949 . S
C826 C834 1.574 . S
C826 C842 1.368 1_545 S
H827 C835 0.950 . S
H828 C833 0.950 . S
H829 C834 0.949 . S
H830 C836 0.950 . S
H831 C837 0.950 . S
H832 C838 0.949 . S
C833 H828 0.950 . S
C833 C835 1.327 . S
C833 C839 1.429 . S
C834 C826 1.574 . S
C834 H829 0.949 . S
C834 C840 1.368 1_545 S
C835 C819 1.349 . S
C835 H827 0.950 . S
C835 C833 1.327 . S
C836 C824 1.349 1_545 S
C836 H830 0.950 . S
C836 C837 1.327 . S
C837 H831 0.950 . S
C837 C836 1.327 . S
C837 C841 1.429 1_545 S
C838 C821 1.574 . S
C838 H832 0.949 . S
C838 C842 1.368 . S
C839 C820 1.429 . S
C839 C833 1.429 . S
C839 C840 1.523 . S
C840 C821 1.368 . S
C840 C834 1.368 1_565 S
C840 C839 1.523 . S
C841 C825 1.429 . S
C841 C837 1.429 1_565 S
C841 C842 1.523 . S
C842 C826 1.368 1_565 S
C842 C838 1.368 . S
C842 C841 1.523 . S
H843 C818 0.950 1_545 S
H844 C820 0.950 1_545 S
H845 C821 0.949 . S
H846 C823 0.950 . S
H847 C825 0.950 . S
C848 C849 1.349 . S
C848 C850 1.327 . S
C848 H873 0.950 . S
C849 C848 1.349 . S
C849 C865 1.349 . S
C850 C848 1.327 . S
C850 C869 1.429 . S
C850 H874 0.950 . S
C851 C868 1.574 . S
C851 C870 1.368 . S
C851 H875 0.949 . S
H852 C856 0.949 . S
C853 C854 1.349 . S
C853 C855 1.327 . S
C853 H876 0.950 . S
C854 C853 1.349 . S
C854 C866 1.349 . S
C855 C853 1.327 . S
C855 C871 1.429 . S
C855 H877 0.950 . S
C856 H852 0.949 . S
C856 C864 1.574 . S
C856 C872 1.368 . S
H857 C865 0.950 . S
H858 C863 0.950 . S
H859 C864 0.949 . S
H860 C866 0.950 . S
H861 C867 0.950 . S
H862 C868 0.949 . S
C863 H858 0.950 . S
C863 C865 1.327 . S
C863 C869 1.429 . S
C864 C856 1.574 . S
C864 H859 0.949 . S
C864 C870 1.368 . S
C865 C849 1.349 . S
C865 H857 0.950 . S
C865 C863 1.327 . S
C866 C854 1.349 . S
C866 H860 0.950 . S
C866 C867 1.327 . S
C867 H861 0.950 . S
C867 C866 1.327 . S
C867 C871 1.429 . S
C868 C851 1.574 . S
C868 H862 0.949 . S
C868 C872 1.368 . S
C869 C850 1.429 . S
C869 C863 1.429 . S
C869 C870 1.523 . S
C870 C851 1.368 . S
C870 C864 1.368 . S
C870 C869 1.523 . S
C871 C855 1.429 . S
C871 C867 1.429 . S
C871 C872 1.523 . S
C872 C856 1.368 . S
C872 C868 1.368 . S
C872 C871 1.523 . S
H873 C848 0.950 . S
H874 C850 0.950 . S
H875 C851 0.949 . S
H876 C853 0.950 . S
H877 C855 0.950 . S
C878 C879 1.349 . S
C878 C880 1.327 . S
C878 H903 0.950 . S
C879 C878 1.349 . S
C879 C895 1.349 . S
C880 C878 1.327 . S
C880 C899 1.429 . S
C880 H904 0.950 . S
C881 C898 1.574 . S
C881 C900 1.368 . S
C881 H905 0.949 . S
H882 C886 0.949 . S
C883 C884 1.349 . S
C883 C885 1.327 . S
C883 H906 0.950 . S
C884 C883 1.349 . S
C884 C896 1.349 . S
C885 C883 1.327 . S
C885 C901 1.429 . S
C885 H907 0.950 . S
C886 H882 0.949 . S
C886 C894 1.574 . S
C886 C902 1.368 . S
H887 C895 0.950 . S
H888 C893 0.950 . S
H889 C894 0.949 . S
H890 C896 0.950 . S
H891 C897 0.950 . S
H892 C898 0.949 . S
C893 H888 0.950 . S
C893 C895 1.327 . S
C893 C899 1.429 . S
C894 C886 1.574 . S
C894 H889 0.949 . S
C894 C900 1.368 . S
C895 C879 1.349 . S
C895 H887 0.950 . S
C895 C893 1.327 . S
C896 C884 1.349 . S
C896 H890 0.950 . S
C896 C897 1.327 . S
C897 H891 0.950 . S
C897 C896 1.327 . S
C897 C901 1.429 . S
C898 C881 1.574 . S
C898 H892 0.949 . S
C898 C902 1.368 . S
C899 C880 1.429 . S
C899 C893 1.429 . S
C899 C900 1.523 . S
C900 C881 1.368 . S
C900 C894 1.368 . S
C900 C899 1.523 . S
C901 C885 1.429 . S
C901 C897 1.429 . S
C901 C902 1.523 . S
C902 C886 1.368 . S
C902 C898 1.368 . S
C902 C901 1.523 . S
H903 C878 0.950 . S
H904 C880 0.950 . S
H905 C881 0.949 . S
H906 C883 0.950 . S
H907 C885 0.950 . S
C908 C909 1.349 . S
C908 C910 1.327 . S
C908 H933 0.950 . S
C909 C908 1.349 . S
C909 C925 1.349 . S
C910 C908 1.327 . S
C910 C929 1.429 . S
C910 H934 0.950 . S
C911 C928 1.574 . S
C911 C930 1.368 . S
C911 H935 0.949 . S
H912 C916 0.949 . S
C913 C914 1.349 . S
C913 C915 1.327 . S
C913 H936 0.950 . S
C914 C913 1.349 . S
C914 C926 1.349 . S
C915 C913 1.327 . S
C915 C931 1.429 . S
C915 H937 0.950 . S
C916 H912 0.949 . S
C916 C924 1.574 . S
C916 C932 1.368 . S
H917 C925 0.950 . S
H918 C923 0.950 . S
H919 C924 0.949 . S
H920 C926 0.950 . S
H921 C927 0.950 . S
H922 C928 0.949 . S
C923 H918 0.950 . S
C923 C925 1.327 . S
C923 C929 1.429 . S
C924 C916 1.574 . S
C924 H919 0.949 . S
C924 C930 1.368 . S
C925 C909 1.349 . S
C925 H917 0.950 . S
C925 C923 1.327 . S
C926 C914 1.349 . S
C926 H920 0.950 . S
C926 C927 1.327 . S
C927 H921 0.950 . S
C927 C926 1.327 . S
C927 C931 1.429 . S
C928 C911 1.574 . S
C928 H922 0.949 . S
C928 C932 1.368 . S
C929 C910 1.429 . S
C929 C923 1.429 . S
C929 C930 1.523 . S
C930 C911 1.368 . S
C930 C924 1.368 . S
C930 C929 1.523 . S
C931 C915 1.429 . S
C931 C927 1.429 . S
C931 C932 1.523 . S
C932 C916 1.368 . S
C932 C928 1.368 . S
C932 C931 1.523 . S
H933 C908 0.950 . S
H934 C910 0.950 . S
H935 C911 0.949 . S
H936 C913 0.950 . S
H937 C915 0.950 . S
C938 C939 1.349 . S
C938 C940 1.327 . S
C938 H963 0.950 . S
C939 C938 1.349 . S
C939 C955 1.349 . S
C940 C938 1.327 . S
C940 C959 1.429 . S
C940 H964 0.950 . S
C941 C958 1.574 . S
C941 C960 1.368 . S
C941 H965 0.949 . S
H942 C946 0.949 . S
C943 C944 1.349 . S
C943 C945 1.327 . S
C943 H966 0.950 . S
C944 C943 1.349 . S
C944 C956 1.349 . S
C945 C943 1.327 . S
C945 C961 1.429 . S
C945 H967 0.950 . S
C946 H942 0.949 . S
C946 C954 1.574 . S
C946 C962 1.368 . S
H947 C955 0.950 . S
H948 C953 0.950 . S
H949 C954 0.949 . S
H950 C956 0.950 . S
H951 C957 0.950 . S
H952 C958 0.949 . S
C953 H948 0.950 . S
C953 C955 1.327 . S
C953 C959 1.429 . S
C954 C946 1.574 . S
C954 H949 0.949 . S
C954 C960 1.368 . S
C955 C939 1.349 . S
C955 H947 0.950 . S
C955 C953 1.327 . S
C956 C944 1.349 . S
C956 H950 0.950 . S
C956 C957 1.327 . S
C957 H951 0.950 . S
C957 C956 1.327 . S
C957 C961 1.429 . S
C958 C941 1.574 . S
C958 H952 0.949 . S
C958 C962 1.368 . S
C959 C940 1.429 . S
C959 C953 1.429 . S
C959 C960 1.523 . S
C960 C941 1.368 . S
C960 C954 1.368 . S
C960 C959 1.523 . S
C961 C945 1.429 . S
C961 C957 1.429 . S
C961 C962 1.523 . S
C962 C946 1.368 . S
C962 C958 1.368 . S
C962 C961 1.523 . S
H963 C938 0.950 . S
H964 C940 0.950 . S
H965 C941 0.949 . S
H966 C943 0.950 . S
H967 C945 0.950 . S
C968 C969 1.349 . S
C968 C970 1.327 . S
C968 H993 0.950 . S
C969 C968 1.349 . S
C969 C985 1.349 . S
C970 C968 1.327 . S
C970 C989 1.429 . S
C970 H994 0.950 . S
C971 C988 1.574 . S
C971 C990 1.368 . S
C971 H995 0.949 . S
H972 C976 0.949 . S
C973 C974 1.349 . S
C973 C975 1.327 . S
C973 H996 0.950 . S
C974 C973 1.349 . S
C974 C986 1.349 . S
C975 C973 1.327 . S
C975 C991 1.429 . S
C975 H997 0.950 . S
C976 H972 0.949 . S
C976 C984 1.574 . S
C976 C992 1.368 . S
H977 C985 0.950 . S
H978 C983 0.950 . S
H979 C984 0.949 . S
H980 C986 0.950 . S
H981 C987 0.950 . S
H982 C988 0.949 . S
C983 H978 0.950 . S
C983 C985 1.327 . S
C983 C989 1.429 . S
C984 C976 1.574 . S
C984 H979 0.949 . S
C984 C990 1.368 . S
C985 C969 1.349 . S
C985 H977 0.950 . S
C985 C983 1.327 . S
C986 C974 1.349 . S
C986 H980 0.950 . S
C986 C987 1.327 . S
C987 H981 0.950 . S
C987 C986 1.327 . S
C987 C991 1.429 . S
C988 C971 1.574 . S
C988 H982 0.949 . S
C988 C992 1.368 . S
C989 C970 1.429 . S
C989 C983 1.429 . S
C989 C990 1.523 . S
C990 C971 1.368 . S
C990 C984 1.368 . S
C990 C989 1.523 . S
C991 C975 1.429 . S
C991 C987 1.429 . S
C991 C992 1.523 . S
C992 C976 1.368 . S
C992 C988 1.368 . S
C992 C991 1.523 . S
H993 C968 0.950 . S
H994 C970 0.950 . S
H995 C971 0.949 . S
H996 C973 0.950 . S
H997 C975 0.950 . S
C998 C999 1.349 . S
C998 C1000 1.327 . S
C998 H1023 0.950 . S
C999 C998 1.349 . S
C999 C1015 1.349 . S
C1000 C998 1.327 . S
C1000 C1019 1.429 . S
C1000 H1024 0.950 . S
C1001 C1018 1.574 . S
C1001 C1020 1.368 . S
C1001 H1025 0.949 . S
H1002 C1006 0.949 . S
C1003 C1004 1.349 . S
C1003 C1005 1.327 . S
C1003 H1026 0.950 . S
C1004 C1003 1.349 . S
C1004 C1016 1.349 . S
C1005 C1003 1.327 . S
C1005 C1021 1.429 . S
C1005 H1027 0.950 . S
C1006 H1002 0.949 . S
C1006 C1014 1.574 . S
C1006 C1022 1.368 . S
H1007 C1015 0.950 . S
H1008 C1013 0.950 . S
H1009 C1014 0.949 . S
H1010 C1016 0.950 . S
H1011 C1017 0.950 . S
H1012 C1018 0.949 . S
C1013 H1008 0.950 . S
C1013 C1015 1.327 . S
C1013 C1019 1.429 . S
C1014 C1006 1.574 . S
C1014 H1009 0.949 . S
C1014 C1020 1.368 . S
C1015 C999 1.349 . S
C1015 H1007 0.950 . S
C1015 C1013 1.327 . S
C1016 C1004 1.349 . S
C1016 H1010 0.950 . S
C1016 C1017 1.327 . S
C1017 H1011 0.950 . S
C1017 C1016 1.327 . S
C1017 C1021 1.429 . S
C1018 C1001 1.574 . S
C1018 H1012 0.949 . S
C1018 C1022 1.368 . S
C1019 C1000 1.429 . S
C1019 C1013 1.429 . S
C1019 C1020 1.523 . S
C1020 C1001 1.368 . S
C1020 C1014 1.368 . S
C1020 C1019 1.523 . S
C1021 C1005 1.429 . S
C1021 C1017 1.429 . S
C1021 C1022 1.523 . S
C1022 C1006 1.368 . S
C1022 C1018 1.368 . S
C1022 C1021 1.523 . S
H1023 C998 0.950 . S
H1024 C1000 0.950 . S
H1025 C1001 0.949 . S
H1026 C1003 0.950 . S
H1027 C1005 0.950 . S
C1028 C1029 1.349 . S
C1028 C1030 1.327 . S
C1028 H1053 0.950 . S
C1029 C1028 1.349 . S
C1029 C1045 1.349 . S
C1030 C1028 1.327 . S
C1030 C1049 1.429 . S
C1030 H1054 0.950 . S
C1031 C1048 1.574 . S
C1031 C1050 1.368 . S
C1031 H1055 0.949 . S
H1032 C1036 0.949 . S
C1033 C1034 1.349 . S
C1033 C1035 1.327 . S
C1033 H1056 0.950 . S
C1034 C1033 1.349 . S
C1034 C1046 1.349 . S
C1035 C1033 1.327 . S
C1035 C1051 1.429 . S
C1035 H1057 0.950 . S
C1036 H1032 0.949 . S
C1036 C1044 1.574 . S
C1036 C1052 1.368 . S
H1037 C1045 0.950 . S
H1038 C1043 0.950 . S
H1039 C1044 0.949 . S
H1040 C1046 0.950 . S
H1041 C1047 0.950 . S
H1042 C1048 0.949 . S
C1043 H1038 0.950 . S
C1043 C1045 1.327 . S
C1043 C1049 1.429 . S
C1044 C1036 1.574 . S
C1044 H1039 0.949 . S
C1044 C1050 1.368 . S
C1045 C1029 1.349 . S
C1045 H1037 0.950 . S
C1045 C1043 1.327 . S
C1046 C1034 1.349 . S
C1046 H1040 0.950 . S
C1046 C1047 1.327 . S
C1047 H1041 0.950 . S
C1047 C1046 1.327 . S
C1047 C1051 1.429 . S
C1048 C1031 1.574 . S
C1048 H1042 0.949 . S
C1048 C1052 1.368 . S
C1049 C1030 1.429 . S
C1049 C1043 1.429 . S
C1049 C1050 1.523 . S
C1050 C1031 1.368 . S
C1050 C1044 1.368 . S
C1050 C1049 1.523 . S
C1051 C1035 1.429 . S
C1051 C1047 1.429 . S
C1051 C1052 1.523 . S
C1052 C1036 1.368 . S
C1052 C1048 1.368 . S
C1052 C1051 1.523 . S
H1053 C1028 0.950 . S
H1054 C1030 0.950 . S
H1055 C1031 0.949 . S
H1056 C1033 0.950 . S
H1057 C1035 0.950 . S
C1058 C1059 1.349 . S
C1058 C1060 1.327 . S
C1058 H1083 0.950 . S
C1059 C1058 1.349 . S
C1059 C1075 1.349 1_655 S
C1060 C1058 1.327 . S
C1060 C1079 1.429 1_655 S
C1060 H1084 0.950 . S
C1061 C1078 1.574 . S
C1061 C1080 1.368 . S
C1061 H1085 0.949 . S
H1062 C1066 0.949 . S
C1063 C1064 1.349 . S
C1063 C1065 1.327 . S
C1063 H1086 0.950 . S
C1064 C1063 1.349 . S
C1064 C1076 1.349 . S
C1065 C1063 1.327 . S
C1065 C1081 1.429 . S
C1065 H1087 0.950 . S
C1066 H1062 0.949 . S
C1066 C1074 1.574 . S
C1066 C1082 1.368 1_655 S
H1067 C1075 0.950 . S
H1068 C1073 0.950 . S
H1069 C1074 0.949 . S
H1070 C1076 0.950 1_655 S
H1071 C1077 0.950 1_655 S
H1072 C1078 0.949 . S
C1073 H1068 0.950 . S
C1073 C1075 1.327 . S
C1073 C1079 1.429 . S
C1074 C1066 1.574 . S
C1074 H1069 0.949 . S
C1074 C1080 1.368 1_655 S
C1075 C1059 1.349 1_455 S
C1075 H1067 0.950 . S
C1075 C1073 1.327 . S
C1076 C1064 1.349 . S
C1076 H1070 0.950 1_455 S
C1076 C1077 1.327 . S
C1077 H1071 0.950 1_455 S
C1077 C1076 1.327 . S
C1077 C1081 1.429 . S
C1078 C1061 1.574 . S
C1078 H1072 0.949 . S
C1078 C1082 1.368 . S
C1079 C1060 1.429 1_455 S
C1079 C1073 1.429 . S
C1079 C1080 1.523 . S
C1080 C1061 1.368 . S
C1080 C1074 1.368 1_455 S
C1080 C1079 1.523 . S
C1081 C1065 1.429 . S
C1081 C1077 1.429 . S
C1081 C1082 1.523 . S
C1082 C1066 1.368 1_455 S
C1082 C1078 1.368 . S
C1082 C1081 1.523 . S
H1083 C1058 0.950 . S
H1084 C1060 0.950 . S
H1085 C1061 0.949 . S
H1086 C1063 0.950 . S
H1087 C1065 0.950 . S
C1088 C1089 1.349 . S
C1088 C1090 1.327 . S
C1088 H1113 0.950 . S
C1089 C1088 1.349 . S
C1089 C1105 1.349 . S
C1090 C1088 1.327 . S
C1090 C1109 1.429 . S
C1090 H1114 0.950 . S
C1091 C1108 1.574 . S
C1091 C1110 1.368 . S
C1091 H1115 0.949 . S
H1092 C1096 0.949 . S
C1093 C1094 1.349 . S
C1093 C1095 1.327 . S
C1093 H1116 0.950 . S
C1094 C1093 1.349 . S
C1094 C1106 1.349 . S
C1095 C1093 1.327 . S
C1095 C1111 1.429 . S
C1095 H1117 0.950 . S
C1096 H1092 0.949 . S
C1096 C1104 1.574 . S
C1096 C1112 1.368 . S
H1097 C1105 0.950 . S
H1098 C1103 0.950 . S
H1099 C1104 0.949 . S
H1100 C1106 0.950 . S
H1101 C1107 0.950 . S
H1102 C1108 0.949 . S
C1103 H1098 0.950 . S
C1103 C1105 1.327 . S
C1103 C1109 1.429 . S
C1104 C1096 1.574 . S
C1104 H1099 0.949 . S
C1104 C1110 1.368 . S
C1105 C1089 1.349 . S
C1105 H1097 0.950 . S
C1105 C1103 1.327 . S
C1106 C1094 1.349 . S
C1106 H1100 0.950 . S
C1106 C1107 1.327 . S
C1107 H1101 0.950 . S
C1107 C1106 1.327 . S
C1107 C1111 1.429 . S
C1108 C1091 1.574 . S
C1108 H1102 0.949 . S
C1108 C1112 1.368 . S
C1109 C1090 1.429 . S
C1109 C1103 1.429 . S
C1109 C1110 1.523 . S
C1110 C1091 1.368 . S
C1110 C1104 1.368 . S
C1110 C1109 1.523 . S
C1111 C1095 1.429 . S
C1111 C1107 1.429 . S
C1111 C1112 1.523 . S
C1112 C1096 1.368 . S
C1112 C1108 1.368 . S
C1112 C1111 1.523 . S
H1113 C1088 0.950 . S
H1114 C1090 0.950 . S
H1115 C1091 0.949 . S
H1116 C1093 0.950 . S
H1117 C1095 0.950 . S
C1118 C1119 1.349 . S
C1118 C1120 1.327 . S
C1118 H1143 0.950 . S
C1119 C1118 1.349 . S
C1119 C1135 1.349 . S
C1120 C1118 1.327 . S
C1120 C1139 1.429 . S
C1120 H1144 0.950 . S
C1121 C1138 1.574 . S
C1121 C1140 1.368 . S
C1121 H1145 0.949 . S
H1122 C1126 0.949 . S
C1123 C1124 1.349 . S
C1123 C1125 1.327 . S
C1123 H1146 0.950 . S
C1124 C1123 1.349 . S
C1124 C1136 1.349 . S
C1125 C1123 1.327 . S
C1125 C1141 1.429 . S
C1125 H1147 0.950 . S
C1126 H1122 0.949 . S
C1126 C1134 1.574 . S
C1126 C1142 1.368 . S
H1127 C1135 0.950 . S
H1128 C1133 0.950 . S
H1129 C1134 0.949 . S
H1130 C1136 0.950 . S
H1131 C1137 0.950 . S
H1132 C1138 0.949 . S
C1133 H1128 0.950 . S
C1133 C1135 1.327 . S
C1133 C1139 1.429 . S
C1134 C1126 1.574 . S
C1134 H1129 0.949 . S
C1134 C1140 1.368 . S
C1135 C1119 1.349 . S
C1135 H1127 0.950 . S
C1135 C1133 1.327 . S
C1136 C1124 1.349 . S
C1136 H1130 0.950 . S
C1136 C1137 1.327 . S
C1137 H1131 0.950 . S
C1137 C1136 1.327 . S
C1137 C1141 1.429 . S
C1138 C1121 1.574 . S
C1138 H1132 0.949 . S
C1138 C1142 1.368 . S
C1139 C1120 1.429 . S
C1139 C1133 1.429 . S
C1139 C1140 1.523 . S
C1140 C1121 1.368 . S
C1140 C1134 1.368 . S
C1140 C1139 1.523 . S
C1141 C1125 1.429 . S
C1141 C1137 1.429 . S
C1141 C1142 1.523 . S
C1142 C1126 1.368 . S
C1142 C1138 1.368 . S
C1142 C1141 1.523 . S
H1143 C1118 0.950 . S
H1144 C1120 0.950 . S
H1145 C1121 0.949 . S
H1146 C1123 0.950 . S
H1147 C1125 0.950 . S
C1148 C1149 1.378 . S
C1148 C1150 1.327 . S
C1148 H1173 0.950 1_565 S
C1149 C1148 1.378 . S
C1149 C1165 1.327 1_554 S
C1150 C1148 1.327 . S
C1150 C1169 1.429 . S
C1150 H1174 0.950 . S
C1151 C1168 1.574 . S
C1151 C1170 1.368 1_556 S
C1151 H1175 0.949 . S
H1152 C1156 0.949 . S
C1153 C1154 1.349 1_556 S
C1153 C1155 1.327 . S
C1153 H1176 0.950 . S
C1154 C1153 1.349 1_554 S
C1154 C1166 1.349 . S
C1155 C1153 1.327 . S
C1155 C1171 1.429 1_556 S
C1155 H1177 0.950 . S
C1156 H1152 0.949 . S
C1156 C1164 1.574 . S
C1156 C1172 1.368 . S
H1157 C1165 0.950 . S
H1158 C1163 0.950 . S
H1159 C1164 0.949 . S
H1160 C1166 0.950 . S
H1161 C1167 0.950 . S
H1162 C1168 0.949 . S
C1163 H1158 0.950 . S
C1163 C1165 1.327 . S
C1163 C1169 1.429 1_556 S
C1164 C1156 1.574 . S
C1164 H1159 0.949 . S
C1164 C1170 1.368 . S
C1165 C1149 1.327 1_556 S
C1165 H1157 0.950 . S
C1165 C1163 1.327 . S
C1166 C1154 1.349 . S
C1166 H1160 0.950 . S
C1166 C1167 1.327 . S
C1167 H1161 0.950 . S
C1167 C1166 1.327 . S
C1167 C1171 1.429 . S
C1168 C1151 1.574 . S
C1168 H1162 0.949 . S
C1168 C1172 1.368 1_556 S
C1169 C1150 1.429 . S
C1169 C1163 1.429 1_554 S
C1169 C1170 1.523 . S
C1170 C1151 1.368 1_554 S
C1170 C1164 1.368 . S
C1170 C1169 1.523 . S
C1171 C1155 1.429 1_554 S
C1171 C1167 1.429 . S
C1171 C1172 1.523 . S
C1172 C1156 1.368 . S
C1172 C1168 1.368 1_554 S
C1172 C1171 1.523 . S
H1173 C1148 0.950 1_545 S
H1174 C1150 0.950 . S
H1175 C1151 0.949 . S
H1176 C1153 0.950 . S
H1177 C1155 0.950 . S
C1178 C1179 1.349 . S
C1178 C1180 1.327 . S
C1178 H1203 0.950 . S
C1179 C1178 1.349 . S
C1179 C1195 1.349 . S
C1180 C1178 1.327 . S
C1180 C1199 1.429 . S
C1180 H1204 0.950 . S
C1181 C1198 1.574 . S
C1181 C1200 1.368 . S
C1181 H1205 0.949 . S
H1182 C1186 0.949 . S
C1183 C1184 1.349 . S
C1183 C1185 1.327 . S
C1183 H1206 0.950 . S
C1184 C1183 1.349 . S
C1184 C1196 1.349 . S
C1185 C1183 1.327 . S
C1185 C1201 1.429 . S
C1185 H1207 0.950 . S
C1186 H1182 0.949 . S
C1186 C1194 1.574 . S
C1186 C1202 1.368 . S
H1187 C1195 0.950 . S
H1188 C1193 0.950 . S
H1189 C1194 0.949 . S
H1190 C1196 0.950 . S
H1191 C1197 0.950 . S
H1192 C1198 0.949 . S
C1193 H1188 0.950 . S
C1193 C1195 1.327 . S
C1193 C1199 1.429 . S
C1194 C1186 1.574 . S
C1194 H1189 0.949 . S
C1194 C1200 1.368 . S
C1195 C1179 1.349 . S
C1195 H1187 0.950 . S
C1195 C1193 1.327 . S
C1196 C1184 1.349 . S
C1196 H1190 0.950 . S
C1196 C1197 1.327 . S
C1197 H1191 0.950 . S
C1197 C1196 1.327 . S
C1197 C1201 1.429 . S
C1198 C1181 1.574 . S
C1198 H1192 0.949 . S
C1198 C1202 1.368 . S
C1199 C1180 1.429 . S
C1199 C1193 1.429 . S
C1199 C1200 1.523 . S
C1200 C1181 1.368 . S
C1200 C1194 1.368 . S
C1200 C1199 1.523 . S
C1201 C1185 1.429 . S
C1201 C1197 1.429 . S
C1201 C1202 1.523 . S
C1202 C1186 1.368 . S
C1202 C1198 1.368 . S
C1202 C1201 1.523 . S
H1203 C1178 0.950 . S
H1204 C1180 0.950 . S
H1205 C1181 0.949 . S
H1206 C1183 0.950 . S
H1207 C1185 0.950 . S
C1208 C1209 1.349 . S
C1208 C1210 1.327 . S
C1208 H1233 0.950 . S
C1209 C1208 1.349 . S
C1209 C1225 1.349 . S
C1210 C1208 1.327 . S
C1210 C1229 1.429 . S
C1210 H1234 0.950 . S
C1211 C1228 1.574 . S
C1211 C1230 1.368 . S
C1211 H1235 0.949 . S
H1212 C1216 0.949 . S
C1213 C1214 1.349 . S
C1213 C1215 1.327 . S
C1213 H1236 0.950 . S
C1214 C1213 1.349 . S
C1214 C1226 1.349 . S
C1215 C1213 1.327 . S
C1215 C1231 1.429 . S
C1215 H1237 0.950 . S
C1216 H1212 0.949 . S
C1216 C1224 1.574 . S
C1216 C1232 1.368 . S
H1217 C1225 0.950 . S
H1218 C1223 0.950 . S
H1219 C1224 0.949 . S
H1220 C1226 0.950 . S
H1221 C1227 0.950 . S
H1222 C1228 0.949 . S
C1223 H1218 0.950 . S
C1223 C1225 1.327 . S
C1223 C1229 1.429 . S
C1224 C1216 1.574 . S
C1224 H1219 0.949 . S
C1224 C1230 1.368 . S
C1225 C1209 1.349 . S
C1225 H1217 0.950 . S
C1225 C1223 1.327 . S
C1226 C1214 1.349 . S
C1226 H1220 0.950 . S
C1226 C1227 1.327 . S
C1227 H1221 0.950 . S
C1227 C1226 1.327 . S
C1227 C1231 1.429 . S
C1228 C1211 1.574 . S
C1228 H1222 0.949 . S
C1228 C1232 1.368 . S
C1229 C1210 1.429 . S
C1229 C1223 1.429 . S
C1229 C1230 1.523 . S
C1230 C1211 1.368 . S
C1230 C1224 1.368 . S
C1230 C1229 1.523 . S
C1231 C1215 1.429 . S
C1231 C1227 1.429 . S
C1231 C1232 1.523 . S
C1232 C1216 1.368 . S
C1232 C1228 1.368 . S
C1232 C1231 1.523 . S
H1233 C1208 0.950 . S
H1234 C1210 0.950 . S
H1235 C1211 0.949 . S
H1236 C1213 0.950 . S
H1237 C1215 0.950 . S
C1238 C1239 1.349 . S
C1238 C1240 1.327 . S
C1238 H1263 0.950 . S
C1239 C1238 1.349 . S
C1239 C1255 1.349 . S
C1240 C1238 1.327 . S
C1240 C1259 1.429 . S
C1240 H1264 0.950 . S
C1241 C1258 1.574 . S
C1241 C1260 1.368 . S
C1241 H1265 0.949 . S
H1242 C1246 0.949 . S
C1243 C1244 1.349 . S
C1243 C1245 1.327 . S
C1243 H1266 0.950 . S
C1244 C1243 1.349 . S
C1244 C1256 1.349 . S
C1245 C1243 1.327 . S
C1245 C1261 1.429 . S
C1245 H1267 0.950 . S
C1246 H1242 0.949 . S
C1246 C1254 1.574 . S
C1246 C1262 1.368 . S
H1247 C1255 0.950 . S
H1248 C1253 0.950 . S
H1249 C1254 0.949 . S
H1250 C1256 0.950 . S
H1251 C1257 0.950 . S
H1252 C1258 0.949 . S
C1253 H1248 0.950 . S
C1253 C1255 1.327 . S
C1253 C1259 1.429 . S
C1254 C1246 1.574 . S
C1254 H1249 0.949 . S
C1254 C1260 1.368 . S
C1255 C1239 1.349 . S
C1255 H1247 0.950 . S
C1255 C1253 1.327 . S
C1256 C1244 1.349 . S
C1256 H1250 0.950 . S
C1256 C1257 1.327 . S
C1257 H1251 0.950 . S
C1257 C1256 1.327 . S
C1257 C1261 1.429 . S
C1258 C1241 1.574 . S
C1258 H1252 0.949 . S
C1258 C1262 1.368 . S
C1259 C1240 1.429 . S
C1259 C1253 1.429 . S
C1259 C1260 1.523 . S
C1260 C1241 1.368 . S
C1260 C1254 1.368 . S
C1260 C1259 1.523 . S
C1261 C1245 1.429 . S
C1261 C1257 1.429 . S
C1261 C1262 1.523 . S
C1262 C1246 1.368 . S
C1262 C1258 1.368 . S
C1262 C1261 1.523 . S
H1263 C1238 0.950 . S
H1264 C1240 0.950 . S
H1265 C1241 0.949 . S
H1266 C1243 0.950 . S
H1267 C1245 0.950 . S
C1268 C1269 1.349 . S
C1268 C1270 1.327 . S
C1268 H1293 0.950 . S
C1269 C1268 1.349 . S
C1269 C1285 1.349 . S
C1270 C1268 1.327 . S
C1270 C1289 1.429 . S
C1270 H1294 0.950 . S
C1271 C1288 1.574 . S
C1271 C1290 1.368 . S
C1271 H1295 0.949 . S
H1272 C1276 0.949 . S
C1273 C1274 1.349 . S
C1273 C1275 1.327 . S
C1273 H1296 0.950 . S
C1274 C1273 1.349 . S
C1274 C1286 1.349 . S
C1275 C1273 1.327 . S
C1275 C1291 1.429 . S
C1275 H1297 0.950 . S
C1276 H1272 0.949 . S
C1276 C1284 1.574 . S
C1276 C1292 1.368 . S
H1277 C1285 0.950 . S
H1278 C1283 0.950 . S
H1279 C1284 0.949 . S
H1280 C1286 0.950 . S
H1281 C1287 0.950 . S
H1282 C1288 0.949 . S
C1283 H1278 0.950 . S
C1283 C1285 1.327 . S
C1283 C1289 1.429 . S
C1284 C1276 1.574 . S
C1284 H1279 0.949 . S
C1284 C1290 1.368 . S
C1285 C1269 1.349 . S
C1285 H1277 0.950 . S
C1285 C1283 1.327 . S
C1286 C1274 1.349 . S
C1286 H1280 0.950 . S
C1286 C1287 1.327 . S
C1287 H1281 0.950 . S
C1287 C1286 1.327 . S
C1287 C1291 1.429 . S
C1288 C1271 1.574 . S
C1288 H1282 0.949 . S
C1288 C1292 1.368 . S
C1289 C1270 1.429 . S
C1289 C1283 1.429 . S
C1289 C1290 1.523 . S
C1290 C1271 1.368 . S
C1290 C1284 1.368 . S
C1290 C1289 1.523 . S
C1291 C1275 1.429 . S
C1291 C1287 1.429 . S
C1291 C1292 1.523 . S
C1292 C1276 1.368 . S
C1292 C1288 1.368 . S
C1292 C1291 1.523 . S
H1293 C1268 0.950 . S
H1294 C1270 0.950 . S
H1295 C1271 0.949 . S
H1296 C1273 0.950 . S
H1297 C1275 0.950 . S
C1298 C1299 1.349 . S
C1298 C1300 1.327 . S
C1298 H1323 0.950 . S
C1299 C1298 1.349 . S
C1299 C1315 1.349 . S
C1300 C1298 1.327 . S
C1300 C1319 1.429 . S
C1300 H1324 0.950 . S
C1301 C1318 1.574 . S
C1301 C1320 1.368 . S
C1301 H1325 0.949 . S
H1302 C1306 0.949 . S
C1303 C1304 1.349 . S
C1303 C1305 1.327 . S
C1303 H1326 0.950 . S
C1304 C1303 1.349 . S
C1304 C1316 1.349 . S
C1305 C1303 1.327 . S
C1305 C1321 1.429 . S
C1305 H1327 0.950 . S
C1306 H1302 0.949 . S
C1306 C1314 1.574 . S
C1306 C1322 1.368 . S
H1307 C1315 0.950 . S
H1308 C1313 0.950 . S
H1309 C1314 0.949 . S
H1310 C1316 0.950 . S
H1311 C1317 0.950 . S
H1312 C1318 0.949 . S
C1313 H1308 0.950 . S
C1313 C1315 1.327 . S
C1313 C1319 1.429 . S
C1314 C1306 1.574 . S
C1314 H1309 0.949 . S
C1314 C1320 1.368 . S
C1315 C1299 1.349 . S
C1315 H1307 0.950 . S
C1315 C1313 1.327 . S
C1316 C1304 1.349 . S
C1316 H1310 0.950 . S
C1316 C1317 1.327 . S
C1317 H1311 0.950 . S
C1317 C1316 1.327 . S
C1317 C1321 1.429 . S
C1318 C1301 1.574 . S
C1318 H1312 0.949 . S
C1318 C1322 1.368 . S
C1319 C1300 1.429 . S
C1319 C1313 1.429 . S
C1319 C1320 1.523 . S
C1320 C1301 1.368 . S
C1320 C1314 1.368 . S
C1320 C1319 1.523 . S
C1321 C1305 1.429 . S
C1321 C1317 1.429 . S
C1321 C1322 1.523 . S
C1322 C1306 1.368 . S
C1322 C1318 1.368 . S
C1322 C1321 1.523 . S
H1323 C1298 0.950 . S
H1324 C1300 0.950 . S
H1325 C1301 0.949 . S
H1326 C1303 0.950 . S
H1327 C1305 0.950 . S
C1328 C1329 1.349 . S
C1328 C1330 1.327 . S
C1328 H1353 0.950 . S
C1329 C1328 1.349 . S
C1329 C1345 1.349 . S
C1330 C1328 1.327 . S
C1330 C1349 1.429 . S
C1330 H1354 0.950 . S
C1331 C1348 1.574 . S
C1331 C1350 1.368 . S
C1331 H1355 0.949 . S
H1332 C1336 0.949 . S
C1333 C1334 1.349 . S
C1333 C1335 1.327 . S
C1333 H1356 0.950 . S
C1334 C1333 1.349 . S
C1334 C1346 1.349 . S
C1335 C1333 1.327 . S
C1335 C1351 1.429 . S
C1335 H1357 0.950 . S
C1336 H1332 0.949 . S
C1336 C1344 1.574 . S
C1336 C1352 1.368 . S
H1337 C1345 0.950 . S
H1338 C1343 0.950 . S
H1339 C1344 0.949 . S
H1340 C1346 0.950 . S
H1341 C1347 0.950 . S
H1342 C1348 0.949 . S
C1343 H1338 0.950 . S
C1343 C1345 1.327 . S
C1343 C1349 1.429 . S
C1344 C1336 1.574 . S
C1344 H1339 0.949 . S
C1344 C1350 1.368 . S
C1345 C1329 1.349 . S
C1345 H1337 0.950 . S
C1345 C1343 1.327 . S
C1346 C1334 1.349 . S
C1346 H1340 0.950 . S
C1346 C1347 1.327 . S
C1347 H1341 0.950 . S
C1347 C1346 1.327 . S
C1347 C1351 1.429 . S
C1348 C1331 1.574 . S
C1348 H1342 0.949 . S
C1348 C1352 1.368 . S
C1349 C1330 1.429 . S
C1349 C1343 1.429 . S
C1349 C1350 1.523 . S
C1350 C1331 1.368 . S
C1350 C1344 1.368 . S
C1350 C1349 1.523 . S
C1351 C1335 1.429 . S
C1351 C1347 1.429 . S
C1351 C1352 1.523 . S
C1352 C1336 1.368 . S
C1352 C1348 1.368 . S
C1352 C1351 1.523 . S
H1353 C1328 0.950 . S
H1354 C1330 0.950 . S
H1355 C1331 0.949 . S
H1356 C1333 0.950 . S
H1357 C1335 0.950 . S
C1358 C1359 1.349 . S
C1358 C1360 1.327 . S
C1358 H1383 0.950 . S
C1359 C1358 1.349 . S
C1359 C1375 1.349 . S
C1360 C1358 1.327 . S
C1360 C1379 1.429 . S
C1360 H1384 0.950 . S
C1361 C1378 1.574 . S
C1361 C1380 1.368 . S
C1361 H1385 0.946 . S
H1362 C1366 0.949 . S
C1363 C1364 1.349 1_565 S
C1363 C1365 1.327 . S
C1363 H1386 0.950 . S
C1364 C1363 1.349 1_545 S
C1364 C1376 1.349 . S
C1365 C1363 1.327 . S
C1365 C1381 1.429 1_565 S
C1365 H1387 0.950 . S
C1366 H1362 0.949 . S
C1366 C1374 1.574 . S
C1366 C1382 1.368 . S
H1367 C1375 0.950 . S
H1368 C1373 0.950 . S
H1369 C1374 0.949 . S
H1370 C1376 0.950 . S
H1371 C1377 0.950 . S
H1372 C1378 0.949 1_565 S
C1373 H1368 0.950 . S
C1373 C1375 1.327 . S
C1373 C1379 1.429 . S
C1374 C1366 1.574 . S
C1374 H1369 0.949 . S
C1374 C1380 1.368 . S
C1375 C1359 1.349 . S
C1375 H1367 0.950 . S
C1375 C1373 1.327 . S
C1376 C1364 1.349 . S
C1376 H1370 0.950 . S
C1376 C1377 1.327 . S
C1377 H1371 0.950 . S
C1377 C1376 1.327 . S
C1377 C1381 1.429 . S
C1378 C1361 1.574 . S
C1378 H1372 0.949 1_545 S
C1378 C1382 1.368 . S
C1379 C1360 1.429 . S
C1379 C1373 1.429 . S
C1379 C1380 1.523 . S
C1380 C1361 1.368 . S
C1380 C1374 1.368 . S
C1380 C1379 1.523 . S
C1381 C1365 1.429 1_545 S
C1381 C1377 1.429 . S
C1381 C1382 1.523 . S
C1382 C1366 1.368 . S
C1382 C1378 1.368 . S
C1382 C1381 1.523 . S
H1383 C1358 0.950 . S
H1384 C1360 0.950 . S
H1385 C1361 0.946 . S
H1386 C1363 0.950 . S
H1387 C1365 0.950 . S
C1388 C1389 1.349 . S
C1388 C1390 1.327 . S
C1388 H1413 0.950 . S
C1389 C1388 1.349 . S
C1389 C1405 1.349 . S
C1390 C1388 1.327 . S
C1390 C1409 1.429 . S
C1390 H1414 0.950 . S
C1391 C1408 1.574 . S
C1391 C1410 1.368 . S
C1391 H1415 0.949 . S
H1392 C1396 0.949 . S
C1393 C1394 1.349 . S
C1393 C1395 1.327 . S
C1393 H1416 0.950 . S
C1394 C1393 1.349 . S
C1394 C1406 1.349 . S
C1395 C1393 1.327 . S
C1395 C1411 1.429 . S
C1395 H1417 0.950 . S
C1396 H1392 0.949 . S
C1396 C1404 1.574 . S
C1396 C1412 1.368 . S
H1397 C1405 0.950 . S
H1398 C1403 0.950 . S
H1399 C1404 0.949 . S
H1400 C1406 0.950 . S
H1401 C1407 0.950 . S
H1402 C1408 0.949 . S
C1403 H1398 0.950 . S
C1403 C1405 1.327 . S
C1403 C1409 1.429 . S
C1404 C1396 1.574 . S
C1404 H1399 0.949 . S
C1404 C1410 1.368 . S
C1405 C1389 1.349 . S
C1405 H1397 0.950 . S
C1405 C1403 1.327 . S
C1406 C1394 1.349 . S
C1406 H1400 0.950 . S
C1406 C1407 1.327 . S
C1407 H1401 0.950 . S
C1407 C1406 1.327 . S
C1407 C1411 1.429 . S
C1408 C1391 1.574 . S
C1408 H1402 0.949 . S
C1408 C1412 1.368 . S
C1409 C1390 1.429 . S
C1409 C1403 1.429 . S
C1409 C1410 1.523 . S
C1410 C1391 1.368 . S
C1410 C1404 1.368 . S
C1410 C1409 1.523 . S
C1411 C1395 1.429 . S
C1411 C1407 1.429 . S
C1411 C1412 1.523 . S
C1412 C1396 1.368 . S
C1412 C1408 1.368 . S
C1412 C1411 1.523 . S
H1413 C1388 0.950 . S
H1414 C1390 0.950 . S
H1415 C1391 0.949 . S
H1416 C1393 0.950 . S
H1417 C1395 0.950 . S
C1418 C1419 1.349 . S
C1418 C1420 1.327 . S
C1418 H1443 0.950 . S
C1419 C1418 1.349 . S
C1419 C1435 1.349 . S
C1420 C1418 1.327 . S
C1420 C1439 1.429 . S
C1420 H1444 0.950 . S
C1421 C1438 1.574 . S
C1421 C1440 1.368 . S
C1421 H1445 0.949 . S
H1422 C1426 0.949 . S
C1423 C1424 1.349 . S
C1423 C1425 1.327 . S
C1423 H1446 0.950 . S
C1424 C1423 1.349 . S
C1424 C1436 1.349 . S
C1425 C1423 1.327 . S
C1425 C1441 1.429 . S
C1425 H1447 0.950 . S
C1426 H1422 0.949 . S
C1426 C1434 1.574 . S
C1426 C1442 1.368 . S
H1427 C1435 0.950 . S
H1428 C1433 0.950 . S
H1429 C1434 0.949 . S
H1430 C1436 0.950 . S
H1431 C1437 0.950 . S
H1432 C1438 0.949 . S
C1433 H1428 0.950 . S
C1433 C1435 1.327 . S
C1433 C1439 1.429 . S
C1434 C1426 1.574 . S
C1434 H1429 0.949 . S
C1434 C1440 1.368 . S
C1435 C1419 1.349 . S
C1435 H1427 0.950 . S
C1435 C1433 1.327 . S
C1436 C1424 1.349 . S
C1436 H1430 0.950 . S
C1436 C1437 1.327 . S
C1437 H1431 0.950 . S
C1437 C1436 1.327 . S
C1437 C1441 1.429 . S
C1438 C1421 1.574 . S
C1438 H1432 0.949 . S
C1438 C1442 1.368 . S
C1439 C1420 1.429 . S
C1439 C1433 1.429 . S
C1439 C1440 1.523 . S
C1440 C1421 1.368 . S
C1440 C1434 1.368 . S
C1440 C1439 1.523 . S
C1441 C1425 1.429 . S
C1441 C1437 1.429 . S
C1441 C1442 1.523 . S
C1442 C1426 1.368 . S
C1442 C1438 1.368 . S
C1442 C1441 1.523 . S
H1443 C1418 0.950 . S
H1444 C1420 0.950 . S
H1445 C1421 0.949 . S
H1446 C1423 0.950 . S
H1447 C1425 0.950 . S
C1448 C1449 1.349 . S
C1448 C1450 1.327 . S
C1448 H1473 0.950 . S
C1449 C1448 1.349 . S
C1449 C1465 1.349 . S
C1450 C1448 1.327 . S
C1450 C1469 1.429 . S
C1450 H1474 0.950 . S
C1451 C1468 1.574 . S
C1451 C1470 1.368 . S
C1451 H1475 0.949 . S
H1452 C1456 0.949 . S
C1453 C1454 1.349 . S
C1453 C1455 1.327 . S
C1453 H1476 0.950 . S
C1454 C1453 1.349 . S
C1454 C1466 1.349 . S
C1455 C1453 1.327 . S
C1455 C1471 1.429 . S
C1455 H1477 0.950 . S
C1456 H1452 0.949 . S
C1456 C1464 1.574 . S
C1456 C1472 1.368 . S
H1457 C1465 0.950 . S
H1458 C1463 0.950 . S
H1459 C1464 0.949 . S
H1460 C1466 0.950 . S
H1461 C1467 0.950 . S
H1462 C1468 0.949 . S
C1463 H1458 0.950 . S
C1463 C1465 1.327 . S
C1463 C1469 1.429 . S
C1464 C1456 1.574 . S
C1464 H1459 0.949 . S
C1464 C1470 1.368 . S
C1465 C1449 1.349 . S
C1465 H1457 0.950 . S
C1465 C1463 1.327 . S
C1466 C1454 1.349 . S
C1466 H1460 0.950 . S
C1466 C1467 1.327 . S
C1467 H1461 0.950 . S
C1467 C1466 1.327 . S
C1467 C1471 1.429 . S
C1468 C1451 1.574 . S
C1468 H1462 0.949 . S
C1468 C1472 1.368 . S
C1469 C1450 1.429 . S
C1469 C1463 1.429 . S
C1469 C1470 1.523 . S
C1470 C1451 1.368 . S
C1470 C1464 1.368 . S
C1470 C1469 1.523 . S
C1471 C1455 1.429 . S
C1471 C1467 1.429 . S
C1471 C1472 1.523 . S
C1472 C1456 1.368 . S
C1472 C1468 1.368 . S
C1472 C1471 1.523 . S
H1473 C1448 0.950 . S
H1474 C1450 0.950 . S
H1475 C1451 0.949 . S
H1476 C1453 0.950 . S
H1477 C1455 0.950 . S
C1478 C1479 1.349 . S
C1478 C1480 1.327 . S
C1478 H1503 0.950 . S
C1479 C1478 1.349 . S
C1479 C1495 1.349 . S
C1480 C1478 1.327 . S
C1480 C1499 1.429 . S
C1480 H1504 0.950 . S
C1481 C1498 1.574 . S
C1481 C1500 1.368 . S
C1481 H1505 0.949 . S
H1482 C1486 0.949 . S
C1483 C1484 1.349 . S
C1483 C1485 1.327 . S
C1483 H1506 0.950 . S
C1484 C1483 1.349 . S
C1484 C1496 1.349 . S
C1485 C1483 1.327 . S
C1485 C1501 1.429 . S
C1485 H1507 0.950 . S
C1486 H1482 0.949 . S
C1486 C1494 1.574 . S
C1486 C1502 1.368 . S
H1487 C1495 0.950 . S
H1488 C1493 0.950 . S
H1489 C1494 0.949 . S
H1490 C1496 0.950 . S
H1491 C1497 0.950 . S
H1492 C1498 0.949 . S
C1493 H1488 0.950 . S
C1493 C1495 1.327 . S
C1493 C1499 1.429 . S
C1494 C1486 1.574 . S
C1494 H1489 0.949 . S
C1494 C1500 1.368 . S
C1495 C1479 1.349 . S
C1495 H1487 0.950 . S
C1495 C1493 1.327 . S
C1496 C1484 1.349 . S
C1496 H1490 0.950 . S
C1496 C1497 1.327 . S
C1497 H1491 0.950 . S
C1497 C1496 1.327 . S
C1497 C1501 1.429 . S
C1498 C1481 1.574 . S
C1498 H1492 0.949 . S
C1498 C1502 1.368 . S
C1499 C1480 1.429 . S
C1499 C1493 1.429 . S
C1499 C1500 1.523 . S
C1500 C1481 1.368 . S
C1500 C1494 1.368 . S
C1500 C1499 1.523 . S
C1501 C1485 1.429 . S
C1501 C1497 1.429 . S
C1501 C1502 1.523 . S
C1502 C1486 1.368 . S
C1502 C1498 1.368 . S
C1502 C1501 1.523 . S
H1503 C1478 0.950 . S
H1504 C1480 0.950 . S
H1505 C1481 0.949 . S
H1506 C1483 0.950 . S
H1507 C1485 0.950 . S
C1508 C1509 1.349 . S
C1508 C1510 1.327 . S
C1508 H1533 0.950 . S
C1509 C1508 1.349 . S
C1509 C1525 1.349 . S
C1510 C1508 1.327 . S
C1510 C1529 1.429 . S
C1510 H1534 0.950 . S
C1511 C1528 1.574 . S
C1511 C1530 1.368 . S
C1511 H1535 0.949 . S
H1512 C1516 0.949 . S
C1513 C1514 1.349 . S
C1513 C1515 1.327 . S
C1513 H1536 0.950 . S
C1514 C1513 1.349 . S
C1514 C1526 1.349 . S
C1515 C1513 1.327 . S
C1515 C1531 1.429 . S
C1515 H1537 0.950 . S
C1516 H1512 0.949 . S
C1516 C1524 1.574 . S
C1516 C1532 1.368 . S
H1517 C1525 0.950 . S
H1518 C1523 0.950 . S
H1519 C1524 0.949 . S
H1520 C1526 0.950 . S
H1521 C1527 0.950 . S
H1522 C1528 0.949 . S
C1523 H1518 0.950 . S
C1523 C1525 1.327 . S
C1523 C1529 1.429 . S
C1524 C1516 1.574 . S
C1524 H1519 0.949 . S
C1524 C1530 1.368 . S
C1525 C1509 1.349 . S
C1525 H1517 0.950 . S
C1525 C1523 1.327 . S
C1526 C1514 1.349 . S
C1526 H1520 0.950 . S
C1526 C1527 1.327 . S
C1527 H1521 0.950 . S
C1527 C1526 1.327 . S
C1527 C1531 1.429 . S
C1528 C1511 1.574 . S
C1528 H1522 0.949 . S
C1528 C1532 1.368 . S
C1529 C1510 1.429 . S
C1529 C1523 1.429 . S
C1529 C1530 1.523 . S
C1530 C1511 1.368 . S
C1530 C1524 1.368 . S
C1530 C1529 1.523 . S
C1531 C1515 1.429 . S
C1531 C1527 1.429 . S
C1531 C1532 1.523 . S
C1532 C1516 1.368 . S
C1532 C1528 1.368 . S
C1532 C1531 1.523 . S
H1533 C1508 0.950 . S
H1534 C1510 0.950 . S
H1535 C1511 0.949 . S
H1536 C1513 0.950 . S
H1537 C1515 0.950 . S
C1538 C1539 1.349 . S
C1538 C1540 1.327 1_655 S
C1538 H1563 0.950 . S
C1539 C1538 1.349 . S
C1539 C1555 1.349 1_655 S
C1540 C1538 1.327 1_455 S
C1540 C1559 1.429 . S
C1540 H1564 0.950 . S
C1541 C1558 1.574 . S
C1541 C1560 1.368 . S
C1541 H1565 0.949 . S
H1542 C1546 0.949 . S
C1543 C1544 1.349 . S
C1543 C1545 1.327 . S
C1543 H1566 0.950 . S
C1544 C1543 1.349 . S
C1544 C1556 1.349 . S
C1545 C1543 1.327 . S
C1545 C1561 1.429 . S
C1545 H1567 0.950 . S
C1546 H1542 0.949 . S
C1546 C1554 1.574 . S
C1546 C1562 1.368 . S
H1547 C1555 0.950 . S
H1548 C1553 0.950 . S
H1549 C1554 0.949 . S
H1550 C1556 0.950 . S
H1551 C1557 0.950 . S
H1552 C1558 0.949 . S
C1553 H1548 0.950 . S
C1553 C1555 1.327 . S
C1553 C1559 1.429 . S
C1554 C1546 1.574 . S
C1554 H1549 0.949 . S
C1554 C1560 1.368 . S
C1555 C1539 1.349 1_455 S
C1555 H1547 0.950 . S
C1555 C1553 1.327 . S
C1556 C1544 1.349 . S
C1556 H1550 0.950 . S
C1556 C1557 1.327 . S
C1557 H1551 0.950 . S
C1557 C1556 1.327 . S
C1557 C1561 1.429 . S
C1558 C1541 1.574 . S
C1558 H1552 0.949 . S
C1558 C1562 1.368 . S
C1559 C1540 1.429 . S
C1559 C1553 1.429 . S
C1559 C1560 1.523 . S
C1560 C1541 1.368 . S
C1560 C1554 1.368 . S
C1560 C1559 1.523 . S
C1561 C1545 1.429 . S
C1561 C1557 1.429 . S
C1561 C1562 1.523 . S
C1562 C1546 1.368 . S
C1562 C1558 1.368 . S
C1562 C1561 1.523 . S
H1563 C1538 0.950 . S
H1564 C1540 0.950 . S
H1565 C1541 0.949 . S
H1566 C1543 0.950 . S
H1567 C1545 0.950 . S
C1568 C1569 1.349 . S
C1568 C1570 1.327 . S
C1568 H1593 0.950 . S
C1569 C1568 1.349 . S
C1569 C1585 1.349 . S
C1570 C1568 1.327 . S
C1570 C1589 1.429 . S
C1570 H1594 0.950 . S
C1571 C1588 1.574 . S
C1571 C1590 1.368 . S
C1571 H1595 0.949 . S
H1572 C1576 0.949 . S
C1573 C1574 1.349 . S
C1573 C1575 1.327 . S
C1573 H1596 0.950 . S
C1574 C1573 1.349 . S
C1574 C1586 1.349 . S
C1575 C1573 1.327 . S
C1575 C1591 1.429 . S
C1575 H1597 0.950 . S
C1576 H1572 0.949 . S
C1576 C1584 1.574 . S
C1576 C1592 1.368 . S
H1577 C1585 0.950 . S
H1578 C1583 0.950 . S
H1579 C1584 0.949 . S
H1580 C1586 0.950 . S
H1581 C1587 0.950 . S
H1582 C1588 0.949 . S
C1583 H1578 0.950 . S
C1583 C1585 1.327 . S
C1583 C1589 1.429 . S
C1584 C1576 1.574 . S
C1584 H1579 0.949 . S
C1584 C1590 1.368 . S
C1585 C1569 1.349 . S
C1585 H1577 0.950 . S
C1585 C1583 1.327 . S
C1586 C1574 1.349 . S
C1586 H1580 0.950 . S
C1586 C1587 1.327 . S
C1587 H1581 0.950 . S
C1587 C1586 1.327 . S
C1587 C1591 1.429 . S
C1588 C1571 1.574 . S
C1588 H1582 0.949 . S
C1588 C1592 1.368 . S
C1589 C1570 1.429 . S
C1589 C1583 1.429 . S
C1589 C1590 1.523 . S
C1590 C1571 1.368 . S
C1590 C1584 1.368 . S
C1590 C1589 1.523 . S
C1591 C1575 1.429 . S
C1591 C1587 1.429 . S
C1591 C1592 1.523 . S
C1592 C1576 1.368 . S
C1592 C1588 1.368 . S
C1592 C1591 1.523 . S
H1593 C1568 0.950 . S
H1594 C1570 0.950 . S
H1595 C1571 0.949 . S
H1596 C1573 0.950 . S
H1597 C1575 0.950 . S
C1598 C1599 1.349 . S
C1598 C1600 1.327 . S
C1598 H1623 0.950 . S
C1599 C1598 1.349 . S
C1599 C1615 1.349 . S
C1600 C1598 1.327 . S
C1600 C1619 1.429 . S
C1600 H1624 0.950 . S
C1601 C1618 1.574 1_655 S
C1601 C1620 1.368 1_556 S
C1601 H1625 0.949 1_655 S
H1602 C1606 0.951 . S
C1603 C1604 1.349 . S
C1603 C1605 1.327 . S
C1603 H1626 0.950 . S
C1604 C1603 1.349 . S
C1604 C1616 1.349 1_455 S
C1605 C1603 1.327 . S
C1605 C1621 1.429 1_455 S
C1605 H1627 0.950 . S
C1606 H1602 0.951 . S
C1606 C1614 1.574 1_556 S
C1606 C1622 1.368 . S
H1607 C1615 0.950 . S
H1608 C1613 0.994 . S
H1609 C1614 0.949 . S
H1610 C1616 0.950 . S
H1611 C1617 0.950 . S
H1612 C1618 0.949 . S
C1613 H1608 0.994 . S
C1613 C1615 1.327 . S
C1613 C1619 1.429 . S
C1614 C1606 1.574 1_554 S
C1614 H1609 0.949 . S
C1614 C1620 1.368 . S
C1615 C1599 1.349 . S
C1615 H1607 0.950 . S
C1615 C1613 1.327 . S
C1616 C1604 1.349 1_655 S
C1616 H1610 0.950 . S
C1616 C1617 1.327 . S
C1617 H1611 0.950 . S
C1617 C1616 1.327 . S
C1617 C1621 1.429 . S
C1618 C1601 1.574 1_455 S
C1618 H1612 0.949 . S
C1618 C1622 1.368 1_455 S
C1619 C1600 1.429 . S
C1619 C1613 1.429 . S
C1619 C1620 1.523 . S
C1620 C1601 1.368 1_554 S
C1620 C1614 1.368 . S
C1620 C1619 1.523 . S
C1621 C1605 1.429 1_655 S
C1621 C1617 1.429 . S
C1621 C1622 1.523 . S
C1622 C1606 1.368 . S
C1622 C1618 1.368 1_655 S
C1622 C1621 1.523 . S
H1623 C1598 0.950 . S
H1624 C1600 0.950 . S
H1625 C1601 0.949 1_455 S
H1626 C1603 0.950 . S
H1627 C1605 0.950 . S
C1628 C1629 1.349 . S
C1628 C1630 1.327 . S
C1628 H1653 0.950 . S
C1629 C1628 1.349 . S
C1629 C1645 1.349 . S
C1630 C1628 1.327 . S
C1630 C1649 1.429 . S
C1630 H1654 0.950 . S
C1631 C1648 1.574 . S
C1631 C1650 1.368 . S
C1631 H1655 0.949 . S
H1632 C1636 0.949 . S
C1633 C1634 1.349 . S
C1633 C1635 1.327 . S
C1633 H1656 0.950 . S
C1634 C1633 1.349 . S
C1634 C1646 1.349 . S
C1635 C1633 1.327 . S
C1635 C1651 1.429 . S
C1635 H1657 0.950 . S
C1636 H1632 0.949 . S
C1636 C1644 1.574 . S
C1636 C1652 1.368 . S
H1637 C1645 0.950 . S
H1638 C1643 0.950 . S
H1639 C1644 0.949 . S
H1640 C1646 0.950 . S
H1641 C1647 0.950 . S
H1642 C1648 0.949 . S
C1643 H1638 0.950 . S
C1643 C1645 1.327 . S
C1643 C1649 1.429 . S
C1644 C1636 1.574 . S
C1644 H1639 0.949 . S
C1644 C1650 1.368 . S
C1645 C1629 1.349 . S
C1645 H1637 0.950 . S
C1645 C1643 1.327 . S
C1646 C1634 1.349 . S
C1646 H1640 0.950 . S
C1646 C1647 1.327 . S
C1647 H1641 0.950 . S
C1647 C1646 1.327 . S
C1647 C1651 1.429 . S
C1648 C1631 1.574 . S
C1648 H1642 0.949 . S
C1648 C1652 1.368 . S
C1649 C1630 1.429 . S
C1649 C1643 1.429 . S
C1649 C1650 1.523 . S
C1650 C1631 1.368 . S
C1650 C1644 1.368 . S
C1650 C1649 1.523 . S
C1651 C1635 1.429 . S
C1651 C1647 1.429 . S
C1651 C1652 1.523 . S
C1652 C1636 1.368 . S
C1652 C1648 1.368 . S
C1652 C1651 1.523 . S
H1653 C1628 0.950 . S
H1654 C1630 0.950 . S
H1655 C1631 0.949 . S
H1656 C1633 0.950 . S
H1657 C1635 0.950 . S
C1658 C1659 1.349 . S
C1658 C1660 1.327 . S
C1658 H1683 0.950 . S
C1659 C1658 1.349 . S
C1659 C1675 1.349 . S
C1660 C1658 1.327 . S
C1660 C1679 1.429 . S
C1660 H1684 0.950 . S
C1661 C1678 1.574 . S
C1661 C1680 1.368 . S
C1661 H1685 0.949 1_455 S
H1662 C1666 0.949 . S
C1663 C1664 1.368 . S
C1663 C1665 1.333 . S
C1663 H1686 0.926 1_455 S
C1664 C1663 1.368 . S
C1664 C1676 1.349 . S
C1665 C1663 1.333 . S
C1665 C1681 1.429 . S
C1665 H1687 0.950 1_455 S
C1666 H1662 0.949 . S
C1666 C1674 1.574 1_556 S
C1666 C1682 1.368 . S
H1667 C1675 0.950 . S
H1668 C1673 0.950 1_655 S
H1669 C1674 0.949 . S
H1670 C1676 0.950 . S
H1671 C1677 0.950 . S
H1672 C1678 0.949 1_655 S
C1673 H1668 0.950 1_455 S
C1673 C1675 1.327 1_556 S
C1673 C1679 1.429 1_556 S
C1674 C1666 1.574 1_554 S
C1674 H1669 0.949 . S
C1674 C1680 1.368 1_554 S
C1675 C1659 1.349 . S
C1675 H1667 0.950 . S
C1675 C1673 1.327 1_554 S
C1676 C1664 1.349 . S
C1676 H1670 0.950 . S
C1676 C1677 1.327 . S
C1677 H1671 0.950 . S
C1677 C1676 1.327 . S
C1677 C1681 1.429 . S
C1678 C1661 1.574 . S
C1678 H1672 0.949 1_455 S
C1678 C1682 1.368 . S
C1679 C1660 1.429 . S
C1679 C1673 1.429 1_554 S
C1679 C1680 1.523 1_554 S
C1680 C1661 1.368 . S
C1680 C1674 1.368 1_556 S
C1680 C1679 1.523 1_556 S
C1681 C1665 1.429 . S
C1681 C1677 1.429 . S
C1681 C1682 1.523 . S
C1682 C1666 1.368 . S
C1682 C1678 1.368 . S
C1682 C1681 1.523 . S
H1683 C1658 0.950 . S
H1684 C1660 0.950 . S
H1685 C1661 0.949 1_655 S
H1686 C1663 0.926 1_655 S
H1687 C1665 0.950 1_655 S
C1688 C1689 1.349 . S
C1688 C1690 1.327 . S
C1688 H1713 0.950 . S
C1689 C1688 1.349 . S
C1689 C1705 1.349 . S
C1690 C1688 1.327 . S
C1690 C1709 1.429 . S
C1690 H1714 0.950 . S
C1691 C1708 1.574 . S
C1691 C1710 1.368 . S
C1691 H1715 0.949 . S
H1692 C1696 0.949 . S
C1693 C1694 1.349 . S
C1693 C1695 1.327 . S
C1693 H1716 0.950 . S
C1694 C1693 1.349 . S
C1694 C1706 1.349 . S
C1695 C1693 1.327 . S
C1695 C1711 1.429 . S
C1695 H1717 0.950 . S
C1696 H1692 0.949 . S
C1696 C1704 1.574 . S
C1696 C1712 1.368 . S
H1697 C1705 0.950 . S
H1698 C1703 0.950 . S
H1699 C1704 0.949 . S
H1700 C1706 0.950 . S
H1701 C1707 0.950 . S
H1702 C1708 0.949 . S
C1703 H1698 0.950 . S
C1703 C1705 1.327 . S
C1703 C1709 1.429 . S
C1704 C1696 1.574 . S
C1704 H1699 0.949 . S
C1704 C1710 1.368 . S
C1705 C1689 1.349 . S
C1705 H1697 0.950 . S
C1705 C1703 1.327 . S
C1706 C1694 1.349 . S
C1706 H1700 0.950 . S
C1706 C1707 1.327 . S
C1707 H1701 0.950 . S
C1707 C1706 1.327 . S
C1707 C1711 1.429 . S
C1708 C1691 1.574 . S
C1708 H1702 0.949 . S
C1708 C1712 1.368 . S
C1709 C1690 1.429 . S
C1709 C1703 1.429 . S
C1709 C1710 1.523 . S
C1710 C1691 1.368 . S
C1710 C1704 1.368 . S
C1710 C1709 1.523 . S
C1711 C1695 1.429 . S
C1711 C1707 1.429 . S
C1711 C1712 1.523 . S
C1712 C1696 1.368 . S
C1712 C1708 1.368 . S
C1712 C1711 1.523 . S
H1713 C1688 0.950 . S
H1714 C1690 0.950 . S
H1715 C1691 0.949 . S
H1716 C1693 0.950 . S
H1717 C1695 0.950 . S
C1718 C1719 1.349 . S
C1718 C1720 1.327 . S
C1718 H1743 0.950 . S
C1719 C1718 1.349 . S
C1719 C1735 1.349 . S
C1720 C1718 1.327 . S
C1720 C1739 1.429 . S
C1720 H1744 0.950 . S
C1721 C1738 1.574 . S
C1721 C1740 1.368 . S
C1721 H1745 0.949 . S
H1722 C1726 0.949 . S
C1723 C1724 1.349 . S
C1723 C1725 1.327 . S
C1723 H1746 0.950 . S
C1724 C1723 1.349 . S
C1724 C1736 1.349 . S
C1725 C1723 1.327 . S
C1725 C1741 1.429 . S
C1725 H1747 0.950 . S
C1726 H1722 0.949 . S
C1726 C1734 1.574 . S
C1726 C1742 1.368 . S
H1727 C1735 0.950 . S
H1728 C1733 0.950 . S
H1729 C1734 0.949 . S
H1730 C1736 0.950 . S
H1731 C1737 0.950 . S
H1732 C1738 0.949 . S
C1733 H1728 0.950 . S
C1733 C1735 1.327 . S
C1733 C1739 1.429 . S
C1734 C1726 1.574 . S
C1734 H1729 0.949 . S
C1734 C1740 1.368 . S
C1735 C1719 1.349 . S
C1735 H1727 0.950 . S
C1735 C1733 1.327 . S
C1736 C1724 1.349 . S
C1736 H1730 0.950 . S
C1736 C1737 1.327 . S
C1737 H1731 0.950 . S
C1737 C1736 1.327 . S
C1737 C1741 1.429 . S
C1738 C1721 1.574 . S
C1738 H1732 0.949 . S
C1738 C1742 1.368 . S
C1739 C1720 1.429 . S
C1739 C1733 1.429 . S
C1739 C1740 1.523 . S
C1740 C1721 1.368 . S
C1740 C1734 1.368 . S
C1740 C1739 1.523 . S
C1741 C1725 1.429 . S
C1741 C1737 1.429 . S
C1741 C1742 1.523 . S
C1742 C1726 1.368 . S
C1742 C1738 1.368 . S
C1742 C1741 1.523 . S
H1743 C1718 0.950 . S
H1744 C1720 0.950 . S
H1745 C1721 0.949 . S
H1746 C1723 0.950 . S
H1747 C1725 0.950 . S
C1748 C1749 1.349 . S
C1748 C1750 1.327 . S
C1748 H1773 0.950 . S
C1749 C1748 1.349 . S
C1749 C1765 1.349 . S
C1750 C1748 1.327 . S
C1750 C1769 1.429 . S
C1750 H1774 0.950 . S
C1751 C1768 1.574 . S
C1751 C1770 1.368 . S
C1751 H1775 0.949 . S
H1752 C1756 0.949 . S
C1753 C1754 1.349 . S
C1753 C1755 1.327 . S
C1753 H1776 0.950 . S
C1754 C1753 1.349 . S
C1754 C1766 1.349 . S
C1755 C1753 1.327 . S
C1755 C1771 1.429 . S
C1755 H1777 0.950 . S
C1756 H1752 0.949 . S
C1756 C1764 1.574 . S
C1756 C1772 1.368 . S
H1757 C1765 0.950 . S
H1758 C1763 0.950 . S
H1759 C1764 0.949 . S
H1760 C1766 0.950 . S
H1761 C1767 0.950 . S
H1762 C1768 0.949 . S
C1763 H1758 0.950 . S
C1763 C1765 1.327 . S
C1763 C1769 1.429 . S
C1764 C1756 1.574 . S
C1764 H1759 0.949 . S
C1764 C1770 1.368 . S
C1765 C1749 1.349 . S
C1765 H1757 0.950 . S
C1765 C1763 1.327 . S
C1766 C1754 1.349 . S
C1766 H1760 0.950 . S
C1766 C1767 1.327 . S
C1767 H1761 0.950 . S
C1767 C1766 1.327 . S
C1767 C1771 1.429 . S
C1768 C1751 1.574 . S
C1768 H1762 0.949 . S
C1768 C1772 1.368 . S
C1769 C1750 1.429 . S
C1769 C1763 1.429 . S
C1769 C1770 1.523 . S
C1770 C1751 1.368 . S
C1770 C1764 1.368 . S
C1770 C1769 1.523 . S
C1771 C1755 1.429 . S
C1771 C1767 1.429 . S
C1771 C1772 1.523 . S
C1772 C1756 1.368 . S
C1772 C1768 1.368 . S
C1772 C1771 1.523 . S
H1773 C1748 0.950 . S
H1774 C1750 0.950 . S
H1775 C1751 0.949 . S
H1776 C1753 0.950 . S
H1777 C1755 0.950 . S
C1778 C1779 1.349 . S
C1778 C1780 1.327 . S
C1778 H1803 0.950 . S
C1779 C1778 1.349 . S
C1779 C1795 1.349 . S
C1780 C1778 1.327 . S
C1780 C1799 1.429 . S
C1780 H1804 0.950 . S
C1781 C1798 1.574 . S
C1781 C1800 1.368 . S
C1781 H1805 0.949 . S
H1782 C1786 0.949 . S
C1783 C1784 1.349 . S
C1783 C1785 1.327 . S
C1783 H1806 0.950 . S
C1784 C1783 1.349 . S
C1784 C1796 1.349 . S
C1785 C1783 1.327 . S
C1785 C1801 1.429 . S
C1785 H1807 0.950 . S
C1786 H1782 0.949 . S
C1786 C1794 1.574 . S
C1786 C1802 1.368 . S
H1787 C1795 0.950 . S
H1788 C1793 0.950 . S
H1789 C1794 0.949 . S
H1790 C1796 0.950 . S
H1791 C1797 0.950 . S
H1792 C1798 0.949 . S
C1793 H1788 0.950 . S
C1793 C1795 1.327 . S
C1793 C1799 1.429 . S
C1794 C1786 1.574 . S
C1794 H1789 0.949 . S
C1794 C1800 1.368 . S
C1795 C1779 1.349 . S
C1795 H1787 0.950 . S
C1795 C1793 1.327 . S
C1796 C1784 1.349 . S
C1796 H1790 0.950 . S
C1796 C1797 1.327 . S
C1797 H1791 0.950 . S
C1797 C1796 1.327 . S
C1797 C1801 1.429 . S
C1798 C1781 1.574 . S
C1798 H1792 0.949 . S
C1798 C1802 1.368 . S
C1799 C1780 1.429 . S
C1799 C1793 1.429 . S
C1799 C1800 1.523 . S
C1800 C1781 1.368 . S
C1800 C1794 1.368 . S
C1800 C1799 1.523 . S
C1801 C1785 1.429 . S
C1801 C1797 1.429 . S
C1801 C1802 1.523 . S
C1802 C1786 1.368 . S
C1802 C1798 1.368 . S
C1802 C1801 1.523 . S
H1803 C1778 0.950 . S
H1804 C1780 0.950 . S
H1805 C1781 0.949 . S
H1806 C1783 0.950 . S
H1807 C1785 0.950 . S
C1808 C1809 1.349 . S
C1808 C1810 1.327 . S
C1808 H1833 0.950 . S
C1809 C1808 1.349 . S
C1809 C1825 1.349 . S
C1810 C1808 1.327 . S
C1810 C1829 1.429 . S
C1810 H1834 0.950 . S
C1811 C1828 1.574 . S
C1811 C1830 1.368 . S
C1811 H1835 0.949 . S
H1812 C1816 0.949 . S
C1813 C1814 1.349 . S
C1813 C1815 1.327 . S
C1813 H1836 0.950 . S
C1814 C1813 1.349 . S
C1814 C1826 1.349 . S
C1815 C1813 1.327 . S
C1815 C1831 1.429 . S
C1815 H1837 0.950 . S
C1816 H1812 0.949 . S
C1816 C1824 1.574 . S
C1816 C1832 1.368 . S
H1817 C1825 0.950 . S
H1818 C1823 0.950 . S
H1819 C1824 0.949 . S
H1820 C1826 0.950 . S
H1821 C1827 0.950 . S
H1822 C1828 0.949 . S
C1823 H1818 0.950 . S
C1823 C1825 1.327 . S
C1823 C1829 1.429 . S
C1824 C1816 1.574 . S
C1824 H1819 0.949 . S
C1824 C1830 1.368 . S
C1825 C1809 1.349 . S
C1825 H1817 0.950 . S
C1825 C1823 1.327 . S
C1826 C1814 1.349 . S
C1826 H1820 0.950 . S
C1826 C1827 1.327 . S
C1827 H1821 0.950 . S
C1827 C1826 1.327 . S
C1827 C1831 1.429 . S
C1828 C1811 1.574 . S
C1828 H1822 0.949 . S
C1828 C1832 1.368 . S
C1829 C1810 1.429 . S
C1829 C1823 1.429 . S
C1829 C1830 1.523 . S
C1830 C1811 1.368 . S
C1830 C1824 1.368 . S
C1830 C1829 1.523 . S
C1831 C1815 1.429 . S
C1831 C1827 1.429 . S
C1831 C1832 1.523 . S
C1832 C1816 1.368 . S
C1832 C1828 1.368 . S
C1832 C1831 1.523 . S
H1833 C1808 0.950 . S
H1834 C1810 0.950 . S
H1835 C1811 0.949 . S
H1836 C1813 0.950 . S
H1837 C1815 0.950 . S
C1838 C1839 1.349 . S
C1838 C1840 1.327 . S
C1838 H1863 0.950 . S
C1839 C1838 1.349 . S
C1839 C1855 1.349 . S
C1840 C1838 1.327 . S
C1840 C1859 1.429 . S
C1840 H1864 0.950 . S
C1841 C1858 1.574 . S
C1841 C1860 1.368 . S
C1841 H1865 0.949 . S
H1842 C1846 0.949 . S
C1843 C1844 1.349 . S
C1843 C1845 1.327 . S
C1843 H1866 0.950 . S
C1844 C1843 1.349 . S
C1844 C1856 1.349 . S
C1845 C1843 1.327 . S
C1845 C1861 1.429 . S
C1845 H1867 0.950 . S
C1846 H1842 0.949 . S
C1846 C1854 1.574 . S
C1846 C1862 1.368 . S
H1847 C1855 0.950 . S
H1848 C1853 0.950 . S
H1849 C1854 0.949 . S
H1850 C1856 0.950 . S
H1851 C1857 0.950 . S
H1852 C1858 0.949 . S
C1853 H1848 0.950 . S
C1853 C1855 1.327 . S
C1853 C1859 1.429 . S
C1854 C1846 1.574 . S
C1854 H1849 0.949 . S
C1854 C1860 1.368 . S
C1855 C1839 1.349 . S
C1855 H1847 0.950 . S
C1855 C1853 1.327 . S
C1856 C1844 1.349 . S
C1856 H1850 0.950 . S
C1856 C1857 1.327 . S
C1857 H1851 0.950 . S
C1857 C1856 1.327 . S
C1857 C1861 1.429 . S
C1858 C1841 1.574 . S
C1858 H1852 0.949 . S
C1858 C1862 1.368 . S
C1859 C1840 1.429 . S
C1859 C1853 1.429 . S
C1859 C1860 1.523 . S
C1860 C1841 1.368 . S
C1860 C1854 1.368 . S
C1860 C1859 1.523 . S
C1861 C1845 1.429 . S
C1861 C1857 1.429 . S
C1861 C1862 1.523 . S
C1862 C1846 1.368 . S
C1862 C1858 1.368 . S
C1862 C1861 1.523 . S
H1863 C1838 0.950 . S
H1864 C1840 0.950 . S
H1865 C1841 0.949 . S
H1866 C1843 0.950 . S
H1867 C1845 0.950 . S
C1868 C1869 1.349 . S
C1868 C1870 1.327 . S
C1868 H1893 0.950 . S
C1869 C1868 1.349 . S
C1869 C1885 1.349 . S
C1870 C1868 1.327 . S
C1870 C1889 1.429 . S
C1870 H1894 0.950 . S
C1871 C1888 1.574 . S
C1871 C1890 1.368 . S
C1871 H1895 0.949 . S
H1872 C1876 0.949 . S
C1873 C1874 1.349 . S
C1873 C1875 1.327 . S
C1873 H1896 0.950 . S
C1874 C1873 1.349 . S
C1874 C1886 1.349 . S
C1875 C1873 1.327 . S
C1875 C1891 1.429 . S
C1875 H1897 0.950 . S
C1876 H1872 0.949 . S
C1876 C1884 1.574 . S
C1876 C1892 1.368 . S
H1877 C1885 0.950 . S
H1878 C1883 0.950 . S
H1879 C1884 0.949 . S
H1880 C1886 0.950 . S
H1881 C1887 0.950 . S
H1882 C1888 0.949 . S
C1883 H1878 0.950 . S
C1883 C1885 1.327 . S
C1883 C1889 1.429 . S
C1884 C1876 1.574 . S
C1884 H1879 0.949 . S
C1884 C1890 1.368 . S
C1885 C1869 1.349 . S
C1885 H1877 0.950 . S
C1885 C1883 1.327 . S
C1886 C1874 1.349 . S
C1886 H1880 0.950 . S
C1886 C1887 1.327 . S
C1887 H1881 0.950 . S
C1887 C1886 1.327 . S
C1887 C1891 1.429 . S
C1888 C1871 1.574 . S
C1888 H1882 0.949 . S
C1888 C1892 1.368 . S
C1889 C1870 1.429 . S
C1889 C1883 1.429 . S
C1889 C1890 1.523 . S
C1890 C1871 1.368 . S
C1890 C1884 1.368 . S
C1890 C1889 1.523 . S
C1891 C1875 1.429 . S
C1891 C1887 1.429 . S
C1891 C1892 1.523 . S
C1892 C1876 1.368 . S
C1892 C1888 1.368 . S
C1892 C1891 1.523 . S
H1893 C1868 0.950 . S
H1894 C1870 0.950 . S
H1895 C1871 0.949 . S
H1896 C1873 0.950 . S
H1897 C1875 0.950 . S
C1898 C1899 1.349 . S
C1898 C1900 1.327 . S
C1898 H1923 0.950 . S
C1899 C1898 1.349 . S
C1899 C1915 1.349 . S
C1900 C1898 1.327 . S
C1900 C1919 1.429 . S
C1900 H1924 0.950 . S
C1901 C1918 1.574 . S
C1901 C1920 1.368 . S
C1901 H1925 0.949 . S
H1902 C1906 0.949 . S
C1903 C1904 1.349 . S
C1903 C1905 1.327 . S
C1903 H1926 0.950 . S
C1904 C1903 1.349 . S
C1904 C1916 1.349 . S
C1905 C1903 1.327 . S
C1905 C1921 1.429 . S
C1905 H1927 0.950 . S
C1906 H1902 0.949 . S
C1906 C1914 1.574 . S
C1906 C1922 1.368 . S
H1907 C1915 0.950 . S
H1908 C1913 0.950 . S
H1909 C1914 0.949 . S
H1910 C1916 0.950 . S
H1911 C1917 0.950 . S
H1912 C1918 0.949 . S
C1913 H1908 0.950 . S
C1913 C1915 1.327 . S
C1913 C1919 1.429 . S
C1914 C1906 1.574 . S
C1914 H1909 0.949 . S
C1914 C1920 1.368 . S
C1915 C1899 1.349 . S
C1915 H1907 0.950 . S
C1915 C1913 1.327 . S
C1916 C1904 1.349 . S
C1916 H1910 0.950 . S
C1916 C1917 1.327 . S
C1917 H1911 0.950 . S
C1917 C1916 1.327 . S
C1917 C1921 1.429 . S
C1918 C1901 1.574 . S
C1918 H1912 0.949 . S
C1918 C1922 1.368 . S
C1919 C1900 1.429 . S
C1919 C1913 1.429 . S
C1919 C1920 1.523 . S
C1920 C1901 1.368 . S
C1920 C1914 1.368 . S
C1920 C1919 1.523 . S
C1921 C1905 1.429 . S
C1921 C1917 1.429 . S
C1921 C1922 1.523 . S
C1922 C1906 1.368 . S
C1922 C1918 1.368 . S
C1922 C1921 1.523 . S
H1923 C1898 0.950 . S
H1924 C1900 0.950 . S
H1925 C1901 0.949 . S
H1926 C1903 0.950 . S
H1927 C1905 0.950 . S
C1928 C1929 1.349 . S
C1928 C1930 1.327 . S
C1928 H1953 0.950 . S
C1929 C1928 1.349 . S
C1929 C1945 1.349 . S
C1930 C1928 1.327 . S
C1930 C1949 1.429 . S
C1930 H1954 0.950 . S
C1931 C1948 1.574 . S
C1931 C1950 1.368 1_554 S
C1931 H1955 0.949 . S
H1932 C1936 0.949 . S
C1933 C1934 1.349 1_554 S
C1933 C1935 1.327 . S
C1933 H1956 0.950 . S
C1934 C1933 1.349 1_556 S
C1934 C1946 1.349 . S
C1935 C1933 1.327 . S
C1935 C1951 1.429 1_554 S
C1935 H1957 0.950 . S
C1936 H1932 0.949 . S
C1936 C1944 1.574 . S
C1936 C1952 1.368 . S
H1937 C1945 0.950 1_554 S
H1938 C1943 0.966 . S
H1939 C1944 0.949 . S
H1940 C1946 0.950 . S
H1941 C1947 0.950 . S
H1942 C1948 0.949 . S
C1943 H1938 0.966 . S
C1943 C1945 1.327 1_554 S
C1943 C1949 1.413 1_554 S
C1944 C1936 1.574 . S
C1944 H1939 0.949 . S
C1944 C1950 1.368 . S
C1945 C1929 1.349 . S
C1945 H1937 0.950 1_556 S
C1945 C1943 1.327 1_556 S
C1946 C1934 1.349 . S
C1946 H1940 0.950 . S
C1946 C1947 1.327 . S
C1947 H1941 0.950 . S
C1947 C1946 1.327 . S
C1947 C1951 1.429 . S
C1948 C1931 1.574 . S
C1948 H1942 0.949 . S
C1948 C1952 1.368 1_554 S
C1949 C1930 1.429 . S
C1949 C1943 1.413 1_556 S
C1949 C1950 1.523 . S
C1950 C1931 1.368 1_556 S
C1950 C1944 1.368 . S
C1950 C1949 1.523 . S
C1951 C1935 1.429 1_556 S
C1951 C1947 1.429 . S
C1951 C1952 1.523 . S
C1952 C1936 1.368 . S
C1952 C1948 1.368 1_556 S
C1952 C1951 1.523 . S
H1953 C1928 0.950 . S
H1954 C1930 0.950 . S
H1955 C1931 0.949 . S
H1956 C1933 0.950 . S
H1957 C1935 0.950 . S
C1958 C1959 1.349 . S
C1958 C1960 1.327 . S
C1958 H1983 0.950 . S
C1959 C1958 1.349 . S
C1959 C1975 1.349 . S
C1960 C1958 1.327 . S
C1960 C1979 1.429 . S
C1960 H1984 0.950 . S
C1961 C1978 1.574 . S
C1961 C1980 1.368 . S
C1961 H1985 0.949 . S
H1962 C1966 0.949 . S
C1963 C1964 1.349 . S
C1963 C1965 1.327 . S
C1963 H1986 0.950 . S
C1964 C1963 1.349 . S
C1964 C1976 1.349 . S
C1965 C1963 1.327 . S
C1965 C1981 1.429 . S
C1965 H1987 0.950 . S
C1966 H1962 0.949 . S
C1966 C1974 1.574 . S
C1966 C1982 1.368 . S
H1967 C1975 0.950 . S
H1968 C1973 0.950 . S
H1969 C1974 0.949 . S
H1970 C1976 0.950 . S
H1971 C1977 0.950 . S
H1972 C1978 0.949 . S
C1973 H1968 0.950 . S
C1973 C1975 1.327 . S
C1973 C1979 1.429 . S
C1974 C1966 1.574 . S
C1974 H1969 0.949 . S
C1974 C1980 1.368 . S
C1975 C1959 1.349 . S
C1975 H1967 0.950 . S
C1975 C1973 1.327 . S
C1976 C1964 1.349 . S
C1976 H1970 0.950 . S
C1976 C1977 1.327 . S
C1977 H1971 0.950 . S
C1977 C1976 1.327 . S
C1977 C1981 1.429 . S
C1978 C1961 1.574 . S
C1978 H1972 0.949 . S
C1978 C1982 1.368 . S
C1979 C1960 1.429 . S
C1979 C1973 1.429 . S
C1979 C1980 1.523 . S
C1980 C1961 1.368 . S
C1980 C1974 1.368 . S
C1980 C1979 1.523 . S
C1981 C1965 1.429 . S
C1981 C1977 1.429 . S
C1981 C1982 1.523 . S
C1982 C1966 1.368 . S
C1982 C1978 1.368 . S
C1982 C1981 1.523 . S
H1983 C1958 0.950 . S
H1984 C1960 0.950 . S
H1985 C1961 0.949 . S
H1986 C1963 0.950 . S
H1987 C1965 0.950 . S
C1988 C1989 1.349 . S
C1988 C1990 1.327 . S
C1988 H2013 0.950 . S
C1989 C1988 1.349 . S
C1989 C2005 1.349 . S
C1990 C1988 1.327 . S
C1990 C2009 1.429 . S
C1990 H2014 0.950 . S
C1991 C2008 1.574 . S
C1991 C2010 1.368 . S
C1991 H2015 0.949 . S
H1992 C1996 0.949 . S
C1993 C1994 1.349 . S
C1993 C1995 1.327 . S
C1993 H2016 0.950 . S
C1994 C1993 1.349 . S
C1994 C2006 1.349 . S
C1995 C1993 1.327 . S
C1995 C2011 1.429 . S
C1995 H2017 0.950 . S
C1996 H1992 0.949 . S
C1996 C2004 1.574 . S
C1996 C2012 1.368 . S
H1997 C2005 0.950 . S
H1998 C2003 0.950 . S
H1999 C2004 0.949 . S
H2000 C2006 0.950 1_556 S
H2001 C2007 0.950 1_556 S
H2002 C2008 0.949 . S
C2003 H1998 0.950 . S
C2003 C2005 1.327 . S
C2003 C2009 1.429 . S
C2004 C1996 1.574 . S
C2004 H1999 0.949 . S
C2004 C2010 1.368 . S
C2005 C1989 1.349 . S
C2005 H1997 0.950 . S
C2005 C2003 1.327 . S
C2006 C1994 1.349 . S
C2006 H2000 0.950 1_554 S
C2006 C2007 1.327 . S
C2007 H2001 0.950 1_554 S
C2007 C2006 1.327 . S
C2007 C2011 1.429 . S
C2008 C1991 1.574 . S
C2008 H2002 0.949 . S
C2008 C2012 1.368 . S
C2009 C1990 1.429 . S
C2009 C2003 1.429 . S
C2009 C2010 1.523 . S
C2010 C1991 1.368 . S
C2010 C2004 1.368 . S
C2010 C2009 1.523 . S
C2011 C1995 1.429 . S
C2011 C2007 1.429 . S
C2011 C2012 1.523 . S
C2012 C1996 1.368 . S
C2012 C2008 1.368 . S
C2012 C2011 1.523 . S
H2013 C1988 0.950 . S
H2014 C1990 0.950 . S
H2015 C1991 0.949 . S
H2016 C1993 0.950 . S
H2017 C1995 0.950 . S
C2018 C2019 1.349 . S
C2018 C2020 1.327 . S
C2018 H2043 0.950 . S
C2019 C2018 1.349 . S
C2019 C2035 1.349 . S
C2020 C2018 1.327 . S
C2020 C2039 1.429 . S
C2020 H2044 0.950 1_554 S
C2021 C2038 1.574 . S
C2021 C2040 1.368 . S
C2021 H2045 0.949 . S
H2022 C2026 0.949 1_556 S
C2023 C2024 1.349 . S
C2023 C2025 1.327 . S
C2023 H2046 0.950 . S
C2024 C2023 1.349 . S
C2024 C2036 1.349 1_554 S
C2025 C2023 1.327 . S
C2025 C2041 1.429 . S
C2025 H2047 0.950 . S
C2026 H2022 0.949 1_554 S
C2026 C2034 1.574 . S
C2026 C2042 1.368 . S
H2027 C2035 0.950 . S
H2028 C2033 0.950 . S
H2029 C2034 0.949 1_556 S
H2030 C2036 0.950 . S
H2031 C2037 0.946 . S
H2032 C2038 0.949 . S
C2033 H2028 0.950 . S
C2033 C2035 1.327 . S
C2033 C2039 1.429 . S
C2034 C2026 1.574 . S
C2034 H2029 0.949 1_554 S
C2034 C2040 1.368 . S
C2035 C2019 1.349 . S
C2035 H2027 0.950 . S
C2035 C2033 1.327 . S
C2036 C2024 1.349 1_556 S
C2036 H2030 0.950 . S
C2036 C2037 1.327 . S
C2037 H2031 0.946 . S
C2037 C2036 1.327 . S
C2037 C2041 1.432 1_556 S
C2038 C2021 1.574 . S
C2038 H2032 0.949 . S
C2038 C2042 1.368 . S
C2039 C2020 1.429 . S
C2039 C2033 1.429 . S
C2039 C2040 1.523 . S
C2040 C2021 1.368 . S
C2040 C2034 1.368 . S
C2040 C2039 1.523 . S
C2041 C2025 1.429 . S
C2041 C2037 1.432 1_554 S
C2041 C2042 1.523 . S
C2042 C2026 1.368 . S
C2042 C2038 1.368 . S
C2042 C2041 1.523 . S
H2043 C2018 0.950 . S
H2044 C2020 0.950 1_556 S
H2045 C2021 0.949 . S
H2046 C2023 0.950 . S
H2047 C2025 0.950 . S
C614 C178 1.071 . S
C609 C62 1.072 . S
C644 C226 1.632 . S
C639 C73 1.645 1_455 S
C669 C84 1.373 . S
C674 C262 1.389 . S
C704 C298 1.335 . S
C699 C49 1.226 . S
C734 C324 1.328 . S
C729 C118 1.303 . S
C764 C360 1.698 . S
C759 C137 1.457 . S
C789 C129 1.512 . S
C794 C395 1.513 . S
C824 C432 2.033 1_565 S
C819 C106 1.987 . S
C849 C128 1.738 . S
C854 C466 1.765 . S
C884 C514 1.717 . S
C879 C104 1.575 . S
C909 C115 1.510 . S
C914 C467 1.821 . S
C944 C504 1.919 . S
C939 C139 1.854 . S
C969 C85 1.526 . S
C974 C550 1.484 1_655 S
C999 C52 1.233 . S
C1004 C539 1.235 . S
C1029 C60 0.893 . S
C1034 C540 0.919 . S
C1059 C71 1.544 1_655 S
C1064 C538 1.716 . S
C1089 C40 1.585 . S
C1094 C286 1.725 . S
C1119 C162 1.031 . S
C1124 C287 1.031 . S
C1154 C190 1.180 . S
C1149 C173 1.210 1_565 S
C1184 C215 1.728 . S
C1179 C93 1.469 . S
C1209 C51 1.490 1_545 S
C1214 C322 1.533 . S
C1244 C430 1.434 . S
C1239 C126 1.332 . S
C1274 C323 1.910 . S
C1269 C107 1.907 . S
C1304 C396 1.746 . S
C1299 C140 1.727 . S
C1334 C394 1.071 . S
C1329 C161 1.072 . S
C1359 C172 1.645 . S
C1364 C442 1.626 . S
C1389 C95 1.373 . S
C1394 C334 1.389 . S
C1424 C370 1.335 . S
C1419 C148 1.226 . S
C1449 C41 1.303 . S
C1454 C252 1.328 . S
C1484 C288 1.698 . S
C1479 C5 1.457 1_655 S
C1514 C179 1.513 . S
C1509 C19 1.512 . S
C1544 C216 2.033 . S
C1539 C29 1.987 . S
C1569 C18 1.738 . S
C1574 C502 1.765 . S
C1599 C27 1.575 . S
C1604 C478 1.717 . S
C1629 C38 1.510 . S
C1634 C503 1.821 . S
C1659 C7 1.854 . S
C1664 C468 1.919 . S
C1694 C586 1.484 . S
C1689 C96 1.526 . S
C1724 C575 1.235 . S
C1719 C151 1.233 . S
C1754 C576 0.919 . S
C1749 C159 0.893 . S
C1779 C170 1.557 . S
C1784 C574 1.719 . S
C1809 C117 1.585 . S
C1814 C358 1.697 . S
C1844 C359 1.031 . S
C1839 C63 1.031 . S
C1874 C406 1.180 . S
C1869 C74 1.208 . S
C1904 C431 1.728 . S
C1899 C82 1.469 . S
C1929 C150 1.499 . S
C1934 C250 1.533 1_556 S
C1964 C214 1.434 . S
C1959 C16 1.332 . S
C1989 C30 1.907 . S
C1994 C251 1.910 . S
C2024 C180 1.746 . S
C2019 C8 1.727 1_565 S
