# Generated by pormake.
# Topology ocu, (6,8)-cn, num edge types: 1
# Building blocks:
#     Node 0, Type 0, BuildingBlock: CUKXOW_clean_sbu_0, # of connection points: 6
#     Node 1, Type 0, BuildingBlock: CUKXOW_clean_sbu_0, # of connection points: 6
#     Node 2, Type 0, BuildingBlock: CUKXOW_clean_sbu_0, # of connection points: 6
#     Node 3, Type 0, BuildingBlock: CUKXOW_clean_sbu_0, # of connection points: 6
#     Node 4, Type 0, BuildingBlock: CUKXOW_clean_sbu_0, # of connection points: 6
#     Node 5, Type 0, BuildingBlock: CUKXOW_clean_sbu_0, # of connection points: 6
#     Node 6, Type 0, BuildingBlock: CUKXOW_clean_sbu_0, # of connection points: 6
#     Node 7, Type 0, BuildingBlock: CUKXOW_clean_sbu_0, # of connection points: 6
#     Node 8, Type 1, BuildingBlock: GIZVER_clean_sbu_0, # of connection points: 8
#     Node 9, Type 1, BuildingBlock: GIZVER_clean_sbu_0, # of connection points: 8
#     Node 10, Type 1, BuildingBlock: GIZVER_clean_sbu_0, # of connection points: 8
#     Node 11, Type 1, BuildingBlock: GIZVER_clean_sbu_0, # of connection points: 8
#     Node 12, Type 1, BuildingBlock: GIZVER_clean_sbu_0, # of connection points: 8
#     Node 13, Type 1, BuildingBlock: GIZVER_clean_sbu_0, # of connection points: 8
#     Edge 14, Type (0, 1), BuildingBlock: KIFKEQ_clean_linker_1, # of connection points: 2
#     Edge 15, Type (0, 1), BuildingBlock: KIFKEQ_clean_linker_1, # of connection points: 2
#     Edge 16, Type (0, 1), BuildingBlock: KIFKEQ_clean_linker_1, # of connection points: 2
#     Edge 17, Type (0, 1), BuildingBlock: KIFKEQ_clean_linker_1, # of connection points: 2
#     Edge 18, Type (0, 1), BuildingBlock: KIFKEQ_clean_linker_1, # of connection points: 2
#     Edge 19, Type (0, 1), BuildingBlock: KIFKEQ_clean_linker_1, # of connection points: 2
#     Edge 20, Type (0, 1), BuildingBlock: KIFKEQ_clean_linker_1, # of connection points: 2
#     Edge 21, Type (0, 1), BuildingBlock: KIFKEQ_clean_linker_1, # of connection points: 2
#     Edge 22, Type (0, 1), BuildingBlock: KIFKEQ_clean_linker_1, # of connection points: 2
#     Edge 23, Type (0, 1), BuildingBlock: KIFKEQ_clean_linker_1, # of connection points: 2
#     Edge 24, Type (0, 1), BuildingBlock: KIFKEQ_clean_linker_1, # of connection points: 2
#     Edge 25, Type (0, 1), BuildingBlock: KIFKEQ_clean_linker_1, # of connection points: 2
#     Edge 26, Type (0, 1), BuildingBlock: KIFKEQ_clean_linker_1, # of connection points: 2
#     Edge 27, Type (0, 1), BuildingBlock: KIFKEQ_clean_linker_1, # of connection points: 2
#     Edge 28, Type (0, 1), BuildingBlock: KIFKEQ_clean_linker_1, # of connection points: 2
#     Edge 29, Type (0, 1), BuildingBlock: KIFKEQ_clean_linker_1, # of connection points: 2
#     Edge 30, Type (0, 1), BuildingBlock: KIFKEQ_clean_linker_1, # of connection points: 2
#     Edge 31, Type (0, 1), BuildingBlock: KIFKEQ_clean_linker_1, # of connection points: 2
#     Edge 32, Type (0, 1), BuildingBlock: KIFKEQ_clean_linker_1, # of connection points: 2
#     Edge 33, Type (0, 1), BuildingBlock: KIFKEQ_clean_linker_1, # of connection points: 2
#     Edge 34, Type (0, 1), BuildingBlock: KIFKEQ_clean_linker_1, # of connection points: 2
#     Edge 35, Type (0, 1), BuildingBlock: KIFKEQ_clean_linker_1, # of connection points: 2
#     Edge 36, Type (0, 1), BuildingBlock: KIFKEQ_clean_linker_1, # of connection points: 2
#     Edge 37, Type (0, 1), BuildingBlock: KIFKEQ_clean_linker_1, # of connection points: 2
#     Edge 38, Type (0, 1), BuildingBlock: KIFKEQ_clean_linker_1, # of connection points: 2
#     Edge 39, Type (0, 1), BuildingBlock: KIFKEQ_clean_linker_1, # of connection points: 2
#     Edge 40, Type (0, 1), BuildingBlock: KIFKEQ_clean_linker_1, # of connection points: 2
#     Edge 41, Type (0, 1), BuildingBlock: KIFKEQ_clean_linker_1, # of connection points: 2
#     Edge 42, Type (0, 1), BuildingBlock: KIFKEQ_clean_linker_1, # of connection points: 2
#     Edge 43, Type (0, 1), BuildingBlock: KIFKEQ_clean_linker_1, # of connection points: 2
#     Edge 44, Type (0, 1), BuildingBlock: KIFKEQ_clean_linker_1, # of connection points: 2
#     Edge 45, Type (0, 1), BuildingBlock: KIFKEQ_clean_linker_1, # of connection points: 2
#     Edge 46, Type (0, 1), BuildingBlock: KIFKEQ_clean_linker_1, # of connection points: 2
#     Edge 47, Type (0, 1), BuildingBlock: KIFKEQ_clean_linker_1, # of connection points: 2
#     Edge 48, Type (0, 1), BuildingBlock: KIFKEQ_clean_linker_1, # of connection points: 2
#     Edge 49, Type (0, 1), BuildingBlock: KIFKEQ_clean_linker_1, # of connection points: 2
#     Edge 50, Type (0, 1), BuildingBlock: KIFKEQ_clean_linker_1, # of connection points: 2
#     Edge 51, Type (0, 1), BuildingBlock: KIFKEQ_clean_linker_1, # of connection points: 2
#     Edge 52, Type (0, 1), BuildingBlock: KIFKEQ_clean_linker_1, # of connection points: 2
#     Edge 53, Type (0, 1), BuildingBlock: KIFKEQ_clean_linker_1, # of connection points: 2
#     Edge 54, Type (0, 1), BuildingBlock: KIFKEQ_clean_linker_1, # of connection points: 2
#     Edge 55, Type (0, 1), BuildingBlock: KIFKEQ_clean_linker_1, # of connection points: 2
#     Edge 56, Type (0, 1), BuildingBlock: KIFKEQ_clean_linker_1, # of connection points: 2
#     Edge 57, Type (0, 1), BuildingBlock: KIFKEQ_clean_linker_1, # of connection points: 2
#     Edge 58, Type (0, 1), BuildingBlock: KIFKEQ_clean_linker_1, # of connection points: 2
#     Edge 59, Type (0, 1), BuildingBlock: KIFKEQ_clean_linker_1, # of connection points: 2
#     Edge 60, Type (0, 1), BuildingBlock: KIFKEQ_clean_linker_1, # of connection points: 2
#     Edge 61, Type (0, 1), BuildingBlock: KIFKEQ_clean_linker_1, # of connection points: 2
# Relax obj value: 0.134
# Max RMSD: 0.284
# Mean RMSD: 0.176
data_MOF--net-ocu--node1-CUKXOW_clean_sbu_0--node2-GIZVER_clean_sbu_0--edge1-KIFKEQ_clean_linker_1
_symmetry_space_group_name_H-M    P1
_symmetry_Int_Tables_number       1
_symmetry_cell_setting            triclinic
loop_
_symmetry_equiv_pos_as_xyz
'x, y, z'
_cell_length_a     40.423295
_cell_length_b     43.612891
_cell_length_c     30.796632
_cell_angle_alpha  91.709865
_cell_angle_beta   92.789307
_cell_angle_gamma 99.461275
loop_
_atom_site_label
_atom_site_type_symbol
_atom_site_fract_x
_atom_site_fract_y
_atom_site_fract_z
_atom_type_partial_charge
Tb0 Tb 0.27135 0.24051 0.22164 0.0
C1 C 0.31734 0.30802 0.22421 0.0
Tb2 Tb 0.26406 0.28968 0.29712 0.0
O3 O 0.2322 0.2532 0.17588 0.0
O4 O 0.24466 0.27633 0.234 0.0
O5 O 0.31433 0.27791 0.21177 0.0
C6 C 0.22975 0.3309 0.32939 0.0
O7 O 0.29817 0.31796 0.2541 0.0
C8 C 0.30898 0.25437 0.32062 0.0
C9 C 0.22158 0.21996 0.2982 0.0
O10 O 0.26241 0.33367 0.33299 0.0
O11 O 0.21709 0.30482 0.30921 0.0
O12 O 0.30076 0.27645 0.34558 0.0
O13 O 0.29226 0.25441 0.28473 0.0
O14 O 0.22879 0.24857 0.31687 0.0
O15 O 0.2352 0.21206 0.26168 0.0
C16 C 0.28537 0.19548 0.17012 0.0
O17 O 0.27952 0.19263 0.21101 0.0
O18 O 0.28508 0.22386 0.15913 0.0
C19 C 0.22645 0.27651 0.19976 0.0
Tb20 Tb 0.74646 0.25821 0.29987 0.0
C21 C 0.72869 0.21492 0.21306 0.0
Tb22 Tb 0.78895 0.27077 0.22021 0.0
O23 O 0.72762 0.30209 0.29063 0.0
O24 O 0.73996 0.27664 0.23731 0.0
O25 O 0.72585 0.21851 0.25577 0.0
C26 C 0.81244 0.30516 0.15541 0.0
O27 O 0.75032 0.23405 0.19097 0.0
C28 C 0.81727 0.23457 0.27416 0.0
C29 C 0.80858 0.31082 0.30937 0.0
O30 O 0.81661 0.27648 0.16082 0.0
O31 O 0.79435 0.31366 0.18571 0.0
O32 O 0.82947 0.24392 0.23758 0.0
O33 O 0.79063 0.24592 0.27726 0.0
O34 O 0.81033 0.30904 0.26643 0.0
O35 O 0.78742 0.29101 0.33059 0.0
C36 C 0.71523 0.2315 0.36627 0.0
O37 O 0.70146 0.24628 0.33627 0.0
O38 O 0.74664 0.23224 0.35896 0.0
C39 C 0.73021 0.30165 0.24866 0.0
Tb40 Tb 0.76713 0.77461 0.24138 0.0
C41 C 0.71498 0.71404 0.24939 0.0
Tb42 Tb 0.77364 0.73083 0.32022 0.0
O43 O 0.79523 0.75144 0.19441 0.0
O44 O 0.78987 0.73571 0.25606 0.0
O45 O 0.71888 0.74386 0.23963 0.0
C46 C 0.79675 0.69142 0.37332 0.0
O47 O 0.73659 0.70259 0.27572 0.0
C48 C 0.73695 0.7748 0.34009 0.0
C49 C 0.82615 0.79325 0.313 0.0
O50 O 0.76529 0.69412 0.36744 0.0
O51 O 0.81471 0.70998 0.34815 0.0
O52 O 0.743 0.75299 0.36569 0.0
O53 O 0.75112 0.76998 0.30542 0.0
O54 O 0.81723 0.76693 0.33319 0.0
O55 O 0.81012 0.80112 0.27757 0.0
C56 C 0.75412 0.81972 0.19131 0.0
O57 O 0.76831 0.82374 0.23019 0.0
O58 O 0.74608 0.79026 0.18122 0.0
C59 C 0.80213 0.73013 0.22022 0.0
Tb60 Tb 0.27876 0.77702 0.23522 0.0
C61 C 0.32233 0.79553 0.32469 0.0
Tb62 Tb 0.26103 0.74155 0.3132 0.0
O63 O 0.23589 0.80172 0.24055 0.0
O64 O 0.26007 0.78808 0.29591 0.0
O65 O 0.32061 0.79682 0.28156 0.0
C66 C 0.21934 0.72303 0.37523 0.0
O67 O 0.29957 0.77683 0.34542 0.0
C68 C 0.30422 0.71789 0.26491 0.0
C69 C 0.21713 0.72413 0.22368 0.0
O70 O 0.24657 0.7117 0.36799 0.0
O71 O 0.21623 0.74441 0.34792 0.0
O72 O 0.3033 0.71564 0.30704 0.0
O73 O 0.27967 0.73048 0.25215 0.0
O74 O 0.21945 0.72174 0.26657 0.0
O75 O 0.24015 0.74241 0.20301 0.0
C76 C 0.31353 0.80113 0.16994 0.0
O77 O 0.28555 0.80883 0.18176 0.0
O78 O 0.32165 0.7798 0.19478 0.0
C79 C 0.23534 0.8002 0.28258 0.0
Tb80 Tb 0.25129 0.75616 0.80333 0.0
C81 C 0.23281 0.7179 0.71233 0.0
Tb82 Tb 0.29511 0.7702 0.72534 0.0
O83 O 0.21134 0.78374 0.78646 0.0
O84 O 0.25074 0.78248 0.74741 0.0
O85 O 0.23042 0.71893 0.75521 0.0
C86 C 0.32953 0.79771 0.66202 0.0
O87 O 0.25435 0.73818 0.69225 0.0
C88 C 0.30977 0.7253 0.775 0.0
C89 C 0.31321 0.81041 0.81513 0.0
O90 O 0.34121 0.78085 0.69111 0.0
O91 O 0.29827 0.79877 0.66838 0.0
O92 O 0.31284 0.7256 0.73314 0.0
O93 O 0.30031 0.7503 0.78688 0.0
O94 O 0.31654 0.80812 0.77232 0.0
O95 O 0.29035 0.79126 0.83543 0.0
C96 C 0.22681 0.71984 0.86559 0.0
O97 O 0.22288 0.74875 0.86193 0.0
O98 O 0.24505 0.71215 0.83495 0.0
C99 C 0.22408 0.7938 0.7505 0.0
Tb100 Tb 0.27028 0.29641 0.69409 0.0
C101 C 0.22463 0.23115 0.70227 0.0
Tb102 Tb 0.28412 0.25316 0.77074 0.0
O103 O 0.29701 0.27317 0.64404 0.0
O104 O 0.29512 0.25844 0.70551 0.0
O105 O 0.2263 0.26007 0.68919 0.0
C106 C 0.3119 0.21411 0.81813 0.0
O107 O 0.24744 0.2223 0.72938 0.0
C108 C 0.24654 0.29426 0.79753 0.0
C109 C 0.33028 0.3181 0.76269 0.0
O110 O 0.27979 0.21176 0.80949 0.0
O111 O 0.32804 0.23795 0.79969 0.0
O112 O 0.25594 0.27262 0.82092 0.0
O113 O 0.25841 0.29133 0.76051 0.0
O114 O 0.32811 0.28911 0.77536 0.0
O115 O 0.30786 0.32741 0.73523 0.0
C116 C 0.24502 0.33439 0.64082 0.0
O117 O 0.27677 0.33297 0.64674 0.0
O118 O 0.22778 0.31533 0.66614 0.0
C119 C 0.30615 0.25241 0.66928 0.0
Tb120 Tb 0.77954 0.28569 0.7061 0.0
C121 C 0.81447 0.30165 0.80101 0.0
Tb122 Tb 0.75665 0.2458 0.78441 0.0
O123 O 0.75344 0.32584 0.72043 0.0
O124 O 0.75036 0.28878 0.75998 0.0
O125 O 0.81755 0.30183 0.75829 0.0
C126 C 0.71957 0.21505 0.84315 0.0
O127 O 0.78935 0.28403 0.81915 0.0
C128 C 0.80415 0.22701 0.73873 0.0
C129 C 0.71824 0.23087 0.68998 0.0
O130 O 0.75027 0.21224 0.83586 0.0
O131 O 0.71006 0.23555 0.81789 0.0
O132 O 0.80128 0.22314 0.78013 0.0
O133 O 0.77963 0.2392 0.72505 0.0
O134 O 0.71929 0.22605 0.73257 0.0
O135 O 0.74014 0.25218 0.67162 0.0
C136 C 0.8254 0.30257 0.64858 0.0
O137 O 0.79495 0.30907 0.6462 0.0
O138 O 0.82944 0.28685 0.68291 0.0
C139 C 0.74116 0.31492 0.75638 0.0
Tb140 Tb 0.77845 0.73782 0.72409 0.0
C141 C 0.82153 0.80676 0.72342 0.0
Tb142 Tb 0.76963 0.78579 0.79675 0.0
O143 O 0.75687 0.76271 0.67278 0.0
O144 O 0.74271 0.76786 0.73715 0.0
O145 O 0.81684 0.77749 0.70738 0.0
C146 C 0.75512 0.8308 0.84781 0.0
O147 O 0.80485 0.81518 0.7568 0.0
C148 C 0.81564 0.75139 0.82099 0.0
C149 C 0.72385 0.71829 0.79548 0.0
O150 O 0.75794 0.8327 0.80607 0.0
O151 O 0.75853 0.80329 0.85988 0.0
O152 O 0.80815 0.77397 0.84474 0.0
O153 O 0.79875 0.75184 0.78579 0.0
O154 O 0.72804 0.74801 0.80989 0.0
O155 O 0.74162 0.709 0.76347 0.0
C156 C 0.80971 0.69354 0.69456 0.0
O157 O 0.77788 0.69425 0.68575 0.0
O158 O 0.82317 0.71786 0.71813 0.0
C159 C 0.74109 0.77858 0.69912 0.0
Co160 Co 0.06575 0.95343 0.49361 0.0
Co161 Co 0.06675 0.97371 0.57162 0.0
Co162 Co 1.02092 0.01406 0.51155 0.0
O163 O 0.06369 0.9944 0.51994 0.0
H164 H 0.08387 1.00919 0.51636 0.0
O165 O 0.9784 0.03396 0.50327 0.0
Co166 Co 0.9767 0.07504 0.52987 0.0
Co167 Co 0.97538 0.05486 0.45175 0.0
H168 H 0.95814 0.01926 0.50686 0.0
O169 O 0.10818 0.97038 0.59813 0.0
O170 O 0.07636 0.93515 0.55183 0.0
O171 O 0.02595 0.96525 0.6024 0.0
O172 O 0.99288 0.98525 0.55427 0.0
O173 O 0.03864 0.04567 0.55863 0.0
O174 O 0.97317 0.11094 0.5567 0.0
O175 O 0.93176 0.07038 0.54219 0.0
O176 O 0.02324 0.08535 0.52379 0.0
O177 O 0.04904 0.04281 0.46872 0.0
O178 O 1.0161 0.06319 0.42085 0.0
O179 O 0.96608 0.09347 0.47177 0.0
O180 O 0.93394 0.05841 0.42552 0.0
C181 C 0.10036 0.93036 0.4633 0.0
C182 C 1.00099 0.95316 0.47053 0.0
C183 C 0.99692 0.96879 0.58785 0.0
C184 C 0.10222 0.94266 0.57985 0.0
C185 C 0.9421 0.09821 0.56015 0.0
C186 C 0.04252 0.0747 0.55139 0.0
C187 C 0.04509 0.05942 0.43525 0.0
C188 C 0.94008 0.0861 0.44392 0.0
O189 O 0.06936 0.91753 0.46701 0.0
O190 O 0.11068 0.9582 0.48121 0.0
O191 O 1.00311 0.98229 0.46451 0.0
O192 O 1.01951 0.9433 0.4998 0.0
Co193 Co 0.57401 0.95805 0.01679 0.0
Co194 Co 0.56389 0.98156 0.0945 0.0
Co195 Co 0.52133 1.00817 0.02206 0.0
O196 O 0.56376 0.99592 0.03843 0.0
H197 H 0.58221 0.01294 0.03697 0.0
O198 O 0.47874 0.02029 1.00558 0.0
Co199 Co 0.46952 0.05944 0.0229 0.0
Co200 Co 0.47953 0.03151 0.9478 0.0
H201 H 0.46003 1.00374 1.0086 0.0
O202 O 0.60414 0.98197 0.12519 0.0
O203 O 0.57678 0.94486 0.07755 0.0
O204 O 0.52193 0.97033 0.12048 0.0
O205 O 0.49423 0.97691 0.05816 0.0
O206 O 0.52949 0.03897 0.0718 0.0
O207 O 0.45559 0.09418 0.03774 0.0
O208 O 0.4251 0.04731 0.01761 0.0
O209 O 0.51616 0.07728 0.03356 0.0
O210 O 0.54849 0.03933 0.98563 0.0
O211 O 0.52189 0.03774 0.9208 0.0
O212 O 0.47092 0.07063 0.96135 0.0
O213 O 0.44038 0.03439 0.91548 0.0
C214 C 0.61729 0.94377 1.00343 0.0
C215 C 0.50867 0.94866 0.97943 0.0
C216 C 0.49533 0.9664 0.09617 0.0
C217 C 0.60222 0.95531 0.10447 0.0
C218 C 0.42666 0.07611 0.03098 0.0
C219 C 0.53422 0.06769 0.06367 0.0
C220 C 0.54804 0.04571 0.94557 0.0
C221 C 0.44587 0.06226 0.9332 0.0
O222 O 0.58892 0.92469 0.99784 0.0
O223 O 0.61807 0.97198 0.01881 0.0
O224 O 0.51329 0.97752 0.97223 0.0
O225 O 0.52727 0.9386 1.00861 0.0
Co226 Co 0.06377 0.45072 0.98218 0.0
Co227 Co 0.06808 0.47092 0.06092 0.0
Co228 Co 1.01983 0.5113 1.00708 0.0
O229 O 0.06222 0.49136 1.00994 0.0
H230 H 0.08214 0.50627 1.00529 0.0
O231 O 0.97726 0.53109 1.00392 0.0
Co232 Co 0.97566 0.57099 0.03323 0.0
Co233 Co 0.97123 0.5526 0.95398 0.0
H234 H 0.95741 0.51606 1.00808 0.0
O235 O 0.11008 0.46782 0.08414 0.0
O236 O 0.0762 0.43255 0.03954 0.0
O237 O 0.02956 0.46219 0.09528 0.0
O238 O 0.99596 0.48447 0.05127 0.0
O239 O 0.04111 0.54288 0.05282 0.0
O240 O 0.97151 0.6059 0.06308 0.0
O241 O 0.93138 0.5644 0.04759 0.0
O242 O 0.02176 0.58308 0.02445 0.0
O243 O 0.04354 0.53823 0.96283 0.0
O244 O 1.00991 0.56154 0.92005 0.0
O245 O 0.96327 0.59067 0.97714 0.0
O246 O 0.9291 0.55668 0.93129 0.0
C247 C 0.09873 0.42857 0.94996 0.0
C248 C 0.99511 0.45042 0.9682 0.0
C249 C 1.00067 0.46752 0.08325 0.0
C250 C 0.10256 0.43985 0.06678 0.0
C251 C 0.94095 0.59176 0.06716 0.0
C252 C 0.04331 0.57217 0.04831 0.0
C253 C 0.03874 0.55565 0.93137 0.0
C254 C 0.93675 0.58419 0.95009 0.0
O255 O 0.06802 0.41503 0.95453 0.0
O256 O 0.10834 0.45662 0.96751 0.0
O257 O 0.99869 0.47957 0.96178 0.0
O258 O 1.01718 0.43892 0.99055 0.0
Co259 Co 0.56578 0.45336 0.98522 0.0
Co260 Co 0.56437 0.47003 0.06409 0.0
Co261 Co 0.52071 0.5139 0.01093 0.0
O262 O 0.5627 0.49328 0.0153 0.0
H263 H 0.58309 0.50822 0.0141 0.0
O264 O 0.47858 0.53439 1.00656 0.0
Co265 Co 0.47616 0.57427 0.03683 0.0
Co266 Co 0.47689 0.5579 0.95826 0.0
H267 H 0.45815 0.5195 1.00792 0.0
O268 O 0.60476 0.46962 0.09148 0.0
O269 O 0.57655 0.43327 0.04277 0.0
O270 O 0.52428 0.46027 0.09577 0.0
O271 O 0.49177 0.48307 0.05072 0.0
O272 O 0.53859 0.54303 0.06084 0.0
O273 O 0.47206 0.60917 0.06692 0.0
O274 O 0.43101 0.56885 0.05001 0.0
O275 O 0.52321 0.58503 0.03152 0.0
O276 O 0.54959 0.54458 0.97092 0.0
O277 O 0.51691 0.56764 0.92642 0.0
O278 O 0.46429 0.59443 0.97977 0.0
O279 O 0.43656 0.55786 0.93088 0.0
C280 C 0.60209 0.43168 0.95434 0.0
C281 C 0.49978 0.45542 0.96215 0.0
C282 C 0.49543 0.46506 0.08266 0.0
C283 C 0.60116 0.4421 0.07261 0.0
C284 C 0.44112 0.59598 0.07028 0.0
C285 C 0.54184 0.57263 0.05826 0.0
C286 C 0.54579 0.56261 0.93905 0.0
C287 C 0.43982 0.58534 0.94983 0.0
O288 O 0.57103 0.41826 0.95606 0.0
O289 O 0.61116 0.45921 0.97383 0.0
O290 O 0.503 0.48506 0.96095 0.0
O291 O 0.51823 0.44232 0.98837 0.0
Co292 Co 0.09095 0.49465 0.47283 0.0
Co293 Co 0.04758 0.50981 0.41384 0.0
Co294 Co 1.02104 0.51417 0.50991 0.0
O295 O 0.04365 0.49148 0.46759 0.0
H296 H 0.03252 0.47018 0.46311 0.0
O297 O 0.99827 0.53687 0.55218 0.0
Co298 Co 0.95082 0.53305 0.54653 0.0
Co299 Co 0.99434 0.51861 0.60596 0.0
H300 H 1.00915 0.55826 0.55651 0.0
O301 O 0.05205 0.48568 0.36463 0.0
O302 O 0.09301 0.50872 0.4126 0.0
O303 O 0.04118 0.55211 0.41182 0.0
O304 O 0.0331 0.55591 0.48274 0.0
O305 O 0.97929 0.50287 0.47128 0.0
O306 O 0.90723 0.53356 0.54247 0.0
O307 O 0.94941 0.57248 0.56357 0.0
O308 O 0.94601 0.4916 0.52505 0.0
O309 O 1.00892 0.47235 0.53717 0.0
O310 O 1.00167 0.4766 0.60829 0.0
O311 O 0.9486 0.51858 0.60634 0.0
O312 O 0.98845 0.54238 0.6551 0.0
C313 C 0.12343 0.46438 0.46596 0.0
C314 C 0.08923 0.54134 0.5335 0.0
C315 C 0.03905 0.56826 0.4462 0.0
C316 C 0.08343 0.49069 0.3784 0.0
C317 C 0.91769 0.5628 0.55282 0.0
C318 C 0.95313 0.48701 0.48591 0.0
C319 C 1.00338 0.46022 0.57399 0.0
C320 C 0.95719 0.53646 0.64083 0.0
O321 O 0.13442 0.49352 0.47637 0.0
O322 O 0.09155 0.4551 0.45586 0.0
O323 O 0.06299 0.52561 0.54832 0.0
O324 O 0.09651 0.53631 0.49447 0.0
Co325 Co 0.58774 0.97071 0.53217 0.0
Co326 Co 0.56976 0.97217 0.45278 0.0
Co327 Co 0.52269 0.01344 0.50606 0.0
O328 O 0.54491 0.97465 0.50105 0.0
H329 H 0.52863 0.95585 0.50219 0.0
O330 O 0.50037 0.05215 0.51184 0.0
Co331 Co 0.45828 0.05689 0.47979 0.0
Co332 Co 0.47373 0.0533 0.55884 0.0
H333 H 0.51675 0.071 0.51187 0.0
O334 O 0.57034 0.93435 0.42579 0.0
O335 O 0.60902 0.95998 0.4756 0.0
O336 O 0.58194 1.01033 0.42475 0.0
O337 O 0.55154 0.03828 0.46409 0.0
O338 O 0.48914 0.99652 0.45862 0.0
O339 O 0.422 0.06431 0.44853 0.0
O340 O 0.46748 0.09896 0.47083 0.0
O341 O 0.44301 1.01223 0.48187 0.0
O342 O 0.49407 0.98854 0.54786 0.0
O343 O 0.46171 0.0147 0.58632 0.0
O344 O 0.43542 0.06691 0.53559 0.0
O345 O 0.47305 0.08994 0.58853 0.0
C346 C 0.60929 0.93557 0.56255 0.0
C347 C 0.58778 0.03577 0.54708 0.0
C348 C 0.57254 0.03576 0.43516 0.0
C349 C 0.59931 0.9367 0.44701 0.0
C350 C 0.43802 0.09278 0.44977 0.0
C351 C 0.45758 0.99154 0.46372 0.0
C352 C 0.47228 0.98977 0.57611 0.0
C353 C 0.44453 0.08873 0.56656 0.0
O354 O 0.62494 0.9641 0.56199 0.0
O355 O 0.57923 0.92872 0.54319 0.0
O356 O 0.5564 0.03028 0.55333 0.0
O357 O 0.60238 0.01527 0.52854 0.0
H358 H 0.19711 0.22029 0.38099 0.0
H359 H 0.19042 0.1628 0.26345 0.0
H360 H 0.15774 0.17996 0.41425 0.0
H361 H 0.15109 0.12279 0.29648 0.0
H362 H 0.05014 0.07625 0.35058 0.0
H363 H 0.0932 0.11358 0.31905 0.0
H364 H 0.14965 0.12592 0.44258 0.0
H365 H 0.10633 0.08797 0.47417 0.0
C366 C 0.18731 0.19914 0.36207 0.0
C367 C 0.19719 0.19524 0.31915 0.0
C368 C 0.1648 0.17576 0.3814 0.0
C369 C 0.15085 0.14776 0.35833 0.0
C370 C 0.16079 0.14393 0.31545 0.0
C371 C 0.18363 0.16704 0.29642 0.0
C372 C 0.07205 0.08636 0.37096 0.0
C373 C 0.07469 0.07847 0.41496 0.0
C374 C 0.09691 0.10796 0.35276 0.0
C375 C 0.12526 0.12319 0.37796 0.0
C376 C 0.12824 0.11502 0.42194 0.0
C377 C 0.10355 0.09282 0.44002 0.0
H378 H 0.78862 0.19427 0.33552 0.0
H379 H 0.88346 0.23043 0.28306 0.0
H380 H 0.81679 0.16032 0.38208 0.0
H381 H 0.91157 0.19711 0.32956 0.0
H382 H 0.95821 0.15019 0.44345 0.0
H383 H 0.92769 0.18756 0.40753 0.0
H384 H 0.84572 0.11346 0.37088 0.0
H385 H 0.87632 0.07622 0.40598 0.0
C386 C 0.81551 0.19545 0.3345 0.0
C387 C 0.83372 0.21533 0.30566 0.0
C388 C 0.83171 0.17577 0.36094 0.0
C389 C 0.86668 0.1759 0.35995 0.0
C390 C 0.88481 0.19647 0.33187 0.0
C391 C 0.86858 0.21554 0.30492 0.0
C392 C 0.93348 0.14193 0.42833 0.0
C393 C 0.91995 0.11001 0.42765 0.0
C394 C 0.916 0.16336 0.40739 0.0
C395 C 0.88411 0.15368 0.38592 0.0
C396 C 0.86999 0.122 0.38715 0.0
C397 C 0.88771 0.10054 0.40724 0.0
H398 H 0.85561 0.84803 0.27984 0.0
H399 H 0.86041 0.78999 0.39077 0.0
H400 H 0.89973 0.88699 0.31485 0.0
H401 H 0.9036 0.82921 0.42599 0.0
H402 H 1.00081 0.89102 0.46255 0.0
H403 H 0.96109 0.85241 0.42052 0.0
H404 H 0.90698 0.92435 0.37648 0.0
H405 H 0.94776 0.96348 0.41763 0.0
C406 C 0.86611 0.84351 0.31158 0.0
C407 C 0.85448 0.81588 0.33252 0.0
C408 C 0.89121 0.86594 0.33171 0.0
C409 C 0.90506 0.86119 0.37316 0.0
C410 C 0.8938 0.83335 0.39373 0.0
C411 C 0.86889 0.8109 0.37357 0.0
C412 C 0.98056 0.89872 0.44376 0.0
C413 C 0.97723 0.93027 0.4436 0.0
C414 C 0.95771 0.87652 0.41981 0.0
C415 C 0.93073 0.88529 0.39558 0.0
C416 C 0.92774 0.91695 0.39456 0.0
C417 C 0.95092 0.93931 0.41827 0.0
H418 H 0.24713 0.81748 0.36957 0.0
H419 H 0.18137 0.82705 0.25805 0.0
H420 H 0.21689 0.85056 0.41367 0.0
H421 H 0.1511 0.85972 0.30192 0.0
H422 H 0.08005 0.88205 0.4054 0.0
H423 H 0.11343 0.85176 0.36357 0.0
H424 H 0.20424 0.90708 0.42078 0.0
H425 H 0.17032 0.93812 0.46316 0.0
C426 C 0.22616 0.82654 0.35449 0.0
C427 C 0.21656 0.81943 0.31025 0.0
C428 C 0.20901 0.84574 0.37969 0.0
C429 C 0.18148 0.85791 0.36149 0.0
C430 C 0.17197 0.85065 0.31725 0.0
C431 C 0.18935 0.83189 0.292 0.0
C432 C 0.10714 0.88799 0.40931 0.0
C433 C 0.12236 0.91274 0.43785 0.0
C434 C 0.12635 0.87059 0.38495 0.0
C435 C 0.16161 0.87692 0.38846 0.0
C436 C 0.17711 0.90145 0.41734 0.0
C437 C 0.15771 0.91938 0.44145 0.0
H438 H 0.25318 0.8346 0.69 0.0
H439 H 0.15791 0.79796 0.74095 0.0
H440 H 0.2253 0.86879 0.64347 0.0
H441 H 0.13009 0.83145 0.6944 0.0
H442 H 0.08441 0.87851 0.57975 0.0
H443 H 0.11475 0.84119 0.61608 0.0
H444 H 0.19596 0.91552 0.65475 0.0
H445 H 0.16553 0.95273 0.61923 0.0
C446 C 0.22627 0.8334 0.69074 0.0
C447 C 0.20785 0.81333 0.71916 0.0
C448 C 0.21024 0.85319 0.6643 0.0
C449 C 0.17522 0.85295 0.66482 0.0
C450 C 0.15689 0.83219 0.69248 0.0
C451 C 0.17296 0.81303 0.71946 0.0
C452 C 0.10894 0.88685 0.59542 0.0
C453 C 0.1223 0.91882 0.59652 0.0
C454 C 0.12631 0.86544 0.61659 0.0
C455 C 0.15793 0.87519 0.63872 0.0
C456 C 0.1719 0.90694 0.63796 0.0
C457 C 0.15428 0.92837 0.61763 0.0
H458 H 0.16509 0.24067 0.66454 0.0
H459 H 0.22179 0.16821 0.69868 0.0
H460 H 0.12069 0.20183 0.6303 0.0
H461 H 0.17788 0.1294 0.66299 0.0
H462 H 0.07754 0.0658 0.62682 0.0
H463 H 0.1208 0.10338 0.66649 0.0
H464 H 0.11333 0.16928 0.56575 0.0
H465 H 0.06951 0.13233 0.52718 0.0
C466 C 0.16808 0.21644 0.66463 0.0
C467 C 0.19695 0.20746 0.68399 0.0
C468 C 0.14275 0.1942 0.64482 0.0
C469 C 0.14599 0.16259 0.64345 0.0
C470 C 0.1745 0.15354 0.66385 0.0
C471 C 0.1997 0.17577 0.68414 0.0
C472 C 0.08529 0.08832 0.61323 0.0
C473 C 0.07 0.09632 0.57423 0.0
C474 C 0.11008 0.10978 0.63583 0.0
C475 C 0.12018 0.13943 0.6195 0.0
C476 C 0.10547 0.14696 0.57981 0.0
C477 C 0.08051 0.12572 0.55756 0.0
H478 H 0.79516 0.21217 0.65077 0.0
H479 H 0.85794 0.20021 0.76419 0.0
H480 H 0.82632 0.17969 0.607 0.0
H481 H 0.8892 0.16821 0.72064 0.0
H482 H 0.96209 0.1458 0.61934 0.0
H483 H 0.92844 0.17635 0.66041 0.0
H484 H 0.83799 0.12274 0.59962 0.0
H485 H 0.87214 0.09143 0.55811 0.0
C486 C 0.81575 0.20281 0.6663 0.0
C487 C 0.82417 0.20898 0.71102 0.0
C488 C 0.83341 0.18393 0.64129 0.0
C489 C 0.86032 0.17118 0.66017 0.0
C490 C 0.86882 0.17772 0.70481 0.0
C491 C 0.8509 0.19612 0.72986 0.0
C492 C 0.93501 0.14029 0.61451 0.0
C493 C 0.91996 0.11593 0.58525 0.0
C494 C 0.91565 0.15785 0.63841 0.0
C495 C 0.88041 0.15209 0.63364 0.0
C496 C 0.86509 0.12795 0.60403 0.0
C497 C 0.88463 0.10985 0.58043 0.0
H498 H 0.84986 0.86496 0.75717 0.0
H499 H 0.849 0.80543 0.64263 0.0
H500 H 0.88908 0.90534 0.72449 0.0
H501 H 0.88809 0.84617 0.60961 0.0
H502 H 0.9367 0.93876 0.54816 0.0
H503 H 0.89378 0.90029 0.57954 0.0
H504 H 0.94836 0.91516 0.70424 0.0
H505 H 0.99116 0.95295 0.67288 0.0
C506 C 0.85793 0.86037 0.72494 0.0
C507 C 0.84609 0.83151 0.70293 0.0
C508 C 0.88066 0.88367 0.70612 0.0
C509 C 0.89206 0.87938 0.66413 0.0
C510 C 0.87985 0.85069 0.64177 0.0
C511 C 0.85753 0.8271 0.66096 0.0
C512 C 0.93914 0.93435 0.5825 0.0
C513 C 0.96741 0.94952 0.60796 0.0
C514 C 0.9147 0.91188 0.60045 0.0
C515 C 0.91733 0.90425 0.64468 0.0
C516 C 0.94501 0.92033 0.67029 0.0
C517 C 0.96969 0.94219 0.65221 0.0
H518 H 0.29676 0.13767 0.19022 0.0
H519 H 0.28719 0.19768 0.08281 0.0
H520 H 0.31863 0.10126 0.14184 0.0
H521 H 0.30851 0.16111 0.03441 0.0
H522 H 0.41932 0.13647 0.02992 0.0
H523 H 0.37106 0.15862 0.05056 0.0
H524 H 0.31637 0.06663 0.06959 0.0
H525 H 0.36492 0.04405 0.04715 0.0
C526 C 0.29835 0.14249 0.156 0.0
C527 C 0.29163 0.17075 0.14027 0.0
C528 C 0.31031 0.12151 0.12823 0.0
C529 C 0.31554 0.12877 0.08469 0.0
C530 C 0.30484 0.15526 0.06799 0.0
C531 C 0.29312 0.17627 0.09574 0.0
C532 C 0.39672 0.12087 0.03729 0.0
C533 C 0.39584 0.08866 0.03753 0.0
C534 C 0.36893 0.13351 0.04859 0.0
C535 C 0.34006 0.11421 0.06144 0.0
C536 C 0.33838 0.08182 0.05946 0.0
C537 C 0.36608 0.06904 0.04691 0.0
H538 H 0.86922 0.29709 0.11542 0.0
H539 H 0.80568 0.36492 0.14339 0.0
H540 H 0.91395 0.33889 0.09745 0.0
H541 H 0.85044 0.40664 0.12656 0.0
H542 H 0.93496 0.47164 0.06409 0.0
H543 H 0.88676 0.43146 0.07279 0.0
H544 H 0.94986 0.3783 0.14603 0.0
H545 H 0.99849 0.41805 0.13633 0.0
C546 C 0.86447 0.32083 0.11633 0.0
C547 C 0.83429 0.32794 0.13117 0.0
C548 C 0.89021 0.34476 0.10684 0.0
C549 C 0.88596 0.37601 0.11195 0.0
C550 C 0.85452 0.38281 0.12259 0.0
C551 C 0.82885 0.35892 0.13205 0.0
C552 C 0.93854 0.45169 0.08281 0.0
C553 C 0.97072 0.44793 0.09913 0.0
C554 C 0.91089 0.4286 0.08757 0.0
C555 C 0.91478 0.4014 0.10901 0.0
C556 C 0.9464 0.39863 0.12811 0.0
C557 C 0.97412 0.4217 0.12328 0.0
H558 H 0.7272 0.81467 0.10837 0.0
H559 H 0.75974 0.88044 0.21572 0.0
H560 H 0.69856 0.85298 0.0726 0.0
H561 H 0.73024 0.91813 0.1812 0.0
H562 H 0.6681 0.97977 0.11992 0.0
H563 H 0.71541 0.95137 0.12462 0.0
H564 H 0.64663 0.86485 0.09987 0.0
H565 H 0.59992 0.89331 0.09363 0.0
C566 C 0.72885 0.83759 0.12371 0.0
C567 C 0.7445 0.84452 0.16525 0.0
C568 C 0.71257 0.85945 0.10331 0.0
C569 C 0.71136 0.88808 0.12479 0.0
C570 C 0.73067 0.89624 0.16384 0.0
C571 C 0.74726 0.87455 0.18391 0.0
C572 C 0.66333 0.95467 0.11543 0.0
C573 C 0.63053 0.93845 0.10754 0.0
C574 C 0.69032 0.93853 0.11757 0.0
C575 C 0.68472 0.90597 0.11254 0.0
C576 C 0.6519 0.89 0.10307 0.0
C577 C 0.62505 0.90616 0.10032 0.0
H578 H 0.17035 0.67786 0.25307 0.0
H579 H 0.20418 0.72224 0.13569 0.0
H580 H 0.12914 0.6408 0.20965 0.0
H581 H 0.16322 0.68495 0.09247 0.0
H582 H 0.06007 0.63447 0.03758 0.0
H583 H 0.10167 0.67151 0.08001 0.0
H584 H 0.12917 0.59687 0.15571 0.0
H585 H 0.08713 0.55959 0.11347 0.0
C586 C 0.16893 0.67983 0.21808 0.0
C587 C 0.19058 0.703 0.19784 0.0
C588 C 0.14552 0.65841 0.19322 0.0
C589 C 0.14316 0.65988 0.1477 0.0
C590 C 0.16435 0.6834 0.12754 0.0
C591 C 0.18785 0.70471 0.15233 0.0
C592 C 0.07502 0.62587 0.06316 0.0
C593 C 0.07016 0.5941 0.07234 0.0
C594 C 0.09897 0.64711 0.08732 0.0
C595 C 0.1185 0.63709 0.12129 0.0
C596 C 0.1141 0.60526 0.13006 0.0
C597 C 0.09024 0.58394 0.10567 0.0
H598 H 0.3591 0.85737 0.78572 0.0
H599 H 0.32656 0.81359 0.90386 0.0
H600 H 0.40532 0.89 0.82679 0.0
H601 H 0.37285 0.84681 0.94526 0.0
H602 H 0.48404 0.88677 0.99227 0.0
H603 H 0.43504 0.85435 0.95474 0.0
H604 H 0.41685 0.93269 0.87997 0.0
H605 H 0.46553 0.96468 0.91662 0.0
C606 C 0.36147 0.85495 0.82058 0.0
C607 C 0.33889 0.83282 0.84137 0.0
C608 C 0.38804 0.8738 0.84425 0.0
C609 C 0.39297 0.87106 0.88943 0.0
C610 C 0.37007 0.84931 0.91045 0.0
C611 C 0.34327 0.83052 0.88674 0.0
C612 C 0.4696 0.897 0.96775 0.0
C613 C 0.47904 0.9283 0.95728 0.0
C614 C 0.44134 0.87849 0.94646 0.0
C615 C 0.42205 0.89081 0.91403 0.0
C616 C 0.43135 0.9222 0.90414 0.0
C617 C 0.45934 0.94063 0.92541 0.0
H618 H 0.20851 0.28549 0.86645 0.0
H619 H 0.23493 0.35239 0.76832 0.0
H620 H 0.17495 0.31954 0.90049 0.0
H621 H 0.20062 0.38737 0.80332 0.0
H622 H 0.16243 0.44974 0.91995 0.0
H623 H 0.19788 0.41958 0.87858 0.0
H624 H 0.12158 0.33815 0.88194 0.0
H625 H 0.08675 0.36762 0.92258 0.0
C626 C 0.20699 0.30752 0.85179 0.0
C627 C 0.22433 0.3159 0.81423 0.0
C628 C 0.18755 0.32716 0.87149 0.0
C629 C 0.18475 0.35632 0.85483 0.0
C630 C 0.20225 0.36513 0.81724 0.0
C631 C 0.22162 0.34499 0.79688 0.0
C632 C 0.15329 0.42539 0.91185 0.0
C633 C 0.12163 0.41125 0.92516 0.0
C634 C 0.1735 0.40816 0.88772 0.0
C635 C 0.16275 0.37627 0.87683 0.0
C636 C 0.13101 0.36248 0.88988 0.0
C637 C 0.1109 0.37957 0.91337 0.0
H638 H 0.65297 0.21416 0.85064 0.0
H639 H 0.73444 0.1659 0.88819 0.0
H640 H 0.61279 0.17182 0.87719 0.0
H641 H 0.69413 0.12336 0.91458 0.0
H642 H 0.60767 0.06782 0.98993 0.0
H643 H 0.65046 0.11043 0.97013 0.0
H644 H 0.59524 0.1166 0.84794 0.0
H645 H 0.55214 0.07422 0.86768 0.0
C646 C 0.66228 0.19476 0.86537 0.0
C647 C 0.69664 0.19303 0.86714 0.0
C648 C 0.63932 0.17045 0.88011 0.0
C649 C 0.65041 0.14414 0.89701 0.0
C650 C 0.685 0.14339 0.90153 0.0
C651 C 0.708 0.1677 0.88657 0.0
C652 C 0.60485 0.07793 0.95853 0.0
C653 C 0.57638 0.06776 0.93043 0.0
C654 C 0.62936 0.10233 0.94731 0.0
C655 C 0.62577 0.11703 0.90792 0.0
C656 C 0.59815 0.106 0.87897 0.0
C657 C 0.5737 0.08152 0.89005 0.0
H658 H 0.86046 0.75728 0.89024 0.0
H659 H 0.81261 0.69048 0.79147 0.0
H660 H 0.88842 0.71777 0.92318 0.0
H661 H 0.84256 0.65114 0.82206 0.0
H662 H 0.87448 0.57748 0.90828 0.0
H663 H 0.84602 0.61733 0.87719 0.0
H664 H 0.9298 0.68768 0.92247 0.0
H665 H 0.95729 0.64772 0.95552 0.0
C666 C 0.8566 0.73422 0.87482 0.0
C667 C 0.83505 0.72736 0.83733 0.0
C668 C 0.8729 0.71142 0.89364 0.0
C669 C 0.86832 0.68083 0.87554 0.0
C670 C 0.84674 0.6741 0.83767 0.0
C671 C 0.83008 0.69694 0.8192 0.0
C672 C 0.88668 0.60152 0.91205 0.0
C673 C 0.91823 0.60925 0.93466 0.0
C674 C 0.87046 0.62454 0.8936 0.0
C675 C 0.88543 0.65617 0.89647 0.0
C676 C 0.91688 0.66387 0.91977 0.0
C677 C 0.93286 0.64084 0.93883 0.0
H678 H 0.22417 0.33572 0.23378 0.0
H679 H 0.18316 0.27047 0.12943 0.0
H680 H 0.19292 0.37435 0.20302 0.0
H681 H 0.15399 0.30912 0.097 0.0
H682 H 0.08331 0.37618 0.06163 0.0
H683 H 0.11054 0.33705 0.09727 0.0
H684 H 0.19132 0.40889 0.14698 0.0
H685 H 0.16319 0.44794 0.113 0.0
C686 C 0.20804 0.32945 0.20474 0.0
C687 C 0.20561 0.29976 0.1847 0.0
C688 C 0.19057 0.35182 0.18639 0.0
C689 C 0.17067 0.34523 0.14705 0.0
C690 C 0.16823 0.31527 0.12757 0.0
C691 C 0.18526 0.29298 0.14615 0.0
C692 C 0.10702 0.38359 0.07986 0.0
C693 C 0.12096 0.41533 0.08423 0.0
C694 C 0.12282 0.36106 0.10043 0.0
C695 C 0.15337 0.36946 0.12556 0.0
C696 C 0.16757 0.40124 0.12901 0.0
C697 C 0.15156 0.42375 0.10891 0.0
H698 H 0.23386 0.6599 0.87474 0.0
H699 H 0.16967 0.72658 0.90567 0.0
H700 H 0.18918 0.61748 0.88925 0.0
H701 H 0.12502 0.68403 0.92141 0.0
H702 H 0.10444 0.55071 0.94913 0.0
H703 H 0.15268 0.59107 0.94156 0.0
H704 H 0.08961 0.64566 0.87091 0.0
H705 H 0.04098 0.60574 0.87949 0.0
C706 C 0.21055 0.66546 0.88624 0.0
C707 C 0.2049 0.69636 0.8886 0.0
C708 C 0.18494 0.64117 0.89437 0.0
C709 C 0.15336 0.64749 0.90518 0.0
C710 C 0.14888 0.67857 0.91183 0.0
C711 C 0.17456 0.7029 0.90363 0.0
C712 C 0.10088 0.57102 0.93117 0.0
C713 C 0.06869 0.57518 0.91545 0.0
C714 C 0.12856 0.5942 0.92707 0.0
C715 C 0.12465 0.62187 0.90685 0.0
C716 C 0.09307 0.62496 0.88798 0.0
C717 C 0.06533 0.60181 0.89216 0.0
H718 H 0.28267 0.16153 0.85646 0.0
H719 H 0.37806 0.21914 0.83671 0.0
H720 H 0.3121 0.12427 0.89428 0.0
H721 H 0.40716 0.18212 0.87284 0.0
H722 H 0.45452 0.12331 0.95783 0.0
H723 H 0.41723 0.16008 0.94165 0.0
H724 H 0.3487 0.08787 0.86908 0.0
H725 H 0.3852 0.05034 0.88762 0.0
C726 C 0.30982 0.16625 0.86061 0.0
C727 C 0.32831 0.19282 0.84361 0.0
C728 C 0.32656 0.14506 0.88203 0.0
C729 C 0.36181 0.15044 0.88651 0.0
C730 C 0.37996 0.17766 0.87066 0.0
C731 C 0.36333 0.1987 0.84954 0.0
C732 C 0.43127 0.1151 0.93897 0.0
C733 C 0.42287 0.08408 0.92353 0.0
C734 C 0.40995 0.13617 0.92973 0.0
C735 C 0.38034 0.12682 0.90379 0.0
C736 C 0.37125 0.09555 0.88959 0.0
C737 C 0.39239 0.07425 0.89952 0.0
H738 H 0.86216 0.34759 0.77412 0.0
H739 H 0.82315 0.30495 0.89025 0.0
H740 H 0.90271 0.38405 0.81846 0.0
H741 H 0.86421 0.34193 0.93487 0.0
H742 H 0.97431 0.38912 0.98442 0.0
H743 H 0.92804 0.35342 0.94724 0.0
H744 H 0.90195 0.42862 0.87163 0.0
H745 H 0.94821 0.46434 0.90845 0.0
C746 C 0.8622 0.34593 0.80915 0.0
C747 C 0.8394 0.32327 0.82864 0.0
C748 C 0.8853 0.36707 0.83455 0.0
C749 C 0.88637 0.36599 0.88006 0.0
C750 C 0.86387 0.3432 0.89978 0.0
C751 C 0.8404 0.32212 0.87427 0.0
C752 C 0.95855 0.3981 0.96006 0.0
C753 C 0.96527 0.42945 0.94881 0.0
C754 C 0.93192 0.37769 0.93909 0.0
C755 C 0.91171 0.38822 0.90629 0.0
C756 C 0.9175 0.41983 0.89641 0.0
C757 C 0.94393 0.44029 0.91757 0.0
H758 H 0.7615 0.83114 0.93529 0.0
H759 H 0.73713 0.88646 0.82791 0.0
H760 H 0.74178 0.86716 0.98605 0.0
H761 H 0.71691 0.92239 0.87884 0.0
H762 H 0.67527 0.97862 0.97932 0.0
H763 H 0.72361 0.95866 0.95081 0.0
H764 H 0.67744 0.86523 0.97856 0.0
H765 H 0.62917 0.8848 1.00511 0.0
C766 C 0.75264 0.85145 0.92274 0.0
C767 C 0.74953 0.85568 0.87784 0.0
C768 C 0.74187 0.87219 0.95179 0.0
C769 C 0.72757 0.89714 0.93611 0.0
C770 C 0.7281 0.90335 0.8916 0.0
C771 C 0.73911 0.88262 0.86247 0.0
C772 C 0.67601 0.95392 0.98009 0.0
C773 C 0.64848 0.93303 0.99344 0.0
C774 C 0.70359 0.94265 0.9641 0.0
C775 C 0.7041 0.91057 0.96273 0.0
C776 C 0.67781 0.89015 0.97979 0.0
C777 C 0.65 0.90125 0.99444 0.0
H778 H 0.79086 0.70027 0.14196 0.0
H779 H 0.84911 0.69999 0.26287 0.0
H780 H 0.82182 0.66297 0.10916 0.0
H781 H 0.88096 0.66256 0.22958 0.0
H782 H 0.95873 0.63852 0.12892 0.0
H783 H 0.92279 0.66642 0.17094 0.0
H784 H 0.83511 0.60905 0.10893 0.0
H785 H 0.87137 0.58067 0.06686 0.0
C786 C 0.80991 0.69165 0.1619 0.0
C787 C 0.81735 0.703 0.20515 0.0
C788 C 0.82767 0.67013 0.14302 0.0
C789 C 0.8541 0.65967 0.16644 0.0
C790 C 0.86088 0.6702 0.2104 0.0
C791 C 0.84245 0.6914 0.22971 0.0
C792 C 0.93177 0.63158 0.12433 0.0
C793 C 0.91806 0.60734 0.0941 0.0
C794 C 0.91111 0.64749 0.14889 0.0
C795 C 0.87592 0.64009 0.14364 0.0
C796 C 0.86209 0.61552 0.11384 0.0
C797 C 0.88287 0.59916 0.08972 0.0
H798 H 0.3031 0.85113 0.12354 0.0
H799 H 0.37755 0.79412 0.15775 0.0
H800 H 0.34699 0.89058 0.09755 0.0
H801 H 0.42138 0.83378 0.13411 0.0
H802 H 0.49517 0.90653 0.07735 0.0
H803 H 0.44841 0.86381 0.08055 0.0
H804 H 0.3889 0.92721 0.13697 0.0
H805 H 0.43541 0.97031 0.13058 0.0
C806 C 0.32874 0.84676 0.12444 0.0
C807 C 0.33723 0.82003 0.14321 0.0
C808 C 0.35388 0.86944 0.11016 0.0
C809 C 0.38773 0.8657 0.11496 0.0
C810 C 0.3956 0.83746 0.12984 0.0
C811 C 0.37047 0.81469 0.14353 0.0
C812 C 0.47208 0.91104 0.0908 0.0
C813 C 0.46873 0.94112 0.10492 0.0
C814 C 0.44532 0.88672 0.09246 0.0
C815 C 0.41496 0.89206 0.1091 0.0
C816 C 0.41177 0.92242 0.12327 0.0
C817 C 0.43844 0.94693 0.12063 0.0
H818 H 0.7142 0.20744 0.12478 0.0
H819 H 0.68636 0.16736 0.24712 0.0
H820 H 0.66888 0.17085 0.08694 0.0
H821 H 0.64101 0.13139 0.20955 0.0
H822 H 0.57914 0.05336 0.12603 0.0
H823 H 0.6286 0.0868 0.15924 0.0
H824 H 0.60716 0.16238 0.08086 0.0
H825 H 0.55779 0.1287 0.04698 0.0
C826 C 0.69875 0.19062 0.14357 0.0
C827 C 0.70399 0.19044 0.18907 0.0
C828 C 0.67253 0.16985 0.12191 0.0
C829 C 0.6511 0.14827 0.14519 0.0
C830 C 0.65714 0.14744 0.19046 0.0
C831 C 0.68316 0.16824 0.21208 0.0
C832 C 0.58488 0.07711 0.11582 0.0
C833 C 0.56421 0.08839 0.08406 0.0
C834 C 0.61327 0.09633 0.13498 0.0
C835 C 0.62187 0.12736 0.12291 0.0
C836 C 0.60151 0.13852 0.09065 0.0
C837 C 0.573 0.11929 0.07151 0.0
H838 H 0.69428 0.65951 0.76394 0.0
H839 H 0.69602 0.72197 0.87551 0.0
H840 H 0.65413 0.6206 0.79835 0.0
H841 H 0.65637 0.68276 0.91029 0.0
H842 H 0.60714 0.59215 0.97669 0.0
H843 H 0.65051 0.62894 0.94301 0.0
H844 H 0.59413 0.61284 0.8197 0.0
H845 H 0.55078 0.57691 0.85341 0.0
C846 C 0.68622 0.66506 0.79584 0.0
C847 C 0.69857 0.69432 0.81648 0.0
C848 C 0.663 0.64261 0.81568 0.0
C849 C 0.65174 0.64815 0.85748 0.0
C850 C 0.66446 0.67725 0.8784 0.0
C851 C 0.68712 0.69998 0.85814 0.0
C852 C 0.60435 0.59595 0.9422 0.0
C853 C 0.57541 0.58099 0.91784 0.0
C854 C 0.62908 0.61744 0.92289 0.0
C855 C 0.62613 0.62421 0.87832 0.0
C856 C 0.59775 0.60832 0.85384 0.0
C857 C 0.57275 0.58753 0.87329 0.0
H858 H 0.32476 0.73272 0.86352 0.0
H859 H 0.33272 0.67195 0.75284 0.0
H860 H 0.35493 0.70034 0.91005 0.0
H861 H 0.36262 0.63978 0.79887 0.0
H862 H 0.38362 0.57004 0.89616 0.0
H863 H 0.35134 0.60386 0.85781 0.0
H864 H 0.41252 0.68414 0.92257 0.0
H865 H 0.44547 0.64978 0.96165 0.0
C866 C 0.33272 0.71234 0.84917 0.0
C867 C 0.32615 0.70485 0.8044 0.0
C868 C 0.35028 0.69392 0.8758 0.0
C869 C 0.36126 0.66728 0.85844 0.0
C870 C 0.35428 0.65981 0.81371 0.0
C871 C 0.33714 0.67833 0.78715 0.0
C872 C 0.39033 0.59487 0.90274 0.0
C873 C 0.4177 0.60701 0.93184 0.0
C874 C 0.37174 0.61438 0.88036 0.0
C875 C 0.37955 0.64688 0.88623 0.0
C876 C 0.40575 0.65921 0.91709 0.0
C877 C 0.42468 0.6395 0.93956 0.0
H878 H 0.39174 0.30753 0.79086 0.0
H879 H 0.33034 0.37957 0.78306 0.0
H880 H 0.43374 0.34185 0.83652 0.0
H881 H 0.37191 0.4138 0.83031 0.0
H882 H 0.46607 0.47494 0.89202 0.0
H883 H 0.42722 0.4434 0.83916 0.0
H884 H 0.43823 0.36119 0.90987 0.0
H885 H 0.47804 0.39261 0.96188 0.0
C886 C 0.38742 0.33089 0.79865 0.0
C887 C 0.35777 0.3409 0.78363 0.0
C888 C 0.41132 0.35045 0.8252 0.0
C889 C 0.40591 0.38035 0.83791 0.0
C890 C 0.37697 0.39095 0.82101 0.0
C891 C 0.35317 0.37142 0.79388 0.0
C892 C 0.4602 0.45011 0.89632 0.0
C893 C 0.47527 0.43623 0.93109 0.0
C894 C 0.43779 0.43206 0.86605 0.0
C895 C 0.42973 0.39973 0.87001 0.0
C896 C 0.44445 0.38594 0.90521 0.0
C897 C 0.46709 0.40396 0.93527 0.0
H898 H 0.72627 0.37368 0.75089 0.0
H899 H 0.7137 0.29515 0.83358 0.0
H900 H 0.69585 0.40209 0.80083 0.0
H901 H 0.68284 0.32336 0.88355 0.0
H902 H 0.59483 0.36963 0.93257 0.0
H903 H 0.62927 0.34212 0.88767 0.0
H904 H 0.69764 0.42781 0.87372 0.0
H905 H 0.66287 0.45556 0.91925 0.0
C906 C 0.71696 0.36236 0.77975 0.0
C907 C 0.72222 0.33181 0.78769 0.0
C908 C 0.69965 0.37884 0.80872 0.0
C909 C 0.68659 0.36528 0.84661 0.0
C910 C 0.69203 0.33468 0.85464 0.0
C911 C 0.70976 0.31834 0.82586 0.0
C912 C 0.61737 0.38274 0.92037 0.0
C913 C 0.62583 0.41504 0.92982 0.0
C914 C 0.63735 0.36678 0.89459 0.0
C915 C 0.66647 0.38248 0.87656 0.0
C916 C 0.67531 0.41478 0.88649 0.0
C917 C 0.65548 0.43075 0.913 0.0
H918 H 0.71409 0.29321 0.1603 0.0
H919 H 0.70838 0.35573 0.26978 0.0
H920 H 0.68412 0.32556 0.11338 0.0
H921 H 0.67874 0.38786 0.2234 0.0
H922 H 0.65798 0.45699 0.12522 0.0
H923 H 0.68996 0.42295 0.16365 0.0
H924 H 0.62698 0.34285 0.10098 0.0
H925 H 0.59436 0.37745 0.06178 0.0
C926 C 0.70666 0.31395 0.1743 0.0
C927 C 0.71382 0.32192 0.21888 0.0
C928 C 0.68922 0.33237 0.14746 0.0
C929 C 0.67895 0.35951 0.16435 0.0
C930 C 0.68651 0.36745 0.20887 0.0
C931 C 0.7035 0.34893 0.23565 0.0
C932 C 0.65081 0.43214 0.11911 0.0
C933 C 0.62304 0.42016 0.09056 0.0
C934 C 0.66923 0.41251 0.14154 0.0
C935 C 0.66083 0.37999 0.13634 0.0
C936 C 0.63422 0.36778 0.10598 0.0
C937 C 0.61548 0.38762 0.08344 0.0
H938 H 0.70987 0.6513 0.2361 0.0
H939 H 0.65747 0.72818 0.21081 0.0
H940 H 0.66757 0.61688 0.1909 0.0
H941 H 0.6143 0.69352 0.1671 0.0
H942 H 0.56736 0.63387 0.04949 0.0
H943 H 0.60787 0.66735 0.0983 0.0
H944 H 0.61159 0.59081 0.18356 0.0
H945 H 0.57217 0.55703 0.13364 0.0
C946 C 0.68888 0.66069 0.22167 0.0
C947 C 0.68706 0.69246 0.22683 0.0
C948 C 0.66454 0.64093 0.19578 0.0
C949 C 0.63761 0.65243 0.17495 0.0
C950 C 0.6351 0.684 0.18174 0.0
C951 C 0.65969 0.70383 0.20712 0.0
C952 C 0.57687 0.62422 0.07866 0.0
C953 C 0.56662 0.59284 0.08772 0.0
C954 C 0.59991 0.64347 0.10688 0.0
C955 C 0.61289 0.63189 0.14513 0.0
C956 C 0.60251 0.60045 0.15415 0.0
C957 C 0.57981 0.58109 0.12561 0.0
H958 H 0.29299 0.70324 0.17702 0.0
H959 H 0.35887 0.69037 0.28684 0.0
H960 H 0.3237 0.67237 0.13026 0.0
H961 H 0.38985 0.65997 0.24014 0.0
H962 H 0.46123 0.64107 0.13354 0.0
H963 H 0.42786 0.66904 0.17915 0.0
H964 H 0.33706 0.61722 0.11683 0.0
H965 H 0.37094 0.58847 0.0709 0.0
C966 C 0.31408 0.6939 0.19125 0.0
C967 C 0.32342 0.6995 0.2359 0.0
C968 C 0.33159 0.67594 0.1644 0.0
C969 C 0.35945 0.66346 0.18109 0.0
C970 C 0.36878 0.66925 0.22576 0.0
C971 C 0.35093 0.68671 0.25271 0.0
C972 C 0.43413 0.63538 0.12933 0.0
C973 C 0.41901 0.61225 0.09818 0.0
C974 C 0.41488 0.65146 0.15592 0.0
C975 C 0.37956 0.64556 0.15216 0.0
C976 C 0.36418 0.62261 0.12072 0.0
C977 C 0.38362 0.60594 0.09446 0.0
H978 H 0.34502 0.36749 0.25442 0.0
H979 H 0.34733 0.30352 0.14559 0.0
H980 H 0.38517 0.4065 0.22032 0.0
H981 H 0.38701 0.34292 0.11097 0.0
H982 H 0.43518 0.43411 0.04369 0.0
H983 H 0.39196 0.3967 0.07665 0.0
H984 H 0.44597 0.41485 0.20136 0.0
H985 H 0.48924 0.45134 0.16836 0.0
C986 C 0.35397 0.36162 0.22317 0.0
C987 C 0.34274 0.33191 0.20322 0.0
C988 C 0.3772 0.38415 0.2035 0.0
C989 C 0.3896 0.37825 0.16252 0.0
C990 C 0.37802 0.34869 0.14224 0.0
C991 C 0.35535 0.32586 0.1624 0.0
C992 C 0.43747 0.43062 0.07831 0.0
C993 C 0.46572 0.44634 0.1033 0.0
C994 C 0.41284 0.40877 0.09722 0.0
C995 C 0.41517 0.4024 0.14196 0.0
C996 C 0.44285 0.41902 0.16703 0.0
C997 C 0.46778 0.44016 0.148 0.0
H998 H 0.79743 0.64541 0.63217 0.0
H999 H 0.86193 0.68228 0.74397 0.0
H1000 H 0.83136 0.60381 0.62296 0.0
H1001 H 0.89274 0.63992 0.73808 0.0
H1002 H 0.9717 0.59379 0.67906 0.0
H1003 H 0.9331 0.62942 0.69156 0.0
H1004 H 0.84925 0.55733 0.65199 0.0
H1005 H 0.88872 0.52172 0.63729 0.0
C1006 C 0.8183 0.64421 0.65511 0.0
C1007 C 0.82731 0.66706 0.68848 0.0
C1008 C 0.83746 0.62036 0.65025 0.0
C1009 C 0.86506 0.61885 0.67953 0.0
C1010 C 0.87242 0.64087 0.71415 0.0
C1011 C 0.85439 0.66503 0.71784 0.0
C1012 C 0.94502 0.58523 0.67415 0.0
C1013 C 0.93313 0.55502 0.65754 0.0
C1014 C 0.92276 0.60569 0.68119 0.0
C1015 C 0.88799 0.59617 0.67296 0.0
C1016 C 0.8759 0.56541 0.65818 0.0
C1017 C 0.89837 0.54496 0.65044 0.0
H1018 H 0.39676 0.8031 0.65507 0.0
H1019 H 0.31001 0.84292 0.61315 0.0
H1020 H 0.43359 0.84905 0.63213 0.0
H1021 H 0.34688 0.88871 0.5895 0.0
H1022 H 0.417 0.9799 0.62477 0.0
H1023 H 0.38258 0.93 0.63722 0.0
H1024 H 0.4527 0.88243 0.57158 0.0
H1025 H 0.48763 0.93206 0.55996 0.0
C1026 C 0.38566 0.82124 0.63955 0.0
C1027 C 0.35073 0.81991 0.63644 0.0
C1028 C 0.40669 0.84751 0.62654 0.0
C1029 C 0.39292 0.87264 0.61025 0.0
C1030 C 0.35797 0.86989 0.6031 0.0
C1031 C 0.33695 0.8436 0.61609 0.0
C1032 C 0.42543 0.95881 0.61372 0.0
C1033 C 0.45493 0.95999 0.59118 0.0
C1034 C 0.40546 0.93031 0.62019 0.0
C1035 C 0.41469 0.90256 0.60433 0.0
C1036 C 0.44499 0.90356 0.58384 0.0
C1037 C 0.46499 0.93202 0.57739 0.0
H1038 H 0.17909 0.33626 0.62428 0.0
H1039 H 0.27753 0.36939 0.57894 0.0
H1040 H 0.15374 0.36282 0.56643 0.0
H1041 H 0.25206 0.39569 0.51999 0.0
H1042 H 0.1909 0.47656 0.48509 0.0
H1043 H 0.22406 0.44074 0.51728 0.0
H1044 H 0.14221 0.36472 0.48818 0.0
H1045 H 0.10846 0.40091 0.45692 0.0
C1046 C 0.19527 0.34914 0.60169 0.0
C1047 C 0.23022 0.35121 0.60631 0.0
C1048 C 0.18074 0.36392 0.56806 0.0
C1049 C 0.20088 0.38105 0.53822 0.0
C1050 C 0.23592 0.38269 0.54249 0.0
C1051 C 0.25049 0.36785 0.5763 0.0
C1052 C 0.18026 0.45206 0.48437 0.0
C1053 C 0.14658 0.4417 0.47028 0.0
C1054 C 0.19943 0.43144 0.5026 0.0
C1055 C 0.18525 0.40012 0.50669 0.0
C1056 C 0.15333 0.38899 0.48671 0.0
C1057 C 0.13407 0.40968 0.46861 0.0
H1058 H 0.65975 0.19582 0.7114 0.0
H1059 H 0.72656 0.21189 0.60615 0.0
H1060 H 0.62808 0.15066 0.67123 0.0
H1061 H 0.69458 0.16643 0.56565 0.0
H1062 H 0.65611 0.05708 0.54821 0.0
H1063 H 0.68602 0.10785 0.57637 0.0
H1064 H 0.59148 0.13571 0.60477 0.0
H1065 H 0.56179 0.08558 0.57719 0.0
C1066 C 0.66722 0.19009 0.67924 0.0
C1067 C 0.69555 0.20751 0.66191 0.0
C1068 C 0.64906 0.1642 0.65616 0.0
C1069 C 0.65895 0.15488 0.61534 0.0
C1070 C 0.68657 0.17292 0.5972 0.0
C1071 C 0.70457 0.19917 0.62014 0.0
C1072 C 0.64176 0.07416 0.56014 0.0
C1073 C 0.60659 0.06697 0.56103 0.0
C1074 C 0.65885 0.10329 0.57598 0.0
C1075 C 0.64108 0.12563 0.59322 0.0
C1076 C 0.60591 0.11883 0.59238 0.0
C1077 C 0.58892 0.08997 0.57651 0.0
H1078 H 0.82221 0.31584 0.39733 0.0
H1079 H 0.84593 0.36311 0.27863 0.0
H1080 H 0.85844 0.35755 0.4391 0.0
H1081 H 0.88129 0.4055 0.32062 0.0
H1082 H 0.8937 0.45225 0.50534 0.0
H1083 H 0.85986 0.40983 0.46238 0.0
H1084 H 0.93267 0.42018 0.36333 0.0
H1085 H 0.96615 0.46349 0.40597 0.0
C1086 C 0.83497 0.33525 0.38013 0.0
C1087 C 0.831 0.33617 0.33462 0.0
C1088 C 0.85566 0.35931 0.40415 0.0
C1089 C 0.87266 0.38512 0.38336 0.0
C1090 C 0.86896 0.38586 0.33774 0.0
C1091 C 0.84849 0.36161 0.31365 0.0
C1092 C 0.90248 0.4456 0.47432 0.0
C1093 C 0.93256 0.46141 0.459 0.0
C1094 C 0.88317 0.42102 0.44978 0.0
C1095 C 0.8935 0.4114 0.40934 0.0
C1096 C 0.92366 0.42721 0.39401 0.0
C1097 C 0.94293 0.45199 0.41852 0.0
H1098 H 0.6901 0.77096 0.4 0.0
H1099 H 0.73886 0.83494 0.30978 0.0
H1100 H 0.65914 0.81054 0.42645 0.0
H1101 H 0.708 0.87539 0.33734 0.0
H1102 H 0.66904 0.945 0.44331 0.0
H1103 H 0.70297 0.90751 0.41449 0.0
H1104 H 0.61335 0.83898 0.39325 0.0
H1105 H 0.57977 0.87618 0.42071 0.0
C1106 C 0.69411 0.79353 0.38553 0.0
C1107 C 0.71678 0.79948 0.35229 0.0
C1108 C 0.67633 0.81633 0.40088 0.0
C1109 C 0.68101 0.84636 0.38434 0.0
C1110 C 0.70388 0.85262 0.35113 0.0
C1111 C 0.72129 0.82933 0.33493 0.0
C1112 C 0.6567 0.92183 0.43288 0.0
C1113 C 0.62156 0.91368 0.43468 0.0
C1114 C 0.67609 0.90044 0.41583 0.0
C1115 C 0.66096 0.87013 0.40117 0.0
C1116 C 0.626 0.86197 0.40412 0.0
C1117 C 0.60669 0.88339 0.42007 0.0
H1118 H 0.21696 0.6736 0.42864 0.0
H1119 H 0.15938 0.74202 0.3812 0.0
H1120 H 0.16614 0.64484 0.45815 0.0
H1121 H 0.10873 0.71277 0.40929 0.0
H1122 H 0.0682 0.60496 0.51556 0.0
H1123 H 0.11157 0.6506 0.51068 0.0
H1124 H 0.08637 0.65331 0.37326 0.0
H1125 H 0.04441 0.60656 0.37737 0.0
C1126 C 0.19376 0.68294 0.42573 0.0
C1127 C 0.1919 0.70965 0.40213 0.0
C1128 C 0.16478 0.66663 0.44268 0.0
C1129 C 0.1337 0.67669 0.43559 0.0
C1130 C 0.13247 0.70472 0.41512 0.0
C1131 C 0.16144 0.72128 0.39897 0.0
C1132 C 0.07113 0.61579 0.48452 0.0
C1133 C 0.05361 0.60162 0.44651 0.0
C1134 C 0.09599 0.6419 0.48188 0.0
C1135 C 0.10242 0.65499 0.44156 0.0
C1136 C 0.08176 0.64347 0.40473 0.0
C1137 C 0.05769 0.61679 0.40709 0.0
H1138 H 0.32175 0.2006 0.27887 0.0
H1139 H 0.34566 0.25672 0.39725 0.0
H1140 H 0.35494 0.16262 0.30755 0.0
H1141 H 0.37849 0.21906 0.42606 0.0
H1142 H 0.45744 0.15687 0.45478 0.0
H1143 H 0.42893 0.1963 0.42087 0.0
H1144 H 0.35279 0.12379 0.36247 0.0
H1145 H 0.38126 0.08471 0.39576 0.0
C1146 C 0.33419 0.20493 0.31085 0.0
C1147 C 0.33085 0.23172 0.33566 0.0
C1148 C 0.35316 0.18307 0.32754 0.0
C1149 C 0.36958 0.18752 0.36942 0.0
C1150 C 0.36675 0.21478 0.39361 0.0
C1151 C 0.34766 0.2364 0.37708 0.0
C1152 C 0.43476 0.14935 0.43446 0.0
C1153 C 0.42182 0.11745 0.42819 0.0
C1154 C 0.41821 0.172 0.41513 0.0
C1155 C 0.38836 0.16345 0.38863 0.0
C1156 C 0.37584 0.1315 0.38196 0.0
C1157 C 0.39217 0.10897 0.40149 0.0
H1158 H 0.75031 0.81136 0.62657 0.0
H1159 H 0.68605 0.79931 0.73461 0.0
H1160 H 0.71727 0.84804 0.59549 0.0
H1161 H 0.65209 0.83612 0.70264 0.0
H1162 H 0.58246 0.87769 0.59301 0.0
H1163 H 0.61298 0.84029 0.62968 0.0
H1164 H 0.70644 0.90226 0.61684 0.0
H1165 H 0.67639 0.93939 0.58131 0.0
C1166 C 0.72906 0.8166 0.64383 0.0
C1167 C 0.72098 0.80237 0.68323 0.0
C1168 C 0.71007 0.83774 0.62593 0.0
C1169 C 0.68185 0.8451 0.64633 0.0
C1170 C 0.6735 0.83083 0.68583 0.0
C1171 C 0.69311 0.80997 0.70437 0.0
C1172 C 0.60951 0.88329 0.59806 0.0
C1173 C 0.62683 0.91169 0.584 0.0
C1174 C 0.62699 0.86196 0.61942 0.0
C1175 C 0.66227 0.86821 0.62635 0.0
C1176 C 0.67938 0.89651 0.61202 0.0
C1177 C 0.662 0.91791 0.59159 0.0
H1178 H 0.65046 0.22788 0.38879 0.0
H1179 H 0.73718 0.1821 0.40085 0.0
H1180 H 0.61519 0.18139 0.4131 0.0
H1181 H 0.70225 0.13511 0.42076 0.0
H1182 H 0.63592 0.05275 0.46395 0.0
H1183 H 0.6695 0.10398 0.46294 0.0
H1184 H 0.59128 0.13436 0.38171 0.0
H1185 H 0.55605 0.08369 0.38827 0.0
C1186 C 0.66197 0.20802 0.39755 0.0
C1187 C 0.69625 0.20822 0.39257 0.0
C1188 C 0.64177 0.18118 0.41063 0.0
C1189 C 0.65549 0.15395 0.4175 0.0
C1190 C 0.69048 0.15541 0.41617 0.0
C1191 C 0.71072 0.18248 0.40455 0.0
C1192 C 0.62625 0.07045 0.44553 0.0
C1193 C 0.59406 0.06443 0.42512 0.0
C1194 C 0.64545 0.09987 0.44488 0.0
C1195 C 0.63348 0.12354 0.42185 0.0
C1196 C 0.60121 0.11708 0.4006 0.0
C1197 C 0.5813 0.0879 0.40317 0.0
H1198 H 0.7634 0.65644 0.43495 0.0
H1199 H 0.86225 0.68828 0.38995 0.0
H1200 H 0.7884 0.62995 0.49427 0.0
H1201 H 0.88705 0.66179 0.44821 0.0
H1202 H 0.93172 0.62636 0.56032 0.0
H1203 H 0.89778 0.66165 0.52713 0.0
H1204 H 0.81694 0.58467 0.49856 0.0
H1205 H 0.85033 0.54968 0.53264 0.0
C1206 C 0.79041 0.65765 0.43772 0.0
C1207 C 0.81094 0.67408 0.40778 0.0
C1208 C 0.8047 0.64272 0.47173 0.0
C1209 C 0.83972 0.64419 0.47635 0.0
C1210 C 0.86007 0.66088 0.44637 0.0
C1211 C 0.84584 0.67564 0.4125 0.0
C1212 C 0.90627 0.61718 0.54837 0.0
C1213 C 0.89416 0.5851 0.54744 0.0
C1214 C 0.88691 0.63735 0.52914 0.0
C1215 C 0.85524 0.62567 0.50877 0.0
C1216 C 0.84138 0.59435 0.51351 0.0
C1217 C 0.86067 0.57423 0.53286 0.0
H1218 H 0.31962 0.81498 0.40973 0.0
H1219 H 0.37731 0.83282 0.296 0.0
H1220 H 0.35275 0.86108 0.447 0.0
H1221 H 0.41012 0.87881 0.33309 0.0
H1222 H 0.48184 0.94411 0.42329 0.0
H1223 H 0.45122 0.89468 0.39443 0.0
H1224 H 0.359 0.91911 0.43907 0.0
H1225 H 0.38989 0.96909 0.46867 0.0
C1226 C 0.33978 0.82833 0.39297 0.0
C1227 C 0.34588 0.82013 0.34987 0.0
C1228 C 0.35846 0.85497 0.41417 0.0
C1229 C 0.38389 0.87373 0.39292 0.0
C1230 C 0.39087 0.86475 0.35052 0.0
C1231 C 0.37203 0.83836 0.32922 0.0
C1232 C 0.45503 0.93914 0.42717 0.0
C1233 C 0.43827 0.96093 0.44785 0.0
C1234 C 0.43747 0.9107 0.41045 0.0
C1235 C 0.40265 0.90305 0.41404 0.0
C1236 C 0.3859 0.92429 0.43596 0.0
C1237 C 0.40353 0.953 0.45263 0.0
H1238 H 0.24296 0.3817 0.38661 0.0
H1239 H 0.1727 0.33651 0.28514 0.0
H1240 H 0.20837 0.42268 0.39464 0.0
H1241 H 0.14053 0.37819 0.28967 0.0
H1242 H 0.06617 0.432 0.34552 0.0
H1243 H 0.10301 0.39454 0.33455 0.0
H1244 H 0.1895 0.46631 0.36333 0.0
H1245 H 0.15183 0.50365 0.3772 0.0
C1246 C 0.22039 0.3808 0.36584 0.0
C1247 C 0.21015 0.35592 0.33574 0.0
C1248 C 0.20083 0.40434 0.36994 0.0
C1249 C 0.17146 0.40365 0.34296 0.0
C1250 C 0.16227 0.37911 0.31194 0.0
C1251 C 0.18093 0.35525 0.30909 0.0
C1252 C 0.09304 0.44 0.34836 0.0
C1253 C 0.10622 0.47069 0.36188 0.0
C1254 C 0.11431 0.41848 0.34214 0.0
C1255 C 0.14936 0.42735 0.34795 0.0
C1256 C 0.16264 0.45858 0.35925 0.0
C1257 C 0.14118 0.48006 0.36645 0.0
H1258 H 0.32235 0.23779 0.58735 0.0
H1259 H 0.33087 0.20801 0.71896 0.0
H1260 H 0.35279 0.19726 0.56245 0.0
H1261 H 0.36155 0.16712 0.69413 0.0
H1262 H 0.44976 0.12376 0.64249 0.0
H1263 H 0.4152 0.16064 0.66714 0.0
H1264 H 0.35212 0.14179 0.54914 0.0
H1265 H 0.38722 0.10443 0.52409 0.0
C1266 C 0.33062 0.22246 0.61111 0.0
C1267 C 0.32421 0.22648 0.65535 0.0
C1268 C 0.34798 0.19892 0.59665 0.0
C1269 C 0.35995 0.17855 0.62597 0.0
C1270 C 0.35322 0.1824 0.67036 0.0
C1271 C 0.33547 0.20586 0.68477 0.0
C1272 C 0.42849 0.12721 0.62153 0.0
C1273 C 0.42159 0.1108 0.58097 0.0
C1274 C 0.40833 0.14841 0.63607 0.0
C1275 C 0.38048 0.15449 0.61056 0.0
C1276 C 0.3734 0.13807 0.56987 0.0
C1277 C 0.39347 0.11641 0.55545 0.0
H1278 H 0.88811 0.28864 0.6533 0.0
H1279 H 0.82646 0.34607 0.58592 0.0
H1280 H 0.93825 0.31836 0.62474 0.0
H1281 H 0.87687 0.37573 0.55683 0.0
H1282 H 0.97269 0.42275 0.50608 0.0
H1283 H 0.93106 0.37606 0.51285 0.0
H1284 H 0.95951 0.37531 0.64973 0.0
H1285 H 1.00007 0.42261 0.64345 0.0
C1286 C 0.8852 0.30708 0.63133 0.0
C1287 C 0.85354 0.31553 0.62241 0.0
C1288 C 0.91391 0.324 0.61498 0.0
C1289 C 0.91144 0.34948 0.58905 0.0
C1290 C 0.87942 0.35603 0.5766 0.0
C1291 C 0.85061 0.3392 0.59334 0.0
C1292 C 0.97087 0.41208 0.53734 0.0
C1293 C 0.98907 0.4268 0.57454 0.0
C1294 C 0.94692 0.3854 0.54114 0.0
C1295 C 0.94177 0.37241 0.58188 0.0
C1296 C 0.96299 0.38484 0.61787 0.0
C1297 C 0.98628 0.41193 0.61431 0.0
H1298 H 0.22083 0.71306 0.62375 0.0
H1299 H 0.19485 0.66542 0.74146 0.0
H1300 H 0.18504 0.67146 0.58091 0.0
H1301 H 0.16009 0.62328 0.69862 0.0
H1302 H 0.07627 0.56516 0.61328 0.0
H1303 H 0.1095 0.60863 0.6557 0.0
H1304 H 0.18217 0.61932 0.55651 0.0
H1305 H 0.14845 0.57668 0.51366 0.0
C1306 C 0.20766 0.69362 0.64051 0.0
C1307 C 0.21082 0.69264 0.6861 0.0
C1308 C 0.18722 0.66961 0.61588 0.0
C1309 C 0.16964 0.64377 0.63613 0.0
C1310 C 0.17273 0.64293 0.68179 0.0
C1311 C 0.19291 0.66709 0.70644 0.0
C1312 C 0.09939 0.57675 0.60062 0.0
C1313 C 0.10975 0.56725 0.56016 0.0
C1314 C 0.11857 0.60166 0.62504 0.0
C1315 C 0.14871 0.6176 0.60976 0.0
C1316 C 0.15894 0.60803 0.5692 0.0
C1317 C 0.1397 0.58329 0.54472 0.0
loop_
_geom_bond_atom_site_label_1
_geom_bond_atom_site_label_2
_geom_bond_distance
_geom_bond_site_symmetry_2
_ccdc_geom_bond_type
Tb0 O3 2.453 . S
Tb0 O4 2.596 . S
Tb0 O5 2.374 . S
Tb0 O13 2.343 . S
Tb0 O15 2.353 . S
Tb0 O17 2.427 . S
Tb0 O18 2.513 . S
C1 O5 1.251 . S
C1 O7 1.263 . S
Tb2 O4 2.343 . S
Tb2 O7 2.353 . S
Tb2 O10 2.427 . S
Tb2 O11 2.513 . S
Tb2 O12 2.453 . S
Tb2 O13 2.596 . S
Tb2 O14 2.374 . S
O3 Tb0 2.453 . S
O3 C19 1.245 . S
O4 Tb0 2.596 . S
O4 Tb2 2.343 . S
O4 C19 1.259 . S
O5 Tb0 2.374 . S
O5 C1 1.251 . S
C6 O10 1.275 . S
C6 O11 1.246 . S
O7 C1 1.263 . S
O7 Tb2 2.353 . S
C8 O12 1.245 . S
C8 O13 1.259 . S
C9 O14 1.250 . S
C9 O15 1.263 . S
O10 Tb2 2.427 . S
O10 C6 1.275 . S
O11 Tb2 2.513 . S
O11 C6 1.246 . S
O12 Tb2 2.453 . S
O12 C8 1.245 . S
O13 Tb0 2.343 . S
O13 Tb2 2.596 . S
O13 C8 1.259 . S
O14 Tb2 2.374 . S
O14 C9 1.250 . S
O15 Tb0 2.353 . S
O15 C9 1.263 . S
C16 O17 1.275 . S
C16 O18 1.246 . S
O17 Tb0 2.427 . S
O17 C16 1.275 . S
O18 Tb0 2.513 . S
O18 C16 1.246 . S
C19 O3 1.245 . S
C19 O4 1.259 . S
Tb20 O23 2.453 . S
Tb20 O24 2.596 . S
Tb20 O25 2.374 . S
Tb20 O33 2.343 . S
Tb20 O35 2.353 . S
Tb20 O37 2.427 . S
Tb20 O38 2.513 . S
C21 O25 1.251 . S
C21 O27 1.263 . S
Tb22 O24 2.343 . S
Tb22 O27 2.353 . S
Tb22 O30 2.427 . S
Tb22 O31 2.513 . S
Tb22 O32 2.453 . S
Tb22 O33 2.596 . S
Tb22 O34 2.374 . S
O23 Tb20 2.453 . S
O23 C39 1.245 . S
O24 Tb20 2.596 . S
O24 Tb22 2.343 . S
O24 C39 1.259 . S
O25 Tb20 2.374 . S
O25 C21 1.251 . S
C26 O30 1.275 . S
C26 O31 1.246 . S
O27 C21 1.263 . S
O27 Tb22 2.353 . S
C28 O32 1.245 . S
C28 O33 1.259 . S
C29 O34 1.250 . S
C29 O35 1.263 . S
O30 Tb22 2.427 . S
O30 C26 1.275 . S
O31 Tb22 2.513 . S
O31 C26 1.246 . S
O32 Tb22 2.453 . S
O32 C28 1.245 . S
O33 Tb20 2.343 . S
O33 Tb22 2.596 . S
O33 C28 1.259 . S
O34 Tb22 2.374 . S
O34 C29 1.250 . S
O35 Tb20 2.353 . S
O35 C29 1.263 . S
C36 O37 1.275 . S
C36 O38 1.246 . S
O37 Tb20 2.427 . S
O37 C36 1.275 . S
O38 Tb20 2.513 . S
O38 C36 1.246 . S
C39 O23 1.245 . S
C39 O24 1.259 . S
Tb40 O43 2.453 . S
Tb40 O44 2.596 . S
Tb40 O45 2.374 . S
Tb40 O53 2.343 . S
Tb40 O55 2.353 . S
Tb40 O57 2.427 . S
Tb40 O58 2.513 . S
C41 O45 1.251 . S
C41 O47 1.263 . S
Tb42 O44 2.343 . S
Tb42 O47 2.353 . S
Tb42 O50 2.427 . S
Tb42 O51 2.513 . S
Tb42 O52 2.453 . S
Tb42 O53 2.596 . S
Tb42 O54 2.374 . S
O43 Tb40 2.453 . S
O43 C59 1.245 . S
O44 Tb40 2.596 . S
O44 Tb42 2.343 . S
O44 C59 1.259 . S
O45 Tb40 2.374 . S
O45 C41 1.251 . S
C46 O50 1.275 . S
C46 O51 1.246 . S
O47 C41 1.263 . S
O47 Tb42 2.353 . S
C48 O52 1.245 . S
C48 O53 1.259 . S
C49 O54 1.250 . S
C49 O55 1.263 . S
O50 Tb42 2.427 . S
O50 C46 1.275 . S
O51 Tb42 2.513 . S
O51 C46 1.246 . S
O52 Tb42 2.453 . S
O52 C48 1.245 . S
O53 Tb40 2.343 . S
O53 Tb42 2.596 . S
O53 C48 1.259 . S
O54 Tb42 2.374 . S
O54 C49 1.250 . S
O55 Tb40 2.353 . S
O55 C49 1.263 . S
C56 O57 1.275 . S
C56 O58 1.246 . S
O57 Tb40 2.427 . S
O57 C56 1.275 . S
O58 Tb40 2.513 . S
O58 C56 1.246 . S
C59 O43 1.245 . S
C59 O44 1.259 . S
Tb60 O63 2.453 . S
Tb60 O64 2.596 . S
Tb60 O65 2.374 . S
Tb60 O73 2.343 . S
Tb60 O75 2.353 . S
Tb60 O77 2.427 . S
Tb60 O78 2.513 . S
C61 O65 1.251 . S
C61 O67 1.263 . S
Tb62 O64 2.343 . S
Tb62 O67 2.353 . S
Tb62 O70 2.427 . S
Tb62 O71 2.513 . S
Tb62 O72 2.453 . S
Tb62 O73 2.596 . S
Tb62 O74 2.374 . S
O63 Tb60 2.453 . S
O63 C79 1.245 . S
O64 Tb60 2.596 . S
O64 Tb62 2.343 . S
O64 C79 1.259 . S
O65 Tb60 2.374 . S
O65 C61 1.251 . S
C66 O70 1.275 . S
C66 O71 1.246 . S
O67 C61 1.263 . S
O67 Tb62 2.353 . S
C68 O72 1.245 . S
C68 O73 1.259 . S
C69 O74 1.250 . S
C69 O75 1.263 . S
O70 Tb62 2.427 . S
O70 C66 1.275 . S
O71 Tb62 2.513 . S
O71 C66 1.246 . S
O72 Tb62 2.453 . S
O72 C68 1.245 . S
O73 Tb60 2.343 . S
O73 Tb62 2.596 . S
O73 C68 1.259 . S
O74 Tb62 2.374 . S
O74 C69 1.250 . S
O75 Tb60 2.353 . S
O75 C69 1.263 . S
C76 O77 1.275 . S
C76 O78 1.246 . S
O77 Tb60 2.427 . S
O77 C76 1.275 . S
O78 Tb60 2.513 . S
O78 C76 1.246 . S
C79 O63 1.245 . S
C79 O64 1.259 . S
Tb80 O83 2.453 . S
Tb80 O84 2.596 . S
Tb80 O85 2.374 . S
Tb80 O93 2.343 . S
Tb80 O95 2.353 . S
Tb80 O97 2.427 . S
Tb80 O98 2.513 . S
C81 O85 1.251 . S
C81 O87 1.263 . S
Tb82 O84 2.343 . S
Tb82 O87 2.353 . S
Tb82 O90 2.427 . S
Tb82 O91 2.513 . S
Tb82 O92 2.453 . S
Tb82 O93 2.596 . S
Tb82 O94 2.374 . S
O83 Tb80 2.453 . S
O83 C99 1.245 . S
O84 Tb80 2.596 . S
O84 Tb82 2.343 . S
O84 C99 1.259 . S
O85 Tb80 2.374 . S
O85 C81 1.251 . S
C86 O90 1.275 . S
C86 O91 1.246 . S
O87 C81 1.263 . S
O87 Tb82 2.353 . S
C88 O92 1.245 . S
C88 O93 1.259 . S
C89 O94 1.250 . S
C89 O95 1.263 . S
O90 Tb82 2.427 . S
O90 C86 1.275 . S
O91 Tb82 2.513 . S
O91 C86 1.246 . S
O92 Tb82 2.453 . S
O92 C88 1.245 . S
O93 Tb80 2.343 . S
O93 Tb82 2.596 . S
O93 C88 1.259 . S
O94 Tb82 2.374 . S
O94 C89 1.250 . S
O95 Tb80 2.353 . S
O95 C89 1.263 . S
C96 O97 1.275 . S
C96 O98 1.246 . S
O97 Tb80 2.427 . S
O97 C96 1.275 . S
O98 Tb80 2.513 . S
O98 C96 1.246 . S
C99 O83 1.245 . S
C99 O84 1.259 . S
Tb100 O103 2.453 . S
Tb100 O104 2.596 . S
Tb100 O105 2.374 . S
Tb100 O113 2.343 . S
Tb100 O115 2.353 . S
Tb100 O117 2.427 . S
Tb100 O118 2.513 . S
C101 O105 1.251 . S
C101 O107 1.263 . S
Tb102 O104 2.343 . S
Tb102 O107 2.353 . S
Tb102 O110 2.427 . S
Tb102 O111 2.513 . S
Tb102 O112 2.453 . S
Tb102 O113 2.596 . S
Tb102 O114 2.374 . S
O103 Tb100 2.453 . S
O103 C119 1.245 . S
O104 Tb100 2.596 . S
O104 Tb102 2.343 . S
O104 C119 1.259 . S
O105 Tb100 2.374 . S
O105 C101 1.251 . S
C106 O110 1.275 . S
C106 O111 1.246 . S
O107 C101 1.263 . S
O107 Tb102 2.353 . S
C108 O112 1.245 . S
C108 O113 1.259 . S
C109 O114 1.250 . S
C109 O115 1.263 . S
O110 Tb102 2.427 . S
O110 C106 1.275 . S
O111 Tb102 2.513 . S
O111 C106 1.246 . S
O112 Tb102 2.453 . S
O112 C108 1.245 . S
O113 Tb100 2.343 . S
O113 Tb102 2.596 . S
O113 C108 1.259 . S
O114 Tb102 2.374 . S
O114 C109 1.250 . S
O115 Tb100 2.353 . S
O115 C109 1.263 . S
C116 O117 1.275 . S
C116 O118 1.246 . S
O117 Tb100 2.427 . S
O117 C116 1.275 . S
O118 Tb100 2.513 . S
O118 C116 1.246 . S
C119 O103 1.245 . S
C119 O104 1.259 . S
Tb120 O123 2.453 . S
Tb120 O124 2.596 . S
Tb120 O125 2.374 . S
Tb120 O133 2.343 . S
Tb120 O135 2.353 . S
Tb120 O137 2.427 . S
Tb120 O138 2.513 . S
C121 O125 1.251 . S
C121 O127 1.263 . S
Tb122 O124 2.343 . S
Tb122 O127 2.353 . S
Tb122 O130 2.427 . S
Tb122 O131 2.513 . S
Tb122 O132 2.453 . S
Tb122 O133 2.596 . S
Tb122 O134 2.374 . S
O123 Tb120 2.453 . S
O123 C139 1.245 . S
O124 Tb120 2.596 . S
O124 Tb122 2.343 . S
O124 C139 1.259 . S
O125 Tb120 2.374 . S
O125 C121 1.251 . S
C126 O130 1.275 . S
C126 O131 1.246 . S
O127 C121 1.263 . S
O127 Tb122 2.353 . S
C128 O132 1.245 . S
C128 O133 1.259 . S
C129 O134 1.250 . S
C129 O135 1.263 . S
O130 Tb122 2.427 . S
O130 C126 1.275 . S
O131 Tb122 2.513 . S
O131 C126 1.246 . S
O132 Tb122 2.453 . S
O132 C128 1.245 . S
O133 Tb120 2.343 . S
O133 Tb122 2.596 . S
O133 C128 1.259 . S
O134 Tb122 2.374 . S
O134 C129 1.250 . S
O135 Tb120 2.353 . S
O135 C129 1.263 . S
C136 O137 1.275 . S
C136 O138 1.246 . S
O137 Tb120 2.427 . S
O137 C136 1.275 . S
O138 Tb120 2.513 . S
O138 C136 1.246 . S
C139 O123 1.245 . S
C139 O124 1.259 . S
Tb140 O143 2.453 . S
Tb140 O144 2.596 . S
Tb140 O145 2.374 . S
Tb140 O153 2.343 . S
Tb140 O155 2.353 . S
Tb140 O157 2.427 . S
Tb140 O158 2.513 . S
C141 O145 1.251 . S
C141 O147 1.263 . S
Tb142 O144 2.343 . S
Tb142 O147 2.353 . S
Tb142 O150 2.427 . S
Tb142 O151 2.513 . S
Tb142 O152 2.453 . S
Tb142 O153 2.596 . S
Tb142 O154 2.374 . S
O143 Tb140 2.453 . S
O143 C159 1.245 . S
O144 Tb140 2.596 . S
O144 Tb142 2.343 . S
O144 C159 1.259 . S
O145 Tb140 2.374 . S
O145 C141 1.251 . S
C146 O150 1.275 . S
C146 O151 1.246 . S
O147 C141 1.263 . S
O147 Tb142 2.353 . S
C148 O152 1.245 . S
C148 O153 1.259 . S
C149 O154 1.250 . S
C149 O155 1.263 . S
O150 Tb142 2.427 . S
O150 C146 1.275 . S
O151 Tb142 2.513 . S
O151 C146 1.246 . S
O152 Tb142 2.453 . S
O152 C148 1.245 . S
O153 Tb140 2.343 . S
O153 Tb142 2.596 . S
O153 C148 1.259 . S
O154 Tb142 2.374 . S
O154 C149 1.250 . S
O155 Tb140 2.353 . S
O155 C149 1.263 . S
C156 O157 1.275 . S
C156 O158 1.246 . S
O157 Tb140 2.427 . S
O157 C156 1.275 . S
O158 Tb140 2.513 . S
O158 C156 1.246 . S
C159 O143 1.245 . S
C159 O144 1.259 . S
Co160 O163 2.042 . S
Co160 O170 2.264 . S
Co160 O189 2.286 . S
Co160 O190 2.069 . S
Co160 O192 2.015 1_455 S
Co161 O163 2.122 . S
Co161 O169 2.073 . S
Co161 O170 2.327 . S
Co161 O171 1.976 1_455 S
Co162 O163 2.086 1_545 S
Co162 O165 2.088 1_455 S
Co162 O172 2.111 1_445 S
Co162 O173 2.144 . S
Co162 O177 2.112 . S
Co162 O191 2.143 1_445 S
O163 Co160 2.042 . S
O163 Co161 2.122 . S
O163 Co162 2.086 1_565 S
O163 H164 0.980 . S
H164 O163 0.980 . S
O165 Co162 2.088 1_655 S
O165 Co166 2.042 . S
O165 Co167 2.122 . S
O165 H168 0.980 . S
Co166 O165 2.042 . S
Co166 O174 2.286 . S
Co166 O175 2.069 . S
Co166 O176 2.015 1_655 S
Co166 O179 2.264 . S
Co167 O165 2.122 . S
Co167 O178 1.976 1_655 S
Co167 O179 2.327 . S
Co167 O180 2.073 . S
H168 O165 0.980 . S
O169 Co161 2.073 . S
O169 C184 1.245 . S
O170 Co160 2.264 . S
O170 Co161 2.327 . S
O170 C184 1.257 . S
O171 Co161 1.976 1_655 S
O171 C183 1.251 . S
O172 Co162 2.111 1_665 S
O172 C183 1.274 . S
O173 Co162 2.144 . S
O173 C186 1.246 . S
O174 Co166 2.286 . S
O174 C185 1.259 . S
O175 Co166 2.069 . S
O175 C185 1.289 . S
O176 Co166 2.015 1_455 S
O176 C186 1.257 . S
O177 Co162 2.112 . S
O177 C187 1.274 . S
O178 Co167 1.976 1_455 S
O178 C187 1.251 . S
O179 Co166 2.264 . S
O179 Co167 2.327 . S
O179 C188 1.257 . S
O180 Co167 2.073 . S
O180 C188 1.245 . S
C181 O189 1.259 . S
C181 O190 1.289 . S
C182 O191 1.246 . S
C182 O192 1.257 . S
C183 O171 1.251 . S
C183 O172 1.274 . S
C184 O169 1.245 . S
C184 O170 1.257 . S
C185 O174 1.259 . S
C185 O175 1.289 . S
C186 O173 1.246 . S
C186 O176 1.257 . S
C187 O177 1.274 . S
C187 O178 1.251 . S
C188 O179 1.257 . S
C188 O180 1.245 . S
O189 Co160 2.286 . S
O189 C181 1.259 . S
O190 Co160 2.069 . S
O190 C181 1.289 . S
O191 Co162 2.143 1_665 S
O191 C182 1.246 . S
O192 Co160 2.015 1_655 S
O192 C182 1.257 . S
Co193 O196 2.042 1_556 S
Co193 O203 2.264 1_556 S
Co193 O222 2.286 . S
Co193 O223 2.069 . S
Co193 O225 2.015 . S
Co194 O196 2.122 . S
Co194 O202 2.073 . S
Co194 O203 2.327 . S
Co194 O204 1.976 . S
Co195 O196 2.086 1_545 S
Co195 O198 2.088 1_554 S
Co195 O205 2.111 1_545 S
Co195 O206 2.144 . S
Co195 O210 2.112 1_554 S
Co195 O224 2.143 1_544 S
O196 Co193 2.042 1_554 S
O196 Co194 2.122 . S
O196 Co195 2.086 1_565 S
O196 H197 0.980 . S
H197 O196 0.980 . S
O198 Co195 2.088 1_556 S
O198 Co199 2.042 1_556 S
O198 Co200 2.122 . S
O198 H201 0.980 . S
Co199 O198 2.042 1_554 S
Co199 O207 2.286 . S
Co199 O208 2.069 . S
Co199 O209 2.015 . S
Co199 O212 2.264 1_554 S
Co200 O198 2.122 . S
Co200 O211 1.976 . S
Co200 O212 2.327 . S
Co200 O213 2.073 . S
H201 O198 0.980 . S
O202 Co194 2.073 . S
O202 C217 1.245 . S
O203 Co193 2.264 1_554 S
O203 Co194 2.327 . S
O203 C217 1.257 . S
O204 Co194 1.976 . S
O204 C216 1.251 . S
O205 Co195 2.111 1_565 S
O205 C216 1.274 . S
O206 Co195 2.144 . S
O206 C219 1.246 . S
O207 Co199 2.286 . S
O207 C218 1.259 . S
O208 Co199 2.069 . S
O208 C218 1.289 . S
O209 Co199 2.015 . S
O209 C219 1.257 . S
O210 Co195 2.112 1_556 S
O210 C220 1.274 . S
O211 Co200 1.976 . S
O211 C220 1.251 . S
O212 Co199 2.264 1_556 S
O212 Co200 2.327 . S
O212 C221 1.257 . S
O213 Co200 2.073 . S
O213 C221 1.245 . S
C214 O222 1.259 . S
C214 O223 1.289 . S
C215 O224 1.246 . S
C215 O225 1.257 . S
C216 O204 1.251 . S
C216 O205 1.274 . S
C217 O202 1.245 . S
C217 O203 1.257 . S
C218 O207 1.259 . S
C218 O208 1.289 . S
C219 O206 1.246 . S
C219 O209 1.257 . S
C220 O210 1.274 . S
C220 O211 1.251 . S
C221 O212 1.257 . S
C221 O213 1.245 . S
O222 Co193 2.286 . S
O222 C214 1.259 . S
O223 Co193 2.069 . S
O223 C214 1.289 . S
O224 Co195 2.143 1_566 S
O224 C215 1.246 . S
O225 Co193 2.015 . S
O225 C215 1.257 . S
Co226 O229 2.042 1_556 S
Co226 O236 2.264 1_556 S
Co226 O255 2.286 . S
Co226 O256 2.069 . S
Co226 O258 2.015 1_455 S
Co227 O229 2.122 . S
Co227 O235 2.073 . S
Co227 O236 2.327 . S
Co227 O237 1.976 1_455 S
Co228 O229 2.087 . S
Co228 O231 2.087 1_454 S
Co228 O238 2.111 1_455 S
Co228 O239 2.143 . S
Co228 O243 2.111 1_554 S
Co228 O257 2.143 1_454 S
O229 Co226 2.042 1_554 S
O229 Co227 2.122 . S
O229 Co228 2.087 . S
O229 H230 0.980 . S
H230 O229 0.980 . S
O231 Co228 2.087 1_656 S
O231 Co232 2.042 1_556 S
O231 Co233 2.122 . S
O231 H234 0.980 . S
Co232 O231 2.042 1_554 S
Co232 O240 2.286 . S
Co232 O241 2.069 . S
Co232 O242 2.015 1_655 S
Co232 O245 2.264 1_554 S
Co233 O231 2.122 . S
Co233 O244 1.976 1_655 S
Co233 O245 2.327 . S
Co233 O246 2.073 . S
H234 O231 0.980 . S
O235 Co227 2.073 . S
O235 C250 1.245 . S
O236 Co226 2.264 1_554 S
O236 Co227 2.327 . S
O236 C250 1.257 . S
O237 Co227 1.976 1_655 S
O237 C249 1.251 . S
O238 Co228 2.111 1_655 S
O238 C249 1.274 . S
O239 Co228 2.143 . S
O239 C252 1.246 . S
O240 Co232 2.286 . S
O240 C251 1.259 . S
O241 Co232 2.069 . S
O241 C251 1.289 . S
O242 Co232 2.015 1_455 S
O242 C252 1.257 . S
O243 Co228 2.111 1_556 S
O243 C253 1.274 . S
O244 Co233 1.976 1_455 S
O244 C253 1.251 . S
O245 Co232 2.264 1_556 S
O245 Co233 2.327 . S
O245 C254 1.257 . S
O246 Co233 2.073 . S
O246 C254 1.245 . S
C247 O255 1.259 . S
C247 O256 1.289 . S
C248 O257 1.246 . S
C248 O258 1.257 . S
C249 O237 1.251 . S
C249 O238 1.274 . S
C250 O235 1.245 . S
C250 O236 1.257 . S
C251 O240 1.259 . S
C251 O241 1.289 . S
C252 O239 1.246 . S
C252 O242 1.257 . S
C253 O243 1.274 . S
C253 O244 1.251 . S
C254 O245 1.257 . S
C254 O246 1.245 . S
O255 Co226 2.286 . S
O255 C247 1.259 . S
O256 Co226 2.069 . S
O256 C247 1.289 . S
O257 Co228 2.143 1_656 S
O257 C248 1.246 . S
O258 Co226 2.015 1_655 S
O258 C248 1.257 . S
Co259 O262 2.042 1_556 S
Co259 O269 2.264 1_556 S
Co259 O288 2.286 . S
Co259 O289 2.069 . S
Co259 O291 2.015 . S
Co260 O262 2.122 . S
Co260 O268 2.073 . S
Co260 O269 2.327 . S
Co260 O270 1.976 . S
Co261 O262 2.087 . S
Co261 O264 2.087 1_554 S
Co261 O271 2.111 . S
Co261 O272 2.143 . S
Co261 O276 2.111 1_554 S
Co261 O290 2.143 1_554 S
O262 Co259 2.042 1_554 S
O262 Co260 2.122 . S
O262 Co261 2.087 . S
O262 H263 0.980 . S
H263 O262 0.980 . S
O264 Co261 2.087 1_556 S
O264 Co265 2.042 1_556 S
O264 Co266 2.122 . S
O264 H267 0.980 . S
Co265 O264 2.042 1_554 S
Co265 O273 2.286 . S
Co265 O274 2.069 . S
Co265 O275 2.015 . S
Co265 O278 2.264 1_554 S
Co266 O264 2.122 . S
Co266 O277 1.976 . S
Co266 O278 2.327 . S
Co266 O279 2.073 . S
H267 O264 0.980 . S
O268 Co260 2.073 . S
O268 C283 1.245 . S
O269 Co259 2.264 1_554 S
O269 Co260 2.327 . S
O269 C283 1.257 . S
O270 Co260 1.976 . S
O270 C282 1.251 . S
O271 Co261 2.111 . S
O271 C282 1.274 . S
O272 Co261 2.143 . S
O272 C285 1.246 . S
O273 Co265 2.286 . S
O273 C284 1.259 . S
O274 Co265 2.069 . S
O274 C284 1.289 . S
O275 Co265 2.015 . S
O275 C285 1.257 . S
O276 Co261 2.111 1_556 S
O276 C286 1.274 . S
O277 Co266 1.976 . S
O277 C286 1.251 . S
O278 Co265 2.264 1_556 S
O278 Co266 2.327 . S
O278 C287 1.257 . S
O279 Co266 2.073 . S
O279 C287 1.245 . S
C280 O288 1.259 . S
C280 O289 1.289 . S
C281 O290 1.246 . S
C281 O291 1.257 . S
C282 O270 1.251 . S
C282 O271 1.274 . S
C283 O268 1.245 . S
C283 O269 1.257 . S
C284 O273 1.259 . S
C284 O274 1.289 . S
C285 O272 1.246 . S
C285 O275 1.257 . S
C286 O276 1.274 . S
C286 O277 1.251 . S
C287 O278 1.257 . S
C287 O279 1.245 . S
O288 Co259 2.286 . S
O288 C280 1.259 . S
O289 Co259 2.069 . S
O289 C280 1.289 . S
O290 Co261 2.143 1_556 S
O290 C281 1.246 . S
O291 Co259 2.015 . S
O291 C281 1.257 . S
Co292 O295 2.042 . S
Co292 O302 2.264 . S
Co292 O321 2.286 . S
Co292 O322 2.069 . S
Co292 O324 2.015 . S
Co293 O295 2.122 . S
Co293 O301 2.073 . S
Co293 O302 2.327 . S
Co293 O303 1.976 . S
Co294 O295 2.087 . S
Co294 O297 2.087 1_455 S
Co294 O304 2.111 . S
Co294 O305 2.143 1_455 S
Co294 O309 2.111 1_455 S
Co294 O323 2.143 . S
O295 Co292 2.042 . S
O295 Co293 2.122 . S
O295 Co294 2.087 . S
O295 H296 0.980 . S
H296 O295 0.980 . S
O297 Co294 2.087 1_655 S
O297 Co298 2.042 . S
O297 Co299 2.122 . S
O297 H300 0.980 . S
Co298 O297 2.042 . S
Co298 O306 2.286 . S
Co298 O307 2.069 . S
Co298 O308 2.015 . S
Co298 O311 2.264 . S
Co299 O297 2.122 . S
Co299 O310 1.976 . S
Co299 O311 2.327 . S
Co299 O312 2.073 . S
H300 O297 0.980 . S
O301 Co293 2.073 . S
O301 C316 1.245 . S
O302 Co292 2.264 . S
O302 Co293 2.327 . S
O302 C316 1.257 . S
O303 Co293 1.976 . S
O303 C315 1.251 . S
O304 Co294 2.111 . S
O304 C315 1.274 . S
O305 Co294 2.143 1_655 S
O305 C318 1.246 . S
O306 Co298 2.286 . S
O306 C317 1.259 . S
O307 Co298 2.069 . S
O307 C317 1.289 . S
O308 Co298 2.015 . S
O308 C318 1.257 . S
O309 Co294 2.111 1_655 S
O309 C319 1.274 . S
O310 Co299 1.976 . S
O310 C319 1.251 . S
O311 Co298 2.264 . S
O311 Co299 2.327 . S
O311 C320 1.257 . S
O312 Co299 2.073 . S
O312 C320 1.245 . S
C313 O321 1.259 . S
C313 O322 1.289 . S
C314 O323 1.246 . S
C314 O324 1.257 . S
C315 O303 1.251 . S
C315 O304 1.274 . S
C316 O301 1.245 . S
C316 O302 1.257 . S
C317 O306 1.259 . S
C317 O307 1.289 . S
C318 O305 1.246 . S
C318 O308 1.257 . S
C319 O309 1.274 . S
C319 O310 1.251 . S
C320 O311 1.257 . S
C320 O312 1.245 . S
O321 Co292 2.286 . S
O321 C313 1.259 . S
O322 Co292 2.069 . S
O322 C313 1.289 . S
O323 Co294 2.143 . S
O323 C314 1.246 . S
O324 Co292 2.015 . S
O324 C314 1.257 . S
Co325 O328 2.042 . S
Co325 O335 2.264 . S
Co325 O354 2.286 . S
Co325 O355 2.069 . S
Co325 O357 2.015 1_565 S
Co326 O328 2.122 . S
Co326 O334 2.073 . S
Co326 O335 2.327 . S
Co326 O336 1.976 1_565 S
Co327 O328 2.086 1_545 S
Co327 O330 2.088 . S
Co327 O337 2.112 . S
Co327 O338 2.143 1_545 S
Co327 O342 2.111 1_545 S
Co327 O356 2.144 . S
O328 Co325 2.042 . S
O328 Co326 2.122 . S
O328 Co327 2.086 1_565 S
O328 H329 0.980 . S
H329 O328 0.980 . S
O330 Co327 2.088 . S
O330 Co331 2.042 . S
O330 Co332 2.122 . S
O330 H333 0.980 . S
Co331 O330 2.042 . S
Co331 O339 2.286 . S
Co331 O340 2.069 . S
Co331 O341 2.015 1_545 S
Co331 O344 2.264 . S
Co332 O330 2.122 . S
Co332 O343 1.976 1_545 S
Co332 O344 2.327 . S
Co332 O345 2.073 . S
H333 O330 0.980 . S
O334 Co326 2.073 . S
O334 C349 1.245 . S
O335 Co325 2.264 . S
O335 Co326 2.327 . S
O335 C349 1.257 . S
O336 Co326 1.976 1_545 S
O336 C348 1.251 . S
O337 Co327 2.112 . S
O337 C348 1.274 . S
O338 Co327 2.143 1_565 S
O338 C351 1.246 . S
O339 Co331 2.286 . S
O339 C350 1.259 . S
O340 Co331 2.069 . S
O340 C350 1.289 . S
O341 Co331 2.015 1_565 S
O341 C351 1.257 . S
O342 Co327 2.111 1_565 S
O342 C352 1.274 . S
O343 Co332 1.976 1_565 S
O343 C352 1.251 . S
O344 Co331 2.264 . S
O344 Co332 2.327 . S
O344 C353 1.257 . S
O345 Co332 2.073 . S
O345 C353 1.245 . S
C346 O354 1.259 . S
C346 O355 1.289 . S
C347 O356 1.246 . S
C347 O357 1.257 . S
C348 O336 1.251 . S
C348 O337 1.274 . S
C349 O334 1.245 . S
C349 O335 1.257 . S
C350 O339 1.259 . S
C350 O340 1.289 . S
C351 O338 1.246 . S
C351 O341 1.257 . S
C352 O342 1.274 . S
C352 O343 1.251 . S
C353 O344 1.257 . S
C353 O345 1.245 . S
O354 Co325 2.286 . S
O354 C346 1.259 . S
O355 Co325 2.069 . S
O355 C346 1.289 . S
O356 Co327 2.144 . S
O356 C347 1.246 . S
O357 Co325 2.015 1_545 S
O357 C347 1.257 . S
H358 C366 0.950 . S
H359 C371 0.950 . S
H360 C368 0.950 . S
H361 C370 0.950 . S
H362 C372 0.950 . S
H363 C374 0.950 . S
H364 C376 0.950 . S
H365 C377 0.950 . S
C366 H358 0.950 . S
C366 C367 1.386 . S
C366 C368 1.391 . S
C367 C366 1.386 . S
C367 C371 1.393 . S
C368 H360 0.950 . S
C368 C366 1.391 . S
C368 C369 1.400 . S
C369 C368 1.400 . S
C369 C370 1.398 . S
C369 C375 1.491 . S
C370 H361 0.950 . S
C370 C369 1.398 . S
C370 C371 1.391 . S
C371 H359 0.950 . S
C371 C367 1.393 . S
C371 C370 1.391 . S
C372 H362 0.950 . S
C372 C373 1.386 . S
C372 C374 1.391 . S
C373 C372 1.386 . S
C373 C377 1.393 . S
C374 H363 0.950 . S
C374 C372 1.391 . S
C374 C375 1.400 . S
C375 C369 1.491 . S
C375 C374 1.400 . S
C375 C376 1.398 . S
C376 H364 0.950 . S
C376 C375 1.398 . S
C376 C377 1.391 . S
C377 H365 0.950 . S
C377 C373 1.393 . S
C377 C376 1.391 . S
H378 C386 0.950 . S
H379 C391 0.950 . S
H380 C388 0.950 . S
H381 C390 0.950 . S
H382 C392 0.950 . S
H383 C394 0.950 . S
H384 C396 0.950 . S
H385 C397 0.950 . S
C386 H378 0.950 . S
C386 C387 1.386 . S
C386 C388 1.391 . S
C387 C386 1.386 . S
C387 C391 1.393 . S
C388 H380 0.950 . S
C388 C386 1.391 . S
C388 C389 1.400 . S
C389 C388 1.400 . S
C389 C390 1.398 . S
C389 C395 1.491 . S
C390 H381 0.950 . S
C390 C389 1.398 . S
C390 C391 1.391 . S
C391 H379 0.950 . S
C391 C387 1.393 . S
C391 C390 1.391 . S
C392 H382 0.950 . S
C392 C393 1.386 . S
C392 C394 1.391 . S
C393 C392 1.386 . S
C393 C397 1.393 . S
C394 H383 0.950 . S
C394 C392 1.391 . S
C394 C395 1.400 . S
C395 C389 1.491 . S
C395 C394 1.400 . S
C395 C396 1.398 . S
C396 H384 0.950 . S
C396 C395 1.398 . S
C396 C397 1.391 . S
C397 H385 0.950 . S
C397 C393 1.393 . S
C397 C396 1.391 . S
H398 C406 0.950 . S
H399 C411 0.950 . S
H400 C408 0.950 . S
H401 C410 0.950 . S
H402 C412 0.950 . S
H403 C414 0.950 . S
H404 C416 0.950 . S
H405 C417 0.950 . S
C406 H398 0.950 . S
C406 C407 1.386 . S
C406 C408 1.391 . S
C407 C406 1.386 . S
C407 C411 1.393 . S
C408 H400 0.950 . S
C408 C406 1.391 . S
C408 C409 1.400 . S
C409 C408 1.400 . S
C409 C410 1.398 . S
C409 C415 1.491 . S
C410 H401 0.950 . S
C410 C409 1.398 . S
C410 C411 1.391 . S
C411 H399 0.950 . S
C411 C407 1.393 . S
C411 C410 1.391 . S
C412 H402 0.950 . S
C412 C413 1.386 . S
C412 C414 1.391 . S
C413 C412 1.386 . S
C413 C417 1.393 . S
C414 H403 0.950 . S
C414 C412 1.391 . S
C414 C415 1.400 . S
C415 C409 1.491 . S
C415 C414 1.400 . S
C415 C416 1.398 . S
C416 H404 0.950 . S
C416 C415 1.398 . S
C416 C417 1.391 . S
C417 H405 0.950 . S
C417 C413 1.393 . S
C417 C416 1.391 . S
H418 C426 0.950 . S
H419 C431 0.950 . S
H420 C428 0.950 . S
H421 C430 0.950 . S
H422 C432 0.950 . S
H423 C434 0.950 . S
H424 C436 0.950 . S
H425 C437 0.950 . S
C426 H418 0.950 . S
C426 C427 1.386 . S
C426 C428 1.391 . S
C427 C426 1.386 . S
C427 C431 1.393 . S
C428 H420 0.950 . S
C428 C426 1.391 . S
C428 C429 1.400 . S
C429 C428 1.400 . S
C429 C430 1.398 . S
C429 C435 1.491 . S
C430 H421 0.950 . S
C430 C429 1.398 . S
C430 C431 1.391 . S
C431 H419 0.950 . S
C431 C427 1.393 . S
C431 C430 1.391 . S
C432 H422 0.950 . S
C432 C433 1.386 . S
C432 C434 1.391 . S
C433 C432 1.386 . S
C433 C437 1.393 . S
C434 H423 0.950 . S
C434 C432 1.391 . S
C434 C435 1.400 . S
C435 C429 1.491 . S
C435 C434 1.400 . S
C435 C436 1.398 . S
C436 H424 0.950 . S
C436 C435 1.398 . S
C436 C437 1.391 . S
C437 H425 0.950 . S
C437 C433 1.393 . S
C437 C436 1.391 . S
H438 C446 0.950 . S
H439 C451 0.950 . S
H440 C448 0.950 . S
H441 C450 0.950 . S
H442 C452 0.950 . S
H443 C454 0.950 . S
H444 C456 0.950 . S
H445 C457 0.950 . S
C446 H438 0.950 . S
C446 C447 1.386 . S
C446 C448 1.391 . S
C447 C446 1.386 . S
C447 C451 1.393 . S
C448 H440 0.950 . S
C448 C446 1.391 . S
C448 C449 1.400 . S
C449 C448 1.400 . S
C449 C450 1.398 . S
C449 C455 1.491 . S
C450 H441 0.950 . S
C450 C449 1.398 . S
C450 C451 1.391 . S
C451 H439 0.950 . S
C451 C447 1.393 . S
C451 C450 1.391 . S
C452 H442 0.950 . S
C452 C453 1.386 . S
C452 C454 1.391 . S
C453 C452 1.386 . S
C453 C457 1.393 . S
C454 H443 0.950 . S
C454 C452 1.391 . S
C454 C455 1.400 . S
C455 C449 1.491 . S
C455 C454 1.400 . S
C455 C456 1.398 . S
C456 H444 0.950 . S
C456 C455 1.398 . S
C456 C457 1.391 . S
C457 H445 0.950 . S
C457 C453 1.393 . S
C457 C456 1.391 . S
H458 C466 0.950 . S
H459 C471 0.950 . S
H460 C468 0.950 . S
H461 C470 0.950 . S
H462 C472 0.950 . S
H463 C474 0.950 . S
H464 C476 0.950 . S
H465 C477 0.950 . S
C466 H458 0.950 . S
C466 C467 1.386 . S
C466 C468 1.391 . S
C467 C466 1.386 . S
C467 C471 1.393 . S
C468 H460 0.950 . S
C468 C466 1.391 . S
C468 C469 1.400 . S
C469 C468 1.400 . S
C469 C470 1.398 . S
C469 C475 1.491 . S
C470 H461 0.950 . S
C470 C469 1.398 . S
C470 C471 1.391 . S
C471 H459 0.950 . S
C471 C467 1.393 . S
C471 C470 1.391 . S
C472 H462 0.950 . S
C472 C473 1.386 . S
C472 C474 1.391 . S
C473 C472 1.386 . S
C473 C477 1.393 . S
C474 H463 0.950 . S
C474 C472 1.391 . S
C474 C475 1.400 . S
C475 C469 1.491 . S
C475 C474 1.400 . S
C475 C476 1.398 . S
C476 H464 0.950 . S
C476 C475 1.398 . S
C476 C477 1.391 . S
C477 H465 0.950 . S
C477 C473 1.393 . S
C477 C476 1.391 . S
H478 C486 0.950 . S
H479 C491 0.950 . S
H480 C488 0.950 . S
H481 C490 0.950 . S
H482 C492 0.950 . S
H483 C494 0.950 . S
H484 C496 0.950 . S
H485 C497 0.950 . S
C486 H478 0.950 . S
C486 C487 1.386 . S
C486 C488 1.391 . S
C487 C486 1.386 . S
C487 C491 1.393 . S
C488 H480 0.950 . S
C488 C486 1.391 . S
C488 C489 1.400 . S
C489 C488 1.400 . S
C489 C490 1.398 . S
C489 C495 1.491 . S
C490 H481 0.950 . S
C490 C489 1.398 . S
C490 C491 1.391 . S
C491 H479 0.950 . S
C491 C487 1.393 . S
C491 C490 1.391 . S
C492 H482 0.950 . S
C492 C493 1.386 . S
C492 C494 1.391 . S
C493 C492 1.386 . S
C493 C497 1.393 . S
C494 H483 0.950 . S
C494 C492 1.391 . S
C494 C495 1.400 . S
C495 C489 1.491 . S
C495 C494 1.400 . S
C495 C496 1.398 . S
C496 H484 0.950 . S
C496 C495 1.398 . S
C496 C497 1.391 . S
C497 H485 0.950 . S
C497 C493 1.393 . S
C497 C496 1.391 . S
H498 C506 0.950 . S
H499 C511 0.950 . S
H500 C508 0.950 . S
H501 C510 0.950 . S
H502 C512 0.950 . S
H503 C514 0.950 . S
H504 C516 0.950 . S
H505 C517 0.950 . S
C506 H498 0.950 . S
C506 C507 1.386 . S
C506 C508 1.391 . S
C507 C506 1.386 . S
C507 C511 1.393 . S
C508 H500 0.950 . S
C508 C506 1.391 . S
C508 C509 1.400 . S
C509 C508 1.400 . S
C509 C510 1.398 . S
C509 C515 1.491 . S
C510 H501 0.950 . S
C510 C509 1.398 . S
C510 C511 1.391 . S
C511 H499 0.950 . S
C511 C507 1.393 . S
C511 C510 1.391 . S
C512 H502 0.950 . S
C512 C513 1.386 . S
C512 C514 1.391 . S
C513 C512 1.386 . S
C513 C517 1.393 . S
C514 H503 0.950 . S
C514 C512 1.391 . S
C514 C515 1.400 . S
C515 C509 1.491 . S
C515 C514 1.400 . S
C515 C516 1.398 . S
C516 H504 0.950 . S
C516 C515 1.398 . S
C516 C517 1.391 . S
C517 H505 0.950 . S
C517 C513 1.393 . S
C517 C516 1.391 . S
H518 C526 0.950 . S
H519 C531 0.950 . S
H520 C528 0.950 . S
H521 C530 0.950 . S
H522 C532 0.950 . S
H523 C534 0.950 . S
H524 C536 0.950 . S
H525 C537 0.950 . S
C526 H518 0.950 . S
C526 C527 1.386 . S
C526 C528 1.391 . S
C527 C526 1.386 . S
C527 C531 1.393 . S
C528 H520 0.950 . S
C528 C526 1.391 . S
C528 C529 1.400 . S
C529 C528 1.400 . S
C529 C530 1.398 . S
C529 C535 1.491 . S
C530 H521 0.950 . S
C530 C529 1.398 . S
C530 C531 1.391 . S
C531 H519 0.950 . S
C531 C527 1.393 . S
C531 C530 1.391 . S
C532 H522 0.950 . S
C532 C533 1.386 . S
C532 C534 1.391 . S
C533 C532 1.386 . S
C533 C537 1.393 . S
C534 H523 0.950 . S
C534 C532 1.391 . S
C534 C535 1.400 . S
C535 C529 1.491 . S
C535 C534 1.400 . S
C535 C536 1.398 . S
C536 H524 0.950 . S
C536 C535 1.398 . S
C536 C537 1.391 . S
C537 H525 0.950 . S
C537 C533 1.393 . S
C537 C536 1.391 . S
H538 C546 0.950 . S
H539 C551 0.950 . S
H540 C548 0.950 . S
H541 C550 0.950 . S
H542 C552 0.950 . S
H543 C554 0.950 . S
H544 C556 0.950 . S
H545 C557 0.950 . S
C546 H538 0.950 . S
C546 C547 1.386 . S
C546 C548 1.391 . S
C547 C546 1.386 . S
C547 C551 1.393 . S
C548 H540 0.950 . S
C548 C546 1.391 . S
C548 C549 1.400 . S
C549 C548 1.400 . S
C549 C550 1.398 . S
C549 C555 1.491 . S
C550 H541 0.950 . S
C550 C549 1.398 . S
C550 C551 1.391 . S
C551 H539 0.950 . S
C551 C547 1.393 . S
C551 C550 1.391 . S
C552 H542 0.950 . S
C552 C553 1.386 . S
C552 C554 1.391 . S
C553 C552 1.386 . S
C553 C557 1.393 . S
C554 H543 0.950 . S
C554 C552 1.391 . S
C554 C555 1.400 . S
C555 C549 1.491 . S
C555 C554 1.400 . S
C555 C556 1.398 . S
C556 H544 0.950 . S
C556 C555 1.398 . S
C556 C557 1.391 . S
C557 H545 0.950 . S
C557 C553 1.393 . S
C557 C556 1.391 . S
H558 C566 0.950 . S
H559 C571 0.950 . S
H560 C568 0.950 . S
H561 C570 0.950 . S
H562 C572 0.950 . S
H563 C574 0.950 . S
H564 C576 0.950 . S
H565 C577 0.950 . S
C566 H558 0.950 . S
C566 C567 1.386 . S
C566 C568 1.391 . S
C567 C566 1.386 . S
C567 C571 1.393 . S
C568 H560 0.950 . S
C568 C566 1.391 . S
C568 C569 1.400 . S
C569 C568 1.400 . S
C569 C570 1.398 . S
C569 C575 1.491 . S
C570 H561 0.950 . S
C570 C569 1.398 . S
C570 C571 1.391 . S
C571 H559 0.950 . S
C571 C567 1.393 . S
C571 C570 1.391 . S
C572 H562 0.950 . S
C572 C573 1.386 . S
C572 C574 1.391 . S
C573 C572 1.386 . S
C573 C577 1.393 . S
C574 H563 0.950 . S
C574 C572 1.391 . S
C574 C575 1.400 . S
C575 C569 1.491 . S
C575 C574 1.400 . S
C575 C576 1.398 . S
C576 H564 0.950 . S
C576 C575 1.398 . S
C576 C577 1.391 . S
C577 H565 0.950 . S
C577 C573 1.393 . S
C577 C576 1.391 . S
H578 C586 0.950 . S
H579 C591 0.950 . S
H580 C588 0.950 . S
H581 C590 0.950 . S
H582 C592 0.950 . S
H583 C594 0.950 . S
H584 C596 0.950 . S
H585 C597 0.950 . S
C586 H578 0.950 . S
C586 C587 1.386 . S
C586 C588 1.391 . S
C587 C586 1.386 . S
C587 C591 1.393 . S
C588 H580 0.950 . S
C588 C586 1.391 . S
C588 C589 1.400 . S
C589 C588 1.400 . S
C589 C590 1.398 . S
C589 C595 1.491 . S
C590 H581 0.950 . S
C590 C589 1.398 . S
C590 C591 1.391 . S
C591 H579 0.950 . S
C591 C587 1.393 . S
C591 C590 1.391 . S
C592 H582 0.950 . S
C592 C593 1.386 . S
C592 C594 1.391 . S
C593 C592 1.386 . S
C593 C597 1.393 . S
C594 H583 0.950 . S
C594 C592 1.391 . S
C594 C595 1.400 . S
C595 C589 1.491 . S
C595 C594 1.400 . S
C595 C596 1.398 . S
C596 H584 0.950 . S
C596 C595 1.398 . S
C596 C597 1.391 . S
C597 H585 0.950 . S
C597 C593 1.393 . S
C597 C596 1.391 . S
H598 C606 0.950 . S
H599 C611 0.950 . S
H600 C608 0.950 . S
H601 C610 0.950 . S
H602 C612 0.950 . S
H603 C614 0.950 . S
H604 C616 0.950 . S
H605 C617 0.950 . S
C606 H598 0.950 . S
C606 C607 1.386 . S
C606 C608 1.391 . S
C607 C606 1.386 . S
C607 C611 1.393 . S
C608 H600 0.950 . S
C608 C606 1.391 . S
C608 C609 1.400 . S
C609 C608 1.400 . S
C609 C610 1.398 . S
C609 C615 1.491 . S
C610 H601 0.950 . S
C610 C609 1.398 . S
C610 C611 1.391 . S
C611 H599 0.950 . S
C611 C607 1.393 . S
C611 C610 1.391 . S
C612 H602 0.950 . S
C612 C613 1.386 . S
C612 C614 1.391 . S
C613 C612 1.386 . S
C613 C617 1.393 . S
C614 H603 0.950 . S
C614 C612 1.391 . S
C614 C615 1.400 . S
C615 C609 1.491 . S
C615 C614 1.400 . S
C615 C616 1.398 . S
C616 H604 0.950 . S
C616 C615 1.398 . S
C616 C617 1.391 . S
C617 H605 0.950 . S
C617 C613 1.393 . S
C617 C616 1.391 . S
H618 C626 0.950 . S
H619 C631 0.950 . S
H620 C628 0.950 . S
H621 C630 0.950 . S
H622 C632 0.950 . S
H623 C634 0.950 . S
H624 C636 0.950 . S
H625 C637 0.950 . S
C626 H618 0.950 . S
C626 C627 1.386 . S
C626 C628 1.391 . S
C627 C626 1.386 . S
C627 C631 1.393 . S
C628 H620 0.950 . S
C628 C626 1.391 . S
C628 C629 1.400 . S
C629 C628 1.400 . S
C629 C630 1.398 . S
C629 C635 1.491 . S
C630 H621 0.950 . S
C630 C629 1.398 . S
C630 C631 1.391 . S
C631 H619 0.950 . S
C631 C627 1.393 . S
C631 C630 1.391 . S
C632 H622 0.950 . S
C632 C633 1.386 . S
C632 C634 1.391 . S
C633 C632 1.386 . S
C633 C637 1.393 . S
C634 H623 0.950 . S
C634 C632 1.391 . S
C634 C635 1.400 . S
C635 C629 1.491 . S
C635 C634 1.400 . S
C635 C636 1.398 . S
C636 H624 0.950 . S
C636 C635 1.398 . S
C636 C637 1.391 . S
C637 H625 0.950 . S
C637 C633 1.393 . S
C637 C636 1.391 . S
H638 C646 0.950 . S
H639 C651 0.950 . S
H640 C648 0.950 . S
H641 C650 0.950 . S
H642 C652 0.950 1_554 S
H643 C654 0.950 . S
H644 C656 0.950 . S
H645 C657 0.950 . S
C646 H638 0.950 . S
C646 C647 1.386 . S
C646 C648 1.391 . S
C647 C646 1.386 . S
C647 C651 1.393 . S
C648 H640 0.950 . S
C648 C646 1.391 . S
C648 C649 1.400 . S
C649 C648 1.400 . S
C649 C650 1.398 . S
C649 C655 1.491 . S
C650 H641 0.950 . S
C650 C649 1.398 . S
C650 C651 1.391 . S
C651 H639 0.950 . S
C651 C647 1.393 . S
C651 C650 1.391 . S
C652 H642 0.950 1_556 S
C652 C653 1.386 . S
C652 C654 1.391 . S
C653 C652 1.386 . S
C653 C657 1.393 . S
C654 H643 0.950 . S
C654 C652 1.391 . S
C654 C655 1.400 . S
C655 C649 1.491 . S
C655 C654 1.400 . S
C655 C656 1.398 . S
C656 H644 0.950 . S
C656 C655 1.398 . S
C656 C657 1.391 . S
C657 H645 0.950 . S
C657 C653 1.393 . S
C657 C656 1.391 . S
H658 C666 0.950 . S
H659 C671 0.950 . S
H660 C668 0.950 . S
H661 C670 0.950 . S
H662 C672 0.950 . S
H663 C674 0.950 . S
H664 C676 0.950 . S
H665 C677 0.950 . S
C666 H658 0.950 . S
C666 C667 1.386 . S
C666 C668 1.391 . S
C667 C666 1.386 . S
C667 C671 1.393 . S
C668 H660 0.950 . S
C668 C666 1.391 . S
C668 C669 1.400 . S
C669 C668 1.400 . S
C669 C670 1.398 . S
C669 C675 1.491 . S
C670 H661 0.950 . S
C670 C669 1.398 . S
C670 C671 1.391 . S
C671 H659 0.950 . S
C671 C667 1.393 . S
C671 C670 1.391 . S
C672 H662 0.950 . S
C672 C673 1.386 . S
C672 C674 1.391 . S
C673 C672 1.386 . S
C673 C677 1.393 . S
C674 H663 0.950 . S
C674 C672 1.391 . S
C674 C675 1.400 . S
C675 C669 1.491 . S
C675 C674 1.400 . S
C675 C676 1.398 . S
C676 H664 0.950 . S
C676 C675 1.398 . S
C676 C677 1.391 . S
C677 H665 0.950 . S
C677 C673 1.393 . S
C677 C676 1.391 . S
H678 C686 0.950 . S
H679 C691 0.950 . S
H680 C688 0.950 . S
H681 C690 0.950 . S
H682 C692 0.950 . S
H683 C694 0.950 . S
H684 C696 0.950 . S
H685 C697 0.950 . S
C686 H678 0.950 . S
C686 C687 1.386 . S
C686 C688 1.391 . S
C687 C686 1.386 . S
C687 C691 1.393 . S
C688 H680 0.950 . S
C688 C686 1.391 . S
C688 C689 1.400 . S
C689 C688 1.400 . S
C689 C690 1.398 . S
C689 C695 1.491 . S
C690 H681 0.950 . S
C690 C689 1.398 . S
C690 C691 1.391 . S
C691 H679 0.950 . S
C691 C687 1.393 . S
C691 C690 1.391 . S
C692 H682 0.950 . S
C692 C693 1.386 . S
C692 C694 1.391 . S
C693 C692 1.386 . S
C693 C697 1.393 . S
C694 H683 0.950 . S
C694 C692 1.391 . S
C694 C695 1.400 . S
C695 C689 1.491 . S
C695 C694 1.400 . S
C695 C696 1.398 . S
C696 H684 0.950 . S
C696 C695 1.398 . S
C696 C697 1.391 . S
C697 H685 0.950 . S
C697 C693 1.393 . S
C697 C696 1.391 . S
H698 C706 0.950 . S
H699 C711 0.950 . S
H700 C708 0.950 . S
H701 C710 0.950 . S
H702 C712 0.950 . S
H703 C714 0.950 . S
H704 C716 0.950 . S
H705 C717 0.950 . S
C706 H698 0.950 . S
C706 C707 1.386 . S
C706 C708 1.391 . S
C707 C706 1.386 . S
C707 C711 1.393 . S
C708 H700 0.950 . S
C708 C706 1.391 . S
C708 C709 1.400 . S
C709 C708 1.400 . S
C709 C710 1.398 . S
C709 C715 1.491 . S
C710 H701 0.950 . S
C710 C709 1.398 . S
C710 C711 1.391 . S
C711 H699 0.950 . S
C711 C707 1.393 . S
C711 C710 1.391 . S
C712 H702 0.950 . S
C712 C713 1.386 . S
C712 C714 1.391 . S
C713 C712 1.386 . S
C713 C717 1.393 . S
C714 H703 0.950 . S
C714 C712 1.391 . S
C714 C715 1.400 . S
C715 C709 1.491 . S
C715 C714 1.400 . S
C715 C716 1.398 . S
C716 H704 0.950 . S
C716 C715 1.398 . S
C716 C717 1.391 . S
C717 H705 0.950 . S
C717 C713 1.393 . S
C717 C716 1.391 . S
H718 C726 0.950 . S
H719 C731 0.950 . S
H720 C728 0.950 . S
H721 C730 0.950 . S
H722 C732 0.950 . S
H723 C734 0.950 . S
H724 C736 0.950 . S
H725 C737 0.950 . S
C726 H718 0.950 . S
C726 C727 1.386 . S
C726 C728 1.391 . S
C727 C726 1.386 . S
C727 C731 1.393 . S
C728 H720 0.950 . S
C728 C726 1.391 . S
C728 C729 1.400 . S
C729 C728 1.400 . S
C729 C730 1.398 . S
C729 C735 1.491 . S
C730 H721 0.950 . S
C730 C729 1.398 . S
C730 C731 1.391 . S
C731 H719 0.950 . S
C731 C727 1.393 . S
C731 C730 1.391 . S
C732 H722 0.950 . S
C732 C733 1.386 . S
C732 C734 1.391 . S
C733 C732 1.386 . S
C733 C737 1.393 . S
C734 H723 0.950 . S
C734 C732 1.391 . S
C734 C735 1.400 . S
C735 C729 1.491 . S
C735 C734 1.400 . S
C735 C736 1.398 . S
C736 H724 0.950 . S
C736 C735 1.398 . S
C736 C737 1.391 . S
C737 H725 0.950 . S
C737 C733 1.393 . S
C737 C736 1.391 . S
H738 C746 0.950 . S
H739 C751 0.950 . S
H740 C748 0.950 . S
H741 C750 0.950 . S
H742 C752 0.950 . S
H743 C754 0.950 . S
H744 C756 0.950 . S
H745 C757 0.950 . S
C746 H738 0.950 . S
C746 C747 1.386 . S
C746 C748 1.391 . S
C747 C746 1.386 . S
C747 C751 1.393 . S
C748 H740 0.950 . S
C748 C746 1.391 . S
C748 C749 1.400 . S
C749 C748 1.400 . S
C749 C750 1.398 . S
C749 C755 1.491 . S
C750 H741 0.950 . S
C750 C749 1.398 . S
C750 C751 1.391 . S
C751 H739 0.950 . S
C751 C747 1.393 . S
C751 C750 1.391 . S
C752 H742 0.950 . S
C752 C753 1.386 . S
C752 C754 1.391 . S
C753 C752 1.386 . S
C753 C757 1.393 . S
C754 H743 0.950 . S
C754 C752 1.391 . S
C754 C755 1.400 . S
C755 C749 1.491 . S
C755 C754 1.400 . S
C755 C756 1.398 . S
C756 H744 0.950 . S
C756 C755 1.398 . S
C756 C757 1.391 . S
C757 H745 0.950 . S
C757 C753 1.393 . S
C757 C756 1.391 . S
H758 C766 0.950 . S
H759 C771 0.950 . S
H760 C768 0.950 . S
H761 C770 0.950 . S
H762 C772 0.950 . S
H763 C774 0.950 . S
H764 C776 0.950 . S
H765 C777 0.950 . S
C766 H758 0.950 . S
C766 C767 1.386 . S
C766 C768 1.391 . S
C767 C766 1.386 . S
C767 C771 1.393 . S
C768 H760 0.950 . S
C768 C766 1.391 . S
C768 C769 1.400 . S
C769 C768 1.400 . S
C769 C770 1.398 . S
C769 C775 1.491 . S
C770 H761 0.950 . S
C770 C769 1.398 . S
C770 C771 1.391 . S
C771 H759 0.950 . S
C771 C767 1.393 . S
C771 C770 1.391 . S
C772 H762 0.950 . S
C772 C773 1.386 . S
C772 C774 1.391 . S
C773 C772 1.386 . S
C773 C777 1.393 . S
C774 H763 0.950 . S
C774 C772 1.391 . S
C774 C775 1.400 . S
C775 C769 1.491 . S
C775 C774 1.400 . S
C775 C776 1.398 . S
C776 H764 0.950 . S
C776 C775 1.398 . S
C776 C777 1.391 . S
C777 H765 0.950 . S
C777 C773 1.393 . S
C777 C776 1.391 . S
H778 C786 0.950 . S
H779 C791 0.950 . S
H780 C788 0.950 . S
H781 C790 0.950 . S
H782 C792 0.950 . S
H783 C794 0.950 . S
H784 C796 0.950 . S
H785 C797 0.950 . S
C786 H778 0.950 . S
C786 C787 1.386 . S
C786 C788 1.391 . S
C787 C786 1.386 . S
C787 C791 1.393 . S
C788 H780 0.950 . S
C788 C786 1.391 . S
C788 C789 1.400 . S
C789 C788 1.400 . S
C789 C790 1.398 . S
C789 C795 1.491 . S
C790 H781 0.950 . S
C790 C789 1.398 . S
C790 C791 1.391 . S
C791 H779 0.950 . S
C791 C787 1.393 . S
C791 C790 1.391 . S
C792 H782 0.950 . S
C792 C793 1.386 . S
C792 C794 1.391 . S
C793 C792 1.386 . S
C793 C797 1.393 . S
C794 H783 0.950 . S
C794 C792 1.391 . S
C794 C795 1.400 . S
C795 C789 1.491 . S
C795 C794 1.400 . S
C795 C796 1.398 . S
C796 H784 0.950 . S
C796 C795 1.398 . S
C796 C797 1.391 . S
C797 H785 0.950 . S
C797 C793 1.393 . S
C797 C796 1.391 . S
H798 C806 0.950 . S
H799 C811 0.950 . S
H800 C808 0.950 . S
H801 C810 0.950 . S
H802 C812 0.950 . S
H803 C814 0.950 . S
H804 C816 0.950 . S
H805 C817 0.950 . S
C806 H798 0.950 . S
C806 C807 1.386 . S
C806 C808 1.391 . S
C807 C806 1.386 . S
C807 C811 1.393 . S
C808 H800 0.950 . S
C808 C806 1.391 . S
C808 C809 1.400 . S
C809 C808 1.400 . S
C809 C810 1.398 . S
C809 C815 1.491 . S
C810 H801 0.950 . S
C810 C809 1.398 . S
C810 C811 1.391 . S
C811 H799 0.950 . S
C811 C807 1.393 . S
C811 C810 1.391 . S
C812 H802 0.950 . S
C812 C813 1.386 . S
C812 C814 1.391 . S
C813 C812 1.386 . S
C813 C817 1.393 . S
C814 H803 0.950 . S
C814 C812 1.391 . S
C814 C815 1.400 . S
C815 C809 1.491 . S
C815 C814 1.400 . S
C815 C816 1.398 . S
C816 H804 0.950 . S
C816 C815 1.398 . S
C816 C817 1.391 . S
C817 H805 0.950 . S
C817 C813 1.393 . S
C817 C816 1.391 . S
H818 C826 0.950 . S
H819 C831 0.950 . S
H820 C828 0.950 . S
H821 C830 0.950 . S
H822 C832 0.950 . S
H823 C834 0.950 . S
H824 C836 0.950 . S
H825 C837 0.950 . S
C826 H818 0.950 . S
C826 C827 1.386 . S
C826 C828 1.391 . S
C827 C826 1.386 . S
C827 C831 1.393 . S
C828 H820 0.950 . S
C828 C826 1.391 . S
C828 C829 1.400 . S
C829 C828 1.400 . S
C829 C830 1.398 . S
C829 C835 1.491 . S
C830 H821 0.950 . S
C830 C829 1.398 . S
C830 C831 1.391 . S
C831 H819 0.950 . S
C831 C827 1.393 . S
C831 C830 1.391 . S
C832 H822 0.950 . S
C832 C833 1.386 . S
C832 C834 1.391 . S
C833 C832 1.386 . S
C833 C837 1.393 . S
C834 H823 0.950 . S
C834 C832 1.391 . S
C834 C835 1.400 . S
C835 C829 1.491 . S
C835 C834 1.400 . S
C835 C836 1.398 . S
C836 H824 0.950 . S
C836 C835 1.398 . S
C836 C837 1.391 . S
C837 H825 0.950 . S
C837 C833 1.393 . S
C837 C836 1.391 . S
H838 C846 0.950 . S
H839 C851 0.950 . S
H840 C848 0.950 . S
H841 C850 0.950 . S
H842 C852 0.950 . S
H843 C854 0.950 . S
H844 C856 0.950 . S
H845 C857 0.950 . S
C846 H838 0.950 . S
C846 C847 1.386 . S
C846 C848 1.391 . S
C847 C846 1.386 . S
C847 C851 1.393 . S
C848 H840 0.950 . S
C848 C846 1.391 . S
C848 C849 1.400 . S
C849 C848 1.400 . S
C849 C850 1.398 . S
C849 C855 1.491 . S
C850 H841 0.950 . S
C850 C849 1.398 . S
C850 C851 1.391 . S
C851 H839 0.950 . S
C851 C847 1.393 . S
C851 C850 1.391 . S
C852 H842 0.950 . S
C852 C853 1.386 . S
C852 C854 1.391 . S
C853 C852 1.386 . S
C853 C857 1.393 . S
C854 H843 0.950 . S
C854 C852 1.391 . S
C854 C855 1.400 . S
C855 C849 1.491 . S
C855 C854 1.400 . S
C855 C856 1.398 . S
C856 H844 0.950 . S
C856 C855 1.398 . S
C856 C857 1.391 . S
C857 H845 0.950 . S
C857 C853 1.393 . S
C857 C856 1.391 . S
H858 C866 0.950 . S
H859 C871 0.950 . S
H860 C868 0.950 . S
H861 C870 0.950 . S
H862 C872 0.950 . S
H863 C874 0.950 . S
H864 C876 0.950 . S
H865 C877 0.950 . S
C866 H858 0.950 . S
C866 C867 1.386 . S
C866 C868 1.391 . S
C867 C866 1.386 . S
C867 C871 1.393 . S
C868 H860 0.950 . S
C868 C866 1.391 . S
C868 C869 1.400 . S
C869 C868 1.400 . S
C869 C870 1.398 . S
C869 C875 1.491 . S
C870 H861 0.950 . S
C870 C869 1.398 . S
C870 C871 1.391 . S
C871 H859 0.950 . S
C871 C867 1.393 . S
C871 C870 1.391 . S
C872 H862 0.950 . S
C872 C873 1.386 . S
C872 C874 1.391 . S
C873 C872 1.386 . S
C873 C877 1.393 . S
C874 H863 0.950 . S
C874 C872 1.391 . S
C874 C875 1.400 . S
C875 C869 1.491 . S
C875 C874 1.400 . S
C875 C876 1.398 . S
C876 H864 0.950 . S
C876 C875 1.398 . S
C876 C877 1.391 . S
C877 H865 0.950 . S
C877 C873 1.393 . S
C877 C876 1.391 . S
H878 C886 0.950 . S
H879 C891 0.950 . S
H880 C888 0.950 . S
H881 C890 0.950 . S
H882 C892 0.950 . S
H883 C894 0.950 . S
H884 C896 0.950 . S
H885 C897 0.950 . S
C886 H878 0.950 . S
C886 C887 1.386 . S
C886 C888 1.391 . S
C887 C886 1.386 . S
C887 C891 1.393 . S
C888 H880 0.950 . S
C888 C886 1.391 . S
C888 C889 1.400 . S
C889 C888 1.400 . S
C889 C890 1.398 . S
C889 C895 1.491 . S
C890 H881 0.950 . S
C890 C889 1.398 . S
C890 C891 1.391 . S
C891 H879 0.950 . S
C891 C887 1.393 . S
C891 C890 1.391 . S
C892 H882 0.950 . S
C892 C893 1.386 . S
C892 C894 1.391 . S
C893 C892 1.386 . S
C893 C897 1.393 . S
C894 H883 0.950 . S
C894 C892 1.391 . S
C894 C895 1.400 . S
C895 C889 1.491 . S
C895 C894 1.400 . S
C895 C896 1.398 . S
C896 H884 0.950 . S
C896 C895 1.398 . S
C896 C897 1.391 . S
C897 H885 0.950 . S
C897 C893 1.393 . S
C897 C896 1.391 . S
H898 C906 0.950 . S
H899 C911 0.950 . S
H900 C908 0.950 . S
H901 C910 0.950 . S
H902 C912 0.950 . S
H903 C914 0.950 . S
H904 C916 0.950 . S
H905 C917 0.950 . S
C906 H898 0.950 . S
C906 C907 1.386 . S
C906 C908 1.391 . S
C907 C906 1.386 . S
C907 C911 1.393 . S
C908 H900 0.950 . S
C908 C906 1.391 . S
C908 C909 1.400 . S
C909 C908 1.400 . S
C909 C910 1.398 . S
C909 C915 1.491 . S
C910 H901 0.950 . S
C910 C909 1.398 . S
C910 C911 1.391 . S
C911 H899 0.950 . S
C911 C907 1.393 . S
C911 C910 1.391 . S
C912 H902 0.950 . S
C912 C913 1.386 . S
C912 C914 1.391 . S
C913 C912 1.386 . S
C913 C917 1.393 . S
C914 H903 0.950 . S
C914 C912 1.391 . S
C914 C915 1.400 . S
C915 C909 1.491 . S
C915 C914 1.400 . S
C915 C916 1.398 . S
C916 H904 0.950 . S
C916 C915 1.398 . S
C916 C917 1.391 . S
C917 H905 0.950 . S
C917 C913 1.393 . S
C917 C916 1.391 . S
H918 C926 0.950 . S
H919 C931 0.950 . S
H920 C928 0.950 . S
H921 C930 0.950 . S
H922 C932 0.950 . S
H923 C934 0.950 . S
H924 C936 0.950 . S
H925 C937 0.950 . S
C926 H918 0.950 . S
C926 C927 1.386 . S
C926 C928 1.391 . S
C927 C926 1.386 . S
C927 C931 1.393 . S
C928 H920 0.950 . S
C928 C926 1.391 . S
C928 C929 1.400 . S
C929 C928 1.400 . S
C929 C930 1.398 . S
C929 C935 1.491 . S
C930 H921 0.950 . S
C930 C929 1.398 . S
C930 C931 1.391 . S
C931 H919 0.950 . S
C931 C927 1.393 . S
C931 C930 1.391 . S
C932 H922 0.950 . S
C932 C933 1.386 . S
C932 C934 1.391 . S
C933 C932 1.386 . S
C933 C937 1.393 . S
C934 H923 0.950 . S
C934 C932 1.391 . S
C934 C935 1.400 . S
C935 C929 1.491 . S
C935 C934 1.400 . S
C935 C936 1.398 . S
C936 H924 0.950 . S
C936 C935 1.398 . S
C936 C937 1.391 . S
C937 H925 0.950 . S
C937 C933 1.393 . S
C937 C936 1.391 . S
H938 C946 0.950 . S
H939 C951 0.950 . S
H940 C948 0.950 . S
H941 C950 0.950 . S
H942 C952 0.950 . S
H943 C954 0.950 . S
H944 C956 0.950 . S
H945 C957 0.950 . S
C946 H938 0.950 . S
C946 C947 1.386 . S
C946 C948 1.391 . S
C947 C946 1.386 . S
C947 C951 1.393 . S
C948 H940 0.950 . S
C948 C946 1.391 . S
C948 C949 1.400 . S
C949 C948 1.400 . S
C949 C950 1.398 . S
C949 C955 1.491 . S
C950 H941 0.950 . S
C950 C949 1.398 . S
C950 C951 1.391 . S
C951 H939 0.950 . S
C951 C947 1.393 . S
C951 C950 1.391 . S
C952 H942 0.950 . S
C952 C953 1.386 . S
C952 C954 1.391 . S
C953 C952 1.386 . S
C953 C957 1.393 . S
C954 H943 0.950 . S
C954 C952 1.391 . S
C954 C955 1.400 . S
C955 C949 1.491 . S
C955 C954 1.400 . S
C955 C956 1.398 . S
C956 H944 0.950 . S
C956 C955 1.398 . S
C956 C957 1.391 . S
C957 H945 0.950 . S
C957 C953 1.393 . S
C957 C956 1.391 . S
H958 C966 0.950 . S
H959 C971 0.950 . S
H960 C968 0.950 . S
H961 C970 0.950 . S
H962 C972 0.950 . S
H963 C974 0.950 . S
H964 C976 0.950 . S
H965 C977 0.950 . S
C966 H958 0.950 . S
C966 C967 1.386 . S
C966 C968 1.391 . S
C967 C966 1.386 . S
C967 C971 1.393 . S
C968 H960 0.950 . S
C968 C966 1.391 . S
C968 C969 1.400 . S
C969 C968 1.400 . S
C969 C970 1.398 . S
C969 C975 1.491 . S
C970 H961 0.950 . S
C970 C969 1.398 . S
C970 C971 1.391 . S
C971 H959 0.950 . S
C971 C967 1.393 . S
C971 C970 1.391 . S
C972 H962 0.950 . S
C972 C973 1.386 . S
C972 C974 1.391 . S
C973 C972 1.386 . S
C973 C977 1.393 . S
C974 H963 0.950 . S
C974 C972 1.391 . S
C974 C975 1.400 . S
C975 C969 1.491 . S
C975 C974 1.400 . S
C975 C976 1.398 . S
C976 H964 0.950 . S
C976 C975 1.398 . S
C976 C977 1.391 . S
C977 H965 0.950 . S
C977 C973 1.393 . S
C977 C976 1.391 . S
H978 C986 0.950 . S
H979 C991 0.950 . S
H980 C988 0.950 . S
H981 C990 0.950 . S
H982 C992 0.950 . S
H983 C994 0.950 . S
H984 C996 0.950 . S
H985 C997 0.950 . S
C986 H978 0.950 . S
C986 C987 1.386 . S
C986 C988 1.391 . S
C987 C986 1.386 . S
C987 C991 1.393 . S
C988 H980 0.950 . S
C988 C986 1.391 . S
C988 C989 1.400 . S
C989 C988 1.400 . S
C989 C990 1.398 . S
C989 C995 1.491 . S
C990 H981 0.950 . S
C990 C989 1.398 . S
C990 C991 1.391 . S
C991 H979 0.950 . S
C991 C987 1.393 . S
C991 C990 1.391 . S
C992 H982 0.950 . S
C992 C993 1.386 . S
C992 C994 1.391 . S
C993 C992 1.386 . S
C993 C997 1.393 . S
C994 H983 0.950 . S
C994 C992 1.391 . S
C994 C995 1.400 . S
C995 C989 1.491 . S
C995 C994 1.400 . S
C995 C996 1.398 . S
C996 H984 0.950 . S
C996 C995 1.398 . S
C996 C997 1.391 . S
C997 H985 0.950 . S
C997 C993 1.393 . S
C997 C996 1.391 . S
H998 C1006 0.950 . S
H999 C1011 0.950 . S
H1000 C1008 0.950 . S
H1001 C1010 0.950 . S
H1002 C1012 0.950 . S
H1003 C1014 0.950 . S
H1004 C1016 0.950 . S
H1005 C1017 0.950 . S
C1006 H998 0.950 . S
C1006 C1007 1.386 . S
C1006 C1008 1.391 . S
C1007 C1006 1.386 . S
C1007 C1011 1.393 . S
C1008 H1000 0.950 . S
C1008 C1006 1.391 . S
C1008 C1009 1.400 . S
C1009 C1008 1.400 . S
C1009 C1010 1.398 . S
C1009 C1015 1.491 . S
C1010 H1001 0.950 . S
C1010 C1009 1.398 . S
C1010 C1011 1.391 . S
C1011 H999 0.950 . S
C1011 C1007 1.393 . S
C1011 C1010 1.391 . S
C1012 H1002 0.950 . S
C1012 C1013 1.386 . S
C1012 C1014 1.391 . S
C1013 C1012 1.386 . S
C1013 C1017 1.393 . S
C1014 H1003 0.950 . S
C1014 C1012 1.391 . S
C1014 C1015 1.400 . S
C1015 C1009 1.491 . S
C1015 C1014 1.400 . S
C1015 C1016 1.398 . S
C1016 H1004 0.950 . S
C1016 C1015 1.398 . S
C1016 C1017 1.391 . S
C1017 H1005 0.950 . S
C1017 C1013 1.393 . S
C1017 C1016 1.391 . S
H1018 C1026 0.950 . S
H1019 C1031 0.950 . S
H1020 C1028 0.950 . S
H1021 C1030 0.950 . S
H1022 C1032 0.950 . S
H1023 C1034 0.950 . S
H1024 C1036 0.950 . S
H1025 C1037 0.950 . S
C1026 H1018 0.950 . S
C1026 C1027 1.386 . S
C1026 C1028 1.391 . S
C1027 C1026 1.386 . S
C1027 C1031 1.393 . S
C1028 H1020 0.950 . S
C1028 C1026 1.391 . S
C1028 C1029 1.400 . S
C1029 C1028 1.400 . S
C1029 C1030 1.398 . S
C1029 C1035 1.491 . S
C1030 H1021 0.950 . S
C1030 C1029 1.398 . S
C1030 C1031 1.391 . S
C1031 H1019 0.950 . S
C1031 C1027 1.393 . S
C1031 C1030 1.391 . S
C1032 H1022 0.950 . S
C1032 C1033 1.386 . S
C1032 C1034 1.391 . S
C1033 C1032 1.386 . S
C1033 C1037 1.393 . S
C1034 H1023 0.950 . S
C1034 C1032 1.391 . S
C1034 C1035 1.400 . S
C1035 C1029 1.491 . S
C1035 C1034 1.400 . S
C1035 C1036 1.398 . S
C1036 H1024 0.950 . S
C1036 C1035 1.398 . S
C1036 C1037 1.391 . S
C1037 H1025 0.950 . S
C1037 C1033 1.393 . S
C1037 C1036 1.391 . S
H1038 C1046 0.950 . S
H1039 C1051 0.950 . S
H1040 C1048 0.950 . S
H1041 C1050 0.950 . S
H1042 C1052 0.950 . S
H1043 C1054 0.950 . S
H1044 C1056 0.950 . S
H1045 C1057 0.950 . S
C1046 H1038 0.950 . S
C1046 C1047 1.386 . S
C1046 C1048 1.391 . S
C1047 C1046 1.386 . S
C1047 C1051 1.393 . S
C1048 H1040 0.950 . S
C1048 C1046 1.391 . S
C1048 C1049 1.400 . S
C1049 C1048 1.400 . S
C1049 C1050 1.398 . S
C1049 C1055 1.491 . S
C1050 H1041 0.950 . S
C1050 C1049 1.398 . S
C1050 C1051 1.391 . S
C1051 H1039 0.950 . S
C1051 C1047 1.393 . S
C1051 C1050 1.391 . S
C1052 H1042 0.950 . S
C1052 C1053 1.386 . S
C1052 C1054 1.391 . S
C1053 C1052 1.386 . S
C1053 C1057 1.393 . S
C1054 H1043 0.950 . S
C1054 C1052 1.391 . S
C1054 C1055 1.400 . S
C1055 C1049 1.491 . S
C1055 C1054 1.400 . S
C1055 C1056 1.398 . S
C1056 H1044 0.950 . S
C1056 C1055 1.398 . S
C1056 C1057 1.391 . S
C1057 H1045 0.950 . S
C1057 C1053 1.393 . S
C1057 C1056 1.391 . S
H1058 C1066 0.950 . S
H1059 C1071 0.950 . S
H1060 C1068 0.950 . S
H1061 C1070 0.950 . S
H1062 C1072 0.950 . S
H1063 C1074 0.950 . S
H1064 C1076 0.950 . S
H1065 C1077 0.950 . S
C1066 H1058 0.950 . S
C1066 C1067 1.386 . S
C1066 C1068 1.391 . S
C1067 C1066 1.386 . S
C1067 C1071 1.393 . S
C1068 H1060 0.950 . S
C1068 C1066 1.391 . S
C1068 C1069 1.400 . S
C1069 C1068 1.400 . S
C1069 C1070 1.398 . S
C1069 C1075 1.491 . S
C1070 H1061 0.950 . S
C1070 C1069 1.398 . S
C1070 C1071 1.391 . S
C1071 H1059 0.950 . S
C1071 C1067 1.393 . S
C1071 C1070 1.391 . S
C1072 H1062 0.950 . S
C1072 C1073 1.386 . S
C1072 C1074 1.391 . S
C1073 C1072 1.386 . S
C1073 C1077 1.393 . S
C1074 H1063 0.950 . S
C1074 C1072 1.391 . S
C1074 C1075 1.400 . S
C1075 C1069 1.491 . S
C1075 C1074 1.400 . S
C1075 C1076 1.398 . S
C1076 H1064 0.950 . S
C1076 C1075 1.398 . S
C1076 C1077 1.391 . S
C1077 H1065 0.950 . S
C1077 C1073 1.393 . S
C1077 C1076 1.391 . S
H1078 C1086 0.950 . S
H1079 C1091 0.950 . S
H1080 C1088 0.950 . S
H1081 C1090 0.950 . S
H1082 C1092 0.950 . S
H1083 C1094 0.950 . S
H1084 C1096 0.950 . S
H1085 C1097 0.950 . S
C1086 H1078 0.950 . S
C1086 C1087 1.386 . S
C1086 C1088 1.391 . S
C1087 C1086 1.386 . S
C1087 C1091 1.393 . S
C1088 H1080 0.950 . S
C1088 C1086 1.391 . S
C1088 C1089 1.400 . S
C1089 C1088 1.400 . S
C1089 C1090 1.398 . S
C1089 C1095 1.491 . S
C1090 H1081 0.950 . S
C1090 C1089 1.398 . S
C1090 C1091 1.391 . S
C1091 H1079 0.950 . S
C1091 C1087 1.393 . S
C1091 C1090 1.391 . S
C1092 H1082 0.950 . S
C1092 C1093 1.386 . S
C1092 C1094 1.391 . S
C1093 C1092 1.386 . S
C1093 C1097 1.393 . S
C1094 H1083 0.950 . S
C1094 C1092 1.391 . S
C1094 C1095 1.400 . S
C1095 C1089 1.491 . S
C1095 C1094 1.400 . S
C1095 C1096 1.398 . S
C1096 H1084 0.950 . S
C1096 C1095 1.398 . S
C1096 C1097 1.391 . S
C1097 H1085 0.950 . S
C1097 C1093 1.393 . S
C1097 C1096 1.391 . S
H1098 C1106 0.950 . S
H1099 C1111 0.950 . S
H1100 C1108 0.950 . S
H1101 C1110 0.950 . S
H1102 C1112 0.950 . S
H1103 C1114 0.950 . S
H1104 C1116 0.950 . S
H1105 C1117 0.950 . S
C1106 H1098 0.950 . S
C1106 C1107 1.386 . S
C1106 C1108 1.391 . S
C1107 C1106 1.386 . S
C1107 C1111 1.393 . S
C1108 H1100 0.950 . S
C1108 C1106 1.391 . S
C1108 C1109 1.400 . S
C1109 C1108 1.400 . S
C1109 C1110 1.398 . S
C1109 C1115 1.491 . S
C1110 H1101 0.950 . S
C1110 C1109 1.398 . S
C1110 C1111 1.391 . S
C1111 H1099 0.950 . S
C1111 C1107 1.393 . S
C1111 C1110 1.391 . S
C1112 H1102 0.950 . S
C1112 C1113 1.386 . S
C1112 C1114 1.391 . S
C1113 C1112 1.386 . S
C1113 C1117 1.393 . S
C1114 H1103 0.950 . S
C1114 C1112 1.391 . S
C1114 C1115 1.400 . S
C1115 C1109 1.491 . S
C1115 C1114 1.400 . S
C1115 C1116 1.398 . S
C1116 H1104 0.950 . S
C1116 C1115 1.398 . S
C1116 C1117 1.391 . S
C1117 H1105 0.950 . S
C1117 C1113 1.393 . S
C1117 C1116 1.391 . S
H1118 C1126 0.950 . S
H1119 C1131 0.950 . S
H1120 C1128 0.950 . S
H1121 C1130 0.950 . S
H1122 C1132 0.950 . S
H1123 C1134 0.950 . S
H1124 C1136 0.950 . S
H1125 C1137 0.950 . S
C1126 H1118 0.950 . S
C1126 C1127 1.386 . S
C1126 C1128 1.391 . S
C1127 C1126 1.386 . S
C1127 C1131 1.393 . S
C1128 H1120 0.950 . S
C1128 C1126 1.391 . S
C1128 C1129 1.400 . S
C1129 C1128 1.400 . S
C1129 C1130 1.398 . S
C1129 C1135 1.491 . S
C1130 H1121 0.950 . S
C1130 C1129 1.398 . S
C1130 C1131 1.391 . S
C1131 H1119 0.950 . S
C1131 C1127 1.393 . S
C1131 C1130 1.391 . S
C1132 H1122 0.950 . S
C1132 C1133 1.386 . S
C1132 C1134 1.391 . S
C1133 C1132 1.386 . S
C1133 C1137 1.393 . S
C1134 H1123 0.950 . S
C1134 C1132 1.391 . S
C1134 C1135 1.400 . S
C1135 C1129 1.491 . S
C1135 C1134 1.400 . S
C1135 C1136 1.398 . S
C1136 H1124 0.950 . S
C1136 C1135 1.398 . S
C1136 C1137 1.391 . S
C1137 H1125 0.950 . S
C1137 C1133 1.393 . S
C1137 C1136 1.391 . S
H1138 C1146 0.950 . S
H1139 C1151 0.950 . S
H1140 C1148 0.950 . S
H1141 C1150 0.950 . S
H1142 C1152 0.950 . S
H1143 C1154 0.950 . S
H1144 C1156 0.950 . S
H1145 C1157 0.950 . S
C1146 H1138 0.950 . S
C1146 C1147 1.386 . S
C1146 C1148 1.391 . S
C1147 C1146 1.386 . S
C1147 C1151 1.393 . S
C1148 H1140 0.950 . S
C1148 C1146 1.391 . S
C1148 C1149 1.400 . S
C1149 C1148 1.400 . S
C1149 C1150 1.398 . S
C1149 C1155 1.491 . S
C1150 H1141 0.950 . S
C1150 C1149 1.398 . S
C1150 C1151 1.391 . S
C1151 H1139 0.950 . S
C1151 C1147 1.393 . S
C1151 C1150 1.391 . S
C1152 H1142 0.950 . S
C1152 C1153 1.386 . S
C1152 C1154 1.391 . S
C1153 C1152 1.386 . S
C1153 C1157 1.393 . S
C1154 H1143 0.950 . S
C1154 C1152 1.391 . S
C1154 C1155 1.400 . S
C1155 C1149 1.491 . S
C1155 C1154 1.400 . S
C1155 C1156 1.398 . S
C1156 H1144 0.950 . S
C1156 C1155 1.398 . S
C1156 C1157 1.391 . S
C1157 H1145 0.950 . S
C1157 C1153 1.393 . S
C1157 C1156 1.391 . S
H1158 C1166 0.950 . S
H1159 C1171 0.950 . S
H1160 C1168 0.950 . S
H1161 C1170 0.950 . S
H1162 C1172 0.950 . S
H1163 C1174 0.950 . S
H1164 C1176 0.950 . S
H1165 C1177 0.950 . S
C1166 H1158 0.950 . S
C1166 C1167 1.386 . S
C1166 C1168 1.391 . S
C1167 C1166 1.386 . S
C1167 C1171 1.393 . S
C1168 H1160 0.950 . S
C1168 C1166 1.391 . S
C1168 C1169 1.400 . S
C1169 C1168 1.400 . S
C1169 C1170 1.398 . S
C1169 C1175 1.491 . S
C1170 H1161 0.950 . S
C1170 C1169 1.398 . S
C1170 C1171 1.391 . S
C1171 H1159 0.950 . S
C1171 C1167 1.393 . S
C1171 C1170 1.391 . S
C1172 H1162 0.950 . S
C1172 C1173 1.386 . S
C1172 C1174 1.391 . S
C1173 C1172 1.386 . S
C1173 C1177 1.393 . S
C1174 H1163 0.950 . S
C1174 C1172 1.391 . S
C1174 C1175 1.400 . S
C1175 C1169 1.491 . S
C1175 C1174 1.400 . S
C1175 C1176 1.398 . S
C1176 H1164 0.950 . S
C1176 C1175 1.398 . S
C1176 C1177 1.391 . S
C1177 H1165 0.950 . S
C1177 C1173 1.393 . S
C1177 C1176 1.391 . S
H1178 C1186 0.950 . S
H1179 C1191 0.950 . S
H1180 C1188 0.950 . S
H1181 C1190 0.950 . S
H1182 C1192 0.950 . S
H1183 C1194 0.950 . S
H1184 C1196 0.950 . S
H1185 C1197 0.950 . S
C1186 H1178 0.950 . S
C1186 C1187 1.386 . S
C1186 C1188 1.391 . S
C1187 C1186 1.386 . S
C1187 C1191 1.393 . S
C1188 H1180 0.950 . S
C1188 C1186 1.391 . S
C1188 C1189 1.400 . S
C1189 C1188 1.400 . S
C1189 C1190 1.398 . S
C1189 C1195 1.491 . S
C1190 H1181 0.950 . S
C1190 C1189 1.398 . S
C1190 C1191 1.391 . S
C1191 H1179 0.950 . S
C1191 C1187 1.393 . S
C1191 C1190 1.391 . S
C1192 H1182 0.950 . S
C1192 C1193 1.386 . S
C1192 C1194 1.391 . S
C1193 C1192 1.386 . S
C1193 C1197 1.393 . S
C1194 H1183 0.950 . S
C1194 C1192 1.391 . S
C1194 C1195 1.400 . S
C1195 C1189 1.491 . S
C1195 C1194 1.400 . S
C1195 C1196 1.398 . S
C1196 H1184 0.950 . S
C1196 C1195 1.398 . S
C1196 C1197 1.391 . S
C1197 H1185 0.950 . S
C1197 C1193 1.393 . S
C1197 C1196 1.391 . S
H1198 C1206 0.950 . S
H1199 C1211 0.950 . S
H1200 C1208 0.950 . S
H1201 C1210 0.950 . S
H1202 C1212 0.950 . S
H1203 C1214 0.950 . S
H1204 C1216 0.950 . S
H1205 C1217 0.950 . S
C1206 H1198 0.950 . S
C1206 C1207 1.386 . S
C1206 C1208 1.391 . S
C1207 C1206 1.386 . S
C1207 C1211 1.393 . S
C1208 H1200 0.950 . S
C1208 C1206 1.391 . S
C1208 C1209 1.400 . S
C1209 C1208 1.400 . S
C1209 C1210 1.398 . S
C1209 C1215 1.491 . S
C1210 H1201 0.950 . S
C1210 C1209 1.398 . S
C1210 C1211 1.391 . S
C1211 H1199 0.950 . S
C1211 C1207 1.393 . S
C1211 C1210 1.391 . S
C1212 H1202 0.950 . S
C1212 C1213 1.386 . S
C1212 C1214 1.391 . S
C1213 C1212 1.386 . S
C1213 C1217 1.393 . S
C1214 H1203 0.950 . S
C1214 C1212 1.391 . S
C1214 C1215 1.400 . S
C1215 C1209 1.491 . S
C1215 C1214 1.400 . S
C1215 C1216 1.398 . S
C1216 H1204 0.950 . S
C1216 C1215 1.398 . S
C1216 C1217 1.391 . S
C1217 H1205 0.950 . S
C1217 C1213 1.393 . S
C1217 C1216 1.391 . S
H1218 C1226 0.950 . S
H1219 C1231 0.950 . S
H1220 C1228 0.950 . S
H1221 C1230 0.950 . S
H1222 C1232 0.950 . S
H1223 C1234 0.950 . S
H1224 C1236 0.950 . S
H1225 C1237 0.950 . S
C1226 H1218 0.950 . S
C1226 C1227 1.386 . S
C1226 C1228 1.391 . S
C1227 C1226 1.386 . S
C1227 C1231 1.393 . S
C1228 H1220 0.950 . S
C1228 C1226 1.391 . S
C1228 C1229 1.400 . S
C1229 C1228 1.400 . S
C1229 C1230 1.398 . S
C1229 C1235 1.491 . S
C1230 H1221 0.950 . S
C1230 C1229 1.398 . S
C1230 C1231 1.391 . S
C1231 H1219 0.950 . S
C1231 C1227 1.393 . S
C1231 C1230 1.391 . S
C1232 H1222 0.950 . S
C1232 C1233 1.386 . S
C1232 C1234 1.391 . S
C1233 C1232 1.386 . S
C1233 C1237 1.393 . S
C1234 H1223 0.950 . S
C1234 C1232 1.391 . S
C1234 C1235 1.400 . S
C1235 C1229 1.491 . S
C1235 C1234 1.400 . S
C1235 C1236 1.398 . S
C1236 H1224 0.950 . S
C1236 C1235 1.398 . S
C1236 C1237 1.391 . S
C1237 H1225 0.950 . S
C1237 C1233 1.393 . S
C1237 C1236 1.391 . S
H1238 C1246 0.950 . S
H1239 C1251 0.950 . S
H1240 C1248 0.950 . S
H1241 C1250 0.950 . S
H1242 C1252 0.950 . S
H1243 C1254 0.950 . S
H1244 C1256 0.950 . S
H1245 C1257 0.950 . S
C1246 H1238 0.950 . S
C1246 C1247 1.386 . S
C1246 C1248 1.391 . S
C1247 C1246 1.386 . S
C1247 C1251 1.393 . S
C1248 H1240 0.950 . S
C1248 C1246 1.391 . S
C1248 C1249 1.400 . S
C1249 C1248 1.400 . S
C1249 C1250 1.398 . S
C1249 C1255 1.491 . S
C1250 H1241 0.950 . S
C1250 C1249 1.398 . S
C1250 C1251 1.391 . S
C1251 H1239 0.950 . S
C1251 C1247 1.393 . S
C1251 C1250 1.391 . S
C1252 H1242 0.950 . S
C1252 C1253 1.386 . S
C1252 C1254 1.391 . S
C1253 C1252 1.386 . S
C1253 C1257 1.393 . S
C1254 H1243 0.950 . S
C1254 C1252 1.391 . S
C1254 C1255 1.400 . S
C1255 C1249 1.491 . S
C1255 C1254 1.400 . S
C1255 C1256 1.398 . S
C1256 H1244 0.950 . S
C1256 C1255 1.398 . S
C1256 C1257 1.391 . S
C1257 H1245 0.950 . S
C1257 C1253 1.393 . S
C1257 C1256 1.391 . S
H1258 C1266 0.950 . S
H1259 C1271 0.950 . S
H1260 C1268 0.950 . S
H1261 C1270 0.950 . S
H1262 C1272 0.950 . S
H1263 C1274 0.950 . S
H1264 C1276 0.950 . S
H1265 C1277 0.950 . S
C1266 H1258 0.950 . S
C1266 C1267 1.386 . S
C1266 C1268 1.391 . S
C1267 C1266 1.386 . S
C1267 C1271 1.393 . S
C1268 H1260 0.950 . S
C1268 C1266 1.391 . S
C1268 C1269 1.400 . S
C1269 C1268 1.400 . S
C1269 C1270 1.398 . S
C1269 C1275 1.491 . S
C1270 H1261 0.950 . S
C1270 C1269 1.398 . S
C1270 C1271 1.391 . S
C1271 H1259 0.950 . S
C1271 C1267 1.393 . S
C1271 C1270 1.391 . S
C1272 H1262 0.950 . S
C1272 C1273 1.386 . S
C1272 C1274 1.391 . S
C1273 C1272 1.386 . S
C1273 C1277 1.393 . S
C1274 H1263 0.950 . S
C1274 C1272 1.391 . S
C1274 C1275 1.400 . S
C1275 C1269 1.491 . S
C1275 C1274 1.400 . S
C1275 C1276 1.398 . S
C1276 H1264 0.950 . S
C1276 C1275 1.398 . S
C1276 C1277 1.391 . S
C1277 H1265 0.950 . S
C1277 C1273 1.393 . S
C1277 C1276 1.391 . S
H1278 C1286 0.950 . S
H1279 C1291 0.950 . S
H1280 C1288 0.950 . S
H1281 C1290 0.950 . S
H1282 C1292 0.950 . S
H1283 C1294 0.950 . S
H1284 C1296 0.950 . S
H1285 C1297 0.950 . S
C1286 H1278 0.950 . S
C1286 C1287 1.386 . S
C1286 C1288 1.391 . S
C1287 C1286 1.386 . S
C1287 C1291 1.393 . S
C1288 H1280 0.950 . S
C1288 C1286 1.391 . S
C1288 C1289 1.400 . S
C1289 C1288 1.400 . S
C1289 C1290 1.398 . S
C1289 C1295 1.491 . S
C1290 H1281 0.950 . S
C1290 C1289 1.398 . S
C1290 C1291 1.391 . S
C1291 H1279 0.950 . S
C1291 C1287 1.393 . S
C1291 C1290 1.391 . S
C1292 H1282 0.950 . S
C1292 C1293 1.386 . S
C1292 C1294 1.391 . S
C1293 C1292 1.386 . S
C1293 C1297 1.393 . S
C1294 H1283 0.950 . S
C1294 C1292 1.391 . S
C1294 C1295 1.400 . S
C1295 C1289 1.491 . S
C1295 C1294 1.400 . S
C1295 C1296 1.398 . S
C1296 H1284 0.950 . S
C1296 C1295 1.398 . S
C1296 C1297 1.391 . S
C1297 H1285 0.950 . S
C1297 C1293 1.393 . S
C1297 C1296 1.391 . S
H1298 C1306 0.950 . S
H1299 C1311 0.950 . S
H1300 C1308 0.950 . S
H1301 C1310 0.950 . S
H1302 C1312 0.950 . S
H1303 C1314 0.950 . S
H1304 C1316 0.950 . S
H1305 C1317 0.950 . S
C1306 H1298 0.950 . S
C1306 C1307 1.386 . S
C1306 C1308 1.391 . S
C1307 C1306 1.386 . S
C1307 C1311 1.393 . S
C1308 H1300 0.950 . S
C1308 C1306 1.391 . S
C1308 C1309 1.400 . S
C1309 C1308 1.400 . S
C1309 C1310 1.398 . S
C1309 C1315 1.491 . S
C1310 H1301 0.950 . S
C1310 C1309 1.398 . S
C1310 C1311 1.391 . S
C1311 H1299 0.950 . S
C1311 C1307 1.393 . S
C1311 C1310 1.391 . S
C1312 H1302 0.950 . S
C1312 C1313 1.386 . S
C1312 C1314 1.391 . S
C1313 C1312 1.386 . S
C1313 C1317 1.393 . S
C1314 H1303 0.950 . S
C1314 C1312 1.391 . S
C1314 C1315 1.400 . S
C1315 C1309 1.491 . S
C1315 C1314 1.400 . S
C1315 C1316 1.398 . S
C1316 H1304 0.950 . S
C1316 C1315 1.398 . S
C1316 C1317 1.391 . S
C1317 H1305 0.950 . S
C1317 C1313 1.393 . S
C1317 C1316 1.391 . S
C373 C187 1.613 . S
C367 C9 1.700 . S
C393 C188 2.247 . S
C387 C28 2.233 . S
C413 C182 1.139 . S
C407 C49 1.168 . S
C427 C79 1.646 . S
C433 C181 1.705 . S
C447 C99 2.243 . S
C453 C184 2.231 . S
C473 C186 1.141 . S
C467 C101 1.160 . S
C487 C128 1.668 . S
C493 C185 1.710 . S
C507 C141 1.694 . S
C513 C183 1.602 . S
C533 C218 1.259 . S
C527 C16 1.237 . S
C547 C26 1.209 . S
C553 C249 1.232 . S
C573 C217 1.108 . S
C567 C56 1.143 . S
C593 C252 1.078 . S
C587 C69 1.050 . S
C607 C89 1.271 . S
C613 C215 1.281 . S
C633 C247 2.012 . S
C627 C108 1.972 . S
C647 C126 1.030 . S
C653 C220 1.057 . S
C667 C148 1.925 . S
C673 C254 1.872 . S
C687 C19 1.929 . S
C693 C250 1.872 . S
C707 C96 1.196 . S
C713 C253 1.244 . S
C733 C221 1.121 . S
C727 C106 1.149 . S
C753 C248 1.062 . S
C747 C121 1.071 . S
C767 C146 1.239 . S
C773 C214 1.261 . S
C787 C59 1.961 . S
C793 C251 2.016 . S
C813 C216 1.093 . S
C807 C76 1.028 . S
C827 C21 1.297 . S
C833 C219 1.289 . S
C847 C149 1.668 . S
C853 C286 1.563 . S
C867 C88 1.847 . S
C873 C287 1.802 . S
C893 C281 1.115 . S
C887 C109 1.124 . S
C913 C280 2.101 . S
C907 C139 2.003 . S
C927 C39 1.833 . S
C933 C283 1.810 . S
C953 C285 1.121 . S
C947 C41 1.116 . S
C967 C68 2.015 . S
C973 C284 2.099 . S
C987 C1 1.659 . S
C993 C282 1.581 . S
C1007 C156 1.322 . S
C1013 C320 1.274 . S
C1033 C352 1.048 . S
C1027 C86 1.043 . S
C1047 C116 1.063 . S
C1053 C313 1.068 . S
C1067 C129 1.320 . S
C1073 C347 1.323 . S
C1093 C318 1.138 . S
C1087 C29 1.093 . S
C1107 C48 2.144 . S
C1113 C349 2.096 . S
C1133 C315 1.309 . S
C1127 C66 1.253 . S
C1153 C350 1.897 . S
C1147 C8 1.871 . S
C1173 C346 1.892 . S
C1167 C159 1.860 . S
C1187 C36 1.008 . S
C1193 C348 1.063 . S
C1207 C46 1.063 . S
C1213 C317 1.070 . S
C1233 C351 1.318 . S
C1227 C61 1.309 . S
C1247 C6 1.339 . S
C1253 C316 1.294 . S
C1267 C119 2.145 . S
C1273 C353 2.101 . S
C1293 C319 1.325 . S
C1287 C136 1.235 . S
C1313 C314 1.138 . S
C1307 C81 1.090 . S
