# Generated by pormake.
# Topology zzz, (3,6)-cn, num edge types: 1
# Building blocks:
#     Node 0, Type 0, BuildingBlock: WUSLED_clean_sbu_0, # of connection points: 3
#     Node 1, Type 0, BuildingBlock: WUSLED_clean_sbu_0, # of connection points: 3
#     Node 2, Type 0, BuildingBlock: WUSLED_clean_sbu_0, # of connection points: 3
#     Node 3, Type 0, BuildingBlock: WUSLED_clean_sbu_0, # of connection points: 3
#     Node 4, Type 0, BuildingBlock: WUSLED_clean_sbu_0, # of connection points: 3
#     Node 5, Type 0, BuildingBlock: WUSLED_clean_sbu_0, # of connection points: 3
#     Node 6, Type 0, BuildingBlock: WUSLED_clean_sbu_0, # of connection points: 3
#     Node 7, Type 0, BuildingBlock: WUSLED_clean_sbu_0, # of connection points: 3
#     Node 8, Type 1, BuildingBlock: BETDAH_clean_sbu_0, # of connection points: 6
#     Node 9, Type 1, BuildingBlock: BETDAH_clean_sbu_0, # of connection points: 6
#     Node 10, Type 1, BuildingBlock: BETDAH_clean_sbu_0, # of connection points: 6
#     Node 11, Type 1, BuildingBlock: BETDAH_clean_sbu_0, # of connection points: 6
#     Edge 12, Type (0, 1), BuildingBlock: CIFDUS_clean_linker_0, # of connection points: 2
#     Edge 13, Type (0, 1), BuildingBlock: CIFDUS_clean_linker_0, # of connection points: 2
#     Edge 14, Type (0, 1), BuildingBlock: CIFDUS_clean_linker_0, # of connection points: 2
#     Edge 15, Type (0, 1), BuildingBlock: CIFDUS_clean_linker_0, # of connection points: 2
#     Edge 16, Type (0, 1), BuildingBlock: CIFDUS_clean_linker_0, # of connection points: 2
#     Edge 17, Type (0, 1), BuildingBlock: CIFDUS_clean_linker_0, # of connection points: 2
#     Edge 18, Type (0, 1), BuildingBlock: CIFDUS_clean_linker_0, # of connection points: 2
#     Edge 19, Type (0, 1), BuildingBlock: CIFDUS_clean_linker_0, # of connection points: 2
#     Edge 20, Type (0, 1), BuildingBlock: CIFDUS_clean_linker_0, # of connection points: 2
#     Edge 21, Type (0, 1), BuildingBlock: CIFDUS_clean_linker_0, # of connection points: 2
#     Edge 22, Type (0, 1), BuildingBlock: CIFDUS_clean_linker_0, # of connection points: 2
#     Edge 23, Type (0, 1), BuildingBlock: CIFDUS_clean_linker_0, # of connection points: 2
#     Edge 24, Type (0, 1), BuildingBlock: CIFDUS_clean_linker_0, # of connection points: 2
#     Edge 25, Type (0, 1), BuildingBlock: CIFDUS_clean_linker_0, # of connection points: 2
#     Edge 26, Type (0, 1), BuildingBlock: CIFDUS_clean_linker_0, # of connection points: 2
#     Edge 27, Type (0, 1), BuildingBlock: CIFDUS_clean_linker_0, # of connection points: 2
#     Edge 28, Type (0, 1), BuildingBlock: CIFDUS_clean_linker_0, # of connection points: 2
#     Edge 29, Type (0, 1), BuildingBlock: CIFDUS_clean_linker_0, # of connection points: 2
#     Edge 30, Type (0, 1), BuildingBlock: CIFDUS_clean_linker_0, # of connection points: 2
#     Edge 31, Type (0, 1), BuildingBlock: CIFDUS_clean_linker_0, # of connection points: 2
#     Edge 32, Type (0, 1), BuildingBlock: CIFDUS_clean_linker_0, # of connection points: 2
#     Edge 33, Type (0, 1), BuildingBlock: CIFDUS_clean_linker_0, # of connection points: 2
#     Edge 34, Type (0, 1), BuildingBlock: CIFDUS_clean_linker_0, # of connection points: 2
#     Edge 35, Type (0, 1), BuildingBlock: CIFDUS_clean_linker_0, # of connection points: 2
# Relax obj value: 0.430
# Max RMSD: 0.266
# Mean RMSD: 0.250
data_MOF--net-zzz--node1-WUSLED_clean_sbu_0--node2-BETDAH_clean_sbu_0--edge1-CIFDUS_clean_linker_0
_symmetry_space_group_name_H-M    P1
_symmetry_Int_Tables_number       1
_symmetry_cell_setting            triclinic
loop_
_symmetry_equiv_pos_as_xyz
'x, y, z'
_cell_length_a     57.244696
_cell_length_b     57.1915
_cell_length_c     17.28103
_cell_angle_alpha  89.999823
_cell_angle_beta   90.112621
_cell_angle_gamma 89.691882
loop_
_atom_site_label
_atom_site_type_symbol
_atom_site_fract_x
_atom_site_fract_y
_atom_site_fract_z
_atom_type_partial_charge
C0 C 0.78562 0.53835 0.53929 0.0
C1 C 0.79976 0.51892 0.52092 0.0
C2 C 0.83253 0.53529 0.59424 0.0
C3 C 0.82299 0.51753 0.54737 0.0
C4 C 0.81817 0.5545 0.61337 0.0
C5 C 0.7951 0.55604 0.58596 0.0
U6 U 0.73752 0.53162 0.38299 0.0
O7 O 0.70037 0.52142 0.39038 0.0
O8 O 0.70972 0.55655 0.35126 0.0
C9 C 0.69296 0.54112 0.35934 0.0
C10 C 0.7611 0.54073 0.51082 0.0
C11 C 0.67679 0.53904 0.29242 0.0
C12 C 0.63714 0.54029 0.23995 0.0
C13 C 0.65252 0.54063 0.30347 0.0
C14 C 0.67006 0.53632 0.15334 0.0
C15 C 0.64572 0.53852 0.1638 0.0
C16 C 0.68538 0.53654 0.21681 0.0
C17 C 0.78679 0.5064 0.26712 0.0
C18 C 0.81838 0.48512 0.2058 0.0
C19 C 0.82647 0.51094 0.3138 0.0
C20 C 0.80279 0.51644 0.31868 0.0
C21 C 0.83461 0.4956 0.25622 0.0
C22 C 0.7946 0.49044 0.21147 0.0
C23 C 0.76203 0.51265 0.27169 0.0
O24 O 0.75761 0.55616 0.45557 0.0
O25 O 0.74924 0.52135 0.49998 0.0
O26 O 0.7499 0.50027 0.32131 0.0
O27 O 0.75778 0.53523 0.27605 0.0
H28 H 0.79293 0.50488 0.48562 0.0
H29 H 0.83341 0.50239 0.5319 0.0
H30 H 0.82489 0.56863 0.64854 0.0
H31 H 0.78463 0.57118 0.60119 0.0
H32 H 0.61858 0.54216 0.25039 0.0
H33 H 0.64547 0.5426 0.36125 0.0
H34 H 0.67734 0.53451 0.09583 0.0
H35 H 0.70401 0.53513 0.20671 0.0
H36 H 0.82412 0.47352 0.16 0.0
H37 H 0.83847 0.5191 0.35404 0.0
H38 H 0.79697 0.52891 0.36173 0.0
H39 H 0.78241 0.48251 0.17139 0.0
C40 C 1.00917 0.79468 0.4716 0.0
C41 C 1.00642 0.81476 0.42518 0.0
C42 C 1.0154 0.8403 0.53498 0.0
C43 C 1.00945 0.83721 0.45646 0.0
C44 C 1.01888 0.82018 0.58067 0.0
C45 C 1.01569 0.79772 0.54949 0.0
U46 U 1.0177 0.74189 0.33237 0.0
O47 O 1.01632 0.7037 0.35166 0.0
O48 O 0.99034 0.72076 0.2772 0.0
C49 C 0.99901 0.70084 0.30237 0.0
C50 C 1.00358 0.77078 0.44196 0.0
C51 C 1.00219 0.68253 0.24247 0.0
C52 C 0.99165 0.64443 0.18989 0.0
C53 C 0.99007 0.66136 0.24851 0.0
C54 C 1.0178 0.66949 0.11842 0.0
C55 C 1.00537 0.64831 0.12351 0.0
C56 C 1.01622 0.68639 0.17719 0.0
C57 C 0.06369 0.77974 0.24294 0.0
C58 C 0.08385 0.809 0.16755 0.0
C59 C 0.06719 0.81928 0.29201 0.0
C60 C 0.05982 0.79625 0.30161 0.0
C61 C 0.07847 0.82607 0.22347 0.0
C62 C 0.07642 0.78598 0.17717 0.0
C63 C 0.05155 0.75732 0.24489 0.0
O64 O 0.99376 0.76947 0.37324 0.0
O65 O 1.01923 0.75422 0.45373 0.0
O66 O 0.05526 0.74444 0.30677 0.0
O67 O 0.0294 0.75881 0.22549 0.0
H68 H 1.00152 0.81321 0.36485 0.0
H69 H 1.00701 0.85223 0.41905 0.0
H70 H 0.02331 0.8218 0.64138 0.0
H71 H 1.01779 0.78266 0.58696 0.0
H72 H 0.98161 0.62854 0.19578 0.0
H73 H 0.97901 0.65805 0.2981 0.0
H74 H 0.02883 0.67303 0.06901 0.0
H75 H 0.02575 0.70261 0.17123 0.0
H76 H 0.09225 0.81376 0.11372 0.0
H77 H 0.06297 0.83203 0.33626 0.0
H78 H 0.04994 0.79165 0.35274 0.0
H79 H 0.07937 0.77342 0.1312 0.0
C80 C 0.73905 1.00635 0.47535 0.0
C81 C 0.7215 1.01415 0.42451 0.0
C82 C 0.69181 1.00968 0.52537 0.0
C83 C 0.69822 1.01592 0.44929 0.0
C84 C 0.70962 1.00253 0.57669 0.0
C85 C 0.73294 1.0009 0.5519 0.0
U86 U 0.79142 1.01799 0.33941 0.0
O87 O 0.82943 1.01892 0.36112 0.0
O88 O 0.81472 0.99172 0.28682 0.0
C89 C 0.8338 1.00193 0.31178 0.0
C90 C 0.7634 1.00232 0.44855 0.0
C91 C 0.85122 1.00696 0.25081 0.0
C92 C 0.86313 0.0293 0.13782 0.0
C93 C 0.84803 0.02597 0.20052 0.0
C94 C 0.88536 0.99506 0.17574 0.0
C95 C 0.88171 1.01361 0.12341 0.0
C96 C 0.87021 0.99174 0.23865 0.0
C97 C 0.75248 0.06302 0.23882 0.0
C98 C 0.7236 0.08004 0.15275 0.0
C99 C 0.71445 0.07445 0.2884 0.0
C100 C 0.73686 0.06534 0.30086 0.0
C101 C 0.7074 0.08139 0.21373 0.0
C102 C 0.74592 0.07091 0.16527 0.0
C103 C 0.77477 0.0506 0.2477 0.0
O104 O 0.76563 0.99246 0.38023 0.0
O105 O 0.77836 1.01937 0.45982 0.0
O106 O 0.78681 0.05521 0.3107 0.0
O107 O 0.77397 0.0282 0.2312 0.0
H108 H 0.72568 1.01836 0.36506 0.0
H109 H 0.68519 0.02193 0.40827 0.0
H110 H 0.70548 0.99734 0.6353 0.0
H111 H 0.74613 0.99473 0.59214 0.0
H112 H 0.85996 0.04401 0.09965 0.0
H113 H 0.83348 0.03791 0.20859 0.0
H114 H 0.89932 0.98254 0.16628 0.0
H115 H 0.87291 0.97686 0.2765 0.0
H116 H 0.71866 0.08483 0.09431 0.0
H117 H 0.70244 0.07544 0.33665 0.0
H118 H 0.74171 0.05941 0.35824 0.0
H119 H 0.75777 0.06913 0.11674 0.0
C120 C 0.51055 0.74894 0.52809 0.0
C121 C 0.50033 0.73084 0.48454 0.0
C122 C 0.51135 0.70177 0.58278 0.0
C123 C 0.50084 0.70758 0.5113 0.0
C124 C 0.5218 0.71993 0.62552 0.0
C125 C 0.5214 0.7431 0.59857 0.0
U126 U 0.51751 0.80079 0.38304 0.0
O127 O 0.53028 0.83668 0.40172 0.0
O128 O 0.49411 0.8311 0.3648 0.0
C129 C 0.5109 0.84636 0.37554 0.0
C130 C 0.50901 0.77407 0.50438 0.0
C131 C 0.51346 0.8642 0.3135 0.0
C132 C 0.49965 0.89998 0.25079 0.0
C133 C 0.49817 0.88347 0.31073 0.0
C134 C 0.53206 0.87848 0.19567 0.0
C135 C 0.51653 0.89771 0.19186 0.0
C136 C 0.53046 0.8619 0.2554 0.0
C137 C 0.53643 0.75474 0.24042 0.0
C138 C 0.53988 0.72442 0.14351 0.0
C139 C 0.53341 0.71405 0.27793 0.0
C140 C 0.53376 0.73767 0.2979 0.0
C141 C 0.53592 0.70728 0.20025 0.0
C142 C 0.54002 0.74805 0.16351 0.0
C143 C 0.53261 0.77935 0.25893 0.0
O144 O 0.52886 0.78511 0.49405 0.0
O145 O 0.49309 0.77982 0.45267 0.0
O146 O 0.51057 0.78482 0.27011 0.0
O147 O 0.5467 0.78822 0.31128 0.0
H148 H 0.49169 0.73465 0.43014 0.0
H149 H 0.49243 0.69424 0.47679 0.0
H150 H 0.53041 0.71626 0.68005 0.0
H151 H 0.52936 0.75661 0.63363 0.0
H152 H 0.48712 0.91423 0.24978 0.0
H153 H 0.48481 0.88559 0.35452 0.0
H154 H 0.54556 0.87618 0.15254 0.0
H155 H 0.54245 0.84718 0.25581 0.0
H156 H 0.54159 0.71966 0.0831 0.0
H157 H 0.53049 0.70114 0.32273 0.0
H158 H 0.53102 0.7427 0.35758 0.0
H159 H 0.5419 0.76111 0.11854 0.0
C160 C 0.24798 0.52186 0.94377 0.0
C161 C 0.23702 0.5 0.9359 0.0
C162 C 0.2005 0.5188 0.89535 0.0
C163 C 0.21349 0.49853 0.91322 0.0
C164 C 0.21164 0.5406 0.90114 0.0
C165 C 0.23501 0.5421 0.92552 0.0
U166 U 0.29978 0.51171 0.08593 0.0
O167 O 0.32703 0.5367 0.12003 0.0
O168 O 0.33702 0.50376 0.06426 0.0
C169 C 0.34426 0.52274 0.09971 0.0
C170 C 0.27291 0.5241 0.9683 0.0
C171 C 0.36307 0.51961 0.15804 0.0
C172 C 0.40404 0.52373 0.19422 0.0
C173 C 0.38616 0.52527 0.13879 0.0
C174 C 0.37609 0.51047 0.28915 0.0
C175 C 0.39928 0.51652 0.27056 0.0
C176 C 0.3582 0.512 0.23355 0.0
C177 C 0.25462 0.48084 0.20471 0.0
C178 C 0.22101 0.47523 0.28751 0.0
C179 C 0.21611 0.47592 0.14813 0.0
C180 C 0.24012 0.47899 0.13955 0.0
C181 C 0.20622 0.47466 0.22233 0.0
C182 C 0.24505 0.47838 0.27869 0.0
C183 C 0.27897 0.48819 0.19579 0.0
O184 O 0.27692 0.53765 0.02825 0.0
O185 O 0.28584 0.50499 0.96889 0.0
O186 O 0.29057 0.47808 0.1392 0.0
O187 O 0.2819 0.51094 0.19832 0.0
H188 H 0.24658 0.48398 0.94715 0.0
H189 H 0.20553 0.48145 0.90851 0.0
H190 H 0.20214 0.55655 0.88813 0.0
H191 H 0.24301 0.55917 0.92997 0.0
H192 H 0.42165 0.52821 0.17708 0.0
H193 H 0.39034 0.53116 0.08088 0.0
H194 H 0.37159 0.50513 0.34733 0.0
H195 H 0.34049 0.50761 0.24986 0.0
H196 H 0.21387 0.47466 0.34547 0.0
H197 H 0.2052 0.47538 0.09688 0.0
H198 H 0.24731 0.4809 0.08221 0.0
H199 H 0.25599 0.47999 0.32965 0.0
C200 C 0.02657 0.25139 0.94526 0.0
C201 C 0.04739 0.23816 0.9444 0.0
C202 C 0.0263 0.20336 0.90155 0.0
C203 C 0.04718 0.21437 0.92405 0.0
C204 C 1.00564 0.21677 0.90001 0.0
C205 C 1.00576 0.24041 0.92203 0.0
U206 U 0.03637 0.30179 0.09179 0.0
O207 O 0.04906 0.33803 0.07751 0.0
O208 O 1.01315 0.33166 0.11546 0.0
C209 C 0.02975 0.34719 0.1058 0.0
C210 C 0.02605 0.27657 0.96851 0.0
C211 C 0.03247 0.36476 0.16877 0.0
C212 C 0.04428 0.40375 0.21093 0.0
C213 C 0.04281 0.38649 0.15322 0.0
C214 C 0.02524 0.37779 0.30113 0.0
C215 C 0.03519 0.39974 0.28538 0.0
C216 C 0.02398 0.3605 0.24379 0.0
C217 C 0.05773 0.25317 0.21937 0.0
C218 C 0.0602 0.21913 0.30228 0.0
C219 C 0.06045 0.21442 0.1628 0.0
C220 C 0.05904 0.23863 0.15425 0.0
C221 C 0.0605 0.20439 0.23696 0.0
C222 C 0.05876 0.24338 0.29346 0.0
C223 C 0.05305 0.27818 0.20954 0.0
O224 O 1.01071 0.2823 0.02183 0.0
O225 O 0.04619 0.28723 0.97795 0.0
O226 O 0.06641 0.28879 0.15884 0.0
O227 O 0.03081 0.2835 0.20205 0.0
H228 H 0.06387 0.24608 0.96005 0.0
H229 H 0.06346 0.20464 0.92502 0.0
H230 H 0.98925 0.20885 0.88323 0.0
H231 H 0.98949 0.25016 0.92103 0.0
H232 H 0.05196 0.42047 0.19664 0.0
H233 H 0.04946 0.39027 0.09593 0.0
H234 H 1.01841 0.37393 0.3581 0.0
H235 H 1.01608 0.34389 0.25808 0.0
H236 H 0.05983 0.2119 0.36019 0.0
H237 H 0.06079 0.20355 0.11147 0.0
H238 H 0.05819 0.24605 0.09691 0.0
H239 H 0.05756 0.2544 0.34432 0.0
C240 C 0.28175 0.031 0.93323 0.0
C241 C 0.29785 0.02836 0.99407 0.0
C242 C 0.33045 0.02612 0.9025 0.0
C243 C 0.32181 0.02574 0.97898 0.0
C244 C 0.31413 0.02858 0.84168 0.0
C245 C 0.29011 0.03091 0.85692 0.0
U246 U 0.22849 0.02489 0.06537 0.0
O247 O 0.19129 1.01676 0.04396 0.0
O248 O 0.20117 0.05082 0.09174 0.0
C249 C 0.18403 0.03629 0.07645 0.0
C250 C 0.25644 0.03459 0.94876 0.0
C251 C 0.16593 0.03401 0.13755 0.0
C252 C 0.12539 0.02705 0.17429 0.0
C253 C 0.14282 0.02848 0.1174 0.0
C254 C 0.15389 0.03664 0.27269 0.0
C255 C 0.13065 0.03134 0.2527 0.0
C256 C 0.17131 0.03786 0.21596 0.0
C257 C 0.2736 0.996 0.19007 0.0
C258 C 0.3096 0.99945 0.26281 0.0
C259 C 0.31017 0.98217 0.13474 0.0
C260 C 0.28602 0.98528 0.12934 0.0
C261 C 0.32224 0.98984 0.20067 0.0
C262 C 0.28548 1.00251 0.2575 0.0
C263 C 0.24914 1.00332 0.18 0.0
O264 O 0.24352 1.01565 0.95148 0.0
O265 O 0.25141 0.0495 1.00423 0.0
O266 O 0.24602 0.0261 0.17852 0.0
O267 O 0.23727 0.99224 0.12619 0.0
H268 H 0.29192 0.0286 0.0535 0.0
H269 H 0.33355 0.02346 0.02764 0.0
H270 H 0.31991 0.02933 0.78214 0.0
H271 H 0.27808 0.03307 0.80895 0.0
H272 H 0.10771 0.023 0.15666 0.0
H273 H 0.1382 0.02543 0.05743 0.0
H274 H 0.1587 0.03961 0.33251 0.0
H275 H 0.18901 0.04193 0.23354 0.0
H276 H 0.31845 1.00502 0.31508 0.0
H277 H 0.31952 0.97475 0.08604 0.0
H278 H 0.2773 0.98036 0.07614 0.0
H279 H 0.27623 1.0108 0.30486 0.0
C280 C 0.5038 0.2868 0.96655 0.0
C281 C 0.5029 0.30413 0.02406 0.0
C282 C 0.50571 0.33528 0.92665 0.0
C283 C 0.5041 0.32795 1.0046 0.0
C284 C 0.50668 0.31774 0.86924 0.0
C285 C 0.50584 0.29388 0.88901 0.0
U286 U 0.51098 0.23566 0.10975 0.0
O287 O 0.52342 0.19929 0.09549 0.0
O288 O 0.48762 0.20604 0.13391 0.0
C289 C 0.5042 0.19031 0.12436 0.0
C290 C 0.50211 0.26146 0.9863 0.0
C291 C 0.50745 0.17373 0.18972 0.0
C292 C 0.50711 0.13393 0.24133 0.0
C293 C 0.50412 0.14961 0.17925 0.0
C294 C 0.51668 0.16633 0.32534 0.0
C295 C 0.51358 0.14205 0.31533 0.0
C296 C 0.5137 0.18192 0.26342 0.0
C297 C 0.53149 0.284 0.23928 0.0
C298 C 0.52489 0.31907 0.31462 0.0
C299 C 0.54169 0.32194 0.18629 0.0
C300 C 0.54078 0.29765 0.17921 0.0
C301 C 0.53329 0.33289 0.25348 0.0
C302 C 0.52396 0.29483 0.30746 0.0
C303 C 0.52697 0.25902 0.22827 0.0
O304 O 0.52198 0.25024 0.99701 0.0
O305 O 0.48625 0.25587 0.03793 0.0
O306 O 0.50477 0.2539 0.21966 0.0
O307 O 0.54068 0.24808 0.17898 0.0
H308 H 0.50106 0.29924 0.08423 0.0
H309 H 0.50379 0.3406 0.05117 0.0
H310 H 0.50754 0.32236 0.80859 0.0
H311 H 0.50642 0.2809 0.84336 0.0
H312 H 0.50478 0.11541 0.23095 0.0
H313 H 0.49928 0.14286 0.12292 0.0
H314 H 0.52125 0.17339 0.38146 0.0
H315 H 0.51625 0.20045 0.27314 0.0
H316 H 0.51882 0.32702 0.36786 0.0
H317 H 0.54819 0.33217 0.13827 0.0
H318 H 0.54645 0.28966 0.12553 0.0
H319 H 0.51671 0.28457 0.35427 0.0
Ho320 Ho 0.03023 1.01926 0.76258 0.0
Ho321 Ho 0.99435 0.02978 0.63049 0.0
C322 C 1.00791 0.9758 0.66334 0.0
C323 C 0.05374 1.00733 0.8842 0.0
C324 C 0.05491 0.98826 0.94037 0.0
C325 C 0.0366 0.97223 0.94699 0.0
C326 C 0.03813 0.95402 1.00055 0.0
C327 C 0.05803 0.95155 0.04782 0.0
C328 C 0.07622 0.96783 0.04139 0.0
C329 C 0.07461 0.98611 0.98809 0.0
C330 C 0.04879 0.03598 0.62878 0.0
C331 C 1.01394 0.07209 0.736 0.0
C332 C 0.97731 0.03985 0.49595 0.0
C333 C 0.98687 0.05157 0.4275 0.0
C334 C 1.01032 0.0483 0.40641 0.0
C335 C 0.02064 0.06292 0.35181 0.0
C336 C 1.00759 0.08103 0.31746 0.0
C337 C 0.9836 0.08298 0.33398 0.0
C338 C 0.97334 0.06837 0.38883 0.0
C339 C 0.97092 0.02158 0.76565 0.0
O340 O 0.0206 0.98226 0.72433 0.0
O341 O 0.99709 0.99108 0.61824 0.0
O342 O 0.06035 1.00224 0.81367 0.0
O343 O 0.0348 0.02024 0.88631 0.0
O344 O 0.0564 0.04094 0.69741 0.0
O345 O 0.03221 0.02165 0.63453 0.0
O346 O 1.00734 0.06562 0.66557 0.0
O347 O 0.02031 0.05652 0.78864 0.0
O348 O 0.97471 0.05327 0.55667 0.0
O349 O 0.98632 1.01944 0.51321 0.0
O350 O 0.96084 0.02629 0.70025 0.0
O351 O 0.99255 0.02132 0.75357 0.0
H352 H 0.02129 0.97368 0.91031 0.0
H353 H 0.02402 0.94151 1.0035 0.0
H354 H 0.09167 0.96637 0.07741 0.0
H355 H 0.08883 0.99848 0.98374 0.0
H356 H 0.02095 0.03526 0.43503 0.0
H357 H 0.03911 0.06089 0.33968 0.0
H358 H 0.97315 0.09693 0.3091 0.0
H359 H 0.95521 0.07114 0.40444 0.0
Ho360 Ho 0.51739 0.02777 0.80591 0.0
Ho361 Ho 0.50916 0.99534 0.66054 0.0
C362 C 0.56208 1.01149 0.70777 0.0
C363 C 0.52017 0.04628 0.94204 0.0
C364 C 0.53866 0.05736 0.98745 0.0
C365 C 0.5599 0.06323 0.95252 0.0
C366 C 0.57871 0.07052 0.99782 0.0
C367 C 0.57659 0.07189 0.07882 0.0
C368 C 0.5549 0.06702 0.11314 0.0
C369 C 0.53606 0.05979 0.06765 0.0
C370 C 0.51581 0.04945 0.66661 0.0
C371 C 0.46414 1.01177 0.75924 0.0
C372 C 0.50378 0.981 0.52013 0.0
C373 C 0.48739 0.98478 0.45544 0.0
C374 C 0.48671 1.00591 0.41392 0.0
C375 C 0.46919 1.00989 0.35896 0.0
C376 C 0.45213 0.99281 0.34457 0.0
C377 C 0.45397 0.97109 0.38237 0.0
C378 C 0.47149 0.96709 0.43675 0.0
C379 C 0.51851 0.96881 0.78927 0.0
O380 O 0.55479 1.01882 0.77661 0.0
O381 O 0.54744 1.00411 0.65362 0.0
O382 O 0.51281 0.05773 0.881 0.0
O383 O 0.52354 0.02402 0.92835 0.0
O384 O 0.52908 0.05591 0.72381 0.0
O385 O 0.50308 0.03256 0.68768 0.0
O386 O 0.47174 1.00307 0.69261 0.0
O387 O 0.47854 0.0205 0.81206 0.0
O388 O 0.49513 0.97022 0.58049 0.0
O389 O 0.51756 0.99836 0.53907 0.0
O390 O 0.51493 0.96035 0.72084 0.0
O391 O 0.51748 0.99067 0.78281 0.0
H392 H 0.56225 0.06118 0.89066 0.0
H393 H 0.59528 0.07376 0.96976 0.0
H394 H 0.55275 0.06805 0.17531 0.0
H395 H 0.51975 0.05521 0.09539 0.0
H396 H 0.49919 1.01962 0.42545 0.0
H397 H 0.46854 0.02664 0.32974 0.0
H398 H 0.44105 0.95758 0.37369 0.0
H399 H 0.47195 0.95046 0.4668 0.0
Ho400 Ho 0.4986 0.51976 0.78078 0.0
Ho401 Ho 0.53645 0.51304 0.67828 0.0
C402 C 0.51598 0.56329 0.68012 0.0
C403 C 0.471 0.53375 0.89002 0.0
C404 C 0.4754 0.54971 0.95478 0.0
C405 C 0.49764 0.55039 0.98895 0.0
C406 C 0.50319 0.56784 0.04177 0.0
C407 C 0.48671 0.58519 0.06047 0.0
C408 C 0.46399 0.58372 0.02968 0.0
C409 C 0.45838 0.56606 0.97699 0.0
C410 C 0.48317 0.50327 0.64146 0.0
C411 C 0.51623 0.46784 0.76515 0.0
C412 C 0.56757 0.50179 0.57568 0.0
C413 C 0.56733 0.49049 0.49975 0.0
C414 C 0.5475 0.49168 0.45207 0.0
C415 C 0.54584 0.47727 0.38716 0.0
C416 C 0.56376 0.46113 0.37019 0.0
C417 C 0.58441 0.46154 0.41452 0.0
C418 C 0.58615 0.47614 0.47882 0.0
C419 C 0.55098 0.52875 0.82053 0.0
O420 O 0.50995 0.55711 0.75113 0.0
O421 O 0.52297 0.54691 0.63213 0.0
O422 O 0.47149 0.54335 0.82163 0.0
O423 O 0.4825 0.51404 0.89208 0.0
O424 O 0.47503 0.49738 0.70824 0.0
O425 O 0.49885 0.51844 0.65114 0.0
O426 O 0.52511 0.47553 0.69933 0.0
O427 O 0.50737 0.48289 0.81481 0.0
O428 O 0.56179 0.48836 0.63342 0.0
O429 O 0.55782 0.52236 0.58 0.0
O430 O 0.55902 0.53573 0.75499 0.0
O431 O 0.53573 0.51352 0.80748 0.0
H432 H 0.51111 0.53804 0.97228 0.0
H433 H 0.52073 0.56838 0.06536 0.0
H434 H 0.45101 0.597 0.04262 0.0
H435 H 0.44117 0.56585 0.95078 0.0
H436 H 0.53279 0.50274 0.46736 0.0
H437 H 0.52988 0.4776 0.35341 0.0
H438 H 0.59844 0.4492 0.40379 0.0
H439 H 0.60158 0.47509 0.51513 0.0
Ho440 Ho 1.01519 0.51342 0.77418 0.0
Ho441 Ho 0.02505 0.54013 0.61844 0.0
C442 C 0.97166 0.52845 0.67054 0.0
C443 C 1.01299 0.50056 0.91738 0.0
C444 C 0.99632 0.50374 0.98052 0.0
C445 C 0.98004 0.52212 0.97824 0.0
C446 C 0.96315 0.52412 0.03579 0.0
C447 C 0.96209 0.50759 0.09586 0.0
C448 C 0.9788 0.48954 0.09902 0.0
C449 C 0.99589 0.48769 0.04172 0.0
C450 C 1.01699 0.48664 0.64556 0.0
C451 C 0.06936 0.52509 0.72474 0.0
C452 C 0.03126 0.5481 0.47294 0.0
C453 C 0.04651 0.53893 0.41116 0.0
C454 C 0.04514 0.51556 0.38622 0.0
C455 C 0.06165 0.50659 0.33454 0.0
C456 C 0.07967 0.52084 0.30676 0.0
C457 C 0.07999 0.5446 0.32738 0.0
C458 C 0.06353 0.55356 0.37902 0.0
C459 C 1.01411 0.57119 0.73434 0.0
O460 O 0.97863 0.52577 0.74349 0.0
O461 O 0.98683 0.53093 0.61327 0.0
O462 O 1.00581 0.48757 0.8599 0.0
O463 O 0.02362 0.51947 0.89418 0.0
O464 O 1.00363 0.4826 0.7045 0.0
O465 O 0.03015 0.50387 0.65969 0.0
O466 O 0.06221 0.53403 0.65781 0.0
O467 O 0.05463 0.51621 0.77596 0.0
O468 O 0.04176 0.55991 0.52783 0.0
O469 O 1.01514 0.53404 0.49959 0.0
O470 O 1.01895 0.57723 0.66391 0.0
O471 O 1.01505 0.54929 0.73612 0.0
H472 H 0.97994 0.53449 0.93079 0.0
H473 H 0.9502 0.53794 0.03109 0.0
H474 H 0.9783 0.47658 0.14473 0.0
H475 H 1.00838 0.47339 0.04404 0.0
H476 H 0.03182 0.50401 0.40834 0.0
H477 H 0.06082 0.48835 0.31812 0.0
H478 H 0.09378 0.55596 0.30722 0.0
H479 H 0.06471 0.57172 0.3964 0.0
H480 H 0.12362 0.06107 0.37432 0.0
H481 H 0.09586 0.99882 0.26834 0.0
H482 H 0.06699 0.99552 0.37194 0.0
H483 H 0.05124 1.00889 0.49807 0.0
H484 H 0.07935 0.07102 0.6034 0.0
H485 H 0.10646 0.07568 0.49544 0.0
C486 C 0.11131 0.04672 0.37391 0.0
C487 C 0.11216 0.03009 0.31374 0.0
C488 C 0.09479 0.04487 0.43394 0.0
C489 C 0.09564 1.01194 0.31354 0.0
C490 C 0.07916 1.00997 0.3731 0.0
C491 C 0.06305 0.02364 0.49661 0.0
C492 C 0.06319 0.03968 0.5585 0.0
C493 C 0.07876 0.02614 0.43425 0.0
C494 C 0.07885 0.05849 0.55639 0.0
C495 C 0.0944 0.06114 0.49471 0.0
H496 H 0.48878 0.10245 0.35525 0.0
H497 H 0.5479 0.14404 0.42525 0.0
H498 H 0.55395 0.11897 0.53736 0.0
H499 H 0.54205 0.08596 0.61862 0.0
H500 H 0.48339 0.04371 0.55063 0.0
H501 H 0.47788 0.06788 0.43454 0.0
C502 C 0.50314 0.10591 0.39452 0.0
C503 C 0.51763 0.1255 0.38172 0.0
C504 C 0.50665 0.09122 0.45956 0.0
C505 C 0.53607 0.12958 0.43399 0.0
C506 C 0.53968 0.1151 0.49815 0.0
C507 C 0.5281 0.08196 0.57827 0.0
C508 C 0.51311 0.06307 0.59356 0.0
C509 C 0.52496 0.09604 0.51206 0.0
C510 C 0.49518 0.05813 0.54038 0.0
C511 C 0.492 0.07202 0.47403 0.0
H512 H 0.40618 0.4845 0.38687 0.0
H513 H 0.43527 0.5476 0.29087 0.0
H514 H 0.4652 0.5479 0.39161 0.0
H515 H 0.48182 0.53167 0.513 0.0
H516 H 0.45141 0.46963 0.6114 0.0
H517 H 0.42356 0.46753 0.50439 0.0
C518 C 0.41897 0.49841 0.388 0.0
C519 C 0.41822 0.51604 0.33092 0.0
C520 C 0.43605 0.49869 0.44698 0.0
C521 C 0.43539 0.53361 0.33308 0.0
C522 C 0.45252 0.5339 0.39118 0.0
C523 C 0.46932 0.51752 0.5103 0.0
C524 C 0.46868 0.50084 0.57035 0.0
C525 C 0.4529 0.51668 0.44908 0.0
C526 C 0.45224 0.48271 0.56615 0.0
C527 C 0.43623 0.48154 0.50503 0.0
H528 H 0.99993 0.41243 0.38197 0.0
H529 H 0.07117 0.42925 0.32529 0.0
H530 H 0.07187 0.45858 0.42879 0.0
H531 H 0.05231 0.47881 0.5394 0.0
H532 H 0.98123 0.46064 0.59463 0.0
H533 H 0.98033 0.43293 0.48775 0.0
C534 C 1.01566 0.42245 0.39228 0.0
C535 C 0.03552 0.4184 0.34619 0.0
C536 C 1.01591 0.4393 0.45162 0.0
C537 C 0.05558 0.43197 0.35961 0.0
C538 C 0.05602 0.44873 0.41905 0.0
C539 C 0.03662 0.46891 0.52735 0.0
C540 C 1.01687 0.47175 0.57515 0.0
C541 C 0.03629 0.45253 0.46583 0.0
C542 C 0.9967 0.45871 0.55906 0.0
C543 C 0.99615 0.44281 0.49789 0.0
H544 H 0.92935 1.0076 0.10369 0.0
H545 H 0.8659 0.0239 0.97879 0.0
H546 H 0.88788 0.02763 0.85929 0.0
H547 H 0.92477 0.02636 0.78909 0.0
H548 H 0.98878 1.01012 0.9095 0.0
H549 H 0.96703 1.00605 0.03133 0.0
C550 C 0.92034 1.01188 0.05026 0.0
C551 C 0.89591 1.01573 0.05097 0.0
C552 C 0.9332 1.01396 0.98072 0.0
C553 C 0.88465 0.02134 0.98088 0.0
C554 C 0.8972 0.02331 0.91209 0.0
C555 C 0.93402 0.02189 0.84195 0.0
C556 C 0.95838 1.01858 0.84022 0.0
C557 C 0.92143 1.01972 0.9113 0.0
C558 C 0.97006 1.01283 0.90929 0.0
C559 C 0.95758 1.01049 0.97892 0.0
H560 H 0.52684 0.88896 0.03977 0.0
H561 H 0.50818 0.94539 0.19389 0.0
H562 H 0.50801 0.97273 0.08514 0.0
H563 H 0.51182 0.98046 0.94362 0.0
H564 H 0.53124 0.92357 0.79283 0.0
H565 H 0.53289 0.89694 0.90255 0.0
C566 C 0.52315 0.90729 0.05035 0.0
C567 C 0.51748 0.91485 0.12574 0.0
C568 C 0.52326 0.92303 0.98756 0.0
C569 C 0.51225 0.93875 0.13678 0.0
C570 C 0.5123 0.95453 0.07445 0.0
C571 C 0.51691 0.96239 0.93522 0.0
C572 C 0.52161 0.95415 0.85988 0.0
C573 C 0.51762 0.94688 0.99922 0.0
C574 C 0.52758 0.93046 0.84997 0.0
C575 C 0.52848 0.91513 0.91281 0.0
H576 H 0.60267 0.51794 0.14418 0.0
H577 H 0.65232 0.5624 0.02872 0.0
H578 H 0.62707 0.56429 0.9151 0.0
H579 H 0.59136 0.55257 0.84615 0.0
H580 H 0.54203 0.50726 0.95882 0.0
H581 H 0.56626 0.50692 0.07578 0.0
C582 C 0.60789 0.52821 0.09444 0.0
C583 C 0.6296 0.53983 0.09527 0.0
C584 C 0.59321 0.52919 0.02858 0.0
C585 C 0.63602 0.55289 0.02965 0.0
C586 C 0.62147 0.55413 0.96459 0.0
C587 C 0.5858 0.54276 0.8965 0.0
C588 C 0.56479 0.53006 0.89364 0.0
C589 C 0.60011 0.54222 0.96305 0.0
C590 C 0.55799 0.51735 0.95946 0.0
C591 C 0.57193 0.51704 0.02633 0.0
H592 H 1.00581 0.65612 0.96727 0.0
H593 H 1.00698 0.60027 0.13509 0.0
H594 H 1.00849 0.5714 0.0308 0.0
H595 H 1.01075 0.56197 0.89062 0.0
H596 H 1.01046 0.61818 0.72471 0.0
H597 H 1.00754 0.64677 0.82895 0.0
C598 C 1.00665 0.63766 0.98135 0.0
C599 C 1.00639 0.63056 0.05949 0.0
C600 C 1.00769 0.6211 0.92101 0.0
C601 C 1.00694 0.60641 0.07582 0.0
C602 C 1.00793 0.58981 1.01605 0.0
C603 C 1.0099 0.58042 0.87746 0.0
C604 C 1.01087 0.58783 0.79979 0.0
C605 C 1.00842 0.59693 0.93826 0.0
C606 C 1.00979 0.61192 0.78383 0.0
C607 C 1.00816 0.62834 0.84353 0.0
H608 H 0.0319 0.17547 0.1571 0.0
H609 H 0.08349 0.17606 0.33958 0.0
H610 H 0.07407 0.1356 0.37187 0.0
H611 H 0.0471 0.10283 0.36131 0.0
H612 H 0.99415 0.10286 0.18329 0.0
H613 H 1.00863 0.14026 0.13458 0.0
C614 C 0.04157 0.16654 0.20246 0.0
C615 C 0.05816 0.1788 0.24664 0.0
C616 C 0.03569 0.14351 0.22175 0.0
C617 C 0.07036 0.16707 0.30572 0.0
C618 C 0.06501 0.14397 0.32408 0.0
C619 C 0.0392 0.11061 0.31025 0.0
C620 C 1.01948 0.10025 0.27622 0.0
C621 C 0.0471 0.13237 0.28443 0.0
C622 C 1.00921 0.1107 0.21083 0.0
C623 C 1.01742 0.13208 0.18324 0.0
H624 H 0.35169 0.02377 0.24694 0.0
H625 H 0.3504 0.95288 0.16207 0.0
H626 H 0.39246 0.94915 0.18513 0.0
H627 H 0.42805 0.96427 0.24641 0.0
H628 H 0.42774 0.03396 0.34295 0.0
H629 H 0.38819 0.04023 0.29569 0.0
C630 C 0.36068 1.00754 0.23325 0.0
C631 C 0.34799 0.98844 0.20475 0.0
C632 C 0.3846 1.00537 0.2484 0.0
C633 C 0.35985 0.96776 0.18471 0.0
C634 C 0.38384 0.96561 0.19813 0.0
C635 C 0.4194 0.98091 0.25648 0.0
C636 C 0.43074 0.99842 0.29951 0.0
C637 C 0.39618 0.98402 0.23259 0.0
C638 C 0.41956 0.02016 0.30984 0.0
C639 C 0.39677 0.02368 0.28373 0.0
H640 H 0.56802 0.36293 0.21427 0.0
H641 H 0.49827 0.36053 0.30824 0.0
H642 H 0.50016 0.40201 0.33981 0.0
H643 H 0.52376 0.4366 0.35953 0.0
H644 H 0.59382 0.43956 0.26822 0.0
H645 H 0.58945 0.40019 0.21489 0.0
C646 C 0.55305 0.37165 0.23996 0.0
C647 C 0.53327 0.35863 0.26075 0.0
C648 C 0.55435 0.39547 0.25871 0.0
C649 C 0.51395 0.3701 0.29381 0.0
C650 C 0.51496 0.39381 0.31145 0.0
C651 C 0.53782 0.42912 0.32542 0.0
C652 C 0.55921 0.44089 0.31884 0.0
C653 C 0.5354 0.4064 0.29687 0.0
C654 C 0.5773 0.43066 0.27523 0.0
C655 C 0.57484 0.40815 0.245 0.0
H656 H 0.17571 0.5028 0.14623 0.0
H657 H 0.1793 0.44946 0.32254 0.0
H658 H 0.13841 0.45674 0.3558 0.0
H659 H 0.10394 0.48219 0.34751 0.0
H660 H 0.10117 0.53699 0.17624 0.0
H661 H 0.13937 0.52482 0.12665 0.0
C662 C 0.16737 0.49229 0.19042 0.0
C663 C 0.18055 0.47577 0.23246 0.0
C664 C 0.1441 0.49698 0.21042 0.0
C665 C 0.16957 0.4625 0.29021 0.0
C666 C 0.14622 0.46665 0.30917 0.0
C667 C 0.11139 0.49101 0.29784 0.0
C668 C 0.09992 0.51053 0.26579 0.0
C669 C 0.13362 0.48443 0.27158 0.0
C670 C 0.10986 0.52204 0.20216 0.0
C671 C 0.13169 0.51514 0.17406 0.0
H672 H 0.04644 0.86029 0.24389 0.0
H673 H 0.11599 0.84776 0.15695 0.0
H674 H 0.11674 0.88716 0.10175 0.0
H675 H 0.09554 0.92288 0.06422 0.0
H676 H 0.0254 0.93445 0.14725 0.0
H677 H 0.02704 0.89767 0.21906 0.0
C678 C 0.06206 0.8664 0.21496 0.0
C679 C 0.08111 0.85114 0.2042 0.0
C680 C 0.0621 0.88874 0.18183 0.0
C681 C 0.10104 0.85917 0.16531 0.0
C682 C 0.10145 0.88164 0.13366 0.0
C683 C 0.08084 0.91759 0.09952 0.0
C684 C 0.06029 0.93116 0.09995 0.0
C685 C 0.08176 0.89625 0.13934 0.0
C686 C 0.04126 0.92405 0.14521 0.0
C687 C 0.04221 0.90309 0.18632 0.0
H688 H 0.66873 0.06006 0.26972 0.0
H689 H 0.69051 0.1158 0.11817 0.0
H690 H 0.65062 0.11987 0.06941 0.0
H691 H 0.61096 0.10395 0.05763 0.0
H692 H 0.58979 0.04752 0.20718 0.0
H693 H 0.6278 0.04801 0.27105 0.0
C694 C 0.66465 0.07361 0.22781 0.0
C695 C 0.68265 0.08735 0.19675 0.0
C696 C 0.64178 0.07566 0.19937 0.0
C697 C 0.67705 0.10467 0.14187 0.0
C698 C 0.65425 0.10703 0.11402 0.0
C699 C 0.6146 0.09201 0.10497 0.0
C700 C 0.59771 0.07555 0.12697 0.0
C701 C 0.63669 0.092 0.14022 0.0
C702 C 0.60244 0.06045 0.18932 0.0
C703 C 0.62427 0.06056 0.22542 0.0
H704 H 0.50057 0.67912 0.24431 0.0
H705 H 0.56241 0.68097 0.10212 0.0
H706 H 0.55327 0.64227 0.05063 0.0
H707 H 0.5261 0.6098 0.03817 0.0
H708 H 0.4636 0.60805 0.17716 0.0
H709 H 0.47462 0.64505 0.23831 0.0
C710 C 0.5123 0.67079 0.20335 0.0
C711 C 0.53213 0.68277 0.17691 0.0
C712 C 0.50669 0.6488 0.17308 0.0
C713 C 0.54698 0.67206 0.1228 0.0
C714 C 0.54176 0.65 0.09343 0.0
C715 C 0.51515 0.61721 0.08317 0.0
C716 C 0.49414 0.60621 0.10351 0.0
C717 C 0.52143 0.63846 0.11703 0.0
C718 C 0.4798 0.61632 0.1604 0.0
C719 C 0.48612 0.6374 0.19535 0.0
H720 H 0.86798 0.52892 0.2628 0.0
H721 H 0.8582 0.45529 0.21932 0.0
H722 H 0.89868 0.45185 0.176 0.0
H723 H 0.93472 0.47102 0.13375 0.0
H724 H 0.94388 0.54483 0.17423 0.0
H725 H 0.90582 0.54684 0.23786 0.0
C726 C 0.87485 0.51195 0.2461 0.0
C727 C 0.86001 0.49245 0.2433 0.0
C728 C 0.89796 0.51019 0.22039 0.0
C729 C 0.86916 0.47066 0.22048 0.0
C730 C 0.8923 0.46867 0.19596 0.0
C731 C 0.92867 0.48738 0.15861 0.0
C732 C 0.94187 0.5078 0.1488 0.0
C733 C 0.90657 0.4885 0.19314 0.0
C734 C 0.9338 0.52896 0.18043 0.0
C735 C 0.91206 0.53012 0.21655 0.0
H736 H 1.00627 0.18248 0.77527 0.0
H737 H 0.04574 0.16695 0.98186 0.0
H738 H 0.04529 0.12526 0.94992 0.0
H739 H 0.03367 0.09301 0.86315 0.0
H740 H 0.99531 0.10875 0.65411 0.0
H741 H 0.99538 0.15028 0.68701 0.0
C742 C 1.01471 0.16995 0.81338 0.0
C743 C 0.02604 0.17791 0.88093 0.0
C744 C 1.01463 0.14593 0.79408 0.0
C745 C 0.0371 0.1614 0.92919 0.0
C746 C 0.03676 0.1375 0.91106 0.0
C747 C 0.0253 0.10549 0.82469 0.0
C748 C 1.01443 0.09754 0.75616 0.0
C749 C 0.02561 0.12953 0.84359 0.0
C750 C 1.00385 0.11417 0.70708 0.0
C751 C 1.00384 0.13801 0.72596 0.0
H752 H 0.3534 1.00531 0.77966 0.0
H753 H 0.3663 0.04434 0.98933 0.0
H754 H 0.40812 0.04272 0.965 0.0
H755 H 0.44134 0.0311 0.88338 0.0
H756 H 0.42867 0.99343 0.67107 0.0
H757 H 0.38672 0.99413 0.69677 0.0
C758 C 0.36525 1.01369 0.81985 0.0
C759 C 0.35631 0.02482 0.88672 0.0
C760 C 0.38953 1.01308 0.80486 0.0
C761 C 0.37234 0.03519 0.93824 0.0
C762 C 0.39641 0.03448 0.92402 0.0
C763 C 0.42948 0.02299 0.84255 0.0
C764 C 0.43842 1.01222 0.7752 0.0
C765 C 0.40523 0.02354 0.85747 0.0
C766 C 0.42252 1.00189 0.7233 0.0
C767 C 0.39842 1.00226 0.73801 0.0
H768 H 0.52773 0.35764 0.80447 0.0
H769 H 0.483 0.3715 1.00052 0.0
H770 H 0.48281 0.41293 0.96936 0.0
H771 H 0.4948 0.44568 0.88624 0.0
H772 H 0.53777 0.43202 0.6863 0.0
H773 H 0.53864 0.39035 0.71835 0.0
C774 C 0.51769 0.36957 0.84016 0.0
C775 C 0.50561 0.36097 0.90568 0.0
C776 C 0.51719 0.39366 0.82093 0.0
C777 C 0.49302 0.37721 0.95105 0.0
C778 C 0.49268 0.40108 0.93278 0.0
C779 C 0.50437 0.43364 0.84945 0.0
C780 C 0.51624 0.44222 0.78381 0.0
C781 C 0.50469 0.40956 0.86797 0.0
C782 C 0.52841 0.42611 0.73703 0.0
C783 C 0.52896 0.40219 0.75547 0.0
H784 H 0.17859 0.53969 0.77205 0.0
H785 H 0.16579 0.49435 0.96651 0.0
H786 H 0.12448 0.49196 0.9308 0.0
H787 H 0.09174 0.50314 0.84533 0.0
H788 H 0.1047 0.54761 0.64834 0.0
H789 H 0.14597 0.5498 0.68368 0.0
C790 C 0.16673 0.52933 0.80663 0.0
C791 C 0.17535 0.51723 0.872 0.0
C792 C 0.14295 0.52779 0.78511 0.0
C793 C 0.15973 0.50367 0.91563 0.0
C794 C 0.13606 0.50236 0.89533 0.0
C795 C 0.10355 0.51327 0.80978 0.0
C796 C 0.09488 0.52523 0.74412 0.0
C797 C 0.12743 0.51436 0.83023 0.0
C798 C 0.11069 0.53814 0.69896 0.0
C799 C 0.13437 0.53948 0.71933 0.0
H800 H 0.98627 0.87751 0.51152 0.0
H801 H 0.04822 0.85728 0.63738 0.0
H802 H 0.05092 0.89667 0.69257 0.0
H803 H 0.03626 0.93783 0.70143 0.0
H804 H 0.97407 0.95682 0.57363 0.0
H805 H 0.97103 0.91733 0.52369 0.0
C806 C 1.0005 0.8817 0.55055 0.0
C807 C 1.01712 0.86436 0.56943 0.0
C808 C 1.00192 0.90437 0.58224 0.0
C809 C 0.0351 0.87015 0.62174 0.0
C810 C 0.0367 0.89277 0.65327 0.0
C811 C 0.02192 0.93324 0.66341 0.0
C812 C 1.00555 0.95059 0.64123 0.0
C813 C 0.02024 0.91015 0.63372 0.0
C814 C 0.98713 0.94413 0.59146 0.0
C815 C 0.98532 0.92143 0.56256 0.0
H816 H 0.67216 0.02165 0.66624 0.0
H817 H 0.65427 0.99615 0.43852 0.0
H818 H 0.6133 0.9946 0.47487 0.0
H819 H 0.58239 0.99994 0.57038 0.0
H820 H 0.59928 0.02499 0.79926 0.0
H821 H 0.64065 0.02684 0.76359 0.0
C822 C 0.65935 1.01562 0.62462 0.0
C823 C 0.66657 1.00924 0.54919 0.0
C824 C 0.63553 1.01453 0.6462 0.0
C825 C 0.64945 1.00169 0.49626 0.0
C826 C 0.62592 1.00058 0.51724 0.0
C827 C 0.59502 1.00577 0.61295 0.0
C828 C 0.58751 1.01223 0.68777 0.0
C829 C 0.61875 1.00692 0.59194 0.0
C830 C 0.60439 1.01982 0.7414 0.0
C831 C 0.62811 0.02092 0.72092 0.0
H832 H 0.51703 0.66058 0.5026 0.0
H833 H 0.50506 0.68702 0.73297 0.0
H834 H 0.50519 0.64717 0.7839 0.0
H835 H 0.50882 0.6042 0.76353 0.0
H836 H 0.52086 0.57848 0.53206 0.0
H837 H 0.52022 0.61819 0.48206 0.0
C838 C 0.51422 0.6577 0.56388 0.0
C839 C 0.51112 0.67707 0.61347 0.0
C840 C 0.51428 0.6346 0.59311 0.0
C841 C 0.50786 0.67268 0.69306 0.0
C842 C 0.50778 0.64977 0.72241 0.0
C843 C 0.51124 0.60728 0.70218 0.0
C844 C 0.51494 0.5881 0.65208 0.0
C845 C 0.51103 0.63051 0.6731 0.0
C846 C 0.51809 0.59267 0.5726 0.0
C847 C 0.51771 0.6155 0.54357 0.0
H848 H 0.8716 0.52238 0.51345 0.0
H849 H 0.84949 0.54554 0.73921 0.0
H850 H 0.89002 0.54471 0.78468 0.0
H851 H 0.93243 0.53821 0.75941 0.0
H852 H 0.95376 0.51622 0.53116 0.0
H853 H 0.91329 0.51558 0.48868 0.0
C854 C 0.87558 0.52701 0.57287 0.0
C855 C 0.85735 0.534 0.62259 0.0
C856 C 0.89902 0.52676 0.59853 0.0
C857 C 0.86308 0.5403 0.69916 0.0
C858 C 0.88632 0.53974 0.72542 0.0
C859 C 0.92818 0.53315 0.70061 0.0
C860 C 0.94635 0.5274 0.64874 0.0
C861 C 0.90455 0.53314 0.67553 0.0
C862 C 0.94036 0.521 0.57249 0.0
C863 C 0.91709 0.52055 0.54789 0.0
loop_
_geom_bond_atom_site_label_1
_geom_bond_atom_site_label_2
_geom_bond_distance
_geom_bond_site_symmetry_2
_ccdc_geom_bond_type
C0 C1 1.264 . S
C0 C5 1.479 . S
C0 C10 1.465 . S
C1 C0 1.264 . S
C1 C3 1.339 . S
C1 H28 0.931 . S
C2 C3 1.395 . S
C2 C4 1.320 . S
C3 C1 1.339 . S
C3 C2 1.395 . S
C3 H29 0.929 . S
C4 C2 1.320 . S
C4 C5 1.405 . S
C4 H30 0.930 . S
C5 C0 1.479 . S
C5 C4 1.405 . S
C5 H31 0.931 . S
U6 O7 2.454 . S
U6 O8 2.458 . S
U6 C9 2.984 . S
U6 C10 2.847 . S
U6 C23 2.882 . S
U6 O24 2.441 . S
U6 O25 2.420 . S
U6 O26 2.455 . S
U6 O27 2.449 . S
O7 U6 2.454 . S
O7 C9 1.353 . S
O8 U6 2.458 . S
O8 C9 1.286 . S
C9 U6 2.984 . S
C9 O7 1.353 . S
C9 O8 1.286 . S
C9 C11 1.363 . S
C10 C0 1.465 . S
C10 U6 2.847 . S
C10 O24 1.249 . S
C10 O25 1.202 . S
C11 C9 1.363 . S
C11 C13 1.408 . S
C11 C16 1.342 . S
C12 C13 1.310 . S
C12 C15 1.461 . S
C12 H32 0.932 . S
C13 C11 1.408 . S
C13 C12 1.310 . S
C13 H33 0.930 . S
C14 C15 1.474 . S
C14 C16 1.285 . S
C14 H34 0.929 . S
C15 C12 1.461 . S
C15 C14 1.474 . S
C16 C11 1.342 . S
C16 C14 1.285 . S
C16 H35 0.930 . S
C17 C20 1.424 . S
C17 C22 1.245 . S
C17 C23 1.428 . S
C18 C21 1.260 . S
C18 C22 1.477 . S
C18 H36 0.932 . S
C19 C20 1.384 . S
C19 C21 1.479 . S
C19 H37 0.929 . S
C20 C17 1.424 . S
C20 C19 1.384 . S
C20 H38 0.928 . S
C21 C18 1.260 . S
C21 C19 1.479 . S
C22 C17 1.245 . S
C22 C18 1.477 . S
C22 H39 0.932 . S
C23 U6 2.882 . S
C23 C17 1.428 . S
C23 O26 1.301 . S
C23 O27 1.282 . S
O24 U6 2.441 . S
O24 C10 1.249 . S
O25 U6 2.420 . S
O25 C10 1.202 . S
O26 U6 2.455 . S
O26 C23 1.301 . S
O27 U6 2.449 . S
O27 C23 1.282 . S
H28 C1 0.931 . S
H29 C3 0.929 . S
H30 C4 0.930 . S
H31 C5 0.931 . S
H32 C12 0.932 . S
H33 C13 0.930 . S
H34 C14 0.929 . S
H35 C16 0.930 . S
H36 C18 0.932 . S
H37 C19 0.929 . S
H38 C20 0.928 . S
H39 C22 0.932 . S
C40 C41 1.264 . S
C40 C45 1.479 . S
C40 C50 1.465 . S
C41 C40 1.264 . S
C41 C43 1.339 . S
C41 H68 0.931 . S
C42 C43 1.395 . S
C42 C44 1.320 . S
C43 C41 1.339 . S
C43 C42 1.395 . S
C43 H69 0.929 . S
C44 C42 1.320 . S
C44 C45 1.405 . S
C44 H70 0.921 1_455 S
C45 C40 1.479 . S
C45 C44 1.405 . S
C45 H71 0.931 . S
U46 O47 2.454 . S
U46 O48 2.458 . S
U46 C49 2.984 . S
U46 C50 2.847 . S
U46 C63 2.882 . S
U46 O64 2.441 . S
U46 O65 2.420 . S
U46 O66 2.455 . S
U46 O67 2.449 . S
O47 U46 2.454 . S
O47 C49 1.353 . S
O48 U46 2.458 . S
O48 C49 1.286 . S
C49 U46 2.984 . S
C49 O47 1.353 . S
C49 O48 1.286 . S
C49 C51 1.363 . S
C50 C40 1.465 . S
C50 U46 2.847 . S
C50 O64 1.249 . S
C50 O65 1.202 . S
C51 C49 1.363 . S
C51 C53 1.408 . S
C51 C56 1.342 . S
C52 C53 1.310 . S
C52 C55 1.461 . S
C52 H72 0.932 . S
C53 C51 1.408 . S
C53 C52 1.310 . S
C53 H73 0.930 . S
C54 C55 1.474 1_655 S
C54 C56 1.285 1_655 S
C54 H74 0.930 . S
C55 C52 1.461 . S
C55 C54 1.474 1_455 S
C56 C51 1.342 . S
C56 C54 1.285 1_455 S
C56 H75 0.933 . S
C57 C60 1.424 . S
C57 C62 1.245 . S
C57 C63 1.428 . S
C58 C61 1.260 . S
C58 C62 1.477 . S
C58 H76 0.932 . S
C59 C60 1.384 . S
C59 C61 1.479 . S
C59 H77 0.929 . S
C60 C57 1.424 . S
C60 C59 1.384 . S
C60 H78 0.928 . S
C61 C58 1.260 . S
C61 C59 1.479 . S
C62 C57 1.245 . S
C62 C58 1.477 . S
C62 H79 0.932 . S
C63 U46 2.882 . S
C63 C57 1.428 . S
C63 O66 1.301 . S
C63 O67 1.282 . S
O64 U46 2.441 . S
O64 C50 1.249 . S
O65 U46 2.420 . S
O65 C50 1.202 . S
O66 U46 2.455 . S
O66 C63 1.301 . S
O67 U46 2.449 . S
O67 C63 1.282 . S
H68 C41 0.931 . S
H69 C43 0.929 . S
H70 C44 0.921 1_655 S
H71 C45 0.931 . S
H72 C52 0.932 . S
H73 C53 0.930 . S
H74 C54 0.930 . S
H75 C56 0.933 . S
H76 C58 0.932 . S
H77 C59 0.929 . S
H78 C60 0.928 . S
H79 C62 0.932 . S
C80 C81 1.264 . S
C80 C85 1.479 . S
C80 C90 1.465 . S
C81 C80 1.264 . S
C81 C83 1.339 . S
C81 H108 0.931 . S
C82 C83 1.395 . S
C82 C84 1.320 . S
C83 C81 1.339 . S
C83 C82 1.395 . S
C83 H109 0.929 . S
C84 C82 1.320 . S
C84 C85 1.405 . S
C84 H110 0.921 1_545 S
C85 C80 1.479 . S
C85 C84 1.405 . S
C85 H111 0.931 . S
U86 O87 2.454 . S
U86 O88 2.458 . S
U86 C89 2.984 . S
U86 C90 2.847 . S
U86 C103 2.882 . S
U86 O104 2.441 . S
U86 O105 2.420 . S
U86 O106 2.455 . S
U86 O107 2.449 . S
O87 U86 2.454 . S
O87 C89 1.353 . S
O88 U86 2.458 . S
O88 C89 1.286 . S
C89 U86 2.984 . S
C89 O87 1.353 . S
C89 O88 1.286 . S
C89 C91 1.363 . S
C90 C80 1.465 . S
C90 U86 2.847 . S
C90 O104 1.249 . S
C90 O105 1.202 . S
C91 C89 1.363 . S
C91 C93 1.408 . S
C91 C96 1.342 . S
C92 C93 1.310 . S
C92 C95 1.461 . S
C92 H112 0.932 . S
C93 C91 1.408 . S
C93 C92 1.310 . S
C93 H113 0.930 . S
C94 C95 1.474 1_565 S
C94 C96 1.285 1_565 S
C94 H114 0.930 . S
C95 C92 1.461 . S
C95 C94 1.474 1_545 S
C96 C91 1.342 . S
C96 C94 1.285 1_545 S
C96 H115 0.933 . S
C97 C100 1.424 . S
C97 C102 1.245 . S
C97 C103 1.428 . S
C98 C101 1.260 . S
C98 C102 1.477 . S
C98 H116 0.932 . S
C99 C100 1.384 . S
C99 C101 1.479 . S
C99 H117 0.929 . S
C100 C97 1.424 . S
C100 C99 1.384 . S
C100 H118 0.928 . S
C101 C98 1.260 . S
C101 C99 1.479 . S
C102 C97 1.245 . S
C102 C98 1.477 . S
C102 H119 0.932 . S
C103 U86 2.882 . S
C103 C97 1.428 . S
C103 O106 1.301 . S
C103 O107 1.282 . S
O104 U86 2.441 . S
O104 C90 1.249 . S
O105 U86 2.420 . S
O105 C90 1.202 . S
O106 U86 2.455 . S
O106 C103 1.301 . S
O107 U86 2.449 . S
O107 C103 1.282 . S
H108 C81 0.931 . S
H109 C83 0.929 . S
H110 C84 0.921 1_565 S
H111 C85 0.931 . S
H112 C92 0.932 . S
H113 C93 0.930 . S
H114 C94 0.930 . S
H115 C96 0.933 . S
H116 C98 0.932 . S
H117 C99 0.929 . S
H118 C100 0.928 . S
H119 C102 0.932 . S
C120 C121 1.264 . S
C120 C125 1.479 . S
C120 C130 1.465 . S
C121 C120 1.264 . S
C121 C123 1.339 . S
C121 H148 0.931 . S
C122 C123 1.395 . S
C122 C124 1.320 . S
C123 C121 1.339 . S
C123 C122 1.395 . S
C123 H149 0.929 . S
C124 C122 1.320 . S
C124 C125 1.405 . S
C124 H150 0.930 . S
C125 C120 1.479 . S
C125 C124 1.405 . S
C125 H151 0.931 . S
U126 O127 2.454 . S
U126 O128 2.458 . S
U126 C129 2.984 . S
U126 C130 2.847 . S
U126 C143 2.882 . S
U126 O144 2.441 . S
U126 O145 2.420 . S
U126 O146 2.455 . S
U126 O147 2.449 . S
O127 U126 2.454 . S
O127 C129 1.353 . S
O128 U126 2.458 . S
O128 C129 1.286 . S
C129 U126 2.984 . S
C129 O127 1.353 . S
C129 O128 1.286 . S
C129 C131 1.363 . S
C130 C120 1.465 . S
C130 U126 2.847 . S
C130 O144 1.249 . S
C130 O145 1.202 . S
C131 C129 1.363 . S
C131 C133 1.408 . S
C131 C136 1.342 . S
C132 C133 1.310 . S
C132 C135 1.461 . S
C132 H152 0.932 . S
C133 C131 1.408 . S
C133 C132 1.310 . S
C133 H153 0.930 . S
C134 C135 1.474 . S
C134 C136 1.285 . S
C134 H154 0.929 . S
C135 C132 1.461 . S
C135 C134 1.474 . S
C136 C131 1.342 . S
C136 C134 1.285 . S
C136 H155 0.930 . S
C137 C140 1.424 . S
C137 C142 1.245 . S
C137 C143 1.428 . S
C138 C141 1.260 . S
C138 C142 1.477 . S
C138 H156 0.932 . S
C139 C140 1.384 . S
C139 C141 1.479 . S
C139 H157 0.929 . S
C140 C137 1.424 . S
C140 C139 1.384 . S
C140 H158 0.928 . S
C141 C138 1.260 . S
C141 C139 1.479 . S
C142 C137 1.245 . S
C142 C138 1.477 . S
C142 H159 0.932 . S
C143 U126 2.882 . S
C143 C137 1.428 . S
C143 O146 1.301 . S
C143 O147 1.282 . S
O144 U126 2.441 . S
O144 C130 1.249 . S
O145 U126 2.420 . S
O145 C130 1.202 . S
O146 U126 2.455 . S
O146 C143 1.301 . S
O147 U126 2.449 . S
O147 C143 1.282 . S
H148 C121 0.931 . S
H149 C123 0.929 . S
H150 C124 0.930 . S
H151 C125 0.931 . S
H152 C132 0.932 . S
H153 C133 0.930 . S
H154 C134 0.929 . S
H155 C136 0.930 . S
H156 C138 0.932 . S
H157 C139 0.929 . S
H158 C140 0.928 . S
H159 C142 0.932 . S
C160 C161 1.264 . S
C160 C165 1.479 . S
C160 C170 1.465 . S
C161 C160 1.264 . S
C161 C163 1.339 . S
C161 H188 0.931 . S
C162 C163 1.395 . S
C162 C164 1.320 . S
C163 C161 1.339 . S
C163 C162 1.395 . S
C163 H189 0.929 . S
C164 C162 1.320 . S
C164 C165 1.405 . S
C164 H190 0.930 . S
C165 C160 1.479 . S
C165 C164 1.405 . S
C165 H191 0.931 . S
U166 O167 2.454 1_554 S
U166 O168 2.458 . S
U166 C169 2.984 . S
U166 C170 2.847 1_554 S
U166 C183 2.882 . S
U166 O184 2.441 1_554 S
U166 O185 2.420 1_554 S
U166 O186 2.455 . S
U166 O187 2.449 . S
O167 U166 2.454 1_556 S
O167 C169 1.353 1_556 S
O168 U166 2.458 . S
O168 C169 1.286 . S
C169 U166 2.984 . S
C169 O167 1.353 1_554 S
C169 O168 1.286 . S
C169 C171 1.363 . S
C170 C160 1.465 . S
C170 U166 2.847 1_556 S
C170 O184 1.249 . S
C170 O185 1.202 . S
C171 C169 1.363 . S
C171 C173 1.408 . S
C171 C176 1.342 . S
C172 C173 1.310 . S
C172 C175 1.461 . S
C172 H192 0.932 . S
C173 C171 1.408 . S
C173 C172 1.310 . S
C173 H193 0.930 1_554 S
C174 C175 1.474 . S
C174 C176 1.285 . S
C174 H194 0.929 . S
C175 C172 1.461 . S
C175 C174 1.474 . S
C176 C171 1.342 . S
C176 C174 1.285 . S
C176 H195 0.930 . S
C177 C180 1.424 . S
C177 C182 1.245 . S
C177 C183 1.428 . S
C178 C181 1.260 . S
C178 C182 1.477 . S
C178 H196 0.932 . S
C179 C180 1.384 . S
C179 C181 1.479 . S
C179 H197 0.929 . S
C180 C177 1.424 . S
C180 C179 1.384 . S
C180 H198 0.928 . S
C181 C178 1.260 . S
C181 C179 1.479 . S
C182 C177 1.245 . S
C182 C178 1.477 . S
C182 H199 0.932 . S
C183 U166 2.882 . S
C183 C177 1.428 . S
C183 O186 1.301 . S
C183 O187 1.282 . S
O184 U166 2.441 1_556 S
O184 C170 1.249 . S
O185 U166 2.420 1_556 S
O185 C170 1.202 . S
O186 U166 2.455 . S
O186 C183 1.301 . S
O187 U166 2.449 . S
O187 C183 1.282 . S
H188 C161 0.931 . S
H189 C163 0.929 . S
H190 C164 0.930 . S
H191 C165 0.931 . S
H192 C172 0.932 . S
H193 C173 0.930 1_556 S
H194 C174 0.929 . S
H195 C176 0.930 . S
H196 C178 0.932 . S
H197 C179 0.929 . S
H198 C180 0.928 . S
H199 C182 0.932 . S
C200 C201 1.264 . S
C200 C205 1.479 . S
C200 C210 1.465 . S
C201 C200 1.264 . S
C201 C203 1.339 . S
C201 H228 0.931 . S
C202 C203 1.395 . S
C202 C204 1.320 . S
C203 C201 1.339 . S
C203 C202 1.395 . S
C203 H229 0.929 . S
C204 C202 1.320 . S
C204 C205 1.405 . S
C204 H230 0.923 1_455 S
C205 C200 1.479 . S
C205 C204 1.405 . S
C205 H231 0.931 . S
U206 O207 2.451 1_554 S
U206 O208 2.458 . S
U206 C209 2.984 . S
U206 C210 2.847 1_554 S
U206 C223 2.882 . S
U206 O224 2.441 1_554 S
U206 O225 2.420 1_554 S
U206 O226 2.455 . S
U206 O227 2.449 . S
O207 U206 2.451 1_556 S
O207 C209 1.341 1_556 S
O208 U206 2.458 . S
O208 C209 1.286 . S
C209 U206 2.984 . S
C209 O207 1.341 1_554 S
C209 O208 1.286 . S
C209 C211 1.363 . S
C210 C200 1.465 . S
C210 U206 2.847 1_556 S
C210 O224 1.249 . S
C210 O225 1.202 . S
C211 C209 1.363 . S
C211 C213 1.408 . S
C211 C216 1.342 . S
C212 C213 1.310 . S
C212 C215 1.462 . S
C212 H232 0.932 . S
C213 C211 1.408 . S
C213 C212 1.310 . S
C213 H233 0.930 1_554 S
C214 C215 1.474 1_655 S
C214 C216 1.286 1_655 S
C214 H234 0.929 . S
C215 C212 1.462 . S
C215 C214 1.474 1_455 S
C216 C211 1.342 . S
C216 C214 1.286 1_455 S
C216 H235 0.934 . S
C217 C220 1.424 . S
C217 C222 1.245 . S
C217 C223 1.428 . S
C218 C221 1.260 . S
C218 C222 1.477 . S
C218 H236 0.932 . S
C219 C220 1.384 . S
C219 C221 1.479 . S
C219 H237 0.929 . S
C220 C217 1.424 . S
C220 C219 1.384 . S
C220 H238 0.928 . S
C221 C218 1.260 . S
C221 C219 1.479 . S
C222 C217 1.245 . S
C222 C218 1.477 . S
C222 H239 0.932 . S
C223 U206 2.882 . S
C223 C217 1.428 . S
C223 O226 1.301 . S
C223 O227 1.282 . S
O224 U206 2.441 1_556 S
O224 C210 1.249 . S
O225 U206 2.420 1_556 S
O225 C210 1.202 . S
O226 U206 2.455 . S
O226 C223 1.301 . S
O227 U206 2.449 . S
O227 C223 1.282 . S
H228 C201 0.931 . S
H229 C203 0.929 . S
H230 C204 0.923 1_655 S
H231 C205 0.931 . S
H232 C212 0.932 . S
H233 C213 0.930 1_556 S
H234 C214 0.929 . S
H235 C216 0.934 . S
H236 C218 0.932 . S
H237 C219 0.929 . S
H238 C220 0.928 . S
H239 C222 0.932 . S
C240 C241 1.264 . S
C240 C245 1.479 . S
C240 C250 1.465 . S
C241 C240 1.264 . S
C241 C243 1.339 . S
C241 H268 0.931 . S
C242 C243 1.395 . S
C242 C244 1.320 . S
C243 C241 1.339 . S
C243 C242 1.395 . S
C243 H269 0.929 . S
C244 C242 1.320 . S
C244 C245 1.405 . S
C244 H270 0.923 1_545 S
C245 C240 1.479 . S
C245 C244 1.405 . S
C245 H271 0.931 . S
U246 O247 2.454 1_554 S
U246 O248 2.458 . S
U246 C249 2.984 . S
U246 C250 2.847 1_554 S
U246 C263 2.882 . S
U246 O264 2.441 1_554 S
U246 O265 2.420 1_554 S
U246 O266 2.455 . S
U246 O267 2.449 . S
O247 U246 2.454 1_556 S
O247 C249 1.353 1_556 S
O248 U246 2.458 . S
O248 C249 1.286 . S
C249 U246 2.984 . S
C249 O247 1.353 1_554 S
C249 O248 1.286 . S
C249 C251 1.363 . S
C250 C240 1.465 . S
C250 U246 2.847 1_556 S
C250 O264 1.249 . S
C250 O265 1.202 . S
C251 C249 1.363 . S
C251 C253 1.408 . S
C251 C256 1.342 . S
C252 C253 1.310 . S
C252 C255 1.462 . S
C252 H272 0.932 . S
C253 C251 1.408 . S
C253 C252 1.310 . S
C253 H273 0.930 1_554 S
C254 C255 1.474 1_565 S
C254 C256 1.286 1_565 S
C254 H274 0.929 . S
C255 C252 1.462 . S
C255 C254 1.474 1_545 S
C256 C251 1.342 . S
C256 C254 1.286 1_545 S
C256 H275 0.934 . S
C257 C260 1.424 . S
C257 C262 1.245 . S
C257 C263 1.428 . S
C258 C261 1.260 . S
C258 C262 1.477 . S
C258 H276 0.932 . S
C259 C260 1.384 . S
C259 C261 1.479 . S
C259 H277 0.929 . S
C260 C257 1.424 . S
C260 C259 1.384 . S
C260 H278 0.928 . S
C261 C258 1.260 . S
C261 C259 1.479 . S
C262 C257 1.245 . S
C262 C258 1.477 . S
C262 H279 0.932 . S
C263 U246 2.882 . S
C263 C257 1.428 . S
C263 O266 1.301 . S
C263 O267 1.282 . S
O264 U246 2.441 1_556 S
O264 C250 1.249 . S
O265 U246 2.420 1_556 S
O265 C250 1.202 . S
O266 U246 2.455 . S
O266 C263 1.301 . S
O267 U246 2.449 . S
O267 C263 1.282 . S
H268 C241 0.931 . S
H269 C243 0.929 . S
H270 C244 0.923 1_565 S
H271 C245 0.931 . S
H272 C252 0.932 . S
H273 C253 0.930 1_556 S
H274 C254 0.929 . S
H275 C256 0.934 . S
H276 C258 0.932 . S
H277 C259 0.929 . S
H278 C260 0.928 . S
H279 C262 0.932 . S
C280 C281 1.264 . S
C280 C285 1.479 . S
C280 C290 1.465 . S
C281 C280 1.264 . S
C281 C283 1.339 . S
C281 H308 0.931 . S
C282 C283 1.395 . S
C282 C284 1.320 . S
C283 C281 1.339 . S
C283 C282 1.395 . S
C283 H309 0.929 . S
C284 C282 1.320 . S
C284 C285 1.405 . S
C284 H310 0.930 . S
C285 C280 1.479 . S
C285 C284 1.405 . S
C285 H311 0.931 . S
U286 O287 2.454 1_554 S
U286 O288 2.458 . S
U286 C289 2.984 . S
U286 C290 2.847 1_554 S
U286 C303 2.882 . S
U286 O304 2.441 1_554 S
U286 O305 2.420 1_554 S
U286 O306 2.455 . S
U286 O307 2.449 . S
O287 U286 2.454 1_556 S
O287 C289 1.353 1_556 S
O288 U286 2.458 . S
O288 C289 1.286 . S
C289 U286 2.984 . S
C289 O287 1.353 1_554 S
C289 O288 1.286 . S
C289 C291 1.363 . S
C290 C280 1.465 . S
C290 U286 2.847 1_556 S
C290 O304 1.249 . S
C290 O305 1.202 . S
C291 C289 1.363 . S
C291 C293 1.408 . S
C291 C296 1.342 . S
C292 C293 1.310 . S
C292 C295 1.461 . S
C292 H312 0.932 . S
C293 C291 1.408 . S
C293 C292 1.310 . S
C293 H313 0.930 1_554 S
C294 C295 1.474 . S
C294 C296 1.285 . S
C294 H314 0.929 . S
C295 C292 1.461 . S
C295 C294 1.474 . S
C296 C291 1.342 . S
C296 C294 1.285 . S
C296 H315 0.930 . S
C297 C300 1.424 . S
C297 C302 1.245 . S
C297 C303 1.428 . S
C298 C301 1.260 . S
C298 C302 1.477 . S
C298 H316 0.932 . S
C299 C300 1.384 . S
C299 C301 1.479 . S
C299 H317 0.929 . S
C300 C297 1.424 . S
C300 C299 1.384 . S
C300 H318 0.928 . S
C301 C298 1.260 . S
C301 C299 1.479 . S
C302 C297 1.245 . S
C302 C298 1.477 . S
C302 H319 0.932 . S
C303 U286 2.882 . S
C303 C297 1.428 . S
C303 O306 1.301 . S
C303 O307 1.282 . S
O304 U286 2.441 1_556 S
O304 C290 1.249 . S
O305 U286 2.420 1_556 S
O305 C290 1.202 . S
O306 U286 2.455 . S
O306 C303 1.301 . S
O307 U286 2.449 . S
O307 C303 1.282 . S
H308 C281 0.931 . S
H309 C283 0.929 . S
H310 C284 0.930 . S
H311 C285 0.931 . S
H312 C292 0.932 . S
H313 C293 0.930 1_556 S
H314 C294 0.929 . S
H315 C296 0.930 . S
H316 C298 0.932 . S
H317 C299 0.929 . S
H318 C300 0.928 . S
H319 C302 0.932 . S
Ho320 C323 2.811 . S
Ho320 O340 2.322 . S
Ho320 O342 2.378 . S
Ho320 O343 2.524 . S
Ho320 O344 2.381 . S
Ho320 O345 2.669 1_565 S
Ho320 O347 2.346 1_565 S
Ho320 O351 2.305 1_455 S
Ho321 C332 2.811 . S
Ho321 O341 2.346 1_545 S
Ho321 O345 2.305 1_655 S
Ho321 O346 2.322 . S
Ho321 O348 2.378 . S
Ho321 O349 2.524 . S
Ho321 O350 2.381 . S
Ho321 O351 2.669 1_545 S
C322 O340 1.259 1_655 S
C322 O341 1.268 . S
C323 Ho320 2.811 . S
C323 C324 1.488 . S
C323 O342 1.215 . S
C323 O343 1.289 . S
C324 C323 1.488 . S
C324 C325 1.348 . S
C324 C329 1.413 . S
C325 C324 1.348 . S
C325 C326 1.442 . S
C325 H352 0.930 1_455 S
C326 C325 1.442 . S
C326 C327 1.381 . S
C326 H353 0.931 1_455 S
C327 C326 1.381 . S
C327 C328 1.321 . S
C328 C327 1.321 . S
C328 C329 1.403 . S
C328 H354 0.934 . S
C329 C324 1.413 . S
C329 C328 1.403 . S
C329 H355 0.930 . S
C330 O344 1.296 . S
C330 O345 1.244 1_565 S
C331 O346 1.259 1_455 S
C331 O347 1.268 . S
C332 Ho321 2.811 . S
C332 C333 1.488 . S
C332 O348 1.215 . S
C332 O349 1.289 . S
C333 C332 1.488 . S
C333 C334 1.348 . S
C333 C338 1.413 . S
C334 C333 1.348 . S
C334 C335 1.442 . S
C334 H356 0.930 1_655 S
C335 C334 1.442 . S
C335 C336 1.381 . S
C335 H357 0.931 1_655 S
C336 C335 1.381 . S
C336 C337 1.321 . S
C337 C336 1.321 . S
C337 C338 1.403 . S
C337 H358 0.934 . S
C338 C333 1.413 . S
C338 C337 1.403 . S
C338 H359 0.930 . S
C339 O350 1.275 . S
C339 O351 1.256 1_545 S
O340 Ho320 2.322 . S
O340 C322 1.259 1_455 S
O341 Ho321 2.346 1_565 S
O341 C322 1.268 . S
O342 Ho320 2.378 . S
O342 C323 1.215 . S
O343 Ho320 2.524 . S
O343 C323 1.289 . S
O344 Ho320 2.381 . S
O344 C330 1.296 . S
O345 Ho320 2.669 1_545 S
O345 Ho321 2.305 1_455 S
O345 C330 1.244 1_545 S
O346 Ho321 2.322 . S
O346 C331 1.259 1_655 S
O347 Ho320 2.346 1_545 S
O347 C331 1.268 . S
O348 Ho321 2.378 . S
O348 C332 1.215 . S
O349 Ho321 2.524 . S
O349 C332 1.289 . S
O350 Ho321 2.381 . S
O350 C339 1.275 . S
O351 Ho320 2.305 1_655 S
O351 Ho321 2.669 1_565 S
O351 C339 1.256 1_565 S
H352 C325 0.930 1_655 S
H353 C326 0.931 1_655 S
H354 C328 0.934 . S
H355 C329 0.930 . S
H356 C334 0.930 1_455 S
H357 C335 0.931 1_455 S
H358 C337 0.934 . S
H359 C338 0.930 . S
Ho360 C363 2.811 . S
Ho360 O380 2.322 . S
Ho360 O382 2.378 . S
Ho360 O383 2.524 . S
Ho360 O384 2.381 . S
Ho360 O385 2.669 . S
Ho360 O387 2.346 . S
Ho360 O391 2.305 1_545 S
Ho361 C372 2.811 . S
Ho361 O381 2.346 . S
Ho361 O385 2.305 1_565 S
Ho361 O386 2.322 . S
Ho361 O388 2.378 . S
Ho361 O389 2.524 . S
Ho361 O390 2.381 . S
Ho361 O391 2.669 . S
C362 O380 1.259 1_565 S
C362 O381 1.268 . S
C363 Ho360 2.811 . S
C363 C364 1.488 . S
C363 O382 1.215 . S
C363 O383 1.289 . S
C364 C363 1.488 . S
C364 C365 1.348 . S
C364 C369 1.413 . S
C365 C364 1.348 . S
C365 C366 1.442 . S
C365 H392 0.930 1_545 S
C366 C365 1.442 . S
C366 C367 1.381 . S
C366 H393 0.931 1_545 S
C367 C366 1.381 . S
C367 C368 1.321 . S
C368 C367 1.321 . S
C368 C369 1.403 . S
C368 H394 0.934 . S
C369 C364 1.413 . S
C369 C368 1.403 . S
C369 H395 0.930 . S
C370 O384 1.275 . S
C370 O385 1.256 . S
C371 O386 1.259 1_545 S
C371 O387 1.268 . S
C372 Ho361 2.811 . S
C372 C373 1.488 . S
C372 O388 1.215 . S
C372 O389 1.289 . S
C373 C372 1.488 . S
C373 C374 1.348 . S
C373 C378 1.413 . S
C374 C373 1.348 . S
C374 C375 1.442 . S
C374 H396 0.930 1_565 S
C375 C374 1.442 . S
C375 C376 1.381 . S
C375 H397 0.931 1_565 S
C376 C375 1.381 . S
C376 C377 1.321 . S
C377 C376 1.321 . S
C377 C378 1.403 . S
C377 H398 0.934 . S
C378 C373 1.413 . S
C378 C377 1.403 . S
C378 H399 0.930 . S
C379 O390 1.275 . S
C379 O391 1.256 . S
O380 Ho360 2.322 . S
O380 C362 1.259 1_545 S
O381 Ho361 2.346 . S
O381 C362 1.268 . S
O382 Ho360 2.378 . S
O382 C363 1.215 . S
O383 Ho360 2.524 . S
O383 C363 1.289 . S
O384 Ho360 2.381 . S
O384 C370 1.275 . S
O385 Ho360 2.669 . S
O385 Ho361 2.305 1_545 S
O385 C370 1.256 . S
O386 Ho361 2.322 . S
O386 C371 1.259 1_565 S
O387 Ho360 2.346 . S
O387 C371 1.268 . S
O388 Ho361 2.378 . S
O388 C372 1.215 . S
O389 Ho361 2.524 . S
O389 C372 1.289 . S
O390 Ho361 2.381 . S
O390 C379 1.275 . S
O391 Ho360 2.305 1_565 S
O391 Ho361 2.669 . S
O391 C379 1.256 . S
H392 C365 0.930 1_565 S
H393 C366 0.931 1_565 S
H394 C368 0.934 . S
H395 C369 0.930 . S
H396 C374 0.930 1_545 S
H397 C375 0.931 1_545 S
H398 C377 0.934 . S
H399 C378 0.930 . S
Ho400 C403 2.811 . S
Ho400 O420 2.322 . S
Ho400 O422 2.378 . S
Ho400 O423 2.524 . S
Ho400 O424 2.381 . S
Ho400 O425 2.669 . S
Ho400 O427 2.346 . S
Ho400 O431 2.305 . S
Ho401 C412 2.811 . S
Ho401 O421 2.346 . S
Ho401 O425 2.305 . S
Ho401 O426 2.322 . S
Ho401 O428 2.378 . S
Ho401 O429 2.524 . S
Ho401 O430 2.381 . S
Ho401 O431 2.669 . S
C402 O420 1.259 . S
C402 O421 1.268 . S
C403 Ho400 2.811 . S
C403 C404 1.488 . S
C403 O422 1.215 . S
C403 O423 1.289 . S
C404 C403 1.488 . S
C404 C405 1.348 . S
C404 C409 1.413 . S
C405 C404 1.348 . S
C405 C406 1.442 . S
C405 H432 0.930 . S
C406 C405 1.442 . S
C406 C407 1.381 . S
C406 H433 0.931 . S
C407 C406 1.381 . S
C407 C408 1.321 . S
C408 C407 1.321 . S
C408 C409 1.403 . S
C408 H434 0.934 . S
C409 C404 1.413 . S
C409 C408 1.403 . S
C409 H435 0.930 . S
C410 O424 1.275 . S
C410 O425 1.256 . S
C411 O426 1.259 . S
C411 O427 1.268 . S
C412 Ho401 2.811 . S
C412 C413 1.488 . S
C412 O428 1.215 . S
C412 O429 1.289 . S
C413 C412 1.488 . S
C413 C414 1.348 . S
C413 C418 1.413 . S
C414 C413 1.348 . S
C414 C415 1.442 . S
C414 H436 0.930 . S
C415 C414 1.442 . S
C415 C416 1.381 . S
C415 H437 0.931 . S
C416 C415 1.381 . S
C416 C417 1.321 . S
C417 C416 1.321 . S
C417 C418 1.403 . S
C417 H438 0.934 . S
C418 C413 1.413 . S
C418 C417 1.403 . S
C418 H439 0.930 . S
C419 O430 1.275 . S
C419 O431 1.256 . S
O420 Ho400 2.322 . S
O420 C402 1.259 . S
O421 Ho401 2.346 . S
O421 C402 1.268 . S
O422 Ho400 2.378 . S
O422 C403 1.215 . S
O423 Ho400 2.524 . S
O423 C403 1.289 . S
O424 Ho400 2.381 . S
O424 C410 1.275 . S
O425 Ho400 2.669 . S
O425 Ho401 2.305 . S
O425 C410 1.256 . S
O426 Ho401 2.322 . S
O426 C411 1.259 . S
O427 Ho400 2.346 . S
O427 C411 1.268 . S
O428 Ho401 2.378 . S
O428 C412 1.215 . S
O429 Ho401 2.524 . S
O429 C412 1.289 . S
O430 Ho401 2.381 . S
O430 C419 1.275 . S
O431 Ho400 2.305 . S
O431 Ho401 2.669 . S
O431 C419 1.256 . S
H432 C405 0.930 . S
H433 C406 0.931 . S
H434 C408 0.934 . S
H435 C409 0.930 . S
H436 C414 0.930 . S
H437 C415 0.931 . S
H438 C417 0.934 . S
H439 C418 0.930 . S
Ho440 C443 2.811 . S
Ho440 O460 2.322 . S
Ho440 O462 2.378 . S
Ho440 O463 2.524 . S
Ho440 O464 2.381 . S
Ho440 O465 2.669 1_655 S
Ho440 O467 2.346 1_655 S
Ho440 O471 2.305 . S
Ho441 C452 2.811 . S
Ho441 O461 2.346 1_455 S
Ho441 O465 2.305 . S
Ho441 O466 2.322 . S
Ho441 O468 2.378 . S
Ho441 O469 2.524 . S
Ho441 O470 2.381 . S
Ho441 O471 2.669 1_455 S
C442 O460 1.259 . S
C442 O461 1.268 . S
C443 Ho440 2.811 . S
C443 C444 1.488 . S
C443 O462 1.215 . S
C443 O463 1.289 . S
C444 C443 1.488 . S
C444 C445 1.348 . S
C444 C449 1.413 . S
C445 C444 1.348 . S
C445 C446 1.442 . S
C445 H472 0.930 . S
C446 C445 1.442 . S
C446 C447 1.381 . S
C446 H473 0.931 . S
C447 C446 1.381 . S
C447 C448 1.321 . S
C448 C447 1.321 . S
C448 C449 1.403 . S
C448 H474 0.934 . S
C449 C444 1.413 . S
C449 C448 1.403 . S
C449 H475 0.930 . S
C450 O464 1.293 . S
C450 O465 1.246 1_655 S
C451 O466 1.259 . S
C451 O467 1.268 . S
C452 Ho441 2.811 . S
C452 C453 1.488 . S
C452 O468 1.215 . S
C452 O469 1.289 . S
C453 C452 1.488 . S
C453 C454 1.348 . S
C453 C458 1.413 . S
C454 C453 1.348 . S
C454 C455 1.442 . S
C454 H476 0.930 . S
C455 C454 1.442 . S
C455 C456 1.381 . S
C455 H477 0.931 . S
C456 C455 1.381 . S
C456 C457 1.321 . S
C457 C456 1.321 . S
C457 C458 1.403 . S
C457 H478 0.934 . S
C458 C453 1.413 . S
C458 C457 1.403 . S
C458 H479 0.930 . S
C459 O470 1.299 . S
C459 O471 1.243 1_455 S
O460 Ho440 2.322 . S
O460 C442 1.259 . S
O461 Ho441 2.346 1_655 S
O461 C442 1.268 . S
O462 Ho440 2.378 . S
O462 C443 1.215 . S
O463 Ho440 2.524 . S
O463 C443 1.289 . S
O464 Ho440 2.381 . S
O464 C450 1.293 . S
O465 Ho440 2.669 1_455 S
O465 Ho441 2.305 . S
O465 C450 1.246 1_455 S
O466 Ho441 2.322 . S
O466 C451 1.259 . S
O467 Ho440 2.346 1_455 S
O467 C451 1.268 . S
O468 Ho441 2.378 . S
O468 C452 1.215 . S
O469 Ho441 2.524 . S
O469 C452 1.289 . S
O470 Ho441 2.381 . S
O470 C459 1.299 . S
O471 Ho440 2.305 . S
O471 Ho441 2.669 1_655 S
O471 C459 1.243 1_655 S
H472 C445 0.930 . S
H473 C446 0.931 . S
H474 C448 0.934 . S
H475 C449 0.930 . S
H476 C454 0.930 . S
H477 C455 0.931 . S
H478 C457 0.934 . S
H479 C458 0.930 . S
H480 C486 0.929 . S
H481 C489 0.930 . S
H482 C490 0.930 . S
H483 C491 0.930 . S
H484 C494 0.930 . S
H485 C495 0.930 . S
C486 H480 0.929 . S
C486 C487 1.355 . S
C486 C488 1.413 1_565 S
C487 C486 1.355 . S
C487 C489 1.419 . S
C488 C486 1.413 1_545 S
C488 C493 1.426 . S
C488 C495 1.411 . S
C489 H481 0.930 . S
C489 C487 1.419 . S
C489 C490 1.362 1_565 S
C490 H482 0.930 . S
C490 C489 1.362 1_545 S
C490 C493 1.410 . S
C491 H483 0.930 . S
C491 C492 1.355 . S
C491 C493 1.415 . S
C492 C491 1.355 . S
C492 C494 1.419 . S
C493 C488 1.426 . S
C493 C490 1.410 . S
C493 C491 1.415 . S
C494 H484 0.930 . S
C494 C492 1.419 . S
C494 C495 1.362 . S
C495 H485 0.930 . S
C495 C488 1.411 . S
C495 C494 1.362 . S
H496 C502 0.930 . S
H497 C505 0.930 . S
H498 C506 0.930 . S
H499 C507 0.930 . S
H500 C510 0.930 . S
H501 C511 0.930 . S
C502 H496 0.930 . S
C502 C503 1.355 . S
C502 C504 1.415 . S
C503 C502 1.355 . S
C503 C505 1.419 . S
C504 C502 1.415 . S
C504 C509 1.425 . S
C504 C511 1.409 . S
C505 H497 0.930 . S
C505 C503 1.419 . S
C505 C506 1.362 . S
C506 H498 0.930 . S
C506 C505 1.362 . S
C506 C509 1.409 . S
C507 H499 0.930 . S
C507 C508 1.355 . S
C507 C509 1.415 . S
C508 C507 1.355 . S
C508 C510 1.419 . S
C509 C504 1.425 . S
C509 C506 1.409 . S
C509 C507 1.415 . S
C510 H500 0.930 . S
C510 C508 1.419 . S
C510 C511 1.362 . S
C511 H501 0.930 . S
C511 C504 1.409 . S
C511 C510 1.362 . S
H512 C518 0.930 . S
H513 C521 0.930 . S
H514 C522 0.930 . S
H515 C523 0.930 . S
H516 C526 0.930 . S
H517 C527 0.930 . S
C518 H512 0.930 . S
C518 C519 1.355 . S
C518 C520 1.415 . S
C519 C518 1.355 . S
C519 C521 1.419 . S
C520 C518 1.415 . S
C520 C525 1.425 . S
C520 C527 1.409 . S
C521 H513 0.930 . S
C521 C519 1.419 . S
C521 C522 1.362 . S
C522 H514 0.930 . S
C522 C521 1.362 . S
C522 C525 1.409 . S
C523 H515 0.930 . S
C523 C524 1.355 . S
C523 C525 1.415 . S
C524 C523 1.355 . S
C524 C526 1.419 . S
C525 C520 1.425 . S
C525 C522 1.409 . S
C525 C523 1.415 . S
C526 H516 0.930 . S
C526 C524 1.419 . S
C526 C527 1.362 . S
C527 H517 0.930 . S
C527 C520 1.409 . S
C527 C526 1.362 . S
H528 C534 0.930 . S
H529 C537 0.930 . S
H530 C538 0.930 . S
H531 C539 0.930 . S
H532 C542 0.930 . S
H533 C543 0.930 . S
C534 H528 0.930 . S
C534 C535 1.351 1_655 S
C534 C536 1.415 . S
C535 C534 1.351 1_455 S
C535 C537 1.424 . S
C536 C534 1.415 . S
C536 C541 1.425 1_655 S
C536 C543 1.409 . S
C537 H529 0.930 . S
C537 C535 1.424 . S
C537 C538 1.362 . S
C538 H530 0.930 . S
C538 C537 1.362 . S
C538 C541 1.409 . S
C539 H531 0.930 . S
C539 C540 1.355 . S
C539 C541 1.415 . S
C540 C539 1.355 . S
C540 C542 1.419 1_455 S
C541 C536 1.425 1_455 S
C541 C538 1.409 . S
C541 C539 1.415 . S
C542 H532 0.930 . S
C542 C540 1.419 1_655 S
C542 C543 1.362 . S
C543 H533 0.930 . S
C543 C536 1.409 . S
C543 C542 1.362 . S
H544 C550 0.930 . S
H545 C553 0.930 . S
H546 C554 0.930 . S
H547 C555 0.930 . S
H548 C558 0.930 . S
H549 C559 0.930 1_554 S
C550 H544 0.930 . S
C550 C551 1.355 1_565 S
C550 C552 1.415 . S
C551 C550 1.355 1_545 S
C551 C553 1.419 . S
C552 C550 1.415 . S
C552 C557 1.425 1_565 S
C552 C559 1.409 1_554 S
C553 H545 0.930 . S
C553 C551 1.419 . S
C553 C554 1.362 . S
C554 H546 0.930 . S
C554 C553 1.362 . S
C554 C557 1.409 . S
C555 H547 0.930 . S
C555 C556 1.355 1_545 S
C555 C557 1.415 1_556 S
C556 C555 1.355 1_565 S
C556 C558 1.419 . S
C557 C552 1.425 1_545 S
C557 C554 1.409 . S
C557 C555 1.415 1_554 S
C558 H548 0.930 . S
C558 C556 1.419 . S
C558 C559 1.362 . S
C559 H549 0.930 1_556 S
C559 C552 1.409 1_556 S
C559 C558 1.362 . S
H560 C566 0.930 . S
H561 C569 0.930 . S
H562 C570 0.930 . S
H563 C571 0.930 . S
H564 C574 0.930 . S
H565 C575 0.930 . S
C566 H560 0.930 . S
C566 C567 1.355 . S
C566 C568 1.415 . S
C567 C566 1.355 . S
C567 C569 1.419 . S
C568 C566 1.415 . S
C568 C573 1.425 . S
C568 C575 1.409 1_554 S
C569 H561 0.930 . S
C569 C567 1.419 . S
C569 C570 1.362 . S
C570 H562 0.930 . S
C570 C569 1.362 . S
C570 C573 1.409 . S
C571 H563 0.930 . S
C571 C572 1.355 . S
C571 C573 1.415 1_556 S
C572 C571 1.355 . S
C572 C574 1.419 . S
C573 C568 1.425 . S
C573 C570 1.409 . S
C573 C571 1.415 1_554 S
C574 H564 0.930 . S
C574 C572 1.419 . S
C574 C575 1.362 . S
C575 H565 0.930 . S
C575 C568 1.409 1_556 S
C575 C574 1.362 . S
H576 C582 0.930 . S
H577 C585 0.930 . S
H578 C586 0.930 . S
H579 C587 0.930 . S
H580 C590 0.930 . S
H581 C591 0.930 . S
C582 H576 0.930 . S
C582 C583 1.355 . S
C582 C584 1.415 . S
C583 C582 1.355 . S
C583 C585 1.419 . S
C584 C582 1.415 . S
C584 C589 1.425 . S
C584 C591 1.409 . S
C585 H577 0.930 . S
C585 C583 1.419 . S
C585 C586 1.362 . S
C586 H578 0.930 . S
C586 C585 1.362 . S
C586 C589 1.409 . S
C587 H579 0.930 . S
C587 C588 1.355 . S
C587 C589 1.415 1_556 S
C588 C587 1.355 . S
C588 C590 1.419 . S
C589 C584 1.425 . S
C589 C586 1.409 . S
C589 C587 1.415 1_554 S
C590 H580 0.930 . S
C590 C588 1.419 . S
C590 C591 1.362 1_556 S
C591 H581 0.930 . S
C591 C584 1.409 . S
C591 C590 1.362 1_554 S
H592 C598 0.930 . S
H593 C601 0.930 . S
H594 C602 0.930 . S
H595 C603 0.930 . S
H596 C606 0.930 . S
H597 C607 0.930 . S
C598 H592 0.930 . S
C598 C599 1.357 . S
C598 C600 1.415 . S
C599 C598 1.357 . S
C599 C601 1.416 1_655 S
C600 C598 1.415 . S
C600 C605 1.425 1_655 S
C600 C607 1.409 1_554 S
C601 H593 0.930 . S
C601 C599 1.416 1_455 S
C601 C602 1.362 . S
C602 H594 0.930 . S
C602 C601 1.362 . S
C602 C605 1.409 . S
C603 H595 0.930 . S
C603 C604 1.355 1_455 S
C603 C605 1.415 1_556 S
C604 C603 1.355 1_655 S
C604 C606 1.419 . S
C605 C600 1.425 1_455 S
C605 C602 1.409 . S
C605 C603 1.415 1_554 S
C606 H596 0.930 . S
C606 C604 1.419 . S
C606 C607 1.362 . S
C607 H597 0.930 . S
C607 C600 1.409 1_556 S
C607 C606 1.362 . S
H608 C614 0.930 . S
H609 C617 0.930 . S
H610 C618 0.930 . S
H611 C619 0.930 . S
H612 C622 0.930 . S
H613 C623 0.930 . S
C614 H608 0.930 . S
C614 C615 1.355 1_655 S
C614 C616 1.415 . S
C615 C614 1.355 1_455 S
C615 C617 1.419 . S
C616 C614 1.415 . S
C616 C621 1.425 . S
C616 C623 1.409 . S
C617 H609 0.930 . S
C617 C615 1.419 . S
C617 C618 1.362 1_455 S
C618 H610 0.930 . S
C618 C617 1.362 1_655 S
C618 C621 1.409 . S
C619 H611 0.930 . S
C619 C620 1.355 . S
C619 C621 1.415 . S
C620 C619 1.355 . S
C620 C622 1.419 . S
C621 C616 1.425 . S
C621 C618 1.409 . S
C621 C619 1.415 . S
C622 H612 0.930 . S
C622 C620 1.419 . S
C622 C623 1.362 . S
C623 H613 0.930 . S
C623 C616 1.409 . S
C623 C622 1.362 . S
H624 C630 0.930 . S
H625 C633 0.930 . S
H626 C634 0.930 . S
H627 C635 0.930 . S
H628 C638 0.930 . S
H629 C639 0.930 1_545 S
C630 H624 0.930 . S
C630 C631 1.365 . S
C630 C632 1.415 1_545 S
C631 C630 1.365 . S
C631 C633 1.386 1_545 S
C632 C630 1.415 1_565 S
C632 C637 1.425 . S
C632 C639 1.409 . S
C633 H625 0.930 . S
C633 C631 1.386 1_565 S
C633 C634 1.362 . S
C634 H626 0.930 . S
C634 C633 1.362 . S
C634 C637 1.409 . S
C635 H627 0.930 . S
C635 C636 1.355 . S
C635 C637 1.415 . S
C636 C635 1.355 . S
C636 C638 1.419 . S
C637 C632 1.425 . S
C637 C634 1.409 . S
C637 C635 1.415 . S
C638 H628 0.930 . S
C638 C636 1.419 . S
C638 C639 1.362 . S
C639 H629 0.930 1_565 S
C639 C632 1.409 . S
C639 C638 1.362 . S
H640 C646 0.930 . S
H641 C649 0.930 . S
H642 C650 0.930 . S
H643 C651 0.930 . S
H644 C654 0.930 . S
H645 C655 0.930 . S
C646 H640 0.930 . S
C646 C647 1.355 . S
C646 C648 1.415 . S
C647 C646 1.355 . S
C647 C649 1.419 . S
C648 C646 1.415 . S
C648 C653 1.425 . S
C648 C655 1.409 . S
C649 H641 0.930 . S
C649 C647 1.419 . S
C649 C650 1.362 . S
C650 H642 0.930 . S
C650 C649 1.362 . S
C650 C653 1.409 . S
C651 H643 0.930 . S
C651 C652 1.355 . S
C651 C653 1.415 . S
C652 C651 1.355 . S
C652 C654 1.419 . S
C653 C648 1.425 . S
C653 C650 1.409 . S
C653 C651 1.415 . S
C654 H644 0.930 . S
C654 C652 1.419 . S
C654 C655 1.362 . S
C655 H645 0.930 . S
C655 C648 1.409 . S
C655 C654 1.362 . S
H656 C662 0.930 . S
H657 C665 0.930 . S
H658 C666 0.930 . S
H659 C667 0.930 . S
H660 C670 0.930 . S
H661 C671 0.930 . S
C662 H656 0.930 . S
C662 C663 1.355 . S
C662 C664 1.415 . S
C663 C662 1.355 . S
C663 C665 1.419 . S
C664 C662 1.415 . S
C664 C669 1.425 . S
C664 C671 1.409 . S
C665 H657 0.930 . S
C665 C663 1.419 . S
C665 C666 1.362 . S
C666 H658 0.930 . S
C666 C665 1.362 . S
C666 C669 1.409 . S
C667 H659 0.930 . S
C667 C668 1.355 . S
C667 C669 1.415 . S
C668 C667 1.355 . S
C668 C670 1.419 . S
C669 C664 1.425 . S
C669 C666 1.409 . S
C669 C667 1.415 . S
C670 H660 0.930 . S
C670 C668 1.419 . S
C670 C671 1.362 . S
C671 H661 0.930 . S
C671 C664 1.409 . S
C671 C670 1.362 . S
H672 C678 0.930 . S
H673 C681 0.930 . S
H674 C682 0.930 . S
H675 C683 0.930 . S
H676 C686 0.930 . S
H677 C687 0.930 . S
C678 H672 0.930 . S
C678 C679 1.356 . S
C678 C680 1.415 1_655 S
C679 C678 1.356 . S
C679 C681 1.416 1_655 S
C680 C678 1.415 1_455 S
C680 C685 1.425 . S
C680 C687 1.409 1_455 S
C681 H673 0.930 . S
C681 C679 1.416 1_455 S
C681 C682 1.362 . S
C682 H674 0.930 . S
C682 C681 1.362 . S
C682 C685 1.409 . S
C683 H675 0.930 . S
C683 C684 1.355 . S
C683 C685 1.415 1_556 S
C684 C683 1.355 . S
C684 C686 1.419 . S
C685 C680 1.425 . S
C685 C682 1.409 . S
C685 C683 1.415 1_554 S
C686 H676 0.930 . S
C686 C684 1.419 . S
C686 C687 1.362 1_456 S
C687 H677 0.930 . S
C687 C680 1.409 1_655 S
C687 C686 1.362 1_654 S
H688 C694 0.930 1_565 S
H689 C697 0.930 . S
H690 C698 0.930 . S
H691 C699 0.930 . S
H692 C702 0.930 . S
H693 C703 0.930 . S
C694 H688 0.930 1_545 S
C694 C695 1.355 1_545 S
C694 C696 1.415 . S
C695 C694 1.355 1_565 S
C695 C697 1.419 1_564 S
C696 C694 1.415 . S
C696 C701 1.425 1_554 S
C696 C703 1.409 . S
C697 H689 0.930 . S
C697 C695 1.419 1_546 S
C697 C698 1.362 . S
C698 H690 0.930 . S
C698 C697 1.362 . S
C698 C701 1.409 . S
C699 H691 0.930 . S
C699 C700 1.355 . S
C699 C701 1.415 . S
C700 C699 1.355 . S
C700 C702 1.419 1_556 S
C701 C696 1.425 1_556 S
C701 C698 1.409 . S
C701 C699 1.415 . S
C702 H692 0.930 . S
C702 C700 1.419 1_554 S
C702 C703 1.362 . S
C703 H693 0.930 . S
C703 C696 1.409 . S
C703 C702 1.362 . S
H704 C710 0.930 . S
H705 C713 0.930 . S
H706 C714 0.930 . S
H707 C715 0.930 . S
H708 C718 0.930 . S
H709 C719 0.930 . S
C710 H704 0.930 . S
C710 C711 1.355 . S
C710 C712 1.415 . S
C711 C710 1.355 . S
C711 C713 1.419 1_554 S
C712 C710 1.415 . S
C712 C717 1.425 1_554 S
C712 C719 1.409 . S
C713 H705 0.930 . S
C713 C711 1.419 1_556 S
C713 C714 1.362 . S
C714 H706 0.930 . S
C714 C713 1.362 . S
C714 C717 1.409 . S
C715 H707 0.930 . S
C715 C716 1.355 . S
C715 C717 1.415 . S
C716 C715 1.355 . S
C716 C718 1.419 1_556 S
C717 C712 1.425 1_556 S
C717 C714 1.409 . S
C717 C715 1.415 . S
C718 H708 0.930 . S
C718 C716 1.419 1_554 S
C718 C719 1.362 . S
C719 H709 0.930 . S
C719 C712 1.409 . S
C719 C718 1.362 . S
H720 C726 0.930 . S
H721 C729 0.930 . S
H722 C730 0.930 . S
H723 C731 0.930 . S
H724 C734 0.930 . S
H725 C735 0.930 . S
C726 H720 0.930 . S
C726 C727 1.355 . S
C726 C728 1.415 . S
C727 C726 1.355 . S
C727 C729 1.419 . S
C728 C726 1.415 . S
C728 C733 1.425 . S
C728 C735 1.409 1_554 S
C729 H721 0.930 . S
C729 C727 1.419 . S
C729 C730 1.362 . S
C730 H722 0.930 . S
C730 C729 1.362 . S
C730 C733 1.409 . S
C731 H723 0.930 . S
C731 C732 1.355 . S
C731 C733 1.415 1_556 S
C732 C731 1.355 . S
C732 C734 1.419 . S
C733 C728 1.425 . S
C733 C730 1.409 . S
C733 C731 1.415 1_554 S
C734 H724 0.930 . S
C734 C732 1.419 . S
C734 C735 1.362 . S
C735 H725 0.930 . S
C735 C728 1.409 1_556 S
C735 C734 1.362 . S
H736 C742 0.936 . S
H737 C745 0.930 . S
H738 C746 0.930 . S
H739 C747 0.930 . S
H740 C750 0.930 . S
H741 C751 0.930 . S
C742 H736 0.936 . S
C742 C743 1.355 . S
C742 C744 1.415 . S
C743 C742 1.355 . S
C743 C745 1.419 . S
C744 C742 1.415 . S
C744 C749 1.425 . S
C744 C751 1.409 . S
C745 H737 0.930 . S
C745 C743 1.419 . S
C745 C746 1.362 . S
C746 H738 0.930 . S
C746 C745 1.362 . S
C746 C749 1.409 . S
C747 H739 0.930 . S
C747 C748 1.355 . S
C747 C749 1.415 . S
C748 C747 1.355 . S
C748 C750 1.419 . S
C749 C744 1.425 . S
C749 C746 1.409 . S
C749 C747 1.415 . S
C750 H740 0.930 . S
C750 C748 1.419 . S
C750 C751 1.362 . S
C751 H741 0.930 . S
C751 C744 1.409 . S
C751 C750 1.362 . S
H752 C758 0.930 . S
H753 C761 0.930 . S
H754 C762 0.930 . S
H755 C763 0.930 . S
H756 C766 0.930 . S
H757 C767 0.930 . S
C758 H752 0.930 . S
C758 C759 1.355 1_565 S
C758 C760 1.415 1_565 S
C759 C758 1.355 1_545 S
C759 C761 1.419 . S
C760 C758 1.415 1_545 S
C760 C765 1.425 . S
C760 C767 1.409 1_545 S
C761 H753 0.930 . S
C761 C759 1.419 . S
C761 C762 1.362 . S
C762 H754 0.930 . S
C762 C761 1.362 . S
C762 C765 1.409 . S
C763 H755 0.930 . S
C763 C764 1.355 . S
C763 C765 1.415 . S
C764 C763 1.355 . S
C764 C766 1.419 1_545 S
C765 C760 1.425 . S
C765 C762 1.409 . S
C765 C763 1.415 . S
C766 H756 0.930 . S
C766 C764 1.419 1_565 S
C766 C767 1.362 . S
C767 H757 0.930 . S
C767 C760 1.409 1_565 S
C767 C766 1.362 . S
H768 C774 0.930 . S
H769 C777 0.930 . S
H770 C778 0.930 . S
H771 C779 0.930 . S
H772 C782 0.930 . S
H773 C783 0.930 . S
C774 H768 0.930 . S
C774 C775 1.355 . S
C774 C776 1.415 . S
C775 C774 1.355 . S
C775 C777 1.419 . S
C776 C774 1.415 . S
C776 C781 1.425 . S
C776 C783 1.409 . S
C777 H769 0.930 . S
C777 C775 1.419 . S
C777 C778 1.362 . S
C778 H770 0.930 . S
C778 C777 1.362 . S
C778 C781 1.409 . S
C779 H771 0.930 . S
C779 C780 1.355 . S
C779 C781 1.415 . S
C780 C779 1.355 . S
C780 C782 1.419 . S
C781 C776 1.425 . S
C781 C778 1.409 . S
C781 C779 1.415 . S
C782 H772 0.930 . S
C782 C780 1.419 . S
C782 C783 1.362 . S
C783 H773 0.930 . S
C783 C776 1.409 . S
C783 C782 1.362 . S
H784 C790 0.930 . S
H785 C793 0.930 . S
H786 C794 0.930 . S
H787 C795 0.930 . S
H788 C798 0.930 . S
H789 C799 0.930 . S
C790 H784 0.930 . S
C790 C791 1.355 . S
C790 C792 1.415 . S
C791 C790 1.355 . S
C791 C793 1.419 . S
C792 C790 1.415 . S
C792 C797 1.425 . S
C792 C799 1.409 . S
C793 H785 0.930 . S
C793 C791 1.419 . S
C793 C794 1.362 . S
C794 H786 0.930 . S
C794 C793 1.362 . S
C794 C797 1.409 . S
C795 H787 0.930 . S
C795 C796 1.355 . S
C795 C797 1.415 . S
C796 C795 1.355 . S
C796 C798 1.419 . S
C797 C792 1.425 . S
C797 C794 1.409 . S
C797 C795 1.415 . S
C798 H788 0.930 . S
C798 C796 1.419 . S
C798 C799 1.362 . S
C799 H789 0.930 . S
C799 C792 1.409 . S
C799 C798 1.362 . S
H800 C806 0.930 . S
H801 C809 0.930 . S
H802 C810 0.930 . S
H803 C811 0.930 . S
H804 C814 0.930 . S
H805 C815 0.930 . S
C806 H800 0.930 . S
C806 C807 1.355 . S
C806 C808 1.415 . S
C807 C806 1.355 . S
C807 C809 1.419 1_655 S
C808 C806 1.415 . S
C808 C813 1.425 1_655 S
C808 C815 1.409 . S
C809 H801 0.930 . S
C809 C807 1.419 1_455 S
C809 C810 1.362 . S
C810 H802 0.930 . S
C810 C809 1.362 . S
C810 C813 1.409 . S
C811 H803 0.930 . S
C811 C812 1.355 1_455 S
C811 C813 1.415 . S
C812 C811 1.355 1_655 S
C812 C814 1.419 . S
C813 C808 1.425 1_455 S
C813 C810 1.409 . S
C813 C811 1.415 . S
C814 H804 0.930 . S
C814 C812 1.419 . S
C814 C815 1.362 . S
C815 H805 0.930 . S
C815 C808 1.409 . S
C815 C814 1.362 . S
H816 C822 0.930 . S
H817 C825 0.930 . S
H818 C826 0.930 . S
H819 C827 0.930 . S
H820 C830 0.930 . S
H821 C831 0.930 . S
C822 H816 0.930 . S
C822 C823 1.355 1_545 S
C822 C824 1.410 1_545 S
C823 C822 1.355 1_565 S
C823 C825 1.419 . S
C824 C822 1.410 1_565 S
C824 C829 1.446 . S
C824 C831 1.396 1_565 S
C825 H817 0.930 . S
C825 C823 1.419 . S
C825 C826 1.362 . S
C826 H818 0.930 . S
C826 C825 1.362 . S
C826 C829 1.409 . S
C827 H819 0.930 . S
C827 C828 1.355 . S
C827 C829 1.415 . S
C828 C827 1.355 . S
C828 C830 1.419 1_565 S
C829 C824 1.446 . S
C829 C826 1.409 . S
C829 C827 1.415 . S
C830 H820 0.930 . S
C830 C828 1.419 1_545 S
C830 C831 1.362 . S
C831 H821 0.930 . S
C831 C824 1.396 1_545 S
C831 C830 1.362 . S
H832 C838 0.930 . S
H833 C841 0.930 . S
H834 C842 0.930 . S
H835 C843 0.930 . S
H836 C846 0.930 . S
H837 C847 0.930 . S
C838 H832 0.930 . S
C838 C839 1.355 . S
C838 C840 1.415 . S
C839 C838 1.355 . S
C839 C841 1.419 . S
C840 C838 1.415 . S
C840 C845 1.425 . S
C840 C847 1.409 . S
C841 H833 0.930 . S
C841 C839 1.419 . S
C841 C842 1.362 . S
C842 H834 0.930 . S
C842 C841 1.362 . S
C842 C845 1.409 . S
C843 H835 0.930 . S
C843 C844 1.355 . S
C843 C845 1.415 . S
C844 C843 1.355 . S
C844 C846 1.419 . S
C845 C840 1.425 . S
C845 C842 1.409 . S
C845 C843 1.415 . S
C846 H836 0.930 . S
C846 C844 1.419 . S
C846 C847 1.362 . S
C847 H837 0.930 . S
C847 C840 1.409 . S
C847 C846 1.362 . S
H848 C854 0.930 . S
H849 C857 0.930 . S
H850 C858 0.930 . S
H851 C859 0.930 . S
H852 C862 0.930 . S
H853 C863 0.930 . S
C854 H848 0.930 . S
C854 C855 1.355 . S
C854 C856 1.415 . S
C855 C854 1.355 . S
C855 C857 1.419 . S
C856 C854 1.415 . S
C856 C861 1.425 . S
C856 C863 1.409 . S
C857 H849 0.930 . S
C857 C855 1.419 . S
C857 C858 1.362 . S
C858 H850 0.930 . S
C858 C857 1.362 . S
C858 C861 1.409 . S
C859 H851 0.930 . S
C859 C860 1.355 . S
C859 C861 1.415 . S
C860 C859 1.355 . S
C860 C862 1.419 . S
C861 C856 1.425 . S
C861 C858 1.409 . S
C861 C859 1.415 . S
C862 H852 0.930 . S
C862 C860 1.419 . S
C862 C863 1.362 . S
C863 H853 0.930 . S
C863 C856 1.409 . S
C863 C862 1.362 . S
C487 C255 2.425 1_565 S
C492 C330 2.647 1_545 S
C508 C370 2.637 . S
C503 C295 2.362 . S
C524 C410 2.656 . S
C519 C175 2.422 . S
C540 C450 2.650 1_455 S
C535 C215 2.429 . S
C556 C339 2.650 1_565 S
C551 C95 2.401 . S
C567 C135 2.423 . S
C572 C379 2.648 . S
C583 C15 2.357 . S
C588 C419 2.628 . S
C599 C55 2.427 1_655 S
C604 C459 2.649 1_655 S
C620 C336 0.613 . S
C615 C221 0.647 . S
C636 C376 0.517 . S
C631 C261 0.496 . S
C652 C416 0.652 . S
C647 C301 0.654 . S
C663 C181 0.630 . S
C668 C456 0.685 . S
C679 C61 0.594 1_655 S
C684 C327 0.523 . S
C700 C367 0.641 . S
C695 C101 0.718 1_565 S
C716 C407 0.688 . S
C711 C141 0.743 . S
C727 C21 0.569 . S
C732 C447 0.507 . S
C743 C202 3.312 . S
C748 C331 3.741 . S
C759 C242 3.303 . S
C764 C371 3.736 . S
C780 C411 3.730 . S
C775 C282 3.311 . S
C796 C451 3.745 . S
C791 C162 3.307 . S
C807 C42 3.352 1_655 S
C812 C322 3.765 . S
C828 C362 3.732 . S
C823 C82 3.336 1_565 S
C844 C402 3.752 . S
C839 C122 3.341 . S
C855 C2 3.385 . S
C860 C442 3.754 . S
