# Generated by pormake.
# Topology nia, (6,6)-cn, num edge types: 1
# Building blocks:
#     Node 0, Type 0, BuildingBlock: PAMTOO_clean_sbu_0, # of connection points: 6
#     Node 1, Type 0, BuildingBlock: PAMTOO_clean_sbu_0, # of connection points: 6
#     Node 2, Type 1, BuildingBlock: MIDCAF_clean_sbu_0, # of connection points: 6
#     Node 3, Type 1, BuildingBlock: MIDCAF_clean_sbu_0, # of connection points: 6
#     Edge 4, Type (0, 1), BuildingBlock: FUNLAD_clean_linker_1, # of connection points: 2
#     Edge 5, Type (0, 1), BuildingBlock: FUNLAD_clean_linker_1, # of connection points: 2
#     Edge 6, Type (0, 1), BuildingBlock: FUNLAD_clean_linker_1, # of connection points: 2
#     Edge 7, Type (0, 1), BuildingBlock: FUNLAD_clean_linker_1, # of connection points: 2
#     Edge 8, Type (0, 1), BuildingBlock: FUNLAD_clean_linker_1, # of connection points: 2
#     Edge 9, Type (0, 1), BuildingBlock: FUNLAD_clean_linker_1, # of connection points: 2
#     Edge 10, Type (0, 1), BuildingBlock: FUNLAD_clean_linker_1, # of connection points: 2
#     Edge 11, Type (0, 1), BuildingBlock: FUNLAD_clean_linker_1, # of connection points: 2
#     Edge 12, Type (0, 1), BuildingBlock: FUNLAD_clean_linker_1, # of connection points: 2
#     Edge 13, Type (0, 1), BuildingBlock: FUNLAD_clean_linker_1, # of connection points: 2
#     Edge 14, Type (0, 1), BuildingBlock: FUNLAD_clean_linker_1, # of connection points: 2
#     Edge 15, Type (0, 1), BuildingBlock: FUNLAD_clean_linker_1, # of connection points: 2
# Relax obj value: 0.174
# Max RMSD: 0.275
# Mean RMSD: 0.195
data_MOF--net-nia--node1-PAMTOO_clean_sbu_0--node2-MIDCAF_clean_sbu_0--edge1-FUNLAD_clean_linker_1
_symmetry_space_group_name_H-M    P1
_symmetry_Int_Tables_number       1
_symmetry_cell_setting            triclinic
loop_
_symmetry_equiv_pos_as_xyz
'x, y, z'
_cell_length_a     29.586289
_cell_length_b     29.529981
_cell_length_c     35.073081
_cell_angle_alpha  90.733837
_cell_angle_beta   90.736653
_cell_angle_gamma 137.27677
loop_
_atom_site_label
_atom_site_type_symbol
_atom_site_fract_x
_atom_site_fract_y
_atom_site_fract_z
_atom_type_partial_charge
Dy0 Dy 0.01832 0.97895 0.05117 0.0
Dy1 Dy 0.98467 0.02408 0.9789 0.0
C2 C 0.11562 0.05805 0.98191 0.0
O3 O 0.07326 0.08401 0.06192 0.0
O4 O 0.0051 0.08368 0.02989 0.0
O5 O 0.08833 0.00788 0.09461 0.0
O6 O 0.9865 0.9079 0.09349 0.0
O7 O 0.88966 0.9479 1.01009 0.0
O8 O 0.93376 0.96041 0.06881 0.0
O9 O 0.97317 0.94587 0.95502 0.0
O10 O 0.95428 0.89189 1.00953 0.0
O11 O 0.9231 0.99777 0.92994 0.0
O12 O 0.0148 0.10167 0.94395 0.0
C13 C 0.04896 0.10694 0.05728 0.0
O14 O 0.08952 0.01132 1.00646 0.0
O15 O 0.09076 0.08013 0.97505 0.0
C16 C 0.0697 0.92454 0.12501 0.0
C17 C 0.12582 0.88746 0.15794 0.0
C18 C 0.13919 0.90867 0.11999 0.0
C19 C 0.11123 0.92705 0.10365 0.0
C20 C 0.0556 0.90256 0.16248 0.0
C21 C 0.08359 0.88446 0.17883 0.0
C22 C 0.04519 0.95006 0.1106 0.0
C23 C 0.88457 0.93964 0.04709 0.0
C24 C 0.95161 0.89393 0.97221 0.0
C25 C 0.93005 0.07873 0.90983 0.0
C26 C 0.87449 0.1207 0.88574 0.0
C27 C 0.88808 0.12276 0.9247 0.0
C28 C 0.9154 0.10169 0.93672 0.0
C29 C 0.91614 0.07601 0.87102 0.0
C30 C 0.88871 0.09689 0.85897 0.0
C31 C 0.96221 0.05984 0.92118 0.0
H32 H 0.17273 0.91326 0.10319 0.0
H33 H 0.12329 0.94475 0.07479 0.0
H34 H 0.02413 0.90093 0.17948 0.0
H35 H 0.07258 0.86855 0.20807 0.0
H36 H 0.87795 0.14118 0.94591 0.0
H37 H 0.92594 0.10419 0.96683 0.0
H38 H 0.92766 0.0588 0.8499 0.0
H39 H 0.88063 0.09596 0.82868 0.0
Dy40 Dy 0.03661 0.00677 0.49525 0.0
Dy41 Dy 0.95841 0.01324 0.55823 0.0
C42 C 0.942 0.89272 0.55573 0.0
O43 O 0.95714 0.98751 0.46461 0.0
O44 O 0.88416 0.93642 0.51301 0.0
O45 O 0.0314 0.96228 0.44372 0.0
O46 O 0.12682 0.04449 0.47314 0.0
O47 O 0.00299 0.09631 0.51909 0.0
O48 O 0.07863 0.10673 0.48799 0.0
O49 O 0.066 0.09198 0.57506 0.0
O50 O 0.08787 0.03678 0.55261 0.0
O51 O 0.93823 0.01185 0.61746 0.0
O52 O 0.88761 0.01302 0.57282 0.0
C53 C 0.89643 0.94739 0.47661 0.0
O54 O 0.96264 0.90604 0.52064 0.0
O55 O 0.94709 0.93337 0.5769 0.0
C56 C 0.1149 0.96895 0.4349 0.0
C57 C 0.15282 0.90841 0.41356 0.0
C58 C 0.14644 0.91561 0.45225 0.0
C59 C 0.12773 0.94579 0.46291 0.0
C60 C 0.11995 0.96075 0.39633 0.0
C61 C 0.13841 0.93055 0.38566 0.0
C62 C 0.0952 0.00094 0.44459 0.0
C63 C 0.05239 0.12715 0.49569 0.0
C64 C 0.10078 0.08015 0.57645 0.0
C65 C 0.90528 0.06208 0.6333 0.0
C66 C 0.90631 0.14266 0.67817 0.0
C67 C 0.93216 0.16168 0.64128 0.0
C68 C 0.93156 0.12159 0.61899 0.0
C69 C 0.88305 0.04512 0.67077 0.0
C70 C 0.88394 0.08529 0.69311 0.0
C71 C 0.89774 0.01535 0.60949 0.0
H72 H 0.15652 0.89837 0.47431 0.0
H73 H 0.12335 0.95107 0.49286 0.0
H74 H 0.10928 0.97756 0.37433 0.0
H75 H 0.1403 0.92398 0.35554 0.0
H76 H 0.95177 0.20677 0.62932 0.0
H77 H 0.95013 0.13626 0.59036 0.0
H78 H 0.86313 -0.00036 0.6824 0.0
H79 H 0.86416 0.06976 0.72147 0.0
Zn80 Zn 0.33633 0.63578 0.1941 0.0
Zn81 Zn 0.37413 0.67695 0.34287 0.0
Zn82 Zn 0.35768 0.65548 0.26799 0.0
C83 C 0.49927 0.74955 0.31347 0.0
C84 C 0.28752 0.54013 0.33001 0.0
O85 O 0.31449 0.68944 0.24685 0.0
O86 O 0.29464 0.66401 0.18489 0.0
C87 C 0.47325 0.72427 0.20697 0.0
O88 O 0.46506 0.7242 0.28174 0.0
O89 O 0.47111 0.73675 0.34454 0.0
O90 O 0.31329 0.58278 0.35686 0.0
O91 O 0.29945 0.55818 0.29505 0.0
O92 O 0.43025 0.69571 0.18002 0.0
O93 O 0.45555 0.71523 0.24187 0.0
O94 O 0.29137 0.54771 0.25539 0.0
O95 O 0.27692 0.53932 0.19271 0.0
C96 C 0.2653 0.51232 0.22406 0.0
O97 O 0.32151 0.6966 0.28722 0.0
O98 O 0.34269 0.71622 0.34958 0.0
C99 C 0.2931 0.68813 0.21402 0.0
C100 C 0.31994 0.71723 0.31935 0.0
Zn101 Zn 0.66028 0.35878 0.83585 0.0
Zn102 Zn 0.62738 0.32603 0.68404 0.0
Zn103 Zn 0.63924 0.34465 0.75984 0.0
C104 C 0.70927 0.46263 0.7013 0.0
C105 C 0.50004 0.24824 0.71226 0.0
O106 O 0.67052 0.30036 0.78063 0.0
O107 O 0.68579 0.31379 0.84359 0.0
C108 C 0.73941 0.48593 0.80725 0.0
O109 O 0.70003 0.44337 0.73577 0.0
O110 O 0.68205 0.42107 0.67353 0.0
O111 O 0.52874 0.25735 0.68232 0.0
O112 O 0.5334 0.27852 0.74394 0.0
O113 O 0.72975 0.45734 0.8375 0.0
O114 O 0.70877 0.45165 0.77583 0.0
O115 O 0.54174 0.2883 0.78395 0.0
O116 O 0.5667 0.30775 0.8459 0.0
C117 C 0.52441 0.28124 0.8187 0.0
O118 O 0.67822 0.30581 0.74037 0.0
O119 O 0.66771 0.29542 0.67732 0.0
C120 C 0.68453 0.29091 0.81251 0.0
C121 C 0.68674 0.29143 0.70817 0.0
H122 H 0.15806 0.8716 0.20842 0.0
C123 C 0.15647 0.87036 0.17737 0.0
H124 H 0.17771 0.8473 0.12798 0.0
H125 H 0.39683 0.88311 0.20162 0.0
H126 H 0.46571 0.98481 0.16634 0.0
H127 H 0.41802 0.01866 0.13735 0.0
H128 H 0.30092 0.95068 0.14331 0.0
C129 C 0.17885 0.85004 0.1589 0.0
C130 C 0.20826 0.83266 0.17998 0.0
C131 C 0.277 0.87348 0.17682 0.0
C132 C 0.30464 0.85436 0.19395 0.0
C133 C 0.37318 0.89536 0.18951 0.0
C134 C 0.41338 0.95397 0.16931 0.0
C135 C 0.38653 0.973 0.15295 0.0
C136 C 0.31919 0.93342 0.15653 0.0
H137 H 0.22432 0.68607 0.18733 0.0
C138 C 0.26394 0.71193 0.20902 0.0
H139 H 0.33336 0.79844 0.24447 0.0
H140 H 0.07419 0.74272 0.19202 0.0
H141 H 0.00734 0.64557 0.23111 0.0
H142 H 0.05677 0.61579 0.26353 0.0
H143 H 0.17326 0.68284 0.25675 0.0
C144 C 0.2894 0.7682 0.22568 0.0
C145 C 0.26334 0.79426 0.2141 0.0
C146 C 0.19559 0.7559 0.21956 0.0
C147 C 0.16767 0.77441 0.20191 0.0
C148 C 0.09888 0.73278 0.20593 0.0
C149 C 0.05966 0.67644 0.22811 0.0
C150 C 0.08746 0.65961 0.24632 0.0
C151 C 0.15446 0.69851 0.24209 0.0
H152 H 0.1676 0.15607 0.62249 0.0
C153 C 0.15384 0.11556 0.60625 0.0
H154 H 0.16896 0.05632 0.59983 0.0
H155 H 0.45658 0.32899 0.68263 0.0
H156 H 0.47413 0.38672 0.62636 0.0
H157 H 0.3845 0.32966 0.57721 0.0
H158 H 0.27701 0.21515 0.58415 0.0
C159 C 0.18456 0.09896 0.61433 0.0
C160 C 0.23781 0.13544 0.64475 0.0
C161 C 0.30068 0.20255 0.63986 0.0
C162 C 0.35298 0.2349 0.66761 0.0
C163 C 0.41539 0.30182 0.66217 0.0
C164 C 0.42613 0.33559 0.63003 0.0
C165 C 0.37563 0.30352 0.60242 0.0
C166 C 0.31377 0.23773 0.60697 0.0
H167 H 0.39994 0.16349 0.68805 0.0
C168 C 0.42845 0.20497 0.70881 0.0
H169 H 0.43311 0.27122 0.73796 0.0
H170 H 0.1211 0.01006 0.66542 0.0
H171 H 0.10388 0.95428 0.72288 0.0
H172 H 0.19613 0.00989 0.76982 0.0
H173 H 0.3064 0.12248 0.75986 0.0
C174 C 0.40286 0.22563 0.72052 0.0
C175 C 0.3433 0.19926 0.69916 0.0
C176 C 0.27956 0.134 0.70534 0.0
C177 C 0.2266 0.10196 0.67812 0.0
C178 C 0.16329 0.03656 0.68502 0.0
C179 C 0.15274 0.00402 0.71787 0.0
C180 C 0.20471 0.03539 0.74435 0.0
C181 C 0.26763 0.09965 0.73825 0.0
H182 H 0.05647 0.18354 0.07746 0.0
C183 C 0.07087 0.15951 0.08389 0.0
H184 H 0.122 0.15397 0.12278 0.0
H185 H 0.30737 0.45938 0.17113 0.0
H186 H 0.38351 0.47163 0.13304 0.0
H187 H 0.34553 0.3744 0.09876 0.0
H188 H 0.23102 0.2644 0.10225 0.0
C189 C 0.10679 0.17713 0.11599 0.0
C190 C 0.13163 0.23264 0.14141 0.0
C191 C 0.19907 0.29591 0.13992 0.0
C192 C 0.2209 0.35176 0.15975 0.0
C193 C 0.28802 0.41514 0.15665 0.0
C194 C 0.33232 0.42287 0.13493 0.0
C195 C 0.31095 0.36813 0.11564 0.0
C196 C 0.24511 0.3053 0.11789 0.0
H197 H 0.23523 0.42331 0.24617 0.0
C198 C 0.22742 0.44156 0.22324 0.0
H199 H 0.18436 0.42229 0.16869 0.0
H200 H 0.00343 0.1152 0.15676 0.0
H201 H 0.9297 0.10153 0.199 0.0
H202 H 0.96727 0.19889 0.23282 0.0
H203 H 0.07986 0.31066 0.22549 0.0
C204 C 0.1921 0.40369 0.19144 0.0
C205 C 0.17523 0.34378 0.18122 0.0
C206 C 0.10979 0.27937 0.18584 0.0
C207 C 0.08787 0.22346 0.16592 0.0
C208 C 0.02218 0.15942 0.17092 0.0
C209 C 0.97947 0.15096 0.19504 0.0
C210 C 0.00074 0.20581 0.2142 0.0
C211 C 0.06513 0.26953 0.20966 0.0
H212 H 0.89276 0.17292 0.7313 0.0
C213 C 0.8967 0.17801 0.70051 0.0
H214 H 0.88115 0.2085 0.65262 0.0
H215 H 0.66335 0.15873 0.74207 0.0
H216 H 0.60143 0.04328 0.74408 0.0
H217 H 0.65384 0.00923 0.7269 0.0
H218 H 0.76846 0.09081 0.70801 0.0
C219 C 0.88071 0.20538 0.68343 0.0
C220 C 0.855 0.22633 0.70459 0.0
C221 C 0.78768 0.17769 0.7156 0.0
C222 C 0.75759 0.19742 0.72568 0.0
C223 C 0.68961 0.14742 0.73528 0.0
C224 C 0.65308 0.08052 0.73614 0.0
C225 C 0.68255 0.06137 0.72646 0.0
C226 C 0.74869 0.10898 0.71574 0.0
H227 H 0.70367 0.23754 0.68108 0.0
C228 C 0.71681 0.26808 0.70598 0.0
H229 H 0.78147 0.32274 0.75411 0.0
H230 H 0.98791 0.33152 0.69275 0.0
H231 H 0.05425 0.44925 0.6974 0.0
H232 H 0.00273 0.48426 0.71481 0.0
H233 H 0.88508 0.40227 0.72779 0.0
C234 C 0.76294 0.28692 0.73124 0.0
C235 C 0.79548 0.266 0.72553 0.0
C236 C 0.86459 0.31494 0.71842 0.0
C237 C 0.89423 0.29491 0.70786 0.0
C238 C 0.96302 0.34441 0.70032 0.0
C239 C 0.00159 0.41198 0.70304 0.0
C240 C 0.97259 0.43169 0.71289 0.0
C241 C 0.90489 0.384 0.72032 0.0
H242 H 0.7795 0.8848 0.04628 0.0
C243 C 0.82182 0.90705 0.06483 0.0
H244 H 0.85826 0.92861 0.12195 0.0
H245 H 0.63393 0.89696 0.18186 0.0
H246 H 0.7302 0.01746 0.18572 0.0
H247 H 0.83752 0.07227 0.15994 0.0
H248 H 0.84951 0.00682 0.13043 0.0
C249 C 0.81578 0.90435 0.10293 0.0
C250 C 0.75202 0.87085 0.12037 0.0
C251 C 0.74653 0.90967 0.1387 0.0
C252 C 0.68464 0.87801 0.15375 0.0
C253 C 0.67987 0.91821 0.17049 0.0
C254 C 0.73475 0.98751 0.17279 0.0
C255 C 0.79523 0.01837 0.15831 0.0
C256 C 0.8014 0.98022 0.14143 0.0
H257 H 0.57963 0.78735 0.22108 0.0
C258 C 0.54324 0.76563 0.19793 0.0
H259 H 0.52473 0.75059 0.13828 0.0
H260 H 0.74806 0.78131 0.09145 0.0
H261 H 0.65227 0.6607 0.08835 0.0
H262 H 0.54472 0.6058 0.11391 0.0
H263 H 0.53251 0.67123 0.1429 0.0
C264 C 0.56149 0.77407 0.1615 0.0
C265 C 0.62868 0.80752 0.15079 0.0
C266 C 0.63501 0.76861 0.1338 0.0
C267 C 0.6968 0.80024 0.11876 0.0
C268 C 0.70194 0.75999 0.10261 0.0
C269 C 0.64742 0.69064 0.10084 0.0
C270 C 0.58689 0.65974 0.11523 0.0
C271 C 0.58049 0.69794 0.13164 0.0
H272 H 0.90129 0.79326 0.55262 0.0
C273 C 0.9112 0.82932 0.57162 0.0
H274 H 0.90575 0.85082 0.62814 0.0
H275 H 0.66735 0.52026 0.62343 0.0
H276 H 0.60679 0.52907 0.58349 0.0
H277 H 0.66093 0.63858 0.56181 0.0
H278 H 0.77597 0.73988 0.57995 0.0
C279 C 0.89421 0.81461 0.60835 0.0
C280 C 0.86032 0.74904 0.62326 0.0
C281 C 0.79287 0.69033 0.61257 0.0
C282 C 0.76163 0.62728 0.62523 0.0
C283 C 0.69399 0.56945 0.61427 0.0
C284 C 0.65844 0.57378 0.59149 0.0
C285 C 0.68891 0.63541 0.57929 0.0
C286 C 0.75519 0.69317 0.58972 0.0
H287 H 0.76416 0.56588 0.71767 0.0
C288 C 0.74952 0.53295 0.69391 0.0
H289 H 0.75008 0.52242 0.63437 0.0
H290 H 0.98802 0.85272 0.65186 0.0
H291 H 0.04847 0.84437 0.69266 0.0
H292 H -0.00439 0.73477 0.71297 0.0
H293 H 0.88204 0.63297 0.69307 0.0
C294 C 0.76596 0.5558 0.65824 0.0
C295 C 0.79771 0.62299 0.64874 0.0
C296 C 0.86451 0.68204 0.66055 0.0
C297 C 0.89552 0.74524 0.64816 0.0
C298 C 0.9622 0.80348 0.66032 0.0
C299 C -0.00252 0.79943 0.68372 0.0
C300 C 0.96769 0.7377 0.6952 0.0
C301 C 0.90218 0.67955 0.6837 0.0
H302 H 0.16933 0.84772 0.42486 0.0
C303 C 0.1735 0.87677 0.40335 0.0
H304 H 0.20988 0.91746 0.34858 0.0
H305 H 0.40743 0.896 0.35285 0.0
H306 H 0.48473 0.01579 0.35986 0.0
H307 H 0.44381 0.0638 0.36842 0.0
H308 H 0.32532 0.99232 0.36975 0.0
C309 C 0.20004 0.88489 0.36979 0.0
C310 C 0.22409 0.85579 0.36243 0.0
C311 C 0.29348 0.89831 0.36183 0.0
C312 C 0.31706 0.87057 0.35751 0.0
C313 C 0.38671 0.91427 0.35668 0.0
C314 C 0.43169 0.98319 0.36054 0.0
C315 C 0.40865 0.01022 0.36531 0.0
C316 C 0.34045 0.96856 0.36601 0.0
H317 H 0.26295 0.73356 0.29685 0.0
C318 C 0.29071 0.74143 0.32131 0.0
H319 H 0.32626 0.78215 0.37744 0.0
H320 H 0.0882 0.76164 0.35582 0.0
H321 H 0.01047 0.64168 0.34863 0.0
H322 H 0.051 0.59273 0.3455 0.0
H323 H 0.16923 0.66327 0.34862 0.0
C324 C 0.29696 0.77216 0.35284 0.0
C325 C 0.27119 0.80037 0.35403 0.0
C326 C 0.20163 0.75789 0.35336 0.0
C327 C 0.17813 0.78585 0.35682 0.0
C328 C 0.1086 0.74278 0.35456 0.0
C329 C 0.06347 0.67389 0.35029 0.0
C330 C 0.0863 0.64635 0.34842 0.0
C331 C 0.15446 0.68755 0.35001 0.0
H332 H 0.19908 0.07319 0.96988 0.0
C333 C 0.17398 0.08556 0.96082 0.0
H334 H 0.17051 0.13604 0.92083 0.0
H335 H 0.47532 0.34308 0.88265 0.0
H336 H 0.47396 0.4144 0.91624 0.0
H337 H 0.37222 0.36639 0.94701 0.0
H338 H 0.27129 0.2469 0.94433 0.0
C339 C 0.19492 0.12299 0.93006 0.0
C340 C 0.25455 0.15165 0.90931 0.0
C341 C 0.31285 0.22165 0.9109 0.0
C342 C 0.37169 0.24922 0.89361 0.0
C343 C 0.42949 0.31937 0.89582 0.0
C344 C 0.42933 0.36093 0.91486 0.0
C345 C 0.37204 0.33391 0.93214 0.0
C346 C 0.31438 0.26517 0.93032 0.0
H347 H 0.42044 0.22594 0.80417 0.0
C348 C 0.45556 0.24414 0.8274 0.0
H349 H 0.47284 0.25496 0.88707 0.0
H350 H 0.14796 0.01677 0.89521 0.0
H351 H 0.14948 0.94557 0.86162 0.0
H352 H 0.25261 0.99295 0.8335 0.0
H353 H 0.35513 0.11178 0.83911 0.0
C354 C 0.43715 0.23518 0.86381 0.0
C355 C 0.37221 0.2068 0.87484 0.0
C356 C 0.31288 0.13717 0.87135 0.0
C357 C 0.2537 0.10961 0.88829 0.0
C358 C 0.19476 0.04008 0.88386 0.0
C359 C 0.19477 -0.00129 0.86434 0.0
C360 C 0.2529 0.02539 0.84856 0.0
C361 C 0.31143 0.09376 0.85196 0.0
H362 H 0.06795 0.21217 0.48826 0.0
C363 C 0.07891 0.18685 0.47667 0.0
H364 H 0.12288 0.1823 0.43186 0.0
H365 H 0.11756 0.35657 0.32895 0.0
H366 H 0.01776 0.24618 0.30323 0.0
H367 H 0.97416 0.14534 0.3329 0.0
H368 H 0.02944 0.15435 0.38915 0.0
C369 C 0.11422 0.20892 0.44483 0.0
C370 C 0.14209 0.26968 0.42592 0.0
C371 C 0.11004 0.26367 0.39264 0.0
C372 C 0.13625 0.32196 0.3749 0.0
C373 C 0.10125 0.31426 0.34286 0.0
C374 C 0.04357 0.25107 0.32792 0.0
C375 C 0.01891 0.19427 0.3447 0.0
C376 C 0.05123 0.20015 0.37687 0.0
H377 H 0.24214 0.439 0.31915 0.0
C378 C 0.24711 0.47049 0.3396 0.0
H379 H 0.22709 0.48057 0.39459 0.0
H380 H 0.21869 0.29829 0.48728 0.0
H381 H 0.32177 0.40838 0.51126 0.0
H382 H 0.36903 0.50954 0.4798 0.0
H383 H 0.31355 0.50127 0.42429 0.0
C384 C 0.22133 0.44819 0.37445 0.0
C385 C 0.19557 0.38614 0.38998 0.0
C386 C 0.22897 0.39188 0.42243 0.0
C387 C 0.20206 0.33365 0.44046 0.0
C388 C 0.23663 0.3409 0.47265 0.0
C389 C 0.29602 0.40382 0.48666 0.0
C390 C 0.32258 0.46075 0.46898 0.0
C391 C 0.28986 0.4552 0.43721 0.0
H392 H 0.8538 0.17807 0.89516 0.0
C393 C 0.84882 0.14694 0.87425 0.0
H394 H 0.80875 0.10009 0.81902 0.0
H395 H 0.62107 0.13607 0.84799 0.0
H396 H 0.54084 0.01631 0.85341 0.0
H397 H 0.57578 0.96208 0.84885 0.0
H398 H 0.69168 0.02777 0.83907 0.0
C399 C 0.81886 0.13383 0.84028 0.0
C400 C 0.79495 0.16287 0.83244 0.0
C401 C 0.72702 0.12373 0.83686 0.0
C402 C 0.70676 0.15492 0.83855 0.0
C403 C 0.63907 0.11498 0.84521 0.0
C404 C 0.59249 0.04612 0.84865 0.0
C405 C 0.61218 0.01559 0.84618 0.0
C406 C 0.67874 0.05379 0.84065 0.0
H407 H 0.67527 0.2155 0.78914 0.0
C408 C 0.69686 0.25113 0.81247 0.0
H409 H 0.76027 0.29769 0.8615 0.0
H410 H 0.9249 0.24782 0.81389 0.0
H411 H 0.00429 0.3664 0.8023 0.0
H412 H 0.97033 0.4216 0.8059 0.0
H413 H 0.85675 0.35862 0.82025 0.0
C414 C 0.73567 0.25953 0.83896 0.0
C415 C 0.75461 0.22505 0.83467 0.0
C416 C 0.82144 0.26303 0.82665 0.0
C417 C 0.8414 0.23163 0.82513 0.0
C418 C 0.9079 0.26999 0.81623 0.0
C419 C 0.95373 0.33784 0.80936 0.0
C420 C 0.93458 0.3689 0.81137 0.0
C421 C 0.86926 0.33219 0.81978 0.0
H422 H 0.7912 0.88187 0.46005 0.0
C423 C 0.84132 0.91677 0.44928 0.0
H424 H 0.90134 0.96982 0.40136 0.0
H425 H 0.58156 0.71323 0.34096 0.0
H426 H 0.59643 0.6445 0.35489 0.0
H427 H 0.70302 0.69474 0.38244 0.0
H428 H 0.79521 0.81421 0.39665 0.0
C429 C 0.85136 0.93288 0.41235 0.0
C430 C 0.79475 0.90547 0.38692 0.0
C431 C 0.74257 0.83628 0.37733 0.0
C432 C 0.68179 0.80768 0.36064 0.0
C433 C 0.62914 0.73781 0.3532 0.0
C434 C 0.63704 0.69776 0.36104 0.0
C435 C 0.69702 0.72602 0.3766 0.0
C436 C 0.74933 0.79447 0.38478 0.0
H437 H 0.59281 0.79202 0.28918 0.0
C438 C 0.57065 0.7897 0.31455 0.0
H439 H 0.58477 0.81707 0.37296 0.0
H440 H 0.89026 0.0418 0.39477 0.0
H441 H 0.8783 0.11176 0.37647 0.0
H442 H 0.7733 0.06216 0.34653 0.0
H443 H 0.6792 0.94194 0.33493 0.0
C444 C 0.60631 0.81815 0.34766 0.0
C445 C 0.67413 0.84882 0.35302 0.0
C446 C 0.72907 0.91893 0.35849 0.0
C447 C 0.78971 0.94747 0.37542 0.0
C448 C 0.84312 0.01755 0.38185 0.0
C449 C 0.83695 0.05824 0.37144 0.0
C450 C 0.77776 0.0303 0.35463 0.0
C451 C 0.72417 0.96141 0.34827 0.0
H452 H 0.90937 0.79447 0.96318 0.0
C453 C 0.92395 0.83586 0.94878 0.0
H454 H 0.92958 0.87326 0.89586 0.0
H455 H 0.91642 0.68148 0.798 0.0
H456 H 0.02097 0.79159 0.77875 0.0
H457 H 0.06354 0.89345 0.80895 0.0
H458 H 0.00319 0.8864 0.85935 0.0
C459 C 0.91435 0.83187 0.91069 0.0
C460 C 0.88399 0.7716 0.88778 0.0
C461 C 0.92031 0.77711 0.85844 0.0
C462 C 0.89569 0.71838 0.8408 0.0
C463 C 0.93319 0.72472 0.8122 0.0
C464 C -0.00697 0.78746 0.80087 0.0
C465 C 0.01712 0.84489 0.81799 0.0
C466 C 0.98183 0.84012 0.84677 0.0
H467 H 0.77347 0.57796 0.78759 0.0
C468 C 0.77988 0.55747 0.80968 0.0
H469 H 0.82117 0.57268 0.86408 0.0
H470 H 0.79221 0.74453 0.93342 0.0
H471 H 0.68417 0.63485 0.94898 0.0
H472 H 0.64414 0.53292 0.9209 0.0
H473 H 0.71155 0.54025 0.87667 0.0
C474 C 0.81607 0.59387 0.84165 0.0
C475 C 0.83518 0.65488 0.85263 0.0
C476 C 0.79565 0.64957 0.87897 0.0
C477 C 0.81952 0.70808 0.89604 0.0
C478 C 0.77778 0.70153 0.92096 0.0
C479 C 0.71532 0.63888 0.92983 0.0
C480 C 0.69275 0.58152 0.91397 0.0
C481 C 0.73212 0.58647 0.88876 0.0
loop_
_geom_bond_atom_site_label_1
_geom_bond_atom_site_label_2
_geom_bond_distance
_geom_bond_site_symmetry_2
_ccdc_geom_bond_type
Dy0 O3 2.307 1_565 S
Dy0 O5 2.395 . S
Dy0 O6 2.379 . S
Dy0 O8 2.339 1_455 S
Dy0 O10 2.294 1_454 S
Dy0 O14 2.275 1_564 S
Dy0 C22 2.738 . S
Dy1 O4 2.298 1_656 S
Dy1 O7 2.275 1_546 S
Dy1 O9 2.307 1_545 S
Dy1 O11 2.395 . S
Dy1 O12 2.379 . S
Dy1 O15 2.339 1_655 S
Dy1 C31 2.738 . S
C2 O14 1.254 . S
C2 O15 1.257 . S
O3 Dy0 2.307 1_545 S
O3 C13 1.266 . S
O4 Dy1 2.298 1_454 S
O4 C13 1.236 . S
O5 Dy0 2.395 . S
O5 C22 1.255 . S
O6 Dy0 2.379 . S
O6 C22 1.249 . S
O7 Dy1 2.275 1_564 S
O7 C23 1.254 . S
O8 Dy0 2.339 1_655 S
O8 C23 1.257 . S
O9 Dy1 2.307 1_565 S
O9 C24 1.266 . S
O10 Dy0 2.294 1_656 S
O10 C24 1.242 . S
O11 Dy1 2.395 . S
O11 C31 1.255 . S
O12 Dy1 2.379 . S
O12 C31 1.249 . S
C13 O3 1.266 . S
C13 O4 1.236 . S
O14 Dy0 2.275 1_546 S
O14 C2 1.254 . S
O15 Dy1 2.339 1_455 S
O15 C2 1.257 . S
C16 C19 1.344 . S
C16 C20 1.328 . S
C16 C22 1.516 . S
C17 C18 1.304 . S
C17 C21 1.323 . S
C18 C17 1.304 . S
C18 C19 1.371 . S
C18 H32 0.930 . S
C19 C16 1.344 . S
C19 C18 1.371 . S
C19 H33 0.931 . S
C20 C16 1.328 . S
C20 C21 1.433 . S
C20 H34 0.931 . S
C21 C17 1.323 . S
C21 C20 1.433 . S
C21 H35 0.933 . S
C22 Dy0 2.738 . S
C22 O5 1.255 . S
C22 O6 1.249 . S
C22 C16 1.516 . S
C23 O7 1.254 . S
C23 O8 1.257 . S
C24 O9 1.266 . S
C24 O10 1.242 . S
C25 C28 1.344 . S
C25 C29 1.328 . S
C25 C31 1.516 . S
C26 C27 1.304 . S
C26 C30 1.323 . S
C27 C26 1.304 . S
C27 C28 1.371 . S
C27 H36 0.930 . S
C28 C25 1.344 . S
C28 C27 1.371 . S
C28 H37 0.931 . S
C29 C25 1.328 . S
C29 C30 1.433 . S
C29 H38 0.931 . S
C30 C26 1.323 . S
C30 C29 1.433 . S
C30 H39 0.933 . S
C31 Dy1 2.738 . S
C31 O11 1.255 . S
C31 O12 1.249 . S
C31 C25 1.516 . S
H32 C18 0.930 . S
H33 C19 0.931 . S
H34 C20 0.931 . S
H35 C21 0.933 . S
H36 C27 0.930 . S
H37 C28 0.931 . S
H38 C29 0.931 . S
H39 C30 0.933 . S
Dy40 O43 2.307 1_455 S
Dy40 O45 2.395 . S
Dy40 O46 2.379 1_565 S
Dy40 O48 2.339 1_565 S
Dy40 O50 2.298 1_565 S
Dy40 O54 2.275 1_455 S
Dy40 C62 2.738 . S
Dy41 O44 2.298 1_445 S
Dy41 O47 2.275 . S
Dy41 O49 2.307 . S
Dy41 O51 2.395 1_455 S
Dy41 O52 2.379 1_455 S
Dy41 O55 2.339 1_445 S
Dy41 C71 2.738 1_455 S
C42 O54 1.254 . S
C42 O55 1.257 . S
O43 Dy40 2.307 1_655 S
O43 C53 1.266 . S
O44 Dy41 2.298 1_665 S
O44 C53 1.236 . S
O45 Dy40 2.395 . S
O45 C62 1.255 . S
O46 Dy40 2.379 1_545 S
O46 C62 1.249 1_545 S
O47 Dy41 2.275 . S
O47 C63 1.254 . S
O48 Dy40 2.339 1_545 S
O48 C63 1.257 . S
O49 Dy41 2.307 . S
O49 C64 1.266 . S
O50 Dy40 2.298 1_545 S
O50 C64 1.236 . S
O51 Dy41 2.395 1_655 S
O51 C71 1.255 . S
O52 Dy41 2.379 1_655 S
O52 C71 1.249 . S
C53 O43 1.266 . S
C53 O44 1.236 . S
O54 Dy40 2.275 1_655 S
O54 C42 1.254 . S
O55 Dy41 2.339 1_665 S
O55 C42 1.257 . S
C56 C59 1.344 . S
C56 C60 1.328 . S
C56 C62 1.516 . S
C57 C58 1.304 . S
C57 C61 1.323 . S
C58 C57 1.304 . S
C58 C59 1.371 . S
C58 H72 0.930 . S
C59 C56 1.344 . S
C59 C58 1.371 . S
C59 H73 0.931 . S
C60 C56 1.328 . S
C60 C61 1.433 . S
C60 H74 0.931 . S
C61 C57 1.323 . S
C61 C60 1.433 . S
C61 H75 0.933 . S
C62 Dy40 2.738 . S
C62 O45 1.255 . S
C62 O46 1.249 1_565 S
C62 C56 1.516 . S
C63 O47 1.254 . S
C63 O48 1.257 . S
C64 O49 1.266 . S
C64 O50 1.236 . S
C65 C68 1.344 . S
C65 C69 1.328 . S
C65 C71 1.516 . S
C66 C67 1.304 . S
C66 C70 1.323 . S
C67 C66 1.304 . S
C67 C68 1.371 . S
C67 H76 0.930 . S
C68 C65 1.344 . S
C68 C67 1.371 . S
C68 H77 0.931 . S
C69 C65 1.328 . S
C69 C70 1.433 . S
C69 H78 0.931 . S
C70 C66 1.323 . S
C70 C69 1.433 . S
C70 H79 0.933 . S
C71 Dy41 2.738 1_655 S
C71 O51 1.255 . S
C71 O52 1.249 . S
C71 C65 1.516 . S
H72 C58 0.930 . S
H73 C59 0.931 . S
H74 C60 0.931 . S
H75 C61 0.933 . S
H76 C67 0.930 . S
H77 C68 0.931 . S
H78 C69 0.931 . S
H79 C70 0.933 . S
Zn80 O86 1.920 . S
Zn80 O92 1.898 . S
Zn80 O95 1.905 . S
Zn81 O89 1.905 . S
Zn81 O90 1.898 . S
Zn81 O98 1.920 . S
Zn82 O85 2.080 . S
Zn82 O88 2.114 . S
Zn82 O91 2.120 . S
Zn82 O93 2.120 . S
Zn82 O94 2.114 . S
Zn82 O97 2.080 . S
C83 O88 1.166 . S
C83 O89 1.182 . S
C84 O90 1.167 . S
C84 O91 1.299 . S
O85 Zn82 2.080 . S
O85 C99 1.305 . S
O86 Zn80 1.920 . S
O86 C99 1.234 . S
C87 O92 1.167 . S
C87 O93 1.299 . S
O88 Zn82 2.114 . S
O88 C83 1.166 . S
O89 Zn81 1.905 . S
O89 C83 1.182 . S
O90 Zn81 1.898 . S
O90 C84 1.167 . S
O91 Zn82 2.120 . S
O91 C84 1.299 . S
O92 Zn80 1.898 . S
O92 C87 1.167 . S
O93 Zn82 2.120 . S
O93 C87 1.299 . S
O94 Zn82 2.114 . S
O94 C96 1.166 . S
O95 Zn80 1.905 . S
O95 C96 1.182 . S
C96 O94 1.166 . S
C96 O95 1.182 . S
O97 Zn82 2.080 . S
O97 C100 1.305 . S
O98 Zn81 1.920 . S
O98 C100 1.234 . S
C99 O85 1.305 . S
C99 O86 1.234 . S
C100 O97 1.305 . S
C100 O98 1.234 . S
Zn101 O107 1.920 . S
Zn101 O113 1.898 . S
Zn101 O116 1.905 . S
Zn102 O110 1.905 . S
Zn102 O111 1.898 . S
Zn102 O119 1.920 . S
Zn103 O106 2.080 . S
Zn103 O109 2.114 . S
Zn103 O112 2.120 . S
Zn103 O114 2.120 . S
Zn103 O115 2.114 . S
Zn103 O118 2.080 . S
C104 O109 1.166 . S
C104 O110 1.182 . S
C105 O111 1.167 . S
C105 O112 1.299 . S
O106 Zn103 2.080 . S
O106 C120 1.305 . S
O107 Zn101 1.920 . S
O107 C120 1.234 . S
C108 O113 1.167 . S
C108 O114 1.299 . S
O109 Zn103 2.114 . S
O109 C104 1.166 . S
O110 Zn102 1.905 . S
O110 C104 1.182 . S
O111 Zn102 1.898 . S
O111 C105 1.167 . S
O112 Zn103 2.120 . S
O112 C105 1.299 . S
O113 Zn101 1.898 . S
O113 C108 1.167 . S
O114 Zn103 2.120 . S
O114 C108 1.299 . S
O115 Zn103 2.114 . S
O115 C117 1.166 . S
O116 Zn101 1.905 . S
O116 C117 1.182 . S
C117 O115 1.166 . S
C117 O116 1.182 . S
O118 Zn103 2.080 . S
O118 C121 1.305 . S
O119 Zn102 1.920 . S
O119 C121 1.234 . S
C120 O106 1.305 . S
C120 O107 1.234 . S
C121 O118 1.305 . S
C121 O119 1.234 . S
H122 C123 0.951 . S
C123 H122 0.951 . S
C123 C129 1.265 . S
H124 C129 0.950 . S
H125 C133 0.949 . S
H126 C134 0.950 . S
H127 C135 0.951 . S
H128 C136 0.951 . S
C129 C123 1.265 . S
C129 H124 0.950 . S
C129 C130 1.478 . S
C130 C129 1.478 . S
C130 C131 1.397 . S
C130 C147 1.394 . S
C131 C130 1.397 . S
C131 C132 1.438 . S
C131 C136 1.429 . S
C132 C131 1.438 . S
C132 C133 1.428 . S
C132 C145 1.394 . S
C133 H125 0.949 . S
C133 C132 1.428 . S
C133 C134 1.345 . S
C134 H126 0.950 . S
C134 C133 1.345 . S
C134 C135 1.424 . S
C135 H127 0.951 . S
C135 C134 1.424 . S
C135 C136 1.347 . S
C136 H128 0.951 . S
C136 C131 1.429 . S
C136 C135 1.347 . S
H137 C138 0.951 . S
C138 H137 0.951 . S
C138 C144 1.265 . S
H139 C144 0.950 . S
H140 C148 0.949 . S
H141 C149 0.950 1_655 S
H142 C150 0.953 . S
H143 C151 0.951 . S
C144 C138 1.265 . S
C144 H139 0.950 . S
C144 C145 1.478 . S
C145 C132 1.394 . S
C145 C144 1.478 . S
C145 C146 1.397 . S
C146 C145 1.397 . S
C146 C147 1.438 . S
C146 C151 1.429 . S
C147 C130 1.394 . S
C147 C146 1.438 . S
C147 C148 1.428 . S
C148 H140 0.949 . S
C148 C147 1.428 . S
C148 C149 1.345 . S
C149 H141 0.950 1_455 S
C149 C148 1.345 . S
C149 C150 1.424 . S
C150 H142 0.953 . S
C150 C149 1.424 . S
C150 C151 1.347 . S
C151 H143 0.951 . S
C151 C146 1.429 . S
C151 C150 1.347 . S
H152 C153 0.951 . S
C153 H152 0.951 . S
C153 C159 1.265 . S
H154 C159 0.950 . S
H155 C163 0.949 . S
H156 C164 0.950 . S
H157 C165 0.951 . S
H158 C166 0.951 . S
C159 C153 1.265 . S
C159 H154 0.950 . S
C159 C160 1.478 . S
C160 C159 1.478 . S
C160 C161 1.397 . S
C160 C177 1.394 . S
C161 C160 1.397 . S
C161 C162 1.438 . S
C161 C166 1.429 . S
C162 C161 1.438 . S
C162 C163 1.428 . S
C162 C175 1.394 . S
C163 H155 0.949 . S
C163 C162 1.428 . S
C163 C164 1.345 . S
C164 H156 0.950 . S
C164 C163 1.345 . S
C164 C165 1.424 . S
C165 H157 0.951 . S
C165 C164 1.424 . S
C165 C166 1.347 . S
C166 H158 0.951 . S
C166 C161 1.429 . S
C166 C165 1.347 . S
H167 C168 0.951 . S
C168 H167 0.951 . S
C168 C174 1.265 . S
H169 C174 0.950 . S
H170 C178 0.949 . S
H171 C179 0.950 . S
H172 C180 0.951 . S
H173 C181 0.951 . S
C174 C168 1.265 . S
C174 H169 0.950 . S
C174 C175 1.478 . S
C175 C162 1.394 . S
C175 C174 1.478 . S
C175 C176 1.397 . S
C176 C175 1.397 . S
C176 C177 1.438 . S
C176 C181 1.429 . S
C177 C160 1.394 . S
C177 C176 1.438 . S
C177 C178 1.428 . S
C178 H170 0.949 . S
C178 C177 1.428 . S
C178 C179 1.345 . S
C179 H171 0.950 . S
C179 C178 1.345 . S
C179 C180 1.424 . S
C180 H172 0.951 . S
C180 C179 1.424 . S
C180 C181 1.347 . S
C181 H173 0.951 . S
C181 C176 1.429 . S
C181 C180 1.347 . S
H182 C183 0.951 . S
C183 H182 0.951 . S
C183 C189 1.265 . S
H184 C189 0.950 . S
H185 C193 0.949 . S
H186 C194 0.950 . S
H187 C195 0.951 . S
H188 C196 0.951 . S
C189 C183 1.265 . S
C189 H184 0.950 . S
C189 C190 1.478 . S
C190 C189 1.478 . S
C190 C191 1.397 . S
C190 C207 1.394 . S
C191 C190 1.397 . S
C191 C192 1.438 . S
C191 C196 1.429 . S
C192 C191 1.438 . S
C192 C193 1.428 . S
C192 C205 1.394 . S
C193 H185 0.949 . S
C193 C192 1.428 . S
C193 C194 1.345 . S
C194 H186 0.950 . S
C194 C193 1.345 . S
C194 C195 1.424 . S
C195 H187 0.951 . S
C195 C194 1.424 . S
C195 C196 1.347 . S
C196 H188 0.951 . S
C196 C191 1.429 . S
C196 C195 1.347 . S
H197 C198 0.951 . S
C198 H197 0.951 . S
C198 C204 1.265 . S
H199 C204 0.950 . S
H200 C208 0.949 . S
H201 C209 0.950 . S
H202 C210 0.951 . S
H203 C211 0.951 . S
C204 C198 1.265 . S
C204 H199 0.950 . S
C204 C205 1.478 . S
C205 C192 1.394 . S
C205 C204 1.478 . S
C205 C206 1.397 . S
C206 C205 1.397 . S
C206 C207 1.438 . S
C206 C211 1.429 . S
C207 C190 1.394 . S
C207 C206 1.438 . S
C207 C208 1.428 . S
C208 H200 0.949 . S
C208 C207 1.428 . S
C208 C209 1.345 . S
C209 H201 0.950 . S
C209 C208 1.345 . S
C209 C210 1.424 . S
C210 H202 0.951 . S
C210 C209 1.424 . S
C210 C211 1.347 . S
C211 H203 0.951 . S
C211 C206 1.429 . S
C211 C210 1.347 . S
H212 C213 0.951 . S
C213 H212 0.951 . S
C213 C219 1.265 . S
H214 C219 0.950 . S
H215 C223 0.949 . S
H216 C224 0.950 . S
H217 C225 0.951 . S
H218 C226 0.951 . S
C219 C213 1.265 . S
C219 H214 0.950 . S
C219 C220 1.478 . S
C220 C219 1.478 . S
C220 C221 1.397 . S
C220 C237 1.394 . S
C221 C220 1.397 . S
C221 C222 1.438 . S
C221 C226 1.429 . S
C222 C221 1.438 . S
C222 C223 1.428 . S
C222 C235 1.394 . S
C223 H215 0.949 . S
C223 C222 1.428 . S
C223 C224 1.345 . S
C224 H216 0.950 . S
C224 C223 1.345 . S
C224 C225 1.424 . S
C225 H217 0.951 . S
C225 C224 1.424 . S
C225 C226 1.347 . S
C226 H218 0.951 . S
C226 C221 1.429 . S
C226 C225 1.347 . S
H227 C228 0.951 . S
C228 H227 0.951 . S
C228 C234 1.265 . S
H229 C234 0.950 . S
H230 C238 0.949 . S
H231 C239 0.950 . S
H232 C240 0.951 . S
H233 C241 0.951 . S
C234 C228 1.265 . S
C234 H229 0.950 . S
C234 C235 1.478 . S
C235 C222 1.394 . S
C235 C234 1.478 . S
C235 C236 1.397 . S
C236 C235 1.397 . S
C236 C237 1.438 . S
C236 C241 1.429 . S
C237 C220 1.394 . S
C237 C236 1.438 . S
C237 C238 1.428 . S
C238 H230 0.949 . S
C238 C237 1.428 . S
C238 C239 1.345 . S
C239 H231 0.950 . S
C239 C238 1.345 . S
C239 C240 1.424 . S
C240 H232 0.951 . S
C240 C239 1.424 . S
C240 C241 1.347 . S
C241 H233 0.951 . S
C241 C236 1.429 . S
C241 C240 1.347 . S
H242 C243 0.951 . S
C243 H242 0.951 . S
C243 C249 1.265 . S
H244 C249 0.950 . S
H245 C253 0.949 . S
H246 C254 0.950 . S
H247 C255 0.951 . S
H248 C256 0.951 1_545 S
C249 C243 1.265 . S
C249 H244 0.950 . S
C249 C250 1.478 . S
C250 C249 1.478 . S
C250 C251 1.397 . S
C250 C267 1.394 . S
C251 C250 1.397 . S
C251 C252 1.438 . S
C251 C256 1.429 . S
C252 C251 1.438 . S
C252 C253 1.428 . S
C252 C265 1.394 . S
C253 H245 0.949 . S
C253 C252 1.428 . S
C253 C254 1.345 1_565 S
C254 H246 0.950 . S
C254 C253 1.345 1_545 S
C254 C255 1.424 . S
C255 H247 0.951 . S
C255 C254 1.424 . S
C255 C256 1.347 1_545 S
C256 H248 0.951 1_565 S
C256 C251 1.429 . S
C256 C255 1.347 1_565 S
H257 C258 0.951 . S
C258 H257 0.951 . S
C258 C264 1.265 . S
H259 C264 0.950 . S
H260 C268 0.949 . S
H261 C269 0.950 . S
H262 C270 0.951 . S
H263 C271 0.951 . S
C264 C258 1.265 . S
C264 H259 0.950 . S
C264 C265 1.478 . S
C265 C252 1.394 . S
C265 C264 1.478 . S
C265 C266 1.397 . S
C266 C265 1.397 . S
C266 C267 1.438 . S
C266 C271 1.429 . S
C267 C250 1.394 . S
C267 C266 1.438 . S
C267 C268 1.428 . S
C268 H260 0.949 . S
C268 C267 1.428 . S
C268 C269 1.345 . S
C269 H261 0.950 . S
C269 C268 1.345 . S
C269 C270 1.424 . S
C270 H262 0.951 . S
C270 C269 1.424 . S
C270 C271 1.347 . S
C271 H263 0.951 . S
C271 C266 1.429 . S
C271 C270 1.347 . S
H272 C273 0.951 . S
C273 H272 0.951 . S
C273 C279 1.265 . S
H274 C279 0.950 . S
H275 C283 0.949 . S
H276 C284 0.950 . S
H277 C285 0.951 . S
H278 C286 0.951 . S
C279 C273 1.265 . S
C279 H274 0.950 . S
C279 C280 1.478 . S
C280 C279 1.478 . S
C280 C281 1.397 . S
C280 C297 1.394 . S
C281 C280 1.397 . S
C281 C282 1.438 . S
C281 C286 1.429 . S
C282 C281 1.438 . S
C282 C283 1.428 . S
C282 C295 1.394 . S
C283 H275 0.949 . S
C283 C282 1.428 . S
C283 C284 1.345 . S
C284 H276 0.950 . S
C284 C283 1.345 . S
C284 C285 1.424 . S
C285 H277 0.951 . S
C285 C284 1.424 . S
C285 C286 1.347 . S
C286 H278 0.951 . S
C286 C281 1.429 . S
C286 C285 1.347 . S
H287 C288 0.951 . S
C288 H287 0.951 . S
C288 C294 1.265 . S
H289 C294 0.950 . S
H290 C298 0.949 . S
H291 C299 0.950 1_455 S
H292 C300 0.941 1_455 S
H293 C301 0.951 . S
C294 C288 1.265 . S
C294 H289 0.950 . S
C294 C295 1.478 . S
C295 C282 1.394 . S
C295 C294 1.478 . S
C295 C296 1.397 . S
C296 C295 1.397 . S
C296 C297 1.438 . S
C296 C301 1.429 . S
C297 C280 1.394 . S
C297 C296 1.438 . S
C297 C298 1.428 . S
C298 H290 0.949 . S
C298 C297 1.428 . S
C298 C299 1.345 . S
C299 H291 0.950 1_655 S
C299 C298 1.345 . S
C299 C300 1.424 . S
C300 H292 0.941 1_655 S
C300 C299 1.424 . S
C300 C301 1.347 . S
C301 H293 0.951 . S
C301 C296 1.429 . S
C301 C300 1.347 . S
H302 C303 0.951 . S
C303 H302 0.951 . S
C303 C309 1.265 . S
H304 C309 0.950 . S
H305 C313 0.949 . S
H306 C314 0.950 . S
H307 C315 0.951 1_545 S
H308 C316 0.951 . S
C309 C303 1.265 . S
C309 H304 0.950 . S
C309 C310 1.478 . S
C310 C309 1.478 . S
C310 C311 1.397 . S
C310 C327 1.394 . S
C311 C310 1.397 . S
C311 C312 1.438 . S
C311 C316 1.429 . S
C312 C311 1.438 . S
C312 C313 1.428 . S
C312 C325 1.394 . S
C313 H305 0.949 . S
C313 C312 1.428 . S
C313 C314 1.345 . S
C314 H306 0.950 . S
C314 C313 1.345 . S
C314 C315 1.424 . S
C315 H307 0.951 1_565 S
C315 C314 1.424 . S
C315 C316 1.347 . S
C316 H308 0.951 . S
C316 C311 1.429 . S
C316 C315 1.347 . S
H317 C318 0.951 . S
C318 H317 0.951 . S
C318 C324 1.265 . S
H319 C324 0.950 . S
H320 C328 0.949 . S
H321 C329 0.950 . S
H322 C330 0.951 . S
H323 C331 0.951 . S
C324 C318 1.265 . S
C324 H319 0.950 . S
C324 C325 1.478 . S
C325 C312 1.394 . S
C325 C324 1.478 . S
C325 C326 1.397 . S
C326 C325 1.397 . S
C326 C327 1.438 . S
C326 C331 1.429 . S
C327 C310 1.394 . S
C327 C326 1.438 . S
C327 C328 1.428 . S
C328 H320 0.949 . S
C328 C327 1.428 . S
C328 C329 1.345 . S
C329 H321 0.950 . S
C329 C328 1.345 . S
C329 C330 1.424 . S
C330 H322 0.951 . S
C330 C329 1.424 . S
C330 C331 1.347 . S
C331 H323 0.951 . S
C331 C326 1.429 . S
C331 C330 1.347 . S
H332 C333 0.951 . S
C333 H332 0.951 . S
C333 C339 1.265 . S
H334 C339 0.950 . S
H335 C343 0.949 . S
H336 C344 0.950 . S
H337 C345 0.951 . S
H338 C346 0.951 . S
C339 C333 1.265 . S
C339 H334 0.950 . S
C339 C340 1.478 . S
C340 C339 1.478 . S
C340 C341 1.397 . S
C340 C357 1.394 . S
C341 C340 1.397 . S
C341 C342 1.438 . S
C341 C346 1.429 . S
C342 C341 1.438 . S
C342 C343 1.428 . S
C342 C355 1.394 . S
C343 H335 0.949 . S
C343 C342 1.428 . S
C343 C344 1.345 . S
C344 H336 0.950 . S
C344 C343 1.345 . S
C344 C345 1.424 . S
C345 H337 0.951 . S
C345 C344 1.424 . S
C345 C346 1.347 . S
C346 H338 0.951 . S
C346 C341 1.429 . S
C346 C345 1.347 . S
H347 C348 0.951 . S
C348 H347 0.951 . S
C348 C354 1.265 . S
H349 C354 0.950 . S
H350 C358 0.949 . S
H351 C359 0.950 . S
H352 C360 0.951 . S
H353 C361 0.951 . S
C354 C348 1.265 . S
C354 H349 0.950 . S
C354 C355 1.478 . S
C355 C342 1.394 . S
C355 C354 1.478 . S
C355 C356 1.397 . S
C356 C355 1.397 . S
C356 C357 1.438 . S
C356 C361 1.429 . S
C357 C340 1.394 . S
C357 C356 1.438 . S
C357 C358 1.428 . S
C358 H350 0.949 . S
C358 C357 1.428 . S
C358 C359 1.345 . S
C359 H351 0.950 . S
C359 C358 1.345 . S
C359 C360 1.424 . S
C360 H352 0.951 . S
C360 C359 1.424 . S
C360 C361 1.347 . S
C361 H353 0.951 . S
C361 C356 1.429 . S
C361 C360 1.347 . S
H362 C363 0.951 . S
C363 H362 0.951 . S
C363 C369 1.265 . S
H364 C369 0.950 . S
H365 C373 0.949 . S
H366 C374 0.950 . S
H367 C375 0.951 . S
H368 C376 0.951 . S
C369 C363 1.265 . S
C369 H364 0.950 . S
C369 C370 1.478 . S
C370 C369 1.478 . S
C370 C371 1.397 . S
C370 C387 1.394 . S
C371 C370 1.397 . S
C371 C372 1.438 . S
C371 C376 1.429 . S
C372 C371 1.438 . S
C372 C373 1.428 . S
C372 C385 1.394 . S
C373 H365 0.949 . S
C373 C372 1.428 . S
C373 C374 1.345 . S
C374 H366 0.950 . S
C374 C373 1.345 . S
C374 C375 1.424 . S
C375 H367 0.951 . S
C375 C374 1.424 . S
C375 C376 1.347 . S
C376 H368 0.951 . S
C376 C371 1.429 . S
C376 C375 1.347 . S
H377 C378 0.951 . S
C378 H377 0.951 . S
C378 C384 1.265 . S
H379 C384 0.950 . S
H380 C388 0.949 . S
H381 C389 0.950 . S
H382 C390 0.951 . S
H383 C391 0.951 . S
C384 C378 1.265 . S
C384 H379 0.950 . S
C384 C385 1.478 . S
C385 C372 1.394 . S
C385 C384 1.478 . S
C385 C386 1.397 . S
C386 C385 1.397 . S
C386 C387 1.438 . S
C386 C391 1.429 . S
C387 C370 1.394 . S
C387 C386 1.438 . S
C387 C388 1.428 . S
C388 H380 0.949 . S
C388 C387 1.428 . S
C388 C389 1.345 . S
C389 H381 0.950 . S
C389 C388 1.345 . S
C389 C390 1.424 . S
C390 H382 0.951 . S
C390 C389 1.424 . S
C390 C391 1.347 . S
C391 H383 0.951 . S
C391 C386 1.429 . S
C391 C390 1.347 . S
H392 C393 0.951 . S
C393 H392 0.951 . S
C393 C399 1.265 . S
H394 C399 0.950 . S
H395 C403 0.949 . S
H396 C404 0.950 . S
H397 C405 0.951 . S
H398 C406 0.951 . S
C399 C393 1.265 . S
C399 H394 0.950 . S
C399 C400 1.478 . S
C400 C399 1.478 . S
C400 C401 1.397 . S
C400 C417 1.394 . S
C401 C400 1.397 . S
C401 C402 1.438 . S
C401 C406 1.429 . S
C402 C401 1.438 . S
C402 C403 1.428 . S
C402 C415 1.394 . S
C403 H395 0.949 . S
C403 C402 1.428 . S
C403 C404 1.345 . S
C404 H396 0.950 . S
C404 C403 1.345 . S
C404 C405 1.424 . S
C405 H397 0.951 . S
C405 C404 1.424 . S
C405 C406 1.347 . S
C406 H398 0.951 . S
C406 C401 1.429 . S
C406 C405 1.347 . S
H407 C408 0.951 . S
C408 H407 0.951 . S
C408 C414 1.265 . S
H409 C414 0.950 . S
H410 C418 0.949 . S
H411 C419 0.950 . S
H412 C420 0.951 . S
H413 C421 0.951 . S
C414 C408 1.265 . S
C414 H409 0.950 . S
C414 C415 1.478 . S
C415 C402 1.394 . S
C415 C414 1.478 . S
C415 C416 1.397 . S
C416 C415 1.397 . S
C416 C417 1.438 . S
C416 C421 1.429 . S
C417 C400 1.394 . S
C417 C416 1.438 . S
C417 C418 1.428 . S
C418 H410 0.949 . S
C418 C417 1.428 . S
C418 C419 1.345 . S
C419 H411 0.950 . S
C419 C418 1.345 . S
C419 C420 1.424 . S
C420 H412 0.951 . S
C420 C419 1.424 . S
C420 C421 1.347 . S
C421 H413 0.951 . S
C421 C416 1.429 . S
C421 C420 1.347 . S
H422 C423 0.951 . S
C423 H422 0.951 . S
C423 C429 1.265 . S
H424 C429 0.950 . S
H425 C433 0.949 . S
H426 C434 0.950 . S
H427 C435 0.951 . S
H428 C436 0.951 . S
C429 C423 1.265 . S
C429 H424 0.950 . S
C429 C430 1.478 . S
C430 C429 1.478 . S
C430 C431 1.397 . S
C430 C447 1.394 . S
C431 C430 1.397 . S
C431 C432 1.438 . S
C431 C436 1.429 . S
C432 C431 1.438 . S
C432 C433 1.428 . S
C432 C445 1.394 . S
C433 H425 0.949 . S
C433 C432 1.428 . S
C433 C434 1.345 . S
C434 H426 0.950 . S
C434 C433 1.345 . S
C434 C435 1.424 . S
C435 H427 0.951 . S
C435 C434 1.424 . S
C435 C436 1.347 . S
C436 H428 0.951 . S
C436 C431 1.429 . S
C436 C435 1.347 . S
H437 C438 0.951 . S
C438 H437 0.951 . S
C438 C444 1.265 . S
H439 C444 0.950 . S
H440 C448 0.949 . S
H441 C449 0.950 . S
H442 C450 0.951 . S
H443 C451 0.951 . S
C444 C438 1.265 . S
C444 H439 0.950 . S
C444 C445 1.478 . S
C445 C432 1.394 . S
C445 C444 1.478 . S
C445 C446 1.397 . S
C446 C445 1.397 . S
C446 C447 1.438 . S
C446 C451 1.429 . S
C447 C430 1.394 . S
C447 C446 1.438 . S
C447 C448 1.428 . S
C448 H440 0.949 . S
C448 C447 1.428 . S
C448 C449 1.345 . S
C449 H441 0.950 . S
C449 C448 1.345 . S
C449 C450 1.424 . S
C450 H442 0.951 . S
C450 C449 1.424 . S
C450 C451 1.347 . S
C451 H443 0.951 . S
C451 C446 1.429 . S
C451 C450 1.347 . S
H452 C453 0.951 . S
C453 H452 0.951 . S
C453 C459 1.265 . S
H454 C459 0.950 . S
H455 C463 0.949 . S
H456 C464 0.950 . S
H457 C465 0.951 . S
H458 C466 0.951 . S
C459 C453 1.265 . S
C459 H454 0.950 . S
C459 C460 1.478 . S
C460 C459 1.478 . S
C460 C461 1.397 . S
C460 C477 1.394 . S
C461 C460 1.397 . S
C461 C462 1.438 . S
C461 C466 1.429 . S
C462 C461 1.438 . S
C462 C463 1.428 . S
C462 C475 1.394 . S
C463 H455 0.949 . S
C463 C462 1.428 . S
C463 C464 1.345 . S
C464 H456 0.950 . S
C464 C463 1.345 . S
C464 C465 1.424 . S
C465 H457 0.951 . S
C465 C464 1.424 . S
C465 C466 1.347 . S
C466 H458 0.951 . S
C466 C461 1.429 . S
C466 C465 1.347 . S
H467 C468 0.951 . S
C468 H467 0.951 . S
C468 C474 1.265 . S
H469 C474 0.950 . S
H470 C478 0.949 . S
H471 C479 0.950 1_554 S
H472 C480 0.951 . S
H473 C481 0.951 . S
C474 C468 1.265 . S
C474 H469 0.950 . S
C474 C475 1.478 . S
C475 C462 1.394 . S
C475 C474 1.478 . S
C475 C476 1.397 . S
C476 C475 1.397 . S
C476 C477 1.438 . S
C476 C481 1.429 . S
C477 C460 1.394 . S
C477 C476 1.438 . S
C477 C478 1.428 . S
C478 H470 0.949 . S
C478 C477 1.428 . S
C478 C479 1.345 . S
C479 H471 0.950 1_556 S
C479 C478 1.345 . S
C479 C480 1.424 . S
C480 H472 0.951 . S
C480 C479 1.424 . S
C480 C481 1.347 . S
C481 H473 0.951 . S
C481 C476 1.429 . S
C481 C480 1.347 . S
C123 C17 1.317 . S
C138 C99 1.156 . S
C153 C64 1.328 . S
C168 C105 1.166 . S
C183 C13 1.449 . S
C198 C96 1.291 . S
C213 C66 1.348 . S
C228 C121 1.196 . S
C243 C23 1.797 . S
C258 C87 1.669 . S
C288 C104 1.736 . S
C273 C42 1.861 . S
C303 C57 1.313 . S
C318 C100 1.298 . S
C348 C117 1.723 . S
C333 C2 1.858 . S
C378 C84 1.574 . S
C363 C63 1.789 . S
C408 C120 1.325 . S
C393 C26 1.367 . S
C438 C83 1.323 . S
C423 C53 1.402 . S
C468 C108 1.194 . S
C453 C24 1.352 . S
