# Generated by pormake.
# Topology ssa, (4,4)-cn, num edge types: 1
# Building blocks:
#     Node 0, Type 0, BuildingBlock: ESEHIV_clean_sbu_0, # of connection points: 4
#     Node 1, Type 0, BuildingBlock: ESEHIV_clean_sbu_0, # of connection points: 4
#     Node 2, Type 0, BuildingBlock: ESEHIV_clean_sbu_0, # of connection points: 4
#     Node 3, Type 0, BuildingBlock: ESEHIV_clean_sbu_0, # of connection points: 4
#     Node 4, Type 0, BuildingBlock: ESEHIV_clean_sbu_0, # of connection points: 4
#     Node 5, Type 0, BuildingBlock: ESEHIV_clean_sbu_0, # of connection points: 4
#     Node 6, Type 1, BuildingBlock: ESEHIV_clean_sbu_0, # of connection points: 4
#     Node 7, Type 1, BuildingBlock: ESEHIV_clean_sbu_0, # of connection points: 4
#     Node 8, Type 1, BuildingBlock: ESEHIV_clean_sbu_0, # of connection points: 4
#     Node 9, Type 1, BuildingBlock: ESEHIV_clean_sbu_0, # of connection points: 4
#     Node 10, Type 1, BuildingBlock: ESEHIV_clean_sbu_0, # of connection points: 4
#     Node 11, Type 1, BuildingBlock: ESEHIV_clean_sbu_0, # of connection points: 4
#     Edge 12, Type (0, 1), BuildingBlock: ZUJKAS_clean_linker_0, # of connection points: 2
#     Edge 13, Type (0, 1), BuildingBlock: ZUJKAS_clean_linker_0, # of connection points: 2
#     Edge 14, Type (0, 1), BuildingBlock: ZUJKAS_clean_linker_0, # of connection points: 2
#     Edge 15, Type (0, 1), BuildingBlock: ZUJKAS_clean_linker_0, # of connection points: 2
#     Edge 16, Type (0, 1), BuildingBlock: ZUJKAS_clean_linker_0, # of connection points: 2
#     Edge 17, Type (0, 1), BuildingBlock: ZUJKAS_clean_linker_0, # of connection points: 2
#     Edge 18, Type (0, 1), BuildingBlock: ZUJKAS_clean_linker_0, # of connection points: 2
#     Edge 19, Type (0, 1), BuildingBlock: ZUJKAS_clean_linker_0, # of connection points: 2
#     Edge 20, Type (0, 1), BuildingBlock: ZUJKAS_clean_linker_0, # of connection points: 2
#     Edge 21, Type (0, 1), BuildingBlock: ZUJKAS_clean_linker_0, # of connection points: 2
#     Edge 22, Type (0, 1), BuildingBlock: ZUJKAS_clean_linker_0, # of connection points: 2
#     Edge 23, Type (0, 1), BuildingBlock: ZUJKAS_clean_linker_0, # of connection points: 2
#     Edge 24, Type (0, 1), BuildingBlock: ZUJKAS_clean_linker_0, # of connection points: 2
#     Edge 25, Type (0, 1), BuildingBlock: ZUJKAS_clean_linker_0, # of connection points: 2
#     Edge 26, Type (0, 1), BuildingBlock: ZUJKAS_clean_linker_0, # of connection points: 2
#     Edge 27, Type (0, 1), BuildingBlock: ZUJKAS_clean_linker_0, # of connection points: 2
#     Edge 28, Type (0, 1), BuildingBlock: ZUJKAS_clean_linker_0, # of connection points: 2
#     Edge 29, Type (0, 1), BuildingBlock: ZUJKAS_clean_linker_0, # of connection points: 2
#     Edge 30, Type (0, 1), BuildingBlock: ZUJKAS_clean_linker_0, # of connection points: 2
#     Edge 31, Type (0, 1), BuildingBlock: ZUJKAS_clean_linker_0, # of connection points: 2
#     Edge 32, Type (0, 1), BuildingBlock: ZUJKAS_clean_linker_0, # of connection points: 2
#     Edge 33, Type (0, 1), BuildingBlock: ZUJKAS_clean_linker_0, # of connection points: 2
#     Edge 34, Type (0, 1), BuildingBlock: ZUJKAS_clean_linker_0, # of connection points: 2
#     Edge 35, Type (0, 1), BuildingBlock: ZUJKAS_clean_linker_0, # of connection points: 2
# Relax obj value: 0.024
# Max RMSD: 0.105
# Mean RMSD: 0.096
data_MOF--net-ssa--node1-ESEHIV_clean_sbu_0--node2-ESEHIV_clean_sbu_0--edge1-ZUJKAS_clean_linker_0
_symmetry_space_group_name_H-M    P1
_symmetry_Int_Tables_number       1
_symmetry_cell_setting            triclinic
loop_
_symmetry_equiv_pos_as_xyz
'x, y, z'
_cell_length_a     62.821321
_cell_length_b     66.414669
_cell_length_c     47.566006
_cell_angle_alpha  88.239411
_cell_angle_beta   90.881413
_cell_angle_gamma 122.06691
loop_
_atom_site_label
_atom_site_type_symbol
_atom_site_fract_x
_atom_site_fract_y
_atom_site_fract_z
_atom_type_partial_charge
Cu0 Cu 1.0041 0.51463 0.03655 0.0
N1 N 0.98059 0.48204 0.04064 0.0
N2 N 0.95958 0.4432 0.03239 0.0
C3 C 0.97922 0.4649 0.02494 0.0
C4 C 0.94842 0.44675 0.05402 0.0
C5 C 0.96144 0.47076 0.05908 0.0
O6 O 0.99484 0.52651 1.00268 0.0
C7 C 0.04065 0.50877 0.06196 0.0
O8 O 0.02075 0.4947 0.07747 0.0
H9 H 0.99232 0.4683 1.00824 0.0
H10 H 0.95698 0.47938 0.07479 0.0
N11 N 1.00068 0.53017 0.06636 0.0
N12 N 1.01196 0.5565 0.10024 0.0
C13 C 1.01959 0.54614 0.08244 0.0
C14 C 0.98032 0.53043 0.07409 0.0
C15 C 0.98721 0.54667 0.09508 0.0
C16 C 0.987 0.51597 0.97929 0.0
O17 O 0.98924 0.49783 0.97445 0.0
H18 H 0.03886 0.551 0.07998 0.0
H19 H 0.962 0.52018 0.06442 0.0
O20 O 0.03819 0.51987 0.04085 0.0
H21 H 0.93149 0.43313 0.06464 0.0
H22 H 0.9751 0.55125 0.10525 0.0
Cu23 Cu 0.5349 0.01565 0.53994 0.0
N24 N 0.54834 1.0114 0.50702 0.0
N25 N 0.5562 0.9926 0.47394 0.0
C26 C 0.54186 0.99021 0.49633 0.0
C27 C 0.57213 0.01635 0.47034 0.0
C28 C 0.56727 0.02782 0.49069 0.0
O29 O 0.5001 0.98946 0.54105 0.0
C30 C 0.56919 1.00857 0.57287 0.0
O31 O 0.57126 0.99835 0.55078 0.0
H32 H 0.52762 0.97334 0.50569 0.0
H33 H 0.57725 0.04677 0.49377 0.0
N34 N 0.53734 0.04524 0.54107 0.0
N35 N 0.53797 0.07659 0.5589 0.0
C36 C 0.53692 0.05596 0.56463 0.0
C37 C 0.53889 0.05966 0.51965 0.0
C38 C 0.53922 0.07891 0.53052 0.0
C39 C 0.4817 0.99212 0.53655 0.0
O40 O 0.48573 0.01364 0.53505 0.0
H41 H 0.53518 0.04836 0.58555 0.0
H42 H 0.5394 0.05627 0.49765 0.0
O43 O 0.5535 0.01514 0.57256 0.0
H44 H 0.58652 0.02495 0.45432 0.0
H45 H 0.54038 0.0935 0.51837 0.0
Cu46 Cu 0.5395 0.52578 0.02774 0.0
N47 N 0.5403 0.49778 0.02529 0.0
N48 N 0.53996 0.46709 1.00573 0.0
C49 C 0.54008 0.48742 1.00112 0.0
C50 C 0.54019 0.46475 0.03407 0.0
C51 C 0.54036 0.48355 0.04598 0.0
O52 O 0.56326 0.54781 0.99978 0.0
C53 C 0.48678 0.49904 0.02679 0.0
O54 O 0.4898 0.48183 0.03585 0.0
H55 H 0.53941 0.49448 0.98055 0.0
H56 H 0.54006 0.48634 0.0682 0.0
N57 N 0.54743 0.53996 0.0634 0.0
N58 N 0.55057 0.56388 0.09795 0.0
C59 C 0.54239 0.55637 0.07153 0.0
C60 C 0.55929 0.53701 0.08543 0.0
C61 C 0.56119 0.55162 0.10669 0.0
C62 C 0.58602 0.56248 1.00641 0.0
O63 O 0.59268 0.56423 0.03295 0.0
H64 H 0.5328 0.56259 0.05823 0.0
H65 H 0.56659 0.52549 0.08585 0.0
O66 O 0.50603 0.51904 0.01975 0.0
H67 H 0.54025 0.45049 0.04561 0.0
H68 H 0.57031 0.55347 0.12677 0.0
Cu69 Cu 1.00486 0.49849 0.50689 0.0
N70 N 1.00209 0.47881 0.47821 0.0
N71 N 1.01476 0.46256 0.44754 0.0
C72 C 0.02128 0.47714 0.46942 0.0
C73 C 0.99038 0.45459 0.44242 0.0
C74 C 0.98263 0.4648 0.46133 0.0
O75 O 0.04013 0.52576 0.50362 0.0
C76 C 0.97015 0.46128 0.54161 0.0
O77 O 0.95721 0.45842 0.51852 0.0
H78 H 0.03974 0.48659 0.47891 0.0
H79 H 0.96429 0.46254 0.46229 0.0
N80 N 0.98327 0.50923 0.49955 0.0
N81 N 0.95836 0.52295 0.50771 0.0
C82 C 0.97245 0.51501 0.5192 0.0
C83 C 0.97586 0.51359 0.47464 0.0
C84 C 0.96047 0.5221 0.47961 0.0
C85 C 0.04617 0.54739 0.50047 0.0
O86 O 0.02919 0.55266 0.50535 0.0
H87 H 0.97554 0.51404 0.54151 0.0
H88 H 0.98148 0.51101 0.45435 0.0
O89 O 0.99302 0.47879 0.5422 0.0
H90 H 0.97922 0.44283 0.42573 0.0
H91 H 0.95154 0.5272 0.46376 0.0
Cu92 Cu 0.5328 0.02427 0.05333 0.0
N93 N 0.52584 0.04769 0.05921 0.0
N94 N 0.51713 0.07551 0.04866 0.0
C95 C 0.52398 0.06099 0.03867 0.0
C96 C 0.51451 0.07112 0.0767 0.0
C97 C 0.52001 0.05393 0.08318 0.0
O98 O 0.54569 0.03089 1.01421 0.0
C99 C 0.49751 0.97289 0.06532 0.0
O100 O 0.51396 0.96892 0.05429 0.0
H101 H 0.52662 0.0593 1.01663 0.0
H102 H 0.51927 0.04617 0.10374 0.0
N103 N 0.55845 0.02929 0.07795 0.0
N104 N 0.58239 0.02166 0.10577 0.0
C105 C 0.56031 0.01248 0.0921 0.0
C106 C 0.57999 0.04995 0.08309 0.0
C107 C 0.59491 0.04527 0.10018 0.0
C108 C 0.56698 0.03416 1.00755 0.0
O109 O 0.5782 0.02738 0.0255 0.0
H110 H 0.54629 0.99373 0.09133 0.0
H111 H 0.58484 0.06705 0.07416 0.0
O112 O 0.5017 0.99395 0.06419 0.0
H113 H 0.50883 0.07953 0.0914 0.0
H114 H 0.61363 0.05814 0.10743 0.0
Cu115 Cu 0.52939 0.51061 0.49121 0.0
N116 N 0.55315 0.52468 0.46255 0.0
N117 N 0.57995 0.55325 0.43265 0.0
C118 C 0.56406 0.54759 0.45438 0.0
C119 C 0.57901 0.53303 0.42682 0.0
C120 C 0.56253 0.5154 0.44551 0.0
O121 O 0.50492 0.52024 0.48233 0.0
C122 C 0.56292 0.51162 0.5305 0.0
O123 O 0.56348 0.49865 0.51055 0.0
H124 H 0.5598 0.55971 0.46374 0.0
H125 H 0.55766 0.49715 0.44646 0.0
N126 N 0.51283 0.47756 0.49002 0.0
N127 N 0.49474 0.44006 0.50599 0.0
C128 C 0.50513 0.46296 0.51284 0.0
C129 C 0.50686 0.46342 0.46783 0.0
C130 C 0.49584 0.4402 0.47766 0.0
C131 C 0.48125 0.50523 0.48045 0.0
O132 O 0.47216 0.48342 0.49011 0.0
H133 H 0.50789 0.46917 0.53415 0.0
H134 H 0.51051 0.46957 0.4461 0.0
O135 O 0.5487 0.51994 0.52698 0.0
H136 H 0.58944 0.53115 0.41031 0.0
H137 H 0.48922 0.42468 0.46503 0.0
Cu138 Cu 0.26068 0.48798 0.25082 0.0
N139 N 0.26722 0.47291 0.22274 0.0
N140 N 0.28602 0.46804 0.18641 0.0
C141 C 0.28759 0.4831 0.20597 0.0
C142 C 0.26379 0.44761 0.19112 0.0
C143 C 0.2522 0.45071 0.21342 0.0
O144 O 0.29111 0.50498 0.27489 0.0
C145 C 0.22565 0.49154 0.21891 0.0
O146 O 0.21617 0.46855 0.22121 0.0
H147 H 0.30315 0.50124 0.20805 0.0
H148 H 0.23374 0.43786 0.22161 0.0
N149 N 0.23507 0.46527 0.27442 0.0
N150 N 0.20177 0.44899 0.30291 0.0
C151 C 0.219 0.46876 0.28858 0.0
C152 C 0.22794 0.44254 0.28022 0.0
C153 C 0.20727 0.4324 0.29771 0.0
C154 C 0.29803 0.4915 0.28595 0.0
O155 O 0.28562 0.46908 0.27895 0.0
H156 H 0.21951 0.48531 0.28765 0.0
H157 H 0.23696 0.43385 0.2722 0.0
O158 O 0.24676 0.50537 0.23098 0.0
H159 H 0.25607 0.43179 0.17879 0.0
H160 H 0.19717 0.41431 0.30602 0.0
Cu161 Cu 0.7935 0.23485 0.77832 0.0
N162 N 0.78981 0.21153 0.75432 0.0
N163 N 0.77114 0.17832 0.72955 0.0
C164 C 0.76836 0.19073 0.74958 0.0
C165 C 0.7954 0.19197 0.72138 0.0
C166 C 0.80682 0.2125 0.73661 0.0
O167 O 0.76198 0.21984 0.80078 0.0
C168 C 0.82194 0.2844 0.75961 0.0
O169 O 0.83124 0.2883 0.78514 0.0
H170 H 0.75096 0.18504 0.7604 0.0
H171 H 0.82596 0.22738 0.73435 0.0
N172 N 0.81944 0.24207 0.80371 0.0
N173 N 0.84421 0.25759 0.84116 0.0
C174 C 0.82302 0.25319 0.82806 0.0
C175 C 0.8387 0.23874 0.80158 0.0
C176 C 0.85405 0.24832 0.82472 0.0
C177 C 0.75866 0.20248 0.81674 0.0
O178 O 0.77614 0.19728 0.81674 0.0
H179 H 0.81069 0.25867 0.83547 0.0
H180 H 0.8418 0.23058 0.78409 0.0
O181 O 0.80383 0.26344 0.7537 0.0
H182 H 0.80408 0.18792 0.70484 0.0
H183 H 0.87169 0.24944 0.82843 0.0
Cu184 Cu 0.58685 0.7928 0.28501 0.0
N185 N 0.60651 0.81567 0.25756 0.0
N186 N 0.62078 0.84794 0.22971 0.0
C187 C 0.60192 0.83185 0.24651 0.0
C188 C 0.6377 0.84131 0.22966 0.0
C189 C 0.62887 0.82138 0.24704 0.0
O190 O 0.57131 0.80641 0.30769 0.0
C191 C 0.56412 0.75921 0.24046 0.0
O192 O 0.57376 0.77818 0.22382 0.0
H193 H 0.58535 0.83217 0.25147 0.0
H194 H 0.63843 0.81223 0.25245 0.0
N195 N 0.60787 0.78771 0.30813 0.0
N196 N 0.62534 0.76854 0.32671 0.0
C197 C 0.61125 0.76947 0.30563 0.0
C198 C 0.6204 0.79887 0.33154 0.0
C199 C 0.6312 0.78707 0.34304 0.0
C200 C 0.58624 0.82785 0.31543 0.0
O201 O 0.61001 0.8385 0.30827 0.0
H202 H 0.60228 0.75633 0.28953 0.0
H203 H 0.62085 0.81386 0.34039 0.0
O204 O 0.56493 0.76179 0.26708 0.0
H205 H 0.65564 0.85078 0.21893 0.0
H206 H 0.64187 0.79138 0.36239 0.0
Cu207 Cu 0.79573 0.56693 0.76835 0.0
N208 N 0.82042 0.5839 0.74097 0.0
N209 N 0.84247 0.59085 0.70154 0.0
C210 C 0.82169 0.57517 0.71635 0.0
C211 C 0.85446 0.61041 0.71735 0.0
C212 C 0.84081 0.60608 0.74161 0.0
O213 O 0.80615 0.54899 0.79304 0.0
C214 C 0.75805 0.56382 0.73419 0.0
O215 O 0.77439 0.58683 0.73491 0.0
H216 H 0.80785 0.55738 0.70988 0.0
H217 H 0.84584 0.61811 0.75872 0.0
N218 N 0.79444 0.58806 0.79219 0.0
N219 N 0.7786 0.6031 0.82063 0.0
C220 C 0.77351 0.58672 0.80118 0.0
C221 C 0.81344 0.60568 0.80666 0.0
C222 C 0.80377 0.61511 0.82407 0.0
C223 C 0.82228 0.54378 0.78628 0.0
O224 O 0.82936 0.54643 0.75991 0.0
H225 H 0.75482 0.57312 0.79468 0.0
H226 H 0.83281 0.61062 0.80564 0.0
O227 O 0.76321 0.55003 0.74798 0.0
H228 H 0.87239 0.62634 0.71242 0.0
H229 H 0.81443 0.62927 0.83864 0.0
Cu230 Cu 0.26238 0.78048 0.29596 0.0
N231 N 0.23581 0.77561 0.27292 0.0
N232 N 0.2005 0.75618 0.24782 0.0
C233 C 0.21716 0.75434 0.26416 0.0
C234 C 0.20912 0.77962 0.24608 0.0
C235 C 0.23091 0.79157 0.26163 0.0
O236 O 0.24974 0.75009 0.31765 0.0
C237 C 0.30124 0.81538 0.26238 0.0
O238 O 0.29026 0.82622 0.27117 0.0
H239 H 0.2161 0.73785 0.2694 0.0
H240 H 0.24224 0.81053 0.26459 0.0
N241 N 0.26884 0.80321 0.32259 0.0
N242 N 0.28738 0.82835 0.35774 0.0
C243 C 0.2884 0.81313 0.34046 0.0
C244 C 0.25494 0.81245 0.32871 0.0
C245 C 0.26632 0.82796 0.3504 0.0
C246 C 0.23065 0.74437 0.33309 0.0
O247 O 0.22198 0.75853 0.33234 0.0
H248 H 0.30284 0.8089 0.34102 0.0
H249 H 0.23759 0.80803 0.31839 0.0
O250 O 0.29255 0.79395 0.27126 0.0
H251 H 0.2002 0.78755 0.23471 0.0
H252 H 0.25972 0.83831 0.35979 0.0
Cu253 Cu 0.49149 0.25011 0.77939 0.0
N254 N 0.47094 0.25333 0.75318 0.0
N255 N 0.45985 0.26925 0.71834 0.0
C256 C 0.47825 0.2725 0.73624 0.0
C257 C 0.44018 0.24716 0.72431 0.0
C258 C 0.44712 0.23734 0.74569 0.0
O259 O 0.51034 0.28031 0.79986 0.0
C260 C 0.49526 0.21806 0.74764 0.0
O261 O 0.4711 0.20717 0.75297 0.0
H262 H 0.49679 0.28845 0.73699 0.0
H263 H 0.43579 0.21951 0.75449 0.0
N264 N 0.47217 0.22691 0.80685 0.0
N265 N 0.46357 0.20288 0.84452 0.0
C266 C 0.48118 0.21771 0.82559 0.0
C267 C 0.44802 0.21765 0.81415 0.0
C268 C 0.44262 0.20271 0.83729 0.0
C269 C 0.496 0.28559 0.81219 0.0
O270 O 0.47165 0.2716 0.80857 0.0
H271 H 0.50041 0.2221 0.82547 0.0
H272 H 0.43547 0.22216 0.80417 0.0
O273 O 0.50973 0.23852 0.75823 0.0
H274 H 0.42236 0.23842 0.71337 0.0
H275 H 0.42495 0.19322 0.84856 0.0
H276 H 0.04725 0.4757 0.08786 0.0
H277 H 0.08516 0.48073 0.10948 0.0
H278 H 0.12741 0.55371 0.07977 0.0
H279 H 0.08904 0.54866 0.05766 0.0
H280 H 0.13387 0.49628 0.08452 0.0
H281 H 0.13925 0.55603 0.16778 0.0
H282 H 0.11065 0.5375 0.14839 0.0
H283 H 0.13655 0.56325 0.1316 0.0
C284 C 0.06465 0.4928 0.08551 0.0
C285 C 0.06505 0.51176 0.07089 0.0
C286 C 0.08637 0.49565 0.098 0.0
C287 C 0.10918 0.51766 0.09669 0.0
C288 C 0.10999 0.53659 0.08138 0.0
H289 H 0.24086 0.53688 0.19696 0.0
H290 H 0.21631 0.54749 0.16551 0.0
C291 C 0.08813 0.53363 0.06845 0.0
C292 C 0.13157 0.52023 0.1119 0.0
H293 H 0.16592 0.54129 0.17249 0.0
C294 C 0.1412 0.50652 0.10344 0.0
C295 C 0.1413 0.5336 0.13663 0.0
C296 C 0.13147 0.54842 0.1469 0.0
C297 C 0.1594 0.50505 0.11947 0.0
C298 C 0.16798 0.51718 0.14516 0.0
C299 C 0.15942 0.53197 0.15288 0.0
C300 C 0.18304 0.51203 0.16561 0.0
C301 C 0.16878 0.48987 0.10913 0.0
C302 C 0.17238 0.48891 0.17689 0.0
C303 C 0.18618 0.48291 0.19469 0.0
C304 C 0.21121 0.49984 0.20205 0.0
C305 C 0.22171 0.52338 0.19175 0.0
C306 C 0.20769 0.52943 0.17371 0.0
H307 H 0.16683 0.48803 0.08594 0.0
H308 H 0.18879 0.49745 0.11485 0.0
H309 H 0.15749 0.47182 0.11895 0.0
H310 H 0.15329 0.47525 0.17159 0.0
H311 H 0.17714 0.46467 0.20239 0.0
H312 H 0.57251 0.03335 0.61924 0.0
H313 H 0.60855 0.05449 0.65038 0.0
H314 H 0.64553 0.02439 0.60895 0.0
H315 H 0.60965 1.00341 0.57718 0.0
H316 H 0.63588 0.04247 0.68738 0.0
H317 H 0.69244 0.09616 0.59416 0.0
H318 H 0.65874 0.07668 0.59272 0.0
H319 H 0.6784 0.06457 0.59265 0.0
C320 C 0.58807 0.03081 0.61702 0.0
C321 C 0.58839 0.01703 0.59536 0.0
C322 C 0.60865 0.0429 0.63491 0.0
C323 C 0.62991 0.04141 0.63153 0.0
C324 C 0.62949 0.02614 0.61149 0.0
H325 H 0.77725 0.14661 0.70152 0.0
H326 H 0.74429 0.11006 0.67982 0.0
C327 C 0.6089 0.01406 0.59347 0.0
C328 C 0.65314 0.0577 0.64717 0.0
H329 H 0.71134 0.10778 0.63831 0.0
C330 C 0.65255 0.05654 0.67668 0.0
C331 C 0.67485 0.07605 0.63312 0.0
C332 C 0.67625 0.07868 0.60144 0.0
C333 C 0.67279 0.07373 0.69253 0.0
C334 C 0.69394 0.09271 0.67845 0.0
C335 C 0.69508 0.09317 0.649 0.0
C336 C 0.7138 0.1136 0.69354 0.0
C337 C 0.67113 0.07171 0.72419 0.0
C338 C 0.70757 0.12779 0.70815 0.0
C339 C 0.7263 0.14876 0.72027 0.0
C340 C 0.75176 0.15611 0.71795 0.0
C341 C 0.75791 0.14167 0.7035 0.0
C342 C 0.7391 0.12067 0.69127 0.0
H343 H 0.65827 0.053 0.73152 0.0
H344 H 0.6899 0.07856 0.73382 0.0
H345 H 0.66359 0.08235 0.73182 0.0
H346 H 0.68823 0.12303 0.70944 0.0
H347 H 0.72075 0.15953 0.73065 0.0
H348 H 0.5514 0.56838 0.15479 0.0
H349 H 0.54994 0.59886 0.18066 0.0
H350 H 0.54528 0.6308 0.10242 0.0
H351 H 0.54657 0.60028 0.07642 0.0
H352 H 0.58146 0.64612 0.18099 0.0
H353 H 0.48863 0.62729 0.14494 0.0
H354 H 0.49921 0.60729 0.13898 0.0
H355 H 0.50946 0.63301 0.11625 0.0
C356 C 0.55007 0.58185 0.143 0.0
C357 C 0.54903 0.58166 0.11336 0.0
C358 C 0.54913 0.5993 0.1579 0.0
C359 C 0.54705 0.61706 0.14368 0.0
C360 C 0.54615 0.61701 0.11409 0.0
H361 H 0.55639 0.74741 0.18508 0.0
H362 H 0.55083 0.71193 0.16378 0.0
C363 C 0.54696 0.59948 0.09916 0.0
C364 C 0.54685 0.6361 0.15973 0.0
H365 H 0.51456 0.66393 0.16828 0.0
C366 C 0.56667 0.64981 0.1784 0.0
C367 C 0.52756 0.64105 0.15657 0.0
C368 C 0.50488 0.62623 0.13833 0.0
C369 C 0.56821 0.66869 0.19309 0.0
C370 C 0.54921 0.67395 0.18945 0.0
C371 C 0.52917 0.66001 0.17114 0.0
C372 C 0.55053 0.69464 0.20317 0.0
C373 C 0.59072 0.6834 0.21161 0.0
C374 C 0.55138 0.69661 0.23263 0.0
C375 C 0.55448 0.717 0.245 0.0
C376 C 0.55677 0.73589 0.22818 0.0
C377 C 0.55477 0.73333 0.19878 0.0
C378 C 0.5516 0.71298 0.18649 0.0
H379 H 0.60629 0.68065 0.20711 0.0
H380 H 0.5978 0.70262 0.20885 0.0
H381 H 0.5852 0.6782 0.23396 0.0
H382 H 0.55007 0.68255 0.24609 0.0
H383 H 0.55601 0.71832 0.26767 0.0
H384 H 0.94507 0.55375 0.48826 0.0
H385 H 0.92415 0.56948 0.51491 0.0
H386 H 0.92067 0.52749 0.58763 0.0
H387 H 0.94079 0.5112 0.56116 0.0
H388 H 0.8745 0.54074 0.54837 0.0
H389 H 0.95973 0.60067 0.61061 0.0
H390 H 0.96116 0.58971 0.57682 0.0
H391 H 0.95252 0.57073 0.60769 0.0
C392 C 0.93955 0.5476 0.50978 0.0
C393 C 0.9449 0.53139 0.52264 0.0
C394 C 0.92773 0.5567 0.52498 0.0
C395 C 0.92125 0.54984 0.55325 0.0
C396 C 0.92591 0.53323 0.5659 0.0
H397 H 0.82989 0.54808 0.68125 0.0
H398 H 0.84787 0.541 0.6407 0.0
C399 C 0.93755 0.52405 0.55076 0.0
C400 C 0.90989 0.56008 0.57004 0.0
H401 H 0.92079 0.5934 0.62779 0.0
C402 C 0.88466 0.55257 0.56546 0.0
C403 C 0.92336 0.57572 0.59202 0.0
C404 C 0.95077 0.5849 0.59706 0.0
C405 C 0.8721 0.55929 0.58345 0.0
C406 C 0.88515 0.57367 0.6066 0.0
C407 C 0.91079 0.58229 0.6101 0.0
C408 C 0.87217 0.57817 0.62893 0.0
C409 C 0.84487 0.55056 0.57791 0.0
C410 C 0.87995 0.60148 0.63588 0.0
C411 C 0.8696 0.60564 0.65914 0.0
C412 C 0.8515 0.58657 0.67607 0.0
C413 C 0.8434 0.56323 0.66855 0.0
C414 C 0.85367 0.5591 0.64527 0.0
H415 H 0.83999 0.54628 0.55543 0.0
H416 H 0.83288 0.53409 0.59069 0.0
H417 H 0.84042 0.56398 0.58381 0.0
H418 H 0.89436 0.61644 0.6236 0.0
H419 H 0.87606 0.62381 0.66406 0.0
H420 H 0.46139 0.97546 0.09419 0.0
H421 H 0.42856 0.94527 0.12536 0.0
H422 H 0.45161 0.89652 0.10662 0.0
H423 H 0.48475 0.92674 0.07573 0.0
H424 H 0.38813 0.90059 0.11618 0.0
H425 H 0.45263 0.89424 0.19185 0.0
H426 H 0.46362 0.9177 0.16536 0.0
H427 H 0.4561 0.88859 0.15606 0.0
C428 C 0.45946 0.95829 0.09652 0.0
C429 C 0.47593 0.95371 0.08235 0.0
C430 C 0.44062 0.94098 0.11447 0.0
C431 C 0.43775 0.91862 0.11898 0.0
C432 C 0.45369 0.91374 0.10422 0.0
H433 H 0.32749 0.7995 0.23264 0.0
H434 H 0.36046 0.82214 0.19669 0.0
C435 C 0.47255 0.93105 0.08625 0.0
C436 C 0.41799 0.90056 0.13891 0.0
H437 H 0.40912 0.86824 0.20012 0.0
C438 C 0.3928 0.89349 0.13443 0.0
C439 C 0.42382 0.89099 0.1628 0.0
C440 C 0.45051 0.89837 0.16955 0.0
C441 C 0.37354 0.87755 0.15311 0.0
C442 C 0.37944 0.86853 0.1774 0.0
C443 C 0.40448 0.87499 0.18151 0.0
C444 C 0.36029 0.8545 0.19996 0.0
C445 C 0.34691 0.8706 0.14675 0.0
C446 C 0.34967 0.86519 0.21434 0.0
C447 C 0.33112 0.85245 0.23476 0.0
C448 C 0.32244 0.82848 0.2417 0.0
C449 C 0.33358 0.81784 0.22789 0.0
C450 C 0.35242 0.83079 0.20729 0.0
H451 H 0.34431 0.8731 0.12403 0.0
H452 H 0.33334 0.85178 0.15308 0.0
H453 H 0.34244 0.88199 0.15872 0.0
H454 H 0.35566 0.88352 0.20963 0.0
H455 H 0.32337 0.86154 0.24494 0.0
H456 H 0.49772 0.40125 0.49968 0.0
H457 H 0.48762 0.36991 0.53516 0.0
H458 H 0.46251 0.40272 0.59172 0.0
H459 H 0.47291 0.43419 0.55648 0.0
H460 H 0.49562 0.39411 0.61643 0.0
H461 H 0.42213 0.31302 0.5636 0.0
H462 H 0.45021 0.33009 0.54298 0.0
H463 H 0.43171 0.34257 0.55096 0.0
C464 C 0.48954 0.40145 0.51945 0.0
C465 C 0.4862 0.4202 0.52539 0.0
C466 C 0.48371 0.38352 0.53968 0.0
C467 C 0.47407 0.38384 0.566 0.0
C468 C 0.46993 0.40212 0.57156 0.0
H469 H 0.42155 0.27256 0.69691 0.0
H470 H 0.42428 0.30042 0.66005 0.0
C471 C 0.47595 0.42012 0.55147 0.0
C472 C 0.47032 0.36639 0.58861 0.0
H473 H 0.44068 0.30704 0.60476 0.0
C474 C 0.48345 0.37507 0.61394 0.0
C475 C 0.45422 0.34158 0.58547 0.0
C476 C 0.43856 0.33124 0.55939 0.0
C477 C 0.48136 0.35963 0.63599 0.0
C478 C 0.46617 0.33481 0.63237 0.0
C479 C 0.45254 0.32609 0.60734 0.0
C480 C 0.46442 0.31767 0.65429 0.0
C481 C 0.49524 0.37008 0.66307 0.0
C482 C 0.48601 0.31792 0.66292 0.0
C483 C 0.48452 0.3021 0.68396 0.0
C484 C 0.46134 0.28553 0.69659 0.0
C485 C 0.43964 0.28501 0.68749 0.0
C486 C 0.44118 0.30094 0.6665 0.0
H487 H 0.49991 0.3886 0.6654 0.0
H488 H 0.48401 0.35924 0.68159 0.0
H489 H 0.51312 0.37048 0.66307 0.0
H490 H 0.50404 0.3303 0.65326 0.0
H491 H 0.50147 0.30262 0.69002 0.0
H492 H 0.51732 0.94657 0.46867 0.0
H493 H 0.51758 0.91488 0.44375 0.0
H494 H 0.59425 0.96422 0.41852 0.0
H495 H 0.5944 0.9957 0.44374 0.0
H496 H 0.52706 0.9113 0.38619 0.0
H497 H 0.59747 0.90944 0.45578 0.0
H498 H 0.58117 0.9239 0.46525 0.0
H499 H 0.60771 0.93862 0.44182 0.0
C500 C 0.53432 0.95068 0.45802 0.0
C501 C 0.55589 0.97386 0.4585 0.0
C502 C 0.53437 0.93252 0.44359 0.0
C503 C 0.55605 0.93697 0.42953 0.0
C504 C 0.5774 0.96014 0.42955 0.0
H505 H 0.6145 0.87453 0.32805 0.0
H506 H 0.60368 0.89773 0.35603 0.0
C507 C 0.57735 0.97828 0.44383 0.0
C508 C 0.55666 0.9176 0.41491 0.0
H509 H 0.5896 0.89001 0.41202 0.0
C510 C 0.54049 0.90638 0.39206 0.0
C511 C 0.574 0.91094 0.42263 0.0
C512 C 0.59091 0.92116 0.44788 0.0
C513 C 0.54221 0.8898 0.37585 0.0
C514 C 0.56034 0.88396 0.38288 0.0
C515 C 0.57575 0.89446 0.40645 0.0
C516 C 0.5656 0.86902 0.3647 0.0
C517 C 0.52546 0.87951 0.35052 0.0
C518 C 0.54773 0.84485 0.35985 0.0
C519 C 0.55392 0.83122 0.34354 0.0
C520 C 0.57814 0.84151 0.33193 0.0
C521 C 0.59569 0.86575 0.33667 0.0
C522 C 0.58954 0.8792 0.35278 0.0
H523 H 0.51548 0.8888 0.34516 0.0
H524 H 0.53658 0.88058 0.33198 0.0
H525 H 0.5112 0.86049 0.35493 0.0
H526 H 0.52919 0.8364 0.3691 0.0
H527 H 0.53995 0.81264 0.34042 0.0
H528 H 0.58095 0.55473 0.94973 0.0
H529 H 0.61495 0.56806 0.91555 0.0
H530 H 0.66933 0.60941 0.97911 0.0
H531 H 0.63561 0.59612 1.01346 0.0
H532 H 0.65875 0.61554 0.89704 0.0
H533 H 0.68363 0.55715 0.95593 0.0
H534 H 0.65389 0.55477 0.96037 0.0
H535 H 0.6817 0.57835 0.97657 0.0
C536 C 0.60009 0.5671 0.95628 0.0
C537 C 0.60563 0.57408 0.98442 0.0
C538 C 0.61947 0.5747 0.93671 0.0
C539 C 0.64458 0.58938 0.94501 0.0
C540 C 0.65003 0.59783 0.97247 0.0
H541 H 0.78485 0.62095 0.87283 0.0
H542 H 0.75306 0.62095 0.90156 0.0
C543 C 0.63073 0.59021 0.99204 0.0
C544 C 0.66511 0.59375 0.92605 0.0
H545 H 0.70983 0.58007 0.91806 0.0
C546 C 0.66999 0.60786 0.90156 0.0
C547 C 0.67957 0.58355 0.93205 0.0
C548 C 0.6744 0.56744 0.95752 0.0
C549 C 0.68938 0.61238 0.88306 0.0
C550 C 0.70383 0.60214 0.8891 0.0
C551 C 0.69885 0.58804 0.91361 0.0
C552 C 0.72383 0.60513 0.8701 0.0
C553 C 0.69449 0.62832 0.8575 0.0
C554 C 0.71803 0.59651 0.84271 0.0
C555 C 0.73627 0.59665 0.8261 0.0
C556 C 0.76058 0.60517 0.83667 0.0
C557 C 0.76648 0.61447 0.86383 0.0
C558 C 0.74827 0.61439 0.88038 0.0
H559 H 0.68683 0.63987 0.86003 0.0
H560 H 0.71495 0.63973 0.85318 0.0
H561 H 0.68531 0.61718 0.83893 0.0
H562 H 0.69917 0.58887 0.83453 0.0
H563 H 0.73115 0.58965 0.80516 0.0
H564 H 0.06691 0.59544 0.49822 0.0
H565 H 0.1032 0.62553 0.47101 0.0
H566 H 0.11693 0.57204 0.44408 0.0
H567 H 0.08029 0.54159 0.47131 0.0
H568 H 0.15437 0.64057 0.47263 0.0
H569 H 0.11225 0.60224 0.36907 0.0
H570 H 0.09384 0.5933 0.40095 0.0
H571 H 0.11432 0.58275 0.39451 0.0
C572 C 0.07775 0.59 0.4868 0.0
C573 C 0.07052 0.56596 0.48705 0.0
C574 C 0.09857 0.60731 0.47115 0.0
C575 C 0.1127 0.60115 0.45497 0.0
C576 C 0.10614 0.57729 0.45592 0.0
H577 H 0.23027 0.7021 0.33162 0.0
H578 H 0.20477 0.66592 0.36143 0.0
C579 C 0.08531 0.5599 0.4718 0.0
C580 C 0.13384 0.61984 0.43696 0.0
H581 H 0.15137 0.63829 0.36844 0.0
C582 C 0.15381 0.63988 0.44986 0.0
C583 C 0.13341 0.61905 0.40716 0.0
C584 C 0.11228 0.59831 0.39194 0.0
C585 C 0.17278 0.65927 0.43396 0.0
C586 C 0.17166 0.65906 0.40415 0.0
C587 C 0.15236 0.63856 0.39121 0.0
C588 C 0.18833 0.68097 0.38645 0.0
C589 C 0.19374 0.68004 0.44935 0.0
C590 C 0.18761 0.70145 0.39032 0.0
C591 C 0.20197 0.72186 0.37347 0.0
C592 C 0.21759 0.72264 0.35194 0.0
C593 C 0.21868 0.70226 0.34812 0.0
C594 C 0.20399 0.68153 0.36507 0.0
H595 H 0.19694 0.6744 0.47041 0.0
H596 H 0.21157 0.68869 0.43724 0.0
H597 H 0.18853 0.69338 0.45253 0.0
H598 H 0.17542 0.70151 0.40613 0.0
H599 H 0.20049 0.73709 0.37718 0.0
H600 H 0.48362 0.08814 0.06032 0.0
H601 H 0.47164 0.11067 0.02917 0.0
H602 H 0.52636 0.11975 0.96821 0.0
H603 H 0.53859 0.09759 0.99919 0.0
H604 H 0.50164 0.15807 1.00277 0.0
H605 H 0.45772 0.08556 0.92601 0.0
H606 H 0.46496 0.08108 0.96167 0.0
H607 H 0.48933 0.09465 0.9355 0.0
C608 C 0.49336 0.09528 0.0405 0.0
C609 C 0.51179 0.0908 0.03202 0.0
C610 C 0.48642 0.10802 0.0227 0.0
C611 C 0.49779 0.11639 0.99623 0.0
C612 C 0.51701 0.11296 0.98834 0.0
H613 H 0.5068 0.21649 0.87275 0.0
H614 H 0.51268 0.19526 0.91182 0.0
C615 C 0.52393 0.10026 1.00603 0.0
C616 C 0.48921 0.12811 0.97626 0.0
H617 H 0.46467 0.12305 0.91052 0.0
C618 C 0.49331 0.15036 0.98271 0.0
C619 C 0.47796 0.11776 0.95035 0.0
C620 C 0.47198 0.09334 0.94299 0.0
C621 C 0.48747 0.16307 0.96327 0.0
C622 C 0.47759 0.15331 0.9367 0.0
C623 C 0.47245 0.13058 0.93082 0.0
C624 C 0.47359 0.16677 0.9141 0.0
C625 C 0.49206 0.18687 0.97127 0.0
C626 C 0.44975 0.15754 0.90202 0.0
C627 C 0.44639 0.1695 0.87938 0.0
C628 C 0.46687 0.19079 0.86825 0.0
C629 C 0.49069 0.20001 0.88054 0.0
C630 C 0.49402 0.18808 0.90318 0.0
H631 H 0.49239 0.18851 0.99448 0.0
H632 H 0.51058 0.20116 0.96291 0.0
H633 H 0.47743 0.18974 0.96229 0.0
H634 H 0.4338 0.14096 0.90997 0.0
H635 H 0.42788 0.1618 0.87021 0.0
H636 H 0.43041 0.47681 0.47396 0.0
H637 H 0.40314 0.48249 0.44226 0.0
H638 H 0.46566 0.55153 0.41696 0.0
H639 H 0.49348 0.54562 0.44835 0.0
H640 H 0.38845 0.51338 0.43812 0.0
H641 H 0.44146 0.52239 0.34121 0.0
H642 H 0.44789 0.51319 0.37467 0.0
H643 H 0.45926 0.54401 0.36736 0.0
C644 C 0.4385 0.49334 0.46186 0.0
C645 C 0.46434 0.51068 0.46375 0.0
C646 C 0.42275 0.49657 0.44362 0.0
C647 C 0.43223 0.51723 0.42654 0.0
C648 C 0.45784 0.53511 0.42922 0.0
H649 H 0.33841 0.53715 0.29752 0.0
H650 H 0.37262 0.54779 0.33181 0.0
C651 C 0.47373 0.53184 0.44751 0.0
C652 C 0.41508 0.5194 0.40589 0.0
H653 H 0.40479 0.52342 0.33541 0.0
C654 C 0.39228 0.51588 0.41572 0.0
C655 C 0.41979 0.52265 0.37647 0.0
C656 C 0.44329 0.52558 0.36416 0.0
C657 C 0.37398 0.51479 0.39715 0.0
C658 C 0.37835 0.51724 0.36778 0.0
C659 C 0.40151 0.52178 0.35792 0.0
C660 C 0.35775 0.5117 0.34718 0.0
C661 C 0.34966 0.51028 0.40899 0.0
C662 C 0.33809 0.48803 0.34432 0.0
C663 C 0.31888 0.48197 0.32477 0.0
C664 C 0.31849 0.49939 0.30744 0.0
C665 C 0.338 0.52329 0.31054 0.0
C666 C 0.35761 0.52936 0.33006 0.0
H667 H 0.35125 0.51412 0.43176 0.0
H668 H 0.34367 0.5213 0.39756 0.0
H669 H 0.33477 0.49133 0.40632 0.0
H670 H 0.33775 0.47406 0.35708 0.0
H671 H 0.30422 0.46338 0.32325 0.0
H672 H 0.96372 0.43859 0.97688 0.0
H673 H 0.94546 0.40172 0.95144 0.0
H674 H 0.91685 0.36133 0.0293 0.0
H675 H 0.93479 0.39846 0.05493 0.0
H676 H 0.95137 0.36416 0.95393 0.0
H677 H 0.85359 0.33564 0.98301 0.0
H678 H 0.88002 0.36498 0.98991 0.0
H679 H 0.87419 0.34008 1.01196 0.0
C680 C 0.95387 0.4219 0.98868 0.0
C681 C 0.95055 0.4214 0.01789 0.0
C682 C 0.94338 0.40081 0.9741 0.0
C683 C 0.92946 0.37876 0.98839 0.0
C684 C 0.92702 0.37815 0.01776 0.0
H685 H 0.87407 0.25406 0.88024 0.0
H686 H 0.89481 0.28026 0.9201 0.0
C687 C 0.9373 0.39932 0.03237 0.0
C688 C 0.91663 0.35674 0.97198 0.0
H689 H 0.85853 0.31171 0.95198 0.0
C690 C 0.93108 0.35246 0.95372 0.0
C691 C 0.89014 0.34162 0.97171 0.0
C692 C 0.87349 0.34582 0.99 0.0
C693 C 0.91973 0.33423 0.93418 0.0
C694 C 0.89323 0.31951 0.93343 0.0
C695 C 0.87885 0.323 0.95271 0.0
C696 C 0.87991 0.30254 0.9106 0.0
C697 C 0.93615 0.33187 0.91339 0.0
C698 C 0.86412 0.30595 0.89263 0.0
C699 C 0.85212 0.29095 0.87023 0.0
C700 C 0.85569 0.2722 0.86522 0.0
C701 C 0.87122 0.26853 0.88347 0.0
C702 C 0.88309 0.28349 0.90615 0.0
H703 H 0.95575 0.34747 0.91336 0.0
H704 H 0.9367 0.31582 0.919 0.0
H705 H 0.92847 0.32983 0.89176 0.0
H706 H 0.86148 0.32061 0.89558 0.0
H707 H 0.84065 0.29452 0.85632 0.0
H708 H 0.97299 0.50113 0.92526 0.0
H709 H 0.94501 0.50665 0.89425 0.0
H710 H 0.93747 0.54763 0.95748 0.0
H711 H 0.96617 0.54281 0.98825 0.0
H712 H 0.89742 0.49169 0.90011 0.0
H713 H 0.94903 0.58989 0.89083 0.0
H714 H 0.96302 0.57442 0.90613 0.0
H715 H 0.94228 0.57918 0.92664 0.0
C716 C 0.96579 0.51172 0.93243 0.0
C717 C 0.97215 0.5217 0.95928 0.0
C718 C 0.9496 0.51477 0.91465 0.0
C719 C 0.93914 0.52783 0.92313 0.0
C720 C 0.94566 0.53802 0.94987 0.0
H721 H 0.82548 0.55102 0.84348 0.0
H722 H 0.85238 0.54633 0.87773 0.0
C723 C 0.9621 0.53518 0.96759 0.0
C724 C 0.92057 0.52964 0.90451 0.0
H725 H 0.90738 0.5689 0.87277 0.0
C726 C 0.89976 0.50864 0.89412 0.0
C727 C 0.92328 0.55167 0.89652 0.0
C728 C 0.94573 0.57508 0.90537 0.0
C729 C 0.88181 0.50904 0.87629 0.0
C730 C 0.88456 0.53102 0.86835 0.0
C731 C 0.9051 0.55201 0.87896 0.0
C732 C 0.86701 0.53265 0.84798 0.0
C733 C 0.85984 0.48584 0.86622 0.0
C734 C 0.86603 0.5264 0.81982 0.0
C735 C 0.85078 0.52917 0.8002 0.0
C736 C 0.83589 0.53812 0.80818 0.0
C737 C 0.83639 0.54381 0.83658 0.0
C738 C 0.85194 0.5413 0.85618 0.0
H739 H 0.85712 0.47045 0.87919 0.0
H740 H 0.84226 0.486 0.86661 0.0
H741 H 0.86329 0.48328 0.84418 0.0
H742 H 0.87762 0.51995 0.81279 0.0
H743 H 0.85107 0.52472 0.77855 0.0
H744 H 0.469 0.94627 0.52905 0.0
H745 H 0.43244 0.91551 0.50372 0.0
H746 H 0.40309 0.96118 0.49622 0.0
H747 H 0.43954 0.9921 0.52145 0.0
H748 H 0.37649 0.89241 0.51016 0.0
H749 H 0.41832 0.94958 0.41392 0.0
H750 H 0.43619 0.95381 0.44568 0.0
H751 H 0.41446 0.96355 0.44353 0.0
C752 C 0.45449 0.94959 0.52264 0.0
C753 C 0.45738 0.9718 0.52691 0.0
C754 C 0.43361 0.93197 0.50818 0.0
C755 C 0.41536 0.93629 0.49779 0.0
C756 C 0.41719 0.95768 0.50386 0.0
H757 H 0.27823 0.84452 0.40493 0.0
H758 H 0.30887 0.86963 0.44032 0.0
C759 C 0.43802 0.97529 0.51833 0.0
C760 C 0.39598 0.91962 0.47809 0.0
H761 H 0.37891 0.91417 0.40897 0.0
C762 C 0.37691 0.89711 0.48804 0.0
C763 C 0.39693 0.92577 0.44921 0.0
C764 C 0.41765 0.9494 0.43726 0.0
C765 C 0.35844 0.88062 0.46979 0.0
C766 C 0.35913 0.88699 0.44101 0.0
C767 C 0.37839 0.90941 0.43108 0.0
C768 C 0.34024 0.87067 0.42059 0.0
C769 C 0.33863 0.85642 0.48128 0.0
C770 C 0.34782 0.86323 0.39758 0.0
C771 C 0.33043 0.84909 0.37718 0.0
C772 C 0.30514 0.84227 0.37929 0.0
C773 C 0.29759 0.84964 0.40252 0.0
C774 C 0.315 0.86374 0.42296 0.0
H775 H 0.34404 0.85239 0.50208 0.0
H776 H 0.32078 0.85582 0.48393 0.0
H777 H 0.33513 0.84234 0.46651 0.0
H778 H 0.36729 0.86859 0.39526 0.0
H779 H 0.33695 0.84402 0.35941 0.0
H780 H 0.55142 0.47607 0.94965 0.0
H781 H 0.54881 0.44842 0.91494 0.0
H782 H 0.52406 0.39354 0.97943 0.0
H783 H 0.52635 0.42083 1.01419 0.0
H784 H 0.56007 0.3952 0.94372 0.0
H785 H 0.48359 0.39397 0.88213 0.0
H786 H 0.51111 0.42297 0.88676 0.0
H787 H 0.49233 0.40618 0.91676 0.0
C788 C 0.54522 0.4581 0.95656 0.0
C789 C 0.53897 0.45089 0.98501 0.0
C790 C 0.54378 0.44225 0.93657 0.0
C791 C 0.53596 0.41871 0.94437 0.0
C792 C 0.53018 0.41158 0.97276 0.0
H793 H 0.468 0.29297 0.84828 0.0
H794 H 0.4807 0.32615 0.87862 0.0
C795 C 0.53157 0.42736 0.99275 0.0
C796 C 0.53319 0.40127 0.92305 0.0
H797 H 0.49974 0.37192 0.86474 0.0
C798 C 0.54699 0.39021 0.92633 0.0
C799 C 0.516 0.39455 0.90041 0.0
C800 C 0.49972 0.40483 0.89631 0.0
C801 C 0.54382 0.37248 0.90797 0.0
C802 C 0.52655 0.36571 0.88537 0.0
C803 C 0.51313 0.37714 0.88184 0.0
C804 C 0.51994 0.34518 0.86698 0.0
C805 C 0.55824 0.36047 0.91362 0.0
C806 C 0.53778 0.34438 0.85012 0.0
C807 C 0.5305 0.32498 0.83253 0.0
C808 C 0.5052 0.30616 0.83125 0.0
C809 C 0.48764 0.3071 0.84835 0.0
C810 C 0.49487 0.32621 0.86585 0.0
H811 H 0.56674 0.3642 0.93495 0.0
H812 H 0.54584 0.34093 0.91153 0.0
H813 H 0.57362 0.3671 0.89798 0.0
H814 H 0.55721 0.35893 0.85014 0.0
H815 H 0.54452 0.32493 0.8196 0.0
H816 H 0.0647 0.49202 0.43957 0.0
H817 H 0.09281 0.4834 0.41548 0.0
H818 H 0.03021 0.41337 0.39684 0.0
H819 H 1.00178 0.42198 0.42105 0.0
H820 H 0.10152 0.44716 0.42883 0.0
H821 H 0.06437 0.43956 0.32002 0.0
H822 H 0.05682 0.45266 0.34782 0.0
H823 H 0.04194 0.42097 0.34669 0.0
C824 C 0.05688 0.47474 0.43048 0.0
C825 C 0.03104 0.45761 0.43234 0.0
C826 C 0.07296 0.46987 0.41662 0.0
C827 C 0.06357 0.44781 0.40426 0.0
C828 C 0.03775 0.43065 0.40587 0.0
H829 H 0.15568 0.4091 0.30991 0.0
H830 H 0.1203 0.40516 0.3363 0.0
C831 C 0.02156 0.43557 0.41968 0.0
C832 C 0.08122 0.44298 0.39031 0.0
H833 H 0.09895 0.43515 0.3261 0.0
C834 C 0.10082 0.44429 0.40641 0.0
C835 C 0.08014 0.43911 0.36111 0.0
C836 C 0.05983 0.43813 0.34275 0.0
C837 C 0.11987 0.44264 0.39391 0.0
C838 C 0.11936 0.43979 0.36457 0.0
C839 C 0.09918 0.43734 0.34863 0.0
C840 C 0.14078 0.44157 0.34973 0.0
C841 C 0.14069 0.44445 0.41206 0.0
C842 C 0.16383 0.46334 0.34857 0.0
C843 C 0.18392 0.46565 0.33353 0.0
C844 C 0.18132 0.4462 0.31939 0.0
C845 C 0.15827 0.42429 0.32087 0.0
C846 C 0.13806 0.42205 0.33577 0.0
H847 H 0.13508 0.4404 0.43456 0.0
H848 H 0.14632 0.43214 0.40498 0.0
H849 H 0.15733 0.46284 0.41037 0.0
H850 H 0.16616 0.47867 0.35898 0.0
H851 H 0.2015 0.48266 0.33296 0.0
H852 H 0.55761 0.06337 0.97391 0.0
H853 H 0.58486 0.09199 0.93706 0.0
H854 H 0.6369 0.06888 0.94868 0.0
H855 H 0.60987 0.04031 0.98507 0.0
H856 H 0.63456 0.13004 0.94178 0.0
H857 H 0.62951 0.06772 0.86377 0.0
H858 H 0.60738 0.0582 0.89241 0.0
H859 H 0.63769 0.06196 0.89807 0.0
C860 C 0.57457 0.064 0.96818 0.0
C861 C 0.58133 0.04926 0.98242 0.0
C862 C 0.59028 0.08055 0.94721 0.0
C863 C 0.61293 0.08254 0.93969 0.0
C864 C 0.61937 0.0675 0.95352 0.0
H865 H 0.75053 0.16678 0.85311 0.0
H866 H 0.71335 0.13958 0.88038 0.0
C867 C 0.60383 0.05112 0.9745 0.0
C868 C 0.63058 0.10095 0.9185 0.0
H869 H 0.66483 0.10791 0.85967 0.0
C870 C 0.64084 0.1252 0.92353 0.0
C871 C 0.6388 0.0948 0.89448 0.0
C872 C 0.62758 0.06925 0.88666 0.0
C873 C 0.66006 0.14328 0.9063 0.0
C874 C 0.66916 0.13705 0.88316 0.0
C875 C 0.65804 0.11282 0.87742 0.0
C876 C 0.69196 0.15495 0.86659 0.0
C877 C 0.67145 0.1689 0.91383 0.0
C878 C 0.69271 0.17309 0.84953 0.0
C879 C 0.71434 0.18901 0.83352 0.0
C880 C 0.73561 0.18704 0.83427 0.0
C881 C 0.73468 0.16901 0.85171 0.0
C882 C 0.71327 0.15326 0.86745 0.0
H883 H 0.6648 0.17067 0.93458 0.0
H884 H 0.69226 0.17825 0.91427 0.0
H885 H 0.66629 0.17793 0.8976 0.0
H886 H 0.67643 0.17467 0.84817 0.0
H887 H 0.71427 0.20253 0.82029 0.0
H888 H 0.59068 0.5613 0.37693 0.0
H889 H 0.6087 0.59961 0.35132 0.0
H890 H 0.61688 0.63431 0.42947 0.0
H891 H 0.59939 0.59637 0.45502 0.0
H892 H 0.58595 0.62562 0.35143 0.0
H893 H 0.68331 0.68051 0.39033 0.0
H894 H 0.66526 0.64845 0.39382 0.0
H895 H 0.66123 0.66613 0.41861 0.0
C896 C 0.59699 0.57724 0.38865 0.0
C897 C 0.59349 0.57588 0.41792 0.0
C898 C 0.60719 0.59905 0.37402 0.0
C899 C 0.61442 0.61984 0.38854 0.0
C900 C 0.61194 0.61861 0.41789 0.0
H901 H 0.63087 0.7529 0.37794 0.0
H902 H 0.6323 0.71744 0.38823 0.0
C903 C 0.60163 0.59687 0.43244 0.0
C904 C 0.62139 0.64223 0.37314 0.0
H905 H 0.66417 0.70198 0.37287 0.0
C906 C 0.60332 0.64227 0.35548 0.0
C907 C 0.64405 0.66388 0.37854 0.0
C908 C 0.66467 0.66474 0.39615 0.0
C909 C 0.60645 0.66361 0.3448 0.0
C910 C 0.6285 0.68541 0.35156 0.0
C911 C 0.64724 0.68524 0.36783 0.0
C912 C 0.63108 0.70849 0.34463 0.0
C913 C 0.58536 0.66269 0.32801 0.0
C914 C 0.63079 0.71566 0.31665 0.0
C915 C 0.62988 0.73593 0.3107 0.0
C916 C 0.6295 0.74949 0.33264 0.0
C917 C 0.63131 0.743 0.36056 0.0
C918 C 0.63206 0.72268 0.36648 0.0
H919 H 0.56783 0.64481 0.32917 0.0
H920 H 0.58122 0.6759 0.3356 0.0
H921 H 0.59103 0.66705 0.30559 0.0
H922 H 0.63056 0.70523 0.29946 0.0
H923 H 0.62898 0.74075 0.28897 0.0
H924 H 0.55233 0.08257 0.61394 0.0
H925 H 0.55013 0.10874 0.64733 0.0
H926 H 0.51932 0.13282 0.58261 0.0
H927 H 0.52173 0.10693 0.5491 0.0
H928 H 0.55374 0.16978 0.61334 0.0
H929 H 0.48766 0.09651 0.68581 0.0
H930 H 0.51643 0.09757 0.68026 0.0
H931 H 0.49505 0.09116 0.65143 0.0
C932 C 0.54492 0.09329 0.60681 0.0
C933 C 0.53706 0.09238 0.57871 0.0
C934 C 0.54364 0.1083 0.62601 0.0
C935 C 0.53413 0.12259 0.6178 0.0
C936 C 0.52673 0.12204 0.58964 0.0
H937 H 0.46614 0.17809 0.71812 0.0
H938 H 0.47849 0.15729 0.68796 0.0
C939 C 0.52815 0.10718 0.57039 0.0
C940 C 0.53147 0.13781 0.63844 0.0
H941 H 0.50288 0.13552 0.70019 0.0
C942 C 0.54269 0.16229 0.6324 0.0
C943 C 0.5169 0.12815 0.6633 0.0
C944 C 0.50311 0.10189 0.67054 0.0
C945 C 0.5395 0.17717 0.65016 0.0
C946 C 0.52501 0.1675 0.67506 0.0
C947 C 0.51419 0.14312 0.68132 0.0
C948 C 0.51845 0.18148 0.69341 0.0
C949 C 0.55081 0.20292 0.64147 0.0
C950 C 0.53676 0.20239 0.70682 0.0
C951 C 0.52965 0.2147 0.7243 0.0
C952 C 0.5041 0.20618 0.72892 0.0
C953 C 0.48602 0.18529 0.71538 0.0
C954 C 0.49306 0.17322 0.69799 0.0
H955 H 0.55669 0.20634 0.61904 0.0
H956 H 0.53727 0.20853 0.6448 0.0
H957 H 0.56767 0.21413 0.65451 0.0
H958 H 0.55651 0.20902 0.70414 0.0
H959 H 0.54409 0.23062 0.73443 0.0
H960 H 0.47625 0.53416 0.02268 0.0
H961 H 0.43876 0.53202 0.0406 0.0
H962 H 0.40508 0.45725 0.05969 0.0
H963 H 0.4422 0.45907 0.04155 0.0
H964 H 0.3704 0.4705 0.03975 0.0
H965 H 0.43148 0.52573 0.1274 0.0
H966 H 0.44117 0.53804 0.0924 0.0
H967 H 0.4414 0.51198 0.10306 0.0
C968 C 0.46059 0.51711 0.02998 0.0
C969 C 0.46237 0.49686 0.03117 0.0
C970 C 0.43926 0.51597 0.04033 0.0
C971 C 0.41946 0.4946 0.05201 0.0
C972 C 0.42026 0.47395 0.05093 0.0
H973 H 0.29363 0.43625 0.16155 0.0
H974 H 0.32469 0.44451 0.12552 0.0
C975 C 0.44154 0.47505 0.0406 0.0
C976 C 0.39932 0.49409 0.06831 0.0
H977 H 0.38853 0.51114 0.13075 0.0
C978 C 0.37433 0.47961 0.05948 0.0
C979 C 0.40457 0.50599 0.09406 0.0
C980 C 0.43105 0.5212 0.10502 0.0
C981 C 0.35435 0.47633 0.07603 0.0
C982 C 0.35957 0.48744 0.10231 0.0
C983 C 0.3846 0.50265 0.1106 0.0
C984 C 0.33948 0.4823 0.12254 0.0
C985 C 0.32786 0.46087 0.06531 0.0
C986 C 0.33784 0.50086 0.13332 0.0
C987 C 0.3202 0.49619 0.15412 0.0
C988 C 0.30394 0.47287 0.16461 0.0
C989 C 0.30556 0.45432 0.15361 0.0
C990 C 0.32325 0.45901 0.1329 0.0
H991 H 0.32742 0.46019 0.04199 0.0
H992 H 0.31979 0.44247 0.07379 0.0
H993 H 0.31576 0.46737 0.07212 0.0
H994 H 0.35034 0.51899 0.12576 0.0
H995 H 0.31923 0.51084 0.16186 0.0
H996 H 0.92647 0.41834 0.53971 0.0
H997 H 0.90317 0.39014 0.57787 0.0
H998 H 0.96046 0.43569 0.63663 0.0
H999 H 0.98425 0.46448 0.59801 0.0
H1000 H 0.91755 0.3655 0.61508 0.0
H1001 H 0.89434 0.42311 0.67248 0.0
H1002 H 0.90549 0.42957 0.6366 0.0
H1003 H 0.92702 0.43536 0.66496 0.0
C1004 C 0.93432 0.42255 0.5607 0.0
C1005 C 0.95733 0.44391 0.56565 0.0
C1006 C 0.92086 0.40624 0.58259 0.0
C1007 C 0.92974 0.41075 0.61032 0.0
C1008 C 0.95294 0.43188 0.61549 0.0
H1009 H 0.86141 0.32995 0.76653 0.0
H1010 H 0.88693 0.35991 0.73063 0.0
C1011 C 0.96665 0.44828 0.59336 0.0
C1012 C 0.91443 0.39306 0.63331 0.0
H1013 H 0.87915 0.38473 0.69174 0.0
C1014 C 0.90923 0.36975 0.63191 0.0
C1015 C 0.90343 0.39845 0.65529 0.0
C1016 C 0.90761 0.4229 0.6575 0.0
C1017 C 0.89368 0.35186 0.65185 0.0
C1018 C 0.88221 0.35707 0.67356 0.0
C1019 C 0.88765 0.3805 0.67511 0.0
C1020 C 0.86532 0.33877 0.69538 0.0
C1021 C 0.89025 0.32768 0.64979 0.0
C1022 C 0.84392 0.31685 0.68794 0.0
C1023 C 0.82917 0.29941 0.70864 0.0
C1024 C 0.83527 0.30355 0.73736 0.0
C1025 C 0.85603 0.32592 0.74472 0.0
C1026 C 0.87077 0.34321 0.7241 0.0
H1027 H 0.90565 0.32852 0.63757 0.0
H1028 H 0.88956 0.31982 0.67096 0.0
H1029 H 0.87233 0.31564 0.63882 0.0
H1030 H 0.83873 0.31309 0.66606 0.0
H1031 H 0.81335 0.2825 0.70207 0.0
H1032 H 0.55432 0.97997 0.13432 0.0
H1033 H 0.56848 0.95479 0.15444 0.0
H1034 H 0.64473 1.00745 0.13063 0.0
H1035 H 0.6306 0.03276 0.11011 0.0
H1036 H 0.59431 0.93805 0.12183 0.0
H1037 H 0.64861 0.98944 0.21507 0.0
H1038 H 0.6254 0.99381 0.19806 0.0
H1039 H 0.65529 1.00507 0.18161 0.0
C1040 C 0.57412 0.98626 0.13345 0.0
C1041 C 0.59132 1.00827 0.12045 0.0
C1042 C 0.58218 0.9719 0.14503 0.0
C1043 C 0.60761 0.9793 0.14399 0.0
C1044 C 0.62505 1.00158 0.13187 0.0
H1045 H 0.64509 0.87055 0.18125 0.0
H1046 H 0.64689 0.90517 0.15853 0.0
C1047 C 0.61697 0.01603 0.12026 0.0
C1048 C 0.61528 0.96287 0.15432 0.0
H1049 H 0.64472 0.95263 0.20863 0.0
C1050 C 0.60563 0.94132 0.14058 0.0
C1051 C 0.63001 0.96731 0.17877 0.0
C1052 C 0.6404 0.99008 0.19446 0.0
C1053 C 0.60947 0.92359 0.15129 0.0
C1054 C 0.62362 0.92774 0.17621 0.0
C1055 C 0.63406 0.94966 0.1894 0.0
C1056 C 0.62502 0.90846 0.19071 0.0
C1057 C 0.59722 0.9001 0.13676 0.0
C1058 C 0.61278 0.8994 0.2166 0.0
C1059 C 0.61179 0.87982 0.22954 0.0
C1060 C 0.62307 0.86891 0.21686 0.0
C1061 C 0.63619 0.87858 0.19142 0.0
C1062 C 0.63712 0.89822 0.1784 0.0
H1063 H 0.58376 0.89855 0.12025 0.0
H1064 H 0.61189 0.89828 0.12667 0.0
H1065 H 0.58706 0.88513 0.15223 0.0
H1066 H 0.60341 0.90713 0.22648 0.0
H1067 H 0.6021 0.87319 0.24947 0.0
H1068 H 0.57805 0.48279 0.55116 0.0
H1069 H 0.60748 0.48975 0.58901 0.0
H1070 H 0.61457 0.5566 0.60515 0.0
H1071 H 0.58417 0.54924 0.56736 0.0
H1072 H 0.65497 0.52274 0.59189 0.0
H1073 H 0.60824 0.53162 0.68428 0.0
H1074 H 0.59221 0.5206 0.65127 0.0
H1075 H 0.61298 0.55204 0.65593 0.0
C1076 C 0.58554 0.49888 0.56297 0.0
C1077 C 0.57866 0.51547 0.5561 0.0
C1078 C 0.60251 0.50286 0.5847 0.0
C1079 C 0.61339 0.52365 0.60032 0.0
C1080 C 0.60617 0.54013 0.59398 0.0
H1081 H 0.73795 0.58955 0.71686 0.0
H1082 H 0.70218 0.57809 0.68605 0.0
C1083 C 0.58879 0.53597 0.57227 0.0
C1084 C 0.6333 0.52834 0.62177 0.0
H1085 H 0.65059 0.54205 0.69062 0.0
C1086 C 0.6538 0.52675 0.61353 0.0
C1087 C 0.63204 0.53358 0.65016 0.0
C1088 C 0.61007 0.53434 0.66107 0.0
C1089 C 0.67307 0.53064 0.63246 0.0
C1090 C 0.67194 0.53612 0.66072 0.0
C1091 C 0.65148 0.5377 0.66905 0.0
C1092 C 0.69273 0.542 0.68125 0.0
C1093 C 0.69494 0.52959 0.6218 0.0
C1094 C 0.69926 0.52539 0.68961 0.0
C1095 C 0.7199 0.53191 0.70761 0.0
C1096 C 0.73453 0.55524 0.71741 0.0
C1097 C 0.72737 0.57148 0.7096 0.0
C1098 C 0.70676 0.56494 0.69197 0.0
H1099 H 0.69549 0.52973 0.59845 0.0
H1100 H 0.71299 0.54481 0.62945 0.0
H1101 H 0.69332 0.51297 0.62986 0.0
H1102 H 0.68855 0.50744 0.68199 0.0
H1103 H 0.72481 0.51894 0.71316 0.0
H1104 H 1.00495 0.59145 0.11646 0.0
H1105 H 0.03434 0.62649 0.14328 0.0
H1106 H 0.0844 0.60078 0.15159 0.0
H1107 H 0.0551 0.56566 0.1251 0.0
H1108 H 0.05628 0.63125 0.19835 0.0
H1109 H 0.12697 0.66727 0.11243 0.0
H1110 H 0.09464 0.64384 0.10718 0.0
H1111 H 0.11637 0.63724 0.12338 0.0
C1112 C 0.022 0.59305 0.12438 0.0
C1113 C 0.02785 0.57591 0.11834 0.0
C1114 C 0.03881 0.61313 0.13958 0.0
C1115 C 0.0617 0.61638 0.14888 0.0
C1116 C 0.06705 0.5988 0.14403 0.0
H1117 H 0.17283 0.71024 0.26607 0.0
H1118 H 0.1373 0.67729 0.24213 0.0
C1119 C 0.05031 0.57878 0.12887 0.0
C1120 C 0.08044 0.63846 0.16289 0.0
H1121 H 0.14044 0.68617 0.15645 0.0
C1122 C 0.07462 0.64339 0.18916 0.0
C1123 C 0.10416 0.65442 0.15055 0.0
C1124 C 0.11091 0.65061 0.12171 0.0
C1125 C 0.09235 0.66349 0.20394 0.0
C1126 C 0.11651 0.6788 0.1922 0.0
C1127 C 0.12196 0.6743 0.16548 0.0
C1128 C 0.13683 0.69907 0.20764 0.0
C1129 C 0.08508 0.66817 0.23195 0.0
C1130 C 0.14858 0.72221 0.19599 0.0
C1131 C 0.16914 0.74107 0.20946 0.0
C1132 C 0.17845 0.73706 0.23469 0.0
C1133 C 0.16635 0.71389 0.2465 0.0
C1134 C 0.1458 0.69508 0.23304 0.0
H1135 H 0.06437 0.65915 0.23406 0.0
H1136 H 0.09183 0.66118 0.24905 0.0
H1137 H 0.09371 0.68751 0.2349 0.0
H1138 H 0.14206 0.7256 0.17624 0.0
H1139 H 0.17819 0.75863 0.19968 0.0
loop_
_geom_bond_atom_site_label_1
_geom_bond_atom_site_label_2
_geom_bond_distance
_geom_bond_site_symmetry_2
_ccdc_geom_bond_type
Cu0 N1 1.999 1_454 S
Cu0 O6 1.974 1_454 S
Cu0 N11 1.985 . S
Cu0 O20 1.959 . S
N1 Cu0 1.999 1_656 S
N1 C3 1.263 . S
N1 C5 1.389 1_556 S
N2 C3 1.358 . S
N2 C4 1.400 . S
C3 N1 1.263 . S
C3 N2 1.358 . S
C3 H9 0.930 . S
C4 N2 1.400 . S
C4 C5 1.351 1_556 S
C4 H21 0.930 . S
C5 N1 1.389 1_554 S
C5 C4 1.351 1_554 S
C5 H10 0.930 . S
O6 Cu0 1.974 1_656 S
O6 C16 1.282 . S
C7 O8 1.263 . S
C7 O20 1.251 . S
O8 C7 1.263 . S
H9 C3 0.930 . S
H10 C5 0.930 . S
N11 Cu0 1.985 . S
N11 C13 1.335 . S
N11 C14 1.390 . S
N12 C13 1.345 . S
N12 C15 1.336 . S
C13 N11 1.335 . S
C13 N12 1.345 . S
C13 H18 0.930 . S
C14 N11 1.390 . S
C14 C15 1.346 . S
C14 H19 0.930 1_554 S
C15 N12 1.336 . S
C15 C14 1.346 . S
C15 H22 0.929 . S
C16 O6 1.282 . S
C16 O17 1.216 1_655 S
O17 C16 1.216 1_455 S
H18 C13 0.930 . S
H19 C14 0.930 1_556 S
O20 Cu0 1.959 . S
O20 C7 1.251 . S
H21 C4 0.930 . S
H22 C15 0.929 . S
Cu23 N24 1.999 . S
Cu23 O29 1.974 . S
Cu23 N34 1.985 1_565 S
Cu23 O43 1.959 1_565 S
N24 Cu23 1.999 . S
N24 C26 1.263 . S
N24 C28 1.389 . S
N25 C26 1.358 . S
N25 C27 1.400 . S
C26 N24 1.263 . S
C26 N25 1.358 . S
C26 H32 0.930 . S
C27 N25 1.400 . S
C27 C28 1.351 . S
C27 H44 0.930 . S
C28 N24 1.389 . S
C28 C27 1.351 . S
C28 H33 0.930 . S
O29 Cu23 1.974 . S
O29 C39 1.282 . S
C30 O31 1.261 . S
C30 O43 1.251 . S
O31 C30 1.261 . S
H32 C26 0.930 . S
H33 C28 0.930 . S
N34 Cu23 1.985 1_545 S
N34 C36 1.335 . S
N34 C37 1.390 . S
N35 C36 1.345 . S
N35 C38 1.336 . S
C36 N34 1.335 . S
C36 N35 1.345 . S
C36 H41 0.930 . S
C37 N34 1.390 . S
C37 C38 1.346 . S
C37 H42 0.930 . S
C38 N35 1.336 . S
C38 C37 1.346 . S
C38 H45 0.929 . S
C39 O29 1.282 . S
C39 O40 1.216 1_565 S
O40 C39 1.216 1_545 S
H41 C36 0.930 . S
H42 C37 0.930 . S
O43 Cu23 1.959 1_545 S
O43 C30 1.251 . S
H44 C27 0.930 . S
H45 C38 0.929 . S
Cu46 N47 1.999 1_554 S
Cu46 O52 1.974 1_554 S
Cu46 N57 1.985 . S
Cu46 O66 1.959 . S
N47 Cu46 1.999 1_556 S
N47 C49 1.263 . S
N47 C51 1.389 . S
N48 C49 1.358 . S
N48 C50 1.400 . S
C49 N47 1.263 . S
C49 N48 1.358 . S
C49 H55 0.930 . S
C50 N48 1.400 . S
C50 C51 1.351 . S
C50 H67 0.930 . S
C51 N47 1.389 . S
C51 C50 1.351 . S
C51 H56 0.930 . S
O52 Cu46 1.974 1_556 S
O52 C62 1.282 . S
C53 O54 1.261 . S
C53 O66 1.251 . S
O54 C53 1.261 . S
H55 C49 0.930 . S
H56 C51 0.930 . S
N57 Cu46 1.985 . S
N57 C59 1.335 . S
N57 C60 1.390 . S
N58 C59 1.345 . S
N58 C61 1.336 . S
C59 N57 1.335 . S
C59 N58 1.345 . S
C59 H64 0.930 . S
C60 N57 1.390 . S
C60 C61 1.346 . S
C60 H65 0.930 . S
C61 N58 1.336 . S
C61 C60 1.346 . S
C61 H68 0.929 . S
C62 O52 1.282 . S
C62 O63 1.216 1_556 S
O63 C62 1.216 1_554 S
H64 C59 0.930 . S
H65 C60 0.930 . S
O66 Cu46 1.959 . S
O66 C53 1.251 . S
H67 C50 0.930 . S
H68 C61 0.929 . S
Cu69 N70 1.999 1_655 S
Cu69 O75 1.974 1_655 S
Cu69 N80 1.985 . S
Cu69 O89 1.959 . S
N70 Cu69 1.999 1_455 S
N70 C72 1.263 . S
N70 C74 1.389 1_455 S
N71 C72 1.358 . S
N71 C73 1.400 . S
C72 N70 1.263 . S
C72 N71 1.358 . S
C72 H78 0.930 . S
C73 N71 1.400 . S
C73 C74 1.351 1_455 S
C73 H90 0.930 . S
C74 N70 1.389 1_655 S
C74 C73 1.351 1_655 S
C74 H79 0.930 . S
O75 Cu69 1.974 1_455 S
O75 C85 1.282 . S
C76 O77 1.261 1_655 S
C76 O89 1.251 . S
O77 C76 1.261 1_455 S
H78 C72 0.930 . S
H79 C74 0.930 . S
N80 Cu69 1.985 . S
N80 C82 1.335 . S
N80 C83 1.390 . S
N81 C82 1.345 . S
N81 C84 1.336 . S
C82 N80 1.335 . S
C82 N81 1.345 . S
C82 H87 0.930 . S
C83 N80 1.390 . S
C83 C84 1.346 . S
C83 H88 0.930 1_655 S
C84 N81 1.336 . S
C84 C83 1.346 . S
C84 H91 0.929 . S
C85 O75 1.282 . S
C85 O86 1.216 . S
O86 C85 1.216 . S
H87 C82 0.930 . S
H88 C83 0.930 1_455 S
O89 Cu69 1.959 . S
O89 C76 1.251 . S
H90 C73 0.930 . S
H91 C84 0.929 . S
Cu92 N93 1.999 . S
Cu92 O98 1.974 1_554 S
Cu92 N103 1.985 1_545 S
Cu92 O112 1.959 1_545 S
N93 Cu92 1.999 . S
N93 C95 1.263 1_554 S
N93 C97 1.389 . S
N94 C95 1.358 . S
N94 C96 1.400 1_556 S
C95 N93 1.263 1_556 S
C95 N94 1.358 . S
C95 H101 0.930 . S
C96 N94 1.400 1_554 S
C96 C97 1.351 . S
C96 H113 0.930 . S
C97 N93 1.389 . S
C97 C96 1.351 . S
C97 H102 0.930 . S
O98 Cu92 1.974 1_556 S
O98 C108 1.282 . S
C99 O100 1.261 . S
C99 O112 1.251 . S
O100 C99 1.261 . S
H101 C95 0.930 . S
H102 C97 0.930 . S
N103 Cu92 1.985 1_565 S
N103 C105 1.335 . S
N103 C106 1.390 . S
N104 C105 1.345 . S
N104 C107 1.336 . S
C105 N103 1.335 . S
C105 N104 1.345 . S
C105 H110 0.930 . S
C106 N103 1.390 . S
C106 C107 1.346 . S
C106 H111 0.930 . S
C107 N104 1.336 . S
C107 C106 1.346 . S
C107 H114 0.929 . S
C108 O98 1.282 . S
C108 O109 1.216 . S
O109 C108 1.216 . S
H110 C105 0.930 . S
H111 C106 0.930 . S
O112 Cu92 1.959 1_565 S
O112 C99 1.251 . S
H113 C96 0.930 . S
H114 C107 0.929 . S
Cu115 N116 1.999 . S
Cu115 O121 1.974 . S
Cu115 N126 1.985 . S
Cu115 O135 1.959 . S
N116 Cu115 1.999 . S
N116 C118 1.263 . S
N116 C120 1.389 . S
N117 C118 1.358 . S
N117 C119 1.400 . S
C118 N116 1.263 . S
C118 N117 1.358 . S
C118 H124 0.930 . S
C119 N117 1.400 . S
C119 C120 1.351 . S
C119 H136 0.930 . S
C120 N116 1.389 . S
C120 C119 1.351 . S
C120 H125 0.930 . S
O121 Cu115 1.974 . S
O121 C131 1.282 . S
C122 O123 1.261 . S
C122 O135 1.251 . S
O123 C122 1.261 . S
H124 C118 0.930 . S
H125 C120 0.930 . S
N126 Cu115 1.985 . S
N126 C128 1.335 . S
N126 C129 1.390 . S
N127 C128 1.345 . S
N127 C130 1.336 . S
C128 N126 1.335 . S
C128 N127 1.345 . S
C128 H133 0.930 . S
C129 N126 1.390 . S
C129 C130 1.346 . S
C129 H134 0.930 . S
C130 N127 1.336 . S
C130 C129 1.346 . S
C130 H137 0.929 . S
C131 O121 1.282 . S
C131 O132 1.216 . S
O132 C131 1.216 . S
H133 C128 0.930 . S
H134 C129 0.930 . S
O135 Cu115 1.959 . S
O135 C122 1.251 . S
H136 C119 0.930 . S
H137 C130 0.929 . S
Cu138 N139 1.999 . S
Cu138 O144 1.974 . S
Cu138 N149 1.985 . S
Cu138 O158 1.959 . S
N139 Cu138 1.999 . S
N139 C141 1.263 . S
N139 C143 1.389 . S
N140 C141 1.358 . S
N140 C142 1.400 . S
C141 N139 1.263 . S
C141 N140 1.358 . S
C141 H147 0.930 . S
C142 N140 1.400 . S
C142 C143 1.351 . S
C142 H159 0.930 . S
C143 N139 1.389 . S
C143 C142 1.351 . S
C143 H148 0.930 . S
O144 Cu138 1.974 . S
O144 C154 1.282 . S
C145 O146 1.261 . S
C145 O158 1.251 . S
O146 C145 1.261 . S
H147 C141 0.930 . S
H148 C143 0.930 . S
N149 Cu138 1.985 . S
N149 C151 1.335 . S
N149 C152 1.390 . S
N150 C151 1.345 . S
N150 C153 1.336 . S
C151 N149 1.335 . S
C151 N150 1.345 . S
C151 H156 0.930 . S
C152 N149 1.390 . S
C152 C153 1.346 . S
C152 H157 0.930 . S
C153 N150 1.336 . S
C153 C152 1.346 . S
C153 H160 0.929 . S
C154 O144 1.282 . S
C154 O155 1.216 . S
O155 C154 1.216 . S
H156 C151 0.930 . S
H157 C152 0.930 . S
O158 Cu138 1.959 . S
O158 C145 1.251 . S
H159 C142 0.930 . S
H160 C153 0.929 . S
Cu161 N162 1.999 . S
Cu161 O167 1.974 . S
Cu161 N172 1.985 . S
Cu161 O181 1.959 . S
N162 Cu161 1.999 . S
N162 C164 1.263 . S
N162 C166 1.389 . S
N163 C164 1.358 . S
N163 C165 1.400 . S
C164 N162 1.263 . S
C164 N163 1.358 . S
C164 H170 0.930 . S
C165 N163 1.400 . S
C165 C166 1.351 . S
C165 H182 0.930 . S
C166 N162 1.389 . S
C166 C165 1.351 . S
C166 H171 0.930 . S
O167 Cu161 1.974 . S
O167 C177 1.282 . S
C168 O169 1.261 . S
C168 O181 1.251 . S
O169 C168 1.261 . S
H170 C164 0.930 . S
H171 C166 0.930 . S
N172 Cu161 1.985 . S
N172 C174 1.335 . S
N172 C175 1.390 . S
N173 C174 1.345 . S
N173 C176 1.336 . S
C174 N172 1.335 . S
C174 N173 1.345 . S
C174 H179 0.930 . S
C175 N172 1.390 . S
C175 C176 1.346 . S
C175 H180 0.930 . S
C176 N173 1.336 . S
C176 C175 1.346 . S
C176 H183 0.929 . S
C177 O167 1.282 . S
C177 O178 1.216 . S
O178 C177 1.216 . S
H179 C174 0.930 . S
H180 C175 0.930 . S
O181 Cu161 1.959 . S
O181 C168 1.251 . S
H182 C165 0.930 . S
H183 C176 0.929 . S
Cu184 N185 1.999 . S
Cu184 O190 1.974 . S
Cu184 N195 1.985 . S
Cu184 O204 1.959 . S
N185 Cu184 1.999 . S
N185 C187 1.263 . S
N185 C189 1.389 . S
N186 C187 1.358 . S
N186 C188 1.400 . S
C187 N185 1.263 . S
C187 N186 1.358 . S
C187 H193 0.930 . S
C188 N186 1.400 . S
C188 C189 1.351 . S
C188 H205 0.930 . S
C189 N185 1.389 . S
C189 C188 1.351 . S
C189 H194 0.930 . S
O190 Cu184 1.974 . S
O190 C200 1.282 . S
C191 O192 1.261 . S
C191 O204 1.251 . S
O192 C191 1.261 . S
H193 C187 0.930 . S
H194 C189 0.930 . S
N195 Cu184 1.985 . S
N195 C197 1.335 . S
N195 C198 1.390 . S
N196 C197 1.345 . S
N196 C199 1.336 . S
C197 N195 1.335 . S
C197 N196 1.345 . S
C197 H202 0.930 . S
C198 N195 1.390 . S
C198 C199 1.346 . S
C198 H203 0.930 . S
C199 N196 1.336 . S
C199 C198 1.346 . S
C199 H206 0.929 . S
C200 O190 1.282 . S
C200 O201 1.216 . S
O201 C200 1.216 . S
H202 C197 0.930 . S
H203 C198 0.930 . S
O204 Cu184 1.959 . S
O204 C191 1.251 . S
H205 C188 0.930 . S
H206 C199 0.929 . S
Cu207 N208 1.999 . S
Cu207 O213 1.974 . S
Cu207 N218 1.985 . S
Cu207 O227 1.959 . S
N208 Cu207 1.999 . S
N208 C210 1.263 . S
N208 C212 1.389 . S
N209 C210 1.358 . S
N209 C211 1.400 . S
C210 N208 1.263 . S
C210 N209 1.358 . S
C210 H216 0.930 . S
C211 N209 1.400 . S
C211 C212 1.351 . S
C211 H228 0.930 . S
C212 N208 1.389 . S
C212 C211 1.351 . S
C212 H217 0.930 . S
O213 Cu207 1.974 . S
O213 C223 1.282 . S
C214 O215 1.261 . S
C214 O227 1.251 . S
O215 C214 1.261 . S
H216 C210 0.930 . S
H217 C212 0.930 . S
N218 Cu207 1.985 . S
N218 C220 1.335 . S
N218 C221 1.390 . S
N219 C220 1.345 . S
N219 C222 1.336 . S
C220 N218 1.335 . S
C220 N219 1.345 . S
C220 H225 0.930 . S
C221 N218 1.390 . S
C221 C222 1.346 . S
C221 H226 0.930 . S
C222 N219 1.336 . S
C222 C221 1.346 . S
C222 H229 0.929 . S
C223 O213 1.282 . S
C223 O224 1.216 . S
O224 C223 1.216 . S
H225 C220 0.930 . S
H226 C221 0.930 . S
O227 Cu207 1.959 . S
O227 C214 1.251 . S
H228 C211 0.930 . S
H229 C222 0.929 . S
Cu230 N231 1.999 . S
Cu230 O236 1.974 . S
Cu230 N241 1.985 . S
Cu230 O250 1.959 . S
N231 Cu230 1.999 . S
N231 C233 1.263 . S
N231 C235 1.389 . S
N232 C233 1.358 . S
N232 C234 1.400 . S
C233 N231 1.263 . S
C233 N232 1.358 . S
C233 H239 0.930 . S
C234 N232 1.400 . S
C234 C235 1.351 . S
C234 H251 0.930 . S
C235 N231 1.389 . S
C235 C234 1.351 . S
C235 H240 0.930 . S
O236 Cu230 1.974 . S
O236 C246 1.282 . S
C237 O238 1.261 . S
C237 O250 1.251 . S
O238 C237 1.261 . S
H239 C233 0.930 . S
H240 C235 0.930 . S
N241 Cu230 1.985 . S
N241 C243 1.335 . S
N241 C244 1.390 . S
N242 C243 1.345 . S
N242 C245 1.336 . S
C243 N241 1.335 . S
C243 N242 1.345 . S
C243 H248 0.930 . S
C244 N241 1.390 . S
C244 C245 1.346 . S
C244 H249 0.930 . S
C245 N242 1.336 . S
C245 C244 1.346 . S
C245 H252 0.929 . S
C246 O236 1.282 . S
C246 O247 1.216 . S
O247 C246 1.216 . S
H248 C243 0.930 . S
H249 C244 0.930 . S
O250 Cu230 1.959 . S
O250 C237 1.251 . S
H251 C234 0.930 . S
H252 C245 0.929 . S
Cu253 N254 1.999 . S
Cu253 O259 1.974 . S
Cu253 N264 1.985 . S
Cu253 O273 1.959 . S
N254 Cu253 1.999 . S
N254 C256 1.263 . S
N254 C258 1.389 . S
N255 C256 1.358 . S
N255 C257 1.400 . S
C256 N254 1.263 . S
C256 N255 1.358 . S
C256 H262 0.930 . S
C257 N255 1.400 . S
C257 C258 1.351 . S
C257 H274 0.930 . S
C258 N254 1.389 . S
C258 C257 1.351 . S
C258 H263 0.930 . S
O259 Cu253 1.974 . S
O259 C269 1.282 . S
C260 O261 1.261 . S
C260 O273 1.251 . S
O261 C260 1.261 . S
H262 C256 0.930 . S
H263 C258 0.930 . S
N264 Cu253 1.985 . S
N264 C266 1.335 . S
N264 C267 1.390 . S
N265 C266 1.345 . S
N265 C268 1.336 . S
C266 N264 1.335 . S
C266 N265 1.345 . S
C266 H271 0.930 . S
C267 N264 1.390 . S
C267 C268 1.346 . S
C267 H272 0.930 . S
C268 N265 1.336 . S
C268 C267 1.346 . S
C268 H275 0.929 . S
C269 O259 1.282 . S
C269 O270 1.216 . S
O270 C269 1.216 . S
H271 C266 0.930 . S
H272 C267 0.930 . S
O273 Cu253 1.959 . S
O273 C260 1.251 . S
H274 C257 0.930 . S
H275 C268 0.929 . S
H276 C284 0.929 . S
H277 C286 0.930 . S
H278 C288 0.930 . S
H279 C291 0.929 . S
H280 C294 0.930 . S
H281 C296 0.960 . S
H282 C296 0.960 . S
H283 C296 0.960 . S
C284 H276 0.929 . S
C284 C285 1.377 . S
C284 C286 1.384 . S
C285 C284 1.377 . S
C285 C291 1.390 . S
C286 H277 0.930 . S
C286 C284 1.384 . S
C286 C287 1.372 . S
C287 C286 1.372 . S
C287 C288 1.400 . S
C287 C292 1.490 . S
C288 H278 0.930 . S
C288 C287 1.400 . S
C288 C291 1.386 . S
H289 C305 0.930 . S
H290 C306 0.931 . S
C291 H279 0.929 . S
C291 C285 1.390 . S
C291 C288 1.386 . S
C292 C287 1.490 . S
C292 C294 1.395 . S
C292 C295 1.403 . S
H293 C299 0.930 . S
C294 H280 0.930 . S
C294 C292 1.395 . S
C294 C297 1.403 . S
C295 C292 1.403 . S
C295 C296 1.524 . S
C295 C299 1.400 . S
C296 H281 0.960 . S
C296 H282 0.960 . S
C296 H283 0.960 . S
C296 C295 1.524 . S
C297 C294 1.403 . S
C297 C298 1.392 . S
C297 C301 1.495 . S
C298 C297 1.392 . S
C298 C299 1.385 . S
C298 C300 1.478 . S
C299 H293 0.930 . S
C299 C295 1.400 . S
C299 C298 1.385 . S
C300 C298 1.478 . S
C300 C302 1.381 . S
C300 C306 1.383 . S
C301 C297 1.495 . S
C301 H307 0.959 . S
C301 H308 0.961 . S
C301 H309 0.960 . S
C302 C300 1.381 . S
C302 C303 1.394 . S
C302 H310 0.930 . S
C303 C302 1.394 . S
C303 C304 1.383 . S
C303 H311 0.929 . S
C304 C303 1.383 . S
C304 C305 1.377 . S
C305 H289 0.930 . S
C305 C304 1.377 . S
C305 C306 1.379 . S
C306 H290 0.931 . S
C306 C300 1.383 . S
C306 C305 1.379 . S
H307 C301 0.959 . S
H308 C301 0.961 . S
H309 C301 0.960 . S
H310 C302 0.930 . S
H311 C303 0.929 . S
H312 C320 0.929 . S
H313 C322 0.930 . S
H314 C324 0.930 . S
H315 C327 0.929 . S
H316 C330 0.930 . S
H317 C332 0.960 . S
H318 C332 0.960 . S
H319 C332 0.960 . S
C320 H312 0.929 . S
C320 C321 1.377 . S
C320 C322 1.384 . S
C321 C320 1.377 . S
C321 C327 1.390 . S
C322 H313 0.930 . S
C322 C320 1.384 . S
C322 C323 1.372 . S
C323 C322 1.372 . S
C323 C324 1.400 . S
C323 C328 1.490 . S
C324 H314 0.930 . S
C324 C323 1.400 . S
C324 C327 1.386 . S
H325 C341 0.930 . S
H326 C342 0.931 . S
C327 H315 0.929 . S
C327 C321 1.390 . S
C327 C324 1.386 . S
C328 C323 1.490 . S
C328 C330 1.395 . S
C328 C331 1.403 . S
H329 C335 0.930 . S
C330 H316 0.930 . S
C330 C328 1.395 . S
C330 C333 1.403 . S
C331 C328 1.403 . S
C331 C332 1.524 . S
C331 C335 1.400 . S
C332 H317 0.960 . S
C332 H318 0.960 . S
C332 H319 0.960 . S
C332 C331 1.524 . S
C333 C330 1.403 . S
C333 C334 1.392 . S
C333 C337 1.495 . S
C334 C333 1.392 . S
C334 C335 1.385 . S
C334 C336 1.478 . S
C335 H329 0.930 . S
C335 C331 1.400 . S
C335 C334 1.385 . S
C336 C334 1.478 . S
C336 C338 1.381 . S
C336 C342 1.383 . S
C337 C333 1.495 . S
C337 H343 0.959 . S
C337 H344 0.961 . S
C337 H345 0.960 . S
C338 C336 1.381 . S
C338 C339 1.394 . S
C338 H346 0.930 . S
C339 C338 1.394 . S
C339 C340 1.383 . S
C339 H347 0.929 . S
C340 C339 1.383 . S
C340 C341 1.377 . S
C341 H325 0.930 . S
C341 C340 1.377 . S
C341 C342 1.379 . S
C342 H326 0.931 . S
C342 C336 1.383 . S
C342 C341 1.379 . S
H343 C337 0.959 . S
H344 C337 0.961 . S
H345 C337 0.960 . S
H346 C338 0.930 . S
H347 C339 0.929 . S
H348 C356 0.929 . S
H349 C358 0.930 . S
H350 C360 0.930 . S
H351 C363 0.929 . S
H352 C366 0.930 . S
H353 C368 0.960 . S
H354 C368 0.960 . S
H355 C368 0.960 . S
C356 H348 0.929 . S
C356 C357 1.377 . S
C356 C358 1.384 . S
C357 C356 1.377 . S
C357 C363 1.390 . S
C358 H349 0.930 . S
C358 C356 1.384 . S
C358 C359 1.372 . S
C359 C358 1.372 . S
C359 C360 1.400 . S
C359 C364 1.490 . S
C360 H350 0.930 . S
C360 C359 1.400 . S
C360 C363 1.386 . S
H361 C377 0.930 . S
H362 C378 0.931 . S
C363 H351 0.929 . S
C363 C357 1.390 . S
C363 C360 1.386 . S
C364 C359 1.490 . S
C364 C366 1.395 . S
C364 C367 1.403 . S
H365 C371 0.930 . S
C366 H352 0.930 . S
C366 C364 1.395 . S
C366 C369 1.403 . S
C367 C364 1.403 . S
C367 C368 1.524 . S
C367 C371 1.400 . S
C368 H353 0.960 . S
C368 H354 0.960 . S
C368 H355 0.960 . S
C368 C367 1.524 . S
C369 C366 1.403 . S
C369 C370 1.392 . S
C369 C373 1.495 . S
C370 C369 1.392 . S
C370 C371 1.385 . S
C370 C372 1.478 . S
C371 H365 0.930 . S
C371 C367 1.400 . S
C371 C370 1.385 . S
C372 C370 1.478 . S
C372 C374 1.381 . S
C372 C378 1.383 . S
C373 C369 1.495 . S
C373 H379 0.959 . S
C373 H380 0.961 . S
C373 H381 0.960 . S
C374 C372 1.381 . S
C374 C375 1.394 . S
C374 H382 0.930 . S
C375 C374 1.394 . S
C375 C376 1.383 . S
C375 H383 0.929 . S
C376 C375 1.383 . S
C376 C377 1.377 . S
C377 H361 0.930 . S
C377 C376 1.377 . S
C377 C378 1.379 . S
C378 H362 0.931 . S
C378 C372 1.383 . S
C378 C377 1.379 . S
H379 C373 0.959 . S
H380 C373 0.961 . S
H381 C373 0.960 . S
H382 C374 0.930 . S
H383 C375 0.929 . S
H384 C392 0.929 . S
H385 C394 0.930 . S
H386 C396 0.930 . S
H387 C399 0.929 . S
H388 C402 0.930 . S
H389 C404 0.960 . S
H390 C404 0.960 . S
H391 C404 0.960 . S
C392 H384 0.929 . S
C392 C393 1.377 . S
C392 C394 1.384 . S
C393 C392 1.377 . S
C393 C399 1.390 . S
C394 H385 0.930 . S
C394 C392 1.384 . S
C394 C395 1.372 . S
C395 C394 1.372 . S
C395 C396 1.400 . S
C395 C400 1.490 . S
C396 H386 0.930 . S
C396 C395 1.400 . S
C396 C399 1.386 . S
H397 C413 0.930 . S
H398 C414 0.931 . S
C399 H387 0.929 . S
C399 C393 1.390 . S
C399 C396 1.386 . S
C400 C395 1.490 . S
C400 C402 1.395 . S
C400 C403 1.403 . S
H401 C407 0.930 . S
C402 H388 0.930 . S
C402 C400 1.395 . S
C402 C405 1.403 . S
C403 C400 1.403 . S
C403 C404 1.524 . S
C403 C407 1.400 . S
C404 H389 0.960 . S
C404 H390 0.960 . S
C404 H391 0.960 . S
C404 C403 1.524 . S
C405 C402 1.403 . S
C405 C406 1.392 . S
C405 C409 1.495 . S
C406 C405 1.392 . S
C406 C407 1.385 . S
C406 C408 1.478 . S
C407 H401 0.930 . S
C407 C403 1.400 . S
C407 C406 1.385 . S
C408 C406 1.478 . S
C408 C410 1.381 . S
C408 C414 1.383 . S
C409 C405 1.495 . S
C409 H415 0.959 . S
C409 H416 0.961 . S
C409 H417 0.960 . S
C410 C408 1.381 . S
C410 C411 1.394 . S
C410 H418 0.930 . S
C411 C410 1.394 . S
C411 C412 1.383 . S
C411 H419 0.929 . S
C412 C411 1.383 . S
C412 C413 1.377 . S
C413 H397 0.930 . S
C413 C412 1.377 . S
C413 C414 1.379 . S
C414 H398 0.931 . S
C414 C408 1.383 . S
C414 C413 1.379 . S
H415 C409 0.959 . S
H416 C409 0.961 . S
H417 C409 0.960 . S
H418 C410 0.930 . S
H419 C411 0.929 . S
H420 C428 0.929 . S
H421 C430 0.930 . S
H422 C432 0.930 . S
H423 C435 0.929 . S
H424 C438 0.930 . S
H425 C440 0.960 . S
H426 C440 0.960 . S
H427 C440 0.960 . S
C428 H420 0.929 . S
C428 C429 1.377 . S
C428 C430 1.384 . S
C429 C428 1.377 . S
C429 C435 1.390 . S
C430 H421 0.930 . S
C430 C428 1.384 . S
C430 C431 1.372 . S
C431 C430 1.372 . S
C431 C432 1.400 . S
C431 C436 1.490 . S
C432 H422 0.930 . S
C432 C431 1.400 . S
C432 C435 1.386 . S
H433 C449 0.930 . S
H434 C450 0.931 . S
C435 H423 0.929 . S
C435 C429 1.390 . S
C435 C432 1.386 . S
C436 C431 1.490 . S
C436 C438 1.395 . S
C436 C439 1.403 . S
H437 C443 0.930 . S
C438 H424 0.930 . S
C438 C436 1.395 . S
C438 C441 1.403 . S
C439 C436 1.403 . S
C439 C440 1.524 . S
C439 C443 1.400 . S
C440 H425 0.960 . S
C440 H426 0.960 . S
C440 H427 0.960 . S
C440 C439 1.524 . S
C441 C438 1.403 . S
C441 C442 1.392 . S
C441 C445 1.495 . S
C442 C441 1.392 . S
C442 C443 1.385 . S
C442 C444 1.478 . S
C443 H437 0.930 . S
C443 C439 1.400 . S
C443 C442 1.385 . S
C444 C442 1.478 . S
C444 C446 1.381 . S
C444 C450 1.383 . S
C445 C441 1.495 . S
C445 H451 0.959 . S
C445 H452 0.961 . S
C445 H453 0.960 . S
C446 C444 1.381 . S
C446 C447 1.394 . S
C446 H454 0.930 . S
C447 C446 1.394 . S
C447 C448 1.383 . S
C447 H455 0.929 . S
C448 C447 1.383 . S
C448 C449 1.377 . S
C449 H433 0.930 . S
C449 C448 1.377 . S
C449 C450 1.379 . S
C450 H434 0.931 . S
C450 C444 1.383 . S
C450 C449 1.379 . S
H451 C445 0.959 . S
H452 C445 0.961 . S
H453 C445 0.960 . S
H454 C446 0.930 . S
H455 C447 0.929 . S
H456 C464 0.929 . S
H457 C466 0.930 . S
H458 C468 0.930 . S
H459 C471 0.929 . S
H460 C474 0.930 . S
H461 C476 0.960 . S
H462 C476 0.960 . S
H463 C476 0.960 . S
C464 H456 0.929 . S
C464 C465 1.377 . S
C464 C466 1.384 . S
C465 C464 1.377 . S
C465 C471 1.390 . S
C466 H457 0.930 . S
C466 C464 1.384 . S
C466 C467 1.372 . S
C467 C466 1.372 . S
C467 C468 1.400 . S
C467 C472 1.490 . S
C468 H458 0.930 . S
C468 C467 1.400 . S
C468 C471 1.386 . S
H469 C485 0.930 . S
H470 C486 0.931 . S
C471 H459 0.929 . S
C471 C465 1.390 . S
C471 C468 1.386 . S
C472 C467 1.490 . S
C472 C474 1.395 . S
C472 C475 1.403 . S
H473 C479 0.930 . S
C474 H460 0.930 . S
C474 C472 1.395 . S
C474 C477 1.403 . S
C475 C472 1.403 . S
C475 C476 1.524 . S
C475 C479 1.400 . S
C476 H461 0.960 . S
C476 H462 0.960 . S
C476 H463 0.960 . S
C476 C475 1.524 . S
C477 C474 1.403 . S
C477 C478 1.392 . S
C477 C481 1.495 . S
C478 C477 1.392 . S
C478 C479 1.385 . S
C478 C480 1.478 . S
C479 H473 0.930 . S
C479 C475 1.400 . S
C479 C478 1.385 . S
C480 C478 1.478 . S
C480 C482 1.381 . S
C480 C486 1.383 . S
C481 C477 1.495 . S
C481 H487 0.959 . S
C481 H488 0.961 . S
C481 H489 0.960 . S
C482 C480 1.381 . S
C482 C483 1.394 . S
C482 H490 0.930 . S
C483 C482 1.394 . S
C483 C484 1.383 . S
C483 H491 0.929 . S
C484 C483 1.383 . S
C484 C485 1.377 . S
C485 H469 0.930 . S
C485 C484 1.377 . S
C485 C486 1.379 . S
C486 H470 0.931 . S
C486 C480 1.383 . S
C486 C485 1.379 . S
H487 C481 0.959 . S
H488 C481 0.961 . S
H489 C481 0.960 . S
H490 C482 0.930 . S
H491 C483 0.929 . S
H492 C500 0.929 . S
H493 C502 0.930 . S
H494 C504 0.930 . S
H495 C507 0.929 . S
H496 C510 0.930 . S
H497 C512 0.960 . S
H498 C512 0.960 . S
H499 C512 0.960 . S
C500 H492 0.929 . S
C500 C501 1.377 . S
C500 C502 1.384 . S
C501 C500 1.377 . S
C501 C507 1.390 . S
C502 H493 0.930 . S
C502 C500 1.384 . S
C502 C503 1.372 . S
C503 C502 1.372 . S
C503 C504 1.400 . S
C503 C508 1.490 . S
C504 H494 0.930 . S
C504 C503 1.400 . S
C504 C507 1.386 . S
H505 C521 0.930 . S
H506 C522 0.931 . S
C507 H495 0.929 . S
C507 C501 1.390 . S
C507 C504 1.386 . S
C508 C503 1.490 . S
C508 C510 1.395 . S
C508 C511 1.403 . S
H509 C515 0.930 . S
C510 H496 0.930 . S
C510 C508 1.395 . S
C510 C513 1.403 . S
C511 C508 1.403 . S
C511 C512 1.524 . S
C511 C515 1.400 . S
C512 H497 0.960 . S
C512 H498 0.960 . S
C512 H499 0.960 . S
C512 C511 1.524 . S
C513 C510 1.403 . S
C513 C514 1.392 . S
C513 C517 1.495 . S
C514 C513 1.392 . S
C514 C515 1.385 . S
C514 C516 1.478 . S
C515 H509 0.930 . S
C515 C511 1.400 . S
C515 C514 1.385 . S
C516 C514 1.478 . S
C516 C518 1.381 . S
C516 C522 1.383 . S
C517 C513 1.495 . S
C517 H523 0.959 . S
C517 H524 0.961 . S
C517 H525 0.960 . S
C518 C516 1.381 . S
C518 C519 1.394 . S
C518 H526 0.930 . S
C519 C518 1.394 . S
C519 C520 1.383 . S
C519 H527 0.929 . S
C520 C519 1.383 . S
C520 C521 1.377 . S
C521 H505 0.930 . S
C521 C520 1.377 . S
C521 C522 1.379 . S
C522 H506 0.931 . S
C522 C516 1.383 . S
C522 C521 1.379 . S
H523 C517 0.959 . S
H524 C517 0.961 . S
H525 C517 0.960 . S
H526 C518 0.930 . S
H527 C519 0.929 . S
H528 C536 0.929 . S
H529 C538 0.930 . S
H530 C540 0.930 . S
H531 C543 0.929 . S
H532 C546 0.930 . S
H533 C548 0.960 . S
H534 C548 0.960 . S
H535 C548 0.960 . S
C536 H528 0.929 . S
C536 C537 1.377 . S
C536 C538 1.384 . S
C537 C536 1.377 . S
C537 C543 1.390 . S
C538 H529 0.930 . S
C538 C536 1.384 . S
C538 C539 1.372 . S
C539 C538 1.372 . S
C539 C540 1.400 . S
C539 C544 1.490 . S
C540 H530 0.930 . S
C540 C539 1.400 . S
C540 C543 1.386 . S
H541 C557 0.930 . S
H542 C558 0.931 . S
C543 H531 0.929 . S
C543 C537 1.390 . S
C543 C540 1.386 . S
C544 C539 1.490 . S
C544 C546 1.395 . S
C544 C547 1.403 . S
H545 C551 0.930 . S
C546 H532 0.930 . S
C546 C544 1.395 . S
C546 C549 1.403 . S
C547 C544 1.403 . S
C547 C548 1.524 . S
C547 C551 1.400 . S
C548 H533 0.960 . S
C548 H534 0.960 . S
C548 H535 0.960 . S
C548 C547 1.524 . S
C549 C546 1.403 . S
C549 C550 1.392 . S
C549 C553 1.495 . S
C550 C549 1.392 . S
C550 C551 1.385 . S
C550 C552 1.478 . S
C551 H545 0.930 . S
C551 C547 1.400 . S
C551 C550 1.385 . S
C552 C550 1.478 . S
C552 C554 1.381 . S
C552 C558 1.383 . S
C553 C549 1.495 . S
C553 H559 0.959 . S
C553 H560 0.961 . S
C553 H561 0.960 . S
C554 C552 1.381 . S
C554 C555 1.394 . S
C554 H562 0.930 . S
C555 C554 1.394 . S
C555 C556 1.383 . S
C555 H563 0.929 . S
C556 C555 1.383 . S
C556 C557 1.377 . S
C557 H541 0.930 . S
C557 C556 1.377 . S
C557 C558 1.379 . S
C558 H542 0.931 . S
C558 C552 1.383 . S
C558 C557 1.379 . S
H559 C553 0.959 . S
H560 C553 0.961 . S
H561 C553 0.960 . S
H562 C554 0.930 . S
H563 C555 0.929 . S
H564 C572 0.929 . S
H565 C574 0.930 . S
H566 C576 0.930 . S
H567 C579 0.929 . S
H568 C582 0.930 . S
H569 C584 0.960 . S
H570 C584 0.960 . S
H571 C584 0.960 . S
C572 H564 0.929 . S
C572 C573 1.377 . S
C572 C574 1.384 . S
C573 C572 1.377 . S
C573 C579 1.390 . S
C574 H565 0.930 . S
C574 C572 1.384 . S
C574 C575 1.372 . S
C575 C574 1.372 . S
C575 C576 1.400 . S
C575 C580 1.490 . S
C576 H566 0.930 . S
C576 C575 1.400 . S
C576 C579 1.386 . S
H577 C593 0.930 . S
H578 C594 0.931 . S
C579 H567 0.929 . S
C579 C573 1.390 . S
C579 C576 1.386 . S
C580 C575 1.490 . S
C580 C582 1.395 . S
C580 C583 1.403 . S
H581 C587 0.930 . S
C582 H568 0.930 . S
C582 C580 1.395 . S
C582 C585 1.403 . S
C583 C580 1.403 . S
C583 C584 1.524 . S
C583 C587 1.400 . S
C584 H569 0.960 . S
C584 H570 0.960 . S
C584 H571 0.960 . S
C584 C583 1.524 . S
C585 C582 1.403 . S
C585 C586 1.392 . S
C585 C589 1.495 . S
C586 C585 1.392 . S
C586 C587 1.385 . S
C586 C588 1.478 . S
C587 H581 0.930 . S
C587 C583 1.400 . S
C587 C586 1.385 . S
C588 C586 1.478 . S
C588 C590 1.381 . S
C588 C594 1.383 . S
C589 C585 1.495 . S
C589 H595 0.959 . S
C589 H596 0.961 . S
C589 H597 0.960 . S
C590 C588 1.381 . S
C590 C591 1.394 . S
C590 H598 0.930 . S
C591 C590 1.394 . S
C591 C592 1.383 . S
C591 H599 0.929 . S
C592 C591 1.383 . S
C592 C593 1.377 . S
C593 H577 0.930 . S
C593 C592 1.377 . S
C593 C594 1.379 . S
C594 H578 0.931 . S
C594 C588 1.383 . S
C594 C593 1.379 . S
H595 C589 0.959 . S
H596 C589 0.961 . S
H597 C589 0.960 . S
H598 C590 0.930 . S
H599 C591 0.929 . S
H600 C608 0.929 . S
H601 C610 0.930 . S
H602 C612 0.930 . S
H603 C615 0.929 . S
H604 C618 0.930 . S
H605 C620 0.960 . S
H606 C620 0.960 . S
H607 C620 0.960 . S
C608 H600 0.929 . S
C608 C609 1.377 . S
C608 C610 1.384 . S
C609 C608 1.377 . S
C609 C615 1.390 . S
C610 H601 0.930 . S
C610 C608 1.384 . S
C610 C611 1.372 . S
C611 C610 1.372 . S
C611 C612 1.400 . S
C611 C616 1.490 . S
C612 H602 0.930 . S
C612 C611 1.400 . S
C612 C615 1.386 . S
H613 C629 0.930 . S
H614 C630 0.931 . S
C615 H603 0.929 . S
C615 C609 1.390 . S
C615 C612 1.386 . S
C616 C611 1.490 . S
C616 C618 1.395 . S
C616 C619 1.403 . S
H617 C623 0.930 . S
C618 H604 0.930 . S
C618 C616 1.395 . S
C618 C621 1.403 . S
C619 C616 1.403 . S
C619 C620 1.524 . S
C619 C623 1.400 . S
C620 H605 0.960 . S
C620 H606 0.960 . S
C620 H607 0.960 . S
C620 C619 1.524 . S
C621 C618 1.403 . S
C621 C622 1.392 . S
C621 C625 1.495 . S
C622 C621 1.392 . S
C622 C623 1.385 . S
C622 C624 1.478 . S
C623 H617 0.930 . S
C623 C619 1.400 . S
C623 C622 1.385 . S
C624 C622 1.478 . S
C624 C626 1.381 . S
C624 C630 1.383 . S
C625 C621 1.495 . S
C625 H631 0.959 . S
C625 H632 0.961 . S
C625 H633 0.960 . S
C626 C624 1.381 . S
C626 C627 1.394 . S
C626 H634 0.930 . S
C627 C626 1.394 . S
C627 C628 1.383 . S
C627 H635 0.929 . S
C628 C627 1.383 . S
C628 C629 1.377 . S
C629 H613 0.930 . S
C629 C628 1.377 . S
C629 C630 1.379 . S
C630 H614 0.931 . S
C630 C624 1.383 . S
C630 C629 1.379 . S
H631 C625 0.959 . S
H632 C625 0.961 . S
H633 C625 0.960 . S
H634 C626 0.930 . S
H635 C627 0.929 . S
H636 C644 0.929 . S
H637 C646 0.930 . S
H638 C648 0.930 . S
H639 C651 0.929 . S
H640 C654 0.930 . S
H641 C656 0.960 . S
H642 C656 0.960 . S
H643 C656 0.960 . S
C644 H636 0.929 . S
C644 C645 1.377 . S
C644 C646 1.384 . S
C645 C644 1.377 . S
C645 C651 1.390 . S
C646 H637 0.930 . S
C646 C644 1.384 . S
C646 C647 1.372 . S
C647 C646 1.372 . S
C647 C648 1.400 . S
C647 C652 1.490 . S
C648 H638 0.930 . S
C648 C647 1.400 . S
C648 C651 1.386 . S
H649 C665 0.930 . S
H650 C666 0.931 . S
C651 H639 0.929 . S
C651 C645 1.390 . S
C651 C648 1.386 . S
C652 C647 1.490 . S
C652 C654 1.395 . S
C652 C655 1.403 . S
H653 C659 0.930 . S
C654 H640 0.930 . S
C654 C652 1.395 . S
C654 C657 1.403 . S
C655 C652 1.403 . S
C655 C656 1.524 . S
C655 C659 1.400 . S
C656 H641 0.960 . S
C656 H642 0.960 . S
C656 H643 0.960 . S
C656 C655 1.524 . S
C657 C654 1.403 . S
C657 C658 1.392 . S
C657 C661 1.495 . S
C658 C657 1.392 . S
C658 C659 1.385 . S
C658 C660 1.478 . S
C659 H653 0.930 . S
C659 C655 1.400 . S
C659 C658 1.385 . S
C660 C658 1.478 . S
C660 C662 1.381 . S
C660 C666 1.383 . S
C661 C657 1.495 . S
C661 H667 0.959 . S
C661 H668 0.961 . S
C661 H669 0.960 . S
C662 C660 1.381 . S
C662 C663 1.394 . S
C662 H670 0.930 . S
C663 C662 1.394 . S
C663 C664 1.383 . S
C663 H671 0.929 . S
C664 C663 1.383 . S
C664 C665 1.377 . S
C665 H649 0.930 . S
C665 C664 1.377 . S
C665 C666 1.379 . S
C666 H650 0.931 . S
C666 C660 1.383 . S
C666 C665 1.379 . S
H667 C661 0.959 . S
H668 C661 0.961 . S
H669 C661 0.960 . S
H670 C662 0.930 . S
H671 C663 0.929 . S
H672 C680 0.929 . S
H673 C682 0.930 . S
H674 C684 0.930 . S
H675 C687 0.929 . S
H676 C690 0.930 . S
H677 C692 0.960 . S
H678 C692 0.960 . S
H679 C692 0.960 . S
C680 H672 0.929 . S
C680 C681 1.377 . S
C680 C682 1.384 . S
C681 C680 1.377 . S
C681 C687 1.390 . S
C682 H673 0.930 . S
C682 C680 1.384 . S
C682 C683 1.372 . S
C683 C682 1.372 . S
C683 C684 1.400 . S
C683 C688 1.490 . S
C684 H674 0.930 . S
C684 C683 1.400 . S
C684 C687 1.386 . S
H685 C701 0.930 . S
H686 C702 0.931 . S
C687 H675 0.929 . S
C687 C681 1.390 . S
C687 C684 1.386 . S
C688 C683 1.490 . S
C688 C690 1.395 . S
C688 C691 1.403 . S
H689 C695 0.930 . S
C690 H676 0.930 . S
C690 C688 1.395 . S
C690 C693 1.403 . S
C691 C688 1.403 . S
C691 C692 1.524 . S
C691 C695 1.400 . S
C692 H677 0.960 . S
C692 H678 0.960 . S
C692 H679 0.960 . S
C692 C691 1.524 . S
C693 C690 1.403 . S
C693 C694 1.392 . S
C693 C697 1.495 . S
C694 C693 1.392 . S
C694 C695 1.385 . S
C694 C696 1.478 . S
C695 H689 0.930 . S
C695 C691 1.400 . S
C695 C694 1.385 . S
C696 C694 1.478 . S
C696 C698 1.381 . S
C696 C702 1.383 . S
C697 C693 1.495 . S
C697 H703 0.959 . S
C697 H704 0.961 . S
C697 H705 0.960 . S
C698 C696 1.381 . S
C698 C699 1.394 . S
C698 H706 0.930 . S
C699 C698 1.394 . S
C699 C700 1.383 . S
C699 H707 0.929 . S
C700 C699 1.383 . S
C700 C701 1.377 . S
C701 H685 0.930 . S
C701 C700 1.377 . S
C701 C702 1.379 . S
C702 H686 0.931 . S
C702 C696 1.383 . S
C702 C701 1.379 . S
H703 C697 0.959 . S
H704 C697 0.961 . S
H705 C697 0.960 . S
H706 C698 0.930 . S
H707 C699 0.929 . S
H708 C716 0.929 . S
H709 C718 0.930 . S
H710 C720 0.930 . S
H711 C723 0.929 . S
H712 C726 0.930 . S
H713 C728 0.960 . S
H714 C728 0.960 . S
H715 C728 0.960 . S
C716 H708 0.929 . S
C716 C717 1.377 . S
C716 C718 1.384 . S
C717 C716 1.377 . S
C717 C723 1.390 . S
C718 H709 0.930 . S
C718 C716 1.384 . S
C718 C719 1.372 . S
C719 C718 1.372 . S
C719 C720 1.400 . S
C719 C724 1.490 . S
C720 H710 0.930 . S
C720 C719 1.400 . S
C720 C723 1.386 . S
H721 C737 0.930 . S
H722 C738 0.931 . S
C723 H711 0.929 . S
C723 C717 1.390 . S
C723 C720 1.386 . S
C724 C719 1.490 . S
C724 C726 1.395 . S
C724 C727 1.403 . S
H725 C731 0.930 . S
C726 H712 0.930 . S
C726 C724 1.395 . S
C726 C729 1.403 . S
C727 C724 1.403 . S
C727 C728 1.524 . S
C727 C731 1.400 . S
C728 H713 0.960 . S
C728 H714 0.960 . S
C728 H715 0.960 . S
C728 C727 1.524 . S
C729 C726 1.403 . S
C729 C730 1.392 . S
C729 C733 1.495 . S
C730 C729 1.392 . S
C730 C731 1.385 . S
C730 C732 1.478 . S
C731 H725 0.930 . S
C731 C727 1.400 . S
C731 C730 1.385 . S
C732 C730 1.478 . S
C732 C734 1.381 . S
C732 C738 1.383 . S
C733 C729 1.495 . S
C733 H739 0.959 . S
C733 H740 0.961 . S
C733 H741 0.960 . S
C734 C732 1.381 . S
C734 C735 1.394 . S
C734 H742 0.930 . S
C735 C734 1.394 . S
C735 C736 1.383 . S
C735 H743 0.929 . S
C736 C735 1.383 . S
C736 C737 1.377 . S
C737 H721 0.930 . S
C737 C736 1.377 . S
C737 C738 1.379 . S
C738 H722 0.931 . S
C738 C732 1.383 . S
C738 C737 1.379 . S
H739 C733 0.959 . S
H740 C733 0.961 . S
H741 C733 0.960 . S
H742 C734 0.930 . S
H743 C735 0.929 . S
H744 C752 0.929 . S
H745 C754 0.930 . S
H746 C756 0.930 . S
H747 C759 0.929 . S
H748 C762 0.930 . S
H749 C764 0.960 . S
H750 C764 0.960 . S
H751 C764 0.960 . S
C752 H744 0.929 . S
C752 C753 1.377 . S
C752 C754 1.384 . S
C753 C752 1.377 . S
C753 C759 1.390 . S
C754 H745 0.930 . S
C754 C752 1.384 . S
C754 C755 1.372 . S
C755 C754 1.372 . S
C755 C756 1.400 . S
C755 C760 1.490 . S
C756 H746 0.930 . S
C756 C755 1.400 . S
C756 C759 1.386 . S
H757 C773 0.930 . S
H758 C774 0.931 . S
C759 H747 0.929 . S
C759 C753 1.390 . S
C759 C756 1.386 . S
C760 C755 1.490 . S
C760 C762 1.395 . S
C760 C763 1.403 . S
H761 C767 0.930 . S
C762 H748 0.930 . S
C762 C760 1.395 . S
C762 C765 1.403 . S
C763 C760 1.403 . S
C763 C764 1.524 . S
C763 C767 1.400 . S
C764 H749 0.960 . S
C764 H750 0.960 . S
C764 H751 0.960 . S
C764 C763 1.524 . S
C765 C762 1.403 . S
C765 C766 1.392 . S
C765 C769 1.495 . S
C766 C765 1.392 . S
C766 C767 1.385 . S
C766 C768 1.478 . S
C767 H761 0.930 . S
C767 C763 1.400 . S
C767 C766 1.385 . S
C768 C766 1.478 . S
C768 C770 1.381 . S
C768 C774 1.383 . S
C769 C765 1.495 . S
C769 H775 0.959 . S
C769 H776 0.961 . S
C769 H777 0.960 . S
C770 C768 1.381 . S
C770 C771 1.394 . S
C770 H778 0.930 . S
C771 C770 1.394 . S
C771 C772 1.383 . S
C771 H779 0.929 . S
C772 C771 1.383 . S
C772 C773 1.377 . S
C773 H757 0.930 . S
C773 C772 1.377 . S
C773 C774 1.379 . S
C774 H758 0.931 . S
C774 C768 1.383 . S
C774 C773 1.379 . S
H775 C769 0.959 . S
H776 C769 0.961 . S
H777 C769 0.960 . S
H778 C770 0.930 . S
H779 C771 0.929 . S
H780 C788 0.929 . S
H781 C790 0.930 . S
H782 C792 0.930 . S
H783 C795 0.929 . S
H784 C798 0.930 . S
H785 C800 0.960 . S
H786 C800 0.960 . S
H787 C800 0.960 . S
C788 H780 0.929 . S
C788 C789 1.377 . S
C788 C790 1.384 . S
C789 C788 1.377 . S
C789 C795 1.390 . S
C790 H781 0.930 . S
C790 C788 1.384 . S
C790 C791 1.372 . S
C791 C790 1.372 . S
C791 C792 1.400 . S
C791 C796 1.490 . S
C792 H782 0.930 . S
C792 C791 1.400 . S
C792 C795 1.386 . S
H793 C809 0.930 . S
H794 C810 0.931 . S
C795 H783 0.929 . S
C795 C789 1.390 . S
C795 C792 1.386 . S
C796 C791 1.490 . S
C796 C798 1.395 . S
C796 C799 1.403 . S
H797 C803 0.930 . S
C798 H784 0.930 . S
C798 C796 1.395 . S
C798 C801 1.403 . S
C799 C796 1.403 . S
C799 C800 1.524 . S
C799 C803 1.400 . S
C800 H785 0.960 . S
C800 H786 0.960 . S
C800 H787 0.960 . S
C800 C799 1.524 . S
C801 C798 1.403 . S
C801 C802 1.392 . S
C801 C805 1.495 . S
C802 C801 1.392 . S
C802 C803 1.385 . S
C802 C804 1.478 . S
C803 H797 0.930 . S
C803 C799 1.400 . S
C803 C802 1.385 . S
C804 C802 1.478 . S
C804 C806 1.381 . S
C804 C810 1.383 . S
C805 C801 1.495 . S
C805 H811 0.959 . S
C805 H812 0.961 . S
C805 H813 0.960 . S
C806 C804 1.381 . S
C806 C807 1.394 . S
C806 H814 0.930 . S
C807 C806 1.394 . S
C807 C808 1.383 . S
C807 H815 0.929 . S
C808 C807 1.383 . S
C808 C809 1.377 . S
C809 H793 0.930 . S
C809 C808 1.377 . S
C809 C810 1.379 . S
C810 H794 0.931 . S
C810 C804 1.383 . S
C810 C809 1.379 . S
H811 C805 0.959 . S
H812 C805 0.961 . S
H813 C805 0.960 . S
H814 C806 0.930 . S
H815 C807 0.929 . S
H816 C824 0.929 . S
H817 C826 0.930 . S
H818 C828 0.930 . S
H819 C831 0.929 . S
H820 C834 0.930 . S
H821 C836 0.960 . S
H822 C836 0.960 . S
H823 C836 0.960 . S
C824 H816 0.929 . S
C824 C825 1.377 . S
C824 C826 1.384 . S
C825 C824 1.377 . S
C825 C831 1.390 . S
C826 H817 0.930 . S
C826 C824 1.384 . S
C826 C827 1.372 . S
C827 C826 1.372 . S
C827 C828 1.400 . S
C827 C832 1.490 . S
C828 H818 0.930 . S
C828 C827 1.400 . S
C828 C831 1.386 . S
H829 C845 0.930 . S
H830 C846 0.931 . S
C831 H819 0.929 . S
C831 C825 1.390 . S
C831 C828 1.386 . S
C832 C827 1.490 . S
C832 C834 1.395 . S
C832 C835 1.403 . S
H833 C839 0.930 . S
C834 H820 0.930 . S
C834 C832 1.395 . S
C834 C837 1.403 . S
C835 C832 1.403 . S
C835 C836 1.524 . S
C835 C839 1.400 . S
C836 H821 0.960 . S
C836 H822 0.960 . S
C836 H823 0.960 . S
C836 C835 1.524 . S
C837 C834 1.403 . S
C837 C838 1.392 . S
C837 C841 1.495 . S
C838 C837 1.392 . S
C838 C839 1.385 . S
C838 C840 1.478 . S
C839 H833 0.930 . S
C839 C835 1.400 . S
C839 C838 1.385 . S
C840 C838 1.478 . S
C840 C842 1.381 . S
C840 C846 1.383 . S
C841 C837 1.495 . S
C841 H847 0.959 . S
C841 H848 0.961 . S
C841 H849 0.960 . S
C842 C840 1.381 . S
C842 C843 1.394 . S
C842 H850 0.930 . S
C843 C842 1.394 . S
C843 C844 1.383 . S
C843 H851 0.929 . S
C844 C843 1.383 . S
C844 C845 1.377 . S
C845 H829 0.930 . S
C845 C844 1.377 . S
C845 C846 1.379 . S
C846 H830 0.931 . S
C846 C840 1.383 . S
C846 C845 1.379 . S
H847 C841 0.959 . S
H848 C841 0.961 . S
H849 C841 0.960 . S
H850 C842 0.930 . S
H851 C843 0.929 . S
H852 C860 0.929 . S
H853 C862 0.930 . S
H854 C864 0.930 . S
H855 C867 0.929 . S
H856 C870 0.930 . S
H857 C872 0.960 . S
H858 C872 0.960 . S
H859 C872 0.960 . S
C860 H852 0.929 . S
C860 C861 1.377 . S
C860 C862 1.384 . S
C861 C860 1.377 . S
C861 C867 1.390 . S
C862 H853 0.930 . S
C862 C860 1.384 . S
C862 C863 1.372 . S
C863 C862 1.372 . S
C863 C864 1.400 . S
C863 C868 1.490 . S
C864 H854 0.930 . S
C864 C863 1.400 . S
C864 C867 1.386 . S
H865 C881 0.930 . S
H866 C882 0.931 . S
C867 H855 0.929 . S
C867 C861 1.390 . S
C867 C864 1.386 . S
C868 C863 1.490 . S
C868 C870 1.395 . S
C868 C871 1.403 . S
H869 C875 0.930 . S
C870 H856 0.930 . S
C870 C868 1.395 . S
C870 C873 1.403 . S
C871 C868 1.403 . S
C871 C872 1.524 . S
C871 C875 1.400 . S
C872 H857 0.960 . S
C872 H858 0.960 . S
C872 H859 0.960 . S
C872 C871 1.524 . S
C873 C870 1.403 . S
C873 C874 1.392 . S
C873 C877 1.495 . S
C874 C873 1.392 . S
C874 C875 1.385 . S
C874 C876 1.478 . S
C875 H869 0.930 . S
C875 C871 1.400 . S
C875 C874 1.385 . S
C876 C874 1.478 . S
C876 C878 1.381 . S
C876 C882 1.383 . S
C877 C873 1.495 . S
C877 H883 0.959 . S
C877 H884 0.961 . S
C877 H885 0.960 . S
C878 C876 1.381 . S
C878 C879 1.394 . S
C878 H886 0.930 . S
C879 C878 1.394 . S
C879 C880 1.383 . S
C879 H887 0.929 . S
C880 C879 1.383 . S
C880 C881 1.377 . S
C881 H865 0.930 . S
C881 C880 1.377 . S
C881 C882 1.379 . S
C882 H866 0.931 . S
C882 C876 1.383 . S
C882 C881 1.379 . S
H883 C877 0.959 . S
H884 C877 0.961 . S
H885 C877 0.960 . S
H886 C878 0.930 . S
H887 C879 0.929 . S
H888 C896 0.929 . S
H889 C898 0.930 . S
H890 C900 0.930 . S
H891 C903 0.929 . S
H892 C906 0.930 . S
H893 C908 0.960 . S
H894 C908 0.960 . S
H895 C908 0.960 . S
C896 H888 0.929 . S
C896 C897 1.377 . S
C896 C898 1.384 . S
C897 C896 1.377 . S
C897 C903 1.390 . S
C898 H889 0.930 . S
C898 C896 1.384 . S
C898 C899 1.372 . S
C899 C898 1.372 . S
C899 C900 1.400 . S
C899 C904 1.490 . S
C900 H890 0.930 . S
C900 C899 1.400 . S
C900 C903 1.386 . S
H901 C917 0.930 . S
H902 C918 0.931 . S
C903 H891 0.929 . S
C903 C897 1.390 . S
C903 C900 1.386 . S
C904 C899 1.490 . S
C904 C906 1.395 . S
C904 C907 1.403 . S
H905 C911 0.930 . S
C906 H892 0.930 . S
C906 C904 1.395 . S
C906 C909 1.403 . S
C907 C904 1.403 . S
C907 C908 1.524 . S
C907 C911 1.400 . S
C908 H893 0.960 . S
C908 H894 0.960 . S
C908 H895 0.960 . S
C908 C907 1.524 . S
C909 C906 1.403 . S
C909 C910 1.392 . S
C909 C913 1.495 . S
C910 C909 1.392 . S
C910 C911 1.385 . S
C910 C912 1.478 . S
C911 H905 0.930 . S
C911 C907 1.400 . S
C911 C910 1.385 . S
C912 C910 1.478 . S
C912 C914 1.381 . S
C912 C918 1.383 . S
C913 C909 1.495 . S
C913 H919 0.959 . S
C913 H920 0.961 . S
C913 H921 0.960 . S
C914 C912 1.381 . S
C914 C915 1.394 . S
C914 H922 0.930 . S
C915 C914 1.394 . S
C915 C916 1.383 . S
C915 H923 0.929 . S
C916 C915 1.383 . S
C916 C917 1.377 . S
C917 H901 0.930 . S
C917 C916 1.377 . S
C917 C918 1.379 . S
C918 H902 0.931 . S
C918 C912 1.383 . S
C918 C917 1.379 . S
H919 C913 0.959 . S
H920 C913 0.961 . S
H921 C913 0.960 . S
H922 C914 0.930 . S
H923 C915 0.929 . S
H924 C932 0.929 . S
H925 C934 0.930 . S
H926 C936 0.930 . S
H927 C939 0.929 . S
H928 C942 0.930 . S
H929 C944 0.960 . S
H930 C944 0.960 . S
H931 C944 0.960 . S
C932 H924 0.929 . S
C932 C933 1.377 . S
C932 C934 1.384 . S
C933 C932 1.377 . S
C933 C939 1.390 . S
C934 H925 0.930 . S
C934 C932 1.384 . S
C934 C935 1.372 . S
C935 C934 1.372 . S
C935 C936 1.400 . S
C935 C940 1.490 . S
C936 H926 0.930 . S
C936 C935 1.400 . S
C936 C939 1.386 . S
H937 C953 0.930 . S
H938 C954 0.931 . S
C939 H927 0.929 . S
C939 C933 1.390 . S
C939 C936 1.386 . S
C940 C935 1.490 . S
C940 C942 1.395 . S
C940 C943 1.403 . S
H941 C947 0.930 . S
C942 H928 0.930 . S
C942 C940 1.395 . S
C942 C945 1.403 . S
C943 C940 1.403 . S
C943 C944 1.524 . S
C943 C947 1.400 . S
C944 H929 0.960 . S
C944 H930 0.960 . S
C944 H931 0.960 . S
C944 C943 1.524 . S
C945 C942 1.403 . S
C945 C946 1.392 . S
C945 C949 1.495 . S
C946 C945 1.392 . S
C946 C947 1.385 . S
C946 C948 1.478 . S
C947 H941 0.930 . S
C947 C943 1.400 . S
C947 C946 1.385 . S
C948 C946 1.478 . S
C948 C950 1.381 . S
C948 C954 1.383 . S
C949 C945 1.495 . S
C949 H955 0.959 . S
C949 H956 0.961 . S
C949 H957 0.960 . S
C950 C948 1.381 . S
C950 C951 1.394 . S
C950 H958 0.930 . S
C951 C950 1.394 . S
C951 C952 1.383 . S
C951 H959 0.929 . S
C952 C951 1.383 . S
C952 C953 1.377 . S
C953 H937 0.930 . S
C953 C952 1.377 . S
C953 C954 1.379 . S
C954 H938 0.931 . S
C954 C948 1.383 . S
C954 C953 1.379 . S
H955 C949 0.959 . S
H956 C949 0.961 . S
H957 C949 0.960 . S
H958 C950 0.930 . S
H959 C951 0.929 . S
H960 C968 0.929 . S
H961 C970 0.930 . S
H962 C972 0.930 . S
H963 C975 0.929 . S
H964 C978 0.930 . S
H965 C980 0.960 . S
H966 C980 0.960 . S
H967 C980 0.960 . S
C968 H960 0.929 . S
C968 C969 1.377 . S
C968 C970 1.384 . S
C969 C968 1.377 . S
C969 C975 1.390 . S
C970 H961 0.930 . S
C970 C968 1.384 . S
C970 C971 1.372 . S
C971 C970 1.372 . S
C971 C972 1.400 . S
C971 C976 1.490 . S
C972 H962 0.930 . S
C972 C971 1.400 . S
C972 C975 1.386 . S
H973 C989 0.930 . S
H974 C990 0.931 . S
C975 H963 0.929 . S
C975 C969 1.390 . S
C975 C972 1.386 . S
C976 C971 1.490 . S
C976 C978 1.395 . S
C976 C979 1.403 . S
H977 C983 0.930 . S
C978 H964 0.930 . S
C978 C976 1.395 . S
C978 C981 1.403 . S
C979 C976 1.403 . S
C979 C980 1.524 . S
C979 C983 1.400 . S
C980 H965 0.960 . S
C980 H966 0.960 . S
C980 H967 0.960 . S
C980 C979 1.524 . S
C981 C978 1.403 . S
C981 C982 1.392 . S
C981 C985 1.495 . S
C982 C981 1.392 . S
C982 C983 1.385 . S
C982 C984 1.478 . S
C983 H977 0.930 . S
C983 C979 1.400 . S
C983 C982 1.385 . S
C984 C982 1.478 . S
C984 C986 1.381 . S
C984 C990 1.383 . S
C985 C981 1.495 . S
C985 H991 0.959 . S
C985 H992 0.961 . S
C985 H993 0.960 . S
C986 C984 1.381 . S
C986 C987 1.394 . S
C986 H994 0.930 . S
C987 C986 1.394 . S
C987 C988 1.383 . S
C987 H995 0.929 . S
C988 C987 1.383 . S
C988 C989 1.377 . S
C989 H973 0.930 . S
C989 C988 1.377 . S
C989 C990 1.379 . S
C990 H974 0.931 . S
C990 C984 1.383 . S
C990 C989 1.379 . S
H991 C985 0.959 . S
H992 C985 0.961 . S
H993 C985 0.960 . S
H994 C986 0.930 . S
H995 C987 0.929 . S
H996 C1004 0.929 . S
H997 C1006 0.930 . S
H998 C1008 0.930 . S
H999 C1011 0.929 . S
H1000 C1014 0.930 . S
H1001 C1016 0.960 . S
H1002 C1016 0.960 . S
H1003 C1016 0.960 . S
C1004 H996 0.929 . S
C1004 C1005 1.377 . S
C1004 C1006 1.384 . S
C1005 C1004 1.377 . S
C1005 C1011 1.390 . S
C1006 H997 0.930 . S
C1006 C1004 1.384 . S
C1006 C1007 1.372 . S
C1007 C1006 1.372 . S
C1007 C1008 1.400 . S
C1007 C1012 1.490 . S
C1008 H998 0.930 . S
C1008 C1007 1.400 . S
C1008 C1011 1.386 . S
H1009 C1025 0.930 . S
H1010 C1026 0.931 . S
C1011 H999 0.929 . S
C1011 C1005 1.390 . S
C1011 C1008 1.386 . S
C1012 C1007 1.490 . S
C1012 C1014 1.395 . S
C1012 C1015 1.403 . S
H1013 C1019 0.930 . S
C1014 H1000 0.930 . S
C1014 C1012 1.395 . S
C1014 C1017 1.403 . S
C1015 C1012 1.403 . S
C1015 C1016 1.524 . S
C1015 C1019 1.400 . S
C1016 H1001 0.960 . S
C1016 H1002 0.960 . S
C1016 H1003 0.960 . S
C1016 C1015 1.524 . S
C1017 C1014 1.403 . S
C1017 C1018 1.392 . S
C1017 C1021 1.495 . S
C1018 C1017 1.392 . S
C1018 C1019 1.385 . S
C1018 C1020 1.478 . S
C1019 H1013 0.930 . S
C1019 C1015 1.400 . S
C1019 C1018 1.385 . S
C1020 C1018 1.478 . S
C1020 C1022 1.381 . S
C1020 C1026 1.383 . S
C1021 C1017 1.495 . S
C1021 H1027 0.959 . S
C1021 H1028 0.961 . S
C1021 H1029 0.960 . S
C1022 C1020 1.381 . S
C1022 C1023 1.394 . S
C1022 H1030 0.930 . S
C1023 C1022 1.394 . S
C1023 C1024 1.383 . S
C1023 H1031 0.929 . S
C1024 C1023 1.383 . S
C1024 C1025 1.377 . S
C1025 H1009 0.930 . S
C1025 C1024 1.377 . S
C1025 C1026 1.379 . S
C1026 H1010 0.931 . S
C1026 C1020 1.383 . S
C1026 C1025 1.379 . S
H1027 C1021 0.959 . S
H1028 C1021 0.961 . S
H1029 C1021 0.960 . S
H1030 C1022 0.930 . S
H1031 C1023 0.929 . S
H1032 C1040 0.929 . S
H1033 C1042 0.930 . S
H1034 C1044 0.930 . S
H1035 C1047 0.929 . S
H1036 C1050 0.930 . S
H1037 C1052 0.960 . S
H1038 C1052 0.960 . S
H1039 C1052 0.960 . S
C1040 H1032 0.929 . S
C1040 C1041 1.377 . S
C1040 C1042 1.384 . S
C1041 C1040 1.377 . S
C1041 C1047 1.390 . S
C1042 H1033 0.930 . S
C1042 C1040 1.384 . S
C1042 C1043 1.372 . S
C1043 C1042 1.372 . S
C1043 C1044 1.400 . S
C1043 C1048 1.490 . S
C1044 H1034 0.930 . S
C1044 C1043 1.400 . S
C1044 C1047 1.386 . S
H1045 C1061 0.930 . S
H1046 C1062 0.931 . S
C1047 H1035 0.929 . S
C1047 C1041 1.390 . S
C1047 C1044 1.386 . S
C1048 C1043 1.490 . S
C1048 C1050 1.395 . S
C1048 C1051 1.403 . S
H1049 C1055 0.930 . S
C1050 H1036 0.930 . S
C1050 C1048 1.395 . S
C1050 C1053 1.403 . S
C1051 C1048 1.403 . S
C1051 C1052 1.524 . S
C1051 C1055 1.400 . S
C1052 H1037 0.960 . S
C1052 H1038 0.960 . S
C1052 H1039 0.960 . S
C1052 C1051 1.524 . S
C1053 C1050 1.403 . S
C1053 C1054 1.392 . S
C1053 C1057 1.495 . S
C1054 C1053 1.392 . S
C1054 C1055 1.385 . S
C1054 C1056 1.478 . S
C1055 H1049 0.930 . S
C1055 C1051 1.400 . S
C1055 C1054 1.385 . S
C1056 C1054 1.478 . S
C1056 C1058 1.381 . S
C1056 C1062 1.383 . S
C1057 C1053 1.495 . S
C1057 H1063 0.959 . S
C1057 H1064 0.961 . S
C1057 H1065 0.960 . S
C1058 C1056 1.381 . S
C1058 C1059 1.394 . S
C1058 H1066 0.930 . S
C1059 C1058 1.394 . S
C1059 C1060 1.383 . S
C1059 H1067 0.929 . S
C1060 C1059 1.383 . S
C1060 C1061 1.377 . S
C1061 H1045 0.930 . S
C1061 C1060 1.377 . S
C1061 C1062 1.379 . S
C1062 H1046 0.931 . S
C1062 C1056 1.383 . S
C1062 C1061 1.379 . S
H1063 C1057 0.959 . S
H1064 C1057 0.961 . S
H1065 C1057 0.960 . S
H1066 C1058 0.930 . S
H1067 C1059 0.929 . S
H1068 C1076 0.929 . S
H1069 C1078 0.930 . S
H1070 C1080 0.930 . S
H1071 C1083 0.929 . S
H1072 C1086 0.930 . S
H1073 C1088 0.960 . S
H1074 C1088 0.960 . S
H1075 C1088 0.960 . S
C1076 H1068 0.929 . S
C1076 C1077 1.377 . S
C1076 C1078 1.384 . S
C1077 C1076 1.377 . S
C1077 C1083 1.390 . S
C1078 H1069 0.930 . S
C1078 C1076 1.384 . S
C1078 C1079 1.372 . S
C1079 C1078 1.372 . S
C1079 C1080 1.400 . S
C1079 C1084 1.490 . S
C1080 H1070 0.930 . S
C1080 C1079 1.400 . S
C1080 C1083 1.386 . S
H1081 C1097 0.930 . S
H1082 C1098 0.931 . S
C1083 H1071 0.929 . S
C1083 C1077 1.390 . S
C1083 C1080 1.386 . S
C1084 C1079 1.490 . S
C1084 C1086 1.395 . S
C1084 C1087 1.403 . S
H1085 C1091 0.930 . S
C1086 H1072 0.930 . S
C1086 C1084 1.395 . S
C1086 C1089 1.403 . S
C1087 C1084 1.403 . S
C1087 C1088 1.524 . S
C1087 C1091 1.400 . S
C1088 H1073 0.960 . S
C1088 H1074 0.960 . S
C1088 H1075 0.960 . S
C1088 C1087 1.524 . S
C1089 C1086 1.403 . S
C1089 C1090 1.392 . S
C1089 C1093 1.495 . S
C1090 C1089 1.392 . S
C1090 C1091 1.385 . S
C1090 C1092 1.478 . S
C1091 H1085 0.930 . S
C1091 C1087 1.400 . S
C1091 C1090 1.385 . S
C1092 C1090 1.478 . S
C1092 C1094 1.381 . S
C1092 C1098 1.383 . S
C1093 C1089 1.495 . S
C1093 H1099 0.959 . S
C1093 H1100 0.961 . S
C1093 H1101 0.960 . S
C1094 C1092 1.381 . S
C1094 C1095 1.394 . S
C1094 H1102 0.930 . S
C1095 C1094 1.394 . S
C1095 C1096 1.383 . S
C1095 H1103 0.929 . S
C1096 C1095 1.383 . S
C1096 C1097 1.377 . S
C1097 H1081 0.930 . S
C1097 C1096 1.377 . S
C1097 C1098 1.379 . S
C1098 H1082 0.931 . S
C1098 C1092 1.383 . S
C1098 C1097 1.379 . S
H1099 C1093 0.959 . S
H1100 C1093 0.961 . S
H1101 C1093 0.960 . S
H1102 C1094 0.930 . S
H1103 C1095 0.929 . S
H1104 C1112 0.929 . S
H1105 C1114 0.930 . S
H1106 C1116 0.930 . S
H1107 C1119 0.929 . S
H1108 C1122 0.930 . S
H1109 C1124 0.960 . S
H1110 C1124 0.960 . S
H1111 C1124 0.960 . S
C1112 H1104 0.929 . S
C1112 C1113 1.377 . S
C1112 C1114 1.384 . S
C1113 C1112 1.377 . S
C1113 C1119 1.390 . S
C1114 H1105 0.930 . S
C1114 C1112 1.384 . S
C1114 C1115 1.372 . S
C1115 C1114 1.372 . S
C1115 C1116 1.400 . S
C1115 C1120 1.490 . S
C1116 H1106 0.930 . S
C1116 C1115 1.400 . S
C1116 C1119 1.386 . S
H1117 C1133 0.930 . S
H1118 C1134 0.931 . S
C1119 H1107 0.929 . S
C1119 C1113 1.390 . S
C1119 C1116 1.386 . S
C1120 C1115 1.490 . S
C1120 C1122 1.395 . S
C1120 C1123 1.403 . S
H1121 C1127 0.930 . S
C1122 H1108 0.930 . S
C1122 C1120 1.395 . S
C1122 C1125 1.403 . S
C1123 C1120 1.403 . S
C1123 C1124 1.524 . S
C1123 C1127 1.400 . S
C1124 H1109 0.960 . S
C1124 H1110 0.960 . S
C1124 H1111 0.960 . S
C1124 C1123 1.524 . S
C1125 C1122 1.403 . S
C1125 C1126 1.392 . S
C1125 C1129 1.495 . S
C1126 C1125 1.392 . S
C1126 C1127 1.385 . S
C1126 C1128 1.478 . S
C1127 H1121 0.930 . S
C1127 C1123 1.400 . S
C1127 C1126 1.385 . S
C1128 C1126 1.478 . S
C1128 C1130 1.381 . S
C1128 C1134 1.383 . S
C1129 C1125 1.495 . S
C1129 H1135 0.959 . S
C1129 H1136 0.961 . S
C1129 H1137 0.960 . S
C1130 C1128 1.381 . S
C1130 C1131 1.394 . S
C1130 H1138 0.930 . S
C1131 C1130 1.394 . S
C1131 C1132 1.383 . S
C1131 H1139 0.929 . S
C1132 C1131 1.383 . S
C1132 C1133 1.377 . S
C1133 H1117 0.930 . S
C1133 C1132 1.377 . S
C1133 C1134 1.379 . S
C1134 H1118 0.931 . S
C1134 C1128 1.383 . S
C1134 C1133 1.379 . S
H1135 C1129 0.959 . S
H1136 C1129 0.961 . S
H1137 C1129 0.960 . S
H1138 C1130 0.930 . S
H1139 C1131 0.929 . S
C285 C7 2.233 . S
C304 C145 2.201 . S
C321 C30 1.316 . S
C340 N163 1.317 . S
C376 C191 2.067 . S
C357 N58 2.038 . S
C412 N209 1.165 . S
C393 N81 1.160 . S
C448 C237 2.130 . S
C429 C99 2.151 . S
C484 N255 1.222 . S
C465 N127 1.190 . S
C501 N25 2.031 . S
C520 C200 2.068 . S
C537 C62 1.305 . S
C556 N219 1.273 . S
C592 C246 2.161 . S
C573 C85 2.160 . S
C628 N265 1.162 . S
C609 N94 1.197 . S
C645 C131 2.160 . S
C664 C154 2.147 . S
C700 N173 1.181 . S
C681 N2 1.180 . S
C736 C223 2.023 . S
C717 C16 2.078 . S
C753 C39 1.173 . S
C772 N242 1.134 . S
C808 C269 1.898 . S
C789 N48 1.921 . S
C825 N71 1.076 . S
C844 N150 1.048 . S
C861 C108 2.042 . S
C880 C177 1.997 . S
C897 N117 1.058 . S
C916 N196 1.074 . S
C933 N35 1.928 . S
C952 C260 1.939 . S
C988 N140 1.131 . S
C969 C53 1.197 . S
C1005 C76 2.115 . S
C1024 C168 2.105 . S
C1041 N104 1.069 . S
C1060 N186 0.986 . S
C1077 C122 2.051 . S
C1096 C214 2.033 . S
C1113 N12 1.043 . S
C1132 N232 1.064 . S
