# Generated by pormake.
# Topology ibd, (4,6)-cn, num edge types: 1
# Building blocks:
#     Node 0, Type 0, BuildingBlock: QUQFOY_clean_sbu_3, # of connection points: 4
#     Node 1, Type 0, BuildingBlock: QUQFOY_clean_sbu_3, # of connection points: 4
#     Node 2, Type 0, BuildingBlock: QUQFOY_clean_sbu_3, # of connection points: 4
#     Node 3, Type 0, BuildingBlock: QUQFOY_clean_sbu_3, # of connection points: 4
#     Node 4, Type 0, BuildingBlock: QUQFOY_clean_sbu_3, # of connection points: 4
#     Node 5, Type 0, BuildingBlock: QUQFOY_clean_sbu_3, # of connection points: 4
#     Node 6, Type 0, BuildingBlock: QUQFOY_clean_sbu_3, # of connection points: 4
#     Node 7, Type 0, BuildingBlock: QUQFOY_clean_sbu_3, # of connection points: 4
#     Node 8, Type 0, BuildingBlock: QUQFOY_clean_sbu_3, # of connection points: 4
#     Node 9, Type 0, BuildingBlock: QUQFOY_clean_sbu_3, # of connection points: 4
#     Node 10, Type 0, BuildingBlock: QUQFOY_clean_sbu_3, # of connection points: 4
#     Node 11, Type 0, BuildingBlock: QUQFOY_clean_sbu_3, # of connection points: 4
#     Node 12, Type 0, BuildingBlock: QUQFOY_clean_sbu_3, # of connection points: 4
#     Node 13, Type 0, BuildingBlock: QUQFOY_clean_sbu_3, # of connection points: 4
#     Node 14, Type 0, BuildingBlock: QUQFOY_clean_sbu_3, # of connection points: 4
#     Node 15, Type 0, BuildingBlock: QUQFOY_clean_sbu_3, # of connection points: 4
#     Node 16, Type 0, BuildingBlock: QUQFOY_clean_sbu_3, # of connection points: 4
#     Node 17, Type 0, BuildingBlock: QUQFOY_clean_sbu_3, # of connection points: 4
#     Node 18, Type 0, BuildingBlock: QUQFOY_clean_sbu_3, # of connection points: 4
#     Node 19, Type 0, BuildingBlock: QUQFOY_clean_sbu_3, # of connection points: 4
#     Node 20, Type 0, BuildingBlock: QUQFOY_clean_sbu_3, # of connection points: 4
#     Node 21, Type 0, BuildingBlock: QUQFOY_clean_sbu_3, # of connection points: 4
#     Node 22, Type 0, BuildingBlock: QUQFOY_clean_sbu_3, # of connection points: 4
#     Node 23, Type 0, BuildingBlock: QUQFOY_clean_sbu_3, # of connection points: 4
#     Node 24, Type 1, BuildingBlock: OJICUG_clean_sbu_0, # of connection points: 6
#     Node 25, Type 1, BuildingBlock: OJICUG_clean_sbu_0, # of connection points: 6
#     Node 26, Type 1, BuildingBlock: OJICUG_clean_sbu_0, # of connection points: 6
#     Node 27, Type 1, BuildingBlock: OJICUG_clean_sbu_0, # of connection points: 6
#     Node 28, Type 1, BuildingBlock: OJICUG_clean_sbu_0, # of connection points: 6
#     Node 29, Type 1, BuildingBlock: OJICUG_clean_sbu_0, # of connection points: 6
#     Node 30, Type 1, BuildingBlock: OJICUG_clean_sbu_0, # of connection points: 6
#     Node 31, Type 1, BuildingBlock: OJICUG_clean_sbu_0, # of connection points: 6
#     Node 32, Type 1, BuildingBlock: OJICUG_clean_sbu_0, # of connection points: 6
#     Node 33, Type 1, BuildingBlock: OJICUG_clean_sbu_0, # of connection points: 6
#     Node 34, Type 1, BuildingBlock: OJICUG_clean_sbu_0, # of connection points: 6
#     Node 35, Type 1, BuildingBlock: OJICUG_clean_sbu_0, # of connection points: 6
#     Node 36, Type 1, BuildingBlock: OJICUG_clean_sbu_0, # of connection points: 6
#     Node 37, Type 1, BuildingBlock: OJICUG_clean_sbu_0, # of connection points: 6
#     Node 38, Type 1, BuildingBlock: OJICUG_clean_sbu_0, # of connection points: 6
#     Node 39, Type 1, BuildingBlock: OJICUG_clean_sbu_0, # of connection points: 6
#     Edge 40, Type (0, 1), BuildingBlock: XUDNAN_clean_linker_2, # of connection points: 2
#     Edge 41, Type (0, 1), BuildingBlock: XUDNAN_clean_linker_2, # of connection points: 2
#     Edge 42, Type (0, 1), BuildingBlock: XUDNAN_clean_linker_2, # of connection points: 2
#     Edge 43, Type (0, 1), BuildingBlock: XUDNAN_clean_linker_2, # of connection points: 2
#     Edge 44, Type (0, 1), BuildingBlock: XUDNAN_clean_linker_2, # of connection points: 2
#     Edge 45, Type (0, 1), BuildingBlock: XUDNAN_clean_linker_2, # of connection points: 2
#     Edge 46, Type (0, 1), BuildingBlock: XUDNAN_clean_linker_2, # of connection points: 2
#     Edge 47, Type (0, 1), BuildingBlock: XUDNAN_clean_linker_2, # of connection points: 2
#     Edge 48, Type (0, 1), BuildingBlock: XUDNAN_clean_linker_2, # of connection points: 2
#     Edge 49, Type (0, 1), BuildingBlock: XUDNAN_clean_linker_2, # of connection points: 2
#     Edge 50, Type (0, 1), BuildingBlock: XUDNAN_clean_linker_2, # of connection points: 2
#     Edge 51, Type (0, 1), BuildingBlock: XUDNAN_clean_linker_2, # of connection points: 2
#     Edge 52, Type (0, 1), BuildingBlock: XUDNAN_clean_linker_2, # of connection points: 2
#     Edge 53, Type (0, 1), BuildingBlock: XUDNAN_clean_linker_2, # of connection points: 2
#     Edge 54, Type (0, 1), BuildingBlock: XUDNAN_clean_linker_2, # of connection points: 2
#     Edge 55, Type (0, 1), BuildingBlock: XUDNAN_clean_linker_2, # of connection points: 2
#     Edge 56, Type (0, 1), BuildingBlock: XUDNAN_clean_linker_2, # of connection points: 2
#     Edge 57, Type (0, 1), BuildingBlock: XUDNAN_clean_linker_2, # of connection points: 2
#     Edge 58, Type (0, 1), BuildingBlock: XUDNAN_clean_linker_2, # of connection points: 2
#     Edge 59, Type (0, 1), BuildingBlock: XUDNAN_clean_linker_2, # of connection points: 2
#     Edge 60, Type (0, 1), BuildingBlock: XUDNAN_clean_linker_2, # of connection points: 2
#     Edge 61, Type (0, 1), BuildingBlock: XUDNAN_clean_linker_2, # of connection points: 2
#     Edge 62, Type (0, 1), BuildingBlock: XUDNAN_clean_linker_2, # of connection points: 2
#     Edge 63, Type (0, 1), BuildingBlock: XUDNAN_clean_linker_2, # of connection points: 2
#     Edge 64, Type (0, 1), BuildingBlock: XUDNAN_clean_linker_2, # of connection points: 2
#     Edge 65, Type (0, 1), BuildingBlock: XUDNAN_clean_linker_2, # of connection points: 2
#     Edge 66, Type (0, 1), BuildingBlock: XUDNAN_clean_linker_2, # of connection points: 2
#     Edge 67, Type (0, 1), BuildingBlock: XUDNAN_clean_linker_2, # of connection points: 2
#     Edge 68, Type (0, 1), BuildingBlock: XUDNAN_clean_linker_2, # of connection points: 2
#     Edge 69, Type (0, 1), BuildingBlock: XUDNAN_clean_linker_2, # of connection points: 2
#     Edge 70, Type (0, 1), BuildingBlock: XUDNAN_clean_linker_2, # of connection points: 2
#     Edge 71, Type (0, 1), BuildingBlock: XUDNAN_clean_linker_2, # of connection points: 2
#     Edge 72, Type (0, 1), BuildingBlock: XUDNAN_clean_linker_2, # of connection points: 2
#     Edge 73, Type (0, 1), BuildingBlock: XUDNAN_clean_linker_2, # of connection points: 2
#     Edge 74, Type (0, 1), BuildingBlock: XUDNAN_clean_linker_2, # of connection points: 2
#     Edge 75, Type (0, 1), BuildingBlock: XUDNAN_clean_linker_2, # of connection points: 2
#     Edge 76, Type (0, 1), BuildingBlock: XUDNAN_clean_linker_2, # of connection points: 2
#     Edge 77, Type (0, 1), BuildingBlock: XUDNAN_clean_linker_2, # of connection points: 2
#     Edge 78, Type (0, 1), BuildingBlock: XUDNAN_clean_linker_2, # of connection points: 2
#     Edge 79, Type (0, 1), BuildingBlock: XUDNAN_clean_linker_2, # of connection points: 2
#     Edge 80, Type (0, 1), BuildingBlock: XUDNAN_clean_linker_2, # of connection points: 2
#     Edge 81, Type (0, 1), BuildingBlock: XUDNAN_clean_linker_2, # of connection points: 2
#     Edge 82, Type (0, 1), BuildingBlock: XUDNAN_clean_linker_2, # of connection points: 2
#     Edge 83, Type (0, 1), BuildingBlock: XUDNAN_clean_linker_2, # of connection points: 2
#     Edge 84, Type (0, 1), BuildingBlock: XUDNAN_clean_linker_2, # of connection points: 2
#     Edge 85, Type (0, 1), BuildingBlock: XUDNAN_clean_linker_2, # of connection points: 2
#     Edge 86, Type (0, 1), BuildingBlock: XUDNAN_clean_linker_2, # of connection points: 2
#     Edge 87, Type (0, 1), BuildingBlock: XUDNAN_clean_linker_2, # of connection points: 2
#     Edge 88, Type (0, 1), BuildingBlock: XUDNAN_clean_linker_2, # of connection points: 2
#     Edge 89, Type (0, 1), BuildingBlock: XUDNAN_clean_linker_2, # of connection points: 2
#     Edge 90, Type (0, 1), BuildingBlock: XUDNAN_clean_linker_2, # of connection points: 2
#     Edge 91, Type (0, 1), BuildingBlock: XUDNAN_clean_linker_2, # of connection points: 2
#     Edge 92, Type (0, 1), BuildingBlock: XUDNAN_clean_linker_2, # of connection points: 2
#     Edge 93, Type (0, 1), BuildingBlock: XUDNAN_clean_linker_2, # of connection points: 2
#     Edge 94, Type (0, 1), BuildingBlock: XUDNAN_clean_linker_2, # of connection points: 2
#     Edge 95, Type (0, 1), BuildingBlock: XUDNAN_clean_linker_2, # of connection points: 2
#     Edge 96, Type (0, 1), BuildingBlock: XUDNAN_clean_linker_2, # of connection points: 2
#     Edge 97, Type (0, 1), BuildingBlock: XUDNAN_clean_linker_2, # of connection points: 2
#     Edge 98, Type (0, 1), BuildingBlock: XUDNAN_clean_linker_2, # of connection points: 2
#     Edge 99, Type (0, 1), BuildingBlock: XUDNAN_clean_linker_2, # of connection points: 2
#     Edge 100, Type (0, 1), BuildingBlock: XUDNAN_clean_linker_2, # of connection points: 2
#     Edge 101, Type (0, 1), BuildingBlock: XUDNAN_clean_linker_2, # of connection points: 2
#     Edge 102, Type (0, 1), BuildingBlock: XUDNAN_clean_linker_2, # of connection points: 2
#     Edge 103, Type (0, 1), BuildingBlock: XUDNAN_clean_linker_2, # of connection points: 2
#     Edge 104, Type (0, 1), BuildingBlock: XUDNAN_clean_linker_2, # of connection points: 2
#     Edge 105, Type (0, 1), BuildingBlock: XUDNAN_clean_linker_2, # of connection points: 2
#     Edge 106, Type (0, 1), BuildingBlock: XUDNAN_clean_linker_2, # of connection points: 2
#     Edge 107, Type (0, 1), BuildingBlock: XUDNAN_clean_linker_2, # of connection points: 2
#     Edge 108, Type (0, 1), BuildingBlock: XUDNAN_clean_linker_2, # of connection points: 2
#     Edge 109, Type (0, 1), BuildingBlock: XUDNAN_clean_linker_2, # of connection points: 2
#     Edge 110, Type (0, 1), BuildingBlock: XUDNAN_clean_linker_2, # of connection points: 2
#     Edge 111, Type (0, 1), BuildingBlock: XUDNAN_clean_linker_2, # of connection points: 2
#     Edge 112, Type (0, 1), BuildingBlock: XUDNAN_clean_linker_2, # of connection points: 2
#     Edge 113, Type (0, 1), BuildingBlock: XUDNAN_clean_linker_2, # of connection points: 2
#     Edge 114, Type (0, 1), BuildingBlock: XUDNAN_clean_linker_2, # of connection points: 2
#     Edge 115, Type (0, 1), BuildingBlock: XUDNAN_clean_linker_2, # of connection points: 2
#     Edge 116, Type (0, 1), BuildingBlock: XUDNAN_clean_linker_2, # of connection points: 2
#     Edge 117, Type (0, 1), BuildingBlock: XUDNAN_clean_linker_2, # of connection points: 2
#     Edge 118, Type (0, 1), BuildingBlock: XUDNAN_clean_linker_2, # of connection points: 2
#     Edge 119, Type (0, 1), BuildingBlock: XUDNAN_clean_linker_2, # of connection points: 2
#     Edge 120, Type (0, 1), BuildingBlock: XUDNAN_clean_linker_2, # of connection points: 2
#     Edge 121, Type (0, 1), BuildingBlock: XUDNAN_clean_linker_2, # of connection points: 2
#     Edge 122, Type (0, 1), BuildingBlock: XUDNAN_clean_linker_2, # of connection points: 2
#     Edge 123, Type (0, 1), BuildingBlock: XUDNAN_clean_linker_2, # of connection points: 2
#     Edge 124, Type (0, 1), BuildingBlock: XUDNAN_clean_linker_2, # of connection points: 2
#     Edge 125, Type (0, 1), BuildingBlock: XUDNAN_clean_linker_2, # of connection points: 2
#     Edge 126, Type (0, 1), BuildingBlock: XUDNAN_clean_linker_2, # of connection points: 2
#     Edge 127, Type (0, 1), BuildingBlock: XUDNAN_clean_linker_2, # of connection points: 2
#     Edge 128, Type (0, 1), BuildingBlock: XUDNAN_clean_linker_2, # of connection points: 2
#     Edge 129, Type (0, 1), BuildingBlock: XUDNAN_clean_linker_2, # of connection points: 2
#     Edge 130, Type (0, 1), BuildingBlock: XUDNAN_clean_linker_2, # of connection points: 2
#     Edge 131, Type (0, 1), BuildingBlock: XUDNAN_clean_linker_2, # of connection points: 2
#     Edge 132, Type (0, 1), BuildingBlock: XUDNAN_clean_linker_2, # of connection points: 2
#     Edge 133, Type (0, 1), BuildingBlock: XUDNAN_clean_linker_2, # of connection points: 2
#     Edge 134, Type (0, 1), BuildingBlock: XUDNAN_clean_linker_2, # of connection points: 2
#     Edge 135, Type (0, 1), BuildingBlock: XUDNAN_clean_linker_2, # of connection points: 2
# Relax obj value: 0.375
# Max RMSD: 0.287
# Mean RMSD: 0.282
data_MOF--net-ibd--node1-QUQFOY_clean_sbu_3--node2-OJICUG_clean_sbu_0--edge1-XUDNAN_clean_linker_2
_symmetry_space_group_name_H-M    P1
_symmetry_Int_Tables_number       1
_symmetry_cell_setting            triclinic
loop_
_symmetry_equiv_pos_as_xyz
'x, y, z'
_cell_length_a     49.150004
_cell_length_b     49.041322
_cell_length_c     49.11439
_cell_angle_alpha  90.094107
_cell_angle_beta   90.108489
_cell_angle_gamma 91.143272
loop_
_atom_site_label
_atom_site_type_symbol
_atom_site_fract_x
_atom_site_fract_y
_atom_site_fract_z
_atom_type_partial_charge
C0 C 0.93201 0.22193 0.43602 0.0
O1 O 0.91088 0.23492 0.44239 0.0
Cd2 Cd 0.89778 0.27585 0.41999 0.0
O3 O 0.9468 0.22928 0.41611 0.0
Cd4 Cd 0.94557 0.26398 0.38033 0.0
C5 C 0.95667 0.31283 0.42736 0.0
O6 O 0.89691 0.26574 0.37194 0.0
O7 O 0.92163 0.2991 0.35603 0.0
O8 O 0.96039 0.23302 0.34463 0.0
C9 C 0.89861 0.28701 0.3574 0.0
O10 O 0.93223 0.30972 0.4355 0.0
C11 C 0.98396 0.24398 0.34275 0.0
O12 O 0.96584 0.29823 0.4083 0.0
O13 O 0.98892 0.26494 0.35721 0.0
C14 C 0.95758 0.72781 0.55546 0.0
O15 O 0.93444 0.71593 0.55369 0.0
Cd16 Cd 0.91441 0.68737 0.58776 0.0
O17 O 0.9725 0.7248 0.57647 0.0
Cd18 Cd 0.96915 0.69616 0.61783 0.0
C19 C 0.96111 0.64103 0.57631 0.0
O20 O 0.92429 0.71097 0.62944 0.0
O21 O 0.93801 0.67702 0.65321 0.0
O22 O 0.0002 0.72766 0.64223 0.0
C23 C 0.92093 0.69582 0.64998 0.0
O24 O 0.93549 0.64371 0.57792 0.0
C25 C 0.01554 0.70887 0.65068 0.0
O26 O 0.97708 0.65824 0.58765 0.0
O27 O 0.00933 0.68465 0.64348 0.0
C28 C 0.44822 0.72697 0.87213 0.0
O29 O 0.4269 0.73994 0.86611 0.0
Cd30 Cd 0.42707 0.7786 0.83605 0.0
O31 O 0.47067 0.73207 0.86006 0.0
Cd32 Cd 0.49218 0.75934 0.82351 0.0
C33 C 0.48275 0.81231 0.86633 0.0
O34 O 0.45187 0.76597 0.79727 0.0
O35 O 0.48611 0.79135 0.78573 0.0
O36 O 0.5101 0.71605 0.80887 0.0
C37 C 0.46104 0.78543 0.78281 0.0
O38 O 0.45746 0.81016 0.86058 0.0
C39 C 0.53419 0.72489 0.80468 0.0
O40 O 0.49993 0.79561 0.85678 0.0
O41 O 0.53902 0.75006 0.80933 0.0
C42 C 0.52052 0.31532 0.10986 0.0
O43 O 0.49962 0.3301 0.10896 0.0
Cd44 Cd 0.46007 0.32445 0.13554 0.0
O45 O 0.52297 0.29679 0.12787 0.0
Cd46 Cd 0.49665 0.27849 0.16749 0.0
C47 C 0.45192 0.2562 0.11911 0.0
O48 O 0.47776 0.32142 0.18027 0.0
O49 O 0.4584 0.2867 0.19924 0.0
O50 O 0.53816 0.27676 0.19485 0.0
C51 C 0.46018 0.31243 0.19684 0.0
O52 O 0.4445 0.28079 0.11636 0.0
C53 C 0.53536 0.25187 0.20163 0.0
O54 O 0.47033 0.24986 0.13611 0.0
O55 O 0.51451 0.23915 0.19242 0.0
C56 C 0.95612 0.83359 0.15504 0.0
O57 O 0.95851 0.8594 0.15392 0.0
Cd58 Cd 0.97862 0.88343 0.11629 0.0
O59 O 0.96575 0.81866 0.13622 0.0
Cd60 Cd 0.99345 0.82764 0.09508 0.0
C61 C 0.04129 0.86432 0.13073 0.0
O62 O 0.9615 0.85977 0.07615 0.0
O63 O -0.00086 0.85627 0.05417 0.0
O64 O 0.98092 0.78278 0.07511 0.0
C65 C 0.97472 0.86413 0.05449 0.0
O66 O 0.02724 0.88561 0.12789 0.0
C67 C 0.00541 0.7765 0.07015 0.0
O68 O 0.03227 0.84151 0.12208 0.0
O69 O 0.02374 0.79366 0.07722 0.0
C70 C 0.46292 0.77447 0.29952 0.0
O71 O 0.43729 0.77409 0.29604 0.0
Cd72 Cd 0.40656 0.74817 0.32453 0.0
O73 O 0.47362 0.75931 0.31743 0.0
Cd74 Cd 0.45658 0.72559 0.35076 0.0
C75 C 0.42116 0.68323 0.30919 0.0
O76 O 0.42271 0.75615 0.36986 0.0
O77 O 0.42375 0.71566 0.3869 0.0
O78 O 0.49536 0.74067 0.37769 0.0
C79 C 0.41594 0.74005 0.38889 0.0
O80 O 0.40249 0.70074 0.31031 0.0
C81 C 0.50288 0.71707 0.38455 0.0
O82 O 0.44438 0.68823 0.31972 0.0
O83 O 0.48983 0.69698 0.37422 0.0
C84 C 0.43698 0.16977 0.66251 0.0
O85 O 0.42679 0.19218 0.65509 0.0
Cd86 Cd 0.44233 0.2235 0.62072 0.0
O87 O 0.45891 0.16118 0.65189 0.0
Cd88 Cd 0.4925 0.18035 0.61866 0.0
C89 C 0.50125 0.23963 0.65393 0.0
O90 O 0.46136 0.19842 0.58456 0.0
O91 O 0.50324 0.21129 0.58137 0.0
O92 O 0.50745 0.13663 0.59964 0.0
C93 C 0.47932 0.21229 0.57194 0.0
O94 O 0.47942 0.24803 0.64307 0.0
C95 C 0.53263 0.14187 0.60348 0.0
O96 O 0.50892 0.21515 0.65078 0.0
O97 O 0.53862 0.16376 0.61616 0.0
C98 C 0.07241 0.29178 0.87182 0.0
O99 O 0.06673 0.31598 0.87874 0.0
Cd100 Cd 0.02934 0.32479 0.90921 0.0
O101 O 0.06107 0.27159 0.88365 0.0
Cd102 Cd 0.03098 0.25986 0.9213 0.0
C103 C 0.98207 0.2808 0.87894 0.0
O104 O 0.03434 0.30002 0.95063 0.0
O105 O -0.00013 0.27244 0.9563 0.0
O106 O 0.06858 0.23298 0.93561 0.0
C107 C 0.01238 0.29424 0.96317 0.0
O108 O 0.99041 0.30505 0.8842 0.0
C109 C 0.05485 0.21111 0.93925 0.0
O110 O 0.994 0.26019 0.88883 0.0
O111 O 0.02935 0.21179 0.93482 0.0
C112 C 0.39559 0.99256 0.24256 0.0
O113 O 0.39385 0.96897 0.25305 0.0
Cd114 Cd 0.38087 0.96179 0.29926 0.0
O115 O 0.38839 0.01344 0.25602 0.0
Cd116 Cd 0.36669 0.02244 0.30109 0.0
C117 C 0.42196 0.00516 0.33623 0.0
O118 O 0.33737 0.98249 0.30499 0.0
O119 O 0.34517 0.0045 0.34259 0.0
O120 O 0.329 0.04917 0.28645 0.0
C121 C 0.33143 0.98644 0.32977 0.0
O122 O 0.41734 0.98071 0.32852 0.0
C123 C 0.33864 0.07214 0.29388 0.0
O124 O 0.40684 0.02444 0.32871 0.0
O125 O 0.3621 0.07264 0.3047 0.0
C126 C 0.28511 0.0989 0.44555 0.0
O127 O 0.27929 0.12139 0.45638 0.0
Cd128 Cd 0.23802 0.12434 0.42769 0.0
O129 O 0.26895 0.08993 0.42743 0.0
Cd130 Cd 0.23177 0.12796 0.42449 0.0
C131 C 0.19365 0.08029 0.42158 0.0
O132 O 0.25715 0.14244 0.38523 0.0
O133 O 0.22192 0.16621 0.39306 0.0
O134 O 0.24688 0.16333 0.45868 0.0
C135 C 0.24333 0.163 0.37906 0.0
O136 O 0.21782 0.07721 0.42941 0.0
C137 C 0.22802 0.15826 0.47561 0.0
O138 O 0.18746 0.10406 0.41429 0.0
O139 O 0.21125 0.13927 0.46935 0.0
C140 C 0.15868 0.9362 0.73131 0.0
O141 O 0.16271 0.91737 0.74849 0.0
Cd142 Cd 0.13709 0.90984 0.7893 0.0
O143 O 0.14052 0.95389 0.73528 0.0
Cd144 Cd 0.10838 0.96447 0.77195 0.0
C145 C 0.15816 0.96834 0.81986 0.0
O146 O 0.09098 0.91801 0.77781 0.0
O147 O 0.07737 0.94745 0.8073 0.0
O148 O 0.07817 0.9794 0.73629 0.0
C149 C 0.07548 0.92353 0.79753 0.0
O150 O 0.1562 0.9425 0.82154 0.0
C151 C 0.07318 0.00254 0.74651 0.0
O152 O 0.14502 0.98147 0.80194 0.0
O153 O 0.08531 0.00869 0.76864 0.0
C154 C 0.2969 0.79862 0.09508 0.0
O155 O 0.31933 0.79937 0.08241 0.0
Cd156 Cd 0.3289 0.82993 0.04653 0.0
O157 O 0.27913 0.81668 0.0909 0.0
Cd158 Cd 0.28197 0.85968 0.06377 0.0
C159 C 0.27229 0.82452 0.00655 0.0
O160 O 0.32983 0.87495 0.06608 0.0
O161 O 0.30797 0.8857 0.02976 0.0
O162 O 0.26444 0.89128 0.09852 0.0
C163 C 0.32849 0.8896 0.04502 0.0
O164 O 0.29742 0.8189 0.00826 0.0
C165 C 0.24557 0.8997 0.08312 0.0
O166 O 0.261 0.8382 0.02512 0.0
O167 O 0.24323 0.88846 0.05998 0.0
C168 C 0.20918 0.34376 0.04017 0.0
O169 O 0.23493 0.342 0.0411 0.0
Cd170 Cd 0.26676 0.35536 0.00689 0.0
O171 O 0.19747 0.35419 0.01955 0.0
Cd172 Cd 0.21124 0.37534 0.97541 0.0
C173 C 0.23872 0.317 0.95416 0.0
O174 O 0.25145 0.39774 0.99229 0.0
O175 O 0.24856 0.39776 0.94859 0.0
O176 O 0.17905 0.41156 0.9819 0.0
C177 C 0.26168 0.40486 0.96977 0.0
O178 O 0.25857 0.32322 0.96985 0.0
C179 C 0.16792 0.40907 0.95866 0.0
O180 O 0.21713 0.33093 0.95364 0.0
O181 O 0.17593 0.38968 0.94365 0.0
C182 C 0.75758 0.06534 -0.0045 0.0
O183 O 0.77949 0.0564 0.00557 0.0
Cd184 Cd 0.82188 0.08178 0.0025 0.0
O185 O 0.75793 0.08669 0.98078 0.0
Cd186 Cd 0.79423 0.11748 0.96289 0.0
C187 C 0.83984 0.07168 0.93822 0.0
O188 O 0.80876 0.12877 0.00979 0.0
O189 O 0.82537 0.15399 0.97766 0.0
O190 O 0.75379 0.14257 0.94987 0.0
C191 C 0.82198 0.15008 0.0029 0.0
O192 O 0.84685 0.06667 0.96256 0.0
C193 C 0.76421 0.15233 0.92825 0.0
O194 O 0.82056 0.08786 0.9336 0.0
O195 O 0.7884 0.14571 0.92282 0.0
C196 C 0.17443 0.45912 0.18427 0.0
O197 O 0.16183 0.43631 0.18298 0.0
Cd198 Cd 0.12479 0.42533 0.21342 0.0
O199 O 0.1667 0.47764 0.20052 0.0
Cd200 Cd 0.12933 0.48441 0.23291 0.0
C201 C 0.15346 0.43707 0.27554 0.0
O202 O 0.09204 0.46083 0.209 0.0
O203 O 0.08476 0.47225 0.2509 0.0
O204 O 0.12187 0.5297 0.21462 0.0
C205 C 0.07525 0.46405 0.22827 0.0
O206 O 0.1433 0.41925 0.2594 0.0
C207 C 0.12183 0.54149 0.23765 0.0
O208 O 0.15259 0.4623 0.26979 0.0
O209 O 0.12791 0.52707 0.25815 0.0
C210 C 0.79745 0.8377 0.57578 0.0
O211 O 0.81604 0.84254 0.59324 0.0
Cd212 Cd 0.85463 0.87012 0.58278 0.0
O213 O 0.79734 0.84954 0.55263 0.0
Cd214 Cd 0.82204 0.88569 0.52625 0.0
C215 C 0.87134 0.83887 0.52162 0.0
O216 O 0.83034 0.9089 0.56815 0.0
O217 O 0.84817 0.92937 0.5337 0.0
O218 O 0.77562 0.89573 0.51163 0.0
C219 C 0.84324 0.92937 0.55903 0.0
O220 O 0.8745 0.84164 0.54722 0.0
C221 C 0.78248 0.90479 0.48838 0.0
O222 O 0.85447 0.85329 0.50862 0.0
O223 O 0.80761 0.90428 0.48248 0.0
C224 C 0.9183 0.9688 0.16668 0.0
O225 O 0.91264 0.944 0.16115 0.0
Cd226 Cd 0.87261 0.91881 0.17592 0.0
O227 O 0.90303 0.98258 0.18223 0.0
Cd228 Cd 0.86298 0.97394 0.21088 0.0
C229 C 0.89011 0.91853 0.2423 0.0
O230 O 0.8357 0.94968 0.17734 0.0
O231 O 0.81945 0.95047 0.21822 0.0
O232 O 0.84289 0.01937 0.21016 0.0
C233 C 0.81649 0.94359 0.1935 0.0
O234 O 0.88428 0.90392 0.22157 0.0
C235 C 0.84803 0.02429 0.23508 0.0
O236 O 0.88626 0.94411 0.24232 0.0
O237 O 0.86093 0.00636 0.24816 0.0
C238 C 0.17774 0.58566 0.57285 0.0
O239 O 0.18898 0.59123 0.59554 0.0
Cd240 Cd 0.22987 0.61822 0.59941 0.0
O241 O 0.18731 0.59558 0.55085 0.0
Cd242 Cd 0.22428 0.62715 0.53698 0.0
C243 C 0.2715 0.58225 0.55791 0.0
O244 O 0.22013 0.65961 0.57507 0.0
O245 O 0.25312 0.66606 0.54651 0.0
O246 O 0.19166 0.64062 0.50225 0.0
C247 C 0.23937 0.67476 0.56633 0.0
O248 O 0.26575 0.58839 0.58239 0.0
C249 C 0.20946 0.64443 0.48389 0.0
O250 O 0.25891 0.593 0.53815 0.0
O251 O 0.23392 0.6393 0.48987 0.0
C252 C 0.41812 0.51126 0.70154 0.0
O253 O 0.41582 0.48637 0.69463 0.0
Cd254 Cd 0.38264 0.45442 0.71197 0.0
O255 O 0.40321 0.52107 0.72025 0.0
Cd256 Cd 0.36797 0.50296 0.75201 0.0
C257 C 0.40266 0.44987 0.77818 0.0
O258 O 0.34107 0.478 0.71807 0.0
O259 O 0.33151 0.46994 0.76019 0.0
O260 O 0.34007 0.54365 0.75409 0.0
C261 C 0.3256 0.46642 0.73531 0.0
O262 O 0.39879 0.43776 0.75552 0.0
C263 C 0.34331 0.5476 0.77945 0.0
O264 O 0.39571 0.47454 0.78145 0.0
O265 O 0.35931 0.53174 0.79173 0.0
C266 C 0.64314 0.09406 0.69245 0.0
O267 O 0.63667 0.08108 0.67093 0.0
Cd268 Cd 0.61516 0.03652 0.67118 0.0
O269 O 0.63611 0.08512 0.71575 0.0
Cd270 Cd 0.60821 0.04808 0.73558 0.0
C271 C 0.65574 0.00348 0.71782 0.0
O272 O 0.57567 0.03815 0.69894 0.0
O273 O 0.57987 0.00776 0.73031 0.0
O274 O 0.587 0.082 0.76425 0.0
C275 C 0.5685 0.01503 0.70843 0.0
O276 O 0.64677 0.00532 0.69351 0.0
C277 C 0.5893 0.06838 0.78608 0.0
O278 O 0.64678 0.01867 0.73671 0.0
O279 O 0.60073 0.04546 0.78451 0.0
C280 C 0.73885 0.60324 0.0227 0.0
O281 O 0.74148 0.60745 -0.00269 0.0
Cd282 Cd 0.71282 0.63083 0.96707 0.0
O283 O 0.7184 0.6123 0.03582 0.0
Cd284 Cd 0.6776 0.63987 0.02233 0.0
C285 C 0.65709 0.58981 0.97902 0.0
O286 O 0.7045 0.66917 0.99442 0.0
O287 O 0.66191 0.67591 0.98943 0.0
O288 O 0.67434 0.66259 0.06669 0.0
C289 C 0.68611 0.68318 0.98387 0.0
O290 O 0.6743 0.59899 0.9618 0.0
C291 C 0.64844 0.66151 0.067 0.0
O292 O 0.65552 0.60004 0.00273 0.0
O293 O 0.63675 0.64832 0.04791 0.0
C294 C 0.9081 0.43184 0.73755 0.0
O295 O 0.90404 0.42754 0.76275 0.0
Cd296 Cd 0.87734 0.45519 0.79231 0.0
O297 O 0.8991 0.45314 0.72596 0.0
Cd298 Cd 0.87195 0.49263 0.74064 0.0
C299 C 0.91196 0.51571 0.79234 0.0
O300 O 0.83947 0.46228 0.76314 0.0
O301 O 0.83001 0.50494 0.76481 0.0
O302 O 0.85779 0.4964 0.69274 0.0
C303 C 0.82277 0.48048 0.7693 0.0
O304 O 0.9021 0.49653 0.80692 0.0
C305 C 0.85552 0.52214 0.69384 0.0
O306 O 0.90641 0.51715 0.76711 0.0
O307 O 0.86298 0.53387 0.71571 0.0
C308 C 0.85011 0.36537 0.49811 0.0
O309 O 0.86602 0.35794 0.47927 0.0
Cd310 Cd 0.85878 0.3668 0.4318 0.0
O311 O 0.82936 0.37962 0.49265 0.0
Cd312 Cd 0.80829 0.40077 0.45181 0.0
C313 C 0.79587 0.33822 0.42415 0.0
O314 O 0.85063 0.41512 0.42882 0.0
O315 O 0.81331 0.42052 0.40654 0.0
O316 O 0.79008 0.43667 0.48172 0.0
C317 C 0.83885 0.42398 0.40772 0.0
O318 O 0.82096 0.33585 0.41842 0.0
C319 C 0.76644 0.4355 0.47112 0.0
O320 O 0.78749 0.35901 0.43675 0.0
O321 O 0.7627 0.41863 0.45184 0.0
C322 C 0.65577 0.45177 0.2616 0.0
O323 O 0.66202 0.44576 0.28594 0.0
Cd324 Cd 0.64733 0.47739 0.32095 0.0
O325 O 0.64403 0.47399 0.25658 0.0
Cd326 Cd 0.62462 0.51526 0.27447 0.0
C327 C 0.68155 0.5375 0.30672 0.0
O328 O 0.60111 0.4874 0.30809 0.0
O329 O 0.5922 0.53035 0.30921 0.0
O330 O 0.60414 0.50316 0.23181 0.0
C331 C 0.58759 0.50655 0.31843 0.0
O332 O 0.67756 0.51794 0.32335 0.0
C333 C 0.59978 0.52713 0.22362 0.0
O334 O 0.66661 0.54021 0.28578 0.0
O335 O 0.60612 0.54657 0.23978 0.0
Sc336 Sc 0.0997 0.14364 0.1502 0.0
Sc337 Sc 0.13832 0.10096 0.19244 0.0
Sc338 Sc 0.16979 0.13706 0.13874 0.0
O339 O 0.13595 0.12733 0.16058 0.0
C340 C 0.12449 0.13172 0.09207 0.0
C341 C 0.08178 0.08283 0.1656 0.0
C342 C 0.17516 0.07313 0.14734 0.0
C343 C 0.09814 0.14623 0.21468 0.0
C344 C 0.14106 0.19426 0.14169 0.0
C345 C 0.19383 0.1348 0.19925 0.0
O346 O 0.10442 0.13372 0.10809 0.0
O347 O 0.10288 0.07778 0.17952 0.0
O348 O 0.17926 0.0949 0.13385 0.0
O349 O 0.09107 0.15459 0.19132 0.0
O350 O 0.16237 0.17998 0.14108 0.0
O351 O 0.17411 0.1207 0.20874 0.0
O352 O 0.11724 0.18387 0.14393 0.0
O353 O 0.11479 0.12707 0.2185 0.0
O354 O 0.19537 0.14151 0.17431 0.0
O355 O 0.07764 0.10578 0.15466 0.0
O356 O 0.14904 0.13393 0.10009 0.0
O357 O 0.162 0.0722 0.16959 0.0
Sc358 Sc 0.1257 0.84617 0.40853 0.0
Sc359 Sc 0.09137 0.81701 0.35278 0.0
Sc360 Sc 0.10418 0.88714 0.35555 0.0
O361 O 0.10748 0.84994 0.37184 0.0
C362 C 0.10125 0.90571 0.41445 0.0
C363 C 0.07254 0.81095 0.41511 0.0
C364 C 0.04601 0.86054 0.34161 0.0
C365 C 0.14081 0.78966 0.37985 0.0
C366 C 0.16572 0.88508 0.37875 0.0
C367 C 0.1165 0.85191 0.3032 0.0
O368 O 0.11684 0.88701 0.42245 0.0
O369 O 0.07411 0.80223 0.39064 0.0
O370 O 0.06243 0.88087 0.34291 0.0
O371 O 0.13974 0.80555 0.40027 0.0
O372 O 0.14605 0.89692 0.36682 0.0
O373 O 0.10631 0.8299 0.31306 0.0
O374 O 0.16278 0.86329 0.39264 0.0
O375 O 0.12724 0.79347 0.35826 0.0
O376 O 0.11879 0.87384 0.31688 0.0
O377 O 0.0884 0.82942 0.42494 0.0
O378 O 0.08811 0.90341 0.39244 0.0
O379 O 0.05337 0.83626 0.34571 0.0
Sc380 Sc 0.38195 0.87265 0.60432 0.0
Sc381 Sc 0.33731 0.9045 0.55991 0.0
Sc382 Sc 0.37428 0.94198 0.60851 0.0
O383 O 0.36476 0.90634 0.59031 0.0
C384 C 0.37409 0.9016 0.65885 0.0
C385 C 0.32152 0.85125 0.59179 0.0
C386 C 0.31095 0.94297 0.60458 0.0
C387 C 0.38224 0.86107 0.54195 0.0
C388 C 0.43076 0.91772 0.60638 0.0
C389 C 0.36568 0.96001 0.54655 0.0
O390 O 0.36799 0.88113 0.6443 0.0
O391 O 0.31428 0.87205 0.57853 0.0
O392 O 0.33253 0.94602 0.61869 0.0
O393 O 0.395 0.86141 0.56452 0.0
O394 O 0.41613 0.93741 0.5988 0.0
O395 O 0.35765 0.93673 0.53812 0.0
O396 O 0.42068 0.89408 0.61162 0.0
O397 O 0.36081 0.87476 0.5376 0.0
O398 O 0.36927 0.96531 0.57167 0.0
O399 O 0.3457 0.84773 0.59998 0.0
O400 O 0.38163 0.92429 0.64858 0.0
O401 O 0.31061 0.93285 0.58059 0.0
Sc402 Sc 0.38173 0.06804 0.89176 0.0
Sc403 Sc 0.38704 0.13927 0.90141 0.0
Sc404 Sc 0.34458 0.09922 0.94382 0.0
O405 O 0.37111 0.10223 0.91224 0.0
C406 C 0.31861 0.05699 0.90113 0.0
C407 C 0.37987 0.11108 0.84307 0.0
C408 C 0.32497 0.15289 0.91354 0.0
C409 C 0.4384 0.10062 0.89667 0.0
C410 C 0.37981 0.04677 0.9532 0.0
C411 C 0.38664 0.14404 0.96624 0.0
O412 O 0.33975 0.05482 0.88642 0.0
O413 O 0.38114 0.1322 0.85817 0.0
O414 O 0.32041 0.13219 0.92858 0.0
O415 O 0.42457 0.07843 0.89475 0.0
O416 O 0.36608 0.06638 0.96238 0.0
O417 O 0.39572 0.15135 0.9431 0.0
O418 O 0.38557 0.04412 0.92815 0.0
O419 O 0.42754 0.12385 0.89889 0.0
O420 O 0.36815 0.12595 0.96923 0.0
O421 O 0.37985 0.08707 0.85262 0.0
O422 O 0.31797 0.07125 0.92269 0.0
O423 O 0.34801 0.15808 0.90277 0.0
Sc424 Sc 0.64351 0.35635 0.89093 0.0
Sc425 Sc 0.58759 0.31736 0.8693 0.0
Sc426 Sc 0.59547 0.38448 0.84791 0.0
O427 O 0.60912 0.35267 0.86906 0.0
C428 C 0.61736 0.41275 0.90235 0.0
C429 C 0.60407 0.32272 0.93026 0.0
C430 C 0.54074 0.36114 0.86995 0.0
C431 C 0.64927 0.29753 0.86929 0.0
C432 C 0.65736 0.3914 0.83732 0.0
C433 C 0.58324 0.33332 0.80841 0.0
O434 O 0.62887 0.39178 0.91176 0.0
O435 O 0.58525 0.31917 0.91273 0.0
O436 O 0.55697 0.38137 0.86768 0.0
O437 O 0.65993 0.32123 0.87149 0.0
O438 O 0.63341 0.39079 0.8276 0.0
O439 O 0.5889 0.31501 0.82576 0.0
O440 O 0.66337 0.38156 0.8605 0.0
O441 O 0.62379 0.29288 0.8716 0.0
O442 O 0.58206 0.35856 0.81453 0.0
O443 O 0.62773 0.33185 0.92426 0.0
O444 O 0.60731 0.41379 0.87853 0.0
O445 O 0.54821 0.33666 0.86688 0.0
Sc446 Sc 0.86936 0.35973 0.14443 0.0
Sc447 Sc 0.82799 0.41397 0.16119 0.0
Sc448 Sc 0.82231 0.38278 0.09622 0.0
O449 O 0.83997 0.38565 0.13366 0.0
C450 C 0.88598 0.37725 0.08442 0.0
C451 C 0.89052 0.41633 0.1708 0.0
C452 C 0.82139 0.44697 0.10595 0.0
C453 C 0.8362 0.36204 0.19864 0.0
C454 C 0.83315 0.32002 0.10715 0.0
C455 C 0.77284 0.38835 0.13767 0.0
O456 O 0.89197 0.36971 0.10843 0.0
O457 O 0.86857 0.42934 0.16836 0.0
O458 O 0.82238 0.42627 0.0905 0.0
O459 O 0.84811 0.3479 0.18079 0.0
O460 O 0.82028 0.33889 0.09547 0.0
O461 O 0.78732 0.39963 0.15613 0.0
O462 O 0.85118 0.3246 0.12513 0.0
O463 O 0.831 0.38705 0.19546 0.0
O464 O 0.78161 0.38248 0.11395 0.0
O465 O 0.89248 0.39118 0.16504 0.0
O466 O 0.86176 0.38194 0.07649 0.0
O467 O 0.82233 0.44552 0.13167 0.0
Sc468 Sc 0.91012 0.6402 0.30045 0.0
Sc469 Sc 0.94895 0.6745 0.35007 0.0
Sc470 Sc 0.89537 0.63172 0.36874 0.0
O471 O 0.91824 0.64903 0.3397 0.0
C472 C 0.85037 0.64174 0.32743 0.0
C473 C 0.92157 0.70294 0.29802 0.0
C474 C 0.90781 0.6907 0.39469 0.0
C475 C 0.97518 0.64501 0.30066 0.0
C476 C 0.90097 0.58348 0.32549 0.0
C477 C 0.95277 0.62646 0.39443 0.0
O478 O 0.86629 0.63618 0.30774 0.0
O479 O 0.93937 0.70195 0.31696 0.0
O480 O 0.89813 0.66648 0.39596 0.0
O481 O 0.95251 0.64236 0.28825 0.0
O482 O 0.88972 0.59424 0.34607 0.0
O483 O 0.96079 0.64939 0.38465 0.0
O484 O 0.91426 0.5972 0.30789 0.0
O485 O 0.97707 0.65284 0.32525 0.0
O486 O 0.93052 0.61486 0.38732 0.0
O487 O 0.90637 0.6827 0.29121 0.0
O488 O 0.8593 0.64768 0.35103 0.0
O489 O 0.92368 0.69857 0.37582 0.0
Sc490 Sc 0.8489 0.81241 0.84852 0.0
Sc491 Sc 0.81046 0.87034 0.85971 0.0
Sc492 Sc 0.84443 0.86189 0.79809 0.0
O493 O 0.83396 0.84789 0.83514 0.0
C494 C 0.89971 0.83937 0.81891 0.0
C495 C 0.85709 0.85086 0.89919 0.0
C496 C 0.8479 0.91582 0.83406 0.0
C497 C 0.78791 0.81202 0.87252 0.0
C498 C 0.8366 0.79686 0.78864 0.0
C499 C 0.78381 0.87827 0.80017 0.0
O500 O 0.88859 0.81857 0.82997 0.0
O501 O 0.8343 0.86235 0.89615 0.0
O502 O 0.84853 0.90448 0.81073 0.0
O503 O 0.81129 0.80168 0.86922 0.0
O504 O 0.84249 0.82103 0.78061 0.0
O505 O 0.78484 0.88245 0.82584 0.0
O506 O 0.8341 0.79072 0.81363 0.0
O507 O 0.78308 0.83677 0.86719 0.0
O508 O 0.80287 0.86717 0.787 0.0
O509 O 0.8658 0.83297 0.88293 0.0
O510 O 0.88631 0.85839 0.80818 0.0
O511 O 0.83663 0.90484 0.85455 0.0
Sc512 Sc 0.86261 0.16857 0.63025 0.0
Sc513 Sc 0.9216 0.19075 0.665 0.0
Sc514 Sc 0.87234 0.14834 0.69779 0.0
O515 O 0.8855 0.16936 0.66445 0.0
C516 C 0.81661 0.17167 0.67597 0.0
C517 C 0.88251 0.23052 0.63231 0.0
C518 C 0.89715 0.20316 0.72358 0.0
C519 C 0.92279 0.16472 0.60617 0.0
C520 C 0.85803 0.10698 0.64928 0.0
C521 C 0.93576 0.13606 0.69694 0.0
O522 O 0.8252 0.1735 0.65169 0.0
O523 O 0.90465 0.22588 0.6448 0.0
O524 O 0.88286 0.18132 0.72513 0.0
O525 O 0.89707 0.16284 0.60458 0.0
O526 O 0.8611 0.11259 0.67439 0.0
O527 O 0.94293 0.1578 0.68457 0.0
O528 O 0.85853 0.12505 0.63082 0.0
O529 O 0.93527 0.17445 0.62675 0.0
O530 O 0.91123 0.12994 0.70264 0.0
O531 O 0.86491 0.21209 0.62653 0.0
O532 O 0.8315 0.1638 0.69556 0.0
O533 O 0.91164 0.20949 0.70308 0.0
Sc534 Sc 0.65476 0.08485 0.35558 0.0
Sc535 Sc 0.6955 0.10697 0.41136 0.0
Sc536 Sc 0.63132 0.13531 0.40048 0.0
O537 O 0.66057 0.10897 0.38909 0.0
C538 C 0.63017 0.14159 0.33597 0.0
C539 C 0.71758 0.10279 0.35036 0.0
C540 C 0.68509 0.17086 0.41151 0.0
C541 C 0.68475 0.04444 0.39619 0.0
C542 C 0.596 0.08292 0.38264 0.0
C543 C 0.65012 0.11121 0.45755 0.0
O544 O 0.63957 0.11811 0.33087 0.0
O545 O 0.72065 0.10864 0.37546 0.0
O546 O 0.65976 0.16837 0.40691 0.0
O547 O 0.66903 0.04864 0.37609 0.0
O548 O 0.59934 0.10537 0.39524 0.0
O549 O 0.67366 0.10421 0.44976 0.0
O550 O 0.61415 0.07283 0.36747 0.0
O551 O 0.69558 0.06337 0.41038 0.0
O552 O 0.63311 0.12277 0.44218 0.0
O553 O 0.69508 0.09407 0.34041 0.0
O554 O 0.62658 0.15052 0.35992 0.0
O555 O 0.70047 0.15054 0.41412 0.0
Sc556 Sc 0.60152 0.88515 0.07353 0.0
Sc557 Sc 0.53487 0.88292 0.09923 0.0
Sc558 Sc 0.58287 0.9303 0.12573 0.0
O559 O 0.57304 0.89966 0.09937 0.0
C560 C 0.63807 0.89678 0.12539 0.0
C561 C 0.57201 0.83069 0.09422 0.0
C562 C 0.54707 0.89086 0.16272 0.0
C563 C 0.5488 0.88407 0.03595 0.0
C564 C 0.61272 0.94969 0.07159 0.0
C565 C 0.52109 0.94441 0.11046 0.0
O566 O 0.63224 0.88317 0.10417 0.0
O567 O 0.54987 0.84175 0.10098 0.0
O568 O 0.56742 0.90716 0.1602 0.0
O569 O 0.57443 0.8851 0.03916 0.0
O570 O 0.59976 0.95546 0.09329 0.0
O571 O 0.51549 0.92173 0.09902 0.0
O572 O 0.61522 0.92549 0.06267 0.0
O573 O 0.53214 0.88272 0.05563 0.0
O574 O 0.54413 0.94986 0.12122 0.0
O575 O 0.59176 0.84361 0.08334 0.0
O576 O 0.62272 0.91506 0.1348 0.0
O577 O 0.53313 0.88198 0.14267 0.0
Sc578 Sc 0.36404 0.57544 0.05592 0.0
Sc579 Sc 0.41408 0.60557 0.09701 0.0
Sc580 Sc 0.402 0.53523 0.10037 0.0
O581 O 0.39344 0.572 0.0845 0.0
C582 C 0.33874 0.52978 0.09535 0.0
C583 C 0.35258 0.6258 0.09304 0.0
C584 C 0.40641 0.57446 0.15233 0.0
C585 C 0.40929 0.61789 0.03477 0.0
C586 C 0.39146 0.52208 0.03681 0.0
C587 C 0.46082 0.56109 0.09643 0.0
O588 O 0.33803 0.54429 0.07395 0.0
O589 O 0.3779 0.62973 0.09748 0.0
O590 O 0.40669 0.55086 0.14154 0.0
O591 O 0.38578 0.6067 0.03317 0.0
O592 O 0.39721 0.51516 0.06117 0.0
O593 O 0.4522 0.58516 0.09939 0.0
O594 O 0.38286 0.54558 0.03076 0.0
O595 O 0.42386 0.61691 0.05607 0.0
O596 O 0.44501 0.5405 0.09299 0.0
O597 O 0.34329 0.60539 0.07974 0.0
O598 O 0.36 0.52711 0.10971 0.0
O599 O 0.40662 0.59647 0.1388 0.0
Sc600 Sc 0.12295 0.62739 0.84149 0.0
Sc601 Sc 0.1439 0.6447 0.90797 0.0
Sc602 Sc 0.09701 0.68574 0.8732 0.0
O603 O 0.1213 0.65269 0.87421 0.0
C604 C 0.11664 0.68443 0.81134 0.0
C605 C 0.18484 0.62939 0.85954 0.0
C606 C 0.15192 0.70899 0.90063 0.0
C607 C 0.12354 0.58529 0.8915 0.0
C608 C 0.05961 0.63887 0.84656 0.0
C609 C 0.08998 0.66759 0.93508 0.0
O610 O 0.12381 0.65972 0.81203 0.0
O611 O 0.17936 0.63404 0.88442 0.0
O612 O 0.12976 0.71258 0.88761 0.0
O613 O 0.12146 0.59124 0.8664 0.0
O614 O 0.06238 0.66129 0.8595 0.0
O615 O 0.11203 0.6546 0.93663 0.0
O616 O 0.0795 0.62473 0.83866 0.0
O617 O 0.13029 0.60277 0.90956 0.0
O618 O 0.08223 0.6794 0.91362 0.0
O619 O 0.16662 0.62784 0.84118 0.0
O620 O 0.10734 0.69667 0.83202 0.0
O621 O 0.15938 0.68578 0.909 0.0
Sc622 Sc 0.14397 0.35118 0.59584 0.0
Sc623 Sc 0.0971 0.30403 0.62399 0.0
Sc624 Sc 0.10724 0.36722 0.65398 0.0
O625 O 0.11653 0.34074 0.6246 0.0
C626 C 0.1712 0.37216 0.6514 0.0
C627 C 0.15542 0.28867 0.60005 0.0
C628 C 0.11056 0.31003 0.68513 0.0
C629 C 0.09296 0.32564 0.56379 0.0
C630 C 0.11549 0.4078 0.60418 0.0
C631 C 0.04992 0.34278 0.64396 0.0
O632 O 0.17267 0.36716 0.62593 0.0
O633 O 0.13102 0.28265 0.60654 0.0
O634 O 0.1047 0.33517 0.68369 0.0
O635 O 0.1168 0.33647 0.56405 0.0
O636 O 0.10896 0.40276 0.62862 0.0
O637 O 0.05945 0.31902 0.6412 0.0
O638 O 0.12702 0.39057 0.58905 0.0
O639 O 0.08212 0.31386 0.58432 0.0
O640 O 0.06501 0.364 0.64442 0.0
O641 O 0.16425 0.31307 0.59864 0.0
O642 O 0.14902 0.3719 0.66463 0.0
O643 O 0.11171 0.29462 0.66426 0.0
Sc644 Sc 0.6134 0.65455 0.60593 0.0
Sc645 Sc 0.63863 0.58994 0.6194 0.0
Sc646 Sc 0.66018 0.62541 0.56136 0.0
O647 O 0.63719 0.62336 0.5954 0.0
C648 C 0.60683 0.65583 0.54176 0.0
C649 C 0.57597 0.60089 0.61697 0.0
C650 C 0.64697 0.56399 0.55984 0.0
C651 C 0.62952 0.63587 0.66458 0.0
C652 C 0.66792 0.68469 0.58656 0.0
C653 C 0.69982 0.59884 0.6057 0.0
O654 O 0.59767 0.65965 0.56556 0.0
O655 O 0.59509 0.58361 0.61569 0.0
O656 O 0.64534 0.58646 0.54725 0.0
O657 O 0.62657 0.65476 0.64739 0.0
O658 O 0.67684 0.66478 0.57276 0.0
O659 O 0.68189 0.59576 0.62423 0.0
O660 O 0.64505 0.68427 0.59858 0.0
O661 O 0.63176 0.6111 0.65751 0.0
O662 O 0.69422 0.60641 0.58153 0.0
O663 O 0.58012 0.62662 0.61509 0.0
O664 O 0.62925 0.64433 0.53701 0.0
O665 O 0.64679 0.5626 0.5857 0.0
Sc666 Sc 0.34127 0.37402 0.43853 0.0
Sc667 Sc 0.35939 0.42847 0.39456 0.0
Sc668 Sc 0.3964 0.36796 0.39371 0.0
O669 O 0.36581 0.39029 0.40912 0.0
C670 C 0.39942 0.35088 0.45556 0.0
C671 C 0.34962 0.43502 0.45898 0.0
C672 C 0.424 0.42765 0.39641 0.0
C673 C 0.29882 0.40612 0.40184 0.0
C674 C 0.34731 0.32441 0.39741 0.0
C675 C 0.3732 0.3959 0.34046 0.0
O676 O 0.37445 0.35531 0.46035 0.0
O677 O 0.35392 0.44417 0.43508 0.0
O678 O 0.42525 0.40179 0.39491 0.0
O679 O 0.30454 0.38909 0.42032 0.0
O680 O 0.37095 0.33174 0.38945 0.0
O681 O 0.36381 0.41691 0.35206 0.0
O682 O 0.33394 0.33778 0.41488 0.0
O683 O 0.31659 0.4211 0.39016 0.0
O684 O 0.38504 0.37708 0.35317 0.0
O685 O 0.34585 0.40976 0.46405 0.0
O686 O 0.41059 0.35606 0.43287 0.0
O687 O 0.40162 0.44013 0.39726 0.0
H688 H 0.97769 0.21371 0.29637 0.0
H689 H 0.03842 0.24628 0.35246 0.0
H690 H 0.07441 0.22251 0.3272 0.0
H691 H 0.00682 0.14835 0.28536 0.0
H692 H -0.00111 0.14735 0.24953 0.0
H693 H 0.97777 0.16618 0.27251 0.0
H694 H 0.98529 0.20993 0.24367 0.0
H695 H 0.00615 0.19114 0.22043 0.0
H696 H 0.0195 0.2217 0.23643 0.0
H697 H 0.10332 0.19307 0.29714 0.0
H698 H 0.124 0.16605 0.26002 0.0
H699 H 0.04483 0.15646 0.22178 0.0
C700 C -0.00141 0.21584 0.30323 0.0
C701 C 0.0054 0.23162 0.32633 0.0
C702 C 0.03292 0.23431 0.33466 0.0
C703 C 0.05342 0.22075 0.32061 0.0
C704 C 0.04602 0.20502 0.29807 0.0
C705 C 0.01936 0.203 0.28908 0.0
C706 C 0.017 0.18611 0.2634 0.0
C707 C -0.00094 0.16048 0.26799 0.0
C708 C 0.00637 0.20325 0.23958 0.0
C709 C 0.04647 0.17886 0.25944 0.0
C710 C 0.06285 0.18949 0.27991 0.0
C711 C 0.09075 0.18482 0.28087 0.0
C712 C 0.10228 0.1694 0.25991 0.0
C713 C 0.0859 0.1595 0.23824 0.0
C714 C 0.0577 0.16407 0.23816 0.0
H715 H 0.00218 0.76241 0.55331 0.0
H716 H 0.93872 0.72502 0.50347 0.0
H717 H 0.95959 0.74504 0.46239 0.0
H718 H 0.01059 0.82572 0.51287 0.0
H719 H 0.04697 0.82672 0.51762 0.0
H720 H 0.02527 0.81199 0.54347 0.0
H721 H 0.05221 0.76716 0.54095 0.0
H722 H 0.07381 0.78159 0.51495 0.0
H723 H 0.05552 0.74997 0.50868 0.0
H724 H 0.98944 0.76501 0.42665 0.0
H725 H 0.02575 0.78526 0.39821 0.0
H726 H 0.07007 0.81014 0.47103 0.0
C727 C 0.99233 0.759 0.53382 0.0
C728 C 0.9685 0.74259 0.5316 0.0
C729 C 0.95652 0.73815 0.50569 0.0
C730 C 0.96831 0.7493 0.48223 0.0
C731 C 0.99201 0.76504 0.48507 0.0
C732 C 0.00381 0.77011 0.51018 0.0
C733 C 0.0302 0.7863 0.50737 0.0
C734 C 0.02812 0.81435 0.52115 0.0
C735 C 0.05435 0.77029 0.51865 0.0
C736 C 0.03169 0.78896 0.47671 0.0
C737 C 0.00939 0.77662 0.46429 0.0
C738 C 0.00685 0.77505 0.43611 0.0
C739 C 0.02769 0.78644 0.42016 0.0
C740 C 0.05073 0.79929 0.43242 0.0
C741 C 0.05257 0.80072 0.46109 0.0
H742 H 0.47503 0.83055 0.75284 0.0
H743 H 0.40537 0.784 0.78295 0.0
H744 H 0.37458 0.81744 0.76254 0.0
H745 H 0.44498 0.89955 0.75993 0.0
H746 H 0.46043 0.91139 0.72873 0.0
H747 H 0.47719 0.88625 0.74922 0.0
H748 H 0.47891 0.85336 0.7078 0.0
H749 H 0.46294 0.87879 0.68738 0.0
H750 H 0.44788 0.84507 0.68967 0.0
H751 H 0.35158 0.85166 0.73427 0.0
H752 H 0.33843 0.88006 0.69517 0.0
H753 H 0.4224 0.90585 0.68442 0.0
C754 C 0.45329 0.82759 0.75544 0.0
C755 C 0.44258 0.80475 0.76956 0.0
C756 C 0.41403 0.80136 0.77221 0.0
C757 C 0.39639 0.82045 0.761 0.0
C758 C 0.40761 0.84291 0.7474 0.0
C759 C 0.43541 0.84644 0.74438 0.0
C760 C 0.44219 0.87041 0.72606 0.0
C761 C 0.45708 0.89325 0.74195 0.0
C762 C 0.45894 0.86134 0.70126 0.0
C763 C 0.41382 0.87887 0.718 0.0
C764 C 0.39414 0.86323 0.7312 0.0
C765 C 0.36666 0.86459 0.72438 0.0
C766 C 0.3593 0.88094 0.70233 0.0
C767 C 0.37936 0.89563 0.68752 0.0
C768 C 0.40664 0.89581 0.69637 0.0
H769 H 0.43468 0.26355 0.06685 0.0
H770 H 0.44586 0.20152 0.12855 0.0
H771 H 0.43074 0.16601 0.09568 0.0
H772 H 0.37545 0.23341 0.03379 0.0
H773 H 0.38655 0.24288 9e-05 0.0
H774 H 0.39669 0.2634 0.02895 0.0
H775 H 0.4473 0.25797 0.01567 0.0
H776 H 0.43734 0.2372 0.98691 0.0
H777 H 0.46077 0.22426 0.01181 0.0
H778 H 0.41381 0.13769 0.05664 0.0
H779 H 0.39755 0.11772 0.01326 0.0
H780 H 0.40083 0.19773 0.97571 0.0
C781 C 0.43349 0.24253 0.07356 0.0
C782 C 0.44101 0.23521 0.10032 0.0
C783 C 0.43997 0.20747 0.10818 0.0
C784 C 0.43146 0.18723 0.08967 0.0
C785 C 0.42455 0.1951 0.06333 0.0
C786 C 0.42562 0.22204 0.0552 0.0
C787 C 0.41827 0.2249 0.02536 0.0
C788 C 0.39272 0.24216 0.02185 0.0
C789 C 0.44236 0.23679 0.00898 0.0
C790 C 0.41264 0.19532 0.01802 0.0
C791 C 0.4162 0.17854 0.04031 0.0
C792 C 0.41116 0.15056 0.039 0.0
C793 C 0.40193 0.13945 0.01432 0.0
C794 C 0.39822 0.15621 0.99121 0.0
C795 C 0.40398 0.18445 0.99299 0.0
H796 H 0.06041 0.82193 0.15957 0.0
H797 H 0.07476 0.908 0.14427 0.0
H798 H 0.10813 0.90965 0.18201 0.0
H799 H 0.05322 0.82884 0.22535 0.0
H800 H 0.06821 0.79725 0.23576 0.0
H801 H 0.05383 0.80011 0.20241 0.0
H802 H 0.09966 0.78618 0.18095 0.0
H803 H 0.11427 0.78318 0.21451 0.0
H804 H 0.13043 0.80493 0.18952 0.0
H805 H 0.13161 0.9045 0.22626 0.0
H806 H 0.13775 0.89556 0.27501 0.0
H807 H 0.10472 0.81355 0.26397 0.0
C808 C 0.07161 0.84082 0.16324 0.0
C809 C 0.06543 0.86474 0.1487 0.0
C810 C 0.07953 0.88937 0.15492 0.0
C811 C 0.09864 0.89039 0.17622 0.0
C812 C 0.1032 0.86668 0.19117 0.0
C813 C 0.08997 0.84231 0.18492 0.0
C814 C 0.09333 0.82146 0.20736 0.0
C815 C 0.06551 0.81138 0.21836 0.0
C816 C 0.11045 0.79752 0.19749 0.0
C817 C 0.10876 0.83851 0.22816 0.0
C818 C 0.11539 0.86408 0.21792 0.0
C819 C 0.12694 0.88442 0.2343 0.0
C820 C 0.13028 0.87911 0.2621 0.0
C821 C 0.12138 0.85388 0.27346 0.0
C822 C 0.11197 0.83289 0.25591 0.0
H823 H 0.38924 0.78755 0.39725 0.0
H824 H 0.42305 0.7182 0.43935 0.0
H825 H 0.41735 0.74187 0.48325 0.0
H826 H 0.42005 0.83819 0.43518 0.0
H827 H 0.39162 0.86082 0.43648 0.0
H828 H 0.39485 0.83744 0.40844 0.0
H829 H 0.34691 0.81681 0.41818 0.0
H830 H 0.34317 0.84068 0.4458 0.0
H831 H 0.33891 0.80462 0.45189 0.0
H832 H 0.41529 0.77555 0.52089 0.0
H833 H 0.40813 0.81378 0.55232 0.0
H834 H 0.37278 0.86064 0.48662 0.0
C835 C 0.39463 0.77704 0.41581 0.0
C836 C 0.40657 0.7511 0.41501 0.0
C837 C 0.41361 0.73797 0.43959 0.0
C838 C 0.41065 0.75133 0.46458 0.0
C839 C 0.40008 0.77747 0.46455 0.0
C840 C 0.39136 0.78989 0.44096 0.0
C841 C 0.38131 0.81836 0.44658 0.0
C842 C 0.39796 0.83996 0.43073 0.0
C843 C 0.35076 0.82022 0.44025 0.0
C844 C 0.38674 0.82037 0.47685 0.0
C845 C 0.39776 0.79661 0.48669 0.0
C846 C 0.40616 0.79407 0.51359 0.0
C847 C 0.40233 0.81607 0.53118 0.0
C848 C 0.38989 0.84021 0.52189 0.0
C849 C 0.38222 0.84241 0.49428 0.0
H850 H 0.41255 0.19207 0.70658 0.0
H851 H 0.43468 0.11457 0.67122 0.0
H852 H 0.41612 0.09064 0.71175 0.0
H853 H 0.43426 0.17627 0.77213 0.0
H854 H 0.40804 0.19471 0.78944 0.0
H855 H 0.41885 0.20516 0.75604 0.0
H856 H 0.36909 0.20087 0.73873 0.0
H857 H 0.35812 0.1903 0.77215 0.0
H858 H 0.35049 0.16912 0.74299 0.0
H859 H 0.39764 0.07567 0.75694 0.0
H860 H 0.38618 0.07056 0.80535 0.0
H861 H 0.37931 0.15847 0.81276 0.0
C862 C 0.41282 0.17 0.70708 0.0
C863 C 0.42451 0.15502 0.68562 0.0
C864 C 0.42553 0.12629 0.68738 0.0
C865 C 0.41491 0.11259 0.71021 0.0
C866 C 0.40373 0.12801 0.73117 0.0
C867 C 0.40294 0.15612 0.72995 0.0
C868 C 0.39302 0.16816 0.75649 0.0
C869 C 0.41485 0.18718 0.76927 0.0
C870 C 0.36607 0.18298 0.75233 0.0
C871 C 0.38885 0.14245 0.77311 0.0
C872 C 0.39451 0.11951 0.75788 0.0
C873 C 0.39304 0.09347 0.76901 0.0
C874 C 0.38644 0.09083 0.79662 0.0
C875 C 0.38188 0.11415 0.81306 0.0
C876 C 0.38251 0.14023 0.80083 0.0
H877 H 0.03232 0.17433 0.97407 0.0
H878 H 0.10721 0.19586 0.93245 0.0
H879 H 0.13221 0.16402 0.96148 0.0
H880 H 0.05614 0.1804 0.03443 0.0
H881 H 0.03809 0.15278 0.0511 0.0
H882 H 0.0242 0.16752 0.02097 0.0
H883 H 0.02243 0.12015 -0.00242 0.0
H884 H 0.0362 0.10506 0.02799 0.0
H885 H 0.05278 0.10019 -0.00431 0.0
H886 H 0.15076 0.14227 0.00182 0.0
H887 H 0.16121 0.13381 0.05 0.0
H888 H 0.07484 0.12676 0.06741 0.0
C889 C 0.05367 0.17101 0.97014 0.0
C890 C 0.06788 0.18715 0.95101 0.0
C891 C 0.09601 0.1834 0.94696 0.0
C892 C 0.11032 0.1652 0.96324 0.0
C893 C 0.09618 0.15095 0.98346 0.0
C894 C 0.06831 0.15336 0.98676 0.0
C895 C 0.05895 0.14094 0.01344 0.0
C896 C 0.04349 0.16166 0.03099 0.0
C897 C 0.04157 0.11504 0.00836 0.0
C898 C 0.08615 0.13398 0.02584 0.0
C899 C 0.10724 0.13869 0.00776 0.0
C900 C 0.13441 0.13769 0.01591 0.0
C901 C 0.14017 0.13302 0.04343 0.0
C902 C 0.11882 0.12987 0.06253 0.0
C903 C 0.0916 0.12894 0.05326 0.0
H904 H 0.28771 0.08164 0.31014 0.0
H905 H 0.35439 0.11594 0.26345 0.0
H906 H 0.32294 0.1478 0.24132 0.0
H907 H 0.24483 0.07443 0.26354 0.0
H908 H 0.2139 0.08407 0.2804 0.0
H909 H 0.24194 0.07246 0.30012 0.0
H910 H 0.24273 0.11716 0.32848 0.0
H911 H 0.2138 0.12852 0.30922 0.0
H912 H 0.24416 0.14961 0.31131 0.0
H913 H 0.28379 0.16289 0.21405 0.0
H914 H 0.2416 0.16234 0.1869 0.0
H915 H 0.19952 0.12004 0.25241 0.0
C916 C 0.29576 0.09714 0.29651 0.0
C917 C 0.32321 0.0968 0.28857 0.0
C918 C 0.33341 0.11648 0.27012 0.0
C919 C 0.31564 0.13461 0.25747 0.0
C920 C 0.28803 0.13312 0.26417 0.0
C921 C 0.27828 0.11548 0.28408 0.0
C922 C 0.24749 0.11416 0.28428 0.0
C923 C 0.23645 0.08455 0.28189 0.0
C924 C 0.2364 0.1282 0.30984 0.0
C925 C 0.24154 0.13067 0.25906 0.0
C926 C 0.26502 0.1424 0.24836 0.0
C927 C 0.26516 0.1547 0.22275 0.0
C928 C 0.24108 0.15411 0.20734 0.0
C929 C 0.21724 0.141 0.21747 0.0
C930 C 0.2173 0.13044 0.24419 0.0
H931 H 0.20311 0.02769 0.436 0.0
H932 H 0.13905 0.08124 0.40946 0.0
H933 H 0.10576 0.0428 0.41255 0.0
H934 H 0.18129 0.97016 0.39845 0.0
H935 H 0.1911 0.94626 0.42433 0.0
H936 H 0.2086 0.97863 0.42172 0.0
H937 H 0.19734 0.9879 0.47257 0.0
H938 H 0.17908 0.95573 0.47475 0.0
H939 H 0.16237 0.98689 0.48363 0.0
H940 H 0.08062 -0.00248 0.41454 0.0
H941 H 0.06683 0.94888 0.41125 0.0
H942 H 0.14714 0.92594 0.43859 0.0
C943 C 0.18204 0.03145 0.43103 0.0
C944 C 0.17362 0.05745 0.42253 0.0
C945 C 0.14592 0.06145 0.416 0.0
C946 C 0.12685 0.03981 0.41793 0.0
C947 C 0.13584 0.01445 0.42662 0.0
C948 C 0.16284 0.0102 0.43291 0.0
C949 C 0.16781 0.98067 0.43975 0.0
C950 C 0.18839 0.96823 0.41986 0.0
C951 C 0.1772 0.97764 0.46945 0.0
C952 C 0.1395 0.96872 0.43566 0.0
C953 C 0.12123 0.98855 0.42839 0.0
C954 C 0.09458 0.9819 0.42073 0.0
C955 C 0.08686 0.95424 0.41909 0.0
C956 C 0.10574 0.93363 0.4251 0.0
C957 C 0.13193 0.94115 0.43475 0.0
H958 H 0.21185 0.92326 0.72934 0.0
H959 H 0.14669 0.95645 0.68074 0.0
H960 H 0.17859 0.96265 0.642 0.0
H961 H 0.26293 0.97019 0.70636 0.0
H962 H 0.28965 0.94555 0.70723 0.0
H963 H 0.26122 0.94222 0.73012 0.0
H964 H 0.25121 0.8932 0.71221 0.0
H965 H 0.27982 0.89633 0.68953 0.0
H966 H 0.24656 0.88767 0.67619 0.0
H967 H 0.2182 0.96301 0.60796 0.0
H968 H 0.26233 0.96075 0.58339 0.0
H969 H 0.30084 0.9319 0.65715 0.0
C970 C 0.2042 0.93149 0.71042 0.0
C971 C 0.17685 0.93899 0.70772 0.0
C972 C 0.16766 0.95042 0.68298 0.0
C973 C 0.18558 0.95399 0.66096 0.0
C974 C 0.2126 0.94654 0.66439 0.0
C975 C 0.22185 0.93581 0.68866 0.0
C976 C 0.25197 0.93067 0.68791 0.0
C977 C 0.26734 0.94821 0.70916 0.0
C978 C 0.25771 0.90016 0.69167 0.0
C979 C 0.25829 0.93997 0.65934 0.0
C980 C 0.2354 0.94873 0.64581 0.0
C981 C 0.23634 0.95662 0.61851 0.0
C982 C 0.26136 0.95533 0.60474 0.0
C983 C 0.28496 0.94685 0.61864 0.0
C984 C 0.28328 0.93933 0.64626 0.0
H985 H 0.34924 0.89908 -0.00489 0.0
H986 H 0.35369 0.92616 0.07889 0.0
H987 H 0.37943 0.96753 0.06454 0.0
H988 H 0.4191 0.93259 0.97342 0.0
H989 H 0.40501 0.93991 0.94038 0.0
H990 H 0.39474 0.90923 0.95813 0.0
H991 H 0.3443 0.92295 0.95362 0.0
H992 H 0.35428 0.95357 0.93627 0.0
H993 H 0.33393 0.95553 0.96669 0.0
H994 H 0.38983 0.01067 0.04009 0.0
H995 H 0.38917 0.04955 0.00818 0.0
H996 H 0.38261 0.99333 0.94028 0.0
C997 C 0.35685 0.91319 0.01045 0.0
C998 C 0.34965 0.90979 0.03794 0.0
C999 C 0.35939 0.92851 0.05771 0.0
C1000 C 0.37404 0.95198 0.04972 0.0
C1001 C 0.37948 0.95571 0.02206 0.0
C1002 C 0.37203 0.93627 0.00281 0.0
C1003 C 0.37693 0.9465 0.97418 0.0
C1004 C 0.40035 0.93115 0.96074 0.0
C1005 C 0.35081 0.94455 0.95672 0.0
C1006 C 0.3852 0.97574 0.98017 0.0
C1007 C 0.38723 0.98056 0.0079 0.0
C1008 C 0.38952 0.00699 0.01835 0.0
C1009 C 0.38891 0.02897 0.00013 0.0
C1010 C 0.38623 0.02429 0.97182 0.0
C1011 C 0.38559 -0.00263 0.96177 0.0
H1012 H 0.28338 0.97137 0.30701 0.0
H1013 H 0.33001 0.96651 0.38173 0.0
H1014 H 0.29269 0.93904 0.40287 0.0
H1015 H 0.21838 0.97954 0.34014 0.0
H1016 H 0.20004 0.96038 0.31442 0.0
H1017 H 0.2307 0.97902 0.30559 0.0
H1018 H 0.25122 0.93461 0.28633 0.0
H1019 H 0.2207 0.91585 0.29532 0.0
H1020 H 0.25321 0.90497 0.30786 0.0
H1021 H 0.25102 0.90953 0.41421 0.0
H1022 H 0.20628 0.88546 0.41706 0.0
H1023 H 0.18634 0.91351 0.33587 0.0
C1024 C 0.28572 0.9644 0.32779 0.0
C1025 C 0.30943 0.97069 0.34282 0.0
C1026 C 0.31178 0.96182 0.37008 0.0
C1027 C 0.29082 0.94615 0.38211 0.0
C1028 C 0.26764 0.94011 0.36662 0.0
C1029 C 0.26483 0.9494 0.34021 0.0
C1030 C 0.23753 0.94128 0.32823 0.0
C1031 C 0.22067 0.96656 0.32172 0.0
C1032 C 0.24088 0.92309 0.30295 0.0
C1033 C 0.22556 0.92542 0.35178 0.0
C1034 C 0.24327 0.92468 0.37367 0.0
C1035 C 0.2369 0.91022 0.39731 0.0
C1036 C 0.2116 0.89649 0.39867 0.0
C1037 C 0.19296 0.89785 0.37673 0.0
C1038 C 0.20013 0.91244 0.35305 0.0
H1039 H 0.29428 0.0452 0.43588 0.0
H1040 H 0.32704 0.11628 0.47816 0.0
H1041 H 0.36083 0.08758 0.50086 0.0
H1042 H 0.29275 0.00434 0.48885 0.0
H1043 H 0.30205 0.9732 0.472 0.0
H1044 H 0.28647 -0.0002 0.45291 0.0
H1045 H 0.32722 0.00125 0.41947 0.0
H1046 H 0.34259 0.97399 0.4383 0.0
H1047 H 0.36135 0.00539 0.43248 0.0
H1048 H 0.38282 0.05118 0.52648 0.0
H1049 H 0.39008 0.01009 0.55403 0.0
H1050 H 0.34324 0.96192 0.4957 0.0
C1051 C 0.30934 0.05485 0.44904 0.0
C1052 C 0.30822 0.08289 0.45521 0.0
C1053 C 0.32767 0.0948 0.47311 0.0
C1054 C 0.34708 0.07868 0.48591 0.0
C1055 C 0.34687 0.05078 0.48043 0.0
C1056 C 0.32863 0.03896 0.4622 0.0
C1057 C 0.32935 0.00814 0.4634 0.0
C1058 C 0.30099 -0.00432 0.46969 0.0
C1059 C 0.34084 -0.0035 0.43684 0.0
C1060 C 0.34901 0.00451 0.48682 0.0
C1061 C 0.35965 0.02932 0.49568 0.0
C1062 C 0.37527 0.03157 0.51931 0.0
C1063 C 0.37915 0.00812 0.53493 0.0
C1064 C 0.36722 0.98282 0.52699 0.0
C1065 C 0.35307 0.98086 0.50199 0.0
H1066 H 0.19827 0.00377 0.80395 0.0
H1067 H 0.1638 0.96315 0.87457 0.0
H1068 H 0.20074 0.98271 0.90335 0.0
H1069 H 0.26652 0.98984 0.82071 0.0
H1070 H 0.28048 0.02158 0.80797 0.0
H1071 H 0.24963 0.00741 0.79347 0.0
H1072 H 0.2245 0.05218 0.80386 0.0
H1073 H 0.25538 0.06664 0.81808 0.0
H1074 H 0.22467 0.06553 0.83809 0.0
H1075 H 0.24143 0.00584 0.924 0.0
H1076 H 0.28486 0.02946 0.93528 0.0
H1077 H 0.29564 0.05133 0.85039 0.0
C1078 C 0.1982 -0.00031 0.82563 0.0
C1079 C 0.17802 0.98261 0.83738 0.0
C1080 C 0.17897 0.97662 0.86549 0.0
C1081 C 0.19983 0.98757 0.88189 0.0
C1082 C 0.2198 0.00393 0.86963 0.0
C1083 C 0.21932 0.00985 0.84213 0.0
C1084 C 0.24447 0.02608 0.83368 0.0
C1085 C 0.26126 0.01027 0.81272 0.0
C1086 C 0.23679 0.05429 0.82279 0.0
C1087 C 0.25917 0.02835 0.86073 0.0
C1088 C 0.24435 0.01574 0.88123 0.0
C1089 C 0.25328 0.01568 0.90813 0.0
C1090 C 0.27791 0.0291 0.91432 0.0
C1091 C 0.29354 0.0419 0.89363 0.0
C1092 C 0.28419 0.0413 0.86646 0.0
H1093 H 0.24286 0.92707 0.13219 0.0
H1094 H 0.21139 0.92643 0.04945 0.0
H1095 H 0.18873 0.96976 0.05801 0.0
H1096 H 0.18113 0.95769 0.16313 0.0
H1097 H 0.20094 0.97747 0.18728 0.0
H1098 H 0.21304 0.94506 0.17553 0.0
H1099 H 0.25817 0.9685 0.16026 0.0
H1100 H 0.2461 0.00101 0.17159 0.0
H1101 H 0.25716 -0.00322 0.13689 0.0
H1102 H 0.1752 0.01541 0.07265 0.0
H1103 H 0.16518 0.05894 0.09533 0.0
H1104 H 0.20147 0.02959 0.17006 0.0
C1105 C 0.2307 0.93579 0.11612 0.0
C1106 C 0.22895 0.92341 0.09014 0.0
C1107 C 0.21298 0.93547 0.06953 0.0
C1108 C 0.20006 0.96014 0.07415 0.0
C1109 C 0.20285 0.97225 0.09963 0.0
C1110 C 0.21719 0.96029 0.12053 0.0
C1111 C 0.21723 0.97812 0.14582 0.0
C1112 C 0.20218 0.96372 0.16933 0.0
C1113 C 0.2464 0.9866 0.15411 0.0
C1114 C 0.20148 0.00228 0.13545 0.0
C1115 C 0.1936 -0.00159 0.10867 0.0
C1116 C 0.18071 0.01852 0.09378 0.0
C1117 C 0.17535 0.0432 0.10672 0.0
C1118 C 0.1825 0.04736 0.13434 0.0
C1119 C 0.19557 0.02662 0.14899 0.0
H1120 H 0.22789 0.31416 0.0829 0.0
H1121 H 0.15346 0.3427 0.04593 0.0
H1122 H 0.12662 0.3136 0.07734 0.0
H1123 H 0.20997 0.2489 0.08389 0.0
H1124 H 0.22592 0.2401 0.11568 0.0
H1125 H 0.23877 0.26856 0.09644 0.0
H1126 H 0.23257 0.30031 0.13812 0.0
H1127 H 0.21976 0.27175 0.15767 0.0
H1128 H 0.19982 0.30203 0.15441 0.0
H1129 H 0.10864 0.27502 0.10551 0.0
H1130 H 0.1014 0.22946 0.12565 0.0
H1131 H 0.18776 0.22531 0.14326 0.0
C1132 C 0.20592 0.31515 0.08206 0.0
C1133 C 0.19279 0.33078 0.062 0.0
C1134 C 0.16399 0.331 0.06123 0.0
C1135 C 0.14857 0.31465 0.07911 0.0
C1136 C 0.16225 0.29842 0.09778 0.0
C1137 C 0.19034 0.29876 0.0995 0.0
C1138 C 0.20042 0.27633 0.11782 0.0
C1139 C 0.21988 0.25737 0.10253 0.0
C1140 C 0.21394 0.28833 0.14354 0.0
C1141 C 0.17377 0.26204 0.12457 0.0
C1142 C 0.15188 0.27559 0.11366 0.0
C1143 C 0.12554 0.26458 0.1147 0.0
C1144 C 0.12163 0.23864 0.1262 0.0
C1145 C 0.14406 0.22378 0.13597 0.0
C1146 C 0.1702 0.23623 0.13613 0.0
H1147 H 0.71008 0.16387 0.92996 0.0
H1148 H 0.78524 0.18466 0.88794 0.0
H1149 H 0.76165 0.22056 0.86249 0.0
H1150 H 0.66356 0.17815 0.87108 0.0
H1151 H 0.63801 0.19171 0.89333 0.0
H1152 H 0.6598 0.16504 0.90517 0.0
H1153 H 0.67455 0.19515 0.94628 0.0
H1154 H 0.6529 0.22181 0.9346 0.0
H1155 H 0.68861 0.22883 0.94021 0.0
H1156 H 0.73239 0.25896 0.84811 0.0
H1157 H 0.69869 0.29553 0.84405 0.0
H1158 H 0.64181 0.24797 0.89289 0.0
C1159 C 0.7214 0.17557 0.91494 0.0
C1160 C 0.74944 0.17157 0.91091 0.0
C1161 C 0.76367 0.18735 0.89124 0.0
C1162 C 0.75045 0.20772 0.87663 0.0
C1163 C 0.7229 0.21162 0.88155 0.0
C1164 C 0.70842 0.1957 0.89993 0.0
C1165 C 0.67957 0.20538 0.90304 0.0
C1166 C 0.65902 0.18378 0.89252 0.0
C1167 C 0.67358 0.21327 0.93278 0.0
C1168 C 0.68051 0.23009 0.88467 0.0
C1169 C 0.7056 0.23322 0.87224 0.0
C1170 C 0.7124 0.25634 0.85704 0.0
C1171 C 0.69323 0.27702 0.85491 0.0
C1172 C 0.66758 0.27423 0.86774 0.0
C1173 C 0.66095 0.25016 0.88214 0.0
H1174 H 0.04981 0.43493 0.18807 0.0
H1175 H 0.03436 0.48596 0.25839 0.0
H1176 H 0.9849 0.48245 0.24924 0.0
H1177 H -0.00347 0.46005 0.14481 0.0
H1178 H 0.9882 0.4269 0.13083 0.0
H1179 H 0.02239 0.43463 0.14214 0.0
H1180 H 0.02074 0.39271 0.1743 0.0
H1181 H 0.98672 0.38473 0.16283 0.0
H1182 H 0.99348 0.38932 0.19864 0.0
H1183 H 0.93696 0.47355 0.2318 0.0
H1184 H 0.89437 0.45513 0.21093 0.0
H1185 H 0.94202 0.40844 0.15385 0.0
C1186 C 0.03601 0.44542 0.20149 0.0
C1187 C 0.04578 0.46079 0.22383 0.0
C1188 C 0.02717 0.47398 0.24119 0.0
C1189 C -0.00089 0.4723 0.23603 0.0
C1190 C 0.99013 0.45715 0.21362 0.0
C1191 C 0.00803 0.44363 0.19688 0.0
C1192 C 0.99322 0.42735 0.17515 0.0
C1193 C 0.00052 0.43788 0.14654 0.0
C1194 C -0.00113 0.39672 0.17791 0.0
C1195 C 0.96417 0.43363 0.18238 0.0
C1196 C 0.96271 0.45123 0.2043 0.0
C1197 C 0.93784 0.45975 0.21463 0.0
C1198 C 0.91383 0.44937 0.20261 0.0
C1199 C 0.91513 0.4304 0.18096 0.0
C1200 C 0.94058 0.42287 0.17051 0.0
H1201 H 0.887 0.83418 0.46812 0.0
H1202 H 0.8806 0.78943 0.54406 0.0
H1203 H 0.89003 0.74667 0.51975 0.0
H1204 H 0.85616 0.78712 0.42559 0.0
H1205 H 0.87901 0.79123 0.39716 0.0
H1206 H 0.87435 0.819 0.42057 0.0
H1207 H 0.92617 0.82174 0.42973 0.0
H1208 H 0.93131 0.79409 0.4062 0.0
H1209 H 0.94366 0.79174 0.44067 0.0
H1210 H 0.89197 0.70834 0.48641 0.0
H1211 H 0.89733 0.67718 0.44741 0.0
H1212 H 0.90704 0.74669 0.39342 0.0
C1213 C 0.88838 0.81547 0.47967 0.0
C1214 C 0.88304 0.81505 0.50792 0.0
C1215 C 0.88489 0.79023 0.52245 0.0
C1216 C 0.89 0.76579 0.50879 0.0
C1217 C 0.89402 0.76669 0.48076 0.0
C1218 C 0.89435 0.79096 0.46648 0.0
C1219 C 0.89945 0.78612 0.43645 0.0
C1220 C 0.87583 0.79648 0.41893 0.0
C1221 C 0.92677 0.79919 0.42775 0.0
C1222 C 0.90058 0.75528 0.43595 0.0
C1223 C 0.89711 0.74451 0.46171 0.0
C1224 C 0.89536 0.7165 0.46621 0.0
C1225 C 0.89812 0.69899 0.44391 0.0
C1226 C 0.90268 0.70955 0.41746 0.0
C1227 C 0.90386 0.73808 0.41348 0.0
H1228 H 0.93121 0.02278 0.16093 0.0
H1229 H 0.96515 0.942 0.15508 0.0
H1230 H 0.01124 0.96257 0.15073 0.0
H1231 H 0.98045 0.05657 0.11275 0.0
H1232 H 0.98098 0.08755 0.13255 0.0
H1233 H 0.9506 0.06637 0.13136 0.0
H1234 H 0.95069 0.06391 0.18407 0.0
H1235 H 0.98126 0.0846 0.18546 0.0
H1236 H 0.98033 0.05156 0.20147 0.0
H1237 H 0.05386 0.99177 0.15539 0.0
H1238 H 0.08939 0.02779 0.16181 0.0
H1239 H 0.02714 0.08924 0.16169 0.0
C1240 C 0.94826 0.00946 0.15793 0.0
C1241 C 0.94469 0.98086 0.15834 0.0
C1242 C 0.96745 0.96401 0.15454 0.0
C1243 C 0.99371 0.9755 0.15219 0.0
C1244 C -0.00334 0.00381 0.15305 0.0
C1245 C 0.97446 0.02058 0.15509 0.0
C1246 C 0.98312 0.05028 0.15688 0.0
C1247 C 0.9732 0.06612 0.13189 0.0
C1248 C 0.97327 0.06333 0.18356 0.0
C1249 C 0.01368 0.04756 0.15667 0.0
C1250 C 0.02116 0.02062 0.1545 0.0
C1251 C 0.04828 0.01298 0.1564 0.0
C1252 C 0.06826 0.03349 0.16029 0.0
C1253 C 0.06091 0.0612 0.16193 0.0
C1254 C 0.03331 0.06823 0.15994 0.0
H1255 H 0.24826 0.71997 0.53637 0.0
H1256 H 0.24181 0.69116 0.61947 0.0
H1257 H 0.25621 0.737 0.63628 0.0
H1258 H 0.30595 0.75822 0.54303 0.0
H1259 H 0.29602 0.78577 0.52114 0.0
H1260 H 0.28142 0.75228 0.51621 0.0
H1261 H 0.23299 0.77161 0.521 0.0
H1262 H 0.24744 0.80535 0.52587 0.0
H1263 H 0.22442 0.79108 0.55084 0.0
H1264 H 0.28046 0.78217 0.64276 0.0
H1265 H 0.30795 0.82492 0.63877 0.0
H1266 H 0.29348 0.82575 0.55182 0.0
C1267 C 0.24929 0.7236 0.55812 0.0
C1268 C 0.2442 0.70237 0.57677 0.0
C1269 C 0.2456 0.70748 0.60504 0.0
C1270 C 0.25369 0.73336 0.61468 0.0
C1271 C 0.25932 0.75383 0.59567 0.0
C1272 C 0.25653 0.74938 0.56798 0.0
C1273 C 0.26537 0.77406 0.55165 0.0
C1274 C 0.28856 0.76715 0.53187 0.0
C1275 C 0.2411 0.78625 0.53645 0.0
C1276 C 0.27515 0.79261 0.57436 0.0
C1277 C 0.27142 0.78067 0.59965 0.0
C1278 C 0.28256 0.79221 0.62325 0.0
C1279 C 0.29817 0.81633 0.62083 0.0
C1280 C 0.30196 0.82869 0.59512 0.0
C1281 C 0.28979 0.81709 0.57179 0.0
H1282 H 0.11238 0.56825 0.28528 0.0
H1283 H 0.10093 0.57404 0.19794 0.0
H1284 H 0.06654 0.60914 0.20493 0.0
H1285 H 0.04851 0.56687 0.30192 0.0
H1286 H 0.05002 0.58714 0.33256 0.0
H1287 H 0.07962 0.56955 0.32137 0.0
H1288 H 0.10771 0.61476 0.32055 0.0
H1289 H 0.07831 0.63259 0.33255 0.0
H1290 H 0.09524 0.64352 0.30181 0.0
H1291 H 0.02523 0.63213 0.2212 0.0
H1292 H 0.98413 0.64664 0.24571 0.0
H1293 H 0.02263 0.62726 0.32261 0.0
C1294 C 0.10372 0.57799 0.26759 0.0
C1295 C 0.10926 0.56838 0.2411 0.0
C1296 C 0.0971 0.58117 0.21843 0.0
C1297 C 0.07748 0.60114 0.22222 0.0
C1298 C 0.07072 0.60849 0.24874 0.0
C1299 C 0.08407 0.59792 0.27108 0.0
C1300 C 0.07043 0.60608 0.29742 0.0
C1301 C 0.06162 0.58091 0.31427 0.0
C1302 C 0.08903 0.62539 0.31406 0.0
C1303 C 0.04612 0.62091 0.28632 0.0
C1304 C 0.04689 0.62252 0.25823 0.0
C1305 C 0.02485 0.63189 0.24323 0.0
C1306 C 0.00148 0.63978 0.25728 0.0
C1307 C 0.00037 0.63827 0.28603 0.0
C1308 C 0.0232 0.62923 0.30066 0.0
H1309 H 0.4231 0.39845 0.777 0.0
H1310 H 0.41229 0.46811 0.83023 0.0
H1311 H 0.43798 0.44498 0.86627 0.0
H1312 H 0.42343 0.34422 0.83277 0.0
H1313 H 0.44932 0.3257 0.81505 0.0
H1314 H 0.4244 0.34441 0.79608 0.0
H1315 H 0.46304 0.37112 0.77117 0.0
H1316 H 0.48781 0.35228 0.78972 0.0
H1317 H 0.48864 0.38903 0.79101 0.0
H1318 H 0.47264 0.4201 0.89172 0.0
H1319 H 0.51532 0.39698 0.90291 0.0
H1320 H 0.50277 0.34203 0.83487 0.0
C1321 C 0.42542 0.40852 0.79652 0.0
C1322 C 0.4157 0.43509 0.80078 0.0
C1323 C 0.41956 0.44775 0.82646 0.0
C1324 C 0.43388 0.43463 0.84719 0.0
C1325 C 0.44389 0.40871 0.84206 0.0
C1326 C 0.43969 0.3957 0.81737 0.0
C1327 C 0.45601 0.36993 0.81536 0.0
C1328 C 0.43716 0.34456 0.81479 0.0
C1329 C 0.475 0.37067 0.79037 0.0
C1330 C 0.47177 0.37165 0.84184 0.0
C1331 C 0.46381 0.39371 0.85737 0.0
C1332 C 0.47842 0.40222 0.88033 0.0
C1333 C 0.50258 0.38896 0.88662 0.0
C1334 C 0.51172 0.36741 0.87008 0.0
C1335 C 0.4954 0.35767 0.84844 0.0
H1336 H 0.88895 0.74017 0.65111 0.0
H1337 H 0.90566 0.66553 0.69473 0.0
H1338 H 0.87492 0.67991 0.73167 0.0
H1339 H 0.89574 0.78133 0.70427 0.0
H1340 H 0.86968 0.80506 0.69524 0.0
H1341 H 0.88592 0.78569 0.66916 0.0
H1342 H 0.83898 0.76687 0.65288 0.0
H1343 H 0.82248 0.78635 0.67904 0.0
H1344 H 0.81653 0.75003 0.67679 0.0
H1345 H 0.85001 0.70586 0.76698 0.0
H1346 H 0.83712 0.74194 0.79899 0.0
H1347 H 0.8386 0.80078 0.73307 0.0
C1348 C 0.88534 0.72633 0.66794 0.0
C1349 C 0.89948 0.70164 0.67002 0.0
C1350 C 0.89484 0.68444 0.69268 0.0
C1351 C 0.87726 0.69238 0.71363 0.0
C1352 C 0.86448 0.71747 0.71147 0.0
C1353 C 0.86828 0.73416 0.68909 0.0
C1354 C 0.8564 0.76204 0.6936 0.0
C1355 C 0.87824 0.78484 0.69041 0.0
C1356 C 0.83215 0.76658 0.67444 0.0
C1357 C 0.84711 0.75918 0.72279 0.0
C1358 C 0.85091 0.73301 0.73238 0.0
C1359 C 0.84644 0.72625 0.75955 0.0
C1360 C 0.83913 0.74697 0.77762 0.0
C1361 C 0.83701 0.7743 0.76856 0.0
C1362 C 0.83987 0.78009 0.74057 0.0
H1363 H 0.9665 0.2315 0.47692 0.0
H1364 H 0.91765 0.16809 0.43862 0.0
H1365 H 0.9261 0.13759 0.4776 0.0
H1366 H 0.01321 0.18388 0.52096 0.0
H1367 H 0.01134 0.20793 0.54866 0.0
H1368 H 0.01203 0.21992 0.51396 0.0
H1369 H 0.9673 0.24598 0.52208 0.0
H1370 H 0.96696 0.23452 0.55655 0.0
H1371 H 0.93795 0.22751 0.5349 0.0
H1372 H 0.92615 0.12102 0.52373 0.0
H1373 H 0.91432 0.12168 0.57232 0.0
H1374 H 0.96283 0.19536 0.58344 0.0
C1375 C 0.95901 0.21058 0.47634 0.0
C1376 C 0.94203 0.20161 0.45497 0.0
C1377 C 0.93122 0.17483 0.4548 0.0
C1378 C 0.93613 0.15741 0.47677 0.0
C1379 C 0.95171 0.1673 0.49864 0.0
C1380 C 0.96326 0.19333 0.49846 0.0
C1381 C 0.97304 0.20178 0.52655 0.0
C1382 C 0.00427 0.20346 0.52758 0.0
C1383 C 0.96055 0.229 0.53553 0.0
C1384 C 0.96227 0.17794 0.54313 0.0
C1385 C 0.95135 0.1576 0.52647 0.0
C1386 C 0.93545 0.13624 0.53696 0.0
C1387 C 0.92875 0.13677 0.56458 0.0
C1388 C 0.93797 0.1585 0.58134 0.0
C1389 C 0.95643 0.17814 0.571 0.0
H1390 H 0.53694 0.19782 0.21673 0.0
H1391 H 0.57824 0.27608 0.22832 0.0
H1392 H 0.60978 0.25498 0.26082 0.0
H1393 H 0.53987 0.17622 0.28488 0.0
H1394 H 0.54593 0.14091 0.2772 0.0
H1395 H 0.52787 0.1616 0.25325 0.0
H1396 H 0.56268 0.1496 0.21576 0.0
H1397 H 0.58092 0.12889 0.23967 0.0
H1398 H 0.59845 0.156 0.22172 0.0
H1399 H 0.63353 0.22697 0.29539 0.0
H1400 H 0.64905 0.19317 0.329 0.0
H1401 H 0.59457 0.13214 0.29372 0.0
C1402 C 0.55283 0.21044 0.22585 0.0
C1403 C 0.55511 0.23863 0.21996 0.0
C1404 C 0.57611 0.25445 0.23243 0.0
C1405 C 0.59418 0.24264 0.2509 0.0
C1406 C 0.59122 0.21489 0.25645 0.0
C1407 C 0.57124 0.1989 0.24417 0.0
C1408 C 0.57188 0.16979 0.2546 0.0
C1409 C 0.54478 0.16167 0.2683 0.0
C1410 C 0.57891 0.14989 0.23156 0.0
C1411 C 0.59484 0.17213 0.27521 0.0
C1412 C 0.60574 0.19835 0.27584 0.0
C1413 C 0.6256 0.20624 0.2947 0.0
C1414 C 0.63428 0.18696 0.31367 0.0
C1415 C 0.62341 0.16004 0.31343 0.0
C1416 C 0.60377 0.15239 0.29368 0.0
H1417 H 0.53258 0.81753 0.89119 0.0
H1418 H 0.45232 0.85288 0.88828 0.0
H1419 H 0.46391 0.88142 0.928 0.0
H1420 H 0.53552 0.80951 0.95891 0.0
H1421 H 0.57108 0.81804 0.96348 0.0
H1422 H 0.55919 0.80493 0.93135 0.0
H1423 H 0.57927 0.84741 0.90666 0.0
H1424 H 0.59156 0.8606 0.9388 0.0
H1425 H 0.56993 0.88102 0.9177 0.0
H1426 H 0.47986 0.89814 0.97279 0.0
H1427 H 0.50078 0.90451 0.01818 0.0
H1428 H 0.57144 0.86015 0.99161 0.0
C1429 C 0.51781 0.832 0.89828 0.0
C1430 C 0.49155 0.83291 0.88666 0.0
C1431 C 0.47258 0.85176 0.89686 0.0
C1432 C 0.47901 0.86819 0.91936 0.0
C1433 C 0.50462 0.86586 0.93115 0.0
C1434 C 0.52393 0.8486 0.92072 0.0
C1435 C 0.54871 0.84759 0.93901 0.0
C1436 C 0.5539 0.81829 0.94876 0.0
C1437 C 0.57386 0.8599 0.92468 0.0
C1438 C 0.53957 0.86563 0.96213 0.0
C1439 C 0.51423 0.87629 0.95701 0.0
C1440 C 0.50006 0.89067 0.97674 0.0
C1441 C 0.51197 0.894 0.00248 0.0
C1442 C 0.5378 0.8831 0.00812 0.0
C1443 C 0.552 0.86933 0.9875 0.0
H1444 H 0.9539 0.23339 0.86835 0.0
H1445 H 0.96105 0.31819 0.84382 0.0
H1446 H 0.93072 0.30874 0.80484 0.0
H1447 H 0.96011 0.20589 0.80719 0.0
H1448 H 0.93582 0.17813 0.81098 0.0
H1449 H 0.95204 0.19264 0.84051 0.0
H1450 H 0.90498 0.20251 0.86167 0.0
H1451 H 0.88849 0.18776 0.83214 0.0
H1452 H 0.88064 0.22192 0.84271 0.0
H1453 H 0.91062 0.28828 0.76335 0.0
H1454 H 0.89894 0.25866 0.72413 0.0
H1455 H 0.90178 0.1876 0.77624 0.0
C1456 C 0.94828 0.25016 0.85532 0.0
C1457 C 0.95989 0.27646 0.85903 0.0
C1458 C 0.9523 0.29788 0.84145 0.0
C1459 C 0.93499 0.29273 0.81928 0.0
C1460 C 0.92494 0.26624 0.8154 0.0
C1461 C 0.93081 0.2454 0.83329 0.0
C1462 C 0.9203 0.21814 0.82279 0.0
C1463 C 0.94345 0.19752 0.8202 0.0
C1464 C 0.89723 0.20693 0.8409 0.0
C1465 C 0.90962 0.22657 0.79523 0.0
C1466 C 0.91202 0.2545 0.79155 0.0
C1467 C 0.90761 0.26656 0.76628 0.0
C1468 C 0.90117 0.24963 0.74411 0.0
C1469 C 0.899 0.22105 0.7475 0.0
C1470 C 0.90237 0.20951 0.77349 0.0
H1471 H 0.58429 0.15888 0.59214 0.0
H1472 H 0.52831 0.09021 0.58203 0.0
H1473 H 0.56049 0.06893 0.55021 0.0
H1474 H 0.59746 0.16696 0.52683 0.0
H1475 H 0.63286 0.17692 0.52967 0.0
H1476 H 0.61035 0.18245 0.55771 0.0
H1477 H 0.64162 0.15468 0.58937 0.0
H1478 H 0.66449 0.14918 0.56129 0.0
H1479 H 0.65064 0.1205 0.57996 0.0
H1480 H 0.59285 0.06033 0.51259 0.0
H1481 H 0.6209 0.06628 0.47123 0.0
H1482 H 0.65488 0.14156 0.50374 0.0
C1483 C 0.5794 0.13874 0.58426 0.0
C1484 C 0.55398 0.12599 0.58984 0.0
C1485 C 0.54781 0.10016 0.57829 0.0
C1486 C 0.56606 0.08789 0.56026 0.0
C1487 C 0.59037 0.10172 0.554 0.0
C1488 C 0.59713 0.12657 0.56582 0.0
C1489 C 0.62174 0.13968 0.55217 0.0
C1490 C 0.61518 0.16815 0.54092 0.0
C1491 C 0.64607 0.14108 0.57187 0.0
C1492 C 0.62655 0.11938 0.5295 0.0
C1493 C 0.60891 0.09709 0.53156 0.0
C1494 C 0.60731 0.0772 0.51124 0.0
C1495 C 0.62335 0.08067 0.48787 0.0
C1496 C 0.64052 0.10391 0.48492 0.0
C1497 C 0.6427 0.12309 0.50622 0.0
H1498 H 0.4474 0.80747 0.2576 0.0
H1499 H 0.51774 0.78472 0.30546 0.0
H1500 H 0.5464 0.81722 0.27927 0.0
H1501 H 0.48104 0.81154 0.19499 0.0
H1502 H 0.462 0.84009 0.18276 0.0
H1503 H 0.44696 0.81701 0.20708 0.0
H1504 H 0.43798 0.85778 0.23938 0.0
H1505 H 0.4534 0.8809 0.21517 0.0
H1506 H 0.46594 0.87985 0.24966 0.0
H1507 H 0.56793 0.85049 0.24582 0.0
H1508 H 0.5808 0.87787 0.20524 0.0
H1509 H 0.49623 0.87816 0.18 0.0
C1510 C 0.46878 0.80946 0.2628 0.0
C1511 C 0.48029 0.79358 0.28362 0.0
C1512 C 0.50844 0.79665 0.28955 0.0
C1513 C 0.52486 0.81522 0.27495 0.0
C1514 C 0.5128 0.83063 0.25458 0.0
C1515 C 0.48541 0.8278 0.24844 0.0
C1516 C 0.47772 0.84513 0.22433 0.0
C1517 C 0.46628 0.82738 0.20091 0.0
C1518 C 0.45757 0.86723 0.23265 0.0
C1519 C 0.50521 0.85751 0.21733 0.0
C1520 C 0.52516 0.84941 0.23527 0.0
C1521 C 0.55243 0.85721 0.23182 0.0
C1522 C 0.55956 0.87288 0.20887 0.0
C1523 C 0.53948 0.88005 0.18965 0.0
C1524 C 0.51196 0.87298 0.19449 0.0
H1525 H 0.92004 0.86807 0.04616 0.0
H1526 H -0.00193 0.8785 0.00595 0.0
H1527 H 0.97451 0.88449 0.96203 0.0
H1528 H 0.8917 0.82674 -0.00064 0.0
H1529 H 0.85759 0.83951 0.00066 0.0
H1530 H 0.87951 0.84306 0.02979 0.0
H1531 H 0.87292 0.89534 0.02994 0.0
H1532 H 0.85055 0.89193 0.00093 0.0
H1533 H 0.87976 0.91468 -0.00056 0.0
H1534 H 0.94415 0.88004 0.92238 0.0
H1535 H 0.90874 0.86643 0.88925 0.0
H1536 H 0.84959 0.85873 0.95428 0.0
C1537 C 0.93213 0.87272 0.02828 0.0
C1538 C 0.96088 0.87303 0.02943 0.0
C1539 C 0.97603 0.87837 0.00552 0.0
C1540 C 0.96281 0.8819 0.98052 0.0
C1541 C 0.93445 0.88021 0.97986 0.0
C1542 C 0.91921 0.87605 0.00315 0.0
C1543 C 0.88934 0.87129 -0.00359 0.0
C1544 C 0.87896 0.8435 0.00719 0.0
C1545 C 0.87213 0.89471 0.00733 0.0
C1546 C 0.89044 0.87166 0.96561 0.0
C1547 C 0.9166 0.87747 0.95658 0.0
C1548 C 0.92351 0.87611 0.92917 0.0
C1549 C 0.90334 0.86813 0.91056 0.0
C1550 C 0.87659 0.86161 0.9194 0.0
C1551 C 0.86982 0.8641 0.94713 0.0
H1552 H 0.67735 0.99273 0.76792 0.0
H1553 H 0.67765 0.96525 0.68377 0.0
H1554 H 0.7075 0.9274 0.69659 0.0
H1555 H 0.74679 0.97869 0.78221 0.0
H1556 H 0.74008 0.96794 0.81667 0.0
H1557 H 0.71841 0.99233 0.80062 0.0
H1558 H 0.67647 0.96105 0.81078 0.0
H1559 H 0.69812 0.93633 0.82645 0.0
H1560 H 0.67594 0.92628 0.79878 0.0
H1561 H 0.73802 0.89321 0.71852 0.0
H1562 H 0.76969 0.86735 0.74718 0.0
H1563 H 0.74827 0.91704 0.81692 0.0
C1564 C 0.6837 0.97885 0.75209 0.0
C1565 C 0.67514 0.98197 0.72483 0.0
C1566 C 0.68399 0.96331 0.7048 0.0
C1567 C 0.70079 0.94165 0.7119 0.0
C1568 C 0.70842 0.93894 0.73908 0.0
C1569 C 0.70032 0.95715 0.7588 0.0
C1570 C 0.71198 0.95027 0.7864 0.0
C1571 C 0.73041 0.97369 0.79709 0.0
C1572 C 0.68927 0.94305 0.8068 0.0
C1573 C 0.72823 0.92549 0.77907 0.0
C1574 C 0.72576 0.91914 0.75174 0.0
C1575 C 0.73998 0.89787 0.73999 0.0
C1576 C 0.75787 0.88328 0.75646 0.0
C1577 C 0.76138 0.89009 0.78433 0.0
C1578 C 0.74574 0.911 0.79583 0.0
H1579 H 0.85362 0.98255 0.54435 0.0
H1580 H 0.84596 0.92887 0.61421 0.0
H1581 H 0.85023 0.96845 0.64502 0.0
H1582 H 0.90207 0.0322 0.57569 0.0
H1583 H 0.88632 0.06086 0.55955 0.0
H1584 H 0.88565 0.02801 0.54305 0.0
H1585 H 0.83306 0.02977 0.53989 0.0
H1586 H 0.83353 0.06241 0.55671 0.0
H1587 H 0.8135 0.03453 0.57049 0.0
H1588 H 0.85193 0.0137 0.66814 0.0
H1589 H 0.85297 0.06201 0.68223 0.0
H1590 H 0.85843 0.08638 0.59732 0.0
C1591 C 0.85356 0.97913 0.56613 0.0
C1592 C 0.84963 0.95272 0.57695 0.0
C1593 C 0.84901 0.949 0.60555 0.0
C1594 C 0.85142 0.97132 0.62321 0.0
C1595 C 0.8544 -0.0028 0.61194 0.0
C1596 C 0.8557 0.00125 0.5841 0.0
C1597 C 0.85745 0.03134 0.57732 0.0
C1598 C 0.88448 0.03852 0.56306 0.0
C1599 C 0.83292 0.04001 0.56009 0.0
C1600 C 0.85647 0.04346 0.60566 0.0
C1601 C 0.85489 0.02342 0.62533 0.0
C1602 C 0.85335 0.02963 0.65296 0.0
C1603 C 0.85384 0.05713 0.66074 0.0
C1604 C 0.85568 0.07805 0.64092 0.0
C1605 C 0.85685 0.07096 0.61302 0.0
H1606 H 0.79856 0.04602 0.22624 0.0
H1607 H 0.86989 0.05262 0.27785 0.0
H1608 H 0.84556 0.08373 0.30853 0.0
H1609 H 0.76946 0.11681 0.24099 0.0
H1610 H 0.7354 0.1025 0.24152 0.0
H1611 H 0.76062 0.08832 0.21925 0.0
H1612 H 0.75164 0.04065 0.24044 0.0
H1613 H 0.72672 0.05462 0.26284 0.0
H1614 H 0.75503 0.03639 0.27675 0.0
H1615 H 0.81155 0.10566 0.33796 0.0
H1616 H 0.77052 0.11421 0.36503 0.0
H1617 H 0.72004 0.0911 0.29576 0.0
C1618 C 0.80943 0.05525 0.24321 0.0
C1619 C 0.83622 0.04757 0.24945 0.0
C1620 C 0.8495 0.05875 0.27257 0.0
C1621 C 0.83585 0.0765 0.29002 0.0
C1622 C 0.80889 0.08264 0.28413 0.0
C1623 C 0.7958 0.07241 0.26119 0.0
C1624 C 0.76553 0.0776 0.26219 0.0
C1625 C 0.75727 0.0975 0.23965 0.0
C1626 C 0.74878 0.05072 0.26048 0.0
C1627 C 0.76337 0.09069 0.29002 0.0
C1628 C 0.7887 0.09431 0.30191 0.0
C1629 C 0.79166 0.10348 0.32865 0.0
C1630 C 0.76815 0.1082 0.34391 0.0
C1631 C 0.74196 0.10325 0.33259 0.0
C1632 C 0.73971 0.09533 0.30497 0.0
H1633 H 0.74811 0.01162 0.00742 0.0
H1634 H 0.7081 0.08931 0.0004 0.0
H1635 H 0.66531 0.06812 0.01752 0.0
H1636 H 0.68894 0.96985 0.98568 0.0
H1637 H 0.69702 0.94259 0.00871 0.0
H1638 H 0.72386 0.96384 -0.00522 0.0
H1639 H 0.74066 0.97533 0.04363 0.0
H1640 H 0.7138 0.95429 0.05768 0.0
H1641 H 0.71727 0.98953 0.06781 0.0
H1642 H 0.62851 0.03914 0.04097 0.0
H1643 H 0.59949 0.00345 0.06304 0.0
H1644 H 0.66292 0.94462 0.05032 0.0
C1645 C 0.73023 0.02407 0.00915 0.0
C1646 C 0.73135 0.05206 0.0027 0.0
C1647 C 0.70756 0.06773 0.0051 0.0
C1648 C 0.68323 0.05592 0.0149 0.0
C1649 C 0.68293 0.02831 0.0216 0.0
C1650 C 0.70569 0.01248 0.01826 0.0
C1651 C 0.70019 0.98334 0.02688 0.0
C1652 C 0.70264 0.96375 0.00256 0.0
C1653 C 0.7191 0.97516 0.05039 0.0
C1654 C 0.67103 0.98535 0.03625 0.0
C1655 C 0.66138 0.01145 0.03333 0.0
C1656 C 0.63563 0.01848 0.04277 0.0
C1657 C 0.61934 -0.00179 0.05533 0.0
C1658 C 0.62878 0.97127 0.05777 0.0
C1659 C 0.65487 0.9649 0.04797 0.0
H1660 H 0.68143 0.1093 0.72942 0.0
H1661 H 0.64844 0.13053 0.65058 0.0
H1662 H 0.68579 0.16432 0.64426 0.0
H1663 H 0.71566 0.17888 0.74645 0.0
H1664 H 0.74442 0.16181 0.76091 0.0
H1665 H 0.71077 0.14671 0.76364 0.0
H1666 H 0.72805 0.10238 0.74133 0.0
H1667 H 0.76149 0.11727 0.73853 0.0
H1668 H 0.74444 0.10423 0.70854 0.0
H1669 H 0.73045 0.18756 0.64192 0.0
H1670 H 0.78008 0.19413 0.64093 0.0
H1671 H 0.78625 0.15557 0.72009 0.0
C1672 C 0.68139 0.12208 0.71145 0.0
C1673 C 0.66191 0.11777 0.69069 0.0
C1674 C 0.66306 0.13384 0.66685 0.0
C1675 C 0.68408 0.15323 0.66322 0.0
C1676 C 0.70382 0.15612 0.68357 0.0
C1677 C 0.70265 0.14093 0.70727 0.0
C1678 C 0.72903 0.14335 0.72319 0.0
C1679 C 0.72471 0.15861 0.75014 0.0
C1680 C 0.74147 0.11515 0.72814 0.0
C1681 C 0.746 0.16039 0.70368 0.0
C1682 C 0.73068 0.1686 0.68159 0.0
C1683 C 0.74251 0.18175 0.65935 0.0
C1684 C 0.77082 0.18527 0.65894 0.0
C1685 C 0.7871 0.17513 0.68037 0.0
C1686 C 0.77434 0.16387 0.70362 0.0
H1687 H 0.79302 0.94171 0.4483 0.0
H1688 H 0.72697 0.89809 0.48856 0.0
H1689 H 0.69362 0.92443 0.4621 0.0
H1690 H 0.76475 0.0042 0.4533 0.0
H1691 H 0.77706 0.01719 0.4212 0.0
H1692 H 0.7953 0.99095 0.43844 0.0
H1693 H 0.79157 0.96022 0.39552 0.0
H1694 H 0.77324 0.9865 0.3781 0.0
H1695 H 0.75859 0.95264 0.38093 0.0
H1696 H 0.66765 0.95965 0.4356 0.0
H1697 H 0.65201 0.00277 0.41483 0.0
H1698 H 0.73528 0.02457 0.39458 0.0
C1699 C 0.77154 0.93702 0.45083 0.0
C1700 C 0.76253 0.91761 0.47013 0.0
C1701 C 0.73426 0.91273 0.47364 0.0
C1702 C 0.7152 0.92748 0.4586 0.0
C1703 C 0.72476 0.9471 0.44024 0.0
C1704 C 0.75233 0.9519 0.43639 0.0
C1705 C 0.75753 0.97663 0.41864 0.0
C1706 C 0.77465 -0.00148 0.43382 0.0
C1707 C 0.77102 0.9685 0.3917 0.0
C1708 C 0.72867 0.9857 0.41404 0.0
C1709 C 0.70993 0.96802 0.42592 0.0
C1710 C 0.6821 0.97336 0.42581 0.0
C1711 C 0.67336 -0.00224 0.41393 0.0
C1712 C 0.69252 0.01652 0.40294 0.0
C1713 C 0.72032 0.01014 0.40249 0.0
H1714 H 0.76458 0.94905 0.21123 0.0
H1715 H 0.81419 0.90472 0.15405 0.0
H1716 H 0.77299 0.88116 0.13608 0.0
H1717 H 0.71031 0.89535 0.22213 0.0
H1718 H 0.68382 0.92025 0.2224 0.0
H1719 H 0.71739 0.92932 0.23471 0.0
H1720 H 0.71979 0.96981 0.20084 0.0
H1721 H 0.68631 0.96093 0.18858 0.0
H1722 H 0.71435 0.96343 0.16506 0.0
H1723 H 0.72693 0.86628 0.12125 0.0
H1724 H 0.67915 0.86507 0.10643 0.0
H1725 H 0.65896 0.92146 0.17133 0.0
C1726 C 0.76671 0.93379 0.1955 0.0
C1727 C 0.79233 0.92828 0.18419 0.0
C1728 C 0.79456 0.90897 0.16296 0.0
C1729 C 0.77137 0.89536 0.15286 0.0
C1730 C 0.74621 0.90155 0.16408 0.0
C1731 C 0.74369 0.92051 0.18476 0.0
C1732 C 0.71413 0.92653 0.19033 0.0
C1733 C 0.70594 0.9173 0.21911 0.0
C1734 C 0.70832 0.95697 0.18592 0.0
C1735 C 0.70051 0.90882 0.16883 0.0
C1736 C 0.71934 0.89396 0.15451 0.0
C1737 C 0.71192 0.87754 0.13249 0.0
C1738 C 0.68468 0.87704 0.12422 0.0
C1739 C 0.66527 0.89331 0.13764 0.0
C1740 C 0.67323 0.90868 0.16076 0.0
H1741 H 0.87134 0.02651 0.94098 0.0
H1742 H 0.83366 0.08138 0.8837 0.0
H1743 H 0.84435 0.05012 0.84612 0.0
H1744 H 0.924 -0.00337 0.8905 0.0
H1745 H 0.91933 0.96345 0.90572 0.0
H1746 H 0.91721 0.99374 0.92645 0.0
H1747 H 0.86932 0.97805 0.94289 0.0
H1748 H 0.87143 0.94795 0.92243 0.0
H1749 H 0.84319 0.97046 0.91802 0.0
H1750 H 0.84753 0.00867 0.81752 0.0
H1751 H 0.84153 0.9609 0.80191 0.0
H1752 H 0.87751 0.93275 0.87698 0.0
C1753 C 0.86651 0.03254 0.92036 0.0
C1754 C 0.85172 0.05636 0.91528 0.0
C1755 C 0.84507 0.06323 0.8881 0.0
C1756 C 0.85126 0.04567 0.86654 0.0
C1757 C 0.86443 0.02145 0.87239 0.0
C1758 C 0.87237 0.01506 0.89868 0.0
C1759 C 0.88164 0.98588 0.90053 0.0
C1760 C 0.91238 0.98488 0.90612 0.0
C1761 C 0.8654 0.96966 0.92221 0.0
C1762 C 0.87511 0.97614 0.87196 0.0
C1763 C 0.86626 -0.00284 0.85563 0.0
C1764 C 0.85528 0.9922 0.82975 0.0
C1765 C 0.852 0.96505 0.82094 0.0
C1766 C 0.85926 0.94344 0.83827 0.0
C1767 C 0.87226 0.94915 0.8633 0.0
H1768 H 0.73172 0.68449 0.95351 0.0
H1769 H 0.65675 0.7275 0.96726 0.0
H1770 H 0.67259 0.76395 0.93557 0.0
H1771 H 0.7749 0.73981 0.95437 0.0
H1772 H 0.7973 0.72772 0.92816 0.0
H1773 H 0.77827 0.70372 0.94855 0.0
H1774 H 0.75724 0.68196 0.90498 0.0
H1775 H 0.77641 0.70582 0.88435 0.0
H1776 H 0.73994 0.70318 0.88082 0.0
H1777 H 0.69998 0.79821 0.9071 0.0
H1778 H 0.73507 0.82618 0.8836 0.0
H1779 H 0.79105 0.75896 0.88871 0.0
C1780 C 0.71836 0.70133 0.94951 0.0
C1781 C 0.69311 0.70339 0.96281 0.0
C1782 C 0.67614 0.72562 0.95706 0.0
C1783 C 0.68498 0.74632 0.93914 0.0
C1784 C 0.71049 0.74398 0.92692 0.0
C1785 C 0.72669 0.72177 0.93164 0.0
C1786 C 0.75392 0.72459 0.9177 0.0
C1787 C 0.77746 0.72394 0.93844 0.0
C1788 C 0.75705 0.70258 0.89565 0.0
C1789 C 0.75116 0.75247 0.90527 0.0
C1790 C 0.72591 0.7633 0.91045 0.0
C1791 C 0.71961 0.78971 0.90254 0.0
C1792 C 0.73973 0.80546 0.88928 0.0
C1793 C 0.76587 0.79477 0.88426 0.0
C1794 C 0.77128 0.76774 0.89199 0.0
H1795 H 0.32899 0.77445 0.13163 0.0
H1796 H 0.25189 0.76604 0.08988 0.0
H1797 H 0.25221 0.71635 0.09716 0.0
H1798 H 0.35964 0.72955 0.10147 0.0
H1799 H 0.3794 0.71437 0.12822 0.0
H1800 H 0.36796 0.74849 0.13202 0.0
H1801 H 0.34348 0.73611 0.17699 0.0
H1802 H 0.35562 0.70177 0.17394 0.0
H1803 H 0.31976 0.70761 0.178 0.0
H1804 H 0.26906 0.6696 0.09237 0.0
H1805 H 0.29802 0.63061 0.08131 0.0
H1806 H 0.36447 0.66846 0.12673 0.0
C1807 C 0.31131 0.76218 0.12594 0.0
C1808 C 0.2904 0.77374 0.11046 0.0
C1809 C 0.2678 0.75747 0.10233 0.0
C1810 C 0.26795 0.72915 0.10626 0.0
C1811 C 0.2905 0.71777 0.11895 0.0
C1812 C 0.31136 0.73396 0.12972 0.0
C1813 C 0.33571 0.71713 0.13732 0.0
C1814 C 0.36217 0.72803 0.12392 0.0
C1815 C 0.33881 0.71555 0.16841 0.0
C1816 C 0.32685 0.68982 0.12571 0.0
C1817 C 0.30035 0.69019 0.1162 0.0
C1818 C 0.28942 0.66871 0.1007 0.0
C1819 C 0.30612 0.64672 0.09427 0.0
C1820 C 0.33359 0.64661 0.10299 0.0
C1821 C 0.34354 0.66793 0.11982 0.0
H1822 H 0.95482 0.54235 0.76862 0.0
H1823 H 0.90952 0.53614 0.84408 0.0
H1824 H 0.93931 0.57204 0.86452 0.0
H1825 H 0.01917 0.54787 0.80002 0.0
H1826 H 0.03339 0.57083 0.77494 0.0
H1827 H 0.00646 0.54729 0.76556 0.0
H1828 H 0.97785 0.58762 0.74818 0.0
H1829 H 0.00466 0.61132 0.75786 0.0
H1830 H 0.97072 0.61552 0.77084 0.0
H1831 H 0.97487 0.60802 0.87686 0.0
H1832 H 0.01738 0.63556 0.88248 0.0
H1833 H 0.04101 0.61507 0.8001 0.0
C1834 C 0.95097 0.54885 0.78932 0.0
C1835 C 0.92978 0.53681 0.80474 0.0
C1836 C 0.9257 0.54524 0.83198 0.0
C1837 C 0.94233 0.56574 0.84364 0.0
C1838 C 0.96309 0.57728 0.82784 0.0
C1839 C 0.96773 0.56878 0.80141 0.0
C1840 C 0.99308 0.58219 0.78973 0.0
C1841 C 0.01427 0.56077 0.78213 0.0
C1842 C 0.98615 0.60024 0.7652 0.0
C1843 C 0.00227 0.59923 0.81384 0.0
C1844 C 0.98436 0.59673 0.8354 0.0
C1845 C 0.98898 0.61021 0.86008 0.0
C1846 C 0.01301 0.62592 0.86305 0.0
C1847 C 0.03221 0.62737 0.84167 0.0
C1848 C 0.02648 0.61432 0.81666 0.0
H1849 H 0.18327 0.1609 0.50833 0.0
H1850 H 0.26516 0.19386 0.4981 0.0
H1851 H 0.25771 0.22588 0.53605 0.0
H1852 H 0.15292 0.22178 0.51686 0.0
H1853 H 0.12817 0.2107 0.54174 0.0
H1854 H 0.14177 0.18655 0.51815 0.0
H1855 H 0.15726 0.15632 0.55832 0.0
H1856 H 0.14364 0.1805 0.58214 0.0
H1857 H 0.17876 0.17085 0.58458 0.0
H1858 H 0.23926 0.25881 0.56931 0.0
H1859 H 0.21077 0.29131 0.59407 0.0
H1860 H 0.14053 0.23742 0.58268 0.0
C1861 C 0.19993 0.17424 0.51471 0.0
C1862 C 0.22486 0.17479 0.50048 0.0
C1863 C 0.24594 0.19304 0.50885 0.0
C1864 C 0.24195 0.21117 0.53049 0.0
C1865 C 0.21682 0.2107 0.5436 0.0
C1866 C 0.19618 0.19262 0.53611 0.0
C1867 C 0.16998 0.19869 0.55092 0.0
C1868 C 0.14687 0.20481 0.53071 0.0
C1869 C 0.16194 0.17519 0.57014 0.0
C1870 C 0.17871 0.22388 0.56679 0.0
C1871 C 0.20598 0.23007 0.56279 0.0
C1872 C 0.21804 0.25389 0.57307 0.0
C1873 C 0.20165 0.27228 0.58704 0.0
C1874 C 0.17343 0.26686 0.59042 0.0
C1875 C 0.16212 0.24188 0.58095 0.0
H1876 H 0.02942 0.93432 0.82586 0.0
H1877 H 0.07383 0.86853 0.78864 0.0
H1878 H 0.03526 0.83679 0.79769 0.0
H1879 H 0.98992 0.89151 0.87738 0.0
H1880 H 0.96002 0.91158 0.87231 0.0
H1881 H 0.99337 0.92726 0.86929 0.0
H1882 H 0.98108 0.94402 0.82081 0.0
H1883 H 0.94793 0.9283 0.82366 0.0
H1884 H 0.96971 0.91955 0.7956 0.0
H1885 H 0.98951 0.81405 0.80442 0.0
H1886 H 0.93988 0.80343 0.80604 0.0
H1887 H 0.9254 0.88492 0.83615 0.0
C1888 C 0.03141 0.91301 0.82059 0.0
C1889 C 0.05458 0.90376 0.80681 0.0
C1890 C 0.05621 0.87593 0.79938 0.0
C1891 C 0.0345 0.85773 0.80459 0.0
C1892 C 0.0114 0.86772 0.81727 0.0
C1893 C 0.00979 0.89474 0.82529 0.0
C1894 C 0.98143 0.90146 0.83468 0.0
C1895 C 0.98119 0.90835 0.86523 0.0
C1896 C 0.96935 0.92468 0.81766 0.0
C1897 C 0.96704 0.87454 0.82916 0.0
C1898 C 0.98473 0.85499 0.82001 0.0
C1899 C 0.97554 0.82904 0.81199 0.0
C1900 C 0.94745 0.82317 0.81289 0.0
C1901 C 0.9292 0.8435 0.821 0.0
C1902 C 0.93917 0.86915 0.82978 0.0
H1903 H 0.80482 0.28345 0.4173 0.0
H1904 H 0.74165 0.34409 0.41665 0.0
H1905 H 0.70675 0.30778 0.41143 0.0
H1906 H 0.7713 0.23548 0.36847 0.0
H1907 H 0.78247 0.20591 0.38678 0.0
H1908 H 0.80286 0.23687 0.38722 0.0
H1909 H 0.8018 0.23669 0.43997 0.0
H1910 H 0.7811 0.206 0.43972 0.0
H1911 H 0.76948 0.23588 0.45729 0.0
H1912 H 0.67857 0.26559 0.41027 0.0
H1913 H 0.65841 0.21928 0.4111 0.0
H1914 H 0.73946 0.18537 0.41339 0.0
C1915 C 0.7837 0.28905 0.41534 0.0
C1916 C 0.77589 0.31652 0.41729 0.0
C1917 C 0.74803 0.32312 0.41524 0.0
C1918 C 0.72806 0.30268 0.41223 0.0
C1919 C 0.73628 0.27574 0.41131 0.0
C1920 C 0.76339 0.2688 0.41257 0.0
C1921 C 0.76642 0.23812 0.41278 0.0
C1922 C 0.78166 0.22853 0.38729 0.0
C1923 C 0.78053 0.22863 0.439 0.0
C1924 C 0.73678 0.22905 0.41207 0.0
C1925 C 0.71981 0.25111 0.411 0.0
C1926 C 0.6916 0.24807 0.41084 0.0
C1927 C 0.68036 0.22166 0.41144 0.0
C1928 C 0.69731 0.19863 0.41235 0.0
C1929 C 0.72591 0.20251 0.41279 0.0
H1930 H 0.93568 0.43992 0.68989 0.0
H1931 H 0.91414 0.3779 0.74934 0.0
H1932 H 0.94091 0.34433 0.72396 0.0
H1933 H 0.94043 0.39278 0.62867 0.0
H1934 H 0.96949 0.41164 0.6158 0.0
H1935 H 0.94353 0.429 0.63463 0.0
H1936 H 0.98007 0.44766 0.66845 0.0
H1937 H 0.00594 0.43065 0.64958 0.0
H1938 H 0.00201 0.42405 0.68548 0.0
H1939 H 0.97484 0.31952 0.69645 0.0
H1940 H 0.01756 0.30773 0.67325 0.0
H1941 H 0.01846 0.38618 0.63274 0.0
C1942 C 0.936 0.41907 0.69709 0.0
C1943 C 0.92278 0.41144 0.72144 0.0
C1944 C 0.92419 0.38417 0.7307 0.0
C1945 C 0.93905 0.36486 0.71623 0.0
C1946 C 0.95234 0.37314 0.69253 0.0
C1947 C 0.95106 0.39966 0.68308 0.0
C1948 C 0.97059 0.40455 0.65975 0.0
C1949 C 0.95507 0.4098 0.63313 0.0
C1950 C 0.99085 0.42809 0.66623 0.0
C1951 C 0.98442 0.37728 0.65888 0.0
C1952 C 0.97282 0.35903 0.67711 0.0
C1953 C 0.98377 0.33341 0.68172 0.0
C1954 C 0.00799 0.32682 0.66839 0.0
C1955 C 0.02117 0.34611 0.65129 0.0
C1956 C 0.00857 0.37105 0.64558 0.0
H1957 H 0.57493 0.57303 0.20476 0.0
H1958 H 0.59584 0.49052 0.18217 0.0
H1959 H 0.56989 0.49484 0.1396 0.0
H1960 H 0.50924 0.56824 0.18629 0.0
H1961 H 0.50601 0.60237 0.17331 0.0
H1962 H 0.53144 0.59538 0.19842 0.0
H1963 H 0.56873 0.61513 0.16624 0.0
H1964 H 0.54319 0.62199 0.14088 0.0
H1965 H 0.57203 0.60155 0.1323 0.0
H1966 H 0.53425 0.50366 0.10569 0.0
H1967 H 0.4912 0.51644 0.08364 0.0
H1968 H 0.49446 0.59401 0.12621 0.0
C1969 C 0.57481 0.5563 0.19034 0.0
C1970 C 0.58736 0.53151 0.19669 0.0
C1971 C 0.58628 0.50973 0.17771 0.0
C1972 C 0.57181 0.51206 0.15332 0.0
C1973 C 0.55875 0.53641 0.14802 0.0
C1974 C 0.56031 0.55829 0.16587 0.0
C1975 C 0.54124 0.58058 0.15737 0.0
C1976 C 0.52079 0.58698 0.18019 0.0
C1977 C 0.55726 0.60633 0.14867 0.0
C1978 C 0.52742 0.56699 0.13317 0.0
C1979 C 0.53825 0.54179 0.12768 0.0
C1980 C 0.52611 0.52371 0.10911 0.0
C1981 C 0.50163 0.53109 0.0967 0.0
C1982 C 0.48966 0.55632 0.10295 0.0
C1983 C 0.50351 0.57493 0.12037 0.0
H1984 H 0.57632 0.73937 0.77137 0.0
H1985 H 0.53733 0.66978 0.81037 0.0
H1986 H 0.56724 0.63883 0.7851 0.0
H1987 H 0.57576 0.71239 0.70874 0.0
H1988 H 0.60783 0.72667 0.69731 0.0
H1989 H 0.58929 0.74342 0.7237 0.0
H1990 H 0.63134 0.74116 0.75551 0.0
H1991 H 0.65005 0.72425 0.72905 0.0
H1992 H 0.64668 0.70875 0.76216 0.0
H1993 H 0.59487 0.61538 0.75018 0.0
H1994 H 0.61406 0.60158 0.70603 0.0
H1995 H 0.63394 0.68623 0.68812 0.0
C1996 C 0.57496 0.71768 0.7754 0.0
C1997 C 0.5549 0.70691 0.79306 0.0
C1998 C 0.5528 0.67839 0.79707 0.0
C1999 C 0.56985 0.66068 0.78296 0.0
C2000 C 0.58882 0.67182 0.76485 0.0
C2001 C 0.59146 0.69972 0.76102 0.0
C2002 C 0.60976 0.7063 0.73704 0.0
C2003 C 0.59475 0.72316 0.71544 0.0
C2004 C 0.63602 0.72098 0.74652 0.0
C2005 C 0.61553 0.67781 0.72693 0.0
C2006 C 0.60414 0.65818 0.74381 0.0
C2007 C 0.60439 0.63052 0.73712 0.0
C2008 C 0.61543 0.62284 0.71198 0.0
C2009 C 0.6255 0.64283 0.69362 0.0
C2010 C 0.62662 0.67047 0.70185 0.0
H2011 H 0.50925 0.33251 0.05903 0.0
H2012 H 0.57426 0.30005 0.10845 0.0
H2013 H 0.604 0.29891 0.06761 0.0
H2014 H 0.52019 0.29 0.0029 0.0
H2015 H 0.51127 0.31528 0.97801 0.0
H2016 H 0.49656 0.31629 0.01151 0.0
H2017 H 0.51435 0.36606 0.01802 0.0
H2018 H 0.52876 0.36536 0.98436 0.0
H2019 H 0.55002 0.37386 0.01321 0.0
H2020 H 0.62615 0.30166 0.02037 0.0
H2021 H 0.63769 0.30565 0.97131 0.0
H2022 H 0.55571 0.33191 0.9542 0.0
C2023 C 0.52995 0.32575 0.06152 0.0
C2024 C 0.53972 0.31687 0.08693 0.0
C2025 C 0.5666 0.30725 0.08912 0.0
C2026 C 0.58353 0.30651 0.06609 0.0
C2027 C 0.57296 0.315 0.04116 0.0
C2028 C 0.54669 0.32425 0.03885 0.0
C2029 C 0.53918 0.33035 0.00974 0.0
C2030 C 0.5154 0.31187 -2e-05 0.0
C2031 C 0.53271 0.36071 0.00613 0.0
C2032 C 0.56537 0.3232 -0.00415 0.0
C2033 C 0.58483 0.31472 0.01419 0.0
C2034 C 0.61098 0.30805 0.00585 0.0
C2035 C 0.61734 0.31033 0.97805 0.0
C2036 C 0.5974 0.31863 0.95911 0.0
C2037 C 0.57113 0.32491 0.9682 0.0
H2038 H 0.88826 0.33893 0.34283 0.0
H2039 H 0.85814 0.25576 0.33486 0.0
H2040 H 0.8272 0.26988 0.29815 0.0
H2041 H 0.81946 0.37278 0.32022 0.0
H2042 H 0.83882 0.39943 0.30344 0.0
H2043 H 0.85121 0.38488 0.33468 0.0
H2044 H 0.89657 0.37389 0.3108 0.0
H2045 H 0.88437 0.38791 0.2796 0.0
H2046 H 0.89602 0.35329 0.28032 0.0
H2047 H 0.81411 0.28836 0.25395 0.0
H2048 H 0.81454 0.31164 0.20937 0.0
H2049 H 0.84838 0.38447 0.24725 0.0
C2050 C 0.87415 0.32408 0.33412 0.0
C2051 C 0.87555 0.29636 0.34123 0.0
C2052 C 0.85715 0.27716 0.3296 0.0
C2053 C 0.83944 0.28505 0.30884 0.0
C2054 C 0.83983 0.31232 0.30079 0.0
C2055 C 0.85599 0.33182 0.3138 0.0
C2056 C 0.85581 0.35876 0.29884 0.0
C2057 C 0.84039 0.38022 0.31527 0.0
C2058 C 0.8849 0.369 0.29197 0.0
C2059 C 0.84005 0.35034 0.27362 0.0
C2060 C 0.83036 0.32368 0.27543 0.0
C2061 C 0.82032 0.30961 0.25267 0.0
C2062 C 0.82089 0.32281 0.22742 0.0
C2063 C 0.83106 0.34983 0.22533 0.0
C2064 C 0.83962 0.36409 0.2488 0.0
H2065 H -0.00252 0.65829 0.5396 0.0
H2066 H 0.94559 0.58926 0.56049 0.0
H2067 H 0.95264 0.56987 0.51464 0.0
H2068 H 0.96567 0.67075 0.48439 0.0
H2069 H 0.99368 0.68299 0.46382 0.0
H2070 H -0.00404 0.68504 0.50007 0.0
H2071 H 0.04033 0.65743 0.49943 0.0
H2072 H 0.03837 0.65548 0.46279 0.0
H2073 H 0.04087 0.62473 0.48264 0.0
H2074 H 0.95429 0.56457 0.46515 0.0
H2075 H 0.94457 0.57628 0.41762 0.0
H2076 H 0.99068 0.65203 0.42697 0.0
C2077 C 0.98915 0.63817 0.53504 0.0
C2078 C 0.97176 0.62472 0.55371 0.0
C2079 C 0.95963 0.59937 0.54665 0.0
C2080 C 0.96361 0.58827 0.52064 0.0
C2081 C 0.97925 0.60313 0.50182 0.0
C2082 C 0.9918 0.62771 0.50876 0.0
C2083 C 0.00075 0.64352 0.4837 0.0
C2084 C 0.98824 0.6722 0.48297 0.0
C2085 C 0.03194 0.64538 0.48204 0.0
C2086 C 0.98921 0.62516 0.46156 0.0
C2087 C 0.97826 0.6013 0.47236 0.0
C2088 C 0.96328 0.58288 0.45643 0.0
C2089 C 0.95777 0.58979 0.42937 0.0
C2090 C 0.96661 0.61528 0.41867 0.0
C2091 C 0.98398 0.63228 0.43447 0.0
H2092 H 0.53488 0.22661 0.69612 0.0
H2093 H 0.50271 0.29516 0.65149 0.0
H2094 H 0.5259 0.32699 0.68327 0.0
H2095 H 0.52358 0.25336 0.75992 0.0
H2096 H 0.55373 0.24015 0.77567 0.0
H2097 H 0.53875 0.22283 0.74687 0.0
H2098 H 0.58465 0.22651 0.7211 0.0
H2099 H 0.59984 0.24382 0.74993 0.0
H2100 H 0.601 0.25944 0.71675 0.0
H2101 H 0.54798 0.35102 0.72218 0.0
H2102 H 0.56584 0.36578 0.76677 0.0
H2103 H 0.58265 0.28152 0.78703 0.0
C2104 C 0.53339 0.24833 0.69262 0.0
C2105 C 0.51724 0.25849 0.67129 0.0
C2106 C 0.51506 0.28701 0.66774 0.0
C2107 C 0.52829 0.30523 0.68555 0.0
C2108 C 0.54354 0.29456 0.70679 0.0
C2109 C 0.54617 0.26679 0.71044 0.0
C2110 C 0.5611 0.26061 0.73662 0.0
C2111 C 0.54321 0.24322 0.7559 0.0
C2112 C 0.58826 0.24678 0.73074 0.0
C2113 C 0.56562 0.28921 0.74753 0.0
C2114 C 0.55582 0.3085 0.72976 0.0
C2115 C 0.55611 0.33617 0.73612 0.0
C2116 C 0.56627 0.34433 0.76156 0.0
C2117 C 0.5757 0.32482 0.78046 0.0
C2118 C 0.57582 0.29698 0.77301 0.0
H2119 H 0.95818 0.3017 0.96625 0.0
H2120 H 0.03536 0.33202 -0.00193 0.0
H2121 H 0.01074 0.36334 0.02879 0.0
H2122 H 0.92254 0.36798 0.96935 0.0
H2123 H 0.8908 0.35137 0.97847 0.0
H2124 H 0.91474 0.33403 0.95711 0.0
H2125 H 0.91477 0.29341 0.99079 0.0
H2126 H 0.89103 0.31058 0.01225 0.0
H2127 H 0.92293 0.29956 0.02611 0.0
H2128 H 0.97733 0.38468 0.0611 0.0
H2129 H 0.93834 0.39576 0.09068 0.0
H2130 H 0.88339 0.3547 0.0343 0.0
C2131 C 0.96992 0.31521 0.97944 0.0
C2132 C -0.00143 0.31439 0.98017 0.0
C2133 C 0.01334 0.33245 -0.00261 0.0
C2134 C -0.00046 0.35031 0.01474 0.0
C2135 C 0.97112 0.35027 0.01384 0.0
C2136 C 0.95656 0.33346 -0.00374 0.0
C2137 C 0.92622 0.33593 0.00018 0.0
C2138 C 0.91279 0.34806 0.97476 0.0
C2139 C 0.913 0.30823 0.00779 0.0
C2140 C 0.92586 0.35573 0.02373 0.0
C2141 C 0.95193 0.36396 0.03127 0.0
C2142 C 0.95682 0.37915 0.05486 0.0
C2143 C 0.93462 0.38536 0.07151 0.0
C2144 C 0.90794 0.37666 0.06423 0.0
C2145 C 0.90348 0.36253 0.03962 0.0
H2146 H 0.93321 0.78258 0.15935 0.0
H2147 H 0.95427 0.85501 0.20631 0.0
H2148 H 0.94218 0.83064 0.2486 0.0
H2149 H 0.87495 0.7594 0.20386 0.0
H2150 H 0.88318 0.72406 0.19908 0.0
H2151 H 0.88993 0.74838 0.17232 0.0
H2152 H 0.94046 0.73419 0.17154 0.0
H2153 H 0.93394 0.71003 0.19831 0.0
H2154 H 0.96014 0.73594 0.20253 0.0
H2155 H 0.93525 0.79642 0.28574 0.0
H2156 H 0.93121 0.75544 0.31485 0.0
H2157 H 0.91129 0.70638 0.24376 0.0
C2158 C 0.93445 0.79355 0.17849 0.0
C2159 C 0.94459 0.82063 0.17961 0.0
C2160 C 0.94623 0.83432 0.20499 0.0
C2161 C 0.93932 0.82069 0.22913 0.0
C2162 C 0.93 0.79373 0.22742 0.0
C2163 C 0.92704 0.78046 0.20269 0.0
C2164 C 0.91853 0.75091 0.20651 0.0
C2165 C 0.88995 0.74537 0.19475 0.0
C2166 C 0.93952 0.73165 0.19399 0.0
C2167 C 0.91844 0.74927 0.23725 0.0
C2168 C 0.92497 0.77421 0.24897 0.0
C2169 C 0.92927 0.77699 0.27691 0.0
C2170 C 0.92708 0.75363 0.29324 0.0
C2171 C 0.92044 0.72795 0.28155 0.0
C2172 C 0.91552 0.72594 0.25331 0.0
H2173 H 0.52709 0.66957 0.40078 0.0
H2174 H 0.52403 0.75636 0.41794 0.0
H2175 H 0.55193 0.74989 0.45895 0.0
H2176 H 0.52133 0.64652 0.46731 0.0
H2177 H 0.54519 0.61922 0.46453 0.0
H2178 H 0.5272 0.63055 0.43481 0.0
H2179 H 0.57283 0.63969 0.40984 0.0
H2180 H 0.59102 0.62796 0.43936 0.0
H2181 H 0.59848 0.66131 0.42557 0.0
H2182 H 0.57364 0.73356 0.50108 0.0
H2183 H 0.5949 0.70896 0.53917 0.0
H2184 H 0.58797 0.63321 0.49381 0.0
C2185 C 0.53287 0.68727 0.41283 0.0
C2186 C 0.52337 0.71347 0.40619 0.0
C2187 C 0.53118 0.73613 0.42252 0.0
C2188 C 0.54695 0.73267 0.44594 0.0
C2189 C 0.5552 0.7065 0.45244 0.0
C2190 C 0.54909 0.68425 0.43608 0.0
C2191 C 0.56014 0.65827 0.44823 0.0
C2192 C 0.53708 0.63742 0.45406 0.0
C2193 C 0.58192 0.6461 0.42964 0.0
C2194 C 0.57255 0.66934 0.47438 0.0
C2195 C 0.56924 0.6972 0.47639 0.0
C2196 C 0.57692 0.71186 0.49954 0.0
C2197 C 0.58871 0.69773 0.5211 0.0
C2198 C 0.59306 0.66939 0.51916 0.0
C2199 C 0.58507 0.65498 0.49548 0.0
H2200 H 0.82215 0.56399 0.7032 0.0
H2201 H 0.85186 0.51191 0.63891 0.0
H2202 H 0.81896 0.53217 0.60677 0.0
H2203 H 0.75558 0.55242 0.68833 0.0
H2204 H 0.74391 0.5859 0.69715 0.0
H2205 H 0.77399 0.57295 0.71295 0.0
H2206 H 0.80189 0.61523 0.6966 0.0
H2207 H 0.77174 0.62855 0.68095 0.0
H2208 H 0.80205 0.62402 0.66098 0.0
H2209 H 0.77972 0.55474 0.58327 0.0
H2210 H 0.73477 0.57334 0.57165 0.0
H2211 H 0.72778 0.60594 0.65338 0.0
C2212 C 0.82255 0.55773 0.68205 0.0
C2213 C 0.83998 0.53702 0.6732 0.0
C2214 C 0.83899 0.5282 0.6458 0.0
C2215 C 0.82044 0.53964 0.62747 0.0
C2216 C 0.80283 0.55945 0.63712 0.0
C2217 C 0.80363 0.56823 0.66388 0.0
C2218 C 0.77975 0.58605 0.67057 0.0
C2219 C 0.76229 0.57357 0.69359 0.0
C2220 C 0.78945 0.61519 0.67769 0.0
C2221 C 0.76483 0.58525 0.64366 0.0
C2222 C 0.77891 0.5706 0.62435 0.0
C2223 C 0.76867 0.56643 0.59817 0.0
C2224 C 0.74317 0.57707 0.59176 0.0
C2225 C 0.72793 0.59094 0.61171 0.0
C2226 C 0.73909 0.59537 0.63782 0.0
H2227 H 0.64461 0.56925 0.92876 0.0
H2228 H 0.63617 0.55276 0.01513 0.0
H2229 H 0.61954 0.50612 0.00469 0.0
H2230 H 0.58393 0.52554 0.90658 0.0
H2231 H 0.6014 0.51523 0.87613 0.0
H2232 H 0.60782 0.54865 0.89037 0.0
H2233 H 0.65938 0.53866 0.89216 0.0
H2234 H 0.65314 0.50515 0.87843 0.0
H2235 H 0.67083 0.50914 0.91041 0.0
H2236 H 0.61376 0.45907 0.98534 0.0
H2237 H 0.61273 0.41666 0.9578 0.0
H2238 H 0.6218 0.46473 0.88424 0.0
C2239 C 0.63838 0.55611 0.94541 0.0
C2240 C 0.64169 0.56452 0.97269 0.0
C2241 C 0.63356 0.54676 0.99403 0.0
C2242 C 0.62415 0.52021 0.98832 0.0
C2243 C 0.62236 0.51208 0.96119 0.0
C2244 C 0.62851 0.52975 0.94005 0.0
C2245 C 0.62679 0.51547 0.91279 0.0
C2246 C 0.6036 0.5269 0.89545 0.0
C2247 C 0.65416 0.51721 0.89758 0.0
C2248 C 0.62028 0.48672 0.92202 0.0
C2249 C 0.61768 0.48512 0.94999 0.0
C2250 C 0.61487 0.46014 0.96336 0.0
C2251 C 0.61457 0.43621 0.94766 0.0
C2252 C 0.61679 0.43763 0.919 0.0
C2253 C 0.61934 0.4632 0.9061 0.0
H2254 H 0.68872 0.40718 0.26121 0.0
H2255 H 0.6374 0.45603 0.20944 0.0
H2256 H 0.65312 0.43121 0.16929 0.0
H2257 H 0.74324 0.41022 0.22406 0.0
H2258 H 0.75481 0.3759 0.22892 0.0
H2259 H 0.73316 0.39091 0.25373 0.0
H2260 H 0.69898 0.35028 0.24813 0.0
H2261 H 0.72063 0.33542 0.22272 0.0
H2262 H 0.68551 0.34195 0.21491 0.0
H2263 H 0.68341 0.41265 0.13499 0.0
H2264 H 0.72657 0.40373 0.11126 0.0
H2265 H 0.75666 0.36321 0.183 0.0
C2266 C 0.68004 0.4118 0.24152 0.0
C2267 C 0.66206 0.43361 0.23848 0.0
C2268 C 0.6514 0.4395 0.21234 0.0
C2269 C 0.65994 0.42524 0.18934 0.0
C2270 C 0.6788 0.40473 0.19272 0.0
C2271 C 0.68843 0.39767 0.21826 0.0
C2272 C 0.71202 0.37847 0.21601 0.0
C2273 C 0.73727 0.38958 0.23155 0.0
C2274 C 0.70378 0.34983 0.22603 0.0
C2275 C 0.71618 0.37859 0.18543 0.0
C2276 C 0.6961 0.39287 0.17218 0.0
C2277 C 0.69867 0.40045 0.14481 0.0
C2278 C 0.72317 0.39517 0.13131 0.0
C2279 C 0.74452 0.38259 0.14539 0.0
C2280 C 0.7401 0.37228 0.17183 0.0
H2281 H 0.81732 0.45843 0.37059 0.0
H2282 H 0.89382 0.42609 0.39862 0.0
H2283 H 0.91871 0.45781 0.36808 0.0
H2284 H 0.84051 0.47804 0.29848 0.0
H2285 H 0.82108 0.50878 0.29986 0.0
H2286 H 0.80891 0.47844 0.31704 0.0
H2287 H 0.80606 0.50511 0.36242 0.0
H2288 H 0.81777 0.53548 0.34559 0.0
H2289 H 0.83583 0.52322 0.37496 0.0
H2290 H 0.93524 0.49862 0.34277 0.0
H2291 H 0.94159 0.547 0.32959 0.0
H2292 H 0.8546 0.55417 0.31973 0.0
C2293 C 0.83927 0.45731 0.36946 0.0
C2294 C 0.85369 0.43977 0.38675 0.0
C2295 C 0.88242 0.43937 0.38541 0.0
C2296 C 0.89669 0.45712 0.36791 0.0
C2297 C 0.88191 0.47507 0.35188 0.0
C2298 C 0.85375 0.47523 0.3525 0.0
C2299 C 0.84276 0.49965 0.3376 0.0
C2300 C 0.82741 0.49068 0.31171 0.0
C2301 C 0.82458 0.51687 0.35626 0.0
C2302 C 0.8691 0.51446 0.33058 0.0
C2303 C 0.89151 0.49937 0.33778 0.0
C2304 C 0.91793 0.51029 0.3363 0.0
C2305 C 0.92142 0.5377 0.32868 0.0
C2306 C 0.89856 0.55378 0.32322 0.0
C2307 C 0.87231 0.54178 0.32305 0.0
H2308 H 0.80865 0.43581 0.79881 0.0
H2309 H 0.77562 0.50788 0.76101 0.0
H2310 H 0.72898 0.49175 0.7727 0.0
H2311 H 0.75734 0.38853 0.77845 0.0
H2312 H 0.75696 0.36994 0.81008 0.0
H2313 H 0.78765 0.38729 0.79912 0.0
H2314 H 0.78988 0.41434 0.84451 0.0
H2315 H 0.75947 0.39672 0.85582 0.0
H2316 H 0.76082 0.43347 0.85521 0.0
H2317 H 0.68618 0.46583 0.78555 0.0
H2318 H 0.65028 0.43591 0.80518 0.0
H2319 H 0.71199 0.38249 0.8371 0.0
C2320 C 0.79158 0.44829 0.79324 0.0
C2321 C 0.79547 0.47296 0.77898 0.0
C2322 C 0.77285 0.48897 0.77213 0.0
C2323 C 0.74639 0.47987 0.77848 0.0
C2324 C 0.74319 0.45505 0.79202 0.0
C2325 C 0.7652 0.43981 0.79987 0.0
C2326 C 0.75639 0.41432 0.81498 0.0
C2327 C 0.7651 0.3885 0.79974 0.0
C2328 C 0.76728 0.41476 0.84437 0.0
C2329 C 0.72591 0.41742 0.81418 0.0
C2330 C 0.71867 0.44081 0.80049 0.0
C2331 C 0.69159 0.44759 0.79651 0.0
C2332 C 0.67138 0.43037 0.80751 0.0
C2333 C 0.67849 0.40698 0.82261 0.0
C2334 C 0.70607 0.40032 0.8257 0.0
H2335 H 0.73511 0.57705 0.07234 0.0
H2336 H 0.78811 0.58913 0.00254 0.0
H2337 H 0.81837 0.55386 0.01968 0.0
H2338 H 0.79155 0.56086 0.12228 0.0
H2339 H 0.7705 0.53566 0.13928 0.0
H2340 H 0.75525 0.56512 0.12408 0.0
H2341 H 0.72325 0.53339 0.0958 0.0
H2342 H 0.73855 0.5039 0.11062 0.0
H2343 H 0.73775 0.50777 0.07414 0.0
H2344 H 0.83755 0.51186 0.03862 0.0
H2345 H 0.84741 0.46839 0.06181 0.0
H2346 H 0.78476 0.48477 0.12129 0.0
C2347 C 0.75357 0.57293 0.0612 0.0
C2348 C 0.75912 0.58579 0.03605 0.0
C2349 C 0.78327 0.57947 0.02179 0.0
C2350 C 0.80072 0.55951 0.0314 0.0
C2351 C 0.79408 0.54632 0.05557 0.0
C2352 C 0.77143 0.55308 0.07065 0.0
C2353 C 0.76791 0.53417 0.09482 0.0
C2354 C 0.77153 0.5499 0.12171 0.0
C2355 C 0.74023 0.51891 0.09375 0.0
C2356 C 0.79126 0.51501 0.09007 0.0
C2357 C 0.80618 0.5225 0.06738 0.0
C2358 C 0.82665 0.5062 0.05695 0.0
C2359 C 0.83201 0.48155 0.07007 0.0
C2360 C 0.8172 0.47374 0.09351 0.0
C2361 C 0.7969 0.49085 0.10386 0.0
H2362 H 0.72544 0.55071 0.27505 0.0
H2363 H 0.68628 0.56942 0.35159 0.0
H2364 H 0.72245 0.60385 0.36177 0.0
H2365 H 0.79209 0.5528 0.3027 0.0
H2366 H 0.80805 0.5665 0.27255 0.0
H2367 H 0.7773 0.54618 0.26967 0.0
H2368 H 0.75424 0.58555 0.24371 0.0
H2369 H 0.78489 0.60614 0.24673 0.0
H2370 H 0.75307 0.61892 0.25909 0.0
H2371 H 0.76353 0.63445 0.36453 0.0
H2372 H 0.80994 0.65424 0.36336 0.0
H2373 H 0.82422 0.61363 0.28618 0.0
C2374 C 0.72438 0.56246 0.29369 0.0
C2375 C 0.70306 0.55794 0.31243 0.0
C2376 C 0.7025 0.57291 0.33701 0.0
C2377 C 0.72279 0.59257 0.34282 0.0
C2378 C 0.74365 0.59664 0.32396 0.0
C2379 C 0.74488 0.58168 0.30012 0.0
C2380 C 0.77115 0.58767 0.28495 0.0
C2381 C 0.78815 0.56176 0.28232 0.0
C2382 C 0.76549 0.60033 0.25696 0.0
C2383 C 0.78454 0.60823 0.30404 0.0
C2384 C 0.76808 0.61347 0.32615 0.0
C2385 C 0.77656 0.63064 0.34725 0.0
C2386 C 0.80298 0.64185 0.34635 0.0
C2387 C 0.82082 0.63558 0.32465 0.0
C2388 C 0.81102 0.61926 0.30281 0.0
H2389 H 0.75923 0.45742 0.52198 0.0
H2390 H 0.72297 0.45209 0.44152 0.0
H2391 H 0.68522 0.4809 0.45677 0.0
H2392 H 0.69414 0.45432 0.5588 0.0
H2393 H 0.70578 0.47753 0.58502 0.0
H2394 H 0.72966 0.45588 0.56806 0.0
H2395 H 0.75914 0.49824 0.55418 0.0
H2396 H 0.73563 0.51935 0.57207 0.0
H2397 H 0.74318 0.52607 0.53677 0.0
H2398 H 0.65418 0.51414 0.47943 0.0
H2399 H 0.63147 0.54816 0.5085 0.0
H2400 H 0.68533 0.52819 0.57524 0.0
C2401 C 0.74331 0.46234 0.50764 0.0
C2402 C 0.74405 0.45277 0.48054 0.0
C2403 C 0.72273 0.45927 0.46239 0.0
C2404 C 0.70119 0.47554 0.47087 0.0
C2405 C 0.70095 0.48461 0.49775 0.0
C2406 C 0.72129 0.47802 0.51596 0.0
C2407 C 0.71627 0.49049 0.54366 0.0
C2408 C 0.71115 0.46822 0.56515 0.0
C2409 C 0.73996 0.50969 0.55212 0.0
C2410 C 0.69058 0.50607 0.53786 0.0
C2411 C 0.68199 0.50234 0.51129 0.0
C2412 C 0.66027 0.51672 0.50048 0.0
C2413 C 0.64744 0.53591 0.51709 0.0
C2414 C 0.65613 0.54016 0.54427 0.0
C2415 C 0.67753 0.52453 0.55488 0.0
H2416 H 0.77432 0.80037 0.54142 0.0
H2417 H 0.77332 0.82925 0.62492 0.0
H2418 H 0.73834 0.79413 0.63629 0.0
H2419 H 0.70271 0.78168 0.53518 0.0
H2420 H 0.70919 0.75131 0.51572 0.0
H2421 H 0.73233 0.78018 0.51366 0.0
H2422 H 0.77231 0.74939 0.52752 0.0
H2423 H 0.7493 0.72046 0.52971 0.0
H2424 H 0.77009 0.72998 0.55861 0.0
H2425 H 0.70337 0.75654 0.63826 0.0
H2426 H 0.67366 0.71575 0.63204 0.0
H2427 H 0.70081 0.7087 0.54836 0.0
C2428 C 0.76636 0.7995 0.56196 0.0
C2429 C 0.77601 0.81759 0.58227 0.0
C2430 C 0.76589 0.81553 0.60914 0.0
C2431 C 0.74604 0.79578 0.61572 0.0
C2432 C 0.73704 0.77806 0.59527 0.0
C2433 C 0.74709 0.77948 0.56903 0.0
C2434 C 0.73553 0.75671 0.55141 0.0
C2435 C 0.71895 0.76816 0.52759 0.0
C2436 C 0.75816 0.73803 0.54122 0.0
C2437 C 0.71737 0.7423 0.57184 0.0
C2438 C 0.7182 0.75522 0.59688 0.0
C2439 C 0.70263 0.74613 0.61882 0.0
C2440 C 0.68582 0.72307 0.61508 0.0
C2441 C 0.68522 0.70918 0.5898 0.0
C2442 C 0.70122 0.71887 0.56796 0.0
H2443 H 0.22908 0.69348 0.46894 0.0
H2444 H 0.1728 0.62898 0.44464 0.0
H2445 H 0.15645 0.65768 0.40668 0.0
H2446 H 0.183 0.74277 0.46448 0.0
H2447 H 0.20577 0.7697 0.45318 0.0
H2448 H 0.2188 0.7418 0.47246 0.0
H2449 H 0.25322 0.73172 0.43403 0.0
H2450 H 0.24026 0.75977 0.41452 0.0
H2451 H 0.24115 0.72613 0.39975 0.0
H2452 H 0.14189 0.69528 0.37607 0.0
H2453 H 0.12512 0.73973 0.36044 0.0
H2454 H 0.18734 0.78122 0.40855 0.0
C2455 C 0.21423 0.68507 0.45473 0.0
C2456 C 0.20273 0.6589 0.45882 0.0
C2457 C 0.18221 0.64883 0.44114 0.0
C2458 C 0.17297 0.66493 0.41954 0.0
C2459 C 0.18418 0.69114 0.41641 0.0
C2460 C 0.20419 0.70124 0.43378 0.0
C2461 C 0.20887 0.73159 0.42994 0.0
C2462 C 0.20378 0.74737 0.45658 0.0
C2463 C 0.23758 0.73765 0.41889 0.0
C2464 C 0.18742 0.73729 0.40869 0.0
C2465 C 0.17422 0.71355 0.40027 0.0
C2466 C 0.15235 0.71393 0.38217 0.0
C2467 C 0.14303 0.73926 0.37332 0.0
C2468 C 0.15507 0.76377 0.38328 0.0
C2469 C 0.17804 0.7627 0.40045 0.0
H2470 H 0.53683 0.02475 0.66359 0.0
H2471 H 0.56416 0.9602 0.71681 0.0
H2472 H 0.53809 0.92641 0.68973 0.0
H2473 H 0.47017 0.00059 0.65823 0.0
H2474 H 0.46563 0.01039 0.62317 0.0
H2475 H 0.48975 0.02868 0.64419 0.0
H2476 H 0.52766 0.01887 0.60906 0.0
H2477 H 0.50362 6e-05 0.58815 0.0
H2478 H 0.53436 0.98414 0.5995 0.0
H2479 H 0.50615 0.90031 0.66005 0.0
H2480 H 0.46582 0.88489 0.63407 0.0
H2481 H 0.45863 0.96619 0.60014 0.0
C2482 C 0.53764 0.00344 0.66923 0.0
C2483 C 0.55259 0.99507 0.69216 0.0
C2484 C 0.55281 0.96709 0.69929 0.0
C2485 C 0.53833 0.94767 0.68385 0.0
C2486 C 0.52377 0.95654 0.66133 0.0
C2487 C 0.52308 0.98379 0.65416 0.0
C2488 C 0.50324 0.98833 0.63111 0.0
C2489 C 0.48088 0.00815 0.63971 0.0
C2490 C 0.51812 -0.00155 0.60543 0.0
C2491 C 0.49206 0.95957 0.62728 0.0
C2492 C 0.50473 0.94142 0.64438 0.0
C2493 C 0.49629 0.9142 0.64626 0.0
C2494 C 0.47338 0.9056 0.63131 0.0
C2495 C 0.45893 0.92434 0.61513 0.0
C2496 C 0.4693 0.95128 0.61213 0.0
H2497 H 0.28069 0.30351 0.9222 0.0
H2498 H 0.20256 0.27416 0.95156 0.0
H2499 H 0.21277 0.22778 0.93488 0.0
H2500 H 0.28474 0.25402 0.86082 0.0
H2501 H 0.32093 0.25143 0.86592 0.0
H2502 H 0.30422 0.28303 0.8732 0.0
H2503 H 0.32411 0.28242 0.92209 0.0
H2504 H 0.34046 0.25084 0.91521 0.0
H2505 H 0.31739 0.25326 0.94356 0.0
H2506 H 0.23671 0.18382 0.927 0.0
H2507 H 0.27023 0.147 0.92454 0.0
H2508 H 0.33167 0.20559 0.89754 0.0
C2509 C 0.26526 0.28751 0.92381 0.0
C2510 C 0.24084 0.29213 0.93781 0.0
C2511 C 0.22118 0.2709 0.94036 0.0
C2512 C 0.22686 0.24455 0.93099 0.0
C2513 C 0.25193 0.24021 0.91852 0.0
C2514 C 0.27048 0.26137 0.91417 0.0
C2515 C 0.29725 0.25109 0.90361 0.0
C2516 C 0.30206 0.26044 0.87413 0.0
C2517 C 0.32117 0.25991 0.92224 0.0
C2518 C 0.29177 0.22072 0.90492 0.0
C2519 C 0.26539 0.21473 0.91306 0.0
C2520 C 0.25708 0.18818 0.91966 0.0
C2521 C 0.27631 0.16742 0.9184 0.0
C2522 C 0.30351 0.17339 0.91062 0.0
C2523 C 0.31089 0.20022 0.90292 0.0
H2524 H 0.46573 0.49628 0.67757 0.0
H2525 H 0.4156 0.56628 0.69383 0.0
H2526 H 0.44861 0.59591 0.66931 0.0
H2527 H 0.52877 0.53095 0.68933 0.0
H2528 H 0.54691 0.51276 0.66337 0.0
H2529 H 0.51815 0.4968 0.67996 0.0
H2530 H 0.49535 0.48832 0.63299 0.0
H2531 H 0.52398 0.50452 0.61626 0.0
H2532 H 0.4901 0.51668 0.61039 0.0
H2533 H 0.48705 0.61783 0.64389 0.0
H2534 H 0.53106 0.63211 0.62447 0.0
H2535 H 0.55776 0.54816 0.62679 0.0
C2536 C 0.46159 0.51781 0.67569 0.0
C2537 C 0.43804 0.52903 0.68733 0.0
C2538 C 0.43354 0.55734 0.68503 0.0
C2539 C 0.45204 0.57425 0.67097 0.0
C2540 C 0.47502 0.56253 0.65963 0.0
C2541 C 0.48008 0.53504 0.66217 0.0
C2542 C 0.50743 0.52803 0.65011 0.0
C2543 C 0.52643 0.51646 0.672 0.0
C2544 C 0.504 0.50821 0.626 0.0
C2545 C 0.51711 0.55595 0.64065 0.0
C2546 C 0.49785 0.57542 0.6459 0.0
C2547 C 0.50229 0.60278 0.63965 0.0
C2548 C 0.52743 0.61065 0.62854 0.0
C2549 C 0.54807 0.59129 0.62413 0.0
C2550 C 0.54246 0.56346 0.62972 0.0
H2551 H 0.8229 0.20488 0.99334 0.0
H2552 H 0.83097 0.14485 0.05745 0.0
H2553 H 0.83416 0.18193 0.09166 0.0
H2554 H 0.86754 0.25788 0.02233 0.0
H2555 H 0.84576 0.28483 0.01116 0.0
H2556 H 0.84699 0.25349 0.99213 0.0
H2557 H 0.7945 0.24839 -0.00315 0.0
H2558 H 0.79349 0.27932 0.01659 0.0
H2559 H 0.77946 0.24801 0.0303 0.0
H2560 H 0.83632 0.22574 0.11871 0.0
H2561 H 0.83676 0.27299 0.13661 0.0
H2562 H 0.82324 0.30364 0.05501 0.0
C2563 C 0.82597 0.19958 0.01451 0.0
C2564 C 0.82714 0.17209 0.02281 0.0
C2565 C 0.83031 0.16586 0.05075 0.0
C2566 C 0.83206 0.18674 0.07028 0.0
C2567 C 0.83017 0.21365 0.06149 0.0
C2568 C 0.82715 0.2201 0.03428 0.0
C2569 C 0.82409 0.25048 0.03029 0.0
C2570 C 0.8475 0.26236 0.01296 0.0
C2571 C 0.79623 0.25691 0.01777 0.0
C2572 C 0.826 0.26015 0.0595 0.0
C2573 C 0.82972 0.23865 0.07719 0.0
C2574 C 0.83317 0.24272 0.10509 0.0
C2575 C 0.83331 0.26954 0.11508 0.0
C2576 C 0.82953 0.2918 0.09725 0.0
C2577 C 0.82545 0.28693 0.06919 0.0
H2578 H 0.56108 0.03703 0.82179 0.0
H2579 H 0.58672 0.12034 0.80546 0.0
H2580 H 0.55774 0.13635 0.84307 0.0
H2581 H 0.4957 0.05066 0.82602 0.0
H2582 H 0.48644 0.02644 0.85216 0.0
H2583 H 0.51551 0.02052 0.83115 0.0
H2584 H 0.54598 0.01714 0.8741 0.0
H2585 H 0.51679 0.02303 0.89536 0.0
H2586 H 0.54674 0.04463 0.89852 0.0
H2587 H 0.52022 0.14414 0.87499 0.0
H2588 H 0.47418 0.14412 0.89424 0.0
H2589 H 0.46977 0.05584 0.88758 0.0
C2590 C 0.56154 0.05847 0.82715 0.0
C2591 C 0.57645 0.07748 0.81137 0.0
C2592 C 0.57567 0.10553 0.81776 0.0
C2593 C 0.55945 0.11472 0.83919 0.0
C2594 C 0.54393 0.09559 0.85373 0.0
C2595 C 0.54477 0.06798 0.84791 0.0
C2596 C 0.52206 0.05235 0.86218 0.0
C2597 C 0.50386 0.03661 0.84165 0.0
C2598 C 0.53359 0.03315 0.88383 0.0
C2599 C 0.50716 0.07567 0.87528 0.0
C2600 C 0.5208 0.10026 0.87117 0.0
C2601 C 0.50962 0.12498 0.8788 0.0
C2602 C 0.48332 0.12473 0.88968 0.0
C2603 C 0.46819 0.09995 0.89223 0.0
C2604 C 0.48086 0.07508 0.88611 0.0
H2605 H 0.92853 0.9434 0.27368 0.0
H2606 H 0.88676 0.86583 0.26041 0.0
H2607 H 0.91811 0.8439 0.29271 0.0
H2608 H 0.99115 0.91897 0.26868 0.0
H2609 H 0.00739 0.94062 0.29384 0.0
H2610 H 0.97746 0.95189 0.27656 0.0
H2611 H 0.95317 0.95903 0.32275 0.0
H2612 H 0.98329 0.94812 0.34033 0.0
H2613 H 0.95099 0.93135 0.34681 0.0
H2614 H 0.95885 0.82895 0.31833 0.0
H2615 H 0.00523 0.82198 0.33555 0.0
H2616 H 0.02195 0.90912 0.33 0.0
C2617 C 0.92531 0.92203 0.27848 0.0
C2618 C 0.90508 0.90631 0.26499 0.0
C2619 C 0.90204 0.8782 0.27084 0.0
C2620 C 0.9197 0.86564 0.28917 0.0
C2621 C 0.94045 0.88143 0.30104 0.0
C2622 C 0.94321 0.9091 0.29608 0.0
C2623 C 0.96953 0.92065 0.30773 0.0
C2624 C 0.98742 0.93378 0.28537 0.0
C2625 C 0.9639 0.94099 0.33078 0.0
C2626 C 0.98188 0.8949 0.31864 0.0
C2627 C 0.9645 0.87263 0.31525 0.0
C2628 C 0.97242 0.84629 0.32156 0.0
C2629 C -0.00109 0.84256 0.33119 0.0
C2630 C 0.01732 0.86503 0.33406 0.0
C2631 C 0.00836 0.89156 0.32824 0.0
H2632 H 0.41747 0.29869 0.23 0.0
H2633 H 0.46016 0.36807 0.19429 0.0
H2634 H 0.43105 0.39928 0.21999 0.0
H2635 H 0.34822 0.33284 0.23622 0.0
H2636 H 0.34198 0.31597 0.26825 0.0
H2637 H 0.36126 0.29925 0.24208 0.0
H2638 H 0.40128 0.29295 0.27591 0.0
H2639 H 0.3819 0.30905 0.302 0.0
H2640 H 0.41526 0.32237 0.29348 0.0
H2641 H 0.40528 0.42228 0.25647 0.0
H2642 H 0.38817 0.43385 0.30229 0.0
H2643 H 0.36009 0.35041 0.3129 0.0
C2644 C 0.42012 0.32045 0.22701 0.0
C2645 C 0.44102 0.33096 0.21022 0.0
C2646 C 0.44419 0.35955 0.20706 0.0
C2647 C 0.42755 0.37747 0.22136 0.0
C2648 C 0.4075 0.3665 0.23835 0.0
C2649 C 0.40358 0.33859 0.24104 0.0
C2650 C 0.38359 0.33187 0.2635 0.0
C2651 C 0.35719 0.31924 0.2518 0.0
C2652 C 0.39629 0.313 0.28498 0.0
C2653 C 0.37882 0.36017 0.27462 0.0
C2654 C 0.39196 0.38004 0.25928 0.0
C2655 C 0.39411 0.40711 0.26816 0.0
C2656 C 0.38417 0.41363 0.29412 0.0
C2657 C 0.37265 0.393 0.31073 0.0
C2658 C 0.36831 0.36655 0.30011 0.0
H2659 H 0.40339 0.70517 0.8982 0.0
H2660 H 0.49177 0.7046 0.89779 0.0
H2661 H 0.49125 0.67538 0.93853 0.0
H2662 H 0.39495 0.70906 0.96907 0.0
H2663 H 0.36549 0.68663 0.97041 0.0
H2664 H 0.37251 0.70609 0.9401 0.0
H2665 H 0.37205 0.66171 0.91136 0.0
H2666 H 0.36478 0.6421 0.94158 0.0
H2667 H 0.39386 0.63418 0.92093 0.0
H2668 H 0.48146 0.65016 0.98157 0.0
H2669 H 0.46275 0.62663 0.02201 0.0
H2670 H 0.38077 0.64163 0.9934 0.0
C2671 C 0.42263 0.6986 0.90645 0.0
C2672 C 0.44762 0.70721 0.89482 0.0
C2673 C 0.47235 0.69818 0.90625 0.0
C2674 C 0.47229 0.68164 0.92945 0.0
C2675 C 0.44734 0.674 0.94074 0.0
C2676 C 0.42295 0.68181 0.92943 0.0
C2677 C 0.39899 0.67109 0.94585 0.0
C2678 C 0.38199 0.69463 0.95702 0.0
C2679 C 0.38139 0.65108 0.92892 0.0
C2680 C 0.41379 0.65656 0.96846 0.0
C2681 C 0.44167 0.65859 0.96517 0.0
C2682 C 0.45966 0.64808 0.9842 0.0
C2683 C 0.44885 0.63491 0.00716 0.0
C2684 C 0.42034 0.63219 0.0107 0.0
C2685 C 0.40265 0.6431 0.99101 0.0
H2686 H 0.05349 0.673 0.66771 0.0
H2687 H 0.02818 0.75662 0.67755 0.0
H2688 H 0.06123 0.76278 0.71514 0.0
H2689 H 0.05539 0.65733 0.73367 0.0
H2690 H 0.08458 0.6357 0.73246 0.0
H2691 H 0.06426 0.64014 0.70253 0.0
H2692 H 0.1071 0.65641 0.67587 0.0
H2693 H 0.12762 0.65209 0.70598 0.0
H2694 H 0.12754 0.68452 0.68876 0.0
H2695 H 0.08878 0.75656 0.75743 0.0
H2696 H 0.10752 0.73846 0.80022 0.0
H2697 H 0.11645 0.65945 0.7618 0.0
C2698 C 0.05557 0.69291 0.67714 0.0
C2699 C 0.03833 0.71434 0.66972 0.0
C2700 C 0.04134 0.73997 0.68279 0.0
C2701 C 0.06016 0.74368 0.7041 0.0
C2702 C 0.07613 0.72172 0.71169 0.0
C2703 C 0.07426 0.69692 0.6983 0.0
C2704 C 0.09073 0.67544 0.71253 0.0
C2705 C 0.07266 0.65074 0.72079 0.0
C2706 C 0.11467 0.6666 0.69472 0.0
C2707 C 0.10063 0.69146 0.73709 0.0
C2708 C 0.09257 0.7183 0.73598 0.0
C2709 C 0.09592 0.73584 0.75817 0.0
C2710 C 0.10659 0.72536 0.78245 0.0
C2711 C 0.11363 0.69755 0.78437 0.0
C2712 C 0.11192 0.68094 0.76088 0.0
H2713 H 0.95536 0.32376 0.48157 0.0
H2714 H 0.00364 0.33629 0.40876 0.0
H2715 H 0.04371 0.34784 0.43696 0.0
H2716 H -0.00271 0.37642 0.5275 0.0
H2717 H 0.99017 0.35373 0.55555 0.0
H2718 H 0.96561 0.35755 0.52845 0.0
H2719 H 0.96685 0.30377 0.52429 0.0
H2720 H 0.9936 0.30185 0.549 0.0
H2721 H -0.00146 0.28827 0.51527 0.0
H2722 H 0.08026 0.34646 0.4719 0.0
H2723 H 0.1096 0.33746 0.51171 0.0
H2724 H 0.03763 0.32398 0.56141 0.0
C2725 C 0.97394 0.33058 0.47163 0.0
C2726 C 0.97649 0.32926 0.44311 0.0
C2727 C 0.00133 0.33736 0.43067 0.0
C2728 C 0.02421 0.34393 0.44652 0.0
C2729 C 0.02173 0.34262 0.4747 0.0
C2730 C -0.00296 0.33691 0.48722 0.0
C2731 C 0.00059 0.33297 0.51754 0.0
C2732 C 0.98766 0.35654 0.53324 0.0
C2733 C 0.98924 0.30506 0.52705 0.0
C2734 C 0.03123 0.33453 0.51958 0.0
C2735 C 0.04305 0.34107 0.4949 0.0
C2736 C 0.07122 0.34198 0.49151 0.0
C2737 C 0.08771 0.33654 0.5141 0.0
C2738 C 0.07589 0.3297 0.53952 0.0
C2739 C 0.04729 0.3288 0.54216 0.0
H2740 H 0.45743 0.65633 0.27783 0.0
H2741 H 0.37344 0.65435 0.30441 0.0
H2742 H 0.36352 0.61609 0.27294 0.0
H2743 H 0.44317 0.65171 0.21157 0.0
H2744 H 0.47151 0.63114 0.2017 0.0
H2745 H 0.47404 0.6522 0.23149 0.0
H2746 H 0.48588 0.60996 0.26044 0.0
H2747 H 0.48317 0.58856 0.23062 0.0
H2748 H 0.46325 0.58057 0.26042 0.0
H2749 H 0.36047 0.58487 0.23337 0.0
H2750 H 0.36355 0.56693 0.18635 0.0
H2751 H 0.44866 0.59091 0.18354 0.0
C2752 C 0.43728 0.64697 0.2778 0.0
C2753 C 0.41627 0.65785 0.29375 0.0
C2754 C 0.38982 0.64603 0.29246 0.0
C2755 C 0.38409 0.62416 0.27483 0.0
C2756 C 0.40501 0.61448 0.25854 0.0
C2757 C 0.43112 0.62557 0.25983 0.0
C2758 C 0.44857 0.61525 0.23678 0.0
C2759 C 0.45995 0.63898 0.21936 0.0
C2760 C 0.47158 0.59753 0.24773 0.0
C2761 C 0.42773 0.59815 0.22132 0.0
C2762 C 0.40302 0.59703 0.23477 0.0
C2763 C 0.37987 0.58493 0.223 0.0
C2764 C 0.38176 0.57472 0.19639 0.0
C2765 C 0.40647 0.57714 0.18195 0.0
C2766 C 0.42985 0.58817 0.19477 0.0
H2767 H 0.05616 0.75665 0.06158 0.0
H2768 H 0.97089 0.74072 0.04352 0.0
H2769 H 0.98379 0.70353 0.01238 0.0
H2770 H 0.07955 0.75079 -0.00267 0.0
H2771 H 0.11108 0.73452 0.00557 0.0
H2772 H 0.09501 0.75576 0.03034 0.0
H2773 H 0.0945 0.71585 0.06488 0.0
H2774 H 0.11064 0.69439 0.04009 0.0
H2775 H 0.07897 0.68357 0.05548 0.0
H2776 H 0.00602 0.67542 0.97669 0.0
H2777 H 0.03577 0.65774 0.94044 0.0
H2778 H 0.10663 0.68977 0.98308 0.0
C2779 C 0.04013 0.74478 0.05172 0.0
C2780 C 0.01251 0.75152 0.055 0.0
C2781 C 0.99217 0.73578 0.04147 0.0
C2782 C -0.00068 0.71456 0.02379 0.0
C2783 C 0.02684 0.70905 0.02029 0.0
C2784 C 0.04693 0.72347 0.03421 0.0
C2785 C 0.07505 0.71566 0.02474 0.0
C2786 C 0.09109 0.74066 0.01384 0.0
C2787 C 0.09071 0.70152 0.04767 0.0
C2788 C 0.06769 0.69578 0.00217 0.0
C2789 C 0.03976 0.69191 0.00021 0.0
C2790 C 0.0279 0.67749 0.9786 0.0
C2791 C 0.0449 0.6675 0.95813 0.0
C2792 C 0.07341 0.67173 0.95958 0.0
C2793 C 0.08497 0.68526 0.98226 0.0
H2794 H 0.10043 0.32938 0.8412 0.0
H2795 H 0.08089 0.2429 0.84656 0.0
H2796 H 0.09866 0.23616 0.80033 0.0
H2797 H 0.07723 0.33903 0.77968 0.0
H2798 H 0.1029 0.36287 0.76773 0.0
H2799 H 0.09639 0.35988 0.80349 0.0
H2800 H 0.14711 0.34938 0.81238 0.0
H2801 H 0.15393 0.35263 0.77645 0.0
H2802 H 0.1629 0.32194 0.79421 0.0
H2803 H 0.10679 0.24076 0.75035 0.0
H2804 H 0.1071 0.25646 0.70243 0.0
H2805 H 0.12341 0.3392 0.73022 0.0
C2806 C 0.10099 0.30885 0.8331 0.0
C2807 C 0.08915 0.28678 0.84742 0.0
C2808 C 0.0899 0.26021 0.836 0.0
C2809 C 0.10007 0.25611 0.80972 0.0
C2810 C 0.11003 0.27863 0.79539 0.0
C2811 C 0.11123 0.30442 0.80697 0.0
C2812 C 0.1192 0.32582 0.78624 0.0
C2813 C 0.09764 0.34817 0.78417 0.0
C2814 C 0.14747 0.33816 0.79271 0.0
C2815 C 0.11992 0.30843 0.76085 0.0
C2816 C 0.11529 0.28115 0.76648 0.0
C2817 C 0.11132 0.26193 0.74571 0.0
C2818 C 0.11143 0.27099 0.71857 0.0
C2819 C 0.1151 0.29903 0.71267 0.0
C2820 C 0.12052 0.3176 0.73409 0.0
H2821 H 0.42819 0.22949 0.55811 0.0
H2822 H 0.51419 0.24493 0.54311 0.0
H2823 H 0.50287 0.28469 0.51497 0.0
H2824 H 0.40501 0.2476 0.49094 0.0
H2825 H 0.37441 0.26317 0.5031 0.0
H2826 H 0.38943 0.23599 0.52216 0.0
H2827 H 0.39143 0.26716 0.56482 0.0
H2828 H 0.37687 0.29463 0.54571 0.0
H2829 H 0.40897 0.29974 0.56297 0.0
H2830 H 0.4827 0.32229 0.48853 0.0
H2831 H 0.45447 0.35323 0.4615 0.0
H2832 H 0.38142 0.31418 0.49389 0.0
C2833 C 0.44461 0.24109 0.54869 0.0
C2834 C 0.47208 0.23416 0.55281 0.0
C2835 C 0.493 0.2499 0.54025 0.0
C2836 C 0.4868 0.27261 0.52436 0.0
C2837 C 0.4596 0.27931 0.52128 0.0
C2838 C 0.43879 0.26391 0.5328 0.0
C2839 C 0.41124 0.27527 0.52566 0.0
C2840 C 0.39402 0.25426 0.50949 0.0
C2841 C 0.39625 0.28476 0.55132 0.0
C2842 C 0.41986 0.29926 0.50806 0.0
C2843 C 0.44787 0.30131 0.50605 0.0
C2844 C 0.46075 0.32102 0.49002 0.0
C2845 C 0.44455 0.33853 0.47482 0.0
C2846 C 0.41579 0.33621 0.47578 0.0
C2847 C 0.40334 0.3168 0.49321 0.0
H2848 H 0.18828 0.46797 0.30636 0.0
H2849 H 0.15263 0.38657 0.29982 0.0
H2850 H 0.18128 0.37158 0.33824 0.0
H2851 H 0.25331 0.44761 0.31465 0.0
H2852 H 0.26358 0.47434 0.33796 0.0
H2853 H 0.23643 0.47992 0.31424 0.0
H2854 H 0.20436 0.49228 0.35408 0.0
H2855 H 0.23154 0.48672 0.37802 0.0
H2856 H 0.19949 0.46862 0.38178 0.0
H2857 H 0.21789 0.3642 0.37327 0.0
H2858 H 0.26132 0.36422 0.39884 0.0
H2859 H 0.27371 0.45002 0.38049 0.0
C2860 C 0.18584 0.44719 0.31351 0.0
C2861 C 0.16807 0.42849 0.30028 0.0
C2862 C 0.16605 0.40127 0.30978 0.0
C2863 C 0.18209 0.39264 0.33169 0.0
C2864 C 0.19996 0.41149 0.34383 0.0
C2865 C 0.20189 0.43822 0.33501 0.0
C2866 C 0.22511 0.45356 0.34869 0.0
C2867 C 0.24582 0.46447 0.32763 0.0
C2868 C 0.21448 0.47666 0.36672 0.0
C2869 C 0.23678 0.43098 0.3657 0.0
C2870 C 0.22159 0.40706 0.3633 0.0
C2871 C 0.22966 0.38294 0.37569 0.0
C2872 C 0.25428 0.38315 0.39022 0.0
C2873 C 0.27069 0.40717 0.39162 0.0
C2874 C 0.2614 0.43145 0.37985 0.0
H2875 H 0.30131 0.40006 0.00743 0.0
H2876 H 0.28332 0.43822 0.93021 0.0
H2877 H 0.32642 0.46508 0.93338 0.0
H2878 H 0.32057 0.45453 0.04028 0.0
H2879 H 0.34756 0.44013 0.06021 0.0
H2880 H 0.32058 0.41854 0.04772 0.0
H2881 H 0.35565 0.3879 0.02372 0.0
H2882 H 0.383 0.40965 0.03615 0.0
H2883 H 0.37978 0.40281 0.0002 0.0
H2884 H 0.363 0.49588 0.95098 0.0
H2885 H 0.38756 0.52791 0.98136 0.0
H2886 H 0.38421 0.468 0.04604 0.0
C2887 C 0.30697 0.41339 0.99073 0.0
C2888 C 0.28913 0.4173 0.96867 0.0
C2889 C 0.29692 0.43492 0.94721 0.0
C2890 C 0.32144 0.45007 0.9488 0.0
C2891 C 0.33813 0.44667 0.97157 0.0
C2892 C 0.33139 0.42829 0.99193 0.0
C2893 C 0.35002 0.43141 0.0163 0.0
C2894 C 0.33371 0.43649 0.04263 0.0
C2895 C 0.3682 0.40645 0.01925 0.0
C2896 C 0.36652 0.45628 0.00776 0.0
C2897 C 0.36009 0.46425 0.9815 0.0
C2898 C 0.36891 0.48937 0.97115 0.0
C2899 C 0.3829 0.50749 0.98858 0.0
C2900 C 0.38772 0.50042 0.0161 0.0
C2901 C 0.38132 0.47374 0.02498 0.0
H2902 H 0.29829 0.57359 0.76115 0.0
H2903 H 0.34966 0.56454 0.83233 0.0
H2904 H 0.317 0.59071 0.85964 0.0
H2905 H 0.27108 0.64266 0.77841 0.0
H2906 H 0.23784 0.63326 0.76552 0.0
H2907 H 0.26778 0.61884 0.75055 0.0
H2908 H 0.24805 0.57027 0.75941 0.0
H2909 H 0.21827 0.58446 0.77462 0.0
H2910 H 0.23841 0.56068 0.79354 0.0
H2911 H 0.27575 0.61188 0.88047 0.0
H2912 H 0.22951 0.62591 0.89313 0.0
H2913 H 0.20478 0.6199 0.80834 0.0
C2914 C 0.30318 0.57797 0.78223 0.0
C2915 C 0.32665 0.5673 0.79456 0.0
C2916 C 0.33191 0.57275 0.82242 0.0
C2917 C 0.3135 0.58763 0.83808 0.0
C2918 C 0.28998 0.59697 0.82553 0.0
C2919 C 0.28489 0.59251 0.79816 0.0
C2920 C 0.25675 0.60173 0.79026 0.0
C2921 C 0.25848 0.62554 0.76999 0.0
C2922 C 0.23936 0.57786 0.7788 0.0
C2923 C 0.24637 0.61103 0.81765 0.0
C2924 C 0.26597 0.60864 0.83765 0.0
C2925 C 0.26039 0.61427 0.86489 0.0
C2926 C 0.23401 0.62216 0.87189 0.0
C2927 C 0.2134 0.62403 0.85176 0.0
C2928 C 0.22001 0.61887 0.82425 0.0
H2929 H 0.1517 0.56115 0.61555 0.0
H2930 H 0.15555 0.56169 0.52733 0.0
H2931 H 0.12853 0.51897 0.52584 0.0
H2932 H 0.16572 0.49753 0.62424 0.0
H2933 H 0.14337 0.48978 0.65236 0.0
H2934 H 0.15472 0.52422 0.64675 0.0
H2935 H 0.10479 0.54004 0.64427 0.0
H2936 H 0.09315 0.50546 0.65025 0.0
H2937 H 0.08138 0.5237 0.62081 0.0
H2938 H 0.1144 0.47125 0.53391 0.0
H2939 H 0.11103 0.42404 0.55107 0.0
H2940 H 0.11428 0.45438 0.63398 0.0
C2941 C 0.1458 0.55292 0.5959 0.0
C2942 C 0.15586 0.56462 0.57161 0.0
C2943 C 0.14803 0.55312 0.54625 0.0
C2944 C 0.13256 0.52886 0.54519 0.0
C2945 C 0.12457 0.51673 0.56962 0.0
C2946 C 0.13034 0.52875 0.59454 0.0
C2947 C 0.12339 0.5097 0.61783 0.0
C2948 C 0.14828 0.50503 0.63633 0.0
C2949 C 0.09923 0.52036 0.63425 0.0
C2950 C 0.11539 0.48427 0.60208 0.0
C2951 C 0.11548 0.4889 0.5743 0.0
C2952 C 0.11322 0.46754 0.55559 0.0
C2953 C 0.11155 0.44078 0.56549 0.0
C2954 C 0.11215 0.4357 0.59383 0.0
C2955 C 0.113 0.45778 0.61224 0.0
H2956 H 0.21983 0.48881 0.19741 0.0
H2957 H 0.18253 0.44162 0.13207 0.0
H2958 H 0.22136 0.45372 0.10197 0.0
H2959 H 0.24693 0.54276 0.15813 0.0
H2960 H 0.27821 0.54606 0.17718 0.0
H2961 H 0.24786 0.53316 0.19353 0.0
H2962 H 0.27309 0.48947 0.20772 0.0
H2963 H 0.30359 0.50232 0.19153 0.0
H2964 H 0.28963 0.46937 0.18208 0.0
H2965 H 0.26204 0.47508 0.07799 0.0
H2966 H 0.30431 0.49939 0.06355 0.0
H2967 H 0.31683 0.52851 0.14607 0.0
C2968 C 0.21996 0.48092 0.1768 0.0
C2969 C 0.19823 0.46452 0.16685 0.0
C2970 C 0.19911 0.45421 0.13996 0.0
C2971 C 0.22098 0.46103 0.12276 0.0
C2972 C 0.24198 0.47759 0.13311 0.0
C2973 C 0.24189 0.48692 0.15968 0.0
C2974 C 0.26706 0.50401 0.16604 0.0
C2975 C 0.25955 0.53323 0.17419 0.0
C2976 C 0.28437 0.49048 0.18815 0.0
C2977 C 0.28105 0.50345 0.13868 0.0
C2978 C 0.26616 0.48834 0.11985 0.0
C2979 C 0.27411 0.48653 0.09267 0.0
C2980 C 0.29797 0.50044 0.08463 0.0
C2981 C 0.31373 0.51539 0.10385 0.0
C2982 C 0.30527 0.51674 0.13118 0.0
H2983 H 0.15748 0.45823 0.98173 0.0
H2984 H 0.13882 0.40819 0.91098 0.0
H2985 H 0.11706 0.44745 0.88906 0.0
H2986 H 0.0962 0.50449 0.9771 0.0
H2987 H 0.11682 0.53351 0.98744 0.0
H2988 H 0.1242 0.50005 0.00033 0.0
H2989 H 0.17371 0.50538 0.98282 0.0
H2990 H 0.16648 0.53855 0.9696 0.0
H2991 H 0.17958 0.51271 0.94731 0.0
H2992 H 0.106 0.49352 0.87144 0.0
H2993 H 0.10616 0.54231 0.85961 0.0
H2994 H 0.1331 0.56265 0.94156 0.0
C2995 C 0.14777 0.45519 0.96212 0.0
C2996 C 0.14962 0.43013 0.94813 0.0
C2997 C 0.1374 0.42717 0.92215 0.0
C2998 C 0.12494 0.44935 0.90958 0.0
C2999 C 0.12473 0.47424 0.92335 0.0
C3000 C 0.13556 0.47719 0.94923 0.0
C3001 C 0.1365 0.5068 0.95803 0.0
C3002 C 0.11728 0.51148 0.98215 0.0
C3003 C 0.1658 0.5164 0.96481 0.0
C3004 C 0.12606 0.52022 0.93247 0.0
C3005 C 0.11874 0.50108 0.91295 0.0
C3006 C 0.11107 0.50868 0.88676 0.0
C3007 C 0.11139 0.53649 0.8802 0.0
C3008 C 0.11965 0.5564 0.89966 0.0
C3009 C 0.12634 0.54804 0.92631 0.0
H3010 H 0.30634 0.4572 0.68369 0.0
H3011 H 0.295 0.43314 0.76804 0.0
H3012 H 0.2574 0.40209 0.75432 0.0
H3013 H 0.23712 0.45961 0.66714 0.0
H3014 H 0.24072 0.44654 0.63305 0.0
H3015 H 0.26867 0.46467 0.64899 0.0
H3016 H 0.29973 0.42341 0.64057 0.0
H3017 H 0.27179 0.40507 0.62467 0.0
H3018 H 0.2895 0.3902 0.653 0.0
H3019 H 0.21916 0.37709 0.73267 0.0
H3020 H 0.18088 0.36052 0.70436 0.0
H3021 H 0.21667 0.40016 0.63365 0.0
C3022 C 0.29618 0.44509 0.6992 0.0
C3023 C 0.3036 0.44744 0.7269 0.0
C3024 C 0.28963 0.4316 0.74669 0.0
C3025 C 0.26838 0.41379 0.73909 0.0
C3026 C 0.26146 0.41205 0.71164 0.0
C3027 C 0.27485 0.42726 0.69196 0.0
C3028 C 0.26198 0.42304 0.66419 0.0
C3029 C 0.2515 0.45006 0.65268 0.0
C3030 C 0.28195 0.40963 0.64445 0.0
C3031 C 0.23879 0.40368 0.67152 0.0
C3032 C 0.23915 0.39739 0.69896 0.0
C3033 C 0.21882 0.38152 0.71109 0.0
C3034 C 0.19715 0.37231 0.69488 0.0
C3035 C 0.19601 0.37901 0.66686 0.0
C3036 C 0.21741 0.39433 0.6549 0.0
H3037 H 0.30109 0.57665 0.51176 0.0
H3038 H 0.28523 0.53889 0.59001 0.0
H3039 H 0.31098 0.49848 0.57561 0.0
H3040 H 0.28969 0.52134 0.47311 0.0
H3041 H 0.31602 0.52791 0.44834 0.0
H3042 H 0.30168 0.55574 0.4668 0.0
H3043 H 0.3497 0.57076 0.48371 0.0
H3044 H 0.36431 0.54298 0.46503 0.0
H3045 H 0.37076 0.54657 0.50101 0.0
H3046 H 0.32998 0.45898 0.54904 0.0
H3047 H 0.34269 0.42537 0.51393 0.0
H3048 H 0.3476 0.4903 0.45406 0.0
C3049 C 0.30382 0.56025 0.5262 0.0
C3050 C 0.29125 0.56081 0.55196 0.0
C3051 C 0.295 0.53893 0.57027 0.0
C3052 C 0.30957 0.51591 0.56224 0.0
C3053 C 0.32075 0.51549 0.53614 0.0
C3054 C 0.31851 0.53741 0.51864 0.0
C3055 C 0.32981 0.53107 0.4908 0.0
C3056 C 0.308 0.53418 0.46848 0.0
C3057 C 0.35516 0.5489 0.4848 0.0
C3058 C 0.33722 0.50161 0.49479 0.0
C3059 C 0.33227 0.49299 0.52113 0.0
C3060 C 0.33465 0.46569 0.52856 0.0
C3061 C 0.34177 0.44671 0.50845 0.0
C3062 C 0.34631 0.45516 0.48121 0.0
C3063 C 0.34475 0.48313 0.47471 0.0
H3064 H 0.22892 0.21596 0.3813 0.0
H3065 H 0.28824 0.16212 0.34613 0.0
H3066 H 0.31949 0.2014 0.3389 0.0
H3067 H 0.25039 0.28178 0.34213 0.0
H3068 H 0.24468 0.30151 0.37251 0.0
H3069 H 0.22354 0.2719 0.36526 0.0
H3070 H 0.23557 0.25255 0.41267 0.0
H3071 H 0.25747 0.28134 0.41978 0.0
H3072 H 0.27076 0.24739 0.42137 0.0
H3073 H 0.34848 0.24313 0.34724 0.0
H3074 H 0.371 0.28424 0.36678 0.0
H3075 H 0.29349 0.30973 0.39935 0.0
C3076 C 0.24777 0.21268 0.37051 0.0
C3077 C 0.25617 0.18605 0.36426 0.0
C3078 C 0.28135 0.18242 0.35092 0.0
C3079 C 0.29928 0.20465 0.34681 0.0
C3080 C 0.29157 0.23032 0.35595 0.0
C3081 C 0.26606 0.23456 0.36695 0.0
C3082 C 0.26441 0.26256 0.37982 0.0
C3083 C 0.24458 0.2805 0.36397 0.0
C3084 C 0.25662 0.26081 0.41019 0.0
C3085 C 0.29345 0.27256 0.37622 0.0
C3086 C 0.30864 0.25413 0.36171 0.0
C3087 C 0.3366 0.258 0.35804 0.0
C3088 C 0.34927 0.28128 0.36943 0.0
C3089 C 0.33407 0.30009 0.38483 0.0
C3090 C 0.30575 0.29571 0.38782 0.0
H3091 H 0.89534 0.34099 0.51882 0.0
H3092 H 0.81341 0.36455 0.53998 0.0
H3093 H 0.81664 0.33865 0.58277 0.0
H3094 H 0.89037 0.27548 0.53802 0.0
H3095 H 0.92431 0.27302 0.55165 0.0
H3096 H 0.91721 0.29793 0.52602 0.0
H3097 H 0.9361 0.33599 0.55893 0.0
H3098 H 0.94311 0.3101 0.58381 0.0
H3099 H 0.92235 0.33869 0.59271 0.0
H3100 H 0.82419 0.30196 0.6165 0.0
H3101 H 0.83706 0.25983 0.64048 0.0
H3102 H 0.9151 0.26165 0.59975 0.0
C3103 C 0.87844 0.34148 0.53291 0.0
C3104 C 0.8541 0.35474 0.52601 0.0
C3105 C 0.83233 0.3547 0.54486 0.0
C3106 C 0.834 0.34007 0.56929 0.0
C3107 C 0.85781 0.32613 0.57489 0.0
C3108 C 0.87992 0.32723 0.55753 0.0
C3109 C 0.90193 0.30808 0.56674 0.0
C3110 C 0.90882 0.28741 0.54426 0.0
C3111 C 0.92739 0.32417 0.57613 0.0
C3112 C 0.88789 0.29443 0.59063 0.0
C3113 C 0.86264 0.30552 0.59534 0.0
C3114 C 0.84429 0.29379 0.61373 0.0
C3115 C 0.85169 0.26987 0.62719 0.0
C3116 C 0.87728 0.25815 0.62238 0.0
C3117 C 0.89588 0.27098 0.6045 0.0
H3118 H 0.47429 0.99072 0.32748 0.0
H3119 H 0.42273 0.03653 0.38155 0.0
H3120 H 0.46336 0.05515 0.4053 0.0
H3121 H 0.5329 0.97957 0.37709 0.0
H3122 H 0.55758 0.98509 0.35046 0.0
H3123 H 0.52488 0.96968 0.34258 0.0
H3124 H 0.51693 0.00691 0.3062 0.0
H3125 H 0.54933 0.02256 0.31412 0.0
H3126 H 0.51887 0.04234 0.31603 0.0
H3127 H 0.50815 0.07474 0.41756 0.0
H3128 H 0.55422 0.0952 0.41701 0.0
H3129 H 0.57732 0.03855 0.35339 0.0
C3130 C 0.47172 0.00368 0.34514 0.0
C3131 C 0.44565 0.01187 0.35323 0.0
C3132 C 0.44271 0.02985 0.37548 0.0
C3133 C 0.46562 0.04038 0.38911 0.0
C3134 C 0.49123 0.03286 0.38 0.0
C3135 C 0.49447 0.01486 0.35856 0.0
C3136 C 0.52398 0.01369 0.34988 0.0
C3137 C 0.53552 0.98532 0.35534 0.0
C3138 C 0.52746 0.02188 0.31979 0.0
C3139 C 0.53651 0.03486 0.36881 0.0
C3140 C 0.51739 0.0451 0.38648 0.0
C3141 C 0.52347 0.06654 0.40422 0.0
C3142 C 0.54968 0.07816 0.40359 0.0
C3143 C 0.56941 0.06854 0.3851 0.0
C3144 C 0.56282 0.04618 0.36797 0.0
H3145 H 0.59754 0.67963 0.05793 0.0
H3146 H 0.66498 0.68581 0.11468 0.0
H3147 H 0.64388 0.72562 0.13624 0.0
H3148 H 0.59751 0.74375 0.04207 0.0
H3149 H 0.5614 0.74836 0.03825 0.0
H3150 H 0.5753 0.71515 0.03394 0.0
H3151 H 0.54312 0.69559 0.07106 0.0
H3152 H 0.52864 0.72884 0.07526 0.0
H3153 H 0.54243 0.71131 0.10424 0.0
H3154 H 0.6234 0.77021 0.14304 0.0
H3155 H 0.60559 0.81607 0.13443 0.0
H3156 H 0.5522 0.78317 0.07187 0.0
C3157 C 0.60706 0.68844 0.07589 0.0
C3158 C 0.63268 0.67947 0.08493 0.0
C3159 C 0.64517 0.69216 0.10771 0.0
C3160 C 0.63324 0.71475 0.12011 0.0
C3161 C 0.60889 0.72437 0.10943 0.0
C3162 C 0.59574 0.71141 0.08795 0.0
C3163 C 0.57313 0.72871 0.07657 0.0
C3164 C 0.57711 0.73432 0.04593 0.0
C3165 C 0.54517 0.71531 0.08213 0.0
C3166 C 0.57714 0.75437 0.09339 0.0
C3167 C 0.59717 0.75101 0.11294 0.0
C3168 C 0.60709 0.77281 0.1285 0.0
C3169 C 0.59696 0.79877 0.12343 0.0
C3170 C 0.57724 0.80272 0.10293 0.0
C3171 C 0.56659 0.78024 0.08828 0.0
H3172 H 0.57013 0.45655 0.3361 0.0
H3173 H 0.55361 0.54287 0.34308 0.0
H3174 H 0.51282 0.53188 0.37068 0.0
H3175 H 0.50436 0.43555 0.32489 0.0
H3176 H 0.50626 0.40408 0.34363 0.0
H3177 H 0.5365 0.4189 0.32887 0.0
H3178 H 0.56003 0.41909 0.37617 0.0
H3179 H 0.52975 0.4042 0.39112 0.0
H3180 H 0.54394 0.43564 0.40452 0.0
H3181 H 0.47083 0.51123 0.39185 0.0
H3182 H 0.43059 0.4829 0.40369 0.0
H3183 H 0.47471 0.41004 0.38252 0.0
C3184 C 0.55836 0.47322 0.34402 0.0
C3185 C 0.56508 0.50058 0.33756 0.0
C3186 C 0.54889 0.52177 0.34791 0.0
C3187 C 0.52576 0.51571 0.36369 0.0
C3188 C 0.5193 0.48842 0.36907 0.0
C3189 C 0.53525 0.46753 0.35965 0.0
C3190 C 0.52244 0.43987 0.36562 0.0
C3191 C 0.51707 0.42367 0.33918 0.0
C3192 C 0.54009 0.42376 0.38555 0.0
C3193 C 0.4962 0.44843 0.37887 0.0
C3194 C 0.49498 0.47649 0.38115 0.0
C3195 C 0.47175 0.48923 0.39061 0.0
C3196 C 0.44895 0.47293 0.39723 0.0
C3197 C 0.44946 0.44418 0.39412 0.0
C3198 C 0.47374 0.43187 0.38557 0.0
H3199 H 0.27659 0.77636 0.9788 0.0
H3200 H 0.22905 0.84968 0.98391 0.0
H3201 H 0.1964 0.83051 0.95042 0.0
H3202 H 0.26159 0.75957 0.90504 0.0
H3203 H 0.25912 0.7236 0.91235 0.0
H3204 H 0.28187 0.7453 0.9319 0.0
H3205 H 0.25854 0.72888 0.9764 0.0
H3206 H 0.23573 0.7073 0.95704 0.0
H3207 H 0.22227 0.73228 0.98008 0.0
H3208 H 0.16561 0.80116 0.92179 0.0
H3209 H 0.13821 0.76309 0.9022 0.0
H3210 H 0.20501 0.70839 0.91692 0.0
C3211 C 0.25987 0.78872 0.97203 0.0
C3212 C 0.25546 0.81458 0.98358 0.0
C3213 C 0.23282 0.82985 0.97509 0.0
C3214 C 0.21426 0.81921 0.95598 0.0
C3215 C 0.21859 0.79322 0.9456 0.0
C3216 C 0.24088 0.77817 0.95328 0.0
C3217 C 0.23882 0.74941 0.94215 0.0
C3218 C 0.26171 0.74417 0.92163 0.0
C3219 C 0.23882 0.72824 0.9653 0.0
C3220 C 0.2114 0.75033 0.92809 0.0
C3221 C 0.20034 0.77593 0.9297 0.0
C3222 C 0.17425 0.78112 0.91996 0.0
C3223 C 0.15883 0.75939 0.90886 0.0
C3224 C 0.16942 0.73277 0.90806 0.0
C3225 C 0.19632 0.72851 0.91716 0.0
H3226 H 0.39604 0.95508 0.20171 0.0
H3227 H 0.42474 0.03644 0.22307 0.0
H3228 H 0.45379 0.03739 0.18205 0.0
H3229 H 0.45496 0.92966 0.18407 0.0
H3230 H 0.44334 0.90903 0.1558 0.0
H3231 H 0.42007 0.91769 0.18229 0.0
H3232 H 0.38772 0.93877 0.1465 0.0
H3233 H 0.41118 0.93019 0.11977 0.0
H3234 H 0.40047 0.96489 0.12381 0.0
H3235 H 0.48817 0.02437 0.14739 0.0
H3236 H 0.52261 -0.00056 0.12118 0.0
H3237 H 0.46892 0.92834 0.11902 0.0
C3238 C 0.40766 0.97349 0.19712 0.0
C3239 C 0.40822 -0.00434 0.21546 0.0
C3240 C 0.42384 0.01933 0.20909 0.0
C3241 C 0.44035 0.02006 0.1858 0.0
C3242 C 0.44033 -0.00271 0.1687 0.0
C3243 C 0.42381 0.97468 0.17374 0.0
C3244 C 0.42993 0.95154 0.15442 0.0
C3245 C 0.43754 0.9255 0.17008 0.0
C3246 C 0.4059 0.94604 0.13497 0.0
C3247 C 0.45406 0.96375 0.13933 0.0
C3248 C 0.45947 0.99036 0.14742 0.0
C3249 C 0.48356 0.00398 0.14003 0.0
C3250 C 0.50304 0.98969 0.12512 0.0
C3251 C 0.49821 0.96215 0.11761 0.0
C3252 C 0.47277 0.94969 0.12355 0.0
H3253 H 0.06216 0.05618 0.75902 0.0
H3254 H 0.03795 0.98917 0.70572 0.0
H3255 H 0.0016 0.01704 0.6865 0.0
H3256 H -0.00396 0.07945 0.77361 0.0
H3257 H 0.00497 0.11527 0.77288 0.0
H3258 H 0.03021 0.09072 0.78188 0.0
H3259 H 0.06172 0.10905 0.74356 0.0
H3260 H 0.03662 0.13377 0.73453 0.0
H3261 H 0.04905 0.11056 0.70914 0.0
H3262 H 0.96561 0.04968 0.67604 0.0
H3263 H 0.93369 0.08765 0.67179 0.0
H3264 H 0.98199 0.13553 0.7291 0.0
C3265 C 0.04938 0.04754 0.74309 0.0
C3266 C 0.05288 0.02047 0.73389 0.0
C3267 C 0.03575 0.00985 0.71304 0.0
C3268 C 0.01499 0.0255 0.702 0.0
C3269 C 0.01183 0.0519 0.71172 0.0
C3270 C 0.0287 0.06309 0.73149 0.0
C3271 C 0.02051 0.09201 0.73832 0.0
C3272 C 0.01245 0.09449 0.76846 0.0
C3273 C 0.04334 0.11256 0.73094 0.0
C3274 C -0.00395 0.095 0.71974 0.0
C3275 C 0.99145 0.07147 0.70471 0.0
C3276 C 0.96922 0.06838 0.68732 0.0
C3277 C 0.95119 0.08994 0.68512 0.0
C3278 C 0.95568 0.11436 0.69993 0.0
C3279 C 0.97848 0.11711 0.71731 0.0
loop_
_geom_bond_atom_site_label_1
_geom_bond_atom_site_label_2
_geom_bond_distance
_geom_bond_site_symmetry_2
_ccdc_geom_bond_type
C0 O1 1.306 . S
C0 O3 1.160 . S
O1 C0 1.306 . S
O1 Cd2 2.228 . S
Cd2 O1 2.228 . S
Cd2 O6 2.273 . S
Cd2 O10 2.277 . S
O3 C0 1.160 . S
O3 Cd4 2.203 1_655 S
Cd4 O3 2.203 1_455 S
Cd4 O6 2.411 1_455 S
Cd4 O7 2.333 . S
Cd4 O8 2.352 . S
Cd4 O12 2.277 . S
Cd4 O13 2.356 . S
C5 O10 1.209 1_455 S
C5 O12 1.226 . S
O6 Cd2 2.273 . S
O6 Cd4 2.411 1_655 S
O6 C9 1.320 . S
O7 Cd4 2.333 . S
O7 C9 1.214 1_455 S
O8 Cd4 2.352 . S
O8 C11 1.258 . S
C9 O6 1.320 . S
C9 O7 1.214 1_655 S
O10 Cd2 2.277 . S
O10 C5 1.209 1_655 S
C11 O8 1.258 . S
C11 O13 1.282 . S
O12 Cd4 2.277 . S
O12 C5 1.226 . S
O13 Cd4 2.356 . S
O13 C11 1.282 . S
C14 O15 1.306 . S
C14 O17 1.160 . S
O15 C14 1.306 . S
O15 Cd16 2.228 1_455 S
Cd16 O15 2.228 1_655 S
Cd16 O20 2.273 . S
Cd16 O24 2.277 . S
O17 C14 1.160 . S
O17 Cd18 2.203 . S
Cd18 O17 2.203 . S
Cd18 O20 2.411 1_455 S
Cd18 O21 2.333 1_455 S
Cd18 O22 2.352 . S
Cd18 O26 2.277 1_455 S
Cd18 O27 2.356 . S
C19 O24 1.209 . S
C19 O26 1.226 . S
O20 Cd16 2.273 . S
O20 Cd18 2.411 1_655 S
O20 C23 1.320 . S
O21 Cd18 2.333 1_655 S
O21 C23 1.214 . S
O22 Cd18 2.352 . S
O22 C25 1.258 . S
C23 O20 1.320 . S
C23 O21 1.214 . S
O24 Cd16 2.277 . S
O24 C19 1.209 . S
C25 O22 1.258 . S
C25 O27 1.282 . S
O26 Cd18 2.277 1_655 S
O26 C19 1.226 . S
O27 Cd18 2.356 . S
O27 C25 1.282 . S
C28 O29 1.306 . S
C28 O31 1.160 . S
O29 C28 1.306 . S
O29 Cd30 2.228 . S
Cd30 O29 2.228 . S
Cd30 O34 2.273 . S
Cd30 O38 2.277 . S
O31 C28 1.160 . S
O31 Cd32 2.203 . S
Cd32 O31 2.203 . S
Cd32 O34 2.411 . S
Cd32 O35 2.333 . S
Cd32 O36 2.352 . S
Cd32 O40 2.277 . S
Cd32 O41 2.356 . S
C33 O38 1.209 . S
C33 O40 1.226 . S
O34 Cd30 2.273 . S
O34 Cd32 2.411 . S
O34 C37 1.320 . S
O35 Cd32 2.333 . S
O35 C37 1.214 . S
O36 Cd32 2.352 . S
O36 C39 1.258 . S
C37 O34 1.320 . S
C37 O35 1.214 . S
O38 Cd30 2.277 . S
O38 C33 1.209 . S
C39 O36 1.258 . S
C39 O41 1.282 . S
O40 Cd32 2.277 . S
O40 C33 1.226 . S
O41 Cd32 2.356 . S
O41 C39 1.282 . S
C42 O43 1.306 . S
C42 O45 1.160 . S
O43 C42 1.306 . S
O43 Cd44 2.228 . S
Cd44 O43 2.228 . S
Cd44 O48 2.273 . S
Cd44 O52 2.277 . S
O45 C42 1.160 . S
O45 Cd46 2.203 . S
Cd46 O45 2.203 . S
Cd46 O48 2.411 . S
Cd46 O49 2.333 . S
Cd46 O50 2.352 . S
Cd46 O54 2.277 . S
Cd46 O55 2.356 . S
C47 O52 1.209 . S
C47 O54 1.226 . S
O48 Cd44 2.273 . S
O48 Cd46 2.411 . S
O48 C51 1.320 . S
O49 Cd46 2.333 . S
O49 C51 1.214 . S
O50 Cd46 2.352 . S
O50 C53 1.258 . S
C51 O48 1.320 . S
C51 O49 1.214 . S
O52 Cd44 2.277 . S
O52 C47 1.209 . S
C53 O50 1.258 . S
C53 O55 1.282 . S
O54 Cd46 2.277 . S
O54 C47 1.226 . S
O55 Cd46 2.356 . S
O55 C53 1.282 . S
C56 O57 1.306 . S
C56 O59 1.160 . S
O57 C56 1.306 . S
O57 Cd58 2.228 . S
Cd58 O57 2.228 . S
Cd58 O62 2.273 . S
Cd58 O66 2.277 . S
O59 C56 1.160 . S
O59 Cd60 2.203 1_655 S
Cd60 O59 2.203 1_455 S
Cd60 O62 2.411 1_455 S
Cd60 O63 2.333 . S
Cd60 O64 2.352 . S
Cd60 O68 2.277 . S
Cd60 O69 2.356 . S
C61 O66 1.209 1_455 S
C61 O68 1.226 . S
O62 Cd58 2.273 . S
O62 Cd60 2.411 1_655 S
O62 C65 1.320 . S
O63 Cd60 2.333 . S
O63 C65 1.214 1_455 S
O64 Cd60 2.352 . S
O64 C67 1.258 . S
C65 O62 1.320 . S
C65 O63 1.214 1_655 S
O66 Cd58 2.277 . S
O66 C61 1.209 1_655 S
C67 O64 1.258 . S
C67 O69 1.282 . S
O68 Cd60 2.277 . S
O68 C61 1.226 . S
O69 Cd60 2.356 . S
O69 C67 1.282 . S
C70 O71 1.306 . S
C70 O73 1.160 . S
O71 C70 1.306 . S
O71 Cd72 2.228 . S
Cd72 O71 2.228 . S
Cd72 O76 2.273 . S
Cd72 O80 2.277 . S
O73 C70 1.160 . S
O73 Cd74 2.203 . S
Cd74 O73 2.203 . S
Cd74 O76 2.411 . S
Cd74 O77 2.333 . S
Cd74 O78 2.352 . S
Cd74 O82 2.277 . S
Cd74 O83 2.356 . S
C75 O80 1.209 . S
C75 O82 1.226 . S
O76 Cd72 2.273 . S
O76 Cd74 2.411 . S
O76 C79 1.320 . S
O77 Cd74 2.333 . S
O77 C79 1.214 . S
O78 Cd74 2.352 . S
O78 C81 1.258 . S
C79 O76 1.320 . S
C79 O77 1.214 . S
O80 Cd72 2.277 . S
O80 C75 1.209 . S
C81 O78 1.258 . S
C81 O83 1.282 . S
O82 Cd74 2.277 . S
O82 C75 1.226 . S
O83 Cd74 2.356 . S
O83 C81 1.282 . S
C84 O85 1.306 . S
C84 O87 1.160 . S
O85 C84 1.306 . S
O85 Cd86 2.228 . S
Cd86 O85 2.228 . S
Cd86 O90 2.273 . S
Cd86 O94 2.277 . S
O87 C84 1.160 . S
O87 Cd88 2.203 . S
Cd88 O87 2.203 . S
Cd88 O90 2.411 . S
Cd88 O91 2.333 . S
Cd88 O92 2.352 . S
Cd88 O96 2.277 . S
Cd88 O97 2.356 . S
C89 O94 1.209 . S
C89 O96 1.226 . S
O90 Cd86 2.273 . S
O90 Cd88 2.411 . S
O90 C93 1.320 . S
O91 Cd88 2.333 . S
O91 C93 1.214 . S
O92 Cd88 2.352 . S
O92 C95 1.258 . S
C93 O90 1.320 . S
C93 O91 1.214 . S
O94 Cd86 2.277 . S
O94 C89 1.209 . S
C95 O92 1.258 . S
C95 O97 1.282 . S
O96 Cd88 2.277 . S
O96 C89 1.226 . S
O97 Cd88 2.356 . S
O97 C95 1.282 . S
C98 O99 1.306 . S
C98 O101 1.160 . S
O99 C98 1.306 . S
O99 Cd100 2.228 1_455 S
Cd100 O99 2.228 1_655 S
Cd100 O104 2.273 . S
Cd100 O108 2.277 . S
O101 C98 1.160 . S
O101 Cd102 2.203 . S
Cd102 O101 2.203 . S
Cd102 O104 2.411 1_455 S
Cd102 O105 2.333 1_455 S
Cd102 O106 2.352 . S
Cd102 O110 2.277 1_455 S
Cd102 O111 2.356 . S
C103 O108 1.209 . S
C103 O110 1.226 . S
O104 Cd100 2.273 . S
O104 Cd102 2.411 1_655 S
O104 C107 1.320 . S
O105 Cd102 2.333 1_655 S
O105 C107 1.214 . S
O106 Cd102 2.352 . S
O106 C109 1.258 . S
C107 O104 1.320 . S
C107 O105 1.214 . S
O108 Cd100 2.277 . S
O108 C103 1.209 . S
C109 O106 1.258 . S
C109 O111 1.282 . S
O110 Cd102 2.277 1_655 S
O110 C103 1.226 . S
O111 Cd102 2.356 . S
O111 C109 1.282 . S
C112 O113 1.306 . S
C112 O115 1.137 1_565 S
O113 C112 1.306 . S
O113 Cd114 2.228 . S
Cd114 O113 2.228 . S
Cd114 O118 2.273 . S
Cd114 O122 2.277 1_565 S
O115 C112 1.137 1_545 S
O115 Cd116 2.210 . S
Cd116 O115 2.210 . S
Cd116 O118 2.411 1_545 S
Cd116 O119 2.333 . S
Cd116 O120 2.352 . S
Cd116 O124 2.277 . S
Cd116 O125 2.356 . S
C117 O122 1.209 . S
C117 O124 1.226 . S
O118 Cd114 2.273 . S
O118 Cd116 2.411 1_565 S
O118 C121 1.320 . S
O119 Cd116 2.333 . S
O119 C121 1.214 1_545 S
O120 Cd116 2.352 . S
O120 C123 1.258 . S
C121 O118 1.320 . S
C121 O119 1.214 1_565 S
O122 Cd114 2.277 1_545 S
O122 C117 1.209 . S
C123 O120 1.258 . S
C123 O125 1.282 . S
O124 Cd116 2.277 . S
O124 C117 1.226 . S
O125 Cd116 2.356 . S
O125 C123 1.282 . S
C126 O127 1.306 . S
C126 O129 1.160 . S
O127 C126 1.306 . S
O127 Cd128 2.228 . S
Cd128 O127 2.228 . S
Cd128 O132 2.273 . S
Cd128 O136 2.277 . S
O129 C126 1.160 . S
O129 Cd130 2.203 . S
Cd130 O129 2.203 . S
Cd130 O132 2.411 . S
Cd130 O133 2.333 . S
Cd130 O134 2.352 . S
Cd130 O138 2.277 . S
Cd130 O139 2.356 . S
C131 O136 1.209 . S
C131 O138 1.226 . S
O132 Cd128 2.273 . S
O132 Cd130 2.411 . S
O132 C135 1.320 . S
O133 Cd130 2.333 . S
O133 C135 1.214 . S
O134 Cd130 2.352 . S
O134 C137 1.258 . S
C135 O132 1.320 . S
C135 O133 1.214 . S
O136 Cd128 2.277 . S
O136 C131 1.209 . S
C137 O134 1.258 . S
C137 O139 1.282 . S
O138 Cd130 2.277 . S
O138 C131 1.226 . S
O139 Cd130 2.356 . S
O139 C137 1.282 . S
C140 O141 1.306 . S
C140 O143 1.160 . S
O141 C140 1.306 . S
O141 Cd142 2.228 . S
Cd142 O141 2.228 . S
Cd142 O146 2.273 . S
Cd142 O150 2.277 . S
O143 C140 1.160 . S
O143 Cd144 2.203 1_565 S
Cd144 O143 2.203 1_545 S
Cd144 O146 2.411 1_545 S
Cd144 O147 2.333 . S
Cd144 O148 2.352 . S
Cd144 O152 2.277 . S
Cd144 O153 2.356 . S
C145 O150 1.209 1_545 S
C145 O152 1.226 . S
O146 Cd142 2.273 . S
O146 Cd144 2.411 1_565 S
O146 C149 1.320 . S
O147 Cd144 2.333 . S
O147 C149 1.214 1_545 S
O148 Cd144 2.352 . S
O148 C151 1.258 . S
C149 O146 1.320 . S
C149 O147 1.214 1_565 S
O150 Cd142 2.277 . S
O150 C145 1.209 1_565 S
C151 O148 1.258 . S
C151 O153 1.282 . S
O152 Cd144 2.277 . S
O152 C145 1.226 . S
O153 Cd144 2.356 . S
O153 C151 1.282 . S
C154 O155 1.306 . S
C154 O157 1.160 . S
O155 C154 1.306 . S
O155 Cd156 2.228 1_554 S
Cd156 O155 2.228 1_556 S
Cd156 O160 2.273 . S
Cd156 O164 2.277 . S
O157 C154 1.160 . S
O157 Cd158 2.203 . S
Cd158 O157 2.203 . S
Cd158 O160 2.411 1_554 S
Cd158 O161 2.333 1_554 S
Cd158 O162 2.352 . S
Cd158 O166 2.277 1_554 S
Cd158 O167 2.356 . S
C159 O164 1.209 . S
C159 O166 1.226 . S
O160 Cd156 2.273 . S
O160 Cd158 2.411 1_556 S
O160 C163 1.320 . S
O161 Cd158 2.333 1_556 S
O161 C163 1.214 . S
O162 Cd158 2.352 . S
O162 C165 1.258 . S
C163 O160 1.320 . S
C163 O161 1.214 . S
O164 Cd156 2.277 . S
O164 C159 1.209 . S
C165 O162 1.258 . S
C165 O167 1.282 . S
O166 Cd158 2.277 1_556 S
O166 C159 1.226 . S
O167 Cd158 2.356 . S
O167 C165 1.282 . S
C168 O169 1.306 . S
C168 O171 1.160 . S
O169 C168 1.306 . S
O169 Cd170 2.228 . S
Cd170 O169 2.228 . S
Cd170 O174 2.273 . S
Cd170 O178 2.277 . S
O171 C168 1.160 . S
O171 Cd172 2.203 1_554 S
Cd172 O171 2.203 1_556 S
Cd172 O174 2.411 1_556 S
Cd172 O175 2.333 . S
Cd172 O176 2.348 1_556 S
Cd172 O180 2.277 . S
Cd172 O181 2.356 . S
C173 O178 1.209 1_556 S
C173 O180 1.226 . S
O174 Cd170 2.273 . S
O174 Cd172 2.411 1_554 S
O174 C177 1.320 . S
O175 Cd172 2.333 . S
O175 C177 1.214 1_556 S
O176 Cd172 2.348 1_554 S
O176 C179 1.235 1_554 S
C177 O174 1.320 . S
C177 O175 1.214 1_554 S
O178 Cd170 2.277 . S
O178 C173 1.209 1_554 S
C179 O176 1.235 1_556 S
C179 O181 1.282 . S
O180 Cd172 2.277 . S
O180 C173 1.226 . S
O181 Cd172 2.356 . S
O181 C179 1.282 . S
C182 O183 1.306 . S
C182 O185 1.160 . S
O183 C182 1.306 . S
O183 Cd184 2.228 . S
Cd184 O183 2.228 . S
Cd184 O188 2.273 . S
Cd184 O192 2.277 . S
O185 C182 1.160 . S
O185 Cd186 2.203 1_554 S
Cd186 O185 2.203 1_556 S
Cd186 O188 2.411 1_556 S
Cd186 O189 2.333 . S
Cd186 O190 2.352 . S
Cd186 O194 2.277 . S
Cd186 O195 2.356 . S
C187 O192 1.209 1_556 S
C187 O194 1.226 . S
O188 Cd184 2.273 . S
O188 Cd186 2.411 1_554 S
O188 C191 1.320 . S
O189 Cd186 2.333 . S
O189 C191 1.214 1_556 S
O190 Cd186 2.352 . S
O190 C193 1.258 . S
C191 O188 1.320 . S
C191 O189 1.214 1_554 S
O192 Cd184 2.277 . S
O192 C187 1.209 1_554 S
C193 O190 1.258 . S
C193 O195 1.282 . S
O194 Cd186 2.277 . S
O194 C187 1.226 . S
O195 Cd186 2.356 . S
O195 C193 1.282 . S
C196 O197 1.306 . S
C196 O199 1.160 . S
O197 C196 1.306 . S
O197 Cd198 2.228 . S
Cd198 O197 2.228 . S
Cd198 O202 2.273 . S
Cd198 O206 2.277 . S
O199 C196 1.160 . S
O199 Cd200 2.203 . S
Cd200 O199 2.203 . S
Cd200 O202 2.411 . S
Cd200 O203 2.333 . S
Cd200 O204 2.352 . S
Cd200 O208 2.277 . S
Cd200 O209 2.356 . S
C201 O206 1.209 . S
C201 O208 1.226 . S
O202 Cd198 2.273 . S
O202 Cd200 2.411 . S
O202 C205 1.320 . S
O203 Cd200 2.333 . S
O203 C205 1.214 . S
O204 Cd200 2.352 . S
O204 C207 1.258 . S
C205 O202 1.320 . S
C205 O203 1.214 . S
O206 Cd198 2.277 . S
O206 C201 1.209 . S
C207 O204 1.258 . S
C207 O209 1.282 . S
O208 Cd200 2.277 . S
O208 C201 1.226 . S
O209 Cd200 2.356 . S
O209 C207 1.282 . S
C210 O211 1.306 . S
C210 O213 1.160 . S
O211 C210 1.306 . S
O211 Cd212 2.228 . S
Cd212 O211 2.228 . S
Cd212 O216 2.273 . S
Cd212 O220 2.277 . S
O213 C210 1.160 . S
O213 Cd214 2.203 . S
Cd214 O213 2.203 . S
Cd214 O216 2.411 . S
Cd214 O217 2.333 . S
Cd214 O218 2.352 . S
Cd214 O222 2.277 . S
Cd214 O223 2.356 . S
C215 O220 1.209 . S
C215 O222 1.226 . S
O216 Cd212 2.273 . S
O216 Cd214 2.411 . S
O216 C219 1.320 . S
O217 Cd214 2.333 . S
O217 C219 1.214 . S
O218 Cd214 2.352 . S
O218 C221 1.258 . S
C219 O216 1.320 . S
C219 O217 1.214 . S
O220 Cd212 2.277 . S
O220 C215 1.209 . S
C221 O218 1.258 . S
C221 O223 1.282 . S
O222 Cd214 2.277 . S
O222 C215 1.226 . S
O223 Cd214 2.356 . S
O223 C221 1.282 . S
C224 O225 1.306 . S
C224 O227 1.160 . S
O225 C224 1.306 . S
O225 Cd226 2.228 1_545 S
Cd226 O225 2.228 1_565 S
Cd226 O230 2.273 . S
Cd226 O234 2.277 . S
O227 C224 1.160 . S
O227 Cd228 2.203 . S
Cd228 O227 2.203 . S
Cd228 O230 2.411 1_545 S
Cd228 O231 2.333 1_545 S
Cd228 O232 2.352 . S
Cd228 O236 2.277 1_545 S
Cd228 O237 2.356 . S
C229 O234 1.209 . S
C229 O236 1.226 . S
O230 Cd226 2.273 . S
O230 Cd228 2.411 1_565 S
O230 C233 1.320 . S
O231 Cd228 2.333 1_565 S
O231 C233 1.214 . S
O232 Cd228 2.352 . S
O232 C235 1.258 . S
C233 O230 1.320 . S
C233 O231 1.214 . S
O234 Cd226 2.277 . S
O234 C229 1.209 . S
C235 O232 1.258 . S
C235 O237 1.282 . S
O236 Cd228 2.277 1_565 S
O236 C229 1.226 . S
O237 Cd228 2.356 . S
O237 C235 1.282 . S
C238 O239 1.306 . S
C238 O241 1.160 . S
O239 C238 1.306 . S
O239 Cd240 2.228 . S
Cd240 O239 2.228 . S
Cd240 O244 2.273 . S
Cd240 O248 2.277 . S
O241 C238 1.160 . S
O241 Cd242 2.203 . S
Cd242 O241 2.203 . S
Cd242 O244 2.411 . S
Cd242 O245 2.333 . S
Cd242 O246 2.352 . S
Cd242 O250 2.277 . S
Cd242 O251 2.356 . S
C243 O248 1.209 . S
C243 O250 1.226 . S
O244 Cd240 2.273 . S
O244 Cd242 2.411 . S
O244 C247 1.320 . S
O245 Cd242 2.333 . S
O245 C247 1.214 . S
O246 Cd242 2.352 . S
O246 C249 1.258 . S
C247 O244 1.320 . S
C247 O245 1.214 . S
O248 Cd240 2.277 . S
O248 C243 1.209 . S
C249 O246 1.258 . S
C249 O251 1.282 . S
O250 Cd242 2.277 . S
O250 C243 1.226 . S
O251 Cd242 2.356 . S
O251 C249 1.282 . S
C252 O253 1.306 . S
C252 O255 1.160 . S
O253 C252 1.306 . S
O253 Cd254 2.228 . S
Cd254 O253 2.228 . S
Cd254 O258 2.273 . S
Cd254 O262 2.277 . S
O255 C252 1.160 . S
O255 Cd256 2.203 . S
Cd256 O255 2.203 . S
Cd256 O258 2.411 . S
Cd256 O259 2.333 . S
Cd256 O260 2.352 . S
Cd256 O264 2.277 . S
Cd256 O265 2.356 . S
C257 O262 1.209 . S
C257 O264 1.226 . S
O258 Cd254 2.273 . S
O258 Cd256 2.411 . S
O258 C261 1.320 . S
O259 Cd256 2.333 . S
O259 C261 1.214 . S
O260 Cd256 2.352 . S
O260 C263 1.258 . S
C261 O258 1.320 . S
C261 O259 1.214 . S
O262 Cd254 2.277 . S
O262 C257 1.209 . S
C263 O260 1.258 . S
C263 O265 1.282 . S
O264 Cd256 2.277 . S
O264 C257 1.226 . S
O265 Cd256 2.356 . S
O265 C263 1.282 . S
C266 O267 1.306 . S
C266 O269 1.160 . S
O267 C266 1.306 . S
O267 Cd268 2.228 1_545 S
Cd268 O267 2.228 1_565 S
Cd268 O272 2.273 . S
Cd268 O276 2.277 . S
O269 C266 1.160 . S
O269 Cd270 2.203 . S
Cd270 O269 2.203 . S
Cd270 O272 2.411 1_545 S
Cd270 O273 2.333 1_545 S
Cd270 O274 2.352 . S
Cd270 O278 2.277 1_545 S
Cd270 O279 2.356 . S
C271 O276 1.209 . S
C271 O278 1.226 . S
O272 Cd268 2.273 . S
O272 Cd270 2.411 1_565 S
O272 C275 1.320 . S
O273 Cd270 2.333 1_565 S
O273 C275 1.214 . S
O274 Cd270 2.352 . S
O274 C277 1.258 . S
C275 O272 1.320 . S
C275 O273 1.214 . S
O276 Cd268 2.277 . S
O276 C271 1.209 . S
C277 O274 1.258 . S
C277 O279 1.282 . S
O278 Cd270 2.277 1_565 S
O278 C271 1.226 . S
O279 Cd270 2.356 . S
O279 C277 1.282 . S
C280 O281 1.306 . S
C280 O283 1.160 . S
O281 C280 1.306 . S
O281 Cd282 2.228 1_554 S
Cd282 O281 2.228 1_556 S
Cd282 O286 2.273 . S
Cd282 O290 2.277 . S
O283 C280 1.160 . S
O283 Cd284 2.203 . S
Cd284 O283 2.203 . S
Cd284 O286 2.411 1_554 S
Cd284 O287 2.333 1_554 S
Cd284 O288 2.352 . S
Cd284 O292 2.277 1_554 S
Cd284 O293 2.356 . S
C285 O290 1.209 . S
C285 O292 1.226 . S
O286 Cd282 2.273 . S
O286 Cd284 2.411 1_556 S
O286 C289 1.320 . S
O287 Cd284 2.333 1_556 S
O287 C289 1.214 . S
O288 Cd284 2.352 . S
O288 C291 1.258 . S
C289 O286 1.320 . S
C289 O287 1.214 . S
O290 Cd282 2.277 . S
O290 C285 1.209 . S
C291 O288 1.258 . S
C291 O293 1.282 . S
O292 Cd284 2.277 1_556 S
O292 C285 1.226 . S
O293 Cd284 2.356 . S
O293 C291 1.282 . S
C294 O295 1.306 . S
C294 O297 1.160 . S
O295 C294 1.306 . S
O295 Cd296 2.228 . S
Cd296 O295 2.228 . S
Cd296 O300 2.273 . S
Cd296 O304 2.277 . S
O297 C294 1.160 . S
O297 Cd298 2.203 . S
Cd298 O297 2.203 . S
Cd298 O300 2.411 . S
Cd298 O301 2.333 . S
Cd298 O302 2.352 . S
Cd298 O306 2.277 . S
Cd298 O307 2.356 . S
C299 O304 1.209 . S
C299 O306 1.226 . S
O300 Cd296 2.273 . S
O300 Cd298 2.411 . S
O300 C303 1.320 . S
O301 Cd298 2.333 . S
O301 C303 1.214 . S
O302 Cd298 2.352 . S
O302 C305 1.258 . S
C303 O300 1.320 . S
C303 O301 1.214 . S
O304 Cd296 2.277 . S
O304 C299 1.209 . S
C305 O302 1.258 . S
C305 O307 1.282 . S
O306 Cd298 2.277 . S
O306 C299 1.226 . S
O307 Cd298 2.356 . S
O307 C305 1.282 . S
C308 O309 1.306 . S
C308 O311 1.160 . S
O309 C308 1.306 . S
O309 Cd310 2.228 . S
Cd310 O309 2.228 . S
Cd310 O314 2.273 . S
Cd310 O318 2.277 . S
O311 C308 1.160 . S
O311 Cd312 2.203 . S
Cd312 O311 2.203 . S
Cd312 O314 2.411 . S
Cd312 O315 2.333 . S
Cd312 O316 2.352 . S
Cd312 O320 2.277 . S
Cd312 O321 2.356 . S
C313 O318 1.209 . S
C313 O320 1.226 . S
O314 Cd310 2.273 . S
O314 Cd312 2.411 . S
O314 C317 1.320 . S
O315 Cd312 2.333 . S
O315 C317 1.214 . S
O316 Cd312 2.352 . S
O316 C319 1.258 . S
C317 O314 1.320 . S
C317 O315 1.214 . S
O318 Cd310 2.277 . S
O318 C313 1.209 . S
C319 O316 1.258 . S
C319 O321 1.282 . S
O320 Cd312 2.277 . S
O320 C313 1.226 . S
O321 Cd312 2.356 . S
O321 C319 1.282 . S
C322 O323 1.306 . S
C322 O325 1.160 . S
O323 C322 1.306 . S
O323 Cd324 2.228 . S
Cd324 O323 2.228 . S
Cd324 O328 2.273 . S
Cd324 O332 2.277 . S
O325 C322 1.160 . S
O325 Cd326 2.203 . S
Cd326 O325 2.203 . S
Cd326 O328 2.411 . S
Cd326 O329 2.333 . S
Cd326 O330 2.352 . S
Cd326 O334 2.277 . S
Cd326 O335 2.356 . S
C327 O332 1.209 . S
C327 O334 1.226 . S
O328 Cd324 2.273 . S
O328 Cd326 2.411 . S
O328 C331 1.320 . S
O329 Cd326 2.333 . S
O329 C331 1.214 . S
O330 Cd326 2.352 . S
O330 C333 1.258 . S
C331 O328 1.320 . S
C331 O329 1.214 . S
O332 Cd324 2.277 . S
O332 C327 1.209 . S
C333 O330 1.258 . S
C333 O335 1.282 . S
O334 Cd326 2.277 . S
O334 C327 1.226 . S
O335 Cd326 2.356 . S
O335 C333 1.282 . S
Sc336 O339 2.025 . S
Sc336 O346 2.105 . S
Sc336 O349 2.105 . S
Sc336 O352 2.105 . S
Sc336 O355 2.105 . S
Sc337 O339 2.025 . S
Sc337 O347 2.105 . S
Sc337 O351 2.105 . S
Sc337 O353 2.105 . S
Sc337 O357 2.105 . S
Sc338 O339 2.025 . S
Sc338 O348 2.105 . S
Sc338 O350 2.105 . S
Sc338 O354 2.105 . S
Sc338 O356 2.105 . S
O339 Sc336 2.025 . S
O339 Sc337 2.025 . S
O339 Sc338 2.025 . S
C340 O346 1.268 . S
C340 O356 1.268 . S
C341 O347 1.268 . S
C341 O355 1.268 . S
C342 O348 1.268 . S
C342 O357 1.268 . S
C343 O349 1.268 . S
C343 O353 1.268 . S
C344 O350 1.268 . S
C344 O352 1.268 . S
C345 O351 1.268 . S
C345 O354 1.268 . S
O346 Sc336 2.105 . S
O346 C340 1.268 . S
O347 Sc337 2.105 . S
O347 C341 1.268 . S
O348 Sc338 2.105 . S
O348 C342 1.268 . S
O349 Sc336 2.105 . S
O349 C343 1.268 . S
O350 Sc338 2.105 . S
O350 C344 1.268 . S
O351 Sc337 2.105 . S
O351 C345 1.268 . S
O352 Sc336 2.105 . S
O352 C344 1.268 . S
O353 Sc337 2.105 . S
O353 C343 1.268 . S
O354 Sc338 2.105 . S
O354 C345 1.268 . S
O355 Sc336 2.105 . S
O355 C341 1.268 . S
O356 Sc338 2.105 . S
O356 C340 1.268 . S
O357 Sc337 2.105 . S
O357 C342 1.268 . S
Sc358 O361 2.025 . S
Sc358 O368 2.105 . S
Sc358 O371 2.105 . S
Sc358 O374 2.105 . S
Sc358 O377 2.105 . S
Sc359 O361 2.025 . S
Sc359 O369 2.105 . S
Sc359 O373 2.105 . S
Sc359 O375 2.105 . S
Sc359 O379 2.105 . S
Sc360 O361 2.025 . S
Sc360 O370 2.105 . S
Sc360 O372 2.105 . S
Sc360 O376 2.105 . S
Sc360 O378 2.105 . S
O361 Sc358 2.025 . S
O361 Sc359 2.025 . S
O361 Sc360 2.025 . S
C362 O368 1.268 . S
C362 O378 1.268 . S
C363 O369 1.268 . S
C363 O377 1.268 . S
C364 O370 1.268 . S
C364 O379 1.268 . S
C365 O371 1.268 . S
C365 O375 1.268 . S
C366 O372 1.268 . S
C366 O374 1.268 . S
C367 O373 1.268 . S
C367 O376 1.268 . S
O368 Sc358 2.105 . S
O368 C362 1.268 . S
O369 Sc359 2.105 . S
O369 C363 1.268 . S
O370 Sc360 2.105 . S
O370 C364 1.268 . S
O371 Sc358 2.105 . S
O371 C365 1.268 . S
O372 Sc360 2.105 . S
O372 C366 1.268 . S
O373 Sc359 2.105 . S
O373 C367 1.268 . S
O374 Sc358 2.105 . S
O374 C366 1.268 . S
O375 Sc359 2.105 . S
O375 C365 1.268 . S
O376 Sc360 2.105 . S
O376 C367 1.268 . S
O377 Sc358 2.105 . S
O377 C363 1.268 . S
O378 Sc360 2.105 . S
O378 C362 1.268 . S
O379 Sc359 2.105 . S
O379 C364 1.268 . S
Sc380 O383 2.025 . S
Sc380 O390 2.105 . S
Sc380 O393 2.105 . S
Sc380 O396 2.105 . S
Sc380 O399 2.105 . S
Sc381 O383 2.025 . S
Sc381 O391 2.105 . S
Sc381 O395 2.105 . S
Sc381 O397 2.105 . S
Sc381 O401 2.105 . S
Sc382 O383 2.025 . S
Sc382 O392 2.105 . S
Sc382 O394 2.105 . S
Sc382 O398 2.105 . S
Sc382 O400 2.105 . S
O383 Sc380 2.025 . S
O383 Sc381 2.025 . S
O383 Sc382 2.025 . S
C384 O390 1.268 . S
C384 O400 1.268 . S
C385 O391 1.268 . S
C385 O399 1.268 . S
C386 O392 1.268 . S
C386 O401 1.268 . S
C387 O393 1.268 . S
C387 O397 1.268 . S
C388 O394 1.268 . S
C388 O396 1.268 . S
C389 O395 1.268 . S
C389 O398 1.268 . S
O390 Sc380 2.105 . S
O390 C384 1.268 . S
O391 Sc381 2.105 . S
O391 C385 1.268 . S
O392 Sc382 2.105 . S
O392 C386 1.268 . S
O393 Sc380 2.105 . S
O393 C387 1.268 . S
O394 Sc382 2.105 . S
O394 C388 1.268 . S
O395 Sc381 2.105 . S
O395 C389 1.268 . S
O396 Sc380 2.105 . S
O396 C388 1.268 . S
O397 Sc381 2.105 . S
O397 C387 1.268 . S
O398 Sc382 2.105 . S
O398 C389 1.268 . S
O399 Sc380 2.105 . S
O399 C385 1.268 . S
O400 Sc382 2.105 . S
O400 C384 1.268 . S
O401 Sc381 2.105 . S
O401 C386 1.268 . S
Sc402 O405 2.025 . S
Sc402 O412 2.105 . S
Sc402 O415 2.105 . S
Sc402 O418 2.105 . S
Sc402 O421 2.105 . S
Sc403 O405 2.025 . S
Sc403 O413 2.105 . S
Sc403 O417 2.105 . S
Sc403 O419 2.105 . S
Sc403 O423 2.105 . S
Sc404 O405 2.025 . S
Sc404 O414 2.105 . S
Sc404 O416 2.105 . S
Sc404 O420 2.105 . S
Sc404 O422 2.105 . S
O405 Sc402 2.025 . S
O405 Sc403 2.025 . S
O405 Sc404 2.025 . S
C406 O412 1.268 . S
C406 O422 1.268 . S
C407 O413 1.268 . S
C407 O421 1.268 . S
C408 O414 1.268 . S
C408 O423 1.268 . S
C409 O415 1.268 . S
C409 O419 1.268 . S
C410 O416 1.268 . S
C410 O418 1.268 . S
C411 O417 1.268 . S
C411 O420 1.268 . S
O412 Sc402 2.105 . S
O412 C406 1.268 . S
O413 Sc403 2.105 . S
O413 C407 1.268 . S
O414 Sc404 2.105 . S
O414 C408 1.268 . S
O415 Sc402 2.105 . S
O415 C409 1.268 . S
O416 Sc404 2.105 . S
O416 C410 1.268 . S
O417 Sc403 2.105 . S
O417 C411 1.268 . S
O418 Sc402 2.105 . S
O418 C410 1.268 . S
O419 Sc403 2.105 . S
O419 C409 1.268 . S
O420 Sc404 2.105 . S
O420 C411 1.268 . S
O421 Sc402 2.105 . S
O421 C407 1.268 . S
O422 Sc404 2.105 . S
O422 C406 1.268 . S
O423 Sc403 2.105 . S
O423 C408 1.268 . S
Sc424 O427 2.025 . S
Sc424 O434 2.105 . S
Sc424 O437 2.105 . S
Sc424 O440 2.105 . S
Sc424 O443 2.105 . S
Sc425 O427 2.025 . S
Sc425 O435 2.105 . S
Sc425 O439 2.105 . S
Sc425 O441 2.105 . S
Sc425 O445 2.105 . S
Sc426 O427 2.025 . S
Sc426 O436 2.105 . S
Sc426 O438 2.105 . S
Sc426 O442 2.105 . S
Sc426 O444 2.105 . S
O427 Sc424 2.025 . S
O427 Sc425 2.025 . S
O427 Sc426 2.025 . S
C428 O434 1.268 . S
C428 O444 1.268 . S
C429 O435 1.268 . S
C429 O443 1.268 . S
C430 O436 1.268 . S
C430 O445 1.268 . S
C431 O437 1.268 . S
C431 O441 1.268 . S
C432 O438 1.268 . S
C432 O440 1.268 . S
C433 O439 1.268 . S
C433 O442 1.268 . S
O434 Sc424 2.105 . S
O434 C428 1.268 . S
O435 Sc425 2.105 . S
O435 C429 1.268 . S
O436 Sc426 2.105 . S
O436 C430 1.268 . S
O437 Sc424 2.105 . S
O437 C431 1.268 . S
O438 Sc426 2.105 . S
O438 C432 1.268 . S
O439 Sc425 2.105 . S
O439 C433 1.268 . S
O440 Sc424 2.105 . S
O440 C432 1.268 . S
O441 Sc425 2.105 . S
O441 C431 1.268 . S
O442 Sc426 2.105 . S
O442 C433 1.268 . S
O443 Sc424 2.105 . S
O443 C429 1.268 . S
O444 Sc426 2.105 . S
O444 C428 1.268 . S
O445 Sc425 2.105 . S
O445 C430 1.268 . S
Sc446 O449 2.025 . S
Sc446 O456 2.105 . S
Sc446 O459 2.105 . S
Sc446 O462 2.105 . S
Sc446 O465 2.105 . S
Sc447 O449 2.025 . S
Sc447 O457 2.105 . S
Sc447 O461 2.105 . S
Sc447 O463 2.105 . S
Sc447 O467 2.105 . S
Sc448 O449 2.025 . S
Sc448 O458 2.105 . S
Sc448 O460 2.105 . S
Sc448 O464 2.105 . S
Sc448 O466 2.105 . S
O449 Sc446 2.025 . S
O449 Sc447 2.025 . S
O449 Sc448 2.025 . S
C450 O456 1.268 . S
C450 O466 1.268 . S
C451 O457 1.268 . S
C451 O465 1.268 . S
C452 O458 1.268 . S
C452 O467 1.268 . S
C453 O459 1.268 . S
C453 O463 1.268 . S
C454 O460 1.268 . S
C454 O462 1.268 . S
C455 O461 1.268 . S
C455 O464 1.268 . S
O456 Sc446 2.105 . S
O456 C450 1.268 . S
O457 Sc447 2.105 . S
O457 C451 1.268 . S
O458 Sc448 2.105 . S
O458 C452 1.268 . S
O459 Sc446 2.105 . S
O459 C453 1.268 . S
O460 Sc448 2.105 . S
O460 C454 1.268 . S
O461 Sc447 2.105 . S
O461 C455 1.268 . S
O462 Sc446 2.105 . S
O462 C454 1.268 . S
O463 Sc447 2.105 . S
O463 C453 1.268 . S
O464 Sc448 2.105 . S
O464 C455 1.268 . S
O465 Sc446 2.105 . S
O465 C451 1.268 . S
O466 Sc448 2.105 . S
O466 C450 1.268 . S
O467 Sc447 2.105 . S
O467 C452 1.268 . S
Sc468 O471 2.025 . S
Sc468 O478 2.105 . S
Sc468 O481 2.105 . S
Sc468 O484 2.105 . S
Sc468 O487 2.105 . S
Sc469 O471 2.025 . S
Sc469 O479 2.105 . S
Sc469 O483 2.105 . S
Sc469 O485 2.105 . S
Sc469 O489 2.105 . S
Sc470 O471 2.025 . S
Sc470 O480 2.105 . S
Sc470 O482 2.105 . S
Sc470 O486 2.105 . S
Sc470 O488 2.105 . S
O471 Sc468 2.025 . S
O471 Sc469 2.025 . S
O471 Sc470 2.025 . S
C472 O478 1.268 . S
C472 O488 1.268 . S
C473 O479 1.268 . S
C473 O487 1.268 . S
C474 O480 1.268 . S
C474 O489 1.268 . S
C475 O481 1.268 . S
C475 O485 1.268 . S
C476 O482 1.268 . S
C476 O484 1.268 . S
C477 O483 1.268 . S
C477 O486 1.268 . S
O478 Sc468 2.105 . S
O478 C472 1.268 . S
O479 Sc469 2.105 . S
O479 C473 1.268 . S
O480 Sc470 2.105 . S
O480 C474 1.268 . S
O481 Sc468 2.105 . S
O481 C475 1.268 . S
O482 Sc470 2.105 . S
O482 C476 1.268 . S
O483 Sc469 2.105 . S
O483 C477 1.268 . S
O484 Sc468 2.105 . S
O484 C476 1.268 . S
O485 Sc469 2.105 . S
O485 C475 1.268 . S
O486 Sc470 2.105 . S
O486 C477 1.268 . S
O487 Sc468 2.105 . S
O487 C473 1.268 . S
O488 Sc470 2.105 . S
O488 C472 1.268 . S
O489 Sc469 2.105 . S
O489 C474 1.268 . S
Sc490 O493 2.025 . S
Sc490 O500 2.105 . S
Sc490 O503 2.105 . S
Sc490 O506 2.105 . S
Sc490 O509 2.105 . S
Sc491 O493 2.025 . S
Sc491 O501 2.105 . S
Sc491 O505 2.105 . S
Sc491 O507 2.105 . S
Sc491 O511 2.105 . S
Sc492 O493 2.025 . S
Sc492 O502 2.105 . S
Sc492 O504 2.105 . S
Sc492 O508 2.105 . S
Sc492 O510 2.105 . S
O493 Sc490 2.025 . S
O493 Sc491 2.025 . S
O493 Sc492 2.025 . S
C494 O500 1.268 . S
C494 O510 1.268 . S
C495 O501 1.268 . S
C495 O509 1.268 . S
C496 O502 1.268 . S
C496 O511 1.268 . S
C497 O503 1.268 . S
C497 O507 1.268 . S
C498 O504 1.268 . S
C498 O506 1.268 . S
C499 O505 1.268 . S
C499 O508 1.268 . S
O500 Sc490 2.105 . S
O500 C494 1.268 . S
O501 Sc491 2.105 . S
O501 C495 1.268 . S
O502 Sc492 2.105 . S
O502 C496 1.268 . S
O503 Sc490 2.105 . S
O503 C497 1.268 . S
O504 Sc492 2.105 . S
O504 C498 1.268 . S
O505 Sc491 2.105 . S
O505 C499 1.268 . S
O506 Sc490 2.105 . S
O506 C498 1.268 . S
O507 Sc491 2.105 . S
O507 C497 1.268 . S
O508 Sc492 2.105 . S
O508 C499 1.268 . S
O509 Sc490 2.105 . S
O509 C495 1.268 . S
O510 Sc492 2.105 . S
O510 C494 1.268 . S
O511 Sc491 2.105 . S
O511 C496 1.268 . S
Sc512 O515 2.025 . S
Sc512 O522 2.105 . S
Sc512 O525 2.105 . S
Sc512 O528 2.105 . S
Sc512 O531 2.105 . S
Sc513 O515 2.025 . S
Sc513 O523 2.105 . S
Sc513 O527 2.105 . S
Sc513 O529 2.105 . S
Sc513 O533 2.105 . S
Sc514 O515 2.025 . S
Sc514 O524 2.105 . S
Sc514 O526 2.105 . S
Sc514 O530 2.105 . S
Sc514 O532 2.105 . S
O515 Sc512 2.025 . S
O515 Sc513 2.025 . S
O515 Sc514 2.025 . S
C516 O522 1.268 . S
C516 O532 1.268 . S
C517 O523 1.268 . S
C517 O531 1.268 . S
C518 O524 1.268 . S
C518 O533 1.268 . S
C519 O525 1.268 . S
C519 O529 1.268 . S
C520 O526 1.268 . S
C520 O528 1.268 . S
C521 O527 1.268 . S
C521 O530 1.268 . S
O522 Sc512 2.105 . S
O522 C516 1.268 . S
O523 Sc513 2.105 . S
O523 C517 1.268 . S
O524 Sc514 2.105 . S
O524 C518 1.268 . S
O525 Sc512 2.105 . S
O525 C519 1.268 . S
O526 Sc514 2.105 . S
O526 C520 1.268 . S
O527 Sc513 2.105 . S
O527 C521 1.268 . S
O528 Sc512 2.105 . S
O528 C520 1.268 . S
O529 Sc513 2.105 . S
O529 C519 1.268 . S
O530 Sc514 2.105 . S
O530 C521 1.268 . S
O531 Sc512 2.105 . S
O531 C517 1.268 . S
O532 Sc514 2.105 . S
O532 C516 1.268 . S
O533 Sc513 2.105 . S
O533 C518 1.268 . S
Sc534 O537 2.025 . S
Sc534 O544 2.105 . S
Sc534 O547 2.105 . S
Sc534 O550 2.105 . S
Sc534 O553 2.105 . S
Sc535 O537 2.025 . S
Sc535 O545 2.105 . S
Sc535 O549 2.105 . S
Sc535 O551 2.105 . S
Sc535 O555 2.105 . S
Sc536 O537 2.025 . S
Sc536 O546 2.105 . S
Sc536 O548 2.105 . S
Sc536 O552 2.105 . S
Sc536 O554 2.105 . S
O537 Sc534 2.025 . S
O537 Sc535 2.025 . S
O537 Sc536 2.025 . S
C538 O544 1.268 . S
C538 O554 1.268 . S
C539 O545 1.268 . S
C539 O553 1.268 . S
C540 O546 1.268 . S
C540 O555 1.268 . S
C541 O547 1.268 . S
C541 O551 1.268 . S
C542 O548 1.268 . S
C542 O550 1.268 . S
C543 O549 1.268 . S
C543 O552 1.268 . S
O544 Sc534 2.105 . S
O544 C538 1.268 . S
O545 Sc535 2.105 . S
O545 C539 1.268 . S
O546 Sc536 2.105 . S
O546 C540 1.268 . S
O547 Sc534 2.105 . S
O547 C541 1.268 . S
O548 Sc536 2.105 . S
O548 C542 1.268 . S
O549 Sc535 2.105 . S
O549 C543 1.268 . S
O550 Sc534 2.105 . S
O550 C542 1.268 . S
O551 Sc535 2.105 . S
O551 C541 1.268 . S
O552 Sc536 2.105 . S
O552 C543 1.268 . S
O553 Sc534 2.105 . S
O553 C539 1.268 . S
O554 Sc536 2.105 . S
O554 C538 1.268 . S
O555 Sc535 2.105 . S
O555 C540 1.268 . S
Sc556 O559 2.025 . S
Sc556 O566 2.105 . S
Sc556 O569 2.105 . S
Sc556 O572 2.105 . S
Sc556 O575 2.105 . S
Sc557 O559 2.025 . S
Sc557 O567 2.105 . S
Sc557 O571 2.105 . S
Sc557 O573 2.105 . S
Sc557 O577 2.105 . S
Sc558 O559 2.025 . S
Sc558 O568 2.105 . S
Sc558 O570 2.105 . S
Sc558 O574 2.105 . S
Sc558 O576 2.105 . S
O559 Sc556 2.025 . S
O559 Sc557 2.025 . S
O559 Sc558 2.025 . S
C560 O566 1.268 . S
C560 O576 1.268 . S
C561 O567 1.268 . S
C561 O575 1.268 . S
C562 O568 1.268 . S
C562 O577 1.268 . S
C563 O569 1.268 . S
C563 O573 1.268 . S
C564 O570 1.268 . S
C564 O572 1.268 . S
C565 O571 1.268 . S
C565 O574 1.268 . S
O566 Sc556 2.105 . S
O566 C560 1.268 . S
O567 Sc557 2.105 . S
O567 C561 1.268 . S
O568 Sc558 2.105 . S
O568 C562 1.268 . S
O569 Sc556 2.105 . S
O569 C563 1.268 . S
O570 Sc558 2.105 . S
O570 C564 1.268 . S
O571 Sc557 2.105 . S
O571 C565 1.268 . S
O572 Sc556 2.105 . S
O572 C564 1.268 . S
O573 Sc557 2.105 . S
O573 C563 1.268 . S
O574 Sc558 2.105 . S
O574 C565 1.268 . S
O575 Sc556 2.105 . S
O575 C561 1.268 . S
O576 Sc558 2.105 . S
O576 C560 1.268 . S
O577 Sc557 2.105 . S
O577 C562 1.268 . S
Sc578 O581 2.025 . S
Sc578 O588 2.105 . S
Sc578 O591 2.105 . S
Sc578 O594 2.105 . S
Sc578 O597 2.105 . S
Sc579 O581 2.025 . S
Sc579 O589 2.105 . S
Sc579 O593 2.105 . S
Sc579 O595 2.105 . S
Sc579 O599 2.105 . S
Sc580 O581 2.025 . S
Sc580 O590 2.105 . S
Sc580 O592 2.105 . S
Sc580 O596 2.105 . S
Sc580 O598 2.105 . S
O581 Sc578 2.025 . S
O581 Sc579 2.025 . S
O581 Sc580 2.025 . S
C582 O588 1.268 . S
C582 O598 1.268 . S
C583 O589 1.268 . S
C583 O597 1.268 . S
C584 O590 1.268 . S
C584 O599 1.268 . S
C585 O591 1.268 . S
C585 O595 1.268 . S
C586 O592 1.268 . S
C586 O594 1.268 . S
C587 O593 1.268 . S
C587 O596 1.268 . S
O588 Sc578 2.105 . S
O588 C582 1.268 . S
O589 Sc579 2.105 . S
O589 C583 1.268 . S
O590 Sc580 2.105 . S
O590 C584 1.268 . S
O591 Sc578 2.105 . S
O591 C585 1.268 . S
O592 Sc580 2.105 . S
O592 C586 1.268 . S
O593 Sc579 2.105 . S
O593 C587 1.268 . S
O594 Sc578 2.105 . S
O594 C586 1.268 . S
O595 Sc579 2.105 . S
O595 C585 1.268 . S
O596 Sc580 2.105 . S
O596 C587 1.268 . S
O597 Sc578 2.105 . S
O597 C583 1.268 . S
O598 Sc580 2.105 . S
O598 C582 1.268 . S
O599 Sc579 2.105 . S
O599 C584 1.268 . S
Sc600 O603 2.025 . S
Sc600 O610 2.105 . S
Sc600 O613 2.105 . S
Sc600 O616 2.105 . S
Sc600 O619 2.105 . S
Sc601 O603 2.025 . S
Sc601 O611 2.105 . S
Sc601 O615 2.105 . S
Sc601 O617 2.105 . S
Sc601 O621 2.105 . S
Sc602 O603 2.025 . S
Sc602 O612 2.105 . S
Sc602 O614 2.105 . S
Sc602 O618 2.105 . S
Sc602 O620 2.105 . S
O603 Sc600 2.025 . S
O603 Sc601 2.025 . S
O603 Sc602 2.025 . S
C604 O610 1.268 . S
C604 O620 1.268 . S
C605 O611 1.268 . S
C605 O619 1.268 . S
C606 O612 1.268 . S
C606 O621 1.268 . S
C607 O613 1.268 . S
C607 O617 1.268 . S
C608 O614 1.268 . S
C608 O616 1.268 . S
C609 O615 1.268 . S
C609 O618 1.268 . S
O610 Sc600 2.105 . S
O610 C604 1.268 . S
O611 Sc601 2.105 . S
O611 C605 1.268 . S
O612 Sc602 2.105 . S
O612 C606 1.268 . S
O613 Sc600 2.105 . S
O613 C607 1.268 . S
O614 Sc602 2.105 . S
O614 C608 1.268 . S
O615 Sc601 2.105 . S
O615 C609 1.268 . S
O616 Sc600 2.105 . S
O616 C608 1.268 . S
O617 Sc601 2.105 . S
O617 C607 1.268 . S
O618 Sc602 2.105 . S
O618 C609 1.268 . S
O619 Sc600 2.105 . S
O619 C605 1.268 . S
O620 Sc602 2.105 . S
O620 C604 1.268 . S
O621 Sc601 2.105 . S
O621 C606 1.268 . S
Sc622 O625 2.025 . S
Sc622 O632 2.105 . S
Sc622 O635 2.105 . S
Sc622 O638 2.105 . S
Sc622 O641 2.105 . S
Sc623 O625 2.025 . S
Sc623 O633 2.105 . S
Sc623 O637 2.105 . S
Sc623 O639 2.105 . S
Sc623 O643 2.105 . S
Sc624 O625 2.025 . S
Sc624 O634 2.105 . S
Sc624 O636 2.105 . S
Sc624 O640 2.105 . S
Sc624 O642 2.105 . S
O625 Sc622 2.025 . S
O625 Sc623 2.025 . S
O625 Sc624 2.025 . S
C626 O632 1.268 . S
C626 O642 1.268 . S
C627 O633 1.268 . S
C627 O641 1.268 . S
C628 O634 1.268 . S
C628 O643 1.268 . S
C629 O635 1.268 . S
C629 O639 1.268 . S
C630 O636 1.268 . S
C630 O638 1.268 . S
C631 O637 1.268 . S
C631 O640 1.268 . S
O632 Sc622 2.105 . S
O632 C626 1.268 . S
O633 Sc623 2.105 . S
O633 C627 1.268 . S
O634 Sc624 2.105 . S
O634 C628 1.268 . S
O635 Sc622 2.105 . S
O635 C629 1.268 . S
O636 Sc624 2.105 . S
O636 C630 1.268 . S
O637 Sc623 2.105 . S
O637 C631 1.268 . S
O638 Sc622 2.105 . S
O638 C630 1.268 . S
O639 Sc623 2.105 . S
O639 C629 1.268 . S
O640 Sc624 2.105 . S
O640 C631 1.268 . S
O641 Sc622 2.105 . S
O641 C627 1.268 . S
O642 Sc624 2.105 . S
O642 C626 1.268 . S
O643 Sc623 2.105 . S
O643 C628 1.268 . S
Sc644 O647 2.025 . S
Sc644 O654 2.105 . S
Sc644 O657 2.105 . S
Sc644 O660 2.105 . S
Sc644 O663 2.105 . S
Sc645 O647 2.025 . S
Sc645 O655 2.105 . S
Sc645 O659 2.105 . S
Sc645 O661 2.105 . S
Sc645 O665 2.105 . S
Sc646 O647 2.025 . S
Sc646 O656 2.105 . S
Sc646 O658 2.105 . S
Sc646 O662 2.105 . S
Sc646 O664 2.105 . S
O647 Sc644 2.025 . S
O647 Sc645 2.025 . S
O647 Sc646 2.025 . S
C648 O654 1.268 . S
C648 O664 1.268 . S
C649 O655 1.268 . S
C649 O663 1.268 . S
C650 O656 1.268 . S
C650 O665 1.268 . S
C651 O657 1.268 . S
C651 O661 1.268 . S
C652 O658 1.268 . S
C652 O660 1.268 . S
C653 O659 1.268 . S
C653 O662 1.268 . S
O654 Sc644 2.105 . S
O654 C648 1.268 . S
O655 Sc645 2.105 . S
O655 C649 1.268 . S
O656 Sc646 2.105 . S
O656 C650 1.268 . S
O657 Sc644 2.105 . S
O657 C651 1.268 . S
O658 Sc646 2.105 . S
O658 C652 1.268 . S
O659 Sc645 2.105 . S
O659 C653 1.268 . S
O660 Sc644 2.105 . S
O660 C652 1.268 . S
O661 Sc645 2.105 . S
O661 C651 1.268 . S
O662 Sc646 2.105 . S
O662 C653 1.268 . S
O663 Sc644 2.105 . S
O663 C649 1.268 . S
O664 Sc646 2.105 . S
O664 C648 1.268 . S
O665 Sc645 2.105 . S
O665 C650 1.268 . S
Sc666 O669 2.025 . S
Sc666 O676 2.105 . S
Sc666 O679 2.105 . S
Sc666 O682 2.105 . S
Sc666 O685 2.105 . S
Sc667 O669 2.025 . S
Sc667 O677 2.105 . S
Sc667 O681 2.105 . S
Sc667 O683 2.105 . S
Sc667 O687 2.105 . S
Sc668 O669 2.025 . S
Sc668 O678 2.105 . S
Sc668 O680 2.105 . S
Sc668 O684 2.105 . S
Sc668 O686 2.105 . S
O669 Sc666 2.025 . S
O669 Sc667 2.025 . S
O669 Sc668 2.025 . S
C670 O676 1.268 . S
C670 O686 1.268 . S
C671 O677 1.268 . S
C671 O685 1.268 . S
C672 O678 1.268 . S
C672 O687 1.268 . S
C673 O679 1.268 . S
C673 O683 1.268 . S
C674 O680 1.268 . S
C674 O682 1.268 . S
C675 O681 1.268 . S
C675 O684 1.268 . S
O676 Sc666 2.105 . S
O676 C670 1.268 . S
O677 Sc667 2.105 . S
O677 C671 1.268 . S
O678 Sc668 2.105 . S
O678 C672 1.268 . S
O679 Sc666 2.105 . S
O679 C673 1.268 . S
O680 Sc668 2.105 . S
O680 C674 1.268 . S
O681 Sc667 2.105 . S
O681 C675 1.268 . S
O682 Sc666 2.105 . S
O682 C674 1.268 . S
O683 Sc667 2.105 . S
O683 C673 1.268 . S
O684 Sc668 2.105 . S
O684 C675 1.268 . S
O685 Sc666 2.105 . S
O685 C671 1.268 . S
O686 Sc668 2.105 . S
O686 C670 1.268 . S
O687 Sc667 2.105 . S
O687 C672 1.268 . S
H688 C700 0.930 . S
H689 C702 0.930 . S
H690 C703 0.930 . S
H691 C707 0.959 . S
H692 C707 0.959 . S
H693 C707 0.961 . S
H694 C708 0.960 . S
H695 C708 0.961 . S
H696 C708 0.959 . S
H697 C711 0.929 . S
H698 C712 0.931 . S
H699 C714 0.930 . S
C700 H688 0.930 . S
C700 C701 1.399 . S
C700 C705 1.399 . S
C701 C700 1.399 . S
C701 C702 1.376 . S
C702 H689 0.930 . S
C702 C701 1.376 . S
C702 C703 1.388 . S
C703 H690 0.930 . S
C703 C702 1.388 . S
C703 C704 1.390 . S
C704 C703 1.390 . S
C704 C705 1.394 . S
C704 C710 1.465 . S
C705 C700 1.399 . S
C705 C704 1.394 . S
C705 C706 1.516 . S
C706 C705 1.516 . S
C706 C707 1.502 . S
C706 C708 1.561 . S
C706 C709 1.526 . S
C707 H691 0.959 . S
C707 H692 0.959 . S
C707 H693 0.961 . S
C707 C706 1.502 . S
C708 H694 0.960 . S
C708 H695 0.961 . S
C708 H696 0.959 . S
C708 C706 1.561 . S
C709 C706 1.526 . S
C709 C710 1.396 . S
C709 C714 1.390 . S
C710 C704 1.465 . S
C710 C709 1.396 . S
C710 C711 1.399 . S
C711 H697 0.929 . S
C711 C710 1.399 . S
C711 C712 1.385 . S
C712 H698 0.931 . S
C712 C711 1.385 . S
C712 C713 1.389 . S
C713 C712 1.389 . S
C713 C714 1.387 . S
C714 H699 0.930 . S
C714 C709 1.390 . S
C714 C713 1.387 . S
H715 C727 0.930 . S
H716 C729 0.930 . S
H717 C730 0.930 . S
H718 C734 0.959 . S
H719 C734 0.959 . S
H720 C734 0.961 . S
H721 C735 0.960 . S
H722 C735 0.961 . S
H723 C735 0.959 . S
H724 C738 0.929 . S
H725 C739 0.931 . S
H726 C741 0.930 . S
C727 H715 0.930 . S
C727 C728 1.399 . S
C727 C732 1.399 . S
C728 C727 1.399 . S
C728 C729 1.376 . S
C729 H716 0.930 . S
C729 C728 1.376 . S
C729 C730 1.388 . S
C730 H717 0.930 . S
C730 C729 1.388 . S
C730 C731 1.390 . S
C731 C730 1.390 . S
C731 C732 1.394 . S
C731 C737 1.465 . S
C732 C727 1.399 . S
C732 C731 1.394 . S
C732 C733 1.516 . S
C733 C732 1.516 . S
C733 C734 1.502 . S
C733 C735 1.561 . S
C733 C736 1.526 . S
C734 H718 0.959 . S
C734 H719 0.959 . S
C734 H720 0.961 . S
C734 C733 1.502 . S
C735 H721 0.960 . S
C735 H722 0.961 . S
C735 H723 0.959 . S
C735 C733 1.561 . S
C736 C733 1.526 . S
C736 C737 1.396 . S
C736 C741 1.390 . S
C737 C731 1.465 . S
C737 C736 1.396 . S
C737 C738 1.399 . S
C738 H724 0.929 . S
C738 C737 1.399 . S
C738 C739 1.385 . S
C739 H725 0.931 . S
C739 C738 1.385 . S
C739 C740 1.389 . S
C740 C739 1.389 . S
C740 C741 1.387 . S
C741 H726 0.930 . S
C741 C736 1.390 . S
C741 C740 1.387 . S
H742 C754 0.930 . S
H743 C756 0.930 . S
H744 C757 0.930 . S
H745 C761 0.959 . S
H746 C761 0.959 . S
H747 C761 0.961 . S
H748 C762 0.960 . S
H749 C762 0.961 . S
H750 C762 0.959 . S
H751 C765 0.929 . S
H752 C766 0.931 . S
H753 C768 0.930 . S
C754 H742 0.930 . S
C754 C755 1.399 . S
C754 C759 1.399 . S
C755 C754 1.399 . S
C755 C756 1.376 . S
C756 H743 0.930 . S
C756 C755 1.376 . S
C756 C757 1.388 . S
C757 H744 0.930 . S
C757 C756 1.388 . S
C757 C758 1.390 . S
C758 C757 1.390 . S
C758 C759 1.394 . S
C758 C764 1.465 . S
C759 C754 1.399 . S
C759 C758 1.394 . S
C759 C760 1.516 . S
C760 C759 1.516 . S
C760 C761 1.502 . S
C760 C762 1.561 . S
C760 C763 1.526 . S
C761 H745 0.959 . S
C761 H746 0.959 . S
C761 H747 0.961 . S
C761 C760 1.502 . S
C762 H748 0.960 . S
C762 H749 0.961 . S
C762 H750 0.959 . S
C762 C760 1.561 . S
C763 C760 1.526 . S
C763 C764 1.396 . S
C763 C768 1.390 . S
C764 C758 1.465 . S
C764 C763 1.396 . S
C764 C765 1.399 . S
C765 H751 0.929 . S
C765 C764 1.399 . S
C765 C766 1.385 . S
C766 H752 0.931 . S
C766 C765 1.385 . S
C766 C767 1.389 . S
C767 C766 1.389 . S
C767 C768 1.387 . S
C768 H753 0.930 . S
C768 C763 1.390 . S
C768 C767 1.387 . S
H769 C781 0.930 . S
H770 C783 0.930 . S
H771 C784 0.930 . S
H772 C788 0.959 . S
H773 C788 0.959 1_556 S
H774 C788 0.961 . S
H775 C789 0.960 . S
H776 C789 0.961 . S
H777 C789 0.959 . S
H778 C792 0.929 . S
H779 C793 0.931 . S
H780 C795 0.930 . S
C781 H769 0.930 . S
C781 C782 1.399 . S
C781 C786 1.399 . S
C782 C781 1.399 . S
C782 C783 1.376 . S
C783 H770 0.930 . S
C783 C782 1.376 . S
C783 C784 1.388 . S
C784 H771 0.930 . S
C784 C783 1.388 . S
C784 C785 1.390 . S
C785 C784 1.390 . S
C785 C786 1.394 . S
C785 C791 1.465 . S
C786 C781 1.399 . S
C786 C785 1.394 . S
C786 C787 1.516 . S
C787 C786 1.516 . S
C787 C788 1.502 . S
C787 C789 1.561 1_554 S
C787 C790 1.526 1_554 S
C788 H772 0.959 . S
C788 H773 0.959 1_554 S
C788 H774 0.961 . S
C788 C787 1.502 . S
C789 H775 0.960 . S
C789 H776 0.961 . S
C789 H777 0.959 . S
C789 C787 1.561 1_556 S
C790 C787 1.526 1_556 S
C790 C791 1.396 1_556 S
C790 C795 1.390 . S
C791 C785 1.465 . S
C791 C790 1.396 1_554 S
C791 C792 1.399 . S
C792 H778 0.929 . S
C792 C791 1.399 . S
C792 C793 1.385 1_554 S
C793 H779 0.931 . S
C793 C792 1.385 1_556 S
C793 C794 1.389 . S
C794 C793 1.389 . S
C794 C795 1.387 . S
C795 H780 0.930 . S
C795 C790 1.390 . S
C795 C794 1.387 . S
H796 C808 0.930 . S
H797 C810 0.930 . S
H798 C811 0.930 . S
H799 C815 0.959 . S
H800 C815 0.959 . S
H801 C815 0.961 . S
H802 C816 0.960 . S
H803 C816 0.961 . S
H804 C816 0.959 . S
H805 C819 0.929 . S
H806 C820 0.931 . S
H807 C822 0.930 . S
C808 H796 0.930 . S
C808 C809 1.399 . S
C808 C813 1.399 . S
C809 C808 1.399 . S
C809 C810 1.376 . S
C810 H797 0.930 . S
C810 C809 1.376 . S
C810 C811 1.388 . S
C811 H798 0.930 . S
C811 C810 1.388 . S
C811 C812 1.390 . S
C812 C811 1.390 . S
C812 C813 1.394 . S
C812 C818 1.465 . S
C813 C808 1.399 . S
C813 C812 1.394 . S
C813 C814 1.516 . S
C814 C813 1.516 . S
C814 C815 1.502 . S
C814 C816 1.561 . S
C814 C817 1.526 . S
C815 H799 0.959 . S
C815 H800 0.959 . S
C815 H801 0.961 . S
C815 C814 1.502 . S
C816 H802 0.960 . S
C816 H803 0.961 . S
C816 H804 0.959 . S
C816 C814 1.561 . S
C817 C814 1.526 . S
C817 C818 1.396 . S
C817 C822 1.390 . S
C818 C812 1.465 . S
C818 C817 1.396 . S
C818 C819 1.399 . S
C819 H805 0.929 . S
C819 C818 1.399 . S
C819 C820 1.385 . S
C820 H806 0.931 . S
C820 C819 1.385 . S
C820 C821 1.389 . S
C821 C820 1.389 . S
C821 C822 1.387 . S
C822 H807 0.930 . S
C822 C817 1.390 . S
C822 C821 1.387 . S
H823 C835 0.930 . S
H824 C837 0.930 . S
H825 C838 0.930 . S
H826 C842 0.959 . S
H827 C842 0.959 . S
H828 C842 0.961 . S
H829 C843 0.960 . S
H830 C843 0.961 . S
H831 C843 0.959 . S
H832 C846 0.929 . S
H833 C847 0.931 . S
H834 C849 0.930 . S
C835 H823 0.930 . S
C835 C836 1.399 . S
C835 C840 1.399 . S
C836 C835 1.399 . S
C836 C837 1.376 . S
C837 H824 0.930 . S
C837 C836 1.376 . S
C837 C838 1.388 . S
C838 H825 0.930 . S
C838 C837 1.388 . S
C838 C839 1.390 . S
C839 C838 1.390 . S
C839 C840 1.394 . S
C839 C845 1.465 . S
C840 C835 1.399 . S
C840 C839 1.394 . S
C840 C841 1.516 . S
C841 C840 1.516 . S
C841 C842 1.502 . S
C841 C843 1.561 . S
C841 C844 1.526 . S
C842 H826 0.959 . S
C842 H827 0.959 . S
C842 H828 0.961 . S
C842 C841 1.502 . S
C843 H829 0.960 . S
C843 H830 0.961 . S
C843 H831 0.959 . S
C843 C841 1.561 . S
C844 C841 1.526 . S
C844 C845 1.396 . S
C844 C849 1.390 . S
C845 C839 1.465 . S
C845 C844 1.396 . S
C845 C846 1.399 . S
C846 H832 0.929 . S
C846 C845 1.399 . S
C846 C847 1.385 . S
C847 H833 0.931 . S
C847 C846 1.385 . S
C847 C848 1.389 . S
C848 C847 1.389 . S
C848 C849 1.387 . S
C849 H834 0.930 . S
C849 C844 1.390 . S
C849 C848 1.387 . S
H850 C862 0.930 . S
H851 C864 0.930 . S
H852 C865 0.930 . S
H853 C869 0.959 . S
H854 C869 0.959 . S
H855 C869 0.961 . S
H856 C870 0.960 . S
H857 C870 0.961 . S
H858 C870 0.959 . S
H859 C873 0.929 . S
H860 C874 0.931 . S
H861 C876 0.930 . S
C862 H850 0.930 . S
C862 C863 1.399 . S
C862 C867 1.399 . S
C863 C862 1.399 . S
C863 C864 1.376 . S
C864 H851 0.930 . S
C864 C863 1.376 . S
C864 C865 1.388 . S
C865 H852 0.930 . S
C865 C864 1.388 . S
C865 C866 1.390 . S
C866 C865 1.390 . S
C866 C867 1.394 . S
C866 C872 1.465 . S
C867 C862 1.399 . S
C867 C866 1.394 . S
C867 C868 1.516 . S
C868 C867 1.516 . S
C868 C869 1.502 . S
C868 C870 1.561 . S
C868 C871 1.526 . S
C869 H853 0.959 . S
C869 H854 0.959 . S
C869 H855 0.961 . S
C869 C868 1.502 . S
C870 H856 0.960 . S
C870 H857 0.961 . S
C870 H858 0.959 . S
C870 C868 1.561 . S
C871 C868 1.526 . S
C871 C872 1.396 . S
C871 C876 1.390 . S
C872 C866 1.465 . S
C872 C871 1.396 . S
C872 C873 1.399 . S
C873 H859 0.929 . S
C873 C872 1.399 . S
C873 C874 1.385 . S
C874 H860 0.931 . S
C874 C873 1.385 . S
C874 C875 1.389 . S
C875 C874 1.389 . S
C875 C876 1.387 . S
C876 H861 0.930 . S
C876 C871 1.390 . S
C876 C875 1.387 . S
H877 C889 0.930 . S
H878 C891 0.930 . S
H879 C892 0.930 . S
H880 C896 0.962 . S
H881 C896 0.959 . S
H882 C896 0.961 . S
H883 C897 0.960 . S
H884 C897 0.961 . S
H885 C897 0.959 . S
H886 C900 0.929 . S
H887 C901 0.931 . S
H888 C903 0.930 . S
C889 H877 0.930 . S
C889 C890 1.399 . S
C889 C894 1.399 . S
C890 C889 1.399 . S
C890 C891 1.376 . S
C891 H878 0.930 . S
C891 C890 1.376 . S
C891 C892 1.388 . S
C892 H879 0.930 . S
C892 C891 1.388 . S
C892 C893 1.390 . S
C893 C892 1.390 . S
C893 C894 1.394 . S
C893 C899 1.465 1_556 S
C894 C889 1.399 . S
C894 C893 1.394 . S
C894 C895 1.516 . S
C895 C894 1.516 . S
C895 C896 1.502 . S
C895 C897 1.561 . S
C895 C898 1.526 1_556 S
C896 H880 0.962 . S
C896 H881 0.959 . S
C896 H882 0.961 . S
C896 C895 1.502 . S
C897 H883 0.960 . S
C897 H884 0.961 . S
C897 H885 0.959 . S
C897 C895 1.561 . S
C898 C895 1.526 1_554 S
C898 C899 1.396 . S
C898 C903 1.390 . S
C899 C893 1.465 1_554 S
C899 C898 1.396 . S
C899 C900 1.399 . S
C900 H886 0.929 . S
C900 C899 1.399 . S
C900 C901 1.385 . S
C901 H887 0.931 . S
C901 C900 1.385 . S
C901 C902 1.389 . S
C902 C901 1.389 . S
C902 C903 1.387 . S
C903 H888 0.930 . S
C903 C898 1.390 . S
C903 C902 1.387 . S
H904 C916 0.930 . S
H905 C918 0.930 . S
H906 C919 0.930 . S
H907 C923 0.959 . S
H908 C923 0.959 . S
H909 C923 0.961 . S
H910 C924 0.960 . S
H911 C924 0.961 . S
H912 C924 0.959 . S
H913 C927 0.929 . S
H914 C928 0.931 . S
H915 C930 0.930 . S
C916 H904 0.930 . S
C916 C917 1.399 . S
C916 C921 1.399 . S
C917 C916 1.399 . S
C917 C918 1.376 . S
C918 H905 0.930 . S
C918 C917 1.376 . S
C918 C919 1.388 . S
C919 H906 0.930 . S
C919 C918 1.388 . S
C919 C920 1.390 . S
C920 C919 1.390 . S
C920 C921 1.394 . S
C920 C926 1.465 . S
C921 C916 1.399 . S
C921 C920 1.394 . S
C921 C922 1.516 . S
C922 C921 1.516 . S
C922 C923 1.502 . S
C922 C924 1.561 . S
C922 C925 1.526 . S
C923 H907 0.959 . S
C923 H908 0.959 . S
C923 H909 0.961 . S
C923 C922 1.502 . S
C924 H910 0.960 . S
C924 H911 0.961 . S
C924 H912 0.959 . S
C924 C922 1.561 . S
C925 C922 1.526 . S
C925 C926 1.396 . S
C925 C930 1.390 . S
C926 C920 1.465 . S
C926 C925 1.396 . S
C926 C927 1.399 . S
C927 H913 0.929 . S
C927 C926 1.399 . S
C927 C928 1.385 . S
C928 H914 0.931 . S
C928 C927 1.385 . S
C928 C929 1.389 . S
C929 C928 1.389 . S
C929 C930 1.387 . S
C930 H915 0.930 . S
C930 C925 1.390 . S
C930 C929 1.387 . S
H931 C943 0.930 . S
H932 C945 0.930 . S
H933 C946 0.930 . S
H934 C950 0.959 1_545 S
H935 C950 0.959 . S
H936 C950 0.961 1_545 S
H937 C951 0.960 . S
H938 C951 0.961 . S
H939 C951 0.959 . S
H940 C954 0.929 . S
H941 C955 0.931 . S
H942 C957 0.930 . S
C943 H931 0.930 . S
C943 C944 1.399 . S
C943 C948 1.399 . S
C944 C943 1.399 . S
C944 C945 1.376 . S
C945 H932 0.930 . S
C945 C944 1.376 . S
C945 C946 1.388 . S
C946 H933 0.930 . S
C946 C945 1.388 . S
C946 C947 1.390 . S
C947 C946 1.390 . S
C947 C948 1.394 . S
C947 C953 1.465 . S
C948 C943 1.399 . S
C948 C947 1.394 . S
C948 C949 1.516 . S
C949 C948 1.516 . S
C949 C950 1.502 1_545 S
C949 C951 1.561 1_545 S
C949 C952 1.526 1_545 S
C950 H934 0.959 1_565 S
C950 H935 0.959 . S
C950 H936 0.961 1_565 S
C950 C949 1.502 1_565 S
C951 H937 0.960 . S
C951 H938 0.961 . S
C951 H939 0.959 . S
C951 C949 1.561 1_565 S
C952 C949 1.526 1_565 S
C952 C953 1.396 1_565 S
C952 C957 1.390 . S
C953 C947 1.465 . S
C953 C952 1.396 1_545 S
C953 C954 1.399 . S
C954 H940 0.929 . S
C954 C953 1.399 . S
C954 C955 1.385 1_545 S
C955 H941 0.931 . S
C955 C954 1.385 1_565 S
C955 C956 1.389 . S
C956 C955 1.389 . S
C956 C957 1.387 . S
C957 H942 0.930 . S
C957 C952 1.390 . S
C957 C956 1.387 . S
H958 C970 0.930 . S
H959 C972 0.930 . S
H960 C973 0.930 . S
H961 C977 0.959 . S
H962 C977 0.959 . S
H963 C977 0.961 . S
H964 C978 0.960 . S
H965 C978 0.961 . S
H966 C978 0.959 . S
H967 C981 0.929 . S
H968 C982 0.931 . S
H969 C984 0.930 . S
C970 H958 0.930 . S
C970 C971 1.399 . S
C970 C975 1.399 . S
C971 C970 1.399 . S
C971 C972 1.376 . S
C972 H959 0.930 . S
C972 C971 1.376 . S
C972 C973 1.388 . S
C973 H960 0.930 . S
C973 C972 1.388 . S
C973 C974 1.390 . S
C974 C973 1.390 . S
C974 C975 1.394 . S
C974 C980 1.465 . S
C975 C970 1.399 . S
C975 C974 1.394 . S
C975 C976 1.516 . S
C976 C975 1.516 . S
C976 C977 1.502 . S
C976 C978 1.561 . S
C976 C979 1.526 . S
C977 H961 0.959 . S
C977 H962 0.959 . S
C977 H963 0.961 . S
C977 C976 1.502 . S
C978 H964 0.960 . S
C978 H965 0.961 . S
C978 H966 0.959 . S
C978 C976 1.561 . S
C979 C976 1.526 . S
C979 C980 1.396 . S
C979 C984 1.390 . S
C980 C974 1.465 . S
C980 C979 1.396 . S
C980 C981 1.399 . S
C981 H967 0.929 . S
C981 C980 1.399 . S
C981 C982 1.385 . S
C982 H968 0.931 . S
C982 C981 1.385 . S
C982 C983 1.389 . S
C983 C982 1.389 . S
C983 C984 1.387 . S
C984 H969 0.930 . S
C984 C979 1.390 . S
C984 C983 1.387 . S
H985 C997 0.930 . S
H986 C999 0.963 . S
H987 C1000 0.930 . S
H988 C1004 0.959 . S
H989 C1004 0.959 . S
H990 C1004 0.961 . S
H991 C1005 0.960 . S
H992 C1005 0.961 . S
H993 C1005 0.959 . S
H994 C1008 0.929 . S
H995 C1009 0.931 . S
H996 C1011 0.930 . S
C997 H985 0.930 . S
C997 C998 1.399 . S
C997 C1002 1.399 . S
C998 C997 1.399 . S
C998 C999 1.376 . S
C999 H986 0.963 . S
C999 C998 1.376 . S
C999 C1000 1.388 . S
C1000 H987 0.930 . S
C1000 C999 1.388 . S
C1000 C1001 1.390 . S
C1001 C1000 1.390 . S
C1001 C1002 1.394 . S
C1001 C1007 1.465 1_565 S
C1002 C997 1.399 . S
C1002 C1001 1.394 . S
C1002 C1003 1.516 . S
C1003 C1002 1.516 . S
C1003 C1004 1.502 . S
C1003 C1005 1.561 . S
C1003 C1006 1.526 1_565 S
C1004 H988 0.959 . S
C1004 H989 0.959 . S
C1004 H990 0.961 . S
C1004 C1003 1.502 . S
C1005 H991 0.960 . S
C1005 H992 0.961 . S
C1005 H993 0.959 . S
C1005 C1003 1.561 . S
C1006 C1003 1.526 1_545 S
C1006 C1007 1.396 . S
C1006 C1011 1.390 . S
C1007 C1001 1.465 1_545 S
C1007 C1006 1.396 . S
C1007 C1008 1.399 . S
C1008 H994 0.929 . S
C1008 C1007 1.399 . S
C1008 C1009 1.385 . S
C1009 H995 0.931 . S
C1009 C1008 1.385 . S
C1009 C1010 1.389 . S
C1010 C1009 1.389 . S
C1010 C1011 1.387 . S
C1011 H996 0.930 . S
C1011 C1006 1.390 . S
C1011 C1010 1.387 . S
H1012 C1024 0.930 . S
H1013 C1026 0.930 . S
H1014 C1027 0.930 . S
H1015 C1031 0.959 . S
H1016 C1031 0.959 . S
H1017 C1031 0.961 . S
H1018 C1032 0.960 . S
H1019 C1032 0.961 . S
H1020 C1032 0.959 . S
H1021 C1035 0.929 . S
H1022 C1036 0.931 . S
H1023 C1038 0.930 . S
C1024 H1012 0.930 . S
C1024 C1025 1.399 . S
C1024 C1029 1.399 . S
C1025 C1024 1.399 . S
C1025 C1026 1.376 . S
C1026 H1013 0.930 . S
C1026 C1025 1.376 . S
C1026 C1027 1.388 . S
C1027 H1014 0.930 . S
C1027 C1026 1.388 . S
C1027 C1028 1.390 . S
C1028 C1027 1.390 . S
C1028 C1029 1.394 . S
C1028 C1034 1.465 . S
C1029 C1024 1.399 . S
C1029 C1028 1.394 . S
C1029 C1030 1.516 . S
C1030 C1029 1.516 . S
C1030 C1031 1.502 . S
C1030 C1032 1.561 . S
C1030 C1033 1.526 . S
C1031 H1015 0.959 . S
C1031 H1016 0.959 . S
C1031 H1017 0.961 . S
C1031 C1030 1.502 . S
C1032 H1018 0.960 . S
C1032 H1019 0.961 . S
C1032 H1020 0.959 . S
C1032 C1030 1.561 . S
C1033 C1030 1.526 . S
C1033 C1034 1.396 . S
C1033 C1038 1.390 . S
C1034 C1028 1.465 . S
C1034 C1033 1.396 . S
C1034 C1035 1.399 . S
C1035 H1021 0.929 . S
C1035 C1034 1.399 . S
C1035 C1036 1.385 . S
C1036 H1022 0.931 . S
C1036 C1035 1.385 . S
C1036 C1037 1.389 . S
C1037 C1036 1.389 . S
C1037 C1038 1.387 . S
C1038 H1023 0.930 . S
C1038 C1033 1.390 . S
C1038 C1037 1.387 . S
H1039 C1051 0.930 . S
H1040 C1053 0.930 . S
H1041 C1054 0.930 . S
H1042 C1058 0.959 . S
H1043 C1058 0.959 . S
H1044 C1058 0.961 . S
H1045 C1059 0.960 . S
H1046 C1059 0.961 1_565 S
H1047 C1059 0.959 . S
H1048 C1062 0.929 . S
H1049 C1063 0.931 . S
H1050 C1065 0.930 . S
C1051 H1039 0.930 . S
C1051 C1052 1.399 . S
C1051 C1056 1.399 . S
C1052 C1051 1.399 . S
C1052 C1053 1.376 . S
C1053 H1040 0.930 . S
C1053 C1052 1.376 . S
C1053 C1054 1.388 . S
C1054 H1041 0.930 . S
C1054 C1053 1.388 . S
C1054 C1055 1.390 . S
C1055 C1054 1.390 . S
C1055 C1056 1.394 . S
C1055 C1061 1.465 . S
C1056 C1051 1.399 . S
C1056 C1055 1.394 . S
C1056 C1057 1.516 . S
C1057 C1056 1.516 . S
C1057 C1058 1.502 1_545 S
C1057 C1059 1.561 . S
C1057 C1060 1.526 1_545 S
C1058 H1042 0.959 . S
C1058 H1043 0.959 . S
C1058 H1044 0.961 . S
C1058 C1057 1.502 1_565 S
C1059 H1045 0.960 . S
C1059 H1046 0.961 1_545 S
C1059 H1047 0.959 . S
C1059 C1057 1.561 . S
C1060 C1057 1.526 1_565 S
C1060 C1061 1.396 1_565 S
C1060 C1065 1.390 . S
C1061 C1055 1.465 . S
C1061 C1060 1.396 1_545 S
C1061 C1062 1.399 . S
C1062 H1048 0.929 . S
C1062 C1061 1.399 . S
C1062 C1063 1.385 1_545 S
C1063 H1049 0.931 . S
C1063 C1062 1.385 1_565 S
C1063 C1064 1.389 . S
C1064 C1063 1.389 . S
C1064 C1065 1.387 . S
C1065 H1050 0.930 . S
C1065 C1060 1.390 . S
C1065 C1064 1.387 . S
H1066 C1078 0.930 . S
H1067 C1080 0.930 1_565 S
H1068 C1081 0.930 . S
H1069 C1085 0.959 . S
H1070 C1085 0.959 . S
H1071 C1085 0.961 . S
H1072 C1086 0.960 . S
H1073 C1086 0.961 . S
H1074 C1086 0.959 . S
H1075 C1089 0.929 . S
H1076 C1090 0.931 . S
H1077 C1092 0.930 . S
C1078 H1066 0.930 . S
C1078 C1079 1.399 . S
C1078 C1083 1.399 . S
C1079 C1078 1.399 . S
C1079 C1080 1.376 . S
C1080 H1067 0.930 1_545 S
C1080 C1079 1.376 . S
C1080 C1081 1.388 . S
C1081 H1068 0.930 . S
C1081 C1080 1.388 . S
C1081 C1082 1.390 . S
C1082 C1081 1.390 . S
C1082 C1083 1.394 . S
C1082 C1088 1.465 . S
C1083 C1078 1.399 . S
C1083 C1082 1.394 . S
C1083 C1084 1.516 . S
C1084 C1083 1.516 . S
C1084 C1085 1.502 . S
C1084 C1086 1.561 . S
C1084 C1087 1.526 . S
C1085 H1069 0.959 . S
C1085 H1070 0.959 . S
C1085 H1071 0.961 . S
C1085 C1084 1.502 . S
C1086 H1072 0.960 . S
C1086 H1073 0.961 . S
C1086 H1074 0.959 . S
C1086 C1084 1.561 . S
C1087 C1084 1.526 . S
C1087 C1088 1.396 . S
C1087 C1092 1.390 . S
C1088 C1082 1.465 . S
C1088 C1087 1.396 . S
C1088 C1089 1.399 . S
C1089 H1075 0.929 . S
C1089 C1088 1.399 . S
C1089 C1090 1.385 . S
C1090 H1076 0.931 . S
C1090 C1089 1.385 . S
C1090 C1091 1.389 . S
C1091 C1090 1.389 . S
C1091 C1092 1.387 . S
C1092 H1077 0.930 . S
C1092 C1087 1.390 . S
C1092 C1091 1.387 . S
H1093 C1105 0.930 . S
H1094 C1107 0.930 . S
H1095 C1108 0.930 . S
H1096 C1112 0.959 . S
H1097 C1112 0.959 . S
H1098 C1112 0.961 . S
H1099 C1113 0.960 . S
H1100 C1113 0.961 . S
H1101 C1113 0.959 . S
H1102 C1116 0.929 . S
H1103 C1117 0.931 . S
H1104 C1119 0.930 . S
C1105 H1093 0.930 . S
C1105 C1106 1.399 . S
C1105 C1110 1.399 . S
C1106 C1105 1.399 . S
C1106 C1107 1.376 . S
C1107 H1094 0.930 . S
C1107 C1106 1.376 . S
C1107 C1108 1.388 . S
C1108 H1095 0.930 . S
C1108 C1107 1.388 . S
C1108 C1109 1.390 . S
C1109 C1108 1.390 . S
C1109 C1110 1.394 . S
C1109 C1115 1.465 1_565 S
C1110 C1105 1.399 . S
C1110 C1109 1.394 . S
C1110 C1111 1.516 . S
C1111 C1110 1.516 . S
C1111 C1112 1.502 . S
C1111 C1113 1.561 . S
C1111 C1114 1.526 1_565 S
C1112 H1096 0.959 . S
C1112 H1097 0.959 . S
C1112 H1098 0.961 . S
C1112 C1111 1.502 . S
C1113 H1099 0.960 . S
C1113 H1100 0.961 . S
C1113 H1101 0.959 . S
C1113 C1111 1.561 . S
C1114 C1111 1.526 1_545 S
C1114 C1115 1.396 . S
C1114 C1119 1.390 . S
C1115 C1109 1.465 1_545 S
C1115 C1114 1.396 . S
C1115 C1116 1.399 . S
C1116 H1102 0.929 . S
C1116 C1115 1.399 . S
C1116 C1117 1.385 . S
C1117 H1103 0.931 . S
C1117 C1116 1.385 . S
C1117 C1118 1.389 . S
C1118 C1117 1.389 . S
C1118 C1119 1.387 . S
C1119 H1104 0.930 . S
C1119 C1114 1.390 . S
C1119 C1118 1.387 . S
H1120 C1132 0.930 . S
H1121 C1134 0.930 . S
H1122 C1135 0.930 . S
H1123 C1139 0.959 . S
H1124 C1139 0.959 . S
H1125 C1139 0.961 . S
H1126 C1140 0.960 . S
H1127 C1140 0.961 . S
H1128 C1140 0.959 . S
H1129 C1143 0.929 . S
H1130 C1144 0.931 . S
H1131 C1146 0.930 . S
C1132 H1120 0.930 . S
C1132 C1133 1.399 . S
C1132 C1137 1.399 . S
C1133 C1132 1.399 . S
C1133 C1134 1.376 . S
C1134 H1121 0.930 . S
C1134 C1133 1.376 . S
C1134 C1135 1.388 . S
C1135 H1122 0.930 . S
C1135 C1134 1.388 . S
C1135 C1136 1.390 . S
C1136 C1135 1.390 . S
C1136 C1137 1.394 . S
C1136 C1142 1.465 . S
C1137 C1132 1.399 . S
C1137 C1136 1.394 . S
C1137 C1138 1.516 . S
C1138 C1137 1.516 . S
C1138 C1139 1.502 . S
C1138 C1140 1.561 . S
C1138 C1141 1.526 . S
C1139 H1123 0.959 . S
C1139 H1124 0.959 . S
C1139 H1125 0.961 . S
C1139 C1138 1.502 . S
C1140 H1126 0.960 . S
C1140 H1127 0.961 . S
C1140 H1128 0.959 . S
C1140 C1138 1.561 . S
C1141 C1138 1.526 . S
C1141 C1142 1.396 . S
C1141 C1146 1.390 . S
C1142 C1136 1.465 . S
C1142 C1141 1.396 . S
C1142 C1143 1.399 . S
C1143 H1129 0.929 . S
C1143 C1142 1.399 . S
C1143 C1144 1.385 . S
C1144 H1130 0.931 . S
C1144 C1143 1.385 . S
C1144 C1145 1.389 . S
C1145 C1144 1.389 . S
C1145 C1146 1.387 . S
C1146 H1131 0.930 . S
C1146 C1141 1.390 . S
C1146 C1145 1.387 . S
H1147 C1159 0.930 . S
H1148 C1161 0.930 . S
H1149 C1162 0.930 . S
H1150 C1166 0.959 . S
H1151 C1166 0.959 . S
H1152 C1166 0.961 . S
H1153 C1167 0.960 . S
H1154 C1167 0.961 . S
H1155 C1167 0.959 . S
H1156 C1170 0.929 . S
H1157 C1171 0.931 . S
H1158 C1173 0.930 . S
C1159 H1147 0.930 . S
C1159 C1160 1.399 . S
C1159 C1164 1.399 . S
C1160 C1159 1.399 . S
C1160 C1161 1.376 . S
C1161 H1148 0.930 . S
C1161 C1160 1.376 . S
C1161 C1162 1.388 . S
C1162 H1149 0.930 . S
C1162 C1161 1.388 . S
C1162 C1163 1.390 . S
C1163 C1162 1.390 . S
C1163 C1164 1.394 . S
C1163 C1169 1.465 . S
C1164 C1159 1.399 . S
C1164 C1163 1.394 . S
C1164 C1165 1.516 . S
C1165 C1164 1.516 . S
C1165 C1166 1.502 . S
C1165 C1167 1.561 . S
C1165 C1168 1.526 . S
C1166 H1150 0.959 . S
C1166 H1151 0.959 . S
C1166 H1152 0.961 . S
C1166 C1165 1.502 . S
C1167 H1153 0.960 . S
C1167 H1154 0.961 . S
C1167 H1155 0.959 . S
C1167 C1165 1.561 . S
C1168 C1165 1.526 . S
C1168 C1169 1.396 . S
C1168 C1173 1.390 . S
C1169 C1163 1.465 . S
C1169 C1168 1.396 . S
C1169 C1170 1.399 . S
C1170 H1156 0.929 . S
C1170 C1169 1.399 . S
C1170 C1171 1.385 . S
C1171 H1157 0.931 . S
C1171 C1170 1.385 . S
C1171 C1172 1.389 . S
C1172 C1171 1.389 . S
C1172 C1173 1.387 . S
C1173 H1158 0.930 . S
C1173 C1168 1.390 . S
C1173 C1172 1.387 . S
H1174 C1186 0.930 . S
H1175 C1188 0.930 . S
H1176 C1189 0.930 . S
H1177 C1193 0.959 . S
H1178 C1193 0.959 . S
H1179 C1193 0.961 . S
H1180 C1194 0.960 . S
H1181 C1194 0.961 . S
H1182 C1194 0.959 . S
H1183 C1197 0.929 . S
H1184 C1198 0.931 . S
H1185 C1200 0.930 . S
C1186 H1174 0.930 . S
C1186 C1187 1.399 . S
C1186 C1191 1.399 . S
C1187 C1186 1.399 . S
C1187 C1188 1.376 . S
C1188 H1175 0.930 . S
C1188 C1187 1.376 . S
C1188 C1189 1.388 . S
C1189 H1176 0.930 . S
C1189 C1188 1.388 . S
C1189 C1190 1.390 . S
C1190 C1189 1.390 . S
C1190 C1191 1.394 . S
C1190 C1196 1.462 1_455 S
C1191 C1186 1.399 . S
C1191 C1190 1.394 . S
C1191 C1192 1.516 . S
C1192 C1191 1.516 . S
C1192 C1193 1.502 . S
C1192 C1194 1.561 . S
C1192 C1195 1.526 . S
C1193 H1177 0.959 . S
C1193 H1178 0.959 . S
C1193 H1179 0.961 . S
C1193 C1192 1.502 . S
C1194 H1180 0.960 . S
C1194 H1181 0.961 . S
C1194 H1182 0.959 . S
C1194 C1192 1.561 . S
C1195 C1192 1.526 . S
C1195 C1196 1.395 1_455 S
C1195 C1200 1.390 1_455 S
C1196 C1190 1.462 1_655 S
C1196 C1195 1.395 1_655 S
C1196 C1197 1.402 . S
C1197 H1183 0.929 . S
C1197 C1196 1.402 . S
C1197 C1198 1.385 . S
C1198 H1184 0.931 . S
C1198 C1197 1.385 . S
C1198 C1199 1.389 . S
C1199 C1198 1.389 . S
C1199 C1200 1.387 . S
C1200 H1185 0.930 . S
C1200 C1195 1.390 1_655 S
C1200 C1199 1.387 . S
H1201 C1213 0.930 . S
H1202 C1215 0.930 . S
H1203 C1216 0.930 . S
H1204 C1220 0.959 . S
H1205 C1220 0.959 . S
H1206 C1220 0.961 . S
H1207 C1221 0.960 . S
H1208 C1221 0.961 . S
H1209 C1221 0.959 . S
H1210 C1224 0.929 . S
H1211 C1225 0.931 . S
H1212 C1227 0.930 . S
C1213 H1201 0.930 . S
C1213 C1214 1.399 . S
C1213 C1218 1.399 . S
C1214 C1213 1.399 . S
C1214 C1215 1.376 . S
C1215 H1202 0.930 . S
C1215 C1214 1.376 . S
C1215 C1216 1.388 . S
C1216 H1203 0.930 . S
C1216 C1215 1.388 . S
C1216 C1217 1.390 . S
C1217 C1216 1.390 . S
C1217 C1218 1.394 . S
C1217 C1223 1.465 . S
C1218 C1213 1.399 . S
C1218 C1217 1.394 . S
C1218 C1219 1.516 . S
C1219 C1218 1.516 . S
C1219 C1220 1.502 . S
C1219 C1221 1.561 . S
C1219 C1222 1.526 . S
C1220 H1204 0.959 . S
C1220 H1205 0.959 . S
C1220 H1206 0.961 . S
C1220 C1219 1.502 . S
C1221 H1207 0.960 . S
C1221 H1208 0.961 . S
C1221 H1209 0.959 . S
C1221 C1219 1.561 . S
C1222 C1219 1.526 . S
C1222 C1223 1.396 . S
C1222 C1227 1.390 . S
C1223 C1217 1.465 . S
C1223 C1222 1.396 . S
C1223 C1224 1.399 . S
C1224 H1210 0.929 . S
C1224 C1223 1.399 . S
C1224 C1225 1.385 . S
C1225 H1211 0.931 . S
C1225 C1224 1.385 . S
C1225 C1226 1.389 . S
C1226 C1225 1.389 . S
C1226 C1227 1.387 . S
C1227 H1212 0.930 . S
C1227 C1222 1.390 . S
C1227 C1226 1.387 . S
H1228 C1240 0.930 . S
H1229 C1242 0.930 . S
H1230 C1243 0.930 . S
H1231 C1247 0.959 . S
H1232 C1247 0.959 . S
H1233 C1247 0.961 . S
H1234 C1248 0.960 . S
H1235 C1248 0.961 1_455 S
H1236 C1248 0.959 1_455 S
H1237 C1251 0.929 . S
H1238 C1252 0.931 . S
H1239 C1254 0.930 . S
C1240 H1228 0.930 . S
C1240 C1241 1.399 . S
C1240 C1245 1.399 . S
C1241 C1240 1.399 . S
C1241 C1242 1.376 . S
C1242 H1229 0.930 . S
C1242 C1241 1.376 . S
C1242 C1243 1.388 . S
C1243 H1230 0.930 . S
C1243 C1242 1.388 . S
C1243 C1244 1.390 . S
C1244 C1243 1.390 . S
C1244 C1245 1.394 . S
C1244 C1250 1.465 1_655 S
C1245 C1240 1.399 . S
C1245 C1244 1.394 . S
C1245 C1246 1.516 . S
C1246 C1245 1.516 . S
C1246 C1247 1.502 . S
C1246 C1248 1.561 . S
C1246 C1249 1.526 1_655 S
C1247 H1231 0.959 . S
C1247 H1232 0.959 . S
C1247 H1233 0.961 . S
C1247 C1246 1.502 . S
C1248 H1234 0.960 . S
C1248 H1235 0.961 1_655 S
C1248 H1236 0.959 1_655 S
C1248 C1246 1.561 . S
C1249 C1246 1.526 1_455 S
C1249 C1250 1.396 . S
C1249 C1254 1.390 . S
C1250 C1244 1.465 1_455 S
C1250 C1249 1.396 . S
C1250 C1251 1.399 . S
C1251 H1237 0.929 . S
C1251 C1250 1.399 . S
C1251 C1252 1.385 . S
C1252 H1238 0.931 . S
C1252 C1251 1.385 . S
C1252 C1253 1.389 . S
C1253 C1252 1.389 . S
C1253 C1254 1.387 . S
C1254 H1239 0.930 . S
C1254 C1249 1.390 . S
C1254 C1253 1.387 . S
H1255 C1267 0.930 . S
H1256 C1269 0.930 . S
H1257 C1270 0.930 . S
H1258 C1274 0.959 . S
H1259 C1274 0.959 . S
H1260 C1274 0.961 . S
H1261 C1275 0.960 . S
H1262 C1275 0.961 . S
H1263 C1275 0.959 . S
H1264 C1278 0.929 . S
H1265 C1279 0.931 . S
H1266 C1281 0.930 . S
C1267 H1255 0.930 . S
C1267 C1268 1.399 . S
C1267 C1272 1.399 . S
C1268 C1267 1.399 . S
C1268 C1269 1.376 . S
C1269 H1256 0.930 . S
C1269 C1268 1.376 . S
C1269 C1270 1.388 . S
C1270 H1257 0.930 . S
C1270 C1269 1.388 . S
C1270 C1271 1.390 . S
C1271 C1270 1.390 . S
C1271 C1272 1.394 . S
C1271 C1277 1.465 . S
C1272 C1267 1.399 . S
C1272 C1271 1.394 . S
C1272 C1273 1.516 . S
C1273 C1272 1.516 . S
C1273 C1274 1.502 . S
C1273 C1275 1.561 . S
C1273 C1276 1.526 . S
C1274 H1258 0.959 . S
C1274 H1259 0.959 . S
C1274 H1260 0.961 . S
C1274 C1273 1.502 . S
C1275 H1261 0.960 . S
C1275 H1262 0.961 . S
C1275 H1263 0.959 . S
C1275 C1273 1.561 . S
C1276 C1273 1.526 . S
C1276 C1277 1.396 . S
C1276 C1281 1.390 . S
C1277 C1271 1.465 . S
C1277 C1276 1.396 . S
C1277 C1278 1.399 . S
C1278 H1264 0.929 . S
C1278 C1277 1.399 . S
C1278 C1279 1.385 . S
C1279 H1265 0.931 . S
C1279 C1278 1.385 . S
C1279 C1280 1.389 . S
C1280 C1279 1.389 . S
C1280 C1281 1.387 . S
C1281 H1266 0.930 . S
C1281 C1276 1.390 . S
C1281 C1280 1.387 . S
H1282 C1294 0.930 . S
H1283 C1296 0.930 . S
H1284 C1297 0.930 . S
H1285 C1301 0.959 1_655 S
H1286 C1301 0.959 1_655 S
H1287 C1301 0.961 . S
H1288 C1302 0.960 . S
H1289 C1302 0.961 . S
H1290 C1302 0.959 . S
H1291 C1305 0.929 . S
H1292 C1306 0.931 . S
H1293 C1308 0.930 . S
C1294 H1282 0.930 . S
C1294 C1295 1.399 . S
C1294 C1299 1.399 . S
C1295 C1294 1.399 . S
C1295 C1296 1.376 . S
C1296 H1283 0.930 . S
C1296 C1295 1.376 . S
C1296 C1297 1.388 . S
C1297 H1284 0.930 . S
C1297 C1296 1.388 . S
C1297 C1298 1.390 . S
C1298 C1297 1.390 . S
C1298 C1299 1.394 . S
C1298 C1304 1.465 . S
C1299 C1294 1.399 . S
C1299 C1298 1.394 . S
C1299 C1300 1.516 . S
C1300 C1299 1.516 . S
C1300 C1301 1.502 . S
C1300 C1302 1.561 . S
C1300 C1303 1.526 1_455 S
C1301 H1285 0.959 1_455 S
C1301 H1286 0.959 1_455 S
C1301 H1287 0.961 . S
C1301 C1300 1.502 . S
C1302 H1288 0.960 . S
C1302 H1289 0.961 . S
C1302 H1290 0.959 . S
C1302 C1300 1.561 . S
C1303 C1300 1.526 1_655 S
C1303 C1304 1.396 1_655 S
C1303 C1308 1.390 . S
C1304 C1298 1.465 . S
C1304 C1303 1.396 1_455 S
C1304 C1305 1.399 1_455 S
C1305 H1291 0.929 . S
C1305 C1304 1.399 1_655 S
C1305 C1306 1.385 . S
C1306 H1292 0.931 . S
C1306 C1305 1.385 . S
C1306 C1307 1.389 . S
C1307 C1306 1.389 . S
C1307 C1308 1.387 . S
C1308 H1293 0.930 . S
C1308 C1303 1.390 . S
C1308 C1307 1.387 . S
H1309 C1321 0.930 . S
H1310 C1323 0.930 . S
H1311 C1324 0.930 . S
H1312 C1328 0.959 . S
H1313 C1328 0.959 . S
H1314 C1328 0.961 . S
H1315 C1329 0.960 . S
H1316 C1329 0.961 . S
H1317 C1329 0.959 . S
H1318 C1332 0.929 . S
H1319 C1333 0.931 . S
H1320 C1335 0.930 . S
C1321 H1309 0.930 . S
C1321 C1322 1.399 . S
C1321 C1326 1.399 . S
C1322 C1321 1.399 . S
C1322 C1323 1.376 . S
C1323 H1310 0.930 . S
C1323 C1322 1.376 . S
C1323 C1324 1.388 . S
C1324 H1311 0.930 . S
C1324 C1323 1.388 . S
C1324 C1325 1.390 . S
C1325 C1324 1.390 . S
C1325 C1326 1.394 . S
C1325 C1331 1.465 . S
C1326 C1321 1.399 . S
C1326 C1325 1.394 . S
C1326 C1327 1.516 . S
C1327 C1326 1.516 . S
C1327 C1328 1.502 . S
C1327 C1329 1.561 . S
C1327 C1330 1.526 . S
C1328 H1312 0.959 . S
C1328 H1313 0.959 . S
C1328 H1314 0.961 . S
C1328 C1327 1.502 . S
C1329 H1315 0.960 . S
C1329 H1316 0.961 . S
C1329 H1317 0.959 . S
C1329 C1327 1.561 . S
C1330 C1327 1.526 . S
C1330 C1331 1.396 . S
C1330 C1335 1.390 . S
C1331 C1325 1.465 . S
C1331 C1330 1.396 . S
C1331 C1332 1.399 . S
C1332 H1318 0.929 . S
C1332 C1331 1.399 . S
C1332 C1333 1.385 . S
C1333 H1319 0.931 . S
C1333 C1332 1.385 . S
C1333 C1334 1.389 . S
C1334 C1333 1.389 . S
C1334 C1335 1.387 . S
C1335 H1320 0.930 . S
C1335 C1330 1.390 . S
C1335 C1334 1.387 . S
H1336 C1348 0.930 . S
H1337 C1350 0.930 . S
H1338 C1351 0.930 . S
H1339 C1355 0.959 . S
H1340 C1355 0.959 . S
H1341 C1355 0.961 . S
H1342 C1356 0.960 . S
H1343 C1356 0.961 . S
H1344 C1356 0.959 . S
H1345 C1359 0.929 . S
H1346 C1360 0.931 . S
H1347 C1362 0.930 . S
C1348 H1336 0.930 . S
C1348 C1349 1.399 . S
C1348 C1353 1.399 . S
C1349 C1348 1.399 . S
C1349 C1350 1.376 . S
C1350 H1337 0.930 . S
C1350 C1349 1.376 . S
C1350 C1351 1.388 . S
C1351 H1338 0.930 . S
C1351 C1350 1.388 . S
C1351 C1352 1.390 . S
C1352 C1351 1.390 . S
C1352 C1353 1.394 . S
C1352 C1358 1.465 . S
C1353 C1348 1.399 . S
C1353 C1352 1.394 . S
C1353 C1354 1.516 . S
C1354 C1353 1.516 . S
C1354 C1355 1.502 . S
C1354 C1356 1.561 . S
C1354 C1357 1.526 . S
C1355 H1339 0.959 . S
C1355 H1340 0.959 . S
C1355 H1341 0.961 . S
C1355 C1354 1.502 . S
C1356 H1342 0.960 . S
C1356 H1343 0.961 . S
C1356 H1344 0.959 . S
C1356 C1354 1.561 . S
C1357 C1354 1.526 . S
C1357 C1358 1.396 . S
C1357 C1362 1.390 . S
C1358 C1352 1.465 . S
C1358 C1357 1.396 . S
C1358 C1359 1.399 . S
C1359 H1345 0.929 . S
C1359 C1358 1.399 . S
C1359 C1360 1.385 . S
C1360 H1346 0.931 . S
C1360 C1359 1.385 . S
C1360 C1361 1.389 . S
C1361 C1360 1.389 . S
C1361 C1362 1.387 . S
C1362 H1347 0.930 . S
C1362 C1357 1.390 . S
C1362 C1361 1.387 . S
H1363 C1375 0.930 . S
H1364 C1377 0.930 . S
H1365 C1378 0.930 . S
H1366 C1382 0.959 . S
H1367 C1382 0.959 . S
H1368 C1382 0.961 . S
H1369 C1383 0.960 . S
H1370 C1383 0.961 . S
H1371 C1383 0.959 . S
H1372 C1386 0.929 . S
H1373 C1387 0.931 . S
H1374 C1389 0.930 . S
C1375 H1363 0.930 . S
C1375 C1376 1.399 . S
C1375 C1380 1.399 . S
C1376 C1375 1.399 . S
C1376 C1377 1.376 . S
C1377 H1364 0.930 . S
C1377 C1376 1.376 . S
C1377 C1378 1.388 . S
C1378 H1365 0.930 . S
C1378 C1377 1.388 . S
C1378 C1379 1.390 . S
C1379 C1378 1.390 . S
C1379 C1380 1.394 . S
C1379 C1385 1.465 . S
C1380 C1375 1.399 . S
C1380 C1379 1.394 . S
C1380 C1381 1.516 . S
C1381 C1380 1.516 . S
C1381 C1382 1.502 . S
C1381 C1383 1.561 . S
C1381 C1384 1.526 . S
C1382 H1366 0.959 . S
C1382 H1367 0.959 . S
C1382 H1368 0.961 . S
C1382 C1381 1.502 . S
C1383 H1369 0.960 . S
C1383 H1370 0.961 . S
C1383 H1371 0.959 . S
C1383 C1381 1.561 . S
C1384 C1381 1.526 . S
C1384 C1385 1.396 . S
C1384 C1389 1.390 . S
C1385 C1379 1.465 . S
C1385 C1384 1.396 . S
C1385 C1386 1.399 . S
C1386 H1372 0.929 . S
C1386 C1385 1.399 . S
C1386 C1387 1.385 . S
C1387 H1373 0.931 . S
C1387 C1386 1.385 . S
C1387 C1388 1.389 . S
C1388 C1387 1.389 . S
C1388 C1389 1.387 . S
C1389 H1374 0.930 . S
C1389 C1384 1.390 . S
C1389 C1388 1.387 . S
H1390 C1402 0.930 . S
H1391 C1404 0.930 . S
H1392 C1405 0.930 . S
H1393 C1409 0.959 . S
H1394 C1409 0.959 . S
H1395 C1409 0.961 . S
H1396 C1410 0.960 . S
H1397 C1410 0.961 . S
H1398 C1410 0.959 . S
H1399 C1413 0.929 . S
H1400 C1414 0.931 . S
H1401 C1416 0.930 . S
C1402 H1390 0.930 . S
C1402 C1403 1.399 . S
C1402 C1407 1.399 . S
C1403 C1402 1.399 . S
C1403 C1404 1.376 . S
C1404 H1391 0.930 . S
C1404 C1403 1.376 . S
C1404 C1405 1.388 . S
C1405 H1392 0.930 . S
C1405 C1404 1.388 . S
C1405 C1406 1.390 . S
C1406 C1405 1.390 . S
C1406 C1407 1.394 . S
C1406 C1412 1.465 . S
C1407 C1402 1.399 . S
C1407 C1406 1.394 . S
C1407 C1408 1.516 . S
C1408 C1407 1.516 . S
C1408 C1409 1.502 . S
C1408 C1410 1.561 . S
C1408 C1411 1.526 . S
C1409 H1393 0.959 . S
C1409 H1394 0.959 . S
C1409 H1395 0.961 . S
C1409 C1408 1.502 . S
C1410 H1396 0.960 . S
C1410 H1397 0.961 . S
C1410 H1398 0.959 . S
C1410 C1408 1.561 . S
C1411 C1408 1.526 . S
C1411 C1412 1.396 . S
C1411 C1416 1.390 . S
C1412 C1406 1.465 . S
C1412 C1411 1.396 . S
C1412 C1413 1.399 . S
C1413 H1399 0.929 . S
C1413 C1412 1.399 . S
C1413 C1414 1.385 . S
C1414 H1400 0.931 . S
C1414 C1413 1.385 . S
C1414 C1415 1.389 . S
C1415 C1414 1.389 . S
C1415 C1416 1.387 . S
C1416 H1401 0.930 . S
C1416 C1411 1.390 . S
C1416 C1415 1.387 . S
H1417 C1429 0.930 . S
H1418 C1431 0.930 . S
H1419 C1432 0.930 . S
H1420 C1436 0.959 . S
H1421 C1436 0.959 . S
H1422 C1436 0.961 . S
H1423 C1437 0.960 . S
H1424 C1437 0.961 . S
H1425 C1437 0.959 . S
H1426 C1440 0.929 . S
H1427 C1441 0.931 . S
H1428 C1443 0.930 . S
C1429 H1417 0.930 . S
C1429 C1430 1.399 . S
C1429 C1434 1.399 . S
C1430 C1429 1.399 . S
C1430 C1431 1.376 . S
C1431 H1418 0.930 . S
C1431 C1430 1.376 . S
C1431 C1432 1.388 . S
C1432 H1419 0.930 . S
C1432 C1431 1.388 . S
C1432 C1433 1.390 . S
C1433 C1432 1.390 . S
C1433 C1434 1.394 . S
C1433 C1439 1.465 1_556 S
C1434 C1429 1.399 . S
C1434 C1433 1.394 . S
C1434 C1435 1.516 . S
C1435 C1434 1.516 . S
C1435 C1436 1.502 . S
C1435 C1437 1.561 . S
C1435 C1438 1.526 1_556 S
C1436 H1420 0.959 . S
C1436 H1421 0.959 . S
C1436 H1422 0.961 . S
C1436 C1435 1.502 . S
C1437 H1423 0.960 . S
C1437 H1424 0.961 . S
C1437 H1425 0.959 . S
C1437 C1435 1.561 . S
C1438 C1435 1.526 1_554 S
C1438 C1439 1.396 . S
C1438 C1443 1.390 . S
C1439 C1433 1.465 1_554 S
C1439 C1438 1.396 . S
C1439 C1440 1.399 . S
C1440 H1426 0.929 . S
C1440 C1439 1.399 . S
C1440 C1441 1.385 . S
C1441 H1427 0.931 . S
C1441 C1440 1.385 . S
C1441 C1442 1.389 . S
C1442 C1441 1.389 . S
C1442 C1443 1.387 . S
C1443 H1428 0.930 . S
C1443 C1438 1.390 . S
C1443 C1442 1.387 . S
H1444 C1456 0.930 . S
H1445 C1458 0.930 . S
H1446 C1459 0.930 . S
H1447 C1463 0.959 . S
H1448 C1463 0.959 . S
H1449 C1463 0.961 . S
H1450 C1464 0.960 . S
H1451 C1464 0.961 . S
H1452 C1464 0.959 . S
H1453 C1467 0.929 . S
H1454 C1468 0.931 . S
H1455 C1470 0.930 . S
C1456 H1444 0.930 . S
C1456 C1457 1.399 . S
C1456 C1461 1.399 . S
C1457 C1456 1.399 . S
C1457 C1458 1.376 . S
C1458 H1445 0.930 . S
C1458 C1457 1.376 . S
C1458 C1459 1.388 . S
C1459 H1446 0.930 . S
C1459 C1458 1.388 . S
C1459 C1460 1.390 . S
C1460 C1459 1.390 . S
C1460 C1461 1.394 . S
C1460 C1466 1.465 . S
C1461 C1456 1.399 . S
C1461 C1460 1.394 . S
C1461 C1462 1.516 . S
C1462 C1461 1.516 . S
C1462 C1463 1.502 . S
C1462 C1464 1.561 . S
C1462 C1465 1.526 . S
C1463 H1447 0.959 . S
C1463 H1448 0.959 . S
C1463 H1449 0.961 . S
C1463 C1462 1.502 . S
C1464 H1450 0.960 . S
C1464 H1451 0.961 . S
C1464 H1452 0.959 . S
C1464 C1462 1.561 . S
C1465 C1462 1.526 . S
C1465 C1466 1.396 . S
C1465 C1470 1.390 . S
C1466 C1460 1.465 . S
C1466 C1465 1.396 . S
C1466 C1467 1.399 . S
C1467 H1453 0.929 . S
C1467 C1466 1.399 . S
C1467 C1468 1.385 . S
C1468 H1454 0.931 . S
C1468 C1467 1.385 . S
C1468 C1469 1.389 . S
C1469 C1468 1.389 . S
C1469 C1470 1.387 . S
C1470 H1455 0.930 . S
C1470 C1465 1.390 . S
C1470 C1469 1.387 . S
H1471 C1483 0.930 . S
H1472 C1485 0.930 . S
H1473 C1486 0.930 . S
H1474 C1490 0.959 . S
H1475 C1490 0.959 . S
H1476 C1490 0.961 . S
H1477 C1491 0.960 . S
H1478 C1491 0.961 . S
H1479 C1491 0.959 . S
H1480 C1494 0.929 . S
H1481 C1495 0.931 . S
H1482 C1497 0.930 . S
C1483 H1471 0.930 . S
C1483 C1484 1.399 . S
C1483 C1488 1.399 . S
C1484 C1483 1.399 . S
C1484 C1485 1.376 . S
C1485 H1472 0.930 . S
C1485 C1484 1.376 . S
C1485 C1486 1.388 . S
C1486 H1473 0.930 . S
C1486 C1485 1.388 . S
C1486 C1487 1.390 . S
C1487 C1486 1.390 . S
C1487 C1488 1.394 . S
C1487 C1493 1.465 . S
C1488 C1483 1.399 . S
C1488 C1487 1.394 . S
C1488 C1489 1.516 . S
C1489 C1488 1.516 . S
C1489 C1490 1.502 . S
C1489 C1491 1.561 . S
C1489 C1492 1.526 . S
C1490 H1474 0.959 . S
C1490 H1475 0.959 . S
C1490 H1476 0.961 . S
C1490 C1489 1.502 . S
C1491 H1477 0.960 . S
C1491 H1478 0.961 . S
C1491 H1479 0.959 . S
C1491 C1489 1.561 . S
C1492 C1489 1.526 . S
C1492 C1493 1.396 . S
C1492 C1497 1.390 . S
C1493 C1487 1.465 . S
C1493 C1492 1.396 . S
C1493 C1494 1.399 . S
C1494 H1480 0.929 . S
C1494 C1493 1.399 . S
C1494 C1495 1.385 . S
C1495 H1481 0.931 . S
C1495 C1494 1.385 . S
C1495 C1496 1.389 . S
C1496 C1495 1.389 . S
C1496 C1497 1.387 . S
C1497 H1482 0.930 . S
C1497 C1492 1.390 . S
C1497 C1496 1.387 . S
H1498 C1510 0.930 . S
H1499 C1512 0.930 . S
H1500 C1513 0.930 . S
H1501 C1517 0.959 . S
H1502 C1517 0.959 . S
H1503 C1517 0.961 . S
H1504 C1518 0.960 . S
H1505 C1518 0.961 . S
H1506 C1518 0.959 . S
H1507 C1521 0.929 . S
H1508 C1522 0.931 . S
H1509 C1524 0.930 . S
C1510 H1498 0.930 . S
C1510 C1511 1.399 . S
C1510 C1515 1.399 . S
C1511 C1510 1.399 . S
C1511 C1512 1.376 . S
C1512 H1499 0.930 . S
C1512 C1511 1.376 . S
C1512 C1513 1.388 . S
C1513 H1500 0.930 . S
C1513 C1512 1.388 . S
C1513 C1514 1.390 . S
C1514 C1513 1.390 . S
C1514 C1515 1.394 . S
C1514 C1520 1.465 . S
C1515 C1510 1.399 . S
C1515 C1514 1.394 . S
C1515 C1516 1.516 . S
C1516 C1515 1.516 . S
C1516 C1517 1.502 . S
C1516 C1518 1.561 . S
C1516 C1519 1.526 . S
C1517 H1501 0.959 . S
C1517 H1502 0.959 . S
C1517 H1503 0.961 . S
C1517 C1516 1.502 . S
C1518 H1504 0.960 . S
C1518 H1505 0.961 . S
C1518 H1506 0.959 . S
C1518 C1516 1.561 . S
C1519 C1516 1.526 . S
C1519 C1520 1.396 . S
C1519 C1524 1.390 . S
C1520 C1514 1.465 . S
C1520 C1519 1.396 . S
C1520 C1521 1.399 . S
C1521 H1507 0.929 . S
C1521 C1520 1.399 . S
C1521 C1522 1.385 . S
C1522 H1508 0.931 . S
C1522 C1521 1.385 . S
C1522 C1523 1.389 . S
C1523 C1522 1.389 . S
C1523 C1524 1.387 . S
C1524 H1509 0.930 . S
C1524 C1519 1.390 . S
C1524 C1523 1.387 . S
H1525 C1537 0.930 . S
H1526 C1539 0.930 . S
H1527 C1540 0.930 . S
H1528 C1544 0.959 . S
H1529 C1544 0.959 . S
H1530 C1544 0.961 . S
H1531 C1545 0.960 . S
H1532 C1545 0.961 1_556 S
H1533 C1545 0.959 . S
H1534 C1548 0.929 . S
H1535 C1549 0.931 . S
H1536 C1551 0.930 . S
C1537 H1525 0.930 . S
C1537 C1538 1.399 . S
C1537 C1542 1.399 . S
C1538 C1537 1.399 . S
C1538 C1539 1.376 . S
C1539 H1526 0.930 . S
C1539 C1538 1.376 . S
C1539 C1540 1.388 . S
C1540 H1527 0.930 . S
C1540 C1539 1.388 . S
C1540 C1541 1.390 . S
C1541 C1540 1.390 . S
C1541 C1542 1.394 . S
C1541 C1547 1.465 . S
C1542 C1537 1.399 . S
C1542 C1541 1.394 . S
C1542 C1543 1.516 . S
C1543 C1542 1.516 . S
C1543 C1544 1.502 1_554 S
C1543 C1545 1.561 . S
C1543 C1546 1.526 1_554 S
C1544 H1528 0.959 . S
C1544 H1529 0.959 . S
C1544 H1530 0.961 . S
C1544 C1543 1.502 1_556 S
C1545 H1531 0.960 . S
C1545 H1532 0.961 1_554 S
C1545 H1533 0.959 . S
C1545 C1543 1.561 . S
C1546 C1543 1.526 1_556 S
C1546 C1547 1.396 1_556 S
C1546 C1551 1.390 . S
C1547 C1541 1.465 . S
C1547 C1546 1.396 1_554 S
C1547 C1548 1.399 . S
C1548 H1534 0.929 . S
C1548 C1547 1.399 . S
C1548 C1549 1.385 1_554 S
C1549 H1535 0.931 . S
C1549 C1548 1.385 1_556 S
C1549 C1550 1.389 . S
C1550 C1549 1.389 . S
C1550 C1551 1.387 . S
C1551 H1536 0.930 . S
C1551 C1546 1.390 . S
C1551 C1550 1.387 . S
H1552 C1564 0.930 . S
H1553 C1566 0.930 . S
H1554 C1567 0.930 . S
H1555 C1571 0.959 . S
H1556 C1571 0.959 . S
H1557 C1571 0.961 . S
H1558 C1572 0.960 . S
H1559 C1572 0.961 . S
H1560 C1572 0.959 . S
H1561 C1575 0.929 . S
H1562 C1576 0.931 . S
H1563 C1578 0.930 . S
C1564 H1552 0.930 . S
C1564 C1565 1.399 . S
C1564 C1569 1.399 . S
C1565 C1564 1.399 . S
C1565 C1566 1.376 . S
C1566 H1553 0.930 . S
C1566 C1565 1.376 . S
C1566 C1567 1.388 . S
C1567 H1554 0.930 . S
C1567 C1566 1.388 . S
C1567 C1568 1.390 . S
C1568 C1567 1.390 . S
C1568 C1569 1.394 . S
C1568 C1574 1.465 . S
C1569 C1564 1.399 . S
C1569 C1568 1.394 . S
C1569 C1570 1.516 . S
C1570 C1569 1.516 . S
C1570 C1571 1.502 . S
C1570 C1572 1.561 . S
C1570 C1573 1.526 . S
C1571 H1555 0.959 . S
C1571 H1556 0.959 . S
C1571 H1557 0.961 . S
C1571 C1570 1.502 . S
C1572 H1558 0.960 . S
C1572 H1559 0.961 . S
C1572 H1560 0.959 . S
C1572 C1570 1.561 . S
C1573 C1570 1.526 . S
C1573 C1574 1.396 . S
C1573 C1578 1.390 . S
C1574 C1568 1.465 . S
C1574 C1573 1.396 . S
C1574 C1575 1.399 . S
C1575 H1561 0.929 . S
C1575 C1574 1.399 . S
C1575 C1576 1.385 . S
C1576 H1562 0.931 . S
C1576 C1575 1.385 . S
C1576 C1577 1.389 . S
C1577 C1576 1.389 . S
C1577 C1578 1.387 . S
C1578 H1563 0.930 . S
C1578 C1573 1.390 . S
C1578 C1577 1.387 . S
H1579 C1591 0.930 . S
H1580 C1593 0.930 . S
H1581 C1594 0.930 . S
H1582 C1598 0.959 . S
H1583 C1598 0.959 . S
H1584 C1598 0.961 . S
H1585 C1599 0.960 . S
H1586 C1599 0.961 1_545 S
H1587 C1599 0.959 1_545 S
H1588 C1602 0.929 . S
H1589 C1603 0.931 . S
H1590 C1605 0.930 . S
C1591 H1579 0.930 . S
C1591 C1592 1.399 . S
C1591 C1596 1.399 . S
C1592 C1591 1.399 . S
C1592 C1593 1.376 . S
C1593 H1580 0.930 . S
C1593 C1592 1.376 . S
C1593 C1594 1.388 . S
C1594 H1581 0.930 . S
C1594 C1593 1.388 . S
C1594 C1595 1.390 . S
C1595 C1594 1.390 . S
C1595 C1596 1.394 . S
C1595 C1601 1.465 1_565 S
C1596 C1591 1.399 . S
C1596 C1595 1.394 . S
C1596 C1597 1.516 . S
C1597 C1596 1.516 . S
C1597 C1598 1.502 . S
C1597 C1599 1.561 . S
C1597 C1600 1.526 1_565 S
C1598 H1582 0.959 . S
C1598 H1583 0.959 . S
C1598 H1584 0.961 . S
C1598 C1597 1.502 . S
C1599 H1585 0.960 . S
C1599 H1586 0.961 1_565 S
C1599 H1587 0.959 1_565 S
C1599 C1597 1.561 . S
C1600 C1597 1.526 1_545 S
C1600 C1601 1.396 . S
C1600 C1605 1.390 . S
C1601 C1595 1.465 1_545 S
C1601 C1600 1.396 . S
C1601 C1602 1.399 . S
C1602 H1588 0.929 . S
C1602 C1601 1.399 . S
C1602 C1603 1.385 . S
C1603 H1589 0.931 . S
C1603 C1602 1.385 . S
C1603 C1604 1.389 . S
C1604 C1603 1.389 . S
C1604 C1605 1.387 . S
C1605 H1590 0.930 . S
C1605 C1600 1.390 . S
C1605 C1604 1.387 . S
H1606 C1618 0.930 . S
H1607 C1620 0.930 . S
H1608 C1621 0.930 . S
H1609 C1625 0.959 . S
H1610 C1625 0.959 . S
H1611 C1625 0.961 . S
H1612 C1626 0.960 . S
H1613 C1626 0.961 . S
H1614 C1626 0.959 . S
H1615 C1629 0.929 . S
H1616 C1630 0.931 . S
H1617 C1632 0.930 . S
C1618 H1606 0.930 . S
C1618 C1619 1.399 . S
C1618 C1623 1.399 . S
C1619 C1618 1.399 . S
C1619 C1620 1.376 . S
C1620 H1607 0.930 . S
C1620 C1619 1.376 . S
C1620 C1621 1.388 . S
C1621 H1608 0.930 . S
C1621 C1620 1.388 . S
C1621 C1622 1.390 . S
C1622 C1621 1.390 . S
C1622 C1623 1.394 . S
C1622 C1628 1.465 . S
C1623 C1618 1.399 . S
C1623 C1622 1.394 . S
C1623 C1624 1.516 . S
C1624 C1623 1.516 . S
C1624 C1625 1.502 . S
C1624 C1626 1.561 . S
C1624 C1627 1.526 . S
C1625 H1609 0.959 . S
C1625 H1610 0.959 . S
C1625 H1611 0.961 . S
C1625 C1624 1.502 . S
C1626 H1612 0.960 . S
C1626 H1613 0.961 . S
C1626 H1614 0.959 . S
C1626 C1624 1.561 . S
C1627 C1624 1.526 . S
C1627 C1628 1.396 . S
C1627 C1632 1.390 . S
C1628 C1622 1.465 . S
C1628 C1627 1.396 . S
C1628 C1629 1.399 . S
C1629 H1615 0.929 . S
C1629 C1628 1.399 . S
C1629 C1630 1.385 . S
C1630 H1616 0.931 . S
C1630 C1629 1.385 . S
C1630 C1631 1.389 . S
C1631 C1630 1.389 . S
C1631 C1632 1.387 . S
C1632 H1617 0.930 . S
C1632 C1627 1.390 . S
C1632 C1631 1.387 . S
H1633 C1645 0.930 . S
H1634 C1647 0.930 . S
H1635 C1648 0.930 . S
H1636 C1652 0.959 . S
H1637 C1652 0.959 . S
H1638 C1652 0.961 . S
H1639 C1653 0.960 1_546 S
H1640 C1653 0.961 . S
H1641 C1653 0.959 . S
H1642 C1656 0.929 . S
H1643 C1657 0.931 . S
H1644 C1659 0.930 . S
C1645 H1633 0.930 . S
C1645 C1646 1.399 . S
C1645 C1650 1.399 . S
C1646 C1645 1.399 . S
C1646 C1647 1.376 . S
C1647 H1634 0.930 . S
C1647 C1646 1.376 . S
C1647 C1648 1.388 . S
C1648 H1635 0.930 . S
C1648 C1647 1.388 . S
C1648 C1649 1.390 . S
C1649 C1648 1.390 . S
C1649 C1650 1.394 . S
C1649 C1655 1.465 . S
C1650 C1645 1.399 . S
C1650 C1649 1.394 . S
C1650 C1651 1.516 . S
C1651 C1650 1.516 . S
C1651 C1652 1.502 . S
C1651 C1653 1.561 1_545 S
C1651 C1654 1.526 1_545 S
C1652 H1636 0.959 . S
C1652 H1637 0.959 . S
C1652 H1638 0.961 . S
C1652 C1651 1.502 . S
C1653 H1639 0.960 1_564 S
C1653 H1640 0.961 . S
C1653 H1641 0.959 . S
C1653 C1651 1.561 1_565 S
C1654 C1651 1.526 1_565 S
C1654 C1655 1.396 1_565 S
C1654 C1659 1.390 . S
C1655 C1649 1.465 . S
C1655 C1654 1.396 1_545 S
C1655 C1656 1.399 1_545 S
C1656 H1642 0.929 . S
C1656 C1655 1.399 1_565 S
C1656 C1657 1.385 . S
C1657 H1643 0.931 . S
C1657 C1656 1.385 . S
C1657 C1658 1.389 . S
C1658 C1657 1.389 . S
C1658 C1659 1.387 . S
C1659 H1644 0.930 . S
C1659 C1654 1.390 . S
C1659 C1658 1.387 . S
H1660 C1672 0.930 . S
H1661 C1674 0.930 . S
H1662 C1675 0.930 . S
H1663 C1679 0.959 . S
H1664 C1679 0.959 . S
H1665 C1679 0.961 . S
H1666 C1680 0.960 . S
H1667 C1680 0.961 . S
H1668 C1680 0.959 . S
H1669 C1683 0.929 . S
H1670 C1684 0.931 . S
H1671 C1686 0.930 . S
C1672 H1660 0.930 . S
C1672 C1673 1.399 . S
C1672 C1677 1.399 . S
C1673 C1672 1.399 . S
C1673 C1674 1.376 . S
C1674 H1661 0.930 . S
C1674 C1673 1.376 . S
C1674 C1675 1.388 . S
C1675 H1662 0.930 . S
C1675 C1674 1.388 . S
C1675 C1676 1.390 . S
C1676 C1675 1.390 . S
C1676 C1677 1.394 . S
C1676 C1682 1.465 . S
C1677 C1672 1.399 . S
C1677 C1676 1.394 . S
C1677 C1678 1.516 . S
C1678 C1677 1.516 . S
C1678 C1679 1.502 . S
C1678 C1680 1.561 . S
C1678 C1681 1.526 . S
C1679 H1663 0.959 . S
C1679 H1664 0.959 . S
C1679 H1665 0.961 . S
C1679 C1678 1.502 . S
C1680 H1666 0.960 . S
C1680 H1667 0.961 . S
C1680 H1668 0.959 . S
C1680 C1678 1.561 . S
C1681 C1678 1.526 . S
C1681 C1682 1.396 . S
C1681 C1686 1.390 . S
C1682 C1676 1.465 . S
C1682 C1681 1.396 . S
C1682 C1683 1.399 . S
C1683 H1669 0.929 . S
C1683 C1682 1.399 . S
C1683 C1684 1.385 . S
C1684 H1670 0.931 . S
C1684 C1683 1.385 . S
C1684 C1685 1.389 . S
C1685 C1684 1.389 . S
C1685 C1686 1.387 . S
C1686 H1671 0.930 . S
C1686 C1681 1.390 . S
C1686 C1685 1.387 . S
H1687 C1699 0.930 . S
H1688 C1701 0.930 . S
H1689 C1702 0.930 . S
H1690 C1706 0.959 . S
H1691 C1706 0.959 . S
H1692 C1706 0.961 . S
H1693 C1707 0.954 1_565 S
H1694 C1707 0.961 . S
H1695 C1707 0.947 1_565 S
H1696 C1710 0.929 . S
H1697 C1711 0.931 . S
H1698 C1713 0.930 . S
C1699 H1687 0.930 . S
C1699 C1700 1.399 . S
C1699 C1704 1.399 . S
C1700 C1699 1.399 . S
C1700 C1701 1.376 . S
C1701 H1688 0.930 . S
C1701 C1700 1.376 . S
C1701 C1702 1.388 . S
C1702 H1689 0.930 . S
C1702 C1701 1.388 . S
C1702 C1703 1.390 . S
C1703 C1702 1.390 . S
C1703 C1704 1.394 . S
C1703 C1709 1.465 . S
C1704 C1699 1.399 . S
C1704 C1703 1.394 . S
C1704 C1705 1.516 1_565 S
C1705 C1704 1.516 1_545 S
C1705 C1706 1.502 . S
C1705 C1707 1.561 . S
C1705 C1708 1.526 . S
C1706 H1690 0.959 . S
C1706 H1691 0.959 . S
C1706 H1692 0.961 . S
C1706 C1705 1.502 . S
C1707 H1693 0.954 1_545 S
C1707 H1694 0.961 . S
C1707 H1695 0.947 1_545 S
C1707 C1705 1.561 . S
C1708 C1705 1.526 . S
C1708 C1709 1.396 1_545 S
C1708 C1713 1.390 . S
C1709 C1703 1.465 . S
C1709 C1708 1.396 1_565 S
C1709 C1710 1.399 . S
C1710 H1696 0.929 . S
C1710 C1709 1.399 . S
C1710 C1711 1.385 1_565 S
C1711 H1697 0.931 . S
C1711 C1710 1.385 1_545 S
C1711 C1712 1.389 . S
C1712 C1711 1.389 . S
C1712 C1713 1.387 . S
C1713 H1698 0.930 . S
C1713 C1708 1.390 . S
C1713 C1712 1.387 . S
H1714 C1726 0.930 . S
H1715 C1728 0.930 . S
H1716 C1729 0.930 . S
H1717 C1733 0.959 . S
H1718 C1733 0.959 . S
H1719 C1733 0.961 . S
H1720 C1734 0.960 . S
H1721 C1734 0.961 . S
H1722 C1734 0.959 . S
H1723 C1737 0.929 . S
H1724 C1738 0.931 . S
H1725 C1740 0.930 . S
C1726 H1714 0.930 . S
C1726 C1727 1.399 . S
C1726 C1731 1.399 . S
C1727 C1726 1.399 . S
C1727 C1728 1.376 . S
C1728 H1715 0.930 . S
C1728 C1727 1.376 . S
C1728 C1729 1.388 . S
C1729 H1716 0.930 . S
C1729 C1728 1.388 . S
C1729 C1730 1.390 . S
C1730 C1729 1.390 . S
C1730 C1731 1.394 . S
C1730 C1736 1.465 . S
C1731 C1726 1.399 . S
C1731 C1730 1.394 . S
C1731 C1732 1.516 . S
C1732 C1731 1.516 . S
C1732 C1733 1.502 . S
C1732 C1734 1.561 . S
C1732 C1735 1.526 . S
C1733 H1717 0.959 . S
C1733 H1718 0.959 . S
C1733 H1719 0.961 . S
C1733 C1732 1.502 . S
C1734 H1720 0.960 . S
C1734 H1721 0.961 . S
C1734 H1722 0.959 . S
C1734 C1732 1.561 . S
C1735 C1732 1.526 . S
C1735 C1736 1.396 . S
C1735 C1740 1.390 . S
C1736 C1730 1.465 . S
C1736 C1735 1.396 . S
C1736 C1737 1.399 . S
C1737 H1723 0.929 . S
C1737 C1736 1.399 . S
C1737 C1738 1.385 . S
C1738 H1724 0.931 . S
C1738 C1737 1.385 . S
C1738 C1739 1.389 . S
C1739 C1738 1.389 . S
C1739 C1740 1.387 . S
C1740 H1725 0.930 . S
C1740 C1735 1.390 . S
C1740 C1739 1.387 . S
H1741 C1753 0.930 . S
H1742 C1755 0.930 . S
H1743 C1756 0.930 . S
H1744 C1760 0.959 . S
H1745 C1760 0.959 1_565 S
H1746 C1760 0.961 1_554 S
H1747 C1761 0.960 1_554 S
H1748 C1761 0.961 . S
H1749 C1761 0.959 . S
H1750 C1764 0.929 1_545 S
H1751 C1765 0.931 . S
H1752 C1767 0.930 . S
C1753 H1741 0.930 . S
C1753 C1754 1.399 . S
C1753 C1758 1.399 . S
C1754 C1753 1.399 . S
C1754 C1755 1.376 . S
C1755 H1742 0.930 . S
C1755 C1754 1.376 . S
C1755 C1756 1.388 . S
C1756 H1743 0.930 . S
C1756 C1755 1.388 . S
C1756 C1757 1.390 . S
C1757 C1756 1.390 . S
C1757 C1758 1.394 . S
C1757 C1763 1.465 . S
C1758 C1753 1.399 . S
C1758 C1757 1.394 . S
C1758 C1759 1.516 . S
C1759 C1758 1.516 . S
C1759 C1760 1.502 . S
C1759 C1761 1.561 1_545 S
C1759 C1762 1.526 1_545 S
C1760 H1744 0.959 . S
C1760 H1745 0.959 1_545 S
C1760 H1746 0.961 1_556 S
C1760 C1759 1.502 . S
C1761 H1747 0.960 1_556 S
C1761 H1748 0.961 . S
C1761 H1749 0.959 . S
C1761 C1759 1.561 1_565 S
C1762 C1759 1.526 1_565 S
C1762 C1763 1.396 1_565 S
C1762 C1767 1.390 . S
C1763 C1757 1.465 . S
C1763 C1762 1.396 1_545 S
C1763 C1764 1.399 1_545 S
C1764 H1750 0.929 1_565 S
C1764 C1763 1.399 1_565 S
C1764 C1765 1.385 . S
C1765 H1751 0.931 . S
C1765 C1764 1.385 . S
C1765 C1766 1.389 . S
C1766 C1765 1.389 . S
C1766 C1767 1.387 . S
C1767 H1752 0.930 . S
C1767 C1762 1.390 . S
C1767 C1766 1.387 . S
H1768 C1780 0.930 . S
H1769 C1782 0.966 . S
H1770 C1783 0.930 . S
H1771 C1787 0.959 . S
H1772 C1787 0.959 . S
H1773 C1787 0.961 . S
H1774 C1788 0.960 . S
H1775 C1788 0.961 . S
H1776 C1788 0.959 . S
H1777 C1791 0.929 . S
H1778 C1792 0.931 . S
H1779 C1794 0.930 . S
C1780 H1768 0.930 . S
C1780 C1781 1.399 . S
C1780 C1785 1.399 . S
C1781 C1780 1.399 . S
C1781 C1782 1.376 . S
C1782 H1769 0.966 . S
C1782 C1781 1.376 . S
C1782 C1783 1.388 . S
C1783 H1770 0.930 . S
C1783 C1782 1.388 . S
C1783 C1784 1.390 . S
C1784 C1783 1.390 . S
C1784 C1785 1.394 . S
C1784 C1790 1.465 . S
C1785 C1780 1.399 . S
C1785 C1784 1.394 . S
C1785 C1786 1.516 . S
C1786 C1785 1.516 . S
C1786 C1787 1.502 . S
C1786 C1788 1.561 . S
C1786 C1789 1.526 . S
C1787 H1771 0.959 . S
C1787 H1772 0.959 . S
C1787 H1773 0.961 . S
C1787 C1786 1.502 . S
C1788 H1774 0.960 . S
C1788 H1775 0.961 . S
C1788 H1776 0.959 . S
C1788 C1786 1.561 . S
C1789 C1786 1.526 . S
C1789 C1790 1.396 . S
C1789 C1794 1.390 . S
C1790 C1784 1.465 . S
C1790 C1789 1.396 . S
C1790 C1791 1.399 . S
C1791 H1777 0.929 . S
C1791 C1790 1.399 . S
C1791 C1792 1.385 . S
C1792 H1778 0.931 . S
C1792 C1791 1.385 . S
C1792 C1793 1.389 . S
C1793 C1792 1.389 . S
C1793 C1794 1.387 . S
C1794 H1779 0.930 . S
C1794 C1789 1.390 . S
C1794 C1793 1.387 . S
H1795 C1807 0.930 . S
H1796 C1809 0.930 . S
H1797 C1810 0.930 . S
H1798 C1814 0.959 . S
H1799 C1814 0.959 . S
H1800 C1814 0.961 . S
H1801 C1815 0.960 . S
H1802 C1815 0.961 . S
H1803 C1815 0.959 . S
H1804 C1818 0.929 . S
H1805 C1819 0.931 . S
H1806 C1821 0.930 . S
C1807 H1795 0.930 . S
C1807 C1808 1.399 . S
C1807 C1812 1.399 . S
C1808 C1807 1.399 . S
C1808 C1809 1.376 . S
C1809 H1796 0.930 . S
C1809 C1808 1.376 . S
C1809 C1810 1.388 . S
C1810 H1797 0.930 . S
C1810 C1809 1.388 . S
C1810 C1811 1.390 . S
C1811 C1810 1.390 . S
C1811 C1812 1.394 . S
C1811 C1817 1.465 . S
C1812 C1807 1.399 . S
C1812 C1811 1.394 . S
C1812 C1813 1.516 . S
C1813 C1812 1.516 . S
C1813 C1814 1.502 . S
C1813 C1815 1.561 . S
C1813 C1816 1.526 . S
C1814 H1798 0.959 . S
C1814 H1799 0.959 . S
C1814 H1800 0.961 . S
C1814 C1813 1.502 . S
C1815 H1801 0.960 . S
C1815 H1802 0.961 . S
C1815 H1803 0.959 . S
C1815 C1813 1.561 . S
C1816 C1813 1.526 . S
C1816 C1817 1.396 . S
C1816 C1821 1.390 . S
C1817 C1811 1.465 . S
C1817 C1816 1.396 . S
C1817 C1818 1.399 . S
C1818 H1804 0.929 . S
C1818 C1817 1.399 . S
C1818 C1819 1.385 . S
C1819 H1805 0.931 . S
C1819 C1818 1.385 . S
C1819 C1820 1.389 . S
C1820 C1819 1.389 . S
C1820 C1821 1.387 . S
C1821 H1806 0.930 . S
C1821 C1816 1.390 . S
C1821 C1820 1.387 . S
H1822 C1834 0.930 . S
H1823 C1836 0.930 . S
H1824 C1837 0.930 . S
H1825 C1841 0.959 . S
H1826 C1841 0.959 . S
H1827 C1841 0.961 . S
H1828 C1842 0.960 . S
H1829 C1842 0.961 . S
H1830 C1842 0.959 . S
H1831 C1845 0.929 . S
H1832 C1846 0.931 . S
H1833 C1848 0.930 . S
C1834 H1822 0.930 . S
C1834 C1835 1.399 . S
C1834 C1839 1.399 . S
C1835 C1834 1.399 . S
C1835 C1836 1.376 . S
C1836 H1823 0.930 . S
C1836 C1835 1.376 . S
C1836 C1837 1.388 . S
C1837 H1824 0.930 . S
C1837 C1836 1.388 . S
C1837 C1838 1.390 . S
C1838 C1837 1.390 . S
C1838 C1839 1.394 . S
C1838 C1844 1.465 . S
C1839 C1834 1.399 . S
C1839 C1838 1.394 . S
C1839 C1840 1.516 1_655 S
C1840 C1839 1.516 1_455 S
C1840 C1841 1.502 . S
C1840 C1842 1.561 . S
C1840 C1843 1.526 . S
C1841 H1825 0.959 . S
C1841 H1826 0.959 . S
C1841 H1827 0.961 . S
C1841 C1840 1.502 . S
C1842 H1828 0.960 . S
C1842 H1829 0.961 . S
C1842 H1830 0.959 . S
C1842 C1840 1.561 . S
C1843 C1840 1.526 . S
C1843 C1844 1.396 1_455 S
C1843 C1848 1.390 . S
C1844 C1838 1.465 . S
C1844 C1843 1.396 1_655 S
C1844 C1845 1.399 . S
C1845 H1831 0.929 . S
C1845 C1844 1.399 . S
C1845 C1846 1.385 1_655 S
C1846 H1832 0.931 . S
C1846 C1845 1.385 1_455 S
C1846 C1847 1.389 . S
C1847 C1846 1.389 . S
C1847 C1848 1.387 . S
C1848 H1833 0.930 . S
C1848 C1843 1.390 . S
C1848 C1847 1.387 . S
H1849 C1861 0.930 . S
H1850 C1863 0.930 . S
H1851 C1864 0.930 . S
H1852 C1868 0.959 . S
H1853 C1868 0.959 . S
H1854 C1868 0.961 . S
H1855 C1869 0.960 . S
H1856 C1869 0.961 . S
H1857 C1869 0.959 . S
H1858 C1872 0.929 . S
H1859 C1873 0.931 . S
H1860 C1875 0.930 . S
C1861 H1849 0.930 . S
C1861 C1862 1.399 . S
C1861 C1866 1.399 . S
C1862 C1861 1.399 . S
C1862 C1863 1.376 . S
C1863 H1850 0.930 . S
C1863 C1862 1.376 . S
C1863 C1864 1.388 . S
C1864 H1851 0.930 . S
C1864 C1863 1.388 . S
C1864 C1865 1.390 . S
C1865 C1864 1.390 . S
C1865 C1866 1.394 . S
C1865 C1871 1.465 . S
C1866 C1861 1.399 . S
C1866 C1865 1.394 . S
C1866 C1867 1.516 . S
C1867 C1866 1.516 . S
C1867 C1868 1.502 . S
C1867 C1869 1.561 . S
C1867 C1870 1.526 . S
C1868 H1852 0.959 . S
C1868 H1853 0.959 . S
C1868 H1854 0.961 . S
C1868 C1867 1.502 . S
C1869 H1855 0.960 . S
C1869 H1856 0.961 . S
C1869 H1857 0.959 . S
C1869 C1867 1.561 . S
C1870 C1867 1.526 . S
C1870 C1871 1.396 . S
C1870 C1875 1.390 . S
C1871 C1865 1.465 . S
C1871 C1870 1.396 . S
C1871 C1872 1.399 . S
C1872 H1858 0.929 . S
C1872 C1871 1.399 . S
C1872 C1873 1.385 . S
C1873 H1859 0.931 . S
C1873 C1872 1.385 . S
C1873 C1874 1.389 . S
C1874 C1873 1.389 . S
C1874 C1875 1.387 . S
C1875 H1860 0.930 . S
C1875 C1870 1.390 . S
C1875 C1874 1.387 . S
H1876 C1888 0.930 . S
H1877 C1890 0.930 . S
H1878 C1891 0.930 . S
H1879 C1895 0.959 . S
H1880 C1895 0.959 . S
H1881 C1895 0.961 . S
H1882 C1896 0.960 1_545 S
H1883 C1896 0.961 1_655 S
H1884 C1896 0.959 1_655 S
H1885 C1899 0.929 . S
H1886 C1900 0.931 . S
H1887 C1902 0.930 . S
C1888 H1876 0.930 . S
C1888 C1889 1.399 . S
C1888 C1893 1.399 . S
C1889 C1888 1.399 . S
C1889 C1890 1.376 . S
C1890 H1877 0.930 . S
C1890 C1889 1.376 . S
C1890 C1891 1.388 . S
C1891 H1878 0.930 . S
C1891 C1890 1.388 . S
C1891 C1892 1.390 . S
C1892 C1891 1.390 . S
C1892 C1893 1.394 . S
C1892 C1898 1.465 . S
C1893 C1888 1.399 . S
C1893 C1892 1.394 . S
C1893 C1894 1.516 . S
C1894 C1893 1.516 . S
C1894 C1895 1.502 . S
C1894 C1896 1.561 . S
C1894 C1897 1.517 1_455 S
C1895 H1879 0.959 . S
C1895 H1880 0.959 . S
C1895 H1881 0.961 . S
C1895 C1894 1.502 . S
C1896 H1882 0.960 1_565 S
C1896 H1883 0.961 1_455 S
C1896 H1884 0.959 1_455 S
C1896 C1894 1.561 . S
C1897 C1894 1.517 1_655 S
C1897 C1898 1.394 1_655 S
C1897 C1902 1.400 . S
C1898 C1892 1.465 . S
C1898 C1897 1.394 1_455 S
C1898 C1899 1.399 1_455 S
C1899 H1885 0.929 . S
C1899 C1898 1.399 1_655 S
C1899 C1900 1.385 . S
C1900 H1886 0.931 . S
C1900 C1899 1.385 . S
C1900 C1901 1.389 . S
C1901 C1900 1.389 . S
C1901 C1902 1.387 . S
C1902 H1887 0.930 . S
C1902 C1897 1.400 . S
C1902 C1901 1.387 . S
H1903 C1915 0.930 . S
H1904 C1917 0.930 . S
H1905 C1918 0.930 . S
H1906 C1922 0.959 . S
H1907 C1922 0.959 . S
H1908 C1922 0.961 . S
H1909 C1923 0.960 . S
H1910 C1923 0.961 . S
H1911 C1923 0.959 . S
H1912 C1926 0.929 . S
H1913 C1927 0.931 . S
H1914 C1929 0.930 . S
C1915 H1903 0.930 . S
C1915 C1916 1.399 . S
C1915 C1920 1.399 . S
C1916 C1915 1.399 . S
C1916 C1917 1.376 . S
C1917 H1904 0.930 . S
C1917 C1916 1.376 . S
C1917 C1918 1.388 . S
C1918 H1905 0.930 . S
C1918 C1917 1.388 . S
C1918 C1919 1.390 . S
C1919 C1918 1.390 . S
C1919 C1920 1.394 . S
C1919 C1925 1.465 . S
C1920 C1915 1.399 . S
C1920 C1919 1.394 . S
C1920 C1921 1.516 . S
C1921 C1920 1.516 . S
C1921 C1922 1.502 . S
C1921 C1923 1.561 . S
C1921 C1924 1.526 . S
C1922 H1906 0.959 . S
C1922 H1907 0.959 . S
C1922 H1908 0.961 . S
C1922 C1921 1.502 . S
C1923 H1909 0.960 . S
C1923 H1910 0.961 . S
C1923 H1911 0.959 . S
C1923 C1921 1.561 . S
C1924 C1921 1.526 . S
C1924 C1925 1.396 . S
C1924 C1929 1.390 . S
C1925 C1919 1.465 . S
C1925 C1924 1.396 . S
C1925 C1926 1.399 . S
C1926 H1912 0.929 . S
C1926 C1925 1.399 . S
C1926 C1927 1.385 . S
C1927 H1913 0.931 . S
C1927 C1926 1.385 . S
C1927 C1928 1.389 . S
C1928 C1927 1.389 . S
C1928 C1929 1.387 . S
C1929 H1914 0.930 . S
C1929 C1924 1.390 . S
C1929 C1928 1.387 . S
H1930 C1942 0.930 . S
H1931 C1944 0.930 . S
H1932 C1945 0.930 . S
H1933 C1949 0.959 . S
H1934 C1949 0.959 . S
H1935 C1949 0.961 . S
H1936 C1950 0.960 . S
H1937 C1950 0.961 . S
H1938 C1950 0.959 . S
H1939 C1953 0.929 . S
H1940 C1954 0.931 . S
H1941 C1956 0.930 . S
C1942 H1930 0.930 . S
C1942 C1943 1.399 . S
C1942 C1947 1.399 . S
C1943 C1942 1.399 . S
C1943 C1944 1.376 . S
C1944 H1931 0.930 . S
C1944 C1943 1.376 . S
C1944 C1945 1.388 . S
C1945 H1932 0.930 . S
C1945 C1944 1.388 . S
C1945 C1946 1.390 . S
C1946 C1945 1.390 . S
C1946 C1947 1.394 . S
C1946 C1952 1.465 . S
C1947 C1942 1.399 . S
C1947 C1946 1.394 . S
C1947 C1948 1.516 1_655 S
C1948 C1947 1.516 1_455 S
C1948 C1949 1.502 . S
C1948 C1950 1.561 . S
C1948 C1951 1.526 . S
C1949 H1933 0.959 . S
C1949 H1934 0.959 . S
C1949 H1935 0.961 . S
C1949 C1948 1.502 . S
C1950 H1936 0.960 . S
C1950 H1937 0.961 . S
C1950 H1938 0.959 . S
C1950 C1948 1.561 . S
C1951 C1948 1.526 . S
C1951 C1952 1.396 1_455 S
C1951 C1956 1.390 . S
C1952 C1946 1.465 . S
C1952 C1951 1.396 1_655 S
C1952 C1953 1.399 . S
C1953 H1939 0.929 . S
C1953 C1952 1.399 . S
C1953 C1954 1.385 1_655 S
C1954 H1940 0.931 . S
C1954 C1953 1.385 1_455 S
C1954 C1955 1.389 . S
C1955 C1954 1.389 . S
C1955 C1956 1.387 . S
C1956 H1941 0.930 . S
C1956 C1951 1.390 . S
C1956 C1955 1.387 . S
H1957 C1969 0.930 . S
H1958 C1971 0.930 . S
H1959 C1972 0.930 . S
H1960 C1976 0.959 . S
H1961 C1976 0.959 . S
H1962 C1976 0.961 . S
H1963 C1977 0.960 . S
H1964 C1977 0.961 . S
H1965 C1977 0.959 . S
H1966 C1980 0.929 . S
H1967 C1981 0.931 . S
H1968 C1983 0.930 . S
C1969 H1957 0.930 . S
C1969 C1970 1.399 . S
C1969 C1974 1.399 . S
C1970 C1969 1.399 . S
C1970 C1971 1.376 . S
C1971 H1958 0.930 . S
C1971 C1970 1.376 . S
C1971 C1972 1.388 . S
C1972 H1959 0.930 . S
C1972 C1971 1.388 . S
C1972 C1973 1.390 . S
C1973 C1972 1.390 . S
C1973 C1974 1.394 . S
C1973 C1979 1.465 . S
C1974 C1969 1.399 . S
C1974 C1973 1.394 . S
C1974 C1975 1.516 . S
C1975 C1974 1.516 . S
C1975 C1976 1.502 . S
C1975 C1977 1.561 . S
C1975 C1978 1.526 . S
C1976 H1960 0.959 . S
C1976 H1961 0.959 . S
C1976 H1962 0.961 . S
C1976 C1975 1.502 . S
C1977 H1963 0.960 . S
C1977 H1964 0.961 . S
C1977 H1965 0.959 . S
C1977 C1975 1.561 . S
C1978 C1975 1.526 . S
C1978 C1979 1.396 . S
C1978 C1983 1.390 . S
C1979 C1973 1.465 . S
C1979 C1978 1.396 . S
C1979 C1980 1.399 . S
C1980 H1966 0.929 . S
C1980 C1979 1.399 . S
C1980 C1981 1.385 . S
C1981 H1967 0.931 . S
C1981 C1980 1.385 . S
C1981 C1982 1.389 . S
C1982 C1981 1.389 . S
C1982 C1983 1.387 . S
C1983 H1968 0.930 . S
C1983 C1978 1.390 . S
C1983 C1982 1.387 . S
H1984 C1996 0.930 . S
H1985 C1998 0.930 . S
H1986 C1999 0.930 . S
H1987 C2003 0.959 . S
H1988 C2003 0.959 . S
H1989 C2003 0.961 . S
H1990 C2004 0.960 . S
H1991 C2004 0.961 . S
H1992 C2004 0.959 . S
H1993 C2007 0.929 . S
H1994 C2008 0.931 . S
H1995 C2010 0.930 . S
C1996 H1984 0.930 . S
C1996 C1997 1.399 . S
C1996 C2001 1.399 . S
C1997 C1996 1.399 . S
C1997 C1998 1.376 . S
C1998 H1985 0.930 . S
C1998 C1997 1.376 . S
C1998 C1999 1.388 . S
C1999 H1986 0.930 . S
C1999 C1998 1.388 . S
C1999 C2000 1.390 . S
C2000 C1999 1.390 . S
C2000 C2001 1.394 . S
C2000 C2006 1.465 . S
C2001 C1996 1.399 . S
C2001 C2000 1.394 . S
C2001 C2002 1.516 . S
C2002 C2001 1.516 . S
C2002 C2003 1.502 . S
C2002 C2004 1.561 . S
C2002 C2005 1.526 . S
C2003 H1987 0.959 . S
C2003 H1988 0.959 . S
C2003 H1989 0.961 . S
C2003 C2002 1.502 . S
C2004 H1990 0.960 . S
C2004 H1991 0.961 . S
C2004 H1992 0.959 . S
C2004 C2002 1.561 . S
C2005 C2002 1.526 . S
C2005 C2006 1.396 . S
C2005 C2010 1.390 . S
C2006 C2000 1.465 . S
C2006 C2005 1.396 . S
C2006 C2007 1.399 . S
C2007 H1993 0.929 . S
C2007 C2006 1.399 . S
C2007 C2008 1.385 . S
C2008 H1994 0.931 . S
C2008 C2007 1.385 . S
C2008 C2009 1.389 . S
C2009 C2008 1.389 . S
C2009 C2010 1.387 . S
C2010 H1995 0.930 . S
C2010 C2005 1.390 . S
C2010 C2009 1.387 . S
H2011 C2023 0.930 . S
H2012 C2025 0.930 . S
H2013 C2026 0.930 . S
H2014 C2030 0.959 . S
H2015 C2030 0.959 . S
H2016 C2030 0.961 . S
H2017 C2031 0.960 . S
H2018 C2031 0.961 1_556 S
H2019 C2031 0.959 . S
H2020 C2034 0.929 . S
H2021 C2035 0.931 . S
H2022 C2037 0.930 . S
C2023 H2011 0.930 . S
C2023 C2024 1.399 . S
C2023 C2028 1.399 . S
C2024 C2023 1.399 . S
C2024 C2025 1.376 . S
C2025 H2012 0.930 . S
C2025 C2024 1.376 . S
C2025 C2026 1.388 . S
C2026 H2013 0.930 . S
C2026 C2025 1.388 . S
C2026 C2027 1.390 . S
C2027 C2026 1.390 . S
C2027 C2028 1.394 . S
C2027 C2033 1.465 . S
C2028 C2023 1.399 . S
C2028 C2027 1.394 . S
C2028 C2029 1.516 . S
C2029 C2028 1.516 . S
C2029 C2030 1.502 1_554 S
C2029 C2031 1.561 . S
C2029 C2032 1.526 1_554 S
C2030 H2014 0.959 . S
C2030 H2015 0.959 . S
C2030 H2016 0.961 . S
C2030 C2029 1.502 1_556 S
C2031 H2017 0.960 . S
C2031 H2018 0.961 1_554 S
C2031 H2019 0.959 . S
C2031 C2029 1.561 . S
C2032 C2029 1.526 1_556 S
C2032 C2033 1.396 1_556 S
C2032 C2037 1.390 . S
C2033 C2027 1.465 . S
C2033 C2032 1.396 1_554 S
C2033 C2034 1.399 . S
C2034 H2020 0.929 . S
C2034 C2033 1.399 . S
C2034 C2035 1.385 1_554 S
C2035 H2021 0.931 . S
C2035 C2034 1.385 1_556 S
C2035 C2036 1.389 . S
C2036 C2035 1.389 . S
C2036 C2037 1.387 . S
C2037 H2022 0.930 . S
C2037 C2032 1.390 . S
C2037 C2036 1.387 . S
H2038 C2050 0.930 . S
H2039 C2052 0.930 . S
H2040 C2053 0.930 . S
H2041 C2057 0.959 . S
H2042 C2057 0.959 . S
H2043 C2057 0.961 . S
H2044 C2058 0.960 . S
H2045 C2058 0.961 . S
H2046 C2058 0.959 . S
H2047 C2061 0.929 . S
H2048 C2062 0.931 . S
H2049 C2064 0.930 . S
C2050 H2038 0.930 . S
C2050 C2051 1.399 . S
C2050 C2055 1.399 . S
C2051 C2050 1.399 . S
C2051 C2052 1.376 . S
C2052 H2039 0.930 . S
C2052 C2051 1.376 . S
C2052 C2053 1.388 . S
C2053 H2040 0.930 . S
C2053 C2052 1.388 . S
C2053 C2054 1.390 . S
C2054 C2053 1.390 . S
C2054 C2055 1.394 . S
C2054 C2060 1.465 . S
C2055 C2050 1.399 . S
C2055 C2054 1.394 . S
C2055 C2056 1.516 . S
C2056 C2055 1.516 . S
C2056 C2057 1.502 . S
C2056 C2058 1.561 . S
C2056 C2059 1.526 . S
C2057 H2041 0.959 . S
C2057 H2042 0.959 . S
C2057 H2043 0.961 . S
C2057 C2056 1.502 . S
C2058 H2044 0.960 . S
C2058 H2045 0.961 . S
C2058 H2046 0.959 . S
C2058 C2056 1.561 . S
C2059 C2056 1.526 . S
C2059 C2060 1.396 . S
C2059 C2064 1.390 . S
C2060 C2054 1.465 . S
C2060 C2059 1.396 . S
C2060 C2061 1.399 . S
C2061 H2047 0.929 . S
C2061 C2060 1.399 . S
C2061 C2062 1.385 . S
C2062 H2048 0.931 . S
C2062 C2061 1.385 . S
C2062 C2063 1.389 . S
C2063 C2062 1.389 . S
C2063 C2064 1.387 . S
C2064 H2049 0.930 . S
C2064 C2059 1.390 . S
C2064 C2063 1.387 . S
H2065 C2077 0.930 . S
H2066 C2079 0.930 . S
H2067 C2080 0.930 . S
H2068 C2084 0.959 . S
H2069 C2084 0.959 . S
H2070 C2084 0.961 . S
H2071 C2085 0.941 1_455 S
H2072 C2085 0.961 . S
H2073 C2085 0.959 . S
H2074 C2088 0.929 . S
H2075 C2089 0.931 . S
H2076 C2091 0.930 . S
C2077 H2065 0.930 . S
C2077 C2078 1.399 . S
C2077 C2082 1.399 . S
C2078 C2077 1.399 . S
C2078 C2079 1.376 . S
C2079 H2066 0.930 . S
C2079 C2078 1.376 . S
C2079 C2080 1.388 . S
C2080 H2067 0.930 . S
C2080 C2079 1.388 . S
C2080 C2081 1.390 . S
C2081 C2080 1.390 . S
C2081 C2082 1.394 . S
C2081 C2087 1.465 . S
C2082 C2077 1.399 . S
C2082 C2081 1.394 . S
C2082 C2083 1.516 . S
C2083 C2082 1.516 . S
C2083 C2084 1.502 . S
C2083 C2085 1.561 . S
C2083 C2086 1.526 . S
C2084 H2068 0.959 . S
C2084 H2069 0.959 . S
C2084 H2070 0.961 . S
C2084 C2083 1.502 . S
C2085 H2071 0.941 1_655 S
C2085 H2072 0.961 . S
C2085 H2073 0.959 . S
C2085 C2083 1.561 . S
C2086 C2083 1.526 . S
C2086 C2087 1.396 . S
C2086 C2091 1.390 . S
C2087 C2081 1.465 . S
C2087 C2086 1.396 . S
C2087 C2088 1.399 . S
C2088 H2074 0.929 . S
C2088 C2087 1.399 . S
C2088 C2089 1.385 . S
C2089 H2075 0.931 . S
C2089 C2088 1.385 . S
C2089 C2090 1.389 . S
C2090 C2089 1.389 . S
C2090 C2091 1.387 . S
C2091 H2076 0.930 . S
C2091 C2086 1.390 . S
C2091 C2090 1.387 . S
H2092 C2104 0.930 . S
H2093 C2106 0.930 . S
H2094 C2107 0.930 . S
H2095 C2111 0.959 . S
H2096 C2111 0.959 . S
H2097 C2111 0.961 . S
H2098 C2112 0.960 . S
H2099 C2112 0.961 . S
H2100 C2112 0.959 . S
H2101 C2115 0.929 . S
H2102 C2116 0.931 . S
H2103 C2118 0.930 . S
C2104 H2092 0.930 . S
C2104 C2105 1.399 . S
C2104 C2109 1.399 . S
C2105 C2104 1.399 . S
C2105 C2106 1.376 . S
C2106 H2093 0.930 . S
C2106 C2105 1.376 . S
C2106 C2107 1.388 . S
C2107 H2094 0.930 . S
C2107 C2106 1.388 . S
C2107 C2108 1.390 . S
C2108 C2107 1.390 . S
C2108 C2109 1.394 . S
C2108 C2114 1.465 . S
C2109 C2104 1.399 . S
C2109 C2108 1.394 . S
C2109 C2110 1.516 . S
C2110 C2109 1.516 . S
C2110 C2111 1.502 . S
C2110 C2112 1.561 . S
C2110 C2113 1.526 . S
C2111 H2095 0.959 . S
C2111 H2096 0.959 . S
C2111 H2097 0.961 . S
C2111 C2110 1.502 . S
C2112 H2098 0.960 . S
C2112 H2099 0.961 . S
C2112 H2100 0.959 . S
C2112 C2110 1.561 . S
C2113 C2110 1.526 . S
C2113 C2114 1.396 . S
C2113 C2118 1.390 . S
C2114 C2108 1.465 . S
C2114 C2113 1.396 . S
C2114 C2115 1.399 . S
C2115 H2101 0.929 . S
C2115 C2114 1.399 . S
C2115 C2116 1.385 . S
C2116 H2102 0.931 . S
C2116 C2115 1.385 . S
C2116 C2117 1.389 . S
C2117 C2116 1.389 . S
C2117 C2118 1.387 . S
C2118 H2103 0.930 . S
C2118 C2113 1.390 . S
C2118 C2117 1.387 . S
H2119 C2131 0.930 . S
H2120 C2133 0.930 . S
H2121 C2134 0.930 . S
H2122 C2138 0.959 . S
H2123 C2138 0.959 . S
H2124 C2138 0.961 . S
H2125 C2139 0.960 . S
H2126 C2139 0.961 . S
H2127 C2139 0.959 . S
H2128 C2142 0.929 . S
H2129 C2143 0.931 . S
H2130 C2145 0.930 . S
C2131 H2119 0.930 . S
C2131 C2132 1.399 . S
C2131 C2136 1.399 . S
C2132 C2131 1.399 . S
C2132 C2133 1.376 . S
C2133 H2120 0.930 . S
C2133 C2132 1.376 . S
C2133 C2134 1.388 . S
C2134 H2121 0.930 . S
C2134 C2133 1.388 . S
C2134 C2135 1.390 . S
C2135 C2134 1.390 . S
C2135 C2136 1.394 . S
C2135 C2141 1.465 1_556 S
C2136 C2131 1.399 . S
C2136 C2135 1.394 . S
C2136 C2137 1.516 . S
C2137 C2136 1.516 . S
C2137 C2138 1.502 . S
C2137 C2139 1.561 . S
C2137 C2140 1.526 1_556 S
C2138 H2122 0.959 . S
C2138 H2123 0.959 . S
C2138 H2124 0.961 . S
C2138 C2137 1.502 . S
C2139 H2125 0.960 . S
C2139 H2126 0.961 . S
C2139 H2127 0.959 . S
C2139 C2137 1.561 . S
C2140 C2137 1.526 1_554 S
C2140 C2141 1.396 . S
C2140 C2145 1.390 . S
C2141 C2135 1.465 1_554 S
C2141 C2140 1.396 . S
C2141 C2142 1.399 . S
C2142 H2128 0.929 . S
C2142 C2141 1.399 . S
C2142 C2143 1.385 . S
C2143 H2129 0.931 . S
C2143 C2142 1.385 . S
C2143 C2144 1.389 . S
C2144 C2143 1.389 . S
C2144 C2145 1.387 . S
C2145 H2130 0.930 . S
C2145 C2140 1.390 . S
C2145 C2144 1.387 . S
H2146 C2158 0.930 . S
H2147 C2160 0.930 . S
H2148 C2161 0.930 . S
H2149 C2165 0.959 . S
H2150 C2165 0.959 . S
H2151 C2165 0.961 . S
H2152 C2166 0.960 . S
H2153 C2166 0.961 . S
H2154 C2166 0.959 . S
H2155 C2169 0.929 . S
H2156 C2170 0.931 . S
H2157 C2172 0.930 . S
C2158 H2146 0.930 . S
C2158 C2159 1.399 . S
C2158 C2163 1.399 . S
C2159 C2158 1.399 . S
C2159 C2160 1.376 . S
C2160 H2147 0.930 . S
C2160 C2159 1.376 . S
C2160 C2161 1.388 . S
C2161 H2148 0.930 . S
C2161 C2160 1.388 . S
C2161 C2162 1.390 . S
C2162 C2161 1.390 . S
C2162 C2163 1.394 . S
C2162 C2168 1.465 . S
C2163 C2158 1.399 . S
C2163 C2162 1.394 . S
C2163 C2164 1.516 . S
C2164 C2163 1.516 . S
C2164 C2165 1.502 . S
C2164 C2166 1.561 . S
C2164 C2167 1.526 . S
C2165 H2149 0.959 . S
C2165 H2150 0.959 . S
C2165 H2151 0.961 . S
C2165 C2164 1.502 . S
C2166 H2152 0.960 . S
C2166 H2153 0.961 . S
C2166 H2154 0.959 . S
C2166 C2164 1.561 . S
C2167 C2164 1.526 . S
C2167 C2168 1.396 . S
C2167 C2172 1.390 . S
C2168 C2162 1.465 . S
C2168 C2167 1.396 . S
C2168 C2169 1.399 . S
C2169 H2155 0.929 . S
C2169 C2168 1.399 . S
C2169 C2170 1.385 . S
C2170 H2156 0.931 . S
C2170 C2169 1.385 . S
C2170 C2171 1.389 . S
C2171 C2170 1.389 . S
C2171 C2172 1.387 . S
C2172 H2157 0.930 . S
C2172 C2167 1.390 . S
C2172 C2171 1.387 . S
H2173 C2185 0.930 . S
H2174 C2187 0.930 . S
H2175 C2188 0.930 . S
H2176 C2192 0.959 . S
H2177 C2192 0.959 . S
H2178 C2192 0.961 . S
H2179 C2193 0.960 . S
H2180 C2193 0.961 . S
H2181 C2193 0.959 . S
H2182 C2196 0.929 . S
H2183 C2197 0.931 . S
H2184 C2199 0.930 . S
C2185 H2173 0.930 . S
C2185 C2186 1.399 . S
C2185 C2190 1.399 . S
C2186 C2185 1.399 . S
C2186 C2187 1.376 . S
C2187 H2174 0.930 . S
C2187 C2186 1.376 . S
C2187 C2188 1.388 . S
C2188 H2175 0.930 . S
C2188 C2187 1.388 . S
C2188 C2189 1.390 . S
C2189 C2188 1.390 . S
C2189 C2190 1.394 . S
C2189 C2195 1.465 . S
C2190 C2185 1.399 . S
C2190 C2189 1.394 . S
C2190 C2191 1.516 . S
C2191 C2190 1.516 . S
C2191 C2192 1.502 . S
C2191 C2193 1.561 . S
C2191 C2194 1.526 . S
C2192 H2176 0.959 . S
C2192 H2177 0.959 . S
C2192 H2178 0.961 . S
C2192 C2191 1.502 . S
C2193 H2179 0.960 . S
C2193 H2180 0.961 . S
C2193 H2181 0.959 . S
C2193 C2191 1.561 . S
C2194 C2191 1.526 . S
C2194 C2195 1.396 . S
C2194 C2199 1.390 . S
C2195 C2189 1.465 . S
C2195 C2194 1.396 . S
C2195 C2196 1.399 . S
C2196 H2182 0.929 . S
C2196 C2195 1.399 . S
C2196 C2197 1.385 . S
C2197 H2183 0.931 . S
C2197 C2196 1.385 . S
C2197 C2198 1.389 . S
C2198 C2197 1.389 . S
C2198 C2199 1.387 . S
C2199 H2184 0.930 . S
C2199 C2194 1.390 . S
C2199 C2198 1.387 . S
H2200 C2212 0.930 . S
H2201 C2214 0.930 . S
H2202 C2215 0.930 . S
H2203 C2219 0.959 . S
H2204 C2219 0.959 . S
H2205 C2219 0.961 . S
H2206 C2220 0.960 . S
H2207 C2220 0.961 . S
H2208 C2220 0.959 . S
H2209 C2223 0.929 . S
H2210 C2224 0.931 . S
H2211 C2226 0.930 . S
C2212 H2200 0.930 . S
C2212 C2213 1.399 . S
C2212 C2217 1.399 . S
C2213 C2212 1.399 . S
C2213 C2214 1.376 . S
C2214 H2201 0.930 . S
C2214 C2213 1.376 . S
C2214 C2215 1.388 . S
C2215 H2202 0.930 . S
C2215 C2214 1.388 . S
C2215 C2216 1.390 . S
C2216 C2215 1.390 . S
C2216 C2217 1.394 . S
C2216 C2222 1.465 . S
C2217 C2212 1.399 . S
C2217 C2216 1.394 . S
C2217 C2218 1.516 . S
C2218 C2217 1.516 . S
C2218 C2219 1.502 . S
C2218 C2220 1.561 . S
C2218 C2221 1.526 . S
C2219 H2203 0.959 . S
C2219 H2204 0.959 . S
C2219 H2205 0.961 . S
C2219 C2218 1.502 . S
C2220 H2206 0.960 . S
C2220 H2207 0.961 . S
C2220 H2208 0.959 . S
C2220 C2218 1.561 . S
C2221 C2218 1.526 . S
C2221 C2222 1.396 . S
C2221 C2226 1.390 . S
C2222 C2216 1.465 . S
C2222 C2221 1.396 . S
C2222 C2223 1.399 . S
C2223 H2209 0.929 . S
C2223 C2222 1.399 . S
C2223 C2224 1.385 . S
C2224 H2210 0.931 . S
C2224 C2223 1.385 . S
C2224 C2225 1.389 . S
C2225 C2224 1.389 . S
C2225 C2226 1.387 . S
C2226 H2211 0.930 . S
C2226 C2221 1.390 . S
C2226 C2225 1.387 . S
H2227 C2239 0.930 . S
H2228 C2241 0.930 . S
H2229 C2242 0.930 . S
H2230 C2246 0.959 . S
H2231 C2246 0.959 . S
H2232 C2246 0.961 . S
H2233 C2247 0.960 . S
H2234 C2247 0.961 . S
H2235 C2247 0.959 . S
H2236 C2250 0.929 . S
H2237 C2251 0.931 . S
H2238 C2253 0.930 . S
C2239 H2227 0.930 . S
C2239 C2240 1.399 . S
C2239 C2244 1.399 . S
C2240 C2239 1.399 . S
C2240 C2241 1.376 . S
C2241 H2228 0.930 . S
C2241 C2240 1.376 . S
C2241 C2242 1.388 . S
C2242 H2229 0.930 . S
C2242 C2241 1.388 . S
C2242 C2243 1.390 . S
C2243 C2242 1.390 . S
C2243 C2244 1.394 . S
C2243 C2249 1.465 . S
C2244 C2239 1.399 . S
C2244 C2243 1.394 . S
C2244 C2245 1.516 . S
C2245 C2244 1.516 . S
C2245 C2246 1.502 . S
C2245 C2247 1.561 . S
C2245 C2248 1.526 . S
C2246 H2230 0.959 . S
C2246 H2231 0.959 . S
C2246 H2232 0.961 . S
C2246 C2245 1.502 . S
C2247 H2233 0.960 . S
C2247 H2234 0.961 . S
C2247 H2235 0.959 . S
C2247 C2245 1.561 . S
C2248 C2245 1.526 . S
C2248 C2249 1.396 . S
C2248 C2253 1.390 . S
C2249 C2243 1.465 . S
C2249 C2248 1.396 . S
C2249 C2250 1.399 . S
C2250 H2236 0.929 . S
C2250 C2249 1.399 . S
C2250 C2251 1.385 . S
C2251 H2237 0.931 . S
C2251 C2250 1.385 . S
C2251 C2252 1.389 . S
C2252 C2251 1.389 . S
C2252 C2253 1.387 . S
C2253 H2238 0.930 . S
C2253 C2248 1.390 . S
C2253 C2252 1.387 . S
H2254 C2266 0.930 . S
H2255 C2268 0.930 . S
H2256 C2269 0.930 . S
H2257 C2273 0.959 . S
H2258 C2273 0.959 . S
H2259 C2273 0.961 . S
H2260 C2274 0.960 . S
H2261 C2274 0.961 . S
H2262 C2274 0.959 . S
H2263 C2277 0.929 . S
H2264 C2278 0.931 . S
H2265 C2280 0.930 . S
C2266 H2254 0.930 . S
C2266 C2267 1.399 . S
C2266 C2271 1.399 . S
C2267 C2266 1.399 . S
C2267 C2268 1.376 . S
C2268 H2255 0.930 . S
C2268 C2267 1.376 . S
C2268 C2269 1.388 . S
C2269 H2256 0.930 . S
C2269 C2268 1.388 . S
C2269 C2270 1.390 . S
C2270 C2269 1.390 . S
C2270 C2271 1.394 . S
C2270 C2276 1.465 . S
C2271 C2266 1.399 . S
C2271 C2270 1.394 . S
C2271 C2272 1.516 . S
C2272 C2271 1.516 . S
C2272 C2273 1.502 . S
C2272 C2274 1.561 . S
C2272 C2275 1.526 . S
C2273 H2257 0.959 . S
C2273 H2258 0.959 . S
C2273 H2259 0.961 . S
C2273 C2272 1.502 . S
C2274 H2260 0.960 . S
C2274 H2261 0.961 . S
C2274 H2262 0.959 . S
C2274 C2272 1.561 . S
C2275 C2272 1.526 . S
C2275 C2276 1.396 . S
C2275 C2280 1.390 . S
C2276 C2270 1.465 . S
C2276 C2275 1.396 . S
C2276 C2277 1.399 . S
C2277 H2263 0.929 . S
C2277 C2276 1.399 . S
C2277 C2278 1.385 . S
C2278 H2264 0.931 . S
C2278 C2277 1.385 . S
C2278 C2279 1.389 . S
C2279 C2278 1.389 . S
C2279 C2280 1.387 . S
C2280 H2265 0.930 . S
C2280 C2275 1.390 . S
C2280 C2279 1.387 . S
H2281 C2293 0.930 . S
H2282 C2295 0.930 . S
H2283 C2296 0.930 . S
H2284 C2300 0.959 . S
H2285 C2300 0.959 . S
H2286 C2300 0.961 . S
H2287 C2301 0.960 . S
H2288 C2301 0.961 . S
H2289 C2301 0.959 . S
H2290 C2304 0.929 . S
H2291 C2305 0.931 . S
H2292 C2307 0.930 . S
C2293 H2281 0.930 . S
C2293 C2294 1.399 . S
C2293 C2298 1.399 . S
C2294 C2293 1.399 . S
C2294 C2295 1.376 . S
C2295 H2282 0.930 . S
C2295 C2294 1.376 . S
C2295 C2296 1.388 . S
C2296 H2283 0.930 . S
C2296 C2295 1.388 . S
C2296 C2297 1.390 . S
C2297 C2296 1.390 . S
C2297 C2298 1.394 . S
C2297 C2303 1.465 . S
C2298 C2293 1.399 . S
C2298 C2297 1.394 . S
C2298 C2299 1.516 . S
C2299 C2298 1.516 . S
C2299 C2300 1.502 . S
C2299 C2301 1.561 . S
C2299 C2302 1.526 . S
C2300 H2284 0.959 . S
C2300 H2285 0.959 . S
C2300 H2286 0.961 . S
C2300 C2299 1.502 . S
C2301 H2287 0.960 . S
C2301 H2288 0.961 . S
C2301 H2289 0.959 . S
C2301 C2299 1.561 . S
C2302 C2299 1.526 . S
C2302 C2303 1.396 . S
C2302 C2307 1.390 . S
C2303 C2297 1.465 . S
C2303 C2302 1.396 . S
C2303 C2304 1.399 . S
C2304 H2290 0.929 . S
C2304 C2303 1.399 . S
C2304 C2305 1.385 . S
C2305 H2291 0.931 . S
C2305 C2304 1.385 . S
C2305 C2306 1.389 . S
C2306 C2305 1.389 . S
C2306 C2307 1.387 . S
C2307 H2292 0.930 . S
C2307 C2302 1.390 . S
C2307 C2306 1.387 . S
H2308 C2320 0.930 . S
H2309 C2322 0.930 . S
H2310 C2323 0.930 . S
H2311 C2327 0.959 . S
H2312 C2327 0.959 . S
H2313 C2327 0.961 . S
H2314 C2328 0.960 . S
H2315 C2328 0.961 . S
H2316 C2328 0.959 . S
H2317 C2331 0.929 . S
H2318 C2332 0.931 . S
H2319 C2334 0.930 . S
C2320 H2308 0.930 . S
C2320 C2321 1.399 . S
C2320 C2325 1.399 . S
C2321 C2320 1.399 . S
C2321 C2322 1.376 . S
C2322 H2309 0.930 . S
C2322 C2321 1.376 . S
C2322 C2323 1.388 . S
C2323 H2310 0.930 . S
C2323 C2322 1.388 . S
C2323 C2324 1.390 . S
C2324 C2323 1.390 . S
C2324 C2325 1.394 . S
C2324 C2330 1.465 . S
C2325 C2320 1.399 . S
C2325 C2324 1.394 . S
C2325 C2326 1.516 . S
C2326 C2325 1.516 . S
C2326 C2327 1.502 . S
C2326 C2328 1.561 . S
C2326 C2329 1.526 . S
C2327 H2311 0.959 . S
C2327 H2312 0.959 . S
C2327 H2313 0.961 . S
C2327 C2326 1.502 . S
C2328 H2314 0.960 . S
C2328 H2315 0.961 . S
C2328 H2316 0.959 . S
C2328 C2326 1.561 . S
C2329 C2326 1.526 . S
C2329 C2330 1.396 . S
C2329 C2334 1.390 . S
C2330 C2324 1.465 . S
C2330 C2329 1.396 . S
C2330 C2331 1.399 . S
C2331 H2317 0.929 . S
C2331 C2330 1.399 . S
C2331 C2332 1.385 . S
C2332 H2318 0.931 . S
C2332 C2331 1.385 . S
C2332 C2333 1.389 . S
C2333 C2332 1.389 . S
C2333 C2334 1.387 . S
C2334 H2319 0.930 . S
C2334 C2329 1.390 . S
C2334 C2333 1.387 . S
H2335 C2347 0.930 . S
H2336 C2349 0.930 . S
H2337 C2350 0.930 . S
H2338 C2354 0.959 . S
H2339 C2354 0.959 . S
H2340 C2354 0.961 . S
H2341 C2355 0.960 . S
H2342 C2355 0.961 . S
H2343 C2355 0.959 . S
H2344 C2358 0.929 . S
H2345 C2359 0.931 . S
H2346 C2361 0.930 . S
C2347 H2335 0.930 . S
C2347 C2348 1.399 . S
C2347 C2352 1.399 . S
C2348 C2347 1.399 . S
C2348 C2349 1.376 . S
C2349 H2336 0.930 . S
C2349 C2348 1.376 . S
C2349 C2350 1.388 . S
C2350 H2337 0.930 . S
C2350 C2349 1.388 . S
C2350 C2351 1.390 . S
C2351 C2350 1.390 . S
C2351 C2352 1.394 . S
C2351 C2357 1.465 . S
C2352 C2347 1.399 . S
C2352 C2351 1.394 . S
C2352 C2353 1.516 . S
C2353 C2352 1.516 . S
C2353 C2354 1.502 . S
C2353 C2355 1.561 . S
C2353 C2356 1.526 . S
C2354 H2338 0.959 . S
C2354 H2339 0.959 . S
C2354 H2340 0.961 . S
C2354 C2353 1.502 . S
C2355 H2341 0.960 . S
C2355 H2342 0.961 . S
C2355 H2343 0.959 . S
C2355 C2353 1.561 . S
C2356 C2353 1.526 . S
C2356 C2357 1.396 . S
C2356 C2361 1.390 . S
C2357 C2351 1.465 . S
C2357 C2356 1.396 . S
C2357 C2358 1.399 . S
C2358 H2344 0.929 . S
C2358 C2357 1.399 . S
C2358 C2359 1.385 . S
C2359 H2345 0.931 . S
C2359 C2358 1.385 . S
C2359 C2360 1.389 . S
C2360 C2359 1.389 . S
C2360 C2361 1.387 . S
C2361 H2346 0.930 . S
C2361 C2356 1.390 . S
C2361 C2360 1.387 . S
H2362 C2374 0.930 . S
H2363 C2376 0.930 . S
H2364 C2377 0.930 . S
H2365 C2381 0.959 . S
H2366 C2381 0.959 . S
H2367 C2381 0.961 . S
H2368 C2382 0.960 . S
H2369 C2382 0.961 . S
H2370 C2382 0.959 . S
H2371 C2385 0.929 . S
H2372 C2386 0.931 . S
H2373 C2388 0.930 . S
C2374 H2362 0.930 . S
C2374 C2375 1.399 . S
C2374 C2379 1.399 . S
C2375 C2374 1.399 . S
C2375 C2376 1.376 . S
C2376 H2363 0.930 . S
C2376 C2375 1.376 . S
C2376 C2377 1.388 . S
C2377 H2364 0.930 . S
C2377 C2376 1.388 . S
C2377 C2378 1.390 . S
C2378 C2377 1.390 . S
C2378 C2379 1.394 . S
C2378 C2384 1.465 . S
C2379 C2374 1.399 . S
C2379 C2378 1.394 . S
C2379 C2380 1.516 . S
C2380 C2379 1.516 . S
C2380 C2381 1.502 . S
C2380 C2382 1.561 . S
C2380 C2383 1.526 . S
C2381 H2365 0.959 . S
C2381 H2366 0.959 . S
C2381 H2367 0.961 . S
C2381 C2380 1.502 . S
C2382 H2368 0.960 . S
C2382 H2369 0.961 . S
C2382 H2370 0.959 . S
C2382 C2380 1.561 . S
C2383 C2380 1.526 . S
C2383 C2384 1.396 . S
C2383 C2388 1.390 . S
C2384 C2378 1.465 . S
C2384 C2383 1.396 . S
C2384 C2385 1.399 . S
C2385 H2371 0.929 . S
C2385 C2384 1.399 . S
C2385 C2386 1.385 . S
C2386 H2372 0.931 . S
C2386 C2385 1.385 . S
C2386 C2387 1.389 . S
C2387 C2386 1.389 . S
C2387 C2388 1.387 . S
C2388 H2373 0.930 . S
C2388 C2383 1.390 . S
C2388 C2387 1.387 . S
H2389 C2401 0.930 . S
H2390 C2403 0.930 . S
H2391 C2404 0.930 . S
H2392 C2408 0.959 . S
H2393 C2408 0.959 . S
H2394 C2408 0.961 . S
H2395 C2409 0.960 . S
H2396 C2409 0.961 . S
H2397 C2409 0.959 . S
H2398 C2412 0.929 . S
H2399 C2413 0.931 . S
H2400 C2415 0.930 . S
C2401 H2389 0.930 . S
C2401 C2402 1.399 . S
C2401 C2406 1.399 . S
C2402 C2401 1.399 . S
C2402 C2403 1.376 . S
C2403 H2390 0.930 . S
C2403 C2402 1.376 . S
C2403 C2404 1.388 . S
C2404 H2391 0.930 . S
C2404 C2403 1.388 . S
C2404 C2405 1.390 . S
C2405 C2404 1.390 . S
C2405 C2406 1.394 . S
C2405 C2411 1.465 . S
C2406 C2401 1.399 . S
C2406 C2405 1.394 . S
C2406 C2407 1.516 . S
C2407 C2406 1.516 . S
C2407 C2408 1.502 . S
C2407 C2409 1.561 . S
C2407 C2410 1.526 . S
C2408 H2392 0.959 . S
C2408 H2393 0.959 . S
C2408 H2394 0.961 . S
C2408 C2407 1.502 . S
C2409 H2395 0.960 . S
C2409 H2396 0.961 . S
C2409 H2397 0.959 . S
C2409 C2407 1.561 . S
C2410 C2407 1.526 . S
C2410 C2411 1.396 . S
C2410 C2415 1.390 . S
C2411 C2405 1.465 . S
C2411 C2410 1.396 . S
C2411 C2412 1.399 . S
C2412 H2398 0.929 . S
C2412 C2411 1.399 . S
C2412 C2413 1.385 . S
C2413 H2399 0.931 . S
C2413 C2412 1.385 . S
C2413 C2414 1.389 . S
C2414 C2413 1.389 . S
C2414 C2415 1.387 . S
C2415 H2400 0.930 . S
C2415 C2410 1.390 . S
C2415 C2414 1.387 . S
H2416 C2428 0.930 . S
H2417 C2430 0.930 . S
H2418 C2431 0.930 . S
H2419 C2435 0.959 . S
H2420 C2435 0.959 . S
H2421 C2435 0.961 . S
H2422 C2436 0.960 . S
H2423 C2436 0.961 . S
H2424 C2436 0.959 . S
H2425 C2439 0.929 . S
H2426 C2440 0.931 . S
H2427 C2442 0.930 . S
C2428 H2416 0.930 . S
C2428 C2429 1.399 . S
C2428 C2433 1.399 . S
C2429 C2428 1.399 . S
C2429 C2430 1.376 . S
C2430 H2417 0.930 . S
C2430 C2429 1.376 . S
C2430 C2431 1.388 . S
C2431 H2418 0.930 . S
C2431 C2430 1.388 . S
C2431 C2432 1.390 . S
C2432 C2431 1.390 . S
C2432 C2433 1.394 . S
C2432 C2438 1.465 . S
C2433 C2428 1.399 . S
C2433 C2432 1.394 . S
C2433 C2434 1.516 . S
C2434 C2433 1.516 . S
C2434 C2435 1.502 . S
C2434 C2436 1.561 . S
C2434 C2437 1.526 . S
C2435 H2419 0.959 . S
C2435 H2420 0.959 . S
C2435 H2421 0.961 . S
C2435 C2434 1.502 . S
C2436 H2422 0.960 . S
C2436 H2423 0.961 . S
C2436 H2424 0.959 . S
C2436 C2434 1.561 . S
C2437 C2434 1.526 . S
C2437 C2438 1.396 . S
C2437 C2442 1.390 . S
C2438 C2432 1.465 . S
C2438 C2437 1.396 . S
C2438 C2439 1.399 . S
C2439 H2425 0.929 . S
C2439 C2438 1.399 . S
C2439 C2440 1.385 . S
C2440 H2426 0.931 . S
C2440 C2439 1.385 . S
C2440 C2441 1.389 . S
C2441 C2440 1.389 . S
C2441 C2442 1.387 . S
C2442 H2427 0.930 . S
C2442 C2437 1.390 . S
C2442 C2441 1.387 . S
H2443 C2455 0.930 . S
H2444 C2457 0.930 . S
H2445 C2458 0.930 . S
H2446 C2462 0.959 . S
H2447 C2462 0.959 . S
H2448 C2462 0.961 . S
H2449 C2463 0.960 . S
H2450 C2463 0.961 . S
H2451 C2463 0.959 . S
H2452 C2466 0.929 . S
H2453 C2467 0.931 . S
H2454 C2469 0.930 . S
C2455 H2443 0.930 . S
C2455 C2456 1.399 . S
C2455 C2460 1.399 . S
C2456 C2455 1.399 . S
C2456 C2457 1.376 . S
C2457 H2444 0.930 . S
C2457 C2456 1.376 . S
C2457 C2458 1.388 . S
C2458 H2445 0.930 . S
C2458 C2457 1.388 . S
C2458 C2459 1.390 . S
C2459 C2458 1.390 . S
C2459 C2460 1.394 . S
C2459 C2465 1.465 . S
C2460 C2455 1.399 . S
C2460 C2459 1.394 . S
C2460 C2461 1.516 . S
C2461 C2460 1.516 . S
C2461 C2462 1.502 . S
C2461 C2463 1.561 . S
C2461 C2464 1.526 . S
C2462 H2446 0.959 . S
C2462 H2447 0.959 . S
C2462 H2448 0.961 . S
C2462 C2461 1.502 . S
C2463 H2449 0.960 . S
C2463 H2450 0.961 . S
C2463 H2451 0.959 . S
C2463 C2461 1.561 . S
C2464 C2461 1.526 . S
C2464 C2465 1.396 . S
C2464 C2469 1.390 . S
C2465 C2459 1.465 . S
C2465 C2464 1.396 . S
C2465 C2466 1.399 . S
C2466 H2452 0.929 . S
C2466 C2465 1.399 . S
C2466 C2467 1.385 . S
C2467 H2453 0.931 . S
C2467 C2466 1.385 . S
C2467 C2468 1.389 . S
C2468 C2467 1.389 . S
C2468 C2469 1.387 . S
C2469 H2454 0.930 . S
C2469 C2464 1.390 . S
C2469 C2468 1.387 . S
H2470 C2482 0.930 . S
H2471 C2484 0.930 . S
H2472 C2485 0.930 . S
H2473 C2489 0.959 . S
H2474 C2489 0.959 . S
H2475 C2489 0.961 . S
H2476 C2490 0.960 1_545 S
H2477 C2490 0.961 . S
H2478 C2490 0.959 . S
H2479 C2493 0.929 . S
H2480 C2494 0.931 . S
H2481 C2496 0.930 . S
C2482 H2470 0.930 . S
C2482 C2483 1.399 . S
C2482 C2487 1.399 . S
C2483 C2482 1.399 . S
C2483 C2484 1.376 . S
C2484 H2471 0.930 . S
C2484 C2483 1.376 . S
C2484 C2485 1.388 . S
C2485 H2472 0.930 . S
C2485 C2484 1.388 . S
C2485 C2486 1.390 . S
C2486 C2485 1.390 . S
C2486 C2487 1.394 . S
C2486 C2492 1.465 . S
C2487 C2482 1.399 . S
C2487 C2486 1.394 . S
C2487 C2488 1.516 . S
C2488 C2487 1.516 . S
C2488 C2489 1.502 . S
C2488 C2490 1.561 . S
C2488 C2491 1.526 . S
C2489 H2473 0.959 . S
C2489 H2474 0.959 . S
C2489 H2475 0.961 . S
C2489 C2488 1.502 . S
C2490 H2476 0.960 1_565 S
C2490 H2477 0.961 . S
C2490 H2478 0.959 . S
C2490 C2488 1.561 . S
C2491 C2488 1.526 . S
C2491 C2492 1.396 . S
C2491 C2496 1.390 . S
C2492 C2486 1.465 . S
C2492 C2491 1.396 . S
C2492 C2493 1.399 . S
C2493 H2479 0.929 . S
C2493 C2492 1.399 . S
C2493 C2494 1.385 . S
C2494 H2480 0.931 . S
C2494 C2493 1.385 . S
C2494 C2495 1.389 . S
C2495 C2494 1.389 . S
C2495 C2496 1.387 . S
C2496 H2481 0.930 . S
C2496 C2491 1.390 . S
C2496 C2495 1.387 . S
H2497 C2509 0.930 . S
H2498 C2511 0.930 1_554 S
H2499 C2512 0.930 . S
H2500 C2516 0.959 . S
H2501 C2516 0.959 . S
H2502 C2516 0.961 . S
H2503 C2517 0.960 . S
H2504 C2517 0.961 . S
H2505 C2517 0.959 . S
H2506 C2520 0.929 . S
H2507 C2521 0.931 . S
H2508 C2523 0.930 . S
C2509 H2497 0.930 . S
C2509 C2510 1.399 . S
C2509 C2514 1.399 . S
C2510 C2509 1.399 . S
C2510 C2511 1.376 . S
C2511 H2498 0.930 1_556 S
C2511 C2510 1.376 . S
C2511 C2512 1.388 . S
C2512 H2499 0.930 . S
C2512 C2511 1.388 . S
C2512 C2513 1.390 . S
C2513 C2512 1.390 . S
C2513 C2514 1.394 . S
C2513 C2519 1.465 . S
C2514 C2509 1.399 . S
C2514 C2513 1.394 . S
C2514 C2515 1.516 . S
C2515 C2514 1.516 . S
C2515 C2516 1.502 . S
C2515 C2517 1.561 . S
C2515 C2518 1.526 . S
C2516 H2500 0.959 . S
C2516 H2501 0.959 . S
C2516 H2502 0.961 . S
C2516 C2515 1.502 . S
C2517 H2503 0.960 . S
C2517 H2504 0.961 . S
C2517 H2505 0.959 . S
C2517 C2515 1.561 . S
C2518 C2515 1.526 . S
C2518 C2519 1.396 . S
C2518 C2523 1.390 . S
C2519 C2513 1.465 . S
C2519 C2518 1.396 . S
C2519 C2520 1.399 . S
C2520 H2506 0.929 . S
C2520 C2519 1.399 . S
C2520 C2521 1.385 . S
C2521 H2507 0.931 . S
C2521 C2520 1.385 . S
C2521 C2522 1.389 . S
C2522 C2521 1.389 . S
C2522 C2523 1.387 . S
C2523 H2508 0.930 . S
C2523 C2518 1.390 . S
C2523 C2522 1.387 . S
H2524 C2536 0.930 . S
H2525 C2538 0.930 . S
H2526 C2539 0.930 . S
H2527 C2543 0.959 . S
H2528 C2543 0.959 . S
H2529 C2543 0.961 . S
H2530 C2544 0.960 . S
H2531 C2544 0.961 . S
H2532 C2544 0.959 . S
H2533 C2547 0.929 . S
H2534 C2548 0.931 . S
H2535 C2550 0.930 . S
C2536 H2524 0.930 . S
C2536 C2537 1.399 . S
C2536 C2541 1.399 . S
C2537 C2536 1.399 . S
C2537 C2538 1.376 . S
C2538 H2525 0.930 . S
C2538 C2537 1.376 . S
C2538 C2539 1.388 . S
C2539 H2526 0.930 . S
C2539 C2538 1.388 . S
C2539 C2540 1.390 . S
C2540 C2539 1.390 . S
C2540 C2541 1.394 . S
C2540 C2546 1.465 . S
C2541 C2536 1.399 . S
C2541 C2540 1.394 . S
C2541 C2542 1.516 . S
C2542 C2541 1.516 . S
C2542 C2543 1.502 . S
C2542 C2544 1.561 . S
C2542 C2545 1.526 . S
C2543 H2527 0.959 . S
C2543 H2528 0.959 . S
C2543 H2529 0.961 . S
C2543 C2542 1.502 . S
C2544 H2530 0.960 . S
C2544 H2531 0.961 . S
C2544 H2532 0.959 . S
C2544 C2542 1.561 . S
C2545 C2542 1.526 . S
C2545 C2546 1.396 . S
C2545 C2550 1.390 . S
C2546 C2540 1.465 . S
C2546 C2545 1.396 . S
C2546 C2547 1.399 . S
C2547 H2533 0.929 . S
C2547 C2546 1.399 . S
C2547 C2548 1.385 . S
C2548 H2534 0.931 . S
C2548 C2547 1.385 . S
C2548 C2549 1.389 . S
C2549 C2548 1.389 . S
C2549 C2550 1.387 . S
C2550 H2535 0.930 . S
C2550 C2545 1.390 . S
C2550 C2549 1.387 . S
H2551 C2563 0.930 . S
H2552 C2565 0.930 . S
H2553 C2566 0.930 . S
H2554 C2570 0.959 . S
H2555 C2570 0.959 . S
H2556 C2570 0.961 . S
H2557 C2571 0.960 . S
H2558 C2571 0.961 . S
H2559 C2571 0.959 . S
H2560 C2574 0.929 . S
H2561 C2575 0.931 . S
H2562 C2577 0.930 . S
C2563 H2551 0.930 . S
C2563 C2564 1.399 . S
C2563 C2568 1.399 . S
C2564 C2563 1.399 . S
C2564 C2565 1.376 . S
C2565 H2552 0.930 . S
C2565 C2564 1.376 . S
C2565 C2566 1.388 . S
C2566 H2553 0.930 . S
C2566 C2565 1.388 . S
C2566 C2567 1.390 . S
C2567 C2566 1.390 . S
C2567 C2568 1.394 . S
C2567 C2573 1.465 . S
C2568 C2563 1.399 . S
C2568 C2567 1.394 . S
C2568 C2569 1.516 . S
C2569 C2568 1.516 . S
C2569 C2570 1.502 . S
C2569 C2571 1.561 . S
C2569 C2572 1.526 . S
C2570 H2554 0.959 . S
C2570 H2555 0.959 . S
C2570 H2556 0.961 . S
C2570 C2569 1.502 . S
C2571 H2557 0.960 . S
C2571 H2558 0.961 . S
C2571 H2559 0.959 . S
C2571 C2569 1.561 . S
C2572 C2569 1.526 . S
C2572 C2573 1.396 . S
C2572 C2577 1.390 . S
C2573 C2567 1.465 . S
C2573 C2572 1.396 . S
C2573 C2574 1.399 . S
C2574 H2560 0.929 . S
C2574 C2573 1.399 . S
C2574 C2575 1.385 . S
C2575 H2561 0.931 . S
C2575 C2574 1.385 . S
C2575 C2576 1.389 . S
C2576 C2575 1.389 . S
C2576 C2577 1.387 . S
C2577 H2562 0.930 . S
C2577 C2572 1.390 . S
C2577 C2576 1.387 . S
H2578 C2590 0.930 . S
H2579 C2592 0.930 . S
H2580 C2593 0.930 . S
H2581 C2597 0.959 . S
H2582 C2597 0.959 . S
H2583 C2597 0.961 . S
H2584 C2598 0.960 . S
H2585 C2598 0.961 . S
H2586 C2598 0.959 . S
H2587 C2601 0.929 . S
H2588 C2602 0.931 . S
H2589 C2604 0.930 . S
C2590 H2578 0.930 . S
C2590 C2591 1.399 . S
C2590 C2595 1.399 . S
C2591 C2590 1.399 . S
C2591 C2592 1.376 . S
C2592 H2579 0.930 . S
C2592 C2591 1.376 . S
C2592 C2593 1.388 . S
C2593 H2580 0.930 . S
C2593 C2592 1.388 . S
C2593 C2594 1.390 . S
C2594 C2593 1.390 . S
C2594 C2595 1.394 . S
C2594 C2600 1.465 . S
C2595 C2590 1.399 . S
C2595 C2594 1.394 . S
C2595 C2596 1.516 . S
C2596 C2595 1.516 . S
C2596 C2597 1.502 . S
C2596 C2598 1.561 . S
C2596 C2599 1.526 . S
C2597 H2581 0.959 . S
C2597 H2582 0.959 . S
C2597 H2583 0.961 . S
C2597 C2596 1.502 . S
C2598 H2584 0.960 . S
C2598 H2585 0.961 . S
C2598 H2586 0.959 . S
C2598 C2596 1.561 . S
C2599 C2596 1.526 . S
C2599 C2600 1.396 . S
C2599 C2604 1.390 . S
C2600 C2594 1.465 . S
C2600 C2599 1.396 . S
C2600 C2601 1.399 . S
C2601 H2587 0.929 . S
C2601 C2600 1.399 . S
C2601 C2602 1.385 . S
C2602 H2588 0.931 . S
C2602 C2601 1.385 . S
C2602 C2603 1.389 . S
C2603 C2602 1.389 . S
C2603 C2604 1.387 . S
C2604 H2589 0.930 . S
C2604 C2599 1.390 . S
C2604 C2603 1.387 . S
H2605 C2617 0.930 . S
H2606 C2619 0.930 . S
H2607 C2620 0.930 . S
H2608 C2624 0.959 . S
H2609 C2624 0.959 . S
H2610 C2624 0.961 . S
H2611 C2625 0.960 . S
H2612 C2625 0.961 . S
H2613 C2625 0.959 . S
H2614 C2628 0.929 . S
H2615 C2629 0.931 . S
H2616 C2631 0.930 . S
C2617 H2605 0.930 . S
C2617 C2618 1.399 . S
C2617 C2622 1.399 . S
C2618 C2617 1.399 . S
C2618 C2619 1.376 . S
C2619 H2606 0.930 . S
C2619 C2618 1.376 . S
C2619 C2620 1.388 . S
C2620 H2607 0.930 . S
C2620 C2619 1.388 . S
C2620 C2621 1.390 . S
C2621 C2620 1.390 . S
C2621 C2622 1.394 . S
C2621 C2627 1.465 1_655 S
C2622 C2617 1.399 . S
C2622 C2621 1.394 . S
C2622 C2623 1.516 . S
C2623 C2622 1.516 . S
C2623 C2624 1.502 . S
C2623 C2625 1.561 . S
C2623 C2626 1.517 1_655 S
C2624 H2608 0.959 . S
C2624 H2609 0.959 . S
C2624 H2610 0.961 . S
C2624 C2623 1.502 . S
C2625 H2611 0.960 . S
C2625 H2612 0.961 . S
C2625 H2613 0.959 . S
C2625 C2623 1.561 . S
C2626 C2623 1.517 1_455 S
C2626 C2627 1.399 . S
C2626 C2631 1.396 . S
C2627 C2621 1.465 1_455 S
C2627 C2626 1.399 . S
C2627 C2628 1.399 . S
C2628 H2614 0.929 . S
C2628 C2627 1.399 . S
C2628 C2629 1.385 . S
C2629 H2615 0.931 . S
C2629 C2628 1.385 . S
C2629 C2630 1.389 . S
C2630 C2629 1.389 . S
C2630 C2631 1.387 . S
C2631 H2616 0.930 . S
C2631 C2626 1.396 . S
C2631 C2630 1.387 . S
H2632 C2644 0.930 . S
H2633 C2646 0.930 . S
H2634 C2647 0.930 . S
H2635 C2651 0.959 . S
H2636 C2651 0.959 . S
H2637 C2651 0.961 . S
H2638 C2652 0.960 . S
H2639 C2652 0.961 . S
H2640 C2652 0.959 . S
H2641 C2655 0.929 . S
H2642 C2656 0.931 . S
H2643 C2658 0.930 . S
C2644 H2632 0.930 . S
C2644 C2645 1.399 . S
C2644 C2649 1.399 . S
C2645 C2644 1.399 . S
C2645 C2646 1.376 . S
C2646 H2633 0.930 . S
C2646 C2645 1.376 . S
C2646 C2647 1.388 . S
C2647 H2634 0.930 . S
C2647 C2646 1.388 . S
C2647 C2648 1.390 . S
C2648 C2647 1.390 . S
C2648 C2649 1.394 . S
C2648 C2654 1.465 . S
C2649 C2644 1.399 . S
C2649 C2648 1.394 . S
C2649 C2650 1.516 . S
C2650 C2649 1.516 . S
C2650 C2651 1.502 . S
C2650 C2652 1.561 . S
C2650 C2653 1.526 . S
C2651 H2635 0.959 . S
C2651 H2636 0.959 . S
C2651 H2637 0.961 . S
C2651 C2650 1.502 . S
C2652 H2638 0.960 . S
C2652 H2639 0.961 . S
C2652 H2640 0.959 . S
C2652 C2650 1.561 . S
C2653 C2650 1.526 . S
C2653 C2654 1.396 . S
C2653 C2658 1.390 . S
C2654 C2648 1.465 . S
C2654 C2653 1.396 . S
C2654 C2655 1.399 . S
C2655 H2641 0.929 . S
C2655 C2654 1.399 . S
C2655 C2656 1.385 . S
C2656 H2642 0.931 . S
C2656 C2655 1.385 . S
C2656 C2657 1.389 . S
C2657 C2656 1.389 . S
C2657 C2658 1.387 . S
C2658 H2643 0.930 . S
C2658 C2653 1.390 . S
C2658 C2657 1.387 . S
H2659 C2671 0.930 . S
H2660 C2673 0.930 . S
H2661 C2674 0.930 . S
H2662 C2678 0.959 . S
H2663 C2678 0.959 . S
H2664 C2678 0.961 . S
H2665 C2679 0.960 . S
H2666 C2679 0.961 . S
H2667 C2679 0.959 . S
H2668 C2682 0.929 . S
H2669 C2683 0.931 . S
H2670 C2685 0.930 . S
C2671 H2659 0.930 . S
C2671 C2672 1.399 . S
C2671 C2676 1.399 . S
C2672 C2671 1.399 . S
C2672 C2673 1.376 . S
C2673 H2660 0.930 . S
C2673 C2672 1.376 . S
C2673 C2674 1.388 . S
C2674 H2661 0.930 . S
C2674 C2673 1.388 . S
C2674 C2675 1.390 . S
C2675 C2674 1.390 . S
C2675 C2676 1.394 . S
C2675 C2681 1.465 1_556 S
C2676 C2671 1.399 . S
C2676 C2675 1.394 . S
C2676 C2677 1.516 . S
C2677 C2676 1.516 . S
C2677 C2678 1.502 . S
C2677 C2679 1.561 . S
C2677 C2680 1.526 1_556 S
C2678 H2662 0.959 . S
C2678 H2663 0.959 . S
C2678 H2664 0.961 . S
C2678 C2677 1.502 . S
C2679 H2665 0.960 . S
C2679 H2666 0.961 . S
C2679 H2667 0.959 . S
C2679 C2677 1.561 . S
C2680 C2677 1.526 1_554 S
C2680 C2681 1.396 . S
C2680 C2685 1.390 . S
C2681 C2675 1.465 1_554 S
C2681 C2680 1.396 . S
C2681 C2682 1.399 . S
C2682 H2668 0.929 . S
C2682 C2681 1.399 . S
C2682 C2683 1.385 . S
C2683 H2669 0.931 . S
C2683 C2682 1.385 . S
C2683 C2684 1.389 . S
C2684 C2683 1.389 . S
C2684 C2685 1.387 . S
C2685 H2670 0.930 . S
C2685 C2680 1.390 . S
C2685 C2684 1.387 . S
H2686 C2698 0.930 . S
H2687 C2700 0.930 . S
H2688 C2701 0.930 . S
H2689 C2705 0.959 . S
H2690 C2705 0.959 . S
H2691 C2705 0.961 . S
H2692 C2706 0.960 . S
H2693 C2706 0.961 . S
H2694 C2706 0.959 . S
H2695 C2709 0.929 . S
H2696 C2710 0.931 . S
H2697 C2712 0.930 . S
C2698 H2686 0.930 . S
C2698 C2699 1.399 . S
C2698 C2703 1.399 . S
C2699 C2698 1.399 . S
C2699 C2700 1.376 . S
C2700 H2687 0.930 . S
C2700 C2699 1.376 . S
C2700 C2701 1.388 . S
C2701 H2688 0.930 . S
C2701 C2700 1.388 . S
C2701 C2702 1.390 . S
C2702 C2701 1.390 . S
C2702 C2703 1.394 . S
C2702 C2708 1.465 . S
C2703 C2698 1.399 . S
C2703 C2702 1.394 . S
C2703 C2704 1.516 . S
C2704 C2703 1.516 . S
C2704 C2705 1.502 . S
C2704 C2706 1.561 . S
C2704 C2707 1.526 . S
C2705 H2689 0.959 . S
C2705 H2690 0.959 . S
C2705 H2691 0.961 . S
C2705 C2704 1.502 . S
C2706 H2692 0.960 . S
C2706 H2693 0.961 . S
C2706 H2694 0.959 . S
C2706 C2704 1.561 . S
C2707 C2704 1.526 . S
C2707 C2708 1.396 . S
C2707 C2712 1.390 . S
C2708 C2702 1.465 . S
C2708 C2707 1.396 . S
C2708 C2709 1.399 . S
C2709 H2695 0.929 . S
C2709 C2708 1.399 . S
C2709 C2710 1.385 . S
C2710 H2696 0.931 . S
C2710 C2709 1.385 . S
C2710 C2711 1.389 . S
C2711 C2710 1.389 . S
C2711 C2712 1.387 . S
C2712 H2697 0.930 . S
C2712 C2707 1.390 . S
C2712 C2711 1.387 . S
H2713 C2725 0.930 . S
H2714 C2727 0.930 . S
H2715 C2728 0.930 . S
H2716 C2732 0.959 . S
H2717 C2732 0.959 . S
H2718 C2732 0.961 . S
H2719 C2733 0.960 . S
H2720 C2733 0.961 . S
H2721 C2733 0.959 . S
H2722 C2736 0.929 . S
H2723 C2737 0.931 . S
H2724 C2739 0.930 . S
C2725 H2713 0.930 . S
C2725 C2726 1.399 . S
C2725 C2730 1.399 . S
C2726 C2725 1.399 . S
C2726 C2727 1.376 . S
C2727 H2714 0.930 . S
C2727 C2726 1.376 . S
C2727 C2728 1.388 . S
C2728 H2715 0.930 . S
C2728 C2727 1.388 . S
C2728 C2729 1.390 . S
C2729 C2728 1.390 . S
C2729 C2730 1.394 . S
C2729 C2735 1.465 . S
C2730 C2725 1.399 . S
C2730 C2729 1.394 . S
C2730 C2731 1.516 . S
C2731 C2730 1.516 . S
C2731 C2732 1.502 . S
C2731 C2733 1.561 . S
C2731 C2734 1.526 . S
C2732 H2716 0.959 . S
C2732 H2717 0.959 . S
C2732 H2718 0.961 . S
C2732 C2731 1.502 . S
C2733 H2719 0.960 . S
C2733 H2720 0.961 . S
C2733 H2721 0.959 . S
C2733 C2731 1.561 . S
C2734 C2731 1.526 . S
C2734 C2735 1.396 . S
C2734 C2739 1.390 . S
C2735 C2729 1.465 . S
C2735 C2734 1.396 . S
C2735 C2736 1.399 . S
C2736 H2722 0.929 . S
C2736 C2735 1.399 . S
C2736 C2737 1.385 . S
C2737 H2723 0.931 . S
C2737 C2736 1.385 . S
C2737 C2738 1.389 . S
C2738 C2737 1.389 . S
C2738 C2739 1.387 . S
C2739 H2724 0.930 . S
C2739 C2734 1.390 . S
C2739 C2738 1.387 . S
H2740 C2752 0.930 . S
H2741 C2754 0.930 . S
H2742 C2755 0.930 . S
H2743 C2759 0.959 . S
H2744 C2759 0.959 . S
H2745 C2759 0.961 . S
H2746 C2760 0.960 . S
H2747 C2760 0.961 . S
H2748 C2760 0.959 . S
H2749 C2763 0.929 . S
H2750 C2764 0.931 . S
H2751 C2766 0.930 . S
C2752 H2740 0.930 . S
C2752 C2753 1.399 . S
C2752 C2757 1.399 . S
C2753 C2752 1.399 . S
C2753 C2754 1.376 . S
C2754 H2741 0.930 . S
C2754 C2753 1.376 . S
C2754 C2755 1.388 . S
C2755 H2742 0.930 . S
C2755 C2754 1.388 . S
C2755 C2756 1.390 . S
C2756 C2755 1.390 . S
C2756 C2757 1.394 . S
C2756 C2762 1.465 . S
C2757 C2752 1.399 . S
C2757 C2756 1.394 . S
C2757 C2758 1.516 . S
C2758 C2757 1.516 . S
C2758 C2759 1.502 . S
C2758 C2760 1.561 . S
C2758 C2761 1.526 . S
C2759 H2743 0.959 . S
C2759 H2744 0.959 . S
C2759 H2745 0.961 . S
C2759 C2758 1.502 . S
C2760 H2746 0.960 . S
C2760 H2747 0.961 . S
C2760 H2748 0.959 . S
C2760 C2758 1.561 . S
C2761 C2758 1.526 . S
C2761 C2762 1.396 . S
C2761 C2766 1.390 . S
C2762 C2756 1.465 . S
C2762 C2761 1.396 . S
C2762 C2763 1.399 . S
C2763 H2749 0.929 . S
C2763 C2762 1.399 . S
C2763 C2764 1.385 . S
C2764 H2750 0.931 . S
C2764 C2763 1.385 . S
C2764 C2765 1.389 . S
C2765 C2764 1.389 . S
C2765 C2766 1.387 . S
C2766 H2751 0.930 . S
C2766 C2761 1.390 . S
C2766 C2765 1.387 . S
H2767 C2779 0.930 . S
H2768 C2781 0.930 . S
H2769 C2782 0.930 . S
H2770 C2786 0.959 . S
H2771 C2786 0.959 . S
H2772 C2786 0.961 . S
H2773 C2787 0.960 . S
H2774 C2787 0.961 . S
H2775 C2787 0.959 . S
H2776 C2790 0.929 . S
H2777 C2791 0.931 . S
H2778 C2793 0.930 . S
C2779 H2767 0.930 . S
C2779 C2780 1.399 . S
C2779 C2784 1.399 . S
C2780 C2779 1.399 . S
C2780 C2781 1.376 . S
C2781 H2768 0.930 . S
C2781 C2780 1.376 . S
C2781 C2782 1.388 . S
C2782 H2769 0.930 . S
C2782 C2781 1.388 . S
C2782 C2783 1.390 . S
C2783 C2782 1.390 . S
C2783 C2784 1.394 . S
C2783 C2789 1.465 1_554 S
C2784 C2779 1.399 . S
C2784 C2783 1.394 . S
C2784 C2785 1.516 . S
C2785 C2784 1.516 . S
C2785 C2786 1.502 . S
C2785 C2787 1.561 . S
C2785 C2788 1.526 . S
C2786 H2770 0.959 . S
C2786 H2771 0.959 . S
C2786 H2772 0.961 . S
C2786 C2785 1.502 . S
C2787 H2773 0.960 . S
C2787 H2774 0.961 . S
C2787 H2775 0.959 . S
C2787 C2785 1.561 . S
C2788 C2785 1.526 . S
C2788 C2789 1.396 1_554 S
C2788 C2793 1.390 1_554 S
C2789 C2783 1.465 1_556 S
C2789 C2788 1.396 1_556 S
C2789 C2790 1.399 . S
C2790 H2776 0.929 . S
C2790 C2789 1.399 . S
C2790 C2791 1.385 . S
C2791 H2777 0.931 . S
C2791 C2790 1.385 . S
C2791 C2792 1.389 . S
C2792 C2791 1.389 . S
C2792 C2793 1.387 . S
C2793 H2778 0.930 . S
C2793 C2788 1.390 1_556 S
C2793 C2792 1.387 . S
H2794 C2806 0.930 . S
H2795 C2808 0.930 . S
H2796 C2809 0.930 . S
H2797 C2813 0.959 . S
H2798 C2813 0.959 . S
H2799 C2813 0.961 . S
H2800 C2814 0.960 . S
H2801 C2814 0.961 . S
H2802 C2814 0.959 . S
H2803 C2817 0.929 . S
H2804 C2818 0.931 . S
H2805 C2820 0.930 . S
C2806 H2794 0.930 . S
C2806 C2807 1.399 . S
C2806 C2811 1.399 . S
C2807 C2806 1.399 . S
C2807 C2808 1.376 . S
C2808 H2795 0.930 . S
C2808 C2807 1.376 . S
C2808 C2809 1.388 . S
C2809 H2796 0.930 . S
C2809 C2808 1.388 . S
C2809 C2810 1.390 . S
C2810 C2809 1.390 . S
C2810 C2811 1.394 . S
C2810 C2816 1.465 . S
C2811 C2806 1.399 . S
C2811 C2810 1.394 . S
C2811 C2812 1.516 . S
C2812 C2811 1.516 . S
C2812 C2813 1.502 . S
C2812 C2814 1.561 . S
C2812 C2815 1.526 . S
C2813 H2797 0.959 . S
C2813 H2798 0.959 . S
C2813 H2799 0.961 . S
C2813 C2812 1.502 . S
C2814 H2800 0.960 . S
C2814 H2801 0.961 . S
C2814 H2802 0.959 . S
C2814 C2812 1.561 . S
C2815 C2812 1.526 . S
C2815 C2816 1.396 . S
C2815 C2820 1.390 . S
C2816 C2810 1.465 . S
C2816 C2815 1.396 . S
C2816 C2817 1.399 . S
C2817 H2803 0.929 . S
C2817 C2816 1.399 . S
C2817 C2818 1.385 . S
C2818 H2804 0.931 . S
C2818 C2817 1.385 . S
C2818 C2819 1.389 . S
C2819 C2818 1.389 . S
C2819 C2820 1.387 . S
C2820 H2805 0.930 . S
C2820 C2815 1.390 . S
C2820 C2819 1.387 . S
H2821 C2833 0.930 . S
H2822 C2835 0.930 . S
H2823 C2836 0.930 . S
H2824 C2840 0.959 . S
H2825 C2840 0.959 . S
H2826 C2840 0.961 . S
H2827 C2841 0.960 . S
H2828 C2841 0.961 . S
H2829 C2841 0.959 . S
H2830 C2844 0.929 . S
H2831 C2845 0.931 . S
H2832 C2847 0.930 . S
C2833 H2821 0.930 . S
C2833 C2834 1.399 . S
C2833 C2838 1.399 . S
C2834 C2833 1.399 . S
C2834 C2835 1.376 . S
C2835 H2822 0.930 . S
C2835 C2834 1.376 . S
C2835 C2836 1.388 . S
C2836 H2823 0.930 . S
C2836 C2835 1.388 . S
C2836 C2837 1.390 . S
C2837 C2836 1.390 . S
C2837 C2838 1.394 . S
C2837 C2843 1.465 . S
C2838 C2833 1.399 . S
C2838 C2837 1.394 . S
C2838 C2839 1.516 . S
C2839 C2838 1.516 . S
C2839 C2840 1.502 . S
C2839 C2841 1.561 . S
C2839 C2842 1.526 . S
C2840 H2824 0.959 . S
C2840 H2825 0.959 . S
C2840 H2826 0.961 . S
C2840 C2839 1.502 . S
C2841 H2827 0.960 . S
C2841 H2828 0.961 . S
C2841 H2829 0.959 . S
C2841 C2839 1.561 . S
C2842 C2839 1.526 . S
C2842 C2843 1.396 . S
C2842 C2847 1.390 . S
C2843 C2837 1.465 . S
C2843 C2842 1.396 . S
C2843 C2844 1.399 . S
C2844 H2830 0.929 . S
C2844 C2843 1.399 . S
C2844 C2845 1.385 . S
C2845 H2831 0.931 . S
C2845 C2844 1.385 . S
C2845 C2846 1.389 . S
C2846 C2845 1.389 . S
C2846 C2847 1.387 . S
C2847 H2832 0.930 . S
C2847 C2842 1.390 . S
C2847 C2846 1.387 . S
H2848 C2860 0.930 . S
H2849 C2862 0.930 . S
H2850 C2863 0.930 . S
H2851 C2867 0.959 . S
H2852 C2867 0.959 . S
H2853 C2867 0.961 . S
H2854 C2868 0.960 . S
H2855 C2868 0.961 . S
H2856 C2868 0.959 . S
H2857 C2871 0.929 . S
H2858 C2872 0.931 . S
H2859 C2874 0.930 . S
C2860 H2848 0.930 . S
C2860 C2861 1.399 . S
C2860 C2865 1.399 . S
C2861 C2860 1.399 . S
C2861 C2862 1.376 . S
C2862 H2849 0.930 . S
C2862 C2861 1.376 . S
C2862 C2863 1.388 . S
C2863 H2850 0.930 . S
C2863 C2862 1.388 . S
C2863 C2864 1.390 . S
C2864 C2863 1.390 . S
C2864 C2865 1.394 . S
C2864 C2870 1.465 . S
C2865 C2860 1.399 . S
C2865 C2864 1.394 . S
C2865 C2866 1.516 . S
C2866 C2865 1.516 . S
C2866 C2867 1.502 . S
C2866 C2868 1.561 . S
C2866 C2869 1.526 . S
C2867 H2851 0.959 . S
C2867 H2852 0.959 . S
C2867 H2853 0.961 . S
C2867 C2866 1.502 . S
C2868 H2854 0.960 . S
C2868 H2855 0.961 . S
C2868 H2856 0.959 . S
C2868 C2866 1.561 . S
C2869 C2866 1.526 . S
C2869 C2870 1.396 . S
C2869 C2874 1.390 . S
C2870 C2864 1.465 . S
C2870 C2869 1.396 . S
C2870 C2871 1.399 . S
C2871 H2857 0.929 . S
C2871 C2870 1.399 . S
C2871 C2872 1.385 . S
C2872 H2858 0.931 . S
C2872 C2871 1.385 . S
C2872 C2873 1.389 . S
C2873 C2872 1.389 . S
C2873 C2874 1.387 . S
C2874 H2859 0.930 . S
C2874 C2869 1.390 . S
C2874 C2873 1.387 . S
H2875 C2887 0.930 . S
H2876 C2889 0.930 1_556 S
H2877 C2890 0.930 . S
H2878 C2894 0.959 . S
H2879 C2894 0.959 . S
H2880 C2894 0.961 . S
H2881 C2895 0.960 . S
H2882 C2895 0.961 . S
H2883 C2895 0.959 . S
H2884 C2898 0.929 . S
H2885 C2899 0.931 . S
H2886 C2901 0.930 . S
C2887 H2875 0.930 . S
C2887 C2888 1.399 . S
C2887 C2892 1.399 . S
C2888 C2887 1.399 . S
C2888 C2889 1.376 . S
C2889 H2876 0.930 1_554 S
C2889 C2888 1.376 . S
C2889 C2890 1.388 . S
C2890 H2877 0.930 . S
C2890 C2889 1.388 . S
C2890 C2891 1.390 . S
C2891 C2890 1.390 . S
C2891 C2892 1.394 . S
C2891 C2897 1.465 . S
C2892 C2887 1.399 . S
C2892 C2891 1.394 . S
C2892 C2893 1.516 . S
C2893 C2892 1.516 . S
C2893 C2894 1.502 . S
C2893 C2895 1.561 . S
C2893 C2896 1.526 . S
C2894 H2878 0.959 . S
C2894 H2879 0.959 . S
C2894 H2880 0.961 . S
C2894 C2893 1.502 . S
C2895 H2881 0.960 . S
C2895 H2882 0.961 . S
C2895 H2883 0.959 . S
C2895 C2893 1.561 . S
C2896 C2893 1.526 . S
C2896 C2897 1.396 . S
C2896 C2901 1.390 . S
C2897 C2891 1.465 . S
C2897 C2896 1.396 . S
C2897 C2898 1.399 . S
C2898 H2884 0.929 . S
C2898 C2897 1.399 . S
C2898 C2899 1.385 . S
C2899 H2885 0.931 . S
C2899 C2898 1.385 . S
C2899 C2900 1.389 . S
C2900 C2899 1.389 . S
C2900 C2901 1.387 . S
C2901 H2886 0.930 . S
C2901 C2896 1.390 . S
C2901 C2900 1.387 . S
H2902 C2914 0.930 . S
H2903 C2916 0.930 . S
H2904 C2917 0.930 . S
H2905 C2921 0.959 . S
H2906 C2921 0.959 . S
H2907 C2921 0.961 . S
H2908 C2922 0.960 . S
H2909 C2922 0.961 . S
H2910 C2922 0.959 . S
H2911 C2925 0.929 . S
H2912 C2926 0.931 . S
H2913 C2928 0.930 . S
C2914 H2902 0.930 . S
C2914 C2915 1.399 . S
C2914 C2919 1.399 . S
C2915 C2914 1.399 . S
C2915 C2916 1.376 . S
C2916 H2903 0.930 . S
C2916 C2915 1.376 . S
C2916 C2917 1.388 . S
C2917 H2904 0.930 . S
C2917 C2916 1.388 . S
C2917 C2918 1.390 . S
C2918 C2917 1.390 . S
C2918 C2919 1.394 . S
C2918 C2924 1.465 . S
C2919 C2914 1.399 . S
C2919 C2918 1.394 . S
C2919 C2920 1.516 . S
C2920 C2919 1.516 . S
C2920 C2921 1.502 . S
C2920 C2922 1.561 . S
C2920 C2923 1.526 . S
C2921 H2905 0.959 . S
C2921 H2906 0.959 . S
C2921 H2907 0.961 . S
C2921 C2920 1.502 . S
C2922 H2908 0.960 . S
C2922 H2909 0.961 . S
C2922 H2910 0.959 . S
C2922 C2920 1.561 . S
C2923 C2920 1.526 . S
C2923 C2924 1.396 . S
C2923 C2928 1.390 . S
C2924 C2918 1.465 . S
C2924 C2923 1.396 . S
C2924 C2925 1.399 . S
C2925 H2911 0.929 . S
C2925 C2924 1.399 . S
C2925 C2926 1.385 . S
C2926 H2912 0.931 . S
C2926 C2925 1.385 . S
C2926 C2927 1.389 . S
C2927 C2926 1.389 . S
C2927 C2928 1.387 . S
C2928 H2913 0.930 . S
C2928 C2923 1.390 . S
C2928 C2927 1.387 . S
H2929 C2941 0.930 . S
H2930 C2943 0.930 . S
H2931 C2944 0.930 . S
H2932 C2948 0.959 . S
H2933 C2948 0.959 . S
H2934 C2948 0.961 . S
H2935 C2949 0.960 . S
H2936 C2949 0.961 . S
H2937 C2949 0.959 . S
H2938 C2952 0.929 . S
H2939 C2953 0.931 . S
H2940 C2955 0.930 . S
C2941 H2929 0.930 . S
C2941 C2942 1.399 . S
C2941 C2946 1.399 . S
C2942 C2941 1.399 . S
C2942 C2943 1.376 . S
C2943 H2930 0.930 . S
C2943 C2942 1.376 . S
C2943 C2944 1.388 . S
C2944 H2931 0.930 . S
C2944 C2943 1.388 . S
C2944 C2945 1.390 . S
C2945 C2944 1.390 . S
C2945 C2946 1.394 . S
C2945 C2951 1.465 . S
C2946 C2941 1.399 . S
C2946 C2945 1.394 . S
C2946 C2947 1.516 . S
C2947 C2946 1.516 . S
C2947 C2948 1.502 . S
C2947 C2949 1.561 . S
C2947 C2950 1.526 . S
C2948 H2932 0.959 . S
C2948 H2933 0.959 . S
C2948 H2934 0.961 . S
C2948 C2947 1.502 . S
C2949 H2935 0.960 . S
C2949 H2936 0.961 . S
C2949 H2937 0.959 . S
C2949 C2947 1.561 . S
C2950 C2947 1.526 . S
C2950 C2951 1.396 . S
C2950 C2955 1.390 . S
C2951 C2945 1.465 . S
C2951 C2950 1.396 . S
C2951 C2952 1.399 . S
C2952 H2938 0.929 . S
C2952 C2951 1.399 . S
C2952 C2953 1.385 . S
C2953 H2939 0.931 . S
C2953 C2952 1.385 . S
C2953 C2954 1.389 . S
C2954 C2953 1.389 . S
C2954 C2955 1.387 . S
C2955 H2940 0.930 . S
C2955 C2950 1.390 . S
C2955 C2954 1.387 . S
H2956 C2968 0.930 . S
H2957 C2970 0.930 . S
H2958 C2971 0.930 . S
H2959 C2975 0.959 . S
H2960 C2975 0.959 . S
H2961 C2975 0.961 . S
H2962 C2976 0.960 . S
H2963 C2976 0.961 . S
H2964 C2976 0.959 . S
H2965 C2979 0.929 . S
H2966 C2980 0.931 . S
H2967 C2982 0.930 . S
C2968 H2956 0.930 . S
C2968 C2969 1.399 . S
C2968 C2973 1.399 . S
C2969 C2968 1.399 . S
C2969 C2970 1.376 . S
C2970 H2957 0.930 . S
C2970 C2969 1.376 . S
C2970 C2971 1.388 . S
C2971 H2958 0.930 . S
C2971 C2970 1.388 . S
C2971 C2972 1.390 . S
C2972 C2971 1.390 . S
C2972 C2973 1.394 . S
C2972 C2978 1.465 . S
C2973 C2968 1.399 . S
C2973 C2972 1.394 . S
C2973 C2974 1.516 . S
C2974 C2973 1.516 . S
C2974 C2975 1.502 . S
C2974 C2976 1.561 . S
C2974 C2977 1.526 . S
C2975 H2959 0.959 . S
C2975 H2960 0.959 . S
C2975 H2961 0.961 . S
C2975 C2974 1.502 . S
C2976 H2962 0.960 . S
C2976 H2963 0.961 . S
C2976 H2964 0.959 . S
C2976 C2974 1.561 . S
C2977 C2974 1.526 . S
C2977 C2978 1.396 . S
C2977 C2982 1.390 . S
C2978 C2972 1.465 . S
C2978 C2977 1.396 . S
C2978 C2979 1.399 . S
C2979 H2965 0.929 . S
C2979 C2978 1.399 . S
C2979 C2980 1.385 . S
C2980 H2966 0.931 . S
C2980 C2979 1.385 . S
C2980 C2981 1.389 . S
C2981 C2980 1.389 . S
C2981 C2982 1.387 . S
C2982 H2967 0.930 . S
C2982 C2977 1.390 . S
C2982 C2981 1.387 . S
H2983 C2995 0.930 . S
H2984 C2997 0.930 . S
H2985 C2998 0.930 . S
H2986 C3002 0.959 . S
H2987 C3002 0.959 . S
H2988 C3002 0.961 . S
H2989 C3003 0.960 1_554 S
H2990 C3003 0.961 . S
H2991 C3003 0.959 . S
H2992 C3006 0.929 . S
H2993 C3007 0.931 . S
H2994 C3009 0.930 . S
C2995 H2983 0.930 . S
C2995 C2996 1.399 . S
C2995 C3000 1.399 . S
C2996 C2995 1.399 . S
C2996 C2997 1.376 . S
C2997 H2984 0.930 . S
C2997 C2996 1.376 . S
C2997 C2998 1.388 . S
C2998 H2985 0.930 . S
C2998 C2997 1.388 . S
C2998 C2999 1.390 . S
C2999 C2998 1.390 . S
C2999 C3000 1.394 . S
C2999 C3005 1.465 . S
C3000 C2995 1.399 . S
C3000 C2999 1.394 . S
C3000 C3001 1.516 . S
C3001 C3000 1.516 . S
C3001 C3002 1.502 . S
C3001 C3003 1.561 . S
C3001 C3004 1.526 . S
C3002 H2986 0.959 . S
C3002 H2987 0.959 . S
C3002 H2988 0.961 . S
C3002 C3001 1.502 . S
C3003 H2989 0.960 1_556 S
C3003 H2990 0.961 . S
C3003 H2991 0.959 . S
C3003 C3001 1.561 . S
C3004 C3001 1.526 . S
C3004 C3005 1.396 . S
C3004 C3009 1.390 . S
C3005 C2999 1.465 . S
C3005 C3004 1.396 . S
C3005 C3006 1.399 . S
C3006 H2992 0.929 . S
C3006 C3005 1.399 . S
C3006 C3007 1.385 . S
C3007 H2993 0.931 . S
C3007 C3006 1.385 . S
C3007 C3008 1.389 . S
C3008 C3007 1.389 . S
C3008 C3009 1.387 . S
C3009 H2994 0.930 . S
C3009 C3004 1.390 . S
C3009 C3008 1.387 . S
H3010 C3022 0.930 . S
H3011 C3024 0.930 . S
H3012 C3025 0.930 . S
H3013 C3029 0.959 . S
H3014 C3029 0.959 . S
H3015 C3029 0.961 . S
H3016 C3030 0.960 . S
H3017 C3030 0.961 . S
H3018 C3030 0.959 . S
H3019 C3033 0.929 . S
H3020 C3034 0.931 . S
H3021 C3036 0.930 . S
C3022 H3010 0.930 . S
C3022 C3023 1.399 . S
C3022 C3027 1.399 . S
C3023 C3022 1.399 . S
C3023 C3024 1.376 . S
C3024 H3011 0.930 . S
C3024 C3023 1.376 . S
C3024 C3025 1.388 . S
C3025 H3012 0.930 . S
C3025 C3024 1.388 . S
C3025 C3026 1.390 . S
C3026 C3025 1.390 . S
C3026 C3027 1.394 . S
C3026 C3032 1.465 . S
C3027 C3022 1.399 . S
C3027 C3026 1.394 . S
C3027 C3028 1.516 . S
C3028 C3027 1.516 . S
C3028 C3029 1.502 . S
C3028 C3030 1.561 . S
C3028 C3031 1.526 . S
C3029 H3013 0.959 . S
C3029 H3014 0.959 . S
C3029 H3015 0.961 . S
C3029 C3028 1.502 . S
C3030 H3016 0.960 . S
C3030 H3017 0.961 . S
C3030 H3018 0.959 . S
C3030 C3028 1.561 . S
C3031 C3028 1.526 . S
C3031 C3032 1.396 . S
C3031 C3036 1.390 . S
C3032 C3026 1.465 . S
C3032 C3031 1.396 . S
C3032 C3033 1.399 . S
C3033 H3019 0.929 . S
C3033 C3032 1.399 . S
C3033 C3034 1.385 . S
C3034 H3020 0.931 . S
C3034 C3033 1.385 . S
C3034 C3035 1.389 . S
C3035 C3034 1.389 . S
C3035 C3036 1.387 . S
C3036 H3021 0.930 . S
C3036 C3031 1.390 . S
C3036 C3035 1.387 . S
H3037 C3049 0.930 . S
H3038 C3051 0.930 . S
H3039 C3052 0.930 . S
H3040 C3056 0.959 . S
H3041 C3056 0.959 . S
H3042 C3056 0.961 . S
H3043 C3057 0.960 . S
H3044 C3057 0.961 . S
H3045 C3057 0.959 . S
H3046 C3060 0.929 . S
H3047 C3061 0.931 . S
H3048 C3063 0.930 . S
C3049 H3037 0.930 . S
C3049 C3050 1.399 . S
C3049 C3054 1.399 . S
C3050 C3049 1.399 . S
C3050 C3051 1.376 . S
C3051 H3038 0.930 . S
C3051 C3050 1.376 . S
C3051 C3052 1.388 . S
C3052 H3039 0.930 . S
C3052 C3051 1.388 . S
C3052 C3053 1.390 . S
C3053 C3052 1.390 . S
C3053 C3054 1.394 . S
C3053 C3059 1.465 . S
C3054 C3049 1.399 . S
C3054 C3053 1.394 . S
C3054 C3055 1.516 . S
C3055 C3054 1.516 . S
C3055 C3056 1.502 . S
C3055 C3057 1.561 . S
C3055 C3058 1.526 . S
C3056 H3040 0.959 . S
C3056 H3041 0.959 . S
C3056 H3042 0.961 . S
C3056 C3055 1.502 . S
C3057 H3043 0.960 . S
C3057 H3044 0.961 . S
C3057 H3045 0.959 . S
C3057 C3055 1.561 . S
C3058 C3055 1.526 . S
C3058 C3059 1.396 . S
C3058 C3063 1.390 . S
C3059 C3053 1.465 . S
C3059 C3058 1.396 . S
C3059 C3060 1.399 . S
C3060 H3046 0.929 . S
C3060 C3059 1.399 . S
C3060 C3061 1.385 . S
C3061 H3047 0.931 . S
C3061 C3060 1.385 . S
C3061 C3062 1.389 . S
C3062 C3061 1.389 . S
C3062 C3063 1.387 . S
C3063 H3048 0.930 . S
C3063 C3058 1.390 . S
C3063 C3062 1.387 . S
H3064 C3076 0.930 . S
H3065 C3078 0.930 . S
H3066 C3079 0.930 . S
H3067 C3083 0.959 . S
H3068 C3083 0.959 . S
H3069 C3083 0.961 . S
H3070 C3084 0.960 . S
H3071 C3084 0.961 . S
H3072 C3084 0.959 . S
H3073 C3087 0.929 . S
H3074 C3088 0.931 . S
H3075 C3090 0.930 . S
C3076 H3064 0.930 . S
C3076 C3077 1.399 . S
C3076 C3081 1.399 . S
C3077 C3076 1.399 . S
C3077 C3078 1.376 . S
C3078 H3065 0.930 . S
C3078 C3077 1.376 . S
C3078 C3079 1.388 . S
C3079 H3066 0.930 . S
C3079 C3078 1.388 . S
C3079 C3080 1.390 . S
C3080 C3079 1.390 . S
C3080 C3081 1.394 . S
C3080 C3086 1.465 . S
C3081 C3076 1.399 . S
C3081 C3080 1.394 . S
C3081 C3082 1.516 . S
C3082 C3081 1.516 . S
C3082 C3083 1.502 . S
C3082 C3084 1.561 . S
C3082 C3085 1.526 . S
C3083 H3067 0.959 . S
C3083 H3068 0.959 . S
C3083 H3069 0.961 . S
C3083 C3082 1.502 . S
C3084 H3070 0.960 . S
C3084 H3071 0.961 . S
C3084 H3072 0.959 . S
C3084 C3082 1.561 . S
C3085 C3082 1.526 . S
C3085 C3086 1.396 . S
C3085 C3090 1.390 . S
C3086 C3080 1.465 . S
C3086 C3085 1.396 . S
C3086 C3087 1.399 . S
C3087 H3073 0.929 . S
C3087 C3086 1.399 . S
C3087 C3088 1.385 . S
C3088 H3074 0.931 . S
C3088 C3087 1.385 . S
C3088 C3089 1.389 . S
C3089 C3088 1.389 . S
C3089 C3090 1.387 . S
C3090 H3075 0.930 . S
C3090 C3085 1.390 . S
C3090 C3089 1.387 . S
H3091 C3103 0.930 . S
H3092 C3105 0.930 . S
H3093 C3106 0.930 . S
H3094 C3110 0.959 . S
H3095 C3110 0.959 . S
H3096 C3110 0.961 . S
H3097 C3111 0.960 . S
H3098 C3111 0.961 . S
H3099 C3111 0.959 . S
H3100 C3114 0.929 . S
H3101 C3115 0.931 . S
H3102 C3117 0.930 . S
C3103 H3091 0.930 . S
C3103 C3104 1.399 . S
C3103 C3108 1.399 . S
C3104 C3103 1.399 . S
C3104 C3105 1.376 . S
C3105 H3092 0.930 . S
C3105 C3104 1.376 . S
C3105 C3106 1.388 . S
C3106 H3093 0.930 . S
C3106 C3105 1.388 . S
C3106 C3107 1.390 . S
C3107 C3106 1.390 . S
C3107 C3108 1.394 . S
C3107 C3113 1.465 . S
C3108 C3103 1.399 . S
C3108 C3107 1.394 . S
C3108 C3109 1.516 . S
C3109 C3108 1.516 . S
C3109 C3110 1.502 . S
C3109 C3111 1.561 . S
C3109 C3112 1.526 . S
C3110 H3094 0.959 . S
C3110 H3095 0.959 . S
C3110 H3096 0.961 . S
C3110 C3109 1.502 . S
C3111 H3097 0.960 . S
C3111 H3098 0.961 . S
C3111 H3099 0.959 . S
C3111 C3109 1.561 . S
C3112 C3109 1.526 . S
C3112 C3113 1.396 . S
C3112 C3117 1.390 . S
C3113 C3107 1.465 . S
C3113 C3112 1.396 . S
C3113 C3114 1.399 . S
C3114 H3100 0.929 . S
C3114 C3113 1.399 . S
C3114 C3115 1.385 . S
C3115 H3101 0.931 . S
C3115 C3114 1.385 . S
C3115 C3116 1.389 . S
C3116 C3115 1.389 . S
C3116 C3117 1.387 . S
C3117 H3102 0.930 . S
C3117 C3112 1.390 . S
C3117 C3116 1.387 . S
H3118 C3130 0.930 . S
H3119 C3132 0.930 . S
H3120 C3133 0.930 . S
H3121 C3137 0.959 . S
H3122 C3137 0.959 . S
H3123 C3137 0.961 . S
H3124 C3138 0.960 . S
H3125 C3138 0.961 . S
H3126 C3138 0.959 . S
H3127 C3141 0.929 . S
H3128 C3142 0.931 . S
H3129 C3144 0.930 . S
C3130 H3118 0.930 . S
C3130 C3131 1.399 . S
C3130 C3135 1.399 . S
C3131 C3130 1.399 . S
C3131 C3132 1.376 . S
C3132 H3119 0.930 . S
C3132 C3131 1.376 . S
C3132 C3133 1.388 . S
C3133 H3120 0.930 . S
C3133 C3132 1.388 . S
C3133 C3134 1.390 . S
C3134 C3133 1.390 . S
C3134 C3135 1.394 . S
C3134 C3140 1.465 . S
C3135 C3130 1.399 . S
C3135 C3134 1.394 . S
C3135 C3136 1.516 . S
C3136 C3135 1.516 . S
C3136 C3137 1.502 . S
C3136 C3138 1.561 . S
C3136 C3139 1.526 . S
C3137 H3121 0.959 . S
C3137 H3122 0.959 . S
C3137 H3123 0.961 . S
C3137 C3136 1.502 . S
C3138 H3124 0.960 . S
C3138 H3125 0.961 . S
C3138 H3126 0.959 . S
C3138 C3136 1.561 . S
C3139 C3136 1.526 . S
C3139 C3140 1.396 . S
C3139 C3144 1.390 . S
C3140 C3134 1.465 . S
C3140 C3139 1.396 . S
C3140 C3141 1.399 . S
C3141 H3127 0.929 . S
C3141 C3140 1.399 . S
C3141 C3142 1.385 . S
C3142 H3128 0.931 . S
C3142 C3141 1.385 . S
C3142 C3143 1.389 . S
C3143 C3142 1.389 . S
C3143 C3144 1.387 . S
C3144 H3129 0.930 . S
C3144 C3139 1.390 . S
C3144 C3143 1.387 . S
H3145 C3157 0.930 . S
H3146 C3159 0.930 . S
H3147 C3160 0.930 . S
H3148 C3164 0.959 . S
H3149 C3164 0.959 . S
H3150 C3164 0.961 . S
H3151 C3165 0.960 . S
H3152 C3165 0.961 . S
H3153 C3165 0.959 . S
H3154 C3168 0.929 . S
H3155 C3169 0.931 . S
H3156 C3171 0.930 . S
C3157 H3145 0.930 . S
C3157 C3158 1.399 . S
C3157 C3162 1.399 . S
C3158 C3157 1.399 . S
C3158 C3159 1.376 . S
C3159 H3146 0.930 . S
C3159 C3158 1.376 . S
C3159 C3160 1.388 . S
C3160 H3147 0.930 . S
C3160 C3159 1.388 . S
C3160 C3161 1.390 . S
C3161 C3160 1.390 . S
C3161 C3162 1.394 . S
C3161 C3167 1.465 . S
C3162 C3157 1.399 . S
C3162 C3161 1.394 . S
C3162 C3163 1.516 . S
C3163 C3162 1.516 . S
C3163 C3164 1.502 . S
C3163 C3165 1.561 . S
C3163 C3166 1.526 . S
C3164 H3148 0.959 . S
C3164 H3149 0.959 . S
C3164 H3150 0.961 . S
C3164 C3163 1.502 . S
C3165 H3151 0.960 . S
C3165 H3152 0.961 . S
C3165 H3153 0.959 . S
C3165 C3163 1.561 . S
C3166 C3163 1.526 . S
C3166 C3167 1.396 . S
C3166 C3171 1.390 . S
C3167 C3161 1.465 . S
C3167 C3166 1.396 . S
C3167 C3168 1.399 . S
C3168 H3154 0.929 . S
C3168 C3167 1.399 . S
C3168 C3169 1.385 . S
C3169 H3155 0.931 . S
C3169 C3168 1.385 . S
C3169 C3170 1.389 . S
C3170 C3169 1.389 . S
C3170 C3171 1.387 . S
C3171 H3156 0.930 . S
C3171 C3166 1.390 . S
C3171 C3170 1.387 . S
H3172 C3184 0.930 . S
H3173 C3186 0.930 . S
H3174 C3187 0.930 . S
H3175 C3191 0.959 . S
H3176 C3191 0.959 . S
H3177 C3191 0.961 . S
H3178 C3192 0.960 . S
H3179 C3192 0.961 . S
H3180 C3192 0.959 . S
H3181 C3195 0.929 . S
H3182 C3196 0.931 . S
H3183 C3198 0.930 . S
C3184 H3172 0.930 . S
C3184 C3185 1.399 . S
C3184 C3189 1.399 . S
C3185 C3184 1.399 . S
C3185 C3186 1.376 . S
C3186 H3173 0.930 . S
C3186 C3185 1.376 . S
C3186 C3187 1.388 . S
C3187 H3174 0.930 . S
C3187 C3186 1.388 . S
C3187 C3188 1.390 . S
C3188 C3187 1.390 . S
C3188 C3189 1.394 . S
C3188 C3194 1.465 . S
C3189 C3184 1.399 . S
C3189 C3188 1.394 . S
C3189 C3190 1.516 . S
C3190 C3189 1.516 . S
C3190 C3191 1.502 . S
C3190 C3192 1.561 . S
C3190 C3193 1.526 . S
C3191 H3175 0.959 . S
C3191 H3176 0.959 . S
C3191 H3177 0.961 . S
C3191 C3190 1.502 . S
C3192 H3178 0.960 . S
C3192 H3179 0.961 . S
C3192 H3180 0.959 . S
C3192 C3190 1.561 . S
C3193 C3190 1.526 . S
C3193 C3194 1.396 . S
C3193 C3198 1.390 . S
C3194 C3188 1.465 . S
C3194 C3193 1.396 . S
C3194 C3195 1.399 . S
C3195 H3181 0.929 . S
C3195 C3194 1.399 . S
C3195 C3196 1.385 . S
C3196 H3182 0.931 . S
C3196 C3195 1.385 . S
C3196 C3197 1.389 . S
C3197 C3196 1.389 . S
C3197 C3198 1.387 . S
C3198 H3183 0.930 . S
C3198 C3193 1.390 . S
C3198 C3197 1.387 . S
H3199 C3211 0.930 . S
H3200 C3213 0.930 . S
H3201 C3214 0.930 . S
H3202 C3218 0.959 . S
H3203 C3218 0.959 . S
H3204 C3218 0.961 . S
H3205 C3219 0.960 . S
H3206 C3219 0.961 . S
H3207 C3219 0.959 . S
H3208 C3222 0.929 . S
H3209 C3223 0.931 . S
H3210 C3225 0.930 . S
C3211 H3199 0.930 . S
C3211 C3212 1.399 . S
C3211 C3216 1.399 . S
C3212 C3211 1.399 . S
C3212 C3213 1.376 . S
C3213 H3200 0.930 . S
C3213 C3212 1.376 . S
C3213 C3214 1.388 . S
C3214 H3201 0.930 . S
C3214 C3213 1.388 . S
C3214 C3215 1.390 . S
C3215 C3214 1.390 . S
C3215 C3216 1.394 . S
C3215 C3221 1.465 . S
C3216 C3211 1.399 . S
C3216 C3215 1.394 . S
C3216 C3217 1.516 . S
C3217 C3216 1.516 . S
C3217 C3218 1.502 . S
C3217 C3219 1.561 . S
C3217 C3220 1.526 . S
C3218 H3202 0.959 . S
C3218 H3203 0.959 . S
C3218 H3204 0.961 . S
C3218 C3217 1.502 . S
C3219 H3205 0.960 . S
C3219 H3206 0.961 . S
C3219 H3207 0.959 . S
C3219 C3217 1.561 . S
C3220 C3217 1.526 . S
C3220 C3221 1.396 . S
C3220 C3225 1.390 . S
C3221 C3215 1.465 . S
C3221 C3220 1.396 . S
C3221 C3222 1.399 . S
C3222 H3208 0.929 . S
C3222 C3221 1.399 . S
C3222 C3223 1.385 . S
C3223 H3209 0.931 . S
C3223 C3222 1.385 . S
C3223 C3224 1.389 . S
C3224 C3223 1.389 . S
C3224 C3225 1.387 . S
C3225 H3210 0.930 . S
C3225 C3220 1.390 . S
C3225 C3224 1.387 . S
H3226 C3238 0.930 . S
H3227 C3240 0.930 . S
H3228 C3241 0.930 . S
H3229 C3245 0.959 . S
H3230 C3245 0.959 . S
H3231 C3245 0.961 . S
H3232 C3246 0.960 . S
H3233 C3246 0.961 . S
H3234 C3246 0.959 . S
H3235 C3249 0.929 . S
H3236 C3250 0.931 . S
H3237 C3252 0.930 . S
C3238 H3226 0.930 . S
C3238 C3239 1.399 . S
C3238 C3243 1.399 . S
C3239 C3238 1.399 . S
C3239 C3240 1.376 . S
C3240 H3227 0.930 . S
C3240 C3239 1.376 . S
C3240 C3241 1.388 . S
C3241 H3228 0.930 . S
C3241 C3240 1.388 . S
C3241 C3242 1.390 . S
C3242 C3241 1.390 . S
C3242 C3243 1.394 . S
C3242 C3248 1.465 . S
C3243 C3238 1.399 . S
C3243 C3242 1.394 . S
C3243 C3244 1.516 . S
C3244 C3243 1.516 . S
C3244 C3245 1.502 . S
C3244 C3246 1.561 . S
C3244 C3247 1.526 . S
C3245 H3229 0.959 . S
C3245 H3230 0.959 . S
C3245 H3231 0.961 . S
C3245 C3244 1.502 . S
C3246 H3232 0.960 . S
C3246 H3233 0.961 . S
C3246 H3234 0.959 . S
C3246 C3244 1.561 . S
C3247 C3244 1.526 . S
C3247 C3248 1.396 . S
C3247 C3252 1.390 . S
C3248 C3242 1.465 . S
C3248 C3247 1.396 . S
C3248 C3249 1.399 . S
C3249 H3235 0.929 . S
C3249 C3248 1.399 . S
C3249 C3250 1.385 . S
C3250 H3236 0.931 . S
C3250 C3249 1.385 . S
C3250 C3251 1.389 . S
C3251 C3250 1.389 . S
C3251 C3252 1.387 . S
C3252 H3237 0.930 . S
C3252 C3247 1.390 . S
C3252 C3251 1.387 . S
H3253 C3265 0.930 . S
H3254 C3267 0.930 . S
H3255 C3268 0.930 . S
H3256 C3272 0.959 1_655 S
H3257 C3272 0.959 1_655 S
H3258 C3272 0.961 . S
H3259 C3273 0.960 . S
H3260 C3273 0.961 . S
H3261 C3273 0.959 . S
H3262 C3276 0.929 . S
H3263 C3277 0.931 . S
H3264 C3279 0.930 . S
C3265 H3253 0.930 . S
C3265 C3266 1.399 . S
C3265 C3270 1.399 . S
C3266 C3265 1.399 . S
C3266 C3267 1.376 . S
C3267 H3254 0.930 . S
C3267 C3266 1.376 . S
C3267 C3268 1.388 . S
C3268 H3255 0.930 . S
C3268 C3267 1.388 . S
C3268 C3269 1.390 . S
C3269 C3268 1.390 . S
C3269 C3270 1.394 . S
C3269 C3275 1.465 . S
C3270 C3265 1.399 . S
C3270 C3269 1.394 . S
C3270 C3271 1.516 . S
C3271 C3270 1.516 . S
C3271 C3272 1.502 . S
C3271 C3273 1.561 . S
C3271 C3274 1.526 1_455 S
C3272 H3256 0.959 1_455 S
C3272 H3257 0.959 1_455 S
C3272 H3258 0.961 . S
C3272 C3271 1.502 . S
C3273 H3259 0.960 . S
C3273 H3260 0.961 . S
C3273 H3261 0.959 . S
C3273 C3271 1.561 . S
C3274 C3271 1.526 1_655 S
C3274 C3275 1.396 1_655 S
C3274 C3279 1.390 . S
C3275 C3269 1.465 . S
C3275 C3274 1.396 1_455 S
C3275 C3276 1.399 1_455 S
C3276 H3262 0.929 . S
C3276 C3275 1.399 1_655 S
C3276 C3277 1.385 . S
C3277 H3263 0.931 . S
C3277 C3276 1.385 . S
C3277 C3278 1.389 . S
C3278 C3277 1.389 . S
C3278 C3279 1.387 . S
C3279 H3264 0.930 . S
C3279 C3274 1.390 . S
C3279 C3278 1.387 . S
C713 C343 1.091 . S
C701 C11 1.037 . S
C728 C14 1.128 . S
C740 C363 1.193 . S
C767 C384 1.153 . S
C755 C37 1.188 . S
C794 C411 1.183 . S
C782 C47 1.146 . S
C821 C367 1.125 . S
C809 C61 1.193 . S
C836 C79 1.238 . S
C848 C387 1.117 . S
C875 C407 1.149 . S
C863 C84 1.187 . S
C890 C109 1.108 . S
C902 C340 0.960 . S
C917 C123 1.093 . S
C929 C345 1.068 . S
C956 C362 1.168 . S
C944 C131 1.139 . S
C983 C386 1.139 . S
C971 C140 1.266 . S
C1010 C410 1.129 . S
C998 C163 1.114 . S
C1037 C366 1.124 . S
C1025 C121 1.196 . S
C1064 C389 1.198 . S
C1052 C126 1.245 . S
C1079 C145 1.178 . S
C1091 C406 1.040 . S
C1118 C342 1.042 . S
C1106 C165 1.050 . S
C1133 C168 1.141 . S
C1145 C344 1.003 . S
C1160 C193 1.103 . S
C1172 C431 1.062 . S
C1199 C451 1.139 . S
C1187 C205 1.155 . S
C1226 C474 1.096 . S
C1214 C215 1.216 . S
C1241 C224 1.051 . S
C1253 C341 1.087 . S
C1268 C247 1.203 . S
C1280 C385 1.196 . S
C1307 C475 1.039 . S
C1295 C207 1.161 . S
C1334 C430 1.182 . S
C1322 C257 1.173 . S
C1361 C498 1.182 . S
C1349 C23 1.177 . S
C1388 C519 1.130 . S
C1376 C0 1.137 . S
C1403 C53 1.002 . S
C1415 C538 0.952 . S
C1430 C33 1.176 . S
C1442 C563 1.149 . S
C1457 C103 1.197 . S
C1469 C518 1.189 . S
C1484 C95 1.049 . S
C1496 C543 1.046 . S
C1523 C562 1.120 . S
C1511 C70 1.132 . S
C1538 C65 1.213 . S
C1550 C495 1.195 . S
C1565 C271 1.227 . S
C1577 C499 1.215 . S
C1604 C520 1.068 . S
C1592 C219 1.108 . S
C1631 C539 0.954 . S
C1619 C235 1.000 . S
C1658 C564 1.025 . S
C1646 C182 1.063 . S
C1685 C516 1.101 . S
C1673 C266 1.113 . S
C1712 C541 1.057 . S
C1700 C221 1.060 . S
C1739 C560 1.076 . S
C1727 C233 1.124 . S
C1754 C187 1.198 . S
C1766 C496 1.134 . S
C1793 C497 1.045 . S
C1781 C289 1.096 . S
C1808 C154 1.129 . S
C1820 C583 1.095 . S
C1847 C608 1.063 . S
C1835 C299 1.101 . S
C1862 C137 1.086 . S
C1874 C627 1.044 . S
C1901 C494 1.047 . S
C1889 C149 1.110 . S
C1928 C540 1.075 . S
C1916 C313 1.107 . S
C1955 C631 1.161 . S
C1943 C294 1.175 . S
C1970 C333 1.081 . S
C1982 C587 1.036 . S
C1997 C39 1.084 . S
C2009 C651 1.039 . S
C2024 C42 1.195 . S
C2036 C429 1.135 . S
C2063 C453 1.176 . S
C2051 C9 1.179 . S
C2078 C19 1.192 . S
C2090 C477 1.135 . S
C2105 C89 1.198 . S
C2117 C433 1.122 . S
C2132 C107 1.179 . S
C2144 C450 1.176 . S
C2171 C473 1.109 . S
C2159 C56 1.147 . S
C2198 C648 0.963 . S
C2186 C81 1.084 . S
C2225 C653 0.999 . S
C2213 C305 1.125 . S
C2252 C428 1.072 . S
C2240 C285 1.149 . S
C2279 C455 1.168 . S
C2267 C322 1.259 . S
C2294 C317 1.113 . S
C2306 C476 1.147 . S
C2333 C432 1.060 . S
C2321 C303 1.171 . S
C2348 C280 1.191 . S
C2360 C452 1.178 . S
C2387 C472 1.065 . S
C2375 C327 1.190 . S
C2402 C319 1.033 . S
C2414 C650 1.077 . S
C2441 C652 1.132 . S
C2429 C210 1.067 . S
C2456 C249 1.144 . S
C2468 C365 1.089 . S
C2495 C388 1.151 . S
C2483 C275 1.228 . S
C2510 C173 1.228 . S
C2522 C408 1.091 . S
C2549 C649 1.064 . S
C2537 C252 1.133 . S
C2576 C454 1.210 . S
C2564 C191 1.169 . S
C2603 C409 1.055 . S
C2591 C277 1.158 . S
C2630 C364 1.123 . S
C2618 C229 1.195 . S
C2645 C51 1.144 . S
C2657 C675 1.094 . S
C2672 C28 1.070 . S
C2684 C585 1.028 . S
C2699 C25 1.054 . S
C2711 C604 1.038 . S
C2738 C629 1.172 . S
C2726 C5 1.194 . S
C2765 C584 1.171 . S
C2753 C75 1.187 . S
C2780 C67 1.006 . S
C2792 C609 0.956 . S
C2819 C628 1.114 . S
C2807 C98 1.128 . S
C2834 C93 1.213 . S
C2846 C670 1.195 . S
C2873 C673 1.215 . S
C2861 C201 1.230 . S
C2888 C177 1.137 . S
C2900 C586 1.144 . S
C2915 C263 1.003 . S
C2927 C605 0.960 . S
C2954 C630 1.076 . S
C2942 C238 1.105 . S
C2981 C582 1.070 . S
C2969 C196 1.092 . S
C2996 C179 1.004 . S
C3008 C607 0.963 . S
C3035 C626 1.068 . S
C3023 C261 1.104 . S
C3062 C671 1.216 . S
C3050 C243 1.229 . S
C3089 C674 1.138 . S
C3077 C135 1.166 . S
C3116 C517 1.154 . S
C3104 C308 1.172 . S
C3131 C117 1.071 . S
C3143 C542 1.006 . S
C3158 C291 1.122 . S
C3170 C561 1.116 . S
C3197 C672 1.151 . S
C3185 C331 1.147 . S
C3224 C606 1.108 . S
C3212 C159 1.119 . S
C3251 C565 1.180 . S
C3239 C112 1.189 . S
C3278 C521 1.125 . S
C3266 C151 1.133 . S
