# Generated by pormake.
# Topology nia, (6,6)-cn, num edge types: 1
# Building blocks:
#     Node 0, Type 0, BuildingBlock: BETDAH_clean_sbu_0, # of connection points: 6
#     Node 1, Type 0, BuildingBlock: BETDAH_clean_sbu_0, # of connection points: 6
#     Node 2, Type 1, BuildingBlock: MIDCAF_clean_sbu_0, # of connection points: 6
#     Node 3, Type 1, BuildingBlock: MIDCAF_clean_sbu_0, # of connection points: 6
#     Edge 4, Type (0, 1), BuildingBlock: AJUNOK_clean_linker_0, # of connection points: 2
#     Edge 5, Type (0, 1), BuildingBlock: AJUNOK_clean_linker_0, # of connection points: 2
#     Edge 6, Type (0, 1), BuildingBlock: AJUNOK_clean_linker_0, # of connection points: 2
#     Edge 7, Type (0, 1), BuildingBlock: AJUNOK_clean_linker_0, # of connection points: 2
#     Edge 8, Type (0, 1), BuildingBlock: AJUNOK_clean_linker_0, # of connection points: 2
#     Edge 9, Type (0, 1), BuildingBlock: AJUNOK_clean_linker_0, # of connection points: 2
#     Edge 10, Type (0, 1), BuildingBlock: AJUNOK_clean_linker_0, # of connection points: 2
#     Edge 11, Type (0, 1), BuildingBlock: AJUNOK_clean_linker_0, # of connection points: 2
#     Edge 12, Type (0, 1), BuildingBlock: AJUNOK_clean_linker_0, # of connection points: 2
#     Edge 13, Type (0, 1), BuildingBlock: AJUNOK_clean_linker_0, # of connection points: 2
#     Edge 14, Type (0, 1), BuildingBlock: AJUNOK_clean_linker_0, # of connection points: 2
#     Edge 15, Type (0, 1), BuildingBlock: AJUNOK_clean_linker_0, # of connection points: 2
# Relax obj value: 0.383
# Max RMSD: 0.283
# Mean RMSD: 0.268
data_MOF--net-nia--node1-BETDAH_clean_sbu_0--node2-MIDCAF_clean_sbu_0--edge1-AJUNOK_clean_linker_0
_symmetry_space_group_name_H-M    P1
_symmetry_Int_Tables_number       1
_symmetry_cell_setting            triclinic
loop_
_symmetry_equiv_pos_as_xyz
'x, y, z'
_cell_length_a     19.232831
_cell_length_b     22.51345
_cell_length_c     26.598652
_cell_angle_alpha  62.470086
_cell_angle_beta   106.70002
_cell_angle_gamma 129.48679
loop_
_atom_site_label
_atom_site_type_symbol
_atom_site_fract_x
_atom_site_fract_y
_atom_site_fract_z
_atom_type_partial_charge
Ho0 Ho 0.10385 0.06649 0.06018 0.0
Ho1 Ho 0.98945 0.93339 1.0229 0.0
C2 C 0.96392 0.07443 0.96183 0.0
C3 C 0.21436 0.20349 0.07692 0.0
C4 C 0.20336 0.24484 0.09994 0.0
C5 C 0.24259 0.32974 0.0712 0.0
C6 C 0.23587 0.3708 0.09366 0.0
C7 C 0.19016 0.32739 0.14526 0.0
C8 C 0.14927 0.24207 0.17357 0.0
C9 C 0.15495 0.20068 0.15071 0.0
C10 C 0.94335 0.94617 0.11992 0.0
C11 C 0.13135 0.92596 0.11995 0.0
C12 C 0.87582 0.79438 1.00905 0.0
C13 C 0.88448 0.74521 0.99352 0.0
C14 C 0.82301 0.65867 1.0158 0.0
C15 C 0.82681 0.61113 0.99857 0.0
C16 C 0.89194 0.64993 0.95872 0.0
C17 C 0.95505 0.73649 0.93749 0.0
C18 C 0.95203 0.78403 0.95534 0.0
C19 C 0.14901 0.05405 0.96236 0.0
O20 O 0.04719 0.12011 0.97893 0.0
O21 O 0.91934 -0.00665 0.98387 0.0
O22 O 0.2017 0.13372 0.11285 0.0
O23 O 0.17736 0.20026 1.02781 0.0
O24 O 0.02128 -0.01322 0.14166 0.0
O25 O 0.955 0.97323 0.06764 0.0
O26 O 0.04868 0.88048 0.1022 0.0
O27 O 0.17519 0.007 0.09937 0.0
O28 O 0.89761 0.86571 0.96927 0.0
O29 O 0.90723 0.79893 0.05868 0.0
O30 O 0.07078 0.0126 0.94113 0.0
O31 O 0.13828 0.02724 1.01483 0.0
H32 H 0.27983 0.36453 0.032 0.0
H33 H 0.26936 0.4372 0.07182 0.0
H34 H 0.11438 0.20802 0.21361 0.0
H35 H 0.12306 0.13467 0.17334 0.0
H36 H 0.77087 0.6281 0.04541 0.0
H37 H 0.77669 0.54426 1.01465 0.0
H38 H 1.00532 0.76708 0.90652 0.0
H39 H 1.00084 0.85105 0.93826 0.0
Ho40 Ho 0.99319 0.02361 0.5453 0.0
Ho41 Ho 0.10438 0.97776 0.53884 0.0
C42 C 0.93447 0.94573 0.45586 0.0
C43 C 0.92977 0.0949 0.54802 0.0
C44 C 0.90661 0.10815 0.5884 0.0
C45 C 0.82039 0.08783 0.5861 0.0
C46 C 0.79849 0.10714 0.61931 0.0
C47 C 0.86246 0.14726 0.65566 0.0
C48 C 0.94821 0.16563 0.65922 0.0
C49 C 0.97009 0.14595 0.62603 0.0
C50 C 0.932 0.86357 0.6138 0.0
C51 C 0.16627 0.06021 0.62605 0.0
C52 C 0.16853 0.90824 0.53403 0.0
C53 C 0.18662 0.89329 0.49229 0.0
C54 C 0.27348 0.91785 0.4891 0.0
C55 C 0.29091 0.89643 0.45504 0.0
C56 C 0.22156 0.84935 0.42379 0.0
C57 C 0.13553 0.82831 0.42465 0.0
C58 C 0.11813 0.85017 0.4586 0.0
C59 C 0.16725 0.13836 0.4726 0.0
O60 O 0.94061 0.00231 0.4641 0.0
O61 O 0.98388 0.91907 0.48538 0.0
O62 O 0.01501 0.13312 0.5401 0.0
O63 O 0.87907 0.01927 0.54933 0.0
O64 O 0.88141 0.88802 0.58799 0.0
O65 O 1.01357 0.92614 0.60541 0.0
O66 O 0.16069 0.00317 0.61869 0.0
O67 O 0.11374 0.08366 0.59784 0.0
O68 O 0.08447 0.86801 0.5463 0.0
O69 O 0.21846 -0.01498 0.53018 0.0
O70 O 0.21709 0.11321 0.4989 0.0
O71 O 0.08548 0.07612 0.47923 0.0
H72 H 0.77069 0.05946 0.55703 0.0
H73 H 0.73275 0.09424 0.61441 0.0
H74 H 0.9989 0.19698 0.68667 0.0
H75 H 0.03722 0.16236 0.6287 0.0
H76 H 0.3273 0.95104 0.51468 0.0
H77 H 0.3576 0.9128 0.45559 0.0
H78 H 0.08112 0.79265 0.40052 0.0
H79 H 0.05059 0.83103 0.45981 0.0
Zn80 Zn 0.41772 0.75205 0.18217 0.0
Zn81 Zn 0.4128 0.62863 0.39806 0.0
Zn82 Zn 0.42234 0.68936 0.28806 0.0
C83 C 0.59689 0.74968 0.3623 0.0
C84 C 0.32741 0.49039 0.37638 0.0
O85 O 0.35132 0.7516 0.25519 0.0
O86 O 0.37488 0.81915 0.16256 0.0
C87 C 0.59536 0.80608 0.20175 0.0
O88 O 0.56428 0.75476 0.31211 0.0
O89 O 0.54557 0.70015 0.40528 0.0
O90 O 0.35251 0.51021 0.41882 0.0
O91 O 0.34589 0.54708 0.32566 0.0
O92 O 0.54135 0.80756 0.16168 0.0
O93 O 0.56659 0.76919 0.25345 0.0
O94 O 0.34135 0.58117 0.26612 0.0
O95 O 0.32628 0.64296 0.17515 0.0
C96 C 0.30691 0.57743 0.21755 0.0
O97 O 0.36188 0.72858 0.31442 0.0
O98 O 0.34378 0.66056 0.40738 0.0
C99 C 0.34108 0.79874 0.2069 0.0
C100 C 0.33419 0.70913 0.36215 0.0
Zn101 Zn 0.6662 0.23418 0.90046 0.0
Zn102 Zn 0.6897 0.37879 0.68728 0.0
Zn103 Zn 0.67371 0.31203 0.79761 0.0
C104 C 0.7778 0.51364 0.71529 0.0
C105 C 0.50317 0.26014 0.72031 0.0
O106 O 0.74591 0.25067 0.82816 0.0
O107 O 0.70949 0.16839 0.91837 0.0
C108 C 0.77969 0.40785 0.87709 0.0
O109 O 0.75208 0.45409 0.76502 0.0
O110 O 0.75888 0.49736 0.67179 0.0
O111 O 0.55632 0.31262 0.67811 0.0
O112 O 0.53362 0.25013 0.77117 0.0
O113 O 0.75442 0.33751 0.91511 0.0
O114 O 0.75293 0.41419 0.82586 0.0
O115 O 0.52736 0.23178 0.83036 0.0
O116 O 0.54314 0.17599 0.92191 0.0
C117 C 0.49378 0.18686 0.88138 0.0
O118 O 0.73156 0.2729 0.7686 0.0
O119 O 0.75182 0.34205 0.67578 0.0
C120 C 0.75167 0.19823 0.87475 0.0
C121 C 0.75789 0.29099 0.72084 0.0
C122 C 0.14117 0.80541 0.16603 0.0
C123 C 0.18066 0.88894 0.15425 0.0
C124 C 0.1921 0.77382 0.18872 0.0
C125 C 0.28407 0.82436 0.20068 0.0
H126 H 0.07187 0.76533 0.15467 0.0
H127 H 0.16081 0.71105 0.19336 0.0
S128 S 0.41747 0.04325 0.18501 0.0
N129 N 0.31598 0.01851 0.16287 0.0
N130 N 0.41105 0.95903 0.20356 0.0
C131 C 0.32294 0.90585 0.19272 0.0
C132 C 0.27129 0.93806 0.17019 0.0
C133 C 0.28121 0.07154 0.70282 0.0
C134 C 0.24076 0.10703 0.65994 0.0
C135 C 0.36265 0.12029 0.72743 0.0
C136 C 0.40682 0.20616 0.70885 0.0
H137 H 0.2521 0.00667 0.7155 0.0
H138 H 0.39476 0.09203 0.75766 0.0
S139 S 0.32544 0.32784 0.60242 0.0
N140 N 0.24732 0.23219 0.60436 0.0
N141 N 0.40164 0.32348 0.64914 0.0
C142 C 0.36446 0.24123 0.66885 0.0
C143 C 0.28088 0.19164 0.64479 0.0
C144 C 0.24144 0.37782 0.22307 0.0
C145 C 0.19498 0.37424 0.17186 0.0
C146 C 0.27127 0.44016 0.2408 0.0
C147 C 0.25407 0.49954 0.20821 0.0
H148 H 0.26218 0.33731 0.24671 0.0
H149 H 0.31519 0.44638 0.27702 0.0
S150 S 0.1205 0.50614 0.0763 0.0
N151 N 0.12278 0.42714 0.09278 0.0
N152 N 0.17604 0.54302 0.12694 0.0
C153 C 0.19914 0.49061 0.16019 0.0
C154 C 0.17013 0.42807 0.14178 0.0
C155 C 0.9008 0.26359 0.67501 0.0
C156 C 0.84257 0.17854 0.68401 0.0
C157 C 0.87526 0.2989 0.69064 0.0
C158 C 0.79162 0.25009 0.71694 0.0
H159 H 0.96387 0.30428 0.65223 0.0
H160 H 0.91942 0.36552 0.67972 0.0
S161 S 0.61785 0.02373 0.75395 0.0
N162 N 0.70004 0.04552 0.72439 0.0
N163 N 0.65257 0.11233 0.75393 0.0
C164 C 0.73529 0.16431 0.72953 0.0
C165 C 0.76067 0.12839 0.71299 0.0
C166 C 0.79482 0.92282 0.10723 0.0
C167 C 0.85762 0.91115 0.14403 0.0
C168 C 0.71349 0.8916 0.12736 0.0
C169 C 0.68878 0.84509 0.18545 0.0
H170 H 0.8086 0.95708 0.06208 0.0
H171 H 0.66874 0.90329 0.09622 0.0
S172 S 0.82953 0.7954 0.29976 0.0
N173 N 0.89125 0.85138 0.24174 0.0
N174 N 0.73549 0.78811 0.27942 0.0
C175 C 0.75132 0.83304 0.22298 0.0
C176 C 0.83605 0.86699 0.20235 0.0
C177 C 0.95097 0.7479 0.66309 0.0
C178 C 0.89699 0.7752 0.65024 0.0
C179 C 0.91381 0.66244 0.68913 0.0
C180 C 0.82223 0.60144 0.70531 0.0
H181 H 0.0211 0.7923 0.65016 0.0
H182 H 0.95589 0.6437 0.694 0.0
S183 S 0.65502 0.64036 0.68852 0.0
N184 N 0.7487 0.73389 0.66073 0.0
N185 N 0.68067 0.57473 0.71082 0.0
C186 C 0.76951 0.62838 0.69655 0.0
C187 C 0.80647 0.71483 0.66898 0.0
C188 C 0.31373 0.86526 0.36181 0.0
C189 C 0.23754 0.81401 0.39684 0.0
C190 C 0.34081 0.83091 0.34619 0.0
C191 C 0.29319 0.74437 0.36578 0.0
H192 H 0.35516 0.93216 0.34882 0.0
H193 H 0.40291 0.87207 0.32232 0.0
S194 S 0.08477 0.58347 0.45343 0.0
N195 N 0.11104 0.67246 0.44647 0.0
N196 N 0.16263 0.60842 0.41751 0.0
C197 C 0.21401 0.69277 0.39764 0.0
C198 C 0.18584 0.72749 0.41297 0.0
C199 C 0.29167 0.06798 0.97408 0.0
C200 C 0.23366 0.08732 0.93809 0.0
C201 C 0.37207 0.09746 0.95395 0.0
C202 C 0.40075 0.14985 0.89679 0.0
H203 H 0.27478 0.02902 1.01858 0.0
H204 H 0.41309 0.07981 0.98454 0.0
S205 S 0.27245 0.2193 0.78463 0.0
N206 N 0.20808 0.15989 0.84185 0.0
N207 N 0.36241 0.21965 0.8044 0.0
C208 C 0.34275 0.16925 0.85994 0.0
C209 C 0.25879 0.13708 0.88045 0.0
C210 C 0.29864 0.28792 0.43904 0.0
C211 C 0.20461 0.22781 0.43977 0.0
C212 C 0.33788 0.37324 0.41404 0.0
C213 C 0.28521 0.40266 0.38791 0.0
H214 H 0.34263 0.26906 0.45997 0.0
H215 H 0.41005 0.41667 0.41747 0.0
S216 S 0.03669 0.27262 0.37442 0.0
N217 N 0.05998 0.20447 0.409 0.0
N218 N 0.13437 0.36555 0.36203 0.0
C219 C 0.19153 0.3439 0.38587 0.0
C220 C 0.15111 0.25635 0.4117 0.0
C221 C 0.95408 0.19541 0.91082 0.0
C222 C 0.91409 0.11064 0.92668 0.0
C223 C 0.90231 0.22631 0.88762 0.0
C224 C 0.80899 0.17344 0.87978 0.0
H225 H 0.02453 0.23719 0.91943 0.0
H226 H 0.93414 0.2904 0.87992 0.0
S227 S 0.67312 0.94969 0.90753 0.0
N228 N 0.77628 0.97699 0.92586 0.0
N229 N 0.67996 0.03486 0.8855 0.0
C230 C 0.76951 0.0904 0.89182 0.0
C231 C 0.82189 0.05911 0.91428 0.0
C232 C 0.81673 0.81608 0.43779 0.0
C233 C 0.86121 0.90188 0.42038 0.0
C234 C 0.7337 0.76771 0.41476 0.0
C235 C 0.69383 0.80382 0.37226 0.0
H236 H 0.84221 0.78472 0.47274 0.0
H237 H 0.69783 0.70083 0.43267 0.0
S238 S 0.7905 0.02755 0.30489 0.0
N239 N 0.86474 0.02253 0.35349 0.0
N240 N 0.70949 0.93124 0.30864 0.0
C241 C 0.74169 0.89047 0.35039 0.0
C242 C 0.82536 0.93969 0.37492 0.0
C243 C 0.86499 0.61137 0.87826 0.0
C244 C 0.8868 0.59962 0.93551 0.0
C245 C 0.83634 0.55151 0.85829 0.0
C246 C 0.83008 0.47898 0.89468 0.0
H247 H 0.86293 0.66359 0.8499 0.0
H248 H 0.81239 0.55932 0.81545 0.0
S249 S 0.89274 0.42666 0.04697 0.0
N250 N 0.90936 0.51595 1.0272 0.0
N251 N 0.85923 0.40446 0.98962 0.0
C252 C 0.86007 0.47087 0.95101 0.0
C253 C 0.88751 0.53104 0.97145 0.0
loop_
_geom_bond_atom_site_label_1
_geom_bond_atom_site_label_2
_geom_bond_distance
_geom_bond_site_symmetry_2
_ccdc_geom_bond_type
Ho0 C3 2.811 . S
Ho0 O20 2.322 . S
Ho0 O22 2.378 . S
Ho0 O23 2.524 . S
Ho0 O24 2.381 1_445 S
Ho0 O25 2.669 1_445 S
Ho0 O27 2.346 1_545 S
Ho0 O31 2.305 1_554 S
Ho1 C12 2.811 . S
Ho1 O21 2.346 1_565 S
Ho1 O25 2.305 1_556 S
Ho1 O26 2.322 1_656 S
Ho1 O28 2.378 . S
Ho1 O29 2.524 . S
Ho1 O30 2.381 1_665 S
Ho1 O31 2.669 1_665 S
C2 O20 1.259 1_656 S
C2 O21 1.268 . S
C3 Ho0 2.811 . S
C3 C4 1.488 . S
C3 O22 1.215 . S
C3 O23 1.289 . S
C4 C3 1.488 . S
C4 C5 1.348 . S
C4 C9 1.413 . S
C5 C4 1.348 . S
C5 C6 1.442 . S
C5 H32 0.930 . S
C6 C5 1.442 . S
C6 C7 1.381 . S
C6 H33 0.931 . S
C7 C6 1.381 . S
C7 C8 1.321 . S
C8 C7 1.321 . S
C8 C9 1.403 . S
C8 H34 0.934 . S
C9 C4 1.413 . S
C9 C8 1.403 . S
C9 H35 0.930 . S
C10 O24 1.275 . S
C10 O25 1.256 . S
C11 O26 1.259 . S
C11 O27 1.268 . S
C12 Ho1 2.811 . S
C12 C13 1.488 . S
C12 O28 1.215 . S
C12 O29 1.289 . S
C13 C12 1.488 . S
C13 C14 1.348 . S
C13 C18 1.413 . S
C14 C13 1.348 . S
C14 C15 1.442 . S
C14 H36 0.930 1_556 S
C15 C14 1.442 . S
C15 C16 1.381 . S
C15 H37 0.931 1_556 S
C16 C15 1.381 . S
C16 C17 1.321 . S
C17 C16 1.321 . S
C17 C18 1.403 . S
C17 H38 0.934 . S
C18 C13 1.413 . S
C18 C17 1.403 . S
C18 H39 0.930 . S
C19 O30 1.275 . S
C19 O31 1.256 . S
O20 Ho0 2.322 . S
O20 C2 1.259 1_454 S
O21 Ho1 2.346 1_545 S
O21 C2 1.268 . S
O22 Ho0 2.378 . S
O22 C3 1.215 . S
O23 Ho0 2.524 . S
O23 C3 1.289 . S
O24 Ho0 2.381 1_665 S
O24 C10 1.275 . S
O25 Ho0 2.669 1_665 S
O25 Ho1 2.305 1_554 S
O25 C10 1.256 . S
O26 Ho1 2.322 1_454 S
O26 C11 1.259 . S
O27 Ho0 2.346 1_565 S
O27 C11 1.268 . S
O28 Ho1 2.378 . S
O28 C12 1.215 . S
O29 Ho1 2.524 . S
O29 C12 1.289 . S
O30 Ho1 2.381 1_445 S
O30 C19 1.275 . S
O31 Ho0 2.305 1_556 S
O31 Ho1 2.669 1_445 S
O31 C19 1.256 . S
H32 C5 0.930 . S
H33 C6 0.931 . S
H34 C8 0.934 . S
H35 C9 0.930 . S
H36 C14 0.930 1_554 S
H37 C15 0.931 1_554 S
H38 C17 0.934 . S
H39 C18 0.930 . S
Ho40 C43 2.811 1_455 S
Ho40 O60 2.322 1_445 S
Ho40 O62 2.378 1_455 S
Ho40 O63 2.524 1_455 S
Ho40 O64 2.381 1_445 S
Ho40 O65 2.669 1_545 S
Ho40 O67 2.346 . S
Ho40 O71 2.305 . S
Ho41 C52 2.811 . S
Ho41 O61 2.346 1_455 S
Ho41 O65 2.305 . S
Ho41 O66 2.322 1_565 S
Ho41 O68 2.378 1_565 S
Ho41 O69 2.524 . S
Ho41 O70 2.381 1_565 S
Ho41 O71 2.669 1_565 S
C42 O60 1.259 . S
C42 O61 1.268 . S
C43 Ho40 2.811 1_655 S
C43 C44 1.488 . S
C43 O62 1.215 . S
C43 O63 1.289 . S
C44 C43 1.488 . S
C44 C45 1.348 . S
C44 C49 1.413 . S
C45 C44 1.348 . S
C45 C46 1.442 . S
C45 H72 0.930 . S
C46 C45 1.442 . S
C46 C47 1.381 . S
C46 H73 0.931 . S
C47 C46 1.381 . S
C47 C48 1.321 . S
C48 C47 1.321 . S
C48 C49 1.403 . S
C48 H74 0.934 . S
C49 C44 1.413 . S
C49 C48 1.403 . S
C49 H75 0.930 1_545 S
C50 O64 1.275 . S
C50 O65 1.256 1_655 S
C51 O66 1.259 . S
C51 O67 1.268 . S
C52 Ho41 2.811 . S
C52 C53 1.488 . S
C52 O68 1.215 1_565 S
C52 O69 1.289 . S
C53 C52 1.488 . S
C53 C54 1.348 . S
C53 C58 1.413 1_565 S
C54 C53 1.348 . S
C54 C55 1.442 . S
C54 H76 0.930 . S
C55 C54 1.442 . S
C55 C56 1.381 . S
C55 H77 0.931 . S
C56 C55 1.381 . S
C56 C57 1.321 1_565 S
C57 C56 1.321 1_545 S
C57 C58 1.403 . S
C57 H78 0.934 . S
C58 C53 1.413 1_545 S
C58 C57 1.403 . S
C58 H79 0.930 . S
C59 O70 1.275 . S
C59 O71 1.256 . S
O60 Ho40 2.322 1_665 S
O60 C42 1.259 . S
O61 Ho41 2.346 1_655 S
O61 C42 1.268 . S
O62 Ho40 2.378 1_655 S
O62 C43 1.215 . S
O63 Ho40 2.524 1_655 S
O63 C43 1.289 . S
O64 Ho40 2.381 1_665 S
O64 C50 1.275 . S
O65 Ho40 2.669 1_565 S
O65 Ho41 2.305 . S
O65 C50 1.256 1_455 S
O66 Ho41 2.322 1_545 S
O66 C51 1.259 . S
O67 Ho40 2.346 . S
O67 C51 1.268 . S
O68 Ho41 2.378 1_545 S
O68 C52 1.215 1_545 S
O69 Ho41 2.524 . S
O69 C52 1.289 . S
O70 Ho41 2.381 1_545 S
O70 C59 1.275 . S
O71 Ho40 2.305 . S
O71 Ho41 2.669 1_545 S
O71 C59 1.256 . S
H72 C45 0.930 . S
H73 C46 0.931 . S
H74 C48 0.934 . S
H75 C49 0.930 1_565 S
H76 C54 0.930 . S
H77 C55 0.931 . S
H78 C57 0.934 . S
H79 C58 0.930 . S
Zn80 O86 1.920 . S
Zn80 O92 1.898 . S
Zn80 O95 1.905 . S
Zn81 O89 1.905 . S
Zn81 O90 1.898 . S
Zn81 O98 1.920 . S
Zn82 O85 2.080 . S
Zn82 O88 2.114 . S
Zn82 O91 2.120 . S
Zn82 O93 2.120 . S
Zn82 O94 2.114 . S
Zn82 O97 2.080 . S
C83 O88 1.166 . S
C83 O89 1.182 . S
C84 O90 1.167 . S
C84 O91 1.299 . S
O85 Zn82 2.080 . S
O85 C99 1.305 . S
O86 Zn80 1.920 . S
O86 C99 1.234 . S
C87 O92 1.167 . S
C87 O93 1.299 . S
O88 Zn82 2.114 . S
O88 C83 1.166 . S
O89 Zn81 1.905 . S
O89 C83 1.182 . S
O90 Zn81 1.898 . S
O90 C84 1.167 . S
O91 Zn82 2.120 . S
O91 C84 1.299 . S
O92 Zn80 1.898 . S
O92 C87 1.167 . S
O93 Zn82 2.120 . S
O93 C87 1.299 . S
O94 Zn82 2.114 . S
O94 C96 1.166 . S
O95 Zn80 1.905 . S
O95 C96 1.182 . S
C96 O94 1.166 . S
C96 O95 1.182 . S
O97 Zn82 2.080 . S
O97 C100 1.305 . S
O98 Zn81 1.920 . S
O98 C100 1.234 . S
C99 O85 1.305 . S
C99 O86 1.234 . S
C100 O97 1.305 . S
C100 O98 1.234 . S
Zn101 O107 1.920 . S
Zn101 O113 1.898 . S
Zn101 O116 1.905 . S
Zn102 O110 1.905 . S
Zn102 O111 1.898 . S
Zn102 O119 1.920 . S
Zn103 O106 2.080 . S
Zn103 O109 2.114 . S
Zn103 O112 2.120 . S
Zn103 O114 2.120 . S
Zn103 O115 2.114 . S
Zn103 O118 2.080 . S
C104 O109 1.166 . S
C104 O110 1.182 . S
C105 O111 1.167 . S
C105 O112 1.299 . S
O106 Zn103 2.080 . S
O106 C120 1.305 . S
O107 Zn101 1.920 . S
O107 C120 1.234 . S
C108 O113 1.167 . S
C108 O114 1.299 . S
O109 Zn103 2.114 . S
O109 C104 1.166 . S
O110 Zn102 1.905 . S
O110 C104 1.182 . S
O111 Zn102 1.898 . S
O111 C105 1.167 . S
O112 Zn103 2.120 . S
O112 C105 1.299 . S
O113 Zn101 1.898 . S
O113 C108 1.167 . S
O114 Zn103 2.120 . S
O114 C108 1.299 . S
O115 Zn103 2.114 . S
O115 C117 1.166 . S
O116 Zn101 1.905 . S
O116 C117 1.182 . S
C117 O115 1.166 . S
C117 O116 1.182 . S
O118 Zn103 2.080 . S
O118 C121 1.305 . S
O119 Zn102 1.920 . S
O119 C121 1.234 . S
C120 O106 1.305 . S
C120 O107 1.234 . S
C121 O118 1.305 . S
C121 O119 1.234 . S
C122 C123 1.369 . S
C122 C124 1.419 . S
C122 H126 0.930 . S
C123 C122 1.369 . S
C123 C132 1.429 . S
C124 C122 1.419 . S
C124 C125 1.363 . S
C124 H127 0.929 . S
C125 C124 1.363 . S
C125 C131 1.428 . S
H126 C122 0.930 . S
H127 C124 0.929 . S
S128 N129 1.613 1_545 S
S128 N130 1.610 1_545 S
N129 S128 1.613 1_565 S
N129 C132 1.350 . S
N130 S128 1.610 1_565 S
N130 C131 1.351 . S
C131 C125 1.428 . S
C131 N130 1.351 . S
C131 C132 1.434 . S
C132 C123 1.429 . S
C132 N129 1.350 . S
C132 C131 1.434 . S
C133 C134 1.369 . S
C133 C135 1.419 . S
C133 H137 0.930 . S
C134 C133 1.369 . S
C134 C143 1.429 . S
C135 C133 1.419 . S
C135 C136 1.363 . S
C135 H138 0.929 . S
C136 C135 1.363 . S
C136 C142 1.428 . S
H137 C133 0.930 . S
H138 C135 0.929 . S
S139 N140 1.613 . S
S139 N141 1.610 . S
N140 S139 1.613 . S
N140 C143 1.350 . S
N141 S139 1.610 . S
N141 C142 1.351 . S
C142 C136 1.428 . S
C142 N141 1.351 . S
C142 C143 1.434 . S
C143 C134 1.429 . S
C143 N140 1.350 . S
C143 C142 1.434 . S
C144 C145 1.369 . S
C144 C146 1.419 . S
C144 H148 0.930 . S
C145 C144 1.369 . S
C145 C154 1.429 . S
C146 C144 1.419 . S
C146 C147 1.363 . S
C146 H149 0.929 . S
C147 C146 1.363 . S
C147 C153 1.428 . S
H148 C144 0.930 . S
H149 C146 0.929 . S
S150 N151 1.613 . S
S150 N152 1.610 . S
N151 S150 1.613 . S
N151 C154 1.350 . S
N152 S150 1.610 . S
N152 C153 1.351 . S
C153 C147 1.428 . S
C153 N152 1.351 . S
C153 C154 1.434 . S
C154 C145 1.429 . S
C154 N151 1.350 . S
C154 C153 1.434 . S
C155 C156 1.369 . S
C155 C157 1.419 . S
C155 H159 0.930 . S
C156 C155 1.369 . S
C156 C165 1.429 . S
C157 C155 1.419 . S
C157 C158 1.363 . S
C157 H160 0.929 . S
C158 C157 1.363 . S
C158 C164 1.428 . S
H159 C155 0.930 . S
H160 C157 0.929 . S
S161 N162 1.613 . S
S161 N163 1.610 . S
N162 S161 1.613 . S
N162 C165 1.350 . S
N163 S161 1.610 . S
N163 C164 1.351 . S
C164 C158 1.428 . S
C164 N163 1.351 . S
C164 C165 1.434 . S
C165 C156 1.429 . S
C165 N162 1.350 . S
C165 C164 1.434 . S
C166 C167 1.369 . S
C166 C168 1.419 . S
C166 H170 0.930 . S
C167 C166 1.369 . S
C167 C176 1.429 . S
C168 C166 1.419 . S
C168 C169 1.363 . S
C168 H171 0.929 . S
C169 C168 1.363 . S
C169 C175 1.428 . S
H170 C166 0.930 . S
H171 C168 0.929 . S
S172 N173 1.613 . S
S172 N174 1.610 . S
N173 S172 1.613 . S
N173 C176 1.350 1_545 S
N174 S172 1.610 . S
N174 C175 1.351 1_545 S
C175 C169 1.428 . S
C175 N174 1.351 1_565 S
C175 C176 1.434 . S
C176 C167 1.429 . S
C176 N173 1.350 1_565 S
C176 C175 1.434 . S
C177 C178 1.369 . S
C177 C179 1.419 . S
C177 H181 0.930 . S
C178 C177 1.369 . S
C178 C187 1.429 . S
C179 C177 1.419 . S
C179 C180 1.363 . S
C179 H182 0.929 . S
C180 C179 1.363 . S
C180 C186 1.428 . S
H181 C177 0.930 . S
H182 C179 0.929 . S
S183 N184 1.613 . S
S183 N185 1.610 . S
N184 S183 1.613 . S
N184 C187 1.350 . S
N185 S183 1.610 . S
N185 C186 1.351 . S
C186 C180 1.428 . S
C186 N185 1.351 . S
C186 C187 1.434 . S
C187 C178 1.429 . S
C187 N184 1.350 . S
C187 C186 1.434 . S
C188 C189 1.369 . S
C188 C190 1.419 . S
C188 H192 0.930 1_565 S
C189 C188 1.369 . S
C189 C198 1.429 . S
C190 C188 1.419 . S
C190 C191 1.363 . S
C190 H193 0.929 . S
C191 C190 1.363 . S
C191 C197 1.428 . S
H192 C188 0.930 1_545 S
H193 C190 0.929 . S
S194 N195 1.613 . S
S194 N196 1.610 . S
N195 S194 1.613 . S
N195 C198 1.350 . S
N196 S194 1.610 . S
N196 C197 1.351 . S
C197 C191 1.428 . S
C197 N196 1.351 . S
C197 C198 1.434 . S
C198 C189 1.429 . S
C198 N195 1.350 . S
C198 C197 1.434 . S
C199 C200 1.369 . S
C199 C201 1.419 . S
C199 H203 0.930 . S
C200 C199 1.369 . S
C200 C209 1.429 . S
C201 C199 1.419 . S
C201 C202 1.363 . S
C201 H204 0.929 . S
C202 C201 1.363 . S
C202 C208 1.428 . S
H203 C199 0.930 . S
H204 C201 0.929 . S
S205 N206 1.613 . S
S205 N207 1.610 . S
N206 S205 1.613 . S
N206 C209 1.350 . S
N207 S205 1.610 . S
N207 C208 1.351 . S
C208 C202 1.428 . S
C208 N207 1.351 . S
C208 C209 1.434 . S
C209 C200 1.429 . S
C209 N206 1.350 . S
C209 C208 1.434 . S
C210 C211 1.369 . S
C210 C212 1.419 . S
C210 H214 0.930 . S
C211 C210 1.369 . S
C211 C220 1.429 . S
C212 C210 1.419 . S
C212 C213 1.363 . S
C212 H215 0.929 . S
C213 C212 1.363 . S
C213 C219 1.428 . S
H214 C210 0.930 . S
H215 C212 0.929 . S
S216 N217 1.613 . S
S216 N218 1.610 . S
N217 S216 1.613 . S
N217 C220 1.350 . S
N218 S216 1.610 . S
N218 C219 1.351 . S
C219 C213 1.428 . S
C219 N218 1.351 . S
C219 C220 1.434 . S
C220 C211 1.429 . S
C220 N217 1.350 . S
C220 C219 1.434 . S
C221 C222 1.369 . S
C221 C223 1.419 . S
C221 H225 0.930 . S
C222 C221 1.369 . S
C222 C231 1.429 . S
C223 C221 1.419 . S
C223 C224 1.363 . S
C223 H226 0.929 . S
C224 C223 1.363 . S
C224 C230 1.428 . S
H225 C221 0.930 . S
H226 C223 0.929 . S
S227 N228 1.613 1_554 S
S227 N229 1.610 1_554 S
N228 S227 1.613 1_556 S
N228 C231 1.350 . S
N229 S227 1.610 1_556 S
N229 C230 1.351 . S
C230 C224 1.428 . S
C230 N229 1.351 . S
C230 C231 1.434 . S
C231 C222 1.429 . S
C231 N228 1.350 . S
C231 C230 1.434 . S
C232 C233 1.369 . S
C232 C234 1.419 . S
C232 H236 0.930 . S
C233 C232 1.369 . S
C233 C242 1.429 . S
C234 C232 1.419 . S
C234 C235 1.363 . S
C234 H237 0.929 . S
C235 C234 1.363 . S
C235 C241 1.428 . S
H236 C232 0.930 . S
H237 C234 0.929 . S
S238 N239 1.613 . S
S238 N240 1.610 . S
N239 S238 1.613 . S
N239 C242 1.350 . S
N240 S238 1.610 . S
N240 C241 1.351 . S
C241 C235 1.428 . S
C241 N240 1.351 . S
C241 C242 1.434 . S
C242 C233 1.429 . S
C242 N239 1.350 . S
C242 C241 1.434 . S
C243 C244 1.369 . S
C243 C245 1.419 . S
C243 H247 0.930 . S
C244 C243 1.369 . S
C244 C253 1.429 . S
C245 C243 1.419 . S
C245 C246 1.363 . S
C245 H248 0.929 . S
C246 C245 1.363 . S
C246 C252 1.428 . S
H247 C243 0.930 . S
H248 C245 0.929 . S
S249 N250 1.613 . S
S249 N251 1.610 . S
N250 S249 1.613 . S
N250 C253 1.350 . S
N251 S249 1.610 . S
N251 C252 1.351 . S
C252 C246 1.428 . S
C252 N251 1.351 . S
C252 C253 1.434 . S
C253 C244 1.429 . S
C253 N250 1.350 . S
C253 C252 1.434 . S
C123 C11 1.908 . S
C125 C99 1.908 . S
C134 C51 1.298 . S
C136 C105 1.227 . S
C145 C7 1.103 . S
C147 C96 0.956 . S
C156 C47 1.638 . S
C158 C121 1.469 . S
C167 C10 2.161 . S
C169 C87 2.060 . S
C180 C104 2.320 . S
C178 C50 2.367 . S
C189 C56 1.409 . S
C191 C100 1.318 . S
C202 C117 1.745 . S
C200 C19 1.788 . S
C213 C84 2.110 . S
C211 C59 2.182 . S
C224 C120 2.186 . S
C222 C2 2.173 . S
C235 C83 1.554 . S
C233 C42 1.634 . S
C246 C108 0.930 . S
C244 C16 1.070 . S
