# Generated by pormake.
# Topology hwx, (6,3)-cn, num edge types: 1
# Building blocks:
#     Node 0, Type 0, BuildingBlock: OJICUG_clean_sbu_0, # of connection points: 6
#     Node 1, Type 0, BuildingBlock: OJICUG_clean_sbu_0, # of connection points: 6
#     Node 2, Type 0, BuildingBlock: OJICUG_clean_sbu_0, # of connection points: 6
#     Node 3, Type 0, BuildingBlock: OJICUG_clean_sbu_0, # of connection points: 6
#     Node 4, Type 1, BuildingBlock: WUSLED_clean_sbu_0, # of connection points: 3
#     Node 5, Type 1, BuildingBlock: WUSLED_clean_sbu_0, # of connection points: 3
#     Node 6, Type 1, BuildingBlock: WUSLED_clean_sbu_0, # of connection points: 3
#     Node 7, Type 1, BuildingBlock: WUSLED_clean_sbu_0, # of connection points: 3
#     Node 8, Type 1, BuildingBlock: WUSLED_clean_sbu_0, # of connection points: 3
#     Node 9, Type 1, BuildingBlock: WUSLED_clean_sbu_0, # of connection points: 3
#     Node 10, Type 1, BuildingBlock: WUSLED_clean_sbu_0, # of connection points: 3
#     Node 11, Type 1, BuildingBlock: WUSLED_clean_sbu_0, # of connection points: 3
#     Edge 12, Type (0, 1), BuildingBlock: ZUJKAS_clean_linker_0, # of connection points: 2
#     Edge 13, Type (0, 1), BuildingBlock: ZUJKAS_clean_linker_0, # of connection points: 2
#     Edge 14, Type (0, 1), BuildingBlock: ZUJKAS_clean_linker_0, # of connection points: 2
#     Edge 15, Type (0, 1), BuildingBlock: ZUJKAS_clean_linker_0, # of connection points: 2
#     Edge 16, Type (0, 1), BuildingBlock: ZUJKAS_clean_linker_0, # of connection points: 2
#     Edge 17, Type (0, 1), BuildingBlock: ZUJKAS_clean_linker_0, # of connection points: 2
#     Edge 18, Type (0, 1), BuildingBlock: ZUJKAS_clean_linker_0, # of connection points: 2
#     Edge 19, Type (0, 1), BuildingBlock: ZUJKAS_clean_linker_0, # of connection points: 2
#     Edge 20, Type (0, 1), BuildingBlock: ZUJKAS_clean_linker_0, # of connection points: 2
#     Edge 21, Type (0, 1), BuildingBlock: ZUJKAS_clean_linker_0, # of connection points: 2
#     Edge 22, Type (0, 1), BuildingBlock: ZUJKAS_clean_linker_0, # of connection points: 2
#     Edge 23, Type (0, 1), BuildingBlock: ZUJKAS_clean_linker_0, # of connection points: 2
#     Edge 24, Type (0, 1), BuildingBlock: ZUJKAS_clean_linker_0, # of connection points: 2
#     Edge 25, Type (0, 1), BuildingBlock: ZUJKAS_clean_linker_0, # of connection points: 2
#     Edge 26, Type (0, 1), BuildingBlock: ZUJKAS_clean_linker_0, # of connection points: 2
#     Edge 27, Type (0, 1), BuildingBlock: ZUJKAS_clean_linker_0, # of connection points: 2
#     Edge 28, Type (0, 1), BuildingBlock: ZUJKAS_clean_linker_0, # of connection points: 2
#     Edge 29, Type (0, 1), BuildingBlock: ZUJKAS_clean_linker_0, # of connection points: 2
#     Edge 30, Type (0, 1), BuildingBlock: ZUJKAS_clean_linker_0, # of connection points: 2
#     Edge 31, Type (0, 1), BuildingBlock: ZUJKAS_clean_linker_0, # of connection points: 2
#     Edge 32, Type (0, 1), BuildingBlock: ZUJKAS_clean_linker_0, # of connection points: 2
#     Edge 33, Type (0, 1), BuildingBlock: ZUJKAS_clean_linker_0, # of connection points: 2
#     Edge 34, Type (0, 1), BuildingBlock: ZUJKAS_clean_linker_0, # of connection points: 2
#     Edge 35, Type (0, 1), BuildingBlock: ZUJKAS_clean_linker_0, # of connection points: 2
# Relax obj value: 0.072
# Max RMSD: 0.099
# Mean RMSD: 0.090
data_MOF--net-hwx--node1-OJICUG_clean_sbu_0--node2-WUSLED_clean_sbu_0--edge1-ZUJKAS_clean_linker_0
_symmetry_space_group_name_H-M    P1
_symmetry_Int_Tables_number       1
_symmetry_cell_setting            triclinic
loop_
_symmetry_equiv_pos_as_xyz
'x, y, z'
_cell_length_a     79.715214
_cell_length_b     79.740078
_cell_length_c     35.821906
_cell_angle_alpha  90.381469
_cell_angle_beta   90.399195
_cell_angle_gamma 89.985324
loop_
_atom_site_label
_atom_site_type_symbol
_atom_site_fract_x
_atom_site_fract_y
_atom_site_fract_z
_atom_type_partial_charge
Sc0 Sc 0.22972 0.23047 0.05548 0.0
Sc1 Sc 0.20216 0.20437 0.00379 0.0
Sc2 Sc 0.22949 0.23186 0.95717 0.0
O3 O 0.22045 0.22222 0.0055 0.0
C4 C 0.22775 0.26458 0.00914 0.0
C5 C 0.19042 0.22713 0.07253 0.0
C6 C 0.19047 0.22869 0.93775 0.0
C7 C 0.22541 0.19132 0.07093 0.0
C8 C 0.26301 0.2287 0.0061 0.0
C9 C 0.2255 0.19293 0.93617 0.0
O10 O 0.22811 0.25653 0.0397 0.0
O11 O 0.18741 0.21704 0.04563 0.0
O12 O 0.20483 0.23532 0.93366 0.0
O13 O 0.23238 0.20543 0.07708 0.0
O14 O 0.25528 0.22956 0.97501 0.0
O15 O 0.21496 0.18979 0.96171 0.0
O16 O 0.25547 0.22892 0.03729 0.0
O17 O 0.21425 0.18917 0.04579 0.0
O18 O 0.23165 0.20747 0.93123 0.0
O19 O 0.20503 0.23284 0.07956 0.0
O20 O 0.22822 0.25734 0.97742 0.0
O21 O 0.18767 0.21728 0.96157 0.0
Sc22 Sc 0.27373 0.73077 0.45617 0.0
Sc23 Sc 0.30107 0.70376 0.50508 0.0
Sc24 Sc 0.27413 0.73097 0.55461 0.0
O25 O 0.28298 0.72183 0.50529 0.0
C26 C 0.27616 0.76427 0.50543 0.0
C27 C 0.31288 0.72708 0.43799 0.0
C28 C 0.31325 0.72719 0.57292 0.0
C29 C 0.27742 0.69173 0.43752 0.0
C30 C 0.24049 0.72882 0.50562 0.0
C31 C 0.2778 0.69179 0.5722 0.0
O32 O 0.27554 0.75656 0.47425 0.0
O33 O 0.31574 0.7165 0.46367 0.0
O34 O 0.2989 0.7337 0.57832 0.0
O35 O 0.27081 0.70605 0.43249 0.0
O36 O 0.24826 0.72933 0.53674 0.0
O37 O 0.2884 0.68901 0.54649 0.0
O38 O 0.24802 0.7292 0.47443 0.0
O39 O 0.28854 0.68903 0.46241 0.0
O40 O 0.27158 0.70625 0.57836 0.0
O41 O 0.2984 0.73328 0.432 0.0
O42 O 0.2758 0.75671 0.53659 0.0
O43 O 0.3159 0.71624 0.54764 0.0
Sc44 Sc 0.77325 0.7745 0.95291 0.0
Sc45 Sc 0.79989 0.80163 0.00448 0.0
Sc46 Sc 0.77229 0.77447 0.05125 0.0
O47 O 0.78182 0.78354 0.00286 0.0
C48 C 0.73933 0.77634 0.99996 0.0
C49 C 0.77693 0.81374 0.93616 0.0
C50 C 0.77575 0.81346 0.07073 0.0
C51 C 0.81247 0.77848 0.93682 0.0
C52 C 0.77515 0.74107 0.00181 0.0
C53 C 0.81127 0.77826 0.07216 0.0
O54 O 0.74726 0.77603 0.96927 0.0
O55 O 0.78737 0.8165 0.96254 0.0
O56 O 0.76908 0.79913 0.07497 0.0
O57 O 0.79817 0.77194 0.93047 0.0
O58 O 0.77445 0.74873 0.03302 0.0
O59 O 0.81443 0.78882 0.04667 0.0
O60 O 0.77482 0.74868 0.97069 0.0
O61 O 0.81495 0.78929 0.96256 0.0
O62 O 0.79672 0.77212 0.07698 0.0
O63 O 0.77081 0.79928 0.92941 0.0
O64 O 0.74669 0.77586 0.03154 0.0
O65 O 0.78708 0.81623 0.04667 0.0
Sc66 Sc 0.7296 0.27336 0.55374 0.0
Sc67 Sc 0.70319 0.30122 0.50462 0.0
Sc68 Sc 0.73066 0.27442 0.45545 0.0
O69 O 0.72114 0.283 0.5046 0.0
C70 C 0.76356 0.27585 0.50703 0.0
C71 C 0.72608 0.31241 0.57397 0.0
C72 C 0.72722 0.31362 0.43902 0.0
C73 C 0.69046 0.27733 0.57018 0.0
C74 C 0.72789 0.24048 0.50219 0.0
C75 C 0.69165 0.27848 0.43529 0.0
O76 O 0.7556 0.27524 0.53765 0.0
O77 O 0.71582 0.31568 0.54761 0.0
O78 O 0.73391 0.29934 0.43353 0.0
O79 O 0.70463 0.27039 0.57562 0.0
O80 O 0.72852 0.24843 0.47155 0.0
O81 O 0.68856 0.28879 0.46164 0.0
O82 O 0.72821 0.24782 0.53382 0.0
O83 O 0.68815 0.28865 0.54582 0.0
O84 O 0.70619 0.27239 0.42975 0.0
O85 O 0.73193 0.29778 0.57948 0.0
O86 O 0.75623 0.27561 0.47537 0.0
O87 O 0.71596 0.3161 0.46345 0.0
C88 C 0.24167 0.53594 0.89174 0.0
C89 C 0.24388 0.55285 0.90164 0.0
C90 C 0.2453 0.5605 0.83601 0.0
C91 C 0.24567 0.56502 0.87405 0.0
C92 C 0.24309 0.54349 0.82628 0.0
C93 C 0.24127 0.53132 0.85395 0.0
U94 U 0.24056 0.52519 0.99397 0.0
O95 O 0.22424 0.50819 0.02564 0.0
O96 O 0.25154 0.5044 0.02574 0.0
C97 C 0.23683 0.49853 0.03567 0.0
C98 C 0.23985 0.52319 0.92086 0.0
C99 C 0.23433 0.48038 0.03036 0.0
C100 C 0.23882 0.45449 0.99559 0.0
C101 C 0.24041 0.47193 0.99872 0.0
C102 C 0.22457 0.45386 0.05507 0.0
C103 C 0.23106 0.44521 0.02399 0.0
C104 C 0.22623 0.47126 0.05823 0.0
C105 C 0.24705 0.5617 0.06359 0.0
C106 C 0.23579 0.56781 0.1252 0.0
C107 C 0.26291 0.57884 0.10774 0.0
C108 C 0.26138 0.57111 0.07278 0.0
C109 C 0.25004 0.57744 0.13418 0.0
C110 C 0.23432 0.55995 0.09027 0.0
C111 C 0.24544 0.55459 0.02554 0.0
O112 O 0.25345 0.52039 0.94084 0.0
O113 O 0.22627 0.52462 0.94123 0.0
O114 O 0.23054 0.54904 0.01536 0.0
O115 O 0.25777 0.5448 0.01467 0.0
H116 H 0.24428 0.55662 0.93075 0.0
H117 H 0.24761 0.57793 0.88256 0.0
H118 H 0.24258 0.53962 0.79726 0.0
H119 H 0.23955 0.51832 0.84586 0.0
H120 H 0.24409 0.44825 0.97143 0.0
H121 H 0.24667 0.47877 0.9768 0.0
H122 H 0.21823 0.44718 0.0771 0.0
H123 H 0.22137 0.47758 0.08275 0.0
H124 H 0.22574 0.56639 0.14514 0.0
H125 H 0.27394 0.58636 0.11362 0.0
H126 H 0.27131 0.57273 0.05261 0.0
H127 H 0.22313 0.55272 0.08405 0.0
C128 C 0.96866 0.74445 0.61556 0.0
C129 C 0.95171 0.74635 0.60576 0.0
C130 C 0.94408 0.74775 0.67147 0.0
C131 C 0.93953 0.74799 0.63344 0.0
C132 C 0.96112 0.74576 0.68109 0.0
C133 C 0.97331 0.74412 0.65333 0.0
U134 U 0.97968 0.74305 0.51323 0.0
O135 O 1.00008 0.75512 0.48211 0.0
O136 O 0.9977 0.72768 0.48185 0.0
C137 C 0.00677 0.74071 0.47223 0.0
C138 C 0.98149 0.74306 0.5864 0.0
C139 C 0.02499 0.7392 0.47829 0.0
C140 C 0.04905 0.73084 0.51592 0.0
C141 C 0.03166 0.73249 0.51134 0.0
C142 C 0.05324 0.74287 0.45477 0.0
C143 C 0.06007 0.73594 0.48757 0.0
C144 C 0.03589 0.74444 0.45019 0.0
C145 C 0.94275 0.74632 0.44345 0.0
C146 C 0.94215 0.7572 0.38015 0.0
C147 C 0.91968 0.7393 0.40153 0.0
C148 C 0.9276 0.73796 0.4363 0.0
C149 C 0.92674 0.74912 0.37321 0.0
C150 C 0.95013 0.75576 0.41494 0.0
C151 C 0.95006 0.74561 0.48134 0.0
O152 O 0.98087 0.72924 0.5662 0.0
O153 O 0.98351 0.75661 0.56626 0.0
O154 O 0.95901 0.75863 0.49218 0.0
O155 O 0.95666 0.73119 0.49117 0.0
H156 H 0.94792 0.7467 0.57666 0.0
H157 H 0.92658 0.74975 0.625 0.0
H158 H 0.96504 0.74533 0.71008 0.0
H159 H 0.98635 0.74263 0.66135 0.0
H160 H 0.05384 0.72532 0.54139 0.0
H161 H 0.02343 0.72841 0.53344 0.0
H162 H 0.06131 0.74723 0.43267 0.0
H163 H 0.03097 0.74974 0.42458 0.0
H164 H 0.94798 0.76471 0.35876 0.0
H165 H 0.90773 0.73309 0.39729 0.0
H166 H 0.92168 0.73066 0.45795 0.0
H167 H 0.9619 0.76225 0.41971 0.0
C168 C 0.762 0.46903 0.11758 0.0
C169 C 0.75599 0.45304 0.10785 0.0
C170 C 0.75799 0.44426 0.17273 0.0
C171 C 0.75395 0.44079 0.13518 0.0
C172 C 0.76418 0.46027 0.18227 0.0
C173 C 0.76613 0.47256 0.1549 0.0
U174 U 0.7644 0.48034 0.01563 0.0
O175 O 0.75339 0.50113 0.98381 0.0
O176 O 0.78073 0.49786 0.98555 0.0
C177 C 0.7681 0.50733 0.97491 0.0
C178 C 0.7641 0.48191 0.08879 0.0
C179 C 0.77019 0.52545 0.98124 0.0
C180 C 0.76875 0.55015 0.02124 0.0
C181 C 0.76718 0.53278 0.01628 0.0
C182 C 0.77661 0.55294 0.95636 0.0
C183 C 0.77343 0.56045 0.99126 0.0
C184 C 0.77499 0.53562 0.95144 0.0
C185 C 0.76002 0.44375 0.94522 0.0
C186 C 0.74875 0.44321 0.88192 0.0
C187 C 0.76702 0.42087 0.90299 0.0
C188 C 0.7685 0.4287 0.93785 0.0
C189 C 0.75693 0.42789 0.87479 0.0
C190 C 0.75032 0.45111 0.91679 0.0
C191 C 0.76083 0.45092 0.98324 0.0
O192 O 0.77799 0.48076 0.06938 0.0
O193 O 0.75076 0.48469 0.06793 0.0
O194 O 0.74811 0.46034 0.99357 0.0
O195 O 0.77546 0.45691 0.99394 0.0
H196 H 0.75289 0.45003 0.07908 0.0
H197 H 0.7494 0.42852 0.12682 0.0
H198 H 0.76729 0.46337 0.21098 0.0
H199 H 0.77083 0.48483 0.16286 0.0
H200 H 0.76639 0.5555 0.04856 0.0
H201 H 0.76352 0.52508 0.03967 0.0
H202 H 0.78 0.5605 0.93256 0.0
H203 H 0.77732 0.53016 0.92417 0.0
H204 H 0.74103 0.44901 0.86061 0.0
H205 H 0.77332 0.40899 0.89859 0.0
H206 H 0.77599 0.42279 0.95943 0.0
H207 H 0.74373 0.46279 0.92168 0.0
C208 C 0.03484 0.26389 0.39438 0.0
C209 C 0.05192 0.26449 0.40405 0.0
C210 C 0.05961 0.25939 0.33926 0.0
C211 C 0.06417 0.2623 0.37677 0.0
C212 C 0.04244 0.25891 0.3297 0.0
C213 C 0.03016 0.26113 0.35708 0.0
U214 U 0.02439 0.26706 0.49642 0.0
O215 O 0.00669 0.28318 0.52711 0.0
O216 O 0.0044 0.25576 0.52985 0.0
C217 C 0.99776 0.27036 0.53853 0.0
C218 C 0.02202 0.26575 0.42341 0.0
C219 C 0.9795 0.2718 0.53314 0.0
C220 C 0.95402 0.26625 0.49746 0.0
C221 C 0.9715 0.26532 0.50113 0.0
C222 C 0.95245 0.28052 0.55725 0.0
C223 C 0.94426 0.27373 0.52566 0.0
C224 C 0.96989 0.27953 0.56094 0.0
C225 C 0.06207 0.26469 0.56413 0.0
C226 C 0.06098 0.25895 0.63065 0.0
C227 C 0.08703 0.26794 0.60262 0.0
C228 C 0.07906 0.26883 0.56788 0.0
C229 C 0.07814 0.26285 0.6344 0.0
C230 C 0.05299 0.25991 0.59577 0.0
C231 C 0.05439 0.26486 0.52673 0.0
O232 O 0.02007 0.25257 0.44475 0.0
O233 O 0.02266 0.27991 0.44239 0.0
O234 O 0.04768 0.27915 0.51626 0.0
O235 O 0.04519 0.25173 0.5178 0.0
H236 H 0.05575 0.2666 0.43278 0.0
H237 H 0.07725 0.26301 0.38506 0.0
H238 H 0.03847 0.2565 0.30119 0.0
H239 H 0.01703 0.26055 0.34919 0.0
H240 H 0.94814 0.26076 0.47293 0.0
H241 H 0.97873 0.25936 0.47926 0.0
H242 H 0.9454 0.28665 0.57917 0.0
H243 H 0.97587 0.2847 0.58571 0.0
H244 H 0.05376 0.25514 0.65464 0.0
H245 H 0.1003 0.27078 0.60435 0.0
H246 H 0.08627 0.27249 0.54371 0.0
H247 H 0.03981 0.25673 0.5934 0.0
C248 C 0.74105 0.96958 0.61441 0.0
C249 C 0.73952 0.95253 0.60511 0.0
C250 C 0.74504 0.94481 0.66974 0.0
C251 C 0.74145 0.94027 0.6325 0.0
C252 C 0.7464 0.96196 0.67896 0.0
C253 C 0.74443 0.97424 0.65148 0.0
U254 U 0.73899 0.97992 0.51214 0.0
O255 O 0.72373 0.99791 0.48038 0.0
O256 O 0.75121 0.99964 0.47931 0.0
C257 C 0.73687 0.00653 0.46957 0.0
C258 C 0.7397 0.98238 0.58518 0.0
C259 C 0.73583 0.02481 0.47473 0.0
C260 C 0.73083 0.04943 0.51349 0.0
C261 C 0.73183 0.03197 0.50945 0.0
C262 C 0.73796 0.05268 0.44829 0.0
C263 C 0.73392 0.05999 0.48294 0.0
C264 C 0.73889 0.03526 0.44427 0.0
C265 C 0.74108 0.94202 0.445 0.0
C266 C 0.74653 0.94304 0.37835 0.0
C267 C 0.73829 0.91688 0.40697 0.0
C268 C 0.73735 0.92493 0.44161 0.0
C269 C 0.743 0.92579 0.37493 0.0
C270 C 0.74553 0.95111 0.41314 0.0
C271 C 0.74076 0.94983 0.48226 0.0
O272 O 0.75312 0.98399 0.56442 0.0
O273 O 0.72569 0.98205 0.56558 0.0
O274 O 0.72654 0.9569 0.49195 0.0
O275 O 0.75402 0.95874 0.49163 0.0
H276 H 0.73695 0.9487 0.57656 0.0
H277 H 0.74006 0.92723 0.62448 0.0
H278 H 0.74936 0.9659 0.70723 0.0
H279 H 0.74576 0.98735 0.65908 0.0
H280 H 0.72787 0.05467 0.54063 0.0
H281 H 0.72951 0.02407 0.53335 0.0
H282 H 0.74018 0.06042 0.42409 0.0
H283 H 0.74196 0.02994 0.41725 0.0
H284 H 0.75004 0.95029 0.35417 0.0
H285 H 0.73576 0.90355 0.40551 0.0
H286 H 0.73396 0.91771 0.46595 0.0
H287 H 0.7484 0.96437 0.41527 0.0
C288 C 0.53495 0.24287 0.89201 0.0
C289 C 0.55099 0.24882 0.90149 0.0
C290 C 0.55951 0.24687 0.83645 0.0
C291 C 0.56314 0.25086 0.87396 0.0
C292 C 0.54349 0.24064 0.82719 0.0
C293 C 0.53128 0.2387 0.85477 0.0
U294 U 0.52384 0.2411 0.99408 0.0
O295 O 0.5034 0.25295 0.02578 0.0
O296 O 0.50601 0.22553 0.02503 0.0
C297 C 0.49687 0.23848 0.03529 0.0
C298 C 0.52207 0.24108 0.92094 0.0
C299 C 0.47864 0.23687 0.02965 0.0
C300 C 0.4544 0.22852 0.99234 0.0
C301 C 0.47181 0.23015 0.99656 0.0
C302 C 0.45051 0.24058 0.05393 0.0
C303 C 0.44353 0.23366 0.02109 0.0
C304 C 0.46788 0.24213 0.05815 0.0
C305 C 0.56057 0.24507 0.06403 0.0
C306 C 0.56051 0.25582 0.12774 0.0
C307 C 0.58364 0.23866 0.10624 0.0
C308 C 0.57595 0.23716 0.07122 0.0
C309 C 0.57613 0.24819 0.13476 0.0
C310 C 0.55275 0.25421 0.09271 0.0
C311 C 0.55342 0.24417 0.02602 0.0
O312 O 0.52301 0.22726 0.94065 0.0
O313 O 0.51959 0.25455 0.94153 0.0
O314 O 0.5443 0.25703 0.01533 0.0
O315 O 0.54705 0.22962 0.01589 0.0
H316 H 0.5541 0.25196 0.93019 0.0
H317 H 0.57543 0.25545 0.88208 0.0
H318 H 0.54029 0.23756 0.79852 0.0
H319 H 0.51897 0.23405 0.847 0.0
H320 H 0.44948 0.22301 0.96682 0.0
H321 H 0.47994 0.22606 0.97415 0.0
H322 H 0.44255 0.24498 0.07633 0.0
H323 H 0.47292 0.24745 0.08378 0.0
H324 H 0.55433 0.26309 0.14927 0.0
H325 H 0.59576 0.23281 0.11058 0.0
H326 H 0.58219 0.23008 0.04945 0.0
H327 H 0.5408 0.26033 0.0879 0.0
C328 C 0.25976 0.03551 0.39301 0.0
C329 C 0.25386 0.05158 0.40227 0.0
C330 C 0.25545 0.05993 0.33714 0.0
C331 C 0.25167 0.06366 0.37458 0.0
C332 C 0.26162 0.04388 0.32808 0.0
C333 C 0.2637 0.03175 0.35583 0.0
U334 U 0.26212 0.02471 0.49524 0.0
O335 O 0.25064 0.00425 0.52715 0.0
O336 O 0.27804 0.00711 0.52645 0.0
C337 C 0.26523 0.99787 0.53675 0.0
C338 C 0.26176 0.02274 0.42213 0.0
C339 C 0.26698 0.97967 0.53108 0.0
C340 C 0.275 0.95554 0.49336 0.0
C341 C 0.27329 0.97293 0.49772 0.0
C342 C 0.26386 0.95151 0.55542 0.0
C343 C 0.27036 0.94461 0.52225 0.0
C344 C 0.26223 0.96885 0.55977 0.0
C345 C 0.25834 0.06162 0.56514 0.0
C346 C 0.24316 0.06813 0.62222 0.0
C347 C 0.27076 0.0799 0.61248 0.0
C348 C 0.27168 0.07165 0.57802 0.0
C349 C 0.25638 0.07847 0.63477 0.0
C350 C 0.24412 0.05981 0.5878 0.0
C351 C 0.25897 0.05429 0.52707 0.0
O352 O 0.27568 0.02382 0.44189 0.0
O353 O 0.24841 0.02024 0.44269 0.0
O354 O 0.24612 0.04508 0.51629 0.0
O355 O 0.27349 0.04807 0.51658 0.0
H356 H 0.25089 0.05476 0.43093 0.0
H357 H 0.24714 0.07597 0.38254 0.0
H358 H 0.26454 0.04061 0.29946 0.0
H359 H 0.26831 0.01942 0.34824 0.0
H360 H 0.28018 0.95069 0.46759 0.0
H361 H 0.27697 0.9811 0.47517 0.0
H362 H 0.25985 0.9435 0.57795 0.0
H363 H 0.25723 0.97384 0.58561 0.0
H364 H 0.2318 0.06691 0.63838 0.0
H365 H 0.28128 0.08755 0.62149 0.0
H366 H 0.28275 0.07337 0.56108 0.0
H367 H 0.23353 0.05231 0.57864 0.0
C368 C 0.46853 0.76327 0.11781 0.0
C369 C 0.4515 0.76188 0.10813 0.0
C370 C 0.44405 0.7597 0.17375 0.0
C371 C 0.43938 0.76012 0.13581 0.0
C372 C 0.46117 0.76111 0.18328 0.0
C373 C 0.4733 0.7629 0.1555 0.0
U374 U 0.4786 0.76538 0.0155 0.0
O375 O 0.49594 0.7814 0.98406 0.0
O376 O 0.49868 0.75401 0.98211 0.0
C377 C 0.50504 0.7686 0.97287 0.0
C378 C 0.48122 0.76498 0.08851 0.0
C379 C 0.5233 0.77038 0.97789 0.0
C380 C 0.54892 0.7661 0.01382 0.0
C381 C 0.53145 0.76485 0.01042 0.0
C382 C 0.55019 0.77879 0.95264 0.0
C383 C 0.55853 0.77296 0.98481 0.0
C384 C 0.53276 0.77747 0.94924 0.0
C385 C 0.44072 0.76166 0.94866 0.0
C386 C 0.4425 0.75935 0.88111 0.0
C387 C 0.41534 0.76061 0.91098 0.0
C388 C 0.4232 0.76176 0.94583 0.0
C389 C 0.42487 0.75934 0.87816 0.0
C390 C 0.45038 0.76053 0.91614 0.0
C391 C 0.44851 0.76235 0.98588 0.0
O392 O 0.48331 0.75157 0.06751 0.0
O393 O 0.48026 0.7789 0.06914 0.0
O394 O 0.45799 0.74948 0.99478 0.0
O395 O 0.45505 0.77685 0.99579 0.0
H396 H 0.4476 0.76208 0.07909 0.0
H397 H 0.42636 0.7588 0.12742 0.0
H398 H 0.46517 0.76101 0.21223 0.0
H399 H 0.4864 0.76398 0.16344 0.0
H400 H 0.55492 0.76135 0.03882 0.0
H401 H 0.52433 0.75938 0.03293 0.0
H402 H 0.55711 0.78443 0.93006 0.0
H403 H 0.52666 0.78191 0.92403 0.0
H404 H 0.4502 0.75853 0.85638 0.0
H405 H 0.40176 0.76034 0.90984 0.0
H406 H 0.41557 0.76255 0.9707 0.0
H407 H 0.46395 0.76047 0.91789 0.0
H408 H 0.19206 0.24521 0.1379 0.0
H409 H 0.16928 0.25128 0.18124 0.0
H410 H 0.13424 0.2263 0.10746 0.0
H411 H 0.15695 0.21987 0.06421 0.0
H412 H 0.13963 0.26878 0.1731 0.0
H413 H 0.12717 0.202 0.20574 0.0
H414 H 0.14564 0.20867 0.1811 0.0
H415 H 0.12589 0.20678 0.1569 0.0
C416 C 0.17951 0.24103 0.13074 0.0
C417 C 0.17641 0.23188 0.09765 0.0
C418 C 0.1665 0.24454 0.15558 0.0
C419 C 0.15013 0.23897 0.14793 0.0
C420 C 0.14686 0.23037 0.11436 0.0
H421 H 0.06023 0.27109 0.26731 0.0
H422 H 0.08185 0.26634 0.22021 0.0
C423 C 0.15987 0.22678 0.08956 0.0
C424 C 0.13655 0.24198 0.17534 0.0
H425 H 0.10819 0.22198 0.23049 0.0
C426 C 0.13274 0.25856 0.18567 0.0
C427 C 0.12775 0.22861 0.19209 0.0
C428 C 0.13189 0.21051 0.18372 0.0
C429 C 0.12026 0.26214 0.21207 0.0
C430 C 0.11116 0.24878 0.22807 0.0
C431 C 0.11506 0.23221 0.21792 0.0
C432 C 0.09791 0.25165 0.25634 0.0
C433 C 0.11723 0.28016 0.22329 0.0
C434 C 0.09952 0.24458 0.29195 0.0
C435 C 0.08709 0.24707 0.31873 0.0
C436 C 0.07273 0.25665 0.31046 0.0
C437 C 0.07106 0.26357 0.27457 0.0
C438 C 0.08351 0.26104 0.24774 0.0
H439 H 0.12797 0.28834 0.21588 0.0
H440 H 0.10593 0.28488 0.20844 0.0
H441 H 0.115 0.28127 0.25377 0.0
H442 H 0.11047 0.23717 0.29909 0.0
H443 H 0.08866 0.2413 0.34582 0.0
H444 H 0.25676 0.69255 0.63259 0.0
H445 H 0.25046 0.66968 0.67544 0.0
H446 H 0.28147 0.63624 0.61075 0.0
H447 H 0.28803 0.659 0.56799 0.0
H448 H 0.23595 0.63782 0.66221 0.0
H449 H 0.30113 0.63248 0.71659 0.0
H450 H 0.29402 0.65026 0.68988 0.0
H451 H 0.29928 0.63092 0.66669 0.0
C452 C 0.26222 0.68033 0.62733 0.0
C453 C 0.27304 0.6777 0.59693 0.0
C454 C 0.25859 0.66727 0.65188 0.0
C455 C 0.26574 0.65136 0.64664 0.0
C456 C 0.2761 0.64853 0.61575 0.0
H457 H 0.26381 0.5584 0.77195 0.0
H458 H 0.26782 0.58007 0.72475 0.0
C459 C 0.27976 0.66156 0.5912 0.0
C460 C 0.26249 0.63775 0.67369 0.0
H461 H 0.28184 0.61179 0.73605 0.0
C462 C 0.24596 0.63215 0.67845 0.0
C463 C 0.27559 0.63039 0.69483 0.0
C464 C 0.29349 0.63639 0.69209 0.0
C465 C 0.2422 0.61917 0.70338 0.0
C466 C 0.2553 0.61181 0.72452 0.0
C467 C 0.27183 0.61741 0.7197 0.0
C468 C 0.25215 0.59846 0.75226 0.0
C469 C 0.22429 0.61322 0.70636 0.0
C470 C 0.24206 0.60164 0.78346 0.0
C471 C 0.23967 0.58926 0.81037 0.0
C472 C 0.24741 0.57347 0.80674 0.0
C473 C 0.25747 0.57033 0.77535 0.0
C474 C 0.25987 0.58273 0.74847 0.0
H475 H 0.21669 0.61689 0.68162 0.0
H476 H 0.22373 0.59938 0.70934 0.0
H477 H 0.2185 0.61899 0.73143 0.0
H478 H 0.23622 0.61379 0.7873 0.0
H479 H 0.23173 0.59206 0.83402 0.0
H480 H 0.84437 0.78794 0.07149 0.0
H481 H 0.86595 0.78206 0.11854 0.0
H482 H 0.83063 0.75237 0.18022 0.0
H483 H 0.80896 0.75815 0.13361 0.0
H484 H 0.84754 0.77794 0.22247 0.0
H485 H 0.89168 0.73775 0.14213 0.0
H486 H 0.88539 0.75704 0.12031 0.0
H487 H 0.87012 0.7409 0.1279 0.0
C488 C 0.84121 0.77999 0.0948 0.0
C489 C 0.82486 0.77357 0.09872 0.0
C490 C 0.85361 0.77658 0.12158 0.0
C491 C 0.8499 0.76669 0.15269 0.0
C492 C 0.83374 0.76 0.15632 0.0
H493 H 0.91032 0.72546 0.33087 0.0
H494 H 0.89267 0.73011 0.27563 0.0
C495 C 0.82137 0.76332 0.12956 0.0
C496 C 0.86247 0.76421 0.18284 0.0
H497 H 0.90017 0.74588 0.20314 0.0
C498 C 0.85907 0.77096 0.21825 0.0
C499 C 0.87742 0.75502 0.17722 0.0
C500 C 0.8814 0.74712 0.13995 0.0
C501 C 0.87024 0.7688 0.24826 0.0
C502 C 0.88529 0.75977 0.24259 0.0
C503 C 0.88868 0.75293 0.20723 0.0
C504 C 0.89726 0.75681 0.27366 0.0
C505 C 0.86572 0.7759 0.28603 0.0
C506 C 0.906 0.77023 0.29021 0.0
C507 C 0.91606 0.76763 0.32178 0.0
C508 C 0.91753 0.75155 0.3374 0.0
C509 C 0.90926 0.73803 0.31981 0.0
C510 C 0.89927 0.74063 0.28814 0.0
H511 H 0.85232 0.77969 0.2874 0.0
H512 H 0.86826 0.76661 0.30832 0.0
H513 H 0.87354 0.78714 0.29188 0.0
H514 H 0.90471 0.78279 0.27921 0.0
H515 H 0.92216 0.77833 0.3348 0.0
H516 H 0.71625 0.34547 0.57331 0.0
H517 H 0.72237 0.36707 0.6203 0.0
H518 H 0.75255 0.33183 0.68203 0.0
H519 H 0.7465 0.31014 0.63552 0.0
H520 H 0.72763 0.34855 0.72453 0.0
H521 H 0.76646 0.39309 0.64332 0.0
H522 H 0.74691 0.38688 0.62202 0.0
H523 H 0.76315 0.37159 0.62882 0.0
C524 C 0.72435 0.34234 0.59662 0.0
C525 C 0.73082 0.326 0.6006 0.0
C526 C 0.7279 0.35475 0.62336 0.0
C527 C 0.73801 0.35108 0.65446 0.0
C528 C 0.74475 0.33492 0.65815 0.0
H529 H 0.78041 0.4118 0.83204 0.0
H530 H 0.77546 0.39416 0.77677 0.0
C531 C 0.74127 0.32254 0.63146 0.0
C532 C 0.7407 0.36366 0.68455 0.0
H533 H 0.75878 0.40156 0.70444 0.0
C534 C 0.73442 0.36015 0.72014 0.0
C535 C 0.74964 0.37872 0.67871 0.0
C536 C 0.75707 0.38282 0.64126 0.0
C537 C 0.7368 0.37132 0.75011 0.0
C538 C 0.74556 0.38648 0.74422 0.0
C539 C 0.75193 0.38999 0.70869 0.0
C540 C 0.74868 0.39848 0.77521 0.0
C541 C 0.73021 0.36669 0.78808 0.0
C542 C 0.73531 0.40706 0.79198 0.0
C543 C 0.73809 0.41711 0.82356 0.0
C544 C 0.7543 0.41873 0.83895 0.0
C545 C 0.76776 0.41062 0.82113 0.0
C546 C 0.76497 0.40064 0.78945 0.0
H547 H 0.72662 0.35325 0.78951 0.0
H548 H 0.73975 0.36932 0.81008 0.0
H549 H 0.71895 0.37436 0.79429 0.0
H550 H 0.72266 0.40564 0.78118 0.0
H551 H 0.72744 0.42308 0.83676 0.0
H552 H 0.69383 0.25918 0.37195 0.0
H553 H 0.67196 0.25385 0.32532 0.0
H554 H 0.63666 0.28226 0.39078 0.0
H555 H 0.65845 0.28774 0.43785 0.0
H556 H 0.62462 0.24965 0.35823 0.0
H557 H 0.65405 0.29276 0.25638 0.0
H558 H 0.66782 0.27744 0.27681 0.0
H559 H 0.65882 0.29351 0.30574 0.0
C560 C 0.6814 0.26422 0.37674 0.0
C561 C 0.67798 0.27404 0.40861 0.0
C562 C 0.66894 0.26118 0.34995 0.0
C563 C 0.6528 0.26784 0.35446 0.0
C564 C 0.64909 0.27708 0.3868 0.0
H565 H 0.57976 0.27749 0.17406 0.0
H566 H 0.59663 0.28237 0.23044 0.0
C567 C 0.66158 0.28021 0.41361 0.0
C568 C 0.64004 0.26566 0.3246 0.0
H569 H 0.63144 0.27611 0.23425 0.0
C570 C 0.62602 0.25549 0.33116 0.0
C571 C 0.64184 0.27348 0.28956 0.0
C572 C 0.65636 0.28503 0.2816 0.0
C573 C 0.61397 0.25253 0.30304 0.0
C574 C 0.6161 0.25988 0.26756 0.0
C575 C 0.62988 0.27043 0.26144 0.0
C576 C 0.60447 0.25652 0.23593 0.0
C577 C 0.59903 0.24162 0.31149 0.0
C578 C 0.6032 0.24035 0.22052 0.0
C579 C 0.59357 0.23752 0.18831 0.0
C580 C 0.58505 0.25083 0.1709 0.0
C581 C 0.58599 0.26693 0.18704 0.0
C582 C 0.59569 0.26976 0.21913 0.0
H583 H 0.59702 0.24044 0.34202 0.0
H584 H 0.58745 0.24674 0.29844 0.0
H585 H 0.60118 0.22888 0.29984 0.0
H586 H 0.61008 0.23 0.2327 0.0
H587 H 0.59299 0.22496 0.17669 0.0
H588 H 0.245 0.19526 0.87377 0.0
H589 H 0.25112 0.17334 0.82806 0.0
H590 H 0.22336 0.13766 0.89316 0.0
H591 H 0.21684 0.15961 0.93885 0.0
H592 H 0.26733 0.14281 0.83434 0.0
H593 H 0.20077 0.13393 0.79112 0.0
H594 H 0.20757 0.15147 0.81946 0.0
H595 H 0.20488 0.13117 0.84005 0.0
C596 C 0.24022 0.18276 0.87857 0.0
C597 C 0.23027 0.17928 0.9099 0.0
C598 C 0.24376 0.17022 0.85237 0.0
C599 C 0.23744 0.15395 0.85685 0.0
C600 C 0.22803 0.15024 0.88872 0.0
H601 H 0.24253 0.06871 0.70129 0.0
H602 H 0.23869 0.08574 0.75778 0.0
C603 C 0.2244 0.1628 0.91491 0.0
C604 C 0.24052 0.14105 0.82765 0.0
H605 H 0.22081 0.11651 0.76227 0.0
C606 C 0.25716 0.137 0.81869 0.0
C607 C 0.22722 0.13345 0.80731 0.0
C608 C 0.2091 0.13779 0.81465 0.0
C609 C 0.26088 0.1257 0.78968 0.0
C610 C 0.2476 0.11842 0.76882 0.0
C611 C 0.23096 0.12209 0.77842 0.0
C612 C 0.25068 0.1078 0.73547 0.0
C613 C 0.27898 0.12165 0.78153 0.0
C614 C 0.25856 0.11462 0.70416 0.0
C615 C 0.26064 0.10501 0.67179 0.0
C616 C 0.25483 0.08836 0.66999 0.0
C617 C 0.24702 0.08152 0.70157 0.0
C618 C 0.24489 0.09119 0.73394 0.0
H619 H 0.28723 0.12441 0.80594 0.0
H620 H 0.28049 0.10826 0.77357 0.0
H621 H 0.28327 0.12944 0.75788 0.0
H622 H 0.26275 0.12754 0.70444 0.0
H623 H 0.26637 0.11082 0.64781 0.0
H624 H 0.31216 0.74866 0.37849 0.0
H625 H 0.33495 0.755 0.3354 0.0
H626 H 0.36818 0.72288 0.39789 0.0
H627 H 0.34553 0.71631 0.44091 0.0
H628 H 0.36737 0.76882 0.34916 0.0
H629 H 0.3709 0.70425 0.29061 0.0
H630 H 0.35333 0.7115 0.31785 0.0
H631 H 0.37255 0.70548 0.34059 0.0
C632 C 0.32431 0.74297 0.38321 0.0
C633 C 0.32692 0.73185 0.41309 0.0
C634 C 0.33733 0.74662 0.35854 0.0
C635 C 0.35315 0.73918 0.36309 0.0
C636 C 0.35596 0.72849 0.39344 0.0
H637 H 0.4457 0.74017 0.23636 0.0
H638 H 0.42403 0.73612 0.28353 0.0
C639 C 0.34299 0.72483 0.41813 0.0
C640 C 0.36671 0.74246 0.33593 0.0
H641 H 0.39197 0.72329 0.27193 0.0
C642 C 0.37273 0.7589 0.33216 0.0
C643 C 0.37366 0.72947 0.31383 0.0
C644 C 0.36721 0.7117 0.31556 0.0
C645 C 0.38575 0.76264 0.30732 0.0
C646 C 0.3927 0.74965 0.28521 0.0
C647 C 0.38667 0.73322 0.28901 0.0
C648 C 0.40609 0.75281 0.25754 0.0
C649 C 0.39217 0.78041 0.3055 0.0
C650 C 0.40317 0.76349 0.2272 0.0
C651 C 0.41556 0.7659 0.20033 0.0
C652 C 0.4311 0.75759 0.2031 0.0
C653 C 0.43399 0.74694 0.23364 0.0
C654 C 0.42158 0.74453 0.2605 0.0
H655 H 0.38881 0.78774 0.33085 0.0
H656 H 0.40602 0.78065 0.30227 0.0
H657 H 0.38647 0.78673 0.281 0.0
H658 H 0.3912 0.76976 0.22397 0.0
H659 H 0.41296 0.7743 0.17736 0.0
H660 H 0.75771 0.81262 0.87233 0.0
H661 H 0.75169 0.8355 0.82923 0.0
H662 H 0.77912 0.86977 0.90042 0.0
H663 H 0.78548 0.84695 0.94343 0.0
H664 H 0.73539 0.86585 0.83855 0.0
H665 H 0.80197 0.87566 0.7999 0.0
H666 H 0.79504 0.8575 0.82531 0.0
H667 H 0.79808 0.87721 0.84911 0.0
C668 C 0.76243 0.82502 0.87898 0.0
C669 C 0.77224 0.82786 0.91126 0.0
C670 C 0.75896 0.8381 0.85427 0.0
C671 C 0.76522 0.85427 0.86124 0.0
C672 C 0.77449 0.8573 0.89404 0.0
H673 H 0.73446 0.9449 0.74261 0.0
H674 H 0.73914 0.92331 0.7898 0.0
C675 C 0.77804 0.84423 0.91871 0.0
C676 C 0.76222 0.86788 0.83389 0.0
H677 H 0.78227 0.89524 0.77639 0.0
C678 C 0.74563 0.87229 0.82495 0.0
C679 C 0.7756 0.8761 0.81579 0.0
C680 C 0.79367 0.8713 0.82267 0.0
C681 C 0.74205 0.8848 0.7986 0.0
C682 C 0.75544 0.89331 0.78122 0.0
C683 C 0.77203 0.88882 0.79 0.0
C684 C 0.75258 0.90653 0.75286 0.0
C685 C 0.72397 0.88849 0.78893 0.0
C686 C 0.75896 0.90449 0.71671 0.0
C687 C 0.75652 0.9169 0.68985 0.0
C688 C 0.74765 0.93167 0.69857 0.0
C689 C 0.74141 0.93375 0.73498 0.0
C690 C 0.7439 0.92132 0.76188 0.0
H691 H 0.71553 0.87812 0.79733 0.0
H692 H 0.71996 0.90002 0.8039 0.0
H693 H 0.72239 0.89062 0.75851 0.0
H694 H 0.76582 0.89324 0.70921 0.0
H695 H 0.76177 0.91499 0.66235 0.0
H696 H 0.84497 0.78989 0.93976 0.0
H697 H 0.86765 0.78369 0.89613 0.0
H698 H 0.83499 0.75038 0.83434 0.0
H699 H 0.81218 0.75656 0.87746 0.0
H700 H 0.8827 0.75263 0.87535 0.0
H701 H 0.85149 0.78361 0.75505 0.0
H702 H 0.84479 0.78677 0.80261 0.0
H703 H 0.839 0.76799 0.7777 0.0
C704 C 0.84259 0.78119 0.917 0.0
C705 C 0.82665 0.77385 0.91202 0.0
C706 C 0.85559 0.77766 0.8921 0.0
C707 C 0.85291 0.76681 0.86165 0.0
C708 C 0.83722 0.75905 0.85724 0.0
H709 H 0.91257 0.73402 0.67313 0.0
H710 H 0.8909 0.73822 0.72029 0.0
C711 C 0.82422 0.76255 0.8821 0.0
C712 C 0.86644 0.76377 0.8342 0.0
H713 H 0.87641 0.76851 0.7423 0.0
C714 C 0.88138 0.75614 0.84628 0.0
C715 C 0.86466 0.76839 0.79631 0.0
C716 C 0.8492 0.77728 0.78208 0.0
C717 C 0.89447 0.7527 0.82127 0.0
C718 C 0.89266 0.75729 0.78336 0.0
C719 C 0.87774 0.76495 0.77135 0.0
C720 C 0.9061 0.75434 0.7556 0.0
C721 C 0.90996 0.74386 0.83547 0.0
C722 C 0.92182 0.7621 0.75967 0.0
C723 C 0.93421 0.7598 0.73265 0.0
C724 C 0.9311 0.74977 0.70087 0.0
C725 C 0.91533 0.74198 0.697 0.0
C726 C 0.90296 0.74429 0.72402 0.0
H727 H 0.90763 0.7374 0.86232 0.0
H728 H 0.9145 0.7345 0.81478 0.0
H729 H 0.92007 0.75321 0.84021 0.0
H730 H 0.92439 0.77022 0.78338 0.0
H731 H 0.94609 0.76622 0.73621 0.0
H732 H 0.75352 0.31496 0.39013 0.0
H733 H 0.76072 0.33774 0.34784 0.0
H734 H 0.71918 0.36685 0.38947 0.0
H735 H 0.71212 0.34436 0.43247 0.0
H736 H 0.74232 0.35022 0.29188 0.0
H737 H 0.7562 0.40116 0.39316 0.0
H738 H 0.75428 0.37952 0.40697 0.0
H739 H 0.73583 0.39217 0.39996 0.0
C740 C 0.74601 0.32628 0.39065 0.0
C741 C 0.73225 0.32781 0.41485 0.0
C742 C 0.75015 0.3393 0.3664 0.0
C743 C 0.74065 0.35412 0.3658 0.0
C744 C 0.72697 0.35573 0.39006 0.0
H745 H 0.73137 0.42306 0.18124 0.0
H746 H 0.72784 0.40119 0.22803 0.0
C747 C 0.72289 0.34278 0.41452 0.0
C748 C 0.74441 0.36745 0.33826 0.0
H749 H 0.75201 0.40941 0.32964 0.0
C750 C 0.74458 0.36314 0.30019 0.0
C751 C 0.74758 0.38427 0.34906 0.0
C752 C 0.74865 0.38954 0.38954 0.0
C753 C 0.7474 0.37522 0.27262 0.0
C754 C 0.74971 0.39219 0.28331 0.0
C755 C 0.75001 0.39644 0.32142 0.0
C756 C 0.75174 0.40571 0.25536 0.0
C757 C 0.74807 0.36963 0.23231 0.0
C758 C 0.76608 0.41593 0.2559 0.0
C759 C 0.76807 0.42855 0.22932 0.0
C760 C 0.75573 0.43119 0.2017 0.0
C761 C 0.74125 0.42113 0.20168 0.0
C762 C 0.73923 0.40859 0.22837 0.0
H763 H 0.75112 0.35608 0.22981 0.0
H764 H 0.73561 0.37165 0.21907 0.0
H765 H 0.75753 0.37689 0.21658 0.0
H766 H 0.77585 0.41399 0.27658 0.0
H767 H 0.77941 0.43603 0.22995 0.0
H768 H 0.1899 0.2556 0.8908 0.0
H769 H 0.16843 0.26275 0.84471 0.0
H770 H 0.13868 0.22056 0.8795 0.0
H771 H 0.15995 0.21348 0.92631 0.0
H772 H 0.15911 0.24283 0.78659 0.0
H773 H 0.10355 0.25729 0.8736 0.0
H774 H 0.12451 0.25606 0.89283 0.0
H775 H 0.11285 0.23723 0.88298 0.0
C776 C 0.1787 0.24795 0.88908 0.0
C777 C 0.1767 0.23392 0.91225 0.0
C778 C 0.16642 0.25207 0.8627 0.0
C779 C 0.15187 0.2423 0.85886 0.0
C780 C 0.14962 0.22851 0.88249 0.0
H781 H 0.07507 0.23753 0.68534 0.0
H782 H 0.09205 0.23306 0.74171 0.0
C783 C 0.16186 0.22442 0.90912 0.0
C784 C 0.13985 0.24574 0.82801 0.0
H785 H 0.09883 0.25472 0.80803 0.0
C786 C 0.14595 0.24554 0.79135 0.0
C787 C 0.12265 0.24914 0.83423 0.0
C788 C 0.1155 0.2501 0.87305 0.0
C789 C 0.13536 0.24854 0.76073 0.0
C790 C 0.11821 0.25202 0.76692 0.0
C791 C 0.112 0.25208 0.80348 0.0
C792 C 0.10667 0.25569 0.73545 0.0
C793 C 0.14254 0.2477 0.72187 0.0
C794 C 0.10894 0.27016 0.71404 0.0
C795 C 0.09925 0.27279 0.68199 0.0
C796 C 0.08706 0.261 0.67075 0.0
C797 C 0.08427 0.24691 0.69332 0.0
C798 C 0.09399 0.24429 0.72546 0.0
H799 H 0.15493 0.24132 0.72141 0.0
H800 H 0.13387 0.24097 0.70254 0.0
H801 H 0.14424 0.26062 0.71123 0.0
H802 H 0.11851 0.27923 0.72167 0.0
H803 H 0.10149 0.28394 0.66564 0.0
H804 H 0.2499 0.69002 0.39162 0.0
H805 H 0.24314 0.66831 0.34553 0.0
H806 H 0.28742 0.64075 0.37793 0.0
H807 H 0.29402 0.66215 0.42486 0.0
H808 H 0.26146 0.66021 0.28651 0.0
H809 H 0.25358 0.6035 0.37308 0.0
H810 H 0.25417 0.62435 0.39295 0.0
H811 H 0.27334 0.61369 0.38112 0.0
C812 C 0.25808 0.67922 0.38936 0.0
C813 C 0.27252 0.67785 0.41194 0.0
C814 C 0.25419 0.66681 0.36299 0.0
C815 C 0.26465 0.65278 0.35852 0.0
C816 C 0.27891 0.65121 0.38148 0.0
H817 H 0.27719 0.58007 0.1811 0.0
H818 H 0.27986 0.59764 0.23728 0.0
C819 C 0.28272 0.66354 0.40818 0.0
C820 C 0.26141 0.64063 0.32769 0.0
H821 H 0.2566 0.59895 0.30725 0.0
C822 C 0.26021 0.64684 0.29116 0.0
C823 C 0.25983 0.62317 0.33371 0.0
C824 C 0.26013 0.61579 0.37238 0.0
C825 C 0.25781 0.63607 0.2605 0.0
C826 C 0.25654 0.61864 0.26649 0.0
C827 C 0.25763 0.61236 0.30289 0.0
C828 C 0.25435 0.60682 0.23487 0.0
C829 C 0.257 0.64333 0.22173 0.0
C830 C 0.23903 0.60597 0.21552 0.0
C831 C 0.23745 0.59596 0.18349 0.0
C832 C 0.25123 0.58672 0.1702 0.0
C833 C 0.26642 0.5872 0.19044 0.0
C834 C 0.26794 0.59713 0.2226 0.0
H835 H 0.26052 0.65681 0.22138 0.0
H836 H 0.26545 0.63631 0.2027 0.0
H837 H 0.24402 0.64209 0.2106 0.0
H838 H 0.22841 0.61337 0.22468 0.0
H839 H 0.22565 0.59596 0.16835 0.0
H840 H 0.3134 0.75172 0.62683 0.0
H841 H 0.3356 0.75817 0.67188 0.0
H842 H 0.36704 0.72022 0.62227 0.0
H843 H 0.34484 0.71353 0.57708 0.0
H844 H 0.36385 0.71762 0.69992 0.0
H845 H 0.38059 0.78249 0.65997 0.0
H846 H 0.35848 0.77939 0.6662 0.0
H847 H 0.36914 0.76847 0.62924 0.0
C848 C 0.32509 0.74485 0.62511 0.0
C849 C 0.32727 0.73206 0.59829 0.0
C850 C 0.33783 0.74865 0.65078 0.0
C851 C 0.35305 0.73983 0.65011 0.0
C852 C 0.35542 0.72726 0.62307 0.0
H853 H 0.43335 0.73868 0.81966 0.0
H854 H 0.41781 0.73421 0.76122 0.0
C855 C 0.3427 0.72347 0.59725 0.0
C856 C 0.36589 0.74286 0.67954 0.0
H857 H 0.38987 0.77348 0.72028 0.0
C858 C 0.36975 0.72975 0.70409 0.0
C859 C 0.3735 0.75871 0.68492 0.0
C860 C 0.37036 0.77304 0.65848 0.0
C861 C 0.38046 0.73227 0.7349 0.0
C862 C 0.38776 0.74825 0.74084 0.0
C863 C 0.38426 0.76124 0.71567 0.0
C864 C 0.39817 0.752 0.77435 0.0
C865 C 0.38322 0.71801 0.76178 0.0
C866 C 0.39269 0.764 0.80034 0.0
C867 C 0.40164 0.76674 0.83348 0.0
C868 C 0.41629 0.75753 0.84132 0.0
C869 C 0.42215 0.74602 0.81448 0.0
C870 C 0.41319 0.74331 0.78124 0.0
H871 H 0.37384 0.70785 0.75777 0.0
H872 H 0.39586 0.71258 0.75721 0.0
H873 H 0.38259 0.72252 0.79113 0.0
H874 H 0.38121 0.77095 0.79544 0.0
H875 H 0.39696 0.77593 0.8532 0.0
H876 H 0.74943 0.81387 0.11935 0.0
H877 H 0.74267 0.83533 0.1657 0.0
H878 H 0.78405 0.86546 0.12794 0.0
H879 H 0.79076 0.84418 0.0809 0.0
H880 H 0.76343 0.84502 0.22248 0.0
H881 H 0.7468 0.90011 0.13581 0.0
H882 H 0.74796 0.87911 0.11683 0.0
H883 H 0.76681 0.89098 0.1251 0.0
C884 C 0.75698 0.82515 0.12046 0.0
C885 C 0.77069 0.82724 0.09639 0.0
C886 C 0.75307 0.83742 0.147 0.0
C887 C 0.76274 0.85207 0.1501 0.0
C888 C 0.77619 0.85442 0.12557 0.0
H889 H 0.76783 0.92933 0.32293 0.0
H890 H 0.77222 0.91236 0.26651 0.0
C891 C 0.78007 0.84218 0.0988 0.0
C892 C 0.75956 0.86411 0.18104 0.0
H893 H 0.74997 0.90496 0.20115 0.0
C894 C 0.76039 0.8581 0.21776 0.0
C895 C 0.75574 0.88121 0.17486 0.0
C896 C 0.75412 0.88825 0.13602 0.0
C897 C 0.75758 0.8687 0.24845 0.0
C898 C 0.75362 0.88574 0.2423 0.0
C899 C 0.75297 0.89186 0.20568 0.0
C900 C 0.74999 0.89724 0.27386 0.0
C901 C 0.75907 0.86163 0.28732 0.0
C902 C 0.73577 0.89466 0.29591 0.0
C903 C 0.73318 0.90435 0.32797 0.0
C904 C 0.74478 0.91683 0.33861 0.0
C905 C 0.75861 0.9199 0.31542 0.0
C906 C 0.76118 0.91019 0.28326 0.0
H907 H 0.76575 0.8494 0.28753 0.0
H908 H 0.76582 0.8705 0.30615 0.0
H909 H 0.74633 0.85965 0.29876 0.0
H910 H 0.72686 0.88488 0.28875 0.0
H911 H 0.72223 0.90189 0.34478 0.0
H912 H 0.65995 0.29291 0.57658 0.0
H913 H 0.63749 0.28654 0.62028 0.0
H914 H 0.66591 0.24457 0.66212 0.0
H915 H 0.68865 0.25107 0.61915 0.0
H916 H 0.61779 0.25917 0.6304 0.0
H917 H 0.65674 0.27081 0.75687 0.0
H918 H 0.66357 0.27643 0.71071 0.0
H919 H 0.66521 0.25508 0.72629 0.0
C920 C 0.66144 0.28227 0.59493 0.0
C921 C 0.67623 0.27262 0.59456 0.0
C922 C 0.64856 0.27864 0.61992 0.0
C923 C 0.65016 0.26529 0.64502 0.0
C924 C 0.66459 0.25521 0.6437 0.0
H925 H 0.56795 0.22562 0.77913 0.0
H926 H 0.58964 0.22967 0.73192 0.0
C927 C 0.67754 0.2589 0.61893 0.0
C928 C 0.63682 0.26213 0.67287 0.0
H929 H 0.62957 0.25972 0.76654 0.0
C930 C 0.62035 0.25928 0.66018 0.0
C931 C 0.64013 0.26254 0.71175 0.0
C932 C 0.65733 0.26654 0.72731 0.0
C933 C 0.60712 0.25675 0.68526 0.0
C934 C 0.61053 0.2567 0.7241 0.0
C935 C 0.62699 0.25961 0.73677 0.0
C936 C 0.59717 0.25419 0.75224 0.0
C937 C 0.58956 0.25463 0.66993 0.0
C938 C 0.59443 0.26643 0.7799 0.0
C939 C 0.58218 0.26406 0.80707 0.0
C940 C 0.57239 0.2494 0.80718 0.0
C941 C 0.57512 0.23715 0.77944 0.0
C942 C 0.58748 0.23948 0.75239 0.0
H943 H 0.58841 0.25953 0.64106 0.0
H944 H 0.58636 0.2411 0.66914 0.0
H945 H 0.58026 0.26117 0.68781 0.0
H946 H 0.60176 0.27787 0.78038 0.0
H947 H 0.58027 0.27381 0.82782 0.0
H948 H 0.20938 0.16105 0.07669 0.0
H949 H 0.21552 0.13842 0.12033 0.0
H950 H 0.25796 0.16615 0.16334 0.0
H951 H 0.25169 0.18905 0.12047 0.0
H952 H 0.24266 0.11831 0.13089 0.0
H953 H 0.23175 0.15719 0.25741 0.0
H954 H 0.22614 0.16417 0.21119 0.0
H955 H 0.24753 0.16553 0.22728 0.0
C956 C 0.22007 0.16235 0.0953 0.0
C957 C 0.22992 0.17699 0.09531 0.0
C958 C 0.22356 0.14937 0.12025 0.0
C959 C 0.23699 0.15073 0.14565 0.0
C960 C 0.24727 0.16501 0.1447 0.0
H961 H 0.27648 0.06818 0.2799 0.0
H962 H 0.27231 0.08985 0.23258 0.0
C963 C 0.24371 0.17807 0.11998 0.0
C964 C 0.24003 0.13731 0.17345 0.0
H965 H 0.24267 0.12991 0.2671 0.0
C966 C 0.24266 0.12083 0.16068 0.0
C967 C 0.23976 0.14057 0.21234 0.0
C968 C 0.23598 0.15778 0.22796 0.0
C969 C 0.24515 0.10755 0.18572 0.0
C970 C 0.24538 0.11091 0.22458 0.0
C971 C 0.24265 0.12737 0.23731 0.0
C972 C 0.2479 0.09751 0.25267 0.0
C973 C 0.24707 0.09 0.17033 0.0
C974 C 0.23577 0.09484 0.28021 0.0
C975 C 0.23819 0.0826 0.30744 0.0
C976 C 0.25283 0.07275 0.30773 0.0
C977 C 0.26497 0.0754 0.28008 0.0
C978 C 0.26258 0.08775 0.25296 0.0
H979 H 0.24204 0.08893 0.14139 0.0
H980 H 0.26058 0.08668 0.16966 0.0
H981 H 0.24052 0.08074 0.18809 0.0
H982 H 0.22436 0.10223 0.28057 0.0
H983 H 0.22853 0.08075 0.32812 0.0
H984 H 0.23001 0.28521 0.07062 0.0
H985 H 0.22965 0.31588 0.07218 0.0
H986 H 0.22376 0.31687 0.95251 0.0
H987 H 0.22402 0.28624 0.95051 0.0
H988 H 0.25241 0.3376 0.03361 0.0
H989 H 0.18604 0.34813 0.99129 0.0
H990 H 0.19348 0.32824 0.00866 0.0
H991 H 0.19781 0.33431 0.96151 0.0
C992 C 0.22851 0.29191 0.04461 0.0
C993 C 0.22703 0.28319 0.01043 0.0
C994 C 0.22833 0.30945 0.04558 0.0
C995 C 0.22649 0.31862 0.01252 0.0
C996 C 0.22493 0.31001 0.97841 0.0
H997 H 0.22457 0.42536 0.96252 0.0
H998 H 0.22394 0.39468 0.95926 0.0
C999 C 0.22518 0.29248 0.97734 0.0
C1000 C 0.2269 0.3372 0.01357 0.0
H1001 H 0.20345 0.37213 0.99579 0.0
C1002 C 0.24169 0.34517 0.0255 0.0
C1003 C 0.21294 0.347 0.00267 0.0
C1004 C 0.1966 0.33904 0.99057 0.0
C1005 C 0.24299 0.36273 0.02642 0.0
C1006 C 0.22896 0.37256 0.01596 0.0
C1007 C 0.21418 0.36457 0.00381 0.0
C1008 C 0.2293 0.39116 0.01798 0.0
C1009 C 0.25949 0.37056 0.03784 0.0
C1010 C 0.23229 0.39936 0.05215 0.0
C1011 C 0.23282 0.41686 0.05404 0.0
C1012 C 0.23018 0.42656 0.02185 0.0
C1013 C 0.2269 0.41829 0.98774 0.0
C1014 C 0.22642 0.40076 0.98586 0.0
H1015 H 0.27009 0.36163 0.03447 0.0
H1016 H 0.26213 0.38194 0.02118 0.0
H1017 H 0.25895 0.37427 0.06771 0.0
H1018 H 0.23421 0.39222 0.07743 0.0
H1019 H 0.23555 0.42276 0.08071 0.0
H1020 H 0.21941 0.73218 0.56544 0.0
H1021 H 0.18872 0.73193 0.56503 0.0
H1022 H 0.18858 0.72379 0.44596 0.0
H1023 H 0.21925 0.72398 0.44593 0.0
H1024 H 0.16734 0.75405 0.52253 0.0
H1025 H 0.15682 0.68696 0.48688 0.0
H1026 H 0.17656 0.69469 0.50512 0.0
H1027 H 0.17112 0.69782 0.45693 0.0
C1028 C 0.21289 0.7302 0.53915 0.0
C1029 C 0.22186 0.72809 0.5057 0.0
C1030 C 0.19534 0.73009 0.53901 0.0
C1031 C 0.1864 0.72766 0.50555 0.0
C1032 C 0.19526 0.72543 0.47218 0.0
H1033 H 0.08283 0.72639 0.43451 0.0
H1034 H 0.1133 0.72454 0.44078 0.0
C1035 C 0.2128 0.72564 0.47222 0.0
C1036 C 0.1678 0.72816 0.50525 0.0
H1037 H 0.13297 0.70477 0.48523 0.0
C1038 C 0.15979 0.74326 0.51468 0.0
C1039 C 0.15804 0.71407 0.49486 0.0
C1040 C 0.16601 0.6974 0.48565 0.0
C1041 C 0.14224 0.74479 0.51294 0.0
C1042 C 0.13244 0.73071 0.50234 0.0
C1043 C 0.14048 0.71555 0.49337 0.0
C1044 C 0.11386 0.73161 0.49919 0.0
C1045 C 0.13443 0.76165 0.52119 0.0
C1046 C 0.10399 0.73593 0.5301 0.0
C1047 C 0.08654 0.73723 0.5265 0.0
C1048 C 0.07859 0.73406 0.49195 0.0
C1049 C 0.08852 0.72927 0.46133 0.0
C1050 C 0.10595 0.72806 0.46493 0.0
H1051 H 0.14372 0.77198 0.5192 0.0
H1052 H 0.12388 0.76427 0.50167 0.0
H1053 H 0.12944 0.76166 0.55002 0.0
H1054 H 0.10978 0.73838 0.55703 0.0
H1055 H 0.07932 0.74101 0.55063 0.0
H1056 H 0.77566 0.71968 0.94141 0.0
H1057 H 0.77602 0.68902 0.94176 0.0
H1058 H 0.77676 0.68947 0.0621 0.0
H1059 H 0.77657 0.72011 0.0622 0.0
H1060 H 0.79968 0.66673 0.03024 0.0
H1061 H 0.73583 0.65934 0.96944 0.0
H1062 H 0.74965 0.67223 0.94256 0.0
H1063 H 0.74336 0.67901 0.98831 0.0
C1064 C 0.77593 0.7133 0.96801 0.0
C1065 C 0.77597 0.72243 0.00179 0.0
C1066 C 0.77605 0.69575 0.96812 0.0
C1067 C 0.77614 0.68698 0.00195 0.0
C1068 C 0.77659 0.69601 0.03568 0.0
H1069 H 0.75208 0.58131 0.02917 0.0
H1070 H 0.75336 0.61192 0.03426 0.0
C1071 C 0.77645 0.71354 0.03563 0.0
C1072 C 0.77576 0.66837 0.00222 0.0
H1073 H 0.75212 0.63459 0.97551 0.0
C1074 C 0.78927 0.65969 0.01836 0.0
C1075 C 0.76205 0.65923 0.98721 0.0
C1076 C 0.74681 0.66789 0.97119 0.0
C1077 C 0.7896 0.64207 0.01921 0.0
C1078 C 0.77614 0.63293 0.00309 0.0
C1079 C 0.76249 0.64163 0.98761 0.0
C1080 C 0.77599 0.61432 0.00174 0.0
C1081 C 0.80424 0.63341 0.03778 0.0
C1082 C 0.78829 0.60551 0.98178 0.0
C1083 C 0.78765 0.58802 0.97898 0.0
C1084 C 0.77462 0.57898 0.99593 0.0
C1085 C 0.7624 0.58785 0.01622 0.0
C1086 C 0.76305 0.60535 0.01894 0.0
H1087 H 0.8111 0.64197 0.05714 0.0
H1088 H 0.80001 0.62227 0.05361 0.0
H1089 H 0.81315 0.62911 0.01608 0.0
H1090 H 0.79824 0.61218 0.96777 0.0
H1091 H 0.79733 0.58158 0.96341 0.0
H1092 H 0.78427 0.27366 0.56832 0.0
H1093 H 0.81493 0.27399 0.56979 0.0
H1094 H 0.81583 0.27975 0.45026 0.0
H1095 H 0.78518 0.27952 0.44836 0.0
H1096 H 0.83665 0.25123 0.53088 0.0
H1097 H 0.84713 0.31749 0.48972 0.0
H1098 H 0.82722 0.31008 0.50682 0.0
H1099 H 0.83338 0.30559 0.45968 0.0
C1100 C 0.79094 0.27512 0.54231 0.0
C1101 C 0.78219 0.27658 0.50821 0.0
C1102 C 0.80848 0.27528 0.54324 0.0
C1103 C 0.81764 0.27707 0.5102 0.0
C1104 C 0.809 0.27862 0.47615 0.0
H1105 H 0.92484 0.27969 0.46343 0.0
H1106 H 0.89417 0.27988 0.45882 0.0
C1107 C 0.79146 0.27839 0.47514 0.0
C1108 C 0.83623 0.27668 0.51127 0.0
H1109 H 0.87117 0.3002 0.4947 0.0
C1110 C 0.84422 0.26194 0.52308 0.0
C1111 C 0.84603 0.29063 0.50078 0.0
C1112 C 0.83806 0.30691 0.48879 0.0
C1113 C 0.86178 0.26072 0.52441 0.0
C1114 C 0.87161 0.27476 0.51448 0.0
C1115 C 0.86361 0.28946 0.50233 0.0
C1116 C 0.89021 0.27454 0.51724 0.0
C1117 C 0.86963 0.24428 0.53575 0.0
C1118 C 0.89816 0.27167 0.55167 0.0
C1119 C 0.91565 0.27138 0.55433 0.0
C1120 C 0.92561 0.27415 0.52266 0.0
C1121 C 0.91758 0.27726 0.48826 0.0
C1122 C 0.90005 0.2775 0.48562 0.0
H1123 H 0.86079 0.23363 0.53175 0.0
H1124 H 0.88117 0.24168 0.51952 0.0
H1125 H 0.87307 0.24487 0.56579 0.0
H1126 H 0.89083 0.2697 0.57659 0.0
H1127 H 0.92136 0.26879 0.58119 0.0
H1128 H 0.7268 0.21884 0.56137 0.0
H1129 H 0.72696 0.18822 0.55958 0.0
H1130 H 0.72779 0.18909 0.43931 0.0
H1131 H 0.72746 0.21976 0.44063 0.0
H1132 H 0.70489 0.16569 0.46916 0.0
H1133 H 0.7683 0.15966 0.53304 0.0
H1134 H 0.75376 0.17211 0.55946 0.0
H1135 H 0.76052 0.17919 0.51449 0.0
C1136 C 0.72698 0.21257 0.53446 0.0
C1137 C 0.72724 0.22184 0.50112 0.0
C1138 C 0.72715 0.19504 0.53354 0.0
C1139 C 0.72767 0.18639 0.49934 0.0
C1140 C 0.72749 0.19554 0.46601 0.0
H1141 H 0.75526 0.08345 0.45445 0.0
H1142 H 0.75311 0.11399 0.45894 0.0
C1143 C 0.72732 0.21308 0.46686 0.0
C1144 C 0.72851 0.16781 0.49827 0.0
H1145 H 0.75306 0.13453 0.52318 0.0
C1146 C 0.7154 0.15886 0.48099 0.0
C1147 C 0.74234 0.15895 0.51339 0.0
C1148 C 0.75712 0.16793 0.53087 0.0
C1149 C 0.71569 0.14126 0.47866 0.0
C1150 C 0.72936 0.1324 0.49439 0.0
C1151 C 0.74252 0.14135 0.51144 0.0
C1152 C 0.73057 0.11385 0.49221 0.0
C1153 C 0.70154 0.13231 0.45863 0.0
C1154 C 0.71874 0.10363 0.5099 0.0
C1155 C 0.7199 0.08614 0.50728 0.0
C1156 C 0.73294 0.07856 0.48694 0.0
C1157 C 0.74492 0.08887 0.46982 0.0
C1158 C 0.74377 0.10633 0.47254 0.0
H1159 H 0.69404 0.14099 0.44103 0.0
H1160 H 0.70644 0.12204 0.44069 0.0
H1161 H 0.69305 0.12669 0.47952 0.0
H1162 H 0.7086 0.10918 0.52573 0.0
H1163 H 0.71043 0.07857 0.52062 0.0
H1164 H 0.28406 0.23192 0.94633 0.0
H1165 H 0.31472 0.23127 0.9465 0.0
H1166 H 0.31494 0.22291 0.06525 0.0
H1167 H 0.28427 0.2235 0.06552 0.0
H1168 H 0.3364 0.25304 0.98957 0.0
H1169 H 0.34619 0.18576 0.02262 0.0
H1170 H 0.32651 0.19377 0.00489 0.0
H1171 H 0.3321 0.1968 0.05312 0.0
C1172 C 0.29058 0.22982 0.9725 0.0
C1173 C 0.28163 0.22775 0.00593 0.0
C1174 C 0.30812 0.22947 0.97251 0.0
C1175 C 0.31708 0.22686 0.00579 0.0
C1176 C 0.30825 0.22469 0.03916 0.0
H1177 H 0.42097 0.2242 0.07434 0.0
H1178 H 0.39046 0.22268 0.06881 0.0
C1179 C 0.2907 0.22512 0.03926 0.0
C1180 C 0.33567 0.22714 0.00591 0.0
H1181 H 0.37027 0.20323 0.02418 0.0
C1182 C 0.34385 0.24213 0.99686 0.0
C1183 C 0.34529 0.21289 0.01555 0.0
C1184 C 0.33713 0.19633 0.02432 0.0
C1185 C 0.36141 0.24342 0.99821 0.0
C1186 C 0.37107 0.22919 0.008 0.0
C1187 C 0.36287 0.21413 0.01665 0.0
C1188 C 0.38967 0.22981 0.01066 0.0
C1189 C 0.36942 0.26018 0.99039 0.0
C1190 C 0.39942 0.23405 0.97962 0.0
C1191 C 0.4169 0.23515 0.98282 0.0
C1192 C 0.42499 0.23188 0.01706 0.0
C1193 C 0.41517 0.22715 0.04777 0.0
C1194 C 0.39772 0.22613 0.04458 0.0
H1195 H 0.36028 0.27064 0.99302 0.0
H1196 H 0.3801 0.26262 0.00971 0.0
H1197 H 0.37425 0.26017 0.96141 0.0
H1198 H 0.39351 0.23659 0.95294 0.0
H1199 H 0.42403 0.23889 0.95863 0.0
H1200 H 0.27248 0.78538 0.4458 0.0
H1201 H 0.27293 0.81605 0.44624 0.0
H1202 H 0.28196 0.8161 0.56501 0.0
H1203 H 0.28155 0.78543 0.56502 0.0
H1204 H 0.25114 0.8375 0.49045 0.0
H1205 H 0.31879 0.84757 0.52167 0.0
H1206 H 0.31072 0.82797 0.50344 0.0
H1207 H 0.30815 0.8332 0.55189 0.0
C1208 C 0.27469 0.79187 0.47203 0.0
C1209 C 0.27699 0.78289 0.5054 0.0
C1210 C 0.27492 0.80941 0.47219 0.0
C1211 C 0.27765 0.81831 0.50556 0.0
C1212 C 0.28007 0.80944 0.53886 0.0
H1213 H 0.28071 0.92202 0.57494 0.0
H1214 H 0.28231 0.89154 0.5691 0.0
C1215 C 0.27974 0.7919 0.53881 0.0
C1216 C 0.27727 0.83688 0.50585 0.0
H1217 H 0.30122 0.87155 0.52364 0.0
C1218 C 0.2621 0.84499 0.49743 0.0
C1219 C 0.29158 0.84654 0.51511 0.0
C1220 C 0.3083 0.83844 0.52328 0.0
C1221 C 0.26072 0.86254 0.49903 0.0
C1222 C 0.27504 0.87224 0.5084 0.0
C1223 C 0.29026 0.86411 0.51642 0.0
C1224 C 0.27435 0.89082 0.51125 0.0
C1225 C 0.24381 0.87046 0.49193 0.0
C1226 C 0.26961 0.9006 0.48047 0.0
C1227 C 0.26845 0.91806 0.48385 0.0
C1228 C 0.27218 0.9261 0.51802 0.0
C1229 C 0.2774 0.91626 0.54844 0.0
C1230 C 0.27847 0.89882 0.54508 0.0
H1231 H 0.23344 0.86127 0.49492 0.0
H1232 H 0.24158 0.8811 0.51143 0.0
H1233 H 0.24337 0.87533 0.463 0.0
H1234 H 0.26672 0.89473 0.45385 0.0
H1235 H 0.26432 0.9252 0.45989 0.0
H1236 H 0.71777 0.78042 0.05874 0.0
H1237 H 0.68709 0.78021 0.05712 0.0
H1238 H 0.68787 0.77336 0.9377 0.0
H1239 H 0.71854 0.77351 0.93887 0.0
H1240 H 0.66445 0.80168 0.01449 0.0
H1241 H 0.65845 0.73414 0.97747 0.0
H1242 H 0.67754 0.74304 0.99647 0.0
H1243 H 0.67216 0.74612 0.94823 0.0
C1244 C 0.71146 0.77887 0.03207 0.0
C1245 C 0.72069 0.77687 0.99894 0.0
C1246 C 0.69391 0.77879 0.03124 0.0
C1247 C 0.68524 0.77655 0.99738 0.0
C1248 C 0.69435 0.77486 0.9642 0.0
H1249 H 0.58144 0.76683 0.92974 0.0
H1250 H 0.61198 0.76848 0.93389 0.0
C1251 C 0.71189 0.77503 0.96494 0.0
C1252 C 0.66665 0.77596 0.99672 0.0
H1253 H 0.63349 0.75021 0.9771 0.0
C1254 C 0.65764 0.79043 0.00649 0.0
C1255 C 0.65786 0.76124 0.98628 0.0
C1256 C 0.66694 0.74518 0.97678 0.0
C1257 C 0.64001 0.79071 0.00516 0.0
C1258 C 0.63119 0.776 0.99459 0.0
C1259 C 0.64025 0.76149 0.98515 0.0
C1260 C 0.61258 0.77542 0.99237 0.0
C1261 C 0.63103 0.8069 0.01401 0.0
C1262 C 0.60273 0.77863 0.02397 0.0
C1263 C 0.58521 0.77789 0.02159 0.0
C1264 C 0.57718 0.77378 0.98761 0.0
C1265 C 0.58714 0.77036 0.95617 0.0
C1266 C 0.60463 0.77116 0.95855 0.0
H1267 H 0.6395 0.81791 0.01179 0.0
H1268 H 0.62013 0.80877 0.995 0.0
H1269 H 0.62632 0.80646 0.04307 0.0
H1270 H 0.60859 0.7816 0.05056 0.0
H1271 H 0.57795 0.78069 0.04631 0.0
loop_
_geom_bond_atom_site_label_1
_geom_bond_atom_site_label_2
_geom_bond_distance
_geom_bond_site_symmetry_2
_ccdc_geom_bond_type
Sc0 O3 2.025 . S
Sc0 O10 2.105 . S
Sc0 O13 2.105 . S
Sc0 O16 2.105 . S
Sc0 O19 2.105 . S
Sc1 O3 2.025 . S
Sc1 O11 2.105 . S
Sc1 O15 2.105 1_554 S
Sc1 O17 2.105 . S
Sc1 O21 2.105 1_554 S
Sc2 O3 2.025 1_556 S
Sc2 O12 2.105 . S
Sc2 O14 2.105 . S
Sc2 O18 2.105 . S
Sc2 O20 2.105 . S
O3 Sc0 2.025 . S
O3 Sc1 2.025 . S
O3 Sc2 2.025 1_554 S
C4 O10 1.268 . S
C4 O20 1.268 1_554 S
C5 O11 1.268 . S
C5 O19 1.268 . S
C6 O12 1.268 . S
C6 O21 1.268 . S
C7 O13 1.268 . S
C7 O17 1.268 . S
C8 O14 1.268 1_554 S
C8 O16 1.268 . S
C9 O15 1.268 . S
C9 O18 1.268 . S
O10 Sc0 2.105 . S
O10 C4 1.268 . S
O11 Sc1 2.105 . S
O11 C5 1.268 . S
O12 Sc2 2.105 . S
O12 C6 1.268 . S
O13 Sc0 2.105 . S
O13 C7 1.268 . S
O14 Sc2 2.105 . S
O14 C8 1.268 1_556 S
O15 Sc1 2.105 1_556 S
O15 C9 1.268 . S
O16 Sc0 2.105 . S
O16 C8 1.268 . S
O17 Sc1 2.105 . S
O17 C7 1.268 . S
O18 Sc2 2.105 . S
O18 C9 1.268 . S
O19 Sc0 2.105 . S
O19 C5 1.268 . S
O20 Sc2 2.105 . S
O20 C4 1.268 1_556 S
O21 Sc1 2.105 1_556 S
O21 C6 1.268 . S
Sc22 O25 2.025 . S
Sc22 O32 2.105 . S
Sc22 O35 2.105 . S
Sc22 O38 2.105 . S
Sc22 O41 2.105 . S
Sc23 O25 2.025 . S
Sc23 O33 2.105 . S
Sc23 O37 2.105 . S
Sc23 O39 2.105 . S
Sc23 O43 2.105 . S
Sc24 O25 2.025 . S
Sc24 O34 2.105 . S
Sc24 O36 2.105 . S
Sc24 O40 2.105 . S
Sc24 O42 2.105 . S
O25 Sc22 2.025 . S
O25 Sc23 2.025 . S
O25 Sc24 2.025 . S
C26 O32 1.268 . S
C26 O42 1.268 . S
C27 O33 1.268 . S
C27 O41 1.268 . S
C28 O34 1.268 . S
C28 O43 1.268 . S
C29 O35 1.268 . S
C29 O39 1.268 . S
C30 O36 1.268 . S
C30 O38 1.268 . S
C31 O37 1.268 . S
C31 O40 1.268 . S
O32 Sc22 2.105 . S
O32 C26 1.268 . S
O33 Sc23 2.105 . S
O33 C27 1.268 . S
O34 Sc24 2.105 . S
O34 C28 1.268 . S
O35 Sc22 2.105 . S
O35 C29 1.268 . S
O36 Sc24 2.105 . S
O36 C30 1.268 . S
O37 Sc23 2.105 . S
O37 C31 1.268 . S
O38 Sc22 2.105 . S
O38 C30 1.268 . S
O39 Sc23 2.105 . S
O39 C29 1.268 . S
O40 Sc24 2.105 . S
O40 C31 1.268 . S
O41 Sc22 2.105 . S
O41 C27 1.268 . S
O42 Sc24 2.105 . S
O42 C26 1.268 . S
O43 Sc23 2.105 . S
O43 C28 1.268 . S
Sc44 O47 2.025 1_556 S
Sc44 O54 2.105 . S
Sc44 O57 2.105 . S
Sc44 O60 2.105 . S
Sc44 O63 2.105 . S
Sc45 O47 2.025 . S
Sc45 O55 2.105 1_554 S
Sc45 O59 2.105 . S
Sc45 O61 2.105 1_554 S
Sc45 O65 2.105 . S
Sc46 O47 2.025 . S
Sc46 O56 2.105 . S
Sc46 O58 2.105 . S
Sc46 O62 2.105 . S
Sc46 O64 2.105 . S
O47 Sc44 2.025 1_554 S
O47 Sc45 2.025 . S
O47 Sc46 2.025 . S
C48 O54 1.268 1_554 S
C48 O64 1.268 . S
C49 O55 1.268 . S
C49 O63 1.268 . S
C50 O56 1.268 . S
C50 O65 1.268 . S
C51 O57 1.268 . S
C51 O61 1.268 . S
C52 O58 1.268 . S
C52 O60 1.268 1_554 S
C53 O59 1.268 . S
C53 O62 1.268 . S
O54 Sc44 2.105 . S
O54 C48 1.268 1_556 S
O55 Sc45 2.105 1_556 S
O55 C49 1.268 . S
O56 Sc46 2.105 . S
O56 C50 1.268 . S
O57 Sc44 2.105 . S
O57 C51 1.268 . S
O58 Sc46 2.105 . S
O58 C52 1.268 . S
O59 Sc45 2.105 . S
O59 C53 1.268 . S
O60 Sc44 2.105 . S
O60 C52 1.268 1_556 S
O61 Sc45 2.105 1_556 S
O61 C51 1.268 . S
O62 Sc46 2.105 . S
O62 C53 1.268 . S
O63 Sc44 2.105 . S
O63 C49 1.268 . S
O64 Sc46 2.105 . S
O64 C48 1.268 . S
O65 Sc45 2.105 . S
O65 C50 1.268 . S
Sc66 O69 2.025 . S
Sc66 O76 2.105 . S
Sc66 O79 2.105 . S
Sc66 O82 2.105 . S
Sc66 O85 2.105 . S
Sc67 O69 2.025 . S
Sc67 O77 2.105 . S
Sc67 O81 2.105 . S
Sc67 O83 2.105 . S
Sc67 O87 2.105 . S
Sc68 O69 2.025 . S
Sc68 O78 2.105 . S
Sc68 O80 2.105 . S
Sc68 O84 2.105 . S
Sc68 O86 2.105 . S
O69 Sc66 2.025 . S
O69 Sc67 2.025 . S
O69 Sc68 2.025 . S
C70 O76 1.268 . S
C70 O86 1.268 . S
C71 O77 1.268 . S
C71 O85 1.268 . S
C72 O78 1.268 . S
C72 O87 1.268 . S
C73 O79 1.268 . S
C73 O83 1.268 . S
C74 O80 1.268 . S
C74 O82 1.268 . S
C75 O81 1.268 . S
C75 O84 1.268 . S
O76 Sc66 2.105 . S
O76 C70 1.268 . S
O77 Sc67 2.105 . S
O77 C71 1.268 . S
O78 Sc68 2.105 . S
O78 C72 1.268 . S
O79 Sc66 2.105 . S
O79 C73 1.268 . S
O80 Sc68 2.105 . S
O80 C74 1.268 . S
O81 Sc67 2.105 . S
O81 C75 1.268 . S
O82 Sc66 2.105 . S
O82 C74 1.268 . S
O83 Sc67 2.105 . S
O83 C73 1.268 . S
O84 Sc68 2.105 . S
O84 C75 1.268 . S
O85 Sc66 2.105 . S
O85 C71 1.268 . S
O86 Sc68 2.105 . S
O86 C70 1.268 . S
O87 Sc67 2.105 . S
O87 C72 1.268 . S
C88 C89 1.264 . S
C88 C93 1.479 . S
C88 C98 1.465 . S
C89 C88 1.264 . S
C89 C91 1.339 . S
C89 H116 0.931 . S
C90 C91 1.395 . S
C90 C92 1.320 . S
C91 C89 1.339 . S
C91 C90 1.395 . S
C91 H117 0.929 . S
C92 C90 1.320 . S
C92 C93 1.405 . S
C92 H118 0.930 . S
C93 C88 1.479 . S
C93 C92 1.405 . S
C93 H119 0.931 . S
U94 O95 2.454 . S
U94 O96 2.458 1_556 S
U94 C97 2.984 . S
U94 C98 2.847 . S
U94 C111 2.882 1_556 S
U94 O112 2.441 . S
U94 O113 2.420 . S
U94 O114 2.455 1_556 S
U94 O115 2.449 1_556 S
O95 U94 2.454 . S
O95 C97 1.353 . S
O96 U94 2.458 1_554 S
O96 C97 1.286 1_554 S
C97 U94 2.984 . S
C97 O95 1.353 . S
C97 O96 1.286 1_556 S
C97 C99 1.363 . S
C98 C88 1.465 . S
C98 U94 2.847 . S
C98 O112 1.249 . S
C98 O113 1.202 . S
C99 C97 1.363 . S
C99 C101 1.412 . S
C99 C104 1.338 1_556 S
C100 C101 1.310 . S
C100 C103 1.461 1_556 S
C100 H120 0.932 . S
C101 C99 1.412 . S
C101 C100 1.310 . S
C101 H121 0.930 . S
C102 C103 1.474 . S
C102 C104 1.285 . S
C102 H122 0.929 . S
C103 C100 1.461 1_554 S
C103 C102 1.474 . S
C104 C99 1.338 1_554 S
C104 C102 1.285 . S
C104 H123 0.930 . S
C105 C108 1.424 . S
C105 C110 1.245 . S
C105 C111 1.428 . S
C106 C109 1.260 . S
C106 C110 1.477 . S
C106 H124 0.932 . S
C107 C108 1.384 . S
C107 C109 1.479 . S
C107 H125 0.929 . S
C108 C105 1.424 . S
C108 C107 1.384 . S
C108 H126 0.928 . S
C109 C106 1.260 . S
C109 C107 1.479 . S
C110 C105 1.245 . S
C110 C106 1.477 . S
C110 H127 0.932 . S
C111 U94 2.882 1_554 S
C111 C105 1.428 . S
C111 O114 1.301 . S
C111 O115 1.282 . S
O112 U94 2.441 . S
O112 C98 1.249 . S
O113 U94 2.420 . S
O113 C98 1.202 . S
O114 U94 2.455 1_554 S
O114 C111 1.301 . S
O115 U94 2.449 1_554 S
O115 C111 1.282 . S
H116 C89 0.931 . S
H117 C91 0.929 . S
H118 C92 0.930 . S
H119 C93 0.931 . S
H120 C100 0.932 . S
H121 C101 0.930 . S
H122 C102 0.929 . S
H123 C104 0.930 . S
H124 C106 0.932 . S
H125 C107 0.929 . S
H126 C108 0.928 . S
H127 C110 0.932 . S
C128 C129 1.264 . S
C128 C133 1.479 . S
C128 C138 1.465 . S
C129 C128 1.264 . S
C129 C131 1.339 . S
C129 H156 0.931 . S
C130 C131 1.395 . S
C130 C132 1.320 . S
C131 C129 1.339 . S
C131 C130 1.395 . S
C131 H157 0.929 . S
C132 C130 1.320 . S
C132 C133 1.405 . S
C132 H158 0.930 . S
C133 C128 1.479 . S
C133 C132 1.405 . S
C133 H159 0.931 . S
U134 O135 2.454 1_655 S
U134 O136 2.458 1_655 S
U134 C137 2.984 1_655 S
U134 C138 2.847 . S
U134 C151 2.882 . S
U134 O152 2.441 . S
U134 O153 2.420 . S
U134 O154 2.455 . S
U134 O155 2.449 . S
O135 U134 2.454 1_455 S
O135 C137 1.353 . S
O136 U134 2.458 1_455 S
O136 C137 1.286 . S
C137 U134 2.984 1_455 S
C137 O135 1.353 . S
C137 O136 1.286 . S
C137 C139 1.363 . S
C138 C128 1.465 . S
C138 U134 2.847 . S
C138 O152 1.249 . S
C138 O153 1.202 . S
C139 C137 1.363 . S
C139 C141 1.408 . S
C139 C144 1.342 . S
C140 C141 1.310 . S
C140 C143 1.461 . S
C140 H160 0.932 . S
C141 C139 1.408 . S
C141 C140 1.310 . S
C141 H161 0.930 . S
C142 C143 1.474 . S
C142 C144 1.285 . S
C142 H162 0.929 . S
C143 C140 1.461 . S
C143 C142 1.474 . S
C144 C139 1.342 . S
C144 C142 1.285 . S
C144 H163 0.930 . S
C145 C148 1.424 . S
C145 C150 1.245 . S
C145 C151 1.428 . S
C146 C149 1.260 . S
C146 C150 1.477 . S
C146 H164 0.932 . S
C147 C148 1.384 . S
C147 C149 1.479 . S
C147 H165 0.929 . S
C148 C145 1.424 . S
C148 C147 1.384 . S
C148 H166 0.928 . S
C149 C146 1.260 . S
C149 C147 1.479 . S
C150 C145 1.245 . S
C150 C146 1.477 . S
C150 H167 0.932 . S
C151 U134 2.882 . S
C151 C145 1.428 . S
C151 O154 1.301 . S
C151 O155 1.282 . S
O152 U134 2.441 . S
O152 C138 1.249 . S
O153 U134 2.420 . S
O153 C138 1.202 . S
O154 U134 2.455 . S
O154 C151 1.301 . S
O155 U134 2.449 . S
O155 C151 1.282 . S
H156 C129 0.931 . S
H157 C131 0.929 . S
H158 C132 0.930 . S
H159 C133 0.931 . S
H160 C140 0.932 . S
H161 C141 0.930 . S
H162 C142 0.929 . S
H163 C144 0.930 . S
H164 C146 0.932 . S
H165 C147 0.929 . S
H166 C148 0.928 . S
H167 C150 0.932 . S
C168 C169 1.264 . S
C168 C173 1.479 . S
C168 C178 1.465 . S
C169 C168 1.264 . S
C169 C171 1.339 . S
C169 H196 0.931 . S
C170 C171 1.395 . S
C170 C172 1.320 . S
C171 C169 1.339 . S
C171 C170 1.395 . S
C171 H197 0.929 . S
C172 C170 1.320 . S
C172 C173 1.405 . S
C172 H198 0.930 . S
C173 C168 1.479 . S
C173 C172 1.405 . S
C173 H199 0.931 . S
U174 O175 2.454 . S
U174 O176 2.458 1_554 S
U174 C177 2.984 . S
U174 C178 2.847 . S
U174 C191 2.882 1_554 S
U174 O192 2.441 . S
U174 O193 2.420 . S
U174 O194 2.455 1_554 S
U174 O195 2.449 1_554 S
O175 U174 2.454 . S
O175 C177 1.353 . S
O176 U174 2.458 1_556 S
O176 C177 1.286 1_556 S
C177 U174 2.984 . S
C177 O175 1.353 . S
C177 O176 1.286 1_554 S
C177 C179 1.363 . S
C178 C168 1.465 . S
C178 U174 2.847 . S
C178 O192 1.249 . S
C178 O193 1.202 . S
C179 C177 1.363 . S
C179 C181 1.408 . S
C179 C184 1.342 1_554 S
C180 C181 1.310 . S
C180 C183 1.461 . S
C180 H200 0.932 . S
C181 C179 1.408 . S
C181 C180 1.310 . S
C181 H201 0.930 . S
C182 C183 1.474 1_556 S
C182 C184 1.285 . S
C182 H202 0.929 . S
C183 C180 1.461 . S
C183 C182 1.474 1_554 S
C184 C179 1.342 1_556 S
C184 C182 1.285 . S
C184 H203 0.930 . S
C185 C188 1.424 . S
C185 C190 1.245 . S
C185 C191 1.428 . S
C186 C189 1.260 . S
C186 C190 1.477 . S
C186 H204 0.932 . S
C187 C188 1.384 . S
C187 C189 1.479 . S
C187 H205 0.929 . S
C188 C185 1.424 . S
C188 C187 1.384 . S
C188 H206 0.928 . S
C189 C186 1.260 . S
C189 C187 1.479 . S
C190 C185 1.245 . S
C190 C186 1.477 . S
C190 H207 0.932 . S
C191 U174 2.882 1_556 S
C191 C185 1.428 . S
C191 O194 1.301 . S
C191 O195 1.282 . S
O192 U174 2.441 . S
O192 C178 1.249 . S
O193 U174 2.420 . S
O193 C178 1.202 . S
O194 U174 2.455 1_556 S
O194 C191 1.301 . S
O195 U174 2.449 1_556 S
O195 C191 1.282 . S
H196 C169 0.931 . S
H197 C171 0.929 . S
H198 C172 0.930 . S
H199 C173 0.931 . S
H200 C180 0.932 . S
H201 C181 0.930 . S
H202 C182 0.929 . S
H203 C184 0.930 . S
H204 C186 0.932 . S
H205 C187 0.929 . S
H206 C188 0.928 . S
H207 C190 0.932 . S
C208 C209 1.264 . S
C208 C213 1.479 . S
C208 C218 1.465 . S
C209 C208 1.264 . S
C209 C211 1.339 . S
C209 H236 0.931 . S
C210 C211 1.395 . S
C210 C212 1.320 . S
C211 C209 1.339 . S
C211 C210 1.395 . S
C211 H237 0.929 . S
C212 C210 1.320 . S
C212 C213 1.405 . S
C212 H238 0.930 . S
C213 C208 1.479 . S
C213 C212 1.405 . S
C213 H239 0.931 . S
U214 O215 2.454 1_455 S
U214 O216 2.458 1_455 S
U214 C217 2.984 1_455 S
U214 C218 2.847 . S
U214 C231 2.882 . S
U214 O232 2.441 . S
U214 O233 2.420 . S
U214 O234 2.455 . S
U214 O235 2.449 . S
O215 U214 2.454 1_655 S
O215 C217 1.353 . S
O216 U214 2.458 1_655 S
O216 C217 1.286 . S
C217 U214 2.984 1_655 S
C217 O215 1.353 . S
C217 O216 1.286 . S
C217 C219 1.363 . S
C218 C208 1.465 . S
C218 U214 2.847 . S
C218 O232 1.249 . S
C218 O233 1.202 . S
C219 C217 1.363 . S
C219 C221 1.408 . S
C219 C224 1.342 . S
C220 C221 1.310 . S
C220 C223 1.461 . S
C220 H240 0.932 . S
C221 C219 1.408 . S
C221 C220 1.310 . S
C221 H241 0.930 . S
C222 C223 1.474 . S
C222 C224 1.285 . S
C222 H242 0.929 . S
C223 C220 1.461 . S
C223 C222 1.474 . S
C224 C219 1.342 . S
C224 C222 1.285 . S
C224 H243 0.930 . S
C225 C228 1.424 . S
C225 C230 1.245 . S
C225 C231 1.428 . S
C226 C229 1.260 . S
C226 C230 1.477 . S
C226 H244 0.932 . S
C227 C228 1.384 . S
C227 C229 1.479 . S
C227 H245 0.929 . S
C228 C225 1.424 . S
C228 C227 1.384 . S
C228 H246 0.928 . S
C229 C226 1.260 . S
C229 C227 1.479 . S
C230 C225 1.245 . S
C230 C226 1.477 . S
C230 H247 0.932 . S
C231 U214 2.882 . S
C231 C225 1.428 . S
C231 O234 1.301 . S
C231 O235 1.282 . S
O232 U214 2.441 . S
O232 C218 1.249 . S
O233 U214 2.420 . S
O233 C218 1.202 . S
O234 U214 2.455 . S
O234 C231 1.301 . S
O235 U214 2.449 . S
O235 C231 1.282 . S
H236 C209 0.931 . S
H237 C211 0.929 . S
H238 C212 0.930 . S
H239 C213 0.931 . S
H240 C220 0.932 . S
H241 C221 0.930 . S
H242 C222 0.929 . S
H243 C224 0.930 . S
H244 C226 0.932 . S
H245 C227 0.929 . S
H246 C228 0.928 . S
H247 C230 0.932 . S
C248 C249 1.264 . S
C248 C253 1.479 . S
C248 C258 1.465 . S
C249 C248 1.264 . S
C249 C251 1.339 . S
C249 H276 0.931 . S
C250 C251 1.395 . S
C250 C252 1.320 . S
C251 C249 1.339 . S
C251 C250 1.395 . S
C251 H277 0.929 . S
C252 C250 1.320 . S
C252 C253 1.405 . S
C252 H278 0.930 . S
C253 C248 1.479 . S
C253 C252 1.405 . S
C253 H279 0.931 . S
U254 O255 2.454 1_565 S
U254 O256 2.458 1_565 S
U254 C257 2.984 1_565 S
U254 C258 2.847 . S
U254 C271 2.882 . S
U254 O272 2.441 . S
U254 O273 2.420 . S
U254 O274 2.455 . S
U254 O275 2.449 . S
O255 U254 2.454 1_545 S
O255 C257 1.353 . S
O256 U254 2.458 1_545 S
O256 C257 1.286 . S
C257 U254 2.984 1_545 S
C257 O255 1.353 . S
C257 O256 1.286 . S
C257 C259 1.363 . S
C258 C248 1.465 . S
C258 U254 2.847 . S
C258 O272 1.249 . S
C258 O273 1.202 . S
C259 C257 1.363 . S
C259 C261 1.408 . S
C259 C264 1.342 . S
C260 C261 1.310 . S
C260 C263 1.461 . S
C260 H280 0.932 . S
C261 C259 1.408 . S
C261 C260 1.310 . S
C261 H281 0.930 . S
C262 C263 1.474 . S
C262 C264 1.285 . S
C262 H282 0.929 . S
C263 C260 1.461 . S
C263 C262 1.474 . S
C264 C259 1.342 . S
C264 C262 1.285 . S
C264 H283 0.930 . S
C265 C268 1.424 . S
C265 C270 1.245 . S
C265 C271 1.428 . S
C266 C269 1.260 . S
C266 C270 1.477 . S
C266 H284 0.932 . S
C267 C268 1.384 . S
C267 C269 1.479 . S
C267 H285 0.929 . S
C268 C265 1.424 . S
C268 C267 1.384 . S
C268 H286 0.928 . S
C269 C266 1.260 . S
C269 C267 1.479 . S
C270 C265 1.245 . S
C270 C266 1.477 . S
C270 H287 0.932 . S
C271 U254 2.882 . S
C271 C265 1.428 . S
C271 O274 1.301 . S
C271 O275 1.282 . S
O272 U254 2.441 . S
O272 C258 1.249 . S
O273 U254 2.420 . S
O273 C258 1.202 . S
O274 U254 2.455 . S
O274 C271 1.301 . S
O275 U254 2.449 . S
O275 C271 1.282 . S
H276 C249 0.931 . S
H277 C251 0.929 . S
H278 C252 0.930 . S
H279 C253 0.931 . S
H280 C260 0.932 . S
H281 C261 0.930 . S
H282 C262 0.929 . S
H283 C264 0.930 . S
H284 C266 0.932 . S
H285 C267 0.929 . S
H286 C268 0.928 . S
H287 C270 0.932 . S
C288 C289 1.264 . S
C288 C293 1.479 . S
C288 C298 1.465 . S
C289 C288 1.264 . S
C289 C291 1.339 . S
C289 H316 0.931 . S
C290 C291 1.395 . S
C290 C292 1.320 . S
C291 C289 1.339 . S
C291 C290 1.395 . S
C291 H317 0.929 . S
C292 C290 1.320 . S
C292 C293 1.405 . S
C292 H318 0.930 . S
C293 C288 1.479 . S
C293 C292 1.405 . S
C293 H319 0.931 . S
U294 O295 2.454 . S
U294 O296 2.458 1_556 S
U294 C297 2.984 . S
U294 C298 2.847 . S
U294 C311 2.882 1_556 S
U294 O312 2.441 . S
U294 O313 2.420 . S
U294 O314 2.455 1_556 S
U294 O315 2.449 1_556 S
O295 U294 2.454 . S
O295 C297 1.353 . S
O296 U294 2.458 1_554 S
O296 C297 1.286 1_554 S
C297 U294 2.984 . S
C297 O295 1.353 . S
C297 O296 1.286 1_556 S
C297 C299 1.363 . S
C298 C288 1.465 . S
C298 U294 2.847 . S
C298 O312 1.249 . S
C298 O313 1.202 . S
C299 C297 1.363 . S
C299 C301 1.409 . S
C299 C304 1.341 1_556 S
C300 C301 1.310 . S
C300 C303 1.461 1_556 S
C300 H320 0.932 . S
C301 C299 1.409 . S
C301 C300 1.310 . S
C301 H321 0.930 . S
C302 C303 1.474 . S
C302 C304 1.285 . S
C302 H322 0.929 . S
C303 C300 1.461 1_554 S
C303 C302 1.474 . S
C304 C299 1.341 1_554 S
C304 C302 1.285 . S
C304 H323 0.930 . S
C305 C308 1.424 . S
C305 C310 1.245 . S
C305 C311 1.428 . S
C306 C309 1.260 . S
C306 C310 1.477 . S
C306 H324 0.932 . S
C307 C308 1.384 . S
C307 C309 1.479 . S
C307 H325 0.929 . S
C308 C305 1.424 . S
C308 C307 1.384 . S
C308 H326 0.928 . S
C309 C306 1.260 . S
C309 C307 1.479 . S
C310 C305 1.245 . S
C310 C306 1.477 . S
C310 H327 0.932 . S
C311 U294 2.882 1_554 S
C311 C305 1.428 . S
C311 O314 1.301 . S
C311 O315 1.282 . S
O312 U294 2.441 . S
O312 C298 1.249 . S
O313 U294 2.420 . S
O313 C298 1.202 . S
O314 U294 2.455 1_554 S
O314 C311 1.301 . S
O315 U294 2.449 1_554 S
O315 C311 1.282 . S
H316 C289 0.931 . S
H317 C291 0.929 . S
H318 C292 0.930 . S
H319 C293 0.931 . S
H320 C300 0.932 . S
H321 C301 0.930 . S
H322 C302 0.929 . S
H323 C304 0.930 . S
H324 C306 0.932 . S
H325 C307 0.929 . S
H326 C308 0.928 . S
H327 C310 0.932 . S
C328 C329 1.264 . S
C328 C333 1.479 . S
C328 C338 1.465 . S
C329 C328 1.264 . S
C329 C331 1.339 . S
C329 H356 0.931 . S
C330 C331 1.395 . S
C330 C332 1.320 . S
C331 C329 1.339 . S
C331 C330 1.395 . S
C331 H357 0.929 . S
C332 C330 1.320 . S
C332 C333 1.405 . S
C332 H358 0.930 . S
C333 C328 1.479 . S
C333 C332 1.405 . S
C333 H359 0.931 . S
U334 O335 2.454 1_545 S
U334 O336 2.458 1_545 S
U334 C337 2.984 1_545 S
U334 C338 2.847 . S
U334 C351 2.882 . S
U334 O352 2.441 . S
U334 O353 2.420 . S
U334 O354 2.455 . S
U334 O355 2.449 . S
O335 U334 2.454 1_565 S
O335 C337 1.353 . S
O336 U334 2.458 1_565 S
O336 C337 1.286 . S
C337 U334 2.984 1_565 S
C337 O335 1.353 . S
C337 O336 1.286 . S
C337 C339 1.363 . S
C338 C328 1.465 . S
C338 U334 2.847 . S
C338 O352 1.249 . S
C338 O353 1.202 . S
C339 C337 1.363 . S
C339 C341 1.408 . S
C339 C344 1.342 . S
C340 C341 1.310 . S
C340 C343 1.461 . S
C340 H360 0.932 . S
C341 C339 1.408 . S
C341 C340 1.310 . S
C341 H361 0.930 . S
C342 C343 1.474 . S
C342 C344 1.285 . S
C342 H362 0.929 . S
C343 C340 1.461 . S
C343 C342 1.474 . S
C344 C339 1.342 . S
C344 C342 1.285 . S
C344 H363 0.930 . S
C345 C348 1.424 . S
C345 C350 1.245 . S
C345 C351 1.428 . S
C346 C349 1.260 . S
C346 C350 1.477 . S
C346 H364 0.932 . S
C347 C348 1.384 . S
C347 C349 1.479 . S
C347 H365 0.929 . S
C348 C345 1.424 . S
C348 C347 1.384 . S
C348 H366 0.928 . S
C349 C346 1.260 . S
C349 C347 1.479 . S
C350 C345 1.245 . S
C350 C346 1.477 . S
C350 H367 0.932 . S
C351 U334 2.882 . S
C351 C345 1.428 . S
C351 O354 1.301 . S
C351 O355 1.282 . S
O352 U334 2.441 . S
O352 C338 1.249 . S
O353 U334 2.420 . S
O353 C338 1.202 . S
O354 U334 2.455 . S
O354 C351 1.301 . S
O355 U334 2.449 . S
O355 C351 1.282 . S
H356 C329 0.931 . S
H357 C331 0.929 . S
H358 C332 0.930 . S
H359 C333 0.931 . S
H360 C340 0.932 . S
H361 C341 0.930 . S
H362 C342 0.929 . S
H363 C344 0.930 . S
H364 C346 0.932 . S
H365 C347 0.929 . S
H366 C348 0.928 . S
H367 C350 0.932 . S
C368 C369 1.264 . S
C368 C373 1.479 . S
C368 C378 1.465 . S
C369 C368 1.264 . S
C369 C371 1.339 . S
C369 H396 0.931 . S
C370 C371 1.395 . S
C370 C372 1.320 . S
C371 C369 1.339 . S
C371 C370 1.395 . S
C371 H397 0.929 . S
C372 C370 1.320 . S
C372 C373 1.405 . S
C372 H398 0.930 . S
C373 C368 1.479 . S
C373 C372 1.405 . S
C373 H399 0.931 . S
U374 O375 2.454 . S
U374 O376 2.458 1_554 S
U374 C377 2.984 . S
U374 C378 2.847 . S
U374 C391 2.882 1_554 S
U374 O392 2.441 . S
U374 O393 2.420 . S
U374 O394 2.455 1_554 S
U374 O395 2.449 1_554 S
O375 U374 2.454 . S
O375 C377 1.353 . S
O376 U374 2.458 1_556 S
O376 C377 1.286 1_556 S
C377 U374 2.984 . S
C377 O375 1.353 . S
C377 O376 1.286 1_554 S
C377 C379 1.363 . S
C378 C368 1.465 . S
C378 U374 2.847 . S
C378 O392 1.249 . S
C378 O393 1.202 . S
C379 C377 1.363 . S
C379 C381 1.408 . S
C379 C384 1.342 1_554 S
C380 C381 1.310 . S
C380 C383 1.461 . S
C380 H400 0.932 . S
C381 C379 1.408 . S
C381 C380 1.310 . S
C381 H401 0.930 . S
C382 C383 1.474 1_556 S
C382 C384 1.285 . S
C382 H402 0.929 . S
C383 C380 1.461 . S
C383 C382 1.474 1_554 S
C384 C379 1.342 1_556 S
C384 C382 1.285 . S
C384 H403 0.930 . S
C385 C388 1.424 . S
C385 C390 1.245 . S
C385 C391 1.428 . S
C386 C389 1.260 . S
C386 C390 1.477 . S
C386 H404 0.932 . S
C387 C388 1.384 . S
C387 C389 1.479 . S
C387 H405 0.929 . S
C388 C385 1.424 . S
C388 C387 1.384 . S
C388 H406 0.928 . S
C389 C386 1.260 . S
C389 C387 1.479 . S
C390 C385 1.245 . S
C390 C386 1.477 . S
C390 H407 0.932 . S
C391 U374 2.882 1_556 S
C391 C385 1.428 . S
C391 O394 1.301 . S
C391 O395 1.282 . S
O392 U374 2.441 . S
O392 C378 1.249 . S
O393 U374 2.420 . S
O393 C378 1.202 . S
O394 U374 2.455 1_556 S
O394 C391 1.301 . S
O395 U374 2.449 1_556 S
O395 C391 1.282 . S
H396 C369 0.931 . S
H397 C371 0.929 . S
H398 C372 0.930 . S
H399 C373 0.931 . S
H400 C380 0.932 . S
H401 C381 0.930 . S
H402 C382 0.929 . S
H403 C384 0.930 . S
H404 C386 0.932 . S
H405 C387 0.929 . S
H406 C388 0.928 . S
H407 C390 0.932 . S
H408 C416 0.929 . S
H409 C418 0.930 . S
H410 C420 0.930 . S
H411 C423 0.929 . S
H412 C426 0.930 . S
H413 C428 0.960 . S
H414 C428 0.960 . S
H415 C428 0.960 . S
C416 H408 0.929 . S
C416 C417 1.377 . S
C416 C418 1.384 . S
C417 C416 1.377 . S
C417 C423 1.390 . S
C418 H409 0.930 . S
C418 C416 1.384 . S
C418 C419 1.372 . S
C419 C418 1.372 . S
C419 C420 1.400 . S
C419 C424 1.490 . S
C420 H410 0.930 . S
C420 C419 1.400 . S
C420 C423 1.386 . S
H421 C437 0.930 . S
H422 C438 0.931 . S
C423 H411 0.929 . S
C423 C417 1.390 . S
C423 C420 1.386 . S
C424 C419 1.490 . S
C424 C426 1.395 . S
C424 C427 1.403 . S
H425 C431 0.930 . S
C426 H412 0.930 . S
C426 C424 1.395 . S
C426 C429 1.403 . S
C427 C424 1.403 . S
C427 C428 1.524 . S
C427 C431 1.400 . S
C428 H413 0.960 . S
C428 H414 0.960 . S
C428 H415 0.960 . S
C428 C427 1.524 . S
C429 C426 1.403 . S
C429 C430 1.392 . S
C429 C433 1.495 . S
C430 C429 1.392 . S
C430 C431 1.385 . S
C430 C432 1.478 . S
C431 H425 0.930 . S
C431 C427 1.400 . S
C431 C430 1.385 . S
C432 C430 1.478 . S
C432 C434 1.381 . S
C432 C438 1.383 . S
C433 C429 1.495 . S
C433 H439 0.959 . S
C433 H440 0.961 . S
C433 H441 0.960 . S
C434 C432 1.381 . S
C434 C435 1.394 . S
C434 H442 0.930 . S
C435 C434 1.394 . S
C435 C436 1.383 . S
C435 H443 0.929 . S
C436 C435 1.383 . S
C436 C437 1.377 . S
C437 H421 0.930 . S
C437 C436 1.377 . S
C437 C438 1.379 . S
C438 H422 0.931 . S
C438 C432 1.383 . S
C438 C437 1.379 . S
H439 C433 0.959 . S
H440 C433 0.961 . S
H441 C433 0.960 . S
H442 C434 0.930 . S
H443 C435 0.929 . S
H444 C452 0.929 . S
H445 C454 0.930 . S
H446 C456 0.930 . S
H447 C459 0.929 . S
H448 C462 0.930 . S
H449 C464 0.960 . S
H450 C464 0.960 . S
H451 C464 0.960 . S
C452 H444 0.929 . S
C452 C453 1.377 . S
C452 C454 1.384 . S
C453 C452 1.377 . S
C453 C459 1.390 . S
C454 H445 0.930 . S
C454 C452 1.384 . S
C454 C455 1.372 . S
C455 C454 1.372 . S
C455 C456 1.400 . S
C455 C460 1.490 . S
C456 H446 0.930 . S
C456 C455 1.400 . S
C456 C459 1.386 . S
H457 C473 0.930 . S
H458 C474 0.931 . S
C459 H447 0.929 . S
C459 C453 1.390 . S
C459 C456 1.386 . S
C460 C455 1.490 . S
C460 C462 1.395 . S
C460 C463 1.403 . S
H461 C467 0.930 . S
C462 H448 0.930 . S
C462 C460 1.395 . S
C462 C465 1.403 . S
C463 C460 1.403 . S
C463 C464 1.524 . S
C463 C467 1.400 . S
C464 H449 0.960 . S
C464 H450 0.960 . S
C464 H451 0.960 . S
C464 C463 1.524 . S
C465 C462 1.403 . S
C465 C466 1.392 . S
C465 C469 1.495 . S
C466 C465 1.392 . S
C466 C467 1.385 . S
C466 C468 1.478 . S
C467 H461 0.930 . S
C467 C463 1.400 . S
C467 C466 1.385 . S
C468 C466 1.478 . S
C468 C470 1.381 . S
C468 C474 1.383 . S
C469 C465 1.495 . S
C469 H475 0.959 . S
C469 H476 0.961 . S
C469 H477 0.960 . S
C470 C468 1.381 . S
C470 C471 1.394 . S
C470 H478 0.930 . S
C471 C470 1.394 . S
C471 C472 1.383 . S
C471 H479 0.929 . S
C472 C471 1.383 . S
C472 C473 1.377 . S
C473 H457 0.930 . S
C473 C472 1.377 . S
C473 C474 1.379 . S
C474 H458 0.931 . S
C474 C468 1.383 . S
C474 C473 1.379 . S
H475 C469 0.959 . S
H476 C469 0.961 . S
H477 C469 0.960 . S
H478 C470 0.930 . S
H479 C471 0.929 . S
H480 C488 0.929 . S
H481 C490 0.930 . S
H482 C492 0.930 . S
H483 C495 0.929 . S
H484 C498 0.930 . S
H485 C500 0.960 . S
H486 C500 0.960 . S
H487 C500 0.960 . S
C488 H480 0.929 . S
C488 C489 1.377 . S
C488 C490 1.384 . S
C489 C488 1.377 . S
C489 C495 1.390 . S
C490 H481 0.930 . S
C490 C488 1.384 . S
C490 C491 1.372 . S
C491 C490 1.372 . S
C491 C492 1.400 . S
C491 C496 1.490 . S
C492 H482 0.930 . S
C492 C491 1.400 . S
C492 C495 1.386 . S
H493 C509 0.930 . S
H494 C510 0.931 . S
C495 H483 0.929 . S
C495 C489 1.390 . S
C495 C492 1.386 . S
C496 C491 1.490 . S
C496 C498 1.395 . S
C496 C499 1.403 . S
H497 C503 0.930 . S
C498 H484 0.930 . S
C498 C496 1.395 . S
C498 C501 1.403 . S
C499 C496 1.403 . S
C499 C500 1.524 . S
C499 C503 1.400 . S
C500 H485 0.960 . S
C500 H486 0.960 . S
C500 H487 0.960 . S
C500 C499 1.524 . S
C501 C498 1.403 . S
C501 C502 1.392 . S
C501 C505 1.495 . S
C502 C501 1.392 . S
C502 C503 1.385 . S
C502 C504 1.478 . S
C503 H497 0.930 . S
C503 C499 1.400 . S
C503 C502 1.385 . S
C504 C502 1.478 . S
C504 C506 1.381 . S
C504 C510 1.383 . S
C505 C501 1.495 . S
C505 H511 0.959 . S
C505 H512 0.961 . S
C505 H513 0.960 . S
C506 C504 1.381 . S
C506 C507 1.394 . S
C506 H514 0.930 . S
C507 C506 1.394 . S
C507 C508 1.383 . S
C507 H515 0.929 . S
C508 C507 1.383 . S
C508 C509 1.377 . S
C509 H493 0.930 . S
C509 C508 1.377 . S
C509 C510 1.379 . S
C510 H494 0.931 . S
C510 C504 1.383 . S
C510 C509 1.379 . S
H511 C505 0.959 . S
H512 C505 0.961 . S
H513 C505 0.960 . S
H514 C506 0.930 . S
H515 C507 0.929 . S
H516 C524 0.929 . S
H517 C526 0.930 . S
H518 C528 0.930 . S
H519 C531 0.929 . S
H520 C534 0.930 . S
H521 C536 0.960 . S
H522 C536 0.960 . S
H523 C536 0.960 . S
C524 H516 0.929 . S
C524 C525 1.377 . S
C524 C526 1.384 . S
C525 C524 1.377 . S
C525 C531 1.390 . S
C526 H517 0.930 . S
C526 C524 1.384 . S
C526 C527 1.372 . S
C527 C526 1.372 . S
C527 C528 1.400 . S
C527 C532 1.490 . S
C528 H518 0.930 . S
C528 C527 1.400 . S
C528 C531 1.386 . S
H529 C545 0.930 . S
H530 C546 0.931 . S
C531 H519 0.929 . S
C531 C525 1.390 . S
C531 C528 1.386 . S
C532 C527 1.490 . S
C532 C534 1.395 . S
C532 C535 1.403 . S
H533 C539 0.930 . S
C534 H520 0.930 . S
C534 C532 1.395 . S
C534 C537 1.403 . S
C535 C532 1.403 . S
C535 C536 1.524 . S
C535 C539 1.400 . S
C536 H521 0.960 . S
C536 H522 0.960 . S
C536 H523 0.960 . S
C536 C535 1.524 . S
C537 C534 1.403 . S
C537 C538 1.392 . S
C537 C541 1.495 . S
C538 C537 1.392 . S
C538 C539 1.385 . S
C538 C540 1.478 . S
C539 H533 0.930 . S
C539 C535 1.400 . S
C539 C538 1.385 . S
C540 C538 1.478 . S
C540 C542 1.381 . S
C540 C546 1.383 . S
C541 C537 1.495 . S
C541 H547 0.959 . S
C541 H548 0.961 . S
C541 H549 0.960 . S
C542 C540 1.381 . S
C542 C543 1.394 . S
C542 H550 0.930 . S
C543 C542 1.394 . S
C543 C544 1.383 . S
C543 H551 0.929 . S
C544 C543 1.383 . S
C544 C545 1.377 . S
C545 H529 0.930 . S
C545 C544 1.377 . S
C545 C546 1.379 . S
C546 H530 0.931 . S
C546 C540 1.383 . S
C546 C545 1.379 . S
H547 C541 0.959 . S
H548 C541 0.961 . S
H549 C541 0.960 . S
H550 C542 0.930 . S
H551 C543 0.929 . S
H552 C560 0.929 . S
H553 C562 0.930 . S
H554 C564 0.930 . S
H555 C567 0.929 . S
H556 C570 0.930 . S
H557 C572 0.960 . S
H558 C572 0.960 . S
H559 C572 0.960 . S
C560 H552 0.929 . S
C560 C561 1.377 . S
C560 C562 1.384 . S
C561 C560 1.377 . S
C561 C567 1.390 . S
C562 H553 0.930 . S
C562 C560 1.384 . S
C562 C563 1.372 . S
C563 C562 1.372 . S
C563 C564 1.400 . S
C563 C568 1.490 . S
C564 H554 0.930 . S
C564 C563 1.400 . S
C564 C567 1.386 . S
H565 C581 0.930 . S
H566 C582 0.931 . S
C567 H555 0.929 . S
C567 C561 1.390 . S
C567 C564 1.386 . S
C568 C563 1.490 . S
C568 C570 1.395 . S
C568 C571 1.403 . S
H569 C575 0.930 . S
C570 H556 0.930 . S
C570 C568 1.395 . S
C570 C573 1.403 . S
C571 C568 1.403 . S
C571 C572 1.524 . S
C571 C575 1.400 . S
C572 H557 0.960 . S
C572 H558 0.960 . S
C572 H559 0.960 . S
C572 C571 1.524 . S
C573 C570 1.403 . S
C573 C574 1.392 . S
C573 C577 1.495 . S
C574 C573 1.392 . S
C574 C575 1.385 . S
C574 C576 1.478 . S
C575 H569 0.930 . S
C575 C571 1.400 . S
C575 C574 1.385 . S
C576 C574 1.478 . S
C576 C578 1.381 . S
C576 C582 1.383 . S
C577 C573 1.495 . S
C577 H583 0.959 . S
C577 H584 0.961 . S
C577 H585 0.960 . S
C578 C576 1.381 . S
C578 C579 1.394 . S
C578 H586 0.930 . S
C579 C578 1.394 . S
C579 C580 1.383 . S
C579 H587 0.929 . S
C580 C579 1.383 . S
C580 C581 1.377 . S
C581 H565 0.930 . S
C581 C580 1.377 . S
C581 C582 1.379 . S
C582 H566 0.931 . S
C582 C576 1.383 . S
C582 C581 1.379 . S
H583 C577 0.959 . S
H584 C577 0.961 . S
H585 C577 0.960 . S
H586 C578 0.930 . S
H587 C579 0.929 . S
H588 C596 0.929 . S
H589 C598 0.930 . S
H590 C600 0.930 . S
H591 C603 0.929 . S
H592 C606 0.930 . S
H593 C608 0.960 . S
H594 C608 0.960 . S
H595 C608 0.960 . S
C596 H588 0.929 . S
C596 C597 1.377 . S
C596 C598 1.384 . S
C597 C596 1.377 . S
C597 C603 1.390 . S
C598 H589 0.930 . S
C598 C596 1.384 . S
C598 C599 1.372 . S
C599 C598 1.372 . S
C599 C600 1.400 . S
C599 C604 1.490 . S
C600 H590 0.930 . S
C600 C599 1.400 . S
C600 C603 1.386 . S
H601 C617 0.930 . S
H602 C618 0.931 . S
C603 H591 0.929 . S
C603 C597 1.390 . S
C603 C600 1.386 . S
C604 C599 1.490 . S
C604 C606 1.395 . S
C604 C607 1.403 . S
H605 C611 0.930 . S
C606 H592 0.930 . S
C606 C604 1.395 . S
C606 C609 1.403 . S
C607 C604 1.403 . S
C607 C608 1.524 . S
C607 C611 1.400 . S
C608 H593 0.960 . S
C608 H594 0.960 . S
C608 H595 0.960 . S
C608 C607 1.524 . S
C609 C606 1.403 . S
C609 C610 1.392 . S
C609 C613 1.495 . S
C610 C609 1.392 . S
C610 C611 1.385 . S
C610 C612 1.478 . S
C611 H605 0.930 . S
C611 C607 1.400 . S
C611 C610 1.385 . S
C612 C610 1.478 . S
C612 C614 1.381 . S
C612 C618 1.383 . S
C613 C609 1.495 . S
C613 H619 0.959 . S
C613 H620 0.961 . S
C613 H621 0.960 . S
C614 C612 1.381 . S
C614 C615 1.394 . S
C614 H622 0.930 . S
C615 C614 1.394 . S
C615 C616 1.383 . S
C615 H623 0.929 . S
C616 C615 1.383 . S
C616 C617 1.377 . S
C617 H601 0.930 . S
C617 C616 1.377 . S
C617 C618 1.379 . S
C618 H602 0.931 . S
C618 C612 1.383 . S
C618 C617 1.379 . S
H619 C613 0.959 . S
H620 C613 0.961 . S
H621 C613 0.960 . S
H622 C614 0.930 . S
H623 C615 0.929 . S
H624 C632 0.929 . S
H625 C634 0.930 . S
H626 C636 0.930 . S
H627 C639 0.929 . S
H628 C642 0.930 . S
H629 C644 0.960 . S
H630 C644 0.960 . S
H631 C644 0.960 . S
C632 H624 0.929 . S
C632 C633 1.377 . S
C632 C634 1.384 . S
C633 C632 1.377 . S
C633 C639 1.390 . S
C634 H625 0.930 . S
C634 C632 1.384 . S
C634 C635 1.372 . S
C635 C634 1.372 . S
C635 C636 1.400 . S
C635 C640 1.490 . S
C636 H626 0.930 . S
C636 C635 1.400 . S
C636 C639 1.386 . S
H637 C653 0.930 . S
H638 C654 0.931 . S
C639 H627 0.929 . S
C639 C633 1.390 . S
C639 C636 1.386 . S
C640 C635 1.490 . S
C640 C642 1.395 . S
C640 C643 1.403 . S
H641 C647 0.930 . S
C642 H628 0.930 . S
C642 C640 1.395 . S
C642 C645 1.403 . S
C643 C640 1.403 . S
C643 C644 1.524 . S
C643 C647 1.400 . S
C644 H629 0.960 . S
C644 H630 0.960 . S
C644 H631 0.960 . S
C644 C643 1.524 . S
C645 C642 1.403 . S
C645 C646 1.392 . S
C645 C649 1.495 . S
C646 C645 1.392 . S
C646 C647 1.385 . S
C646 C648 1.478 . S
C647 H641 0.930 . S
C647 C643 1.400 . S
C647 C646 1.385 . S
C648 C646 1.478 . S
C648 C650 1.381 . S
C648 C654 1.383 . S
C649 C645 1.495 . S
C649 H655 0.959 . S
C649 H656 0.961 . S
C649 H657 0.960 . S
C650 C648 1.381 . S
C650 C651 1.394 . S
C650 H658 0.930 . S
C651 C650 1.394 . S
C651 C652 1.383 . S
C651 H659 0.929 . S
C652 C651 1.383 . S
C652 C653 1.377 . S
C653 H637 0.930 . S
C653 C652 1.377 . S
C653 C654 1.379 . S
C654 H638 0.931 . S
C654 C648 1.383 . S
C654 C653 1.379 . S
H655 C649 0.959 . S
H656 C649 0.961 . S
H657 C649 0.960 . S
H658 C650 0.930 . S
H659 C651 0.929 . S
H660 C668 0.929 . S
H661 C670 0.930 . S
H662 C672 0.930 . S
H663 C675 0.929 . S
H664 C678 0.930 . S
H665 C680 0.960 . S
H666 C680 0.960 . S
H667 C680 0.960 . S
C668 H660 0.929 . S
C668 C669 1.377 . S
C668 C670 1.384 . S
C669 C668 1.377 . S
C669 C675 1.390 . S
C670 H661 0.930 . S
C670 C668 1.384 . S
C670 C671 1.372 . S
C671 C670 1.372 . S
C671 C672 1.400 . S
C671 C676 1.490 . S
C672 H662 0.930 . S
C672 C671 1.400 . S
C672 C675 1.386 . S
H673 C689 0.930 . S
H674 C690 0.931 . S
C675 H663 0.929 . S
C675 C669 1.390 . S
C675 C672 1.386 . S
C676 C671 1.490 . S
C676 C678 1.395 . S
C676 C679 1.403 . S
H677 C683 0.930 . S
C678 H664 0.930 . S
C678 C676 1.395 . S
C678 C681 1.403 . S
C679 C676 1.403 . S
C679 C680 1.524 . S
C679 C683 1.400 . S
C680 H665 0.960 . S
C680 H666 0.960 . S
C680 H667 0.960 . S
C680 C679 1.524 . S
C681 C678 1.403 . S
C681 C682 1.392 . S
C681 C685 1.495 . S
C682 C681 1.392 . S
C682 C683 1.385 . S
C682 C684 1.478 . S
C683 H677 0.930 . S
C683 C679 1.400 . S
C683 C682 1.385 . S
C684 C682 1.478 . S
C684 C686 1.381 . S
C684 C690 1.383 . S
C685 C681 1.495 . S
C685 H691 0.959 . S
C685 H692 0.961 . S
C685 H693 0.960 . S
C686 C684 1.381 . S
C686 C687 1.394 . S
C686 H694 0.930 . S
C687 C686 1.394 . S
C687 C688 1.383 . S
C687 H695 0.929 . S
C688 C687 1.383 . S
C688 C689 1.377 . S
C689 H673 0.930 . S
C689 C688 1.377 . S
C689 C690 1.379 . S
C690 H674 0.931 . S
C690 C684 1.383 . S
C690 C689 1.379 . S
H691 C685 0.959 . S
H692 C685 0.961 . S
H693 C685 0.960 . S
H694 C686 0.930 . S
H695 C687 0.929 . S
H696 C704 0.929 . S
H697 C706 0.930 . S
H698 C708 0.930 . S
H699 C711 0.929 . S
H700 C714 0.930 . S
H701 C716 0.960 . S
H702 C716 0.960 . S
H703 C716 0.960 . S
C704 H696 0.929 . S
C704 C705 1.377 . S
C704 C706 1.384 . S
C705 C704 1.377 . S
C705 C711 1.390 . S
C706 H697 0.930 . S
C706 C704 1.384 . S
C706 C707 1.372 . S
C707 C706 1.372 . S
C707 C708 1.400 . S
C707 C712 1.490 . S
C708 H698 0.930 . S
C708 C707 1.400 . S
C708 C711 1.386 . S
H709 C725 0.930 . S
H710 C726 0.931 . S
C711 H699 0.929 . S
C711 C705 1.390 . S
C711 C708 1.386 . S
C712 C707 1.490 . S
C712 C714 1.395 . S
C712 C715 1.403 . S
H713 C719 0.930 . S
C714 H700 0.930 . S
C714 C712 1.395 . S
C714 C717 1.403 . S
C715 C712 1.403 . S
C715 C716 1.524 . S
C715 C719 1.400 . S
C716 H701 0.960 . S
C716 H702 0.960 . S
C716 H703 0.960 . S
C716 C715 1.524 . S
C717 C714 1.403 . S
C717 C718 1.392 . S
C717 C721 1.495 . S
C718 C717 1.392 . S
C718 C719 1.385 . S
C718 C720 1.478 . S
C719 H713 0.930 . S
C719 C715 1.400 . S
C719 C718 1.385 . S
C720 C718 1.478 . S
C720 C722 1.381 . S
C720 C726 1.383 . S
C721 C717 1.495 . S
C721 H727 0.959 . S
C721 H728 0.961 . S
C721 H729 0.960 . S
C722 C720 1.381 . S
C722 C723 1.394 . S
C722 H730 0.930 . S
C723 C722 1.394 . S
C723 C724 1.383 . S
C723 H731 0.929 . S
C724 C723 1.383 . S
C724 C725 1.377 . S
C725 H709 0.930 . S
C725 C724 1.377 . S
C725 C726 1.379 . S
C726 H710 0.931 . S
C726 C720 1.383 . S
C726 C725 1.379 . S
H727 C721 0.959 . S
H728 C721 0.961 . S
H729 C721 0.960 . S
H730 C722 0.930 . S
H731 C723 0.929 . S
H732 C740 0.929 . S
H733 C742 0.930 . S
H734 C744 0.930 . S
H735 C747 0.929 . S
H736 C750 0.930 . S
H737 C752 0.960 . S
H738 C752 0.960 . S
H739 C752 0.960 . S
C740 H732 0.929 . S
C740 C741 1.377 . S
C740 C742 1.384 . S
C741 C740 1.377 . S
C741 C747 1.390 . S
C742 H733 0.930 . S
C742 C740 1.384 . S
C742 C743 1.372 . S
C743 C742 1.372 . S
C743 C744 1.400 . S
C743 C748 1.490 . S
C744 H734 0.930 . S
C744 C743 1.400 . S
C744 C747 1.386 . S
H745 C761 0.930 . S
H746 C762 0.931 . S
C747 H735 0.929 . S
C747 C741 1.390 . S
C747 C744 1.386 . S
C748 C743 1.490 . S
C748 C750 1.395 . S
C748 C751 1.403 . S
H749 C755 0.930 . S
C750 H736 0.930 . S
C750 C748 1.395 . S
C750 C753 1.403 . S
C751 C748 1.403 . S
C751 C752 1.524 . S
C751 C755 1.400 . S
C752 H737 0.960 . S
C752 H738 0.960 . S
C752 H739 0.960 . S
C752 C751 1.524 . S
C753 C750 1.403 . S
C753 C754 1.392 . S
C753 C757 1.495 . S
C754 C753 1.392 . S
C754 C755 1.385 . S
C754 C756 1.478 . S
C755 H749 0.930 . S
C755 C751 1.400 . S
C755 C754 1.385 . S
C756 C754 1.478 . S
C756 C758 1.381 . S
C756 C762 1.383 . S
C757 C753 1.495 . S
C757 H763 0.959 . S
C757 H764 0.961 . S
C757 H765 0.960 . S
C758 C756 1.381 . S
C758 C759 1.394 . S
C758 H766 0.930 . S
C759 C758 1.394 . S
C759 C760 1.383 . S
C759 H767 0.929 . S
C760 C759 1.383 . S
C760 C761 1.377 . S
C761 H745 0.930 . S
C761 C760 1.377 . S
C761 C762 1.379 . S
C762 H746 0.931 . S
C762 C756 1.383 . S
C762 C761 1.379 . S
H763 C757 0.959 . S
H764 C757 0.961 . S
H765 C757 0.960 . S
H766 C758 0.930 . S
H767 C759 0.929 . S
H768 C776 0.929 . S
H769 C778 0.930 . S
H770 C780 0.930 . S
H771 C783 0.929 . S
H772 C786 0.930 . S
H773 C788 0.960 . S
H774 C788 0.960 . S
H775 C788 0.960 . S
C776 H768 0.929 . S
C776 C777 1.377 . S
C776 C778 1.384 . S
C777 C776 1.377 . S
C777 C783 1.390 . S
C778 H769 0.930 . S
C778 C776 1.384 . S
C778 C779 1.372 . S
C779 C778 1.372 . S
C779 C780 1.400 . S
C779 C784 1.490 . S
C780 H770 0.930 . S
C780 C779 1.400 . S
C780 C783 1.386 . S
H781 C797 0.930 . S
H782 C798 0.931 . S
C783 H771 0.929 . S
C783 C777 1.390 . S
C783 C780 1.386 . S
C784 C779 1.490 . S
C784 C786 1.395 . S
C784 C787 1.403 . S
H785 C791 0.930 . S
C786 H772 0.930 . S
C786 C784 1.395 . S
C786 C789 1.403 . S
C787 C784 1.403 . S
C787 C788 1.524 . S
C787 C791 1.400 . S
C788 H773 0.960 . S
C788 H774 0.960 . S
C788 H775 0.960 . S
C788 C787 1.524 . S
C789 C786 1.403 . S
C789 C790 1.392 . S
C789 C793 1.495 . S
C790 C789 1.392 . S
C790 C791 1.385 . S
C790 C792 1.478 . S
C791 H785 0.930 . S
C791 C787 1.400 . S
C791 C790 1.385 . S
C792 C790 1.478 . S
C792 C794 1.381 . S
C792 C798 1.383 . S
C793 C789 1.495 . S
C793 H799 0.959 . S
C793 H800 0.961 . S
C793 H801 0.960 . S
C794 C792 1.381 . S
C794 C795 1.394 . S
C794 H802 0.930 . S
C795 C794 1.394 . S
C795 C796 1.383 . S
C795 H803 0.929 . S
C796 C795 1.383 . S
C796 C797 1.377 . S
C797 H781 0.930 . S
C797 C796 1.377 . S
C797 C798 1.379 . S
C798 H782 0.931 . S
C798 C792 1.383 . S
C798 C797 1.379 . S
H799 C793 0.959 . S
H800 C793 0.961 . S
H801 C793 0.960 . S
H802 C794 0.930 . S
H803 C795 0.929 . S
H804 C812 0.929 . S
H805 C814 0.930 . S
H806 C816 0.930 . S
H807 C819 0.929 . S
H808 C822 0.930 . S
H809 C824 0.960 . S
H810 C824 0.960 . S
H811 C824 0.960 . S
C812 H804 0.929 . S
C812 C813 1.377 . S
C812 C814 1.384 . S
C813 C812 1.377 . S
C813 C819 1.390 . S
C814 H805 0.930 . S
C814 C812 1.384 . S
C814 C815 1.372 . S
C815 C814 1.372 . S
C815 C816 1.400 . S
C815 C820 1.490 . S
C816 H806 0.930 . S
C816 C815 1.400 . S
C816 C819 1.386 . S
H817 C833 0.930 . S
H818 C834 0.931 . S
C819 H807 0.929 . S
C819 C813 1.390 . S
C819 C816 1.386 . S
C820 C815 1.490 . S
C820 C822 1.395 . S
C820 C823 1.403 . S
H821 C827 0.930 . S
C822 H808 0.930 . S
C822 C820 1.395 . S
C822 C825 1.403 . S
C823 C820 1.403 . S
C823 C824 1.524 . S
C823 C827 1.400 . S
C824 H809 0.960 . S
C824 H810 0.960 . S
C824 H811 0.960 . S
C824 C823 1.524 . S
C825 C822 1.403 . S
C825 C826 1.392 . S
C825 C829 1.495 . S
C826 C825 1.392 . S
C826 C827 1.385 . S
C826 C828 1.478 . S
C827 H821 0.930 . S
C827 C823 1.400 . S
C827 C826 1.385 . S
C828 C826 1.478 . S
C828 C830 1.381 . S
C828 C834 1.383 . S
C829 C825 1.495 . S
C829 H835 0.959 . S
C829 H836 0.961 . S
C829 H837 0.960 . S
C830 C828 1.381 . S
C830 C831 1.394 . S
C830 H838 0.930 . S
C831 C830 1.394 . S
C831 C832 1.383 . S
C831 H839 0.929 . S
C832 C831 1.383 . S
C832 C833 1.377 . S
C833 H817 0.930 . S
C833 C832 1.377 . S
C833 C834 1.379 . S
C834 H818 0.931 . S
C834 C828 1.383 . S
C834 C833 1.379 . S
H835 C829 0.959 . S
H836 C829 0.961 . S
H837 C829 0.960 . S
H838 C830 0.930 . S
H839 C831 0.929 . S
H840 C848 0.929 . S
H841 C850 0.930 . S
H842 C852 0.930 . S
H843 C855 0.929 . S
H844 C858 0.930 . S
H845 C860 0.960 . S
H846 C860 0.960 . S
H847 C860 0.960 . S
C848 H840 0.929 . S
C848 C849 1.377 . S
C848 C850 1.384 . S
C849 C848 1.377 . S
C849 C855 1.390 . S
C850 H841 0.930 . S
C850 C848 1.384 . S
C850 C851 1.372 . S
C851 C850 1.372 . S
C851 C852 1.400 . S
C851 C856 1.490 . S
C852 H842 0.930 . S
C852 C851 1.400 . S
C852 C855 1.386 . S
H853 C869 0.930 . S
H854 C870 0.931 . S
C855 H843 0.929 . S
C855 C849 1.390 . S
C855 C852 1.386 . S
C856 C851 1.490 . S
C856 C858 1.395 . S
C856 C859 1.403 . S
H857 C863 0.930 . S
C858 H844 0.930 . S
C858 C856 1.395 . S
C858 C861 1.403 . S
C859 C856 1.403 . S
C859 C860 1.524 . S
C859 C863 1.400 . S
C860 H845 0.960 . S
C860 H846 0.960 . S
C860 H847 0.960 . S
C860 C859 1.524 . S
C861 C858 1.403 . S
C861 C862 1.392 . S
C861 C865 1.495 . S
C862 C861 1.392 . S
C862 C863 1.385 . S
C862 C864 1.478 . S
C863 H857 0.930 . S
C863 C859 1.400 . S
C863 C862 1.385 . S
C864 C862 1.478 . S
C864 C866 1.381 . S
C864 C870 1.383 . S
C865 C861 1.495 . S
C865 H871 0.959 . S
C865 H872 0.961 . S
C865 H873 0.960 . S
C866 C864 1.381 . S
C866 C867 1.394 . S
C866 H874 0.930 . S
C867 C866 1.394 . S
C867 C868 1.383 . S
C867 H875 0.929 . S
C868 C867 1.383 . S
C868 C869 1.377 . S
C869 H853 0.930 . S
C869 C868 1.377 . S
C869 C870 1.379 . S
C870 H854 0.931 . S
C870 C864 1.383 . S
C870 C869 1.379 . S
H871 C865 0.959 . S
H872 C865 0.961 . S
H873 C865 0.960 . S
H874 C866 0.930 . S
H875 C867 0.929 . S
H876 C884 0.929 . S
H877 C886 0.930 . S
H878 C888 0.930 . S
H879 C891 0.929 . S
H880 C894 0.930 . S
H881 C896 0.960 . S
H882 C896 0.960 . S
H883 C896 0.960 . S
C884 H876 0.929 . S
C884 C885 1.377 . S
C884 C886 1.384 . S
C885 C884 1.377 . S
C885 C891 1.390 . S
C886 H877 0.930 . S
C886 C884 1.384 . S
C886 C887 1.372 . S
C887 C886 1.372 . S
C887 C888 1.400 . S
C887 C892 1.490 . S
C888 H878 0.930 . S
C888 C887 1.400 . S
C888 C891 1.386 . S
H889 C905 0.930 . S
H890 C906 0.931 . S
C891 H879 0.929 . S
C891 C885 1.390 . S
C891 C888 1.386 . S
C892 C887 1.490 . S
C892 C894 1.395 . S
C892 C895 1.403 . S
H893 C899 0.930 . S
C894 H880 0.930 . S
C894 C892 1.395 . S
C894 C897 1.403 . S
C895 C892 1.403 . S
C895 C896 1.524 . S
C895 C899 1.400 . S
C896 H881 0.960 . S
C896 H882 0.960 . S
C896 H883 0.960 . S
C896 C895 1.524 . S
C897 C894 1.403 . S
C897 C898 1.392 . S
C897 C901 1.495 . S
C898 C897 1.392 . S
C898 C899 1.385 . S
C898 C900 1.478 . S
C899 H893 0.930 . S
C899 C895 1.400 . S
C899 C898 1.385 . S
C900 C898 1.478 . S
C900 C902 1.381 . S
C900 C906 1.383 . S
C901 C897 1.495 . S
C901 H907 0.959 . S
C901 H908 0.961 . S
C901 H909 0.960 . S
C902 C900 1.381 . S
C902 C903 1.394 . S
C902 H910 0.930 . S
C903 C902 1.394 . S
C903 C904 1.383 . S
C903 H911 0.929 . S
C904 C903 1.383 . S
C904 C905 1.377 . S
C905 H889 0.930 . S
C905 C904 1.377 . S
C905 C906 1.379 . S
C906 H890 0.931 . S
C906 C900 1.383 . S
C906 C905 1.379 . S
H907 C901 0.959 . S
H908 C901 0.961 . S
H909 C901 0.960 . S
H910 C902 0.930 . S
H911 C903 0.929 . S
H912 C920 0.929 . S
H913 C922 0.930 . S
H914 C924 0.930 . S
H915 C927 0.929 . S
H916 C930 0.930 . S
H917 C932 0.960 . S
H918 C932 0.960 . S
H919 C932 0.960 . S
C920 H912 0.929 . S
C920 C921 1.377 . S
C920 C922 1.384 . S
C921 C920 1.377 . S
C921 C927 1.390 . S
C922 H913 0.930 . S
C922 C920 1.384 . S
C922 C923 1.372 . S
C923 C922 1.372 . S
C923 C924 1.400 . S
C923 C928 1.490 . S
C924 H914 0.930 . S
C924 C923 1.400 . S
C924 C927 1.386 . S
H925 C941 0.930 . S
H926 C942 0.931 . S
C927 H915 0.929 . S
C927 C921 1.390 . S
C927 C924 1.386 . S
C928 C923 1.490 . S
C928 C930 1.395 . S
C928 C931 1.403 . S
H929 C935 0.930 . S
C930 H916 0.930 . S
C930 C928 1.395 . S
C930 C933 1.403 . S
C931 C928 1.403 . S
C931 C932 1.524 . S
C931 C935 1.400 . S
C932 H917 0.960 . S
C932 H918 0.960 . S
C932 H919 0.960 . S
C932 C931 1.524 . S
C933 C930 1.403 . S
C933 C934 1.392 . S
C933 C937 1.495 . S
C934 C933 1.392 . S
C934 C935 1.385 . S
C934 C936 1.478 . S
C935 H929 0.930 . S
C935 C931 1.400 . S
C935 C934 1.385 . S
C936 C934 1.478 . S
C936 C938 1.381 . S
C936 C942 1.383 . S
C937 C933 1.495 . S
C937 H943 0.959 . S
C937 H944 0.961 . S
C937 H945 0.960 . S
C938 C936 1.381 . S
C938 C939 1.394 . S
C938 H946 0.930 . S
C939 C938 1.394 . S
C939 C940 1.383 . S
C939 H947 0.929 . S
C940 C939 1.383 . S
C940 C941 1.377 . S
C941 H925 0.930 . S
C941 C940 1.377 . S
C941 C942 1.379 . S
C942 H926 0.931 . S
C942 C936 1.383 . S
C942 C941 1.379 . S
H943 C937 0.959 . S
H944 C937 0.961 . S
H945 C937 0.960 . S
H946 C938 0.930 . S
H947 C939 0.929 . S
H948 C956 0.929 . S
H949 C958 0.930 . S
H950 C960 0.930 . S
H951 C963 0.929 . S
H952 C966 0.930 . S
H953 C968 0.960 . S
H954 C968 0.960 . S
H955 C968 0.960 . S
C956 H948 0.929 . S
C956 C957 1.377 . S
C956 C958 1.384 . S
C957 C956 1.377 . S
C957 C963 1.390 . S
C958 H949 0.930 . S
C958 C956 1.384 . S
C958 C959 1.372 . S
C959 C958 1.372 . S
C959 C960 1.400 . S
C959 C964 1.490 . S
C960 H950 0.930 . S
C960 C959 1.400 . S
C960 C963 1.386 . S
H961 C977 0.930 . S
H962 C978 0.931 . S
C963 H951 0.929 . S
C963 C957 1.390 . S
C963 C960 1.386 . S
C964 C959 1.490 . S
C964 C966 1.395 . S
C964 C967 1.403 . S
H965 C971 0.930 . S
C966 H952 0.930 . S
C966 C964 1.395 . S
C966 C969 1.403 . S
C967 C964 1.403 . S
C967 C968 1.524 . S
C967 C971 1.400 . S
C968 H953 0.960 . S
C968 H954 0.960 . S
C968 H955 0.960 . S
C968 C967 1.524 . S
C969 C966 1.403 . S
C969 C970 1.392 . S
C969 C973 1.495 . S
C970 C969 1.392 . S
C970 C971 1.385 . S
C970 C972 1.478 . S
C971 H965 0.930 . S
C971 C967 1.400 . S
C971 C970 1.385 . S
C972 C970 1.478 . S
C972 C974 1.381 . S
C972 C978 1.383 . S
C973 C969 1.495 . S
C973 H979 0.959 . S
C973 H980 0.961 . S
C973 H981 0.960 . S
C974 C972 1.381 . S
C974 C975 1.394 . S
C974 H982 0.930 . S
C975 C974 1.394 . S
C975 C976 1.383 . S
C975 H983 0.929 . S
C976 C975 1.383 . S
C976 C977 1.377 . S
C977 H961 0.930 . S
C977 C976 1.377 . S
C977 C978 1.379 . S
C978 H962 0.931 . S
C978 C972 1.383 . S
C978 C977 1.379 . S
H979 C973 0.959 . S
H980 C973 0.961 . S
H981 C973 0.960 . S
H982 C974 0.930 . S
H983 C975 0.929 . S
H984 C992 0.929 . S
H985 C994 0.930 . S
H986 C996 0.930 . S
H987 C999 0.929 . S
H988 C1002 0.929 1_556 S
H989 C1004 0.960 . S
H990 C1004 0.960 . S
H991 C1004 0.960 1_556 S
C992 H984 0.929 . S
C992 C993 1.377 . S
C992 C994 1.384 . S
C993 C992 1.377 . S
C993 C999 1.390 1_554 S
C994 H985 0.930 . S
C994 C992 1.384 . S
C994 C995 1.372 . S
C995 C994 1.372 . S
C995 C996 1.400 1_554 S
C995 C1000 1.490 . S
C996 H986 0.930 . S
C996 C995 1.400 1_556 S
C996 C999 1.386 . S
H997 C1013 0.930 . S
H998 C1014 0.931 . S
C999 H987 0.929 . S
C999 C993 1.390 1_556 S
C999 C996 1.386 . S
C1000 C995 1.490 . S
C1000 C1002 1.395 . S
C1000 C1003 1.403 . S
H1001 C1007 0.930 . S
C1002 H988 0.929 1_554 S
C1002 C1000 1.395 . S
C1002 C1005 1.404 . S
C1003 C1000 1.403 . S
C1003 C1004 1.524 . S
C1003 C1007 1.400 . S
C1004 H989 0.960 . S
C1004 H990 0.960 . S
C1004 H991 0.960 1_554 S
C1004 C1003 1.524 . S
C1005 C1002 1.404 . S
C1005 C1006 1.393 . S
C1005 C1009 1.495 1_554 S
C1006 C1005 1.393 . S
C1006 C1007 1.385 . S
C1006 C1008 1.478 . S
C1007 H1001 0.930 . S
C1007 C1003 1.400 . S
C1007 C1006 1.385 . S
C1008 C1006 1.478 . S
C1008 C1010 1.381 . S
C1008 C1014 1.383 1_554 S
C1009 C1005 1.495 1_556 S
C1009 H1015 0.959 . S
C1009 H1016 0.961 . S
C1009 H1017 0.960 1_556 S
C1010 C1008 1.381 . S
C1010 C1011 1.394 . S
C1010 H1018 0.930 . S
C1011 C1010 1.394 . S
C1011 C1012 1.383 . S
C1011 H1019 0.929 . S
C1012 C1011 1.383 . S
C1012 C1013 1.377 1_554 S
C1013 H997 0.930 . S
C1013 C1012 1.377 1_556 S
C1013 C1014 1.379 . S
C1014 H998 0.931 . S
C1014 C1008 1.383 1_556 S
C1014 C1013 1.379 . S
H1015 C1009 0.959 . S
H1016 C1009 0.961 . S
H1017 C1009 0.960 1_554 S
H1018 C1010 0.930 . S
H1019 C1011 0.929 . S
H1020 C1028 0.929 . S
H1021 C1030 0.930 . S
H1022 C1032 0.930 . S
H1023 C1035 0.929 . S
H1024 C1038 0.930 . S
H1025 C1040 0.960 . S
H1026 C1040 0.960 . S
H1027 C1040 0.960 . S
C1028 H1020 0.929 . S
C1028 C1029 1.377 . S
C1028 C1030 1.384 . S
C1029 C1028 1.377 . S
C1029 C1035 1.390 . S
C1030 H1021 0.930 . S
C1030 C1028 1.384 . S
C1030 C1031 1.372 . S
C1031 C1030 1.372 . S
C1031 C1032 1.400 . S
C1031 C1036 1.490 . S
C1032 H1022 0.930 . S
C1032 C1031 1.400 . S
C1032 C1035 1.386 . S
H1033 C1049 0.930 . S
H1034 C1050 0.931 . S
C1035 H1023 0.929 . S
C1035 C1029 1.390 . S
C1035 C1032 1.386 . S
C1036 C1031 1.490 . S
C1036 C1038 1.395 . S
C1036 C1039 1.403 . S
H1037 C1043 0.930 . S
C1038 H1024 0.930 . S
C1038 C1036 1.395 . S
C1038 C1041 1.403 . S
C1039 C1036 1.403 . S
C1039 C1040 1.524 . S
C1039 C1043 1.400 . S
C1040 H1025 0.960 . S
C1040 H1026 0.960 . S
C1040 H1027 0.960 . S
C1040 C1039 1.524 . S
C1041 C1038 1.403 . S
C1041 C1042 1.392 . S
C1041 C1045 1.495 . S
C1042 C1041 1.392 . S
C1042 C1043 1.385 . S
C1042 C1044 1.478 . S
C1043 H1037 0.930 . S
C1043 C1039 1.400 . S
C1043 C1042 1.385 . S
C1044 C1042 1.478 . S
C1044 C1046 1.381 . S
C1044 C1050 1.383 . S
C1045 C1041 1.495 . S
C1045 H1051 0.959 . S
C1045 H1052 0.961 . S
C1045 H1053 0.960 . S
C1046 C1044 1.381 . S
C1046 C1047 1.394 . S
C1046 H1054 0.930 . S
C1047 C1046 1.394 . S
C1047 C1048 1.383 . S
C1047 H1055 0.929 . S
C1048 C1047 1.383 . S
C1048 C1049 1.377 . S
C1049 H1033 0.930 . S
C1049 C1048 1.377 . S
C1049 C1050 1.379 . S
C1050 H1034 0.931 . S
C1050 C1044 1.383 . S
C1050 C1049 1.379 . S
H1051 C1045 0.959 . S
H1052 C1045 0.961 . S
H1053 C1045 0.960 . S
H1054 C1046 0.930 . S
H1055 C1047 0.929 . S
H1056 C1064 0.929 . S
H1057 C1066 0.930 . S
H1058 C1068 0.930 . S
H1059 C1071 0.929 . S
H1060 C1074 0.930 . S
H1061 C1076 0.960 . S
H1062 C1076 0.960 . S
H1063 C1076 0.960 . S
C1064 H1056 0.929 . S
C1064 C1065 1.377 1_556 S
C1064 C1066 1.384 . S
C1065 C1064 1.377 1_554 S
C1065 C1071 1.390 . S
C1066 H1057 0.930 . S
C1066 C1064 1.384 . S
C1066 C1067 1.372 1_556 S
C1067 C1066 1.372 1_554 S
C1067 C1068 1.400 . S
C1067 C1072 1.490 . S
C1068 H1058 0.930 . S
C1068 C1067 1.400 . S
C1068 C1071 1.386 . S
H1069 C1085 0.930 . S
H1070 C1086 0.931 . S
C1071 H1059 0.929 . S
C1071 C1065 1.390 . S
C1071 C1068 1.386 . S
C1072 C1067 1.490 . S
C1072 C1074 1.395 . S
C1072 C1075 1.403 1_554 S
H1073 C1079 0.930 . S
C1074 H1060 0.930 . S
C1074 C1072 1.395 . S
C1074 C1077 1.403 . S
C1075 C1072 1.403 1_556 S
C1075 C1076 1.524 . S
C1075 C1079 1.400 . S
C1076 H1061 0.960 . S
C1076 H1062 0.960 . S
C1076 H1063 0.960 . S
C1076 C1075 1.524 . S
C1077 C1074 1.403 . S
C1077 C1078 1.392 . S
C1077 C1081 1.495 . S
C1078 C1077 1.392 . S
C1078 C1079 1.385 1_554 S
C1078 C1080 1.478 . S
C1079 H1073 0.930 . S
C1079 C1075 1.400 . S
C1079 C1078 1.385 1_556 S
C1080 C1078 1.478 . S
C1080 C1082 1.381 1_554 S
C1080 C1086 1.383 . S
C1081 C1077 1.495 . S
C1081 H1087 0.959 . S
C1081 H1088 0.961 . S
C1081 H1089 0.960 . S
C1082 C1080 1.381 1_556 S
C1082 C1083 1.394 . S
C1082 H1090 0.930 . S
C1083 C1082 1.394 . S
C1083 C1084 1.383 1_556 S
C1083 H1091 0.929 . S
C1084 C1083 1.383 1_554 S
C1084 C1085 1.377 . S
C1085 H1069 0.930 . S
C1085 C1084 1.377 . S
C1085 C1086 1.379 . S
C1086 H1070 0.931 . S
C1086 C1080 1.383 . S
C1086 C1085 1.379 . S
H1087 C1081 0.959 . S
H1088 C1081 0.961 . S
H1089 C1081 0.960 . S
H1090 C1082 0.930 . S
H1091 C1083 0.929 . S
H1092 C1100 0.929 . S
H1093 C1102 0.930 . S
H1094 C1104 0.930 . S
H1095 C1107 0.929 . S
H1096 C1110 0.930 . S
H1097 C1112 0.960 . S
H1098 C1112 0.960 . S
H1099 C1112 0.960 . S
C1100 H1092 0.929 . S
C1100 C1101 1.377 . S
C1100 C1102 1.384 . S
C1101 C1100 1.377 . S
C1101 C1107 1.390 . S
C1102 H1093 0.930 . S
C1102 C1100 1.384 . S
C1102 C1103 1.372 . S
C1103 C1102 1.372 . S
C1103 C1104 1.400 . S
C1103 C1108 1.490 . S
C1104 H1094 0.930 . S
C1104 C1103 1.400 . S
C1104 C1107 1.386 . S
H1105 C1121 0.930 . S
H1106 C1122 0.931 . S
C1107 H1095 0.929 . S
C1107 C1101 1.390 . S
C1107 C1104 1.386 . S
C1108 C1103 1.490 . S
C1108 C1110 1.395 . S
C1108 C1111 1.403 . S
H1109 C1115 0.930 . S
C1110 H1096 0.930 . S
C1110 C1108 1.395 . S
C1110 C1113 1.403 . S
C1111 C1108 1.403 . S
C1111 C1112 1.524 . S
C1111 C1115 1.400 . S
C1112 H1097 0.960 . S
C1112 H1098 0.960 . S
C1112 H1099 0.960 . S
C1112 C1111 1.524 . S
C1113 C1110 1.403 . S
C1113 C1114 1.392 . S
C1113 C1117 1.495 . S
C1114 C1113 1.392 . S
C1114 C1115 1.385 . S
C1114 C1116 1.478 . S
C1115 H1109 0.930 . S
C1115 C1111 1.400 . S
C1115 C1114 1.385 . S
C1116 C1114 1.478 . S
C1116 C1118 1.381 . S
C1116 C1122 1.383 . S
C1117 C1113 1.495 . S
C1117 H1123 0.959 . S
C1117 H1124 0.961 . S
C1117 H1125 0.960 . S
C1118 C1116 1.381 . S
C1118 C1119 1.394 . S
C1118 H1126 0.930 . S
C1119 C1118 1.394 . S
C1119 C1120 1.383 . S
C1119 H1127 0.929 . S
C1120 C1119 1.383 . S
C1120 C1121 1.377 . S
C1121 H1105 0.930 . S
C1121 C1120 1.377 . S
C1121 C1122 1.379 . S
C1122 H1106 0.931 . S
C1122 C1116 1.383 . S
C1122 C1121 1.379 . S
H1123 C1117 0.959 . S
H1124 C1117 0.961 . S
H1125 C1117 0.960 . S
H1126 C1118 0.930 . S
H1127 C1119 0.929 . S
H1128 C1136 0.929 . S
H1129 C1138 0.930 . S
H1130 C1140 0.930 . S
H1131 C1143 0.929 . S
H1132 C1146 0.930 . S
H1133 C1148 0.960 . S
H1134 C1148 0.960 . S
H1135 C1148 0.960 . S
C1136 H1128 0.929 . S
C1136 C1137 1.377 . S
C1136 C1138 1.384 . S
C1137 C1136 1.377 . S
C1137 C1143 1.390 . S
C1138 H1129 0.930 . S
C1138 C1136 1.384 . S
C1138 C1139 1.372 . S
C1139 C1138 1.372 . S
C1139 C1140 1.400 . S
C1139 C1144 1.490 . S
C1140 H1130 0.930 . S
C1140 C1139 1.400 . S
C1140 C1143 1.386 . S
H1141 C1157 0.930 . S
H1142 C1158 0.931 . S
C1143 H1131 0.929 . S
C1143 C1137 1.390 . S
C1143 C1140 1.386 . S
C1144 C1139 1.490 . S
C1144 C1146 1.395 . S
C1144 C1147 1.403 . S
H1145 C1151 0.930 . S
C1146 H1132 0.930 . S
C1146 C1144 1.395 . S
C1146 C1149 1.403 . S
C1147 C1144 1.403 . S
C1147 C1148 1.524 . S
C1147 C1151 1.400 . S
C1148 H1133 0.960 . S
C1148 H1134 0.960 . S
C1148 H1135 0.960 . S
C1148 C1147 1.524 . S
C1149 C1146 1.403 . S
C1149 C1150 1.392 . S
C1149 C1153 1.495 . S
C1150 C1149 1.392 . S
C1150 C1151 1.385 . S
C1150 C1152 1.478 . S
C1151 H1145 0.930 . S
C1151 C1147 1.400 . S
C1151 C1150 1.385 . S
C1152 C1150 1.478 . S
C1152 C1154 1.381 . S
C1152 C1158 1.383 . S
C1153 C1149 1.495 . S
C1153 H1159 0.959 . S
C1153 H1160 0.961 . S
C1153 H1161 0.960 . S
C1154 C1152 1.381 . S
C1154 C1155 1.394 . S
C1154 H1162 0.930 . S
C1155 C1154 1.394 . S
C1155 C1156 1.383 . S
C1155 H1163 0.929 . S
C1156 C1155 1.383 . S
C1156 C1157 1.377 . S
C1157 H1141 0.930 . S
C1157 C1156 1.377 . S
C1157 C1158 1.379 . S
C1158 H1142 0.931 . S
C1158 C1152 1.383 . S
C1158 C1157 1.379 . S
H1159 C1153 0.959 . S
H1160 C1153 0.961 . S
H1161 C1153 0.960 . S
H1162 C1154 0.930 . S
H1163 C1155 0.929 . S
H1164 C1172 0.929 . S
H1165 C1174 0.930 . S
H1166 C1176 0.930 . S
H1167 C1179 0.929 . S
H1168 C1182 0.931 . S
H1169 C1184 0.960 . S
H1170 C1184 0.960 1_556 S
H1171 C1184 0.961 . S
C1172 H1164 0.929 . S
C1172 C1173 1.377 1_556 S
C1172 C1174 1.384 . S
C1173 C1172 1.377 1_554 S
C1173 C1179 1.390 . S
C1174 H1165 0.930 . S
C1174 C1172 1.384 . S
C1174 C1175 1.369 1_556 S
C1175 C1174 1.369 1_554 S
C1175 C1176 1.402 . S
C1175 C1180 1.490 . S
C1176 H1166 0.930 . S
C1176 C1175 1.402 . S
C1176 C1179 1.386 . S
H1177 C1193 0.930 . S
H1178 C1194 0.931 . S
C1179 H1167 0.929 . S
C1179 C1173 1.390 . S
C1179 C1176 1.386 . S
C1180 C1175 1.490 . S
C1180 C1182 1.394 1_554 S
C1180 C1183 1.403 . S
H1181 C1187 0.930 . S
C1182 H1168 0.931 . S
C1182 C1180 1.394 1_556 S
C1182 C1185 1.403 . S
C1183 C1180 1.403 . S
C1183 C1184 1.524 . S
C1183 C1187 1.400 . S
C1184 H1169 0.960 . S
C1184 H1170 0.960 1_554 S
C1184 H1171 0.961 . S
C1184 C1183 1.524 . S
C1185 C1182 1.403 . S
C1185 C1186 1.392 1_556 S
C1185 C1189 1.495 . S
C1186 C1185 1.392 1_554 S
C1186 C1187 1.385 . S
C1186 C1188 1.478 . S
C1187 H1181 0.930 . S
C1187 C1183 1.400 . S
C1187 C1186 1.385 . S
C1188 C1186 1.478 . S
C1188 C1190 1.381 1_554 S
C1188 C1194 1.383 . S
C1189 C1185 1.495 . S
C1189 H1195 0.960 . S
C1189 H1196 0.943 1_556 S
C1189 H1197 0.978 . S
C1190 C1188 1.381 1_556 S
C1190 C1191 1.394 . S
C1190 H1198 0.930 . S
C1191 C1190 1.394 . S
C1191 C1192 1.383 1_556 S
C1191 H1199 0.929 . S
C1192 C1191 1.383 1_554 S
C1192 C1193 1.377 . S
C1193 H1177 0.930 . S
C1193 C1192 1.377 . S
C1193 C1194 1.379 . S
C1194 H1178 0.931 . S
C1194 C1188 1.383 . S
C1194 C1193 1.379 . S
H1195 C1189 0.960 . S
H1196 C1189 0.943 1_554 S
H1197 C1189 0.978 . S
H1198 C1190 0.930 . S
H1199 C1191 0.929 . S
H1200 C1208 0.929 . S
H1201 C1210 0.930 . S
H1202 C1212 0.930 . S
H1203 C1215 0.929 . S
H1204 C1218 0.930 . S
H1205 C1220 0.960 . S
H1206 C1220 0.960 . S
H1207 C1220 0.960 . S
C1208 H1200 0.929 . S
C1208 C1209 1.377 . S
C1208 C1210 1.384 . S
C1209 C1208 1.377 . S
C1209 C1215 1.390 . S
C1210 H1201 0.930 . S
C1210 C1208 1.384 . S
C1210 C1211 1.372 . S
C1211 C1210 1.372 . S
C1211 C1212 1.400 . S
C1211 C1216 1.490 . S
C1212 H1202 0.930 . S
C1212 C1211 1.400 . S
C1212 C1215 1.386 . S
H1213 C1229 0.930 . S
H1214 C1230 0.931 . S
C1215 H1203 0.929 . S
C1215 C1209 1.390 . S
C1215 C1212 1.386 . S
C1216 C1211 1.490 . S
C1216 C1218 1.395 . S
C1216 C1219 1.403 . S
H1217 C1223 0.930 . S
C1218 H1204 0.930 . S
C1218 C1216 1.395 . S
C1218 C1221 1.403 . S
C1219 C1216 1.403 . S
C1219 C1220 1.524 . S
C1219 C1223 1.400 . S
C1220 H1205 0.960 . S
C1220 H1206 0.960 . S
C1220 H1207 0.960 . S
C1220 C1219 1.524 . S
C1221 C1218 1.403 . S
C1221 C1222 1.392 . S
C1221 C1225 1.495 . S
C1222 C1221 1.392 . S
C1222 C1223 1.385 . S
C1222 C1224 1.478 . S
C1223 H1217 0.930 . S
C1223 C1219 1.400 . S
C1223 C1222 1.385 . S
C1224 C1222 1.478 . S
C1224 C1226 1.381 . S
C1224 C1230 1.383 . S
C1225 C1221 1.495 . S
C1225 H1231 0.959 . S
C1225 H1232 0.961 . S
C1225 H1233 0.960 . S
C1226 C1224 1.381 . S
C1226 C1227 1.394 . S
C1226 H1234 0.930 . S
C1227 C1226 1.394 . S
C1227 C1228 1.383 . S
C1227 H1235 0.929 . S
C1228 C1227 1.383 . S
C1228 C1229 1.377 . S
C1229 H1213 0.930 . S
C1229 C1228 1.377 . S
C1229 C1230 1.379 . S
C1230 H1214 0.931 . S
C1230 C1224 1.383 . S
C1230 C1229 1.379 . S
H1231 C1225 0.959 . S
H1232 C1225 0.961 . S
H1233 C1225 0.960 . S
H1234 C1226 0.930 . S
H1235 C1227 0.929 . S
H1236 C1244 0.929 . S
H1237 C1246 0.930 . S
H1238 C1248 0.930 . S
H1239 C1251 0.929 . S
H1240 C1254 0.930 . S
H1241 C1256 0.960 . S
H1242 C1256 0.960 . S
H1243 C1256 0.960 . S
C1244 H1236 0.929 . S
C1244 C1245 1.377 . S
C1244 C1246 1.384 . S
C1245 C1244 1.377 . S
C1245 C1251 1.390 1_554 S
C1246 H1237 0.930 . S
C1246 C1244 1.384 . S
C1246 C1247 1.372 . S
C1247 C1246 1.372 . S
C1247 C1248 1.400 1_554 S
C1247 C1252 1.490 . S
C1248 H1238 0.930 . S
C1248 C1247 1.400 1_556 S
C1248 C1251 1.386 . S
H1249 C1265 0.930 . S
H1250 C1266 0.931 . S
C1251 H1239 0.929 . S
C1251 C1245 1.390 1_556 S
C1251 C1248 1.386 . S
C1252 C1247 1.490 . S
C1252 C1254 1.395 1_554 S
C1252 C1255 1.403 . S
H1253 C1259 0.930 . S
C1254 H1240 0.930 . S
C1254 C1252 1.395 1_556 S
C1254 C1257 1.403 . S
C1255 C1252 1.403 . S
C1255 C1256 1.524 . S
C1255 C1259 1.400 . S
C1256 H1241 0.960 . S
C1256 H1242 0.960 . S
C1256 H1243 0.960 . S
C1256 C1255 1.524 . S
C1257 C1254 1.403 . S
C1257 C1258 1.392 1_556 S
C1257 C1261 1.495 . S
C1258 C1257 1.392 1_554 S
C1258 C1259 1.385 . S
C1258 C1260 1.478 . S
C1259 H1253 0.930 . S
C1259 C1255 1.400 . S
C1259 C1258 1.385 . S
C1260 C1258 1.478 . S
C1260 C1262 1.397 . S
C1260 C1266 1.367 1_554 S
C1261 C1257 1.495 . S
C1261 H1267 0.959 . S
C1261 H1268 0.961 . S
C1261 H1269 0.960 1_556 S
C1262 C1260 1.397 . S
C1262 C1263 1.394 . S
C1262 H1270 0.930 . S
C1263 C1262 1.394 . S
C1263 C1264 1.383 . S
C1263 H1271 0.929 . S
C1264 C1263 1.383 . S
C1264 C1265 1.377 1_554 S
C1265 H1249 0.930 . S
C1265 C1264 1.377 1_556 S
C1265 C1266 1.379 . S
C1266 H1250 0.931 . S
C1266 C1260 1.367 1_556 S
C1266 C1265 1.379 . S
H1267 C1261 0.959 . S
H1268 C1261 0.961 . S
H1269 C1261 0.960 1_554 S
H1270 C1262 0.930 . S
H1271 C1263 0.929 . S
C417 C5 1.441 . S
C436 C210 1.450 . S
C453 C31 1.446 . S
C472 C90 1.463 . S
C508 C149 1.407 . S
C489 C53 1.466 . S
C525 C71 1.459 . S
C544 C189 1.404 . S
C580 C309 1.439 . S
C561 C75 1.458 . S
C616 C349 1.441 . S
C597 C9 1.462 . S
C652 C370 1.466 . S
C633 C27 1.448 . S
C688 C250 1.451 . S
C669 C49 1.441 . S
C705 C51 1.444 . S
C724 C130 1.446 . S
C741 C72 1.453 . S
C760 C170 1.443 . S
C777 C6 1.467 . S
C796 C229 1.449 . S
C832 C109 1.446 . S
C813 C29 1.462 . S
C849 C28 1.458 . S
C868 C389 1.454 . S
C904 C269 1.451 . S
C885 C50 1.466 . S
C940 C290 1.416 . S
C921 C73 1.446 . S
C957 C7 1.440 . S
C976 C330 1.410 . S
C1012 C103 1.488 . S
C993 C4 1.497 . S
C1048 C143 1.482 . S
C1029 C30 1.497 . S
C1065 C52 1.496 . S
C1084 C183 1.503 . S
C1101 C70 1.497 . S
C1120 C223 1.487 . S
C1156 C263 1.502 . S
C1137 C74 1.497 . S
C1173 C8 1.497 . S
C1192 C303 1.482 . S
C1209 C26 1.497 . S
C1228 C343 1.482 . S
C1245 C48 1.496 . S
C1264 C383 1.505 . S
