# Generated by pormake.
# Topology gar, (4,6)-cn, num edge types: 1
# Building blocks:
#     Node 0, Type 0, BuildingBlock: QUQFOY_clean_sbu_1, # of connection points: 4
#     Node 1, Type 0, BuildingBlock: QUQFOY_clean_sbu_1, # of connection points: 4
#     Node 2, Type 0, BuildingBlock: QUQFOY_clean_sbu_1, # of connection points: 4
#     Node 3, Type 0, BuildingBlock: QUQFOY_clean_sbu_1, # of connection points: 4
#     Node 4, Type 0, BuildingBlock: QUQFOY_clean_sbu_1, # of connection points: 4
#     Node 5, Type 0, BuildingBlock: QUQFOY_clean_sbu_1, # of connection points: 4
#     Node 6, Type 0, BuildingBlock: QUQFOY_clean_sbu_1, # of connection points: 4
#     Node 7, Type 0, BuildingBlock: QUQFOY_clean_sbu_1, # of connection points: 4
#     Node 8, Type 0, BuildingBlock: QUQFOY_clean_sbu_1, # of connection points: 4
#     Node 9, Type 0, BuildingBlock: QUQFOY_clean_sbu_1, # of connection points: 4
#     Node 10, Type 0, BuildingBlock: QUQFOY_clean_sbu_1, # of connection points: 4
#     Node 11, Type 0, BuildingBlock: QUQFOY_clean_sbu_1, # of connection points: 4
#     Node 12, Type 0, BuildingBlock: QUQFOY_clean_sbu_1, # of connection points: 4
#     Node 13, Type 0, BuildingBlock: QUQFOY_clean_sbu_1, # of connection points: 4
#     Node 14, Type 0, BuildingBlock: QUQFOY_clean_sbu_1, # of connection points: 4
#     Node 15, Type 0, BuildingBlock: QUQFOY_clean_sbu_1, # of connection points: 4
#     Node 16, Type 0, BuildingBlock: QUQFOY_clean_sbu_1, # of connection points: 4
#     Node 17, Type 0, BuildingBlock: QUQFOY_clean_sbu_1, # of connection points: 4
#     Node 18, Type 0, BuildingBlock: QUQFOY_clean_sbu_1, # of connection points: 4
#     Node 19, Type 0, BuildingBlock: QUQFOY_clean_sbu_1, # of connection points: 4
#     Node 20, Type 0, BuildingBlock: QUQFOY_clean_sbu_1, # of connection points: 4
#     Node 21, Type 0, BuildingBlock: QUQFOY_clean_sbu_1, # of connection points: 4
#     Node 22, Type 0, BuildingBlock: QUQFOY_clean_sbu_1, # of connection points: 4
#     Node 23, Type 0, BuildingBlock: QUQFOY_clean_sbu_1, # of connection points: 4
#     Node 24, Type 1, BuildingBlock: BETDIP_clean_sbu_0, # of connection points: 6
#     Node 25, Type 1, BuildingBlock: BETDIP_clean_sbu_0, # of connection points: 6
#     Node 26, Type 1, BuildingBlock: BETDIP_clean_sbu_0, # of connection points: 6
#     Node 27, Type 1, BuildingBlock: BETDIP_clean_sbu_0, # of connection points: 6
#     Node 28, Type 1, BuildingBlock: BETDIP_clean_sbu_0, # of connection points: 6
#     Node 29, Type 1, BuildingBlock: BETDIP_clean_sbu_0, # of connection points: 6
#     Node 30, Type 1, BuildingBlock: BETDIP_clean_sbu_0, # of connection points: 6
#     Node 31, Type 1, BuildingBlock: BETDIP_clean_sbu_0, # of connection points: 6
#     Node 32, Type 1, BuildingBlock: BETDIP_clean_sbu_0, # of connection points: 6
#     Node 33, Type 1, BuildingBlock: BETDIP_clean_sbu_0, # of connection points: 6
#     Node 34, Type 1, BuildingBlock: BETDIP_clean_sbu_0, # of connection points: 6
#     Node 35, Type 1, BuildingBlock: BETDIP_clean_sbu_0, # of connection points: 6
#     Node 36, Type 1, BuildingBlock: BETDIP_clean_sbu_0, # of connection points: 6
#     Node 37, Type 1, BuildingBlock: BETDIP_clean_sbu_0, # of connection points: 6
#     Node 38, Type 1, BuildingBlock: BETDIP_clean_sbu_0, # of connection points: 6
#     Node 39, Type 1, BuildingBlock: BETDIP_clean_sbu_0, # of connection points: 6
#     Edge 40, Type (0, 1), BuildingBlock: KIFKEQ_clean_linker_1, # of connection points: 2
#     Edge 41, Type (0, 1), BuildingBlock: KIFKEQ_clean_linker_1, # of connection points: 2
#     Edge 42, Type (0, 1), BuildingBlock: KIFKEQ_clean_linker_1, # of connection points: 2
#     Edge 43, Type (0, 1), BuildingBlock: KIFKEQ_clean_linker_1, # of connection points: 2
#     Edge 44, Type (0, 1), BuildingBlock: KIFKEQ_clean_linker_1, # of connection points: 2
#     Edge 45, Type (0, 1), BuildingBlock: KIFKEQ_clean_linker_1, # of connection points: 2
#     Edge 46, Type (0, 1), BuildingBlock: KIFKEQ_clean_linker_1, # of connection points: 2
#     Edge 47, Type (0, 1), BuildingBlock: KIFKEQ_clean_linker_1, # of connection points: 2
#     Edge 48, Type (0, 1), BuildingBlock: KIFKEQ_clean_linker_1, # of connection points: 2
#     Edge 49, Type (0, 1), BuildingBlock: KIFKEQ_clean_linker_1, # of connection points: 2
#     Edge 50, Type (0, 1), BuildingBlock: KIFKEQ_clean_linker_1, # of connection points: 2
#     Edge 51, Type (0, 1), BuildingBlock: KIFKEQ_clean_linker_1, # of connection points: 2
#     Edge 52, Type (0, 1), BuildingBlock: KIFKEQ_clean_linker_1, # of connection points: 2
#     Edge 53, Type (0, 1), BuildingBlock: KIFKEQ_clean_linker_1, # of connection points: 2
#     Edge 54, Type (0, 1), BuildingBlock: KIFKEQ_clean_linker_1, # of connection points: 2
#     Edge 55, Type (0, 1), BuildingBlock: KIFKEQ_clean_linker_1, # of connection points: 2
#     Edge 56, Type (0, 1), BuildingBlock: KIFKEQ_clean_linker_1, # of connection points: 2
#     Edge 57, Type (0, 1), BuildingBlock: KIFKEQ_clean_linker_1, # of connection points: 2
#     Edge 58, Type (0, 1), BuildingBlock: KIFKEQ_clean_linker_1, # of connection points: 2
#     Edge 59, Type (0, 1), BuildingBlock: KIFKEQ_clean_linker_1, # of connection points: 2
#     Edge 60, Type (0, 1), BuildingBlock: KIFKEQ_clean_linker_1, # of connection points: 2
#     Edge 61, Type (0, 1), BuildingBlock: KIFKEQ_clean_linker_1, # of connection points: 2
#     Edge 62, Type (0, 1), BuildingBlock: KIFKEQ_clean_linker_1, # of connection points: 2
#     Edge 63, Type (0, 1), BuildingBlock: KIFKEQ_clean_linker_1, # of connection points: 2
#     Edge 64, Type (0, 1), BuildingBlock: KIFKEQ_clean_linker_1, # of connection points: 2
#     Edge 65, Type (0, 1), BuildingBlock: KIFKEQ_clean_linker_1, # of connection points: 2
#     Edge 66, Type (0, 1), BuildingBlock: KIFKEQ_clean_linker_1, # of connection points: 2
#     Edge 67, Type (0, 1), BuildingBlock: KIFKEQ_clean_linker_1, # of connection points: 2
#     Edge 68, Type (0, 1), BuildingBlock: KIFKEQ_clean_linker_1, # of connection points: 2
#     Edge 69, Type (0, 1), BuildingBlock: KIFKEQ_clean_linker_1, # of connection points: 2
#     Edge 70, Type (0, 1), BuildingBlock: KIFKEQ_clean_linker_1, # of connection points: 2
#     Edge 71, Type (0, 1), BuildingBlock: KIFKEQ_clean_linker_1, # of connection points: 2
#     Edge 72, Type (0, 1), BuildingBlock: KIFKEQ_clean_linker_1, # of connection points: 2
#     Edge 73, Type (0, 1), BuildingBlock: KIFKEQ_clean_linker_1, # of connection points: 2
#     Edge 74, Type (0, 1), BuildingBlock: KIFKEQ_clean_linker_1, # of connection points: 2
#     Edge 75, Type (0, 1), BuildingBlock: KIFKEQ_clean_linker_1, # of connection points: 2
#     Edge 76, Type (0, 1), BuildingBlock: KIFKEQ_clean_linker_1, # of connection points: 2
#     Edge 77, Type (0, 1), BuildingBlock: KIFKEQ_clean_linker_1, # of connection points: 2
#     Edge 78, Type (0, 1), BuildingBlock: KIFKEQ_clean_linker_1, # of connection points: 2
#     Edge 79, Type (0, 1), BuildingBlock: KIFKEQ_clean_linker_1, # of connection points: 2
#     Edge 80, Type (0, 1), BuildingBlock: KIFKEQ_clean_linker_1, # of connection points: 2
#     Edge 81, Type (0, 1), BuildingBlock: KIFKEQ_clean_linker_1, # of connection points: 2
#     Edge 82, Type (0, 1), BuildingBlock: KIFKEQ_clean_linker_1, # of connection points: 2
#     Edge 83, Type (0, 1), BuildingBlock: KIFKEQ_clean_linker_1, # of connection points: 2
#     Edge 84, Type (0, 1), BuildingBlock: KIFKEQ_clean_linker_1, # of connection points: 2
#     Edge 85, Type (0, 1), BuildingBlock: KIFKEQ_clean_linker_1, # of connection points: 2
#     Edge 86, Type (0, 1), BuildingBlock: KIFKEQ_clean_linker_1, # of connection points: 2
#     Edge 87, Type (0, 1), BuildingBlock: KIFKEQ_clean_linker_1, # of connection points: 2
#     Edge 88, Type (0, 1), BuildingBlock: KIFKEQ_clean_linker_1, # of connection points: 2
#     Edge 89, Type (0, 1), BuildingBlock: KIFKEQ_clean_linker_1, # of connection points: 2
#     Edge 90, Type (0, 1), BuildingBlock: KIFKEQ_clean_linker_1, # of connection points: 2
#     Edge 91, Type (0, 1), BuildingBlock: KIFKEQ_clean_linker_1, # of connection points: 2
#     Edge 92, Type (0, 1), BuildingBlock: KIFKEQ_clean_linker_1, # of connection points: 2
#     Edge 93, Type (0, 1), BuildingBlock: KIFKEQ_clean_linker_1, # of connection points: 2
#     Edge 94, Type (0, 1), BuildingBlock: KIFKEQ_clean_linker_1, # of connection points: 2
#     Edge 95, Type (0, 1), BuildingBlock: KIFKEQ_clean_linker_1, # of connection points: 2
#     Edge 96, Type (0, 1), BuildingBlock: KIFKEQ_clean_linker_1, # of connection points: 2
#     Edge 97, Type (0, 1), BuildingBlock: KIFKEQ_clean_linker_1, # of connection points: 2
#     Edge 98, Type (0, 1), BuildingBlock: KIFKEQ_clean_linker_1, # of connection points: 2
#     Edge 99, Type (0, 1), BuildingBlock: KIFKEQ_clean_linker_1, # of connection points: 2
#     Edge 100, Type (0, 1), BuildingBlock: KIFKEQ_clean_linker_1, # of connection points: 2
#     Edge 101, Type (0, 1), BuildingBlock: KIFKEQ_clean_linker_1, # of connection points: 2
#     Edge 102, Type (0, 1), BuildingBlock: KIFKEQ_clean_linker_1, # of connection points: 2
#     Edge 103, Type (0, 1), BuildingBlock: KIFKEQ_clean_linker_1, # of connection points: 2
#     Edge 104, Type (0, 1), BuildingBlock: KIFKEQ_clean_linker_1, # of connection points: 2
#     Edge 105, Type (0, 1), BuildingBlock: KIFKEQ_clean_linker_1, # of connection points: 2
#     Edge 106, Type (0, 1), BuildingBlock: KIFKEQ_clean_linker_1, # of connection points: 2
#     Edge 107, Type (0, 1), BuildingBlock: KIFKEQ_clean_linker_1, # of connection points: 2
#     Edge 108, Type (0, 1), BuildingBlock: KIFKEQ_clean_linker_1, # of connection points: 2
#     Edge 109, Type (0, 1), BuildingBlock: KIFKEQ_clean_linker_1, # of connection points: 2
#     Edge 110, Type (0, 1), BuildingBlock: KIFKEQ_clean_linker_1, # of connection points: 2
#     Edge 111, Type (0, 1), BuildingBlock: KIFKEQ_clean_linker_1, # of connection points: 2
#     Edge 112, Type (0, 1), BuildingBlock: KIFKEQ_clean_linker_1, # of connection points: 2
#     Edge 113, Type (0, 1), BuildingBlock: KIFKEQ_clean_linker_1, # of connection points: 2
#     Edge 114, Type (0, 1), BuildingBlock: KIFKEQ_clean_linker_1, # of connection points: 2
#     Edge 115, Type (0, 1), BuildingBlock: KIFKEQ_clean_linker_1, # of connection points: 2
#     Edge 116, Type (0, 1), BuildingBlock: KIFKEQ_clean_linker_1, # of connection points: 2
#     Edge 117, Type (0, 1), BuildingBlock: KIFKEQ_clean_linker_1, # of connection points: 2
#     Edge 118, Type (0, 1), BuildingBlock: KIFKEQ_clean_linker_1, # of connection points: 2
#     Edge 119, Type (0, 1), BuildingBlock: KIFKEQ_clean_linker_1, # of connection points: 2
#     Edge 120, Type (0, 1), BuildingBlock: KIFKEQ_clean_linker_1, # of connection points: 2
#     Edge 121, Type (0, 1), BuildingBlock: KIFKEQ_clean_linker_1, # of connection points: 2
#     Edge 122, Type (0, 1), BuildingBlock: KIFKEQ_clean_linker_1, # of connection points: 2
#     Edge 123, Type (0, 1), BuildingBlock: KIFKEQ_clean_linker_1, # of connection points: 2
#     Edge 124, Type (0, 1), BuildingBlock: KIFKEQ_clean_linker_1, # of connection points: 2
#     Edge 125, Type (0, 1), BuildingBlock: KIFKEQ_clean_linker_1, # of connection points: 2
#     Edge 126, Type (0, 1), BuildingBlock: KIFKEQ_clean_linker_1, # of connection points: 2
#     Edge 127, Type (0, 1), BuildingBlock: KIFKEQ_clean_linker_1, # of connection points: 2
#     Edge 128, Type (0, 1), BuildingBlock: KIFKEQ_clean_linker_1, # of connection points: 2
#     Edge 129, Type (0, 1), BuildingBlock: KIFKEQ_clean_linker_1, # of connection points: 2
#     Edge 130, Type (0, 1), BuildingBlock: KIFKEQ_clean_linker_1, # of connection points: 2
#     Edge 131, Type (0, 1), BuildingBlock: KIFKEQ_clean_linker_1, # of connection points: 2
#     Edge 132, Type (0, 1), BuildingBlock: KIFKEQ_clean_linker_1, # of connection points: 2
#     Edge 133, Type (0, 1), BuildingBlock: KIFKEQ_clean_linker_1, # of connection points: 2
#     Edge 134, Type (0, 1), BuildingBlock: KIFKEQ_clean_linker_1, # of connection points: 2
#     Edge 135, Type (0, 1), BuildingBlock: KIFKEQ_clean_linker_1, # of connection points: 2
# Relax obj value: 0.196
# Max RMSD: 0.312
# Mean RMSD: 0.176
data_MOF--net-gar--node1-QUQFOY_clean_sbu_1--node2-BETDIP_clean_sbu_0--edge1-KIFKEQ_clean_linker_1
_symmetry_space_group_name_H-M    P1
_symmetry_Int_Tables_number       1
_symmetry_cell_setting            triclinic
loop_
_symmetry_equiv_pos_as_xyz
'x, y, z'
_cell_length_a     65.989687
_cell_length_b     58.713777
_cell_length_c     56.229839
_cell_angle_alpha  97.364396
_cell_angle_beta   98.606714
_cell_angle_gamma 103.45697
loop_
_atom_site_label
_atom_site_type_symbol
_atom_site_fract_x
_atom_site_fract_y
_atom_site_fract_z
_atom_type_partial_charge
O0 O 0.04882 0.29029 0.41507 0.0
Cd1 Cd 0.04571 0.31876 0.39838 0.0
Cd2 Cd 0.04843 0.33986 0.44559 0.0
O3 O 0.06098 0.31186 0.45167 0.0
O4 O 0.05344 0.31174 0.36602 0.0
O5 O 0.07248 0.3415 0.39494 0.0
C6 C 0.07026 0.32899 0.37359 0.0
C7 C 0.06025 0.37386 0.47539 0.0
C8 C 0.05734 0.29229 0.43726 0.0
C9 C 1.00667 0.32902 0.41006 0.0
O10 O 1.01645 0.33348 0.43203 0.0
O11 O 1.01624 0.32483 0.39268 0.0
O12 O 0.04928 0.35423 0.47976 0.0
O13 O 0.0654 0.37405 0.45414 0.0
O14 O 0.04379 0.71408 0.7129 0.0
Cd15 Cd 0.0559 0.73384 0.74734 0.0
Cd16 Cd 0.07066 0.76942 0.72228 0.0
O17 O 0.05697 0.74257 0.69317 0.0
O18 O 0.0357 0.72809 0.77064 0.0
O19 O 0.04466 0.76156 0.75598 0.0
C20 C 0.03366 0.74931 0.76931 0.0
C21 C 0.06601 0.80645 0.71542 0.0
C22 C 0.04652 0.72143 0.69299 0.0
C23 C 0.10252 0.7533 0.75689 0.0
O24 O 0.09861 0.76779 0.74295 0.0
O25 O 0.08748 0.7375 0.76146 0.0
O26 O 0.07984 0.79757 0.70636 0.0
O27 O 0.05517 0.7947 0.72916 0.0
O28 O 0.57472 0.83717 0.90695 0.0
Cd29 Cd 0.55281 0.83455 0.92945 0.0
Cd30 Cd 0.52964 0.84433 0.89086 0.0
O31 O 0.55349 0.83736 0.8728 0.0
O32 O 0.56529 0.82134 0.95717 0.0
O33 O 0.53557 0.8021 0.93165 0.0
C34 C 0.54963 0.8027 0.95047 0.0
C35 C 0.49485 0.82155 0.882 0.0
C36 C 0.57145 0.83644 0.88399 0.0
C37 C 0.53876 0.87958 0.93621 0.0
O38 O 0.53299 0.87646 0.91317 0.0
O39 O 0.54616 0.86427 0.9461 0.0
O40 O 0.50159 0.8372 0.86885 0.0
O41 O 0.50842 0.81762 0.89902 0.0
O42 O 0.55942 0.2245 0.23754 0.0
Cd43 Cd 0.56676 0.24674 0.27057 0.0
Cd44 Cd 0.58238 0.28095 0.24642 0.0
O45 O 0.57706 0.25177 0.2194 0.0
O46 O 0.54526 0.23964 0.29189 0.0
O47 O 0.55207 0.2723 0.27532 0.0
C48 C 0.54133 0.25973 0.28866 0.0
C49 C 0.57559 0.31473 0.23245 0.0
C50 C 0.56688 0.23045 0.21902 0.0
C51 C 0.6121 0.27096 0.28706 0.0
O52 O 0.60832 0.2859 0.27367 0.0
O53 O 0.59759 0.2528 0.28806 0.0
O54 O 0.59235 0.30798 0.22943 0.0
O55 O 0.56254 0.30251 0.24381 0.0
O56 O 0.07325 0.76409 0.16239 0.0
Cd57 Cd 0.07922 0.79403 0.18902 0.0
Cd58 Cd 0.1016 0.81402 0.15408 0.0
O59 O 0.09114 0.77885 0.1351 0.0
O60 O 0.05985 0.78317 0.21217 0.0
O61 O 0.05646 0.81206 0.19179 0.0
C62 C 0.04955 0.79851 0.20677 0.0
C63 C 0.09412 0.84712 0.1367 0.0
C64 C 0.07984 0.76122 0.14234 0.0
C65 C 0.12745 0.8129 0.20357 0.0
O66 O 0.12752 0.81865 0.18243 0.0
O67 O 0.10992 0.80413 0.21003 0.0
O68 O 0.10901 0.8377 0.13117 0.0
O69 O 0.0833 0.83772 0.15198 0.0
O70 O 0.56062 0.77079 0.44925 0.0
Cd71 Cd 0.54109 0.76842 0.47544 0.0
Cd72 Cd 0.51628 0.78521 0.4327 0.0
O73 O 0.54109 0.77749 0.41642 0.0
O74 O 0.55555 0.75269 0.5008 0.0
O75 O 0.52427 0.735 0.47834 0.0
C76 C 0.53991 0.73395 0.49463 0.0
C77 C 0.48175 0.78187 0.40984 0.0
C78 C 0.55824 0.77362 0.42696 0.0
C79 C 0.53278 0.81766 0.48345 0.0
O80 O 0.52534 0.81409 0.46068 0.0
O81 O 0.53814 0.80114 0.49366 0.0
O82 O 0.49827 0.79756 0.40757 0.0
O83 O 0.48482 0.76688 0.42404 0.0
O84 O 0.57895 0.26506 0.67197 0.0
Cd85 Cd 0.58528 0.29562 0.69769 0.0
Cd86 Cd 0.60596 0.31432 0.66111 0.0
O87 O 0.59307 0.27924 0.64193 0.0
O88 O 0.56641 0.2852 0.72151 0.0
O89 O 0.56236 0.31349 0.70054 0.0
C90 C 0.55573 0.30013 0.7158 0.0
C91 C 0.59982 0.34885 0.64551 0.0
C92 C 0.58332 0.26171 0.65071 0.0
C93 C 0.63359 0.31291 0.70947 0.0
O94 O 0.63288 0.31731 0.68772 0.0
O95 O 0.61644 0.30595 0.71745 0.0
O96 O 0.61251 0.33734 0.63731 0.0
O97 O 0.59032 0.34068 0.66235 0.0
O98 O 0.01953 0.22116 0.95346 0.0
Cd99 Cd 0.02042 0.24822 0.93234 0.0
Cd100 Cd 1.0098 0.27041 0.97558 0.0
O101 O 1.01781 0.24085 0.98906 0.0
O102 O 0.0354 0.23953 0.90499 0.0
O103 O 0.04936 0.27086 0.93372 0.0
C104 C 0.05122 0.2575 0.91446 0.0
C105 C 0.02247 0.31024 0.99652 0.0
C106 C 0.01978 0.22208 0.9763 0.0
C107 C 0.97768 0.26089 0.92791 0.0
O108 O 0.98133 0.26552 0.95116 0.0
O109 O 0.99172 0.2551 0.91675 0.0
O110 O 1.00814 0.29489 1.00349 0.0
O111 O 0.03075 0.30262 0.97864 0.0
O112 O 0.42431 0.06793 0.2635 0.0
Cd113 Cd 0.39972 0.06866 0.28613 0.0
Cd114 Cd 0.44089 0.04787 0.31882 0.0
O115 O 0.45063 0.05588 0.28439 0.0
O116 O 0.37687 0.08645 0.2716 0.0
O117 O 0.39794 0.10171 0.30611 0.0
C118 C 0.38281 0.10392 0.28977 0.0
C119 C 0.46401 0.05013 0.359 0.0
C120 C 0.44236 0.06245 0.26481 0.0
C121 C 0.39243 1.01685 0.30401 0.0
O122 O 0.41215 0.0213 0.31346 0.0
O123 O 0.38499 0.03261 0.29375 0.0
O124 O 0.46303 0.03465 0.34007 0.0
O125 O 0.4531 0.06539 0.35514 0.0
O126 O 0.28719 0.1703 0.58106 0.0
Cd127 Cd 0.28289 0.14507 0.55007 0.0
Cd128 Cd 0.26536 0.18199 0.53033 0.0
O129 O 0.27786 0.20022 0.56605 0.0
O130 O 0.29899 0.12213 0.56222 0.0
O131 O 0.30782 0.14205 0.5332 0.0
C132 C 0.31176 0.12732 0.54735 0.0
C133 C 0.27087 0.20173 0.49618 0.0
C134 C 0.28473 0.19129 0.58419 0.0
C135 C 0.23533 0.13317 0.53113 0.0
O136 O 0.23773 0.15462 0.52752 0.0
O137 O 0.25141 0.12539 0.53796 0.0
O138 O 0.2578 0.2061 0.50998 0.0
O139 O 0.28097 0.18616 0.50169 0.0
O140 O 0.15202 0.03865 0.78696 0.0
Cd141 Cd 0.17436 0.04555 0.81887 0.0
Cd142 Cd 0.1459 0.06738 0.83598 0.0
O143 O 0.12853 0.05554 0.80082 0.0
O144 O 0.19517 0.02733 0.8109 0.0
O145 O 0.17619 0.01999 0.83952 0.0
C146 C 0.19045 1.0152 0.82772 0.0
C147 C 0.13177 0.05666 0.87009 0.0
C148 C 0.1345 0.04438 0.78334 0.0
C149 C 0.18884 0.09873 0.83669 0.0
O150 O 0.1702 0.09803 0.84046 0.0
O151 O 0.1937 0.07972 0.82914 0.0
O152 O 0.12662 0.07308 0.85912 0.0
O153 O 0.14485 0.04599 0.86144 0.0
O154 O 0.31753 0.91851 0.11279 0.0
Cd155 Cd 0.29706 0.9367 0.09845 0.0
Cd156 Cd 0.30065 0.91648 0.05437 0.0
O157 O 0.32263 0.90493 0.07648 0.0
O158 O 0.27701 0.9414 0.12026 0.0
O159 O 0.26737 0.91947 0.0832 0.0
C160 C 0.26211 0.92868 0.10278 0.0
C161 C 0.28573 0.88671 0.02088 0.0
C162 C 0.32671 0.90667 0.09949 0.0
C163 C 0.31047 0.96989 0.06509 0.0
O164 O 0.30677 0.95131 0.04913 0.0
O165 O 0.30884 0.96818 0.08705 0.0
O166 O 0.3046 0.90003 0.02332 0.0
O167 O 0.27426 0.89136 0.03661 0.0
O168 O 0.32826 0.40805 0.13049 0.0
Cd169 Cd 0.33014 0.43121 0.10503 0.0
Cd170 Cd 0.33951 0.39107 0.07797 0.0
O171 O 0.33211 0.37597 0.10827 0.0
O172 O 0.31543 0.45598 0.11656 0.0
O173 O 0.30271 0.43022 0.08243 0.0
C174 C 0.30049 0.44748 0.09774 0.0
C175 C 0.32735 0.36916 0.0381 0.0
C176 C 0.32873 0.38629 0.12812 0.0
C177 C 0.37317 0.43859 0.08905 0.0
O178 O 0.36805 0.41629 0.08142 0.0
O179 O 0.36009 0.44841 0.09824 0.0
O180 O 0.34206 0.36462 0.05315 0.0
O181 O 0.31869 0.38552 0.04604 0.0
O182 O 0.84784 0.1666 0.16892 0.0
Cd183 Cd 0.84071 0.13778 0.14118 0.0
Cd184 Cd 0.81551 0.16117 0.11782 0.0
O185 O 0.8295 0.18672 0.1478 0.0
O186 O 0.86573 0.12529 0.13753 0.0
O187 O 0.84938 0.14155 0.10933 0.0
C188 C 0.86408 0.13132 0.11613 0.0
C189 C 0.80989 0.17641 0.08177 0.0
C190 C 0.84162 0.18531 0.16701 0.0
C191 C 0.79563 0.1134 0.13123 0.0
O192 O 0.79335 0.1317 0.12234 0.0
O193 O 0.81389 0.11126 0.13971 0.0
O194 O 0.82443 0.16526 0.0856 0.0
O195 O 0.79825 0.17813 0.098 0.0
O196 O 0.16429 0.51291 0.28462 0.0
Cd197 Cd 0.19193 0.51438 0.31192 0.0
Cd198 Cd 0.15674 0.54316 0.34134 0.0
O199 O 0.14229 0.53057 0.30288 0.0
O200 O 0.21236 0.49417 0.29823 0.0
O201 O 0.19675 0.48411 0.32783 0.0
C202 C 0.20925 0.47936 0.31331 0.0
C203 C 0.13649 0.54504 0.37643 0.0
C204 C 0.1473 0.52053 0.28343 0.0
C205 C 0.20338 0.57111 0.33439 0.0
O206 O 0.18593 0.56937 0.34262 0.0
O207 O 0.20805 0.55244 0.32392 0.0
O208 O 0.1377 0.56003 0.36143 0.0
O209 O 0.1462 0.52871 0.3717 0.0
O210 O 0.83135 0.90897 0.63091 0.0
Cd211 Cd 0.83368 0.93309 0.60633 0.0
Cd212 Cd 0.84187 0.89266 0.57802 0.0
O213 O 0.83482 0.877 0.60812 0.0
O214 O 0.81958 0.95796 0.61913 0.0
O215 O 0.80639 0.93355 0.58421 0.0
C216 C 0.80456 0.95043 0.60027 0.0
C217 C 0.82975 0.87128 0.53803 0.0
C218 C 0.83157 0.88712 0.62814 0.0
C219 C 0.87626 0.93991 0.58948 0.0
O220 O 0.87042 0.91774 0.5812 0.0
O221 O 0.86381 0.95003 0.59961 0.0
O222 O 0.84493 0.8671 0.55264 0.0
O223 O 0.82045 0.8868 0.54649 0.0
O224 O 0.95744 0.0211 0.23921 0.0
Cd225 Cd 0.93731 1.01773 0.2641 0.0
Cd226 Cd 0.96855 0.9968 0.2852 0.0
O227 O 0.98249 1.00541 0.25538 0.0
O228 O 0.91647 0.03503 0.25169 0.0
O229 O 0.93726 0.04661 0.28794 0.0
C230 C 0.92258 0.04994 0.27182 0.0
C231 C 0.98701 1.00756 0.32566 0.0
C232 C 0.9748 1.01537 0.23859 0.0
C233 C 0.92319 0.96689 0.27251 0.0
O234 O 0.94256 0.96778 0.28 0.0
O235 O 0.918 0.98491 0.26574 0.0
O236 O 0.98954 0.99001 0.31109 0.0
O237 O 0.97484 0.02002 0.31689 0.0
O238 O 0.36237 0.67338 0.66904 0.0
Cd239 Cd 0.35271 0.65442 0.63413 0.0
Cd240 Cd 0.35327 0.69595 0.62031 0.0
O241 O 0.3653 0.70796 0.65678 0.0
O242 O 0.3637 0.62594 0.62885 0.0
O243 O 0.37133 0.6567 0.60948 0.0
C244 C 0.37283 0.63565 0.61251 0.0
C245 C 0.36527 0.71996 0.59263 0.0
C246 C 0.3665 0.6959 0.6739 0.0
C247 C 0.31106 0.65947 0.61272 0.0
O248 O 0.32114 0.68032 0.61121 0.0
O249 O 0.32083 0.64521 0.62123 0.0
O250 O 0.36975 0.69974 0.59286 0.0
O251 O 0.35482 0.72665 0.60855 0.0
O252 O 0.4552 0.51704 0.74202 0.0
Cd253 Cd 0.4345 0.51107 0.76605 0.0
Cd254 Cd 0.46567 0.49202 0.78775 0.0
O255 O 0.4802 0.5016 0.75863 0.0
O256 O 0.41363 0.52914 0.75584 0.0
O257 O 0.43351 0.53711 0.7927 0.0
C258 C 0.41899 0.54172 0.77737 0.0
C259 C 0.48298 0.50501 0.82856 0.0
C260 C 0.47283 0.51182 0.74191 0.0
C261 C 0.42147 0.45973 0.77273 0.0
O262 O 0.44075 0.46171 0.78192 0.0
O263 O 0.41593 0.47727 0.76519 0.0
O264 O 0.48737 0.48815 0.8148 0.0
O265 O 0.4693 0.5153 0.81879 0.0
O266 O 0.66726 1.01319 0.78672 0.0
Cd267 Cd 0.69461 1.01438 0.81415 0.0
Cd268 Cd 0.65984 0.04257 0.84375 0.0
O269 O 0.64507 0.03017 0.80528 0.0
O270 O 0.71491 0.99431 0.80023 0.0
O271 O 0.69913 0.98393 0.82966 0.0
C272 C 0.71163 0.97932 0.81509 0.0
C273 C 0.64043 0.0441 0.87953 0.0
C274 C 0.65019 0.02059 0.78567 0.0
C275 C 0.70633 0.0708 0.83718 0.0
O276 O 0.68874 0.06906 0.84507 0.0
O277 O 0.71104 0.05216 0.82673 0.0
O278 O 0.63991 0.05808 0.86359 0.0
O279 O 0.65136 0.02888 0.87531 0.0
O280 O 0.7876 0.67834 0.08047 0.0
Cd281 Cd 0.78122 0.64979 0.05188 0.0
Cd282 Cd 0.76129 0.68386 0.02831 0.0
O283 O 0.772 0.70344 0.06342 0.0
O284 O 0.79772 0.62804 0.0661 0.0
O285 O 0.80483 0.64371 0.03391 0.0
C286 C 0.80947 0.63078 0.0498 0.0
C287 C 0.76711 0.70274 0.99377 0.0
C288 C 0.78217 0.69786 0.08197 0.0
C289 C 0.73278 0.63598 0.03314 0.0
O290 O 0.73451 0.656 0.02597 0.0
O291 O 0.74924 0.62998 0.04255 0.0
O292 O 0.75323 0.70666 1.00657 0.0
O293 O 0.77775 0.68798 1.00041 0.0
O294 O 0.9225 0.56591 0.76151 0.0
Cd295 Cd 0.89866 0.56706 0.78518 0.0
Cd296 Cd 0.94004 0.54677 0.81598 0.0
O297 O 0.94997 0.55557 0.78213 0.0
O298 O 0.87552 0.5845 0.77077 0.0
O299 O 0.89719 0.60039 0.80476 0.0
C300 C 0.88177 0.60229 0.7886 0.0
C301 C 0.96265 0.54909 0.85632 0.0
C302 C 0.9409 0.5613 0.76251 0.0
C303 C 0.89225 0.51491 0.8017 0.0
O304 O 0.91222 0.51901 0.80945 0.0
O305 O 0.88417 0.53128 0.79364 0.0
O306 O 0.96236 0.53405 0.8373 0.0
O307 O 0.95133 0.56396 0.85245 0.0
O308 O 0.75442 0.39942 0.58867 0.0
Cd309 Cd 0.75034 0.43159 0.58346 0.0
Cd310 Cd 0.73508 0.39497 0.53426 0.0
O311 O 0.72365 0.38387 0.5645 0.0
O312 O 0.72316 0.43687 0.59088 0.0
O313 O 0.75434 0.45107 0.61609 0.0
C314 C 0.73408 0.44833 0.6118 0.0
C315 C 0.73831 0.36319 0.50735 0.0
C316 C 0.73715 0.38341 0.58295 0.0
C317 C 0.76671 0.44579 0.5401 0.0
O318 O 0.75483 0.42619 0.52804 0.0
O319 O 0.76731 0.4513 0.56276 0.0
O320 O 0.752 0.37207 0.52714 0.0
O321 O 0.72225 0.37209 0.50303 0.0
O322 O 0.64695 0.54765 0.29173 0.0
Cd323 Cd 0.66993 0.55563 0.3231 0.0
Cd324 Cd 0.64175 0.57788 0.33971 0.0
O325 O 0.62333 0.56462 0.30514 0.0
O326 O 0.69063 0.538 0.31347 0.0
O327 O 0.67405 0.53076 0.34401 0.0
C328 C 0.68754 0.52616 0.3309 0.0
C329 C 0.63153 0.56713 0.37577 0.0
C330 C 0.62926 0.553 0.28794 0.0
C331 C 0.68401 0.60919 0.33865 0.0
O332 O 0.66537 0.60871 0.34227 0.0
O333 O 0.68897 0.58998 0.33212 0.0
O334 O 0.6242 0.58261 0.36518 0.0
O335 O 0.64427 0.5572 0.36542 0.0
Tb336 Tb 0.03405 1.01919 0.04141 0.0
Tb337 Tb 0.07626 0.0477 0.06812 0.0
C338 C 0.99474 1.0063 0.02717 0.0
C339 C 0.9798 0.02121 0.029 0.0
C340 C 0.98422 0.0399 0.0488 0.0
C341 C 0.97136 0.05549 0.05005 0.0
C342 C 0.95376 0.05286 0.03152 0.0
C343 C 0.94917 0.03403 1.01172 0.0
C344 C 0.96224 1.01836 1.0104 0.0
C345 C 0.0645 0.02094 0.01569 0.0
C346 C 0.04726 0.07671 0.04528 0.0
C347 C 0.11548 0.05973 0.08205 0.0
C348 C 0.12951 0.04357 0.08314 0.0
C349 C 0.12782 0.02598 0.06292 0.0
C350 C 0.13815 1.008 0.06507 0.0
C351 C 0.15035 1.00713 0.08747 0.0
C352 C 0.15252 0.02507 0.10753 0.0
C353 C 0.14217 0.04316 0.10537 0.0
C354 C 0.04588 0.04579 0.09402 0.0
C355 C 0.06288 0.99042 0.06559 0.0
O356 O 1.00418 1.00277 0.04807 0.0
O357 O 1.00803 1.01193 1.01251 0.0
O358 O 0.06205 0.03755 0.03062 0.0
O359 O 0.04865 1.00249 0.01376 0.0
O360 O 0.03205 0.05662 0.04205 0.0
O361 O 0.06715 0.07741 0.05411 0.0
O362 O 0.10632 0.06115 0.06015 0.0
O363 O 0.10222 0.05755 0.09726 0.0
O364 O 0.04833 0.02926 0.07898 0.0
O365 O 0.06165 0.06431 0.09579 0.0
O366 O 0.07817 1.0104 0.06872 0.0
O367 O 0.0431 0.98974 0.0562 0.0
H368 H 0.99775 0.04262 0.06335 0.0
H369 H 0.97503 0.06939 0.06588 0.0
H370 H 0.93565 0.03157 0.99725 0.0
H371 H 0.95878 1.00422 0.99483 0.0
H372 H 0.11781 0.02545 0.04562 0.0
H373 H 0.13598 0.99431 0.04936 0.0
H374 H 0.16214 0.02508 0.12492 0.0
H375 H 0.14347 0.05635 0.12125 0.0
Tb376 Tb 0.30131 0.78513 0.29224 0.0
Tb377 Tb 0.29702 0.79971 0.34064 0.0
C378 C 0.29925 0.76776 0.24841 0.0
C379 C 0.31189 0.77582 0.23039 0.0
C380 C 0.32615 0.79834 0.2357 0.0
C381 C 0.33769 0.80668 0.21843 0.0
C382 C 0.33538 0.79255 0.1955 0.0
C383 C 0.3218 0.76943 0.19073 0.0
C384 C 0.31009 0.76115 0.20808 0.0
C385 C 0.3369 0.79139 0.32399 0.0
C386 C 0.31662 0.84069 0.31032 0.0
C387 C 0.30518 0.81676 0.38542 0.0
C388 C 0.31403 0.80862 0.40722 0.0
C389 C 0.31964 0.82388 0.42973 0.0
C390 C 0.32927 0.81674 0.45033 0.0
C391 C 0.33352 0.79425 0.44863 0.0
C392 C 0.32788 0.77903 0.42594 0.0
C393 C 0.31817 0.78616 0.4054 0.0
C394 C 0.26192 0.79622 0.30847 0.0
C395 C 0.28064 0.74519 0.32209 0.0
O396 O 0.28739 0.78143 0.2554 0.0
O397 O 0.30972 0.76135 0.26683 0.0
O398 O 0.31845 0.78137 0.32694 0.0
O399 O 0.33553 0.79798 0.30288 0.0
O400 O 0.31189 0.82368 0.29085 0.0
O401 O 0.31265 0.83487 0.33158 0.0
O402 O 0.31834 0.82182 0.37054 0.0
O403 O 0.2864 0.80426 0.37389 0.0
O404 O 0.28076 0.80445 0.30609 0.0
O405 O 0.26229 0.79121 0.33023 0.0
O406 O 0.28992 0.76126 0.34179 0.0
O407 O 0.28054 0.75206 0.30044 0.0
H408 H 0.32796 0.80976 0.253 0.0
H409 H 0.34757 0.82473 0.22268 0.0
H410 H 0.31979 0.75802 0.17336 0.0
H411 H 0.29938 0.74352 0.20393 0.0
H412 H 0.31676 0.8414 0.43132 0.0
H413 H 0.33362 0.82892 0.46753 0.0
H414 H 0.33069 0.76148 0.42413 0.0
H415 H 0.31401 0.77421 0.38806 0.0
Tb416 Tb 0.58123 0.04251 0.56733 0.0
Tb417 Tb 0.53408 0.03318 0.57781 0.0
C418 C 0.62072 0.04764 0.5709 0.0
C419 C 0.63863 0.03708 0.57796 0.0
C420 C 0.63561 1.01295 0.57996 0.0
C421 C 0.65312 1.0031 0.58387 0.0
C422 C 0.67402 1.01713 0.58574 0.0
C423 C 0.67679 0.04139 0.58412 0.0
C424 C 0.65937 0.05117 0.58036 0.0
C425 C 0.55302 0.0453 0.52748 0.0
C426 C 0.55195 0.98931 0.56022 0.0
C427 C 0.49474 0.02969 0.5731 0.0
C428 C 0.47844 0.04283 0.56646 0.0
C429 C 0.46041 0.03168 0.54846 0.0
C430 C 0.44336 0.04215 0.54442 0.0
C431 C 0.44379 0.06399 0.55847 0.0
C432 C 0.46223 0.07556 0.57586 0.0
C433 C 0.47932 0.06517 0.57978 0.0
C434 C 0.56187 0.02948 0.61758 0.0
C435 C 0.56347 0.08652 0.58487 0.0
O436 O 0.61211 0.0568 0.58813 0.0
O437 O 0.60662 0.03625 0.55158 0.0
O438 O 0.5501 0.04166 0.54867 0.0
O439 O 0.57327 0.04807 0.52891 0.0
O440 O 0.57131 1.00377 0.56375 0.0
O441 O 0.53486 0.997 0.56303 0.0
O442 O 0.50349 0.02094 0.55577 0.0
O443 O 0.50839 0.03837 0.59353 0.0
O444 O 0.56532 0.03409 0.59677 0.0
O445 O 0.54152 0.02633 0.61571 0.0
O446 O 0.5442 0.07203 0.58209 0.0
O447 O 0.58043 0.07876 0.5817 0.0
H448 H 0.61973 1.00164 0.57801 0.0
H449 H 0.65023 0.98446 0.58532 0.0
H450 H 0.69243 0.05281 0.58495 0.0
H451 H 0.6621 0.06975 0.57854 0.0
H452 H 0.45915 1.01439 0.53806 0.0
H453 H 0.42944 0.03259 0.531 0.0
H454 H 0.46335 0.09256 0.58675 0.0
H455 H 0.49294 0.07436 0.59378 0.0
Tb456 Tb 0.27777 0.28609 0.80419 0.0
Tb457 Tb 0.32417 0.28296 0.81333 0.0
C458 C 0.23863 0.28181 0.80387 0.0
C459 C 0.22208 0.28287 0.81904 0.0
C460 C 0.22017 0.27062 0.83888 0.0
C461 C 0.20264 0.26952 0.85064 0.0
C462 C 0.18651 0.28045 0.84271 0.0
C463 C 0.18893 0.29331 0.82337 0.0
C464 C 0.20642 0.29448 0.81174 0.0
C465 C 0.30631 0.32207 0.79544 0.0
C466 C 0.30597 0.30098 0.85842 0.0
C467 C 0.36331 0.2872 0.81402 0.0
C468 C 0.38026 0.28776 0.79916 0.0
C469 C 0.38635 0.3061 0.78578 0.0
C470 C 0.40428 0.30777 0.77469 0.0
C471 C 0.41664 0.29121 0.77677 0.0
C472 C 0.41017 0.27268 0.78981 0.0
C473 C 0.3923 0.27101 0.8008 0.0
C474 C 0.29582 0.24695 0.82238 0.0
C475 C 0.29614 0.26828 0.75926 0.0
O476 O 0.24774 0.26427 0.80449 0.0
O477 O 0.25193 0.30172 0.80237 0.0
O478 O 0.30837 0.31051 0.81257 0.0
O479 O 0.28711 0.31452 0.783 0.0
O480 O 0.28681 0.29415 0.84435 0.0
O481 O 0.32342 0.30057 0.84953 0.0
O482 O 0.35465 0.30514 0.81582 0.0
O483 O 0.34953 0.26685 0.81291 0.0
O484 O 0.29354 0.25842 0.80517 0.0
O485 O 0.31516 0.25445 0.83437 0.0
O486 O 0.31532 0.27639 0.77315 0.0
O487 O 0.27859 0.26745 0.76834 0.0
H488 H 0.23189 0.26135 0.84487 0.0
H489 H 0.20134 0.25935 0.86535 0.0
H490 H 0.17712 0.30231 0.81698 0.0
H491 H 0.2074 0.30395 0.79646 0.0
H492 H 0.37757 0.31948 0.78431 0.0
H493 H 0.40852 0.32214 0.76461 0.0
H494 H 0.41935 0.25981 0.79233 0.0
H495 H 0.38829 0.25695 0.81136 0.0
Tb496 Tb 0.05948 0.05733 0.56143 0.0
Tb497 Tb 0.05608 1.00276 0.5518 0.0
C498 C 0.07517 0.10087 0.56407 0.0
C499 C 0.07074 0.11983 0.55136 0.0
C500 C 0.057 0.1145 0.52868 0.0
C501 C 0.0553 0.13246 0.51507 0.0
C502 C 0.06727 0.15595 0.52405 0.0
C503 C 0.08025 0.16129 0.54732 0.0
C504 C 0.08202 0.14331 0.56083 0.0
C505 C 0.02059 0.03221 0.5635 0.0
C506 C 0.04221 0.02708 0.50754 0.0
C507 C 0.04673 0.95904 0.55265 0.0
C508 C 0.04137 0.94495 0.57162 0.0
C509 C 0.03781 0.95577 0.59383 0.0
C510 C 0.03572 0.94314 0.61309 0.0
C511 C 0.03671 0.91936 0.61022 0.0
C512 C 0.03907 0.90818 0.58752 0.0
C513 C 0.04153 0.92097 0.56838 0.0
C514 C 0.09107 0.03113 0.54393 0.0
C515 C 0.06984 0.03228 0.60634 0.0
O516 O 0.08083 0.0843 0.55067 0.0
O517 O 0.06162 0.09229 0.57759 0.0
O518 O 0.03651 0.0252 0.55923 0.0
O519 O 0.02632 0.05526 0.56612 0.0
O520 O 0.04946 0.04832 0.52159 0.0
O521 O 0.0416 1.00685 0.51586 0.0
O522 O 0.03286 0.97038 0.54468 0.0
O523 O 0.06628 0.97226 0.55687 0.0
O524 O 0.0808 0.03497 0.56059 0.0
O525 O 0.08244 1.00981 0.53185 0.0
O526 O 0.06268 1.01139 0.59174 0.0
O527 O 0.07178 0.05268 0.59811 0.0
H528 H 0.04824 0.09635 0.52111 0.0
H529 H 0.04527 0.12778 0.49716 0.0
H530 H 0.08931 0.17931 0.55492 0.0
H531 H 0.09269 0.14762 0.57834 0.0
H532 H 0.03729 0.97415 0.59658 0.0
H533 H 0.03381 0.95207 0.6304 0.0
H534 H 0.04009 0.8899 0.58496 0.0
H535 H 0.04429 0.91238 0.55137 0.0
Tb536 Tb 0.29311 0.74205 0.84547 0.0
Tb537 Tb 0.30101 0.79529 0.84593 0.0
C538 C 0.28761 0.69824 0.83199 0.0
C539 C 0.30178 0.6827 0.8283 0.0
C540 C 0.32386 0.69187 0.83384 0.0
C541 C 0.33723 0.67721 0.82922 0.0
C542 C 0.32875 0.65297 0.81929 0.0
C543 C 0.30655 0.6438 0.81435 0.0
C544 C 0.2932 0.65858 0.81869 0.0
C545 C 0.28383 0.76575 0.88327 0.0
C546 C 0.33791 0.77464 0.87128 0.0
C547 C 0.30743 0.8396 0.85708 0.0
C548 C 0.2945 0.85691 0.85642 0.0
C549 C 0.27269 0.85018 0.85664 0.0
C550 C 0.2607 0.86694 0.85578 0.0
C551 C 0.27021 0.89069 0.85422 0.0
C552 C 0.29207 0.89714 0.85363 0.0
C553 C 0.30406 0.88046 0.85486 0.0
C554 C 0.3106 0.77053 0.80847 0.0
C555 C 0.25628 0.76373 0.82025 0.0
O556 O 0.28706 0.71337 0.81682 0.0
O557 O 0.28874 0.70798 0.85461 0.0
O558 O 0.28126 0.76974 0.86177 0.0
O559 O 0.29013 0.74647 0.8839 0.0
O560 O 0.32713 0.75304 0.85998 0.0
O561 O 0.32952 0.79305 0.87041 0.0
O562 O 0.30444 0.82497 0.87272 0.0
O563 O 0.30906 0.82894 0.83582 0.0
O564 O 0.31299 0.76755 0.8302 0.0
O565 O 0.30389 0.78948 0.80718 0.0
O566 O 0.26758 0.78535 0.83059 0.0
O567 O 0.26363 0.74469 0.8225 0.0
H568 H 0.33077 0.7104 0.84154 0.0
H569 H 0.35419 0.68501 0.83301 0.0
H570 H 0.29943 0.62516 0.80718 0.0
H571 H 0.27618 0.65118 0.81447 0.0
H572 H 0.2649 0.83198 0.85738 0.0
H573 H 0.24401 0.86126 0.85651 0.0
H574 H 0.29993 0.91501 0.85179 0.0
H575 H 0.32082 0.88591 0.85433 0.0
Tb576 Tb 0.52371 0.06298 0.05513 0.0
Tb577 Tb 0.55597 0.04711 0.08574 0.0
C578 C 0.48963 0.06592 0.03061 0.0
C579 C 0.46961 0.06995 0.03627 0.0
C580 C 0.46095 0.06026 0.05515 0.0
C581 C 0.44132 0.06283 0.05946 0.0
C582 C 0.42988 0.07523 0.04501 0.0
C583 C 0.439 0.08575 0.0267 0.0
C584 C 0.45874 0.08312 0.02239 0.0
C585 C 0.5538 0.0979 0.08284 0.0
C586 C 0.51709 0.05466 0.1107 0.0
C587 C 0.58918 0.04344 0.11139 0.0
C588 C 0.60861 0.0358 0.10936 0.0
C589 C 0.62105 0.04309 0.09221 0.0
C590 C 0.64122 0.03912 0.0936 0.0
C591 C 0.64921 0.02777 0.11214 0.0
C592 C 0.63591 1.01874 0.12791 0.0
C593 C 0.61581 0.02281 0.12657 0.0
C594 C 0.52611 1.01219 0.05687 0.0
C595 C 0.56332 0.05612 0.0307 0.0
O596 O 0.49355 0.04577 0.03488 0.0
O597 O 0.50631 0.08394 0.03786 0.0
O598 O 0.54516 0.07838 0.08844 0.0
O599 O 0.54486 0.0986 0.06087 0.0
O600 O 0.50827 0.05689 0.08827 0.0
O601 O 0.53698 0.05283 0.11436 0.0
O602 O 0.58738 0.06286 0.10297 0.0
O603 O 0.57142 0.02673 0.10643 0.0
O604 O 0.53487 0.032 0.05215 0.0
O605 O 0.5347 1.01129 0.0789 0.0
O606 O 0.5716 0.05258 0.05282 0.0
O607 O 0.54372 0.0591 0.02699 0.0
H608 H 0.46896 0.04995 0.06608 0.0
H609 H 0.43466 0.05395 0.07332 0.0
H610 H 0.43065 0.09548 0.01534 0.0
H611 H 0.46531 0.09089 1.00785 0.0
H612 H 0.61571 0.05296 0.0786 0.0
H613 H 0.65111 0.04652 0.0813 0.0
H614 H 0.64152 1.00968 0.14216 0.0
H615 H 0.6063 1.01687 0.13982 0.0
Tb616 Tb 0.2761 0.27599 0.29836 0.0
Tb617 Tb 0.31693 0.30787 0.3206 0.0
C618 C 0.23763 0.25471 0.29269 0.0
C619 C 0.21872 0.26365 0.2942 0.0
C620 C 0.2045 0.25375 0.30854 0.0
C621 C 0.1887 0.26459 0.3141 0.0
C622 C 0.18676 0.28547 0.30527 0.0
C623 C 0.20024 0.29466 0.28978 0.0
C624 C 0.21623 0.28394 0.28442 0.0
C625 C 0.29732 0.2949 0.2664 0.0
C626 C 0.27881 0.33296 0.31476 0.0
C627 C 0.35548 0.32966 0.32791 0.0
C628 C 0.37524 0.32189 0.32917 0.0
C629 C 0.37652 0.30251 0.31252 0.0
C630 C 0.39537 0.29553 0.31343 0.0
C631 C 0.4134 0.30774 0.331 0.0
C632 C 0.41202 0.32696 0.34788 0.0
C633 C 0.39307 0.33394 0.34697 0.0
C634 C 0.29564 0.28846 0.35252 0.0
C635 C 0.31419 0.25104 0.30224 0.0
O636 O 0.2509 0.25862 0.31343 0.0
O637 O 0.24731 0.2592 0.27446 0.0
O638 O 0.29613 0.30512 0.28712 0.0
O639 O 0.28546 0.27327 0.26255 0.0
O640 O 0.26687 0.31049 0.30871 0.0
O641 O 0.29984 0.33655 0.31892 0.0
O642 O 0.34301 0.32446 0.30649 0.0
O643 O 0.34498 0.32567 0.34556 0.0
O644 O 0.29714 0.27846 0.33183 0.0
O645 O 0.30678 0.3104 0.35606 0.0
O646 O 0.32609 0.27339 0.31005 0.0
O647 O 0.29317 0.24736 0.29738 0.0
H648 H 0.20623 0.23822 0.31638 0.0
H649 H 0.17829 0.25697 0.32581 0.0
H650 H 0.19912 0.3108 0.28285 0.0
H651 H 0.22719 0.29213 0.27355 0.0
H652 H 0.36306 0.29292 0.29849 0.0
H653 H 0.39595 0.28095 0.29986 0.0
H654 H 0.42558 0.3366 0.36177 0.0
H655 H 0.39237 0.34887 0.36004 0.0
Tb656 Tb 0.55533 0.56102 0.06392 0.0
Tb657 Tb 0.55339 0.50703 0.05511 0.0
C658 C 0.5695 0.60486 0.06665 0.0
C659 C 0.56352 0.6246 0.05659 0.0
C660 C 0.57486 0.6478 0.06717 0.0
C661 C 0.57101 0.66692 0.05658 0.0
C662 C 0.55577 0.6631 0.03515 0.0
C663 C 0.54377 0.63982 0.02513 0.0
C664 C 0.54766 0.62064 0.03579 0.0
C665 C 0.51679 0.53505 0.06604 0.0
C666 C 0.53695 0.52945 1.01082 0.0
C667 C 0.54755 0.46381 0.05763 0.0
C668 C 0.549 0.45111 0.07852 0.0
C669 C 0.53207 0.43226 0.08032 0.0
C670 C 0.53353 0.41996 0.09998 0.0
C671 C 0.55204 0.42626 0.11795 0.0
C672 C 0.5687 0.44551 0.11644 0.0
C673 C 0.56718 0.45787 0.09699 0.0
C674 C 0.58756 0.53631 0.04633 0.0
C675 C 0.56734 0.53692 0.10932 0.0
O676 O 0.57384 0.58892 0.05098 0.0
O677 O 0.55809 0.59546 0.08185 0.0
O678 O 0.53304 0.52858 0.06222 0.0
O679 O 0.52189 0.55805 0.06807 0.0
O680 O 0.54565 0.55097 0.02403 0.0
O681 O 0.53588 0.50967 0.02018 0.0
O682 O 0.53203 0.47424 0.0549 0.0
O683 O 0.56546 0.47713 0.05428 0.0
O684 O 0.57767 0.53986 0.06346 0.0
O685 O 0.57877 0.51515 0.03401 0.0
O686 O 0.56096 0.51583 0.09502 0.0
O687 O 0.56834 0.55703 0.10068 0.0
H688 H 0.5871 0.65108 0.0833 0.0
H689 H 0.58024 0.68471 0.0649 0.0
H690 H 0.53201 0.63638 1.00856 0.0
H691 H 0.53876 0.60273 0.02743 0.0
H692 H 0.51784 0.42691 0.06638 0.0
H693 H 0.52052 0.40508 0.10074 0.0
H694 H 0.58302 0.45088 0.13026 0.0
H695 H 0.58036 0.47262 0.09639 0.0
Tb696 Tb 0.80645 0.26294 0.33795 0.0
Tb697 Tb 0.81129 0.31661 0.3434 0.0
C698 C 0.80366 0.22126 0.31838 0.0
C699 C 0.81846 0.20698 0.3126 0.0
C700 C 0.81427 0.19245 0.28971 0.0
C701 C 0.82728 0.1776 0.28427 0.0
C702 C 0.8447 0.17688 0.30171 0.0
C703 C 0.84937 0.19222 0.3243 0.0
C704 C 0.83641 0.2072 0.32967 0.0
C705 C 0.79476 0.28166 0.37675 0.0
C706 C 0.84883 0.29615 0.36834 0.0
C707 C 0.81484 0.35967 0.35893 0.0
C708 C 0.80098 0.3762 0.35805 0.0
C709 C 0.78403 0.37416 0.37082 0.0
C710 C 0.77137 0.39025 0.3699 0.0
C711 C 0.77542 0.40875 0.35625 0.0
C712 C 0.79235 0.41066 0.34346 0.0
C713 C 0.80502 0.39466 0.34446 0.0
C714 C 0.82295 0.29654 0.30509 0.0
C715 C 0.76773 0.2835 0.31548 0.0
O716 O 0.80297 0.23859 0.30596 0.0
O717 O 0.8032 0.22733 0.34156 0.0
O718 O 0.79272 0.28762 0.35607 0.0
O719 O 0.80166 0.2626 0.37563 0.0
O720 O 0.83951 0.2749 0.35522 0.0
O721 O 0.83979 0.31413 0.36795 0.0
O722 O 0.81075 0.34288 0.37212 0.0
O723 O 0.81974 0.35204 0.33815 0.0
O724 O 0.82541 0.29194 0.32621 0.0
O725 O 0.81443 0.31433 0.30465 0.0
O726 O 0.77815 0.30536 0.3262 0.0
O727 O 0.77608 0.26506 0.31691 0.0
H728 H 0.8007 0.19231 0.27615 0.0
H729 H 0.82353 0.16645 0.26648 0.0
H730 H 0.8626 0.19207 0.33818 0.0
H731 H 0.84016 0.21853 0.34737 0.0
H732 H 0.78058 0.36026 0.38165 0.0
H733 H 0.75863 0.38842 0.38018 0.0
H734 H 0.79573 0.42441 0.33243 0.0
H735 H 0.81801 0.39671 0.33452 0.0
Tb736 Tb 1.01377 0.54416 0.54823 0.0
Tb737 Tb 0.0549 0.56766 0.58293 0.0
C738 C 0.98019 0.51549 0.52494 0.0
C739 C 0.95703 0.51151 0.52334 0.0
C740 C 0.94565 0.49233 0.53251 0.0
C741 C 0.9236 0.48746 0.52971 0.0
C742 C 0.91243 0.50158 0.5175 0.0
C743 C 0.92383 0.52087 0.50847 0.0
C744 C 0.94588 0.52576 0.51131 0.0
C745 C 0.02271 0.59094 0.55825 0.0
C746 C 1.01351 0.5547 0.60731 0.0
C747 C 0.08813 0.5976 0.6047 0.0
C748 C 0.1104 0.60355 0.60198 0.0
C749 C 0.121 0.62738 0.60318 0.0
C750 C 0.14225 0.63354 0.60091 0.0
C751 C 0.15331 0.61592 0.59764 0.0
C752 C 0.14249 0.59197 0.59607 0.0
C753 C 0.12117 0.58581 0.59807 0.0
C754 C 0.04639 0.52087 0.5725 0.0
C755 C 0.05602 0.55622 0.52452 0.0
O756 O 0.99112 0.5116 0.54485 0.0
O757 O 0.98994 0.53447 0.51725 0.0
O758 O 0.02632 0.57685 0.57223 0.0
O759 O 1.0107 0.57843 0.53831 0.0
O760 O 1.00316 0.54334 0.58491 0.0
O761 O 0.03367 0.56708 0.61019 0.0
O762 O 0.07476 0.60195 0.58724 0.0
O763 O 0.08099 0.57716 0.61155 0.0
O764 O 0.04243 0.53508 0.5588 0.0
O765 O 0.05784 0.53332 0.59285 0.0
O766 O 0.06579 0.56872 0.54659 0.0
O767 O 0.03607 0.54308 0.52188 0.0
H768 H 0.95379 0.48092 0.54165 0.0
H769 H 0.9153 0.47268 0.53721 0.0
H770 H 0.91567 0.53192 0.49878 0.0
H771 H 0.95411 0.54053 0.50374 0.0
H772 H 0.11284 0.64126 0.60592 0.0
H773 H 0.15001 0.6521 0.60173 0.0
H774 H 0.15059 0.57799 0.59385 0.0
H775 H 0.11322 0.56723 0.59682 0.0
Tb776 Tb 0.77727 0.79446 0.30258 0.0
Tb777 Tb 0.82286 0.78827 0.31205 0.0
C778 C 0.7385 0.79207 0.30296 0.0
C779 C 0.72221 0.78993 0.31899 0.0
C780 C 0.71109 0.76755 0.32289 0.0
C781 C 0.69384 0.76536 0.33514 0.0
C782 C 0.68706 0.78545 0.34377 0.0
C783 C 0.69857 0.80786 0.34037 0.0
C784 C 0.71579 0.81005 0.32811 0.0
C785 C 0.80715 0.82894 0.29376 0.0
C786 C 0.80494 0.80627 0.35714 0.0
C787 C 0.8618 0.79165 0.31253 0.0
C788 C 0.87847 0.79401 0.2972 0.0
C789 C 0.89634 0.81355 0.30386 0.0
C790 C 0.91366 0.81496 0.29191 0.0
C791 C 0.91365 0.79681 0.27293 0.0
C792 C 0.89541 0.77759 0.26572 0.0
C793 C 0.87805 0.77619 0.27772 0.0
C794 C 0.79325 0.75393 0.32143 0.0
C795 C 0.79517 0.77538 0.2576 0.0
O796 O 0.74593 0.77362 0.29747 0.0
O797 O 0.75323 0.8121 0.30635 0.0
O798 O 0.80865 0.81715 0.31081 0.0
O799 O 0.78774 0.82285 0.28184 0.0
O800 O 0.78602 0.80146 0.34277 0.0
O801 O 0.82229 0.80443 0.34875 0.0
O802 O 0.85392 0.80992 0.31708 0.0
O803 O 0.84739 0.77136 0.3092 0.0
O804 O 0.79147 0.76553 0.30423 0.0
O805 O 0.81282 0.75995 0.33285 0.0
O806 O 0.81405 0.78048 0.27205 0.0
O807 O 0.77779 0.77772 0.26578 0.0
H808 H 0.71528 0.75157 0.31583 0.0
H809 H 0.68535 0.74775 0.33705 0.0
H810 H 0.69419 0.82383 0.34705 0.0
H811 H 0.72376 0.82753 0.32522 0.0
H812 H 0.89724 0.82744 0.31896 0.0
H813 H 0.92742 0.82989 0.29826 0.0
H814 H 0.8946 0.76345 0.25094 0.0
H815 H 0.86454 0.76087 0.27209 0.0
Tb816 Tb 0.80898 0.28379 0.79769 0.0
Tb817 Tb 0.80297 0.29912 0.84509 0.0
C818 C 0.80217 0.26484 0.7535 0.0
C819 C 0.78659 0.26633 0.73258 0.0
C820 C 0.76581 0.26661 0.73532 0.0
C821 C 0.75182 0.2709 0.71632 0.0
C822 C 0.75841 0.27526 0.69434 0.0
C823 C 0.77886 0.27372 0.69122 0.0
C824 C 0.79283 0.26927 0.71023 0.0
C825 C 0.84333 0.28705 0.83085 0.0
C826 C 0.82193 0.33953 0.81465 0.0
C827 C 0.80729 0.31451 0.88978 0.0
C828 C 0.80495 0.30174 0.91039 0.0
C829 C 0.81843 0.31087 0.93301 0.0
C830 C 0.81788 0.29747 0.95184 0.0
C831 C 0.80387 0.27471 0.94823 0.0
C832 C 0.79006 0.2659 0.92568 0.0
C833 C 0.79061 0.27928 0.90693 0.0
C834 C 0.76865 0.29393 0.81116 0.0
C835 C 0.78637 0.24423 0.82738 0.0
O836 O 0.79428 0.2544 0.77037 0.0
O837 O 0.81686 0.28435 0.76278 0.0
O838 O 0.82426 0.27938 0.83301 0.0
O839 O 0.84333 0.29126 0.80892 0.0
O840 O 0.81574 0.32224 0.79537 0.0
O841 O 0.81982 0.33396 0.83648 0.0
O842 O 0.82313 0.31207 0.87911 0.0
O843 O 0.78992 0.31219 0.87405 0.0
O844 O 0.78761 0.30299 0.80955 0.0
O845 O 0.76849 0.28814 0.8326 0.0
O846 O 0.79324 0.26091 0.84702 0.0
O847 O 0.78904 0.25019 0.80582 0.0
H848 H 0.76059 0.26438 0.75244 0.0
H849 H 0.73613 0.27179 0.7192 0.0
H850 H 0.78455 0.27739 0.67467 0.0
H851 H 0.8088 0.26915 0.70783 0.0
H852 H 0.8297 0.32809 0.93591 0.0
H853 H 0.82855 0.3048 0.96913 0.0
H854 H 0.7793 0.24832 0.92221 0.0
H855 H 0.78018 0.27178 0.88952 0.0
Tb856 Tb 0.77626 0.77551 0.79656 0.0
Tb857 Tb 0.81775 0.80705 0.81881 0.0
C858 C 0.73758 0.75492 0.7913 0.0
C859 C 0.71985 0.76376 0.79863 0.0
C860 C 0.72303 0.7794 0.82075 0.0
C861 C 0.70642 0.78794 0.82776 0.0
C862 C 0.68621 0.78112 0.81281 0.0
C863 C 0.6831 0.76585 0.7904 0.0
C864 C 0.69981 0.75719 0.7834 0.0
C865 C 0.79784 0.79403 0.76468 0.0
C866 C 0.77991 0.83235 0.81398 0.0
C867 C 0.85617 0.82959 0.82598 0.0
C868 C 0.87661 0.82347 0.82755 0.0
C869 C 0.89377 0.83929 0.82163 0.0
C870 C 0.91247 0.83258 0.81956 0.0
C871 C 0.91426 0.80979 0.82316 0.0
C872 C 0.89734 0.79437 0.83024 0.0
C873 C 0.87865 0.80118 0.83244 0.0
C874 C 0.7959 0.78844 0.8507 0.0
C875 C 0.81416 0.75011 0.8 0.0
O876 O 0.75201 0.75331 0.80926 0.0
O877 O 0.746 0.76434 0.77406 0.0
O878 O 0.7968 0.80428 0.78544 0.0
O879 O 0.78557 0.77256 0.76068 0.0
O880 O 0.76782 0.80996 0.80899 0.0
O881 O 0.80087 0.83578 0.81681 0.0
O882 O 0.84393 0.82304 0.80444 0.0
O883 O 0.84567 0.82529 0.84359 0.0
O884 O 0.79727 0.77825 0.83006 0.0
O885 O 0.80773 0.81006 0.85437 0.0
O886 O 0.82634 0.77225 0.80842 0.0
O887 O 0.79317 0.74674 0.79448 0.0
H888 H 0.73839 0.78506 0.83274 0.0
H889 H 0.70944 0.80002 0.8449 0.0
H890 H 0.66768 0.76024 0.77856 0.0
H891 H 0.69707 0.7453 0.76618 0.0
H892 H 0.89247 0.85658 0.81782 0.0
H893 H 0.92535 0.84506 0.81456 0.0
H894 H 0.89814 0.77666 0.83301 0.0
H895 H 0.86556 0.78879 0.83714 0.0
Tb896 Tb 0.54831 0.52544 0.55254 0.0
Tb897 Tb 0.58602 0.5551 0.58431 0.0
C898 C 0.51007 0.50911 0.53269 0.0
C899 C 0.4929 0.52102 0.5334 0.0
C900 C 0.49525 0.53993 0.55242 0.0
C901 C 0.47994 0.55256 0.55289 0.0
C902 C 0.46177 0.54638 0.53452 0.0
C903 C 0.4591 0.52713 0.51566 0.0
C904 C 0.47477 0.51463 0.51497 0.0
C905 C 0.58184 0.53042 0.53118 0.0
C906 C 0.55958 0.58177 0.55474 0.0
C907 C 0.6222 0.57421 0.60923 0.0
C908 C 0.63273 0.56784 0.63127 0.0
C909 C 0.65486 0.57333 0.63687 0.0
C910 C 0.66481 0.56207 0.65378 0.0
C911 C 0.65265 0.54498 0.66496 0.0
C912 C 0.63058 0.54172 0.6614 0.0
C913 C 0.62066 0.55298 0.64452 0.0
C914 C 0.55175 0.54914 0.60472 0.0
C915 C 0.57605 0.49802 0.58151 0.0
O916 O 0.51815 0.50472 0.55378 0.0
O917 O 0.52475 0.51853 0.52103 0.0
O918 O 0.57742 0.54633 0.54534 0.0
O919 O 0.56686 0.51103 0.52841 0.0
O920 O 0.54421 0.56226 0.5534 0.0
O921 O 0.5793 0.58149 0.56278 0.0
O922 O 0.61875 0.55825 0.58951 0.0
O923 O 0.60557 0.58213 0.61172 0.0
O924 O 0.55717 0.53378 0.5912 0.0
O925 O 0.5662 0.56885 0.60764 0.0
O926 O 0.58934 0.51927 0.59006 0.0
O927 O 0.55807 0.49582 0.56638 0.0
H928 H 0.50897 0.54499 0.56703 0.0
H929 H 0.48212 0.56693 0.56796 0.0
H930 H 0.44508 0.52197 0.50144 0.0
H931 H 0.47277 0.5001 0.50013 0.0
H932 H 0.66436 0.58477 0.62678 0.0
H933 H 0.68184 0.56479 0.65594 0.0
H934 H 0.62087 0.52868 0.6698 0.0
H935 H 0.60348 0.54856 0.6404 0.0
Tb936 Tb 0.07771 0.54033 0.06499 0.0
Tb937 Tb 0.0305 0.5322 0.07587 0.0
C938 C 0.11718 0.54526 0.06842 0.0
C939 C 0.1348 0.53364 0.07275 0.0
C940 C 0.13521 0.51676 0.08831 0.0
C941 C 0.15236 0.50621 0.09135 0.0
C942 C 0.16929 0.51217 0.0787 0.0
C943 C 0.16869 0.52917 0.06327 0.0
C944 C 0.15172 0.53971 0.06037 0.0
C945 C 0.04955 0.54315 0.02529 0.0
C946 C 0.04752 0.48763 0.05759 0.0
C947 C 0.99108 0.5287 0.07176 0.0
C948 C 0.97418 0.54172 0.06823 0.0
C949 C 0.96788 0.5492 0.04609 0.0
C950 C 0.95054 0.55944 0.04294 0.0
C951 C 0.93881 0.56203 0.06168 0.0
C952 C 0.94536 0.5548 0.08385 0.0
C953 C 0.96274 0.54485 0.08705 0.0
C954 C 0.05836 0.52804 0.11534 0.0
C955 C 0.06071 0.58502 0.08301 0.0
O956 O 0.10836 0.55166 0.08674 0.0
O957 O 0.10334 0.53676 0.04817 0.0
O958 O 0.0467 0.5402 0.04669 0.0
O959 O 0.06965 0.54503 0.02641 0.0
O960 O 0.06711 0.50156 0.06091 0.0
O961 O 0.03077 0.49595 0.06063 0.0
O962 O 1.00013 0.52294 0.05341 0.0
O963 O 1.00457 0.53505 0.09248 0.0
O964 O 0.06166 0.53246 0.09443 0.0
O965 O 0.03808 0.52527 0.11371 0.0
O966 O 0.04143 0.571 0.0816 0.0
O967 O 0.07723 0.57694 0.07844 0.0
H968 H 0.12229 0.51162 0.09795 0.0
H969 H 0.15218 0.49309 0.10326 0.0
H970 H 0.18151 0.5346 0.05357 0.0
H971 H 0.15181 0.55272 0.04832 0.0
H972 H 0.976 0.54671 0.031 0.0
H973 H 0.94589 0.5646 0.02555 0.0
H974 H 0.93697 0.55675 0.09882 0.0
H975 H 0.96696 0.53907 0.10424 0.0
H976 H 1.01251 0.17582 0.95392 0.0
H977 H 0.0336 0.2202 0.02483 0.0
H978 H 1.01796 0.14148 0.97191 0.0
H979 H 0.03947 0.18574 0.04279 0.0
H980 H 0.07188 0.12295 0.05576 0.0
H981 H 0.06429 0.15793 0.0406 0.0
H982 H 1.0033 0.11518 1.00133 0.0
H983 H 1.01068 0.08025 0.01679 0.0
C984 C 1.01829 0.17831 0.97339 0.0
C985 C 0.02258 0.20097 0.98784 0.0
C986 C 0.02132 0.15849 0.98375 0.0
C987 C 0.02917 0.16068 1.00887 0.0
C988 C 0.03351 0.18333 0.02338 0.0
C989 C 0.03004 0.20311 0.01308 0.0
C990 C 0.05674 0.12098 0.04409 0.0
C991 C 0.04196 0.09857 0.03753 0.0
C992 C 0.05235 0.14115 0.03545 0.0
C993 C 0.03321 0.1395 0.01957 0.0
C994 C 1.01829 0.11717 0.0133 0.0
C995 C 0.02251 0.0971 0.02231 0.0
H996 H 0.16678 0.81704 0.19135 0.0
H997 H 0.13465 0.81004 0.25245 0.0
H998 H 0.19898 0.81319 0.21605 0.0
H999 H 0.16714 0.80746 0.27769 0.0
H1000 H 0.22047 0.77775 0.31077 0.0
H1001 H 0.18884 0.78294 0.28596 0.0
H1002 H 0.22831 0.8281 0.24666 0.0
H1003 H 0.25984 0.82167 0.27079 0.0
C1004 C 0.16669 0.81522 0.21026 0.0
C1005 C 0.14796 0.81383 0.21979 0.0
C1006 C 0.18532 0.81305 0.22459 0.0
C1007 C 0.18598 0.80974 0.24909 0.0
C1008 C 0.16739 0.8093 0.25883 0.0
C1009 C 0.14868 0.8111 0.24438 0.0
C1010 C 0.22235 0.7887 0.29674 0.0
C1011 C 0.2427 0.79927 0.29279 0.0
C1012 C 0.20414 0.79195 0.28257 0.0
C1013 C 0.20566 0.8062 0.26417 0.0
C1014 C 0.22617 0.81672 0.26027 0.0
C1015 C 0.24439 0.81316 0.27423 0.0
H1016 H 0.53198 0.83215 0.53231 0.0
H1017 H 0.54123 0.85891 0.46565 0.0
H1018 H 0.5364 0.87315 0.55322 0.0
H1019 H 0.54617 0.89931 0.48652 0.0
H1020 H 0.57999 0.96861 0.54033 0.0
H1021 H 0.57567 0.92683 0.52427 0.0
H1022 H 0.51455 0.90886 0.54543 0.0
H1023 H 0.51855 0.95107 0.56117 0.0
C1024 C 0.53509 0.84669 0.52219 0.0
C1025 C 0.53619 0.84217 0.49727 0.0
C1026 C 0.53749 0.87011 0.5341 0.0
C1027 C 0.54164 0.88945 0.52148 0.0
C1028 C 0.54306 0.88485 0.49676 0.0
C1029 C 0.54016 0.86161 0.4848 0.0
C1030 C 0.56565 0.95585 0.54183 0.0
C1031 C 0.54956 0.96338 0.552 0.0
C1032 C 0.56321 0.93186 0.53257 0.0
C1033 C 0.54481 0.91453 0.53363 0.0
C1034 C 0.52898 0.92179 0.54454 0.0
C1035 C 0.53123 0.94599 0.5534 0.0
H1036 H 0.53684 0.27133 0.74506 0.0
H1037 H 0.52945 0.32989 0.70827 0.0
H1038 H 0.50343 0.27007 0.7589 0.0
H1039 H 0.49574 0.32854 0.72214 0.0
H1040 H 0.44651 0.33201 0.77387 0.0
H1041 H 0.47991 0.33526 0.75911 0.0
H1042 H 0.4656 0.25884 0.74134 0.0
H1043 H 0.43216 0.25553 0.75559 0.0
C1044 C 0.52815 0.28406 0.73999 0.0
C1045 C 0.53592 0.3007 0.72547 0.0
C1046 C 0.50883 0.2832 0.7478 0.0
C1047 C 0.49668 0.29903 0.74148 0.0
C1048 C 0.50468 0.31612 0.72747 0.0
C1049 C 0.52401 0.31686 0.71946 0.0
C1050 C 0.45027 0.31587 0.76646 0.0
C1051 C 0.43652 0.29347 0.76621 0.0
C1052 C 0.46953 0.31777 0.75804 0.0
C1053 C 0.47567 0.29732 0.74927 0.0
C1054 C 0.46169 0.27499 0.74846 0.0
C1055 C 0.44243 0.27309 0.7567 0.0
H1056 H 0.09276 0.84207 0.70052 0.0
H1057 H 0.0287 0.81922 0.71306 0.0
H1058 H 0.08329 0.87372 0.68068 0.0
H1059 H 0.0191 0.85069 0.6926 0.0
H1060 H 0.06253 0.93497 0.65455 0.0
H1061 H 0.06845 0.91162 0.68679 0.0
H1062 H 1.01876 0.85219 0.64548 0.0
H1063 H 1.01303 0.87543 0.61311 0.0
C1064 C 0.07679 0.8442 0.69952 0.0
C1065 C 0.06141 0.82816 0.7081 0.0
C1066 C 0.07141 0.86236 0.68831 0.0
C1067 C 0.05046 0.8645 0.68508 0.0
C1068 C 0.03535 0.84933 0.69491 0.0
C1069 C 0.04086 0.83143 0.70664 0.0
C1070 C 0.0525 0.91714 0.65272 0.0
C1071 C 0.03743 0.90685 0.63136 0.0
C1072 C 0.05592 0.90383 0.67109 0.0
C1073 C 0.04405 0.88019 0.66854 0.0
C1074 C 0.02795 0.87048 0.64796 0.0
C1075 C 0.02478 0.88366 0.6294 0.0
H1076 H 0.47541 0.78627 0.90488 0.0
H1077 H 0.46234 0.8329 0.8543 0.0
H1078 H 0.43741 0.77317 0.90557 0.0
H1079 H 0.42469 0.82004 0.85533 0.0
H1080 H 0.36631 0.81768 0.88839 0.0
H1081 H 0.4046 0.82663 0.89146 0.0
H1082 H 0.40091 0.75184 0.87453 0.0
H1083 H 0.36237 0.74264 0.87113 0.0
C1084 C 0.46444 0.79345 0.89366 0.0
C1085 C 0.47189 0.8107 0.87961 0.0
C1086 C 0.44275 0.78598 0.89412 0.0
C1087 C 0.42827 0.79595 0.88087 0.0
C1088 C 0.43562 0.81241 0.86606 0.0
C1089 C 0.45717 0.8196 0.86531 0.0
C1090 C 0.3736 0.80303 0.88582 0.0
C1091 C 0.36118 0.77945 0.87915 0.0
C1092 C 0.39553 0.80821 0.88742 0.0
C1093 C 0.40557 0.78994 0.88272 0.0
C1094 C 0.39348 0.76624 0.8781 0.0
C1095 C 0.37143 0.76102 0.87622 0.0
H1096 H 0.58317 0.23649 0.17761 0.0
H1097 H 0.54772 0.18294 0.21239 0.0
H1098 H 0.58388 0.20575 0.14444 0.0
H1099 H 0.5481 0.15237 0.179 0.0
H1100 H 0.55593 0.14396 0.07738 0.0
H1101 H 0.56029 0.17727 0.11015 0.0
H1102 H 0.57386 0.13341 0.16348 0.0
H1103 H 0.56903 0.10002 0.13075 0.0
C1104 C 0.57533 0.21821 0.17807 0.0
C1105 C 0.56545 0.21215 0.19772 0.0
C1106 C 0.57576 0.20062 0.15904 0.0
C1107 C 0.56634 0.17663 0.1593 0.0
C1108 C 0.55596 0.17066 0.1786 0.0
C1109 C 0.55553 0.18822 0.1976 0.0
C1110 C 0.56039 0.14165 0.09608 0.0
C1111 C 0.56187 0.11937 0.1016 0.0
C1112 C 0.56284 0.16071 0.11485 0.0
C1113 C 0.56691 0.15776 0.13939 0.0
C1114 C 0.57015 0.136 0.14475 0.0
C1115 C 0.56764 0.11699 0.12603 0.0
H1116 H 0.11126 0.35543 0.38898 0.0
H1117 H 0.06883 0.30829 0.32692 0.0
H1118 H 0.14151 0.35133 0.37009 0.0
H1119 H 0.09899 0.30402 0.30826 0.0
H1120 H 0.15801 0.30287 0.27746 0.0
H1121 H 0.13103 0.32115 0.29139 0.0
H1122 H 0.15459 0.31496 0.3656 0.0
H1123 H 0.18143 0.29706 0.35175 0.0
C1124 C 0.10833 0.34478 0.371 0.0
C1125 C 0.08771 0.33181 0.35964 0.0
C1126 C 0.12566 0.34233 0.36026 0.0
C1127 C 0.12263 0.32701 0.33793 0.0
C1128 C 0.10186 0.31599 0.32546 0.0
C1129 C 0.08456 0.31834 0.33624 0.0
C1130 C 0.15754 0.3058 0.29676 0.0
C1131 C 0.17152 0.29824 0.31351 0.0
C1132 C 0.14214 0.3162 0.30471 0.0
C1133 C 0.14073 0.31952 0.32958 0.0
C1134 C 0.15543 0.31296 0.34637 0.0
C1135 C 0.1706 0.30239 0.33842 0.0
H1136 H 0.96924 0.04669 0.20789 0.0
H1137 H 1.00493 0.99526 0.22198 0.0
H1138 H 0.98577 0.0541 0.17268 0.0
H1139 H 0.02136 1.00258 0.18637 0.0
H1140 H 0.0255 1.00314 0.1044 0.0
H1141 H 1.00884 0.99599 0.13975 0.0
H1142 H 0.02255 0.07165 0.16419 0.0
H1143 H 0.0395 0.0788 0.12898 0.0
C1144 C 0.98065 0.03696 0.20351 0.0
C1145 C 0.98574 0.02034 0.2178 0.0
C1146 C 0.99018 0.04131 0.18336 0.0
C1147 C 1.00481 0.02889 0.17669 0.0
C1148 C 1.00999 1.01228 0.19095 0.0
C1149 C 1.0007 1.00821 0.21143 0.0
C1150 C 0.0248 1.01825 0.11721 0.0
C1151 C 0.03383 0.04156 0.11395 0.0
C1152 C 1.01543 1.01414 0.13757 0.0
C1153 C 1.01454 0.03324 0.15487 0.0
C1154 C 0.02296 0.05656 0.15116 0.0
C1155 C 0.03265 0.06067 0.13101 0.0
H1156 H 0.36966 0.76728 0.5948 0.0
H1157 H 0.36944 0.70389 0.54635 0.0
H1158 H 0.36738 0.78843 0.56038 0.0
H1159 H 0.36627 0.72472 0.51165 0.0
H1160 H 0.36497 0.77084 0.45299 0.0
H1161 H 0.37902 0.7558 0.48887 0.0
H1162 H 0.33715 0.78443 0.52931 0.0
H1163 H 0.32342 0.79952 0.49379 0.0
C1164 C 0.36956 0.75803 0.57681 0.0
C1165 C 0.3694 0.7339 0.57312 0.0
C1166 C 0.36808 0.77007 0.55707 0.0
C1167 C 0.36604 0.75807 0.5332 0.0
C1168 C 0.36783 0.7345 0.5298 0.0
C1169 C 0.36963 0.72253 0.54967 0.0
C1170 C 0.3589 0.77397 0.46965 0.0
C1171 C 0.34309 0.78634 0.47062 0.0
C1172 C 0.36696 0.76541 0.49016 0.0
C1173 C 0.35933 0.76904 0.51201 0.0
C1174 C 0.34381 0.78181 0.513 0.0
C1175 C 0.33583 0.7904 0.49259 0.0
H1176 H 0.61315 0.03523 0.7743 0.0
H1177 H 0.65748 1.00646 0.73892 0.0
H1178 H 0.59388 0.03792 0.73468 0.0
H1179 H 0.63795 1.00876 0.69901 0.0
H1180 H 0.60644 0.03361 0.62884 0.0
H1181 H 0.62755 0.03112 0.6682 0.0
H1182 H 0.57074 1.01864 0.69906 0.0
H1183 H 0.55025 0.02153 0.66064 0.0
C1184 C 0.61874 0.0291 0.75812 0.0
C1185 C 0.63704 0.02033 0.7605 0.0
C1186 C 0.60751 0.0306 0.73498 0.0
C1187 C 0.61391 0.02348 0.71278 0.0
C1188 C 0.63225 1.01472 0.71517 0.0
C1189 C 0.64347 1.01313 0.73838 0.0
C1190 C 0.59849 0.03045 0.64405 0.0
C1191 C 0.57638 0.02798 0.64107 0.0
C1192 C 0.61065 0.02885 0.66686 0.0
C1193 C 0.60125 0.02488 0.6877 0.0
C1194 C 0.57914 0.02226 0.68429 0.0
C1195 C 0.56715 0.02375 0.66176 0.0
H1196 H 0.34343 0.3345 0.01686 0.0
H1197 H 0.29906 0.37654 1.0005 0.0
H1198 H 0.33714 0.31707 0.9739 0.0
H1199 H 0.29295 0.35924 0.95725 0.0
H1200 H 0.27453 0.30751 0.88364 0.0
H1201 H 0.27819 0.32254 0.92708 0.0
H1202 H 0.34572 0.33011 0.93659 0.0
H1203 H 0.34209 0.31488 0.89344 0.0
C1204 C 0.33221 0.33994 1.00412 0.0
C1205 C 0.32182 0.35703 1.01219 0.0
C1206 C 0.32871 0.33004 0.9794 0.0
C1207 C 0.31471 0.33691 0.96199 0.0
C1208 C 0.30375 0.35342 0.97015 0.0
C1209 C 0.30729 0.3634 0.99495 0.0
C1210 C 0.29016 0.31232 0.895 0.0
C1211 C 0.30801 0.30992 0.88493 0.0
C1212 C 0.29226 0.32107 0.91991 0.0
C1213 C 0.31224 0.32749 0.93543 0.0
C1214 C 0.33004 0.32502 0.92533 0.0
C1215 C 0.32796 0.31639 0.90046 0.0
H1216 H 0.99771 0.04931 0.35855 0.0
H1217 H 0.99706 0.97519 0.35244 0.0
H1218 H 1.01248 0.05542 0.40209 0.0
H1219 H 1.00999 0.9805 0.39585 0.0
H1220 H 0.04839 0.99625 0.47083 0.0
H1221 H 0.03725 0.99339 0.42725 0.0
H1222 H 1.00752 0.05105 0.44065 0.0
H1223 H 0.0205 0.05502 0.48437 0.0
C1224 C 1.00064 0.03431 0.36659 0.0
C1225 C 0.99647 1.01185 0.35202 0.0
C1226 C 1.00892 0.03769 0.39168 0.0
C1227 C 1.01267 1.01853 0.40296 0.0
C1228 C 1.00813 0.99601 0.38815 0.0
C1229 C 1.00048 0.99283 0.36307 0.0
C1230 C 0.0395 1.00833 0.46439 0.0
C1231 C 0.03515 0.0257 0.48099 0.0
C1232 C 0.03287 1.0066 0.43927 0.0
C1233 C 0.02099 0.02166 0.42993 0.0
C1234 C 1.01681 0.03925 0.44675 0.0
C1235 C 0.02408 0.04145 0.47194 0.0
H1236 H 0.37796 0.74354 0.69142 0.0
H1237 H 0.35591 0.67523 0.71276 0.0
H1238 H 0.36736 0.76281 0.72677 0.0
H1239 H 0.34498 0.69446 0.7478 0.0
H1240 H 0.33354 0.73829 0.81459 0.0
H1241 H 0.35286 0.72176 0.78611 0.0
H1242 H 0.3315 0.76259 0.73331 0.0
H1243 H 0.31238 0.77936 0.76218 0.0
C1244 C 0.37143 0.73269 0.70403 0.0
C1245 C 0.36735 0.7078 0.69898 0.0
C1246 C 0.36513 0.74372 0.72412 0.0
C1247 C 0.35469 0.73008 0.73957 0.0
C1248 C 0.35286 0.70548 0.73613 0.0
C1249 C 0.35922 0.69444 0.71606 0.0
C1250 C 0.33287 0.7436 0.79685 0.0
C1251 C 0.32132 0.75993 0.79048 0.0
C1252 C 0.34402 0.7342 0.78057 0.0
C1253 C 0.34388 0.741 0.75753 0.0
C1254 C 0.33229 0.75736 0.75115 0.0
C1255 C 0.32112 0.76676 0.7675 0.0
H1256 H 0.64124 0.01941 0.91907 0.0
H1257 H 0.61381 0.07276 0.89168 0.0
H1258 H 0.62371 0.02232 0.95445 0.0
H1259 H 0.5964 0.0759 0.927 0.0
H1260 H 0.6021 0.04464 0.02761 0.0
H1261 H 0.62019 0.0418 0.99265 0.0
H1262 H 0.56978 0.06129 0.94846 0.0
H1263 H 0.55196 0.06427 0.98335 0.0
C1264 C 0.63148 0.03184 0.92043 0.0
C1265 C 0.62921 0.04574 0.90182 0.0
C1266 C 0.62136 0.03368 0.94113 0.0
C1267 C 0.60818 0.0494 0.94444 0.0
C1268 C 0.60592 0.06323 0.9257 0.0
C1269 C 0.61617 0.06153 0.90513 0.0
C1270 C 0.59481 0.04845 1.01052 0.0
C1271 C 0.57528 0.05486 1.00901 0.0
C1272 C 0.60525 0.04663 0.99005 0.0
C1273 C 0.59689 0.05129 0.96687 0.0
C1274 C 0.57738 0.0578 0.96554 0.0
C1275 C 0.5669 0.05943 0.98589 0.0
H1276 H 0.31689 0.40089 0.17117 0.0
H1277 H 0.33238 0.34106 0.13182 0.0
H1278 H 0.31034 0.37883 0.20426 0.0
H1279 H 0.32651 0.31921 0.16529 0.0
H1280 H 0.29215 0.27724 0.21776 0.0
H1281 H 0.30016 0.29909 0.18477 0.0
H1282 H 0.32592 0.36385 0.23729 0.0
H1283 H 0.31714 0.34202 0.27008 0.0
C1284 C 0.31908 0.38308 0.16962 0.0
C1285 C 0.32515 0.37283 0.14866 0.0
C1286 C 0.31546 0.37041 0.18878 0.0
C1287 C 0.3179 0.3471 0.18771 0.0
C1288 C 0.32412 0.33692 0.16678 0.0
C1289 C 0.32763 0.34956 0.14755 0.0
C1290 C 0.29965 0.29612 0.22226 0.0
C1291 C 0.30395 0.30786 0.24658 0.0
C1292 C 0.30437 0.30871 0.20331 0.0
C1293 C 0.31366 0.33342 0.20813 0.0
C1294 C 0.31842 0.34499 0.23263 0.0
C1295 C 0.31358 0.33241 0.25155 0.0
H1296 H 0.24643 0.94775 0.14056 0.0
H1297 H 0.22733 0.90876 0.06682 0.0
H1298 H 0.21308 0.95884 0.13715 0.0
H1299 H 0.19358 0.91942 0.06364 0.0
H1300 H 0.17124 0.98872 0.05474 0.0
H1301 H 0.19176 0.95984 0.05954 0.0
H1302 H 0.17453 0.95274 0.12994 0.0
H1303 H 0.15365 0.98182 0.12498 0.0
C1304 C 0.23477 0.94076 0.12394 0.0
C1305 C 0.23978 0.92811 0.10365 0.0
C1306 C 0.21552 0.94699 0.12205 0.0
C1307 C 0.20097 0.94057 0.09986 0.0
C1308 C 0.20477 0.9251 0.08076 0.0
C1309 C 0.22407 0.91893 0.08262 0.0
C1310 C 0.17134 0.98057 0.07098 0.0
C1311 C 0.1611 0.9878 0.08964 0.0
C1312 C 0.18299 0.96383 0.07367 0.0
C1313 C 0.18475 0.95395 0.09513 0.0
C1314 C 0.17357 0.9602 0.11329 0.0
C1315 C 0.16182 0.97698 0.11055 0.0
H1316 H 0.6954 0.6491 0.0304 0.0
H1317 H 0.72099 0.58828 0.03608 0.0
H1318 H 0.66051 0.62535 0.03364 0.0
H1319 H 0.68581 0.56436 0.03871 0.0
H1320 H 0.61311 0.52567 0.01498 0.0
H1321 H 0.64799 0.54912 1.01113 0.0
H1322 H 0.64442 0.60434 0.06763 0.0
H1323 H 0.60981 0.58043 0.07218 0.0
C1324 C 0.69357 0.63057 0.03199 0.0
C1325 C 0.71112 0.62064 0.03285 0.0
C1326 C 0.67356 0.61701 0.03406 0.0
C1327 C 0.67035 0.59298 0.03654 0.0
C1328 C 0.68772 0.58281 0.03675 0.0
C1329 C 0.70789 0.59653 0.03523 0.0
C1330 C 0.61974 0.54282 0.02661 0.0
C1331 C 0.6085 0.55125 0.04373 0.0
C1332 C 0.63979 0.55621 0.02445 0.0
C1333 C 0.64901 0.57864 0.03901 0.0
C1334 C 0.63769 0.58723 0.05597 0.0
C1335 C 0.61781 0.57356 0.05853 0.0
H1336 H 0.71999 0.51763 0.30964 0.0
H1337 H 0.68251 0.49455 0.36305 0.0
H1338 H 0.74068 0.4893 0.31764 0.0
H1339 H 0.70347 0.46593 0.37108 0.0
H1340 H 0.73222 0.40018 0.35304 0.0
H1341 H 0.71048 0.42848 0.34871 0.0
H1342 H 0.76686 0.48465 0.35252 0.0
H1343 H 0.78859 0.45667 0.35732 0.0
C1344 C 0.71613 0.50648 0.3231 0.0
C1345 C 0.69962 0.5084 0.33576 0.0
C1346 C 0.72811 0.49034 0.32778 0.0
C1347 C 0.72381 0.47554 0.34513 0.0
C1348 C 0.70708 0.47709 0.35756 0.0
C1349 C 0.69516 0.4935 0.35303 0.0
C1350 C 0.74001 0.41864 0.35336 0.0
C1351 C 0.76216 0.42607 0.35521 0.0
C1352 C 0.72754 0.43482 0.35086 0.0
C1353 C 0.73696 0.4587 0.35001 0.0
C1354 C 0.75912 0.46625 0.35266 0.0
C1355 C 0.77156 0.45018 0.35531 0.0
H1356 H 0.77765 0.4339 0.49592 0.0
H1357 H 0.79373 0.48928 0.5593 0.0
H1358 H 0.81126 0.45075 0.48403 0.0
H1359 H 0.82738 0.50573 0.54769 0.0
H1360 H 0.88773 0.53286 0.5226 0.0
H1361 H 0.8494 0.5235 0.52056 0.0
H1362 H 0.84606 0.44864 0.50389 0.0
H1363 H 0.88409 0.45803 0.50498 0.0
C1364 C 0.78801 0.45007 0.50692 0.0
C1365 C 0.78324 0.4599 0.52891 0.0
C1366 C 0.80736 0.45961 0.5002 0.0
C1367 C 0.82222 0.47918 0.51527 0.0
C1368 C 0.81634 0.49061 0.53568 0.0
C1369 C 0.79703 0.48108 0.54241 0.0
C1370 C 0.87872 0.51444 0.51796 0.0
C1371 C 0.88897 0.49615 0.51429 0.0
C1372 C 0.85679 0.50909 0.51691 0.0
C1373 C 0.84468 0.48535 0.51213 0.0
C1374 C 0.85484 0.46715 0.5073 0.0
C1375 C 0.87671 0.47249 0.50835 0.0
H1376 H 0.34749 0.11155 0.26029 0.0
H1377 H 0.39496 0.14667 0.3235 0.0
H1378 H 0.33182 0.14555 0.26293 0.0
H1379 H 0.37937 0.18079 0.32627 0.0
H1380 H 0.29567 0.20275 0.28333 0.0
H1381 H 0.3115 0.16892 0.2805 0.0
H1382 H 0.37263 0.21574 0.31342 0.0
H1383 H 0.35666 0.24955 0.31626 0.0
C1384 C 0.35472 0.12644 0.2749 0.0
C1385 C 0.37281 0.12559 0.29164 0.0
C1386 C 0.34551 0.1463 0.27655 0.0
C1387 C 0.35389 0.16686 0.29491 0.0
C1388 C 0.3721 0.16601 0.31156 0.0
C1389 C 0.38116 0.14601 0.31006 0.0
C1390 C 0.31254 0.20608 0.28996 0.0
C1391 C 0.32453 0.22966 0.30001 0.0
C1392 C 0.32184 0.18631 0.28821 0.0
C1393 C 0.34378 0.18865 0.29665 0.0
C1394 C 0.35576 0.21229 0.3068 0.0
C1395 C 0.34647 0.23212 0.30831 0.0
H1396 H 0.34098 0.1325 0.51677 0.0
H1397 H 0.32571 0.09974 0.57853 0.0
H1398 H 0.37285 0.11758 0.51873 0.0
H1399 H 0.35732 0.08486 0.58042 0.0
H1400 H 0.42729 0.08497 0.59484 0.0
H1401 H 0.39582 0.10021 0.59125 0.0
H1402 H 0.38497 0.0805 0.51289 0.0
H1403 H 0.41681 0.06557 0.51647 0.0
C1404 C 0.34432 0.12202 0.53067 0.0
C1405 C 0.3307 0.11739 0.5475 0.0
C1406 C 0.36258 0.11338 0.53175 0.0
C1407 C 0.36784 0.10011 0.54985 0.0
C1408 C 0.35405 0.0953 0.56646 0.0
C1409 C 0.33576 0.10373 0.56525 0.0
C1410 C 0.41839 0.08411 0.57679 0.0
C1411 C 0.42475 0.07402 0.55596 0.0
C1412 C 0.40014 0.09263 0.57474 0.0
C1413 C 0.38767 0.09151 0.55177 0.0
C1414 C 0.39419 0.0818 0.53087 0.0
C1415 C 0.41238 0.07304 0.53294 0.0
H1416 H 0.727 0.61732 0.34544 0.0
H1417 H 0.67663 0.65275 0.33495 0.0
H1418 H 0.75286 0.65398 0.34361 0.0
H1419 H 0.70263 0.68945 0.3328 0.0
H1420 H 0.7541 0.73309 0.29337 0.0
H1421 H 0.72686 0.70016 0.30103 0.0
H1422 H 0.76804 0.69676 0.36706 0.0
H1423 H 0.79495 0.73033 0.35989 0.0
C1424 C 0.72148 0.63301 0.34301 0.0
C1425 C 0.69977 0.63213 0.34028 0.0
C1426 C 0.7363 0.65402 0.34207 0.0
C1427 C 0.72972 0.6745 0.33798 0.0
C1428 C 0.70808 0.67384 0.33583 0.0
C1429 C 0.69326 0.6529 0.33722 0.0
C1430 C 0.75707 0.72577 0.30987 0.0
C1431 C 0.77648 0.73449 0.32622 0.0
C1432 C 0.74153 0.70686 0.31419 0.0
C1433 C 0.74534 0.69598 0.33468 0.0
C1434 C 0.76473 0.70479 0.3511 0.0
C1435 C 0.78011 0.72395 0.34698 0.0
H1436 H 0.85255 0.49785 0.8152 0.0
H1437 H 0.90274 0.47345 0.78797 0.0
H1438 H 0.83497 0.4565 0.81818 0.0
H1439 H 0.88512 0.43257 0.79023 0.0
H1440 H 0.83847 0.35741 0.77613 0.0
H1441 H 0.85344 0.39876 0.77202 0.0
H1442 H 0.84004 0.42281 0.8422 0.0
H1443 H 0.82556 0.38134 0.8466 0.0
C1444 C 0.8597 0.48376 0.80938 0.0
C1445 C 0.87918 0.48946 0.8011 0.0
C1446 C 0.84968 0.45987 0.81132 0.0
C1447 C 0.8584 0.4406 0.80444 0.0
C1448 C 0.87755 0.44641 0.79557 0.0
C1449 C 0.88776 0.47016 0.79427 0.0
C1450 C 0.83863 0.37141 0.79077 0.0
C1451 C 0.83067 0.36546 0.81178 0.0
C1452 C 0.84737 0.39538 0.78843 0.0
C1453 C 0.84814 0.41473 0.80672 0.0
C1454 C 0.83974 0.40881 0.82751 0.0
C1455 C 0.83146 0.38477 0.83011 0.0
H1456 H 0.11744 0.87442 0.10893 0.0
H1457 H 0.0608 0.86753 0.13995 0.0
H1458 H 0.1103 0.90837 0.09131 0.0
H1459 H 0.05364 0.90149 0.12237 0.0
H1460 H 0.03522 0.94773 0.067 0.0
H1461 H 0.04284 0.9136 0.08366 0.0
H1462 H 0.10943 0.94986 0.10168 0.0
H1463 H 0.10177 0.98405 0.08504 0.0
C1464 C 0.10344 0.8801 0.11202 0.0
C1465 C 0.0897 0.86803 0.12591 0.0
C1466 C 0.09939 0.89975 0.10198 0.0
C1467 C 0.08131 0.90786 0.10523 0.0
C1468 C 0.06757 0.89573 0.1191 0.0
C1469 C 0.07175 0.87624 0.12936 0.0
C1470 C 0.05154 0.94845 0.07433 0.0
C1471 C 0.06785 0.96882 0.07443 0.0
C1472 C 0.05591 0.92884 0.08414 0.0
C1473 C 0.07678 0.92877 0.09424 0.0
C1474 C 0.09317 0.94898 0.09393 0.0
C1475 C 0.08876 0.96871 0.08434 0.0
H1476 H 0.94427 0.27289 0.94593 0.0
H1477 H 0.96435 0.25438 0.87804 0.0
H1478 H 0.91182 0.2788 0.92346 0.0
H1479 H 0.9317 0.25986 0.85554 0.0
H1480 H 0.88387 0.29757 0.82308 0.0
H1481 H 0.91529 0.29054 0.84639 0.0
H1482 H 0.8779 0.26059 0.89702 0.0
H1483 H 0.84626 0.26809 0.87359 0.0
C1484 C 0.94174 0.26987 0.92618 0.0
C1485 C 0.95718 0.26321 0.91392 0.0
C1486 C 0.92295 0.27316 0.91323 0.0
C1487 C 0.91895 0.27 0.88754 0.0
C1488 C 0.93423 0.26292 0.87528 0.0
C1489 C 0.953 0.25958 0.88823 0.0
C1490 C 0.88228 0.28949 0.8392 0.0
C1491 C 0.86243 0.2833 0.84632 0.0
C1492 C 0.90037 0.28526 0.85254 0.0
C1493 C 0.89934 0.27468 0.87359 0.0
C1494 C 0.87949 0.26886 0.88103 0.0
C1495 C 0.86127 0.27308 0.86755 0.0
H1496 H 0.59962 0.24401 0.61181 0.0
H1497 H 0.55654 0.2223 0.66022 0.0
H1498 H 0.59454 0.2022 0.59402 0.0
H1499 H 0.55168 0.18092 0.64279 0.0
H1500 H 0.53273 0.10918 0.59399 0.0
H1501 H 0.5365 0.15134 0.60687 0.0
H1502 H 0.60341 0.16588 0.60516 0.0
H1503 H 0.59963 0.1235 0.5919 0.0
C1504 C 0.58884 0.23041 0.61843 0.0
C1505 C 0.57847 0.23668 0.63746 0.0
C1506 C 0.5861 0.20638 0.60841 0.0
C1507 C 0.57272 0.188 0.61695 0.0
C1508 C 0.56191 0.19443 0.63546 0.0
C1509 C 0.56478 0.2183 0.64557 0.0
C1510 C 0.5483 0.12127 0.59623 0.0
C1511 C 0.5659 0.11267 0.59197 0.0
C1512 C 0.55047 0.14557 0.60376 0.0
C1513 C 0.5703 0.16221 0.60726 0.0
C1514 C 0.58784 0.15373 0.60247 0.0
C1515 C 0.58569 0.12932 0.595 0.0
H1516 H 0.56075 0.78091 0.37975 0.0
H1517 H 0.5971 0.76662 0.44405 0.0
H1518 H 0.59115 0.78277 0.35931 0.0
H1519 H 0.62748 0.76906 0.42395 0.0
H1520 H 0.67345 0.75457 0.37467 0.0
H1521 H 0.64194 0.7502 0.39315 0.0
H1522 H 0.62563 0.80698 0.35902 0.0
H1523 H 0.65658 0.81059 0.33963 0.0
C1524 C 0.5752 0.77808 0.38958 0.0
C1525 C 0.57632 0.77357 0.41366 0.0
C1526 C 0.59273 0.77936 0.37785 0.0
C1527 C 0.61199 0.77616 0.38987 0.0
C1528 C 0.61295 0.77131 0.41384 0.0
C1529 C 0.59546 0.77003 0.42553 0.0
C1530 C 0.66306 0.76598 0.37084 0.0
C1531 C 0.66781 0.783 0.35559 0.0
C1532 C 0.64501 0.76366 0.38172 0.0
C1533 C 0.63105 0.77826 0.37774 0.0
C1534 C 0.63574 0.79519 0.36239 0.0
C1535 C 0.65379 0.79751 0.35151 0.0
H1536 H 0.08178 0.29207 0.48065 0.0
H1537 H 0.04226 0.24549 0.41628 0.0
H1538 H 0.08534 0.25773 0.49934 0.0
H1539 H 0.04596 0.21101 0.4351 0.0
H1540 H 0.03297 0.16361 0.4954 0.0
H1541 H 0.03253 0.19541 0.47143 0.0
H1542 H 0.10035 0.22232 0.49449 0.0
H1543 H 0.1009 0.1904 0.51815 0.0
C1544 C 0.07409 0.27448 0.47036 0.0
C1545 C 0.06161 0.27145 0.44708 0.0
C1546 C 0.07624 0.25483 0.48101 0.0
C1547 C 0.06583 0.23178 0.46868 0.0
C1548 C 0.05396 0.22866 0.44504 0.0
C1549 C 0.05198 0.24835 0.43425 0.0
C1550 C 0.04781 0.17612 0.49506 0.0
C1551 C 0.06692 0.1747 0.50888 0.0
C1552 C 0.04756 0.19424 0.4813 0.0
C1553 C 0.06641 0.21128 0.4812 0.0
C1554 C 0.08558 0.20954 0.49451 0.0
C1555 C 0.08585 0.19138 0.50816 0.0
H1556 H 0.64462 0.31056 0.30404 0.0
H1557 H 0.62976 0.23396 0.28999 0.0
H1558 H 0.68234 0.31239 0.31076 0.0
H1559 H 0.66721 0.23555 0.29469 0.0
H1560 H 0.73763 0.24575 0.32156 0.0
H1561 H 0.7 0.24267 0.31827 0.0
H1562 H 0.7081 0.30796 0.28845 0.0
H1563 H 0.74612 0.31178 0.29367 0.0
C1564 C 0.6495 0.29412 0.30276 0.0
C1565 C 0.63436 0.27215 0.29667 0.0
C1566 C 0.6711 0.29511 0.3061 0.0
C1567 C 0.67798 0.27413 0.30264 0.0
C1568 C 0.6627 0.25212 0.29775 0.0
C1569 C 0.64114 0.25115 0.29512 0.0
C1570 C 0.73124 0.25914 0.31379 0.0
C1571 C 0.74469 0.27894 0.30773 0.0
C1572 C 0.70961 0.25745 0.31197 0.0
C1573 C 0.70086 0.27525 0.30345 0.0
C1574 C 0.71426 0.2943 0.2959 0.0
C1575 C 0.736 0.2963 0.29839 0.0
H1576 H 0.55573 0.89538 0.98421 0.0
H1577 H 0.51331 0.909 0.92446 0.0
H1578 H 0.54739 0.92557 1.01189 0.0
H1579 H 0.50451 0.93912 0.95253 0.0
H1580 H 0.51943 1.01097 1.00777 0.0
H1581 H 0.52001 0.97812 0.97699 0.0
H1582 H 0.51878 0.93239 0.03147 0.0
H1583 H 0.51904 0.96562 0.0625 0.0
C1584 C 0.5446 0.90486 0.97696 0.0
C1585 C 0.53518 0.89978 0.95213 0.0
C1586 C 0.53958 0.92197 0.99293 0.0
C1587 C 0.5249 0.9344 0.98456 0.0
C1588 C 0.51585 0.92981 0.95957 0.0
C1589 C 0.52097 0.91266 0.94348 0.0
C1590 C 0.51874 0.99373 0.01305 0.0
C1591 C 0.51971 0.99096 0.03763 0.0
C1592 C 0.51903 0.97487 0.99536 0.0
C1593 C 0.52007 0.95282 1.00192 0.0
C1594 C 0.51867 0.9494 0.02602 0.0
C1595 C 0.51855 0.96833 0.04375 0.0
H1596 H 1.00307 0.72607 0.79214 0.0
H1597 H 0.02957 0.79463 0.7737 0.0
H1598 H 0.97521 0.74136 0.80753 0.0
H1599 H 1.00218 0.80998 0.78955 0.0
H1600 H 0.93456 0.81747 0.78506 0.0
H1601 H 0.96465 0.80364 0.77513 0.0
H1602 H 0.96657 0.76926 0.83862 0.0
H1603 H 0.93619 0.78324 0.84866 0.0
C1604 C 1.00317 0.74449 0.79176 0.0
C1605 C 1.01836 0.75905 0.78144 0.0
C1606 C 0.98726 0.75328 0.80067 0.0
C1607 C 0.98631 0.77681 0.79946 0.0
C1608 C 1.00218 0.79163 0.79025 0.0
C1609 C 1.01796 0.78285 0.78128 0.0
C1610 C 0.94159 0.80732 0.79719 0.0
C1611 C 0.93309 0.80169 0.81781 0.0
C1612 C 0.95887 0.79936 0.79147 0.0
C1613 C 0.96817 0.78553 0.80621 0.0
C1614 C 0.95968 0.77977 0.82682 0.0
C1615 C 0.9423 0.78777 0.83257 0.0
H1616 H 0.10882 0.08037 0.89581 0.0
H1617 H 0.13514 0.01949 0.89434 0.0
H1618 H 0.09466 0.07109 0.932 0.0
H1619 H 0.12086 1.01018 0.93079 0.0
H1620 H 0.09007 0.06279 1.00993 0.0
H1621 H 0.10774 0.07085 0.97563 0.0
H1622 H 0.08542 0.99667 0.94319 0.0
H1623 H 0.06774 0.98858 0.9777 0.0
C1624 C 0.11161 0.06499 0.90321 0.0
C1625 C 0.12313 0.05068 0.89212 0.0
C1626 C 0.10361 0.05977 0.9241 0.0
C1627 C 0.10673 0.03997 0.93441 0.0
C1628 C 0.1181 0.0255 0.92324 0.0
C1629 C 0.12633 0.03088 0.90242 0.0
C1630 C 0.08917 0.04813 0.99566 0.0
C1631 C 0.07738 0.02507 0.99643 0.0
C1632 C 0.09917 0.05278 0.9759 0.0
C1633 C 0.09779 0.03447 0.9565 0.0
C1634 C 0.08685 1.01117 0.95785 0.0
C1635 C 0.07668 1.00654 0.97758 0.0
H1636 H 0.71312 0.33744 0.56989 0.0
H1637 H 0.75107 0.38923 0.63143 0.0
H1638 H 0.70982 0.30667 0.59596 0.0
H1639 H 0.74771 0.35897 0.6572 0.0
H1640 H 0.73639 0.30805 0.70379 0.0
H1641 H 0.72234 0.33091 0.67542 0.0
H1642 H 0.7388 0.2889 0.616 0.0
H1643 H 0.75186 0.26502 0.64431 0.0
C1644 C 0.72032 0.34229 0.58906 0.0
C1645 C 0.73256 0.36551 0.5987 0.0
C1646 C 0.71846 0.32477 0.60389 0.0
C1647 C 0.7284 0.3305 0.62857 0.0
C1648 C 0.73957 0.35409 0.63835 0.0
C1649 C 0.74173 0.37137 0.62354 0.0
C1650 C 0.73603 0.30284 0.68453 0.0
C1651 C 0.74545 0.2849 0.67632 0.0
C1652 C 0.72816 0.31611 0.66832 0.0
C1653 C 0.72987 0.31193 0.64365 0.0
C1654 C 0.73727 0.29246 0.63494 0.0
C1655 C 0.745 0.27901 0.65119 0.0
H1656 H 0.49208 0.02316 0.3714 0.0
H1657 H 0.46416 0.07547 0.40475 0.0
H1658 H 0.51135 0.02125 0.41141 0.0
H1659 H 0.4835 0.07355 0.4451 0.0
H1660 H 0.51038 0.0493 0.5187 0.0
H1661 H 0.48864 0.0506 0.47923 0.0
H1662 H 0.54028 0.04253 0.44296 0.0
H1663 H 0.56154 0.04132 0.48168 0.0
C1664 C 0.49004 0.03442 0.38721 0.0
C1665 C 0.47646 0.04965 0.38423 0.0
C1666 C 0.50127 0.03337 0.41048 0.0
C1667 C 0.49938 0.04729 0.43219 0.0
C1668 C 0.48553 0.06232 0.42927 0.0
C1669 C 0.47447 0.06359 0.40586 0.0
C1670 C 0.517 0.04757 0.50228 0.0
C1671 C 0.53792 0.04498 0.50383 0.0
C1672 C 0.50454 0.04852 0.47945 0.0
C1673 C 0.51235 0.04652 0.4572 0.0
C1674 C 0.53318 0.04376 0.45907 0.0
C1675 C 0.54558 0.04317 0.48166 0.0
H1676 H 0.81697 0.70847 0.11847 0.0
H1677 H 0.7548 0.72016 0.10077 0.0
H1678 H 0.8212 0.72964 0.15973 0.0
H1679 H 0.75784 0.73928 0.14253 0.0
H1680 H 0.77069 0.7839 0.21745 0.0
H1681 H 0.76923 0.7686 0.17466 0.0
H1682 H 0.81358 0.72779 0.19666 0.0
H1683 H 0.81629 0.74496 0.23888 0.0
C1684 C 0.80417 0.71559 0.12351 0.0
C1685 C 0.78563 0.71279 0.10635 0.0
C1686 C 0.80638 0.72748 0.14741 0.0
C1687 C 0.78973 0.73606 0.15521 0.0
C1688 C 0.7713 0.73351 0.13764 0.0
C1689 C 0.76944 0.72238 0.11352 0.0
C1690 C 0.78017 0.77175 0.21294 0.0
C1691 C 0.79363 0.76568 0.23149 0.0
C1692 C 0.77926 0.76272 0.18831 0.0
C1693 C 0.79128 0.74671 0.18156 0.0
C1694 C 0.80449 0.74051 0.20048 0.0
C1695 C 0.80591 0.75016 0.22495 0.0
H1696 H 0.13944 1.01601 0.74319 0.0
H1697 H 0.10148 0.06255 0.76622 0.0
H1698 H 0.12176 1.01188 0.701 0.0
H1699 H 0.08374 0.05832 0.7239 0.0
H1700 H 0.08157 0.07076 0.64329 0.0
H1701 H 0.09477 0.07176 0.68641 0.0
H1702 H 0.08708 0.9959 0.67274 0.0
H1703 H 0.074 0.99482 0.62957 0.0
C1704 C 0.12713 0.02513 0.73932 0.0
C1705 C 0.12197 0.0397 0.75814 0.0
C1706 C 0.11692 0.02267 0.71511 0.0
C1707 C 0.10142 0.03489 0.70905 0.0
C1708 C 0.09579 0.0489 0.72794 0.0
C1709 C 0.10585 0.05117 0.75222 0.0
C1710 C 0.08256 0.05425 0.64945 0.0
C1711 C 0.0768 0.03274 0.63285 0.0
C1712 C 0.09 0.05481 0.67423 0.0
C1713 C 0.09202 0.03392 0.68302 0.0
C1714 C 0.08591 1.01234 0.66652 0.0
C1715 C 0.07831 1.01174 0.64176 0.0
H1716 H 0.71566 0.34454 0.46127 0.0
H1717 H 0.77002 0.34083 0.51265 0.0
H1718 H 0.72622 0.3199 0.42943 0.0
H1719 H 0.78087 0.317 0.48086 0.0
H1720 H 0.79281 0.26682 0.4206 0.0
H1721 H 0.77476 0.28085 0.45231 0.0
H1722 H 0.75498 0.32932 0.40758 0.0
H1723 H 0.77216 0.31463 0.37581 0.0
C1724 C 0.72964 0.33814 0.46587 0.0
C1725 C 0.74222 0.34495 0.48931 0.0
C1726 C 0.73576 0.32418 0.44762 0.0
C1727 C 0.75458 0.31685 0.45253 0.0
C1728 C 0.76624 0.32221 0.47647 0.0
C1729 C 0.76009 0.33607 0.49467 0.0
C1730 C 0.78449 0.28038 0.41763 0.0
C1731 C 0.78415 0.28997 0.39603 0.0
C1732 C 0.77416 0.2884 0.4357 0.0
C1733 C 0.76342 0.30618 0.43245 0.0
C1734 C 0.76278 0.31532 0.41054 0.0
C1735 C 0.77296 0.30722 0.39249 0.0
H1736 H 0.43145 0.07618 0.21943 0.0
H1737 H 0.47884 0.04785 0.2577 0.0
H1738 H 0.4484 0.07473 0.18364 0.0
H1739 H 0.49545 0.0456 0.22192 0.0
H1740 H 0.47502 0.05694 0.11316 0.0
H1741 H 0.45756 0.05885 0.14865 0.0
H1742 H 0.5157 0.05834 0.19509 0.0
H1743 H 0.5326 0.05564 0.15969 0.0
C1744 C 0.44554 0.06961 0.22043 0.0
C1745 C 0.45352 0.06235 0.24229 0.0
C1746 C 0.45538 0.06854 0.19942 0.0
C1747 C 0.47383 0.06002 0.1988 0.0
C1748 C 0.48173 0.05277 0.22079 0.0
C1749 C 0.47195 0.05395 0.24178 0.0
C1750 C 0.48413 0.05711 0.1309 0.0
C1751 C 0.50552 0.05591 0.13279 0.0
C1752 C 0.47402 0.0584 0.15173 0.0
C1753 C 0.48469 0.0587 0.17583 0.0
C1754 C 0.50616 0.05769 0.17751 0.0
C1755 C 0.51616 0.05627 0.15675 0.0
H1756 H 0.75168 0.73959 0.98008 0.0
H1757 H 0.79063 0.6937 0.95877 0.0
H1758 H 0.75753 0.75983 0.9454 0.0
H1759 H 0.79642 0.71392 0.92395 0.0
H1760 H 0.79374 0.80749 0.89704 0.0
H1761 H 0.78634 0.78668 0.93108 0.0
H1762 H 0.77724 0.71945 0.88427 0.0
H1763 H 0.78454 0.74031 0.85023 0.0
C1764 C 0.76149 0.73376 0.968 0.0
C1765 C 0.77069 0.71495 0.97236 0.0
C1766 C 0.76493 0.74548 0.94811 0.0
C1767 C 0.77746 0.73859 0.93174 0.0
C1768 C 0.78651 0.71962 0.93597 0.0
C1769 C 0.78329 0.70808 0.95606 0.0
C1770 C 0.78997 0.78825 0.89396 0.0
C1771 C 0.78975 0.77561 0.87088 0.0
C1772 C 0.78567 0.77628 0.91348 0.0
C1773 C 0.78127 0.75131 0.91058 0.0
C1774 C 0.7808 0.73867 0.88735 0.0
C1775 C 0.78483 0.75064 0.86774 0.0
H1776 H 0.8551 0.12257 0.06641 0.0
H1777 H 0.90399 0.12637 0.12827 0.0
H1778 H 0.87646 0.10758 0.03893 0.0
H1779 H 0.92546 0.11217 0.10083 0.0
H1780 H 0.96538 0.10094 0.04618 0.0
H1781 H 0.94337 0.12502 0.06241 0.0
H1782 H 0.88836 0.06547 0.03926 0.0
H1783 H 0.91043 0.041 0.02378 0.0
C1784 C 0.87061 0.12074 0.07403 0.0
C1785 C 0.87793 0.12545 0.09941 0.0
C1786 C 0.88273 0.11218 0.05834 0.0
C1787 C 0.90256 0.10894 0.06785 0.0
C1788 C 0.91031 0.11484 0.0931 0.0
C1789 C 0.89799 0.12279 0.10878 0.0
C1790 C 0.9485 0.09314 0.04407 0.0
C1791 C 0.93968 0.06893 0.03434 0.0
C1792 C 0.93595 0.10696 0.05321 0.0
C1793 C 0.91434 0.09691 0.05229 0.0
C1794 C 0.90502 0.07356 0.04005 0.0
C1795 C 0.91765 0.05959 0.03117 0.0
H1796 H 0.40394 0.42278 0.06931 0.0
H1797 H 0.39094 0.48696 0.10275 0.0
H1798 H 0.43814 0.44559 0.0637 0.0
H1799 H 0.42559 0.50986 0.09764 0.0
H1800 H 0.47931 0.5472 0.06186 0.0
H1801 H 0.44503 0.52434 0.0678 0.0
H1802 H 0.47295 0.46712 0.08395 0.0
H1803 H 0.50716 0.49015 0.07782 0.0
C1804 C 0.4084 0.44178 0.07567 0.0
C1805 C 0.39448 0.45294 0.0865 0.0
C1806 C 0.42821 0.45491 0.07256 0.0
C1807 C 0.43486 0.4797 0.08018 0.0
C1808 C 0.42101 0.49088 0.09119 0.0
C1809 C 0.40112 0.4777 0.09429 0.0
C1810 C 0.47807 0.52964 0.0665 0.0
C1811 C 0.49588 0.52025 0.06875 0.0
C1812 C 0.45841 0.51657 0.07014 0.0
C1813 C 0.45598 0.49372 0.07635 0.0
C1814 C 0.47393 0.48439 0.07869 0.0
C1815 C 0.49361 0.49751 0.07498 0.0
H1816 H 0.41667 0.56203 0.82322 0.0
H1817 H 0.39661 0.56308 0.74676 0.0
H1818 H 0.39551 0.58957 0.83382 0.0
H1819 H 0.37633 0.5913 0.75722 0.0
H1820 H 0.32205 0.61717 0.7804 0.0
H1821 H 0.3447 0.59137 0.77137 0.0
H1822 H 0.39116 0.62876 0.8353 0.0
H1823 H 0.36771 0.65356 0.84534 0.0
C1824 C 0.40803 0.56848 0.80872 0.0
C1825 C 0.40811 0.56024 0.78417 0.0
C1826 C 0.39596 0.58433 0.81477 0.0
C1827 C 0.38394 0.59247 0.79637 0.0
C1828 C 0.38486 0.58494 0.77187 0.0
C1829 C 0.39664 0.56888 0.76585 0.0
C1830 C 0.33692 0.6197 0.7928 0.0
C1831 C 0.34293 0.63744 0.81368 0.0
C1832 C 0.35014 0.60512 0.78737 0.0
C1833 C 0.36991 0.60806 0.80247 0.0
C1834 C 0.37599 0.62582 0.82335 0.0
C1835 C 0.36263 0.64028 0.82893 0.0
H1836 H 0.28484 0.68787 0.60201 0.0
H1837 H 0.28458 0.61518 0.6085 0.0
H1838 H 0.24622 0.67718 0.59529 0.0
H1839 H 0.24588 0.6046 0.60171 0.0
H1840 H 0.17492 0.59294 0.56872 0.0
H1841 H 0.2131 0.60303 0.56924 0.0
H1842 H 0.22147 0.66417 0.6248 0.0
H1843 H 0.18362 0.65381 0.62498 0.0
C1844 C 0.27656 0.66956 0.60169 0.0
C1845 C 0.28774 0.6524 0.60602 0.0
C1846 C 0.25448 0.6635 0.59792 0.0
C1847 C 0.2432 0.64015 0.59816 0.0
C1848 C 0.25428 0.62271 0.60133 0.0
C1849 C 0.27639 0.62881 0.60534 0.0
C1850 C 0.18493 0.60845 0.58114 0.0
C1851 C 0.17623 0.62258 0.59681 0.0
C1852 C 0.20671 0.61424 0.58133 0.0
C1853 C 0.22008 0.63441 0.59695 0.0
C1854 C 0.21139 0.64874 0.61229 0.0
C1855 C 0.18971 0.64282 0.61232 0.0
H1856 H 0.70216 0.93942 0.83822 0.0
H1857 H 0.74429 0.96905 0.79226 0.0
H1858 H 0.7177 0.90523 0.83813 0.0
H1859 H 0.76007 0.93512 0.79239 0.0
H1860 H 0.79833 0.88031 0.8133 0.0
H1861 H 0.78251 0.91418 0.81354 0.0
H1862 H 0.72212 0.86835 0.81707 0.0
H1863 H 0.73798 0.83438 0.81649 0.0
C1864 C 0.71478 0.93887 0.82806 0.0
C1865 C 0.72165 0.95772 0.81526 0.0
C1866 C 0.72379 0.91886 0.82789 0.0
C1867 C 0.74056 0.91657 0.81528 0.0
C1868 C 0.74751 0.9356 0.80266 0.0
C1869 C 0.73824 0.95538 0.80248 0.0
C1870 C 0.78165 0.87723 0.81419 0.0
C1871 C 0.7698 0.8539 0.81496 0.0
C1872 C 0.77236 0.89698 0.81416 0.0
C1873 C 0.75064 0.89486 0.8153 0.0
C1874 C 0.73883 0.87153 0.81638 0.0
C1875 C 0.74806 0.85166 0.81596 0.0
H1876 H 0.77171 0.94173 0.56101 0.0
H1877 H 0.79401 0.98124 0.63416 0.0
H1878 H 0.74041 0.95746 0.55765 0.0
H1879 H 0.7625 0.99619 0.63129 0.0
H1880 H 0.71442 0.03797 0.61181 0.0
H1881 H 0.74549 0.02238 0.61424 0.0
H1882 H 0.70764 0.95621 0.57002 0.0
H1883 H 0.67675 0.97246 0.56624 0.0
C1884 C 0.76992 0.95373 0.57642 0.0
C1885 C 0.78553 0.96029 0.5978 0.0
C1886 C 0.75181 0.96263 0.57459 0.0
C1887 C 0.74867 0.97823 0.59418 0.0
C1888 C 0.76434 0.98466 0.61557 0.0
C1889 C 0.78248 0.97594 0.6173 0.0
C1890 C 0.71266 0.02017 0.60232 0.0
C1891 C 0.69286 1.00666 0.58866 0.0
C1892 C 0.73056 1.01102 0.60402 0.0
C1893 C 0.72934 0.98789 0.59236 0.0
C1894 C 0.70946 0.9742 0.579 0.0
C1895 C 0.69155 0.98344 0.57715 0.0
H1896 H 0.37878 0.44992 0.75547 0.0
H1897 H 0.42676 0.41937 0.78986 0.0
H1898 H 0.35131 0.4156 0.75934 0.0
H1899 H 0.39922 0.38476 0.79326 0.0
H1900 H 0.34342 0.34565 0.82571 0.0
H1901 H 0.37171 0.37701 0.81773 0.0
H1902 H 0.33572 0.37318 0.74585 0.0
H1903 H 0.30734 0.34167 0.75399 0.0
C1904 C 0.38352 0.43573 0.76353 0.0
C1905 C 0.40502 0.43755 0.77253 0.0
C1906 C 0.36773 0.41595 0.76563 0.0
C1907 C 0.37302 0.39748 0.77679 0.0
C1908 C 0.39457 0.39887 0.78495 0.0
C1909 C 0.41038 0.41865 0.78284 0.0
C1910 C 0.34169 0.3513 0.80809 0.0
C1911 C 0.32331 0.3411 0.79038 0.0
C1912 C 0.35793 0.36924 0.80347 0.0
C1913 C 0.35608 0.37755 0.78108 0.0
C1914 C 0.33759 0.36733 0.76335 0.0
C1915 C 0.32136 0.34929 0.76798 0.0
H1916 H 0.23404 0.58637 0.30637 0.0
H1917 H 0.20351 0.61403 0.36188 0.0
H1918 H 0.2526 0.62707 0.30348 0.0
H1919 H 0.22208 0.65452 0.35918 0.0
H1920 H 0.27184 0.72616 0.36342 0.0
H1921 H 0.25494 0.68527 0.3671 0.0
H1922 H 0.24861 0.66386 0.28956 0.0
H1923 H 0.26538 0.70488 0.28591 0.0
C1924 C 0.23145 0.60099 0.31832 0.0
C1925 C 0.21714 0.59625 0.33457 0.0
C1926 C 0.24202 0.62464 0.31645 0.0
C1927 C 0.23911 0.64481 0.331 0.0
C1928 C 0.22521 0.63997 0.34768 0.0
C1929 C 0.2144 0.6164 0.34924 0.0
C1930 C 0.26687 0.71284 0.34704 0.0
C1931 C 0.27018 0.71944 0.32431 0.0
C1932 C 0.25696 0.6891 0.34915 0.0
C1933 C 0.2501 0.67053 0.32869 0.0
C1934 C 0.25366 0.67712 0.30597 0.0
C1935 C 0.26328 0.70096 0.30381 0.0
H1936 H 0.56877 0.72849 0.53245 0.0
H1937 H 0.51303 0.68884 0.48023 0.0
H1938 H 0.57201 0.69231 0.54764 0.0
H1939 H 0.51662 0.6522 0.49491 0.0
H1940 H 0.52094 0.59159 0.53955 0.0
H1941 H 0.5148 0.62803 0.52624 0.0
H1942 H 0.58249 0.65775 0.53684 0.0
H1943 H 0.58848 0.62205 0.55065 0.0
C1944 C 0.55714 0.71202 0.52417 0.0
C1945 C 0.54068 0.71175 0.50499 0.0
C1946 C 0.5591 0.69106 0.53278 0.0
C1947 C 0.5448 0.66892 0.52238 0.0
C1948 C 0.52792 0.66875 0.50361 0.0
C1949 C 0.52588 0.68984 0.49508 0.0
C1950 C 0.53448 0.60597 0.53912 0.0
C1951 C 0.55523 0.60377 0.5464 0.0
C1952 C 0.53098 0.62692 0.53133 0.0
C1953 C 0.54811 0.64626 0.53057 0.0
C1954 C 0.56878 0.64375 0.53765 0.0
C1955 C 0.57226 0.62301 0.54548 0.0
H1956 H 0.67205 0.31509 0.69519 0.0
H1957 H 0.64236 0.31084 0.7584 0.0
H1958 H 0.7045 0.31045 0.71873 0.0
H1959 H 0.67507 0.30726 0.78228 0.0
H1960 H 0.72724 0.2753 0.81325 0.0
H1961 H 0.69562 0.28087 0.78884 0.0
H1962 H 0.73489 0.32548 0.74897 0.0
H1963 H 0.76653 0.31889 0.77291 0.0
C1964 C 0.67254 0.31366 0.71427 0.0
C1965 C 0.6544 0.3133 0.72477 0.0
C1966 C 0.69131 0.31102 0.72789 0.0
C1967 C 0.69267 0.30813 0.75256 0.0
C1968 C 0.67471 0.30873 0.76325 0.0
C1969 C 0.65589 0.31109 0.74956 0.0
C1970 C 0.72912 0.28622 0.79918 0.0
C1971 C 0.74946 0.29673 0.79517 0.0
C1972 C 0.71091 0.28966 0.78525 0.0
C1973 C 0.71239 0.30399 0.76694 0.0
C1974 C 0.73285 0.31418 0.76266 0.0
C1975 C 0.7511 0.31052 0.7765 0.0
H1976 H 1.00596 0.33154 0.03265 0.0
H1977 H 0.05088 0.3476 0.98486 0.0
H1978 H 1.01244 0.37382 0.04821 0.0
H1979 H 0.05715 0.38999 1.00017 0.0
H1980 H 0.07739 0.46361 0.04818 0.0
H1981 H 0.07232 0.42119 0.03493 0.0
H1982 H 1.00539 0.40947 0.03575 0.0
H1983 H 1.01049 0.45192 0.04939 0.0
C1984 C 1.01735 0.34407 0.02554 0.0
C1985 C 0.02791 0.33602 1.00747 0.0
C1986 C 0.02093 0.36843 0.03434 0.0
C1987 C 0.03523 0.38555 0.02541 0.0
C1988 C 0.04617 0.37745 1.00773 0.0
C1989 C 0.04253 0.35306 0.99886 0.0
C1990 C 0.06156 0.45205 0.04564 0.0
C1991 C 0.04436 0.46143 0.04993 0.0
C1992 C 0.05863 0.42761 0.03785 0.0
C1993 C 0.03843 0.41168 0.03416 0.0
C1994 C 0.02125 0.42102 0.03865 0.0
C1995 C 0.02416 0.4455 0.04638 0.0
H1996 H 0.03252 0.77293 0.23959 0.0
H1997 H 0.02209 0.82637 0.19652 0.0
H1998 H 0.99991 0.77304 0.25478 0.0
H1999 H 0.98903 0.82612 0.21135 0.0
H2000 H 0.94131 0.83546 0.26201 0.0
H2001 H 0.97409 0.83664 0.2465 0.0
H2002 H 0.96237 0.76058 0.24195 0.0
H2003 H 0.93019 0.75954 0.25845 0.0
C2004 C 0.02327 0.78474 0.23332 0.0
C2005 C 0.03001 0.79963 0.21678 0.0
C2006 C 1.00438 0.78465 0.24191 0.0
C2007 C 0.99157 0.79941 0.23418 0.0
C2008 C 0.99849 0.81463 0.21791 0.0
C2009 C 1.01746 0.81473 0.20932 0.0
C2010 C 0.94576 0.81898 0.25785 0.0
C2011 C 0.93299 0.79741 0.26166 0.0
C2012 C 0.96451 0.81963 0.24866 0.0
C2013 C 0.9711 0.79874 0.24305 0.0
C2014 C 0.95809 0.77712 0.2464 0.0
C2015 C 0.93937 0.77647 0.25557 0.0
H2016 H 0.53707 0.32024 0.21267 0.0
H2017 H 0.6041 0.35429 0.22744 0.0
H2018 H 0.53067 0.34951 0.1872 0.0
H2019 H 0.59775 0.38442 0.20342 0.0
H2020 H 0.58511 0.40765 0.13029 0.0
H2021 H 0.59002 0.38345 0.16141 0.0
H2022 H 0.53019 0.38876 0.18122 0.0
H2023 H 0.52498 0.41241 0.14899 0.0
C2024 C 0.55032 0.33448 0.21107 0.0
C2025 C 0.57109 0.3349 0.22159 0.0
C2026 C 0.54668 0.3513 0.19654 0.0
C2027 C 0.56377 0.36903 0.19275 0.0
C2028 C 0.58431 0.37053 0.2052 0.0
C2029 C 0.58796 0.35344 0.21916 0.0
C2030 C 0.5731 0.4038 0.14145 0.0
C2031 C 0.55474 0.41195 0.13739 0.0
C2032 C 0.57596 0.39007 0.15946 0.0
C2033 C 0.56065 0.38441 0.17418 0.0
C2034 C 0.54223 0.39265 0.17015 0.0
C2035 C 0.53924 0.4062 0.15177 0.0
H2036 H 0.98238 0.34343 0.44135 0.0
H2037 H 0.97891 0.30934 0.36742 0.0
H2038 H 0.94373 0.33592 0.43407 0.0
H2039 H 0.94041 0.30184 0.36035 0.0
H2040 H 0.87387 0.26527 0.3673 0.0
H2041 H 0.91224 0.27483 0.37877 0.0
H2042 H 0.91373 0.34749 0.40587 0.0
H2043 H 0.87509 0.33811 0.39427 0.0
C2044 C 0.9734 0.33453 0.42351 0.0
C2045 C 0.98365 0.32683 0.40498 0.0
C2046 C 0.95134 0.33031 0.41939 0.0
C2047 C 0.93921 0.31804 0.3968 0.0
C2048 C 0.94947 0.31101 0.37806 0.0
C2049 C 0.97149 0.31548 0.38206 0.0
C2050 C 0.88224 0.28323 0.37604 0.0
C2051 C 0.87143 0.30103 0.37956 0.0
C2052 C 0.90424 0.28869 0.38244 0.0
C2053 C 0.91585 0.31196 0.39272 0.0
C2054 C 0.90504 0.32943 0.39784 0.0
C2055 C 0.88297 0.32403 0.39121 0.0
H2056 H 0.02221 0.67554 0.68478 0.0
H2057 H 0.05286 0.73029 0.64777 0.0
H2058 H 1.01249 0.64746 0.64656 0.0
H2059 H 0.04297 0.70216 0.60954 0.0
H2060 H 0.0539 0.63161 0.56699 0.0
H2061 H 0.05606 0.66663 0.5968 0.0
H2062 H 0.99129 0.63748 0.60415 0.0
H2063 H 0.98938 0.60235 0.57446 0.0
C2064 C 0.02658 0.68169 0.66845 0.0
C2065 C 0.03853 0.70506 0.66941 0.0
C2066 C 0.02084 0.66567 0.64649 0.0
C2067 C 0.02699 0.67266 0.62508 0.0
C2068 C 0.03814 0.69628 0.6258 0.0
C2069 C 0.04377 0.71235 0.64772 0.0
C2070 C 0.03991 0.63326 0.57425 0.0
C2071 C 0.02146 0.6146 0.56846 0.0
C2072 C 0.0411 0.65324 0.59131 0.0
C2073 C 0.0239 0.65462 0.603 0.0
C2074 C 1.00482 0.63676 0.59558 0.0
C2075 C 1.00362 0.61686 0.57839 0.0
H2076 H 0.5675 0.81608 0.83612 0.0
H2077 H 0.61369 0.8477 0.90189 0.0
H2078 H 0.59505 0.80344 0.81705 0.0
H2079 H 0.64112 0.83582 0.88279 0.0
H2080 H 0.67595 0.78239 0.85789 0.0
H2081 H 0.64833 0.79786 0.87287 0.0
H2082 H 0.62859 0.81461 0.80182 0.0
H2083 H 0.65637 0.79869 0.78666 0.0
C2084 C 0.58361 0.82083 0.84626 0.0
C2085 C 0.58838 0.83257 0.87061 0.0
C2086 C 0.59939 0.8136 0.83536 0.0
C2087 C 0.62019 0.81814 0.8486 0.0
C2088 C 0.62514 0.83138 0.87232 0.0
C2089 C 0.60943 0.83836 0.88323 0.0
C2090 C 0.66581 0.78949 0.84547 0.0
C2091 C 0.66851 0.78958 0.82118 0.0
C2092 C 0.65 0.79846 0.85407 0.0
C2093 C 0.63647 0.80792 0.83868 0.0
C2094 C 0.63873 0.80744 0.81414 0.0
C2095 C 0.6546 0.79832 0.80546 0.0
H2096 H 0.46616 0.54159 0.7097 0.0
H2097 H 0.50564 0.49484 0.72829 0.0
H2098 H 0.48418 0.55024 0.67583 0.0
H2099 H 0.52364 0.50349 0.69416 0.0
H2100 H 0.53377 0.50529 0.6145 0.0
H2101 H 0.51472 0.49623 0.64771 0.0
H2102 H 0.52048 0.571 0.66976 0.0
H2103 H 0.53969 0.58005 0.63669 0.0
C2104 C 0.47871 0.53316 0.70661 0.0
C2105 C 0.48445 0.5175 0.72179 0.0
C2106 C 0.48909 0.53821 0.68721 0.0
C2107 C 0.5053 0.52752 0.68225 0.0
C2108 C 0.51106 0.51184 0.69737 0.0
C2109 C 0.50086 0.50702 0.71703 0.0
C2110 C 0.53077 0.51976 0.6263 0.0
C2111 C 0.53823 0.5434 0.62304 0.0
C2112 C 0.52004 0.51459 0.64545 0.0
C2113 C 0.51623 0.5329 0.66149 0.0
C2114 C 0.52309 0.55648 0.65767 0.0
C2115 C 0.53409 0.56167 0.63875 0.0
H2116 H 0.8333 0.1783 0.0455 0.0
H2117 H 0.78114 0.20156 0.06978 0.0
H2118 H 0.83114 0.20101 1.01215 0.0
H2119 H 0.77931 0.22456 0.03687 0.0
H2120 H 0.76995 0.24688 0.96233 0.0
H2121 H 0.77051 0.22083 0.99275 0.0
H2122 H 0.839 0.24314 1.00846 0.0
H2123 H 0.83846 0.26845 0.97736 0.0
C2124 C 0.82129 0.18811 0.04361 0.0
C2125 C 0.80744 0.18823 0.06029 0.0
C2126 C 0.82016 0.20124 0.02465 0.0
C2127 C 0.80516 0.2147 0.02202 0.0
C2128 C 0.79091 0.2142 0.03827 0.0
C2129 C 0.79203 0.20109 0.0572 0.0
C2130 C 0.78512 0.24607 0.97217 0.0
C2131 C 0.80416 0.25974 0.9675 0.0
C2132 C 0.78544 0.2313 0.98971 0.0
C2133 C 0.8048 0.2299 1.00295 0.0
C2134 C 0.82384 0.2436 0.99832 0.0
C2135 C 0.82352 0.25837 0.98078 0.0
H2136 H 0.11019 0.53493 0.27196 0.0
H2137 H 0.15448 0.50592 0.23673 0.0
H2138 H 0.09075 0.53715 0.23229 0.0
H2139 H 0.13476 0.50778 0.19674 0.0
H2140 H 0.10297 0.53236 0.12652 0.0
H2141 H 0.12422 0.53007 0.16582 0.0
H2142 H 0.0675 0.51728 0.19685 0.0
H2143 H 0.04686 0.51993 0.15842 0.0
C2144 C 0.11575 0.52866 0.2558 0.0
C2145 C 0.13408 0.51996 0.25823 0.0
C2146 C 0.1044 0.52989 0.23264 0.0
C2147 C 0.11074 0.52257 0.21047 0.0
C2148 C 0.12912 0.51387 0.2129 0.0
C2149 C 0.14044 0.51254 0.23614 0.0
C2150 C 0.09506 0.52912 0.14172 0.0
C2151 C 0.07293 0.52651 0.13877 0.0
C2152 C 0.1073 0.52766 0.16451 0.0
C2153 C 0.09797 0.52371 0.18538 0.0
C2154 C 0.07584 0.5209 0.18203 0.0
C2155 C 0.06377 0.52225 0.1595 0.0
H2156 H 0.85581 0.85442 0.51153 0.0
H2157 H 0.79224 0.86314 0.50547 0.0
H2158 H 0.8491 0.83861 0.46843 0.0
H2159 H 0.78465 0.84539 0.46232 0.0
H2160 H 0.78374 0.83474 0.37999 0.0
H2161 H 0.78886 0.84971 0.42354 0.0
H2162 H 0.83427 0.80815 0.4377 0.0
H2163 H 0.8303 0.79506 0.39413 0.0
C2164 C 0.84016 0.85241 0.501 0.0
C2165 C 0.82454 0.85996 0.51195 0.0
C2166 C 0.83617 0.84309 0.47612 0.0
C2167 C 0.81618 0.84032 0.46143 0.0
C2168 C 0.80038 0.84752 0.47264 0.0
C2169 C 0.80461 0.85751 0.49751 0.0
C2170 C 0.79482 0.82891 0.39254 0.0
C2171 C 0.80682 0.814 0.38369 0.0
C2172 C 0.79768 0.83733 0.41764 0.0
C2173 C 0.81221 0.8305 0.4346 0.0
C2174 C 0.82349 0.81467 0.42551 0.0
C2175 C 0.8211 0.80689 0.40043 0.0
H2176 H 0.511 0.48515 0.85388 0.0
H2177 H 0.47621 0.53852 0.86331 0.0
H2178 H 0.52422 0.49239 0.89767 0.0
H2179 H 0.48938 0.54564 0.90741 0.0
H2180 H 0.53409 0.56503 0.98388 0.0
H2181 H 0.52191 0.56078 0.93982 0.0
H2182 H 0.50886 0.4845 0.93366 0.0
H2183 H 0.5211 0.48863 0.9773 0.0
C2184 C 0.50626 0.49856 0.86527 0.0
C2185 C 0.49243 0.51116 0.85502 0.0
C2186 C 0.51374 0.5026 0.89045 0.0
C2187 C 0.50767 0.5194 0.90614 0.0
C2188 C 0.49444 0.53264 0.89585 0.0
C2189 C 0.48685 0.52851 0.87058 0.0
C2190 C 0.52857 0.54735 0.97313 0.0
C2191 C 0.52869 0.52719 0.98424 0.0
C2192 C 0.52151 0.54492 0.94788 0.0
C2193 C 0.51459 0.5223 0.93314 0.0
C2194 C 0.51444 0.50221 0.94435 0.0
C2195 C 0.52134 0.5046 0.9695 0.0
H2196 H 0.84763 0.18162 0.21516 0.0
H2197 H 0.84468 0.2321 0.16608 0.0
H2198 H 0.84636 0.21126 0.24891 0.0
H2199 H 0.84459 0.26232 0.20004 0.0
H2200 H 0.81014 0.29437 0.2562 0.0
H2201 H 0.81924 0.26964 0.22317 0.0
H2202 H 0.86157 0.24672 0.27603 0.0
H2203 H 0.85158 0.27042 0.30877 0.0
C2204 C 0.84749 0.19935 0.2118 0.0
C2205 C 0.84603 0.20455 0.18805 0.0
C2206 C 0.84679 0.21643 0.23115 0.0
C2207 C 0.84502 0.23915 0.22715 0.0
C2208 C 0.84532 0.24483 0.20365 0.0
C2209 C 0.84561 0.22762 0.18425 0.0
C2210 C 0.82154 0.2842 0.26057 0.0
C2211 C 0.82999 0.28403 0.28487 0.0
C2212 C 0.82691 0.27015 0.24171 0.0
C2213 C 0.8411 0.25604 0.24691 0.0
C2214 C 0.85028 0.25692 0.27132 0.0
C2215 C 0.84465 0.27062 0.29009 0.0
H2216 H 0.12059 0.5101 0.40329 0.0
H2217 H 0.12525 0.58392 0.40009 0.0
H2218 H 0.10174 0.51278 0.4377 0.0
H2219 H 0.10707 0.58684 0.43505 0.0
H2220 H 0.09171 0.5884 0.5155 0.0
H2221 H 0.11037 0.58606 0.48081 0.0
H2222 H 0.0673 0.51807 0.44956 0.0
H2223 H 0.04827 0.52081 0.48372 0.0
C2224 C 0.11774 0.52702 0.40985 0.0
C2225 C 0.12471 0.54672 0.39824 0.0
C2226 C 0.10672 0.52858 0.42981 0.0
C2227 C 0.10255 0.5501 0.43985 0.0
C2228 C 0.10982 0.56988 0.42845 0.0
C2229 C 0.12031 0.56816 0.40805 0.0
C2230 C 0.08605 0.57294 0.50124 0.0
C2231 C 0.06807 0.55492 0.50294 0.0
C2232 C 0.09684 0.57159 0.48104 0.0
C2233 C 0.0907 0.55181 0.46172 0.0
C2234 C 0.07294 0.53364 0.4637 0.0
C2235 C 0.0618 0.53529 0.48351 0.0
H2236 H 0.82008 0.90144 0.67148 0.0
H2237 H 0.83423 0.84136 0.63088 0.0
H2238 H 0.81298 0.87887 0.70405 0.0
H2239 H 0.82779 0.81894 0.66386 0.0
H2240 H 0.79252 0.77681 0.71583 0.0
H2241 H 0.80116 0.79899 0.68321 0.0
H2242 H 0.82807 0.86297 0.73657 0.0
H2243 H 0.81868 0.84087 0.76893 0.0
C2244 C 0.82187 0.88346 0.66955 0.0
C2245 C 0.82773 0.87332 0.64839 0.0
C2246 C 0.81792 0.87048 0.68841 0.0
C2247 C 0.81982 0.84693 0.68686 0.0
C2248 C 0.82582 0.83684 0.66573 0.0
C2249 C 0.82967 0.8498 0.64679 0.0
C2250 C 0.80041 0.79559 0.72058 0.0
C2251 C 0.80486 0.80704 0.74502 0.0
C2252 C 0.80549 0.80836 0.70184 0.0
C2253 C 0.81526 0.83297 0.70701 0.0
C2254 C 0.82019 0.84422 0.73163 0.0
C2255 C 0.815 0.83147 0.75032 0.0
H2256 H 0.74735 0.49208 0.63931 0.0
H2257 H 0.69789 0.42694 0.62604 0.0
H2258 H 0.72767 0.51123 0.66492 0.0
H2259 H 0.67883 0.44508 0.6538 0.0
H2260 H 0.63682 0.49759 0.65173 0.0
H2261 H 0.65767 0.46944 0.64925 0.0
H2262 H 0.71129 0.52119 0.69573 0.0
H2263 H 0.69023 0.55025 0.69658 0.0
C2264 C 0.73247 0.48171 0.6426 0.0
C2265 C 0.72369 0.45843 0.63023 0.0
C2266 C 0.72122 0.49252 0.65767 0.0
C2267 C 0.70119 0.47998 0.66123 0.0
C2268 C 0.69369 0.45572 0.65082 0.0
C2269 C 0.70458 0.44523 0.63495 0.0
C2270 C 0.65275 0.50272 0.66235 0.0
C2271 C 0.66214 0.52637 0.6736 0.0
C2272 C 0.66494 0.48639 0.66094 0.0
C2273 C 0.68673 0.4933 0.67116 0.0
C2274 C 0.69492 0.51563 0.68641 0.0
C2275 C 0.6828 0.53223 0.68726 0.0
H2276 H 0.19863 0.14712 0.53314 0.0
H2277 H 0.22252 0.08453 0.52741 0.0
H2278 H 0.16378 0.12279 0.53583 0.0
H2279 H 0.18747 0.06016 0.52962 0.0
H2280 H 0.1148 0.02304 0.50948 0.0
H2281 H 0.14918 0.04729 0.505 0.0
H2282 H 0.1487 0.09818 0.56733 0.0
H2283 H 0.11467 0.07344 0.57239 0.0
C2284 C 0.19641 0.12813 0.53206 0.0
C2285 C 0.21349 0.11785 0.52997 0.0
C2286 C 0.17643 0.1142 0.53382 0.0
C2287 C 0.17281 0.08952 0.53306 0.0
C2288 C 0.18967 0.0791 0.53017 0.0
C2289 C 0.20978 0.09309 0.52891 0.0
C2290 C 0.12201 0.03941 0.52225 0.0
C2291 C 0.11177 0.04645 0.54109 0.0
C2292 C 0.14176 0.05328 0.5197 0.0
C2293 C 0.15168 0.07478 0.5357 0.0
C2294 C 0.14138 0.0819 0.55448 0.0
C2295 C 0.12182 0.06776 0.55733 0.0
H2296 H 0.17691 0.97664 0.84959 0.0
H2297 H 0.22903 1.01228 0.81846 0.0
H2298 H 0.19545 0.94581 0.85763 0.0
H2299 H 0.2476 0.98199 0.82706 0.0
H2300 H 0.28268 0.93832 0.87356 0.0
H2301 H 0.26288 0.96812 0.86831 0.0
H2302 H 0.20865 0.91378 0.82761 0.0
H2303 H 0.22869 0.88392 0.83155 0.0
C2304 C 0.19234 0.97796 0.84464 0.0
C2305 C 0.20151 0.9968 0.83335 0.0
C2306 C 0.20287 0.96034 0.84915 0.0
C2307 C 0.22294 0.96166 0.84302 0.0
C2308 C 0.2322 0.98068 0.8321 0.0
C2309 C 0.22151 0.99792 0.82709 0.0
C2310 C 0.26663 0.93262 0.86324 0.0
C2311 C 0.25747 0.90861 0.85273 0.0
C2312 C 0.25526 0.94972 0.86045 0.0
C2313 C 0.23429 0.94319 0.84756 0.0
C2314 C 0.22475 0.91919 0.83783 0.0
C2315 C 0.23626 0.90209 0.84021 0.0
H2316 H 0.32266 0.97885 0.02236 0.0
H2317 H 0.3181 1.01398 0.09299 0.0
H2318 H 0.34562 1.01485 0.01574 0.0
H2319 H 0.34039 0.05091 0.08582 0.0
H2320 H 0.4131 0.07842 0.08662 0.0
H2321 H 0.37676 0.06081 0.08909 0.0
H2322 H 0.35887 0.05349 1.01071 0.0
H2323 H 0.39577 0.06914 1.00815 0.0
C2324 C 0.32598 0.99456 0.03617 0.0
C2325 C 0.31928 0.99331 0.05861 0.0
C2326 C 0.33904 1.01551 0.03225 0.0
C2327 C 0.34551 0.03583 0.05058 0.0
C2328 C 0.33637 0.0354 0.07166 0.0
C2329 C 0.32354 1.01425 0.07576 0.0
C2330 C 0.40134 0.07345 0.06994 0.0
C2331 C 0.4075 0.07399 0.04713 0.0
C2332 C 0.38028 0.06363 0.07135 0.0
C2333 C 0.36489 0.0546 0.04993 0.0
C2334 C 0.37048 0.05924 0.02749 0.0
C2335 C 0.39167 0.06856 0.02604 0.0
H2336 H 0.84623 0.6096 0.75927 0.0
H2337 H 0.89426 0.64537 0.82177 0.0
H2338 H 0.83069 0.64371 0.7616 0.0
H2339 H 0.87879 0.67955 0.82425 0.0
H2340 H 0.79517 0.70175 0.78148 0.0
H2341 H 0.81069 0.66766 0.77888 0.0
H2342 H 0.87214 0.71419 0.81104 0.0
H2343 H 0.85651 0.74817 0.81358 0.0
C2344 C 0.85361 0.62466 0.77366 0.0
C2345 C 0.87182 0.62398 0.79029 0.0
C2346 C 0.84447 0.64458 0.77513 0.0
C2347 C 0.85305 0.66533 0.79319 0.0
C2348 C 0.87137 0.66462 0.80975 0.0
C2349 C 0.88037 0.64459 0.80842 0.0
C2350 C 0.81204 0.70496 0.78798 0.0
C2351 C 0.82423 0.72851 0.79778 0.0
C2352 C 0.82117 0.68503 0.78638 0.0
C2353 C 0.8431 0.68722 0.79471 0.0
C2354 C 0.85526 0.71084 0.80455 0.0
C2355 C 0.84616 0.73078 0.80592 0.0
H2356 H 0.83593 0.62989 0.01615 0.0
H2357 H 0.82536 0.60767 0.08448 0.0
H2358 H 0.8665 0.61283 0.01758 0.0
H2359 H 0.85614 0.59153 0.08647 0.0
H2360 H 0.9006 0.54511 0.07508 0.0
H2361 H 0.86948 0.56075 0.07079 0.0
H2362 H 0.90192 0.61657 0.03637 0.0
H2363 H 0.93296 0.60031 0.0401 0.0
C2364 C 0.84012 0.62141 0.03151 0.0
C2365 C 0.828 0.62007 0.05011 0.0
C2366 C 0.85782 0.61175 0.03245 0.0
C2367 C 0.86401 0.60058 0.05211 0.0
C2368 C 0.85182 0.59941 0.07071 0.0
C2369 C 0.83411 0.60887 0.06966 0.0
C2370 C 0.90117 0.56079 0.06666 0.0
C2371 C 0.91948 0.57152 0.05816 0.0
C2372 C 0.88324 0.56989 0.06426 0.0
C2373 C 0.883 0.59025 0.05348 0.0
C2374 C 0.90122 0.60076 0.04455 0.0
C2375 C 0.91914 0.59146 0.04675 0.0
H2376 H 0.23193 0.10715 0.8432 0.0
H2377 H 0.18134 0.14244 0.83473 0.0
H2378 H 0.25762 0.14426 0.84205 0.0
H2379 H 0.20709 0.17948 0.83316 0.0
H2380 H 0.25732 0.22459 0.7937 0.0
H2381 H 0.23097 0.19044 0.80067 0.0
H2382 H 0.27254 0.1875 0.86657 0.0
H2383 H 0.29856 0.22236 0.86014 0.0
C2384 C 0.22633 0.12289 0.84138 0.0
C2385 C 0.2046 0.12185 0.83901 0.0
C2386 C 0.24105 0.14414 0.84081 0.0
C2387 C 0.2343 0.16467 0.83739 0.0
C2388 C 0.21267 0.16384 0.83566 0.0
C2389 C 0.19798 0.14269 0.83673 0.0
C2390 C 0.26059 0.21706 0.81 0.0
C2391 C 0.2798 0.2264 0.82662 0.0
C2392 C 0.24556 0.19746 0.81393 0.0
C2393 C 0.24967 0.18645 0.83425 0.0
C2394 C 0.26897 0.19567 0.85077 0.0
C2395 C 0.28384 0.21557 0.84708 0.0
H2396 H 0.39912 0.98767 0.33725 0.0
H2397 H 0.35501 0.98823 0.27274 0.0
H2398 H 0.38072 0.94685 0.33805 0.0
H2399 H 0.33638 0.9467 0.27342 0.0
H2400 H 0.32221 0.86246 0.26928 0.0
H2401 H 0.33831 0.90431 0.26746 0.0
H2402 H 0.34974 0.92065 0.34599 0.0
H2403 H 0.33364 0.87917 0.34774 0.0
C2404 C 0.38529 0.97925 0.32323 0.0
C2405 C 0.37874 0.992 0.30504 0.0
C2406 C 0.37454 0.95548 0.32375 0.0
C2407 C 0.35673 0.94272 0.30585 0.0
C2408 C 0.35001 0.95541 0.28758 0.0
C2409 C 0.36063 0.97956 0.28731 0.0
C2410 C 0.32808 0.87493 0.28623 0.0
C2411 C 0.32642 0.86681 0.3087 0.0
C2412 C 0.33731 0.89924 0.28517 0.0
C2413 C 0.34568 0.91657 0.30655 0.0
C2414 C 0.34392 0.90833 0.32895 0.0
C2415 C 0.33446 0.88421 0.32998 0.0
H2416 H 0.58561 0.3852 0.66774 0.0
H2417 H 0.60667 0.3625 0.60178 0.0
H2418 H 0.58098 0.42138 0.65249 0.0
H2419 H 0.60137 0.39827 0.58626 0.0
H2420 H 0.56223 0.45146 0.55851 0.0
H2421 H 0.56849 0.41592 0.57377 0.0
H2422 H 0.60562 0.45959 0.64067 0.0
H2423 H 0.59995 0.49529 0.6251 0.0
C2424 C 0.58914 0.38782 0.64993 0.0
C2425 C 0.59651 0.37079 0.63603 0.0
C2426 C 0.58658 0.40866 0.64124 0.0
C2427 C 0.59078 0.41283 0.6181 0.0
C2428 C 0.59789 0.39566 0.60409 0.0
C2429 C 0.60098 0.37514 0.61304 0.0
C2430 C 0.57189 0.45355 0.5764 0.0
C2431 C 0.58066 0.47637 0.59047 0.0
C2432 C 0.57551 0.43313 0.58513 0.0
C2433 C 0.58753 0.43479 0.60851 0.0
C2434 C 0.59623 0.4576 0.62265 0.0
C2435 C 0.59308 0.4781 0.61364 0.0
H2436 H 0.44314 0.74978 0.40782 0.0
H2437 H 0.47103 0.81535 0.38462 0.0
H2438 H 0.40788 0.75163 0.38822 0.0
H2439 H 0.43617 0.81776 0.3661 0.0
H2440 H 0.37567 0.80492 0.31218 0.0
H2441 H 0.40946 0.80134 0.33258 0.0
H2442 H 0.37933 0.7708 0.38842 0.0
H2443 H 0.34486 0.77349 0.36691 0.0
C2444 C 0.44178 0.76459 0.39856 0.0
C2445 C 0.46007 0.78223 0.39757 0.0
C2446 C 0.4215 0.76579 0.38749 0.0
C2447 C 0.41892 0.78476 0.37524 0.0
C2448 C 0.43729 0.80251 0.37469 0.0
C2449 C 0.45745 0.80119 0.3855 0.0
C2450 C 0.37614 0.79744 0.32883 0.0
C2451 C 0.35745 0.78958 0.33791 0.0
C2452 C 0.39571 0.79554 0.34075 0.0
C2453 C 0.39749 0.78602 0.36249 0.0
C2454 C 0.37873 0.77807 0.37166 0.0
C2455 C 0.35894 0.77979 0.35947 0.0
H2456 H 0.1075 0.74099 0.12089 0.0
H2457 H 0.04369 0.72539 0.13476 0.0
H2458 H 0.10328 0.69898 0.10612 0.0
H2459 H 0.03854 0.68376 0.1181 0.0
H2460 H 0.04026 0.60726 0.11356 0.0
H2461 H 0.04474 0.64945 0.12593 0.0
H2462 H 0.09131 0.66437 0.07956 0.0
H2463 H 0.08783 0.62185 0.06885 0.0
C2464 C 0.0923 0.72861 0.12001 0.0
C2465 C 0.07594 0.73654 0.129 0.0
C2466 C 0.08978 0.70434 0.11147 0.0
C2467 C 0.07061 0.6873 0.11109 0.0
C2468 C 0.05386 0.69574 0.1188 0.0
C2469 C 0.05664 0.71984 0.12803 0.0
C2470 C 0.0515 0.61958 0.10605 0.0
C2471 C 0.06369 0.61111 0.09022 0.0
C2472 C 0.05395 0.64402 0.11294 0.0
C2473 C 0.06824 0.66096 0.10365 0.0
C2474 C 0.08037 0.65231 0.0876 0.0
C2475 C 0.07831 0.62778 0.08126 0.0
H2476 H 0.08948 0.29026 0.93311 0.0
H2477 H 0.05808 0.23455 0.87201 0.0
H2478 H 0.12214 0.29622 0.91631 0.0
H2479 H 0.09061 0.24036 0.85538 0.0
H2480 H 0.14537 0.27287 0.81917 0.0
H2481 H 0.11329 0.26854 0.83651 0.0
H2482 H 0.15046 0.27674 0.90854 0.0
H2483 H 0.18279 0.28165 0.89116 0.0
C2484 C 0.08949 0.27934 0.91606 0.0
C2485 C 0.07103 0.26196 0.90392 0.0
C2486 C 0.1083 0.28263 0.9065 0.0
C2487 C 0.10914 0.2688 0.88442 0.0
C2488 C 0.0906 0.25158 0.87224 0.0
C2489 C 0.07189 0.24817 0.88187 0.0
C2490 C 0.14682 0.27402 0.83875 0.0
C2491 C 0.16683 0.27774 0.8537 0.0
C2492 C 0.1283 0.27126 0.84871 0.0
C2493 C 0.12913 0.27222 0.87399 0.0
C2494 C 0.14915 0.2761 0.88902 0.0
C2495 C 0.16771 0.27868 0.87901 0.0
H2496 H 0.57381 0.80166 0.99367 0.0
H2497 H 0.52255 0.75819 0.93737 0.0
H2498 H 0.57365 0.76791 0.01455 0.0
H2499 H 0.52277 0.72404 0.95808 0.0
H2500 H 0.51912 0.67355 0.01532 0.0
H2501 H 0.51599 0.70758 0.99526 0.0
H2502 H 0.58432 0.73143 1.00622 0.0
H2503 H 0.58738 0.69783 0.02628 0.0
C2504 C 0.56249 0.78487 0.98575 0.0
C2505 C 0.54834 0.78249 0.96375 0.0
C2506 C 0.56246 0.7655 0.99766 0.0
C2507 C 0.54841 0.74324 0.98777 0.0
C2508 C 0.53372 0.74101 0.96619 0.0
C2509 C 0.53367 0.76051 0.95429 0.0
C2510 C 0.53341 0.68609 0.01332 0.0
C2511 C 0.55349 0.68327 0.02263 0.0
C2512 C 0.53163 0.7055 1.00184 0.0
C2513 C 0.54991 0.72232 0.99945 0.0
C2514 C 0.56993 0.71913 1.00834 0.0
C2515 C 0.5717 0.69987 0.01982 0.0
H2516 H 0.1182 0.72591 0.78759 0.0
H2517 H 0.13766 0.78239 0.74697 0.0
H2518 H 0.15548 0.7272 0.80169 0.0
H2519 H 0.17445 0.78314 0.76038 0.0
H2520 H 0.22473 0.72243 0.80307 0.0
H2521 H 0.18723 0.71895 0.78739 0.0
H2522 H 0.19997 0.7955 0.79754 0.0
H2523 H 0.23705 0.79898 0.81237 0.0
C2524 C 0.13037 0.73857 0.78168 0.0
C2525 C 0.12493 0.7542 0.76635 0.0
C2526 C 0.15169 0.73914 0.78955 0.0
C2527 C 0.16792 0.75533 0.78221 0.0
C2528 C 0.16238 0.77074 0.76672 0.0
C2529 C 0.14121 0.77026 0.75899 0.0
C2530 C 0.21951 0.73846 0.80164 0.0
C2531 C 0.23392 0.76096 0.80892 0.0
C2532 C 0.19802 0.73647 0.79291 0.0
C2533 C 0.19063 0.75695 0.79122 0.0
C2534 C 0.20515 0.77935 0.79823 0.0
C2535 C 0.22648 0.78133 0.80687 0.0
H2536 H 0.07165 0.41955 0.46739 0.0
H2537 H 0.05711 0.37769 0.52344 0.0
H2538 H 0.06981 0.45497 0.49409 0.0
H2539 H 0.05538 0.41322 0.5501 0.0
H2540 H 0.02693 0.4958 0.52817 0.0
H2541 H 0.03456 0.46086 0.50707 0.0
H2542 H 0.07706 0.4572 0.57194 0.0
H2543 H 0.0697 0.49286 0.59321 0.0
C2544 C 0.06867 0.41803 0.48563 0.0
C2545 C 0.06422 0.39584 0.49321 0.0
C2546 C 0.06749 0.43824 0.50082 0.0
C2547 C 0.0621 0.4366 0.52391 0.0
C2548 C 0.05951 0.41486 0.53235 0.0
C2549 C 0.06046 0.39458 0.51706 0.0
C2550 C 0.03773 0.48744 0.53807 0.0
C2551 C 0.04792 0.49715 0.56221 0.0
C2552 C 0.04224 0.4676 0.52591 0.0
C2553 C 0.0568 0.45683 0.53774 0.0
C2554 C 0.06596 0.46546 0.56242 0.0
C2555 C 0.06163 0.48566 0.57459 0.0
H2556 H 0.52815 0.29961 0.28258 0.0
H2557 H 0.51641 0.23829 0.3185 0.0
H2558 H 0.49875 0.31166 0.29711 0.0
H2559 H 0.48722 0.25075 0.33368 0.0
H2560 H 0.41959 0.26307 0.32329 0.0
H2561 H 0.45198 0.25233 0.31655 0.0
H2562 H 0.48594 0.32658 0.33211 0.0
H2563 H 0.45325 0.33738 0.33761 0.0
C2564 C 0.51948 0.28887 0.29388 0.0
C2565 C 0.52451 0.26789 0.29923 0.0
C2566 C 0.5027 0.2959 0.3024 0.0
C2567 C 0.49059 0.28218 0.31657 0.0
C2568 C 0.49605 0.26156 0.32255 0.0
C2569 C 0.51283 0.25447 0.31393 0.0
C2570 C 0.43398 0.2771 0.32533 0.0
C2571 C 0.43376 0.3011 0.33063 0.0
C2572 C 0.45264 0.27093 0.32178 0.0
C2573 C 0.47153 0.28861 0.32355 0.0
C2574 C 0.47156 0.31255 0.33019 0.0
C2575 C 0.45288 0.31873 0.33365 0.0
H2576 H 0.64203 0.53342 0.40146 0.0
H2577 H 0.60838 0.58833 0.4038 0.0
H2578 H 0.6331 0.52494 0.44067 0.0
H2579 H 0.59937 0.57976 0.44274 0.0
H2580 H 0.60171 0.57409 0.5223 0.0
H2581 H 0.61559 0.58307 0.4857 0.0
H2582 H 0.60175 0.508 0.45777 0.0
H2583 H 0.58804 0.49906 0.49447 0.0
C2584 C 0.6327 0.54366 0.41029 0.0
C2585 C 0.62588 0.56153 0.3994 0.0
C2586 C 0.62755 0.53876 0.43276 0.0
C2587 C 0.61562 0.55175 0.44498 0.0
C2588 C 0.60888 0.56966 0.43408 0.0
C2589 C 0.61389 0.57443 0.41159 0.0
C2590 C 0.602 0.5595 0.50857 0.0
C2591 C 0.59364 0.53585 0.51122 0.0
C2592 C 0.60977 0.56465 0.48746 0.0
C2593 C 0.60953 0.54627 0.46858 0.0
C2594 C 0.60227 0.5226 0.47193 0.0
C2595 C 0.59437 0.51746 0.49296 0.0
H2596 H 0.33757 0.86885 0.0761 0.0
H2597 H 0.34462 0.91071 0.14734 0.0
H2598 H 0.34989 0.83824 0.09513 0.0
H2599 H 0.35717 0.88029 0.16621 0.0
H2600 H 0.37415 0.82413 0.19897 0.0
H2601 H 0.38226 0.85259 0.17148 0.0
H2602 H 0.32571 0.81398 0.11983 0.0
H2603 H 0.31707 0.78636 0.14743 0.0
C2604 C 0.34251 0.87197 0.09576 0.0
C2605 C 0.33963 0.8919 0.11034 0.0
C2606 C 0.34962 0.85444 0.10658 0.0
C2607 C 0.35428 0.85681 0.13209 0.0
C2608 C 0.35383 0.87806 0.14647 0.0
C2609 C 0.34642 0.8954 0.13569 0.0
C2610 C 0.36376 0.82135 0.18144 0.0
C2611 C 0.34451 0.80354 0.17583 0.0
C2612 C 0.36854 0.83752 0.16566 0.0
C2613 C 0.35438 0.83574 0.14384 0.0
C2614 C 0.33694 0.81578 0.13656 0.0
C2615 C 0.33197 0.79987 0.15248 0.0
H2616 H 0.96362 0.57562 0.90172 0.0
H2617 H 0.98902 0.52052 0.86921 0.0
H2618 H 0.98246 0.57346 0.94221 0.0
H2619 H 1.00754 0.51812 0.90935 0.0
H2620 H 0.05711 0.53527 0.97935 0.0
H2621 H 0.03642 0.53695 0.94053 0.0
H2622 H 0.98696 0.55246 0.97703 0.0
H2623 H 1.00843 0.55111 0.01666 0.0
C2624 C 0.97324 0.56305 0.90305 0.0
C2625 C 0.97474 0.54844 0.88163 0.0
C2626 C 0.98401 0.56164 0.92655 0.0
C2627 C 0.99695 0.54569 0.92974 0.0
C2628 C 0.99826 0.53104 0.90823 0.0
C2629 C 0.98744 0.53235 0.88487 0.0
C2630 C 0.04172 0.53882 0.97934 0.0
C2631 C 0.03453 0.54266 1.0016 0.0
C2632 C 0.02962 0.53967 0.95668 0.0
C2633 C 1.00957 0.54464 0.95484 0.0
C2634 C 1.00224 0.54861 0.97719 0.0
C2635 C 1.01445 0.54753 1.00011 0.0
H2636 H 0.29163 0.23948 0.60025 0.0
H2637 H 0.2846 0.1723 0.62591 0.0
H2638 H 0.29478 0.25965 0.64234 0.0
H2639 H 0.28707 0.19232 0.6674 0.0
H2640 H 0.26325 0.23494 0.72919 0.0
H2641 H 0.26127 0.21764 0.68662 0.0
H2642 H 0.32279 0.26336 0.68687 0.0
H2643 H 0.32514 0.28027 0.72978 0.0
C2644 C 0.29083 0.22905 0.61479 0.0
C2645 C 0.28795 0.20427 0.60964 0.0
C2646 C 0.29265 0.24059 0.63884 0.0
C2647 C 0.29103 0.2275 0.65807 0.0
C2648 C 0.28825 0.20282 0.65292 0.0
C2649 C 0.28697 0.19141 0.62912 0.0
C2650 C 0.2763 0.24145 0.72016 0.0
C2651 C 0.29438 0.25893 0.73293 0.0
C2652 C 0.27518 0.23149 0.69582 0.0
C2653 C 0.29186 0.23918 0.68346 0.0
C2654 C 0.30966 0.25719 0.69593 0.0
C2655 C 0.31103 0.26676 0.7205 0.0
H2656 H 0.6338 0.52271 0.24912 0.0
H2657 H 0.59679 0.57139 0.26927 0.0
H2658 H 0.61694 0.51777 0.20654 0.0
H2659 H 0.57978 0.56629 0.22649 0.0
H2660 H 0.57924 0.5762 0.1454 0.0
H2661 H 0.59154 0.57814 0.1889 0.0
H2662 H 0.5831 0.50212 0.17742 0.0
H2663 H 0.57087 0.50014 0.13391 0.0
C2664 C 0.62182 0.5321 0.24453 0.0
C2665 C 0.61674 0.54753 0.26267 0.0
C2666 C 0.61208 0.52918 0.22008 0.0
C2667 C 0.59711 0.54176 0.21304 0.0
C2668 C 0.59145 0.55657 0.23126 0.0
C2669 C 0.60107 0.55932 0.25581 0.0
C2670 C 0.57992 0.55986 0.1521 0.0
C2671 C 0.5742 0.53803 0.136 0.0
C2672 C 0.58682 0.56096 0.17713 0.0
C2673 C 0.58833 0.54029 0.18668 0.0
C2674 C 0.58234 0.51842 0.17065 0.0
C2675 C 0.57528 0.51729 0.14566 0.0
H2676 H 0.30816 0.85483 0.01582 0.0
H2677 H 0.24942 0.86962 0.98582 0.0
H2678 H 0.30173 0.82112 0.9835 0.0
H2679 H 0.24274 0.83534 0.95274 0.0
H2680 H 0.26613 0.80311 0.88249 0.0
H2681 H 0.26064 0.82858 0.91751 0.0
H2682 H 0.28005 0.78197 0.96484 0.0
H2683 H 0.28663 0.75736 0.9299 0.0
C2684 C 0.29362 0.85047 1.00238 0.0
C2685 C 0.27937 0.86477 1.00297 0.0
C2686 C 0.28979 0.831 0.98401 0.0
C2687 C 0.2717 0.82551 0.96556 0.0
C2688 C 0.25685 0.83924 0.96672 0.0
C2689 C 0.26058 0.85871 0.98556 0.0
C2690 C 0.26918 0.7984 0.9004 0.0
C2691 C 0.27759 0.77894 0.90374 0.0
C2692 C 0.26564 0.81268 0.92038 0.0
C2693 C 0.27021 0.80746 0.94398 0.0
C2694 C 0.27679 0.78668 0.94691 0.0
C2695 C 0.2806 0.77263 0.92697 0.0
H2696 H 0.92485 0.56475 0.71426 0.0
H2697 H 0.98157 0.55701 0.75772 0.0
H2698 H 0.94128 0.5628 0.67794 0.0
H2699 H 0.998 0.55507 0.72156 0.0
H2700 H 0.03097 0.5721 0.6563 0.0
H2701 H 1.01413 0.57402 0.69203 0.0
H2702 H 0.95322 0.54057 0.64629 0.0
H2703 H 0.97028 0.53869 0.61032 0.0
C2704 C 0.9409 0.56277 0.71632 0.0
C2705 C 0.95161 0.56123 0.73969 0.0
C2706 C 0.95042 0.56142 0.69511 0.0
C2707 C 0.97136 0.55874 0.69596 0.0
C2708 C 0.98209 0.55743 0.71942 0.0
C2709 C 0.97248 0.55848 0.74054 0.0
C2710 C 1.01396 0.56499 0.6536 0.0
C2711 C 1.00233 0.55511 0.62972 0.0
C2712 C 1.00412 0.566 0.6745 0.0
C2713 C 0.98193 0.55745 0.67293 0.0
C2714 C 0.97023 0.54767 0.64896 0.0
C2715 C 0.98015 0.5464 0.62801 0.0
H2716 H 0.25566 0.23919 0.48381 0.0
H2717 H 0.29318 0.19264 0.45988 0.0
H2718 H 0.26058 0.2596 0.44908 0.0
H2719 H 0.29813 0.2131 0.42505 0.0
H2720 H 0.28503 0.24026 0.35205 0.0
H2721 H 0.27877 0.21922 0.38623 0.0
H2722 H 0.28811 0.28624 0.4335 0.0
H2723 H 0.29437 0.3072 0.39931 0.0
C2724 C 0.26498 0.23327 0.47116 0.0
C2725 C 0.27403 0.2142 0.47481 0.0
C2726 C 0.2679 0.2451 0.45122 0.0
C2727 C 0.27977 0.23811 0.43408 0.0
C2728 C 0.2887 0.2189 0.43764 0.0
C2729 C 0.28597 0.20722 0.45775 0.0
C2730 C 0.28559 0.2505 0.3697 0.0
C2731 C 0.29021 0.27547 0.37288 0.0
C2732 C 0.28217 0.23842 0.3894 0.0
C2733 C 0.283 0.25093 0.41282 0.0
C2734 C 0.28714 0.2759 0.41579 0.0
C2735 C 0.2908 0.28797 0.39616 0.0
H2736 H 0.37824 0.59126 0.61427 0.0
H2737 H 0.39208 0.6502 0.57526 0.0
H2738 H 0.3964 0.56945 0.58868 0.0
H2739 H 0.41 0.62808 0.54928 0.0
H2740 H 0.46733 0.59418 0.54136 0.0
H2741 H 0.44303 0.61584 0.55587 0.0
H2742 H 0.39495 0.54972 0.54704 0.0
H2743 H 0.41963 0.528 0.53306 0.0
C2744 C 0.38505 0.59951 0.60013 0.0
C2745 C 0.38394 0.62255 0.59696 0.0
C2746 C 0.39521 0.58687 0.58523 0.0
C2747 C 0.40446 0.59697 0.56682 0.0
C2748 C 0.40308 0.61988 0.56339 0.0
C2749 C 0.39288 0.63255 0.57831 0.0
C2750 C 0.45136 0.58439 0.54193 0.0
C2751 C 0.44538 0.55947 0.5365 0.0
C2752 C 0.43741 0.59677 0.55011 0.0
C2753 C 0.41723 0.58442 0.55301 0.0
C2754 C 0.41057 0.55963 0.54539 0.0
C2755 C 0.42456 0.54723 0.53714 0.0
H2756 H 0.89645 0.98752 0.60593 0.0
H2757 H 0.90488 0.92354 0.56602 0.0
H2758 H 0.9313 1.00933 0.60024 0.0
H2759 H 0.93917 0.9453 0.55974 0.0
H2760 H 1.009 0.98572 0.57075 0.0
H2761 H 0.97481 0.96379 0.57801 0.0
H2762 H 0.95035 0.02528 0.57112 0.0
H2763 H 0.98468 0.04708 0.56443 0.0
C2764 C 0.90566 0.97809 0.5959 0.0
C2765 C 0.89768 0.95368 0.58651 0.0
C2766 C 0.92567 0.99065 0.59246 0.0
C2767 C 0.9383 0.97921 0.57946 0.0
C2768 C 0.93027 0.95479 0.5702 0.0
C2769 C 0.91038 0.94227 0.57369 0.0
C2770 C 0.99624 0.99436 0.57043 0.0
C2771 C 0.99955 1.01802 0.56666 0.0
C2772 C 0.97653 0.98183 0.57467 0.0
C2773 C 0.95953 0.99262 0.57519 0.0
C2774 C 0.96297 1.01634 0.5713 0.0
C2775 C 0.98267 0.02883 0.56721 0.0
H2776 H 0.89246 0.0612 0.24025 0.0
H2777 H 0.93025 0.08388 0.31287 0.0
H2778 H 0.87492 0.09287 0.24713 0.0
H2779 H 0.9123 0.11557 0.31991 0.0
H2780 H 0.88783 0.18294 0.31361 0.0
H2781 H 0.90776 0.15318 0.30653 0.0
H2782 H 0.84948 0.1012 0.27203 0.0
H2783 H 0.82965 0.13066 0.27922 0.0
C2784 C 0.89704 0.07295 0.25773 0.0
C2785 C 0.91266 0.0699 0.27609 0.0
C2786 C 0.8869 0.09106 0.26169 0.0
C2787 C 0.89207 0.1066 0.28414 0.0
C2788 C 0.90807 0.10397 0.30236 0.0
C2789 C 0.91826 0.08575 0.29838 0.0
C2790 C 0.87929 0.16512 0.3046 0.0
C2791 C 0.85715 0.15924 0.29683 0.0
C2792 C 0.8907 0.14809 0.30057 0.0
C2793 C 0.88021 0.12487 0.28862 0.0
C2794 C 0.8581 0.11905 0.28088 0.0
C2795 C 0.84673 0.13599 0.28494 0.0
H2796 H 0.78741 0.06508 0.11862 0.0
H2797 H 0.76099 0.12141 0.14667 0.0
H2798 H 0.75327 0.03597 0.11664 0.0
H2799 H 0.72755 0.0926 0.14554 0.0
H2800 H 0.67493 0.03922 0.15678 0.0
H2801 H 0.71333 0.05357 0.1651 0.0
H2802 H 0.71437 0.0359 0.08852 0.0
H2803 H 0.6757 0.02109 0.07999 0.0
C2804 C 0.77447 0.07106 0.12488 0.0
C2805 C 0.77657 0.09533 0.13267 0.0
C2806 C 0.75508 0.05451 0.12374 0.0
C2807 C 0.73801 0.06213 0.13119 0.0
C2808 C 0.74061 0.08628 0.14006 0.0
C2809 C 0.75963 0.10275 0.14053 0.0
C2810 C 0.6833 0.03728 0.14179 0.0
C2811 C 0.67223 0.02941 0.11762 0.0
C2812 C 0.70532 0.04558 0.14662 0.0
C2813 C 0.71663 0.04602 0.12741 0.0
C2814 C 0.70591 0.03561 0.10362 0.0
C2815 C 0.68381 0.02739 0.09874 0.0
H2816 H 0.19977 0.43943 0.33652 0.0
H2817 H 0.24236 0.46921 0.29112 0.0
H2818 H 0.21554 0.40543 0.33693 0.0
H2819 H 0.25842 0.43549 0.29181 0.0
H2820 H 0.29698 0.38102 0.31382 0.0
H2821 H 0.28088 0.41468 0.31339 0.0
H2822 H 0.22052 0.3685 0.3164 0.0
H2823 H 0.23669 0.33479 0.31655 0.0
C2824 C 0.21255 0.43897 0.32659 0.0
C2825 C 0.21945 0.45783 0.31379 0.0
C2826 C 0.2217 0.41905 0.32671 0.0
C2827 C 0.2387 0.41684 0.31445 0.0
C2828 C 0.24569 0.43588 0.30183 0.0
C2829 C 0.23625 0.45555 0.30132 0.0
C2830 C 0.28025 0.37781 0.31444 0.0
C2831 C 0.2685 0.35442 0.31524 0.0
C2832 C 0.27079 0.39745 0.31402 0.0
C2833 C 0.24897 0.39521 0.31482 0.0
C2834 C 0.23728 0.37182 0.31594 0.0
C2835 C 0.24668 0.35207 0.3159 0.0
H2836 H 0.29088 0.48222 0.12812 0.0
H2837 H 0.26602 0.43352 0.0601 0.0
H2838 H 0.25897 0.49667 0.12358 0.0
H2839 H 0.23388 0.44773 0.05571 0.0
H2840 H 0.18986 0.49724 0.04306 0.0
H2841 H 0.22113 0.48172 0.04754 0.0
H2842 H 0.22148 0.48548 0.1248 0.0
H2843 H 0.19049 0.50177 0.12041 0.0
C2844 C 0.27861 0.47457 0.11216 0.0
C2845 C 0.28115 0.45672 0.09444 0.0
C2846 C 0.26016 0.48274 0.10966 0.0
C2847 C 0.24366 0.47337 0.08932 0.0
C2848 C 0.24627 0.45559 0.07151 0.0
C2849 C 0.26472 0.44736 0.07406 0.0
C2850 C 0.19663 0.49488 0.06106 0.0
C2851 C 0.18763 0.50101 0.0814 0.0
C2852 C 0.2145 0.4857 0.06359 0.0
C2853 C 0.22403 0.48236 0.08656 0.0
C2854 C 0.21482 0.48808 0.10686 0.0
C2855 C 0.19684 0.49718 0.1043 0.0
H2856 H 0.92803 0.92594 0.28858 0.0
H2857 H 0.88026 0.95873 0.25783 0.0
H2858 H 0.90028 0.89162 0.29215 0.0
H2859 H 0.85258 0.92461 0.26178 0.0
H2860 H 0.8082 0.85039 0.2536 0.0
H2861 H 0.83659 0.88245 0.24645 0.0
H2862 H 0.8731 0.88298 0.31714 0.0
H2863 H 0.84471 0.8511 0.32419 0.0
C2864 C 0.91163 0.92581 0.28244 0.0
C2865 C 0.90642 0.9452 0.273 0.0
C2866 C 0.89571 0.90617 0.28464 0.0
C2867 C 0.87418 0.9054 0.2774 0.0
C2868 C 0.86899 0.92449 0.26732 0.0
C2869 C 0.88489 0.94414 0.26517 0.0
C2870 C 0.82234 0.85737 0.26754 0.0
C2871 C 0.82439 0.84809 0.28931 0.0
C2872 C 0.83857 0.87575 0.26349 0.0
C2873 C 0.85719 0.88524 0.28117 0.0
C2874 C 0.85919 0.87581 0.30293 0.0
C2875 C 0.84293 0.85752 0.30698 0.0
H2876 H 0.73921 0.08578 0.81196 0.0
H2877 H 0.70495 0.11379 0.86312 0.0
H2878 H 0.75858 0.12637 0.80992 0.0
H2879 H 0.72417 0.15417 0.8611 0.0
H2880 H 0.77381 0.22596 0.86773 0.0
H2881 H 0.75631 0.18518 0.87101 0.0
H2882 H 0.75649 0.16267 0.795 0.0
H2883 H 0.77401 0.20351 0.7918 0.0
C2884 C 0.73592 0.10046 0.82309 0.0
C2885 C 0.72035 0.09587 0.83788 0.0
C2886 C 0.74697 0.12404 0.82171 0.0
C2887 C 0.74321 0.14427 0.83524 0.0
C2888 C 0.728 0.13957 0.85046 0.0
C2889 C 0.7168 0.11607 0.85161 0.0
C2890 C 0.77017 0.21241 0.85163 0.0
C2891 C 0.77554 0.21861 0.82945 0.0
C2892 C 0.7599 0.18873 0.85347 0.0
C2893 C 0.75466 0.16991 0.83331 0.0
C2894 C 0.76025 0.17613 0.81119 0.0
C2895 C 0.77031 0.19987 0.80928 0.0
loop_
_geom_bond_atom_site_label_1
_geom_bond_atom_site_label_2
_geom_bond_distance
_geom_bond_site_symmetry_2
_ccdc_geom_bond_type
O0 Cd1 2.223 1_655 S
O0 C8 1.315 . S
Cd1 O0 2.223 1_455 S
Cd1 O4 2.297 . S
Cd1 O5 2.439 . S
Cd1 O11 2.240 1_455 S
Cd2 O3 2.240 1_655 S
Cd2 O10 2.223 . S
Cd2 O12 2.297 . S
Cd2 O13 2.439 1_655 S
O3 Cd2 2.240 1_455 S
O3 C8 1.279 1_455 S
O4 Cd1 2.297 . S
O4 C6 1.247 . S
O5 Cd1 2.439 . S
O5 C6 1.208 . S
C6 O4 1.247 . S
C6 O5 1.208 . S
C7 O12 1.247 1_455 S
C7 O13 1.208 . S
C8 O0 1.315 . S
C8 O3 1.279 1_655 S
C9 O10 1.315 . S
C9 O11 1.279 . S
O10 Cd2 2.223 . S
O10 C9 1.315 . S
O11 Cd1 2.240 1_655 S
O11 C9 1.279 . S
O12 Cd2 2.297 . S
O12 C7 1.247 1_655 S
O13 Cd2 2.439 1_455 S
O13 C7 1.208 . S
O14 Cd15 2.223 . S
O14 C22 1.315 . S
Cd15 O14 2.223 . S
Cd15 O18 2.297 . S
Cd15 O19 2.439 . S
Cd15 O25 2.240 . S
Cd16 O17 2.240 . S
Cd16 O24 2.223 . S
Cd16 O26 2.297 . S
Cd16 O27 2.439 . S
O17 Cd16 2.240 . S
O17 C22 1.279 . S
O18 Cd15 2.297 . S
O18 C20 1.247 . S
O19 Cd15 2.439 . S
O19 C20 1.208 . S
C20 O18 1.247 . S
C20 O19 1.208 . S
C21 O26 1.247 . S
C21 O27 1.208 . S
C22 O14 1.315 . S
C22 O17 1.279 . S
C23 O24 1.315 . S
C23 O25 1.279 . S
O24 Cd16 2.223 . S
O24 C23 1.315 . S
O25 Cd15 2.240 . S
O25 C23 1.279 . S
O26 Cd16 2.297 . S
O26 C21 1.247 . S
O27 Cd16 2.439 . S
O27 C21 1.208 . S
O28 Cd29 2.223 . S
O28 C36 1.315 . S
Cd29 O28 2.223 . S
Cd29 O32 2.297 . S
Cd29 O33 2.439 . S
Cd29 O39 2.240 . S
Cd30 O31 2.240 . S
Cd30 O38 2.223 . S
Cd30 O40 2.297 . S
Cd30 O41 2.439 . S
O31 Cd30 2.240 . S
O31 C36 1.279 . S
O32 Cd29 2.297 . S
O32 C34 1.247 . S
O33 Cd29 2.439 . S
O33 C34 1.208 . S
C34 O32 1.247 . S
C34 O33 1.208 . S
C35 O40 1.247 . S
C35 O41 1.208 . S
C36 O28 1.315 . S
C36 O31 1.279 . S
C37 O38 1.315 . S
C37 O39 1.279 . S
O38 Cd30 2.223 . S
O38 C37 1.315 . S
O39 Cd29 2.240 . S
O39 C37 1.279 . S
O40 Cd30 2.297 . S
O40 C35 1.247 . S
O41 Cd30 2.439 . S
O41 C35 1.208 . S
O42 Cd43 2.223 . S
O42 C50 1.315 . S
Cd43 O42 2.223 . S
Cd43 O46 2.297 . S
Cd43 O47 2.439 . S
Cd43 O53 2.240 . S
Cd44 O45 2.240 . S
Cd44 O52 2.223 . S
Cd44 O54 2.297 . S
Cd44 O55 2.439 . S
O45 Cd44 2.240 . S
O45 C50 1.279 . S
O46 Cd43 2.297 . S
O46 C48 1.247 . S
O47 Cd43 2.439 . S
O47 C48 1.208 . S
C48 O46 1.247 . S
C48 O47 1.208 . S
C49 O54 1.247 . S
C49 O55 1.208 . S
C50 O42 1.315 . S
C50 O45 1.279 . S
C51 O52 1.315 . S
C51 O53 1.279 . S
O52 Cd44 2.223 . S
O52 C51 1.315 . S
O53 Cd43 2.240 . S
O53 C51 1.279 . S
O54 Cd44 2.297 . S
O54 C49 1.247 . S
O55 Cd44 2.439 . S
O55 C49 1.208 . S
O56 Cd57 2.223 . S
O56 C64 1.315 . S
Cd57 O56 2.223 . S
Cd57 O60 2.297 . S
Cd57 O61 2.439 . S
Cd57 O67 2.240 . S
Cd58 O59 2.240 . S
Cd58 O66 2.223 . S
Cd58 O68 2.297 . S
Cd58 O69 2.439 . S
O59 Cd58 2.240 . S
O59 C64 1.279 . S
O60 Cd57 2.297 . S
O60 C62 1.247 . S
O61 Cd57 2.439 . S
O61 C62 1.208 . S
C62 O60 1.247 . S
C62 O61 1.208 . S
C63 O68 1.247 . S
C63 O69 1.208 . S
C64 O56 1.315 . S
C64 O59 1.279 . S
C65 O66 1.315 . S
C65 O67 1.279 . S
O66 Cd58 2.223 . S
O66 C65 1.315 . S
O67 Cd57 2.240 . S
O67 C65 1.279 . S
O68 Cd58 2.297 . S
O68 C63 1.247 . S
O69 Cd58 2.439 . S
O69 C63 1.208 . S
O70 Cd71 2.223 . S
O70 C78 1.315 . S
Cd71 O70 2.223 . S
Cd71 O74 2.297 . S
Cd71 O75 2.439 . S
Cd71 O81 2.240 . S
Cd72 O73 2.240 . S
Cd72 O80 2.223 . S
Cd72 O82 2.297 . S
Cd72 O83 2.439 . S
O73 Cd72 2.240 . S
O73 C78 1.279 . S
O74 Cd71 2.297 . S
O74 C76 1.247 . S
O75 Cd71 2.439 . S
O75 C76 1.208 . S
C76 O74 1.247 . S
C76 O75 1.208 . S
C77 O82 1.247 . S
C77 O83 1.208 . S
C78 O70 1.315 . S
C78 O73 1.279 . S
C79 O80 1.315 . S
C79 O81 1.279 . S
O80 Cd72 2.223 . S
O80 C79 1.315 . S
O81 Cd71 2.240 . S
O81 C79 1.279 . S
O82 Cd72 2.297 . S
O82 C77 1.247 . S
O83 Cd72 2.439 . S
O83 C77 1.208 . S
O84 Cd85 2.223 . S
O84 C92 1.315 . S
Cd85 O84 2.223 . S
Cd85 O88 2.297 . S
Cd85 O89 2.439 . S
Cd85 O95 2.240 . S
Cd86 O87 2.240 . S
Cd86 O94 2.223 . S
Cd86 O96 2.297 . S
Cd86 O97 2.439 . S
O87 Cd86 2.240 . S
O87 C92 1.279 . S
O88 Cd85 2.297 . S
O88 C90 1.247 . S
O89 Cd85 2.439 . S
O89 C90 1.208 . S
C90 O88 1.247 . S
C90 O89 1.208 . S
C91 O96 1.247 . S
C91 O97 1.208 . S
C92 O84 1.315 . S
C92 O87 1.279 . S
C93 O94 1.315 . S
C93 O95 1.279 . S
O94 Cd86 2.223 . S
O94 C93 1.315 . S
O95 Cd85 2.240 . S
O95 C93 1.279 . S
O96 Cd86 2.297 . S
O96 C91 1.247 . S
O97 Cd86 2.439 . S
O97 C91 1.208 . S
O98 Cd99 2.223 . S
O98 C106 1.315 . S
Cd99 O98 2.223 . S
Cd99 O102 2.297 . S
Cd99 O103 2.439 . S
Cd99 O109 2.240 1_455 S
Cd100 O101 2.240 . S
Cd100 O108 2.223 1_455 S
Cd100 O110 2.306 . S
Cd100 O111 2.439 . S
O101 Cd100 2.240 . S
O101 C106 1.279 . S
O102 Cd99 2.297 . S
O102 C104 1.247 . S
O103 Cd99 2.439 . S
O103 C104 1.208 . S
C104 O102 1.247 . S
C104 O103 1.208 . S
C105 O110 1.262 . S
C105 O111 1.208 . S
C106 O98 1.315 . S
C106 O101 1.279 . S
C107 O108 1.315 . S
C107 O109 1.279 . S
O108 Cd100 2.223 1_655 S
O108 C107 1.315 . S
O109 Cd99 2.240 1_655 S
O109 C107 1.279 . S
O110 Cd100 2.306 . S
O110 C105 1.262 . S
O111 Cd100 2.439 . S
O111 C105 1.208 . S
O112 Cd113 2.223 . S
O112 C120 1.315 . S
Cd113 O112 2.223 . S
Cd113 O116 2.297 . S
Cd113 O117 2.439 . S
Cd113 O123 2.240 . S
Cd114 O115 2.240 . S
Cd114 O122 2.223 1_545 S
Cd114 O124 2.297 . S
Cd114 O125 2.439 . S
O115 Cd114 2.240 . S
O115 C120 1.279 . S
O116 Cd113 2.297 . S
O116 C118 1.247 . S
O117 Cd113 2.439 . S
O117 C118 1.208 . S
C118 O116 1.247 . S
C118 O117 1.208 . S
C119 O124 1.247 . S
C119 O125 1.208 . S
C120 O112 1.315 . S
C120 O115 1.279 . S
C121 O122 1.315 . S
C121 O123 1.279 1_565 S
O122 Cd114 2.223 1_565 S
O122 C121 1.315 . S
O123 Cd113 2.240 . S
O123 C121 1.279 1_545 S
O124 Cd114 2.297 . S
O124 C119 1.247 . S
O125 Cd114 2.439 . S
O125 C119 1.208 . S
O126 Cd127 2.223 . S
O126 C134 1.315 . S
Cd127 O126 2.223 . S
Cd127 O130 2.297 . S
Cd127 O131 2.439 . S
Cd127 O137 2.240 . S
Cd128 O129 2.240 . S
Cd128 O136 2.223 . S
Cd128 O138 2.297 . S
Cd128 O139 2.439 . S
O129 Cd128 2.240 . S
O129 C134 1.279 . S
O130 Cd127 2.297 . S
O130 C132 1.247 . S
O131 Cd127 2.439 . S
O131 C132 1.208 . S
C132 O130 1.247 . S
C132 O131 1.208 . S
C133 O138 1.247 . S
C133 O139 1.208 . S
C134 O126 1.315 . S
C134 O129 1.279 . S
C135 O136 1.315 . S
C135 O137 1.279 . S
O136 Cd128 2.223 . S
O136 C135 1.315 . S
O137 Cd127 2.240 . S
O137 C135 1.279 . S
O138 Cd128 2.297 . S
O138 C133 1.247 . S
O139 Cd128 2.439 . S
O139 C133 1.208 . S
O140 Cd141 2.223 . S
O140 C148 1.315 . S
Cd141 O140 2.223 . S
Cd141 O144 2.297 1_545 S
Cd141 O145 2.439 1_545 S
Cd141 O151 2.240 . S
Cd142 O143 2.240 . S
Cd142 O150 2.223 . S
Cd142 O152 2.297 . S
Cd142 O153 2.439 . S
O143 Cd142 2.240 . S
O143 C148 1.279 . S
O144 Cd141 2.297 1_565 S
O144 C146 1.247 . S
O145 Cd141 2.439 1_565 S
O145 C146 1.208 . S
C146 O144 1.247 . S
C146 O145 1.208 . S
C147 O152 1.247 . S
C147 O153 1.208 . S
C148 O140 1.315 . S
C148 O143 1.279 . S
C149 O150 1.315 . S
C149 O151 1.279 . S
O150 Cd142 2.223 . S
O150 C149 1.315 . S
O151 Cd141 2.240 . S
O151 C149 1.279 . S
O152 Cd142 2.297 . S
O152 C147 1.247 . S
O153 Cd142 2.439 . S
O153 C147 1.208 . S
O154 Cd155 2.223 . S
O154 C162 1.315 . S
Cd155 O154 2.223 . S
Cd155 O158 2.297 . S
Cd155 O159 2.439 1_554 S
Cd155 O165 2.216 1_554 S
Cd156 O157 2.240 1_556 S
Cd156 O164 2.223 1_556 S
Cd156 O166 2.297 . S
Cd156 O167 2.439 . S
O157 Cd156 2.240 1_554 S
O157 C162 1.279 . S
O158 Cd155 2.297 . S
O158 C160 1.247 . S
O159 Cd155 2.439 1_556 S
O159 C160 1.208 1_556 S
C160 O158 1.247 . S
C160 O159 1.208 1_554 S
C161 O166 1.247 . S
C161 O167 1.208 . S
C162 O154 1.315 . S
C162 O157 1.279 . S
C163 O164 1.315 . S
C163 O165 1.268 1_554 S
O164 Cd156 2.223 1_554 S
O164 C163 1.315 . S
O165 Cd155 2.216 1_556 S
O165 C163 1.268 1_556 S
O166 Cd156 2.297 . S
O166 C161 1.247 . S
O167 Cd156 2.439 . S
O167 C161 1.208 . S
O168 Cd169 2.223 . S
O168 C176 1.315 . S
Cd169 O168 2.223 . S
Cd169 O172 2.297 . S
Cd169 O173 2.439 . S
Cd169 O179 2.240 . S
Cd170 O171 2.240 . S
Cd170 O178 2.223 . S
Cd170 O180 2.297 . S
Cd170 O181 2.439 . S
O171 Cd170 2.240 . S
O171 C176 1.279 . S
O172 Cd169 2.297 . S
O172 C174 1.247 . S
O173 Cd169 2.439 . S
O173 C174 1.208 . S
C174 O172 1.247 . S
C174 O173 1.208 . S
C175 O180 1.247 . S
C175 O181 1.208 . S
C176 O168 1.315 . S
C176 O171 1.279 . S
C177 O178 1.315 . S
C177 O179 1.279 . S
O178 Cd170 2.223 . S
O178 C177 1.315 . S
O179 Cd169 2.240 . S
O179 C177 1.279 . S
O180 Cd170 2.297 . S
O180 C175 1.247 . S
O181 Cd170 2.439 . S
O181 C175 1.208 . S
O182 Cd183 2.223 . S
O182 C190 1.315 . S
Cd183 O182 2.223 . S
Cd183 O186 2.297 . S
Cd183 O187 2.439 . S
Cd183 O193 2.240 . S
Cd184 O185 2.240 . S
Cd184 O192 2.223 . S
Cd184 O194 2.297 . S
Cd184 O195 2.439 . S
O185 Cd184 2.240 . S
O185 C190 1.279 . S
O186 Cd183 2.297 . S
O186 C188 1.247 . S
O187 Cd183 2.439 . S
O187 C188 1.208 . S
C188 O186 1.247 . S
C188 O187 1.208 . S
C189 O194 1.247 . S
C189 O195 1.208 . S
C190 O182 1.315 . S
C190 O185 1.279 . S
C191 O192 1.315 . S
C191 O193 1.279 . S
O192 Cd184 2.223 . S
O192 C191 1.315 . S
O193 Cd183 2.240 . S
O193 C191 1.279 . S
O194 Cd184 2.297 . S
O194 C189 1.247 . S
O195 Cd184 2.439 . S
O195 C189 1.208 . S
O196 Cd197 2.223 . S
O196 C204 1.315 . S
Cd197 O196 2.223 . S
Cd197 O200 2.297 . S
Cd197 O201 2.439 . S
Cd197 O207 2.240 . S
Cd198 O199 2.240 . S
Cd198 O206 2.223 . S
Cd198 O208 2.297 . S
Cd198 O209 2.439 . S
O199 Cd198 2.240 . S
O199 C204 1.279 . S
O200 Cd197 2.297 . S
O200 C202 1.247 . S
O201 Cd197 2.439 . S
O201 C202 1.208 . S
C202 O200 1.247 . S
C202 O201 1.208 . S
C203 O208 1.247 . S
C203 O209 1.208 . S
C204 O196 1.315 . S
C204 O199 1.279 . S
C205 O206 1.315 . S
C205 O207 1.279 . S
O206 Cd198 2.223 . S
O206 C205 1.315 . S
O207 Cd197 2.240 . S
O207 C205 1.279 . S
O208 Cd198 2.297 . S
O208 C203 1.247 . S
O209 Cd198 2.439 . S
O209 C203 1.208 . S
O210 Cd211 2.223 . S
O210 C218 1.315 . S
Cd211 O210 2.223 . S
Cd211 O214 2.297 . S
Cd211 O215 2.439 . S
Cd211 O221 2.240 . S
Cd212 O213 2.240 . S
Cd212 O220 2.223 . S
Cd212 O222 2.297 . S
Cd212 O223 2.439 . S
O213 Cd212 2.240 . S
O213 C218 1.279 . S
O214 Cd211 2.297 . S
O214 C216 1.247 . S
O215 Cd211 2.439 . S
O215 C216 1.208 . S
C216 O214 1.247 . S
C216 O215 1.208 . S
C217 O222 1.247 . S
C217 O223 1.208 . S
C218 O210 1.315 . S
C218 O213 1.279 . S
C219 O220 1.315 . S
C219 O221 1.279 . S
O220 Cd212 2.223 . S
O220 C219 1.315 . S
O221 Cd211 2.240 . S
O221 C219 1.279 . S
O222 Cd212 2.297 . S
O222 C217 1.247 . S
O223 Cd212 2.439 . S
O223 C217 1.208 . S
O224 Cd225 2.229 . S
O224 C232 1.315 . S
Cd225 O224 2.229 . S
Cd225 O228 2.275 1_565 S
Cd225 O229 2.420 1_565 S
Cd225 O235 2.260 . S
Cd226 O227 2.240 1_565 S
Cd226 O234 2.223 . S
Cd226 O236 2.297 . S
Cd226 O237 2.439 1_565 S
O227 Cd226 2.240 1_545 S
O227 C232 1.279 1_545 S
O228 Cd225 2.275 1_545 S
O228 C230 1.247 . S
O229 Cd225 2.420 1_545 S
O229 C230 1.208 . S
C230 O228 1.247 . S
C230 O229 1.208 . S
C231 O236 1.211 1_545 S
C231 O237 1.244 . S
C232 O224 1.315 . S
C232 O227 1.279 1_565 S
C233 O234 1.315 . S
C233 O235 1.279 . S
O234 Cd226 2.223 . S
O234 C233 1.315 . S
O235 Cd225 2.260 . S
O235 C233 1.279 . S
O236 Cd226 2.297 . S
O236 C231 1.211 1_565 S
O237 Cd226 2.439 1_545 S
O237 C231 1.244 . S
O238 Cd239 2.223 . S
O238 C246 1.315 . S
Cd239 O238 2.223 . S
Cd239 O242 2.297 . S
Cd239 O243 2.439 . S
Cd239 O249 2.240 . S
Cd240 O241 2.240 . S
Cd240 O248 2.223 . S
Cd240 O250 2.297 . S
Cd240 O251 2.439 . S
O241 Cd240 2.240 . S
O241 C246 1.279 . S
O242 Cd239 2.297 . S
O242 C244 1.247 . S
O243 Cd239 2.439 . S
O243 C244 1.208 . S
C244 O242 1.247 . S
C244 O243 1.208 . S
C245 O250 1.247 . S
C245 O251 1.208 . S
C246 O238 1.315 . S
C246 O241 1.279 . S
C247 O248 1.315 . S
C247 O249 1.279 . S
O248 Cd240 2.223 . S
O248 C247 1.315 . S
O249 Cd239 2.240 . S
O249 C247 1.279 . S
O250 Cd240 2.297 . S
O250 C245 1.247 . S
O251 Cd240 2.439 . S
O251 C245 1.208 . S
O252 Cd253 2.223 . S
O252 C260 1.315 . S
Cd253 O252 2.223 . S
Cd253 O256 2.297 . S
Cd253 O257 2.439 . S
Cd253 O263 2.240 . S
Cd254 O255 2.240 . S
Cd254 O262 2.223 . S
Cd254 O264 2.297 . S
Cd254 O265 2.439 . S
O255 Cd254 2.240 . S
O255 C260 1.279 . S
O256 Cd253 2.297 . S
O256 C258 1.247 . S
O257 Cd253 2.439 . S
O257 C258 1.208 . S
C258 O256 1.247 . S
C258 O257 1.208 . S
C259 O264 1.247 . S
C259 O265 1.208 . S
C260 O252 1.315 . S
C260 O255 1.279 . S
C261 O262 1.315 . S
C261 O263 1.279 . S
O262 Cd254 2.223 . S
O262 C261 1.315 . S
O263 Cd253 2.240 . S
O263 C261 1.279 . S
O264 Cd254 2.297 . S
O264 C259 1.247 . S
O265 Cd254 2.439 . S
O265 C259 1.208 . S
O266 Cd267 2.223 . S
O266 C274 1.315 . S
Cd267 O266 2.223 . S
Cd267 O270 2.297 1_545 S
Cd267 O271 2.439 1_545 S
Cd267 O277 2.240 . S
Cd268 O269 2.240 . S
Cd268 O276 2.223 . S
Cd268 O278 2.297 . S
Cd268 O279 2.439 . S
O269 Cd268 2.240 . S
O269 C274 1.279 . S
O270 Cd267 2.297 1_565 S
O270 C272 1.247 . S
O271 Cd267 2.439 1_565 S
O271 C272 1.208 . S
C272 O270 1.247 . S
C272 O271 1.208 . S
C273 O278 1.247 . S
C273 O279 1.208 . S
C274 O266 1.315 . S
C274 O269 1.279 . S
C275 O276 1.315 . S
C275 O277 1.279 . S
O276 Cd268 2.223 . S
O276 C275 1.315 . S
O277 Cd267 2.240 . S
O277 C275 1.279 . S
O278 Cd268 2.297 . S
O278 C273 1.247 . S
O279 Cd268 2.439 . S
O279 C273 1.208 . S
O280 Cd281 2.223 . S
O280 C288 1.315 . S
Cd281 O280 2.223 . S
Cd281 O284 2.297 . S
Cd281 O285 2.439 . S
Cd281 O291 2.240 . S
Cd282 O283 2.240 . S
Cd282 O290 2.223 . S
Cd282 O292 2.297 . S
Cd282 O293 2.439 . S
O283 Cd282 2.240 . S
O283 C288 1.279 . S
O284 Cd281 2.297 . S
O284 C286 1.247 . S
O285 Cd281 2.439 . S
O285 C286 1.208 . S
C286 O284 1.247 . S
C286 O285 1.208 . S
C287 O292 1.247 . S
C287 O293 1.208 . S
C288 O280 1.315 . S
C288 O283 1.279 . S
C289 O290 1.315 . S
C289 O291 1.279 . S
O290 Cd282 2.223 . S
O290 C289 1.315 . S
O291 Cd281 2.240 . S
O291 C289 1.279 . S
O292 Cd282 2.297 . S
O292 C287 1.247 . S
O293 Cd282 2.439 . S
O293 C287 1.208 . S
O294 Cd295 2.223 . S
O294 C302 1.315 . S
Cd295 O294 2.223 . S
Cd295 O298 2.297 . S
Cd295 O299 2.439 . S
Cd295 O305 2.240 . S
Cd296 O297 2.240 . S
Cd296 O304 2.223 . S
Cd296 O306 2.297 . S
Cd296 O307 2.439 . S
O297 Cd296 2.240 . S
O297 C302 1.279 . S
O298 Cd295 2.297 . S
O298 C300 1.247 . S
O299 Cd295 2.439 . S
O299 C300 1.208 . S
C300 O298 1.247 . S
C300 O299 1.208 . S
C301 O306 1.247 . S
C301 O307 1.208 . S
C302 O294 1.315 . S
C302 O297 1.279 . S
C303 O304 1.315 . S
C303 O305 1.279 . S
O304 Cd296 2.223 . S
O304 C303 1.315 . S
O305 Cd295 2.240 . S
O305 C303 1.279 . S
O306 Cd296 2.297 . S
O306 C301 1.247 . S
O307 Cd296 2.439 . S
O307 C301 1.208 . S
O308 Cd309 2.223 . S
O308 C316 1.315 . S
Cd309 O308 2.223 . S
Cd309 O312 2.297 . S
Cd309 O313 2.439 . S
Cd309 O319 2.240 . S
Cd310 O311 2.240 . S
Cd310 O318 2.223 . S
Cd310 O320 2.297 . S
Cd310 O321 2.439 . S
O311 Cd310 2.240 . S
O311 C316 1.279 . S
O312 Cd309 2.297 . S
O312 C314 1.247 . S
O313 Cd309 2.439 . S
O313 C314 1.208 . S
C314 O312 1.247 . S
C314 O313 1.208 . S
C315 O320 1.247 . S
C315 O321 1.208 . S
C316 O308 1.315 . S
C316 O311 1.279 . S
C317 O318 1.315 . S
C317 O319 1.279 . S
O318 Cd310 2.223 . S
O318 C317 1.315 . S
O319 Cd309 2.240 . S
O319 C317 1.279 . S
O320 Cd310 2.297 . S
O320 C315 1.247 . S
O321 Cd310 2.439 . S
O321 C315 1.208 . S
O322 Cd323 2.223 . S
O322 C330 1.315 . S
Cd323 O322 2.223 . S
Cd323 O326 2.297 . S
Cd323 O327 2.439 . S
Cd323 O333 2.240 . S
Cd324 O325 2.240 . S
Cd324 O332 2.223 . S
Cd324 O334 2.297 . S
Cd324 O335 2.439 . S
O325 Cd324 2.240 . S
O325 C330 1.279 . S
O326 Cd323 2.297 . S
O326 C328 1.247 . S
O327 Cd323 2.439 . S
O327 C328 1.208 . S
C328 O326 1.247 . S
C328 O327 1.208 . S
C329 O334 1.247 . S
C329 O335 1.208 . S
C330 O322 1.315 . S
C330 O325 1.279 . S
C331 O332 1.315 . S
C331 O333 1.279 . S
O332 Cd324 2.223 . S
O332 C331 1.315 . S
O333 Cd323 2.240 . S
O333 C331 1.279 . S
O334 Cd324 2.297 . S
O334 C329 1.247 . S
O335 Cd324 2.439 . S
O335 C329 1.208 . S
Tb336 C338 2.809 1_455 S
Tb336 O356 2.484 1_455 S
Tb336 O357 2.440 1_455 S
Tb336 O358 2.658 . S
Tb336 O359 2.409 . S
Tb336 O360 2.378 . S
Tb336 O364 2.325 . S
Tb336 O367 2.341 1_545 S
Tb337 C347 2.809 . S
Tb337 O358 2.325 . S
Tb337 O361 2.341 . S
Tb337 O362 2.484 . S
Tb337 O363 2.440 . S
Tb337 O364 2.658 . S
Tb337 O365 2.409 . S
Tb337 O366 2.378 . S
C338 Tb336 2.809 1_655 S
C338 C339 1.514 . S
C338 O356 1.248 . S
C338 O357 1.266 . S
C339 C338 1.514 . S
C339 C340 1.359 . S
C339 C344 1.348 . S
C340 C339 1.359 . S
C340 C341 1.380 . S
C340 H368 0.929 . S
C341 C340 1.380 . S
C341 C342 1.347 . S
C341 H369 0.931 . S
C342 C341 1.347 . S
C342 C343 1.369 . S
C343 C342 1.369 . S
C343 C344 1.408 . S
C343 H370 0.946 . S
C344 C339 1.348 . S
C344 C343 1.408 . S
C344 H371 0.930 . S
C345 O358 1.281 . S
C345 O359 1.254 . S
C346 O360 1.236 . S
C346 O361 1.266 . S
C347 Tb337 2.809 . S
C347 C348 1.514 . S
C347 O362 1.248 . S
C347 O363 1.266 . S
C348 C347 1.514 . S
C348 C349 1.359 1_545 S
C348 C353 1.348 . S
C349 C348 1.359 1_565 S
C349 C350 1.380 . S
C349 H372 0.929 . S
C350 C349 1.380 . S
C350 C351 1.347 . S
C350 H373 0.931 . S
C351 C350 1.347 . S
C351 C352 1.369 . S
C352 C351 1.369 . S
C352 C353 1.408 1_565 S
C352 H374 0.930 . S
C353 C348 1.348 . S
C353 C352 1.408 1_545 S
C353 H375 0.930 . S
C354 O364 1.281 . S
C354 O365 1.254 . S
C355 O366 1.236 1_565 S
C355 O367 1.266 . S
O356 Tb336 2.484 1_655 S
O356 C338 1.248 . S
O357 Tb336 2.440 1_655 S
O357 C338 1.266 . S
O358 Tb336 2.658 . S
O358 Tb337 2.325 . S
O358 C345 1.281 . S
O359 Tb336 2.409 . S
O359 C345 1.254 . S
O360 Tb336 2.378 . S
O360 C346 1.236 . S
O361 Tb337 2.341 . S
O361 C346 1.266 . S
O362 Tb337 2.484 . S
O362 C347 1.248 . S
O363 Tb337 2.440 . S
O363 C347 1.266 . S
O364 Tb336 2.325 . S
O364 Tb337 2.658 . S
O364 C354 1.281 . S
O365 Tb337 2.409 . S
O365 C354 1.254 . S
O366 Tb337 2.378 . S
O366 C355 1.236 1_545 S
O367 Tb336 2.341 1_565 S
O367 C355 1.266 . S
H368 C340 0.929 . S
H369 C341 0.931 . S
H370 C343 0.946 . S
H371 C344 0.930 . S
H372 C349 0.929 . S
H373 C350 0.931 . S
H374 C352 0.930 . S
H375 C353 0.930 . S
Tb376 C378 2.809 . S
Tb376 O396 2.484 . S
Tb376 O397 2.440 . S
Tb376 O398 2.658 . S
Tb376 O399 2.409 . S
Tb376 O400 2.378 . S
Tb376 O404 2.325 . S
Tb376 O407 2.341 . S
Tb377 C387 2.809 . S
Tb377 O398 2.325 . S
Tb377 O401 2.341 . S
Tb377 O402 2.484 . S
Tb377 O403 2.440 . S
Tb377 O404 2.658 . S
Tb377 O405 2.409 . S
Tb377 O406 2.378 . S
C378 Tb376 2.809 . S
C378 C379 1.514 . S
C378 O396 1.248 . S
C378 O397 1.266 . S
C379 C378 1.514 . S
C379 C380 1.359 . S
C379 C384 1.348 . S
C380 C379 1.359 . S
C380 C381 1.380 . S
C380 H408 0.929 . S
C381 C380 1.380 . S
C381 C382 1.347 . S
C381 H409 0.931 . S
C382 C381 1.347 . S
C382 C383 1.369 . S
C383 C382 1.369 . S
C383 C384 1.408 . S
C383 H410 0.930 . S
C384 C379 1.348 . S
C384 C383 1.408 . S
C384 H411 0.930 . S
C385 O398 1.281 . S
C385 O399 1.254 . S
C386 O400 1.236 . S
C386 O401 1.266 . S
C387 Tb377 2.809 . S
C387 C388 1.514 . S
C387 O402 1.248 . S
C387 O403 1.266 . S
C388 C387 1.514 . S
C388 C389 1.359 . S
C388 C393 1.348 . S
C389 C388 1.359 . S
C389 C390 1.380 . S
C389 H412 0.929 . S
C390 C389 1.380 . S
C390 C391 1.347 . S
C390 H413 0.931 . S
C391 C390 1.347 . S
C391 C392 1.369 . S
C392 C391 1.369 . S
C392 C393 1.408 . S
C392 H414 0.930 . S
C393 C388 1.348 . S
C393 C392 1.408 . S
C393 H415 0.930 . S
C394 O404 1.281 . S
C394 O405 1.254 . S
C395 O406 1.236 . S
C395 O407 1.266 . S
O396 Tb376 2.484 . S
O396 C378 1.248 . S
O397 Tb376 2.440 . S
O397 C378 1.266 . S
O398 Tb376 2.658 . S
O398 Tb377 2.325 . S
O398 C385 1.281 . S
O399 Tb376 2.409 . S
O399 C385 1.254 . S
O400 Tb376 2.378 . S
O400 C386 1.236 . S
O401 Tb377 2.341 . S
O401 C386 1.266 . S
O402 Tb377 2.484 . S
O402 C387 1.248 . S
O403 Tb377 2.440 . S
O403 C387 1.266 . S
O404 Tb376 2.325 . S
O404 Tb377 2.658 . S
O404 C394 1.281 . S
O405 Tb377 2.409 . S
O405 C394 1.254 . S
O406 Tb377 2.378 . S
O406 C395 1.236 . S
O407 Tb376 2.341 . S
O407 C395 1.266 . S
H408 C380 0.929 . S
H409 C381 0.931 . S
H410 C383 0.930 . S
H411 C384 0.930 . S
H412 C389 0.929 . S
H413 C390 0.931 . S
H414 C392 0.930 . S
H415 C393 0.930 . S
Tb416 C418 2.809 . S
Tb416 O436 2.484 . S
Tb416 O437 2.440 . S
Tb416 O438 2.658 . S
Tb416 O439 2.409 . S
Tb416 O440 2.378 1_545 S
Tb416 O444 2.325 . S
Tb416 O447 2.341 . S
Tb417 C427 2.809 . S
Tb417 O438 2.325 . S
Tb417 O441 2.341 1_545 S
Tb417 O442 2.484 . S
Tb417 O443 2.440 . S
Tb417 O444 2.658 . S
Tb417 O445 2.409 . S
Tb417 O446 2.378 . S
C418 Tb416 2.809 . S
C418 C419 1.514 1_545 S
C418 O436 1.248 . S
C418 O437 1.266 . S
C419 C418 1.514 1_565 S
C419 C420 1.359 . S
C419 C424 1.348 . S
C420 C419 1.359 . S
C420 C421 1.380 . S
C420 H448 0.929 . S
C421 C420 1.380 . S
C421 C422 1.347 . S
C421 H449 0.931 . S
C422 C421 1.347 . S
C422 C423 1.369 . S
C423 C422 1.369 . S
C423 C424 1.408 . S
C423 H450 0.930 . S
C424 C419 1.348 . S
C424 C423 1.408 . S
C424 H451 0.930 . S
C425 O438 1.281 . S
C425 O439 1.254 . S
C426 O440 1.236 . S
C426 O441 1.266 . S
C427 Tb417 2.809 . S
C427 C428 1.514 . S
C427 O442 1.248 . S
C427 O443 1.266 . S
C428 C427 1.514 . S
C428 C429 1.359 . S
C428 C433 1.348 . S
C429 C428 1.359 . S
C429 C430 1.380 . S
C429 H452 0.929 . S
C430 C429 1.380 . S
C430 C431 1.347 . S
C430 H453 0.931 . S
C431 C430 1.347 . S
C431 C432 1.369 . S
C432 C431 1.369 . S
C432 C433 1.408 . S
C432 H454 0.930 . S
C433 C428 1.348 . S
C433 C432 1.408 . S
C433 H455 0.930 . S
C434 O444 1.281 . S
C434 O445 1.254 . S
C435 O446 1.236 . S
C435 O447 1.266 . S
O436 Tb416 2.484 . S
O436 C418 1.248 . S
O437 Tb416 2.440 . S
O437 C418 1.266 . S
O438 Tb416 2.658 . S
O438 Tb417 2.325 . S
O438 C425 1.281 . S
O439 Tb416 2.409 . S
O439 C425 1.254 . S
O440 Tb416 2.378 1_565 S
O440 C426 1.236 . S
O441 Tb417 2.341 1_565 S
O441 C426 1.266 . S
O442 Tb417 2.484 . S
O442 C427 1.248 . S
O443 Tb417 2.440 . S
O443 C427 1.266 . S
O444 Tb416 2.325 . S
O444 Tb417 2.658 . S
O444 C434 1.281 . S
O445 Tb417 2.409 . S
O445 C434 1.254 . S
O446 Tb417 2.378 . S
O446 C435 1.236 . S
O447 Tb416 2.341 . S
O447 C435 1.266 . S
H448 C420 0.929 . S
H449 C421 0.931 . S
H450 C423 0.930 . S
H451 C424 0.930 . S
H452 C429 0.929 . S
H453 C430 0.931 . S
H454 C432 0.930 . S
H455 C433 0.930 . S
Tb456 C458 2.809 . S
Tb456 O476 2.484 . S
Tb456 O477 2.440 . S
Tb456 O478 2.658 . S
Tb456 O479 2.409 . S
Tb456 O480 2.378 . S
Tb456 O484 2.325 . S
Tb456 O487 2.341 . S
Tb457 C467 2.809 . S
Tb457 O478 2.325 . S
Tb457 O481 2.341 . S
Tb457 O482 2.484 . S
Tb457 O483 2.440 . S
Tb457 O484 2.658 . S
Tb457 O485 2.409 . S
Tb457 O486 2.378 . S
C458 Tb456 2.809 . S
C458 C459 1.514 . S
C458 O476 1.248 . S
C458 O477 1.266 . S
C459 C458 1.514 . S
C459 C460 1.359 . S
C459 C464 1.348 . S
C460 C459 1.359 . S
C460 C461 1.380 . S
C460 H488 0.929 . S
C461 C460 1.380 . S
C461 C462 1.347 . S
C461 H489 0.931 . S
C462 C461 1.347 . S
C462 C463 1.369 . S
C463 C462 1.369 . S
C463 C464 1.408 . S
C463 H490 0.930 . S
C464 C459 1.348 . S
C464 C463 1.408 . S
C464 H491 0.930 . S
C465 O478 1.281 . S
C465 O479 1.254 . S
C466 O480 1.236 . S
C466 O481 1.266 . S
C467 Tb457 2.809 . S
C467 C468 1.514 . S
C467 O482 1.248 . S
C467 O483 1.266 . S
C468 C467 1.514 . S
C468 C469 1.359 . S
C468 C473 1.348 . S
C469 C468 1.359 . S
C469 C470 1.380 . S
C469 H492 0.929 . S
C470 C469 1.380 . S
C470 C471 1.347 . S
C470 H493 0.931 . S
C471 C470 1.347 . S
C471 C472 1.369 . S
C472 C471 1.369 . S
C472 C473 1.408 . S
C472 H494 0.930 . S
C473 C468 1.348 . S
C473 C472 1.408 . S
C473 H495 0.930 . S
C474 O484 1.281 . S
C474 O485 1.254 . S
C475 O486 1.236 . S
C475 O487 1.266 . S
O476 Tb456 2.484 . S
O476 C458 1.248 . S
O477 Tb456 2.440 . S
O477 C458 1.266 . S
O478 Tb456 2.658 . S
O478 Tb457 2.325 . S
O478 C465 1.281 . S
O479 Tb456 2.409 . S
O479 C465 1.254 . S
O480 Tb456 2.378 . S
O480 C466 1.236 . S
O481 Tb457 2.341 . S
O481 C466 1.266 . S
O482 Tb457 2.484 . S
O482 C467 1.248 . S
O483 Tb457 2.440 . S
O483 C467 1.266 . S
O484 Tb456 2.325 . S
O484 Tb457 2.658 . S
O484 C474 1.281 . S
O485 Tb457 2.409 . S
O485 C474 1.254 . S
O486 Tb457 2.378 . S
O486 C475 1.236 . S
O487 Tb456 2.341 . S
O487 C475 1.266 . S
H488 C460 0.929 . S
H489 C461 0.931 . S
H490 C463 0.930 . S
H491 C464 0.930 . S
H492 C469 0.929 . S
H493 C470 0.931 . S
H494 C472 0.930 . S
H495 C473 0.930 . S
Tb496 C498 2.809 . S
Tb496 O516 2.484 . S
Tb496 O517 2.440 . S
Tb496 O518 2.658 . S
Tb496 O519 2.407 . S
Tb496 O520 2.378 . S
Tb496 O524 2.325 . S
Tb496 O527 2.341 . S
Tb497 C507 2.809 . S
Tb497 O518 2.325 1_565 S
Tb497 O521 2.341 1_565 S
Tb497 O522 2.484 . S
Tb497 O523 2.440 . S
Tb497 O524 2.658 1_565 S
Tb497 O525 2.409 1_565 S
Tb497 O526 2.378 1_565 S
C498 Tb496 2.809 . S
C498 C499 1.514 . S
C498 O516 1.248 . S
C498 O517 1.266 . S
C499 C498 1.514 . S
C499 C500 1.359 . S
C499 C504 1.348 . S
C500 C499 1.359 . S
C500 C501 1.380 . S
C500 H528 0.929 . S
C501 C500 1.380 . S
C501 C502 1.347 . S
C501 H529 0.931 . S
C502 C501 1.347 . S
C502 C503 1.369 1_455 S
C503 C502 1.369 1_655 S
C503 C504 1.408 1_655 S
C503 H530 0.930 . S
C504 C499 1.348 . S
C504 C503 1.408 1_455 S
C504 H531 0.930 1_455 S
C505 O518 1.281 . S
C505 O519 1.253 . S
C506 O520 1.236 . S
C506 O521 1.266 . S
C507 Tb497 2.809 . S
C507 C508 1.514 . S
C507 O522 1.248 . S
C507 O523 1.266 . S
C508 C507 1.514 . S
C508 C509 1.359 . S
C508 C513 1.348 . S
C509 C508 1.359 . S
C509 C510 1.380 . S
C509 H532 0.929 . S
C510 C509 1.380 . S
C510 C511 1.347 . S
C510 H533 0.931 . S
C511 C510 1.347 . S
C511 C512 1.369 . S
C512 C511 1.369 . S
C512 C513 1.408 . S
C512 H534 0.930 . S
C513 C508 1.348 . S
C513 C512 1.408 . S
C513 H535 0.930 . S
C514 O524 1.281 . S
C514 O525 1.254 . S
C515 O526 1.236 . S
C515 O527 1.266 . S
O516 Tb496 2.484 . S
O516 C498 1.248 . S
O517 Tb496 2.440 . S
O517 C498 1.266 . S
O518 Tb496 2.658 . S
O518 Tb497 2.325 1_545 S
O518 C505 1.281 . S
O519 Tb496 2.407 . S
O519 C505 1.253 . S
O520 Tb496 2.378 . S
O520 C506 1.236 . S
O521 Tb497 2.341 1_545 S
O521 C506 1.266 . S
O522 Tb497 2.484 . S
O522 C507 1.248 . S
O523 Tb497 2.440 . S
O523 C507 1.266 . S
O524 Tb496 2.325 . S
O524 Tb497 2.658 1_545 S
O524 C514 1.281 . S
O525 Tb497 2.409 1_545 S
O525 C514 1.254 . S
O526 Tb497 2.378 1_545 S
O526 C515 1.236 . S
O527 Tb496 2.341 . S
O527 C515 1.266 . S
H528 C500 0.929 . S
H529 C501 0.931 . S
H530 C503 0.930 . S
H531 C504 0.930 1_655 S
H532 C509 0.929 . S
H533 C510 0.931 . S
H534 C512 0.930 . S
H535 C513 0.930 . S
Tb536 C538 2.809 . S
Tb536 O556 2.484 . S
Tb536 O557 2.440 . S
Tb536 O558 2.658 . S
Tb536 O559 2.409 . S
Tb536 O560 2.378 . S
Tb536 O564 2.325 . S
Tb536 O567 2.341 . S
Tb537 C547 2.809 . S
Tb537 O558 2.325 . S
Tb537 O561 2.341 . S
Tb537 O562 2.484 . S
Tb537 O563 2.440 . S
Tb537 O564 2.658 . S
Tb537 O565 2.409 . S
Tb537 O566 2.378 . S
C538 Tb536 2.809 . S
C538 C539 1.514 . S
C538 O556 1.248 . S
C538 O557 1.266 . S
C539 C538 1.514 . S
C539 C540 1.359 . S
C539 C544 1.348 . S
C540 C539 1.359 . S
C540 C541 1.380 . S
C540 H568 0.929 . S
C541 C540 1.380 . S
C541 C542 1.347 . S
C541 H569 0.931 . S
C542 C541 1.347 . S
C542 C543 1.369 . S
C543 C542 1.369 . S
C543 C544 1.408 . S
C543 H570 0.930 . S
C544 C539 1.348 . S
C544 C543 1.408 . S
C544 H571 0.930 . S
C545 O558 1.281 . S
C545 O559 1.254 . S
C546 O560 1.236 . S
C546 O561 1.266 . S
C547 Tb537 2.809 . S
C547 C548 1.514 . S
C547 O562 1.248 . S
C547 O563 1.266 . S
C548 C547 1.514 . S
C548 C549 1.359 . S
C548 C553 1.348 . S
C549 C548 1.359 . S
C549 C550 1.380 . S
C549 H572 0.929 . S
C550 C549 1.380 . S
C550 C551 1.347 . S
C550 H573 0.931 . S
C551 C550 1.347 . S
C551 C552 1.369 . S
C552 C551 1.369 . S
C552 C553 1.408 . S
C552 H574 0.930 . S
C553 C548 1.348 . S
C553 C552 1.408 . S
C553 H575 0.930 . S
C554 O564 1.281 . S
C554 O565 1.254 . S
C555 O566 1.236 . S
C555 O567 1.266 . S
O556 Tb536 2.484 . S
O556 C538 1.248 . S
O557 Tb536 2.440 . S
O557 C538 1.266 . S
O558 Tb536 2.658 . S
O558 Tb537 2.325 . S
O558 C545 1.281 . S
O559 Tb536 2.409 . S
O559 C545 1.254 . S
O560 Tb536 2.378 . S
O560 C546 1.236 . S
O561 Tb537 2.341 . S
O561 C546 1.266 . S
O562 Tb537 2.484 . S
O562 C547 1.248 . S
O563 Tb537 2.440 . S
O563 C547 1.266 . S
O564 Tb536 2.325 . S
O564 Tb537 2.658 . S
O564 C554 1.281 . S
O565 Tb537 2.409 . S
O565 C554 1.254 . S
O566 Tb537 2.378 . S
O566 C555 1.236 . S
O567 Tb536 2.341 . S
O567 C555 1.266 . S
H568 C540 0.929 . S
H569 C541 0.931 . S
H570 C543 0.930 . S
H571 C544 0.930 . S
H572 C549 0.929 . S
H573 C550 0.931 . S
H574 C552 0.930 . S
H575 C553 0.930 . S
Tb576 C578 2.809 1_545 S
Tb576 O596 2.484 1_545 S
Tb576 O597 2.440 . S
Tb576 O598 2.658 . S
Tb576 O599 2.409 . S
Tb576 O600 2.378 . S
Tb576 O604 2.325 1_545 S
Tb576 O607 2.341 . S
Tb577 C587 2.809 . S
Tb577 O598 2.325 . S
Tb577 O601 2.341 . S
Tb577 O602 2.484 . S
Tb577 O603 2.440 . S
Tb577 O604 2.658 1_545 S
Tb577 O605 2.409 1_545 S
Tb577 O606 2.378 . S
C578 Tb576 2.809 1_565 S
C578 C579 1.514 . S
C578 O596 1.248 . S
C578 O597 1.266 1_565 S
C579 C578 1.514 . S
C579 C580 1.359 . S
C579 C584 1.308 1_565 S
C580 C579 1.359 . S
C580 C581 1.380 . S
C580 H608 0.929 . S
C581 C580 1.380 . S
C581 C582 1.347 . S
C581 H609 0.931 . S
C582 C581 1.347 . S
C582 C583 1.369 . S
C583 C582 1.369 . S
C583 C584 1.402 1_565 S
C583 H610 0.930 1_565 S
C584 C579 1.308 1_545 S
C584 C583 1.402 1_545 S
C584 H611 0.980 . S
C585 O598 1.281 . S
C585 O599 1.254 . S
C586 O600 1.236 . S
C586 O601 1.266 . S
C587 Tb577 2.809 . S
C587 C588 1.514 . S
C587 O602 1.248 . S
C587 O603 1.266 . S
C588 C587 1.514 . S
C588 C589 1.359 . S
C588 C593 1.348 . S
C589 C588 1.359 . S
C589 C590 1.380 . S
C589 H612 0.929 . S
C590 C589 1.380 . S
C590 C591 1.347 . S
C590 H613 0.931 . S
C591 C590 1.347 . S
C591 C592 1.369 . S
C592 C591 1.369 . S
C592 C593 1.408 . S
C592 H614 0.930 . S
C593 C588 1.348 . S
C593 C592 1.408 . S
C593 H615 0.930 . S
C594 O604 1.281 . S
C594 O605 1.254 . S
C595 O606 1.236 . S
C595 O607 1.266 . S
O596 Tb576 2.484 1_565 S
O596 C578 1.248 . S
O597 Tb576 2.440 . S
O597 C578 1.266 1_545 S
O598 Tb576 2.658 . S
O598 Tb577 2.325 . S
O598 C585 1.281 . S
O599 Tb576 2.409 . S
O599 C585 1.254 . S
O600 Tb576 2.378 . S
O600 C586 1.236 . S
O601 Tb577 2.341 . S
O601 C586 1.266 . S
O602 Tb577 2.484 . S
O602 C587 1.248 . S
O603 Tb577 2.440 . S
O603 C587 1.266 . S
O604 Tb576 2.325 1_565 S
O604 Tb577 2.658 1_565 S
O604 C594 1.281 . S
O605 Tb577 2.409 1_565 S
O605 C594 1.254 . S
O606 Tb577 2.378 . S
O606 C595 1.236 . S
O607 Tb576 2.341 . S
O607 C595 1.266 . S
H608 C580 0.929 . S
H609 C581 0.931 . S
H610 C583 0.930 1_545 S
H611 C584 0.980 . S
H612 C589 0.929 . S
H613 C590 0.931 . S
H614 C592 0.930 . S
H615 C593 0.930 . S
Tb616 C618 2.809 . S
Tb616 O636 2.484 . S
Tb616 O637 2.440 . S
Tb616 O638 2.658 . S
Tb616 O639 2.409 . S
Tb616 O640 2.378 . S
Tb616 O644 2.325 . S
Tb616 O647 2.341 . S
Tb617 C627 2.809 . S
Tb617 O638 2.325 . S
Tb617 O641 2.341 . S
Tb617 O642 2.484 . S
Tb617 O643 2.440 . S
Tb617 O644 2.658 . S
Tb617 O645 2.409 . S
Tb617 O646 2.378 . S
C618 Tb616 2.809 . S
C618 C619 1.514 . S
C618 O636 1.248 . S
C618 O637 1.266 . S
C619 C618 1.514 . S
C619 C620 1.359 . S
C619 C624 1.348 . S
C620 C619 1.359 . S
C620 C621 1.380 . S
C620 H648 0.929 . S
C621 C620 1.380 . S
C621 C622 1.347 . S
C621 H649 0.931 . S
C622 C621 1.347 . S
C622 C623 1.369 . S
C623 C622 1.369 . S
C623 C624 1.408 . S
C623 H650 0.930 . S
C624 C619 1.348 . S
C624 C623 1.408 . S
C624 H651 0.930 . S
C625 O638 1.281 . S
C625 O639 1.254 . S
C626 O640 1.236 . S
C626 O641 1.266 . S
C627 Tb617 2.809 . S
C627 C628 1.514 . S
C627 O642 1.248 . S
C627 O643 1.266 . S
C628 C627 1.514 . S
C628 C629 1.359 . S
C628 C633 1.348 . S
C629 C628 1.359 . S
C629 C630 1.380 . S
C629 H652 0.929 . S
C630 C629 1.380 . S
C630 C631 1.347 . S
C630 H653 0.931 . S
C631 C630 1.347 . S
C631 C632 1.369 . S
C632 C631 1.369 . S
C632 C633 1.408 . S
C632 H654 0.930 . S
C633 C628 1.348 . S
C633 C632 1.408 . S
C633 H655 0.930 . S
C634 O644 1.281 . S
C634 O645 1.254 . S
C635 O646 1.236 . S
C635 O647 1.266 . S
O636 Tb616 2.484 . S
O636 C618 1.248 . S
O637 Tb616 2.440 . S
O637 C618 1.266 . S
O638 Tb616 2.658 . S
O638 Tb617 2.325 . S
O638 C625 1.281 . S
O639 Tb616 2.409 . S
O639 C625 1.254 . S
O640 Tb616 2.378 . S
O640 C626 1.236 . S
O641 Tb617 2.341 . S
O641 C626 1.266 . S
O642 Tb617 2.484 . S
O642 C627 1.248 . S
O643 Tb617 2.440 . S
O643 C627 1.266 . S
O644 Tb616 2.325 . S
O644 Tb617 2.658 . S
O644 C634 1.281 . S
O645 Tb617 2.409 . S
O645 C634 1.254 . S
O646 Tb617 2.378 . S
O646 C635 1.236 . S
O647 Tb616 2.341 . S
O647 C635 1.266 . S
H648 C620 0.929 . S
H649 C621 0.931 . S
H650 C623 0.930 . S
H651 C624 0.930 . S
H652 C629 0.929 . S
H653 C630 0.931 . S
H654 C632 0.930 . S
H655 C633 0.930 . S
Tb656 C658 2.809 . S
Tb656 O676 2.484 . S
Tb656 O677 2.440 . S
Tb656 O678 2.658 . S
Tb656 O679 2.409 . S
Tb656 O680 2.378 . S
Tb656 O684 2.325 . S
Tb656 O687 2.341 . S
Tb657 C667 2.809 . S
Tb657 O678 2.325 . S
Tb657 O681 2.341 . S
Tb657 O682 2.484 . S
Tb657 O683 2.440 . S
Tb657 O684 2.658 . S
Tb657 O685 2.409 . S
Tb657 O686 2.378 . S
C658 Tb656 2.809 . S
C658 C659 1.514 . S
C658 O676 1.248 . S
C658 O677 1.266 . S
C659 C658 1.514 . S
C659 C660 1.359 . S
C659 C664 1.348 . S
C660 C659 1.359 . S
C660 C661 1.380 . S
C660 H688 0.929 . S
C661 C660 1.380 . S
C661 C662 1.347 . S
C661 H689 0.931 1_554 S
C662 C661 1.347 . S
C662 C663 1.365 . S
C663 C662 1.365 . S
C663 C664 1.408 . S
C663 H690 0.930 . S
C664 C659 1.348 . S
C664 C663 1.408 . S
C664 H691 0.930 . S
C665 O678 1.281 . S
C665 O679 1.254 . S
C666 O680 1.236 . S
C666 O681 1.266 . S
C667 Tb657 2.809 . S
C667 C668 1.514 . S
C667 O682 1.248 . S
C667 O683 1.266 . S
C668 C667 1.514 . S
C668 C669 1.359 . S
C668 C673 1.348 . S
C669 C668 1.359 . S
C669 C670 1.380 . S
C669 H692 0.929 . S
C670 C669 1.380 . S
C670 C671 1.347 . S
C670 H693 0.931 . S
C671 C670 1.347 . S
C671 C672 1.369 . S
C672 C671 1.369 . S
C672 C673 1.408 . S
C672 H694 0.930 . S
C673 C668 1.348 . S
C673 C672 1.408 . S
C673 H695 0.930 . S
C674 O684 1.281 . S
C674 O685 1.254 . S
C675 O686 1.236 . S
C675 O687 1.266 . S
O676 Tb656 2.484 . S
O676 C658 1.248 . S
O677 Tb656 2.440 . S
O677 C658 1.266 . S
O678 Tb656 2.658 . S
O678 Tb657 2.325 . S
O678 C665 1.281 . S
O679 Tb656 2.409 . S
O679 C665 1.254 . S
O680 Tb656 2.378 . S
O680 C666 1.236 . S
O681 Tb657 2.341 . S
O681 C666 1.266 . S
O682 Tb657 2.484 . S
O682 C667 1.248 . S
O683 Tb657 2.440 . S
O683 C667 1.266 . S
O684 Tb656 2.325 . S
O684 Tb657 2.658 . S
O684 C674 1.281 . S
O685 Tb657 2.409 . S
O685 C674 1.254 . S
O686 Tb657 2.378 . S
O686 C675 1.236 . S
O687 Tb656 2.341 . S
O687 C675 1.266 . S
H688 C660 0.929 . S
H689 C661 0.931 1_556 S
H690 C663 0.930 . S
H691 C664 0.930 . S
H692 C669 0.929 . S
H693 C670 0.931 . S
H694 C672 0.930 . S
H695 C673 0.930 . S
Tb696 C698 2.809 . S
Tb696 O716 2.484 . S
Tb696 O717 2.440 . S
Tb696 O718 2.658 . S
Tb696 O719 2.409 . S
Tb696 O720 2.378 . S
Tb696 O724 2.325 . S
Tb696 O727 2.341 . S
Tb697 C707 2.809 . S
Tb697 O718 2.325 . S
Tb697 O721 2.341 . S
Tb697 O722 2.484 . S
Tb697 O723 2.440 . S
Tb697 O724 2.658 . S
Tb697 O725 2.409 . S
Tb697 O726 2.378 . S
C698 Tb696 2.809 . S
C698 C699 1.514 . S
C698 O716 1.248 . S
C698 O717 1.266 . S
C699 C698 1.514 . S
C699 C700 1.359 . S
C699 C704 1.348 . S
C700 C699 1.359 . S
C700 C701 1.380 . S
C700 H728 0.929 . S
C701 C700 1.380 . S
C701 C702 1.347 . S
C701 H729 0.931 . S
C702 C701 1.347 . S
C702 C703 1.369 . S
C703 C702 1.369 . S
C703 C704 1.408 . S
C703 H730 0.930 . S
C704 C699 1.348 . S
C704 C703 1.408 . S
C704 H731 0.930 . S
C705 O718 1.281 . S
C705 O719 1.254 . S
C706 O720 1.236 . S
C706 O721 1.266 . S
C707 Tb697 2.809 . S
C707 C708 1.514 . S
C707 O722 1.248 . S
C707 O723 1.266 . S
C708 C707 1.514 . S
C708 C709 1.359 . S
C708 C713 1.348 . S
C709 C708 1.359 . S
C709 C710 1.380 . S
C709 H732 0.929 . S
C710 C709 1.380 . S
C710 C711 1.347 . S
C710 H733 0.931 . S
C711 C710 1.347 . S
C711 C712 1.369 . S
C712 C711 1.369 . S
C712 C713 1.408 . S
C712 H734 0.930 . S
C713 C708 1.348 . S
C713 C712 1.408 . S
C713 H735 0.930 . S
C714 O724 1.281 . S
C714 O725 1.254 . S
C715 O726 1.236 . S
C715 O727 1.266 . S
O716 Tb696 2.484 . S
O716 C698 1.248 . S
O717 Tb696 2.440 . S
O717 C698 1.266 . S
O718 Tb696 2.658 . S
O718 Tb697 2.325 . S
O718 C705 1.281 . S
O719 Tb696 2.409 . S
O719 C705 1.254 . S
O720 Tb696 2.378 . S
O720 C706 1.236 . S
O721 Tb697 2.341 . S
O721 C706 1.266 . S
O722 Tb697 2.484 . S
O722 C707 1.248 . S
O723 Tb697 2.440 . S
O723 C707 1.266 . S
O724 Tb696 2.325 . S
O724 Tb697 2.658 . S
O724 C714 1.281 . S
O725 Tb697 2.409 . S
O725 C714 1.254 . S
O726 Tb697 2.378 . S
O726 C715 1.236 . S
O727 Tb696 2.341 . S
O727 C715 1.266 . S
H728 C700 0.929 . S
H729 C701 0.931 . S
H730 C703 0.930 . S
H731 C704 0.930 . S
H732 C709 0.929 . S
H733 C710 0.931 . S
H734 C712 0.930 . S
H735 C713 0.930 . S
Tb736 C738 2.769 1_455 S
Tb736 O756 2.457 1_455 S
Tb736 O757 2.396 1_455 S
Tb736 O758 2.686 . S
Tb736 O759 2.403 . S
Tb736 O760 2.369 1_455 S
Tb736 O764 2.355 . S
Tb736 O767 2.378 . S
Tb737 C747 2.809 . S
Tb737 O758 2.325 . S
Tb737 O761 2.341 . S
Tb737 O762 2.484 . S
Tb737 O763 2.440 . S
Tb737 O764 2.658 . S
Tb737 O765 2.409 . S
Tb737 O766 2.378 . S
C738 Tb736 2.769 1_655 S
C738 C739 1.514 . S
C738 O756 1.248 . S
C738 O757 1.266 . S
C739 C738 1.514 . S
C739 C740 1.359 . S
C739 C744 1.348 . S
C740 C739 1.359 . S
C740 C741 1.380 . S
C740 H768 0.929 . S
C741 C740 1.380 . S
C741 C742 1.347 . S
C741 H769 0.931 . S
C742 C741 1.347 . S
C742 C743 1.369 . S
C743 C742 1.369 . S
C743 C744 1.408 . S
C743 H770 0.930 . S
C744 C739 1.348 . S
C744 C743 1.408 . S
C744 H771 0.930 . S
C745 O758 1.281 . S
C745 O759 1.254 . S
C746 O760 1.236 1_455 S
C746 O761 1.266 . S
C747 Tb737 2.809 . S
C747 C748 1.514 . S
C747 O762 1.248 . S
C747 O763 1.266 . S
C748 C747 1.514 . S
C748 C749 1.359 . S
C748 C753 1.348 . S
C749 C748 1.359 . S
C749 C750 1.380 . S
C749 H772 0.929 . S
C750 C749 1.380 . S
C750 C751 1.347 . S
C750 H773 0.931 . S
C751 C750 1.347 . S
C751 C752 1.369 . S
C752 C751 1.369 . S
C752 C753 1.408 . S
C752 H774 0.930 . S
C753 C748 1.348 . S
C753 C752 1.408 . S
C753 H775 0.930 . S
C754 O764 1.281 . S
C754 O765 1.254 . S
C755 O766 1.236 . S
C755 O767 1.266 . S
O756 Tb736 2.457 1_655 S
O756 C738 1.248 . S
O757 Tb736 2.396 1_655 S
O757 C738 1.266 . S
O758 Tb736 2.686 . S
O758 Tb737 2.325 . S
O758 C745 1.281 . S
O759 Tb736 2.403 . S
O759 C745 1.254 . S
O760 Tb736 2.369 1_655 S
O760 C746 1.236 1_655 S
O761 Tb737 2.341 . S
O761 C746 1.266 . S
O762 Tb737 2.484 . S
O762 C747 1.248 . S
O763 Tb737 2.440 . S
O763 C747 1.266 . S
O764 Tb736 2.355 . S
O764 Tb737 2.658 . S
O764 C754 1.281 . S
O765 Tb737 2.409 . S
O765 C754 1.254 . S
O766 Tb737 2.378 . S
O766 C755 1.236 . S
O767 Tb736 2.378 . S
O767 C755 1.266 . S
H768 C740 0.929 . S
H769 C741 0.931 . S
H770 C743 0.930 . S
H771 C744 0.930 . S
H772 C749 0.929 . S
H773 C750 0.931 . S
H774 C752 0.930 . S
H775 C753 0.930 . S
Tb776 C778 2.809 . S
Tb776 O796 2.484 . S
Tb776 O797 2.440 . S
Tb776 O798 2.658 . S
Tb776 O799 2.409 . S
Tb776 O800 2.378 . S
Tb776 O804 2.325 . S
Tb776 O807 2.341 . S
Tb777 C787 2.809 . S
Tb777 O798 2.325 . S
Tb777 O801 2.341 . S
Tb777 O802 2.484 . S
Tb777 O803 2.440 . S
Tb777 O804 2.658 . S
Tb777 O805 2.409 . S
Tb777 O806 2.378 . S
C778 Tb776 2.809 . S
C778 C779 1.514 . S
C778 O796 1.248 . S
C778 O797 1.266 . S
C779 C778 1.514 . S
C779 C780 1.359 . S
C779 C784 1.348 . S
C780 C779 1.359 . S
C780 C781 1.380 . S
C780 H808 0.929 . S
C781 C780 1.380 . S
C781 C782 1.347 . S
C781 H809 0.931 . S
C782 C781 1.347 . S
C782 C783 1.369 . S
C783 C782 1.369 . S
C783 C784 1.408 . S
C783 H810 0.930 . S
C784 C779 1.348 . S
C784 C783 1.408 . S
C784 H811 0.930 . S
C785 O798 1.281 . S
C785 O799 1.254 . S
C786 O800 1.236 . S
C786 O801 1.266 . S
C787 Tb777 2.809 . S
C787 C788 1.514 . S
C787 O802 1.248 . S
C787 O803 1.266 . S
C788 C787 1.514 . S
C788 C789 1.359 . S
C788 C793 1.348 . S
C789 C788 1.359 . S
C789 C790 1.380 . S
C789 H812 0.929 . S
C790 C789 1.380 . S
C790 C791 1.347 . S
C790 H813 0.931 . S
C791 C790 1.347 . S
C791 C792 1.369 . S
C792 C791 1.369 . S
C792 C793 1.408 . S
C792 H814 0.930 . S
C793 C788 1.348 . S
C793 C792 1.408 . S
C793 H815 0.930 . S
C794 O804 1.281 . S
C794 O805 1.254 . S
C795 O806 1.236 . S
C795 O807 1.266 . S
O796 Tb776 2.484 . S
O796 C778 1.248 . S
O797 Tb776 2.440 . S
O797 C778 1.266 . S
O798 Tb776 2.658 . S
O798 Tb777 2.325 . S
O798 C785 1.281 . S
O799 Tb776 2.409 . S
O799 C785 1.254 . S
O800 Tb776 2.378 . S
O800 C786 1.236 . S
O801 Tb777 2.341 . S
O801 C786 1.266 . S
O802 Tb777 2.484 . S
O802 C787 1.248 . S
O803 Tb777 2.440 . S
O803 C787 1.266 . S
O804 Tb776 2.325 . S
O804 Tb777 2.658 . S
O804 C794 1.281 . S
O805 Tb777 2.409 . S
O805 C794 1.254 . S
O806 Tb777 2.378 . S
O806 C795 1.236 . S
O807 Tb776 2.341 . S
O807 C795 1.266 . S
H808 C780 0.929 . S
H809 C781 0.931 . S
H810 C783 0.930 . S
H811 C784 0.930 . S
H812 C789 0.929 . S
H813 C790 0.931 . S
H814 C792 0.930 . S
H815 C793 0.930 . S
Tb816 C818 2.809 . S
Tb816 O836 2.484 . S
Tb816 O837 2.440 . S
Tb816 O838 2.658 . S
Tb816 O839 2.409 . S
Tb816 O840 2.378 . S
Tb816 O844 2.325 . S
Tb816 O847 2.341 . S
Tb817 C827 2.809 . S
Tb817 O838 2.325 . S
Tb817 O841 2.341 . S
Tb817 O842 2.484 . S
Tb817 O843 2.440 . S
Tb817 O844 2.658 . S
Tb817 O845 2.409 . S
Tb817 O846 2.378 . S
C818 Tb816 2.809 . S
C818 C819 1.514 . S
C818 O836 1.248 . S
C818 O837 1.266 . S
C819 C818 1.514 . S
C819 C820 1.359 . S
C819 C824 1.348 . S
C820 C819 1.359 . S
C820 C821 1.380 . S
C820 H848 0.929 . S
C821 C820 1.380 . S
C821 C822 1.347 . S
C821 H849 0.931 . S
C822 C821 1.347 . S
C822 C823 1.369 . S
C823 C822 1.369 . S
C823 C824 1.408 . S
C823 H850 0.930 . S
C824 C819 1.348 . S
C824 C823 1.408 . S
C824 H851 0.930 . S
C825 O838 1.281 . S
C825 O839 1.254 . S
C826 O840 1.236 . S
C826 O841 1.266 . S
C827 Tb817 2.809 . S
C827 C828 1.514 . S
C827 O842 1.248 . S
C827 O843 1.266 . S
C828 C827 1.514 . S
C828 C829 1.359 . S
C828 C833 1.348 . S
C829 C828 1.359 . S
C829 C830 1.380 . S
C829 H852 0.929 . S
C830 C829 1.380 . S
C830 C831 1.347 . S
C830 H853 0.931 . S
C831 C830 1.347 . S
C831 C832 1.369 . S
C832 C831 1.369 . S
C832 C833 1.408 . S
C832 H854 0.930 . S
C833 C828 1.348 . S
C833 C832 1.408 . S
C833 H855 0.930 . S
C834 O844 1.281 . S
C834 O845 1.254 . S
C835 O846 1.236 . S
C835 O847 1.266 . S
O836 Tb816 2.484 . S
O836 C818 1.248 . S
O837 Tb816 2.440 . S
O837 C818 1.266 . S
O838 Tb816 2.658 . S
O838 Tb817 2.325 . S
O838 C825 1.281 . S
O839 Tb816 2.409 . S
O839 C825 1.254 . S
O840 Tb816 2.378 . S
O840 C826 1.236 . S
O841 Tb817 2.341 . S
O841 C826 1.266 . S
O842 Tb817 2.484 . S
O842 C827 1.248 . S
O843 Tb817 2.440 . S
O843 C827 1.266 . S
O844 Tb816 2.325 . S
O844 Tb817 2.658 . S
O844 C834 1.281 . S
O845 Tb817 2.409 . S
O845 C834 1.254 . S
O846 Tb817 2.378 . S
O846 C835 1.236 . S
O847 Tb816 2.341 . S
O847 C835 1.266 . S
H848 C820 0.929 . S
H849 C821 0.931 . S
H850 C823 0.930 . S
H851 C824 0.930 . S
H852 C829 0.929 . S
H853 C830 0.931 . S
H854 C832 0.930 . S
H855 C833 0.930 . S
Tb856 C858 2.809 . S
Tb856 O876 2.484 . S
Tb856 O877 2.440 . S
Tb856 O878 2.658 . S
Tb856 O879 2.409 . S
Tb856 O880 2.378 . S
Tb856 O884 2.325 . S
Tb856 O887 2.341 . S
Tb857 C867 2.809 . S
Tb857 O878 2.325 . S
Tb857 O881 2.341 . S
Tb857 O882 2.484 . S
Tb857 O883 2.440 . S
Tb857 O884 2.658 . S
Tb857 O885 2.409 . S
Tb857 O886 2.378 . S
C858 Tb856 2.809 . S
C858 C859 1.514 . S
C858 O876 1.248 . S
C858 O877 1.266 . S
C859 C858 1.514 . S
C859 C860 1.359 . S
C859 C864 1.348 . S
C860 C859 1.359 . S
C860 C861 1.380 . S
C860 H888 0.929 . S
C861 C860 1.380 . S
C861 C862 1.347 . S
C861 H889 0.931 . S
C862 C861 1.347 . S
C862 C863 1.369 . S
C863 C862 1.369 . S
C863 C864 1.408 . S
C863 H890 0.930 . S
C864 C859 1.348 . S
C864 C863 1.408 . S
C864 H891 0.930 . S
C865 O878 1.281 . S
C865 O879 1.254 . S
C866 O880 1.236 . S
C866 O881 1.266 . S
C867 Tb857 2.809 . S
C867 C868 1.514 . S
C867 O882 1.248 . S
C867 O883 1.266 . S
C868 C867 1.514 . S
C868 C869 1.359 . S
C868 C873 1.348 . S
C869 C868 1.359 . S
C869 C870 1.380 . S
C869 H892 0.929 . S
C870 C869 1.380 . S
C870 C871 1.347 . S
C870 H893 0.931 . S
C871 C870 1.347 . S
C871 C872 1.369 . S
C872 C871 1.369 . S
C872 C873 1.408 . S
C872 H894 0.930 . S
C873 C868 1.348 . S
C873 C872 1.408 . S
C873 H895 0.930 . S
C874 O884 1.281 . S
C874 O885 1.254 . S
C875 O886 1.236 . S
C875 O887 1.266 . S
O876 Tb856 2.484 . S
O876 C858 1.248 . S
O877 Tb856 2.440 . S
O877 C858 1.266 . S
O878 Tb856 2.658 . S
O878 Tb857 2.325 . S
O878 C865 1.281 . S
O879 Tb856 2.409 . S
O879 C865 1.254 . S
O880 Tb856 2.378 . S
O880 C866 1.236 . S
O881 Tb857 2.341 . S
O881 C866 1.266 . S
O882 Tb857 2.484 . S
O882 C867 1.248 . S
O883 Tb857 2.440 . S
O883 C867 1.266 . S
O884 Tb856 2.325 . S
O884 Tb857 2.658 . S
O884 C874 1.281 . S
O885 Tb857 2.409 . S
O885 C874 1.254 . S
O886 Tb857 2.378 . S
O886 C875 1.236 . S
O887 Tb856 2.341 . S
O887 C875 1.266 . S
H888 C860 0.929 . S
H889 C861 0.931 . S
H890 C863 0.930 . S
H891 C864 0.930 . S
H892 C869 0.929 . S
H893 C870 0.931 . S
H894 C872 0.930 . S
H895 C873 0.930 . S
Tb896 C898 2.809 . S
Tb896 O916 2.484 . S
Tb896 O917 2.440 . S
Tb896 O918 2.658 . S
Tb896 O919 2.409 . S
Tb896 O920 2.378 . S
Tb896 O924 2.325 . S
Tb896 O927 2.341 . S
Tb897 C907 2.809 . S
Tb897 O918 2.325 . S
Tb897 O921 2.341 . S
Tb897 O922 2.484 . S
Tb897 O923 2.440 . S
Tb897 O924 2.658 . S
Tb897 O925 2.409 . S
Tb897 O926 2.378 . S
C898 Tb896 2.809 . S
C898 C899 1.514 . S
C898 O916 1.248 . S
C898 O917 1.266 . S
C899 C898 1.514 . S
C899 C900 1.359 . S
C899 C904 1.348 . S
C900 C899 1.359 . S
C900 C901 1.380 . S
C900 H928 0.929 . S
C901 C900 1.380 . S
C901 C902 1.347 . S
C901 H929 0.931 . S
C902 C901 1.347 . S
C902 C903 1.369 . S
C903 C902 1.369 . S
C903 C904 1.408 . S
C903 H930 0.930 . S
C904 C899 1.348 . S
C904 C903 1.408 . S
C904 H931 0.930 . S
C905 O918 1.281 . S
C905 O919 1.254 . S
C906 O920 1.236 . S
C906 O921 1.266 . S
C907 Tb897 2.809 . S
C907 C908 1.514 . S
C907 O922 1.248 . S
C907 O923 1.266 . S
C908 C907 1.514 . S
C908 C909 1.359 . S
C908 C913 1.348 . S
C909 C908 1.359 . S
C909 C910 1.380 . S
C909 H932 0.929 . S
C910 C909 1.380 . S
C910 C911 1.347 . S
C910 H933 0.931 . S
C911 C910 1.347 . S
C911 C912 1.369 . S
C912 C911 1.369 . S
C912 C913 1.408 . S
C912 H934 0.930 . S
C913 C908 1.348 . S
C913 C912 1.408 . S
C913 H935 0.930 . S
C914 O924 1.281 . S
C914 O925 1.254 . S
C915 O926 1.236 . S
C915 O927 1.266 . S
O916 Tb896 2.484 . S
O916 C898 1.248 . S
O917 Tb896 2.440 . S
O917 C898 1.266 . S
O918 Tb896 2.658 . S
O918 Tb897 2.325 . S
O918 C905 1.281 . S
O919 Tb896 2.409 . S
O919 C905 1.254 . S
O920 Tb896 2.378 . S
O920 C906 1.236 . S
O921 Tb897 2.341 . S
O921 C906 1.266 . S
O922 Tb897 2.484 . S
O922 C907 1.248 . S
O923 Tb897 2.440 . S
O923 C907 1.266 . S
O924 Tb896 2.325 . S
O924 Tb897 2.658 . S
O924 C914 1.281 . S
O925 Tb897 2.409 . S
O925 C914 1.254 . S
O926 Tb897 2.378 . S
O926 C915 1.236 . S
O927 Tb896 2.341 . S
O927 C915 1.266 . S
H928 C900 0.929 . S
H929 C901 0.931 . S
H930 C903 0.930 . S
H931 C904 0.930 . S
H932 C909 0.929 . S
H933 C910 0.931 . S
H934 C912 0.930 . S
H935 C913 0.930 . S
Tb936 C938 2.809 . S
Tb936 O956 2.484 . S
Tb936 O957 2.440 . S
Tb936 O958 2.658 . S
Tb936 O959 2.409 . S
Tb936 O960 2.378 . S
Tb936 O964 2.325 . S
Tb936 O967 2.341 . S
Tb937 C947 2.809 1_455 S
Tb937 O958 2.325 . S
Tb937 O961 2.341 . S
Tb937 O962 2.484 1_455 S
Tb937 O963 2.440 1_455 S
Tb937 O964 2.658 . S
Tb937 O965 2.409 . S
Tb937 O966 2.378 . S
C938 Tb936 2.809 . S
C938 C939 1.514 . S
C938 O956 1.248 . S
C938 O957 1.266 . S
C939 C938 1.514 . S
C939 C940 1.359 . S
C939 C944 1.348 . S
C940 C939 1.359 . S
C940 C941 1.380 . S
C940 H968 0.929 . S
C941 C940 1.380 . S
C941 C942 1.347 . S
C941 H969 0.931 . S
C942 C941 1.347 . S
C942 C943 1.369 . S
C943 C942 1.369 . S
C943 C944 1.408 . S
C943 H970 0.930 . S
C944 C939 1.348 . S
C944 C943 1.408 . S
C944 H971 0.930 . S
C945 O958 1.281 . S
C945 O959 1.254 . S
C946 O960 1.236 . S
C946 O961 1.266 . S
C947 Tb937 2.809 1_655 S
C947 C948 1.514 . S
C947 O962 1.248 . S
C947 O963 1.266 . S
C948 C947 1.514 . S
C948 C949 1.359 . S
C948 C953 1.348 . S
C949 C948 1.359 . S
C949 C950 1.380 . S
C949 H972 0.929 . S
C950 C949 1.380 . S
C950 C951 1.347 . S
C950 H973 0.931 . S
C951 C950 1.347 . S
C951 C952 1.369 . S
C952 C951 1.369 . S
C952 C953 1.408 . S
C952 H974 0.930 . S
C953 C948 1.348 . S
C953 C952 1.408 . S
C953 H975 0.930 . S
C954 O964 1.281 . S
C954 O965 1.254 . S
C955 O966 1.236 . S
C955 O967 1.266 . S
O956 Tb936 2.484 . S
O956 C938 1.248 . S
O957 Tb936 2.440 . S
O957 C938 1.266 . S
O958 Tb936 2.658 . S
O958 Tb937 2.325 . S
O958 C945 1.281 . S
O959 Tb936 2.409 . S
O959 C945 1.254 . S
O960 Tb936 2.378 . S
O960 C946 1.236 . S
O961 Tb937 2.341 . S
O961 C946 1.266 . S
O962 Tb937 2.484 1_655 S
O962 C947 1.248 . S
O963 Tb937 2.440 1_655 S
O963 C947 1.266 . S
O964 Tb936 2.325 . S
O964 Tb937 2.658 . S
O964 C954 1.281 . S
O965 Tb937 2.409 . S
O965 C954 1.254 . S
O966 Tb937 2.378 . S
O966 C955 1.236 . S
O967 Tb936 2.341 . S
O967 C955 1.266 . S
H968 C940 0.929 . S
H969 C941 0.931 . S
H970 C943 0.930 . S
H971 C944 0.930 . S
H972 C949 0.929 . S
H973 C950 0.931 . S
H974 C952 0.930 . S
H975 C953 0.930 . S
H976 C984 0.950 1_655 S
H977 C989 0.950 . S
H978 C986 0.950 . S
H979 C988 0.950 . S
H980 C990 0.950 . S
H981 C992 0.950 . S
H982 C994 0.950 1_556 S
H983 C995 0.950 . S
C984 H976 0.950 1_455 S
C984 C985 1.386 . S
C984 C986 1.391 . S
C985 C984 1.386 . S
C985 C989 1.393 1_556 S
C986 H978 0.950 . S
C986 C984 1.391 . S
C986 C987 1.400 1_556 S
C987 C986 1.400 1_554 S
C987 C988 1.398 . S
C987 C993 1.491 . S
C988 H979 0.950 . S
C988 C987 1.398 . S
C988 C989 1.391 . S
C989 H977 0.950 . S
C989 C985 1.393 1_554 S
C989 C988 1.391 . S
C990 H980 0.950 . S
C990 C991 1.386 . S
C990 C992 1.391 . S
C991 C990 1.386 . S
C991 C995 1.393 . S
C992 H981 0.950 . S
C992 C990 1.391 . S
C992 C993 1.400 . S
C993 C987 1.491 . S
C993 C992 1.400 . S
C993 C994 1.398 . S
C994 H982 0.950 1_554 S
C994 C993 1.398 . S
C994 C995 1.391 . S
C995 H983 0.950 . S
C995 C991 1.393 . S
C995 C994 1.391 . S
H996 C1004 0.950 . S
H997 C1009 0.950 . S
H998 C1006 0.950 . S
H999 C1008 0.950 . S
H1000 C1010 0.950 . S
H1001 C1012 0.950 . S
H1002 C1014 0.950 . S
H1003 C1015 0.950 . S
C1004 H996 0.950 . S
C1004 C1005 1.386 . S
C1004 C1006 1.391 . S
C1005 C1004 1.386 . S
C1005 C1009 1.393 . S
C1006 H998 0.950 . S
C1006 C1004 1.391 . S
C1006 C1007 1.400 . S
C1007 C1006 1.400 . S
C1007 C1008 1.398 . S
C1007 C1013 1.491 . S
C1008 H999 0.950 . S
C1008 C1007 1.398 . S
C1008 C1009 1.391 . S
C1009 H997 0.950 . S
C1009 C1005 1.393 . S
C1009 C1008 1.391 . S
C1010 H1000 0.950 . S
C1010 C1011 1.386 . S
C1010 C1012 1.391 . S
C1011 C1010 1.386 . S
C1011 C1015 1.393 . S
C1012 H1001 0.950 . S
C1012 C1010 1.391 . S
C1012 C1013 1.400 . S
C1013 C1007 1.491 . S
C1013 C1012 1.400 . S
C1013 C1014 1.398 . S
C1014 H1002 0.950 . S
C1014 C1013 1.398 . S
C1014 C1015 1.391 . S
C1015 H1003 0.950 . S
C1015 C1011 1.393 . S
C1015 C1014 1.391 . S
H1016 C1024 0.950 . S
H1017 C1029 0.950 . S
H1018 C1026 0.950 . S
H1019 C1028 0.950 . S
H1020 C1030 0.950 . S
H1021 C1032 0.950 . S
H1022 C1034 0.950 . S
H1023 C1035 0.950 . S
C1024 H1016 0.950 . S
C1024 C1025 1.386 . S
C1024 C1026 1.391 . S
C1025 C1024 1.386 . S
C1025 C1029 1.393 . S
C1026 H1018 0.950 . S
C1026 C1024 1.391 . S
C1026 C1027 1.400 . S
C1027 C1026 1.400 . S
C1027 C1028 1.398 . S
C1027 C1033 1.491 . S
C1028 H1019 0.950 . S
C1028 C1027 1.398 . S
C1028 C1029 1.391 . S
C1029 H1017 0.950 . S
C1029 C1025 1.393 . S
C1029 C1028 1.391 . S
C1030 H1020 0.950 . S
C1030 C1031 1.386 . S
C1030 C1032 1.391 . S
C1031 C1030 1.386 . S
C1031 C1035 1.393 . S
C1032 H1021 0.950 . S
C1032 C1030 1.391 . S
C1032 C1033 1.400 . S
C1033 C1027 1.491 . S
C1033 C1032 1.400 . S
C1033 C1034 1.398 . S
C1034 H1022 0.950 . S
C1034 C1033 1.398 . S
C1034 C1035 1.391 . S
C1035 H1023 0.950 . S
C1035 C1031 1.393 . S
C1035 C1034 1.391 . S
H1036 C1044 0.950 . S
H1037 C1049 0.950 . S
H1038 C1046 0.950 . S
H1039 C1048 0.950 . S
H1040 C1050 0.950 . S
H1041 C1052 0.950 . S
H1042 C1054 0.950 . S
H1043 C1055 0.950 . S
C1044 H1036 0.950 . S
C1044 C1045 1.386 . S
C1044 C1046 1.391 . S
C1045 C1044 1.386 . S
C1045 C1049 1.393 . S
C1046 H1038 0.950 . S
C1046 C1044 1.391 . S
C1046 C1047 1.400 . S
C1047 C1046 1.400 . S
C1047 C1048 1.398 . S
C1047 C1053 1.491 . S
C1048 H1039 0.950 . S
C1048 C1047 1.398 . S
C1048 C1049 1.391 . S
C1049 H1037 0.950 . S
C1049 C1045 1.393 . S
C1049 C1048 1.391 . S
C1050 H1040 0.950 . S
C1050 C1051 1.386 . S
C1050 C1052 1.391 . S
C1051 C1050 1.386 . S
C1051 C1055 1.393 . S
C1052 H1041 0.950 . S
C1052 C1050 1.391 . S
C1052 C1053 1.400 . S
C1053 C1047 1.491 . S
C1053 C1052 1.400 . S
C1053 C1054 1.398 . S
C1054 H1042 0.950 . S
C1054 C1053 1.398 . S
C1054 C1055 1.391 . S
C1055 H1043 0.950 . S
C1055 C1051 1.393 . S
C1055 C1054 1.391 . S
H1056 C1064 0.950 . S
H1057 C1069 0.950 . S
H1058 C1066 0.950 . S
H1059 C1068 0.950 . S
H1060 C1070 0.950 . S
H1061 C1072 0.950 . S
H1062 C1074 0.950 . S
H1063 C1075 0.950 . S
C1064 H1056 0.950 . S
C1064 C1065 1.386 . S
C1064 C1066 1.391 . S
C1065 C1064 1.386 . S
C1065 C1069 1.393 . S
C1066 H1058 0.950 . S
C1066 C1064 1.391 . S
C1066 C1067 1.400 . S
C1067 C1066 1.400 . S
C1067 C1068 1.398 . S
C1067 C1073 1.491 . S
C1068 H1059 0.950 . S
C1068 C1067 1.398 . S
C1068 C1069 1.391 . S
C1069 H1057 0.950 . S
C1069 C1065 1.393 . S
C1069 C1068 1.391 . S
C1070 H1060 0.950 . S
C1070 C1071 1.386 . S
C1070 C1072 1.391 . S
C1071 C1070 1.386 . S
C1071 C1075 1.393 . S
C1072 H1061 0.950 . S
C1072 C1070 1.391 . S
C1072 C1073 1.400 . S
C1073 C1067 1.491 . S
C1073 C1072 1.400 . S
C1073 C1074 1.398 . S
C1074 H1062 0.950 . S
C1074 C1073 1.398 . S
C1074 C1075 1.391 . S
C1075 H1063 0.950 . S
C1075 C1071 1.393 . S
C1075 C1074 1.391 . S
H1076 C1084 0.950 . S
H1077 C1089 0.950 . S
H1078 C1086 0.950 . S
H1079 C1088 0.950 . S
H1080 C1090 0.950 . S
H1081 C1092 0.950 . S
H1082 C1094 0.950 . S
H1083 C1095 0.950 . S
C1084 H1076 0.950 . S
C1084 C1085 1.386 . S
C1084 C1086 1.391 . S
C1085 C1084 1.386 . S
C1085 C1089 1.393 . S
C1086 H1078 0.950 . S
C1086 C1084 1.391 . S
C1086 C1087 1.400 . S
C1087 C1086 1.400 . S
C1087 C1088 1.398 . S
C1087 C1093 1.491 . S
C1088 H1079 0.950 . S
C1088 C1087 1.398 . S
C1088 C1089 1.391 . S
C1089 H1077 0.950 . S
C1089 C1085 1.393 . S
C1089 C1088 1.391 . S
C1090 H1080 0.950 . S
C1090 C1091 1.386 . S
C1090 C1092 1.391 . S
C1091 C1090 1.386 . S
C1091 C1095 1.393 . S
C1092 H1081 0.950 . S
C1092 C1090 1.391 . S
C1092 C1093 1.400 . S
C1093 C1087 1.491 . S
C1093 C1092 1.400 . S
C1093 C1094 1.398 . S
C1094 H1082 0.950 . S
C1094 C1093 1.398 . S
C1094 C1095 1.391 . S
C1095 H1083 0.950 . S
C1095 C1091 1.393 . S
C1095 C1094 1.391 . S
H1096 C1104 0.950 . S
H1097 C1109 0.950 . S
H1098 C1106 0.950 . S
H1099 C1108 0.950 . S
H1100 C1110 0.950 . S
H1101 C1112 0.950 . S
H1102 C1114 0.950 . S
H1103 C1115 0.950 . S
C1104 H1096 0.950 . S
C1104 C1105 1.386 . S
C1104 C1106 1.391 . S
C1105 C1104 1.386 . S
C1105 C1109 1.393 . S
C1106 H1098 0.950 . S
C1106 C1104 1.391 . S
C1106 C1107 1.400 . S
C1107 C1106 1.400 . S
C1107 C1108 1.398 . S
C1107 C1113 1.491 . S
C1108 H1099 0.950 . S
C1108 C1107 1.398 . S
C1108 C1109 1.391 . S
C1109 H1097 0.950 . S
C1109 C1105 1.393 . S
C1109 C1108 1.391 . S
C1110 H1100 0.950 . S
C1110 C1111 1.386 . S
C1110 C1112 1.391 . S
C1111 C1110 1.386 . S
C1111 C1115 1.393 . S
C1112 H1101 0.950 . S
C1112 C1110 1.391 . S
C1112 C1113 1.400 . S
C1113 C1107 1.491 . S
C1113 C1112 1.400 . S
C1113 C1114 1.398 . S
C1114 H1102 0.950 . S
C1114 C1113 1.398 . S
C1114 C1115 1.391 . S
C1115 H1103 0.950 . S
C1115 C1111 1.393 . S
C1115 C1114 1.391 . S
H1116 C1124 0.950 . S
H1117 C1129 0.950 . S
H1118 C1126 0.950 . S
H1119 C1128 0.950 . S
H1120 C1130 0.950 . S
H1121 C1132 0.950 . S
H1122 C1134 0.950 . S
H1123 C1135 0.950 . S
C1124 H1116 0.950 . S
C1124 C1125 1.386 . S
C1124 C1126 1.391 . S
C1125 C1124 1.386 . S
C1125 C1129 1.393 . S
C1126 H1118 0.950 . S
C1126 C1124 1.391 . S
C1126 C1127 1.400 . S
C1127 C1126 1.400 . S
C1127 C1128 1.398 . S
C1127 C1133 1.491 . S
C1128 H1119 0.950 . S
C1128 C1127 1.398 . S
C1128 C1129 1.391 . S
C1129 H1117 0.950 . S
C1129 C1125 1.393 . S
C1129 C1128 1.391 . S
C1130 H1120 0.950 . S
C1130 C1131 1.386 . S
C1130 C1132 1.391 . S
C1131 C1130 1.386 . S
C1131 C1135 1.393 . S
C1132 H1121 0.950 . S
C1132 C1130 1.391 . S
C1132 C1133 1.400 . S
C1133 C1127 1.491 . S
C1133 C1132 1.400 . S
C1133 C1134 1.398 . S
C1134 H1122 0.950 . S
C1134 C1133 1.398 . S
C1134 C1135 1.391 . S
C1135 H1123 0.950 . S
C1135 C1131 1.393 . S
C1135 C1134 1.391 . S
H1136 C1144 0.950 . S
H1137 C1149 0.950 . S
H1138 C1146 0.950 . S
H1139 C1148 0.950 . S
H1140 C1150 0.950 . S
H1141 C1152 0.950 1_565 S
H1142 C1154 0.950 . S
H1143 C1155 0.958 . S
C1144 H1136 0.950 . S
C1144 C1145 1.428 . S
C1144 C1146 1.391 . S
C1145 C1144 1.428 . S
C1145 C1149 1.362 1_545 S
C1146 H1138 0.950 . S
C1146 C1144 1.391 . S
C1146 C1147 1.400 . S
C1147 C1146 1.400 . S
C1147 C1148 1.398 1_545 S
C1147 C1153 1.491 . S
C1148 H1139 0.950 . S
C1148 C1147 1.398 1_565 S
C1148 C1149 1.391 . S
C1149 H1137 0.950 . S
C1149 C1145 1.362 1_565 S
C1149 C1148 1.391 . S
C1150 H1140 0.950 . S
C1150 C1151 1.386 . S
C1150 C1152 1.391 . S
C1151 C1150 1.386 . S
C1151 C1155 1.393 . S
C1152 H1141 0.950 1_545 S
C1152 C1150 1.391 . S
C1152 C1153 1.400 1_455 S
C1153 C1147 1.491 . S
C1153 C1152 1.400 1_655 S
C1153 C1154 1.398 . S
C1154 H1142 0.950 . S
C1154 C1153 1.398 . S
C1154 C1155 1.391 1_655 S
C1155 H1143 0.958 . S
C1155 C1151 1.393 . S
C1155 C1154 1.391 1_455 S
H1156 C1164 0.950 . S
H1157 C1169 0.950 . S
H1158 C1166 0.950 . S
H1159 C1168 0.950 . S
H1160 C1170 0.950 . S
H1161 C1172 0.950 . S
H1162 C1174 0.950 . S
H1163 C1175 0.950 . S
C1164 H1156 0.950 . S
C1164 C1165 1.386 . S
C1164 C1166 1.391 . S
C1165 C1164 1.386 . S
C1165 C1169 1.393 . S
C1166 H1158 0.950 . S
C1166 C1164 1.391 . S
C1166 C1167 1.400 . S
C1167 C1166 1.400 . S
C1167 C1168 1.398 . S
C1167 C1173 1.491 . S
C1168 H1159 0.950 . S
C1168 C1167 1.398 . S
C1168 C1169 1.391 . S
C1169 H1157 0.950 . S
C1169 C1165 1.393 . S
C1169 C1168 1.391 . S
C1170 H1160 0.950 . S
C1170 C1171 1.386 . S
C1170 C1172 1.391 . S
C1171 C1170 1.386 . S
C1171 C1175 1.393 . S
C1172 H1161 0.950 . S
C1172 C1170 1.391 . S
C1172 C1173 1.400 . S
C1173 C1167 1.491 . S
C1173 C1172 1.400 . S
C1173 C1174 1.398 . S
C1174 H1162 0.950 . S
C1174 C1173 1.398 . S
C1174 C1175 1.391 . S
C1175 H1163 0.950 . S
C1175 C1171 1.393 . S
C1175 C1174 1.391 . S
H1176 C1184 0.950 . S
H1177 C1189 0.950 . S
H1178 C1186 0.950 . S
H1179 C1188 0.950 . S
H1180 C1190 0.950 . S
H1181 C1192 0.950 . S
H1182 C1194 0.950 . S
H1183 C1195 0.950 . S
C1184 H1176 0.950 . S
C1184 C1185 1.386 . S
C1184 C1186 1.391 . S
C1185 C1184 1.386 . S
C1185 C1189 1.393 . S
C1186 H1178 0.950 . S
C1186 C1184 1.391 . S
C1186 C1187 1.400 . S
C1187 C1186 1.400 . S
C1187 C1188 1.398 . S
C1187 C1193 1.491 . S
C1188 H1179 0.950 . S
C1188 C1187 1.398 . S
C1188 C1189 1.391 . S
C1189 H1177 0.950 . S
C1189 C1185 1.393 . S
C1189 C1188 1.391 . S
C1190 H1180 0.950 . S
C1190 C1191 1.386 . S
C1190 C1192 1.391 . S
C1191 C1190 1.386 . S
C1191 C1195 1.393 . S
C1192 H1181 0.950 . S
C1192 C1190 1.391 . S
C1192 C1193 1.400 . S
C1193 C1187 1.491 . S
C1193 C1192 1.400 . S
C1193 C1194 1.398 . S
C1194 H1182 0.950 . S
C1194 C1193 1.398 . S
C1194 C1195 1.391 . S
C1195 H1183 0.950 . S
C1195 C1191 1.393 . S
C1195 C1194 1.391 . S
H1196 C1204 0.950 . S
H1197 C1209 0.950 . S
H1198 C1206 0.950 . S
H1199 C1208 0.950 . S
H1200 C1210 0.950 . S
H1201 C1212 0.950 . S
H1202 C1214 0.950 . S
H1203 C1215 0.950 . S
C1204 H1196 0.950 . S
C1204 C1205 1.386 . S
C1204 C1206 1.391 . S
C1205 C1204 1.386 . S
C1205 C1209 1.393 . S
C1206 H1198 0.950 . S
C1206 C1204 1.391 . S
C1206 C1207 1.400 . S
C1207 C1206 1.400 . S
C1207 C1208 1.398 . S
C1207 C1213 1.491 . S
C1208 H1199 0.950 . S
C1208 C1207 1.398 . S
C1208 C1209 1.391 . S
C1209 H1197 0.950 . S
C1209 C1205 1.393 . S
C1209 C1208 1.391 . S
C1210 H1200 0.950 . S
C1210 C1211 1.386 . S
C1210 C1212 1.391 . S
C1211 C1210 1.386 . S
C1211 C1215 1.393 . S
C1212 H1201 0.950 . S
C1212 C1210 1.391 . S
C1212 C1213 1.400 . S
C1213 C1207 1.491 . S
C1213 C1212 1.400 . S
C1213 C1214 1.398 . S
C1214 H1202 0.950 . S
C1214 C1213 1.398 . S
C1214 C1215 1.391 . S
C1215 H1203 0.950 . S
C1215 C1211 1.393 . S
C1215 C1214 1.391 . S
H1216 C1224 0.950 . S
H1217 C1229 0.956 . S
H1218 C1226 0.950 . S
H1219 C1228 0.934 1_465 S
H1220 C1230 0.950 . S
H1221 C1232 0.950 . S
H1222 C1234 0.950 . S
H1223 C1235 0.950 1_655 S
C1224 H1216 0.950 . S
C1224 C1225 1.386 . S
C1224 C1226 1.391 . S
C1225 C1224 1.386 . S
C1225 C1229 1.384 1_545 S
C1226 H1218 0.950 . S
C1226 C1224 1.391 . S
C1226 C1227 1.400 . S
C1227 C1226 1.400 . S
C1227 C1228 1.398 . S
C1227 C1233 1.491 . S
C1228 H1219 0.934 1_645 S
C1228 C1227 1.398 . S
C1228 C1229 1.394 1_545 S
C1229 H1217 0.956 . S
C1229 C1225 1.384 1_565 S
C1229 C1228 1.394 1_565 S
C1230 H1220 0.950 . S
C1230 C1231 1.386 . S
C1230 C1232 1.391 . S
C1231 C1230 1.386 . S
C1231 C1235 1.393 . S
C1232 H1221 0.950 . S
C1232 C1230 1.391 . S
C1232 C1233 1.400 1_455 S
C1233 C1227 1.491 . S
C1233 C1232 1.400 1_655 S
C1233 C1234 1.398 . S
C1234 H1222 0.950 . S
C1234 C1233 1.398 . S
C1234 C1235 1.391 1_655 S
C1235 H1223 0.950 1_455 S
C1235 C1231 1.393 . S
C1235 C1234 1.391 1_455 S
H1236 C1244 0.950 . S
H1237 C1249 0.950 . S
H1238 C1246 0.950 . S
H1239 C1248 0.950 . S
H1240 C1250 0.950 . S
H1241 C1252 0.950 . S
H1242 C1254 0.950 . S
H1243 C1255 0.950 . S
C1244 H1236 0.950 . S
C1244 C1245 1.386 . S
C1244 C1246 1.391 . S
C1245 C1244 1.386 . S
C1245 C1249 1.393 . S
C1246 H1238 0.950 . S
C1246 C1244 1.391 . S
C1246 C1247 1.400 . S
C1247 C1246 1.400 . S
C1247 C1248 1.398 . S
C1247 C1253 1.491 . S
C1248 H1239 0.950 . S
C1248 C1247 1.398 . S
C1248 C1249 1.391 . S
C1249 H1237 0.950 . S
C1249 C1245 1.393 . S
C1249 C1248 1.391 . S
C1250 H1240 0.950 . S
C1250 C1251 1.386 . S
C1250 C1252 1.391 . S
C1251 C1250 1.386 . S
C1251 C1255 1.393 . S
C1252 H1241 0.950 . S
C1252 C1250 1.391 . S
C1252 C1253 1.400 . S
C1253 C1247 1.491 . S
C1253 C1252 1.400 . S
C1253 C1254 1.398 . S
C1254 H1242 0.950 . S
C1254 C1253 1.398 . S
C1254 C1255 1.391 . S
C1255 H1243 0.950 . S
C1255 C1251 1.393 . S
C1255 C1254 1.391 . S
H1256 C1264 0.960 . S
H1257 C1269 0.950 . S
H1258 C1266 0.950 . S
H1259 C1268 0.950 . S
H1260 C1270 0.950 . S
H1261 C1272 0.950 . S
H1262 C1274 0.950 . S
H1263 C1275 0.950 . S
C1264 H1256 0.960 . S
C1264 C1265 1.386 . S
C1264 C1266 1.391 . S
C1265 C1264 1.386 . S
C1265 C1269 1.393 . S
C1266 H1258 0.950 . S
C1266 C1264 1.391 . S
C1266 C1267 1.400 . S
C1267 C1266 1.400 . S
C1267 C1268 1.398 . S
C1267 C1273 1.491 . S
C1268 H1259 0.950 . S
C1268 C1267 1.398 . S
C1268 C1269 1.391 . S
C1269 H1257 0.950 . S
C1269 C1265 1.393 . S
C1269 C1268 1.391 . S
C1270 H1260 0.950 . S
C1270 C1271 1.386 . S
C1270 C1272 1.391 1_554 S
C1271 C1270 1.386 . S
C1271 C1275 1.393 1_554 S
C1272 H1261 0.950 . S
C1272 C1270 1.391 1_556 S
C1272 C1273 1.400 . S
C1273 C1267 1.491 . S
C1273 C1272 1.400 . S
C1273 C1274 1.398 . S
C1274 H1262 0.950 . S
C1274 C1273 1.398 . S
C1274 C1275 1.391 . S
C1275 H1263 0.950 . S
C1275 C1271 1.393 1_556 S
C1275 C1274 1.391 . S
H1276 C1284 0.950 . S
H1277 C1289 0.950 . S
H1278 C1286 0.950 . S
H1279 C1288 0.950 . S
H1280 C1290 0.950 . S
H1281 C1292 0.950 . S
H1282 C1294 0.950 . S
H1283 C1295 0.950 . S
C1284 H1276 0.950 . S
C1284 C1285 1.386 . S
C1284 C1286 1.391 . S
C1285 C1284 1.386 . S
C1285 C1289 1.393 . S
C1286 H1278 0.950 . S
C1286 C1284 1.391 . S
C1286 C1287 1.400 . S
C1287 C1286 1.400 . S
C1287 C1288 1.398 . S
C1287 C1293 1.491 . S
C1288 H1279 0.950 . S
C1288 C1287 1.398 . S
C1288 C1289 1.391 . S
C1289 H1277 0.950 . S
C1289 C1285 1.393 . S
C1289 C1288 1.391 . S
C1290 H1280 0.950 . S
C1290 C1291 1.386 . S
C1290 C1292 1.391 . S
C1291 C1290 1.386 . S
C1291 C1295 1.393 . S
C1292 H1281 0.950 . S
C1292 C1290 1.391 . S
C1292 C1293 1.400 . S
C1293 C1287 1.491 . S
C1293 C1292 1.400 . S
C1293 C1294 1.398 . S
C1294 H1282 0.950 . S
C1294 C1293 1.398 . S
C1294 C1295 1.391 . S
C1295 H1283 0.950 . S
C1295 C1291 1.393 . S
C1295 C1294 1.391 . S
H1296 C1304 0.950 . S
H1297 C1309 0.950 1_556 S
H1298 C1306 0.950 . S
H1299 C1308 0.950 . S
H1300 C1310 0.950 . S
H1301 C1312 0.950 . S
H1302 C1314 0.950 . S
H1303 C1315 0.950 . S
C1304 H1296 0.950 . S
C1304 C1305 1.386 . S
C1304 C1306 1.391 . S
C1305 C1304 1.386 . S
C1305 C1309 1.393 . S
C1306 H1298 0.950 . S
C1306 C1304 1.391 . S
C1306 C1307 1.400 . S
C1307 C1306 1.400 . S
C1307 C1308 1.398 . S
C1307 C1313 1.491 . S
C1308 H1299 0.950 . S
C1308 C1307 1.398 . S
C1308 C1309 1.391 . S
C1309 H1297 0.950 1_554 S
C1309 C1305 1.393 . S
C1309 C1308 1.391 . S
C1310 H1300 0.950 . S
C1310 C1311 1.386 . S
C1310 C1312 1.391 . S
C1311 C1310 1.386 . S
C1311 C1315 1.393 . S
C1312 H1301 0.950 . S
C1312 C1310 1.391 . S
C1312 C1313 1.400 . S
C1313 C1307 1.491 . S
C1313 C1312 1.400 . S
C1313 C1314 1.398 . S
C1314 H1302 0.950 . S
C1314 C1313 1.398 . S
C1314 C1315 1.391 . S
C1315 H1303 0.950 . S
C1315 C1311 1.393 . S
C1315 C1314 1.391 . S
H1316 C1324 0.950 . S
H1317 C1329 0.950 . S
H1318 C1326 0.950 . S
H1319 C1328 0.950 . S
H1320 C1330 0.950 . S
H1321 C1332 0.950 . S
H1322 C1334 0.950 . S
H1323 C1335 0.950 . S
C1324 H1316 0.950 . S
C1324 C1325 1.386 . S
C1324 C1326 1.391 . S
C1325 C1324 1.386 . S
C1325 C1329 1.393 . S
C1326 H1318 0.950 . S
C1326 C1324 1.391 . S
C1326 C1327 1.400 . S
C1327 C1326 1.400 . S
C1327 C1328 1.398 . S
C1327 C1333 1.491 . S
C1328 H1319 0.950 . S
C1328 C1327 1.398 . S
C1328 C1329 1.391 . S
C1329 H1317 0.950 . S
C1329 C1325 1.393 . S
C1329 C1328 1.391 . S
C1330 H1320 0.950 . S
C1330 C1331 1.386 . S
C1330 C1332 1.391 . S
C1331 C1330 1.386 . S
C1331 C1335 1.393 . S
C1332 H1321 0.950 . S
C1332 C1330 1.391 . S
C1332 C1333 1.400 . S
C1333 C1327 1.491 . S
C1333 C1332 1.400 . S
C1333 C1334 1.398 . S
C1334 H1322 0.950 . S
C1334 C1333 1.398 . S
C1334 C1335 1.391 . S
C1335 H1323 0.950 . S
C1335 C1331 1.393 . S
C1335 C1334 1.391 . S
H1336 C1344 0.950 . S
H1337 C1349 0.950 . S
H1338 C1346 0.950 . S
H1339 C1348 0.950 . S
H1340 C1350 0.950 . S
H1341 C1352 0.950 . S
H1342 C1354 0.950 . S
H1343 C1355 0.950 . S
C1344 H1336 0.950 . S
C1344 C1345 1.386 . S
C1344 C1346 1.391 . S
C1345 C1344 1.386 . S
C1345 C1349 1.393 . S
C1346 H1338 0.950 . S
C1346 C1344 1.391 . S
C1346 C1347 1.400 . S
C1347 C1346 1.400 . S
C1347 C1348 1.398 . S
C1347 C1353 1.491 . S
C1348 H1339 0.950 . S
C1348 C1347 1.398 . S
C1348 C1349 1.391 . S
C1349 H1337 0.950 . S
C1349 C1345 1.393 . S
C1349 C1348 1.391 . S
C1350 H1340 0.950 . S
C1350 C1351 1.386 . S
C1350 C1352 1.391 . S
C1351 C1350 1.386 . S
C1351 C1355 1.393 . S
C1352 H1341 0.950 . S
C1352 C1350 1.391 . S
C1352 C1353 1.400 . S
C1353 C1347 1.491 . S
C1353 C1352 1.400 . S
C1353 C1354 1.398 . S
C1354 H1342 0.950 . S
C1354 C1353 1.398 . S
C1354 C1355 1.391 . S
C1355 H1343 0.950 . S
C1355 C1351 1.393 . S
C1355 C1354 1.391 . S
H1356 C1364 0.950 . S
H1357 C1369 0.950 . S
H1358 C1366 0.950 . S
H1359 C1368 0.950 . S
H1360 C1370 0.950 . S
H1361 C1372 0.950 . S
H1362 C1374 0.950 . S
H1363 C1375 0.950 . S
C1364 H1356 0.950 . S
C1364 C1365 1.386 . S
C1364 C1366 1.391 . S
C1365 C1364 1.386 . S
C1365 C1369 1.393 . S
C1366 H1358 0.950 . S
C1366 C1364 1.391 . S
C1366 C1367 1.400 . S
C1367 C1366 1.400 . S
C1367 C1368 1.398 . S
C1367 C1373 1.491 . S
C1368 H1359 0.950 . S
C1368 C1367 1.398 . S
C1368 C1369 1.391 . S
C1369 H1357 0.950 . S
C1369 C1365 1.393 . S
C1369 C1368 1.391 . S
C1370 H1360 0.950 . S
C1370 C1371 1.386 . S
C1370 C1372 1.391 . S
C1371 C1370 1.386 . S
C1371 C1375 1.393 . S
C1372 H1361 0.950 . S
C1372 C1370 1.391 . S
C1372 C1373 1.400 . S
C1373 C1367 1.491 . S
C1373 C1372 1.400 . S
C1373 C1374 1.398 . S
C1374 H1362 0.950 . S
C1374 C1373 1.398 . S
C1374 C1375 1.391 . S
C1375 H1363 0.950 . S
C1375 C1371 1.393 . S
C1375 C1374 1.391 . S
H1376 C1384 0.950 . S
H1377 C1389 0.950 . S
H1378 C1386 0.950 . S
H1379 C1388 0.950 . S
H1380 C1390 0.950 . S
H1381 C1392 0.950 . S
H1382 C1394 0.950 . S
H1383 C1395 0.950 . S
C1384 H1376 0.950 . S
C1384 C1385 1.386 . S
C1384 C1386 1.391 . S
C1385 C1384 1.386 . S
C1385 C1389 1.393 . S
C1386 H1378 0.950 . S
C1386 C1384 1.391 . S
C1386 C1387 1.400 . S
C1387 C1386 1.400 . S
C1387 C1388 1.398 . S
C1387 C1393 1.491 . S
C1388 H1379 0.950 . S
C1388 C1387 1.398 . S
C1388 C1389 1.391 . S
C1389 H1377 0.950 . S
C1389 C1385 1.393 . S
C1389 C1388 1.391 . S
C1390 H1380 0.950 . S
C1390 C1391 1.386 . S
C1390 C1392 1.391 . S
C1391 C1390 1.386 . S
C1391 C1395 1.393 . S
C1392 H1381 0.950 . S
C1392 C1390 1.391 . S
C1392 C1393 1.400 . S
C1393 C1387 1.491 . S
C1393 C1392 1.400 . S
C1393 C1394 1.398 . S
C1394 H1382 0.950 . S
C1394 C1393 1.398 . S
C1394 C1395 1.391 . S
C1395 H1383 0.950 . S
C1395 C1391 1.393 . S
C1395 C1394 1.391 . S
H1396 C1404 0.950 . S
H1397 C1409 0.950 . S
H1398 C1406 0.950 . S
H1399 C1408 0.950 . S
H1400 C1410 0.950 . S
H1401 C1412 0.950 . S
H1402 C1414 0.950 . S
H1403 C1415 0.950 . S
C1404 H1396 0.950 . S
C1404 C1405 1.386 . S
C1404 C1406 1.391 . S
C1405 C1404 1.386 . S
C1405 C1409 1.393 . S
C1406 H1398 0.950 . S
C1406 C1404 1.391 . S
C1406 C1407 1.400 . S
C1407 C1406 1.400 . S
C1407 C1408 1.398 . S
C1407 C1413 1.491 . S
C1408 H1399 0.950 . S
C1408 C1407 1.398 . S
C1408 C1409 1.391 . S
C1409 H1397 0.950 . S
C1409 C1405 1.393 . S
C1409 C1408 1.391 . S
C1410 H1400 0.950 . S
C1410 C1411 1.386 . S
C1410 C1412 1.391 . S
C1411 C1410 1.386 . S
C1411 C1415 1.393 . S
C1412 H1401 0.950 . S
C1412 C1410 1.391 . S
C1412 C1413 1.400 . S
C1413 C1407 1.491 . S
C1413 C1412 1.400 . S
C1413 C1414 1.398 . S
C1414 H1402 0.950 . S
C1414 C1413 1.398 . S
C1414 C1415 1.391 . S
C1415 H1403 0.950 . S
C1415 C1411 1.393 . S
C1415 C1414 1.391 . S
H1416 C1424 0.950 . S
H1417 C1429 0.950 . S
H1418 C1426 0.950 . S
H1419 C1428 0.950 . S
H1420 C1430 0.950 . S
H1421 C1432 0.950 . S
H1422 C1434 0.950 . S
H1423 C1435 0.950 . S
C1424 H1416 0.950 . S
C1424 C1425 1.386 . S
C1424 C1426 1.391 . S
C1425 C1424 1.386 . S
C1425 C1429 1.393 . S
C1426 H1418 0.950 . S
C1426 C1424 1.391 . S
C1426 C1427 1.400 . S
C1427 C1426 1.400 . S
C1427 C1428 1.398 . S
C1427 C1433 1.491 . S
C1428 H1419 0.950 . S
C1428 C1427 1.398 . S
C1428 C1429 1.391 . S
C1429 H1417 0.950 . S
C1429 C1425 1.393 . S
C1429 C1428 1.391 . S
C1430 H1420 0.950 . S
C1430 C1431 1.386 . S
C1430 C1432 1.391 . S
C1431 C1430 1.386 . S
C1431 C1435 1.393 . S
C1432 H1421 0.950 . S
C1432 C1430 1.391 . S
C1432 C1433 1.400 . S
C1433 C1427 1.491 . S
C1433 C1432 1.400 . S
C1433 C1434 1.398 . S
C1434 H1422 0.950 . S
C1434 C1433 1.398 . S
C1434 C1435 1.391 . S
C1435 H1423 0.950 . S
C1435 C1431 1.393 . S
C1435 C1434 1.391 . S
H1436 C1444 0.950 . S
H1437 C1449 0.950 . S
H1438 C1446 0.950 . S
H1439 C1448 0.950 . S
H1440 C1450 0.950 . S
H1441 C1452 0.950 . S
H1442 C1454 0.950 . S
H1443 C1455 0.950 . S
C1444 H1436 0.950 . S
C1444 C1445 1.386 . S
C1444 C1446 1.391 . S
C1445 C1444 1.386 . S
C1445 C1449 1.393 . S
C1446 H1438 0.950 . S
C1446 C1444 1.391 . S
C1446 C1447 1.400 . S
C1447 C1446 1.400 . S
C1447 C1448 1.398 . S
C1447 C1453 1.491 . S
C1448 H1439 0.950 . S
C1448 C1447 1.398 . S
C1448 C1449 1.391 . S
C1449 H1437 0.950 . S
C1449 C1445 1.393 . S
C1449 C1448 1.391 . S
C1450 H1440 0.950 . S
C1450 C1451 1.386 . S
C1450 C1452 1.391 . S
C1451 C1450 1.386 . S
C1451 C1455 1.393 . S
C1452 H1441 0.950 . S
C1452 C1450 1.391 . S
C1452 C1453 1.400 . S
C1453 C1447 1.491 . S
C1453 C1452 1.400 . S
C1453 C1454 1.398 . S
C1454 H1442 0.950 . S
C1454 C1453 1.398 . S
C1454 C1455 1.391 . S
C1455 H1443 0.950 . S
C1455 C1451 1.393 . S
C1455 C1454 1.391 . S
H1456 C1464 0.950 . S
H1457 C1469 0.950 . S
H1458 C1466 0.950 . S
H1459 C1468 0.950 . S
H1460 C1470 0.950 . S
H1461 C1472 0.950 . S
H1462 C1474 0.950 . S
H1463 C1475 0.950 . S
C1464 H1456 0.950 . S
C1464 C1465 1.386 . S
C1464 C1466 1.391 . S
C1465 C1464 1.386 . S
C1465 C1469 1.393 . S
C1466 H1458 0.950 . S
C1466 C1464 1.391 . S
C1466 C1467 1.400 . S
C1467 C1466 1.400 . S
C1467 C1468 1.398 . S
C1467 C1473 1.491 . S
C1468 H1459 0.950 . S
C1468 C1467 1.398 . S
C1468 C1469 1.391 . S
C1469 H1457 0.950 . S
C1469 C1465 1.393 . S
C1469 C1468 1.391 . S
C1470 H1460 0.950 . S
C1470 C1471 1.386 . S
C1470 C1472 1.391 . S
C1471 C1470 1.386 . S
C1471 C1475 1.393 . S
C1472 H1461 0.950 . S
C1472 C1470 1.391 . S
C1472 C1473 1.400 . S
C1473 C1467 1.491 . S
C1473 C1472 1.400 . S
C1473 C1474 1.398 . S
C1474 H1462 0.950 . S
C1474 C1473 1.398 . S
C1474 C1475 1.391 . S
C1475 H1463 0.950 . S
C1475 C1471 1.393 . S
C1475 C1474 1.391 . S
H1476 C1484 0.950 . S
H1477 C1489 0.950 . S
H1478 C1486 0.950 . S
H1479 C1488 0.950 . S
H1480 C1490 0.950 . S
H1481 C1492 0.950 . S
H1482 C1494 0.950 . S
H1483 C1495 0.950 . S
C1484 H1476 0.950 . S
C1484 C1485 1.386 . S
C1484 C1486 1.391 . S
C1485 C1484 1.386 . S
C1485 C1489 1.393 . S
C1486 H1478 0.950 . S
C1486 C1484 1.391 . S
C1486 C1487 1.400 . S
C1487 C1486 1.400 . S
C1487 C1488 1.398 . S
C1487 C1493 1.491 . S
C1488 H1479 0.950 . S
C1488 C1487 1.398 . S
C1488 C1489 1.391 . S
C1489 H1477 0.950 . S
C1489 C1485 1.393 . S
C1489 C1488 1.391 . S
C1490 H1480 0.950 . S
C1490 C1491 1.386 . S
C1490 C1492 1.391 . S
C1491 C1490 1.386 . S
C1491 C1495 1.393 . S
C1492 H1481 0.950 . S
C1492 C1490 1.391 . S
C1492 C1493 1.400 . S
C1493 C1487 1.491 . S
C1493 C1492 1.400 . S
C1493 C1494 1.398 . S
C1494 H1482 0.950 . S
C1494 C1493 1.398 . S
C1494 C1495 1.391 . S
C1495 H1483 0.950 . S
C1495 C1491 1.393 . S
C1495 C1494 1.391 . S
H1496 C1504 0.950 . S
H1497 C1509 0.950 . S
H1498 C1506 0.950 . S
H1499 C1508 0.950 . S
H1500 C1510 0.950 . S
H1501 C1512 0.950 . S
H1502 C1514 0.950 . S
H1503 C1515 0.950 . S
C1504 H1496 0.950 . S
C1504 C1505 1.386 . S
C1504 C1506 1.391 . S
C1505 C1504 1.386 . S
C1505 C1509 1.393 . S
C1506 H1498 0.950 . S
C1506 C1504 1.391 . S
C1506 C1507 1.400 . S
C1507 C1506 1.400 . S
C1507 C1508 1.398 . S
C1507 C1513 1.491 . S
C1508 H1499 0.950 . S
C1508 C1507 1.398 . S
C1508 C1509 1.391 . S
C1509 H1497 0.950 . S
C1509 C1505 1.393 . S
C1509 C1508 1.391 . S
C1510 H1500 0.950 . S
C1510 C1511 1.386 . S
C1510 C1512 1.391 . S
C1511 C1510 1.386 . S
C1511 C1515 1.393 . S
C1512 H1501 0.950 . S
C1512 C1510 1.391 . S
C1512 C1513 1.400 . S
C1513 C1507 1.491 . S
C1513 C1512 1.400 . S
C1513 C1514 1.398 . S
C1514 H1502 0.950 . S
C1514 C1513 1.398 . S
C1514 C1515 1.391 . S
C1515 H1503 0.950 . S
C1515 C1511 1.393 . S
C1515 C1514 1.391 . S
H1516 C1524 0.950 . S
H1517 C1529 0.950 . S
H1518 C1526 0.950 . S
H1519 C1528 0.950 . S
H1520 C1530 0.950 . S
H1521 C1532 0.950 . S
H1522 C1534 0.950 . S
H1523 C1535 0.950 . S
C1524 H1516 0.950 . S
C1524 C1525 1.386 . S
C1524 C1526 1.391 . S
C1525 C1524 1.386 . S
C1525 C1529 1.393 . S
C1526 H1518 0.950 . S
C1526 C1524 1.391 . S
C1526 C1527 1.400 . S
C1527 C1526 1.400 . S
C1527 C1528 1.398 . S
C1527 C1533 1.491 . S
C1528 H1519 0.950 . S
C1528 C1527 1.398 . S
C1528 C1529 1.391 . S
C1529 H1517 0.950 . S
C1529 C1525 1.393 . S
C1529 C1528 1.391 . S
C1530 H1520 0.950 . S
C1530 C1531 1.386 . S
C1530 C1532 1.391 . S
C1531 C1530 1.386 . S
C1531 C1535 1.393 . S
C1532 H1521 0.950 . S
C1532 C1530 1.391 . S
C1532 C1533 1.400 . S
C1533 C1527 1.491 . S
C1533 C1532 1.400 . S
C1533 C1534 1.398 . S
C1534 H1522 0.950 . S
C1534 C1533 1.398 . S
C1534 C1535 1.391 . S
C1535 H1523 0.950 . S
C1535 C1531 1.393 . S
C1535 C1534 1.391 . S
H1536 C1544 0.950 . S
H1537 C1549 0.950 . S
H1538 C1546 0.950 . S
H1539 C1548 0.950 . S
H1540 C1550 0.950 . S
H1541 C1552 0.950 . S
H1542 C1554 0.950 . S
H1543 C1555 0.950 . S
C1544 H1536 0.950 . S
C1544 C1545 1.386 . S
C1544 C1546 1.391 . S
C1545 C1544 1.386 . S
C1545 C1549 1.393 1_655 S
C1546 H1538 0.950 . S
C1546 C1544 1.391 . S
C1546 C1547 1.400 1_655 S
C1547 C1546 1.400 1_455 S
C1547 C1548 1.398 . S
C1547 C1553 1.491 . S
C1548 H1539 0.950 . S
C1548 C1547 1.398 . S
C1548 C1549 1.391 . S
C1549 H1537 0.950 . S
C1549 C1545 1.393 1_455 S
C1549 C1548 1.391 . S
C1550 H1540 0.950 . S
C1550 C1551 1.386 . S
C1550 C1552 1.391 . S
C1551 C1550 1.386 . S
C1551 C1555 1.393 1_455 S
C1552 H1541 0.950 . S
C1552 C1550 1.391 . S
C1552 C1553 1.400 . S
C1553 C1547 1.491 . S
C1553 C1552 1.400 . S
C1553 C1554 1.398 1_455 S
C1554 H1542 0.950 . S
C1554 C1553 1.398 1_655 S
C1554 C1555 1.391 . S
C1555 H1543 0.950 . S
C1555 C1551 1.393 1_655 S
C1555 C1554 1.391 . S
H1556 C1564 0.950 . S
H1557 C1569 0.950 . S
H1558 C1566 0.950 . S
H1559 C1568 0.950 . S
H1560 C1570 0.950 . S
H1561 C1572 0.950 . S
H1562 C1574 0.950 . S
H1563 C1575 0.950 . S
C1564 H1556 0.950 . S
C1564 C1565 1.386 . S
C1564 C1566 1.391 . S
C1565 C1564 1.386 . S
C1565 C1569 1.393 . S
C1566 H1558 0.950 . S
C1566 C1564 1.391 . S
C1566 C1567 1.400 . S
C1567 C1566 1.400 . S
C1567 C1568 1.398 . S
C1567 C1573 1.491 . S
C1568 H1559 0.950 . S
C1568 C1567 1.398 . S
C1568 C1569 1.391 . S
C1569 H1557 0.950 . S
C1569 C1565 1.393 . S
C1569 C1568 1.391 . S
C1570 H1560 0.950 . S
C1570 C1571 1.386 . S
C1570 C1572 1.391 . S
C1571 C1570 1.386 . S
C1571 C1575 1.393 . S
C1572 H1561 0.950 . S
C1572 C1570 1.391 . S
C1572 C1573 1.400 . S
C1573 C1567 1.491 . S
C1573 C1572 1.400 . S
C1573 C1574 1.398 . S
C1574 H1562 0.950 . S
C1574 C1573 1.398 . S
C1574 C1575 1.391 . S
C1575 H1563 0.950 . S
C1575 C1571 1.393 . S
C1575 C1574 1.391 . S
H1576 C1584 0.950 . S
H1577 C1589 0.950 . S
H1578 C1586 0.950 . S
H1579 C1588 0.950 . S
H1580 C1590 0.950 . S
H1581 C1592 0.950 . S
H1582 C1594 0.950 . S
H1583 C1595 0.950 . S
C1584 H1576 0.950 . S
C1584 C1585 1.386 . S
C1584 C1586 1.391 . S
C1585 C1584 1.386 . S
C1585 C1589 1.393 . S
C1586 H1578 0.950 . S
C1586 C1584 1.391 . S
C1586 C1587 1.400 . S
C1587 C1586 1.400 . S
C1587 C1588 1.398 . S
C1587 C1593 1.491 . S
C1588 H1579 0.950 . S
C1588 C1587 1.398 . S
C1588 C1589 1.391 . S
C1589 H1577 0.950 . S
C1589 C1585 1.393 . S
C1589 C1588 1.391 . S
C1590 H1580 0.950 . S
C1590 C1591 1.386 . S
C1590 C1592 1.391 1_554 S
C1591 C1590 1.386 . S
C1591 C1595 1.393 . S
C1592 H1581 0.950 . S
C1592 C1590 1.391 1_556 S
C1592 C1593 1.400 . S
C1593 C1587 1.491 . S
C1593 C1592 1.400 . S
C1593 C1594 1.398 1_556 S
C1594 H1582 0.950 . S
C1594 C1593 1.398 1_554 S
C1594 C1595 1.391 . S
C1595 H1583 0.950 . S
C1595 C1591 1.393 . S
C1595 C1594 1.391 . S
H1596 C1604 0.950 . S
H1597 C1609 0.950 . S
H1598 C1606 0.950 . S
H1599 C1608 0.950 . S
H1600 C1610 0.950 . S
H1601 C1612 0.950 . S
H1602 C1614 0.950 . S
H1603 C1615 0.950 . S
C1604 H1596 0.950 . S
C1604 C1605 1.386 1_455 S
C1604 C1606 1.391 1_455 S
C1605 C1604 1.386 1_655 S
C1605 C1609 1.393 . S
C1606 H1598 0.950 . S
C1606 C1604 1.391 1_655 S
C1606 C1607 1.400 . S
C1607 C1606 1.400 . S
C1607 C1608 1.398 . S
C1607 C1613 1.491 . S
C1608 H1599 0.950 . S
C1608 C1607 1.398 . S
C1608 C1609 1.391 . S
C1609 H1597 0.950 . S
C1609 C1605 1.393 . S
C1609 C1608 1.391 . S
C1610 H1600 0.950 . S
C1610 C1611 1.386 . S
C1610 C1612 1.391 . S
C1611 C1610 1.386 . S
C1611 C1615 1.393 . S
C1612 H1601 0.950 . S
C1612 C1610 1.391 . S
C1612 C1613 1.400 . S
C1613 C1607 1.491 . S
C1613 C1612 1.400 . S
C1613 C1614 1.398 . S
C1614 H1602 0.950 . S
C1614 C1613 1.398 . S
C1614 C1615 1.391 . S
C1615 H1603 0.950 . S
C1615 C1611 1.393 . S
C1615 C1614 1.391 . S
H1616 C1624 0.950 . S
H1617 C1629 0.950 . S
H1618 C1626 0.950 . S
H1619 C1628 0.950 . S
H1620 C1630 0.950 1_554 S
H1621 C1632 0.950 . S
H1622 C1634 0.950 . S
H1623 C1635 0.950 . S
C1624 H1616 0.950 . S
C1624 C1625 1.386 . S
C1624 C1626 1.391 . S
C1625 C1624 1.386 . S
C1625 C1629 1.393 . S
C1626 H1618 0.950 . S
C1626 C1624 1.391 . S
C1626 C1627 1.400 . S
C1627 C1626 1.400 . S
C1627 C1628 1.398 . S
C1627 C1633 1.491 . S
C1628 H1619 0.950 . S
C1628 C1627 1.398 . S
C1628 C1629 1.391 . S
C1629 H1617 0.950 . S
C1629 C1625 1.393 . S
C1629 C1628 1.391 . S
C1630 H1620 0.950 1_556 S
C1630 C1631 1.386 . S
C1630 C1632 1.391 . S
C1631 C1630 1.386 . S
C1631 C1635 1.393 . S
C1632 H1621 0.950 . S
C1632 C1630 1.391 . S
C1632 C1633 1.400 . S
C1633 C1627 1.491 . S
C1633 C1632 1.400 . S
C1633 C1634 1.398 . S
C1634 H1622 0.950 . S
C1634 C1633 1.398 . S
C1634 C1635 1.391 . S
C1635 H1623 0.950 . S
C1635 C1631 1.393 . S
C1635 C1634 1.391 . S
H1636 C1644 0.950 . S
H1637 C1649 0.950 . S
H1638 C1646 0.950 . S
H1639 C1648 0.950 . S
H1640 C1650 0.950 . S
H1641 C1652 0.950 . S
H1642 C1654 0.950 . S
H1643 C1655 0.950 . S
C1644 H1636 0.950 . S
C1644 C1645 1.386 . S
C1644 C1646 1.391 . S
C1645 C1644 1.386 . S
C1645 C1649 1.393 . S
C1646 H1638 0.950 . S
C1646 C1644 1.391 . S
C1646 C1647 1.400 . S
C1647 C1646 1.400 . S
C1647 C1648 1.398 . S
C1647 C1653 1.491 . S
C1648 H1639 0.950 . S
C1648 C1647 1.398 . S
C1648 C1649 1.391 . S
C1649 H1637 0.950 . S
C1649 C1645 1.393 . S
C1649 C1648 1.391 . S
C1650 H1640 0.950 . S
C1650 C1651 1.386 . S
C1650 C1652 1.391 . S
C1651 C1650 1.386 . S
C1651 C1655 1.393 . S
C1652 H1641 0.950 . S
C1652 C1650 1.391 . S
C1652 C1653 1.400 . S
C1653 C1647 1.491 . S
C1653 C1652 1.400 . S
C1653 C1654 1.398 . S
C1654 H1642 0.950 . S
C1654 C1653 1.398 . S
C1654 C1655 1.391 . S
C1655 H1643 0.950 . S
C1655 C1651 1.393 . S
C1655 C1654 1.391 . S
H1656 C1664 0.950 . S
H1657 C1669 0.950 . S
H1658 C1666 0.950 . S
H1659 C1668 0.950 . S
H1660 C1670 0.950 . S
H1661 C1672 0.950 . S
H1662 C1674 0.950 . S
H1663 C1675 0.950 . S
C1664 H1656 0.950 . S
C1664 C1665 1.386 . S
C1664 C1666 1.391 . S
C1665 C1664 1.386 . S
C1665 C1669 1.393 . S
C1666 H1658 0.950 . S
C1666 C1664 1.391 . S
C1666 C1667 1.400 . S
C1667 C1666 1.400 . S
C1667 C1668 1.398 . S
C1667 C1673 1.491 . S
C1668 H1659 0.950 . S
C1668 C1667 1.398 . S
C1668 C1669 1.391 . S
C1669 H1657 0.950 . S
C1669 C1665 1.393 . S
C1669 C1668 1.391 . S
C1670 H1660 0.950 . S
C1670 C1671 1.386 . S
C1670 C1672 1.391 . S
C1671 C1670 1.386 . S
C1671 C1675 1.393 . S
C1672 H1661 0.950 . S
C1672 C1670 1.391 . S
C1672 C1673 1.400 . S
C1673 C1667 1.491 . S
C1673 C1672 1.400 . S
C1673 C1674 1.398 . S
C1674 H1662 0.950 . S
C1674 C1673 1.398 . S
C1674 C1675 1.391 . S
C1675 H1663 0.950 . S
C1675 C1671 1.393 . S
C1675 C1674 1.391 . S
H1676 C1684 0.950 . S
H1677 C1689 0.950 . S
H1678 C1686 0.950 . S
H1679 C1688 0.950 . S
H1680 C1690 0.950 . S
H1681 C1692 0.950 . S
H1682 C1694 0.950 . S
H1683 C1695 0.950 . S
C1684 H1676 0.950 . S
C1684 C1685 1.386 . S
C1684 C1686 1.391 . S
C1685 C1684 1.386 . S
C1685 C1689 1.393 . S
C1686 H1678 0.950 . S
C1686 C1684 1.391 . S
C1686 C1687 1.400 . S
C1687 C1686 1.400 . S
C1687 C1688 1.398 . S
C1687 C1693 1.491 . S
C1688 H1679 0.950 . S
C1688 C1687 1.398 . S
C1688 C1689 1.391 . S
C1689 H1677 0.950 . S
C1689 C1685 1.393 . S
C1689 C1688 1.391 . S
C1690 H1680 0.950 . S
C1690 C1691 1.386 . S
C1690 C1692 1.391 . S
C1691 C1690 1.386 . S
C1691 C1695 1.393 . S
C1692 H1681 0.950 . S
C1692 C1690 1.391 . S
C1692 C1693 1.400 . S
C1693 C1687 1.491 . S
C1693 C1692 1.400 . S
C1693 C1694 1.398 . S
C1694 H1682 0.950 . S
C1694 C1693 1.398 . S
C1694 C1695 1.391 . S
C1695 H1683 0.950 . S
C1695 C1691 1.393 . S
C1695 C1694 1.391 . S
H1696 C1704 0.950 . S
H1697 C1709 0.950 . S
H1698 C1706 0.950 . S
H1699 C1708 0.950 . S
H1700 C1710 0.950 . S
H1701 C1712 0.950 . S
H1702 C1714 0.950 . S
H1703 C1715 0.950 . S
C1704 H1696 0.950 . S
C1704 C1705 1.386 . S
C1704 C1706 1.391 . S
C1705 C1704 1.386 . S
C1705 C1709 1.393 . S
C1706 H1698 0.950 . S
C1706 C1704 1.391 . S
C1706 C1707 1.400 . S
C1707 C1706 1.400 . S
C1707 C1708 1.398 . S
C1707 C1713 1.491 . S
C1708 H1699 0.950 . S
C1708 C1707 1.398 . S
C1708 C1709 1.391 . S
C1709 H1697 0.950 . S
C1709 C1705 1.393 . S
C1709 C1708 1.391 . S
C1710 H1700 0.950 . S
C1710 C1711 1.386 . S
C1710 C1712 1.391 . S
C1711 C1710 1.386 . S
C1711 C1715 1.393 . S
C1712 H1701 0.950 . S
C1712 C1710 1.391 . S
C1712 C1713 1.400 . S
C1713 C1707 1.491 . S
C1713 C1712 1.400 . S
C1713 C1714 1.398 . S
C1714 H1702 0.950 . S
C1714 C1713 1.398 . S
C1714 C1715 1.391 . S
C1715 H1703 0.950 . S
C1715 C1711 1.393 . S
C1715 C1714 1.391 . S
H1716 C1724 0.950 . S
H1717 C1729 0.950 . S
H1718 C1726 0.950 . S
H1719 C1728 0.950 . S
H1720 C1730 0.950 . S
H1721 C1732 0.950 . S
H1722 C1734 0.950 . S
H1723 C1735 0.950 . S
C1724 H1716 0.950 . S
C1724 C1725 1.386 . S
C1724 C1726 1.391 . S
C1725 C1724 1.386 . S
C1725 C1729 1.393 . S
C1726 H1718 0.950 . S
C1726 C1724 1.391 . S
C1726 C1727 1.400 . S
C1727 C1726 1.400 . S
C1727 C1728 1.398 . S
C1727 C1733 1.491 . S
C1728 H1719 0.950 . S
C1728 C1727 1.398 . S
C1728 C1729 1.391 . S
C1729 H1717 0.950 . S
C1729 C1725 1.393 . S
C1729 C1728 1.391 . S
C1730 H1720 0.950 . S
C1730 C1731 1.386 . S
C1730 C1732 1.391 . S
C1731 C1730 1.386 . S
C1731 C1735 1.393 . S
C1732 H1721 0.950 . S
C1732 C1730 1.391 . S
C1732 C1733 1.400 . S
C1733 C1727 1.491 . S
C1733 C1732 1.400 . S
C1733 C1734 1.398 . S
C1734 H1722 0.950 . S
C1734 C1733 1.398 . S
C1734 C1735 1.391 . S
C1735 H1723 0.950 . S
C1735 C1731 1.393 . S
C1735 C1734 1.391 . S
H1736 C1744 0.950 . S
H1737 C1749 0.950 . S
H1738 C1746 0.950 . S
H1739 C1748 0.950 . S
H1740 C1750 0.950 . S
H1741 C1752 0.950 . S
H1742 C1754 0.950 . S
H1743 C1755 0.950 . S
C1744 H1736 0.950 . S
C1744 C1745 1.386 . S
C1744 C1746 1.391 . S
C1745 C1744 1.386 . S
C1745 C1749 1.393 1_545 S
C1746 H1738 0.950 . S
C1746 C1744 1.391 . S
C1746 C1747 1.400 . S
C1747 C1746 1.400 . S
C1747 C1748 1.398 1_545 S
C1747 C1753 1.491 . S
C1748 H1739 0.950 . S
C1748 C1747 1.398 1_565 S
C1748 C1749 1.391 . S
C1749 H1737 0.950 . S
C1749 C1745 1.393 1_565 S
C1749 C1748 1.391 . S
C1750 H1740 0.950 . S
C1750 C1751 1.386 1_565 S
C1750 C1752 1.391 . S
C1751 C1750 1.386 1_545 S
C1751 C1755 1.393 . S
C1752 H1741 0.950 . S
C1752 C1750 1.391 . S
C1752 C1753 1.400 1_565 S
C1753 C1747 1.491 . S
C1753 C1752 1.400 1_545 S
C1753 C1754 1.398 . S
C1754 H1742 0.950 . S
C1754 C1753 1.398 . S
C1754 C1755 1.391 . S
C1755 H1743 0.950 . S
C1755 C1751 1.393 . S
C1755 C1754 1.391 . S
H1756 C1764 0.950 . S
H1757 C1769 0.950 . S
H1758 C1766 0.950 . S
H1759 C1768 0.950 . S
H1760 C1770 0.950 . S
H1761 C1772 0.950 . S
H1762 C1774 0.950 . S
H1763 C1775 0.950 . S
C1764 H1756 0.950 . S
C1764 C1765 1.386 . S
C1764 C1766 1.391 . S
C1765 C1764 1.386 . S
C1765 C1769 1.393 . S
C1766 H1758 0.950 . S
C1766 C1764 1.391 . S
C1766 C1767 1.400 . S
C1767 C1766 1.400 . S
C1767 C1768 1.398 . S
C1767 C1773 1.491 . S
C1768 H1759 0.950 . S
C1768 C1767 1.398 . S
C1768 C1769 1.391 . S
C1769 H1757 0.950 . S
C1769 C1765 1.393 . S
C1769 C1768 1.391 . S
C1770 H1760 0.950 . S
C1770 C1771 1.386 . S
C1770 C1772 1.391 . S
C1771 C1770 1.386 . S
C1771 C1775 1.393 . S
C1772 H1761 0.950 . S
C1772 C1770 1.391 . S
C1772 C1773 1.400 . S
C1773 C1767 1.491 . S
C1773 C1772 1.400 . S
C1773 C1774 1.398 . S
C1774 H1762 0.950 . S
C1774 C1773 1.398 . S
C1774 C1775 1.391 . S
C1775 H1763 0.950 . S
C1775 C1771 1.393 . S
C1775 C1774 1.391 . S
H1776 C1784 0.950 . S
H1777 C1789 0.950 . S
H1778 C1786 0.950 . S
H1779 C1788 0.950 . S
H1780 C1790 0.950 . S
H1781 C1792 0.950 . S
H1782 C1794 0.950 . S
H1783 C1795 0.950 . S
C1784 H1776 0.950 . S
C1784 C1785 1.386 . S
C1784 C1786 1.391 . S
C1785 C1784 1.386 . S
C1785 C1789 1.393 . S
C1786 H1778 0.950 . S
C1786 C1784 1.391 . S
C1786 C1787 1.400 . S
C1787 C1786 1.400 . S
C1787 C1788 1.398 . S
C1787 C1793 1.491 . S
C1788 H1779 0.950 . S
C1788 C1787 1.398 . S
C1788 C1789 1.391 . S
C1789 H1777 0.950 . S
C1789 C1785 1.393 . S
C1789 C1788 1.391 . S
C1790 H1780 0.950 . S
C1790 C1791 1.386 . S
C1790 C1792 1.391 . S
C1791 C1790 1.386 . S
C1791 C1795 1.393 . S
C1792 H1781 0.950 . S
C1792 C1790 1.391 . S
C1792 C1793 1.400 . S
C1793 C1787 1.491 . S
C1793 C1792 1.400 . S
C1793 C1794 1.398 . S
C1794 H1782 0.950 . S
C1794 C1793 1.398 . S
C1794 C1795 1.391 . S
C1795 H1783 0.950 . S
C1795 C1791 1.393 . S
C1795 C1794 1.391 . S
H1796 C1804 0.950 . S
H1797 C1809 0.950 . S
H1798 C1806 0.950 . S
H1799 C1808 0.950 . S
H1800 C1810 0.950 . S
H1801 C1812 0.950 . S
H1802 C1814 0.950 . S
H1803 C1815 0.950 . S
C1804 H1796 0.950 . S
C1804 C1805 1.386 . S
C1804 C1806 1.391 . S
C1805 C1804 1.386 . S
C1805 C1809 1.393 . S
C1806 H1798 0.950 . S
C1806 C1804 1.391 . S
C1806 C1807 1.400 . S
C1807 C1806 1.400 . S
C1807 C1808 1.398 . S
C1807 C1813 1.491 . S
C1808 H1799 0.950 . S
C1808 C1807 1.398 . S
C1808 C1809 1.391 . S
C1809 H1797 0.950 . S
C1809 C1805 1.393 . S
C1809 C1808 1.391 . S
C1810 H1800 0.950 . S
C1810 C1811 1.386 . S
C1810 C1812 1.391 . S
C1811 C1810 1.386 . S
C1811 C1815 1.393 . S
C1812 H1801 0.950 . S
C1812 C1810 1.391 . S
C1812 C1813 1.400 . S
C1813 C1807 1.491 . S
C1813 C1812 1.400 . S
C1813 C1814 1.398 . S
C1814 H1802 0.950 . S
C1814 C1813 1.398 . S
C1814 C1815 1.391 . S
C1815 H1803 0.950 . S
C1815 C1811 1.393 . S
C1815 C1814 1.391 . S
H1816 C1824 0.950 . S
H1817 C1829 0.950 . S
H1818 C1826 0.950 . S
H1819 C1828 0.950 . S
H1820 C1830 0.950 . S
H1821 C1832 0.950 . S
H1822 C1834 0.950 . S
H1823 C1835 0.950 . S
C1824 H1816 0.950 . S
C1824 C1825 1.386 . S
C1824 C1826 1.391 . S
C1825 C1824 1.386 . S
C1825 C1829 1.393 . S
C1826 H1818 0.950 . S
C1826 C1824 1.391 . S
C1826 C1827 1.400 . S
C1827 C1826 1.400 . S
C1827 C1828 1.398 . S
C1827 C1833 1.491 . S
C1828 H1819 0.950 . S
C1828 C1827 1.398 . S
C1828 C1829 1.391 . S
C1829 H1817 0.950 . S
C1829 C1825 1.393 . S
C1829 C1828 1.391 . S
C1830 H1820 0.950 . S
C1830 C1831 1.386 . S
C1830 C1832 1.391 . S
C1831 C1830 1.386 . S
C1831 C1835 1.393 . S
C1832 H1821 0.950 . S
C1832 C1830 1.391 . S
C1832 C1833 1.400 . S
C1833 C1827 1.491 . S
C1833 C1832 1.400 . S
C1833 C1834 1.398 . S
C1834 H1822 0.950 . S
C1834 C1833 1.398 . S
C1834 C1835 1.391 . S
C1835 H1823 0.950 . S
C1835 C1831 1.393 . S
C1835 C1834 1.391 . S
H1836 C1844 0.950 . S
H1837 C1849 0.950 . S
H1838 C1846 0.950 . S
H1839 C1848 0.950 . S
H1840 C1850 0.950 . S
H1841 C1852 0.950 . S
H1842 C1854 0.950 . S
H1843 C1855 0.950 . S
C1844 H1836 0.950 . S
C1844 C1845 1.386 . S
C1844 C1846 1.391 . S
C1845 C1844 1.386 . S
C1845 C1849 1.393 . S
C1846 H1838 0.950 . S
C1846 C1844 1.391 . S
C1846 C1847 1.400 . S
C1847 C1846 1.400 . S
C1847 C1848 1.398 . S
C1847 C1853 1.491 . S
C1848 H1839 0.950 . S
C1848 C1847 1.398 . S
C1848 C1849 1.391 . S
C1849 H1837 0.950 . S
C1849 C1845 1.393 . S
C1849 C1848 1.391 . S
C1850 H1840 0.950 . S
C1850 C1851 1.386 . S
C1850 C1852 1.391 . S
C1851 C1850 1.386 . S
C1851 C1855 1.393 . S
C1852 H1841 0.950 . S
C1852 C1850 1.391 . S
C1852 C1853 1.400 . S
C1853 C1847 1.491 . S
C1853 C1852 1.400 . S
C1853 C1854 1.398 . S
C1854 H1842 0.950 . S
C1854 C1853 1.398 . S
C1854 C1855 1.391 . S
C1855 H1843 0.950 . S
C1855 C1851 1.393 . S
C1855 C1854 1.391 . S
H1856 C1864 0.950 . S
H1857 C1869 0.950 . S
H1858 C1866 0.950 . S
H1859 C1868 0.950 . S
H1860 C1870 0.950 . S
H1861 C1872 0.950 . S
H1862 C1874 0.950 . S
H1863 C1875 0.950 . S
C1864 H1856 0.950 . S
C1864 C1865 1.386 . S
C1864 C1866 1.391 . S
C1865 C1864 1.386 . S
C1865 C1869 1.393 . S
C1866 H1858 0.950 . S
C1866 C1864 1.391 . S
C1866 C1867 1.400 . S
C1867 C1866 1.400 . S
C1867 C1868 1.398 . S
C1867 C1873 1.491 . S
C1868 H1859 0.950 . S
C1868 C1867 1.398 . S
C1868 C1869 1.391 . S
C1869 H1857 0.950 . S
C1869 C1865 1.393 . S
C1869 C1868 1.391 . S
C1870 H1860 0.950 . S
C1870 C1871 1.386 . S
C1870 C1872 1.391 . S
C1871 C1870 1.386 . S
C1871 C1875 1.393 . S
C1872 H1861 0.950 . S
C1872 C1870 1.391 . S
C1872 C1873 1.400 . S
C1873 C1867 1.491 . S
C1873 C1872 1.400 . S
C1873 C1874 1.398 . S
C1874 H1862 0.950 . S
C1874 C1873 1.398 . S
C1874 C1875 1.391 . S
C1875 H1863 0.950 . S
C1875 C1871 1.393 . S
C1875 C1874 1.391 . S
H1876 C1884 0.950 . S
H1877 C1889 0.950 . S
H1878 C1886 0.950 . S
H1879 C1888 0.950 . S
H1880 C1890 0.950 . S
H1881 C1892 0.950 . S
H1882 C1894 0.950 . S
H1883 C1895 0.950 . S
C1884 H1876 0.950 . S
C1884 C1885 1.386 . S
C1884 C1886 1.391 . S
C1885 C1884 1.386 . S
C1885 C1889 1.393 . S
C1886 H1878 0.950 . S
C1886 C1884 1.391 . S
C1886 C1887 1.400 . S
C1887 C1886 1.400 . S
C1887 C1888 1.398 . S
C1887 C1893 1.491 . S
C1888 H1879 0.950 . S
C1888 C1887 1.398 . S
C1888 C1889 1.391 . S
C1889 H1877 0.950 . S
C1889 C1885 1.393 . S
C1889 C1888 1.391 . S
C1890 H1880 0.950 . S
C1890 C1891 1.386 . S
C1890 C1892 1.391 . S
C1891 C1890 1.386 . S
C1891 C1895 1.393 . S
C1892 H1881 0.950 . S
C1892 C1890 1.391 . S
C1892 C1893 1.400 . S
C1893 C1887 1.491 . S
C1893 C1892 1.400 . S
C1893 C1894 1.398 . S
C1894 H1882 0.950 . S
C1894 C1893 1.398 . S
C1894 C1895 1.391 . S
C1895 H1883 0.950 . S
C1895 C1891 1.393 . S
C1895 C1894 1.391 . S
H1896 C1904 0.950 . S
H1897 C1909 0.950 . S
H1898 C1906 0.950 . S
H1899 C1908 0.950 . S
H1900 C1910 0.950 . S
H1901 C1912 0.950 . S
H1902 C1914 0.950 . S
H1903 C1915 0.950 . S
C1904 H1896 0.950 . S
C1904 C1905 1.386 . S
C1904 C1906 1.391 . S
C1905 C1904 1.386 . S
C1905 C1909 1.393 . S
C1906 H1898 0.950 . S
C1906 C1904 1.391 . S
C1906 C1907 1.400 . S
C1907 C1906 1.400 . S
C1907 C1908 1.398 . S
C1907 C1913 1.491 . S
C1908 H1899 0.950 . S
C1908 C1907 1.398 . S
C1908 C1909 1.391 . S
C1909 H1897 0.950 . S
C1909 C1905 1.393 . S
C1909 C1908 1.391 . S
C1910 H1900 0.950 . S
C1910 C1911 1.386 . S
C1910 C1912 1.391 . S
C1911 C1910 1.386 . S
C1911 C1915 1.393 . S
C1912 H1901 0.950 . S
C1912 C1910 1.391 . S
C1912 C1913 1.400 . S
C1913 C1907 1.491 . S
C1913 C1912 1.400 . S
C1913 C1914 1.398 . S
C1914 H1902 0.950 . S
C1914 C1913 1.398 . S
C1914 C1915 1.391 . S
C1915 H1903 0.950 . S
C1915 C1911 1.393 . S
C1915 C1914 1.391 . S
H1916 C1924 0.950 . S
H1917 C1929 0.950 . S
H1918 C1926 0.950 . S
H1919 C1928 0.950 . S
H1920 C1930 0.950 . S
H1921 C1932 0.950 . S
H1922 C1934 0.950 . S
H1923 C1935 0.950 . S
C1924 H1916 0.950 . S
C1924 C1925 1.386 . S
C1924 C1926 1.391 . S
C1925 C1924 1.386 . S
C1925 C1929 1.393 . S
C1926 H1918 0.950 . S
C1926 C1924 1.391 . S
C1926 C1927 1.400 . S
C1927 C1926 1.400 . S
C1927 C1928 1.398 . S
C1927 C1933 1.491 . S
C1928 H1919 0.950 . S
C1928 C1927 1.398 . S
C1928 C1929 1.391 . S
C1929 H1917 0.950 . S
C1929 C1925 1.393 . S
C1929 C1928 1.391 . S
C1930 H1920 0.950 . S
C1930 C1931 1.386 . S
C1930 C1932 1.391 . S
C1931 C1930 1.386 . S
C1931 C1935 1.393 . S
C1932 H1921 0.950 . S
C1932 C1930 1.391 . S
C1932 C1933 1.400 . S
C1933 C1927 1.491 . S
C1933 C1932 1.400 . S
C1933 C1934 1.398 . S
C1934 H1922 0.950 . S
C1934 C1933 1.398 . S
C1934 C1935 1.391 . S
C1935 H1923 0.950 . S
C1935 C1931 1.393 . S
C1935 C1934 1.391 . S
H1936 C1944 0.950 . S
H1937 C1949 0.950 . S
H1938 C1946 0.950 . S
H1939 C1948 0.950 . S
H1940 C1950 0.950 . S
H1941 C1952 0.950 . S
H1942 C1954 0.950 . S
H1943 C1955 0.950 . S
C1944 H1936 0.950 . S
C1944 C1945 1.386 . S
C1944 C1946 1.391 . S
C1945 C1944 1.386 . S
C1945 C1949 1.393 . S
C1946 H1938 0.950 . S
C1946 C1944 1.391 . S
C1946 C1947 1.400 . S
C1947 C1946 1.400 . S
C1947 C1948 1.398 . S
C1947 C1953 1.491 . S
C1948 H1939 0.950 . S
C1948 C1947 1.398 . S
C1948 C1949 1.391 . S
C1949 H1937 0.950 . S
C1949 C1945 1.393 . S
C1949 C1948 1.391 . S
C1950 H1940 0.950 . S
C1950 C1951 1.386 . S
C1950 C1952 1.391 . S
C1951 C1950 1.386 . S
C1951 C1955 1.393 . S
C1952 H1941 0.950 . S
C1952 C1950 1.391 . S
C1952 C1953 1.400 . S
C1953 C1947 1.491 . S
C1953 C1952 1.400 . S
C1953 C1954 1.398 . S
C1954 H1942 0.950 . S
C1954 C1953 1.398 . S
C1954 C1955 1.391 . S
C1955 H1943 0.950 . S
C1955 C1951 1.393 . S
C1955 C1954 1.391 . S
H1956 C1964 0.950 . S
H1957 C1969 0.950 . S
H1958 C1966 0.950 . S
H1959 C1968 0.950 . S
H1960 C1970 0.950 . S
H1961 C1972 0.950 . S
H1962 C1974 0.950 . S
H1963 C1975 0.950 . S
C1964 H1956 0.950 . S
C1964 C1965 1.386 . S
C1964 C1966 1.391 . S
C1965 C1964 1.386 . S
C1965 C1969 1.393 . S
C1966 H1958 0.950 . S
C1966 C1964 1.391 . S
C1966 C1967 1.400 . S
C1967 C1966 1.400 . S
C1967 C1968 1.398 . S
C1967 C1973 1.491 . S
C1968 H1959 0.950 . S
C1968 C1967 1.398 . S
C1968 C1969 1.391 . S
C1969 H1957 0.950 . S
C1969 C1965 1.393 . S
C1969 C1968 1.391 . S
C1970 H1960 0.950 . S
C1970 C1971 1.386 . S
C1970 C1972 1.391 . S
C1971 C1970 1.386 . S
C1971 C1975 1.393 . S
C1972 H1961 0.950 . S
C1972 C1970 1.391 . S
C1972 C1973 1.400 . S
C1973 C1967 1.491 . S
C1973 C1972 1.400 . S
C1973 C1974 1.398 . S
C1974 H1962 0.950 . S
C1974 C1973 1.398 . S
C1974 C1975 1.391 . S
C1975 H1963 0.950 . S
C1975 C1971 1.393 . S
C1975 C1974 1.391 . S
H1976 C1984 0.950 1_655 S
H1977 C1989 0.950 . S
H1978 C1986 0.950 1_655 S
H1979 C1988 0.950 . S
H1980 C1990 0.950 . S
H1981 C1992 0.950 . S
H1982 C1994 0.950 1_655 S
H1983 C1995 0.948 . S
C1984 H1976 0.950 1_455 S
C1984 C1985 1.386 . S
C1984 C1986 1.391 1_556 S
C1985 C1984 1.386 . S
C1985 C1989 1.393 1_556 S
C1986 H1978 0.950 1_455 S
C1986 C1984 1.391 1_554 S
C1986 C1987 1.400 . S
C1987 C1986 1.400 . S
C1987 C1988 1.398 . S
C1987 C1993 1.491 . S
C1988 H1979 0.950 . S
C1988 C1987 1.398 . S
C1988 C1989 1.391 . S
C1989 H1977 0.950 . S
C1989 C1985 1.393 1_554 S
C1989 C1988 1.391 . S
C1990 H1980 0.950 . S
C1990 C1991 1.386 . S
C1990 C1992 1.391 . S
C1991 C1990 1.386 . S
C1991 C1995 1.393 . S
C1992 H1981 0.950 . S
C1992 C1990 1.391 . S
C1992 C1993 1.400 . S
C1993 C1987 1.491 . S
C1993 C1992 1.400 . S
C1993 C1994 1.398 . S
C1994 H1982 0.950 1_455 S
C1994 C1993 1.398 . S
C1994 C1995 1.391 . S
C1995 H1983 0.948 . S
C1995 C1991 1.393 . S
C1995 C1994 1.391 . S
H1996 C2004 0.950 1_455 S
H1997 C2009 0.950 . S
H1998 C2006 0.950 . S
H1999 C2008 0.950 . S
H2000 C2010 0.950 . S
H2001 C2012 0.950 . S
H2002 C2014 0.950 . S
H2003 C2015 0.950 . S
C2004 H1996 0.950 1_655 S
C2004 C2005 1.386 . S
C2004 C2006 1.391 . S
C2005 C2004 1.386 . S
C2005 C2009 1.393 . S
C2006 H1998 0.950 . S
C2006 C2004 1.391 . S
C2006 C2007 1.400 . S
C2007 C2006 1.400 . S
C2007 C2008 1.398 . S
C2007 C2013 1.491 . S
C2008 H1999 0.950 . S
C2008 C2007 1.398 . S
C2008 C2009 1.391 . S
C2009 H1997 0.950 . S
C2009 C2005 1.393 . S
C2009 C2008 1.391 . S
C2010 H2000 0.950 . S
C2010 C2011 1.386 . S
C2010 C2012 1.391 . S
C2011 C2010 1.386 . S
C2011 C2015 1.393 . S
C2012 H2001 0.950 . S
C2012 C2010 1.391 . S
C2012 C2013 1.400 . S
C2013 C2007 1.491 . S
C2013 C2012 1.400 . S
C2013 C2014 1.398 . S
C2014 H2002 0.950 . S
C2014 C2013 1.398 . S
C2014 C2015 1.391 . S
C2015 H2003 0.950 . S
C2015 C2011 1.393 . S
C2015 C2014 1.391 . S
H2016 C2024 0.950 . S
H2017 C2029 0.950 . S
H2018 C2026 0.950 . S
H2019 C2028 0.950 . S
H2020 C2030 0.950 . S
H2021 C2032 0.950 . S
H2022 C2034 0.950 . S
H2023 C2035 0.950 . S
C2024 H2016 0.950 . S
C2024 C2025 1.386 . S
C2024 C2026 1.391 . S
C2025 C2024 1.386 . S
C2025 C2029 1.393 . S
C2026 H2018 0.950 . S
C2026 C2024 1.391 . S
C2026 C2027 1.400 . S
C2027 C2026 1.400 . S
C2027 C2028 1.398 . S
C2027 C2033 1.491 . S
C2028 H2019 0.950 . S
C2028 C2027 1.398 . S
C2028 C2029 1.391 . S
C2029 H2017 0.950 . S
C2029 C2025 1.393 . S
C2029 C2028 1.391 . S
C2030 H2020 0.950 . S
C2030 C2031 1.386 . S
C2030 C2032 1.391 . S
C2031 C2030 1.386 . S
C2031 C2035 1.393 . S
C2032 H2021 0.950 . S
C2032 C2030 1.391 . S
C2032 C2033 1.400 . S
C2033 C2027 1.491 . S
C2033 C2032 1.400 . S
C2033 C2034 1.398 . S
C2034 H2022 0.950 . S
C2034 C2033 1.398 . S
C2034 C2035 1.391 . S
C2035 H2023 0.950 . S
C2035 C2031 1.393 . S
C2035 C2034 1.391 . S
H2036 C2044 0.950 . S
H2037 C2049 0.950 . S
H2038 C2046 0.950 . S
H2039 C2048 0.950 . S
H2040 C2050 0.950 . S
H2041 C2052 0.950 . S
H2042 C2054 0.950 . S
H2043 C2055 0.950 . S
C2044 H2036 0.950 . S
C2044 C2045 1.386 . S
C2044 C2046 1.391 . S
C2045 C2044 1.386 . S
C2045 C2049 1.393 . S
C2046 H2038 0.950 . S
C2046 C2044 1.391 . S
C2046 C2047 1.400 . S
C2047 C2046 1.400 . S
C2047 C2048 1.398 . S
C2047 C2053 1.491 . S
C2048 H2039 0.950 . S
C2048 C2047 1.398 . S
C2048 C2049 1.391 . S
C2049 H2037 0.950 . S
C2049 C2045 1.393 . S
C2049 C2048 1.391 . S
C2050 H2040 0.950 . S
C2050 C2051 1.386 . S
C2050 C2052 1.391 . S
C2051 C2050 1.386 . S
C2051 C2055 1.393 . S
C2052 H2041 0.950 . S
C2052 C2050 1.391 . S
C2052 C2053 1.400 . S
C2053 C2047 1.491 . S
C2053 C2052 1.400 . S
C2053 C2054 1.398 . S
C2054 H2042 0.950 . S
C2054 C2053 1.398 . S
C2054 C2055 1.391 . S
C2055 H2043 0.950 . S
C2055 C2051 1.393 . S
C2055 C2054 1.391 . S
H2056 C2064 0.950 . S
H2057 C2069 0.950 . S
H2058 C2066 0.950 . S
H2059 C2068 0.950 . S
H2060 C2070 0.950 . S
H2061 C2072 0.950 . S
H2062 C2074 0.950 . S
H2063 C2075 0.950 . S
C2064 H2056 0.950 . S
C2064 C2065 1.386 . S
C2064 C2066 1.391 . S
C2065 C2064 1.386 . S
C2065 C2069 1.393 . S
C2066 H2058 0.950 . S
C2066 C2064 1.391 . S
C2066 C2067 1.400 . S
C2067 C2066 1.400 . S
C2067 C2068 1.398 . S
C2067 C2073 1.491 . S
C2068 H2059 0.950 . S
C2068 C2067 1.398 . S
C2068 C2069 1.391 . S
C2069 H2057 0.950 . S
C2069 C2065 1.393 . S
C2069 C2068 1.391 . S
C2070 H2060 0.950 . S
C2070 C2071 1.386 . S
C2070 C2072 1.391 . S
C2071 C2070 1.386 . S
C2071 C2075 1.393 . S
C2072 H2061 0.950 . S
C2072 C2070 1.391 . S
C2072 C2073 1.400 . S
C2073 C2067 1.491 . S
C2073 C2072 1.400 . S
C2073 C2074 1.398 . S
C2074 H2062 0.950 . S
C2074 C2073 1.398 . S
C2074 C2075 1.391 . S
C2075 H2063 0.950 . S
C2075 C2071 1.393 . S
C2075 C2074 1.391 . S
H2076 C2084 0.950 . S
H2077 C2089 0.950 . S
H2078 C2086 0.950 . S
H2079 C2088 0.950 . S
H2080 C2090 0.950 . S
H2081 C2092 0.950 . S
H2082 C2094 0.950 . S
H2083 C2095 0.950 . S
C2084 H2076 0.950 . S
C2084 C2085 1.386 . S
C2084 C2086 1.391 . S
C2085 C2084 1.386 . S
C2085 C2089 1.393 . S
C2086 H2078 0.950 . S
C2086 C2084 1.391 . S
C2086 C2087 1.400 . S
C2087 C2086 1.400 . S
C2087 C2088 1.398 . S
C2087 C2093 1.491 . S
C2088 H2079 0.950 . S
C2088 C2087 1.398 . S
C2088 C2089 1.391 . S
C2089 H2077 0.950 . S
C2089 C2085 1.393 . S
C2089 C2088 1.391 . S
C2090 H2080 0.950 . S
C2090 C2091 1.386 . S
C2090 C2092 1.391 . S
C2091 C2090 1.386 . S
C2091 C2095 1.393 . S
C2092 H2081 0.950 . S
C2092 C2090 1.391 . S
C2092 C2093 1.400 . S
C2093 C2087 1.491 . S
C2093 C2092 1.400 . S
C2093 C2094 1.398 . S
C2094 H2082 0.950 . S
C2094 C2093 1.398 . S
C2094 C2095 1.391 . S
C2095 H2083 0.950 . S
C2095 C2091 1.393 . S
C2095 C2094 1.391 . S
H2096 C2104 0.950 . S
H2097 C2109 0.950 . S
H2098 C2106 0.950 . S
H2099 C2108 0.950 . S
H2100 C2110 0.950 . S
H2101 C2112 0.950 . S
H2102 C2114 0.950 . S
H2103 C2115 0.950 . S
C2104 H2096 0.950 . S
C2104 C2105 1.386 . S
C2104 C2106 1.391 . S
C2105 C2104 1.386 . S
C2105 C2109 1.393 . S
C2106 H2098 0.950 . S
C2106 C2104 1.391 . S
C2106 C2107 1.400 . S
C2107 C2106 1.400 . S
C2107 C2108 1.398 . S
C2107 C2113 1.491 . S
C2108 H2099 0.950 . S
C2108 C2107 1.398 . S
C2108 C2109 1.391 . S
C2109 H2097 0.950 . S
C2109 C2105 1.393 . S
C2109 C2108 1.391 . S
C2110 H2100 0.950 . S
C2110 C2111 1.386 . S
C2110 C2112 1.391 . S
C2111 C2110 1.386 . S
C2111 C2115 1.393 . S
C2112 H2101 0.950 . S
C2112 C2110 1.391 . S
C2112 C2113 1.400 . S
C2113 C2107 1.491 . S
C2113 C2112 1.400 . S
C2113 C2114 1.398 . S
C2114 H2102 0.950 . S
C2114 C2113 1.398 . S
C2114 C2115 1.391 . S
C2115 H2103 0.950 . S
C2115 C2111 1.393 . S
C2115 C2114 1.391 . S
H2116 C2124 0.950 . S
H2117 C2129 0.950 . S
H2118 C2126 0.962 . S
H2119 C2128 0.950 . S
H2120 C2130 0.950 . S
H2121 C2132 0.950 . S
H2122 C2134 0.950 . S
H2123 C2135 0.950 . S
C2124 H2116 0.950 . S
C2124 C2125 1.386 . S
C2124 C2126 1.380 1_554 S
C2125 C2124 1.386 . S
C2125 C2129 1.393 . S
C2126 H2118 0.962 . S
C2126 C2124 1.380 1_556 S
C2126 C2127 1.400 . S
C2127 C2126 1.400 . S
C2127 C2128 1.385 1_556 S
C2127 C2133 1.503 . S
C2128 H2119 0.950 . S
C2128 C2127 1.385 1_554 S
C2128 C2129 1.391 . S
C2129 H2117 0.950 . S
C2129 C2125 1.393 . S
C2129 C2128 1.391 . S
C2130 H2120 0.950 . S
C2130 C2131 1.386 . S
C2130 C2132 1.391 . S
C2131 C2130 1.386 . S
C2131 C2135 1.393 . S
C2132 H2121 0.950 . S
C2132 C2130 1.391 . S
C2132 C2133 1.400 . S
C2133 C2127 1.503 . S
C2133 C2132 1.400 . S
C2133 C2134 1.398 . S
C2134 H2122 0.950 . S
C2134 C2133 1.398 . S
C2134 C2135 1.391 . S
C2135 H2123 0.950 . S
C2135 C2131 1.393 . S
C2135 C2134 1.391 . S
H2136 C2144 0.950 . S
H2137 C2149 0.950 . S
H2138 C2146 0.950 . S
H2139 C2148 0.950 . S
H2140 C2150 0.950 . S
H2141 C2152 0.950 . S
H2142 C2154 0.950 . S
H2143 C2155 0.950 . S
C2144 H2136 0.950 . S
C2144 C2145 1.386 . S
C2144 C2146 1.391 . S
C2145 C2144 1.386 . S
C2145 C2149 1.393 . S
C2146 H2138 0.950 . S
C2146 C2144 1.391 . S
C2146 C2147 1.400 . S
C2147 C2146 1.400 . S
C2147 C2148 1.398 . S
C2147 C2153 1.491 . S
C2148 H2139 0.950 . S
C2148 C2147 1.398 . S
C2148 C2149 1.391 . S
C2149 H2137 0.950 . S
C2149 C2145 1.393 . S
C2149 C2148 1.391 . S
C2150 H2140 0.950 . S
C2150 C2151 1.386 . S
C2150 C2152 1.391 . S
C2151 C2150 1.386 . S
C2151 C2155 1.393 . S
C2152 H2141 0.950 . S
C2152 C2150 1.391 . S
C2152 C2153 1.400 . S
C2153 C2147 1.491 . S
C2153 C2152 1.400 . S
C2153 C2154 1.398 . S
C2154 H2142 0.950 . S
C2154 C2153 1.398 . S
C2154 C2155 1.391 . S
C2155 H2143 0.950 . S
C2155 C2151 1.393 . S
C2155 C2154 1.391 . S
H2156 C2164 0.950 . S
H2157 C2169 0.950 . S
H2158 C2166 0.950 . S
H2159 C2168 0.950 . S
H2160 C2170 0.950 . S
H2161 C2172 0.950 . S
H2162 C2174 0.950 . S
H2163 C2175 0.950 . S
C2164 H2156 0.950 . S
C2164 C2165 1.386 . S
C2164 C2166 1.391 . S
C2165 C2164 1.386 . S
C2165 C2169 1.393 . S
C2166 H2158 0.950 . S
C2166 C2164 1.391 . S
C2166 C2167 1.400 . S
C2167 C2166 1.400 . S
C2167 C2168 1.398 . S
C2167 C2173 1.491 . S
C2168 H2159 0.950 . S
C2168 C2167 1.398 . S
C2168 C2169 1.391 . S
C2169 H2157 0.950 . S
C2169 C2165 1.393 . S
C2169 C2168 1.391 . S
C2170 H2160 0.950 . S
C2170 C2171 1.386 . S
C2170 C2172 1.391 . S
C2171 C2170 1.386 . S
C2171 C2175 1.393 . S
C2172 H2161 0.950 . S
C2172 C2170 1.391 . S
C2172 C2173 1.400 . S
C2173 C2167 1.491 . S
C2173 C2172 1.400 . S
C2173 C2174 1.398 . S
C2174 H2162 0.950 . S
C2174 C2173 1.398 . S
C2174 C2175 1.391 . S
C2175 H2163 0.950 . S
C2175 C2171 1.393 . S
C2175 C2174 1.391 . S
H2176 C2184 0.950 . S
H2177 C2189 0.950 . S
H2178 C2186 0.950 . S
H2179 C2188 0.950 . S
H2180 C2190 0.950 1_554 S
H2181 C2192 0.950 . S
H2182 C2194 0.950 . S
H2183 C2195 0.950 . S
C2184 H2176 0.950 . S
C2184 C2185 1.386 . S
C2184 C2186 1.391 . S
C2185 C2184 1.386 . S
C2185 C2189 1.393 . S
C2186 H2178 0.950 . S
C2186 C2184 1.391 . S
C2186 C2187 1.400 . S
C2187 C2186 1.400 . S
C2187 C2188 1.398 . S
C2187 C2193 1.491 . S
C2188 H2179 0.950 . S
C2188 C2187 1.398 . S
C2188 C2189 1.391 . S
C2189 H2177 0.950 . S
C2189 C2185 1.393 . S
C2189 C2188 1.391 . S
C2190 H2180 0.950 1_556 S
C2190 C2191 1.386 . S
C2190 C2192 1.391 . S
C2191 C2190 1.386 . S
C2191 C2195 1.393 . S
C2192 H2181 0.950 . S
C2192 C2190 1.391 . S
C2192 C2193 1.400 . S
C2193 C2187 1.491 . S
C2193 C2192 1.400 . S
C2193 C2194 1.398 . S
C2194 H2182 0.950 . S
C2194 C2193 1.398 . S
C2194 C2195 1.391 . S
C2195 H2183 0.950 . S
C2195 C2191 1.393 . S
C2195 C2194 1.391 . S
H2196 C2204 0.950 . S
H2197 C2209 0.950 . S
H2198 C2206 0.950 . S
H2199 C2208 0.950 . S
H2200 C2210 0.950 . S
H2201 C2212 0.950 . S
H2202 C2214 0.950 . S
H2203 C2215 0.950 . S
C2204 H2196 0.950 . S
C2204 C2205 1.386 . S
C2204 C2206 1.391 . S
C2205 C2204 1.386 . S
C2205 C2209 1.393 . S
C2206 H2198 0.950 . S
C2206 C2204 1.391 . S
C2206 C2207 1.400 . S
C2207 C2206 1.400 . S
C2207 C2208 1.398 . S
C2207 C2213 1.491 . S
C2208 H2199 0.950 . S
C2208 C2207 1.398 . S
C2208 C2209 1.391 . S
C2209 H2197 0.950 . S
C2209 C2205 1.393 . S
C2209 C2208 1.391 . S
C2210 H2200 0.950 . S
C2210 C2211 1.386 . S
C2210 C2212 1.391 . S
C2211 C2210 1.386 . S
C2211 C2215 1.393 . S
C2212 H2201 0.950 . S
C2212 C2210 1.391 . S
C2212 C2213 1.400 . S
C2213 C2207 1.491 . S
C2213 C2212 1.400 . S
C2213 C2214 1.398 . S
C2214 H2202 0.950 . S
C2214 C2213 1.398 . S
C2214 C2215 1.391 . S
C2215 H2203 0.950 . S
C2215 C2211 1.393 . S
C2215 C2214 1.391 . S
H2216 C2224 0.950 . S
H2217 C2229 0.950 . S
H2218 C2226 0.950 . S
H2219 C2228 0.950 . S
H2220 C2230 0.950 . S
H2221 C2232 0.950 . S
H2222 C2234 0.950 . S
H2223 C2235 0.950 . S
C2224 H2216 0.950 . S
C2224 C2225 1.386 . S
C2224 C2226 1.391 . S
C2225 C2224 1.386 . S
C2225 C2229 1.393 . S
C2226 H2218 0.950 . S
C2226 C2224 1.391 . S
C2226 C2227 1.400 . S
C2227 C2226 1.400 . S
C2227 C2228 1.398 . S
C2227 C2233 1.491 . S
C2228 H2219 0.950 . S
C2228 C2227 1.398 . S
C2228 C2229 1.391 . S
C2229 H2217 0.950 . S
C2229 C2225 1.393 . S
C2229 C2228 1.391 . S
C2230 H2220 0.950 . S
C2230 C2231 1.386 . S
C2230 C2232 1.391 . S
C2231 C2230 1.386 . S
C2231 C2235 1.393 . S
C2232 H2221 0.950 . S
C2232 C2230 1.391 . S
C2232 C2233 1.400 . S
C2233 C2227 1.491 . S
C2233 C2232 1.400 . S
C2233 C2234 1.398 . S
C2234 H2222 0.950 . S
C2234 C2233 1.398 . S
C2234 C2235 1.391 . S
C2235 H2223 0.950 . S
C2235 C2231 1.393 . S
C2235 C2234 1.391 . S
H2236 C2244 0.950 . S
H2237 C2249 0.950 . S
H2238 C2246 0.950 . S
H2239 C2248 0.950 . S
H2240 C2250 0.950 . S
H2241 C2252 0.950 . S
H2242 C2254 0.950 . S
H2243 C2255 0.950 . S
C2244 H2236 0.950 . S
C2244 C2245 1.386 . S
C2244 C2246 1.391 . S
C2245 C2244 1.386 . S
C2245 C2249 1.393 . S
C2246 H2238 0.950 . S
C2246 C2244 1.391 . S
C2246 C2247 1.400 . S
C2247 C2246 1.400 . S
C2247 C2248 1.398 . S
C2247 C2253 1.491 . S
C2248 H2239 0.950 . S
C2248 C2247 1.398 . S
C2248 C2249 1.391 . S
C2249 H2237 0.950 . S
C2249 C2245 1.393 . S
C2249 C2248 1.391 . S
C2250 H2240 0.950 . S
C2250 C2251 1.386 . S
C2250 C2252 1.391 . S
C2251 C2250 1.386 . S
C2251 C2255 1.393 . S
C2252 H2241 0.950 . S
C2252 C2250 1.391 . S
C2252 C2253 1.400 . S
C2253 C2247 1.491 . S
C2253 C2252 1.400 . S
C2253 C2254 1.398 . S
C2254 H2242 0.950 . S
C2254 C2253 1.398 . S
C2254 C2255 1.391 . S
C2255 H2243 0.950 . S
C2255 C2251 1.393 . S
C2255 C2254 1.391 . S
H2256 C2264 0.950 . S
H2257 C2269 0.950 . S
H2258 C2266 0.950 . S
H2259 C2268 0.950 . S
H2260 C2270 0.950 . S
H2261 C2272 0.950 . S
H2262 C2274 0.950 . S
H2263 C2275 0.950 . S
C2264 H2256 0.950 . S
C2264 C2265 1.386 . S
C2264 C2266 1.391 . S
C2265 C2264 1.386 . S
C2265 C2269 1.393 . S
C2266 H2258 0.950 . S
C2266 C2264 1.391 . S
C2266 C2267 1.400 . S
C2267 C2266 1.400 . S
C2267 C2268 1.398 . S
C2267 C2273 1.491 . S
C2268 H2259 0.950 . S
C2268 C2267 1.398 . S
C2268 C2269 1.391 . S
C2269 H2257 0.950 . S
C2269 C2265 1.393 . S
C2269 C2268 1.391 . S
C2270 H2260 0.950 . S
C2270 C2271 1.386 . S
C2270 C2272 1.391 . S
C2271 C2270 1.386 . S
C2271 C2275 1.393 . S
C2272 H2261 0.950 . S
C2272 C2270 1.391 . S
C2272 C2273 1.400 . S
C2273 C2267 1.491 . S
C2273 C2272 1.400 . S
C2273 C2274 1.398 . S
C2274 H2262 0.950 . S
C2274 C2273 1.398 . S
C2274 C2275 1.391 . S
C2275 H2263 0.950 . S
C2275 C2271 1.393 . S
C2275 C2274 1.391 . S
H2276 C2284 0.950 . S
H2277 C2289 0.950 . S
H2278 C2286 0.950 . S
H2279 C2288 0.950 . S
H2280 C2290 0.950 . S
H2281 C2292 0.950 . S
H2282 C2294 0.950 . S
H2283 C2295 0.950 . S
C2284 H2276 0.950 . S
C2284 C2285 1.386 . S
C2284 C2286 1.391 . S
C2285 C2284 1.386 . S
C2285 C2289 1.393 . S
C2286 H2278 0.950 . S
C2286 C2284 1.391 . S
C2286 C2287 1.400 . S
C2287 C2286 1.400 . S
C2287 C2288 1.398 . S
C2287 C2293 1.491 . S
C2288 H2279 0.950 . S
C2288 C2287 1.398 . S
C2288 C2289 1.391 . S
C2289 H2277 0.950 . S
C2289 C2285 1.393 . S
C2289 C2288 1.391 . S
C2290 H2280 0.950 . S
C2290 C2291 1.386 . S
C2290 C2292 1.391 . S
C2291 C2290 1.386 . S
C2291 C2295 1.393 . S
C2292 H2281 0.950 . S
C2292 C2290 1.391 . S
C2292 C2293 1.400 . S
C2293 C2287 1.491 . S
C2293 C2292 1.400 . S
C2293 C2294 1.398 . S
C2294 H2282 0.950 . S
C2294 C2293 1.398 . S
C2294 C2295 1.391 . S
C2295 H2283 0.950 . S
C2295 C2291 1.393 . S
C2295 C2294 1.391 . S
H2296 C2304 0.950 . S
H2297 C2309 0.950 . S
H2298 C2306 0.950 . S
H2299 C2308 0.950 . S
H2300 C2310 0.950 . S
H2301 C2312 0.950 . S
H2302 C2314 0.950 . S
H2303 C2315 0.950 . S
C2304 H2296 0.950 . S
C2304 C2305 1.386 . S
C2304 C2306 1.391 . S
C2305 C2304 1.386 . S
C2305 C2309 1.393 . S
C2306 H2298 0.950 . S
C2306 C2304 1.391 . S
C2306 C2307 1.400 . S
C2307 C2306 1.400 . S
C2307 C2308 1.398 . S
C2307 C2313 1.491 . S
C2308 H2299 0.950 . S
C2308 C2307 1.398 . S
C2308 C2309 1.391 . S
C2309 H2297 0.950 . S
C2309 C2305 1.393 . S
C2309 C2308 1.391 . S
C2310 H2300 0.950 . S
C2310 C2311 1.386 . S
C2310 C2312 1.391 . S
C2311 C2310 1.386 . S
C2311 C2315 1.393 . S
C2312 H2301 0.950 . S
C2312 C2310 1.391 . S
C2312 C2313 1.400 . S
C2313 C2307 1.491 . S
C2313 C2312 1.400 . S
C2313 C2314 1.398 . S
C2314 H2302 0.950 . S
C2314 C2313 1.398 . S
C2314 C2315 1.391 . S
C2315 H2303 0.950 . S
C2315 C2311 1.393 . S
C2315 C2314 1.391 . S
H2316 C2324 0.963 . S
H2317 C2329 0.950 . S
H2318 C2326 0.950 . S
H2319 C2328 0.950 . S
H2320 C2330 0.950 . S
H2321 C2332 0.950 . S
H2322 C2334 0.950 . S
H2323 C2335 0.950 . S
C2324 H2316 0.963 . S
C2324 C2325 1.386 . S
C2324 C2326 1.391 . S
C2325 C2324 1.386 . S
C2325 C2329 1.393 . S
C2326 H2318 0.950 . S
C2326 C2324 1.391 . S
C2326 C2327 1.400 . S
C2327 C2326 1.400 . S
C2327 C2328 1.398 . S
C2327 C2333 1.491 . S
C2328 H2319 0.950 . S
C2328 C2327 1.398 . S
C2328 C2329 1.391 . S
C2329 H2317 0.950 . S
C2329 C2325 1.393 . S
C2329 C2328 1.391 . S
C2330 H2320 0.950 . S
C2330 C2331 1.386 . S
C2330 C2332 1.391 . S
C2331 C2330 1.386 . S
C2331 C2335 1.393 . S
C2332 H2321 0.950 . S
C2332 C2330 1.391 . S
C2332 C2333 1.400 . S
C2333 C2327 1.491 . S
C2333 C2332 1.400 . S
C2333 C2334 1.398 . S
C2334 H2322 0.950 . S
C2334 C2333 1.398 . S
C2334 C2335 1.391 . S
C2335 H2323 0.950 . S
C2335 C2331 1.393 . S
C2335 C2334 1.391 . S
H2336 C2344 0.950 . S
H2337 C2349 0.950 . S
H2338 C2346 0.950 . S
H2339 C2348 0.950 . S
H2340 C2350 0.950 . S
H2341 C2352 0.950 . S
H2342 C2354 0.950 . S
H2343 C2355 0.950 . S
C2344 H2336 0.950 . S
C2344 C2345 1.386 . S
C2344 C2346 1.391 . S
C2345 C2344 1.386 . S
C2345 C2349 1.393 . S
C2346 H2338 0.950 . S
C2346 C2344 1.391 . S
C2346 C2347 1.400 . S
C2347 C2346 1.400 . S
C2347 C2348 1.398 . S
C2347 C2353 1.491 . S
C2348 H2339 0.950 . S
C2348 C2347 1.398 . S
C2348 C2349 1.391 . S
C2349 H2337 0.950 . S
C2349 C2345 1.393 . S
C2349 C2348 1.391 . S
C2350 H2340 0.950 . S
C2350 C2351 1.386 . S
C2350 C2352 1.391 . S
C2351 C2350 1.386 . S
C2351 C2355 1.393 . S
C2352 H2341 0.950 . S
C2352 C2350 1.391 . S
C2352 C2353 1.400 . S
C2353 C2347 1.491 . S
C2353 C2352 1.400 . S
C2353 C2354 1.398 . S
C2354 H2342 0.950 . S
C2354 C2353 1.398 . S
C2354 C2355 1.391 . S
C2355 H2343 0.950 . S
C2355 C2351 1.393 . S
C2355 C2354 1.391 . S
H2356 C2364 0.950 . S
H2357 C2369 0.950 . S
H2358 C2366 0.950 . S
H2359 C2368 0.950 . S
H2360 C2370 0.950 . S
H2361 C2372 0.950 . S
H2362 C2374 0.950 . S
H2363 C2375 0.950 . S
C2364 H2356 0.950 . S
C2364 C2365 1.386 . S
C2364 C2366 1.391 . S
C2365 C2364 1.386 . S
C2365 C2369 1.393 . S
C2366 H2358 0.950 . S
C2366 C2364 1.391 . S
C2366 C2367 1.400 . S
C2367 C2366 1.400 . S
C2367 C2368 1.398 . S
C2367 C2373 1.491 . S
C2368 H2359 0.950 . S
C2368 C2367 1.398 . S
C2368 C2369 1.391 . S
C2369 H2357 0.950 . S
C2369 C2365 1.393 . S
C2369 C2368 1.391 . S
C2370 H2360 0.950 . S
C2370 C2371 1.386 . S
C2370 C2372 1.391 . S
C2371 C2370 1.386 . S
C2371 C2375 1.393 . S
C2372 H2361 0.950 . S
C2372 C2370 1.391 . S
C2372 C2373 1.400 . S
C2373 C2367 1.491 . S
C2373 C2372 1.400 . S
C2373 C2374 1.398 . S
C2374 H2362 0.950 . S
C2374 C2373 1.398 . S
C2374 C2375 1.391 . S
C2375 H2363 0.950 . S
C2375 C2371 1.393 . S
C2375 C2374 1.391 . S
H2376 C2384 0.950 . S
H2377 C2389 0.950 . S
H2378 C2386 0.950 . S
H2379 C2388 0.950 . S
H2380 C2390 0.950 . S
H2381 C2392 0.950 . S
H2382 C2394 0.950 . S
H2383 C2395 0.950 . S
C2384 H2376 0.950 . S
C2384 C2385 1.386 . S
C2384 C2386 1.391 . S
C2385 C2384 1.386 . S
C2385 C2389 1.393 . S
C2386 H2378 0.950 . S
C2386 C2384 1.391 . S
C2386 C2387 1.400 . S
C2387 C2386 1.400 . S
C2387 C2388 1.398 . S
C2387 C2393 1.491 . S
C2388 H2379 0.950 . S
C2388 C2387 1.398 . S
C2388 C2389 1.391 . S
C2389 H2377 0.950 . S
C2389 C2385 1.393 . S
C2389 C2388 1.391 . S
C2390 H2380 0.950 . S
C2390 C2391 1.386 . S
C2390 C2392 1.391 . S
C2391 C2390 1.386 . S
C2391 C2395 1.393 . S
C2392 H2381 0.950 . S
C2392 C2390 1.391 . S
C2392 C2393 1.400 . S
C2393 C2387 1.491 . S
C2393 C2392 1.400 . S
C2393 C2394 1.398 . S
C2394 H2382 0.950 . S
C2394 C2393 1.398 . S
C2394 C2395 1.391 . S
C2395 H2383 0.950 . S
C2395 C2391 1.393 . S
C2395 C2394 1.391 . S
H2396 C2404 0.950 . S
H2397 C2409 0.950 . S
H2398 C2406 0.950 . S
H2399 C2408 0.950 . S
H2400 C2410 0.950 . S
H2401 C2412 0.950 . S
H2402 C2414 0.950 . S
H2403 C2415 0.950 . S
C2404 H2396 0.950 . S
C2404 C2405 1.386 . S
C2404 C2406 1.391 . S
C2405 C2404 1.386 . S
C2405 C2409 1.393 . S
C2406 H2398 0.950 . S
C2406 C2404 1.391 . S
C2406 C2407 1.400 . S
C2407 C2406 1.400 . S
C2407 C2408 1.398 . S
C2407 C2413 1.491 . S
C2408 H2399 0.950 . S
C2408 C2407 1.398 . S
C2408 C2409 1.391 . S
C2409 H2397 0.950 . S
C2409 C2405 1.393 . S
C2409 C2408 1.391 . S
C2410 H2400 0.950 . S
C2410 C2411 1.386 . S
C2410 C2412 1.391 . S
C2411 C2410 1.386 . S
C2411 C2415 1.393 . S
C2412 H2401 0.950 . S
C2412 C2410 1.391 . S
C2412 C2413 1.400 . S
C2413 C2407 1.491 . S
C2413 C2412 1.400 . S
C2413 C2414 1.398 . S
C2414 H2402 0.950 . S
C2414 C2413 1.398 . S
C2414 C2415 1.391 . S
C2415 H2403 0.950 . S
C2415 C2411 1.393 . S
C2415 C2414 1.391 . S
H2416 C2424 0.950 . S
H2417 C2429 0.950 . S
H2418 C2426 0.950 . S
H2419 C2428 0.950 . S
H2420 C2430 0.950 . S
H2421 C2432 0.950 . S
H2422 C2434 0.950 . S
H2423 C2435 0.950 . S
C2424 H2416 0.950 . S
C2424 C2425 1.386 . S
C2424 C2426 1.391 . S
C2425 C2424 1.386 . S
C2425 C2429 1.393 . S
C2426 H2418 0.950 . S
C2426 C2424 1.391 . S
C2426 C2427 1.400 . S
C2427 C2426 1.400 . S
C2427 C2428 1.398 . S
C2427 C2433 1.491 . S
C2428 H2419 0.950 . S
C2428 C2427 1.398 . S
C2428 C2429 1.391 . S
C2429 H2417 0.950 . S
C2429 C2425 1.393 . S
C2429 C2428 1.391 . S
C2430 H2420 0.950 . S
C2430 C2431 1.386 . S
C2430 C2432 1.391 . S
C2431 C2430 1.386 . S
C2431 C2435 1.393 . S
C2432 H2421 0.950 . S
C2432 C2430 1.391 . S
C2432 C2433 1.400 . S
C2433 C2427 1.491 . S
C2433 C2432 1.400 . S
C2433 C2434 1.398 . S
C2434 H2422 0.950 . S
C2434 C2433 1.398 . S
C2434 C2435 1.391 . S
C2435 H2423 0.950 . S
C2435 C2431 1.393 . S
C2435 C2434 1.391 . S
H2436 C2444 0.950 . S
H2437 C2449 0.950 . S
H2438 C2446 0.950 . S
H2439 C2448 0.950 . S
H2440 C2450 0.950 . S
H2441 C2452 0.950 . S
H2442 C2454 0.950 . S
H2443 C2455 0.950 . S
C2444 H2436 0.950 . S
C2444 C2445 1.386 . S
C2444 C2446 1.391 . S
C2445 C2444 1.386 . S
C2445 C2449 1.393 . S
C2446 H2438 0.950 . S
C2446 C2444 1.391 . S
C2446 C2447 1.400 . S
C2447 C2446 1.400 . S
C2447 C2448 1.398 . S
C2447 C2453 1.491 . S
C2448 H2439 0.950 . S
C2448 C2447 1.398 . S
C2448 C2449 1.391 . S
C2449 H2437 0.950 . S
C2449 C2445 1.393 . S
C2449 C2448 1.391 . S
C2450 H2440 0.950 . S
C2450 C2451 1.386 . S
C2450 C2452 1.391 . S
C2451 C2450 1.386 . S
C2451 C2455 1.393 . S
C2452 H2441 0.950 . S
C2452 C2450 1.391 . S
C2452 C2453 1.400 . S
C2453 C2447 1.491 . S
C2453 C2452 1.400 . S
C2453 C2454 1.398 . S
C2454 H2442 0.950 . S
C2454 C2453 1.398 . S
C2454 C2455 1.391 . S
C2455 H2443 0.950 . S
C2455 C2451 1.393 . S
C2455 C2454 1.391 . S
H2456 C2464 0.950 . S
H2457 C2469 0.950 . S
H2458 C2466 0.950 . S
H2459 C2468 0.950 . S
H2460 C2470 0.950 . S
H2461 C2472 0.950 . S
H2462 C2474 0.950 . S
H2463 C2475 0.950 . S
C2464 H2456 0.950 . S
C2464 C2465 1.386 . S
C2464 C2466 1.391 . S
C2465 C2464 1.386 . S
C2465 C2469 1.393 . S
C2466 H2458 0.950 . S
C2466 C2464 1.391 . S
C2466 C2467 1.400 . S
C2467 C2466 1.400 . S
C2467 C2468 1.398 . S
C2467 C2473 1.491 . S
C2468 H2459 0.950 . S
C2468 C2467 1.398 . S
C2468 C2469 1.391 . S
C2469 H2457 0.950 . S
C2469 C2465 1.393 . S
C2469 C2468 1.391 . S
C2470 H2460 0.950 . S
C2470 C2471 1.386 . S
C2470 C2472 1.391 . S
C2471 C2470 1.386 . S
C2471 C2475 1.393 . S
C2472 H2461 0.950 . S
C2472 C2470 1.391 . S
C2472 C2473 1.400 . S
C2473 C2467 1.491 . S
C2473 C2472 1.400 . S
C2473 C2474 1.398 . S
C2474 H2462 0.950 . S
C2474 C2473 1.398 . S
C2474 C2475 1.391 . S
C2475 H2463 0.950 . S
C2475 C2471 1.393 . S
C2475 C2474 1.391 . S
H2476 C2484 0.950 . S
H2477 C2489 0.950 . S
H2478 C2486 0.950 . S
H2479 C2488 0.950 . S
H2480 C2490 0.950 . S
H2481 C2492 0.950 . S
H2482 C2494 0.950 . S
H2483 C2495 0.950 . S
C2484 H2476 0.950 . S
C2484 C2485 1.386 . S
C2484 C2486 1.391 . S
C2485 C2484 1.386 . S
C2485 C2489 1.393 . S
C2486 H2478 0.950 . S
C2486 C2484 1.391 . S
C2486 C2487 1.400 . S
C2487 C2486 1.400 . S
C2487 C2488 1.398 . S
C2487 C2493 1.491 . S
C2488 H2479 0.950 . S
C2488 C2487 1.398 . S
C2488 C2489 1.391 . S
C2489 H2477 0.950 . S
C2489 C2485 1.393 . S
C2489 C2488 1.391 . S
C2490 H2480 0.950 . S
C2490 C2491 1.386 . S
C2490 C2492 1.391 . S
C2491 C2490 1.386 . S
C2491 C2495 1.393 . S
C2492 H2481 0.950 . S
C2492 C2490 1.391 . S
C2492 C2493 1.400 . S
C2493 C2487 1.491 . S
C2493 C2492 1.400 . S
C2493 C2494 1.398 . S
C2494 H2482 0.950 . S
C2494 C2493 1.398 . S
C2494 C2495 1.391 . S
C2495 H2483 0.950 . S
C2495 C2491 1.393 . S
C2495 C2494 1.391 . S
H2496 C2504 0.950 . S
H2497 C2509 0.950 . S
H2498 C2506 0.950 . S
H2499 C2508 0.950 . S
H2500 C2510 0.950 1_554 S
H2501 C2512 0.950 . S
H2502 C2514 0.950 . S
H2503 C2515 0.950 . S
C2504 H2496 0.950 . S
C2504 C2505 1.386 . S
C2504 C2506 1.391 . S
C2505 C2504 1.386 . S
C2505 C2509 1.393 . S
C2506 H2498 0.950 . S
C2506 C2504 1.391 . S
C2506 C2507 1.400 . S
C2507 C2506 1.400 . S
C2507 C2508 1.398 . S
C2507 C2513 1.491 . S
C2508 H2499 0.950 . S
C2508 C2507 1.398 . S
C2508 C2509 1.391 . S
C2509 H2497 0.950 . S
C2509 C2505 1.393 . S
C2509 C2508 1.391 . S
C2510 H2500 0.950 1_556 S
C2510 C2511 1.386 . S
C2510 C2512 1.391 . S
C2511 C2510 1.386 . S
C2511 C2515 1.393 . S
C2512 H2501 0.950 . S
C2512 C2510 1.391 . S
C2512 C2513 1.400 . S
C2513 C2507 1.491 . S
C2513 C2512 1.400 . S
C2513 C2514 1.398 . S
C2514 H2502 0.950 . S
C2514 C2513 1.398 . S
C2514 C2515 1.391 . S
C2515 H2503 0.950 . S
C2515 C2511 1.393 . S
C2515 C2514 1.391 . S
H2516 C2524 0.950 . S
H2517 C2529 0.950 . S
H2518 C2526 0.950 . S
H2519 C2528 0.950 . S
H2520 C2530 0.950 . S
H2521 C2532 0.950 . S
H2522 C2534 0.950 . S
H2523 C2535 0.950 . S
C2524 H2516 0.950 . S
C2524 C2525 1.386 . S
C2524 C2526 1.391 . S
C2525 C2524 1.386 . S
C2525 C2529 1.393 . S
C2526 H2518 0.950 . S
C2526 C2524 1.391 . S
C2526 C2527 1.400 . S
C2527 C2526 1.400 . S
C2527 C2528 1.398 . S
C2527 C2533 1.491 . S
C2528 H2519 0.950 . S
C2528 C2527 1.398 . S
C2528 C2529 1.391 . S
C2529 H2517 0.950 . S
C2529 C2525 1.393 . S
C2529 C2528 1.391 . S
C2530 H2520 0.950 . S
C2530 C2531 1.386 . S
C2530 C2532 1.391 . S
C2531 C2530 1.386 . S
C2531 C2535 1.393 . S
C2532 H2521 0.950 . S
C2532 C2530 1.391 . S
C2532 C2533 1.400 . S
C2533 C2527 1.491 . S
C2533 C2532 1.400 . S
C2533 C2534 1.398 . S
C2534 H2522 0.950 . S
C2534 C2533 1.398 . S
C2534 C2535 1.391 . S
C2535 H2523 0.950 . S
C2535 C2531 1.393 . S
C2535 C2534 1.391 . S
H2536 C2544 0.950 . S
H2537 C2549 0.950 1_655 S
H2538 C2546 0.950 . S
H2539 C2548 0.950 . S
H2540 C2550 0.950 . S
H2541 C2552 0.950 . S
H2542 C2554 0.950 . S
H2543 C2555 0.950 . S
C2544 H2536 0.950 . S
C2544 C2545 1.386 . S
C2544 C2546 1.391 . S
C2545 C2544 1.386 . S
C2545 C2549 1.393 . S
C2546 H2538 0.950 . S
C2546 C2544 1.391 . S
C2546 C2547 1.400 . S
C2547 C2546 1.400 . S
C2547 C2548 1.398 . S
C2547 C2553 1.491 . S
C2548 H2539 0.950 . S
C2548 C2547 1.398 . S
C2548 C2549 1.391 . S
C2549 H2537 0.950 1_455 S
C2549 C2545 1.393 . S
C2549 C2548 1.391 . S
C2550 H2540 0.950 . S
C2550 C2551 1.386 . S
C2550 C2552 1.391 . S
C2551 C2550 1.386 . S
C2551 C2555 1.393 . S
C2552 H2541 0.950 . S
C2552 C2550 1.391 . S
C2552 C2553 1.400 . S
C2553 C2547 1.491 . S
C2553 C2552 1.400 . S
C2553 C2554 1.398 . S
C2554 H2542 0.950 . S
C2554 C2553 1.398 . S
C2554 C2555 1.391 . S
C2555 H2543 0.950 . S
C2555 C2551 1.393 . S
C2555 C2554 1.391 . S
H2556 C2564 0.950 . S
H2557 C2569 0.950 . S
H2558 C2566 0.950 . S
H2559 C2568 0.950 . S
H2560 C2570 0.950 . S
H2561 C2572 0.950 . S
H2562 C2574 0.950 . S
H2563 C2575 0.950 . S
C2564 H2556 0.950 . S
C2564 C2565 1.386 . S
C2564 C2566 1.391 . S
C2565 C2564 1.386 . S
C2565 C2569 1.393 . S
C2566 H2558 0.950 . S
C2566 C2564 1.391 . S
C2566 C2567 1.400 . S
C2567 C2566 1.400 . S
C2567 C2568 1.398 . S
C2567 C2573 1.491 . S
C2568 H2559 0.950 . S
C2568 C2567 1.398 . S
C2568 C2569 1.391 . S
C2569 H2557 0.950 . S
C2569 C2565 1.393 . S
C2569 C2568 1.391 . S
C2570 H2560 0.950 . S
C2570 C2571 1.386 . S
C2570 C2572 1.391 . S
C2571 C2570 1.386 . S
C2571 C2575 1.393 . S
C2572 H2561 0.950 . S
C2572 C2570 1.391 . S
C2572 C2573 1.400 . S
C2573 C2567 1.491 . S
C2573 C2572 1.400 . S
C2573 C2574 1.398 . S
C2574 H2562 0.950 . S
C2574 C2573 1.398 . S
C2574 C2575 1.391 . S
C2575 H2563 0.950 . S
C2575 C2571 1.393 . S
C2575 C2574 1.391 . S
H2576 C2584 0.950 . S
H2577 C2589 0.950 . S
H2578 C2586 0.950 . S
H2579 C2588 0.950 . S
H2580 C2590 0.950 . S
H2581 C2592 0.950 . S
H2582 C2594 0.950 . S
H2583 C2595 0.950 . S
C2584 H2576 0.950 . S
C2584 C2585 1.386 . S
C2584 C2586 1.391 . S
C2585 C2584 1.386 . S
C2585 C2589 1.393 . S
C2586 H2578 0.950 . S
C2586 C2584 1.391 . S
C2586 C2587 1.400 . S
C2587 C2586 1.400 . S
C2587 C2588 1.398 . S
C2587 C2593 1.491 . S
C2588 H2579 0.950 . S
C2588 C2587 1.398 . S
C2588 C2589 1.391 . S
C2589 H2577 0.950 . S
C2589 C2585 1.393 . S
C2589 C2588 1.391 . S
C2590 H2580 0.950 . S
C2590 C2591 1.386 . S
C2590 C2592 1.391 . S
C2591 C2590 1.386 . S
C2591 C2595 1.393 . S
C2592 H2581 0.950 . S
C2592 C2590 1.391 . S
C2592 C2593 1.400 . S
C2593 C2587 1.491 . S
C2593 C2592 1.400 . S
C2593 C2594 1.398 . S
C2594 H2582 0.950 . S
C2594 C2593 1.398 . S
C2594 C2595 1.391 . S
C2595 H2583 0.950 . S
C2595 C2591 1.393 . S
C2595 C2594 1.391 . S
H2596 C2604 0.950 . S
H2597 C2609 0.950 . S
H2598 C2606 0.950 . S
H2599 C2608 0.950 . S
H2600 C2610 0.950 . S
H2601 C2612 0.950 . S
H2602 C2614 0.950 . S
H2603 C2615 0.950 . S
C2604 H2596 0.950 . S
C2604 C2605 1.386 . S
C2604 C2606 1.391 . S
C2605 C2604 1.386 . S
C2605 C2609 1.393 . S
C2606 H2598 0.950 . S
C2606 C2604 1.391 . S
C2606 C2607 1.400 . S
C2607 C2606 1.400 . S
C2607 C2608 1.398 . S
C2607 C2613 1.491 . S
C2608 H2599 0.950 . S
C2608 C2607 1.398 . S
C2608 C2609 1.391 . S
C2609 H2597 0.950 . S
C2609 C2605 1.393 . S
C2609 C2608 1.391 . S
C2610 H2600 0.950 . S
C2610 C2611 1.386 . S
C2610 C2612 1.391 . S
C2611 C2610 1.386 . S
C2611 C2615 1.393 . S
C2612 H2601 0.950 . S
C2612 C2610 1.391 . S
C2612 C2613 1.400 . S
C2613 C2607 1.491 . S
C2613 C2612 1.400 . S
C2613 C2614 1.398 . S
C2614 H2602 0.950 . S
C2614 C2613 1.398 . S
C2614 C2615 1.391 . S
C2615 H2603 0.950 . S
C2615 C2611 1.393 . S
C2615 C2614 1.391 . S
H2616 C2624 0.950 . S
H2617 C2629 0.950 . S
H2618 C2626 0.950 . S
H2619 C2628 0.950 . S
H2620 C2630 0.950 . S
H2621 C2632 0.939 1_455 S
H2622 C2634 0.950 . S
H2623 C2635 0.950 1_554 S
C2624 H2616 0.950 . S
C2624 C2625 1.386 . S
C2624 C2626 1.391 . S
C2625 C2624 1.386 . S
C2625 C2629 1.393 . S
C2626 H2618 0.950 . S
C2626 C2624 1.391 . S
C2626 C2627 1.400 . S
C2627 C2626 1.400 . S
C2627 C2628 1.398 . S
C2627 C2633 1.491 . S
C2628 H2619 0.950 . S
C2628 C2627 1.398 . S
C2628 C2629 1.391 . S
C2629 H2617 0.950 . S
C2629 C2625 1.393 . S
C2629 C2628 1.391 . S
C2630 H2620 0.950 . S
C2630 C2631 1.386 . S
C2630 C2632 1.391 1_455 S
C2631 C2630 1.386 . S
C2631 C2635 1.393 1_455 S
C2632 H2621 0.939 1_655 S
C2632 C2630 1.391 1_655 S
C2632 C2633 1.400 . S
C2633 C2627 1.491 . S
C2633 C2632 1.400 . S
C2633 C2634 1.398 . S
C2634 H2622 0.950 . S
C2634 C2633 1.398 . S
C2634 C2635 1.391 . S
C2635 H2623 0.950 1_556 S
C2635 C2631 1.393 1_655 S
C2635 C2634 1.391 . S
H2636 C2644 0.950 . S
H2637 C2649 0.950 . S
H2638 C2646 0.950 . S
H2639 C2648 0.950 . S
H2640 C2650 0.950 . S
H2641 C2652 0.950 . S
H2642 C2654 0.950 . S
H2643 C2655 0.950 . S
C2644 H2636 0.950 . S
C2644 C2645 1.386 . S
C2644 C2646 1.391 . S
C2645 C2644 1.386 . S
C2645 C2649 1.393 . S
C2646 H2638 0.950 . S
C2646 C2644 1.391 . S
C2646 C2647 1.400 . S
C2647 C2646 1.400 . S
C2647 C2648 1.398 . S
C2647 C2653 1.491 . S
C2648 H2639 0.950 . S
C2648 C2647 1.398 . S
C2648 C2649 1.391 . S
C2649 H2637 0.950 . S
C2649 C2645 1.393 . S
C2649 C2648 1.391 . S
C2650 H2640 0.950 . S
C2650 C2651 1.386 . S
C2650 C2652 1.391 . S
C2651 C2650 1.386 . S
C2651 C2655 1.393 . S
C2652 H2641 0.950 . S
C2652 C2650 1.391 . S
C2652 C2653 1.400 . S
C2653 C2647 1.491 . S
C2653 C2652 1.400 . S
C2653 C2654 1.398 . S
C2654 H2642 0.950 . S
C2654 C2653 1.398 . S
C2654 C2655 1.391 . S
C2655 H2643 0.950 . S
C2655 C2651 1.393 . S
C2655 C2654 1.391 . S
H2656 C2664 0.950 . S
H2657 C2669 0.950 . S
H2658 C2666 0.950 . S
H2659 C2668 0.950 . S
H2660 C2670 0.950 . S
H2661 C2672 0.950 . S
H2662 C2674 0.950 . S
H2663 C2675 0.950 . S
C2664 H2656 0.950 . S
C2664 C2665 1.386 . S
C2664 C2666 1.391 . S
C2665 C2664 1.386 . S
C2665 C2669 1.393 . S
C2666 H2658 0.950 . S
C2666 C2664 1.391 . S
C2666 C2667 1.400 . S
C2667 C2666 1.400 . S
C2667 C2668 1.398 . S
C2667 C2673 1.491 . S
C2668 H2659 0.950 . S
C2668 C2667 1.398 . S
C2668 C2669 1.391 . S
C2669 H2657 0.950 . S
C2669 C2665 1.393 . S
C2669 C2668 1.391 . S
C2670 H2660 0.950 . S
C2670 C2671 1.386 . S
C2670 C2672 1.391 . S
C2671 C2670 1.386 . S
C2671 C2675 1.393 . S
C2672 H2661 0.950 . S
C2672 C2670 1.391 . S
C2672 C2673 1.400 . S
C2673 C2667 1.491 . S
C2673 C2672 1.400 . S
C2673 C2674 1.398 . S
C2674 H2662 0.950 . S
C2674 C2673 1.398 . S
C2674 C2675 1.391 . S
C2675 H2663 0.950 . S
C2675 C2671 1.393 . S
C2675 C2674 1.391 . S
H2676 C2684 0.950 . S
H2677 C2689 0.950 . S
H2678 C2686 0.950 . S
H2679 C2688 0.950 . S
H2680 C2690 0.950 . S
H2681 C2692 0.950 . S
H2682 C2694 0.950 . S
H2683 C2695 0.950 . S
C2684 H2676 0.950 . S
C2684 C2685 1.386 . S
C2684 C2686 1.391 . S
C2685 C2684 1.386 . S
C2685 C2689 1.393 . S
C2686 H2678 0.950 . S
C2686 C2684 1.391 . S
C2686 C2687 1.400 . S
C2687 C2686 1.400 . S
C2687 C2688 1.398 . S
C2687 C2693 1.491 . S
C2688 H2679 0.950 . S
C2688 C2687 1.398 . S
C2688 C2689 1.391 . S
C2689 H2677 0.950 . S
C2689 C2685 1.393 . S
C2689 C2688 1.391 . S
C2690 H2680 0.950 . S
C2690 C2691 1.386 . S
C2690 C2692 1.391 . S
C2691 C2690 1.386 . S
C2691 C2695 1.393 . S
C2692 H2681 0.950 . S
C2692 C2690 1.391 . S
C2692 C2693 1.400 . S
C2693 C2687 1.491 . S
C2693 C2692 1.400 . S
C2693 C2694 1.398 . S
C2694 H2682 0.950 . S
C2694 C2693 1.398 . S
C2694 C2695 1.391 . S
C2695 H2683 0.950 . S
C2695 C2691 1.393 . S
C2695 C2694 1.391 . S
H2696 C2704 0.950 . S
H2697 C2709 0.950 . S
H2698 C2706 0.950 . S
H2699 C2708 0.950 . S
H2700 C2710 0.950 1_455 S
H2701 C2712 0.950 . S
H2702 C2714 0.950 . S
H2703 C2715 0.950 . S
C2704 H2696 0.950 . S
C2704 C2705 1.386 . S
C2704 C2706 1.391 . S
C2705 C2704 1.386 . S
C2705 C2709 1.393 . S
C2706 H2698 0.950 . S
C2706 C2704 1.391 . S
C2706 C2707 1.400 . S
C2707 C2706 1.400 . S
C2707 C2708 1.398 . S
C2707 C2713 1.491 . S
C2708 H2699 0.950 . S
C2708 C2707 1.398 . S
C2708 C2709 1.391 . S
C2709 H2697 0.950 . S
C2709 C2705 1.393 . S
C2709 C2708 1.391 . S
C2710 H2700 0.950 1_655 S
C2710 C2711 1.386 . S
C2710 C2712 1.391 . S
C2711 C2710 1.386 . S
C2711 C2715 1.393 . S
C2712 H2701 0.950 . S
C2712 C2710 1.391 . S
C2712 C2713 1.400 . S
C2713 C2707 1.491 . S
C2713 C2712 1.400 . S
C2713 C2714 1.398 . S
C2714 H2702 0.950 . S
C2714 C2713 1.398 . S
C2714 C2715 1.391 . S
C2715 H2703 0.950 . S
C2715 C2711 1.393 . S
C2715 C2714 1.391 . S
H2716 C2724 0.950 . S
H2717 C2729 0.950 . S
H2718 C2726 0.950 . S
H2719 C2728 0.950 . S
H2720 C2730 0.950 . S
H2721 C2732 0.950 . S
H2722 C2734 0.950 . S
H2723 C2735 0.950 . S
C2724 H2716 0.950 . S
C2724 C2725 1.386 . S
C2724 C2726 1.391 . S
C2725 C2724 1.386 . S
C2725 C2729 1.393 . S
C2726 H2718 0.950 . S
C2726 C2724 1.391 . S
C2726 C2727 1.400 . S
C2727 C2726 1.400 . S
C2727 C2728 1.398 . S
C2727 C2733 1.491 . S
C2728 H2719 0.950 . S
C2728 C2727 1.398 . S
C2728 C2729 1.391 . S
C2729 H2717 0.950 . S
C2729 C2725 1.393 . S
C2729 C2728 1.391 . S
C2730 H2720 0.950 . S
C2730 C2731 1.386 . S
C2730 C2732 1.391 . S
C2731 C2730 1.386 . S
C2731 C2735 1.393 . S
C2732 H2721 0.950 . S
C2732 C2730 1.391 . S
C2732 C2733 1.400 . S
C2733 C2727 1.491 . S
C2733 C2732 1.400 . S
C2733 C2734 1.398 . S
C2734 H2722 0.950 . S
C2734 C2733 1.398 . S
C2734 C2735 1.391 . S
C2735 H2723 0.950 . S
C2735 C2731 1.393 . S
C2735 C2734 1.391 . S
H2736 C2744 0.950 . S
H2737 C2749 0.950 . S
H2738 C2746 0.950 . S
H2739 C2748 0.950 . S
H2740 C2750 0.950 . S
H2741 C2752 0.950 . S
H2742 C2754 0.950 . S
H2743 C2755 0.950 . S
C2744 H2736 0.950 . S
C2744 C2745 1.386 . S
C2744 C2746 1.391 . S
C2745 C2744 1.386 . S
C2745 C2749 1.393 . S
C2746 H2738 0.950 . S
C2746 C2744 1.391 . S
C2746 C2747 1.400 . S
C2747 C2746 1.400 . S
C2747 C2748 1.398 . S
C2747 C2753 1.491 . S
C2748 H2739 0.950 . S
C2748 C2747 1.398 . S
C2748 C2749 1.391 . S
C2749 H2737 0.950 . S
C2749 C2745 1.393 . S
C2749 C2748 1.391 . S
C2750 H2740 0.950 . S
C2750 C2751 1.386 . S
C2750 C2752 1.391 . S
C2751 C2750 1.386 . S
C2751 C2755 1.393 . S
C2752 H2741 0.950 . S
C2752 C2750 1.391 . S
C2752 C2753 1.400 . S
C2753 C2747 1.491 . S
C2753 C2752 1.400 . S
C2753 C2754 1.398 . S
C2754 H2742 0.950 . S
C2754 C2753 1.398 . S
C2754 C2755 1.391 . S
C2755 H2743 0.950 . S
C2755 C2751 1.393 . S
C2755 C2754 1.391 . S
H2756 C2764 0.950 . S
H2757 C2769 0.950 . S
H2758 C2766 0.950 . S
H2759 C2768 0.950 . S
H2760 C2770 0.950 . S
H2761 C2772 0.950 . S
H2762 C2774 0.950 . S
H2763 C2775 0.950 1_545 S
C2764 H2756 0.950 . S
C2764 C2765 1.386 . S
C2764 C2766 1.391 . S
C2765 C2764 1.386 . S
C2765 C2769 1.393 . S
C2766 H2758 0.950 . S
C2766 C2764 1.391 . S
C2766 C2767 1.400 . S
C2767 C2766 1.400 . S
C2767 C2768 1.398 . S
C2767 C2773 1.491 . S
C2768 H2759 0.950 . S
C2768 C2767 1.398 . S
C2768 C2769 1.391 . S
C2769 H2757 0.950 . S
C2769 C2765 1.393 . S
C2769 C2768 1.391 . S
C2770 H2760 0.950 . S
C2770 C2771 1.386 . S
C2770 C2772 1.391 . S
C2771 C2770 1.386 . S
C2771 C2775 1.393 . S
C2772 H2761 0.950 . S
C2772 C2770 1.391 . S
C2772 C2773 1.400 . S
C2773 C2767 1.491 . S
C2773 C2772 1.400 . S
C2773 C2774 1.398 . S
C2774 H2762 0.950 . S
C2774 C2773 1.398 . S
C2774 C2775 1.391 . S
C2775 H2763 0.950 1_565 S
C2775 C2771 1.393 . S
C2775 C2774 1.391 . S
H2776 C2784 0.950 . S
H2777 C2789 0.950 . S
H2778 C2786 0.950 . S
H2779 C2788 0.950 . S
H2780 C2790 0.950 . S
H2781 C2792 0.950 . S
H2782 C2794 0.950 . S
H2783 C2795 0.950 . S
C2784 H2776 0.950 . S
C2784 C2785 1.386 . S
C2784 C2786 1.391 . S
C2785 C2784 1.386 . S
C2785 C2789 1.393 . S
C2786 H2778 0.950 . S
C2786 C2784 1.391 . S
C2786 C2787 1.400 . S
C2787 C2786 1.400 . S
C2787 C2788 1.398 . S
C2787 C2793 1.491 . S
C2788 H2779 0.950 . S
C2788 C2787 1.398 . S
C2788 C2789 1.391 . S
C2789 H2777 0.950 . S
C2789 C2785 1.393 . S
C2789 C2788 1.391 . S
C2790 H2780 0.950 . S
C2790 C2791 1.386 . S
C2790 C2792 1.391 . S
C2791 C2790 1.386 . S
C2791 C2795 1.393 . S
C2792 H2781 0.950 . S
C2792 C2790 1.391 . S
C2792 C2793 1.400 . S
C2793 C2787 1.491 . S
C2793 C2792 1.400 . S
C2793 C2794 1.398 . S
C2794 H2782 0.950 . S
C2794 C2793 1.398 . S
C2794 C2795 1.391 . S
C2795 H2783 0.950 . S
C2795 C2791 1.393 . S
C2795 C2794 1.391 . S
H2796 C2804 0.950 . S
H2797 C2809 0.950 . S
H2798 C2806 0.950 . S
H2799 C2808 0.950 . S
H2800 C2810 0.950 . S
H2801 C2812 0.950 . S
H2802 C2814 0.950 . S
H2803 C2815 0.950 . S
C2804 H2796 0.950 . S
C2804 C2805 1.386 . S
C2804 C2806 1.391 . S
C2805 C2804 1.386 . S
C2805 C2809 1.393 . S
C2806 H2798 0.950 . S
C2806 C2804 1.391 . S
C2806 C2807 1.400 . S
C2807 C2806 1.400 . S
C2807 C2808 1.398 . S
C2807 C2813 1.491 . S
C2808 H2799 0.950 . S
C2808 C2807 1.398 . S
C2808 C2809 1.391 . S
C2809 H2797 0.950 . S
C2809 C2805 1.393 . S
C2809 C2808 1.391 . S
C2810 H2800 0.950 . S
C2810 C2811 1.386 . S
C2810 C2812 1.391 . S
C2811 C2810 1.386 . S
C2811 C2815 1.393 . S
C2812 H2801 0.950 . S
C2812 C2810 1.391 . S
C2812 C2813 1.400 . S
C2813 C2807 1.491 . S
C2813 C2812 1.400 . S
C2813 C2814 1.398 . S
C2814 H2802 0.950 . S
C2814 C2813 1.398 . S
C2814 C2815 1.391 . S
C2815 H2803 0.950 . S
C2815 C2811 1.393 . S
C2815 C2814 1.391 . S
H2816 C2824 0.950 . S
H2817 C2829 0.950 . S
H2818 C2826 0.950 . S
H2819 C2828 0.950 . S
H2820 C2830 0.950 . S
H2821 C2832 0.950 . S
H2822 C2834 0.950 . S
H2823 C2835 0.950 . S
C2824 H2816 0.950 . S
C2824 C2825 1.386 . S
C2824 C2826 1.391 . S
C2825 C2824 1.386 . S
C2825 C2829 1.393 . S
C2826 H2818 0.950 . S
C2826 C2824 1.391 . S
C2826 C2827 1.400 . S
C2827 C2826 1.400 . S
C2827 C2828 1.398 . S
C2827 C2833 1.491 . S
C2828 H2819 0.950 . S
C2828 C2827 1.398 . S
C2828 C2829 1.391 . S
C2829 H2817 0.950 . S
C2829 C2825 1.393 . S
C2829 C2828 1.391 . S
C2830 H2820 0.950 . S
C2830 C2831 1.386 . S
C2830 C2832 1.391 . S
C2831 C2830 1.386 . S
C2831 C2835 1.393 . S
C2832 H2821 0.950 . S
C2832 C2830 1.391 . S
C2832 C2833 1.400 . S
C2833 C2827 1.491 . S
C2833 C2832 1.400 . S
C2833 C2834 1.398 . S
C2834 H2822 0.950 . S
C2834 C2833 1.398 . S
C2834 C2835 1.391 . S
C2835 H2823 0.950 . S
C2835 C2831 1.393 . S
C2835 C2834 1.391 . S
H2836 C2844 0.950 . S
H2837 C2849 0.950 . S
H2838 C2846 0.950 . S
H2839 C2848 0.950 . S
H2840 C2850 0.950 . S
H2841 C2852 0.950 . S
H2842 C2854 0.950 . S
H2843 C2855 0.950 . S
C2844 H2836 0.950 . S
C2844 C2845 1.386 . S
C2844 C2846 1.391 . S
C2845 C2844 1.386 . S
C2845 C2849 1.393 . S
C2846 H2838 0.950 . S
C2846 C2844 1.391 . S
C2846 C2847 1.400 . S
C2847 C2846 1.400 . S
C2847 C2848 1.398 . S
C2847 C2853 1.491 . S
C2848 H2839 0.950 . S
C2848 C2847 1.398 . S
C2848 C2849 1.391 . S
C2849 H2837 0.950 . S
C2849 C2845 1.393 . S
C2849 C2848 1.391 . S
C2850 H2840 0.950 . S
C2850 C2851 1.386 . S
C2850 C2852 1.391 . S
C2851 C2850 1.386 . S
C2851 C2855 1.393 . S
C2852 H2841 0.950 . S
C2852 C2850 1.391 . S
C2852 C2853 1.400 . S
C2853 C2847 1.491 . S
C2853 C2852 1.400 . S
C2853 C2854 1.398 . S
C2854 H2842 0.950 . S
C2854 C2853 1.398 . S
C2854 C2855 1.391 . S
C2855 H2843 0.950 . S
C2855 C2851 1.393 . S
C2855 C2854 1.391 . S
H2856 C2864 0.950 . S
H2857 C2869 0.950 . S
H2858 C2866 0.950 . S
H2859 C2868 0.950 . S
H2860 C2870 0.950 . S
H2861 C2872 0.950 . S
H2862 C2874 0.950 . S
H2863 C2875 0.950 . S
C2864 H2856 0.950 . S
C2864 C2865 1.386 . S
C2864 C2866 1.391 . S
C2865 C2864 1.386 . S
C2865 C2869 1.393 . S
C2866 H2858 0.950 . S
C2866 C2864 1.391 . S
C2866 C2867 1.400 . S
C2867 C2866 1.400 . S
C2867 C2868 1.398 . S
C2867 C2873 1.491 . S
C2868 H2859 0.950 . S
C2868 C2867 1.398 . S
C2868 C2869 1.391 . S
C2869 H2857 0.950 . S
C2869 C2865 1.393 . S
C2869 C2868 1.391 . S
C2870 H2860 0.950 . S
C2870 C2871 1.386 . S
C2870 C2872 1.391 . S
C2871 C2870 1.386 . S
C2871 C2875 1.393 . S
C2872 H2861 0.950 . S
C2872 C2870 1.391 . S
C2872 C2873 1.400 . S
C2873 C2867 1.491 . S
C2873 C2872 1.400 . S
C2873 C2874 1.398 . S
C2874 H2862 0.950 . S
C2874 C2873 1.398 . S
C2874 C2875 1.391 . S
C2875 H2863 0.950 . S
C2875 C2871 1.393 . S
C2875 C2874 1.391 . S
H2876 C2884 0.950 . S
H2877 C2889 0.950 . S
H2878 C2886 0.950 . S
H2879 C2888 0.950 . S
H2880 C2890 0.950 . S
H2881 C2892 0.950 . S
H2882 C2894 0.950 . S
H2883 C2895 0.950 . S
C2884 H2876 0.950 . S
C2884 C2885 1.386 . S
C2884 C2886 1.391 . S
C2885 C2884 1.386 . S
C2885 C2889 1.393 . S
C2886 H2878 0.950 . S
C2886 C2884 1.391 . S
C2886 C2887 1.400 . S
C2887 C2886 1.400 . S
C2887 C2888 1.398 . S
C2887 C2893 1.491 . S
C2888 H2879 0.950 . S
C2888 C2887 1.398 . S
C2888 C2889 1.391 . S
C2889 H2877 0.950 . S
C2889 C2885 1.393 . S
C2889 C2888 1.391 . S
C2890 H2880 0.950 . S
C2890 C2891 1.386 . S
C2890 C2892 1.391 . S
C2891 C2890 1.386 . S
C2891 C2895 1.393 . S
C2892 H2881 0.950 . S
C2892 C2890 1.391 . S
C2892 C2893 1.400 . S
C2893 C2887 1.491 . S
C2893 C2892 1.400 . S
C2893 C2894 1.398 . S
C2894 H2882 0.950 . S
C2894 C2893 1.398 . S
C2894 C2895 1.391 . S
C2895 H2883 0.950 . S
C2895 C2891 1.393 . S
C2895 C2894 1.391 . S
C985 C106 2.645 . S
C991 C346 2.591 . S
C1005 C65 2.009 . S
C1011 C394 1.998 . S
C1025 C79 1.645 . S
C1031 C426 1.614 . S
C1051 C471 1.384 . S
C1045 C90 1.380 . S
C1065 C21 0.700 . S
C1071 C511 0.716 . S
C1091 C546 1.029 . S
C1085 C35 1.021 . S
C1111 C585 1.297 . S
C1105 C50 1.298 . S
C1125 C6 1.227 . S
C1131 C622 1.264 . S
C1151 C354 2.331 . S
C1145 C232 2.292 1_545 S
C1165 C245 0.480 . S
C1171 C391 0.508 . S
C1191 C434 2.453 . S
C1185 C274 2.473 . S
C1211 C466 1.075 . S
C1205 C175 1.083 1_556 S
C1225 C231 1.078 . S
C1231 C506 1.089 . S
C1251 C554 0.288 . S
C1245 C246 0.259 . S
C1271 C595 1.914 . S
C1265 C273 1.896 . S
C1291 C625 2.212 . S
C1285 C176 2.184 . S
C1311 C351 1.501 . S
C1305 C160 1.418 . S
C1325 C289 2.140 . S
C1331 C674 2.126 . S
C1351 C711 1.289 . S
C1345 C328 1.233 . S
C1371 C742 0.867 . S
C1365 C317 0.877 . S
C1385 C118 2.657 . S
C1391 C635 2.683 . S
C1405 C132 1.408 . S
C1411 C431 1.425 . S
C1425 C331 1.804 . S
C1431 C794 1.795 . S
C1451 C826 1.936 . S
C1445 C303 1.932 . S
C1471 C355 2.134 . S
C1465 C63 2.178 . S
C1491 C825 2.466 . S
C1485 C107 2.432 . S
C1505 C92 1.418 . S
C1511 C435 1.441 . S
C1525 C78 1.830 . S
C1531 C782 1.807 . S
C1551 C502 1.204 . S
C1545 C8 1.183 . S
C1565 C51 1.107 . S
C1571 C715 1.107 . S
C1591 C594 1.551 . S
C1585 C37 1.563 . S
C1611 C871 1.237 . S
C1605 C20 1.229 1_655 S
C1631 C345 2.052 1_556 S
C1625 C147 2.023 . S
C1651 C822 0.508 . S
C1645 C316 0.490 . S
C1665 C119 2.353 . S
C1671 C425 2.405 . S
C1685 C288 1.217 . S
C1691 C795 1.205 . S
C1705 C148 1.427 . S
C1711 C515 1.415 . S
C1731 C705 0.438 . S
C1725 C315 0.460 . S
C1745 C120 2.302 . S
C1751 C586 2.193 . S
C1765 C287 1.922 1_556 S
C1771 C874 1.935 . S
C1785 C188 1.208 . S
C1791 C342 1.210 . S
C1805 C177 2.503 . S
C1811 C665 2.511 . S
C1825 C258 1.231 . S
C1831 C542 1.285 . S
C1845 C247 0.739 . S
C1851 C751 0.748 . S
C1871 C866 2.641 . S
C1865 C272 2.631 . S
C1885 C216 1.325 . S
C1891 C422 1.337 . S
C1911 C465 2.063 . S
C1905 C261 2.040 . S
C1931 C395 2.110 . S
C1925 C205 2.117 . S
C1945 C76 2.261 . S
C1951 C906 2.223 . S
C1971 C834 2.070 . S
C1965 C93 2.079 . S
C1985 C105 1.227 . S
C1991 C946 1.222 . S
C2005 C62 1.419 1_655 S
C2011 C791 1.420 . S
C2025 C49 0.711 . S
C2031 C671 0.684 . S
C2051 C706 1.397 . S
C2045 C9 1.403 . S
C2071 C745 1.201 . S
C2065 C22 1.209 . S
C2091 C862 1.571 . S
C2085 C36 1.557 . S
C2111 C914 2.268 . S
C2105 C260 2.236 . S
C2125 C189 0.438 . S
C2131 C831 0.451 . S
C2151 C954 2.366 . S
C2145 C204 2.385 . S
C2171 C786 0.905 . S
C2165 C217 0.900 . S
C2191 C666 1.231 1_556 S
C2185 C259 1.238 . S
C2205 C190 0.294 . S
C2211 C714 0.317 . S
C2231 C755 2.100 . S
C2225 C203 2.079 . S
C2245 C218 2.268 . S
C2251 C865 2.303 . S
C2271 C911 1.533 . S
C2265 C314 1.449 . S
C2285 C135 2.206 . S
C2291 C514 2.185 . S
C2311 C551 1.251 . S
C2305 C146 1.218 . S
C2331 C582 0.822 . S
C2325 C163 0.827 . S
C2351 C875 2.746 . S
C2345 C300 2.725 . S
C2365 C286 1.375 . S
C2371 C951 1.385 . S
C2391 C474 1.731 . S
C2385 C149 1.736 . S
C2411 C386 1.877 . S
C2405 C121 1.880 . S
C2425 C91 2.159 . S
C2431 C915 2.123 . S
C2451 C385 2.049 . S
C2445 C77 1.971 . S
C2465 C64 1.397 . S
C2471 C955 1.427 . S
C2485 C104 1.523 . S
C2491 C462 1.535 . S
C2505 C34 0.843 . S
C2511 C662 0.883 1_556 S
C2531 C555 1.071 . S
C2525 C23 1.064 . S
C2545 C7 1.112 . S
C2551 C754 1.159 . S
C2565 C48 1.218 . S
C2571 C631 1.227 . S
C2591 C905 2.008 . S
C2585 C329 1.990 . S
C2605 C162 0.434 . S
C2611 C382 0.468 . S
C2631 C945 2.383 1_556 S
C2625 C301 2.341 . S
C2645 C134 1.228 . S
C2651 C475 1.234 . S
C2665 C330 1.441 . S
C2671 C675 1.429 . S
C2691 C545 0.450 . S
C2685 C161 0.541 . S
C2705 C302 2.260 . S
C2711 C746 2.177 1_655 S
C2731 C634 1.916 . S
C2725 C133 1.904 . S
C2751 C902 1.325 . S
C2745 C244 1.310 . S
C2771 C505 2.496 1_665 S
C2765 C219 2.484 . S
C2785 C230 1.036 . S
C2791 C702 1.072 . S
C2811 C591 0.804 . S
C2805 C191 0.828 . S
C2825 C202 2.875 . S
C2831 C626 2.895 . S
C2845 C174 1.496 . S
C2851 C942 1.518 . S
C2871 C785 2.052 . S
C2865 C233 2.010 . S
C2891 C835 2.058 . S
C2885 C275 2.079 . S
