# Generated by pormake.
# Topology zzz, (3,6)-cn, num edge types: 1
# Building blocks:
#     Node 0, Type 0, BuildingBlock: OLANEW_clean_sbu_2, # of connection points: 3
#     Node 1, Type 0, BuildingBlock: OLANEW_clean_sbu_2, # of connection points: 3
#     Node 2, Type 0, BuildingBlock: OLANEW_clean_sbu_2, # of connection points: 3
#     Node 3, Type 0, BuildingBlock: OLANEW_clean_sbu_2, # of connection points: 3
#     Node 4, Type 0, BuildingBlock: OLANEW_clean_sbu_2, # of connection points: 3
#     Node 5, Type 0, BuildingBlock: OLANEW_clean_sbu_2, # of connection points: 3
#     Node 6, Type 0, BuildingBlock: OLANEW_clean_sbu_2, # of connection points: 3
#     Node 7, Type 0, BuildingBlock: OLANEW_clean_sbu_2, # of connection points: 3
#     Node 8, Type 1, BuildingBlock: KUMBUR_clean_sbu_0, # of connection points: 6
#     Node 9, Type 1, BuildingBlock: KUMBUR_clean_sbu_0, # of connection points: 6
#     Node 10, Type 1, BuildingBlock: KUMBUR_clean_sbu_0, # of connection points: 6
#     Node 11, Type 1, BuildingBlock: KUMBUR_clean_sbu_0, # of connection points: 6
#     Edge 12, Type (0, 1), BuildingBlock: KIFKEQ_clean_linker_1, # of connection points: 2
#     Edge 13, Type (0, 1), BuildingBlock: KIFKEQ_clean_linker_1, # of connection points: 2
#     Edge 14, Type (0, 1), BuildingBlock: KIFKEQ_clean_linker_1, # of connection points: 2
#     Edge 15, Type (0, 1), BuildingBlock: KIFKEQ_clean_linker_1, # of connection points: 2
#     Edge 16, Type (0, 1), BuildingBlock: KIFKEQ_clean_linker_1, # of connection points: 2
#     Edge 17, Type (0, 1), BuildingBlock: KIFKEQ_clean_linker_1, # of connection points: 2
#     Edge 18, Type (0, 1), BuildingBlock: KIFKEQ_clean_linker_1, # of connection points: 2
#     Edge 19, Type (0, 1), BuildingBlock: KIFKEQ_clean_linker_1, # of connection points: 2
#     Edge 20, Type (0, 1), BuildingBlock: KIFKEQ_clean_linker_1, # of connection points: 2
#     Edge 21, Type (0, 1), BuildingBlock: KIFKEQ_clean_linker_1, # of connection points: 2
#     Edge 22, Type (0, 1), BuildingBlock: KIFKEQ_clean_linker_1, # of connection points: 2
#     Edge 23, Type (0, 1), BuildingBlock: KIFKEQ_clean_linker_1, # of connection points: 2
#     Edge 24, Type (0, 1), BuildingBlock: KIFKEQ_clean_linker_1, # of connection points: 2
#     Edge 25, Type (0, 1), BuildingBlock: KIFKEQ_clean_linker_1, # of connection points: 2
#     Edge 26, Type (0, 1), BuildingBlock: KIFKEQ_clean_linker_1, # of connection points: 2
#     Edge 27, Type (0, 1), BuildingBlock: KIFKEQ_clean_linker_1, # of connection points: 2
#     Edge 28, Type (0, 1), BuildingBlock: KIFKEQ_clean_linker_1, # of connection points: 2
#     Edge 29, Type (0, 1), BuildingBlock: KIFKEQ_clean_linker_1, # of connection points: 2
#     Edge 30, Type (0, 1), BuildingBlock: KIFKEQ_clean_linker_1, # of connection points: 2
#     Edge 31, Type (0, 1), BuildingBlock: KIFKEQ_clean_linker_1, # of connection points: 2
#     Edge 32, Type (0, 1), BuildingBlock: KIFKEQ_clean_linker_1, # of connection points: 2
#     Edge 33, Type (0, 1), BuildingBlock: KIFKEQ_clean_linker_1, # of connection points: 2
#     Edge 34, Type (0, 1), BuildingBlock: KIFKEQ_clean_linker_1, # of connection points: 2
#     Edge 35, Type (0, 1), BuildingBlock: KIFKEQ_clean_linker_1, # of connection points: 2
# Relax obj value: 0.151
# Max RMSD: 0.165
# Mean RMSD: 0.124
data_MOF--net-zzz--node1-OLANEW_clean_sbu_2--node2-KUMBUR_clean_sbu_0--edge1-KIFKEQ_clean_linker_1
_symmetry_space_group_name_H-M    P1
_symmetry_Int_Tables_number       1
_symmetry_cell_setting            triclinic
loop_
_symmetry_equiv_pos_as_xyz
'x, y, z'
_cell_length_a     55.154728
_cell_length_b     55.169365
_cell_length_c     16.980667
_cell_angle_alpha  90.083856
_cell_angle_beta   90.069
_cell_angle_gamma 89.967453
loop_
_atom_site_label
_atom_site_type_symbol
_atom_site_fract_x
_atom_site_fract_y
_atom_site_fract_z
_atom_type_partial_charge
O0 O 0.74643 0.60344 0.97855 0.0
Cd1 Cd 0.71119 0.62958 0.98874 0.0
O2 O 0.74291 0.59082 0.10058 0.0
Cd3 Cd 0.7578 0.57171 0.20202 0.0
O4 O 0.78762 0.55754 0.27216 0.0
C5 C 0.80862 0.5626 0.24631 0.0
O6 O 0.81051 0.57562 0.18188 0.0
C7 C 0.7537 0.59002 0.03446 0.0
C8 C 0.67222 0.60394 0.92742 0.0
O9 O 0.68648 0.61589 0.88239 0.0
O10 O 0.676 0.60465 0.00188 0.0
O11 O 0.92308 0.75703 0.98177 0.0
Cd12 Cd 0.89693 0.72165 0.98194 0.0
O13 O 0.92381 0.75965 0.11087 0.0
Cd14 Cd 0.93351 0.77992 0.21666 0.0
O15 O 0.9505 0.81062 0.27539 0.0
C16 C 0.94319 0.81851 0.34144 0.0
O17 O 0.92518 0.80744 0.37696 0.0
C18 C 0.93065 0.76738 0.04393 0.0
C19 C 0.92299 0.68309 0.91926 0.0
O20 O 0.91135 0.69769 0.87441 0.0
O21 O 0.92187 0.68645 0.99388 0.0
O22 O 0.7545 0.89783 0.01764 0.0
Cd23 Cd 0.79383 0.88016 0.0473 0.0
O24 O 0.7541 0.91041 0.14032 0.0
Cd25 Cd 0.73641 0.93282 0.22897 0.0
O26 O 0.70502 0.95108 0.27877 0.0
C27 C 0.69247 0.93959 0.3289 0.0
O28 O 0.6997 0.918 0.35159 0.0
C29 C 0.74408 0.90925 0.07298 0.0
C30 C 0.82909 0.90569 0.96533 0.0
O31 O 0.82072 0.88564 0.93845 0.0
O32 O 0.82108 0.91341 0.03157 0.0
O33 O 0.62406 0.7562 0.9664 0.0
Cd34 Cd 0.65191 0.79032 0.96842 0.0
O35 O 0.61062 0.76569 0.08405 0.0
Cd36 Cd 0.5889 0.75654 0.18688 0.0
O37 O 0.57165 0.72796 0.25453 0.0
C38 C 0.57778 0.70667 0.23403 0.0
O39 O 0.59371 0.704 0.17721 0.0
C40 C 0.60937 0.75252 0.0226 0.0
C41 C 0.625 0.82881 0.91029 0.0
O42 O 0.63539 0.8137 0.86397 0.0
O43 O 0.62825 0.82647 0.98463 0.0
O44 O 0.26363 0.40667 0.28137 0.0
Cd45 Cd 0.30035 0.3844 0.25084 0.0
O46 O 0.25528 0.40798 0.15524 0.0
Cd47 Cd 0.23425 0.4214 0.05579 0.0
O48 O 0.20162 0.43281 0.9944 0.0
C49 C 0.20167 0.44652 0.93445 0.0
O50 O 0.22243 0.45416 0.90588 0.0
C51 C 0.25019 0.41403 0.22563 0.0
C52 C 0.33764 0.41424 0.30207 0.0
O53 O 0.32861 0.41664 0.23297 0.0
O54 O 0.32974 0.39702 0.34563 0.0
O55 O 0.0879 0.25559 0.24469 0.0
Cd56 Cd 0.1133 0.29143 0.254 0.0
O57 O 0.09627 0.24943 0.11964 0.0
Cd58 Cd 0.08871 0.22908 0.01232 0.0
O59 O 0.0739 0.20118 0.93543 0.0
C60 C 0.05248 0.19374 0.94864 0.0
O61 O 0.03978 0.20396 0.00505 0.0
C62 C 0.08519 0.2433 0.18208 0.0
C63 C 0.08522 0.32906 0.31374 0.0
O64 O 0.0879 0.32624 0.2393 0.0
O65 O 0.09624 0.31435 0.35988 0.0
O66 O 0.25422 0.10876 0.24079 0.0
Cd67 Cd 0.21888 0.13392 0.21481 0.0
O68 O 0.26236 0.10795 0.11425 0.0
Cd69 Cd 0.28354 0.0926 0.01789 0.0
O70 O 0.31159 0.07204 0.95719 0.0
C71 C 0.33318 0.08004 0.95875 0.0
O72 O 0.33756 0.1009 0.9933 0.0
C73 C 0.26733 0.10142 0.1842 0.0
C74 C 0.17933 0.11104 0.28326 0.0
O75 O 0.18589 0.10594 0.21278 0.0
O76 O 0.19105 0.12753 0.32048 0.0
O77 O 0.4527 0.24444 0.12802 0.0
Cd78 Cd 0.43276 0.20835 0.07829 0.0
O79 O 0.42077 0.26651 0.10065 0.0
Cd80 Cd 0.4042 0.30171 0.07949 0.0
O81 O 0.40918 0.33716 0.02671 0.0
C82 C 0.43119 0.34215 0.01198 0.0
O83 O 0.44799 0.32619 0.02974 0.0
C84 C 0.44217 0.26486 0.12816 0.0
C85 C 0.44348 0.17223 0.18563 0.0
O86 O 0.45765 0.17664 0.12766 0.0
O87 O 0.42367 0.18429 0.19089 0.0
Tb88 Tb 0.02029 0.9985 0.70694 0.0
C89 C 0.94081 0.99412 0.44925 0.0
C90 C 0.95578 0.96463 0.35596 0.0
C91 C 0.91236 0.9704 0.3716 0.0
C92 C 0.95992 0.98232 0.41448 0.0
C93 C 0.91676 0.98877 0.42719 0.0
C94 C 0.93187 0.95831 0.33604 0.0
C95 C 0.90354 0.02149 0.51148 0.0
N96 N 0.94592 0.01179 0.50206 0.0
C97 C 0.92775 0.02614 0.53109 0.0
C98 C 0.89798 0.0025 0.46006 0.0
Tb99 Tb 0.98592 0.01766 0.53367 0.0
N100 N 0.98265 0.98913 0.43525 0.0
C101 C 0.00214 0.98021 0.39459 0.0
C102 C 0.97575 0.95437 0.31779 0.0
C103 C 0.99901 0.96251 0.3363 0.0
H104 H 0.93183 0.04074 0.57135 0.0
H105 H 0.01459 0.95508 0.30599 0.0
H106 H 0.92829 0.94458 0.29184 0.0
H107 H 0.8892 0.03253 0.53613 0.0
H108 H 0.02031 0.98606 0.40802 0.0
H109 H 0.99297 0.05901 0.94185 0.0
H110 H 0.97338 0.94065 0.2727 0.0
H111 H 0.07429 0.97711 0.65764 0.0
H112 H 0.98654 0.02943 0.83562 0.0
H113 H 0.11713 0.98509 0.69076 0.0
H114 H 0.894 0.96582 0.35433 0.0
H115 H 0.03448 0.07229 0.97615 0.0
H116 H 0.07944 0.06826 0.95444 0.0
H117 H 0.87923 0.99898 0.44472 0.0
H118 H 0.1133 0.04809 0.88614 0.0
N119 N 0.02409 0.02612 0.80746 0.0
C120 C 0.00482 0.03486 0.84958 0.0
C121 C 0.0318 0.05921 0.92928 0.0
C122 C 0.05153 0.04926 0.88891 0.0
C123 C 0.00835 0.05173 0.91016 0.0
C124 C 0.04699 0.03241 0.8281 0.0
H125 H 0.12755 0.01682 0.78824 0.0
N126 N 0.06054 0.00446 0.73416 0.0
C127 C 0.1029 0.99545 0.71891 0.0
C128 C 0.06592 0.02117 0.79002 0.0
C129 C 0.07859 0.99093 0.70046 0.0
C130 C 0.10871 0.01341 0.77385 0.0
C131 C 0.0901 0.02631 0.81102 0.0
O132 O 0.03076 0.96335 0.74072 0.0
O133 O 0.0013 0.98863 0.60123 0.0
O134 O 0.9606 0.99832 0.60977 0.0
O135 O 0.98104 0.00053 0.73094 0.0
O136 O 0.03094 0.96855 0.62824 0.0
O137 O 0.0047 0.98389 0.80891 0.0
O138 O 0.97559 0.0524 0.49433 0.0
O139 O 0.00403 0.02741 0.64091 0.0
O140 O 0.04449 0.01988 0.63343 0.0
O141 O 0.02533 0.01452 0.51219 0.0
O142 O 0.97489 0.04785 0.61065 0.0
O143 O 0.004 0.03221 0.43635 0.0
C144 C 0.01335 0.97055 0.57906 0.0
C145 C 0.02664 0.95332 0.87509 0.0
C146 C 0.02709 0.91895 0.96494 0.0
C147 C 0.01898 0.93006 0.89546 0.0
C148 C 0.04293 0.93173 0.01483 0.0
C149 C 0.04265 0.9659 0.92453 0.0
C150 C 0.05074 0.95506 0.99433 0.0
C151 C 0.96159 0.99575 0.68733 0.0
C152 C 0.01684 0.96373 0.80259 0.0
C153 C 0.09484 0.04373 0.86951 0.0
C154 C 0.07557 0.0552 0.90839 0.0
C155 C 0.99179 0.04549 0.66214 0.0
C156 C 0.98335 0.06115 0.36034 0.0
C157 C 0.9922 0.08367 0.33639 0.0
C158 C 0.98683 0.09286 0.26139 0.0
C159 C 0.97237 0.07905 0.21001 0.0
C160 C 0.96872 0.04755 0.30924 0.0
C161 C 0.96323 0.05656 0.23424 0.0
C162 C 0.04423 0.02123 0.55561 0.0
C163 C 0.99125 0.05203 0.43703 0.0
H164 H 0.00618 0.92074 0.85743 0.0
H165 H 0.04942 0.92362 0.06896 0.0
H166 H 0.0487 0.98398 0.90955 0.0
H167 H 0.06304 0.96478 0.03274 0.0
H168 H 0.00396 0.0938 0.37577 0.0
H169 H 0.96802 0.0857 0.1517 0.0
H170 H 0.96188 0.02998 0.32682 0.0
H171 H 0.95204 0.04602 0.19458 0.0
Tb172 Tb 0.51787 0.01658 0.70721 0.0
C173 C 0.508 0.93641 0.45386 0.0
C174 C 0.53468 0.9483 0.34796 0.0
C175 C 0.52641 0.9056 0.37073 0.0
C176 C 0.51968 0.95429 0.41228 0.0
C177 C 0.51088 0.91184 0.4331 0.0
C178 C 0.53831 0.92382 0.32821 0.0
C179 C 0.48181 0.9017 0.53414 0.0
N180 N 0.49322 0.94323 0.51355 0.0
C181 C 0.47951 0.92635 0.55222 0.0
C182 C 0.49774 0.89438 0.47478 0.0
Tb183 Tb 0.49123 0.98385 0.54096 0.0
N184 N 0.51568 0.97765 0.43347 0.0
C185 C 0.52492 0.99607 0.38877 0.0
C186 C 0.54521 0.96709 0.30469 0.0
C187 C 0.54005 0.99109 0.32464 0.0
H188 H 0.4673 0.93181 0.59858 0.0
H189 H 0.54778 0.00579 0.29083 0.0
H190 H 0.54993 0.91883 0.27939 0.0
H191 H 0.47131 0.88838 0.56602 0.0
H192 H 0.52131 0.01476 0.40326 0.0
H193 H 0.46062 0.9934 0.95467 0.0
H194 H 0.55693 0.96328 0.25502 0.0
H195 H 0.54389 0.06866 0.66065 0.0
H196 H 0.48764 0.98508 0.84318 0.0
H197 H 0.53995 0.11186 0.69604 0.0
H198 H 0.52902 0.88681 0.35413 0.0
H199 H 0.45054 0.03567 0.99073 0.0
H200 H 0.45722 0.08026 0.96837 0.0
H201 H 0.49945 0.87529 0.46076 0.0
H202 H 0.47888 0.11266 0.89774 0.0
N203 N 0.49274 0.02233 0.81366 0.0
C204 C 0.48366 0.00368 0.85777 0.0
C205 C 0.46253 0.03215 0.94153 0.0
C206 C 0.473 0.05118 0.89931 0.0
C207 C 0.46823 0.00829 0.92144 0.0
C208 C 0.48837 0.04555 0.83552 0.0
H209 H 0.5101 0.12461 0.79669 0.0
N210 N 0.51596 0.05703 0.73842 0.0
C211 C 0.52859 0.09849 0.72445 0.0
C212 C 0.5004 0.06362 0.79621 0.0
C213 C 0.5308 0.07396 0.70466 0.0
C214 C 0.51169 0.10562 0.7811 0.0
C215 C 0.49762 0.08805 0.81885 0.0
O216 O 0.55446 0.02358 0.73352 0.0
O217 O 0.52321 0.99765 0.59788 0.0
O218 O 0.51296 0.95833 0.60818 0.0
O219 O 0.51239 0.97749 0.7305 0.0
O220 O 0.5463 0.02536 0.62113 0.0
O221 O 0.5337 0.9982 0.80251 0.0
O222 O 0.45491 0.97575 0.51347 0.0
O223 O 0.48605 0.0032 0.64905 0.0
O224 O 0.49863 0.04338 0.63608 0.0
O225 O 0.49624 0.02258 0.51561 0.0
O226 O 0.46257 0.97578 0.62756 0.0
O227 O 0.47517 0.00221 0.44641 0.0
C228 C 0.54138 0.00863 0.57092 0.0
C229 C 0.56622 0.01769 0.86571 0.0
C230 C 0.59749 0.01139 0.96477 0.0
C231 C 0.58469 0.00348 0.89814 0.0
C232 C 0.5914 0.0337 0.99946 0.0
C233 C 0.55997 0.03979 0.90122 0.0
C234 C 0.57253 0.0477 0.96812 0.0
C235 C 0.51682 0.95838 0.68509 0.0
C236 C 0.55444 0.00903 0.79376 0.0
C237 C 0.48148 0.09398 0.87988 0.0
C238 C 0.46917 0.07554 0.9201 0.0
C239 C 0.46762 0.99287 0.67627 0.0
C240 C 0.44216 0.98357 0.38284 0.0
C241 C 0.42099 0.99597 0.36211 0.0
C242 C 0.40844 0.99029 0.29254 0.0
C243 C 0.41766 0.972 0.24312 0.0
C244 C 0.45116 0.96527 0.33362 0.0
C245 C 0.43887 0.95954 0.26385 0.0
C246 C 0.49427 0.04241 0.55939 0.0
C247 C 0.45456 0.99104 0.45504 0.0
H248 H 0.58962 0.98652 0.86991 0.0
H249 H 0.60115 0.04021 0.05069 0.0
H250 H 0.54566 0.05094 0.87699 0.0
H251 H 0.56781 0.06483 0.99525 0.0
H252 H 0.41455 0.01048 0.39989 0.0
H253 H 0.40836 0.96718 0.18913 0.0
H254 H 0.46761 0.95562 0.34879 0.0
H255 H 0.44582 0.94543 0.22569 0.0
Tb256 Tb 0.51808 0.50304 0.54669 0.0
C257 C 0.42674 0.53617 0.72767 0.0
C258 C 0.39809 0.54449 0.6232 0.0
C259 C 0.3835 0.53219 0.75211 0.0
C260 C 0.42215 0.54261 0.65074 0.0
C261 C 0.40749 0.53143 0.77994 0.0
C262 C 0.37881 0.53869 0.67377 0.0
C263 C 0.43696 0.52769 0.88448 0.0
N264 N 0.45014 0.5357 0.7522 0.0
C265 C 0.45543 0.53255 0.83034 0.0
C266 C 0.4129 0.52676 0.85899 0.0
Tb267 Tb 0.47902 0.54324 0.65844 0.0
N268 N 0.44125 0.54833 0.60416 0.0
C269 C 0.43736 0.55815 0.53127 0.0
C270 C 0.39413 0.55289 0.54658 0.0
C271 C 0.41386 0.56011 0.50088 0.0
H272 H 0.47386 0.53335 0.85128 0.0
H273 H 0.41098 0.56723 0.44226 0.0
H274 H 0.36021 0.5398 0.65352 0.0
H275 H 0.44131 0.52468 0.94587 0.0
H276 H 0.45234 0.56395 0.49516 0.0
H277 H 0.58167 0.46968 0.76408 0.0
H278 H 0.37594 0.55454 0.52307 0.0
H279 H 0.52688 0.52001 0.36187 0.0
H280 H 0.54143 0.47595 0.70541 0.0
H281 H 0.5613 0.53176 0.27733 0.0
H282 H 0.36845 0.52838 0.79113 0.0
H283 H 0.61832 0.48491 0.69647 0.0
H284 H 0.63665 0.50459 0.57683 0.0
H285 H 0.39864 0.52306 0.90109 0.0
H286 H 0.63113 0.52136 0.44359 0.0
N287 N 0.55475 0.4952 0.60555 0.0
C288 C 0.55712 0.48265 0.67459 0.0
C289 C 0.60063 0.48774 0.67022 0.0
C290 C 0.59823 0.49921 0.59723 0.0
C291 C 0.58 0.47905 0.70839 0.0
C292 C 0.57477 0.50249 0.56593 0.0
H293 H 0.60308 0.53116 0.33067 0.0
N294 N 0.54887 0.51341 0.46278 0.0
C295 C 0.56448 0.52631 0.33766 0.0
C296 C 0.57173 0.51188 0.49158 0.0
C297 C 0.54503 0.51957 0.38568 0.0
C298 C 0.58804 0.52601 0.36804 0.0
C299 C 0.59195 0.51835 0.44555 0.0
O300 O 0.50936 0.48084 0.44996 0.0
O301 O 0.48197 0.51631 0.56687 0.0
O302 O 0.46878 0.50712 0.6961 0.0
O303 O 0.50215 0.48465 0.65046 0.0
O304 O 0.49216 0.51161 0.45317 0.0
O305 O 0.52179 0.46532 0.55932 0.0
O306 O 0.49539 0.56855 0.73429 0.0
O307 O 0.51479 0.52908 0.6392 0.0
O308 O 0.52887 0.54016 0.5208 0.0
O309 O 0.49269 0.56014 0.54947 0.0
O310 O 0.50479 0.53451 0.75282 0.0
O311 O 0.46916 0.58008 0.64858 0.0
C312 C 0.47402 0.51696 0.49738 0.0
C313 C 0.53017 0.44379 0.44199 0.0
C314 C 0.53195 0.40771 0.35879 0.0
C315 C 0.51855 0.42463 0.40299 0.0
C316 C 0.55728 0.41035 0.35418 0.0
C317 C 0.55542 0.44619 0.43678 0.0
C318 C 0.56888 0.42951 0.39291 0.0
C319 C 0.48205 0.4871 0.69328 0.0
C320 C 0.51537 0.46106 0.48673 0.0
C321 C 0.61535 0.51626 0.47764 0.0
C322 C 0.61848 0.50672 0.55349 0.0
C323 C 0.52248 0.52761 0.70881 0.0
C324 C 0.47278 0.60283 0.76731 0.0
C325 C 0.48882 0.6181 0.80772 0.0
C326 C 0.48049 0.6338 0.86692 0.0
C327 C 0.45563 0.63417 0.88498 0.0
C328 C 0.44806 0.60305 0.7866 0.0
C329 C 0.43956 0.61876 0.8452 0.0
C330 C 0.51446 0.55931 0.51638 0.0
C331 C 0.48291 0.58658 0.70723 0.0
H332 H 0.49905 0.42272 0.40817 0.0
H333 H 0.56809 0.39776 0.32007 0.0
H334 H 0.56468 0.46084 0.46651 0.0
H335 H 0.58837 0.43143 0.38886 0.0
H336 H 0.5079 0.61793 0.79223 0.0
H337 H 0.44871 0.64614 0.93031 0.0
H338 H 0.43542 0.59116 0.75668 0.0
H339 H 0.42048 0.61897 0.85992 0.0
Tb340 Tb 0.01808 0.52406 0.544 0.0
C341 C 0.99847 0.43535 0.75319 0.0
C342 C 0.9843 0.40476 0.66219 0.0
C343 C 0.00581 0.39278 0.78097 0.0
C344 C 0.98707 0.42928 0.6839 0.0
C345 C 0.00755 0.41722 0.80361 0.0
C346 C 0.99421 0.38655 0.71024 0.0
C347 C 0.01762 0.44867 0.89719 0.0
N348 N -0.00032 0.45913 0.77274 0.0
C349 C 0.00828 0.46596 0.84513 0.0
C350 C 0.01753 0.4242 0.87596 0.0
Tb351 Tb 0.98502 0.48627 0.68229 0.0
N352 N 0.97763 0.44743 0.63976 0.0
C353 C 0.96343 0.44208 0.57592 0.0
C354 C 0.97107 0.3993 0.59417 0.0
C355 C 0.96026 0.41804 0.55157 0.0
H356 H 0.00859 0.48482 0.86204 0.0
H357 H 0.94955 0.41401 0.49973 0.0
H358 H 0.99248 0.36761 0.69423 0.0
H359 H 0.02491 0.45423 0.95358 0.0
H360 H 0.95506 0.45625 0.54179 0.0
H361 H 0.05373 0.59681 0.72418 0.0
H362 H 0.96856 0.38071 0.57525 0.0
H363 H 0.99463 0.52502 0.36394 0.0
H364 H 0.04804 0.55446 0.68372 0.0
H365 H 0.97865 0.55535 0.27103 0.0
H366 H 0.01287 0.37855 0.81849 0.0
H367 H 0.035 0.62994 0.64713 0.0
H368 H 0.01134 0.64273 0.52728 0.0
H369 H 0.02473 0.41083 0.91643 0.0
H370 H 0.99107 0.63145 0.40315 0.0
N371 N 0.02559 0.56303 0.58518 0.0
C372 C 0.03976 0.56854 0.64893 0.0
C373 C 0.0324 0.61129 0.62892 0.0
C374 C 0.01923 0.60565 0.56094 0.0
C375 C 0.04305 0.59265 0.67238 0.0
C376 C 0.01633 0.58107 0.54017 0.0
H377 H 0.97912 0.59888 0.30636 0.0
N378 N 0.00369 0.55097 0.45231 0.0
C379 C 0.98593 0.56108 0.32726 0.0
C380 C 0.00502 0.57481 0.47092 0.0
C381 C 0.99508 0.54392 0.38014 0.0
C382 C 0.98618 0.58562 0.34747 0.0
C383 C 0.99612 0.59281 0.41965 0.0
O384 O 0.03792 0.51211 0.44595 0.0
O385 O 0.00705 0.48833 0.57878 0.0
O386 O 0.02334 0.47794 0.69723 0.0
O387 O 0.04062 0.51321 0.64583 0.0
O388 O 0.00762 0.49517 0.46164 0.0
O389 O 0.05583 0.52956 0.54398 0.0
O390 O 0.96533 0.49791 0.78115 0.0
O391 O 0.99602 0.52199 0.64752 0.0
O392 O 0.97988 0.53264 0.52934 0.0
O393 O 0.96233 0.49748 0.58085 0.0
O394 O 0.99541 0.51514 0.7648 0.0
O395 O 0.94733 0.48046 0.68335 0.0
C396 C 0.00381 0.47849 0.51281 0.0
C397 C 0.07507 0.53126 0.41975 0.0
C398 C 0.11263 0.52825 0.34516 0.0
C399 C 0.09648 0.51898 0.40126 0.0
C400 C 0.10702 0.55022 0.30747 0.0
C401 C 0.06967 0.55328 0.38262 0.0
C402 C 0.0857 0.56273 0.32666 0.0
C403 C 0.04191 0.49284 0.68733 0.0
C404 C 0.05841 0.51963 0.47488 0.0
C405 C 0.99798 0.61732 0.44134 0.0
C406 C 0.00951 0.62374 0.51201 0.0
C407 C -0.00071 0.53179 0.71356 0.0
C408 C 0.92874 0.47785 0.80848 0.0
C409 C 0.9081 0.49033 0.83365 0.0
C410 C 0.89217 0.48002 0.88864 0.0
C411 C 0.89742 0.4569 0.91899 0.0
C412 C 0.93376 0.45473 0.83847 0.0
C413 C 0.91809 0.44434 0.89369 0.0
C414 C 0.96127 0.51775 0.53862 0.0
C415 C 0.94485 0.4901 0.75293 0.0
H416 H 0.10025 0.50171 0.42927 0.0
H417 H 0.11917 0.55777 0.26386 0.0
H418 H 0.0531 0.56294 0.39618 0.0
H419 H 0.08151 0.57969 0.29768 0.0
H420 H 0.90469 0.50841 0.81116 0.0
H421 H 0.88544 0.44846 0.96134 0.0
H422 H 0.94972 0.44489 0.8197 0.0
H423 H 0.92197 0.4265 0.91701 0.0
H424 H 0.15664 0.07018 0.23045 0.0
H425 H 0.15725 0.12139 0.42319 0.0
H426 H 0.12533 0.0468 0.29681 0.0
H427 H 0.12529 0.09854 0.4883 0.0
H428 H 0.08497 0.04085 0.62233 0.0
H429 H 0.11811 0.06143 0.55602 0.0
H430 H 0.08369 0.04805 0.33126 0.0
H431 H 0.05128 0.02637 0.39698 0.0
C432 C 0.14988 0.07659 0.28662 0.0
C433 C 0.15941 0.09762 0.32161 0.0
C434 C 0.13187 0.06323 0.32459 0.0
C435 C 0.12281 0.07072 0.3981 0.0
C436 C 0.13217 0.09196 0.43253 0.0
C437 C 0.15034 0.1052 0.39487 0.0
C438 C 0.08466 0.04189 0.55867 0.0
C439 C 0.0654 0.03193 0.51512 0.0
C440 C 0.10354 0.054 0.52067 0.0
C441 C 0.10348 0.05664 0.43828 0.0
C442 C 0.08449 0.04617 0.39468 0.0
C443 C 0.06575 0.03386 0.43258 0.0
H444 H 0.41483 0.15352 0.30166 0.0
H445 H 0.48759 0.15101 0.20757 0.0
H446 H 0.42645 0.12442 0.40341 0.0
H447 H 0.49913 0.12206 0.30947 0.0
H448 H 0.51665 0.08626 0.54492 0.0
H449 H 0.50357 0.11999 0.46056 0.0
H450 H 0.4391 0.07993 0.3974 0.0
H451 H 0.45218 0.04652 0.4814 0.0
C452 C 0.43328 0.1468 0.3028 0.0
C453 C 0.45026 0.1544 0.2464 0.0
C454 C 0.43991 0.13021 0.36101 0.0
C455 C 0.46371 0.12121 0.36444 0.0
C456 C 0.48076 0.12903 0.30874 0.0
C457 C 0.47406 0.14537 0.24996 0.0
C458 C 0.49945 0.08507 0.5144 0.0
C459 C 0.48533 0.06404 0.51918 0.0
C460 C 0.49209 0.10415 0.46576 0.0
C461 C 0.47038 0.10245 0.42247 0.0
C462 C 0.45579 0.08178 0.43059 0.0
C463 C 0.46331 0.06266 0.47814 0.0
H464 H 0.3672 0.40881 0.42955 0.0
H465 H 0.34906 0.45872 0.24279 0.0
H466 H 0.39715 0.43726 0.47956 0.0
H467 H 0.37822 0.4878 0.29487 0.0
H468 H 0.45517 0.51674 0.35072 0.0
H469 H 0.42028 0.49381 0.30445 0.0
H470 H 0.40318 0.47441 0.54476 0.0
H471 H 0.43897 0.4959 0.58971 0.0
C472 C 0.36949 0.42598 0.39961 0.0
C473 C 0.35596 0.43145 0.33192 0.0
C474 C 0.38646 0.44247 0.4288 0.0
C475 C 0.39003 0.46499 0.39168 0.0
C476 C 0.37621 0.47053 0.32441 0.0
C477 C 0.35948 0.45388 0.29455 0.0
C478 C 0.44364 0.50793 0.39363 0.0
C479 C 0.44982 0.50813 0.47377 0.0
C480 C 0.42354 0.49486 0.36724 0.0
C481 C 0.40907 0.48188 0.42072 0.0
C482 C 0.41428 0.48364 0.50164 0.0
C483 C 0.43463 0.49635 0.52776 0.0
H484 H 0.06629 0.36756 0.23404 0.0
H485 H 0.06937 0.33493 0.46496 0.0
H486 H 0.0427 0.40101 0.28711 0.0
H487 H 0.04486 0.36796 0.51776 0.0
H488 H 0.03394 0.44789 0.59361 0.0
H489 H 0.05014 0.40957 0.54824 0.0
H490 H 0.00505 0.41389 0.34017 0.0
H491 H 0.98931 0.4529 0.38556 0.0
C492 C 0.06164 0.36738 0.29599 0.0
C493 C 0.0699 0.34875 0.34546 0.0
C494 C 0.04788 0.38645 0.32638 0.0
C495 C 0.04181 0.38721 0.40682 0.0
C496 C 0.0495 0.36815 0.45581 0.0
C497 C 0.06351 0.3492 0.42553 0.0
C498 C 0.02693 0.44039 0.53949 0.0
C499 C 0.01016 0.45325 0.49349 0.0
C500 C 0.03626 0.41831 0.51321 0.0
C501 C 0.0291 0.40868 0.44005 0.0
C502 C 0.01133 0.42101 0.39604 0.0
C503 C 0.00216 0.44321 0.42217 0.0
H504 H 0.85992 0.88879 0.85261 0.0
H505 H 0.83953 0.95386 0.97819 0.0
H506 H 0.89123 0.91155 0.78237 0.0
H507 H 0.87051 0.97666 0.90619 0.0
H508 H 0.91342 0.00773 0.68181 0.0
H509 H 0.87987 0.98627 0.74694 0.0
H510 H 0.93084 0.93496 0.84406 0.0
H511 H 0.96414 0.95647 0.78036 0.0
C512 C 0.86199 0.90797 0.86464 0.0
C513 C 0.84743 0.91954 0.92115 0.0
C514 C 0.87986 0.92093 0.82455 0.0
C515 C 0.88309 0.94577 0.83901 0.0
C516 C 0.86816 0.95753 0.89388 0.0
C517 C 0.85063 0.94446 0.93529 0.0
C518 C 0.91731 0.9919 0.71714 0.0
C519 C 0.94124 0.98381 0.72691 0.0
C520 C 0.89825 0.97974 0.75448 0.0
C521 C 0.90293 0.95901 0.80007 0.0
C522 C 0.92685 0.95086 0.80895 0.0
C523 C 0.94585 0.96328 0.77323 0.0
H524 H 0.59769 0.82568 0.77827 0.0
H525 H 0.61461 0.87335 0.97234 0.0
H526 H 0.56869 0.85493 0.72816 0.0
H527 H 0.58691 0.90373 0.9192 0.0
H528 H 0.52236 0.94742 0.84151 0.0
H529 H 0.547 0.91518 0.89798 0.0
H530 H 0.56566 0.89089 0.6632 0.0
H531 H 0.53981 0.92176 0.60771 0.0
C532 C 0.59549 0.84271 0.80935 0.0
C533 C 0.60847 0.84738 0.87874 0.0
C534 C 0.57892 0.85959 0.78047 0.0
C535 C 0.57544 0.88193 0.81902 0.0
C536 C 0.58865 0.88661 0.88853 0.0
C537 C 0.60476 0.86935 0.91864 0.0
C538 C 0.53142 0.93488 0.80219 0.0
C539 C 0.5292 0.93725 0.72015 0.0
C540 C 0.54582 0.91654 0.83451 0.0
C541 C 0.55866 0.90044 0.78543 0.0
C542 C 0.55582 0.90254 0.70334 0.0
C543 C 0.54104 0.92047 0.67123 0.0
H544 H 0.63163 0.58815 0.00289 0.0
H545 H 0.66764 0.58708 0.77726 0.0
H546 H 0.59764 0.56599 0.94677 0.0
H547 H 0.63429 0.56367 0.72173 0.0
H548 H 0.55629 0.55437 0.63022 0.0
H549 H 0.59423 0.56968 0.68181 0.0
H550 H 0.5828 0.52931 0.89689 0.0
H551 H 0.54404 0.51484 0.84538 0.0
C552 C 0.6324 0.58284 0.94149 0.0
C553 C 0.65211 0.58957 0.8942 0.0
C554 C 0.61303 0.56988 0.90936 0.0
C555 C 0.61314 0.56297 0.8295 0.0
C556 C 0.63332 0.56908 0.78297 0.0
C557 C 0.65248 0.58244 0.8148 0.0
C558 C 0.56217 0.54823 0.68749 0.0
C559 C 0.54743 0.53316 0.73347 0.0
C560 C 0.58402 0.55703 0.71737 0.0
C561 C 0.5916 0.55094 0.79399 0.0
C562 C 0.57731 0.53484 0.83837 0.0
C563 C 0.55527 0.52634 0.80878 0.0
H564 H 0.94176 0.64419 0.99709 0.0
H565 H 0.93678 0.67659 0.76619 0.0
H566 H 0.96391 0.61013 0.94177 0.0
H567 H 0.95994 0.64297 0.71098 0.0
H568 H 0.96931 0.56289 0.63434 0.0
H569 H 0.95409 0.60155 0.68083 0.0
H570 H 0.00053 0.59643 0.88559 0.0
H571 H 0.01511 0.55709 0.83947 0.0
C572 C 0.9457 0.64418 0.9346 0.0
C573 C 0.93734 0.66294 0.88588 0.0
C574 C 0.95864 0.62475 0.90287 0.0
C575 C 0.96382 0.62377 0.82178 0.0
C576 C 0.95598 0.64293 0.77343 0.0
C577 C 0.94275 0.66223 0.80508 0.0
C578 C 0.97678 0.5703 0.68801 0.0
C579 C 0.99356 0.55713 0.73302 0.0
C580 C 0.96803 0.59255 0.71491 0.0
C581 C 0.97585 0.60206 0.78756 0.0
C582 C 0.99369 0.58941 0.83029 0.0
C583 C 0.00222 0.56702 0.80371 0.0
H584 H 0.09429 0.19776 0.12758 0.0
H585 H 0.03936 0.24176 0.23816 0.0
H586 H 0.06798 0.16226 0.13765 0.0
H587 H 0.01242 0.20678 0.24469 0.0
H588 H 0.98716 0.13453 0.34651 0.0
H589 H 0.00955 0.17137 0.31942 0.0
H590 H 0.03232 0.1418 0.09534 0.0
H591 H 0.01032 0.10438 0.12424 0.0
C592 C 0.07635 0.19984 0.15259 0.0
C593 C 0.06874 0.22234 0.18219 0.0
C594 C 0.06121 0.17958 0.15806 0.0
C595 C 0.03805 0.18157 0.1923 0.0
C596 C 0.03028 0.20442 0.21939 0.0
C597 C 0.0456 0.2245 0.21535 0.0
C598 C 0.99673 0.13602 0.29104 0.0
C599 C 0.99716 0.11654 0.23778 0.0
C600 C 0.00942 0.15727 0.27503 0.0
C601 C 0.02277 0.15969 0.20498 0.0
C602 C 0.02236 0.14053 0.15004 0.0
C603 C 0.00957 0.11918 0.16614 0.0
H604 H 0.31319 0.10378 0.12714 0.0
H605 H 0.26664 0.06133 0.27657 0.0
H606 H 0.34629 0.07497 0.14846 0.0
H607 H 0.2994 0.0322 0.29752 0.0
H608 H 0.37152 0.00292 0.39093 0.0
H609 H 0.3373 0.02927 0.36328 0.0
H610 H 0.35974 0.03427 0.11997 0.0
H611 H 0.39485 0.00868 0.14894 0.0
C612 C 0.31004 0.088 0.1635 0.0
C613 C 0.28742 0.08447 0.1992 0.0
C614 C 0.32889 0.07149 0.1757 0.0
C615 C 0.32547 0.05112 0.22418 0.0
C616 C 0.30277 0.04779 0.26043 0.0
C617 C 0.28399 0.06441 0.2485 0.0
C618 C 0.36919 0.00965 0.33151 0.0
C619 C 0.38605 0.00393 0.27234 0.0
C620 C 0.34938 0.02456 0.3154 0.0
C621 C 0.34578 0.034 0.23947 0.0
C622 C 0.36218 0.02759 0.17942 0.0
C623 C 0.38211 0.01268 0.1957 0.0
H624 H 0.49039 0.2742 0.11606 0.0
H625 H 0.42373 0.30353 0.20905 0.0
H626 H 0.51252 0.30929 0.16641 0.0
H627 H 0.44578 0.33865 0.25954 0.0
H628 H 0.48936 0.40877 0.27571 0.0
H629 H 0.46785 0.37472 0.21604 0.0
H630 H 0.52466 0.32623 0.29279 0.0
H631 H 0.54619 0.36025 0.35217 0.0
C632 C 0.48048 0.28822 0.14708 0.0
C633 C 0.45528 0.28642 0.15728 0.0
C634 C 0.49314 0.30827 0.17612 0.0
C635 C 0.48091 0.32683 0.2167 0.0
C636 C 0.45568 0.32492 0.22717 0.0
C637 C 0.44302 0.30485 0.19807 0.0
C638 C 0.49722 0.39082 0.28002 0.0
C639 C 0.51945 0.3872 0.31898 0.0
C640 C 0.48488 0.37132 0.24589 0.0
C641 C 0.49448 0.34775 0.24997 0.0
C642 C 0.51692 0.34421 0.28769 0.0
C643 C 0.52927 0.36371 0.32174 0.0
H644 H 0.20503 0.41595 0.15803 0.0
H645 H 0.25023 0.45018 0.33342 0.0
H646 H 0.17321 0.44586 0.18283 0.0
H647 H 0.2184 0.47984 0.35926 0.0
H648 H 0.14467 0.50788 0.44733 0.0
H649 H 0.17812 0.48064 0.41697 0.0
H650 H 0.1642 0.48974 0.16827 0.0
H651 H 0.13017 0.51669 0.19909 0.0
C652 C 0.20831 0.43014 0.20077 0.0
C653 C 0.23027 0.4311 0.24255 0.0
C654 C 0.19008 0.4472 0.21526 0.0
C655 C 0.19337 0.46534 0.27256 0.0
C656 C 0.21524 0.466 0.31511 0.0
C657 C 0.23344 0.44901 0.30044 0.0
C658 C 0.14886 0.50418 0.38616 0.0
C659 C 0.13478 0.5143 0.32555 0.0
C660 C 0.16812 0.4887 0.36873 0.0
C661 C 0.17374 0.48294 0.29022 0.0
C662 C 0.16011 0.49363 0.22937 0.0
C663 C 0.14085 0.50927 0.2469 0.0
H664 H 0.92948 0.80186 0.93052 0.0
H665 H 0.96883 0.78027 0.13889 0.0
H666 H 0.95596 0.83703 0.91673 0.0
H667 H 0.99457 0.81624 0.12736 0.0
H668 H 0.01 0.90235 0.10679 0.0
H669 H 0.98853 0.86411 0.13052 0.0
H670 H 0.00176 0.84244 0.89002 0.0
H671 H 0.02356 0.88014 0.86673 0.0
C672 C 0.94363 0.80477 0.9738 0.0
C673 C 0.94657 0.78877 0.03724 0.0
C674 C 0.95879 0.82484 0.96588 0.0
C675 C 0.97719 0.82934 0.02128 0.0
C676 C 0.98026 0.81333 0.08463 0.0
C677 C 0.96531 0.79298 0.09181 0.0
C678 C 0.00888 0.88911 0.05978 0.0
C679 C 0.01808 0.89437 0.98454 0.0
C680 C 0.99653 0.86732 0.07325 0.0
C681 C 0.99315 0.85064 0.01155 0.0
C682 C 0.00372 0.85525 0.93803 0.0
C683 C 0.01618 0.87681 0.92481 0.0
H684 H 0.73485 0.94031 0.95321 0.0
H685 H 0.70264 0.9083 0.15979 0.0
H686 H 0.69873 0.96562 0.93522 0.0
H687 H 0.6664 0.93353 0.1417 0.0
H688 H 0.5974 0.96343 0.00267 0.0
H689 H 0.63259 0.93793 0.03274 0.0
H690 H 0.67912 0.00068 0.01911 0.0
H691 H 0.64389 0.02623 0.98988 0.0
C692 C 0.7199 0.93856 0.99417 0.0
C693 C 0.72146 0.92262 0.05816 0.0
C694 C 0.69942 0.95316 0.98442 0.0
C695 C 0.67999 0.95167 0.03767 0.0
C696 C 0.68119 0.93502 0.10002 0.0
C697 C 0.70185 0.92069 0.11042 0.0
C698 C 0.61513 0.97178 0.00749 0.0
C699 C 0.61804 0.99673 0.99404 0.0
C700 C 0.63518 0.95724 0.02473 0.0
C701 C 0.6585 0.96737 0.0274 0.0
C702 C 0.6613 0.99246 0.01658 0.0
C703 C 0.64119 0.00707 0.00066 0.0
H704 H 0.61352 0.70908 0.94787 0.0
H705 H 0.56258 0.75382 0.07473 0.0
H706 H 0.58163 0.67944 0.92287 0.0
H707 H 0.53095 0.72364 0.05369 0.0
H708 H 0.4759 0.68235 0.89501 0.0
H709 H 0.50693 0.70999 0.94443 0.0
H710 H 0.55549 0.64945 0.98004 0.0
H711 H 0.52458 0.62197 0.929 0.0
C712 C 0.59562 0.71228 0.97195 0.0
C713 C 0.59069 0.73348 0.01479 0.0
C714 C 0.57737 0.69522 0.95827 0.0
C715 C 0.5537 0.69907 0.98663 0.0
C716 C 0.54892 0.72014 0.03068 0.0
C717 C 0.56717 0.73723 0.04406 0.0
C718 C 0.49305 0.67495 0.91484 0.0
C719 C 0.49793 0.65008 0.90736 0.0
C720 C 0.51085 0.69076 0.94332 0.0
C721 C 0.53385 0.68198 0.96544 0.0
C722 C 0.5382 0.65689 0.96188 0.0
C723 C 0.52047 0.64114 0.93293 0.0
H724 H 0.76086 0.54428 0.09258 0.0
H725 H 0.79303 0.5987 0.94315 0.0
H726 H 0.7944 0.5167 0.06307 0.0
H727 H 0.82619 0.57099 0.91221 0.0
H728 H 0.86114 0.50558 0.79565 0.0
H729 H 0.82812 0.53198 0.83657 0.0
H730 H 0.84051 0.51218 0.07922 0.0
H731 H 0.87402 0.48577 0.03821 0.0
C732 C 0.77542 0.55058 0.05521 0.0
C733 C 0.77465 0.57383 0.02154 0.0
C734 C 0.79449 0.53472 0.03778 0.0
C735 C 0.81282 0.54168 0.98515 0.0
C736 C 0.81215 0.56505 0.95233 0.0
C737 C 0.79324 0.58092 0.97017 0.0
C738 C 0.85689 0.50686 0.85779 0.0
C739 C 0.8704 0.49384 0.91381 0.0
C740 C 0.838 0.52201 0.88119 0.0
C741 C 0.83202 0.52441 0.96114 0.0
C742 C 0.84476 0.51062 0.01715 0.0
C743 C 0.86384 0.49547 0.99367 0.0
H744 H 0.06951 0.17406 0.81203 0.0
H745 H 0.01326 0.16605 0.98675 0.0
H746 H 0.05424 0.13865 0.7426 0.0
H747 H 0.99891 0.12962 0.92054 0.0
H748 H 0.96474 0.07813 0.74179 0.0
H749 H 0.97856 0.11477 0.80908 0.0
H750 H 0.05268 0.09667 0.74987 0.0
H751 H 0.03854 0.06149 0.67818 0.0
C752 C 0.05398 0.16459 0.83591 0.0
C753 C 0.04265 0.17276 0.90498 0.0
C754 C 0.04533 0.14411 0.79656 0.0
C755 C 0.02544 0.13102 0.82621 0.0
C756 C 0.01402 0.13937 0.89517 0.0
C757 C 0.02237 0.16018 0.93356 0.0
C758 C 0.98398 0.08207 0.74372 0.0
C759 C 0.00065 0.06649 0.70731 0.0
C760 C 0.99195 0.10295 0.78264 0.0
C761 C 0.0168 0.10871 0.78554 0.0
C762 C 0.03339 0.09311 0.74819 0.0
C763 C 0.02534 0.07251 0.70835 0.0
H764 H 0.38116 0.09193 0.95437 0.0
H765 H 0.33049 0.03629 0.88293 0.0
H766 H 0.41399 0.06958 0.8917 0.0
H767 H 0.3634 0.01411 0.81922 0.0
H768 H 0.43427 0.97158 0.77118 0.0
H769 H 0.40175 0.99154 0.84574 0.0
H770 H 0.42452 0.06082 0.75353 0.0
H771 H 0.45637 0.04097 0.67954 0.0
C772 C 0.37701 0.07494 0.92531 0.0
C773 C 0.35316 0.06603 0.9228 0.0
C774 C 0.39582 0.06216 0.88933 0.0
C775 C 0.39121 0.0402 0.85011 0.0
C776 C 0.36751 0.03091 0.84952 0.0
C777 C 0.34865 0.04372 0.88545 0.0
C778 C 0.43229 0.99108 0.76761 0.0
C779 C 0.44845 0.00487 0.72233 0.0
C780 C 0.41371 0.00247 0.80985 0.0
C781 C 0.41087 0.02779 0.80646 0.0
C782 C 0.42665 0.04138 0.75913 0.0
C783 C 0.44506 0.03001 0.71695 0.0
H784 H 0.47612 0.36193 0.00074 0.0
H785 H 0.40155 0.37325 0.93169 0.0
H786 H 0.4881 0.39772 0.92695 0.0
H787 H 0.41363 0.40867 0.85543 0.0
H788 H 0.4408 0.48306 0.78187 0.0
H789 H 0.42854 0.44931 0.86435 0.0
H790 H 0.49233 0.40951 0.79244 0.0
H791 H 0.50525 0.44371 0.71311 0.0
C792 C 0.46229 0.37207 0.96959 0.0
C793 C 0.43793 0.36474 0.97145 0.0
C794 C 0.46917 0.39249 0.9269 0.0
C795 C 0.45187 0.4059 0.88451 0.0
C796 C 0.42738 0.39888 0.88803 0.0
C797 C 0.42046 0.37855 0.93144 0.0
C798 C 0.45242 0.46728 0.78442 0.0
C799 C 0.47423 0.46631 0.74175 0.0
C800 C 0.44521 0.44778 0.83107 0.0
C801 C 0.45951 0.42675 0.83539 0.0
C802 C 0.48114 0.42564 0.79177 0.0
C803 C 0.48845 0.44521 0.74568 0.0
H804 H 0.19463 0.47257 0.79912 0.0
H805 H 0.15608 0.43701 0.98794 0.0
H806 H 0.15603 0.4839 0.7389 0.0
H807 H 0.11768 0.44874 0.92879 0.0
H808 H 0.05461 0.44982 0.75533 0.0
H809 H 0.09331 0.43898 0.81416 0.0
H810 H 0.12114 0.51029 0.76089 0.0
H811 H 0.08245 0.52113 0.70114 0.0
C812 C 0.17795 0.46727 0.82793 0.0
C813 C 0.17842 0.45379 0.89805 0.0
C814 C 0.15585 0.47387 0.79368 0.0
C815 C 0.1338 0.46715 0.82897 0.0
C816 C 0.13433 0.45385 0.89944 0.0
C817 C 0.15637 0.44723 0.93352 0.0
C818 C 0.06887 0.4633 0.75677 0.0
C819 C 0.06532 0.48643 0.7242 0.0
C820 C 0.09107 0.45707 0.79054 0.0
C821 C 0.11028 0.4738 0.79244 0.0
C822 C 0.10678 0.4969 0.75956 0.0
C823 C 0.08455 0.50315 0.72573 0.0
H824 H 0.97796 0.84767 0.27676 0.0
H825 H 0.93343 0.83913 0.48423 0.0
H826 H 0.99508 0.88477 0.33186 0.0
H827 H 0.95098 0.87586 0.53993 0.0
H828 H 0.96617 0.95543 0.57675 0.0
H829 H 0.94975 0.91916 0.51651 0.0
H830 H 0.0216 0.89879 0.43954 0.0
H831 H 0.03791 0.93605 0.49794 0.0
C832 C 0.97196 0.8536 0.33438 0.0
C833 C 0.95427 0.84049 0.3761 0.0
C834 C 0.98187 0.87479 0.36604 0.0
C835 C 0.97433 0.88328 0.44011 0.0
C836 C 0.95687 0.87 0.48215 0.0
C837 C 0.94692 0.84886 0.45045 0.0
C838 C 0.97841 0.94362 0.54551 0.0
C839 C 0.0032 0.94899 0.53972 0.0
C840 C 0.96905 0.92253 0.51204 0.0
C841 C 0.98437 0.90606 0.47331 0.0
C842 C 0.00927 0.91131 0.46808 0.0
C843 C 0.01863 0.9325 0.50169 0.0
H844 H 0.66583 0.97683 0.26694 0.0
H845 H 0.66725 0.92533 0.45829 0.0
H846 H 0.62739 0.99295 0.31553 0.0
H847 H 0.6295 0.94191 0.50848 0.0
H848 H 0.55287 0.96071 0.55043 0.0
H849 H 0.58753 0.94394 0.48254 0.0
H850 H 0.61091 0.01634 0.42189 0.0
H851 H 0.5749 0.03294 0.4862 0.0
C852 C 0.65804 0.96912 0.31981 0.0
C853 C 0.66956 0.94986 0.35902 0.0
C854 C 0.63604 0.97837 0.3477 0.0
C855 C 0.62525 0.96867 0.41571 0.0
C856 C 0.63695 0.94948 0.45493 0.0
C857 C 0.65874 0.94009 0.4266 0.0
C858 C 0.56482 0.97301 0.52048 0.0
C859 C 0.56076 0.99809 0.5219 0.0
C860 C 0.58507 0.96342 0.48258 0.0
C861 C 0.60224 0.97878 0.44741 0.0
C862 C 0.59793 0.00392 0.44747 0.0
C863 C 0.57741 0.01346 0.48461 0.0
H864 H 0.58576 0.65922 0.19769 0.0
H865 H 0.54639 0.70545 0.35877 0.0
H866 H 0.5696 0.62359 0.26356 0.0
H867 H 0.5305 0.66967 0.42554 0.0
H868 H 0.48845 0.59953 0.47442 0.0
H869 H 0.50299 0.63516 0.40404 0.0
H870 H 0.57453 0.60345 0.39094 0.0
H871 H 0.56008 0.56789 0.46087 0.0
C872 C 0.5737 0.66179 0.24731 0.0
C873 C 0.56747 0.68516 0.27335 0.0
C874 C 0.56453 0.64136 0.28521 0.0
C875 C 0.54889 0.64383 0.34996 0.0
C876 C 0.54234 0.6672 0.37532 0.0
C877 C 0.55154 0.68768 0.33737 0.0
C878 C 0.50726 0.60012 0.45634 0.0
C879 C 0.52304 0.58073 0.47251 0.0
C880 C 0.51561 0.62059 0.41636 0.0
C881 C 0.53987 0.62207 0.39175 0.0
C882 C 0.55562 0.60267 0.40795 0.0
C883 C 0.54732 0.58227 0.44804 0.0
H884 H 0.81149 0.53755 0.38528 0.0
H885 H 0.85561 0.56967 0.2029 0.0
H886 H 0.84814 0.52619 0.45731 0.0
H887 H 0.89208 0.55805 0.27424 0.0
H888 H 0.94934 0.56043 0.46739 0.0
H889 H 0.91231 0.57025 0.39678 0.0
H890 H 0.88387 0.49909 0.44832 0.0
H891 H 0.92107 0.48913 0.51934 0.0
C892 C 0.82898 0.54205 0.36035 0.0
C893 C 0.83065 0.55468 0.28872 0.0
C894 C 0.84996 0.53545 0.40141 0.0
C895 C 0.87297 0.54139 0.37167 0.0
C896 C 0.87459 0.55359 0.29932 0.0
C897 C 0.85368 0.56015 0.25829 0.0
C898 C 0.93533 0.54675 0.46321 0.0
C899 C 0.93835 0.52385 0.49803 0.0
C900 C 0.91409 0.5524 0.42266 0.0
C901 C 0.89527 0.53536 0.41636 0.0
C902 C 0.89802 0.51263 0.45257 0.0
C903 C 0.91937 0.50692 0.49299 0.0
loop_
_geom_bond_atom_site_label_1
_geom_bond_atom_site_label_2
_geom_bond_distance
_geom_bond_site_symmetry_2
_ccdc_geom_bond_type
O0 Cd1 2.300 . S
O0 C7 1.275 . S
Cd1 O0 2.300 . S
Cd1 O9 2.381 . S
Cd1 O10 2.378 . S
O2 Cd3 2.385 . S
O2 C7 1.255 . S
Cd3 O2 2.385 . S
Cd3 O4 2.317 . S
O4 Cd3 2.317 . S
O4 C5 1.232 . S
C5 O4 1.232 . S
C5 O6 1.218 . S
O6 C5 1.218 . S
C7 O0 1.275 . S
C7 O2 1.255 . S
C8 O9 1.258 . S
C8 O10 1.256 . S
O9 Cd1 2.381 . S
O9 C8 1.258 . S
O10 Cd1 2.378 . S
O10 C8 1.256 . S
O11 Cd12 2.300 . S
O11 C18 1.275 . S
Cd12 O11 2.300 . S
Cd12 O20 2.381 . S
Cd12 O21 2.378 . S
O13 Cd14 2.385 . S
O13 C18 1.255 . S
Cd14 O13 2.385 . S
Cd14 O15 2.317 . S
O15 Cd14 2.317 . S
O15 C16 1.232 . S
C16 O15 1.232 . S
C16 O17 1.218 . S
O17 C16 1.218 . S
C18 O11 1.275 . S
C18 O13 1.255 . S
C19 O20 1.258 . S
C19 O21 1.256 . S
O20 Cd12 2.381 . S
O20 C19 1.258 . S
O21 Cd12 2.378 . S
O21 C19 1.256 . S
O22 Cd23 2.300 . S
O22 C29 1.275 . S
Cd23 O22 2.300 . S
Cd23 O31 2.381 . S
Cd23 O32 2.378 . S
O24 Cd25 2.385 1_565 S
O24 C29 1.255 . S
Cd25 O24 2.385 1_545 S
Cd25 O26 2.317 1_545 S
O26 Cd25 2.317 1_565 S
O26 C27 1.232 . S
C27 O26 1.232 . S
C27 O28 1.218 . S
O28 C27 1.218 . S
C29 O22 1.275 . S
C29 O24 1.255 . S
C30 O31 1.258 . S
C30 O32 1.256 . S
O31 Cd23 2.381 . S
O31 C30 1.258 . S
O32 Cd23 2.378 . S
O32 C30 1.256 . S
O33 Cd34 2.300 . S
O33 C40 1.275 . S
Cd34 O33 2.300 . S
Cd34 O42 2.381 . S
Cd34 O43 2.378 . S
O35 Cd36 2.385 . S
O35 C40 1.255 . S
Cd36 O35 2.385 . S
Cd36 O37 2.317 . S
O37 Cd36 2.317 . S
O37 C38 1.232 . S
C38 O37 1.232 . S
C38 O39 1.218 . S
O39 C38 1.218 . S
C40 O33 1.275 . S
C40 O35 1.255 . S
C41 O42 1.258 . S
C41 O43 1.256 . S
O42 Cd34 2.381 . S
O42 C41 1.258 . S
O43 Cd34 2.378 . S
O43 C41 1.256 . S
O44 Cd45 2.300 . S
O44 C51 1.275 . S
Cd45 O44 2.300 . S
Cd45 O53 2.381 . S
Cd45 O54 2.378 . S
O46 Cd47 2.385 1_554 S
O46 C51 1.255 . S
Cd47 O46 2.385 1_556 S
Cd47 O48 2.317 . S
O48 Cd47 2.317 . S
O48 C49 1.232 . S
C49 O48 1.232 . S
C49 O50 1.218 . S
O50 C49 1.218 . S
C51 O44 1.275 . S
C51 O46 1.255 . S
C52 O53 1.258 . S
C52 O54 1.256 . S
O53 Cd45 2.381 . S
O53 C52 1.258 . S
O54 Cd45 2.378 . S
O54 C52 1.256 . S
O55 Cd56 2.300 . S
O55 C62 1.275 . S
Cd56 O55 2.300 . S
Cd56 O64 2.381 . S
Cd56 O65 2.378 . S
O57 Cd58 2.385 1_554 S
O57 C62 1.255 . S
Cd58 O57 2.385 1_556 S
Cd58 O59 2.317 . S
O59 Cd58 2.317 . S
O59 C60 1.232 . S
C60 O59 1.232 . S
C60 O61 1.218 . S
O61 C60 1.218 . S
C62 O55 1.275 . S
C62 O57 1.255 . S
C63 O64 1.258 . S
C63 O65 1.256 . S
O64 Cd56 2.381 . S
O64 C63 1.258 . S
O65 Cd56 2.378 . S
O65 C63 1.256 . S
O66 Cd67 2.300 . S
O66 C73 1.275 . S
Cd67 O66 2.300 . S
Cd67 O75 2.381 . S
Cd67 O76 2.378 . S
O68 Cd69 2.385 1_554 S
O68 C73 1.255 . S
Cd69 O68 2.385 1_556 S
Cd69 O70 2.317 . S
O70 Cd69 2.317 . S
O70 C71 1.232 . S
C71 O70 1.232 . S
C71 O72 1.218 . S
O72 C71 1.218 . S
C73 O66 1.275 . S
C73 O68 1.255 . S
C74 O75 1.258 . S
C74 O76 1.256 . S
O75 Cd67 2.381 . S
O75 C74 1.258 . S
O76 Cd67 2.378 . S
O76 C74 1.256 . S
O77 Cd78 2.300 . S
O77 C84 1.275 . S
Cd78 O77 2.300 . S
Cd78 O86 2.381 . S
Cd78 O87 2.378 . S
O79 Cd80 2.385 1_554 S
O79 C84 1.255 . S
Cd80 O79 2.385 1_556 S
Cd80 O81 2.317 . S
O81 Cd80 2.317 . S
O81 C82 1.232 . S
C82 O81 1.232 . S
C82 O83 1.218 . S
O83 C82 1.218 . S
C84 O77 1.275 . S
C84 O79 1.255 . S
C85 O86 1.258 . S
C85 O87 1.256 . S
O86 Cd78 2.381 . S
O86 C85 1.258 . S
O87 Cd78 2.378 . S
O87 C85 1.256 . S
Tb88 N119 2.660 1_565 S
Tb88 N126 2.606 . S
Tb88 O132 2.546 . S
Tb88 O133 2.610 1_455 S
Tb88 O135 2.320 1_455 S
Tb88 O136 2.552 . S
Tb88 O137 2.413 . S
Tb88 O139 2.362 1_565 S
Tb88 O140 2.421 . S
Tb88 C152 2.833 . S
C89 C92 1.432 1_545 S
C89 C93 1.414 . S
C89 N96 1.359 . S
C90 C92 1.417 . S
C90 C94 1.432 . S
C90 C102 1.410 . S
C91 C93 1.444 1_565 S
C91 C94 1.317 . S
C91 H114 0.929 . S
C92 C89 1.432 1_565 S
C92 C90 1.417 . S
C92 N100 1.360 1_565 S
C93 C89 1.414 . S
C93 C91 1.444 1_545 S
C93 C98 1.385 . S
C94 C90 1.432 . S
C94 C91 1.317 . S
C94 H106 0.930 . S
C95 C97 1.392 . S
C95 C98 1.370 . S
C95 H107 0.931 . S
N96 C89 1.359 . S
N96 C97 1.327 . S
N96 Tb99 2.600 . S
C97 C95 1.392 . S
C97 N96 1.327 . S
C97 H104 0.930 . S
C98 C93 1.385 . S
C98 C95 1.370 . S
C98 H117 0.930 . S
Tb99 N96 2.600 . S
Tb99 N100 2.660 . S
Tb99 O133 2.362 1_545 S
Tb99 O134 2.421 . S
Tb99 O138 2.546 . S
Tb99 O139 2.610 1_655 S
Tb99 O141 2.320 1_655 S
Tb99 O142 2.552 1_655 S
Tb99 O143 2.413 . S
Tb99 C163 2.833 . S
N100 C92 1.360 1_545 S
N100 Tb99 2.660 . S
N100 C101 1.305 1_645 S
C101 N100 1.305 1_465 S
C101 C103 1.407 . S
C101 H108 0.930 . S
C102 C90 1.410 . S
C102 C103 1.345 1_655 S
C102 H110 0.930 . S
C103 C101 1.407 . S
C103 C102 1.345 1_455 S
C103 H105 0.930 . S
H104 C97 0.930 . S
H105 C103 0.930 . S
H106 C94 0.930 . S
H107 C95 0.931 . S
H108 C101 0.930 . S
H109 C123 0.930 1_655 S
H110 C102 0.930 . S
H111 C129 0.930 . S
H112 C120 0.930 1_655 S
H113 C127 0.931 . S
H114 C91 0.929 . S
H115 C121 0.930 1_554 S
H116 C154 0.930 1_554 S
H117 C98 0.930 . S
H118 C153 0.929 . S
N119 Tb88 2.660 1_545 S
N119 C120 1.305 . S
N119 C124 1.360 . S
C120 H112 0.930 1_455 S
C120 N119 1.305 . S
C120 C123 1.407 . S
C121 H115 0.930 1_556 S
C121 C122 1.410 . S
C121 C123 1.345 . S
C122 C121 1.410 . S
C122 C124 1.417 . S
C122 C154 1.432 . S
C123 H109 0.930 1_455 S
C123 C120 1.407 . S
C123 C121 1.345 . S
C124 N119 1.360 . S
C124 C122 1.417 . S
C124 C128 1.432 . S
H125 C130 0.930 . S
N126 Tb88 2.606 . S
N126 C128 1.346 1_565 S
N126 C129 1.338 . S
C127 H113 0.931 . S
C127 C129 1.392 . S
C127 C130 1.370 1_565 S
C128 C124 1.432 . S
C128 N126 1.346 1_545 S
C128 C131 1.414 . S
C129 H111 0.930 . S
C129 N126 1.338 . S
C129 C127 1.392 . S
C130 H125 0.930 . S
C130 C127 1.370 1_545 S
C130 C131 1.385 . S
C131 C128 1.414 . S
C131 C130 1.385 . S
C131 C153 1.444 . S
O132 Tb88 2.546 . S
O132 C152 1.251 . S
O133 Tb88 2.610 1_655 S
O133 Tb99 2.362 1_565 S
O133 C144 1.283 . S
O134 Tb99 2.421 . S
O134 C151 1.262 . S
O135 Tb88 2.320 1_655 S
O135 C151 1.260 1_565 S
O136 Tb88 2.552 . S
O136 C144 1.243 1_455 S
O137 Tb88 2.413 . S
O137 C152 1.256 . S
O138 Tb99 2.546 . S
O138 C163 1.251 . S
O139 Tb88 2.362 1_545 S
O139 Tb99 2.610 1_455 S
O139 C155 1.283 . S
O140 Tb88 2.421 . S
O140 C162 1.262 1_565 S
O141 Tb99 2.320 1_455 S
O141 C162 1.260 . S
O142 Tb99 2.552 1_455 S
O142 C155 1.243 . S
O143 Tb99 2.413 . S
O143 C163 1.256 . S
C144 O133 1.283 . S
C144 O136 1.243 1_655 S
C145 C147 1.382 . S
C145 C149 1.393 . S
C145 C152 1.500 . S
C146 C147 1.400 . S
C146 C148 1.384 . S
C147 C145 1.382 . S
C147 C146 1.400 . S
C147 H164 0.930 1_455 S
C148 C146 1.384 . S
C148 C150 1.392 . S
C148 H165 0.931 . S
C149 C145 1.393 . S
C149 C150 1.401 . S
C149 H166 0.930 . S
C150 C148 1.392 . S
C150 C149 1.401 . S
C150 H167 0.930 . S
C151 O134 1.262 . S
C151 O135 1.260 1_545 S
C152 Tb88 2.833 . S
C152 O132 1.251 . S
C152 O137 1.256 . S
C152 C145 1.500 . S
C153 H118 0.929 . S
C153 C131 1.444 . S
C153 C154 1.317 . S
C154 H116 0.930 1_556 S
C154 C122 1.432 . S
C154 C153 1.317 . S
C155 O139 1.283 . S
C155 O142 1.243 . S
C156 C157 1.382 . S
C156 C160 1.393 . S
C156 C163 1.500 . S
C157 C156 1.382 . S
C157 C158 1.400 . S
C157 H168 0.930 1_655 S
C158 C157 1.400 . S
C158 C159 1.384 . S
C159 C158 1.384 . S
C159 C161 1.392 . S
C159 H169 0.931 . S
C160 C156 1.393 . S
C160 C161 1.401 . S
C160 H170 0.930 . S
C161 C159 1.392 . S
C161 C160 1.401 . S
C161 H171 0.930 . S
C162 O140 1.262 1_545 S
C162 O141 1.260 . S
C163 Tb99 2.833 . S
C163 O138 1.251 . S
C163 O143 1.256 . S
C163 C156 1.500 . S
H164 C147 0.930 1_655 S
H165 C148 0.931 . S
H166 C149 0.930 . S
H167 C150 0.930 . S
H168 C157 0.930 1_455 S
H169 C159 0.931 . S
H170 C160 0.930 . S
H171 C161 0.930 . S
Tb172 N203 2.660 . S
Tb172 N210 2.600 . S
Tb172 O216 2.546 . S
Tb172 O217 2.610 1_545 S
Tb172 O219 2.320 1_545 S
Tb172 O220 2.552 . S
Tb172 O221 2.413 . S
Tb172 O223 2.362 . S
Tb172 O224 2.421 . S
Tb172 C236 2.833 . S
C173 C176 1.432 . S
C173 C177 1.414 . S
C173 N180 1.359 . S
C174 C176 1.417 . S
C174 C178 1.432 . S
C174 C186 1.410 . S
C175 C177 1.444 . S
C175 C178 1.317 . S
C175 H198 0.929 . S
C176 C173 1.432 . S
C176 C174 1.417 . S
C176 N184 1.360 . S
C177 C173 1.414 . S
C177 C175 1.444 . S
C177 C182 1.385 . S
C178 C174 1.432 . S
C178 C175 1.317 . S
C178 H190 0.930 . S
C179 C181 1.392 . S
C179 C182 1.370 . S
C179 H191 0.931 . S
N180 C173 1.359 . S
N180 C181 1.327 . S
N180 Tb183 2.600 . S
C181 C179 1.392 . S
C181 N180 1.327 . S
C181 H188 0.930 . S
C182 C177 1.385 . S
C182 C179 1.370 . S
C182 H201 0.930 . S
Tb183 N180 2.600 . S
Tb183 N184 2.660 . S
Tb183 O217 2.362 . S
Tb183 O218 2.421 . S
Tb183 O222 2.546 . S
Tb183 O223 2.610 1_565 S
Tb183 O225 2.320 1_565 S
Tb183 O226 2.552 1_565 S
Tb183 O227 2.412 1_565 S
Tb183 C247 2.833 . S
N184 C176 1.360 . S
N184 Tb183 2.660 . S
N184 C185 1.305 1_565 S
C185 N184 1.305 1_545 S
C185 C187 1.407 . S
C185 H192 0.930 . S
C186 C174 1.410 . S
C186 C187 1.345 1_565 S
C186 H194 0.930 . S
C187 C185 1.407 . S
C187 C186 1.345 1_545 S
C187 H189 0.930 . S
H188 C181 0.930 . S
H189 C187 0.930 . S
H190 C178 0.930 . S
H191 C179 0.931 . S
H192 C185 0.930 . S
H193 C207 0.930 1_565 S
H194 C186 0.930 . S
H195 C213 0.930 . S
H196 C204 0.930 1_565 S
H197 C211 0.931 . S
H198 C175 0.929 . S
H199 C205 0.930 1_554 S
H200 C238 0.930 1_554 S
H201 C182 0.930 . S
H202 C237 0.929 . S
N203 Tb172 2.660 . S
N203 C204 1.305 . S
N203 C208 1.360 . S
C204 H196 0.930 1_545 S
C204 N203 1.305 . S
C204 C207 1.407 . S
C205 H199 0.930 1_556 S
C205 C206 1.410 . S
C205 C207 1.345 . S
C206 C205 1.410 . S
C206 C208 1.417 . S
C206 C238 1.432 . S
C207 H193 0.930 1_545 S
C207 C204 1.407 . S
C207 C205 1.345 . S
C208 N203 1.360 . S
C208 C206 1.417 . S
C208 C212 1.432 . S
H209 C214 0.930 . S
N210 Tb172 2.600 . S
N210 C212 1.359 . S
N210 C213 1.327 . S
C211 H197 0.931 . S
C211 C213 1.392 . S
C211 C214 1.370 . S
C212 C208 1.432 . S
C212 N210 1.359 . S
C212 C215 1.414 . S
C213 H195 0.930 . S
C213 N210 1.327 . S
C213 C211 1.392 . S
C214 H209 0.930 . S
C214 C211 1.370 . S
C214 C215 1.385 . S
C215 C212 1.414 . S
C215 C214 1.385 . S
C215 C237 1.444 . S
O216 Tb172 2.546 . S
O216 C236 1.251 . S
O217 Tb172 2.610 1_565 S
O217 Tb183 2.362 . S
O217 C228 1.285 . S
O218 Tb183 2.421 . S
O218 C235 1.262 . S
O219 Tb172 2.320 1_565 S
O219 C235 1.260 . S
O220 Tb172 2.552 . S
O220 C228 1.216 1_545 S
O221 Tb172 2.413 . S
O221 C236 1.256 . S
O222 Tb183 2.546 . S
O222 C247 1.251 . S
O223 Tb172 2.362 . S
O223 Tb183 2.610 1_545 S
O223 C239 1.283 . S
O224 Tb172 2.421 . S
O224 C246 1.262 . S
O225 Tb183 2.320 1_545 S
O225 C246 1.260 . S
O226 Tb183 2.552 1_545 S
O226 C239 1.243 . S
O227 Tb183 2.412 1_545 S
O227 C247 1.251 1_545 S
C228 O217 1.285 . S
C228 O220 1.216 1_565 S
C229 C231 1.382 . S
C229 C233 1.393 . S
C229 C236 1.500 . S
C230 C231 1.400 . S
C230 C232 1.384 . S
C231 C229 1.382 . S
C231 C230 1.400 . S
C231 H248 0.930 . S
C232 C230 1.384 . S
C232 C234 1.392 . S
C232 H249 0.931 . S
C233 C229 1.393 . S
C233 C234 1.401 . S
C233 H250 0.930 . S
C234 C232 1.392 . S
C234 C233 1.401 . S
C234 H251 0.930 . S
C235 O218 1.262 . S
C235 O219 1.260 . S
C236 Tb172 2.833 . S
C236 O216 1.251 . S
C236 O221 1.256 . S
C236 C229 1.500 . S
C237 H202 0.929 . S
C237 C215 1.444 . S
C237 C238 1.317 . S
C238 H200 0.930 1_556 S
C238 C206 1.432 . S
C238 C237 1.317 . S
C239 O223 1.283 . S
C239 O226 1.243 . S
C240 C241 1.378 . S
C240 C244 1.393 . S
C240 C247 1.500 . S
C241 C240 1.378 . S
C241 C242 1.400 . S
C241 H252 0.935 1_565 S
C242 C241 1.400 . S
C242 C243 1.384 . S
C243 C242 1.384 . S
C243 C245 1.392 . S
C243 H253 0.931 . S
C244 C240 1.393 . S
C244 C245 1.401 . S
C244 H254 0.930 . S
C245 C243 1.392 . S
C245 C244 1.401 . S
C245 H255 0.930 . S
C246 O224 1.262 . S
C246 O225 1.260 . S
C247 Tb183 2.833 . S
C247 O222 1.251 . S
C247 O227 1.251 1_565 S
C247 C240 1.500 . S
H248 C231 0.930 . S
H249 C232 0.931 . S
H250 C233 0.930 . S
H251 C234 0.930 . S
H252 C241 0.935 1_545 S
H253 C243 0.931 . S
H254 C244 0.930 . S
H255 C245 0.930 . S
Tb256 N287 2.660 . S
Tb256 N294 2.600 . S
Tb256 O300 2.546 . S
Tb256 O301 2.610 . S
Tb256 O303 2.320 . S
Tb256 O304 2.552 . S
Tb256 O305 2.413 . S
Tb256 O307 2.362 . S
Tb256 O308 2.421 . S
Tb256 C320 2.833 . S
C257 C260 1.432 . S
C257 C261 1.414 . S
C257 N264 1.359 . S
C258 C260 1.417 . S
C258 C262 1.432 . S
C258 C270 1.410 . S
C259 C261 1.444 . S
C259 C262 1.317 . S
C259 H282 0.929 . S
C260 C257 1.432 . S
C260 C258 1.417 . S
C260 N268 1.360 . S
C261 C257 1.414 . S
C261 C259 1.444 . S
C261 C266 1.385 . S
C262 C258 1.432 . S
C262 C259 1.317 . S
C262 H274 0.930 . S
C263 C265 1.392 . S
C263 C266 1.370 . S
C263 H275 0.931 . S
N264 C257 1.359 . S
N264 C265 1.327 . S
N264 Tb267 2.600 . S
C265 C263 1.392 . S
C265 N264 1.327 . S
C265 H272 0.930 . S
C266 C261 1.385 . S
C266 C263 1.370 . S
C266 H285 0.930 . S
Tb267 N264 2.600 . S
Tb267 N268 2.660 . S
Tb267 O301 2.362 . S
Tb267 O302 2.421 . S
Tb267 O306 2.546 . S
Tb267 O307 2.610 . S
Tb267 O309 2.320 . S
Tb267 O310 2.552 . S
Tb267 O311 2.413 . S
Tb267 C331 2.833 . S
N268 C260 1.360 . S
N268 Tb267 2.660 . S
N268 C269 1.305 . S
C269 N268 1.305 . S
C269 C271 1.407 . S
C269 H276 0.930 . S
C270 C258 1.410 . S
C270 C271 1.345 . S
C270 H278 0.930 . S
C271 C269 1.407 . S
C271 C270 1.345 . S
C271 H273 0.930 . S
H272 C265 0.930 . S
H273 C271 0.930 . S
H274 C262 0.930 . S
H275 C263 0.931 . S
H276 C269 0.930 . S
H277 C291 0.930 . S
H278 C270 0.930 . S
H279 C297 0.930 . S
H280 C288 0.930 . S
H281 C295 0.931 . S
H282 C259 0.929 . S
H283 C289 0.930 . S
H284 C322 0.930 . S
H285 C266 0.930 . S
H286 C321 0.929 . S
N287 Tb256 2.660 . S
N287 C288 1.305 . S
N287 C292 1.360 . S
C288 H280 0.930 . S
C288 N287 1.305 . S
C288 C291 1.407 . S
C289 H283 0.930 . S
C289 C290 1.410 . S
C289 C291 1.345 . S
C290 C289 1.410 . S
C290 C292 1.417 . S
C290 C322 1.432 . S
C291 H277 0.930 . S
C291 C288 1.407 . S
C291 C289 1.345 . S
C292 N287 1.360 . S
C292 C290 1.417 . S
C292 C296 1.432 . S
H293 C298 0.930 . S
N294 Tb256 2.600 . S
N294 C296 1.359 . S
N294 C297 1.327 . S
C295 H281 0.931 . S
C295 C297 1.392 . S
C295 C298 1.370 . S
C296 C292 1.432 . S
C296 N294 1.359 . S
C296 C299 1.414 . S
C297 H279 0.930 . S
C297 N294 1.327 . S
C297 C295 1.392 . S
C298 H293 0.930 . S
C298 C295 1.370 . S
C298 C299 1.385 . S
C299 C296 1.414 . S
C299 C298 1.385 . S
C299 C321 1.444 . S
O300 Tb256 2.546 . S
O300 C320 1.251 . S
O301 Tb256 2.610 . S
O301 Tb267 2.362 . S
O301 C312 1.283 . S
O302 Tb267 2.421 . S
O302 C319 1.262 . S
O303 Tb256 2.320 . S
O303 C319 1.260 . S
O304 Tb256 2.552 . S
O304 C312 1.243 . S
O305 Tb256 2.413 . S
O305 C320 1.256 . S
O306 Tb267 2.546 . S
O306 C331 1.251 . S
O307 Tb256 2.362 . S
O307 Tb267 2.610 . S
O307 C323 1.283 . S
O308 Tb256 2.421 . S
O308 C330 1.262 . S
O309 Tb267 2.320 . S
O309 C330 1.260 . S
O310 Tb267 2.552 . S
O310 C323 1.243 . S
O311 Tb267 2.413 . S
O311 C331 1.256 . S
C312 O301 1.283 . S
C312 O304 1.243 . S
C313 C315 1.382 . S
C313 C317 1.393 . S
C313 C320 1.500 . S
C314 C315 1.400 . S
C314 C316 1.384 . S
C315 C313 1.382 . S
C315 C314 1.400 . S
C315 H332 0.930 . S
C316 C314 1.384 . S
C316 C318 1.392 . S
C316 H333 0.931 . S
C317 C313 1.393 . S
C317 C318 1.401 . S
C317 H334 0.930 . S
C318 C316 1.392 . S
C318 C317 1.401 . S
C318 H335 0.930 . S
C319 O302 1.262 . S
C319 O303 1.260 . S
C320 Tb256 2.833 . S
C320 O300 1.251 . S
C320 O305 1.256 . S
C320 C313 1.500 . S
C321 H286 0.929 . S
C321 C299 1.444 . S
C321 C322 1.317 . S
C322 H284 0.930 . S
C322 C290 1.432 . S
C322 C321 1.317 . S
C323 O307 1.283 . S
C323 O310 1.243 . S
C324 C325 1.382 . S
C324 C328 1.393 . S
C324 C331 1.500 . S
C325 C324 1.382 . S
C325 C326 1.400 . S
C325 H336 0.930 . S
C326 C325 1.400 . S
C326 C327 1.384 . S
C327 C326 1.384 . S
C327 C329 1.391 1_556 S
C327 H337 0.931 1_556 S
C328 C324 1.393 . S
C328 C329 1.401 1_556 S
C328 H338 0.930 . S
C329 C327 1.391 1_554 S
C329 C328 1.401 1_554 S
C329 H339 0.930 . S
C330 O308 1.262 . S
C330 O309 1.260 . S
C331 Tb267 2.833 . S
C331 O306 1.251 . S
C331 O311 1.256 . S
C331 C324 1.500 . S
H332 C315 0.930 . S
H333 C316 0.931 . S
H334 C317 0.930 . S
H335 C318 0.930 . S
H336 C325 0.930 . S
H337 C327 0.931 1_554 S
H338 C328 0.930 . S
H339 C329 0.930 . S
Tb340 N371 2.660 . S
Tb340 N378 2.600 . S
Tb340 O384 2.546 . S
Tb340 O385 2.610 . S
Tb340 O387 2.320 . S
Tb340 O388 2.552 . S
Tb340 O389 2.413 . S
Tb340 O391 2.362 . S
Tb340 O392 2.421 1_455 S
Tb340 C404 2.833 . S
C341 C344 1.432 . S
C341 C345 1.414 . S
C341 N348 1.359 . S
C342 C344 1.417 . S
C342 C346 1.432 . S
C342 C354 1.410 . S
C343 C345 1.444 . S
C343 C346 1.317 . S
C343 H366 0.929 . S
C344 C341 1.432 . S
C344 C342 1.417 . S
C344 N352 1.360 . S
C345 C341 1.414 . S
C345 C343 1.444 . S
C345 C350 1.387 1_655 S
C346 C342 1.432 . S
C346 C343 1.317 . S
C346 H358 0.930 . S
C347 C349 1.392 . S
C347 C350 1.368 . S
C347 H359 0.931 . S
N348 C341 1.359 . S
N348 C349 1.327 1_655 S
N348 Tb351 2.600 . S
C349 C347 1.392 . S
C349 N348 1.327 1_455 S
C349 H356 0.930 . S
C350 C345 1.387 1_455 S
C350 C347 1.368 . S
C350 H369 0.929 . S
Tb351 N348 2.600 . S
Tb351 N352 2.660 . S
Tb351 O385 2.362 1_655 S
Tb351 O386 2.421 1_655 S
Tb351 O390 2.546 . S
Tb351 O391 2.610 1_655 S
Tb351 O393 2.320 . S
Tb351 O394 2.552 . S
Tb351 O395 2.413 . S
Tb351 C415 2.833 . S
N352 C344 1.360 . S
N352 Tb351 2.660 . S
N352 C353 1.305 . S
C353 N352 1.305 . S
C353 C355 1.407 . S
C353 H360 0.930 . S
C354 C342 1.410 . S
C354 C355 1.345 . S
C354 H362 0.930 . S
C355 C353 1.407 . S
C355 C354 1.345 . S
C355 H357 0.930 . S
H356 C349 0.930 . S
H357 C355 0.930 . S
H358 C346 0.930 . S
H359 C347 0.931 . S
H360 C353 0.930 . S
H361 C375 0.930 . S
H362 C354 0.930 . S
H363 C381 0.930 1_655 S
H364 C372 0.930 . S
H365 C379 0.920 1_655 S
H366 C343 0.929 . S
H367 C373 0.930 . S
H368 C406 0.930 . S
H369 C350 0.929 . S
H370 C405 0.929 . S
N371 Tb340 2.660 . S
N371 C372 1.305 . S
N371 C376 1.360 . S
C372 H364 0.930 . S
C372 N371 1.305 . S
C372 C375 1.407 . S
C373 H367 0.930 . S
C373 C374 1.410 . S
C373 C375 1.345 . S
C374 C373 1.410 . S
C374 C376 1.417 . S
C374 C406 1.432 . S
C375 H361 0.930 . S
C375 C372 1.407 . S
C375 C373 1.345 . S
C376 N371 1.360 . S
C376 C374 1.417 . S
C376 C380 1.432 . S
H377 C382 0.930 . S
N378 Tb340 2.600 . S
N378 C380 1.359 . S
N378 C381 1.327 . S
C379 H365 0.920 1_455 S
C379 C381 1.395 . S
C379 C382 1.378 . S
C380 C376 1.432 . S
C380 N378 1.359 . S
C380 C383 1.414 . S
C381 H363 0.930 1_455 S
C381 N378 1.327 . S
C381 C379 1.395 . S
C382 H377 0.930 . S
C382 C379 1.378 . S
C382 C383 1.385 . S
C383 C380 1.414 . S
C383 C382 1.385 . S
C383 C405 1.444 . S
O384 Tb340 2.546 . S
O384 C404 1.251 . S
O385 Tb340 2.610 . S
O385 Tb351 2.362 1_455 S
O385 C396 1.283 . S
O386 Tb351 2.421 1_455 S
O386 C403 1.262 . S
O387 Tb340 2.320 . S
O387 C403 1.260 . S
O388 Tb340 2.552 . S
O388 C396 1.243 . S
O389 Tb340 2.413 . S
O389 C404 1.256 . S
O390 Tb351 2.546 . S
O390 C415 1.251 . S
O391 Tb340 2.362 . S
O391 Tb351 2.610 1_455 S
O391 C407 1.283 1_455 S
O392 Tb340 2.421 1_655 S
O392 C414 1.262 . S
O393 Tb351 2.320 . S
O393 C414 1.260 . S
O394 Tb351 2.552 . S
O394 C407 1.243 . S
O395 Tb351 2.413 . S
O395 C415 1.256 . S
C396 O385 1.283 . S
C396 O388 1.243 . S
C397 C399 1.382 . S
C397 C401 1.393 . S
C397 C404 1.500 . S
C398 C399 1.400 . S
C398 C400 1.384 . S
C399 C397 1.382 . S
C399 C398 1.400 . S
C399 H416 0.930 . S
C400 C398 1.384 . S
C400 C402 1.392 . S
C400 H417 0.931 . S
C401 C397 1.393 . S
C401 C402 1.401 . S
C401 H418 0.930 . S
C402 C400 1.392 . S
C402 C401 1.401 . S
C402 H419 0.930 . S
C403 O386 1.262 . S
C403 O387 1.260 . S
C404 Tb340 2.833 . S
C404 O384 1.251 . S
C404 O389 1.256 . S
C404 C397 1.500 . S
C405 H370 0.929 . S
C405 C383 1.444 . S
C405 C406 1.317 . S
C406 H368 0.930 . S
C406 C374 1.432 . S
C406 C405 1.317 . S
C407 O391 1.283 1_655 S
C407 O394 1.243 . S
C408 C409 1.382 . S
C408 C412 1.393 . S
C408 C415 1.500 . S
C409 C408 1.382 . S
C409 C410 1.400 . S
C409 H420 0.930 . S
C410 C409 1.400 . S
C410 C411 1.396 . S
C411 C410 1.396 . S
C411 C413 1.389 1_556 S
C411 H421 0.922 1_556 S
C412 C408 1.393 . S
C412 C413 1.401 1_556 S
C412 H422 0.930 . S
C413 C411 1.389 1_554 S
C413 C412 1.401 1_554 S
C413 H423 0.930 . S
C414 O392 1.262 . S
C414 O393 1.260 . S
C415 Tb351 2.833 . S
C415 O390 1.251 . S
C415 O395 1.256 . S
C415 C408 1.500 . S
H416 C399 0.930 . S
H417 C400 0.931 . S
H418 C401 0.930 . S
H419 C402 0.930 . S
H420 C409 0.930 . S
H421 C411 0.922 1_554 S
H422 C412 0.930 . S
H423 C413 0.930 . S
H424 C432 0.950 . S
H425 C437 0.950 . S
H426 C434 0.950 . S
H427 C436 0.950 . S
H428 C438 0.950 . S
H429 C440 0.950 . S
H430 C442 0.950 . S
H431 C443 0.950 . S
C432 H424 0.950 . S
C432 C433 1.386 . S
C432 C434 1.391 . S
C433 C432 1.386 . S
C433 C437 1.393 . S
C434 H426 0.950 . S
C434 C432 1.391 . S
C434 C435 1.400 . S
C435 C434 1.400 . S
C435 C436 1.398 . S
C435 C441 1.491 . S
C436 H427 0.950 . S
C436 C435 1.398 . S
C436 C437 1.391 . S
C437 H425 0.950 . S
C437 C433 1.393 . S
C437 C436 1.391 . S
C438 H428 0.950 . S
C438 C439 1.386 . S
C438 C440 1.391 . S
C439 C438 1.386 . S
C439 C443 1.393 . S
C440 H429 0.950 . S
C440 C438 1.391 . S
C440 C441 1.400 . S
C441 C435 1.491 . S
C441 C440 1.400 . S
C441 C442 1.398 . S
C442 H430 0.950 . S
C442 C441 1.398 . S
C442 C443 1.391 . S
C443 H431 0.950 . S
C443 C439 1.393 . S
C443 C442 1.391 . S
H444 C452 0.950 . S
H445 C457 0.950 . S
H446 C454 0.950 . S
H447 C456 0.950 . S
H448 C458 0.950 . S
H449 C460 0.950 . S
H450 C462 0.950 . S
H451 C463 0.950 . S
C452 H444 0.950 . S
C452 C453 1.386 . S
C452 C454 1.391 . S
C453 C452 1.386 . S
C453 C457 1.393 . S
C454 H446 0.950 . S
C454 C452 1.391 . S
C454 C455 1.400 . S
C455 C454 1.400 . S
C455 C456 1.398 . S
C455 C461 1.491 . S
C456 H447 0.950 . S
C456 C455 1.398 . S
C456 C457 1.391 . S
C457 H445 0.950 . S
C457 C453 1.393 . S
C457 C456 1.391 . S
C458 H448 0.950 . S
C458 C459 1.386 . S
C458 C460 1.391 . S
C459 C458 1.386 . S
C459 C463 1.393 . S
C460 H449 0.950 . S
C460 C458 1.391 . S
C460 C461 1.400 . S
C461 C455 1.491 . S
C461 C460 1.400 . S
C461 C462 1.398 . S
C462 H450 0.950 . S
C462 C461 1.398 . S
C462 C463 1.391 . S
C463 H451 0.950 . S
C463 C459 1.393 . S
C463 C462 1.391 . S
H464 C472 0.950 . S
H465 C477 0.950 . S
H466 C474 0.950 . S
H467 C476 0.950 . S
H468 C478 0.950 . S
H469 C480 0.950 . S
H470 C482 0.950 . S
H471 C483 0.950 . S
C472 H464 0.950 . S
C472 C473 1.386 . S
C472 C474 1.391 . S
C473 C472 1.386 . S
C473 C477 1.393 . S
C474 H466 0.950 . S
C474 C472 1.391 . S
C474 C475 1.400 . S
C475 C474 1.400 . S
C475 C476 1.398 . S
C475 C481 1.491 . S
C476 H467 0.950 . S
C476 C475 1.398 . S
C476 C477 1.391 . S
C477 H465 0.950 . S
C477 C473 1.393 . S
C477 C476 1.391 . S
C478 H468 0.950 . S
C478 C479 1.386 . S
C478 C480 1.391 . S
C479 C478 1.386 . S
C479 C483 1.393 . S
C480 H469 0.950 . S
C480 C478 1.391 . S
C480 C481 1.400 . S
C481 C475 1.491 . S
C481 C480 1.400 . S
C481 C482 1.398 . S
C482 H470 0.950 . S
C482 C481 1.398 . S
C482 C483 1.391 . S
C483 H471 0.950 . S
C483 C479 1.393 . S
C483 C482 1.391 . S
H484 C492 0.950 . S
H485 C497 0.950 . S
H486 C494 0.950 . S
H487 C496 0.950 . S
H488 C498 0.950 . S
H489 C500 0.950 . S
H490 C502 0.950 . S
H491 C503 0.950 . S
C492 H484 0.950 . S
C492 C493 1.386 . S
C492 C494 1.391 . S
C493 C492 1.386 . S
C493 C497 1.393 . S
C494 H486 0.950 . S
C494 C492 1.391 . S
C494 C495 1.400 . S
C495 C494 1.400 . S
C495 C496 1.398 . S
C495 C501 1.491 . S
C496 H487 0.950 . S
C496 C495 1.398 . S
C496 C497 1.391 . S
C497 H485 0.950 . S
C497 C493 1.393 . S
C497 C496 1.391 . S
C498 H488 0.950 . S
C498 C499 1.386 . S
C498 C500 1.391 . S
C499 C498 1.386 . S
C499 C503 1.393 . S
C500 H489 0.950 . S
C500 C498 1.391 . S
C500 C501 1.400 . S
C501 C495 1.491 . S
C501 C500 1.400 . S
C501 C502 1.398 . S
C502 H490 0.950 . S
C502 C501 1.398 . S
C502 C503 1.391 . S
C503 H491 0.950 . S
C503 C499 1.393 . S
C503 C502 1.391 . S
H504 C512 0.950 . S
H505 C517 0.950 . S
H506 C514 0.950 . S
H507 C516 0.950 1_545 S
H508 C518 0.950 . S
H509 C520 0.950 . S
H510 C522 0.950 . S
H511 C523 0.950 . S
C512 H504 0.950 . S
C512 C513 1.386 . S
C512 C514 1.391 1_554 S
C513 C512 1.386 . S
C513 C517 1.393 . S
C514 H506 0.950 . S
C514 C512 1.391 1_556 S
C514 C515 1.400 . S
C515 C514 1.400 . S
C515 C516 1.398 . S
C515 C521 1.491 . S
C516 H507 0.950 1_565 S
C516 C515 1.398 . S
C516 C517 1.391 1_556 S
C517 H505 0.950 . S
C517 C513 1.393 . S
C517 C516 1.391 1_554 S
C518 H508 0.950 . S
C518 C519 1.386 1_545 S
C518 C520 1.391 . S
C519 C518 1.386 1_565 S
C519 C523 1.393 . S
C520 H509 0.950 . S
C520 C518 1.391 . S
C520 C521 1.400 1_545 S
C521 C515 1.491 . S
C521 C520 1.400 1_565 S
C521 C522 1.398 . S
C522 H510 0.950 . S
C522 C521 1.398 . S
C522 C523 1.391 . S
C523 H511 0.950 . S
C523 C519 1.393 . S
C523 C522 1.391 . S
H524 C532 0.950 . S
H525 C537 0.950 . S
H526 C534 0.950 . S
H527 C536 0.950 . S
H528 C538 0.950 . S
H529 C540 0.950 . S
H530 C542 0.950 . S
H531 C543 0.950 . S
C532 H524 0.950 . S
C532 C533 1.386 1_556 S
C532 C534 1.391 . S
C533 C532 1.386 1_554 S
C533 C537 1.393 . S
C534 H526 0.950 . S
C534 C532 1.391 . S
C534 C535 1.400 . S
C535 C534 1.400 . S
C535 C536 1.398 1_556 S
C535 C541 1.491 . S
C536 H527 0.950 . S
C536 C535 1.398 1_554 S
C536 C537 1.391 . S
C537 H525 0.950 . S
C537 C533 1.393 . S
C537 C536 1.391 . S
C538 H528 0.950 . S
C538 C539 1.386 . S
C538 C540 1.391 . S
C539 C538 1.386 . S
C539 C543 1.393 . S
C540 H529 0.950 . S
C540 C538 1.391 . S
C540 C541 1.400 . S
C541 C535 1.491 . S
C541 C540 1.400 . S
C541 C542 1.398 . S
C542 H530 0.950 . S
C542 C541 1.398 . S
C542 C543 1.391 . S
C543 H531 0.950 . S
C543 C539 1.393 . S
C543 C542 1.391 . S
H544 C552 0.950 . S
H545 C557 0.950 1_556 S
H546 C554 0.950 . S
H547 C556 0.950 . S
H548 C558 0.950 . S
H549 C560 0.950 . S
H550 C562 0.950 . S
H551 C563 0.950 . S
C552 H544 0.950 . S
C552 C553 1.386 . S
C552 C554 1.391 . S
C553 C552 1.386 . S
C553 C557 1.393 . S
C554 H546 0.950 . S
C554 C552 1.391 . S
C554 C555 1.400 1_554 S
C555 C554 1.400 1_556 S
C555 C556 1.398 . S
C555 C561 1.491 . S
C556 H547 0.950 . S
C556 C555 1.398 . S
C556 C557 1.391 1_556 S
C557 H545 0.950 1_554 S
C557 C553 1.393 . S
C557 C556 1.391 1_554 S
C558 H548 0.950 . S
C558 C559 1.386 . S
C558 C560 1.391 . S
C559 C558 1.386 . S
C559 C563 1.393 . S
C560 H549 0.950 . S
C560 C558 1.391 . S
C560 C561 1.400 . S
C561 C555 1.491 . S
C561 C560 1.400 . S
C561 C562 1.398 . S
C562 H550 0.950 . S
C562 C561 1.398 . S
C562 C563 1.391 . S
C563 H551 0.950 . S
C563 C559 1.393 . S
C563 C562 1.391 . S
H564 C572 0.950 . S
H565 C577 0.950 . S
H566 C574 0.950 . S
H567 C576 0.950 . S
H568 C578 0.950 . S
H569 C580 0.950 . S
H570 C582 0.950 1_455 S
H571 C583 0.950 . S
C572 H564 0.950 . S
C572 C573 1.386 . S
C572 C574 1.391 . S
C573 C572 1.386 . S
C573 C577 1.393 . S
C574 H566 0.950 . S
C574 C572 1.391 . S
C574 C575 1.400 1_554 S
C575 C574 1.400 1_556 S
C575 C576 1.398 . S
C575 C581 1.491 . S
C576 H567 0.950 . S
C576 C575 1.398 . S
C576 C577 1.391 1_556 S
C577 H565 0.950 . S
C577 C573 1.393 . S
C577 C576 1.391 1_554 S
C578 H568 0.950 . S
C578 C579 1.386 . S
C578 C580 1.391 . S
C579 C578 1.386 . S
C579 C583 1.393 1_655 S
C580 H569 0.950 . S
C580 C578 1.391 . S
C580 C581 1.400 . S
C581 C575 1.491 . S
C581 C580 1.400 . S
C581 C582 1.398 . S
C582 H570 0.950 1_655 S
C582 C581 1.398 . S
C582 C583 1.391 1_655 S
C583 H571 0.950 . S
C583 C579 1.393 1_455 S
C583 C582 1.391 1_455 S
H584 C592 0.950 . S
H585 C597 0.950 . S
H586 C594 0.950 . S
H587 C596 0.950 . S
H588 C598 0.950 1_655 S
H589 C600 0.950 . S
H590 C602 0.950 . S
H591 C603 0.950 . S
C592 H584 0.950 . S
C592 C593 1.386 . S
C592 C594 1.391 . S
C593 C592 1.386 . S
C593 C597 1.393 . S
C594 H586 0.950 . S
C594 C592 1.391 . S
C594 C595 1.400 . S
C595 C594 1.400 . S
C595 C596 1.398 . S
C595 C601 1.491 . S
C596 H587 0.950 . S
C596 C595 1.398 . S
C596 C597 1.391 . S
C597 H585 0.950 . S
C597 C593 1.393 . S
C597 C596 1.391 . S
C598 H588 0.950 1_455 S
C598 C599 1.386 . S
C598 C600 1.391 . S
C599 C598 1.386 . S
C599 C603 1.393 . S
C600 H589 0.950 . S
C600 C598 1.391 . S
C600 C601 1.400 . S
C601 C595 1.491 . S
C601 C600 1.400 . S
C601 C602 1.398 . S
C602 H590 0.950 . S
C602 C601 1.398 . S
C602 C603 1.391 . S
C603 H591 0.950 . S
C603 C599 1.393 . S
C603 C602 1.391 . S
H604 C612 0.950 . S
H605 C617 0.950 . S
H606 C614 0.950 . S
H607 C616 0.950 . S
H608 C618 0.950 1_565 S
H609 C620 0.950 . S
H610 C622 0.950 . S
H611 C623 0.950 . S
C612 H604 0.950 . S
C612 C613 1.386 . S
C612 C614 1.391 . S
C613 C612 1.386 . S
C613 C617 1.393 . S
C614 H606 0.950 . S
C614 C612 1.391 . S
C614 C615 1.400 . S
C615 C614 1.400 . S
C615 C616 1.398 . S
C615 C621 1.491 . S
C616 H607 0.950 . S
C616 C615 1.398 . S
C616 C617 1.391 . S
C617 H605 0.950 . S
C617 C613 1.393 . S
C617 C616 1.391 . S
C618 H608 0.950 1_545 S
C618 C619 1.386 . S
C618 C620 1.391 . S
C619 C618 1.386 . S
C619 C623 1.393 . S
C620 H609 0.950 . S
C620 C618 1.391 . S
C620 C621 1.400 . S
C621 C615 1.491 . S
C621 C620 1.400 . S
C621 C622 1.398 . S
C622 H610 0.950 . S
C622 C621 1.398 . S
C622 C623 1.391 . S
C623 H611 0.950 . S
C623 C619 1.393 . S
C623 C622 1.391 . S
H624 C632 0.950 . S
H625 C637 0.950 . S
H626 C634 0.950 . S
H627 C636 0.950 . S
H628 C638 0.950 . S
H629 C640 0.950 . S
H630 C642 0.950 . S
H631 C643 0.950 . S
C632 H624 0.950 . S
C632 C633 1.386 . S
C632 C634 1.391 . S
C633 C632 1.386 . S
C633 C637 1.393 . S
C634 H626 0.950 . S
C634 C632 1.391 . S
C634 C635 1.400 . S
C635 C634 1.400 . S
C635 C636 1.398 . S
C635 C641 1.491 . S
C636 H627 0.950 . S
C636 C635 1.398 . S
C636 C637 1.391 . S
C637 H625 0.950 . S
C637 C633 1.393 . S
C637 C636 1.391 . S
C638 H628 0.950 . S
C638 C639 1.386 . S
C638 C640 1.391 . S
C639 C638 1.386 . S
C639 C643 1.393 . S
C640 H629 0.950 . S
C640 C638 1.391 . S
C640 C641 1.400 . S
C641 C635 1.491 . S
C641 C640 1.400 . S
C641 C642 1.398 . S
C642 H630 0.950 . S
C642 C641 1.398 . S
C642 C643 1.391 . S
C643 H631 0.950 . S
C643 C639 1.393 . S
C643 C642 1.391 . S
H644 C652 0.950 . S
H645 C657 0.950 . S
H646 C654 0.950 . S
H647 C656 0.950 . S
H648 C658 0.950 . S
H649 C660 0.950 . S
H650 C662 0.950 . S
H651 C663 0.950 . S
C652 H644 0.950 . S
C652 C653 1.386 . S
C652 C654 1.391 . S
C653 C652 1.386 . S
C653 C657 1.393 . S
C654 H646 0.950 . S
C654 C652 1.391 . S
C654 C655 1.400 . S
C655 C654 1.400 . S
C655 C656 1.398 . S
C655 C661 1.491 . S
C656 H647 0.950 . S
C656 C655 1.398 . S
C656 C657 1.391 . S
C657 H645 0.950 . S
C657 C653 1.393 . S
C657 C656 1.391 . S
C658 H648 0.950 . S
C658 C659 1.386 . S
C658 C660 1.391 . S
C659 C658 1.386 . S
C659 C663 1.393 . S
C660 H649 0.950 . S
C660 C658 1.391 . S
C660 C661 1.400 . S
C661 C655 1.491 . S
C661 C660 1.400 . S
C661 C662 1.398 . S
C662 H650 0.950 . S
C662 C661 1.398 . S
C662 C663 1.391 . S
C663 H651 0.950 . S
C663 C659 1.393 . S
C663 C662 1.391 . S
H664 C672 0.950 . S
H665 C677 0.950 . S
H666 C674 0.950 1_556 S
H667 C676 0.950 . S
H668 C678 0.950 . S
H669 C680 0.950 1_554 S
H670 C682 0.950 . S
H671 C683 0.950 . S
C672 H664 0.950 . S
C672 C673 1.386 . S
C672 C674 1.391 . S
C673 C672 1.386 . S
C673 C677 1.393 . S
C674 H666 0.950 1_554 S
C674 C672 1.391 . S
C674 C675 1.400 . S
C675 C674 1.400 . S
C675 C676 1.398 . S
C675 C681 1.491 1_554 S
C676 H667 0.950 . S
C676 C675 1.398 . S
C676 C677 1.391 . S
C677 H665 0.950 . S
C677 C673 1.393 . S
C677 C676 1.391 . S
C678 H668 0.950 . S
C678 C679 1.386 . S
C678 C680 1.391 . S
C679 C678 1.386 . S
C679 C683 1.393 1_455 S
C680 H669 0.950 1_556 S
C680 C678 1.391 . S
C680 C681 1.400 1_455 S
C681 C675 1.491 1_556 S
C681 C680 1.400 1_655 S
C681 C682 1.398 . S
C682 H670 0.950 . S
C682 C681 1.398 . S
C682 C683 1.391 . S
C683 H671 0.950 . S
C683 C679 1.393 1_655 S
C683 C682 1.391 . S
H684 C692 0.950 . S
H685 C697 0.950 . S
H686 C694 0.950 . S
H687 C696 0.950 . S
H688 C698 0.950 1_554 S
H689 C700 0.950 . S
H690 C702 0.950 . S
H691 C703 0.950 . S
C692 H684 0.950 . S
C692 C693 1.386 . S
C692 C694 1.391 1_554 S
C693 C692 1.386 . S
C693 C697 1.393 . S
C694 H686 0.950 . S
C694 C692 1.391 1_556 S
C694 C695 1.400 1_556 S
C695 C694 1.400 1_554 S
C695 C696 1.398 . S
C695 C701 1.491 1_554 S
C696 H687 0.950 . S
C696 C695 1.398 . S
C696 C697 1.391 . S
C697 H685 0.950 . S
C697 C693 1.393 . S
C697 C696 1.391 . S
C698 H688 0.950 1_556 S
C698 C699 1.386 . S
C698 C700 1.391 1_546 S
C699 C698 1.386 . S
C699 C703 1.393 . S
C700 H689 0.950 . S
C700 C698 1.391 1_564 S
C700 C701 1.400 1_554 S
C701 C695 1.491 1_556 S
C701 C700 1.400 1_556 S
C701 C702 1.398 . S
C702 H690 0.950 . S
C702 C701 1.398 . S
C702 C703 1.391 1_565 S
C703 H691 0.950 . S
C703 C699 1.393 . S
C703 C702 1.391 1_545 S
H704 C712 0.950 . S
H705 C717 0.950 . S
H706 C714 0.950 1_556 S
H707 C716 0.950 . S
H708 C718 0.950 . S
H709 C720 0.950 . S
H710 C722 0.950 . S
H711 C723 0.950 . S
C712 H704 0.950 . S
C712 C713 1.386 . S
C712 C714 1.391 . S
C713 C712 1.386 . S
C713 C717 1.393 . S
C714 H706 0.950 1_554 S
C714 C712 1.391 . S
C714 C715 1.400 . S
C715 C714 1.400 . S
C715 C716 1.398 . S
C715 C721 1.491 1_554 S
C716 H707 0.950 . S
C716 C715 1.398 . S
C716 C717 1.391 . S
C717 H705 0.950 . S
C717 C713 1.393 . S
C717 C716 1.391 . S
C718 H708 0.950 . S
C718 C719 1.386 . S
C718 C720 1.391 1_556 S
C719 C718 1.386 . S
C719 C723 1.393 . S
C720 H709 0.950 . S
C720 C718 1.391 1_554 S
C720 C721 1.400 1_554 S
C721 C715 1.491 1_556 S
C721 C720 1.400 1_556 S
C721 C722 1.398 . S
C722 H710 0.950 . S
C722 C721 1.398 . S
C722 C723 1.391 . S
C723 H711 0.950 . S
C723 C719 1.393 . S
C723 C722 1.391 . S
H724 C732 0.950 . S
H725 C737 0.950 1_556 S
H726 C734 0.950 . S
H727 C736 0.950 . S
H728 C738 0.950 . S
H729 C740 0.950 . S
H730 C742 0.950 . S
H731 C743 0.950 1_554 S
C732 H724 0.950 . S
C732 C733 1.386 . S
C732 C734 1.391 . S
C733 C732 1.386 . S
C733 C737 1.393 . S
C734 H726 0.950 . S
C734 C732 1.391 . S
C734 C735 1.400 . S
C735 C734 1.400 . S
C735 C736 1.398 1_554 S
C735 C741 1.491 1_554 S
C736 H727 0.950 . S
C736 C735 1.398 1_556 S
C736 C737 1.391 1_556 S
C737 H725 0.950 1_554 S
C737 C733 1.393 . S
C737 C736 1.391 1_554 S
C738 H728 0.950 . S
C738 C739 1.386 . S
C738 C740 1.391 . S
C739 C738 1.386 . S
C739 C743 1.393 . S
C740 H729 0.950 . S
C740 C738 1.391 . S
C740 C741 1.400 . S
C741 C735 1.491 1_556 S
C741 C740 1.400 . S
C741 C742 1.398 1_556 S
C742 H730 0.950 . S
C742 C741 1.398 1_554 S
C742 C743 1.391 1_554 S
C743 H731 0.950 1_556 S
C743 C739 1.393 . S
C743 C742 1.391 1_556 S
H744 C752 0.950 . S
H745 C757 0.950 . S
H746 C754 0.950 . S
H747 C756 0.950 . S
H748 C758 0.950 1_655 S
H749 C760 0.950 . S
H750 C762 0.950 . S
H751 C763 0.950 . S
C752 H744 0.950 . S
C752 C753 1.386 . S
C752 C754 1.391 . S
C753 C752 1.386 . S
C753 C757 1.393 . S
C754 H746 0.950 . S
C754 C752 1.391 . S
C754 C755 1.400 . S
C755 C754 1.400 . S
C755 C756 1.398 . S
C755 C761 1.491 . S
C756 H747 0.950 . S
C756 C755 1.398 . S
C756 C757 1.391 . S
C757 H745 0.950 . S
C757 C753 1.393 . S
C757 C756 1.391 . S
C758 H748 0.950 1_455 S
C758 C759 1.386 . S
C758 C760 1.391 . S
C759 C758 1.386 . S
C759 C763 1.393 . S
C760 H749 0.950 . S
C760 C758 1.391 . S
C760 C761 1.400 . S
C761 C755 1.491 . S
C761 C760 1.400 . S
C761 C762 1.398 . S
C762 H750 0.950 . S
C762 C761 1.398 . S
C762 C763 1.391 . S
C763 H751 0.950 . S
C763 C759 1.393 . S
C763 C762 1.391 . S
H764 C772 0.950 . S
H765 C777 0.950 . S
H766 C774 0.950 . S
H767 C776 0.950 . S
H768 C778 0.950 . S
H769 C780 0.950 . S
H770 C782 0.950 . S
H771 C783 0.950 . S
C772 H764 0.950 . S
C772 C773 1.386 . S
C772 C774 1.391 . S
C773 C772 1.386 . S
C773 C777 1.393 . S
C774 H766 0.950 . S
C774 C772 1.391 . S
C774 C775 1.400 . S
C775 C774 1.400 . S
C775 C776 1.398 . S
C775 C781 1.491 . S
C776 H767 0.950 . S
C776 C775 1.398 . S
C776 C777 1.391 . S
C777 H765 0.950 . S
C777 C773 1.393 . S
C777 C776 1.391 . S
C778 H768 0.950 . S
C778 C779 1.386 . S
C778 C780 1.391 . S
C779 C778 1.386 . S
C779 C783 1.393 . S
C780 H769 0.950 . S
C780 C778 1.391 . S
C780 C781 1.400 . S
C781 C775 1.491 . S
C781 C780 1.400 . S
C781 C782 1.398 . S
C782 H770 0.950 . S
C782 C781 1.398 . S
C782 C783 1.391 . S
C783 H771 0.950 . S
C783 C779 1.393 . S
C783 C782 1.391 . S
H784 C792 0.950 . S
H785 C797 0.950 . S
H786 C794 0.950 . S
H787 C796 0.950 . S
H788 C798 0.950 . S
H789 C800 0.950 . S
H790 C802 0.950 . S
H791 C803 0.950 . S
C792 H784 0.950 . S
C792 C793 1.386 . S
C792 C794 1.391 . S
C793 C792 1.386 . S
C793 C797 1.393 . S
C794 H786 0.950 . S
C794 C792 1.391 . S
C794 C795 1.400 . S
C795 C794 1.400 . S
C795 C796 1.398 . S
C795 C801 1.491 . S
C796 H787 0.950 . S
C796 C795 1.398 . S
C796 C797 1.391 . S
C797 H785 0.950 . S
C797 C793 1.393 . S
C797 C796 1.391 . S
C798 H788 0.950 . S
C798 C799 1.386 . S
C798 C800 1.391 . S
C799 C798 1.386 . S
C799 C803 1.393 . S
C800 H789 0.950 . S
C800 C798 1.391 . S
C800 C801 1.400 . S
C801 C795 1.491 . S
C801 C800 1.400 . S
C801 C802 1.398 . S
C802 H790 0.950 . S
C802 C801 1.398 . S
C802 C803 1.391 . S
C803 H791 0.950 . S
C803 C799 1.393 . S
C803 C802 1.391 . S
H804 C812 0.950 . S
H805 C817 0.950 . S
H806 C814 0.950 . S
H807 C816 0.950 . S
H808 C818 0.950 . S
H809 C820 0.950 . S
H810 C822 0.950 . S
H811 C823 0.950 . S
C812 H804 0.950 . S
C812 C813 1.386 . S
C812 C814 1.391 . S
C813 C812 1.386 . S
C813 C817 1.393 . S
C814 H806 0.950 . S
C814 C812 1.391 . S
C814 C815 1.400 . S
C815 C814 1.400 . S
C815 C816 1.398 . S
C815 C821 1.491 . S
C816 H807 0.950 . S
C816 C815 1.398 . S
C816 C817 1.391 . S
C817 H805 0.950 . S
C817 C813 1.393 . S
C817 C816 1.391 . S
C818 H808 0.950 . S
C818 C819 1.386 . S
C818 C820 1.391 . S
C819 C818 1.386 . S
C819 C823 1.393 . S
C820 H809 0.950 . S
C820 C818 1.391 . S
C820 C821 1.400 . S
C821 C815 1.491 . S
C821 C820 1.400 . S
C821 C822 1.398 . S
C822 H810 0.950 . S
C822 C821 1.398 . S
C822 C823 1.391 . S
C823 H811 0.950 . S
C823 C819 1.393 . S
C823 C822 1.391 . S
H824 C832 0.950 . S
H825 C837 0.950 . S
H826 C834 0.950 . S
H827 C836 0.950 . S
H828 C838 0.950 . S
H829 C840 0.950 . S
H830 C842 0.950 . S
H831 C843 0.950 . S
C832 H824 0.950 . S
C832 C833 1.386 . S
C832 C834 1.391 . S
C833 C832 1.386 . S
C833 C837 1.393 . S
C834 H826 0.950 . S
C834 C832 1.391 . S
C834 C835 1.400 . S
C835 C834 1.400 . S
C835 C836 1.398 . S
C835 C841 1.491 . S
C836 H827 0.950 . S
C836 C835 1.398 . S
C836 C837 1.391 . S
C837 H825 0.950 . S
C837 C833 1.393 . S
C837 C836 1.391 . S
C838 H828 0.950 . S
C838 C839 1.386 . S
C838 C840 1.391 . S
C839 C838 1.386 . S
C839 C843 1.393 . S
C840 H829 0.950 . S
C840 C838 1.391 . S
C840 C841 1.400 . S
C841 C835 1.491 . S
C841 C840 1.400 . S
C841 C842 1.398 . S
C842 H830 0.950 . S
C842 C841 1.398 . S
C842 C843 1.391 . S
C843 H831 0.950 . S
C843 C839 1.393 . S
C843 C842 1.391 . S
H844 C852 0.950 . S
H845 C857 0.950 . S
H846 C854 0.950 . S
H847 C856 0.950 . S
H848 C858 0.950 . S
H849 C860 0.950 . S
H850 C862 0.950 . S
H851 C863 0.950 . S
C852 H844 0.950 . S
C852 C853 1.386 . S
C852 C854 1.391 . S
C853 C852 1.386 . S
C853 C857 1.393 . S
C854 H846 0.950 . S
C854 C852 1.391 . S
C854 C855 1.400 . S
C855 C854 1.400 . S
C855 C856 1.398 . S
C855 C861 1.491 . S
C856 H847 0.950 . S
C856 C855 1.398 . S
C856 C857 1.391 . S
C857 H845 0.950 . S
C857 C853 1.393 . S
C857 C856 1.391 . S
C858 H848 0.950 . S
C858 C859 1.386 . S
C858 C860 1.391 . S
C859 C858 1.386 . S
C859 C863 1.393 . S
C860 H849 0.950 . S
C860 C858 1.391 . S
C860 C861 1.400 . S
C861 C855 1.491 . S
C861 C860 1.400 . S
C861 C862 1.398 . S
C862 H850 0.950 . S
C862 C861 1.398 . S
C862 C863 1.391 . S
C863 H851 0.950 . S
C863 C859 1.393 . S
C863 C862 1.391 . S
H864 C872 0.950 . S
H865 C877 0.950 . S
H866 C874 0.950 . S
H867 C876 0.950 . S
H868 C878 0.950 . S
H869 C880 0.950 . S
H870 C882 0.950 . S
H871 C883 0.950 . S
C872 H864 0.950 . S
C872 C873 1.386 . S
C872 C874 1.391 . S
C873 C872 1.386 . S
C873 C877 1.393 . S
C874 H866 0.950 . S
C874 C872 1.391 . S
C874 C875 1.400 . S
C875 C874 1.400 . S
C875 C876 1.398 . S
C875 C881 1.491 . S
C876 H867 0.950 . S
C876 C875 1.398 . S
C876 C877 1.391 . S
C877 H865 0.950 . S
C877 C873 1.393 . S
C877 C876 1.391 . S
C878 H868 0.950 . S
C878 C879 1.386 . S
C878 C880 1.391 . S
C879 C878 1.386 . S
C879 C883 1.393 . S
C880 H869 0.950 . S
C880 C878 1.391 . S
C880 C881 1.400 . S
C881 C875 1.491 . S
C881 C880 1.400 . S
C881 C882 1.398 . S
C882 H870 0.950 . S
C882 C881 1.398 . S
C882 C883 1.391 . S
C883 H871 0.950 . S
C883 C879 1.393 . S
C883 C882 1.391 . S
H884 C892 0.950 . S
H885 C897 0.950 . S
H886 C894 0.950 . S
H887 C896 0.950 . S
H888 C898 0.950 . S
H889 C900 0.950 . S
H890 C902 0.950 . S
H891 C903 0.950 . S
C892 H884 0.950 . S
C892 C893 1.386 . S
C892 C894 1.391 . S
C893 C892 1.386 . S
C893 C897 1.393 . S
C894 H886 0.950 . S
C894 C892 1.391 . S
C894 C895 1.400 . S
C895 C894 1.400 . S
C895 C896 1.398 . S
C895 C901 1.491 . S
C896 H887 0.950 . S
C896 C895 1.398 . S
C896 C897 1.391 . S
C897 H885 0.950 . S
C897 C893 1.393 . S
C897 C896 1.391 . S
C898 H888 0.950 . S
C898 C899 1.386 . S
C898 C900 1.391 . S
C899 C898 1.386 . S
C899 C903 1.393 . S
C900 H889 0.950 . S
C900 C898 1.391 . S
C900 C901 1.400 . S
C901 C895 1.491 . S
C901 C900 1.400 . S
C901 C902 1.398 . S
C902 H890 0.950 . S
C902 C901 1.398 . S
C902 C903 1.391 . S
C903 H891 0.950 . S
C903 C899 1.393 . S
C903 C902 1.391 . S
C433 C74 1.854 . S
C439 C162 1.873 . S
C459 C246 1.909 . S
C453 C85 1.897 . S
C479 C312 1.883 . S
C473 C52 1.998 . S
C499 C396 1.840 . S
C493 C63 1.959 . S
C519 C151 1.862 1_565 S
C513 C30 1.797 . S
C533 C41 1.815 . S
C539 C235 1.898 . S
C553 C8 1.941 . S
C559 C323 1.881 . S
C573 C19 1.922 . S
C579 C407 1.860 . S
C599 C158 0.714 1_455 S
C593 C62 0.731 . S
C619 C242 0.676 1_545 S
C613 C73 0.689 . S
C639 C314 0.675 . S
C633 C84 0.652 . S
C653 C51 0.679 . S
C659 C398 0.664 . S
C673 C18 0.751 . S
C679 C146 0.738 . S
C699 C230 0.673 . S
C693 C29 0.746 . S
C719 C326 0.689 . S
C713 C40 0.691 . S
C733 C7 0.667 . S
C739 C410 0.708 . S
C753 C60 1.846 . S
C759 C155 2.064 . S
C773 C71 1.799 . S
C779 C239 2.031 . S
C799 C319 2.068 . S
C793 C82 1.759 . S
C819 C403 2.091 . S
C813 C49 1.756 . S
C833 C16 1.654 . S
C839 C144 2.068 . S
C859 C228 2.048 . S
C853 C27 1.632 . S
C879 C330 2.063 . S
C873 C38 1.532 . S
C893 C5 1.518 . S
C899 C414 2.098 . S
