# Generated by pormake.
# Topology rtl, (3,6)-cn, num edge types: 1
# Building blocks:
#     Node 0, Type 0, BuildingBlock: OLANEW_clean_sbu_2, # of connection points: 3
#     Node 1, Type 0, BuildingBlock: OLANEW_clean_sbu_2, # of connection points: 3
#     Node 2, Type 0, BuildingBlock: OLANEW_clean_sbu_2, # of connection points: 3
#     Node 3, Type 0, BuildingBlock: OLANEW_clean_sbu_2, # of connection points: 3
#     Node 4, Type 1, BuildingBlock: KUMBUR_clean_sbu_1, # of connection points: 6
#     Node 5, Type 1, BuildingBlock: KUMBUR_clean_sbu_1, # of connection points: 6
#     Edge 6, Type (0, 1), BuildingBlock: CIFDUS_clean_linker_0, # of connection points: 2
#     Edge 7, Type (0, 1), BuildingBlock: CIFDUS_clean_linker_0, # of connection points: 2
#     Edge 8, Type (0, 1), BuildingBlock: CIFDUS_clean_linker_0, # of connection points: 2
#     Edge 9, Type (0, 1), BuildingBlock: CIFDUS_clean_linker_0, # of connection points: 2
#     Edge 10, Type (0, 1), BuildingBlock: CIFDUS_clean_linker_0, # of connection points: 2
#     Edge 11, Type (0, 1), BuildingBlock: CIFDUS_clean_linker_0, # of connection points: 2
#     Edge 12, Type (0, 1), BuildingBlock: CIFDUS_clean_linker_0, # of connection points: 2
#     Edge 13, Type (0, 1), BuildingBlock: CIFDUS_clean_linker_0, # of connection points: 2
#     Edge 14, Type (0, 1), BuildingBlock: CIFDUS_clean_linker_0, # of connection points: 2
#     Edge 15, Type (0, 1), BuildingBlock: CIFDUS_clean_linker_0, # of connection points: 2
#     Edge 16, Type (0, 1), BuildingBlock: CIFDUS_clean_linker_0, # of connection points: 2
#     Edge 17, Type (0, 1), BuildingBlock: CIFDUS_clean_linker_0, # of connection points: 2
# Relax obj value: 0.044
# Max RMSD: 0.171
# Mean RMSD: 0.134
data_MOF--net-rtl--node1-OLANEW_clean_sbu_2--node2-KUMBUR_clean_sbu_1--edge1-CIFDUS_clean_linker_0
_symmetry_space_group_name_H-M    P1
_symmetry_Int_Tables_number       1
_symmetry_cell_setting            triclinic
loop_
_symmetry_equiv_pos_as_xyz
'x, y, z'
_cell_length_a     33.640638
_cell_length_b     33.529617
_cell_length_c     26.130898
_cell_angle_alpha  74.243966
_cell_angle_beta   102.75043
_cell_angle_gamma 91.151322
loop_
_atom_site_label
_atom_site_type_symbol
_atom_site_fract_x
_atom_site_fract_y
_atom_site_fract_z
_atom_type_partial_charge
O0 O 0.24475 0.88534 0.93053 0.0
Cd1 Cd 0.29641 0.85705 0.01404 0.0
O2 O 0.19254 0.89382 0.96572 0.0
Cd3 Cd 0.22064 0.8779 0.05266 0.0
O4 O 0.2057 0.88071 0.12902 0.0
C5 C 0.16864 0.89099 0.12463 0.0
O6 O 0.14357 0.89849 0.07645 0.0
C7 C 0.20749 0.8957 0.92453 0.0
C8 C 0.34161 0.79254 0.0014 0.0
O9 O 0.31139 0.78512 0.02462 0.0
O10 O 0.3508 0.83042 0.98465 0.0
O11 O 0.71938 0.68372 0.77662 0.0
Cd12 Cd 0.7622 0.69462 0.70908 0.0
O13 O 0.6728 0.66629 0.71499 0.0
Cd14 Cd 0.61887 0.6393 0.67556 0.0
O15 O 0.58962 0.6269 0.59841 0.0
C16 C 0.58331 0.65824 0.55687 0.0
O17 O 0.59125 0.69509 0.56418 0.0
C18 C 0.68451 0.66928 0.76347 0.0
C19 C 0.79373 0.77181 0.66914 0.0
O20 O 0.76072 0.76058 0.64247 0.0
O21 O 0.8106 0.74752 0.71577 0.0
O22 O 0.78483 0.17756 0.17719 0.0
Cd23 Cd 0.73518 0.1978 0.08959 0.0
O24 O 0.81343 0.13765 0.14065 0.0
Cd25 Cd 0.86167 0.09743 0.13516 0.0
O26 O 0.90476 0.07988 0.0928 0.0
C27 C 0.89027 0.07089 0.04829 0.0
O28 O 0.85048 0.07026 0.03175 0.0
C29 C 0.81255 0.15088 0.18159 0.0
C30 C 0.68112 0.2627 0.08009 0.0
O31 O 0.67503 0.22517 0.10447 0.0
O32 O 0.71308 0.26975 0.06045 0.0
O33 O 0.29857 0.3012 0.55744 0.0
Cd34 Cd 0.30113 0.25065 0.50548 0.0
O35 O 0.32939 0.34778 0.50532 0.0
Cd36 Cd 0.35626 0.40386 0.46262 0.0
O37 O 0.37921 0.43292 0.38878 0.0
C38 C 0.41547 0.4236 0.38788 0.0
O39 O 0.4386 0.3993 0.43224 0.0
C40 C 0.3132 0.33703 0.54647 0.0
C41 C 0.24192 0.19143 0.52057 0.0
O42 O 0.27585 0.18831 0.55556 0.0
O43 O 0.23586 0.22247 0.47798 0.0
Tb44 Tb 0.01822 0.9568 0.53346 0.0
C45 C 0.9119 0.1153 0.50779 0.0
N46 N 0.95277 0.10745 0.52379 0.0
C47 C 0.9641 0.17453 0.46825 0.0
C48 C 0.89525 0.15265 0.46948 0.0
C49 C 0.9791 0.13681 0.50614 0.0
C50 C 0.92197 0.18236 0.44944 0.0
C51 C 0.84431 0.09336 0.51693 0.0
C52 C 0.88699 0.08613 0.53131 0.0
C53 C 0.82724 0.1296 0.47675 0.0
C54 C 0.85269 0.15927 0.45317 0.0
Tb55 Tb 0.97468 0.04626 0.58706 0.0
N56 N 0.90481 0.05207 0.5709 0.0
C57 C 0.82023 0.06477 0.54481 0.0
C58 C 0.88157 0.02605 0.60128 0.0
C59 C 0.83903 0.03135 0.58781 0.0
H60 H 0.01164 0.13087 0.52096 0.0
H61 H 0.82082 0.0101 0.61132 0.0
H62 H 0.95604 0.87833 0.56257 0.0
H63 H 0.18219 0.95639 0.58811 0.0
H64 H 0.89549 0.00157 0.63678 0.0
H65 H 0.78732 0.06914 0.53501 0.0
H66 H 0.11302 0.98254 0.53403 0.0
H67 H 0.985 0.19751 0.45361 0.0
H68 H 0.79449 0.13553 0.46479 0.0
H69 H 0.83921 0.18753 0.42321 0.0
H70 H 0.95703 0.81368 0.63526 0.0
H71 H 0.91042 0.21153 0.42002 0.0
H72 H 0.19054 0.8932 0.66596 0.0
N73 N 0.01623 0.89372 0.59565 0.0
C74 C 0.05228 0.87842 0.63056 0.0
C75 C 0.9839 0.832 0.63516 0.0
C76 C 0.05509 0.84036 0.67112 0.0
C77 C 0.98308 0.86945 0.59484 0.0
C78 C 0.01986 0.81782 0.67431 0.0
N79 N 0.08295 0.93533 0.58198 0.0
C80 C 0.11654 0.95508 0.56811 0.0
C81 C 0.12572 0.88335 0.65454 0.0
C82 C 0.0871 0.89936 0.6225 0.0
C83 C 0.16025 0.90451 0.64234 0.0
C84 C 0.15565 0.94025 0.59848 0.0
H85 H 0.02063 0.78847 0.70494 0.0
H86 H 0.09593 0.79624 0.73718 0.0
H87 H 0.15787 0.83403 0.72268 0.0
O88 O 0.0427 0.96443 0.46359 0.0
O89 O 0.05116 0.97372 0.60681 0.0
O90 O 0.99996 0.9876 0.64441 0.0
O91 O 0.01129 0.90993 0.49319 0.0
O92 O 0.03846 0.01995 0.50269 0.0
O93 O 0.03582 0.05257 0.57028 0.0
O94 O 0.95669 0.0706 0.64533 0.0
O95 O 0.96601 0.05583 0.49833 0.0
O96 O 0.96033 0.98981 0.48783 0.0
O97 O 0.01704 0.07851 0.6308 0.0
O98 O 0.95508 0.98251 0.61337 0.0
O99 O 0.95434 0.95266 0.54321 0.0
C100 C 0.03698 0.97343 0.64973 0.0
C101 C 0.06874 0.90068 0.45923 0.0
C102 C 0.11813 0.8833 0.4117 0.0
C103 C 0.13453 0.85085 0.45829 0.0
C104 C 0.08526 0.86746 0.50475 0.0
C105 C 0.11815 0.84307 0.50439 0.0
C106 C 0.08522 0.90838 0.41262 0.0
C107 C 0.05087 0.04763 0.52975 0.0
C108 C 0.0344 0.92708 0.46032 0.0
C109 C 0.09323 0.82519 0.70535 0.0
C110 C 0.12852 0.84661 0.69696 0.0
C111 C 0.95335 0.03012 0.46852 0.0
C112 C 0.01086 0.06593 0.72226 0.0
C113 C 0.00207 0.04994 0.81617 0.0
C114 C 0.04252 0.03369 0.83489 0.0
C115 C 0.05141 0.05003 0.74217 0.0
C116 C 0.98659 0.06622 0.7596 0.0
C117 C 0.067 0.03406 0.79809 0.0
C118 C 0.94003 0.95658 0.58485 0.0
C119 C 0.99339 0.08148 0.66289 0.0
H120 H 0.15936 0.83065 0.45861 0.0
H121 H 0.07257 0.85995 0.54055 0.0
H122 H 0.13062 0.81765 0.53974 0.0
H123 H 0.07248 0.93379 0.37729 0.0
H124 H 0.05518 0.02026 0.87798 0.0
H125 H 0.07106 0.04942 0.71465 0.0
H126 H 0.95567 0.07937 0.74445 0.0
H127 H 0.09809 0.02146 0.81294 0.0
Tb128 Tb 0.45003 0.50865 0.96053 0.0
C129 C 0.63302 0.53639 0.08323 0.0
N130 N 0.6065 0.50619 0.09578 0.0
C131 C 0.66056 0.45432 0.12003 0.0
C132 C 0.67436 0.52673 0.08735 0.0
C133 C 0.62 0.46565 0.11629 0.0
C134 C 0.6878 0.48498 0.10492 0.0
C135 C 0.64563 0.60985 0.05803 0.0
C136 C 0.61895 0.57727 0.06864 0.0
C137 C 0.6867 0.60051 0.06074 0.0
C138 C 0.70101 0.55903 0.07515 0.0
Tb139 Tb 0.54083 0.52827 0.08628 0.0
N140 N 0.5789 0.58497 0.06562 0.0
C141 C 0.63021 0.65067 0.0456 0.0
C142 C 0.5641 0.62456 0.05632 0.0
C143 C 0.58937 0.65802 0.04531 0.0
H144 H 0.5996 0.44203 0.13045 0.0
H145 H 0.5774 0.68943 0.03686 0.0
H146 H 0.37361 0.57098 0.95433 0.0
H147 H 0.46984 0.34064 0.01881 0.0
H148 H 0.5327 0.63027 0.05673 0.0
H149 H 0.64971 0.67664 0.03712 0.0
H150 H 0.48783 0.4115 0.97911 0.0
H151 H 0.6709 0.42203 0.13527 0.0
H152 H 0.70771 0.62508 0.05227 0.0
H153 H 0.73287 0.55226 0.07777 0.0
H154 H 0.3054 0.56406 0.97621 0.0
H155 H 0.71932 0.47618 0.10847 0.0
H156 H 0.40526 0.32783 0.04977 0.0
N157 N 0.38737 0.50605 0.98014 0.0
C158 C 0.3741 0.46745 0.99924 0.0
C159 C 0.3245 0.53668 0.98308 0.0
C160 C 0.33557 0.46202 0.01232 0.0
C161 C 0.36312 0.54055 0.97103 0.0
C162 C 0.31069 0.49727 0.00394 0.0
N163 N 0.43744 0.44015 0.99492 0.0
C164 C 0.46125 0.40719 0.99614 0.0
C165 C 0.38771 0.39305 0.02846 0.0
C166 C 0.40025 0.43351 0.00783 0.0
C167 C 0.41375 0.3594 0.0341 0.0
C168 C 0.45037 0.36652 0.01706 0.0
H169 H 0.28082 0.4944 0.01347 0.0
H170 H 0.29385 0.41693 0.04415 0.0
H171 H 0.3393 0.35654 0.05786 0.0
O172 O 0.43554 0.48244 0.89435 0.0
O173 O 0.43788 0.50563 0.04129 0.0
O174 O 0.49901 0.47808 0.09087 0.0
O175 O 0.41333 0.54386 0.88616 0.0
O176 O 0.51086 0.47948 0.97326 0.0
O177 O 0.53328 0.46951 0.06508 0.0
O178 O 0.52159 0.55077 0.14528 0.0
O179 O 0.54713 0.56304 0.00413 0.0
O180 O 0.50204 0.54167 0.93487 0.0
O181 O 0.57183 0.50637 0.16834 0.0
O182 O 0.48528 0.5684 0.05881 0.0
O183 O 0.45395 0.57267 0.96747 0.0
C184 C 0.46086 0.48612 0.08856 0.0
C185 C 0.37401 0.50563 0.82914 0.0
C186 C 0.33821 0.4782 0.75418 0.0
C187 C 0.30088 0.4907 0.76226 0.0
C188 C 0.33634 0.5176 0.83631 0.0
C189 C 0.30007 0.51008 0.80307 0.0
C190 C 0.37474 0.48593 0.78803 0.0
C191 C 0.53836 0.46458 0.01877 0.0
C192 C 0.41302 0.51435 0.86247 0.0
C193 C 0.32334 0.4218 0.03374 0.0
C194 C 0.34933 0.38741 0.04176 0.0
C195 C 0.53342 0.5623 0.95295 0.0
C196 C 0.57575 0.55625 0.21741 0.0
C197 C 0.58544 0.58875 0.29199 0.0
C198 C 0.62145 0.60565 0.27803 0.0
C199 C 0.61245 0.57249 0.20534 0.0
C200 C 0.56254 0.56403 0.26135 0.0
C201 C 0.6349 0.59736 0.2351 0.0
C202 C 0.46082 0.5866 0.01131 0.0
C203 C 0.55137 0.53118 0.18451 0.0
H204 H 0.27219 0.48599 0.73656 0.0
H205 H 0.33481 0.53314 0.86707 0.0
H206 H 0.27113 0.5196 0.80869 0.0
H207 H 0.40383 0.47633 0.78285 0.0
H208 H 0.63986 0.62435 0.30137 0.0
H209 H 0.62416 0.56561 0.17343 0.0
H210 H 0.5346 0.55102 0.27157 0.0
H211 H 0.66307 0.60982 0.22529 0.0
H212 H 0.18122 0.17096 0.44496 0.0
H213 H 0.23179 0.14313 0.61817 0.0
H214 H 0.17758 0.09538 0.63595 0.0
H215 H 0.11431 0.06373 0.60272 0.0
H216 H 0.06542 0.08723 0.42991 0.0
H217 H 0.12067 0.13421 0.41122 0.0
C218 C 0.18035 0.15431 0.48652 0.0
C219 C 0.21019 0.16087 0.53025 0.0
C220 C 0.14948 0.12619 0.49643 0.0
C221 C 0.20915 0.13864 0.58386 0.0
C222 C 0.17812 0.11141 0.59408 0.0
C223 C 0.11594 0.07908 0.56097 0.0
C224 C 0.08583 0.07264 0.51766 0.0
C225 C 0.14794 0.1053 0.55076 0.0
C226 C 0.08844 0.09188 0.46375 0.0
C227 C 0.11984 0.11881 0.45317 0.0
H228 H 0.34269 0.71068 0.05382 0.0
H229 H 0.39384 0.7978 0.9333 0.0
H230 H 0.43332 0.74135 0.92239 0.0
H231 H 0.45504 0.66686 0.94948 0.0
H232 H 0.40725 0.58154 0.07485 0.0
H233 H 0.36446 0.63727 0.08121 0.0
C234 C 0.36232 0.71732 0.02497 0.0
C235 C 0.36527 0.75836 0.9944 0.0
C236 C 0.38549 0.68488 0.01971 0.0
C237 C 0.39115 0.76647 0.95753 0.0
C238 C 0.41367 0.73419 0.95116 0.0
C239 C 0.43486 0.6607 0.97763 0.0
C240 C 0.43378 0.62042 0.01135 0.0
C241 C 0.41128 0.69326 0.98226 0.0
C242 C 0.40826 0.6125 0.04849 0.0
C243 C 0.3839 0.6443 0.05217 0.0
H244 H 0.8517 0.81299 0.72221 0.0
H245 H 0.7807 0.81617 0.56197 0.0
H246 H 0.819 0.87439 0.52114 0.0
H247 H 0.87577 0.92203 0.53075 0.0
H248 H 0.9442 0.92006 0.69181 0.0
H249 H 0.90393 0.86401 0.73241 0.0
C250 C 0.84434 0.82666 0.67839 0.0
C251 C 0.81359 0.81007 0.64521 0.0
C252 C 0.86626 0.86028 0.65525 0.0
C253 C 0.80418 0.8284 0.58851 0.0
C254 C 0.82622 0.86158 0.56507 0.0
C255 C 0.88149 0.90942 0.5747 0.0
C256 C 0.91297 0.92491 0.60822 0.0
C257 C 0.85779 0.87738 0.59796 0.0
C258 C 0.91998 0.90873 0.66516 0.0
C259 C 0.8971 0.87654 0.68844 0.0
H260 H 0.67175 0.33952 0.00782 0.0
H261 H 0.62463 0.26192 0.14033 0.0
H262 H 0.57615 0.31758 0.13252 0.0
H263 H 0.54743 0.38828 0.08872 0.0
H264 H 0.59145 0.46547 0.95362 0.0
H265 H 0.64081 0.4099 0.96128 0.0
C266 C 0.65093 0.3349 0.03504 0.0
C267 C 0.65193 0.29674 0.07482 0.0
C268 C 0.62257 0.36684 0.02968 0.0
C269 C 0.62445 0.29097 0.10937 0.0
C270 C 0.59674 0.32277 0.10498 0.0
C271 C 0.56787 0.39278 0.06098 0.0
C272 C 0.56634 0.43071 0.02097 0.0
C273 C 0.59557 0.36076 0.06537 0.0
C274 C 0.59232 0.4363 0.98462 0.0
C275 C 0.62054 0.40469 0.98922 0.0
H276 H 0.21281 0.8854 0.22755 0.0
H277 H 0.08979 0.90295 0.12944 0.0
H278 H 0.06358 0.90497 0.20856 0.0
H279 H 0.07507 0.89799 0.30675 0.0
H280 H 0.19796 0.88128 0.40486 0.0
H281 H 0.22462 0.88278 0.32472 0.0
C282 C 0.18028 0.88978 0.22344 0.0
C283 C 0.15335 0.89366 0.17268 0.0
C284 C 0.16531 0.89101 0.26918 0.0
C285 C 0.11129 0.8997 0.16802 0.0
C286 C 0.0962 0.90088 0.21329 0.0
C287 C 0.10772 0.89546 0.3104 0.0
C288 C 0.13442 0.88924 0.3618 0.0
C289 C 0.12287 0.89617 0.26418 0.0
C290 C 0.17667 0.8855 0.3659 0.0
C291 C 0.19197 0.88642 0.32008 0.0
H292 H 0.6019 0.66043 0.74929 0.0
H293 H 0.71393 0.64025 0.87273 0.0
H294 H 0.67714 0.60618 0.94222 0.0
H295 H 0.61421 0.57756 0.96661 0.0
H296 H 0.50157 0.59894 0.84496 0.0
H297 H 0.53773 0.63549 0.77548 0.0
C298 C 0.61828 0.64833 0.79128 0.0
C299 C 0.66075 0.65226 0.8055 0.0
C300 C 0.59689 0.62864 0.83124 0.0
C301 C 0.68126 0.63765 0.86055 0.0
C302 C 0.66028 0.61796 0.90037 0.0
C303 C 0.59729 0.59152 0.92558 0.0
C304 C 0.55513 0.58627 0.91158 0.0
C305 C 0.6182 0.61284 0.88608 0.0
C306 C 0.53408 0.60257 0.85701 0.0
C307 C 0.55472 0.62359 0.81725 0.0
H308 H 0.8411 0.07173 0.23039 0.0
H309 H 0.85018 0.1954 0.24986 0.0
H310 H 0.89731 0.16934 0.33868 0.0
H311 H 0.93446 0.11104 0.4113 0.0
H312 H 0.91872 0.98637 0.3967 0.0
H313 H 0.87677 0.01312 0.30481 0.0
C314 C 0.85388 0.09294 0.2539 0.0
C315 C 0.84275 0.13543 0.23356 0.0
C316 C 0.87964 0.0775 0.30578 0.0
C317 C 0.85856 0.16258 0.2648 0.0
C318 C 0.88541 0.14768 0.31553 0.0
C319 C 0.92116 0.08963 0.38877 0.0
C320 C 0.92902 0.04672 0.41186 0.0
C321 C 0.89576 0.10512 0.33671 0.0
C322 C 0.91294 0.01957 0.3805 0.0
C323 C 0.88885 0.03482 0.32784 0.0
H324 H 0.36291 0.40015 0.56614 0.0
H325 H 0.25823 0.33391 0.60857 0.0
H326 H 0.2567 0.37155 0.6756 0.0
H327 H 0.28665 0.42032 0.72583 0.0
H328 H 0.39105 0.48776 0.68509 0.0
H329 H 0.39156 0.45218 0.61488 0.0
C330 C 0.33941 0.39455 0.58942 0.0
C331 C 0.31069 0.36425 0.58212 0.0
C332 C 0.339 0.41602 0.62899 0.0
C333 C 0.28081 0.35691 0.61335 0.0
C334 C 0.27991 0.37838 0.6519 0.0
C335 C 0.30921 0.42782 0.70114 0.0
C336 C 0.3387 0.45682 0.71095 0.0
C337 C 0.30913 0.40754 0.66062 0.0
C338 C 0.36824 0.46522 0.67912 0.0
C339 C 0.36836 0.44509 0.63857 0.0
H340 H 0.56741 0.58658 0.52669 0.0
H341 H 0.57904 0.71812 0.46133 0.0
H342 H 0.57581 0.7086 0.37142 0.0
H343 H 0.57815 0.66212 0.31407 0.0
H344 H 0.56722 0.53068 0.3784 0.0
H345 H 0.56088 0.54099 0.46563 0.0
C346 C 0.56858 0.61324 0.4926 0.0
C347 C 0.57419 0.65289 0.50107 0.0
C348 C 0.56703 0.60754 0.44083 0.0
C349 C 0.57514 0.68717 0.45624 0.0
C350 C 0.57341 0.68179 0.40472 0.0
C351 C 0.57373 0.63587 0.34701 0.0
C352 C 0.57364 0.5957 0.3403 0.0
C353 C 0.57068 0.642 0.397 0.0
C354 C 0.56732 0.5619 0.38277 0.0
C355 C 0.56404 0.56777 0.43271 0.0
H356 H 0.86881 0.04932 0.95316 0.0
H357 H 0.97278 0.07953 0.06412 0.0
H358 H 0.01653 0.07503 0.00258 0.0
H359 H 0.0246 0.06591 0.91532 0.0
H360 H 0.92096 0.03381 0.80559 0.0
H361 H 0.87767 0.03643 0.86828 0.0
C362 C 0.90109 0.05469 0.96411 0.0
C363 C 0.91739 0.06496 0.0131 0.0
C364 C 0.92607 0.0522 0.92847 0.0
C365 C 0.95936 0.0716 0.02668 0.0
C366 C 0.98441 0.06916 0.99142 0.0
C367 C 0.99268 0.05888 0.90539 0.0
C368 C 0.97609 0.05001 0.85548 0.0
C369 C 0.968 0.05993 0.94194 0.0
C370 C 0.93446 0.04157 0.84312 0.0
C371 C 0.9097 0.04274 0.87916 0.0
H372 H 0.37248 0.46282 0.28465 0.0
H373 H 0.49261 0.41308 0.37578 0.0
H374 H 0.51708 0.42867 0.29171 0.0
H375 H 0.50393 0.45303 0.19224 0.0
H376 H 0.38447 0.50355 0.09996 0.0
H377 H 0.36016 0.49055 0.18433 0.0
C378 C 0.40409 0.45571 0.28618 0.0
C379 C 0.43055 0.43656 0.33666 0.0
C380 C 0.41803 0.46445 0.23737 0.0
C381 C 0.47143 0.42758 0.33768 0.0
C382 C 0.48551 0.43642 0.28953 0.0
C383 C 0.47263 0.46157 0.19046 0.0
C384 C 0.44612 0.47931 0.13968 0.0
C385 C 0.45897 0.45429 0.23913 0.0
C386 C 0.40558 0.48983 0.13836 0.0
C387 C 0.39166 0.48245 0.18669 0.0
H388 H 0.1248 0.90317 0.8971 0.0
H389 H 0.23112 0.92178 0.82755 0.0
H390 H 0.18759 0.9486 0.73648 0.0
H391 H 0.11954 0.96829 0.67717 0.0
H392 H 0.01318 0.9457 0.7459 0.0
H393 H 0.05666 0.91992 0.83721 0.0
C394 C 0.1385 0.91306 0.86205 0.0
C395 C 0.18116 0.91065 0.86917 0.0
C396 C 0.11334 0.92794 0.80982 0.0
C397 C 0.19837 0.92325 0.82322 0.0
C398 C 0.17353 0.93869 0.77116 0.0
C399 C 0.1059 0.95689 0.71199 0.0
C400 C 0.0633 0.95815 0.70476 0.0
C401 C 0.13102 0.94127 0.76406 0.0
C402 C 0.04597 0.94479 0.75045 0.0
C403 C 0.07078 0.92991 0.8026 0.0
loop_
_geom_bond_atom_site_label_1
_geom_bond_atom_site_label_2
_geom_bond_distance
_geom_bond_site_symmetry_2
_ccdc_geom_bond_type
O0 Cd1 2.300 1_556 S
O0 C7 1.275 . S
Cd1 O0 2.300 1_554 S
Cd1 O9 2.381 . S
Cd1 O10 2.378 . S
O2 Cd3 2.385 1_556 S
O2 C7 1.255 . S
Cd3 O2 2.385 1_554 S
Cd3 O4 2.317 . S
O4 Cd3 2.317 . S
O4 C5 1.232 . S
C5 O4 1.232 . S
C5 O6 1.218 . S
O6 C5 1.218 . S
C7 O0 1.275 . S
C7 O2 1.255 . S
C8 O9 1.258 . S
C8 O10 1.256 . S
O9 Cd1 2.381 . S
O9 C8 1.258 . S
O10 Cd1 2.378 . S
O10 C8 1.256 . S
O11 Cd12 2.300 . S
O11 C18 1.275 . S
Cd12 O11 2.300 . S
Cd12 O20 2.381 . S
Cd12 O21 2.378 . S
O13 Cd14 2.385 . S
O13 C18 1.255 . S
Cd14 O13 2.385 . S
Cd14 O15 2.317 . S
O15 Cd14 2.317 . S
O15 C16 1.232 . S
C16 O15 1.232 . S
C16 O17 1.218 . S
O17 C16 1.218 . S
C18 O11 1.275 . S
C18 O13 1.255 . S
C19 O20 1.258 . S
C19 O21 1.256 . S
O20 Cd12 2.381 . S
O20 C19 1.258 . S
O21 Cd12 2.378 . S
O21 C19 1.256 . S
O22 Cd23 2.300 . S
O22 C29 1.275 . S
Cd23 O22 2.300 . S
Cd23 O31 2.381 . S
Cd23 O32 2.378 . S
O24 Cd25 2.385 . S
O24 C29 1.255 . S
Cd25 O24 2.385 . S
Cd25 O26 2.317 . S
O26 Cd25 2.317 . S
O26 C27 1.232 . S
C27 O26 1.232 . S
C27 O28 1.218 . S
O28 C27 1.218 . S
C29 O22 1.275 . S
C29 O24 1.255 . S
C30 O31 1.258 . S
C30 O32 1.256 . S
O31 Cd23 2.381 . S
O31 C30 1.258 . S
O32 Cd23 2.378 . S
O32 C30 1.256 . S
O33 Cd34 2.300 . S
O33 C40 1.275 . S
Cd34 O33 2.300 . S
Cd34 O42 2.381 . S
Cd34 O43 2.378 . S
O35 Cd36 2.385 . S
O35 C40 1.255 . S
Cd36 O35 2.385 . S
Cd36 O37 2.317 . S
O37 Cd36 2.317 . S
O37 C38 1.232 . S
C38 O37 1.232 . S
C38 O39 1.218 . S
O39 C38 1.218 . S
C40 O33 1.275 . S
C40 O35 1.255 . S
C41 O42 1.258 . S
C41 O43 1.256 . S
O42 Cd34 2.381 . S
O42 C41 1.258 . S
O43 Cd34 2.378 . S
O43 C41 1.256 . S
Tb44 N73 2.617 . S
Tb44 N79 2.572 . S
Tb44 O88 2.465 . S
Tb44 O89 2.387 . S
Tb44 O91 2.428 . S
Tb44 O92 2.308 1_565 S
Tb44 O96 2.349 1_465 S
Tb44 O99 2.393 1_455 S
Tb44 C108 2.802 . S
C45 N46 1.379 . S
C45 C48 1.416 . S
C45 C52 1.424 . S
N46 C45 1.379 . S
N46 C49 1.334 1_655 S
N46 Tb55 2.617 . S
C47 C49 1.390 . S
C47 C50 1.339 1_455 S
C47 H67 0.930 . S
C48 C45 1.416 . S
C48 C50 1.416 . S
C48 C54 1.448 . S
C49 N46 1.334 1_455 S
C49 C47 1.390 . S
C49 H60 0.930 . S
C50 C47 1.339 1_655 S
C50 C48 1.416 . S
C50 H71 0.930 . S
C51 C52 1.413 . S
C51 C53 1.427 . S
C51 C57 1.416 . S
C52 C45 1.424 . S
C52 C51 1.413 . S
C52 N56 1.361 . S
C53 C51 1.427 . S
C53 C54 1.328 . S
C53 H68 0.929 . S
C54 C48 1.448 . S
C54 C53 1.328 . S
C54 H69 0.930 . S
Tb55 N46 2.617 . S
Tb55 N56 2.572 . S
Tb55 O90 2.349 1_655 S
Tb55 O93 2.393 1_655 S
Tb55 O94 2.465 . S
Tb55 O95 2.387 . S
Tb55 O97 2.428 . S
Tb55 O98 2.308 1_545 S
Tb55 C119 2.802 . S
N56 C52 1.361 . S
N56 Tb55 2.572 . S
N56 C58 1.340 . S
C57 C51 1.416 . S
C57 C59 1.332 . S
C57 H65 0.931 . S
C58 N56 1.340 . S
C58 C59 1.407 . S
C58 H64 0.930 . S
C59 C57 1.332 . S
C59 C58 1.407 . S
C59 H61 0.929 . S
H60 C49 0.930 . S
H61 C59 0.929 . S
H62 C77 0.930 1_655 S
H63 C84 0.929 . S
H64 C58 0.930 . S
H65 C57 0.931 . S
H66 C80 0.930 . S
H67 C47 0.930 . S
H68 C53 0.929 . S
H69 C54 0.930 . S
H70 C75 0.930 1_655 S
H71 C50 0.930 . S
H72 C83 0.931 . S
N73 Tb44 2.617 . S
N73 C74 1.379 . S
N73 C77 1.334 . S
C74 N73 1.379 . S
C74 C76 1.416 . S
C74 C82 1.424 . S
C75 H70 0.930 1_455 S
C75 C77 1.390 . S
C75 C78 1.339 . S
C76 C74 1.416 . S
C76 C78 1.416 . S
C76 C109 1.448 . S
C77 H62 0.930 1_455 S
C77 N73 1.334 . S
C77 C75 1.390 . S
C78 C75 1.339 . S
C78 C76 1.416 . S
C78 H85 0.930 . S
N79 Tb44 2.572 . S
N79 C80 1.340 . S
N79 C82 1.361 . S
C80 H66 0.930 . S
C80 N79 1.340 . S
C80 C84 1.407 . S
C81 C82 1.413 . S
C81 C83 1.416 . S
C81 C110 1.427 . S
C82 C74 1.424 . S
C82 N79 1.361 . S
C82 C81 1.413 . S
C83 H72 0.931 . S
C83 C81 1.416 . S
C83 C84 1.332 . S
C84 H63 0.929 . S
C84 C80 1.407 . S
C84 C83 1.332 . S
H85 C78 0.930 . S
H86 C109 0.930 . S
H87 C110 0.929 . S
O88 Tb44 2.465 . S
O88 C108 1.264 . S
O89 Tb44 2.387 . S
O89 C100 1.264 . S
O90 Tb55 2.349 1_455 S
O90 C100 1.243 1_545 S
O91 Tb44 2.428 . S
O91 C108 1.256 . S
O92 Tb44 2.308 1_545 S
O92 C107 1.266 . S
O93 Tb55 2.393 1_455 S
O93 C107 1.248 . S
O94 Tb55 2.465 . S
O94 C119 1.264 . S
O95 Tb55 2.387 . S
O95 C111 1.264 . S
O96 Tb44 2.349 1_645 S
O96 C111 1.243 . S
O97 Tb55 2.428 . S
O97 C119 1.256 . S
O98 Tb55 2.308 1_565 S
O98 C118 1.266 . S
O99 Tb44 2.393 1_655 S
O99 C118 1.248 . S
C100 O89 1.264 . S
C100 O90 1.243 1_565 S
C101 C104 1.399 . S
C101 C106 1.383 . S
C101 C108 1.496 . S
C102 C103 1.399 . S
C102 C106 1.389 . S
C103 C102 1.399 . S
C103 C105 1.380 . S
C103 H120 0.929 . S
C104 C101 1.399 . S
C104 C105 1.392 . S
C104 H121 0.929 . S
C105 C103 1.380 . S
C105 C104 1.392 . S
C105 H122 0.929 . S
C106 C101 1.383 . S
C106 C102 1.389 . S
C106 H123 0.931 . S
C107 O92 1.266 . S
C107 O93 1.248 . S
C108 Tb44 2.802 . S
C108 O88 1.264 . S
C108 O91 1.256 . S
C108 C101 1.496 . S
C109 C76 1.448 . S
C109 H86 0.930 . S
C109 C110 1.328 . S
C110 C81 1.427 . S
C110 H87 0.929 . S
C110 C109 1.328 . S
C111 O95 1.264 . S
C111 O96 1.243 . S
C112 C115 1.399 . S
C112 C116 1.383 . S
C112 C119 1.496 . S
C113 C114 1.399 . S
C113 C116 1.389 . S
C114 C113 1.399 . S
C114 C117 1.380 . S
C114 H124 0.929 . S
C115 C112 1.399 . S
C115 C117 1.392 . S
C115 H125 0.929 . S
C116 C112 1.383 . S
C116 C113 1.389 . S
C116 H126 0.931 . S
C117 C114 1.380 . S
C117 C115 1.392 . S
C117 H127 0.929 . S
C118 O98 1.266 . S
C118 O99 1.248 . S
C119 Tb55 2.802 . S
C119 O94 1.264 . S
C119 O97 1.256 . S
C119 C112 1.496 . S
H120 C103 0.929 . S
H121 C104 0.929 . S
H122 C105 0.929 . S
H123 C106 0.931 . S
H124 C114 0.929 . S
H125 C115 0.929 . S
H126 C116 0.931 . S
H127 C117 0.929 . S
Tb128 N157 2.617 . S
Tb128 N163 2.572 1_556 S
Tb128 O172 2.465 . S
Tb128 O173 2.387 1_556 S
Tb128 O175 2.428 . S
Tb128 O176 2.308 1_556 S
Tb128 O180 2.349 . S
Tb128 O183 2.393 . S
Tb128 C192 2.802 . S
C129 N130 1.379 . S
C129 C132 1.416 . S
C129 C136 1.424 . S
N130 C129 1.379 . S
N130 C133 1.334 . S
N130 Tb139 2.617 . S
C131 C133 1.390 . S
C131 C134 1.339 . S
C131 H151 0.930 . S
C132 C129 1.416 . S
C132 C134 1.416 . S
C132 C138 1.448 . S
C133 N130 1.334 . S
C133 C131 1.390 . S
C133 H144 0.930 . S
C134 C131 1.339 . S
C134 C132 1.416 . S
C134 H155 0.930 . S
C135 C136 1.413 . S
C135 C137 1.427 . S
C135 C141 1.416 . S
C136 C129 1.424 . S
C136 C135 1.413 . S
C136 N140 1.361 . S
C137 C135 1.427 . S
C137 C138 1.328 . S
C137 H152 0.929 . S
C138 C132 1.448 . S
C138 C137 1.328 . S
C138 H153 0.930 . S
Tb139 N130 2.617 . S
Tb139 N140 2.572 . S
Tb139 O174 2.349 . S
Tb139 O177 2.393 . S
Tb139 O178 2.465 . S
Tb139 O179 2.387 1_554 S
Tb139 O181 2.428 . S
Tb139 O182 2.308 . S
Tb139 C203 2.802 . S
N140 C136 1.361 . S
N140 Tb139 2.572 . S
N140 C142 1.340 . S
C141 C135 1.416 . S
C141 C143 1.332 . S
C141 H149 0.931 . S
C142 N140 1.340 . S
C142 C143 1.407 . S
C142 H148 0.930 . S
C143 C141 1.332 . S
C143 C142 1.407 . S
C143 H145 0.929 . S
H144 C133 0.930 . S
H145 C143 0.929 . S
H146 C161 0.930 . S
H147 C168 0.929 . S
H148 C142 0.930 . S
H149 C141 0.931 . S
H150 C164 0.930 . S
H151 C131 0.930 . S
H152 C137 0.929 . S
H153 C138 0.930 . S
H154 C159 0.930 . S
H155 C134 0.930 . S
H156 C167 0.931 . S
N157 Tb128 2.617 . S
N157 C158 1.379 1_556 S
N157 C161 1.334 . S
C158 N157 1.379 1_554 S
C158 C160 1.416 . S
C158 C166 1.424 . S
C159 H154 0.930 . S
C159 C161 1.390 . S
C159 C162 1.339 1_556 S
C160 C158 1.416 . S
C160 C162 1.416 . S
C160 C193 1.448 . S
C161 H146 0.930 . S
C161 N157 1.334 . S
C161 C159 1.390 . S
C162 C159 1.339 1_554 S
C162 C160 1.416 . S
C162 H169 0.930 . S
N163 Tb128 2.572 1_554 S
N163 C164 1.340 . S
N163 C166 1.361 . S
C164 H150 0.930 . S
C164 N163 1.340 . S
C164 C168 1.407 . S
C165 C166 1.413 . S
C165 C167 1.416 . S
C165 C194 1.427 . S
C166 C158 1.424 . S
C166 N163 1.361 . S
C166 C165 1.413 . S
C167 H156 0.931 . S
C167 C165 1.416 . S
C167 C168 1.332 . S
C168 H147 0.929 . S
C168 C164 1.407 . S
C168 C167 1.332 . S
H169 C162 0.930 . S
H170 C193 0.930 . S
H171 C194 0.929 . S
O172 Tb128 2.465 . S
O172 C192 1.264 . S
O173 Tb128 2.387 1_554 S
O173 C184 1.264 . S
O174 Tb139 2.349 . S
O174 C184 1.243 . S
O175 Tb128 2.428 . S
O175 C192 1.256 . S
O176 Tb128 2.308 1_554 S
O176 C191 1.266 . S
O177 Tb139 2.393 . S
O177 C191 1.248 . S
O178 Tb139 2.465 . S
O178 C203 1.264 . S
O179 Tb139 2.387 1_556 S
O179 C195 1.264 . S
O180 Tb128 2.349 . S
O180 C195 1.243 . S
O181 Tb139 2.428 . S
O181 C203 1.256 . S
O182 Tb139 2.308 . S
O182 C202 1.266 . S
O183 Tb128 2.393 . S
O183 C202 1.248 1_556 S
C184 O173 1.264 . S
C184 O174 1.243 . S
C185 C188 1.399 . S
C185 C190 1.383 . S
C185 C192 1.496 . S
C186 C187 1.399 . S
C186 C190 1.389 . S
C187 C186 1.399 . S
C187 C189 1.380 . S
C187 H204 0.929 . S
C188 C185 1.399 . S
C188 C189 1.392 . S
C188 H205 0.929 . S
C189 C187 1.380 . S
C189 C188 1.392 . S
C189 H206 0.929 . S
C190 C185 1.383 . S
C190 C186 1.389 . S
C190 H207 0.931 . S
C191 O176 1.266 . S
C191 O177 1.248 . S
C192 Tb128 2.802 . S
C192 O172 1.264 . S
C192 O175 1.256 . S
C192 C185 1.496 . S
C193 C160 1.448 . S
C193 H170 0.930 . S
C193 C194 1.328 . S
C194 C165 1.427 . S
C194 H171 0.929 . S
C194 C193 1.328 . S
C195 O179 1.264 . S
C195 O180 1.243 . S
C196 C199 1.399 . S
C196 C200 1.383 . S
C196 C203 1.496 . S
C197 C198 1.399 . S
C197 C200 1.389 . S
C198 C197 1.399 . S
C198 C201 1.380 . S
C198 H208 0.929 . S
C199 C196 1.399 . S
C199 C201 1.392 . S
C199 H209 0.929 . S
C200 C196 1.383 . S
C200 C197 1.389 . S
C200 H210 0.931 . S
C201 C198 1.380 . S
C201 C199 1.392 . S
C201 H211 0.929 . S
C202 O182 1.266 . S
C202 O183 1.248 1_554 S
C203 Tb139 2.802 . S
C203 O178 1.264 . S
C203 O181 1.256 . S
C203 C196 1.496 . S
H204 C187 0.929 . S
H205 C188 0.929 . S
H206 C189 0.929 . S
H207 C190 0.931 . S
H208 C198 0.929 . S
H209 C199 0.929 . S
H210 C200 0.931 . S
H211 C201 0.929 . S
H212 C218 0.930 . S
H213 C221 0.930 . S
H214 C222 0.930 . S
H215 C223 0.930 . S
H216 C226 0.930 . S
H217 C227 0.930 . S
C218 H212 0.930 . S
C218 C219 1.355 . S
C218 C220 1.415 . S
C219 C218 1.355 . S
C219 C221 1.419 . S
C220 C218 1.415 . S
C220 C225 1.425 . S
C220 C227 1.409 . S
C221 H213 0.930 . S
C221 C219 1.419 . S
C221 C222 1.362 . S
C222 H214 0.930 . S
C222 C221 1.362 . S
C222 C225 1.409 . S
C223 H215 0.930 . S
C223 C224 1.355 . S
C223 C225 1.415 . S
C224 C223 1.355 . S
C224 C226 1.419 . S
C225 C220 1.425 . S
C225 C222 1.409 . S
C225 C223 1.415 . S
C226 H216 0.930 . S
C226 C224 1.419 . S
C226 C227 1.362 . S
C227 H217 0.930 . S
C227 C220 1.409 . S
C227 C226 1.362 . S
H228 C234 0.930 . S
H229 C237 0.931 . S
H230 C238 0.930 . S
H231 C239 0.930 1_556 S
H232 C242 0.930 . S
H233 C243 0.930 . S
C234 H228 0.930 . S
C234 C235 1.355 . S
C234 C236 1.415 . S
C235 C234 1.355 . S
C235 C237 1.417 1_554 S
C236 C234 1.415 . S
C236 C241 1.425 . S
C236 C243 1.409 . S
C237 H229 0.931 . S
C237 C235 1.417 1_556 S
C237 C238 1.364 . S
C238 H230 0.930 . S
C238 C237 1.364 . S
C238 C241 1.409 1_556 S
C239 H231 0.930 1_554 S
C239 C240 1.355 . S
C239 C241 1.415 . S
C240 C239 1.355 . S
C240 C242 1.419 . S
C241 C236 1.425 . S
C241 C238 1.409 1_554 S
C241 C239 1.415 . S
C242 H232 0.930 . S
C242 C240 1.419 . S
C242 C243 1.362 . S
C243 H233 0.930 . S
C243 C236 1.409 . S
C243 C242 1.362 . S
H244 C250 0.930 . S
H245 C253 0.930 . S
H246 C254 0.930 . S
H247 C255 0.930 . S
H248 C258 0.930 . S
H249 C259 0.930 . S
C250 H244 0.930 . S
C250 C251 1.355 . S
C250 C252 1.415 . S
C251 C250 1.355 . S
C251 C253 1.419 . S
C252 C250 1.415 . S
C252 C257 1.425 . S
C252 C259 1.409 . S
C253 H245 0.930 . S
C253 C251 1.419 . S
C253 C254 1.362 . S
C254 H246 0.930 . S
C254 C253 1.362 . S
C254 C257 1.409 . S
C255 H247 0.930 . S
C255 C256 1.355 . S
C255 C257 1.415 . S
C256 C255 1.355 . S
C256 C258 1.419 . S
C257 C252 1.425 . S
C257 C254 1.409 . S
C257 C255 1.415 . S
C258 H248 0.930 . S
C258 C256 1.419 . S
C258 C259 1.362 . S
C259 H249 0.930 . S
C259 C252 1.409 . S
C259 C258 1.362 . S
H260 C266 0.930 . S
H261 C269 0.930 . S
H262 C270 0.930 . S
H263 C271 0.930 . S
H264 C274 0.930 . S
H265 C275 0.930 . S
C266 H260 0.930 . S
C266 C267 1.355 . S
C266 C268 1.415 . S
C267 C266 1.355 . S
C267 C269 1.419 . S
C268 C266 1.415 . S
C268 C273 1.425 . S
C268 C275 1.409 . S
C269 H261 0.930 . S
C269 C267 1.419 . S
C269 C270 1.362 . S
C270 H262 0.930 . S
C270 C269 1.362 . S
C270 C273 1.409 . S
C271 H263 0.930 . S
C271 C272 1.355 . S
C271 C273 1.415 . S
C272 C271 1.355 . S
C272 C274 1.419 . S
C273 C268 1.425 . S
C273 C270 1.409 . S
C273 C271 1.415 . S
C274 H264 0.930 . S
C274 C272 1.419 . S
C274 C275 1.362 . S
C275 H265 0.930 . S
C275 C268 1.409 . S
C275 C274 1.362 . S
H276 C282 0.930 . S
H277 C285 0.930 . S
H278 C286 0.930 . S
H279 C287 0.930 . S
H280 C290 0.930 . S
H281 C291 0.930 . S
C282 H276 0.930 . S
C282 C283 1.355 . S
C282 C284 1.415 . S
C283 C282 1.355 . S
C283 C285 1.419 . S
C284 C282 1.415 . S
C284 C289 1.425 . S
C284 C291 1.409 . S
C285 H277 0.930 . S
C285 C283 1.419 . S
C285 C286 1.362 . S
C286 H278 0.930 . S
C286 C285 1.362 . S
C286 C289 1.409 . S
C287 H279 0.930 . S
C287 C288 1.355 . S
C287 C289 1.415 . S
C288 C287 1.355 . S
C288 C290 1.419 . S
C289 C284 1.425 . S
C289 C286 1.409 . S
C289 C287 1.415 . S
C290 H280 0.930 . S
C290 C288 1.419 . S
C290 C291 1.362 . S
C291 H281 0.930 . S
C291 C284 1.409 . S
C291 C290 1.362 . S
H292 C298 0.930 . S
H293 C301 0.930 . S
H294 C302 0.930 . S
H295 C303 0.930 . S
H296 C306 0.930 . S
H297 C307 0.930 . S
C298 H292 0.930 . S
C298 C299 1.355 . S
C298 C300 1.415 . S
C299 C298 1.355 . S
C299 C301 1.419 . S
C300 C298 1.415 . S
C300 C305 1.425 . S
C300 C307 1.409 . S
C301 H293 0.930 . S
C301 C299 1.419 . S
C301 C302 1.362 . S
C302 H294 0.930 . S
C302 C301 1.362 . S
C302 C305 1.409 . S
C303 H295 0.930 . S
C303 C304 1.355 . S
C303 C305 1.415 . S
C304 C303 1.355 . S
C304 C306 1.419 . S
C305 C300 1.425 . S
C305 C302 1.409 . S
C305 C303 1.415 . S
C306 H296 0.930 . S
C306 C304 1.419 . S
C306 C307 1.362 . S
C307 H297 0.930 . S
C307 C300 1.409 . S
C307 C306 1.362 . S
H308 C314 0.930 . S
H309 C317 0.930 . S
H310 C318 0.930 . S
H311 C319 0.930 . S
H312 C322 0.930 . S
H313 C323 0.930 . S
C314 H308 0.930 . S
C314 C315 1.355 . S
C314 C316 1.415 . S
C315 C314 1.355 . S
C315 C317 1.419 . S
C316 C314 1.415 . S
C316 C321 1.425 . S
C316 C323 1.409 . S
C317 H309 0.930 . S
C317 C315 1.419 . S
C317 C318 1.362 . S
C318 H310 0.930 . S
C318 C317 1.362 . S
C318 C321 1.409 . S
C319 H311 0.930 . S
C319 C320 1.355 . S
C319 C321 1.415 . S
C320 C319 1.355 . S
C320 C322 1.419 . S
C321 C316 1.425 . S
C321 C318 1.409 . S
C321 C319 1.415 . S
C322 H312 0.930 . S
C322 C320 1.419 . S
C322 C323 1.362 . S
C323 H313 0.930 . S
C323 C316 1.409 . S
C323 C322 1.362 . S
H324 C330 0.930 . S
H325 C333 0.930 . S
H326 C334 0.930 . S
H327 C335 0.930 . S
H328 C338 0.930 . S
H329 C339 0.930 . S
C330 H324 0.930 . S
C330 C331 1.355 . S
C330 C332 1.415 . S
C331 C330 1.355 . S
C331 C333 1.419 . S
C332 C330 1.415 . S
C332 C337 1.425 . S
C332 C339 1.409 . S
C333 H325 0.930 . S
C333 C331 1.419 . S
C333 C334 1.362 . S
C334 H326 0.930 . S
C334 C333 1.362 . S
C334 C337 1.409 . S
C335 H327 0.930 . S
C335 C336 1.355 . S
C335 C337 1.415 . S
C336 C335 1.355 . S
C336 C338 1.419 . S
C337 C332 1.425 . S
C337 C334 1.409 . S
C337 C335 1.415 . S
C338 H328 0.930 . S
C338 C336 1.419 . S
C338 C339 1.362 . S
C339 H329 0.930 . S
C339 C332 1.409 . S
C339 C338 1.362 . S
H340 C346 0.930 . S
H341 C349 0.930 . S
H342 C350 0.930 . S
H343 C351 0.930 . S
H344 C354 0.930 . S
H345 C355 0.930 . S
C346 H340 0.930 . S
C346 C347 1.355 . S
C346 C348 1.415 . S
C347 C346 1.355 . S
C347 C349 1.419 . S
C348 C346 1.415 . S
C348 C353 1.425 . S
C348 C355 1.409 . S
C349 H341 0.930 . S
C349 C347 1.419 . S
C349 C350 1.362 . S
C350 H342 0.930 . S
C350 C349 1.362 . S
C350 C353 1.409 . S
C351 H343 0.930 . S
C351 C352 1.355 . S
C351 C353 1.415 . S
C352 C351 1.355 . S
C352 C354 1.419 . S
C353 C348 1.425 . S
C353 C350 1.409 . S
C353 C351 1.415 . S
C354 H344 0.930 . S
C354 C352 1.419 . S
C354 C355 1.362 . S
C355 H345 0.930 . S
C355 C348 1.409 . S
C355 C354 1.362 . S
H356 C362 0.930 . S
H357 C365 0.930 . S
H358 C366 0.930 . S
H359 C367 0.930 . S
H360 C370 0.930 1_565 S
H361 C371 0.933 . S
C362 H356 0.930 . S
C362 C363 1.355 . S
C362 C364 1.415 . S
C363 C362 1.355 . S
C363 C365 1.419 . S
C364 C362 1.415 . S
C364 C369 1.425 . S
C364 C371 1.409 . S
C365 H357 0.930 . S
C365 C363 1.419 . S
C365 C366 1.362 . S
C366 H358 0.930 . S
C366 C365 1.362 . S
C366 C369 1.409 . S
C367 H359 0.930 . S
C367 C368 1.355 . S
C367 C369 1.415 . S
C368 C367 1.355 . S
C368 C370 1.419 . S
C369 C364 1.425 . S
C369 C366 1.409 . S
C369 C367 1.415 . S
C370 H360 0.930 1_545 S
C370 C368 1.419 . S
C370 C371 1.362 . S
C371 H361 0.933 . S
C371 C364 1.409 . S
C371 C370 1.362 . S
H372 C378 0.930 . S
H373 C381 0.930 . S
H374 C382 0.930 . S
H375 C383 0.930 . S
H376 C386 0.930 . S
H377 C387 0.930 . S
C378 H372 0.930 . S
C378 C379 1.355 . S
C378 C380 1.415 . S
C379 C378 1.355 . S
C379 C381 1.419 . S
C380 C378 1.415 . S
C380 C385 1.425 . S
C380 C387 1.409 . S
C381 H373 0.930 . S
C381 C379 1.419 . S
C381 C382 1.362 . S
C382 H374 0.930 . S
C382 C381 1.362 . S
C382 C385 1.409 . S
C383 H375 0.930 . S
C383 C384 1.355 . S
C383 C385 1.415 . S
C384 C383 1.355 . S
C384 C386 1.419 . S
C385 C380 1.425 . S
C385 C382 1.409 . S
C385 C383 1.415 . S
C386 H376 0.930 . S
C386 C384 1.419 . S
C386 C387 1.362 . S
C387 H377 0.930 . S
C387 C380 1.409 . S
C387 C386 1.362 . S
H388 C394 0.930 . S
H389 C397 0.930 . S
H390 C398 0.930 . S
H391 C399 0.930 . S
H392 C402 0.930 . S
H393 C403 0.930 . S
C394 H388 0.930 . S
C394 C395 1.355 . S
C394 C396 1.415 . S
C395 C394 1.355 . S
C395 C397 1.419 . S
C396 C394 1.415 . S
C396 C401 1.425 . S
C396 C403 1.409 . S
C397 H389 0.930 . S
C397 C395 1.419 . S
C397 C398 1.362 . S
C398 H390 0.930 . S
C398 C397 1.362 . S
C398 C401 1.409 . S
C399 H391 0.930 . S
C399 C400 1.355 . S
C399 C401 1.415 . S
C400 C399 1.355 . S
C400 C402 1.419 . S
C401 C396 1.425 . S
C401 C398 1.409 . S
C401 C399 1.415 . S
C402 H392 0.930 . S
C402 C400 1.419 . S
C402 C403 1.362 . S
C403 H393 0.930 . S
C403 C396 1.409 . S
C403 C402 1.362 . S
C224 C107 1.625 . S
C219 C41 1.585 . S
C235 C8 1.621 . S
C240 C202 1.631 . S
C251 C19 1.750 . S
C256 C118 1.747 . S
C267 C30 1.618 . S
C272 C191 1.602 . S
C288 C102 1.507 . S
C283 C5 1.515 . S
C304 C195 1.796 . S
C299 C18 1.717 . S
C315 C29 1.596 . S
C320 C111 1.703 . S
C331 C40 1.612 . S
C336 C186 1.456 . S
C352 C197 1.375 . S
C347 C16 1.348 . S
C368 C113 1.409 . S
C363 C27 1.218 1_556 S
C384 C184 1.531 . S
C379 C38 1.347 . S
C395 C7 1.453 . S
C400 C100 1.513 . S
