# Generated by pormake.
# Topology gar, (4,6)-cn, num edge types: 1
# Building blocks:
#     Node 0, Type 0, BuildingBlock: AZAVOO_clean_sbu_0, # of connection points: 4
#     Node 1, Type 0, BuildingBlock: AZAVOO_clean_sbu_0, # of connection points: 4
#     Node 2, Type 0, BuildingBlock: AZAVOO_clean_sbu_0, # of connection points: 4
#     Node 3, Type 0, BuildingBlock: AZAVOO_clean_sbu_0, # of connection points: 4
#     Node 4, Type 0, BuildingBlock: AZAVOO_clean_sbu_0, # of connection points: 4
#     Node 5, Type 0, BuildingBlock: AZAVOO_clean_sbu_0, # of connection points: 4
#     Node 6, Type 0, BuildingBlock: AZAVOO_clean_sbu_0, # of connection points: 4
#     Node 7, Type 0, BuildingBlock: AZAVOO_clean_sbu_0, # of connection points: 4
#     Node 8, Type 0, BuildingBlock: AZAVOO_clean_sbu_0, # of connection points: 4
#     Node 9, Type 0, BuildingBlock: AZAVOO_clean_sbu_0, # of connection points: 4
#     Node 10, Type 0, BuildingBlock: AZAVOO_clean_sbu_0, # of connection points: 4
#     Node 11, Type 0, BuildingBlock: AZAVOO_clean_sbu_0, # of connection points: 4
#     Node 12, Type 0, BuildingBlock: AZAVOO_clean_sbu_0, # of connection points: 4
#     Node 13, Type 0, BuildingBlock: AZAVOO_clean_sbu_0, # of connection points: 4
#     Node 14, Type 0, BuildingBlock: AZAVOO_clean_sbu_0, # of connection points: 4
#     Node 15, Type 0, BuildingBlock: AZAVOO_clean_sbu_0, # of connection points: 4
#     Node 16, Type 0, BuildingBlock: AZAVOO_clean_sbu_0, # of connection points: 4
#     Node 17, Type 0, BuildingBlock: AZAVOO_clean_sbu_0, # of connection points: 4
#     Node 18, Type 0, BuildingBlock: AZAVOO_clean_sbu_0, # of connection points: 4
#     Node 19, Type 0, BuildingBlock: AZAVOO_clean_sbu_0, # of connection points: 4
#     Node 20, Type 0, BuildingBlock: AZAVOO_clean_sbu_0, # of connection points: 4
#     Node 21, Type 0, BuildingBlock: AZAVOO_clean_sbu_0, # of connection points: 4
#     Node 22, Type 0, BuildingBlock: AZAVOO_clean_sbu_0, # of connection points: 4
#     Node 23, Type 0, BuildingBlock: AZAVOO_clean_sbu_0, # of connection points: 4
#     Node 24, Type 1, BuildingBlock: BETDIP_clean_sbu_0, # of connection points: 6
#     Node 25, Type 1, BuildingBlock: BETDIP_clean_sbu_0, # of connection points: 6
#     Node 26, Type 1, BuildingBlock: BETDIP_clean_sbu_0, # of connection points: 6
#     Node 27, Type 1, BuildingBlock: BETDIP_clean_sbu_0, # of connection points: 6
#     Node 28, Type 1, BuildingBlock: BETDIP_clean_sbu_0, # of connection points: 6
#     Node 29, Type 1, BuildingBlock: BETDIP_clean_sbu_0, # of connection points: 6
#     Node 30, Type 1, BuildingBlock: BETDIP_clean_sbu_0, # of connection points: 6
#     Node 31, Type 1, BuildingBlock: BETDIP_clean_sbu_0, # of connection points: 6
#     Node 32, Type 1, BuildingBlock: BETDIP_clean_sbu_0, # of connection points: 6
#     Node 33, Type 1, BuildingBlock: BETDIP_clean_sbu_0, # of connection points: 6
#     Node 34, Type 1, BuildingBlock: BETDIP_clean_sbu_0, # of connection points: 6
#     Node 35, Type 1, BuildingBlock: BETDIP_clean_sbu_0, # of connection points: 6
#     Node 36, Type 1, BuildingBlock: BETDIP_clean_sbu_0, # of connection points: 6
#     Node 37, Type 1, BuildingBlock: BETDIP_clean_sbu_0, # of connection points: 6
#     Node 38, Type 1, BuildingBlock: BETDIP_clean_sbu_0, # of connection points: 6
#     Node 39, Type 1, BuildingBlock: BETDIP_clean_sbu_0, # of connection points: 6
#     Edge 40, Type (0, 1), BuildingBlock: OJICUG_clean_linker_0, # of connection points: 2
#     Edge 41, Type (0, 1), BuildingBlock: OJICUG_clean_linker_0, # of connection points: 2
#     Edge 42, Type (0, 1), BuildingBlock: OJICUG_clean_linker_0, # of connection points: 2
#     Edge 43, Type (0, 1), BuildingBlock: OJICUG_clean_linker_0, # of connection points: 2
#     Edge 44, Type (0, 1), BuildingBlock: OJICUG_clean_linker_0, # of connection points: 2
#     Edge 45, Type (0, 1), BuildingBlock: OJICUG_clean_linker_0, # of connection points: 2
#     Edge 46, Type (0, 1), BuildingBlock: OJICUG_clean_linker_0, # of connection points: 2
#     Edge 47, Type (0, 1), BuildingBlock: OJICUG_clean_linker_0, # of connection points: 2
#     Edge 48, Type (0, 1), BuildingBlock: OJICUG_clean_linker_0, # of connection points: 2
#     Edge 49, Type (0, 1), BuildingBlock: OJICUG_clean_linker_0, # of connection points: 2
#     Edge 50, Type (0, 1), BuildingBlock: OJICUG_clean_linker_0, # of connection points: 2
#     Edge 51, Type (0, 1), BuildingBlock: OJICUG_clean_linker_0, # of connection points: 2
#     Edge 52, Type (0, 1), BuildingBlock: OJICUG_clean_linker_0, # of connection points: 2
#     Edge 53, Type (0, 1), BuildingBlock: OJICUG_clean_linker_0, # of connection points: 2
#     Edge 54, Type (0, 1), BuildingBlock: OJICUG_clean_linker_0, # of connection points: 2
#     Edge 55, Type (0, 1), BuildingBlock: OJICUG_clean_linker_0, # of connection points: 2
#     Edge 56, Type (0, 1), BuildingBlock: OJICUG_clean_linker_0, # of connection points: 2
#     Edge 57, Type (0, 1), BuildingBlock: OJICUG_clean_linker_0, # of connection points: 2
#     Edge 58, Type (0, 1), BuildingBlock: OJICUG_clean_linker_0, # of connection points: 2
#     Edge 59, Type (0, 1), BuildingBlock: OJICUG_clean_linker_0, # of connection points: 2
#     Edge 60, Type (0, 1), BuildingBlock: OJICUG_clean_linker_0, # of connection points: 2
#     Edge 61, Type (0, 1), BuildingBlock: OJICUG_clean_linker_0, # of connection points: 2
#     Edge 62, Type (0, 1), BuildingBlock: OJICUG_clean_linker_0, # of connection points: 2
#     Edge 63, Type (0, 1), BuildingBlock: OJICUG_clean_linker_0, # of connection points: 2
#     Edge 64, Type (0, 1), BuildingBlock: OJICUG_clean_linker_0, # of connection points: 2
#     Edge 65, Type (0, 1), BuildingBlock: OJICUG_clean_linker_0, # of connection points: 2
#     Edge 66, Type (0, 1), BuildingBlock: OJICUG_clean_linker_0, # of connection points: 2
#     Edge 67, Type (0, 1), BuildingBlock: OJICUG_clean_linker_0, # of connection points: 2
#     Edge 68, Type (0, 1), BuildingBlock: OJICUG_clean_linker_0, # of connection points: 2
#     Edge 69, Type (0, 1), BuildingBlock: OJICUG_clean_linker_0, # of connection points: 2
#     Edge 70, Type (0, 1), BuildingBlock: OJICUG_clean_linker_0, # of connection points: 2
#     Edge 71, Type (0, 1), BuildingBlock: OJICUG_clean_linker_0, # of connection points: 2
#     Edge 72, Type (0, 1), BuildingBlock: OJICUG_clean_linker_0, # of connection points: 2
#     Edge 73, Type (0, 1), BuildingBlock: OJICUG_clean_linker_0, # of connection points: 2
#     Edge 74, Type (0, 1), BuildingBlock: OJICUG_clean_linker_0, # of connection points: 2
#     Edge 75, Type (0, 1), BuildingBlock: OJICUG_clean_linker_0, # of connection points: 2
#     Edge 76, Type (0, 1), BuildingBlock: OJICUG_clean_linker_0, # of connection points: 2
#     Edge 77, Type (0, 1), BuildingBlock: OJICUG_clean_linker_0, # of connection points: 2
#     Edge 78, Type (0, 1), BuildingBlock: OJICUG_clean_linker_0, # of connection points: 2
#     Edge 79, Type (0, 1), BuildingBlock: OJICUG_clean_linker_0, # of connection points: 2
#     Edge 80, Type (0, 1), BuildingBlock: OJICUG_clean_linker_0, # of connection points: 2
#     Edge 81, Type (0, 1), BuildingBlock: OJICUG_clean_linker_0, # of connection points: 2
#     Edge 82, Type (0, 1), BuildingBlock: OJICUG_clean_linker_0, # of connection points: 2
#     Edge 83, Type (0, 1), BuildingBlock: OJICUG_clean_linker_0, # of connection points: 2
#     Edge 84, Type (0, 1), BuildingBlock: OJICUG_clean_linker_0, # of connection points: 2
#     Edge 85, Type (0, 1), BuildingBlock: OJICUG_clean_linker_0, # of connection points: 2
#     Edge 86, Type (0, 1), BuildingBlock: OJICUG_clean_linker_0, # of connection points: 2
#     Edge 87, Type (0, 1), BuildingBlock: OJICUG_clean_linker_0, # of connection points: 2
#     Edge 88, Type (0, 1), BuildingBlock: OJICUG_clean_linker_0, # of connection points: 2
#     Edge 89, Type (0, 1), BuildingBlock: OJICUG_clean_linker_0, # of connection points: 2
#     Edge 90, Type (0, 1), BuildingBlock: OJICUG_clean_linker_0, # of connection points: 2
#     Edge 91, Type (0, 1), BuildingBlock: OJICUG_clean_linker_0, # of connection points: 2
#     Edge 92, Type (0, 1), BuildingBlock: OJICUG_clean_linker_0, # of connection points: 2
#     Edge 93, Type (0, 1), BuildingBlock: OJICUG_clean_linker_0, # of connection points: 2
#     Edge 94, Type (0, 1), BuildingBlock: OJICUG_clean_linker_0, # of connection points: 2
#     Edge 95, Type (0, 1), BuildingBlock: OJICUG_clean_linker_0, # of connection points: 2
#     Edge 96, Type (0, 1), BuildingBlock: OJICUG_clean_linker_0, # of connection points: 2
#     Edge 97, Type (0, 1), BuildingBlock: OJICUG_clean_linker_0, # of connection points: 2
#     Edge 98, Type (0, 1), BuildingBlock: OJICUG_clean_linker_0, # of connection points: 2
#     Edge 99, Type (0, 1), BuildingBlock: OJICUG_clean_linker_0, # of connection points: 2
#     Edge 100, Type (0, 1), BuildingBlock: OJICUG_clean_linker_0, # of connection points: 2
#     Edge 101, Type (0, 1), BuildingBlock: OJICUG_clean_linker_0, # of connection points: 2
#     Edge 102, Type (0, 1), BuildingBlock: OJICUG_clean_linker_0, # of connection points: 2
#     Edge 103, Type (0, 1), BuildingBlock: OJICUG_clean_linker_0, # of connection points: 2
#     Edge 104, Type (0, 1), BuildingBlock: OJICUG_clean_linker_0, # of connection points: 2
#     Edge 105, Type (0, 1), BuildingBlock: OJICUG_clean_linker_0, # of connection points: 2
#     Edge 106, Type (0, 1), BuildingBlock: OJICUG_clean_linker_0, # of connection points: 2
#     Edge 107, Type (0, 1), BuildingBlock: OJICUG_clean_linker_0, # of connection points: 2
#     Edge 108, Type (0, 1), BuildingBlock: OJICUG_clean_linker_0, # of connection points: 2
#     Edge 109, Type (0, 1), BuildingBlock: OJICUG_clean_linker_0, # of connection points: 2
#     Edge 110, Type (0, 1), BuildingBlock: OJICUG_clean_linker_0, # of connection points: 2
#     Edge 111, Type (0, 1), BuildingBlock: OJICUG_clean_linker_0, # of connection points: 2
#     Edge 112, Type (0, 1), BuildingBlock: OJICUG_clean_linker_0, # of connection points: 2
#     Edge 113, Type (0, 1), BuildingBlock: OJICUG_clean_linker_0, # of connection points: 2
#     Edge 114, Type (0, 1), BuildingBlock: OJICUG_clean_linker_0, # of connection points: 2
#     Edge 115, Type (0, 1), BuildingBlock: OJICUG_clean_linker_0, # of connection points: 2
#     Edge 116, Type (0, 1), BuildingBlock: OJICUG_clean_linker_0, # of connection points: 2
#     Edge 117, Type (0, 1), BuildingBlock: OJICUG_clean_linker_0, # of connection points: 2
#     Edge 118, Type (0, 1), BuildingBlock: OJICUG_clean_linker_0, # of connection points: 2
#     Edge 119, Type (0, 1), BuildingBlock: OJICUG_clean_linker_0, # of connection points: 2
#     Edge 120, Type (0, 1), BuildingBlock: OJICUG_clean_linker_0, # of connection points: 2
#     Edge 121, Type (0, 1), BuildingBlock: OJICUG_clean_linker_0, # of connection points: 2
#     Edge 122, Type (0, 1), BuildingBlock: OJICUG_clean_linker_0, # of connection points: 2
#     Edge 123, Type (0, 1), BuildingBlock: OJICUG_clean_linker_0, # of connection points: 2
#     Edge 124, Type (0, 1), BuildingBlock: OJICUG_clean_linker_0, # of connection points: 2
#     Edge 125, Type (0, 1), BuildingBlock: OJICUG_clean_linker_0, # of connection points: 2
#     Edge 126, Type (0, 1), BuildingBlock: OJICUG_clean_linker_0, # of connection points: 2
#     Edge 127, Type (0, 1), BuildingBlock: OJICUG_clean_linker_0, # of connection points: 2
#     Edge 128, Type (0, 1), BuildingBlock: OJICUG_clean_linker_0, # of connection points: 2
#     Edge 129, Type (0, 1), BuildingBlock: OJICUG_clean_linker_0, # of connection points: 2
#     Edge 130, Type (0, 1), BuildingBlock: OJICUG_clean_linker_0, # of connection points: 2
#     Edge 131, Type (0, 1), BuildingBlock: OJICUG_clean_linker_0, # of connection points: 2
#     Edge 132, Type (0, 1), BuildingBlock: OJICUG_clean_linker_0, # of connection points: 2
#     Edge 133, Type (0, 1), BuildingBlock: OJICUG_clean_linker_0, # of connection points: 2
#     Edge 134, Type (0, 1), BuildingBlock: OJICUG_clean_linker_0, # of connection points: 2
#     Edge 135, Type (0, 1), BuildingBlock: OJICUG_clean_linker_0, # of connection points: 2
# Relax obj value: 0.279
# Max RMSD: 0.386
# Mean RMSD: 0.205
data_MOF--net-gar--node1-AZAVOO_clean_sbu_0--node2-BETDIP_clean_sbu_0--edge1-OJICUG_clean_linker_0
_symmetry_space_group_name_H-M    P1
_symmetry_Int_Tables_number       1
_symmetry_cell_setting            triclinic
loop_
_symmetry_equiv_pos_as_xyz
'x, y, z'
_cell_length_a     49.632623
_cell_length_b     40.593285
_cell_length_c     39.427592
_cell_angle_alpha  101.49677
_cell_angle_beta   99.793701
_cell_angle_gamma 103.54056
loop_
_atom_site_label
_atom_site_type_symbol
_atom_site_fract_x
_atom_site_fract_y
_atom_site_fract_z
_atom_type_partial_charge
Mg0 Mg 1.02029 0.33659 0.41309 0.0
O1 O 1.02085 0.38181 0.45927 0.0
O2 O 0.98732 0.36011 0.48667 0.0
Mg3 Mg 0.96276 0.30398 0.45489 0.0
C4 C 1.00754 0.38504 0.4843 0.0
C5 C 0.06772 0.35532 0.37579 0.0
O6 O 0.04515 0.34108 0.3495 0.0
O7 O 0.03985 0.31149 0.45307 0.0
O8 O 1.00256 0.28682 0.47339 0.0
O9 O 0.98976 0.35177 0.37553 0.0
O10 O 0.97772 0.31446 0.40802 0.0
C11 C 0.0287 0.29242 0.47182 0.0
C12 C 0.97007 0.33115 0.38536 0.0
O13 O 0.0642 0.36237 0.40733 0.0
Mg14 Mg 0.09661 0.83663 0.7659 0.0
O15 O 0.09794 0.77992 0.75986 0.0
O16 O 0.0537 0.74682 0.73366 0.0
Mg17 Mg 1.02284 0.78037 0.73489 0.0
C18 C 0.08021 0.75037 0.74403 0.0
C19 C 0.15451 0.83541 0.74624 0.0
O20 O 0.13677 0.80991 0.72071 0.0
O21 O 0.08667 0.82455 0.70566 0.0
O22 O 0.04039 0.79502 0.68823 0.0
O23 O 0.08803 0.84527 0.82181 0.0
O24 O 0.05551 0.82496 0.77187 0.0
C25 C 0.06408 0.8091 0.68139 0.0
C26 C 0.06135 0.83495 0.8058 0.0
O27 O 0.1448 0.85246 0.76974 0.0
Mg28 Mg 0.5403 0.85584 0.92835 0.0
O29 O 0.54884 0.89388 0.98274 0.0
O30 O 0.51625 0.87295 1.01165 0.0
Mg31 Mg 0.48608 0.82184 0.97433 0.0
C32 C 0.5384 0.89584 1.01033 0.0
C33 C 0.58469 0.87493 0.88711 0.0
O34 O 0.5607 0.86446 0.86284 0.0
O35 O 0.5588 0.82066 0.95656 0.0
O36 O 0.52362 0.7979 0.98116 0.0
O37 O 0.51122 0.88262 0.9035 0.0
O38 O 0.49804 0.83898 0.92844 0.0
C39 C 0.54819 0.80021 0.9744 0.0
C40 C 0.4913 0.86169 0.91267 0.0
O41 O 0.58353 0.87947 0.91958 0.0
Mg42 Mg 0.58268 0.31608 0.26847 0.0
O43 O 0.55995 0.26154 0.23387 0.0
O44 O 0.51986 0.2618 0.19828 0.0
Mg45 Mg 0.51379 0.31574 0.21763 0.0
C46 C 0.53856 0.24663 0.20788 0.0
C47 C 0.63093 0.28603 0.24876 0.0
O48 O 0.61133 0.27077 0.21935 0.0
O49 O 0.59195 0.33105 0.21925 0.0
O50 O 0.54959 0.33125 0.18909 0.0
O51 O 0.56292 0.30681 0.31366 0.0
O52 O 0.54454 0.32608 0.26889 0.0
C53 C 0.5762 0.3345 0.19201 0.0
C54 C 0.54248 0.31735 0.29816 0.0
O55 O 0.62455 0.30296 0.27562 0.0
Mg56 Mg 0.1083 0.86833 0.23584 0.0
O57 O 0.09788 0.81378 0.19692 0.0
O58 O 0.05287 0.80073 0.16702 0.0
Mg59 Mg 0.03447 0.84626 0.18476 0.0
C60 C 0.07621 0.79272 0.17412 0.0
C61 C 0.16215 0.84244 0.25573 0.0
O62 O 0.14159 0.81394 0.25175 0.0
O63 O 0.11227 0.89872 0.19183 0.0
O64 O 0.06613 0.88487 0.16533 0.0
O65 O 0.09028 0.84326 0.27621 0.0
O66 O 0.06495 0.86164 0.23636 0.0
C67 C 0.09205 0.90167 0.16865 0.0
C68 C 0.06588 0.84671 0.2622 0.0
O69 O 0.15571 0.86961 0.24942 0.0
Mg70 Mg 0.51021 0.78286 0.47945 0.0
O71 O 0.52248 0.83543 0.52089 0.0
O72 O 0.48866 0.83343 0.55183 0.0
Mg73 Mg 0.45547 0.7795 0.53121 0.0
C74 C 0.51158 0.84982 0.54487 0.0
C75 C 0.5641 0.81437 0.44976 0.0
O76 O 0.5463 0.82967 0.43511 0.0
O77 O 0.52309 0.75341 0.52128 0.0
O78 O 0.48694 0.74831 0.54853 0.0
O79 O 0.48431 0.80617 0.44281 0.0
O80 O 0.46645 0.77692 0.47897 0.0
C81 C 0.5101 0.74157 0.5436 0.0
C82 C 0.4629 0.79537 0.45637 0.0
O83 O 0.55582 0.79447 0.46939 0.0
Mg84 Mg 0.60436 0.36351 0.74441 0.0
O85 O 0.59597 0.31038 0.70334 0.0
O86 O 0.55173 0.29816 0.67109 0.0
Mg87 Mg 0.53171 0.34173 0.68985 0.0
C88 C 0.57505 0.29018 0.67871 0.0
C89 C 0.65938 0.34027 0.76672 0.0
O90 O 0.63968 0.31038 0.7599 0.0
O91 O 0.6095 0.39651 0.70282 0.0
O92 O 0.56392 0.38278 0.67386 0.0
O93 O 0.58512 0.33564 0.78215 0.0
O94 O 0.56061 0.35493 0.74234 0.0
C95 C 0.58994 0.40019 0.67924 0.0
C96 C 0.56084 0.33884 0.7673 0.0
O97 O 0.65204 0.36709 0.76096 0.0
Mg98 Mg 1.00822 0.28569 0.97882 0.0
O99 O 1.02122 0.33824 0.0203 0.0
O100 O 0.98829 0.33603 0.05246 0.0
Mg101 Mg 0.95451 0.28253 0.03152 0.0
C102 C 1.01099 0.35243 0.0451 0.0
C103 C 0.06141 0.3176 0.94928 0.0
O104 O 0.04359 0.33323 0.93525 0.0
O105 O 1.02147 0.25643 0.02017 0.0
O106 O 0.98594 0.25119 0.04843 0.0
O107 O 0.98246 0.30901 0.94254 0.0
O108 O 0.96463 0.27948 0.97866 0.0
C109 C 1.00902 0.24461 0.04287 0.0
C110 C 0.96104 0.2978 0.95592 0.0
O111 O 0.05328 0.29722 0.96848 0.0
Mg112 Mg 0.4507 0.11119 0.35776 0.0
O113 O 0.41545 0.05557 0.35149 0.0
O114 O 0.3998 0.06586 0.40136 0.0
Mg115 Mg 0.42095 0.12141 0.43789 0.0
C116 C 0.39982 0.04487 0.37244 0.0
C117 C 0.4885 0.0988 0.29669 0.0
O118 O 0.50681 0.10867 0.32755 0.0
O119 O 0.41737 0.14898 0.34939 0.0
O120 O 0.40262 0.15364 0.40012 0.0
O121 O 0.48385 0.09024 0.38868 0.0
O122 O 0.45972 0.11957 0.41698 0.0
C123 C 0.40283 0.16211 0.37051 0.0
C124 C 0.47841 0.10211 0.41883 0.0
O125 O 0.46215 0.09688 0.29763 0.0
Mg126 Mg 0.27746 0.1907 0.57489 0.0
O127 O 0.28818 0.22701 0.6317 0.0
O128 O 0.33365 0.2578 0.64265 0.0
Mg129 Mg 0.35182 0.24355 0.59386 0.0
C130 C 0.31029 0.24947 0.65248 0.0
C131 C 0.21927 0.14119 0.56556 0.0
O132 O 0.23487 0.12258 0.55158 0.0
O133 O 0.27476 0.23523 0.54636 0.0
O134 O 0.32112 0.26377 0.55826 0.0
O135 O 0.29456 0.15109 0.59742 0.0
O136 O 0.32048 0.19196 0.57789 0.0
C137 C 0.29523 0.25957 0.54315 0.0
C138 C 0.31903 0.16602 0.59227 0.0
O139 O 0.23008 0.17416 0.57707 0.0
Mg140 Mg 0.16673 0.09285 0.8978 0.0
O141 O 0.19304 0.15041 0.90834 0.0
O142 O 0.22116 0.16296 0.96241 0.0
Mg143 Mg 0.20875 0.11795 0.98894 0.0
C144 C 0.21363 0.17095 0.93317 0.0
C145 C 0.1416 0.06061 0.8171 0.0
O146 O 0.13401 1.03279 0.82927 0.0
O147 O 0.20732 0.07827 0.89378 0.0
O148 O 0.23089 0.08939 0.9504 0.0
O149 O 0.13011 0.1049 0.91875 0.0
O150 O 0.16728 0.09587 0.95096 0.0
C151 C 0.22858 0.07815 0.91701 0.0
C152 C 0.14273 0.10167 0.94902 0.0
O153 O 0.15569 0.08961 0.83883 0.0
Mg154 Mg 0.25221 0.88904 0.05561 0.0
O155 O 0.26846 0.89392 1.00396 0.0
O156 O 0.30651 0.87253 1.00586 0.0
Mg157 Mg 0.30464 0.83862 0.04468 0.0
C158 C 0.29028 0.88913 0.99243 0.0
C159 C 0.22869 0.94695 0.04129 0.0
O160 O 0.21523 0.91457 0.03963 0.0
O161 O 0.22362 0.83381 0.02924 0.0
O162 O 0.2584 0.81639 1.01421 0.0
O163 O 0.28705 0.93518 0.08502 0.0
O164 O 0.29232 0.88174 0.07742 0.0
C165 C 0.24003 0.81449 0.03298 0.0
C166 C 0.3038 0.91523 0.08689 0.0
O167 O 0.21669 0.91523 0.04003 0.0
Mg168 Mg 0.36532 0.46758 0.16902 0.0
O169 O 0.35277 0.42618 0.11512 0.0
O170 O 0.38709 0.39914 0.11586 0.0
Mg171 Mg 0.42033 0.422 0.16855 0.0
C172 C 0.36397 0.40359 0.10014 0.0
C173 C 0.31887 0.50651 0.16944 0.0
O174 O 0.34256 0.53147 0.18456 0.0
O175 O 0.35327 0.42681 0.20083 0.0
O176 O 0.38832 0.40091 0.20173 0.0
O177 O 0.38902 0.50563 0.14394 0.0
O178 O 0.4094 0.47242 0.1714 0.0
C179 C 0.36553 0.40489 0.21094 0.0
C180 C 0.41145 0.49538 0.15272 0.0
O181 O 0.32036 0.47525 0.15981 0.0
Mg182 Mg 0.86171 0.24057 0.05953 0.0
O183 O 0.86229 0.21835 0.10756 0.0
O184 O 0.90645 0.24472 0.13742 0.0
Mg185 Mg 0.93253 0.23935 0.09425 0.0
C186 C 0.88015 0.23304 0.13683 0.0
C187 C 0.79696 0.22603 0.05253 0.0
O188 O 0.79767 0.20159 0.02556 0.0
O189 O 0.88684 0.29527 0.0934 0.0
O190 O 0.93261 0.29635 0.09638 0.0
O191 O 0.85086 0.18636 0.02667 0.0
O192 O 0.89476 0.2212 0.04836 0.0
C193 C 0.91327 0.31181 0.10048 0.0
C194 C 0.87807 0.19057 0.03199 0.0
O195 O 0.81986 0.24936 0.069 0.0
Mg196 Mg 0.18228 0.54983 0.38639 0.0
O197 O 0.21349 0.6055 0.38781 0.0
O198 O 0.24606 0.62121 0.43838 0.0
Mg199 Mg 0.23603 0.57682 0.46878 0.0
C200 C 0.23548 0.62781 0.40939 0.0
C201 C 0.16355 0.56141 0.30092 0.0
O202 O 0.18935 0.5821 0.30617 0.0
O203 O 0.21487 0.5123 0.37646 0.0
O204 O 0.24488 0.52998 0.42974 0.0
O205 O 0.15456 0.57568 0.41951 0.0
O206 O 0.18841 0.55822 0.44609 0.0
C207 C 0.23611 0.50896 0.39863 0.0
C208 C 0.16747 0.57167 0.44904 0.0
O209 O 0.15742 0.54579 0.32529 0.0
Mg210 Mg 0.86775 0.9735 0.66897 0.0
O211 O 0.85796 0.93206 0.6157 0.0
O212 O 0.89265 0.90564 0.61888 0.0
Mg213 Mg 0.9231 0.92779 0.67376 0.0
C214 C 0.86998 0.90992 0.60175 0.0
C215 C 0.81539 1.00353 0.67553 0.0
O216 O 0.83356 1.02162 0.70545 0.0
O217 O 0.8532 0.9321 0.69954 0.0
O218 O 0.88823 0.90598 0.70222 0.0
O219 O 0.89529 1.01105 0.64566 0.0
O220 O 0.91186 0.97776 0.67701 0.0
C221 C 0.86482 0.9096 0.70964 0.0
C222 C 0.91653 1.00025 0.65828 0.0
O223 O 0.82269 0.98072 0.65459 0.0
Mg224 Mg 0.97631 0.05801 0.33686 0.0
O225 O 0.94681 1.00429 0.33978 0.0
O226 O 0.93098 1.01817 0.38943 0.0
Mg227 Mg 0.94601 0.07659 0.41486 0.0
C228 C 0.93231 0.99583 0.3624 0.0
C229 C 0.99051 0.0704 0.27197 0.0
O230 O 0.98927 0.09878 0.29382 0.0
O231 O 0.93664 0.07179 0.31564 0.0
O232 O 0.91962 0.08369 0.36437 0.0
O233 O 1.01409 0.0529 0.37326 0.0
O234 O 0.98217 0.07806 0.39063 0.0
C235 C 0.91808 0.08089 0.33117 0.0
C236 C 1.00479 0.06859 0.39887 0.0
O237 O 0.98344 0.04143 0.28062 0.0
Mg238 Mg 0.3651 0.71313 0.62843 0.0
O239 O 0.40146 0.725 0.67599 0.0
O240 O 0.43189 0.77091 0.67114 0.0
Mg241 Mg 0.43453 0.74786 0.6139 0.0
C242 C 0.41512 0.75693 0.6885 0.0
C243 C 0.33341 0.68435 0.67991 0.0
O244 O 0.35415 0.66932 0.68014 0.0
O245 O 0.37043 0.77059 0.63239 0.0
O246 O 0.4079 0.78675 0.60836 0.0
O247 O 0.36802 0.66015 0.61301 0.0
O248 O 0.3932 0.70478 0.59649 0.0
C249 C 0.38664 0.79277 0.62051 0.0
C250 C 0.38702 0.67196 0.59632 0.0
O251 O 0.33283 0.70761 0.66265 0.0
Mg252 Mg 0.46633 0.56022 0.83984 0.0
O253 O 0.43707 0.50633 0.84196 0.0
O254 O 0.42214 0.51844 0.89253 0.0
Mg255 Mg 0.43691 0.57659 0.91927 0.0
C256 C 0.42326 0.49686 0.86478 0.0
C257 C 0.47644 0.56892 0.76935 0.0
O258 O 0.47304 0.59803 0.78735 0.0
O259 O 0.42656 0.57615 0.82032 0.0
O260 O 0.41074 0.58627 0.87025 0.0
O261 O 0.50382 0.55326 0.87607 0.0
O262 O 0.47282 0.57946 0.89436 0.0
C263 C 0.4086 0.58516 0.83724 0.0
C264 C 0.49489 0.56883 0.9021 0.0
O265 O 0.47262 0.54256 0.78281 0.0
Mg266 Mg 0.68008 0.04684 0.87864 0.0
O267 O 0.71132 0.10303 0.88275 0.0
O268 O 0.74159 0.11914 0.93522 0.0
Mg269 Mg 0.72966 0.07406 0.96422 0.0
C270 C 0.73233 0.12563 0.90565 0.0
C271 C 0.64895 0.06866 0.81104 0.0
O272 O 0.64963 0.09267 0.83923 0.0
O273 O 0.71466 1.01122 0.87215 0.0
O274 O 0.74204 1.02858 0.92705 0.0
O275 O 0.64933 0.07127 0.90704 0.0
O276 O 0.68249 0.05553 0.93764 0.0
C277 C 0.73519 1.00816 0.89565 0.0
C278 C 0.66087 0.06832 0.93775 0.0
O279 O 0.6609 0.04458 0.81639 0.0
Mg280 Mg 0.77991 0.69968 0.07427 0.0
O281 O 0.79122 0.73519 0.13188 0.0
O282 O 0.83724 0.76395 0.1434 0.0
Mg283 Mg 0.85544 0.74917 0.09484 0.0
C284 C 0.81373 0.75653 0.15305 0.0
C285 C 0.72321 0.67877 0.10074 0.0
O286 O 0.74206 0.68359 0.1303 0.0
O287 O 0.7798 0.74537 0.0471 0.0
O288 O 0.82662 0.7717 0.05947 0.0
O289 O 0.7946 0.65765 0.09502 0.0
O290 O 0.82237 0.69893 0.07789 0.0
C291 C 0.80103 0.76889 0.04428 0.0
C292 C 0.81958 0.67196 0.09076 0.0
O293 O 0.73185 0.68533 0.0735 0.0
Mg294 Mg 0.9511 0.61136 0.86191 0.0
O295 O 0.91493 0.55663 0.85604 0.0
O296 O 0.90012 0.56779 0.90647 0.0
Mg297 Mg 0.92167 0.62338 0.94239 0.0
C298 C 0.89961 0.54647 0.87752 0.0
C299 C 0.98537 0.59178 0.79759 0.0
O300 O 1.00316 0.59363 0.82713 0.0
O301 O 0.91874 0.64989 0.85332 0.0
O302 O 0.90389 0.65528 0.90398 0.0
O303 O 0.9833 0.58911 0.89319 0.0
O304 O 0.96003 0.62004 0.92122 0.0
C305 C 0.90433 0.66345 0.87427 0.0
C306 C 0.97793 0.60152 0.92327 0.0
O307 O 0.96098 0.59703 0.80076 0.0
Mg308 Mg 0.75577 0.4361 0.50439 0.0
O309 O 0.73272 0.38288 0.46348 0.0
O310 O 0.77205 0.37252 0.48427 0.0
Mg311 Mg 0.81682 0.4041 0.48928 0.0
C312 C 0.75104 0.36628 0.45849 0.0
C313 C 0.7139 0.47087 0.5249 0.0
O314 O 0.72374 0.48401 0.50009 0.0
O315 O 0.77355 0.41294 0.5503 0.0
O316 O 0.81721 0.4077 0.54769 0.0
O317 O 0.78709 0.48681 0.532 0.0
O318 O 0.79621 0.44739 0.49125 0.0
C319 C 0.79685 0.40708 0.56379 0.0
C320 C 0.80473 0.47724 0.5142 0.0
O321 O 0.71926 0.44286 0.5299 0.0
Mg322 Mg 0.66668 0.60523 0.40696 0.0
O323 O 0.69908 0.65909 0.41643 0.0
O324 O 0.7319 0.66334 0.46457 0.0
Mg325 Mg 0.71769 0.61807 0.4903 0.0
C326 C 0.72295 0.67492 0.43822 0.0
C327 C 0.64273 0.578 0.32552 0.0
O328 O 0.64681 0.54939 0.33357 0.0
O329 O 0.70032 0.58028 0.39122 0.0
O330 O 0.72764 0.58279 0.44377 0.0
O331 O 0.63799 0.6246 0.44007 0.0
O332 O 0.67385 0.60513 0.45996 0.0
C333 C 0.72067 0.5728 0.40982 0.0
C334 C 0.65241 0.61595 0.46583 0.0
O335 O 0.64935 0.6061 0.35005 0.0
Tb336 Tb 0.03788 0.05445 0.08681 0.0
Tb337 Tb 0.09402 0.10333 0.12937 0.0
C338 C 0.9858 1.02507 0.06318 0.0
C339 C 0.96359 0.03708 0.04379 0.0
C340 C 0.9384 0.03593 0.05558 0.0
C341 C 0.92056 0.05541 0.04413 0.0
C342 C 0.92773 0.07624 0.02067 0.0
C343 C 0.9515 0.07449 1.00623 0.0
C344 C 0.96944 0.0553 0.01791 0.0
C345 C 0.07805 0.06649 0.05107 0.0
C346 C 0.04894 0.13788 0.09751 0.0
C347 C 0.14656 0.13056 0.14839 0.0
C348 C 0.16873 0.1128 0.14234 0.0
C349 C 0.18283 0.11836 0.11505 0.0
C350 C 0.1953 0.09348 0.09959 0.0
C351 C 0.19412 0.06291 0.11153 0.0
C352 C 0.18323 0.05965 0.14171 0.0
C353 C 0.17069 0.0844 0.15705 0.0
C354 C 0.0541 0.0929 0.16504 0.0
C355 C 0.08264 1.01993 0.11671 0.0
O356 O 0.99676 0.04357 0.09601 0.0
O357 O 1.00526 1.01829 0.04641 0.0
O358 O 0.07313 0.08781 0.07522 0.0
O359 O 0.0576 0.03779 0.0429 0.0
O360 O 0.03051 0.10626 0.08778 0.0
O361 O 0.07605 0.14304 0.1125 0.0
O362 O 0.13092 0.13288 0.11915 0.0
O363 O 0.13108 0.12067 0.17036 0.0
O364 O 0.05873 0.07014 0.14165 0.0
O365 O 0.07356 0.12241 0.17097 0.0
O366 O 0.10162 0.0508 0.12276 0.0
O367 O 0.05512 1.01629 0.10694 0.0
H368 H 0.93367 1.0222 0.07571 0.0
H369 H 0.90254 0.05644 0.05599 0.0
H370 H 0.95729 0.08984 0.9877 0.0
H371 H 0.98885 0.05674 1.00848 0.0
H372 H 0.18174 0.14013 0.10332 0.0
H373 H 0.20376 0.09687 0.07655 0.0
H374 H 0.18295 0.03691 0.15225 0.0
H375 H 0.16049 0.0796 0.17847 0.0
Tb376 Tb 0.31758 0.81354 0.33911 0.0
Tb377 Tb 0.30585 0.84867 0.3999 0.0
C378 C 0.32142 0.79158 0.27614 0.0
C379 C 0.30978 0.7977 0.24189 0.0
C380 C 0.28273 0.80332 0.2349 0.0
C381 C 0.27091 0.80648 0.20138 0.0
C382 C 0.28609 0.80456 0.17433 0.0
C383 C 0.31365 0.80024 0.18197 0.0
C384 C 0.3253 0.79665 0.21541 0.0
C385 C 0.35397 0.8113 0.39616 0.0
C386 C 0.34322 0.8967 0.36575 0.0
C387 C 0.29526 0.87559 0.45802 0.0
C388 C 0.306 0.87995 0.49624 0.0
C389 C 0.29365 0.85509 0.51323 0.0
C390 C 0.30702 0.85542 0.54734 0.0
C391 C 0.33295 0.88064 0.56492 0.0
C392 C 0.34306 0.90829 0.54986 0.0
C393 C 0.32963 0.90799 0.51569 0.0
C394 C 0.27087 0.84919 0.3404 0.0
C395 C 0.28601 0.76572 0.38144 0.0
O396 O 0.30272 0.7753 0.29102 0.0
O397 O 0.34043 0.81792 0.299 0.0
O398 O 0.34523 0.83744 0.39198 0.0
O399 O 0.34367 0.78694 0.36723 0.0
O400 O 0.33133 0.87012 0.33719 0.0
O401 O 0.34079 0.89086 0.39687 0.0
O402 O 0.31274 0.89232 0.44203 0.0
O403 O 0.28207 0.84388 0.43887 0.0
O404 O 0.27883 0.82369 0.3473 0.0
O405 O 0.28184 0.87505 0.36763 0.0
O406 O 0.29622 0.79457 0.40773 0.0
O407 O 0.28828 0.76814 0.34901 0.0
H408 H 0.27045 0.80447 0.25512 0.0
H409 H 0.24959 0.80948 0.19645 0.0
H410 H 0.32624 0.79951 0.16208 0.0
H411 H 0.3463 0.79264 0.22046 0.0
H412 H 0.27485 0.83391 0.49929 0.0
H413 H 0.2986 0.83367 0.55814 0.0
H414 H 0.36274 0.92833 0.56313 0.0
H415 H 0.33893 0.92839 0.50371 0.0
Tb416 Tb 0.58827 0.07655 0.6011 0.0
Tb417 Tb 0.53417 0.07158 0.62546 0.0
C418 C 0.6402 0.08243 0.6028 0.0
C419 C 0.66308 0.06638 0.61404 0.0
C420 C 0.67055 0.06288 0.64891 0.0
C421 C 0.69378 0.05005 0.65917 0.0
C422 C 0.71004 0.04042 0.6348 0.0
C423 C 0.70201 0.04325 0.59974 0.0
C424 C 0.67888 0.05611 0.58956 0.0
C425 C 0.54936 0.08321 0.5473 0.0
C426 C 0.54852 1.00099 0.594 0.0
C427 C 0.48344 0.061 0.63216 0.0
C428 C 0.46032 0.07784 0.62716 0.0
C429 C 0.466 0.11407 0.63079 0.0
C430 C 0.4436 0.12951 0.62671 0.0
C431 C 0.4151 0.10897 0.61871 0.0
C432 C 0.40965 0.0726 0.61467 0.0
C433 C 0.43204 0.05726 0.61894 0.0
C434 C 0.57996 0.07927 0.67716 0.0
C435 C 0.5695 0.14484 0.62633 0.0
O436 O 0.63098 0.10039 0.62762 0.0
O437 O 0.61958 0.0634 0.57569 0.0
O438 O 0.54614 0.0789 0.57756 0.0
O439 O 0.5754 0.08334 0.54695 0.0
O440 O 0.57318 1.01951 0.59048 0.0
O441 O 0.53031 1.01606 0.60696 0.0
O442 O 0.49064 0.04726 0.60334 0.0
O443 O 0.5056 0.07796 0.65805 0.0
O444 O 0.57389 0.06039 0.64558 0.0
O445 O 0.5598 0.0942 0.68002 0.0
O446 O 0.54334 0.1244 0.61935 0.0
O447 O 0.59143 0.13145 0.62646 0.0
H448 H 0.65876 0.07052 0.66841 0.0
H449 H 0.69909 0.04784 0.68627 0.0
H450 H 0.71417 0.03662 0.58034 0.0
H451 H 0.6737 0.05877 0.56259 0.0
H452 H 0.48773 0.13045 0.63701 0.0
H453 H 0.44864 0.15759 0.6303 0.0
H454 H 0.38804 0.05584 0.60776 0.0
H455 H 0.42725 1.02922 0.6158 0.0
Tb456 Tb 0.29319 0.32899 0.86869 0.0
Tb457 Tb 0.34706 0.3069 0.88189 0.0
C458 C 0.24406 0.3368 0.86609 0.0
C459 C 0.22129 0.33597 0.88607 0.0
C460 C 0.20705 0.30503 0.89378 0.0
C461 C 0.18264 0.30348 0.90747 0.0
C462 C 0.17191 0.33279 0.9137 0.0
C463 C 0.18706 0.36414 0.90755 0.0
C464 C 0.21136 0.36564 0.89377 0.0
C465 C 0.33843 0.3717 0.85792 0.0
C466 C 0.33048 0.34445 0.94808 0.0
C467 C 0.39481 0.29554 0.88284 0.0
C468 C 0.41622 0.29777 0.86108 0.0
C469 C 0.42132 0.32414 0.84283 0.0
C470 C 0.44348 0.32764 0.82496 0.0
C471 C 0.46084 0.30466 0.82475 0.0
C472 C 0.4549 0.27753 0.84205 0.0
C473 C 0.43286 0.27421 0.86011 0.0
C474 C 0.30234 0.26615 0.8954 0.0
C475 C 0.31297 0.29581 0.80259 0.0
O476 O 0.2491 0.30703 0.85344 0.0
O477 O 0.26739 0.36272 0.87816 0.0
O478 O 0.33782 0.35553 0.88202 0.0
O479 O 0.31256 0.36655 0.84056 0.0
O480 O 0.30494 0.33954 0.92752 0.0
O481 O 0.35186 0.33787 0.93474 0.0
O482 O 0.39132 0.32532 0.89873 0.0
O483 O 0.37065 0.27123 0.86919 0.0
O484 O 0.30234 0.28064 0.86997 0.0
O485 O 0.32834 0.27169 0.91227 0.0
O486 O 0.33784 0.30151 0.8245 0.0
O487 O 0.29043 0.30045 0.81448 0.0
H488 H 0.21406 0.28161 0.88802 0.0
H489 H 0.17147 0.27881 0.9116 0.0
H490 H 0.17979 0.38743 0.91268 0.0
H491 H 0.22185 0.38976 0.88794 0.0
H492 H 0.40866 0.34258 0.84313 0.0
H493 H 0.44757 0.3491 0.81235 0.0
H494 H 0.46743 0.25898 0.84192 0.0
H495 H 0.42914 0.25359 0.8739 0.0
Tb496 Tb 0.07275 0.10805 0.62762 0.0
Tb497 Tb 0.06097 1.02878 0.59328 0.0
C498 C 0.08723 0.17348 0.6435 0.0
C499 C 0.09408 0.19802 0.62168 0.0
C500 C 0.09969 0.18603 0.58839 0.0
C501 C 0.09744 0.20508 0.56287 0.0
C502 C 0.08998 0.2365 0.57066 0.0
C503 C 0.08768 0.25045 0.60527 0.0
C504 C 0.08951 0.23108 0.63068 0.0
C505 C 0.02775 0.06524 0.6388 0.0
C506 C 0.04591 0.07659 0.54556 0.0
C507 C 0.03839 0.96468 0.56807 0.0
C508 C 0.04875 0.93377 0.56607 0.0
C509 C 0.07443 0.93578 0.5885 0.0
C510 C 0.08177 0.90531 0.59148 0.0
C511 C 0.06343 0.87234 0.57203 0.0
C512 C 0.03984 0.8711 0.54578 0.0
C513 C 0.03232 0.90172 0.54319 0.0
C514 C 0.11203 0.06476 0.58805 0.0
C515 C 0.09585 0.06139 0.6729 0.0
O516 O 0.10517 0.15494 0.64893 0.0
O517 O 0.06061 0.15445 0.63446 0.0
O518 O 0.03625 0.06295 0.61035 0.0
O519 O 0.04381 0.09333 0.66184 0.0
O520 O 0.06171 0.10461 0.57048 0.0
O521 O 0.03804 0.04564 0.55193 0.0
O522 O 0.03805 0.98134 0.60019 0.0
O523 O 0.04885 0.98569 0.5494 0.0
O524 O 0.09367 0.07522 0.60185 0.0
O525 O 0.10198 1.03107 0.57715 0.0
O526 O 0.07883 1.0328 0.64929 0.0
O527 O 0.09969 0.09305 0.66727 0.0
H528 H 0.10337 0.1606 0.58102 0.0
H529 H 0.09911 0.1939 0.53621 0.0
H530 H 0.08158 0.27452 0.61153 0.0
H531 H 0.08501 0.24056 0.65622 0.0
H532 H 0.08772 0.96065 0.60563 0.0
H533 H 0.10018 0.90774 0.61195 0.0
H534 H 0.02575 0.84628 0.52963 0.0
H535 H 1.01282 0.90009 0.5249 0.0
Tb536 Tb 0.31564 0.81376 0.808 0.0
Tb537 Tb 0.33873 0.88728 0.80356 0.0
C538 C 0.2966 0.74828 0.7937 0.0
C539 C 0.30989 0.71962 0.79273 0.0
C540 C 0.33948 0.72653 0.79769 0.0
C541 C 0.35223 0.69937 0.79705 0.0
C542 C 0.33567 0.66499 0.79267 0.0
C543 C 0.30601 0.65815 0.78816 0.0
C544 C 0.29317 0.68533 0.78788 0.0
C545 C 0.3127 0.86113 0.86192 0.0
C546 C 0.37657 0.85399 0.85154 0.0
C547 C 0.35757 0.95243 0.81773 0.0
C548 C 0.34648 0.97899 0.83742 0.0
C549 C 0.33773 0.97463 0.86871 0.0
C550 C 0.32233 0.99572 0.8839 0.0
C551 C 0.3152 1.02146 0.86799 0.0
C552 C 0.32526 1.0271 0.83777 0.0
C553 C 0.34083 1.00598 0.82259 0.0
C554 C 0.34866 0.83847 0.75453 0.0
C555 C 0.27447 0.85096 0.76972 0.0
O556 O 0.30061 0.76585 0.76966 0.0
O557 O 0.30027 0.7688 0.82522 0.0
O558 O 0.3084 0.86309 0.83009 0.0
O559 O 0.31512 0.83043 0.8635 0.0
O560 O 0.36021 0.82265 0.83292 0.0
O561 O 0.36969 0.88277 0.84764 0.0
O562 O 0.368 0.9331 0.83631 0.0
O563 O 0.34092 0.9338 0.78714 0.0
O564 O 0.34803 0.83901 0.78603 0.0
O565 O 0.3464 0.86855 0.75024 0.0
O566 O 0.29342 0.88116 0.78609 0.0
O567 O 0.28049 0.82116 0.77098 0.0
H568 H 0.35283 0.75302 0.80288 0.0
H569 H 0.37521 0.70555 0.80171 0.0
H570 H 0.29286 0.63189 0.78513 0.0
H571 H 0.2703 0.67969 0.78442 0.0
H572 H 0.34148 0.95376 0.88053 0.0
H573 H 0.31452 0.99038 0.90685 0.0
H574 H 0.32023 0.04699 0.82518 0.0
H575 H 0.34725 1.00959 0.79835 0.0
Tb576 Tb 0.54232 0.06214 0.08564 0.0
Tb577 Tb 0.599 0.09137 0.14165 0.0
C578 C 0.49719 1.01702 0.0513 0.0
C579 C 0.46945 1.00345 0.05891 0.0
C580 C 0.45252 0.96994 0.04006 0.0
C581 C 0.42705 0.95546 0.0489 0.0
C582 C 0.41827 0.97427 0.07695 0.0
C583 C 0.43547 1.00788 0.09588 0.0
C584 C 0.46084 1.02237 0.08688 0.0
C585 C 0.55618 0.12984 0.1138 0.0
C586 C 0.54276 0.07357 0.17206 0.0
C587 C 0.64454 0.13703 0.17338 0.0
C588 C 0.66649 0.1566 0.15829 0.0
C589 C 0.65839 0.16611 0.12646 0.0
C590 C 0.67881 0.18174 0.11004 0.0
C591 C 0.70783 0.18865 0.12525 0.0
C592 C 0.71607 0.18074 0.15798 0.0
C593 C 0.69549 0.1646 0.17431 0.0
C594 C 0.58163 1.02389 0.1165 0.0
C595 C 0.59891 0.08118 0.05601 0.0
O596 O 0.51822 1.00989 0.07067 0.0
O597 O 0.50357 0.04947 0.04836 0.0
O598 O 0.56147 0.10607 0.12746 0.0
O599 O 0.5404 0.11491 0.08185 0.0
O600 O 0.52819 0.06214 0.13781 0.0
O601 O 0.57118 0.08592 0.17988 0.0
O602 O 0.61992 0.14375 0.16658 0.0
O603 O 0.64188 0.10336 0.16882 0.0
O604 O 0.57935 0.04703 0.1003 0.0
O605 O 0.59742 0.03839 0.1486 0.0
O606 O 0.61288 0.09339 0.09019 0.0
O607 O 0.57073 0.06693 0.04771 0.0
H608 H 0.45909 0.95488 0.01864 0.0
H609 H 0.41403 0.92979 0.03342 0.0
H610 H 0.42941 1.0229 0.11781 0.0
H611 H 0.47386 0.04819 0.10195 0.0
H612 H 0.63617 0.16082 0.11371 0.0
H613 H 0.67191 0.18794 0.08507 0.0
H614 H 0.73839 0.18568 0.17014 0.0
H615 H 0.7022 0.15765 0.1989 0.0
Tb616 Tb 0.29015 0.30749 0.35288 0.0
Tb617 Tb 0.34267 0.35724 0.39501 0.0
C618 C 0.23824 0.27521 0.33462 0.0
C619 C 0.21396 0.2889 0.34035 0.0
C620 C 0.21721 0.31581 0.37058 0.0
C621 C 0.19518 0.33083 0.37525 0.0
C622 C 0.16891 0.31853 0.35041 0.0
C623 C 0.16559 0.29126 0.32022 0.0
C624 C 0.18804 0.27679 0.31511 0.0
C625 C 0.32421 0.33358 0.31425 0.0
C626 C 0.29151 0.39052 0.38196 0.0
C627 C 0.39405 0.39065 0.41328 0.0
C628 C 0.41638 0.38019 0.39756 0.0
C629 C 0.40894 0.36009 0.36227 0.0
C630 C 0.42878 0.34707 0.34723 0.0
C631 C 0.4567 0.35422 0.36695 0.0
C632 C 0.46423 0.37405 0.40249 0.0
C633 C 0.44406 0.38691 0.41779 0.0
C634 C 0.30869 0.33202 0.43428 0.0
C635 C 0.34204 0.27502 0.36473 0.0
O636 O 0.25516 0.27435 0.36352 0.0
O637 O 0.25239 0.2879 0.31283 0.0
O638 O 0.31935 0.34969 0.34236 0.0
O639 O 0.30875 0.30124 0.30604 0.0
O640 O 0.27655 0.3573 0.36653 0.0
O641 O 0.31931 0.3975 0.39485 0.0
O642 O 0.37522 0.39894 0.39151 0.0
O643 O 0.38218 0.36954 0.43096 0.0
O644 O 0.31316 0.31547 0.40603 0.0
O645 O 0.32506 0.3638 0.44224 0.0
O646 O 0.35694 0.30878 0.37608 0.0
O647 O 0.31376 0.26735 0.35597 0.0
H648 H 0.23689 0.3255 0.39072 0.0
H649 H 0.19887 0.35215 0.39843 0.0
H650 H 0.14552 0.28061 0.30081 0.0
H651 H 0.18513 0.25611 0.29158 0.0
H652 H 0.38755 0.35397 0.34628 0.0
H653 H 0.42219 0.33132 0.32005 0.0
H654 H 0.48572 0.3801 0.41815 0.0
H655 H 0.44998 0.40188 0.44525 0.0
Tb656 Tb 0.56644 0.61747 0.12991 0.0
Tb657 Tb 0.56795 0.54274 0.09866 0.0
C658 C 0.58446 0.68276 0.14714 0.0
C659 C 0.59695 0.70542 0.12612 0.0
C660 C 0.60408 0.69004 0.09498 0.0
C661 C 0.60719 0.7079 0.06864 0.0
C662 C 0.60308 0.74131 0.07322 0.0
C663 C 0.59941 0.75833 0.10615 0.0
C664 C 0.59614 0.74028 0.13252 0.0
C665 C 0.5177 0.57324 0.13033 0.0
C666 C 0.53995 0.57986 0.04965 0.0
C667 C 0.56469 0.47929 0.07812 0.0
C668 C 0.58438 0.45805 0.08272 0.0
C669 C 0.60449 0.46559 0.11474 0.0
C670 C 0.61787 0.44053 0.12225 0.0
C671 C 0.61078 0.40753 0.09794 0.0
C672 C 0.59553 0.40352 0.06315 0.0
C673 C 0.58171 0.42839 0.05585 0.0
C674 C 0.61036 0.59378 0.09314 0.0
C675 C 0.58952 0.57626 0.18243 0.0
O676 O 0.59946 0.66243 0.15727 0.0
O677 O 0.55765 0.66582 0.13339 0.0
O678 O 0.53857 0.5662 0.11926 0.0
O679 O 0.52413 0.60695 0.14223 0.0
O680 O 0.55572 0.60974 0.07196 0.0
O681 O 0.53571 0.55036 0.05958 0.0
O682 O 0.55648 0.49236 0.10656 0.0
O683 O 0.57114 0.50181 0.05933 0.0
O684 O 0.59841 0.59266 0.1186 0.0
O685 O 0.59974 0.56406 0.07011 0.0
O686 O 0.58755 0.54991 0.155 0.0
O687 O 0.58115 0.60427 0.1788 0.0
H688 H 0.60431 0.66299 0.08942 0.0
H689 H 0.60977 0.69428 0.04333 0.0
H690 H 0.59582 0.78401 0.10995 0.0
H691 H 0.59042 0.75236 0.15632 0.0
H692 H 0.60781 0.48928 0.1352 0.0
H693 H 0.63022 0.44531 0.14904 0.0
H694 H 0.59076 0.379 0.04333 0.0
H695 H 0.56714 0.42305 0.03033 0.0
Tb696 Tb 0.79154 0.26944 0.27517 0.0
Tb697 Tb 0.81266 0.34665 0.28397 0.0
C698 C 0.78188 0.20414 0.25808 0.0
C699 C 0.79884 0.17941 0.25511 0.0
C700 C 0.78671 0.14491 0.25596 0.0
C701 C 0.80386 0.12259 0.2597 0.0
C702 C 0.83329 0.13471 0.26266 0.0
C703 C 0.84495 0.1685 0.25895 0.0
C704 C 0.8278 0.19083 0.25532 0.0
C705 C 0.7738 0.30673 0.32527 0.0
C706 C 0.85293 0.31255 0.32234 0.0
C707 C 0.8205 0.41135 0.29359 0.0
C708 C 0.80435 0.43477 0.30685 0.0
C709 C 0.78304 0.42304 0.32436 0.0
C710 C 0.76934 0.44614 0.34001 0.0
C711 C 0.77647 0.48105 0.33776 0.0
C712 C 0.79695 0.49239 0.31893 0.0
C713 C 0.81101 0.46933 0.30371 0.0
C714 C 0.83203 0.30812 0.23725 0.0
C715 C 0.74866 0.30639 0.2476 0.0
O716 O 0.78262 0.22343 0.2352 0.0
O717 O 0.78451 0.22227 0.29047 0.0
O718 O 0.79786 0.31472 0.31788 0.0
O719 O 0.75968 0.27568 0.30624 0.0
O720 O 0.83692 0.28188 0.30144 0.0
O721 O 0.84435 0.34107 0.32486 0.0
O722 O 0.83146 0.3967 0.31714 0.0
O723 O 0.8082 0.38908 0.26282 0.0
O724 O 0.8072 0.3013 0.24228 0.0
O725 O 0.84607 0.33902 0.25622 0.0
O726 O 0.76677 0.33579 0.2677 0.0
O727 O 0.75637 0.27738 0.2404 0.0
H728 H 0.7643 0.13585 0.25568 0.0
H729 H 0.79445 0.09655 0.26229 0.0
H730 H 0.86764 0.17858 0.26156 0.0
H731 H 0.83739 0.21752 0.2547 0.0
H732 H 0.7775 0.39625 0.32661 0.0
H733 H 0.75335 0.43686 0.35411 0.0
H734 H 0.8027 0.5193 0.31703 0.0
H735 H 0.82742 0.47859 0.29017 0.0
Tb736 Tb 0.05262 0.58548 0.59712 0.0
Tb737 Tb 0.09394 0.56213 0.64388 0.0
C738 C 1.01014 0.58778 0.5539 0.0
C739 C 0.97984 0.58357 0.55126 0.0
C740 C 0.96757 0.57818 0.5799 0.0
C741 C 0.93806 0.56645 0.57458 0.0
C742 C 0.92068 0.55986 0.54052 0.0
C743 C 0.93305 0.56793 0.51263 0.0
C744 C 0.9625 0.57965 0.51799 0.0
C745 C 0.09186 0.63662 0.64521 0.0
C746 C 0.03782 0.56959 0.67125 0.0
C747 C 0.13757 0.56324 0.68757 0.0
C748 C 0.1685 0.57866 0.69323 0.0
C749 C 0.18201 0.60947 0.72021 0.0
C750 C 0.2105 0.62682 0.72375 0.0
C751 C 0.22616 0.61327 0.70086 0.0
C752 C 0.21317 0.5815 0.6751 0.0
C753 C 0.1845 0.56437 0.6712 0.0
C754 C 0.05378 0.51101 0.59783 0.0
C755 C 0.10881 0.58062 0.5705 0.0
O756 O 1.01793 0.55924 0.55478 0.0
O757 O 0.02775 0.61551 0.57681 0.0
O758 O 0.07932 0.60715 0.64831 0.0
O759 O 0.08221 0.63804 0.61287 0.0
O760 O 0.02878 0.57652 0.6401 0.0
O761 O 0.06299 0.56302 0.67818 0.0
O762 O 0.12303 0.58612 0.69224 0.0
O763 O 0.12475 0.53699 0.65978 0.0
O764 O 0.06665 0.53966 0.59291 0.0
O765 O 0.06472 0.50933 0.62966 0.0
O766 O 0.11847 0.57562 0.60249 0.0
O767 O 0.0826 0.5836 0.56214 0.0
H768 H 0.98075 0.58106 0.60573 0.0
H769 H 0.92903 0.56023 0.59645 0.0
H770 H 0.92 0.56345 0.48625 0.0
H771 H 0.97178 0.58369 0.49565 0.0
H772 H 0.17026 0.62081 0.73789 0.0
H773 H 0.22015 0.65115 0.74392 0.0
H774 H 0.22484 0.57071 0.65697 0.0
H775 H 0.17476 0.54058 0.65032 0.0
Tb776 Tb 0.79878 0.83264 0.37116 0.0
Tb777 Tb 0.85383 0.8118 0.38275 0.0
C778 C 0.74913 0.83858 0.36986 0.0
C779 C 0.72605 0.83665 0.38961 0.0
C780 C 0.71159 0.80498 0.39585 0.0
C781 C 0.68678 0.80243 0.40893 0.0
C782 C 0.67574 0.83142 0.41595 0.0
C783 C 0.69105 0.86345 0.41123 0.0
C784 C 0.71578 0.86596 0.39813 0.0
C785 C 0.84344 0.87623 0.35992 0.0
C786 C 0.83761 0.8488 0.44978 0.0
C787 C 0.90209 0.80235 0.38237 0.0
C788 C 0.92326 0.80534 0.36026 0.0
C789 C 0.9281 0.83229 0.34266 0.0
C790 C 0.95009 0.83643 0.3245 0.0
C791 C 0.96755 0.81357 0.32336 0.0
C792 C 0.96191 0.78593 0.34008 0.0
C793 C 0.94005 0.78196 0.3584 0.0
C794 C 0.81034 0.7702 0.39757 0.0
C795 C 0.81807 0.80068 0.304 0.0
O796 O 0.75481 0.80935 0.35677 0.0
O797 O 0.7721 0.86505 0.38196 0.0
O798 O 0.84322 0.85957 0.38357 0.0
O799 O 0.81736 0.87131 0.34331 0.0
O800 O 0.81173 0.84332 0.42983 0.0
O801 O 0.85887 0.8426 0.43586 0.0
O802 O 0.89806 0.83172 0.39849 0.0
O803 O 0.87825 0.77738 0.36913 0.0
O804 O 0.80931 0.78488 0.37221 0.0
O805 O 0.83668 0.77587 0.41324 0.0
O806 O 0.84323 0.80637 0.32535 0.0
O807 O 0.79568 0.80492 0.31653 0.0
H808 H 0.71874 0.78175 0.38933 0.0
H809 H 0.67556 0.77727 0.41195 0.0
H810 H 0.68358 0.88653 0.41695 0.0
H811 H 0.72632 0.89063 0.39339 0.0
H812 H 0.91536 0.85064 0.34365 0.0
H813 H 0.95393 0.85825 0.31235 0.0
H814 H 0.97452 0.76745 0.33923 0.0
H815 H 0.93658 0.76092 0.3717 0.0
Tb816 Tb 0.81287 0.31601 0.83913 0.0
Tb817 Tb 0.80827 0.3491 0.90857 0.0
C818 C 0.80954 0.29998 0.77324 0.0
C819 C 0.80872 0.31842 0.74453 0.0
C820 C 0.78619 0.30484 0.71435 0.0
C821 C 0.7844 0.3219 0.68694 0.0
C822 C 0.80525 0.35283 0.68902 0.0
C823 C 0.82786 0.36647 0.71927 0.0
C824 C 0.82951 0.34952 0.7469 0.0
C825 C 0.85262 0.31171 0.89057 0.0
C826 C 0.84138 0.39883 0.87084 0.0
C827 C 0.80922 0.37108 0.97327 0.0
C828 C 0.83096 0.39261 1.00475 0.0
C829 C 0.82683 0.38891 0.03806 0.0
C830 C 0.85001 0.39909 0.06698 0.0
C831 C 0.87786 0.41261 0.06274 0.0
C832 C 0.88082 0.42229 0.03085 0.0
C833 C 0.85757 0.41156 1.00169 0.0
C834 C 0.76746 0.35012 0.85594 0.0
C835 C 0.78359 0.26461 0.88096 0.0
O836 O 0.7874 0.2965 0.78743 0.0
O837 O 0.83345 0.30823 0.79709 0.0
O838 O 0.84391 0.33843 0.88916 0.0
O839 O 0.84019 0.28733 0.86178 0.0
O840 O 0.82778 0.37352 0.84168 0.0
O841 O 0.84145 0.39162 0.90205 0.0
O842 O 0.80173 0.38676 0.94889 0.0
O843 O 0.81323 0.34096 0.95975 0.0
O844 O 0.7776 0.32511 0.85918 0.0
O845 O 0.77891 0.3752 0.88407 0.0
O846 O 0.79123 0.29293 0.90801 0.0
O847 O 0.78794 0.26763 0.84927 0.0
H848 H 0.76992 0.28093 0.71197 0.0
H849 H 0.76695 0.3105 0.66377 0.0
H850 H 0.84412 0.39039 0.7217 0.0
H851 H 0.84699 0.3608 0.77004 0.0
H852 H 0.80624 0.37484 0.04094 0.0
H853 H 0.84616 0.39173 0.09098 0.0
H854 H 0.90159 0.43433 0.02699 0.0
H855 H 0.86097 0.41532 0.97614 0.0
Tb856 Tb 0.79387 0.80999 0.85306 0.0
Tb857 Tb 0.84801 0.86145 0.89082 0.0
C858 C 0.74237 0.77629 0.83703 0.0
C859 C 0.71671 0.78861 0.83602 0.0
C860 C 0.69852 0.77849 0.85793 0.0
C861 C 0.67783 0.79554 0.86394 0.0
C862 C 0.67475 0.82269 0.84777 0.0
C863 C 0.69152 0.83119 0.82383 0.0
C864 C 0.71261 0.8145 0.81824 0.0
C865 C 0.82479 0.83611 0.81143 0.0
C866 C 0.79487 0.89308 0.88028 0.0
C867 C 0.8995 0.89542 0.90272 0.0
C868 C 0.92387 0.88424 0.89258 0.0
C869 C 0.91893 0.8552 0.86395 0.0
C870 C 0.94148 0.84411 0.85375 0.0
C871 C 0.96984 0.86279 0.87066 0.0
C872 C 0.97486 0.89174 0.89978 0.0
C873 C 0.95199 0.9022 0.91082 0.0
C874 C 0.81718 0.83798 0.93355 0.0
C875 C 0.84571 0.77761 0.86555 0.0
O876 O 0.75859 0.78357 0.86889 0.0
O877 O 0.75709 0.78239 0.81326 0.0
O878 O 0.82103 0.85215 0.8402 0.0
O879 O 0.8101 0.80356 0.80427 0.0
O880 O 0.77991 0.85955 0.86611 0.0
O881 O 0.82309 0.90073 0.89152 0.0
O882 O 0.8799 0.89576 0.87608 0.0
O883 O 0.88843 0.88097 0.92586 0.0
O884 O 0.82016 0.82038 0.90479 0.0
O885 O 0.83358 0.86973 0.94027 0.0
O886 O 0.86098 0.81127 0.87524 0.0
O887 O 0.81747 0.77028 0.85798 0.0
H888 H 0.70137 0.75871 0.87197 0.0
H889 H 0.6647 0.78814 0.88202 0.0
H890 H 0.68932 0.85195 0.81097 0.0
H891 H 0.72654 0.8231 0.80144 0.0
H892 H 0.8976 0.84135 0.84877 0.0
H893 H 0.9365 0.82115 0.83189 0.0
H894 H 0.99635 0.90703 0.9133 0.0
H895 H 0.95628 0.92475 0.93299 0.0
Tb896 Tb 0.5435 0.55451 0.58864 0.0
Tb897 Tb 0.5909 0.60365 0.64386 0.0
C898 C 0.49745 0.52178 0.54473 0.0
C899 C 0.47629 0.53546 0.5259 0.0
C900 C 0.4474 0.5191 0.52161 0.0
C901 C 0.42777 0.53854 0.51852 0.0
C902 C 0.43727 0.57473 0.52129 0.0
C903 C 0.46529 0.589 0.51878 0.0
C904 C 0.48473 0.56934 0.52095 0.0
C905 C 0.59193 0.57392 0.56862 0.0
C906 C 0.54929 0.63681 0.60356 0.0
C907 C 0.64144 0.63233 0.67681 0.0
C908 C 0.66515 0.61654 0.673 0.0
C909 C 0.68393 0.62883 0.65251 0.0
C910 C 0.69664 0.60617 0.63373 0.0
C911 C 0.69051 0.57076 0.63485 0.0
C912 C 0.67561 0.56037 0.65999 0.0
C913 C 0.66353 0.58338 0.67943 0.0
C914 C 0.54341 0.58879 0.66576 0.0
C915 C 0.58257 0.52033 0.62862 0.0
O916 O 0.50006 0.52894 0.57921 0.0
O917 O 0.5221 0.52793 0.53618 0.0
O918 O 0.58089 0.59258 0.58792 0.0
O919 O 0.57537 0.54233 0.55934 0.0
O920 O 0.5323 0.60445 0.59144 0.0
O921 O 0.5753 0.6432 0.62296 0.0
O922 O 0.62996 0.63943 0.64772 0.0
O923 O 0.622 0.61698 0.69168 0.0
O924 O 0.55231 0.56723 0.64579 0.0
O925 O 0.56234 0.61907 0.67582 0.0
O926 O 0.6006 0.5522 0.63916 0.0
O927 O 0.55625 0.51531 0.61149 0.0
H928 H 0.44047 0.49269 0.52462 0.0
H929 H 0.4059 0.52634 0.51858 0.0
H930 H 0.47329 0.61647 0.51986 0.0
H931 H 0.50694 0.58214 0.52316 0.0
H932 H 0.68618 0.65461 0.64773 0.0
H933 H 0.70934 0.61572 0.6161 0.0
H934 H 0.67092 0.53363 0.66237 0.0
H935 H 0.65018 0.57378 0.69634 0.0
Tb936 Tb 0.09029 0.57872 0.10352 0.0
Tb937 Tb 0.03284 0.57088 0.12982 0.0
C938 C 0.14176 0.5834 0.10363 0.0
C939 C 0.16485 0.56814 0.11647 0.0
C940 C 0.18321 0.58317 0.15023 0.0
C941 C 0.20678 0.57114 0.1607 0.0
C942 C 0.21289 0.5441 0.13751 0.0
C943 C 0.19412 0.52852 0.10406 0.0
C944 C 0.17047 0.54044 0.09366 0.0
C945 C 0.04826 0.58264 0.05169 0.0
C946 C 0.049 0.50311 0.09699 0.0
C947 C 0.98266 0.5659 0.13602 0.0
C948 C 0.95911 0.58153 0.12859 0.0
C949 C 0.95382 0.59431 0.09832 0.0
C950 C 0.93124 0.60923 0.09252 0.0
C951 C 0.91364 0.61163 0.11694 0.0
C952 C 0.91919 0.5988 0.14722 0.0
C953 C 0.94167 0.58389 0.15292 0.0
C954 C 0.07594 0.56619 0.18039 0.0
C955 C 0.07089 0.64618 0.13159 0.0
O956 O 0.13334 0.60375 0.12744 0.0
O957 O 0.12051 0.56295 0.07788 0.0
O958 O 0.04714 0.57868 0.08276 0.0
O959 O 0.07423 0.5839 0.04946 0.0
O960 O 0.07517 0.5221 0.09856 0.0
O961 O 0.02845 0.5171 0.1041 0.0
O962 O 0.98919 0.54736 0.10887 0.0
O963 O 1.00511 0.58597 0.16023 0.0
O964 O 0.07588 0.57135 0.14976 0.0
O965 O 0.04998 0.56352 0.18313 0.0
O966 O 0.0454 0.62596 0.13036 0.0
O967 O 0.09266 0.63363 0.12617 0.0
H968 H 0.17983 0.60487 0.16834 0.0
H969 H 0.22049 0.58347 0.18685 0.0
H970 H 0.19831 0.50802 0.08526 0.0
H971 H 0.15708 0.52861 0.06724 0.0
H972 H 0.96705 0.59271 0.07921 0.0
H973 H 0.92736 0.6185 0.06871 0.0
H974 H 0.9064 0.60071 0.16683 0.0
H975 H 0.94555 0.5743 0.17654 0.0
C976 C 1.00208 0.19551 0.07361 0.0
C977 C 1.02023 0.21995 0.06085 0.0
H978 H 0.9966 0.14979 0.09422 0.0
C979 C 0.04854 0.21866 0.06296 0.0
H980 H 0.98022 0.19587 0.07266 0.0
C981 C 0.05819 0.19304 0.07658 0.0
C982 C 0.03955 0.16745 0.0874 0.0
H983 H 0.06314 0.23712 0.05354 0.0
H984 H 0.07994 0.19233 0.0771 0.0
C985 C 1.01144 0.16911 0.08603 0.0
C986 C 0.21204 0.87635 0.28859 0.0
C987 C 0.19174 0.844 0.27242 0.0
H988 H 0.25307 0.90315 0.32286 0.0
C989 C 0.1991 0.81308 0.27554 0.0
H990 H 0.20712 0.90063 0.28669 0.0
C991 C 0.22555 0.81454 0.29602 0.0
C992 C 0.24499 0.84696 0.31412 0.0
H993 H 0.18403 0.78771 0.26315 0.0
H994 H 0.23022 0.79037 0.29904 0.0
C995 C 0.23832 0.87779 0.3094 0.0
C996 C 0.54797 0.90751 0.55329 0.0
C997 C 0.52356 0.888 0.56151 0.0
H998 H 0.57509 0.95839 0.55709 0.0
C999 C 0.50884 0.90601 0.58264 0.0
H1000 H 0.55987 0.89458 0.53707 0.0
C1001 C 0.5174 0.94254 0.59374 0.0
C1002 C 0.54106 0.96213 0.58429 0.0
H1003 H 0.48997 0.89202 0.58955 0.0
H1004 H 0.50501 0.95541 0.6092 0.0
C1005 C 0.55668 0.94415 0.56467 0.0
C1006 C 0.50853 0.32999 0.76281 0.0
C1007 C 0.5346 0.32624 0.77963 0.0
H1008 H 0.46475 0.32528 0.76314 0.0
C1009 C 0.53574 0.31308 0.81004 0.0
H1010 H 0.50682 0.3401 0.73939 0.0
C1011 C 0.51164 0.30519 0.82413 0.0
C1012 C 0.48577 0.31006 0.80799 0.0
H1013 H 0.55551 0.31006 0.82377 0.0
H1014 H 0.51366 0.29658 0.84849 0.0
C1015 C 0.4844 0.32184 0.7767 0.0
C1016 C 0.03878 0.80647 0.62042 0.0
C1017 C 0.06448 0.8118 0.64478 0.0
H1018 H 1.01819 0.82104 0.57645 0.0
C1019 C 0.09025 0.82553 0.63577 0.0
H1020 H 1.01854 0.79472 0.6259 0.0
C1021 C 0.09012 0.83979 0.60638 0.0
C1022 C 0.06427 0.84158 0.58674 0.0
H1023 H 0.11048 0.82844 0.65326 0.0
H1024 H 0.11026 0.85361 0.60214 0.0
C1025 C 0.03865 0.82129 0.59151 0.0
C1026 C 0.43963 0.8311 0.89852 0.0
C1027 C 0.46147 0.86178 0.90278 0.0
H1028 H 0.39533 0.80441 0.87838 0.0
C1029 C 0.45465 0.89101 0.89384 0.0
H1030 H 0.4444 0.80815 0.9052 0.0
C1031 C 0.42657 0.88905 0.87915 0.0
C1032 C 0.40501 0.85756 0.87245 0.0
H1033 H 0.47113 0.91498 0.89708 0.0
H1034 H 0.42208 0.91165 0.87127 0.0
C1035 C 0.41161 0.82887 0.88306 0.0
C1036 C 0.52838 0.20675 0.14707 0.0
C1037 C 0.53963 0.2143 0.18395 0.0
H1038 H 0.52561 0.17468 0.09543 0.0
C1039 C 0.55657 0.19439 0.19696 0.0
H1040 H 0.5157 0.22219 0.13619 0.0
C1041 C 0.56271 0.16809 0.17376 0.0
C1042 C 0.55207 0.16082 0.13685 0.0
H1043 H 0.5657 0.19968 0.22515 0.0
H1044 H 0.57551 0.15312 0.1851 0.0
C1045 C 0.53459 0.18019 0.12366 0.0
C1046 C 0.11711 0.35286 0.39827 0.0
C1047 C 0.09587 0.35294 0.36982 0.0
H1048 H 0.15596 0.34062 0.41446 0.0
C1049 C 0.10016 0.34512 0.33513 0.0
H1050 H 0.1144 0.35849 0.42532 0.0
C1051 C 0.12444 0.33539 0.32884 0.0
C1052 C 0.14476 0.33286 0.35709 0.0
H1053 H 0.08421 0.34515 0.31266 0.0
H1054 H 0.1269 0.32901 0.30174 0.0
C1055 C 0.14109 0.34261 0.39197 0.0
C1056 C 1.00855 0.04581 0.21872 0.0
C1057 C 1.00344 0.07419 0.24112 0.0
H1058 H 0.02844 1.02937 0.17634 0.0
C1059 C 1.01296 0.10787 0.23575 0.0
H1060 H 1.00147 1.01957 0.22209 0.0
C1061 C 0.02858 0.11346 0.21021 0.0
C1062 C 0.03476 0.08551 0.1889 0.0
H1063 H 1.00926 0.1304 0.25218 0.0
H1064 H 0.03641 0.13991 0.20769 0.0
C1065 C 1.02396 0.05142 0.19258 0.0
C1066 C 0.3923 0.84691 0.59864 0.0
C1067 C 0.37864 0.82497 0.61759 0.0
H1068 H 0.38846 0.88352 0.56762 0.0
C1069 C 0.35457 0.83123 0.62913 0.0
H1070 H 0.41141 0.84352 0.59035 0.0
C1071 C 0.34157 0.8547 0.6165 0.0
C1072 C 0.35244 0.87182 0.59209 0.0
H1073 H 0.34418 0.81566 0.64503 0.0
H1074 H 0.32126 0.85616 0.62232 0.0
C1075 C 0.3793 0.87033 0.58602 0.0
C1076 C 0.62051 0.09825 0.77371 0.0
C1077 C 0.63318 0.07062 0.77498 0.0
H1078 H 0.59475 0.12243 0.74309 0.0
C1079 C 0.62944 0.04608 0.74231 0.0
H1080 H 0.62264 0.11803 0.79767 0.0
C1081 C 0.61312 0.04896 0.71002 0.0
C1082 C 0.59992 0.07632 0.70953 0.0
H1083 H 0.63874 1.02442 0.74172 0.0
H1084 H 0.61027 1.02932 0.68569 0.0
C1085 C 0.6043 0.10093 0.74199 0.0
C1086 C 0.329 0.3919 0.04121 0.0
C1087 C 0.352 0.38474 0.062 0.0
H1088 H 0.30379 0.38454 0.98865 0.0
C1089 C 0.36562 0.3617 0.04511 0.0
H1090 H 0.31796 0.40948 0.0533 0.0
C1091 C 0.35776 0.34795 1.0084 0.0
C1092 C 0.33585 0.35646 0.98734 0.0
H1093 H 0.38319 0.35518 0.06004 0.0
H1094 H 0.3694 0.33111 0.99639 0.0
C1095 C 0.32087 0.37768 1.00419 0.0
C1096 C 0.03213 0.04929 0.44625 0.0
C1097 C 1.01803 0.07315 0.43635 0.0
H1098 H 0.05183 1.03187 0.48923 0.0
C1099 C 1.01543 0.10053 0.46272 0.0
H1100 H 0.03443 1.02807 0.42643 0.0
C1101 C 0.02604 0.10326 0.49868 0.0
C1102 C 0.03854 0.07803 0.50846 0.0
H1103 H 1.00483 0.11947 0.45553 0.0
H1104 H 1.02325 0.12392 0.51873 0.0
C1105 C 0.04198 0.05146 0.48207 0.0
C1106 C 0.40477 0.81493 0.70782 0.0
C1107 C 0.40123 0.77978 0.70945 0.0
H1108 H 0.38989 0.86071 0.71919 0.0
C1109 C 0.3806 0.76492 0.72644 0.0
H1110 H 0.42056 0.82741 0.69507 0.0
C1111 C 0.36279 0.78377 0.73936 0.0
C1112 C 0.36543 0.81814 0.73641 0.0
H1113 H 0.37765 0.73828 0.72886 0.0
H1114 H 0.34672 0.77133 0.75146 0.0
C1115 C 0.38682 0.83382 0.72087 0.0
C1116 C 0.65988 0.07814 1.00498 0.0
C1117 C 0.64623 0.07375 0.96914 0.0
H1118 H 0.65657 0.08494 0.05989 0.0
C1119 C 0.6171 0.07314 0.96291 0.0
H1120 H 0.68212 0.0788 1.01148 0.0
C1121 C 0.60216 0.07579 0.99063 0.0
C1122 C 0.61566 0.08018 0.02644 0.0
H1123 H 0.60536 0.06965 0.93605 0.0
H1124 H 0.57976 0.07431 0.98382 0.0
C1125 C 0.64505 0.08177 0.033 0.0
C1126 C 0.35777 0.3524 0.23746 0.0
C1127 C 0.3544 0.38576 0.23656 0.0
H1128 H 0.35029 0.30935 0.26226 0.0
C1129 C 0.34134 0.40169 0.2617 0.0
H1130 H 0.36785 0.33947 0.2186 0.0
C1131 C 0.33224 0.38501 0.2873 0.0
C1132 C 0.33512 0.35146 0.28781 0.0
H1133 H 0.3387 0.4275 0.2621 0.0
H1134 H 0.32248 0.39822 0.3064 0.0
C1135 C 0.34777 0.33517 0.26244 0.0
C1136 C 0.23365 1.01015 0.05863 0.0
C1137 C 0.21701 0.97589 0.05431 0.0
H1138 H 0.23985 0.06477 0.08078 0.0
C1139 C 0.19194 0.97044 0.06697 0.0
H1140 H 0.25319 1.01485 0.0493 0.0
C1141 C 0.18439 0.99885 0.08502 0.0
C1142 C 0.20179 1.03317 0.09093 0.0
H1143 H 0.17866 0.94428 0.06403 0.0
H1144 H 0.16504 0.9939 0.09472 0.0
C1145 C 0.22611 0.03863 0.07677 0.0
C1146 C 0.67491 0.64134 0.06517 0.0
C1147 C 0.69289 0.66094 0.09812 0.0
H1148 H 0.63473 0.6043 0.03793 0.0
C1149 C 0.6825 0.66037 0.12911 0.0
H1150 H 0.68229 0.64109 0.04082 0.0
C1151 C 0.65518 0.63967 0.12736 0.0
C1152 C 0.63789 0.61861 0.09466 0.0
H1153 H 0.69578 0.67526 0.15489 0.0
H1154 H 0.6481 0.63904 0.1518 0.0
C1155 C 0.64778 0.62011 0.06351 0.0
C1156 C 0.7355 0.5475 0.35527 0.0
C1157 C 0.73608 0.55071 0.39157 0.0
H1158 H 0.74835 0.52292 0.30974 0.0
C1159 C 0.75078 0.5317 0.41016 0.0
H1160 H 0.7244 0.56199 0.34038 0.0
C1161 C 0.76405 0.50918 0.39256 0.0
C1162 C 0.7632 0.50574 0.35627 0.0
H1163 H 0.75149 0.53356 0.43811 0.0
H1164 H 0.77497 0.49439 0.40727 0.0
C1165 C 0.74922 0.52536 0.3378 0.0
C1166 C 0.84494 0.5287 0.54972 0.0
C1167 C 0.83411 0.4991 0.52083 0.0
H1168 H 0.88112 0.57157 0.57856 0.0
C1169 C 0.85151 0.49057 0.49788 0.0
H1170 H 0.83189 0.53589 0.56776 0.0
C1171 C 0.87938 0.51104 0.50388 0.0
C1172 C 0.89042 0.54034 0.53302 0.0
H1173 H 0.84367 0.468 0.47529 0.0
H1174 H 0.89255 0.50334 0.48621 0.0
C1175 C 0.873 0.54909 0.55591 0.0
C1176 C 0.3577 0.18436 0.36538 0.0
C1177 C 0.38658 0.18944 0.36313 0.0
H1178 H 0.32138 0.20519 0.36653 0.0
C1179 C 0.40042 0.22339 0.36048 0.0
H1180 H 0.34602 0.15942 0.36843 0.0
C1181 C 0.38632 0.2506 0.36074 0.0
C1182 C 0.35734 0.24534 0.36285 0.0
H1183 H 0.42273 0.22955 0.35982 0.0
H1184 H 0.39841 0.27612 0.35958 0.0
C1185 C 0.3434 0.21112 0.36452 0.0
C1186 C 0.36934 0.1664 0.59066 0.0
C1187 C 0.34431 0.15335 0.60164 0.0
H1188 H 0.41094 0.16232 0.58675 0.0
C1189 C 0.34316 0.12666 0.61963 0.0
H1190 H 0.37085 0.18676 0.57644 0.0
C1191 C 0.36632 0.11281 0.62585 0.0
C1192 C 0.3911 0.12515 0.61399 0.0
H1193 H 0.32423 0.11611 0.62854 0.0
H1194 H 0.36472 0.09229 0.63986 0.0
C1195 C 0.39241 0.15243 0.59668 0.0
C1196 C 0.76974 0.72079 0.4531 0.0
C1197 C 0.743 0.7042 0.42983 0.0
H1198 H 0.81165 0.75442 0.46094 0.0
C1199 C 0.73752 0.7126 0.39673 0.0
H1200 H 0.7748 0.71533 0.47886 0.0
C1201 C 0.75892 0.7353 0.38642 0.0
C1202 C 0.78613 0.74983 0.40896 0.0
H1203 H 0.7172 0.70035 0.37807 0.0
H1204 H 0.75457 0.74014 0.36027 0.0
C1205 C 0.791 0.74313 0.44273 0.0
C1206 C 0.87354 0.49827 0.90185 0.0
C1207 C 0.88333 0.50826 0.87274 0.0
H1208 H 0.85364 0.45766 0.92411 0.0
C1209 C 0.87854 0.48116 0.84169 0.0
H1210 H 0.87662 0.51755 0.92653 0.0
C1211 C 0.86449 0.4457 0.84017 0.0
C1212 C 0.85547 0.43614 0.86996 0.0
H1213 H 0.88572 0.48726 0.81865 0.0
H1214 H 0.86125 0.42574 0.81597 0.0
C1215 C 0.86028 0.46331 0.9006 0.0
C1216 C 0.11632 0.96266 0.16551 0.0
C1217 C 0.09681 0.92963 0.14919 0.0
H1218 H 0.1273 1.01775 0.16781 0.0
C1219 C 0.07683 0.92612 0.11785 0.0
H1220 H 0.13184 0.96633 0.18983 0.0
C1221 C 0.07406 0.95541 0.1056 0.0
C1222 C 0.09136 0.989 0.12412 0.0
H1223 H 0.06164 0.90105 0.10442 0.0
H1224 H 0.05699 0.95201 0.08293 0.0
C1225 C 0.11364 0.99218 0.15299 0.0
C1226 C 0.93149 0.33395 0.93124 0.0
C1227 C 0.93313 0.30439 0.94417 0.0
H1228 H 0.90438 0.36024 0.90531 0.0
C1229 C 0.90772 0.2795 0.9429 0.0
H1230 H 0.95072 0.35361 0.93196 0.0
C1231 C 0.88138 0.28283 0.92678 0.0
C1232 C 0.87982 0.31177 0.91287 0.0
H1233 H 0.90828 0.2564 0.95252 0.0
H1234 H 0.86223 0.26224 0.92425 0.0
C1235 C 0.90501 0.33789 0.91622 0.0
C1236 C 0.55213 0.23147 0.63621 0.0
C1237 C 0.57619 0.2546 0.6611 0.0
H1238 H 0.53138 0.17907 0.60575 0.0
C1239 C 0.59972 0.24198 0.67129 0.0
H1240 H 0.53366 0.24007 0.62738 0.0
C1241 C 0.59844 0.2066 0.65843 0.0
C1242 C 0.57352 0.18321 0.63548 0.0
H1243 H 0.61864 0.25902 0.69031 0.0
H1244 H 0.6163 0.19723 0.66793 0.0
C1245 C 0.55077 0.19631 0.62378 0.0
C1246 C 0.60154 0.84069 0.41976 0.0
C1247 C 0.59308 0.81943 0.44234 0.0
H1248 H 0.63368 0.86071 0.39346 0.0
C1249 C 0.61234 0.80266 0.45695 0.0
H1250 H 0.58731 0.85393 0.40787 0.0
C1251 C 0.63922 0.80678 0.44883 0.0
C1252 C 0.64758 0.82785 0.42597 0.0
H1253 H 0.60659 0.78613 0.47451 0.0
H1254 H 0.65351 0.79355 0.46062 0.0
C1255 C 0.62834 0.84481 0.41168 0.0
C1256 C 0.07288 0.29804 0.51575 0.0
C1257 C 0.04672 0.27714 0.49357 0.0
H1258 H 0.10735 0.30139 0.55864 0.0
C1259 C 0.03681 0.2421 0.49422 0.0
H1260 H 0.0807 0.32526 0.51559 0.0
C1261 C 0.05236 0.22833 0.51773 0.0
C1262 C 0.07761 0.24972 0.54151 0.0
H1263 H 1.01671 0.22563 0.47716 0.0
H1264 H 0.04379 0.20151 0.51879 0.0
C1265 C 0.08806 0.28452 0.54015 0.0
C1266 C 0.66916 0.26735 0.223 0.0
C1267 C 0.66093 0.29089 0.24766 0.0
H1268 H 0.70386 0.25405 0.20315 0.0
C1269 C 0.6813 0.32109 0.26934 0.0
H1270 H 0.65366 0.2441 0.20564 0.0
C1271 C 0.70954 0.32744 0.267 0.0
C1272 C 0.71816 0.30325 0.24351 0.0
H1273 H 0.67541 0.34009 0.28802 0.0
H1274 H 0.72479 0.35054 0.28495 0.0
C1275 C 0.6977 0.27329 0.22122 0.0
C1276 C 0.54063 0.93124 0.07161 0.0
C1277 C 0.55241 0.92592 0.04153 0.0
H1278 H 0.54159 0.96689 0.12044 0.0
C1279 C 0.57733 0.95057 0.0408 0.0
H1280 H 0.52156 0.91265 0.07317 0.0
C1281 C 0.58882 0.98108 0.06797 0.0
C1282 C 0.5759 0.9875 0.09664 0.0
H1283 H 0.58725 0.94722 0.01839 0.0
H1284 H 0.6067 1.0009 0.06531 0.0
C1285 C 0.55233 0.96192 0.09901 0.0
C1286 C 1.01084 0.83354 0.80322 0.0
C1287 C 0.03804 0.83844 0.82414 0.0
H1288 H 0.96916 0.83886 0.80083 0.0
C1289 C 0.04273 0.8504 0.86125 0.0
H1290 H 1.0064 0.82517 0.77452 0.0
C1291 C 1.02059 0.85773 0.87684 0.0
C1292 C 0.99353 0.85357 0.85551 0.0
H1293 H 0.06354 0.85477 0.87808 0.0
H1294 H 0.02474 0.86689 0.90546 0.0
C1295 C 0.98916 0.84133 0.81852 0.0
C1296 C 0.1403 0.09057 1.009 0.0
C1297 C 0.12735 0.09791 0.97776 0.0
H1298 H 0.13442 0.07429 0.05656 0.0
C1299 C 0.09827 0.09642 0.97197 0.0
H1300 H 0.16259 0.09125 1.01422 0.0
C1301 C 0.08225 0.08627 0.99599 0.0
C1302 C 0.09505 0.07769 0.02628 0.0
H1303 H 0.08757 0.10171 0.94817 0.0
H1304 H 0.05976 0.08462 0.99066 0.0
C1305 C 0.12425 0.08063 0.03311 0.0
C1306 C 0.77569 0.38734 0.61232 0.0
C1307 C 0.79963 0.39671 0.59797 0.0
H1308 H 0.75875 0.36628 0.65242 0.0
C1309 C 0.82587 0.39384 0.61542 0.0
H1310 H 0.75516 0.38928 0.59967 0.0
C1311 C 0.8279 0.38077 0.64571 0.0
C1312 C 0.8037 0.36998 0.65908 0.0
H1313 H 0.84478 0.40096 0.60523 0.0
H1314 H 0.84821 0.37785 0.65787 0.0
C1315 C 0.77769 0.37396 0.64242 0.0
C1316 C 0.48793 0.10442 0.48671 0.0
C1317 C 0.49438 0.09615 0.45285 0.0
H1318 H 0.49928 0.10636 0.54304 0.0
C1319 C 0.51783 0.08231 0.45127 0.0
H1320 H 0.47017 0.11515 0.48946 0.0
C1321 C 0.5345 0.07775 0.48171 0.0
C1322 C 0.52852 0.08611 0.51556 0.0
H1323 H 0.52392 0.07551 0.42625 0.0
H1324 H 0.55258 0.06773 0.4786 0.0
C1325 C 0.5046 0.09918 0.51756 0.0
C1326 C 0.83973 0.78805 0.21569 0.0
C1327 C 0.81375 0.77043 0.19109 0.0
H1328 H 0.86137 0.81101 0.26999 0.0
C1329 C 0.78865 0.76423 0.20389 0.0
H1330 H 0.85956 0.79338 0.2071 0.0
C1331 C 0.78971 0.77474 0.24046 0.0
C1332 C 0.81593 0.79114 0.26499 0.0
H1333 H 0.76826 0.75074 0.18578 0.0
H1334 H 0.77014 0.76915 0.24959 0.0
C1335 C 0.84081 0.79802 0.252 0.0
C1336 C 0.11273 1.02875 0.75553 0.0
C1337 C 0.13211 0.059 0.77902 0.0
H1338 H 0.08604 1.00556 0.70324 0.0
C1339 C 0.14133 0.08857 0.76622 0.0
H1340 H 0.10533 1.00545 0.76458 0.0
C1341 C 0.13043 0.08856 0.73125 0.0
C1342 C 0.10996 0.05901 0.70817 0.0
H1343 H 0.15648 0.11215 0.78345 0.0
H1344 H 0.13756 0.11223 0.72268 0.0
C1345 C 0.10173 1.02875 0.72036 0.0
C1346 C 0.77918 0.37026 0.41192 0.0
C1347 C 0.7545 0.35432 0.42204 0.0
H1348 H 0.80467 0.36768 0.37323 0.0
C1349 C 0.73469 0.32485 0.39832 0.0
H1350 H 0.79429 0.39377 0.42909 0.0
C1351 C 0.74043 0.31015 0.36598 0.0
C1352 C 0.76609 0.32476 0.35702 0.0
H1353 H 0.71545 0.31225 0.4055 0.0
H1354 H 0.7253 0.28662 0.34863 0.0
C1355 C 0.785 0.35554 0.37977 0.0
C1356 C 0.4842 0.07914 0.2275 0.0
C1357 C 0.5004 0.09074 0.26309 0.0
H1358 H 0.48405 0.0643 0.17136 0.0
C1359 C 0.53009 0.09502 0.26734 0.0
H1360 H 0.46141 0.0753 0.22235 0.0
C1361 C 0.54301 0.08864 0.23829 0.0
C1362 C 0.52722 0.07737 0.20277 0.0
H1363 H 0.54392 0.10374 0.29368 0.0
H1364 H 0.56587 0.09302 0.24397 0.0
C1365 C 0.49734 0.07259 0.198 0.0
C1366 C 0.78622 0.77054 0.98119 0.0
C1367 C 0.79759 0.78881 0.01698 0.0
H1368 H 0.78431 0.77142 0.92663 0.0
C1369 C 0.81224 0.82448 0.02491 0.0
H1370 H 0.77551 0.74279 0.97429 0.0
C1371 C 0.8167 0.84112 0.99762 0.0
C1372 C 0.80749 0.82211 0.9618 0.0
H1373 H 0.82169 0.83898 0.05225 0.0
H1374 H 0.82909 0.86828 1.0047 0.0
C1375 C 0.79147 0.7869 0.95385 0.0
C1376 C 0.91862 0.16615 0.02369 0.0
C1377 C 0.88963 0.16053 0.02343 0.0
H1378 H 0.95322 0.14361 0.02224 0.0
C1379 C 0.87232 0.12619 0.01731 0.0
H1380 H 0.93236 0.19233 0.02787 0.0
C1381 C 0.8843 0.09815 1.01413 0.0
C1382 C 0.91369 0.10405 0.0166 0.0
H1383 H 0.8498 0.12114 0.01672 0.0
H1384 H 0.8708 0.07207 1.01105 0.0
C1385 C 0.9305 0.13816 0.02011 0.0
C1386 C 0.46297 0.49984 0.14895 0.0
C1387 C 0.43843 0.5117 0.14313 0.0
H1388 H 0.5076 0.50951 0.14839 0.0
C1389 C 0.44006 0.5415 0.12962 0.0
H1390 H 0.46246 0.47696 0.15927 0.0
C1391 C 0.46567 0.56012 0.12405 0.0
C1392 C 0.49035 0.54914 0.13087 0.0
H1393 H 0.42176 0.55152 0.12467 0.0
H1394 H 0.46633 0.58386 0.1152 0.0
C1395 C 0.48872 0.51827 0.14249 0.0
C1396 C 0.36229 0.59957 0.83393 0.0
C1397 C 0.38623 0.59845 0.81963 0.0
H1398 H 0.32711 0.62127 0.83597 0.0
C1399 C 0.3904 0.61444 0.79173 0.0
H1400 H 0.35838 0.58713 0.85519 0.0
C1401 C 0.37251 0.63416 0.78085 0.0
C1402 C 0.35003 0.63769 0.79737 0.0
H1403 H 0.40862 0.6139 0.78014 0.0
H1404 H 0.37717 0.64824 0.76094 0.0
C1405 C 0.34425 0.61888 0.82275 0.0
C1406 C 0.30354 0.63488 0.69719 0.0
C1407 C 0.30819 0.66901 0.69243 0.0
H1408 H 0.27356 0.59025 0.70333 0.0
C1409 C 0.28684 0.68614 0.69503 0.0
H1410 H 0.31968 0.62107 0.6956 0.0
C1411 C 0.26057 0.66854 0.69983 0.0
C1412 C 0.25523 0.63348 0.70173 0.0
H1413 H 0.29 0.71257 0.6918 0.0
H1414 H 0.24395 0.68171 0.70011 0.0
C1415 C 0.27714 0.61711 0.70138 0.0
C1416 C 0.73818 0.94584 0.86458 0.0
C1417 C 0.75089 0.9792 0.88865 0.0
H1418 H 0.74104 0.89348 0.84335 0.0
C1419 C 0.77847 0.98343 0.90934 0.0
H1420 H 0.71699 0.94045 0.84831 0.0
C1421 C 0.79252 0.95634 0.90619 0.0
C1422 C 0.77964 0.92275 0.88283 0.0
H1423 H 0.78942 1.00808 0.92852 0.0
H1424 H 0.81353 0.96168 0.92289 0.0
C1425 C 0.75205 0.91836 0.862 0.0
C1426 C 0.78026 0.03712 0.68894 0.0
C1427 C 0.78756 1.01119 0.66577 0.0
H1428 H 0.75049 0.06677 0.69738 0.0
C1429 C 0.76845 0.99371 0.63296 0.0
H1430 H 0.79442 0.05118 0.71443 0.0
C1431 C 0.74304 1.00257 0.62324 0.0
C1432 C 0.73605 1.02909 0.64609 0.0
H1433 H 0.77328 0.9735 0.61452 0.0
H1434 H 0.7289 0.98867 0.5977 0.0
C1435 C 0.75489 0.04593 0.67925 0.0
C1436 C 0.40757 0.44384 0.8868 0.0
C1437 C 0.40588 0.46041 0.85872 0.0
H1438 H 0.38788 0.40218 0.90814 0.0
C1439 C 0.3836 0.44506 0.82841 0.0
H1440 H 0.42441 0.4554 0.91062 0.0
C1441 C 0.36218 0.41512 0.82742 0.0
C1442 C 0.36303 0.3998 0.85647 0.0
H1443 H 0.38157 0.45767 0.80671 0.0
H1444 H 0.34434 0.40484 0.80461 0.0
C1445 C 0.38658 0.41353 0.88547 0.0
C1446 C 0.24316 0.66878 0.36736 0.0
C1447 C 0.24852 0.66294 0.40175 0.0
H1448 H 0.25073 0.70453 0.33388 0.0
C1449 C 0.26637 0.69165 0.42927 0.0
H1450 H 0.22966 0.6478 0.34527 0.0
C1451 C 0.27803 0.72464 0.42284 0.0
C1452 C 0.27294 0.73037 0.38843 0.0
H1453 H 0.27113 0.68882 0.4562 0.0
H1454 H 0.29141 0.74568 0.44499 0.0
C1455 C 0.25537 0.7016 0.36079 0.0
C1456 C 0.50171 0.69099 0.57219 0.0
C1457 C 0.52079 0.71688 0.56214 0.0
H1458 H 0.49562 0.64514 0.59261 0.0
C1459 C 0.54968 0.71741 0.56808 0.0
H1460 H 0.47929 0.68963 0.56783 0.0
C1461 C 0.55914 0.69242 0.58322 0.0
C1462 C 0.53981 0.66572 0.59183 0.0
H1463 H 0.56494 0.73693 0.56068 0.0
H1464 H 0.58141 0.69313 0.58679 0.0
C1465 C 0.51103 0.66543 0.58634 0.0
C1466 C 0.70686 0.37607 0.80588 0.0
C1467 C 0.68873 0.3434 0.78574 0.0
H1468 H 0.74591 0.40363 0.84418 0.0
C1469 C 0.69789 0.31323 0.78672 0.0
H1470 H 0.70044 0.39979 0.80581 0.0
C1471 C 0.72407 0.31551 0.80841 0.0
C1472 C 0.74139 0.34793 0.83 0.0
H1473 H 0.68449 0.28769 0.77139 0.0
H1474 H 0.73023 0.29173 0.8093 0.0
C1475 C 0.73282 0.37826 0.828 0.0
C1476 C 0.04793 0.40997 0.05424 0.0
C1477 C 1.02358 0.39037 0.06256 0.0
H1478 H 0.07532 0.461 0.05882 0.0
C1479 C 1.00951 0.40816 0.08489 0.0
H1480 H 0.05937 0.39717 0.03719 0.0
C1481 C 1.01839 0.4446 0.09672 0.0
C1482 C 0.04186 0.46432 0.08706 0.0
H1483 H 0.99089 0.39411 0.09218 0.0
H1484 H 1.00641 0.45737 0.11297 0.0
C1485 C 0.05709 0.44657 0.06659 0.0
C1486 C 1.01399 0.83946 0.26023 0.0
C1487 C 0.04015 0.8351 0.27594 0.0
H1488 H 0.97055 0.83534 0.26216 0.0
C1489 C 0.04185 0.82185 0.30631 0.0
H1490 H 1.01187 0.84973 0.23692 0.0
C1491 C 1.01818 0.81418 0.32124 0.0
C1492 C 0.99217 0.81939 0.30604 0.0
H1493 H 0.0617 0.81837 0.31921 0.0
H1494 H 1.02061 0.80528 0.34542 0.0
C1495 C 0.9903 0.83157 0.27498 0.0
C1496 C 0.57203 0.33535 0.1288 0.0
C1497 C 0.58913 0.34324 0.16304 0.0
H1498 H 0.56665 0.34793 0.07905 0.0
C1499 C 0.61786 0.36223 0.16976 0.0
H1500 H 0.5502 0.31923 0.12245 0.0
C1501 C 0.62767 0.37858 0.14447 0.0
C1502 C 0.60858 0.37648 0.11282 0.0
H1503 H 0.63185 0.36744 0.19566 0.0
H1504 H 0.6488 0.39664 0.15175 0.0
C1505 C 0.58186 0.35136 0.10356 0.0
C1506 C 0.93124 0.35377 0.35951 0.0
C1507 C 0.93987 0.32666 0.37101 0.0
H1508 H 0.89671 0.37047 0.33559 0.0
C1509 C 0.91961 0.29468 0.36726 0.0
H1510 H 0.9465 0.37859 0.36213 0.0
C1511 C 0.89108 0.28962 0.35125 0.0
C1512 C 0.88249 0.31691 0.33994 0.0
H1513 H 0.92598 0.2733 0.37576 0.0
H1514 H 0.87581 0.26461 0.34787 0.0
C1515 C 0.90274 0.34908 0.3445 0.0
C1516 C 0.08824 0.69096 0.73258 0.0
C1517 C 0.09126 0.72359 0.72484 0.0
H1518 H 0.08781 0.63763 0.71372 0.0
C1519 C 0.09963 0.72867 0.69353 0.0
H1520 H 0.0813 0.6864 0.75627 0.0
C1521 C 0.10304 0.70096 0.66899 0.0
C1522 C 0.09779 0.66754 0.67521 0.0
H1523 H 0.10088 0.75325 0.68631 0.0
H1524 H 0.1073 0.70504 0.64386 0.0
C1525 C 0.09198 0.66318 0.70815 0.0
C1526 C 0.63425 0.87034 0.90293 0.0
C1527 C 0.61106 0.87019 0.87683 0.0
H1528 H 0.67261 0.85503 0.91386 0.0
C1529 C 0.6114 0.85929 0.84074 0.0
H1530 H 0.63482 0.87885 0.93095 0.0
C1531 C 0.63319 0.84573 0.83103 0.0
C1532 C 0.65473 0.8427 0.85728 0.0
H1533 H 0.59394 0.85911 0.82001 0.0
H1534 H 0.63218 0.83553 0.80313 0.0
C1535 C 0.65578 0.85647 0.89321 0.0
C1536 C 0.49268 0.6003 0.72494 0.0
C1537 C 0.48884 0.56981 0.73755 0.0
H1538 H 0.51284 0.62982 0.69233 0.0
C1539 C 0.4999 0.54298 0.72213 0.0
H1540 H 0.48424 0.6214 0.73573 0.0
C1541 C 0.51607 0.54774 0.69647 0.0
C1542 C 0.52163 0.57953 0.68625 0.0
H1543 H 0.49733 0.51917 0.73118 0.0
H1544 H 0.52569 0.52758 0.68642 0.0
C1545 C 0.50903 0.60518 0.69992 0.0
C1546 C 0.90732 0.36947 0.12719 0.0
C1547 C 0.91982 0.34968 0.10452 0.0
H1548 H 0.88701 0.41046 0.1339 0.0
C1549 C 0.92951 0.3628 0.07724 0.0
H1550 H 0.90031 0.36021 0.14904 0.0
C1551 C 0.92087 0.39059 0.06761 0.0
C1552 C 0.90204 0.40486 0.08502 0.0
H1553 H 0.93943 0.3481 0.05958 0.0
H1554 H 0.92484 0.396 0.04287 0.0
C1555 C 0.89949 0.39806 0.11819 0.0
C1556 C 0.11192 0.54683 0.26599 0.0
C1557 C 0.14127 0.55951 0.26813 0.0
H1558 H 0.06909 0.53923 0.23743 0.0
C1559 C 0.14906 0.57287 0.23944 0.0
H1560 H 0.10472 0.53653 0.28719 0.0
C1561 C 0.12837 0.57407 0.21029 0.0
C1562 C 0.09907 0.56244 0.20892 0.0
H1563 H 0.17133 0.58301 0.23972 0.0
H1564 H 0.13533 0.58514 0.18946 0.0
C1565 C 0.09136 0.54853 0.23721 0.0
C1566 C 0.87483 0.87074 0.54678 0.0
C1567 C 0.85921 0.8911 0.56349 0.0
H1568 H 0.88024 0.84164 0.49825 0.0
C1569 C 0.8348 0.89534 0.54261 0.0
H1570 H 0.89364 0.86666 0.5618 0.0
C1571 C 0.82693 0.88059 0.50571 0.0
C1572 C 0.84354 0.86177 0.489 0.0
H1573 H 0.8222 0.91079 0.55457 0.0
H1574 H 0.80851 0.88501 0.49016 0.0
C1575 C 0.8672 0.85647 0.51012 0.0
C1576 C 0.51874 0.54615 0.94979 0.0
C1577 C 0.50799 0.57252 0.93956 0.0
H1578 H 0.53671 0.52764 0.99307 0.0
C1579 C 0.50858 0.60206 0.96569 0.0
H1580 H 0.5184 0.52312 0.93013 0.0
C1581 C 0.5197 0.60513 1.0016 0.0
C1582 C 0.52941 0.57809 1.01192 0.0
H1583 H 0.50046 0.62282 0.9583 0.0
H1584 H 0.51997 0.62809 0.0213 0.0
C1585 C 0.52897 0.54867 0.98574 0.0
C1586 C 0.88627 0.27389 0.19588 0.0
C1587 C 0.86887 0.24594 0.16781 0.0
H1588 H 0.88797 0.3156 0.23968 0.0
C1589 C 0.83938 0.2355 0.16604 0.0
H1590 H 0.90901 0.28262 0.19817 0.0
C1591 C 0.82732 0.25471 0.18969 0.0
C1592 C 0.84451 0.28451 0.21553 0.0
H1593 H 0.82533 0.21396 0.14485 0.0
H1594 H 0.80445 0.24751 0.18634 0.0
C1595 C 0.87416 0.29307 0.2194 0.0
C1596 C 0.13049 0.58896 0.48172 0.0
C1597 C 0.15508 0.57697 0.48245 0.0
H1598 H 0.09749 0.59965 0.50739 0.0
C1599 C 0.16547 0.56781 0.5141 0.0
H1600 H 0.12135 0.59627 0.45835 0.0
C1601 C 0.15148 0.56993 0.54311 0.0
C1602 C 0.12634 0.58106 0.54168 0.0
H1603 H 0.18412 0.55819 0.51621 0.0
H1604 H 0.15999 0.56188 0.56628 0.0
C1605 C 0.11655 0.59085 0.51031 0.0
C1606 C 0.83947 0.90468 0.75906 0.0
C1607 C 0.85257 0.88936 0.73367 0.0
H1608 H 0.82126 0.90026 0.80409 0.0
C1609 C 0.85598 0.85585 0.73361 0.0
H1610 H 0.83683 0.93059 0.76013 0.0
C1611 C 0.84644 0.83807 0.75836 0.0
C1612 C 0.8342 0.85397 0.78439 0.0
H1613 H 0.86613 0.84343 0.71448 0.0
H1614 H 0.84928 0.81232 0.75773 0.0
C1615 C 0.8308 0.88743 0.78445 0.0
C1616 C 0.69763 0.52343 0.545 0.0
C1617 C 0.70451 0.4935 0.55206 0.0
H1618 H 0.68809 0.57095 0.56521 0.0
C1619 C 0.70631 0.48854 0.58659 0.0
H1620 H 0.69608 0.52806 0.51869 0.0
C1621 C 0.70222 0.51369 0.61374 0.0
C1622 C 0.69612 0.54423 0.60686 0.0
H1623 H 0.71201 0.46597 0.59302 0.0
H1624 H 0.7045 0.50953 0.64024 0.0
C1625 C 0.6935 0.54839 0.57196 0.0
C1626 C 0.18007 0.08659 0.55615 0.0
C1627 C 0.19092 0.12297 0.57027 0.0
H1628 H 0.14705 0.04016 0.55096 0.0
C1629 C 0.1752 0.14057 0.59023 0.0
H1630 H 0.19146 0.07203 0.54062 0.0
C1631 C 0.14947 0.12195 0.59627 0.0
C1632 C 0.13903 0.08553 0.58246 0.0
H1633 H 0.18299 0.16854 0.60167 0.0
H1634 H 0.13803 0.13595 0.61204 0.0
C1635 C 0.15457 0.06819 0.5622 0.0
C1636 C 0.25033 0.0547 0.86812 0.0
C1637 C 0.25163 0.06536 0.90469 0.0
H1638 H 0.26951 1.03263 0.82795 0.0
C1639 C 0.27517 0.06382 0.92918 0.0
H1640 H 0.2326 0.05573 0.84849 0.0
C1641 C 0.29652 0.0509 0.9173 0.0
C1642 C 0.29476 0.03936 0.88074 0.0
H1643 H 0.27697 0.07212 0.95753 0.0
H1644 H 0.3142 0.04944 0.93672 0.0
C1645 C 0.27168 0.04186 0.85629 0.0
C1646 C 0.35318 0.90962 0.08724 0.0
C1647 C 0.3346 0.9307 0.09109 0.0
H1648 H 0.39449 0.90694 0.07991 0.0
C1649 C 0.34495 0.96683 0.09452 0.0
H1650 H 0.3461 0.88188 0.08537 0.0
C1651 C 0.37251 0.98112 0.09138 0.0
C1652 C 0.39046 0.95967 0.08495 0.0
H1653 H 0.33131 0.98397 0.09779 0.0
H1654 H 0.37918 1.00869 0.09211 0.0
C1655 C 0.38085 0.92396 0.08401 0.0
C1656 C 0.8603 0.68755 0.87107 0.0
C1657 C 0.8885 0.69094 0.8665 0.0
H1658 H 0.82502 0.71008 0.87337 0.0
C1659 C 0.90227 0.72352 0.86072 0.0
H1660 H 0.84877 0.6637 0.87643 0.0
C1661 C 0.88876 0.75117 0.86031 0.0
C1662 C 0.86046 0.74759 0.86477 0.0
H1663 H 0.92411 0.72833 0.85805 0.0
H1664 H 0.90072 0.77564 0.85664 0.0
C1665 C 0.84654 0.71465 0.86952 0.0
C1666 C 0.84086 0.62782 0.11304 0.0
C1667 C 0.84398 0.65758 0.0994 0.0
H1668 H 0.86017 0.5896 0.12865 0.0
C1669 C 0.87026 0.67236 0.09202 0.0
H1670 H 0.82083 0.61564 0.11873 0.0
C1671 C 0.89283 0.65757 0.09784 0.0
C1672 C 0.88967 0.62756 0.11108 0.0
H1673 H 0.87336 0.69511 0.08121 0.0
H1674 H 0.91283 0.66979 0.09209 0.0
C1675 C 0.86345 0.61297 0.1188 0.0
C1676 C 0.25855 0.22016 0.95037 0.0
C1677 C 0.23311 0.20113 0.92533 0.0
H1678 H 0.30019 0.2552 0.96023 0.0
C1679 C 0.22922 0.20741 0.89111 0.0
H1680 H 0.2624 0.2164 0.97702 0.0
C1681 C 0.25109 0.23012 0.88156 0.0
C1682 C 0.27729 0.24658 0.90591 0.0
H1683 H 0.20993 0.19333 0.87109 0.0
H1684 H 0.24809 0.23324 0.85464 0.0
C1685 C 0.28038 0.2423 0.94069 0.0
C1686 C 0.38294 0.97885 0.33817 0.0
C1687 C 0.38346 1.0065 0.36686 0.0
H1688 H 0.36972 0.9228 0.3145 0.0
C1689 C 0.36955 0.99688 0.39334 0.0
H1690 H 0.39337 0.98463 0.31722 0.0
C1691 C 0.35674 0.9618 0.39217 0.0
C1692 C 0.35651 0.93405 0.36417 0.0
H1693 H 0.36903 1.01659 0.41601 0.0
H1694 H 0.3469 0.95648 0.41374 0.0
C1695 C 0.36938 0.9432 0.33666 0.0
C1696 C 0.57804 0.42623 0.62853 0.0
C1697 C 0.59551 0.42949 0.66173 0.0
H1698 H 0.56074 0.45239 0.59186 0.0
C1699 C 0.61275 0.46293 0.68116 0.0
H1700 H 0.56449 0.40085 0.61291 0.0
C1701 C 0.61027 0.49276 0.66924 0.0
C1702 C 0.59076 0.48958 0.63758 0.0
H1703 H 0.62607 0.46639 0.70712 0.0
H1704 H 0.62176 0.51825 0.68633 0.0
C1705 C 0.57572 0.45585 0.6166 0.0
C1706 C 0.43355 0.83048 0.42883 0.0
C1707 C 0.4353 0.80345 0.44593 0.0
H1708 H 0.40622 0.85518 0.4008 0.0
C1709 C 0.41001 0.78253 0.45076 0.0
H1710 H 0.45261 0.84715 0.42478 0.0
C1711 C 0.38353 0.7869 0.43665 0.0
C1712 C 0.38174 0.81299 0.41842 0.0
H1713 H 0.41053 0.76146 0.46372 0.0
H1714 H 0.3643 0.76884 0.43863 0.0
C1715 C 0.40704 0.83539 0.41547 0.0
C1716 C 0.05144 0.73143 0.13835 0.0
C1717 C 0.07671 0.75627 0.15876 0.0
H1718 H 0.02999 0.6776 0.11391 0.0
C1719 C 0.10122 0.74486 0.16711 0.0
H1720 H 0.03216 0.73903 0.13112 0.0
C1721 C 0.09998 0.70921 0.15682 0.0
C1722 C 0.07413 0.68434 0.13847 0.0
H1723 H 0.12109 0.76324 0.18266 0.0
H1724 H 0.11883 0.70096 0.16471 0.0
C1725 C 0.05014 0.69603 0.12858 0.0
C1726 C 0.10963 0.30641 0.95679 0.0
C1727 C 0.09017 0.32256 0.94155 0.0
H1728 H 0.15079 0.29741 0.96056 0.0
C1729 C 0.09818 0.34291 0.91806 0.0
H1730 H 0.10421 0.29066 0.97511 0.0
C1731 C 0.12477 0.34657 0.90953 0.0
C1732 C 0.14416 0.3301 0.92438 0.0
H1733 H 0.08373 0.35563 0.90571 0.0
H1734 H 0.12978 0.36162 0.89052 0.0
C1735 C 0.13631 0.31014 0.94831 0.0
C1736 C 0.59257 0.80221 1.01522 0.0
C1737 C 0.56626 0.78248 0.99258 0.0
H1738 H 0.62524 0.80436 0.05964 0.0
C1739 C 0.55519 0.74747 0.99254 0.0
H1740 H 0.60117 0.82948 1.01577 0.0
C1741 C 0.56929 0.73296 0.01667 0.0
C1742 C 0.59414 0.75367 0.04178 0.0
H1743 H 0.53482 0.73205 0.97535 0.0
H1744 H 0.55936 0.70654 0.01783 0.0
C1745 C 0.60628 0.78799 0.0402 0.0
C1746 C 0.2048 0.87256 0.77111 0.0
C1747 C 0.18539 0.84176 0.74892 0.0
H1748 H 0.24855 0.90014 0.79421 0.0
C1749 C 0.19577 0.81598 0.73021 0.0
H1750 H 0.19738 0.89296 0.78559 0.0
C1751 C 0.22496 0.8199 0.73534 0.0
C1752 C 0.24435 0.84998 0.75871 0.0
H1753 H 0.18133 0.79197 0.7128 0.0
H1754 H 0.23234 0.79883 0.72202 0.0
C1755 C 0.23407 0.87679 0.7757 0.0
C1756 C 1.01346 0.41796 0.54736 0.0
C1757 C 1.01696 0.41805 0.51268 0.0
H1758 H 1.02269 0.44737 0.6017 0.0
C1759 C 0.03086 0.4496 0.50591 0.0
H1760 H 1.00294 0.39401 0.55345 0.0
C1761 C 0.04156 0.48022 0.53335 0.0
C1762 C 0.03922 0.47972 0.56831 0.0
H1763 H 0.03374 0.45055 0.47946 0.0
H1764 H 0.05264 0.50398 0.5274 0.0
C1765 C 0.02477 0.44843 0.575 0.0
C1766 C 0.49857 0.33646 0.29768 0.0
C1767 C 0.51891 0.32268 0.31473 0.0
H1768 H 0.46371 0.35805 0.3012 0.0
C1769 C 0.51818 0.31805 0.349 0.0
H1770 H 0.49871 0.34087 0.27154 0.0
C1771 C 0.49783 0.32802 0.36621 0.0
C1772 C 0.47798 0.3426 0.34925 0.0
H1773 H 0.53375 0.30769 0.36286 0.0
H1774 H 0.4977 0.32451 0.3927 0.0
C1775 C 0.47844 0.34639 0.31475 0.0
C1776 C 0.62281 0.62853 0.50992 0.0
C1777 C 0.64074 0.60966 0.49674 0.0
H1778 H 0.59389 0.6325 0.54427 0.0
C1779 C 0.64436 0.58078 0.50989 0.0
H1780 H 0.61947 0.65064 0.50001 0.0
C1781 C 0.62897 0.56961 0.53402 0.0
C1782 C 0.61051 0.58786 0.54642 0.0
H1783 H 0.65775 0.5654 0.49985 0.0
H1784 H 0.631 0.54627 0.54237 0.0
C1785 C 0.6082 0.61808 0.53513 0.0
C1786 C 0.24383 0.83036 0.09909 0.0
C1787 C 0.24986 0.81065 0.06917 0.0
H1788 H 0.25146 0.84501 0.15579 0.0
C1789 C 0.26662 0.78776 0.074 0.0
H1790 H 0.23088 0.84816 0.0963 0.0
C1791 C 0.27801 0.7855 0.10801 0.0
C1792 C 0.27307 0.80627 0.13811 0.0
H1793 H 0.27119 0.77183 0.05135 0.0
H1794 H 0.29067 0.76737 0.11065 0.0
C1795 C 0.25557 0.82846 0.13323 0.0
C1796 C 0.98973 0.60898 0.99207 0.0
C1797 C 0.99261 0.59441 0.95746 0.0
H1798 H 1.00434 0.61676 0.0491 0.0
C1799 C 1.01168 0.57357 0.95539 0.0
H1800 H 0.97551 0.62536 0.99526 0.0
C1801 C 0.02792 0.56862 0.98598 0.0
C1802 C 0.02586 0.58373 0.02055 0.0
H1803 H 1.01486 0.56164 0.92979 0.0
H1804 H 0.04298 0.55344 0.98246 0.0
C1805 C 1.00609 0.60371 0.02314 0.0
C1806 C 0.28468 0.25787 0.70261 0.0
C1807 C 0.31 0.26382 0.69028 0.0
H1808 H 0.26558 0.2636 0.74775 0.0
C1809 C 0.33579 0.28175 0.7151 0.0
H1810 H 0.26442 0.24415 0.68429 0.0
C1811 C 0.33646 0.2923 0.75124 0.0
C1812 C 0.31133 0.28573 0.76375 0.0
H1813 H 0.35577 0.28684 0.70682 0.0
H1814 H 0.35687 0.3055 0.76947 0.0
C1815 C 0.28532 0.26899 0.73896 0.0
C1816 C 0.62378 0.54707 0.2608 0.0
C1817 C 0.62948 0.57723 0.28869 0.0
H1818 H 0.60667 0.52293 0.20519 0.0
C1819 C 0.62191 0.60665 0.28125 0.0
H1820 H 0.62939 0.52394 0.26571 0.0
C1821 C 0.60878 0.60597 0.24686 0.0
C1822 C 0.603 0.5759 0.21885 0.0
H1823 H 0.62593 0.63027 0.30206 0.0
H1824 H 0.60332 0.6293 0.24234 0.0
C1825 C 0.61073 0.54645 0.22614 0.0
C1826 C 0.3235 0.90707 0.95522 0.0
C1827 C 0.29531 0.89786 0.95917 0.0
H1828 H 0.35113 0.90296 0.91944 0.0
C1829 C 0.27287 0.8871 0.92883 0.0
H1830 H 0.34113 0.91566 0.9783 0.0
C1831 C 0.2787 0.88008 0.89499 0.0
C1832 C 0.3069 0.88411 0.89163 0.0
H1833 H 0.25098 0.87969 0.93125 0.0
H1834 H 0.26119 0.86734 0.87208 0.0
C1835 C 0.32925 0.89998 0.92159 0.0
C1836 C 1.01948 0.57022 0.76303 0.0
C1837 C 0.99551 0.58357 0.76266 0.0
H1838 H 0.05055 0.55517 0.73632 0.0
C1839 C 0.98417 0.5905 0.73012 0.0
H1840 H 0.02923 0.56413 0.78687 0.0
C1841 C 0.99694 0.58522 0.70008 0.0
C1842 C 1.02145 0.5726 0.70123 0.0
H1843 H 0.96598 0.60098 0.72812 0.0
H1844 H 0.98794 0.59185 0.67621 0.0
C1845 C 0.03196 0.56489 0.73344 0.0
C1846 C 0.30403 0.31581 0.52478 0.0
C1847 C 0.29065 0.2797 0.51621 0.0
H1848 H 0.31933 0.36086 0.50562 0.0
C1849 C 0.27966 0.2619 0.48021 0.0
H1850 H 0.31314 0.33004 0.55227 0.0
C1851 C 0.28414 0.27927 0.45332 0.0
C1852 C 0.29911 0.31495 0.46193 0.0
H1853 H 0.26988 0.2339 0.4728 0.0
H1854 H 0.27728 0.2643 0.42589 0.0
C1855 C 0.30779 0.33336 0.49797 0.0
C1856 C 0.41308 0.65597 0.54922 0.0
C1857 C 0.39971 0.64758 0.57625 0.0
H1858 H 0.43418 0.63864 0.50888 0.0
C1859 C 0.39677 0.61441 0.58279 0.0
H1860 H 0.41521 0.68129 0.54335 0.0
C1861 C 0.40756 0.59025 0.56337 0.0
C1862 C 0.42135 0.59841 0.53652 0.0
H1863 H 0.38657 0.60723 0.60349 0.0
H1864 H 0.40619 0.56573 0.57079 0.0
C1865 C 0.42367 0.63145 0.52932 0.0
C1866 C 0.96958 1.02154 0.67948 0.0
C1867 C 0.94523 1.01378 0.65196 0.0
H1868 H 1.01478 0.04481 0.69704 0.0
C1869 C 0.9485 1.02103 0.61925 0.0
H1870 H 0.96765 1.01639 0.70501 0.0
C1871 C 0.97559 0.03607 0.61429 0.0
C1872 C 0.99972 0.0454 0.64241 0.0
H1873 H 0.93009 1.01524 0.59759 0.0
H1874 H 0.97751 0.04181 0.58898 0.0
C1875 C 0.99649 0.03785 0.67497 0.0
C1876 C 0.87005 0.09062 0.32356 0.0
C1877 C 0.89452 0.08983 0.31048 0.0
H1878 H 0.83121 0.10507 0.31812 0.0
C1879 C 0.89695 0.09966 0.27866 0.0
H1880 H 0.86748 0.08278 0.34779 0.0
C1881 C 0.8761 0.11244 0.2616 0.0
C1882 C 0.85241 0.115 0.27586 0.0
H1883 H 0.91557 0.09914 0.26791 0.0
H1884 H 0.87898 0.12154 0.23808 0.0
C1885 C 0.84912 0.10296 0.30632 0.0
C1886 C 0.74714 0.19435 0.05161 0.0
C1887 C 0.7722 0.22097 0.06909 0.0
H1888 H 0.70724 0.1632 0.05589 0.0
C1889 C 0.77477 0.23919 0.10436 0.0
H1890 H 0.74448 0.17986 0.02446 0.0
C1891 C 0.75355 0.22933 0.12252 0.0
C1892 C 0.72921 0.20152 0.10552 0.0
H1893 H 0.79379 0.25993 0.11856 0.0
H1894 H 0.75636 0.24296 0.15001 0.0
C1895 C 0.72583 0.1848 0.06962 0.0
C1896 C 0.27845 0.48263 0.40964 0.0
C1897 C 0.25043 0.47891 0.39074 0.0
H1898 H 0.31288 0.45966 0.42169 0.0
C1899 C 0.23608 0.44514 0.36822 0.0
H1900 H 0.2906 0.50756 0.42761 0.0
C1901 C 0.24894 0.41676 0.36544 0.0
C1902 C 0.27702 0.42072 0.38455 0.0
H1903 H 0.21443 0.4402 0.35351 0.0
H1904 H 0.2367 0.39151 0.34819 0.0
C1905 C 0.29141 0.45465 0.40635 0.0
C1906 C 0.29064 0.55031 0.17282 0.0
C1907 C 0.29133 0.51535 0.16257 0.0
H1908 H 0.26578 0.58675 0.17266 0.0
C1909 C 0.26575 0.48954 0.14501 0.0
H1910 H 0.3099 0.57095 0.1863 0.0
C1911 C 0.24019 0.49864 0.1374 0.0
C1912 C 0.23962 0.53376 0.14721 0.0
H1913 H 0.26549 0.46234 0.13682 0.0
H1914 H 0.22088 0.47813 0.12383 0.0
C1915 C 0.26519 0.55938 0.16522 0.0
C1916 C 0.88998 0.94661 0.32778 0.0
C1917 C 0.91377 0.95997 0.35654 0.0
H1918 H 0.84868 0.90967 0.3065 0.0
C1919 C 0.91553 0.94306 0.38433 0.0
H1920 H 0.88779 0.95969 0.30646 0.0
C1921 C 0.89335 0.91447 0.3843 0.0
C1922 C 0.86857 0.90277 0.35694 0.0
H1923 H 0.9334 0.95327 0.40713 0.0
H1924 H 0.8949 0.90294 0.40683 0.0
C1925 C 0.86745 0.91835 0.32809 0.0
C1926 C 0.74197 0.16679 0.86426 0.0
C1927 C 0.74562 0.16095 0.89874 0.0
H1928 H 0.7511 0.20288 0.83143 0.0
C1929 C 0.7619 0.18983 0.92703 0.0
H1930 H 0.72966 0.1456 0.8416 0.0
C1931 C 0.77372 0.22302 0.92126 0.0
C1932 C 0.77035 0.22882 0.88681 0.0
H1933 H 0.76523 0.18698 0.95403 0.0
H1934 H 0.78585 0.24419 0.94402 0.0
C1935 C 0.75437 0.19988 0.85838 0.0
loop_
_geom_bond_atom_site_label_1
_geom_bond_atom_site_label_2
_geom_bond_distance
_geom_bond_site_symmetry_2
_ccdc_geom_bond_type
Mg0 O1 2.030 . S
Mg0 O7 1.994 . S
Mg0 O9 2.094 1_455 S
Mg0 O10 2.215 1_455 S
Mg0 O13 2.043 . S
O1 Mg0 2.030 . S
O1 C4 1.250 . S
O2 Mg3 2.028 . S
O2 C4 1.248 1_655 S
Mg3 O2 2.028 . S
Mg3 O8 2.032 . S
Mg3 O10 2.079 . S
C4 O1 1.250 . S
C4 O2 1.248 1_455 S
C5 O6 1.264 . S
C5 O13 1.249 . S
O6 C5 1.264 . S
O7 Mg0 1.994 . S
O7 C11 1.246 1_455 S
O8 Mg3 2.032 . S
O8 C11 1.259 . S
O9 Mg0 2.094 1_655 S
O9 C12 1.252 . S
O10 Mg0 2.215 1_655 S
O10 Mg3 2.079 . S
O10 C12 1.273 . S
C11 O7 1.246 1_655 S
C11 O8 1.259 . S
C12 O9 1.252 . S
C12 O10 1.273 . S
O13 Mg0 2.043 . S
O13 C5 1.249 . S
Mg14 O15 2.028 . S
Mg14 O21 1.986 . S
Mg14 O23 2.114 . S
Mg14 O24 2.251 . S
Mg14 O27 2.010 . S
O15 Mg14 2.028 . S
O15 C18 1.250 . S
O16 Mg17 2.028 . S
O16 C18 1.248 . S
Mg17 O16 2.028 . S
Mg17 O22 2.032 . S
Mg17 O24 2.079 . S
C18 O15 1.250 . S
C18 O16 1.248 . S
C19 O20 1.264 . S
C19 O27 1.249 . S
O20 C19 1.264 . S
O21 Mg14 1.986 . S
O21 C25 1.246 . S
O22 Mg17 2.032 . S
O22 C25 1.259 . S
O23 Mg14 2.114 . S
O23 C26 1.252 . S
O24 Mg14 2.251 . S
O24 Mg17 2.079 . S
O24 C26 1.273 . S
C25 O21 1.246 . S
C25 O22 1.259 . S
C26 O23 1.252 . S
C26 O24 1.273 . S
O27 Mg14 2.010 . S
O27 C19 1.249 . S
Mg28 O29 2.028 . S
Mg28 O35 1.986 . S
Mg28 O37 2.114 . S
Mg28 O38 2.251 . S
Mg28 O41 2.010 . S
O29 Mg28 2.028 . S
O29 C32 1.250 . S
O30 Mg31 2.028 . S
O30 C32 1.248 . S
Mg31 O30 2.028 . S
Mg31 O36 2.032 . S
Mg31 O38 2.079 . S
C32 O29 1.250 . S
C32 O30 1.248 . S
C33 O34 1.264 . S
C33 O41 1.249 . S
O34 C33 1.264 . S
O35 Mg28 1.986 . S
O35 C39 1.246 . S
O36 Mg31 2.032 . S
O36 C39 1.259 . S
O37 Mg28 2.114 . S
O37 C40 1.252 . S
O38 Mg28 2.251 . S
O38 Mg31 2.079 . S
O38 C40 1.273 . S
C39 O35 1.246 . S
C39 O36 1.259 . S
C40 O37 1.252 . S
C40 O38 1.273 . S
O41 Mg28 2.010 . S
O41 C33 1.249 . S
Mg42 O43 2.028 . S
Mg42 O49 1.986 . S
Mg42 O51 2.114 . S
Mg42 O52 2.251 . S
Mg42 O55 2.010 . S
O43 Mg42 2.028 . S
O43 C46 1.250 . S
O44 Mg45 2.028 . S
O44 C46 1.248 . S
Mg45 O44 2.028 . S
Mg45 O50 2.032 . S
Mg45 O52 2.079 . S
C46 O43 1.250 . S
C46 O44 1.248 . S
C47 O48 1.264 . S
C47 O55 1.249 . S
O48 C47 1.264 . S
O49 Mg42 1.986 . S
O49 C53 1.246 . S
O50 Mg45 2.032 . S
O50 C53 1.259 . S
O51 Mg42 2.114 . S
O51 C54 1.252 . S
O52 Mg42 2.251 . S
O52 Mg45 2.079 . S
O52 C54 1.273 . S
C53 O49 1.246 . S
C53 O50 1.259 . S
C54 O51 1.252 . S
C54 O52 1.273 . S
O55 Mg42 2.010 . S
O55 C47 1.249 . S
Mg56 O57 2.028 . S
Mg56 O63 1.986 . S
Mg56 O65 2.114 . S
Mg56 O66 2.251 . S
Mg56 O69 2.010 . S
O57 Mg56 2.028 . S
O57 C60 1.250 . S
O58 Mg59 2.028 . S
O58 C60 1.248 . S
Mg59 O58 2.028 . S
Mg59 O64 2.032 . S
Mg59 O66 2.079 . S
C60 O57 1.250 . S
C60 O58 1.248 . S
C61 O62 1.264 . S
C61 O69 1.249 . S
O62 C61 1.264 . S
O63 Mg56 1.986 . S
O63 C67 1.246 . S
O64 Mg59 2.032 . S
O64 C67 1.259 . S
O65 Mg56 2.114 . S
O65 C68 1.252 . S
O66 Mg56 2.251 . S
O66 Mg59 2.079 . S
O66 C68 1.273 . S
C67 O63 1.246 . S
C67 O64 1.259 . S
C68 O65 1.252 . S
C68 O66 1.273 . S
O69 Mg56 2.010 . S
O69 C61 1.249 . S
Mg70 O71 2.028 . S
Mg70 O77 1.986 . S
Mg70 O79 2.114 . S
Mg70 O80 2.251 . S
Mg70 O83 2.010 . S
O71 Mg70 2.028 . S
O71 C74 1.250 . S
O72 Mg73 2.028 . S
O72 C74 1.248 . S
Mg73 O72 2.028 . S
Mg73 O78 2.032 . S
Mg73 O80 2.079 . S
C74 O71 1.250 . S
C74 O72 1.248 . S
C75 O76 1.264 . S
C75 O83 1.249 . S
O76 C75 1.264 . S
O77 Mg70 1.986 . S
O77 C81 1.246 . S
O78 Mg73 2.032 . S
O78 C81 1.259 . S
O79 Mg70 2.114 . S
O79 C82 1.252 . S
O80 Mg70 2.251 . S
O80 Mg73 2.079 . S
O80 C82 1.273 . S
C81 O77 1.246 . S
C81 O78 1.259 . S
C82 O79 1.252 . S
C82 O80 1.273 . S
O83 Mg70 2.010 . S
O83 C75 1.249 . S
Mg84 O85 2.028 . S
Mg84 O91 1.986 . S
Mg84 O93 2.114 . S
Mg84 O94 2.251 . S
Mg84 O97 2.010 . S
O85 Mg84 2.028 . S
O85 C88 1.250 . S
O86 Mg87 2.028 . S
O86 C88 1.248 . S
Mg87 O86 2.028 . S
Mg87 O92 2.032 . S
Mg87 O94 2.079 . S
C88 O85 1.250 . S
C88 O86 1.248 . S
C89 O90 1.264 . S
C89 O97 1.249 . S
O90 C89 1.264 . S
O91 Mg84 1.986 . S
O91 C95 1.246 . S
O92 Mg87 2.032 . S
O92 C95 1.259 . S
O93 Mg84 2.114 . S
O93 C96 1.252 . S
O94 Mg84 2.251 . S
O94 Mg87 2.079 . S
O94 C96 1.273 . S
C95 O91 1.246 . S
C95 O92 1.259 . S
C96 O93 1.252 . S
C96 O94 1.273 . S
O97 Mg84 2.010 . S
O97 C89 1.249 . S
Mg98 O99 2.028 1_556 S
Mg98 O105 1.986 1_556 S
Mg98 O107 2.114 1_455 S
Mg98 O108 2.251 1_455 S
Mg98 O111 2.010 . S
O99 Mg98 2.028 1_554 S
O99 C102 1.250 . S
O100 Mg101 2.028 . S
O100 C102 1.248 1_655 S
Mg101 O100 2.028 . S
Mg101 O106 2.032 . S
Mg101 O108 2.079 1_554 S
C102 O99 1.250 . S
C102 O100 1.248 1_455 S
C103 O104 1.264 . S
C103 O111 1.249 . S
O104 C103 1.264 . S
O105 Mg98 1.986 1_554 S
O105 C109 1.246 . S
O106 Mg101 2.032 . S
O106 C109 1.259 1_655 S
O107 Mg98 2.114 1_655 S
O107 C110 1.252 . S
O108 Mg98 2.251 1_655 S
O108 Mg101 2.079 1_556 S
O108 C110 1.273 . S
C109 O105 1.246 . S
C109 O106 1.259 1_455 S
C110 O107 1.252 . S
C110 O108 1.273 . S
O111 Mg98 2.010 . S
O111 C103 1.249 . S
Mg112 O113 2.028 . S
Mg112 O119 1.986 . S
Mg112 O121 2.114 . S
Mg112 O122 2.251 . S
Mg112 O125 2.010 . S
O113 Mg112 2.028 . S
O113 C116 1.250 1_545 S
O114 Mg115 2.028 . S
O114 C116 1.248 1_545 S
Mg115 O114 2.028 . S
Mg115 O120 2.032 . S
Mg115 O122 2.079 . S
C116 O113 1.250 1_565 S
C116 O114 1.248 1_565 S
C117 O118 1.264 . S
C117 O125 1.249 . S
O118 C117 1.264 . S
O119 Mg112 1.986 . S
O119 C123 1.246 . S
O120 Mg115 2.032 . S
O120 C123 1.259 . S
O121 Mg112 2.114 . S
O121 C124 1.252 . S
O122 Mg112 2.251 . S
O122 Mg115 2.079 . S
O122 C124 1.273 . S
C123 O119 1.246 . S
C123 O120 1.259 . S
C124 O121 1.252 . S
C124 O122 1.273 . S
O125 Mg112 2.010 . S
O125 C117 1.249 . S
Mg126 O127 2.028 . S
Mg126 O133 1.986 . S
Mg126 O135 2.114 . S
Mg126 O136 2.251 . S
Mg126 O139 2.010 . S
O127 Mg126 2.028 . S
O127 C130 1.250 . S
O128 Mg129 2.028 . S
O128 C130 1.248 . S
Mg129 O128 2.028 . S
Mg129 O134 2.032 . S
Mg129 O136 2.079 . S
C130 O127 1.250 . S
C130 O128 1.248 . S
C131 O132 1.264 . S
C131 O139 1.249 . S
O132 C131 1.264 . S
O133 Mg126 1.986 . S
O133 C137 1.246 . S
O134 Mg129 2.032 . S
O134 C137 1.259 . S
O135 Mg126 2.114 . S
O135 C138 1.252 . S
O136 Mg126 2.251 . S
O136 Mg129 2.079 . S
O136 C138 1.273 . S
C137 O133 1.246 . S
C137 O134 1.259 . S
C138 O135 1.252 . S
C138 O136 1.273 . S
O139 Mg126 2.010 . S
O139 C131 1.249 . S
Mg140 O141 2.028 . S
Mg140 O147 1.986 . S
Mg140 O149 2.114 . S
Mg140 O150 2.251 . S
Mg140 O153 2.010 . S
O141 Mg140 2.028 . S
O141 C144 1.250 . S
O142 Mg143 2.028 . S
O142 C144 1.248 . S
Mg143 O142 2.028 . S
Mg143 O148 2.032 . S
Mg143 O150 2.079 . S
C144 O141 1.250 . S
C144 O142 1.248 . S
C145 O146 1.264 . S
C145 O153 1.249 . S
O146 C145 1.264 . S
O147 Mg140 1.986 . S
O147 C151 1.246 . S
O148 Mg143 2.032 . S
O148 C151 1.259 . S
O149 Mg140 2.114 . S
O149 C152 1.252 . S
O150 Mg140 2.251 . S
O150 Mg143 2.079 . S
O150 C152 1.273 . S
C151 O147 1.246 . S
C151 O148 1.259 . S
C152 O149 1.252 . S
C152 O150 1.273 . S
O153 Mg140 2.010 . S
O153 C145 1.249 . S
Mg154 O155 2.028 1_554 S
Mg154 O161 1.986 . S
Mg154 O163 2.114 . S
Mg154 O164 2.251 . S
Mg154 O167 2.010 . S
O155 Mg154 2.028 1_556 S
O155 C158 1.250 . S
O156 Mg157 2.028 1_556 S
O156 C158 1.248 . S
Mg157 O156 2.028 1_554 S
Mg157 O162 2.032 . S
Mg157 O164 2.079 . S
C158 O155 1.250 . S
C158 O156 1.248 . S
C159 O160 1.264 . S
C159 O167 1.249 . S
O160 C159 1.264 . S
O161 Mg154 1.986 . S
O161 C165 1.246 . S
O162 Mg157 2.032 . S
O162 C165 1.259 . S
O163 Mg154 2.114 . S
O163 C166 1.252 . S
O164 Mg154 2.251 . S
O164 Mg157 2.079 . S
O164 C166 1.273 . S
C165 O161 1.246 . S
C165 O162 1.259 . S
C166 O163 1.252 . S
C166 O164 1.273 . S
O167 Mg154 2.010 . S
O167 C159 1.249 . S
Mg168 O169 2.028 . S
Mg168 O175 1.986 . S
Mg168 O177 2.114 . S
Mg168 O178 2.251 . S
Mg168 O181 2.010 . S
O169 Mg168 2.028 . S
O169 C172 1.250 . S
O170 Mg171 2.028 . S
O170 C172 1.248 . S
Mg171 O170 2.028 . S
Mg171 O176 2.032 . S
Mg171 O178 2.079 . S
C172 O169 1.250 . S
C172 O170 1.248 . S
C173 O174 1.264 . S
C173 O181 1.249 . S
O174 C173 1.264 . S
O175 Mg168 1.986 . S
O175 C179 1.246 . S
O176 Mg171 2.032 . S
O176 C179 1.259 . S
O177 Mg168 2.114 . S
O177 C180 1.252 . S
O178 Mg168 2.251 . S
O178 Mg171 2.079 . S
O178 C180 1.273 . S
C179 O175 1.246 . S
C179 O176 1.259 . S
C180 O177 1.252 . S
C180 O178 1.273 . S
O181 Mg168 2.010 . S
O181 C173 1.249 . S
Mg182 O183 2.028 . S
Mg182 O189 1.986 . S
Mg182 O191 2.114 . S
Mg182 O192 2.251 . S
Mg182 O195 2.010 . S
O183 Mg182 2.028 . S
O183 C186 1.250 . S
O184 Mg185 2.028 . S
O184 C186 1.248 . S
Mg185 O184 2.028 . S
Mg185 O190 2.032 . S
Mg185 O192 2.079 . S
C186 O183 1.250 . S
C186 O184 1.248 . S
C187 O188 1.264 . S
C187 O195 1.249 . S
O188 C187 1.264 . S
O189 Mg182 1.986 . S
O189 C193 1.246 . S
O190 Mg185 2.032 . S
O190 C193 1.259 . S
O191 Mg182 2.114 . S
O191 C194 1.252 . S
O192 Mg182 2.251 . S
O192 Mg185 2.079 . S
O192 C194 1.273 . S
C193 O189 1.246 . S
C193 O190 1.259 . S
C194 O191 1.252 . S
C194 O192 1.273 . S
O195 Mg182 2.010 . S
O195 C187 1.249 . S
Mg196 O197 2.028 . S
Mg196 O203 1.986 . S
Mg196 O205 2.114 . S
Mg196 O206 2.251 . S
Mg196 O209 2.010 . S
O197 Mg196 2.028 . S
O197 C200 1.250 . S
O198 Mg199 2.028 . S
O198 C200 1.248 . S
Mg199 O198 2.028 . S
Mg199 O204 2.032 . S
Mg199 O206 2.079 . S
C200 O197 1.250 . S
C200 O198 1.248 . S
C201 O202 1.264 . S
C201 O209 1.249 . S
O202 C201 1.264 . S
O203 Mg196 1.986 . S
O203 C207 1.246 . S
O204 Mg199 2.032 . S
O204 C207 1.259 . S
O205 Mg196 2.114 . S
O205 C208 1.252 . S
O206 Mg196 2.251 . S
O206 Mg199 2.079 . S
O206 C208 1.273 . S
C207 O203 1.246 . S
C207 O204 1.259 . S
C208 O205 1.252 . S
C208 O206 1.273 . S
O209 Mg196 2.010 . S
O209 C201 1.249 . S
Mg210 O211 2.028 . S
Mg210 O217 1.986 . S
Mg210 O219 2.114 . S
Mg210 O220 2.251 . S
Mg210 O223 2.010 . S
O211 Mg210 2.028 . S
O211 C214 1.250 . S
O212 Mg213 2.028 . S
O212 C214 1.248 . S
Mg213 O212 2.028 . S
Mg213 O218 2.032 . S
Mg213 O220 2.079 . S
C214 O211 1.250 . S
C214 O212 1.248 . S
C215 O216 1.264 . S
C215 O223 1.249 . S
O216 C215 1.264 . S
O217 Mg210 1.986 . S
O217 C221 1.246 . S
O218 Mg213 2.032 . S
O218 C221 1.259 . S
O219 Mg210 2.114 . S
O219 C222 1.252 . S
O220 Mg210 2.251 . S
O220 Mg213 2.079 . S
O220 C222 1.273 . S
C221 O217 1.246 . S
C221 O218 1.259 . S
C222 O219 1.252 . S
C222 O220 1.273 . S
O223 Mg210 2.010 . S
O223 C215 1.249 . S
Mg224 O225 2.028 1_545 S
Mg224 O231 1.986 . S
Mg224 O233 2.114 . S
Mg224 O234 2.251 . S
Mg224 O237 2.010 . S
O225 Mg224 2.028 1_565 S
O225 C228 1.250 . S
O226 Mg227 2.028 1_565 S
O226 C228 1.248 . S
Mg227 O226 2.028 1_545 S
Mg227 O232 2.032 . S
Mg227 O234 2.079 . S
C228 O225 1.250 . S
C228 O226 1.248 . S
C229 O230 1.266 . S
C229 O237 1.249 . S
O230 C229 1.266 . S
O231 Mg224 1.986 . S
O231 C235 1.246 . S
O232 Mg227 2.032 . S
O232 C235 1.259 . S
O233 Mg224 2.114 . S
O233 C236 1.252 . S
O234 Mg224 2.251 . S
O234 Mg227 2.079 . S
O234 C236 1.273 . S
C235 O231 1.246 . S
C235 O232 1.259 . S
C236 O233 1.252 . S
C236 O234 1.273 . S
O237 Mg224 2.010 . S
O237 C229 1.249 . S
Mg238 O239 2.028 . S
Mg238 O245 1.986 . S
Mg238 O247 2.114 . S
Mg238 O248 2.251 . S
Mg238 O251 2.010 . S
O239 Mg238 2.028 . S
O239 C242 1.250 . S
O240 Mg241 2.028 . S
O240 C242 1.248 . S
Mg241 O240 2.028 . S
Mg241 O246 2.032 . S
Mg241 O248 2.079 . S
C242 O239 1.250 . S
C242 O240 1.248 . S
C243 O244 1.264 . S
C243 O251 1.249 . S
O244 C243 1.264 . S
O245 Mg238 1.986 . S
O245 C249 1.246 . S
O246 Mg241 2.032 . S
O246 C249 1.259 . S
O247 Mg238 2.114 . S
O247 C250 1.252 . S
O248 Mg238 2.251 . S
O248 Mg241 2.079 . S
O248 C250 1.273 . S
C249 O245 1.246 . S
C249 O246 1.259 . S
C250 O247 1.252 . S
C250 O248 1.273 . S
O251 Mg238 2.010 . S
O251 C243 1.249 . S
Mg252 O253 2.028 . S
Mg252 O259 1.986 . S
Mg252 O261 2.114 . S
Mg252 O262 2.251 . S
Mg252 O265 2.010 . S
O253 Mg252 2.028 . S
O253 C256 1.250 . S
O254 Mg255 2.028 . S
O254 C256 1.248 . S
Mg255 O254 2.028 . S
Mg255 O260 2.032 . S
Mg255 O262 2.079 . S
C256 O253 1.250 . S
C256 O254 1.248 . S
C257 O258 1.264 . S
C257 O265 1.249 . S
O258 C257 1.264 . S
O259 Mg252 1.986 . S
O259 C263 1.246 . S
O260 Mg255 2.032 . S
O260 C263 1.259 . S
O261 Mg252 2.114 . S
O261 C264 1.252 . S
O262 Mg252 2.251 . S
O262 Mg255 2.079 . S
O262 C264 1.273 . S
C263 O259 1.246 . S
C263 O260 1.259 . S
C264 O261 1.252 . S
C264 O262 1.273 . S
O265 Mg252 2.010 . S
O265 C257 1.249 . S
Mg266 O267 2.028 . S
Mg266 O273 1.986 . S
Mg266 O275 2.114 . S
Mg266 O276 2.251 . S
Mg266 O279 2.010 . S
O267 Mg266 2.028 . S
O267 C270 1.250 . S
O268 Mg269 2.028 . S
O268 C270 1.248 . S
Mg269 O268 2.028 . S
Mg269 O274 2.032 . S
Mg269 O276 2.079 . S
C270 O267 1.250 . S
C270 O268 1.248 . S
C271 O272 1.264 1_545 S
C271 O279 1.249 . S
O272 C271 1.264 1_565 S
O273 Mg266 1.986 . S
O273 C277 1.246 . S
O274 Mg269 2.032 . S
O274 C277 1.259 . S
O275 Mg266 2.114 . S
O275 C278 1.252 . S
O276 Mg266 2.251 . S
O276 Mg269 2.079 . S
O276 C278 1.273 . S
C277 O273 1.246 . S
C277 O274 1.259 . S
C278 O275 1.252 . S
C278 O276 1.273 . S
O279 Mg266 2.010 . S
O279 C271 1.249 . S
Mg280 O281 2.028 . S
Mg280 O287 1.986 . S
Mg280 O289 2.114 . S
Mg280 O290 2.251 . S
Mg280 O293 2.010 . S
O281 Mg280 2.028 . S
O281 C284 1.250 . S
O282 Mg283 2.028 . S
O282 C284 1.248 . S
Mg283 O282 2.028 . S
Mg283 O288 2.032 . S
Mg283 O290 2.079 . S
C284 O281 1.250 . S
C284 O282 1.248 . S
C285 O286 1.264 . S
C285 O293 1.249 . S
O286 C285 1.264 . S
O287 Mg280 1.986 . S
O287 C291 1.246 . S
O288 Mg283 2.032 . S
O288 C291 1.259 . S
O289 Mg280 2.114 . S
O289 C292 1.252 . S
O290 Mg280 2.251 . S
O290 Mg283 2.079 . S
O290 C292 1.273 . S
C291 O287 1.246 . S
C291 O288 1.259 . S
C292 O289 1.252 . S
C292 O290 1.273 . S
O293 Mg280 2.010 . S
O293 C285 1.249 . S
Mg294 O295 2.028 . S
Mg294 O301 1.986 . S
Mg294 O303 2.114 . S
Mg294 O304 2.251 . S
Mg294 O307 2.010 . S
O295 Mg294 2.028 . S
O295 C298 1.250 . S
O296 Mg297 2.028 . S
O296 C298 1.248 . S
Mg297 O296 2.028 . S
Mg297 O302 2.032 . S
Mg297 O304 2.079 . S
C298 O295 1.250 . S
C298 O296 1.248 . S
C299 O300 1.264 . S
C299 O307 1.249 . S
O300 C299 1.264 . S
O301 Mg294 1.986 . S
O301 C305 1.246 . S
O302 Mg297 2.032 . S
O302 C305 1.259 . S
O303 Mg294 2.114 . S
O303 C306 1.252 . S
O304 Mg294 2.251 . S
O304 Mg297 2.079 . S
O304 C306 1.273 . S
C305 O301 1.246 . S
C305 O302 1.259 . S
C306 O303 1.252 . S
C306 O304 1.273 . S
O307 Mg294 2.010 . S
O307 C299 1.249 . S
Mg308 O309 2.028 . S
Mg308 O315 1.986 . S
Mg308 O317 2.114 . S
Mg308 O318 2.251 . S
Mg308 O321 2.010 . S
O309 Mg308 2.028 . S
O309 C312 1.250 . S
O310 Mg311 2.028 . S
O310 C312 1.248 . S
Mg311 O310 2.028 . S
Mg311 O316 2.032 . S
Mg311 O318 2.079 . S
C312 O309 1.250 . S
C312 O310 1.248 . S
C313 O314 1.264 . S
C313 O321 1.249 . S
O314 C313 1.264 . S
O315 Mg308 1.986 . S
O315 C319 1.246 . S
O316 Mg311 2.032 . S
O316 C319 1.259 . S
O317 Mg308 2.114 . S
O317 C320 1.252 . S
O318 Mg308 2.251 . S
O318 Mg311 2.079 . S
O318 C320 1.273 . S
C319 O315 1.246 . S
C319 O316 1.259 . S
C320 O317 1.252 . S
C320 O318 1.273 . S
O321 Mg308 2.010 . S
O321 C313 1.249 . S
Mg322 O323 2.028 . S
Mg322 O329 1.986 . S
Mg322 O331 2.114 . S
Mg322 O332 2.251 . S
Mg322 O335 2.010 . S
O323 Mg322 2.028 . S
O323 C326 1.250 . S
O324 Mg325 2.028 . S
O324 C326 1.248 . S
Mg325 O324 2.028 . S
Mg325 O330 2.032 . S
Mg325 O332 2.079 . S
C326 O323 1.250 . S
C326 O324 1.248 . S
C327 O328 1.264 . S
C327 O335 1.249 . S
O328 C327 1.264 . S
O329 Mg322 1.986 . S
O329 C333 1.246 . S
O330 Mg325 2.032 . S
O330 C333 1.259 . S
O331 Mg322 2.114 . S
O331 C334 1.252 . S
O332 Mg322 2.251 . S
O332 Mg325 2.079 . S
O332 C334 1.273 . S
C333 O329 1.246 . S
C333 O330 1.259 . S
C334 O331 1.252 . S
C334 O332 1.273 . S
O335 Mg322 2.010 . S
O335 C327 1.249 . S
Tb336 C338 2.809 . S
Tb336 O356 2.484 . S
Tb336 O357 2.440 . S
Tb336 O358 2.658 1_655 S
Tb336 O359 2.409 1_655 S
Tb336 O360 2.378 1_655 S
Tb336 O364 2.325 1_655 S
Tb336 O367 2.341 1_645 S
Tb337 C347 2.809 . S
Tb337 O358 2.325 . S
Tb337 O361 2.341 . S
Tb337 O362 2.484 . S
Tb337 O363 2.440 . S
Tb337 O364 2.658 . S
Tb337 O365 2.409 . S
Tb337 O366 2.378 1_545 S
C338 Tb336 2.809 . S
C338 C339 1.514 . S
C338 O356 1.248 . S
C338 O357 1.266 . S
C339 C338 1.514 . S
C339 C340 1.359 . S
C339 C344 1.348 . S
C340 C339 1.359 . S
C340 C341 1.380 . S
C340 H368 0.929 . S
C341 C340 1.380 . S
C341 C342 1.347 . S
C341 H369 0.931 . S
C342 C341 1.347 . S
C342 C343 1.369 . S
C343 C342 1.369 . S
C343 C344 1.408 . S
C343 H370 0.930 1_554 S
C344 C339 1.348 . S
C344 C343 1.408 . S
C344 H371 0.917 1_554 S
C345 O358 1.281 . S
C345 O359 1.254 . S
C346 O360 1.236 . S
C346 O361 1.266 . S
C347 Tb337 2.809 . S
C347 C348 1.514 1_545 S
C347 O362 1.248 . S
C347 O363 1.266 . S
C348 C347 1.514 1_565 S
C348 C349 1.359 . S
C348 C353 1.348 . S
C349 C348 1.359 . S
C349 C350 1.380 . S
C349 H372 0.929 . S
C350 C349 1.380 . S
C350 C351 1.347 . S
C350 H373 0.931 . S
C351 C350 1.347 . S
C351 C352 1.369 . S
C352 C351 1.369 . S
C352 C353 1.408 . S
C352 H374 0.930 . S
C353 C348 1.348 . S
C353 C352 1.408 . S
C353 H375 0.930 1_565 S
C354 O364 1.281 . S
C354 O365 1.254 . S
C355 O366 1.236 . S
C355 O367 1.266 . S
O356 Tb336 2.484 . S
O356 C338 1.248 . S
O357 Tb336 2.440 . S
O357 C338 1.266 . S
O358 Tb336 2.658 1_455 S
O358 Tb337 2.325 . S
O358 C345 1.281 . S
O359 Tb336 2.409 1_455 S
O359 C345 1.254 . S
O360 Tb336 2.378 1_455 S
O360 C346 1.236 . S
O361 Tb337 2.341 . S
O361 C346 1.266 . S
O362 Tb337 2.484 . S
O362 C347 1.248 . S
O363 Tb337 2.440 . S
O363 C347 1.266 . S
O364 Tb336 2.325 1_455 S
O364 Tb337 2.658 . S
O364 C354 1.281 . S
O365 Tb337 2.409 . S
O365 C354 1.254 . S
O366 Tb337 2.378 1_565 S
O366 C355 1.236 . S
O367 Tb336 2.341 1_465 S
O367 C355 1.266 . S
H368 C340 0.929 . S
H369 C341 0.931 . S
H370 C343 0.930 1_556 S
H371 C344 0.917 1_556 S
H372 C349 0.929 . S
H373 C350 0.931 . S
H374 C352 0.930 . S
H375 C353 0.930 1_545 S
Tb376 C378 2.809 . S
Tb376 O396 2.484 . S
Tb376 O397 2.440 . S
Tb376 O398 2.658 . S
Tb376 O399 2.409 . S
Tb376 O400 2.378 . S
Tb376 O404 2.325 . S
Tb376 O407 2.341 . S
Tb377 C387 2.809 . S
Tb377 O398 2.325 . S
Tb377 O401 2.341 . S
Tb377 O402 2.484 . S
Tb377 O403 2.440 . S
Tb377 O404 2.658 . S
Tb377 O405 2.409 . S
Tb377 O406 2.378 . S
C378 Tb376 2.809 . S
C378 C379 1.514 . S
C378 O396 1.248 . S
C378 O397 1.266 . S
C379 C378 1.514 . S
C379 C380 1.359 . S
C379 C384 1.348 . S
C380 C379 1.359 . S
C380 C381 1.380 . S
C380 H408 0.929 . S
C381 C380 1.380 . S
C381 C382 1.347 . S
C381 H409 0.931 . S
C382 C381 1.347 . S
C382 C383 1.369 . S
C383 C382 1.369 . S
C383 C384 1.408 . S
C383 H410 0.930 . S
C384 C379 1.348 . S
C384 C383 1.408 . S
C384 H411 0.930 . S
C385 O398 1.281 . S
C385 O399 1.254 . S
C386 O400 1.236 . S
C386 O401 1.266 . S
C387 Tb377 2.809 . S
C387 C388 1.514 . S
C387 O402 1.248 . S
C387 O403 1.266 . S
C388 C387 1.514 . S
C388 C389 1.359 . S
C388 C393 1.348 . S
C389 C388 1.359 . S
C389 C390 1.380 . S
C389 H412 0.929 . S
C390 C389 1.380 . S
C390 C391 1.347 . S
C390 H413 0.931 . S
C391 C390 1.347 . S
C391 C392 1.369 . S
C392 C391 1.369 . S
C392 C393 1.408 . S
C392 H414 0.930 . S
C393 C388 1.348 . S
C393 C392 1.408 . S
C393 H415 0.930 . S
C394 O404 1.281 . S
C394 O405 1.254 . S
C395 O406 1.236 . S
C395 O407 1.266 . S
O396 Tb376 2.484 . S
O396 C378 1.248 . S
O397 Tb376 2.440 . S
O397 C378 1.266 . S
O398 Tb376 2.658 . S
O398 Tb377 2.325 . S
O398 C385 1.281 . S
O399 Tb376 2.409 . S
O399 C385 1.254 . S
O400 Tb376 2.378 . S
O400 C386 1.236 . S
O401 Tb377 2.341 . S
O401 C386 1.266 . S
O402 Tb377 2.484 . S
O402 C387 1.248 . S
O403 Tb377 2.440 . S
O403 C387 1.266 . S
O404 Tb376 2.325 . S
O404 Tb377 2.658 . S
O404 C394 1.281 . S
O405 Tb377 2.409 . S
O405 C394 1.254 . S
O406 Tb377 2.378 . S
O406 C395 1.236 . S
O407 Tb376 2.341 . S
O407 C395 1.266 . S
H408 C380 0.929 . S
H409 C381 0.931 . S
H410 C383 0.930 . S
H411 C384 0.930 . S
H412 C389 0.929 . S
H413 C390 0.931 . S
H414 C392 0.930 . S
H415 C393 0.930 . S
Tb416 C418 2.809 . S
Tb416 O436 2.484 . S
Tb416 O437 2.440 . S
Tb416 O438 2.658 . S
Tb416 O439 2.409 . S
Tb416 O440 2.378 1_545 S
Tb416 O444 2.325 . S
Tb416 O447 2.341 . S
Tb417 C427 2.809 . S
Tb417 O438 2.325 . S
Tb417 O441 2.341 1_545 S
Tb417 O442 2.484 . S
Tb417 O443 2.440 . S
Tb417 O444 2.658 . S
Tb417 O445 2.409 . S
Tb417 O446 2.378 . S
C418 Tb416 2.809 . S
C418 C419 1.514 1_545 S
C418 O436 1.248 . S
C418 O437 1.266 . S
C419 C418 1.514 1_565 S
C419 C420 1.359 . S
C419 C424 1.348 . S
C420 C419 1.359 . S
C420 C421 1.380 . S
C420 H448 0.929 . S
C421 C420 1.380 . S
C421 C422 1.347 . S
C421 H449 0.931 . S
C422 C421 1.347 . S
C422 C423 1.369 . S
C423 C422 1.369 . S
C423 C424 1.408 . S
C423 H450 0.930 . S
C424 C419 1.348 . S
C424 C423 1.408 . S
C424 H451 0.930 . S
C425 O438 1.281 . S
C425 O439 1.254 . S
C426 O440 1.236 . S
C426 O441 1.266 . S
C427 Tb417 2.809 . S
C427 C428 1.514 . S
C427 O442 1.248 . S
C427 O443 1.266 . S
C428 C427 1.514 . S
C428 C429 1.359 . S
C428 C433 1.348 . S
C429 C428 1.359 . S
C429 C430 1.380 . S
C429 H452 0.929 . S
C430 C429 1.380 . S
C430 C431 1.347 . S
C430 H453 0.931 . S
C431 C430 1.347 . S
C431 C432 1.369 . S
C432 C431 1.369 . S
C432 C433 1.408 . S
C432 H454 0.930 . S
C433 C428 1.348 . S
C433 C432 1.408 . S
C433 H455 0.930 . S
C434 O444 1.281 . S
C434 O445 1.254 . S
C435 O446 1.236 . S
C435 O447 1.266 . S
O436 Tb416 2.484 . S
O436 C418 1.248 . S
O437 Tb416 2.440 . S
O437 C418 1.266 . S
O438 Tb416 2.658 . S
O438 Tb417 2.325 . S
O438 C425 1.281 . S
O439 Tb416 2.409 . S
O439 C425 1.254 . S
O440 Tb416 2.378 1_565 S
O440 C426 1.236 . S
O441 Tb417 2.341 1_565 S
O441 C426 1.266 . S
O442 Tb417 2.484 . S
O442 C427 1.248 . S
O443 Tb417 2.440 . S
O443 C427 1.266 . S
O444 Tb416 2.325 . S
O444 Tb417 2.658 . S
O444 C434 1.281 . S
O445 Tb417 2.409 . S
O445 C434 1.254 . S
O446 Tb417 2.378 . S
O446 C435 1.236 . S
O447 Tb416 2.341 . S
O447 C435 1.266 . S
H448 C420 0.929 . S
H449 C421 0.931 . S
H450 C423 0.930 . S
H451 C424 0.930 . S
H452 C429 0.929 . S
H453 C430 0.931 . S
H454 C432 0.930 . S
H455 C433 0.930 . S
Tb456 C458 2.809 . S
Tb456 O476 2.484 . S
Tb456 O477 2.440 . S
Tb456 O478 2.658 . S
Tb456 O479 2.409 . S
Tb456 O480 2.378 . S
Tb456 O484 2.325 . S
Tb456 O487 2.341 . S
Tb457 C467 2.809 . S
Tb457 O478 2.325 . S
Tb457 O481 2.341 . S
Tb457 O482 2.484 . S
Tb457 O483 2.440 . S
Tb457 O484 2.658 . S
Tb457 O485 2.409 . S
Tb457 O486 2.378 . S
C458 Tb456 2.809 . S
C458 C459 1.514 . S
C458 O476 1.248 . S
C458 O477 1.266 . S
C459 C458 1.514 . S
C459 C460 1.359 . S
C459 C464 1.348 . S
C460 C459 1.359 . S
C460 C461 1.380 . S
C460 H488 0.929 . S
C461 C460 1.380 . S
C461 C462 1.347 . S
C461 H489 0.931 . S
C462 C461 1.347 . S
C462 C463 1.369 . S
C463 C462 1.369 . S
C463 C464 1.408 . S
C463 H490 0.930 . S
C464 C459 1.348 . S
C464 C463 1.408 . S
C464 H491 0.930 . S
C465 O478 1.281 . S
C465 O479 1.254 . S
C466 O480 1.236 . S
C466 O481 1.266 . S
C467 Tb457 2.809 . S
C467 C468 1.514 . S
C467 O482 1.248 . S
C467 O483 1.266 . S
C468 C467 1.514 . S
C468 C469 1.359 . S
C468 C473 1.348 . S
C469 C468 1.359 . S
C469 C470 1.380 . S
C469 H492 0.929 . S
C470 C469 1.380 . S
C470 C471 1.347 . S
C470 H493 0.931 . S
C471 C470 1.347 . S
C471 C472 1.369 . S
C472 C471 1.369 . S
C472 C473 1.408 . S
C472 H494 0.930 . S
C473 C468 1.348 . S
C473 C472 1.408 . S
C473 H495 0.930 . S
C474 O484 1.281 . S
C474 O485 1.254 . S
C475 O486 1.236 . S
C475 O487 1.266 . S
O476 Tb456 2.484 . S
O476 C458 1.248 . S
O477 Tb456 2.440 . S
O477 C458 1.266 . S
O478 Tb456 2.658 . S
O478 Tb457 2.325 . S
O478 C465 1.281 . S
O479 Tb456 2.409 . S
O479 C465 1.254 . S
O480 Tb456 2.378 . S
O480 C466 1.236 . S
O481 Tb457 2.341 . S
O481 C466 1.266 . S
O482 Tb457 2.484 . S
O482 C467 1.248 . S
O483 Tb457 2.440 . S
O483 C467 1.266 . S
O484 Tb456 2.325 . S
O484 Tb457 2.658 . S
O484 C474 1.281 . S
O485 Tb457 2.409 . S
O485 C474 1.254 . S
O486 Tb457 2.378 . S
O486 C475 1.236 . S
O487 Tb456 2.341 . S
O487 C475 1.266 . S
H488 C460 0.929 . S
H489 C461 0.931 . S
H490 C463 0.930 . S
H491 C464 0.930 . S
H492 C469 0.929 . S
H493 C470 0.931 . S
H494 C472 0.930 . S
H495 C473 0.930 . S
Tb496 C498 2.809 . S
Tb496 O516 2.484 . S
Tb496 O517 2.440 1_455 S
Tb496 O518 2.658 . S
Tb496 O519 2.409 1_455 S
Tb496 O520 2.378 . S
Tb496 O524 2.325 . S
Tb496 O527 2.341 . S
Tb497 C507 2.823 . S
Tb497 O518 2.316 1_565 S
Tb497 O521 2.333 1_565 S
Tb497 O522 2.496 . S
Tb497 O523 2.454 . S
Tb497 O524 2.643 1_565 S
Tb497 O525 2.403 1_565 S
Tb497 O526 2.374 1_565 S
C498 Tb496 2.809 . S
C498 C499 1.514 . S
C498 O516 1.248 . S
C498 O517 1.266 1_455 S
C499 C498 1.514 . S
C499 C500 1.359 . S
C499 C504 1.348 1_455 S
C500 C499 1.359 . S
C500 C501 1.380 . S
C500 H528 0.929 . S
C501 C500 1.380 . S
C501 C502 1.347 1_455 S
C501 H529 0.931 . S
C502 C501 1.347 1_655 S
C502 C503 1.369 . S
C503 C502 1.369 . S
C503 C504 1.408 . S
C503 H530 0.930 . S
C504 C499 1.348 1_655 S
C504 C503 1.408 . S
C504 H531 0.930 . S
C505 O518 1.281 1_655 S
C505 O519 1.254 . S
C506 O520 1.236 . S
C506 O521 1.266 . S
C507 Tb497 2.823 . S
C507 C508 1.514 . S
C507 O522 1.248 . S
C507 O523 1.266 . S
C508 C507 1.514 . S
C508 C509 1.359 . S
C508 C513 1.348 . S
C509 C508 1.359 . S
C509 C510 1.380 . S
C509 H532 0.929 . S
C510 C509 1.380 . S
C510 C511 1.347 . S
C510 H533 0.931 . S
C511 C510 1.347 . S
C511 C512 1.369 . S
C512 C511 1.369 . S
C512 C513 1.408 . S
C512 H534 0.930 . S
C513 C508 1.348 . S
C513 C512 1.408 . S
C513 H535 0.930 . S
C514 O524 1.281 . S
C514 O525 1.254 . S
C515 O526 1.236 . S
C515 O527 1.266 . S
O516 Tb496 2.484 . S
O516 C498 1.248 . S
O517 Tb496 2.440 1_655 S
O517 C498 1.266 1_655 S
O518 Tb496 2.658 . S
O518 Tb497 2.316 1_545 S
O518 C505 1.281 1_455 S
O519 Tb496 2.409 1_655 S
O519 C505 1.254 . S
O520 Tb496 2.378 . S
O520 C506 1.236 . S
O521 Tb497 2.333 1_545 S
O521 C506 1.266 . S
O522 Tb497 2.496 . S
O522 C507 1.248 . S
O523 Tb497 2.454 . S
O523 C507 1.266 . S
O524 Tb496 2.325 . S
O524 Tb497 2.643 1_545 S
O524 C514 1.281 . S
O525 Tb497 2.403 1_545 S
O525 C514 1.254 . S
O526 Tb497 2.374 1_545 S
O526 C515 1.236 . S
O527 Tb496 2.341 . S
O527 C515 1.266 . S
H528 C500 0.929 . S
H529 C501 0.931 . S
H530 C503 0.930 . S
H531 C504 0.930 . S
H532 C509 0.929 . S
H533 C510 0.931 . S
H534 C512 0.930 . S
H535 C513 0.930 . S
Tb536 C538 2.809 . S
Tb536 O556 2.484 . S
Tb536 O557 2.440 . S
Tb536 O558 2.658 . S
Tb536 O559 2.409 . S
Tb536 O560 2.378 . S
Tb536 O564 2.325 . S
Tb536 O567 2.341 . S
Tb537 C547 2.809 . S
Tb537 O558 2.325 . S
Tb537 O561 2.341 . S
Tb537 O562 2.484 . S
Tb537 O563 2.440 . S
Tb537 O564 2.658 . S
Tb537 O565 2.409 . S
Tb537 O566 2.378 . S
C538 Tb536 2.809 . S
C538 C539 1.514 . S
C538 O556 1.248 . S
C538 O557 1.266 . S
C539 C538 1.514 . S
C539 C540 1.359 . S
C539 C544 1.348 . S
C540 C539 1.359 . S
C540 C541 1.380 . S
C540 H568 0.929 . S
C541 C540 1.380 . S
C541 C542 1.347 . S
C541 H569 0.931 . S
C542 C541 1.347 . S
C542 C543 1.369 . S
C543 C542 1.369 . S
C543 C544 1.408 . S
C543 H570 0.930 . S
C544 C539 1.348 . S
C544 C543 1.408 . S
C544 H571 0.930 . S
C545 O558 1.281 . S
C545 O559 1.254 . S
C546 O560 1.236 . S
C546 O561 1.266 . S
C547 Tb537 2.809 . S
C547 C548 1.514 . S
C547 O562 1.248 . S
C547 O563 1.266 . S
C548 C547 1.514 . S
C548 C549 1.359 . S
C548 C553 1.348 . S
C549 C548 1.359 . S
C549 C550 1.380 . S
C549 H572 0.929 . S
C550 C549 1.380 . S
C550 C551 1.347 . S
C550 H573 0.931 . S
C551 C550 1.347 . S
C551 C552 1.369 . S
C552 C551 1.369 . S
C552 C553 1.408 . S
C552 H574 0.930 . S
C553 C548 1.348 . S
C553 C552 1.408 . S
C553 H575 0.930 . S
C554 O564 1.281 . S
C554 O565 1.254 . S
C555 O566 1.236 . S
C555 O567 1.266 . S
O556 Tb536 2.484 . S
O556 C538 1.248 . S
O557 Tb536 2.440 . S
O557 C538 1.266 . S
O558 Tb536 2.658 . S
O558 Tb537 2.325 . S
O558 C545 1.281 . S
O559 Tb536 2.409 . S
O559 C545 1.254 . S
O560 Tb536 2.378 . S
O560 C546 1.236 . S
O561 Tb537 2.341 . S
O561 C546 1.266 . S
O562 Tb537 2.484 . S
O562 C547 1.248 . S
O563 Tb537 2.440 . S
O563 C547 1.266 . S
O564 Tb536 2.325 . S
O564 Tb537 2.658 . S
O564 C554 1.281 . S
O565 Tb537 2.409 . S
O565 C554 1.254 . S
O566 Tb537 2.378 . S
O566 C555 1.236 . S
O567 Tb536 2.341 . S
O567 C555 1.266 . S
H568 C540 0.929 . S
H569 C541 0.931 . S
H570 C543 0.930 . S
H571 C544 0.930 . S
H572 C549 0.929 . S
H573 C550 0.931 . S
H574 C552 0.930 . S
H575 C553 0.930 . S
Tb576 C578 2.809 . S
Tb576 O596 2.484 1_545 S
Tb576 O597 2.440 . S
Tb576 O598 2.658 . S
Tb576 O599 2.409 . S
Tb576 O600 2.378 . S
Tb576 O604 2.325 . S
Tb576 O607 2.341 . S
Tb577 C587 2.809 . S
Tb577 O598 2.325 . S
Tb577 O601 2.341 . S
Tb577 O602 2.484 . S
Tb577 O603 2.440 . S
Tb577 O604 2.658 . S
Tb577 O605 2.409 1_545 S
Tb577 O606 2.378 . S
C578 Tb576 2.809 . S
C578 C579 1.514 1_545 S
C578 O596 1.248 1_545 S
C578 O597 1.266 . S
C579 C578 1.514 1_565 S
C579 C580 1.359 . S
C579 C584 1.348 1_565 S
C580 C579 1.359 . S
C580 C581 1.380 . S
C580 H608 0.929 . S
C581 C580 1.380 . S
C581 C582 1.347 . S
C581 H609 0.931 . S
C582 C581 1.347 . S
C582 C583 1.369 1_565 S
C583 C582 1.369 1_545 S
C583 C584 1.408 . S
C583 H610 0.930 . S
C584 C579 1.348 1_545 S
C584 C583 1.408 . S
C584 H611 0.930 . S
C585 O598 1.281 . S
C585 O599 1.254 . S
C586 O600 1.236 . S
C586 O601 1.266 . S
C587 Tb577 2.809 . S
C587 C588 1.514 . S
C587 O602 1.248 . S
C587 O603 1.266 . S
C588 C587 1.514 . S
C588 C589 1.359 . S
C588 C593 1.348 . S
C589 C588 1.359 . S
C589 C590 1.380 . S
C589 H612 0.929 . S
C590 C589 1.380 . S
C590 C591 1.347 . S
C590 H613 0.931 . S
C591 C590 1.347 . S
C591 C592 1.369 . S
C592 C591 1.369 . S
C592 C593 1.408 . S
C592 H614 0.930 . S
C593 C588 1.348 . S
C593 C592 1.408 . S
C593 H615 0.930 . S
C594 O604 1.281 1_565 S
C594 O605 1.254 . S
C595 O606 1.236 . S
C595 O607 1.266 . S
O596 Tb576 2.484 1_565 S
O596 C578 1.248 1_565 S
O597 Tb576 2.440 . S
O597 C578 1.266 . S
O598 Tb576 2.658 . S
O598 Tb577 2.325 . S
O598 C585 1.281 . S
O599 Tb576 2.409 . S
O599 C585 1.254 . S
O600 Tb576 2.378 . S
O600 C586 1.236 . S
O601 Tb577 2.341 . S
O601 C586 1.266 . S
O602 Tb577 2.484 . S
O602 C587 1.248 . S
O603 Tb577 2.440 . S
O603 C587 1.266 . S
O604 Tb576 2.325 . S
O604 Tb577 2.658 . S
O604 C594 1.281 1_545 S
O605 Tb577 2.409 1_565 S
O605 C594 1.254 . S
O606 Tb577 2.378 . S
O606 C595 1.236 . S
O607 Tb576 2.341 . S
O607 C595 1.266 . S
H608 C580 0.929 . S
H609 C581 0.931 . S
H610 C583 0.930 . S
H611 C584 0.930 . S
H612 C589 0.929 . S
H613 C590 0.931 . S
H614 C592 0.930 . S
H615 C593 0.930 . S
Tb616 C618 2.809 . S
Tb616 O636 2.484 . S
Tb616 O637 2.440 . S
Tb616 O638 2.658 . S
Tb616 O639 2.409 . S
Tb616 O640 2.378 . S
Tb616 O644 2.325 . S
Tb616 O647 2.341 . S
Tb617 C627 2.809 . S
Tb617 O638 2.325 . S
Tb617 O641 2.341 . S
Tb617 O642 2.484 . S
Tb617 O643 2.440 . S
Tb617 O644 2.658 . S
Tb617 O645 2.409 . S
Tb617 O646 2.378 . S
C618 Tb616 2.809 . S
C618 C619 1.514 . S
C618 O636 1.248 . S
C618 O637 1.266 . S
C619 C618 1.514 . S
C619 C620 1.359 . S
C619 C624 1.348 . S
C620 C619 1.359 . S
C620 C621 1.380 . S
C620 H648 0.929 . S
C621 C620 1.380 . S
C621 C622 1.347 . S
C621 H649 0.931 . S
C622 C621 1.347 . S
C622 C623 1.369 . S
C623 C622 1.369 . S
C623 C624 1.408 . S
C623 H650 0.930 . S
C624 C619 1.348 . S
C624 C623 1.408 . S
C624 H651 0.930 . S
C625 O638 1.281 . S
C625 O639 1.254 . S
C626 O640 1.236 . S
C626 O641 1.266 . S
C627 Tb617 2.809 . S
C627 C628 1.514 . S
C627 O642 1.248 . S
C627 O643 1.266 . S
C628 C627 1.514 . S
C628 C629 1.359 . S
C628 C633 1.348 . S
C629 C628 1.359 . S
C629 C630 1.380 . S
C629 H652 0.929 . S
C630 C629 1.380 . S
C630 C631 1.347 . S
C630 H653 0.931 . S
C631 C630 1.347 . S
C631 C632 1.369 . S
C632 C631 1.369 . S
C632 C633 1.408 . S
C632 H654 0.930 . S
C633 C628 1.348 . S
C633 C632 1.408 . S
C633 H655 0.930 . S
C634 O644 1.281 . S
C634 O645 1.254 . S
C635 O646 1.236 . S
C635 O647 1.266 . S
O636 Tb616 2.484 . S
O636 C618 1.248 . S
O637 Tb616 2.440 . S
O637 C618 1.266 . S
O638 Tb616 2.658 . S
O638 Tb617 2.325 . S
O638 C625 1.281 . S
O639 Tb616 2.409 . S
O639 C625 1.254 . S
O640 Tb616 2.378 . S
O640 C626 1.236 . S
O641 Tb617 2.341 . S
O641 C626 1.266 . S
O642 Tb617 2.484 . S
O642 C627 1.248 . S
O643 Tb617 2.440 . S
O643 C627 1.266 . S
O644 Tb616 2.325 . S
O644 Tb617 2.658 . S
O644 C634 1.281 . S
O645 Tb617 2.409 . S
O645 C634 1.254 . S
O646 Tb617 2.378 . S
O646 C635 1.236 . S
O647 Tb616 2.341 . S
O647 C635 1.266 . S
H648 C620 0.929 . S
H649 C621 0.931 . S
H650 C623 0.930 . S
H651 C624 0.930 . S
H652 C629 0.929 . S
H653 C630 0.931 . S
H654 C632 0.930 . S
H655 C633 0.930 . S
Tb656 C658 2.809 . S
Tb656 O676 2.484 . S
Tb656 O677 2.440 . S
Tb656 O678 2.658 . S
Tb656 O679 2.409 . S
Tb656 O680 2.378 . S
Tb656 O684 2.325 . S
Tb656 O687 2.341 . S
Tb657 C667 2.809 . S
Tb657 O678 2.325 . S
Tb657 O681 2.341 . S
Tb657 O682 2.484 . S
Tb657 O683 2.440 . S
Tb657 O684 2.658 . S
Tb657 O685 2.409 . S
Tb657 O686 2.378 . S
C658 Tb656 2.809 . S
C658 C659 1.514 . S
C658 O676 1.248 . S
C658 O677 1.266 . S
C659 C658 1.514 . S
C659 C660 1.359 . S
C659 C664 1.348 . S
C660 C659 1.359 . S
C660 C661 1.390 . S
C660 H688 0.929 . S
C661 C660 1.390 . S
C661 C662 1.348 1_554 S
C661 H689 0.920 1_554 S
C662 C661 1.348 1_556 S
C662 C663 1.369 1_556 S
C663 C662 1.369 1_554 S
C663 C664 1.408 . S
C663 H690 0.930 . S
C664 C659 1.348 . S
C664 C663 1.408 . S
C664 H691 0.930 . S
C665 O678 1.281 . S
C665 O679 1.254 . S
C666 O680 1.236 . S
C666 O681 1.266 . S
C667 Tb657 2.809 . S
C667 C668 1.514 . S
C667 O682 1.248 . S
C667 O683 1.266 . S
C668 C667 1.514 . S
C668 C669 1.359 . S
C668 C673 1.348 . S
C669 C668 1.359 . S
C669 C670 1.380 . S
C669 H692 0.929 . S
C670 C669 1.380 . S
C670 C671 1.347 . S
C670 H693 0.931 . S
C671 C670 1.347 . S
C671 C672 1.369 . S
C672 C671 1.369 . S
C672 C673 1.408 . S
C672 H694 0.930 . S
C673 C668 1.348 . S
C673 C672 1.408 . S
C673 H695 0.930 . S
C674 O684 1.281 . S
C674 O685 1.254 . S
C675 O686 1.236 . S
C675 O687 1.266 . S
O676 Tb656 2.484 . S
O676 C658 1.248 . S
O677 Tb656 2.440 . S
O677 C658 1.266 . S
O678 Tb656 2.658 . S
O678 Tb657 2.325 . S
O678 C665 1.281 . S
O679 Tb656 2.409 . S
O679 C665 1.254 . S
O680 Tb656 2.378 . S
O680 C666 1.236 . S
O681 Tb657 2.341 . S
O681 C666 1.266 . S
O682 Tb657 2.484 . S
O682 C667 1.248 . S
O683 Tb657 2.440 . S
O683 C667 1.266 . S
O684 Tb656 2.325 . S
O684 Tb657 2.658 . S
O684 C674 1.281 . S
O685 Tb657 2.409 . S
O685 C674 1.254 . S
O686 Tb657 2.378 . S
O686 C675 1.236 . S
O687 Tb656 2.341 . S
O687 C675 1.266 . S
H688 C660 0.929 . S
H689 C661 0.920 1_556 S
H690 C663 0.930 . S
H691 C664 0.930 . S
H692 C669 0.929 . S
H693 C670 0.931 . S
H694 C672 0.930 . S
H695 C673 0.930 . S
Tb696 C698 2.809 . S
Tb696 O716 2.484 . S
Tb696 O717 2.440 . S
Tb696 O718 2.658 . S
Tb696 O719 2.409 . S
Tb696 O720 2.378 . S
Tb696 O724 2.325 . S
Tb696 O727 2.341 . S
Tb697 C707 2.809 . S
Tb697 O718 2.325 . S
Tb697 O721 2.341 . S
Tb697 O722 2.484 . S
Tb697 O723 2.440 . S
Tb697 O724 2.658 . S
Tb697 O725 2.409 . S
Tb697 O726 2.378 . S
C698 Tb696 2.809 . S
C698 C699 1.514 . S
C698 O716 1.248 . S
C698 O717 1.266 . S
C699 C698 1.514 . S
C699 C700 1.359 . S
C699 C704 1.348 . S
C700 C699 1.359 . S
C700 C701 1.380 . S
C700 H728 0.929 . S
C701 C700 1.380 . S
C701 C702 1.347 . S
C701 H729 0.931 . S
C702 C701 1.347 . S
C702 C703 1.369 . S
C703 C702 1.369 . S
C703 C704 1.408 . S
C703 H730 0.930 . S
C704 C699 1.348 . S
C704 C703 1.408 . S
C704 H731 0.930 . S
C705 O718 1.281 . S
C705 O719 1.254 . S
C706 O720 1.236 . S
C706 O721 1.266 . S
C707 Tb697 2.809 . S
C707 C708 1.514 . S
C707 O722 1.248 . S
C707 O723 1.266 . S
C708 C707 1.514 . S
C708 C709 1.359 . S
C708 C713 1.348 . S
C709 C708 1.359 . S
C709 C710 1.380 . S
C709 H732 0.929 . S
C710 C709 1.380 . S
C710 C711 1.347 . S
C710 H733 0.931 . S
C711 C710 1.347 . S
C711 C712 1.369 . S
C712 C711 1.369 . S
C712 C713 1.408 . S
C712 H734 0.930 . S
C713 C708 1.348 . S
C713 C712 1.408 . S
C713 H735 0.930 . S
C714 O724 1.281 . S
C714 O725 1.254 . S
C715 O726 1.236 . S
C715 O727 1.266 . S
O716 Tb696 2.484 . S
O716 C698 1.248 . S
O717 Tb696 2.440 . S
O717 C698 1.266 . S
O718 Tb696 2.658 . S
O718 Tb697 2.325 . S
O718 C705 1.281 . S
O719 Tb696 2.409 . S
O719 C705 1.254 . S
O720 Tb696 2.378 . S
O720 C706 1.236 . S
O721 Tb697 2.341 . S
O721 C706 1.266 . S
O722 Tb697 2.484 . S
O722 C707 1.248 . S
O723 Tb697 2.440 . S
O723 C707 1.266 . S
O724 Tb696 2.325 . S
O724 Tb697 2.658 . S
O724 C714 1.281 . S
O725 Tb697 2.409 . S
O725 C714 1.254 . S
O726 Tb697 2.378 . S
O726 C715 1.236 . S
O727 Tb696 2.341 . S
O727 C715 1.266 . S
H728 C700 0.929 . S
H729 C701 0.931 . S
H730 C703 0.930 . S
H731 C704 0.930 . S
H732 C709 0.929 . S
H733 C710 0.931 . S
H734 C712 0.930 . S
H735 C713 0.930 . S
Tb736 C738 2.809 1_455 S
Tb736 O756 2.484 1_455 S
Tb736 O757 2.440 1_455 S
Tb736 O758 2.658 . S
Tb736 O759 2.409 . S
Tb736 O760 2.378 . S
Tb736 O764 2.325 . S
Tb736 O767 2.341 . S
Tb737 C747 2.809 . S
Tb737 O758 2.325 . S
Tb737 O761 2.341 . S
Tb737 O762 2.484 . S
Tb737 O763 2.440 . S
Tb737 O764 2.658 . S
Tb737 O765 2.409 . S
Tb737 O766 2.378 . S
C738 Tb736 2.809 1_655 S
C738 C739 1.514 . S
C738 O756 1.248 . S
C738 O757 1.266 . S
C739 C738 1.514 . S
C739 C740 1.359 . S
C739 C744 1.348 . S
C740 C739 1.359 . S
C740 C741 1.380 . S
C740 H768 0.929 . S
C741 C740 1.380 . S
C741 C742 1.347 . S
C741 H769 0.931 . S
C742 C741 1.347 . S
C742 C743 1.369 . S
C743 C742 1.369 . S
C743 C744 1.408 . S
C743 H770 0.930 . S
C744 C739 1.348 . S
C744 C743 1.408 . S
C744 H771 0.930 . S
C745 O758 1.281 . S
C745 O759 1.254 . S
C746 O760 1.236 . S
C746 O761 1.266 . S
C747 Tb737 2.809 . S
C747 C748 1.514 . S
C747 O762 1.248 . S
C747 O763 1.266 . S
C748 C747 1.514 . S
C748 C749 1.359 . S
C748 C753 1.348 . S
C749 C748 1.359 . S
C749 C750 1.380 . S
C749 H772 0.929 . S
C750 C749 1.380 . S
C750 C751 1.347 . S
C750 H773 0.931 . S
C751 C750 1.347 . S
C751 C752 1.369 . S
C752 C751 1.369 . S
C752 C753 1.408 . S
C752 H774 0.930 . S
C753 C748 1.348 . S
C753 C752 1.408 . S
C753 H775 0.930 . S
C754 O764 1.281 . S
C754 O765 1.254 . S
C755 O766 1.236 . S
C755 O767 1.266 . S
O756 Tb736 2.484 1_655 S
O756 C738 1.248 . S
O757 Tb736 2.440 1_655 S
O757 C738 1.266 . S
O758 Tb736 2.658 . S
O758 Tb737 2.325 . S
O758 C745 1.281 . S
O759 Tb736 2.409 . S
O759 C745 1.254 . S
O760 Tb736 2.378 . S
O760 C746 1.236 . S
O761 Tb737 2.341 . S
O761 C746 1.266 . S
O762 Tb737 2.484 . S
O762 C747 1.248 . S
O763 Tb737 2.440 . S
O763 C747 1.266 . S
O764 Tb736 2.325 . S
O764 Tb737 2.658 . S
O764 C754 1.281 . S
O765 Tb737 2.409 . S
O765 C754 1.254 . S
O766 Tb737 2.378 . S
O766 C755 1.236 . S
O767 Tb736 2.341 . S
O767 C755 1.266 . S
H768 C740 0.929 . S
H769 C741 0.931 . S
H770 C743 0.930 . S
H771 C744 0.930 . S
H772 C749 0.929 . S
H773 C750 0.931 . S
H774 C752 0.930 . S
H775 C753 0.930 . S
Tb776 C778 2.809 . S
Tb776 O796 2.484 . S
Tb776 O797 2.440 . S
Tb776 O798 2.658 . S
Tb776 O799 2.409 . S
Tb776 O800 2.378 . S
Tb776 O804 2.325 . S
Tb776 O807 2.341 . S
Tb777 C787 2.809 . S
Tb777 O798 2.325 . S
Tb777 O801 2.341 . S
Tb777 O802 2.484 . S
Tb777 O803 2.440 . S
Tb777 O804 2.658 . S
Tb777 O805 2.409 . S
Tb777 O806 2.378 . S
C778 Tb776 2.809 . S
C778 C779 1.514 . S
C778 O796 1.248 . S
C778 O797 1.266 . S
C779 C778 1.514 . S
C779 C780 1.359 . S
C779 C784 1.348 . S
C780 C779 1.359 . S
C780 C781 1.380 . S
C780 H808 0.929 . S
C781 C780 1.380 . S
C781 C782 1.347 . S
C781 H809 0.931 . S
C782 C781 1.347 . S
C782 C783 1.369 . S
C783 C782 1.369 . S
C783 C784 1.408 . S
C783 H810 0.930 . S
C784 C779 1.348 . S
C784 C783 1.408 . S
C784 H811 0.930 . S
C785 O798 1.281 . S
C785 O799 1.254 . S
C786 O800 1.236 . S
C786 O801 1.266 . S
C787 Tb777 2.809 . S
C787 C788 1.514 . S
C787 O802 1.248 . S
C787 O803 1.266 . S
C788 C787 1.514 . S
C788 C789 1.359 . S
C788 C793 1.348 . S
C789 C788 1.359 . S
C789 C790 1.380 . S
C789 H812 0.929 . S
C790 C789 1.380 . S
C790 C791 1.347 . S
C790 H813 0.931 . S
C791 C790 1.347 . S
C791 C792 1.369 . S
C792 C791 1.369 . S
C792 C793 1.408 . S
C792 H814 0.930 . S
C793 C788 1.348 . S
C793 C792 1.408 . S
C793 H815 0.930 . S
C794 O804 1.281 . S
C794 O805 1.254 . S
C795 O806 1.236 . S
C795 O807 1.266 . S
O796 Tb776 2.484 . S
O796 C778 1.248 . S
O797 Tb776 2.440 . S
O797 C778 1.266 . S
O798 Tb776 2.658 . S
O798 Tb777 2.325 . S
O798 C785 1.281 . S
O799 Tb776 2.409 . S
O799 C785 1.254 . S
O800 Tb776 2.378 . S
O800 C786 1.236 . S
O801 Tb777 2.341 . S
O801 C786 1.266 . S
O802 Tb777 2.484 . S
O802 C787 1.248 . S
O803 Tb777 2.440 . S
O803 C787 1.266 . S
O804 Tb776 2.325 . S
O804 Tb777 2.658 . S
O804 C794 1.281 . S
O805 Tb777 2.409 . S
O805 C794 1.254 . S
O806 Tb777 2.378 . S
O806 C795 1.236 . S
O807 Tb776 2.341 . S
O807 C795 1.266 . S
H808 C780 0.929 . S
H809 C781 0.931 . S
H810 C783 0.930 . S
H811 C784 0.930 . S
H812 C789 0.929 . S
H813 C790 0.931 . S
H814 C792 0.930 . S
H815 C793 0.930 . S
Tb816 C818 2.809 . S
Tb816 O836 2.484 . S
Tb816 O837 2.440 . S
Tb816 O838 2.658 . S
Tb816 O839 2.409 . S
Tb816 O840 2.378 . S
Tb816 O844 2.325 . S
Tb816 O847 2.341 . S
Tb817 C827 2.809 . S
Tb817 O838 2.325 . S
Tb817 O841 2.341 . S
Tb817 O842 2.484 . S
Tb817 O843 2.440 . S
Tb817 O844 2.658 . S
Tb817 O845 2.409 . S
Tb817 O846 2.378 . S
C818 Tb816 2.809 . S
C818 C819 1.514 . S
C818 O836 1.248 . S
C818 O837 1.266 . S
C819 C818 1.514 . S
C819 C820 1.359 . S
C819 C824 1.348 . S
C820 C819 1.359 . S
C820 C821 1.380 . S
C820 H848 0.929 . S
C821 C820 1.380 . S
C821 C822 1.347 . S
C821 H849 0.931 . S
C822 C821 1.347 . S
C822 C823 1.369 . S
C823 C822 1.369 . S
C823 C824 1.408 . S
C823 H850 0.930 . S
C824 C819 1.348 . S
C824 C823 1.408 . S
C824 H851 0.930 . S
C825 O838 1.281 . S
C825 O839 1.254 . S
C826 O840 1.236 . S
C826 O841 1.266 . S
C827 Tb817 2.809 . S
C827 C828 1.514 . S
C827 O842 1.248 . S
C827 O843 1.266 . S
C828 C827 1.514 . S
C828 C829 1.359 . S
C828 C833 1.348 . S
C829 C828 1.359 . S
C829 C830 1.380 1_556 S
C829 H852 0.929 . S
C830 C829 1.380 1_554 S
C830 C831 1.347 . S
C830 H853 0.931 . S
C831 C830 1.347 . S
C831 C832 1.369 . S
C832 C831 1.369 . S
C832 C833 1.408 1_554 S
C832 H854 0.930 . S
C833 C828 1.348 . S
C833 C832 1.408 1_556 S
C833 H855 0.930 . S
C834 O844 1.281 . S
C834 O845 1.254 . S
C835 O846 1.236 . S
C835 O847 1.266 . S
O836 Tb816 2.484 . S
O836 C818 1.248 . S
O837 Tb816 2.440 . S
O837 C818 1.266 . S
O838 Tb816 2.658 . S
O838 Tb817 2.325 . S
O838 C825 1.281 . S
O839 Tb816 2.409 . S
O839 C825 1.254 . S
O840 Tb816 2.378 . S
O840 C826 1.236 . S
O841 Tb817 2.341 . S
O841 C826 1.266 . S
O842 Tb817 2.484 . S
O842 C827 1.248 . S
O843 Tb817 2.440 . S
O843 C827 1.266 . S
O844 Tb816 2.325 . S
O844 Tb817 2.658 . S
O844 C834 1.281 . S
O845 Tb817 2.409 . S
O845 C834 1.254 . S
O846 Tb817 2.378 . S
O846 C835 1.236 . S
O847 Tb816 2.341 . S
O847 C835 1.266 . S
H848 C820 0.929 . S
H849 C821 0.931 . S
H850 C823 0.930 . S
H851 C824 0.930 . S
H852 C829 0.929 . S
H853 C830 0.931 . S
H854 C832 0.930 . S
H855 C833 0.930 . S
Tb856 C858 2.809 . S
Tb856 O876 2.484 . S
Tb856 O877 2.440 . S
Tb856 O878 2.658 . S
Tb856 O879 2.409 . S
Tb856 O880 2.378 . S
Tb856 O884 2.325 . S
Tb856 O887 2.341 . S
Tb857 C867 2.809 . S
Tb857 O878 2.325 . S
Tb857 O881 2.341 . S
Tb857 O882 2.484 . S
Tb857 O883 2.440 . S
Tb857 O884 2.658 . S
Tb857 O885 2.409 . S
Tb857 O886 2.378 . S
C858 Tb856 2.809 . S
C858 C859 1.514 . S
C858 O876 1.248 . S
C858 O877 1.266 . S
C859 C858 1.514 . S
C859 C860 1.359 . S
C859 C864 1.348 . S
C860 C859 1.359 . S
C860 C861 1.380 . S
C860 H888 0.929 . S
C861 C860 1.380 . S
C861 C862 1.347 . S
C861 H889 0.931 . S
C862 C861 1.347 . S
C862 C863 1.369 . S
C863 C862 1.369 . S
C863 C864 1.408 . S
C863 H890 0.930 . S
C864 C859 1.348 . S
C864 C863 1.408 . S
C864 H891 0.930 . S
C865 O878 1.281 . S
C865 O879 1.254 . S
C866 O880 1.236 . S
C866 O881 1.266 . S
C867 Tb857 2.809 . S
C867 C868 1.514 . S
C867 O882 1.248 . S
C867 O883 1.266 . S
C868 C867 1.514 . S
C868 C869 1.359 . S
C868 C873 1.348 . S
C869 C868 1.359 . S
C869 C870 1.380 . S
C869 H892 0.929 . S
C870 C869 1.380 . S
C870 C871 1.347 . S
C870 H893 0.931 . S
C871 C870 1.347 . S
C871 C872 1.369 . S
C872 C871 1.369 . S
C872 C873 1.408 . S
C872 H894 0.930 . S
C873 C868 1.348 . S
C873 C872 1.408 . S
C873 H895 0.930 . S
C874 O884 1.281 . S
C874 O885 1.254 . S
C875 O886 1.236 . S
C875 O887 1.266 . S
O876 Tb856 2.484 . S
O876 C858 1.248 . S
O877 Tb856 2.440 . S
O877 C858 1.266 . S
O878 Tb856 2.658 . S
O878 Tb857 2.325 . S
O878 C865 1.281 . S
O879 Tb856 2.409 . S
O879 C865 1.254 . S
O880 Tb856 2.378 . S
O880 C866 1.236 . S
O881 Tb857 2.341 . S
O881 C866 1.266 . S
O882 Tb857 2.484 . S
O882 C867 1.248 . S
O883 Tb857 2.440 . S
O883 C867 1.266 . S
O884 Tb856 2.325 . S
O884 Tb857 2.658 . S
O884 C874 1.281 . S
O885 Tb857 2.409 . S
O885 C874 1.254 . S
O886 Tb857 2.378 . S
O886 C875 1.236 . S
O887 Tb856 2.341 . S
O887 C875 1.266 . S
H888 C860 0.929 . S
H889 C861 0.931 . S
H890 C863 0.930 . S
H891 C864 0.930 . S
H892 C869 0.929 . S
H893 C870 0.931 . S
H894 C872 0.930 . S
H895 C873 0.930 . S
Tb896 C898 2.809 . S
Tb896 O916 2.484 . S
Tb896 O917 2.440 . S
Tb896 O918 2.658 . S
Tb896 O919 2.409 . S
Tb896 O920 2.378 . S
Tb896 O924 2.325 . S
Tb896 O927 2.341 . S
Tb897 C907 2.809 . S
Tb897 O918 2.325 . S
Tb897 O921 2.341 . S
Tb897 O922 2.484 . S
Tb897 O923 2.440 . S
Tb897 O924 2.658 . S
Tb897 O925 2.409 . S
Tb897 O926 2.378 . S
C898 Tb896 2.809 . S
C898 C899 1.514 . S
C898 O916 1.248 . S
C898 O917 1.266 . S
C899 C898 1.514 . S
C899 C900 1.359 . S
C899 C904 1.348 . S
C900 C899 1.359 . S
C900 C901 1.380 . S
C900 H928 0.929 . S
C901 C900 1.380 . S
C901 C902 1.347 . S
C901 H929 0.931 . S
C902 C901 1.347 . S
C902 C903 1.369 . S
C903 C902 1.369 . S
C903 C904 1.408 . S
C903 H930 0.930 . S
C904 C899 1.348 . S
C904 C903 1.408 . S
C904 H931 0.930 . S
C905 O918 1.281 . S
C905 O919 1.254 . S
C906 O920 1.236 . S
C906 O921 1.266 . S
C907 Tb897 2.809 . S
C907 C908 1.514 . S
C907 O922 1.248 . S
C907 O923 1.266 . S
C908 C907 1.514 . S
C908 C909 1.359 . S
C908 C913 1.348 . S
C909 C908 1.359 . S
C909 C910 1.380 . S
C909 H932 0.929 . S
C910 C909 1.380 . S
C910 C911 1.347 . S
C910 H933 0.931 . S
C911 C910 1.347 . S
C911 C912 1.369 . S
C912 C911 1.369 . S
C912 C913 1.408 . S
C912 H934 0.930 . S
C913 C908 1.348 . S
C913 C912 1.408 . S
C913 H935 0.930 . S
C914 O924 1.281 . S
C914 O925 1.254 . S
C915 O926 1.236 . S
C915 O927 1.266 . S
O916 Tb896 2.484 . S
O916 C898 1.248 . S
O917 Tb896 2.440 . S
O917 C898 1.266 . S
O918 Tb896 2.658 . S
O918 Tb897 2.325 . S
O918 C905 1.281 . S
O919 Tb896 2.409 . S
O919 C905 1.254 . S
O920 Tb896 2.378 . S
O920 C906 1.236 . S
O921 Tb897 2.341 . S
O921 C906 1.266 . S
O922 Tb897 2.484 . S
O922 C907 1.248 . S
O923 Tb897 2.440 . S
O923 C907 1.266 . S
O924 Tb896 2.325 . S
O924 Tb897 2.658 . S
O924 C914 1.281 . S
O925 Tb897 2.409 . S
O925 C914 1.254 . S
O926 Tb897 2.378 . S
O926 C915 1.236 . S
O927 Tb896 2.341 . S
O927 C915 1.266 . S
H928 C900 0.929 . S
H929 C901 0.931 . S
H930 C903 0.930 . S
H931 C904 0.930 . S
H932 C909 0.929 . S
H933 C910 0.931 . S
H934 C912 0.930 . S
H935 C913 0.930 . S
Tb936 C938 2.809 . S
Tb936 O956 2.484 . S
Tb936 O957 2.440 . S
Tb936 O958 2.658 . S
Tb936 O959 2.409 . S
Tb936 O960 2.378 . S
Tb936 O964 2.325 . S
Tb936 O967 2.341 . S
Tb937 C947 2.809 1_455 S
Tb937 O958 2.325 . S
Tb937 O961 2.341 . S
Tb937 O962 2.484 1_455 S
Tb937 O963 2.440 1_455 S
Tb937 O964 2.658 . S
Tb937 O965 2.409 . S
Tb937 O966 2.378 . S
C938 Tb936 2.809 . S
C938 C939 1.514 . S
C938 O956 1.248 . S
C938 O957 1.266 . S
C939 C938 1.514 . S
C939 C940 1.359 . S
C939 C944 1.348 . S
C940 C939 1.359 . S
C940 C941 1.380 . S
C940 H968 0.929 . S
C941 C940 1.380 . S
C941 C942 1.347 . S
C941 H969 0.931 . S
C942 C941 1.347 . S
C942 C943 1.369 . S
C943 C942 1.369 . S
C943 C944 1.408 . S
C943 H970 0.930 . S
C944 C939 1.348 . S
C944 C943 1.408 . S
C944 H971 0.930 . S
C945 O958 1.281 . S
C945 O959 1.254 . S
C946 O960 1.236 . S
C946 O961 1.266 . S
C947 Tb937 2.809 1_655 S
C947 C948 1.514 . S
C947 O962 1.248 . S
C947 O963 1.266 . S
C948 C947 1.514 . S
C948 C949 1.359 . S
C948 C953 1.348 . S
C949 C948 1.359 . S
C949 C950 1.380 . S
C949 H972 0.929 . S
C950 C949 1.380 . S
C950 C951 1.347 . S
C950 H973 0.931 . S
C951 C950 1.347 . S
C951 C952 1.369 . S
C952 C951 1.369 . S
C952 C953 1.408 . S
C952 H974 0.930 . S
C953 C948 1.348 . S
C953 C952 1.408 . S
C953 H975 0.930 . S
C954 O964 1.281 . S
C954 O965 1.254 . S
C955 O966 1.236 . S
C955 O967 1.266 . S
O956 Tb936 2.484 . S
O956 C938 1.248 . S
O957 Tb936 2.440 . S
O957 C938 1.266 . S
O958 Tb936 2.658 . S
O958 Tb937 2.325 . S
O958 C945 1.281 . S
O959 Tb936 2.409 . S
O959 C945 1.254 . S
O960 Tb936 2.378 . S
O960 C946 1.236 . S
O961 Tb937 2.341 . S
O961 C946 1.266 . S
O962 Tb937 2.484 1_655 S
O962 C947 1.248 . S
O963 Tb937 2.440 1_655 S
O963 C947 1.266 . S
O964 Tb936 2.325 . S
O964 Tb937 2.658 . S
O964 C954 1.281 . S
O965 Tb937 2.409 . S
O965 C954 1.254 . S
O966 Tb937 2.378 . S
O966 C955 1.236 . S
O967 Tb936 2.341 . S
O967 C955 1.266 . S
H968 C940 0.929 . S
H969 C941 0.931 . S
H970 C943 0.930 . S
H971 C944 0.930 . S
H972 C949 0.929 . S
H973 C950 0.931 . S
H974 C952 0.930 . S
H975 C953 0.930 . S
C976 C977 1.387 . S
C976 H980 0.950 . S
C976 C985 1.390 . S
C977 C976 1.387 . S
C977 C979 1.387 . S
H978 C985 0.950 . S
C979 C977 1.387 . S
C979 C981 1.390 . S
C979 H983 0.950 . S
H980 C976 0.950 . S
C981 C979 1.390 . S
C981 C982 1.387 . S
C981 H984 0.950 . S
C982 C981 1.387 . S
C982 C985 1.387 . S
H983 C979 0.950 . S
H984 C981 0.950 . S
C985 C976 1.390 . S
C985 H978 0.950 . S
C985 C982 1.387 . S
C986 C987 1.387 . S
C986 H990 0.950 . S
C986 C995 1.390 . S
C987 C986 1.387 . S
C987 C989 1.387 . S
H988 C995 0.950 . S
C989 C987 1.387 . S
C989 C991 1.390 . S
C989 H993 0.950 . S
H990 C986 0.950 . S
C991 C989 1.390 . S
C991 C992 1.387 . S
C991 H994 0.950 . S
C992 C991 1.387 . S
C992 C995 1.387 . S
H993 C989 0.950 . S
H994 C991 0.950 . S
C995 C986 1.390 . S
C995 H988 0.950 . S
C995 C992 1.387 . S
C996 C997 1.387 . S
C996 H1000 0.950 . S
C996 C1005 1.390 . S
C997 C996 1.387 . S
C997 C999 1.387 . S
H998 C1005 0.950 . S
C999 C997 1.387 . S
C999 C1001 1.390 . S
C999 H1003 0.950 . S
H1000 C996 0.950 . S
C1001 C999 1.390 . S
C1001 C1002 1.387 . S
C1001 H1004 0.950 . S
C1002 C1001 1.387 . S
C1002 C1005 1.387 . S
H1003 C999 0.950 . S
H1004 C1001 0.950 . S
C1005 C996 1.390 . S
C1005 H998 0.950 . S
C1005 C1002 1.387 . S
C1006 C1007 1.387 . S
C1006 H1010 0.950 . S
C1006 C1015 1.390 . S
C1007 C1006 1.387 . S
C1007 C1009 1.387 . S
H1008 C1015 0.950 . S
C1009 C1007 1.387 . S
C1009 C1011 1.390 . S
C1009 H1013 0.950 . S
H1010 C1006 0.950 . S
C1011 C1009 1.390 . S
C1011 C1012 1.387 . S
C1011 H1014 0.950 . S
C1012 C1011 1.387 . S
C1012 C1015 1.387 . S
H1013 C1009 0.950 . S
H1014 C1011 0.950 . S
C1015 C1006 1.390 . S
C1015 H1008 0.950 . S
C1015 C1012 1.387 . S
C1016 C1017 1.387 . S
C1016 H1020 0.950 . S
C1016 C1025 1.390 . S
C1017 C1016 1.387 . S
C1017 C1019 1.387 . S
H1018 C1025 0.950 . S
C1019 C1017 1.387 . S
C1019 C1021 1.390 . S
C1019 H1023 0.950 . S
H1020 C1016 0.950 . S
C1021 C1019 1.390 . S
C1021 C1022 1.387 . S
C1021 H1024 0.950 . S
C1022 C1021 1.387 . S
C1022 C1025 1.387 . S
H1023 C1019 0.950 . S
H1024 C1021 0.950 . S
C1025 C1016 1.390 . S
C1025 H1018 0.950 . S
C1025 C1022 1.387 . S
C1026 C1027 1.387 . S
C1026 H1030 0.950 . S
C1026 C1035 1.390 . S
C1027 C1026 1.387 . S
C1027 C1029 1.387 . S
H1028 C1035 0.950 . S
C1029 C1027 1.387 . S
C1029 C1031 1.390 . S
C1029 H1033 0.950 . S
H1030 C1026 0.950 . S
C1031 C1029 1.390 . S
C1031 C1032 1.387 . S
C1031 H1034 0.950 . S
C1032 C1031 1.387 . S
C1032 C1035 1.387 . S
H1033 C1029 0.950 . S
H1034 C1031 0.950 . S
C1035 C1026 1.390 . S
C1035 H1028 0.950 . S
C1035 C1032 1.387 . S
C1036 C1037 1.387 . S
C1036 H1040 0.950 . S
C1036 C1045 1.390 . S
C1037 C1036 1.387 . S
C1037 C1039 1.387 . S
H1038 C1045 0.950 . S
C1039 C1037 1.387 . S
C1039 C1041 1.390 . S
C1039 H1043 0.950 . S
H1040 C1036 0.950 . S
C1041 C1039 1.390 . S
C1041 C1042 1.387 . S
C1041 H1044 0.950 . S
C1042 C1041 1.387 . S
C1042 C1045 1.387 . S
H1043 C1039 0.950 . S
H1044 C1041 0.950 . S
C1045 C1036 1.390 . S
C1045 H1038 0.950 . S
C1045 C1042 1.387 . S
C1046 C1047 1.387 . S
C1046 H1050 0.950 . S
C1046 C1055 1.390 . S
C1047 C1046 1.387 . S
C1047 C1049 1.387 . S
H1048 C1055 0.950 . S
C1049 C1047 1.387 . S
C1049 C1051 1.390 . S
C1049 H1053 0.950 . S
H1050 C1046 0.950 . S
C1051 C1049 1.390 . S
C1051 C1052 1.387 . S
C1051 H1054 0.950 . S
C1052 C1051 1.387 . S
C1052 C1055 1.387 . S
H1053 C1049 0.950 . S
H1054 C1051 0.950 . S
C1055 C1046 1.390 . S
C1055 H1048 0.950 . S
C1055 C1052 1.387 . S
C1056 C1057 1.387 1_565 S
C1056 H1060 0.950 . S
C1056 C1065 1.391 1_565 S
C1057 C1056 1.387 1_545 S
C1057 C1059 1.387 1_655 S
H1058 C1065 0.950 1_565 S
C1059 C1057 1.387 1_455 S
C1059 C1061 1.390 . S
C1059 H1063 0.950 . S
H1060 C1056 0.950 . S
C1061 C1059 1.390 . S
C1061 C1062 1.387 . S
C1061 H1064 0.950 . S
C1062 C1061 1.387 . S
C1062 C1065 1.386 1_455 S
H1063 C1059 0.950 . S
H1064 C1061 0.950 . S
C1065 C1056 1.391 1_545 S
C1065 H1058 0.950 1_545 S
C1065 C1062 1.386 1_655 S
C1066 C1067 1.387 . S
C1066 H1070 0.950 . S
C1066 C1075 1.390 . S
C1067 C1066 1.387 . S
C1067 C1069 1.387 . S
H1068 C1075 0.950 . S
C1069 C1067 1.387 . S
C1069 C1071 1.390 . S
C1069 H1073 0.950 . S
H1070 C1066 0.950 . S
C1071 C1069 1.390 . S
C1071 C1072 1.387 . S
C1071 H1074 0.950 . S
C1072 C1071 1.387 . S
C1072 C1075 1.387 . S
H1073 C1069 0.950 . S
H1074 C1071 0.950 . S
C1075 C1066 1.390 . S
C1075 H1068 0.950 . S
C1075 C1072 1.387 . S
C1076 C1077 1.387 . S
C1076 H1080 0.950 . S
C1076 C1085 1.390 . S
C1077 C1076 1.387 . S
C1077 C1079 1.387 . S
H1078 C1085 0.950 . S
C1079 C1077 1.387 . S
C1079 C1081 1.390 . S
C1079 H1083 0.950 1_545 S
H1080 C1076 0.950 . S
C1081 C1079 1.390 . S
C1081 C1082 1.387 . S
C1081 H1084 0.950 1_545 S
C1082 C1081 1.387 . S
C1082 C1085 1.387 . S
H1083 C1079 0.950 1_565 S
H1084 C1081 0.950 1_565 S
C1085 C1076 1.390 . S
C1085 H1078 0.950 . S
C1085 C1082 1.387 . S
C1086 C1087 1.387 1_556 S
C1086 H1090 0.950 1_556 S
C1086 C1095 1.390 . S
C1087 C1086 1.387 1_554 S
C1087 C1089 1.387 1_554 S
H1088 C1095 0.950 . S
C1089 C1087 1.387 1_556 S
C1089 C1091 1.390 . S
C1089 H1093 0.950 . S
H1090 C1086 0.950 1_554 S
C1091 C1089 1.390 . S
C1091 C1092 1.387 . S
C1091 H1094 0.950 . S
C1092 C1091 1.387 . S
C1092 C1095 1.387 . S
H1093 C1089 0.950 . S
H1094 C1091 0.950 . S
C1095 C1086 1.390 . S
C1095 H1088 0.950 . S
C1095 C1092 1.387 . S
C1096 C1097 1.387 1_565 S
C1096 H1100 0.950 . S
C1096 C1105 1.390 . S
C1097 C1096 1.387 1_545 S
C1097 C1099 1.387 . S
H1098 C1105 0.950 . S
C1099 C1097 1.387 . S
C1099 C1101 1.390 1_655 S
C1099 H1103 0.948 . S
H1100 C1096 0.950 . S
C1101 C1099 1.390 1_455 S
C1101 C1102 1.387 . S
C1101 H1104 0.950 . S
C1102 C1101 1.387 . S
C1102 C1105 1.387 1_445 S
H1103 C1099 0.948 . S
H1104 C1101 0.950 . S
C1105 C1096 1.390 . S
C1105 H1098 0.950 . S
C1105 C1102 1.387 1_665 S
C1106 C1107 1.387 . S
C1106 H1110 0.950 . S
C1106 C1115 1.390 . S
C1107 C1106 1.387 . S
C1107 C1109 1.387 . S
H1108 C1115 0.950 . S
C1109 C1107 1.387 . S
C1109 C1111 1.390 . S
C1109 H1113 0.950 . S
H1110 C1106 0.950 . S
C1111 C1109 1.390 . S
C1111 C1112 1.387 . S
C1111 H1114 0.950 . S
C1112 C1111 1.387 . S
C1112 C1115 1.387 . S
H1113 C1109 0.950 . S
H1114 C1111 0.950 . S
C1115 C1106 1.390 . S
C1115 H1108 0.950 . S
C1115 C1112 1.387 . S
C1116 C1117 1.387 . S
C1116 H1120 0.950 . S
C1116 C1125 1.390 1_556 S
C1117 C1116 1.387 . S
C1117 C1119 1.387 . S
H1118 C1125 0.950 . S
C1119 C1117 1.387 . S
C1119 C1121 1.373 1_556 S
C1119 H1123 0.950 . S
H1120 C1116 0.950 . S
C1121 C1119 1.373 1_554 S
C1121 C1122 1.402 . S
C1121 H1124 0.953 . S
C1122 C1121 1.402 . S
C1122 C1125 1.387 . S
H1123 C1119 0.950 . S
H1124 C1121 0.953 . S
C1125 C1116 1.390 1_554 S
C1125 H1118 0.950 . S
C1125 C1122 1.387 . S
C1126 C1127 1.387 . S
C1126 H1130 0.950 . S
C1126 C1135 1.390 . S
C1127 C1126 1.387 . S
C1127 C1129 1.387 . S
H1128 C1135 0.950 . S
C1129 C1127 1.387 . S
C1129 C1131 1.390 . S
C1129 H1133 0.950 . S
H1130 C1126 0.950 . S
C1131 C1129 1.390 . S
C1131 C1132 1.387 . S
C1131 H1134 0.950 . S
C1132 C1131 1.387 . S
C1132 C1135 1.387 . S
H1133 C1129 0.950 . S
H1134 C1131 0.950 . S
C1135 C1126 1.390 . S
C1135 H1128 0.950 . S
C1135 C1132 1.387 . S
C1136 C1137 1.387 . S
C1136 H1140 0.950 . S
C1136 C1145 1.390 . S
C1137 C1136 1.387 . S
C1137 C1139 1.387 . S
H1138 C1145 0.950 . S
C1139 C1137 1.387 . S
C1139 C1141 1.390 . S
C1139 H1143 0.950 . S
H1140 C1136 0.950 . S
C1141 C1139 1.390 . S
C1141 C1142 1.387 . S
C1141 H1144 0.950 . S
C1142 C1141 1.387 . S
C1142 C1145 1.387 . S
H1143 C1139 0.950 . S
H1144 C1141 0.950 . S
C1145 C1136 1.390 . S
C1145 H1138 0.950 . S
C1145 C1142 1.387 . S
C1146 C1147 1.387 . S
C1146 H1150 0.950 . S
C1146 C1155 1.390 . S
C1147 C1146 1.387 . S
C1147 C1149 1.387 . S
H1148 C1155 0.950 . S
C1149 C1147 1.387 . S
C1149 C1151 1.390 . S
C1149 H1153 0.950 . S
H1150 C1146 0.950 . S
C1151 C1149 1.390 . S
C1151 C1152 1.387 . S
C1151 H1154 0.950 . S
C1152 C1151 1.387 . S
C1152 C1155 1.387 . S
H1153 C1149 0.950 . S
H1154 C1151 0.950 . S
C1155 C1146 1.390 . S
C1155 H1148 0.950 . S
C1155 C1152 1.387 . S
C1156 C1157 1.387 . S
C1156 H1160 0.950 . S
C1156 C1165 1.390 . S
C1157 C1156 1.387 . S
C1157 C1159 1.387 . S
H1158 C1165 0.950 . S
C1159 C1157 1.387 . S
C1159 C1161 1.390 . S
C1159 H1163 0.950 . S
H1160 C1156 0.950 . S
C1161 C1159 1.390 . S
C1161 C1162 1.387 . S
C1161 H1164 0.950 . S
C1162 C1161 1.387 . S
C1162 C1165 1.387 . S
H1163 C1159 0.950 . S
H1164 C1161 0.950 . S
C1165 C1156 1.390 . S
C1165 H1158 0.950 . S
C1165 C1162 1.387 . S
C1166 C1167 1.387 . S
C1166 H1170 0.950 . S
C1166 C1175 1.390 . S
C1167 C1166 1.387 . S
C1167 C1169 1.387 . S
H1168 C1175 0.950 . S
C1169 C1167 1.387 . S
C1169 C1171 1.390 . S
C1169 H1173 0.950 . S
H1170 C1166 0.950 . S
C1171 C1169 1.390 . S
C1171 C1172 1.387 . S
C1171 H1174 0.950 . S
C1172 C1171 1.387 . S
C1172 C1175 1.387 . S
H1173 C1169 0.950 . S
H1174 C1171 0.950 . S
C1175 C1166 1.390 . S
C1175 H1168 0.950 . S
C1175 C1172 1.387 . S
C1176 C1177 1.387 . S
C1176 H1180 0.950 . S
C1176 C1185 1.390 . S
C1177 C1176 1.387 . S
C1177 C1179 1.387 . S
H1178 C1185 0.950 . S
C1179 C1177 1.387 . S
C1179 C1181 1.390 . S
C1179 H1183 0.950 . S
H1180 C1176 0.950 . S
C1181 C1179 1.390 . S
C1181 C1182 1.387 . S
C1181 H1184 0.950 . S
C1182 C1181 1.387 . S
C1182 C1185 1.387 . S
H1183 C1179 0.950 . S
H1184 C1181 0.950 . S
C1185 C1176 1.390 . S
C1185 H1178 0.950 . S
C1185 C1182 1.387 . S
C1186 C1187 1.387 . S
C1186 H1190 0.950 . S
C1186 C1195 1.390 . S
C1187 C1186 1.387 . S
C1187 C1189 1.387 . S
H1188 C1195 0.950 . S
C1189 C1187 1.387 . S
C1189 C1191 1.390 . S
C1189 H1193 0.950 . S
H1190 C1186 0.950 . S
C1191 C1189 1.390 . S
C1191 C1192 1.387 . S
C1191 H1194 0.950 . S
C1192 C1191 1.387 . S
C1192 C1195 1.387 . S
H1193 C1189 0.950 . S
H1194 C1191 0.950 . S
C1195 C1186 1.390 . S
C1195 H1188 0.950 . S
C1195 C1192 1.387 . S
C1196 C1197 1.387 . S
C1196 H1200 0.950 . S
C1196 C1205 1.390 . S
C1197 C1196 1.387 . S
C1197 C1199 1.387 . S
H1198 C1205 0.950 . S
C1199 C1197 1.387 . S
C1199 C1201 1.390 . S
C1199 H1203 0.950 . S
H1200 C1196 0.950 . S
C1201 C1199 1.390 . S
C1201 C1202 1.387 . S
C1201 H1204 0.950 . S
C1202 C1201 1.387 . S
C1202 C1205 1.387 . S
H1203 C1199 0.950 . S
H1204 C1201 0.950 . S
C1205 C1196 1.390 . S
C1205 H1198 0.950 . S
C1205 C1202 1.387 . S
C1206 C1207 1.387 . S
C1206 H1210 0.950 . S
C1206 C1215 1.390 . S
C1207 C1206 1.387 . S
C1207 C1209 1.387 . S
H1208 C1215 0.950 . S
C1209 C1207 1.387 . S
C1209 C1211 1.390 . S
C1209 H1213 0.950 . S
H1210 C1206 0.950 . S
C1211 C1209 1.390 . S
C1211 C1212 1.387 . S
C1211 H1214 0.950 . S
C1212 C1211 1.387 . S
C1212 C1215 1.387 . S
H1213 C1209 0.950 . S
H1214 C1211 0.950 . S
C1215 C1206 1.390 . S
C1215 H1208 0.950 . S
C1215 C1212 1.387 . S
C1216 C1217 1.387 . S
C1216 H1220 0.950 . S
C1216 C1225 1.390 . S
C1217 C1216 1.387 . S
C1217 C1219 1.387 . S
H1218 C1225 0.950 . S
C1219 C1217 1.387 . S
C1219 C1221 1.390 . S
C1219 H1223 0.950 . S
H1220 C1216 0.950 . S
C1221 C1219 1.390 . S
C1221 C1222 1.387 . S
C1221 H1224 0.950 . S
C1222 C1221 1.387 . S
C1222 C1225 1.387 . S
H1223 C1219 0.950 . S
H1224 C1221 0.950 . S
C1225 C1216 1.390 . S
C1225 H1218 0.950 . S
C1225 C1222 1.387 . S
C1226 C1227 1.387 . S
C1226 H1230 0.950 . S
C1226 C1235 1.390 . S
C1227 C1226 1.387 . S
C1227 C1229 1.387 . S
H1228 C1235 0.950 . S
C1229 C1227 1.387 . S
C1229 C1231 1.390 . S
C1229 H1233 0.950 . S
H1230 C1226 0.950 . S
C1231 C1229 1.390 . S
C1231 C1232 1.387 . S
C1231 H1234 0.950 . S
C1232 C1231 1.387 . S
C1232 C1235 1.387 . S
H1233 C1229 0.950 . S
H1234 C1231 0.950 . S
C1235 C1226 1.390 . S
C1235 H1228 0.950 . S
C1235 C1232 1.387 . S
C1236 C1237 1.387 . S
C1236 H1240 0.950 . S
C1236 C1245 1.390 . S
C1237 C1236 1.387 . S
C1237 C1239 1.387 . S
H1238 C1245 0.950 . S
C1239 C1237 1.387 . S
C1239 C1241 1.390 . S
C1239 H1243 0.950 . S
H1240 C1236 0.950 . S
C1241 C1239 1.390 . S
C1241 C1242 1.387 . S
C1241 H1244 0.950 . S
C1242 C1241 1.387 . S
C1242 C1245 1.387 . S
H1243 C1239 0.950 . S
H1244 C1241 0.950 . S
C1245 C1236 1.390 . S
C1245 H1238 0.950 . S
C1245 C1242 1.387 . S
C1246 C1247 1.387 . S
C1246 H1250 0.950 . S
C1246 C1255 1.390 . S
C1247 C1246 1.387 . S
C1247 C1249 1.387 . S
H1248 C1255 0.950 . S
C1249 C1247 1.387 . S
C1249 C1251 1.390 . S
C1249 H1253 0.950 . S
H1250 C1246 0.950 . S
C1251 C1249 1.390 . S
C1251 C1252 1.387 . S
C1251 H1254 0.950 . S
C1252 C1251 1.387 . S
C1252 C1255 1.387 . S
H1253 C1249 0.950 . S
H1254 C1251 0.950 . S
C1255 C1246 1.390 . S
C1255 H1248 0.950 . S
C1255 C1252 1.387 . S
C1256 C1257 1.379 1_655 S
C1256 H1260 0.950 . S
C1256 C1265 1.390 . S
C1257 C1256 1.379 1_455 S
C1257 C1259 1.397 . S
H1258 C1265 0.950 . S
C1259 C1257 1.397 . S
C1259 C1261 1.390 . S
C1259 H1263 0.950 . S
H1260 C1256 0.950 . S
C1261 C1259 1.390 . S
C1261 C1262 1.387 1_455 S
C1261 H1264 0.950 . S
C1262 C1261 1.387 1_655 S
C1262 C1265 1.387 . S
H1263 C1259 0.950 . S
H1264 C1261 0.950 . S
C1265 C1256 1.390 . S
C1265 H1258 0.950 . S
C1265 C1262 1.387 . S
C1266 C1267 1.387 . S
C1266 H1270 0.950 . S
C1266 C1275 1.390 . S
C1267 C1266 1.387 . S
C1267 C1269 1.387 . S
H1268 C1275 0.950 . S
C1269 C1267 1.387 . S
C1269 C1271 1.390 . S
C1269 H1273 0.950 . S
H1270 C1266 0.950 . S
C1271 C1269 1.390 . S
C1271 C1272 1.387 . S
C1271 H1274 0.950 . S
C1272 C1271 1.387 . S
C1272 C1275 1.387 . S
H1273 C1269 0.950 . S
H1274 C1271 0.950 . S
C1275 C1266 1.390 . S
C1275 H1268 0.950 . S
C1275 C1272 1.387 . S
C1276 C1277 1.387 . S
C1276 H1280 0.950 . S
C1276 C1285 1.390 1_556 S
C1277 C1276 1.387 . S
C1277 C1279 1.387 1_556 S
H1278 C1285 0.950 . S
C1279 C1277 1.387 1_554 S
C1279 C1281 1.392 . S
C1279 H1283 0.948 1_554 S
H1280 C1276 0.950 . S
C1281 C1279 1.392 . S
C1281 C1282 1.387 . S
C1281 H1284 0.950 . S
C1282 C1281 1.387 . S
C1282 C1285 1.387 . S
H1283 C1279 0.948 1_556 S
H1284 C1281 0.950 . S
C1285 C1276 1.390 1_554 S
C1285 H1278 0.950 . S
C1285 C1282 1.387 . S
C1286 C1287 1.387 . S
C1286 H1290 0.950 . S
C1286 C1295 1.360 1_455 S
C1287 C1286 1.387 . S
C1287 C1289 1.387 . S
H1288 C1295 0.963 . S
C1289 C1287 1.387 . S
C1289 C1291 1.390 1_455 S
C1289 H1293 0.950 . S
H1290 C1286 0.950 . S
C1291 C1289 1.390 1_655 S
C1291 C1292 1.387 . S
C1291 H1294 0.950 . S
C1292 C1291 1.387 . S
C1292 C1295 1.405 . S
H1293 C1289 0.950 . S
H1294 C1291 0.950 . S
C1295 C1286 1.360 1_655 S
C1295 H1288 0.963 . S
C1295 C1292 1.405 . S
C1296 C1297 1.387 . S
C1296 H1300 0.950 . S
C1296 C1305 1.390 1_556 S
C1297 C1296 1.387 . S
C1297 C1299 1.387 . S
H1298 C1305 0.950 . S
C1299 C1297 1.387 . S
C1299 C1301 1.390 . S
C1299 H1303 0.950 . S
H1300 C1296 0.950 . S
C1301 C1299 1.390 . S
C1301 C1302 1.387 . S
C1301 H1304 0.950 . S
C1302 C1301 1.387 . S
C1302 C1305 1.387 1_556 S
H1303 C1299 0.950 . S
H1304 C1301 0.950 . S
C1305 C1296 1.390 1_554 S
C1305 H1298 0.950 . S
C1305 C1302 1.387 1_554 S
C1306 C1307 1.387 . S
C1306 H1310 0.950 . S
C1306 C1315 1.390 . S
C1307 C1306 1.387 . S
C1307 C1309 1.387 . S
H1308 C1315 0.950 . S
C1309 C1307 1.387 . S
C1309 C1311 1.390 . S
C1309 H1313 0.950 . S
H1310 C1306 0.950 . S
C1311 C1309 1.390 . S
C1311 C1312 1.387 . S
C1311 H1314 0.950 . S
C1312 C1311 1.387 . S
C1312 C1315 1.387 . S
H1313 C1309 0.950 . S
H1314 C1311 0.950 . S
C1315 C1306 1.390 . S
C1315 H1308 0.950 . S
C1315 C1312 1.387 . S
C1316 C1317 1.387 . S
C1316 H1320 0.950 . S
C1316 C1325 1.390 . S
C1317 C1316 1.387 . S
C1317 C1319 1.387 . S
H1318 C1325 0.950 . S
C1319 C1317 1.387 . S
C1319 C1321 1.390 . S
C1319 H1323 0.950 . S
H1320 C1316 0.950 . S
C1321 C1319 1.390 . S
C1321 C1322 1.387 . S
C1321 H1324 0.950 . S
C1322 C1321 1.387 . S
C1322 C1325 1.387 . S
H1323 C1319 0.950 . S
H1324 C1321 0.950 . S
C1325 C1316 1.390 . S
C1325 H1318 0.950 . S
C1325 C1322 1.387 . S
C1326 C1327 1.387 . S
C1326 H1330 0.950 . S
C1326 C1335 1.390 . S
C1327 C1326 1.387 . S
C1327 C1329 1.387 . S
H1328 C1335 0.950 . S
C1329 C1327 1.387 . S
C1329 C1331 1.390 . S
C1329 H1333 0.950 . S
H1330 C1326 0.950 . S
C1331 C1329 1.390 . S
C1331 C1332 1.387 . S
C1331 H1334 0.950 . S
C1332 C1331 1.387 . S
C1332 C1335 1.387 . S
H1333 C1329 0.950 . S
H1334 C1331 0.950 . S
C1335 C1326 1.390 . S
C1335 H1328 0.950 . S
C1335 C1332 1.387 . S
C1336 C1337 1.387 . S
C1336 H1340 0.950 . S
C1336 C1345 1.390 . S
C1337 C1336 1.387 . S
C1337 C1339 1.387 . S
H1338 C1345 0.950 . S
C1339 C1337 1.387 . S
C1339 C1341 1.390 . S
C1339 H1343 0.950 . S
H1340 C1336 0.950 . S
C1341 C1339 1.390 . S
C1341 C1342 1.387 . S
C1341 H1344 0.950 . S
C1342 C1341 1.387 . S
C1342 C1345 1.387 . S
H1343 C1339 0.950 . S
H1344 C1341 0.950 . S
C1345 C1336 1.390 . S
C1345 H1338 0.950 . S
C1345 C1342 1.387 . S
C1346 C1347 1.387 . S
C1346 H1350 0.950 . S
C1346 C1355 1.390 . S
C1347 C1346 1.387 . S
C1347 C1349 1.387 . S
H1348 C1355 0.950 . S
C1349 C1347 1.387 . S
C1349 C1351 1.390 . S
C1349 H1353 0.950 . S
H1350 C1346 0.950 . S
C1351 C1349 1.390 . S
C1351 C1352 1.387 . S
C1351 H1354 0.950 . S
C1352 C1351 1.387 . S
C1352 C1355 1.387 . S
H1353 C1349 0.950 . S
H1354 C1351 0.950 . S
C1355 C1346 1.390 . S
C1355 H1348 0.950 . S
C1355 C1352 1.387 . S
C1356 C1357 1.387 . S
C1356 H1360 0.950 . S
C1356 C1365 1.390 . S
C1357 C1356 1.387 . S
C1357 C1359 1.387 . S
H1358 C1365 0.950 . S
C1359 C1357 1.387 . S
C1359 C1361 1.390 1_545 S
C1359 H1363 0.950 1_545 S
H1360 C1356 0.950 . S
C1361 C1359 1.390 1_565 S
C1361 C1362 1.387 1_565 S
C1361 H1364 0.950 . S
C1362 C1361 1.387 1_545 S
C1362 C1365 1.387 . S
H1363 C1359 0.950 1_565 S
H1364 C1361 0.950 . S
C1365 C1356 1.390 . S
C1365 H1358 0.950 . S
C1365 C1362 1.387 . S
C1366 C1367 1.387 . S
C1366 H1370 0.950 . S
C1366 C1375 1.390 . S
C1367 C1366 1.387 . S
C1367 C1369 1.387 . S
H1368 C1375 0.950 . S
C1369 C1367 1.387 . S
C1369 C1371 1.390 . S
C1369 H1373 0.950 1_556 S
H1370 C1366 0.950 . S
C1371 C1369 1.390 . S
C1371 C1372 1.387 . S
C1371 H1374 0.950 . S
C1372 C1371 1.387 . S
C1372 C1375 1.387 . S
H1373 C1369 0.950 1_554 S
H1374 C1371 0.950 . S
C1375 C1366 1.390 . S
C1375 H1368 0.950 . S
C1375 C1372 1.387 . S
C1376 C1377 1.387 . S
C1376 H1380 0.950 . S
C1376 C1385 1.390 . S
C1377 C1376 1.387 . S
C1377 C1379 1.387 . S
H1378 C1385 0.950 . S
C1379 C1377 1.387 . S
C1379 C1381 1.390 . S
C1379 H1383 0.950 . S
H1380 C1376 0.950 . S
C1381 C1379 1.390 . S
C1381 C1382 1.387 . S
C1381 H1384 0.950 . S
C1382 C1381 1.387 . S
C1382 C1385 1.387 . S
H1383 C1379 0.950 . S
H1384 C1381 0.950 . S
C1385 C1376 1.390 . S
C1385 H1378 0.950 . S
C1385 C1382 1.387 . S
C1386 C1387 1.387 . S
C1386 H1390 0.950 . S
C1386 C1395 1.390 . S
C1387 C1386 1.387 . S
C1387 C1389 1.387 . S
H1388 C1395 0.950 . S
C1389 C1387 1.387 . S
C1389 C1391 1.390 . S
C1389 H1393 0.950 . S
H1390 C1386 0.950 . S
C1391 C1389 1.390 . S
C1391 C1392 1.387 . S
C1391 H1394 0.950 . S
C1392 C1391 1.387 . S
C1392 C1395 1.387 . S
H1393 C1389 0.950 . S
H1394 C1391 0.950 . S
C1395 C1386 1.390 . S
C1395 H1388 0.950 . S
C1395 C1392 1.387 . S
C1396 C1397 1.387 . S
C1396 H1400 0.950 . S
C1396 C1405 1.390 . S
C1397 C1396 1.387 . S
C1397 C1399 1.387 . S
H1398 C1405 0.950 . S
C1399 C1397 1.387 . S
C1399 C1401 1.390 . S
C1399 H1403 0.950 . S
H1400 C1396 0.950 . S
C1401 C1399 1.390 . S
C1401 C1402 1.387 . S
C1401 H1404 0.950 . S
C1402 C1401 1.387 . S
C1402 C1405 1.387 . S
H1403 C1399 0.950 . S
H1404 C1401 0.950 . S
C1405 C1396 1.390 . S
C1405 H1398 0.950 . S
C1405 C1402 1.387 . S
C1406 C1407 1.387 . S
C1406 H1410 0.950 . S
C1406 C1415 1.390 . S
C1407 C1406 1.387 . S
C1407 C1409 1.387 . S
H1408 C1415 0.950 . S
C1409 C1407 1.387 . S
C1409 C1411 1.390 . S
C1409 H1413 0.950 . S
H1410 C1406 0.950 . S
C1411 C1409 1.390 . S
C1411 C1412 1.387 . S
C1411 H1414 0.950 . S
C1412 C1411 1.387 . S
C1412 C1415 1.387 . S
H1413 C1409 0.950 . S
H1414 C1411 0.950 . S
C1415 C1406 1.390 . S
C1415 H1408 0.950 . S
C1415 C1412 1.387 . S
C1416 C1417 1.387 . S
C1416 H1420 0.950 . S
C1416 C1425 1.390 . S
C1417 C1416 1.387 . S
C1417 C1419 1.387 . S
H1418 C1425 0.950 . S
C1419 C1417 1.387 . S
C1419 C1421 1.390 . S
C1419 H1423 0.950 . S
H1420 C1416 0.950 . S
C1421 C1419 1.390 . S
C1421 C1422 1.387 . S
C1421 H1424 0.950 . S
C1422 C1421 1.387 . S
C1422 C1425 1.387 . S
H1423 C1419 0.950 . S
H1424 C1421 0.950 . S
C1425 C1416 1.390 . S
C1425 H1418 0.950 . S
C1425 C1422 1.387 . S
C1426 C1427 1.387 . S
C1426 H1430 0.950 . S
C1426 C1435 1.390 . S
C1427 C1426 1.387 . S
C1427 C1429 1.387 . S
H1428 C1435 0.950 . S
C1429 C1427 1.387 . S
C1429 C1431 1.390 . S
C1429 H1433 0.950 . S
H1430 C1426 0.950 . S
C1431 C1429 1.390 . S
C1431 C1432 1.387 . S
C1431 H1434 0.950 . S
C1432 C1431 1.387 . S
C1432 C1435 1.387 . S
H1433 C1429 0.950 . S
H1434 C1431 0.950 . S
C1435 C1426 1.390 . S
C1435 H1428 0.950 . S
C1435 C1432 1.387 . S
C1436 C1437 1.387 . S
C1436 H1440 0.950 . S
C1436 C1445 1.390 . S
C1437 C1436 1.387 . S
C1437 C1439 1.387 . S
H1438 C1445 0.950 . S
C1439 C1437 1.387 . S
C1439 C1441 1.390 . S
C1439 H1443 0.950 . S
H1440 C1436 0.950 . S
C1441 C1439 1.390 . S
C1441 C1442 1.387 . S
C1441 H1444 0.950 . S
C1442 C1441 1.387 . S
C1442 C1445 1.387 . S
H1443 C1439 0.950 . S
H1444 C1441 0.950 . S
C1445 C1436 1.390 . S
C1445 H1438 0.950 . S
C1445 C1442 1.387 . S
C1446 C1447 1.387 . S
C1446 H1450 0.950 . S
C1446 C1455 1.390 . S
C1447 C1446 1.387 . S
C1447 C1449 1.387 . S
H1448 C1455 0.950 . S
C1449 C1447 1.387 . S
C1449 C1451 1.390 . S
C1449 H1453 0.950 . S
H1450 C1446 0.950 . S
C1451 C1449 1.390 . S
C1451 C1452 1.387 . S
C1451 H1454 0.950 . S
C1452 C1451 1.387 . S
C1452 C1455 1.387 . S
H1453 C1449 0.950 . S
H1454 C1451 0.950 . S
C1455 C1446 1.390 . S
C1455 H1448 0.950 . S
C1455 C1452 1.387 . S
C1456 C1457 1.387 . S
C1456 H1460 0.950 . S
C1456 C1465 1.390 . S
C1457 C1456 1.387 . S
C1457 C1459 1.387 . S
H1458 C1465 0.950 . S
C1459 C1457 1.387 . S
C1459 C1461 1.390 . S
C1459 H1463 0.950 . S
H1460 C1456 0.950 . S
C1461 C1459 1.390 . S
C1461 C1462 1.387 . S
C1461 H1464 0.950 . S
C1462 C1461 1.387 . S
C1462 C1465 1.387 . S
H1463 C1459 0.950 . S
H1464 C1461 0.950 . S
C1465 C1456 1.390 . S
C1465 H1458 0.950 . S
C1465 C1462 1.387 . S
C1466 C1467 1.387 . S
C1466 H1470 0.950 . S
C1466 C1475 1.390 . S
C1467 C1466 1.387 . S
C1467 C1469 1.387 . S
H1468 C1475 0.950 . S
C1469 C1467 1.387 . S
C1469 C1471 1.390 . S
C1469 H1473 0.950 . S
H1470 C1466 0.950 . S
C1471 C1469 1.390 . S
C1471 C1472 1.387 . S
C1471 H1474 0.950 . S
C1472 C1471 1.387 . S
C1472 C1475 1.387 . S
H1473 C1469 0.950 . S
H1474 C1471 0.950 . S
C1475 C1466 1.390 . S
C1475 H1468 0.950 . S
C1475 C1472 1.387 . S
C1476 C1477 1.387 . S
C1476 H1480 0.950 1_554 S
C1476 C1485 1.390 . S
C1477 C1476 1.387 . S
C1477 C1479 1.387 . S
H1478 C1485 0.950 . S
C1479 C1477 1.387 . S
C1479 C1481 1.390 . S
C1479 H1483 0.950 . S
H1480 C1476 0.950 1_556 S
C1481 C1479 1.390 . S
C1481 C1482 1.387 . S
C1481 H1484 0.950 . S
C1482 C1481 1.387 . S
C1482 C1485 1.387 . S
H1483 C1479 0.950 . S
H1484 C1481 0.950 . S
C1485 C1476 1.390 . S
C1485 H1478 0.950 . S
C1485 C1482 1.387 . S
C1486 C1487 1.387 1_655 S
C1486 H1490 0.950 . S
C1486 C1495 1.390 . S
C1487 C1486 1.387 1_455 S
C1487 C1489 1.396 . S
H1488 C1495 0.950 . S
C1489 C1487 1.396 . S
C1489 C1491 1.355 1_455 S
C1489 H1493 0.978 . S
H1490 C1486 0.950 . S
C1491 C1489 1.355 1_655 S
C1491 C1492 1.387 . S
C1491 H1494 0.950 . S
C1492 C1491 1.387 . S
C1492 C1495 1.387 . S
H1493 C1489 0.978 . S
H1494 C1491 0.950 . S
C1495 C1486 1.390 . S
C1495 H1488 0.950 . S
C1495 C1492 1.387 . S
C1496 C1497 1.387 . S
C1496 H1500 0.950 . S
C1496 C1505 1.390 . S
C1497 C1496 1.387 . S
C1497 C1499 1.387 . S
H1498 C1505 0.950 . S
C1499 C1497 1.387 . S
C1499 C1501 1.390 . S
C1499 H1503 0.950 . S
H1500 C1496 0.950 . S
C1501 C1499 1.390 . S
C1501 C1502 1.387 . S
C1501 H1504 0.950 . S
C1502 C1501 1.387 . S
C1502 C1505 1.387 . S
H1503 C1499 0.950 . S
H1504 C1501 0.950 . S
C1505 C1496 1.390 . S
C1505 H1498 0.950 . S
C1505 C1502 1.387 . S
C1506 C1507 1.387 . S
C1506 H1510 0.950 . S
C1506 C1515 1.390 . S
C1507 C1506 1.387 . S
C1507 C1509 1.387 . S
H1508 C1515 0.950 . S
C1509 C1507 1.387 . S
C1509 C1511 1.390 . S
C1509 H1513 0.950 . S
H1510 C1506 0.950 . S
C1511 C1509 1.390 . S
C1511 C1512 1.387 . S
C1511 H1514 0.950 . S
C1512 C1511 1.387 . S
C1512 C1515 1.387 . S
H1513 C1509 0.950 . S
H1514 C1511 0.950 . S
C1515 C1506 1.390 . S
C1515 H1508 0.950 . S
C1515 C1512 1.387 . S
C1516 C1517 1.387 . S
C1516 H1520 0.950 . S
C1516 C1525 1.390 . S
C1517 C1516 1.387 . S
C1517 C1519 1.387 . S
H1518 C1525 0.950 . S
C1519 C1517 1.387 . S
C1519 C1521 1.390 . S
C1519 H1523 0.950 . S
H1520 C1516 0.950 . S
C1521 C1519 1.390 . S
C1521 C1522 1.387 . S
C1521 H1524 0.950 . S
C1522 C1521 1.387 . S
C1522 C1525 1.387 . S
H1523 C1519 0.950 . S
H1524 C1521 0.950 . S
C1525 C1516 1.390 . S
C1525 H1518 0.950 . S
C1525 C1522 1.387 . S
C1526 C1527 1.387 . S
C1526 H1530 0.950 . S
C1526 C1535 1.390 . S
C1527 C1526 1.387 . S
C1527 C1529 1.387 . S
H1528 C1535 0.950 . S
C1529 C1527 1.387 . S
C1529 C1531 1.390 . S
C1529 H1533 0.950 . S
H1530 C1526 0.950 . S
C1531 C1529 1.390 . S
C1531 C1532 1.387 . S
C1531 H1534 0.950 . S
C1532 C1531 1.387 . S
C1532 C1535 1.387 . S
H1533 C1529 0.950 . S
H1534 C1531 0.950 . S
C1535 C1526 1.390 . S
C1535 H1528 0.950 . S
C1535 C1532 1.387 . S
C1536 C1537 1.387 . S
C1536 H1540 0.950 . S
C1536 C1545 1.390 . S
C1537 C1536 1.387 . S
C1537 C1539 1.387 . S
H1538 C1545 0.950 . S
C1539 C1537 1.387 . S
C1539 C1541 1.390 . S
C1539 H1543 0.950 . S
H1540 C1536 0.950 . S
C1541 C1539 1.390 . S
C1541 C1542 1.387 . S
C1541 H1544 0.950 . S
C1542 C1541 1.387 . S
C1542 C1545 1.387 . S
H1543 C1539 0.950 . S
H1544 C1541 0.950 . S
C1545 C1536 1.390 . S
C1545 H1538 0.950 . S
C1545 C1542 1.387 . S
C1546 C1547 1.387 . S
C1546 H1550 0.950 . S
C1546 C1555 1.390 . S
C1547 C1546 1.387 . S
C1547 C1549 1.387 . S
H1548 C1555 0.950 . S
C1549 C1547 1.387 . S
C1549 C1551 1.390 . S
C1549 H1553 0.950 . S
H1550 C1546 0.950 . S
C1551 C1549 1.390 . S
C1551 C1552 1.387 . S
C1551 H1554 0.950 . S
C1552 C1551 1.387 . S
C1552 C1555 1.387 . S
H1553 C1549 0.950 . S
H1554 C1551 0.950 . S
C1555 C1546 1.390 . S
C1555 H1548 0.950 . S
C1555 C1552 1.387 . S
C1556 C1557 1.387 . S
C1556 H1560 0.950 . S
C1556 C1565 1.390 . S
C1557 C1556 1.387 . S
C1557 C1559 1.387 . S
H1558 C1565 0.950 . S
C1559 C1557 1.387 . S
C1559 C1561 1.390 . S
C1559 H1563 0.950 . S
H1560 C1556 0.950 . S
C1561 C1559 1.390 . S
C1561 C1562 1.387 . S
C1561 H1564 0.950 . S
C1562 C1561 1.387 . S
C1562 C1565 1.387 . S
H1563 C1559 0.950 . S
H1564 C1561 0.950 . S
C1565 C1556 1.390 . S
C1565 H1558 0.950 . S
C1565 C1562 1.387 . S
C1566 C1567 1.387 . S
C1566 H1570 0.950 . S
C1566 C1575 1.390 . S
C1567 C1566 1.387 . S
C1567 C1569 1.387 . S
H1568 C1575 0.950 . S
C1569 C1567 1.387 . S
C1569 C1571 1.390 . S
C1569 H1573 0.950 . S
H1570 C1566 0.950 . S
C1571 C1569 1.390 . S
C1571 C1572 1.387 . S
C1571 H1574 0.950 . S
C1572 C1571 1.387 . S
C1572 C1575 1.387 . S
H1573 C1569 0.950 . S
H1574 C1571 0.950 . S
C1575 C1566 1.390 . S
C1575 H1568 0.950 . S
C1575 C1572 1.387 . S
C1576 C1577 1.387 . S
C1576 H1580 0.950 . S
C1576 C1585 1.390 . S
C1577 C1576 1.387 . S
C1577 C1579 1.387 . S
H1578 C1585 0.950 . S
C1579 C1577 1.387 . S
C1579 C1581 1.390 . S
C1579 H1583 0.950 . S
H1580 C1576 0.950 . S
C1581 C1579 1.390 . S
C1581 C1582 1.387 . S
C1581 H1584 0.950 . S
C1582 C1581 1.387 . S
C1582 C1585 1.387 . S
H1583 C1579 0.950 . S
H1584 C1581 0.950 . S
C1585 C1576 1.390 . S
C1585 H1578 0.950 . S
C1585 C1582 1.387 . S
C1586 C1587 1.387 . S
C1586 H1590 0.950 . S
C1586 C1595 1.390 . S
C1587 C1586 1.387 . S
C1587 C1589 1.387 . S
H1588 C1595 0.950 . S
C1589 C1587 1.387 . S
C1589 C1591 1.390 . S
C1589 H1593 0.950 . S
H1590 C1586 0.950 . S
C1591 C1589 1.390 . S
C1591 C1592 1.387 . S
C1591 H1594 0.950 . S
C1592 C1591 1.387 . S
C1592 C1595 1.387 . S
H1593 C1589 0.950 . S
H1594 C1591 0.950 . S
C1595 C1586 1.390 . S
C1595 H1588 0.950 . S
C1595 C1592 1.387 . S
C1596 C1597 1.387 . S
C1596 H1600 0.950 . S
C1596 C1605 1.390 . S
C1597 C1596 1.387 . S
C1597 C1599 1.387 . S
H1598 C1605 0.950 . S
C1599 C1597 1.387 . S
C1599 C1601 1.390 . S
C1599 H1603 0.950 . S
H1600 C1596 0.950 . S
C1601 C1599 1.390 . S
C1601 C1602 1.387 . S
C1601 H1604 0.950 . S
C1602 C1601 1.387 . S
C1602 C1605 1.387 . S
H1603 C1599 0.950 . S
H1604 C1601 0.950 . S
C1605 C1596 1.390 . S
C1605 H1598 0.950 . S
C1605 C1602 1.387 . S
C1606 C1607 1.387 . S
C1606 H1610 0.950 . S
C1606 C1615 1.390 . S
C1607 C1606 1.387 . S
C1607 C1609 1.387 . S
H1608 C1615 0.950 . S
C1609 C1607 1.387 . S
C1609 C1611 1.390 . S
C1609 H1613 0.950 . S
H1610 C1606 0.950 . S
C1611 C1609 1.390 . S
C1611 C1612 1.387 . S
C1611 H1614 0.950 . S
C1612 C1611 1.387 . S
C1612 C1615 1.387 . S
H1613 C1609 0.950 . S
H1614 C1611 0.950 . S
C1615 C1606 1.390 . S
C1615 H1608 0.950 . S
C1615 C1612 1.387 . S
C1616 C1617 1.387 . S
C1616 H1620 0.950 . S
C1616 C1625 1.390 . S
C1617 C1616 1.387 . S
C1617 C1619 1.387 . S
H1618 C1625 0.950 . S
C1619 C1617 1.387 . S
C1619 C1621 1.390 . S
C1619 H1623 0.950 . S
H1620 C1616 0.950 . S
C1621 C1619 1.390 . S
C1621 C1622 1.387 . S
C1621 H1624 0.950 . S
C1622 C1621 1.387 . S
C1622 C1625 1.387 . S
H1623 C1619 0.950 . S
H1624 C1621 0.950 . S
C1625 C1616 1.390 . S
C1625 H1618 0.950 . S
C1625 C1622 1.387 . S
C1626 C1627 1.387 . S
C1626 H1630 0.950 . S
C1626 C1635 1.390 . S
C1627 C1626 1.387 . S
C1627 C1629 1.387 . S
H1628 C1635 0.950 . S
C1629 C1627 1.387 . S
C1629 C1631 1.390 . S
C1629 H1633 0.950 . S
H1630 C1626 0.950 . S
C1631 C1629 1.390 . S
C1631 C1632 1.387 . S
C1631 H1634 0.950 . S
C1632 C1631 1.387 . S
C1632 C1635 1.387 . S
H1633 C1629 0.950 . S
H1634 C1631 0.950 . S
C1635 C1626 1.390 . S
C1635 H1628 0.950 . S
C1635 C1632 1.387 . S
C1636 C1637 1.387 . S
C1636 H1640 0.950 . S
C1636 C1645 1.390 1_545 S
C1637 C1636 1.387 . S
C1637 C1639 1.387 . S
H1638 C1645 0.950 . S
C1639 C1637 1.387 . S
C1639 C1641 1.390 1_545 S
C1639 H1643 0.950 . S
H1640 C1636 0.950 . S
C1641 C1639 1.390 1_565 S
C1641 C1642 1.387 . S
C1641 H1644 0.950 . S
C1642 C1641 1.387 . S
C1642 C1645 1.387 . S
H1643 C1639 0.950 . S
H1644 C1641 0.950 . S
C1645 C1636 1.390 1_565 S
C1645 H1638 0.950 . S
C1645 C1642 1.387 . S
C1646 C1647 1.387 . S
C1646 H1650 0.950 . S
C1646 C1655 1.390 . S
C1647 C1646 1.387 . S
C1647 C1649 1.387 1_554 S
H1648 C1655 0.950 . S
C1649 C1647 1.387 1_556 S
C1649 C1651 1.390 1_556 S
C1649 H1653 0.950 . S
H1650 C1646 0.950 . S
C1651 C1649 1.390 1_554 S
C1651 C1652 1.387 . S
C1651 H1654 0.950 1_554 S
C1652 C1651 1.387 . S
C1652 C1655 1.387 . S
H1653 C1649 0.950 . S
H1654 C1651 0.950 1_556 S
C1655 C1646 1.390 . S
C1655 H1648 0.950 . S
C1655 C1652 1.387 . S
C1656 C1657 1.387 . S
C1656 H1660 0.950 . S
C1656 C1665 1.390 . S
C1657 C1656 1.387 . S
C1657 C1659 1.387 . S
H1658 C1665 0.950 . S
C1659 C1657 1.387 . S
C1659 C1661 1.390 . S
C1659 H1663 0.950 . S
H1660 C1656 0.950 . S
C1661 C1659 1.390 . S
C1661 C1662 1.387 . S
C1661 H1664 0.950 . S
C1662 C1661 1.387 . S
C1662 C1665 1.387 . S
H1663 C1659 0.950 . S
H1664 C1661 0.950 . S
C1665 C1656 1.390 . S
C1665 H1658 0.950 . S
C1665 C1662 1.387 . S
C1666 C1667 1.387 . S
C1666 H1670 0.950 . S
C1666 C1675 1.390 . S
C1667 C1666 1.387 . S
C1667 C1669 1.387 . S
H1668 C1675 0.950 . S
C1669 C1667 1.387 . S
C1669 C1671 1.390 . S
C1669 H1673 0.950 . S
H1670 C1666 0.950 . S
C1671 C1669 1.390 . S
C1671 C1672 1.387 . S
C1671 H1674 0.950 . S
C1672 C1671 1.387 . S
C1672 C1675 1.387 . S
H1673 C1669 0.950 . S
H1674 C1671 0.950 . S
C1675 C1666 1.390 . S
C1675 H1668 0.950 . S
C1675 C1672 1.387 . S
C1676 C1677 1.387 . S
C1676 H1680 0.950 . S
C1676 C1685 1.390 . S
C1677 C1676 1.387 . S
C1677 C1679 1.387 . S
H1678 C1685 0.950 . S
C1679 C1677 1.387 . S
C1679 C1681 1.390 . S
C1679 H1683 0.950 . S
H1680 C1676 0.950 . S
C1681 C1679 1.390 . S
C1681 C1682 1.387 . S
C1681 H1684 0.950 . S
C1682 C1681 1.387 . S
C1682 C1685 1.387 . S
H1683 C1679 0.950 . S
H1684 C1681 0.950 . S
C1685 C1676 1.390 . S
C1685 H1678 0.950 . S
C1685 C1682 1.387 . S
C1686 C1687 1.387 . S
C1686 H1690 0.950 . S
C1686 C1695 1.390 . S
C1687 C1686 1.387 . S
C1687 C1689 1.387 . S
H1688 C1695 0.950 . S
C1689 C1687 1.387 . S
C1689 C1691 1.390 . S
C1689 H1693 0.950 . S
H1690 C1686 0.950 . S
C1691 C1689 1.390 . S
C1691 C1692 1.387 . S
C1691 H1694 0.950 . S
C1692 C1691 1.387 . S
C1692 C1695 1.387 . S
H1693 C1689 0.950 . S
H1694 C1691 0.950 . S
C1695 C1686 1.390 . S
C1695 H1688 0.950 . S
C1695 C1692 1.387 . S
C1696 C1697 1.387 . S
C1696 H1700 0.950 . S
C1696 C1705 1.390 . S
C1697 C1696 1.387 . S
C1697 C1699 1.387 . S
H1698 C1705 0.950 . S
C1699 C1697 1.387 . S
C1699 C1701 1.390 . S
C1699 H1703 0.950 . S
H1700 C1696 0.950 . S
C1701 C1699 1.390 . S
C1701 C1702 1.387 . S
C1701 H1704 0.950 . S
C1702 C1701 1.387 . S
C1702 C1705 1.387 . S
H1703 C1699 0.950 . S
H1704 C1701 0.950 . S
C1705 C1696 1.390 . S
C1705 H1698 0.950 . S
C1705 C1702 1.387 . S
C1706 C1707 1.387 . S
C1706 H1710 0.950 . S
C1706 C1715 1.390 . S
C1707 C1706 1.387 . S
C1707 C1709 1.387 . S
H1708 C1715 0.950 . S
C1709 C1707 1.387 . S
C1709 C1711 1.390 . S
C1709 H1713 0.950 . S
H1710 C1706 0.950 . S
C1711 C1709 1.390 . S
C1711 C1712 1.387 . S
C1711 H1714 0.950 . S
C1712 C1711 1.387 . S
C1712 C1715 1.387 . S
H1713 C1709 0.950 . S
H1714 C1711 0.950 . S
C1715 C1706 1.390 . S
C1715 H1708 0.950 . S
C1715 C1712 1.387 . S
C1716 C1717 1.387 . S
C1716 H1720 0.950 . S
C1716 C1725 1.390 . S
C1717 C1716 1.387 . S
C1717 C1719 1.387 . S
H1718 C1725 0.950 . S
C1719 C1717 1.387 . S
C1719 C1721 1.390 . S
C1719 H1723 0.950 . S
H1720 C1716 0.950 . S
C1721 C1719 1.390 . S
C1721 C1722 1.387 . S
C1721 H1724 0.950 . S
C1722 C1721 1.387 . S
C1722 C1725 1.387 . S
H1723 C1719 0.950 . S
H1724 C1721 0.950 . S
C1725 C1716 1.390 . S
C1725 H1718 0.950 . S
C1725 C1722 1.387 . S
C1726 C1727 1.387 . S
C1726 H1730 0.950 . S
C1726 C1735 1.390 . S
C1727 C1726 1.387 . S
C1727 C1729 1.387 . S
H1728 C1735 0.950 . S
C1729 C1727 1.387 . S
C1729 C1731 1.390 . S
C1729 H1733 0.950 . S
H1730 C1726 0.950 . S
C1731 C1729 1.390 . S
C1731 C1732 1.387 . S
C1731 H1734 0.950 . S
C1732 C1731 1.387 . S
C1732 C1735 1.387 . S
H1733 C1729 0.950 . S
H1734 C1731 0.950 . S
C1735 C1726 1.390 . S
C1735 H1728 0.950 . S
C1735 C1732 1.387 . S
C1736 C1737 1.387 . S
C1736 H1740 0.950 . S
C1736 C1745 1.390 . S
C1737 C1736 1.387 . S
C1737 C1739 1.387 . S
H1738 C1745 0.950 . S
C1739 C1737 1.387 . S
C1739 C1741 1.390 . S
C1739 H1743 0.950 . S
H1740 C1736 0.950 . S
C1741 C1739 1.390 . S
C1741 C1742 1.387 . S
C1741 H1744 0.950 . S
C1742 C1741 1.387 . S
C1742 C1745 1.387 . S
H1743 C1739 0.950 . S
H1744 C1741 0.950 . S
C1745 C1736 1.390 . S
C1745 H1738 0.950 . S
C1745 C1742 1.387 . S
C1746 C1747 1.387 . S
C1746 H1750 0.950 . S
C1746 C1755 1.390 . S
C1747 C1746 1.387 . S
C1747 C1749 1.387 . S
H1748 C1755 0.950 . S
C1749 C1747 1.387 . S
C1749 C1751 1.390 . S
C1749 H1753 0.950 . S
H1750 C1746 0.950 . S
C1751 C1749 1.390 . S
C1751 C1752 1.387 . S
C1751 H1754 0.950 . S
C1752 C1751 1.387 . S
C1752 C1755 1.387 . S
H1753 C1749 0.950 . S
H1754 C1751 0.950 . S
C1755 C1746 1.390 . S
C1755 H1748 0.950 . S
C1755 C1752 1.387 . S
C1756 C1757 1.387 . S
C1756 H1760 0.950 . S
C1756 C1765 1.390 . S
C1757 C1756 1.387 . S
C1757 C1759 1.387 . S
H1758 C1765 0.950 . S
C1759 C1757 1.387 . S
C1759 C1761 1.390 . S
C1759 H1763 0.950 . S
H1760 C1756 0.950 . S
C1761 C1759 1.390 . S
C1761 C1762 1.387 . S
C1761 H1764 0.950 . S
C1762 C1761 1.387 . S
C1762 C1765 1.387 . S
H1763 C1759 0.950 . S
H1764 C1761 0.950 . S
C1765 C1756 1.390 . S
C1765 H1758 0.950 . S
C1765 C1762 1.387 . S
C1766 C1767 1.387 . S
C1766 H1770 0.950 . S
C1766 C1775 1.390 . S
C1767 C1766 1.387 . S
C1767 C1769 1.387 . S
H1768 C1775 0.950 . S
C1769 C1767 1.387 . S
C1769 C1771 1.390 . S
C1769 H1773 0.950 . S
H1770 C1766 0.950 . S
C1771 C1769 1.390 . S
C1771 C1772 1.387 . S
C1771 H1774 0.950 . S
C1772 C1771 1.387 . S
C1772 C1775 1.387 . S
H1773 C1769 0.950 . S
H1774 C1771 0.950 . S
C1775 C1766 1.390 . S
C1775 H1768 0.950 . S
C1775 C1772 1.387 . S
C1776 C1777 1.387 . S
C1776 H1780 0.950 . S
C1776 C1785 1.390 . S
C1777 C1776 1.387 . S
C1777 C1779 1.387 . S
H1778 C1785 0.950 . S
C1779 C1777 1.387 . S
C1779 C1781 1.390 . S
C1779 H1783 0.950 . S
H1780 C1776 0.950 . S
C1781 C1779 1.390 . S
C1781 C1782 1.387 . S
C1781 H1784 0.950 . S
C1782 C1781 1.387 . S
C1782 C1785 1.387 . S
H1783 C1779 0.950 . S
H1784 C1781 0.950 . S
C1785 C1776 1.390 . S
C1785 H1778 0.950 . S
C1785 C1782 1.387 . S
C1786 C1787 1.387 . S
C1786 H1790 0.950 . S
C1786 C1795 1.390 . S
C1787 C1786 1.387 . S
C1787 C1789 1.387 . S
H1788 C1795 0.950 . S
C1789 C1787 1.387 . S
C1789 C1791 1.390 . S
C1789 H1793 0.950 . S
H1790 C1786 0.950 . S
C1791 C1789 1.390 . S
C1791 C1792 1.387 . S
C1791 H1794 0.950 . S
C1792 C1791 1.387 . S
C1792 C1795 1.387 . S
H1793 C1789 0.950 . S
H1794 C1791 0.950 . S
C1795 C1786 1.390 . S
C1795 H1788 0.950 . S
C1795 C1792 1.387 . S
C1796 C1797 1.387 . S
C1796 H1800 0.950 . S
C1796 C1805 1.391 . S
C1797 C1796 1.387 . S
C1797 C1799 1.387 . S
H1798 C1805 0.949 1_455 S
C1799 C1797 1.387 . S
C1799 C1801 1.390 . S
C1799 H1803 0.950 . S
H1800 C1796 0.950 . S
C1801 C1799 1.390 . S
C1801 C1802 1.387 . S
C1801 H1804 0.950 . S
C1802 C1801 1.387 . S
C1802 C1805 1.387 . S
H1803 C1799 0.950 . S
H1804 C1801 0.950 . S
C1805 C1796 1.391 . S
C1805 H1798 0.949 1_655 S
C1805 C1802 1.387 . S
C1806 C1807 1.387 . S
C1806 H1810 0.950 . S
C1806 C1815 1.390 . S
C1807 C1806 1.387 . S
C1807 C1809 1.387 . S
H1808 C1815 0.950 . S
C1809 C1807 1.387 . S
C1809 C1811 1.390 . S
C1809 H1813 0.950 . S
H1810 C1806 0.950 . S
C1811 C1809 1.390 . S
C1811 C1812 1.387 . S
C1811 H1814 0.950 . S
C1812 C1811 1.387 . S
C1812 C1815 1.387 . S
H1813 C1809 0.950 . S
H1814 C1811 0.950 . S
C1815 C1806 1.390 . S
C1815 H1808 0.950 . S
C1815 C1812 1.387 . S
C1816 C1817 1.387 . S
C1816 H1820 0.950 . S
C1816 C1825 1.390 . S
C1817 C1816 1.387 . S
C1817 C1819 1.387 . S
H1818 C1825 0.950 . S
C1819 C1817 1.387 . S
C1819 C1821 1.390 . S
C1819 H1823 0.950 . S
H1820 C1816 0.950 . S
C1821 C1819 1.390 . S
C1821 C1822 1.387 . S
C1821 H1824 0.950 . S
C1822 C1821 1.387 . S
C1822 C1825 1.387 . S
H1823 C1819 0.950 . S
H1824 C1821 0.950 . S
C1825 C1816 1.390 . S
C1825 H1818 0.950 . S
C1825 C1822 1.387 . S
C1826 C1827 1.387 . S
C1826 H1830 0.950 . S
C1826 C1835 1.390 . S
C1827 C1826 1.387 . S
C1827 C1829 1.387 . S
H1828 C1835 0.950 . S
C1829 C1827 1.387 . S
C1829 C1831 1.390 . S
C1829 H1833 0.950 . S
H1830 C1826 0.950 . S
C1831 C1829 1.390 . S
C1831 C1832 1.387 . S
C1831 H1834 0.950 . S
C1832 C1831 1.387 . S
C1832 C1835 1.387 . S
H1833 C1829 0.950 . S
H1834 C1831 0.950 . S
C1835 C1826 1.390 . S
C1835 H1828 0.950 . S
C1835 C1832 1.387 . S
C1836 C1837 1.387 . S
C1836 H1840 0.950 . S
C1836 C1845 1.390 . S
C1837 C1836 1.387 . S
C1837 C1839 1.387 . S
H1838 C1845 0.950 . S
C1839 C1837 1.387 . S
C1839 C1841 1.390 . S
C1839 H1843 0.950 . S
H1840 C1836 0.950 . S
C1841 C1839 1.390 . S
C1841 C1842 1.387 . S
C1841 H1844 0.950 . S
C1842 C1841 1.387 . S
C1842 C1845 1.387 . S
H1843 C1839 0.950 . S
H1844 C1841 0.950 . S
C1845 C1836 1.390 . S
C1845 H1838 0.950 . S
C1845 C1842 1.387 . S
C1846 C1847 1.387 . S
C1846 H1850 0.950 . S
C1846 C1855 1.390 . S
C1847 C1846 1.387 . S
C1847 C1849 1.387 . S
H1848 C1855 0.950 . S
C1849 C1847 1.387 . S
C1849 C1851 1.390 . S
C1849 H1853 0.950 . S
H1850 C1846 0.950 . S
C1851 C1849 1.390 . S
C1851 C1852 1.387 . S
C1851 H1854 0.950 . S
C1852 C1851 1.387 . S
C1852 C1855 1.387 . S
H1853 C1849 0.950 . S
H1854 C1851 0.950 . S
C1855 C1846 1.390 . S
C1855 H1848 0.950 . S
C1855 C1852 1.387 . S
C1856 C1857 1.387 . S
C1856 H1860 0.950 . S
C1856 C1865 1.390 . S
C1857 C1856 1.387 . S
C1857 C1859 1.387 . S
H1858 C1865 0.950 . S
C1859 C1857 1.387 . S
C1859 C1861 1.390 . S
C1859 H1863 0.950 . S
H1860 C1856 0.950 . S
C1861 C1859 1.390 . S
C1861 C1862 1.387 . S
C1861 H1864 0.950 . S
C1862 C1861 1.387 . S
C1862 C1865 1.387 . S
H1863 C1859 0.950 . S
H1864 C1861 0.950 . S
C1865 C1856 1.390 . S
C1865 H1858 0.950 . S
C1865 C1862 1.387 . S
C1866 C1867 1.387 . S
C1866 H1870 0.950 . S
C1866 C1875 1.385 1_565 S
C1867 C1866 1.387 . S
C1867 C1869 1.387 . S
H1868 C1875 0.956 . S
C1869 C1867 1.387 . S
C1869 C1871 1.390 . S
C1869 H1873 0.950 . S
H1870 C1866 0.950 . S
C1871 C1869 1.390 . S
C1871 C1872 1.387 . S
C1871 H1874 0.950 . S
C1872 C1871 1.387 . S
C1872 C1875 1.387 1_565 S
H1873 C1869 0.950 . S
H1874 C1871 0.950 . S
C1875 C1866 1.385 1_545 S
C1875 H1868 0.956 . S
C1875 C1872 1.387 1_545 S
C1876 C1877 1.387 . S
C1876 H1880 0.950 . S
C1876 C1885 1.390 . S
C1877 C1876 1.387 . S
C1877 C1879 1.387 . S
H1878 C1885 0.950 . S
C1879 C1877 1.387 . S
C1879 C1881 1.390 . S
C1879 H1883 0.950 . S
H1880 C1876 0.950 . S
C1881 C1879 1.390 . S
C1881 C1882 1.387 . S
C1881 H1884 0.950 . S
C1882 C1881 1.387 . S
C1882 C1885 1.387 . S
H1883 C1879 0.950 . S
H1884 C1881 0.950 . S
C1885 C1876 1.390 . S
C1885 H1878 0.950 . S
C1885 C1882 1.387 . S
C1886 C1887 1.387 . S
C1886 H1890 0.950 . S
C1886 C1895 1.390 . S
C1887 C1886 1.387 . S
C1887 C1889 1.387 . S
H1888 C1895 0.950 . S
C1889 C1887 1.387 . S
C1889 C1891 1.390 . S
C1889 H1893 0.950 . S
H1890 C1886 0.950 . S
C1891 C1889 1.390 . S
C1891 C1892 1.387 . S
C1891 H1894 0.950 . S
C1892 C1891 1.387 . S
C1892 C1895 1.387 . S
H1893 C1889 0.950 . S
H1894 C1891 0.950 . S
C1895 C1886 1.390 . S
C1895 H1888 0.950 . S
C1895 C1892 1.387 . S
C1896 C1897 1.387 . S
C1896 H1900 0.950 . S
C1896 C1905 1.390 . S
C1897 C1896 1.387 . S
C1897 C1899 1.387 . S
H1898 C1905 0.950 . S
C1899 C1897 1.387 . S
C1899 C1901 1.390 . S
C1899 H1903 0.950 . S
H1900 C1896 0.950 . S
C1901 C1899 1.390 . S
C1901 C1902 1.387 . S
C1901 H1904 0.950 . S
C1902 C1901 1.387 . S
C1902 C1905 1.387 . S
H1903 C1899 0.950 . S
H1904 C1901 0.950 . S
C1905 C1896 1.390 . S
C1905 H1898 0.950 . S
C1905 C1902 1.387 . S
C1906 C1907 1.387 . S
C1906 H1910 0.950 . S
C1906 C1915 1.390 . S
C1907 C1906 1.387 . S
C1907 C1909 1.387 . S
H1908 C1915 0.950 . S
C1909 C1907 1.387 . S
C1909 C1911 1.390 . S
C1909 H1913 0.950 . S
H1910 C1906 0.950 . S
C1911 C1909 1.390 . S
C1911 C1912 1.387 . S
C1911 H1914 0.950 . S
C1912 C1911 1.387 . S
C1912 C1915 1.387 . S
H1913 C1909 0.950 . S
H1914 C1911 0.950 . S
C1915 C1906 1.390 . S
C1915 H1908 0.950 . S
C1915 C1912 1.387 . S
C1916 C1917 1.387 . S
C1916 H1920 0.950 . S
C1916 C1925 1.390 . S
C1917 C1916 1.387 . S
C1917 C1919 1.387 . S
H1918 C1925 0.950 . S
C1919 C1917 1.387 . S
C1919 C1921 1.390 . S
C1919 H1923 0.950 . S
H1920 C1916 0.950 . S
C1921 C1919 1.390 . S
C1921 C1922 1.387 . S
C1921 H1924 0.950 . S
C1922 C1921 1.387 . S
C1922 C1925 1.387 . S
H1923 C1919 0.950 . S
H1924 C1921 0.950 . S
C1925 C1916 1.390 . S
C1925 H1918 0.950 . S
C1925 C1922 1.387 . S
C1926 C1927 1.387 . S
C1926 H1930 0.950 . S
C1926 C1935 1.390 . S
C1927 C1926 1.387 . S
C1927 C1929 1.387 . S
H1928 C1935 0.950 . S
C1929 C1927 1.387 . S
C1929 C1931 1.390 . S
C1929 H1933 0.950 . S
H1930 C1926 0.950 . S
C1931 C1929 1.390 . S
C1931 C1932 1.387 . S
C1931 H1934 0.950 . S
C1932 C1931 1.387 . S
C1932 C1935 1.387 . S
H1933 C1929 0.950 . S
H1934 C1931 0.950 . S
C1935 C1926 1.390 . S
C1935 H1928 0.950 . S
C1935 C1932 1.387 . S
C977 C109 2.321 . S
C982 C346 2.217 . S
C987 C61 1.822 . S
C992 C394 1.961 . S
C997 C74 1.526 . S
C1002 C426 1.577 . S
C1012 C471 1.704 . S
C1007 C96 1.799 . S
C1017 C25 0.898 . S
C1022 C511 0.897 . S
C1032 C546 1.276 . S
C1027 C40 1.200 . S
C1042 C585 1.242 . S
C1037 C46 1.196 . S
C1047 C5 0.946 . S
C1052 C622 1.268 . S
C1062 C354 2.100 . S
C1057 C229 1.566 . S
C1067 C249 1.048 . S
C1072 C391 0.982 . S
C1082 C434 2.206 . S
C1077 C271 2.035 . S
C1092 C466 1.339 . S
C1087 C172 1.279 . S
C1097 C236 1.425 . S
C1102 C506 1.440 . S
C1112 C554 0.809 . S
C1107 C242 0.828 . S
C1122 C595 2.101 . S
C1117 C278 2.191 . S
C1132 C625 2.094 . S
C1127 C179 2.119 . S
C1142 C351 1.960 . S
C1137 C159 1.216 . S
C1147 C285 1.898 . S
C1152 C674 2.033 . S
C1162 C711 1.068 . S
C1157 C333 1.077 . S
C1172 C742 1.047 . S
C1167 C320 1.103 . S
C1177 C123 2.662 . S
C1182 C635 2.617 . S
C1187 C138 1.496 . S
C1192 C431 1.453 . S
C1197 C326 1.807 . S
C1202 C794 1.823 . S
C1212 C826 1.966 . S
C1207 C298 1.817 . S
C1222 C355 2.233 . S
C1217 C67 2.275 . S
C1232 C825 1.872 . S
C1227 C110 1.886 . S
C1237 C88 1.534 . S
C1242 C435 1.560 . S
C1247 C75 1.681 . S
C1252 C782 1.622 . S
C1262 C502 0.887 . S
C1257 C11 0.885 1_455 S
C1267 C47 1.140 . S
C1272 C715 1.265 . S
C1282 C594 1.225 . S
C1277 C32 1.183 . S
C1292 C871 1.330 . S
C1287 C26 1.330 . S
C1302 C345 2.247 1_556 S
C1297 C152 2.209 . S
C1312 C822 1.002 . S
C1307 C319 0.929 . S
C1317 C124 2.226 . S
C1322 C425 2.202 . S
C1327 C284 1.327 . S
C1332 C795 1.348 . S
C1337 C145 1.198 . S
C1342 C515 1.378 . S
C1352 C705 0.767 . S
C1347 C312 0.740 . S
C1357 C117 1.712 . S
C1362 C586 1.909 . S
C1367 C291 2.019 1_556 S
C1372 C874 2.067 . S
C1377 C194 2.229 . S
C1382 C342 2.186 . S
C1387 C180 2.005 . S
C1392 C665 1.975 . S
C1397 C263 1.047 . S
C1402 C542 1.067 . S
C1407 C243 0.776 . S
C1412 C751 0.996 . S
C1422 C866 2.634 . S
C1417 C277 2.668 1_565 S
C1427 C215 1.367 . S
C1432 C422 1.413 . S
C1442 C465 1.700 . S
C1437 C256 1.520 . S
C1452 C395 2.032 . S
C1447 C200 2.052 . S
C1457 C81 2.321 . S
C1462 C906 2.217 . S
C1472 C834 1.962 . S
C1467 C89 1.822 . S
C1477 C102 1.527 . S
C1482 C946 1.577 . S
C1487 C68 1.799 . S
C1492 C791 1.704 . S
C1497 C53 0.897 . S
C1502 C671 0.896 . S
C1512 C706 1.276 . S
C1507 C12 1.200 . S
C1522 C745 1.241 . S
C1517 C18 1.195 . S
C1532 C862 1.267 . S
C1527 C33 0.941 . S
C1542 C914 2.099 . S
C1537 C257 1.567 . S
C1547 C193 1.046 . S
C1552 C831 0.984 . S
C1562 C954 2.205 . S
C1557 C201 2.037 . S
C1572 C786 1.339 . S
C1567 C214 1.275 . S
C1582 C666 1.440 1_556 S
C1577 C264 1.425 . S
C1587 C186 0.829 . S
C1592 C714 0.809 . S
C1602 C755 2.101 . S
C1597 C208 2.192 . S
C1607 C221 2.118 . S
C1612 C865 2.093 . S
C1622 C911 1.961 . S
C1617 C313 1.217 . S
C1627 C131 1.898 . S
C1632 C514 2.033 . S
C1642 C551 1.068 . S
C1637 C151 1.077 . S
C1652 C582 1.047 . S
C1647 C166 1.103 . S
C1662 C875 2.617 . S
C1657 C305 2.662 . S
C1667 C292 1.496 . S
C1672 C951 1.452 . S
C1682 C474 1.823 . S
C1677 C144 1.807 . S
C1692 C386 1.965 . S
C1687 C116 1.818 . S
C1697 C95 2.275 . S
C1702 C915 2.231 . S
C1712 C385 1.872 . S
C1707 C82 1.886 . S
C1717 C60 1.534 . S
C1722 C955 1.561 . S
C1727 C103 1.682 . S
C1732 C462 1.619 . S
C1737 C39 0.887 . S
C1742 C662 0.884 . S
C1752 C555 1.263 . S
C1747 C19 1.141 . S
C1757 C4 1.180 . S
C1762 C754 1.224 . S
C1767 C54 1.330 . S
C1772 C631 1.331 . S
C1782 C905 2.247 . S
C1777 C334 2.209 . S
C1787 C165 0.931 . S
C1792 C382 1.004 . S
C1802 C945 2.202 1_656 S
C1797 C306 2.226 . S
C1807 C130 1.328 . S
C1812 C475 1.349 . S
C1817 C327 1.198 . S
C1822 C675 1.378 . S
C1832 C545 0.768 . S
C1827 C158 0.742 . S
C1837 C299 1.708 . S
C1842 C746 1.909 1_655 S
C1852 C634 2.066 . S
C1847 C137 2.021 . S
C1862 C902 2.188 . S
C1857 C250 2.231 . S
C1872 C505 1.975 1_565 S
C1867 C222 2.005 . S
C1877 C235 1.047 . S
C1882 C702 1.066 . S
C1892 C591 1.004 . S
C1887 C187 0.785 . S
C1897 C207 2.667 . S
C1902 C626 2.634 . S
C1907 C173 1.367 . S
C1912 C942 1.413 . S
C1922 C785 1.700 . S
C1917 C228 1.519 . S
C1932 C835 2.033 . S
C1927 C270 2.052 . S
