# Generated by pormake.
# Topology tsx, (6,3)-cn, num edge types: 1
# Building blocks:
#     Node 0, Type 0, BuildingBlock: LEVNOQ01_clean_sbu_1, # of connection points: 6
#     Node 1, Type 0, BuildingBlock: LEVNOQ01_clean_sbu_1, # of connection points: 6
#     Node 2, Type 1, BuildingBlock: WUSLED_clean_sbu_0, # of connection points: 3
#     Node 3, Type 1, BuildingBlock: WUSLED_clean_sbu_0, # of connection points: 3
#     Node 4, Type 1, BuildingBlock: WUSLED_clean_sbu_0, # of connection points: 3
#     Node 5, Type 1, BuildingBlock: WUSLED_clean_sbu_0, # of connection points: 3
#     Edge 6, Type (0, 1), BuildingBlock: TEMPAE_clean_linker_10, # of connection points: 2
#     Edge 7, Type (0, 1), BuildingBlock: TEMPAE_clean_linker_10, # of connection points: 2
#     Edge 8, Type (0, 1), BuildingBlock: TEMPAE_clean_linker_10, # of connection points: 2
#     Edge 9, Type (0, 1), BuildingBlock: TEMPAE_clean_linker_10, # of connection points: 2
#     Edge 10, Type (0, 1), BuildingBlock: TEMPAE_clean_linker_10, # of connection points: 2
#     Edge 11, Type (0, 1), BuildingBlock: TEMPAE_clean_linker_10, # of connection points: 2
#     Edge 12, Type (0, 1), BuildingBlock: TEMPAE_clean_linker_10, # of connection points: 2
#     Edge 13, Type (0, 1), BuildingBlock: TEMPAE_clean_linker_10, # of connection points: 2
#     Edge 14, Type (0, 1), BuildingBlock: TEMPAE_clean_linker_10, # of connection points: 2
#     Edge 15, Type (0, 1), BuildingBlock: TEMPAE_clean_linker_10, # of connection points: 2
#     Edge 16, Type (0, 1), BuildingBlock: TEMPAE_clean_linker_10, # of connection points: 2
#     Edge 17, Type (0, 1), BuildingBlock: TEMPAE_clean_linker_10, # of connection points: 2
# Relax obj value: 0.123
# Max RMSD: 0.154
# Mean RMSD: 0.115
data_MOF--net-tsx--node1-LEVNOQ01_clean_sbu_1--node2-WUSLED_clean_sbu_0--edge1-TEMPAE_clean_linker_10
_symmetry_space_group_name_H-M    P1
_symmetry_Int_Tables_number       1
_symmetry_cell_setting            triclinic
loop_
_symmetry_equiv_pos_as_xyz
'x, y, z'
_cell_length_a     24.380078
_cell_length_b     29.4938
_cell_length_c     47.550424
_cell_angle_alpha  97.800919
_cell_angle_beta   90.437024
_cell_angle_gamma 90.71302
loop_
_atom_site_label
_atom_site_type_symbol
_atom_site_fract_x
_atom_site_fract_y
_atom_site_fract_z
_atom_type_partial_charge
O0 O 0.12992 0.0392 0.07881 0.0
Mg1 Mg 0.16207 0.03594 0.0381 0.0
O2 O 0.04611 0.02238 0.06219 0.0
Mg3 Mg 0.04995 0.02439 0.01224 0.0
O4 O 0.12289 0.07806 0.01401 0.0
O5 O 0.20925 0.0895 0.03065 0.0
O6 O 0.06286 0.03268 0.96199 0.0
O7 O 0.9944 0.08978 0.02033 0.0
Mg8 Mg 0.98129 0.00627 0.9796 0.0
O9 O 0.97133 0.97083 0.01308 0.0
O10 O 0.01895 0.97134 0.94385 0.0
O11 O 0.95776 0.07535 0.97811 0.0
O12 O 0.90828 0.97539 0.97902 0.0
C13 C 0.15404 0.94388 0.00784 0.0
C14 C 0.07998 0.03038 0.08308 0.0
C15 C 0.16772 0.10294 0.01712 0.0
C16 C 0.05018 0.00414 0.94018 0.0
C17 C 0.96472 0.10249 1.00079 0.0
C18 C 0.92381 0.95861 1.00127 0.0
O19 O 0.18913 0.97249 0.01926 0.0
O20 O 0.10415 0.95577 0.00465 0.0
O21 O 0.6198 0.55865 0.58245 0.0
Mg22 Mg 0.64923 0.55148 0.54193 0.0
O23 O 0.54883 0.51891 0.56341 0.0
Mg24 Mg 0.55178 0.52639 0.5135 0.0
O25 O 0.6138 0.59072 0.51538 0.0
O26 O 0.69702 0.60444 0.5363 0.0
O27 O 0.5589 0.53883 0.46414 0.0
O28 O 0.48882 0.58306 0.52212 0.0
Mg29 Mg 0.47908 0.49801 0.47848 0.0
O30 O 0.48389 0.46415 0.5129 0.0
O31 O 0.523 0.47653 0.4416 0.0
O32 O 0.44007 0.56227 0.48332 0.0
O33 O 0.41946 0.45165 0.47813 0.0
C34 C 0.6625 0.45946 0.51388 0.0
C35 C 0.57713 0.53532 0.58537 0.0
C36 C 0.65744 0.61671 0.52098 0.0
C37 C 0.55037 0.51264 0.44082 0.0
C38 C 0.4505 0.59042 0.50525 0.0
C39 C 0.44075 0.44188 0.50135 0.0
O40 O 0.68829 0.49092 0.52921 0.0
O41 O 0.61433 0.46628 0.50486 0.0
C42 C 0.95156 0.10261 0.45458 0.0
C43 C 0.93259 0.12974 0.43478 0.0
C44 C 0.88187 0.17564 0.47179 0.0
C45 C 0.89785 0.16598 0.44329 0.0
C46 C 0.90082 0.14809 0.49164 0.0
C47 C 0.93565 0.11165 0.48304 0.0
U48 U 0.05323 -0.00176 0.42876 0.0
O49 O 0.04744 0.9419 0.45454 0.0
O50 O 0.11752 0.99009 0.46009 0.0
C51 C 0.09443 0.95306 0.4675 0.0
C52 C 0.98811 0.06508 0.44531 0.0
C53 C 0.13113 0.91532 0.47065 0.0
C54 C 0.16385 0.86079 0.50034 0.0
C55 C 0.12702 0.89447 0.49528 0.0
C56 C 0.20852 0.8675 0.45562 0.0
C57 C 0.20544 0.84748 0.4808 0.0
C58 C 0.1715 0.90136 0.45057 0.0
C59 C 0.06655 0.98978 0.34654 0.0
C60 C 0.09997 0.99122 0.29874 0.0
C61 C 0.0049 0.0086 0.30932 0.0
C62 C 0.01436 0.00253 0.33776 0.0
C63 C 0.04737 0.0016 0.28936 0.0
C64 C 0.10937 0.98538 0.32696 0.0
C65 C 0.07723 0.97664 0.37492 0.0
O66 O 0.9695 0.02313 0.43784 0.0
O67 O 0.04115 0.07172 0.44282 0.0
O68 O 0.10717 0.00522 0.39253 0.0
O69 O 0.03635 0.95777 0.38724 0.0
H70 H 0.94462 0.12282 0.41273 0.0
H71 H 0.88321 0.18635 0.42753 0.0
H72 H 0.88947 0.15518 0.51377 0.0
H73 H 0.95041 0.09081 0.49854 0.0
H74 H 0.15995 0.84528 0.51963 0.0
H75 H 0.09582 0.90485 0.51087 0.0
H76 H 0.24034 0.85783 0.44027 0.0
H77 H 0.17503 0.91722 0.43139 0.0
H78 H 0.13383 0.98671 0.28404 0.0
H79 H 0.96403 0.01692 0.30273 0.0
H80 H 0.98067 0.00639 0.35258 0.0
H81 H 0.14996 0.97585 0.33331 0.0
C82 C 0.92045 0.98608 0.54591 0.0
C83 C 0.91414 0.95309 0.56435 0.0
C84 C 0.85076 0.9095 0.53094 0.0
C85 C 0.87981 0.91505 0.55687 0.0
C86 C 0.8564 0.94304 0.51273 0.0
C87 C 0.89124 0.98097 0.52013 0.0
U88 U 0.99888 0.06493 0.602 0.0
O89 O 0.08247 0.09336 0.60262 0.0
O90 O 0.01212 0.13974 0.60748 0.0
C91 C 0.0656 0.13588 0.60511 0.0
C92 C 0.95705 0.0259 0.5536 0.0
C93 C 0.0937 0.16635 0.58764 0.0
C94 C 0.14902 0.17863 0.54688 0.0
C95 C 0.11406 0.15056 0.56051 0.0
C96 C 0.14089 0.23896 0.58661 0.0
C97 C 0.16381 0.22248 0.56033 0.0
C98 C 0.10595 0.21116 0.6001 0.0
C99 C 0.98807 0.04198 0.67931 0.0
C100 C 0.053 0.06631 0.71768 0.0
C101 C 0.96255 0.0385 0.72823 0.0
C102 C 0.94947 0.0319 0.69931 0.0
C103 C 0.01468 0.05525 0.73775 0.0
C104 C 0.03971 0.05995 0.68868 0.0
C105 C 0.97403 0.03189 0.64891 0.0
O106 O 0.93454 0.06113 0.56896 0.0
O107 O 0.00602 0.01648 0.56286 0.0
O108 O 0.01388 0.01598 0.63204 0.0
O109 O 0.94417 0.06256 0.63848 0.0
H110 H 0.93589 0.95671 0.58451 0.0
H111 H 0.87559 0.89011 0.5715 0.0
H112 H 0.83462 0.93951 0.4926 0.0
H113 H 0.89554 0.00624 0.50572 0.0
H114 H 0.16671 0.16534 0.52665 0.0
H115 H 0.10504 0.11602 0.55051 0.0
H116 H 0.15208 0.27266 0.59731 0.0
H117 H 0.09073 0.22388 0.62101 0.0
H118 H 0.09333 0.07958 0.72439 0.0
H119 H 0.93241 0.02901 0.74308 0.0
H120 H 0.90946 0.01799 0.69248 0.0
H121 H 0.07001 0.06833 0.67358 0.0
C122 C 0.46803 0.59471 0.98155 0.0
C123 C 0.4377 0.60638 0.95837 0.0
C124 C 0.39154 0.6666 0.98915 0.0
C125 C 0.39955 0.64175 0.96218 0.0
C126 C 0.42254 0.6555 0.01227 0.0
C127 C 0.46028 0.61961 0.00852 0.0
U128 U 0.54692 0.51044 0.93105 0.0
O129 O 0.63017 0.48237 0.93187 0.0
O130 O 0.55843 0.43598 0.92855 0.0
C131 C 0.61213 0.43988 0.93047 0.0
C132 C 0.50707 0.5564 0.97746 0.0
C133 C 0.64048 0.40935 0.94792 0.0
C134 C 0.6935 0.3948 0.9894 0.0
C135 C 0.66262 0.4246 0.97499 0.0
C136 C 0.67911 0.3343 0.95017 0.0
C137 C 0.7025 0.3493 0.97701 0.0
C138 C 0.64856 0.3639 0.93588 0.0
C139 C 0.51891 0.52589 0.85195 0.0
C140 C 0.56705 0.49696 0.80871 0.0
C141 C 0.47943 0.53412 0.806 0.0
C142 C 0.47648 0.54051 0.83551 0.0
C143 C 0.52506 0.51296 0.79222 0.0
C144 C 0.56408 0.50349 0.83846 0.0
C145 C 0.5149 0.53657 0.88297 0.0
O146 O 0.48609 0.51734 0.96519 0.0
O147 O 0.55502 0.56596 0.96704 0.0
O148 O 0.55917 0.55294 0.89694 0.0
O149 O 0.48714 0.50718 0.8959 0.0
H150 H 0.44334 0.5879 0.93732 0.0
H151 H 0.37654 0.65 0.94401 0.0
H152 H 0.41704 0.67422 0.03327 0.0
H153 H 0.48328 0.61124 0.02666 0.0
H154 H 0.71069 0.40743 0.01009 0.0
H155 H 0.65691 0.45959 0.98471 0.0
H156 H 0.68606 0.29996 0.93962 0.0
H157 H 0.63237 0.35151 0.91492 0.0
H158 H 0.60286 0.48077 0.79865 0.0
H159 H 0.44611 0.54622 0.79391 0.0
H160 H 0.44125 0.5577 0.84556 0.0
H161 H 0.59726 0.49191 0.85086 0.0
C162 C 0.41653 0.47896 0.04581 0.0
C163 C 0.38907 0.46148 0.06793 0.0
C164 C 0.34208 0.40445 0.03386 0.0
C165 C 0.35211 0.42472 0.06201 0.0
C166 C 0.36941 0.42245 0.01175 0.0
C167 C 0.40632 0.45936 0.01772 0.0
U168 U 0.49975 0.55661 0.10007 0.0
O169 O 0.51853 0.63045 0.1049 0.0
O170 O 0.58561 0.58071 0.10049 0.0
C171 C 0.57178 0.62403 0.10387 0.0
C172 C 0.4566 0.51684 0.05213 0.0
C173 C 0.60497 0.6557 0.08949 0.0
C174 C 0.64019 0.68561 0.04781 0.0
C175 C 0.60722 0.65391 0.05984 0.0
C176 C 0.66829 0.72034 0.09492 0.0
C177 C 0.67071 0.71942 0.06536 0.0
C178 C 0.63579 0.68893 0.10678 0.0
C179 C 0.48136 0.53706 0.17792 0.0
C180 C 0.54049 0.56785 0.21762 0.0
C181 C 0.45918 0.52349 0.2257 0.0
C182 C 0.44661 0.51844 0.19678 0.0
C183 C 0.50681 0.54736 0.23638 0.0
C184 C 0.52796 0.56257 0.18849 0.0
C185 C 0.46925 0.52722 0.14733 0.0
O186 O 0.43721 0.55457 0.0663 0.0
O187 O 0.50419 0.50524 0.06199 0.0
O188 O 0.50923 0.50895 0.13143 0.0
O189 O 0.44298 0.55905 0.13606 0.0
H190 H 0.39647 0.47613 0.0898 0.0
H191 H 0.33135 0.41216 0.07954 0.0
H192 H 0.36333 0.40732 0.98988 0.0
H193 H 0.42737 0.47223 1.00041 0.0
H194 H 0.64122 0.68416 0.02493 0.0
H195 H 0.58368 0.62831 0.04616 0.0
H196 H 0.69205 0.74524 0.10901 0.0
H197 H 0.63482 0.69059 0.12969 0.0
H198 H 0.57745 0.5864 0.22532 0.0
H199 H 0.43205 0.508 0.23974 0.0
H200 H 0.4103 0.49897 0.18901 0.0
H201 H 0.55518 0.57735 0.17418 0.0
C202 C 0.21936 0.15721 0.99203 0.0
C203 C 0.17255 0.14799 0.00726 0.0
C204 C 0.23806 0.20224 0.9916 0.0
C205 C 0.20973 0.23882 0.00728 0.0
C206 C 0.15887 0.22994 0.01993 0.0
C207 C 0.1407 0.18436 0.01971 0.0
C208 C 0.29169 0.20997 0.97722 0.0
C209 C 0.1268 0.26797 0.03638 0.0
C210 C 0.30689 0.32883 0.04519 0.0
C211 C 0.30508 0.36355 0.02778 0.0
C212 C 0.27433 0.2891 0.03927 0.0
C213 C 0.23899 0.28355 0.01521 0.0
C214 C 0.23567 0.31898 0.99796 0.0
C215 C 0.26893 0.35847 0.00437 0.0
C216 C 0.27923 0.25225 0.05832 0.0
C217 C 0.19842 0.31466 0.97224 0.0
H218 H 0.24403 0.12894 0.98249 0.0
H219 H 0.10475 0.17717 0.03174 0.0
H220 H 0.28938 0.24014 0.96568 0.0
H221 H 0.32469 0.21682 0.99351 0.0
H222 H 0.30333 0.17969 0.96201 0.0
H223 H 0.0838 0.2572 0.03981 0.0
H224 H 0.14663 0.27798 0.05744 0.0
H225 H 0.12647 0.29866 0.02523 0.0
H226 H 0.33515 0.33202 0.06308 0.0
H227 H 0.26669 0.38536 0.99099 0.0
H228 H 0.29616 0.22083 0.04615 0.0
H229 H 0.23816 0.24327 0.06599 0.0
H230 H 0.30628 0.26288 0.07702 0.0
H231 H 0.21666 0.29069 0.95493 0.0
H232 H 0.19251 0.34811 0.96443 0.0
H233 H 0.15773 0.30043 0.97703 0.0
C234 C 0.18127 0.87352 0.02693 0.0
C235 C 0.17121 0.89554 1.00309 0.0
C236 C 0.21217 0.83328 0.02495 0.0
C237 C 0.23415 0.81466 0.99845 0.0
C238 C 0.22141 0.83538 0.97396 0.0
C239 C 0.19034 0.8758 0.9766 0.0
C240 C 0.22446 0.81272 0.05166 0.0
C241 C 0.24361 0.81648 0.94529 0.0
C242 C 0.36876 0.74978 0.9994 0.0
C243 C 0.35107 0.70419 0.99284 0.0
C244 C 0.33117 0.78592 1.00115 0.0
C245 C 0.27431 0.77623 0.99682 0.0
C246 C 0.25625 0.73001 0.99098 0.0
C247 C 0.29491 0.6946 0.9887 0.0
C248 C 0.3524 0.83458 0.00728 0.0
C249 C 0.19608 0.71799 0.98721 0.0
H250 H 0.16763 0.88941 0.04756 0.0
H251 H 0.18385 0.89341 0.95829 0.0
H252 H 0.21972 0.77492 0.04788 0.0
H253 H 0.26763 0.82069 0.05828 0.0
H254 H 0.19737 0.82641 0.06941 0.0
H255 H 0.22632 0.83393 0.928 0.0
H256 H 0.28891 0.82073 0.94547 0.0
H257 H 0.23434 0.77929 0.94056 0.0
H258 H 0.41224 0.75717 1.00247 0.0
H259 H 0.28126 0.65926 0.98378 0.0
H260 H 0.33346 0.85203 0.02689 0.0
H261 H 0.3407 0.85379 0.98968 0.0
H262 H 0.39772 0.83643 0.00994 0.0
H263 H 0.17355 0.73161 0.00666 0.0
H264 H 0.18865 0.68045 0.98281 0.0
H265 H 0.1787 0.73423 0.96946 0.0
C266 C 0.90404 0.8976 0.0325 0.0
C267 C 0.88738 0.92373 0.01153 0.0
C268 C 0.86959 0.86281 0.04044 0.0
C269 C 0.81755 0.85411 0.02707 0.0
C270 C 0.80072 0.88044 0.00596 0.0
C271 C 0.83555 0.91489 0.9986 0.0
C272 C 0.88873 0.83531 0.06309 0.0
C273 C 0.74564 0.87249 0.99119 0.0
C274 C 0.74191 0.74131 0.03136 0.0
C275 C 0.70538 0.75407 0.05359 0.0
C276 C 0.77885 0.77345 0.02245 0.0
C277 C 0.77911 0.81929 0.03612 0.0
C278 C 0.74104 0.83255 0.0579 0.0
C279 C 0.70465 0.79988 0.06628 0.0
C280 C 0.81815 0.75825 0.99876 0.0
C281 C 0.73912 0.88122 0.07263 0.0
H282 H 0.94404 0.90395 0.04246 0.0
H283 H 0.82191 0.93483 0.98239 0.0
H284 H 0.85952 0.83907 0.08101 0.0
H285 H 0.88947 0.79845 0.05441 0.0
H286 H 0.93028 0.84606 0.07137 0.0
H287 H 0.74002 0.89433 0.97412 0.0
H288 H 0.74101 0.83612 0.98174 0.0
H289 H 0.71229 0.87986 0.00681 0.0
H290 H 0.7428 0.70594 0.02156 0.0
H291 H 0.67578 0.81013 0.08311 0.0
H292 H 0.86093 0.76191 0.00696 0.0
H293 H 0.81441 0.78033 0.98174 0.0
H294 H 0.81085 0.72208 0.98934 0.0
H295 H 0.77931 0.89106 0.08292 0.0
H296 H 0.70671 0.88601 0.08902 0.0
H297 H 0.73139 0.90501 0.0569 0.0
C298 C 0.92608 0.16867 0.98049 0.0
C299 C 0.93501 0.14647 1.00432 0.0
C300 C 0.89028 0.20569 0.98143 0.0
C301 C 0.86158 0.2206 0.00674 0.0
C302 C 0.8725 0.19983 0.03139 0.0
C303 C 0.90952 0.16313 0.02995 0.0
C304 C 0.88088 0.22717 0.95474 0.0
C305 C 0.8426 0.21425 0.05873 0.0
C306 C 0.78965 0.33333 1.00265 0.0
C307 C 0.73888 0.31788 0.99061 0.0
C308 C 0.82862 0.3023 0.01046 0.0
C309 C 0.81674 0.2547 0.00597 0.0
C310 C 0.76376 0.23939 0.99623 0.0
C311 C 0.72557 0.27108 0.98872 0.0
C312 C 0.88396 0.32025 0.02152 0.0
C313 C 0.74871 0.18911 0.99162 0.0
H314 H 0.94597 0.15605 0.96069 0.0
H315 H 0.91589 0.14577 0.04838 0.0
H316 H 0.83835 0.21953 0.94685 0.0
H317 H 0.88557 0.26492 0.9593 0.0
H318 H 0.90975 0.21433 0.93761 0.0
H319 H 0.86329 0.20192 0.07711 0.0
H320 H 0.8392 0.25203 0.06298 0.0
H321 H 0.80033 0.1997 0.05695 0.0
H322 H 0.80042 0.36937 1.00432 0.0
H323 H 0.68591 0.25887 0.98018 0.0
H324 H 0.91486 0.31276 0.00457 0.0
H325 H 0.89713 0.303 0.03973 0.0
H326 H 0.88373 0.3578 0.02832 0.0
H327 H 0.77075 0.17209 0.97282 0.0
H328 H 0.70397 0.18326 0.98797 0.0
H329 H 0.76143 0.17247 0.01015 0.0
C330 C 0.68155 0.6739 0.48898 0.0
C331 C 0.66003 0.66396 0.51467 0.0
C332 C 0.70442 0.71742 0.48698 0.0
C333 C 0.70714 0.75069 0.51149 0.0
C334 C 0.68093 0.74177 0.53667 0.0
C335 C 0.65725 0.6986 0.53781 0.0
C336 C 0.73037 0.72612 0.4595 0.0
C337 C 0.68351 0.77571 0.56348 0.0
C338 C 0.83454 0.82509 0.52649 0.0
C339 C 0.81506 0.86852 0.52311 0.0
C340 C 0.80042 0.78621 0.52137 0.0
C341 C 0.74521 0.79083 0.51275 0.0
C342 C 0.72582 0.83438 0.5083 0.0
C343 C 0.76113 0.87277 0.51341 0.0
C344 C 0.82294 0.74043 0.52635 0.0
C345 C 0.66745 0.84055 0.49893 0.0
H346 H 0.68454 0.64675 0.47126 0.0
H347 H 0.64142 0.6904 0.55781 0.0
H348 H 0.72311 0.76171 0.4554 0.0
H349 H 0.77537 0.72156 0.46091 0.0
H350 H 0.71426 0.702 0.44124 0.0
H351 H 0.65567 0.76584 0.58009 0.0
H352 H 0.72606 0.77763 0.57208 0.0
H353 H 0.6726 0.81042 0.55902 0.0
H354 H 0.87649 0.82163 0.53354 0.0
H355 H 0.74596 0.90636 0.51081 0.0
H356 H 0.81678 0.71496 0.50715 0.0
H357 H 0.80051 0.7276 0.54397 0.0
H358 H 0.86738 0.74238 0.5318 0.0
H359 H 0.65915 0.81853 0.47848 0.0
H360 H 0.65879 0.87664 0.4963 0.0
H361 H 0.63853 0.82961 0.51469 0.0
C362 C 0.67112 0.38067 0.48701 0.0
C363 C 0.68717 0.41382 0.50953 0.0
C364 C 0.69765 0.33833 0.48259 0.0
C365 C 0.74032 0.32926 0.50136 0.0
C366 C 0.75389 0.36147 0.52519 0.0
C367 C 0.72738 0.40343 0.52888 0.0
C368 C 0.68212 0.30429 0.45709 0.0
C369 C 0.79864 0.35282 0.54591 0.0
C370 C 0.80022 0.21057 0.49748 0.0
C371 C 0.84623 0.21502 0.48052 0.0
C372 C 0.76478 0.24745 0.50441 0.0
C373 C 0.77599 0.28933 0.49406 0.0
C374 C 0.82305 0.29415 0.47745 0.0
C375 C 0.85762 0.25691 0.47092 0.0
C376 C 0.71536 0.2416 0.52259 0.0
C377 C 0.83702 0.33873 0.46663 0.0
H378 H 0.6394 0.3884 0.47235 0.0
H379 H 0.73881 0.42847 0.54689 0.0
H380 H 0.71648 0.30121 0.4418 0.0
H381 H 0.67489 0.26996 0.46353 0.0
H382 H 0.64479 0.31454 0.44613 0.0
H383 H 0.79851 0.37827 0.56541 0.0
H384 H 0.79422 0.31808 0.55214 0.0
H385 H 0.83916 0.35471 0.53563 0.0
H386 H 0.79138 0.17805 0.50482 0.0
H387 H 0.89383 0.26056 0.45827 0.0
H388 H 0.67731 0.24631 0.51044 0.0
H389 H 0.71584 0.26812 0.54152 0.0
H390 H 0.71366 0.20733 0.5298 0.0
H391 H 0.80263 0.34889 0.4535 0.0
H392 H 0.87485 0.33649 0.45366 0.0
H393 H 0.84298 0.36633 0.48475 0.0
C394 C 0.37592 0.4174 0.5362 0.0
C395 C 0.41318 0.40557 0.51431 0.0
C396 C 0.33637 0.3856 0.54291 0.0
C397 C 0.33468 0.34092 0.52748 0.0
C398 C 0.37387 0.3284 0.50611 0.0
C399 C 0.41229 0.36112 0.49958 0.0
C400 C 0.29467 0.40048 0.56549 0.0
C401 C 0.37353 0.28123 0.48917 0.0
C402 C 0.25979 0.25081 0.56281 0.0
C403 C 0.20847 0.249 0.54933 0.0
C404 C 0.30178 0.27947 0.5552 0.0
C405 C 0.29188 0.30741 0.53381 0.0
C406 C 0.24044 0.30459 0.51945 0.0
C407 C 0.19915 0.27521 0.5274 0.0
C408 C 0.35622 0.28089 0.57063 0.0
C409 C 0.2283 0.33383 0.49651 0.0
H410 H 0.37536 0.45238 0.54675 0.0
H411 H 0.44002 0.35266 0.48197 0.0
H412 H 0.25297 0.3988 0.55585 0.0
H413 H 0.29482 0.37695 0.58182 0.0
H414 H 0.30257 0.43592 0.57609 0.0
H415 H 0.41008 0.27556 0.47539 0.0
H416 H 0.37217 0.25457 0.50353 0.0
H417 H 0.33622 0.27665 0.47552 0.0
H418 H 0.26659 0.23036 0.57981 0.0
H419 H 0.15913 0.27381 0.51719 0.0
H420 H 0.36305 0.3153 0.58288 0.0
H421 H 0.39009 0.27489 0.55517 0.0
H422 H 0.35843 0.25495 0.58549 0.0
H423 H 0.22653 0.37027 0.50603 0.0
H424 H 0.18869 0.32417 0.48547 0.0
H425 H 0.26151 0.33098 0.48058 0.0
C426 C 0.44402 0.6732 0.5037 0.0
C427 C 0.41981 0.63264 0.50995 0.0
C428 C 0.41197 0.7118 0.50201 0.0
C429 C 0.35497 0.70936 0.50717 0.0
C430 C 0.33147 0.66934 0.51573 0.0
C431 C 0.36424 0.63097 0.51656 0.0
C432 C 0.43823 0.75375 0.49255 0.0
C433 C 0.27106 0.66586 0.52199 0.0
C434 C 0.26951 0.81634 0.51426 0.0
C435 C 0.24578 0.81326 0.4871 0.0
C436 C 0.30587 0.78307 0.5211 0.0
C437 C 0.31881 0.74613 0.50019 0.0
C438 C 0.29582 0.74327 0.47255 0.0
C439 C 0.25952 0.77701 0.46631 0.0
C440 C 0.3297 0.78702 0.55074 0.0
C441 C 0.30881 0.70409 0.44977 0.0
H442 H 0.48718 0.67375 0.49834 0.0
H443 H 0.34608 0.59913 0.52129 0.0
H444 H 0.42425 0.75692 0.47064 0.0
H445 H 0.42555 0.78512 0.50639 0.0
H446 H 0.48374 0.75213 0.4927 0.0
H447 H 0.26128 0.63555 0.53268 0.0
H448 H 0.25719 0.69706 0.53562 0.0
H449 H 0.24728 0.66293 0.50182 0.0
H450 H 0.25949 0.84481 0.53022 0.0
H451 H 0.24084 0.77444 0.44538 0.0
H452 H 0.37513 0.78852 0.54989 0.0
H453 H 0.31836 0.75628 0.56062 0.0
H454 H 0.31521 0.81789 0.56455 0.0
H455 H 0.35377 0.70226 0.44643 0.0
H456 H 0.28842 0.70747 0.4292 0.0
H457 H 0.2954 0.67121 0.45658 0.0
C458 C 0.0985 0.04726 0.135 0.0
C459 C 0.06305 0.02858 0.11288 0.0
C460 C 0.08764 0.04267 0.16332 0.0
C461 C 0.03983 0.01889 0.17004 0.0
C462 C 0.00271 0.00113 0.14803 0.0
C463 C 0.01465 0.00632 0.11962 0.0
C464 C 0.12867 0.06191 0.18595 0.0
C465 C 0.95129 0.97566 0.15447 0.0
C466 C 0.05934 0.96891 0.23856 0.0
C467 C 0.03751 0.00311 0.25859 0.0
C468 C 0.05681 0.97199 0.20943 0.0
C469 C 0.03173 0.01029 0.19994 0.0
C470 C 0.00639 0.04347 0.2199 0.0
C471 C 0.00951 0.03946 0.24905 0.0
C472 C 0.08426 0.93569 0.18902 0.0
C473 C 0.9791 0.0847 0.21066 0.0
H474 H 0.13578 0.06494 0.13015 0.0
H475 H 0.98708 0.99175 0.1027 0.0
H476 H 0.108 0.08505 0.20283 0.0
H477 H 0.14667 0.03364 0.19602 0.0
H478 H 0.16259 0.08124 0.17732 0.0
H479 H 0.92678 0.96364 0.13503 0.0
H480 H 0.96203 0.94562 0.16505 0.0
H481 H 0.92548 -0.00185 0.16942 0.0
H482 H 0.07993 0.94017 0.24579 0.0
H483 H 0.99242 0.06592 0.26443 0.0
H484 H 0.12203 0.95026 0.18068 0.0
H485 H 0.05692 0.92411 0.17064 0.0
H486 H 0.0958 0.90547 0.1993 0.0
H487 H 0.01087 0.1083 0.20409 0.0
H488 H 0.95466 0.10365 0.22795 0.0
H489 H 0.95185 0.07432 0.19205 0.0
C490 C 0.08164 0.05614 0.90532 0.0
C491 C 0.05927 0.01414 0.91076 0.0
C492 C 0.08106 0.06832 0.87765 0.0
C493 C 0.05683 0.03809 0.85511 0.0
C494 C 0.03589 0.99515 0.8604 0.0
C495 C 0.03799 0.98355 0.88797 0.0
C496 C 0.10422 0.11425 0.87276 0.0
C497 C 0.00895 0.96206 0.83716 0.0
C498 C 0.99205 0.07491 0.7893 0.0
C499 C 0.02961 0.05819 0.76833 0.0
C500 C 0.00229 0.07178 0.81806 0.0
C501 C 0.05117 0.05115 0.82603 0.0
C502 C 0.09079 0.03694 0.80516 0.0
C503 C 0.07956 0.04065 0.77656 0.0
C504 C 0.95908 0.08777 0.8396 0.0
C505 C 0.14349 0.01502 0.81278 0.0
H506 H 0.09779 0.08016 0.92279 0.0
H507 H 0.02053 0.95101 0.89183 0.0
H508 H 0.1308 0.11062 0.85377 0.0
H509 H 0.07017 0.13717 0.8687 0.0
H510 H 0.12838 0.13085 0.89133 0.0
H511 H 0.99581 0.92959 0.84467 0.0
H512 H 0.97234 0.97804 0.82882 0.0
H513 H 0.0376 0.95385 0.81924 0.0
H514 H 0.95378 0.08923 0.78309 0.0
H515 H 0.10867 0.02745 0.76047 0.0
H516 H 0.97797 0.1083 0.85855 0.0
H517 H 0.93858 0.05761 0.84678 0.0
H518 H 0.92732 0.10866 0.83072 0.0
H519 H 0.16343 0.03564 0.83141 0.0
H520 H 0.17284 0.0111 0.79488 0.0
H521 H 0.13433 0.98062 0.81871 0.0
C522 C 0.60802 0.53065 0.63466 0.0
C523 C 0.56564 0.524 0.61424 0.0
C524 C 0.59995 0.52263 0.66259 0.0
C525 C 0.54793 0.50763 0.67068 0.0
C526 C 0.50544 0.49863 0.65002 0.0
C527 C 0.51481 0.50683 0.62187 0.0
C528 C 0.64669 0.53234 0.68371 0.0
C529 C 0.44963 0.48206 0.65795 0.0
C530 C 0.54579 0.46984 0.74413 0.0
C531 C 0.52945 0.51017 0.76089 0.0
C532 C 0.54953 0.46758 0.71444 0.0
C533 C 0.53718 0.50672 0.70138 0.0
C534 C 0.5204 0.54734 0.71826 0.0
C535 C 0.51673 0.54852 0.74771 0.0
C536 C 0.56766 0.42371 0.69712 0.0
C537 C 0.5083 0.59025 0.70535 0.0
H538 H 0.64803 0.54278 0.62894 0.0
H539 H 0.48215 0.50098 0.60615 0.0
H540 H 0.63637 0.56193 0.6997 0.0
H541 H 0.65329 0.50257 0.69522 0.0
H542 H 0.68577 0.54032 0.67344 0.0
H543 H 0.42344 0.47095 0.63899 0.0
H544 H 0.45366 0.4531 0.67045 0.0
H545 H 0.42866 0.51003 0.67155 0.0
H546 H 0.55531 0.44003 0.75421 0.0
H547 H 0.50505 0.58004 0.7606 0.0
H548 H 0.60729 0.42941 0.68675 0.0
H549 H 0.53728 0.41266 0.67999 0.0
H550 H 0.57275 0.39561 0.71027 0.0
H551 H 0.54624 0.60276 0.69601 0.0
H552 H 0.49254 0.6181 0.7212 0.0
H553 H 0.4776 0.58278 0.68795 0.0
C554 C 0.60081 0.53047 0.39769 0.0
C555 C 0.55252 0.53058 0.41339 0.0
C556 C 0.59937 0.53934 0.36928 0.0
C557 C 0.54846 0.54819 0.35653 0.0
C558 C 0.50026 0.55095 0.37305 0.0
C559 C 0.50294 0.54199 0.40122 0.0
C560 C 0.65162 0.53653 0.3524 0.0
C561 C 0.44509 0.56012 0.36046 0.0
C562 C 0.53601 0.58911 0.28398 0.0
C563 C 0.52223 0.5481 0.2667 0.0
C564 C 0.5465 0.58973 0.31321 0.0
C565 C 0.54378 0.54831 0.32522 0.0
C566 C 0.53198 0.50668 0.30751 0.0
C567 C 0.52122 0.50715 0.27857 0.0
C568 C 0.55841 0.63483 0.3314 0.0
C569 C 0.52879 0.46165 0.31927 0.0
H570 H 0.63902 0.52129 0.40712 0.0
H571 H 0.46557 0.54183 0.41346 0.0
H572 H 0.6496 0.50625 0.33578 0.0
H573 H 0.65649 0.56721 0.34143 0.0
H574 H 0.68838 0.53365 0.36596 0.0
H575 H 0.41289 0.56628 0.3769 0.0
H576 H 0.44765 0.59025 0.34886 0.0
H577 H 0.4322 0.53026 0.34494 0.0
H578 H 0.53668 0.62083 0.27483 0.0
H579 H 0.51142 0.4753 0.26515 0.0
H580 H 0.59601 0.63244 0.34436 0.0
H581 H 0.5241 0.64324 0.34632 0.0
H582 H 0.56376 0.66329 0.31853 0.0
H583 H 0.56685 0.45637 0.33126 0.0
H584 H 0.52276 0.43208 0.30234 0.0
H585 H 0.49411 0.46213 0.33427 0.0
loop_
_geom_bond_atom_site_label_1
_geom_bond_atom_site_label_2
_geom_bond_distance
_geom_bond_site_symmetry_2
_ccdc_geom_bond_type
O0 Mg1 1.990 . S
O0 C14 1.253 . S
Mg1 O0 1.990 . S
Mg1 O4 2.180 . S
Mg1 O5 2.117 . S
Mg1 O19 2.030 1_545 S
O2 Mg3 2.072 . S
O2 C14 1.260 . S
Mg3 O2 2.072 . S
Mg3 O4 2.099 . S
Mg3 O6 2.079 1_554 S
Mg3 O7 2.072 . S
Mg3 O9 2.099 1_444 S
Mg3 O20 2.079 1_544 S
O4 Mg1 2.180 . S
O4 Mg3 2.099 . S
O4 C15 1.279 . S
O5 Mg1 2.117 . S
O5 C15 1.250 . S
O6 Mg3 2.079 1_556 S
O6 C16 1.264 . S
O7 Mg3 2.072 . S
O7 C17 1.260 1_455 S
Mg8 O9 2.180 1_545 S
Mg8 O10 2.030 . S
Mg8 O11 1.990 . S
Mg8 O12 2.117 1_545 S
O9 Mg3 2.099 1_666 S
O9 Mg8 2.180 1_565 S
O9 C18 1.279 1_556 S
O10 Mg8 2.030 . S
O10 C16 1.248 1_655 S
O11 Mg8 1.990 . S
O11 C17 1.253 1_556 S
O12 Mg8 2.117 1_565 S
O12 C18 1.250 1_556 S
C13 O19 1.248 . S
C13 O20 1.245 1_554 S
C14 O0 1.253 . S
C14 O2 1.260 . S
C15 O4 1.279 . S
C15 O5 1.250 . S
C16 O6 1.264 . S
C16 O10 1.248 1_455 S
C17 O7 1.260 1_655 S
C17 O11 1.253 1_554 S
C18 O9 1.279 1_554 S
C18 O12 1.250 1_554 S
O19 Mg1 2.030 1_565 S
O19 C13 1.248 . S
O20 Mg3 2.079 1_566 S
O20 C13 1.245 1_556 S
O21 Mg22 1.990 . S
O21 C35 1.253 . S
Mg22 O21 1.990 . S
Mg22 O25 2.180 . S
Mg22 O26 2.117 . S
Mg22 O40 2.030 . S
O23 Mg24 2.072 . S
O23 C35 1.260 . S
Mg24 O23 2.072 . S
Mg24 O25 2.099 . S
Mg24 O27 2.079 . S
Mg24 O28 2.072 . S
Mg24 O30 2.099 . S
Mg24 O41 2.079 . S
O25 Mg22 2.180 . S
O25 Mg24 2.099 . S
O25 C36 1.279 . S
O26 Mg22 2.117 . S
O26 C36 1.250 . S
O27 Mg24 2.079 . S
O27 C37 1.264 . S
O28 Mg24 2.072 . S
O28 C38 1.260 . S
Mg29 O30 2.180 . S
Mg29 O31 2.030 . S
Mg29 O32 1.990 . S
Mg29 O33 2.117 . S
O30 Mg24 2.099 . S
O30 Mg29 2.180 . S
O30 C39 1.279 . S
O31 Mg29 2.030 . S
O31 C37 1.248 . S
O32 Mg29 1.990 . S
O32 C38 1.253 . S
O33 Mg29 2.117 . S
O33 C39 1.250 . S
C34 O40 1.248 . S
C34 O41 1.264 . S
C35 O21 1.253 . S
C35 O23 1.260 . S
C36 O25 1.279 . S
C36 O26 1.250 . S
C37 O27 1.264 . S
C37 O31 1.248 . S
C38 O28 1.260 . S
C38 O32 1.253 . S
C39 O30 1.279 . S
C39 O33 1.250 . S
O40 Mg22 2.030 . S
O40 C34 1.248 . S
O41 Mg24 2.079 . S
O41 C34 1.264 . S
C42 C43 1.264 . S
C42 C47 1.479 . S
C42 C52 1.465 1_655 S
C43 C42 1.264 . S
C43 C45 1.339 . S
C43 H70 0.931 . S
C44 C45 1.395 . S
C44 C46 1.320 . S
C45 C43 1.339 . S
C45 C44 1.395 . S
C45 H71 0.929 . S
C46 C44 1.320 . S
C46 C47 1.405 . S
C46 H72 0.930 . S
C47 C42 1.479 . S
C47 C46 1.405 . S
C47 H73 0.931 . S
U48 O49 2.454 1_545 S
U48 O50 2.458 1_545 S
U48 C51 2.984 1_545 S
U48 C52 2.847 . S
U48 C65 2.882 . S
U48 O66 2.441 . S
U48 O67 2.420 . S
U48 O68 2.455 1_545 S
U48 O69 2.449 . S
O49 U48 2.454 1_565 S
O49 C51 1.353 . S
O50 U48 2.458 1_565 S
O50 C51 1.286 . S
C51 U48 2.984 1_565 S
C51 O49 1.353 . S
C51 O50 1.286 . S
C51 C53 1.363 . S
C52 C42 1.465 1_455 S
C52 U48 2.847 . S
C52 O66 1.249 . S
C52 O67 1.202 . S
C53 C51 1.363 . S
C53 C55 1.408 . S
C53 C58 1.342 . S
C54 C55 1.310 . S
C54 C57 1.461 . S
C54 H74 0.932 . S
C55 C53 1.408 . S
C55 C54 1.310 . S
C55 H75 0.930 . S
C56 C57 1.474 . S
C56 C58 1.285 . S
C56 H76 0.929 . S
C57 C54 1.461 . S
C57 C56 1.474 . S
C58 C53 1.342 . S
C58 C56 1.285 . S
C58 H77 0.930 . S
C59 C62 1.424 . S
C59 C64 1.245 1_545 S
C59 C65 1.428 . S
C60 C63 1.260 . S
C60 C64 1.477 . S
C60 H78 0.932 . S
C61 C62 1.384 . S
C61 C63 1.479 1_545 S
C61 H79 0.929 . S
C62 C59 1.424 . S
C62 C61 1.384 . S
C62 H80 0.928 . S
C63 C60 1.260 . S
C63 C61 1.479 1_565 S
C64 C59 1.245 1_565 S
C64 C60 1.477 . S
C64 H81 0.932 . S
C65 U48 2.882 . S
C65 C59 1.428 . S
C65 O68 1.301 1_545 S
C65 O69 1.282 . S
O66 U48 2.441 . S
O66 C52 1.249 . S
O67 U48 2.420 . S
O67 C52 1.202 . S
O68 U48 2.455 1_565 S
O68 C65 1.301 1_565 S
O69 U48 2.449 . S
O69 C65 1.282 . S
H70 C43 0.931 . S
H71 C45 0.929 . S
H72 C46 0.930 . S
H73 C47 0.931 . S
H74 C54 0.932 . S
H75 C55 0.930 . S
H76 C56 0.929 . S
H77 C58 0.930 . S
H78 C60 0.932 . S
H79 C61 0.929 . S
H80 C62 0.928 . S
H81 C64 0.932 . S
C82 C83 1.264 . S
C82 C87 1.479 . S
C82 C92 1.465 . S
C83 C82 1.264 . S
C83 C85 1.339 . S
C83 H110 0.931 . S
C84 C85 1.395 . S
C84 C86 1.320 . S
C85 C83 1.339 . S
C85 C84 1.395 . S
C85 H111 0.929 . S
C86 C84 1.320 . S
C86 C87 1.405 . S
C86 H112 0.930 . S
C87 C82 1.479 . S
C87 C86 1.405 . S
C87 H113 0.931 . S
U88 O89 2.454 . S
U88 O90 2.458 . S
U88 C91 2.984 . S
U88 C92 2.847 1_445 S
U88 C105 2.882 . S
U88 O106 2.441 1_455 S
U88 O107 2.420 1_445 S
U88 O108 2.455 . S
U88 O109 2.449 . S
O89 U88 2.454 . S
O89 C91 1.353 . S
O90 U88 2.458 . S
O90 C91 1.286 . S
C91 U88 2.984 . S
C91 O89 1.353 . S
C91 O90 1.286 . S
C91 C93 1.363 . S
C92 C82 1.465 . S
C92 U88 2.847 1_665 S
C92 O106 1.249 1_565 S
C92 O107 1.202 . S
C93 C91 1.363 . S
C93 C95 1.408 . S
C93 C98 1.342 . S
C94 C95 1.310 . S
C94 C97 1.461 . S
C94 H114 0.932 . S
C95 C93 1.408 . S
C95 C94 1.310 . S
C95 H115 0.930 . S
C96 C97 1.474 . S
C96 C98 1.285 . S
C96 H116 0.929 . S
C97 C94 1.461 . S
C97 C96 1.474 . S
C98 C93 1.342 . S
C98 C96 1.285 . S
C98 H117 0.930 . S
C99 C102 1.424 1_455 S
C99 C104 1.245 . S
C99 C105 1.428 . S
C100 C103 1.260 . S
C100 C104 1.477 . S
C100 H118 0.932 . S
C101 C102 1.384 . S
C101 C103 1.479 1_655 S
C101 H119 0.929 . S
C102 C99 1.424 1_655 S
C102 C101 1.384 . S
C102 H120 0.928 . S
C103 C100 1.260 . S
C103 C101 1.479 1_455 S
C104 C99 1.245 . S
C104 C100 1.477 . S
C104 H121 0.932 . S
C105 U88 2.882 . S
C105 C99 1.428 . S
C105 O108 1.301 . S
C105 O109 1.282 . S
O106 U88 2.441 1_655 S
O106 C92 1.249 1_545 S
O107 U88 2.420 1_665 S
O107 C92 1.202 . S
O108 U88 2.455 . S
O108 C105 1.301 . S
O109 U88 2.449 . S
O109 C105 1.282 . S
H110 C83 0.931 . S
H111 C85 0.929 . S
H112 C86 0.930 . S
H113 C87 0.931 . S
H114 C94 0.932 . S
H115 C95 0.930 . S
H116 C96 0.929 . S
H117 C98 0.930 . S
H118 C100 0.932 . S
H119 C101 0.929 . S
H120 C102 0.928 . S
H121 C104 0.932 . S
C122 C123 1.264 . S
C122 C127 1.473 1_556 S
C122 C132 1.465 . S
C123 C122 1.264 . S
C123 C125 1.339 . S
C123 H150 0.931 . S
C124 C125 1.395 . S
C124 C126 1.320 1_556 S
C125 C123 1.339 . S
C125 C124 1.395 . S
C125 H151 0.929 . S
C126 C124 1.320 1_554 S
C126 C127 1.407 . S
C126 H152 0.930 . S
C127 C122 1.473 1_554 S
C127 C126 1.407 . S
C127 H153 0.935 . S
U128 O129 2.454 . S
U128 O130 2.458 . S
U128 C131 2.984 . S
U128 C132 2.847 . S
U128 C145 2.882 . S
U128 O146 2.441 . S
U128 O147 2.420 . S
U128 O148 2.455 . S
U128 O149 2.449 . S
O129 U128 2.454 . S
O129 C131 1.353 . S
O130 U128 2.458 . S
O130 C131 1.286 . S
C131 U128 2.984 . S
C131 O129 1.353 . S
C131 O130 1.286 . S
C131 C133 1.363 . S
C132 C122 1.465 . S
C132 U128 2.847 . S
C132 O146 1.249 . S
C132 O147 1.202 . S
C133 C131 1.363 . S
C133 C135 1.408 . S
C133 C138 1.342 . S
C134 C135 1.310 1_554 S
C134 C137 1.461 1_554 S
C134 H154 0.932 . S
C135 C133 1.408 . S
C135 C134 1.310 1_556 S
C135 H155 0.930 1_556 S
C136 C137 1.474 . S
C136 C138 1.285 . S
C136 H156 0.929 . S
C137 C134 1.461 1_556 S
C137 C136 1.474 . S
C138 C133 1.342 . S
C138 C136 1.285 . S
C138 H157 0.930 . S
C139 C142 1.424 . S
C139 C144 1.245 . S
C139 C145 1.428 . S
C140 C143 1.260 . S
C140 C144 1.477 . S
C140 H158 0.932 . S
C141 C142 1.384 . S
C141 C143 1.479 . S
C141 H159 0.929 . S
C142 C139 1.424 . S
C142 C141 1.384 . S
C142 H160 0.928 . S
C143 C140 1.260 . S
C143 C141 1.479 . S
C144 C139 1.245 . S
C144 C140 1.477 . S
C144 H161 0.932 . S
C145 U128 2.882 . S
C145 C139 1.428 . S
C145 O148 1.301 . S
C145 O149 1.282 . S
O146 U128 2.441 . S
O146 C132 1.249 . S
O147 U128 2.420 . S
O147 C132 1.202 . S
O148 U128 2.455 . S
O148 C145 1.301 . S
O149 U128 2.449 . S
O149 C145 1.282 . S
H150 C123 0.931 . S
H151 C125 0.929 . S
H152 C126 0.930 . S
H153 C127 0.935 . S
H154 C134 0.932 . S
H155 C135 0.930 1_554 S
H156 C136 0.929 . S
H157 C138 0.930 . S
H158 C140 0.932 . S
H159 C141 0.929 . S
H160 C142 0.928 . S
H161 C144 0.932 . S
C162 C163 1.264 . S
C162 C167 1.479 . S
C162 C172 1.465 . S
C163 C162 1.264 . S
C163 C165 1.339 . S
C163 H190 0.931 . S
C164 C165 1.395 . S
C164 C166 1.320 . S
C165 C163 1.339 . S
C165 C164 1.395 . S
C165 H191 0.929 . S
C166 C164 1.320 . S
C166 C167 1.405 . S
C166 H192 0.930 1_554 S
C167 C162 1.479 . S
C167 C166 1.405 . S
C167 H193 0.931 . S
U168 O169 2.454 . S
U168 O170 2.458 . S
U168 C171 2.984 . S
U168 C172 2.847 . S
U168 C185 2.882 . S
U168 O186 2.441 . S
U168 O187 2.420 . S
U168 O188 2.455 . S
U168 O189 2.449 . S
O169 U168 2.454 . S
O169 C171 1.353 . S
O170 U168 2.458 . S
O170 C171 1.286 . S
C171 U168 2.984 . S
C171 O169 1.353 . S
C171 O170 1.286 . S
C171 C173 1.363 . S
C172 C162 1.465 . S
C172 U168 2.847 . S
C172 O186 1.249 . S
C172 O187 1.202 . S
C173 C171 1.363 . S
C173 C175 1.408 . S
C173 C178 1.342 . S
C174 C175 1.310 . S
C174 C177 1.461 . S
C174 H194 0.932 1_554 S
C175 C173 1.408 . S
C175 C174 1.310 . S
C175 H195 0.930 . S
C176 C177 1.474 . S
C176 C178 1.285 . S
C176 H196 0.929 . S
C177 C174 1.461 . S
C177 C176 1.474 . S
C178 C173 1.342 . S
C178 C176 1.285 . S
C178 H197 0.930 . S
C179 C182 1.424 . S
C179 C184 1.245 . S
C179 C185 1.428 . S
C180 C183 1.260 . S
C180 C184 1.477 . S
C180 H198 0.932 . S
C181 C182 1.384 . S
C181 C183 1.479 . S
C181 H199 0.929 . S
C182 C179 1.424 . S
C182 C181 1.384 . S
C182 H200 0.928 . S
C183 C180 1.260 . S
C183 C181 1.479 . S
C184 C179 1.245 . S
C184 C180 1.477 . S
C184 H201 0.932 . S
C185 U168 2.882 . S
C185 C179 1.428 . S
C185 O188 1.301 . S
C185 O189 1.282 . S
O186 U168 2.441 . S
O186 C172 1.249 . S
O187 U168 2.420 . S
O187 C172 1.202 . S
O188 U168 2.455 . S
O188 C185 1.301 . S
O189 U168 2.449 . S
O189 C185 1.282 . S
H190 C163 0.931 . S
H191 C165 0.929 . S
H192 C166 0.930 1_556 S
H193 C167 0.931 . S
H194 C174 0.932 1_556 S
H195 C175 0.930 . S
H196 C176 0.929 . S
H197 C178 0.930 . S
H198 C180 0.932 . S
H199 C181 0.929 . S
H200 C182 0.928 . S
H201 C184 0.932 . S
C202 C203 1.391 1_556 S
C202 C204 1.394 . S
C202 H218 0.931 . S
C203 C202 1.391 1_554 S
C203 C207 1.376 . S
C204 C202 1.394 . S
C204 C205 1.369 1_556 S
C204 C208 1.531 . S
C205 C204 1.369 1_554 S
C205 C206 1.410 . S
C205 C213 1.503 . S
C206 C205 1.410 . S
C206 C207 1.392 . S
C206 C209 1.511 . S
C207 C203 1.376 . S
C207 C206 1.392 . S
C207 H219 0.929 . S
C208 C204 1.531 . S
C208 H220 0.960 . S
C208 H221 0.962 . S
C208 H222 0.960 . S
C209 C206 1.511 . S
C209 H223 0.961 . S
C209 H224 0.961 . S
C209 H225 0.961 . S
C210 C211 1.370 . S
C210 C212 1.363 . S
C210 H226 0.931 . S
C211 C210 1.370 . S
C211 C215 1.408 1_554 S
C212 C210 1.363 . S
C212 C213 1.370 . S
C212 C216 1.524 . S
C213 C205 1.503 . S
C213 C212 1.370 . S
C213 C214 1.403 1_554 S
C214 C213 1.403 1_556 S
C214 C215 1.404 . S
C214 C217 1.539 . S
C215 C211 1.408 1_556 S
C215 C214 1.404 . S
C215 H227 0.930 . S
C216 C212 1.524 . S
C216 H228 0.956 . S
C216 H229 0.961 . S
C216 H230 0.961 . S
C217 C214 1.539 . S
C217 H231 0.958 . S
C217 H232 0.961 . S
C217 H233 0.960 . S
H218 C202 0.931 . S
H219 C207 0.929 . S
H220 C208 0.960 . S
H221 C208 0.962 . S
H222 C208 0.960 . S
H223 C209 0.961 . S
H224 C209 0.961 . S
H225 C209 0.961 . S
H226 C210 0.931 . S
H227 C215 0.930 . S
H228 C216 0.956 . S
H229 C216 0.961 . S
H230 C216 0.961 . S
H231 C217 0.958 . S
H232 C217 0.961 . S
H233 C217 0.960 . S
C234 C235 1.391 . S
C234 C236 1.394 . S
C234 H250 0.931 . S
C235 C234 1.391 . S
C235 C239 1.376 1_554 S
C236 C234 1.394 . S
C236 C237 1.369 . S
C236 C240 1.531 . S
C237 C236 1.369 . S
C237 C238 1.410 1_554 S
C237 C245 1.503 . S
C238 C237 1.410 1_556 S
C238 C239 1.392 . S
C238 C241 1.511 . S
C239 C235 1.376 1_556 S
C239 C238 1.392 . S
C239 H251 0.929 . S
C240 C236 1.531 . S
C240 H252 0.960 . S
C240 H253 0.962 . S
C240 H254 0.960 . S
C241 C238 1.511 . S
C241 H255 0.961 . S
C241 H256 0.961 . S
C241 H257 0.961 . S
C242 C243 1.370 . S
C242 C244 1.363 . S
C242 H258 0.931 . S
C243 C242 1.370 . S
C243 C247 1.408 . S
C244 C242 1.363 . S
C244 C245 1.370 . S
C244 C248 1.524 . S
C245 C237 1.503 . S
C245 C244 1.370 . S
C245 C246 1.403 . S
C246 C245 1.403 . S
C246 C247 1.404 . S
C246 C249 1.539 1_554 S
C247 C243 1.408 . S
C247 C246 1.404 . S
C247 H259 0.930 1_554 S
C248 C244 1.524 . S
C248 H260 0.956 . S
C248 H261 0.961 1_554 S
C248 H262 0.961 . S
C249 C246 1.539 1_556 S
C249 H263 0.958 1_556 S
C249 H264 0.961 . S
C249 H265 0.960 . S
H250 C234 0.931 . S
H251 C239 0.929 . S
H252 C240 0.960 . S
H253 C240 0.962 . S
H254 C240 0.960 . S
H255 C241 0.961 . S
H256 C241 0.961 . S
H257 C241 0.961 . S
H258 C242 0.931 . S
H259 C247 0.930 1_556 S
H260 C248 0.956 . S
H261 C248 0.961 1_556 S
H262 C248 0.961 . S
H263 C249 0.958 1_554 S
H264 C249 0.961 . S
H265 C249 0.960 . S
C266 C267 1.391 . S
C266 C268 1.394 . S
C266 H282 0.931 . S
C267 C266 1.391 . S
C267 C271 1.376 . S
C268 C266 1.394 . S
C268 C269 1.369 . S
C268 C272 1.531 . S
C269 C268 1.369 . S
C269 C270 1.410 . S
C269 C277 1.503 . S
C270 C269 1.410 . S
C270 C271 1.392 . S
C270 C273 1.511 1_554 S
C271 C267 1.376 . S
C271 C270 1.392 . S
C271 H283 0.929 1_554 S
C272 C268 1.531 . S
C272 H284 0.960 . S
C272 H285 0.962 . S
C272 H286 0.960 . S
C273 C270 1.511 1_556 S
C273 H287 0.961 . S
C273 H288 0.961 . S
C273 H289 0.961 1_556 S
C274 C275 1.370 . S
C274 C276 1.363 . S
C274 H290 0.931 1_554 S
C275 C274 1.370 . S
C275 C279 1.408 . S
C276 C274 1.363 . S
C276 C277 1.370 . S
C276 C280 1.524 1_554 S
C277 C269 1.503 . S
C277 C276 1.370 . S
C277 C278 1.403 . S
C278 C277 1.403 . S
C278 C279 1.404 . S
C278 C281 1.539 . S
C279 C275 1.408 . S
C279 C278 1.404 . S
C279 H291 0.930 . S
C280 C276 1.524 1_556 S
C280 H292 0.956 . S
C280 H293 0.961 . S
C280 H294 0.961 . S
C281 C278 1.539 . S
C281 H295 0.958 . S
C281 H296 0.961 . S
C281 H297 0.960 . S
H282 C266 0.931 . S
H283 C271 0.929 1_556 S
H284 C272 0.960 . S
H285 C272 0.962 . S
H286 C272 0.960 . S
H287 C273 0.961 . S
H288 C273 0.961 . S
H289 C273 0.961 1_554 S
H290 C274 0.931 1_556 S
H291 C279 0.930 . S
H292 C280 0.956 . S
H293 C280 0.961 . S
H294 C280 0.961 . S
H295 C281 0.958 . S
H296 C281 0.961 . S
H297 C281 0.960 . S
C298 C299 1.391 1_556 S
C298 C300 1.394 . S
C298 H314 0.931 . S
C299 C298 1.391 1_554 S
C299 C303 1.376 . S
C300 C298 1.394 . S
C300 C301 1.369 . S
C300 C304 1.531 . S
C301 C300 1.369 . S
C301 C302 1.410 1_556 S
C301 C309 1.503 . S
C302 C301 1.410 1_554 S
C302 C303 1.392 . S
C302 C305 1.511 . S
C303 C299 1.376 . S
C303 C302 1.392 . S
C303 H315 0.929 . S
C304 C300 1.531 . S
C304 H316 0.960 . S
C304 H317 0.962 . S
C304 H318 0.960 . S
C305 C302 1.511 . S
C305 H319 0.961 . S
C305 H320 0.961 . S
C305 H321 0.961 . S
C306 C307 1.363 1_554 S
C306 C308 1.370 . S
C306 H322 0.933 . S
C307 C306 1.363 1_556 S
C307 C311 1.408 . S
C308 C306 1.370 . S
C308 C309 1.370 1_554 S
C308 C312 1.524 . S
C309 C301 1.503 . S
C309 C308 1.370 1_556 S
C309 C310 1.403 . S
C310 C309 1.403 . S
C310 C311 1.404 . S
C310 C313 1.539 . S
C311 C307 1.408 . S
C311 C310 1.404 . S
C311 H323 0.930 . S
C312 C308 1.524 . S
C312 H324 0.956 1_554 S
C312 H325 0.961 . S
C312 H326 0.961 . S
C313 C310 1.539 . S
C313 H327 0.958 . S
C313 H328 0.961 . S
C313 H329 0.960 . S
H314 C298 0.931 . S
H315 C303 0.929 . S
H316 C304 0.960 . S
H317 C304 0.962 . S
H318 C304 0.960 . S
H319 C305 0.961 . S
H320 C305 0.961 . S
H321 C305 0.961 . S
H322 C306 0.933 . S
H323 C311 0.930 . S
H324 C312 0.956 1_556 S
H325 C312 0.961 . S
H326 C312 0.961 . S
H327 C313 0.958 . S
H328 C313 0.961 . S
H329 C313 0.960 . S
C330 C331 1.391 . S
C330 C332 1.394 . S
C330 H346 0.931 . S
C331 C330 1.391 . S
C331 C335 1.376 . S
C332 C330 1.394 . S
C332 C333 1.369 . S
C332 C336 1.531 . S
C333 C332 1.369 . S
C333 C334 1.410 . S
C333 C341 1.503 . S
C334 C333 1.410 . S
C334 C335 1.392 . S
C334 C337 1.511 . S
C335 C331 1.376 . S
C335 C334 1.392 . S
C335 H347 0.929 . S
C336 C332 1.531 . S
C336 H348 0.960 . S
C336 H349 0.962 . S
C336 H350 0.960 . S
C337 C334 1.511 . S
C337 H351 0.961 . S
C337 H352 0.961 . S
C337 H353 0.961 . S
C338 C339 1.370 . S
C338 C340 1.363 . S
C338 H354 0.931 . S
C339 C338 1.370 . S
C339 C343 1.408 . S
C340 C338 1.363 . S
C340 C341 1.370 . S
C340 C344 1.524 . S
C341 C333 1.503 . S
C341 C340 1.370 . S
C341 C342 1.403 . S
C342 C341 1.403 . S
C342 C343 1.404 . S
C342 C345 1.539 . S
C343 C339 1.408 . S
C343 C342 1.404 . S
C343 H355 0.930 . S
C344 C340 1.524 . S
C344 H356 0.956 . S
C344 H357 0.961 . S
C344 H358 0.961 . S
C345 C342 1.539 . S
C345 H359 0.958 . S
C345 H360 0.961 . S
C345 H361 0.960 . S
H346 C330 0.931 . S
H347 C335 0.929 . S
H348 C336 0.960 . S
H349 C336 0.962 . S
H350 C336 0.960 . S
H351 C337 0.961 . S
H352 C337 0.961 . S
H353 C337 0.961 . S
H354 C338 0.931 . S
H355 C343 0.930 . S
H356 C344 0.956 . S
H357 C344 0.961 . S
H358 C344 0.961 . S
H359 C345 0.958 . S
H360 C345 0.961 . S
H361 C345 0.960 . S
C362 C363 1.391 . S
C362 C364 1.394 . S
C362 H378 0.931 . S
C363 C362 1.391 . S
C363 C367 1.376 . S
C364 C362 1.394 . S
C364 C365 1.369 . S
C364 C368 1.531 . S
C365 C364 1.369 . S
C365 C366 1.410 . S
C365 C373 1.503 . S
C366 C365 1.410 . S
C366 C367 1.392 . S
C366 C369 1.511 . S
C367 C363 1.376 . S
C367 C366 1.392 . S
C367 H379 0.929 . S
C368 C364 1.531 . S
C368 H380 0.960 . S
C368 H381 0.962 . S
C368 H382 0.960 . S
C369 C366 1.511 . S
C369 H383 0.961 . S
C369 H384 0.961 . S
C369 H385 0.961 . S
C370 C371 1.370 . S
C370 C372 1.363 . S
C370 H386 0.931 . S
C371 C370 1.370 . S
C371 C375 1.408 . S
C372 C370 1.363 . S
C372 C373 1.370 . S
C372 C376 1.524 . S
C373 C365 1.503 . S
C373 C372 1.370 . S
C373 C374 1.403 . S
C374 C373 1.403 . S
C374 C375 1.404 . S
C374 C377 1.539 . S
C375 C371 1.408 . S
C375 C374 1.404 . S
C375 H387 0.930 . S
C376 C372 1.524 . S
C376 H388 0.956 . S
C376 H389 0.961 . S
C376 H390 0.961 . S
C377 C374 1.539 . S
C377 H391 0.958 . S
C377 H392 0.961 . S
C377 H393 0.960 . S
H378 C362 0.931 . S
H379 C367 0.929 . S
H380 C368 0.960 . S
H381 C368 0.962 . S
H382 C368 0.960 . S
H383 C369 0.961 . S
H384 C369 0.961 . S
H385 C369 0.961 . S
H386 C370 0.931 . S
H387 C375 0.930 . S
H388 C376 0.956 . S
H389 C376 0.961 . S
H390 C376 0.961 . S
H391 C377 0.958 . S
H392 C377 0.961 . S
H393 C377 0.960 . S
C394 C395 1.391 . S
C394 C396 1.394 . S
C394 H410 0.931 . S
C395 C394 1.391 . S
C395 C399 1.376 . S
C396 C394 1.394 . S
C396 C397 1.369 . S
C396 C400 1.531 . S
C397 C396 1.369 . S
C397 C398 1.410 . S
C397 C405 1.503 . S
C398 C397 1.410 . S
C398 C399 1.392 . S
C398 C401 1.511 . S
C399 C395 1.376 . S
C399 C398 1.392 . S
C399 H411 0.929 . S
C400 C396 1.531 . S
C400 H412 0.960 . S
C400 H413 0.962 . S
C400 H414 0.960 . S
C401 C398 1.511 . S
C401 H415 0.961 . S
C401 H416 0.961 . S
C401 H417 0.961 . S
C402 C403 1.370 . S
C402 C404 1.363 . S
C402 H418 0.931 . S
C403 C402 1.370 . S
C403 C407 1.408 . S
C404 C402 1.363 . S
C404 C405 1.370 . S
C404 C408 1.524 . S
C405 C397 1.503 . S
C405 C404 1.370 . S
C405 C406 1.403 . S
C406 C405 1.403 . S
C406 C407 1.404 . S
C406 C409 1.539 . S
C407 C403 1.408 . S
C407 C406 1.404 . S
C407 H419 0.930 . S
C408 C404 1.524 . S
C408 H420 0.956 . S
C408 H421 0.961 . S
C408 H422 0.961 . S
C409 C406 1.539 . S
C409 H423 0.958 . S
C409 H424 0.961 . S
C409 H425 0.960 . S
H410 C394 0.931 . S
H411 C399 0.929 . S
H412 C400 0.960 . S
H413 C400 0.962 . S
H414 C400 0.960 . S
H415 C401 0.961 . S
H416 C401 0.961 . S
H417 C401 0.961 . S
H418 C402 0.931 . S
H419 C407 0.930 . S
H420 C408 0.956 . S
H421 C408 0.961 . S
H422 C408 0.961 . S
H423 C409 0.958 . S
H424 C409 0.961 . S
H425 C409 0.960 . S
C426 C427 1.391 . S
C426 C428 1.394 . S
C426 H442 0.931 . S
C427 C426 1.391 . S
C427 C431 1.376 . S
C428 C426 1.394 . S
C428 C429 1.369 . S
C428 C432 1.531 . S
C429 C428 1.369 . S
C429 C430 1.410 . S
C429 C437 1.503 . S
C430 C429 1.410 . S
C430 C431 1.392 . S
C430 C433 1.511 . S
C431 C427 1.376 . S
C431 C430 1.392 . S
C431 H443 0.929 . S
C432 C428 1.531 . S
C432 H444 0.960 . S
C432 H445 0.962 . S
C432 H446 0.960 . S
C433 C430 1.511 . S
C433 H447 0.961 . S
C433 H448 0.961 . S
C433 H449 0.961 . S
C434 C435 1.370 . S
C434 C436 1.363 . S
C434 H450 0.931 . S
C435 C434 1.370 . S
C435 C439 1.408 . S
C436 C434 1.363 . S
C436 C437 1.370 . S
C436 C440 1.524 . S
C437 C429 1.503 . S
C437 C436 1.370 . S
C437 C438 1.403 . S
C438 C437 1.403 . S
C438 C439 1.404 . S
C438 C441 1.539 . S
C439 C435 1.408 . S
C439 C438 1.404 . S
C439 H451 0.930 . S
C440 C436 1.524 . S
C440 H452 0.956 . S
C440 H453 0.961 . S
C440 H454 0.961 . S
C441 C438 1.539 . S
C441 H455 0.958 . S
C441 H456 0.961 . S
C441 H457 0.960 . S
H442 C426 0.931 . S
H443 C431 0.929 . S
H444 C432 0.960 . S
H445 C432 0.962 . S
H446 C432 0.960 . S
H447 C433 0.961 . S
H448 C433 0.961 . S
H449 C433 0.961 . S
H450 C434 0.931 . S
H451 C439 0.930 . S
H452 C440 0.956 . S
H453 C440 0.961 . S
H454 C440 0.961 . S
H455 C441 0.958 . S
H456 C441 0.961 . S
H457 C441 0.960 . S
C458 C459 1.391 . S
C458 C460 1.394 . S
C458 H474 0.931 . S
C459 C458 1.391 . S
C459 C463 1.376 1_545 S
C460 C458 1.394 . S
C460 C461 1.369 . S
C460 C464 1.531 . S
C461 C460 1.369 . S
C461 C462 1.410 1_545 S
C461 C469 1.503 . S
C462 C461 1.410 1_565 S
C462 C463 1.392 . S
C462 C465 1.511 1_455 S
C463 C459 1.376 1_565 S
C463 C462 1.392 . S
C463 H475 0.929 1_455 S
C464 C460 1.531 . S
C464 H476 0.960 . S
C464 H477 0.962 . S
C464 H478 0.960 . S
C465 C462 1.511 1_655 S
C465 H479 0.961 . S
C465 H480 0.961 . S
C465 H481 0.961 . S
C466 C467 1.370 . S
C466 C468 1.363 . S
C466 H482 0.931 . S
C467 C466 1.370 . S
C467 C471 1.408 1_565 S
C468 C466 1.363 . S
C468 C469 1.370 1_565 S
C468 C472 1.524 . S
C469 C461 1.503 . S
C469 C468 1.370 1_545 S
C469 C470 1.403 . S
C470 C469 1.403 . S
C470 C471 1.404 . S
C470 C473 1.539 1_455 S
C471 C467 1.408 1_545 S
C471 C470 1.404 . S
C471 H483 0.930 . S
C472 C468 1.524 . S
C472 H484 0.956 . S
C472 H485 0.961 . S
C472 H486 0.961 . S
C473 C470 1.539 1_655 S
C473 H487 0.958 1_655 S
C473 H488 0.961 . S
C473 H489 0.960 . S
H474 C458 0.931 . S
H475 C463 0.929 1_655 S
H476 C464 0.960 . S
H477 C464 0.962 . S
H478 C464 0.960 . S
H479 C465 0.961 . S
H480 C465 0.961 . S
H481 C465 0.961 . S
H482 C466 0.931 . S
H483 C471 0.930 . S
H484 C472 0.956 . S
H485 C472 0.961 . S
H486 C472 0.961 . S
H487 C473 0.958 1_455 S
H488 C473 0.961 . S
H489 C473 0.960 . S
C490 C491 1.391 . S
C490 C492 1.394 . S
C490 H506 0.931 . S
C491 C490 1.391 . S
C491 C495 1.376 . S
C492 C490 1.394 . S
C492 C493 1.369 . S
C492 C496 1.531 . S
C493 C492 1.369 . S
C493 C494 1.410 . S
C493 C501 1.503 . S
C494 C493 1.410 . S
C494 C495 1.392 . S
C494 C497 1.511 1_445 S
C495 C491 1.376 . S
C495 C494 1.392 . S
C495 H507 0.929 1_545 S
C496 C492 1.531 . S
C496 H508 0.960 . S
C496 H509 0.962 . S
C496 H510 0.960 . S
C497 C494 1.511 1_665 S
C497 H511 0.961 . S
C497 H512 0.961 . S
C497 H513 0.961 1_655 S
C498 C499 1.370 1_655 S
C498 C500 1.363 . S
C498 H514 0.931 . S
C499 C498 1.370 1_455 S
C499 C503 1.408 . S
C500 C498 1.363 . S
C500 C501 1.370 1_655 S
C500 C504 1.524 . S
C501 C493 1.503 . S
C501 C500 1.370 1_455 S
C501 C502 1.403 . S
C502 C501 1.403 . S
C502 C503 1.404 . S
C502 C505 1.539 . S
C503 C499 1.408 . S
C503 C502 1.404 . S
C503 H515 0.930 . S
C504 C500 1.524 . S
C504 H516 0.956 . S
C504 H517 0.961 . S
C504 H518 0.961 . S
C505 C502 1.539 . S
C505 H519 0.958 . S
C505 H520 0.961 1_545 S
C505 H521 0.960 . S
H506 C490 0.931 . S
H507 C495 0.929 1_565 S
H508 C496 0.960 . S
H509 C496 0.962 . S
H510 C496 0.960 . S
H511 C497 0.961 . S
H512 C497 0.961 . S
H513 C497 0.961 1_455 S
H514 C498 0.931 . S
H515 C503 0.930 . S
H516 C504 0.956 . S
H517 C504 0.961 . S
H518 C504 0.961 . S
H519 C505 0.958 . S
H520 C505 0.961 1_565 S
H521 C505 0.960 . S
C522 C523 1.391 . S
C522 C524 1.394 . S
C522 H538 0.931 . S
C523 C522 1.391 . S
C523 C527 1.376 . S
C524 C522 1.394 . S
C524 C525 1.369 . S
C524 C528 1.531 . S
C525 C524 1.369 . S
C525 C526 1.410 . S
C525 C533 1.503 . S
C526 C525 1.410 . S
C526 C527 1.392 . S
C526 C529 1.511 . S
C527 C523 1.376 . S
C527 C526 1.392 . S
C527 H539 0.929 . S
C528 C524 1.531 . S
C528 H540 0.960 . S
C528 H541 0.962 . S
C528 H542 0.960 . S
C529 C526 1.511 . S
C529 H543 0.961 . S
C529 H544 0.961 . S
C529 H545 0.961 . S
C530 C531 1.370 . S
C530 C532 1.363 . S
C530 H546 0.931 . S
C531 C530 1.370 . S
C531 C535 1.408 . S
C532 C530 1.363 . S
C532 C533 1.370 . S
C532 C536 1.524 . S
C533 C525 1.503 . S
C533 C532 1.370 . S
C533 C534 1.403 . S
C534 C533 1.403 . S
C534 C535 1.404 . S
C534 C537 1.539 . S
C535 C531 1.408 . S
C535 C534 1.404 . S
C535 H547 0.930 . S
C536 C532 1.524 . S
C536 H548 0.956 . S
C536 H549 0.961 . S
C536 H550 0.961 . S
C537 C534 1.539 . S
C537 H551 0.958 . S
C537 H552 0.961 . S
C537 H553 0.960 . S
H538 C522 0.931 . S
H539 C527 0.929 . S
H540 C528 0.960 . S
H541 C528 0.962 . S
H542 C528 0.960 . S
H543 C529 0.961 . S
H544 C529 0.961 . S
H545 C529 0.961 . S
H546 C530 0.931 . S
H547 C535 0.930 . S
H548 C536 0.956 . S
H549 C536 0.961 . S
H550 C536 0.961 . S
H551 C537 0.958 . S
H552 C537 0.961 . S
H553 C537 0.960 . S
C554 C555 1.391 . S
C554 C556 1.394 . S
C554 H570 0.931 . S
C555 C554 1.391 . S
C555 C559 1.376 . S
C556 C554 1.394 . S
C556 C557 1.369 . S
C556 C560 1.531 . S
C557 C556 1.369 . S
C557 C558 1.410 . S
C557 C565 1.503 . S
C558 C557 1.410 . S
C558 C559 1.392 . S
C558 C561 1.511 . S
C559 C555 1.376 . S
C559 C558 1.392 . S
C559 H571 0.929 . S
C560 C556 1.531 . S
C560 H572 0.960 . S
C560 H573 0.962 . S
C560 H574 0.960 . S
C561 C558 1.511 . S
C561 H575 0.961 . S
C561 H576 0.961 . S
C561 H577 0.961 . S
C562 C563 1.370 . S
C562 C564 1.363 . S
C562 H578 0.931 . S
C563 C562 1.370 . S
C563 C567 1.408 . S
C564 C562 1.363 . S
C564 C565 1.370 . S
C564 C568 1.524 . S
C565 C557 1.503 . S
C565 C564 1.370 . S
C565 C566 1.403 . S
C566 C565 1.403 . S
C566 C567 1.404 . S
C566 C569 1.539 . S
C567 C563 1.408 . S
C567 C566 1.404 . S
C567 H579 0.930 . S
C568 C564 1.524 . S
C568 H580 0.956 . S
C568 H581 0.961 . S
C568 H582 0.961 . S
C569 C566 1.539 . S
C569 H583 0.958 . S
C569 H584 0.961 . S
C569 H585 0.960 . S
H570 C554 0.931 . S
H571 C559 0.929 . S
H572 C560 0.960 . S
H573 C560 0.962 . S
H574 C560 0.960 . S
H575 C561 0.961 . S
H576 C561 0.961 . S
H577 C561 0.961 . S
H578 C562 0.931 . S
H579 C567 0.930 . S
H580 C568 0.956 . S
H581 C568 0.961 . S
H582 C568 0.961 . S
H583 C569 0.958 . S
H584 C569 0.961 . S
H585 C569 0.960 . S
C211 C164 1.529 . S
C203 C15 1.461 . S
C235 C13 1.595 . S
C243 C124 1.572 1_554 S
C267 C18 1.315 . S
C275 C177 1.519 . S
C299 C17 1.333 . S
C307 C137 1.412 . S
C331 C36 1.450 . S
C339 C84 1.527 . S
C363 C34 1.572 . S
C371 C44 1.556 . S
C403 C97 1.532 . S
C395 C39 1.255 . S
C435 C57 1.401 . S
C427 C38 1.351 . S
C459 C14 1.515 . S
C467 C63 1.545 . S
C491 C16 1.411 . S
C499 C103 1.396 . S
C531 C143 1.543 . S
C523 C35 1.508 . S
C555 C37 1.378 . S
C563 C183 1.399 . S
