# Generated by pormake.
# Topology gar, (4,6)-cn, num edge types: 1
# Building blocks:
#     Node 0, Type 0, BuildingBlock: TATPOV_clean_sbu_0, # of connection points: 4
#     Node 1, Type 0, BuildingBlock: TATPOV_clean_sbu_0, # of connection points: 4
#     Node 2, Type 0, BuildingBlock: TATPOV_clean_sbu_0, # of connection points: 4
#     Node 3, Type 0, BuildingBlock: TATPOV_clean_sbu_0, # of connection points: 4
#     Node 4, Type 0, BuildingBlock: TATPOV_clean_sbu_0, # of connection points: 4
#     Node 5, Type 0, BuildingBlock: TATPOV_clean_sbu_0, # of connection points: 4
#     Node 6, Type 0, BuildingBlock: TATPOV_clean_sbu_0, # of connection points: 4
#     Node 7, Type 0, BuildingBlock: TATPOV_clean_sbu_0, # of connection points: 4
#     Node 8, Type 0, BuildingBlock: TATPOV_clean_sbu_0, # of connection points: 4
#     Node 9, Type 0, BuildingBlock: TATPOV_clean_sbu_0, # of connection points: 4
#     Node 10, Type 0, BuildingBlock: TATPOV_clean_sbu_0, # of connection points: 4
#     Node 11, Type 0, BuildingBlock: TATPOV_clean_sbu_0, # of connection points: 4
#     Node 12, Type 0, BuildingBlock: TATPOV_clean_sbu_0, # of connection points: 4
#     Node 13, Type 0, BuildingBlock: TATPOV_clean_sbu_0, # of connection points: 4
#     Node 14, Type 0, BuildingBlock: TATPOV_clean_sbu_0, # of connection points: 4
#     Node 15, Type 0, BuildingBlock: TATPOV_clean_sbu_0, # of connection points: 4
#     Node 16, Type 0, BuildingBlock: TATPOV_clean_sbu_0, # of connection points: 4
#     Node 17, Type 0, BuildingBlock: TATPOV_clean_sbu_0, # of connection points: 4
#     Node 18, Type 0, BuildingBlock: TATPOV_clean_sbu_0, # of connection points: 4
#     Node 19, Type 0, BuildingBlock: TATPOV_clean_sbu_0, # of connection points: 4
#     Node 20, Type 0, BuildingBlock: TATPOV_clean_sbu_0, # of connection points: 4
#     Node 21, Type 0, BuildingBlock: TATPOV_clean_sbu_0, # of connection points: 4
#     Node 22, Type 0, BuildingBlock: TATPOV_clean_sbu_0, # of connection points: 4
#     Node 23, Type 0, BuildingBlock: TATPOV_clean_sbu_0, # of connection points: 4
#     Node 24, Type 1, BuildingBlock: KUMBUR_clean_sbu_0, # of connection points: 6
#     Node 25, Type 1, BuildingBlock: KUMBUR_clean_sbu_0, # of connection points: 6
#     Node 26, Type 1, BuildingBlock: KUMBUR_clean_sbu_0, # of connection points: 6
#     Node 27, Type 1, BuildingBlock: KUMBUR_clean_sbu_0, # of connection points: 6
#     Node 28, Type 1, BuildingBlock: KUMBUR_clean_sbu_0, # of connection points: 6
#     Node 29, Type 1, BuildingBlock: KUMBUR_clean_sbu_0, # of connection points: 6
#     Node 30, Type 1, BuildingBlock: KUMBUR_clean_sbu_0, # of connection points: 6
#     Node 31, Type 1, BuildingBlock: KUMBUR_clean_sbu_0, # of connection points: 6
#     Node 32, Type 1, BuildingBlock: KUMBUR_clean_sbu_0, # of connection points: 6
#     Node 33, Type 1, BuildingBlock: KUMBUR_clean_sbu_0, # of connection points: 6
#     Node 34, Type 1, BuildingBlock: KUMBUR_clean_sbu_0, # of connection points: 6
#     Node 35, Type 1, BuildingBlock: KUMBUR_clean_sbu_0, # of connection points: 6
#     Node 36, Type 1, BuildingBlock: KUMBUR_clean_sbu_0, # of connection points: 6
#     Node 37, Type 1, BuildingBlock: KUMBUR_clean_sbu_0, # of connection points: 6
#     Node 38, Type 1, BuildingBlock: KUMBUR_clean_sbu_0, # of connection points: 6
#     Node 39, Type 1, BuildingBlock: KUMBUR_clean_sbu_0, # of connection points: 6
#     Edge 40, Type (0, 1), BuildingBlock: MIFKUJ_clean_linker_0, # of connection points: 2
#     Edge 41, Type (0, 1), BuildingBlock: MIFKUJ_clean_linker_0, # of connection points: 2
#     Edge 42, Type (0, 1), BuildingBlock: MIFKUJ_clean_linker_0, # of connection points: 2
#     Edge 43, Type (0, 1), BuildingBlock: MIFKUJ_clean_linker_0, # of connection points: 2
#     Edge 44, Type (0, 1), BuildingBlock: MIFKUJ_clean_linker_0, # of connection points: 2
#     Edge 45, Type (0, 1), BuildingBlock: MIFKUJ_clean_linker_0, # of connection points: 2
#     Edge 46, Type (0, 1), BuildingBlock: MIFKUJ_clean_linker_0, # of connection points: 2
#     Edge 47, Type (0, 1), BuildingBlock: MIFKUJ_clean_linker_0, # of connection points: 2
#     Edge 48, Type (0, 1), BuildingBlock: MIFKUJ_clean_linker_0, # of connection points: 2
#     Edge 49, Type (0, 1), BuildingBlock: MIFKUJ_clean_linker_0, # of connection points: 2
#     Edge 50, Type (0, 1), BuildingBlock: MIFKUJ_clean_linker_0, # of connection points: 2
#     Edge 51, Type (0, 1), BuildingBlock: MIFKUJ_clean_linker_0, # of connection points: 2
#     Edge 52, Type (0, 1), BuildingBlock: MIFKUJ_clean_linker_0, # of connection points: 2
#     Edge 53, Type (0, 1), BuildingBlock: MIFKUJ_clean_linker_0, # of connection points: 2
#     Edge 54, Type (0, 1), BuildingBlock: MIFKUJ_clean_linker_0, # of connection points: 2
#     Edge 55, Type (0, 1), BuildingBlock: MIFKUJ_clean_linker_0, # of connection points: 2
#     Edge 56, Type (0, 1), BuildingBlock: MIFKUJ_clean_linker_0, # of connection points: 2
#     Edge 57, Type (0, 1), BuildingBlock: MIFKUJ_clean_linker_0, # of connection points: 2
#     Edge 58, Type (0, 1), BuildingBlock: MIFKUJ_clean_linker_0, # of connection points: 2
#     Edge 59, Type (0, 1), BuildingBlock: MIFKUJ_clean_linker_0, # of connection points: 2
#     Edge 60, Type (0, 1), BuildingBlock: MIFKUJ_clean_linker_0, # of connection points: 2
#     Edge 61, Type (0, 1), BuildingBlock: MIFKUJ_clean_linker_0, # of connection points: 2
#     Edge 62, Type (0, 1), BuildingBlock: MIFKUJ_clean_linker_0, # of connection points: 2
#     Edge 63, Type (0, 1), BuildingBlock: MIFKUJ_clean_linker_0, # of connection points: 2
#     Edge 64, Type (0, 1), BuildingBlock: MIFKUJ_clean_linker_0, # of connection points: 2
#     Edge 65, Type (0, 1), BuildingBlock: MIFKUJ_clean_linker_0, # of connection points: 2
#     Edge 66, Type (0, 1), BuildingBlock: MIFKUJ_clean_linker_0, # of connection points: 2
#     Edge 67, Type (0, 1), BuildingBlock: MIFKUJ_clean_linker_0, # of connection points: 2
#     Edge 68, Type (0, 1), BuildingBlock: MIFKUJ_clean_linker_0, # of connection points: 2
#     Edge 69, Type (0, 1), BuildingBlock: MIFKUJ_clean_linker_0, # of connection points: 2
#     Edge 70, Type (0, 1), BuildingBlock: MIFKUJ_clean_linker_0, # of connection points: 2
#     Edge 71, Type (0, 1), BuildingBlock: MIFKUJ_clean_linker_0, # of connection points: 2
#     Edge 72, Type (0, 1), BuildingBlock: MIFKUJ_clean_linker_0, # of connection points: 2
#     Edge 73, Type (0, 1), BuildingBlock: MIFKUJ_clean_linker_0, # of connection points: 2
#     Edge 74, Type (0, 1), BuildingBlock: MIFKUJ_clean_linker_0, # of connection points: 2
#     Edge 75, Type (0, 1), BuildingBlock: MIFKUJ_clean_linker_0, # of connection points: 2
#     Edge 76, Type (0, 1), BuildingBlock: MIFKUJ_clean_linker_0, # of connection points: 2
#     Edge 77, Type (0, 1), BuildingBlock: MIFKUJ_clean_linker_0, # of connection points: 2
#     Edge 78, Type (0, 1), BuildingBlock: MIFKUJ_clean_linker_0, # of connection points: 2
#     Edge 79, Type (0, 1), BuildingBlock: MIFKUJ_clean_linker_0, # of connection points: 2
#     Edge 80, Type (0, 1), BuildingBlock: MIFKUJ_clean_linker_0, # of connection points: 2
#     Edge 81, Type (0, 1), BuildingBlock: MIFKUJ_clean_linker_0, # of connection points: 2
#     Edge 82, Type (0, 1), BuildingBlock: MIFKUJ_clean_linker_0, # of connection points: 2
#     Edge 83, Type (0, 1), BuildingBlock: MIFKUJ_clean_linker_0, # of connection points: 2
#     Edge 84, Type (0, 1), BuildingBlock: MIFKUJ_clean_linker_0, # of connection points: 2
#     Edge 85, Type (0, 1), BuildingBlock: MIFKUJ_clean_linker_0, # of connection points: 2
#     Edge 86, Type (0, 1), BuildingBlock: MIFKUJ_clean_linker_0, # of connection points: 2
#     Edge 87, Type (0, 1), BuildingBlock: MIFKUJ_clean_linker_0, # of connection points: 2
#     Edge 88, Type (0, 1), BuildingBlock: MIFKUJ_clean_linker_0, # of connection points: 2
#     Edge 89, Type (0, 1), BuildingBlock: MIFKUJ_clean_linker_0, # of connection points: 2
#     Edge 90, Type (0, 1), BuildingBlock: MIFKUJ_clean_linker_0, # of connection points: 2
#     Edge 91, Type (0, 1), BuildingBlock: MIFKUJ_clean_linker_0, # of connection points: 2
#     Edge 92, Type (0, 1), BuildingBlock: MIFKUJ_clean_linker_0, # of connection points: 2
#     Edge 93, Type (0, 1), BuildingBlock: MIFKUJ_clean_linker_0, # of connection points: 2
#     Edge 94, Type (0, 1), BuildingBlock: MIFKUJ_clean_linker_0, # of connection points: 2
#     Edge 95, Type (0, 1), BuildingBlock: MIFKUJ_clean_linker_0, # of connection points: 2
#     Edge 96, Type (0, 1), BuildingBlock: MIFKUJ_clean_linker_0, # of connection points: 2
#     Edge 97, Type (0, 1), BuildingBlock: MIFKUJ_clean_linker_0, # of connection points: 2
#     Edge 98, Type (0, 1), BuildingBlock: MIFKUJ_clean_linker_0, # of connection points: 2
#     Edge 99, Type (0, 1), BuildingBlock: MIFKUJ_clean_linker_0, # of connection points: 2
#     Edge 100, Type (0, 1), BuildingBlock: MIFKUJ_clean_linker_0, # of connection points: 2
#     Edge 101, Type (0, 1), BuildingBlock: MIFKUJ_clean_linker_0, # of connection points: 2
#     Edge 102, Type (0, 1), BuildingBlock: MIFKUJ_clean_linker_0, # of connection points: 2
#     Edge 103, Type (0, 1), BuildingBlock: MIFKUJ_clean_linker_0, # of connection points: 2
#     Edge 104, Type (0, 1), BuildingBlock: MIFKUJ_clean_linker_0, # of connection points: 2
#     Edge 105, Type (0, 1), BuildingBlock: MIFKUJ_clean_linker_0, # of connection points: 2
#     Edge 106, Type (0, 1), BuildingBlock: MIFKUJ_clean_linker_0, # of connection points: 2
#     Edge 107, Type (0, 1), BuildingBlock: MIFKUJ_clean_linker_0, # of connection points: 2
#     Edge 108, Type (0, 1), BuildingBlock: MIFKUJ_clean_linker_0, # of connection points: 2
#     Edge 109, Type (0, 1), BuildingBlock: MIFKUJ_clean_linker_0, # of connection points: 2
#     Edge 110, Type (0, 1), BuildingBlock: MIFKUJ_clean_linker_0, # of connection points: 2
#     Edge 111, Type (0, 1), BuildingBlock: MIFKUJ_clean_linker_0, # of connection points: 2
#     Edge 112, Type (0, 1), BuildingBlock: MIFKUJ_clean_linker_0, # of connection points: 2
#     Edge 113, Type (0, 1), BuildingBlock: MIFKUJ_clean_linker_0, # of connection points: 2
#     Edge 114, Type (0, 1), BuildingBlock: MIFKUJ_clean_linker_0, # of connection points: 2
#     Edge 115, Type (0, 1), BuildingBlock: MIFKUJ_clean_linker_0, # of connection points: 2
#     Edge 116, Type (0, 1), BuildingBlock: MIFKUJ_clean_linker_0, # of connection points: 2
#     Edge 117, Type (0, 1), BuildingBlock: MIFKUJ_clean_linker_0, # of connection points: 2
#     Edge 118, Type (0, 1), BuildingBlock: MIFKUJ_clean_linker_0, # of connection points: 2
#     Edge 119, Type (0, 1), BuildingBlock: MIFKUJ_clean_linker_0, # of connection points: 2
#     Edge 120, Type (0, 1), BuildingBlock: MIFKUJ_clean_linker_0, # of connection points: 2
#     Edge 121, Type (0, 1), BuildingBlock: MIFKUJ_clean_linker_0, # of connection points: 2
#     Edge 122, Type (0, 1), BuildingBlock: MIFKUJ_clean_linker_0, # of connection points: 2
#     Edge 123, Type (0, 1), BuildingBlock: MIFKUJ_clean_linker_0, # of connection points: 2
#     Edge 124, Type (0, 1), BuildingBlock: MIFKUJ_clean_linker_0, # of connection points: 2
#     Edge 125, Type (0, 1), BuildingBlock: MIFKUJ_clean_linker_0, # of connection points: 2
#     Edge 126, Type (0, 1), BuildingBlock: MIFKUJ_clean_linker_0, # of connection points: 2
#     Edge 127, Type (0, 1), BuildingBlock: MIFKUJ_clean_linker_0, # of connection points: 2
#     Edge 128, Type (0, 1), BuildingBlock: MIFKUJ_clean_linker_0, # of connection points: 2
#     Edge 129, Type (0, 1), BuildingBlock: MIFKUJ_clean_linker_0, # of connection points: 2
#     Edge 130, Type (0, 1), BuildingBlock: MIFKUJ_clean_linker_0, # of connection points: 2
#     Edge 131, Type (0, 1), BuildingBlock: MIFKUJ_clean_linker_0, # of connection points: 2
#     Edge 132, Type (0, 1), BuildingBlock: MIFKUJ_clean_linker_0, # of connection points: 2
#     Edge 133, Type (0, 1), BuildingBlock: MIFKUJ_clean_linker_0, # of connection points: 2
#     Edge 134, Type (0, 1), BuildingBlock: MIFKUJ_clean_linker_0, # of connection points: 2
#     Edge 135, Type (0, 1), BuildingBlock: MIFKUJ_clean_linker_0, # of connection points: 2
# Relax obj value: 0.125
# Max RMSD: 0.314
# Mean RMSD: 0.168
data_MOF--net-gar--node1-TATPOV_clean_sbu_0--node2-KUMBUR_clean_sbu_0--edge1-MIFKUJ_clean_linker_0
_symmetry_space_group_name_H-M    P1
_symmetry_Int_Tables_number       1
_symmetry_cell_setting            triclinic
loop_
_symmetry_equiv_pos_as_xyz
'x, y, z'
_cell_length_a     76.573983
_cell_length_b     72.324878
_cell_length_c     72.598694
_cell_angle_alpha  100.41163
_cell_angle_beta   93.488034
_cell_angle_gamma 104.17304
loop_
_atom_site_label
_atom_site_type_symbol
_atom_site_fract_x
_atom_site_fract_y
_atom_site_fract_z
_atom_type_partial_charge
Zn0 Zn 0.07532 0.3295 0.44158 0.0
Zn1 Zn 0.09847 0.32605 0.41582 0.0
O2 O 0.10732 0.35508 0.42888 0.0
O3 O 0.08832 0.35766 0.45029 0.0
O4 O 0.11671 0.32298 0.39732 0.0
O5 O 0.08268 0.30987 0.45427 0.0
O6 O 0.10027 0.30533 0.43187 0.0
C7 C 0.10176 0.36523 0.44237 0.0
C8 C 0.05812 0.31926 0.40326 0.0
O9 O 0.0743 0.32056 0.39925 0.0
O10 O 0.05488 0.3217 0.42033 0.0
C11 C 0.11679 0.3295 0.38218 0.0
O12 O 0.10451 0.33851 0.37823 0.0
C13 C 0.09365 0.3011 0.44675 0.0
Zn14 Zn 0.99011 0.73137 0.66843 0.0
Zn15 Zn 0.00442 0.76754 0.6627 0.0
O16 O 0.98263 0.7704 0.67734 0.0
O17 O 0.97135 0.74098 0.68261 0.0
O18 O 0.01397 0.79364 0.65582 0.0
O19 O 0.01478 0.7328 0.68142 0.0
O20 O 0.02576 0.76304 0.67816 0.0
C21 C 0.97087 0.75855 0.68422 0.0
C22 C 0.99001 0.73242 0.62955 0.0
O23 O 0.99835 0.75012 0.63622 0.0
O24 O 0.9843 0.72107 0.64051 0.0
C25 C 0.00261 0.80012 0.64711 0.0
O26 O 0.98544 0.7904 0.64465 0.0
C27 C 0.02776 0.74807 0.6841 0.0
Zn28 Zn 0.55717 0.80939 0.91719 0.0
Zn29 Zn 0.58386 0.80713 0.89676 0.0
O30 O 0.58875 0.83665 0.90637 0.0
O31 O 0.56348 0.83838 0.9187 0.0
O32 O 0.60427 0.80547 0.88089 0.0
O33 O 0.5683 0.79807 0.93676 0.0
O34 O 0.58767 0.79135 0.91704 0.0
C35 C 0.57852 0.84668 0.91382 0.0
C36 C 0.54407 0.78968 0.87993 0.0
O37 O 0.56081 0.79558 0.87792 0.0
O38 O 0.53885 0.79212 0.89619 0.0
C39 C 0.6034 0.80775 0.86392 0.0
O40 O 0.58862 0.81079 0.8563 0.0
C41 C 0.58097 0.7902 0.93258 0.0
Zn42 Zn 0.49645 0.2445 0.19342 0.0
Zn43 Zn 0.50399 0.27332 0.17509 0.0
O44 O 0.48182 0.27768 0.18888 0.0
O45 O 0.47753 0.25494 0.20583 0.0
O46 O 0.50914 0.29438 0.15968 0.0
O47 O 0.5219 0.25257 0.20569 0.0
O48 O 0.52811 0.27778 0.19191 0.0
C49 C 0.47327 0.26931 0.20095 0.0
C50 C 0.49304 0.23023 0.15425 0.0
O51 O 0.49889 0.24836 0.1545 0.0
O52 O 0.48986 0.22443 0.16943 0.0
C53 C 0.49853 0.29261 0.14492 0.0
O54 O 0.48419 0.27766 0.14069 0.0
C55 C 0.53302 0.26766 0.20293 0.0
Zn56 Zn 0.10386 0.81342 0.09371 0.0
Zn57 Zn 0.08077 0.81276 0.11936 0.0
O58 O 0.07819 0.83577 0.10535 0.0
O59 O 0.09637 0.83477 0.08312 0.0
O60 O 0.05975 0.81092 0.13611 0.0
O61 O 0.09307 0.78488 0.08165 0.0
O62 O 0.07467 0.78401 0.10375 0.0
C63 C 0.08496 0.84238 0.09136 0.0
C64 C 0.12148 0.82052 0.13232 0.0
O65 O 0.10526 0.81815 0.13681 0.0
O66 O 0.12428 0.81995 0.1152 0.0
C67 C 0.06034 0.81889 0.15339 0.0
O68 O 0.07593 0.82964 0.16244 0.0
C69 C 0.08065 0.77525 0.08955 0.0
Zn70 Zn 0.49439 0.76037 0.44114 0.0
Zn71 Zn 0.51941 0.76305 0.41782 0.0
O72 O 0.52594 0.79126 0.43449 0.0
O73 O 0.5045 0.789 0.45342 0.0
O74 O 0.53972 0.76416 0.40026 0.0
O75 O 0.50164 0.73897 0.45189 0.0
O76 O 0.52149 0.73945 0.43126 0.0
C77 C 0.51817 0.79925 0.44762 0.0
C78 C 0.47871 0.75591 0.40306 0.0
O79 O 0.49541 0.75951 0.40006 0.0
O80 O 0.47448 0.75404 0.41936 0.0
C81 C 0.55631 0.77098 0.40705 0.0
O82 O 0.56009 0.77734 0.42534 0.0
C83 C 0.51384 0.73208 0.44448 0.0
Zn84 Zn 0.60214 0.30984 0.59053 0.0
Zn85 Zn 0.58063 0.31031 0.61752 0.0
O86 O 0.57761 0.33317 0.60344 0.0
O87 O 0.59493 0.33167 0.58047 0.0
O88 O 0.56145 0.30967 0.63647 0.0
O89 O 0.59027 0.28145 0.57891 0.0
O90 O 0.57349 0.28121 0.60243 0.0
C91 C 0.58395 0.33959 0.58918 0.0
C92 C 0.62168 0.31675 0.62813 0.0
O93 O 0.6059 0.31554 0.63357 0.0
O94 O 0.62354 0.3154 0.61072 0.0
C95 C 0.5461 0.31261 0.63203 0.0
O96 O 0.54291 0.31653 0.61537 0.0
C97 C 0.57851 0.27212 0.58773 0.0
Zn98 Zn 0.99626 0.26389 0.94362 0.0
Zn99 Zn 0.01993 0.26555 0.91873 0.0
O100 O 0.02666 0.29396 0.935 0.0
O101 O 0.00859 0.29172 0.95736 0.0
O102 O 0.04032 0.2659 0.9013 0.0
O103 O 1.00141 0.24011 0.95192 0.0
O104 O 0.02243 0.24241 0.93254 0.0
C105 C 0.0209 0.30194 0.94977 0.0
C106 C 0.97937 0.26056 0.90566 0.0
O107 O 0.99548 0.26144 0.90125 0.0
O108 O 0.97631 0.2609 0.92267 0.0
C109 C 0.04807 0.28057 0.8946 0.0
O110 O 0.04231 0.2964 0.8981 0.0
C111 C 0.01412 0.23395 0.94479 0.0
Zn112 Zn 0.43769 0.03994 0.28834 0.0
Zn113 Zn 0.41742 0.06416 0.29426 0.0
O114 O 0.43422 0.07144 0.31966 0.0
O115 O 0.44964 0.04936 0.31452 0.0
O116 O 0.40263 0.08394 0.29596 0.0
O117 O 0.44952 0.05161 0.26804 0.0
O118 O 0.4305 0.07008 0.27095 0.0
C119 C 0.44623 0.06356 0.32529 0.0
C120 C 0.40029 0.01992 0.28486 0.0
O121 O 0.39855 0.03716 0.29001 0.0
O122 O 0.4158 0.01731 0.28239 0.0
C123 C 0.38686 0.08221 0.30117 0.0
O124 O 0.37901 0.06657 0.30735 0.0
C125 C 0.44313 0.06455 0.26275 0.0
Zn126 Zn 0.27753 0.2099 0.50504 0.0
Zn127 Zn 0.29804 0.18597 0.50486 0.0
O128 O 0.30264 0.19761 0.48039 0.0
O129 O 0.28613 0.21869 0.48204 0.0
O130 O 0.31693 0.17042 0.50632 0.0
O131 O 0.28746 0.22581 0.53065 0.0
O132 O 0.30326 0.20433 0.53164 0.0
C133 C 0.29687 0.21036 0.47346 0.0
C134 C 0.25723 0.16949 0.50119 0.0
O135 O 0.27286 0.16616 0.502 0.0
O136 O 0.25588 0.18675 0.50221 0.0
C137 C 0.31545 0.15342 0.49674 0.0
O138 O 0.30085 0.14486 0.48487 0.0
C139 C 0.29836 0.2192 0.53968 0.0
Zn140 Zn 0.1469 0.02333 0.76648 0.0
Zn141 Zn 0.16888 1.00185 0.76425 0.0
O142 O 0.15476 1.00154 0.79145 0.0
O143 O 0.13492 0.01873 0.78976 0.0
O144 O 0.18271 0.97676 0.76252 0.0
O145 O 0.13241 0.01482 0.74109 0.0
O146 O 0.15286 0.9985 0.73523 0.0
C147 C 0.14213 0.00868 0.79888 0.0
C148 C 0.18449 0.04699 0.76847 0.0
O149 O 0.18857 0.03052 0.76752 0.0
O150 O 0.16798 0.04717 0.76856 0.0
C151 C 0.19965 0.97635 0.76455 0.0
O152 O 0.21184 0.99321 0.76792 0.0
C153 C 0.13936 0.00465 0.7291 0.0
Zn154 Zn 0.33669 0.91329 0.02355 0.0
Zn155 Zn 0.3106 0.92975 0.01737 0.0
O156 O 0.30528 0.9062 0.99489 0.0
O157 O 0.32497 0.89056 0.0028 0.0
O158 O 0.29003 0.94236 0.01474 0.0
O159 O 0.33149 0.91256 0.05008 0.0
O160 O 0.30734 0.92246 0.04345 0.0
C161 C 0.31201 0.89158 0.99168 0.0
C162 C 0.35012 0.95068 0.01496 0.0
O163 O 0.33368 0.95133 0.01567 0.0
O164 O 0.35485 0.9356 0.01719 0.0
C165 C 0.29015 0.95616 0.00606 0.0
O166 O 0.30415 0.96245 0.99716 0.0
C167 C 0.31697 0.91648 0.05482 0.0
Zn168 Zn 0.3192 0.361 0.03329 0.0
Zn169 Zn 0.29908 0.38524 0.03162 0.0
O170 O 0.29517 0.36773 0.00438 0.0
O171 O 0.3117 0.34713 0.00659 0.0
O172 O 0.28079 0.40146 0.02969 0.0
O173 O 0.30706 0.35005 0.05393 0.0
O174 O 0.29136 0.37184 0.05442 0.0
C175 C 0.30112 0.35342 0.99679 0.0
C176 C 0.34026 0.40126 0.03972 0.0
O177 O 0.3248 0.40471 0.03706 0.0
O178 O 0.34121 0.38392 0.03919 0.0
C179 C 0.28149 0.41756 0.04068 0.0
O180 O 0.29507 0.4249 0.05406 0.0
C181 C 0.29547 0.35808 0.06113 0.0
Zn182 Zn 0.79123 0.19207 0.00431 0.0
Zn183 Zn 0.8063 0.16331 0.00659 0.0
O184 O 0.8129 0.17185 0.98149 0.0
O185 O 0.80387 0.19859 0.9823 0.0
O186 O 0.82072 0.14347 0.00727 0.0
O187 O 0.80227 0.20645 0.0301 0.0
O188 O 0.81531 0.18281 0.03203 0.0
C189 C 0.8118 0.18642 0.97435 0.0
C190 C 0.76538 0.15477 0.00265 0.0
O191 O 0.7795 0.14893 0.0057 0.0
O192 O 0.76684 0.17212 0.00064 0.0
C193 C 0.8152 0.12613 0.00978 0.0
O194 O 0.79827 0.11954 0.01279 0.0
C195 C 0.81236 0.19905 0.03929 0.0
Zn196 Zn 0.17732 0.56804 0.25997 0.0
Zn197 Zn 0.19289 0.5387 0.2503 0.0
O198 O 0.17935 0.53331 0.27329 0.0
O199 O 0.16759 0.55793 0.28221 0.0
O200 O 0.20306 0.51531 0.24587 0.0
O201 O 0.16252 0.55884 0.23428 0.0
O202 O 0.1759 0.53529 0.22638 0.0
C203 C 0.17027 0.54187 0.28445 0.0
C204 C 0.21594 0.58109 0.25972 0.0
O205 O 0.21479 0.56304 0.25403 0.0
O206 O 0.20195 0.58677 0.2635 0.0
C207 C 0.21818 0.51527 0.2541 0.0
O208 O 0.22853 0.53161 0.2643 0.0
C209 C 0.16446 0.54452 0.22239 0.0
Zn210 Zn 0.81967 0.86572 0.53651 0.0
Zn211 Zn 0.7961 0.8859 0.53315 0.0
O212 O 0.7928 0.86716 0.50672 0.0
O213 O 0.81329 0.85095 0.50976 0.0
O214 O 0.77626 0.90028 0.53057 0.0
O215 O 0.80893 0.85462 0.55764 0.0
O216 O 0.79046 0.87355 0.55726 0.0
C217 C 0.80098 0.85456 0.49963 0.0
C218 C 0.83688 0.90629 0.54066 0.0
O219 O 0.8207 0.90719 0.53646 0.0
O220 O 0.83995 0.89026 0.54248 0.0
C221 C 0.77781 0.91783 0.53877 0.0
O222 O 0.79287 0.92748 0.54953 0.0
C223 C 0.79653 0.86131 0.56477 0.0
Zn224 Zn 0.95273 0.044 0.26596 0.0
Zn225 Zn 0.93374 0.0688 0.26951 0.0
O226 O 0.94988 0.07054 0.29787 0.0
O227 O 0.96875 0.05249 0.29066 0.0
O228 O 0.92089 0.09449 0.27236 0.0
O229 O 0.96238 0.04651 0.24104 0.0
O230 O 0.94775 0.06927 0.24239 0.0
C231 C 0.96284 0.0632 0.30322 0.0
C232 C 0.91492 0.02404 0.26587 0.0
O233 O 0.91258 0.04123 0.26631 0.0
O234 O 0.93081 0.02184 0.26591 0.0
C235 C 0.90526 0.09545 0.26503 0.0
O236 O 0.89475 0.0793 0.25468 0.0
C237 C 0.9578 0.05929 0.23345 0.0
Zn238 Zn 0.28138 0.68058 0.50882 0.0
Zn239 Zn 0.30032 0.65716 0.50756 0.0
O240 O 0.30229 0.66494 0.48141 0.0
O241 O 0.28143 0.68106 0.48164 0.0
O242 O 0.31747 0.63995 0.5072 0.0
O243 O 0.29749 0.70184 0.52789 0.0
O244 O 0.30978 0.67838 0.53237 0.0
C245 C 0.29252 0.67343 0.4729 0.0
C246 C 0.26087 0.64402 0.51337 0.0
O247 O 0.27489 0.63907 0.508 0.0
O248 O 0.2609 0.66181 0.51692 0.0
C249 C 0.31523 0.62527 0.51499 0.0
O250 O 0.30106 0.62079 0.52422 0.0
C251 C 0.30805 0.69562 0.53775 0.0
Zn252 Zn 0.45452 0.54764 0.77102 0.0
Zn253 Zn 0.43306 0.56986 0.77321 0.0
O254 O 0.44853 0.57183 0.80236 0.0
O255 O 0.46912 0.55568 0.79643 0.0
O256 O 0.41965 0.59532 0.77507 0.0
O257 O 0.4664 0.55218 0.74762 0.0
O258 O 0.44743 0.57039 0.74625 0.0
C259 C 0.46189 0.56543 0.8085 0.0
C260 C 0.41645 0.52502 0.76863 0.0
O261 O 0.41283 0.54167 0.76928 0.0
O262 O 0.43285 0.52432 0.76904 0.0
C263 C 0.40315 0.59577 0.76998 0.0
O264 O 0.3915 0.57894 0.76294 0.0
C265 C 0.45976 0.56281 0.73872 0.0
Zn266 Zn 0.67631 0.05168 0.72088 0.0
Zn267 Zn 0.69693 0.02797 0.72241 0.0
O268 O 0.68762 0.03136 0.74856 0.0
O269 O 0.67306 0.05398 0.74817 0.0
O270 O 0.71244 0.00989 0.72575 0.0
O271 O 0.65854 0.03125 0.7019 0.0
O272 O 0.67768 0.01286 0.69996 0.0
C273 C 0.67897 0.04275 0.75691 0.0
C274 C 0.71234 0.06842 0.71393 0.0
O275 O 0.71481 0.0527 0.71783 0.0
O276 O 0.69659 0.07102 0.71311 0.0
C277 C 0.72718 0.01672 0.73661 0.0
O278 O 0.73233 0.03548 0.74381 0.0
C279 C 0.66271 0.01594 0.69443 0.0
Zn280 Zn 0.77798 0.71018 0.00589 0.0
Zn281 Zn 0.79876 0.68589 0.00687 0.0
O282 O 0.80501 0.69859 0.98335 0.0
O283 O 0.78814 0.71932 0.98337 0.0
O284 O 0.81756 0.67022 0.00866 0.0
O285 O 0.78722 0.72506 0.03231 0.0
O286 O 0.80306 0.70367 0.03378 0.0
C287 C 0.79976 0.71141 0.97607 0.0
C288 C 0.75767 0.66941 0.00095 0.0
O289 O 0.77329 0.66611 0.00266 0.0
O290 O 0.75641 0.68669 0.00177 0.0
C291 C 0.81826 0.65553 0.99633 0.0
O292 O 0.80596 0.64945 0.98162 0.0
C293 C 0.79778 0.71833 0.0417 0.0
Zn294 Zn 0.95681 0.54046 0.79967 0.0
Zn295 Zn 0.93156 0.55847 0.7947 0.0
O296 O 0.9439 0.57265 0.82127 0.0
O297 O 0.96829 0.56165 0.82217 0.0
O298 O 0.91301 0.57274 0.78922 0.0
O299 O 0.96494 0.54249 0.77415 0.0
O300 O 0.9473 0.5622 0.77291 0.0
C301 C 0.95922 0.573 0.8294 0.0
C302 C 0.92106 0.51605 0.79864 0.0
O303 O 0.9165 0.53043 0.79376 0.0
O304 O 0.93757 0.5171 0.8031 0.0
C305 C 0.90034 0.57463 0.79932 0.0
O306 O 0.89898 0.56695 0.81442 0.0
C307 C 0.95922 0.55425 0.76599 0.0
Zn308 Zn 0.83969 0.41087 0.53199 0.0
Zn309 Zn 0.81352 0.42826 0.5282 0.0
O310 O 0.81238 0.41294 0.50122 0.0
O311 O 0.83639 0.40148 0.5038 0.0
O312 O 0.79457 0.44323 0.52768 0.0
O313 O 0.82553 0.39466 0.54835 0.0
O314 O 0.80442 0.41031 0.5467 0.0
C315 C 0.82316 0.4036 0.49381 0.0
C316 C 0.85332 0.45137 0.54231 0.0
O317 O 0.83709 0.45053 0.53631 0.0
O318 O 0.85788 0.43588 0.54327 0.0
C319 C 0.78436 0.44364 0.51336 0.0
O320 O 0.78563 0.43343 0.49682 0.0
C321 C 0.81054 0.39745 0.55286 0.0
Zn322 Zn 0.64828 0.52333 0.27169 0.0
Zn323 Zn 0.67094 0.50246 0.26853 0.0
O324 O 0.65738 0.50191 0.29598 0.0
O325 O 0.63689 0.51851 0.29532 0.0
O326 O 0.6851 0.47763 0.26632 0.0
O327 O 0.63359 0.51479 0.24629 0.0
O328 O 0.65459 0.49937 0.23983 0.0
C329 C 0.64479 0.50867 0.30398 0.0
C330 C 0.68584 0.54753 0.27319 0.0
O331 O 0.69027 0.53121 0.27169 0.0
O332 O 0.66928 0.54732 0.27379 0.0
C333 C 0.70205 0.47754 0.26922 0.0
O334 O 0.71395 0.49457 0.27396 0.0
C335 C 0.64077 0.5052 0.23403 0.0
Tb336 Tb 0.02838 0.02164 0.00473 0.0
C337 C 0.0811 0.09472 0.05277 0.0
C338 C 0.08774 0.11765 0.03215 0.0
C339 C 0.08917 0.12949 0.06586 0.0
C340 C 0.08235 0.09833 0.03492 0.0
C341 C 0.08492 0.11021 0.06856 0.0
C342 C 0.09062 0.13321 0.04766 0.0
C343 C 0.08222 0.08652 0.08845 0.0
N344 N 0.07747 0.07595 0.05471 0.0
C345 C 0.07879 0.07171 0.07234 0.0
C346 C 0.08505 0.10586 0.08656 0.0
Tb347 Tb 0.07105 0.05237 0.02752 0.0
N348 N 0.07959 0.08286 0.0204 0.0
C349 C 0.08365 0.08588 0.00289 0.0
C350 C 0.09081 0.12071 0.01404 0.0
C351 C 0.08908 0.10473 0.99944 0.0
H352 H 0.07654 0.05681 0.07403 0.0
H353 H 0.09195 0.10683 0.98548 0.0
H354 H 0.09453 0.14814 0.04579 0.0
H355 H 0.08271 0.08299 0.10231 0.0
H356 H 0.08241 0.07394 0.99124 0.0
H357 H 0.01068 0.96254 0.04196 0.0
H358 H 0.09506 0.1353 0.01131 0.0
H359 H 0.01819 0.02045 0.95909 0.0
H360 H 0.01802 0.99647 0.03851 0.0
H361 H 0.0108 0.99633 0.92942 0.0
H362 H 0.09197 0.1416 0.07779 0.0
H363 H 0.00851 0.93611 0.01417 0.0
H364 H 0.0083 0.92618 0.97921 0.0
H365 H 0.08788 0.11733 0.09906 0.0
H366 H 0.00821 0.9355 0.94822 0.0
N367 N 0.02118 0.99006 0.00924 0.0
C368 C 0.01729 0.98534 0.02622 0.0
C369 C 0.012 0.95115 0.01267 0.0
C370 C 0.01439 0.95589 0.99502 0.0
C371 C 0.01306 0.96595 0.02829 0.0
C372 C 0.01876 0.9757 0.99376 0.0
H373 H 0.00851 0.96163 0.92948 0.0
N374 N 0.02081 0.99994 0.97622 0.0
C375 C 0.01309 0.99177 0.94256 0.0
C376 C 0.01854 0.98085 0.97651 0.0
C377 C 0.01733 0.00545 0.95955 0.0
C378 C 0.0119 0.97222 0.94264 0.0
C379 C 0.0142 0.96646 0.9598 0.0
O380 O 0.00659 0.03084 0.99363 0.0
O381 O 0.04531 0.05147 0.01325 0.0
O382 O 0.05015 0.05849 0.04632 0.0
O383 O 0.02731 0.02991 0.03598 0.0
O384 O 0.03075 0.04356 0.98734 0.0
O385 O 0.00408 0.01688 0.01735 0.0
O386 O 0.09318 0.04702 0.04246 0.0
O387 O 0.05422 0.02266 0.01921 0.0
O388 O 0.04825 0.01574 0.98458 0.0
O389 O 0.07286 0.04243 0.99661 0.0
O390 O 0.06867 0.03076 0.04531 0.0
O391 O 0.09484 0.05281 0.01449 0.0
C392 C 0.04177 0.05787 0.99863 0.0
C393 C 0.97742 0.01296 0.99739 0.0
C394 C 0.9456 0.01241 0.99094 0.0
C395 C 0.9635 0.02246 0.99842 0.0
C396 C 0.94187 0.99256 0.98245 0.0
C397 C 0.97349 0.99319 0.98886 0.0
C398 C 0.95576 0.98306 0.98143 0.0
C399 C 0.03508 0.04586 0.04906 0.0
C400 C 0.99585 0.0241 0.00538 0.0
C401 C 0.01133 0.94677 0.96088 0.0
C402 C 0.0114 0.94147 0.97852 0.0
C403 C 0.05788 0.01637 0.03387 0.0
C404 C 0.12218 0.06096 0.03435 0.0
C405 C 0.13606 0.05144 0.03251 0.0
C406 C 0.15433 0.06203 0.03656 0.0
C407 C 0.15854 0.08236 0.04259 0.0
C408 C 0.12653 0.08122 0.04052 0.0
C409 C 0.14468 0.09185 0.04465 0.0
C410 C 0.06434 0.02733 0.98287 0.0
C411 C 0.1034 0.04934 0.02897 0.0
H412 H 0.96662 0.03768 0.0053 0.0
H413 H 0.92828 0.98444 0.97639 0.0
H414 H 0.98405 0.98562 0.98799 0.0
H415 H 0.95277 0.96781 0.97482 0.0
H416 H 0.13261 0.03579 0.02746 0.0
H417 H 0.17251 0.09087 0.04585 0.0
H418 H 0.11599 0.08878 0.04198 0.0
H419 H 0.14801 0.1075 0.04937 0.0
Tb420 Tb 0.31517 0.79737 0.25197 0.0
C421 C 0.28858 0.84389 0.31654 0.0
C422 C 0.31558 0.85727 0.33858 0.0
C423 C 0.29034 0.87182 0.34168 0.0
C424 C 0.30535 0.84289 0.32333 0.0
C425 C 0.28108 0.8588 0.32532 0.0
C426 C 0.3077 0.87123 0.3482 0.0
C427 C 0.25592 0.84712 0.30114 0.0
N428 N 0.28003 0.83082 0.3008 0.0
C429 C 0.26359 0.83228 0.29326 0.0
C430 C 0.26459 0.86033 0.31737 0.0
Tb431 Tb 0.29155 0.80377 0.29281 0.0
N432 N 0.31241 0.82915 0.3136 0.0
C433 C 0.33077 0.83139 0.31662 0.0
C434 C 0.33367 0.85777 0.34314 0.0
C435 C 0.34146 0.84518 0.33166 0.0
H436 H 0.25547 0.82158 0.28172 0.0
H437 H 0.35582 0.84637 0.33408 0.0
H438 H 0.31513 0.882 0.36027 0.0
H439 H 0.24297 0.84795 0.29498 0.0
H440 H 0.33775 0.82345 0.30709 0.0
H441 H 0.25904 0.74511 0.20495 0.0
H442 H 0.342 0.86862 0.35466 0.0
H443 H 0.35797 0.79549 0.26212 0.0
H444 H 0.27202 0.77277 0.22998 0.0
H445 H 0.37692 0.77341 0.25272 0.0
H446 H 0.28436 0.88269 0.34911 0.0
H447 H 0.2775 0.72352 0.19195 0.0
H448 H 0.30672 0.71403 0.19372 0.0
H449 H 0.25847 0.87164 0.32362 0.0
H450 H 0.33803 0.72065 0.20791 0.0
N451 N 0.29916 0.7693 0.23081 0.0
C452 C 0.28107 0.76467 0.22425 0.0
C453 C 0.28362 0.736 0.20304 0.0
C454 C 0.30159 0.73968 0.21063 0.0
C455 C 0.27323 0.74832 0.21016 0.0
C456 C 0.30909 0.7566 0.22468 0.0
H457 H 0.36411 0.7424 0.2301 0.0
N458 N 0.33364 0.77658 0.24623 0.0
C459 C 0.3628 0.76939 0.24715 0.0
C460 C 0.32676 0.76026 0.23276 0.0
C461 C 0.35183 0.78181 0.25251 0.0
C462 C 0.35552 0.75194 0.23438 0.0
C463 C 0.33745 0.74737 0.22669 0.0
O464 O 0.34046 0.81691 0.25181 0.0
O465 O 0.31247 0.817 0.27768 0.0
O466 O 0.27513 0.80612 0.26736 0.0
O467 O 0.29063 0.80361 0.24048 0.0
O468 O 0.31307 0.82705 0.25295 0.0
O469 O 0.32346 0.80169 0.22575 0.0
O470 O 0.26381 0.79408 0.29434 0.0
O471 O 0.29375 0.78469 0.26687 0.0
O472 O 0.32915 0.78958 0.27631 0.0
O473 O 0.31402 0.79332 0.30344 0.0
O474 O 0.28863 0.7724 0.28997 0.0
O475 O 0.28304 0.79585 0.31807 0.0
C476 C 0.31232 0.8317 0.27066 0.0
C477 C 0.34126 0.83378 0.22689 0.0
C478 C 0.33019 0.85756 0.21266 0.0
C479 C 0.32692 0.83981 0.21888 0.0
C480 C 0.34822 0.86921 0.21477 0.0
C481 C 0.35894 0.84573 0.22901 0.0
C482 C 0.36237 0.86338 0.22303 0.0
C483 C 0.27648 0.80651 0.24922 0.0
C484 C 0.338 0.8153 0.23355 0.0
C485 C 0.33001 0.73064 0.21274 0.0
C486 C 0.31218 0.72688 0.20464 0.0
C487 C 0.2908 0.76877 0.27245 0.0
C488 C 0.25521 0.77059 0.31258 0.0
C489 C 0.26285 0.75762 0.32053 0.0
C490 C 0.2521 0.73907 0.32144 0.0
C491 C 0.23376 0.7335 0.31405 0.0
C492 C 0.23677 0.7648 0.30554 0.0
C493 C 0.22617 0.74632 0.30615 0.0
C494 C 0.32727 0.78841 0.29426 0.0
C495 C 0.26603 0.79002 0.31093 0.0
H496 H 0.31324 0.83067 0.21765 0.0
H497 H 0.35164 0.8826 0.20957 0.0
H498 H 0.3701 0.84136 0.23528 0.0
H499 H 0.3761 0.87248 0.22452 0.0
H500 H 0.27698 0.76202 0.32629 0.0
H501 H 0.22525 0.71924 0.31446 0.0
H502 H 0.23058 0.77456 0.29938 0.0
H503 H 0.21202 0.74196 0.30057 0.0
Tb504 Tb 0.56935 0.04215 0.51012 0.0
C505 C 0.50318 0.99254 0.53876 0.0
C506 C 0.4881 0.96751 0.5119 0.0
C507 C 0.48465 0.96166 0.54357 0.0
C508 C 0.49959 0.98616 0.51955 0.0
C509 C 0.49556 0.98053 0.55106 0.0
C510 C 0.48101 0.95512 0.524 0.0
C511 C 0.5085 0.00739 0.57707 0.0
N512 N 0.51318 0.0111 0.54536 0.0
C513 C 0.51547 0.01885 0.56427 0.0
C514 C 0.49863 0.98808 0.57046 0.0
Tb515 Tb 0.52372 0.02899 0.52337 0.0
N516 N 0.50613 0.99887 0.50844 0.0
C517 C 0.50064 0.9942 0.48953 0.0
C518 C 0.48335 0.96227 0.49242 0.0
C519 C 0.48936 0.97583 0.48123 0.0
H520 H 0.52301 0.03376 0.56961 0.0
H521 H 0.48537 0.97214 0.46619 0.0
H522 H 0.47227 0.94069 0.51839 0.0
H523 H 0.51068 0.0135 0.59204 0.0
H524 H 0.5051 0.00444 0.4806 0.0
H525 H 0.6066 0.09766 0.56885 0.0
H526 H 0.47456 0.9481 0.48597 0.0
H527 H 0.56974 0.03902 0.46403 0.0
H528 H 0.58702 0.06562 0.55355 0.0
H529 H 0.5815 0.06056 0.44233 0.0
H530 H 0.47873 0.95216 0.55277 0.0
H531 H 0.61831 0.12221 0.54976 0.0
H532 H 0.62023 0.13103 0.51787 0.0
H533 H 0.49307 0.97931 0.58039 0.0
H534 H 0.61326 0.12098 0.48338 0.0
N535 N 0.587 0.07181 0.52592 0.0
C536 C 0.59186 0.07609 0.54496 0.0
C537 C 0.60949 0.10817 0.54297 0.0
C538 C 0.60498 0.10351 0.52344 0.0
C539 C 0.60299 0.09435 0.55376 0.0
C540 C 0.59375 0.0849 0.51525 0.0
H541 H 0.59894 0.09464 0.45504 0.0
N542 N 0.57993 0.06085 0.48881 0.0
C543 C 0.58394 0.06603 0.4574 0.0
C544 C 0.58997 0.07926 0.49598 0.0
C545 C 0.57734 0.05385 0.46975 0.0
C546 C 0.59373 0.08527 0.46463 0.0
C547 C 0.59711 0.09203 0.48415 0.0
O548 O 0.5854 0.02602 0.49521 0.0
O549 O 0.54493 0.01952 0.50922 0.0
O550 O 0.5396 0.01371 0.53817 0.0
O551 O 0.56844 0.034 0.53798 0.0
O552 O 0.55807 0.01761 0.48622 0.0
O553 O 0.59153 0.03706 0.52508 0.0
O554 O 0.50769 0.04552 0.53779 0.0
O555 O 0.54816 0.05182 0.52409 0.0
O556 O 0.55303 0.05681 0.4951 0.0
O557 O 0.52453 0.03593 0.49501 0.0
O558 O 0.53494 0.05354 0.54723 0.0
O559 O 0.50157 0.03379 0.50808 0.0
C560 C 0.54437 0.0086 0.49341 0.0
C561 C 0.61606 0.03282 0.50815 0.0
C562 C 0.64566 0.02552 0.51109 0.0
C563 C 0.62683 0.02058 0.51255 0.0
C564 C 0.65341 0.04289 0.5051 0.0
C565 C 0.62419 0.05001 0.50226 0.0
C566 C 0.64275 0.05498 0.50075 0.0
C567 C 0.55715 0.01983 0.54397 0.0
C568 C 0.5965 0.02767 0.51013 0.0
C569 C 0.60773 0.11088 0.49221 0.0
C570 C 0.6117 0.1166 0.51183 0.0
C571 C 0.54854 0.06255 0.53995 0.0
C572 C 0.47698 0.03798 0.52492 0.0
C573 C 0.46613 0.05046 0.52153 0.0
C574 C 0.44727 0.04492 0.52258 0.0
C575 C 0.43953 0.02686 0.52726 0.0
C576 C 0.46892 0.02013 0.52967 0.0
C577 C 0.45032 0.01464 0.53086 0.0
C578 C 0.53561 0.05007 0.48877 0.0
C579 C 0.49652 0.04341 0.52283 0.0
H580 H 0.62058 0.00741 0.51737 0.0
H581 H 0.66773 0.04703 0.50349 0.0
H582 H 0.61622 0.05957 0.4988 0.0
H583 H 0.64891 0.06826 0.49612 0.0
H584 H 0.47225 0.06422 0.51769 0.0
H585 H 0.42512 0.02229 0.52833 0.0
H586 H 0.47694 0.01038 0.53238 0.0
H587 H 0.44422 1.0008 0.53452 0.0
Tb588 Tb 0.27815 0.29093 0.7638 0.0
C589 C 0.33551 0.2603 0.80249 0.0
C590 C 0.34664 0.28407 0.83125 0.0
C591 C 0.34686 0.25035 0.8301 0.0
C592 C 0.33864 0.27904 0.81244 0.0
C593 C 0.34005 0.24579 0.81096 0.0
C594 C 0.35017 0.26952 0.84025 0.0
C595 C 0.33299 0.22419 0.78047 0.0
N596 N 0.32936 0.25673 0.78399 0.0
C597 C 0.32877 0.23914 0.77272 0.0
C598 C 0.33836 0.22742 0.79976 0.0
Tb599 Tb 0.32204 0.28186 0.77257 0.0
N600 N 0.3354 0.29269 0.80309 0.0
C601 C 0.34149 0.312 0.81135 0.0
C602 C 0.35169 0.30367 0.84013 0.0
C603 C 0.3494 0.31775 0.83005 0.0
H604 H 0.32455 0.23635 0.75781 0.0
H605 H 0.35372 0.33304 0.83662 0.0
H606 H 0.35609 0.27307 0.85481 0.0
H607 H 0.33205 0.21019 0.77157 0.0
H608 H 0.33981 0.32313 0.80387 0.0
H609 H 0.24555 0.23905 0.70058 0.0
H610 H 0.35801 0.30805 0.85445 0.0
H611 H 0.27673 0.3369 0.77789 0.0
H612 H 0.26027 0.24938 0.73291 0.0
H613 H 0.26952 0.36297 0.76374 0.0
H614 H 0.35024 0.23937 0.83697 0.0
H615 H 0.24073 0.26361 0.68237 0.0
H616 H 0.24311 0.29868 0.68157 0.0
H617 H 0.34172 0.21587 0.80571 0.0
H618 H 0.24971 0.33264 0.69887 0.0
N619 N 0.26466 0.27976 0.73334 0.0
C620 C 0.25847 0.26039 0.72533 0.0
C621 C 0.24753 0.26827 0.69658 0.0
C622 C 0.25294 0.28798 0.70515 0.0
C623 C 0.2501 0.25439 0.70682 0.0
C624 C 0.26136 0.29328 0.72384 0.0
H625 H 0.25922 0.35671 0.7297 0.0
N626 N 0.27129 0.31606 0.75198 0.0
C627 C 0.26822 0.34877 0.75504 0.0
C628 C 0.26483 0.31218 0.73353 0.0
C629 C 0.27227 0.33389 0.76302 0.0
C630 C 0.26249 0.34521 0.73581 0.0
C631 C 0.26033 0.32661 0.72488 0.0
O632 O 0.26082 0.29973 0.78322 0.0
O633 O 0.29895 0.28927 0.78469 0.0
O634 O 0.30204 0.25722 0.78002 0.0
O635 O 0.2754 0.2594 0.76405 0.0
O636 O 0.28695 0.3117 0.79039 0.0
O637 O 0.25274 0.27175 0.7648 0.0
O638 O 0.33977 0.27361 0.75333 0.0
O639 O 0.30115 0.28335 0.75179 0.0
O640 O 0.29829 0.31513 0.75584 0.0
O641 O 0.32459 0.31337 0.77268 0.0
O642 O 0.31338 0.26118 0.7459 0.0
O643 O 0.34693 0.30182 0.77135 0.0
C644 C 0.29863 0.30393 0.79704 0.0
C645 C 0.22943 0.28684 0.77367 0.0
C646 C 0.19992 0.28931 0.78394 0.0
C647 C 0.21721 0.28609 0.78755 0.0
C648 C 0.1951 0.29301 0.7662 0.0
C649 C 0.22409 0.29048 0.75615 0.0
C650 C 0.20707 0.29354 0.75247 0.0
C651 C 0.28483 0.24952 0.7727 0.0
C652 C 0.24775 0.28403 0.77748 0.0
C653 C 0.2531 0.32174 0.70586 0.0
C654 C 0.24936 0.30242 0.69601 0.0
C655 C 0.30152 0.26878 0.73937 0.0
C656 C 0.37106 0.28822 0.76247 0.0
C657 C 0.38365 0.29167 0.7492 0.0
C658 C 0.4018 0.29102 0.75318 0.0
C659 C 0.40692 0.28648 0.77042 0.0
C660 C 0.37665 0.28375 0.7795 0.0
C661 C 0.39443 0.28281 0.78339 0.0
C662 C 0.31537 0.32301 0.76349 0.0
C663 C 0.35231 0.28982 0.75876 0.0
H664 H 0.22124 0.28332 0.80115 0.0
H665 H 0.18189 0.29524 0.76282 0.0
H666 H 0.23303 0.29088 0.74524 0.0
H667 H 0.2031 0.2963 0.73886 0.0
H668 H 0.37946 0.29527 0.73605 0.0
H669 H 0.42063 0.28559 0.77383 0.0
H670 H 0.36732 0.28113 0.78988 0.0
H671 H 0.39858 0.27933 0.79658 0.0
Tb672 Tb 0.04571 0.05035 0.5288 0.0
C673 C 0.0685 1.00068 0.46432 0.0
C674 C 0.04604 0.99866 0.43855 0.0
C675 C 0.07666 0.99777 0.43225 0.0
C676 C 0.0512 1.0011 0.45802 0.0
C677 C 0.08123 0.99836 0.45142 0.0
C678 C 0.05905 0.99784 0.42581 0.0
C679 C 0.10086 0.99411 0.47672 0.0
N680 N 0.07227 1.00078 0.48288 0.0
C681 C 0.08771 0.99618 0.48893 0.0
C682 C 0.09781 0.9957 0.458 0.0
Tb683 Tb 0.05026 0.00644 0.5017 0.0
N684 N 0.03892 1.0017 0.47072 0.0
C685 C 0.02085 0.99721 0.46453 0.0
C686 C 0.02777 0.99598 0.43237 0.0
C687 C 0.01506 0.99471 0.44537 0.0
H688 H 0.09024 0.99463 0.50327 0.0
H689 H 1.00079 0.99188 0.44067 0.0
H690 H 0.05542 0.99637 0.41086 0.0
H691 H 0.11332 0.99121 0.48176 0.0
H692 H 0.01075 0.99598 0.47423 0.0
H693 H 0.09933 0.07121 0.58631 0.0
H694 H 0.02324 0.99403 0.41754 0.0
H695 H 0.00243 0.05134 0.52829 0.0
H696 H 0.0866 0.06255 0.5533 0.0
H697 H 0.98049 0.05471 0.55127 0.0
H698 H 0.08635 0.9963 0.42217 0.0
H699 H 0.07923 0.07233 0.61171 0.0
H700 H 0.0477 0.06977 0.6209 0.0
H701 H 0.10797 0.99393 0.44855 0.0
H702 H 0.01528 0.06532 0.61133 0.0
N703 N 0.05911 0.05835 0.55932 0.0
C704 C 0.07746 0.063 0.56398 0.0
C705 C 0.07346 0.06851 0.5971 0.0
C706 C 0.05478 0.06473 0.59229 0.0
C707 C 0.08485 0.06792 0.58285 0.0
C708 C 0.04801 0.05987 0.57305 0.0
H709 H 0.99012 0.05991 0.58538 0.0
N710 N 0.02434 0.05405 0.54906 0.0
C711 C 0.99436 0.05551 0.5561 0.0
C712 C 0.02993 0.05758 0.56773 0.0
C713 C 0.0069 0.05368 0.54311 0.0
C714 C 0.99983 0.05838 0.57533 0.0
C715 C 0.01788 0.05977 0.58139 0.0
O716 O 0.03691 0.07414 0.52277 0.0
O717 O 0.04412 0.03415 0.49968 0.0
O718 O 0.0752 0.02758 0.49898 0.0
O719 O 0.07354 0.05446 0.52142 0.0
O720 O 0.02461 0.04813 0.50591 0.0
O721 O 0.06503 0.07728 0.53208 0.0
O722 O 0.04344 0.98441 0.51761 0.0
O723 O 0.05306 0.02341 0.53038 0.0
O724 O 0.02552 0.02613 0.53545 0.0
O725 O 0.02196 0.00568 0.50641 0.0
O726 O 0.07186 0.00836 0.5241 0.0
O727 O 0.04072 0.97721 0.48755 0.0
C728 C 0.03029 0.03827 0.49214 0.0
C729 C 0.05444 0.10561 0.53738 0.0
C730 C 0.06189 0.14036 0.53718 0.0
C731 C 0.06133 0.12115 0.52861 0.0
C732 C 0.05594 0.14378 0.55516 0.0
C733 C 0.04855 0.10917 0.55525 0.0
C734 C 0.04943 0.12827 0.56414 0.0
C735 C 0.0821 0.04533 0.509 0.0
C736 C 0.05307 0.08594 0.52694 0.0
C737 C 0.02434 0.06372 0.6006 0.0
C738 C 0.04279 0.06624 0.60605 0.0
C739 C 0.06719 0.01963 0.53773 0.0
C740 C 0.04915 0.95464 0.50383 0.0
C741 C 0.04519 0.94348 0.51771 0.0
C742 C 0.05332 0.92821 0.51891 0.0
C743 C 0.06566 0.92437 0.5061 0.0
C744 C 0.06129 0.95033 0.49096 0.0
C745 C 0.06957 0.93536 0.49222 0.0
C746 C 0.0157 0.01157 0.5224 0.0
C747 C 0.04027 0.97045 0.50291 0.0
H748 H 0.06618 0.11812 0.51495 0.0
H749 H 0.05595 0.15833 0.56215 0.0
H750 H 0.04319 0.09729 0.56219 0.0
H751 H 0.04479 0.13103 0.57792 0.0
H752 H 0.03582 0.94679 0.52764 0.0
H753 H 0.07201 0.91259 0.50657 0.0
H754 H 0.06434 0.9584 0.47986 0.0
H755 H 0.07893 0.93215 0.48228 0.0
Tb756 Tb 0.323 0.80351 0.76513 0.0
C757 C 0.27215 0.73994 0.79373 0.0
C758 C 0.28159 0.71102 0.78143 0.0
C759 C 0.26783 0.71343 0.81076 0.0
C760 C 0.28018 0.72988 0.78031 0.0
C761 C 0.26549 0.7317 0.80891 0.0
C762 C 0.27587 0.70309 0.79702 0.0
C763 C 0.25326 0.7593 0.81825 0.0
N764 N 0.27001 0.75745 0.79129 0.0
C765 C 0.26007 0.76685 0.80293 0.0
C766 C 0.2562 0.74178 0.82142 0.0
Tb767 Tb 0.28203 0.76885 0.76596 0.0
N768 N 0.2851 0.73788 0.76528 0.0
C769 C 0.28996 0.7269 0.75002 0.0
C770 C 0.2879 0.70036 0.76645 0.0
C771 C 0.29175 0.70819 0.7505 0.0
H772 H 0.25772 0.78044 0.8008 0.0
H773 H 0.29617 0.69987 0.73859 0.0
H774 H 0.27704 0.68872 0.79825 0.0
H775 H 0.24579 0.76705 0.82763 0.0
H776 H 0.29308 0.73267 0.73757 0.0
H777 H 0.30996 0.87318 0.7916 0.0
H778 H 0.28922 0.68584 0.76676 0.0
H779 H 0.34873 0.79125 0.73155 0.0
H780 H 0.3108 0.83967 0.79226 0.0
H781 H 0.3628 0.80482 0.70592 0.0
H782 H 0.26297 0.70692 0.82243 0.0
H783 H 0.32073 0.88808 0.76504 0.0
H784 H 0.33478 0.88527 0.73453 0.0
H785 H 0.25086 0.73595 0.83326 0.0
H786 H 0.34895 0.86654 0.71105 0.0
N787 N 0.32073 0.83466 0.76546 0.0
C788 C 0.31516 0.84563 0.78024 0.0
C789 C 0.32063 0.87308 0.76486 0.0
C790 C 0.32724 0.86225 0.75025 0.0
C791 C 0.31471 0.86478 0.78 0.0
C792 C 0.32726 0.8429 0.75106 0.0
H793 H 0.35973 0.83667 0.70044 0.0
N794 N 0.3366 0.81461 0.74038 0.0
C795 C 0.35506 0.81272 0.71478 0.0
C796 C 0.33554 0.83254 0.73809 0.0
C797 C 0.34689 0.80502 0.72942 0.0
C798 C 0.35326 0.83067 0.71169 0.0
C799 C 0.34373 0.84101 0.72365 0.0
O800 O 0.34833 0.79936 0.77337 0.0
O801 O 0.31146 0.77381 0.76983 0.0
O802 O 0.29532 0.77694 0.7947 0.0
O803 O 0.31287 0.80736 0.79284 0.0
O804 O 0.33236 0.77756 0.75397 0.0
O805 O 0.34092 0.82511 0.78596 0.0
O806 O 0.25481 0.76952 0.76139 0.0
O807 O 0.29348 0.79852 0.76138 0.0
O808 O 0.31055 0.79577 0.73623 0.0
O809 O 0.29161 0.76575 0.73773 0.0
O810 O 0.27187 0.79454 0.77619 0.0
O811 O 0.26546 0.74936 0.74279 0.0
C812 C 0.32191 0.76457 0.76108 0.0
C813 C 0.3718 0.82782 0.78113 0.0
C814 C 0.40402 0.82996 0.78041 0.0
C815 C 0.38671 0.82029 0.78401 0.0
C816 C 0.40632 0.84752 0.774 0.0
C817 C 0.37425 0.84533 0.77463 0.0
C818 C 0.39147 0.8551 0.77109 0.0
C819 C 0.30492 0.79465 0.80271 0.0
C820 C 0.35388 0.81644 0.7842 0.0
C821 C 0.34282 0.85982 0.7221 0.0
C822 C 0.33467 0.87047 0.73544 0.0
C823 C 0.28261 0.80765 0.76951 0.0
C824 C 0.23476 0.73911 0.74852 0.0
C825 C 0.21763 0.74239 0.74531 0.0
C826 C 0.20177 0.72837 0.7471 0.0
C827 C 0.2034 0.71094 0.7522 0.0
C828 C 0.23605 0.72149 0.75328 0.0
C829 C 0.22043 0.70754 0.75518 0.0
C830 C 0.30043 0.77831 0.72808 0.0
C831 C 0.25099 0.7546 0.74747 0.0
H832 H 0.38481 0.80689 0.78927 0.0
H833 H 0.41954 0.8553 0.77114 0.0
H834 H 0.36294 0.85142 0.77223 0.0
H835 H 0.3933 0.86858 0.76606 0.0
H836 H 0.21672 0.75585 0.74124 0.0
H837 H 0.19154 0.69997 0.75405 0.0
H838 H 0.24903 0.71845 0.75555 0.0
H839 H 0.22154 0.69406 0.75903 0.0
Tb840 Tb 0.55565 0.0508 0.02746 0.0
C841 C 0.51995 0.08249 0.96559 0.0
C842 C 0.49583 0.05483 0.94979 0.0
C843 C 0.49283 0.08763 0.95044 0.0
C844 C 0.51296 0.0627 0.96039 0.0
C845 C 0.5102 0.09528 0.96039 0.0
C846 C 0.48564 0.0674 0.94517 0.0
C847 C 0.53601 0.12202 0.97406 0.0
N848 N 0.53674 0.08919 0.97512 0.0
C849 C 0.54514 0.1087 0.97883 0.0
C850 C 0.51837 0.1153 0.96498 0.0
Tb851 Tb 0.55044 0.06648 0.98324 0.0
N852 N 0.52331 0.05116 0.96509 0.0
C853 C 0.5178 0.03148 0.95828 0.0
C854 C 0.48969 0.03463 0.94381 0.0
C855 C 0.50085 0.02293 0.94785 0.0
H856 H 0.55874 0.11411 0.98592 0.0
H857 H 0.49641 0.0073 0.94298 0.0
H858 H 0.47239 0.06165 0.93717 0.0
H859 H 0.54259 0.13746 0.9774 0.0
H860 H 0.52611 0.0221 0.96128 0.0
H861 H 0.60831 0.10774 0.07214 0.0
H862 H 0.47659 0.02798 0.9357 0.0
H863 H 0.54792 0.00257 0.01955 0.0
H864 H 0.57952 0.09413 0.05158 0.0
H865 H 0.5639 0.97849 0.02645 0.0
H866 H 0.48503 0.09719 0.94644 0.0
H867 H 0.62722 0.08602 0.07922 0.0
H868 H 0.6316 0.05237 0.07528 0.0
H869 H 0.51134 0.12564 0.96125 0.0
H870 H 0.61956 0.01718 0.06279 0.0
N871 N 0.58232 0.06509 0.0464 0.0
C872 C 0.58765 0.0845 0.05441 0.0
C873 C 0.6147 0.08009 0.06999 0.0
C874 C 0.60885 0.06015 0.06236 0.0
C875 C 0.60401 0.09231 0.0661 0.0
C876 C 0.5923 0.05301 0.05066 0.0
H877 H 0.59425 0.98946 0.04466 0.0
N878 N 0.56919 0.02713 0.03328 0.0
C879 C 0.57017 0.99388 0.03139 0.0
C880 C 0.58552 0.03332 0.04382 0.0
C881 C 0.56112 0.00761 0.02755 0.0
C882 C 0.58731 1.00013 0.04163 0.0
C883 C 0.5951 0.02006 0.04822 0.0
O884 O 0.53663 0.0346 0.042 0.0
O885 O 0.53766 0.05192 0.00407 0.0
O886 O 0.53737 0.08358 0.00302 0.0
O887 O 0.55057 0.07996 0.03178 0.0
O888 O 0.53226 0.02694 0.0139 0.0
O889 O 0.54945 0.06515 0.05304 0.0
O890 O 0.5704 0.08153 0.96882 0.0
O891 O 0.56822 0.06625 0.00721 0.0
O892 O 0.57073 0.03637 0.00777 0.0
O893 O 0.55457 0.03691 0.97981 0.0
O894 O 0.57355 0.09086 0.99673 0.0
O895 O 0.55681 0.05118 0.95824 0.0
C896 C 0.52633 0.03568 0.00196 0.0
C897 C 0.5405 0.04553 0.075 0.0
C898 C 0.53211 0.0505 0.10698 0.0
C899 C 0.53136 0.05429 0.0887 0.0
C900 C 0.54265 0.03813 0.11146 0.0
C901 C 0.55098 0.03328 0.07964 0.0
C902 C 0.5521 0.0297 0.09788 0.0
C903 C 0.54093 0.08828 0.02159 0.0
C904 C 0.53853 0.04932 0.05598 0.0
C905 C 0.61192 0.0271 0.05933 0.0
C906 C 0.61878 0.04714 0.06642 0.0
C907 C 0.57918 0.08277 0.00943 0.0
C908 C 0.56842 0.06959 0.93616 0.0
C909 C 0.58041 0.06257 0.92478 0.0
C910 C 0.58148 0.06593 0.90641 0.0
C911 C 0.56991 0.07613 0.89943 0.0
C912 C 0.5569 0.07962 0.92908 0.0
C913 C 0.55764 0.08281 0.9107 0.0
C914 C 0.566 0.03014 0.98948 0.0
C915 C 0.56868 0.06637 0.95542 0.0
H916 H 0.52359 0.06405 0.08503 0.0
H917 H 0.54333 0.03465 0.12534 0.0
H918 H 0.55814 0.0264 0.06923 0.0
H919 H 0.5601 0.02015 0.10142 0.0
H920 H 0.58893 0.05444 0.93035 0.0
H921 H 0.57053 0.07926 0.88542 0.0
H922 H 0.5475 0.08504 0.93773 0.0
H923 H 0.54884 0.09067 0.90524 0.0
Tb924 Tb 0.29163 0.29902 0.27721 0.0
C925 C 0.22099 0.24624 0.26041 0.0
C926 C 0.21481 0.22117 0.27897 0.0
C927 C 0.19134 0.23673 0.2715 0.0
C928 C 0.22684 0.2333 0.26946 0.0
C929 C 0.20291 0.24753 0.26074 0.0
C930 C 0.19729 0.22357 0.28064 0.0
C931 C 0.20818 0.26795 0.2378 0.0
N932 N 0.23253 0.25633 0.25 0.0
C933 C 0.22596 0.2662 0.23789 0.0
C934 C 0.19676 0.25894 0.24958 0.0
Tb935 Tb 0.26184 0.25314 0.25256 0.0
N936 N 0.24363 0.23102 0.26709 0.0
C937 C 0.24818 0.21497 0.27143 0.0
C938 C 0.22033 0.20621 0.28545 0.0
C939 C 0.23692 0.20276 0.2812 0.0
H940 H 0.23408 0.27309 0.22824 0.0
H941 H 0.24098 0.19063 0.28529 0.0
H942 H 0.18796 0.21464 0.28815 0.0
H943 H 0.20328 0.27621 0.22856 0.0
H944 H 0.26087 0.21204 0.26785 0.0
H945 H 0.30519 0.36682 0.25265 0.0
H946 H 0.2115 0.19659 0.2928 0.0
H947 H 0.32204 0.27515 0.29349 0.0
H948 H 0.28675 0.33951 0.26452 0.0
H949 H 0.35392 0.27778 0.29411 0.0
H950 H 0.17752 0.23779 0.27216 0.0
H951 H 0.33747 0.36894 0.24905 0.0
H952 H 0.36432 0.35569 0.25376 0.0
H953 H 0.183 0.26013 0.2493 0.0
H954 H 0.37756 0.33182 0.26553 0.0
N955 N 0.30805 0.3255 0.26687 0.0
C956 C 0.30077 0.34008 0.26292 0.0
C957 C 0.32937 0.35678 0.25415 0.0
C958 C 0.33707 0.34258 0.25939 0.0
C959 C 0.31119 0.35566 0.25619 0.0
C960 C 0.32593 0.32698 0.26592 0.0
H961 H 0.37385 0.30298 0.28064 0.0
N962 N 0.3222 0.29909 0.27941 0.0
C963 C 0.34831 0.28795 0.288 0.0
C964 C 0.33329 0.31347 0.27254 0.0
C965 C 0.32979 0.28674 0.28765 0.0
C966 C 0.3595 0.30213 0.28034 0.0
C967 C 0.35213 0.31526 0.2727 0.0
O968 O 0.28347 0.3001 0.30447 0.0
O969 O 0.26406 0.28062 0.27155 0.0
O970 O 0.26374 0.27448 0.23414 0.0
O971 O 0.28735 0.30194 0.24782 0.0
O972 O 0.26796 0.30957 0.27121 0.0
O973 O 0.29966 0.32561 0.29699 0.0
O974 O 0.26596 0.24741 0.22384 0.0
O975 O 0.28867 0.27206 0.25759 0.0
O976 O 0.29359 0.27738 0.2939 0.0
O977 O 0.27058 0.24928 0.28093 0.0
O978 O 0.2866 0.24298 0.25456 0.0
O979 O 0.25058 0.22499 0.23624 0.0
C980 C 0.2558 0.29348 0.2699 0.0
C981 C 0.2769 0.32945 0.31711 0.0
C982 C 0.25888 0.35267 0.31509 0.0
C983 C 0.27225 0.34373 0.30847 0.0
C984 C 0.25033 0.34748 0.33065 0.0
C985 C 0.26823 0.32443 0.33268 0.0
C986 C 0.25505 0.33345 0.33942 0.0
C987 C 0.27505 0.29152 0.23373 0.0
C988 C 0.28985 0.31879 0.30942 0.0
C989 C 0.36313 0.33033 0.26557 0.0
C990 C 0.3556 0.34392 0.25886 0.0
C991 C 0.29792 0.25983 0.25653 0.0
C992 C 0.26897 0.21582 0.21318 0.0
C993 C 0.27683 0.20512 0.22409 0.0
C994 C 0.28803 0.19377 0.21628 0.0
C995 C 0.29091 0.19272 0.19724 0.0
C996 C 0.27203 0.21464 0.19421 0.0
C997 C 0.28287 0.20304 0.18627 0.0
C998 C 0.28359 0.25978 0.29434 0.0
C999 C 0.25833 0.22895 0.22156 0.0
H1000 H 0.27868 0.34764 0.29634 0.0
H1001 H 0.24013 0.3544 0.3361 0.0
H1002 H 0.27152 0.31336 0.33947 0.0
H1003 H 0.24838 0.32947 0.35139 0.0
H1004 H 0.2747 0.20604 0.2388 0.0
H1005 H 0.29931 0.18384 0.19084 0.0
H1006 H 0.26614 0.22282 0.1856 0.0
H1007 H 0.28518 0.20218 0.17161 0.0
Tb1008 Tb 0.54855 0.55343 0.03276 0.0
C1009 C 0.56544 0.49344 0.96972 0.0
C1010 C 0.54089 0.48716 0.94503 0.0
C1011 C 0.56998 0.48206 0.93718 0.0
C1012 C 0.54801 0.49355 0.96416 0.0
C1013 C 0.57662 0.48745 0.95636 0.0
C1014 C 0.55208 0.48174 0.93154 0.0
C1015 C 0.59917 0.4902 0.98207 0.0
N1016 N 0.57105 0.49802 0.98842 0.0
C1017 C 0.58743 0.49565 0.99477 0.0
C1018 C 0.59384 0.48631 0.96275 0.0
Tb1019 Tb 0.55117 0.50752 0.00833 0.0
N1020 N 0.53758 0.49835 0.97772 0.0
C1021 C 0.51943 0.49583 0.97305 0.0
C1022 C 0.52256 0.48554 0.94019 0.0
C1023 C 0.51176 0.48976 0.95429 0.0
H1024 H 0.59179 0.49836 0.00962 0.0
H1025 H 0.49746 0.4882 0.95076 0.0
H1026 H 0.54687 0.47667 0.91682 0.0
H1027 H 0.61228 0.48887 0.98722 0.0
H1028 H 0.51066 0.49878 0.98361 0.0
H1029 H 0.60365 0.5746 0.08872 0.0
H1030 H 0.51643 0.48038 0.92577 0.0
H1031 H 0.5065 0.55853 0.03301 0.0
H1032 H 0.58992 0.56499 0.05603 0.0
H1033 H 0.48584 0.5654 0.05649 0.0
H1034 H 0.57834 0.47744 0.92669 0.0
H1035 H 0.58453 0.57821 0.11479 0.0
H1036 H 0.55368 0.57826 0.12486 0.0
H1037 H 0.60287 0.48185 0.95295 0.0
H1038 H 0.52153 0.57597 0.11603 0.0
N1039 N 0.56284 0.5624 0.06295 0.0
C1040 C 0.58122 0.56643 0.06704 0.0
C1041 C 0.57832 0.57384 0.10034 0.0
C1042 C 0.55967 0.57092 0.09606 0.0
C1043 C 0.58916 0.5719 0.08571 0.0
C1044 C 0.55231 0.56534 0.07698 0.0
H1045 H 0.49618 0.57156 0.09052 0.0
N1046 N 0.52838 0.56031 0.05346 0.0
C1047 C 0.49947 0.56511 0.06107 0.0
C1048 C 0.53442 0.56434 0.07206 0.0
C1049 C 0.51128 0.56128 0.04779 0.0
C1050 C 0.50533 0.5685 0.08026 0.0
C1051 C 0.52309 0.56845 0.08599 0.0
O1052 O 0.54125 0.57789 0.02612 0.0
O1053 O 0.54554 0.53498 0.00457 0.0
O1054 O 0.57377 0.52801 -8e-05 0.0
O1055 O 0.57588 0.55466 0.02427 0.0
O1056 O 0.52687 0.55017 0.01004 0.0
O1057 O 0.56917 0.57886 0.03374 0.0
O1058 O 0.55679 0.4848 0.0202 0.0
O1059 O 0.55455 0.52638 0.03638 0.0
O1060 O 0.52771 0.53159 0.04201 0.0
O1061 O 0.52359 0.50769 0.01522 0.0
O1062 O 0.57338 0.51155 0.03068 0.0
O1063 O 0.53058 0.48157 0.00571 0.0
C1064 C 0.53164 0.53875 0.99678 0.0
C1065 C 0.56104 0.60849 0.04014 0.0
C1066 C 0.569 0.64327 0.04026 0.0
C1067 C 0.56544 0.62385 0.03057 0.0
C1068 C 0.56833 0.64712 0.05986 0.0
C1069 C 0.5603 0.6125 0.05965 0.0
C1070 C 0.56397 0.63177 0.06946 0.0
C1071 C 0.58242 0.54534 0.00999 0.0
C1072 C 0.5579 0.5886 0.02931 0.0
C1073 C 0.53004 0.57292 0.10508 0.0
C1074 C 0.54833 0.57419 0.11012 0.0
C1075 C 0.56881 0.52315 0.04392 0.0
C1076 C 0.5398 0.45284 0.00691 0.0
C1077 C 0.53781 0.43985 0.01929 0.0
C1078 C 0.53624 0.41996 0.01264 0.0
C1079 C 0.53677 0.41323 0.99331 0.0
C1080 C 0.54049 0.446 0.9877 0.0
C1081 C 0.53899 0.42624 0.98097 0.0
C1082 C 0.5178 0.51558 0.03075 0.0
C1083 C 0.54075 0.4733 0.01461 0.0
H1084 H 0.56629 0.62063 0.01551 0.0
H1085 H 0.57085 0.66193 0.06768 0.0
H1086 H 0.55699 0.60086 0.0673 0.0
H1087 H 0.56338 0.63481 0.08453 0.0
H1088 H 0.53708 0.4452 0.0341 0.0
H1089 H 0.53564 0.39799 0.98779 0.0
H1090 H 0.54206 0.45585 0.97797 0.0
H1091 H 0.53947 0.42096 0.96612 0.0
Tb1092 Tb 0.82702 0.30506 0.26539 0.0
C1093 C 0.77406 0.24579 0.29903 0.0
C1094 C 0.78364 0.2163 0.29009 0.0
C1095 C 0.7684 0.22112 0.31826 0.0
C1096 C 0.78273 0.23484 0.28721 0.0
C1097 C 0.76619 0.23877 0.31433 0.0
C1098 C 0.77712 0.20986 0.30612 0.0
C1099 C 0.75206 0.26537 0.3187 0.0
N1100 N 0.77181 0.26246 0.29437 0.0
C1101 C 0.76012 0.2717 0.30336 0.0
C1102 C 0.75547 0.24911 0.32451 0.0
Tb1103 Tb 0.78591 0.27195 0.26917 0.0
N1104 N 0.78827 0.24135 0.27161 0.0
C1105 C 0.7928 0.22893 0.25727 0.0
C1106 C 0.78988 0.20428 0.27614 0.0
C1107 C 0.79396 0.21044 0.25942 0.0
H1108 H 0.75688 0.28402 0.29897 0.0
H1109 H 0.79803 0.20101 0.24816 0.0
H1110 H 0.77795 0.1958 0.30873 0.0
H1111 H 0.74318 0.27303 0.32598 0.0
H1112 H 0.79592 0.23333 0.2442 0.0
H1113 H 0.81755 0.37564 0.29501 0.0
H1114 H 0.79072 0.18991 0.27773 0.0
H1115 H 0.84713 0.2911 0.22778 0.0
H1116 H 0.81857 0.34204 0.29505 0.0
H1117 H 0.85726 0.30361 0.19986 0.0
H1118 H 0.76267 0.2156 0.33009 0.0
H1119 H 0.8248 0.38992 0.26719 0.0
H1120 H 0.83491 0.38628 0.23463 0.0
H1121 H 0.7491 0.24417 0.3363 0.0
H1122 H 0.84524 0.3665 0.20848 0.0
N1123 N 0.82513 0.33646 0.26675 0.0
C1124 C 0.82144 0.34777 0.28253 0.0
C1125 C 0.82478 0.3749 0.26679 0.0
C1126 C 0.82941 0.36364 0.25101 0.0
C1127 C 0.82088 0.36696 0.28264 0.0
C1128 C 0.82952 0.34426 0.25147 0.0
H1129 H 0.85382 0.3357 0.19545 0.0
N1130 N 0.83711 0.31543 0.2389 0.0
C1131 C 0.85118 0.31211 0.21018 0.0
C1132 C 0.83574 0.33334 0.237 0.0
C1133 C 0.84541 0.30508 0.2261 0.0
C1134 C 0.84914 0.33018 0.20769 0.0
C1135 C 0.8417 0.34123 0.22139 0.0
O1136 O 0.8538 0.30252 0.26777 0.0
O1137 O 0.81551 0.27598 0.27157 0.0
O1138 O 0.79824 0.28165 0.29819 0.0
O1139 O 0.81991 0.30922 0.29445 0.0
O1140 O 0.83575 0.27876 0.25462 0.0
O1141 O 0.84588 0.32462 0.28687 0.0
O1142 O 0.76092 0.27628 0.25971 0.0
O1143 O 0.79772 0.30116 0.26347 0.0
O1144 O 0.81162 0.29648 0.23765 0.0
O1145 O 0.79542 0.26622 0.24125 0.0
O1146 O 0.77771 0.29864 0.28043 0.0
O1147 O 0.76775 0.24968 0.24922 0.0
C1148 C 0.82574 0.26638 0.26273 0.0
C1149 C 0.87654 0.33106 0.28035 0.0
C1150 C 0.90956 0.34031 0.28691 0.0
C1151 C 0.89247 0.32839 0.28875 0.0
C1152 C 0.91034 0.35511 0.27653 0.0
C1153 C 0.87759 0.34604 0.2703 0.0
C1154 C 0.89444 0.35798 0.2684 0.0
C1155 C 0.81044 0.29828 0.30507 0.0
C1156 C 0.85919 0.31739 0.28167 0.0
C1157 C 0.84075 0.36017 0.22036 0.0
C1158 C 0.83475 0.3714 0.23522 0.0
C1159 C 0.78807 0.31114 0.27272 0.0
C1160 C 0.73721 0.24792 0.25432 0.0
C1161 C 0.72197 0.2546 0.25032 0.0
C1162 C 0.70506 0.24604 0.25583 0.0
C1163 C 0.70365 0.23043 0.26527 0.0
C1164 C 0.73543 0.23213 0.26346 0.0
C1165 C 0.71872 0.22347 0.2689 0.0
C1166 C 0.80264 0.27834 0.2305 0.0
C1167 C 0.75499 0.25863 0.25014 0.0
H1168 H 0.89144 0.31703 0.29684 0.0
H1169 H 0.92321 0.36437 0.27451 0.0
H1170 H 0.8655 0.34847 0.26388 0.0
H1171 H 0.89519 0.36943 0.26048 0.0
H1172 H 0.72341 0.26657 0.24296 0.0
H1173 H 0.69098 0.22373 0.2701 0.0
H1174 H 0.74695 0.22664 0.26666 0.0
H1175 H 0.71749 0.21148 0.27617 0.0
Tb1176 Tb 0.05946 0.5778 0.53492 0.0
C1177 C 1.00052 0.55995 0.46748 0.0
C1178 C 0.97637 0.53393 0.47351 0.0
C1179 C 0.96945 0.55678 0.45523 0.0
C1180 C 0.99485 0.5441 0.47568 0.0
C1181 C 0.98798 0.56634 0.45687 0.0
C1182 C 0.96365 0.54059 0.46354 0.0
C1183 C 0.01313 0.59025 0.44936 0.0
N1184 N 0.01851 0.56871 0.4694 0.0
C1185 C 0.02504 0.58329 0.45997 0.0
C1186 C 0.99449 0.58188 0.44796 0.0
Tb1187 Tb 0.03691 0.55677 0.48757 0.0
N1188 N 0.00758 0.5382 0.48519 0.0
C1189 C 0.00282 0.52124 0.49169 0.0
C1190 C 0.97133 0.51717 0.48105 0.0
C1191 C 0.98465 0.51066 0.48998 0.0
H1192 H 0.0394 0.58997 0.46105 0.0
H1193 H 0.98095 0.49754 0.4956 0.0
H1194 H 0.94936 0.5331 0.46188 0.0
H1195 H 0.01834 0.60208 0.44228 0.0
H1196 H 0.0129 0.516 0.4987 0.0
H1197 H 0.11508 0.63884 0.53108 0.0
H1198 H 0.95727 0.50895 0.47973 0.0
H1199 H 0.05645 0.54202 0.55877 0.0
H1200 H 0.08396 0.61829 0.52388 0.0
H1201 H 0.07679 0.53048 0.5788 0.0
H1202 H 0.95956 0.56156 0.44727 0.0
H1203 H 0.13782 0.62917 0.55044 0.0
H1204 H 0.14532 0.60504 0.5683 0.0
H1205 H 0.9853 0.58726 0.43969 0.0
H1206 H 0.13495 0.57538 0.58107 0.0
N1207 N 0.08867 0.59673 0.5387 0.0
C1208 C 0.09362 0.61366 0.53217 0.0
C1209 C 0.12415 0.6199 0.54702 0.0
C1210 C 0.11902 0.6027 0.5538 0.0
C1211 C 0.11137 0.62542 0.53619 0.0
C1212 C 0.1009 0.59146 0.54957 0.0
H1213 H 0.10941 0.54752 0.5851 0.0
N1214 N 0.07734 0.56519 0.55308 0.0
C1215 C 0.08214 0.543 0.57268 0.0
C1216 C 0.09507 0.57502 0.55691 0.0
C1217 C 0.07062 0.54967 0.56131 0.0
C1218 C 0.10054 0.55263 0.57618 0.0
C1219 C 0.10718 0.56902 0.56847 0.0
O1220 O 0.04716 0.58075 0.55996 0.0
O1221 O 0.03438 0.56418 0.51714 0.0
O1222 O 0.02835 0.58317 0.49749 0.0
O1223 O 0.05291 0.59971 0.51995 0.0
O1224 O 0.0368 0.55672 0.54269 0.0
O1225 O 0.06092 0.60606 0.54964 0.0
O1226 O 0.0486 0.55303 0.46213 0.0
O1227 O 0.06175 0.57092 0.50534 0.0
O1228 O 0.06893 0.55223 0.52444 0.0
O1229 O 0.04425 0.53516 0.5025 0.0
O1230 O 0.06018 0.57706 0.47927 0.0
O1231 O 0.03523 0.5283 0.47355 0.0
C1232 C 0.02594 0.55402 0.52773 0.0
C1233 C 0.06184 0.60858 0.58284 0.0
C1234 C 0.0599 0.61193 0.6166 0.0
C1235 C 0.05283 0.60301 0.59797 0.0
C1236 C 0.07634 0.62647 0.62007 0.0
C1237 C 0.0784 0.62298 0.58647 0.0
C1238 C 0.0856 0.63182 0.60504 0.0
C1239 C 0.03835 0.59929 0.50876 0.0
C1240 C 0.05316 0.59964 0.56356 0.0
C1241 C 0.1254 0.57978 0.57227 0.0
C1242 C 0.1313 0.59665 0.565 0.0
C1243 C 0.07082 0.58028 0.49454 0.0
C1244 C 0.03645 0.52336 0.44062 0.0
C1245 C 0.04895 0.52003 0.42802 0.0
C1246 C 0.04315 0.50981 0.40945 0.0
C1247 C 0.02447 0.50246 0.40373 0.0
C1248 C 0.01783 0.51621 0.43477 0.0
C1249 C 0.0119 0.50571 0.41637 0.0
C1250 C 0.05964 0.53618 0.51262 0.0
C1251 C 0.04361 0.53413 0.45973 0.0
H1252 H 0.03993 0.59208 0.59522 0.0
H1253 H 0.08206 0.63353 0.63436 0.0
H1254 H 0.08571 0.62753 0.57505 0.0
H1255 H 0.09833 0.64294 0.60778 0.0
H1256 H 0.06332 0.52541 0.43277 0.0
H1257 H 0.01961 0.4946 0.38945 0.0
H1258 H 0.00797 0.51867 0.44437 0.0
H1259 H 0.99753 0.50017 0.41185 0.0
Tb1260 Tb 0.7802 0.79038 0.26602 0.0
C1261 C 0.83768 0.76345 0.30857 0.0
C1262 C 0.84581 0.7878 0.33732 0.0
C1263 C 0.84791 0.75485 0.33744 0.0
C1264 C 0.83923 0.78209 0.31802 0.0
C1265 C 0.84269 0.74976 0.31792 0.0
C1266 C 0.84944 0.77388 0.34716 0.0
C1267 C 0.83967 0.72833 0.28761 0.0
N1268 N 0.83302 0.75942 0.28971 0.0
C1269 C 0.83475 0.74243 0.27902 0.0
C1270 C 0.84325 0.73183 0.3072 0.0
Tb1271 Tb 0.82454 0.78301 0.27668 0.0
N1272 N 0.83616 0.7951 0.30777 0.0
C1273 C 0.84135 0.81456 0.31565 0.0
C1274 C 0.84954 0.8075 0.34581 0.0
C1275 C 0.84774 0.821 0.3348 0.0
H1276 H 0.83182 0.73945 0.26389 0.0
H1277 H 0.85117 0.83637 0.34105 0.0
H1278 H 0.85424 0.7779 0.36204 0.0
H1279 H 0.84057 0.71473 0.27911 0.0
H1280 H 0.83994 0.82526 0.30751 0.0
H1281 H 0.74866 0.73431 0.20516 0.0
H1282 H 0.85455 0.81252 0.36061 0.0
H1283 H 0.77818 0.83634 0.2769 0.0
H1284 H 0.76361 0.74699 0.23718 0.0
H1285 H 0.77016 0.86071 0.26063 0.0
H1286 H 0.85156 0.74446 0.34497 0.0
H1287 H 0.74246 0.75686 0.18518 0.0
H1288 H 0.7437 0.79115 0.18202 0.0
H1289 H 0.84711 0.72092 0.31381 0.0
H1290 H 0.74979 0.82578 0.19713 0.0
N1291 N 0.7667 0.77688 0.23583 0.0
C1292 C 0.76123 0.75722 0.22887 0.0
C1293 C 0.74934 0.76261 0.19929 0.0
C1294 C 0.75418 0.78261 0.20669 0.0
C1295 C 0.75271 0.74985 0.21052 0.0
C1296 C 0.76273 0.78932 0.2253 0.0
H1297 H 0.75941 0.85185 0.22659 0.0
N1298 N 0.77273 0.81396 0.25216 0.0
C1299 C 0.76904 0.84615 0.25285 0.0
C1300 C 0.766 0.80863 0.23375 0.0
C1301 C 0.77352 0.83224 0.26203 0.0
C1302 C 0.76303 0.84111 0.23363 0.0
C1303 C 0.76104 0.82202 0.22392 0.0
O1304 O 0.7627 0.80013 0.28468 0.0
O1305 O 0.80065 0.78962 0.28762 0.0
O1306 O 0.80512 0.75714 0.2829 0.0
O1307 O 0.77793 0.75942 0.268 0.0
O1308 O 0.78854 0.8121 0.29205 0.0
O1309 O 0.75508 0.77119 0.26804 0.0
O1310 O 0.84296 0.77568 0.25785 0.0
O1311 O 0.80379 0.78319 0.25509 0.0
O1312 O 0.80014 0.81431 0.25746 0.0
O1313 O 0.82621 0.81411 0.2757 0.0
O1314 O 0.81694 0.76166 0.25029 0.0
O1315 O 0.84942 0.80345 0.27648 0.0
C1316 C 0.79988 0.80443 0.29951 0.0
C1317 C 0.73133 0.78572 0.27638 0.0
C1318 C 0.70088 0.7842 0.28611 0.0
C1319 C 0.71884 0.78283 0.28984 0.0
C1320 C 0.6959 0.78892 0.2689 0.0
C1321 C 0.72581 0.7902 0.25934 0.0
C1322 C 0.70825 0.79187 0.25569 0.0
C1323 C 0.78769 0.74959 0.27627 0.0
C1324 C 0.75 0.78395 0.28011 0.0
C1325 C 0.75354 0.8157 0.205 0.0
C1326 C 0.75007 0.79599 0.19641 0.0
C1327 C 0.80481 0.76855 0.2431 0.0
C1328 C 0.87399 0.79033 0.26823 0.0
C1329 C 0.8871 0.79403 0.2555 0.0
C1330 C 0.9051 0.79311 0.26 0.0
C1331 C 0.90949 0.788 0.27718 0.0
C1332 C 0.87893 0.78546 0.28528 0.0
C1333 C 0.89652 0.7842 0.28964 0.0
C1334 C 0.81692 0.82296 0.26562 0.0
C1335 C 0.85531 0.7919 0.26393 0.0
H1336 H 0.72301 0.77918 0.30297 0.0
H1337 H 0.68242 0.79052 0.26567 0.0
H1338 H 0.73505 0.79236 0.24882 0.0
H1339 H 0.70418 0.79545 0.24251 0.0
H1340 H 0.88341 0.79799 0.24238 0.0
H1341 H 0.92301 0.78678 0.28096 0.0
H1342 H 0.86923 0.78275 0.2953 0.0
H1343 H 0.90015 0.78034 0.30281 0.0
Tb1344 Tb 0.81406 0.28633 0.74257 0.0
C1345 C 0.80214 0.33194 0.81505 0.0
C1346 C 0.81329 0.32414 0.84395 0.0
C1347 C 0.81189 0.35719 0.84356 0.0
C1348 C 0.80643 0.31848 0.82467 0.0
C1349 C 0.80451 0.35138 0.82461 0.0
C1350 C 0.8163 0.34361 0.8532 0.0
C1351 C 0.79127 0.358 0.79642 0.0
N1352 N 0.79502 0.3259 0.79665 0.0
C1353 C 0.78927 0.33871 0.78745 0.0
C1354 C 0.799 0.36439 0.81503 0.0
Tb1355 Tb 0.7919 0.29341 0.78403 0.0
N1356 N 0.80321 0.29971 0.81539 0.0
C1357 C 0.80581 0.28574 0.82507 0.0
C1358 C 0.81654 0.31002 0.85355 0.0
C1359 C 0.81262 0.29071 0.8441 0.0
H1360 H 0.78368 0.33482 0.77293 0.0
H1361 H 0.81497 0.27961 0.85142 0.0
H1362 H 0.82167 0.34822 0.86793 0.0
H1363 H 0.78691 0.36795 0.78885 0.0
H1364 H 0.80352 0.27076 0.81816 0.0
H1365 H 0.75345 0.23283 0.70629 0.0
H1366 H 0.8218 0.31382 0.86832 0.0
H1367 H 0.85719 0.28475 0.7461 0.0
H1368 H 0.77011 0.26262 0.72792 0.0
H1369 H 0.87505 0.26164 0.73525 0.0
H1370 H 0.81393 0.37209 0.85099 0.0
H1371 H 0.76941 0.20882 0.69221 0.0
H1372 H 0.79856 0.19915 0.68914 0.0
H1373 H 0.80039 0.37927 0.82205 0.0
H1374 H 0.83131 0.20624 0.69827 0.0
N1375 N 0.79611 0.25678 0.72594 0.0
C1376 C 0.77771 0.25292 0.72167 0.0
C1377 C 0.777 0.22217 0.70161 0.0
C1378 C 0.79567 0.22588 0.70623 0.0
C1379 C 0.76797 0.2357 0.70948 0.0
C1380 C 0.80492 0.24349 0.71857 0.0
H1381 H 0.85984 0.22924 0.71579 0.0
N1382 N 0.83166 0.26496 0.73475 0.0
C1383 C 0.86047 0.25737 0.73198 0.0
C1384 C 0.82329 0.24756 0.72346 0.0
C1385 C 0.85022 0.27031 0.73834 0.0
C1386 C 0.85185 0.23913 0.721 0.0
C1387 C 0.8331 0.23418 0.71626 0.0
O1388 O 0.83351 0.29525 0.72435 0.0
O1389 O 0.808 0.3075 0.76472 0.0
O1390 O 0.77659 0.30237 0.7622 0.0
O1391 O 0.78908 0.29414 0.73435 0.0
O1392 O 0.83396 0.3128 0.75736 0.0
O1393 O 0.80663 0.29834 0.72 0.0
O1394 O 0.76587 0.27502 0.77415 0.0
O1395 O 0.79581 0.27284 0.76014 0.0
O1396 O 0.83199 0.28247 0.76611 0.0
O1397 O 0.81999 0.29356 0.79374 0.0
O1398 O 0.79519 0.26453 0.7857 0.0
O1399 O 0.77111 0.29252 0.80189 0.0
C1400 C 0.82347 0.31935 0.76852 0.0
C1401 C 0.81915 0.28716 0.69298 0.0
C1402 C 0.80224 0.27842 0.66171 0.0
C1403 C 0.80619 0.2899 0.67998 0.0
C1404 C 0.81141 0.26397 0.65653 0.0
C1405 C 0.82846 0.2729 0.68743 0.0
C1406 C 0.82445 0.26128 0.66935 0.0
C1407 C 0.77653 0.30027 0.74369 0.0
C1408 C 0.82156 0.29818 0.71257 0.0
C1409 C 0.824 0.21662 0.70405 0.0
C1410 C 0.80535 0.21258 0.69887 0.0
C1411 C 0.79747 0.25933 0.7684 0.0
C1412 C 0.74972 0.26194 0.79711 0.0
C1413 C 0.75928 0.25291 0.80809 0.0
C1414 C 0.75038 0.23688 0.81539 0.0
C1415 C 0.73154 0.22939 0.81078 0.0
C1416 C 0.73097 0.25437 0.79263 0.0
C1417 C 0.72194 0.23806 0.79937 0.0
C1418 C 0.83276 0.28723 0.78483 0.0
C1419 C 0.75935 0.27895 0.78998 0.0
H1420 H 0.79933 0.30124 0.68407 0.0
H1421 H 0.80862 0.25493 0.64251 0.0
H1422 H 0.83866 0.27053 0.69705 0.0
H1423 H 0.83153 0.25019 0.66525 0.0
H1424 H 0.77372 0.25848 0.81105 0.0
H1425 H 0.72417 0.21718 0.81632 0.0
H1426 H 0.72334 0.26104 0.78395 0.0
H1427 H 0.70744 0.23229 0.79594 0.0
Tb1428 Tb 0.80404 0.81995 0.78802 0.0
C1429 C 0.74157 0.76094 0.73756 0.0
C1430 C 0.71624 0.75896 0.75617 0.0
C1431 C 0.71083 0.75305 0.72205 0.0
C1432 C 0.73506 0.76275 0.75494 0.0
C1433 C 0.72948 0.75565 0.72089 0.0
C1434 C 0.70421 0.75464 0.73967 0.0
C1435 C 0.75484 0.75372 0.70317 0.0
N1436 N 0.75969 0.76328 0.73701 0.0
C1437 C 0.76628 0.75875 0.72006 0.0
C1438 C 0.73641 0.75247 0.70356 0.0
Tb1439 Tb 0.77708 0.7723 0.76584 0.0
N1440 N 0.74707 0.76687 0.77059 0.0
C1441 C 0.74097 0.7658 0.78781 0.0
C1442 C 0.71002 0.75887 0.77387 0.0
C1443 C 0.72243 0.76203 0.78972 0.0
H1444 H 0.78038 0.75929 0.71929 0.0
H1445 H 0.71773 0.76161 0.80344 0.0
H1446 H 0.68973 0.75195 0.74036 0.0
H1447 H 0.76026 0.7507 0.68985 0.0
H1448 H 0.75027 0.76807 0.80024 0.0
H1449 H 0.79947 0.88233 0.7572 0.0
H1450 H 0.69566 0.75581 0.77538 0.0
H1451 H 0.8411 0.80737 0.80349 0.0
H1452 H 0.78816 0.85565 0.77303 0.0
H1453 H 0.8733 0.81567 0.80013 0.0
H1454 H 0.70136 0.74918 0.7094 0.0
H1455 H 0.83085 0.88936 0.74885 0.0
H1456 H 0.86122 0.88233 0.7506 0.0
H1457 H 0.72758 0.74842 0.69044 0.0
H1458 H 0.88136 0.86436 0.76248 0.0
N1459 N 0.81272 0.84632 0.7736 0.0
C1460 C 0.80191 0.8581 0.76968 0.0
C1461 C 0.82596 0.87736 0.75585 0.0
C1462 C 0.83735 0.86624 0.76092 0.0
C1463 C 0.80826 0.87345 0.76054 0.0
C1464 C 0.83033 0.85075 0.77003 0.0
H1465 H 0.88606 0.84042 0.78163 0.0
N1466 N 0.83462 0.82616 0.78595 0.0
C1467 C 0.86453 0.82259 0.7932 0.0
C1468 C 0.84162 0.84043 0.77649 0.0
C1469 C 0.84597 0.81781 0.79493 0.0
C1470 C 0.87167 0.83641 0.78268 0.0
C1471 C 0.86027 0.84565 0.77433 0.0
O1472 O 0.79475 0.82352 0.81482 0.0
O1473 O 0.77768 0.79933 0.78434 0.0
O1474 O 0.77372 0.79172 0.74656 0.0
O1475 O 0.79772 0.81972 0.7578 0.0
O1476 O 0.7786 0.82785 0.78438 0.0
O1477 O 0.81849 0.84346 0.80953 0.0
O1478 O 0.79194 0.75113 0.76498 0.0
O1479 O 0.80416 0.79158 0.77347 0.0
O1480 O 0.81019 0.797 0.80152 0.0
O1481 O 0.78158 0.77661 0.79666 0.0
O1482 O 0.7989 0.77323 0.74757 0.0
O1483 O 0.7641 0.7442 0.7696 0.0
C1484 C 0.76791 0.81076 0.78223 0.0
C1485 C 0.8002 0.85543 0.83147 0.0
C1486 C 0.78899 0.8843 0.83161 0.0
C1487 C 0.797 0.87008 0.82248 0.0
C1488 C 0.7846 0.88375 0.85011 0.0
C1489 C 0.79574 0.85518 0.84987 0.0
C1490 C 0.78804 0.86933 0.85915 0.0
C1491 C 0.7845 0.80861 0.74475 0.0
C1492 C 0.807 0.8395 0.82156 0.0
C1493 C 0.86711 0.8604 0.76448 0.0
C1494 C 0.85566 0.87063 0.75773 0.0
C1495 C 0.81092 0.78716 0.7584 0.0
C1496 C 0.77525 0.71868 0.75399 0.0
C1497 C 0.78439 0.70529 0.75863 0.0
C1498 C 0.78254 0.68744 0.74624 0.0
C1499 C 0.77142 0.68307 0.7291 0.0
C1500 C 0.76383 0.71396 0.73701 0.0
C1501 C 0.762 0.69624 0.72461 0.0
C1502 C 0.79764 0.78329 0.8066 0.0
C1503 C 0.77814 0.73751 0.76699 0.0
H1504 H 0.80074 0.87033 0.80839 0.0
H1505 H 0.77815 0.89418 0.85753 0.0
H1506 H 0.79799 0.84386 0.85695 0.0
H1507 H 0.78448 0.86897 0.87331 0.0
H1508 H 0.79323 0.70892 0.77174 0.0
H1509 H 0.76987 0.6694 0.71932 0.0
H1510 H 0.75636 0.7239 0.73334 0.0
H1511 H 0.75327 0.69271 0.71148 0.0
Tb1512 Tb 0.52998 0.5236 0.50879 0.0
C1513 C 0.58393 0.59356 0.5603 0.0
C1514 C 0.58992 0.61837 0.54165 0.0
C1515 C 0.59299 0.62772 0.57579 0.0
C1516 C 0.58421 0.59861 0.54299 0.0
C1517 C 0.58874 0.608 0.57697 0.0
C1518 C 0.59381 0.6329 0.55814 0.0
C1519 C 0.58835 0.58255 0.59439 0.0
N1520 N 0.58094 0.57443 0.5607 0.0
C1521 C 0.58413 0.56887 0.5774 0.0
C1522 C 0.59032 0.6022 0.59422 0.0
Tb1523 Tb 0.57292 0.55257 0.53236 0.0
N1524 N 0.58118 0.58406 0.52759 0.0
C1525 C 0.58542 0.58841 0.51055 0.0
C1526 C 0.59285 0.62281 0.52396 0.0
C1527 C 0.59086 0.60775 0.50839 0.0
H1528 H 0.58282 0.55377 0.57783 0.0
H1529 H 0.59368 0.611 0.49472 0.0
H1530 H 0.59841 0.64811 0.55749 0.0
H1531 H 0.5902 0.57792 0.60758 0.0
H1532 H 0.58423 0.57708 0.49831 0.0
H1533 H 0.50974 0.46727 0.54922 0.0
H1534 H 0.59757 0.63773 0.5223 0.0
H1535 H 0.52194 0.52018 0.46269 0.0
H1536 H 0.51772 0.5007 0.54404 0.0
H1537 H 0.51515 0.49461 0.43386 0.0
H1538 H 0.59667 0.63904 0.58842 0.0
H1539 H 0.50835 0.43968 0.523 0.0
H1540 H 0.50903 0.42788 0.48832 0.0
H1541 H 0.59389 0.61281 0.60735 0.0
H1542 H 0.51029 0.43536 0.45657 0.0
N1543 N 0.52169 0.49269 0.51509 0.0
C1544 C 0.51718 0.48903 0.5323 0.0
C1545 C 0.51194 0.45443 0.52059 0.0
C1546 C 0.51492 0.45811 0.50264 0.0
C1547 C 0.51262 0.46995 0.53538 0.0
C1548 C 0.51961 0.47761 0.50033 0.0
H1549 H 0.51194 0.46022 0.43605 0.0
N1550 N 0.52298 0.50061 0.48121 0.0
C1551 C 0.51665 0.49078 0.44749 0.0
C1552 C 0.52025 0.48174 0.48264 0.0
C1553 C 0.52045 0.50524 0.46392 0.0
C1554 C 0.51496 0.4714 0.44878 0.0
C1555 C 0.51635 0.46661 0.46654 0.0
O1556 O 0.50856 0.53109 0.49479 0.0
O1557 O 0.54743 0.55303 0.5181 0.0
O1558 O 0.55339 0.55786 0.55304 0.0
O1559 O 0.52757 0.53308 0.53967 0.0
O1560 O 0.53375 0.54579 0.4916 0.0
O1561 O 0.50558 0.52149 0.52102 0.0
O1562 O 0.59397 0.54273 0.54408 0.0
O1563 O 0.55535 0.52333 0.52303 0.0
O1564 O 0.55027 0.51731 0.48924 0.0
O1565 O 0.57475 0.544 0.50127 0.0
O1566 O 0.56929 0.53018 0.5493 0.0
O1567 O 0.59727 0.55592 0.51988 0.0
C1568 C 0.54461 0.55975 0.50347 0.0
C1569 C 0.47915 0.515 0.50006 0.0
C1570 C 0.44704 0.51353 0.49461 0.0
C1571 C 0.46506 0.52426 0.50061 0.0
C1572 C 0.44333 0.49331 0.48794 0.0
C1573 C 0.47526 0.49485 0.49329 0.0
C1574 C 0.4574 0.48408 0.48722 0.0
C1575 C 0.53678 0.54701 0.55411 0.0
C1576 C 0.49762 0.52668 0.50723 0.0
C1577 C 0.51307 0.4472 0.46874 0.0
C1578 C 0.51237 0.44294 0.48681 0.0
C1579 C 0.5582 0.5164 0.53748 0.0
C1580 C 0.62362 0.55865 0.53969 0.0
C1581 C 0.63701 0.54869 0.53642 0.0
C1582 C 0.65523 0.55777 0.54322 0.0
C1583 C 0.65983 0.57702 0.5536 0.0
C1584 C 0.62836 0.57788 0.54993 0.0
C1585 C 0.64643 0.58699 0.5569 0.0
C1586 C 0.56635 0.5289 0.48751 0.0
C1587 C 0.60491 0.54847 0.53209 0.0
H1588 H 0.46812 0.53981 0.50613 0.0
H1589 H 0.42959 0.48469 0.48312 0.0
H1590 H 0.48594 0.48745 0.49285 0.0
H1591 H 0.45444 0.46852 0.48202 0.0
H1592 H 0.63314 0.53373 0.5287 0.0
H1593 H 0.67378 0.58444 0.55893 0.0
H1594 H 0.61817 0.58579 0.55249 0.0
H1595 H 0.65009 0.60184 0.5648 0.0
Tb1596 Tb 0.07517 0.54567 0.01585 0.0
C1597 C 0.00635 0.49501 0.03864 0.0
C1598 C 0.99582 0.46873 0.01156 0.0
C1599 C 0.98963 0.46312 0.04282 0.0
C1600 C 0.00514 0.48818 0.01956 0.0
C1601 C 0.99827 0.48275 0.05052 0.0
C1602 C 0.98843 0.4561 0.02335 0.0
C1603 C 0.00663 0.51061 0.07632 0.0
N1604 N 0.01471 0.51405 0.04541 0.0
C1605 C 0.01435 0.52218 0.0639 0.0
C1606 C 0.99874 0.49074 0.06965 0.0
Tb1607 Tb 0.02793 0.53174 0.02433 0.0
N1608 N 0.01237 0.50092 0.00875 0.0
C1609 C 0.00944 0.49542 0.98953 0.0
C1610 C 0.99381 0.46273 0.99196 0.0
C1611 C 1.00041 0.47624 0.98089 0.0
H1612 H 0.0205 0.53749 0.06923 0.0
H1613 H 0.99862 0.47187 0.96568 0.0
H1614 H 0.98139 0.44104 0.0175 0.0
H1615 H 0.00677 0.51702 0.09102 0.0
H1616 H 0.01447 0.50553 0.98064 0.0
H1617 H 0.10838 0.60376 0.07438 0.0
H1618 H 0.98683 0.44789 0.98524 0.0
H1619 H 0.07929 0.54041 0.97011 0.0
H1620 H 0.08979 0.57124 0.05945 0.0
H1621 H 0.09281 0.56081 0.94818 0.0
H1622 H 0.98349 0.45338 0.05172 0.0
H1623 H 0.12146 0.62731 0.05479 0.0
H1624 H 0.12556 0.63464 0.02256 0.0
H1625 H 0.9927 0.48182 0.07927 0.0
H1626 H 0.12121 0.62297 0.98814 0.0
N1627 N 0.09162 0.57602 0.03137 0.0
C1628 C 0.09518 0.58122 0.05057 0.0
C1629 C 0.11301 0.61305 0.04811 0.0
C1630 C 0.1098 0.6075 0.02849 0.0
C1631 C 0.10575 0.59979 0.05919 0.0
C1632 C 0.09909 0.58859 0.02048 0.0
H1633 H 0.10917 0.59536 0.96025 0.0
N1634 N 0.08741 0.56332 0.99437 0.0
C1635 C 0.094 0.56698 0.96308 0.0
C1636 C 0.09685 0.58203 0.00125 0.0
C1637 C 0.0864 0.55545 0.97558 0.0
C1638 C 0.10318 0.58649 0.96994 0.0
C1639 C 0.10495 0.59417 0.98929 0.0
O1640 O 0.09239 0.52939 0.00354 0.0
O1641 O 0.05098 0.52231 0.01435 0.0
O1642 O 0.04282 0.52001 0.04399 0.0
O1643 O 0.07217 0.53968 0.04427 0.0
O1644 O 0.06617 0.52029 0.99253 0.0
O1645 O 0.09636 0.54167 0.03325 0.0
O1646 O 0.01037 0.54826 0.03554 0.0
O1647 O 0.05236 0.55494 0.02652 0.0
O1648 O 0.06002 0.55927 0.9983 0.0
O1649 O 0.0318 0.5373 0.99579 0.0
O1650 O 0.03648 0.55728 0.04762 0.0
O1651 O 0.00724 0.53546 0.00609 0.0
C1652 C 0.0522 0.51118 0.99923 0.0
C1653 C 0.12225 0.53736 0.01878 0.0
C1654 C 0.15148 0.5294 0.02149 0.0
C1655 C 0.13245 0.52406 0.02135 0.0
C1656 C 0.16001 0.54812 0.01874 0.0
C1657 C 0.13111 0.55591 0.0161 0.0
C1658 C 0.14987 0.56122 0.01604 0.0
C1659 C 0.05996 0.52715 0.0512 0.0
C1660 C 0.10247 0.53189 0.01937 0.0
C1661 C 0.11496 0.61335 0.99708 0.0
C1662 C 0.11742 0.61999 0.01668 0.0
C1663 C 0.05103 0.56609 0.0416 0.0
C1664 C 0.98086 0.53988 0.01929 0.0
C1665 C 0.97065 0.553 0.01602 0.0
C1666 C 0.95154 0.54732 0.01475 0.0
C1667 C 0.94292 0.52847 0.01708 0.0
C1668 C 0.97191 0.52122 0.02163 0.0
C1669 C 0.95305 0.51559 0.02057 0.0
C1670 C 0.04317 0.55172 0.99026 0.0
C1671 C 1.00073 0.54548 0.01941 0.0
H1672 H 0.12565 0.50978 0.02365 0.0
H1673 H 0.17455 0.55261 0.01851 0.0
H1674 H 0.12357 0.56631 0.01411 0.0
H1675 H 0.1566 0.57557 0.01393 0.0
H1676 H 0.97751 0.5674 0.01405 0.0
H1677 H 0.92829 0.52374 0.01639 0.0
H1678 H 0.97948 0.51095 0.0241 0.0
H1679 H 0.94625 0.50115 0.02238 0.0
H1680 H 0.99199 0.20432 0.95764 0.0
H1681 H 0.99932 0.17659 0.96796 0.0
H1682 H 0.0548 0.19746 0.95722 0.0
H1683 H 0.04706 0.22458 0.94555 0.0
H1684 H 0.04847 0.1622 0.94842 0.0
H1685 H 0.03771 0.20021 0.00469 0.0
H1686 H 0.02159 0.21899 0.02613 0.0
H1687 H 0.97758 0.16793 0.02166 0.0
H1688 H 0.99334 0.14889 0.0 0.0
H1689 H 0.04465 0.09266 0.02458 0.0
H1690 H 0.04466 0.1246 0.01725 0.0
H1691 H 0.03788 0.09902 0.95788 0.0
H1692 H 0.04046 0.06849 0.96525 0.0
H1693 H 0.0241 0.13998 0.00465 0.0
H1694 H 0.04314 0.1252 0.9286 0.0
H1695 H 0.0648 0.11138 0.91041 0.0
H1696 H 0.10203 0.12435 0.96049 0.0
H1697 H 0.08038 0.1379 0.97906 0.0
C1698 C 0.00578 0.20302 0.95743 0.0
C1699 C 0.01893 0.21683 0.95079 0.0
C1700 C 0.01005 0.18716 0.9636 0.0
C1701 C 0.02783 0.18489 0.96405 0.0
C1702 C 0.04097 0.19863 0.9572 0.0
C1703 C 0.03656 0.21425 0.95051 0.0
C1704 C 0.0325 0.16799 0.97111 0.0
C1705 C 0.04319 0.15751 0.96082 0.0
C1706 C 0.02621 0.1618 0.98761 0.0
C1707 C 0.01665 0.17317 0.0006 0.0
C1708 C 0.02454 0.19302 0.00818 0.0
C1709 C 0.01548 0.2037 0.02038 0.0
C1710 C 0.99855 0.19467 0.02522 0.0
C1711 C 0.99068 0.17491 0.01789 0.0
C1712 C 0.99968 0.16416 0.00566 0.0
C1713 C 0.0441 0.09424 0.01002 0.0
C1714 C 0.04344 0.07816 0.99556 0.0
C1715 C 0.04373 0.11248 0.00572 0.0
C1716 C 0.04188 0.11494 0.98681 0.0
C1717 C 0.0405 0.09849 0.97254 0.0
C1718 C 0.04164 0.08068 0.97683 0.0
C1719 C 0.03997 0.13397 0.98184 0.0
C1720 C 0.02965 0.1448 0.99243 0.0
C1721 C 0.04733 0.14107 0.96612 0.0
C1722 C 0.06009 0.13234 0.95523 0.0
C1723 C 0.05592 0.12501 0.93573 0.0
C1724 C 0.06815 0.11718 0.92538 0.0
C1725 C 0.08473 0.1169 0.93433 0.0
C1726 C 0.08908 0.1244 0.95365 0.0
C1727 C 0.07679 0.13202 0.96412 0.0
H1728 H 0.09422 0.11091 0.92628 0.0
H1729 H 0.99156 0.20297 0.03467 0.0
H1730 H 0.12143 0.81016 0.16716 0.0
H1731 H 0.14769 0.80937 0.18783 0.0
H1732 H 0.1835 0.83445 0.15005 0.0
H1733 H 0.15741 0.83462 0.12917 0.0
H1734 H 0.19492 0.80676 0.15881 0.0
H1735 H 0.17791 0.86004 0.19566 0.0
H1736 H 0.1576 0.87717 0.21252 0.0
H1737 H 0.14881 0.83609 0.24913 0.0
H1738 H 0.1689 0.81856 0.23233 0.0
H1739 H 0.27701 0.82365 0.21844 0.0
H1740 H 0.25127 0.82852 0.19994 0.0
H1741 H 0.21479 0.80049 0.23561 0.0
H1742 H 0.24054 0.79612 0.2544 0.0
H1743 H 0.20413 0.83035 0.22808 0.0
H1744 H 0.22159 0.777 0.18965 0.0
H1745 H 0.24386 0.76227 0.17356 0.0
H1746 H 0.25332 0.80627 0.14008 0.0
H1747 H 0.23131 0.82143 0.15617 0.0
C1748 C 0.13491 0.81579 0.16343 0.0
C1749 C 0.13722 0.82246 0.14646 0.0
C1750 C 0.15 0.81535 0.17529 0.0
C1751 C 0.1678 0.82193 0.17068 0.0
C1752 C 0.17005 0.82913 0.15401 0.0
C1753 C 0.15503 0.82934 0.14208 0.0
C1754 C 0.18406 0.82065 0.18265 0.0
C1755 C 0.19697 0.81218 0.17392 0.0
C1756 C 0.18687 0.82739 0.20248 0.0
C1757 C 0.17476 0.83787 0.2126 0.0
C1758 C 0.17153 0.85457 0.20721 0.0
C1759 C 0.16008 0.86436 0.21677 0.0
C1760 C 0.15188 0.85769 0.23185 0.0
C1761 C 0.15515 0.84123 0.23743 0.0
C1762 C 0.16658 0.83136 0.2279 0.0
C1763 C 0.26349 0.81851 0.22231 0.0
C1764 C 0.26086 0.80952 0.23793 0.0
C1765 C 0.24872 0.82126 0.21169 0.0
C1766 C 0.23088 0.81461 0.2161 0.0
C1767 C 0.22832 0.80582 0.23184 0.0
C1768 C 0.2431 0.80333 0.24262 0.0
C1769 C 0.21485 0.81644 0.20422 0.0
C1770 C 0.20201 0.82496 0.21295 0.0
C1771 C 0.21219 0.80996 0.18437 0.0
C1772 C 0.22487 0.80039 0.17417 0.0
C1773 C 0.22844 0.78353 0.17886 0.0
C1774 C 0.24104 0.77513 0.16977 0.0
C1775 C 0.25003 0.78336 0.15583 0.0
C1776 C 0.24637 0.79994 0.1509 0.0
C1777 C 0.23381 0.80842 0.15997 0.0
H1778 H 0.25981 0.77687 0.14884 0.0
H1779 H 0.14302 0.8653 0.23924 0.0
H1780 H 0.50217 0.8206 0.47315 0.0
H1781 H 0.50802 0.85584 0.48193 0.0
H1782 H 0.55235 0.86253 0.44767 0.0
H1783 H 0.54613 0.82702 0.43824 0.0
H1784 H 0.5335 0.88499 0.49953 0.0
H1785 H 0.55647 0.90286 0.42916 0.0
H1786 H 0.55247 0.88733 0.39544 0.0
H1787 H 0.50091 0.85065 0.40219 0.0
H1788 H 0.50451 0.86612 0.43587 0.0
H1789 H 0.5594 0.98815 0.51434 0.0
H1790 H 0.55821 0.95374 0.50734 0.0
H1791 H 0.51937 0.94568 0.45892 0.0
H1792 H 0.5237 0.98095 0.46419 0.0
H1793 H 0.53597 0.92316 0.44908 0.0
H1794 H 0.51257 0.93323 0.51071 0.0
H1795 H 0.51583 0.94954 0.54418 0.0
H1796 H 0.56302 0.92966 0.55511 0.0
H1797 H 0.56031 0.91346 0.52172 0.0
C1798 C 0.5133 0.82948 0.46755 0.0
C1799 C 0.52358 0.82081 0.45482 0.0
C1800 C 0.51666 0.84976 0.47266 0.0
C1801 C 0.53043 0.86206 0.46526 0.0
C1802 C 0.54135 0.85348 0.45328 0.0
C1803 C 0.53788 0.83311 0.448 0.0
C1804 C 0.53277 0.88369 0.46963 0.0
C1805 C 0.53394 0.89333 0.48848 0.0
C1806 C 0.53327 0.89474 0.45534 0.0
C1807 C 0.53087 0.88551 0.43506 0.0
C1808 C 0.54426 0.89152 0.42342 0.0
C1809 C 0.54206 0.88272 0.40432 0.0
C1810 C 0.52647 0.86796 0.3967 0.0
C1811 C 0.51301 0.86203 0.40813 0.0
C1812 C 0.51513 0.8708 0.42722 0.0
C1813 C 0.55033 0.97892 0.5025 0.0
C1814 C 0.54066 0.9871 0.49061 0.0
C1815 C 0.54946 0.95902 0.4985 0.0
C1816 C 0.53784 0.94634 0.48313 0.0
C1817 C 0.52828 0.9547 0.47108 0.0
C1818 C 0.53033 0.97489 0.47434 0.0
C1819 C 0.53616 0.92469 0.47909 0.0
C1820 C 0.53528 0.91496 0.46024 0.0
C1821 C 0.53544 0.91349 0.49341 0.0
C1822 C 0.53627 0.9222 0.51369 0.0
C1823 C 0.52358 0.93225 0.52027 0.0
C1824 C 0.52537 0.94154 0.5392 0.0
C1825 C 0.53958 0.94065 0.55172 0.0
C1826 C 0.55201 0.93034 0.5454 0.0
C1827 C 0.55035 0.92108 0.52648 0.0
H1828 H 0.54098 0.94797 0.56633 0.0
H1829 H 0.52481 0.86116 0.38192 0.0
H1830 H 0.51474 0.324 0.62882 0.0
H1831 H 0.49048 0.32105 0.6493 0.0
H1832 H 0.51995 0.29489 0.68509 0.0
H1833 H 0.54448 0.29789 0.66461 0.0
H1834 H 0.48334 0.27499 0.67733 0.0
H1835 H 0.51894 0.34087 0.69949 0.0
H1836 H 0.53475 0.37405 0.69639 0.0
H1837 H 0.48456 0.38278 0.6748 0.0
H1838 H 0.46849 0.34954 0.67753 0.0
H1839 H 0.43612 0.31491 0.76109 0.0
H1840 H 0.46013 0.31913 0.7403 0.0
H1841 H 0.42324 0.28053 0.69419 0.0
H1842 H 0.39906 0.27622 0.71507 0.0
H1843 H 0.46416 0.33285 0.70781 0.0
H1844 H 0.44837 0.25322 0.6679 0.0
H1845 H 0.43364 0.22023 0.67247 0.0
H1846 H 0.4463 0.23945 0.73239 0.0
H1847 H 0.46132 0.27246 0.72816 0.0
C1848 C 0.51616 0.31766 0.64107 0.0
C1849 C 0.53166 0.31123 0.64505 0.0
C1850 C 0.50223 0.31602 0.65281 0.0
C1851 C 0.50334 0.30782 0.66883 0.0
C1852 C 0.51874 0.30126 0.67282 0.0
C1853 C 0.53281 0.30308 0.66115 0.0
C1854 C 0.48843 0.30615 0.68133 0.0
C1855 C 0.47914 0.28765 0.68395 0.0
C1856 C 0.48293 0.32263 0.69013 0.0
C1857 C 0.49254 0.34265 0.68855 0.0
C1858 C 0.5113 0.34981 0.69394 0.0
C1859 C 0.5203 0.36864 0.69228 0.0
C1860 C 0.51068 0.3805 0.68535 0.0
C1861 C 0.49201 0.37357 0.68013 0.0
C1862 C 0.48294 0.35474 0.68176 0.0
C1863 C 0.43306 0.3074 0.74648 0.0
C1864 C 0.41567 0.29512 0.73978 0.0
C1865 C 0.4468 0.3099 0.73457 0.0
C1866 C 0.44363 0.3 0.71568 0.0
C1867 C 0.42612 0.28818 0.70875 0.0
C1868 C 0.41225 0.28584 0.72065 0.0
C1869 C 0.45888 0.30166 0.70359 0.0
C1870 C 0.46825 0.32016 0.70106 0.0
C1871 C 0.46454 0.2852 0.69499 0.0
C1872 C 0.45578 0.26535 0.69771 0.0
C1873 C 0.44806 0.25038 0.68204 0.0
C1874 C 0.43965 0.23168 0.68457 0.0
C1875 C 0.43898 0.22776 0.70271 0.0
C1876 C 0.44677 0.24252 0.71836 0.0
C1877 C 0.45521 0.26123 0.7159 0.0
H1878 H 0.43245 0.21328 0.70464 0.0
H1879 H 0.51767 0.39507 0.68407 0.0
H1880 H 0.98162 0.81758 0.62813 0.0
H1881 H 0.99148 0.84134 0.60844 0.0
H1882 H 0.04727 0.8434 0.62405 0.0
H1883 H 0.03753 0.8197 0.64404 0.0
H1884 H 0.04313 0.8796 0.62109 0.0
H1885 H 0.027 0.81525 0.58371 0.0
H1886 H 0.00794 0.78191 0.57131 0.0
H1887 H 0.96639 0.80491 0.54907 0.0
H1888 H 0.98512 0.8384 0.56152 0.0
H1889 H 0.07637 0.91562 0.54102 0.0
H1890 H 0.06856 0.89512 0.56425 0.0
H1891 H 0.01215 0.8932 0.55269 0.0
H1892 H 0.0198 0.9133 0.52912 0.0
H1893 H 0.01797 0.85694 0.55382 0.0
H1894 H 0.03605 0.92234 0.59223 0.0
H1895 H 0.05812 0.95454 0.60078 0.0
H1896 H 0.0988 0.92813 0.619 0.0
H1897 H 0.07701 0.89572 0.61038 0.0
C1898 C 0.99601 0.82327 0.62762 0.0
C1899 C 0.00878 0.81656 0.63747 0.0
C1900 C 1.00162 0.83683 0.61632 0.0
C1901 C 0.02008 0.84384 0.61451 0.0
C1902 C 0.03295 0.8381 0.6252 0.0
C1903 C 0.02735 0.82453 0.63658 0.0
C1904 C 0.02572 0.85602 0.60043 0.0
C1905 C 0.03774 0.87458 0.60637 0.0
C1906 C 0.01874 0.84947 0.5812 0.0
C1907 C 0.00738 0.82934 0.57373 0.0
C1908 C 0.01373 0.8132 0.57632 0.0
C1909 C 0.00301 0.79427 0.56925 0.0
C1910 C 0.98594 0.7913 0.55947 0.0
C1911 C 0.9796 0.80724 0.55668 0.0
C1912 C 0.99027 0.8262 0.56372 0.0
C1913 C 0.0623 0.91073 0.54335 0.0
C1914 C 0.0487 0.91611 0.53328 0.0
C1915 C 0.05787 0.89916 0.55672 0.0
C1916 C 0.03979 0.89281 0.56029 0.0
C1917 C 0.02618 0.89802 0.55017 0.0
C1918 C 0.0306 0.90963 0.53684 0.0
C1919 C 0.03501 0.88062 0.57452 0.0
C1920 C 0.02323 0.86199 0.56857 0.0
C1921 C 0.04243 0.887 0.59362 0.0
C1922 C 0.05497 0.9066 0.60048 0.0
C1923 C 0.04969 0.92341 0.59811 0.0
C1924 C 0.06216 0.94168 0.6029 0.0
C1925 C 0.07991 0.94332 0.61015 0.0
C1926 C 0.08508 0.92678 0.61319 0.0
C1927 C 0.07267 0.90847 0.60842 0.0
H1928 H 0.08965 0.95741 0.61349 0.0
H1929 H 0.97766 0.77665 0.55401 0.0
H1930 H 0.50965 0.76691 0.87768 0.0
H1931 H 0.48467 0.76438 0.85401 0.0
H1932 H 0.52209 0.79689 0.82197 0.0
H1933 H 0.54716 0.79875 0.84521 0.0
H1934 H 0.47551 0.7953 0.85079 0.0
H1935 H 0.50356 0.79329 0.77762 0.0
H1936 H 0.52259 0.77616 0.75859 0.0
H1937 H 0.5094 0.72901 0.78804 0.0
H1938 H 0.49008 0.7457 0.80707 0.0
H1939 H 0.43711 0.84962 0.79926 0.0
H1940 H 0.46086 0.83561 0.81021 0.0
H1941 H 0.4297 0.77827 0.78188 0.0
H1942 H 0.40591 0.79221 0.77069 0.0
H1943 H 0.46933 0.78588 0.78106 0.0
H1944 H 0.42378 0.78777 0.8234 0.0
H1945 H 0.40345 0.80316 0.8422 0.0
H1946 H 0.44945 0.84573 0.87441 0.0
H1947 H 0.47004 0.83081 0.85553 0.0
C1948 C 0.51262 0.77285 0.8652 0.0
C1949 C 0.53028 0.78327 0.86339 0.0
C1950 C 0.49834 0.77144 0.8517 0.0
C1951 C 0.50143 0.78064 0.83631 0.0
C1952 C 0.51933 0.78946 0.83358 0.0
C1953 C 0.53369 0.79058 0.84694 0.0
C1954 C 0.486 0.78419 0.82535 0.0
C1955 C 0.47409 0.79294 0.83553 0.0
C1956 C 0.484 0.78109 0.80542 0.0
C1957 C 0.49545 0.77084 0.79388 0.0
C1958 C 0.50463 0.77922 0.77998 0.0
C1959 C 0.51549 0.76959 0.7692 0.0
C1960 C 0.51724 0.75153 0.77213 0.0
C1961 C 0.50809 0.74304 0.78583 0.0
C1962 C 0.4972 0.75259 0.79664 0.0
C1963 C 0.43556 0.83412 0.7949 0.0
C1964 C 0.41961 0.82198 0.7843 0.0
C1965 C 0.44909 0.82613 0.8012 0.0
C1966 C 0.44691 0.80593 0.79692 0.0
C1967 C 0.43161 0.7939 0.78525 0.0
C1968 C 0.418 0.80187 0.77904 0.0
C1969 C 0.45947 0.79733 0.80666 0.0
C1970 C 0.47074 0.78781 0.7963 0.0
C1971 C 0.46076 0.79934 0.82644 0.0
C1972 C 0.44843 0.80826 0.83795 0.0
C1973 C 0.42954 0.80051 0.83438 0.0
C1974 C 0.41798 0.80913 0.84507 0.0
C1975 C 0.42516 0.82542 0.85948 0.0
C1976 C 0.44391 0.83312 0.86323 0.0
C1977 C 0.45553 0.82458 0.85255 0.0
H1978 H 0.4162 0.83207 0.86777 0.0
H1979 H 0.52566 0.74411 0.76378 0.0
H1980 H 0.507 0.23618 0.12133 0.0
H1981 H 0.51013 0.21116 0.09512 0.0
H1982 H 0.47956 0.16652 0.12142 0.0
H1983 H 0.47667 0.19136 0.14779 0.0
H1984 H 0.51168 0.16085 0.1145 0.0
H1985 H 0.46296 0.17487 0.07941 0.0
H1986 H 0.4469 0.19598 0.06613 0.0
H1987 H 0.49134 0.21422 0.03451 0.0
H1988 H 0.50776 0.19336 0.04776 0.0
H1989 H 0.51736 0.08133 0.04696 0.0
H1990 H 0.50387 0.10465 0.06587 0.0
H1991 H 0.53212 0.14988 0.03866 0.0
H1992 H 0.54485 0.12613 0.019 0.0
H1993 H 0.49993 0.15489 0.04545 0.0
H1994 H 0.54882 0.14127 0.08074 0.0
H1995 H 0.56509 0.12033 0.09401 0.0
H1996 H 0.52142 0.10304 0.12683 0.0
H1997 H 0.50447 0.12306 0.11307 0.0
C1998 C 0.50057 0.22107 0.1213 0.0
C1999 C 0.49183 0.21571 0.13675 0.0
C2000 C 0.50232 0.20678 0.10628 0.0
C2001 C 0.49513 0.18698 0.10638 0.0
C2002 C 0.4853 0.18172 0.12114 0.0
C2003 C 0.48366 0.19594 0.1362 0.0
C2004 C 0.49976 0.17174 0.09247 0.0
C2005 C 0.50878 0.15928 0.09939 0.0
C2006 C 0.49656 0.17023 0.0728 0.0
C2007 C 0.48666 0.18267 0.0647 0.0
C2008 C 0.46937 0.18348 0.06972 0.0
C2009 C 0.46018 0.19538 0.06218 0.0
C2010 C 0.46811 0.20646 0.04952 0.0
C2011 C 0.48522 0.20563 0.04433 0.0
C2012 C 0.49446 0.19374 0.05182 0.0
C2013 C 0.52051 0.09624 0.04498 0.0
C2014 C 0.53228 0.10221 0.0319 0.0
C2015 C 0.51282 0.10952 0.05571 0.0
C2016 C 0.51737 0.12912 0.05402 0.0
C2017 C 0.52851 0.13485 0.04026 0.0
C2018 C 0.53583 0.12139 0.02913 0.0
C2019 C 0.51163 0.14384 0.06752 0.0
C2020 C 0.50261 0.15632 0.06056 0.0
C2021 C 0.51494 0.1455 0.08724 0.0
C2022 C 0.52525 0.13351 0.09565 0.0
C2023 C 0.54256 0.1328 0.0906 0.0
C2024 C 0.55188 0.12101 0.09816 0.0
C2025 C 0.5442 0.11018 0.11111 0.0
C2026 C 0.52723 0.11118 0.11659 0.0
C2027 C 0.51774 0.12271 0.10887 0.0
H2028 H 0.55144 0.1011 0.11699 0.0
H2029 H 0.46099 0.21568 0.0437 0.0
H2030 H 0.14598 0.31489 0.38778 0.0
H2031 H 0.16826 0.3099 0.36601 0.0
H2032 H 0.14111 0.333 0.32527 0.0
H2033 H 0.11866 0.338 0.34697 0.0
H2034 H 0.14882 0.3002 0.30884 0.0
H2035 H 0.18114 0.35973 0.348 0.0
H2036 H 0.1946 0.38403 0.37692 0.0
H2037 H 0.22742 0.34743 0.39173 0.0
H2038 H 0.21397 0.32277 0.36301 0.0
H2039 H 0.23407 0.31559 0.26103 0.0
H2040 H 0.20769 0.3213 0.27636 0.0
H2041 H 0.21247 0.27991 0.31101 0.0
H2042 H 0.23925 0.27462 0.29612 0.0
H2043 H 0.21499 0.32394 0.32766 0.0
H2044 H 0.15627 0.26227 0.29273 0.0
H2045 H 0.14024 0.243 0.2621 0.0
H2046 H 0.15982 0.29172 0.23594 0.0
H2047 H 0.17568 0.31128 0.26647 0.0
C2048 C 0.14475 0.31898 0.37422 0.0
C2049 C 0.13052 0.32683 0.36911 0.0
C2050 C 0.15758 0.31622 0.36183 0.0
C2051 C 0.15644 0.32123 0.34407 0.0
C2052 C 0.14225 0.32906 0.33891 0.0
C2053 C 0.12946 0.33194 0.35135 0.0
C2054 C 0.16972 0.31758 0.33072 0.0
C2055 C 0.16332 0.30562 0.31291 0.0
C2056 C 0.18863 0.32481 0.33585 0.0
C2057 C 0.19635 0.33927 0.35347 0.0
C2058 C 0.19104 0.35673 0.35755 0.0
C2059 C 0.19872 0.37061 0.37387 0.0
C2060 C 0.2118 0.36724 0.3862 0.0
C2061 C 0.21725 0.34999 0.3822 0.0
C2062 C 0.2096 0.33606 0.3659 0.0
C2063 C 0.22911 0.30729 0.27153 0.0
C2064 C 0.23828 0.2942 0.27698 0.0
C2065 C 0.21395 0.3104 0.28011 0.0
C2066 C 0.20771 0.30048 0.29431 0.0
C2067 C 0.21675 0.28725 0.29967 0.0
C2068 C 0.23201 0.28423 0.29117 0.0
C2069 C 0.19414 0.30654 0.30598 0.0
C2070 C 0.20053 0.3188 0.32359 0.0
C2071 C 0.17531 0.30026 0.30036 0.0
C2072 C 0.16756 0.28801 0.28172 0.0
C2073 C 0.15733 0.26874 0.28036 0.0
C2074 C 0.14812 0.25784 0.26307 0.0
C2075 C 0.14899 0.26614 0.24708 0.0
C2076 C 0.1592 0.28529 0.24832 0.0
C2077 C 0.1684 0.29624 0.26559 0.0
H2078 H 0.14182 0.2577 0.23372 0.0
H2079 H 0.21775 0.37801 0.39881 0.0
H2080 H 0.95602 0.02909 0.20429 0.0
H2081 H 0.96808 0.02859 0.17401 0.0
H2082 H 0.98639 0.09121 0.18683 0.0
H2083 H 0.97325 0.0917 0.21719 0.0
H2084 H 0.97903 0.08221 0.15072 0.0
H2085 H 0.01549 0.05627 0.18917 0.0
H2086 H 0.02259 0.03506 0.21 0.0
H2087 H 0.99911 0.98459 0.16657 0.0
H2088 H 0.99165 0.00548 0.14555 0.0
H2089 H 0.04067 0.07944 0.07736 0.0
H2090 H 0.02765 0.0836 0.10758 0.0
H2091 H 0.99813 0.02317 0.09461 0.0
H2092 H 0.01077 0.01906 0.0644 0.0
H2093 H 0.01294 0.03294 0.13141 0.0
H2094 H 0.97684 0.06051 0.09312 0.0
H2095 H 0.9716 0.08286 0.07271 0.0
H2096 H 0.99743 0.13199 0.11675 0.0
H2097 H 0.00302 0.10991 0.13736 0.0
C2098 C 0.96238 0.0429 0.2007 0.0
C2099 C 0.96338 0.06043 0.2136 0.0
C2100 C 0.96966 0.04259 0.18321 0.0
C2101 C 0.97906 0.05978 0.17772 0.0
C2102 C 0.97952 0.0775 0.19027 0.0
C2103 C 0.97184 0.07784 0.20781 0.0
C2104 C 0.98834 0.05892 0.15924 0.0
C2105 C 0.98666 0.07157 0.14683 0.0
C2106 C 0.9984 0.04506 0.15328 0.0
C2107 C 0.00286 0.03243 0.16585 0.0
C2108 C 0.01173 0.04064 0.18411 0.0
C2109 C 0.01584 0.02868 0.19594 0.0
C2110 C 0.01126 0.00849 0.18963 0.0
C2111 C 0.00262 1.00022 0.17145 0.0
C2112 C 0.99846 0.01212 0.15956 0.0
C2113 C 0.03137 0.06698 0.08083 0.0
C2114 C 0.02696 0.04885 0.06795 0.0
C2115 C 0.02377 0.06941 0.09829 0.0
C2116 C 0.01158 0.05377 0.10389 0.0
C2117 C 0.00736 0.03566 0.09111 0.0
C2118 C 0.01467 0.03331 0.07355 0.0
C2119 C 0.00342 0.05602 0.12291 0.0
C2120 C 0.00534 0.0436 0.1354 0.0
C2121 C 0.99389 0.07028 0.12902 0.0
C2122 C 0.99052 0.08356 0.1167 0.0
C2123 C 0.98154 0.07608 0.0984 0.0
C2124 C 0.97847 0.0887 0.08681 0.0
C2125 C 0.98423 0.10883 0.09341 0.0
C2126 C 0.99301 0.11639 0.11164 0.0
C2127 C 0.99611 0.10383 0.12329 0.0
H2128 H 0.98185 0.11858 0.08442 0.0
H2129 H 0.01445 0.99925 0.19882 0.0
H2130 H 0.31847 0.66615 0.44971 0.0
H2131 H 0.31784 0.66676 0.41579 0.0
H2132 H 0.26602 0.68029 0.41671 0.0
H2133 H 0.26658 0.6799 0.44996 0.0
H2134 H 0.26792 0.65228 0.38481 0.0
H2135 H 0.30337 0.71804 0.42219 0.0
H2136 H 0.32994 0.73621 0.44498 0.0
H2137 H 0.36489 0.7124 0.40894 0.0
H2138 H 0.33844 0.69399 0.38602 0.0
H2139 H 0.23698 0.71983 0.3476 0.0
H2140 H 0.24942 0.69936 0.36491 0.0
H2141 H 0.29673 0.70816 0.33481 0.0
H2142 H 0.28428 0.72914 0.31747 0.0
H2143 H 0.30631 0.71303 0.37096 0.0
H2144 H 0.26355 0.66377 0.3272 0.0
H2145 H 0.23413 0.64737 0.30854 0.0
H2146 H 0.20949 0.63983 0.35906 0.0
H2147 H 0.23847 0.65693 0.37816 0.0
C2148 C 0.30694 0.66913 0.44255 0.0
C2149 C 0.2927 0.67324 0.45254 0.0
C2150 C 0.30656 0.66935 0.42323 0.0
C2151 C 0.29178 0.67336 0.41375 0.0
C2152 C 0.27743 0.67689 0.42368 0.0
C2153 C 0.2779 0.67692 0.4428 0.0
C2154 C 0.29149 0.67618 0.39408 0.0
C2155 C 0.27641 0.66532 0.3814 0.0
C2156 C 0.30309 0.6927 0.38948 0.0
C2157 C 0.31902 0.70466 0.40252 0.0
C2158 C 0.31676 0.7168 0.41913 0.0
C2159 C 0.33175 0.72705 0.43208 0.0
C2160 C 0.34907 0.72535 0.42847 0.0
C2161 C 0.35145 0.71361 0.41176 0.0
C2162 C 0.33648 0.70329 0.39878 0.0
C2163 C 0.24987 0.71711 0.34438 0.0
C2164 C 0.25959 0.72592 0.3311 0.0
C2165 C 0.25694 0.70529 0.3542 0.0
C2166 C 0.27376 0.70167 0.35073 0.0
C2167 C 0.28359 0.71047 0.33747 0.0
C2168 C 0.27653 0.72251 0.32768 0.0
C2169 C 0.28151 0.69021 0.36245 0.0
C2170 C 0.29816 0.69936 0.37348 0.0
C2171 C 0.27097 0.67226 0.36574 0.0
C2172 C 0.25344 0.66152 0.35417 0.0
C2173 C 0.25193 0.65862 0.33438 0.0
C2174 C 0.23528 0.64922 0.3237 0.0
C2175 C 0.22003 0.64236 0.33257 0.0
C2176 C 0.22135 0.64503 0.35218 0.0
C2177 C 0.23791 0.65461 0.36296 0.0
H2178 H 0.20716 0.63506 0.32425 0.0
H2179 H 0.36064 0.73315 0.43861 0.0
H2180 H 0.62627 0.00872 0.68909 0.0
H2181 H 0.60703 0.99493 0.6595 0.0
H2182 H 0.65235 0.98041 0.63328 0.0
H2183 H 0.67183 0.99441 0.66318 0.0
H2184 H 0.63924 0.00453 0.61648 0.0
H2185 H 0.61318 0.94451 0.63279 0.0
H2186 H 0.59961 0.92172 0.65263 0.0
H2187 H 0.55398 0.94631 0.65628 0.0
H2188 H 0.56737 0.96947 0.63671 0.0
H2189 H 0.58409 1.00241 0.53666 0.0
H2190 H 0.59941 0.98704 0.55745 0.0
H2191 H 0.56481 0.99956 0.60022 0.0
H2192 H 0.54838 0.01351 0.57863 0.0
H2193 H 0.57468 0.9671 0.60322 0.0
H2194 H 0.60568 0.03238 0.59487 0.0
H2195 H 0.61871 0.05535 0.5749 0.0
H2196 H 0.65565 0.02113 0.55763 0.0
H2197 H 0.64247 0.99768 0.57701 0.0
C2198 C 0.632 1.00198 0.67719 0.0
C2199 C 0.65056 0.00286 0.67829 0.0
C2200 C 0.62093 0.99391 0.66029 0.0
C2201 C 0.62822 0.9866 0.64413 0.0
C2202 C 0.64644 0.9859 0.64561 0.0
C2203 C 0.65754 0.99386 0.66268 0.0
C2204 C 0.61784 0.98376 0.62548 0.0
C2205 C 0.6253 0.99581 0.61328 0.0
C2206 C 0.59954 0.97271 0.62147 0.0
C2207 C 0.59134 0.95879 0.63327 0.0
C2208 C 0.60031 0.94516 0.63791 0.0
C2209 C 0.59263 0.93215 0.6491 0.0
C2210 C 0.57595 0.93257 0.65571 0.0
C2211 C 0.56689 0.94599 0.65113 0.0
C2212 C 0.57451 0.95904 0.63994 0.0
C2213 C 0.5794 1.00138 0.55028 0.0
C2214 C 0.56513 0.00923 0.55615 0.0
C2215 C 0.58818 0.9926 0.56217 0.0
C2216 C 0.58361 0.99264 0.58058 0.0
C2217 C 0.56861 0.99942 0.58607 0.0
C2218 C 0.5593 0.00751 0.57382 0.0
C2219 C 0.59595 0.98846 0.59488 0.0
C2220 C 0.58881 0.97523 0.60618 0.0
C2221 C 0.61457 0.99857 0.59825 0.0
C2222 C 0.62296 0.01316 0.58722 0.0
C2223 C 0.61654 0.02973 0.58675 0.0
C2224 C 0.62391 0.0428 0.57546 0.0
C2225 C 0.63793 0.03964 0.56488 0.0
C2226 C 0.6447 0.02349 0.56567 0.0
C2227 C 0.63727 0.01029 0.57678 0.0
H2228 H 0.6436 0.04973 0.55611 0.0
H2229 H 0.57003 0.92249 0.66438 0.0
H2230 H 0.28499 0.36712 0.96888 0.0
H2231 H 0.28363 0.35578 0.93468 0.0
H2232 H 0.30772 0.30983 0.94411 0.0
H2233 H 0.30908 0.32089 0.978 0.0
H2234 H 0.32646 0.33248 0.92178 0.0
H2235 H 0.26433 0.29867 0.92497 0.0
H2236 H 0.23309 0.29615 0.93295 0.0
H2237 H 0.22715 0.33691 0.89827 0.0
H2238 H 0.25839 0.33976 0.89016 0.0
H2239 H 0.29999 0.27736 0.81984 0.0
H2240 H 0.30216 0.28405 0.8546 0.0
H2241 H 0.30727 0.34483 0.85513 0.0
H2242 H 0.30584 0.33841 0.8208 0.0
H2243 H 0.27412 0.3131 0.8724 0.0
H2244 H 0.33662 0.35225 0.87459 0.0
H2245 H 0.3693 0.36043 0.87129 0.0
H2246 H 0.37536 0.31384 0.89826 0.0
H2247 H 0.34257 0.30514 0.90132 0.0
C2248 C 0.28962 0.35434 0.96365 0.0
C2249 C 0.29732 0.34507 0.97623 0.0
C2250 C 0.28882 0.34786 0.9441 0.0
C2251 C 0.29566 0.33199 0.93683 0.0
C2252 C 0.30246 0.32215 0.94937 0.0
C2253 C 0.30321 0.32854 0.9688 0.0
C2254 C 0.29749 0.32672 0.91639 0.0
C2255 C 0.31496 0.32791 0.911 0.0
C2256 C 0.28256 0.32133 0.90231 0.0
C2257 C 0.26376 0.31956 0.9071 0.0
C2258 C 0.2564 0.3072 0.91916 0.0
C2259 C 0.23868 0.30568 0.92367 0.0
C2260 C 0.22816 0.31642 0.91617 0.0
C2261 C 0.23532 0.32862 0.90408 0.0
C2262 C 0.25301 0.33016 0.89949 0.0
C2263 C 0.3023 0.29222 0.82748 0.0
C2264 C 0.30313 0.30745 0.8177 0.0
C2265 C 0.30346 0.29603 0.84728 0.0
C2266 C 0.30522 0.31502 0.85745 0.0
C2267 C 0.3064 0.33019 0.84764 0.0
C2268 C 0.30547 0.32647 0.82802 0.0
C2269 C 0.30311 0.31874 0.87786 0.0
C2270 C 0.28557 0.31733 0.88322 0.0
C2271 C 0.31801 0.32431 0.89196 0.0
C2272 C 0.33704 0.32767 0.88764 0.0
C2273 C 0.34479 0.34335 0.87925 0.0
C2274 C 0.36339 0.34826 0.87767 0.0
C2275 C 0.37441 0.33767 0.88457 0.0
C2276 C 0.36682 0.32203 0.89291 0.0
C2277 C 0.34821 0.31703 0.89446 0.0
H2278 H 0.38882 0.34155 0.8834 0.0
H2279 H 0.21444 0.31521 0.91967 0.0
H2280 H 0.99636 0.06038 0.31602 0.0
H2281 H 0.00799 0.0572 0.34692 0.0
H2282 H 0.95866 0.0648 0.36883 0.0
H2283 H 0.94701 0.06851 0.33754 0.0
H2284 H 0.98454 0.08064 0.39661 0.0
H2285 H 0.97067 0.01786 0.35656 0.0
H2286 H 0.97129 0.99313 0.32853 0.0
H2287 H 0.02897 0.00432 0.34041 0.0
H2288 H 0.02872 0.02931 0.36839 0.0
H2289 H 0.99712 0.03913 0.47745 0.0
H2290 H 0.98695 0.04456 0.44678 0.0
H2291 H 0.04013 0.04729 0.42949 0.0
H2292 H 0.05058 0.04232 0.46077 0.0
H2293 H 0.01261 0.02616 0.39965 0.0
H2294 H 0.02574 0.08859 0.44063 0.0
H2295 H 0.02416 0.11216 0.46921 0.0
H2296 H 0.96656 0.1002 0.45599 0.0
H2297 H 0.96776 0.07633 0.42745 0.0
C2298 C 0.9879 0.06169 0.32737 0.0
C2299 C 0.97057 0.06488 0.32376 0.0
C2300 C 0.9946 0.05956 0.3453 0.0
C2301 C 0.98426 0.06005 0.36076 0.0
C2302 C 0.96719 0.0641 0.35751 0.0
C2303 C 0.96048 0.06641 0.33942 0.0
C2304 C 0.99127 0.05614 0.37986 0.0
C2305 C 0.99041 0.06851 0.39708 0.0
C2306 C 0.99948 0.04059 0.38127 0.0
C2307 C 0.9997 0.02561 0.36445 0.0
C2308 C 0.9835 0.01515 0.35312 0.0
C2309 C 0.98379 1.00107 0.33725 0.0
C2310 C 1.00017 0.9972 0.33266 0.0
C2311 C 0.0163 0.00736 0.34396 0.0
C2312 C 0.01609 0.02148 0.35983 0.0
C2313 C 0.00676 0.04075 0.46716 0.0
C2314 C 0.02469 0.03978 0.47187 0.0
C2315 C 1.00086 0.04399 0.44942 0.0
C2316 C 0.01257 0.04656 0.43528 0.0
C2317 C 0.03054 0.04539 0.43978 0.0
C2318 C 0.03657 0.04237 0.4578 0.0
C2319 C 0.00592 0.05069 0.41625 0.0
C2320 C 0.00679 0.03832 0.39909 0.0
C2321 C 0.99759 0.06611 0.41492 0.0
C2322 C 0.99682 0.08053 0.43198 0.0
C2323 C 0.01271 0.09087 0.44389 0.0
C2324 C 0.01189 0.1043 0.46007 0.0
C2325 C 0.99526 0.10764 0.46443 0.0
C2326 C 0.97943 0.09758 0.4526 0.0
C2327 C 0.98017 0.08411 0.4364 0.0
H2328 H 0.99465 0.11804 0.47697 0.0
H2329 H 1.00036 0.98629 0.32037 0.0
H2330 H 0.3107 0.73398 0.5506 0.0
H2331 H 0.31358 0.75046 0.58343 0.0
H2332 H 0.32425 0.70024 0.60129 0.0
H2333 H 0.32103 0.6833 0.56825 0.0
H2334 H 0.28782 0.73058 0.60671 0.0
H2335 H 0.35252 0.72409 0.6467 0.0
H2336 H 0.38377 0.72307 0.6411 0.0
H2337 H 0.38267 0.75662 0.59811 0.0
H2338 H 0.35154 0.75808 0.60364 0.0
H2339 H 0.28656 0.7415 0.70696 0.0
H2340 H 0.29111 0.72954 0.67439 0.0
H2341 H 0.32089 0.78734 0.67057 0.0
H2342 H 0.31568 0.79967 0.70282 0.0
H2343 H 0.33834 0.75443 0.65834 0.0
H2344 H 0.28333 0.77531 0.64946 0.0
H2345 H 0.25211 0.77607 0.65535 0.0
H2346 H 0.23394 0.71413 0.63561 0.0
H2347 H 0.26513 0.71299 0.62986 0.0
C2348 C 0.31415 0.72656 0.56144 0.0
C2349 C 0.31531 0.70718 0.55683 0.0
C2350 C 0.31577 0.73603 0.5802 0.0
C2351 C 0.31888 0.72645 0.59469 0.0
C2352 C 0.32184 0.70783 0.59021 0.0
C2353 C 0.32007 0.69821 0.57135 0.0
C2354 C 0.31642 0.73487 0.61416 0.0
C2355 C 0.29888 0.7358 0.618 0.0
C2356 C 0.33085 0.74161 0.6288 0.0
C2357 C 0.34961 0.74097 0.62543 0.0
C2358 C 0.35897 0.73128 0.63608 0.0
C2359 C 0.37666 0.73063 0.63292 0.0
C2360 C 0.38517 0.7397 0.61921 0.0
C2361 C 0.37603 0.74951 0.60866 0.0
C2362 C 0.35834 0.75021 0.61178 0.0
C2363 C 0.29393 0.75175 0.6992 0.0
C2364 C 0.30117 0.77149 0.70772 0.0
C2365 C 0.29659 0.74485 0.68062 0.0
C2366 C 0.30662 0.75752 0.6703 0.0
C2367 C 0.3134 0.7773 0.67849 0.0
C2368 C 0.31044 0.78429 0.69694 0.0
C2369 C 0.30977 0.75012 0.6508 0.0
C2370 C 0.32734 0.74922 0.64701 0.0
C2371 C 0.29537 0.74334 0.63614 0.0
C2372 C 0.27659 0.74404 0.63941 0.0
C2373 C 0.27271 0.76184 0.64653 0.0
C2374 C 0.25501 0.76234 0.64981 0.0
C2375 C 0.24106 0.74515 0.64591 0.0
C2376 C 0.24477 0.72743 0.63865 0.0
C2377 C 0.26245 0.72685 0.63536 0.0
H2378 H 0.22737 0.74557 0.64846 0.0
H2379 H 0.39886 0.73918 0.61678 0.0
H2380 H 0.68351 0.01651 0.77881 0.0
H2381 H 0.67453 0.01575 0.81067 0.0
H2382 H 0.65744 0.06842 0.81106 0.0
H2383 H 0.66642 0.0694 0.77975 0.0
H2384 H 0.67369 0.06868 0.84513 0.0
H2385 H 0.62714 0.02256 0.79598 0.0
H2386 H 0.61778 0.99317 0.77064 0.0
H2387 H 0.63351 0.95904 0.80815 0.0
H2388 H 0.64305 0.9883 0.83367 0.0
H2389 H 0.57726 0.05086 0.86852 0.0
H2390 H 0.59996 0.04174 0.84926 0.0
H2391 H 0.63831 0.05491 0.89891 0.0
H2392 H 0.61612 0.06539 0.91811 0.0
H2393 H 0.61901 0.01566 0.84676 0.0
H2394 H 0.68069 0.07319 0.88623 0.0
H2395 H 0.68892 0.10443 0.9092 0.0
H2396 H 0.64095 0.11826 0.88841 0.0
H2397 H 0.63262 0.08725 0.86511 0.0
C2398 C 0.67808 0.02806 0.78586 0.0
C2399 C 0.6754 0.04286 0.77668 0.0
C2400 C 0.673 0.02761 0.80403 0.0
C2401 C 0.66526 0.042 0.81317 0.0
C2402 C 0.66349 0.05724 0.80433 0.0
C2403 C 0.66847 0.05767 0.78631 0.0
C2404 C 0.65702 0.04057 0.83092 0.0
C2405 C 0.66202 0.05685 0.84579 0.0
C2406 C 0.64188 0.02511 0.83181 0.0
C2407 C 0.63593 0.00756 0.81661 0.0
C2408 C 0.62863 0.00878 0.79877 0.0
C2409 C 0.6233 0.99216 0.78439 0.0
C2410 C 0.62509 0.97425 0.78777 0.0
C2411 C 0.63216 0.97292 0.80555 0.0
C2412 C 0.63751 0.9895 0.81997 0.0
C2413 C 0.59056 0.05201 0.87534 0.0
C2414 C 0.59489 0.05913 0.89483 0.0
C2415 C 0.60345 0.04646 0.86436 0.0
C2416 C 0.62088 0.04777 0.87263 0.0
C2417 C 0.62501 0.05397 0.8922 0.0
C2418 C 0.61222 0.05983 0.90317 0.0
C2419 C 0.63499 0.04438 0.86032 0.0
C2420 C 0.63117 0.0271 0.84664 0.0
C2421 C 0.65106 0.05911 0.86034 0.0
C2422 C 0.65592 0.07782 0.87416 0.0
C2423 C 0.67193 0.08293 0.88656 0.0
C2424 C 0.67662 0.1006 0.8996 0.0
C2425 C 0.66542 0.11327 0.90033 0.0
C2426 C 0.64957 0.10838 0.8879 0.0
C2427 C 0.64487 0.09078 0.87476 0.0
H2428 H 0.66904 0.12691 0.91049 0.0
H2429 H 0.62098 0.96141 0.77662 0.0
H2430 H 0.28421 0.3799 0.0909 0.0
H2431 H 0.27632 0.37028 0.12081 0.0
H2432 H 0.28173 0.31263 0.09907 0.0
H2433 H 0.28984 0.32218 0.0695 0.0
H2434 H 0.25176 0.3129 0.12032 0.0
H2435 H 0.31639 0.34419 0.12448 0.0
H2436 H 0.34249 0.37156 0.12308 0.0
H2437 H 0.3238 0.40867 0.16621 0.0
H2438 H 0.29743 0.38156 0.16766 0.0
H2439 H 0.27026 0.27131 0.19752 0.0
H2440 H 0.26987 0.28416 0.16862 0.0
H2441 H 0.27632 0.34187 0.20161 0.0
H2442 H 0.27718 0.32904 0.23048 0.0
H2443 H 0.29726 0.3447 0.17568 0.0
H2444 H 0.23497 0.31337 0.17513 0.0
H2445 H 0.20839 0.28678 0.17707 0.0
H2446 H 0.22075 0.25126 0.1281 0.0
H2447 H 0.2476 0.27752 0.12603 0.0
C2448 C 0.28332 0.36508 0.0924 0.0
C2449 C 0.28773 0.35182 0.07791 0.0
C2450 C 0.2789 0.35962 0.10949 0.0
C2451 C 0.27857 0.34076 0.1122 0.0
C2452 C 0.28189 0.32723 0.0973 0.0
C2453 C 0.28659 0.33274 0.08043 0.0
C2454 C 0.27626 0.33535 0.13088 0.0
C2455 C 0.26169 0.3198 0.13245 0.0
C2456 C 0.28895 0.3447 0.14683 0.0
C2457 C 0.30483 0.36094 0.14601 0.0
C2458 C 0.31777 0.35824 0.13355 0.0
C2459 C 0.33262 0.37369 0.13276 0.0
C2460 C 0.33477 0.39186 0.1445 0.0
C2461 C 0.3221 0.3946 0.15709 0.0
C2462 C 0.3072 0.3792 0.1579 0.0
C2463 C 0.27148 0.28671 0.19858 0.0
C2464 C 0.27397 0.29923 0.21627 0.0
C2465 C 0.27116 0.29406 0.18204 0.0
C2466 C 0.27281 0.31401 0.18282 0.0
C2467 C 0.27509 0.32646 0.20055 0.0
C2468 C 0.2757 0.31915 0.21709 0.0
C2469 C 0.27283 0.32194 0.16519 0.0
C2470 C 0.28705 0.33795 0.16376 0.0
C2471 C 0.25964 0.31317 0.14946 0.0
C2472 C 0.24338 0.29739 0.15051 0.0
C2473 C 0.23209 0.29985 0.16484 0.0
C2474 C 0.21697 0.28484 0.16596 0.0
C2475 C 0.2129 0.26733 0.15274 0.0
C2476 C 0.22393 0.26483 0.13834 0.0
C2477 C 0.23909 0.27978 0.13717 0.0
H2478 H 0.20119 0.25573 0.15363 0.0
H2479 H 0.34629 0.4038 0.14388 0.0
H2480 H 0.28701 0.98759 0.99122 0.0
H2481 H 0.26366 0.00531 0.99554 0.0
H2482 H 0.23667 0.96525 0.02858 0.0
H2483 H 0.25979 0.9473 0.02414 0.0
H2484 H 0.21257 0.97355 0.00495 0.0
H2485 H 0.26355 0.00962 0.04987 0.0
H2486 H 0.29554 0.02703 0.0603 0.0
H2487 H 0.2922 0.06826 0.02532 0.0
H2488 H 0.26023 0.05092 0.01448 0.0
H2489 H 0.15675 0.02909 0.04871 0.0
H2490 H 0.17975 0.01111 0.04302 0.0
H2491 H 0.20737 0.05348 0.01249 0.0
H2492 H 0.18458 0.07176 0.01856 0.0
H2493 H 0.23112 0.04394 0.03415 0.0
H2494 H 0.17949 0.00779 0.98972 0.0
H2495 H 0.14738 0.99034 0.98004 0.0
H2496 H 0.15178 0.94915 0.01475 0.0
H2497 H 0.18388 0.96648 0.0248 0.0
C2498 C 0.27604 0.98245 0.99928 0.0
C2499 C 0.27535 0.9661 0.00744 0.0
C2500 C 0.26274 0.99265 0.00181 0.0
C2501 C 0.24857 0.98677 0.01262 0.0
C2502 C 0.24751 0.97008 0.02023 0.0
C2503 C 0.26078 0.95986 0.01771 0.0
C2504 C 0.23508 0.99826 0.01641 0.0
C2505 C 0.21661 0.9889 0.0115 0.0
C2506 C 0.24036 0.01837 0.02467 0.0
C2507 C 0.25956 0.02886 0.03121 0.0
C2508 C 0.26968 0.02231 0.04429 0.0
C2509 C 0.2878 0.03218 0.05029 0.0
C2510 C 0.29592 0.04871 0.04343 0.0
C2511 C 0.28591 0.05543 0.03059 0.0
C2512 C 0.26778 0.0456 0.02453 0.0
C2513 C 0.16775 0.03456 0.0408 0.0
C2514 C 0.16884 0.05175 0.03399 0.0
C2515 C 0.18085 0.02424 0.03749 0.0
C2516 C 0.1951 0.0307 0.02697 0.0
C2517 C 0.19647 0.04816 0.02057 0.0
C2518 C 0.18348 0.05862 0.02408 0.0
C2519 C 0.20857 0.01926 0.02264 0.0
C2520 C 0.22706 0.02863 0.02749 0.0
C2521 C 0.20329 0.99914 0.01437 0.0
C2522 C 0.18405 0.98853 0.00813 0.0
C2523 C 0.17359 0.99507 0.99536 0.0
C2524 C 0.15539 0.98519 0.98979 0.0
C2525 C 0.14754 0.96867 0.9968 0.0
C2526 C 0.15788 0.96195 0.00934 0.0
C2527 C 0.17608 0.97178 0.01495 0.0
H2528 H 0.13344 0.96106 0.99249 0.0
H2529 H 0.30995 0.05633 0.0481 0.0
H2530 H 0.72352 0.67139 0.99083 0.0
H2531 H 0.69508 0.64727 0.99048 0.0
H2532 H 0.72421 0.60732 0.00584 0.0
H2533 H 0.75313 0.63161 0.0061 0.0
H2534 H 0.69297 0.58923 0.97852 0.0
H2535 H 0.70778 0.63206 0.03948 0.0
H2536 H 0.71701 0.66395 0.06135 0.0
H2537 H 0.67013 0.67901 0.03948 0.0
H2538 H 0.66078 0.64734 0.01724 0.0
H2539 H 0.61253 0.53142 0.0073 0.0
H2540 H 0.64326 0.54966 0.004 0.0
H2541 H 0.62359 0.60004 -9e-05 0.0
H2542 H 0.5931 0.58197 0.00396 0.0
H2543 H 0.65195 0.61098 0.02308 0.0
H2544 H 0.6374 0.57001 0.9612 0.0
H2545 H 0.62742 0.53863 0.93859 0.0
H2546 H 0.67252 0.52066 0.96058 0.0
H2547 H 0.68262 0.55184 0.98354 0.0
C2548 C 0.72401 0.65744 0.99399 0.0
C2549 C 0.74067 0.65356 0.99875 0.0
C2550 C 0.70767 0.64364 0.99377 0.0
C2551 C 0.70748 0.62562 0.99845 0.0
C2552 C 0.72405 0.62119 0.00226 0.0
C2553 C 0.74055 0.63508 0.00243 0.0
C2554 C 0.68988 0.61221 0.00045 0.0
C2555 C 0.68407 0.59381 0.98845 0.0
C2556 C 0.67813 0.61835 0.01314 0.0
C2557 C 0.68365 0.63737 0.02661 0.0
C2558 C 0.69951 0.64223 0.03924 0.0
C2559 C 0.70475 0.66026 0.05171 0.0
C2560 C 0.69418 0.67351 0.05177 0.0
C2561 C 0.67832 0.66874 0.03939 0.0
C2562 C 0.67303 0.65074 0.02687 0.0
C2563 C 0.61473 0.5462 0.0052 0.0
C2564 C 0.60044 0.55522 0.00557 0.0
C2565 C 0.63232 0.55668 0.00337 0.0
C2566 C 0.63583 0.57625 0.00149 0.0
C2567 C 0.62135 0.58502 0.00139 0.0
C2568 C 0.6039 0.57467 0.00359 0.0
C2569 C 0.65463 0.58808 0.00076 0.0
C2570 C 0.66076 0.60624 0.01314 0.0
C2571 C 0.6665 0.58176 0.98825 0.0
C2572 C 0.66066 0.56318 0.97421 0.0
C2573 C 0.64513 0.55932 0.96129 0.0
C2574 C 0.63946 0.54157 0.94841 0.0
C2575 C 0.6493 0.52764 0.94819 0.0
C2576 C 0.66489 0.53146 0.96079 0.0
C2577 C 0.67061 0.54917 0.97373 0.0
H2578 H 0.64487 0.51389 0.93823 0.0
H2579 H 0.69827 0.68747 0.06144 0.0
H2580 H 0.68399 0.4369 0.26427 0.0
H2581 H 0.69745 0.40898 0.26303 0.0
H2582 H 0.75083 0.44799 0.26979 0.0
H2583 H 0.73761 0.47545 0.27082 0.0
H2584 H 0.7537 0.4183 0.24708 0.0
H2585 H 0.72783 0.42213 0.30627 0.0
H2586 H 0.70321 0.42174 0.32672 0.0
H2587 H 0.6749 0.36444 0.2964 0.0
H2588 H 0.69926 0.3646 0.27563 0.0
H2589 H 0.77636 0.3356 0.29928 0.0
H2590 H 0.76262 0.36221 0.29686 0.0
H2591 H 0.76974 0.35478 0.2378 0.0
H2592 H 0.78452 0.32861 0.24066 0.0
H2593 H 0.73513 0.3678 0.2849 0.0
H2594 H 0.75749 0.38193 0.21715 0.0
H2595 H 0.78312 0.38676 0.19788 0.0
H2596 H 0.82005 0.41298 0.24793 0.0
H2597 H 0.79472 0.40734 0.26753 0.0
C2598 C 0.69859 0.43964 0.26545 0.0
C2599 C 0.7094 0.45906 0.26769 0.0
C2600 C 0.70647 0.42342 0.26488 0.0
C2601 C 0.72559 0.42569 0.26651 0.0
C2602 C 0.7362 0.44506 0.26843 0.0
C2603 C 0.72841 0.46112 0.2691 0.0
C2604 C 0.73478 0.40852 0.26622 0.0
C2605 C 0.74944 0.40732 0.25544 0.0
C2606 C 0.72988 0.39358 0.27685 0.0
C2607 C 0.71526 0.39347 0.28929 0.0
C2608 C 0.71629 0.40951 0.3039 0.0
C2609 C 0.7024 0.40932 0.31555 0.0
C2610 C 0.68748 0.3931 0.31283 0.0
C2611 C 0.68645 0.37701 0.29847 0.0
C2612 C 0.70029 0.37714 0.28676 0.0
C2613 C 0.77545 0.33985 0.28576 0.0
C2614 C 0.78214 0.32971 0.27033 0.0
C2615 C 0.76721 0.35525 0.28428 0.0
C2616 C 0.7647 0.3615 0.26712 0.0
C2617 C 0.77159 0.35144 0.25157 0.0
C2618 C 0.78015 0.33606 0.25315 0.0
C2619 C 0.75435 0.37764 0.26593 0.0
C2620 C 0.73943 0.3787 0.2765 0.0
C2621 C 0.75898 0.39249 0.2551 0.0
C2622 C 0.77436 0.39388 0.24374 0.0
C2623 C 0.77116 0.38836 0.22402 0.0
C2624 C 0.78561 0.39116 0.21307 0.0
C2625 C 0.80324 0.39996 0.22171 0.0
C2626 C 0.80644 0.40583 0.24131 0.0
C2627 C 0.79209 0.40261 0.25236 0.0
H2628 H 0.8144 0.40235 0.21321 0.0
H2629 H 0.67674 0.39297 0.32187 0.0
H2630 H 0.85289 0.48482 0.52966 0.0
H2631 H 0.87923 0.51211 0.52952 0.0
H2632 H 0.91233 0.48643 0.56208 0.0
H2633 H 0.88624 0.45951 0.56249 0.0
H2634 H 0.92302 0.52519 0.57192 0.0
H2635 H 0.90694 0.47587 0.51339 0.0
H2636 H 0.88677 0.45723 0.48481 0.0
H2637 H 0.88591 0.51044 0.46684 0.0
H2638 H 0.9059 0.5294 0.49547 0.0
H2639 H 0.00789 0.5267 0.545 0.0
H2640 H 0.97582 0.51887 0.54963 0.0
H2641 H 0.96753 0.56141 0.51766 0.0
H2642 H 0.99995 0.5698 0.51354 0.0
H2643 H 0.94147 0.52508 0.50754 0.0
H2644 H 0.96354 0.57347 0.56411 0.0
H2645 H 0.98445 0.59063 0.5927 0.0
H2646 H 0.97548 0.53769 0.61372 0.0
H2647 H 0.95428 0.5203 0.58544 0.0
C2648 C 0.86566 0.48535 0.53728 0.0
C2649 C 0.86759 0.4699 0.54584 0.0
C2650 C 0.88071 0.50088 0.53709 0.0
C2651 C 0.89781 0.50109 0.54549 0.0
C2652 C 0.8993 0.48655 0.55546 0.0
C2653 C 0.88437 0.47109 0.5556 0.0
C2654 C 0.91463 0.5148 0.54221 0.0
C2655 C 0.92698 0.52535 0.55784 0.0
C2656 C 0.91967 0.51543 0.52382 0.0
C2657 C 0.90764 0.50404 0.50668 0.0
C2658 C 0.90231 0.48359 0.50342 0.0
C2659 C 0.89093 0.47297 0.4872 0.0
C2660 C 0.88499 0.48265 0.47406 0.0
C2661 C 0.89046 0.50297 0.47707 0.0
C2662 C 0.9018 0.51365 0.49329 0.0
C2663 C 0.99921 0.53433 0.53891 0.0
C2664 C 0.00625 0.54849 0.52854 0.0
C2665 C 0.98096 0.52999 0.54169 0.0
C2666 C 0.96941 0.53983 0.53429 0.0
C2667 C 0.97629 0.55377 0.5236 0.0
C2668 C 0.99473 0.55836 0.52105 0.0
C2669 C 0.95004 0.53462 0.53727 0.0
C2670 C 0.93725 0.52564 0.52159 0.0
C2671 C 0.94465 0.53526 0.5556 0.0
C2672 C 0.95742 0.54559 0.57262 0.0
C2673 C 0.96613 0.56548 0.57478 0.0
C2674 C 0.978 0.57525 0.59094 0.0
C2675 C 0.98143 0.56522 0.60492 0.0
C2676 C 0.97284 0.54544 0.60287 0.0
C2677 C 0.96081 0.53565 0.58684 0.0
H2678 H 0.99067 0.5728 0.61738 0.0
H2679 H 0.8762 0.47441 0.46151 0.0
H2680 H 0.35233 0.08257 0.30908 0.0
H2681 H 0.33447 0.10398 0.30004 0.0
H2682 H 0.38027 0.13538 0.2765 0.0
H2683 H 0.39829 0.1144 0.28583 0.0
H2684 H 0.36183 0.16003 0.29277 0.0
H2685 H 0.34751 0.09805 0.24892 0.0
H2686 H 0.33762 0.06223 0.23976 0.0
H2687 H 0.28662 0.06244 0.26123 0.0
H2688 H 0.29632 0.09828 0.27074 0.0
H2689 H 0.32376 0.195 0.22 0.0
H2690 H 0.33911 0.17755 0.2387 0.0
H2691 H 0.28852 0.15307 0.25914 0.0
H2692 H 0.27301 0.17007 0.23975 0.0
H2693 H 0.30691 0.12571 0.24821 0.0
H2694 H 0.32023 0.18887 0.28802 0.0
H2695 H 0.32971 0.22472 0.29339 0.0
H2696 H 0.38239 0.22257 0.27749 0.0
H2697 H 0.37315 0.18667 0.27178 0.0
C2698 C 0.35869 0.09423 0.30225 0.0
C2699 C 0.37668 0.09658 0.29796 0.0
C2700 C 0.34845 0.10644 0.29706 0.0
C2701 C 0.35593 0.12108 0.28729 0.0
C2702 C 0.37418 0.12417 0.28399 0.0
C2703 C 0.38445 0.11206 0.28926 0.0
C2704 C 0.34444 0.13205 0.27902 0.0
C2705 C 0.34983 0.15253 0.28304 0.0
C2706 C 0.32859 0.12232 0.26652 0.0
C2707 C 0.32272 0.1008 0.26074 0.0
C2708 C 0.33424 0.09044 0.25181 0.0
C2709 C 0.32866 0.07014 0.24654 0.0
C2710 C 0.31152 0.06006 0.24997 0.0
C2711 C 0.29991 0.07027 0.25862 0.0
C2712 C 0.30543 0.09057 0.26395 0.0
C2713 C 0.31592 0.18565 0.22823 0.0
C2714 C 0.29721 0.18357 0.22816 0.0
C2715 C 0.3247 0.17592 0.23915 0.0
C2716 C 0.31497 0.16413 0.25045 0.0
C2717 C 0.29627 0.16212 0.25053 0.0
C2718 C 0.28746 0.17187 0.23954 0.0
C2719 C 0.32439 0.1536 0.2618 0.0
C2720 C 0.31866 0.13322 0.2583 0.0
C2721 C 0.33991 0.16343 0.27469 0.0
C2722 C 0.34597 0.18505 0.27941 0.0
C2723 C 0.33385 0.19604 0.28569 0.0
C2724 C 0.33916 0.21636 0.28874 0.0
C2725 C 0.35662 0.22591 0.2857 0.0
C2726 C 0.36887 0.21515 0.27982 0.0
C2727 C 0.36361 0.1948 0.27672 0.0
H2728 H 0.36068 0.24164 0.28796 0.0
H2729 H 0.30723 0.04434 0.24587 0.0
H2730 H 0.34811 0.16733 0.51894 0.0
H2731 H 0.3716 0.15028 0.52297 0.0
H2732 H 0.33922 0.09956 0.48384 0.0
H2733 H 0.31564 0.11642 0.47984 0.0
H2734 H 0.35241 0.08965 0.51467 0.0
H2735 H 0.37668 0.12973 0.47129 0.0
H2736 H 0.38698 0.16048 0.46021 0.0
H2737 H 0.42721 0.18283 0.50815 0.0
H2738 H 0.41698 0.15229 0.51966 0.0
H2739 H 0.41594 0.0347 0.49897 0.0
H2740 H 0.39499 0.0545 0.49431 0.0
H2741 H 0.43052 0.1035 0.53303 0.0
H2742 H 0.45178 0.0837 0.53745 0.0
H2743 H 0.41638 0.1153 0.50374 0.0
H2744 H 0.39266 0.07556 0.54708 0.0
H2745 H 0.38258 0.045 0.55855 0.0
H2746 H 0.34136 0.0225 0.5115 0.0
H2747 H 0.35137 0.05283 0.4996 0.0
C2748 C 0.34599 0.15256 0.51114 0.0
C2749 C 0.32994 0.14327 0.49905 0.0
C2750 C 0.3595 0.14285 0.5134 0.0
C2751 C 0.3573 0.12365 0.50359 0.0
C2752 C 0.34128 0.11436 0.49156 0.0
C2753 C 0.3278 0.12406 0.48925 0.0
C2754 C 0.37142 0.11302 0.50618 0.0
C2755 C 0.36634 0.09517 0.51204 0.0
C2756 C 0.38976 0.12044 0.50334 0.0
C2757 C 0.39593 0.1388 0.49644 0.0
C2758 C 0.38762 0.14126 0.47956 0.0
C2759 C 0.39346 0.15864 0.47318 0.0
C2760 C 0.40771 0.17362 0.4835 0.0
C2761 C 0.41616 0.17123 0.50019 0.0
C2762 C 0.41035 0.15388 0.50664 0.0
C2763 C 0.41931 0.04972 0.50645 0.0
C2764 C 0.43541 0.0576 0.51872 0.0
C2765 C 0.40731 0.06103 0.50381 0.0
C2766 C 0.41094 0.08041 0.51363 0.0
C2767 C 0.42735 0.08856 0.52537 0.0
C2768 C 0.43949 0.07726 0.5279 0.0
C2769 C 0.3973 0.09184 0.512 0.0
C2770 C 0.40246 0.10983 0.5064 0.0
C2771 C 0.37902 0.08462 0.51518 0.0
C2772 C 0.37287 0.06641 0.52237 0.0
C2773 C 0.38153 0.06405 0.53911 0.0
C2774 C 0.37581 0.04677 0.5457 0.0
C2775 C 0.36137 0.0318 0.53574 0.0
C2776 C 0.35257 0.0341 0.51919 0.0
C2777 C 0.35824 0.05134 0.51253 0.0
H2778 H 0.35696 0.01844 0.54086 0.0
H2779 H 0.41222 0.18706 0.47854 0.0
H2780 H 0.72428 0.55972 0.27822 0.0
H2781 H 0.74377 0.59272 0.27882 0.0
H2782 H 0.69627 0.61298 0.26911 0.0
H2783 H 0.67714 0.58082 0.26846 0.0
H2784 H 0.71993 0.62757 0.24777 0.0
H2785 H 0.72245 0.62323 0.31353 0.0
H2786 H 0.72918 0.60938 0.34096 0.0
H2787 H 0.78514 0.61996 0.331 0.0
H2788 H 0.77868 0.63365 0.30335 0.0
H2789 H 0.75136 0.7302 0.26831 0.0
H2790 H 0.73639 0.69644 0.26866 0.0
H2791 H 0.78772 0.68674 0.2859 0.0
H2792 H 0.80245 0.72106 0.28713 0.0
H2793 H 0.76489 0.66538 0.30173 0.0
H2794 H 0.76277 0.67164 0.23684 0.0
H2795 H 0.75607 0.68706 0.21051 0.0
H2796 H 0.69958 0.67268 0.21842 0.0
H2797 H 0.70597 0.65744 0.24496 0.0
C2798 C 0.71801 0.57119 0.27619 0.0
C2799 C 0.69893 0.56722 0.27339 0.0
C2800 C 0.7292 0.59022 0.27662 0.0
C2801 C 0.72167 0.60578 0.2741 0.0
C2802 C 0.7027 0.60159 0.27106 0.0
C2803 C 0.69166 0.5829 0.2708 0.0
C2804 C 0.73298 0.62644 0.2745 0.0
C2805 C 0.7297 0.63577 0.25967 0.0
C2806 C 0.74617 0.63747 0.28968 0.0
C2807 C 0.75004 0.62923 0.30625 0.0
C2808 C 0.73616 0.62245 0.3171 0.0
C2809 C 0.73993 0.61466 0.3327 0.0
C2810 C 0.75757 0.61373 0.33768 0.0
C2811 C 0.77148 0.62064 0.3271 0.0
C2812 C 0.76778 0.62842 0.31147 0.0
C2813 C 0.75959 0.721 0.27225 0.0
C2814 C 0.77844 0.72867 0.27725 0.0
C2815 C 0.75093 0.70137 0.27223 0.0
C2816 C 0.7608 0.68825 0.27654 0.0
C2817 C 0.77954 0.69606 0.28218 0.0
C2818 C 0.78813 0.71589 0.28269 0.0
C2819 C 0.75163 0.66664 0.2751 0.0
C2820 C 0.75531 0.65713 0.2897 0.0
C2821 C 0.73885 0.65536 0.25962 0.0
C2822 C 0.73487 0.66353 0.24298 0.0
C2823 C 0.74892 0.67175 0.23295 0.0
C2824 C 0.74518 0.6805 0.21801 0.0
C2825 C 0.72742 0.68092 0.21286 0.0
C2826 C 0.71333 0.67238 0.22246 0.0
C2827 C 0.717 0.66366 0.23743 0.0
H2828 H 0.72455 0.68789 0.20147 0.0
H2829 H 0.76046 0.6077 0.34977 0.0
H2830 H 0.92141 0.49171 0.82288 0.0
H2831 H 0.90057 0.45988 0.82151 0.0
H2832 H 0.86962 0.46688 0.77269 0.0
H2833 H 0.88993 0.49939 0.7748 0.0
H2834 H 0.84751 0.44808 0.79245 0.0
H2835 H 0.90312 0.44064 0.76948 0.0
H2836 H 0.9362 0.44553 0.77023 0.0
H2837 H 0.93679 0.4194 0.81881 0.0
H2838 H 0.90372 0.41458 0.81849 0.0
H2839 H 0.81477 0.34623 0.75114 0.0
H2840 H 0.82676 0.38157 0.76034 0.0
H2841 H 0.85346 0.37476 0.81186 0.0
H2842 H 0.84198 0.33924 0.80216 0.0
H2843 H 0.87657 0.39379 0.79185 0.0
H2844 H 0.82079 0.41104 0.8175 0.0
H2845 H 0.78777 0.40784 0.81515 0.0
H2846 H 0.78796 0.41381 0.75737 0.0
H2847 H 0.82101 0.41748 0.7596 0.0
C2848 C 0.91002 0.48654 0.81201 0.0
C2849 C 0.90736 0.49783 0.79879 0.0
C2850 C 0.89817 0.46831 0.81116 0.0
C2851 C 0.88385 0.46069 0.79663 0.0
C2852 C 0.88065 0.47238 0.78395 0.0
C2853 C 0.89225 0.49091 0.78512 0.0
C2854 C 0.87287 0.44021 0.79415 0.0
C2855 C 0.85389 0.43621 0.7922 0.0
C2856 C 0.8811 0.42463 0.7939 0.0
C2857 C 0.90098 0.42743 0.79407 0.0
C2858 C 0.91032 0.43605 0.78039 0.0
C2859 C 0.92907 0.4388 0.78073 0.0
C2860 C 0.9386 0.43283 0.79459 0.0
C2861 C 0.92939 0.42405 0.8081 0.0
C2862 C 0.91065 0.42129 0.80784 0.0
C2863 C 0.82272 0.35242 0.7647 0.0
C2864 C 0.82724 0.34026 0.77618 0.0
C2865 C 0.82941 0.37261 0.77006 0.0
C2866 C 0.84074 0.38094 0.78699 0.0
C2867 C 0.84458 0.3687 0.79884 0.0
C2868 C 0.83805 0.34848 0.79336 0.0
C2869 C 0.85121 0.40167 0.79052 0.0
C2870 C 0.87019 0.4057 0.79243 0.0
C2871 C 0.843 0.41715 0.79027 0.0
C2872 C 0.82316 0.41411 0.78861 0.0
C2873 C 0.8137 0.41149 0.80428 0.0
C2874 C 0.79504 0.40978 0.80301 0.0
C2875 C 0.78575 0.41047 0.78608 0.0
C2876 C 0.79514 0.41315 0.77044 0.0
C2877 C 0.81383 0.41516 0.77173 0.0
H2878 H 0.7713 0.40902 0.7851 0.0
H2879 H 0.95311 0.43497 0.79483 0.0
H2880 H 0.08981 0.85294 0.05732 0.0
H2881 H 0.08311 0.88055 0.04622 0.0
H2882 H 0.06293 0.89815 0.09899 0.0
H2883 H 0.0689 0.86981 0.10987 0.0
H2884 H 0.04245 0.90448 0.0735 0.0
H2885 H 0.10698 0.92113 0.08514 0.0
H2886 H 0.13805 0.91766 0.08281 0.0
H2887 H 0.13141 0.91521 0.02319 0.0
H2888 H 0.10018 0.91835 0.0251 0.0
H2889 H 0.05329 0.0044 0.06651 0.0
H2890 H 0.05522 0.97356 0.0744 0.0
H2891 H 0.06186 0.95176 0.01668 0.0
H2892 H 0.06023 0.98318 0.00874 0.0
H2893 H 0.08816 0.94707 0.04342 0.0
H2894 H 0.01862 0.91507 0.03537 0.0
H2895 H 0.98756 0.918 0.03963 0.0
H2896 H 0.00613 0.95255 0.09517 0.0
H2897 H 0.03718 0.94939 0.0913 0.0
C2898 C 0.0839 0.86263 0.06662 0.0
C2899 C 0.08001 0.85907 0.0846 0.0
C2900 C 0.08021 0.87864 0.06027 0.0
C2901 C 0.07291 0.89201 0.07184 0.0
C2902 C 0.06865 0.88827 0.08969 0.0
C2903 C 0.07208 0.872 0.09596 0.0
C2904 C 0.0695 0.9096 0.0652 0.0
C2905 C 0.05264 0.91383 0.06715 0.0
C2906 C 0.08246 0.92193 0.05648 0.0
C2907 C 0.10115 0.91973 0.05524 0.0
C2908 C 0.11207 0.91965 0.0715 0.0
C2909 C 0.12973 0.91778 0.07026 0.0
C2910 C 0.13668 0.91616 0.05285 0.0
C2911 C 0.126 0.91642 0.03665 0.0
C2912 C 0.10831 0.91824 0.03781 0.0
C2913 C 0.05473 0.99288 0.05535 0.0
C2914 C 0.05617 0.99614 0.03689 0.0
C2915 C 0.05565 0.97509 0.05987 0.0
C2916 C 0.05818 0.9599 0.04612 0.0
C2917 C 0.0596 0.96305 0.02755 0.0
C2918 C 0.05857 0.98097 0.02295 0.0
C2919 C 0.06123 0.9418 0.05179 0.0
C2920 C 0.07804 0.93754 0.04968 0.0
C2921 C 0.04846 0.92968 0.06072 0.0
C2922 C 0.03019 0.93249 0.06283 0.0
C2923 C 0.01605 0.92344 0.04839 0.0
C2924 C 0.99844 0.92497 0.05081 0.0
C2925 C 0.9949 0.93558 0.06761 0.0
C2926 C 0.00892 0.94448 0.08211 0.0
C2927 C 0.02649 0.94277 0.07983 0.0
H2928 H 0.98128 0.93685 0.06942 0.0
H2929 H 0.15037 0.91475 0.05193 0.0
H2930 H 0.97896 0.25917 0.86712 0.0
H2931 H 0.95437 0.26214 0.84541 0.0
H2932 H 0.92126 0.26677 0.89116 0.0
H2933 H 0.94523 0.263 0.91249 0.0
H2934 H 0.89999 0.24725 0.86275 0.0
H2935 H 0.94574 0.30752 0.87274 0.0
H2936 H 0.97628 0.32913 0.87342 0.0
H2937 H 0.97517 0.30932 0.81381 0.0
H2938 H 0.94469 0.28739 0.81283 0.0
H2939 H 0.84366 0.3015 0.82274 0.0
H2940 H 0.86829 0.29553 0.84209 0.0
H2941 H 0.88315 0.26247 0.79283 0.0
H2942 H 0.85776 0.26698 0.77375 0.0
H2943 H 0.91321 0.29585 0.82182 0.0
H2944 H 0.86526 0.23595 0.81359 0.0
H2945 H 0.83346 0.21871 0.81456 0.0
H2946 H 0.83806 0.24165 0.874 0.0
H2947 H 0.86982 0.25969 0.87323 0.0
C2948 C 0.96636 0.2606 0.87249 0.0
C2949 C 0.96424 0.26087 0.89166 0.0
C2950 C 0.9523 0.26248 0.86008 0.0
C2951 C 0.93587 0.26508 0.86657 0.0
C2952 C 0.93363 0.2648 0.88559 0.0
C2953 C 0.94751 0.26268 0.89788 0.0
C2954 C 0.92114 0.26854 0.85392 0.0
C2955 C 0.90301 0.258 0.85394 0.0
C2956 C 0.92472 0.28252 0.84223 0.0
C2957 C 0.94304 0.29565 0.84276 0.0
C2958 C 0.95207 0.30767 0.85981 0.0
C2959 C 0.96936 0.31999 0.86024 0.0
C2960 C 0.97768 0.32055 0.84368 0.0
C2961 C 0.96872 0.30883 0.82664 0.0
C2962 C 0.95144 0.29646 0.82613 0.0
C2963 C 0.85197 0.29273 0.81601 0.0
C2964 C 0.84854 0.28474 0.79652 0.0
C2965 C 0.8662 0.2895 0.8271 0.0
C2966 C 0.87764 0.27861 0.81891 0.0
C2967 C 0.87461 0.27106 0.79945 0.0
C2968 C 0.8601 0.27383 0.78847 0.0
C2969 C 0.8924 0.27454 0.83073 0.0
C2970 C 0.9104 0.28504 0.83058 0.0
C2971 C 0.88867 0.26085 0.84258 0.0
C2972 C 0.86985 0.2494 0.84329 0.0
C2973 C 0.85946 0.23751 0.82684 0.0
C2974 C 0.84144 0.22757 0.82735 0.0
C2975 C 0.83372 0.22912 0.84433 0.0
C2976 C 0.84406 0.24053 0.86085 0.0
C2977 C 0.86207 0.25065 0.86037 0.0
H2978 H 0.81975 0.22148 0.84465 0.0
H2979 H 0.99106 0.3301 0.84404 0.0
H2980 H 0.58127 0.24938 0.55408 0.0
H2981 H 0.57532 0.21394 0.54605 0.0
H2982 H 0.55673 0.20994 0.60041 0.0
H2983 H 0.56257 0.24554 0.60853 0.0
H2984 H 0.58182 0.18881 0.59214 0.0
H2985 H 0.52696 0.19473 0.56129 0.0
H2986 H 0.50831 0.20713 0.54007 0.0
H2987 H 0.53346 0.18456 0.49286 0.0
H2988 H 0.55246 0.17226 0.51385 0.0
H2989 H 0.55173 0.08543 0.57447 0.0
H2990 H 0.5563 0.12062 0.58265 0.0
H2991 H 0.56329 0.12437 0.52478 0.0
H2992 H 0.55714 0.089 0.51639 0.0
H2993 H 0.54363 0.14606 0.53541 0.0
H2994 H 0.60066 0.14356 0.56555 0.0
H2995 H 0.62115 0.13257 0.58629 0.0
H2996 H 0.59351 0.14937 0.63368 0.0
H2997 H 0.57299 0.16055 0.61325 0.0
C2998 C 0.57562 0.24099 0.56425 0.0
C2999 C 0.57237 0.25042 0.58197 0.0
C3000 C 0.5722 0.22065 0.5596 0.0
C3001 C 0.56553 0.20914 0.57258 0.0
C3002 C 0.56187 0.21845 0.59013 0.0
C3003 C 0.56509 0.23883 0.59471 0.0
C3004 C 0.56335 0.18758 0.56815 0.0
C3005 C 0.57325 0.17941 0.57988 0.0
C3006 C 0.55264 0.1753 0.55184 0.0
C3007 C 0.54127 0.18274 0.53919 0.0
C3008 C 0.52864 0.19257 0.54642 0.0
C3009 C 0.51798 0.19955 0.53442 0.0
C3010 C 0.51973 0.19668 0.51514 0.0
C3011 C 0.53213 0.1868 0.50781 0.0
C3012 C 0.54284 0.1798 0.51974 0.0
C3013 C 0.55456 0.0938 0.56353 0.0
C3014 C 0.55455 0.08429 0.54483 0.0
C3015 C 0.55734 0.11407 0.56827 0.0
C3016 C 0.56058 0.12557 0.55449 0.0
C3017 C 0.56092 0.11607 0.53581 0.0
C3018 C 0.55768 0.09572 0.53101 0.0
C3019 C 0.56233 0.14716 0.55928 0.0
C3020 C 0.55228 0.15538 0.54765 0.0
C3021 C 0.57309 0.15956 0.57557 0.0
C3022 C 0.58519 0.15262 0.58784 0.0
C3023 C 0.59889 0.14471 0.58036 0.0
C3024 C 0.61052 0.13852 0.59206 0.0
C3025 C 0.60853 0.14012 0.61124 0.0
C3026 C 0.595 0.14807 0.61881 0.0
C3027 C 0.58342 0.15441 0.60719 0.0
H3028 H 0.61753 0.13529 0.62026 0.0
H3029 H 0.51146 0.20209 0.50587 0.0
H3030 H 0.59262 0.78668 0.41751 0.0
H3031 H 0.61745 0.78802 0.39785 0.0
H3032 H 0.57931 0.75858 0.34905 0.0
H3033 H 0.55425 0.75705 0.36876 0.0
H3034 H 0.60872 0.7437 0.34981 0.0
H3035 H 0.59887 0.80752 0.35637 0.0
H3036 H 0.59542 0.83883 0.37367 0.0
H3037 H 0.64919 0.85178 0.40197 0.0
H3038 H 0.65287 0.8204 0.38503 0.0
H3039 H 0.66513 0.76409 0.27839 0.0
H3040 H 0.64175 0.76117 0.29978 0.0
H3041 H 0.68167 0.79312 0.34641 0.0
H3042 H 0.70519 0.7967 0.32478 0.0
H3043 H 0.65213 0.80652 0.34783 0.0
H3044 H 0.6626 0.74343 0.34073 0.0
H3045 H 0.66626 0.71213 0.32365 0.0
H3046 H 0.61176 0.69767 0.29683 0.0
H3047 H 0.60785 0.72901 0.31355 0.0
C3048 C 0.58943 0.78049 0.40259 0.0
C3049 C 0.57134 0.7718 0.39476 0.0
C3050 C 0.60371 0.78134 0.39132 0.0
C3051 C 0.60033 0.7736 0.37186 0.0
C3052 C 0.58231 0.7647 0.364 0.0
C3053 C 0.56797 0.7639 0.37529 0.0
C3054 C 0.61563 0.77474 0.35983 0.0
C3055 C 0.61806 0.75747 0.34919 0.0
C3056 C 0.62824 0.79262 0.35941 0.0
C3057 C 0.62608 0.81152 0.36957 0.0
C3058 C 0.60991 0.81697 0.36639 0.0
C3059 C 0.60792 0.83474 0.37611 0.0
C3060 C 0.62206 0.84726 0.38895 0.0
C3061 C 0.63824 0.84205 0.39205 0.0
C3062 C 0.64029 0.82428 0.38238 0.0
C3063 C 0.66901 0.77053 0.2932 0.0
C3064 C 0.68711 0.78076 0.29979 0.0
C3065 C 0.65559 0.76867 0.3055 0.0
C3066 C 0.65985 0.77677 0.32483 0.0
C3067 C 0.67797 0.7867 0.33158 0.0
C3068 C 0.69147 0.78858 0.31922 0.0
C3069 C 0.64519 0.77548 0.3377 0.0
C3070 C 0.64286 0.79272 0.3485 0.0
C3071 C 0.63271 0.75756 0.33831 0.0
C3072 C 0.63498 0.73866 0.32828 0.0
C3073 C 0.65143 0.73364 0.33108 0.0
C3074 C 0.65355 0.71588 0.32148 0.0
C3075 C 0.63927 0.70294 0.30913 0.0
C3076 C 0.62282 0.70772 0.30639 0.0
C3077 C 0.62064 0.72547 0.31594 0.0
H3078 H 0.64093 0.68919 0.30171 0.0
H3079 H 0.6205 0.86102 0.39646 0.0
H3080 H 0.09728 0.26608 0.42819 0.0
H3081 H 0.09729 0.23745 0.44202 0.0
H3082 H 0.09896 0.27181 0.49752 0.0
H3083 H 0.09836 0.30018 0.48379 0.0
H3084 H 0.1209 0.24147 0.49334 0.0
H3085 H 0.06048 0.25176 0.47998 0.0
H3086 H 0.03658 0.25656 0.4584 0.0
H3087 H 0.03564 0.20287 0.42114 0.0
H3088 H 0.05977 0.19794 0.4424 0.0
H3089 H 0.08148 0.17812 0.55187 0.0
H3090 H 0.09121 0.20444 0.53492 0.0
H3091 H 0.06747 0.16518 0.48238 0.0
H3092 H 0.05639 0.13937 0.49929 0.0
H3093 H 0.05922 0.1964 0.48203 0.0
H3094 H 0.1152 0.18211 0.49629 0.0
H3095 H 0.14 0.17623 0.51581 0.0
H3096 H 0.15116 0.23449 0.54825 0.0
H3097 H 0.12626 0.24065 0.5291 0.0
C3098 C 0.09818 0.26761 0.44337 0.0
C3099 C 0.09768 0.28521 0.45496 0.0
C3100 C 0.09819 0.2513 0.45123 0.0
C3101 C 0.0981 0.2526 0.47076 0.0
C3102 C 0.09914 0.27059 0.48244 0.0
C3103 C 0.09869 0.28672 0.47458 0.0
C3104 C 0.09411 0.23486 0.47882 0.0
C3105 C 0.10746 0.23155 0.49096 0.0
C3106 C 0.07669 0.22176 0.47525 0.0
C3107 C 0.06206 0.22462 0.46263 0.0
C3108 C 0.05529 0.24108 0.4671 0.0
C3109 C 0.04168 0.24381 0.45495 0.0
C3110 C 0.03463 0.23006 0.43838 0.0
C3111 C 0.04114 0.21353 0.43396 0.0
C3112 C 0.05477 0.21076 0.44605 0.0
C3113 C 0.07815 0.17512 0.53673 0.0
C3114 C 0.06823 0.1565 0.527 0.0
C3115 C 0.08402 0.19013 0.52699 0.0
C3116 C 0.08044 0.18674 0.50727 0.0
C3117 C 0.07055 0.16818 0.49756 0.0
C3118 C 0.06439 0.15331 0.50729 0.0
C3119 C 0.086 0.20277 0.49684 0.0
C3120 C 0.07285 0.20593 0.48429 0.0
C3121 C 0.10374 0.21541 0.49975 0.0
C3122 C 0.11874 0.21179 0.51134 0.0
C3123 C 0.12284 0.19363 0.50768 0.0
C3124 C 0.13694 0.19025 0.51866 0.0
C3125 C 0.14712 0.20497 0.53329 0.0
C3126 C 0.14325 0.2231 0.53693 0.0
C3127 C 0.12916 0.22655 0.526 0.0
H3128 H 0.15803 0.20233 0.54177 0.0
H3129 H 0.0241 0.2322 0.42899 0.0
H3130 H 0.56163 0.29891 0.20128 0.0
H3131 H 0.59345 0.30409 0.21356 0.0
H3132 H 0.57885 0.25133 0.23542 0.0
H3133 H 0.54742 0.24658 0.22407 0.0
H3134 H 0.60263 0.27647 0.25934 0.0
H3135 H 0.59623 0.25419 0.19102 0.0
H3136 H 0.58935 0.25692 0.15812 0.0
H3137 H 0.62978 0.31155 0.16741 0.0
H3138 H 0.63676 0.30921 0.20044 0.0
H3139 H 0.66966 0.22504 0.2462 0.0
H3140 H 0.64326 0.2373 0.24053 0.0
H3141 H 0.67746 0.29582 0.24963 0.0
H3142 H 0.70398 0.28395 0.25648 0.0
H3143 H 0.64802 0.27793 0.21332 0.0
H3144 H 0.65767 0.29404 0.28142 0.0
H3145 H 0.66412 0.28678 0.31265 0.0
H3146 H 0.61635 0.23894 0.30186 0.0
H3147 H 0.60977 0.24574 0.27043 0.0
C3148 C 0.56523 0.28863 0.20896 0.0
C3149 C 0.55199 0.27228 0.21158 0.0
C3150 C 0.58341 0.29154 0.21589 0.0
C3151 C 0.5886 0.27797 0.22523 0.0
C3152 C 0.57524 0.26208 0.22836 0.0
C3153 C 0.5572 0.25932 0.22173 0.0
C3154 C 0.60787 0.27924 0.23097 0.0
C3155 C 0.61257 0.27696 0.24928 0.0
C3156 C 0.62104 0.28025 0.21802 0.0
C3157 C 0.61683 0.28166 0.19822 0.0
C3158 C 0.60355 0.26684 0.18606 0.0
C3159 C 0.59965 0.26831 0.1674 0.0
C3160 C 0.60907 0.28443 0.1607 0.0
C3161 C 0.62246 0.2991 0.17263 0.0
C3162 C 0.62639 0.29771 0.19132 0.0
C3163 C 0.67163 0.24056 0.24732 0.0
C3164 C 0.68901 0.25348 0.2519 0.0
C3165 C 0.65654 0.2475 0.24389 0.0
C3166 C 0.65852 0.26741 0.24469 0.0
C3167 C 0.67577 0.28038 0.24889 0.0
C3168 C 0.69089 0.27351 0.25267 0.0
C3169 C 0.64229 0.27439 0.24131 0.0
C3170 C 0.63823 0.27816 0.2235 0.0
C3171 C 0.62954 0.27429 0.25453 0.0
C3172 C 0.6333 0.27034 0.27353 0.0
C3173 C 0.64862 0.28188 0.28565 0.0
C3174 C 0.65228 0.27787 0.3034 0.0
C3175 C 0.64067 0.26239 0.30922 0.0
C3176 C 0.62534 0.25093 0.29733 0.0
C3177 C 0.62162 0.25487 0.27956 0.0
H3178 H 0.64353 0.2593 0.32297 0.0
H3179 H 0.60604 0.28554 0.14624 0.0
H3180 H 0.61218 0.8712 0.92586 0.0
H3181 H 0.61955 0.90693 0.93545 0.0
H3182 H 0.56439 0.90559 0.91772 0.0
H3183 H 0.55684 0.87009 0.90885 0.0
H3184 H 0.59465 0.9388 0.90974 0.0
H3185 H 0.57001 0.90306 0.95932 0.0
H3186 H 0.57204 0.87991 0.98 0.0
H3187 H 0.62624 0.91312 0.00184 0.0
H3188 H 0.62457 0.93632 0.98105 0.0
H3189 H 0.55289 0.00584 0.95558 0.0
H3190 H 0.56429 0.97912 0.94009 0.0
H3191 H 0.60798 0.99335 0.985 0.0
H3192 H 0.59607 0.01958 0.00103 0.0
H3193 H 0.59458 0.95742 0.97896 0.0
H3194 H 0.61522 0.99936 0.93827 0.0
H3195 H 0.61497 0.02316 0.91796 0.0
H3196 H 0.57331 0.98098 0.87922 0.0
H3197 H 0.57305 0.957 0.89946 0.0
C3198 C 0.60179 0.87865 0.92367 0.0
C3199 C 0.58392 0.86803 0.91685 0.0
C3200 C 0.60602 0.89896 0.92906 0.0
C3201 C 0.5925 0.90878 0.92717 0.0
C3202 C 0.57501 0.89824 0.9191 0.0
C3203 C 0.57068 0.878 0.91421 0.0
C3204 C 0.59542 0.92942 0.93617 0.0
C3205 C 0.59482 0.94309 0.92487 0.0
C3206 C 0.59636 0.93504 0.95593 0.0
C3207 C 0.59725 0.92123 0.96851 0.0
C3208 C 0.5824 0.90532 0.96843 0.0
C3209 C 0.58348 0.89221 0.98018 0.0
C3210 C 0.59928 0.89501 0.99218 0.0
C3211 C 0.61402 0.91095 0.9925 0.0
C3212 C 0.61302 0.92407 0.98074 0.0
C3213 C 0.56501 0.00339 0.96207 0.0
C3214 C 0.5735 0.01469 0.97957 0.0
C3215 C 0.57168 0.98823 0.95308 0.0
C3216 C 0.58724 0.9844 0.96116 0.0
C3217 C 0.596 0.99604 0.97844 0.0
C3218 C 0.58914 0.01099 0.98761 0.0
C3219 C 0.59304 0.96697 0.95251 0.0
C3220 C 0.59519 0.95373 0.96389 0.0
C3221 C 0.59399 0.96203 0.93285 0.0
C3222 C 0.59409 0.97635 0.92047 0.0
C3223 C 0.60591 0.99517 0.92549 0.0
C3224 C 0.60586 0.00871 0.91397 0.0
C3225 C 0.59413 0.00359 0.89731 0.0
C3226 C 0.58242 0.98491 0.89213 0.0
C3227 C 0.58238 0.97132 0.90361 0.0
H3228 H 0.59411 0.01406 0.8884 0.0
H3229 H 0.60009 0.88485 0.00128 0.0
H3230 H 0.93863 0.73553 0.68969 0.0
H3231 H 0.91369 0.74554 0.70438 0.0
H3232 H 0.9445 0.80559 0.71464 0.0
H3233 H 0.96957 0.79573 0.69947 0.0
H3234 H 0.92609 0.78892 0.74708 0.0
H3235 H 0.91532 0.79765 0.68327 0.0
H3236 H 0.91193 0.78717 0.64869 0.0
H3237 H 0.86739 0.73881 0.65172 0.0
H3238 H 0.87071 0.74884 0.68637 0.0
H3239 H 0.83016 0.81124 0.73803 0.0
H3240 H 0.86086 0.81233 0.72948 0.0
H3241 H 0.86398 0.76853 0.76187 0.0
H3242 H 0.83402 0.76868 0.77157 0.0
H3243 H 0.86788 0.78149 0.70894 0.0
H3244 H 0.89344 0.76704 0.77337 0.0
H3245 H 0.89974 0.77692 0.808 0.0
H3246 H 0.91795 0.8368 0.80335 0.0
H3247 H 0.91132 0.82719 0.76869 0.0
C3248 C 0.94017 0.75088 0.6951 0.0
C3249 C 0.95607 0.76487 0.69346 0.0
C3250 C 0.92589 0.75654 0.70343 0.0
C3251 C 0.92733 0.77625 0.71051 0.0
C3252 C 0.94324 0.7903 0.70921 0.0
C3253 C 0.95747 0.78466 0.70053 0.0
C3254 C 0.91201 0.78192 0.71915 0.0
C3255 C 0.91339 0.78755 0.73878 0.0
C3256 C 0.89549 0.77988 0.70826 0.0
C3257 C 0.89337 0.7739 0.68742 0.0
C3258 C 0.90491 0.78468 0.67658 0.0
C3259 C 0.90298 0.77884 0.65696 0.0
C3260 C 0.88948 0.76231 0.64802 0.0
C3261 C 0.87786 0.75161 0.65867 0.0
C3262 C 0.87974 0.75737 0.67829 0.0
C3263 C 0.83784 0.80256 0.74395 0.0
C3264 C 0.83019 0.79043 0.75595 0.0
C3265 C 0.85531 0.80311 0.73906 0.0
C3266 C 0.86511 0.79099 0.74554 0.0
C3267 C 0.85732 0.77885 0.75757 0.0
C3268 C 0.84006 0.77871 0.76287 0.0
C3269 C 0.88179 0.7886 0.73708 0.0
C3270 C 0.88062 0.78329 0.71734 0.0
C3271 C 0.89845 0.79071 0.7479 0.0
C3272 C 0.90107 0.79654 0.76863 0.0
C3273 C 0.89832 0.78235 0.77981 0.0
C3274 C 0.90206 0.78788 0.79941 0.0
C3275 C 0.90906 0.80751 0.8079 0.0
C3276 C 0.91237 0.82162 0.79678 0.0
C3277 C 0.90847 0.81616 0.77719 0.0
H3278 H 0.91203 0.81176 0.82306 0.0
H3279 H 0.88801 0.75782 0.63283 0.0
H3280 H 0.16137 0.01195 0.83431 0.0
H3281 H 0.14987 0.01466 0.86536 0.0
H3282 H 0.09556 0.00361 0.83843 0.0
H3283 H 0.10721 1.00206 0.80782 0.0
H3284 H 0.09515 0.02746 0.86607 0.0
H3285 H 0.11682 0.97049 0.86479 0.0
H3286 H 0.13879 0.95051 0.86209 0.0
H3287 H 0.17322 0.99013 0.909 0.0
H3288 H 0.15154 0.01047 0.91184 0.0
H3289 H 0.05074 1.00135 0.9485 0.0
H3290 H 0.06436 0.99773 0.91872 0.0
H3291 H 0.11277 0.04088 0.94522 0.0
H3292 H 0.09879 0.04542 0.97473 0.0
H3293 H 0.11666 1.00134 0.91918 0.0
H3294 H 0.09248 0.05719 0.92015 0.0
H3295 H 0.06808 0.07394 0.9234 0.0
H3296 H 0.03592 0.03257 0.87616 0.0
H3297 H 0.05993 0.01519 0.873 0.0
C3298 C 0.14692 0.00959 0.83493 0.0
C3299 C 0.13534 0.00634 0.81807 0.0
C3300 C 0.14018 0.01119 0.85296 0.0
C3301 C 0.12146 0.00918 0.85503 0.0
C3302 C 0.10998 0.00545 0.83802 0.0
C3303 C 0.11673 0.00427 0.82018 0.0
C3304 C 0.11373 0.01155 0.87443 0.0
C3305 C 0.09989 0.02139 0.87741 0.0
C3306 C 0.11956 0.00421 0.8901 0.0
C3307 C 0.13266 0.99211 0.88837 0.0
C3308 C 0.12914 0.97501 0.87444 0.0
C3309 C 0.14153 0.96362 0.8729 0.0
C3310 C 0.15742 0.96909 0.88533 0.0
C3311 C 0.16093 0.98594 0.89935 0.0
C3312 C 0.14859 0.9974 0.90094 0.0
C3313 C 0.06416 0.01033 0.9481 0.0
C3314 C 0.07324 0.02398 0.96445 0.0
C3315 C 0.07212 0.0081 0.93087 0.0
C3316 C 0.08983 0.01895 0.92925 0.0
C3317 C 0.09918 0.03215 0.94569 0.0
C3318 C 0.09103 0.03478 0.96276 0.0
C3319 C 0.09823 0.01699 0.91043 0.0
C3320 C 0.11207 0.00728 0.90766 0.0
C3321 C 0.09221 0.02412 0.89484 0.0
C3322 C 0.07792 0.03475 0.89648 0.0
C3323 C 0.08013 0.05153 0.91058 0.0
C3324 C 0.06638 0.06117 0.91238 0.0
C3325 C 0.05046 0.05434 0.89999 0.0
C3326 C 0.04826 0.03784 0.88576 0.0
C3327 C 0.06192 0.02807 0.88397 0.0
H3328 H 0.03985 0.06184 0.9014 0.0
H3329 H 0.16699 0.96024 0.88412 0.0
H3330 H 0.82009 0.36859 0.56689 0.0
H3331 H 0.80206 0.34552 0.58319 0.0
H3332 H 0.75867 0.37373 0.58125 0.0
H3333 H 0.77677 0.39719 0.56447 0.0
H3334 H 0.771 0.36259 0.61888 0.0
H3335 H 0.74562 0.33492 0.55611 0.0
H3336 H 0.74577 0.32659 0.52167 0.0
H3337 H 0.78174 0.29058 0.52858 0.0
H3338 H 0.78205 0.29892 0.56306 0.0
H3339 H 0.76893 0.28561 0.66601 0.0
H3340 H 0.75237 0.30013 0.64511 0.0
H3341 H 0.79186 0.29679 0.6055 0.0
H3342 H 0.80803 0.28202 0.62593 0.0
H3343 H 0.76039 0.29348 0.5869 0.0
H3344 H 0.79642 0.34054 0.64721 0.0
H3345 H 0.79863 0.34859 0.68199 0.0
H3346 H 0.74193 0.34634 0.67918 0.0
H3347 H 0.73945 0.33826 0.6444 0.0
C3348 C 0.80677 0.37009 0.56993 0.0
C3349 C 0.79984 0.3847 0.56424 0.0
C3350 C 0.79646 0.35682 0.57923 0.0
C3351 C 0.77899 0.35781 0.58314 0.0
C3352 C 0.77212 0.37273 0.57819 0.0
C3353 C 0.78247 0.38608 0.56866 0.0
C3354 C 0.76846 0.34273 0.59231 0.0
C3355 C 0.76787 0.34742 0.61181 0.0
C3356 C 0.76414 0.32298 0.58302 0.0
C3357 C 0.76376 0.31749 0.56222 0.0
C3358 C 0.75359 0.32525 0.5503 0.0
C3359 C 0.75361 0.32053 0.53076 0.0
C3360 C 0.76373 0.30804 0.52294 0.0
C3361 C 0.77385 0.30021 0.53465 0.0
C3362 C 0.77389 0.30488 0.55421 0.0
C3363 C 0.77375 0.28756 0.65259 0.0
C3364 C 0.78993 0.28299 0.64769 0.0
C3365 C 0.76426 0.29581 0.64066 0.0
C3366 C 0.77103 0.29995 0.6239 0.0
C3367 C 0.78626 0.29373 0.61831 0.0
C3368 C 0.79558 0.28529 0.63005 0.0
C3369 C 0.76473 0.31349 0.61358 0.0
C3370 C 0.76216 0.30852 0.59383 0.0
C3371 C 0.76604 0.33295 0.6226 0.0
C3372 C 0.76779 0.33893 0.64333 0.0
C3373 C 0.78451 0.34199 0.65406 0.0
C3374 C 0.78579 0.34647 0.67374 0.0
C3375 C 0.77045 0.34806 0.68278 0.0
C3376 C 0.75382 0.34522 0.67216 0.0
C3377 C 0.75247 0.34072 0.65248 0.0
H3378 H 0.77144 0.3514 0.69802 0.0
H3379 H 0.76376 0.30443 0.50781 0.0
H3380 H 0.44395 0.09384 0.35372 0.0
H3381 H 0.46176 0.10441 0.38498 0.0
H3382 H 0.48934 0.0593 0.37047 0.0
H3383 H 0.47222 0.04905 0.33975 0.0
H3384 H 0.46336 0.08564 0.41304 0.0
H3385 H 0.53116 0.07114 0.38721 0.0
H3386 H 0.54955 0.07761 0.36126 0.0
H3387 H 0.52533 0.12372 0.35369 0.0
H3388 H 0.50698 0.11776 0.3798 0.0
H3389 H 0.50272 0.03608 0.46779 0.0
H3390 H 0.48959 0.05056 0.44461 0.0
H3391 H 0.53738 0.09889 0.45444 0.0
H3392 H 0.55094 0.08408 0.47747 0.0
H3393 H 0.52884 0.08818 0.41931 0.0
H3394 H 0.49562 0.1053 0.46788 0.0
H3395 H 0.47756 0.1033 0.49477 0.0
H3396 H 0.43426 0.05979 0.45941 0.0
H3397 H 0.45214 0.06122 0.43234 0.0
C3398 C 0.45394 0.08635 0.35722 0.0
C3399 C 0.45666 0.07064 0.34419 0.0
C3400 C 0.46411 0.09242 0.37503 0.0
C3401 C 0.47721 0.08295 0.37989 0.0
C3402 C 0.47976 0.06726 0.36689 0.0
C3403 C 0.46975 0.06127 0.3493 0.0
C3404 C 0.48745 0.08795 0.3989 0.0
C3405 C 0.47773 0.08652 0.41456 0.0
C3406 C 0.50641 0.09018 0.4011 0.0
C3407 C 0.51767 0.09399 0.38552 0.0
C3408 C 0.52986 0.08279 0.38016 0.0
C3409 C 0.54025 0.08633 0.36537 0.0
C3410 C 0.5386 0.10106 0.35583 0.0
C3411 C 0.52657 0.11229 0.36107 0.0
C3412 C 0.51616 0.10882 0.37586 0.0
C3413 C 0.51046 0.04983 0.46514 0.0
C3414 C 0.52791 0.05888 0.47445 0.0
C3415 C 0.50281 0.05826 0.45201 0.0
C3416 C 0.51227 0.07611 0.44808 0.0
C3417 C 0.52974 0.08521 0.45735 0.0
C3418 C 0.53751 0.07667 0.47043 0.0
C3419 C 0.50438 0.08399 0.43297 0.0
C3420 C 0.5146 0.08794 0.41808 0.0
C3421 C 0.48603 0.08476 0.43172 0.0
C3422 C 0.47526 0.08341 0.44803 0.0
C3423 C 0.48231 0.09518 0.46584 0.0
C3424 C 0.47209 0.09416 0.48112 0.0
C3425 C 0.45477 0.08148 0.47875 0.0
C3426 C 0.44767 0.06966 0.46117 0.0
C3427 C 0.45783 0.0706 0.44584 0.0
H3428 H 0.44681 0.08089 0.4905 0.0
H3429 H 0.54665 0.10376 0.34438 0.0
H3430 H 0.7936 0.75259 0.06164 0.0
H3431 H 0.79578 0.76293 0.09585 0.0
H3432 H 0.81319 0.71202 0.10284 0.0
H3433 H 0.81111 0.70158 0.06856 0.0
H3434 H 0.7837 0.71608 0.12166 0.0
H3435 H 0.84224 0.75622 0.11568 0.0
H3436 H 0.86388 0.78081 0.10307 0.0
H3437 H 0.83581 0.82374 0.12341 0.0
H3438 H 0.81384 0.79932 0.13592 0.0
H3439 H 0.80101 0.73421 0.22004 0.0
H3440 H 0.79987 0.72719 0.18602 0.0
H3441 H 0.79731 0.78596 0.18474 0.0
H3442 H 0.80053 0.79355 0.21938 0.0
H3443 H 0.81848 0.77869 0.16216 0.0
H3444 H 0.75778 0.73878 0.16383 0.0
H3445 H 0.73354 0.71396 0.17336 0.0
H3446 H 0.76353 0.6713 0.15948 0.0
H3447 H 0.78777 0.69584 0.14975 0.0
C3448 C 0.79825 0.74376 0.07043 0.0
C3449 C 0.8021 0.72618 0.06232 0.0
C3450 C 0.79954 0.74975 0.09003 0.0
C3451 C 0.80464 0.73826 0.10195 0.0
C3452 C 0.80923 0.72112 0.09392 0.0
C3453 C 0.80812 0.71522 0.07431 0.0
C3454 C 0.80351 0.74313 0.1226 0.0
C3455 C 0.7915 0.72967 0.1306 0.0
C3456 C 0.81308 0.76118 0.13409 0.0
C3457 C 0.82628 0.77588 0.12657 0.0
C3458 C 0.84058 0.77085 0.11731 0.0
C3459 C 0.85293 0.78478 0.11021 0.0
C3460 C 0.85119 0.80382 0.11239 0.0
C3461 C 0.83713 0.80898 0.12171 0.0
C3462 C 0.82473 0.79511 0.12882 0.0
C3463 C 0.79987 0.74556 0.21249 0.0
C3464 C 0.80037 0.76429 0.22237 0.0
C3465 C 0.79894 0.74144 0.19287 0.0
C3466 C 0.7979 0.75577 0.1824 0.0
C3467 C 0.79795 0.77449 0.1923 0.0
C3468 C 0.7995 0.77881 0.21211 0.0
C3469 C 0.79854 0.75159 0.16146 0.0
C3470 C 0.81051 0.76515 0.15332 0.0
C3471 C 0.7887 0.7337 0.14968 0.0
C3472 C 0.77463 0.7192 0.15638 0.0
C3473 C 0.75925 0.72418 0.16311 0.0
C3474 C 0.74549 0.71013 0.1684 0.0
C3475 C 0.74705 0.6911 0.16711 0.0
C3476 C 0.76235 0.68606 0.16051 0.0
C3477 C 0.77606 0.7 0.15502 0.0
H3478 H 0.73635 0.68021 0.17109 0.0
H3479 H 0.86077 0.81457 0.10689 0.0
H3480 H 0.10527 0.00472 0.71525 0.0
H3481 H 0.09354 0.00661 0.68394 0.0
H3482 H 0.14415 1.00192 0.66338 0.0
H3483 H 0.1562 1.0003 0.6953 0.0
H3484 H 0.13386 0.02818 0.64788 0.0
H3485 H 0.10137 0.96501 0.65271 0.0
H3486 H 0.08161 0.93857 0.66475 0.0
H3487 H 0.03724 0.96455 0.65976 0.0
H3488 H 0.05681 0.99137 0.64796 0.0
H3489 H 0.10104 0.01961 0.55128 0.0
H3490 H 0.1128 0.01604 0.58199 0.0
H3491 H 0.06111 0.016 0.60232 0.0
H3492 H 0.04898 0.01862 0.57081 0.0
H3493 H 0.07231 0.99157 0.61778 0.0
H3494 H 0.10721 0.05773 0.61841 0.0
H3495 H 0.12778 0.08415 0.6068 0.0
H3496 H 0.16737 0.0511 0.60088 0.0
H3497 H 0.14721 0.02471 0.61282 0.0
C3498 C 0.11398 0.00367 0.70411 0.0
C3499 C 0.13181 1.002 0.70831 0.0
C3500 C 0.1071 0.00476 0.68586 0.0
C3501 C 0.11758 0.00424 0.67053 0.0
C3502 C 0.13541 1.00233 0.67454 0.0
C3503 C 0.14233 1.00111 0.69295 0.0
C3504 C 0.11008 0.00638 0.65088 0.0
C3505 C 0.12046 0.01986 0.64133 0.0
C3506 C 0.09233 0.99613 0.64185 0.0
C3507 C 0.08068 0.9804 0.64965 0.0
C3508 C 0.0875 0.96532 0.65449 0.0
C3509 C 0.07629 0.95018 0.66118 0.0
C3510 C 0.0582 0.94991 0.66308 0.0
C3511 C 0.05127 0.96479 0.6583 0.0
C3512 C 0.06242 0.97996 0.65159 0.0
C3513 C 0.09212 0.01919 0.56231 0.0
C3514 C 0.07406 0.02006 0.55824 0.0
C3515 C 0.09903 0.01729 0.58027 0.0
C3516 C 0.08834 0.01625 0.59546 0.0
C3517 C 0.0701 0.01692 0.59139 0.0
C3518 C 0.0631 0.0187 0.57321 0.0
C3519 C 0.09598 0.0136 0.61492 0.0
C3520 C 0.08564 0.99997 0.62442 0.0
C3521 C 0.11377 0.02366 0.62394 0.0
C3522 C 0.12563 0.03919 0.61625 0.0
C3523 C 0.12025 0.05607 0.61448 0.0
C3524 C 0.13186 0.07105 0.60793 0.0
C3525 C 0.14878 0.06921 0.60293 0.0
C3526 C 0.15423 0.05247 0.60468 0.0
C3527 C 0.14277 0.03756 0.61144 0.0
H3528 H 0.1577 0.0808 0.59781 0.0
H3529 H 0.04953 0.93815 0.66821 0.0
H3530 H 0.7909 0.38768 0.47165 0.0
H3531 H 0.78644 0.36938 0.4389 0.0
H3532 H 0.84434 0.38149 0.43793 0.0
H3533 H 0.84889 0.39911 0.47068 0.0
H3534 H 0.81808 0.38665 0.40395 0.0
H3535 H 0.83204 0.34282 0.44492 0.0
H3536 H 0.82539 0.32631 0.47158 0.0
H3537 H 0.77072 0.30015 0.44609 0.0
H3538 H 0.77701 0.31676 0.41941 0.0
H3539 H 0.83745 0.32832 0.32537 0.0
H3540 H 0.83795 0.34554 0.35752 0.0
H3541 H 0.78746 0.30532 0.36282 0.0
H3542 H 0.78781 0.28706 0.33124 0.0
H3543 H 0.8055 0.3147 0.39444 0.0
H3544 H 0.79066 0.35226 0.3516 0.0
H3545 H 0.7935 0.36948 0.3251 0.0
H3546 H 0.84369 0.40819 0.35292 0.0
H3547 H 0.84136 0.391 0.37943 0.0
C3548 C 0.80263 0.38661 0.46431 0.0
C3549 C 0.82023 0.39466 0.47362 0.0
C3550 C 0.80007 0.37617 0.44572 0.0
C3551 C 0.81509 0.37414 0.43618 0.0
C3552 C 0.83264 0.38297 0.44515 0.0
C3553 C 0.83519 0.39294 0.46382 0.0
C3554 C 0.81274 0.36188 0.4172 0.0
C3555 C 0.81541 0.37093 0.40175 0.0
C3556 C 0.80856 0.3414 0.41447 0.0
C3557 C 0.80493 0.33119 0.43032 0.0
C3558 C 0.81857 0.33369 0.4451 0.0
C3559 C 0.81487 0.32428 0.46019 0.0
C3560 C 0.79762 0.31224 0.46056 0.0
C3561 C 0.78406 0.30951 0.44581 0.0
C3562 C 0.78769 0.3189 0.4307 0.0
C3563 C 0.82656 0.32295 0.33344 0.0
C3564 C 0.81218 0.30666 0.32545 0.0
C3565 C 0.82676 0.33296 0.35179 0.0
C3566 C 0.8123 0.3273 0.36232 0.0
C3567 C 0.7986 0.31025 0.35487 0.0
C3568 C 0.7987 0.29987 0.33669 0.0
C3569 C 0.81136 0.33943 0.38088 0.0
C3570 C 0.80799 0.33039 0.39636 0.0
C3571 C 0.81435 0.35995 0.38351 0.0
C3572 C 0.81588 0.37025 0.36749 0.0
C3573 C 0.80238 0.36435 0.35201 0.0
C3574 C 0.80389 0.37411 0.33699 0.0
C3575 C 0.81875 0.38993 0.33735 0.0
C3576 C 0.83218 0.39595 0.35268 0.0
C3577 C 0.83076 0.38621 0.36771 0.0
H3578 H 0.81985 0.39758 0.32579 0.0
H3579 H 0.79478 0.30499 0.47226 0.0
H3580 H 0.47781 0.07187 0.25483 0.0
H3581 H 0.48932 0.08016 0.22601 0.0
H3582 H 0.43622 0.08303 0.20532 0.0
H3583 H 0.42463 0.07509 0.23463 0.0
H3584 H 0.4508 0.05628 0.18199 0.0
H3585 H 0.46827 0.12304 0.21006 0.0
H3586 H 0.48106 0.15229 0.23488 0.0
H3587 H 0.53357 0.14111 0.23384 0.0
H3588 H 0.52106 0.11162 0.20922 0.0
H3589 H 0.49798 0.05554 0.10114 0.0
H3590 H 0.47995 0.06781 0.12464 0.0
H3591 H 0.52361 0.07589 0.16824 0.0
H3592 H 0.54215 0.06476 0.14469 0.0
H3593 H 0.50742 0.10445 0.17544 0.0
H3594 H 0.48769 0.03343 0.15648 0.0
H3595 H 0.47577 0.0028 0.13307 0.0
H3596 H 0.42826 0.02103 0.1187 0.0
H3597 H 0.44004 0.05188 0.1419 0.0
C3598 C 0.46869 0.07475 0.24434 0.0
C3599 C 0.45034 0.07273 0.24681 0.0
C3600 C 0.4753 0.07964 0.22796 0.0
C3601 C 0.46364 0.08233 0.21361 0.0
C3602 C 0.44544 0.08118 0.21635 0.0
C3603 C 0.43886 0.07668 0.23303 0.0
C3604 C 0.47016 0.08325 0.19497 0.0
C3605 C 0.46282 0.06718 0.18027 0.0
C3606 C 0.486 0.09729 0.19295 0.0
C3607 C 0.49368 0.11506 0.20777 0.0
C3608 C 0.48252 0.12674 0.2152 0.0
C3609 C 0.48973 0.14338 0.22923 0.0
C3610 C 0.50812 0.14855 0.23593 0.0
C3611 C 0.51933 0.1371 0.22861 0.0
C3612 C 0.51219 0.12043 0.21458 0.0
C3613 C 0.50392 0.0603 0.11567 0.0
C3614 C 0.52146 0.05891 0.12107 0.0
C3615 C 0.49352 0.0672 0.1291 0.0
C3616 C 0.50031 0.07246 0.14822 0.0
C3617 C 0.51807 0.07186 0.15355 0.0
C3618 C 0.52856 0.06521 0.14011 0.0
C3619 C 0.4886 0.07695 0.16299 0.0
C3620 C 0.49499 0.09399 0.17688 0.0
C3621 C 0.47201 0.06365 0.16445 0.0
C3622 C 0.46483 0.04502 0.15072 0.0
C3623 C 0.47475 0.03093 0.14824 0.0
C3624 C 0.46802 0.01354 0.13503 0.0
C3625 C 0.4513 0.01 0.12435 0.0
C3626 C 0.44123 0.02381 0.12694 0.0
C3627 C 0.44792 0.04124 0.14012 0.0
H3628 H 0.44611 0.99654 0.11411 0.0
H3629 H 0.51367 0.16144 0.2468 0.0
H3630 H 0.82972 0.73801 0.96967 0.0
H3631 H 0.83493 0.74959 0.9401 0.0
H3632 H 0.78622 0.70709 0.9125 0.0
H3633 H 0.78128 0.69541 0.94187 0.0
H3634 H 0.81171 0.71119 0.88858 0.0
H3635 H 0.78636 0.75442 0.93208 0.0
H3636 H 0.78624 0.77654 0.9622 0.0
H3637 H 0.83692 0.81388 0.95398 0.0
H3638 H 0.83744 0.79183 0.9239 0.0
H3639 H 0.77712 0.75154 0.81769 0.0
H3640 H 0.7828 0.739 0.8459 0.0
H3641 H 0.83213 0.7849 0.86241 0.0
H3642 H 0.82651 0.79762 0.83411 0.0
H3643 H 0.81177 0.78036 0.8919 0.0
H3644 H 0.8353 0.73997 0.84655 0.0
H3645 H 0.83543 0.7186 0.81602 0.0
H3646 H 0.78919 0.67654 0.82724 0.0
H3647 H 0.78861 0.69779 0.85778 0.0
C3648 C 0.82051 0.7308 0.95709 0.0
C3649 C 0.80526 0.71568 0.95786 0.0
C3650 C 0.82336 0.73752 0.94026 0.0
C3651 C 0.81082 0.7294 0.92408 0.0
C3652 C 0.79611 0.71358 0.92471 0.0
C3653 C 0.79331 0.70687 0.94147 0.0
C3654 C 0.81197 0.73823 0.90698 0.0
C3655 C 0.81167 0.7263 0.88931 0.0
C3656 C 0.81241 0.75809 0.90788 0.0
C3657 C 0.81204 0.77138 0.92588 0.0
C3658 C 0.79753 0.76728 0.93677 0.0
C3659 C 0.79739 0.77981 0.95382 0.0
C3660 C 0.81159 0.79657 0.96003 0.0
C3661 C 0.82594 0.80087 0.94917 0.0
C3662 C 0.82617 0.78837 0.93212 0.0
C3663 C 0.78922 0.75897 0.82728 0.0
C3664 C 0.80138 0.77558 0.82362 0.0
C3665 C 0.7925 0.75171 0.84337 0.0
C3666 C 0.80799 0.76087 0.85621 0.0
C3667 C 0.82012 0.77754 0.85268 0.0
C3668 C 0.81692 0.78475 0.83647 0.0
C3669 C 0.81111 0.75322 0.87351 0.0
C3670 C 0.81215 0.76535 0.89118 0.0
C3671 C 0.81143 0.73358 0.87261 0.0
C3672 C 0.81184 0.72055 0.85442 0.0
C3673 C 0.82509 0.72622 0.84247 0.0
C3674 C 0.82525 0.71413 0.82518 0.0
C3675 C 0.81231 0.69626 0.8197 0.0
C3676 C 0.7992 0.6904 0.83152 0.0
C3677 C 0.79897 0.70245 0.84885 0.0
H3678 H 0.81247 0.68697 0.80631 0.0
H3679 H 0.81145 0.80625 0.97323 0.0
H3680 H 0.8506 0.1353 0.0028 0.0
H3681 H 0.87099 0.11407 0.99931 0.0
H3682 H 0.82882 0.06675 0.01 0.0
H3683 H 0.80822 0.08802 0.0137 0.0
H3684 H 0.86201 0.06944 0.02895 0.0
H3685 H 0.83832 0.06748 0.96577 0.0
H3686 H 0.83051 0.08142 0.93878 0.0
H3687 H 0.88664 0.11014 0.93851 0.0
H3688 H 0.89476 0.09658 0.96568 0.0
H3689 H 0.91081 0.99902 0.99921 0.0
H3690 H 0.88713 0.01647 0.0018 0.0
H3691 H 0.92379 0.06666 0.98845 0.0
H3692 H 0.94726 0.0491 0.98515 0.0
H3693 H 0.89118 0.06015 0.96998 0.0
H3694 H 0.9149 0.06451 0.03398 0.0
H3695 H 0.92336 0.05171 0.06152 0.0
H3696 H 0.86806 0.01956 0.06074 0.0
H3697 H 0.85931 0.03199 0.03302 0.0
C3698 C 0.84561 0.1204 0.00447 0.0
C3699 C 0.82772 0.11333 0.00843 0.0
C3700 C 0.8573 0.10826 0.0024 0.0
C3701 C 0.85134 0.08876 0.00412 0.0
C3702 C 0.83365 0.08174 0.00854 0.0
C3703 C 0.8219 0.0939 0.0106 0.0
C3704 C 0.86366 0.07578 0.00115 0.0
C3705 C 0.86816 0.06711 0.01594 0.0
C3706 C 0.87195 0.07309 0.98431 0.0
C3707 C 0.86713 0.08113 0.96786 0.0
C3708 C 0.84898 0.07688 0.96004 0.0
C3709 C 0.84451 0.08469 0.94469 0.0
C3710 C 0.85807 0.09669 0.93696 0.0
C3711 C 0.87615 0.10085 0.94453 0.0
C3712 C 0.8807 0.09308 0.95988 0.0
C3713 C 0.91376 0.01369 0.9966 0.0
C3714 C 0.93097 0.0227 0.99208 0.0
C3715 C 0.90027 0.02371 0.99828 0.0
C3716 C 0.90376 0.04297 0.99557 0.0
C3717 C 0.9208 0.05185 0.99068 0.0
C3718 C 0.93426 0.04184 0.98896 0.0
C3719 C 0.88976 0.05401 0.99788 0.0
C3720 C 0.88493 0.06232 0.98294 0.0
C3721 C 0.88127 0.05646 0.01462 0.0
C3722 C 0.88649 0.04901 0.0313 0.0
C3723 C 0.90457 0.05459 0.03959 0.0
C3724 C 0.90941 0.04742 0.05525 0.0
C3725 C 0.89626 0.03478 0.06284 0.0
C3726 C 0.87823 0.02933 0.05482 0.0
C3727 C 0.87332 0.03644 0.03915 0.0
H3728 H 0.90004 0.02925 0.07497 0.0
H3729 H 0.85457 0.10273 0.92508 0.0
H3730 H 0.37456 0.39731 0.04466 0.0
H3731 H 0.40299 0.4219 0.04739 0.0
H3732 H 0.37407 0.46568 0.04434 0.0
H3733 H 0.34511 0.44071 0.04104 0.0
H3734 H 0.4004 0.46987 0.02254 0.0
H3735 H 0.398 0.46447 0.08632 0.0
H3736 H 0.39347 0.44815 0.11333 0.0
H3737 H 0.43762 0.42278 0.10076 0.0
H3738 H 0.44226 0.43871 0.0735 0.0
H3739 H 0.50169 0.52399 0.063 0.0
H3740 H 0.47026 0.51038 0.06848 0.0
H3741 H 0.46039 0.47355 0.01311 0.0
H3742 H 0.49142 0.48725 0.0074 0.0
H3743 H 0.45176 0.47408 0.06961 0.0
H3744 H 0.41827 0.46841 0.99364 0.0
H3745 H 0.42297 0.48678 0.96806 0.0
H3746 H 0.44996 0.53883 0.00822 0.0
H3747 H 0.44516 0.52088 0.03408 0.0
C3748 C 0.3741 0.41217 0.04472 0.0
C3749 C 0.35744 0.41698 0.04266 0.0
C3750 C 0.39048 0.42631 0.04643 0.0
C3751 C 0.39078 0.44578 0.04644 0.0
C3752 C 0.37421 0.45077 0.0445 0.0
C3753 C 0.35767 0.4365 0.04267 0.0
C3754 C 0.40852 0.46039 0.04743 0.0
C3755 C 0.41156 0.47094 0.03296 0.0
C3756 C 0.42306 0.46228 0.06131 0.0
C3757 C 0.42043 0.45275 0.0778 0.0
C3758 C 0.40668 0.45533 0.08924 0.0
C3759 C 0.4041 0.44615 0.10461 0.0
C3760 C 0.41524 0.43442 0.10874 0.0
C3761 C 0.42901 0.43188 0.09754 0.0
C3762 C 0.43164 0.44101 0.08215 0.0
C3763 C 0.49276 0.51315 0.05192 0.0
C3764 C 0.49904 0.50698 0.03464 0.0
C3765 C 0.47483 0.5053 0.05512 0.0
C3766 C 0.46284 0.4912 0.04107 0.0
C3767 C 0.46924 0.48473 0.02401 0.0
C3768 C 0.48708 0.49253 0.02081 0.0
C3769 C 0.44376 0.48267 0.0442 0.0
C3770 C 0.4405 0.47329 0.05943 0.0
C3771 C 0.42897 0.4822 0.03126 0.0
C3772 C 0.43143 0.49324 0.0158 0.0
C3773 C 0.42508 0.48381 0.99704 0.0
C3774 C 0.42779 0.49415 0.98249 0.0
C3775 C 0.43679 0.51395 0.98651 0.0
C3776 C 0.44303 0.52348 0.00511 0.0
C3777 C 0.44032 0.51323 0.01972 0.0
H3778 H 0.43891 0.52191 0.97521 0.0
H3779 H 0.41321 0.42732 0.12064 0.0
H3780 H 0.36783 0.59806 0.76487 0.0
H3781 H 0.35504 0.62566 0.76515 0.0
H3782 H 0.40846 0.66471 0.77782 0.0
H3783 H 0.42153 0.63659 0.77805 0.0
H3784 H 0.38704 0.68423 0.795 0.0
H3785 H 0.38055 0.65099 0.73108 0.0
H3786 H 0.37184 0.62329 0.70401 0.0
H3787 H 0.31607 0.61399 0.71447 0.0
H3788 H 0.32448 0.6415 0.74176 0.0
H3789 H 0.33577 0.74138 0.73537 0.0
H3790 H 0.34928 0.71458 0.73828 0.0
H3791 H 0.33783 0.71943 0.796 0.0
H3792 H 0.3239 0.74642 0.79292 0.0
H3793 H 0.33973 0.67918 0.74329 0.0
H3794 H 0.37041 0.7027 0.82149 0.0
H3795 H 0.38242 0.73292 0.84544 0.0
H3796 H 0.39466 0.76549 0.80179 0.0
H3797 H 0.38296 0.73545 0.77762 0.0
C3798 C 0.37715 0.61241 0.76777 0.0
C3799 C 0.39605 0.6144 0.77131 0.0
C3800 C 0.36962 0.62856 0.76776 0.0
C3801 C 0.38042 0.648 0.77099 0.0
C3802 C 0.39936 0.65024 0.77509 0.0
C3803 C 0.40699 0.6339 0.77521 0.0
C3804 C 0.37179 0.66537 0.76976 0.0
C3805 C 0.37661 0.68284 0.78368 0.0
C3806 C 0.35829 0.66472 0.75493 0.0
C3807 C 0.35317 0.64818 0.73857 0.0
C3808 C 0.36644 0.64295 0.72768 0.0
C3809 C 0.36156 0.6273 0.71229 0.0
C3810 C 0.34342 0.61686 0.70756 0.0
C3811 C 0.33012 0.62208 0.71817 0.0
C3812 C 0.33493 0.63771 0.73359 0.0
C3813 C 0.33583 0.73669 0.74872 0.0
C3814 C 0.32823 0.74632 0.76373 0.0
C3815 C 0.34372 0.7211 0.7504 0.0
C3816 C 0.34508 0.71439 0.76743 0.0
C3817 C 0.33743 0.72395 0.7826 0.0
C3818 C 0.32916 0.73948 0.78079 0.0
C3819 C 0.35445 0.69768 0.76887 0.0
C3820 C 0.3499 0.68041 0.75483 0.0
C3821 C 0.36843 0.69875 0.78332 0.0
C3822 C 0.37559 0.71684 0.79776 0.0
C3823 C 0.3757 0.7163 0.81702 0.0
C3824 C 0.38246 0.7334 0.83063 0.0
C3825 C 0.38924 0.75112 0.82514 0.0
C3826 C 0.38934 0.75177 0.80603 0.0
C3827 C 0.38262 0.73471 0.79238 0.0
H3828 H 0.39444 0.76432 0.83571 0.0
H3829 H 0.33966 0.60475 0.69563 0.0
H3830 H 0.23634 0.64471 0.53843 0.0
H3831 H 0.20409 0.62829 0.53206 0.0
H3832 H 0.21335 0.59575 0.47926 0.0
H3833 H 0.2459 0.61189 0.48592 0.0
H3834 H 0.18666 0.63586 0.50163 0.0
H3835 H 0.17273 0.55551 0.46586 0.0
H3836 H 0.18565 0.52741 0.46568 0.0
H3837 H 0.2093 0.55091 0.52288 0.0
H3838 H 0.1963 0.57899 0.5235 0.0
H3839 H 0.09061 0.6035 0.47382 0.0
H3840 H 0.12302 0.60958 0.47099 0.0
H3841 H 0.12835 0.57485 0.51246 0.0
H3842 H 0.09598 0.56647 0.51296 0.0
H3843 H 0.14868 0.56781 0.48822 0.0
H3844 H 0.1529 0.64013 0.52635 0.0
H3845 H 0.14197 0.6698 0.52826 0.0
H3846 H 0.14095 0.66411 0.46826 0.0
H3847 H 0.15186 0.63442 0.4662 0.0
C3848 C 0.2316 0.63343 0.52588 0.0
C3849 C 0.24348 0.62959 0.51262 0.0
C3850 C 0.21319 0.62416 0.52217 0.0
C3851 C 0.20632 0.61109 0.50504 0.0
C3852 C 0.2184 0.60576 0.49258 0.0
C3853 C 0.23698 0.6149 0.49644 0.0
C3854 C 0.18658 0.60571 0.49928 0.0
C3855 C 0.17834 0.62094 0.49871 0.0
C3856 C 0.17586 0.58628 0.49473 0.0
C3857 C 0.18378 0.5695 0.49461 0.0
C3858 C 0.18069 0.55467 0.4784 0.0
C3859 C 0.18801 0.53874 0.47823 0.0
C3860 C 0.19837 0.53743 0.49423 0.0
C3861 C 0.20137 0.55201 0.51046 0.0
C3862 C 0.19406 0.56796 0.51071 0.0
C3863 C 0.0988 0.59734 0.48244 0.0
C3864 C 0.09074 0.58535 0.49447 0.0
C3865 C 0.11744 0.60111 0.48106 0.0
C3866 C 0.12851 0.59355 0.4922 0.0
C3867 C 0.12031 0.58116 0.50383 0.0
C3868 C 0.10164 0.57668 0.5045 0.0
C3869 C 0.14854 0.59809 0.492 0.0
C3870 C 0.15698 0.58272 0.49101 0.0
C3871 C 0.15957 0.61743 0.49509 0.0
C3872 C 0.15221 0.6346 0.49607 0.0
C3873 C 0.14983 0.64497 0.51359 0.0
C3874 C 0.14386 0.66189 0.5147 0.0
C3875 C 0.14047 0.66867 0.49835 0.0
C3876 C 0.14333 0.65871 0.48089 0.0
C3877 C 0.14943 0.64186 0.47976 0.0
H3878 H 0.13583 0.68175 0.49923 0.0
H3879 H 0.20403 0.52508 0.49406 0.0
H3880 H 0.71606 0.97702 0.73092 0.0
H3881 H 0.7295 0.9558 0.74657 0.0
H3882 H 0.77319 0.00505 0.77374 0.0
H3883 H 0.75982 0.02647 0.7582 0.0
H3884 H 0.78431 0.97048 0.76155 0.0
H3885 H 0.74032 0.99296 0.79758 0.0
H3886 H 0.7104 0.99898 0.8022 0.0
H3887 H 0.68528 0.93758 0.78681 0.0
H3888 H 0.71503 0.93121 0.78175 0.0
H3889 H 0.79017 0.92238 0.8467 0.0
H3890 H 0.78187 0.94634 0.83053 0.0
H3891 H 0.77118 0.90486 0.77786 0.0
H3892 H 0.77791 0.88024 0.79404 0.0
H3893 H 0.74559 0.93836 0.80521 0.0
H3894 H 0.79592 0.94037 0.74828 0.0
H3895 H 0.82636 0.93545 0.74432 0.0
H3896 H 0.84032 0.95062 0.80426 0.0
H3897 H 0.81026 0.95625 0.80855 0.0
C3898 C 0.72871 0.98331 0.73993 0.0
C3899 C 0.73677 0.00347 0.7435 0.0
C3900 C 0.73634 0.97116 0.74889 0.0
C3901 C 0.75218 0.97895 0.76147 0.0
C3902 C 0.76093 0.99882 0.7641 0.0
C3903 C 0.75323 0.01102 0.75526 0.0
C3904 C 0.7587 0.96665 0.77305 0.0
C3905 C 0.77588 0.96343 0.77109 0.0
C3906 C 0.74778 0.95787 0.78578 0.0
C3907 C 0.72989 0.96162 0.78911 0.0
C3908 C 0.7284 0.98075 0.79504 0.0
C3909 C 0.71148 0.98423 0.79775 0.0
C3910 C 0.69594 0.96868 0.79476 0.0
C3911 C 0.69732 0.94961 0.7891 0.0
C3912 C 0.71421 0.94606 0.78631 0.0
C3913 C 0.78581 0.91818 0.83173 0.0
C3914 C 0.78482 0.8993 0.82171 0.0
C3915 C 0.78122 0.93197 0.82252 0.0
C3916 C 0.77614 0.92735 0.80305 0.0
C3917 C 0.77534 0.90871 0.79289 0.0
C3918 C 0.77942 0.89474 0.80216 0.0
C3919 C 0.77101 0.94178 0.79335 0.0
C3920 C 0.75404 0.9454 0.79567 0.0
C3921 C 0.78225 0.9511 0.78118 0.0
C3922 C 0.80059 0.9482 0.77875 0.0
C3923 C 0.80548 0.94266 0.76062 0.0
C3924 C 0.8227 0.9398 0.75831 0.0
C3925 C 0.83518 0.9425 0.77403 0.0
C3926 C 0.83057 0.94832 0.79209 0.0
C3927 C 0.81342 0.95131 0.79447 0.0
H3928 H 0.84847 0.9402 0.77221 0.0
H3929 H 0.68285 0.9714 0.79687 0.0
H3930 H 0.77812 0.9558 0.55217 0.0
H3931 H 0.75393 0.97175 0.54818 0.0
H3932 H 0.7193 0.91775 0.51608 0.0
H3933 H 0.74371 0.90174 0.51965 0.0
H3934 H 0.71587 0.94639 0.4997 0.0
H3935 H 0.71343 0.9362 0.56259 0.0
H3936 H 0.72506 0.93725 0.59529 0.0
H3937 H 0.74148 0.99972 0.60558 0.0
H3938 H 0.73018 0.99905 0.57285 0.0
H3939 H 0.6383 0.98551 0.50204 0.0
H3940 H 0.65862 0.96511 0.5076 0.0
H3941 H 0.69989 0.01628 0.53558 0.0
H3942 H 0.67966 0.03665 0.53033 0.0
H3943 H 0.69748 0.98634 0.55437 0.0
H3944 H 0.70152 0.99566 0.49032 0.0
H3945 H 0.68924 0.99406 0.4577 0.0
H3946 H 0.66869 0.93204 0.45001 0.0
H3947 H 0.68065 0.93331 0.48269 0.0
C3948 C 0.76536 0.94724 0.54428 0.0
C3949 C 0.76289 0.92742 0.5363 0.0
C3950 C 0.75145 0.9564 0.5421 0.0
C3951 C 0.73458 0.94594 0.5321 0.0
C3952 C 0.73212 0.92617 0.52393 0.0
C3953 C 0.7461 0.91701 0.52602 0.0
C3954 C 0.71973 0.9558 0.5299 0.0
C3955 C 0.71164 0.95482 0.51172 0.0
C3956 C 0.71426 0.96707 0.5455 0.0
C3957 C 0.72109 0.96756 0.5652 0.0
C3958 C 0.71965 0.95016 0.57178 0.0
C3959 C 0.72616 0.95069 0.59033 0.0
C3960 C 0.73405 0.96854 0.60249 0.0
C3961 C 0.73539 0.9859 0.59614 0.0
C3962 C 0.72891 0.98546 0.57759 0.0
C3963 C 0.65161 0.99239 0.50959 0.0
C3964 C 0.65737 0.01277 0.51556 0.0
C3965 C 0.66328 0.98072 0.51263 0.0
C3966 C 0.68091 0.98916 0.52182 0.0
C3967 C 0.68642 0.0094 0.52838 0.0
C3968 C 0.67486 0.02106 0.5252 0.0
C3969 C 0.69389 0.97713 0.52419 0.0
C3970 C 0.70161 0.97772 0.54241 0.0
C3971 C 0.69892 0.96539 0.50866 0.0
C3972 C 0.6918 0.96461 0.489 0.0
C3973 C 0.69426 0.9817 0.48172 0.0
C3974 C 0.68737 0.98085 0.46321 0.0
C3975 C 0.67814 0.96297 0.45181 0.0
C3976 C 0.67581 0.94589 0.45887 0.0
C3977 C 0.68265 0.94666 0.47738 0.0
H3978 H 0.67282 0.96234 0.43748 0.0
H3979 H 0.73908 0.96892 0.61685 0.0
H3980 H 0.42058 0.49733 0.78777 0.0
H3981 H 0.40163 0.46458 0.78571 0.0
H3982 H 0.36202 0.47543 0.74719 0.0
H3983 H 0.38111 0.50902 0.74968 0.0
H3984 H 0.34461 0.45172 0.76922 0.0
H3985 H 0.39291 0.44855 0.73164 0.0
H3986 H 0.42449 0.45503 0.72397 0.0
H3987 H 0.43845 0.42637 0.76744 0.0
H3988 H 0.407 0.41995 0.77556 0.0
H3989 H 0.30389 0.34757 0.74281 0.0
H3990 H 0.31843 0.38172 0.74252 0.0
H3991 H 0.36255 0.38042 0.7816 0.0
H3992 H 0.3481 0.34642 0.78196 0.0
H3993 H 0.37614 0.39926 0.75598 0.0
H3994 H 0.32709 0.40367 0.7939 0.0
H3995 H 0.29497 0.39609 0.79978 0.0
H3996 H 0.2818 0.42142 0.75339 0.0
H3997 H 0.31381 0.42888 0.74705 0.0
C3998 C 0.40774 0.49297 0.77896 0.0
C3999 C 0.40259 0.50608 0.76883 0.0
C4000 C 0.39687 0.47397 0.77767 0.0
C4001 C 0.38043 0.46688 0.76584 0.0
C4002 C 0.37466 0.4802 0.75634 0.0
C4003 C 0.38558 0.49955 0.75782 0.0
C4004 C 0.37 0.44551 0.7632 0.0
C4005 C 0.3515 0.4403 0.76602 0.0
C4006 C 0.37869 0.43016 0.75918 0.0
C4007 C 0.39762 0.4339 0.7543 0.0
C4008 C 0.40274 0.44374 0.73965 0.0
C4009 C 0.42061 0.44739 0.73521 0.0
C4010 C 0.43347 0.44115 0.74524 0.0
C4011 C 0.42847 0.43121 0.7597 0.0
C4012 C 0.41062 0.42754 0.76421 0.0
C4013 C 0.31657 0.35456 0.75155 0.0
C4014 C 0.3245 0.34397 0.76266 0.0
C4015 C 0.32497 0.37427 0.75137 0.0
C4016 C 0.34165 0.38419 0.76229 0.0
C4017 C 0.34973 0.37347 0.77305 0.0
C4018 C 0.34134 0.35383 0.77326 0.0
C4019 C 0.35088 0.40548 0.76243 0.0
C4020 C 0.3692 0.41067 0.75912 0.0
C4021 C 0.34195 0.42069 0.76579 0.0
C4022 C 0.32281 0.41668 0.7699 0.0
C4023 C 0.31733 0.40755 0.7849 0.0
C4024 C 0.29915 0.40327 0.78832 0.0
C4025 C 0.28635 0.40824 0.77694 0.0
C4026 C 0.29173 0.41757 0.76218 0.0
C4027 C 0.30989 0.42183 0.75867 0.0
H4028 H 0.27227 0.40489 0.77959 0.0
H4029 H 0.4473 0.44399 0.74178 0.0
H4030 H 0.2415 0.58225 0.23493 0.0
H4031 H 0.26522 0.61124 0.23234 0.0
H4032 H 0.25213 0.64267 0.2837 0.0
H4033 H 0.22842 0.61402 0.28618 0.0
H4034 H 0.25612 0.64323 0.22694 0.0
H4035 H 0.28749 0.68029 0.30503 0.0
H4036 H 0.30026 0.67092 0.33284 0.0
H4037 H 0.30936 0.6205 0.29761 0.0
H4038 H 0.29722 0.62987 0.2695 0.0
H4039 H 0.26116 0.74207 0.25391 0.0
H4040 H 0.25748 0.70707 0.24499 0.0
H4041 H 0.31473 0.7157 0.26013 0.0
H4042 H 0.31787 0.75049 0.27036 0.0
H4043 H 0.29861 0.69159 0.27731 0.0
H4044 H 0.29199 0.68278 0.20803 0.0
H4045 H 0.28116 0.68697 0.17664 0.0
H4046 H 0.22687 0.67798 0.19189 0.0
H4047 H 0.23726 0.6728 0.22299 0.0
C4048 C 0.2442 0.59515 0.246 0.0
C4049 C 0.23311 0.59604 0.26068 0.0
C4050 C 0.25767 0.6117 0.24448 0.0
C4051 C 0.26043 0.62912 0.25785 0.0
C4052 C 0.25039 0.62935 0.27338 0.0
C4053 C 0.23679 0.61302 0.27472 0.0
C4054 C 0.27112 0.64792 0.2542 0.0
C4055 C 0.26573 0.6537 0.23781 0.0
C4056 C 0.28394 0.6615 0.26815 0.0
C4057 C 0.29131 0.65577 0.28509 0.0
C4058 C 0.29237 0.66731 0.30315 0.0
C4059 C 0.2995 0.66199 0.319 0.0
C4060 C 0.30554 0.64509 0.31701 0.0
C4061 C 0.30459 0.63355 0.29915 0.0
C4062 C 0.29759 0.63886 0.28324 0.0
C4063 C 0.27305 0.7365 0.25457 0.0
C4064 C 0.28998 0.74905 0.26214 0.0
C4065 C 0.271 0.71645 0.24928 0.0
C4066 C 0.28589 0.70853 0.25142 0.0
C4067 C 0.30302 0.72131 0.25813 0.0
C4068 C 0.3049 0.74128 0.26387 0.0
C4069 C 0.28285 0.68719 0.25047 0.0
C4070 C 0.28955 0.68098 0.26613 0.0
C4071 C 0.2715 0.67308 0.23573 0.0
C4072 C 0.26545 0.67785 0.21788 0.0
C4073 C 0.27779 0.68193 0.20472 0.0
C4074 C 0.27169 0.68418 0.18691 0.0
C4075 C 0.25338 0.68294 0.18235 0.0
C4076 C 0.24107 0.67907 0.19548 0.0
C4077 C 0.24701 0.67627 0.2131 0.0
H4078 H 0.24874 0.68489 0.16863 0.0
H4079 H 0.31099 0.64097 0.3293 0.0
H4080 H 0.53465 0.70803 0.42879 0.0
H4081 H 0.54128 0.68011 0.44008 0.0
H4082 H 0.51073 0.69036 0.48708 0.0
H4083 H 0.50407 0.71802 0.47596 0.0
H4084 H 0.5416 0.68251 0.49878 0.0
H4085 H 0.49312 0.65329 0.44914 0.0
H4086 H 0.47779 0.64657 0.41686 0.0
H4087 H 0.52068 0.62338 0.39523 0.0
H4088 H 0.5364 0.63021 0.42738 0.0
H4089 H 0.5374 0.59064 0.528 0.0
H4090 H 0.53325 0.62094 0.51994 0.0
H4091 H 0.55139 0.6053 0.46551 0.0
H4092 H 0.55369 0.57445 0.47295 0.0
H4093 H 0.52549 0.61659 0.45826 0.0
H4094 H 0.57827 0.65939 0.50606 0.0
H4095 H 0.59514 0.67157 0.53779 0.0
H4096 H 0.54516 0.66917 0.56222 0.0
H4097 H 0.52812 0.65802 0.53048 0.0
C4098 C 0.52939 0.70438 0.44156 0.0
C4099 C 0.51875 0.71538 0.45135 0.0
C4100 C 0.53312 0.68831 0.44798 0.0
C4101 C 0.5264 0.68286 0.46444 0.0
C4102 C 0.51611 0.69409 0.47439 0.0
C4103 C 0.51225 0.70997 0.46791 0.0
C4104 C 0.52995 0.66554 0.47138 0.0
C4105 C 0.53798 0.66806 0.4899 0.0
C4106 C 0.52546 0.64659 0.45996 0.0
C4107 C 0.51602 0.64245 0.44064 0.0
C4108 C 0.49935 0.6469 0.43748 0.0
C4109 C 0.49058 0.64304 0.41921 0.0
C4110 C 0.49828 0.6346 0.404 0.0
C4111 C 0.51475 0.62995 0.40703 0.0
C4112 C 0.52359 0.63379 0.42527 0.0
C4113 C 0.5409 0.59399 0.51452 0.0
C4114 C 0.54617 0.58024 0.50124 0.0
C4115 C 0.53867 0.61153 0.50988 0.0
C4116 C 0.54214 0.61602 0.49203 0.0
C4117 C 0.5483 0.60251 0.47927 0.0
C4118 C 0.54984 0.58483 0.48361 0.0
C4119 C 0.53794 0.63351 0.48562 0.0
C4120 C 0.52946 0.63101 0.46716 0.0
C4121 C 0.54211 0.65251 0.49705 0.0
C4122 C 0.55197 0.65736 0.51608 0.0
C4123 C 0.57091 0.66124 0.51826 0.0
C4124 C 0.5805 0.66819 0.53619 0.0
C4125 C 0.57121 0.67084 0.55205 0.0
C4126 C 0.55233 0.66693 0.54996 0.0
C4127 C 0.54272 0.6605 0.532 0.0
H4128 H 0.57867 0.67606 0.56594 0.0
H4129 H 0.49146 0.63162 0.38986 0.0
H4130 H 0.62384 0.31731 0.66654 0.0
H4131 H 0.65021 0.3165 0.68718 0.0
H4132 H 0.68243 0.31798 0.64054 0.0
H4133 H 0.65641 0.3188 0.62001 0.0
H4134 H 0.68673 0.2899 0.65871 0.0
H4135 H 0.68832 0.35782 0.67622 0.0
H4136 H 0.67593 0.3857 0.68764 0.0
H4137 H 0.66718 0.36646 0.73973 0.0
H4138 H 0.67931 0.33831 0.72851 0.0
H4139 H 0.77343 0.30286 0.70629 0.0
H4140 H 0.74789 0.30788 0.6879 0.0
H4141 H 0.71936 0.31207 0.7373 0.0
H4142 H 0.74515 0.30762 0.75594 0.0
H4143 H 0.71263 0.3371 0.71826 0.0
H4144 H 0.71169 0.26975 0.70161 0.0
H4145 H 0.72441 0.242 0.69072 0.0
H4146 H 0.73079 0.25893 0.6373 0.0
H4147 H 0.71848 0.28705 0.64802 0.0
C4148 C 0.6366 0.31771 0.66074 0.0
C4149 C 0.63786 0.31812 0.64152 0.0
C4150 C 0.65171 0.31725 0.67257 0.0
C4151 C 0.66843 0.31716 0.66548 0.0
C4152 C 0.66975 0.31793 0.64642 0.0
C4153 C 0.65477 0.31848 0.63467 0.0
C4154 C 0.68446 0.31564 0.67754 0.0
C4155 C 0.6925 0.30036 0.67163 0.0
C4156 C 0.69181 0.32894 0.69468 0.0
C4157 C 0.68454 0.34585 0.70144 0.0
C4158 C 0.68361 0.35944 0.69005 0.0
C4159 C 0.67666 0.37531 0.69649 0.0
C4160 C 0.67072 0.37781 0.71438 0.0
C4161 C 0.67176 0.36448 0.72587 0.0
C4162 C 0.67868 0.34858 0.71948 0.0
C4163 C 0.76182 0.305 0.71335 0.0
C4164 C 0.76143 0.30469 0.73268 0.0
C4165 C 0.7471 0.3078 0.70273 0.0
C4166 C 0.73139 0.31002 0.71102 0.0
C4167 C 0.73121 0.31036 0.73045 0.0
C4168 C 0.74602 0.30775 0.74113 0.0
C4169 C 0.71498 0.31138 0.6994 0.0
C4170 C 0.70686 0.32659 0.70538 0.0
C4171 C 0.70742 0.29789 0.68237 0.0
C4172 C 0.71438 0.28068 0.67572 0.0
C4173 C 0.71592 0.26764 0.68759 0.0
C4174 C 0.72307 0.25185 0.68145 0.0
C4175 C 0.72849 0.24876 0.66336 0.0
C4176 C 0.72664 0.26137 0.65133 0.0
C4177 C 0.71959 0.27725 0.65743 0.0
H4178 H 0.73406 0.23655 0.65865 0.0
H4179 H 0.66534 0.39011 0.71934 0.0
H4180 H 0.01488 0.32272 0.98319 0.0
H4181 H 0.02078 0.35798 0.99307 0.0
H4182 H 0.04532 0.36559 0.94211 0.0
H4183 H 0.03989 0.33022 0.93237 0.0
H4184 H 0.06345 0.39346 0.96976 0.0
H4185 H 1.0004 0.36758 0.94788 0.0
H4186 H 0.96946 0.34656 0.94633 0.0
H4187 H 0.96681 0.37117 0.00421 0.0
H4188 H 0.99785 0.39215 0.00618 0.0
H4189 H 0.05104 0.4872 0.96576 0.0
H4190 H 0.04629 0.45178 0.95913 0.0
H4191 H 0.03736 0.45062 0.017 0.0
H4192 H 0.04292 0.48622 0.02389 0.0
H4193 H 0.01145 0.42006 0.98719 0.0
H4194 H 0.07492 0.44703 0.00794 0.0
H4195 H 0.10511 0.46901 0.00777 0.0
H4196 H 0.10608 0.44288 0.94996 0.0
H4197 H 0.07573 0.42098 0.94966 0.0
C4198 C 0.02176 0.33186 0.97416 0.0
C4199 C 0.02682 0.3235 0.9569 0.0
C4200 C 0.02501 0.35211 0.97978 0.0
C4201 C 0.03311 0.36462 0.96816 0.0
C4202 C 0.03895 0.35637 0.95133 0.0
C4203 C 0.03586 0.33607 0.94577 0.0
C4204 C 0.035 0.38614 0.97331 0.0
C4205 C 0.052 0.39919 0.97338 0.0
C4206 C 0.02019 0.39389 0.97837 0.0
C4207 C 1.00154 0.38126 0.97724 0.0
C4208 C 0.99328 0.36839 0.96033 0.0
C4209 C 0.97571 0.3565 0.95936 0.0
C4210 C 0.9662 0.35748 0.97518 0.0
C4211 C 0.97421 0.37039 0.99198 0.0
C4212 C 0.99179 0.38229 0.99303 0.0
C4213 C 0.04786 0.47937 0.97703 0.0
C4214 C 0.04694 0.48951 0.99525 0.0
C4215 C 0.04518 0.45914 0.97323 0.0
C4216 C 0.04147 0.44851 0.98755 0.0
C4217 C 0.04011 0.4585 0.00569 0.0
C4218 C 0.04314 0.47885 0.00959 0.0
C4219 C 0.03981 0.42713 0.98361 0.0
C4220 C 0.02287 0.41421 0.9837 0.0
C4221 C 0.05459 0.41951 0.97852 0.0
C4222 C 0.07295 0.43249 0.97872 0.0
C4223 C 0.08149 0.44609 0.99513 0.0
C4224 C 0.09865 0.45852 0.99513 0.0
C4225 C 0.10748 0.45737 0.97885 0.0
C4226 C 0.0992 0.44376 0.96255 0.0
C4227 C 0.08203 0.43133 0.96246 0.0
H4228 H 0.12076 0.467 0.97887 0.0
H4229 H 0.95259 0.34827 0.97441 0.0
H4230 H 0.02531 0.79916 0.13871 0.0
H4231 H 0.998 0.79484 0.15511 0.0
H4232 H 0.02994 0.82823 0.20675 0.0
H4233 H 0.05726 0.83246 0.19053 0.0
H4234 H 0.00706 0.79643 0.21327 0.0
H4235 H 0.00212 0.84732 0.18035 0.0
H4236 H 1.00077 0.86234 0.15257 0.0
H4237 H 0.95345 0.81691 0.12753 0.0
H4238 H 0.95467 0.80147 0.15508 0.0
H4239 H 0.93994 0.81537 0.26968 0.0
H4240 H 0.96476 0.81956 0.25001 0.0
H4241 H 0.9283 0.78496 0.20166 0.0
H4242 H 0.90319 0.78079 0.22143 0.0
H4243 H 0.95231 0.81533 0.19195 0.0
H4244 H 0.95654 0.76498 0.2251 0.0
H4245 H 0.95768 0.74987 0.25284 0.0
H4246 H 0.00629 0.79379 0.27711 0.0
H4247 H 0.00529 0.80935 0.24963 0.0
C4248 C 0.02655 0.80561 0.15356 0.0
C4249 C 0.04358 0.81619 0.16325 0.0
C4250 C 0.01086 0.80321 0.16292 0.0
C4251 C 0.01178 0.81135 0.1822 0.0
C4252 C 0.02879 0.82179 0.1919 0.0
C4253 C 0.04445 0.82425 0.18256 0.0
C4254 C 0.99518 0.80877 0.19242 0.0
C4255 C 0.9952 0.8008 0.20869 0.0
C4256 C 0.97937 0.81385 0.18623 0.0
C4257 C 0.97861 0.82312 0.16968 0.0
C4258 C 0.99152 0.84044 0.16885 0.0
C4259 C 0.99076 0.84905 0.15316 0.0
C4260 C 0.97707 0.84055 0.13827 0.0
C4261 C 0.96407 0.82346 0.13906 0.0
C4262 C 0.96478 0.81478 0.15472 0.0
C4263 C 0.93713 0.80867 0.25484 0.0
C4264 C 0.91957 0.79748 0.24723 0.0
C4265 C 0.95139 0.81107 0.24358 0.0
C4266 C 0.9486 0.80221 0.22438 0.0
C4267 C 0.93089 0.79185 0.21645 0.0
C4268 C 0.91651 0.78951 0.22776 0.0
C4269 C 0.96436 0.80329 0.21295 0.0
C4270 C 0.96416 0.8109 0.19646 0.0
C4271 C 0.98002 0.79782 0.21888 0.0
C4272 C 0.98075 0.78842 0.23537 0.0
C4273 C 0.96741 0.77149 0.23641 0.0
C4274 C 0.96804 0.76284 0.25208 0.0
C4275 C 0.98203 0.77089 0.26675 0.0
C4276 C 0.99545 0.78758 0.26575 0.0
C4277 C 0.99487 0.79632 0.25012 0.0
H4278 H 0.98249 0.76416 0.27887 0.0
H4279 H 0.9765 0.84724 0.12614 0.0
H4280 H 0.48015 0.29076 0.11092 0.0
H4281 H 0.48769 0.31264 0.08895 0.0
H4282 H 0.53395 0.34758 0.12744 0.0
H4283 H 0.52644 0.32575 0.14964 0.0
H4284 H 0.51487 0.36993 0.11231 0.0
H4285 H 0.54011 0.31675 0.0897 0.0
H4286 H 0.5397 0.28223 0.07937 0.0
H4287 H 0.49895 0.2762 0.03379 0.0
H4288 H 0.49893 0.31064 0.044 0.0
H4289 H 0.55506 0.42474 0.0471 0.0
H4290 H 0.54976 0.40327 0.06977 0.0
H4291 H 0.50605 0.3633 0.03111 0.0
H4292 H 0.51162 0.38455 0.0082 0.0
H4293 H 0.52501 0.34369 0.04697 0.0
H4294 H 0.49874 0.39631 0.07014 0.0
H4295 H 0.49858 0.43066 0.08066 0.0
H4296 H 0.54071 0.43766 0.12515 0.0
H4297 H 0.54123 0.40339 0.1148 0.0
C4298 C 0.4919 0.30313 0.11479 0.0
C4299 C 0.50273 0.30645 0.13203 0.0
C4300 C 0.49623 0.31558 0.10216 0.0
C4301 C 0.51152 0.3316 0.10644 0.0
C4302 C 0.52213 0.33526 0.12383 0.0
C4303 C 0.51783 0.32275 0.13647 0.0
C4304 C 0.51643 0.3444 0.09268 0.0
C4305 C 0.51735 0.36427 0.09811 0.0
C4306 C 0.51929 0.33691 0.07403 0.0
C4307 C 0.5194 0.31624 0.06773 0.0
C4308 C 0.53097 0.30803 0.07755 0.0
C4309 C 0.53082 0.28848 0.07171 0.0
C4310 C 0.51927 0.27701 0.05597 0.0
C4311 C 0.50788 0.2851 0.04599 0.0
C4312 C 0.50795 0.30464 0.0518 0.0
C4313 C 0.54433 0.41135 0.04345 0.0
C4314 C 0.53368 0.40637 0.02593 0.0
C4315 C 0.54126 0.39912 0.05644 0.0
C4316 C 0.52725 0.38183 0.05234 0.0
C4317 C 0.5169 0.37658 0.03464 0.0
C4318 C 0.52011 0.38871 0.02154 0.0
C4319 C 0.52329 0.36926 0.06651 0.0
C4320 C 0.52257 0.34941 0.06118 0.0
C4321 C 0.52054 0.37677 0.08524 0.0
C4322 C 0.52014 0.39734 0.09158 0.0
C4323 C 0.50805 0.40521 0.0821 0.0
C4324 C 0.50787 0.42465 0.08805 0.0
C4325 C 0.51965 0.43634 0.10354 0.0
C4326 C 0.53159 0.42859 0.11316 0.0
C4327 C 0.53182 0.40915 0.10727 0.0
H4328 H 0.51951 0.4514 0.10812 0.0
H4329 H 0.51916 0.26187 0.05147 0.0
H4330 H 0.06082 0.32241 0.36638 0.0
H4331 H 0.03676 0.32445 0.34359 0.0
H4332 H 0.99795 0.3132 0.3835 0.0
H4333 H 0.02185 0.31144 0.40638 0.0
H4334 H 0.00397 0.30172 0.32602 0.0
H4335 H 0.97169 0.34432 0.38412 0.0
H4336 H 0.98104 0.36609 0.41534 0.0
H4337 H 0.03551 0.38336 0.40124 0.0
H4338 H 0.02643 0.36194 0.36985 0.0
H4339 H 0.91693 0.30583 0.29106 0.0
H4340 H 0.94344 0.30135 0.30815 0.0
H4341 H 0.96758 0.36335 0.31925 0.0
H4342 H 0.9405 0.36812 0.30347 0.0
H4343 H 0.97171 0.35153 0.34947 0.0
H4344 H 0.9827 0.32918 0.28647 0.0
H4345 H 0.97574 0.30992 0.25398 0.0
H4346 H 0.96809 0.25703 0.27504 0.0
H4347 H 0.97477 0.27596 0.30767 0.0
C4348 C 0.0471 0.32 0.37017 0.0
C4349 C 0.0433 0.31704 0.3883 0.0
C4350 C 0.03337 0.32116 0.35712 0.0
C4351 C 0.01566 0.31938 0.36201 0.0
C4352 C 0.0116 0.315 0.37958 0.0
C4353 C 0.02529 0.31396 0.39263 0.0
C4354 C 1.0017 0.32357 0.3495 0.0
C4355 C 0.99688 0.31259 0.33108 0.0
C4356 C 0.99288 0.33819 0.35595 0.0
C4357 C 0.9984 0.35137 0.3747 0.0
C4358 C 0.98564 0.35283 0.38765 0.0
C4359 C 0.9909 0.3651 0.40538 0.0
C4360 C 0.00887 0.37605 0.41029 0.0
C4361 C 0.02161 0.37482 0.39745 0.0
C4362 C 0.01642 0.3626 0.37969 0.0
C4363 C 0.92778 0.31858 0.29728 0.0
C4364 C 0.92642 0.33738 0.29597 0.0
C4365 C 0.94312 0.31594 0.30679 0.0
C4366 C 0.95768 0.33198 0.31482 0.0
C4367 C 0.95656 0.35071 0.31316 0.0
C4368 C 0.94109 0.3534 0.30392 0.0
C4369 C 0.97354 0.32937 0.32597 0.0
C4370 C 0.97876 0.34067 0.34424 0.0
C4371 C 0.98304 0.31544 0.31913 0.0
C4372 C 0.9791 0.304 0.29952 0.0
C4373 C 0.97941 0.31344 0.28418 0.0
C4374 C 0.97554 0.30258 0.26574 0.0
C4375 C 0.97144 0.28227 0.26245 0.0
C4376 C 0.97126 0.27277 0.2776 0.0
C4377 C 0.97511 0.28356 0.29607 0.0
H4378 H 0.96844 0.27389 0.24816 0.0
H4379 H 0.01292 0.38553 0.42403 0.0
H4380 H 0.0134 0.74428 0.60456 0.0
H4381 H 0.01563 0.72533 0.57373 0.0
H4382 H 0.96567 0.68358 0.57775 0.0
H4383 H 0.96387 0.70202 0.60892 0.0
H4384 H 0.99232 0.66744 0.57605 0.0
H4385 H 0.97146 0.70892 0.54047 0.0
H4386 H 0.97064 0.74054 0.53276 0.0
H4387 H 0.02614 0.7506 0.52122 0.0
H4388 H 0.02738 0.71915 0.5291 0.0
H4389 H 0.00597 0.60363 0.4943 0.0
H4390 H 0.99318 0.63121 0.50433 0.0
H4391 H 0.04361 0.66296 0.53768 0.0
H4392 H 0.05663 0.63576 0.52765 0.0
H4393 H 0.01144 0.68282 0.51525 0.0
H4394 H 0.02623 0.65607 0.57909 0.0
H4395 H 0.03066 0.62693 0.58976 0.0
H4396 H 0.98899 0.59055 0.54716 0.0
H4397 H 0.98403 0.61954 0.53652 0.0
C4398 C 0.00259 0.73141 0.59856 0.0
C4399 C 0.98868 0.72433 0.60923 0.0
C4400 C 0.00379 0.72065 0.58084 0.0
C4401 C 0.99086 0.70294 0.57345 0.0
C4402 C 0.97585 0.69714 0.58323 0.0
C4403 C 0.97487 0.70763 0.60106 0.0
C4404 C 0.99502 0.68859 0.55817 0.0
C4405 C 0.9959 0.6707 0.56253 0.0
C4406 C 1.00036 0.69299 0.54077 0.0
C4407 C 0.99952 0.71167 0.53546 0.0
C4408 C 0.98352 0.7179 0.53636 0.0
C4409 C 0.98298 0.7358 0.53196 0.0
C4410 C 0.99834 0.74759 0.52654 0.0
C4411 C 0.01424 0.74145 0.52541 0.0
C4412 C 0.01486 0.72355 0.5298 0.0
C4413 C 0.01459 0.61677 0.50316 0.0
C4414 C 0.03217 0.61731 0.51057 0.0
C4415 C 0.00729 0.63258 0.50873 0.0
C4416 C 0.01747 0.64904 0.52174 0.0
C4417 C 0.03562 0.65042 0.52749 0.0
C4418 C 0.04294 0.63471 0.52192 0.0
C4419 C 0.00823 0.66188 0.53324 0.0
C4420 C 0.00693 0.67947 0.52842 0.0
C4421 C 0.00251 0.65744 0.5504 0.0
C4422 C 0.00497 0.63989 0.55686 0.0
C4423 C 0.01802 0.64181 0.57201 0.0
C4424 C 0.02065 0.62531 0.57801 0.0
C4425 C 0.01037 0.60679 0.56886 0.0
C4426 C 0.99717 0.60482 0.55397 0.0
C4427 C 0.9944 0.62129 0.548 0.0
H4428 H 0.01248 0.59399 0.57343 0.0
H4429 H 0.99791 0.76148 0.52321 0.0
H4430 H 0.6047 0.80659 0.82614 0.0
H4431 H 0.6312 0.80756 0.80866 0.0
H4432 H 0.66419 0.81033 0.8599 0.0
H4433 H 0.63785 0.80922 0.87743 0.0
H4434 H 0.6794 0.83834 0.83874 0.0
H4435 H 0.65076 0.76899 0.82956 0.0
H4436 H 0.62554 0.73946 0.81913 0.0
H4437 H 0.62424 0.74961 0.76265 0.0
H4438 H 0.6493 0.77938 0.77281 0.0
H4439 H 0.75777 0.81072 0.81697 0.0
H4440 H 0.72803 0.81172 0.82702 0.0
H4441 H 0.70744 0.80889 0.76962 0.0
H4442 H 0.73753 0.80824 0.75957 0.0
H4443 H 0.68407 0.78343 0.78898 0.0
H4444 H 0.71384 0.84985 0.796 0.0
H4445 H 0.73804 0.88043 0.80498 0.0
H4446 H 0.7367 0.87704 0.86332 0.0
H4447 H 0.71259 0.8463 0.8547 0.0
C4448 C 0.61759 0.80735 0.83367 0.0
C4449 C 0.61919 0.80781 0.85316 0.0
C4450 C 0.63268 0.80787 0.82365 0.0
C4451 C 0.6496 0.809 0.83302 0.0
C4452 C 0.65123 0.8095 0.85245 0.0
C4453 C 0.63615 0.80877 0.86242 0.0
C4454 C 0.66575 0.80979 0.82272 0.0
C4455 C 0.6805 0.82628 0.82796 0.0
C4456 C 0.6668 0.7944 0.80807 0.0
C4457 C 0.65172 0.77655 0.802 0.0
C4458 C 0.64496 0.76504 0.81496 0.0
C4459 C 0.63073 0.74823 0.80909 0.0
C4460 C 0.62324 0.74271 0.79026 0.0
C4461 C 0.63002 0.75394 0.77724 0.0
C4462 C 0.64423 0.77078 0.78305 0.0
C4463 C 0.7468 0.81005 0.80651 0.0
C4464 C 0.74956 0.8088 0.78748 0.0
C4465 C 0.72992 0.81078 0.81225 0.0
C4466 C 0.71562 0.81046 0.79905 0.0
C4467 C 0.71834 0.80912 0.77996 0.0
C4468 C 0.73538 0.80865 0.77424 0.0
C4469 C 0.69795 0.81162 0.80556 0.0
C4470 C 0.68292 0.79557 0.79959 0.0
C4471 C 0.69653 0.82752 0.81937 0.0
C4472 C 0.71143 0.8457 0.82469 0.0
C4473 C 0.71883 0.8555 0.81074 0.0
C4474 C 0.7325 0.8729 0.81577 0.0
C4475 C 0.73884 0.88069 0.83471 0.0
C4476 C 0.73169 0.87101 0.84866 0.0
C4477 C 0.71801 0.85361 0.84371 0.0
H4478 H 0.74922 0.8943 0.83859 0.0
H4479 H 0.61223 0.72968 0.78573 0.0
H4480 H 0.44181 0.56592 0.70446 0.0
H4481 H 0.45333 0.56465 0.67326 0.0
H4482 H 0.50531 0.56301 0.69801 0.0
H4483 H 0.49391 0.56406 0.72876 0.0
H4484 H 0.51146 0.58539 0.67261 0.0
H4485 H 0.47266 0.52138 0.67074 0.0
H4486 H 0.44388 0.49763 0.6725 0.0
H4487 H 0.41818 0.51599 0.62735 0.0
H4488 H 0.44677 0.54003 0.62549 0.0
H4489 H 0.55292 0.55498 0.59104 0.0
H4490 H 0.53954 0.55866 0.62061 0.0
H4491 H 0.48706 0.54884 0.58993 0.0
H4492 H 0.50059 0.54421 0.56009 0.0
H4493 H 0.47985 0.53405 0.61784 0.0
H4494 H 0.51772 0.59737 0.61852 0.0
H4495 H 0.54611 0.62127 0.61585 0.0
H4496 H 0.57258 0.6061 0.66261 0.0
H4497 H 0.54442 0.58188 0.66538 0.0
C4498 C 0.4558 0.56566 0.70338 0.0
C4499 C 0.46681 0.56531 0.71963 0.0
C4500 C 0.46242 0.56467 0.68529 0.0
C4501 C 0.4804 0.56348 0.68265 0.0
C4502 C 0.49147 0.56388 0.69906 0.0
C4503 C 0.48482 0.56453 0.71692 0.0
C4504 C 0.48781 0.56148 0.66318 0.0
C4505 C 0.50449 0.57401 0.66075 0.0
C4506 C 0.47894 0.54708 0.64704 0.0
C4507 C 0.46179 0.53265 0.64813 0.0
C4508 C 0.46083 0.52046 0.66129 0.0
C4509 C 0.44456 0.50693 0.66229 0.0
C4510 C 0.4292 0.50534 0.65008 0.0
C4511 C 0.43008 0.51726 0.63682 0.0
C4512 C 0.44632 0.53083 0.63578 0.0
C4513 C 0.53863 0.55403 0.59041 0.0
C4514 C 0.5282 0.54986 0.57271 0.0
C4515 C 0.53078 0.55618 0.60766 0.0
C4516 C 0.51205 0.55485 0.60829 0.0
C4517 C 0.5015 0.55025 0.59052 0.0
C4518 C 0.50935 0.54767 0.5732 0.0
C4519 C 0.50362 0.55793 0.62721 0.0
C4520 C 0.48678 0.54558 0.62959 0.0
C4521 C 0.51221 0.57271 0.64326 0.0
C4522 C 0.52899 0.5877 0.64205 0.0
C4523 C 0.52961 0.5991 0.6282 0.0
C4524 C 0.54567 0.61269 0.62666 0.0
C4525 C 0.56115 0.61516 0.63902 0.0
C4526 C 0.56058 0.60414 0.65303 0.0
C4527 C 0.54457 0.5905 0.65461 0.0
H4528 H 0.57358 0.62565 0.63776 0.0
H4529 H 0.41661 0.49486 0.65088 0.0
H4530 H 0.80416 0.15788 0.94275 0.0
H4531 H 0.80134 0.16372 0.91063 0.0
H4532 H 0.82769 0.22461 0.93135 0.0
H4533 H 0.82996 0.21891 0.96342 0.0
H4534 H 0.79221 0.21769 0.91907 0.0
H4535 H 0.84397 0.19903 0.89654 0.0
H4536 H 0.86456 0.17792 0.88946 0.0
H4537 H 0.82172 0.13481 0.85301 0.0
H4538 H 0.80078 0.15554 0.8601 0.0
H4539 H 0.77796 0.25738 0.84248 0.0
H4540 H 0.79466 0.24515 0.86484 0.0
H4541 H 0.76251 0.1866 0.84213 0.0
H4542 H 0.7463 0.19863 0.81854 0.0
H4543 H 0.80083 0.19013 0.85362 0.0
H4544 H 0.74902 0.20808 0.87797 0.0
H4545 H 0.72862 0.22953 0.88452 0.0
H4546 H 0.77248 0.27419 0.91785 0.0
H4547 H 0.79321 0.25309 0.91124 0.0
C4548 C 0.8102 0.17228 0.94026 0.0
C4549 C 0.81702 0.18803 0.95546 0.0
C4550 C 0.80859 0.17561 0.9219 0.0
C4551 C 0.81405 0.19466 0.91869 0.0
C4552 C 0.82329 0.20983 0.93358 0.0
C4553 C 0.8246 0.20657 0.95188 0.0
C4554 C 0.80605 0.19963 0.90176 0.0
C4555 C 0.79446 0.21194 0.90479 0.0
C4556 C 0.80826 0.19138 0.88312 0.0
C4557 C 0.82073 0.17874 0.87907 0.0
C4558 C 0.83886 0.18494 0.88721 0.0
C4559 C 0.85062 0.17307 0.88314 0.0
C4560 C 0.84443 0.155 0.87085 0.0
C4561 C 0.82648 0.14879 0.86257 0.0
C4562 C 0.81467 0.1606 0.8666 0.0
C4563 C 0.77475 0.24181 0.84171 0.0
C4564 C 0.76077 0.22899 0.82861 0.0
C4565 C 0.78426 0.23487 0.85464 0.0
C4566 C 0.77971 0.21502 0.85518 0.0
C4567 C 0.76619 0.20199 0.84186 0.0
C4568 C 0.75677 0.20892 0.82862 0.0
C4569 C 0.78766 0.20863 0.87116 0.0
C4570 C 0.79888 0.19592 0.86796 0.0
C4571 C 0.78517 0.21643 0.88979 0.0
C4572 C 0.77269 0.22907 0.89399 0.0
C4573 C 0.75434 0.22252 0.88659 0.0
C4574 C 0.74272 0.23461 0.89032 0.0
C4575 C 0.74926 0.25322 0.90156 0.0
C4576 C 0.76743 0.25977 0.90913 0.0
C4577 C 0.77912 0.24775 0.90541 0.0
H4578 H 0.74024 0.26256 0.90444 0.0
H4579 H 0.85356 0.14584 0.8677 0.0
H4580 H 0.13501 0.55666 0.21205 0.0
H4581 H 0.11612 0.54676 0.1819 0.0
H4582 H 0.14915 0.50888 0.16079 0.0
H4583 H 0.16823 0.51868 0.19113 0.0
H4584 H 0.14195 0.53249 0.13596 0.0
H4585 H 0.10908 0.48827 0.17073 0.0
H4586 H 0.09456 0.47831 0.19803 0.0
H4587 H 0.05775 0.51375 0.19264 0.0
H4588 H 0.07223 0.52416 0.16546 0.0
H4589 H 0.08263 0.50417 0.05238 0.0
H4590 H 0.09869 0.4994 0.08069 0.0
H4591 H 0.06909 0.53322 0.11543 0.0
H4592 H 0.05249 0.53717 0.08705 0.0
H4593 H 0.07535 0.50551 0.13202 0.0
H4594 H 0.1109 0.55345 0.10079 0.0
H4595 H 0.12555 0.56457 0.07397 0.0
H4596 H 0.15763 0.5234 0.07324 0.0
H4597 H 0.14293 0.5118 0.09987 0.0
C4598 C 0.13829 0.5462 0.20105 0.0
C4599 C 0.15312 0.53844 0.204 0.0
C4600 C 0.12741 0.54048 0.18385 0.0
C4601 C 0.13113 0.52693 0.16923 0.0
C4602 C 0.14603 0.51928 0.17198 0.0
C4603 C 0.15687 0.52487 0.1893 0.0
C4604 C 0.11961 0.52133 0.15097 0.0
C4605 C 0.12744 0.52618 0.13494 0.0
C4606 C 0.10066 0.51339 0.14982 0.0
C4607 C 0.09183 0.50709 0.16611 0.0
C4608 C 0.09798 0.49405 0.17544 0.0
C4609 C 0.08974 0.48831 0.19089 0.0
C4610 C 0.07526 0.49542 0.19709 0.0
C4611 C 0.06897 0.50826 0.18783 0.0
C4612 C 0.07717 0.51407 0.17238 0.0
C4613 C 0.0792 0.50998 0.06613 0.0
C4614 C 0.06638 0.52091 0.06778 0.0
C4615 C 0.08844 0.50741 0.08224 0.0
C4616 C 0.0854 0.51636 0.10016 0.0
C4617 C 0.07168 0.52622 0.10174 0.0
C4618 C 0.06218 0.52846 0.0856 0.0
C4619 C 0.0976 0.51718 0.11711 0.0
C4620 C 0.0899 0.51146 0.1329 0.0
C4621 C 0.11667 0.52447 0.11808 0.0
C4622 C 0.12567 0.53162 0.1022 0.0
C4623 C 0.12099 0.54669 0.09484 0.0
C4624 C 0.1293 0.55308 0.07968 0.0
C4625 C 0.14251 0.5447 0.07192 0.0
C4626 C 0.1474 0.52987 0.07927 0.0
C4627 C 0.13907 0.52338 0.09439 0.0
H4628 H 0.14902 0.54978 0.06029 0.0
H4629 H 0.06891 0.49095 0.20905 0.0
H4630 H 0.81585 0.82681 0.48119 0.0
H4631 H 0.81455 0.81538 0.44733 0.0
H4632 H 0.77781 0.85005 0.43746 0.0
H4633 H 0.77908 0.86177 0.47159 0.0
H4634 H 0.76943 0.81255 0.41232 0.0
H4635 H 0.82003 0.86862 0.43491 0.0
H4636 H 0.8477 0.88769 0.45559 0.0
H4637 H 0.87447 0.84306 0.43704 0.0
H4638 H 0.84683 0.82358 0.41646 0.0
H4639 H 0.80764 0.83851 0.32408 0.0
H4640 H 0.80778 0.84405 0.35834 0.0
H4641 H 0.79625 0.78218 0.35592 0.0
H4642 H 0.79663 0.7766 0.3214 0.0
H4643 H 0.82853 0.83214 0.38704 0.0
H4644 H 0.76101 0.77633 0.3879 0.0
H4645 H 0.73325 0.75885 0.36653 0.0
H4646 H 0.74015 0.80613 0.33709 0.0
H4647 H 0.76768 0.82404 0.35851 0.0
C4648 C 0.80724 0.83185 0.47192 0.0
C4649 C 0.79771 0.84542 0.47919 0.0
C4650 C 0.80653 0.82525 0.45251 0.0
C4651 C 0.79627 0.83202 0.43984 0.0
C4652 C 0.78583 0.84464 0.447 0.0
C4653 C 0.78659 0.85135 0.46651 0.0
C4654 C 0.79779 0.82724 0.41928 0.0
C4655 C 0.78236 0.81674 0.40681 0.0
C4656 C 0.81464 0.83281 0.41202 0.0
C4657 C 0.8313 0.84455 0.42431 0.0
C4658 C 0.83176 0.8628 0.43537 0.0
C4659 C 0.84745 0.87369 0.44705 0.0
C4660 C 0.86282 0.86656 0.44768 0.0
C4661 C 0.86255 0.84854 0.43657 0.0
C4662 C 0.84688 0.83757 0.42489 0.0
C4663 C 0.80552 0.82613 0.33092 0.0
C4664 C 0.80242 0.80718 0.32022 0.0
C4665 C 0.80561 0.8293 0.35046 0.0
C4666 C 0.80197 0.81354 0.35964 0.0
C4667 C 0.7991 0.79453 0.34905 0.0
C4668 C 0.79941 0.79136 0.32942 0.0
C4669 C 0.80026 0.81726 0.38015 0.0
C4670 C 0.81566 0.82766 0.3926 0.0
C4671 C 0.78337 0.81179 0.38731 0.0
C4672 C 0.76655 0.80139 0.37465 0.0
C4673 C 0.75655 0.78302 0.37691 0.0
C4674 C 0.74084 0.77304 0.3648 0.0
C4675 C 0.73497 0.78134 0.35042 0.0
C4676 C 0.74473 0.79968 0.34819 0.0
C4677 C 0.7604 0.80974 0.3603 0.0
H4678 H 0.72284 0.77357 0.34103 0.0
H4679 H 0.87496 0.87502 0.45672 0.0
H4680 H 0.44308 0.56206 0.84066 0.0
H4681 H 0.45463 0.55765 0.87155 0.0
H4682 H 0.50852 0.56717 0.85457 0.0
H4683 H 0.49686 0.57069 0.82374 0.0
H4684 H 0.50767 0.54146 0.87203 0.0
H4685 H 0.48988 0.60012 0.89236 0.0
H4686 H 0.46942 0.6218 0.89594 0.0
H4687 H 0.43369 0.5821 0.92303 0.0
H4688 H 0.45385 0.56008 0.91942 0.0
H4689 H 0.55144 0.5423 0.96502 0.0
H4690 H 0.54098 0.54794 0.9343 0.0
H4691 H 0.48695 0.5411 0.95067 0.0
H4692 H 0.49773 0.53674 0.98147 0.0
H4693 H 0.48863 0.56652 0.93343 0.0
H4694 H 0.50377 0.50419 0.90208 0.0
H4695 H 0.5242 0.48289 0.89438 0.0
H4696 H 0.56662 0.53223 0.88896 0.0
H4697 H 0.54606 0.55359 0.89551 0.0
C4698 C 0.45749 0.56381 0.84365 0.0
C4699 C 0.46891 0.56725 0.82932 0.0
C4700 C 0.46424 0.56117 0.86159 0.0
C4701 C 0.48284 0.56211 0.86627 0.0
C4702 C 0.49419 0.56609 0.85203 0.0
C4703 C 0.48744 0.56843 0.83416 0.0
C4704 C 0.49051 0.55826 0.88525 0.0
C4705 C 0.50347 0.54725 0.88538 0.0
C4706 C 0.48544 0.56523 0.9033 0.0
C4707 C 0.47327 0.57836 0.90543 0.0
C4708 C 0.47759 0.59596 0.89896 0.0
C4709 C 0.46606 0.60831 0.90102 0.0
C4710 C 0.45024 0.6033 0.90965 0.0
C4711 C 0.44594 0.58595 0.9163 0.0
C4712 C 0.45741 0.57353 0.91427 0.0
C4713 C 0.53725 0.5416 0.96195 0.0
C4714 C 0.52553 0.53873 0.9761 0.0
C4715 C 0.53105 0.54475 0.944 0.0
C4716 C 0.51273 0.54487 0.93912 0.0
C4717 C 0.50111 0.54145 0.95328 0.0
C4718 C 0.50734 0.53868 0.97117 0.0
C4719 C 0.50557 0.54938 0.9202 0.0
C4720 C 0.49272 0.56061 0.92007 0.0
C4721 C 0.5109 0.54286 0.90215 0.0
C4722 C 0.52359 0.53047 0.89971 0.0
C4723 C 0.51752 0.51047 0.89944 0.0
C4724 C 0.52905 0.49839 0.89511 0.0
C4725 C 0.54679 0.50625 0.89154 0.0
C4726 C 0.55293 0.52618 0.89189 0.0
C4727 C 0.54129 0.53823 0.89569 0.0
H4728 H 0.55573 0.49687 0.88834 0.0
H4729 H 0.44133 0.61289 0.91124 0.0
H4730 H 0.81738 0.23711 0.05568 0.0
H4731 H 0.82067 0.25088 0.08934 0.0
H4732 H 0.82392 0.19562 0.10175 0.0
H4733 H 0.82071 0.1817 0.06793 0.0
H4734 H 0.79611 0.20913 0.1172 0.0
H4735 H 0.85959 0.23373 0.11481 0.0
H4736 H 0.88698 0.25098 0.10266 0.0
H4737 H 0.8707 0.30425 0.11473 0.0
H4738 H 0.84305 0.28727 0.1267 0.0
H4739 H 0.80268 0.24118 0.21533 0.0
H4740 H 0.80811 0.22828 0.18355 0.0
H4741 H 0.81192 0.28429 0.16892 0.0
H4742 H 0.80701 0.29752 0.20121 0.0
H4743 H 0.83783 0.26951 0.15515 0.0
H4744 H 0.77356 0.24529 0.15439 0.0
H4745 H 0.74542 0.22877 0.16587 0.0
H4746 H 0.76221 0.17569 0.15858 0.0
H4747 H 0.79056 0.19196 0.14727 0.0
C4748 C 0.81931 0.22803 0.06557 0.0
C4749 C 0.81863 0.20829 0.0592 0.0
C4750 C 0.82126 0.23594 0.08481 0.0
C4751 C 0.82249 0.22425 0.09801 0.0
C4752 C 0.82301 0.20486 0.09173 0.0
C4753 C 0.82127 0.19697 0.07243 0.0
C4754 C 0.82072 0.23155 0.11802 0.0
C4755 C 0.80545 0.22209 0.12566 0.0
C4756 C 0.83253 0.24889 0.12872 0.0
C4757 C 0.84915 0.25917 0.12152 0.0
C4758 C 0.86176 0.24908 0.11472 0.0
C4759 C 0.87735 0.25882 0.1079 0.0
C4760 C 0.88056 0.27869 0.10788 0.0
C4761 C 0.86819 0.28886 0.11473 0.0
C4762 C 0.85256 0.27919 0.12156 0.0
C4763 C 0.80434 0.2507 0.20532 0.0
C4764 C 0.80414 0.27029 0.21068 0.0
C4765 C 0.80751 0.2433 0.18712 0.0
C4766 C 0.81012 0.25521 0.17373 0.0
C4767 C 0.80988 0.27481 0.17901 0.0
C4768 C 0.80694 0.28231 0.19737 0.0
C4769 C 0.81317 0.2471 0.15429 0.0
C4770 C 0.82859 0.25645 0.14674 0.0
C4771 C 0.80137 0.22977 0.14352 0.0
C4772 C 0.78424 0.21989 0.15013 0.0
C4773 C 0.77129 0.23012 0.15534 0.0
C4774 C 0.7553 0.2208 0.1618 0.0
C4775 C 0.75204 0.2012 0.16299 0.0
C4776 C 0.76475 0.19087 0.15767 0.0
C4777 C 0.78078 0.20012 0.1512 0.0
H4778 H 0.73966 0.19402 0.16801 0.0
H4779 H 0.89264 0.2862 0.10259 0.0
H4780 H 0.16273 0.55988 0.31798 0.0
H4781 H 0.14421 0.54493 0.34025 0.0
H4782 H 0.13876 0.48801 0.30612 0.0
H4783 H 0.15779 0.50296 0.28387 0.0
H4784 H 0.10543 0.49772 0.31354 0.0
H4785 H 0.15885 0.4947 0.34731 0.0
H4786 H 0.19039 0.50583 0.36228 0.0
H4787 H 0.17682 0.5511 0.40111 0.0
H4788 H 0.14527 0.54048 0.38619 0.0
H4789 H 0.04433 0.47707 0.38405 0.0
H4790 H 0.06804 0.47357 0.3633 0.0
H4791 H 0.09638 0.53382 0.38465 0.0
H4792 H 0.07289 0.53744 0.40506 0.0
H4793 H 0.11938 0.51047 0.383 0.0
H4794 H 0.06972 0.51948 0.3428 0.0
H4795 H 0.03839 0.51016 0.32727 0.0
H4796 H 0.04539 0.45489 0.30033 0.0
H4797 H 0.07672 0.46383 0.3159 0.0
C4798 C 0.15794 0.54415 0.31544 0.0
C4799 C 0.1616 0.53256 0.29921 0.0
C4800 C 0.14745 0.53562 0.32821 0.0
C4801 C 0.1402 0.51538 0.32483 0.0
C4802 C 0.14436 0.50365 0.30899 0.0
C4803 C 0.15524 0.51219 0.29637 0.0
C4804 C 0.12657 0.50717 0.33676 0.0
C4805 C 0.10851 0.49988 0.32869 0.0
C4806 C 0.13065 0.51023 0.3565 0.0
C4807 C 0.14966 0.5168 0.36556 0.0
C4808 C 0.16261 0.50713 0.35895 0.0
C4809 C 0.1805 0.51334 0.36745 0.0
C4810 C 0.18561 0.52917 0.38263 0.0
C4811 C 0.17284 0.53883 0.38935 0.0
C4812 C 0.15493 0.53269 0.38089 0.0
C4813 C 0.05557 0.48957 0.38414 0.0
C4814 C 0.05681 0.5075 0.39621 0.0
C4815 C 0.06913 0.48751 0.37242 0.0
C4816 C 0.08401 0.50341 0.37255 0.0
C4817 C 0.08515 0.5213 0.38452 0.0
C4818 C 0.07168 0.52335 0.39614 0.0
C4819 C 0.09823 0.50209 0.35983 0.0
C4820 C 0.11638 0.50758 0.3678 0.0
C4821 C 0.09424 0.49756 0.34 0.0
C4822 C 0.07543 0.49219 0.33072 0.0
C4823 C 0.06451 0.50527 0.3337 0.0
C4824 C 0.04677 0.50008 0.32487 0.0
C4825 C 0.03988 0.48191 0.31288 0.0
C4826 C 0.05073 0.46893 0.30966 0.0
C4827 C 0.06847 0.47405 0.31849 0.0
H4828 H 0.02614 0.47792 0.30605 0.0
H4829 H 0.19946 0.53395 0.38919 0.0
H4830 H 0.80533 0.83347 0.58131 0.0
H4831 H 0.79798 0.82535 0.61134 0.0
H4832 H 0.76621 0.8673 0.6189 0.0
H4833 H 0.77399 0.87601 0.58859 0.0
H4834 H 0.78656 0.87041 0.65087 0.0
H4835 H 0.7455 0.81793 0.60924 0.0
H4836 H 0.73483 0.79105 0.58164 0.0
H4837 H 0.77078 0.76039 0.6023 0.0
H4838 H 0.78187 0.78721 0.6299 0.0
H4839 H 0.75447 0.79756 0.71873 0.0
H4840 H 0.75131 0.80696 0.68821 0.0
H4841 H 0.80632 0.84295 0.69902 0.0
H4842 H 0.80942 0.83389 0.72957 0.0
H4843 H 0.76695 0.80156 0.65782 0.0
H4844 H 0.81218 0.88102 0.67986 0.0
H4845 H 0.81987 0.90663 0.70879 0.0
H4846 H 0.76857 0.88299 0.7276 0.0
H4847 H 0.76046 0.85742 0.69872 0.0
C4848 C 0.79663 0.84095 0.58917 0.0
C4849 C 0.79024 0.85542 0.58241 0.0
C4850 C 0.79234 0.83615 0.6064 0.0
C4851 C 0.78131 0.84546 0.61738 0.0
C4852 C 0.77469 0.85983 0.61067 0.0
C4853 C 0.77905 0.86471 0.59329 0.0
C4854 C 0.77753 0.84049 0.6361 0.0
C4855 C 0.7821 0.85536 0.65233 0.0
C4856 C 0.77123 0.8209 0.63817 0.0
C4857 C 0.76459 0.80466 0.62161 0.0
C4858 C 0.75122 0.80552 0.60785 0.0
C4859 C 0.74508 0.79028 0.59221 0.0
C4860 C 0.75214 0.77403 0.59021 0.0
C4861 C 0.76533 0.77298 0.60387 0.0
C4862 C 0.77152 0.78819 0.61953 0.0
C4863 C 0.76588 0.80753 0.71462 0.0
C4864 C 0.78219 0.815 0.72664 0.0
C4865 C 0.76405 0.81289 0.69714 0.0
C4866 C 0.77848 0.82587 0.6913 0.0
C4867 C 0.7948 0.83328 0.7033 0.0
C4868 C 0.79658 0.82806 0.72082 0.0
C4869 C 0.77674 0.83138 0.67252 0.0
C4870 C 0.77114 0.81661 0.65631 0.0
C4871 C 0.7815 0.85106 0.67048 0.0
C4872 C 0.78577 0.86726 0.68716 0.0
C4873 C 0.80245 0.88144 0.69005 0.0
C4874 C 0.8069 0.8959 0.70647 0.0
C4875 C 0.79471 0.89637 0.72 0.0
C4876 C 0.77798 0.88256 0.71709 0.0
C4877 C 0.77346 0.8681 0.70072 0.0
H4878 H 0.79823 0.90734 0.73278 0.0
H4879 H 0.74737 0.76225 0.57809 0.0
H4880 H 0.77975 0.46773 0.54519 0.0
H4881 H 0.75773 0.48702 0.54902 0.0
H4882 H 0.73672 0.46572 0.49048 0.0
H4883 H 0.75903 0.44656 0.4864 0.0
H4884 H 0.73967 0.50388 0.50037 0.0
H4885 H 0.71376 0.4477 0.52457 0.0
H4886 H 0.71255 0.42261 0.54371 0.0
H4887 H 0.72238 0.46649 0.59437 0.0
H4888 H 0.72392 0.4919 0.57552 0.0
H4889 H 0.65846 0.5343 0.5103 0.0
H4890 H 0.6803 0.51487 0.50459 0.0
H4891 H 0.70566 0.53755 0.56159 0.0
H4892 H 0.68345 0.55659 0.56764 0.0
H4893 H 0.69949 0.49777 0.55129 0.0
H4894 H 0.7261 0.55406 0.5252 0.0
H4895 H 0.72496 0.57767 0.50481 0.0
H4896 H 0.71089 0.53122 0.45605 0.0
H4897 H 0.71184 0.50732 0.47618 0.0
C4898 C 0.77047 0.46712 0.5331 0.0
C4899 C 0.77108 0.4555 0.51551 0.0
C4900 C 0.75783 0.47811 0.53534 0.0
C4901 C 0.74539 0.47758 0.52011 0.0
C4902 C 0.74616 0.46629 0.50243 0.0
C4903 C 0.75888 0.45531 0.50015 0.0
C4904 C 0.73161 0.48882 0.52278 0.0
C4905 C 0.73073 0.50236 0.51135 0.0
C4906 C 0.72003 0.48696 0.5372 0.0
C4907 C 0.71913 0.47173 0.54862 0.0
C4908 C 0.71582 0.45203 0.53979 0.0
C4909 C 0.71505 0.43774 0.55059 0.0
C4910 C 0.71744 0.44296 0.57025 0.0
C4911 C 0.72056 0.46247 0.57914 0.0
C4912 C 0.72137 0.47682 0.56841 0.0
C4913 C 0.66865 0.53511 0.52165 0.0
C4914 C 0.66922 0.54696 0.53945 0.0
C4915 C 0.6812 0.52414 0.5183 0.0
C4916 C 0.69468 0.52493 0.53261 0.0
C4917 C 0.69538 0.5368 0.55036 0.0
C4918 C 0.6828 0.5478 0.55374 0.0
C4919 C 0.70782 0.51303 0.52914 0.0
C4920 C 0.70849 0.4993 0.54037 0.0
C4921 C 0.71899 0.51451 0.51437 0.0
C4922 C 0.71895 0.52891 0.5022 0.0
C4923 C 0.72272 0.54889 0.51013 0.0
C4924 C 0.72212 0.56232 0.49862 0.0
C4925 C 0.71783 0.55595 0.47915 0.0
C4926 C 0.71423 0.53614 0.47113 0.0
C4927 C 0.71484 0.52265 0.48258 0.0
H4928 H 0.71732 0.56636 0.47026 0.0
H4929 H 0.71683 0.43187 0.57858 0.0
H4930 H 0.22263 0.17197 0.49477 0.0
H4931 H 0.19466 0.14753 0.49531 0.0
H4932 H 0.22502 0.10657 0.50486 0.0
H4933 H 0.2535 0.1312 0.50427 0.0
H4934 H 0.19198 0.09024 0.47856 0.0
H4935 H 0.21108 0.12802 0.54137 0.0
H4936 H 0.22211 0.15834 0.56532 0.0
H4937 H 0.17471 0.17647 0.55035 0.0
H4938 H 0.16353 0.1464 0.52611 0.0
H4939 H 0.11188 0.03093 0.50612 0.0
H4940 H 0.14304 0.04899 0.50426 0.0
H4941 H 0.12534 0.10145 0.50554 0.0
H4942 H 0.09434 0.08347 0.50787 0.0
H4943 H 0.15443 0.10916 0.5284 0.0
H4944 H 0.13613 0.07372 0.46435 0.0
H4945 H 0.12403 0.04374 0.44017 0.0
H4946 H 0.16873 0.02184 0.45632 0.0
H4947 H 0.18092 0.05155 0.48086 0.0
C4948 C 0.22349 0.15775 0.49685 0.0
C4949 C 0.24038 0.15365 0.49974 0.0
C4950 C 0.20742 0.14377 0.49713 0.0
C4951 C 0.20778 0.12536 0.5004 0.0
C4952 C 0.2245 0.12075 0.50237 0.0
C4953 C 0.24073 0.13484 0.50208 0.0
C4954 C 0.1906 0.11165 0.50286 0.0
C4955 C 0.18387 0.09414 0.48964 0.0
C4956 C 0.17991 0.11696 0.51713 0.0
C4957 C 0.18653 0.13499 0.53184 0.0
C4958 C 0.20307 0.13853 0.5431 0.0
C4959 C 0.20934 0.15567 0.55674 0.0
C4960 C 0.19913 0.16934 0.55933 0.0
C4961 C 0.18261 0.16588 0.54832 0.0
C4962 C 0.17629 0.14877 0.53464 0.0
C4963 C 0.11462 0.04619 0.50559 0.0
C4964 C 0.1007 0.05574 0.50679 0.0
C4965 C 0.13244 0.05655 0.50462 0.0
C4966 C 0.13655 0.07657 0.50451 0.0
C4967 C 0.12255 0.08604 0.50563 0.0
C4968 C 0.10484 0.07576 0.5069 0.0
C4969 C 0.15543 0.08794 0.50376 0.0
C4970 C 0.16253 0.10505 0.51739 0.0
C4971 C 0.1663 0.08232 0.48975 0.0
C4972 C 0.15934 0.06477 0.47456 0.0
C4973 C 0.14334 0.06247 0.4628 0.0
C4974 C 0.13646 0.04553 0.44904 0.0
C4975 C 0.14559 0.03088 0.44675 0.0
C4976 C 0.16166 0.03319 0.45814 0.0
C4977 C 0.16857 0.05008 0.47197 0.0
H4978 H 0.14022 0.01775 0.43612 0.0
H4979 H 0.20401 0.1826 0.5699 0.0
H4980 H 0.18109 0.93611 0.76159 0.0
H4981 H 0.19405 0.90788 0.76071 0.0
H4982 H 0.24769 0.94567 0.76443 0.0
H4983 H 0.23495 0.97342 0.76504 0.0
H4984 H 0.24964 0.9152 0.74271 0.0
H4985 H 0.22612 0.92186 0.80284 0.0
H4986 H 0.20262 0.92317 0.82448 0.0
H4987 H 0.17214 0.86577 0.79649 0.0
H4988 H 0.19538 0.86422 0.77455 0.0
H4989 H 0.28012 0.82572 0.73777 0.0
H4990 H 0.26567 0.85199 0.7347 0.0
H4991 H 0.25709 0.85879 0.79341 0.0
H4992 H 0.27015 0.83173 0.79585 0.0
H4993 H 0.23112 0.86634 0.78226 0.0
H4994 H 0.25233 0.87846 0.71329 0.0
H4995 H 0.27758 0.88172 0.69345 0.0
H4996 H 0.3156 0.90759 0.74273 0.0
H4997 H 0.29065 0.90339 0.76292 0.0
C4998 C 0.19564 0.93851 0.76218 0.0
C4999 C 0.20666 0.95769 0.76343 0.0
C5000 C 0.20324 0.92212 0.76183 0.0
C5001 C 0.22228 0.92394 0.76271 0.0
C5002 C 0.2331 0.94306 0.76367 0.0
C5003 C 0.22559 0.9593 0.7641 0.0
C5004 C 0.23116 0.90655 0.76263 0.0
C5005 C 0.24542 0.9046 0.75147 0.0
C5006 C 0.22634 0.89212 0.77383 0.0
C5007 C 0.21237 0.89302 0.78694 0.0
C5008 C 0.21434 0.90958 0.80123 0.0
C5009 C 0.20108 0.91035 0.81356 0.0
C5010 C 0.18587 0.89459 0.81182 0.0
C5011 C 0.18391 0.87799 0.79779 0.0
C5012 C 0.19712 0.87715 0.78541 0.0
C5013 C 0.27546 0.83302 0.75013 0.0
C5014 C 0.27684 0.82633 0.76721 0.0
C5015 C 0.26711 0.84854 0.74846 0.0
C5016 C 0.25996 0.85856 0.76385 0.0
C5017 C 0.26187 0.85192 0.78091 0.0
C5018 C 0.26974 0.83626 0.78243 0.0
C5019 C 0.25002 0.87507 0.76257 0.0
C5020 C 0.23546 0.87689 0.7735 0.0
C5021 C 0.25466 0.88952 0.75129 0.0
C5022 C 0.26975 0.89026 0.73956 0.0
C5023 C 0.26614 0.88447 0.71987 0.0
C5024 C 0.28038 0.88637 0.7086 0.0
C5025 C 0.29823 0.89455 0.71687 0.0
C5026 C 0.30183 0.90078 0.73641 0.0
C5027 C 0.28768 0.89843 0.74779 0.0
H5028 H 0.30924 0.89624 0.70812 0.0
H5029 H 0.17563 0.89521 0.82138 0.0
H5030 H 0.36038 0.9889 0.03326 0.0
H5031 H 0.38763 0.01353 0.02894 0.0
H5032 H 0.39786 0.97273 0.98231 0.0
H5033 H 0.37117 0.94823 0.98691 0.0
H5034 H 0.4219 0.00669 0.03279 0.0
H5035 H 0.41818 0.99691 0.95064 0.0
H5036 H 0.39544 0.99389 0.92399 0.0
H5037 H 0.36446 0.02276 0.96115 0.0
H5038 H 0.38715 0.02625 0.98799 0.0
H5039 H 0.50148 1.00104 0.99507 0.0
H5040 H 0.4686 0.99532 0.99488 0.0
H5041 H 0.47367 0.05667 0.99929 0.0
H5042 H 0.50649 0.06258 0.00025 0.0
H5043 H 0.44076 0.02444 0.97268 0.0
H5044 H 0.47035 0.05087 0.03588 0.0
H5045 H 0.49377 0.0535 0.06177 0.0
H5046 H 0.47226 0.99313 0.06311 0.0
H5047 H 0.44895 0.99004 0.03691 0.0
C5048 C 0.36823 0.98552 0.02179 0.0
C5049 C 0.36383 0.9668 0.01039 0.0
C5050 C 0.38375 0.9995 0.01936 0.0
C5051 C 0.39466 0.99499 0.0052 0.0
C5052 C 0.3895 0.97664 0.99312 0.0
C5053 C 0.37432 0.96263 0.9958 0.0
C5054 C 0.41277 0.00791 0.00446 0.0
C5055 C 0.42593 0.01105 0.01981 0.0
C5056 C 0.418 0.01368 0.98755 0.0
C5057 C 0.40438 0.01178 0.97137 0.0
C5058 C 0.4066 0.00275 0.95313 0.0
C5059 C 0.39369 1.00092 0.93798 0.0
C5060 C 0.37851 0.0081 0.94088 0.0
C5061 C 0.37621 0.01715 0.95893 0.0
C5062 C 0.38908 0.01903 0.97412 0.0
C5063 C 0.49553 0.01323 0.99553 0.0
C5064 C 0.50659 0.03223 0.99754 0.0
C5065 C 0.47681 0.00995 0.99539 0.0
C5066 C 0.46884 0.02561 0.99714 0.0
C5067 C 0.47964 0.04443 0.99782 0.0
C5068 C 0.49843 0.04776 0.9983 0.0
C5069 C 0.44968 0.02233 0.00069 0.0
C5070 C 0.43651 0.02081 0.98585 0.0
C5071 C 0.44436 0.01825 0.01814 0.0
C5072 C 0.45798 0.02019 0.03433 0.0
C5073 C 0.47069 0.03812 0.0416 0.0
C5074 C 0.48396 0.0397 0.05633 0.0
C5075 C 0.48454 0.02348 0.06405 0.0
C5076 C 0.4718 0.00568 0.0571 0.0
C5077 C 0.45856 0.00401 0.04232 0.0
H5078 H 0.49482 0.02468 0.07542 0.0
H5079 H 0.36853 0.00667 0.92913 0.0
H5080 H 0.87207 0.58238 0.81801 0.0
H5081 H 0.85091 0.60056 0.80916 0.0
H5082 H 0.87793 0.6093 0.75979 0.0
H5083 H 0.89926 0.59146 0.76865 0.0
H5084 H 0.8716 0.64231 0.77735 0.0
H5085 H 0.83714 0.57566 0.75673 0.0
H5086 H 0.82332 0.54207 0.76021 0.0
H5087 H 0.79183 0.56328 0.80212 0.0
H5088 H 0.80565 0.59704 0.79907 0.0
H5089 H 0.80579 0.6719 0.72549 0.0
H5090 H 0.82464 0.65144 0.73483 0.0
H5091 H 0.80076 0.65154 0.78714 0.0
H5092 H 0.78218 0.67239 0.77803 0.0
H5093 H 0.80494 0.61434 0.76907 0.0
H5094 H 0.83942 0.68087 0.78963 0.0
H5095 H 0.85264 0.71439 0.78559 0.0
H5096 H 0.88388 0.69318 0.74344 0.0
H5097 H 0.87059 0.65946 0.747 0.0
C5098 C 0.8735 0.58815 0.80526 0.0
C5099 C 0.88735 0.58545 0.79403 0.0
C5100 C 0.86134 0.59847 0.80018 0.0
C5101 C 0.86274 0.60613 0.78372 0.0
C5102 C 0.8766 0.60352 0.77255 0.0
C5103 C 0.88876 0.59327 0.77763 0.0
C5104 C 0.84993 0.61711 0.77817 0.0
C5105 C 0.85704 0.63608 0.77532 0.0
C5106 C 0.83091 0.60918 0.77597 0.0
C5107 C 0.82258 0.58889 0.77782 0.0
C5108 C 0.82738 0.57318 0.76681 0.0
C5109 C 0.81953 0.55411 0.76868 0.0
C5110 C 0.80675 0.55055 0.78142 0.0
C5111 C 0.80176 0.56606 0.79228 0.0
C5112 C 0.80959 0.58516 0.79047 0.0
C5113 C 0.80446 0.66735 0.73888 0.0
C5114 C 0.79267 0.67372 0.75111 0.0
C5115 C 0.81522 0.65575 0.74421 0.0
C5116 C 0.81417 0.65017 0.76174 0.0
C5117 C 0.80178 0.65577 0.77359 0.0
C5118 C 0.79126 0.66769 0.76842 0.0
C5119 C 0.82667 0.63933 0.76807 0.0
C5120 C 0.81951 0.62049 0.77112 0.0
C5121 C 0.84565 0.64735 0.77046 0.0
C5122 C 0.85386 0.66762 0.76844 0.0
C5123 C 0.84898 0.68333 0.77938 0.0
C5124 C 0.85651 0.70237 0.7772 0.0
C5125 C 0.86906 0.70591 0.76423 0.0
C5126 C 0.87414 0.69041 0.75346 0.0
C5127 C 0.86662 0.67133 0.75556 0.0
H5128 H 0.87487 0.72066 0.76257 0.0
H5129 H 0.80068 0.53577 0.78284 0.0
H5130 H 0.82175 0.6219 0.97437 0.0
H5131 H 0.84579 0.60547 0.97747 0.0
H5132 H 0.87229 0.64998 0.02566 0.0
H5133 H 0.84822 0.66659 0.02265 0.0
H5134 H 0.8967 0.64021 0.00112 0.0
H5135 H 0.84903 0.60702 0.03251 0.0
H5136 H 0.81775 0.5896 0.03577 0.0
H5137 H 0.81905 0.54442 0.98893 0.0
H5138 H 0.85027 0.56172 0.98522 0.0
H5139 H 0.95543 0.58525 0.03246 0.0
H5140 H 0.9346 0.60559 0.02875 0.0
H5141 H 0.90151 0.55986 0.98485 0.0
H5142 H 0.92208 0.53948 0.98879 0.0
H5143 H 0.8809 0.5715 0.00874 0.0
H5144 H 0.92685 0.60576 0.97497 0.0
H5145 H 0.95751 0.62372 0.97013 0.0
H5146 H 0.95963 0.66586 0.02069 0.0
H5147 H 0.92878 0.64843 0.02556 0.0
C5148 C 0.83266 0.62825 0.98565 0.0
C5149 C 0.83295 0.64555 0.99832 0.0
C5150 C 0.84642 0.61879 0.98743 0.0
C5151 C 0.86082 0.62638 0.00189 0.0
C5152 C 0.86133 0.64383 0.01439 0.0
C5153 C 0.84749 0.65325 0.0127 0.0
C5154 C 0.8751 0.61586 0.00409 0.0
C5155 C 0.89328 0.62527 0.00303 0.0
C5156 C 0.87068 0.59624 0.00624 0.0
C5157 C 0.85193 0.58576 0.00848 0.0
C5158 C 0.84259 0.59345 0.02281 0.0
C5159 C 0.82488 0.58358 0.02476 0.0
C5160 C 0.8164 0.56594 0.01254 0.0
C5161 C 0.82563 0.5581 0.99837 0.0
C5162 C 0.84334 0.56792 0.99635 0.0
C5163 C 0.94387 0.57971 0.0218 0.0
C5164 C 0.94033 0.56072 0.01101 0.0
C5165 C 0.93198 0.59138 0.01963 0.0
C5166 C 0.9164 0.58435 0.00647 0.0
C5167 C 0.9133 0.56564 0.99519 0.0
C5168 C 0.92508 0.55398 0.99746 0.0
C5169 C 0.90255 0.59567 0.00537 0.0
C5170 C 0.88439 0.58643 0.00677 0.0
C5171 C 0.907 0.61538 0.00344 0.0
C5172 C 0.92561 0.62571 0.00072 0.0
C5173 C 0.9339 0.61881 0.9851 0.0
C5174 C 0.95126 0.62894 0.98231 0.0
C5175 C 0.96058 0.6458 0.99519 0.0
C5176 C 0.95243 0.65275 0.01076 0.0
C5177 C 0.93496 0.64284 0.01347 0.0
H5178 H 0.97407 0.65353 0.99307 0.0
H5179 H 0.80269 0.55832 0.01407 0.0
H5180 H 0.17733 0.0776 0.75556 0.0
H5181 H 0.19652 0.10999 0.75678 0.0
H5182 H 0.2415 0.09433 0.78256 0.0
H5183 H 0.22196 0.06116 0.78135 0.0
H5184 H 0.23892 0.13202 0.80025 0.0
H5185 H 0.24086 0.1 0.73713 0.0
H5186 H 0.22838 0.07996 0.70571 0.0
H5187 H 0.19808 0.1207 0.6962 0.0
H5188 H 0.21017 0.14086 0.72769 0.0
H5189 H 0.29732 0.22417 0.7915 0.0
H5190 H 0.28347 0.18971 0.7907 0.0
H5191 H 0.23719 0.1923 0.75535 0.0
H5192 H 0.25142 0.22645 0.75536 0.0
H5193 H 0.24335 0.15979 0.74254 0.0
H5194 H 0.23871 0.19021 0.80592 0.0
H5195 H 0.25006 0.21043 0.83753 0.0
H5196 H 0.28422 0.17318 0.8468 0.0
H5197 H 0.27322 0.15287 0.81513 0.0
C5198 C 0.19133 0.08077 0.76146 0.0
C5199 C 0.19789 0.06635 0.76833 0.0
C5200 C 0.20242 0.09955 0.76208 0.0
C5201 C 0.22069 0.10501 0.76965 0.0
C5202 C 0.22749 0.09073 0.77658 0.0
C5203 C 0.21631 0.0716 0.77576 0.0
C5204 C 0.23217 0.12562 0.7702 0.0
C5205 C 0.24018 0.13792 0.78754 0.0
C5206 C 0.23358 0.13391 0.75383 0.0
C5207 C 0.22633 0.12187 0.73484 0.0
C5208 C 0.23143 0.10462 0.7284 0.0
C5209 C 0.22445 0.09324 0.71057 0.0
C5210 C 0.21242 0.09903 0.69898 0.0
C5211 C 0.20739 0.11623 0.7052 0.0
C5212 C 0.21432 0.12765 0.72303 0.0
C5213 C 0.28429 0.21743 0.78336 0.0
C5214 C 0.2758 0.22843 0.77328 0.0
C5215 C 0.27615 0.19756 0.78312 0.0
C5216 C 0.25895 0.1879 0.77312 0.0
C5217 C 0.25041 0.19896 0.76319 0.0
C5218 C 0.25861 0.21876 0.76329 0.0
C5219 C 0.24994 0.16643 0.77266 0.0
C5220 C 0.24228 0.15393 0.75528 0.0
C5221 C 0.24875 0.15805 0.78902 0.0
C5222 C 0.25529 0.17015 0.80809 0.0
C5223 C 0.24873 0.18641 0.81465 0.0
C5224 C 0.25509 0.19787 0.83258 0.0
C5225 C 0.26789 0.19313 0.84414 0.0
C5226 C 0.27432 0.17686 0.83782 0.0
C5227 C 0.26802 0.16536 0.81989 0.0
H5228 H 0.27281 0.20203 0.85802 0.0
H5229 H 0.20702 0.09021 0.68518 0.0
H5230 H 0.39965 0.98255 0.26981 0.0
H5231 H 0.37556 0.95338 0.26853 0.0
H5232 H 0.34118 0.98817 0.29299 0.0
H5233 H 0.36571 0.01787 0.29472 0.0
H5234 H 0.34118 0.9583 0.31056 0.0
H5235 H 0.3293 0.9627 0.24627 0.0
H5236 H 0.33722 0.96817 0.21489 0.0
H5237 H 0.3626 0.92096 0.20887 0.0
H5238 H 0.35485 0.91523 0.24021 0.0
H5239 H 0.28703 0.85018 0.26277 0.0
H5240 H 0.29171 0.88555 0.26804 0.0
H5241 H 0.34206 0.89338 0.3021 0.0
H5242 H 0.33805 0.85832 0.29566 0.0
H5243 H 0.32373 0.90488 0.25405 0.0
H5244 H 0.34883 0.9336 0.33282 0.0
H5245 H 0.33886 0.93071 0.36415 0.0
H5246 H 0.28324 0.9145 0.34024 0.0
H5247 H 0.29291 0.91662 0.30874 0.0
C5248 C 0.38693 0.98415 0.27476 0.0
C5249 C 0.38465 0.0026 0.28244 0.0
C5250 C 0.37306 0.96739 0.27385 0.0
C5251 C 0.35644 0.96856 0.28038 0.0
C5252 C 0.35388 0.98695 0.28774 0.0
C5253 C 0.36786 0.00389 0.28867 0.0
C5254 C 0.34256 0.95029 0.28072 0.0
C5255 C 0.3371 0.94674 0.29813 0.0
C5256 C 0.33687 0.93527 0.26447 0.0
C5257 C 0.34145 0.93852 0.24555 0.0
C5258 C 0.33659 0.95351 0.23825 0.0
C5259 C 0.34103 0.95664 0.22047 0.0
C5260 C 0.35039 0.94491 0.20988 0.0
C5261 C 0.35534 0.93003 0.21707 0.0
C5262 C 0.35086 0.92679 0.23481 0.0
C5263 C 0.2986 0.85945 0.27221 0.0
C5264 C 0.3117 0.8514 0.2797 0.0
C5265 C 0.30127 0.87964 0.27516 0.0
C5266 C 0.31708 0.89209 0.28572 0.0
C5267 C 0.32949 0.88405 0.2944 0.0
C5268 C 0.32703 0.86389 0.29105 0.0
C5269 C 0.32294 0.91275 0.28402 0.0
C5270 C 0.3272 0.91666 0.26634 0.0
C5271 C 0.32729 0.92813 0.29993 0.0
C5272 C 0.32158 0.9252 0.31849 0.0
C5273 C 0.33448 0.92922 0.33427 0.0
C5274 C 0.32889 0.92767 0.35203 0.0
C5275 C 0.31043 0.92245 0.35419 0.0
C5276 C 0.29753 0.91849 0.33855 0.0
C5277 C 0.30306 0.91961 0.32071 0.0
H5278 H 0.30611 0.9214 0.36797 0.0
H5279 H 0.35381 0.94735 0.19612 0.0
H5280 H 0.56694 0.36621 0.60758 0.0
H5281 H 0.56066 0.39454 0.59702 0.0
H5282 H 0.58303 0.37913 0.54507 0.0
H5283 H 0.58994 0.35144 0.55585 0.0
H5284 H 0.59432 0.41562 0.55512 0.0
H5285 H 0.53493 0.3727 0.54966 0.0
H5286 H 0.50883 0.35129 0.56023 0.0
H5287 H 0.50403 0.39912 0.60249 0.0
H5288 H 0.53026 0.42077 0.59232 0.0
H5289 H 0.56174 0.48479 0.51104 0.0
H5290 H 0.56382 0.45286 0.51732 0.0
H5291 H 0.55423 0.47054 0.57496 0.0
H5292 H 0.5525 0.50221 0.56884 0.0
H5293 H 0.53525 0.43186 0.55953 0.0
H5294 H 0.59587 0.47402 0.56515 0.0
H5295 H 0.62123 0.49526 0.55334 0.0
H5296 H 0.62272 0.44776 0.50893 0.0
H5297 H 0.59713 0.42633 0.5203 0.0
C5298 C 0.57043 0.3688 0.59387 0.0
C5299 C 0.57896 0.35639 0.58263 0.0
C5300 C 0.56674 0.38502 0.58773 0.0
C5301 C 0.57111 0.38911 0.57001 0.0
C5302 C 0.5795 0.37659 0.55879 0.0
C5303 C 0.5834 0.36059 0.56499 0.0
C5304 C 0.56739 0.40652 0.56324 0.0
C5305 C 0.58126 0.41887 0.55584 0.0
C5306 C 0.55047 0.41125 0.56423 0.0
C5307 C 0.53467 0.39831 0.57034 0.0
C5308 C 0.52838 0.37862 0.56129 0.0
C5309 C 0.51356 0.36645 0.5672 0.0
C5310 C 0.50481 0.37383 0.58206 0.0
C5311 C 0.51084 0.39342 0.591 0.0
C5312 C 0.52567 0.40565 0.58516 0.0
C5313 C 0.5597 0.48163 0.5249 0.0
C5314 C 0.55662 0.49588 0.53936 0.0
C5315 C 0.56101 0.46345 0.52855 0.0
C5316 C 0.5592 0.45919 0.54669 0.0
C5317 C 0.55557 0.47328 0.56086 0.0
C5318 C 0.5546 0.49142 0.55733 0.0
C5319 C 0.56215 0.44075 0.55153 0.0
C5320 C 0.5482 0.42834 0.55864 0.0
C5321 C 0.5789 0.43585 0.55012 0.0
C5322 C 0.59445 0.44863 0.54345 0.0
C5323 C 0.60151 0.46815 0.55278 0.0
C5324 C 0.61594 0.48022 0.54618 0.0
C5325 C 0.62355 0.47288 0.53037 0.0
C5326 C 0.61678 0.45344 0.52116 0.0
C5327 C 0.60232 0.44132 0.52768 0.0
H5328 H 0.63472 0.48225 0.52527 0.0
H5329 H 0.49334 0.36438 0.58662 0.0
H5330 H 0.48101 0.77769 0.37549 0.0
H5331 H 0.45581 0.78278 0.35624 0.0
H5332 H 0.41823 0.73949 0.37834 0.0
H5333 H 0.44322 0.73528 0.3983 0.0
H5334 H 0.43135 0.76657 0.32998 0.0
H5335 H 0.37826 0.74952 0.3839 0.0
H5336 H 0.37797 0.75346 0.41832 0.0
H5337 H 0.4284 0.79745 0.42699 0.0
H5338 H 0.4288 0.79423 0.39265 0.0
H5339 H 0.34742 0.76264 0.28203 0.0
H5340 H 0.37254 0.75585 0.29925 0.0
H5341 H 0.36698 0.79694 0.34824 0.0
H5342 H 0.34051 0.80197 0.33159 0.0
H5343 H 0.37704 0.77357 0.36155 0.0
H5344 H 0.40237 0.80467 0.31391 0.0
H5345 H 0.40686 0.81128 0.28214 0.0
H5346 H 0.41839 0.75588 0.26513 0.0
H5347 H 0.41371 0.74881 0.29673 0.0
C5348 C 0.4674 0.76903 0.37599 0.0
C5349 C 0.46415 0.75614 0.38852 0.0
C5350 C 0.45292 0.77199 0.36498 0.0
C5351 C 0.43486 0.76194 0.36608 0.0
C5352 C 0.43184 0.74799 0.37759 0.0
C5353 C 0.44621 0.7454 0.38888 0.0
C5354 C 0.41915 0.7665 0.35591 0.0
C5355 C 0.41947 0.76808 0.3369 0.0
C5356 C 0.40386 0.76947 0.36498 0.0
C5357 C 0.40368 0.77141 0.38567 0.0
C5358 C 0.38927 0.76006 0.39314 0.0
C5359 C 0.38908 0.76217 0.41264 0.0
C5360 C 0.4032 0.77556 0.42483 0.0
C5361 C 0.41751 0.787 0.41754 0.0
C5362 C 0.41772 0.78505 0.39806 0.0
C5363 C 0.35143 0.77019 0.29647 0.0
C5364 C 0.34201 0.78323 0.30516 0.0
C5365 C 0.3661 0.76645 0.30636 0.0
C5366 C 0.37246 0.77637 0.32504 0.0
C5367 C 0.3627 0.78903 0.33388 0.0
C5368 C 0.34752 0.79209 0.32423 0.0
C5369 C 0.38898 0.7734 0.33539 0.0
C5370 C 0.38884 0.77209 0.3545 0.0
C5371 C 0.40497 0.77211 0.32676 0.0
C5372 C 0.40754 0.77614 0.30765 0.0
C5373 C 0.40574 0.79383 0.30335 0.0
C5374 C 0.40835 0.79768 0.28539 0.0
C5375 C 0.41296 0.78403 0.27165 0.0
C5376 C 0.41487 0.76646 0.27581 0.0
C5377 C 0.41224 0.76252 0.29374 0.0
H5378 H 0.41499 0.78704 0.25775 0.0
H5379 H 0.40302 0.77712 0.43993 0.0
H5380 H 0.08511 0.75307 0.05621 0.0
H5381 H 0.07904 0.71761 0.0477 0.0
H5382 H 0.05732 0.71268 0.10051 0.0
H5383 H 0.06318 0.74822 0.10907 0.0
H5384 H 0.08303 0.69215 0.09392 0.0
H5385 H 0.02956 0.69758 0.0604 0.0
H5386 H 0.01119 0.70927 0.03825 0.0
H5387 H 0.03819 0.68706 0.99246 0.0
H5388 H 0.05692 0.67548 0.01439 0.0
H5389 H 0.05275 0.58892 0.07575 0.0
H5390 H 0.05752 0.62412 0.08368 0.0
H5391 H 0.06807 0.6278 0.02655 0.0
H5392 H 0.06182 0.59234 0.01831 0.0
H5393 H 0.04764 0.64936 0.03567 0.0
H5394 H 0.10413 0.64876 0.06941 0.0
H5395 H 0.12385 0.63831 0.09149 0.0
H5396 H 0.09189 0.65187 0.1361 0.0
H5397 H 0.0722 0.6626 0.11433 0.0
C5398 C 0.07874 0.74446 0.06591 0.0
C5399 C 0.07463 0.7536 0.08335 0.0
C5400 C 0.07524 0.72412 0.06098 0.0
C5401 C 0.06769 0.71236 0.07342 0.0
C5402 C 0.06314 0.72139 0.09065 0.0
C5403 C 0.06641 0.74174 0.09548 0.0
C5404 C 0.06572 0.69085 0.06899 0.0
C5405 C 0.07507 0.68275 0.0813 0.0
C5406 C 0.0558 0.67858 0.05226 0.0
C5407 C 0.0448 0.68587 0.03909 0.0
C5408 C 0.03174 0.69539 0.04565 0.0
C5409 C 0.02122 0.70195 0.03312 0.0
C5410 C 0.02356 0.69896 0.01397 0.0
C5411 C 0.03641 0.6894 0.0073 0.0
C5412 C 0.04698 0.68283 0.01978 0.0
C5413 C 0.05645 0.59729 0.06496 0.0
C5414 C 0.05739 0.58776 0.04651 0.0
C5415 C 0.05935 0.61756 0.06955 0.0
C5416 C 0.06361 0.62903 0.0559 0.0
C5417 C 0.06493 0.61951 0.03748 0.0
C5418 C 0.06163 0.59913 0.03279 0.0
C5419 C 0.06521 0.65058 0.06046 0.0
C5420 C 0.05571 0.65872 0.04823 0.0
C5421 C 0.07512 0.66298 0.0772 0.0
C5422 C 0.0866 0.65615 0.0902 0.0
C5423 C 0.10125 0.64927 0.08388 0.0
C5424 C 0.11245 0.64341 0.09635 0.0
C5425 C 0.10901 0.64424 0.11512 0.0
C5426 C 0.09449 0.65114 0.12153 0.0
C5427 C 0.08338 0.65721 0.10917 0.0
H5428 H 0.11766 0.63964 0.12473 0.0
H5429 H 0.01538 0.70402 0.00429 0.0
H5430 H 0.06573 0.30842 0.87634 0.0
H5431 H 0.09201 0.30852 0.85891 0.0
H5432 H 0.09303 0.25238 0.8705 0.0
H5433 H 0.06663 0.25219 0.88811 0.0
H5434 H 0.1275 0.27744 0.87535 0.0
H5435 H 0.07701 0.25549 0.82745 0.0
H5436 H 0.04858 0.2566 0.81034 0.0
H5437 H 0.07512 0.31171 0.79773 0.0
H5438 H 0.10367 0.31107 0.81499 0.0
H5439 H 0.18945 0.26213 0.80607 0.0
H5440 H 0.16458 0.25945 0.82611 0.0
H5441 H 0.1553 0.31267 0.81389 0.0
H5442 H 0.17986 0.31524 0.79382 0.0
H5443 H 0.12444 0.28636 0.80919 0.0
H5444 H 0.17471 0.30903 0.85767 0.0
H5445 H 0.20327 0.30823 0.87468 0.0
H5446 H 0.17755 0.25248 0.88647 0.0
H5447 H 0.14889 0.25276 0.86918 0.0
C5448 C 0.07146 0.29603 0.87518 0.0
C5449 C 0.06391 0.28024 0.8836 0.0
C5450 C 0.08653 0.2961 0.86515 0.0
C5451 C 0.0945 0.28039 0.8632 0.0
C5452 C 0.08716 0.26468 0.87176 0.0
C5453 C 0.07197 0.26455 0.88175 0.0
C5454 C 0.11033 0.28041 0.85204 0.0
C5455 C 0.12676 0.27909 0.86078 0.0
C5456 C 0.10956 0.28291 0.83313 0.0
C5457 C 0.09244 0.2833 0.82266 0.0
C5458 C 0.07675 0.26792 0.82115 0.0
C5459 C 0.06062 0.26845 0.8114 0.0
C5460 C 0.06004 0.28424 0.80299 0.0
C5461 C 0.07559 0.2995 0.80427 0.0
C5462 C 0.09176 0.29905 0.81401 0.0
C5463 C 0.18231 0.27343 0.80796 0.0
C5464 C 0.18659 0.28883 0.79822 0.0
C5465 C 0.16804 0.27188 0.81941 0.0
C5466 C 0.15791 0.28584 0.82157 0.0
C5467 C 0.16269 0.30158 0.81238 0.0
C5468 C 0.1768 0.30306 0.80091 0.0
C5469 C 0.14181 0.28378 0.83255 0.0
C5470 C 0.12525 0.28465 0.82373 0.0
C5471 C 0.14253 0.28094 0.85139 0.0
C5472 C 0.1597 0.28082 0.86193 0.0
C5473 C 0.17517 0.29652 0.86375 0.0
C5474 C 0.19138 0.29618 0.87348 0.0
C5475 C 0.19224 0.2803 0.88163 0.0
C5476 C 0.17688 0.26475 0.88012 0.0
C5477 C 0.16064 0.265 0.87035 0.0
H5478 H 0.20481 0.28004 0.88913 0.0
H5479 H 0.04753 0.28462 0.79546 0.0
H5480 H 0.59625 0.75966 0.92363 0.0
H5481 H 0.59936 0.73623 0.94339 0.0
H5482 H 0.58194 0.77102 0.98984 0.0
H5483 H 0.57838 0.79412 0.97013 0.0
H5484 H 0.61601 0.73467 0.97852 0.0
H5485 H 0.54857 0.7416 0.00666 0.0
H5486 H 0.52149 0.75201 0.99744 0.0
H5487 H 0.52918 0.73679 0.93908 0.0
H5488 H 0.55612 0.72603 0.94796 0.0
H5489 H 0.59485 0.67821 0.05013 0.0
H5490 H 0.60114 0.70448 0.03236 0.0
H5491 H 0.55892 0.67037 0.98866 0.0
H5492 H 0.55218 0.64451 0.00653 0.0
H5493 H 0.55585 0.7061 0.99793 0.0
H5494 H 0.60348 0.6757 0.98257 0.0
H5495 H 0.62981 0.66305 0.98924 0.0
H5496 H 0.66043 0.72037 0.01727 0.0
H5497 H 0.63418 0.73332 0.01101 0.0
C5498 C 0.59354 0.76254 0.93819 0.0
C5499 C 0.5867 0.77845 0.94525 0.0
C5500 C 0.59539 0.74919 0.94948 0.0
C5501 C 0.59054 0.75174 0.96793 0.0
C5502 C 0.58547 0.76866 0.97553 0.0
C5503 C 0.58339 0.7818 0.96423 0.0
C5504 C 0.58809 0.73558 0.97826 0.0
C5505 C 0.60291 0.72843 0.98286 0.0
C5506 C 0.57088 0.72719 0.98351 0.0
C5507 C 0.55446 0.73321 0.978 0.0
C5508 C 0.54442 0.7404 0.99187 0.0
C5509 C 0.52911 0.74637 0.9867 0.0
C5510 C 0.52365 0.74512 0.96769 0.0
C5511 C 0.53345 0.73781 0.9538 0.0
C5512 C 0.54875 0.73179 0.95889 0.0
C5513 C 0.58685 0.67641 0.03679 0.0
C5514 C 0.57304 0.65929 0.0297 0.0
C5515 C 0.5906 0.69131 0.02657 0.0
C5516 C 0.58061 0.68927 0.00911 0.0
C5517 C 0.56683 0.67221 0.00207 0.0
C5518 C 0.56308 0.65739 0.01225 0.0
C5519 C 0.5838 0.7052 0.99846 0.0
C5520 C 0.56904 0.71235 0.99376 0.0
C5521 C 0.60094 0.71317 0.99279 0.0
C5522 C 0.61679 0.70545 0.99649 0.0
C5523 C 0.61577 0.68559 0.99029 0.0
C5524 C 0.63069 0.67836 0.99398 0.0
C5525 C 0.64677 0.69089 0.00371 0.0
C5526 C 0.64796 0.71068 0.00975 0.0
C5527 C 0.63307 0.71797 0.00613 0.0
H5528 H 0.65831 0.68527 0.00652 0.0
H5529 H 0.51181 0.74978 0.96372 0.0
H5530 H 0.03932 0.71653 0.68945 0.0
H5531 H 0.0688 0.71597 0.70345 0.0
H5532 H 0.08574 0.77878 0.71442 0.0
H5533 H 0.05632 0.7794 0.69958 0.0
H5534 H 0.11165 0.76553 0.70131 0.0
H5535 H 0.07551 0.75212 0.75055 0.0
H5536 H 0.04943 0.73611 0.76543 0.0
H5537 H 0.06222 0.68123 0.74952 0.0
H5538 H 0.08824 0.69685 0.73432 0.0
H5539 H 0.19185 0.76266 0.75617 0.0
H5540 H 0.16238 0.7685 0.7485 0.0
H5541 H 0.14097 0.70783 0.72268 0.0
H5542 H 0.17051 0.70194 0.7296 0.0
H5543 H 0.11805 0.72373 0.74716 0.0
H5544 H 0.15282 0.7384 0.69529 0.0
H5545 H 0.17936 0.75571 0.68187 0.0
H5546 H 0.16933 0.81054 0.70545 0.0
H5547 H 0.14286 0.79353 0.71924 0.0
C5548 C 0.04924 0.73027 0.69497 0.0
C5549 C 0.04545 0.74803 0.69348 0.0
C5550 C 0.0661 0.72993 0.7031 0.0
C5551 C 0.07942 0.74735 0.71039 0.0
C5552 C 0.07566 0.76515 0.70899 0.0
C5553 C 0.05884 0.76549 0.70054 0.0
C5554 C 0.09749 0.74676 0.7186 0.0
C5555 C 0.11302 0.75671 0.71164 0.0
C5556 C 0.09938 0.73513 0.73198 0.0
C5557 C 0.08377 0.72566 0.74118 0.0
C5558 C 0.0727 0.73662 0.75011 0.0
C5559 C 0.05793 0.72761 0.75862 0.0
C5560 C 0.05415 0.70766 0.75839 0.0
C5561 C 0.06516 0.69668 0.74969 0.0
C5562 C 0.07994 0.70561 0.74115 0.0
C5563 C 0.18094 0.75057 0.7487 0.0
C5564 C 0.18363 0.73183 0.7434 0.0
C5565 C 0.16408 0.75393 0.74447 0.0
C5566 C 0.14957 0.7386 0.73498 0.0
C5567 C 0.15202 0.71982 0.73011 0.0
C5568 C 0.1689 0.71648 0.73415 0.0
C5569 C 0.13193 0.74215 0.72955 0.0
C5570 C 0.11656 0.73276 0.73705 0.0
C5571 C 0.13021 0.75453 0.71693 0.0
C5572 C 0.146 0.76471 0.70846 0.0
C5573 C 0.15636 0.75415 0.69774 0.0
C5574 C 0.17137 0.76391 0.69004 0.0
C5575 C 0.17606 0.78422 0.69285 0.0
C5576 C 0.1657 0.79481 0.70331 0.0
C5577 C 0.15069 0.78512 0.71106 0.0
H5578 H 0.18769 0.79174 0.68689 0.0
H5579 H 0.04271 0.70072 0.76499 0.0
H5580 H 0.12565 0.38698 0.47222 0.0
H5581 H 0.12857 0.42143 0.48553 0.0
H5582 H 0.09377 0.42455 0.4377 0.0
H5583 H 0.09192 0.39066 0.424 0.0
H5584 H 0.11397 0.45886 0.45063 0.0
H5585 H 0.07706 0.40888 0.47839 0.0
H5586 H 0.07137 0.38089 0.49426 0.0
H5587 H 0.10969 0.41461 0.5412 0.0
H5588 H 0.11577 0.44273 0.52545 0.0
H5589 H 0.0465 0.50189 0.48706 0.0
H5590 H 0.06259 0.47736 0.47675 0.0
H5591 H 0.10733 0.50768 0.51901 0.0
H5592 H 0.09171 0.53296 0.52903 0.0
H5593 H 0.08967 0.46157 0.51264 0.0
H5594 H 0.11858 0.51491 0.48383 0.0
H5595 H 0.11796 0.54078 0.46605 0.0
H5596 H 0.088 0.49801 0.4185 0.0
H5597 H 0.08802 0.47195 0.43618 0.0
C5598 C 0.11948 0.39542 0.46418 0.0
C5599 C 0.10868 0.38642 0.44711 0.0
C5600 C 0.12094 0.41499 0.47185 0.0
C5601 C 0.1109 0.42543 0.46292 0.0
C5602 C 0.1016 0.41687 0.44493 0.0
C5603 C 0.10055 0.3975 0.43706 0.0
C5604 C 0.10747 0.44366 0.4733 0.0
C5605 C 0.10884 0.45951 0.46427 0.0
C5606 C 0.10072 0.4446 0.49114 0.0
C5607 C 0.09705 0.42778 0.50066 0.0
C5608 C 0.08434 0.41027 0.49205 0.0
C5609 C 0.08105 0.39439 0.50101 0.0
C5610 C 0.09021 0.39595 0.5187 0.0
C5611 C 0.10265 0.41341 0.52747 0.0
C5612 C 0.10603 0.42931 0.51854 0.0
C5613 C 0.05973 0.50345 0.49425 0.0
C5614 C 0.0679 0.51961 0.50871 0.0
C5615 C 0.06889 0.48938 0.48831 0.0
C5616 C 0.08621 0.491 0.49693 0.0
C5617 C 0.09402 0.50639 0.5121 0.0
C5618 C 0.085 0.52073 0.51785 0.0
C5619 C 0.09594 0.47641 0.48982 0.0
C5620 C 0.09552 0.4612 0.49938 0.0
C5621 C 0.10293 0.4758 0.4722 0.0
C5622 C 0.10319 0.49147 0.46141 0.0
C5623 C 0.1117 0.51103 0.46966 0.0
C5624 C 0.11147 0.52574 0.45958 0.0
C5625 C 0.1029 0.52105 0.44116 0.0
C5626 C 0.09459 0.50164 0.43278 0.0
C5627 C 0.09472 0.4869 0.44282 0.0
H5628 H 0.10272 0.53244 0.43337 0.0
H5629 H 0.08764 0.38365 0.52563 0.0
H5630 H 0.45352 0.2923 0.18776 0.0
H5631 H 0.42368 0.29546 0.19658 0.0
H5632 H 0.42698 0.26127 0.2389 0.0
H5633 H 0.45659 0.25833 0.23058 0.0
H5634 H 0.39645 0.24718 0.2054 0.0
H5635 H 0.42866 0.30088 0.25619 0.0
H5636 H 0.44881 0.33347 0.2693 0.0
H5637 H 0.41474 0.35936 0.2387 0.0
H5638 H 0.39457 0.32686 0.2251 0.0
H5639 H 0.32156 0.23763 0.25871 0.0
H5640 H 0.35111 0.24178 0.24641 0.0
H5641 H 0.34272 0.29065 0.22393 0.0
H5642 H 0.31325 0.28642 0.23605 0.0
H5643 H 0.37511 0.29988 0.24313 0.0
H5644 H 0.34186 0.24923 0.19444 0.0
H5645 H 0.32237 0.21794 0.17668 0.0
H5646 H 0.35736 0.18745 0.19942 0.0
H5647 H 0.37694 0.21855 0.21756 0.0
C5648 C 0.44809 0.28596 0.1993 0.0
C5649 C 0.45727 0.27481 0.20827 0.0
C5650 C 0.4311 0.28777 0.2043 0.0
C5651 C 0.42323 0.2785 0.2183 0.0
C5652 C 0.4329 0.2685 0.22805 0.0
C5653 C 0.4498 0.2668 0.2232 0.0
C5654 C 0.40406 0.27665 0.22116 0.0
C5655 C 0.39173 0.2586 0.21382 0.0
C5656 C 0.39796 0.29192 0.23141 0.0
C5657 C 0.41032 0.31139 0.2393 0.0
C5658 C 0.42564 0.31348 0.25197 0.0
C5659 C 0.43702 0.33195 0.25957 0.0
C5660 C 0.43312 0.34847 0.25475 0.0
C5661 C 0.4178 0.34655 0.24235 0.0
C5662 C 0.4064 0.3281 0.23468 0.0
C5663 C 0.32607 0.24919 0.25108 0.0
C5664 C 0.31549 0.26213 0.24885 0.0
C5665 C 0.34284 0.25148 0.24395 0.0
C5666 C 0.3491 0.26656 0.23426 0.0
C5667 C 0.33819 0.27901 0.23145 0.0
C5668 C 0.32142 0.27666 0.23849 0.0
C5669 C 0.36749 0.27005 0.22811 0.0
C5670 C 0.37969 0.28842 0.2347 0.0
C5671 C 0.37344 0.25514 0.21694 0.0
C5672 C 0.36082 0.23626 0.20747 0.0
C5673 C 0.34524 0.23584 0.19592 0.0
C5674 C 0.33424 0.21814 0.18568 0.0
C5675 C 0.3387 0.20074 0.1868 0.0
C5676 C 0.35401 0.20097 0.19843 0.0
C5677 C 0.36503 0.21862 0.20874 0.0
H5678 H 0.33024 0.18706 0.17876 0.0
H5679 H 0.44193 0.36277 0.26068 0.0
H5680 H 0.61259 0.48733 0.31314 0.0
H5681 H 0.60053 0.48901 0.34369 0.0
H5682 H 0.6507 0.52941 0.37013 0.0
H5683 H 0.66306 0.52675 0.33953 0.0
H5684 H 0.6397 0.51235 0.39582 0.0
H5685 H 0.60597 0.54102 0.35739 0.0
H5686 H 0.58703 0.54352 0.3297 0.0
H5687 H 0.54505 0.49526 0.33828 0.0
H5688 H 0.56384 0.49232 0.36591 0.0
H5689 H 0.59886 0.55012 0.47768 0.0
H5690 H 0.61277 0.54544 0.44822 0.0
H5691 H 0.56831 0.49561 0.42509 0.0
H5692 H 0.55469 0.49984 0.4548 0.0
H5693 H 0.57662 0.51784 0.39831 0.0
H5694 H 0.61188 0.49219 0.43946 0.0
H5695 H 0.63167 0.49295 0.46783 0.0
H5696 H 0.67197 0.54022 0.45494 0.0
H5697 H 0.65227 0.54001 0.42666 0.0
C5698 C 0.62134 0.49611 0.32553 0.0
C5699 C 0.63917 0.50634 0.32354 0.0
C5700 C 0.6142 0.49749 0.34323 0.0
C5701 C 0.6242 0.50989 0.35989 0.0
C5702 C 0.64228 0.51969 0.35799 0.0
C5703 C 0.64954 0.51802 0.34028 0.0
C5704 C 0.61581 0.51284 0.37887 0.0
C5705 C 0.62596 0.51379 0.39616 0.0
C5706 C 0.59771 0.51467 0.3802 0.0
C5707 C 0.5864 0.51631 0.36358 0.0
C5708 C 0.59275 0.53085 0.35329 0.0
C5709 C 0.58203 0.53236 0.33762 0.0
C5710 C 0.56487 0.51951 0.3322 0.0
C5711 C 0.55836 0.50517 0.34247 0.0
C5712 C 0.56903 0.50358 0.35814 0.0
C5713 C 0.59195 0.53804 0.46645 0.0
C5714 C 0.57524 0.52556 0.46907 0.0
C5715 C 0.60007 0.53532 0.44936 0.0
C5716 C 0.59188 0.52006 0.43384 0.0
C5717 C 0.57518 0.50762 0.43641 0.0
C5718 C 0.56721 0.51014 0.45362 0.0
C5719 C 0.60047 0.51722 0.4151 0.0
C5720 C 0.59034 0.51634 0.39788 0.0
C5721 C 0.61871 0.51596 0.41393 0.0
C5722 C 0.63049 0.51621 0.43102 0.0
C5723 C 0.62487 0.50289 0.44276 0.0
C5724 C 0.63609 0.5032 0.45882 0.0
C5725 C 0.65304 0.51666 0.4632 0.0
C5726 C 0.65881 0.52984 0.45154 0.0
C5727 C 0.64762 0.52963 0.4355 0.0
H5728 H 0.66173 0.51682 0.47557 0.0
H5729 H 0.55659 0.52071 0.32007 0.0
H5730 H 0.28306 0.91366 0.06661 0.0
H5731 H 0.27257 0.90276 0.09522 0.0
H5732 H 0.32664 0.89997 0.11237 0.0
H5733 H 0.3371 0.91061 0.08416 0.0
H5734 H 0.30026 0.86537 0.11043 0.0
H5735 H 0.31082 0.93552 0.13418 0.0
H5736 H 0.30463 0.96743 0.13419 0.0
H5737 H 0.249 0.9437 0.14178 0.0
H5738 H 0.25484 0.91157 0.14159 0.0
H5739 H 0.32703 0.89438 0.21111 0.0
H5740 H 0.31028 0.90283 0.18598 0.0
H5741 H 0.27976 0.84279 0.16839 0.0
H5742 H 0.29851 0.83374 0.19148 0.0
H5743 H 0.28155 0.90282 0.16654 0.0
H5744 H 0.27695 0.82882 0.12392 0.0
H5745 H 0.28724 0.79924 0.12544 0.0
H5746 H 0.33754 0.83448 0.15642 0.0
H5747 H 0.32749 0.86421 0.15503 0.0
C5748 C 0.29273 0.91101 0.07667 0.0
C5749 C 0.31086 0.91272 0.07302 0.0
C5750 C 0.28671 0.90477 0.09295 0.0
C5751 C 0.2988 0.90032 0.10571 0.0
C5752 C 0.31705 0.90308 0.10254 0.0
C5753 C 0.32302 0.9092 0.0864 0.0
C5754 C 0.29276 0.89156 0.12188 0.0
C5755 C 0.29575 0.87335 0.12256 0.0
C5756 C 0.28667 0.90186 0.13755 0.0
C5757 C 0.28319 0.92111 0.13758 0.0
C5758 C 0.29722 0.93707 0.13565 0.0
C5759 C 0.2938 0.9552 0.13574 0.0
C5760 C 0.27642 0.95757 0.1379 0.0
C5761 C 0.26244 0.94183 0.14004 0.0
C5762 C 0.2658 0.92366 0.13995 0.0
C5763 C 0.31695 0.88288 0.2018 0.0
C5764 C 0.31536 0.86322 0.20246 0.0
C5765 C 0.3069 0.88783 0.18769 0.0
C5766 C 0.29449 0.87323 0.17449 0.0
C5767 C 0.28998 0.85418 0.1778 0.0
C5768 C 0.30073 0.84904 0.19127 0.0
C5769 C 0.2903 0.87721 0.15553 0.0
C5770 C 0.28521 0.89438 0.15414 0.0
C5771 C 0.295 0.86625 0.13921 0.0
C5772 C 0.30142 0.8486 0.13951 0.0
C5773 C 0.29023 0.83019 0.13096 0.0
C5774 C 0.296 0.81343 0.13183 0.0
C5775 C 0.31302 0.81498 0.14104 0.0
C5776 C 0.32436 0.8333 0.1493 0.0
C5777 C 0.31865 0.8501 0.14846 0.0
H5778 H 0.31744 0.80199 0.14176 0.0
H5779 H 0.27379 0.97162 0.13798 0.0
H5780 H 0.98938 0.60276 0.84121 0.0
H5781 H 0.00502 0.61214 0.87325 0.0
H5782 H 0.95974 0.57462 0.89235 0.0
H5783 H 0.94365 0.5665 0.86068 0.0
H5784 H 0.97695 0.60077 0.92124 0.0
H5785 H 0.9944 0.55706 0.87106 0.0
H5786 H 0.00509 0.54807 0.84014 0.0
H5787 H 0.05409 0.59391 0.85696 0.0
H5788 H 0.04354 0.60331 0.88791 0.0
H5789 H 0.00975 0.5395 0.97014 0.0
H5790 H 0.99748 0.55459 0.94689 0.0
H5791 H 0.04837 0.5981 0.95253 0.0
H5792 H 0.06081 0.58335 0.97642 0.0
H5793 H 0.03299 0.57835 0.91453 0.0
H5794 H 0.01582 0.61477 0.96924 0.0
H5795 H 0.00378 0.61783 8e-05 0.0
H5796 H 0.95267 0.57926 0.97456 0.0
H5797 H 0.96441 0.57598 0.94353 0.0
C5798 C 0.98243 0.59745 0.85254 0.0
C5799 C 0.96541 0.58394 0.84866 0.0
C5800 C 0.99141 0.60263 0.87078 0.0
C5801 C 0.98385 0.59349 0.88505 0.0
C5802 C 0.96594 0.58177 0.88159 0.0
C5803 C 0.95672 0.57712 0.86348 0.0
C5804 C 0.99547 0.59283 0.90194 0.0
C5805 C 0.98929 0.59607 0.91979 0.0
C5806 C 0.01168 0.58673 0.90017 0.0
C5807 C 0.0181 0.58104 0.88166 0.0
C5808 C 0.00741 0.56527 0.86811 0.0
C5809 C 0.01344 0.56011 0.85059 0.0
C5810 C 0.03023 0.57046 0.84657 0.0
C5811 C 0.04106 0.58595 0.86008 0.0
C5812 C 0.03507 0.59121 0.8776 0.0
C5813 C 0.0184 0.55234 0.96661 0.0
C5814 C 0.03629 0.56022 0.97521 0.0
C5815 C 0.01129 0.561 0.95336 0.0
C5816 C 0.02192 0.57764 0.94831 0.0
C5817 C 0.03992 0.58537 0.95647 0.0
C5818 C 0.04702 0.57683 0.96997 0.0
C5819 C 0.01427 0.58594 0.93357 0.0
C5820 C 0.02111 0.58391 0.9161 0.0
C5821 C 0.99845 0.59256 0.93563 0.0
C5822 C 0.99101 0.59514 0.95406 0.0
C5823 C 0.00201 0.60695 0.9702 0.0
C5824 C 0.99525 0.60871 0.98771 0.0
C5825 C 0.97751 0.59869 0.98927 0.0
C5826 C 0.96644 0.58697 0.97331 0.0
C5827 C 0.9731 0.58527 0.95573 0.0
H5828 H 0.97231 0.60013 0.00283 0.0
H5829 H 0.03488 0.56644 0.833 0.0
H5830 H 0.29774 0.2551 0.5589 0.0
H5831 H 0.29945 0.26588 0.59304 0.0
H5832 H 0.31053 0.21206 0.60105 0.0
H5833 H 0.30905 0.20123 0.56685 0.0
H5834 H 0.28006 0.22013 0.61759 0.0
H5835 H 0.34249 0.25264 0.61538 0.0
H5836 H 0.36768 0.27477 0.60426 0.0
H5837 H 0.34526 0.32292 0.6231 0.0
H5838 H 0.31978 0.30102 0.63409 0.0
H5839 H 0.29485 0.23452 0.71557 0.0
H5840 H 0.29381 0.22826 0.68152 0.0
H5841 H 0.29728 0.28886 0.68203 0.0
H5842 H 0.2997 0.29539 0.7167 0.0
H5843 H 0.31928 0.27898 0.6603 0.0
H5844 H 0.25548 0.24793 0.65783 0.0
H5845 H 0.22782 0.22669 0.6662 0.0
H5846 H 0.25056 0.17767 0.65452 0.0
H5847 H 0.27818 0.1986 0.64585 0.0
C5848 C 0.301 0.24575 0.56794 0.0
C5849 C 0.30319 0.22726 0.56016 0.0
C5850 C 0.302 0.25196 0.58746 0.0
C5851 C 0.30505 0.23975 0.59958 0.0
C5852 C 0.30816 0.22171 0.59192 0.0
C5853 C 0.30742 0.21559 0.57238 0.0
C5854 C 0.30299 0.24485 0.61996 0.0
C5855 C 0.28881 0.23285 0.62701 0.0
C5856 C 0.31382 0.26196 0.632 0.0
C5857 C 0.32912 0.27514 0.62538 0.0
C5858 C 0.34283 0.26791 0.61699 0.0
C5859 C 0.35719 0.28042 0.61075 0.0
C5860 C 0.35805 0.30023 0.61293 0.0
C5861 C 0.34457 0.30757 0.6214 0.0
C5862 C 0.33018 0.29511 0.62765 0.0
C5863 C 0.29498 0.24645 0.70839 0.0
C5864 C 0.29699 0.26535 0.71874 0.0
C5865 C 0.29416 0.24281 0.6888 0.0
C5866 C 0.29501 0.25793 0.6789 0.0
C5867 C 0.29646 0.27686 0.68923 0.0
C5868 C 0.29763 0.28058 0.70902 0.0
C5869 C 0.29635 0.25412 0.65814 0.0
C5870 C 0.3104 0.26633 0.65093 0.0
C5871 C 0.28516 0.23739 0.64575 0.0
C5872 C 0.26893 0.22487 0.65154 0.0
C5873 C 0.2546 0.23266 0.65729 0.0
C5874 C 0.23891 0.22066 0.66192 0.0
C5875 C 0.2375 0.20088 0.66104 0.0
C5876 C 0.2517 0.19301 0.65529 0.0
C5877 C 0.26732 0.20491 0.6504 0.0
H5878 H 0.22537 0.19164 0.66473 0.0
H5879 H 0.36917 0.3099 0.60809 0.0
H5880 H 0.60633 0.50431 0.22029 0.0
H5881 H 0.59443 0.50674 0.18921 0.0
H5882 H 0.64565 0.50483 0.16869 0.0
H5883 H 0.65782 0.5026 0.20033 0.0
H5884 H 0.63466 0.53124 0.1543 0.0
H5885 H 0.60291 0.46604 0.15502 0.0
H5886 H 0.58361 0.43875 0.16644 0.0
H5887 H 0.53943 0.46557 0.1658 0.0
H5888 H 0.55854 0.49316 0.1546 0.0
H5889 H 0.60256 0.52324 0.05768 0.0
H5890 H 0.61417 0.51971 0.08847 0.0
H5891 H 0.56234 0.51961 0.10847 0.0
H5892 H 0.55044 0.52259 0.07696 0.0
H5893 H 0.57369 0.49393 0.12303 0.0
H5894 H 0.60695 0.56096 0.12645 0.0
H5895 H 0.62685 0.58883 0.11626 0.0
H5896 H 0.66788 0.55779 0.10866 0.0
H5897 H 0.64838 0.52996 0.11924 0.0
C5898 C 0.61513 0.50397 0.20918 0.0
C5899 C 0.63317 0.50289 0.21331 0.0
C5900 C 0.60815 0.50535 0.19106 0.0
C5901 C 0.61876 0.5058 0.17583 0.0
C5902 C 0.6368 0.50448 0.17977 0.0
C5903 C 0.64381 0.50292 0.19802 0.0
C5904 C 0.61124 0.50854 0.15642 0.0
C5905 C 0.62142 0.52274 0.14746 0.0
C5906 C 0.59366 0.49814 0.14706 0.0
C5907 C 0.58224 0.4818 0.15419 0.0
C5908 C 0.58914 0.46623 0.15751 0.0
C5909 C 0.57822 0.45068 0.1639 0.0
C5910 C 0.56033 0.45046 0.16691 0.0
C5911 C 0.55332 0.46579 0.16352 0.0
C5912 C 0.56418 0.48138 0.15714 0.0
C5913 C 0.59358 0.52282 0.06866 0.0
C5914 C 0.57553 0.52369 0.06449 0.0
C5915 C 0.60039 0.52091 0.08663 0.0
C5916 C 0.58957 0.51974 0.10168 0.0
C5917 C 0.57138 0.52057 0.09758 0.0
C5918 C 0.5645 0.5225 0.07941 0.0
C5919 C 0.59707 0.51673 0.121 0.0
C5920 C 0.58691 0.50245 0.12992 0.0
C5921 C 0.61467 0.52701 0.13035 0.0
C5922 C 0.62613 0.54334 0.12336 0.0
C5923 C 0.62016 0.56006 0.12244 0.0
C5924 C 0.6314 0.57587 0.11672 0.0
C5925 C 0.64854 0.57501 0.11164 0.0
C5926 C 0.65457 0.55841 0.11251 0.0
C5927 C 0.64348 0.54268 0.11849 0.0
H5928 H 0.65718 0.58723 0.10713 0.0
H5929 H 0.55188 0.43839 0.17181 0.0
H5930 H 0.29008 0.89208 0.96044 0.0
H5931 H 0.28582 0.87018 0.92956 0.0
H5932 H 0.31726 0.83583 0.95223 0.0
H5933 H 0.32153 0.85743 0.98296 0.0
H5934 H 0.3307 0.84885 0.92175 0.0
H5935 H 0.27376 0.8161 0.93873 0.0
H5936 H 0.24368 0.8133 0.95002 0.0
H5937 H 0.22617 0.83576 0.90332 0.0
H5938 H 0.25624 0.83896 0.89188 0.0
H5939 H 0.29306 0.77286 0.82898 0.0
H5940 H 0.29161 0.78481 0.86252 0.0
H5941 H 0.31661 0.84335 0.85643 0.0
H5942 H 0.31779 0.83172 0.82305 0.0
H5943 H 0.27433 0.81332 0.87987 0.0
H5944 H 0.34657 0.86489 0.895 0.0
H5945 H 0.37646 0.867 0.88338 0.0
H5946 H 0.36339 0.8047 0.86683 0.0
H5947 H 0.33352 0.80219 0.87861 0.0
C5948 C 0.2957 0.87959 0.95895 0.0
C5949 C 0.30635 0.87666 0.97408 0.0
C5950 C 0.29324 0.86708 0.94132 0.0
C5951 C 0.30134 0.85148 0.93863 0.0
C5952 C 0.311 0.84786 0.954 0.0
C5953 C 0.31341 0.86026 0.97156 0.0
C5954 C 0.30151 0.84025 0.91949 0.0
C5955 C 0.31837 0.84097 0.91265 0.0
C5956 C 0.28542 0.82983 0.90773 0.0
C5957 C 0.26732 0.82792 0.91454 0.0
C5958 C 0.26355 0.82061 0.93095 0.0
C5959 C 0.24649 0.81891 0.93736 0.0
C5960 C 0.23304 0.82439 0.92742 0.0
C5961 C 0.23661 0.83153 0.91101 0.0
C5962 C 0.25365 0.83327 0.90455 0.0
C5963 C 0.29806 0.78829 0.83474 0.0
C5964 C 0.30523 0.80136 0.82324 0.0
C5965 C 0.29726 0.79507 0.85389 0.0
C5966 C 0.30397 0.81494 0.86187 0.0
C5967 C 0.31142 0.82794 0.85051 0.0
C5968 C 0.31209 0.82123 0.83141 0.0
C5969 C 0.30348 0.82231 0.88213 0.0
C5970 C 0.28662 0.82099 0.88912 0.0
C5971 C 0.31957 0.83208 0.89414 0.0
C5972 C 0.33775 0.83338 0.88758 0.0
C5973 C 0.35012 0.85163 0.88901 0.0
C5974 C 0.36705 0.8529 0.88237 0.0
C5975 C 0.37179 0.836 0.87432 0.0
C5976 C 0.35966 0.81778 0.87301 0.0
C5977 C 0.34273 0.81643 0.87965 0.0
H5978 H 0.38486 0.83702 0.86911 0.0
H5979 H 0.21984 0.82306 0.9324 0.0
H5980 H 0.96178 0.58778 0.75287 0.0
H5981 H 0.97762 0.59732 0.72645 0.0
H5982 H 0.98951 0.54129 0.71383 0.0
H5983 H 0.97453 0.53216 0.74081 0.0
H5984 H 0.01821 0.56697 0.71317 0.0
H5985 H 0.95749 0.55587 0.68548 0.0
H5986 H 0.92611 0.55895 0.68303 0.0
H5987 H 0.94574 0.62038 0.68554 0.0
H5988 H 0.97726 0.61772 0.68826 0.0
H5989 H 0.04611 0.57524 0.62223 0.0
H5990 H 0.02775 0.5655 0.64706 0.0
H5991 H 0.03183 0.6258 0.6705 0.0
H5992 H 0.05036 0.63567 0.64572 0.0
H5993 H 0.99499 0.59819 0.6649 0.0
H5994 H 0.05654 0.60716 0.69266 0.0
H5995 H 0.08703 0.60152 0.69282 0.0
H5996 H 0.06381 0.54012 0.68725 0.0
H5997 H 0.03315 0.54538 0.68679 0.0
C5998 C 0.9676 0.57744 0.7443 0.0
C5999 C 0.96702 0.55928 0.74891 0.0
C6000 C 0.97657 0.58286 0.72913 0.0
C6001 C 0.98465 0.56997 0.71799 0.0
C6002 C 0.98349 0.55154 0.72225 0.0
C6003 C 0.97489 0.54631 0.73764 0.0
C6004 C 0.99534 0.57607 0.7027 0.0
C6005 C 0.01294 0.57352 0.70249 0.0
C6006 C 0.98869 0.58495 0.68887 0.0
C6007 C 0.96975 0.58662 0.68727 0.0
C6008 C 0.95512 0.57006 0.68567 0.0
C6009 C 0.93731 0.57173 0.6842 0.0
C6010 C 0.93394 0.58986 0.68418 0.0
C6011 C 0.94837 0.60635 0.68558 0.0
C6012 C 0.96622 0.60477 0.68707 0.0
C6013 C 0.04313 0.5864 0.63273 0.0
C6014 C 0.0497 0.6062 0.6322 0.0
C6015 C 0.03267 0.58083 0.64685 0.0
C6016 C 0.0285 0.59496 0.66053 0.0
C6017 C 0.03494 0.61473 0.66 0.0
C6018 C 0.04563 0.62034 0.64601 0.0
C6019 C 0.0176 0.589 0.67556 0.0
C6020 C 1.00006 0.5916 0.67567 0.0
C6021 C 0.02411 0.57977 0.68905 0.0
C6022 C 0.04255 0.57664 0.68951 0.0
C6023 C 0.05793 0.59244 0.69131 0.0
C6024 C 0.07524 0.58932 0.69149 0.0
C6025 C 0.07736 0.57047 0.69 0.0
C6026 C 0.06216 0.55471 0.68839 0.0
C6027 C 0.04481 0.55776 0.68818 0.0
H6028 H 0.09077 0.56808 0.69014 0.0
H6029 H 0.92013 0.59112 0.68304 0.0
H6030 H 0.28761 0.23788 0.45679 0.0
H6031 H 0.28942 0.24152 0.4243 0.0
H6032 H 0.31687 0.19588 0.41418 0.0
H6033 H 0.31481 0.19174 0.44702 0.0
H6034 H 0.33021 0.23409 0.39775 0.0
H6035 H 0.27937 0.1797 0.39784 0.0
H6036 H 0.25202 0.16265 0.41022 0.0
H6037 H 0.22578 0.20681 0.40098 0.0
H6038 H 0.2531 0.2243 0.38884 0.0
H6039 H 0.27688 0.22127 0.29765 0.0
H6040 H 0.28306 0.2086 0.32567 0.0
H6041 H 0.30672 0.26717 0.35665 0.0
H6042 H 0.3003 0.27991 0.32887 0.0
H6043 H 0.27026 0.21475 0.35946 0.0
H6044 H 0.34037 0.26804 0.38899 0.0
H6045 H 0.36768 0.28555 0.37688 0.0
H6046 H 0.35588 0.2422 0.32578 0.0
H6047 H 0.32856 0.22428 0.33759 0.0
C6048 C 0.29427 0.2287 0.44785 0.0
C6049 C 0.30091 0.21435 0.45455 0.0
C6050 C 0.29529 0.23086 0.42923 0.0
C6051 C 0.30311 0.21887 0.41683 0.0
C6052 C 0.31076 0.20526 0.4236 0.0
C6053 C 0.30959 0.20294 0.44234 0.0
C6054 C 0.30186 0.21996 0.39661 0.0
C6055 C 0.31719 0.22965 0.38922 0.0
C6056 C 0.28488 0.21395 0.38547 0.0
C6057 C 0.26833 0.20337 0.39255 0.0
C6058 C 0.26782 0.18586 0.39859 0.0
C6059 C 0.25231 0.1761 0.40554 0.0
C6060 C 0.23718 0.18366 0.40642 0.0
C6061 C 0.23751 0.20097 0.4003 0.0
C6062 C 0.253 0.2108 0.39336 0.0
C6063 C 0.28311 0.23147 0.31044 0.0
C6064 C 0.28769 0.25163 0.311 0.0
C6065 C 0.28686 0.22418 0.32644 0.0
C6066 C 0.29551 0.2369 0.34325 0.0
C6067 C 0.30033 0.25702 0.34377 0.0
C6068 C 0.29655 0.26428 0.32784 0.0
C6069 C 0.29854 0.22942 0.36065 0.0
C6070 C 0.28343 0.21873 0.36764 0.0
C6071 C 0.31576 0.23441 0.37131 0.0
C6072 C 0.33235 0.24486 0.36418 0.0
C6073 C 0.34364 0.26216 0.37521 0.0
C6074 C 0.3591 0.27218 0.36836 0.0
C6075 C 0.36346 0.26501 0.35053 0.0
C6076 C 0.35241 0.24777 0.33953 0.0
C6077 C 0.33692 0.23769 0.34628 0.0
H6078 H 0.37543 0.27279 0.34525 0.0
H6079 H 0.22519 0.17608 0.41181 0.0
H6080 H 0.31341 0.59141 0.52758 0.0
H6081 H 0.33472 0.57107 0.52387 0.0
H6082 H 0.36794 0.61136 0.49492 0.0
H6083 H 0.34658 0.63154 0.49824 0.0
H6084 H 0.36391 0.57509 0.47685 0.0
H6085 H 0.37989 0.60977 0.541 0.0
H6086 H 0.3745 0.6214 0.5737 0.0
H6087 H 0.35676 0.56237 0.58111 0.0
H6088 H 0.36182 0.55038 0.54835 0.0
H6089 H 0.44642 0.54758 0.48371 0.0
H6090 H 0.42267 0.56485 0.48681 0.0
H6091 H 0.39047 0.51936 0.51093 0.0
H6092 H 0.41434 0.50208 0.50807 0.0
H6093 H 0.39263 0.5563 0.53123 0.0
H6094 H 0.37848 0.52199 0.46704 0.0
H6095 H 0.38487 0.51109 0.43456 0.0
H6096 H 0.40017 0.57038 0.42747 0.0
H6097 H 0.39413 0.58167 0.46002 0.0
C6098 C 0.32528 0.59597 0.52047 0.0
C6099 C 0.3283 0.61312 0.51323 0.0
C6100 C 0.33748 0.58436 0.51842 0.0
C6101 C 0.35302 0.58977 0.50926 0.0
C6102 C 0.35604 0.60687 0.50201 0.0
C6103 C 0.34383 0.61843 0.50398 0.0
C6104 C 0.36606 0.57755 0.50697 0.0
C6105 C 0.37033 0.57116 0.48877 0.0
C6106 C 0.37412 0.57201 0.52247 0.0
C6107 C 0.37104 0.57918 0.54216 0.0
C6108 C 0.37469 0.59927 0.54955 0.0
C6109 C 0.37172 0.60592 0.56811 0.0
C6110 C 0.36524 0.59263 0.57946 0.0
C6111 C 0.36175 0.57265 0.57229 0.0
C6112 C 0.36467 0.56592 0.55373 0.0
C6113 C 0.43428 0.54126 0.48967 0.0
C6114 C 0.43223 0.52348 0.49565 0.0
C6115 C 0.42068 0.55107 0.49132 0.0
C6116 C 0.40476 0.54331 0.49898 0.0
C6117 C 0.40264 0.52555 0.50494 0.0
C6118 C 0.4162 0.51565 0.50317 0.0
C6119 C 0.39057 0.55405 0.50116 0.0
C6120 C 0.38609 0.56013 0.51932 0.0
C6121 C 0.38242 0.55943 0.48565 0.0
C6122 C 0.386 0.55268 0.46603 0.0
C6123 C 0.38335 0.53272 0.45861 0.0
C6124 C 0.38688 0.52647 0.44017 0.0
C6125 C 0.39296 0.54003 0.42897 0.0
C6126 C 0.39548 0.55989 0.43617 0.0
C6127 C 0.39198 0.56622 0.4546 0.0
H6128 H 0.39569 0.53516 0.4147 0.0
H6129 H 0.36296 0.59781 0.59382 0.0
H6130 H 0.86682 0.91755 0.56602 0.0
H6131 H 0.89567 0.94053 0.56386 0.0
H6132 H 0.87203 0.95457 0.5145 0.0
H6133 H 0.84283 0.93206 0.51703 0.0
H6134 H 0.90632 0.93626 0.51421 0.0
H6135 H 0.88209 0.9892 0.54264 0.0
H6136 H 0.86738 0.0061 0.56722 0.0
H6137 H 0.9103 0.0079 0.60896 0.0
H6138 H 0.92513 0.99072 0.58466 0.0
H6139 H 0.98723 0.9965 0.49504 0.0
H6140 H 0.95556 0.98292 0.49891 0.0
H6141 H 0.96918 0.99374 0.55916 0.0
H6142 H 1.00084 0.00838 0.55533 0.0
H6143 H 0.93857 1.00069 0.55334 0.0
H6144 H 0.96197 0.94702 0.52883 0.0
H6145 H 0.97745 0.92781 0.50704 0.0
H6146 H 0.93733 0.92384 0.46151 0.0
H6147 H 0.92174 0.94329 0.48298 0.0
C6148 C 0.86762 0.92605 0.5551 0.0
C6149 C 0.85261 0.92316 0.54175 0.0
C6150 C 0.88408 0.93912 0.55386 0.0
C6151 C 0.88594 0.94921 0.53903 0.0
C6152 C 0.87078 0.947 0.52613 0.0
C6153 C 0.85412 0.93427 0.52765 0.0
C6154 C 0.90423 0.95998 0.53581 0.0
C6155 C 0.91329 0.95055 0.52245 0.0
C6156 C 0.9135 0.97813 0.54724 0.0
C6157 C 0.90461 0.98848 0.56186 0.0
C6158 C 0.88829 0.993 0.55709 0.0
C6159 C 0.87995 0.00268 0.57097 0.0
C6160 C 0.88787 0.00802 0.58965 0.0
C6161 C 0.90417 0.00373 0.59449 0.0
C6162 C 0.91256 0.99404 0.58066 0.0
C6163 C 0.9835 0.99586 0.5091 0.0
C6164 C 0.99657 0.00312 0.52485 0.0
C6165 C 0.96535 0.98808 0.51131 0.0
C6166 C 0.95993 0.98676 0.5293 0.0
C6167 C 0.97295 0.99444 0.54512 0.0
C6168 C 0.99107 0.00268 0.54292 0.0
C6169 C 0.94081 0.97707 0.53152 0.0
C6170 C 0.93162 0.98654 0.54485 0.0
C6171 C 0.93154 0.9586 0.52042 0.0
C6172 C 0.9408 0.94679 0.50748 0.0
C6173 C 0.95652 0.94216 0.51414 0.0
C6174 C 0.9653 0.93122 0.50185 0.0
C6175 C 0.95841 0.92465 0.48289 0.0
C6176 C 0.94267 0.92897 0.47619 0.0
C6177 C 0.93385 0.93994 0.48842 0.0
H6178 H 0.96523 0.91618 0.47339 0.0
H6179 H 0.8814 0.01552 0.60037 0.0
H6180 H 0.92228 0.13561 0.28118 0.0
H6181 H 0.90952 0.16401 0.28245 0.0
H6182 H 0.85849 0.12604 0.2554 0.0
H6183 H 0.87116 0.09821 0.25369 0.0
H6184 H 0.86063 0.15435 0.24107 0.0
H6185 H 0.87018 0.1538 0.30691 0.0
H6186 H 0.88777 0.15482 0.33687 0.0
H6187 H 0.9219 0.21073 0.3339 0.0
H6188 H 0.90463 0.20994 0.30381 0.0
H6189 H 0.82624 0.24619 0.29352 0.0
H6190 H 0.83904 0.21812 0.29531 0.0
H6191 H 0.85437 0.21807 0.23922 0.0
H6192 H 0.8409 0.2448 0.23713 0.0
H6193 H 0.86916 0.20838 0.29626 0.0
H6194 H 0.86261 0.17957 0.21651 0.0
H6195 H 0.84206 0.17608 0.18782 0.0
H6196 H 0.79717 0.17419 0.22073 0.0
H6197 H 0.81752 0.17777 0.24965 0.0
C6198 C 0.90831 0.13321 0.27558 0.0
C6199 C 0.89804 0.114 0.26731 0.0
C6200 C 0.90081 0.14971 0.27639 0.0
C6201 C 0.88258 0.1479 0.26915 0.0
C6202 C 0.87248 0.12867 0.26107 0.0
C6203 C 0.87991 0.11238 0.26018 0.0
C6204 C 0.87391 0.16542 0.26931 0.0
C6205 C 0.86272 0.16607 0.25329 0.0
C6206 C 0.87584 0.18121 0.285 0.0
C6207 C 0.88624 0.18171 0.30303 0.0
C6208 C 0.88152 0.16625 0.31259 0.0
C6209 C 0.89141 0.1668 0.3296 0.0
C6210 C 0.90598 0.1828 0.33725 0.0
C6211 C 0.91064 0.19833 0.32794 0.0
C6212 C 0.9008 0.19784 0.31091 0.0
C6213 C 0.83191 0.23988 0.28138 0.0
C6214 C 0.83181 0.24786 0.2649 0.0
C6215 C 0.83954 0.22372 0.28244 0.0
C6216 C 0.8476 0.21484 0.26721 0.0
C6217 C 0.8478 0.22333 0.2511 0.0
C6218 C 0.84008 0.23912 0.24996 0.0
C6219 C 0.85608 0.1973 0.26794 0.0
C6220 C 0.86718 0.19665 0.28407 0.0
C6221 C 0.85386 0.18125 0.25245 0.0
C6222 C 0.84159 0.17918 0.23522 0.0
C6223 C 0.84835 0.17843 0.21761 0.0
C6224 C 0.83676 0.17648 0.20133 0.0
C6225 C 0.81834 0.17505 0.20248 0.0
C6226 C 0.81147 0.17548 0.2199 0.0
C6227 C 0.82303 0.17755 0.23624 0.0
H6228 H 0.80938 0.17353 0.18986 0.0
H6229 H 0.91362 0.1832 0.35042 0.0
H6230 H 0.7557 0.12608 0.02274 0.0
H6231 H 0.72474 0.10886 0.02691 0.0
H6232 H 0.70315 0.1376 0.98731 0.0
H6233 H 0.73393 0.15529 0.98352 0.0
H6234 H 0.69744 0.13303 0.03852 0.0
H6235 H 0.66408 0.09705 0.96303 0.0
H6236 H 0.67195 0.08191 0.93256 0.0
H6237 H 0.71573 0.06685 0.96096 0.0
H6238 H 0.70774 0.0813 0.99167 0.0
H6239 H 0.60182 0.11874 0.02019 0.0
H6240 H 0.63495 0.12735 0.02379 0.0
H6241 H 0.63382 0.06649 0.01605 0.0
H6242 H 0.60094 0.05791 0.01155 0.0
H6243 H 0.65257 0.08294 0.99154 0.0
H6244 H 0.65324 0.10053 0.06 0.0
H6245 H 0.64541 0.11802 0.08963 0.0
H6246 H 0.66614 0.17264 0.07329 0.0
H6247 H 0.67433 0.15562 0.0438 0.0
C6248 C 0.74435 0.12842 0.01466 0.0
C6249 C 0.74715 0.14205 0.00287 0.0
C6250 C 0.72673 0.11866 0.01712 0.0
C6251 C 0.71177 0.122 0.00738 0.0
C6252 C 0.71458 0.13481 0.99485 0.0
C6253 C 0.73213 0.14489 0.99273 0.0
C6254 C 0.69318 0.11361 0.01149 0.0
C6255 C 0.68763 0.12187 0.02839 0.0
C6256 C 0.68046 0.09931 0.99809 0.0
C6257 C 0.68545 0.09053 0.97969 0.0
C6258 C 0.67536 0.09047 0.96281 0.0
C6259 C 0.67984 0.08199 0.94547 0.0
C6260 C 0.69443 0.07357 0.9448 0.0
C6261 C 0.7045 0.07349 0.96149 0.0
C6262 C 0.7 0.08184 0.97888 0.0
C6263 C 0.60869 0.10726 0.01981 0.0
C6264 C 0.59872 0.08766 0.01586 0.0
C6265 C 0.62762 0.11219 0.02201 0.0
C6266 C 0.63692 0.09757 0.02037 0.0
C6267 C 0.62696 0.07803 0.01749 0.0
C6268 C 0.60805 0.07311 0.01507 0.0
C6269 C 0.65665 0.10239 0.01862 0.0
C6270 C 0.66241 0.0937 0.00197 0.0
C6271 C 0.66947 0.11665 0.03204 0.0
C6272 C 0.66429 0.12678 0.04967 0.0
C6273 C 0.65601 0.11625 0.0627 0.0
C6274 C 0.65155 0.12607 0.07946 0.0
C6275 C 0.65514 0.14635 0.08324 0.0
C6276 C 0.66334 0.15692 0.07034 0.0
C6277 C 0.66798 0.14722 0.05366 0.0
H6278 H 0.65163 0.15389 0.09619 0.0
H6279 H 0.69789 0.06705 0.93136 0.0
H6280 H 0.25062 0.50962 0.26623 0.0
H6281 H 0.25648 0.47916 0.27173 0.0
H6282 H 0.20131 0.44838 0.25009 0.0
H6283 H 0.19538 0.47867 0.24429 0.0
H6284 H 0.21228 0.44335 0.28645 0.0
H6285 H 0.2324 0.43877 0.22507 0.0
H6286 H 0.24989 0.45011 0.2 0.0
H6287 H 0.29963 0.45703 0.23434 0.0
H6288 H 0.28245 0.446 0.25975 0.0
H6289 H 0.22521 0.35323 0.30114 0.0
H6290 H 0.21712 0.37797 0.28581 0.0
H6291 H 0.27336 0.41051 0.29361 0.0
H6292 H 0.28151 0.3852 0.30789 0.0
H6293 H 0.25948 0.41262 0.26129 0.0
H6294 H 0.24029 0.42106 0.32379 0.0
H6295 H 0.22359 0.41007 0.34954 0.0
H6296 H 0.17321 0.39727 0.31444 0.0
H6297 H 0.18963 0.40791 0.28839 0.0
C6298 C 0.23983 0.49631 0.26232 0.0
C6299 C 0.22253 0.49658 0.25489 0.0
C6300 C 0.24321 0.47892 0.26543 0.0
C6301 C 0.2293 0.46156 0.26133 0.0
C6302 C 0.2122 0.46165 0.25334 0.0
C6303 C 0.20888 0.47896 0.24996 0.0
C6304 C 0.23227 0.44372 0.2668 0.0
C6305 C 0.22238 0.43639 0.28073 0.0
C6306 C 0.24573 0.43501 0.25962 0.0
C6307 C 0.25612 0.44173 0.24439 0.0
C6308 C 0.24707 0.44289 0.22736 0.0
C6309 C 0.25693 0.44922 0.21306 0.0
C6310 C 0.27586 0.45434 0.21559 0.0
C6311 C 0.28497 0.45309 0.23241 0.0
C6312 C 0.27517 0.44678 0.24675 0.0
C6313 C 0.23579 0.36565 0.29944 0.0
C6314 C 0.25394 0.36747 0.30575 0.0
C6315 C 0.23119 0.37981 0.29077 0.0
C6316 C 0.24459 0.39635 0.28888 0.0
C6317 C 0.26277 0.39792 0.29489 0.0
C6318 C 0.26742 0.38353 0.30313 0.0
C6319 C 0.23974 0.4124 0.28125 0.0
C6320 C 0.24927 0.41944 0.26693 0.0
C6321 C 0.22611 0.42105 0.28827 0.0
C6322 C 0.2162 0.41511 0.30409 0.0
C6323 C 0.22566 0.41583 0.32155 0.0
C6324 C 0.21624 0.40965 0.33619 0.0
C6325 C 0.19736 0.40294 0.33361 0.0
C6326 C 0.18784 0.40245 0.31641 0.0
C6327 C 0.19719 0.40856 0.3017 0.0
H6328 H 0.1901 0.39817 0.34495 0.0
H6329 H 0.28347 0.45922 0.2045 0.0
H6330 H 0.24929 0.40441 0.01768 0.0
H6331 H 0.2253 0.42103 0.01495 0.0
H6332 H 0.25677 0.47045 0.05626 0.0
H6333 H 0.28058 0.4537 0.05943 0.0
H6334 H 0.22275 0.46335 0.06304 0.0
H6335 H 0.25327 0.46976 0.00749 0.0
H6336 H 0.26534 0.458 0.97815 0.0
H6337 H 0.21189 0.42421 0.95424 0.0
H6338 H 0.19954 0.43559 0.98354 0.0
H6339 H 0.18321 0.53761 0.04433 0.0
H6340 H 0.20301 0.51632 0.04767 0.0
H6341 H 0.16495 0.46901 0.00945 0.0
H6342 H 0.14515 0.49048 0.00576 0.0
H6343 H 0.19989 0.47255 0.00081 0.0
H6344 H 0.16908 0.46895 0.05571 0.0
H6345 H 0.15726 0.48253 0.0845 0.0
H6346 H 0.21147 0.5121 0.1095 0.0
H6347 H 0.22362 0.49898 0.08071 0.0
C6348 C 0.25114 0.41884 0.02617 0.0
C6349 C 0.26695 0.42773 0.03872 0.0
C6350 C 0.2374 0.42838 0.02455 0.0
C6351 C 0.23924 0.44717 0.03522 0.0
C6352 C 0.25495 0.45599 0.04787 0.0
C6353 C 0.26863 0.4464 0.04961 0.0
C6354 C 0.22492 0.45773 0.03319 0.0
C6355 C 0.2179 0.46549 0.04943 0.0
C6356 C 0.21812 0.46016 0.01541 0.0
C6357 C 0.22552 0.45336 0.99778 0.0
C6358 C 0.24412 0.45971 0.99602 0.0
C6359 C 0.251 0.45313 0.97939 0.0
C6360 C 0.23939 0.44032 0.96436 0.0
C6361 C 0.22087 0.43411 0.96591 0.0
C6362 C 0.21392 0.44063 0.98251 0.0
C6363 C 0.17904 0.52267 0.03661 0.0
C6364 C 0.16265 0.51579 0.02466 0.0
C6365 C 0.19031 0.51046 0.03865 0.0
C6366 C 0.18547 0.491 0.02889 0.0
C6367 C 0.16899 0.48396 0.01713 0.0
C6368 C 0.15761 0.49619 0.01515 0.0
C6369 C 0.19795 0.47833 0.03064 0.0
C6370 C 0.20462 0.47021 0.01437 0.0
C6371 C 0.20446 0.47563 0.04839 0.0
C6372 C 0.19726 0.48307 0.06598 0.0
C6373 C 0.17849 0.47842 0.06731 0.0
C6374 C 0.17172 0.48604 0.08363 0.0
C6375 C 0.1836 0.49821 0.0988 0.0
C6376 C 0.20228 0.50269 0.09772 0.0
C6377 C 0.20912 0.49514 0.08141 0.0
H6378 H 0.17833 0.50414 0.11141 0.0
H6379 H 0.24475 0.43525 0.9515 0.0
H6380 H 0.91404 1.00175 0.29205 0.0
H6381 H 0.89535 0.9689 0.29096 0.0
H6382 H 0.86464 0.97136 0.24014 0.0
H6383 H 0.8834 0.0048 0.24145 0.0
H6384 H 0.84233 0.95004 0.26221 0.0
H6385 H 0.89896 0.94816 0.23834 0.0
H6386 H 0.93224 0.95695 0.23894 0.0
H6387 H 0.93708 0.93409 0.28909 0.0
H6388 H 0.90383 0.9254 0.28894 0.0
H6389 H 0.80666 0.84535 0.24163 0.0
H6390 H 0.82073 0.87935 0.24037 0.0
H6391 H 0.86079 0.88256 0.28603 0.0
H6392 H 0.8472 0.84855 0.28684 0.0
H6393 H 0.87757 0.90113 0.26376 0.0
H6394 H 0.82138 0.90447 0.28895 0.0
H6395 H 0.78815 0.89571 0.28889 0.0
H6396 H 0.78234 0.91561 0.23716 0.0
H6397 H 0.81554 0.92427 0.23679 0.0
C6398 C 0.90296 0.99559 0.2809 0.0
C6399 C 0.90016 0.00625 0.26702 0.0
C6400 C 0.89234 0.97656 0.28014 0.0
C6401 C 0.87865 0.9671 0.26523 0.0
C6402 C 0.87508 0.97806 0.25182 0.0
C6403 C 0.88574 0.99735 0.25265 0.0
C6404 C 0.86911 0.9456 0.26334 0.0
C6405 C 0.85006 0.93934 0.26228 0.0
C6406 C 0.87893 0.9313 0.26371 0.0
C6407 C 0.89891 0.93626 0.2637 0.0
C6408 C 0.90713 0.9451 0.24955 0.0
C6409 C 0.92599 0.95006 0.24981 0.0
C6410 C 0.93677 0.94612 0.26406 0.0
C6411 C 0.92871 0.93715 0.27806 0.0
C6412 C 0.90986 0.93219 0.27789 0.0
C6413 C 0.81841 0.85329 0.25149 0.0
C6414 C 0.82555 0.84392 0.26447 0.0
C6415 C 0.82649 0.87297 0.25084 0.0
C6416 C 0.84184 0.88416 0.26335 0.0
C6417 C 0.84904 0.87466 0.27614 0.0
C6418 C 0.84112 0.855 0.27664 0.0
C6419 C 0.85072 0.90547 0.26308 0.0
C6420 C 0.86973 0.91174 0.26368 0.0
C6421 C 0.84084 0.91972 0.26239 0.0
C6422 C 0.82093 0.91485 0.26275 0.0
C6423 C 0.81301 0.9069 0.27752 0.0
C6424 C 0.79419 0.90197 0.27757 0.0
C6425 C 0.78314 0.90507 0.26301 0.0
C6426 C 0.79091 0.91319 0.24841 0.0
C6427 C 0.80973 0.91814 0.24829 0.0
H6428 H 0.76857 0.90119 0.26305 0.0
H6429 H 0.95137 0.94998 0.26425 0.0
H6430 H 0.71101 0.10185 0.70265 0.0
H6431 H 0.73505 0.13148 0.70697 0.0
H6432 H 0.77321 0.10225 0.72661 0.0
H6433 H 0.74867 0.07232 0.72298 0.0
H6434 H 0.77624 0.13411 0.75035 0.0
H6435 H 0.77813 0.12176 0.68525 0.0
H6436 H 0.76759 0.11161 0.65132 0.0
H6437 H 0.74131 0.15801 0.6549 0.0
H6438 H 0.75137 0.16825 0.68889 0.0
H6439 H 0.82305 0.23883 0.76632 0.0
H6440 H 0.818 0.20375 0.75301 0.0
H6441 H 0.76125 0.1992 0.73942 0.0
H6442 H 0.76623 0.23382 0.75294 0.0
H6443 H 0.77977 0.18222 0.70916 0.0
H6444 H 0.77434 0.18793 0.77705 0.0
H6445 H 0.78718 0.19785 0.81036 0.0
H6446 H 0.82466 0.16274 0.7997 0.0
H6447 H 0.81257 0.15324 0.76609 0.0
C6448 C 0.72456 0.1015 0.70749 0.0
C6449 C 0.72787 0.08477 0.71265 0.0
C6450 C 0.73843 0.11849 0.70978 0.0
C6451 C 0.75608 0.11912 0.7169 0.0
C6452 C 0.75972 0.10209 0.72102 0.0
C6453 C 0.74571 0.08499 0.71885 0.0
C6454 C 0.76968 0.13828 0.72229 0.0
C6455 C 0.77764 0.14447 0.74109 0.0
C6456 C 0.77176 0.15185 0.71024 0.0
C6457 C 0.76555 0.14578 0.68971 0.0
C6458 C 0.77001 0.12974 0.67885 0.0
C6459 C 0.76412 0.12397 0.65958 0.0
C6460 C 0.75379 0.13416 0.65096 0.0
C6461 C 0.74934 0.15015 0.66159 0.0
C6462 C 0.75518 0.15597 0.68086 0.0
C6463 C 0.8096 0.23023 0.76026 0.0
C6464 C 0.79511 0.2389 0.75973 0.0
C6465 C 0.80673 0.21033 0.75276 0.0
C6466 C 0.78931 0.19907 0.74502 0.0
C6467 C 0.77483 0.20777 0.74505 0.0
C6468 C 0.77767 0.22747 0.75265 0.0
C6469 C 0.78552 0.17803 0.73717 0.0
C6470 C 0.77934 0.17161 0.71798 0.0
C6471 C 0.78557 0.16427 0.74872 0.0
C6472 C 0.79275 0.17012 0.76895 0.0
C6473 C 0.7855 0.18255 0.78171 0.0
C6474 C 0.79259 0.18803 0.80068 0.0
C6475 C 0.80665 0.18085 0.80717 0.0
C6476 C 0.81375 0.16828 0.79466 0.0
C6477 C 0.80685 0.16291 0.77563 0.0
H6478 H 0.81207 0.18505 0.82186 0.0
H6479 H 0.74924 0.12967 0.63604 0.0
loop_
_geom_bond_atom_site_label_1
_geom_bond_atom_site_label_2
_geom_bond_distance
_geom_bond_site_symmetry_2
_ccdc_geom_bond_type
Zn0 O3 2.031 . S
Zn0 O5 2.049 . S
Zn0 O10 2.067 . S
Zn1 O2 1.962 . S
Zn1 O4 1.986 . S
Zn1 O6 1.996 . S
Zn1 O9 1.943 . S
O2 Zn1 1.962 . S
O2 C7 1.254 . S
O3 Zn0 2.031 . S
O3 C7 1.269 . S
O4 Zn1 1.986 . S
O4 C11 1.262 . S
O5 Zn0 2.049 . S
O5 C13 1.260 . S
O6 Zn1 1.996 . S
O6 C13 1.257 . S
C7 O2 1.254 . S
C7 O3 1.269 . S
C8 O9 1.249 . S
C8 O10 1.270 . S
O9 Zn1 1.943 . S
O9 C8 1.249 . S
O10 Zn0 2.067 . S
O10 C8 1.270 . S
C11 O4 1.262 . S
C11 O12 1.232 . S
O12 C11 1.232 . S
C13 O5 1.260 . S
C13 O6 1.257 . S
Zn14 O17 1.976 1_455 S
Zn14 O19 2.105 . S
Zn14 O24 2.081 . S
Zn15 O16 1.951 1_455 S
Zn15 O18 1.990 . S
Zn15 O20 2.005 . S
Zn15 O23 1.945 1_455 S
O16 Zn15 1.951 1_655 S
O16 C21 1.254 . S
O17 Zn14 1.976 1_655 S
O17 C21 1.269 . S
O18 Zn15 1.990 . S
O18 C25 1.262 . S
O19 Zn14 2.105 . S
O19 C27 1.260 . S
O20 Zn15 2.005 . S
O20 C27 1.257 . S
C21 O16 1.254 . S
C21 O17 1.269 . S
C22 O23 1.249 . S
C22 O24 1.270 1_655 S
O23 Zn15 1.945 1_655 S
O23 C22 1.249 . S
O24 Zn14 2.081 . S
O24 C22 1.270 1_455 S
C25 O18 1.262 . S
C25 O26 1.232 1_455 S
O26 C25 1.232 1_655 S
C27 O19 1.260 . S
C27 O20 1.257 . S
Zn28 O31 2.031 . S
Zn28 O33 2.049 . S
Zn28 O38 2.067 . S
Zn29 O30 1.962 . S
Zn29 O32 1.986 . S
Zn29 O34 1.996 . S
Zn29 O37 1.943 . S
O30 Zn29 1.962 . S
O30 C35 1.254 . S
O31 Zn28 2.031 . S
O31 C35 1.269 . S
O32 Zn29 1.986 . S
O32 C39 1.262 . S
O33 Zn28 2.049 . S
O33 C41 1.260 . S
O34 Zn29 1.996 . S
O34 C41 1.257 . S
C35 O30 1.254 . S
C35 O31 1.269 . S
C36 O37 1.249 . S
C36 O38 1.270 . S
O37 Zn29 1.943 . S
O37 C36 1.249 . S
O38 Zn28 2.067 . S
O38 C36 1.270 . S
C39 O32 1.262 . S
C39 O40 1.232 . S
O40 C39 1.232 . S
C41 O33 1.260 . S
C41 O34 1.257 . S
Zn42 O45 2.031 . S
Zn42 O47 2.049 . S
Zn42 O52 2.067 . S
Zn43 O44 1.962 . S
Zn43 O46 1.986 . S
Zn43 O48 1.996 . S
Zn43 O51 1.943 . S
O44 Zn43 1.962 . S
O44 C49 1.254 . S
O45 Zn42 2.031 . S
O45 C49 1.269 . S
O46 Zn43 1.986 . S
O46 C53 1.262 . S
O47 Zn42 2.049 . S
O47 C55 1.260 . S
O48 Zn43 1.996 . S
O48 C55 1.257 . S
C49 O44 1.254 . S
C49 O45 1.269 . S
C50 O51 1.249 . S
C50 O52 1.270 . S
O51 Zn43 1.943 . S
O51 C50 1.249 . S
O52 Zn42 2.067 . S
O52 C50 1.270 . S
C53 O46 1.262 . S
C53 O54 1.232 . S
O54 C53 1.232 . S
C55 O47 1.260 . S
C55 O48 1.257 . S
Zn56 O59 2.031 . S
Zn56 O61 2.049 . S
Zn56 O66 2.067 . S
Zn57 O58 1.962 . S
Zn57 O60 1.986 . S
Zn57 O62 1.996 . S
Zn57 O65 1.943 . S
O58 Zn57 1.962 . S
O58 C63 1.254 . S
O59 Zn56 2.031 . S
O59 C63 1.269 . S
O60 Zn57 1.986 . S
O60 C67 1.262 . S
O61 Zn56 2.049 . S
O61 C69 1.260 . S
O62 Zn57 1.996 . S
O62 C69 1.257 . S
C63 O58 1.254 . S
C63 O59 1.269 . S
C64 O65 1.249 . S
C64 O66 1.270 . S
O65 Zn57 1.943 . S
O65 C64 1.249 . S
O66 Zn56 2.067 . S
O66 C64 1.270 . S
C67 O60 1.262 . S
C67 O68 1.232 . S
O68 C67 1.232 . S
C69 O61 1.260 . S
C69 O62 1.257 . S
Zn70 O73 2.031 . S
Zn70 O75 2.049 . S
Zn70 O80 2.067 . S
Zn71 O72 1.962 . S
Zn71 O74 1.986 . S
Zn71 O76 1.996 . S
Zn71 O79 1.943 . S
O72 Zn71 1.962 . S
O72 C77 1.254 . S
O73 Zn70 2.031 . S
O73 C77 1.269 . S
O74 Zn71 1.986 . S
O74 C81 1.262 . S
O75 Zn70 2.049 . S
O75 C83 1.260 . S
O76 Zn71 1.996 . S
O76 C83 1.257 . S
C77 O72 1.254 . S
C77 O73 1.269 . S
C78 O79 1.249 . S
C78 O80 1.270 . S
O79 Zn71 1.943 . S
O79 C78 1.249 . S
O80 Zn70 2.067 . S
O80 C78 1.270 . S
C81 O74 1.262 . S
C81 O82 1.232 . S
O82 C81 1.232 . S
C83 O75 1.260 . S
C83 O76 1.257 . S
Zn84 O87 2.031 . S
Zn84 O89 2.049 . S
Zn84 O94 2.067 . S
Zn85 O86 1.962 . S
Zn85 O88 1.986 . S
Zn85 O90 1.996 . S
Zn85 O93 1.943 . S
O86 Zn85 1.962 . S
O86 C91 1.254 . S
O87 Zn84 2.031 . S
O87 C91 1.269 . S
O88 Zn85 1.986 . S
O88 C95 1.262 . S
O89 Zn84 2.049 . S
O89 C97 1.260 . S
O90 Zn85 1.996 . S
O90 C97 1.257 . S
C91 O86 1.254 . S
C91 O87 1.269 . S
C92 O93 1.249 . S
C92 O94 1.270 . S
O93 Zn85 1.943 . S
O93 C92 1.249 . S
O94 Zn84 2.067 . S
O94 C92 1.270 . S
C95 O88 1.262 . S
C95 O96 1.232 . S
O96 C95 1.232 . S
C97 O89 1.260 . S
C97 O90 1.257 . S
Zn98 O101 2.031 1_655 S
Zn98 O103 2.049 . S
Zn98 O108 2.067 . S
Zn99 O100 1.962 . S
Zn99 O102 1.986 . S
Zn99 O104 1.996 . S
Zn99 O107 1.943 . S
O100 Zn99 1.962 . S
O100 C105 1.254 . S
O101 Zn98 2.031 1_455 S
O101 C105 1.269 . S
O102 Zn99 1.986 . S
O102 C109 1.262 . S
O103 Zn98 2.049 . S
O103 C111 1.260 1_655 S
O104 Zn99 1.996 . S
O104 C111 1.257 . S
C105 O100 1.254 . S
C105 O101 1.269 . S
C106 O107 1.249 1_655 S
C106 O108 1.270 . S
O107 Zn99 1.943 . S
O107 C106 1.249 1_455 S
O108 Zn98 2.067 . S
O108 C106 1.270 . S
C109 O102 1.262 . S
C109 O110 1.232 . S
O110 C109 1.232 . S
C111 O103 1.260 1_455 S
C111 O104 1.257 . S
Zn112 O115 2.031 . S
Zn112 O117 2.049 . S
Zn112 O122 2.067 1_545 S
Zn113 O114 1.962 . S
Zn113 O116 1.986 . S
Zn113 O118 1.996 . S
Zn113 O121 1.943 . S
O114 Zn113 1.962 . S
O114 C119 1.254 . S
O115 Zn112 2.031 . S
O115 C119 1.269 . S
O116 Zn113 1.986 . S
O116 C123 1.262 . S
O117 Zn112 2.049 . S
O117 C125 1.260 . S
O118 Zn113 1.996 . S
O118 C125 1.257 . S
C119 O114 1.254 . S
C119 O115 1.269 . S
C120 O121 1.249 1_565 S
C120 O122 1.270 . S
O121 Zn113 1.943 . S
O121 C120 1.249 1_545 S
O122 Zn112 2.067 1_565 S
O122 C120 1.270 . S
C123 O116 1.262 . S
C123 O124 1.232 . S
O124 C123 1.232 . S
C125 O117 1.260 . S
C125 O118 1.257 . S
Zn126 O129 2.031 . S
Zn126 O131 2.049 . S
Zn126 O136 2.067 . S
Zn127 O128 1.962 . S
Zn127 O130 1.986 . S
Zn127 O132 1.996 . S
Zn127 O135 1.943 . S
O128 Zn127 1.962 . S
O128 C133 1.254 . S
O129 Zn126 2.031 . S
O129 C133 1.269 . S
O130 Zn127 1.986 . S
O130 C137 1.262 . S
O131 Zn126 2.049 . S
O131 C139 1.260 . S
O132 Zn127 1.996 . S
O132 C139 1.257 . S
C133 O128 1.254 . S
C133 O129 1.269 . S
C134 O135 1.249 . S
C134 O136 1.270 . S
O135 Zn127 1.943 . S
O135 C134 1.249 . S
O136 Zn126 2.067 . S
O136 C134 1.270 . S
C137 O130 1.262 . S
C137 O138 1.232 . S
O138 C137 1.232 . S
C139 O131 1.260 . S
C139 O132 1.257 . S
Zn140 O143 2.031 . S
Zn140 O145 2.049 . S
Zn140 O150 2.067 . S
Zn141 O142 1.962 . S
Zn141 O144 1.986 . S
Zn141 O146 1.996 . S
Zn141 O149 1.943 1_565 S
O142 Zn141 1.962 . S
O142 C147 1.254 1_565 S
O143 Zn140 2.031 . S
O143 C147 1.269 . S
O144 Zn141 1.986 . S
O144 C151 1.262 . S
O145 Zn140 2.049 . S
O145 C153 1.260 1_545 S
O146 Zn141 1.996 . S
O146 C153 1.257 . S
C147 O142 1.254 1_545 S
C147 O143 1.269 . S
C148 O149 1.249 . S
C148 O150 1.270 . S
O149 Zn141 1.943 1_545 S
O149 C148 1.249 . S
O150 Zn140 2.067 . S
O150 C148 1.270 . S
C151 O144 1.262 . S
C151 O152 1.232 . S
O152 C151 1.232 . S
C153 O145 1.260 1_565 S
C153 O146 1.257 . S
Zn154 O157 2.031 1_554 S
Zn154 O159 2.049 . S
Zn154 O164 2.067 . S
Zn155 O156 1.962 1_554 S
Zn155 O158 1.986 . S
Zn155 O160 1.996 . S
Zn155 O163 1.943 . S
O156 Zn155 1.962 1_556 S
O156 C161 1.254 . S
O157 Zn154 2.031 1_556 S
O157 C161 1.269 . S
O158 Zn155 1.986 . S
O158 C165 1.262 . S
O159 Zn154 2.049 . S
O159 C167 1.260 . S
O160 Zn155 1.996 . S
O160 C167 1.257 . S
C161 O156 1.254 . S
C161 O157 1.269 . S
C162 O163 1.249 . S
C162 O164 1.270 . S
O163 Zn155 1.943 . S
O163 C162 1.249 . S
O164 Zn154 2.067 . S
O164 C162 1.270 . S
C165 O158 1.262 . S
C165 O166 1.232 . S
O166 C165 1.232 . S
C167 O159 1.260 . S
C167 O160 1.257 . S
Zn168 O171 2.031 . S
Zn168 O173 2.049 . S
Zn168 O178 2.067 . S
Zn169 O170 1.962 . S
Zn169 O172 1.986 . S
Zn169 O174 1.996 . S
Zn169 O177 1.943 . S
O170 Zn169 1.962 . S
O170 C175 1.254 . S
O171 Zn168 2.031 . S
O171 C175 1.269 . S
O172 Zn169 1.986 . S
O172 C179 1.262 . S
O173 Zn168 2.049 . S
O173 C181 1.260 . S
O174 Zn169 1.996 . S
O174 C181 1.257 . S
C175 O170 1.254 . S
C175 O171 1.269 . S
C176 O177 1.249 . S
C176 O178 1.270 . S
O177 Zn169 1.943 . S
O177 C176 1.249 . S
O178 Zn168 2.067 . S
O178 C176 1.270 . S
C179 O172 1.262 . S
C179 O180 1.232 . S
O180 C179 1.232 . S
C181 O173 1.260 . S
C181 O174 1.257 . S
Zn182 O185 2.031 . S
Zn182 O187 2.049 . S
Zn182 O192 2.067 . S
Zn183 O184 1.962 . S
Zn183 O186 1.986 . S
Zn183 O188 1.996 . S
Zn183 O191 1.943 . S
O184 Zn183 1.962 . S
O184 C189 1.254 1_554 S
O185 Zn182 2.031 . S
O185 C189 1.269 1_554 S
O186 Zn183 1.986 . S
O186 C193 1.262 . S
O187 Zn182 2.049 . S
O187 C195 1.260 . S
O188 Zn183 1.996 . S
O188 C195 1.257 . S
C189 O184 1.254 1_556 S
C189 O185 1.269 1_556 S
C190 O191 1.249 . S
C190 O192 1.270 . S
O191 Zn183 1.943 . S
O191 C190 1.249 . S
O192 Zn182 2.067 . S
O192 C190 1.270 . S
C193 O186 1.262 . S
C193 O194 1.232 . S
O194 C193 1.232 . S
C195 O187 1.260 . S
C195 O188 1.257 . S
Zn196 O199 2.031 . S
Zn196 O201 2.049 . S
Zn196 O206 2.067 . S
Zn197 O198 1.962 . S
Zn197 O200 1.986 . S
Zn197 O202 1.996 . S
Zn197 O205 1.943 . S
O198 Zn197 1.962 . S
O198 C203 1.254 . S
O199 Zn196 2.031 . S
O199 C203 1.269 . S
O200 Zn197 1.986 . S
O200 C207 1.262 . S
O201 Zn196 2.049 . S
O201 C209 1.260 . S
O202 Zn197 1.996 . S
O202 C209 1.257 . S
C203 O198 1.254 . S
C203 O199 1.269 . S
C204 O205 1.249 . S
C204 O206 1.270 . S
O205 Zn197 1.943 . S
O205 C204 1.249 . S
O206 Zn196 2.067 . S
O206 C204 1.270 . S
C207 O200 1.262 . S
C207 O208 1.232 . S
O208 C207 1.232 . S
C209 O201 1.260 . S
C209 O202 1.257 . S
Zn210 O213 2.031 . S
Zn210 O215 2.049 . S
Zn210 O220 2.067 . S
Zn211 O212 1.962 . S
Zn211 O214 1.986 . S
Zn211 O216 1.996 . S
Zn211 O219 1.943 . S
O212 Zn211 1.962 . S
O212 C217 1.254 . S
O213 Zn210 2.031 . S
O213 C217 1.269 . S
O214 Zn211 1.986 . S
O214 C221 1.262 . S
O215 Zn210 2.049 . S
O215 C223 1.260 . S
O216 Zn211 1.996 . S
O216 C223 1.257 . S
C217 O212 1.254 . S
C217 O213 1.269 . S
C218 O219 1.249 . S
C218 O220 1.270 . S
O219 Zn211 1.943 . S
O219 C218 1.249 . S
O220 Zn210 2.067 . S
O220 C218 1.270 . S
C221 O214 1.262 . S
C221 O222 1.232 . S
O222 C221 1.232 . S
C223 O215 1.260 . S
C223 O216 1.257 . S
Zn224 O227 2.031 . S
Zn224 O229 2.049 . S
Zn224 O234 2.067 . S
Zn225 O226 1.962 . S
Zn225 O228 1.986 . S
Zn225 O230 1.996 . S
Zn225 O233 1.943 . S
O226 Zn225 1.962 . S
O226 C231 1.254 . S
O227 Zn224 2.031 . S
O227 C231 1.269 . S
O228 Zn225 1.986 . S
O228 C235 1.262 . S
O229 Zn224 2.049 . S
O229 C237 1.260 . S
O230 Zn225 1.996 . S
O230 C237 1.257 . S
C231 O226 1.254 . S
C231 O227 1.269 . S
C232 O233 1.249 . S
C232 O234 1.270 . S
O233 Zn225 1.943 . S
O233 C232 1.249 . S
O234 Zn224 2.067 . S
O234 C232 1.270 . S
C235 O228 1.262 . S
C235 O236 1.232 . S
O236 C235 1.232 . S
C237 O229 1.260 . S
C237 O230 1.257 . S
Zn238 O241 2.031 . S
Zn238 O243 2.049 . S
Zn238 O248 2.067 . S
Zn239 O240 1.962 . S
Zn239 O242 1.986 . S
Zn239 O244 1.996 . S
Zn239 O247 1.943 . S
O240 Zn239 1.962 . S
O240 C245 1.254 . S
O241 Zn238 2.031 . S
O241 C245 1.269 . S
O242 Zn239 1.986 . S
O242 C249 1.262 . S
O243 Zn238 2.049 . S
O243 C251 1.260 . S
O244 Zn239 1.996 . S
O244 C251 1.257 . S
C245 O240 1.254 . S
C245 O241 1.269 . S
C246 O247 1.249 . S
C246 O248 1.270 . S
O247 Zn239 1.943 . S
O247 C246 1.249 . S
O248 Zn238 2.067 . S
O248 C246 1.270 . S
C249 O242 1.262 . S
C249 O250 1.232 . S
O250 C249 1.232 . S
C251 O243 1.260 . S
C251 O244 1.257 . S
Zn252 O255 2.031 . S
Zn252 O257 2.049 . S
Zn252 O262 2.067 . S
Zn253 O254 1.962 . S
Zn253 O256 1.986 . S
Zn253 O258 1.996 . S
Zn253 O261 1.943 . S
O254 Zn253 1.962 . S
O254 C259 1.254 . S
O255 Zn252 2.031 . S
O255 C259 1.269 . S
O256 Zn253 1.986 . S
O256 C263 1.262 . S
O257 Zn252 2.049 . S
O257 C265 1.260 . S
O258 Zn253 1.996 . S
O258 C265 1.257 . S
C259 O254 1.254 . S
C259 O255 1.269 . S
C260 O261 1.249 . S
C260 O262 1.270 . S
O261 Zn253 1.943 . S
O261 C260 1.249 . S
O262 Zn252 2.067 . S
O262 C260 1.270 . S
C263 O256 1.262 . S
C263 O264 1.232 . S
O264 C263 1.232 . S
C265 O257 1.260 . S
C265 O258 1.257 . S
Zn266 O269 2.031 . S
Zn266 O271 2.049 . S
Zn266 O276 2.067 . S
Zn267 O268 1.962 . S
Zn267 O270 1.986 . S
Zn267 O272 1.996 . S
Zn267 O275 1.943 . S
O268 Zn267 1.962 . S
O268 C273 1.254 . S
O269 Zn266 2.031 . S
O269 C273 1.269 . S
O270 Zn267 1.986 . S
O270 C277 1.262 . S
O271 Zn266 2.049 . S
O271 C279 1.260 . S
O272 Zn267 1.996 . S
O272 C279 1.257 . S
C273 O268 1.254 . S
C273 O269 1.269 . S
C274 O275 1.249 . S
C274 O276 1.270 . S
O275 Zn267 1.943 . S
O275 C274 1.249 . S
O276 Zn266 2.067 . S
O276 C274 1.270 . S
C277 O270 1.262 . S
C277 O278 1.232 . S
O278 C277 1.232 . S
C279 O271 1.260 . S
C279 O272 1.257 . S
Zn280 O283 2.031 1_554 S
Zn280 O285 2.049 . S
Zn280 O290 2.067 . S
Zn281 O282 1.989 . S
Zn281 O284 1.972 1_556 S
Zn281 O286 1.976 1_556 S
Zn281 O289 1.940 . S
O282 Zn281 1.989 . S
O282 C287 1.254 . S
O283 Zn280 2.031 1_556 S
O283 C287 1.269 . S
O284 Zn281 1.972 1_554 S
O284 C291 1.262 1_554 S
O285 Zn280 2.049 . S
O285 C293 1.260 . S
O286 Zn281 1.976 1_554 S
O286 C293 1.257 . S
C287 O282 1.254 . S
C287 O283 1.269 . S
C288 O289 1.249 . S
C288 O290 1.270 1_556 S
O289 Zn281 1.940 . S
O289 C288 1.249 . S
O290 Zn280 2.067 . S
O290 C288 1.270 1_554 S
C291 O284 1.262 1_556 S
C291 O292 1.232 . S
O292 C291 1.232 . S
C293 O285 1.260 . S
C293 O286 1.257 . S
Zn294 O297 2.031 . S
Zn294 O299 2.049 . S
Zn294 O304 2.067 . S
Zn295 O296 1.962 . S
Zn295 O298 1.986 . S
Zn295 O300 1.996 . S
Zn295 O303 1.943 . S
O296 Zn295 1.962 . S
O296 C301 1.254 . S
O297 Zn294 2.031 . S
O297 C301 1.269 . S
O298 Zn295 1.986 . S
O298 C305 1.262 . S
O299 Zn294 2.049 . S
O299 C307 1.260 . S
O300 Zn295 1.996 . S
O300 C307 1.257 . S
C301 O296 1.254 . S
C301 O297 1.269 . S
C302 O303 1.249 . S
C302 O304 1.270 . S
O303 Zn295 1.943 . S
O303 C302 1.249 . S
O304 Zn294 2.067 . S
O304 C302 1.270 . S
C305 O298 1.262 . S
C305 O306 1.232 . S
O306 C305 1.232 . S
C307 O299 1.260 . S
C307 O300 1.257 . S
Zn308 O311 2.031 . S
Zn308 O313 2.049 . S
Zn308 O318 2.067 . S
Zn309 O310 1.962 . S
Zn309 O312 1.986 . S
Zn309 O314 1.996 . S
Zn309 O317 1.943 . S
O310 Zn309 1.962 . S
O310 C315 1.254 . S
O311 Zn308 2.031 . S
O311 C315 1.269 . S
O312 Zn309 1.986 . S
O312 C319 1.262 . S
O313 Zn308 2.049 . S
O313 C321 1.260 . S
O314 Zn309 1.996 . S
O314 C321 1.257 . S
C315 O310 1.254 . S
C315 O311 1.269 . S
C316 O317 1.249 . S
C316 O318 1.270 . S
O317 Zn309 1.943 . S
O317 C316 1.249 . S
O318 Zn308 2.067 . S
O318 C316 1.270 . S
C319 O312 1.262 . S
C319 O320 1.232 . S
O320 C319 1.232 . S
C321 O313 1.260 . S
C321 O314 1.257 . S
Zn322 O325 2.031 . S
Zn322 O327 2.049 . S
Zn322 O332 2.067 . S
Zn323 O324 1.962 . S
Zn323 O326 1.986 . S
Zn323 O328 1.996 . S
Zn323 O331 1.943 . S
O324 Zn323 1.962 . S
O324 C329 1.254 . S
O325 Zn322 2.031 . S
O325 C329 1.269 . S
O326 Zn323 1.986 . S
O326 C333 1.262 . S
O327 Zn322 2.049 . S
O327 C335 1.260 . S
O328 Zn323 1.996 . S
O328 C335 1.257 . S
C329 O324 1.254 . S
C329 O325 1.269 . S
C330 O331 1.249 . S
C330 O332 1.270 . S
O331 Zn323 1.943 . S
O331 C330 1.249 . S
O332 Zn322 2.067 . S
O332 C330 1.270 . S
C333 O326 1.262 . S
C333 O334 1.232 . S
O334 C333 1.232 . S
C335 O327 1.260 . S
C335 O328 1.257 . S
Tb336 N367 2.627 1_545 S
Tb336 N374 2.600 1_544 S
Tb336 O380 2.570 1_554 S
Tb336 O381 2.610 . S
Tb336 O383 2.320 . S
Tb336 O384 2.552 . S
Tb336 O385 2.413 1_455 S
Tb336 O387 2.362 . S
Tb336 O388 2.421 1_554 S
Tb336 C400 2.821 1_454 S
C337 C340 1.432 . S
C337 C341 1.414 . S
C337 N344 1.359 . S
C338 C340 1.417 . S
C338 C342 1.432 . S
C338 C350 1.410 . S
C339 C341 1.444 . S
C339 C342 1.317 . S
C339 H362 0.929 . S
C340 C337 1.432 . S
C340 C338 1.417 . S
C340 N348 1.360 . S
C341 C337 1.414 . S
C341 C339 1.444 . S
C341 C346 1.385 . S
C342 C338 1.432 . S
C342 C339 1.317 . S
C342 H354 0.930 . S
C343 C345 1.392 . S
C343 C346 1.370 . S
C343 H355 0.931 . S
N344 C337 1.359 . S
N344 C345 1.327 . S
N344 Tb347 2.600 . S
C345 C343 1.392 . S
C345 N344 1.327 . S
C345 H352 0.930 . S
C346 C341 1.385 . S
C346 C343 1.370 . S
C346 H365 0.930 . S
Tb347 N344 2.600 . S
Tb347 N348 2.660 . S
Tb347 O381 2.362 . S
Tb347 O382 2.421 . S
Tb347 O386 2.546 . S
Tb347 O387 2.610 . S
Tb347 O389 2.320 . S
Tb347 O390 2.552 . S
Tb347 O391 2.413 . S
Tb347 C411 2.833 . S
N348 C340 1.360 . S
N348 Tb347 2.660 . S
N348 C349 1.305 . S
C349 N348 1.305 . S
C349 C351 1.407 1_554 S
C349 H356 0.930 1_554 S
C350 C338 1.410 . S
C350 C351 1.345 1_554 S
C350 H358 0.916 1_554 S
C351 C349 1.407 1_556 S
C351 C350 1.345 1_556 S
C351 H353 0.930 . S
H352 C345 0.930 . S
H353 C351 0.930 . S
H354 C342 0.930 . S
H355 C343 0.931 . S
H356 C349 0.930 1_556 S
H357 C371 0.930 . S
H358 C350 0.916 1_556 S
H359 C377 0.930 1_545 S
H360 C368 0.927 1_545 S
H361 C375 0.931 . S
H362 C339 0.929 . S
H363 C369 0.930 . S
H364 C402 0.930 . S
H365 C346 0.930 . S
H366 C401 0.929 . S
N367 Tb336 2.627 1_565 S
N367 C368 1.311 . S
N367 C372 1.389 . S
C368 H360 0.927 1_565 S
C368 N367 1.311 . S
C368 C371 1.411 . S
C369 H363 0.930 . S
C369 C370 1.410 . S
C369 C371 1.345 1_655 S
C370 C369 1.410 . S
C370 C372 1.417 1_655 S
C370 C402 1.432 . S
C371 H357 0.930 . S
C371 C368 1.411 . S
C371 C369 1.345 1_455 S
C372 N367 1.389 . S
C372 C370 1.417 1_455 S
C372 C376 1.432 1_554 S
H373 C378 0.930 . S
N374 Tb336 2.600 1_566 S
N374 C376 1.359 . S
N374 C377 1.327 . S
C375 H361 0.931 . S
C375 C377 1.392 . S
C375 C378 1.370 1_455 S
C376 C372 1.432 1_556 S
C376 N374 1.359 . S
C376 C379 1.414 1_455 S
C377 H359 0.930 1_565 S
C377 N374 1.327 . S
C377 C375 1.392 . S
C378 H373 0.930 . S
C378 C375 1.370 1_655 S
C378 C379 1.385 . S
C379 C376 1.414 1_655 S
C379 C378 1.385 . S
C379 C401 1.444 . S
O380 Tb336 2.570 1_556 S
O380 C400 1.271 1_455 S
O381 Tb336 2.610 . S
O381 Tb347 2.362 . S
O381 C392 1.283 . S
O382 Tb347 2.421 . S
O382 C399 1.262 . S
O383 Tb336 2.320 . S
O383 C399 1.260 . S
O384 Tb336 2.552 . S
O384 C392 1.243 . S
O385 Tb336 2.413 1_655 S
O385 C400 1.206 1_554 S
O386 Tb347 2.546 . S
O386 C411 1.251 . S
O387 Tb336 2.362 . S
O387 Tb347 2.610 . S
O387 C403 1.283 . S
O388 Tb336 2.421 1_556 S
O388 C410 1.262 . S
O389 Tb347 2.320 . S
O389 C410 1.260 1_554 S
O390 Tb347 2.552 . S
O390 C403 1.243 . S
O391 Tb347 2.413 . S
O391 C411 1.256 . S
C392 O381 1.283 . S
C392 O384 1.243 . S
C393 C395 1.382 1_556 S
C393 C397 1.393 . S
C393 C400 1.510 . S
C394 C395 1.400 . S
C394 C396 1.384 1_554 S
C395 C393 1.382 1_554 S
C395 C394 1.400 . S
C395 H412 0.930 . S
C396 C394 1.384 1_556 S
C396 C398 1.392 . S
C396 H413 0.931 . S
C397 C393 1.393 . S
C397 C398 1.401 . S
C397 H414 0.930 . S
C398 C396 1.392 . S
C398 C397 1.401 . S
C398 H415 0.930 . S
C399 O382 1.262 . S
C399 O383 1.260 . S
C400 Tb336 2.821 1_656 S
C400 O380 1.271 1_655 S
C400 O385 1.206 1_556 S
C400 C393 1.510 . S
C401 H366 0.929 . S
C401 C379 1.444 . S
C401 C402 1.317 1_556 S
C402 H364 0.930 . S
C402 C370 1.432 . S
C402 C401 1.317 1_554 S
C403 O387 1.283 . S
C403 O390 1.243 . S
C404 C405 1.382 . S
C404 C408 1.393 . S
C404 C411 1.500 . S
C405 C404 1.382 . S
C405 C406 1.400 . S
C405 H416 0.930 . S
C406 C405 1.400 . S
C406 C407 1.384 . S
C407 C406 1.384 . S
C407 C409 1.392 . S
C407 H417 0.931 . S
C408 C404 1.393 . S
C408 C409 1.401 . S
C408 H418 0.930 . S
C409 C407 1.392 . S
C409 C408 1.401 . S
C409 H419 0.930 . S
C410 O388 1.262 . S
C410 O389 1.260 1_556 S
C411 Tb347 2.833 . S
C411 O386 1.251 . S
C411 O391 1.256 . S
C411 C404 1.500 . S
H412 C395 0.930 . S
H413 C396 0.931 . S
H414 C397 0.930 . S
H415 C398 0.930 . S
H416 C405 0.930 . S
H417 C407 0.931 . S
H418 C408 0.930 . S
H419 C409 0.930 . S
Tb420 N451 2.660 . S
Tb420 N458 2.600 . S
Tb420 O464 2.546 . S
Tb420 O465 2.610 . S
Tb420 O467 2.320 . S
Tb420 O468 2.552 . S
Tb420 O469 2.413 . S
Tb420 O471 2.362 . S
Tb420 O472 2.421 . S
Tb420 C484 2.833 . S
C421 C424 1.432 . S
C421 C425 1.414 . S
C421 N428 1.359 . S
C422 C424 1.417 . S
C422 C426 1.432 . S
C422 C434 1.410 . S
C423 C425 1.444 . S
C423 C426 1.317 . S
C423 H446 0.929 . S
C424 C421 1.432 . S
C424 C422 1.417 . S
C424 N432 1.360 . S
C425 C421 1.414 . S
C425 C423 1.444 . S
C425 C430 1.385 . S
C426 C422 1.432 . S
C426 C423 1.317 . S
C426 H438 0.930 . S
C427 C429 1.392 . S
C427 C430 1.370 . S
C427 H439 0.931 . S
N428 C421 1.359 . S
N428 C429 1.327 . S
N428 Tb431 2.600 . S
C429 C427 1.392 . S
C429 N428 1.327 . S
C429 H436 0.930 . S
C430 C425 1.385 . S
C430 C427 1.370 . S
C430 H449 0.930 . S
Tb431 N428 2.600 . S
Tb431 N432 2.660 . S
Tb431 O465 2.362 . S
Tb431 O466 2.421 . S
Tb431 O470 2.546 . S
Tb431 O471 2.610 . S
Tb431 O473 2.320 . S
Tb431 O474 2.552 . S
Tb431 O475 2.413 . S
Tb431 C495 2.833 . S
N432 C424 1.360 . S
N432 Tb431 2.660 . S
N432 C433 1.305 . S
C433 N432 1.305 . S
C433 C435 1.407 . S
C433 H440 0.930 . S
C434 C422 1.410 . S
C434 C435 1.345 . S
C434 H442 0.930 . S
C435 C433 1.407 . S
C435 C434 1.345 . S
C435 H437 0.930 . S
H436 C429 0.930 . S
H437 C435 0.930 . S
H438 C426 0.930 . S
H439 C427 0.931 . S
H440 C433 0.930 . S
H441 C455 0.930 . S
H442 C434 0.930 . S
H443 C461 0.930 . S
H444 C452 0.930 . S
H445 C459 0.931 . S
H446 C423 0.929 . S
H447 C453 0.930 . S
H448 C486 0.930 . S
H449 C430 0.930 . S
H450 C485 0.929 . S
N451 Tb420 2.660 . S
N451 C452 1.305 . S
N451 C456 1.360 . S
C452 H444 0.930 . S
C452 N451 1.305 . S
C452 C455 1.407 . S
C453 H447 0.930 . S
C453 C454 1.410 . S
C453 C455 1.345 . S
C454 C453 1.410 . S
C454 C456 1.417 . S
C454 C486 1.432 . S
C455 H441 0.930 . S
C455 C452 1.407 . S
C455 C453 1.345 . S
C456 N451 1.360 . S
C456 C454 1.417 . S
C456 C460 1.432 . S
H457 C462 0.930 . S
N458 Tb420 2.600 . S
N458 C460 1.359 . S
N458 C461 1.327 . S
C459 H445 0.931 . S
C459 C461 1.392 . S
C459 C462 1.370 . S
C460 C456 1.432 . S
C460 N458 1.359 . S
C460 C463 1.414 . S
C461 H443 0.930 . S
C461 N458 1.327 . S
C461 C459 1.392 . S
C462 H457 0.930 . S
C462 C459 1.370 . S
C462 C463 1.385 . S
C463 C460 1.414 . S
C463 C462 1.385 . S
C463 C485 1.444 . S
O464 Tb420 2.546 . S
O464 C484 1.251 . S
O465 Tb420 2.610 . S
O465 Tb431 2.362 . S
O465 C476 1.283 . S
O466 Tb431 2.421 . S
O466 C483 1.262 . S
O467 Tb420 2.320 . S
O467 C483 1.260 . S
O468 Tb420 2.552 . S
O468 C476 1.243 . S
O469 Tb420 2.413 . S
O469 C484 1.256 . S
O470 Tb431 2.546 . S
O470 C495 1.251 . S
O471 Tb420 2.362 . S
O471 Tb431 2.610 . S
O471 C487 1.283 . S
O472 Tb420 2.421 . S
O472 C494 1.262 . S
O473 Tb431 2.320 . S
O473 C494 1.260 . S
O474 Tb431 2.552 . S
O474 C487 1.243 . S
O475 Tb431 2.413 . S
O475 C495 1.256 . S
C476 O465 1.283 . S
C476 O468 1.243 . S
C477 C479 1.382 . S
C477 C481 1.393 . S
C477 C484 1.500 . S
C478 C479 1.400 . S
C478 C480 1.384 . S
C479 C477 1.382 . S
C479 C478 1.400 . S
C479 H496 0.930 . S
C480 C478 1.384 . S
C480 C482 1.392 . S
C480 H497 0.931 . S
C481 C477 1.393 . S
C481 C482 1.401 . S
C481 H498 0.930 . S
C482 C480 1.392 . S
C482 C481 1.401 . S
C482 H499 0.930 . S
C483 O466 1.262 . S
C483 O467 1.260 . S
C484 Tb420 2.833 . S
C484 O464 1.251 . S
C484 O469 1.256 . S
C484 C477 1.500 . S
C485 H450 0.929 . S
C485 C463 1.444 . S
C485 C486 1.317 . S
C486 H448 0.930 . S
C486 C454 1.432 . S
C486 C485 1.317 . S
C487 O471 1.283 . S
C487 O474 1.243 . S
C488 C489 1.382 . S
C488 C492 1.393 . S
C488 C495 1.500 . S
C489 C488 1.382 . S
C489 C490 1.400 . S
C489 H500 0.930 . S
C490 C489 1.400 . S
C490 C491 1.384 . S
C491 C490 1.384 . S
C491 C493 1.392 . S
C491 H501 0.931 . S
C492 C488 1.393 . S
C492 C493 1.401 . S
C492 H502 0.930 . S
C493 C491 1.392 . S
C493 C492 1.401 . S
C493 H503 0.930 . S
C494 O472 1.262 . S
C494 O473 1.260 . S
C495 Tb431 2.833 . S
C495 O470 1.251 . S
C495 O475 1.256 . S
C495 C488 1.500 . S
H496 C479 0.930 . S
H497 C480 0.931 . S
H498 C481 0.930 . S
H499 C482 0.930 . S
H500 C489 0.930 . S
H501 C491 0.931 . S
H502 C492 0.930 . S
H503 C493 0.930 . S
Tb504 N535 2.660 . S
Tb504 N542 2.600 . S
Tb504 O548 2.546 . S
Tb504 O549 2.610 . S
Tb504 O551 2.320 . S
Tb504 O552 2.552 1_545 S
Tb504 O553 2.413 . S
Tb504 O555 2.362 . S
Tb504 O556 2.421 . S
Tb504 C568 2.833 . S
C505 C508 1.432 . S
C505 C509 1.414 . S
C505 N512 1.359 1_565 S
C506 C508 1.417 . S
C506 C510 1.432 . S
C506 C518 1.410 . S
C507 C509 1.444 . S
C507 C510 1.317 . S
C507 H530 0.929 . S
C508 C505 1.432 . S
C508 C506 1.417 . S
C508 N516 1.360 . S
C509 C505 1.414 . S
C509 C507 1.444 . S
C509 C514 1.385 . S
C510 C506 1.432 . S
C510 C507 1.317 . S
C510 H522 0.930 . S
C511 C513 1.392 . S
C511 C514 1.370 1_545 S
C511 H523 0.931 . S
N512 C505 1.359 1_545 S
N512 C513 1.327 . S
N512 Tb515 2.600 . S
C513 C511 1.392 . S
C513 N512 1.327 . S
C513 H520 0.930 . S
C514 C509 1.385 . S
C514 C511 1.370 1_565 S
C514 H533 0.930 . S
Tb515 N512 2.600 . S
Tb515 N516 2.660 1_545 S
Tb515 O549 2.362 . S
Tb515 O550 2.421 . S
Tb515 O554 2.546 . S
Tb515 O555 2.610 . S
Tb515 O557 2.320 . S
Tb515 O558 2.552 . S
Tb515 O559 2.413 . S
Tb515 C579 2.833 . S
N516 C508 1.360 . S
N516 Tb515 2.660 1_565 S
N516 C517 1.305 . S
C517 N516 1.305 . S
C517 C519 1.407 . S
C517 H524 0.896 1_565 S
C518 C506 1.410 . S
C518 C519 1.345 . S
C518 H526 0.930 . S
C519 C517 1.407 . S
C519 C518 1.345 . S
C519 H521 0.930 . S
H520 C513 0.930 . S
H521 C519 0.930 . S
H522 C510 0.930 . S
H523 C511 0.931 . S
H524 C517 0.896 1_545 S
H525 C539 0.930 . S
H526 C518 0.930 . S
H527 C545 0.930 . S
H528 C536 0.930 . S
H529 C543 0.931 . S
H530 C507 0.929 . S
H531 C537 0.930 . S
H532 C570 0.930 . S
H533 C514 0.930 . S
H534 C569 0.929 . S
N535 Tb504 2.660 . S
N535 C536 1.305 . S
N535 C540 1.360 . S
C536 H528 0.930 . S
C536 N535 1.305 . S
C536 C539 1.407 . S
C537 H531 0.930 . S
C537 C538 1.410 . S
C537 C539 1.345 . S
C538 C537 1.410 . S
C538 C540 1.417 . S
C538 C570 1.432 . S
C539 H525 0.930 . S
C539 C536 1.407 . S
C539 C537 1.345 . S
C540 N535 1.360 . S
C540 C538 1.417 . S
C540 C544 1.432 . S
H541 C546 0.930 . S
N542 Tb504 2.600 . S
N542 C544 1.359 . S
N542 C545 1.327 . S
C543 H529 0.931 . S
C543 C545 1.392 . S
C543 C546 1.370 . S
C544 C540 1.432 . S
C544 N542 1.359 . S
C544 C547 1.414 . S
C545 H527 0.930 . S
C545 N542 1.327 . S
C545 C543 1.392 . S
C546 H541 0.930 . S
C546 C543 1.370 . S
C546 C547 1.385 . S
C547 C544 1.414 . S
C547 C546 1.385 . S
C547 C569 1.444 . S
O548 Tb504 2.546 . S
O548 C568 1.251 . S
O549 Tb504 2.610 . S
O549 Tb515 2.362 . S
O549 C560 1.283 1_545 S
O550 Tb515 2.421 . S
O550 C567 1.262 . S
O551 Tb504 2.320 . S
O551 C567 1.260 . S
O552 Tb504 2.552 1_565 S
O552 C560 1.243 . S
O553 Tb504 2.413 . S
O553 C568 1.256 . S
O554 Tb515 2.546 . S
O554 C579 1.251 . S
O555 Tb504 2.362 . S
O555 Tb515 2.610 . S
O555 C571 1.283 . S
O556 Tb504 2.421 . S
O556 C578 1.262 . S
O557 Tb515 2.320 . S
O557 C578 1.260 . S
O558 Tb515 2.552 . S
O558 C571 1.243 . S
O559 Tb515 2.413 . S
O559 C579 1.256 . S
C560 O549 1.283 1_565 S
C560 O552 1.243 . S
C561 C563 1.382 . S
C561 C565 1.393 . S
C561 C568 1.500 . S
C562 C563 1.400 1_565 S
C562 C564 1.384 . S
C563 C561 1.382 . S
C563 C562 1.400 1_545 S
C563 H580 0.930 . S
C564 C562 1.384 . S
C564 C566 1.392 1_565 S
C564 H581 0.931 . S
C565 C561 1.393 . S
C565 C566 1.401 . S
C565 H582 0.930 . S
C566 C564 1.392 1_545 S
C566 C565 1.401 . S
C566 H583 0.930 . S
C567 O550 1.262 . S
C567 O551 1.260 . S
C568 Tb504 2.833 . S
C568 O548 1.251 . S
C568 O553 1.256 . S
C568 C561 1.500 . S
C569 H534 0.929 . S
C569 C547 1.444 . S
C569 C570 1.317 . S
C570 H532 0.930 . S
C570 C538 1.432 . S
C570 C569 1.317 . S
C571 O555 1.283 . S
C571 O558 1.243 . S
C572 C573 1.382 . S
C572 C576 1.393 . S
C572 C579 1.500 . S
C573 C572 1.382 . S
C573 C574 1.400 . S
C573 H584 0.930 . S
C574 C573 1.400 . S
C574 C575 1.384 . S
C575 C574 1.384 . S
C575 C577 1.392 . S
C575 H585 0.931 . S
C576 C572 1.393 . S
C576 C577 1.401 . S
C576 H586 0.930 . S
C577 C575 1.392 . S
C577 C576 1.401 . S
C577 H587 0.930 . S
C578 O556 1.262 . S
C578 O557 1.260 . S
C579 Tb515 2.833 . S
C579 O554 1.251 . S
C579 O559 1.256 . S
C579 C572 1.500 . S
H580 C563 0.930 . S
H581 C564 0.931 . S
H582 C565 0.930 . S
H583 C566 0.930 . S
H584 C573 0.930 . S
H585 C575 0.931 . S
H586 C576 0.930 . S
H587 C577 0.930 . S
Tb588 N619 2.660 . S
Tb588 N626 2.600 . S
Tb588 O632 2.546 . S
Tb588 O633 2.610 . S
Tb588 O635 2.320 . S
Tb588 O636 2.552 . S
Tb588 O637 2.413 . S
Tb588 O639 2.362 . S
Tb588 O640 2.421 . S
Tb588 C652 2.833 . S
C589 C592 1.432 . S
C589 C593 1.414 . S
C589 N596 1.359 . S
C590 C592 1.417 . S
C590 C594 1.432 . S
C590 C602 1.410 . S
C591 C593 1.444 . S
C591 C594 1.317 . S
C591 H614 0.929 . S
C592 C589 1.432 . S
C592 C590 1.417 . S
C592 N600 1.360 . S
C593 C589 1.414 . S
C593 C591 1.444 . S
C593 C598 1.385 . S
C594 C590 1.432 . S
C594 C591 1.317 . S
C594 H606 0.930 . S
C595 C597 1.392 . S
C595 C598 1.370 . S
C595 H607 0.931 . S
N596 C589 1.359 . S
N596 C597 1.327 . S
N596 Tb599 2.600 . S
C597 C595 1.392 . S
C597 N596 1.327 . S
C597 H604 0.930 . S
C598 C593 1.385 . S
C598 C595 1.370 . S
C598 H617 0.930 . S
Tb599 N596 2.600 . S
Tb599 N600 2.660 . S
Tb599 O633 2.362 . S
Tb599 O634 2.421 . S
Tb599 O638 2.546 . S
Tb599 O639 2.610 . S
Tb599 O641 2.320 . S
Tb599 O642 2.552 . S
Tb599 O643 2.413 . S
Tb599 C663 2.833 . S
N600 C592 1.360 . S
N600 Tb599 2.660 . S
N600 C601 1.305 . S
C601 N600 1.305 . S
C601 C603 1.407 . S
C601 H608 0.930 . S
C602 C590 1.410 . S
C602 C603 1.345 . S
C602 H610 0.930 . S
C603 C601 1.407 . S
C603 C602 1.345 . S
C603 H605 0.930 . S
H604 C597 0.930 . S
H605 C603 0.930 . S
H606 C594 0.930 . S
H607 C595 0.931 . S
H608 C601 0.930 . S
H609 C623 0.930 . S
H610 C602 0.930 . S
H611 C629 0.930 . S
H612 C620 0.930 . S
H613 C627 0.931 . S
H614 C591 0.929 . S
H615 C621 0.930 . S
H616 C654 0.930 . S
H617 C598 0.930 . S
H618 C653 0.929 . S
N619 Tb588 2.660 . S
N619 C620 1.305 . S
N619 C624 1.360 . S
C620 H612 0.930 . S
C620 N619 1.305 . S
C620 C623 1.407 . S
C621 H615 0.930 . S
C621 C622 1.410 . S
C621 C623 1.345 . S
C622 C621 1.410 . S
C622 C624 1.417 . S
C622 C654 1.432 . S
C623 H609 0.930 . S
C623 C620 1.407 . S
C623 C621 1.345 . S
C624 N619 1.360 . S
C624 C622 1.417 . S
C624 C628 1.432 . S
H625 C630 0.930 . S
N626 Tb588 2.600 . S
N626 C628 1.359 . S
N626 C629 1.327 . S
C627 H613 0.931 . S
C627 C629 1.392 . S
C627 C630 1.370 . S
C628 C624 1.432 . S
C628 N626 1.359 . S
C628 C631 1.414 . S
C629 H611 0.930 . S
C629 N626 1.327 . S
C629 C627 1.392 . S
C630 H625 0.930 . S
C630 C627 1.370 . S
C630 C631 1.385 . S
C631 C628 1.414 . S
C631 C630 1.385 . S
C631 C653 1.444 . S
O632 Tb588 2.546 . S
O632 C652 1.251 . S
O633 Tb588 2.610 . S
O633 Tb599 2.362 . S
O633 C644 1.283 . S
O634 Tb599 2.421 . S
O634 C651 1.262 . S
O635 Tb588 2.320 . S
O635 C651 1.260 . S
O636 Tb588 2.552 . S
O636 C644 1.243 . S
O637 Tb588 2.413 . S
O637 C652 1.256 . S
O638 Tb599 2.546 . S
O638 C663 1.251 . S
O639 Tb588 2.362 . S
O639 Tb599 2.610 . S
O639 C655 1.283 . S
O640 Tb588 2.421 . S
O640 C662 1.262 . S
O641 Tb599 2.320 . S
O641 C662 1.260 . S
O642 Tb599 2.552 . S
O642 C655 1.243 . S
O643 Tb599 2.413 . S
O643 C663 1.256 . S
C644 O633 1.283 . S
C644 O636 1.243 . S
C645 C647 1.382 . S
C645 C649 1.393 . S
C645 C652 1.500 . S
C646 C647 1.400 . S
C646 C648 1.384 . S
C647 C645 1.382 . S
C647 C646 1.400 . S
C647 H664 0.930 . S
C648 C646 1.384 . S
C648 C650 1.392 . S
C648 H665 0.931 . S
C649 C645 1.393 . S
C649 C650 1.401 . S
C649 H666 0.930 . S
C650 C648 1.392 . S
C650 C649 1.401 . S
C650 H667 0.930 . S
C651 O634 1.262 . S
C651 O635 1.260 . S
C652 Tb588 2.833 . S
C652 O632 1.251 . S
C652 O637 1.256 . S
C652 C645 1.500 . S
C653 H618 0.929 . S
C653 C631 1.444 . S
C653 C654 1.317 . S
C654 H616 0.930 . S
C654 C622 1.432 . S
C654 C653 1.317 . S
C655 O639 1.283 . S
C655 O642 1.243 . S
C656 C657 1.382 . S
C656 C660 1.393 . S
C656 C663 1.500 . S
C657 C656 1.382 . S
C657 C658 1.400 . S
C657 H668 0.930 . S
C658 C657 1.400 . S
C658 C659 1.384 . S
C659 C658 1.384 . S
C659 C661 1.392 . S
C659 H669 0.931 . S
C660 C656 1.393 . S
C660 C661 1.401 . S
C660 H670 0.930 . S
C661 C659 1.392 . S
C661 C660 1.401 . S
C661 H671 0.930 . S
C662 O640 1.262 . S
C662 O641 1.260 . S
C663 Tb599 2.833 . S
C663 O638 1.251 . S
C663 O643 1.256 . S
C663 C656 1.500 . S
H664 C647 0.930 . S
H665 C648 0.931 . S
H666 C649 0.930 . S
H667 C650 0.930 . S
H668 C657 0.930 . S
H669 C659 0.931 . S
H670 C660 0.930 . S
H671 C661 0.930 . S
Tb672 N703 2.660 . S
Tb672 N710 2.600 . S
Tb672 O716 2.546 . S
Tb672 O717 2.610 . S
Tb672 O719 2.320 . S
Tb672 O720 2.552 . S
Tb672 O721 2.413 . S
Tb672 O723 2.362 . S
Tb672 O724 2.421 . S
Tb672 C736 2.833 . S
C673 C676 1.432 . S
C673 C677 1.414 . S
C673 N680 1.367 . S
C674 C676 1.417 . S
C674 C678 1.432 . S
C674 C686 1.410 . S
C675 C677 1.444 . S
C675 C678 1.317 . S
C675 H698 0.929 . S
C676 C673 1.432 . S
C676 C674 1.417 . S
C676 N684 1.360 . S
C677 C673 1.414 . S
C677 C675 1.444 . S
C677 C682 1.385 . S
C678 C674 1.432 . S
C678 C675 1.317 . S
C678 H690 0.930 . S
C679 C681 1.392 1_565 S
C679 C682 1.370 . S
C679 H691 0.931 . S
N680 C673 1.367 . S
N680 C681 1.332 1_565 S
N680 Tb683 2.592 1_565 S
C681 C679 1.392 1_545 S
C681 N680 1.332 1_545 S
C681 H688 0.930 . S
C682 C677 1.385 . S
C682 C679 1.370 . S
C682 H701 0.930 . S
Tb683 N680 2.592 1_545 S
Tb683 N684 2.660 1_545 S
Tb683 O717 2.362 . S
Tb683 O718 2.421 . S
Tb683 O722 2.546 1_545 S
Tb683 O723 2.610 . S
Tb683 O725 2.320 . S
Tb683 O726 2.552 . S
Tb683 O727 2.413 1_545 S
Tb683 C747 2.833 1_545 S
N684 C676 1.360 . S
N684 Tb683 2.660 1_565 S
N684 C685 1.305 . S
C685 N684 1.305 . S
C685 C687 1.407 . S
C685 H692 0.930 . S
C686 C674 1.410 . S
C686 C687 1.345 . S
C686 H694 0.930 . S
C687 C685 1.407 . S
C687 C686 1.345 . S
C687 H689 0.930 1_455 S
H688 C681 0.930 . S
H689 C687 0.930 1_655 S
H690 C678 0.930 . S
H691 C679 0.931 . S
H692 C685 0.930 . S
H693 C707 0.930 . S
H694 C686 0.930 . S
H695 C713 0.930 . S
H696 C704 0.930 . S
H697 C711 0.931 1_655 S
H698 C675 0.929 . S
H699 C705 0.930 . S
H700 C738 0.930 . S
H701 C682 0.930 . S
H702 C737 0.929 . S
N703 Tb672 2.660 . S
N703 C704 1.305 . S
N703 C708 1.360 . S
C704 H696 0.930 . S
C704 N703 1.305 . S
C704 C707 1.407 . S
C705 H699 0.930 . S
C705 C706 1.410 . S
C705 C707 1.345 . S
C706 C705 1.410 . S
C706 C708 1.417 . S
C706 C738 1.432 . S
C707 H693 0.930 . S
C707 C704 1.407 . S
C707 C705 1.345 . S
C708 N703 1.360 . S
C708 C706 1.417 . S
C708 C712 1.432 . S
H709 C714 0.930 . S
N710 Tb672 2.600 . S
N710 C712 1.359 . S
N710 C713 1.327 . S
C711 H697 0.931 1_455 S
C711 C713 1.392 . S
C711 C714 1.370 . S
C712 C708 1.432 . S
C712 N710 1.359 . S
C712 C715 1.414 . S
C713 H695 0.930 . S
C713 N710 1.327 . S
C713 C711 1.392 . S
C714 H709 0.930 . S
C714 C711 1.370 . S
C714 C715 1.385 . S
C715 C712 1.414 . S
C715 C714 1.385 . S
C715 C737 1.444 . S
O716 Tb672 2.546 . S
O716 C736 1.251 . S
O717 Tb672 2.610 . S
O717 Tb683 2.362 . S
O717 C728 1.283 . S
O718 Tb683 2.421 . S
O718 C735 1.262 . S
O719 Tb672 2.320 . S
O719 C735 1.260 . S
O720 Tb672 2.552 . S
O720 C728 1.243 . S
O721 Tb672 2.413 . S
O721 C736 1.256 . S
O722 Tb683 2.546 1_565 S
O722 C747 1.251 . S
O723 Tb672 2.362 . S
O723 Tb683 2.610 . S
O723 C739 1.283 . S
O724 Tb672 2.421 . S
O724 C746 1.262 . S
O725 Tb683 2.320 . S
O725 C746 1.260 . S
O726 Tb683 2.552 . S
O726 C739 1.243 . S
O727 Tb683 2.413 1_565 S
O727 C747 1.256 . S
C728 O717 1.283 . S
C728 O720 1.243 . S
C729 C731 1.382 . S
C729 C733 1.393 . S
C729 C736 1.500 . S
C730 C731 1.400 . S
C730 C732 1.384 . S
C731 C729 1.382 . S
C731 C730 1.400 . S
C731 H748 0.930 . S
C732 C730 1.384 . S
C732 C734 1.392 . S
C732 H749 0.931 . S
C733 C729 1.393 . S
C733 C734 1.401 . S
C733 H750 0.930 . S
C734 C732 1.392 . S
C734 C733 1.401 . S
C734 H751 0.930 . S
C735 O718 1.262 . S
C735 O719 1.260 . S
C736 Tb672 2.833 . S
C736 O716 1.251 . S
C736 O721 1.256 . S
C736 C729 1.500 . S
C737 H702 0.929 . S
C737 C715 1.444 . S
C737 C738 1.317 . S
C738 H700 0.930 . S
C738 C706 1.432 . S
C738 C737 1.317 . S
C739 O723 1.283 . S
C739 O726 1.243 . S
C740 C741 1.382 . S
C740 C744 1.393 . S
C740 C747 1.500 . S
C741 C740 1.382 . S
C741 C742 1.400 . S
C741 H752 0.930 . S
C742 C741 1.400 . S
C742 C743 1.384 . S
C743 C742 1.384 . S
C743 C745 1.392 . S
C743 H753 0.931 . S
C744 C740 1.393 . S
C744 C745 1.401 . S
C744 H754 0.930 . S
C745 C743 1.392 . S
C745 C744 1.401 . S
C745 H755 0.930 . S
C746 O724 1.262 . S
C746 O725 1.260 . S
C747 Tb683 2.833 1_565 S
C747 O722 1.251 . S
C747 O727 1.256 . S
C747 C740 1.500 . S
H748 C731 0.930 . S
H749 C732 0.931 . S
H750 C733 0.930 . S
H751 C734 0.930 . S
H752 C741 0.930 . S
H753 C743 0.931 . S
H754 C744 0.930 . S
H755 C745 0.930 . S
Tb756 N787 2.660 . S
Tb756 N794 2.600 . S
Tb756 O800 2.546 . S
Tb756 O801 2.610 . S
Tb756 O803 2.320 . S
Tb756 O804 2.552 . S
Tb756 O805 2.413 . S
Tb756 O807 2.362 . S
Tb756 O808 2.421 . S
Tb756 C820 2.833 . S
C757 C760 1.432 . S
C757 C761 1.414 . S
C757 N764 1.359 . S
C758 C760 1.417 . S
C758 C762 1.432 . S
C758 C770 1.410 . S
C759 C761 1.444 . S
C759 C762 1.317 . S
C759 H782 0.929 . S
C760 C757 1.432 . S
C760 C758 1.417 . S
C760 N768 1.360 . S
C761 C757 1.414 . S
C761 C759 1.444 . S
C761 C766 1.385 . S
C762 C758 1.432 . S
C762 C759 1.317 . S
C762 H774 0.930 . S
C763 C765 1.392 . S
C763 C766 1.370 . S
C763 H775 0.931 . S
N764 C757 1.359 . S
N764 C765 1.327 . S
N764 Tb767 2.600 . S
C765 C763 1.392 . S
C765 N764 1.327 . S
C765 H772 0.930 . S
C766 C761 1.385 . S
C766 C763 1.370 . S
C766 H785 0.930 . S
Tb767 N764 2.600 . S
Tb767 N768 2.660 . S
Tb767 O801 2.362 . S
Tb767 O802 2.421 . S
Tb767 O806 2.546 . S
Tb767 O807 2.610 . S
Tb767 O809 2.320 . S
Tb767 O810 2.552 . S
Tb767 O811 2.413 . S
Tb767 C831 2.833 . S
N768 C760 1.360 . S
N768 Tb767 2.660 . S
N768 C769 1.305 . S
C769 N768 1.305 . S
C769 C771 1.407 . S
C769 H776 0.930 . S
C770 C758 1.410 . S
C770 C771 1.345 . S
C770 H778 0.930 . S
C771 C769 1.407 . S
C771 C770 1.345 . S
C771 H773 0.930 . S
H772 C765 0.930 . S
H773 C771 0.930 . S
H774 C762 0.930 . S
H775 C763 0.931 . S
H776 C769 0.930 . S
H777 C791 0.930 . S
H778 C770 0.930 . S
H779 C797 0.930 . S
H780 C788 0.930 . S
H781 C795 0.931 . S
H782 C759 0.929 . S
H783 C789 0.930 . S
H784 C822 0.930 . S
H785 C766 0.930 . S
H786 C821 0.929 . S
N787 Tb756 2.660 . S
N787 C788 1.305 . S
N787 C792 1.360 . S
C788 H780 0.930 . S
C788 N787 1.305 . S
C788 C791 1.407 . S
C789 H783 0.930 . S
C789 C790 1.410 . S
C789 C791 1.345 . S
C790 C789 1.410 . S
C790 C792 1.417 . S
C790 C822 1.432 . S
C791 H777 0.930 . S
C791 C788 1.407 . S
C791 C789 1.345 . S
C792 N787 1.360 . S
C792 C790 1.417 . S
C792 C796 1.432 . S
H793 C798 0.930 . S
N794 Tb756 2.600 . S
N794 C796 1.359 . S
N794 C797 1.327 . S
C795 H781 0.931 . S
C795 C797 1.392 . S
C795 C798 1.370 . S
C796 C792 1.432 . S
C796 N794 1.359 . S
C796 C799 1.414 . S
C797 H779 0.930 . S
C797 N794 1.327 . S
C797 C795 1.392 . S
C798 H793 0.930 . S
C798 C795 1.370 . S
C798 C799 1.385 . S
C799 C796 1.414 . S
C799 C798 1.385 . S
C799 C821 1.444 . S
O800 Tb756 2.546 . S
O800 C820 1.251 . S
O801 Tb756 2.610 . S
O801 Tb767 2.362 . S
O801 C812 1.283 . S
O802 Tb767 2.421 . S
O802 C819 1.262 . S
O803 Tb756 2.320 . S
O803 C819 1.260 . S
O804 Tb756 2.552 . S
O804 C812 1.243 . S
O805 Tb756 2.413 . S
O805 C820 1.256 . S
O806 Tb767 2.546 . S
O806 C831 1.251 . S
O807 Tb756 2.362 . S
O807 Tb767 2.610 . S
O807 C823 1.283 . S
O808 Tb756 2.421 . S
O808 C830 1.262 . S
O809 Tb767 2.320 . S
O809 C830 1.260 . S
O810 Tb767 2.552 . S
O810 C823 1.243 . S
O811 Tb767 2.413 . S
O811 C831 1.256 . S
C812 O801 1.283 . S
C812 O804 1.243 . S
C813 C815 1.382 . S
C813 C817 1.393 . S
C813 C820 1.500 . S
C814 C815 1.400 . S
C814 C816 1.384 . S
C815 C813 1.382 . S
C815 C814 1.400 . S
C815 H832 0.930 . S
C816 C814 1.384 . S
C816 C818 1.392 . S
C816 H833 0.931 . S
C817 C813 1.393 . S
C817 C818 1.401 . S
C817 H834 0.930 . S
C818 C816 1.392 . S
C818 C817 1.401 . S
C818 H835 0.930 . S
C819 O802 1.262 . S
C819 O803 1.260 . S
C820 Tb756 2.833 . S
C820 O800 1.251 . S
C820 O805 1.256 . S
C820 C813 1.500 . S
C821 H786 0.929 . S
C821 C799 1.444 . S
C821 C822 1.317 . S
C822 H784 0.930 . S
C822 C790 1.432 . S
C822 C821 1.317 . S
C823 O807 1.283 . S
C823 O810 1.243 . S
C824 C825 1.382 . S
C824 C828 1.393 . S
C824 C831 1.500 . S
C825 C824 1.382 . S
C825 C826 1.400 . S
C825 H836 0.930 . S
C826 C825 1.400 . S
C826 C827 1.384 . S
C827 C826 1.384 . S
C827 C829 1.392 . S
C827 H837 0.931 . S
C828 C824 1.393 . S
C828 C829 1.401 . S
C828 H838 0.930 . S
C829 C827 1.392 . S
C829 C828 1.401 . S
C829 H839 0.930 . S
C830 O808 1.262 . S
C830 O809 1.260 . S
C831 Tb767 2.833 . S
C831 O806 1.251 . S
C831 O811 1.256 . S
C831 C824 1.500 . S
H832 C815 0.930 . S
H833 C816 0.931 . S
H834 C817 0.930 . S
H835 C818 0.930 . S
H836 C825 0.930 . S
H837 C827 0.931 . S
H838 C828 0.930 . S
H839 C829 0.930 . S
Tb840 N871 2.660 . S
Tb840 N878 2.600 . S
Tb840 O884 2.546 . S
Tb840 O885 2.610 . S
Tb840 O887 2.320 . S
Tb840 O888 2.552 . S
Tb840 O889 2.413 . S
Tb840 O891 2.362 . S
Tb840 O892 2.421 . S
Tb840 C904 2.833 . S
C841 C844 1.432 . S
C841 C845 1.414 . S
C841 N848 1.359 . S
C842 C844 1.417 . S
C842 C846 1.432 . S
C842 C854 1.347 1_545 S
C843 C845 1.444 . S
C843 C846 1.317 . S
C843 H866 0.929 . S
C844 C841 1.432 . S
C844 C842 1.417 . S
C844 N852 1.360 . S
C845 C841 1.414 . S
C845 C843 1.444 . S
C845 C850 1.385 . S
C846 C842 1.432 . S
C846 C843 1.317 . S
C846 H858 0.930 . S
C847 C849 1.392 . S
C847 C850 1.370 . S
C847 H859 0.931 . S
N848 C841 1.359 . S
N848 C849 1.327 . S
N848 Tb851 2.600 . S
C849 C847 1.392 . S
C849 N848 1.327 . S
C849 H856 0.930 . S
C850 C845 1.385 . S
C850 C847 1.370 . S
C850 H869 0.930 . S
Tb851 N848 2.600 . S
Tb851 N852 2.660 . S
Tb851 O885 2.362 1_556 S
Tb851 O886 2.421 1_556 S
Tb851 O890 2.546 . S
Tb851 O891 2.610 1_556 S
Tb851 O893 2.320 . S
Tb851 O894 2.552 . S
Tb851 O895 2.413 . S
Tb851 C915 2.833 . S
N852 C844 1.360 . S
N852 Tb851 2.660 . S
N852 C853 1.305 . S
C853 N852 1.305 . S
C853 C855 1.407 1_545 S
C853 H860 0.930 . S
C854 C842 1.347 1_565 S
C854 C855 1.385 . S
C854 H862 0.956 . S
C855 C853 1.407 1_565 S
C855 C854 1.385 . S
C855 H857 0.930 . S
H856 C849 0.930 . S
H857 C855 0.930 . S
H858 C846 0.930 . S
H859 C847 0.931 . S
H860 C853 0.930 . S
H861 C875 0.930 . S
H862 C854 0.956 . S
H863 C881 0.930 1_565 S
H864 C872 0.930 . S
H865 C879 0.931 . S
H866 C843 0.929 . S
H867 C873 0.930 . S
H868 C906 0.930 . S
H869 C850 0.930 . S
H870 C905 0.929 . S
N871 Tb840 2.660 . S
N871 C872 1.305 . S
N871 C876 1.360 . S
C872 H864 0.930 . S
C872 N871 1.305 . S
C872 C875 1.407 . S
C873 H867 0.930 . S
C873 C874 1.410 . S
C873 C875 1.345 . S
C874 C873 1.410 . S
C874 C876 1.417 . S
C874 C906 1.432 . S
C875 H861 0.930 . S
C875 C872 1.407 . S
C875 C873 1.345 . S
C876 N871 1.360 . S
C876 C874 1.417 . S
C876 C880 1.432 . S
H877 C882 0.930 . S
N878 Tb840 2.600 . S
N878 C880 1.359 . S
N878 C881 1.327 . S
C879 H865 0.931 . S
C879 C881 1.392 1_565 S
C879 C882 1.370 1_565 S
C880 C876 1.432 . S
C880 N878 1.359 . S
C880 C883 1.414 . S
C881 H863 0.930 1_545 S
C881 N878 1.327 . S
C881 C879 1.392 1_545 S
C882 H877 0.930 . S
C882 C879 1.370 1_545 S
C882 C883 1.385 . S
C883 C880 1.414 . S
C883 C882 1.385 . S
C883 C905 1.444 . S
O884 Tb840 2.546 . S
O884 C904 1.251 . S
O885 Tb840 2.610 . S
O885 Tb851 2.362 1_554 S
O885 C896 1.283 . S
O886 Tb851 2.421 1_554 S
O886 C903 1.262 . S
O887 Tb840 2.320 . S
O887 C903 1.260 . S
O888 Tb840 2.552 . S
O888 C896 1.243 . S
O889 Tb840 2.413 . S
O889 C904 1.256 . S
O890 Tb851 2.546 . S
O890 C915 1.251 . S
O891 Tb840 2.362 . S
O891 Tb851 2.610 1_554 S
O891 C907 1.283 . S
O892 Tb840 2.421 . S
O892 C914 1.262 1_554 S
O893 Tb851 2.320 . S
O893 C914 1.260 . S
O894 Tb851 2.552 . S
O894 C907 1.243 1_556 S
O895 Tb851 2.413 . S
O895 C915 1.256 . S
C896 O885 1.283 . S
C896 O888 1.243 . S
C897 C899 1.382 . S
C897 C901 1.393 . S
C897 C904 1.500 . S
C898 C899 1.400 . S
C898 C900 1.384 . S
C899 C897 1.382 . S
C899 C898 1.400 . S
C899 H916 0.930 . S
C900 C898 1.384 . S
C900 C902 1.392 . S
C900 H917 0.931 . S
C901 C897 1.393 . S
C901 C902 1.401 . S
C901 H918 0.930 1_545 S
C902 C900 1.392 . S
C902 C901 1.401 . S
C902 H919 0.930 1_545 S
C903 O886 1.262 . S
C903 O887 1.260 . S
C904 Tb840 2.833 . S
C904 O884 1.251 . S
C904 O889 1.256 . S
C904 C897 1.500 . S
C905 H870 0.929 . S
C905 C883 1.444 . S
C905 C906 1.317 . S
C906 H868 0.930 . S
C906 C874 1.432 . S
C906 C905 1.317 . S
C907 O891 1.283 . S
C907 O894 1.243 1_554 S
C908 C909 1.382 . S
C908 C912 1.393 . S
C908 C915 1.500 . S
C909 C908 1.382 . S
C909 C910 1.400 . S
C909 H920 0.930 . S
C910 C909 1.400 . S
C910 C911 1.384 . S
C911 C910 1.384 . S
C911 C913 1.392 . S
C911 H921 0.931 . S
C912 C908 1.393 . S
C912 C913 1.401 . S
C912 H922 0.930 . S
C913 C911 1.392 . S
C913 C912 1.401 . S
C913 H923 0.930 . S
C914 O892 1.262 1_556 S
C914 O893 1.260 . S
C915 Tb851 2.833 . S
C915 O890 1.251 . S
C915 O895 1.256 . S
C915 C908 1.500 . S
H916 C899 0.930 . S
H917 C900 0.931 . S
H918 C901 0.930 1_565 S
H919 C902 0.930 1_565 S
H920 C909 0.930 . S
H921 C911 0.931 . S
H922 C912 0.930 . S
H923 C913 0.930 . S
Tb924 N955 2.660 . S
Tb924 N962 2.600 . S
Tb924 O968 2.546 . S
Tb924 O969 2.610 . S
Tb924 O971 2.320 . S
Tb924 O972 2.552 . S
Tb924 O973 2.413 . S
Tb924 O975 2.362 . S
Tb924 O976 2.421 . S
Tb924 C988 2.833 . S
C925 C928 1.432 . S
C925 C929 1.414 . S
C925 N932 1.359 . S
C926 C928 1.417 . S
C926 C930 1.432 . S
C926 C938 1.410 . S
C927 C929 1.444 . S
C927 C930 1.317 . S
C927 H950 0.929 . S
C928 C925 1.432 . S
C928 C926 1.417 . S
C928 N936 1.360 . S
C929 C925 1.414 . S
C929 C927 1.444 . S
C929 C934 1.385 . S
C930 C926 1.432 . S
C930 C927 1.317 . S
C930 H942 0.930 . S
C931 C933 1.392 . S
C931 C934 1.370 . S
C931 H943 0.931 . S
N932 C925 1.359 . S
N932 C933 1.327 . S
N932 Tb935 2.600 . S
C933 C931 1.392 . S
C933 N932 1.327 . S
C933 H940 0.930 . S
C934 C929 1.385 . S
C934 C931 1.370 . S
C934 H953 0.930 . S
Tb935 N932 2.600 . S
Tb935 N936 2.660 . S
Tb935 O969 2.362 . S
Tb935 O970 2.421 . S
Tb935 O974 2.546 . S
Tb935 O975 2.610 . S
Tb935 O977 2.320 . S
Tb935 O978 2.552 . S
Tb935 O979 2.413 . S
Tb935 C999 2.833 . S
N936 C928 1.360 . S
N936 Tb935 2.660 . S
N936 C937 1.305 . S
C937 N936 1.305 . S
C937 C939 1.407 . S
C937 H944 0.930 . S
C938 C926 1.410 . S
C938 C939 1.345 . S
C938 H946 0.930 . S
C939 C937 1.407 . S
C939 C938 1.345 . S
C939 H941 0.930 . S
H940 C933 0.930 . S
H941 C939 0.930 . S
H942 C930 0.930 . S
H943 C931 0.931 . S
H944 C937 0.930 . S
H945 C959 0.930 . S
H946 C938 0.930 . S
H947 C965 0.930 . S
H948 C956 0.930 . S
H949 C963 0.931 . S
H950 C927 0.929 . S
H951 C957 0.930 . S
H952 C990 0.930 . S
H953 C934 0.930 . S
H954 C989 0.929 . S
N955 Tb924 2.660 . S
N955 C956 1.305 . S
N955 C960 1.360 . S
C956 H948 0.930 . S
C956 N955 1.305 . S
C956 C959 1.407 . S
C957 H951 0.930 . S
C957 C958 1.410 . S
C957 C959 1.345 . S
C958 C957 1.410 . S
C958 C960 1.417 . S
C958 C990 1.432 . S
C959 H945 0.930 . S
C959 C956 1.407 . S
C959 C957 1.345 . S
C960 N955 1.360 . S
C960 C958 1.417 . S
C960 C964 1.432 . S
H961 C966 0.930 . S
N962 Tb924 2.600 . S
N962 C964 1.359 . S
N962 C965 1.327 . S
C963 H949 0.931 . S
C963 C965 1.392 . S
C963 C966 1.370 . S
C964 C960 1.432 . S
C964 N962 1.359 . S
C964 C967 1.414 . S
C965 H947 0.930 . S
C965 N962 1.327 . S
C965 C963 1.392 . S
C966 H961 0.930 . S
C966 C963 1.370 . S
C966 C967 1.385 . S
C967 C964 1.414 . S
C967 C966 1.385 . S
C967 C989 1.444 . S
O968 Tb924 2.546 . S
O968 C988 1.251 . S
O969 Tb924 2.610 . S
O969 Tb935 2.362 . S
O969 C980 1.283 . S
O970 Tb935 2.421 . S
O970 C987 1.262 . S
O971 Tb924 2.320 . S
O971 C987 1.260 . S
O972 Tb924 2.552 . S
O972 C980 1.243 . S
O973 Tb924 2.413 . S
O973 C988 1.256 . S
O974 Tb935 2.546 . S
O974 C999 1.251 . S
O975 Tb924 2.362 . S
O975 Tb935 2.610 . S
O975 C991 1.283 . S
O976 Tb924 2.421 . S
O976 C998 1.262 . S
O977 Tb935 2.320 . S
O977 C998 1.260 . S
O978 Tb935 2.552 . S
O978 C991 1.243 . S
O979 Tb935 2.413 . S
O979 C999 1.256 . S
C980 O969 1.283 . S
C980 O972 1.243 . S
C981 C983 1.382 . S
C981 C985 1.393 . S
C981 C988 1.500 . S
C982 C983 1.400 . S
C982 C984 1.384 . S
C983 C981 1.382 . S
C983 C982 1.400 . S
C983 H1000 0.930 . S
C984 C982 1.384 . S
C984 C986 1.392 . S
C984 H1001 0.931 . S
C985 C981 1.393 . S
C985 C986 1.401 . S
C985 H1002 0.930 . S
C986 C984 1.392 . S
C986 C985 1.401 . S
C986 H1003 0.930 . S
C987 O970 1.262 . S
C987 O971 1.260 . S
C988 Tb924 2.833 . S
C988 O968 1.251 . S
C988 O973 1.256 . S
C988 C981 1.500 . S
C989 H954 0.929 . S
C989 C967 1.444 . S
C989 C990 1.317 . S
C990 H952 0.930 . S
C990 C958 1.432 . S
C990 C989 1.317 . S
C991 O975 1.283 . S
C991 O978 1.243 . S
C992 C993 1.382 . S
C992 C996 1.393 . S
C992 C999 1.500 . S
C993 C992 1.382 . S
C993 C994 1.400 . S
C993 H1004 0.930 . S
C994 C993 1.400 . S
C994 C995 1.384 . S
C995 C994 1.384 . S
C995 C997 1.392 . S
C995 H1005 0.931 . S
C996 C992 1.393 . S
C996 C997 1.401 . S
C996 H1006 0.930 . S
C997 C995 1.392 . S
C997 C996 1.401 . S
C997 H1007 0.930 . S
C998 O976 1.262 . S
C998 O977 1.260 . S
C999 Tb935 2.833 . S
C999 O974 1.251 . S
C999 O979 1.256 . S
C999 C992 1.500 . S
H1000 C983 0.930 . S
H1001 C984 0.931 . S
H1002 C985 0.930 . S
H1003 C986 0.930 . S
H1004 C993 0.930 . S
H1005 C995 0.931 . S
H1006 C996 0.930 . S
H1007 C997 0.930 . S
Tb1008 N1039 2.660 . S
Tb1008 N1046 2.600 . S
Tb1008 O1052 2.546 . S
Tb1008 O1053 2.610 1_554 S
Tb1008 O1055 2.320 . S
Tb1008 O1056 2.552 1_554 S
Tb1008 O1057 2.413 . S
Tb1008 O1059 2.362 . S
Tb1008 O1060 2.421 . S
Tb1008 C1072 2.833 . S
C1009 C1012 1.432 . S
C1009 C1013 1.414 . S
C1009 N1016 1.359 . S
C1010 C1012 1.417 . S
C1010 C1014 1.432 . S
C1010 C1022 1.410 . S
C1011 C1013 1.444 . S
C1011 C1014 1.317 . S
C1011 H1034 0.929 . S
C1012 C1009 1.432 . S
C1012 C1010 1.417 . S
C1012 N1020 1.360 . S
C1013 C1009 1.414 . S
C1013 C1011 1.444 . S
C1013 C1018 1.385 . S
C1014 C1010 1.432 . S
C1014 C1011 1.317 . S
C1014 H1026 0.930 . S
C1015 C1017 1.392 . S
C1015 C1018 1.370 . S
C1015 H1027 0.931 . S
N1016 C1009 1.359 . S
N1016 C1017 1.327 . S
N1016 Tb1019 2.600 1_556 S
C1017 C1015 1.392 . S
C1017 N1016 1.327 . S
C1017 H1024 0.930 . S
C1018 C1013 1.385 . S
C1018 C1015 1.370 . S
C1018 H1037 0.930 . S
Tb1019 N1016 2.600 1_554 S
Tb1019 N1020 2.660 1_554 S
Tb1019 O1053 2.362 1_554 S
Tb1019 O1054 2.421 . S
Tb1019 O1058 2.546 . S
Tb1019 O1059 2.610 . S
Tb1019 O1061 2.320 . S
Tb1019 O1062 2.552 . S
Tb1019 O1063 2.413 . S
Tb1019 C1083 2.833 . S
N1020 C1012 1.360 . S
N1020 Tb1019 2.660 1_556 S
N1020 C1021 1.305 . S
C1021 N1020 1.305 . S
C1021 C1023 1.407 . S
C1021 H1028 0.930 . S
C1022 C1010 1.410 . S
C1022 C1023 1.345 . S
C1022 H1030 0.930 . S
C1023 C1021 1.407 . S
C1023 C1022 1.345 . S
C1023 H1025 0.930 . S
H1024 C1017 0.930 . S
H1025 C1023 0.930 . S
H1026 C1014 0.930 . S
H1027 C1015 0.931 . S
H1028 C1021 0.930 . S
H1029 C1043 0.930 . S
H1030 C1022 0.930 . S
H1031 C1049 0.930 . S
H1032 C1040 0.930 . S
H1033 C1047 0.931 . S
H1034 C1011 0.929 . S
H1035 C1041 0.930 . S
H1036 C1074 0.930 . S
H1037 C1018 0.930 . S
H1038 C1073 0.929 . S
N1039 Tb1008 2.660 . S
N1039 C1040 1.305 . S
N1039 C1044 1.360 . S
C1040 H1032 0.930 . S
C1040 N1039 1.305 . S
C1040 C1043 1.407 . S
C1041 H1035 0.930 . S
C1041 C1042 1.410 . S
C1041 C1043 1.345 . S
C1042 C1041 1.410 . S
C1042 C1044 1.417 . S
C1042 C1074 1.432 . S
C1043 H1029 0.930 . S
C1043 C1040 1.407 . S
C1043 C1041 1.345 . S
C1044 N1039 1.360 . S
C1044 C1042 1.417 . S
C1044 C1048 1.432 . S
H1045 C1050 0.930 . S
N1046 Tb1008 2.600 . S
N1046 C1048 1.359 . S
N1046 C1049 1.327 . S
C1047 H1033 0.931 . S
C1047 C1049 1.392 . S
C1047 C1050 1.370 . S
C1048 C1044 1.432 . S
C1048 N1046 1.359 . S
C1048 C1051 1.414 . S
C1049 H1031 0.930 . S
C1049 N1046 1.327 . S
C1049 C1047 1.392 . S
C1050 H1045 0.930 . S
C1050 C1047 1.370 . S
C1050 C1051 1.385 . S
C1051 C1048 1.414 . S
C1051 C1050 1.385 . S
C1051 C1073 1.444 . S
O1052 Tb1008 2.546 . S
O1052 C1072 1.251 . S
O1053 Tb1008 2.610 1_556 S
O1053 Tb1019 2.362 1_556 S
O1053 C1064 1.283 . S
O1054 Tb1019 2.421 . S
O1054 C1071 1.262 . S
O1055 Tb1008 2.320 . S
O1055 C1071 1.260 . S
O1056 Tb1008 2.552 1_556 S
O1056 C1064 1.243 . S
O1057 Tb1008 2.413 . S
O1057 C1072 1.256 . S
O1058 Tb1019 2.546 . S
O1058 C1083 1.251 . S
O1059 Tb1008 2.362 . S
O1059 Tb1019 2.610 . S
O1059 C1075 1.283 . S
O1060 Tb1008 2.421 . S
O1060 C1082 1.262 . S
O1061 Tb1019 2.320 . S
O1061 C1082 1.260 . S
O1062 Tb1019 2.552 . S
O1062 C1075 1.243 . S
O1063 Tb1019 2.413 . S
O1063 C1083 1.256 . S
C1064 O1053 1.283 . S
C1064 O1056 1.243 . S
C1065 C1067 1.382 . S
C1065 C1069 1.393 . S
C1065 C1072 1.500 . S
C1066 C1067 1.400 1_556 S
C1066 C1068 1.384 1_556 S
C1067 C1065 1.382 . S
C1067 C1066 1.400 1_554 S
C1067 H1084 0.930 1_554 S
C1068 C1066 1.384 1_554 S
C1068 C1070 1.392 . S
C1068 H1085 0.938 . S
C1069 C1065 1.393 . S
C1069 C1070 1.401 . S
C1069 H1086 0.930 . S
C1070 C1068 1.392 . S
C1070 C1069 1.401 . S
C1070 H1087 0.930 . S
C1071 O1054 1.262 . S
C1071 O1055 1.260 . S
C1072 Tb1008 2.833 . S
C1072 O1052 1.251 . S
C1072 O1057 1.256 . S
C1072 C1065 1.500 . S
C1073 H1038 0.929 . S
C1073 C1051 1.444 . S
C1073 C1074 1.317 . S
C1074 H1036 0.930 . S
C1074 C1042 1.432 . S
C1074 C1073 1.317 . S
C1075 O1059 1.283 . S
C1075 O1062 1.243 . S
C1076 C1077 1.382 . S
C1076 C1080 1.393 . S
C1076 C1083 1.500 . S
C1077 C1076 1.382 . S
C1077 C1078 1.400 . S
C1077 H1088 0.930 . S
C1078 C1077 1.400 . S
C1078 C1079 1.384 . S
C1079 C1078 1.384 . S
C1079 C1081 1.392 . S
C1079 H1089 0.931 . S
C1080 C1076 1.393 . S
C1080 C1081 1.401 . S
C1080 H1090 0.930 . S
C1081 C1079 1.392 . S
C1081 C1080 1.401 . S
C1081 H1091 0.930 . S
C1082 O1060 1.262 . S
C1082 O1061 1.260 . S
C1083 Tb1019 2.833 . S
C1083 O1058 1.251 . S
C1083 O1063 1.256 . S
C1083 C1076 1.500 . S
H1084 C1067 0.930 1_556 S
H1085 C1068 0.938 . S
H1086 C1069 0.930 . S
H1087 C1070 0.930 . S
H1088 C1077 0.930 . S
H1089 C1079 0.931 . S
H1090 C1080 0.930 . S
H1091 C1081 0.930 . S
Tb1092 N1123 2.660 . S
Tb1092 N1130 2.600 . S
Tb1092 O1136 2.546 . S
Tb1092 O1137 2.610 . S
Tb1092 O1139 2.320 . S
Tb1092 O1140 2.552 . S
Tb1092 O1141 2.413 . S
Tb1092 O1143 2.362 . S
Tb1092 O1144 2.421 . S
Tb1092 C1156 2.833 . S
C1093 C1096 1.432 . S
C1093 C1097 1.414 . S
C1093 N1100 1.359 . S
C1094 C1096 1.417 . S
C1094 C1098 1.432 . S
C1094 C1106 1.410 . S
C1095 C1097 1.444 . S
C1095 C1098 1.317 . S
C1095 H1118 0.929 . S
C1096 C1093 1.432 . S
C1096 C1094 1.417 . S
C1096 N1104 1.360 . S
C1097 C1093 1.414 . S
C1097 C1095 1.444 . S
C1097 C1102 1.385 . S
C1098 C1094 1.432 . S
C1098 C1095 1.317 . S
C1098 H1110 0.930 . S
C1099 C1101 1.392 . S
C1099 C1102 1.370 . S
C1099 H1111 0.931 . S
N1100 C1093 1.359 . S
N1100 C1101 1.327 . S
N1100 Tb1103 2.600 . S
C1101 C1099 1.392 . S
C1101 N1100 1.327 . S
C1101 H1108 0.930 . S
C1102 C1097 1.385 . S
C1102 C1099 1.370 . S
C1102 H1121 0.930 . S
Tb1103 N1100 2.600 . S
Tb1103 N1104 2.660 . S
Tb1103 O1137 2.362 . S
Tb1103 O1138 2.421 . S
Tb1103 O1142 2.546 . S
Tb1103 O1143 2.610 . S
Tb1103 O1145 2.320 . S
Tb1103 O1146 2.552 . S
Tb1103 O1147 2.413 . S
Tb1103 C1167 2.833 . S
N1104 C1096 1.360 . S
N1104 Tb1103 2.660 . S
N1104 C1105 1.305 . S
C1105 N1104 1.305 . S
C1105 C1107 1.407 . S
C1105 H1112 0.930 . S
C1106 C1094 1.410 . S
C1106 C1107 1.345 . S
C1106 H1114 0.930 . S
C1107 C1105 1.407 . S
C1107 C1106 1.345 . S
C1107 H1109 0.930 . S
H1108 C1101 0.930 . S
H1109 C1107 0.930 . S
H1110 C1098 0.930 . S
H1111 C1099 0.931 . S
H1112 C1105 0.930 . S
H1113 C1127 0.930 . S
H1114 C1106 0.930 . S
H1115 C1133 0.930 . S
H1116 C1124 0.930 . S
H1117 C1131 0.931 . S
H1118 C1095 0.929 . S
H1119 C1125 0.930 . S
H1120 C1158 0.930 . S
H1121 C1102 0.930 . S
H1122 C1157 0.929 . S
N1123 Tb1092 2.660 . S
N1123 C1124 1.305 . S
N1123 C1128 1.360 . S
C1124 H1116 0.930 . S
C1124 N1123 1.305 . S
C1124 C1127 1.407 . S
C1125 H1119 0.930 . S
C1125 C1126 1.410 . S
C1125 C1127 1.345 . S
C1126 C1125 1.410 . S
C1126 C1128 1.417 . S
C1126 C1158 1.432 . S
C1127 H1113 0.930 . S
C1127 C1124 1.407 . S
C1127 C1125 1.345 . S
C1128 N1123 1.360 . S
C1128 C1126 1.417 . S
C1128 C1132 1.432 . S
H1129 C1134 0.930 . S
N1130 Tb1092 2.600 . S
N1130 C1132 1.359 . S
N1130 C1133 1.327 . S
C1131 H1117 0.931 . S
C1131 C1133 1.392 . S
C1131 C1134 1.370 . S
C1132 C1128 1.432 . S
C1132 N1130 1.359 . S
C1132 C1135 1.414 . S
C1133 H1115 0.930 . S
C1133 N1130 1.327 . S
C1133 C1131 1.392 . S
C1134 H1129 0.930 . S
C1134 C1131 1.370 . S
C1134 C1135 1.385 . S
C1135 C1132 1.414 . S
C1135 C1134 1.385 . S
C1135 C1157 1.444 . S
O1136 Tb1092 2.546 . S
O1136 C1156 1.251 . S
O1137 Tb1092 2.610 . S
O1137 Tb1103 2.362 . S
O1137 C1148 1.283 . S
O1138 Tb1103 2.421 . S
O1138 C1155 1.262 . S
O1139 Tb1092 2.320 . S
O1139 C1155 1.260 . S
O1140 Tb1092 2.552 . S
O1140 C1148 1.243 . S
O1141 Tb1092 2.413 . S
O1141 C1156 1.256 . S
O1142 Tb1103 2.546 . S
O1142 C1167 1.251 . S
O1143 Tb1092 2.362 . S
O1143 Tb1103 2.610 . S
O1143 C1159 1.283 . S
O1144 Tb1092 2.421 . S
O1144 C1166 1.262 . S
O1145 Tb1103 2.320 . S
O1145 C1166 1.260 . S
O1146 Tb1103 2.552 . S
O1146 C1159 1.243 . S
O1147 Tb1103 2.413 . S
O1147 C1167 1.256 . S
C1148 O1137 1.283 . S
C1148 O1140 1.243 . S
C1149 C1151 1.382 . S
C1149 C1153 1.393 . S
C1149 C1156 1.500 . S
C1150 C1151 1.400 . S
C1150 C1152 1.384 . S
C1151 C1149 1.382 . S
C1151 C1150 1.400 . S
C1151 H1168 0.930 . S
C1152 C1150 1.384 . S
C1152 C1154 1.392 . S
C1152 H1169 0.931 . S
C1153 C1149 1.393 . S
C1153 C1154 1.401 . S
C1153 H1170 0.930 . S
C1154 C1152 1.392 . S
C1154 C1153 1.401 . S
C1154 H1171 0.930 . S
C1155 O1138 1.262 . S
C1155 O1139 1.260 . S
C1156 Tb1092 2.833 . S
C1156 O1136 1.251 . S
C1156 O1141 1.256 . S
C1156 C1149 1.500 . S
C1157 H1122 0.929 . S
C1157 C1135 1.444 . S
C1157 C1158 1.317 . S
C1158 H1120 0.930 . S
C1158 C1126 1.432 . S
C1158 C1157 1.317 . S
C1159 O1143 1.283 . S
C1159 O1146 1.243 . S
C1160 C1161 1.382 . S
C1160 C1164 1.393 . S
C1160 C1167 1.500 . S
C1161 C1160 1.382 . S
C1161 C1162 1.400 . S
C1161 H1172 0.930 . S
C1162 C1161 1.400 . S
C1162 C1163 1.384 . S
C1163 C1162 1.384 . S
C1163 C1165 1.392 . S
C1163 H1173 0.931 . S
C1164 C1160 1.393 . S
C1164 C1165 1.401 . S
C1164 H1174 0.930 . S
C1165 C1163 1.392 . S
C1165 C1164 1.401 . S
C1165 H1175 0.930 . S
C1166 O1144 1.262 . S
C1166 O1145 1.260 . S
C1167 Tb1103 2.833 . S
C1167 O1142 1.251 . S
C1167 O1147 1.256 . S
C1167 C1160 1.500 . S
H1168 C1151 0.930 . S
H1169 C1152 0.931 . S
H1170 C1153 0.930 . S
H1171 C1154 0.930 . S
H1172 C1161 0.930 . S
H1173 C1163 0.931 . S
H1174 C1164 0.930 . S
H1175 C1165 0.930 . S
Tb1176 N1207 2.660 . S
Tb1176 N1214 2.600 . S
Tb1176 O1220 2.546 . S
Tb1176 O1221 2.610 . S
Tb1176 O1223 2.320 . S
Tb1176 O1224 2.552 . S
Tb1176 O1225 2.413 . S
Tb1176 O1227 2.362 . S
Tb1176 O1228 2.421 . S
Tb1176 C1240 2.833 . S
C1177 C1180 1.435 1_455 S
C1177 C1181 1.397 1_455 S
C1177 N1184 1.372 . S
C1178 C1180 1.417 . S
C1178 C1182 1.432 . S
C1178 C1190 1.410 . S
C1179 C1181 1.444 . S
C1179 C1182 1.317 . S
C1179 H1202 0.929 . S
C1180 C1177 1.435 1_655 S
C1180 C1178 1.417 . S
C1180 N1188 1.360 1_655 S
C1181 C1177 1.397 1_655 S
C1181 C1179 1.444 . S
C1181 C1186 1.385 . S
C1182 C1178 1.432 . S
C1182 C1179 1.317 . S
C1182 H1194 0.930 . S
C1183 C1185 1.392 . S
C1183 C1186 1.370 1_455 S
C1183 H1195 0.931 . S
N1184 C1177 1.372 . S
N1184 C1185 1.327 . S
N1184 Tb1187 2.600 . S
C1185 C1183 1.392 . S
C1185 N1184 1.327 . S
C1185 H1192 0.930 . S
C1186 C1181 1.385 . S
C1186 C1183 1.370 1_655 S
C1186 H1205 0.930 . S
Tb1187 N1184 2.600 . S
Tb1187 N1188 2.660 . S
Tb1187 O1221 2.362 . S
Tb1187 O1222 2.421 . S
Tb1187 O1226 2.546 . S
Tb1187 O1227 2.610 . S
Tb1187 O1229 2.320 . S
Tb1187 O1230 2.552 . S
Tb1187 O1231 2.413 . S
Tb1187 C1251 2.833 . S
N1188 C1180 1.360 1_455 S
N1188 Tb1187 2.660 . S
N1188 C1189 1.305 . S
C1189 N1188 1.305 . S
C1189 C1191 1.407 1_455 S
C1189 H1196 0.930 . S
C1190 C1178 1.410 . S
C1190 C1191 1.345 . S
C1190 H1198 0.930 . S
C1191 C1189 1.407 1_655 S
C1191 C1190 1.345 . S
C1191 H1193 0.930 . S
H1192 C1185 0.930 . S
H1193 C1191 0.930 . S
H1194 C1182 0.930 . S
H1195 C1183 0.931 . S
H1196 C1189 0.930 . S
H1197 C1211 0.930 . S
H1198 C1190 0.930 . S
H1199 C1217 0.930 . S
H1200 C1208 0.930 . S
H1201 C1215 0.931 . S
H1202 C1179 0.929 . S
H1203 C1209 0.930 . S
H1204 C1242 0.930 . S
H1205 C1186 0.930 . S
H1206 C1241 0.929 . S
N1207 Tb1176 2.660 . S
N1207 C1208 1.305 . S
N1207 C1212 1.360 . S
C1208 H1200 0.930 . S
C1208 N1207 1.305 . S
C1208 C1211 1.407 . S
C1209 H1203 0.930 . S
C1209 C1210 1.410 . S
C1209 C1211 1.345 . S
C1210 C1209 1.410 . S
C1210 C1212 1.417 . S
C1210 C1242 1.432 . S
C1211 H1197 0.930 . S
C1211 C1208 1.407 . S
C1211 C1209 1.345 . S
C1212 N1207 1.360 . S
C1212 C1210 1.417 . S
C1212 C1216 1.432 . S
H1213 C1218 0.930 . S
N1214 Tb1176 2.600 . S
N1214 C1216 1.359 . S
N1214 C1217 1.327 . S
C1215 H1201 0.931 . S
C1215 C1217 1.392 . S
C1215 C1218 1.370 . S
C1216 C1212 1.432 . S
C1216 N1214 1.359 . S
C1216 C1219 1.414 . S
C1217 H1199 0.930 . S
C1217 N1214 1.327 . S
C1217 C1215 1.392 . S
C1218 H1213 0.930 . S
C1218 C1215 1.370 . S
C1218 C1219 1.385 . S
C1219 C1216 1.414 . S
C1219 C1218 1.385 . S
C1219 C1241 1.444 . S
O1220 Tb1176 2.546 . S
O1220 C1240 1.251 . S
O1221 Tb1176 2.610 . S
O1221 Tb1187 2.362 . S
O1221 C1232 1.283 . S
O1222 Tb1187 2.421 . S
O1222 C1239 1.262 . S
O1223 Tb1176 2.320 . S
O1223 C1239 1.260 . S
O1224 Tb1176 2.552 . S
O1224 C1232 1.243 . S
O1225 Tb1176 2.413 . S
O1225 C1240 1.256 . S
O1226 Tb1187 2.546 . S
O1226 C1251 1.251 . S
O1227 Tb1176 2.362 . S
O1227 Tb1187 2.610 . S
O1227 C1243 1.283 . S
O1228 Tb1176 2.421 . S
O1228 C1250 1.262 . S
O1229 Tb1187 2.320 . S
O1229 C1250 1.260 . S
O1230 Tb1187 2.552 . S
O1230 C1243 1.243 . S
O1231 Tb1187 2.413 . S
O1231 C1251 1.256 . S
C1232 O1221 1.283 . S
C1232 O1224 1.243 . S
C1233 C1235 1.382 . S
C1233 C1237 1.393 . S
C1233 C1240 1.500 . S
C1234 C1235 1.400 . S
C1234 C1236 1.384 . S
C1235 C1233 1.382 . S
C1235 C1234 1.400 . S
C1235 H1252 0.930 . S
C1236 C1234 1.384 . S
C1236 C1238 1.392 . S
C1236 H1253 0.931 . S
C1237 C1233 1.393 . S
C1237 C1238 1.401 . S
C1237 H1254 0.930 . S
C1238 C1236 1.392 . S
C1238 C1237 1.401 . S
C1238 H1255 0.930 . S
C1239 O1222 1.262 . S
C1239 O1223 1.260 . S
C1240 Tb1176 2.833 . S
C1240 O1220 1.251 . S
C1240 O1225 1.256 . S
C1240 C1233 1.500 . S
C1241 H1206 0.929 . S
C1241 C1219 1.444 . S
C1241 C1242 1.317 . S
C1242 H1204 0.930 . S
C1242 C1210 1.432 . S
C1242 C1241 1.317 . S
C1243 O1227 1.283 . S
C1243 O1230 1.243 . S
C1244 C1245 1.382 . S
C1244 C1248 1.393 . S
C1244 C1251 1.500 . S
C1245 C1244 1.382 . S
C1245 C1246 1.400 . S
C1245 H1256 0.930 . S
C1246 C1245 1.400 . S
C1246 C1247 1.384 . S
C1247 C1246 1.384 . S
C1247 C1249 1.392 . S
C1247 H1257 0.931 . S
C1248 C1244 1.393 . S
C1248 C1249 1.401 . S
C1248 H1258 0.930 . S
C1249 C1247 1.392 . S
C1249 C1248 1.401 . S
C1249 H1259 0.930 . S
C1250 O1228 1.262 . S
C1250 O1229 1.260 . S
C1251 Tb1187 2.833 . S
C1251 O1226 1.251 . S
C1251 O1231 1.256 . S
C1251 C1244 1.500 . S
H1252 C1235 0.930 . S
H1253 C1236 0.931 . S
H1254 C1237 0.930 . S
H1255 C1238 0.930 . S
H1256 C1245 0.930 . S
H1257 C1247 0.931 . S
H1258 C1248 0.930 . S
H1259 C1249 0.930 . S
Tb1260 N1291 2.660 . S
Tb1260 N1298 2.600 . S
Tb1260 O1304 2.546 . S
Tb1260 O1305 2.610 . S
Tb1260 O1307 2.320 . S
Tb1260 O1308 2.552 . S
Tb1260 O1309 2.413 . S
Tb1260 O1311 2.362 . S
Tb1260 O1312 2.421 . S
Tb1260 C1324 2.833 . S
C1261 C1264 1.432 . S
C1261 C1265 1.414 . S
C1261 N1268 1.359 . S
C1262 C1264 1.417 . S
C1262 C1266 1.432 . S
C1262 C1274 1.410 . S
C1263 C1265 1.444 . S
C1263 C1266 1.317 . S
C1263 H1286 0.929 . S
C1264 C1261 1.432 . S
C1264 C1262 1.417 . S
C1264 N1272 1.360 . S
C1265 C1261 1.414 . S
C1265 C1263 1.444 . S
C1265 C1270 1.385 . S
C1266 C1262 1.432 . S
C1266 C1263 1.317 . S
C1266 H1278 0.930 . S
C1267 C1269 1.392 . S
C1267 C1270 1.370 . S
C1267 H1279 0.931 . S
N1268 C1261 1.359 . S
N1268 C1269 1.327 . S
N1268 Tb1271 2.600 . S
C1269 C1267 1.392 . S
C1269 N1268 1.327 . S
C1269 H1276 0.930 . S
C1270 C1265 1.385 . S
C1270 C1267 1.370 . S
C1270 H1289 0.930 . S
Tb1271 N1268 2.600 . S
Tb1271 N1272 2.660 . S
Tb1271 O1305 2.362 . S
Tb1271 O1306 2.421 . S
Tb1271 O1310 2.546 . S
Tb1271 O1311 2.610 . S
Tb1271 O1313 2.320 . S
Tb1271 O1314 2.552 . S
Tb1271 O1315 2.413 . S
Tb1271 C1335 2.833 . S
N1272 C1264 1.360 . S
N1272 Tb1271 2.660 . S
N1272 C1273 1.305 . S
C1273 N1272 1.305 . S
C1273 C1275 1.407 . S
C1273 H1280 0.930 . S
C1274 C1262 1.410 . S
C1274 C1275 1.345 . S
C1274 H1282 0.930 . S
C1275 C1273 1.407 . S
C1275 C1274 1.345 . S
C1275 H1277 0.930 . S
H1276 C1269 0.930 . S
H1277 C1275 0.930 . S
H1278 C1266 0.930 . S
H1279 C1267 0.931 . S
H1280 C1273 0.930 . S
H1281 C1295 0.930 . S
H1282 C1274 0.930 . S
H1283 C1301 0.930 . S
H1284 C1292 0.930 . S
H1285 C1299 0.931 . S
H1286 C1263 0.929 . S
H1287 C1293 0.930 . S
H1288 C1326 0.930 . S
H1289 C1270 0.930 . S
H1290 C1325 0.929 . S
N1291 Tb1260 2.660 . S
N1291 C1292 1.305 . S
N1291 C1296 1.360 . S
C1292 H1284 0.930 . S
C1292 N1291 1.305 . S
C1292 C1295 1.407 . S
C1293 H1287 0.930 . S
C1293 C1294 1.410 . S
C1293 C1295 1.345 . S
C1294 C1293 1.410 . S
C1294 C1296 1.417 . S
C1294 C1326 1.432 . S
C1295 H1281 0.930 . S
C1295 C1292 1.407 . S
C1295 C1293 1.345 . S
C1296 N1291 1.360 . S
C1296 C1294 1.417 . S
C1296 C1300 1.432 . S
H1297 C1302 0.930 . S
N1298 Tb1260 2.600 . S
N1298 C1300 1.359 . S
N1298 C1301 1.327 . S
C1299 H1285 0.931 . S
C1299 C1301 1.392 . S
C1299 C1302 1.370 . S
C1300 C1296 1.432 . S
C1300 N1298 1.359 . S
C1300 C1303 1.414 . S
C1301 H1283 0.930 . S
C1301 N1298 1.327 . S
C1301 C1299 1.392 . S
C1302 H1297 0.930 . S
C1302 C1299 1.370 . S
C1302 C1303 1.385 . S
C1303 C1300 1.414 . S
C1303 C1302 1.385 . S
C1303 C1325 1.444 . S
O1304 Tb1260 2.546 . S
O1304 C1324 1.251 . S
O1305 Tb1260 2.610 . S
O1305 Tb1271 2.362 . S
O1305 C1316 1.283 . S
O1306 Tb1271 2.421 . S
O1306 C1323 1.262 . S
O1307 Tb1260 2.320 . S
O1307 C1323 1.260 . S
O1308 Tb1260 2.552 . S
O1308 C1316 1.243 . S
O1309 Tb1260 2.413 . S
O1309 C1324 1.256 . S
O1310 Tb1271 2.546 . S
O1310 C1335 1.251 . S
O1311 Tb1260 2.362 . S
O1311 Tb1271 2.610 . S
O1311 C1327 1.283 . S
O1312 Tb1260 2.421 . S
O1312 C1334 1.262 . S
O1313 Tb1271 2.320 . S
O1313 C1334 1.260 . S
O1314 Tb1271 2.552 . S
O1314 C1327 1.243 . S
O1315 Tb1271 2.413 . S
O1315 C1335 1.256 . S
C1316 O1305 1.283 . S
C1316 O1308 1.243 . S
C1317 C1319 1.382 . S
C1317 C1321 1.393 . S
C1317 C1324 1.500 . S
C1318 C1319 1.400 . S
C1318 C1320 1.384 . S
C1319 C1317 1.382 . S
C1319 C1318 1.400 . S
C1319 H1336 0.930 . S
C1320 C1318 1.384 . S
C1320 C1322 1.392 . S
C1320 H1337 0.931 . S
C1321 C1317 1.393 . S
C1321 C1322 1.401 . S
C1321 H1338 0.930 . S
C1322 C1320 1.392 . S
C1322 C1321 1.401 . S
C1322 H1339 0.930 . S
C1323 O1306 1.262 . S
C1323 O1307 1.260 . S
C1324 Tb1260 2.833 . S
C1324 O1304 1.251 . S
C1324 O1309 1.256 . S
C1324 C1317 1.500 . S
C1325 H1290 0.929 . S
C1325 C1303 1.444 . S
C1325 C1326 1.317 . S
C1326 H1288 0.930 . S
C1326 C1294 1.432 . S
C1326 C1325 1.317 . S
C1327 O1311 1.283 . S
C1327 O1314 1.243 . S
C1328 C1329 1.382 . S
C1328 C1332 1.393 . S
C1328 C1335 1.500 . S
C1329 C1328 1.382 . S
C1329 C1330 1.400 . S
C1329 H1340 0.930 . S
C1330 C1329 1.400 . S
C1330 C1331 1.384 . S
C1331 C1330 1.384 . S
C1331 C1333 1.392 . S
C1331 H1341 0.931 . S
C1332 C1328 1.393 . S
C1332 C1333 1.401 . S
C1332 H1342 0.930 . S
C1333 C1331 1.392 . S
C1333 C1332 1.401 . S
C1333 H1343 0.930 . S
C1334 O1312 1.262 . S
C1334 O1313 1.260 . S
C1335 Tb1271 2.833 . S
C1335 O1310 1.251 . S
C1335 O1315 1.256 . S
C1335 C1328 1.500 . S
H1336 C1319 0.930 . S
H1337 C1320 0.931 . S
H1338 C1321 0.930 . S
H1339 C1322 0.930 . S
H1340 C1329 0.930 . S
H1341 C1331 0.931 . S
H1342 C1332 0.930 . S
H1343 C1333 0.930 . S
Tb1344 N1375 2.660 . S
Tb1344 N1382 2.600 . S
Tb1344 O1388 2.546 . S
Tb1344 O1389 2.610 . S
Tb1344 O1391 2.320 . S
Tb1344 O1392 2.552 . S
Tb1344 O1393 2.413 . S
Tb1344 O1395 2.362 . S
Tb1344 O1396 2.421 . S
Tb1344 C1408 2.833 . S
C1345 C1348 1.432 . S
C1345 C1349 1.414 . S
C1345 N1352 1.359 . S
C1346 C1348 1.417 . S
C1346 C1350 1.432 . S
C1346 C1358 1.410 . S
C1347 C1349 1.444 . S
C1347 C1350 1.317 . S
C1347 H1370 0.929 . S
C1348 C1345 1.432 . S
C1348 C1346 1.417 . S
C1348 N1356 1.360 . S
C1349 C1345 1.414 . S
C1349 C1347 1.444 . S
C1349 C1354 1.385 . S
C1350 C1346 1.432 . S
C1350 C1347 1.317 . S
C1350 H1362 0.930 . S
C1351 C1353 1.392 . S
C1351 C1354 1.370 . S
C1351 H1363 0.931 . S
N1352 C1345 1.359 . S
N1352 C1353 1.327 . S
N1352 Tb1355 2.600 . S
C1353 C1351 1.392 . S
C1353 N1352 1.327 . S
C1353 H1360 0.930 . S
C1354 C1349 1.385 . S
C1354 C1351 1.370 . S
C1354 H1373 0.930 . S
Tb1355 N1352 2.600 . S
Tb1355 N1356 2.660 . S
Tb1355 O1389 2.362 . S
Tb1355 O1390 2.421 . S
Tb1355 O1394 2.546 . S
Tb1355 O1395 2.610 . S
Tb1355 O1397 2.320 . S
Tb1355 O1398 2.552 . S
Tb1355 O1399 2.413 . S
Tb1355 C1419 2.833 . S
N1356 C1348 1.360 . S
N1356 Tb1355 2.660 . S
N1356 C1357 1.305 . S
C1357 N1356 1.305 . S
C1357 C1359 1.407 . S
C1357 H1364 0.930 . S
C1358 C1346 1.410 . S
C1358 C1359 1.345 . S
C1358 H1366 0.930 . S
C1359 C1357 1.407 . S
C1359 C1358 1.345 . S
C1359 H1361 0.930 . S
H1360 C1353 0.930 . S
H1361 C1359 0.930 . S
H1362 C1350 0.930 . S
H1363 C1351 0.931 . S
H1364 C1357 0.930 . S
H1365 C1379 0.930 . S
H1366 C1358 0.930 . S
H1367 C1385 0.930 . S
H1368 C1376 0.930 . S
H1369 C1383 0.931 . S
H1370 C1347 0.929 . S
H1371 C1377 0.930 . S
H1372 C1410 0.930 . S
H1373 C1354 0.930 . S
H1374 C1409 0.929 . S
N1375 Tb1344 2.660 . S
N1375 C1376 1.305 . S
N1375 C1380 1.360 . S
C1376 H1368 0.930 . S
C1376 N1375 1.305 . S
C1376 C1379 1.407 . S
C1377 H1371 0.930 . S
C1377 C1378 1.410 . S
C1377 C1379 1.345 . S
C1378 C1377 1.410 . S
C1378 C1380 1.417 . S
C1378 C1410 1.432 . S
C1379 H1365 0.930 . S
C1379 C1376 1.407 . S
C1379 C1377 1.345 . S
C1380 N1375 1.360 . S
C1380 C1378 1.417 . S
C1380 C1384 1.432 . S
H1381 C1386 0.930 . S
N1382 Tb1344 2.600 . S
N1382 C1384 1.359 . S
N1382 C1385 1.327 . S
C1383 H1369 0.931 . S
C1383 C1385 1.392 . S
C1383 C1386 1.370 . S
C1384 C1380 1.432 . S
C1384 N1382 1.359 . S
C1384 C1387 1.414 . S
C1385 H1367 0.930 . S
C1385 N1382 1.327 . S
C1385 C1383 1.392 . S
C1386 H1381 0.930 . S
C1386 C1383 1.370 . S
C1386 C1387 1.385 . S
C1387 C1384 1.414 . S
C1387 C1386 1.385 . S
C1387 C1409 1.444 . S
O1388 Tb1344 2.546 . S
O1388 C1408 1.251 . S
O1389 Tb1344 2.610 . S
O1389 Tb1355 2.362 . S
O1389 C1400 1.283 . S
O1390 Tb1355 2.421 . S
O1390 C1407 1.262 . S
O1391 Tb1344 2.320 . S
O1391 C1407 1.260 . S
O1392 Tb1344 2.552 . S
O1392 C1400 1.243 . S
O1393 Tb1344 2.413 . S
O1393 C1408 1.256 . S
O1394 Tb1355 2.546 . S
O1394 C1419 1.251 . S
O1395 Tb1344 2.362 . S
O1395 Tb1355 2.610 . S
O1395 C1411 1.283 . S
O1396 Tb1344 2.421 . S
O1396 C1418 1.262 . S
O1397 Tb1355 2.320 . S
O1397 C1418 1.260 . S
O1398 Tb1355 2.552 . S
O1398 C1411 1.243 . S
O1399 Tb1355 2.413 . S
O1399 C1419 1.256 . S
C1400 O1389 1.283 . S
C1400 O1392 1.243 . S
C1401 C1403 1.382 . S
C1401 C1405 1.393 . S
C1401 C1408 1.500 . S
C1402 C1403 1.400 . S
C1402 C1404 1.384 . S
C1403 C1401 1.382 . S
C1403 C1402 1.400 . S
C1403 H1420 0.930 . S
C1404 C1402 1.384 . S
C1404 C1406 1.392 . S
C1404 H1421 0.931 . S
C1405 C1401 1.393 . S
C1405 C1406 1.401 . S
C1405 H1422 0.930 . S
C1406 C1404 1.392 . S
C1406 C1405 1.401 . S
C1406 H1423 0.930 . S
C1407 O1390 1.262 . S
C1407 O1391 1.260 . S
C1408 Tb1344 2.833 . S
C1408 O1388 1.251 . S
C1408 O1393 1.256 . S
C1408 C1401 1.500 . S
C1409 H1374 0.929 . S
C1409 C1387 1.444 . S
C1409 C1410 1.317 . S
C1410 H1372 0.930 . S
C1410 C1378 1.432 . S
C1410 C1409 1.317 . S
C1411 O1395 1.283 . S
C1411 O1398 1.243 . S
C1412 C1413 1.382 . S
C1412 C1416 1.393 . S
C1412 C1419 1.500 . S
C1413 C1412 1.382 . S
C1413 C1414 1.400 . S
C1413 H1424 0.930 . S
C1414 C1413 1.400 . S
C1414 C1415 1.384 . S
C1415 C1414 1.384 . S
C1415 C1417 1.392 . S
C1415 H1425 0.931 . S
C1416 C1412 1.393 . S
C1416 C1417 1.401 . S
C1416 H1426 0.930 . S
C1417 C1415 1.392 . S
C1417 C1416 1.401 . S
C1417 H1427 0.930 . S
C1418 O1396 1.262 . S
C1418 O1397 1.260 . S
C1419 Tb1355 2.833 . S
C1419 O1394 1.251 . S
C1419 O1399 1.256 . S
C1419 C1412 1.500 . S
H1420 C1403 0.930 . S
H1421 C1404 0.931 . S
H1422 C1405 0.930 . S
H1423 C1406 0.930 . S
H1424 C1413 0.930 . S
H1425 C1415 0.931 . S
H1426 C1416 0.930 . S
H1427 C1417 0.930 . S
Tb1428 N1459 2.660 . S
Tb1428 N1466 2.600 . S
Tb1428 O1472 2.546 . S
Tb1428 O1473 2.610 . S
Tb1428 O1475 2.320 . S
Tb1428 O1476 2.552 . S
Tb1428 O1477 2.413 . S
Tb1428 O1479 2.362 . S
Tb1428 O1480 2.421 . S
Tb1428 C1492 2.833 . S
C1429 C1432 1.432 . S
C1429 C1433 1.414 . S
C1429 N1436 1.359 . S
C1430 C1432 1.417 . S
C1430 C1434 1.432 . S
C1430 C1442 1.410 . S
C1431 C1433 1.444 . S
C1431 C1434 1.317 . S
C1431 H1454 0.929 . S
C1432 C1429 1.432 . S
C1432 C1430 1.417 . S
C1432 N1440 1.360 . S
C1433 C1429 1.414 . S
C1433 C1431 1.444 . S
C1433 C1438 1.385 . S
C1434 C1430 1.432 . S
C1434 C1431 1.317 . S
C1434 H1446 0.930 . S
C1435 C1437 1.392 . S
C1435 C1438 1.370 . S
C1435 H1447 0.931 . S
N1436 C1429 1.359 . S
N1436 C1437 1.327 . S
N1436 Tb1439 2.600 . S
C1437 C1435 1.392 . S
C1437 N1436 1.327 . S
C1437 H1444 0.930 . S
C1438 C1433 1.385 . S
C1438 C1435 1.370 . S
C1438 H1457 0.930 . S
Tb1439 N1436 2.600 . S
Tb1439 N1440 2.660 . S
Tb1439 O1473 2.362 . S
Tb1439 O1474 2.421 . S
Tb1439 O1478 2.546 . S
Tb1439 O1479 2.610 . S
Tb1439 O1481 2.320 . S
Tb1439 O1482 2.552 . S
Tb1439 O1483 2.413 . S
Tb1439 C1503 2.833 . S
N1440 C1432 1.360 . S
N1440 Tb1439 2.660 . S
N1440 C1441 1.305 . S
C1441 N1440 1.305 . S
C1441 C1443 1.407 . S
C1441 H1448 0.930 . S
C1442 C1430 1.410 . S
C1442 C1443 1.345 . S
C1442 H1450 0.930 . S
C1443 C1441 1.407 . S
C1443 C1442 1.345 . S
C1443 H1445 0.930 . S
H1444 C1437 0.930 . S
H1445 C1443 0.930 . S
H1446 C1434 0.930 . S
H1447 C1435 0.931 . S
H1448 C1441 0.930 . S
H1449 C1463 0.930 . S
H1450 C1442 0.930 . S
H1451 C1469 0.930 . S
H1452 C1460 0.930 . S
H1453 C1467 0.931 . S
H1454 C1431 0.929 . S
H1455 C1461 0.930 . S
H1456 C1494 0.930 . S
H1457 C1438 0.930 . S
H1458 C1493 0.929 . S
N1459 Tb1428 2.660 . S
N1459 C1460 1.305 . S
N1459 C1464 1.360 . S
C1460 H1452 0.930 . S
C1460 N1459 1.305 . S
C1460 C1463 1.407 . S
C1461 H1455 0.930 . S
C1461 C1462 1.410 . S
C1461 C1463 1.345 . S
C1462 C1461 1.410 . S
C1462 C1464 1.417 . S
C1462 C1494 1.432 . S
C1463 H1449 0.930 . S
C1463 C1460 1.407 . S
C1463 C1461 1.345 . S
C1464 N1459 1.360 . S
C1464 C1462 1.417 . S
C1464 C1468 1.432 . S
H1465 C1470 0.930 . S
N1466 Tb1428 2.600 . S
N1466 C1468 1.359 . S
N1466 C1469 1.327 . S
C1467 H1453 0.931 . S
C1467 C1469 1.392 . S
C1467 C1470 1.370 . S
C1468 C1464 1.432 . S
C1468 N1466 1.359 . S
C1468 C1471 1.414 . S
C1469 H1451 0.930 . S
C1469 N1466 1.327 . S
C1469 C1467 1.392 . S
C1470 H1465 0.930 . S
C1470 C1467 1.370 . S
C1470 C1471 1.385 . S
C1471 C1468 1.414 . S
C1471 C1470 1.385 . S
C1471 C1493 1.444 . S
O1472 Tb1428 2.546 . S
O1472 C1492 1.251 . S
O1473 Tb1428 2.610 . S
O1473 Tb1439 2.362 . S
O1473 C1484 1.283 . S
O1474 Tb1439 2.421 . S
O1474 C1491 1.262 . S
O1475 Tb1428 2.320 . S
O1475 C1491 1.260 . S
O1476 Tb1428 2.552 . S
O1476 C1484 1.243 . S
O1477 Tb1428 2.413 . S
O1477 C1492 1.256 . S
O1478 Tb1439 2.546 . S
O1478 C1503 1.251 . S
O1479 Tb1428 2.362 . S
O1479 Tb1439 2.610 . S
O1479 C1495 1.283 . S
O1480 Tb1428 2.421 . S
O1480 C1502 1.262 . S
O1481 Tb1439 2.320 . S
O1481 C1502 1.260 . S
O1482 Tb1439 2.552 . S
O1482 C1495 1.243 . S
O1483 Tb1439 2.413 . S
O1483 C1503 1.256 . S
C1484 O1473 1.283 . S
C1484 O1476 1.243 . S
C1485 C1487 1.382 . S
C1485 C1489 1.393 . S
C1485 C1492 1.500 . S
C1486 C1487 1.400 . S
C1486 C1488 1.384 . S
C1487 C1485 1.382 . S
C1487 C1486 1.400 . S
C1487 H1504 0.930 . S
C1488 C1486 1.384 . S
C1488 C1490 1.392 . S
C1488 H1505 0.931 . S
C1489 C1485 1.393 . S
C1489 C1490 1.401 . S
C1489 H1506 0.930 . S
C1490 C1488 1.392 . S
C1490 C1489 1.401 . S
C1490 H1507 0.930 . S
C1491 O1474 1.262 . S
C1491 O1475 1.260 . S
C1492 Tb1428 2.833 . S
C1492 O1472 1.251 . S
C1492 O1477 1.256 . S
C1492 C1485 1.500 . S
C1493 H1458 0.929 . S
C1493 C1471 1.444 . S
C1493 C1494 1.317 . S
C1494 H1456 0.930 . S
C1494 C1462 1.432 . S
C1494 C1493 1.317 . S
C1495 O1479 1.283 . S
C1495 O1482 1.243 . S
C1496 C1497 1.382 . S
C1496 C1500 1.393 . S
C1496 C1503 1.500 . S
C1497 C1496 1.382 . S
C1497 C1498 1.400 . S
C1497 H1508 0.930 . S
C1498 C1497 1.400 . S
C1498 C1499 1.384 . S
C1499 C1498 1.384 . S
C1499 C1501 1.392 . S
C1499 H1509 0.931 . S
C1500 C1496 1.393 . S
C1500 C1501 1.401 . S
C1500 H1510 0.930 . S
C1501 C1499 1.392 . S
C1501 C1500 1.401 . S
C1501 H1511 0.930 . S
C1502 O1480 1.262 . S
C1502 O1481 1.260 . S
C1503 Tb1439 2.833 . S
C1503 O1478 1.251 . S
C1503 O1483 1.256 . S
C1503 C1496 1.500 . S
H1504 C1487 0.930 . S
H1505 C1488 0.931 . S
H1506 C1489 0.930 . S
H1507 C1490 0.930 . S
H1508 C1497 0.930 . S
H1509 C1499 0.931 . S
H1510 C1500 0.930 . S
H1511 C1501 0.930 . S
Tb1512 N1543 2.660 . S
Tb1512 N1550 2.600 . S
Tb1512 O1556 2.546 . S
Tb1512 O1557 2.610 . S
Tb1512 O1559 2.320 . S
Tb1512 O1560 2.552 . S
Tb1512 O1561 2.413 . S
Tb1512 O1563 2.362 . S
Tb1512 O1564 2.421 . S
Tb1512 C1576 2.833 . S
C1513 C1516 1.432 . S
C1513 C1517 1.414 . S
C1513 N1520 1.359 . S
C1514 C1516 1.417 . S
C1514 C1518 1.432 . S
C1514 C1526 1.410 . S
C1515 C1517 1.444 . S
C1515 C1518 1.317 . S
C1515 H1538 0.929 . S
C1516 C1513 1.432 . S
C1516 C1514 1.417 . S
C1516 N1524 1.360 . S
C1517 C1513 1.414 . S
C1517 C1515 1.444 . S
C1517 C1522 1.385 . S
C1518 C1514 1.432 . S
C1518 C1515 1.317 . S
C1518 H1530 0.930 . S
C1519 C1521 1.392 . S
C1519 C1522 1.370 . S
C1519 H1531 0.931 . S
N1520 C1513 1.359 . S
N1520 C1521 1.327 . S
N1520 Tb1523 2.600 . S
C1521 C1519 1.392 . S
C1521 N1520 1.327 . S
C1521 H1528 0.930 . S
C1522 C1517 1.385 . S
C1522 C1519 1.370 . S
C1522 H1541 0.930 . S
Tb1523 N1520 2.600 . S
Tb1523 N1524 2.660 . S
Tb1523 O1557 2.362 . S
Tb1523 O1558 2.421 . S
Tb1523 O1562 2.546 . S
Tb1523 O1563 2.610 . S
Tb1523 O1565 2.320 . S
Tb1523 O1566 2.552 . S
Tb1523 O1567 2.413 . S
Tb1523 C1587 2.833 . S
N1524 C1516 1.360 . S
N1524 Tb1523 2.660 . S
N1524 C1525 1.305 . S
C1525 N1524 1.305 . S
C1525 C1527 1.407 . S
C1525 H1532 0.930 . S
C1526 C1514 1.410 . S
C1526 C1527 1.345 . S
C1526 H1534 0.930 . S
C1527 C1525 1.407 . S
C1527 C1526 1.345 . S
C1527 H1529 0.930 . S
H1528 C1521 0.930 . S
H1529 C1527 0.930 . S
H1530 C1518 0.930 . S
H1531 C1519 0.931 . S
H1532 C1525 0.930 . S
H1533 C1547 0.930 . S
H1534 C1526 0.930 . S
H1535 C1553 0.930 . S
H1536 C1544 0.930 . S
H1537 C1551 0.931 . S
H1538 C1515 0.929 . S
H1539 C1545 0.930 . S
H1540 C1578 0.930 . S
H1541 C1522 0.930 . S
H1542 C1577 0.929 . S
N1543 Tb1512 2.660 . S
N1543 C1544 1.305 . S
N1543 C1548 1.360 . S
C1544 H1536 0.930 . S
C1544 N1543 1.305 . S
C1544 C1547 1.407 . S
C1545 H1539 0.930 . S
C1545 C1546 1.410 . S
C1545 C1547 1.345 . S
C1546 C1545 1.410 . S
C1546 C1548 1.417 . S
C1546 C1578 1.432 . S
C1547 H1533 0.930 . S
C1547 C1544 1.407 . S
C1547 C1545 1.345 . S
C1548 N1543 1.360 . S
C1548 C1546 1.417 . S
C1548 C1552 1.432 . S
H1549 C1554 0.930 . S
N1550 Tb1512 2.600 . S
N1550 C1552 1.359 . S
N1550 C1553 1.327 . S
C1551 H1537 0.931 . S
C1551 C1553 1.392 . S
C1551 C1554 1.370 . S
C1552 C1548 1.432 . S
C1552 N1550 1.359 . S
C1552 C1555 1.414 . S
C1553 H1535 0.930 . S
C1553 N1550 1.327 . S
C1553 C1551 1.392 . S
C1554 H1549 0.930 . S
C1554 C1551 1.370 . S
C1554 C1555 1.385 . S
C1555 C1552 1.414 . S
C1555 C1554 1.385 . S
C1555 C1577 1.444 . S
O1556 Tb1512 2.546 . S
O1556 C1576 1.251 . S
O1557 Tb1512 2.610 . S
O1557 Tb1523 2.362 . S
O1557 C1568 1.283 . S
O1558 Tb1523 2.421 . S
O1558 C1575 1.262 . S
O1559 Tb1512 2.320 . S
O1559 C1575 1.260 . S
O1560 Tb1512 2.552 . S
O1560 C1568 1.243 . S
O1561 Tb1512 2.413 . S
O1561 C1576 1.256 . S
O1562 Tb1523 2.546 . S
O1562 C1587 1.251 . S
O1563 Tb1512 2.362 . S
O1563 Tb1523 2.610 . S
O1563 C1579 1.283 . S
O1564 Tb1512 2.421 . S
O1564 C1586 1.262 . S
O1565 Tb1523 2.320 . S
O1565 C1586 1.260 . S
O1566 Tb1523 2.552 . S
O1566 C1579 1.243 . S
O1567 Tb1523 2.413 . S
O1567 C1587 1.256 . S
C1568 O1557 1.283 . S
C1568 O1560 1.243 . S
C1569 C1571 1.382 . S
C1569 C1573 1.393 . S
C1569 C1576 1.500 . S
C1570 C1571 1.400 . S
C1570 C1572 1.384 . S
C1571 C1569 1.382 . S
C1571 C1570 1.400 . S
C1571 H1588 0.930 . S
C1572 C1570 1.384 . S
C1572 C1574 1.392 . S
C1572 H1589 0.931 . S
C1573 C1569 1.393 . S
C1573 C1574 1.401 . S
C1573 H1590 0.930 . S
C1574 C1572 1.392 . S
C1574 C1573 1.401 . S
C1574 H1591 0.930 . S
C1575 O1558 1.262 . S
C1575 O1559 1.260 . S
C1576 Tb1512 2.833 . S
C1576 O1556 1.251 . S
C1576 O1561 1.256 . S
C1576 C1569 1.500 . S
C1577 H1542 0.929 . S
C1577 C1555 1.444 . S
C1577 C1578 1.317 . S
C1578 H1540 0.930 . S
C1578 C1546 1.432 . S
C1578 C1577 1.317 . S
C1579 O1563 1.283 . S
C1579 O1566 1.243 . S
C1580 C1581 1.382 . S
C1580 C1584 1.393 . S
C1580 C1587 1.500 . S
C1581 C1580 1.382 . S
C1581 C1582 1.400 . S
C1581 H1592 0.930 . S
C1582 C1581 1.400 . S
C1582 C1583 1.384 . S
C1583 C1582 1.384 . S
C1583 C1585 1.392 . S
C1583 H1593 0.931 . S
C1584 C1580 1.393 . S
C1584 C1585 1.401 . S
C1584 H1594 0.930 . S
C1585 C1583 1.392 . S
C1585 C1584 1.401 . S
C1585 H1595 0.930 . S
C1586 O1564 1.262 . S
C1586 O1565 1.260 . S
C1587 Tb1523 2.833 . S
C1587 O1562 1.251 . S
C1587 O1567 1.256 . S
C1587 C1580 1.500 . S
H1588 C1571 0.930 . S
H1589 C1572 0.931 . S
H1590 C1573 0.930 . S
H1591 C1574 0.930 . S
H1592 C1581 0.930 . S
H1593 C1583 0.931 . S
H1594 C1584 0.930 . S
H1595 C1585 0.930 . S
Tb1596 N1627 2.660 . S
Tb1596 N1634 2.600 1_554 S
Tb1596 O1640 2.546 1_554 S
Tb1596 O1641 2.610 . S
Tb1596 O1643 2.320 . S
Tb1596 O1644 2.552 . S
Tb1596 O1645 2.413 . S
Tb1596 O1647 2.362 . S
Tb1596 O1648 2.421 1_554 S
Tb1596 C1660 2.833 1_554 S
C1597 C1600 1.432 . S
C1597 C1601 1.414 . S
C1597 N1604 1.359 1_655 S
C1598 C1600 1.417 . S
C1598 C1602 1.432 . S
C1598 C1610 1.410 1_554 S
C1599 C1601 1.444 . S
C1599 C1602 1.317 . S
C1599 H1622 0.929 . S
C1600 C1597 1.432 . S
C1600 C1598 1.417 . S
C1600 N1608 1.373 . S
C1601 C1597 1.414 . S
C1601 C1599 1.444 . S
C1601 C1606 1.385 . S
C1602 C1598 1.432 . S
C1602 C1599 1.317 . S
C1602 H1614 0.930 . S
C1603 C1605 1.412 . S
C1603 C1606 1.351 1_455 S
C1603 H1615 0.933 . S
N1604 C1597 1.359 1_455 S
N1604 C1605 1.327 . S
N1604 Tb1607 2.600 . S
C1605 C1603 1.412 . S
C1605 N1604 1.327 . S
C1605 H1612 0.930 . S
C1606 C1601 1.385 . S
C1606 C1603 1.351 1_655 S
C1606 H1625 0.930 . S
Tb1607 N1604 2.600 . S
Tb1607 N1608 2.646 1_455 S
Tb1607 O1641 2.362 . S
Tb1607 O1642 2.421 . S
Tb1607 O1646 2.546 . S
Tb1607 O1647 2.610 . S
Tb1607 O1649 2.320 1_554 S
Tb1607 O1650 2.552 . S
Tb1607 O1651 2.413 1_455 S
Tb1607 C1671 2.833 1_455 S
N1608 C1600 1.373 . S
N1608 Tb1607 2.646 1_655 S
N1608 C1609 1.306 1_554 S
C1609 N1608 1.306 1_556 S
C1609 C1611 1.407 . S
C1609 H1616 0.930 1_655 S
C1610 C1598 1.410 1_556 S
C1610 C1611 1.345 . S
C1610 H1618 0.930 . S
C1611 C1609 1.407 . S
C1611 C1610 1.345 . S
C1611 H1613 0.930 . S
H1612 C1605 0.930 . S
H1613 C1611 0.930 . S
H1614 C1602 0.930 . S
H1615 C1603 0.933 . S
H1616 C1609 0.930 1_455 S
H1617 C1631 0.930 . S
H1618 C1610 0.930 . S
H1619 C1637 0.930 . S
H1620 C1628 0.930 . S
H1621 C1635 0.931 . S
H1622 C1599 0.929 . S
H1623 C1629 0.930 . S
H1624 C1662 0.930 . S
H1625 C1606 0.930 . S
H1626 C1661 0.929 . S
N1627 Tb1596 2.660 . S
N1627 C1628 1.305 . S
N1627 C1632 1.360 . S
C1628 H1620 0.930 . S
C1628 N1627 1.305 . S
C1628 C1631 1.407 . S
C1629 H1623 0.930 . S
C1629 C1630 1.410 . S
C1629 C1631 1.345 . S
C1630 C1629 1.410 . S
C1630 C1632 1.417 . S
C1630 C1662 1.432 . S
C1631 H1617 0.930 . S
C1631 C1628 1.407 . S
C1631 C1629 1.345 . S
C1632 N1627 1.360 . S
C1632 C1630 1.417 . S
C1632 C1636 1.432 1_554 S
H1633 C1638 0.930 . S
N1634 Tb1596 2.600 1_556 S
N1634 C1636 1.359 . S
N1634 C1637 1.327 . S
C1635 H1621 0.931 . S
C1635 C1637 1.392 . S
C1635 C1638 1.370 . S
C1636 C1632 1.432 1_556 S
C1636 N1634 1.359 . S
C1636 C1639 1.414 . S
C1637 H1619 0.930 . S
C1637 N1634 1.327 . S
C1637 C1635 1.392 . S
C1638 H1633 0.930 . S
C1638 C1635 1.370 . S
C1638 C1639 1.385 . S
C1639 C1636 1.414 . S
C1639 C1638 1.385 . S
C1639 C1661 1.444 . S
O1640 Tb1596 2.546 1_556 S
O1640 C1660 1.251 . S
O1641 Tb1596 2.610 . S
O1641 Tb1607 2.362 . S
O1641 C1652 1.283 . S
O1642 Tb1607 2.421 . S
O1642 C1659 1.262 . S
O1643 Tb1596 2.320 . S
O1643 C1659 1.260 . S
O1644 Tb1596 2.552 . S
O1644 C1652 1.243 . S
O1645 Tb1596 2.413 . S
O1645 C1660 1.256 1_554 S
O1646 Tb1607 2.546 . S
O1646 C1671 1.251 1_455 S
O1647 Tb1596 2.362 . S
O1647 Tb1607 2.610 . S
O1647 C1663 1.283 . S
O1648 Tb1596 2.421 1_556 S
O1648 C1670 1.262 . S
O1649 Tb1607 2.320 1_556 S
O1649 C1670 1.260 . S
O1650 Tb1607 2.552 . S
O1650 C1663 1.243 . S
O1651 Tb1607 2.413 1_655 S
O1651 C1671 1.256 . S
C1652 O1641 1.283 . S
C1652 O1644 1.243 . S
C1653 C1655 1.382 1_556 S
C1653 C1657 1.393 . S
C1653 C1660 1.500 . S
C1654 C1655 1.400 . S
C1654 C1656 1.384 1_554 S
C1655 C1653 1.382 1_554 S
C1655 C1654 1.400 . S
C1655 H1672 0.930 . S
C1656 C1654 1.384 1_556 S
C1656 C1658 1.392 . S
C1656 H1673 0.931 . S
C1657 C1653 1.393 . S
C1657 C1658 1.401 . S
C1657 H1674 0.930 . S
C1658 C1656 1.392 . S
C1658 C1657 1.401 . S
C1658 H1675 0.930 . S
C1659 O1642 1.262 . S
C1659 O1643 1.260 . S
C1660 Tb1596 2.833 1_556 S
C1660 O1640 1.251 . S
C1660 O1645 1.256 1_556 S
C1660 C1653 1.500 . S
C1661 H1626 0.929 . S
C1661 C1639 1.444 . S
C1661 C1662 1.317 1_556 S
C1662 H1624 0.930 . S
C1662 C1630 1.432 . S
C1662 C1661 1.317 1_554 S
C1663 O1647 1.283 . S
C1663 O1650 1.243 . S
C1664 C1665 1.382 . S
C1664 C1668 1.393 . S
C1664 C1671 1.500 . S
C1665 C1664 1.382 . S
C1665 C1666 1.400 . S
C1665 H1676 0.930 . S
C1666 C1665 1.400 . S
C1666 C1667 1.384 . S
C1667 C1666 1.384 . S
C1667 C1669 1.392 . S
C1667 H1677 0.931 . S
C1668 C1664 1.393 . S
C1668 C1669 1.401 . S
C1668 H1678 0.930 . S
C1669 C1667 1.392 . S
C1669 C1668 1.401 . S
C1669 H1679 0.930 . S
C1670 O1648 1.262 . S
C1670 O1649 1.260 . S
C1671 Tb1607 2.833 1_655 S
C1671 O1646 1.251 1_655 S
C1671 O1651 1.256 . S
C1671 C1664 1.500 . S
H1672 C1655 0.930 . S
H1673 C1656 0.931 . S
H1674 C1657 0.930 . S
H1675 C1658 0.930 . S
H1676 C1665 0.930 . S
H1677 C1667 0.931 . S
H1678 C1668 0.930 . S
H1679 C1669 0.930 . S
H1680 C1698 0.951 1_655 S
H1681 C1700 0.965 . S
H1682 C1702 0.950 . S
H1683 C1703 0.950 . S
H1684 C1705 0.950 . S
H1685 C1708 0.950 1_455 S
H1686 C1709 0.950 . S
H1687 C1711 0.950 . S
H1688 C1712 0.950 . S
H1689 C1713 0.951 . S
H1690 C1715 0.951 . S
H1691 C1717 0.950 . S
H1692 C1718 0.950 1_556 S
H1693 C1720 0.950 . S
H1694 C1723 0.950 . S
H1695 C1724 0.950 . S
H1696 C1726 0.950 . S
H1697 C1727 0.950 1_554 S
C1698 H1680 0.951 1_455 S
C1698 C1699 1.366 . S
C1698 C1700 1.388 . S
C1699 C1698 1.366 . S
C1699 C1703 1.385 . S
C1700 H1681 0.965 . S
C1700 C1698 1.388 . S
C1700 C1701 1.366 . S
C1701 C1700 1.366 . S
C1701 C1702 1.414 . S
C1701 C1704 1.499 . S
C1702 H1682 0.950 . S
C1702 C1701 1.414 . S
C1702 C1703 1.374 . S
C1703 H1683 0.950 . S
C1703 C1699 1.385 . S
C1703 C1702 1.374 . S
C1704 C1701 1.499 . S
C1704 C1705 1.373 . S
C1704 C1706 1.389 . S
C1705 H1684 0.950 . S
C1705 C1704 1.373 . S
C1705 C1721 1.377 . S
C1706 C1704 1.389 . S
C1706 C1707 1.524 1_455 S
C1706 C1720 1.377 . S
C1707 C1706 1.524 1_655 S
C1707 C1708 1.397 1_556 S
C1707 C1712 1.363 . S
C1708 H1685 0.950 1_655 S
C1708 C1707 1.397 1_554 S
C1708 C1709 1.334 . S
C1709 H1686 0.950 . S
C1709 C1708 1.334 . S
C1709 C1710 1.287 1_554 S
C1710 C1709 1.287 1_556 S
C1710 C1711 1.524 . S
C1710 H1729 0.913 . S
C1711 H1687 0.950 . S
C1711 C1710 1.524 . S
C1711 C1712 1.415 . S
C1712 H1688 0.950 . S
C1712 C1707 1.363 . S
C1712 C1711 1.415 . S
C1713 H1689 0.951 . S
C1713 C1714 1.366 . S
C1713 C1715 1.388 . S
C1714 C1713 1.366 . S
C1714 C1718 1.385 . S
C1715 H1690 0.951 . S
C1715 C1713 1.388 . S
C1715 C1716 1.366 . S
C1716 C1715 1.366 . S
C1716 C1717 1.414 1_554 S
C1716 C1719 1.499 1_554 S
C1717 H1691 0.950 . S
C1717 C1716 1.414 1_556 S
C1717 C1718 1.374 1_556 S
C1718 H1692 0.950 1_554 S
C1718 C1714 1.385 . S
C1718 C1717 1.374 1_554 S
C1719 C1716 1.499 1_556 S
C1719 C1720 1.373 . S
C1719 C1721 1.389 . S
C1720 H1693 0.950 . S
C1720 C1706 1.377 . S
C1720 C1719 1.373 . S
C1721 C1705 1.377 . S
C1721 C1719 1.389 . S
C1721 C1722 1.524 . S
C1722 C1721 1.524 . S
C1722 C1723 1.397 . S
C1722 C1727 1.363 . S
C1723 H1694 0.950 . S
C1723 C1722 1.397 . S
C1723 C1724 1.334 . S
C1724 H1695 0.950 . S
C1724 C1723 1.334 . S
C1724 C1725 1.287 . S
C1725 C1724 1.287 . S
C1725 C1726 1.524 . S
C1725 H1728 0.999 . S
C1726 H1696 0.950 . S
C1726 C1725 1.524 . S
C1726 C1727 1.415 . S
C1727 H1697 0.950 1_556 S
C1727 C1722 1.363 . S
C1727 C1726 1.415 . S
H1728 C1725 0.999 . S
H1729 C1710 0.913 . S
H1730 C1748 0.951 . S
H1731 C1750 0.951 . S
H1732 C1752 0.950 . S
H1733 C1753 0.950 . S
H1734 C1755 0.950 . S
H1735 C1758 0.950 . S
H1736 C1759 0.950 . S
H1737 C1761 0.950 . S
H1738 C1762 0.950 . S
H1739 C1763 0.951 . S
H1740 C1765 0.951 . S
H1741 C1767 0.950 . S
H1742 C1768 0.950 . S
H1743 C1770 0.950 . S
H1744 C1773 0.950 . S
H1745 C1774 0.950 . S
H1746 C1776 0.950 . S
H1747 C1777 0.950 . S
C1748 H1730 0.951 . S
C1748 C1749 1.366 . S
C1748 C1750 1.388 . S
C1749 C1748 1.366 . S
C1749 C1753 1.385 . S
C1750 H1731 0.951 . S
C1750 C1748 1.388 . S
C1750 C1751 1.366 . S
C1751 C1750 1.366 . S
C1751 C1752 1.414 . S
C1751 C1754 1.499 . S
C1752 H1732 0.950 . S
C1752 C1751 1.414 . S
C1752 C1753 1.374 . S
C1753 H1733 0.950 . S
C1753 C1749 1.385 . S
C1753 C1752 1.374 . S
C1754 C1751 1.499 . S
C1754 C1755 1.373 . S
C1754 C1756 1.389 . S
C1755 H1734 0.950 . S
C1755 C1754 1.373 . S
C1755 C1771 1.377 . S
C1756 C1754 1.389 . S
C1756 C1757 1.524 . S
C1756 C1770 1.377 . S
C1757 C1756 1.524 . S
C1757 C1758 1.397 . S
C1757 C1762 1.363 . S
C1758 H1735 0.950 . S
C1758 C1757 1.397 . S
C1758 C1759 1.334 . S
C1759 H1736 0.950 . S
C1759 C1758 1.334 . S
C1759 C1760 1.287 . S
C1760 C1759 1.287 . S
C1760 C1761 1.524 . S
C1760 H1779 0.913 . S
C1761 H1737 0.950 . S
C1761 C1760 1.524 . S
C1761 C1762 1.415 . S
C1762 H1738 0.950 . S
C1762 C1757 1.363 . S
C1762 C1761 1.415 . S
C1763 H1739 0.951 . S
C1763 C1764 1.366 . S
C1763 C1765 1.388 . S
C1764 C1763 1.366 . S
C1764 C1768 1.385 . S
C1765 H1740 0.951 . S
C1765 C1763 1.388 . S
C1765 C1766 1.366 . S
C1766 C1765 1.366 . S
C1766 C1767 1.414 . S
C1766 C1769 1.499 . S
C1767 H1741 0.950 . S
C1767 C1766 1.414 . S
C1767 C1768 1.374 . S
C1768 H1742 0.950 . S
C1768 C1764 1.385 . S
C1768 C1767 1.374 . S
C1769 C1766 1.499 . S
C1769 C1770 1.373 . S
C1769 C1771 1.389 . S
C1770 H1743 0.950 . S
C1770 C1756 1.377 . S
C1770 C1769 1.373 . S
C1771 C1755 1.377 . S
C1771 C1769 1.389 . S
C1771 C1772 1.524 . S
C1772 C1771 1.524 . S
C1772 C1773 1.397 . S
C1772 C1777 1.363 . S
C1773 H1744 0.950 . S
C1773 C1772 1.397 . S
C1773 C1774 1.334 . S
C1774 H1745 0.950 . S
C1774 C1773 1.334 . S
C1774 C1775 1.287 . S
C1775 C1774 1.287 . S
C1775 C1776 1.524 . S
C1775 H1778 0.999 . S
C1776 H1746 0.950 . S
C1776 C1775 1.524 . S
C1776 C1777 1.415 . S
C1777 H1747 0.950 . S
C1777 C1772 1.363 . S
C1777 C1776 1.415 . S
H1778 C1775 0.999 . S
H1779 C1760 0.913 . S
H1780 C1798 0.951 . S
H1781 C1800 0.951 . S
H1782 C1802 0.950 . S
H1783 C1803 0.950 . S
H1784 C1805 0.950 . S
H1785 C1808 0.950 . S
H1786 C1809 0.950 . S
H1787 C1811 0.950 . S
H1788 C1812 0.950 . S
H1789 C1813 0.951 . S
H1790 C1815 0.951 . S
H1791 C1817 0.950 . S
H1792 C1818 0.950 . S
H1793 C1820 0.950 . S
H1794 C1823 0.950 . S
H1795 C1824 0.950 . S
H1796 C1826 0.950 . S
H1797 C1827 0.950 . S
C1798 H1780 0.951 . S
C1798 C1799 1.366 . S
C1798 C1800 1.388 . S
C1799 C1798 1.366 . S
C1799 C1803 1.385 . S
C1800 H1781 0.951 . S
C1800 C1798 1.388 . S
C1800 C1801 1.366 . S
C1801 C1800 1.366 . S
C1801 C1802 1.414 . S
C1801 C1804 1.499 . S
C1802 H1782 0.950 . S
C1802 C1801 1.414 . S
C1802 C1803 1.374 . S
C1803 H1783 0.950 . S
C1803 C1799 1.385 . S
C1803 C1802 1.374 . S
C1804 C1801 1.499 . S
C1804 C1805 1.373 . S
C1804 C1806 1.389 . S
C1805 H1784 0.950 . S
C1805 C1804 1.373 . S
C1805 C1821 1.377 . S
C1806 C1804 1.389 . S
C1806 C1807 1.524 . S
C1806 C1820 1.377 . S
C1807 C1806 1.524 . S
C1807 C1808 1.397 . S
C1807 C1812 1.363 . S
C1808 H1785 0.950 . S
C1808 C1807 1.397 . S
C1808 C1809 1.334 . S
C1809 H1786 0.950 . S
C1809 C1808 1.334 . S
C1809 C1810 1.287 . S
C1810 C1809 1.287 . S
C1810 C1811 1.524 . S
C1810 H1829 0.913 . S
C1811 H1787 0.950 . S
C1811 C1810 1.524 . S
C1811 C1812 1.415 . S
C1812 H1788 0.950 . S
C1812 C1807 1.363 . S
C1812 C1811 1.415 . S
C1813 H1789 0.951 . S
C1813 C1814 1.366 . S
C1813 C1815 1.388 . S
C1814 C1813 1.366 . S
C1814 C1818 1.385 . S
C1815 H1790 0.951 . S
C1815 C1813 1.388 . S
C1815 C1816 1.366 . S
C1816 C1815 1.366 . S
C1816 C1817 1.414 . S
C1816 C1819 1.499 . S
C1817 H1791 0.950 . S
C1817 C1816 1.414 . S
C1817 C1818 1.374 . S
C1818 H1792 0.950 . S
C1818 C1814 1.385 . S
C1818 C1817 1.374 . S
C1819 C1816 1.499 . S
C1819 C1820 1.373 . S
C1819 C1821 1.389 . S
C1820 H1793 0.950 . S
C1820 C1806 1.377 . S
C1820 C1819 1.373 . S
C1821 C1805 1.377 . S
C1821 C1819 1.389 . S
C1821 C1822 1.524 . S
C1822 C1821 1.524 . S
C1822 C1823 1.397 . S
C1822 C1827 1.363 . S
C1823 H1794 0.950 . S
C1823 C1822 1.397 . S
C1823 C1824 1.334 . S
C1824 H1795 0.950 . S
C1824 C1823 1.334 . S
C1824 C1825 1.287 . S
C1825 C1824 1.287 . S
C1825 C1826 1.524 . S
C1825 H1828 0.999 . S
C1826 H1796 0.950 . S
C1826 C1825 1.524 . S
C1826 C1827 1.415 . S
C1827 H1797 0.950 . S
C1827 C1822 1.363 . S
C1827 C1826 1.415 . S
H1828 C1825 0.999 . S
H1829 C1810 0.913 . S
H1830 C1848 0.951 . S
H1831 C1850 0.951 . S
H1832 C1852 0.950 . S
H1833 C1853 0.950 . S
H1834 C1855 0.950 . S
H1835 C1858 0.950 . S
H1836 C1859 0.950 . S
H1837 C1861 0.950 . S
H1838 C1862 0.950 . S
H1839 C1863 0.951 . S
H1840 C1865 0.951 . S
H1841 C1867 0.950 . S
H1842 C1868 0.950 . S
H1843 C1870 0.950 . S
H1844 C1873 0.950 . S
H1845 C1874 0.950 . S
H1846 C1876 0.950 . S
H1847 C1877 0.950 . S
C1848 H1830 0.951 . S
C1848 C1849 1.366 . S
C1848 C1850 1.388 . S
C1849 C1848 1.366 . S
C1849 C1853 1.385 . S
C1850 H1831 0.951 . S
C1850 C1848 1.388 . S
C1850 C1851 1.366 . S
C1851 C1850 1.366 . S
C1851 C1852 1.414 . S
C1851 C1854 1.499 . S
C1852 H1832 0.950 . S
C1852 C1851 1.414 . S
C1852 C1853 1.374 . S
C1853 H1833 0.950 . S
C1853 C1849 1.385 . S
C1853 C1852 1.374 . S
C1854 C1851 1.499 . S
C1854 C1855 1.373 . S
C1854 C1856 1.389 . S
C1855 H1834 0.950 . S
C1855 C1854 1.373 . S
C1855 C1871 1.377 . S
C1856 C1854 1.389 . S
C1856 C1857 1.524 . S
C1856 C1870 1.377 . S
C1857 C1856 1.524 . S
C1857 C1858 1.397 . S
C1857 C1862 1.363 . S
C1858 H1835 0.950 . S
C1858 C1857 1.397 . S
C1858 C1859 1.334 . S
C1859 H1836 0.950 . S
C1859 C1858 1.334 . S
C1859 C1860 1.287 . S
C1860 C1859 1.287 . S
C1860 C1861 1.524 . S
C1860 H1879 0.913 . S
C1861 H1837 0.950 . S
C1861 C1860 1.524 . S
C1861 C1862 1.415 . S
C1862 H1838 0.950 . S
C1862 C1857 1.363 . S
C1862 C1861 1.415 . S
C1863 H1839 0.951 . S
C1863 C1864 1.366 . S
C1863 C1865 1.388 . S
C1864 C1863 1.366 . S
C1864 C1868 1.385 . S
C1865 H1840 0.951 . S
C1865 C1863 1.388 . S
C1865 C1866 1.366 . S
C1866 C1865 1.366 . S
C1866 C1867 1.414 . S
C1866 C1869 1.499 . S
C1867 H1841 0.950 . S
C1867 C1866 1.414 . S
C1867 C1868 1.374 . S
C1868 H1842 0.950 . S
C1868 C1864 1.385 . S
C1868 C1867 1.374 . S
C1869 C1866 1.499 . S
C1869 C1870 1.373 . S
C1869 C1871 1.389 . S
C1870 H1843 0.950 . S
C1870 C1856 1.377 . S
C1870 C1869 1.373 . S
C1871 C1855 1.377 . S
C1871 C1869 1.389 . S
C1871 C1872 1.524 . S
C1872 C1871 1.524 . S
C1872 C1873 1.397 . S
C1872 C1877 1.363 . S
C1873 H1844 0.950 . S
C1873 C1872 1.397 . S
C1873 C1874 1.334 . S
C1874 H1845 0.950 . S
C1874 C1873 1.334 . S
C1874 C1875 1.287 . S
C1875 C1874 1.287 . S
C1875 C1876 1.524 . S
C1875 H1878 0.999 . S
C1876 H1846 0.950 . S
C1876 C1875 1.524 . S
C1876 C1877 1.415 . S
C1877 H1847 0.950 . S
C1877 C1872 1.363 . S
C1877 C1876 1.415 . S
H1878 C1875 0.999 . S
H1879 C1860 0.913 . S
H1880 C1898 0.951 . S
H1881 C1900 0.951 . S
H1882 C1902 0.950 . S
H1883 C1903 0.950 . S
H1884 C1905 0.950 . S
H1885 C1908 0.950 1_455 S
H1886 C1909 0.950 . S
H1887 C1911 0.950 . S
H1888 C1912 0.950 . S
H1889 C1913 0.951 . S
H1890 C1915 0.951 . S
H1891 C1917 0.950 . S
H1892 C1918 0.950 . S
H1893 C1920 0.950 . S
H1894 C1923 0.950 . S
H1895 C1924 0.950 . S
H1896 C1926 0.950 . S
H1897 C1927 0.950 . S
C1898 H1880 0.951 . S
C1898 C1899 1.366 1_655 S
C1898 C1900 1.388 . S
C1899 C1898 1.366 1_455 S
C1899 C1903 1.385 . S
C1900 H1881 0.951 . S
C1900 C1898 1.388 . S
C1900 C1901 1.366 1_655 S
C1901 C1900 1.366 1_455 S
C1901 C1902 1.414 . S
C1901 C1904 1.499 . S
C1902 H1882 0.950 . S
C1902 C1901 1.414 . S
C1902 C1903 1.374 . S
C1903 H1883 0.950 . S
C1903 C1899 1.385 . S
C1903 C1902 1.374 . S
C1904 C1901 1.499 . S
C1904 C1905 1.373 . S
C1904 C1906 1.389 . S
C1905 H1884 0.950 . S
C1905 C1904 1.373 . S
C1905 C1921 1.377 . S
C1906 C1904 1.389 . S
C1906 C1907 1.524 1_455 S
C1906 C1920 1.377 . S
C1907 C1906 1.524 1_655 S
C1907 C1908 1.397 . S
C1907 C1912 1.363 . S
C1908 H1885 0.950 1_655 S
C1908 C1907 1.397 . S
C1908 C1909 1.334 . S
C1909 H1886 0.950 . S
C1909 C1908 1.334 . S
C1909 C1910 1.287 . S
C1910 C1909 1.287 . S
C1910 C1911 1.524 . S
C1910 H1929 0.913 . S
C1911 H1887 0.950 . S
C1911 C1910 1.524 . S
C1911 C1912 1.415 . S
C1912 H1888 0.950 . S
C1912 C1907 1.363 . S
C1912 C1911 1.415 . S
C1913 H1889 0.951 . S
C1913 C1914 1.366 . S
C1913 C1915 1.388 . S
C1914 C1913 1.366 . S
C1914 C1918 1.385 . S
C1915 H1890 0.951 . S
C1915 C1913 1.388 . S
C1915 C1916 1.366 . S
C1916 C1915 1.366 . S
C1916 C1917 1.414 . S
C1916 C1919 1.499 . S
C1917 H1891 0.950 . S
C1917 C1916 1.414 . S
C1917 C1918 1.374 . S
C1918 H1892 0.950 . S
C1918 C1914 1.385 . S
C1918 C1917 1.374 . S
C1919 C1916 1.499 . S
C1919 C1920 1.373 . S
C1919 C1921 1.389 . S
C1920 H1893 0.950 . S
C1920 C1906 1.377 . S
C1920 C1919 1.373 . S
C1921 C1905 1.377 . S
C1921 C1919 1.389 . S
C1921 C1922 1.524 . S
C1922 C1921 1.524 . S
C1922 C1923 1.397 . S
C1922 C1927 1.363 . S
C1923 H1894 0.950 . S
C1923 C1922 1.397 . S
C1923 C1924 1.334 . S
C1924 H1895 0.950 . S
C1924 C1923 1.334 . S
C1924 C1925 1.287 . S
C1925 C1924 1.287 . S
C1925 C1926 1.524 . S
C1925 H1928 0.999 . S
C1926 H1896 0.950 . S
C1926 C1925 1.524 . S
C1926 C1927 1.415 . S
C1927 H1897 0.950 . S
C1927 C1922 1.363 . S
C1927 C1926 1.415 . S
H1928 C1925 0.999 . S
H1929 C1910 0.913 . S
H1930 C1948 0.951 . S
H1931 C1950 0.951 . S
H1932 C1952 0.950 . S
H1933 C1953 0.950 . S
H1934 C1955 0.950 . S
H1935 C1958 0.950 . S
H1936 C1959 0.950 . S
H1937 C1961 0.950 . S
H1938 C1962 0.950 . S
H1939 C1963 0.951 . S
H1940 C1965 0.951 . S
H1941 C1967 0.950 . S
H1942 C1968 0.950 . S
H1943 C1970 0.950 . S
H1944 C1973 0.950 . S
H1945 C1974 0.950 . S
H1946 C1976 0.950 . S
H1947 C1977 0.950 . S
C1948 H1930 0.951 . S
C1948 C1949 1.366 . S
C1948 C1950 1.388 . S
C1949 C1948 1.366 . S
C1949 C1953 1.385 . S
C1950 H1931 0.951 . S
C1950 C1948 1.388 . S
C1950 C1951 1.366 . S
C1951 C1950 1.366 . S
C1951 C1952 1.414 . S
C1951 C1954 1.499 . S
C1952 H1932 0.950 . S
C1952 C1951 1.414 . S
C1952 C1953 1.374 . S
C1953 H1933 0.950 . S
C1953 C1949 1.385 . S
C1953 C1952 1.374 . S
C1954 C1951 1.499 . S
C1954 C1955 1.373 . S
C1954 C1956 1.389 . S
C1955 H1934 0.950 . S
C1955 C1954 1.373 . S
C1955 C1971 1.377 . S
C1956 C1954 1.389 . S
C1956 C1957 1.524 . S
C1956 C1970 1.377 . S
C1957 C1956 1.524 . S
C1957 C1958 1.397 . S
C1957 C1962 1.363 . S
C1958 H1935 0.950 . S
C1958 C1957 1.397 . S
C1958 C1959 1.334 . S
C1959 H1936 0.950 . S
C1959 C1958 1.334 . S
C1959 C1960 1.287 . S
C1960 C1959 1.287 . S
C1960 C1961 1.524 . S
C1960 H1979 0.913 . S
C1961 H1937 0.950 . S
C1961 C1960 1.524 . S
C1961 C1962 1.415 . S
C1962 H1938 0.950 . S
C1962 C1957 1.363 . S
C1962 C1961 1.415 . S
C1963 H1939 0.951 . S
C1963 C1964 1.366 . S
C1963 C1965 1.388 . S
C1964 C1963 1.366 . S
C1964 C1968 1.385 . S
C1965 H1940 0.951 . S
C1965 C1963 1.388 . S
C1965 C1966 1.366 . S
C1966 C1965 1.366 . S
C1966 C1967 1.414 . S
C1966 C1969 1.499 . S
C1967 H1941 0.950 . S
C1967 C1966 1.414 . S
C1967 C1968 1.374 . S
C1968 H1942 0.950 . S
C1968 C1964 1.385 . S
C1968 C1967 1.374 . S
C1969 C1966 1.499 . S
C1969 C1970 1.373 . S
C1969 C1971 1.389 . S
C1970 H1943 0.950 . S
C1970 C1956 1.377 . S
C1970 C1969 1.373 . S
C1971 C1955 1.377 . S
C1971 C1969 1.389 . S
C1971 C1972 1.524 . S
C1972 C1971 1.524 . S
C1972 C1973 1.397 . S
C1972 C1977 1.363 . S
C1973 H1944 0.950 . S
C1973 C1972 1.397 . S
C1973 C1974 1.334 . S
C1974 H1945 0.950 . S
C1974 C1973 1.334 . S
C1974 C1975 1.287 . S
C1975 C1974 1.287 . S
C1975 C1976 1.524 . S
C1975 H1978 0.999 . S
C1976 H1946 0.950 . S
C1976 C1975 1.524 . S
C1976 C1977 1.415 . S
C1977 H1947 0.950 . S
C1977 C1972 1.363 . S
C1977 C1976 1.415 . S
H1978 C1975 0.999 . S
H1979 C1960 0.913 . S
H1980 C1998 0.951 . S
H1981 C2000 0.951 . S
H1982 C2002 0.950 . S
H1983 C2003 0.950 . S
H1984 C2005 0.950 . S
H1985 C2008 0.950 . S
H1986 C2009 0.950 . S
H1987 C2011 0.950 . S
H1988 C2012 0.950 . S
H1989 C2013 0.951 . S
H1990 C2015 0.951 . S
H1991 C2017 0.950 . S
H1992 C2018 0.950 . S
H1993 C2020 0.950 . S
H1994 C2023 0.950 . S
H1995 C2024 0.950 . S
H1996 C2026 0.950 . S
H1997 C2027 0.950 . S
C1998 H1980 0.951 . S
C1998 C1999 1.366 . S
C1998 C2000 1.388 . S
C1999 C1998 1.366 . S
C1999 C2003 1.385 . S
C2000 H1981 0.951 . S
C2000 C1998 1.388 . S
C2000 C2001 1.366 . S
C2001 C2000 1.366 . S
C2001 C2002 1.414 . S
C2001 C2004 1.499 . S
C2002 H1982 0.950 . S
C2002 C2001 1.414 . S
C2002 C2003 1.374 . S
C2003 H1983 0.950 . S
C2003 C1999 1.385 . S
C2003 C2002 1.374 . S
C2004 C2001 1.499 . S
C2004 C2005 1.373 . S
C2004 C2006 1.389 . S
C2005 H1984 0.950 . S
C2005 C2004 1.373 . S
C2005 C2021 1.377 . S
C2006 C2004 1.389 . S
C2006 C2007 1.524 . S
C2006 C2020 1.377 . S
C2007 C2006 1.524 . S
C2007 C2008 1.397 . S
C2007 C2012 1.363 . S
C2008 H1985 0.950 . S
C2008 C2007 1.397 . S
C2008 C2009 1.334 . S
C2009 H1986 0.950 . S
C2009 C2008 1.334 . S
C2009 C2010 1.287 . S
C2010 C2009 1.287 . S
C2010 C2011 1.524 . S
C2010 H2029 0.913 . S
C2011 H1987 0.950 . S
C2011 C2010 1.524 . S
C2011 C2012 1.415 . S
C2012 H1988 0.950 . S
C2012 C2007 1.363 . S
C2012 C2011 1.415 . S
C2013 H1989 0.951 . S
C2013 C2014 1.366 . S
C2013 C2015 1.388 . S
C2014 C2013 1.366 . S
C2014 C2018 1.385 . S
C2015 H1990 0.951 . S
C2015 C2013 1.388 . S
C2015 C2016 1.366 . S
C2016 C2015 1.366 . S
C2016 C2017 1.414 . S
C2016 C2019 1.499 . S
C2017 H1991 0.950 . S
C2017 C2016 1.414 . S
C2017 C2018 1.374 . S
C2018 H1992 0.950 . S
C2018 C2014 1.385 . S
C2018 C2017 1.374 . S
C2019 C2016 1.499 . S
C2019 C2020 1.373 . S
C2019 C2021 1.389 . S
C2020 H1993 0.950 . S
C2020 C2006 1.377 . S
C2020 C2019 1.373 . S
C2021 C2005 1.377 . S
C2021 C2019 1.389 . S
C2021 C2022 1.524 . S
C2022 C2021 1.524 . S
C2022 C2023 1.397 . S
C2022 C2027 1.363 . S
C2023 H1994 0.950 . S
C2023 C2022 1.397 . S
C2023 C2024 1.334 . S
C2024 H1995 0.950 . S
C2024 C2023 1.334 . S
C2024 C2025 1.287 . S
C2025 C2024 1.287 . S
C2025 C2026 1.524 . S
C2025 H2028 0.999 . S
C2026 H1996 0.950 . S
C2026 C2025 1.524 . S
C2026 C2027 1.415 . S
C2027 H1997 0.950 . S
C2027 C2022 1.363 . S
C2027 C2026 1.415 . S
H2028 C2025 0.999 . S
H2029 C2010 0.913 . S
H2030 C2048 0.951 . S
H2031 C2050 0.951 . S
H2032 C2052 0.950 . S
H2033 C2053 0.950 . S
H2034 C2055 0.950 . S
H2035 C2058 0.950 . S
H2036 C2059 0.950 . S
H2037 C2061 0.950 . S
H2038 C2062 0.950 . S
H2039 C2063 0.951 . S
H2040 C2065 0.951 . S
H2041 C2067 0.950 . S
H2042 C2068 0.950 . S
H2043 C2070 0.950 . S
H2044 C2073 0.950 . S
H2045 C2074 0.950 . S
H2046 C2076 0.950 . S
H2047 C2077 0.950 . S
C2048 H2030 0.951 . S
C2048 C2049 1.366 . S
C2048 C2050 1.388 . S
C2049 C2048 1.366 . S
C2049 C2053 1.385 . S
C2050 H2031 0.951 . S
C2050 C2048 1.388 . S
C2050 C2051 1.366 . S
C2051 C2050 1.366 . S
C2051 C2052 1.414 . S
C2051 C2054 1.499 . S
C2052 H2032 0.950 . S
C2052 C2051 1.414 . S
C2052 C2053 1.374 . S
C2053 H2033 0.950 . S
C2053 C2049 1.385 . S
C2053 C2052 1.374 . S
C2054 C2051 1.499 . S
C2054 C2055 1.373 . S
C2054 C2056 1.389 . S
C2055 H2034 0.950 . S
C2055 C2054 1.373 . S
C2055 C2071 1.377 . S
C2056 C2054 1.389 . S
C2056 C2057 1.524 . S
C2056 C2070 1.377 . S
C2057 C2056 1.524 . S
C2057 C2058 1.397 . S
C2057 C2062 1.363 . S
C2058 H2035 0.950 . S
C2058 C2057 1.397 . S
C2058 C2059 1.334 . S
C2059 H2036 0.950 . S
C2059 C2058 1.334 . S
C2059 C2060 1.287 . S
C2060 C2059 1.287 . S
C2060 C2061 1.524 . S
C2060 H2079 0.913 . S
C2061 H2037 0.950 . S
C2061 C2060 1.524 . S
C2061 C2062 1.415 . S
C2062 H2038 0.950 . S
C2062 C2057 1.363 . S
C2062 C2061 1.415 . S
C2063 H2039 0.951 . S
C2063 C2064 1.366 . S
C2063 C2065 1.388 . S
C2064 C2063 1.366 . S
C2064 C2068 1.385 . S
C2065 H2040 0.951 . S
C2065 C2063 1.388 . S
C2065 C2066 1.366 . S
C2066 C2065 1.366 . S
C2066 C2067 1.414 . S
C2066 C2069 1.499 . S
C2067 H2041 0.950 . S
C2067 C2066 1.414 . S
C2067 C2068 1.374 . S
C2068 H2042 0.950 . S
C2068 C2064 1.385 . S
C2068 C2067 1.374 . S
C2069 C2066 1.499 . S
C2069 C2070 1.373 . S
C2069 C2071 1.389 . S
C2070 H2043 0.950 . S
C2070 C2056 1.377 . S
C2070 C2069 1.373 . S
C2071 C2055 1.377 . S
C2071 C2069 1.389 . S
C2071 C2072 1.524 . S
C2072 C2071 1.524 . S
C2072 C2073 1.397 . S
C2072 C2077 1.363 . S
C2073 H2044 0.950 . S
C2073 C2072 1.397 . S
C2073 C2074 1.334 . S
C2074 H2045 0.950 . S
C2074 C2073 1.334 . S
C2074 C2075 1.287 . S
C2075 C2074 1.287 . S
C2075 C2076 1.524 . S
C2075 H2078 0.999 . S
C2076 H2046 0.950 . S
C2076 C2075 1.524 . S
C2076 C2077 1.415 . S
C2077 H2047 0.950 . S
C2077 C2072 1.363 . S
C2077 C2076 1.415 . S
H2078 C2075 0.999 . S
H2079 C2060 0.913 . S
H2080 C2098 0.951 . S
H2081 C2100 0.951 . S
H2082 C2102 0.950 . S
H2083 C2103 0.950 . S
H2084 C2105 0.950 . S
H2085 C2108 0.950 . S
H2086 C2109 0.950 . S
H2087 C2111 0.950 1_665 S
H2088 C2112 0.951 1_655 S
H2089 C2113 0.951 . S
H2090 C2115 0.951 . S
H2091 C2117 0.950 . S
H2092 C2118 0.950 . S
H2093 C2120 0.950 . S
H2094 C2123 0.950 . S
H2095 C2124 0.950 . S
H2096 C2126 0.950 1_455 S
H2097 C2127 0.950 . S
C2098 H2080 0.951 . S
C2098 C2099 1.366 . S
C2098 C2100 1.388 . S
C2099 C2098 1.366 . S
C2099 C2103 1.385 . S
C2100 H2081 0.951 . S
C2100 C2098 1.388 . S
C2100 C2101 1.366 . S
C2101 C2100 1.366 . S
C2101 C2102 1.414 . S
C2101 C2104 1.499 . S
C2102 H2082 0.950 . S
C2102 C2101 1.414 . S
C2102 C2103 1.374 . S
C2103 H2083 0.950 . S
C2103 C2099 1.385 . S
C2103 C2102 1.374 . S
C2104 C2101 1.499 . S
C2104 C2105 1.373 . S
C2104 C2106 1.389 1_655 S
C2105 H2084 0.950 . S
C2105 C2104 1.373 . S
C2105 C2121 1.378 . S
C2106 C2104 1.389 1_455 S
C2106 C2107 1.524 . S
C2106 C2120 1.377 . S
C2107 C2106 1.524 . S
C2107 C2108 1.397 . S
C2107 C2112 1.363 . S
C2108 H2085 0.950 . S
C2108 C2107 1.397 . S
C2108 C2109 1.334 . S
C2109 H2086 0.950 . S
C2109 C2108 1.334 . S
C2109 C2110 1.287 . S
C2110 C2109 1.287 . S
C2110 C2111 1.524 . S
C2110 H2129 0.913 . S
C2111 H2087 0.950 1_445 S
C2111 C2110 1.524 . S
C2111 C2112 1.415 . S
C2112 H2088 0.951 1_455 S
C2112 C2107 1.363 . S
C2112 C2111 1.415 . S
C2113 H2089 0.951 . S
C2113 C2114 1.366 . S
C2113 C2115 1.388 . S
C2114 C2113 1.366 . S
C2114 C2118 1.385 . S
C2115 H2090 0.951 . S
C2115 C2113 1.388 . S
C2115 C2116 1.366 . S
C2116 C2115 1.366 . S
C2116 C2117 1.414 . S
C2116 C2119 1.499 . S
C2117 H2091 0.950 . S
C2117 C2116 1.414 . S
C2117 C2118 1.374 . S
C2118 H2092 0.950 . S
C2118 C2114 1.385 . S
C2118 C2117 1.374 . S
C2119 C2116 1.499 . S
C2119 C2120 1.373 . S
C2119 C2121 1.387 1_455 S
C2120 H2093 0.950 . S
C2120 C2106 1.377 . S
C2120 C2119 1.373 . S
C2121 C2105 1.378 . S
C2121 C2119 1.387 1_655 S
C2121 C2122 1.525 . S
C2122 C2121 1.525 . S
C2122 C2123 1.397 . S
C2122 C2127 1.363 1_655 S
C2123 H2094 0.950 . S
C2123 C2122 1.397 . S
C2123 C2124 1.334 . S
C2124 H2095 0.950 . S
C2124 C2123 1.334 . S
C2124 C2125 1.287 . S
C2125 C2124 1.287 . S
C2125 C2126 1.524 . S
C2125 H2128 0.999 . S
C2126 H2096 0.950 1_655 S
C2126 C2125 1.524 . S
C2126 C2127 1.415 1_655 S
C2127 H2097 0.950 . S
C2127 C2122 1.363 1_455 S
C2127 C2126 1.415 1_455 S
H2128 C2125 0.999 . S
H2129 C2110 0.913 . S
H2130 C2148 0.951 . S
H2131 C2150 0.951 . S
H2132 C2152 0.950 . S
H2133 C2153 0.950 . S
H2134 C2155 0.950 . S
H2135 C2158 0.950 . S
H2136 C2159 0.950 . S
H2137 C2161 0.950 . S
H2138 C2162 0.950 . S
H2139 C2163 0.951 . S
H2140 C2165 0.951 . S
H2141 C2167 0.950 . S
H2142 C2168 0.950 . S
H2143 C2170 0.950 . S
H2144 C2173 0.950 . S
H2145 C2174 0.950 . S
H2146 C2176 0.950 . S
H2147 C2177 0.950 . S
C2148 H2130 0.951 . S
C2148 C2149 1.366 . S
C2148 C2150 1.388 . S
C2149 C2148 1.366 . S
C2149 C2153 1.385 . S
C2150 H2131 0.951 . S
C2150 C2148 1.388 . S
C2150 C2151 1.366 . S
C2151 C2150 1.366 . S
C2151 C2152 1.414 . S
C2151 C2154 1.499 . S
C2152 H2132 0.950 . S
C2152 C2151 1.414 . S
C2152 C2153 1.374 . S
C2153 H2133 0.950 . S
C2153 C2149 1.385 . S
C2153 C2152 1.374 . S
C2154 C2151 1.499 . S
C2154 C2155 1.373 . S
C2154 C2156 1.389 . S
C2155 H2134 0.950 . S
C2155 C2154 1.373 . S
C2155 C2171 1.377 . S
C2156 C2154 1.389 . S
C2156 C2157 1.524 . S
C2156 C2170 1.377 . S
C2157 C2156 1.524 . S
C2157 C2158 1.397 . S
C2157 C2162 1.363 . S
C2158 H2135 0.950 . S
C2158 C2157 1.397 . S
C2158 C2159 1.334 . S
C2159 H2136 0.950 . S
C2159 C2158 1.334 . S
C2159 C2160 1.287 . S
C2160 C2159 1.287 . S
C2160 C2161 1.524 . S
C2160 H2179 0.913 . S
C2161 H2137 0.950 . S
C2161 C2160 1.524 . S
C2161 C2162 1.415 . S
C2162 H2138 0.950 . S
C2162 C2157 1.363 . S
C2162 C2161 1.415 . S
C2163 H2139 0.951 . S
C2163 C2164 1.366 . S
C2163 C2165 1.388 . S
C2164 C2163 1.366 . S
C2164 C2168 1.385 . S
C2165 H2140 0.951 . S
C2165 C2163 1.388 . S
C2165 C2166 1.366 . S
C2166 C2165 1.366 . S
C2166 C2167 1.414 . S
C2166 C2169 1.499 . S
C2167 H2141 0.950 . S
C2167 C2166 1.414 . S
C2167 C2168 1.374 . S
C2168 H2142 0.950 . S
C2168 C2164 1.385 . S
C2168 C2167 1.374 . S
C2169 C2166 1.499 . S
C2169 C2170 1.373 . S
C2169 C2171 1.389 . S
C2170 H2143 0.950 . S
C2170 C2156 1.377 . S
C2170 C2169 1.373 . S
C2171 C2155 1.377 . S
C2171 C2169 1.389 . S
C2171 C2172 1.524 . S
C2172 C2171 1.524 . S
C2172 C2173 1.397 . S
C2172 C2177 1.363 . S
C2173 H2144 0.950 . S
C2173 C2172 1.397 . S
C2173 C2174 1.334 . S
C2174 H2145 0.950 . S
C2174 C2173 1.334 . S
C2174 C2175 1.287 . S
C2175 C2174 1.287 . S
C2175 C2176 1.524 . S
C2175 H2178 0.999 . S
C2176 H2146 0.950 . S
C2176 C2175 1.524 . S
C2176 C2177 1.415 . S
C2177 H2147 0.950 . S
C2177 C2172 1.363 . S
C2177 C2176 1.415 . S
H2178 C2175 0.999 . S
H2179 C2160 0.913 . S
H2180 C2198 0.951 . S
H2181 C2200 0.951 . S
H2182 C2202 0.950 . S
H2183 C2203 0.950 . S
H2184 C2205 0.950 . S
H2185 C2208 0.950 . S
H2186 C2209 0.950 . S
H2187 C2211 0.950 . S
H2188 C2212 0.937 1_545 S
H2189 C2213 0.951 . S
H2190 C2215 0.951 . S
H2191 C2217 0.950 . S
H2192 C2218 0.950 . S
H2193 C2220 0.950 . S
H2194 C2223 0.950 . S
H2195 C2224 0.950 . S
H2196 C2226 0.950 . S
H2197 C2227 0.950 . S
C2198 H2180 0.951 . S
C2198 C2199 1.366 . S
C2198 C2200 1.388 . S
C2199 C2198 1.366 . S
C2199 C2203 1.385 . S
C2200 H2181 0.951 . S
C2200 C2198 1.388 . S
C2200 C2201 1.366 . S
C2201 C2200 1.366 . S
C2201 C2202 1.414 . S
C2201 C2204 1.499 . S
C2202 H2182 0.950 . S
C2202 C2201 1.414 . S
C2202 C2203 1.374 . S
C2203 H2183 0.950 . S
C2203 C2199 1.385 . S
C2203 C2202 1.374 . S
C2204 C2201 1.499 . S
C2204 C2205 1.373 . S
C2204 C2206 1.389 . S
C2205 H2184 0.950 . S
C2205 C2204 1.373 . S
C2205 C2221 1.377 . S
C2206 C2204 1.389 . S
C2206 C2207 1.524 1_545 S
C2206 C2220 1.377 . S
C2207 C2206 1.524 1_565 S
C2207 C2208 1.397 . S
C2207 C2212 1.363 . S
C2208 H2185 0.950 . S
C2208 C2207 1.397 . S
C2208 C2209 1.334 . S
C2209 H2186 0.950 . S
C2209 C2208 1.334 . S
C2209 C2210 1.287 . S
C2210 C2209 1.287 . S
C2210 C2211 1.524 . S
C2210 H2229 0.913 . S
C2211 H2187 0.950 . S
C2211 C2210 1.524 . S
C2211 C2212 1.415 . S
C2212 H2188 0.937 1_565 S
C2212 C2207 1.363 . S
C2212 C2211 1.415 . S
C2213 H2189 0.951 . S
C2213 C2214 1.366 . S
C2213 C2215 1.388 . S
C2214 C2213 1.366 . S
C2214 C2218 1.385 . S
C2215 H2190 0.951 . S
C2215 C2213 1.388 . S
C2215 C2216 1.366 . S
C2216 C2215 1.366 . S
C2216 C2217 1.414 . S
C2216 C2219 1.499 . S
C2217 H2191 0.950 . S
C2217 C2216 1.414 . S
C2217 C2218 1.374 . S
C2218 H2192 0.950 . S
C2218 C2214 1.385 . S
C2218 C2217 1.374 . S
C2219 C2216 1.499 . S
C2219 C2220 1.373 . S
C2219 C2221 1.389 . S
C2220 H2193 0.950 . S
C2220 C2206 1.377 . S
C2220 C2219 1.373 . S
C2221 C2205 1.377 . S
C2221 C2219 1.389 . S
C2221 C2222 1.524 . S
C2222 C2221 1.524 . S
C2222 C2223 1.397 . S
C2222 C2227 1.363 . S
C2223 H2194 0.950 . S
C2223 C2222 1.397 . S
C2223 C2224 1.334 . S
C2224 H2195 0.950 . S
C2224 C2223 1.334 . S
C2224 C2225 1.287 . S
C2225 C2224 1.287 . S
C2225 C2226 1.524 . S
C2225 H2228 0.999 . S
C2226 H2196 0.950 . S
C2226 C2225 1.524 . S
C2226 C2227 1.415 . S
C2227 H2197 0.950 . S
C2227 C2222 1.363 . S
C2227 C2226 1.415 . S
H2228 C2225 0.999 . S
H2229 C2210 0.913 . S
H2230 C2248 0.951 . S
H2231 C2250 0.951 . S
H2232 C2252 0.950 . S
H2233 C2253 0.950 . S
H2234 C2255 0.950 . S
H2235 C2258 0.950 . S
H2236 C2259 0.950 . S
H2237 C2261 0.950 . S
H2238 C2262 0.950 . S
H2239 C2263 0.951 . S
H2240 C2265 0.951 . S
H2241 C2267 0.950 . S
H2242 C2268 0.950 . S
H2243 C2270 0.950 . S
H2244 C2273 0.950 . S
H2245 C2274 0.950 . S
H2246 C2276 0.950 . S
H2247 C2277 0.950 . S
C2248 H2230 0.951 . S
C2248 C2249 1.366 . S
C2248 C2250 1.388 . S
C2249 C2248 1.366 . S
C2249 C2253 1.385 . S
C2250 H2231 0.951 . S
C2250 C2248 1.388 . S
C2250 C2251 1.366 . S
C2251 C2250 1.366 . S
C2251 C2252 1.414 . S
C2251 C2254 1.499 . S
C2252 H2232 0.950 . S
C2252 C2251 1.414 . S
C2252 C2253 1.374 . S
C2253 H2233 0.950 . S
C2253 C2249 1.385 . S
C2253 C2252 1.374 . S
C2254 C2251 1.499 . S
C2254 C2255 1.373 . S
C2254 C2256 1.389 . S
C2255 H2234 0.950 . S
C2255 C2254 1.373 . S
C2255 C2271 1.377 . S
C2256 C2254 1.389 . S
C2256 C2257 1.524 . S
C2256 C2270 1.377 . S
C2257 C2256 1.524 . S
C2257 C2258 1.397 . S
C2257 C2262 1.363 . S
C2258 H2235 0.950 . S
C2258 C2257 1.397 . S
C2258 C2259 1.334 . S
C2259 H2236 0.950 . S
C2259 C2258 1.334 . S
C2259 C2260 1.287 . S
C2260 C2259 1.287 . S
C2260 C2261 1.524 . S
C2260 H2279 0.913 . S
C2261 H2237 0.950 . S
C2261 C2260 1.524 . S
C2261 C2262 1.415 . S
C2262 H2238 0.950 . S
C2262 C2257 1.363 . S
C2262 C2261 1.415 . S
C2263 H2239 0.951 . S
C2263 C2264 1.366 . S
C2263 C2265 1.388 . S
C2264 C2263 1.366 . S
C2264 C2268 1.385 . S
C2265 H2240 0.951 . S
C2265 C2263 1.388 . S
C2265 C2266 1.366 . S
C2266 C2265 1.366 . S
C2266 C2267 1.414 . S
C2266 C2269 1.499 . S
C2267 H2241 0.950 . S
C2267 C2266 1.414 . S
C2267 C2268 1.374 . S
C2268 H2242 0.950 . S
C2268 C2264 1.385 . S
C2268 C2267 1.374 . S
C2269 C2266 1.499 . S
C2269 C2270 1.373 . S
C2269 C2271 1.389 . S
C2270 H2243 0.950 . S
C2270 C2256 1.377 . S
C2270 C2269 1.373 . S
C2271 C2255 1.377 . S
C2271 C2269 1.389 . S
C2271 C2272 1.524 . S
C2272 C2271 1.524 . S
C2272 C2273 1.397 . S
C2272 C2277 1.363 . S
C2273 H2244 0.950 . S
C2273 C2272 1.397 . S
C2273 C2274 1.334 . S
C2274 H2245 0.950 . S
C2274 C2273 1.334 . S
C2274 C2275 1.287 . S
C2275 C2274 1.287 . S
C2275 C2276 1.524 . S
C2275 H2278 0.999 . S
C2276 H2246 0.950 . S
C2276 C2275 1.524 . S
C2276 C2277 1.415 . S
C2277 H2247 0.950 . S
C2277 C2272 1.363 . S
C2277 C2276 1.415 . S
H2278 C2275 0.999 . S
H2279 C2260 0.913 . S
H2280 C2298 0.951 . S
H2281 C2300 0.951 1_455 S
H2282 C2302 0.950 . S
H2283 C2303 0.950 . S
H2284 C2305 0.950 . S
H2285 C2308 0.950 . S
H2286 C2309 0.950 . S
H2287 C2311 0.950 . S
H2288 C2312 0.950 . S
H2289 C2313 0.951 . S
H2290 C2315 0.997 . S
H2291 C2317 0.950 . S
H2292 C2318 0.950 . S
H2293 C2320 0.950 . S
H2294 C2323 0.950 . S
H2295 C2324 0.950 . S
H2296 C2326 0.950 . S
H2297 C2327 0.950 . S
C2298 H2280 0.951 . S
C2298 C2299 1.366 . S
C2298 C2300 1.388 . S
C2299 C2298 1.366 . S
C2299 C2303 1.385 . S
C2300 H2281 0.951 1_655 S
C2300 C2298 1.388 . S
C2300 C2301 1.366 . S
C2301 C2300 1.366 . S
C2301 C2302 1.414 . S
C2301 C2304 1.499 . S
C2302 H2282 0.950 . S
C2302 C2301 1.414 . S
C2302 C2303 1.374 . S
C2303 H2283 0.950 . S
C2303 C2299 1.385 . S
C2303 C2302 1.374 . S
C2304 C2301 1.499 . S
C2304 C2305 1.373 . S
C2304 C2306 1.389 1_655 S
C2305 H2284 0.950 . S
C2305 C2304 1.373 . S
C2305 C2321 1.377 . S
C2306 C2304 1.389 1_455 S
C2306 C2307 1.524 . S
C2306 C2320 1.377 . S
C2307 C2306 1.524 . S
C2307 C2308 1.397 . S
C2307 C2312 1.363 . S
C2308 H2285 0.950 . S
C2308 C2307 1.397 . S
C2308 C2309 1.334 . S
C2309 H2286 0.950 . S
C2309 C2308 1.334 . S
C2309 C2310 1.287 . S
C2310 C2309 1.287 . S
C2310 C2311 1.524 . S
C2310 H2329 0.913 . S
C2311 H2287 0.950 . S
C2311 C2310 1.524 . S
C2311 C2312 1.415 . S
C2312 H2288 0.950 . S
C2312 C2307 1.363 . S
C2312 C2311 1.415 . S
C2313 H2289 0.951 . S
C2313 C2314 1.366 . S
C2313 C2315 1.388 . S
C2314 C2313 1.366 . S
C2314 C2318 1.385 . S
C2315 H2290 0.997 . S
C2315 C2313 1.388 . S
C2315 C2316 1.366 . S
C2316 C2315 1.366 . S
C2316 C2317 1.414 . S
C2316 C2319 1.499 . S
C2317 H2291 0.950 . S
C2317 C2316 1.414 . S
C2317 C2318 1.374 . S
C2318 H2292 0.950 . S
C2318 C2314 1.385 . S
C2318 C2317 1.374 . S
C2319 C2316 1.499 . S
C2319 C2320 1.373 . S
C2319 C2321 1.389 1_455 S
C2320 H2293 0.950 . S
C2320 C2306 1.377 . S
C2320 C2319 1.373 . S
C2321 C2305 1.377 . S
C2321 C2319 1.389 1_655 S
C2321 C2322 1.524 . S
C2322 C2321 1.524 . S
C2322 C2323 1.397 . S
C2322 C2327 1.363 . S
C2323 H2294 0.950 . S
C2323 C2322 1.397 . S
C2323 C2324 1.334 . S
C2324 H2295 0.950 . S
C2324 C2323 1.334 . S
C2324 C2325 1.287 . S
C2325 C2324 1.287 . S
C2325 C2326 1.524 . S
C2325 H2328 0.999 . S
C2326 H2296 0.950 . S
C2326 C2325 1.524 . S
C2326 C2327 1.415 . S
C2327 H2297 0.950 . S
C2327 C2322 1.363 . S
C2327 C2326 1.415 . S
H2328 C2325 0.999 . S
H2329 C2310 0.913 . S
H2330 C2348 0.951 . S
H2331 C2350 0.951 . S
H2332 C2352 0.950 . S
H2333 C2353 0.950 . S
H2334 C2355 0.950 . S
H2335 C2358 0.950 . S
H2336 C2359 0.950 . S
H2337 C2361 0.950 . S
H2338 C2362 0.950 . S
H2339 C2363 0.951 . S
H2340 C2365 0.951 . S
H2341 C2367 0.950 . S
H2342 C2368 0.950 . S
H2343 C2370 0.950 . S
H2344 C2373 0.950 . S
H2345 C2374 0.950 . S
H2346 C2376 0.950 . S
H2347 C2377 0.950 . S
C2348 H2330 0.951 . S
C2348 C2349 1.366 . S
C2348 C2350 1.388 . S
C2349 C2348 1.366 . S
C2349 C2353 1.385 . S
C2350 H2331 0.951 . S
C2350 C2348 1.388 . S
C2350 C2351 1.366 . S
C2351 C2350 1.366 . S
C2351 C2352 1.414 . S
C2351 C2354 1.499 . S
C2352 H2332 0.950 . S
C2352 C2351 1.414 . S
C2352 C2353 1.374 . S
C2353 H2333 0.950 . S
C2353 C2349 1.385 . S
C2353 C2352 1.374 . S
C2354 C2351 1.499 . S
C2354 C2355 1.373 . S
C2354 C2356 1.389 . S
C2355 H2334 0.950 . S
C2355 C2354 1.373 . S
C2355 C2371 1.377 . S
C2356 C2354 1.389 . S
C2356 C2357 1.524 . S
C2356 C2370 1.377 . S
C2357 C2356 1.524 . S
C2357 C2358 1.397 . S
C2357 C2362 1.363 . S
C2358 H2335 0.950 . S
C2358 C2357 1.397 . S
C2358 C2359 1.334 . S
C2359 H2336 0.950 . S
C2359 C2358 1.334 . S
C2359 C2360 1.287 . S
C2360 C2359 1.287 . S
C2360 C2361 1.524 . S
C2360 H2379 0.913 . S
C2361 H2337 0.950 . S
C2361 C2360 1.524 . S
C2361 C2362 1.415 . S
C2362 H2338 0.950 . S
C2362 C2357 1.363 . S
C2362 C2361 1.415 . S
C2363 H2339 0.951 . S
C2363 C2364 1.366 . S
C2363 C2365 1.388 . S
C2364 C2363 1.366 . S
C2364 C2368 1.385 . S
C2365 H2340 0.951 . S
C2365 C2363 1.388 . S
C2365 C2366 1.366 . S
C2366 C2365 1.366 . S
C2366 C2367 1.414 . S
C2366 C2369 1.499 . S
C2367 H2341 0.950 . S
C2367 C2366 1.414 . S
C2367 C2368 1.374 . S
C2368 H2342 0.950 . S
C2368 C2364 1.385 . S
C2368 C2367 1.374 . S
C2369 C2366 1.499 . S
C2369 C2370 1.373 . S
C2369 C2371 1.389 . S
C2370 H2343 0.950 . S
C2370 C2356 1.377 . S
C2370 C2369 1.373 . S
C2371 C2355 1.377 . S
C2371 C2369 1.389 . S
C2371 C2372 1.524 . S
C2372 C2371 1.524 . S
C2372 C2373 1.397 . S
C2372 C2377 1.363 . S
C2373 H2344 0.950 . S
C2373 C2372 1.397 . S
C2373 C2374 1.334 . S
C2374 H2345 0.950 . S
C2374 C2373 1.334 . S
C2374 C2375 1.287 . S
C2375 C2374 1.287 . S
C2375 C2376 1.524 . S
C2375 H2378 0.999 . S
C2376 H2346 0.950 . S
C2376 C2375 1.524 . S
C2376 C2377 1.415 . S
C2377 H2347 0.950 . S
C2377 C2372 1.363 . S
C2377 C2376 1.415 . S
H2378 C2375 0.999 . S
H2379 C2360 0.913 . S
H2380 C2398 0.951 . S
H2381 C2400 0.951 . S
H2382 C2402 0.950 . S
H2383 C2403 0.950 . S
H2384 C2405 0.950 . S
H2385 C2408 0.950 . S
H2386 C2409 0.950 . S
H2387 C2411 0.950 . S
H2388 C2412 0.950 1_545 S
H2389 C2413 0.951 . S
H2390 C2415 0.951 . S
H2391 C2417 0.950 . S
H2392 C2418 0.950 . S
H2393 C2420 0.950 . S
H2394 C2423 0.950 . S
H2395 C2424 0.950 . S
H2396 C2426 0.950 . S
H2397 C2427 0.950 . S
C2398 H2380 0.951 . S
C2398 C2399 1.366 . S
C2398 C2400 1.388 . S
C2399 C2398 1.366 . S
C2399 C2403 1.385 . S
C2400 H2381 0.951 . S
C2400 C2398 1.388 . S
C2400 C2401 1.366 . S
C2401 C2400 1.366 . S
C2401 C2402 1.414 . S
C2401 C2404 1.499 . S
C2402 H2382 0.950 . S
C2402 C2401 1.414 . S
C2402 C2403 1.374 . S
C2403 H2383 0.950 . S
C2403 C2399 1.385 . S
C2403 C2402 1.374 . S
C2404 C2401 1.499 . S
C2404 C2405 1.373 . S
C2404 C2406 1.389 . S
C2405 H2384 0.950 . S
C2405 C2404 1.373 . S
C2405 C2421 1.377 . S
C2406 C2404 1.389 . S
C2406 C2407 1.524 . S
C2406 C2420 1.377 . S
C2407 C2406 1.524 . S
C2407 C2408 1.397 . S
C2407 C2412 1.363 1_545 S
C2408 H2385 0.950 . S
C2408 C2407 1.397 . S
C2408 C2409 1.334 1_545 S
C2409 H2386 0.950 . S
C2409 C2408 1.334 1_565 S
C2409 C2410 1.287 . S
C2410 C2409 1.287 . S
C2410 C2411 1.524 . S
C2410 H2429 0.913 . S
C2411 H2387 0.950 . S
C2411 C2410 1.524 . S
C2411 C2412 1.415 . S
C2412 H2388 0.950 1_565 S
C2412 C2407 1.363 1_565 S
C2412 C2411 1.415 . S
C2413 H2389 0.951 . S
C2413 C2414 1.366 . S
C2413 C2415 1.388 . S
C2414 C2413 1.366 . S
C2414 C2418 1.385 . S
C2415 H2390 0.951 . S
C2415 C2413 1.388 . S
C2415 C2416 1.366 . S
C2416 C2415 1.366 . S
C2416 C2417 1.414 . S
C2416 C2419 1.499 . S
C2417 H2391 0.950 . S
C2417 C2416 1.414 . S
C2417 C2418 1.374 . S
C2418 H2392 0.950 . S
C2418 C2414 1.385 . S
C2418 C2417 1.374 . S
C2419 C2416 1.499 . S
C2419 C2420 1.373 . S
C2419 C2421 1.389 . S
C2420 H2393 0.950 . S
C2420 C2406 1.377 . S
C2420 C2419 1.373 . S
C2421 C2405 1.377 . S
C2421 C2419 1.389 . S
C2421 C2422 1.524 . S
C2422 C2421 1.524 . S
C2422 C2423 1.397 . S
C2422 C2427 1.363 . S
C2423 H2394 0.950 . S
C2423 C2422 1.397 . S
C2423 C2424 1.334 . S
C2424 H2395 0.950 . S
C2424 C2423 1.334 . S
C2424 C2425 1.287 . S
C2425 C2424 1.287 . S
C2425 C2426 1.524 . S
C2425 H2428 0.999 . S
C2426 H2396 0.950 . S
C2426 C2425 1.524 . S
C2426 C2427 1.415 . S
C2427 H2397 0.950 . S
C2427 C2422 1.363 . S
C2427 C2426 1.415 . S
H2428 C2425 0.999 . S
H2429 C2410 0.913 . S
H2430 C2448 0.951 . S
H2431 C2450 0.951 . S
H2432 C2452 0.950 . S
H2433 C2453 0.950 . S
H2434 C2455 0.950 . S
H2435 C2458 0.950 . S
H2436 C2459 0.950 . S
H2437 C2461 0.950 . S
H2438 C2462 0.950 . S
H2439 C2463 0.951 . S
H2440 C2465 0.951 . S
H2441 C2467 0.950 . S
H2442 C2468 0.950 . S
H2443 C2470 0.950 . S
H2444 C2473 0.950 . S
H2445 C2474 0.950 . S
H2446 C2476 0.950 . S
H2447 C2477 0.950 . S
C2448 H2430 0.951 . S
C2448 C2449 1.366 . S
C2448 C2450 1.388 . S
C2449 C2448 1.366 . S
C2449 C2453 1.385 . S
C2450 H2431 0.951 . S
C2450 C2448 1.388 . S
C2450 C2451 1.366 . S
C2451 C2450 1.366 . S
C2451 C2452 1.414 . S
C2451 C2454 1.499 . S
C2452 H2432 0.950 . S
C2452 C2451 1.414 . S
C2452 C2453 1.374 . S
C2453 H2433 0.950 . S
C2453 C2449 1.385 . S
C2453 C2452 1.374 . S
C2454 C2451 1.499 . S
C2454 C2455 1.373 . S
C2454 C2456 1.389 . S
C2455 H2434 0.950 . S
C2455 C2454 1.373 . S
C2455 C2471 1.377 . S
C2456 C2454 1.389 . S
C2456 C2457 1.524 . S
C2456 C2470 1.377 . S
C2457 C2456 1.524 . S
C2457 C2458 1.397 . S
C2457 C2462 1.363 . S
C2458 H2435 0.950 . S
C2458 C2457 1.397 . S
C2458 C2459 1.334 . S
C2459 H2436 0.950 . S
C2459 C2458 1.334 . S
C2459 C2460 1.287 . S
C2460 C2459 1.287 . S
C2460 C2461 1.524 . S
C2460 H2479 0.913 . S
C2461 H2437 0.950 . S
C2461 C2460 1.524 . S
C2461 C2462 1.415 . S
C2462 H2438 0.950 . S
C2462 C2457 1.363 . S
C2462 C2461 1.415 . S
C2463 H2439 0.951 . S
C2463 C2464 1.366 . S
C2463 C2465 1.388 . S
C2464 C2463 1.366 . S
C2464 C2468 1.385 . S
C2465 H2440 0.951 . S
C2465 C2463 1.388 . S
C2465 C2466 1.366 . S
C2466 C2465 1.366 . S
C2466 C2467 1.414 . S
C2466 C2469 1.499 . S
C2467 H2441 0.950 . S
C2467 C2466 1.414 . S
C2467 C2468 1.374 . S
C2468 H2442 0.950 . S
C2468 C2464 1.385 . S
C2468 C2467 1.374 . S
C2469 C2466 1.499 . S
C2469 C2470 1.373 . S
C2469 C2471 1.389 . S
C2470 H2443 0.950 . S
C2470 C2456 1.377 . S
C2470 C2469 1.373 . S
C2471 C2455 1.377 . S
C2471 C2469 1.389 . S
C2471 C2472 1.524 . S
C2472 C2471 1.524 . S
C2472 C2473 1.397 . S
C2472 C2477 1.363 . S
C2473 H2444 0.950 . S
C2473 C2472 1.397 . S
C2473 C2474 1.334 . S
C2474 H2445 0.950 . S
C2474 C2473 1.334 . S
C2474 C2475 1.287 . S
C2475 C2474 1.287 . S
C2475 C2476 1.524 . S
C2475 H2478 0.999 . S
C2476 H2446 0.950 . S
C2476 C2475 1.524 . S
C2476 C2477 1.415 . S
C2477 H2447 0.950 . S
C2477 C2472 1.363 . S
C2477 C2476 1.415 . S
H2478 C2475 0.999 . S
H2479 C2460 0.913 . S
H2480 C2498 0.951 . S
H2481 C2500 0.951 . S
H2482 C2502 0.950 . S
H2483 C2503 0.950 . S
H2484 C2505 0.950 . S
H2485 C2508 0.950 1_565 S
H2486 C2509 0.950 . S
H2487 C2511 0.950 . S
H2488 C2512 0.950 . S
H2489 C2513 0.951 . S
H2490 C2515 0.951 . S
H2491 C2517 0.950 . S
H2492 C2518 0.950 . S
H2493 C2520 0.950 . S
H2494 C2523 0.950 . S
H2495 C2524 0.950 . S
H2496 C2526 0.950 . S
H2497 C2527 0.950 . S
C2498 H2480 0.951 . S
C2498 C2499 1.366 . S
C2498 C2500 1.388 . S
C2499 C2498 1.366 . S
C2499 C2503 1.385 . S
C2500 H2481 0.951 . S
C2500 C2498 1.388 . S
C2500 C2501 1.366 . S
C2501 C2500 1.366 . S
C2501 C2502 1.414 . S
C2501 C2504 1.499 . S
C2502 H2482 0.950 . S
C2502 C2501 1.414 . S
C2502 C2503 1.374 . S
C2503 H2483 0.950 . S
C2503 C2499 1.385 . S
C2503 C2502 1.374 . S
C2504 C2501 1.499 . S
C2504 C2505 1.373 . S
C2504 C2506 1.389 . S
C2505 H2484 0.950 . S
C2505 C2504 1.373 . S
C2505 C2521 1.377 . S
C2506 C2504 1.389 . S
C2506 C2507 1.524 1_565 S
C2506 C2520 1.377 1_565 S
C2507 C2506 1.524 1_545 S
C2507 C2508 1.397 . S
C2507 C2512 1.363 . S
C2508 H2485 0.950 1_545 S
C2508 C2507 1.397 . S
C2508 C2509 1.334 . S
C2509 H2486 0.950 . S
C2509 C2508 1.334 . S
C2509 C2510 1.287 . S
C2510 C2509 1.287 . S
C2510 C2511 1.524 . S
C2510 H2529 0.913 . S
C2511 H2487 0.950 . S
C2511 C2510 1.524 . S
C2511 C2512 1.415 . S
C2512 H2488 0.950 . S
C2512 C2507 1.363 . S
C2512 C2511 1.415 . S
C2513 H2489 0.951 . S
C2513 C2514 1.366 1_565 S
C2513 C2515 1.388 . S
C2514 C2513 1.366 1_545 S
C2514 C2518 1.385 . S
C2515 H2490 0.951 . S
C2515 C2513 1.388 . S
C2515 C2516 1.366 1_565 S
C2516 C2515 1.366 1_545 S
C2516 C2517 1.414 . S
C2516 C2519 1.499 1_545 S
C2517 H2491 0.950 . S
C2517 C2516 1.414 . S
C2517 C2518 1.374 . S
C2518 H2492 0.950 . S
C2518 C2514 1.385 . S
C2518 C2517 1.374 . S
C2519 C2516 1.499 1_565 S
C2519 C2520 1.373 1_565 S
C2519 C2521 1.389 . S
C2520 H2493 0.950 . S
C2520 C2506 1.377 1_545 S
C2520 C2519 1.373 1_545 S
C2521 C2505 1.377 . S
C2521 C2519 1.389 . S
C2521 C2522 1.524 . S
C2522 C2521 1.524 . S
C2522 C2523 1.397 1_554 S
C2522 C2527 1.363 . S
C2523 H2494 0.950 . S
C2523 C2522 1.397 1_556 S
C2523 C2524 1.334 . S
C2524 H2495 0.950 . S
C2524 C2523 1.334 . S
C2524 C2525 1.287 . S
C2525 C2524 1.287 . S
C2525 C2526 1.524 . S
C2525 H2528 0.999 . S
C2526 H2496 0.950 . S
C2526 C2525 1.524 . S
C2526 C2527 1.415 1_556 S
C2527 H2497 0.950 . S
C2527 C2522 1.363 . S
C2527 C2526 1.415 1_554 S
H2528 C2525 0.999 . S
H2529 C2510 0.913 . S
H2530 C2548 0.951 . S
H2531 C2550 0.951 . S
H2532 C2552 0.950 . S
H2533 C2553 0.950 . S
H2534 C2555 0.950 . S
H2535 C2558 0.950 . S
H2536 C2559 0.950 . S
H2537 C2561 0.950 . S
H2538 C2562 0.949 . S
H2539 C2563 0.951 . S
H2540 C2565 0.951 . S
H2541 C2567 0.950 . S
H2542 C2568 0.950 . S
H2543 C2570 0.950 . S
H2544 C2573 0.950 . S
H2545 C2574 0.950 . S
H2546 C2576 0.950 . S
H2547 C2577 0.950 . S
C2548 H2530 0.951 . S
C2548 C2549 1.366 . S
C2548 C2550 1.388 . S
C2549 C2548 1.366 . S
C2549 C2553 1.385 1_556 S
C2550 H2531 0.951 . S
C2550 C2548 1.388 . S
C2550 C2551 1.366 . S
C2551 C2550 1.366 . S
C2551 C2552 1.414 1_556 S
C2551 C2554 1.499 . S
C2552 H2532 0.950 . S
C2552 C2551 1.414 1_554 S
C2552 C2553 1.374 . S
C2553 H2533 0.950 . S
C2553 C2549 1.385 1_554 S
C2553 C2552 1.374 . S
C2554 C2551 1.499 . S
C2554 C2555 1.373 . S
C2554 C2556 1.389 1_556 S
C2555 H2534 0.950 . S
C2555 C2554 1.373 . S
C2555 C2571 1.377 . S
C2556 C2554 1.389 1_554 S
C2556 C2557 1.524 . S
C2556 C2570 1.377 . S
C2557 C2556 1.524 . S
C2557 C2558 1.397 . S
C2557 C2562 1.363 . S
C2558 H2535 0.950 . S
C2558 C2557 1.397 . S
C2558 C2559 1.334 . S
C2559 H2536 0.950 . S
C2559 C2558 1.334 . S
C2559 C2560 1.287 . S
C2560 C2559 1.287 . S
C2560 C2561 1.524 . S
C2560 H2579 0.913 . S
C2561 H2537 0.950 . S
C2561 C2560 1.524 . S
C2561 C2562 1.415 . S
C2562 H2538 0.949 . S
C2562 C2557 1.363 . S
C2562 C2561 1.415 . S
C2563 H2539 0.951 . S
C2563 C2564 1.366 . S
C2563 C2565 1.388 . S
C2564 C2563 1.366 . S
C2564 C2568 1.385 1_554 S
C2565 H2540 0.951 . S
C2565 C2563 1.388 . S
C2565 C2566 1.366 1_554 S
C2566 C2565 1.366 1_556 S
C2566 C2567 1.414 . S
C2566 C2569 1.499 . S
C2567 H2541 0.950 . S
C2567 C2566 1.414 . S
C2567 C2568 1.374 . S
C2568 H2542 0.950 . S
C2568 C2564 1.385 1_556 S
C2568 C2567 1.374 . S
C2569 C2566 1.499 . S
C2569 C2570 1.373 1_556 S
C2569 C2571 1.389 . S
C2570 H2543 0.950 . S
C2570 C2556 1.377 . S
C2570 C2569 1.373 1_554 S
C2571 C2555 1.377 . S
C2571 C2569 1.389 . S
C2571 C2572 1.524 . S
C2572 C2571 1.524 . S
C2572 C2573 1.397 . S
C2572 C2577 1.363 . S
C2573 H2544 0.950 . S
C2573 C2572 1.397 . S
C2573 C2574 1.334 . S
C2574 H2545 0.950 . S
C2574 C2573 1.334 . S
C2574 C2575 1.287 . S
C2575 C2574 1.287 . S
C2575 C2576 1.524 . S
C2575 H2578 0.999 . S
C2576 H2546 0.950 . S
C2576 C2575 1.524 . S
C2576 C2577 1.415 . S
C2577 H2547 0.950 . S
C2577 C2572 1.363 . S
C2577 C2576 1.415 . S
H2578 C2575 0.999 . S
H2579 C2560 0.913 . S
H2580 C2598 0.951 . S
H2581 C2600 0.951 . S
H2582 C2602 0.950 . S
H2583 C2603 0.950 . S
H2584 C2605 0.950 . S
H2585 C2608 0.950 . S
H2586 C2609 0.950 . S
H2587 C2611 0.950 . S
H2588 C2612 0.950 . S
H2589 C2613 0.951 . S
H2590 C2615 0.951 . S
H2591 C2617 0.950 . S
H2592 C2618 0.950 . S
H2593 C2620 0.950 . S
H2594 C2623 0.950 . S
H2595 C2624 0.950 . S
H2596 C2626 0.950 . S
H2597 C2627 0.950 . S
C2598 H2580 0.951 . S
C2598 C2599 1.366 . S
C2598 C2600 1.388 . S
C2599 C2598 1.366 . S
C2599 C2603 1.385 . S
C2600 H2581 0.951 . S
C2600 C2598 1.388 . S
C2600 C2601 1.366 . S
C2601 C2600 1.366 . S
C2601 C2602 1.414 . S
C2601 C2604 1.499 . S
C2602 H2582 0.950 . S
C2602 C2601 1.414 . S
C2602 C2603 1.374 . S
C2603 H2583 0.950 . S
C2603 C2599 1.385 . S
C2603 C2602 1.374 . S
C2604 C2601 1.499 . S
C2604 C2605 1.373 . S
C2604 C2606 1.389 . S
C2605 H2584 0.950 . S
C2605 C2604 1.373 . S
C2605 C2621 1.377 . S
C2606 C2604 1.389 . S
C2606 C2607 1.524 . S
C2606 C2620 1.377 . S
C2607 C2606 1.524 . S
C2607 C2608 1.397 . S
C2607 C2612 1.363 . S
C2608 H2585 0.950 . S
C2608 C2607 1.397 . S
C2608 C2609 1.334 . S
C2609 H2586 0.950 . S
C2609 C2608 1.334 . S
C2609 C2610 1.287 . S
C2610 C2609 1.287 . S
C2610 C2611 1.524 . S
C2610 H2629 0.913 . S
C2611 H2587 0.950 . S
C2611 C2610 1.524 . S
C2611 C2612 1.415 . S
C2612 H2588 0.950 . S
C2612 C2607 1.363 . S
C2612 C2611 1.415 . S
C2613 H2589 0.951 . S
C2613 C2614 1.366 . S
C2613 C2615 1.388 . S
C2614 C2613 1.366 . S
C2614 C2618 1.385 . S
C2615 H2590 0.951 . S
C2615 C2613 1.388 . S
C2615 C2616 1.366 . S
C2616 C2615 1.366 . S
C2616 C2617 1.414 . S
C2616 C2619 1.499 . S
C2617 H2591 0.950 . S
C2617 C2616 1.414 . S
C2617 C2618 1.374 . S
C2618 H2592 0.950 . S
C2618 C2614 1.385 . S
C2618 C2617 1.374 . S
C2619 C2616 1.499 . S
C2619 C2620 1.373 . S
C2619 C2621 1.389 . S
C2620 H2593 0.950 . S
C2620 C2606 1.377 . S
C2620 C2619 1.373 . S
C2621 C2605 1.377 . S
C2621 C2619 1.389 . S
C2621 C2622 1.524 . S
C2622 C2621 1.524 . S
C2622 C2623 1.397 . S
C2622 C2627 1.363 . S
C2623 H2594 0.950 . S
C2623 C2622 1.397 . S
C2623 C2624 1.334 . S
C2624 H2595 0.950 . S
C2624 C2623 1.334 . S
C2624 C2625 1.287 . S
C2625 C2624 1.287 . S
C2625 C2626 1.524 . S
C2625 H2628 0.999 . S
C2626 H2596 0.950 . S
C2626 C2625 1.524 . S
C2626 C2627 1.415 . S
C2627 H2597 0.950 . S
C2627 C2622 1.363 . S
C2627 C2626 1.415 . S
H2628 C2625 0.999 . S
H2629 C2610 0.913 . S
H2630 C2648 0.951 . S
H2631 C2650 0.951 . S
H2632 C2652 0.950 . S
H2633 C2653 0.950 . S
H2634 C2655 0.950 . S
H2635 C2658 0.950 . S
H2636 C2659 0.950 . S
H2637 C2661 0.950 . S
H2638 C2662 0.950 . S
H2639 C2663 0.951 . S
H2640 C2665 0.951 . S
H2641 C2667 0.950 . S
H2642 C2668 0.950 . S
H2643 C2670 0.950 . S
H2644 C2673 0.950 . S
H2645 C2674 0.950 . S
H2646 C2676 0.950 . S
H2647 C2677 0.950 . S
C2648 H2630 0.951 . S
C2648 C2649 1.366 . S
C2648 C2650 1.388 . S
C2649 C2648 1.366 . S
C2649 C2653 1.385 . S
C2650 H2631 0.951 . S
C2650 C2648 1.388 . S
C2650 C2651 1.366 . S
C2651 C2650 1.366 . S
C2651 C2652 1.414 . S
C2651 C2654 1.499 . S
C2652 H2632 0.950 . S
C2652 C2651 1.414 . S
C2652 C2653 1.374 . S
C2653 H2633 0.950 . S
C2653 C2649 1.385 . S
C2653 C2652 1.374 . S
C2654 C2651 1.499 . S
C2654 C2655 1.373 . S
C2654 C2656 1.389 . S
C2655 H2634 0.950 . S
C2655 C2654 1.373 . S
C2655 C2671 1.377 . S
C2656 C2654 1.389 . S
C2656 C2657 1.524 . S
C2656 C2670 1.377 . S
C2657 C2656 1.524 . S
C2657 C2658 1.397 . S
C2657 C2662 1.363 . S
C2658 H2635 0.950 . S
C2658 C2657 1.397 . S
C2658 C2659 1.334 . S
C2659 H2636 0.950 . S
C2659 C2658 1.334 . S
C2659 C2660 1.287 . S
C2660 C2659 1.287 . S
C2660 C2661 1.524 . S
C2660 H2679 0.913 . S
C2661 H2637 0.950 . S
C2661 C2660 1.524 . S
C2661 C2662 1.415 . S
C2662 H2638 0.950 . S
C2662 C2657 1.363 . S
C2662 C2661 1.415 . S
C2663 H2639 0.951 . S
C2663 C2664 1.366 . S
C2663 C2665 1.388 1_455 S
C2664 C2663 1.366 . S
C2664 C2668 1.385 1_455 S
C2665 H2640 0.951 . S
C2665 C2663 1.388 1_655 S
C2665 C2666 1.366 . S
C2666 C2665 1.366 . S
C2666 C2667 1.414 . S
C2666 C2669 1.499 . S
C2667 H2641 0.950 . S
C2667 C2666 1.414 . S
C2667 C2668 1.374 . S
C2668 H2642 0.950 . S
C2668 C2664 1.385 1_655 S
C2668 C2667 1.374 . S
C2669 C2666 1.499 . S
C2669 C2670 1.373 . S
C2669 C2671 1.389 . S
C2670 H2643 0.950 . S
C2670 C2656 1.377 . S
C2670 C2669 1.373 . S
C2671 C2655 1.377 . S
C2671 C2669 1.389 . S
C2671 C2672 1.524 . S
C2672 C2671 1.524 . S
C2672 C2673 1.397 . S
C2672 C2677 1.363 . S
C2673 H2644 0.950 . S
C2673 C2672 1.397 . S
C2673 C2674 1.334 . S
C2674 H2645 0.950 . S
C2674 C2673 1.334 . S
C2674 C2675 1.287 . S
C2675 C2674 1.287 . S
C2675 C2676 1.524 . S
C2675 H2678 0.999 . S
C2676 H2646 0.950 . S
C2676 C2675 1.524 . S
C2676 C2677 1.415 . S
C2677 H2647 0.950 . S
C2677 C2672 1.363 . S
C2677 C2676 1.415 . S
H2678 C2675 0.999 . S
H2679 C2660 0.913 . S
H2680 C2698 0.951 . S
H2681 C2700 0.951 . S
H2682 C2702 0.950 . S
H2683 C2703 0.950 . S
H2684 C2705 0.950 . S
H2685 C2708 0.950 . S
H2686 C2709 0.950 . S
H2687 C2711 0.950 . S
H2688 C2712 0.950 . S
H2689 C2713 0.951 . S
H2690 C2715 0.951 . S
H2691 C2717 0.950 . S
H2692 C2718 0.950 . S
H2693 C2720 0.950 . S
H2694 C2723 0.950 . S
H2695 C2724 0.950 . S
H2696 C2726 0.950 . S
H2697 C2727 0.950 . S
C2698 H2680 0.951 . S
C2698 C2699 1.366 . S
C2698 C2700 1.388 . S
C2699 C2698 1.366 . S
C2699 C2703 1.385 . S
C2700 H2681 0.951 . S
C2700 C2698 1.388 . S
C2700 C2701 1.366 . S
C2701 C2700 1.366 . S
C2701 C2702 1.414 . S
C2701 C2704 1.499 . S
C2702 H2682 0.950 . S
C2702 C2701 1.414 . S
C2702 C2703 1.374 . S
C2703 H2683 0.950 . S
C2703 C2699 1.385 . S
C2703 C2702 1.374 . S
C2704 C2701 1.499 . S
C2704 C2705 1.373 . S
C2704 C2706 1.389 . S
C2705 H2684 0.950 . S
C2705 C2704 1.373 . S
C2705 C2721 1.377 . S
C2706 C2704 1.389 . S
C2706 C2707 1.524 . S
C2706 C2720 1.377 . S
C2707 C2706 1.524 . S
C2707 C2708 1.397 . S
C2707 C2712 1.363 . S
C2708 H2685 0.950 . S
C2708 C2707 1.397 . S
C2708 C2709 1.334 . S
C2709 H2686 0.950 . S
C2709 C2708 1.334 . S
C2709 C2710 1.287 . S
C2710 C2709 1.287 . S
C2710 C2711 1.524 . S
C2710 H2729 0.913 . S
C2711 H2687 0.950 . S
C2711 C2710 1.524 . S
C2711 C2712 1.415 . S
C2712 H2688 0.950 . S
C2712 C2707 1.363 . S
C2712 C2711 1.415 . S
C2713 H2689 0.951 . S
C2713 C2714 1.366 . S
C2713 C2715 1.388 . S
C2714 C2713 1.366 . S
C2714 C2718 1.385 . S
C2715 H2690 0.951 . S
C2715 C2713 1.388 . S
C2715 C2716 1.366 . S
C2716 C2715 1.366 . S
C2716 C2717 1.414 . S
C2716 C2719 1.499 . S
C2717 H2691 0.950 . S
C2717 C2716 1.414 . S
C2717 C2718 1.374 . S
C2718 H2692 0.950 . S
C2718 C2714 1.385 . S
C2718 C2717 1.374 . S
C2719 C2716 1.499 . S
C2719 C2720 1.373 . S
C2719 C2721 1.389 . S
C2720 H2693 0.950 . S
C2720 C2706 1.377 . S
C2720 C2719 1.373 . S
C2721 C2705 1.377 . S
C2721 C2719 1.389 . S
C2721 C2722 1.524 . S
C2722 C2721 1.524 . S
C2722 C2723 1.397 . S
C2722 C2727 1.363 . S
C2723 H2694 0.950 . S
C2723 C2722 1.397 . S
C2723 C2724 1.334 . S
C2724 H2695 0.950 . S
C2724 C2723 1.334 . S
C2724 C2725 1.287 . S
C2725 C2724 1.287 . S
C2725 C2726 1.524 . S
C2725 H2728 0.999 . S
C2726 H2696 0.950 . S
C2726 C2725 1.524 . S
C2726 C2727 1.415 . S
C2727 H2697 0.950 . S
C2727 C2722 1.363 . S
C2727 C2726 1.415 . S
H2728 C2725 0.999 . S
H2729 C2710 0.913 . S
H2730 C2748 0.951 . S
H2731 C2750 0.951 . S
H2732 C2752 0.950 . S
H2733 C2753 0.950 . S
H2734 C2755 0.950 . S
H2735 C2758 0.950 . S
H2736 C2759 0.950 . S
H2737 C2761 0.950 . S
H2738 C2762 0.950 . S
H2739 C2763 0.951 . S
H2740 C2765 0.951 . S
H2741 C2767 0.950 . S
H2742 C2768 0.950 . S
H2743 C2770 0.950 . S
H2744 C2773 0.950 . S
H2745 C2774 0.950 . S
H2746 C2776 0.950 . S
H2747 C2777 0.950 . S
C2748 H2730 0.951 . S
C2748 C2749 1.366 . S
C2748 C2750 1.388 . S
C2749 C2748 1.366 . S
C2749 C2753 1.385 . S
C2750 H2731 0.951 . S
C2750 C2748 1.388 . S
C2750 C2751 1.366 . S
C2751 C2750 1.366 . S
C2751 C2752 1.414 . S
C2751 C2754 1.499 . S
C2752 H2732 0.950 . S
C2752 C2751 1.414 . S
C2752 C2753 1.374 . S
C2753 H2733 0.950 . S
C2753 C2749 1.385 . S
C2753 C2752 1.374 . S
C2754 C2751 1.499 . S
C2754 C2755 1.373 . S
C2754 C2756 1.389 . S
C2755 H2734 0.950 . S
C2755 C2754 1.373 . S
C2755 C2771 1.377 . S
C2756 C2754 1.389 . S
C2756 C2757 1.524 . S
C2756 C2770 1.377 . S
C2757 C2756 1.524 . S
C2757 C2758 1.397 . S
C2757 C2762 1.363 . S
C2758 H2735 0.950 . S
C2758 C2757 1.397 . S
C2758 C2759 1.334 . S
C2759 H2736 0.950 . S
C2759 C2758 1.334 . S
C2759 C2760 1.287 . S
C2760 C2759 1.287 . S
C2760 C2761 1.524 . S
C2760 H2779 0.913 . S
C2761 H2737 0.950 . S
C2761 C2760 1.524 . S
C2761 C2762 1.415 . S
C2762 H2738 0.950 . S
C2762 C2757 1.363 . S
C2762 C2761 1.415 . S
C2763 H2739 0.951 . S
C2763 C2764 1.366 . S
C2763 C2765 1.388 . S
C2764 C2763 1.366 . S
C2764 C2768 1.385 . S
C2765 H2740 0.951 . S
C2765 C2763 1.388 . S
C2765 C2766 1.366 . S
C2766 C2765 1.366 . S
C2766 C2767 1.414 . S
C2766 C2769 1.499 . S
C2767 H2741 0.950 . S
C2767 C2766 1.414 . S
C2767 C2768 1.374 . S
C2768 H2742 0.950 . S
C2768 C2764 1.385 . S
C2768 C2767 1.374 . S
C2769 C2766 1.499 . S
C2769 C2770 1.373 . S
C2769 C2771 1.389 . S
C2770 H2743 0.950 . S
C2770 C2756 1.377 . S
C2770 C2769 1.373 . S
C2771 C2755 1.377 . S
C2771 C2769 1.389 . S
C2771 C2772 1.524 . S
C2772 C2771 1.524 . S
C2772 C2773 1.397 . S
C2772 C2777 1.363 . S
C2773 H2744 0.950 . S
C2773 C2772 1.397 . S
C2773 C2774 1.334 . S
C2774 H2745 0.950 . S
C2774 C2773 1.334 . S
C2774 C2775 1.287 . S
C2775 C2774 1.287 . S
C2775 C2776 1.524 . S
C2775 H2778 0.999 . S
C2776 H2746 0.950 . S
C2776 C2775 1.524 . S
C2776 C2777 1.415 . S
C2777 H2747 0.950 . S
C2777 C2772 1.363 . S
C2777 C2776 1.415 . S
H2778 C2775 0.999 . S
H2779 C2760 0.913 . S
H2780 C2798 0.951 . S
H2781 C2800 0.951 . S
H2782 C2802 0.950 . S
H2783 C2803 0.950 . S
H2784 C2805 0.950 . S
H2785 C2808 0.950 . S
H2786 C2809 0.950 . S
H2787 C2811 0.950 . S
H2788 C2812 0.950 . S
H2789 C2813 0.951 . S
H2790 C2815 0.951 . S
H2791 C2817 0.950 . S
H2792 C2818 0.950 . S
H2793 C2820 0.950 . S
H2794 C2823 0.950 . S
H2795 C2824 0.950 . S
H2796 C2826 0.950 . S
H2797 C2827 0.950 . S
C2798 H2780 0.951 . S
C2798 C2799 1.366 . S
C2798 C2800 1.388 . S
C2799 C2798 1.366 . S
C2799 C2803 1.385 . S
C2800 H2781 0.951 . S
C2800 C2798 1.388 . S
C2800 C2801 1.366 . S
C2801 C2800 1.366 . S
C2801 C2802 1.414 . S
C2801 C2804 1.499 . S
C2802 H2782 0.950 . S
C2802 C2801 1.414 . S
C2802 C2803 1.374 . S
C2803 H2783 0.950 . S
C2803 C2799 1.385 . S
C2803 C2802 1.374 . S
C2804 C2801 1.499 . S
C2804 C2805 1.373 . S
C2804 C2806 1.389 . S
C2805 H2784 0.950 . S
C2805 C2804 1.373 . S
C2805 C2821 1.377 . S
C2806 C2804 1.389 . S
C2806 C2807 1.524 . S
C2806 C2820 1.377 . S
C2807 C2806 1.524 . S
C2807 C2808 1.397 . S
C2807 C2812 1.363 . S
C2808 H2785 0.950 . S
C2808 C2807 1.397 . S
C2808 C2809 1.334 . S
C2809 H2786 0.950 . S
C2809 C2808 1.334 . S
C2809 C2810 1.287 . S
C2810 C2809 1.287 . S
C2810 C2811 1.524 . S
C2810 H2829 0.913 . S
C2811 H2787 0.950 . S
C2811 C2810 1.524 . S
C2811 C2812 1.415 . S
C2812 H2788 0.950 . S
C2812 C2807 1.363 . S
C2812 C2811 1.415 . S
C2813 H2789 0.951 . S
C2813 C2814 1.366 . S
C2813 C2815 1.388 . S
C2814 C2813 1.366 . S
C2814 C2818 1.385 . S
C2815 H2790 0.951 . S
C2815 C2813 1.388 . S
C2815 C2816 1.366 . S
C2816 C2815 1.366 . S
C2816 C2817 1.414 . S
C2816 C2819 1.499 . S
C2817 H2791 0.950 . S
C2817 C2816 1.414 . S
C2817 C2818 1.374 . S
C2818 H2792 0.950 . S
C2818 C2814 1.385 . S
C2818 C2817 1.374 . S
C2819 C2816 1.499 . S
C2819 C2820 1.373 . S
C2819 C2821 1.389 . S
C2820 H2793 0.950 . S
C2820 C2806 1.377 . S
C2820 C2819 1.373 . S
C2821 C2805 1.377 . S
C2821 C2819 1.389 . S
C2821 C2822 1.524 . S
C2822 C2821 1.524 . S
C2822 C2823 1.397 . S
C2822 C2827 1.363 . S
C2823 H2794 0.950 . S
C2823 C2822 1.397 . S
C2823 C2824 1.334 . S
C2824 H2795 0.950 . S
C2824 C2823 1.334 . S
C2824 C2825 1.287 . S
C2825 C2824 1.287 . S
C2825 C2826 1.524 . S
C2825 H2828 0.999 . S
C2826 H2796 0.950 . S
C2826 C2825 1.524 . S
C2826 C2827 1.415 . S
C2827 H2797 0.950 . S
C2827 C2822 1.363 . S
C2827 C2826 1.415 . S
H2828 C2825 0.999 . S
H2829 C2810 0.913 . S
H2830 C2848 0.951 . S
H2831 C2850 0.951 . S
H2832 C2852 0.950 . S
H2833 C2853 0.950 . S
H2834 C2855 0.950 . S
H2835 C2858 0.950 . S
H2836 C2859 0.950 . S
H2837 C2861 0.950 . S
H2838 C2862 0.950 . S
H2839 C2863 0.951 . S
H2840 C2865 0.951 . S
H2841 C2867 0.950 . S
H2842 C2868 0.950 . S
H2843 C2870 0.950 . S
H2844 C2873 0.950 . S
H2845 C2874 0.950 . S
H2846 C2876 0.950 . S
H2847 C2877 0.950 . S
C2848 H2830 0.951 . S
C2848 C2849 1.366 . S
C2848 C2850 1.388 . S
C2849 C2848 1.366 . S
C2849 C2853 1.385 . S
C2850 H2831 0.951 . S
C2850 C2848 1.388 . S
C2850 C2851 1.366 . S
C2851 C2850 1.366 . S
C2851 C2852 1.414 . S
C2851 C2854 1.499 . S
C2852 H2832 0.950 . S
C2852 C2851 1.414 . S
C2852 C2853 1.374 . S
C2853 H2833 0.950 . S
C2853 C2849 1.385 . S
C2853 C2852 1.374 . S
C2854 C2851 1.499 . S
C2854 C2855 1.373 . S
C2854 C2856 1.389 . S
C2855 H2834 0.950 . S
C2855 C2854 1.373 . S
C2855 C2871 1.377 . S
C2856 C2854 1.389 . S
C2856 C2857 1.524 . S
C2856 C2870 1.377 . S
C2857 C2856 1.524 . S
C2857 C2858 1.397 . S
C2857 C2862 1.363 . S
C2858 H2835 0.950 . S
C2858 C2857 1.397 . S
C2858 C2859 1.334 . S
C2859 H2836 0.950 . S
C2859 C2858 1.334 . S
C2859 C2860 1.287 . S
C2860 C2859 1.287 . S
C2860 C2861 1.524 . S
C2860 H2879 0.913 . S
C2861 H2837 0.950 . S
C2861 C2860 1.524 . S
C2861 C2862 1.415 . S
C2862 H2838 0.950 . S
C2862 C2857 1.363 . S
C2862 C2861 1.415 . S
C2863 H2839 0.951 . S
C2863 C2864 1.366 . S
C2863 C2865 1.388 . S
C2864 C2863 1.366 . S
C2864 C2868 1.385 . S
C2865 H2840 0.951 . S
C2865 C2863 1.388 . S
C2865 C2866 1.366 . S
C2866 C2865 1.366 . S
C2866 C2867 1.414 . S
C2866 C2869 1.499 . S
C2867 H2841 0.950 . S
C2867 C2866 1.414 . S
C2867 C2868 1.374 . S
C2868 H2842 0.950 . S
C2868 C2864 1.385 . S
C2868 C2867 1.374 . S
C2869 C2866 1.499 . S
C2869 C2870 1.373 . S
C2869 C2871 1.389 . S
C2870 H2843 0.950 . S
C2870 C2856 1.377 . S
C2870 C2869 1.373 . S
C2871 C2855 1.377 . S
C2871 C2869 1.389 . S
C2871 C2872 1.524 . S
C2872 C2871 1.524 . S
C2872 C2873 1.397 . S
C2872 C2877 1.363 . S
C2873 H2844 0.950 . S
C2873 C2872 1.397 . S
C2873 C2874 1.334 . S
C2874 H2845 0.950 . S
C2874 C2873 1.334 . S
C2874 C2875 1.287 . S
C2875 C2874 1.287 . S
C2875 C2876 1.524 . S
C2875 H2878 0.999 . S
C2876 H2846 0.950 . S
C2876 C2875 1.524 . S
C2876 C2877 1.415 . S
C2877 H2847 0.950 . S
C2877 C2872 1.363 . S
C2877 C2876 1.415 . S
H2878 C2875 0.999 . S
H2879 C2860 0.913 . S
H2880 C2898 0.951 . S
H2881 C2900 0.951 . S
H2882 C2902 0.950 . S
H2883 C2903 0.950 . S
H2884 C2905 0.950 . S
H2885 C2908 0.950 . S
H2886 C2909 0.950 . S
H2887 C2911 0.950 . S
H2888 C2912 0.950 . S
H2889 C2913 0.951 . S
H2890 C2915 0.951 . S
H2891 C2917 0.950 . S
H2892 C2918 0.950 . S
H2893 C2920 0.950 . S
H2894 C2923 0.950 . S
H2895 C2924 0.950 . S
H2896 C2926 0.964 . S
H2897 C2927 0.950 . S
C2898 H2880 0.951 . S
C2898 C2899 1.366 . S
C2898 C2900 1.388 . S
C2899 C2898 1.366 . S
C2899 C2903 1.385 . S
C2900 H2881 0.951 . S
C2900 C2898 1.388 . S
C2900 C2901 1.366 . S
C2901 C2900 1.366 . S
C2901 C2902 1.414 . S
C2901 C2904 1.499 . S
C2902 H2882 0.950 . S
C2902 C2901 1.414 . S
C2902 C2903 1.374 . S
C2903 H2883 0.950 . S
C2903 C2899 1.385 . S
C2903 C2902 1.374 . S
C2904 C2901 1.499 . S
C2904 C2905 1.373 . S
C2904 C2906 1.389 . S
C2905 H2884 0.950 . S
C2905 C2904 1.373 . S
C2905 C2921 1.377 . S
C2906 C2904 1.389 . S
C2906 C2907 1.524 . S
C2906 C2920 1.377 . S
C2907 C2906 1.524 . S
C2907 C2908 1.397 . S
C2907 C2912 1.363 . S
C2908 H2885 0.950 . S
C2908 C2907 1.397 . S
C2908 C2909 1.334 . S
C2909 H2886 0.950 . S
C2909 C2908 1.334 . S
C2909 C2910 1.287 . S
C2910 C2909 1.287 . S
C2910 C2911 1.524 . S
C2910 H2929 0.913 . S
C2911 H2887 0.950 . S
C2911 C2910 1.524 . S
C2911 C2912 1.415 . S
C2912 H2888 0.950 . S
C2912 C2907 1.363 . S
C2912 C2911 1.415 . S
C2913 H2889 0.951 . S
C2913 C2914 1.366 . S
C2913 C2915 1.388 . S
C2914 C2913 1.366 . S
C2914 C2918 1.385 . S
C2915 H2890 0.951 . S
C2915 C2913 1.388 . S
C2915 C2916 1.366 . S
C2916 C2915 1.366 . S
C2916 C2917 1.414 . S
C2916 C2919 1.499 . S
C2917 H2891 0.950 . S
C2917 C2916 1.414 . S
C2917 C2918 1.374 . S
C2918 H2892 0.950 . S
C2918 C2914 1.385 . S
C2918 C2917 1.374 . S
C2919 C2916 1.499 . S
C2919 C2920 1.373 . S
C2919 C2921 1.389 . S
C2920 H2893 0.950 . S
C2920 C2906 1.377 . S
C2920 C2919 1.373 . S
C2921 C2905 1.377 . S
C2921 C2919 1.389 . S
C2921 C2922 1.524 . S
C2922 C2921 1.524 . S
C2922 C2923 1.397 . S
C2922 C2927 1.363 . S
C2923 H2894 0.950 . S
C2923 C2922 1.397 . S
C2923 C2924 1.334 . S
C2924 H2895 0.950 . S
C2924 C2923 1.334 . S
C2924 C2925 1.273 1_455 S
C2925 C2924 1.273 1_655 S
C2925 C2926 1.516 1_655 S
C2925 H2928 1.024 . S
C2926 H2896 0.964 . S
C2926 C2925 1.516 1_455 S
C2926 C2927 1.415 . S
C2927 H2897 0.950 . S
C2927 C2922 1.363 . S
C2927 C2926 1.415 . S
H2928 C2925 1.024 . S
H2929 C2910 0.913 . S
H2930 C2948 0.951 . S
H2931 C2950 0.951 . S
H2932 C2952 0.950 . S
H2933 C2953 0.950 . S
H2934 C2955 0.950 . S
H2935 C2958 0.950 . S
H2936 C2959 0.950 . S
H2937 C2961 0.950 . S
H2938 C2962 0.950 . S
H2939 C2963 0.951 . S
H2940 C2965 0.951 . S
H2941 C2967 0.950 . S
H2942 C2968 0.950 . S
H2943 C2970 0.950 . S
H2944 C2973 0.950 . S
H2945 C2974 0.950 . S
H2946 C2976 0.950 . S
H2947 C2977 0.950 . S
C2948 H2930 0.951 . S
C2948 C2949 1.366 . S
C2948 C2950 1.388 . S
C2949 C2948 1.366 . S
C2949 C2953 1.385 . S
C2950 H2931 0.951 . S
C2950 C2948 1.388 . S
C2950 C2951 1.366 . S
C2951 C2950 1.366 . S
C2951 C2952 1.414 . S
C2951 C2954 1.499 . S
C2952 H2932 0.950 . S
C2952 C2951 1.414 . S
C2952 C2953 1.374 . S
C2953 H2933 0.950 . S
C2953 C2949 1.385 . S
C2953 C2952 1.374 . S
C2954 C2951 1.499 . S
C2954 C2955 1.373 . S
C2954 C2956 1.389 . S
C2955 H2934 0.950 . S
C2955 C2954 1.373 . S
C2955 C2971 1.377 . S
C2956 C2954 1.389 . S
C2956 C2957 1.524 . S
C2956 C2970 1.377 . S
C2957 C2956 1.524 . S
C2957 C2958 1.397 . S
C2957 C2962 1.363 . S
C2958 H2935 0.950 . S
C2958 C2957 1.397 . S
C2958 C2959 1.334 . S
C2959 H2936 0.950 . S
C2959 C2958 1.334 . S
C2959 C2960 1.287 . S
C2960 C2959 1.287 . S
C2960 C2961 1.524 . S
C2960 H2979 0.913 . S
C2961 H2937 0.950 . S
C2961 C2960 1.524 . S
C2961 C2962 1.415 . S
C2962 H2938 0.950 . S
C2962 C2957 1.363 . S
C2962 C2961 1.415 . S
C2963 H2939 0.951 . S
C2963 C2964 1.366 . S
C2963 C2965 1.388 . S
C2964 C2963 1.366 . S
C2964 C2968 1.385 . S
C2965 H2940 0.951 . S
C2965 C2963 1.388 . S
C2965 C2966 1.366 . S
C2966 C2965 1.366 . S
C2966 C2967 1.414 . S
C2966 C2969 1.499 . S
C2967 H2941 0.950 . S
C2967 C2966 1.414 . S
C2967 C2968 1.374 . S
C2968 H2942 0.950 . S
C2968 C2964 1.385 . S
C2968 C2967 1.374 . S
C2969 C2966 1.499 . S
C2969 C2970 1.373 . S
C2969 C2971 1.389 . S
C2970 H2943 0.950 . S
C2970 C2956 1.377 . S
C2970 C2969 1.373 . S
C2971 C2955 1.377 . S
C2971 C2969 1.389 . S
C2971 C2972 1.524 . S
C2972 C2971 1.524 . S
C2972 C2973 1.397 . S
C2972 C2977 1.363 . S
C2973 H2944 0.950 . S
C2973 C2972 1.397 . S
C2973 C2974 1.334 . S
C2974 H2945 0.950 . S
C2974 C2973 1.334 . S
C2974 C2975 1.287 . S
C2975 C2974 1.287 . S
C2975 C2976 1.524 . S
C2975 H2978 0.999 . S
C2976 H2946 0.950 . S
C2976 C2975 1.524 . S
C2976 C2977 1.415 . S
C2977 H2947 0.950 . S
C2977 C2972 1.363 . S
C2977 C2976 1.415 . S
H2978 C2975 0.999 . S
H2979 C2960 0.913 . S
H2980 C2998 0.951 . S
H2981 C3000 0.951 . S
H2982 C3002 0.950 . S
H2983 C3003 0.950 . S
H2984 C3005 0.950 . S
H2985 C3008 0.950 . S
H2986 C3009 0.950 . S
H2987 C3011 0.950 . S
H2988 C3012 0.950 . S
H2989 C3013 0.951 . S
H2990 C3015 0.951 . S
H2991 C3017 0.950 . S
H2992 C3018 0.950 . S
H2993 C3020 0.950 . S
H2994 C3023 0.950 . S
H2995 C3024 0.950 . S
H2996 C3026 0.950 . S
H2997 C3027 0.950 . S
C2998 H2980 0.951 . S
C2998 C2999 1.366 . S
C2998 C3000 1.388 . S
C2999 C2998 1.366 . S
C2999 C3003 1.385 . S
C3000 H2981 0.951 . S
C3000 C2998 1.388 . S
C3000 C3001 1.366 . S
C3001 C3000 1.366 . S
C3001 C3002 1.414 . S
C3001 C3004 1.499 . S
C3002 H2982 0.950 . S
C3002 C3001 1.414 . S
C3002 C3003 1.374 . S
C3003 H2983 0.950 . S
C3003 C2999 1.385 . S
C3003 C3002 1.374 . S
C3004 C3001 1.499 . S
C3004 C3005 1.373 . S
C3004 C3006 1.389 . S
C3005 H2984 0.950 . S
C3005 C3004 1.373 . S
C3005 C3021 1.377 . S
C3006 C3004 1.389 . S
C3006 C3007 1.524 . S
C3006 C3020 1.377 . S
C3007 C3006 1.524 . S
C3007 C3008 1.397 . S
C3007 C3012 1.363 . S
C3008 H2985 0.950 . S
C3008 C3007 1.397 . S
C3008 C3009 1.334 . S
C3009 H2986 0.950 . S
C3009 C3008 1.334 . S
C3009 C3010 1.287 . S
C3010 C3009 1.287 . S
C3010 C3011 1.524 . S
C3010 H3029 0.913 . S
C3011 H2987 0.950 . S
C3011 C3010 1.524 . S
C3011 C3012 1.415 . S
C3012 H2988 0.950 . S
C3012 C3007 1.363 . S
C3012 C3011 1.415 . S
C3013 H2989 0.951 . S
C3013 C3014 1.366 . S
C3013 C3015 1.388 . S
C3014 C3013 1.366 . S
C3014 C3018 1.385 . S
C3015 H2990 0.951 . S
C3015 C3013 1.388 . S
C3015 C3016 1.366 . S
C3016 C3015 1.366 . S
C3016 C3017 1.414 . S
C3016 C3019 1.499 . S
C3017 H2991 0.950 . S
C3017 C3016 1.414 . S
C3017 C3018 1.374 . S
C3018 H2992 0.950 . S
C3018 C3014 1.385 . S
C3018 C3017 1.374 . S
C3019 C3016 1.499 . S
C3019 C3020 1.373 . S
C3019 C3021 1.389 . S
C3020 H2993 0.950 . S
C3020 C3006 1.377 . S
C3020 C3019 1.373 . S
C3021 C3005 1.377 . S
C3021 C3019 1.389 . S
C3021 C3022 1.524 . S
C3022 C3021 1.524 . S
C3022 C3023 1.397 . S
C3022 C3027 1.363 . S
C3023 H2994 0.950 . S
C3023 C3022 1.397 . S
C3023 C3024 1.334 . S
C3024 H2995 0.950 . S
C3024 C3023 1.334 . S
C3024 C3025 1.287 . S
C3025 C3024 1.287 . S
C3025 C3026 1.524 . S
C3025 H3028 0.999 . S
C3026 H2996 0.950 . S
C3026 C3025 1.524 . S
C3026 C3027 1.415 . S
C3027 H2997 0.950 . S
C3027 C3022 1.363 . S
C3027 C3026 1.415 . S
H3028 C3025 0.999 . S
H3029 C3010 0.913 . S
H3030 C3048 0.951 . S
H3031 C3050 0.951 . S
H3032 C3052 0.950 . S
H3033 C3053 0.950 . S
H3034 C3055 0.950 . S
H3035 C3058 0.950 . S
H3036 C3059 0.950 . S
H3037 C3061 0.950 . S
H3038 C3062 0.950 . S
H3039 C3063 0.951 . S
H3040 C3065 0.951 . S
H3041 C3067 0.950 . S
H3042 C3068 0.950 . S
H3043 C3070 0.950 . S
H3044 C3073 0.950 . S
H3045 C3074 0.950 . S
H3046 C3076 0.950 . S
H3047 C3077 0.950 . S
C3048 H3030 0.951 . S
C3048 C3049 1.366 . S
C3048 C3050 1.388 . S
C3049 C3048 1.366 . S
C3049 C3053 1.385 . S
C3050 H3031 0.951 . S
C3050 C3048 1.388 . S
C3050 C3051 1.366 . S
C3051 C3050 1.366 . S
C3051 C3052 1.414 . S
C3051 C3054 1.499 . S
C3052 H3032 0.950 . S
C3052 C3051 1.414 . S
C3052 C3053 1.374 . S
C3053 H3033 0.950 . S
C3053 C3049 1.385 . S
C3053 C3052 1.374 . S
C3054 C3051 1.499 . S
C3054 C3055 1.373 . S
C3054 C3056 1.389 . S
C3055 H3034 0.950 . S
C3055 C3054 1.373 . S
C3055 C3071 1.377 . S
C3056 C3054 1.389 . S
C3056 C3057 1.524 . S
C3056 C3070 1.377 . S
C3057 C3056 1.524 . S
C3057 C3058 1.397 . S
C3057 C3062 1.363 . S
C3058 H3035 0.950 . S
C3058 C3057 1.397 . S
C3058 C3059 1.334 . S
C3059 H3036 0.950 . S
C3059 C3058 1.334 . S
C3059 C3060 1.287 . S
C3060 C3059 1.287 . S
C3060 C3061 1.524 . S
C3060 H3079 0.913 . S
C3061 H3037 0.950 . S
C3061 C3060 1.524 . S
C3061 C3062 1.415 . S
C3062 H3038 0.950 . S
C3062 C3057 1.363 . S
C3062 C3061 1.415 . S
C3063 H3039 0.951 . S
C3063 C3064 1.366 . S
C3063 C3065 1.388 . S
C3064 C3063 1.366 . S
C3064 C3068 1.385 . S
C3065 H3040 0.951 . S
C3065 C3063 1.388 . S
C3065 C3066 1.366 . S
C3066 C3065 1.366 . S
C3066 C3067 1.414 . S
C3066 C3069 1.499 . S
C3067 H3041 0.950 . S
C3067 C3066 1.414 . S
C3067 C3068 1.374 . S
C3068 H3042 0.950 . S
C3068 C3064 1.385 . S
C3068 C3067 1.374 . S
C3069 C3066 1.499 . S
C3069 C3070 1.373 . S
C3069 C3071 1.389 . S
C3070 H3043 0.950 . S
C3070 C3056 1.377 . S
C3070 C3069 1.373 . S
C3071 C3055 1.377 . S
C3071 C3069 1.389 . S
C3071 C3072 1.524 . S
C3072 C3071 1.524 . S
C3072 C3073 1.397 . S
C3072 C3077 1.363 . S
C3073 H3044 0.950 . S
C3073 C3072 1.397 . S
C3073 C3074 1.334 . S
C3074 H3045 0.950 . S
C3074 C3073 1.334 . S
C3074 C3075 1.287 . S
C3075 C3074 1.287 . S
C3075 C3076 1.524 . S
C3075 H3078 0.999 . S
C3076 H3046 0.950 . S
C3076 C3075 1.524 . S
C3076 C3077 1.415 . S
C3077 H3047 0.950 . S
C3077 C3072 1.363 . S
C3077 C3076 1.415 . S
H3078 C3075 0.999 . S
H3079 C3060 0.913 . S
H3080 C3098 0.951 . S
H3081 C3100 0.951 . S
H3082 C3102 0.950 . S
H3083 C3103 0.950 . S
H3084 C3105 0.950 . S
H3085 C3108 0.950 . S
H3086 C3109 0.950 . S
H3087 C3111 0.950 . S
H3088 C3112 0.950 . S
H3089 C3113 0.951 . S
H3090 C3115 0.951 . S
H3091 C3117 0.950 . S
H3092 C3118 0.950 . S
H3093 C3120 0.950 . S
H3094 C3123 0.950 . S
H3095 C3124 0.950 . S
H3096 C3126 0.950 . S
H3097 C3127 0.950 . S
C3098 H3080 0.951 . S
C3098 C3099 1.366 . S
C3098 C3100 1.388 . S
C3099 C3098 1.366 . S
C3099 C3103 1.385 . S
C3100 H3081 0.951 . S
C3100 C3098 1.388 . S
C3100 C3101 1.366 . S
C3101 C3100 1.366 . S
C3101 C3102 1.414 . S
C3101 C3104 1.499 . S
C3102 H3082 0.950 . S
C3102 C3101 1.414 . S
C3102 C3103 1.374 . S
C3103 H3083 0.950 . S
C3103 C3099 1.385 . S
C3103 C3102 1.374 . S
C3104 C3101 1.499 . S
C3104 C3105 1.373 . S
C3104 C3106 1.389 . S
C3105 H3084 0.950 . S
C3105 C3104 1.373 . S
C3105 C3121 1.377 . S
C3106 C3104 1.389 . S
C3106 C3107 1.524 . S
C3106 C3120 1.377 . S
C3107 C3106 1.524 . S
C3107 C3108 1.397 . S
C3107 C3112 1.363 . S
C3108 H3085 0.950 . S
C3108 C3107 1.397 . S
C3108 C3109 1.334 . S
C3109 H3086 0.950 . S
C3109 C3108 1.334 . S
C3109 C3110 1.287 . S
C3110 C3109 1.287 . S
C3110 C3111 1.524 . S
C3110 H3129 0.913 . S
C3111 H3087 0.950 . S
C3111 C3110 1.524 . S
C3111 C3112 1.415 . S
C3112 H3088 0.950 . S
C3112 C3107 1.363 . S
C3112 C3111 1.415 . S
C3113 H3089 0.951 . S
C3113 C3114 1.366 . S
C3113 C3115 1.388 . S
C3114 C3113 1.366 . S
C3114 C3118 1.385 . S
C3115 H3090 0.951 . S
C3115 C3113 1.388 . S
C3115 C3116 1.366 . S
C3116 C3115 1.366 . S
C3116 C3117 1.414 . S
C3116 C3119 1.499 . S
C3117 H3091 0.950 . S
C3117 C3116 1.414 . S
C3117 C3118 1.374 . S
C3118 H3092 0.950 . S
C3118 C3114 1.385 . S
C3118 C3117 1.374 . S
C3119 C3116 1.499 . S
C3119 C3120 1.373 . S
C3119 C3121 1.389 . S
C3120 H3093 0.950 . S
C3120 C3106 1.377 . S
C3120 C3119 1.373 . S
C3121 C3105 1.377 . S
C3121 C3119 1.389 . S
C3121 C3122 1.524 . S
C3122 C3121 1.524 . S
C3122 C3123 1.397 . S
C3122 C3127 1.363 . S
C3123 H3094 0.950 . S
C3123 C3122 1.397 . S
C3123 C3124 1.334 . S
C3124 H3095 0.950 . S
C3124 C3123 1.334 . S
C3124 C3125 1.287 . S
C3125 C3124 1.287 . S
C3125 C3126 1.524 . S
C3125 H3128 0.999 . S
C3126 H3096 0.950 . S
C3126 C3125 1.524 . S
C3126 C3127 1.415 . S
C3127 H3097 0.950 . S
C3127 C3122 1.363 . S
C3127 C3126 1.415 . S
H3128 C3125 0.999 . S
H3129 C3110 0.913 . S
H3130 C3148 0.951 . S
H3131 C3150 0.951 . S
H3132 C3152 0.950 . S
H3133 C3153 0.950 . S
H3134 C3155 0.950 . S
H3135 C3158 0.950 . S
H3136 C3159 0.950 . S
H3137 C3161 0.950 . S
H3138 C3162 0.950 . S
H3139 C3163 0.951 . S
H3140 C3165 0.951 . S
H3141 C3167 0.950 . S
H3142 C3168 0.950 . S
H3143 C3170 0.950 . S
H3144 C3173 0.950 . S
H3145 C3174 0.950 . S
H3146 C3176 0.950 . S
H3147 C3177 0.950 . S
C3148 H3130 0.951 . S
C3148 C3149 1.366 . S
C3148 C3150 1.388 . S
C3149 C3148 1.366 . S
C3149 C3153 1.385 . S
C3150 H3131 0.951 . S
C3150 C3148 1.388 . S
C3150 C3151 1.366 . S
C3151 C3150 1.366 . S
C3151 C3152 1.414 . S
C3151 C3154 1.499 . S
C3152 H3132 0.950 . S
C3152 C3151 1.414 . S
C3152 C3153 1.374 . S
C3153 H3133 0.950 . S
C3153 C3149 1.385 . S
C3153 C3152 1.374 . S
C3154 C3151 1.499 . S
C3154 C3155 1.373 . S
C3154 C3156 1.389 . S
C3155 H3134 0.950 . S
C3155 C3154 1.373 . S
C3155 C3171 1.377 . S
C3156 C3154 1.389 . S
C3156 C3157 1.524 . S
C3156 C3170 1.377 . S
C3157 C3156 1.524 . S
C3157 C3158 1.397 . S
C3157 C3162 1.363 . S
C3158 H3135 0.950 . S
C3158 C3157 1.397 . S
C3158 C3159 1.334 . S
C3159 H3136 0.950 . S
C3159 C3158 1.334 . S
C3159 C3160 1.287 . S
C3160 C3159 1.287 . S
C3160 C3161 1.524 . S
C3160 H3179 0.913 . S
C3161 H3137 0.950 . S
C3161 C3160 1.524 . S
C3161 C3162 1.415 . S
C3162 H3138 0.950 . S
C3162 C3157 1.363 . S
C3162 C3161 1.415 . S
C3163 H3139 0.951 . S
C3163 C3164 1.366 . S
C3163 C3165 1.388 . S
C3164 C3163 1.366 . S
C3164 C3168 1.385 . S
C3165 H3140 0.951 . S
C3165 C3163 1.388 . S
C3165 C3166 1.366 . S
C3166 C3165 1.366 . S
C3166 C3167 1.414 . S
C3166 C3169 1.499 . S
C3167 H3141 0.950 . S
C3167 C3166 1.414 . S
C3167 C3168 1.374 . S
C3168 H3142 0.950 . S
C3168 C3164 1.385 . S
C3168 C3167 1.374 . S
C3169 C3166 1.499 . S
C3169 C3170 1.373 . S
C3169 C3171 1.389 . S
C3170 H3143 0.950 . S
C3170 C3156 1.377 . S
C3170 C3169 1.373 . S
C3171 C3155 1.377 . S
C3171 C3169 1.389 . S
C3171 C3172 1.524 . S
C3172 C3171 1.524 . S
C3172 C3173 1.397 . S
C3172 C3177 1.363 . S
C3173 H3144 0.950 . S
C3173 C3172 1.397 . S
C3173 C3174 1.334 . S
C3174 H3145 0.950 . S
C3174 C3173 1.334 . S
C3174 C3175 1.287 . S
C3175 C3174 1.287 . S
C3175 C3176 1.524 . S
C3175 H3178 0.999 . S
C3176 H3146 0.950 . S
C3176 C3175 1.524 . S
C3176 C3177 1.415 . S
C3177 H3147 0.950 . S
C3177 C3172 1.363 . S
C3177 C3176 1.415 . S
H3178 C3175 0.999 . S
H3179 C3160 0.913 . S
H3180 C3198 0.951 . S
H3181 C3200 0.951 . S
H3182 C3202 0.950 . S
H3183 C3203 0.950 . S
H3184 C3205 0.950 . S
H3185 C3208 0.950 . S
H3186 C3209 0.950 . S
H3187 C3211 0.950 1_554 S
H3188 C3212 0.950 . S
H3189 C3213 0.951 . S
H3190 C3215 0.951 . S
H3191 C3217 0.950 . S
H3192 C3218 0.950 . S
H3193 C3220 0.950 . S
H3194 C3223 0.950 . S
H3195 C3224 0.950 . S
H3196 C3226 0.950 . S
H3197 C3227 0.950 . S
C3198 H3180 0.951 . S
C3198 C3199 1.366 . S
C3198 C3200 1.388 . S
C3199 C3198 1.366 . S
C3199 C3203 1.385 . S
C3200 H3181 0.951 . S
C3200 C3198 1.388 . S
C3200 C3201 1.366 . S
C3201 C3200 1.366 . S
C3201 C3202 1.414 . S
C3201 C3204 1.499 . S
C3202 H3182 0.950 . S
C3202 C3201 1.414 . S
C3202 C3203 1.374 . S
C3203 H3183 0.950 . S
C3203 C3199 1.385 . S
C3203 C3202 1.374 . S
C3204 C3201 1.499 . S
C3204 C3205 1.373 . S
C3204 C3206 1.389 . S
C3205 H3184 0.950 . S
C3205 C3204 1.373 . S
C3205 C3221 1.377 . S
C3206 C3204 1.389 . S
C3206 C3207 1.524 . S
C3206 C3220 1.377 . S
C3207 C3206 1.524 . S
C3207 C3208 1.397 . S
C3207 C3212 1.363 . S
C3208 H3185 0.950 . S
C3208 C3207 1.397 . S
C3208 C3209 1.334 . S
C3209 H3186 0.950 . S
C3209 C3208 1.334 . S
C3209 C3210 1.287 . S
C3210 C3209 1.287 . S
C3210 C3211 1.524 . S
C3210 H3229 0.913 1_556 S
C3211 H3187 0.950 1_556 S
C3211 C3210 1.524 . S
C3211 C3212 1.415 . S
C3212 H3188 0.950 . S
C3212 C3207 1.363 . S
C3212 C3211 1.415 . S
C3213 H3189 0.951 . S
C3213 C3214 1.366 1_565 S
C3213 C3215 1.388 . S
C3214 C3213 1.366 1_545 S
C3214 C3218 1.385 . S
C3215 H3190 0.951 . S
C3215 C3213 1.388 . S
C3215 C3216 1.366 . S
C3216 C3215 1.366 . S
C3216 C3217 1.414 . S
C3216 C3219 1.499 . S
C3217 H3191 0.950 . S
C3217 C3216 1.414 . S
C3217 C3218 1.374 1_565 S
C3218 H3192 0.950 . S
C3218 C3214 1.385 . S
C3218 C3217 1.374 1_545 S
C3219 C3216 1.499 . S
C3219 C3220 1.373 . S
C3219 C3221 1.389 . S
C3220 H3193 0.950 . S
C3220 C3206 1.377 . S
C3220 C3219 1.373 . S
C3221 C3205 1.377 . S
C3221 C3219 1.389 . S
C3221 C3222 1.524 . S
C3222 C3221 1.524 . S
C3222 C3223 1.397 . S
C3222 C3227 1.363 . S
C3223 H3194 0.950 . S
C3223 C3222 1.397 . S
C3223 C3224 1.334 . S
C3224 H3195 0.950 . S
C3224 C3223 1.334 . S
C3224 C3225 1.287 . S
C3225 C3224 1.287 . S
C3225 C3226 1.524 . S
C3225 H3228 0.999 . S
C3226 H3196 0.950 . S
C3226 C3225 1.524 . S
C3226 C3227 1.415 . S
C3227 H3197 0.950 . S
C3227 C3222 1.363 . S
C3227 C3226 1.415 . S
H3228 C3225 0.999 . S
H3229 C3210 0.913 1_554 S
H3230 C3248 0.951 . S
H3231 C3250 0.951 . S
H3232 C3252 0.950 . S
H3233 C3253 0.950 . S
H3234 C3255 0.950 . S
H3235 C3258 0.950 . S
H3236 C3259 0.950 . S
H3237 C3261 0.950 . S
H3238 C3262 0.950 . S
H3239 C3263 0.951 . S
H3240 C3265 0.951 . S
H3241 C3267 0.950 . S
H3242 C3268 0.950 . S
H3243 C3270 0.950 . S
H3244 C3273 0.950 . S
H3245 C3274 0.950 . S
H3246 C3276 0.950 . S
H3247 C3277 0.950 . S
C3248 H3230 0.951 . S
C3248 C3249 1.366 . S
C3248 C3250 1.388 . S
C3249 C3248 1.366 . S
C3249 C3253 1.385 . S
C3250 H3231 0.951 . S
C3250 C3248 1.388 . S
C3250 C3251 1.366 . S
C3251 C3250 1.366 . S
C3251 C3252 1.414 . S
C3251 C3254 1.499 . S
C3252 H3232 0.950 . S
C3252 C3251 1.414 . S
C3252 C3253 1.374 . S
C3253 H3233 0.950 . S
C3253 C3249 1.385 . S
C3253 C3252 1.374 . S
C3254 C3251 1.499 . S
C3254 C3255 1.373 . S
C3254 C3256 1.389 . S
C3255 H3234 0.950 . S
C3255 C3254 1.373 . S
C3255 C3271 1.377 . S
C3256 C3254 1.389 . S
C3256 C3257 1.524 . S
C3256 C3270 1.377 . S
C3257 C3256 1.524 . S
C3257 C3258 1.397 . S
C3257 C3262 1.363 . S
C3258 H3235 0.950 . S
C3258 C3257 1.397 . S
C3258 C3259 1.334 . S
C3259 H3236 0.950 . S
C3259 C3258 1.334 . S
C3259 C3260 1.287 . S
C3260 C3259 1.287 . S
C3260 C3261 1.524 . S
C3260 H3279 0.913 . S
C3261 H3237 0.950 . S
C3261 C3260 1.524 . S
C3261 C3262 1.415 . S
C3262 H3238 0.950 . S
C3262 C3257 1.363 . S
C3262 C3261 1.415 . S
C3263 H3239 0.951 . S
C3263 C3264 1.366 . S
C3263 C3265 1.388 . S
C3264 C3263 1.366 . S
C3264 C3268 1.385 . S
C3265 H3240 0.951 . S
C3265 C3263 1.388 . S
C3265 C3266 1.366 . S
C3266 C3265 1.366 . S
C3266 C3267 1.414 . S
C3266 C3269 1.499 . S
C3267 H3241 0.950 . S
C3267 C3266 1.414 . S
C3267 C3268 1.374 . S
C3268 H3242 0.950 . S
C3268 C3264 1.385 . S
C3268 C3267 1.374 . S
C3269 C3266 1.499 . S
C3269 C3270 1.373 . S
C3269 C3271 1.389 . S
C3270 H3243 0.950 . S
C3270 C3256 1.377 . S
C3270 C3269 1.373 . S
C3271 C3255 1.377 . S
C3271 C3269 1.389 . S
C3271 C3272 1.524 . S
C3272 C3271 1.524 . S
C3272 C3273 1.397 . S
C3272 C3277 1.363 . S
C3273 H3244 0.950 . S
C3273 C3272 1.397 . S
C3273 C3274 1.334 . S
C3274 H3245 0.950 . S
C3274 C3273 1.334 . S
C3274 C3275 1.287 . S
C3275 C3274 1.287 . S
C3275 C3276 1.524 . S
C3275 H3278 0.999 . S
C3276 H3246 0.950 . S
C3276 C3275 1.524 . S
C3276 C3277 1.415 . S
C3277 H3247 0.950 . S
C3277 C3272 1.363 . S
C3277 C3276 1.415 . S
H3278 C3275 0.999 . S
H3279 C3260 0.913 . S
H3280 C3298 0.951 . S
H3281 C3300 0.951 . S
H3282 C3302 0.950 . S
H3283 C3303 0.950 . S
H3284 C3305 0.950 . S
H3285 C3308 0.950 . S
H3286 C3309 0.950 . S
H3287 C3311 0.950 . S
H3288 C3312 0.950 . S
H3289 C3313 0.951 . S
H3290 C3315 0.952 . S
H3291 C3317 0.950 . S
H3292 C3318 0.950 . S
H3293 C3320 0.950 . S
H3294 C3323 0.950 . S
H3295 C3324 0.950 . S
H3296 C3326 0.950 . S
H3297 C3327 0.950 . S
C3298 H3280 0.951 . S
C3298 C3299 1.366 . S
C3298 C3300 1.388 . S
C3299 C3298 1.366 . S
C3299 C3303 1.385 1_545 S
C3300 H3281 0.951 . S
C3300 C3298 1.388 . S
C3300 C3301 1.366 . S
C3301 C3300 1.366 . S
C3301 C3302 1.414 1_545 S
C3301 C3304 1.499 . S
C3302 H3282 0.950 . S
C3302 C3301 1.414 1_565 S
C3302 C3303 1.374 . S
C3303 H3283 0.950 . S
C3303 C3299 1.385 1_565 S
C3303 C3302 1.374 . S
C3304 C3301 1.499 . S
C3304 C3305 1.373 . S
C3304 C3306 1.389 . S
C3305 H3284 0.950 . S
C3305 C3304 1.373 . S
C3305 C3321 1.377 . S
C3306 C3304 1.389 . S
C3306 C3307 1.524 . S
C3306 C3320 1.377 . S
C3307 C3306 1.524 . S
C3307 C3308 1.397 1_545 S
C3307 C3312 1.363 . S
C3308 H3285 0.950 . S
C3308 C3307 1.397 1_565 S
C3308 C3309 1.334 . S
C3309 H3286 0.950 . S
C3309 C3308 1.334 . S
C3309 C3310 1.287 . S
C3310 C3309 1.287 . S
C3310 C3311 1.524 1_565 S
C3310 H3329 0.913 . S
C3311 H3287 0.950 . S
C3311 C3310 1.524 1_545 S
C3311 C3312 1.415 . S
C3312 H3288 0.950 . S
C3312 C3307 1.363 . S
C3312 C3311 1.415 . S
C3313 H3289 0.951 . S
C3313 C3314 1.366 . S
C3313 C3315 1.388 . S
C3314 C3313 1.366 . S
C3314 C3318 1.385 . S
C3315 H3290 0.952 . S
C3315 C3313 1.388 . S
C3315 C3316 1.366 . S
C3316 C3315 1.366 . S
C3316 C3317 1.414 . S
C3316 C3319 1.499 . S
C3317 H3291 0.950 . S
C3317 C3316 1.414 . S
C3317 C3318 1.374 . S
C3318 H3292 0.950 . S
C3318 C3314 1.385 . S
C3318 C3317 1.374 . S
C3319 C3316 1.499 . S
C3319 C3320 1.373 . S
C3319 C3321 1.389 . S
C3320 H3293 0.950 . S
C3320 C3306 1.377 . S
C3320 C3319 1.373 . S
C3321 C3305 1.377 . S
C3321 C3319 1.389 . S
C3321 C3322 1.524 . S
C3322 C3321 1.524 . S
C3322 C3323 1.397 . S
C3322 C3327 1.363 . S
C3323 H3294 0.950 . S
C3323 C3322 1.397 . S
C3323 C3324 1.334 . S
C3324 H3295 0.950 . S
C3324 C3323 1.334 . S
C3324 C3325 1.287 . S
C3325 C3324 1.287 . S
C3325 C3326 1.524 . S
C3325 H3328 0.999 . S
C3326 H3296 0.950 . S
C3326 C3325 1.524 . S
C3326 C3327 1.415 . S
C3327 H3297 0.950 . S
C3327 C3322 1.363 . S
C3327 C3326 1.415 . S
H3328 C3325 0.999 . S
H3329 C3310 0.913 . S
H3330 C3348 0.951 . S
H3331 C3350 0.951 . S
H3332 C3352 0.950 . S
H3333 C3353 0.950 . S
H3334 C3355 0.950 . S
H3335 C3358 0.950 . S
H3336 C3359 0.950 . S
H3337 C3361 0.950 . S
H3338 C3362 0.950 . S
H3339 C3363 0.951 . S
H3340 C3365 0.951 . S
H3341 C3367 0.950 . S
H3342 C3368 0.950 . S
H3343 C3370 0.950 . S
H3344 C3373 0.950 . S
H3345 C3374 0.950 . S
H3346 C3376 0.950 . S
H3347 C3377 0.950 . S
C3348 H3330 0.951 . S
C3348 C3349 1.366 . S
C3348 C3350 1.388 . S
C3349 C3348 1.366 . S
C3349 C3353 1.385 . S
C3350 H3331 0.951 . S
C3350 C3348 1.388 . S
C3350 C3351 1.366 . S
C3351 C3350 1.366 . S
C3351 C3352 1.414 . S
C3351 C3354 1.499 . S
C3352 H3332 0.950 . S
C3352 C3351 1.414 . S
C3352 C3353 1.374 . S
C3353 H3333 0.950 . S
C3353 C3349 1.385 . S
C3353 C3352 1.374 . S
C3354 C3351 1.499 . S
C3354 C3355 1.373 . S
C3354 C3356 1.389 . S
C3355 H3334 0.950 . S
C3355 C3354 1.373 . S
C3355 C3371 1.377 . S
C3356 C3354 1.389 . S
C3356 C3357 1.524 . S
C3356 C3370 1.377 . S
C3357 C3356 1.524 . S
C3357 C3358 1.397 . S
C3357 C3362 1.363 . S
C3358 H3335 0.950 . S
C3358 C3357 1.397 . S
C3358 C3359 1.334 . S
C3359 H3336 0.950 . S
C3359 C3358 1.334 . S
C3359 C3360 1.287 . S
C3360 C3359 1.287 . S
C3360 C3361 1.524 . S
C3360 H3379 0.913 . S
C3361 H3337 0.950 . S
C3361 C3360 1.524 . S
C3361 C3362 1.415 . S
C3362 H3338 0.950 . S
C3362 C3357 1.363 . S
C3362 C3361 1.415 . S
C3363 H3339 0.951 . S
C3363 C3364 1.366 . S
C3363 C3365 1.388 . S
C3364 C3363 1.366 . S
C3364 C3368 1.385 . S
C3365 H3340 0.951 . S
C3365 C3363 1.388 . S
C3365 C3366 1.366 . S
C3366 C3365 1.366 . S
C3366 C3367 1.414 . S
C3366 C3369 1.499 . S
C3367 H3341 0.950 . S
C3367 C3366 1.414 . S
C3367 C3368 1.374 . S
C3368 H3342 0.950 . S
C3368 C3364 1.385 . S
C3368 C3367 1.374 . S
C3369 C3366 1.499 . S
C3369 C3370 1.373 . S
C3369 C3371 1.389 . S
C3370 H3343 0.950 . S
C3370 C3356 1.377 . S
C3370 C3369 1.373 . S
C3371 C3355 1.377 . S
C3371 C3369 1.389 . S
C3371 C3372 1.524 . S
C3372 C3371 1.524 . S
C3372 C3373 1.397 . S
C3372 C3377 1.363 . S
C3373 H3344 0.950 . S
C3373 C3372 1.397 . S
C3373 C3374 1.334 . S
C3374 H3345 0.950 . S
C3374 C3373 1.334 . S
C3374 C3375 1.287 . S
C3375 C3374 1.287 . S
C3375 C3376 1.524 . S
C3375 H3378 0.999 . S
C3376 H3346 0.950 . S
C3376 C3375 1.524 . S
C3376 C3377 1.415 . S
C3377 H3347 0.950 . S
C3377 C3372 1.363 . S
C3377 C3376 1.415 . S
H3378 C3375 0.999 . S
H3379 C3360 0.913 . S
H3380 C3398 0.951 . S
H3381 C3400 0.951 . S
H3382 C3402 0.950 . S
H3383 C3403 0.950 . S
H3384 C3405 0.950 . S
H3385 C3408 0.950 . S
H3386 C3409 0.918 1_565 S
H3387 C3411 0.950 . S
H3388 C3412 0.950 . S
H3389 C3413 0.951 . S
H3390 C3415 0.951 . S
H3391 C3417 0.950 . S
H3392 C3418 0.950 . S
H3393 C3420 0.950 . S
H3394 C3423 0.950 . S
H3395 C3424 0.950 . S
H3396 C3426 0.950 . S
H3397 C3427 0.950 . S
C3398 H3380 0.951 . S
C3398 C3399 1.366 . S
C3398 C3400 1.388 . S
C3399 C3398 1.366 . S
C3399 C3403 1.385 . S
C3400 H3381 0.951 . S
C3400 C3398 1.388 . S
C3400 C3401 1.366 . S
C3401 C3400 1.366 . S
C3401 C3402 1.414 . S
C3401 C3404 1.499 . S
C3402 H3382 0.950 . S
C3402 C3401 1.414 . S
C3402 C3403 1.374 . S
C3403 H3383 0.950 . S
C3403 C3399 1.385 . S
C3403 C3402 1.374 . S
C3404 C3401 1.499 . S
C3404 C3405 1.373 . S
C3404 C3406 1.389 . S
C3405 H3384 0.950 . S
C3405 C3404 1.373 . S
C3405 C3421 1.377 . S
C3406 C3404 1.389 . S
C3406 C3407 1.524 . S
C3406 C3420 1.377 . S
C3407 C3406 1.524 . S
C3407 C3408 1.397 . S
C3407 C3412 1.363 . S
C3408 H3385 0.950 . S
C3408 C3407 1.397 . S
C3408 C3409 1.358 . S
C3409 H3386 0.918 1_545 S
C3409 C3408 1.358 . S
C3409 C3410 1.300 . S
C3410 C3409 1.300 . S
C3410 C3411 1.524 . S
C3410 H3429 0.913 . S
C3411 H3387 0.950 . S
C3411 C3410 1.524 . S
C3411 C3412 1.415 . S
C3412 H3388 0.950 . S
C3412 C3407 1.363 . S
C3412 C3411 1.415 . S
C3413 H3389 0.951 . S
C3413 C3414 1.366 . S
C3413 C3415 1.388 . S
C3414 C3413 1.366 . S
C3414 C3418 1.385 . S
C3415 H3390 0.951 . S
C3415 C3413 1.388 . S
C3415 C3416 1.366 . S
C3416 C3415 1.366 . S
C3416 C3417 1.414 . S
C3416 C3419 1.499 . S
C3417 H3391 0.950 . S
C3417 C3416 1.414 . S
C3417 C3418 1.374 . S
C3418 H3392 0.950 . S
C3418 C3414 1.385 . S
C3418 C3417 1.374 . S
C3419 C3416 1.499 . S
C3419 C3420 1.373 . S
C3419 C3421 1.389 . S
C3420 H3393 0.950 . S
C3420 C3406 1.377 . S
C3420 C3419 1.373 . S
C3421 C3405 1.377 . S
C3421 C3419 1.389 . S
C3421 C3422 1.524 . S
C3422 C3421 1.524 . S
C3422 C3423 1.397 . S
C3422 C3427 1.363 . S
C3423 H3394 0.950 . S
C3423 C3422 1.397 . S
C3423 C3424 1.334 . S
C3424 H3395 0.950 . S
C3424 C3423 1.334 . S
C3424 C3425 1.287 . S
C3425 C3424 1.287 . S
C3425 C3426 1.524 . S
C3425 H3428 0.999 . S
C3426 H3396 0.950 . S
C3426 C3425 1.524 . S
C3426 C3427 1.415 . S
C3427 H3397 0.950 . S
C3427 C3422 1.363 . S
C3427 C3426 1.415 . S
H3428 C3425 0.999 . S
H3429 C3410 0.913 . S
H3430 C3448 0.951 . S
H3431 C3450 0.951 . S
H3432 C3452 0.950 . S
H3433 C3453 0.950 . S
H3434 C3455 0.950 . S
H3435 C3458 0.950 . S
H3436 C3459 0.950 . S
H3437 C3461 0.950 . S
H3438 C3462 0.950 . S
H3439 C3463 0.951 . S
H3440 C3465 0.951 . S
H3441 C3467 0.950 . S
H3442 C3468 0.950 . S
H3443 C3470 0.950 . S
H3444 C3473 0.950 . S
H3445 C3474 0.950 . S
H3446 C3476 0.950 . S
H3447 C3477 0.950 . S
C3448 H3430 0.951 . S
C3448 C3449 1.366 . S
C3448 C3450 1.388 . S
C3449 C3448 1.366 . S
C3449 C3453 1.385 . S
C3450 H3431 0.951 . S
C3450 C3448 1.388 . S
C3450 C3451 1.366 . S
C3451 C3450 1.366 . S
C3451 C3452 1.414 . S
C3451 C3454 1.499 . S
C3452 H3432 0.950 . S
C3452 C3451 1.414 . S
C3452 C3453 1.374 . S
C3453 H3433 0.950 . S
C3453 C3449 1.385 . S
C3453 C3452 1.374 . S
C3454 C3451 1.499 . S
C3454 C3455 1.373 . S
C3454 C3456 1.389 . S
C3455 H3434 0.950 . S
C3455 C3454 1.373 . S
C3455 C3471 1.377 . S
C3456 C3454 1.389 . S
C3456 C3457 1.524 . S
C3456 C3470 1.377 . S
C3457 C3456 1.524 . S
C3457 C3458 1.397 . S
C3457 C3462 1.363 . S
C3458 H3435 0.950 . S
C3458 C3457 1.397 . S
C3458 C3459 1.334 . S
C3459 H3436 0.950 . S
C3459 C3458 1.334 . S
C3459 C3460 1.287 . S
C3460 C3459 1.287 . S
C3460 C3461 1.524 . S
C3460 H3479 0.913 . S
C3461 H3437 0.950 . S
C3461 C3460 1.524 . S
C3461 C3462 1.415 . S
C3462 H3438 0.950 . S
C3462 C3457 1.363 . S
C3462 C3461 1.415 . S
C3463 H3439 0.951 . S
C3463 C3464 1.366 . S
C3463 C3465 1.388 . S
C3464 C3463 1.366 . S
C3464 C3468 1.385 . S
C3465 H3440 0.951 . S
C3465 C3463 1.388 . S
C3465 C3466 1.366 . S
C3466 C3465 1.366 . S
C3466 C3467 1.414 . S
C3466 C3469 1.499 . S
C3467 H3441 0.950 . S
C3467 C3466 1.414 . S
C3467 C3468 1.374 . S
C3468 H3442 0.950 . S
C3468 C3464 1.385 . S
C3468 C3467 1.374 . S
C3469 C3466 1.499 . S
C3469 C3470 1.373 . S
C3469 C3471 1.389 . S
C3470 H3443 0.950 . S
C3470 C3456 1.377 . S
C3470 C3469 1.373 . S
C3471 C3455 1.377 . S
C3471 C3469 1.389 . S
C3471 C3472 1.524 . S
C3472 C3471 1.524 . S
C3472 C3473 1.397 . S
C3472 C3477 1.363 . S
C3473 H3444 0.950 . S
C3473 C3472 1.397 . S
C3473 C3474 1.334 . S
C3474 H3445 0.950 . S
C3474 C3473 1.334 . S
C3474 C3475 1.287 . S
C3475 C3474 1.287 . S
C3475 C3476 1.524 . S
C3475 H3478 0.999 . S
C3476 H3446 0.950 . S
C3476 C3475 1.524 . S
C3476 C3477 1.415 . S
C3477 H3447 0.950 . S
C3477 C3472 1.363 . S
C3477 C3476 1.415 . S
H3478 C3475 0.999 . S
H3479 C3460 0.913 . S
H3480 C3498 0.951 . S
H3481 C3500 0.951 . S
H3482 C3502 0.950 . S
H3483 C3503 0.950 . S
H3484 C3505 0.950 . S
H3485 C3508 0.950 . S
H3486 C3509 0.950 . S
H3487 C3511 0.950 . S
H3488 C3512 0.950 1_545 S
H3489 C3513 0.951 . S
H3490 C3515 0.951 . S
H3491 C3517 0.950 . S
H3492 C3518 0.950 . S
H3493 C3520 0.950 . S
H3494 C3523 0.950 . S
H3495 C3524 0.950 . S
H3496 C3526 0.950 . S
H3497 C3527 0.950 . S
C3498 H3480 0.951 . S
C3498 C3499 1.366 1_545 S
C3498 C3500 1.388 . S
C3499 C3498 1.366 1_565 S
C3499 C3503 1.385 . S
C3500 H3481 0.951 . S
C3500 C3498 1.388 . S
C3500 C3501 1.366 . S
C3501 C3500 1.366 . S
C3501 C3502 1.414 1_545 S
C3501 C3504 1.499 . S
C3502 H3482 0.950 . S
C3502 C3501 1.414 1_565 S
C3502 C3503 1.374 . S
C3503 H3483 0.950 . S
C3503 C3499 1.385 . S
C3503 C3502 1.374 . S
C3504 C3501 1.499 . S
C3504 C3505 1.373 . S
C3504 C3506 1.389 . S
C3505 H3484 0.950 . S
C3505 C3504 1.373 . S
C3505 C3521 1.377 . S
C3506 C3504 1.389 . S
C3506 C3507 1.524 1_545 S
C3506 C3520 1.377 . S
C3507 C3506 1.524 1_565 S
C3507 C3508 1.397 . S
C3507 C3512 1.363 . S
C3508 H3485 0.950 . S
C3508 C3507 1.397 . S
C3508 C3509 1.334 . S
C3509 H3486 0.950 . S
C3509 C3508 1.334 . S
C3509 C3510 1.287 . S
C3510 C3509 1.287 . S
C3510 C3511 1.524 . S
C3510 H3529 0.913 . S
C3511 H3487 0.950 . S
C3511 C3510 1.524 . S
C3511 C3512 1.415 . S
C3512 H3488 0.950 1_565 S
C3512 C3507 1.363 . S
C3512 C3511 1.415 . S
C3513 H3489 0.951 . S
C3513 C3514 1.366 . S
C3513 C3515 1.388 . S
C3514 C3513 1.366 . S
C3514 C3518 1.385 . S
C3515 H3490 0.951 . S
C3515 C3513 1.388 . S
C3515 C3516 1.366 . S
C3516 C3515 1.366 . S
C3516 C3517 1.414 . S
C3516 C3519 1.499 . S
C3517 H3491 0.950 . S
C3517 C3516 1.414 . S
C3517 C3518 1.374 . S
C3518 H3492 0.950 . S
C3518 C3514 1.385 . S
C3518 C3517 1.374 . S
C3519 C3516 1.499 . S
C3519 C3520 1.373 . S
C3519 C3521 1.389 . S
C3520 H3493 0.950 . S
C3520 C3506 1.377 . S
C3520 C3519 1.373 . S
C3521 C3505 1.377 . S
C3521 C3519 1.389 . S
C3521 C3522 1.524 . S
C3522 C3521 1.524 . S
C3522 C3523 1.397 . S
C3522 C3527 1.363 . S
C3523 H3494 0.950 . S
C3523 C3522 1.397 . S
C3523 C3524 1.334 . S
C3524 H3495 0.950 . S
C3524 C3523 1.334 . S
C3524 C3525 1.287 . S
C3525 C3524 1.287 . S
C3525 C3526 1.524 . S
C3525 H3528 0.999 . S
C3526 H3496 0.950 . S
C3526 C3525 1.524 . S
C3526 C3527 1.415 . S
C3527 H3497 0.950 . S
C3527 C3522 1.363 . S
C3527 C3526 1.415 . S
H3528 C3525 0.999 . S
H3529 C3510 0.913 . S
H3530 C3548 0.951 . S
H3531 C3550 0.951 . S
H3532 C3552 0.950 . S
H3533 C3553 0.950 . S
H3534 C3555 0.950 . S
H3535 C3558 0.950 . S
H3536 C3559 0.950 . S
H3537 C3561 0.950 . S
H3538 C3562 0.950 . S
H3539 C3563 0.951 . S
H3540 C3565 0.951 . S
H3541 C3567 0.950 . S
H3542 C3568 0.950 . S
H3543 C3570 0.950 . S
H3544 C3573 0.950 . S
H3545 C3574 0.950 . S
H3546 C3576 0.950 . S
H3547 C3577 0.950 . S
C3548 H3530 0.951 . S
C3548 C3549 1.366 . S
C3548 C3550 1.388 . S
C3549 C3548 1.366 . S
C3549 C3553 1.385 . S
C3550 H3531 0.951 . S
C3550 C3548 1.388 . S
C3550 C3551 1.366 . S
C3551 C3550 1.366 . S
C3551 C3552 1.414 . S
C3551 C3554 1.499 . S
C3552 H3532 0.950 . S
C3552 C3551 1.414 . S
C3552 C3553 1.374 . S
C3553 H3533 0.950 . S
C3553 C3549 1.385 . S
C3553 C3552 1.374 . S
C3554 C3551 1.499 . S
C3554 C3555 1.373 . S
C3554 C3556 1.389 . S
C3555 H3534 0.950 . S
C3555 C3554 1.373 . S
C3555 C3571 1.377 . S
C3556 C3554 1.389 . S
C3556 C3557 1.524 . S
C3556 C3570 1.377 . S
C3557 C3556 1.524 . S
C3557 C3558 1.397 . S
C3557 C3562 1.363 . S
C3558 H3535 0.950 . S
C3558 C3557 1.397 . S
C3558 C3559 1.334 . S
C3559 H3536 0.950 . S
C3559 C3558 1.334 . S
C3559 C3560 1.287 . S
C3560 C3559 1.287 . S
C3560 C3561 1.524 . S
C3560 H3579 0.913 . S
C3561 H3537 0.950 . S
C3561 C3560 1.524 . S
C3561 C3562 1.415 . S
C3562 H3538 0.950 . S
C3562 C3557 1.363 . S
C3562 C3561 1.415 . S
C3563 H3539 0.951 . S
C3563 C3564 1.366 . S
C3563 C3565 1.388 . S
C3564 C3563 1.366 . S
C3564 C3568 1.385 . S
C3565 H3540 0.951 . S
C3565 C3563 1.388 . S
C3565 C3566 1.366 . S
C3566 C3565 1.366 . S
C3566 C3567 1.414 . S
C3566 C3569 1.499 . S
C3567 H3541 0.950 . S
C3567 C3566 1.414 . S
C3567 C3568 1.374 . S
C3568 H3542 0.950 . S
C3568 C3564 1.385 . S
C3568 C3567 1.374 . S
C3569 C3566 1.499 . S
C3569 C3570 1.373 . S
C3569 C3571 1.389 . S
C3570 H3543 0.950 . S
C3570 C3556 1.377 . S
C3570 C3569 1.373 . S
C3571 C3555 1.377 . S
C3571 C3569 1.389 . S
C3571 C3572 1.524 . S
C3572 C3571 1.524 . S
C3572 C3573 1.397 . S
C3572 C3577 1.363 . S
C3573 H3544 0.950 . S
C3573 C3572 1.397 . S
C3573 C3574 1.334 . S
C3574 H3545 0.950 . S
C3574 C3573 1.334 . S
C3574 C3575 1.287 . S
C3575 C3574 1.287 . S
C3575 C3576 1.524 . S
C3575 H3578 0.999 . S
C3576 H3546 0.950 . S
C3576 C3575 1.524 . S
C3576 C3577 1.415 . S
C3577 H3547 0.950 . S
C3577 C3572 1.363 . S
C3577 C3576 1.415 . S
H3578 C3575 0.999 . S
H3579 C3560 0.913 . S
H3580 C3598 0.951 . S
H3581 C3600 0.951 . S
H3582 C3602 0.950 . S
H3583 C3603 0.950 . S
H3584 C3605 0.950 . S
H3585 C3608 0.950 . S
H3586 C3609 0.950 . S
H3587 C3611 0.950 . S
H3588 C3612 0.950 . S
H3589 C3613 0.951 . S
H3590 C3615 0.951 . S
H3591 C3617 0.950 . S
H3592 C3618 0.950 . S
H3593 C3620 0.950 . S
H3594 C3623 0.950 1_545 S
H3595 C3624 0.950 . S
H3596 C3626 0.950 . S
H3597 C3627 0.950 . S
C3598 H3580 0.951 . S
C3598 C3599 1.366 . S
C3598 C3600 1.388 . S
C3599 C3598 1.366 . S
C3599 C3603 1.385 . S
C3600 H3581 0.951 . S
C3600 C3598 1.388 . S
C3600 C3601 1.366 . S
C3601 C3600 1.366 . S
C3601 C3602 1.414 . S
C3601 C3604 1.499 . S
C3602 H3582 0.950 . S
C3602 C3601 1.414 . S
C3602 C3603 1.374 . S
C3603 H3583 0.950 . S
C3603 C3599 1.385 . S
C3603 C3602 1.374 . S
C3604 C3601 1.499 . S
C3604 C3605 1.373 . S
C3604 C3606 1.389 . S
C3605 H3584 0.950 . S
C3605 C3604 1.373 . S
C3605 C3621 1.377 . S
C3606 C3604 1.389 . S
C3606 C3607 1.524 . S
C3606 C3620 1.377 . S
C3607 C3606 1.524 . S
C3607 C3608 1.397 . S
C3607 C3612 1.363 . S
C3608 H3585 0.950 . S
C3608 C3607 1.397 . S
C3608 C3609 1.334 . S
C3609 H3586 0.950 . S
C3609 C3608 1.334 . S
C3609 C3610 1.287 . S
C3610 C3609 1.287 . S
C3610 C3611 1.524 . S
C3610 H3629 0.913 . S
C3611 H3587 0.950 . S
C3611 C3610 1.524 . S
C3611 C3612 1.415 . S
C3612 H3588 0.950 . S
C3612 C3607 1.363 . S
C3612 C3611 1.415 . S
C3613 H3589 0.951 . S
C3613 C3614 1.366 . S
C3613 C3615 1.388 . S
C3614 C3613 1.366 . S
C3614 C3618 1.385 . S
C3615 H3590 0.951 . S
C3615 C3613 1.388 . S
C3615 C3616 1.366 . S
C3616 C3615 1.366 . S
C3616 C3617 1.414 . S
C3616 C3619 1.499 . S
C3617 H3591 0.950 . S
C3617 C3616 1.414 . S
C3617 C3618 1.374 . S
C3618 H3592 0.950 . S
C3618 C3614 1.385 . S
C3618 C3617 1.374 . S
C3619 C3616 1.499 . S
C3619 C3620 1.373 . S
C3619 C3621 1.389 . S
C3620 H3593 0.950 . S
C3620 C3606 1.377 . S
C3620 C3619 1.373 . S
C3621 C3605 1.377 . S
C3621 C3619 1.389 . S
C3621 C3622 1.524 1_545 S
C3622 C3621 1.524 1_565 S
C3622 C3623 1.397 . S
C3622 C3627 1.363 . S
C3623 H3594 0.950 1_565 S
C3623 C3622 1.397 . S
C3623 C3624 1.334 . S
C3624 H3595 0.950 . S
C3624 C3623 1.334 . S
C3624 C3625 1.287 . S
C3625 C3624 1.287 . S
C3625 C3626 1.524 . S
C3625 H3628 0.999 . S
C3626 H3596 0.950 . S
C3626 C3625 1.524 . S
C3626 C3627 1.415 . S
C3627 H3597 0.950 . S
C3627 C3622 1.363 . S
C3627 C3626 1.415 . S
H3628 C3625 0.999 . S
H3629 C3610 0.913 . S
H3630 C3648 0.951 . S
H3631 C3650 0.951 . S
H3632 C3652 0.950 . S
H3633 C3653 0.950 . S
H3634 C3655 0.950 . S
H3635 C3658 0.950 . S
H3636 C3659 0.950 . S
H3637 C3661 0.950 . S
H3638 C3662 0.950 . S
H3639 C3663 0.951 . S
H3640 C3665 0.951 . S
H3641 C3667 0.950 . S
H3642 C3668 0.950 . S
H3643 C3670 0.950 . S
H3644 C3673 0.950 . S
H3645 C3674 0.950 . S
H3646 C3676 0.950 . S
H3647 C3677 0.950 . S
C3648 H3630 0.951 . S
C3648 C3649 1.366 . S
C3648 C3650 1.388 . S
C3649 C3648 1.366 . S
C3649 C3653 1.385 . S
C3650 H3631 0.951 . S
C3650 C3648 1.388 . S
C3650 C3651 1.366 . S
C3651 C3650 1.366 . S
C3651 C3652 1.414 . S
C3651 C3654 1.499 . S
C3652 H3632 0.950 . S
C3652 C3651 1.414 . S
C3652 C3653 1.374 . S
C3653 H3633 0.950 . S
C3653 C3649 1.385 . S
C3653 C3652 1.374 . S
C3654 C3651 1.499 . S
C3654 C3655 1.373 . S
C3654 C3656 1.389 . S
C3655 H3634 0.950 . S
C3655 C3654 1.373 . S
C3655 C3671 1.377 . S
C3656 C3654 1.389 . S
C3656 C3657 1.524 . S
C3656 C3670 1.377 . S
C3657 C3656 1.524 . S
C3657 C3658 1.397 . S
C3657 C3662 1.363 . S
C3658 H3635 0.950 . S
C3658 C3657 1.397 . S
C3658 C3659 1.334 . S
C3659 H3636 0.950 . S
C3659 C3658 1.334 . S
C3659 C3660 1.287 . S
C3660 C3659 1.287 . S
C3660 C3661 1.524 . S
C3660 H3679 0.913 . S
C3661 H3637 0.950 . S
C3661 C3660 1.524 . S
C3661 C3662 1.415 . S
C3662 H3638 0.950 . S
C3662 C3657 1.363 . S
C3662 C3661 1.415 . S
C3663 H3639 0.951 . S
C3663 C3664 1.366 . S
C3663 C3665 1.388 . S
C3664 C3663 1.366 . S
C3664 C3668 1.385 . S
C3665 H3640 0.951 . S
C3665 C3663 1.388 . S
C3665 C3666 1.366 . S
C3666 C3665 1.366 . S
C3666 C3667 1.414 . S
C3666 C3669 1.499 . S
C3667 H3641 0.950 . S
C3667 C3666 1.414 . S
C3667 C3668 1.374 . S
C3668 H3642 0.950 . S
C3668 C3664 1.385 . S
C3668 C3667 1.374 . S
C3669 C3666 1.499 . S
C3669 C3670 1.373 . S
C3669 C3671 1.389 . S
C3670 H3643 0.950 . S
C3670 C3656 1.377 . S
C3670 C3669 1.373 . S
C3671 C3655 1.377 . S
C3671 C3669 1.389 . S
C3671 C3672 1.524 . S
C3672 C3671 1.524 . S
C3672 C3673 1.397 . S
C3672 C3677 1.363 . S
C3673 H3644 0.950 . S
C3673 C3672 1.397 . S
C3673 C3674 1.334 . S
C3674 H3645 0.950 . S
C3674 C3673 1.334 . S
C3674 C3675 1.287 . S
C3675 C3674 1.287 . S
C3675 C3676 1.524 . S
C3675 H3678 0.999 . S
C3676 H3646 0.950 . S
C3676 C3675 1.524 . S
C3676 C3677 1.415 . S
C3677 H3647 0.950 . S
C3677 C3672 1.363 . S
C3677 C3676 1.415 . S
H3678 C3675 0.999 . S
H3679 C3660 0.913 . S
H3680 C3698 0.951 . S
H3681 C3700 0.951 . S
H3682 C3702 0.950 . S
H3683 C3703 0.950 . S
H3684 C3705 0.950 . S
H3685 C3708 0.950 . S
H3686 C3709 0.950 . S
H3687 C3711 0.950 . S
H3688 C3712 0.950 . S
H3689 C3713 0.951 . S
H3690 C3715 0.951 . S
H3691 C3717 0.950 . S
H3692 C3718 0.950 . S
H3693 C3720 0.950 1_556 S
H3694 C3723 0.950 . S
H3695 C3724 0.950 . S
H3696 C3726 0.950 . S
H3697 C3727 0.950 . S
C3698 H3680 0.951 . S
C3698 C3699 1.366 . S
C3698 C3700 1.388 . S
C3699 C3698 1.366 . S
C3699 C3703 1.385 . S
C3700 H3681 0.951 . S
C3700 C3698 1.388 . S
C3700 C3701 1.366 . S
C3701 C3700 1.366 . S
C3701 C3702 1.414 . S
C3701 C3704 1.499 . S
C3702 H3682 0.950 . S
C3702 C3701 1.414 . S
C3702 C3703 1.374 . S
C3703 H3683 0.950 . S
C3703 C3699 1.385 . S
C3703 C3702 1.374 . S
C3704 C3701 1.499 . S
C3704 C3705 1.373 . S
C3704 C3706 1.389 . S
C3705 H3684 0.950 . S
C3705 C3704 1.373 . S
C3705 C3721 1.377 . S
C3706 C3704 1.389 . S
C3706 C3707 1.524 1_554 S
C3706 C3720 1.377 . S
C3707 C3706 1.524 1_556 S
C3707 C3708 1.397 . S
C3707 C3712 1.363 . S
C3708 H3685 0.950 . S
C3708 C3707 1.397 . S
C3708 C3709 1.334 . S
C3709 H3686 0.950 . S
C3709 C3708 1.334 . S
C3709 C3710 1.287 . S
C3710 C3709 1.287 . S
C3710 C3711 1.524 . S
C3710 H3729 0.913 . S
C3711 H3687 0.950 . S
C3711 C3710 1.524 . S
C3711 C3712 1.415 . S
C3712 H3688 0.950 . S
C3712 C3707 1.363 . S
C3712 C3711 1.415 . S
C3713 H3689 0.951 . S
C3713 C3714 1.366 . S
C3713 C3715 1.388 . S
C3714 C3713 1.366 . S
C3714 C3718 1.385 . S
C3715 H3690 0.951 . S
C3715 C3713 1.388 . S
C3715 C3716 1.366 . S
C3716 C3715 1.366 . S
C3716 C3717 1.414 . S
C3716 C3719 1.499 . S
C3717 H3691 0.950 . S
C3717 C3716 1.414 . S
C3717 C3718 1.374 . S
C3718 H3692 0.950 . S
C3718 C3714 1.385 . S
C3718 C3717 1.374 . S
C3719 C3716 1.499 . S
C3719 C3720 1.373 . S
C3719 C3721 1.389 . S
C3720 H3693 0.950 1_554 S
C3720 C3706 1.377 . S
C3720 C3719 1.373 . S
C3721 C3705 1.377 . S
C3721 C3719 1.389 . S
C3721 C3722 1.524 . S
C3722 C3721 1.524 . S
C3722 C3723 1.397 . S
C3722 C3727 1.363 . S
C3723 H3694 0.950 . S
C3723 C3722 1.397 . S
C3723 C3724 1.334 . S
C3724 H3695 0.950 . S
C3724 C3723 1.334 . S
C3724 C3725 1.287 . S
C3725 C3724 1.287 . S
C3725 C3726 1.524 . S
C3725 H3728 0.999 . S
C3726 H3696 0.950 . S
C3726 C3725 1.524 . S
C3726 C3727 1.415 . S
C3727 H3697 0.950 . S
C3727 C3722 1.363 . S
C3727 C3726 1.415 . S
H3728 C3725 0.999 . S
H3729 C3710 0.913 . S
H3730 C3748 0.951 . S
H3731 C3750 0.951 . S
H3732 C3752 0.950 . S
H3733 C3753 0.950 . S
H3734 C3755 0.950 . S
H3735 C3758 0.950 . S
H3736 C3759 0.950 . S
H3737 C3761 0.950 . S
H3738 C3762 0.950 . S
H3739 C3763 0.951 . S
H3740 C3765 0.951 . S
H3741 C3767 0.950 . S
H3742 C3768 0.950 . S
H3743 C3770 0.950 . S
H3744 C3773 0.951 1_556 S
H3745 C3774 0.950 . S
H3746 C3776 0.950 . S
H3747 C3777 0.950 . S
C3748 H3730 0.951 . S
C3748 C3749 1.366 . S
C3748 C3750 1.388 . S
C3749 C3748 1.366 . S
C3749 C3753 1.385 . S
C3750 H3731 0.951 . S
C3750 C3748 1.388 . S
C3750 C3751 1.366 . S
C3751 C3750 1.366 . S
C3751 C3752 1.414 . S
C3751 C3754 1.499 . S
C3752 H3732 0.950 . S
C3752 C3751 1.414 . S
C3752 C3753 1.374 . S
C3753 H3733 0.950 . S
C3753 C3749 1.385 . S
C3753 C3752 1.374 . S
C3754 C3751 1.499 . S
C3754 C3755 1.373 . S
C3754 C3756 1.389 . S
C3755 H3734 0.950 . S
C3755 C3754 1.373 . S
C3755 C3771 1.377 . S
C3756 C3754 1.389 . S
C3756 C3757 1.524 . S
C3756 C3770 1.377 . S
C3757 C3756 1.524 . S
C3757 C3758 1.397 . S
C3757 C3762 1.363 . S
C3758 H3735 0.950 . S
C3758 C3757 1.397 . S
C3758 C3759 1.334 . S
C3759 H3736 0.950 . S
C3759 C3758 1.334 . S
C3759 C3760 1.287 . S
C3760 C3759 1.287 . S
C3760 C3761 1.524 . S
C3760 H3779 0.913 . S
C3761 H3737 0.950 . S
C3761 C3760 1.524 . S
C3761 C3762 1.415 . S
C3762 H3738 0.950 . S
C3762 C3757 1.363 . S
C3762 C3761 1.415 . S
C3763 H3739 0.951 . S
C3763 C3764 1.366 . S
C3763 C3765 1.388 . S
C3764 C3763 1.366 . S
C3764 C3768 1.385 . S
C3765 H3740 0.951 . S
C3765 C3763 1.388 . S
C3765 C3766 1.366 . S
C3766 C3765 1.366 . S
C3766 C3767 1.414 . S
C3766 C3769 1.499 . S
C3767 H3741 0.950 . S
C3767 C3766 1.414 . S
C3767 C3768 1.374 . S
C3768 H3742 0.950 . S
C3768 C3764 1.385 . S
C3768 C3767 1.374 . S
C3769 C3766 1.499 . S
C3769 C3770 1.373 . S
C3769 C3771 1.389 . S
C3770 H3743 0.950 . S
C3770 C3756 1.377 . S
C3770 C3769 1.373 . S
C3771 C3755 1.377 . S
C3771 C3769 1.389 . S
C3771 C3772 1.524 . S
C3772 C3771 1.524 . S
C3772 C3773 1.391 . S
C3772 C3777 1.363 . S
C3773 H3744 0.951 1_554 S
C3773 C3772 1.391 . S
C3773 C3774 1.339 1_554 S
C3774 H3745 0.950 . S
C3774 C3773 1.339 1_556 S
C3774 C3775 1.287 . S
C3775 C3774 1.287 . S
C3775 C3776 1.524 1_556 S
C3775 H3778 0.999 . S
C3776 H3746 0.950 . S
C3776 C3775 1.524 1_554 S
C3776 C3777 1.415 . S
C3777 H3747 0.950 . S
C3777 C3772 1.363 . S
C3777 C3776 1.415 . S
H3778 C3775 0.999 . S
H3779 C3760 0.913 . S
H3780 C3798 0.951 . S
H3781 C3800 0.951 . S
H3782 C3802 0.950 . S
H3783 C3803 0.950 . S
H3784 C3805 0.950 . S
H3785 C3808 0.950 . S
H3786 C3809 0.950 . S
H3787 C3811 0.950 . S
H3788 C3812 0.950 . S
H3789 C3813 0.951 . S
H3790 C3815 0.951 . S
H3791 C3817 0.950 . S
H3792 C3818 0.950 . S
H3793 C3820 0.950 . S
H3794 C3823 0.950 . S
H3795 C3824 0.950 . S
H3796 C3826 0.950 . S
H3797 C3827 0.950 . S
C3798 H3780 0.951 . S
C3798 C3799 1.366 . S
C3798 C3800 1.388 . S
C3799 C3798 1.366 . S
C3799 C3803 1.385 . S
C3800 H3781 0.951 . S
C3800 C3798 1.388 . S
C3800 C3801 1.366 . S
C3801 C3800 1.366 . S
C3801 C3802 1.414 . S
C3801 C3804 1.499 . S
C3802 H3782 0.950 . S
C3802 C3801 1.414 . S
C3802 C3803 1.374 . S
C3803 H3783 0.950 . S
C3803 C3799 1.385 . S
C3803 C3802 1.374 . S
C3804 C3801 1.499 . S
C3804 C3805 1.373 . S
C3804 C3806 1.389 . S
C3805 H3784 0.950 . S
C3805 C3804 1.373 . S
C3805 C3821 1.377 . S
C3806 C3804 1.389 . S
C3806 C3807 1.524 . S
C3806 C3820 1.377 . S
C3807 C3806 1.524 . S
C3807 C3808 1.397 . S
C3807 C3812 1.363 . S
C3808 H3785 0.950 . S
C3808 C3807 1.397 . S
C3808 C3809 1.334 . S
C3809 H3786 0.950 . S
C3809 C3808 1.334 . S
C3809 C3810 1.287 . S
C3810 C3809 1.287 . S
C3810 C3811 1.524 . S
C3810 H3829 0.913 . S
C3811 H3787 0.950 . S
C3811 C3810 1.524 . S
C3811 C3812 1.415 . S
C3812 H3788 0.950 . S
C3812 C3807 1.363 . S
C3812 C3811 1.415 . S
C3813 H3789 0.951 . S
C3813 C3814 1.366 . S
C3813 C3815 1.388 . S
C3814 C3813 1.366 . S
C3814 C3818 1.385 . S
C3815 H3790 0.951 . S
C3815 C3813 1.388 . S
C3815 C3816 1.366 . S
C3816 C3815 1.366 . S
C3816 C3817 1.414 . S
C3816 C3819 1.499 . S
C3817 H3791 0.950 . S
C3817 C3816 1.414 . S
C3817 C3818 1.374 . S
C3818 H3792 0.950 . S
C3818 C3814 1.385 . S
C3818 C3817 1.374 . S
C3819 C3816 1.499 . S
C3819 C3820 1.373 . S
C3819 C3821 1.389 . S
C3820 H3793 0.950 . S
C3820 C3806 1.377 . S
C3820 C3819 1.373 . S
C3821 C3805 1.377 . S
C3821 C3819 1.389 . S
C3821 C3822 1.524 . S
C3822 C3821 1.524 . S
C3822 C3823 1.397 . S
C3822 C3827 1.363 . S
C3823 H3794 0.950 . S
C3823 C3822 1.397 . S
C3823 C3824 1.334 . S
C3824 H3795 0.950 . S
C3824 C3823 1.334 . S
C3824 C3825 1.287 . S
C3825 C3824 1.287 . S
C3825 C3826 1.524 . S
C3825 H3828 0.999 . S
C3826 H3796 0.950 . S
C3826 C3825 1.524 . S
C3826 C3827 1.415 . S
C3827 H3797 0.950 . S
C3827 C3822 1.363 . S
C3827 C3826 1.415 . S
H3828 C3825 0.999 . S
H3829 C3810 0.913 . S
H3830 C3848 0.951 . S
H3831 C3850 0.951 . S
H3832 C3852 0.950 . S
H3833 C3853 0.950 . S
H3834 C3855 0.950 . S
H3835 C3858 0.950 . S
H3836 C3859 0.950 . S
H3837 C3861 0.950 . S
H3838 C3862 0.950 . S
H3839 C3863 0.951 . S
H3840 C3865 0.951 . S
H3841 C3867 0.950 . S
H3842 C3868 0.950 . S
H3843 C3870 0.950 . S
H3844 C3873 0.950 . S
H3845 C3874 0.950 . S
H3846 C3876 0.950 . S
H3847 C3877 0.950 . S
C3848 H3830 0.951 . S
C3848 C3849 1.366 . S
C3848 C3850 1.388 . S
C3849 C3848 1.366 . S
C3849 C3853 1.385 . S
C3850 H3831 0.951 . S
C3850 C3848 1.388 . S
C3850 C3851 1.366 . S
C3851 C3850 1.366 . S
C3851 C3852 1.414 . S
C3851 C3854 1.499 . S
C3852 H3832 0.950 . S
C3852 C3851 1.414 . S
C3852 C3853 1.374 . S
C3853 H3833 0.950 . S
C3853 C3849 1.385 . S
C3853 C3852 1.374 . S
C3854 C3851 1.499 . S
C3854 C3855 1.373 . S
C3854 C3856 1.389 . S
C3855 H3834 0.950 . S
C3855 C3854 1.373 . S
C3855 C3871 1.377 . S
C3856 C3854 1.389 . S
C3856 C3857 1.524 . S
C3856 C3870 1.377 . S
C3857 C3856 1.524 . S
C3857 C3858 1.397 . S
C3857 C3862 1.363 . S
C3858 H3835 0.950 . S
C3858 C3857 1.397 . S
C3858 C3859 1.334 . S
C3859 H3836 0.950 . S
C3859 C3858 1.334 . S
C3859 C3860 1.287 . S
C3860 C3859 1.287 . S
C3860 C3861 1.524 . S
C3860 H3879 0.913 . S
C3861 H3837 0.950 . S
C3861 C3860 1.524 . S
C3861 C3862 1.415 . S
C3862 H3838 0.950 . S
C3862 C3857 1.363 . S
C3862 C3861 1.415 . S
C3863 H3839 0.951 . S
C3863 C3864 1.366 . S
C3863 C3865 1.388 . S
C3864 C3863 1.366 . S
C3864 C3868 1.385 . S
C3865 H3840 0.951 . S
C3865 C3863 1.388 . S
C3865 C3866 1.366 . S
C3866 C3865 1.366 . S
C3866 C3867 1.414 . S
C3866 C3869 1.499 . S
C3867 H3841 0.950 . S
C3867 C3866 1.414 . S
C3867 C3868 1.374 . S
C3868 H3842 0.950 . S
C3868 C3864 1.385 . S
C3868 C3867 1.374 . S
C3869 C3866 1.499 . S
C3869 C3870 1.373 . S
C3869 C3871 1.389 . S
C3870 H3843 0.950 . S
C3870 C3856 1.377 . S
C3870 C3869 1.373 . S
C3871 C3855 1.377 . S
C3871 C3869 1.389 . S
C3871 C3872 1.524 . S
C3872 C3871 1.524 . S
C3872 C3873 1.397 . S
C3872 C3877 1.363 . S
C3873 H3844 0.950 . S
C3873 C3872 1.397 . S
C3873 C3874 1.334 . S
C3874 H3845 0.950 . S
C3874 C3873 1.334 . S
C3874 C3875 1.287 . S
C3875 C3874 1.287 . S
C3875 C3876 1.524 . S
C3875 H3878 0.999 . S
C3876 H3846 0.950 . S
C3876 C3875 1.524 . S
C3876 C3877 1.415 . S
C3877 H3847 0.950 . S
C3877 C3872 1.363 . S
C3877 C3876 1.415 . S
H3878 C3875 0.999 . S
H3879 C3860 0.913 . S
H3880 C3898 0.951 . S
H3881 C3900 0.951 . S
H3882 C3902 0.950 . S
H3883 C3903 0.950 . S
H3884 C3905 0.950 . S
H3885 C3908 0.950 . S
H3886 C3909 0.950 . S
H3887 C3911 0.950 . S
H3888 C3912 0.950 . S
H3889 C3913 0.951 . S
H3890 C3915 0.951 . S
H3891 C3917 0.950 . S
H3892 C3918 0.950 . S
H3893 C3920 0.950 . S
H3894 C3923 0.950 . S
H3895 C3924 0.950 . S
H3896 C3926 0.950 . S
H3897 C3927 0.950 . S
C3898 H3880 0.951 . S
C3898 C3899 1.366 1_565 S
C3898 C3900 1.388 . S
C3899 C3898 1.366 1_545 S
C3899 C3903 1.385 . S
C3900 H3881 0.951 . S
C3900 C3898 1.388 . S
C3900 C3901 1.366 . S
C3901 C3900 1.366 . S
C3901 C3902 1.414 . S
C3901 C3904 1.499 . S
C3902 H3882 0.950 . S
C3902 C3901 1.414 . S
C3902 C3903 1.374 1_565 S
C3903 H3883 0.950 . S
C3903 C3899 1.385 . S
C3903 C3902 1.374 1_545 S
C3904 C3901 1.499 . S
C3904 C3905 1.373 . S
C3904 C3906 1.389 . S
C3905 H3884 0.950 . S
C3905 C3904 1.373 . S
C3905 C3921 1.377 . S
C3906 C3904 1.389 . S
C3906 C3907 1.524 . S
C3906 C3920 1.377 . S
C3907 C3906 1.524 . S
C3907 C3908 1.397 . S
C3907 C3912 1.363 . S
C3908 H3885 0.950 . S
C3908 C3907 1.397 . S
C3908 C3909 1.334 . S
C3909 H3886 0.950 . S
C3909 C3908 1.334 . S
C3909 C3910 1.287 . S
C3910 C3909 1.287 . S
C3910 C3911 1.524 . S
C3910 H3929 0.913 . S
C3911 H3887 0.950 . S
C3911 C3910 1.524 . S
C3911 C3912 1.415 . S
C3912 H3888 0.950 . S
C3912 C3907 1.363 . S
C3912 C3911 1.415 . S
C3913 H3889 0.951 . S
C3913 C3914 1.366 . S
C3913 C3915 1.388 . S
C3914 C3913 1.366 . S
C3914 C3918 1.385 . S
C3915 H3890 0.951 . S
C3915 C3913 1.388 . S
C3915 C3916 1.366 . S
C3916 C3915 1.366 . S
C3916 C3917 1.414 . S
C3916 C3919 1.499 . S
C3917 H3891 0.950 . S
C3917 C3916 1.414 . S
C3917 C3918 1.374 . S
C3918 H3892 0.950 . S
C3918 C3914 1.385 . S
C3918 C3917 1.374 . S
C3919 C3916 1.499 . S
C3919 C3920 1.373 . S
C3919 C3921 1.389 . S
C3920 H3893 0.950 . S
C3920 C3906 1.377 . S
C3920 C3919 1.373 . S
C3921 C3905 1.377 . S
C3921 C3919 1.389 . S
C3921 C3922 1.524 . S
C3922 C3921 1.524 . S
C3922 C3923 1.397 . S
C3922 C3927 1.363 . S
C3923 H3894 0.950 . S
C3923 C3922 1.397 . S
C3923 C3924 1.334 . S
C3924 H3895 0.950 . S
C3924 C3923 1.334 . S
C3924 C3925 1.287 . S
C3925 C3924 1.287 . S
C3925 C3926 1.524 . S
C3925 H3928 0.999 . S
C3926 H3896 0.950 . S
C3926 C3925 1.524 . S
C3926 C3927 1.415 . S
C3927 H3897 0.950 . S
C3927 C3922 1.363 . S
C3927 C3926 1.415 . S
H3928 C3925 0.999 . S
H3929 C3910 0.913 . S
H3930 C3948 0.951 . S
H3931 C3950 0.951 . S
H3932 C3952 0.950 . S
H3933 C3953 0.950 . S
H3934 C3955 0.950 . S
H3935 C3958 0.950 . S
H3936 C3959 0.950 . S
H3937 C3961 0.950 . S
H3938 C3962 0.950 . S
H3939 C3963 0.951 . S
H3940 C3965 0.951 . S
H3941 C3967 0.950 . S
H3942 C3968 0.950 1_545 S
H3943 C3970 0.950 . S
H3944 C3973 0.950 . S
H3945 C3974 0.950 . S
H3946 C3976 0.950 . S
H3947 C3977 0.950 . S
C3948 H3930 0.951 . S
C3948 C3949 1.366 . S
C3948 C3950 1.388 . S
C3949 C3948 1.366 . S
C3949 C3953 1.385 . S
C3950 H3931 0.951 . S
C3950 C3948 1.388 . S
C3950 C3951 1.366 . S
C3951 C3950 1.366 . S
C3951 C3952 1.414 . S
C3951 C3954 1.499 . S
C3952 H3932 0.950 . S
C3952 C3951 1.414 . S
C3952 C3953 1.374 . S
C3953 H3933 0.950 . S
C3953 C3949 1.385 . S
C3953 C3952 1.374 . S
C3954 C3951 1.499 . S
C3954 C3955 1.373 . S
C3954 C3956 1.389 . S
C3955 H3934 0.950 . S
C3955 C3954 1.373 . S
C3955 C3971 1.377 . S
C3956 C3954 1.389 . S
C3956 C3957 1.524 . S
C3956 C3970 1.377 . S
C3957 C3956 1.524 . S
C3957 C3958 1.397 . S
C3957 C3962 1.363 . S
C3958 H3935 0.950 . S
C3958 C3957 1.397 . S
C3958 C3959 1.334 . S
C3959 H3936 0.950 . S
C3959 C3958 1.334 . S
C3959 C3960 1.287 . S
C3960 C3959 1.287 . S
C3960 C3961 1.524 . S
C3960 H3979 0.913 . S
C3961 H3937 0.950 . S
C3961 C3960 1.524 . S
C3961 C3962 1.415 . S
C3962 H3938 0.950 . S
C3962 C3957 1.363 . S
C3962 C3961 1.415 . S
C3963 H3939 0.951 . S
C3963 C3964 1.366 . S
C3963 C3965 1.388 . S
C3964 C3963 1.366 . S
C3964 C3968 1.385 . S
C3965 H3940 0.951 . S
C3965 C3963 1.388 . S
C3965 C3966 1.366 . S
C3966 C3965 1.366 . S
C3966 C3967 1.414 . S
C3966 C3969 1.499 . S
C3967 H3941 0.950 . S
C3967 C3966 1.414 . S
C3967 C3968 1.374 . S
C3968 H3942 0.950 1_565 S
C3968 C3964 1.385 . S
C3968 C3967 1.374 . S
C3969 C3966 1.499 . S
C3969 C3970 1.373 . S
C3969 C3971 1.389 . S
C3970 H3943 0.950 . S
C3970 C3956 1.377 . S
C3970 C3969 1.373 . S
C3971 C3955 1.377 . S
C3971 C3969 1.389 . S
C3971 C3972 1.524 . S
C3972 C3971 1.524 . S
C3972 C3973 1.397 . S
C3972 C3977 1.363 . S
C3973 H3944 0.950 . S
C3973 C3972 1.397 . S
C3973 C3974 1.334 . S
C3974 H3945 0.950 . S
C3974 C3973 1.334 . S
C3974 C3975 1.287 . S
C3975 C3974 1.287 . S
C3975 C3976 1.524 . S
C3975 H3978 0.999 . S
C3976 H3946 0.950 . S
C3976 C3975 1.524 . S
C3976 C3977 1.415 . S
C3977 H3947 0.950 . S
C3977 C3972 1.363 . S
C3977 C3976 1.415 . S
H3978 C3975 0.999 . S
H3979 C3960 0.913 . S
H3980 C3998 0.951 . S
H3981 C4000 0.951 . S
H3982 C4002 0.950 . S
H3983 C4003 0.950 . S
H3984 C4005 0.950 . S
H3985 C4008 0.950 . S
H3986 C4009 0.950 . S
H3987 C4011 0.950 . S
H3988 C4012 0.950 . S
H3989 C4013 0.951 . S
H3990 C4015 0.951 . S
H3991 C4017 0.950 . S
H3992 C4018 0.950 . S
H3993 C4020 0.950 . S
H3994 C4023 0.950 . S
H3995 C4024 0.950 . S
H3996 C4026 0.950 . S
H3997 C4027 0.950 . S
C3998 H3980 0.951 . S
C3998 C3999 1.366 . S
C3998 C4000 1.388 . S
C3999 C3998 1.366 . S
C3999 C4003 1.385 . S
C4000 H3981 0.951 . S
C4000 C3998 1.388 . S
C4000 C4001 1.366 . S
C4001 C4000 1.366 . S
C4001 C4002 1.414 . S
C4001 C4004 1.499 . S
C4002 H3982 0.950 . S
C4002 C4001 1.414 . S
C4002 C4003 1.374 . S
C4003 H3983 0.950 . S
C4003 C3999 1.385 . S
C4003 C4002 1.374 . S
C4004 C4001 1.499 . S
C4004 C4005 1.373 . S
C4004 C4006 1.389 . S
C4005 H3984 0.950 . S
C4005 C4004 1.373 . S
C4005 C4021 1.377 . S
C4006 C4004 1.389 . S
C4006 C4007 1.524 . S
C4006 C4020 1.377 . S
C4007 C4006 1.524 . S
C4007 C4008 1.397 . S
C4007 C4012 1.363 . S
C4008 H3985 0.950 . S
C4008 C4007 1.397 . S
C4008 C4009 1.334 . S
C4009 H3986 0.950 . S
C4009 C4008 1.334 . S
C4009 C4010 1.287 . S
C4010 C4009 1.287 . S
C4010 C4011 1.524 . S
C4010 H4029 0.913 . S
C4011 H3987 0.950 . S
C4011 C4010 1.524 . S
C4011 C4012 1.415 . S
C4012 H3988 0.950 . S
C4012 C4007 1.363 . S
C4012 C4011 1.415 . S
C4013 H3989 0.951 . S
C4013 C4014 1.366 . S
C4013 C4015 1.388 . S
C4014 C4013 1.366 . S
C4014 C4018 1.385 . S
C4015 H3990 0.951 . S
C4015 C4013 1.388 . S
C4015 C4016 1.366 . S
C4016 C4015 1.366 . S
C4016 C4017 1.414 . S
C4016 C4019 1.499 . S
C4017 H3991 0.950 . S
C4017 C4016 1.414 . S
C4017 C4018 1.374 . S
C4018 H3992 0.950 . S
C4018 C4014 1.385 . S
C4018 C4017 1.374 . S
C4019 C4016 1.499 . S
C4019 C4020 1.373 . S
C4019 C4021 1.389 . S
C4020 H3993 0.950 . S
C4020 C4006 1.377 . S
C4020 C4019 1.373 . S
C4021 C4005 1.377 . S
C4021 C4019 1.389 . S
C4021 C4022 1.524 . S
C4022 C4021 1.524 . S
C4022 C4023 1.397 . S
C4022 C4027 1.363 . S
C4023 H3994 0.950 . S
C4023 C4022 1.397 . S
C4023 C4024 1.334 . S
C4024 H3995 0.950 . S
C4024 C4023 1.334 . S
C4024 C4025 1.287 . S
C4025 C4024 1.287 . S
C4025 C4026 1.524 . S
C4025 H4028 0.999 . S
C4026 H3996 0.950 . S
C4026 C4025 1.524 . S
C4026 C4027 1.415 . S
C4027 H3997 0.950 . S
C4027 C4022 1.363 . S
C4027 C4026 1.415 . S
H4028 C4025 0.999 . S
H4029 C4010 0.913 . S
H4030 C4048 0.951 . S
H4031 C4050 0.951 . S
H4032 C4052 0.950 . S
H4033 C4053 0.950 . S
H4034 C4055 0.950 . S
H4035 C4058 0.950 . S
H4036 C4059 0.950 . S
H4037 C4061 0.950 . S
H4038 C4062 0.950 . S
H4039 C4063 0.951 . S
H4040 C4065 0.951 . S
H4041 C4067 0.950 . S
H4042 C4068 0.950 . S
H4043 C4070 0.950 . S
H4044 C4073 0.950 . S
H4045 C4074 0.950 . S
H4046 C4076 0.950 . S
H4047 C4077 0.950 . S
C4048 H4030 0.951 . S
C4048 C4049 1.366 . S
C4048 C4050 1.388 . S
C4049 C4048 1.366 . S
C4049 C4053 1.385 . S
C4050 H4031 0.951 . S
C4050 C4048 1.388 . S
C4050 C4051 1.366 . S
C4051 C4050 1.366 . S
C4051 C4052 1.414 . S
C4051 C4054 1.499 . S
C4052 H4032 0.950 . S
C4052 C4051 1.414 . S
C4052 C4053 1.374 . S
C4053 H4033 0.950 . S
C4053 C4049 1.385 . S
C4053 C4052 1.374 . S
C4054 C4051 1.499 . S
C4054 C4055 1.373 . S
C4054 C4056 1.389 . S
C4055 H4034 0.950 . S
C4055 C4054 1.373 . S
C4055 C4071 1.377 . S
C4056 C4054 1.389 . S
C4056 C4057 1.524 . S
C4056 C4070 1.377 . S
C4057 C4056 1.524 . S
C4057 C4058 1.397 . S
C4057 C4062 1.363 . S
C4058 H4035 0.950 . S
C4058 C4057 1.397 . S
C4058 C4059 1.334 . S
C4059 H4036 0.950 . S
C4059 C4058 1.334 . S
C4059 C4060 1.287 . S
C4060 C4059 1.287 . S
C4060 C4061 1.524 . S
C4060 H4079 0.913 . S
C4061 H4037 0.950 . S
C4061 C4060 1.524 . S
C4061 C4062 1.415 . S
C4062 H4038 0.950 . S
C4062 C4057 1.363 . S
C4062 C4061 1.415 . S
C4063 H4039 0.951 . S
C4063 C4064 1.366 . S
C4063 C4065 1.388 . S
C4064 C4063 1.366 . S
C4064 C4068 1.385 . S
C4065 H4040 0.951 . S
C4065 C4063 1.388 . S
C4065 C4066 1.366 . S
C4066 C4065 1.366 . S
C4066 C4067 1.414 . S
C4066 C4069 1.499 . S
C4067 H4041 0.950 . S
C4067 C4066 1.414 . S
C4067 C4068 1.374 . S
C4068 H4042 0.950 . S
C4068 C4064 1.385 . S
C4068 C4067 1.374 . S
C4069 C4066 1.499 . S
C4069 C4070 1.373 . S
C4069 C4071 1.389 . S
C4070 H4043 0.950 . S
C4070 C4056 1.377 . S
C4070 C4069 1.373 . S
C4071 C4055 1.377 . S
C4071 C4069 1.389 . S
C4071 C4072 1.524 . S
C4072 C4071 1.524 . S
C4072 C4073 1.397 . S
C4072 C4077 1.363 . S
C4073 H4044 0.950 . S
C4073 C4072 1.397 . S
C4073 C4074 1.334 . S
C4074 H4045 0.950 . S
C4074 C4073 1.334 . S
C4074 C4075 1.287 . S
C4075 C4074 1.287 . S
C4075 C4076 1.524 . S
C4075 H4078 0.999 . S
C4076 H4046 0.950 . S
C4076 C4075 1.524 . S
C4076 C4077 1.415 . S
C4077 H4047 0.950 . S
C4077 C4072 1.363 . S
C4077 C4076 1.415 . S
H4078 C4075 0.999 . S
H4079 C4060 0.913 . S
H4080 C4098 0.951 . S
H4081 C4100 0.951 . S
H4082 C4102 0.950 . S
H4083 C4103 0.950 . S
H4084 C4105 0.950 . S
H4085 C4108 0.950 . S
H4086 C4109 0.950 . S
H4087 C4111 0.950 . S
H4088 C4112 0.950 . S
H4089 C4113 0.951 . S
H4090 C4115 0.951 . S
H4091 C4117 0.950 . S
H4092 C4118 0.950 . S
H4093 C4120 0.950 . S
H4094 C4123 0.950 . S
H4095 C4124 0.950 . S
H4096 C4126 0.950 . S
H4097 C4127 0.950 . S
C4098 H4080 0.951 . S
C4098 C4099 1.366 . S
C4098 C4100 1.388 . S
C4099 C4098 1.366 . S
C4099 C4103 1.385 . S
C4100 H4081 0.951 . S
C4100 C4098 1.388 . S
C4100 C4101 1.366 . S
C4101 C4100 1.366 . S
C4101 C4102 1.414 . S
C4101 C4104 1.499 . S
C4102 H4082 0.950 . S
C4102 C4101 1.414 . S
C4102 C4103 1.374 . S
C4103 H4083 0.950 . S
C4103 C4099 1.385 . S
C4103 C4102 1.374 . S
C4104 C4101 1.499 . S
C4104 C4105 1.373 . S
C4104 C4106 1.389 . S
C4105 H4084 0.950 . S
C4105 C4104 1.373 . S
C4105 C4121 1.377 . S
C4106 C4104 1.389 . S
C4106 C4107 1.524 . S
C4106 C4120 1.377 . S
C4107 C4106 1.524 . S
C4107 C4108 1.397 . S
C4107 C4112 1.363 . S
C4108 H4085 0.950 . S
C4108 C4107 1.397 . S
C4108 C4109 1.334 . S
C4109 H4086 0.950 . S
C4109 C4108 1.334 . S
C4109 C4110 1.287 . S
C4110 C4109 1.287 . S
C4110 C4111 1.524 . S
C4110 H4129 0.913 . S
C4111 H4087 0.950 . S
C4111 C4110 1.524 . S
C4111 C4112 1.415 . S
C4112 H4088 0.950 . S
C4112 C4107 1.363 . S
C4112 C4111 1.415 . S
C4113 H4089 0.951 . S
C4113 C4114 1.366 . S
C4113 C4115 1.388 . S
C4114 C4113 1.366 . S
C4114 C4118 1.385 . S
C4115 H4090 0.951 . S
C4115 C4113 1.388 . S
C4115 C4116 1.366 . S
C4116 C4115 1.366 . S
C4116 C4117 1.414 . S
C4116 C4119 1.499 . S
C4117 H4091 0.950 . S
C4117 C4116 1.414 . S
C4117 C4118 1.374 . S
C4118 H4092 0.950 . S
C4118 C4114 1.385 . S
C4118 C4117 1.374 . S
C4119 C4116 1.499 . S
C4119 C4120 1.373 . S
C4119 C4121 1.389 . S
C4120 H4093 0.950 . S
C4120 C4106 1.377 . S
C4120 C4119 1.373 . S
C4121 C4105 1.377 . S
C4121 C4119 1.389 . S
C4121 C4122 1.524 . S
C4122 C4121 1.524 . S
C4122 C4123 1.397 . S
C4122 C4127 1.363 . S
C4123 H4094 0.950 . S
C4123 C4122 1.397 . S
C4123 C4124 1.334 . S
C4124 H4095 0.950 . S
C4124 C4123 1.334 . S
C4124 C4125 1.287 . S
C4125 C4124 1.287 . S
C4125 C4126 1.524 . S
C4125 H4128 0.999 . S
C4126 H4096 0.950 . S
C4126 C4125 1.524 . S
C4126 C4127 1.415 . S
C4127 H4097 0.950 . S
C4127 C4122 1.363 . S
C4127 C4126 1.415 . S
H4128 C4125 0.999 . S
H4129 C4110 0.913 . S
H4130 C4148 0.951 . S
H4131 C4150 0.951 . S
H4132 C4152 0.950 . S
H4133 C4153 0.950 . S
H4134 C4155 0.950 . S
H4135 C4158 0.950 . S
H4136 C4159 0.950 . S
H4137 C4161 0.950 . S
H4138 C4162 0.950 . S
H4139 C4163 0.951 . S
H4140 C4165 0.951 . S
H4141 C4167 0.950 . S
H4142 C4168 0.950 . S
H4143 C4170 0.950 . S
H4144 C4173 0.950 . S
H4145 C4174 0.950 . S
H4146 C4176 0.950 . S
H4147 C4177 0.950 . S
C4148 H4130 0.951 . S
C4148 C4149 1.366 . S
C4148 C4150 1.388 . S
C4149 C4148 1.366 . S
C4149 C4153 1.385 . S
C4150 H4131 0.951 . S
C4150 C4148 1.388 . S
C4150 C4151 1.366 . S
C4151 C4150 1.366 . S
C4151 C4152 1.414 . S
C4151 C4154 1.499 . S
C4152 H4132 0.950 . S
C4152 C4151 1.414 . S
C4152 C4153 1.374 . S
C4153 H4133 0.950 . S
C4153 C4149 1.385 . S
C4153 C4152 1.374 . S
C4154 C4151 1.499 . S
C4154 C4155 1.373 . S
C4154 C4156 1.389 . S
C4155 H4134 0.950 . S
C4155 C4154 1.373 . S
C4155 C4171 1.377 . S
C4156 C4154 1.389 . S
C4156 C4157 1.524 . S
C4156 C4170 1.377 . S
C4157 C4156 1.524 . S
C4157 C4158 1.397 . S
C4157 C4162 1.363 . S
C4158 H4135 0.950 . S
C4158 C4157 1.397 . S
C4158 C4159 1.334 . S
C4159 H4136 0.950 . S
C4159 C4158 1.334 . S
C4159 C4160 1.287 . S
C4160 C4159 1.287 . S
C4160 C4161 1.524 . S
C4160 H4179 0.913 . S
C4161 H4137 0.950 . S
C4161 C4160 1.524 . S
C4161 C4162 1.415 . S
C4162 H4138 0.950 . S
C4162 C4157 1.363 . S
C4162 C4161 1.415 . S
C4163 H4139 0.951 . S
C4163 C4164 1.366 . S
C4163 C4165 1.388 . S
C4164 C4163 1.366 . S
C4164 C4168 1.385 . S
C4165 H4140 0.951 . S
C4165 C4163 1.388 . S
C4165 C4166 1.366 . S
C4166 C4165 1.366 . S
C4166 C4167 1.414 . S
C4166 C4169 1.499 . S
C4167 H4141 0.950 . S
C4167 C4166 1.414 . S
C4167 C4168 1.374 . S
C4168 H4142 0.950 . S
C4168 C4164 1.385 . S
C4168 C4167 1.374 . S
C4169 C4166 1.499 . S
C4169 C4170 1.373 . S
C4169 C4171 1.389 . S
C4170 H4143 0.950 . S
C4170 C4156 1.377 . S
C4170 C4169 1.373 . S
C4171 C4155 1.377 . S
C4171 C4169 1.389 . S
C4171 C4172 1.524 . S
C4172 C4171 1.524 . S
C4172 C4173 1.397 . S
C4172 C4177 1.363 . S
C4173 H4144 0.950 . S
C4173 C4172 1.397 . S
C4173 C4174 1.334 . S
C4174 H4145 0.950 . S
C4174 C4173 1.334 . S
C4174 C4175 1.287 . S
C4175 C4174 1.287 . S
C4175 C4176 1.524 . S
C4175 H4178 0.999 . S
C4176 H4146 0.950 . S
C4176 C4175 1.524 . S
C4176 C4177 1.415 . S
C4177 H4147 0.950 . S
C4177 C4172 1.363 . S
C4177 C4176 1.415 . S
H4178 C4175 0.999 . S
H4179 C4160 0.913 . S
H4180 C4198 0.951 . S
H4181 C4200 0.951 1_554 S
H4182 C4202 0.950 . S
H4183 C4203 0.950 . S
H4184 C4205 0.950 . S
H4185 C4208 0.950 . S
H4186 C4209 0.948 1_556 S
H4187 C4211 0.950 . S
H4188 C4212 0.950 . S
H4189 C4213 0.951 . S
H4190 C4215 0.951 . S
H4191 C4217 0.950 . S
H4192 C4218 0.950 . S
H4193 C4220 0.950 . S
H4194 C4223 0.950 . S
H4195 C4224 0.950 . S
H4196 C4226 0.950 . S
H4197 C4227 0.950 . S
C4198 H4180 0.951 . S
C4198 C4199 1.366 . S
C4198 C4200 1.388 . S
C4199 C4198 1.366 . S
C4199 C4203 1.385 . S
C4200 H4181 0.951 1_556 S
C4200 C4198 1.388 . S
C4200 C4201 1.366 . S
C4201 C4200 1.366 . S
C4201 C4202 1.414 . S
C4201 C4204 1.499 . S
C4202 H4182 0.950 . S
C4202 C4201 1.414 . S
C4202 C4203 1.374 . S
C4203 H4183 0.950 . S
C4203 C4199 1.385 . S
C4203 C4202 1.374 . S
C4204 C4201 1.499 . S
C4204 C4205 1.373 . S
C4204 C4206 1.389 . S
C4205 H4184 0.950 . S
C4205 C4204 1.373 . S
C4205 C4221 1.377 . S
C4206 C4204 1.389 . S
C4206 C4207 1.524 1_556 S
C4206 C4220 1.377 1_556 S
C4207 C4206 1.524 1_554 S
C4207 C4208 1.397 1_454 S
C4207 C4212 1.363 . S
C4208 H4185 0.950 . S
C4208 C4207 1.397 1_656 S
C4208 C4209 1.332 1_556 S
C4209 H4186 0.948 1_554 S
C4209 C4208 1.332 1_554 S
C4209 C4210 1.291 . S
C4210 C4209 1.291 . S
C4210 C4211 1.524 . S
C4210 H4229 0.913 . S
C4211 H4187 0.950 . S
C4211 C4210 1.524 . S
C4211 C4212 1.415 1_655 S
C4212 H4188 0.950 . S
C4212 C4207 1.363 . S
C4212 C4211 1.415 1_455 S
C4213 H4189 0.951 . S
C4213 C4214 1.366 1_556 S
C4213 C4215 1.388 . S
C4214 C4213 1.366 1_554 S
C4214 C4218 1.385 . S
C4215 H4190 0.951 . S
C4215 C4213 1.388 . S
C4215 C4216 1.369 . S
C4216 C4215 1.369 . S
C4216 C4217 1.410 1_556 S
C4216 C4219 1.499 . S
C4217 H4191 0.950 . S
C4217 C4216 1.410 1_554 S
C4217 C4218 1.374 . S
C4218 H4192 0.950 . S
C4218 C4214 1.385 . S
C4218 C4217 1.374 . S
C4219 C4216 1.499 . S
C4219 C4220 1.373 1_556 S
C4219 C4221 1.389 . S
C4220 H4193 0.950 . S
C4220 C4206 1.377 1_554 S
C4220 C4219 1.373 1_554 S
C4221 C4205 1.377 . S
C4221 C4219 1.389 . S
C4221 C4222 1.524 . S
C4222 C4221 1.524 . S
C4222 C4223 1.397 . S
C4222 C4227 1.363 . S
C4223 H4194 0.950 . S
C4223 C4222 1.397 . S
C4223 C4224 1.334 . S
C4224 H4195 0.950 . S
C4224 C4223 1.334 . S
C4224 C4225 1.287 . S
C4225 C4224 1.287 . S
C4225 C4226 1.524 . S
C4225 H4228 0.999 . S
C4226 H4196 0.950 . S
C4226 C4225 1.524 . S
C4226 C4227 1.415 . S
C4227 H4197 0.950 . S
C4227 C4222 1.363 . S
C4227 C4226 1.415 . S
H4228 C4225 0.999 . S
H4229 C4210 0.913 . S
H4230 C4248 0.951 . S
H4231 C4250 1.001 . S
H4232 C4252 0.950 . S
H4233 C4253 0.950 . S
H4234 C4255 0.950 . S
H4235 C4258 0.950 . S
H4236 C4259 0.950 1_455 S
H4237 C4261 0.950 . S
H4238 C4262 0.950 . S
H4239 C4263 0.951 . S
H4240 C4265 0.951 . S
H4241 C4267 0.950 . S
H4242 C4268 0.950 . S
H4243 C4270 0.950 . S
H4244 C4273 0.950 . S
H4245 C4274 0.950 . S
H4246 C4276 0.950 . S
H4247 C4277 0.950 . S
C4248 H4230 0.951 . S
C4248 C4249 1.366 . S
C4248 C4250 1.340 1_455 S
C4249 C4248 1.366 . S
C4249 C4253 1.385 . S
C4250 H4231 1.001 . S
C4250 C4248 1.340 1_655 S
C4250 C4251 1.366 1_655 S
C4251 C4250 1.366 1_455 S
C4251 C4252 1.414 . S
C4251 C4254 1.499 1_455 S
C4252 H4232 0.950 . S
C4252 C4251 1.414 . S
C4252 C4253 1.374 . S
C4253 H4233 0.950 . S
C4253 C4249 1.385 . S
C4253 C4252 1.374 . S
C4254 C4251 1.499 1_655 S
C4254 C4255 1.373 . S
C4254 C4256 1.389 . S
C4255 H4234 0.950 . S
C4255 C4254 1.373 . S
C4255 C4271 1.377 . S
C4256 C4254 1.389 . S
C4256 C4257 1.524 . S
C4256 C4270 1.377 . S
C4257 C4256 1.524 . S
C4257 C4258 1.397 . S
C4257 C4262 1.363 . S
C4258 H4235 0.950 . S
C4258 C4257 1.397 . S
C4258 C4259 1.334 . S
C4259 H4236 0.950 1_655 S
C4259 C4258 1.334 . S
C4259 C4260 1.287 . S
C4260 C4259 1.287 . S
C4260 C4261 1.524 . S
C4260 H4279 0.913 . S
C4261 H4237 0.950 . S
C4261 C4260 1.524 . S
C4261 C4262 1.415 . S
C4262 H4238 0.950 . S
C4262 C4257 1.363 . S
C4262 C4261 1.415 . S
C4263 H4239 0.951 . S
C4263 C4264 1.366 . S
C4263 C4265 1.388 . S
C4264 C4263 1.366 . S
C4264 C4268 1.385 . S
C4265 H4240 0.951 . S
C4265 C4263 1.388 . S
C4265 C4266 1.366 . S
C4266 C4265 1.366 . S
C4266 C4267 1.414 . S
C4266 C4269 1.499 . S
C4267 H4241 0.950 . S
C4267 C4266 1.414 . S
C4267 C4268 1.374 . S
C4268 H4242 0.950 . S
C4268 C4264 1.385 . S
C4268 C4267 1.374 . S
C4269 C4266 1.499 . S
C4269 C4270 1.373 . S
C4269 C4271 1.389 . S
C4270 H4243 0.950 . S
C4270 C4256 1.377 . S
C4270 C4269 1.373 . S
C4271 C4255 1.377 . S
C4271 C4269 1.389 . S
C4271 C4272 1.524 . S
C4272 C4271 1.524 . S
C4272 C4273 1.397 . S
C4272 C4277 1.363 . S
C4273 H4244 0.950 . S
C4273 C4272 1.397 . S
C4273 C4274 1.334 . S
C4274 H4245 0.950 . S
C4274 C4273 1.334 . S
C4274 C4275 1.287 . S
C4275 C4274 1.287 . S
C4275 C4276 1.524 . S
C4275 H4278 0.999 . S
C4276 H4246 0.950 . S
C4276 C4275 1.524 . S
C4276 C4277 1.415 . S
C4277 H4247 0.950 . S
C4277 C4272 1.363 . S
C4277 C4276 1.415 . S
H4278 C4275 0.999 . S
H4279 C4260 0.913 . S
H4280 C4298 0.951 . S
H4281 C4300 0.951 . S
H4282 C4302 0.950 . S
H4283 C4303 0.950 . S
H4284 C4305 0.950 . S
H4285 C4308 0.950 . S
H4286 C4309 0.950 . S
H4287 C4311 0.950 . S
H4288 C4312 0.950 . S
H4289 C4313 0.951 . S
H4290 C4315 0.951 . S
H4291 C4317 0.950 . S
H4292 C4318 0.950 . S
H4293 C4320 0.950 . S
H4294 C4323 0.950 . S
H4295 C4324 0.950 . S
H4296 C4326 0.950 . S
H4297 C4327 0.950 . S
C4298 H4280 0.951 . S
C4298 C4299 1.366 . S
C4298 C4300 1.388 . S
C4299 C4298 1.366 . S
C4299 C4303 1.385 . S
C4300 H4281 0.951 . S
C4300 C4298 1.388 . S
C4300 C4301 1.366 . S
C4301 C4300 1.366 . S
C4301 C4302 1.414 . S
C4301 C4304 1.499 . S
C4302 H4282 0.950 . S
C4302 C4301 1.414 . S
C4302 C4303 1.374 . S
C4303 H4283 0.950 . S
C4303 C4299 1.385 . S
C4303 C4302 1.374 . S
C4304 C4301 1.499 . S
C4304 C4305 1.373 . S
C4304 C4306 1.389 . S
C4305 H4284 0.950 . S
C4305 C4304 1.373 . S
C4305 C4321 1.377 . S
C4306 C4304 1.389 . S
C4306 C4307 1.524 . S
C4306 C4320 1.377 . S
C4307 C4306 1.524 . S
C4307 C4308 1.397 . S
C4307 C4312 1.363 . S
C4308 H4285 0.950 . S
C4308 C4307 1.397 . S
C4308 C4309 1.334 . S
C4309 H4286 0.950 . S
C4309 C4308 1.334 . S
C4309 C4310 1.287 . S
C4310 C4309 1.287 . S
C4310 C4311 1.524 . S
C4310 H4329 0.913 . S
C4311 H4287 0.950 . S
C4311 C4310 1.524 . S
C4311 C4312 1.415 . S
C4312 H4288 0.950 . S
C4312 C4307 1.363 . S
C4312 C4311 1.415 . S
C4313 H4289 0.951 . S
C4313 C4314 1.366 . S
C4313 C4315 1.388 . S
C4314 C4313 1.366 . S
C4314 C4318 1.385 . S
C4315 H4290 0.951 . S
C4315 C4313 1.388 . S
C4315 C4316 1.366 . S
C4316 C4315 1.366 . S
C4316 C4317 1.414 . S
C4316 C4319 1.499 . S
C4317 H4291 0.950 . S
C4317 C4316 1.414 . S
C4317 C4318 1.374 . S
C4318 H4292 0.950 . S
C4318 C4314 1.385 . S
C4318 C4317 1.374 . S
C4319 C4316 1.499 . S
C4319 C4320 1.373 . S
C4319 C4321 1.389 . S
C4320 H4293 0.950 . S
C4320 C4306 1.377 . S
C4320 C4319 1.373 . S
C4321 C4305 1.377 . S
C4321 C4319 1.389 . S
C4321 C4322 1.524 . S
C4322 C4321 1.524 . S
C4322 C4323 1.397 . S
C4322 C4327 1.363 . S
C4323 H4294 0.950 . S
C4323 C4322 1.397 . S
C4323 C4324 1.334 . S
C4324 H4295 0.950 . S
C4324 C4323 1.334 . S
C4324 C4325 1.287 . S
C4325 C4324 1.287 . S
C4325 C4326 1.524 . S
C4325 H4328 0.999 . S
C4326 H4296 0.950 . S
C4326 C4325 1.524 . S
C4326 C4327 1.415 . S
C4327 H4297 0.950 . S
C4327 C4322 1.363 . S
C4327 C4326 1.415 . S
H4328 C4325 0.999 . S
H4329 C4310 0.913 . S
H4330 C4348 0.951 . S
H4331 C4350 0.951 . S
H4332 C4352 0.950 . S
H4333 C4353 0.950 . S
H4334 C4355 0.950 . S
H4335 C4358 0.950 . S
H4336 C4359 0.950 . S
H4337 C4361 0.950 . S
H4338 C4362 0.950 . S
H4339 C4363 0.951 . S
H4340 C4365 0.951 . S
H4341 C4367 0.950 . S
H4342 C4368 0.950 . S
H4343 C4370 0.950 . S
H4344 C4373 0.950 . S
H4345 C4374 0.950 . S
H4346 C4376 0.950 . S
H4347 C4377 0.950 . S
C4348 H4330 0.951 . S
C4348 C4349 1.366 . S
C4348 C4350 1.388 . S
C4349 C4348 1.366 . S
C4349 C4353 1.385 . S
C4350 H4331 0.951 . S
C4350 C4348 1.388 . S
C4350 C4351 1.366 . S
C4351 C4350 1.366 . S
C4351 C4352 1.414 . S
C4351 C4354 1.499 . S
C4352 H4332 0.950 . S
C4352 C4351 1.414 . S
C4352 C4353 1.374 . S
C4353 H4333 0.950 . S
C4353 C4349 1.385 . S
C4353 C4352 1.374 . S
C4354 C4351 1.499 . S
C4354 C4355 1.373 1_455 S
C4354 C4356 1.389 . S
C4355 H4334 0.950 . S
C4355 C4354 1.373 1_655 S
C4355 C4371 1.377 . S
C4356 C4354 1.389 . S
C4356 C4357 1.524 . S
C4356 C4370 1.377 1_455 S
C4357 C4356 1.524 . S
C4357 C4358 1.397 . S
C4357 C4362 1.363 . S
C4358 H4335 0.950 . S
C4358 C4357 1.397 . S
C4358 C4359 1.334 . S
C4359 H4336 0.950 . S
C4359 C4358 1.334 . S
C4359 C4360 1.287 . S
C4360 C4359 1.287 . S
C4360 C4361 1.524 . S
C4360 H4379 0.913 . S
C4361 H4337 0.950 . S
C4361 C4360 1.524 . S
C4361 C4362 1.415 . S
C4362 H4338 0.950 . S
C4362 C4357 1.363 . S
C4362 C4361 1.415 . S
C4363 H4339 0.951 . S
C4363 C4364 1.366 . S
C4363 C4365 1.388 . S
C4364 C4363 1.366 . S
C4364 C4368 1.385 . S
C4365 H4340 0.951 . S
C4365 C4363 1.388 . S
C4365 C4366 1.366 . S
C4366 C4365 1.366 . S
C4366 C4367 1.414 . S
C4366 C4369 1.499 . S
C4367 H4341 0.950 . S
C4367 C4366 1.414 . S
C4367 C4368 1.374 . S
C4368 H4342 0.950 . S
C4368 C4364 1.385 . S
C4368 C4367 1.374 . S
C4369 C4366 1.499 . S
C4369 C4370 1.373 . S
C4369 C4371 1.389 . S
C4370 H4343 0.950 . S
C4370 C4356 1.377 1_655 S
C4370 C4369 1.373 . S
C4371 C4355 1.377 . S
C4371 C4369 1.389 . S
C4371 C4372 1.524 . S
C4372 C4371 1.524 . S
C4372 C4373 1.397 . S
C4372 C4377 1.363 . S
C4373 H4344 0.950 . S
C4373 C4372 1.397 . S
C4373 C4374 1.334 . S
C4374 H4345 0.950 . S
C4374 C4373 1.334 . S
C4374 C4375 1.287 . S
C4375 C4374 1.287 . S
C4375 C4376 1.524 . S
C4375 H4378 0.999 . S
C4376 H4346 0.950 . S
C4376 C4375 1.524 . S
C4376 C4377 1.415 . S
C4377 H4347 0.950 . S
C4377 C4372 1.363 . S
C4377 C4376 1.415 . S
H4378 C4375 0.999 . S
H4379 C4360 0.913 . S
H4380 C4398 0.951 . S
H4381 C4400 0.951 . S
H4382 C4402 0.950 . S
H4383 C4403 0.950 . S
H4384 C4405 0.950 . S
H4385 C4408 0.950 . S
H4386 C4409 0.950 . S
H4387 C4411 0.950 . S
H4388 C4412 0.950 . S
H4389 C4413 0.951 . S
H4390 C4415 0.951 1_655 S
H4391 C4417 0.950 . S
H4392 C4418 0.950 . S
H4393 C4420 0.950 . S
H4394 C4423 0.950 1_455 S
H4395 C4424 0.950 . S
H4396 C4426 0.950 . S
H4397 C4427 0.950 . S
C4398 H4380 0.951 . S
C4398 C4399 1.366 1_455 S
C4398 C4400 1.388 . S
C4399 C4398 1.366 1_655 S
C4399 C4403 1.385 . S
C4400 H4381 0.951 . S
C4400 C4398 1.388 . S
C4400 C4401 1.366 . S
C4401 C4400 1.366 . S
C4401 C4402 1.414 1_455 S
C4401 C4404 1.499 . S
C4402 H4382 0.950 . S
C4402 C4401 1.414 1_655 S
C4402 C4403 1.374 . S
C4403 H4383 0.950 . S
C4403 C4399 1.385 . S
C4403 C4402 1.374 . S
C4404 C4401 1.499 . S
C4404 C4405 1.373 1_455 S
C4404 C4406 1.389 . S
C4405 H4384 0.950 . S
C4405 C4404 1.373 1_655 S
C4405 C4421 1.386 . S
C4406 C4404 1.389 . S
C4406 C4407 1.524 . S
C4406 C4420 1.377 . S
C4407 C4406 1.524 . S
C4407 C4408 1.397 . S
C4407 C4412 1.363 . S
C4408 H4385 0.950 . S
C4408 C4407 1.397 . S
C4408 C4409 1.334 . S
C4409 H4386 0.950 . S
C4409 C4408 1.334 . S
C4409 C4410 1.287 . S
C4410 C4409 1.287 . S
C4410 C4411 1.524 . S
C4410 H4429 0.913 . S
C4411 H4387 0.950 . S
C4411 C4410 1.524 . S
C4411 C4412 1.415 . S
C4412 H4388 0.950 . S
C4412 C4407 1.363 . S
C4412 C4411 1.415 . S
C4413 H4389 0.951 . S
C4413 C4414 1.366 . S
C4413 C4415 1.388 . S
C4414 C4413 1.366 . S
C4414 C4418 1.385 . S
C4415 H4390 0.951 1_455 S
C4415 C4413 1.388 . S
C4415 C4416 1.366 . S
C4416 C4415 1.366 . S
C4416 C4417 1.414 . S
C4416 C4419 1.499 . S
C4417 H4391 0.950 . S
C4417 C4416 1.414 . S
C4417 C4418 1.374 . S
C4418 H4392 0.950 . S
C4418 C4414 1.385 . S
C4418 C4417 1.374 . S
C4419 C4416 1.499 . S
C4419 C4420 1.373 . S
C4419 C4421 1.374 1_455 S
C4420 H4393 0.950 . S
C4420 C4406 1.377 . S
C4420 C4419 1.373 . S
C4421 C4405 1.386 . S
C4421 C4419 1.374 1_655 S
C4421 C4422 1.531 . S
C4422 C4421 1.531 . S
C4422 C4423 1.397 . S
C4422 C4427 1.363 . S
C4423 H4394 0.950 1_655 S
C4423 C4422 1.397 . S
C4423 C4424 1.334 . S
C4424 H4395 0.950 . S
C4424 C4423 1.334 . S
C4424 C4425 1.287 . S
C4425 C4424 1.287 . S
C4425 C4426 1.524 . S
C4425 H4428 0.999 . S
C4426 H4396 0.950 . S
C4426 C4425 1.524 . S
C4426 C4427 1.415 . S
C4427 H4397 0.950 . S
C4427 C4422 1.363 . S
C4427 C4426 1.415 . S
H4428 C4425 0.999 . S
H4429 C4410 0.913 . S
H4430 C4448 0.951 . S
H4431 C4450 0.951 . S
H4432 C4452 0.950 . S
H4433 C4453 0.950 . S
H4434 C4455 0.950 . S
H4435 C4458 0.950 . S
H4436 C4459 0.950 . S
H4437 C4461 0.950 . S
H4438 C4462 0.950 . S
H4439 C4463 0.951 . S
H4440 C4465 0.951 . S
H4441 C4467 0.950 . S
H4442 C4468 0.950 . S
H4443 C4470 0.950 . S
H4444 C4473 0.950 . S
H4445 C4474 0.950 . S
H4446 C4476 0.950 . S
H4447 C4477 0.950 . S
C4448 H4430 0.951 . S
C4448 C4449 1.366 . S
C4448 C4450 1.388 . S
C4449 C4448 1.366 . S
C4449 C4453 1.385 . S
C4450 H4431 0.951 . S
C4450 C4448 1.388 . S
C4450 C4451 1.366 . S
C4451 C4450 1.366 . S
C4451 C4452 1.414 . S
C4451 C4454 1.499 . S
C4452 H4432 0.950 . S
C4452 C4451 1.414 . S
C4452 C4453 1.374 . S
C4453 H4433 0.950 . S
C4453 C4449 1.385 . S
C4453 C4452 1.374 . S
C4454 C4451 1.499 . S
C4454 C4455 1.373 . S
C4454 C4456 1.389 . S
C4455 H4434 0.950 . S
C4455 C4454 1.373 . S
C4455 C4471 1.377 . S
C4456 C4454 1.389 . S
C4456 C4457 1.524 . S
C4456 C4470 1.377 . S
C4457 C4456 1.524 . S
C4457 C4458 1.397 . S
C4457 C4462 1.363 . S
C4458 H4435 0.950 . S
C4458 C4457 1.397 . S
C4458 C4459 1.334 . S
C4459 H4436 0.950 . S
C4459 C4458 1.334 . S
C4459 C4460 1.287 . S
C4460 C4459 1.287 . S
C4460 C4461 1.524 . S
C4460 H4479 0.913 . S
C4461 H4437 0.950 . S
C4461 C4460 1.524 . S
C4461 C4462 1.415 . S
C4462 H4438 0.950 . S
C4462 C4457 1.363 . S
C4462 C4461 1.415 . S
C4463 H4439 0.951 . S
C4463 C4464 1.366 . S
C4463 C4465 1.388 . S
C4464 C4463 1.366 . S
C4464 C4468 1.385 . S
C4465 H4440 0.951 . S
C4465 C4463 1.388 . S
C4465 C4466 1.366 . S
C4466 C4465 1.366 . S
C4466 C4467 1.414 . S
C4466 C4469 1.499 . S
C4467 H4441 0.950 . S
C4467 C4466 1.414 . S
C4467 C4468 1.374 . S
C4468 H4442 0.950 . S
C4468 C4464 1.385 . S
C4468 C4467 1.374 . S
C4469 C4466 1.499 . S
C4469 C4470 1.373 . S
C4469 C4471 1.389 . S
C4470 H4443 0.950 . S
C4470 C4456 1.377 . S
C4470 C4469 1.373 . S
C4471 C4455 1.377 . S
C4471 C4469 1.389 . S
C4471 C4472 1.524 . S
C4472 C4471 1.524 . S
C4472 C4473 1.397 . S
C4472 C4477 1.363 . S
C4473 H4444 0.950 . S
C4473 C4472 1.397 . S
C4473 C4474 1.334 . S
C4474 H4445 0.950 . S
C4474 C4473 1.334 . S
C4474 C4475 1.287 . S
C4475 C4474 1.287 . S
C4475 C4476 1.524 . S
C4475 H4478 0.999 . S
C4476 H4446 0.950 . S
C4476 C4475 1.524 . S
C4476 C4477 1.415 . S
C4477 H4447 0.950 . S
C4477 C4472 1.363 . S
C4477 C4476 1.415 . S
H4478 C4475 0.999 . S
H4479 C4460 0.913 . S
H4480 C4498 0.951 . S
H4481 C4500 0.951 . S
H4482 C4502 0.950 . S
H4483 C4503 0.950 . S
H4484 C4505 0.950 . S
H4485 C4508 0.950 . S
H4486 C4509 0.950 . S
H4487 C4511 0.950 . S
H4488 C4512 0.950 . S
H4489 C4513 0.951 . S
H4490 C4515 0.951 . S
H4491 C4517 0.950 . S
H4492 C4518 0.950 . S
H4493 C4520 0.950 . S
H4494 C4523 0.950 . S
H4495 C4524 0.950 . S
H4496 C4526 0.950 . S
H4497 C4527 0.950 . S
C4498 H4480 0.951 . S
C4498 C4499 1.366 . S
C4498 C4500 1.388 . S
C4499 C4498 1.366 . S
C4499 C4503 1.385 . S
C4500 H4481 0.951 . S
C4500 C4498 1.388 . S
C4500 C4501 1.366 . S
C4501 C4500 1.366 . S
C4501 C4502 1.414 . S
C4501 C4504 1.499 . S
C4502 H4482 0.950 . S
C4502 C4501 1.414 . S
C4502 C4503 1.374 . S
C4503 H4483 0.950 . S
C4503 C4499 1.385 . S
C4503 C4502 1.374 . S
C4504 C4501 1.499 . S
C4504 C4505 1.373 . S
C4504 C4506 1.389 . S
C4505 H4484 0.950 . S
C4505 C4504 1.373 . S
C4505 C4521 1.377 . S
C4506 C4504 1.389 . S
C4506 C4507 1.524 . S
C4506 C4520 1.377 . S
C4507 C4506 1.524 . S
C4507 C4508 1.397 . S
C4507 C4512 1.363 . S
C4508 H4485 0.950 . S
C4508 C4507 1.397 . S
C4508 C4509 1.334 . S
C4509 H4486 0.950 . S
C4509 C4508 1.334 . S
C4509 C4510 1.287 . S
C4510 C4509 1.287 . S
C4510 C4511 1.524 . S
C4510 H4529 0.913 . S
C4511 H4487 0.950 . S
C4511 C4510 1.524 . S
C4511 C4512 1.415 . S
C4512 H4488 0.950 . S
C4512 C4507 1.363 . S
C4512 C4511 1.415 . S
C4513 H4489 0.951 . S
C4513 C4514 1.366 . S
C4513 C4515 1.388 . S
C4514 C4513 1.366 . S
C4514 C4518 1.385 . S
C4515 H4490 0.951 . S
C4515 C4513 1.388 . S
C4515 C4516 1.366 . S
C4516 C4515 1.366 . S
C4516 C4517 1.414 . S
C4516 C4519 1.499 . S
C4517 H4491 0.950 . S
C4517 C4516 1.414 . S
C4517 C4518 1.374 . S
C4518 H4492 0.950 . S
C4518 C4514 1.385 . S
C4518 C4517 1.374 . S
C4519 C4516 1.499 . S
C4519 C4520 1.373 . S
C4519 C4521 1.389 . S
C4520 H4493 0.950 . S
C4520 C4506 1.377 . S
C4520 C4519 1.373 . S
C4521 C4505 1.377 . S
C4521 C4519 1.389 . S
C4521 C4522 1.524 . S
C4522 C4521 1.524 . S
C4522 C4523 1.397 . S
C4522 C4527 1.363 . S
C4523 H4494 0.950 . S
C4523 C4522 1.397 . S
C4523 C4524 1.334 . S
C4524 H4495 0.950 . S
C4524 C4523 1.334 . S
C4524 C4525 1.287 . S
C4525 C4524 1.287 . S
C4525 C4526 1.524 . S
C4525 H4528 0.999 . S
C4526 H4496 0.950 . S
C4526 C4525 1.524 . S
C4526 C4527 1.415 . S
C4527 H4497 0.950 . S
C4527 C4522 1.363 . S
C4527 C4526 1.415 . S
H4528 C4525 0.999 . S
H4529 C4510 0.913 . S
H4530 C4548 0.951 . S
H4531 C4550 0.951 . S
H4532 C4552 0.950 . S
H4533 C4553 0.950 1_554 S
H4534 C4555 0.950 . S
H4535 C4558 0.950 . S
H4536 C4559 0.950 . S
H4537 C4561 0.950 . S
H4538 C4562 0.950 . S
H4539 C4563 0.951 . S
H4540 C4565 0.951 . S
H4541 C4567 0.950 . S
H4542 C4568 0.950 . S
H4543 C4570 0.950 . S
H4544 C4573 0.950 . S
H4545 C4574 0.950 . S
H4546 C4576 0.950 . S
H4547 C4577 0.950 . S
C4548 H4530 0.951 . S
C4548 C4549 1.366 . S
C4548 C4550 1.388 . S
C4549 C4548 1.366 . S
C4549 C4553 1.385 . S
C4550 H4531 0.951 . S
C4550 C4548 1.388 . S
C4550 C4551 1.366 . S
C4551 C4550 1.366 . S
C4551 C4552 1.414 . S
C4551 C4554 1.499 . S
C4552 H4532 0.950 . S
C4552 C4551 1.414 . S
C4552 C4553 1.374 . S
C4553 H4533 0.950 1_556 S
C4553 C4549 1.385 . S
C4553 C4552 1.374 . S
C4554 C4551 1.499 . S
C4554 C4555 1.373 . S
C4554 C4556 1.389 . S
C4555 H4534 0.950 . S
C4555 C4554 1.373 . S
C4555 C4571 1.377 . S
C4556 C4554 1.389 . S
C4556 C4557 1.524 . S
C4556 C4570 1.377 . S
C4557 C4556 1.524 . S
C4557 C4558 1.397 . S
C4557 C4562 1.363 . S
C4558 H4535 0.950 . S
C4558 C4557 1.397 . S
C4558 C4559 1.334 . S
C4559 H4536 0.950 . S
C4559 C4558 1.334 . S
C4559 C4560 1.287 . S
C4560 C4559 1.287 . S
C4560 C4561 1.524 . S
C4560 H4579 0.913 . S
C4561 H4537 0.950 . S
C4561 C4560 1.524 . S
C4561 C4562 1.415 . S
C4562 H4538 0.950 . S
C4562 C4557 1.363 . S
C4562 C4561 1.415 . S
C4563 H4539 0.951 . S
C4563 C4564 1.366 . S
C4563 C4565 1.388 . S
C4564 C4563 1.366 . S
C4564 C4568 1.385 . S
C4565 H4540 0.951 . S
C4565 C4563 1.388 . S
C4565 C4566 1.366 . S
C4566 C4565 1.366 . S
C4566 C4567 1.414 . S
C4566 C4569 1.499 . S
C4567 H4541 0.950 . S
C4567 C4566 1.414 . S
C4567 C4568 1.374 . S
C4568 H4542 0.950 . S
C4568 C4564 1.385 . S
C4568 C4567 1.374 . S
C4569 C4566 1.499 . S
C4569 C4570 1.373 . S
C4569 C4571 1.389 . S
C4570 H4543 0.950 . S
C4570 C4556 1.377 . S
C4570 C4569 1.373 . S
C4571 C4555 1.377 . S
C4571 C4569 1.389 . S
C4571 C4572 1.524 . S
C4572 C4571 1.524 . S
C4572 C4573 1.397 . S
C4572 C4577 1.363 . S
C4573 H4544 0.950 . S
C4573 C4572 1.397 . S
C4573 C4574 1.334 . S
C4574 H4545 0.950 . S
C4574 C4573 1.334 . S
C4574 C4575 1.287 . S
C4575 C4574 1.287 . S
C4575 C4576 1.524 . S
C4575 H4578 0.999 . S
C4576 H4546 0.950 . S
C4576 C4575 1.524 . S
C4576 C4577 1.415 . S
C4577 H4547 0.950 . S
C4577 C4572 1.363 . S
C4577 C4576 1.415 . S
H4578 C4575 0.999 . S
H4579 C4560 0.913 . S
H4580 C4598 0.951 . S
H4581 C4600 0.951 . S
H4582 C4602 0.950 . S
H4583 C4603 0.950 . S
H4584 C4605 0.950 . S
H4585 C4608 0.950 . S
H4586 C4609 0.950 . S
H4587 C4611 0.950 . S
H4588 C4612 0.950 . S
H4589 C4613 0.951 . S
H4590 C4615 0.951 . S
H4591 C4617 0.950 . S
H4592 C4618 0.950 . S
H4593 C4620 0.950 . S
H4594 C4623 0.950 . S
H4595 C4624 0.950 . S
H4596 C4626 0.950 . S
H4597 C4627 0.950 . S
C4598 H4580 0.951 . S
C4598 C4599 1.366 . S
C4598 C4600 1.388 . S
C4599 C4598 1.366 . S
C4599 C4603 1.385 . S
C4600 H4581 0.951 . S
C4600 C4598 1.388 . S
C4600 C4601 1.366 . S
C4601 C4600 1.366 . S
C4601 C4602 1.414 . S
C4601 C4604 1.499 . S
C4602 H4582 0.950 . S
C4602 C4601 1.414 . S
C4602 C4603 1.374 . S
C4603 H4583 0.950 . S
C4603 C4599 1.385 . S
C4603 C4602 1.374 . S
C4604 C4601 1.499 . S
C4604 C4605 1.373 . S
C4604 C4606 1.389 . S
C4605 H4584 0.950 . S
C4605 C4604 1.373 . S
C4605 C4621 1.377 . S
C4606 C4604 1.389 . S
C4606 C4607 1.524 . S
C4606 C4620 1.377 . S
C4607 C4606 1.524 . S
C4607 C4608 1.397 . S
C4607 C4612 1.363 . S
C4608 H4585 0.950 . S
C4608 C4607 1.397 . S
C4608 C4609 1.334 . S
C4609 H4586 0.950 . S
C4609 C4608 1.334 . S
C4609 C4610 1.287 . S
C4610 C4609 1.287 . S
C4610 C4611 1.524 . S
C4610 H4629 0.913 . S
C4611 H4587 0.950 . S
C4611 C4610 1.524 . S
C4611 C4612 1.415 . S
C4612 H4588 0.950 . S
C4612 C4607 1.363 . S
C4612 C4611 1.415 . S
C4613 H4589 0.951 . S
C4613 C4614 1.366 . S
C4613 C4615 1.388 . S
C4614 C4613 1.366 . S
C4614 C4618 1.385 . S
C4615 H4590 0.951 . S
C4615 C4613 1.388 . S
C4615 C4616 1.366 . S
C4616 C4615 1.366 . S
C4616 C4617 1.414 . S
C4616 C4619 1.499 . S
C4617 H4591 0.950 . S
C4617 C4616 1.414 . S
C4617 C4618 1.374 . S
C4618 H4592 0.950 . S
C4618 C4614 1.385 . S
C4618 C4617 1.374 . S
C4619 C4616 1.499 . S
C4619 C4620 1.373 . S
C4619 C4621 1.389 . S
C4620 H4593 0.950 . S
C4620 C4606 1.377 . S
C4620 C4619 1.373 . S
C4621 C4605 1.377 . S
C4621 C4619 1.389 . S
C4621 C4622 1.524 . S
C4622 C4621 1.524 . S
C4622 C4623 1.397 . S
C4622 C4627 1.363 . S
C4623 H4594 0.950 . S
C4623 C4622 1.397 . S
C4623 C4624 1.334 . S
C4624 H4595 0.950 . S
C4624 C4623 1.334 . S
C4624 C4625 1.287 . S
C4625 C4624 1.287 . S
C4625 C4626 1.524 . S
C4625 H4628 0.999 . S
C4626 H4596 0.950 . S
C4626 C4625 1.524 . S
C4626 C4627 1.415 . S
C4627 H4597 0.950 . S
C4627 C4622 1.363 . S
C4627 C4626 1.415 . S
H4628 C4625 0.999 . S
H4629 C4610 0.913 . S
H4630 C4648 0.951 . S
H4631 C4650 0.951 . S
H4632 C4652 0.950 . S
H4633 C4653 0.950 . S
H4634 C4655 0.950 . S
H4635 C4658 0.950 . S
H4636 C4659 0.950 . S
H4637 C4661 0.950 . S
H4638 C4662 0.950 . S
H4639 C4663 0.951 . S
H4640 C4665 0.951 . S
H4641 C4667 0.950 . S
H4642 C4668 0.950 . S
H4643 C4670 0.950 . S
H4644 C4673 0.950 . S
H4645 C4674 0.950 . S
H4646 C4676 0.950 . S
H4647 C4677 0.950 . S
C4648 H4630 0.951 . S
C4648 C4649 1.366 . S
C4648 C4650 1.388 . S
C4649 C4648 1.366 . S
C4649 C4653 1.385 . S
C4650 H4631 0.951 . S
C4650 C4648 1.388 . S
C4650 C4651 1.366 . S
C4651 C4650 1.366 . S
C4651 C4652 1.414 . S
C4651 C4654 1.499 . S
C4652 H4632 0.950 . S
C4652 C4651 1.414 . S
C4652 C4653 1.374 . S
C4653 H4633 0.950 . S
C4653 C4649 1.385 . S
C4653 C4652 1.374 . S
C4654 C4651 1.499 . S
C4654 C4655 1.373 . S
C4654 C4656 1.389 . S
C4655 H4634 0.950 . S
C4655 C4654 1.373 . S
C4655 C4671 1.377 . S
C4656 C4654 1.389 . S
C4656 C4657 1.524 . S
C4656 C4670 1.377 . S
C4657 C4656 1.524 . S
C4657 C4658 1.397 . S
C4657 C4662 1.363 . S
C4658 H4635 0.950 . S
C4658 C4657 1.397 . S
C4658 C4659 1.334 . S
C4659 H4636 0.950 . S
C4659 C4658 1.334 . S
C4659 C4660 1.287 . S
C4660 C4659 1.287 . S
C4660 C4661 1.524 . S
C4660 H4679 0.913 . S
C4661 H4637 0.950 . S
C4661 C4660 1.524 . S
C4661 C4662 1.415 . S
C4662 H4638 0.950 . S
C4662 C4657 1.363 . S
C4662 C4661 1.415 . S
C4663 H4639 0.951 . S
C4663 C4664 1.366 . S
C4663 C4665 1.388 . S
C4664 C4663 1.366 . S
C4664 C4668 1.385 . S
C4665 H4640 0.951 . S
C4665 C4663 1.388 . S
C4665 C4666 1.366 . S
C4666 C4665 1.366 . S
C4666 C4667 1.414 . S
C4666 C4669 1.499 . S
C4667 H4641 0.950 . S
C4667 C4666 1.414 . S
C4667 C4668 1.374 . S
C4668 H4642 0.950 . S
C4668 C4664 1.385 . S
C4668 C4667 1.374 . S
C4669 C4666 1.499 . S
C4669 C4670 1.373 . S
C4669 C4671 1.389 . S
C4670 H4643 0.950 . S
C4670 C4656 1.377 . S
C4670 C4669 1.373 . S
C4671 C4655 1.377 . S
C4671 C4669 1.389 . S
C4671 C4672 1.524 . S
C4672 C4671 1.524 . S
C4672 C4673 1.397 . S
C4672 C4677 1.363 . S
C4673 H4644 0.950 . S
C4673 C4672 1.397 . S
C4673 C4674 1.334 . S
C4674 H4645 0.950 . S
C4674 C4673 1.334 . S
C4674 C4675 1.287 . S
C4675 C4674 1.287 . S
C4675 C4676 1.524 . S
C4675 H4678 0.999 . S
C4676 H4646 0.950 . S
C4676 C4675 1.524 . S
C4676 C4677 1.415 . S
C4677 H4647 0.950 . S
C4677 C4672 1.363 . S
C4677 C4676 1.415 . S
H4678 C4675 0.999 . S
H4679 C4660 0.913 . S
H4680 C4698 0.951 . S
H4681 C4700 0.951 . S
H4682 C4702 0.950 . S
H4683 C4703 0.950 . S
H4684 C4705 0.950 . S
H4685 C4708 0.950 . S
H4686 C4709 0.950 . S
H4687 C4711 0.950 . S
H4688 C4712 0.950 . S
H4689 C4713 0.951 . S
H4690 C4715 0.951 . S
H4691 C4717 0.950 . S
H4692 C4718 0.950 . S
H4693 C4720 0.950 . S
H4694 C4723 0.950 . S
H4695 C4724 0.950 . S
H4696 C4726 0.950 . S
H4697 C4727 0.950 . S
C4698 H4680 0.951 . S
C4698 C4699 1.366 . S
C4698 C4700 1.388 . S
C4699 C4698 1.366 . S
C4699 C4703 1.385 . S
C4700 H4681 0.951 . S
C4700 C4698 1.388 . S
C4700 C4701 1.366 . S
C4701 C4700 1.366 . S
C4701 C4702 1.414 . S
C4701 C4704 1.499 . S
C4702 H4682 0.950 . S
C4702 C4701 1.414 . S
C4702 C4703 1.374 . S
C4703 H4683 0.950 . S
C4703 C4699 1.385 . S
C4703 C4702 1.374 . S
C4704 C4701 1.499 . S
C4704 C4705 1.373 . S
C4704 C4706 1.389 . S
C4705 H4684 0.950 . S
C4705 C4704 1.373 . S
C4705 C4721 1.377 . S
C4706 C4704 1.389 . S
C4706 C4707 1.524 . S
C4706 C4720 1.377 . S
C4707 C4706 1.524 . S
C4707 C4708 1.397 . S
C4707 C4712 1.363 . S
C4708 H4685 0.950 . S
C4708 C4707 1.397 . S
C4708 C4709 1.334 . S
C4709 H4686 0.950 . S
C4709 C4708 1.334 . S
C4709 C4710 1.287 . S
C4710 C4709 1.287 . S
C4710 C4711 1.524 . S
C4710 H4729 0.913 . S
C4711 H4687 0.950 . S
C4711 C4710 1.524 . S
C4711 C4712 1.415 . S
C4712 H4688 0.950 . S
C4712 C4707 1.363 . S
C4712 C4711 1.415 . S
C4713 H4689 0.951 . S
C4713 C4714 1.366 . S
C4713 C4715 1.388 . S
C4714 C4713 1.366 . S
C4714 C4718 1.385 . S
C4715 H4690 0.951 . S
C4715 C4713 1.388 . S
C4715 C4716 1.366 . S
C4716 C4715 1.366 . S
C4716 C4717 1.414 . S
C4716 C4719 1.499 . S
C4717 H4691 0.950 . S
C4717 C4716 1.414 . S
C4717 C4718 1.374 . S
C4718 H4692 0.950 . S
C4718 C4714 1.385 . S
C4718 C4717 1.374 . S
C4719 C4716 1.499 . S
C4719 C4720 1.373 . S
C4719 C4721 1.389 . S
C4720 H4693 0.950 . S
C4720 C4706 1.377 . S
C4720 C4719 1.373 . S
C4721 C4705 1.377 . S
C4721 C4719 1.389 . S
C4721 C4722 1.524 . S
C4722 C4721 1.524 . S
C4722 C4723 1.397 . S
C4722 C4727 1.363 . S
C4723 H4694 0.950 . S
C4723 C4722 1.397 . S
C4723 C4724 1.334 . S
C4724 H4695 0.950 . S
C4724 C4723 1.334 . S
C4724 C4725 1.287 . S
C4725 C4724 1.287 . S
C4725 C4726 1.524 . S
C4725 H4728 0.999 . S
C4726 H4696 0.950 . S
C4726 C4725 1.524 . S
C4726 C4727 1.415 . S
C4727 H4697 0.950 . S
C4727 C4722 1.363 . S
C4727 C4726 1.415 . S
H4728 C4725 0.999 . S
H4729 C4710 0.913 . S
H4730 C4748 0.951 . S
H4731 C4750 0.951 . S
H4732 C4752 0.950 . S
H4733 C4753 0.950 . S
H4734 C4755 0.950 . S
H4735 C4758 0.950 . S
H4736 C4759 0.950 . S
H4737 C4761 0.950 . S
H4738 C4762 0.950 . S
H4739 C4763 0.951 . S
H4740 C4765 0.951 . S
H4741 C4767 0.950 . S
H4742 C4768 0.950 . S
H4743 C4770 0.950 . S
H4744 C4773 0.950 . S
H4745 C4774 0.950 . S
H4746 C4776 0.950 . S
H4747 C4777 0.950 . S
C4748 H4730 0.951 . S
C4748 C4749 1.366 . S
C4748 C4750 1.388 . S
C4749 C4748 1.366 . S
C4749 C4753 1.385 . S
C4750 H4731 0.951 . S
C4750 C4748 1.388 . S
C4750 C4751 1.366 . S
C4751 C4750 1.366 . S
C4751 C4752 1.414 . S
C4751 C4754 1.499 . S
C4752 H4732 0.950 . S
C4752 C4751 1.414 . S
C4752 C4753 1.374 . S
C4753 H4733 0.950 . S
C4753 C4749 1.385 . S
C4753 C4752 1.374 . S
C4754 C4751 1.499 . S
C4754 C4755 1.373 . S
C4754 C4756 1.389 . S
C4755 H4734 0.950 . S
C4755 C4754 1.373 . S
C4755 C4771 1.377 . S
C4756 C4754 1.389 . S
C4756 C4757 1.524 . S
C4756 C4770 1.377 . S
C4757 C4756 1.524 . S
C4757 C4758 1.397 . S
C4757 C4762 1.363 . S
C4758 H4735 0.950 . S
C4758 C4757 1.397 . S
C4758 C4759 1.334 . S
C4759 H4736 0.950 . S
C4759 C4758 1.334 . S
C4759 C4760 1.287 . S
C4760 C4759 1.287 . S
C4760 C4761 1.524 . S
C4760 H4779 0.913 . S
C4761 H4737 0.950 . S
C4761 C4760 1.524 . S
C4761 C4762 1.415 . S
C4762 H4738 0.950 . S
C4762 C4757 1.363 . S
C4762 C4761 1.415 . S
C4763 H4739 0.951 . S
C4763 C4764 1.366 . S
C4763 C4765 1.388 . S
C4764 C4763 1.366 . S
C4764 C4768 1.385 . S
C4765 H4740 0.951 . S
C4765 C4763 1.388 . S
C4765 C4766 1.366 . S
C4766 C4765 1.366 . S
C4766 C4767 1.414 . S
C4766 C4769 1.499 . S
C4767 H4741 0.950 . S
C4767 C4766 1.414 . S
C4767 C4768 1.374 . S
C4768 H4742 0.950 . S
C4768 C4764 1.385 . S
C4768 C4767 1.374 . S
C4769 C4766 1.499 . S
C4769 C4770 1.373 . S
C4769 C4771 1.389 . S
C4770 H4743 0.950 . S
C4770 C4756 1.377 . S
C4770 C4769 1.373 . S
C4771 C4755 1.377 . S
C4771 C4769 1.389 . S
C4771 C4772 1.524 . S
C4772 C4771 1.524 . S
C4772 C4773 1.397 . S
C4772 C4777 1.363 . S
C4773 H4744 0.950 . S
C4773 C4772 1.397 . S
C4773 C4774 1.334 . S
C4774 H4745 0.950 . S
C4774 C4773 1.334 . S
C4774 C4775 1.287 . S
C4775 C4774 1.287 . S
C4775 C4776 1.524 . S
C4775 H4778 0.999 . S
C4776 H4746 0.950 . S
C4776 C4775 1.524 . S
C4776 C4777 1.415 . S
C4777 H4747 0.950 . S
C4777 C4772 1.363 . S
C4777 C4776 1.415 . S
H4778 C4775 0.999 . S
H4779 C4760 0.913 . S
H4780 C4798 0.951 . S
H4781 C4800 0.951 . S
H4782 C4802 0.950 . S
H4783 C4803 0.950 . S
H4784 C4805 0.950 . S
H4785 C4808 0.950 . S
H4786 C4809 0.950 . S
H4787 C4811 0.950 . S
H4788 C4812 0.950 . S
H4789 C4813 0.951 . S
H4790 C4815 0.951 . S
H4791 C4817 0.950 . S
H4792 C4818 0.950 . S
H4793 C4820 0.950 . S
H4794 C4823 0.950 . S
H4795 C4824 0.950 . S
H4796 C4826 0.950 . S
H4797 C4827 0.950 . S
C4798 H4780 0.951 . S
C4798 C4799 1.366 . S
C4798 C4800 1.388 . S
C4799 C4798 1.366 . S
C4799 C4803 1.385 . S
C4800 H4781 0.951 . S
C4800 C4798 1.388 . S
C4800 C4801 1.366 . S
C4801 C4800 1.366 . S
C4801 C4802 1.414 . S
C4801 C4804 1.499 . S
C4802 H4782 0.950 . S
C4802 C4801 1.414 . S
C4802 C4803 1.374 . S
C4803 H4783 0.950 . S
C4803 C4799 1.385 . S
C4803 C4802 1.374 . S
C4804 C4801 1.499 . S
C4804 C4805 1.373 . S
C4804 C4806 1.389 . S
C4805 H4784 0.950 . S
C4805 C4804 1.373 . S
C4805 C4821 1.377 . S
C4806 C4804 1.389 . S
C4806 C4807 1.524 . S
C4806 C4820 1.377 . S
C4807 C4806 1.524 . S
C4807 C4808 1.397 . S
C4807 C4812 1.363 . S
C4808 H4785 0.950 . S
C4808 C4807 1.397 . S
C4808 C4809 1.334 . S
C4809 H4786 0.950 . S
C4809 C4808 1.334 . S
C4809 C4810 1.287 . S
C4810 C4809 1.287 . S
C4810 C4811 1.524 . S
C4810 H4829 0.913 . S
C4811 H4787 0.950 . S
C4811 C4810 1.524 . S
C4811 C4812 1.415 . S
C4812 H4788 0.950 . S
C4812 C4807 1.363 . S
C4812 C4811 1.415 . S
C4813 H4789 0.951 . S
C4813 C4814 1.366 . S
C4813 C4815 1.388 . S
C4814 C4813 1.366 . S
C4814 C4818 1.385 . S
C4815 H4790 0.951 . S
C4815 C4813 1.388 . S
C4815 C4816 1.366 . S
C4816 C4815 1.366 . S
C4816 C4817 1.414 . S
C4816 C4819 1.499 . S
C4817 H4791 0.950 . S
C4817 C4816 1.414 . S
C4817 C4818 1.374 . S
C4818 H4792 0.950 . S
C4818 C4814 1.385 . S
C4818 C4817 1.374 . S
C4819 C4816 1.499 . S
C4819 C4820 1.373 . S
C4819 C4821 1.389 . S
C4820 H4793 0.950 . S
C4820 C4806 1.377 . S
C4820 C4819 1.373 . S
C4821 C4805 1.377 . S
C4821 C4819 1.389 . S
C4821 C4822 1.524 . S
C4822 C4821 1.524 . S
C4822 C4823 1.397 . S
C4822 C4827 1.363 . S
C4823 H4794 0.950 . S
C4823 C4822 1.397 . S
C4823 C4824 1.334 . S
C4824 H4795 0.950 . S
C4824 C4823 1.334 . S
C4824 C4825 1.287 . S
C4825 C4824 1.287 . S
C4825 C4826 1.524 . S
C4825 H4828 0.999 . S
C4826 H4796 0.950 . S
C4826 C4825 1.524 . S
C4826 C4827 1.415 . S
C4827 H4797 0.950 . S
C4827 C4822 1.363 . S
C4827 C4826 1.415 . S
H4828 C4825 0.999 . S
H4829 C4810 0.913 . S
H4830 C4848 0.951 . S
H4831 C4850 0.951 . S
H4832 C4852 0.950 . S
H4833 C4853 0.950 . S
H4834 C4855 0.950 . S
H4835 C4858 0.950 . S
H4836 C4859 0.950 . S
H4837 C4861 0.950 . S
H4838 C4862 0.950 . S
H4839 C4863 0.951 . S
H4840 C4865 0.951 . S
H4841 C4867 0.950 . S
H4842 C4868 0.950 . S
H4843 C4870 0.950 . S
H4844 C4873 0.950 . S
H4845 C4874 0.950 . S
H4846 C4876 0.950 . S
H4847 C4877 0.950 . S
C4848 H4830 0.951 . S
C4848 C4849 1.366 . S
C4848 C4850 1.388 . S
C4849 C4848 1.366 . S
C4849 C4853 1.385 . S
C4850 H4831 0.951 . S
C4850 C4848 1.388 . S
C4850 C4851 1.366 . S
C4851 C4850 1.366 . S
C4851 C4852 1.414 . S
C4851 C4854 1.499 . S
C4852 H4832 0.950 . S
C4852 C4851 1.414 . S
C4852 C4853 1.374 . S
C4853 H4833 0.950 . S
C4853 C4849 1.385 . S
C4853 C4852 1.374 . S
C4854 C4851 1.499 . S
C4854 C4855 1.373 . S
C4854 C4856 1.389 . S
C4855 H4834 0.950 . S
C4855 C4854 1.373 . S
C4855 C4871 1.377 . S
C4856 C4854 1.389 . S
C4856 C4857 1.524 . S
C4856 C4870 1.377 . S
C4857 C4856 1.524 . S
C4857 C4858 1.397 . S
C4857 C4862 1.363 . S
C4858 H4835 0.950 . S
C4858 C4857 1.397 . S
C4858 C4859 1.334 . S
C4859 H4836 0.950 . S
C4859 C4858 1.334 . S
C4859 C4860 1.287 . S
C4860 C4859 1.287 . S
C4860 C4861 1.524 . S
C4860 H4879 0.913 . S
C4861 H4837 0.950 . S
C4861 C4860 1.524 . S
C4861 C4862 1.415 . S
C4862 H4838 0.950 . S
C4862 C4857 1.363 . S
C4862 C4861 1.415 . S
C4863 H4839 0.951 . S
C4863 C4864 1.366 . S
C4863 C4865 1.388 . S
C4864 C4863 1.366 . S
C4864 C4868 1.385 . S
C4865 H4840 0.951 . S
C4865 C4863 1.388 . S
C4865 C4866 1.366 . S
C4866 C4865 1.366 . S
C4866 C4867 1.414 . S
C4866 C4869 1.499 . S
C4867 H4841 0.950 . S
C4867 C4866 1.414 . S
C4867 C4868 1.374 . S
C4868 H4842 0.950 . S
C4868 C4864 1.385 . S
C4868 C4867 1.374 . S
C4869 C4866 1.499 . S
C4869 C4870 1.373 . S
C4869 C4871 1.389 . S
C4870 H4843 0.950 . S
C4870 C4856 1.377 . S
C4870 C4869 1.373 . S
C4871 C4855 1.377 . S
C4871 C4869 1.389 . S
C4871 C4872 1.524 . S
C4872 C4871 1.524 . S
C4872 C4873 1.397 . S
C4872 C4877 1.363 . S
C4873 H4844 0.950 . S
C4873 C4872 1.397 . S
C4873 C4874 1.334 . S
C4874 H4845 0.950 . S
C4874 C4873 1.334 . S
C4874 C4875 1.287 . S
C4875 C4874 1.287 . S
C4875 C4876 1.524 . S
C4875 H4878 0.999 . S
C4876 H4846 0.950 . S
C4876 C4875 1.524 . S
C4876 C4877 1.415 . S
C4877 H4847 0.950 . S
C4877 C4872 1.363 . S
C4877 C4876 1.415 . S
H4878 C4875 0.999 . S
H4879 C4860 0.913 . S
H4880 C4898 0.951 . S
H4881 C4900 0.951 . S
H4882 C4902 0.950 . S
H4883 C4903 0.950 . S
H4884 C4905 0.950 . S
H4885 C4908 0.950 . S
H4886 C4909 0.950 . S
H4887 C4911 0.950 . S
H4888 C4912 0.950 . S
H4889 C4913 0.951 . S
H4890 C4915 0.951 . S
H4891 C4917 0.950 . S
H4892 C4918 0.950 . S
H4893 C4920 0.950 . S
H4894 C4923 0.950 . S
H4895 C4924 0.950 . S
H4896 C4926 0.950 . S
H4897 C4927 0.950 . S
C4898 H4880 0.951 . S
C4898 C4899 1.366 . S
C4898 C4900 1.388 . S
C4899 C4898 1.366 . S
C4899 C4903 1.385 . S
C4900 H4881 0.951 . S
C4900 C4898 1.388 . S
C4900 C4901 1.366 . S
C4901 C4900 1.366 . S
C4901 C4902 1.414 . S
C4901 C4904 1.499 . S
C4902 H4882 0.950 . S
C4902 C4901 1.414 . S
C4902 C4903 1.374 . S
C4903 H4883 0.950 . S
C4903 C4899 1.385 . S
C4903 C4902 1.374 . S
C4904 C4901 1.499 . S
C4904 C4905 1.373 . S
C4904 C4906 1.389 . S
C4905 H4884 0.950 . S
C4905 C4904 1.373 . S
C4905 C4921 1.377 . S
C4906 C4904 1.389 . S
C4906 C4907 1.524 . S
C4906 C4920 1.377 . S
C4907 C4906 1.524 . S
C4907 C4908 1.397 . S
C4907 C4912 1.363 . S
C4908 H4885 0.950 . S
C4908 C4907 1.397 . S
C4908 C4909 1.334 . S
C4909 H4886 0.950 . S
C4909 C4908 1.334 . S
C4909 C4910 1.287 . S
C4910 C4909 1.287 . S
C4910 C4911 1.524 . S
C4910 H4929 0.913 . S
C4911 H4887 0.950 . S
C4911 C4910 1.524 . S
C4911 C4912 1.415 . S
C4912 H4888 0.950 . S
C4912 C4907 1.363 . S
C4912 C4911 1.415 . S
C4913 H4889 0.951 . S
C4913 C4914 1.366 . S
C4913 C4915 1.388 . S
C4914 C4913 1.366 . S
C4914 C4918 1.385 . S
C4915 H4890 0.951 . S
C4915 C4913 1.388 . S
C4915 C4916 1.366 . S
C4916 C4915 1.366 . S
C4916 C4917 1.414 . S
C4916 C4919 1.499 . S
C4917 H4891 0.950 . S
C4917 C4916 1.414 . S
C4917 C4918 1.374 . S
C4918 H4892 0.950 . S
C4918 C4914 1.385 . S
C4918 C4917 1.374 . S
C4919 C4916 1.499 . S
C4919 C4920 1.373 . S
C4919 C4921 1.389 . S
C4920 H4893 0.950 . S
C4920 C4906 1.377 . S
C4920 C4919 1.373 . S
C4921 C4905 1.377 . S
C4921 C4919 1.389 . S
C4921 C4922 1.524 . S
C4922 C4921 1.524 . S
C4922 C4923 1.397 . S
C4922 C4927 1.363 . S
C4923 H4894 0.950 . S
C4923 C4922 1.397 . S
C4923 C4924 1.334 . S
C4924 H4895 0.950 . S
C4924 C4923 1.334 . S
C4924 C4925 1.287 . S
C4925 C4924 1.287 . S
C4925 C4926 1.524 . S
C4925 H4928 0.999 . S
C4926 H4896 0.950 . S
C4926 C4925 1.524 . S
C4926 C4927 1.415 . S
C4927 H4897 0.950 . S
C4927 C4922 1.363 . S
C4927 C4926 1.415 . S
H4928 C4925 0.999 . S
H4929 C4910 0.913 . S
H4930 C4948 0.951 . S
H4931 C4950 0.951 . S
H4932 C4952 0.950 . S
H4933 C4953 0.950 . S
H4934 C4955 0.950 . S
H4935 C4958 0.950 . S
H4936 C4959 0.950 . S
H4937 C4961 0.950 . S
H4938 C4962 0.950 . S
H4939 C4963 0.951 . S
H4940 C4965 0.951 . S
H4941 C4967 0.950 . S
H4942 C4968 0.950 . S
H4943 C4970 0.950 . S
H4944 C4973 0.950 . S
H4945 C4974 0.950 . S
H4946 C4976 0.950 . S
H4947 C4977 0.950 . S
C4948 H4930 0.951 . S
C4948 C4949 1.366 . S
C4948 C4950 1.388 . S
C4949 C4948 1.366 . S
C4949 C4953 1.385 . S
C4950 H4931 0.951 . S
C4950 C4948 1.388 . S
C4950 C4951 1.366 . S
C4951 C4950 1.366 . S
C4951 C4952 1.414 . S
C4951 C4954 1.499 . S
C4952 H4932 0.950 . S
C4952 C4951 1.414 . S
C4952 C4953 1.374 . S
C4953 H4933 0.950 . S
C4953 C4949 1.385 . S
C4953 C4952 1.374 . S
C4954 C4951 1.499 . S
C4954 C4955 1.373 . S
C4954 C4956 1.389 . S
C4955 H4934 0.950 . S
C4955 C4954 1.373 . S
C4955 C4971 1.377 . S
C4956 C4954 1.389 . S
C4956 C4957 1.524 . S
C4956 C4970 1.377 . S
C4957 C4956 1.524 . S
C4957 C4958 1.397 . S
C4957 C4962 1.363 . S
C4958 H4935 0.950 . S
C4958 C4957 1.397 . S
C4958 C4959 1.334 . S
C4959 H4936 0.950 . S
C4959 C4958 1.334 . S
C4959 C4960 1.287 . S
C4960 C4959 1.287 . S
C4960 C4961 1.524 . S
C4960 H4979 0.913 . S
C4961 H4937 0.950 . S
C4961 C4960 1.524 . S
C4961 C4962 1.415 . S
C4962 H4938 0.950 . S
C4962 C4957 1.363 . S
C4962 C4961 1.415 . S
C4963 H4939 0.951 . S
C4963 C4964 1.366 . S
C4963 C4965 1.388 . S
C4964 C4963 1.366 . S
C4964 C4968 1.385 . S
C4965 H4940 0.951 . S
C4965 C4963 1.388 . S
C4965 C4966 1.366 . S
C4966 C4965 1.366 . S
C4966 C4967 1.414 . S
C4966 C4969 1.499 . S
C4967 H4941 0.950 . S
C4967 C4966 1.414 . S
C4967 C4968 1.374 . S
C4968 H4942 0.950 . S
C4968 C4964 1.385 . S
C4968 C4967 1.374 . S
C4969 C4966 1.499 . S
C4969 C4970 1.373 . S
C4969 C4971 1.389 . S
C4970 H4943 0.950 . S
C4970 C4956 1.377 . S
C4970 C4969 1.373 . S
C4971 C4955 1.377 . S
C4971 C4969 1.389 . S
C4971 C4972 1.524 . S
C4972 C4971 1.524 . S
C4972 C4973 1.397 . S
C4972 C4977 1.363 . S
C4973 H4944 0.950 . S
C4973 C4972 1.397 . S
C4973 C4974 1.334 . S
C4974 H4945 0.950 . S
C4974 C4973 1.334 . S
C4974 C4975 1.287 . S
C4975 C4974 1.287 . S
C4975 C4976 1.524 . S
C4975 H4978 0.999 . S
C4976 H4946 0.950 . S
C4976 C4975 1.524 . S
C4976 C4977 1.415 . S
C4977 H4947 0.950 . S
C4977 C4972 1.363 . S
C4977 C4976 1.415 . S
H4978 C4975 0.999 . S
H4979 C4960 0.913 . S
H4980 C4998 0.951 . S
H4981 C5000 0.951 . S
H4982 C5002 0.950 . S
H4983 C5003 0.950 . S
H4984 C5005 0.950 . S
H4985 C5008 0.950 . S
H4986 C5009 0.950 . S
H4987 C5011 0.950 . S
H4988 C5012 0.950 . S
H4989 C5013 0.951 . S
H4990 C5015 0.951 . S
H4991 C5017 0.950 . S
H4992 C5018 0.950 . S
H4993 C5020 0.950 . S
H4994 C5023 0.950 . S
H4995 C5024 0.950 . S
H4996 C5026 0.950 . S
H4997 C5027 0.950 . S
C4998 H4980 0.951 . S
C4998 C4999 1.366 . S
C4998 C5000 1.388 . S
C4999 C4998 1.366 . S
C4999 C5003 1.385 . S
C5000 H4981 0.951 . S
C5000 C4998 1.388 . S
C5000 C5001 1.366 . S
C5001 C5000 1.366 . S
C5001 C5002 1.414 . S
C5001 C5004 1.499 . S
C5002 H4982 0.950 . S
C5002 C5001 1.414 . S
C5002 C5003 1.374 . S
C5003 H4983 0.950 . S
C5003 C4999 1.385 . S
C5003 C5002 1.374 . S
C5004 C5001 1.499 . S
C5004 C5005 1.373 . S
C5004 C5006 1.389 . S
C5005 H4984 0.950 . S
C5005 C5004 1.373 . S
C5005 C5021 1.377 . S
C5006 C5004 1.389 . S
C5006 C5007 1.524 . S
C5006 C5020 1.377 . S
C5007 C5006 1.524 . S
C5007 C5008 1.397 . S
C5007 C5012 1.363 . S
C5008 H4985 0.950 . S
C5008 C5007 1.397 . S
C5008 C5009 1.334 . S
C5009 H4986 0.950 . S
C5009 C5008 1.334 . S
C5009 C5010 1.287 . S
C5010 C5009 1.287 . S
C5010 C5011 1.524 . S
C5010 H5029 0.913 . S
C5011 H4987 0.950 . S
C5011 C5010 1.524 . S
C5011 C5012 1.415 . S
C5012 H4988 0.950 . S
C5012 C5007 1.363 . S
C5012 C5011 1.415 . S
C5013 H4989 0.951 . S
C5013 C5014 1.366 . S
C5013 C5015 1.388 . S
C5014 C5013 1.366 . S
C5014 C5018 1.385 . S
C5015 H4990 0.951 . S
C5015 C5013 1.388 . S
C5015 C5016 1.366 . S
C5016 C5015 1.366 . S
C5016 C5017 1.414 . S
C5016 C5019 1.499 . S
C5017 H4991 0.950 . S
C5017 C5016 1.414 . S
C5017 C5018 1.374 . S
C5018 H4992 0.950 . S
C5018 C5014 1.385 . S
C5018 C5017 1.374 . S
C5019 C5016 1.499 . S
C5019 C5020 1.373 . S
C5019 C5021 1.389 . S
C5020 H4993 0.950 . S
C5020 C5006 1.377 . S
C5020 C5019 1.373 . S
C5021 C5005 1.377 . S
C5021 C5019 1.389 . S
C5021 C5022 1.524 . S
C5022 C5021 1.524 . S
C5022 C5023 1.397 . S
C5022 C5027 1.363 . S
C5023 H4994 0.950 . S
C5023 C5022 1.397 . S
C5023 C5024 1.334 . S
C5024 H4995 0.950 . S
C5024 C5023 1.334 . S
C5024 C5025 1.287 . S
C5025 C5024 1.287 . S
C5025 C5026 1.524 . S
C5025 H5028 0.999 . S
C5026 H4996 0.950 . S
C5026 C5025 1.524 . S
C5026 C5027 1.415 . S
C5027 H4997 0.950 . S
C5027 C5022 1.363 . S
C5027 C5026 1.415 . S
H5028 C5025 0.999 . S
H5029 C5010 0.913 . S
H5030 C5048 0.951 . S
H5031 C5050 0.951 . S
H5032 C5052 0.950 . S
H5033 C5053 0.950 . S
H5034 C5055 0.950 . S
H5035 C5058 0.950 . S
H5036 C5059 0.950 1_565 S
H5037 C5061 0.950 1_554 S
H5038 C5062 0.950 . S
H5039 C5063 0.949 . S
H5040 C5065 0.951 1_565 S
H5041 C5067 0.950 . S
H5042 C5068 0.950 . S
H5043 C5070 0.950 . S
H5044 C5073 0.950 1_545 S
H5045 C5074 0.950 . S
H5046 C5076 0.950 . S
H5047 C5077 0.950 . S
C5048 H5030 0.951 . S
C5048 C5049 1.366 . S
C5048 C5050 1.388 . S
C5049 C5048 1.366 . S
C5049 C5053 1.385 . S
C5050 H5031 0.951 . S
C5050 C5048 1.388 . S
C5050 C5051 1.366 . S
C5051 C5050 1.366 . S
C5051 C5052 1.414 . S
C5051 C5054 1.499 . S
C5052 H5032 0.950 . S
C5052 C5051 1.414 . S
C5052 C5053 1.374 . S
C5053 H5033 0.950 . S
C5053 C5049 1.385 . S
C5053 C5052 1.374 . S
C5054 C5051 1.499 . S
C5054 C5055 1.373 . S
C5054 C5056 1.389 . S
C5055 H5034 0.950 . S
C5055 C5054 1.373 . S
C5055 C5071 1.377 . S
C5056 C5054 1.389 . S
C5056 C5057 1.524 1_565 S
C5056 C5070 1.377 1_565 S
C5057 C5056 1.524 1_545 S
C5057 C5058 1.397 1_544 S
C5057 C5062 1.363 . S
C5058 H5035 0.950 . S
C5058 C5057 1.397 1_566 S
C5058 C5059 1.334 1_565 S
C5059 H5036 0.950 1_545 S
C5059 C5058 1.334 1_545 S
C5059 C5060 1.287 . S
C5060 C5059 1.287 . S
C5060 C5061 1.524 . S
C5060 H5079 0.913 . S
C5061 H5037 0.950 1_556 S
C5061 C5060 1.524 . S
C5061 C5062 1.415 1_556 S
C5062 H5038 0.950 . S
C5062 C5057 1.363 . S
C5062 C5061 1.415 1_554 S
C5063 H5039 0.949 . S
C5063 C5064 1.366 . S
C5063 C5065 1.388 . S
C5064 C5063 1.366 . S
C5064 C5068 1.385 . S
C5065 H5040 0.951 1_545 S
C5065 C5063 1.388 . S
C5065 C5066 1.366 . S
C5066 C5065 1.366 . S
C5066 C5067 1.414 . S
C5066 C5069 1.499 . S
C5067 H5041 0.950 . S
C5067 C5066 1.414 . S
C5067 C5068 1.374 . S
C5068 H5042 0.950 . S
C5068 C5064 1.385 . S
C5068 C5067 1.374 . S
C5069 C5066 1.499 . S
C5069 C5070 1.373 . S
C5069 C5071 1.389 1_545 S
C5070 H5043 0.950 . S
C5070 C5056 1.377 1_545 S
C5070 C5069 1.373 . S
C5071 C5055 1.377 . S
C5071 C5069 1.389 1_565 S
C5071 C5072 1.524 . S
C5072 C5071 1.524 . S
C5072 C5073 1.397 . S
C5072 C5077 1.363 . S
C5073 H5044 0.950 1_565 S
C5073 C5072 1.397 . S
C5073 C5074 1.334 . S
C5074 H5045 0.950 . S
C5074 C5073 1.334 . S
C5074 C5075 1.287 . S
C5075 C5074 1.287 . S
C5075 C5076 1.524 . S
C5075 H5078 0.999 . S
C5076 H5046 0.950 . S
C5076 C5075 1.524 . S
C5076 C5077 1.415 . S
C5077 H5047 0.950 . S
C5077 C5072 1.363 . S
C5077 C5076 1.415 . S
H5078 C5075 0.999 . S
H5079 C5060 0.913 . S
H5080 C5098 0.951 . S
H5081 C5100 0.951 . S
H5082 C5102 0.950 . S
H5083 C5103 0.950 . S
H5084 C5105 0.950 . S
H5085 C5108 0.950 . S
H5086 C5109 0.950 . S
H5087 C5111 0.950 . S
H5088 C5112 0.950 . S
H5089 C5113 0.951 . S
H5090 C5115 0.951 . S
H5091 C5117 0.950 . S
H5092 C5118 0.950 . S
H5093 C5120 0.950 . S
H5094 C5123 0.950 . S
H5095 C5124 0.950 . S
H5096 C5126 0.950 . S
H5097 C5127 0.950 . S
C5098 H5080 0.951 . S
C5098 C5099 1.366 . S
C5098 C5100 1.388 . S
C5099 C5098 1.366 . S
C5099 C5103 1.385 . S
C5100 H5081 0.951 . S
C5100 C5098 1.388 . S
C5100 C5101 1.366 . S
C5101 C5100 1.366 . S
C5101 C5102 1.414 . S
C5101 C5104 1.499 . S
C5102 H5082 0.950 . S
C5102 C5101 1.414 . S
C5102 C5103 1.374 . S
C5103 H5083 0.950 . S
C5103 C5099 1.385 . S
C5103 C5102 1.374 . S
C5104 C5101 1.499 . S
C5104 C5105 1.373 . S
C5104 C5106 1.389 . S
C5105 H5084 0.950 . S
C5105 C5104 1.373 . S
C5105 C5121 1.377 . S
C5106 C5104 1.389 . S
C5106 C5107 1.524 . S
C5106 C5120 1.377 . S
C5107 C5106 1.524 . S
C5107 C5108 1.397 . S
C5107 C5112 1.363 . S
C5108 H5085 0.950 . S
C5108 C5107 1.397 . S
C5108 C5109 1.334 . S
C5109 H5086 0.950 . S
C5109 C5108 1.334 . S
C5109 C5110 1.287 . S
C5110 C5109 1.287 . S
C5110 C5111 1.524 . S
C5110 H5129 0.913 . S
C5111 H5087 0.950 . S
C5111 C5110 1.524 . S
C5111 C5112 1.415 . S
C5112 H5088 0.950 . S
C5112 C5107 1.363 . S
C5112 C5111 1.415 . S
C5113 H5089 0.951 . S
C5113 C5114 1.366 . S
C5113 C5115 1.388 . S
C5114 C5113 1.366 . S
C5114 C5118 1.385 . S
C5115 H5090 0.951 . S
C5115 C5113 1.388 . S
C5115 C5116 1.366 . S
C5116 C5115 1.366 . S
C5116 C5117 1.414 . S
C5116 C5119 1.499 . S
C5117 H5091 0.950 . S
C5117 C5116 1.414 . S
C5117 C5118 1.374 . S
C5118 H5092 0.950 . S
C5118 C5114 1.385 . S
C5118 C5117 1.374 . S
C5119 C5116 1.499 . S
C5119 C5120 1.373 . S
C5119 C5121 1.389 . S
C5120 H5093 0.950 . S
C5120 C5106 1.377 . S
C5120 C5119 1.373 . S
C5121 C5105 1.377 . S
C5121 C5119 1.389 . S
C5121 C5122 1.524 . S
C5122 C5121 1.524 . S
C5122 C5123 1.397 . S
C5122 C5127 1.363 . S
C5123 H5094 0.950 . S
C5123 C5122 1.397 . S
C5123 C5124 1.334 . S
C5124 H5095 0.950 . S
C5124 C5123 1.334 . S
C5124 C5125 1.287 . S
C5125 C5124 1.287 . S
C5125 C5126 1.524 . S
C5125 H5128 0.999 . S
C5126 H5096 0.950 . S
C5126 C5125 1.524 . S
C5126 C5127 1.415 . S
C5127 H5097 0.950 . S
C5127 C5122 1.363 . S
C5127 C5126 1.415 . S
H5128 C5125 0.999 . S
H5129 C5110 0.913 . S
H5130 C5148 0.951 . S
H5131 C5150 0.951 . S
H5132 C5152 0.950 . S
H5133 C5153 0.950 . S
H5134 C5155 0.950 . S
H5135 C5158 0.950 . S
H5136 C5159 0.950 . S
H5137 C5161 0.950 . S
H5138 C5162 0.950 . S
H5139 C5163 0.951 . S
H5140 C5165 0.951 . S
H5141 C5167 0.950 . S
H5142 C5168 0.950 . S
H5143 C5170 0.950 . S
H5144 C5173 0.950 . S
H5145 C5174 0.950 . S
H5146 C5176 0.950 . S
H5147 C5177 0.950 . S
C5148 H5130 0.951 . S
C5148 C5149 1.365 1_556 S
C5148 C5150 1.388 . S
C5149 C5148 1.365 1_554 S
C5149 C5153 1.387 . S
C5150 H5131 0.951 . S
C5150 C5148 1.388 . S
C5150 C5151 1.366 1_556 S
C5151 C5150 1.366 1_554 S
C5151 C5152 1.414 . S
C5151 C5154 1.499 . S
C5152 H5132 0.950 . S
C5152 C5151 1.414 . S
C5152 C5153 1.374 . S
C5153 H5133 0.950 . S
C5153 C5149 1.387 . S
C5153 C5152 1.374 . S
C5154 C5151 1.499 . S
C5154 C5155 1.373 . S
C5154 C5156 1.389 . S
C5155 H5134 0.950 . S
C5155 C5154 1.373 . S
C5155 C5171 1.377 . S
C5156 C5154 1.389 . S
C5156 C5157 1.524 . S
C5156 C5170 1.377 . S
C5157 C5156 1.524 . S
C5157 C5158 1.397 . S
C5157 C5162 1.363 . S
C5158 H5135 0.950 . S
C5158 C5157 1.397 . S
C5158 C5159 1.334 . S
C5159 H5136 0.950 . S
C5159 C5158 1.334 . S
C5159 C5160 1.287 . S
C5160 C5159 1.287 . S
C5160 C5161 1.524 . S
C5160 H5179 0.913 . S
C5161 H5137 0.950 . S
C5161 C5160 1.524 . S
C5161 C5162 1.415 . S
C5162 H5138 0.950 . S
C5162 C5157 1.363 . S
C5162 C5161 1.415 . S
C5163 H5139 0.951 . S
C5163 C5164 1.366 . S
C5163 C5165 1.388 . S
C5164 C5163 1.366 . S
C5164 C5168 1.385 . S
C5165 H5140 0.951 . S
C5165 C5163 1.388 . S
C5165 C5166 1.366 . S
C5166 C5165 1.366 . S
C5166 C5167 1.414 . S
C5166 C5169 1.499 . S
C5167 H5141 0.950 . S
C5167 C5166 1.414 . S
C5167 C5168 1.374 . S
C5168 H5142 0.950 . S
C5168 C5164 1.385 . S
C5168 C5167 1.374 . S
C5169 C5166 1.499 . S
C5169 C5170 1.373 . S
C5169 C5171 1.389 . S
C5170 H5143 0.950 . S
C5170 C5156 1.377 . S
C5170 C5169 1.373 . S
C5171 C5155 1.377 . S
C5171 C5169 1.389 . S
C5171 C5172 1.524 . S
C5172 C5171 1.524 . S
C5172 C5173 1.397 1_554 S
C5172 C5177 1.363 . S
C5173 H5144 0.950 . S
C5173 C5172 1.397 1_556 S
C5173 C5174 1.334 . S
C5174 H5145 0.950 . S
C5174 C5173 1.334 . S
C5174 C5175 1.287 . S
C5175 C5174 1.287 . S
C5175 C5176 1.524 1_556 S
C5175 H5178 0.999 . S
C5176 H5146 0.950 . S
C5176 C5175 1.524 1_554 S
C5176 C5177 1.415 . S
C5177 H5147 0.950 . S
C5177 C5172 1.363 . S
C5177 C5176 1.415 . S
H5178 C5175 0.999 . S
H5179 C5160 0.913 . S
H5180 C5198 0.951 . S
H5181 C5200 0.951 . S
H5182 C5202 0.950 . S
H5183 C5203 0.950 . S
H5184 C5205 0.950 . S
H5185 C5208 0.950 . S
H5186 C5209 0.950 . S
H5187 C5211 0.950 . S
H5188 C5212 0.950 . S
H5189 C5213 0.951 . S
H5190 C5215 0.951 . S
H5191 C5217 0.950 . S
H5192 C5218 0.950 . S
H5193 C5220 0.950 . S
H5194 C5223 0.950 . S
H5195 C5224 0.950 . S
H5196 C5226 0.950 . S
H5197 C5227 0.950 . S
C5198 H5180 0.951 . S
C5198 C5199 1.366 . S
C5198 C5200 1.388 . S
C5199 C5198 1.366 . S
C5199 C5203 1.385 . S
C5200 H5181 0.951 . S
C5200 C5198 1.388 . S
C5200 C5201 1.366 . S
C5201 C5200 1.366 . S
C5201 C5202 1.414 . S
C5201 C5204 1.499 . S
C5202 H5182 0.950 . S
C5202 C5201 1.414 . S
C5202 C5203 1.374 . S
C5203 H5183 0.950 . S
C5203 C5199 1.385 . S
C5203 C5202 1.374 . S
C5204 C5201 1.499 . S
C5204 C5205 1.373 . S
C5204 C5206 1.389 . S
C5205 H5184 0.950 . S
C5205 C5204 1.373 . S
C5205 C5221 1.377 . S
C5206 C5204 1.389 . S
C5206 C5207 1.524 . S
C5206 C5220 1.377 . S
C5207 C5206 1.524 . S
C5207 C5208 1.397 . S
C5207 C5212 1.363 . S
C5208 H5185 0.950 . S
C5208 C5207 1.397 . S
C5208 C5209 1.334 . S
C5209 H5186 0.950 . S
C5209 C5208 1.334 . S
C5209 C5210 1.287 . S
C5210 C5209 1.287 . S
C5210 C5211 1.524 . S
C5210 H5229 0.913 . S
C5211 H5187 0.950 . S
C5211 C5210 1.524 . S
C5211 C5212 1.415 . S
C5212 H5188 0.950 . S
C5212 C5207 1.363 . S
C5212 C5211 1.415 . S
C5213 H5189 0.951 . S
C5213 C5214 1.366 . S
C5213 C5215 1.388 . S
C5214 C5213 1.366 . S
C5214 C5218 1.385 . S
C5215 H5190 0.951 . S
C5215 C5213 1.388 . S
C5215 C5216 1.366 . S
C5216 C5215 1.366 . S
C5216 C5217 1.414 . S
C5216 C5219 1.499 . S
C5217 H5191 0.950 . S
C5217 C5216 1.414 . S
C5217 C5218 1.374 . S
C5218 H5192 0.950 . S
C5218 C5214 1.385 . S
C5218 C5217 1.374 . S
C5219 C5216 1.499 . S
C5219 C5220 1.373 . S
C5219 C5221 1.389 . S
C5220 H5193 0.950 . S
C5220 C5206 1.377 . S
C5220 C5219 1.373 . S
C5221 C5205 1.377 . S
C5221 C5219 1.389 . S
C5221 C5222 1.524 . S
C5222 C5221 1.524 . S
C5222 C5223 1.397 . S
C5222 C5227 1.363 . S
C5223 H5194 0.950 . S
C5223 C5222 1.397 . S
C5223 C5224 1.334 . S
C5224 H5195 0.950 . S
C5224 C5223 1.334 . S
C5224 C5225 1.287 . S
C5225 C5224 1.287 . S
C5225 C5226 1.524 . S
C5225 H5228 0.999 . S
C5226 H5196 0.950 . S
C5226 C5225 1.524 . S
C5226 C5227 1.415 . S
C5227 H5197 0.950 . S
C5227 C5222 1.363 . S
C5227 C5226 1.415 . S
H5228 C5225 0.999 . S
H5229 C5210 0.913 . S
H5230 C5248 0.951 . S
H5231 C5250 0.951 . S
H5232 C5252 0.950 . S
H5233 C5253 0.950 . S
H5234 C5255 0.950 . S
H5235 C5258 0.950 . S
H5236 C5259 0.950 . S
H5237 C5261 0.950 . S
H5238 C5262 0.950 . S
H5239 C5263 0.951 . S
H5240 C5265 0.951 . S
H5241 C5267 0.950 . S
H5242 C5268 0.950 . S
H5243 C5270 0.950 . S
H5244 C5273 0.950 . S
H5245 C5274 0.950 . S
H5246 C5276 0.950 . S
H5247 C5277 0.950 . S
C5248 H5230 0.951 . S
C5248 C5249 1.366 . S
C5248 C5250 1.388 . S
C5249 C5248 1.366 . S
C5249 C5253 1.385 . S
C5250 H5231 0.951 . S
C5250 C5248 1.388 . S
C5250 C5251 1.366 . S
C5251 C5250 1.366 . S
C5251 C5252 1.414 . S
C5251 C5254 1.499 . S
C5252 H5232 0.950 . S
C5252 C5251 1.414 . S
C5252 C5253 1.374 . S
C5253 H5233 0.950 . S
C5253 C5249 1.385 . S
C5253 C5252 1.374 . S
C5254 C5251 1.499 . S
C5254 C5255 1.373 . S
C5254 C5256 1.389 . S
C5255 H5234 0.950 . S
C5255 C5254 1.373 . S
C5255 C5271 1.377 . S
C5256 C5254 1.389 . S
C5256 C5257 1.524 . S
C5256 C5270 1.377 . S
C5257 C5256 1.524 . S
C5257 C5258 1.397 . S
C5257 C5262 1.363 . S
C5258 H5235 0.950 . S
C5258 C5257 1.397 . S
C5258 C5259 1.334 . S
C5259 H5236 0.950 . S
C5259 C5258 1.334 . S
C5259 C5260 1.287 . S
C5260 C5259 1.287 . S
C5260 C5261 1.524 . S
C5260 H5279 0.913 . S
C5261 H5237 0.950 . S
C5261 C5260 1.524 . S
C5261 C5262 1.415 . S
C5262 H5238 0.950 . S
C5262 C5257 1.363 . S
C5262 C5261 1.415 . S
C5263 H5239 0.951 . S
C5263 C5264 1.366 . S
C5263 C5265 1.388 . S
C5264 C5263 1.366 . S
C5264 C5268 1.385 . S
C5265 H5240 0.951 . S
C5265 C5263 1.388 . S
C5265 C5266 1.366 . S
C5266 C5265 1.366 . S
C5266 C5267 1.414 . S
C5266 C5269 1.499 . S
C5267 H5241 0.950 . S
C5267 C5266 1.414 . S
C5267 C5268 1.374 . S
C5268 H5242 0.950 . S
C5268 C5264 1.385 . S
C5268 C5267 1.374 . S
C5269 C5266 1.499 . S
C5269 C5270 1.373 . S
C5269 C5271 1.389 . S
C5270 H5243 0.950 . S
C5270 C5256 1.377 . S
C5270 C5269 1.373 . S
C5271 C5255 1.377 . S
C5271 C5269 1.389 . S
C5271 C5272 1.524 . S
C5272 C5271 1.524 . S
C5272 C5273 1.397 . S
C5272 C5277 1.363 . S
C5273 H5244 0.950 . S
C5273 C5272 1.397 . S
C5273 C5274 1.334 . S
C5274 H5245 0.950 . S
C5274 C5273 1.334 . S
C5274 C5275 1.287 . S
C5275 C5274 1.287 . S
C5275 C5276 1.524 . S
C5275 H5278 0.999 . S
C5276 H5246 0.950 . S
C5276 C5275 1.524 . S
C5276 C5277 1.415 . S
C5277 H5247 0.950 . S
C5277 C5272 1.363 . S
C5277 C5276 1.415 . S
H5278 C5275 0.999 . S
H5279 C5260 0.913 . S
H5280 C5298 0.951 . S
H5281 C5300 0.951 . S
H5282 C5302 0.950 . S
H5283 C5303 0.950 . S
H5284 C5305 0.950 . S
H5285 C5308 0.950 . S
H5286 C5309 0.950 . S
H5287 C5311 0.950 . S
H5288 C5312 0.950 . S
H5289 C5313 0.951 . S
H5290 C5315 0.951 . S
H5291 C5317 0.950 . S
H5292 C5318 0.950 . S
H5293 C5320 0.950 . S
H5294 C5323 0.950 . S
H5295 C5324 0.950 . S
H5296 C5326 0.950 . S
H5297 C5327 0.950 . S
C5298 H5280 0.951 . S
C5298 C5299 1.366 . S
C5298 C5300 1.388 . S
C5299 C5298 1.366 . S
C5299 C5303 1.385 . S
C5300 H5281 0.951 . S
C5300 C5298 1.388 . S
C5300 C5301 1.366 . S
C5301 C5300 1.366 . S
C5301 C5302 1.414 . S
C5301 C5304 1.499 . S
C5302 H5282 0.950 . S
C5302 C5301 1.414 . S
C5302 C5303 1.374 . S
C5303 H5283 0.950 . S
C5303 C5299 1.385 . S
C5303 C5302 1.374 . S
C5304 C5301 1.499 . S
C5304 C5305 1.373 . S
C5304 C5306 1.389 . S
C5305 H5284 0.950 . S
C5305 C5304 1.373 . S
C5305 C5321 1.377 . S
C5306 C5304 1.389 . S
C5306 C5307 1.524 . S
C5306 C5320 1.377 . S
C5307 C5306 1.524 . S
C5307 C5308 1.397 . S
C5307 C5312 1.363 . S
C5308 H5285 0.950 . S
C5308 C5307 1.397 . S
C5308 C5309 1.334 . S
C5309 H5286 0.950 . S
C5309 C5308 1.334 . S
C5309 C5310 1.287 . S
C5310 C5309 1.287 . S
C5310 C5311 1.524 . S
C5310 H5329 0.913 . S
C5311 H5287 0.950 . S
C5311 C5310 1.524 . S
C5311 C5312 1.415 . S
C5312 H5288 0.950 . S
C5312 C5307 1.363 . S
C5312 C5311 1.415 . S
C5313 H5289 0.951 . S
C5313 C5314 1.366 . S
C5313 C5315 1.388 . S
C5314 C5313 1.366 . S
C5314 C5318 1.385 . S
C5315 H5290 0.951 . S
C5315 C5313 1.388 . S
C5315 C5316 1.366 . S
C5316 C5315 1.366 . S
C5316 C5317 1.414 . S
C5316 C5319 1.499 . S
C5317 H5291 0.950 . S
C5317 C5316 1.414 . S
C5317 C5318 1.374 . S
C5318 H5292 0.950 . S
C5318 C5314 1.385 . S
C5318 C5317 1.374 . S
C5319 C5316 1.499 . S
C5319 C5320 1.373 . S
C5319 C5321 1.389 . S
C5320 H5293 0.950 . S
C5320 C5306 1.377 . S
C5320 C5319 1.373 . S
C5321 C5305 1.377 . S
C5321 C5319 1.389 . S
C5321 C5322 1.524 . S
C5322 C5321 1.524 . S
C5322 C5323 1.397 . S
C5322 C5327 1.363 . S
C5323 H5294 0.950 . S
C5323 C5322 1.397 . S
C5323 C5324 1.334 . S
C5324 H5295 0.950 . S
C5324 C5323 1.334 . S
C5324 C5325 1.287 . S
C5325 C5324 1.287 . S
C5325 C5326 1.524 . S
C5325 H5328 0.999 . S
C5326 H5296 0.950 . S
C5326 C5325 1.524 . S
C5326 C5327 1.415 . S
C5327 H5297 0.950 . S
C5327 C5322 1.363 . S
C5327 C5326 1.415 . S
H5328 C5325 0.999 . S
H5329 C5310 0.913 . S
H5330 C5348 0.951 . S
H5331 C5350 0.951 . S
H5332 C5352 0.950 . S
H5333 C5353 0.950 . S
H5334 C5355 0.950 . S
H5335 C5358 0.950 . S
H5336 C5359 0.950 . S
H5337 C5361 0.950 . S
H5338 C5362 0.950 . S
H5339 C5363 0.951 . S
H5340 C5365 0.951 . S
H5341 C5367 0.950 . S
H5342 C5368 0.950 . S
H5343 C5370 0.950 . S
H5344 C5373 0.950 . S
H5345 C5374 0.950 . S
H5346 C5376 0.950 . S
H5347 C5377 0.950 . S
C5348 H5330 0.951 . S
C5348 C5349 1.366 . S
C5348 C5350 1.388 . S
C5349 C5348 1.366 . S
C5349 C5353 1.385 . S
C5350 H5331 0.951 . S
C5350 C5348 1.388 . S
C5350 C5351 1.366 . S
C5351 C5350 1.366 . S
C5351 C5352 1.414 . S
C5351 C5354 1.499 . S
C5352 H5332 0.950 . S
C5352 C5351 1.414 . S
C5352 C5353 1.374 . S
C5353 H5333 0.950 . S
C5353 C5349 1.385 . S
C5353 C5352 1.374 . S
C5354 C5351 1.499 . S
C5354 C5355 1.373 . S
C5354 C5356 1.389 . S
C5355 H5334 0.950 . S
C5355 C5354 1.373 . S
C5355 C5371 1.377 . S
C5356 C5354 1.389 . S
C5356 C5357 1.524 . S
C5356 C5370 1.377 . S
C5357 C5356 1.524 . S
C5357 C5358 1.397 . S
C5357 C5362 1.363 . S
C5358 H5335 0.950 . S
C5358 C5357 1.397 . S
C5358 C5359 1.334 . S
C5359 H5336 0.950 . S
C5359 C5358 1.334 . S
C5359 C5360 1.287 . S
C5360 C5359 1.287 . S
C5360 C5361 1.524 . S
C5360 H5379 0.913 . S
C5361 H5337 0.950 . S
C5361 C5360 1.524 . S
C5361 C5362 1.415 . S
C5362 H5338 0.950 . S
C5362 C5357 1.363 . S
C5362 C5361 1.415 . S
C5363 H5339 0.951 . S
C5363 C5364 1.366 . S
C5363 C5365 1.388 . S
C5364 C5363 1.366 . S
C5364 C5368 1.385 . S
C5365 H5340 0.951 . S
C5365 C5363 1.388 . S
C5365 C5366 1.366 . S
C5366 C5365 1.366 . S
C5366 C5367 1.414 . S
C5366 C5369 1.499 . S
C5367 H5341 0.950 . S
C5367 C5366 1.414 . S
C5367 C5368 1.374 . S
C5368 H5342 0.950 . S
C5368 C5364 1.385 . S
C5368 C5367 1.374 . S
C5369 C5366 1.499 . S
C5369 C5370 1.373 . S
C5369 C5371 1.389 . S
C5370 H5343 0.950 . S
C5370 C5356 1.377 . S
C5370 C5369 1.373 . S
C5371 C5355 1.377 . S
C5371 C5369 1.389 . S
C5371 C5372 1.524 . S
C5372 C5371 1.524 . S
C5372 C5373 1.397 . S
C5372 C5377 1.363 . S
C5373 H5344 0.950 . S
C5373 C5372 1.397 . S
C5373 C5374 1.334 . S
C5374 H5345 0.950 . S
C5374 C5373 1.334 . S
C5374 C5375 1.287 . S
C5375 C5374 1.287 . S
C5375 C5376 1.524 . S
C5375 H5378 0.999 . S
C5376 H5346 0.950 . S
C5376 C5375 1.524 . S
C5376 C5377 1.415 . S
C5377 H5347 0.950 . S
C5377 C5372 1.363 . S
C5377 C5376 1.415 . S
H5378 C5375 0.999 . S
H5379 C5360 0.913 . S
H5380 C5398 0.951 . S
H5381 C5400 0.951 . S
H5382 C5402 0.950 . S
H5383 C5403 0.950 . S
H5384 C5405 0.950 . S
H5385 C5408 0.950 . S
H5386 C5409 0.950 . S
H5387 C5411 0.950 . S
H5388 C5412 0.950 . S
H5389 C5413 0.951 . S
H5390 C5415 0.951 . S
H5391 C5417 0.950 . S
H5392 C5418 0.950 . S
H5393 C5420 0.950 . S
H5394 C5423 0.950 . S
H5395 C5424 0.950 . S
H5396 C5426 0.950 . S
H5397 C5427 0.950 . S
C5398 H5380 0.951 . S
C5398 C5399 1.366 . S
C5398 C5400 1.388 . S
C5399 C5398 1.366 . S
C5399 C5403 1.385 . S
C5400 H5381 0.951 . S
C5400 C5398 1.388 . S
C5400 C5401 1.366 . S
C5401 C5400 1.366 . S
C5401 C5402 1.414 . S
C5401 C5404 1.499 . S
C5402 H5382 0.950 . S
C5402 C5401 1.414 . S
C5402 C5403 1.374 . S
C5403 H5383 0.950 . S
C5403 C5399 1.385 . S
C5403 C5402 1.374 . S
C5404 C5401 1.499 . S
C5404 C5405 1.373 . S
C5404 C5406 1.389 . S
C5405 H5384 0.950 . S
C5405 C5404 1.373 . S
C5405 C5421 1.377 . S
C5406 C5404 1.389 . S
C5406 C5407 1.524 . S
C5406 C5420 1.377 . S
C5407 C5406 1.524 . S
C5407 C5408 1.397 . S
C5407 C5412 1.363 . S
C5408 H5385 0.950 . S
C5408 C5407 1.397 . S
C5408 C5409 1.334 . S
C5409 H5386 0.950 . S
C5409 C5408 1.334 . S
C5409 C5410 1.287 1_554 S
C5410 C5409 1.287 1_556 S
C5410 C5411 1.524 . S
C5410 H5429 0.913 . S
C5411 H5387 0.950 . S
C5411 C5410 1.524 . S
C5411 C5412 1.415 1_556 S
C5412 H5388 0.950 . S
C5412 C5407 1.363 . S
C5412 C5411 1.415 1_554 S
C5413 H5389 0.951 . S
C5413 C5414 1.366 . S
C5413 C5415 1.388 . S
C5414 C5413 1.366 . S
C5414 C5418 1.385 . S
C5415 H5390 0.951 . S
C5415 C5413 1.388 . S
C5415 C5416 1.366 . S
C5416 C5415 1.366 . S
C5416 C5417 1.414 . S
C5416 C5419 1.499 . S
C5417 H5391 0.950 . S
C5417 C5416 1.414 . S
C5417 C5418 1.374 . S
C5418 H5392 0.950 . S
C5418 C5414 1.385 . S
C5418 C5417 1.374 . S
C5419 C5416 1.499 . S
C5419 C5420 1.373 . S
C5419 C5421 1.389 . S
C5420 H5393 0.950 . S
C5420 C5406 1.377 . S
C5420 C5419 1.373 . S
C5421 C5405 1.377 . S
C5421 C5419 1.389 . S
C5421 C5422 1.524 . S
C5422 C5421 1.524 . S
C5422 C5423 1.397 . S
C5422 C5427 1.363 . S
C5423 H5394 0.950 . S
C5423 C5422 1.397 . S
C5423 C5424 1.334 . S
C5424 H5395 0.950 . S
C5424 C5423 1.334 . S
C5424 C5425 1.287 . S
C5425 C5424 1.287 . S
C5425 C5426 1.524 . S
C5425 H5428 0.999 . S
C5426 H5396 0.950 . S
C5426 C5425 1.524 . S
C5426 C5427 1.415 . S
C5427 H5397 0.950 . S
C5427 C5422 1.363 . S
C5427 C5426 1.415 . S
H5428 C5425 0.999 . S
H5429 C5410 0.913 . S
H5430 C5448 0.951 . S
H5431 C5450 0.951 . S
H5432 C5452 0.950 . S
H5433 C5453 0.950 . S
H5434 C5455 0.950 . S
H5435 C5458 0.950 . S
H5436 C5459 0.950 . S
H5437 C5461 0.950 . S
H5438 C5462 0.950 . S
H5439 C5463 0.951 . S
H5440 C5465 0.951 . S
H5441 C5467 0.950 . S
H5442 C5468 0.950 . S
H5443 C5470 0.950 . S
H5444 C5473 0.950 . S
H5445 C5474 0.950 . S
H5446 C5476 0.950 . S
H5447 C5477 0.950 . S
C5448 H5430 0.951 . S
C5448 C5449 1.366 . S
C5448 C5450 1.388 . S
C5449 C5448 1.366 . S
C5449 C5453 1.385 . S
C5450 H5431 0.951 . S
C5450 C5448 1.388 . S
C5450 C5451 1.366 . S
C5451 C5450 1.366 . S
C5451 C5452 1.414 . S
C5451 C5454 1.499 . S
C5452 H5432 0.950 . S
C5452 C5451 1.414 . S
C5452 C5453 1.374 . S
C5453 H5433 0.950 . S
C5453 C5449 1.385 . S
C5453 C5452 1.374 . S
C5454 C5451 1.499 . S
C5454 C5455 1.373 . S
C5454 C5456 1.389 . S
C5455 H5434 0.950 . S
C5455 C5454 1.373 . S
C5455 C5471 1.377 . S
C5456 C5454 1.389 . S
C5456 C5457 1.524 . S
C5456 C5470 1.377 . S
C5457 C5456 1.524 . S
C5457 C5458 1.397 . S
C5457 C5462 1.363 . S
C5458 H5435 0.950 . S
C5458 C5457 1.397 . S
C5458 C5459 1.334 . S
C5459 H5436 0.950 . S
C5459 C5458 1.334 . S
C5459 C5460 1.287 . S
C5460 C5459 1.287 . S
C5460 C5461 1.524 . S
C5460 H5479 0.913 . S
C5461 H5437 0.950 . S
C5461 C5460 1.524 . S
C5461 C5462 1.415 . S
C5462 H5438 0.950 . S
C5462 C5457 1.363 . S
C5462 C5461 1.415 . S
C5463 H5439 0.951 . S
C5463 C5464 1.366 . S
C5463 C5465 1.388 . S
C5464 C5463 1.366 . S
C5464 C5468 1.385 . S
C5465 H5440 0.951 . S
C5465 C5463 1.388 . S
C5465 C5466 1.366 . S
C5466 C5465 1.366 . S
C5466 C5467 1.414 . S
C5466 C5469 1.499 . S
C5467 H5441 0.950 . S
C5467 C5466 1.414 . S
C5467 C5468 1.374 . S
C5468 H5442 0.950 . S
C5468 C5464 1.385 . S
C5468 C5467 1.374 . S
C5469 C5466 1.499 . S
C5469 C5470 1.373 . S
C5469 C5471 1.389 . S
C5470 H5443 0.950 . S
C5470 C5456 1.377 . S
C5470 C5469 1.373 . S
C5471 C5455 1.377 . S
C5471 C5469 1.389 . S
C5471 C5472 1.524 . S
C5472 C5471 1.524 . S
C5472 C5473 1.397 . S
C5472 C5477 1.363 . S
C5473 H5444 0.950 . S
C5473 C5472 1.397 . S
C5473 C5474 1.334 . S
C5474 H5445 0.950 . S
C5474 C5473 1.334 . S
C5474 C5475 1.287 . S
C5475 C5474 1.287 . S
C5475 C5476 1.524 . S
C5475 H5478 0.999 . S
C5476 H5446 0.950 . S
C5476 C5475 1.524 . S
C5476 C5477 1.415 . S
C5477 H5447 0.950 . S
C5477 C5472 1.363 . S
C5477 C5476 1.415 . S
H5478 C5475 0.999 . S
H5479 C5460 0.913 . S
H5480 C5498 0.951 . S
H5481 C5500 0.951 . S
H5482 C5502 0.950 . S
H5483 C5503 0.950 . S
H5484 C5505 0.950 . S
H5485 C5508 0.950 . S
H5486 C5509 0.950 . S
H5487 C5511 0.950 . S
H5488 C5512 0.950 . S
H5489 C5513 0.951 . S
H5490 C5515 0.951 . S
H5491 C5517 0.950 . S
H5492 C5518 0.950 . S
H5493 C5520 0.950 . S
H5494 C5523 0.950 . S
H5495 C5524 0.950 . S
H5496 C5526 0.950 . S
H5497 C5527 0.950 . S
C5498 H5480 0.951 . S
C5498 C5499 1.366 . S
C5498 C5500 1.388 . S
C5499 C5498 1.366 . S
C5499 C5503 1.385 . S
C5500 H5481 0.951 . S
C5500 C5498 1.388 . S
C5500 C5501 1.366 . S
C5501 C5500 1.366 . S
C5501 C5502 1.414 . S
C5501 C5504 1.499 . S
C5502 H5482 0.950 . S
C5502 C5501 1.414 . S
C5502 C5503 1.374 . S
C5503 H5483 0.950 . S
C5503 C5499 1.385 . S
C5503 C5502 1.374 . S
C5504 C5501 1.499 . S
C5504 C5505 1.373 . S
C5504 C5506 1.389 . S
C5505 H5484 0.950 . S
C5505 C5504 1.373 . S
C5505 C5521 1.377 . S
C5506 C5504 1.389 . S
C5506 C5507 1.524 . S
C5506 C5520 1.377 . S
C5507 C5506 1.524 . S
C5507 C5508 1.397 . S
C5507 C5512 1.363 . S
C5508 H5485 0.950 . S
C5508 C5507 1.397 . S
C5508 C5509 1.334 . S
C5509 H5486 0.950 . S
C5509 C5508 1.334 . S
C5509 C5510 1.287 . S
C5510 C5509 1.287 . S
C5510 C5511 1.524 . S
C5510 H5529 0.913 . S
C5511 H5487 0.950 . S
C5511 C5510 1.524 . S
C5511 C5512 1.415 . S
C5512 H5488 0.950 . S
C5512 C5507 1.363 . S
C5512 C5511 1.415 . S
C5513 H5489 0.951 . S
C5513 C5514 1.366 . S
C5513 C5515 1.388 . S
C5514 C5513 1.366 . S
C5514 C5518 1.385 . S
C5515 H5490 0.951 . S
C5515 C5513 1.388 . S
C5515 C5516 1.366 . S
C5516 C5515 1.366 . S
C5516 C5517 1.414 . S
C5516 C5519 1.499 . S
C5517 H5491 0.950 . S
C5517 C5516 1.414 . S
C5517 C5518 1.374 . S
C5518 H5492 0.950 . S
C5518 C5514 1.385 . S
C5518 C5517 1.374 . S
C5519 C5516 1.499 . S
C5519 C5520 1.373 . S
C5519 C5521 1.389 . S
C5520 H5493 0.950 . S
C5520 C5506 1.377 . S
C5520 C5519 1.373 . S
C5521 C5505 1.377 . S
C5521 C5519 1.389 . S
C5521 C5522 1.524 . S
C5522 C5521 1.524 . S
C5522 C5523 1.397 . S
C5522 C5527 1.363 . S
C5523 H5494 0.950 . S
C5523 C5522 1.397 . S
C5523 C5524 1.334 . S
C5524 H5495 0.950 . S
C5524 C5523 1.334 . S
C5524 C5525 1.287 . S
C5525 C5524 1.287 . S
C5525 C5526 1.524 . S
C5525 H5528 0.999 . S
C5526 H5496 0.950 . S
C5526 C5525 1.524 . S
C5526 C5527 1.415 . S
C5527 H5497 0.950 . S
C5527 C5522 1.363 . S
C5527 C5526 1.415 . S
H5528 C5525 0.999 . S
H5529 C5510 0.913 . S
H5530 C5548 0.951 . S
H5531 C5550 0.951 . S
H5532 C5552 0.950 . S
H5533 C5553 0.950 . S
H5534 C5555 0.950 . S
H5535 C5558 0.950 . S
H5536 C5559 0.950 . S
H5537 C5561 0.950 . S
H5538 C5562 0.950 . S
H5539 C5563 0.951 . S
H5540 C5565 0.951 . S
H5541 C5567 0.950 . S
H5542 C5568 0.950 . S
H5543 C5570 0.950 . S
H5544 C5573 0.950 . S
H5545 C5574 0.950 . S
H5546 C5576 0.950 . S
H5547 C5577 0.950 . S
C5548 H5530 0.951 . S
C5548 C5549 1.366 . S
C5548 C5550 1.388 . S
C5549 C5548 1.366 . S
C5549 C5553 1.385 . S
C5550 H5531 0.951 . S
C5550 C5548 1.388 . S
C5550 C5551 1.366 . S
C5551 C5550 1.366 . S
C5551 C5552 1.414 . S
C5551 C5554 1.499 . S
C5552 H5532 0.950 . S
C5552 C5551 1.414 . S
C5552 C5553 1.374 . S
C5553 H5533 0.950 . S
C5553 C5549 1.385 . S
C5553 C5552 1.374 . S
C5554 C5551 1.499 . S
C5554 C5555 1.373 . S
C5554 C5556 1.389 . S
C5555 H5534 0.950 . S
C5555 C5554 1.373 . S
C5555 C5571 1.377 . S
C5556 C5554 1.389 . S
C5556 C5557 1.524 . S
C5556 C5570 1.377 . S
C5557 C5556 1.524 . S
C5557 C5558 1.397 . S
C5557 C5562 1.363 . S
C5558 H5535 0.950 . S
C5558 C5557 1.397 . S
C5558 C5559 1.334 . S
C5559 H5536 0.950 . S
C5559 C5558 1.334 . S
C5559 C5560 1.287 . S
C5560 C5559 1.287 . S
C5560 C5561 1.524 . S
C5560 H5579 0.913 . S
C5561 H5537 0.950 . S
C5561 C5560 1.524 . S
C5561 C5562 1.415 . S
C5562 H5538 0.950 . S
C5562 C5557 1.363 . S
C5562 C5561 1.415 . S
C5563 H5539 0.951 . S
C5563 C5564 1.366 . S
C5563 C5565 1.388 . S
C5564 C5563 1.366 . S
C5564 C5568 1.385 . S
C5565 H5540 0.951 . S
C5565 C5563 1.388 . S
C5565 C5566 1.366 . S
C5566 C5565 1.366 . S
C5566 C5567 1.414 . S
C5566 C5569 1.499 . S
C5567 H5541 0.950 . S
C5567 C5566 1.414 . S
C5567 C5568 1.374 . S
C5568 H5542 0.950 . S
C5568 C5564 1.385 . S
C5568 C5567 1.374 . S
C5569 C5566 1.499 . S
C5569 C5570 1.373 . S
C5569 C5571 1.389 . S
C5570 H5543 0.950 . S
C5570 C5556 1.377 . S
C5570 C5569 1.373 . S
C5571 C5555 1.377 . S
C5571 C5569 1.389 . S
C5571 C5572 1.524 . S
C5572 C5571 1.524 . S
C5572 C5573 1.397 . S
C5572 C5577 1.363 . S
C5573 H5544 0.950 . S
C5573 C5572 1.397 . S
C5573 C5574 1.334 . S
C5574 H5545 0.950 . S
C5574 C5573 1.334 . S
C5574 C5575 1.287 . S
C5575 C5574 1.287 . S
C5575 C5576 1.524 . S
C5575 H5578 0.999 . S
C5576 H5546 0.950 . S
C5576 C5575 1.524 . S
C5576 C5577 1.415 . S
C5577 H5547 0.950 . S
C5577 C5572 1.363 . S
C5577 C5576 1.415 . S
H5578 C5575 0.999 . S
H5579 C5560 0.913 . S
H5580 C5598 0.951 . S
H5581 C5600 0.951 . S
H5582 C5602 0.950 . S
H5583 C5603 0.950 . S
H5584 C5605 0.950 . S
H5585 C5608 0.950 . S
H5586 C5609 0.950 . S
H5587 C5611 0.950 . S
H5588 C5612 0.950 . S
H5589 C5613 0.951 . S
H5590 C5615 0.951 . S
H5591 C5617 0.950 . S
H5592 C5618 0.950 . S
H5593 C5620 0.950 . S
H5594 C5623 0.950 . S
H5595 C5624 0.950 . S
H5596 C5626 0.950 . S
H5597 C5627 0.950 . S
C5598 H5580 0.951 . S
C5598 C5599 1.366 . S
C5598 C5600 1.388 . S
C5599 C5598 1.366 . S
C5599 C5603 1.385 . S
C5600 H5581 0.951 . S
C5600 C5598 1.388 . S
C5600 C5601 1.366 . S
C5601 C5600 1.366 . S
C5601 C5602 1.414 . S
C5601 C5604 1.499 . S
C5602 H5582 0.950 . S
C5602 C5601 1.414 . S
C5602 C5603 1.374 . S
C5603 H5583 0.950 . S
C5603 C5599 1.385 . S
C5603 C5602 1.374 . S
C5604 C5601 1.499 . S
C5604 C5605 1.373 . S
C5604 C5606 1.389 . S
C5605 H5584 0.950 . S
C5605 C5604 1.373 . S
C5605 C5621 1.377 . S
C5606 C5604 1.389 . S
C5606 C5607 1.524 . S
C5606 C5620 1.377 . S
C5607 C5606 1.524 . S
C5607 C5608 1.397 . S
C5607 C5612 1.363 . S
C5608 H5585 0.950 . S
C5608 C5607 1.397 . S
C5608 C5609 1.334 . S
C5609 H5586 0.950 . S
C5609 C5608 1.334 . S
C5609 C5610 1.287 . S
C5610 C5609 1.287 . S
C5610 C5611 1.524 . S
C5610 H5629 0.913 . S
C5611 H5587 0.950 . S
C5611 C5610 1.524 . S
C5611 C5612 1.415 . S
C5612 H5588 0.950 . S
C5612 C5607 1.363 . S
C5612 C5611 1.415 . S
C5613 H5589 0.951 . S
C5613 C5614 1.366 . S
C5613 C5615 1.388 . S
C5614 C5613 1.366 . S
C5614 C5618 1.385 . S
C5615 H5590 0.951 . S
C5615 C5613 1.388 . S
C5615 C5616 1.366 . S
C5616 C5615 1.366 . S
C5616 C5617 1.414 . S
C5616 C5619 1.499 . S
C5617 H5591 0.950 . S
C5617 C5616 1.414 . S
C5617 C5618 1.374 . S
C5618 H5592 0.950 . S
C5618 C5614 1.385 . S
C5618 C5617 1.374 . S
C5619 C5616 1.499 . S
C5619 C5620 1.373 . S
C5619 C5621 1.389 . S
C5620 H5593 0.950 . S
C5620 C5606 1.377 . S
C5620 C5619 1.373 . S
C5621 C5605 1.377 . S
C5621 C5619 1.389 . S
C5621 C5622 1.524 . S
C5622 C5621 1.524 . S
C5622 C5623 1.397 . S
C5622 C5627 1.363 . S
C5623 H5594 0.950 . S
C5623 C5622 1.397 . S
C5623 C5624 1.334 . S
C5624 H5595 0.950 . S
C5624 C5623 1.334 . S
C5624 C5625 1.287 . S
C5625 C5624 1.287 . S
C5625 C5626 1.524 . S
C5625 H5628 0.999 . S
C5626 H5596 0.950 . S
C5626 C5625 1.524 . S
C5626 C5627 1.415 . S
C5627 H5597 0.950 . S
C5627 C5622 1.363 . S
C5627 C5626 1.415 . S
H5628 C5625 0.999 . S
H5629 C5610 0.913 . S
H5630 C5648 0.951 . S
H5631 C5650 0.951 . S
H5632 C5652 0.950 . S
H5633 C5653 0.950 . S
H5634 C5655 0.950 . S
H5635 C5658 0.950 . S
H5636 C5659 0.950 . S
H5637 C5661 0.950 . S
H5638 C5662 0.950 . S
H5639 C5663 0.951 . S
H5640 C5665 0.951 . S
H5641 C5667 0.950 . S
H5642 C5668 0.950 . S
H5643 C5670 0.950 . S
H5644 C5673 0.950 . S
H5645 C5674 0.950 . S
H5646 C5676 0.950 . S
H5647 C5677 0.950 . S
C5648 H5630 0.951 . S
C5648 C5649 1.366 . S
C5648 C5650 1.388 . S
C5649 C5648 1.366 . S
C5649 C5653 1.385 . S
C5650 H5631 0.951 . S
C5650 C5648 1.388 . S
C5650 C5651 1.366 . S
C5651 C5650 1.366 . S
C5651 C5652 1.414 . S
C5651 C5654 1.499 . S
C5652 H5632 0.950 . S
C5652 C5651 1.414 . S
C5652 C5653 1.374 . S
C5653 H5633 0.950 . S
C5653 C5649 1.385 . S
C5653 C5652 1.374 . S
C5654 C5651 1.499 . S
C5654 C5655 1.373 . S
C5654 C5656 1.389 . S
C5655 H5634 0.950 . S
C5655 C5654 1.373 . S
C5655 C5671 1.377 . S
C5656 C5654 1.389 . S
C5656 C5657 1.524 . S
C5656 C5670 1.377 . S
C5657 C5656 1.524 . S
C5657 C5658 1.397 . S
C5657 C5662 1.363 . S
C5658 H5635 0.950 . S
C5658 C5657 1.397 . S
C5658 C5659 1.334 . S
C5659 H5636 0.950 . S
C5659 C5658 1.334 . S
C5659 C5660 1.287 . S
C5660 C5659 1.287 . S
C5660 C5661 1.524 . S
C5660 H5679 0.913 . S
C5661 H5637 0.950 . S
C5661 C5660 1.524 . S
C5661 C5662 1.415 . S
C5662 H5638 0.950 . S
C5662 C5657 1.363 . S
C5662 C5661 1.415 . S
C5663 H5639 0.951 . S
C5663 C5664 1.366 . S
C5663 C5665 1.388 . S
C5664 C5663 1.366 . S
C5664 C5668 1.385 . S
C5665 H5640 0.951 . S
C5665 C5663 1.388 . S
C5665 C5666 1.366 . S
C5666 C5665 1.366 . S
C5666 C5667 1.414 . S
C5666 C5669 1.499 . S
C5667 H5641 0.950 . S
C5667 C5666 1.414 . S
C5667 C5668 1.374 . S
C5668 H5642 0.950 . S
C5668 C5664 1.385 . S
C5668 C5667 1.374 . S
C5669 C5666 1.499 . S
C5669 C5670 1.373 . S
C5669 C5671 1.389 . S
C5670 H5643 0.950 . S
C5670 C5656 1.377 . S
C5670 C5669 1.373 . S
C5671 C5655 1.377 . S
C5671 C5669 1.389 . S
C5671 C5672 1.524 . S
C5672 C5671 1.524 . S
C5672 C5673 1.397 . S
C5672 C5677 1.363 . S
C5673 H5644 0.950 . S
C5673 C5672 1.397 . S
C5673 C5674 1.334 . S
C5674 H5645 0.950 . S
C5674 C5673 1.334 . S
C5674 C5675 1.287 . S
C5675 C5674 1.287 . S
C5675 C5676 1.524 . S
C5675 H5678 0.999 . S
C5676 H5646 0.950 . S
C5676 C5675 1.524 . S
C5676 C5677 1.415 . S
C5677 H5647 0.950 . S
C5677 C5672 1.363 . S
C5677 C5676 1.415 . S
H5678 C5675 0.999 . S
H5679 C5660 0.913 . S
H5680 C5698 0.951 . S
H5681 C5700 0.951 . S
H5682 C5702 0.950 . S
H5683 C5703 0.950 . S
H5684 C5705 0.950 . S
H5685 C5708 0.950 . S
H5686 C5709 0.950 . S
H5687 C5711 0.950 . S
H5688 C5712 0.950 . S
H5689 C5713 0.951 . S
H5690 C5715 0.951 . S
H5691 C5717 0.950 . S
H5692 C5718 0.950 . S
H5693 C5720 0.950 . S
H5694 C5723 0.950 . S
H5695 C5724 0.950 . S
H5696 C5726 0.950 . S
H5697 C5727 0.950 . S
C5698 H5680 0.951 . S
C5698 C5699 1.366 . S
C5698 C5700 1.388 . S
C5699 C5698 1.366 . S
C5699 C5703 1.385 . S
C5700 H5681 0.951 . S
C5700 C5698 1.388 . S
C5700 C5701 1.366 . S
C5701 C5700 1.366 . S
C5701 C5702 1.414 . S
C5701 C5704 1.499 . S
C5702 H5682 0.950 . S
C5702 C5701 1.414 . S
C5702 C5703 1.374 . S
C5703 H5683 0.950 . S
C5703 C5699 1.385 . S
C5703 C5702 1.374 . S
C5704 C5701 1.499 . S
C5704 C5705 1.373 . S
C5704 C5706 1.389 . S
C5705 H5684 0.950 . S
C5705 C5704 1.373 . S
C5705 C5721 1.377 . S
C5706 C5704 1.389 . S
C5706 C5707 1.524 . S
C5706 C5720 1.377 . S
C5707 C5706 1.524 . S
C5707 C5708 1.397 . S
C5707 C5712 1.363 . S
C5708 H5685 0.950 . S
C5708 C5707 1.397 . S
C5708 C5709 1.334 . S
C5709 H5686 0.950 . S
C5709 C5708 1.334 . S
C5709 C5710 1.287 . S
C5710 C5709 1.287 . S
C5710 C5711 1.524 . S
C5710 H5729 0.913 . S
C5711 H5687 0.950 . S
C5711 C5710 1.524 . S
C5711 C5712 1.415 . S
C5712 H5688 0.950 . S
C5712 C5707 1.363 . S
C5712 C5711 1.415 . S
C5713 H5689 0.951 . S
C5713 C5714 1.366 . S
C5713 C5715 1.388 . S
C5714 C5713 1.366 . S
C5714 C5718 1.385 . S
C5715 H5690 0.951 . S
C5715 C5713 1.388 . S
C5715 C5716 1.366 . S
C5716 C5715 1.366 . S
C5716 C5717 1.414 . S
C5716 C5719 1.499 . S
C5717 H5691 0.950 . S
C5717 C5716 1.414 . S
C5717 C5718 1.374 . S
C5718 H5692 0.950 . S
C5718 C5714 1.385 . S
C5718 C5717 1.374 . S
C5719 C5716 1.499 . S
C5719 C5720 1.373 . S
C5719 C5721 1.389 . S
C5720 H5693 0.950 . S
C5720 C5706 1.377 . S
C5720 C5719 1.373 . S
C5721 C5705 1.377 . S
C5721 C5719 1.389 . S
C5721 C5722 1.524 . S
C5722 C5721 1.524 . S
C5722 C5723 1.397 . S
C5722 C5727 1.363 . S
C5723 H5694 0.950 . S
C5723 C5722 1.397 . S
C5723 C5724 1.334 . S
C5724 H5695 0.950 . S
C5724 C5723 1.334 . S
C5724 C5725 1.287 . S
C5725 C5724 1.287 . S
C5725 C5726 1.524 . S
C5725 H5728 0.999 . S
C5726 H5696 0.950 . S
C5726 C5725 1.524 . S
C5726 C5727 1.415 . S
C5727 H5697 0.950 . S
C5727 C5722 1.363 . S
C5727 C5726 1.415 . S
H5728 C5725 0.999 . S
H5729 C5710 0.913 . S
H5730 C5748 0.951 . S
H5731 C5750 0.951 . S
H5732 C5752 0.950 . S
H5733 C5753 0.950 . S
H5734 C5755 0.950 . S
H5735 C5758 0.950 . S
H5736 C5759 0.950 . S
H5737 C5761 0.950 . S
H5738 C5762 0.950 . S
H5739 C5763 0.951 . S
H5740 C5765 0.951 . S
H5741 C5767 0.950 . S
H5742 C5768 0.950 . S
H5743 C5770 0.950 . S
H5744 C5773 0.950 . S
H5745 C5774 0.950 . S
H5746 C5776 0.950 . S
H5747 C5777 0.950 . S
C5748 H5730 0.951 . S
C5748 C5749 1.366 . S
C5748 C5750 1.388 . S
C5749 C5748 1.366 . S
C5749 C5753 1.385 . S
C5750 H5731 0.951 . S
C5750 C5748 1.388 . S
C5750 C5751 1.366 . S
C5751 C5750 1.366 . S
C5751 C5752 1.414 . S
C5751 C5754 1.499 . S
C5752 H5732 0.950 . S
C5752 C5751 1.414 . S
C5752 C5753 1.374 . S
C5753 H5733 0.950 . S
C5753 C5749 1.385 . S
C5753 C5752 1.374 . S
C5754 C5751 1.499 . S
C5754 C5755 1.373 . S
C5754 C5756 1.389 . S
C5755 H5734 0.950 . S
C5755 C5754 1.373 . S
C5755 C5771 1.377 . S
C5756 C5754 1.389 . S
C5756 C5757 1.524 . S
C5756 C5770 1.377 . S
C5757 C5756 1.524 . S
C5757 C5758 1.397 . S
C5757 C5762 1.363 . S
C5758 H5735 0.950 . S
C5758 C5757 1.397 . S
C5758 C5759 1.334 . S
C5759 H5736 0.950 . S
C5759 C5758 1.334 . S
C5759 C5760 1.287 . S
C5760 C5759 1.287 . S
C5760 C5761 1.524 . S
C5760 H5779 0.913 . S
C5761 H5737 0.950 . S
C5761 C5760 1.524 . S
C5761 C5762 1.415 . S
C5762 H5738 0.950 . S
C5762 C5757 1.363 . S
C5762 C5761 1.415 . S
C5763 H5739 0.951 . S
C5763 C5764 1.366 . S
C5763 C5765 1.388 . S
C5764 C5763 1.366 . S
C5764 C5768 1.385 . S
C5765 H5740 0.951 . S
C5765 C5763 1.388 . S
C5765 C5766 1.366 . S
C5766 C5765 1.366 . S
C5766 C5767 1.414 . S
C5766 C5769 1.499 . S
C5767 H5741 0.950 . S
C5767 C5766 1.414 . S
C5767 C5768 1.374 . S
C5768 H5742 0.950 . S
C5768 C5764 1.385 . S
C5768 C5767 1.374 . S
C5769 C5766 1.499 . S
C5769 C5770 1.373 . S
C5769 C5771 1.389 . S
C5770 H5743 0.950 . S
C5770 C5756 1.377 . S
C5770 C5769 1.373 . S
C5771 C5755 1.377 . S
C5771 C5769 1.389 . S
C5771 C5772 1.524 . S
C5772 C5771 1.524 . S
C5772 C5773 1.397 . S
C5772 C5777 1.363 . S
C5773 H5744 0.950 . S
C5773 C5772 1.397 . S
C5773 C5774 1.334 . S
C5774 H5745 0.950 . S
C5774 C5773 1.334 . S
C5774 C5775 1.287 . S
C5775 C5774 1.287 . S
C5775 C5776 1.524 . S
C5775 H5778 0.999 . S
C5776 H5746 0.950 . S
C5776 C5775 1.524 . S
C5776 C5777 1.415 . S
C5777 H5747 0.950 . S
C5777 C5772 1.363 . S
C5777 C5776 1.415 . S
H5778 C5775 0.999 . S
H5779 C5760 0.913 . S
H5780 C5798 0.951 . S
H5781 C5800 0.951 . S
H5782 C5802 0.950 . S
H5783 C5803 0.950 . S
H5784 C5805 0.950 . S
H5785 C5808 0.950 . S
H5786 C5809 0.950 . S
H5787 C5811 0.950 . S
H5788 C5812 0.950 . S
H5789 C5813 0.952 1_655 S
H5790 C5815 0.951 . S
H5791 C5817 0.950 . S
H5792 C5818 0.950 . S
H5793 C5820 0.950 1_455 S
H5794 C5823 0.950 1_455 S
H5795 C5824 0.948 1_455 S
H5796 C5826 0.950 . S
H5797 C5827 0.950 . S
C5798 H5780 0.951 . S
C5798 C5799 1.366 . S
C5798 C5800 1.388 . S
C5799 C5798 1.366 . S
C5799 C5803 1.385 . S
C5800 H5781 0.951 . S
C5800 C5798 1.388 . S
C5800 C5801 1.366 . S
C5801 C5800 1.366 . S
C5801 C5802 1.414 . S
C5801 C5804 1.499 . S
C5802 H5782 0.950 . S
C5802 C5801 1.414 . S
C5802 C5803 1.374 . S
C5803 H5783 0.950 . S
C5803 C5799 1.385 . S
C5803 C5802 1.374 . S
C5804 C5801 1.499 . S
C5804 C5805 1.373 . S
C5804 C5806 1.389 . S
C5805 H5784 0.950 . S
C5805 C5804 1.373 . S
C5805 C5821 1.377 . S
C5806 C5804 1.389 . S
C5806 C5807 1.524 . S
C5806 C5820 1.377 . S
C5807 C5806 1.524 . S
C5807 C5808 1.397 . S
C5807 C5812 1.363 1_655 S
C5808 H5785 0.950 . S
C5808 C5807 1.397 . S
C5808 C5809 1.334 . S
C5809 H5786 0.950 . S
C5809 C5808 1.334 . S
C5809 C5810 1.287 . S
C5810 C5809 1.287 . S
C5810 C5811 1.524 1_655 S
C5810 H5829 0.913 . S
C5811 H5787 0.950 . S
C5811 C5810 1.524 1_455 S
C5811 C5812 1.415 . S
C5812 H5788 0.950 . S
C5812 C5807 1.363 1_455 S
C5812 C5811 1.415 . S
C5813 H5789 0.952 1_455 S
C5813 C5814 1.366 . S
C5813 C5815 1.388 1_455 S
C5814 C5813 1.366 . S
C5814 C5818 1.385 . S
C5815 H5790 0.951 . S
C5815 C5813 1.388 1_655 S
C5815 C5816 1.366 1_655 S
C5816 C5815 1.366 1_455 S
C5816 C5817 1.414 . S
C5816 C5819 1.499 1_455 S
C5817 H5791 0.950 . S
C5817 C5816 1.414 . S
C5817 C5818 1.374 . S
C5818 H5792 0.950 . S
C5818 C5814 1.385 . S
C5818 C5817 1.374 . S
C5819 C5816 1.499 1_655 S
C5819 C5820 1.373 . S
C5819 C5821 1.389 . S
C5820 H5793 0.950 1_655 S
C5820 C5806 1.377 . S
C5820 C5819 1.373 . S
C5821 C5805 1.377 . S
C5821 C5819 1.389 . S
C5821 C5822 1.524 . S
C5822 C5821 1.524 . S
C5822 C5823 1.397 . S
C5822 C5827 1.363 . S
C5823 H5794 0.950 1_655 S
C5823 C5822 1.397 . S
C5823 C5824 1.334 . S
C5824 H5795 0.948 1_655 S
C5824 C5823 1.334 . S
C5824 C5825 1.287 . S
C5825 C5824 1.287 . S
C5825 C5826 1.524 . S
C5825 H5828 0.999 . S
C5826 H5796 0.950 . S
C5826 C5825 1.524 . S
C5826 C5827 1.415 . S
C5827 H5797 0.950 . S
C5827 C5822 1.363 . S
C5827 C5826 1.415 . S
H5828 C5825 0.999 . S
H5829 C5810 0.913 . S
H5830 C5848 0.951 . S
H5831 C5850 0.951 . S
H5832 C5852 0.950 . S
H5833 C5853 0.950 . S
H5834 C5855 0.950 . S
H5835 C5858 0.950 . S
H5836 C5859 0.950 . S
H5837 C5861 0.950 . S
H5838 C5862 0.950 . S
H5839 C5863 0.951 . S
H5840 C5865 0.951 . S
H5841 C5867 0.950 . S
H5842 C5868 0.950 . S
H5843 C5870 0.950 . S
H5844 C5873 0.950 . S
H5845 C5874 0.950 . S
H5846 C5876 0.950 . S
H5847 C5877 0.950 . S
C5848 H5830 0.951 . S
C5848 C5849 1.366 . S
C5848 C5850 1.388 . S
C5849 C5848 1.366 . S
C5849 C5853 1.385 . S
C5850 H5831 0.951 . S
C5850 C5848 1.388 . S
C5850 C5851 1.366 . S
C5851 C5850 1.366 . S
C5851 C5852 1.414 . S
C5851 C5854 1.499 . S
C5852 H5832 0.950 . S
C5852 C5851 1.414 . S
C5852 C5853 1.374 . S
C5853 H5833 0.950 . S
C5853 C5849 1.385 . S
C5853 C5852 1.374 . S
C5854 C5851 1.499 . S
C5854 C5855 1.373 . S
C5854 C5856 1.389 . S
C5855 H5834 0.950 . S
C5855 C5854 1.373 . S
C5855 C5871 1.377 . S
C5856 C5854 1.389 . S
C5856 C5857 1.524 . S
C5856 C5870 1.377 . S
C5857 C5856 1.524 . S
C5857 C5858 1.397 . S
C5857 C5862 1.363 . S
C5858 H5835 0.950 . S
C5858 C5857 1.397 . S
C5858 C5859 1.334 . S
C5859 H5836 0.950 . S
C5859 C5858 1.334 . S
C5859 C5860 1.287 . S
C5860 C5859 1.287 . S
C5860 C5861 1.524 . S
C5860 H5879 0.913 . S
C5861 H5837 0.950 . S
C5861 C5860 1.524 . S
C5861 C5862 1.415 . S
C5862 H5838 0.950 . S
C5862 C5857 1.363 . S
C5862 C5861 1.415 . S
C5863 H5839 0.951 . S
C5863 C5864 1.366 . S
C5863 C5865 1.388 . S
C5864 C5863 1.366 . S
C5864 C5868 1.385 . S
C5865 H5840 0.951 . S
C5865 C5863 1.388 . S
C5865 C5866 1.366 . S
C5866 C5865 1.366 . S
C5866 C5867 1.414 . S
C5866 C5869 1.499 . S
C5867 H5841 0.950 . S
C5867 C5866 1.414 . S
C5867 C5868 1.374 . S
C5868 H5842 0.950 . S
C5868 C5864 1.385 . S
C5868 C5867 1.374 . S
C5869 C5866 1.499 . S
C5869 C5870 1.373 . S
C5869 C5871 1.389 . S
C5870 H5843 0.950 . S
C5870 C5856 1.377 . S
C5870 C5869 1.373 . S
C5871 C5855 1.377 . S
C5871 C5869 1.389 . S
C5871 C5872 1.524 . S
C5872 C5871 1.524 . S
C5872 C5873 1.397 . S
C5872 C5877 1.363 . S
C5873 H5844 0.950 . S
C5873 C5872 1.397 . S
C5873 C5874 1.334 . S
C5874 H5845 0.950 . S
C5874 C5873 1.334 . S
C5874 C5875 1.287 . S
C5875 C5874 1.287 . S
C5875 C5876 1.524 . S
C5875 H5878 0.999 . S
C5876 H5846 0.950 . S
C5876 C5875 1.524 . S
C5876 C5877 1.415 . S
C5877 H5847 0.950 . S
C5877 C5872 1.363 . S
C5877 C5876 1.415 . S
H5878 C5875 0.999 . S
H5879 C5860 0.913 . S
H5880 C5898 0.951 . S
H5881 C5900 0.951 . S
H5882 C5902 0.950 . S
H5883 C5903 0.950 . S
H5884 C5905 0.950 . S
H5885 C5908 0.950 . S
H5886 C5909 0.950 . S
H5887 C5911 0.950 . S
H5888 C5912 0.950 . S
H5889 C5913 0.951 . S
H5890 C5915 0.951 . S
H5891 C5917 0.950 . S
H5892 C5918 0.950 . S
H5893 C5920 0.950 . S
H5894 C5923 0.950 . S
H5895 C5924 0.950 . S
H5896 C5926 0.950 . S
H5897 C5927 0.950 . S
C5898 H5880 0.951 . S
C5898 C5899 1.366 . S
C5898 C5900 1.388 . S
C5899 C5898 1.366 . S
C5899 C5903 1.385 . S
C5900 H5881 0.951 . S
C5900 C5898 1.388 . S
C5900 C5901 1.366 . S
C5901 C5900 1.366 . S
C5901 C5902 1.414 . S
C5901 C5904 1.499 . S
C5902 H5882 0.950 . S
C5902 C5901 1.414 . S
C5902 C5903 1.374 . S
C5903 H5883 0.950 . S
C5903 C5899 1.385 . S
C5903 C5902 1.374 . S
C5904 C5901 1.499 . S
C5904 C5905 1.373 . S
C5904 C5906 1.389 . S
C5905 H5884 0.950 . S
C5905 C5904 1.373 . S
C5905 C5921 1.377 . S
C5906 C5904 1.389 . S
C5906 C5907 1.524 . S
C5906 C5920 1.377 . S
C5907 C5906 1.524 . S
C5907 C5908 1.397 . S
C5907 C5912 1.363 . S
C5908 H5885 0.950 . S
C5908 C5907 1.397 . S
C5908 C5909 1.334 . S
C5909 H5886 0.950 . S
C5909 C5908 1.334 . S
C5909 C5910 1.287 . S
C5910 C5909 1.287 . S
C5910 C5911 1.524 . S
C5910 H5929 0.913 . S
C5911 H5887 0.950 . S
C5911 C5910 1.524 . S
C5911 C5912 1.415 . S
C5912 H5888 0.950 . S
C5912 C5907 1.363 . S
C5912 C5911 1.415 . S
C5913 H5889 0.951 . S
C5913 C5914 1.366 . S
C5913 C5915 1.388 . S
C5914 C5913 1.366 . S
C5914 C5918 1.385 . S
C5915 H5890 0.951 . S
C5915 C5913 1.388 . S
C5915 C5916 1.366 . S
C5916 C5915 1.366 . S
C5916 C5917 1.414 . S
C5916 C5919 1.499 . S
C5917 H5891 0.950 . S
C5917 C5916 1.414 . S
C5917 C5918 1.374 . S
C5918 H5892 0.950 . S
C5918 C5914 1.385 . S
C5918 C5917 1.374 . S
C5919 C5916 1.499 . S
C5919 C5920 1.373 . S
C5919 C5921 1.389 . S
C5920 H5893 0.950 . S
C5920 C5906 1.377 . S
C5920 C5919 1.373 . S
C5921 C5905 1.377 . S
C5921 C5919 1.389 . S
C5921 C5922 1.524 . S
C5922 C5921 1.524 . S
C5922 C5923 1.397 . S
C5922 C5927 1.363 . S
C5923 H5894 0.950 . S
C5923 C5922 1.397 . S
C5923 C5924 1.334 . S
C5924 H5895 0.950 . S
C5924 C5923 1.334 . S
C5924 C5925 1.287 . S
C5925 C5924 1.287 . S
C5925 C5926 1.524 . S
C5925 H5928 0.999 . S
C5926 H5896 0.950 . S
C5926 C5925 1.524 . S
C5926 C5927 1.415 . S
C5927 H5897 0.950 . S
C5927 C5922 1.363 . S
C5927 C5926 1.415 . S
H5928 C5925 0.999 . S
H5929 C5910 0.913 . S
H5930 C5948 0.951 . S
H5931 C5950 0.951 . S
H5932 C5952 0.950 . S
H5933 C5953 0.950 . S
H5934 C5955 0.950 . S
H5935 C5958 0.950 . S
H5936 C5959 0.950 . S
H5937 C5961 0.950 . S
H5938 C5962 0.950 . S
H5939 C5963 0.951 . S
H5940 C5965 0.951 . S
H5941 C5967 0.950 . S
H5942 C5968 0.950 . S
H5943 C5970 0.950 . S
H5944 C5973 0.950 . S
H5945 C5974 0.950 . S
H5946 C5976 0.950 . S
H5947 C5977 0.950 . S
C5948 H5930 0.951 . S
C5948 C5949 1.366 . S
C5948 C5950 1.388 . S
C5949 C5948 1.366 . S
C5949 C5953 1.385 . S
C5950 H5931 0.951 . S
C5950 C5948 1.388 . S
C5950 C5951 1.366 . S
C5951 C5950 1.366 . S
C5951 C5952 1.414 . S
C5951 C5954 1.499 . S
C5952 H5932 0.950 . S
C5952 C5951 1.414 . S
C5952 C5953 1.374 . S
C5953 H5933 0.950 . S
C5953 C5949 1.385 . S
C5953 C5952 1.374 . S
C5954 C5951 1.499 . S
C5954 C5955 1.373 . S
C5954 C5956 1.389 . S
C5955 H5934 0.950 . S
C5955 C5954 1.373 . S
C5955 C5971 1.377 . S
C5956 C5954 1.389 . S
C5956 C5957 1.524 . S
C5956 C5970 1.377 . S
C5957 C5956 1.524 . S
C5957 C5958 1.397 . S
C5957 C5962 1.363 . S
C5958 H5935 0.950 . S
C5958 C5957 1.397 . S
C5958 C5959 1.334 . S
C5959 H5936 0.950 . S
C5959 C5958 1.334 . S
C5959 C5960 1.287 . S
C5960 C5959 1.287 . S
C5960 C5961 1.524 . S
C5960 H5979 0.913 . S
C5961 H5937 0.950 . S
C5961 C5960 1.524 . S
C5961 C5962 1.415 . S
C5962 H5938 0.950 . S
C5962 C5957 1.363 . S
C5962 C5961 1.415 . S
C5963 H5939 0.951 . S
C5963 C5964 1.366 . S
C5963 C5965 1.388 . S
C5964 C5963 1.366 . S
C5964 C5968 1.385 . S
C5965 H5940 0.951 . S
C5965 C5963 1.388 . S
C5965 C5966 1.366 . S
C5966 C5965 1.366 . S
C5966 C5967 1.414 . S
C5966 C5969 1.499 . S
C5967 H5941 0.950 . S
C5967 C5966 1.414 . S
C5967 C5968 1.374 . S
C5968 H5942 0.950 . S
C5968 C5964 1.385 . S
C5968 C5967 1.374 . S
C5969 C5966 1.499 . S
C5969 C5970 1.373 . S
C5969 C5971 1.389 . S
C5970 H5943 0.950 . S
C5970 C5956 1.377 . S
C5970 C5969 1.373 . S
C5971 C5955 1.377 . S
C5971 C5969 1.389 . S
C5971 C5972 1.524 . S
C5972 C5971 1.524 . S
C5972 C5973 1.397 . S
C5972 C5977 1.363 . S
C5973 H5944 0.950 . S
C5973 C5972 1.397 . S
C5973 C5974 1.334 . S
C5974 H5945 0.950 . S
C5974 C5973 1.334 . S
C5974 C5975 1.287 . S
C5975 C5974 1.287 . S
C5975 C5976 1.524 . S
C5975 H5978 0.999 . S
C5976 H5946 0.950 . S
C5976 C5975 1.524 . S
C5976 C5977 1.415 . S
C5977 H5947 0.950 . S
C5977 C5972 1.363 . S
C5977 C5976 1.415 . S
H5978 C5975 0.999 . S
H5979 C5960 0.913 . S
H5980 C5998 0.951 . S
H5981 C6000 0.951 . S
H5982 C6002 0.950 . S
H5983 C6003 0.950 . S
H5984 C6005 0.950 . S
H5985 C6008 0.950 . S
H5986 C6009 0.950 . S
H5987 C6011 0.950 . S
H5988 C6012 0.950 . S
H5989 C6013 0.951 . S
H5990 C6015 0.951 . S
H5991 C6017 0.950 1_455 S
H5992 C6018 0.950 . S
H5993 C6020 0.950 . S
H5994 C6023 0.950 1_455 S
H5995 C6024 0.950 . S
H5996 C6026 0.950 . S
H5997 C6027 0.950 . S
C5998 H5980 0.951 . S
C5998 C5999 1.366 . S
C5998 C6000 1.388 . S
C5999 C5998 1.366 . S
C5999 C6003 1.385 . S
C6000 H5981 0.951 . S
C6000 C5998 1.388 . S
C6000 C6001 1.366 . S
C6001 C6000 1.366 . S
C6001 C6002 1.414 . S
C6001 C6004 1.499 . S
C6002 H5982 0.950 . S
C6002 C6001 1.414 . S
C6002 C6003 1.374 . S
C6003 H5983 0.950 . S
C6003 C5999 1.385 . S
C6003 C6002 1.374 . S
C6004 C6001 1.499 . S
C6004 C6005 1.373 . S
C6004 C6006 1.389 . S
C6005 H5984 0.950 . S
C6005 C6004 1.373 . S
C6005 C6021 1.377 . S
C6006 C6004 1.389 . S
C6006 C6007 1.524 . S
C6006 C6020 1.377 . S
C6007 C6006 1.524 . S
C6007 C6008 1.397 . S
C6007 C6012 1.363 . S
C6008 H5985 0.950 . S
C6008 C6007 1.397 . S
C6008 C6009 1.334 . S
C6009 H5986 0.950 . S
C6009 C6008 1.334 . S
C6009 C6010 1.287 . S
C6010 C6009 1.287 . S
C6010 C6011 1.524 . S
C6010 H6029 0.913 . S
C6011 H5987 0.950 . S
C6011 C6010 1.524 . S
C6011 C6012 1.415 . S
C6012 H5988 0.950 . S
C6012 C6007 1.363 . S
C6012 C6011 1.415 . S
C6013 H5989 0.951 . S
C6013 C6014 1.374 . S
C6013 C6015 1.388 . S
C6014 C6013 1.374 . S
C6014 C6018 1.383 1_655 S
C6015 H5990 0.951 . S
C6015 C6013 1.388 . S
C6015 C6016 1.366 . S
C6016 C6015 1.366 . S
C6016 C6017 1.414 . S
C6016 C6019 1.499 . S
C6017 H5991 0.950 1_655 S
C6017 C6016 1.414 . S
C6017 C6018 1.374 1_655 S
C6018 H5992 0.950 . S
C6018 C6014 1.383 1_455 S
C6018 C6017 1.374 1_455 S
C6019 C6016 1.499 . S
C6019 C6020 1.373 . S
C6019 C6021 1.389 . S
C6020 H5993 0.950 . S
C6020 C6006 1.377 . S
C6020 C6019 1.373 . S
C6021 C6005 1.377 . S
C6021 C6019 1.389 . S
C6021 C6022 1.524 . S
C6022 C6021 1.524 . S
C6022 C6023 1.397 . S
C6022 C6027 1.363 . S
C6023 H5994 0.950 1_655 S
C6023 C6022 1.397 . S
C6023 C6024 1.334 1_655 S
C6024 H5995 0.950 . S
C6024 C6023 1.334 1_455 S
C6024 C6025 1.287 1_455 S
C6025 C6024 1.287 1_655 S
C6025 C6026 1.524 . S
C6025 H6028 0.973 1_655 S
C6026 H5996 0.950 . S
C6026 C6025 1.524 . S
C6026 C6027 1.415 . S
C6027 H5997 0.950 . S
C6027 C6022 1.363 . S
C6027 C6026 1.415 . S
H6028 C6025 0.973 1_455 S
H6029 C6010 0.913 . S
H6030 C6048 0.951 . S
H6031 C6050 0.951 . S
H6032 C6052 0.950 . S
H6033 C6053 0.950 . S
H6034 C6055 0.950 . S
H6035 C6058 0.950 . S
H6036 C6059 0.950 . S
H6037 C6061 0.950 . S
H6038 C6062 0.950 . S
H6039 C6063 0.951 . S
H6040 C6065 0.951 . S
H6041 C6067 0.950 . S
H6042 C6068 0.950 . S
H6043 C6070 0.950 . S
H6044 C6073 0.950 . S
H6045 C6074 0.950 . S
H6046 C6076 0.950 . S
H6047 C6077 0.950 . S
C6048 H6030 0.951 . S
C6048 C6049 1.366 . S
C6048 C6050 1.388 . S
C6049 C6048 1.366 . S
C6049 C6053 1.385 . S
C6050 H6031 0.951 . S
C6050 C6048 1.388 . S
C6050 C6051 1.366 . S
C6051 C6050 1.366 . S
C6051 C6052 1.414 . S
C6051 C6054 1.499 . S
C6052 H6032 0.950 . S
C6052 C6051 1.414 . S
C6052 C6053 1.374 . S
C6053 H6033 0.950 . S
C6053 C6049 1.385 . S
C6053 C6052 1.374 . S
C6054 C6051 1.499 . S
C6054 C6055 1.373 . S
C6054 C6056 1.389 . S
C6055 H6034 0.950 . S
C6055 C6054 1.373 . S
C6055 C6071 1.377 . S
C6056 C6054 1.389 . S
C6056 C6057 1.524 . S
C6056 C6070 1.377 . S
C6057 C6056 1.524 . S
C6057 C6058 1.397 . S
C6057 C6062 1.363 . S
C6058 H6035 0.950 . S
C6058 C6057 1.397 . S
C6058 C6059 1.334 . S
C6059 H6036 0.950 . S
C6059 C6058 1.334 . S
C6059 C6060 1.287 . S
C6060 C6059 1.287 . S
C6060 C6061 1.524 . S
C6060 H6079 0.913 . S
C6061 H6037 0.950 . S
C6061 C6060 1.524 . S
C6061 C6062 1.415 . S
C6062 H6038 0.950 . S
C6062 C6057 1.363 . S
C6062 C6061 1.415 . S
C6063 H6039 0.951 . S
C6063 C6064 1.366 . S
C6063 C6065 1.388 . S
C6064 C6063 1.366 . S
C6064 C6068 1.385 . S
C6065 H6040 0.951 . S
C6065 C6063 1.388 . S
C6065 C6066 1.366 . S
C6066 C6065 1.366 . S
C6066 C6067 1.414 . S
C6066 C6069 1.499 . S
C6067 H6041 0.950 . S
C6067 C6066 1.414 . S
C6067 C6068 1.374 . S
C6068 H6042 0.950 . S
C6068 C6064 1.385 . S
C6068 C6067 1.374 . S
C6069 C6066 1.499 . S
C6069 C6070 1.373 . S
C6069 C6071 1.389 . S
C6070 H6043 0.950 . S
C6070 C6056 1.377 . S
C6070 C6069 1.373 . S
C6071 C6055 1.377 . S
C6071 C6069 1.389 . S
C6071 C6072 1.524 . S
C6072 C6071 1.524 . S
C6072 C6073 1.397 . S
C6072 C6077 1.363 . S
C6073 H6044 0.950 . S
C6073 C6072 1.397 . S
C6073 C6074 1.334 . S
C6074 H6045 0.950 . S
C6074 C6073 1.334 . S
C6074 C6075 1.287 . S
C6075 C6074 1.287 . S
C6075 C6076 1.524 . S
C6075 H6078 0.999 . S
C6076 H6046 0.950 . S
C6076 C6075 1.524 . S
C6076 C6077 1.415 . S
C6077 H6047 0.950 . S
C6077 C6072 1.363 . S
C6077 C6076 1.415 . S
H6078 C6075 0.999 . S
H6079 C6060 0.913 . S
H6080 C6098 0.951 . S
H6081 C6100 0.951 . S
H6082 C6102 0.950 . S
H6083 C6103 0.950 . S
H6084 C6105 0.950 . S
H6085 C6108 0.950 . S
H6086 C6109 0.950 . S
H6087 C6111 0.950 . S
H6088 C6112 0.950 . S
H6089 C6113 0.951 . S
H6090 C6115 0.951 . S
H6091 C6117 0.950 . S
H6092 C6118 0.950 . S
H6093 C6120 0.950 . S
H6094 C6123 0.950 . S
H6095 C6124 0.950 . S
H6096 C6126 0.950 . S
H6097 C6127 0.950 . S
C6098 H6080 0.951 . S
C6098 C6099 1.366 . S
C6098 C6100 1.388 . S
C6099 C6098 1.366 . S
C6099 C6103 1.385 . S
C6100 H6081 0.951 . S
C6100 C6098 1.388 . S
C6100 C6101 1.366 . S
C6101 C6100 1.366 . S
C6101 C6102 1.414 . S
C6101 C6104 1.499 . S
C6102 H6082 0.950 . S
C6102 C6101 1.414 . S
C6102 C6103 1.374 . S
C6103 H6083 0.950 . S
C6103 C6099 1.385 . S
C6103 C6102 1.374 . S
C6104 C6101 1.499 . S
C6104 C6105 1.373 . S
C6104 C6106 1.389 . S
C6105 H6084 0.950 . S
C6105 C6104 1.373 . S
C6105 C6121 1.377 . S
C6106 C6104 1.389 . S
C6106 C6107 1.524 . S
C6106 C6120 1.377 . S
C6107 C6106 1.524 . S
C6107 C6108 1.397 . S
C6107 C6112 1.363 . S
C6108 H6085 0.950 . S
C6108 C6107 1.397 . S
C6108 C6109 1.334 . S
C6109 H6086 0.950 . S
C6109 C6108 1.334 . S
C6109 C6110 1.287 . S
C6110 C6109 1.287 . S
C6110 C6111 1.524 . S
C6110 H6129 0.913 . S
C6111 H6087 0.950 . S
C6111 C6110 1.524 . S
C6111 C6112 1.415 . S
C6112 H6088 0.950 . S
C6112 C6107 1.363 . S
C6112 C6111 1.415 . S
C6113 H6089 0.951 . S
C6113 C6114 1.366 . S
C6113 C6115 1.388 . S
C6114 C6113 1.366 . S
C6114 C6118 1.385 . S
C6115 H6090 0.951 . S
C6115 C6113 1.388 . S
C6115 C6116 1.366 . S
C6116 C6115 1.366 . S
C6116 C6117 1.414 . S
C6116 C6119 1.499 . S
C6117 H6091 0.950 . S
C6117 C6116 1.414 . S
C6117 C6118 1.374 . S
C6118 H6092 0.950 . S
C6118 C6114 1.385 . S
C6118 C6117 1.374 . S
C6119 C6116 1.499 . S
C6119 C6120 1.373 . S
C6119 C6121 1.389 . S
C6120 H6093 0.950 . S
C6120 C6106 1.377 . S
C6120 C6119 1.373 . S
C6121 C6105 1.377 . S
C6121 C6119 1.389 . S
C6121 C6122 1.524 . S
C6122 C6121 1.524 . S
C6122 C6123 1.397 . S
C6122 C6127 1.363 . S
C6123 H6094 0.950 . S
C6123 C6122 1.397 . S
C6123 C6124 1.334 . S
C6124 H6095 0.950 . S
C6124 C6123 1.334 . S
C6124 C6125 1.287 . S
C6125 C6124 1.287 . S
C6125 C6126 1.524 . S
C6125 H6128 0.999 . S
C6126 H6096 0.950 . S
C6126 C6125 1.524 . S
C6126 C6127 1.415 . S
C6127 H6097 0.950 . S
C6127 C6122 1.363 . S
C6127 C6126 1.415 . S
H6128 C6125 0.999 . S
H6129 C6110 0.913 . S
H6130 C6148 0.951 . S
H6131 C6150 0.951 . S
H6132 C6152 0.950 . S
H6133 C6153 0.950 . S
H6134 C6155 0.950 . S
H6135 C6158 0.950 . S
H6136 C6159 0.950 . S
H6137 C6161 0.950 . S
H6138 C6162 0.950 . S
H6139 C6163 0.951 . S
H6140 C6165 0.951 . S
H6141 C6167 0.950 . S
H6142 C6168 0.950 . S
H6143 C6170 0.950 . S
H6144 C6173 0.950 . S
H6145 C6174 0.950 . S
H6146 C6176 0.950 . S
H6147 C6177 0.950 . S
C6148 H6130 0.951 . S
C6148 C6149 1.366 . S
C6148 C6150 1.388 . S
C6149 C6148 1.366 . S
C6149 C6153 1.385 . S
C6150 H6131 0.951 . S
C6150 C6148 1.388 . S
C6150 C6151 1.366 . S
C6151 C6150 1.366 . S
C6151 C6152 1.414 . S
C6151 C6154 1.499 . S
C6152 H6132 0.950 . S
C6152 C6151 1.414 . S
C6152 C6153 1.374 . S
C6153 H6133 0.950 . S
C6153 C6149 1.385 . S
C6153 C6152 1.374 . S
C6154 C6151 1.499 . S
C6154 C6155 1.373 . S
C6154 C6156 1.389 . S
C6155 H6134 0.950 . S
C6155 C6154 1.373 . S
C6155 C6171 1.377 . S
C6156 C6154 1.389 . S
C6156 C6157 1.524 . S
C6156 C6170 1.377 . S
C6157 C6156 1.524 . S
C6157 C6158 1.397 . S
C6157 C6162 1.363 . S
C6158 H6135 0.950 . S
C6158 C6157 1.397 . S
C6158 C6159 1.334 . S
C6159 H6136 0.950 . S
C6159 C6158 1.334 . S
C6159 C6160 1.287 . S
C6160 C6159 1.287 . S
C6160 C6161 1.524 . S
C6160 H6179 0.913 . S
C6161 H6137 0.950 . S
C6161 C6160 1.524 . S
C6161 C6162 1.415 . S
C6162 H6138 0.950 . S
C6162 C6157 1.363 . S
C6162 C6161 1.415 . S
C6163 H6139 0.951 . S
C6163 C6164 1.366 . S
C6163 C6165 1.388 1_545 S
C6164 C6163 1.366 . S
C6164 C6168 1.385 1_545 S
C6165 H6140 0.951 . S
C6165 C6163 1.388 1_565 S
C6165 C6166 1.366 . S
C6166 C6165 1.366 . S
C6166 C6167 1.414 . S
C6166 C6169 1.499 . S
C6167 H6141 0.950 . S
C6167 C6166 1.414 . S
C6167 C6168 1.374 . S
C6168 H6142 0.950 . S
C6168 C6164 1.385 1_565 S
C6168 C6167 1.374 . S
C6169 C6166 1.499 . S
C6169 C6170 1.373 . S
C6169 C6171 1.389 . S
C6170 H6143 0.950 . S
C6170 C6156 1.377 . S
C6170 C6169 1.373 . S
C6171 C6155 1.377 . S
C6171 C6169 1.389 . S
C6171 C6172 1.524 . S
C6172 C6171 1.524 . S
C6172 C6173 1.397 . S
C6172 C6177 1.363 . S
C6173 H6144 0.950 . S
C6173 C6172 1.397 . S
C6173 C6174 1.334 . S
C6174 H6145 0.950 . S
C6174 C6173 1.334 . S
C6174 C6175 1.287 . S
C6175 C6174 1.287 . S
C6175 C6176 1.524 . S
C6175 H6178 0.999 . S
C6176 H6146 0.950 . S
C6176 C6175 1.524 . S
C6176 C6177 1.415 . S
C6177 H6147 0.950 . S
C6177 C6172 1.363 . S
C6177 C6176 1.415 . S
H6178 C6175 0.999 . S
H6179 C6160 0.913 . S
H6180 C6198 0.951 . S
H6181 C6200 0.951 . S
H6182 C6202 0.950 . S
H6183 C6203 0.950 . S
H6184 C6205 0.950 . S
H6185 C6208 0.950 . S
H6186 C6209 0.950 . S
H6187 C6211 0.950 . S
H6188 C6212 0.950 . S
H6189 C6213 0.951 . S
H6190 C6215 0.951 . S
H6191 C6217 0.950 . S
H6192 C6218 0.950 . S
H6193 C6220 0.950 . S
H6194 C6223 0.950 . S
H6195 C6224 0.950 . S
H6196 C6226 0.950 . S
H6197 C6227 0.950 . S
C6198 H6180 0.951 . S
C6198 C6199 1.366 . S
C6198 C6200 1.388 . S
C6199 C6198 1.366 . S
C6199 C6203 1.385 . S
C6200 H6181 0.951 . S
C6200 C6198 1.388 . S
C6200 C6201 1.366 . S
C6201 C6200 1.366 . S
C6201 C6202 1.414 . S
C6201 C6204 1.499 . S
C6202 H6182 0.950 . S
C6202 C6201 1.414 . S
C6202 C6203 1.374 . S
C6203 H6183 0.950 . S
C6203 C6199 1.385 . S
C6203 C6202 1.374 . S
C6204 C6201 1.499 . S
C6204 C6205 1.373 . S
C6204 C6206 1.389 . S
C6205 H6184 0.950 . S
C6205 C6204 1.373 . S
C6205 C6221 1.377 . S
C6206 C6204 1.389 . S
C6206 C6207 1.524 . S
C6206 C6220 1.377 . S
C6207 C6206 1.524 . S
C6207 C6208 1.397 . S
C6207 C6212 1.363 . S
C6208 H6185 0.950 . S
C6208 C6207 1.397 . S
C6208 C6209 1.334 . S
C6209 H6186 0.950 . S
C6209 C6208 1.334 . S
C6209 C6210 1.287 . S
C6210 C6209 1.287 . S
C6210 C6211 1.524 . S
C6210 H6229 0.913 . S
C6211 H6187 0.950 . S
C6211 C6210 1.524 . S
C6211 C6212 1.415 . S
C6212 H6188 0.950 . S
C6212 C6207 1.363 . S
C6212 C6211 1.415 . S
C6213 H6189 0.951 . S
C6213 C6214 1.366 . S
C6213 C6215 1.388 . S
C6214 C6213 1.366 . S
C6214 C6218 1.385 . S
C6215 H6190 0.951 . S
C6215 C6213 1.388 . S
C6215 C6216 1.366 . S
C6216 C6215 1.366 . S
C6216 C6217 1.414 . S
C6216 C6219 1.499 . S
C6217 H6191 0.950 . S
C6217 C6216 1.414 . S
C6217 C6218 1.374 . S
C6218 H6192 0.950 . S
C6218 C6214 1.385 . S
C6218 C6217 1.374 . S
C6219 C6216 1.499 . S
C6219 C6220 1.373 . S
C6219 C6221 1.389 . S
C6220 H6193 0.950 . S
C6220 C6206 1.377 . S
C6220 C6219 1.373 . S
C6221 C6205 1.377 . S
C6221 C6219 1.389 . S
C6221 C6222 1.524 . S
C6222 C6221 1.524 . S
C6222 C6223 1.397 . S
C6222 C6227 1.363 . S
C6223 H6194 0.950 . S
C6223 C6222 1.397 . S
C6223 C6224 1.334 . S
C6224 H6195 0.950 . S
C6224 C6223 1.334 . S
C6224 C6225 1.287 . S
C6225 C6224 1.287 . S
C6225 C6226 1.524 . S
C6225 H6228 0.999 . S
C6226 H6196 0.950 . S
C6226 C6225 1.524 . S
C6226 C6227 1.415 . S
C6227 H6197 0.950 . S
C6227 C6222 1.363 . S
C6227 C6226 1.415 . S
H6228 C6225 0.999 . S
H6229 C6210 0.913 . S
H6230 C6248 0.951 . S
H6231 C6250 0.951 . S
H6232 C6252 0.950 . S
H6233 C6253 0.950 . S
H6234 C6255 0.950 . S
H6235 C6258 0.950 . S
H6236 C6259 0.950 . S
H6237 C6261 0.950 . S
H6238 C6262 0.921 1_554 S
H6239 C6263 0.951 . S
H6240 C6265 0.951 . S
H6241 C6267 0.950 . S
H6242 C6268 0.950 . S
H6243 C6270 0.950 1_556 S
H6244 C6273 0.950 . S
H6245 C6274 0.950 . S
H6246 C6276 0.950 . S
H6247 C6277 0.950 . S
C6248 H6230 0.951 . S
C6248 C6249 1.366 . S
C6248 C6250 1.388 . S
C6249 C6248 1.366 . S
C6249 C6253 1.385 . S
C6250 H6231 0.951 . S
C6250 C6248 1.388 . S
C6250 C6251 1.366 . S
C6251 C6250 1.366 . S
C6251 C6252 1.414 . S
C6251 C6254 1.499 . S
C6252 H6232 0.950 . S
C6252 C6251 1.414 . S
C6252 C6253 1.374 . S
C6253 H6233 0.950 . S
C6253 C6249 1.385 . S
C6253 C6252 1.374 . S
C6254 C6251 1.499 . S
C6254 C6255 1.373 . S
C6254 C6256 1.389 . S
C6255 H6234 0.950 . S
C6255 C6254 1.373 . S
C6255 C6271 1.377 . S
C6256 C6254 1.389 . S
C6256 C6257 1.524 1_554 S
C6256 C6270 1.377 . S
C6257 C6256 1.524 1_556 S
C6257 C6258 1.397 . S
C6257 C6262 1.363 . S
C6258 H6235 0.950 . S
C6258 C6257 1.397 . S
C6258 C6259 1.334 . S
C6259 H6236 0.950 . S
C6259 C6258 1.334 . S
C6259 C6260 1.287 . S
C6260 C6259 1.287 . S
C6260 C6261 1.524 . S
C6260 H6279 0.913 . S
C6261 H6237 0.950 . S
C6261 C6260 1.524 . S
C6261 C6262 1.415 . S
C6262 H6238 0.921 1_556 S
C6262 C6257 1.363 . S
C6262 C6261 1.415 . S
C6263 H6239 0.951 . S
C6263 C6264 1.366 . S
C6263 C6265 1.388 . S
C6264 C6263 1.366 . S
C6264 C6268 1.385 . S
C6265 H6240 0.951 . S
C6265 C6263 1.388 . S
C6265 C6266 1.366 . S
C6266 C6265 1.366 . S
C6266 C6267 1.414 . S
C6266 C6269 1.499 . S
C6267 H6241 0.950 . S
C6267 C6266 1.414 . S
C6267 C6268 1.374 . S
C6268 H6242 0.950 . S
C6268 C6264 1.385 . S
C6268 C6267 1.374 . S
C6269 C6266 1.499 . S
C6269 C6270 1.373 . S
C6269 C6271 1.389 . S
C6270 H6243 0.950 1_554 S
C6270 C6256 1.377 . S
C6270 C6269 1.373 . S
C6271 C6255 1.377 . S
C6271 C6269 1.389 . S
C6271 C6272 1.524 . S
C6272 C6271 1.524 . S
C6272 C6273 1.397 . S
C6272 C6277 1.363 . S
C6273 H6244 0.950 . S
C6273 C6272 1.397 . S
C6273 C6274 1.334 . S
C6274 H6245 0.950 . S
C6274 C6273 1.334 . S
C6274 C6275 1.287 . S
C6275 C6274 1.287 . S
C6275 C6276 1.524 . S
C6275 H6278 0.999 . S
C6276 H6246 0.950 . S
C6276 C6275 1.524 . S
C6276 C6277 1.415 . S
C6277 H6247 0.950 . S
C6277 C6272 1.363 . S
C6277 C6276 1.415 . S
H6278 C6275 0.999 . S
H6279 C6260 0.913 . S
H6280 C6298 0.951 . S
H6281 C6300 0.951 . S
H6282 C6302 0.950 . S
H6283 C6303 0.950 . S
H6284 C6305 0.950 . S
H6285 C6308 0.950 . S
H6286 C6309 0.950 . S
H6287 C6311 0.950 . S
H6288 C6312 0.950 . S
H6289 C6313 0.951 . S
H6290 C6315 0.951 . S
H6291 C6317 0.950 . S
H6292 C6318 0.950 . S
H6293 C6320 0.950 . S
H6294 C6323 0.950 . S
H6295 C6324 0.950 . S
H6296 C6326 0.950 . S
H6297 C6327 0.950 . S
C6298 H6280 0.951 . S
C6298 C6299 1.366 . S
C6298 C6300 1.388 . S
C6299 C6298 1.366 . S
C6299 C6303 1.385 . S
C6300 H6281 0.951 . S
C6300 C6298 1.388 . S
C6300 C6301 1.366 . S
C6301 C6300 1.366 . S
C6301 C6302 1.414 . S
C6301 C6304 1.499 . S
C6302 H6282 0.950 . S
C6302 C6301 1.414 . S
C6302 C6303 1.374 . S
C6303 H6283 0.950 . S
C6303 C6299 1.385 . S
C6303 C6302 1.374 . S
C6304 C6301 1.499 . S
C6304 C6305 1.373 . S
C6304 C6306 1.389 . S
C6305 H6284 0.950 . S
C6305 C6304 1.373 . S
C6305 C6321 1.377 . S
C6306 C6304 1.389 . S
C6306 C6307 1.524 . S
C6306 C6320 1.377 . S
C6307 C6306 1.524 . S
C6307 C6308 1.397 . S
C6307 C6312 1.363 . S
C6308 H6285 0.950 . S
C6308 C6307 1.397 . S
C6308 C6309 1.334 . S
C6309 H6286 0.950 . S
C6309 C6308 1.334 . S
C6309 C6310 1.287 . S
C6310 C6309 1.287 . S
C6310 C6311 1.524 . S
C6310 H6329 0.913 . S
C6311 H6287 0.950 . S
C6311 C6310 1.524 . S
C6311 C6312 1.415 . S
C6312 H6288 0.950 . S
C6312 C6307 1.363 . S
C6312 C6311 1.415 . S
C6313 H6289 0.951 . S
C6313 C6314 1.366 . S
C6313 C6315 1.388 . S
C6314 C6313 1.366 . S
C6314 C6318 1.385 . S
C6315 H6290 0.951 . S
C6315 C6313 1.388 . S
C6315 C6316 1.366 . S
C6316 C6315 1.366 . S
C6316 C6317 1.414 . S
C6316 C6319 1.499 . S
C6317 H6291 0.950 . S
C6317 C6316 1.414 . S
C6317 C6318 1.374 . S
C6318 H6292 0.950 . S
C6318 C6314 1.385 . S
C6318 C6317 1.374 . S
C6319 C6316 1.499 . S
C6319 C6320 1.373 . S
C6319 C6321 1.389 . S
C6320 H6293 0.950 . S
C6320 C6306 1.377 . S
C6320 C6319 1.373 . S
C6321 C6305 1.377 . S
C6321 C6319 1.389 . S
C6321 C6322 1.524 . S
C6322 C6321 1.524 . S
C6322 C6323 1.397 . S
C6322 C6327 1.363 . S
C6323 H6294 0.950 . S
C6323 C6322 1.397 . S
C6323 C6324 1.334 . S
C6324 H6295 0.950 . S
C6324 C6323 1.334 . S
C6324 C6325 1.287 . S
C6325 C6324 1.287 . S
C6325 C6326 1.524 . S
C6325 H6328 0.999 . S
C6326 H6296 0.950 . S
C6326 C6325 1.524 . S
C6326 C6327 1.415 . S
C6327 H6297 0.950 . S
C6327 C6322 1.363 . S
C6327 C6326 1.415 . S
H6328 C6325 0.999 . S
H6329 C6310 0.913 . S
H6330 C6348 0.951 . S
H6331 C6350 0.951 . S
H6332 C6352 0.950 . S
H6333 C6353 0.950 . S
H6334 C6355 0.950 . S
H6335 C6358 0.950 . S
H6336 C6359 0.950 . S
H6337 C6361 0.950 . S
H6338 C6362 0.950 . S
H6339 C6363 0.951 . S
H6340 C6365 0.951 . S
H6341 C6367 0.950 . S
H6342 C6368 0.950 . S
H6343 C6370 0.950 . S
H6344 C6373 0.950 . S
H6345 C6374 0.950 . S
H6346 C6376 0.950 . S
H6347 C6377 0.950 . S
C6348 H6330 0.951 . S
C6348 C6349 1.366 . S
C6348 C6350 1.388 . S
C6349 C6348 1.366 . S
C6349 C6353 1.385 . S
C6350 H6331 0.951 . S
C6350 C6348 1.388 . S
C6350 C6351 1.366 . S
C6351 C6350 1.366 . S
C6351 C6352 1.414 . S
C6351 C6354 1.499 . S
C6352 H6332 0.950 . S
C6352 C6351 1.414 . S
C6352 C6353 1.374 . S
C6353 H6333 0.950 . S
C6353 C6349 1.385 . S
C6353 C6352 1.374 . S
C6354 C6351 1.499 . S
C6354 C6355 1.373 . S
C6354 C6356 1.389 . S
C6355 H6334 0.950 . S
C6355 C6354 1.373 . S
C6355 C6371 1.377 . S
C6356 C6354 1.389 . S
C6356 C6357 1.524 . S
C6356 C6370 1.377 . S
C6357 C6356 1.524 . S
C6357 C6358 1.397 1_554 S
C6357 C6362 1.363 . S
C6358 H6335 0.950 . S
C6358 C6357 1.397 1_556 S
C6358 C6359 1.334 . S
C6359 H6336 0.950 . S
C6359 C6358 1.334 . S
C6359 C6360 1.287 . S
C6360 C6359 1.287 . S
C6360 C6361 1.524 . S
C6360 H6379 0.913 . S
C6361 H6337 0.950 . S
C6361 C6360 1.524 . S
C6361 C6362 1.415 1_556 S
C6362 H6338 0.950 . S
C6362 C6357 1.363 . S
C6362 C6361 1.415 1_554 S
C6363 H6339 0.951 . S
C6363 C6364 1.366 . S
C6363 C6365 1.388 . S
C6364 C6363 1.366 . S
C6364 C6368 1.385 . S
C6365 H6340 0.951 . S
C6365 C6363 1.388 . S
C6365 C6366 1.366 . S
C6366 C6365 1.366 . S
C6366 C6367 1.414 . S
C6366 C6369 1.499 . S
C6367 H6341 0.950 . S
C6367 C6366 1.414 . S
C6367 C6368 1.374 . S
C6368 H6342 0.950 . S
C6368 C6364 1.385 . S
C6368 C6367 1.374 . S
C6369 C6366 1.499 . S
C6369 C6370 1.373 . S
C6369 C6371 1.389 . S
C6370 H6343 0.950 . S
C6370 C6356 1.377 . S
C6370 C6369 1.373 . S
C6371 C6355 1.377 . S
C6371 C6369 1.389 . S
C6371 C6372 1.524 . S
C6372 C6371 1.524 . S
C6372 C6373 1.397 . S
C6372 C6377 1.363 . S
C6373 H6344 0.950 . S
C6373 C6372 1.397 . S
C6373 C6374 1.334 . S
C6374 H6345 0.950 . S
C6374 C6373 1.334 . S
C6374 C6375 1.287 . S
C6375 C6374 1.287 . S
C6375 C6376 1.524 . S
C6375 H6378 0.999 . S
C6376 H6346 0.950 . S
C6376 C6375 1.524 . S
C6376 C6377 1.415 . S
C6377 H6347 0.950 . S
C6377 C6372 1.363 . S
C6377 C6376 1.415 . S
H6378 C6375 0.999 . S
H6379 C6360 0.913 . S
H6380 C6398 0.951 . S
H6381 C6400 0.951 . S
H6382 C6402 0.950 . S
H6383 C6403 0.950 1_545 S
H6384 C6405 0.950 . S
H6385 C6408 0.950 . S
H6386 C6409 0.950 . S
H6387 C6411 0.950 . S
H6388 C6412 0.950 . S
H6389 C6413 0.951 . S
H6390 C6415 0.951 . S
H6391 C6417 0.950 . S
H6392 C6418 0.950 . S
H6393 C6420 0.950 . S
H6394 C6423 0.950 . S
H6395 C6424 0.950 . S
H6396 C6426 0.950 . S
H6397 C6427 0.950 . S
C6398 H6380 0.951 . S
C6398 C6399 1.366 . S
C6398 C6400 1.388 1_545 S
C6399 C6398 1.366 . S
C6399 C6403 1.385 1_545 S
C6400 H6381 0.951 . S
C6400 C6398 1.388 1_565 S
C6400 C6401 1.366 . S
C6401 C6400 1.366 . S
C6401 C6402 1.414 . S
C6401 C6404 1.499 . S
C6402 H6382 0.950 . S
C6402 C6401 1.414 . S
C6402 C6403 1.374 . S
C6403 H6383 0.950 1_565 S
C6403 C6399 1.385 1_565 S
C6403 C6402 1.374 . S
C6404 C6401 1.499 . S
C6404 C6405 1.373 . S
C6404 C6406 1.389 . S
C6405 H6384 0.950 . S
C6405 C6404 1.373 . S
C6405 C6421 1.377 . S
C6406 C6404 1.389 . S
C6406 C6407 1.524 . S
C6406 C6420 1.377 . S
C6407 C6406 1.524 . S
C6407 C6408 1.397 . S
C6407 C6412 1.363 . S
C6408 H6385 0.950 . S
C6408 C6407 1.397 . S
C6408 C6409 1.334 . S
C6409 H6386 0.950 . S
C6409 C6408 1.334 . S
C6409 C6410 1.287 . S
C6410 C6409 1.287 . S
C6410 C6411 1.524 . S
C6410 H6429 0.913 . S
C6411 H6387 0.950 . S
C6411 C6410 1.524 . S
C6411 C6412 1.415 . S
C6412 H6388 0.950 . S
C6412 C6407 1.363 . S
C6412 C6411 1.415 . S
C6413 H6389 0.951 . S
C6413 C6414 1.366 . S
C6413 C6415 1.388 . S
C6414 C6413 1.366 . S
C6414 C6418 1.385 . S
C6415 H6390 0.951 . S
C6415 C6413 1.388 . S
C6415 C6416 1.366 . S
C6416 C6415 1.366 . S
C6416 C6417 1.414 . S
C6416 C6419 1.499 . S
C6417 H6391 0.950 . S
C6417 C6416 1.414 . S
C6417 C6418 1.374 . S
C6418 H6392 0.950 . S
C6418 C6414 1.385 . S
C6418 C6417 1.374 . S
C6419 C6416 1.499 . S
C6419 C6420 1.373 . S
C6419 C6421 1.389 . S
C6420 H6393 0.950 . S
C6420 C6406 1.377 . S
C6420 C6419 1.373 . S
C6421 C6405 1.377 . S
C6421 C6419 1.389 . S
C6421 C6422 1.524 . S
C6422 C6421 1.524 . S
C6422 C6423 1.397 . S
C6422 C6427 1.363 . S
C6423 H6394 0.950 . S
C6423 C6422 1.397 . S
C6423 C6424 1.334 . S
C6424 H6395 0.950 . S
C6424 C6423 1.334 . S
C6424 C6425 1.287 . S
C6425 C6424 1.287 . S
C6425 C6426 1.524 . S
C6425 H6428 0.999 . S
C6426 H6396 0.950 . S
C6426 C6425 1.524 . S
C6426 C6427 1.415 . S
C6427 H6397 0.950 . S
C6427 C6422 1.363 . S
C6427 C6426 1.415 . S
H6428 C6425 0.999 . S
H6429 C6410 0.913 . S
H6430 C6448 0.951 . S
H6431 C6450 0.951 . S
H6432 C6452 0.950 . S
H6433 C6453 0.950 . S
H6434 C6455 0.950 . S
H6435 C6458 0.950 . S
H6436 C6459 0.950 . S
H6437 C6461 0.950 . S
H6438 C6462 0.950 . S
H6439 C6463 0.951 . S
H6440 C6465 0.951 . S
H6441 C6467 0.950 . S
H6442 C6468 0.950 . S
H6443 C6470 0.950 . S
H6444 C6473 0.950 . S
H6445 C6474 0.950 . S
H6446 C6476 0.950 . S
H6447 C6477 0.950 . S
C6448 H6430 0.951 . S
C6448 C6449 1.366 . S
C6448 C6450 1.388 . S
C6449 C6448 1.366 . S
C6449 C6453 1.385 . S
C6450 H6431 0.951 . S
C6450 C6448 1.388 . S
C6450 C6451 1.366 . S
C6451 C6450 1.366 . S
C6451 C6452 1.414 . S
C6451 C6454 1.499 . S
C6452 H6432 0.950 . S
C6452 C6451 1.414 . S
C6452 C6453 1.374 . S
C6453 H6433 0.950 . S
C6453 C6449 1.385 . S
C6453 C6452 1.374 . S
C6454 C6451 1.499 . S
C6454 C6455 1.373 . S
C6454 C6456 1.389 . S
C6455 H6434 0.950 . S
C6455 C6454 1.373 . S
C6455 C6471 1.377 . S
C6456 C6454 1.389 . S
C6456 C6457 1.524 . S
C6456 C6470 1.377 . S
C6457 C6456 1.524 . S
C6457 C6458 1.397 . S
C6457 C6462 1.363 . S
C6458 H6435 0.950 . S
C6458 C6457 1.397 . S
C6458 C6459 1.334 . S
C6459 H6436 0.950 . S
C6459 C6458 1.334 . S
C6459 C6460 1.287 . S
C6460 C6459 1.287 . S
C6460 C6461 1.524 . S
C6460 H6479 0.913 . S
C6461 H6437 0.950 . S
C6461 C6460 1.524 . S
C6461 C6462 1.415 . S
C6462 H6438 0.950 . S
C6462 C6457 1.363 . S
C6462 C6461 1.415 . S
C6463 H6439 0.951 . S
C6463 C6464 1.366 . S
C6463 C6465 1.388 . S
C6464 C6463 1.366 . S
C6464 C6468 1.385 . S
C6465 H6440 0.951 . S
C6465 C6463 1.388 . S
C6465 C6466 1.366 . S
C6466 C6465 1.366 . S
C6466 C6467 1.414 . S
C6466 C6469 1.499 . S
C6467 H6441 0.950 . S
C6467 C6466 1.414 . S
C6467 C6468 1.374 . S
C6468 H6442 0.950 . S
C6468 C6464 1.385 . S
C6468 C6467 1.374 . S
C6469 C6466 1.499 . S
C6469 C6470 1.373 . S
C6469 C6471 1.389 . S
C6470 H6443 0.950 . S
C6470 C6456 1.377 . S
C6470 C6469 1.373 . S
C6471 C6455 1.377 . S
C6471 C6469 1.389 . S
C6471 C6472 1.524 . S
C6472 C6471 1.524 . S
C6472 C6473 1.397 . S
C6472 C6477 1.363 . S
C6473 H6444 0.950 . S
C6473 C6472 1.397 . S
C6473 C6474 1.334 . S
C6474 H6445 0.950 . S
C6474 C6473 1.334 . S
C6474 C6475 1.287 . S
C6475 C6474 1.287 . S
C6475 C6476 1.524 . S
C6475 H6478 0.999 . S
C6476 H6446 0.950 . S
C6476 C6475 1.524 . S
C6476 C6477 1.415 . S
C6477 H6447 0.950 . S
C6477 C6472 1.363 . S
C6477 C6476 1.415 . S
H6478 C6475 0.999 . S
H6479 C6460 0.913 . S
C1699 C111 1.522 . S
C1714 C392 1.416 . S
C1749 C64 2.162 . S
C1764 C483 2.179 . S
C1799 C77 1.347 . S
C1814 C560 1.268 . S
C1864 C658 1.365 . S
C1849 C95 1.499 . S
C1899 C25 1.383 . S
C1914 C742 1.305 . S
C1964 C814 0.902 . S
C1949 C36 0.941 . S
C2014 C903 0.638 . S
C1999 C50 0.662 . S
C2049 C11 1.174 . S
C2064 C980 1.046 . S
C2114 C399 1.869 . S
C2099 C237 1.865 . S
C2149 C245 0.493 . S
C2164 C490 0.583 . S
C2214 C567 1.040 . S
C2199 C279 0.998 . S
C2264 C644 1.402 . S
C2249 C175 1.497 1_556 S
C2299 C231 1.863 . S
C2314 C728 1.737 . S
C2364 C830 0.979 . S
C2349 C251 0.985 . S
C2414 C910 0.699 . S
C2399 C273 0.676 . S
C2464 C987 1.255 . S
C2449 C181 1.306 . S
C2514 C406 1.310 . S
C2499 C165 1.406 . S
C2549 C288 1.950 . S
C2564 C1071 1.941 . S
C2614 C1159 2.079 . S
C2599 C333 2.251 . S
C2664 C1232 0.510 . S
C2649 C316 0.355 . S
C2699 C123 0.536 . S
C2714 C994 0.569 . S
C2749 C137 1.319 . S
C2764 C574 1.249 . S
C2799 C330 2.269 . S
C2814 C1323 2.267 . S
C2864 C1400 0.681 . S
C2849 C302 0.666 . S
C2914 C403 1.572 1_565 S
C2899 C63 1.697 . S
C2964 C1418 2.214 . S
C2949 C106 2.266 . S
C2999 C97 1.416 . S
C3014 C571 1.380 . S
C3049 C81 1.577 . S
C3064 C1318 1.434 . S
C3114 C730 1.421 . S
C3099 C13 1.401 . S
C3149 C55 0.914 . S
C3164 C1162 0.890 . S
C3214 C914 0.706 . S
C3199 C35 0.708 . S
C3264 C1495 1.269 . S
C3249 C21 1.390 . S
C3314 C410 2.014 . S
C3299 C147 2.116 . S
C3364 C1402 0.609 . S
C3349 C321 0.583 . S
C3399 C119 1.121 . S
C3414 C578 1.092 . S
C3449 C293 1.574 . S
C3464 C1327 1.548 . S
C3499 C153 1.897 . S
C3514 C739 1.931 . S
C3564 C1155 1.029 . S
C3549 C315 1.091 . S
C3599 C125 0.712 . S
C3614 C898 0.724 . S
C3649 C287 1.519 . S
C3664 C1502 1.415 . S
C3699 C193 1.465 . S
C3714 C394 1.369 . S
C3749 C176 2.027 . S
C3764 C1082 1.983 . S
C3799 C263 2.214 . S
C3814 C812 2.044 . S
C3849 C246 0.532 . S
C3864 C1243 0.522 . S
C3914 C1486 0.642 . S
C3899 C277 0.630 . S
C3949 C221 1.330 . S
C3964 C562 1.276 . S
C4014 C662 2.338 . S
C3999 C260 2.363 . S
C4064 C487 0.811 . S
C4049 C204 0.816 . S
C4099 C83 1.521 . S
C4114 C1568 1.415 . S
C4164 C1407 2.179 . S
C4149 C92 2.162 . S
C4199 C105 1.347 . S
C4214 C1652 1.270 . S
C4249 C67 1.500 . S
C4264 C1330 1.365 . S
C4299 C53 1.383 . S
C4314 C1078 1.304 . S
C4364 C1150 0.903 . S
C4349 C8 0.941 . S
C4414 C1239 0.637 . S
C4399 C22 0.664 . S
C4464 C1484 1.048 . S
C4449 C39 1.174 . S
C4514 C1575 1.869 . S
C4499 C265 1.865 . S
C4549 C189 0.492 . S
C4564 C1414 0.584 . S
C4614 C1659 1.040 . S
C4599 C209 0.998 . S
C4664 C1316 1.402 . S
C4649 C217 1.498 . S
C4714 C1064 1.736 . S
C4699 C259 1.863 . S
C4749 C195 0.986 . S
C4764 C1166 0.980 . S
C4814 C1246 0.700 . S
C4799 C203 0.676 . S
C4849 C223 1.306 . S
C4864 C1491 1.256 . S
C4914 C1582 1.311 . S
C4899 C319 1.407 . S
C4949 C134 1.950 . S
C4964 C735 1.944 . S
C5014 C823 2.079 . S
C4999 C151 2.258 . S
C5064 C896 0.510 . S
C5049 C162 0.354 . S
C5114 C1498 0.569 . S
C5099 C305 0.536 . S
C5149 C291 1.318 1_554 S
C5164 C1666 1.243 . S
C5214 C651 2.264 . S
C5199 C148 2.262 . S
C5264 C476 0.681 . S
C5249 C120 0.666 . S
C5299 C91 1.698 . S
C5314 C1579 1.574 . S
C5364 C494 2.215 . S
C5349 C78 2.267 . S
C5399 C69 1.415 . S
C5414 C1663 1.380 . S
C5449 C109 1.577 . S
C5464 C646 1.435 . S
C5499 C41 1.401 . S
C5514 C1066 1.421 . S
C5564 C826 0.887 . S
C5549 C27 0.916 . S
C5599 C7 0.709 . S
C5614 C1250 0.705 . S
C5649 C49 1.391 . S
C5664 C991 1.271 . S
C5714 C1586 2.013 . S
C5699 C329 2.116 . S
C5749 C167 0.579 . S
C5764 C478 0.612 . S
C5814 C1670 1.091 . S
C5799 C301 1.121 . S
C5849 C139 1.575 . S
C5864 C655 1.556 . S
C5899 C335 1.897 . S
C5914 C1075 1.933 . S
C5964 C819 1.028 . S
C5949 C161 1.090 . S
C5999 C307 0.712 . S
C6014 C1234 0.712 1_655 S
C6064 C998 1.409 . S
C6049 C133 1.519 . S
C6114 C1570 1.370 . S
C6099 C249 1.465 . S
C6164 C746 1.983 1_655 S
C6149 C218 2.027 . S
C6199 C235 2.214 . S
C6214 C1148 2.044 . S
C6264 C907 0.520 . S
C6249 C190 0.532 . S
C6299 C207 0.628 . S
C6314 C982 0.643 . S
C6349 C179 1.331 . S
C6364 C1654 1.275 . S
C6414 C1334 2.338 . S
C6399 C232 2.363 . S
C6464 C1411 0.813 . S
C6449 C274 0.817 . S
