# Generated by pormake.
# Topology zzz, (3,6)-cn, num edge types: 1
# Building blocks:
#     Node 0, Type 0, BuildingBlock: OLANEW_clean_sbu_2, # of connection points: 3
#     Node 1, Type 0, BuildingBlock: OLANEW_clean_sbu_2, # of connection points: 3
#     Node 2, Type 0, BuildingBlock: OLANEW_clean_sbu_2, # of connection points: 3
#     Node 3, Type 0, BuildingBlock: OLANEW_clean_sbu_2, # of connection points: 3
#     Node 4, Type 0, BuildingBlock: OLANEW_clean_sbu_2, # of connection points: 3
#     Node 5, Type 0, BuildingBlock: OLANEW_clean_sbu_2, # of connection points: 3
#     Node 6, Type 0, BuildingBlock: OLANEW_clean_sbu_2, # of connection points: 3
#     Node 7, Type 0, BuildingBlock: OLANEW_clean_sbu_2, # of connection points: 3
#     Node 8, Type 1, BuildingBlock: BETDAH_clean_sbu_0, # of connection points: 6
#     Node 9, Type 1, BuildingBlock: BETDAH_clean_sbu_0, # of connection points: 6
#     Node 10, Type 1, BuildingBlock: BETDAH_clean_sbu_0, # of connection points: 6
#     Node 11, Type 1, BuildingBlock: BETDAH_clean_sbu_0, # of connection points: 6
#     Edge 12, Type (0, 1), BuildingBlock: OJICUG_clean_linker_0, # of connection points: 2
#     Edge 13, Type (0, 1), BuildingBlock: OJICUG_clean_linker_0, # of connection points: 2
#     Edge 14, Type (0, 1), BuildingBlock: OJICUG_clean_linker_0, # of connection points: 2
#     Edge 15, Type (0, 1), BuildingBlock: OJICUG_clean_linker_0, # of connection points: 2
#     Edge 16, Type (0, 1), BuildingBlock: OJICUG_clean_linker_0, # of connection points: 2
#     Edge 17, Type (0, 1), BuildingBlock: OJICUG_clean_linker_0, # of connection points: 2
#     Edge 18, Type (0, 1), BuildingBlock: OJICUG_clean_linker_0, # of connection points: 2
#     Edge 19, Type (0, 1), BuildingBlock: OJICUG_clean_linker_0, # of connection points: 2
#     Edge 20, Type (0, 1), BuildingBlock: OJICUG_clean_linker_0, # of connection points: 2
#     Edge 21, Type (0, 1), BuildingBlock: OJICUG_clean_linker_0, # of connection points: 2
#     Edge 22, Type (0, 1), BuildingBlock: OJICUG_clean_linker_0, # of connection points: 2
#     Edge 23, Type (0, 1), BuildingBlock: OJICUG_clean_linker_0, # of connection points: 2
#     Edge 24, Type (0, 1), BuildingBlock: OJICUG_clean_linker_0, # of connection points: 2
#     Edge 25, Type (0, 1), BuildingBlock: OJICUG_clean_linker_0, # of connection points: 2
#     Edge 26, Type (0, 1), BuildingBlock: OJICUG_clean_linker_0, # of connection points: 2
#     Edge 27, Type (0, 1), BuildingBlock: OJICUG_clean_linker_0, # of connection points: 2
#     Edge 28, Type (0, 1), BuildingBlock: OJICUG_clean_linker_0, # of connection points: 2
#     Edge 29, Type (0, 1), BuildingBlock: OJICUG_clean_linker_0, # of connection points: 2
#     Edge 30, Type (0, 1), BuildingBlock: OJICUG_clean_linker_0, # of connection points: 2
#     Edge 31, Type (0, 1), BuildingBlock: OJICUG_clean_linker_0, # of connection points: 2
#     Edge 32, Type (0, 1), BuildingBlock: OJICUG_clean_linker_0, # of connection points: 2
#     Edge 33, Type (0, 1), BuildingBlock: OJICUG_clean_linker_0, # of connection points: 2
#     Edge 34, Type (0, 1), BuildingBlock: OJICUG_clean_linker_0, # of connection points: 2
#     Edge 35, Type (0, 1), BuildingBlock: OJICUG_clean_linker_0, # of connection points: 2
# Relax obj value: 0.306
# Max RMSD: 0.210
# Mean RMSD: 0.176
data_MOF--net-zzz--node1-OLANEW_clean_sbu_2--node2-BETDAH_clean_sbu_0--edge1-OJICUG_clean_linker_0
_symmetry_space_group_name_H-M    P1
_symmetry_Int_Tables_number       1
_symmetry_cell_setting            triclinic
loop_
_symmetry_equiv_pos_as_xyz
'x, y, z'
_cell_length_a     42.408278
_cell_length_b     42.412009
_cell_length_c     11.429061
_cell_angle_alpha  89.723579
_cell_angle_beta   89.854595
_cell_angle_gamma 90.0155
loop_
_atom_site_label
_atom_site_type_symbol
_atom_site_fract_x
_atom_site_fract_y
_atom_site_fract_z
_atom_type_partial_charge
O0 O 0.7045 0.63728 0.22849 0.0
Cd1 Cd 0.65075 0.65544 0.2654 0.0
O2 O 0.69052 0.5927 0.3129 0.0
Cd3 Cd 0.70732 0.54666 0.37307 0.0
O4 O 0.75221 0.5251 0.42169 0.0
C5 C 0.76705 0.53994 0.50056 0.0
O6 O 0.7537 0.56474 0.54821 0.0
C7 C 0.71096 0.60916 0.25853 0.0
C8 C 0.61138 0.62154 0.11695 0.0
O9 O 0.6232 0.64806 0.08518 0.0
O10 O 0.6173 0.61158 0.22064 0.0
O11 O 0.86391 0.71998 0.18533 0.0
Cd12 Cd 0.84085 0.66774 0.2112 0.0
O13 O 0.90617 0.70186 0.27455 0.0
Cd14 Cd 0.95273 0.71517 0.33976 0.0
O15 O 0.97662 0.75869 0.39 0.0
C16 C 0.96258 0.77428 0.46917 0.0
O17 O 0.93701 0.76232 0.51709 0.0
C18 C 0.89206 0.72389 0.21996 0.0
C19 C 0.87428 0.62781 0.06307 0.0
O20 O 0.84923 0.64183 0.02811 0.0
O21 O 0.88281 0.63173 0.16952 0.0
O22 O 0.79692 0.87562 0.21289 0.0
Cd23 Cd 0.84942 0.8526 0.21439 0.0
O24 O 0.80634 0.89996 0.37903 0.0
Cd25 Cd 0.78574 0.93051 0.51268 0.0
O26 O 0.74191 0.95307 0.56849 0.0
C27 C 0.72982 0.94714 0.66786 0.0
O28 O 0.74503 0.92862 0.7409 0.0
C29 C 0.78838 0.89459 0.29246 0.0
C30 C 0.88623 0.88652 0.0553 0.0
O31 O 0.87078 0.86207 0.02339 0.0
O32 O 0.88492 0.89447 0.16326 0.0
O33 O 0.62274 0.77601 0.33548 0.0
Cd34 Cd 0.64391 0.82845 0.37139 0.0
O35 O 0.57683 0.79569 0.38645 0.0
Cd36 Cd 0.52734 0.78583 0.42589 0.0
O37 O 0.50376 0.74222 0.47709 0.0
C38 C 0.5175 0.72811 0.56088 0.0
O39 O 0.54171 0.74186 0.61094 0.0
C40 C 0.59319 0.77273 0.34854 0.0
C41 C 0.61283 0.86981 0.22083 0.0
O42 O 0.63775 0.85511 0.18864 0.0
O43 O 0.60297 0.86561 0.32586 0.0
O44 O 0.24615 0.44879 0.36172 0.0
Cd45 Cd 0.30047 0.43254 0.3246 0.0
O46 O 0.23791 0.4474 0.17267 0.0
Cd47 Cd 0.20694 0.44899 0.02063 0.0
O48 O 0.16278 0.45788 0.93022 0.0
C49 C 0.1381 0.44771 0.98093 0.0
O50 O 0.14099 0.43079 0.07692 0.0
C51 C 0.22765 0.45253 0.27562 0.0
C52 C 0.34213 0.46508 0.46798 0.0
O53 O 0.33571 0.47531 0.36505 0.0
O54 O 0.32902 0.43941 0.50227 0.0
O55 O 0.03604 0.25528 0.32163 0.0
Cd56 Cd 0.05351 0.30945 0.28673 0.0
O57 O 0.0467 0.24495 0.13812 0.0
Cd58 Cd 0.05322 0.21232 0.99319 0.0
O59 O 0.05017 0.16791 0.89971 0.0
C60 C 0.06148 0.14362 0.94968 0.0
O61 O 0.07577 0.14686 0.05081 0.0
C62 C 0.03687 0.23572 0.23788 0.0
C63 C 0.02182 0.35209 0.42956 0.0
O64 O 0.01182 0.34605 0.3263 0.0
O65 O 0.04682 0.33802 0.46483 0.0
O66 O 0.26186 0.01675 0.25518 0.0
Cd67 Cd 0.20884 0.03139 0.19229 0.0
O68 O 0.2741 0.06682 0.23713 0.0
Cd69 Cd 0.31225 0.10093 0.22441 0.0
O70 O 0.36021 0.09072 0.16972 0.0
C71 C 0.36253 0.07287 0.08109 0.0
O72 O 0.33677 0.06456 0.02552 0.0
C73 C 0.28203 0.03874 0.26327 0.0
C74 C 0.16358 0.00746 0.34532 0.0
O75 O 0.17054 0.99282 0.25086 0.0
O76 O 0.17784 0.03344 0.36663 0.0
O77 O 0.47679 0.24465 0.39908 0.0
Cd78 Cd 0.4597 0.19064 0.3618 0.0
O79 O 0.44957 0.25707 0.24308 0.0
Cd80 Cd 0.42943 0.29199 0.12484 0.0
O81 O 0.42994 0.3395 0.05406 0.0
C82 C 0.44923 0.34586 0.97217 0.0
O83 O 0.46596 0.32295 0.92625 0.0
C84 C 0.46718 0.26545 0.32738 0.0
C85 C 0.48724 0.14813 0.51662 0.0
O86 O 0.49965 0.15345 0.41606 0.0
O87 O 0.46182 0.16281 0.54327 0.0
Ho88 Ho 0.0238 0.94589 0.81694 0.0
Ho89 Ho 0.00563 0.97245 0.57171 0.0
C90 C 0.00128 0.89934 0.60626 0.0
C91 C 0.02141 0.91514 0.01143 0.0
C92 C 0.00262 0.88728 0.04512 0.0
C93 C 0.98548 0.88706 0.15032 0.0
C94 C 0.96611 0.86141 0.17906 0.0
C95 C 0.96379 0.83546 0.10327 0.0
C96 C 0.98048 0.8362 0.99686 0.0
C97 C -0.00029 0.86173 0.96828 0.0
C98 C 0.07211 0.95774 0.67119 0.0
C99 C 0.02971 0.01948 0.78294 0.0
C100 C 0.00271 0.004 0.37795 0.0
C101 C 0.00283 0.0381 0.35345 0.0
C102 C 0.0124 0.04952 0.24379 0.0
C103 C 0.01482 0.08203 0.22392 0.0
C104 C 0.00833 0.10362 0.31397 0.0
C105 C 0.9978 0.09199 0.42263 0.0
C106 C 0.99489 0.05956 0.44183 0.0
C107 C 0.95757 0.95977 0.72024 0.0
O108 O 0.00114 0.90555 0.71975 0.0
O109 O 0.00808 0.92119 0.52704 0.0
O110 O 0.04352 0.91068 0.9328 0.0
O111 O 0.00506 0.94077 0.9922 0.0
O112 O 0.07398 0.96065 0.78411 0.0
O113 O 0.04579 0.94636 0.64289 0.0
O114 O 0.02329 0.01518 0.67054 0.0
O115 O 0.02859 0.99651 0.86117 0.0
O116 O 0.97785 0.99328 0.43325 0.0
O117 O 0.02903 0.99263 0.42024 0.0
O118 O 0.95593 0.95597 0.60779 0.0
O119 O 0.98379 0.97179 0.74546 0.0
H120 H 0.98695 0.9068 0.20991 0.0
H121 H 0.95346 0.86164 0.26145 0.0
H122 H 0.97856 0.81706 0.93486 0.0
H123 H 0.01213 0.86147 0.88543 0.0
H124 H 0.01852 0.03333 0.17428 0.0
H125 H 0.02267 0.09027 0.13925 0.0
H126 H 0.99194 0.10795 0.4931 0.0
H127 H 0.98687 0.05118 0.52643 0.0
Ho128 Ho 0.55536 0.01329 0.9916 0.0
Ho129 Ho 0.53121 0.99495 0.74354 0.0
C130 C 0.60444 0.99015 0.78788 0.0
C131 C 0.58499 0.01243 0.18745 0.0
C132 C 0.61531 0.99733 0.21788 0.0
C133 C 0.61576 0.97016 0.2888 0.0
C134 C 0.64376 0.95327 0.30479 0.0
C135 C 0.67184 0.96353 0.25131 0.0
C136 C 0.67155 0.99121 0.18354 0.0
C137 C 0.64363 0.00791 0.16684 0.0
C138 C 0.54368 0.06154 0.84499 0.0
C139 C 0.48258 0.01971 0.94855 0.0
C140 C 0.50291 0.9914 0.54379 0.0
C141 C 0.47139 0.99923 0.49624 0.0
C142 C 0.46109 0.03059 0.48445 0.0
C143 C 0.43087 0.0372 0.44195 0.0
C144 C 0.41017 0.01265 0.41067 0.0
C145 C 0.42082 0.98135 0.42099 0.0
C146 C 0.45109 0.97477 0.46256 0.0
C147 C 0.54412 0.94691 0.89142 0.0
O148 O 0.59764 0.99242 0.90066 0.0
O149 O 0.58304 0.99484 0.70542 0.0
O150 O 0.58634 0.03627 0.11418 0.0
O151 O 0.56186 0.99304 0.16387 0.0
O152 O 0.53964 0.06309 0.95755 0.0
O153 O 0.55582 0.03547 0.81769 0.0
O154 O 0.48852 0.01562 0.83543 0.0
O155 O 0.50421 0.01571 0.0302 0.0
O156 O 0.50378 0.96821 0.61967 0.0
O157 O 0.52143 0.01484 0.57265 0.0
O158 O 0.54868 0.9457 0.77922 0.0
O159 O 0.53119 0.9727 0.91703 0.0
H160 H 0.59428 0.96149 0.32917 0.0
H161 H 0.64345 0.93219 0.35865 0.0
H162 H 0.69277 -0.00053 0.14025 0.0
H163 H 0.64418 0.02858 0.11088 0.0
H164 H 0.47623 0.05006 0.50866 0.0
H165 H 0.42382 0.06163 0.43338 0.0
H166 H 0.40555 0.96175 0.39964 0.0
H167 H 0.45848 0.95038 0.47005 0.0
Ho168 Ho 0.47624 0.54832 0.9068 0.0
Ho169 Ho 0.49329 0.52761 0.65198 0.0
C170 C 0.48903 0.60003 0.69724 0.0
C171 C 0.47868 0.57536 0.10814 0.0
C172 C 0.49518 0.604 0.14709 0.0
C173 C 0.51051 0.60459 0.25573 0.0
C174 C 0.52764 0.63128 0.28969 0.0
C175 C 0.5297 0.65774 0.21522 0.0
C176 C 0.51476 0.65665 0.10561 0.0
C177 C 0.49754 0.63023 0.07243 0.0
C178 C 0.42725 0.53162 0.77256 0.0
C179 C 0.47803 0.47511 0.85732 0.0
C180 C 0.49641 0.49821 0.45523 0.0
C181 C 0.4964 0.46419 0.42903 0.0
C182 C 0.47902 0.45271 0.33422 0.0
C183 C 0.47647 0.42021 0.31573 0.0
C184 C 0.49118 0.3986 0.39183 0.0
C185 C 0.5091 0.41026 0.48537 0.0
C186 C 0.51168 0.44271 0.50378 0.0
C187 C 0.54162 0.54511 0.79075 0.0
O188 O 0.49113 0.59262 0.80991 0.0
O189 O 0.48428 0.57851 0.61577 0.0
O190 O 0.45538 0.57952 0.03435 0.0
O191 O 0.4971 0.55196 0.07871 0.0
O192 O 0.42772 0.52792 0.88549 0.0
O193 O 0.45134 0.54659 0.73897 0.0
O194 O 0.48217 0.48195 0.74519 0.0
O195 O 0.47773 0.49665 0.94041 0.0
O196 O 0.52124 0.50895 0.50996 0.0
O197 O 0.47001 0.50925 0.49816 0.0
O198 O 0.54077 0.55045 0.67879 0.0
O199 O 0.51782 0.52919 0.82025 0.0
H200 H 0.50927 0.58442 0.31412 0.0
H201 H 0.53875 0.63139 0.3749 0.0
H202 H 0.51645 0.67623 0.04474 0.0
H203 H 0.48612 0.63036 0.98796 0.0
H204 H 0.46678 0.46884 0.27619 0.0
H205 H 0.46211 0.41197 0.24421 0.0
H206 H 0.52099 0.39429 0.54489 0.0
H207 H 0.52514 0.45096 0.57801 0.0
Ho208 Ho 0.94126 0.49002 0.86034 0.0
Ho209 Ho 0.96682 0.50539 0.60969 0.0
C210 C 0.89345 0.50712 0.64357 0.0
C211 C 0.91095 0.494 0.0553 0.0
C212 C 0.88213 0.51157 0.08584 0.0
C213 C 0.8807 0.52925 0.18925 0.0
C214 C 0.85384 0.54715 0.21537 0.0
C215 C 0.828 0.54753 0.13844 0.0
C216 C 0.82995 0.53041 0.0337 0.0
C217 C 0.85661 0.51255 0.00798 0.0
C218 C 0.95684 0.43994 0.72911 0.0
C219 C 0.01471 0.48628 0.82445 0.0
C220 C 0.9987 0.50655 0.41717 0.0
C221 C 0.03145 0.49767 0.38746 0.0
C222 C 0.04355 0.46775 0.41579 0.0
C223 C 0.07533 0.46076 0.39576 0.0
C224 C 0.09588 0.48365 0.34854 0.0
C225 C 0.08347 0.51339 0.31856 0.0
C226 C 0.05161 0.52023 0.33732 0.0
C227 C 0.95043 0.55494 0.74449 0.0
O228 O 0.89938 0.50787 0.7574 0.0
O229 O 0.91571 0.50166 0.56489 0.0
O230 O 0.90753 0.4704 0.98268 0.0
O231 O 0.93547 0.51151 0.03035 0.0
O232 O 0.95926 0.44033 0.84247 0.0
O233 O 0.94388 0.4649 0.69341 0.0
O234 O 0.00943 0.48813 0.71029 0.0
O235 O 0.99225 0.49028 0.90322 0.0
O236 O 0.99585 0.53099 0.48582 0.0
O237 O 0.97926 0.48366 0.44506 0.0
O238 O 0.94658 0.55429 0.63181 0.0
O239 O 0.96428 0.53018 0.77677 0.0
H240 H 0.90033 0.52919 0.24974 0.0
H241 H 0.85302 0.56004 0.2969 0.0
H242 H 0.81079 0.53075 0.97122 0.0
H243 H 0.85717 0.49953 0.92682 0.0
H244 H 0.02866 0.44985 0.45517 0.0
H245 H 0.08374 0.43737 0.41762 0.0
H246 H 0.0985 0.5318 0.2835 0.0
H247 H 0.04288 0.54353 0.31545 0.0
C248 C 0.13946 0.00504 0.54477 0.0
C249 C 0.14008 0.9946 0.4283 0.0
H250 H 0.11765 0.00106 0.71345 0.0
C251 C 0.11823 0.9717 0.3924 0.0
H252 H 0.15607 0.0226 0.575 0.0
C253 C 0.09598 0.95969 0.4714 0.0
C254 C 0.09564 0.96998 0.5879 0.0
H255 H 0.11809 0.96331 0.30304 0.0
H256 H 0.07918 0.94225 0.44163 0.0
C257 C 0.11763 0.99261 0.62413 0.0
C258 C 0.49194 0.1252 0.71756 0.0
C259 C 0.50194 0.12595 0.60028 0.0
H260 H 0.49768 0.10438 0.88716 0.0
C261 C 0.52615 0.1055 0.56426 0.0
H262 H 0.47339 0.14069 0.74803 0.0
C263 C 0.53991 0.08455 0.64401 0.0
C264 C 0.52992 0.08399 0.7611 0.0
H265 H 0.53429 0.10548 0.47436 0.0
H266 H 0.55843 0.0689 0.6143 0.0
C267 C 0.50596 0.10456 0.79738 0.0
C268 C 0.3671 0.47337 0.66334 0.0
C269 C 0.36381 0.48247 0.54562 0.0
H270 H 0.38961 0.48207 0.82744 0.0
C271 C 0.38127 0.50835 0.5034 0.0
H272 H 0.35394 0.45358 0.69865 0.0
C273 C 0.40179 0.52462 0.57739 0.0
C274 C 0.40502 0.51538 0.69475 0.0
H275 H 0.37925 0.51594 0.4131 0.0
H276 H 0.4151 0.54442 0.54293 0.0
C277 C 0.38737 0.48977 0.7373 0.0
C278 C 0.98028 0.3932 0.46202 0.0
C279 C 0.00491 0.37445 0.50623 0.0
H280 H 0.94562 0.42868 0.49866 0.0
C281 C 0.01317 0.37716 0.62479 0.0
H282 H 0.9734 0.39171 0.37102 0.0
C283 C 0.9971 0.39808 0.69767 0.0
C284 C 0.97273 0.41696 0.65307 0.0
H285 H 0.03201 0.36303 0.66156 0.0
H286 H 0.0041 0.39984 0.78851 0.0
C287 C 0.96443 0.41438 0.53479 0.0
C288 C 0.90429 0.89738 0.85026 0.0
C289 C 0.90431 0.9055 0.96937 0.0
H290 H 0.92082 0.90853 0.67771 0.0
C291 C 0.92104 0.93242 0.00492 0.0
H292 H 0.8916 0.87683 0.81992 0.0
C293 C 0.9376 0.95066 0.92313 0.0
C294 C 0.93787 0.94224 0.80465 0.0
H295 H 0.92143 0.93939 0.09594 0.0
H296 H 0.95041 0.97123 0.95263 0.0
C297 C 0.92079 0.91567 0.7686 0.0
C298 C 0.56823 0.90654 0.1731 0.0
C299 C 0.59539 0.89009 0.13759 0.0
H300 H 0.5304 0.93727 0.12198 0.0
C301 C 0.6052 0.8923 0.02029 0.0
H302 H 0.56004 0.90529 0.26284 0.0
C303 C 0.58809 0.9103 0.94002 0.0
C304 C 0.56107 0.92679 0.97569 0.0
H305 H 0.626 0.87994 0.99002 0.0
H306 H 0.59635 0.91172 0.85036 0.0
C307 C 0.55126 0.9248 0.09275 0.0
C308 C 0.58019 0.57305 0.06942 0.0
C309 C 0.59285 0.60226 0.03428 0.0
H310 H 0.55472 0.53165 0.01838 0.0
C311 C 0.58896 0.61216 0.91761 0.0
H312 H 0.58285 0.5647 0.15855 0.0
C313 C 0.573 0.59316 0.83768 0.0
C314 C 0.5603 0.56408 0.87313 0.0
H315 H 0.59844 0.63451 0.88762 0.0
H316 H 0.57009 0.60153 0.74864 0.0
C317 C 0.56413 0.55412 0.9894 0.0
C318 C 0.88502 0.60619 0.8632 0.0
C319 C 0.89363 0.60891 0.98148 0.0
H320 H 0.89661 0.58733 0.69483 0.0
C321 C 0.92168 0.59458 0.01982 0.0
H322 H 0.86361 0.61701 0.83076 0.0
C323 C 0.94064 0.57784 0.94163 0.0
C324 C 0.93184 0.5749 0.82402 0.0
H325 H 0.92908 0.59636 0.11018 0.0
H326 H 0.96214 0.567 0.97328 0.0
C327 C 0.90405 0.58947 0.78506 0.0
C328 C 0.03518 0.18784 0.36594 0.0
C329 C 0.0281 0.20239 0.25858 0.0
H330 H 0.03504 0.14521 0.46682 0.0
C331 C 0.01279 0.18477 0.17186 0.0
H332 H 0.04683 0.20092 0.43463 0.0
C333 C 0.00592 0.15285 0.19018 0.0
C334 C 0.01392 0.13797 0.29625 0.0
H335 H 0.00582 0.1957 0.09017 0.0
H336 H 0.99426 0.13985 0.12134 0.0
C337 C 0.02829 0.15596 0.38445 0.0
C338 C 0.32931 0.05084 0.3841 0.0
C339 C 0.31464 0.03183 0.30013 0.0
H340 H 0.37044 0.0594 0.48661 0.0
C341 C 0.33137 0.00647 0.25212 0.0
H342 H 0.31666 0.07028 0.4236 0.0
C343 C 0.36254 0.00059 0.286 0.0
C344 C 0.37737 0.01953 0.37075 0.0
H345 H 0.32056 0.99161 0.18665 0.0
H346 H 0.37508 0.98136 0.24485 0.0
C347 C 0.36023 0.0447 0.41945 0.0
C348 C 0.47545 0.31202 0.45727 0.0
C349 C 0.47528 0.29901 0.34458 0.0
H350 H 0.47999 0.3538 0.56046 0.0
C351 C 0.48237 0.31847 0.24838 0.0
H352 H 0.47028 0.29746 0.53307 0.0
C353 C 0.4879 0.3507 0.26366 0.0
C354 C 0.48691 0.36405 0.37594 0.0
H355 H 0.48377 0.3087 0.16123 0.0
H356 H 0.49308 0.36514 0.18759 0.0
C357 C 0.48109 0.34424 0.47283 0.0
C358 C 0.1787 0.48189 0.21887 0.0
C359 C 0.1944 0.46147 0.29614 0.0
H360 H 0.13532 0.50424 0.17238 0.0
C361 C 0.17812 0.44976 0.39417 0.0
H362 H 0.19099 0.49221 0.14492 0.0
C363 C 0.14633 0.45718 0.41176 0.0
C364 C 0.13009 0.47661 0.33185 0.0
H365 H 0.18983 0.43438 0.45632 0.0
H366 H 0.13457 0.44776 0.48854 0.0
C367 C 0.14688 0.48927 0.23612 0.0
C368 C 0.93901 0.75019 0.13602 0.0
C369 C 0.90947 0.75283 0.19024 0.0
H370 H 0.97956 0.77397 0.06909 0.0
C371 C 0.89749 0.78281 0.21628 0.0
H372 H 0.9486 0.72723 0.11466 0.0
C373 C 0.91533 0.8098 0.19033 0.0
C374 C 0.94494 0.80716 0.13527 0.0
H375 H 0.87472 0.7853 0.25838 0.0
H376 H 0.90584 0.83268 0.21216 0.0
C377 C 0.95659 0.77698 0.10917 0.0
C378 C 0.75802 0.94451 0.29564 0.0
C379 C 0.75837 0.91167 0.28203 0.0
H380 H 0.73024 0.98655 0.29928 0.0
C381 C 0.73018 0.89576 0.25739 0.0
H382 H 0.77964 0.95729 0.31261 0.0
C383 C 0.70183 0.91253 0.24965 0.0
C384 C 0.70145 0.94542 0.26434 0.0
H385 H 0.73006 0.87044 0.24547 0.0
H386 H 0.68034 0.89991 0.23003 0.0
C387 C 0.72984 0.96123 0.28718 0.0
C388 C 0.59067 0.71355 0.3445 0.0
C389 C 0.57756 0.74299 0.31602 0.0
H390 H 0.58566 0.66326 0.33596 0.0
C391 C 0.54921 0.74415 0.25347 0.0
H392 H 0.61274 0.71211 0.39171 0.0
C393 C 0.53362 0.71652 0.22287 0.0
C394 C 0.54635 0.68691 0.25178 0.0
H395 H 0.53905 0.76656 0.22765 0.0
H396 H 0.51138 0.71846 0.17705 0.0
C397 C 0.57505 0.68569 0.31338 0.0
C398 C 0.77016 0.60966 0.24716 0.0
C399 C 0.74124 0.59469 0.22562 0.0
H400 H 0.82064 0.60621 0.23793 0.0
C401 C 0.74106 0.56488 0.17327 0.0
H402 H 0.77077 0.63276 0.28708 0.0
C403 C 0.76921 0.54976 0.14579 0.0
C404 C 0.79833 0.56424 0.16871 0.0
H405 H 0.71899 0.55308 0.15441 0.0
H406 H 0.76811 0.5264 0.10815 0.0
C407 C 0.79857 0.59439 0.21987 0.0
C408 C 0.03861 0.10819 0.79706 0.0
C409 C 0.05564 0.11189 0.90143 0.0
H410 H 0.0171 0.07607 0.6779 0.0
C411 C 0.06539 0.08488 0.96316 0.0
H412 H 0.03092 0.1285 0.74692 0.0
C413 C 0.05684 0.05488 0.92482 0.0
C414 C 0.03908 0.05123 0.82221 0.0
H415 H 0.07875 0.0869 0.04344 0.0
H416 H 0.06414 0.03455 0.9757 0.0
C417 C 0.03062 0.07813 0.75748 0.0
C418 C 0.39709 0.04517 0.93691 0.0
C419 C 0.39325 0.05942 0.04675 0.0
H420 H 0.42841 0.02148 0.81931 0.0
C421 C 0.41865 0.05965 0.12518 0.0
H422 H 0.37786 0.04458 0.87477 0.0
C423 C 0.44735 0.04582 0.09458 0.0
C424 C 0.45142 0.03201 0.98391 0.0
H425 H 0.41629 0.07028 0.21068 0.0
H426 H 0.46651 0.04657 0.15698 0.0
C427 C 0.426 0.03185 0.90532 0.0
C428 C 0.44323 0.40368 0.00731 0.0
C429 C 0.45568 0.37898 0.93988 0.0
H430 H 0.4414 0.4535 0.03624 0.0
C431 C 0.47577 0.38619 0.84564 0.0
H432 H 0.42755 0.39887 0.08018 0.0
C433 C 0.48333 0.41749 0.81969 0.0
C434 C 0.47139 0.44208 0.88863 0.0
H435 H 0.48575 0.36769 0.79205 0.0
H436 H 0.4988 0.42241 0.7465 0.0
C437 C 0.45135 0.43493 0.98289 0.0
C438 C 0.08091 0.45699 0.01749 0.0
C439 C 0.10662 0.45736 0.93984 0.0
H440 H 0.03189 0.46642 0.04273 0.0
C441 C 0.10213 0.46797 0.8245 0.0
H442 H 0.08377 0.44927 0.10733 0.0
C443 C 0.07228 0.47759 0.78697 0.0
C444 C 0.04654 0.4773 0.86482 0.0
H445 H 0.12159 0.46854 0.76293 0.0
H446 H 0.06944 0.48527 0.69707 0.0
C447 C 0.05123 0.46708 0.98065 0.0
C448 C 0.99329 0.82398 0.43061 0.0
C449 C 0.97369 0.80587 0.50425 0.0
H450 H 0.01692 0.86829 0.40379 0.0
C451 C 0.96357 0.8187 0.61088 0.0
H452 H 0.00125 0.81474 0.34744 0.0
C453 C 0.97283 0.84894 0.64355 0.0
C454 C 0.99198 0.86733 0.56944 0.0
H455 H 0.94849 0.80535 0.66958 0.0
H456 H 0.96451 0.85807 0.72641 0.0
C457 C 0.00207 0.85465 0.46237 0.0
C458 C 0.68715 0.95743 0.81388 0.0
C459 C 0.69818 0.95939 0.69823 0.0
H460 H 0.64919 0.96567 0.93256 0.0
C461 C 0.67828 0.9721 0.61157 0.0
H462 H 0.70185 0.94776 0.88263 0.0
C463 C 0.64777 0.9822 0.63995 0.0
C464 C 0.63678 0.98019 0.75583 0.0
H465 H 0.68607 0.97376 0.52143 0.0
H466 H 0.63285 0.99155 0.57124 0.0
C467 C 0.65691 0.96784 0.84245 0.0
C468 C 0.51838 0.68401 0.70524 0.0
C469 C 0.50824 0.69593 0.59697 0.0
H470 H 0.52034 0.64453 0.82109 0.0
C471 C 0.49094 0.67627 0.52199 0.0
H472 H 0.53185 0.69854 0.76473 0.0
C473 C 0.48445 0.64501 0.55419 0.0
C474 C 0.49475 0.63314 0.66255 0.0
H475 H 0.48316 0.68475 0.43728 0.0
H476 H 0.47152 0.63015 0.49424 0.0
C477 C 0.51159 0.65306 0.73787 0.0
C478 C 0.81848 0.51223 0.46317 0.0
C479 C 0.7991 0.53042 0.53665 0.0
H480 H 0.86401 0.49102 0.43818 0.0
C481 C 0.81099 0.54063 0.64447 0.0
H482 H 0.80999 0.50432 0.37894 0.0
C483 C 0.8415 0.53275 0.67868 0.0
C484 C 0.8611 0.51486 0.60518 0.0
H485 H 0.79667 0.55471 0.70293 0.0
H486 H 0.8499 0.54121 0.76224 0.0
C487 C 0.8494 0.5048 0.49664 0.0
loop_
_geom_bond_atom_site_label_1
_geom_bond_atom_site_label_2
_geom_bond_distance
_geom_bond_site_symmetry_2
_ccdc_geom_bond_type
O0 Cd1 2.300 . S
O0 C7 1.275 . S
Cd1 O0 2.300 . S
Cd1 O9 2.381 . S
Cd1 O10 2.378 . S
O2 Cd3 2.385 . S
O2 C7 1.255 . S
Cd3 O2 2.385 . S
Cd3 O4 2.317 . S
O4 Cd3 2.317 . S
O4 C5 1.232 . S
C5 O4 1.232 . S
C5 O6 1.218 . S
O6 C5 1.218 . S
C7 O0 1.275 . S
C7 O2 1.255 . S
C8 O9 1.258 . S
C8 O10 1.256 . S
O9 Cd1 2.381 . S
O9 C8 1.258 . S
O10 Cd1 2.378 . S
O10 C8 1.256 . S
O11 Cd12 2.300 1_655 S
O11 C18 1.275 1_655 S
Cd12 O11 2.300 1_455 S
Cd12 O20 2.381 1_455 S
Cd12 O21 2.378 . S
O13 Cd14 2.385 . S
O13 C18 1.255 . S
Cd14 O13 2.385 . S
Cd14 O15 2.317 . S
O15 Cd14 2.317 . S
O15 C16 1.232 . S
C16 O15 1.232 . S
C16 O17 1.218 . S
O17 C16 1.218 . S
C18 O11 1.275 1_455 S
C18 O13 1.255 . S
C19 O20 1.258 1_455 S
C19 O21 1.256 . S
O20 Cd12 2.381 1_655 S
O20 C19 1.258 1_655 S
O21 Cd12 2.378 . S
O21 C19 1.256 . S
O22 Cd23 2.300 1_565 S
O22 C29 1.275 1_565 S
Cd23 O22 2.300 1_545 S
Cd23 O31 2.381 1_545 S
Cd23 O32 2.378 . S
O24 Cd25 2.385 . S
O24 C29 1.255 . S
Cd25 O24 2.385 . S
Cd25 O26 2.317 . S
O26 Cd25 2.317 . S
O26 C27 1.232 . S
C27 O26 1.232 . S
C27 O28 1.218 . S
O28 C27 1.218 . S
C29 O22 1.275 1_545 S
C29 O24 1.255 . S
C30 O31 1.258 1_545 S
C30 O32 1.256 . S
O31 Cd23 2.381 1_565 S
O31 C30 1.258 1_565 S
O32 Cd23 2.378 . S
O32 C30 1.256 . S
O33 Cd34 2.300 . S
O33 C40 1.275 . S
Cd34 O33 2.300 . S
Cd34 O42 2.381 . S
Cd34 O43 2.378 . S
O35 Cd36 2.385 . S
O35 C40 1.255 . S
Cd36 O35 2.385 . S
Cd36 O37 2.317 . S
O37 Cd36 2.317 . S
O37 C38 1.232 . S
C38 O37 1.232 . S
C38 O39 1.218 . S
O39 C38 1.218 . S
C40 O33 1.275 . S
C40 O35 1.255 . S
C41 O42 1.258 . S
C41 O43 1.256 . S
O42 Cd34 2.381 . S
O42 C41 1.258 . S
O43 Cd34 2.378 . S
O43 C41 1.256 . S
O44 Cd45 2.300 . S
O44 C51 1.275 . S
Cd45 O44 2.300 . S
Cd45 O53 2.381 . S
Cd45 O54 2.378 . S
O46 Cd47 2.385 1_554 S
O46 C51 1.255 . S
Cd47 O46 2.385 1_556 S
Cd47 O48 2.317 . S
O48 Cd47 2.317 . S
O48 C49 1.232 . S
C49 O48 1.232 . S
C49 O50 1.218 . S
O50 C49 1.218 . S
C51 O44 1.275 . S
C51 O46 1.255 . S
C52 O53 1.258 . S
C52 O54 1.256 . S
O53 Cd45 2.381 . S
O53 C52 1.258 . S
O54 Cd45 2.378 . S
O54 C52 1.256 . S
O55 Cd56 2.300 1_655 S
O55 C62 1.275 1_655 S
Cd56 O55 2.300 1_455 S
Cd56 O64 2.381 1_455 S
Cd56 O65 2.378 . S
O57 Cd58 2.385 1_554 S
O57 C62 1.255 . S
Cd58 O57 2.385 1_556 S
Cd58 O59 2.317 . S
O59 Cd58 2.317 . S
O59 C60 1.232 . S
C60 O59 1.232 . S
C60 O61 1.218 . S
O61 C60 1.218 . S
C62 O55 1.275 1_455 S
C62 O57 1.255 . S
C63 O64 1.258 1_455 S
C63 O65 1.256 . S
O64 Cd56 2.381 1_655 S
O64 C63 1.258 1_655 S
O65 Cd56 2.378 . S
O65 C63 1.256 . S
O66 Cd67 2.300 1_565 S
O66 C73 1.275 1_565 S
Cd67 O66 2.300 1_545 S
Cd67 O75 2.381 1_545 S
Cd67 O76 2.378 . S
O68 Cd69 2.385 1_554 S
O68 C73 1.255 . S
Cd69 O68 2.385 1_556 S
Cd69 O70 2.317 . S
O70 Cd69 2.317 . S
O70 C71 1.232 . S
C71 O70 1.232 . S
C71 O72 1.218 . S
O72 C71 1.218 . S
C73 O66 1.275 1_545 S
C73 O68 1.255 . S
C74 O75 1.258 1_545 S
C74 O76 1.256 . S
O75 Cd67 2.381 1_565 S
O75 C74 1.258 1_565 S
O76 Cd67 2.378 . S
O76 C74 1.256 . S
O77 Cd78 2.300 . S
O77 C84 1.275 . S
Cd78 O77 2.300 . S
Cd78 O86 2.381 . S
Cd78 O87 2.378 . S
O79 Cd80 2.385 1_554 S
O79 C84 1.255 . S
Cd80 O79 2.385 1_556 S
Cd80 O81 2.317 . S
O81 Cd80 2.317 . S
O81 C82 1.232 . S
C82 O81 1.232 . S
C82 O83 1.218 . S
O83 C82 1.218 . S
C84 O77 1.275 . S
C84 O79 1.255 . S
C85 O86 1.258 . S
C85 O87 1.256 . S
O86 Cd78 2.381 . S
O86 C85 1.258 . S
O87 Cd78 2.378 . S
O87 C85 1.256 . S
Ho88 C91 2.811 1_556 S
Ho88 O108 2.322 . S
Ho88 O110 2.378 . S
Ho88 O111 2.524 1_556 S
Ho88 O112 2.381 . S
Ho88 O113 2.669 1_565 S
Ho88 O115 2.346 1_565 S
Ho88 O119 2.305 1_455 S
Ho89 C100 2.811 . S
Ho89 O109 2.346 1_545 S
Ho89 O113 2.305 1_655 S
Ho89 O114 2.322 . S
Ho89 O116 2.378 . S
Ho89 O117 2.524 . S
Ho89 O118 2.381 . S
Ho89 O119 2.669 1_545 S
C90 O108 1.259 1_655 S
C90 O109 1.268 . S
C91 Ho88 2.811 1_554 S
C91 C92 1.488 . S
C91 O110 1.215 1_554 S
C91 O111 1.289 . S
C92 C91 1.488 . S
C92 C93 1.348 . S
C92 C97 1.413 . S
C93 C92 1.348 . S
C93 C94 1.442 . S
C93 H120 0.930 1_455 S
C94 C93 1.442 . S
C94 C95 1.381 . S
C94 H121 0.931 1_455 S
C95 C94 1.381 . S
C95 C96 1.321 . S
C96 C95 1.321 . S
C96 C97 1.403 . S
C96 H122 0.934 . S
C97 C92 1.413 . S
C97 C96 1.403 . S
C97 H123 0.930 . S
C98 O112 1.275 . S
C98 O113 1.256 1_565 S
C99 O114 1.259 1_455 S
C99 O115 1.268 . S
C100 Ho89 2.811 . S
C100 C101 1.488 . S
C100 O116 1.215 . S
C100 O117 1.289 . S
C101 C100 1.488 . S
C101 C102 1.348 . S
C101 C106 1.413 . S
C102 C101 1.348 . S
C102 C103 1.442 . S
C102 H124 0.930 1_655 S
C103 C102 1.442 . S
C103 C104 1.381 . S
C103 H125 0.931 1_655 S
C104 C103 1.381 . S
C104 C105 1.321 . S
C105 C104 1.321 . S
C105 C106 1.403 . S
C105 H126 0.934 . S
C106 C101 1.413 . S
C106 C105 1.403 . S
C106 H127 0.930 . S
C107 O118 1.275 . S
C107 O119 1.256 1_545 S
O108 Ho88 2.322 . S
O108 C90 1.259 1_455 S
O109 Ho89 2.346 1_565 S
O109 C90 1.268 . S
O110 Ho88 2.378 . S
O110 C91 1.215 1_556 S
O111 Ho88 2.524 1_554 S
O111 C91 1.289 . S
O112 Ho88 2.381 . S
O112 C98 1.275 . S
O113 Ho88 2.669 1_545 S
O113 Ho89 2.305 1_455 S
O113 C98 1.256 1_545 S
O114 Ho89 2.322 . S
O114 C99 1.259 1_655 S
O115 Ho88 2.346 1_545 S
O115 C99 1.268 . S
O116 Ho89 2.378 . S
O116 C100 1.215 . S
O117 Ho89 2.524 . S
O117 C100 1.289 . S
O118 Ho89 2.381 . S
O118 C107 1.275 . S
O119 Ho88 2.305 1_655 S
O119 Ho89 2.669 1_565 S
O119 C107 1.256 1_565 S
H120 C93 0.930 1_655 S
H121 C94 0.931 1_655 S
H122 C96 0.934 . S
H123 C97 0.930 . S
H124 C102 0.930 1_455 S
H125 C103 0.931 1_455 S
H126 C105 0.934 . S
H127 C106 0.930 . S
Ho128 C131 2.811 1_556 S
Ho128 O148 2.322 . S
Ho128 O150 2.378 . S
Ho128 O151 2.524 1_556 S
Ho128 O152 2.381 . S
Ho128 O153 2.669 . S
Ho128 O155 2.346 . S
Ho128 O159 2.305 1_545 S
Ho129 C140 2.811 . S
Ho129 O149 2.346 . S
Ho129 O153 2.305 1_565 S
Ho129 O154 2.322 . S
Ho129 O156 2.378 . S
Ho129 O157 2.524 . S
Ho129 O158 2.381 . S
Ho129 O159 2.669 . S
C130 O148 1.259 1_565 S
C130 O149 1.268 . S
C131 Ho128 2.811 1_554 S
C131 C132 1.488 . S
C131 O150 1.215 1_554 S
C131 O151 1.289 . S
C132 C131 1.488 . S
C132 C133 1.348 . S
C132 C137 1.413 . S
C133 C132 1.348 . S
C133 C134 1.442 . S
C133 H160 0.930 1_545 S
C134 C133 1.442 . S
C134 C135 1.381 . S
C134 H161 0.931 1_545 S
C135 C134 1.381 . S
C135 C136 1.321 . S
C136 C135 1.321 . S
C136 C137 1.403 . S
C136 H162 0.934 . S
C137 C132 1.413 . S
C137 C136 1.403 . S
C137 H163 0.930 . S
C138 O152 1.275 . S
C138 O153 1.256 . S
C139 O154 1.259 1_545 S
C139 O155 1.268 . S
C140 Ho129 2.811 . S
C140 C141 1.488 . S
C140 O156 1.215 . S
C140 O157 1.289 . S
C141 C140 1.488 . S
C141 C142 1.348 . S
C141 C146 1.413 . S
C142 C141 1.348 . S
C142 C143 1.442 . S
C142 H164 0.930 1_565 S
C143 C142 1.442 . S
C143 C144 1.381 . S
C143 H165 0.931 1_565 S
C144 C143 1.381 . S
C144 C145 1.321 . S
C145 C144 1.321 . S
C145 C146 1.403 . S
C145 H166 0.934 . S
C146 C141 1.413 . S
C146 C145 1.403 . S
C146 H167 0.930 . S
C147 O158 1.275 . S
C147 O159 1.256 . S
O148 Ho128 2.322 . S
O148 C130 1.259 1_545 S
O149 Ho129 2.346 . S
O149 C130 1.268 . S
O150 Ho128 2.378 . S
O150 C131 1.215 1_556 S
O151 Ho128 2.524 1_554 S
O151 C131 1.289 . S
O152 Ho128 2.381 . S
O152 C138 1.275 . S
O153 Ho128 2.669 . S
O153 Ho129 2.305 1_545 S
O153 C138 1.256 . S
O154 Ho129 2.322 . S
O154 C139 1.259 1_565 S
O155 Ho128 2.346 . S
O155 C139 1.268 . S
O156 Ho129 2.378 . S
O156 C140 1.215 . S
O157 Ho129 2.524 . S
O157 C140 1.289 . S
O158 Ho129 2.381 . S
O158 C147 1.275 . S
O159 Ho128 2.305 1_565 S
O159 Ho129 2.669 . S
O159 C147 1.256 . S
H160 C133 0.930 1_565 S
H161 C134 0.931 1_565 S
H162 C136 0.934 . S
H163 C137 0.930 . S
H164 C142 0.930 1_545 S
H165 C143 0.931 1_545 S
H166 C145 0.934 . S
H167 C146 0.930 . S
Ho168 C171 2.811 1_556 S
Ho168 O188 2.322 . S
Ho168 O190 2.378 . S
Ho168 O191 2.524 1_556 S
Ho168 O192 2.381 . S
Ho168 O193 2.669 . S
Ho168 O195 2.346 . S
Ho168 O199 2.305 . S
Ho169 C180 2.811 . S
Ho169 O189 2.346 . S
Ho169 O193 2.305 . S
Ho169 O194 2.322 . S
Ho169 O196 2.378 . S
Ho169 O197 2.524 . S
Ho169 O198 2.381 . S
Ho169 O199 2.669 . S
C170 O188 1.259 . S
C170 O189 1.268 . S
C171 Ho168 2.811 1_554 S
C171 C172 1.488 . S
C171 O190 1.215 1_554 S
C171 O191 1.289 . S
C172 C171 1.488 . S
C172 C173 1.348 . S
C172 C177 1.413 . S
C173 C172 1.348 . S
C173 C174 1.442 . S
C173 H200 0.930 . S
C174 C173 1.442 . S
C174 C175 1.381 . S
C174 H201 0.931 . S
C175 C174 1.381 . S
C175 C176 1.321 . S
C176 C175 1.321 . S
C176 C177 1.403 . S
C176 H202 0.934 . S
C177 C172 1.413 . S
C177 C176 1.403 . S
C177 H203 0.930 . S
C178 O192 1.275 . S
C178 O193 1.256 . S
C179 O194 1.259 . S
C179 O195 1.268 . S
C180 Ho169 2.811 . S
C180 C181 1.488 . S
C180 O196 1.215 . S
C180 O197 1.289 . S
C181 C180 1.488 . S
C181 C182 1.348 . S
C181 C186 1.413 . S
C182 C181 1.348 . S
C182 C183 1.442 . S
C182 H204 0.930 . S
C183 C182 1.442 . S
C183 C184 1.381 . S
C183 H205 0.931 . S
C184 C183 1.381 . S
C184 C185 1.321 . S
C185 C184 1.321 . S
C185 C186 1.403 . S
C185 H206 0.934 . S
C186 C181 1.413 . S
C186 C185 1.403 . S
C186 H207 0.930 . S
C187 O198 1.275 . S
C187 O199 1.256 . S
O188 Ho168 2.322 . S
O188 C170 1.259 . S
O189 Ho169 2.346 . S
O189 C170 1.268 . S
O190 Ho168 2.378 . S
O190 C171 1.215 1_556 S
O191 Ho168 2.524 1_554 S
O191 C171 1.289 . S
O192 Ho168 2.381 . S
O192 C178 1.275 . S
O193 Ho168 2.669 . S
O193 Ho169 2.305 . S
O193 C178 1.256 . S
O194 Ho169 2.322 . S
O194 C179 1.259 . S
O195 Ho168 2.346 . S
O195 C179 1.268 . S
O196 Ho169 2.378 . S
O196 C180 1.215 . S
O197 Ho169 2.524 . S
O197 C180 1.289 . S
O198 Ho169 2.381 . S
O198 C187 1.275 . S
O199 Ho168 2.305 . S
O199 Ho169 2.669 . S
O199 C187 1.256 . S
H200 C173 0.930 . S
H201 C174 0.931 . S
H202 C176 0.934 . S
H203 C177 0.930 . S
H204 C182 0.930 . S
H205 C183 0.931 . S
H206 C185 0.934 . S
H207 C186 0.930 . S
Ho208 C211 2.811 1_556 S
Ho208 O228 2.322 . S
Ho208 O230 2.378 . S
Ho208 O231 2.524 1_556 S
Ho208 O232 2.381 . S
Ho208 O233 2.669 1_655 S
Ho208 O235 2.346 1_655 S
Ho208 O239 2.305 . S
Ho209 C220 2.811 . S
Ho209 O229 2.346 1_455 S
Ho209 O233 2.305 . S
Ho209 O234 2.322 . S
Ho209 O236 2.378 . S
Ho209 O237 2.524 . S
Ho209 O238 2.381 . S
Ho209 O239 2.669 1_455 S
C210 O228 1.259 . S
C210 O229 1.268 . S
C211 Ho208 2.811 1_554 S
C211 C212 1.488 . S
C211 O230 1.215 1_554 S
C211 O231 1.289 . S
C212 C211 1.488 . S
C212 C213 1.348 . S
C212 C217 1.413 . S
C213 C212 1.348 . S
C213 C214 1.442 . S
C213 H240 0.930 . S
C214 C213 1.442 . S
C214 C215 1.381 . S
C214 H241 0.931 . S
C215 C214 1.381 . S
C215 C216 1.321 . S
C216 C215 1.321 . S
C216 C217 1.403 . S
C216 H242 0.934 . S
C217 C212 1.413 . S
C217 C216 1.403 . S
C217 H243 0.930 . S
C218 O232 1.285 . S
C218 O233 1.250 1_655 S
C219 O234 1.259 . S
C219 O235 1.268 . S
C220 Ho209 2.811 . S
C220 C221 1.488 . S
C220 O236 1.215 . S
C220 O237 1.289 . S
C221 C220 1.488 . S
C221 C222 1.348 . S
C221 C226 1.413 . S
C222 C221 1.348 . S
C222 C223 1.442 . S
C222 H244 0.930 . S
C223 C222 1.442 . S
C223 C224 1.381 . S
C223 H245 0.931 . S
C224 C223 1.381 . S
C224 C225 1.321 . S
C225 C224 1.321 . S
C225 C226 1.403 . S
C225 H246 0.934 . S
C226 C221 1.413 . S
C226 C225 1.403 . S
C226 H247 0.930 . S
C227 O238 1.289 . S
C227 O239 1.248 1_455 S
O228 Ho208 2.322 . S
O228 C210 1.259 . S
O229 Ho209 2.346 1_655 S
O229 C210 1.268 . S
O230 Ho208 2.378 . S
O230 C211 1.215 1_556 S
O231 Ho208 2.524 1_554 S
O231 C211 1.289 . S
O232 Ho208 2.381 . S
O232 C218 1.285 . S
O233 Ho208 2.669 1_455 S
O233 Ho209 2.305 . S
O233 C218 1.250 1_455 S
O234 Ho209 2.322 . S
O234 C219 1.259 . S
O235 Ho208 2.346 1_455 S
O235 C219 1.268 . S
O236 Ho209 2.378 . S
O236 C220 1.215 . S
O237 Ho209 2.524 . S
O237 C220 1.289 . S
O238 Ho209 2.381 . S
O238 C227 1.289 . S
O239 Ho208 2.305 . S
O239 Ho209 2.669 1_655 S
O239 C227 1.248 1_655 S
H240 C213 0.930 . S
H241 C214 0.931 . S
H242 C216 0.934 . S
H243 C217 0.930 . S
H244 C222 0.930 . S
H245 C223 0.931 . S
H246 C225 0.934 . S
H247 C226 0.930 . S
C248 C249 1.403 . S
C248 H252 0.950 . S
C248 C257 1.390 . S
C249 C248 1.403 . S
C249 C251 1.373 1_545 S
H250 C257 0.950 . S
C251 C249 1.373 1_565 S
C251 C253 1.390 . S
C251 H255 0.950 . S
H252 C248 0.950 . S
C253 C251 1.390 . S
C253 C254 1.387 1_565 S
C253 H256 0.950 . S
C254 C253 1.387 1_545 S
C254 C257 1.387 . S
H255 C251 0.950 . S
H256 C253 0.950 . S
C257 C248 1.390 . S
C257 H250 0.950 . S
C257 C254 1.387 . S
C258 C259 1.387 . S
C258 H262 0.950 . S
C258 C267 1.390 . S
C259 C258 1.387 . S
C259 C261 1.387 . S
H260 C267 0.950 . S
C261 C259 1.387 . S
C261 C263 1.390 . S
C261 H265 0.950 . S
H262 C258 0.950 . S
C263 C261 1.390 . S
C263 C264 1.387 . S
C263 H266 0.950 . S
C264 C263 1.387 . S
C264 C267 1.387 . S
H265 C261 0.950 . S
H266 C263 0.950 . S
C267 C258 1.390 . S
C267 H260 0.950 . S
C267 C264 1.387 . S
C268 C269 1.387 . S
C268 H272 0.950 . S
C268 C277 1.390 . S
C269 C268 1.387 . S
C269 C271 1.387 . S
H270 C277 0.950 . S
C271 C269 1.387 . S
C271 C273 1.390 . S
C271 H275 0.950 . S
H272 C268 0.950 . S
C273 C271 1.390 . S
C273 C274 1.387 . S
C273 H276 0.950 . S
C274 C273 1.387 . S
C274 C277 1.387 . S
H275 C271 0.950 . S
H276 C273 0.950 . S
C277 C268 1.390 . S
C277 H270 0.950 . S
C277 C274 1.387 . S
C278 C279 1.365 1_655 S
C278 H282 0.950 . S
C278 C287 1.390 . S
C279 C278 1.365 1_455 S
C279 C281 1.411 . S
H280 C287 0.950 . S
C281 C279 1.411 . S
C281 C283 1.390 . S
C281 H285 0.950 . S
H282 C278 0.950 . S
C283 C281 1.390 . S
C283 C284 1.387 . S
C283 H286 0.950 . S
C284 C283 1.387 . S
C284 C287 1.387 1_455 S
H285 C281 0.950 . S
H286 C283 0.950 . S
C287 C278 1.390 . S
C287 H280 0.950 . S
C287 C284 1.387 1_655 S
C288 C289 1.396 . S
C288 H292 0.950 . S
C288 C297 1.390 . S
C289 C288 1.396 . S
C289 C291 1.380 1_565 S
H290 C297 0.950 . S
C291 C289 1.380 1_545 S
C291 C293 1.390 . S
C291 H295 0.950 . S
H292 C288 0.950 . S
C293 C291 1.390 . S
C293 C294 1.387 1_545 S
C293 H296 0.950 . S
C294 C293 1.387 1_565 S
C294 C297 1.387 . S
H295 C291 0.950 . S
H296 C293 0.950 . S
C297 C288 1.390 . S
C297 H290 0.950 . S
C297 C294 1.387 . S
C298 C299 1.387 . S
C298 H302 0.950 . S
C298 C307 1.390 . S
C299 C298 1.387 . S
C299 C301 1.387 . S
H300 C307 0.950 . S
C301 C299 1.387 . S
C301 C303 1.390 . S
C301 H305 0.950 . S
H302 C298 0.950 . S
C303 C301 1.390 . S
C303 C304 1.387 . S
C303 H306 0.950 . S
C304 C303 1.387 . S
C304 C307 1.387 . S
H305 C301 0.950 . S
H306 C303 0.950 . S
C307 C298 1.390 . S
C307 H300 0.950 . S
C307 C304 1.387 . S
C308 C309 1.387 . S
C308 H312 0.950 . S
C308 C317 1.390 . S
C309 C308 1.387 . S
C309 C311 1.387 . S
H310 C317 0.950 . S
C311 C309 1.387 . S
C311 C313 1.390 . S
C311 H315 0.950 . S
H312 C308 0.950 . S
C313 C311 1.390 . S
C313 C314 1.387 . S
C313 H316 0.950 . S
C314 C313 1.387 . S
C314 C317 1.387 . S
H315 C311 0.950 . S
H316 C313 0.950 . S
C317 C308 1.390 . S
C317 H310 0.950 . S
C317 C314 1.387 . S
C318 C319 1.402 . S
C318 H322 0.950 . S
C318 C327 1.390 . S
C319 C318 1.402 . S
C319 C321 1.373 1_655 S
H320 C327 0.950 . S
C321 C319 1.373 1_455 S
C321 C323 1.390 . S
C321 H325 0.950 . S
H322 C318 0.950 . S
C323 C321 1.390 . S
C323 C324 1.387 1_455 S
C323 H326 0.950 1_554 S
C324 C323 1.387 1_655 S
C324 C327 1.387 . S
H325 C321 0.950 . S
H326 C323 0.950 1_556 S
C327 C318 1.390 . S
C327 H320 0.950 . S
C327 C324 1.387 . S
C328 C329 1.387 . S
C328 H332 0.950 . S
C328 C337 1.390 . S
C329 C328 1.387 . S
C329 C331 1.387 . S
H330 C337 0.950 . S
C331 C329 1.387 . S
C331 C333 1.390 . S
C331 H335 0.950 . S
H332 C328 0.950 . S
C333 C331 1.390 . S
C333 C334 1.387 . S
C333 H336 0.950 . S
C334 C333 1.387 . S
C334 C337 1.387 . S
H335 C331 0.950 . S
H336 C333 0.950 . S
C337 C328 1.390 . S
C337 H330 0.950 . S
C337 C334 1.387 . S
C338 C339 1.387 1_545 S
C338 H342 0.950 . S
C338 C347 1.390 1_545 S
C339 C338 1.387 1_565 S
C339 C341 1.387 . S
H340 C347 0.950 . S
C341 C339 1.387 . S
C341 C343 1.390 . S
C341 H345 0.950 . S
H342 C338 0.950 . S
C343 C341 1.390 . S
C343 C344 1.387 . S
C343 H346 0.950 . S
C344 C343 1.387 . S
C344 C347 1.387 . S
H345 C341 0.950 . S
H346 C343 0.950 . S
C347 C338 1.390 1_565 S
C347 H340 0.950 . S
C347 C344 1.387 . S
C348 C349 1.387 . S
C348 H352 0.950 . S
C348 C357 1.390 . S
C349 C348 1.387 . S
C349 C351 1.387 . S
H350 C357 0.950 . S
C351 C349 1.387 . S
C351 C353 1.390 . S
C351 H355 0.950 . S
H352 C348 0.950 . S
C353 C351 1.390 . S
C353 C354 1.387 . S
C353 H356 0.950 . S
C354 C353 1.387 . S
C354 C357 1.387 . S
H355 C351 0.950 . S
H356 C353 0.950 . S
C357 C348 1.390 . S
C357 H350 0.950 . S
C357 C354 1.387 . S
C358 C359 1.387 . S
C358 H362 0.950 . S
C358 C367 1.390 . S
C359 C358 1.387 . S
C359 C361 1.387 . S
H360 C367 0.950 . S
C361 C359 1.387 . S
C361 C363 1.390 . S
C361 H365 0.950 . S
H362 C358 0.950 . S
C363 C361 1.390 . S
C363 C364 1.387 . S
C363 H366 0.950 . S
C364 C363 1.387 . S
C364 C367 1.387 . S
H365 C361 0.950 . S
H366 C363 0.950 . S
C367 C358 1.390 . S
C367 H360 0.950 . S
C367 C364 1.387 . S
C368 C369 1.387 . S
C368 H372 0.950 . S
C368 C377 1.390 . S
C369 C368 1.387 . S
C369 C371 1.387 . S
H370 C377 0.950 . S
C371 C369 1.387 . S
C371 C373 1.390 . S
C371 H375 0.950 1_455 S
H372 C368 0.950 . S
C373 C371 1.390 . S
C373 C374 1.387 . S
C373 H376 0.950 . S
C374 C373 1.387 . S
C374 C377 1.387 . S
H375 C371 0.950 1_655 S
H376 C373 0.950 . S
C377 C368 1.390 . S
C377 H370 0.950 . S
C377 C374 1.387 . S
C378 C379 1.387 . S
C378 H382 0.950 . S
C378 C387 1.390 . S
C379 C378 1.387 . S
C379 C381 1.387 . S
H380 C387 0.950 . S
C381 C379 1.387 . S
C381 C383 1.390 . S
C381 H385 0.950 1_545 S
H382 C378 0.950 . S
C383 C381 1.390 . S
C383 C384 1.387 . S
C383 H386 0.950 . S
C384 C383 1.387 . S
C384 C387 1.387 . S
H385 C381 0.950 1_565 S
H386 C383 0.950 . S
C387 C378 1.390 . S
C387 H380 0.950 . S
C387 C384 1.387 . S
C388 C389 1.387 . S
C388 H392 0.950 . S
C388 C397 1.390 . S
C389 C388 1.387 . S
C389 C391 1.387 . S
H390 C397 0.950 . S
C391 C389 1.387 . S
C391 C393 1.390 . S
C391 H395 0.950 . S
H392 C388 0.950 . S
C393 C391 1.390 . S
C393 C394 1.387 . S
C393 H396 0.950 . S
C394 C393 1.387 . S
C394 C397 1.387 . S
H395 C391 0.950 . S
H396 C393 0.950 . S
C397 C388 1.390 . S
C397 H390 0.950 . S
C397 C394 1.387 . S
C398 C399 1.387 . S
C398 H402 0.950 . S
C398 C407 1.390 . S
C399 C398 1.387 . S
C399 C401 1.387 . S
H400 C407 0.950 . S
C401 C399 1.387 . S
C401 C403 1.390 . S
C401 H405 0.950 . S
H402 C398 0.950 . S
C403 C401 1.390 . S
C403 C404 1.387 . S
C403 H406 0.950 . S
C404 C403 1.387 . S
C404 C407 1.387 . S
H405 C401 0.950 . S
H406 C403 0.950 . S
C407 C398 1.390 . S
C407 H400 0.950 . S
C407 C404 1.387 . S
C408 C409 1.387 . S
C408 H412 0.950 . S
C408 C417 1.390 . S
C409 C408 1.387 . S
C409 C411 1.387 1_455 S
H410 C417 0.950 . S
C411 C409 1.387 1_655 S
C411 C413 1.387 1_655 S
C411 H415 0.950 . S
H412 C408 0.950 . S
C413 C411 1.387 1_455 S
C413 C414 1.399 . S
C413 H416 0.943 1_455 S
C414 C413 1.399 . S
C414 C417 1.387 . S
H415 C411 0.950 . S
H416 C413 0.943 1_655 S
C417 C408 1.390 . S
C417 H410 0.950 . S
C417 C414 1.387 . S
C418 C419 1.387 . S
C418 H422 0.950 . S
C418 C427 1.390 . S
C419 C418 1.387 . S
C419 C421 1.387 1_545 S
H420 C427 0.950 . S
C421 C419 1.387 1_565 S
C421 C423 1.392 . S
C421 H425 0.950 . S
H422 C418 0.950 . S
C423 C421 1.392 . S
C423 C424 1.382 1_565 S
C423 H426 0.954 . S
C424 C423 1.382 1_545 S
C424 C427 1.387 . S
H425 C421 0.950 . S
H426 C423 0.954 . S
C427 C418 1.390 . S
C427 H420 0.950 . S
C427 C424 1.387 . S
C428 C429 1.387 . S
C428 H432 0.950 . S
C428 C437 1.390 . S
C429 C428 1.387 . S
C429 C431 1.387 . S
H430 C437 0.950 . S
C431 C429 1.387 . S
C431 C433 1.390 . S
C431 H435 0.950 . S
H432 C428 0.950 . S
C433 C431 1.390 . S
C433 C434 1.387 . S
C433 H436 0.950 . S
C434 C433 1.387 . S
C434 C437 1.387 . S
H435 C431 0.950 . S
H436 C433 0.950 . S
C437 C428 1.390 . S
C437 H430 0.950 . S
C437 C434 1.387 . S
C438 C439 1.387 . S
C438 H442 0.950 . S
C438 C447 1.390 . S
C439 C438 1.387 . S
C439 C441 1.387 . S
H440 C447 0.950 . S
C441 C439 1.387 . S
C441 C443 1.390 . S
C441 H445 0.950 . S
H442 C438 0.950 . S
C443 C441 1.390 . S
C443 C444 1.387 . S
C443 H446 0.950 . S
C444 C443 1.387 . S
C444 C447 1.387 . S
H445 C441 0.950 . S
H446 C443 0.950 . S
C447 C438 1.390 . S
C447 H440 0.950 . S
C447 C444 1.387 . S
C448 C449 1.387 . S
C448 H452 0.950 . S
C448 C457 1.390 . S
C449 C448 1.387 . S
C449 C451 1.387 1_655 S
H450 C457 0.950 . S
C451 C449 1.387 1_455 S
C451 C453 1.390 . S
C451 H455 0.950 . S
H452 C448 0.950 . S
C453 C451 1.390 . S
C453 C454 1.387 1_455 S
C453 H456 0.950 . S
C454 C453 1.387 1_655 S
C454 C457 1.387 . S
H455 C451 0.950 . S
H456 C453 0.950 . S
C457 C448 1.390 . S
C457 H450 0.950 . S
C457 C454 1.387 . S
C458 C459 1.387 . S
C458 H462 0.950 . S
C458 C467 1.390 . S
C459 C458 1.387 . S
C459 C461 1.387 1_565 S
H460 C467 0.950 . S
C461 C459 1.387 1_545 S
C461 C463 1.390 . S
C461 H465 0.950 . S
H462 C458 0.950 . S
C463 C461 1.390 . S
C463 C464 1.387 1_545 S
C463 H466 0.950 . S
C464 C463 1.387 1_565 S
C464 C467 1.387 . S
H465 C461 0.950 . S
H466 C463 0.950 . S
C467 C458 1.390 . S
C467 H460 0.950 . S
C467 C464 1.387 . S
C468 C469 1.387 . S
C468 H472 0.950 . S
C468 C477 1.390 . S
C469 C468 1.387 . S
C469 C471 1.387 . S
H470 C477 0.950 . S
C471 C469 1.387 . S
C471 C473 1.390 . S
C471 H475 0.950 . S
H472 C468 0.950 . S
C473 C471 1.390 . S
C473 C474 1.387 . S
C473 H476 0.950 . S
C474 C473 1.387 . S
C474 C477 1.387 . S
H475 C471 0.950 . S
H476 C473 0.950 . S
C477 C468 1.390 . S
C477 H470 0.950 . S
C477 C474 1.387 . S
C478 C479 1.387 . S
C478 H482 0.950 . S
C478 C487 1.390 . S
C479 C478 1.387 . S
C479 C481 1.387 . S
H480 C487 0.950 . S
C481 C479 1.387 . S
C481 C483 1.390 . S
C481 H485 0.950 . S
H482 C478 0.950 . S
C483 C481 1.390 . S
C483 C484 1.387 . S
C483 H486 0.950 . S
C484 C483 1.387 . S
C484 C487 1.387 . S
H485 C481 0.950 . S
H486 C483 0.950 . S
C487 C478 1.390 . S
C487 H480 0.950 . S
C487 C484 1.387 . S
C249 C74 1.930 . S
C254 C98 2.128 1_545 S
C264 C138 2.139 . S
C259 C85 1.932 . S
C274 C178 2.144 . S
C269 C52 1.940 . S
C284 C218 2.134 1_455 S
C279 C63 1.940 . S
C294 C107 2.131 1_564 S
C289 C30 1.937 1_565 S
C299 C41 1.948 . S
C304 C147 2.141 1_554 S
C309 C8 1.955 . S
C314 C187 2.144 1_554 S
C319 C19 1.939 1_655 S
C324 C227 2.134 1_654 S
C334 C104 0.892 . S
C329 C62 0.933 1_655 S
C344 C144 0.891 . S
C339 C73 0.935 1_565 S
C354 C184 0.885 . S
C349 C84 0.924 . S
C359 C51 0.923 . S
C364 C224 0.876 . S
C369 C18 0.869 . S
C374 C95 0.895 . S
C384 C135 0.892 . S
C379 C29 0.869 . S
C394 C175 0.878 . S
C389 C40 0.859 . S
C399 C7 0.858 . S
C404 C215 0.880 . S
C409 C60 1.930 . S
C414 C99 2.573 . S
C419 C71 1.908 . S
C424 C139 2.556 . S
C434 C179 2.548 . S
C429 C82 1.878 . S
C444 C219 2.569 . S
C439 C49 1.896 . S
C449 C16 2.051 1_655 S
C454 C90 2.581 . S
C464 C130 2.555 . S
C459 C27 2.032 1_565 S
C474 C170 2.547 . S
C469 C38 2.053 . S
C479 C5 2.068 . S
C484 C210 2.574 . S
