# Generated by pormake.
# Topology gar, (4,6)-cn, num edge types: 1
# Building blocks:
#     Node 0, Type 0, BuildingBlock: QUQFOY_clean_sbu_3, # of connection points: 4
#     Node 1, Type 0, BuildingBlock: QUQFOY_clean_sbu_3, # of connection points: 4
#     Node 2, Type 0, BuildingBlock: QUQFOY_clean_sbu_3, # of connection points: 4
#     Node 3, Type 0, BuildingBlock: QUQFOY_clean_sbu_3, # of connection points: 4
#     Node 4, Type 0, BuildingBlock: QUQFOY_clean_sbu_3, # of connection points: 4
#     Node 5, Type 0, BuildingBlock: QUQFOY_clean_sbu_3, # of connection points: 4
#     Node 6, Type 0, BuildingBlock: QUQFOY_clean_sbu_3, # of connection points: 4
#     Node 7, Type 0, BuildingBlock: QUQFOY_clean_sbu_3, # of connection points: 4
#     Node 8, Type 0, BuildingBlock: QUQFOY_clean_sbu_3, # of connection points: 4
#     Node 9, Type 0, BuildingBlock: QUQFOY_clean_sbu_3, # of connection points: 4
#     Node 10, Type 0, BuildingBlock: QUQFOY_clean_sbu_3, # of connection points: 4
#     Node 11, Type 0, BuildingBlock: QUQFOY_clean_sbu_3, # of connection points: 4
#     Node 12, Type 0, BuildingBlock: QUQFOY_clean_sbu_3, # of connection points: 4
#     Node 13, Type 0, BuildingBlock: QUQFOY_clean_sbu_3, # of connection points: 4
#     Node 14, Type 0, BuildingBlock: QUQFOY_clean_sbu_3, # of connection points: 4
#     Node 15, Type 0, BuildingBlock: QUQFOY_clean_sbu_3, # of connection points: 4
#     Node 16, Type 0, BuildingBlock: QUQFOY_clean_sbu_3, # of connection points: 4
#     Node 17, Type 0, BuildingBlock: QUQFOY_clean_sbu_3, # of connection points: 4
#     Node 18, Type 0, BuildingBlock: QUQFOY_clean_sbu_3, # of connection points: 4
#     Node 19, Type 0, BuildingBlock: QUQFOY_clean_sbu_3, # of connection points: 4
#     Node 20, Type 0, BuildingBlock: QUQFOY_clean_sbu_3, # of connection points: 4
#     Node 21, Type 0, BuildingBlock: QUQFOY_clean_sbu_3, # of connection points: 4
#     Node 22, Type 0, BuildingBlock: QUQFOY_clean_sbu_3, # of connection points: 4
#     Node 23, Type 0, BuildingBlock: QUQFOY_clean_sbu_3, # of connection points: 4
#     Node 24, Type 1, BuildingBlock: MIFKUJ_clean_sbu_0, # of connection points: 6
#     Node 25, Type 1, BuildingBlock: MIFKUJ_clean_sbu_0, # of connection points: 6
#     Node 26, Type 1, BuildingBlock: MIFKUJ_clean_sbu_0, # of connection points: 6
#     Node 27, Type 1, BuildingBlock: MIFKUJ_clean_sbu_0, # of connection points: 6
#     Node 28, Type 1, BuildingBlock: MIFKUJ_clean_sbu_0, # of connection points: 6
#     Node 29, Type 1, BuildingBlock: MIFKUJ_clean_sbu_0, # of connection points: 6
#     Node 30, Type 1, BuildingBlock: MIFKUJ_clean_sbu_0, # of connection points: 6
#     Node 31, Type 1, BuildingBlock: MIFKUJ_clean_sbu_0, # of connection points: 6
#     Node 32, Type 1, BuildingBlock: MIFKUJ_clean_sbu_0, # of connection points: 6
#     Node 33, Type 1, BuildingBlock: MIFKUJ_clean_sbu_0, # of connection points: 6
#     Node 34, Type 1, BuildingBlock: MIFKUJ_clean_sbu_0, # of connection points: 6
#     Node 35, Type 1, BuildingBlock: MIFKUJ_clean_sbu_0, # of connection points: 6
#     Node 36, Type 1, BuildingBlock: MIFKUJ_clean_sbu_0, # of connection points: 6
#     Node 37, Type 1, BuildingBlock: MIFKUJ_clean_sbu_0, # of connection points: 6
#     Node 38, Type 1, BuildingBlock: MIFKUJ_clean_sbu_0, # of connection points: 6
#     Node 39, Type 1, BuildingBlock: MIFKUJ_clean_sbu_0, # of connection points: 6
#     Edge 40, Type (0, 1), BuildingBlock: CIFDUS_clean_linker_0, # of connection points: 2
#     Edge 41, Type (0, 1), BuildingBlock: CIFDUS_clean_linker_0, # of connection points: 2
#     Edge 42, Type (0, 1), BuildingBlock: CIFDUS_clean_linker_0, # of connection points: 2
#     Edge 43, Type (0, 1), BuildingBlock: CIFDUS_clean_linker_0, # of connection points: 2
#     Edge 44, Type (0, 1), BuildingBlock: CIFDUS_clean_linker_0, # of connection points: 2
#     Edge 45, Type (0, 1), BuildingBlock: CIFDUS_clean_linker_0, # of connection points: 2
#     Edge 46, Type (0, 1), BuildingBlock: CIFDUS_clean_linker_0, # of connection points: 2
#     Edge 47, Type (0, 1), BuildingBlock: CIFDUS_clean_linker_0, # of connection points: 2
#     Edge 48, Type (0, 1), BuildingBlock: CIFDUS_clean_linker_0, # of connection points: 2
#     Edge 49, Type (0, 1), BuildingBlock: CIFDUS_clean_linker_0, # of connection points: 2
#     Edge 50, Type (0, 1), BuildingBlock: CIFDUS_clean_linker_0, # of connection points: 2
#     Edge 51, Type (0, 1), BuildingBlock: CIFDUS_clean_linker_0, # of connection points: 2
#     Edge 52, Type (0, 1), BuildingBlock: CIFDUS_clean_linker_0, # of connection points: 2
#     Edge 53, Type (0, 1), BuildingBlock: CIFDUS_clean_linker_0, # of connection points: 2
#     Edge 54, Type (0, 1), BuildingBlock: CIFDUS_clean_linker_0, # of connection points: 2
#     Edge 55, Type (0, 1), BuildingBlock: CIFDUS_clean_linker_0, # of connection points: 2
#     Edge 56, Type (0, 1), BuildingBlock: CIFDUS_clean_linker_0, # of connection points: 2
#     Edge 57, Type (0, 1), BuildingBlock: CIFDUS_clean_linker_0, # of connection points: 2
#     Edge 58, Type (0, 1), BuildingBlock: CIFDUS_clean_linker_0, # of connection points: 2
#     Edge 59, Type (0, 1), BuildingBlock: CIFDUS_clean_linker_0, # of connection points: 2
#     Edge 60, Type (0, 1), BuildingBlock: CIFDUS_clean_linker_0, # of connection points: 2
#     Edge 61, Type (0, 1), BuildingBlock: CIFDUS_clean_linker_0, # of connection points: 2
#     Edge 62, Type (0, 1), BuildingBlock: CIFDUS_clean_linker_0, # of connection points: 2
#     Edge 63, Type (0, 1), BuildingBlock: CIFDUS_clean_linker_0, # of connection points: 2
#     Edge 64, Type (0, 1), BuildingBlock: CIFDUS_clean_linker_0, # of connection points: 2
#     Edge 65, Type (0, 1), BuildingBlock: CIFDUS_clean_linker_0, # of connection points: 2
#     Edge 66, Type (0, 1), BuildingBlock: CIFDUS_clean_linker_0, # of connection points: 2
#     Edge 67, Type (0, 1), BuildingBlock: CIFDUS_clean_linker_0, # of connection points: 2
#     Edge 68, Type (0, 1), BuildingBlock: CIFDUS_clean_linker_0, # of connection points: 2
#     Edge 69, Type (0, 1), BuildingBlock: CIFDUS_clean_linker_0, # of connection points: 2
#     Edge 70, Type (0, 1), BuildingBlock: CIFDUS_clean_linker_0, # of connection points: 2
#     Edge 71, Type (0, 1), BuildingBlock: CIFDUS_clean_linker_0, # of connection points: 2
#     Edge 72, Type (0, 1), BuildingBlock: CIFDUS_clean_linker_0, # of connection points: 2
#     Edge 73, Type (0, 1), BuildingBlock: CIFDUS_clean_linker_0, # of connection points: 2
#     Edge 74, Type (0, 1), BuildingBlock: CIFDUS_clean_linker_0, # of connection points: 2
#     Edge 75, Type (0, 1), BuildingBlock: CIFDUS_clean_linker_0, # of connection points: 2
#     Edge 76, Type (0, 1), BuildingBlock: CIFDUS_clean_linker_0, # of connection points: 2
#     Edge 77, Type (0, 1), BuildingBlock: CIFDUS_clean_linker_0, # of connection points: 2
#     Edge 78, Type (0, 1), BuildingBlock: CIFDUS_clean_linker_0, # of connection points: 2
#     Edge 79, Type (0, 1), BuildingBlock: CIFDUS_clean_linker_0, # of connection points: 2
#     Edge 80, Type (0, 1), BuildingBlock: CIFDUS_clean_linker_0, # of connection points: 2
#     Edge 81, Type (0, 1), BuildingBlock: CIFDUS_clean_linker_0, # of connection points: 2
#     Edge 82, Type (0, 1), BuildingBlock: CIFDUS_clean_linker_0, # of connection points: 2
#     Edge 83, Type (0, 1), BuildingBlock: CIFDUS_clean_linker_0, # of connection points: 2
#     Edge 84, Type (0, 1), BuildingBlock: CIFDUS_clean_linker_0, # of connection points: 2
#     Edge 85, Type (0, 1), BuildingBlock: CIFDUS_clean_linker_0, # of connection points: 2
#     Edge 86, Type (0, 1), BuildingBlock: CIFDUS_clean_linker_0, # of connection points: 2
#     Edge 87, Type (0, 1), BuildingBlock: CIFDUS_clean_linker_0, # of connection points: 2
#     Edge 88, Type (0, 1), BuildingBlock: CIFDUS_clean_linker_0, # of connection points: 2
#     Edge 89, Type (0, 1), BuildingBlock: CIFDUS_clean_linker_0, # of connection points: 2
#     Edge 90, Type (0, 1), BuildingBlock: CIFDUS_clean_linker_0, # of connection points: 2
#     Edge 91, Type (0, 1), BuildingBlock: CIFDUS_clean_linker_0, # of connection points: 2
#     Edge 92, Type (0, 1), BuildingBlock: CIFDUS_clean_linker_0, # of connection points: 2
#     Edge 93, Type (0, 1), BuildingBlock: CIFDUS_clean_linker_0, # of connection points: 2
#     Edge 94, Type (0, 1), BuildingBlock: CIFDUS_clean_linker_0, # of connection points: 2
#     Edge 95, Type (0, 1), BuildingBlock: CIFDUS_clean_linker_0, # of connection points: 2
#     Edge 96, Type (0, 1), BuildingBlock: CIFDUS_clean_linker_0, # of connection points: 2
#     Edge 97, Type (0, 1), BuildingBlock: CIFDUS_clean_linker_0, # of connection points: 2
#     Edge 98, Type (0, 1), BuildingBlock: CIFDUS_clean_linker_0, # of connection points: 2
#     Edge 99, Type (0, 1), BuildingBlock: CIFDUS_clean_linker_0, # of connection points: 2
#     Edge 100, Type (0, 1), BuildingBlock: CIFDUS_clean_linker_0, # of connection points: 2
#     Edge 101, Type (0, 1), BuildingBlock: CIFDUS_clean_linker_0, # of connection points: 2
#     Edge 102, Type (0, 1), BuildingBlock: CIFDUS_clean_linker_0, # of connection points: 2
#     Edge 103, Type (0, 1), BuildingBlock: CIFDUS_clean_linker_0, # of connection points: 2
#     Edge 104, Type (0, 1), BuildingBlock: CIFDUS_clean_linker_0, # of connection points: 2
#     Edge 105, Type (0, 1), BuildingBlock: CIFDUS_clean_linker_0, # of connection points: 2
#     Edge 106, Type (0, 1), BuildingBlock: CIFDUS_clean_linker_0, # of connection points: 2
#     Edge 107, Type (0, 1), BuildingBlock: CIFDUS_clean_linker_0, # of connection points: 2
#     Edge 108, Type (0, 1), BuildingBlock: CIFDUS_clean_linker_0, # of connection points: 2
#     Edge 109, Type (0, 1), BuildingBlock: CIFDUS_clean_linker_0, # of connection points: 2
#     Edge 110, Type (0, 1), BuildingBlock: CIFDUS_clean_linker_0, # of connection points: 2
#     Edge 111, Type (0, 1), BuildingBlock: CIFDUS_clean_linker_0, # of connection points: 2
#     Edge 112, Type (0, 1), BuildingBlock: CIFDUS_clean_linker_0, # of connection points: 2
#     Edge 113, Type (0, 1), BuildingBlock: CIFDUS_clean_linker_0, # of connection points: 2
#     Edge 114, Type (0, 1), BuildingBlock: CIFDUS_clean_linker_0, # of connection points: 2
#     Edge 115, Type (0, 1), BuildingBlock: CIFDUS_clean_linker_0, # of connection points: 2
#     Edge 116, Type (0, 1), BuildingBlock: CIFDUS_clean_linker_0, # of connection points: 2
#     Edge 117, Type (0, 1), BuildingBlock: CIFDUS_clean_linker_0, # of connection points: 2
#     Edge 118, Type (0, 1), BuildingBlock: CIFDUS_clean_linker_0, # of connection points: 2
#     Edge 119, Type (0, 1), BuildingBlock: CIFDUS_clean_linker_0, # of connection points: 2
#     Edge 120, Type (0, 1), BuildingBlock: CIFDUS_clean_linker_0, # of connection points: 2
#     Edge 121, Type (0, 1), BuildingBlock: CIFDUS_clean_linker_0, # of connection points: 2
#     Edge 122, Type (0, 1), BuildingBlock: CIFDUS_clean_linker_0, # of connection points: 2
#     Edge 123, Type (0, 1), BuildingBlock: CIFDUS_clean_linker_0, # of connection points: 2
#     Edge 124, Type (0, 1), BuildingBlock: CIFDUS_clean_linker_0, # of connection points: 2
#     Edge 125, Type (0, 1), BuildingBlock: CIFDUS_clean_linker_0, # of connection points: 2
#     Edge 126, Type (0, 1), BuildingBlock: CIFDUS_clean_linker_0, # of connection points: 2
#     Edge 127, Type (0, 1), BuildingBlock: CIFDUS_clean_linker_0, # of connection points: 2
#     Edge 128, Type (0, 1), BuildingBlock: CIFDUS_clean_linker_0, # of connection points: 2
#     Edge 129, Type (0, 1), BuildingBlock: CIFDUS_clean_linker_0, # of connection points: 2
#     Edge 130, Type (0, 1), BuildingBlock: CIFDUS_clean_linker_0, # of connection points: 2
#     Edge 131, Type (0, 1), BuildingBlock: CIFDUS_clean_linker_0, # of connection points: 2
#     Edge 132, Type (0, 1), BuildingBlock: CIFDUS_clean_linker_0, # of connection points: 2
#     Edge 133, Type (0, 1), BuildingBlock: CIFDUS_clean_linker_0, # of connection points: 2
#     Edge 134, Type (0, 1), BuildingBlock: CIFDUS_clean_linker_0, # of connection points: 2
#     Edge 135, Type (0, 1), BuildingBlock: CIFDUS_clean_linker_0, # of connection points: 2
# Relax obj value: 0.099
# Max RMSD: 0.295
# Mean RMSD: 0.128
data_MOF--net-gar--node1-QUQFOY_clean_sbu_3--node2-MIFKUJ_clean_sbu_0--edge1-CIFDUS_clean_linker_0
_symmetry_space_group_name_H-M    P1
_symmetry_Int_Tables_number       1
_symmetry_cell_setting            triclinic
loop_
_symmetry_equiv_pos_as_xyz
'x, y, z'
_cell_length_a     50.323701
_cell_length_b     51.38481
_cell_length_c     48.866982
_cell_angle_alpha  95.763852
_cell_angle_beta   94.665062
_cell_angle_gamma 99.753129
loop_
_atom_site_label
_atom_site_type_symbol
_atom_site_fract_x
_atom_site_fract_y
_atom_site_fract_z
_atom_type_partial_charge
C0 C 0.97825 0.27883 0.35029 0.0
O1 O -0.00482 0.29423 0.33867 0.0
Cd2 Cd 0.04316 0.30267 0.35253 0.0
O3 O 0.98618 0.26636 0.36978 0.0
Cd4 Cd 0.02816 0.26094 0.39634 0.0
C5 C 0.04115 0.32677 0.42001 0.0
O6 O 0.05428 0.25971 0.35662 0.0
O7 O 0.07693 0.26178 0.39642 0.0
O8 O 0.01117 0.21382 0.39789 0.0
C9 C 0.07663 0.25929 0.3703 0.0
O10 O 0.04918 0.33135 0.39663 0.0
C11 C 0.01459 0.21484 0.42405 0.0
O12 O 0.03099 0.30339 0.42455 0.0
O13 O 0.02364 0.23751 0.43746 0.0
C14 C 0.96406 0.71525 0.68016 0.0
O15 O 0.98241 0.70301 0.6888 0.0
Cd16 Cd 0.0259 0.70474 0.67188 0.0
O17 O 0.9674 0.72909 0.66003 0.0
Cd18 Cd 0.00313 0.74121 0.62847 0.0
C19 C 0.0083 0.67899 0.60338 0.0
O20 O 0.04039 0.7498 0.66565 0.0
O21 O 0.05185 0.75136 0.6243 0.0
O22 O 0.98639 0.78305 0.63087 0.0
C23 C 0.05911 0.75401 0.64999 0.0
O24 O 0.02078 0.67857 0.62702 0.0
C25 C 0.98883 0.78691 0.6059 0.0
O26 O -0.00358 0.69826 0.59824 0.0
O27 O -0.00312 0.76884 0.59074 0.0
C28 C 0.47727 0.76873 0.85257 0.0
O29 O 0.49122 0.77892 0.83452 0.0
Cd30 Cd 0.53986 0.78865 0.84195 0.0
O31 O 0.48883 0.76169 0.87408 0.0
Cd32 Cd 0.5333 0.75884 0.89734 0.0
C33 C 0.54451 0.82588 0.90597 0.0
O34 O 0.5533 0.74856 0.85459 0.0
O35 O 0.58044 0.7557 0.89216 0.0
O36 O 0.50999 0.71646 0.90842 0.0
C37 C 0.57694 0.74943 0.86619 0.0
O38 O 0.54667 0.82451 0.88008 0.0
C39 C 0.52001 0.71952 0.93348 0.0
O40 O 0.53932 0.80488 0.91776 0.0
O41 O 0.53627 0.74111 0.94188 0.0
C42 C 0.45857 0.24676 0.16406 0.0
O43 O 0.47334 0.23456 0.17857 0.0
Cd44 Cd 0.51348 0.22048 0.16415 0.0
O45 O 0.46479 0.25259 0.14035 0.0
Cd46 Cd 0.5014 0.24838 0.10965 0.0
C47 C 0.49237 0.18163 0.10148 0.0
O48 O 0.53833 0.25719 0.14601 0.0
O49 O 0.54839 0.24325 0.10552 0.0
O50 O 0.5111 0.29317 0.09777 0.0
C51 C 0.55629 0.25193 0.1306 0.0
O52 O 0.50128 0.18403 0.12695 0.0
C53 C 0.49895 0.28824 0.0736 0.0
O54 O 0.48878 0.20193 0.08969 0.0
O55 O 0.48702 0.26452 0.06588 0.0
C56 C 0.98735 0.77011 0.18745 0.0
O57 O 0.00253 0.75707 0.20043 0.0
Cd58 Cd 0.04772 0.75241 0.19164 0.0
O59 O -0.00482 0.78192 0.16697 0.0
Cd60 Cd 0.03508 0.78775 0.13978 0.0
C61 C 0.0329 0.72097 0.12534 0.0
O62 O 0.0676 0.79478 0.18024 0.0
O63 O 0.08491 0.79313 0.14164 0.0
O64 O 0.02426 0.83036 0.12792 0.0
C65 C 0.08866 0.79506 0.16776 0.0
O66 O 0.04172 0.7203 0.15041 0.0
C67 C 0.02584 0.82518 0.10215 0.0
O68 O 0.02726 0.7423 0.11705 0.0
O69 O 0.03181 0.80281 0.09414 0.0
C70 C 0.45272 0.74721 0.3357 0.0
O71 O 0.4699 0.76069 0.32264 0.0
Cd72 Cd 0.51429 0.78118 0.34189 0.0
O73 O 0.45915 0.74184 0.36007 0.0
Cd74 Cd 0.50052 0.74783 0.39387 0.0
C75 C 0.50065 0.81402 0.40347 0.0
O76 O 0.53265 0.7462 0.35978 0.0
O77 O 0.55044 0.75897 0.4016 0.0
O78 O 0.49561 0.70146 0.40269 0.0
C79 C 0.55384 0.75318 0.37643 0.0
O80 O 0.50755 0.81437 0.37897 0.0
C81 C 0.49209 0.70562 0.42807 0.0
O82 O 0.49634 0.79234 0.41429 0.0
O83 O 0.49161 0.72944 0.43761 0.0
C84 C 0.48902 0.2707 0.69878 0.0
O85 O 0.50572 0.2642 0.71665 0.0
Cd86 Cd 0.55069 0.25943 0.7059 0.0
O87 O 0.4963 0.27665 0.67548 0.0
Cd88 Cd 0.53322 0.28364 0.64543 0.0
C89 C 0.53132 0.21695 0.64379 0.0
O90 O 0.56765 0.29677 0.68361 0.0
O91 O 0.58251 0.29186 0.64369 0.0
O92 O 0.51616 0.3243 0.64401 0.0
C93 C 0.58784 0.2966 0.66974 0.0
O94 O 0.54023 0.22243 0.66928 0.0
C95 C 0.51556 0.32548 0.61818 0.0
O96 O 0.52595 0.23515 0.62925 0.0
O97 O 0.52324 0.30651 0.60382 0.0
C98 C 0.95016 0.24239 0.84171 0.0
O99 O 0.96539 0.25202 0.82438 0.0
Cd100 Cd 0.01108 0.27387 0.83639 0.0
O101 O 0.95967 0.24132 0.8665 0.0
Cd102 Cd 0.00432 0.25064 0.89497 0.0
C103 C 0.0023 0.31562 0.89437 0.0
O104 O 0.03389 0.24418 0.85879 0.0
O105 O 0.0535 0.264 0.89818 0.0
O106 O -0.00126 0.20551 0.90612 0.0
C107 C 0.05565 0.25433 0.87373 0.0
O108 O 0.00727 0.31151 0.8693 0.0
C109 C 0.00182 0.21112 0.9322 0.0
O110 O -0.00077 0.29663 0.90941 0.0
O111 O 0.00465 0.23556 0.94152 0.0
C112 C 0.43169 0.02122 0.31835 0.0
O113 O 0.4472 0.01329 0.30131 0.0
Cd114 Cd 0.4333 -0.00289 0.25417 0.0
O115 O 0.40728 0.02294 0.31045 0.0
Cd116 Cd 0.37445 0.01816 0.2682 0.0
C117 C 0.37459 0.95211 0.26404 0.0
O118 O 0.40998 0.02965 0.23933 0.0
O119 O 0.37041 0.01663 0.21748 0.0
O120 O 0.36689 0.05993 0.29092 0.0
C121 C 0.39556 0.02419 0.2164 0.0
O122 O 0.39874 0.95862 0.25776 0.0
C123 C 0.34246 0.05798 0.28098 0.0
O124 O 0.36024 0.96978 0.2701 0.0
O125 O 0.33187 0.03657 0.26582 0.0
C126 C 0.29021 0.08351 0.50398 0.0
O127 O 0.27389 0.07112 0.51878 0.0
Cd128 Cd 0.23017 0.08245 0.52639 0.0
O129 O 0.28394 0.10294 0.49215 0.0
Cd130 Cd 0.24684 0.12863 0.48744 0.0
C131 C 0.25186 0.1463 0.55681 0.0
O132 O 0.20951 0.0907 0.48307 0.0
O133 O 0.19819 0.12931 0.48806 0.0
O134 O 0.25573 0.13308 0.43971 0.0
C135 C 0.19076 0.10425 0.4846 0.0
O136 O 0.23929 0.12301 0.55894 0.0
C137 C 0.25974 0.15833 0.44218 0.0
O138 O 0.25916 0.15284 0.53372 0.0
O139 O 0.25758 0.17002 0.46586 0.0
C140 C 0.10098 0.01533 0.83596 0.0
O141 O 0.08699 0.02502 0.81811 0.0
Cd142 Cd 0.10196 0.03505 0.77436 0.0
O143 O 0.12344 0.0086 0.83041 0.0
Cd144 Cd 0.15049 0.00516 0.78912 0.0
C145 C 0.16745 0.07135 0.79114 0.0
O146 O 0.11262 -0.00432 0.75162 0.0
O147 O 0.153 0.00582 0.73958 0.0
O148 O 0.15312 0.96081 0.80137 0.0
C149 C 0.12789 -0.00139 0.73232 0.0
O150 O 0.14269 0.0693 0.78179 0.0
C151 C 0.17759 0.96105 0.79672 0.0
O152 O 0.17655 0.05106 0.79829 0.0
O153 O 0.19027 0.98237 0.78943 0.0
C154 C 0.2947 0.91109 0.01294 0.0
O155 O 0.28251 0.92813 0.00272 0.0
Cd156 Cd 0.23425 0.91975 -0.00788 0.0
O157 O 0.28137 0.88958 0.01934 0.0
Cd158 Cd 0.23466 0.86588 0.01983 0.0
C159 C 0.22973 0.86064 0.95043 0.0
O160 O 0.21534 0.90524 0.03286 0.0
O161 O 0.18711 0.86866 0.02028 0.0
O162 O 0.25306 0.8519 0.0622 0.0
C163 C 0.19101 0.89301 0.02975 0.0
O164 O 0.22837 0.88529 0.95257 0.0
C165 C 0.23935 0.82849 0.05801 0.0
O166 O 0.23276 0.84883 0.9718 0.0
O167 O 0.22361 0.8223 0.03582 0.0
C168 C 0.30744 0.4301 0.03765 0.0
O169 O 0.29124 0.43997 0.02216 0.0
Cd170 Cd 0.24636 0.4196 0.00515 0.0
O171 O 0.29989 0.40808 0.0473 0.0
Cd172 Cd 0.25601 0.37567 0.0475 0.0
C173 C 0.25693 0.35742 0.97874 0.0
O174 O 0.22837 0.40982 0.04702 0.0
O175 O 0.20561 0.3701 0.04212 0.0
O176 O 0.26577 0.37129 0.09671 0.0
C177 C 0.20548 0.39486 0.04446 0.0
O178 O 0.25149 0.38015 0.97468 0.0
C179 C 0.26086 0.34601 0.09391 0.0
O180 O 0.25995 0.3509 0.00309 0.0
O181 O 0.25456 0.33454 0.06943 0.0
C182 C 0.805 0.09531 0.03224 0.0
O183 O 0.78857 0.0791 0.04347 0.0
Cd184 Cd 0.74923 0.09344 0.06023 0.0
O185 O 0.80029 0.11847 0.02921 0.0
Cd186 Cd 0.76787 0.14875 0.03483 0.0
C187 C 0.77583 0.15146 0.10387 0.0
O188 O 0.72998 0.11243 0.02226 0.0
O189 O 0.71983 0.15092 0.03409 0.0
O190 O 0.78679 0.15819 -0.00743 0.0
C191 C 0.71187 0.1265 0.02569 0.0
O192 O 0.76414 0.12717 0.10011 0.0
C193 C 0.78278 0.18192 -0.00665 0.0
O194 O 0.78121 0.16427 0.08341 0.0
O195 O 0.77235 0.19105 0.01426 0.0
C196 C 0.06707 0.49185 0.28598 0.0
O197 O 0.05388 0.49779 0.26493 0.0
Cd198 Cd 0.06768 0.49836 0.21985 0.0
O199 O 0.09056 0.48564 0.28465 0.0
Cd200 Cd 0.12396 0.48145 0.24967 0.0
C201 C 0.12523 0.54635 0.23806 0.0
O202 O 0.08786 0.45989 0.21582 0.0
O203 O 0.1258 0.46908 0.19929 0.0
O204 O 0.14131 0.44742 0.2748 0.0
C205 C 0.10075 0.45936 0.19481 0.0
O206 O 0.10149 0.53917 0.22552 0.0
C207 C 0.16598 0.45544 0.27124 0.0
O208 O 0.13731 0.52975 0.24952 0.0
O209 O 0.17097 0.47577 0.25847 0.0
C210 C 0.80641 0.92841 0.53481 0.0
O211 O 0.79229 0.93982 0.51869 0.0
Cd212 Cd 0.74706 0.92137 0.50024 0.0
O213 O 0.79598 0.90702 0.54407 0.0
Cd214 Cd 0.75074 0.87742 0.54299 0.0
C215 C 0.75644 0.85821 0.47558 0.0
O216 O 0.72398 0.91256 0.53982 0.0
O217 O 0.70105 0.87275 0.53356 0.0
O218 O 0.76031 0.87732 0.59276 0.0
C219 C 0.70104 0.89753 0.53551 0.0
O220 O 0.75221 0.88125 0.47116 0.0
C221 C 0.75402 0.85232 0.59282 0.0
O222 O 0.75736 0.85141 0.49996 0.0
O223 O 0.7464 0.83867 0.5695 0.0
C224 C 0.9211 0.98566 0.30164 0.0
O225 O 0.93374 0.96981 0.28856 0.0
Cd226 Cd 0.92695 0.9607 0.23886 0.0
O227 O 0.90503 -0.00211 0.28857 0.0
Cd228 Cd 0.88763 0.00296 0.24079 0.0
C229 C 0.85829 0.93726 0.23052 0.0
O230 O 0.93166 0.00345 0.22206 0.0
O231 O 0.89777 0.00452 0.19241 0.0
O232 O 0.89111 0.04987 0.25669 0.0
C233 C 0.92312 0.00571 0.19745 0.0
O234 O 0.88219 0.93259 0.22879 0.0
C235 C 0.86674 0.05148 0.24923 0.0
O236 O 0.85433 0.96101 0.23591 0.0
O237 O 0.85148 0.03023 0.23785 0.0
C238 C 0.2888 0.56152 0.53894 0.0
O239 O 0.26975 0.55076 0.55185 0.0
Cd240 Cd 0.22935 0.56819 0.55806 0.0
O241 O 0.28794 0.58365 0.52948 0.0
Cd242 Cd 0.25734 0.61685 0.52779 0.0
C243 C 0.25431 0.62932 0.59575 0.0
O244 O 0.21716 0.58263 0.51487 0.0
O245 O 0.21032 0.62292 0.52224 0.0
O246 O 0.27591 0.62413 0.4843 0.0
C247 C 0.20065 0.59867 0.51474 0.0
O248 O 0.23999 0.60612 0.59319 0.0
C249 C 0.27446 0.64864 0.48595 0.0
O250 O 0.26593 0.63812 0.5755 0.0
O251 O 0.26669 0.65882 0.50796 0.0
C252 C 0.4338 0.50441 0.79451 0.0
O253 O 0.44893 0.49572 0.77752 0.0
Cd254 Cd 0.43486 0.48332 0.72943 0.0
O255 O 0.41076 0.5095 0.78594 0.0
Cd256 Cd 0.38282 0.50945 0.74069 0.0
C257 C 0.37411 0.44215 0.73557 0.0
O258 O 0.4203 0.52097 0.71188 0.0
O259 O 0.38088 0.50652 0.69003 0.0
O260 O 0.37166 0.55254 0.75864 0.0
C261 C 0.40565 0.51605 0.68896 0.0
O262 O 0.39863 0.44497 0.72989 0.0
C263 C 0.34645 0.54623 0.7509 0.0
O264 O 0.36306 0.46236 0.74103 0.0
O265 O 0.33816 0.52282 0.73892 0.0
C266 C 0.5843 0.99394 0.78845 0.0
O267 O 0.56988 0.00389 0.77116 0.0
Cd268 Cd 0.58228 0.01233 0.72616 0.0
O269 O 0.60665 0.98732 0.78244 0.0
Cd270 Cd 0.63707 0.98547 0.74518 0.0
C271 C 0.64466 0.05307 0.74682 0.0
O272 O 0.59927 0.9737 0.71042 0.0
O273 O 0.638 0.97953 0.69441 0.0
O274 O 0.64565 0.94416 0.76156 0.0
C275 C 0.61241 0.97446 0.68947 0.0
O276 O 0.62 0.0498 0.7367 0.0
C277 C 0.67127 0.94941 0.7618 0.0
O278 O 0.65552 0.03332 0.75263 0.0
O279 O 0.68124 0.97167 0.75426 0.0
C280 C 0.79561 0.58131 0.00274 0.0
O281 O 0.77855 0.56951 0.0172 0.0
Cd282 Cd 0.73419 0.58007 0.02035 0.0
O283 O 0.78961 0.59967 0.98889 0.0
Cd284 Cd 0.75125 0.62342 0.97877 0.0
C285 C 0.75151 0.64582 0.04679 0.0
O286 O 0.71706 0.58338 0.9739 0.0
O287 O 0.70116 0.61967 0.97552 0.0
O288 O 0.76357 0.62614 0.93155 0.0
C289 C 0.69647 0.59445 0.97256 0.0
O290 O 0.74052 0.62233 0.0503 0.0
C291 C 0.7651 0.65112 0.93209 0.0
O292 O 0.75901 0.65111 0.02339 0.0
O293 O 0.76011 0.66344 0.95442 0.0
C294 C 0.93638 0.52985 0.82633 0.0
O295 O 0.95191 0.5227 0.80896 0.0
Cd296 Cd 0.93845 0.50586 0.76223 0.0
O297 O 0.9115 0.53004 0.81888 0.0
Cd298 Cd 0.88135 0.52076 0.77441 0.0
C299 C 0.88549 0.45591 0.77168 0.0
O300 O 0.91425 0.53693 0.74413 0.0
O301 O 0.87958 0.50921 0.724 0.0
O302 O 0.8652 0.56244 0.77647 0.0
C303 C 0.90063 0.52605 0.72187 0.0
O304 O 0.90914 0.46329 0.76455 0.0
C305 C 0.84027 0.55285 0.77629 0.0
O306 O 0.87055 0.47291 0.77789 0.0
O307 O 0.83397 0.52793 0.77705 0.0
C308 C 0.78495 0.42103 0.49129 0.0
O309 O 0.76871 0.43307 0.47841 0.0
Cd310 Cd 0.7205 0.41694 0.47426 0.0
O311 O 0.77599 0.40054 0.50271 0.0
Cd312 Cd 0.73417 0.37182 0.51113 0.0
C313 C 0.71757 0.35347 0.44283 0.0
O314 O 0.71007 0.40823 0.52003 0.0
O315 O 0.68625 0.36881 0.51744 0.0
O316 O 0.756 0.36916 0.55633 0.0
C317 C 0.68752 0.39372 0.52221 0.0
O318 O 0.71222 0.37664 0.44101 0.0
C319 C 0.75107 0.34397 0.55478 0.0
O320 O 0.72716 0.34728 0.46567 0.0
O321 O 0.73834 0.33149 0.53252 0.0
C322 C 0.5851 0.51571 0.32577 0.0
O323 O 0.56961 0.5245 0.30853 0.0
Cd324 Cd 0.58293 0.5361 0.26493 0.0
O325 O 0.60794 0.51057 0.31935 0.0
Cd326 Cd 0.63454 0.50829 0.27776 0.0
C327 C 0.64728 0.57515 0.28281 0.0
O328 O 0.59533 0.49731 0.2427 0.0
O329 O 0.63395 0.50789 0.22709 0.0
O330 O 0.63705 0.46493 0.29174 0.0
C331 C 0.60854 0.50041 0.22194 0.0
O332 O 0.62208 0.57215 0.27482 0.0
C333 C 0.66179 0.4649 0.28852 0.0
O334 O 0.65831 0.55508 0.28688 0.0
O335 O 0.67481 0.48558 0.28019 0.0
Zn336 Zn 0.0377 0.00925 0.0332 0.0
Zn337 Zn 0.9836 0.02107 7e-05 0.0
C338 C 0.01396 0.95058 0.02291 0.0
O339 O 0.02372 0.94883 -0.00118 0.0
C340 C 0.00847 0.07982 0.00411 0.0
O341 O 0.00799 0.0825 0.03108 0.0
O342 O 0.07548 0.00435 0.04646 0.0
O343 O 0.03979 0.01824 -0.00645 0.0
O344 O 0.00015 -0.00462 0.97605 0.0
C345 C 0.08504 0.98971 0.02866 0.0
O346 O 0.07155 0.98249 0.00424 0.0
O347 O 0.0159 0.97318 0.03684 0.0
C348 C 0.93611 0.03845 -9e-05 0.0
O349 O 0.95405 0.0562 0.01585 0.0
O350 O 0.94361 0.01806 0.98818 0.0
O351 O 0.98262 0.01984 0.04095 0.0
O352 O 0.02386 0.03302 0.06214 0.0
O353 O 0.00049 0.05714 0.99024 0.0
C354 C 0.02454 0.00513 0.97297 0.0
C355 C -0.00171 0.02862 0.06277 0.0
Zn356 Zn 0.24214 0.74047 0.30441 0.0
Zn357 Zn 0.26305 0.75377 0.24963 0.0
C358 C 0.20713 0.69313 0.28131 0.0
O359 O 0.18995 0.70715 0.29157 0.0
C360 C 0.29847 0.80213 0.2617 0.0
O361 O 0.31358 0.78622 0.25064 0.0
O362 O 0.23741 0.7343 0.34395 0.0
O363 O 0.28212 0.75437 0.30694 0.0
O364 O 0.28797 0.73238 0.26782 0.0
C365 C 0.25227 0.71768 0.35052 0.0
O366 O 0.26536 0.70706 0.3314 0.0
O367 O 0.23211 0.70351 0.28323 0.0
C368 C 0.25669 0.76926 0.19807 0.0
O369 O 0.24054 0.78171 0.21214 0.0
O370 O 0.27052 0.75442 0.21 0.0
O371 O 0.22249 0.74324 0.24828 0.0
O372 O 0.2172 0.76349 0.28871 0.0
O373 O 0.27428 0.79238 0.26547 0.0
C374 C 0.29664 0.74168 0.29256 0.0
C375 C 0.2091 0.75688 0.26321 0.0
Zn376 Zn 0.48469 0.02387 0.52476 0.0
Zn377 Zn 0.53915 0.00611 0.50402 0.0
C378 C 0.50137 0.0702 0.56295 0.0
O379 O 0.49056 0.05342 0.57929 0.0
C380 C 0.5168 0.96465 0.46456 0.0
O381 O 0.53219 0.98156 0.45149 0.0
O382 O 0.44501 0.02373 0.52842 0.0
O383 O 0.48661 0.01749 0.48362 0.0
O384 O 0.52961 0.03227 0.47873 0.0
C385 C 0.43552 0.04044 0.51469 0.0
O386 O 0.45185 0.05532 0.5005 0.0
O387 O 0.50269 0.06179 0.53784 0.0
C388 C 0.57884 0.97607 0.512 0.0
O389 O 0.55786 0.96377 0.52283 0.0
O390 O 0.57668 -0.00276 0.50109 0.0
O391 O 0.53967 0.01766 0.54418 0.0
O392 O 0.49847 -0.00104 0.55014 0.0
O393 O 0.51455 0.97087 0.49004 0.0
C394 C 0.50469 0.02839 0.46955 0.0
C395 C 0.52363 0.00406 0.55815 0.0
Zn396 Zn 0.28783 0.25234 0.76058 0.0
Zn397 Zn 0.23484 0.27215 0.77113 0.0
C398 C 0.28039 0.22144 0.70822 0.0
O399 O 0.29856 0.21012 0.72094 0.0
C400 C 0.25761 0.27512 0.83219 0.0
O401 O 0.25134 0.24932 0.83273 0.0
O402 O 0.32716 0.24851 0.76177 0.0
O403 O 0.29045 0.29243 0.76896 0.0
O404 O 0.2522 0.29788 0.74699 0.0
C405 C 0.33928 0.26145 0.74415 0.0
O406 O 0.32537 0.2746 0.72826 0.0
O407 O 0.27204 0.24087 0.72084 0.0
C408 C 0.18661 0.26132 0.79282 0.0
O409 O 0.20155 0.24547 0.80332 0.0
O410 O 0.19613 0.27619 0.77533 0.0
O411 O 0.23171 0.23352 0.75797 0.0
O412 O 0.26697 0.22523 0.78253 0.0
O413 O 0.25324 0.28509 0.80982 0.0
C414 C 0.27703 0.30652 0.75519 0.0
C415 C 0.2428 0.21766 0.77137 0.0
Zn416 Zn 0.01265 0.97835 0.53391 0.0
Zn417 Zn -0.00093 0.03285 0.51192 0.0
C418 C 0.05057 0.98841 0.5812 0.0
O419 O 0.06463 0.97804 0.56282 0.0
C420 C 0.96709 0.0102 0.46361 0.0
O421 O 0.95198 0.02536 0.47592 0.0
O422 O 0.01242 0.93882 0.53271 0.0
O423 O 0.97267 0.98073 0.52867 0.0
O424 O 0.97025 0.02335 0.53663 0.0
C425 C -0.00178 0.92831 0.55049 0.0
O426 O 0.98577 0.94353 0.56634 0.0
O427 O 0.02693 0.99221 0.57344 0.0
C428 C 0.00915 0.07296 0.47768 0.0
O429 O 0.02141 0.0545 0.46654 0.0
O430 O -0.00232 0.0691 0.49956 0.0
O431 O 0.03727 0.03476 0.52737 0.0
O432 O 0.04006 -0.00528 0.509 0.0
O433 O 0.98951 0.00793 0.47634 0.0
C434 C 0.95942 -0.00098 0.53535 0.0
C435 C 0.05045 0.01922 0.51476 0.0
Zn436 Zn 0.25495 0.78054 0.76159 0.0
Zn437 Zn 0.26864 0.72737 0.7835 0.0
C438 C 0.20746 0.76848 0.72726 0.0
O439 O 0.22531 0.78019 0.71216 0.0
C440 C 0.31844 0.74938 0.81056 0.0
O441 O 0.30543 0.73731 0.82933 0.0
O442 O 0.25512 0.81996 0.75815 0.0
O443 O 0.26594 0.78106 0.80241 0.0
O444 O 0.24719 0.74169 0.81226 0.0
C445 C 0.2377 0.82768 0.77319 0.0
O446 O 0.22332 0.81008 0.78633 0.0
O447 O 0.21546 0.76441 0.75158 0.0
C448 C 0.27004 0.66964 0.77478 0.0
O449 O 0.25122 0.66859 0.75427 0.0
O450 O 0.27795 0.69137 0.79044 0.0
O451 O 0.25148 0.72466 0.74511 0.0
O452 O 0.27478 0.76128 0.73318 0.0
O453 O 0.3057 0.74992 0.78716 0.0
C454 C 0.25325 0.76668 0.81857 0.0
C455 C 0.26391 0.73686 0.72725 0.0
Zn456 Zn 0.51502 0.00461 0.98891 0.0
Zn457 Zn 0.50541 0.98601 0.04378 0.0
C458 C 0.56281 0.04185 -0.00123 0.0
O459 O 0.54584 0.05579 0.98804 0.0
C460 C 0.45504 0.95548 0.02556 0.0
O461 O 0.46668 0.93982 0.04043 0.0
O462 O 0.51346 0.0093 0.94839 0.0
O463 O 0.50744 0.96457 0.98887 0.0
O464 O 0.5271 0.95929 0.02942 0.0
C465 C 0.53146 -0.00184 0.93758 0.0
O466 O 0.54719 0.98673 0.95348 0.0
O467 O 0.55417 0.01787 0.00232 0.0
C468 C 0.47738 -0.00307 0.08747 0.0
O469 O 0.46778 0.00897 0.06743 0.0
O470 O 0.49618 0.98369 0.08311 0.0
O471 O 0.52218 0.02402 0.04475 0.0
O472 O 0.49426 0.02947 0.01002 0.0
O473 O 0.46883 0.97761 0.02155 0.0
C474 C 0.52027 0.95107 0.004 0.0
C475 C 0.50688 0.03806 0.03368 0.0
Zn476 Zn 0.27933 0.24275 0.26438 0.0
Zn477 Zn 0.26857 0.29675 0.30049 0.0
C478 C 0.32425 0.25566 0.23597 0.0
O479 O 0.30428 0.24807 0.21622 0.0
C480 C 0.22635 0.27823 0.32816 0.0
O481 O 0.24557 0.29124 0.34679 0.0
O482 O 0.27573 0.20303 0.25243 0.0
O483 O 0.27084 0.24249 0.30402 0.0
O484 O 0.29286 0.28033 0.32625 0.0
C485 C 0.29191 0.19399 0.26895 0.0
O486 O 0.30788 0.21085 0.28777 0.0
O487 O 0.31884 0.25656 0.261 0.0
C488 C 0.24732 0.34204 0.29795 0.0
O489 O 0.23693 0.32647 0.27533 0.0
O490 O 0.26409 0.33415 0.31477 0.0
O491 O 0.27901 0.30003 0.26183 0.0
O492 O 0.25805 0.26219 0.2385 0.0
O493 O 0.23074 0.27668 0.30279 0.0
C494 C 0.28421 0.25551 0.32574 0.0
C495 C 0.26709 0.287 0.23945 0.0
Zn496 Zn 0.51806 0.48151 0.01613 0.0
Zn497 Zn 0.49239 0.53302 0.00861 0.0
C498 C 0.55734 0.49482 0.06176 0.0
O499 O 0.57194 0.49045 0.04123 0.0
C500 C 0.45772 0.51742 0.95961 0.0
O501 O 0.44123 0.52497 0.9771 0.0
O502 O 0.52664 0.44457 0.01076 0.0
O503 O 0.47694 0.47545 0.01012 0.0
O504 O 0.46877 0.51196 0.03279 0.0
C505 C 0.51165 0.42886 0.02397 0.0
O506 O 0.49401 0.43808 0.03887 0.0
O507 O 0.5319 0.49337 0.05642 0.0
C508 C 0.49562 0.58138 0.98987 0.0
O509 O 0.51212 0.56946 0.97573 0.0
O510 O 0.48302 0.56949 0.00784 0.0
O511 O 0.53277 0.54018 0.01816 0.0
O512 O 0.54049 0.50516 -0.00741 0.0
O513 O 0.48208 0.51702 0.96868 0.0
C514 C 0.46171 0.48733 0.0245 0.0
C515 C 0.54763 0.52946 0.00231 0.0
Zn516 Zn 0.74243 0.28571 0.26311 0.0
Zn517 Zn 0.7714 0.22258 0.28505 0.0
C518 C 0.70065 0.27225 0.21698 0.0
O519 O 0.72062 0.27836 0.20173 0.0
C520 C 0.81817 0.23774 0.32042 0.0
O521 O 0.80243 0.22165 0.33403 0.0
O522 O 0.74572 0.32594 0.27184 0.0
O523 O 0.74198 0.26605 0.29731 0.0
O524 O 0.75087 0.23148 0.31725 0.0
C525 C 0.72424 0.33277 0.28003 0.0
O526 O 0.70376 0.31405 0.28293 0.0
O527 O 0.70567 0.27334 0.24297 0.0
C528 C 0.79693 0.17984 0.268 0.0
O529 O 0.81373 0.2005 0.26204 0.0
O530 O 0.77495 0.18352 0.27777 0.0
O531 O 0.75476 0.23636 0.25208 0.0
O532 O 0.76873 0.27426 0.23724 0.0
O533 O 0.80897 0.24281 0.29692 0.0
C534 C 0.74194 0.25327 0.31835 0.0
C535 C 0.76946 0.24962 0.23659 0.0
Zn536 Zn -0.00444 0.49459 0.48118 0.0
Zn537 Zn -0.00563 0.49279 0.53914 0.0
C538 C 0.04687 0.52666 0.48602 0.0
O539 O 0.03273 0.53989 0.47045 0.0
C540 C 0.94382 0.46006 0.53397 0.0
O541 O 0.95851 0.44825 0.55059 0.0
O542 O -0.00256 0.49147 0.43996 0.0
O543 O 0.98364 0.45696 0.49021 0.0
O544 O 0.01446 0.46388 0.52586 0.0
C545 C 0.01336 0.47563 0.43321 0.0
O546 O 0.0233 0.46272 0.45227 0.0
O547 O 0.03507 0.50556 0.49448 0.0
C548 C 0.9786 0.51187 0.58838 0.0
O549 O 0.96996 0.52701 0.57075 0.0
O550 O -0.00731 0.49487 0.58008 0.0
O551 O 0.00744 0.5299 0.5311 0.0
O552 O 0.97738 0.52566 0.49504 0.0
O553 O 0.95494 0.48121 0.52501 0.0
C554 C 0.00046 0.44823 0.50617 0.0
C555 C -0.00798 0.54024 0.51522 0.0
Zn556 Zn 0.78769 0.74537 0.25253 0.0
Zn557 Zn 0.7336 0.76801 0.27217 0.0
C558 C 0.77941 0.73405 0.19292 0.0
O559 O 0.80344 0.7491 0.19444 0.0
C560 C 0.76239 0.77683 0.32996 0.0
O561 O 0.75886 0.75099 0.33059 0.0
O562 O 0.82689 0.74135 0.24952 0.0
O563 O 0.78765 0.7849 0.2598 0.0
O564 O 0.74733 0.78909 0.24186 0.0
C565 C 0.84524 0.76178 0.2499 0.0
O566 O 0.83931 0.78554 0.25519 0.0
O567 O 0.76814 0.73079 0.21499 0.0
C568 C 0.68786 0.76219 0.29966 0.0
O569 O 0.70447 0.74978 0.31323 0.0
O570 O 0.69534 0.77269 0.27839 0.0
O571 O 0.73022 0.7281 0.26743 0.0
O572 O 0.77127 0.72011 0.27832 0.0
O573 O 0.75501 0.7861 0.30796 0.0
C574 C 0.77284 0.79678 0.24489 0.0
C575 C 0.74567 0.71271 0.27571 0.0
Zn576 Zn 0.74959 0.25045 0.79923 0.0
Zn577 Zn 0.76825 0.26329 0.74358 0.0
C578 C 0.70538 0.20759 0.78401 0.0
O579 O 0.69222 0.2259 0.79383 0.0
C580 C 0.80826 0.30665 0.76523 0.0
O581 O 0.82166 0.29168 0.75022 0.0
O582 O 0.74786 0.2519 0.84031 0.0
O583 O 0.78995 0.25324 0.79596 0.0
O584 O 0.78944 0.2355 0.75306 0.0
C585 C 0.76074 0.23495 0.84976 0.0
O586 O 0.77067 0.21889 0.8323 0.0
O587 O 0.7309 0.21343 0.78362 0.0
C588 C 0.76822 0.2956 0.70211 0.0
O589 O 0.75809 0.30856 0.72211 0.0
O590 O 0.77437 0.27304 0.70547 0.0
O591 O 0.72829 0.25447 0.7426 0.0
O592 O 0.7278 0.27645 0.78332 0.0
O593 O 0.78365 0.29761 0.76818 0.0
C594 C 0.80064 0.2402 0.77767 0.0
C595 C 0.71743 0.26968 0.75849 0.0
Zn596 Zn 0.7698 0.72532 0.74732 0.0
Zn597 Zn 0.76042 0.7791 0.78129 0.0
C598 C 0.82609 0.72655 0.7468 0.0
O599 O 0.81984 0.70705 0.7619 0.0
C600 C 0.72083 0.75957 0.81205 0.0
O601 O 0.74006 0.77456 0.82929 0.0
O602 O 0.76656 0.68655 0.73326 0.0
O603 O 0.76834 0.72548 0.78843 0.0
O604 O 0.78728 0.76587 0.80732 0.0
C605 C 0.75884 0.66798 0.74779 0.0
O606 O 0.74583 0.67318 0.76936 0.0
O607 O 0.80793 0.73968 0.73968 0.0
C608 C 0.73239 0.81998 0.78016 0.0
O609 O 0.71901 0.80087 0.76178 0.0
O610 O 0.75415 0.81647 0.79336 0.0
O611 O 0.76856 0.78138 0.74184 0.0
O612 O 0.7451 0.74287 0.72323 0.0
O613 O 0.72413 0.75682 0.78641 0.0
C614 C 0.78113 0.74101 0.80895 0.0
C615 C 0.75456 0.76708 0.72125 0.0
Zn616 Zn 0.52709 0.50223 0.52434 0.0
Zn617 Zn 0.47396 0.51429 0.49545 0.0
C618 C 0.50796 0.45738 0.54975 0.0
O619 O 0.51793 0.47538 0.57071 0.0
C620 C 0.48193 0.57148 0.49828 0.0
O621 O 0.46029 0.56837 0.51178 0.0
O622 O 0.5651 0.49819 0.53674 0.0
O623 O 0.52977 0.51152 0.4852 0.0
O624 O 0.48931 0.4902 0.46837 0.0
C625 C 0.57068 0.47847 0.52185 0.0
O626 O 0.5532 0.46653 0.50109 0.0
O627 O 0.50702 0.4644 0.52549 0.0
C628 C 0.4165 0.50193 0.49384 0.0
O629 O 0.42221 0.48396 0.50961 0.0
O630 O 0.43541 0.51495 0.48239 0.0
O631 O 0.47212 0.50795 0.53533 0.0
O632 O 0.51319 0.5266 0.55304 0.0
O633 O 0.49273 0.5514 0.49164 0.0
C634 C 0.51371 0.49933 0.46477 0.0
C635 C 0.48813 0.51998 0.55581 0.0
Zn636 Zn 0.98786 0.51918 0.03169 0.0
Zn637 Zn 0.04408 0.50421 0.01097 0.0
C638 C 0.01098 0.57673 0.04156 0.0
O639 O 0.01008 0.57655 0.01461 0.0
C640 C 0.02085 0.45937 0.97613 0.0
O641 O 0.03599 0.47413 0.96082 0.0
O642 O 0.94717 0.51612 0.03336 0.0
O643 O -0.0069 0.52043 0.9907 0.0
O644 O 0.03604 0.52631 0.98161 0.0
C645 C 0.93839 0.5336 0.02012 0.0
O646 O 0.95568 0.54957 0.00801 0.0
O647 O 0.00302 0.55541 0.05193 0.0
C648 C 0.08343 0.47394 0.02357 0.0
O649 O 0.06193 0.46139 0.03333 0.0
O650 O 0.08164 0.49489 0.01212 0.0
O651 O 0.04078 0.52182 0.04795 0.0
O652 O 0.00507 0.49391 0.05461 0.0
O653 O 0.01896 0.46868 0.00087 0.0
C654 C 0.01118 0.52613 0.97435 0.0
C655 C 0.0296 0.50464 0.06211 0.0
H656 H 0.01129 0.16192 0.91734 0.0
H657 H -0.00273 0.21332 0.98803 0.0
H658 H 0.00051 0.17778 0.01749 0.0
H659 H 0.00527 0.13121 0.02237 0.0
H660 H 0.01987 0.08087 0.95096 0.0
H661 H 0.01896 0.11713 0.92268 0.0
C662 C 0.00885 0.16539 0.93919 0.0
C663 C 0.00365 0.19006 0.95043 0.0
C664 C 0.01111 0.14513 0.95591 0.0
C665 C 0.00107 0.19439 0.97887 0.0
C666 C 0.003 0.17411 -0.0043 0.0
C667 C 0.00876 0.12837 0.00076 0.0
C668 C 0.0125 0.10332 0.98877 0.0
C669 C 0.00785 0.14931 0.98439 0.0
C670 C 0.01681 0.0999 0.96067 0.0
C671 C 0.01617 0.12058 0.94442 0.0
H672 H 0.10398 0.80062 0.22312 0.0
H673 H 0.12965 0.77626 0.14379 0.0
H674 H 0.16812 0.76113 0.16658 0.0
H675 H 0.19302 0.75274 0.20855 0.0
H676 H 0.17081 0.78049 0.28838 0.0
H677 H 0.13181 0.79566 0.26582 0.0
C678 C 0.11821 0.79228 0.21087 0.0
C679 C 0.11386 0.78944 0.1818 0.0
C680 C 0.14055 0.78382 0.22414 0.0
C681 C 0.13252 0.77874 0.16617 0.0
C682 C 0.15444 0.7699 0.17918 0.0
C683 C 0.17996 0.76243 0.22116 0.0
C684 C 0.18498 0.7656 0.25016 0.0
C685 C 0.15841 0.77201 0.2081 0.0
C686 C 0.16745 0.77782 0.26602 0.0
C687 C 0.14522 0.78658 0.25313 0.0
H688 H 0.49445 0.85993 0.38335 0.0
H689 H 0.50205 0.82522 0.45976 0.0
H690 H 0.50391 0.86879 0.48605 0.0
H691 H 0.50862 0.9177 0.48699 0.0
H692 H 0.50218 0.95159 0.40997 0.0
H693 H 0.49413 0.90736 0.38427 0.0
C694 C 0.49629 0.86181 0.40576 0.0
C695 C 0.49857 0.83947 0.41957 0.0
C696 C 0.49753 0.88682 0.42064 0.0
C697 C 0.50042 0.84217 0.44862 0.0
C698 C 0.50155 0.86709 0.46366 0.0
C699 C 0.50472 0.91526 0.46464 0.0
C700 C 0.50613 0.9378 0.45033 0.0
C701 C 0.5008 0.88969 0.44988 0.0
C702 C 0.50135 0.93448 0.42137 0.0
C703 C 0.49687 0.90923 0.40666 0.0
H704 H 0.46229 0.25041 0.74067 0.0
H705 H 0.45235 0.2934 0.67002 0.0
H706 H 0.4056 0.29462 0.67837 0.0
H707 H 0.36743 0.28309 0.70488 0.0
H708 H 0.37579 0.23916 0.77493 0.0
H709 H 0.42334 0.23876 0.76765 0.0
C710 C 0.44991 0.26014 0.72721 0.0
C711 C 0.46085 0.27176 0.70475 0.0
C712 C 0.42278 0.26056 0.73194 0.0
C713 C 0.44448 0.28417 0.68739 0.0
C714 C 0.41771 0.28492 0.69214 0.0
C715 C 0.37959 0.27344 0.71866 0.0
C716 C 0.36808 0.26117 0.74041 0.0
C717 C 0.40664 0.27309 0.71423 0.0
C718 C 0.38417 0.24872 0.75799 0.0
C719 C 0.41135 0.2485 0.75384 0.0
H720 H 0.00859 0.80871 0.5614 0.0
H721 H 0.9601 0.82229 0.62855 0.0
H722 H 0.95736 0.86658 0.61598 0.0
H723 H 0.9713 0.90243 0.5883 0.0
H724 H 0.02171 0.89049 0.52243 0.0
H725 H 0.02106 0.84451 0.53206 0.0
C726 C -0.00293 0.82124 0.57298 0.0
C727 C 0.98457 0.81225 0.59589 0.0
C728 C -0.00383 0.84704 0.56606 0.0
C729 C 0.96996 0.82878 0.61089 0.0
C730 C 0.96844 0.85413 0.60376 0.0
C731 C 0.98205 0.88979 0.57587 0.0
C732 C -0.00331 0.89998 0.55478 0.0
C733 C 0.98191 0.86364 0.58178 0.0
C734 C 0.01038 0.8832 0.53887 0.0
C735 C 0.01002 0.85691 0.54438 0.0
H736 H 0.44502 0.7802 0.80926 0.0
H737 H 0.44223 0.74956 0.88839 0.0
H738 H 0.39305 0.74316 0.88317 0.0
H739 H 0.35093 0.74439 0.85569 0.0
H740 H 0.35262 0.7734 0.77585 0.0
H741 H 0.40222 0.78274 0.78209 0.0
C742 C 0.43365 0.77216 0.82538 0.0
C743 C 0.44736 0.76522 0.84908 0.0
C744 C 0.40521 0.76837 0.82223 0.0
C745 C 0.43229 0.75494 0.86982 0.0
C746 C 0.40411 0.75132 0.86693 0.0
C747 C 0.36206 0.75301 0.83971 0.0
C748 C 0.3481 0.7581 0.81531 0.0
C749 C 0.3904 0.75775 0.84316 0.0
C750 C 0.3629 0.76928 0.79484 0.0
C751 C 0.39125 0.7745 0.79834 0.0
H752 H 0.5035 0.13634 0.11953 0.0
H753 H 0.4742 0.16762 0.04639 0.0
H754 H 0.47437 0.12514 0.01878 0.0
H755 H 0.48626 0.07998 0.01505 0.0
H756 H 0.51797 0.05118 0.08883 0.0
H757 H 0.51343 0.09181 0.11639 0.0
C758 C 0.49684 0.13391 0.0976 0.0
C759 C 0.489 0.15522 0.08507 0.0
C760 C 0.49769 0.10987 0.08183 0.0
C761 C 0.48041 0.15155 0.05659 0.0
C762 C 0.48062 0.1273 0.04076 0.0
C763 C 0.49196 0.08262 0.03717 0.0
C764 C 0.50263 0.06266 0.04977 0.0
C765 C 0.48977 0.10646 0.05307 0.0
C766 C 0.51 0.06633 0.07848 0.0
C767 C 0.50734 0.08954 0.09436 0.0
H768 H 0.12528 0.25266 0.39351 0.0
H769 H 0.08408 0.26526 0.31634 0.0
H770 H 0.12663 0.2689 0.29496 0.0
H771 H 0.17648 0.2729 0.29972 0.0
H772 H 0.21716 0.26128 0.37754 0.0
H773 H 0.17389 0.25238 0.39696 0.0
C774 C 0.12557 0.256 0.37196 0.0
C775 C 0.10171 0.25906 0.35666 0.0
C776 C 0.15005 0.25821 0.35988 0.0
C777 C 0.10229 0.26301 0.32863 0.0
C778 C 0.1266 0.26511 0.31638 0.0
C779 C 0.1757 0.2678 0.32068 0.0
C780 C 0.19985 0.26795 0.33728 0.0
C781 C 0.15074 0.26331 0.33199 0.0
C782 C 0.19874 0.26154 0.36449 0.0
C783 C 0.17406 0.25652 0.37565 0.0
H784 H 0.91539 0.02994 0.15148 0.0
H785 H 0.9734 0.99256 0.19561 0.0
H786 H 0.00393 -0.00081 0.15932 0.0
H787 H 0.01257 0.01293 0.11302 0.0
H788 H 0.95404 0.05051 0.06986 0.0
H789 H 0.92576 0.04722 0.10794 0.0
C790 C 0.93474 0.0233 0.15317 0.0
C791 C 0.94196 0.01046 0.17596 0.0
C792 C 0.95231 0.02754 0.13249 0.0
C793 C 0.96732 0.00238 0.17814 0.0
C794 C 0.98481 0.00621 0.15742 0.0
C795 C -0.00597 0.02108 0.11243 0.0
C796 C 0.98544 0.03205 0.08872 0.0
C797 C 0.97741 0.01854 0.13429 0.0
C798 C 0.96109 0.04203 0.08791 0.0
C799 C 0.94478 0.03997 0.1096 0.0
H800 H 0.25027 0.68967 0.4732 0.0
H801 H 0.30528 0.63959 0.44414 0.0
H802 H 0.30453 0.65834 0.40015 0.0
H803 H 0.28502 0.68542 0.36878 0.0
H804 H 0.2275 0.73354 0.39594 0.0
H805 H 0.2324 0.719 0.44208 0.0
C806 C 0.26255 0.68334 0.45743 0.0
C807 C 0.27787 0.66336 0.4618 0.0
C808 C 0.26116 0.69344 0.43181 0.0
C809 C 0.29337 0.65496 0.44115 0.0
C810 C 0.29282 0.66555 0.41599 0.0
C811 C 0.27354 0.69286 0.38475 0.0
C812 C 0.25563 0.71027 0.37885 0.0
C813 C 0.27618 0.68419 0.41087 0.0
C814 C 0.24123 0.71993 0.39991 0.0
C815 C 0.24407 0.71166 0.42627 0.0
H816 H 0.55841 0.97068 0.67472 0.0
H817 H 0.6363 0.98216 0.64217 0.0
H818 H 0.61511 0.99104 0.59823 0.0
H819 H 0.57553 -0.00066 0.57076 0.0
H820 H 0.49717 0.98742 0.60208 0.0
H821 H 0.51759 0.975 0.64509 0.0
C822 C 0.57069 0.97481 0.65789 0.0
C823 C 0.59896 0.9761 0.66183 0.0
C824 C 0.5584 0.98014 0.63271 0.0
C825 C 0.61456 0.98125 0.63977 0.0
C826 C 0.60248 0.98643 0.61468 0.0
C827 C 0.56279 0.99383 0.58687 0.0
C828 C 0.53492 -0.00542 0.58339 0.0
C829 C 0.57458 0.98658 0.61122 0.0
C830 C 0.51869 0.98709 0.60434 0.0
C831 C 0.53038 0.98003 0.6289 0.0
H832 H 0.26928 0.36876 0.92783 0.0
H833 H 0.25068 0.30326 0.97592 0.0
H834 H 0.25196 0.2717 0.93527 0.0
H835 H 0.25488 0.26278 0.88516 0.0
H836 H 0.27417 0.32879 0.8377 0.0
H837 H 0.27657 0.35999 0.87911 0.0
C838 C 0.2656 0.34758 0.92945 0.0
C839 C 0.25951 0.33836 0.95472 0.0
C840 C 0.26658 0.32961 0.90611 0.0
C841 C 0.2553 0.31087 0.95664 0.0
C842 C 0.256 0.29281 0.9334 0.0
C843 C 0.26011 0.28396 0.88397 0.0
C844 C 0.26399 0.29337 0.85825 0.0
C845 C 0.26119 0.30194 0.9079 0.0
C846 C 0.27081 0.32094 0.85714 0.0
C847 C 0.27209 0.33886 0.88081 0.0
H848 H 0.95877 0.96927 0.33637 0.0
H849 H 0.89237 0.01268 0.33584 0.0
H850 H 0.89951 0.02206 0.38597 0.0
H851 H 0.92566 0.01989 0.4296 0.0
H852 H -0.00662 0.97836 0.43085 0.0
H853 H 0.98439 0.96599 0.38081 0.0
C854 C 0.94576 0.98065 0.34723 0.0
C855 C 0.92514 0.99034 0.33226 0.0
C856 C 0.95016 0.98628 0.37619 0.0
C857 C 0.90851 0.00509 0.34673 0.0
C858 C 0.91253 0.01045 0.37545 0.0
C859 C 0.93834 0.00788 0.41906 0.0
C860 C 0.96018 8e-05 0.43398 0.0
C861 C 0.93344 0.00139 0.39033 0.0
C862 C 0.97642 0.98461 0.41987 0.0
C863 C 0.97134 0.97763 0.39124 0.0
H864 H 0.28229 0.68042 0.61055 0.0
H865 H 0.2278 0.61718 0.64008 0.0
H866 H 0.22513 0.64568 0.68186 0.0
H867 H 0.23665 0.68799 0.70933 0.0
H868 H 0.29344 0.75159 0.68395 0.0
H869 H 0.29606 0.72368 0.64058 0.0
C870 C 0.27003 0.67286 0.62624 0.0
C871 C 0.25522 0.64664 0.62201 0.0
C872 C 0.26863 0.68945 0.65067 0.0
C873 C 0.23944 0.63718 0.64261 0.0
C874 C 0.23775 0.6535 0.66655 0.0
C875 C 0.25002 0.69585 0.69466 0.0
C876 C 0.26513 0.72173 0.70011 0.0
C877 C 0.25205 0.6796 0.67064 0.0
C878 C 0.2816 0.73168 0.68028 0.0
C879 C 0.28321 0.71568 0.6556 0.0
H880 H 0.54477 0.01516 0.81297 0.0
H881 H 0.60413 0.9648 0.82618 0.0
H882 H 0.59159 0.96061 0.87282 0.0
H883 H 0.56563 0.9727 0.9103 0.0
H884 H 0.50717 0.02418 0.89874 0.0
H885 H 0.51737 0.02625 0.8507 0.0
C886 C 0.55482 0.00312 0.82599 0.0
C887 C 0.57548 0.99045 0.81615 0.0
C888 C 0.54777 0.00106 0.85301 0.0
C889 C 0.58834 0.97496 0.8333 0.0
C890 C 0.58117 0.97251 0.85996 0.0
C891 C 0.55502 0.98439 0.89734 0.0
C892 C 0.53586 -0.00151 0.90813 0.0
C893 C 0.56122 0.98575 0.87011 0.0
C894 C 0.5221 0.01323 0.89091 0.0
C895 C 0.52796 0.01446 0.8635 0.0
H896 H 0.27115 0.36563 0.14807 0.0
H897 H 0.25136 0.2919 0.09403 0.0
H898 H 0.25064 0.26683 0.13406 0.0
H899 H 0.25571 0.26593 0.18483 0.0
H900 H 0.27589 0.34036 0.23799 0.0
H901 H 0.27609 0.36483 0.19804 0.0
C902 C 0.26676 0.34407 0.145 0.0
C903 C 0.2614 0.33071 0.11807 0.0
C904 C 0.26627 0.3298 0.16805 0.0
C905 C 0.25565 0.30273 0.11453 0.0
C906 C 0.25517 0.28836 0.13744 0.0
C907 C 0.25998 0.28748 0.18763 0.0
C908 C 0.26574 0.30117 0.21447 0.0
C909 C 0.26038 0.30168 0.16436 0.0
C910 C 0.27143 0.32917 0.21766 0.0
C911 C 0.2716 0.3433 0.19478 0.0
H912 H 0.19284 0.94531 0.04808 0.0
H913 H 0.13748 0.87212 0.01881 0.0
H914 H 0.09945 0.89573 0.01877 0.0
H915 H 0.08252 0.93749 0.02239 0.0
H916 H 0.13659 0.01106 0.05176 0.0
H917 H 0.17471 0.98696 0.05682 0.0
C918 C 0.17242 0.93453 0.04198 0.0
C919 C 0.16803 0.9071 0.03299 0.0
C920 C 0.15054 0.94827 0.04192 0.0
C921 C 0.14145 0.89328 0.0255 0.0
C922 C 0.11967 0.90674 0.02545 0.0
C923 C 0.10265 0.94814 0.03026 0.0
C924 C 0.10712 0.97584 0.03643 0.0
C925 C 0.1241 0.93427 0.03289 0.0
C926 C 0.13295 0.98963 0.04695 0.0
C927 C 0.15464 0.97589 0.04963 0.0
H928 H 0.65157 0.61279 0.98771 0.0
H929 H 0.68002 0.54102 0.95977 0.0
H930 H 0.63601 0.51452 0.96512 0.0
H931 H 0.59019 0.5115 0.98019 0.0
H932 H 0.56287 0.5833 0.01045 0.0
H933 H 0.60555 0.60989 0.00173 0.0
C934 C 0.64803 0.59139 0.98248 0.0
C935 C 0.66902 0.5789 0.97336 0.0
C936 C 0.6229 0.5762 0.98624 0.0
C937 C 0.66419 0.55111 0.96689 0.0
C938 C 0.63905 0.53593 0.97 0.0
C939 C 0.59352 0.53297 0.98469 0.0
C940 C 0.57336 0.54533 -0.00399 0.0
C941 C 0.61838 0.54821 0.98007 0.0
C942 C 0.57808 0.5732 0.00188 0.0
C943 C 0.60249 0.58848 -0.00315 0.0
H944 H 0.70854 0.45116 0.27046 0.0
H945 H 0.64203 0.42521 0.31762 0.0
H946 H 0.65753 0.38333 0.32161 0.0
H947 H 0.68668 0.35231 0.30787 0.0
H948 H 0.75296 0.37624 0.25995 0.0
H949 H 0.7411 0.42072 0.26035 0.0
C950 C 0.69773 0.43647 0.28192 0.0
C951 C 0.67393 0.44121 0.29341 0.0
C952 C 0.70657 0.41199 0.28383 0.0
C953 C 0.66017 0.42198 0.30825 0.0
C954 C 0.66902 0.39798 0.31058 0.0
C955 C 0.69884 0.36732 0.29781 0.0
C956 C 0.72049 0.36088 0.28367 0.0
C957 C 0.69168 0.3925 0.29783 0.0
C958 C 0.73616 0.38069 0.27098 0.0
C959 C 0.72926 0.40606 0.27107 0.0
H960 H 0.82399 0.39811 0.51509 0.0
H961 H 0.81223 0.46687 0.47471 0.0
H962 H 0.86083 0.48468 0.48335 0.0
H963 H 0.90627 0.48155 0.50451 0.0
H964 H 0.91677 0.41274 0.54546 0.0
H965 H 0.8689 0.39416 0.53439 0.0
C966 C 0.83197 0.41696 0.50802 0.0
C967 C 0.81445 0.43122 0.49445 0.0
C968 C 0.85969 0.42715 0.51328 0.0
C969 C 0.82526 0.45551 0.48528 0.0
C970 C 0.85303 0.46573 0.49027 0.0
C971 C 0.89808 0.46244 0.51087 0.0
C972 C 0.91501 0.44866 0.52597 0.0
C973 C 0.87038 0.45187 0.50459 0.0
C974 C 0.90415 0.42388 0.53401 0.0
C975 C 0.87677 0.41319 0.52767 0.0
H976 H 0.3073 0.07469 0.24396 0.0
H977 H 0.34744 0.09319 0.32677 0.0
H978 H 0.33221 0.1359 0.33118 0.0
H979 H 0.31267 0.16989 0.30978 0.0
H980 H 0.2749 0.15391 0.22595 0.0
H981 H 0.28374 0.10817 0.22363 0.0
C982 C 0.31207 0.08785 0.26316 0.0
C983 C 0.32846 0.08089 0.28505 0.0
C984 C 0.3041 0.11294 0.26515 0.0
C985 C 0.3349 0.0982 0.30968 0.0
C986 C 0.32631 0.12265 0.31215 0.0
C987 C 0.30619 0.15641 0.29098 0.0
C988 C 0.29362 0.16542 0.26786 0.0
C989 C 0.31178 0.13057 0.2897 0.0
C990 C 0.2848 0.14749 0.24394 0.0
C991 C 0.28994 0.12139 0.24262 0.0
H992 H 0.3137 0.04809 0.53153 0.0
H993 H 0.32773 0.10286 0.47049 0.0
H994 H 0.37334 0.09353 0.46792 0.0
H995 H 0.40983 0.07144 0.48412 0.0
H996 H 0.39686 0.01701 0.54549 0.0
H997 H 0.35018 0.02454 0.54668 0.0
C998 C 0.32666 0.05784 0.51752 0.0
C999 C 0.31726 0.07627 0.50134 0.0
C1000 C 0.35309 0.05257 0.51627 0.0
C1001 C 0.33439 0.08871 0.48331 0.0
C1002 C 0.36053 0.0834 0.48181 0.0
C1003 C 0.39683 0.06114 0.49776 0.0
C1004 C 0.4069 0.04383 0.51484 0.0
C1005 C 0.37019 0.06565 0.49842 0.0
C1006 C 0.38965 0.03051 0.53218 0.0
C1007 C 0.36296 0.03483 0.53289 0.0
H1008 H 0.70262 0.59074 0.28398 0.0
H1009 H 0.6281 0.62127 0.28944 0.0
H1010 H 0.65248 0.66633 0.28985 0.0
H1011 H 0.69373 0.69678 0.28498 0.0
H1012 H 0.76892 0.66797 0.2787 0.0
H1013 H 0.74561 0.62266 0.28263 0.0
C1014 C 0.69184 0.60731 0.28564 0.0
C1015 C 0.66346 0.60249 0.28634 0.0
C1016 C 0.70603 0.63348 0.28552 0.0
C1017 C 0.64982 0.62424 0.28849 0.0
C1018 C 0.66375 0.6501 0.28875 0.0
C1019 C 0.70517 0.68068 0.28464 0.0
C1020 C 0.73298 0.68574 0.28121 0.0
C1021 C 0.69167 0.65487 0.28663 0.0
C1022 C 0.74748 0.66463 0.28126 0.0
C1023 C 0.73411 0.6387 0.28338 0.0
H1024 H 0.83637 0.43174 0.78559 0.0
H1025 H 0.91246 0.41522 0.75954 0.0
H1026 H 0.89612 0.3678 0.75827 0.0
H1027 H 0.85956 0.33092 0.7614 0.0
H1028 H 0.7828 0.3464 0.78614 0.0
H1029 H 0.80033 0.39425 0.79164 0.0
C1030 C 0.84942 0.41778 0.77978 0.0
C1031 C 0.87552 0.42715 0.7724 0.0
C1032 C 0.83986 0.39031 0.77894 0.0
C1033 C 0.89221 0.4087 0.76512 0.0
C1034 C 0.88292 0.3815 0.76442 0.0
C1035 C 0.84671 0.34471 0.76834 0.0
C1036 C 0.81986 0.3351 0.77315 0.0
C1037 C 0.85668 0.37208 0.77087 0.0
C1038 C 0.80358 0.35326 0.78231 0.0
C1039 C 0.81353 0.38065 0.78526 0.0
H1040 H 0.00317 0.86935 0.11071 0.0
H1041 H 0.03906 0.82416 0.04911 0.0
H1042 H 0.03529 0.8575 0.01744 0.0
H1043 H 0.02552 0.90136 0.00886 0.0
H1044 H 0.98981 0.94663 0.07065 0.0
H1045 H 0.9892 0.91112 0.10026 0.0
C1046 C 0.01 0.86673 0.09028 0.0
C1047 C 0.0217 0.84451 0.08242 0.0
C1048 C 0.00767 0.88593 0.07211 0.0
C1049 C 0.03011 0.84118 0.05574 0.0
C1050 C 0.02795 0.86023 0.03759 0.0
C1051 C 0.01698 0.9032 0.02849 0.0
C1052 C 0.00792 0.92673 0.03757 0.0
C1053 C 0.01719 0.88292 0.04573 0.0
C1054 C -0.00295 0.92879 0.06318 0.0
C1055 C -0.00315 0.90856 0.08024 0.0
H1056 H 0.92424 0.23332 0.7898 0.0
H1057 H 0.90975 0.23616 0.87585 0.0
H1058 H 0.86133 0.23322 0.86314 0.0
H1059 H 0.82431 0.23557 0.82819 0.0
H1060 H 0.8385 0.23234 0.7421 0.0
H1061 H 0.88596 0.22962 0.75426 0.0
C1062 C 0.91044 0.2329 0.80575 0.0
C1063 C 0.92064 0.23543 0.83375 0.0
C1064 C 0.88268 0.23145 0.79833 0.0
C1065 C 0.90246 0.23438 0.85415 0.0
C1066 C 0.87478 0.23287 0.84692 0.0
C1067 C 0.83768 0.23387 0.81204 0.0
C1068 C 0.82805 0.23453 0.78434 0.0
C1069 C 0.86485 0.23231 0.81917 0.0
C1070 C 0.84548 0.23196 0.76359 0.0
C1071 C 0.87263 0.23052 0.77054 0.0
H1072 H 0.5259 0.19575 0.58912 0.0
H1073 H 0.52559 0.17416 0.67232 0.0
H1074 H 0.5175 0.12739 0.65471 0.0
H1075 H 0.5095 0.0923 0.61612 0.0
H1076 H 0.51063 0.11241 0.5326 0.0
H1077 H 0.51968 0.15983 0.54987 0.0
C1078 C 0.524 0.18077 0.60332 0.0
C1079 C 0.52628 0.18859 0.632 0.0
C1080 C 0.51961 0.15356 0.59306 0.0
C1081 C 0.52403 0.16887 0.65015 0.0
C1082 C 0.51936 0.14201 0.64013 0.0
C1083 C 0.51184 0.10703 0.60166 0.0
C1084 C 0.50927 0.09883 0.57316 0.0
C1085 C 0.51704 0.13412 0.61169 0.0
C1086 C 0.51262 0.1182 0.55471 0.0
C1087 C 0.51764 0.14533 0.56456 0.0
H1088 H 0.56654 0.75974 0.32439 0.0
H1089 H 0.60188 0.75376 0.4065 0.0
H1090 H 0.64669 0.75693 0.38984 0.0
H1091 H 0.67533 0.75974 0.35181 0.0
H1092 H 0.6409 0.76764 0.26995 0.0
H1093 H 0.59602 0.76569 0.28672 0.0
C1094 C 0.58409 0.75915 0.33861 0.0
C1095 C 0.58097 0.75623 0.36656 0.0
C1096 C 0.60981 0.76139 0.32897 0.0
C1097 C 0.60384 0.75594 0.38489 0.0
C1098 C 0.62941 0.75771 0.37538 0.0
C1099 C 0.65801 0.76112 0.33763 0.0
C1100 C 0.66124 0.76354 0.30965 0.0
C1101 C 0.63255 0.76019 0.34745 0.0
C1102 C 0.63881 0.76578 0.29159 0.0
C1103 C 0.6132 0.76453 0.30115 0.0
H1104 H 0.01119 0.16427 0.40087 0.0
H1105 H 0.00863 0.21095 0.47873 0.0
H1106 H 0.00478 0.17076 0.50223 0.0
H1107 H 0.00467 0.12245 0.50088 0.0
H1108 H 0.01076 0.07708 0.42313 0.0
H1109 H 0.01063 0.11655 0.39938 0.0
C1110 C 0.00948 0.16562 0.42293 0.0
C1111 C 0.01011 0.19049 0.43803 0.0
C1112 C 0.0081 0.14264 0.43637 0.0
C1113 C 0.00821 0.19199 0.46666 0.0
C1114 C 0.00604 0.16903 0.48011 0.0
C1115 C 0.00575 0.12126 0.47873 0.0
C1116 C 0.00781 0.09697 0.46379 0.0
C1117 C 0.00636 0.14427 0.46523 0.0
C1118 C 0.00942 0.09565 0.43512 0.0
C1119 C 0.00927 0.11818 0.42149 0.0
H1120 H 0.57514 0.25651 0.1844 0.0
H1121 H 0.60094 0.2519 0.10226 0.0
H1122 H 0.64819 0.25699 0.12171 0.0
H1123 H 0.68213 0.26418 0.16229 0.0
H1124 H 0.65536 0.26769 0.24417 0.0
H1125 H 0.60845 0.2614 0.22448 0.0
C1126 C 0.5911 0.25662 0.17073 0.0
C1127 C 0.58468 0.25409 0.142 0.0
C1128 C 0.618 0.25931 0.18199 0.0
C1129 C 0.60547 0.25389 0.1245 0.0
C1130 C 0.63245 0.25682 0.1356 0.0
C1131 C 0.66601 0.26343 0.17579 0.0
C1132 C 0.67226 0.26655 0.20463 0.0
C1133 C 0.63896 0.25975 0.16434 0.0
C1134 C 0.65115 0.26535 0.22188 0.0
C1135 C 0.62428 0.26183 0.21067 0.0
H1136 H 0.54639 0.83849 0.96206 0.0
H1137 H 0.54158 0.87221 0.88461 0.0
H1138 H 0.53371 0.91355 0.90846 0.0
H1139 H 0.52427 0.93855 0.95002 0.0
H1140 H 0.53238 0.90797 0.0287 0.0
H1141 H 0.54233 0.86652 0.00547 0.0
C1142 C 0.54398 0.85502 0.95048 0.0
C1143 C 0.54425 0.85206 0.9215 0.0
C1144 C 0.53958 0.87901 0.9644 0.0
C1145 C 0.5414 0.87379 0.90686 0.0
C1146 C 0.53671 0.89744 0.92045 0.0
C1147 C 0.52863 0.9231 0.9623 0.0
C1148 C 0.52749 0.92631 0.99103 0.0
C1149 C 0.53513 0.89999 0.94902 0.0
C1150 C 0.53308 0.90592 0.00651 0.0
C1151 C 0.53878 0.88228 -0.00677 0.0
H1152 H 0.92634 0.74761 0.67705 0.0
H1153 H 0.94611 0.68068 0.71623 0.0
H1154 H 0.9062 0.67946 0.74147 0.0
H1155 H 0.86538 0.69669 0.75192 0.0
H1156 H 0.84507 0.76354 0.71305 0.0
H1157 H 0.88574 0.76571 0.68857 0.0
C1158 C 0.92183 0.73267 0.691 0.0
C1159 C 0.93916 0.71417 0.69458 0.0
C1160 C 0.89891 0.73221 0.70574 0.0
C1161 C 0.93316 0.69515 0.71301 0.0
C1162 C 0.91035 0.69445 0.72753 0.0
C1163 C 0.86993 0.71195 0.73833 0.0
C1164 C 0.85216 0.72992 0.73436 0.0
C1165 C 0.89311 0.71287 0.72407 0.0
C1166 C 0.85841 0.74947 0.71655 0.0
C1167 C 0.8816 0.75064 0.70242 0.0
H1168 H 0.04864 0.00667 0.84801 0.0
H1169 H 0.13087 0.01656 0.88548 0.0
H1170 H 0.11446 0.01401 0.93113 0.0
H1171 H 0.07681 0.01077 0.96053 0.0
H1172 H -0.00557 -0.00231 0.92272 0.0
H1173 H 0.01081 -0.00035 0.87706 0.0
C1174 C 0.06296 0.00819 0.86618 0.0
C1175 C 0.09097 0.01208 0.86339 0.0
C1176 C 0.05334 0.00617 0.89227 0.0
C1177 C 0.10924 0.01358 0.88705 0.0
C1178 C 0.09986 0.01221 0.91316 0.0
C1179 C 0.06241 0.00809 0.94229 0.0
C1180 C 0.0344 0.00417 0.9451 0.0
C1181 C 0.07197 0.00875 0.91605 0.0
C1182 C 0.01606 0.00063 0.92119 0.0
C1183 C 0.02543 0.00186 0.89507 0.0
H1184 H 0.77262 0.36659 0.60567 0.0
H1185 H 0.74485 0.2903 0.55747 0.0
H1186 H 0.75125 0.26795 0.59881 0.0
H1187 H 0.76001 0.27061 0.64965 0.0
H1188 H 0.78414 0.34749 0.69746 0.0
H1189 H 0.78423 0.36913 0.65526 0.0
C1190 C 0.76828 0.34505 0.60409 0.0
C1191 C 0.75802 0.33013 0.57866 0.0
C1192 C 0.77125 0.33247 0.62794 0.0
C1193 C 0.75259 0.30223 0.57692 0.0
C1194 C 0.7562 0.28945 0.60054 0.0
C1195 C 0.76578 0.29203 0.65062 0.0
C1196 C 0.77193 0.30755 0.67639 0.0
C1197 C 0.76483 0.30441 0.6263 0.0
C1198 C 0.77911 0.33528 0.67769 0.0
C1199 C 0.77915 0.34764 0.65364 0.0
H1200 H 0.48394 0.02855 0.341 0.0
H1201 H 0.40207 0.02691 0.36227 0.0
H1202 H 0.41811 0.03129 0.41129 0.0
H1203 H 0.45455 0.03152 0.44757 0.0
H1204 H 0.53652 0.03338 0.42673 0.0
H1205 H 0.52122 0.03321 0.37789 0.0
C1206 C 0.46961 0.02937 0.35635 0.0
C1207 C 0.44179 0.02702 0.34797 0.0
C1208 C 0.47895 0.0318 0.38448 0.0
C1209 C 0.42356 0.02854 0.36814 0.0
C1210 C 0.4327 0.03096 0.39617 0.0
C1211 C 0.46916 0.0322 0.4324 0.0
C1212 C 0.49657 0.03211 0.44069 0.0
C1213 C 0.46022 0.03199 0.40449 0.0
C1214 C 0.5153 0.03335 0.42086 0.0
C1215 C 0.50653 0.03313 0.39293 0.0
H1216 H 0.72865 0.64572 0.09536 0.0
H1217 H 0.78649 0.69327 0.05172 0.0
H1218 H 0.79866 0.72599 0.09254 0.0
H1219 H 0.79549 0.73926 0.1417 0.0
H1220 H 0.73721 0.69202 0.18515 0.0
H1221 H 0.72237 0.66126 0.14321 0.0
C1222 C 0.7438 0.66333 0.09471 0.0
C1223 C 0.7569 0.66684 0.07064 0.0
C1224 C 0.75066 0.68212 0.11823 0.0
C1225 C 0.77616 0.68999 0.07001 0.0
C1226 C 0.7832 0.7087 0.09337 0.0
C1227 C 0.77933 0.7224 0.14192 0.0
C1228 C 0.76773 0.71779 0.16662 0.0
C1229 C 0.77096 0.7047 0.11776 0.0
C1230 C 0.74657 0.69602 0.16646 0.0
C1231 C 0.73815 0.67833 0.1425 0.0
H1232 H 0.0765 0.00067 0.71119 0.0
H1233 H 0.15546 0.99155 0.6875 0.0
H1234 H 0.13872 0.98845 0.6388 0.0
H1235 H 0.10172 0.98789 0.60292 0.0
H1236 H 0.02293 -0.00163 0.62604 0.0
H1237 H 0.03961 0.00175 0.67493 0.0
C1238 C 0.08995 -0.00214 0.69533 0.0
C1239 C 0.11712 -0.00388 0.70292 0.0
C1240 C 0.0803 -0.00343 0.66728 0.0
C1241 C 0.13445 0.99289 0.68218 0.0
C1242 C 0.12491 0.99115 0.65432 0.0
C1243 C 0.08819 0.99104 0.61863 0.0
C1244 C 0.0611 0.99278 0.61081 0.0
C1245 C 0.0979 0.99297 0.64664 0.0
C1246 C 0.04392 -0.00295 0.63147 0.0
C1247 C 0.0534 -0.00116 0.65945 0.0
H1248 H 0.73345 0.30534 0.43803 0.0
H1249 H 0.69504 0.35822 0.39116 0.0
H1250 H 0.69569 0.32917 0.34867 0.0
H1251 H 0.71193 0.29188 0.3245 0.0
H1252 H 0.7527 0.24048 0.37064 0.0
H1253 H 0.74573 0.26548 0.41396 0.0
C1254 C 0.72489 0.31039 0.41858 0.0
C1255 C 0.71463 0.33418 0.41774 0.0
C1256 C 0.72585 0.29393 0.39414 0.0
C1257 C 0.7034 0.34024 0.39238 0.0
C1258 C 0.70377 0.32366 0.36805 0.0
C1259 C 0.71911 0.28607 0.34399 0.0
C1260 C 0.73327 0.26479 0.34432 0.0
C1261 C 0.71572 0.30096 0.36863 0.0
C1262 C 0.74182 0.25691 0.36981 0.0
C1263 C 0.73802 0.27131 0.39457 0.0
H1264 H 0.44617 0.01471 0.20931 0.0
H1265 H 0.37182 0.02539 0.16487 0.0
H1266 H 0.39072 0.01718 0.12098 0.0
H1267 H 0.42788 0.00665 0.09553 0.0
H1268 H 0.50156 0.99339 0.13908 0.0
H1269 H 0.4831 0.0023 0.1834 0.0
C1270 C 0.43419 0.01536 0.19002 0.0
C1271 C 0.40771 0.0208 0.19021 0.0
C1272 C 0.44488 0.00981 0.1649 0.0
C1273 C 0.39226 0.0213 0.16513 0.0
C1274 C 0.403 0.01654 0.1401 0.0
C1275 C 0.43992 0.00565 0.11473 0.0
C1276 C 0.46605 -0.00046 0.1142 0.0
C1277 C 0.42919 0.01065 0.13979 0.0
C1278 C 0.48131 -0.00208 0.1391 0.0
C1279 C 0.47084 0.00321 0.16435 0.0
H1280 H 0.77363 0.70467 0.92809 0.0
H1281 H 0.77131 0.6285 0.8808 0.0
H1282 H 0.77904 0.6502 0.83935 0.0
H1283 H 0.78329 0.69011 0.81583 0.0
H1284 H 0.78544 0.76664 0.86197 0.0
H1285 H 0.78165 0.74559 0.90472 0.0
C1286 C 0.77499 0.69285 0.90875 0.0
C1287 C 0.77158 0.66492 0.90755 0.0
C1288 C 0.7795 0.70552 0.88483 0.0
C1289 C 0.77367 0.64996 0.88236 0.0
C1290 C 0.77812 0.66236 0.8586 0.0
C1291 C 0.78317 0.70228 0.83528 0.0
C1292 C 0.78418 0.72985 0.83563 0.0
C1293 C 0.78061 0.69002 0.85952 0.0
C1294 C 0.7846 0.74537 0.86108 0.0
C1295 C 0.78221 0.73329 0.88549 0.0
H1296 H 0.81697 0.04534 0.02292 0.0
H1297 H 0.8486 0.1283 0.01863 0.0
H1298 H 0.89051 0.11697 0.00383 0.0
H1299 H 0.91972 0.08446 -0.00369 0.0
H1300 H 0.88998 0.00152 0.00097 0.0
H1301 H 0.84536 0.01168 0.01054 0.0
C1302 C 0.83304 0.06087 0.01866 0.0
C1303 C 0.82982 0.08766 0.0223 0.0
C1304 C 0.85723 0.05421 0.00995 0.0
C1305 C 0.85059 0.10755 0.01622 0.0
C1306 C 0.87458 0.10112 0.00768 0.0
C1307 C 0.90323 0.06854 -0.00118 0.0
C1308 C 0.90789 0.04239 -0.00191 0.0
C1309 C 0.87826 0.07465 0.00497 0.0
C1310 C 0.88658 0.02179 0.00119 0.0
C1311 C 0.86128 0.02768 0.00704 0.0
H1312 H 0.3524 0.40862 0.03225 0.0
H1313 H 0.32537 0.48276 0.05232 0.0
H1314 H 0.37159 0.50719 0.05259 0.0
H1315 H 0.41878 0.5077 0.04268 0.0
H1316 H 0.44426 0.43363 0.01722 0.0
H1317 H 0.3999 0.40904 0.02357 0.0
C1318 C 0.35688 0.43005 0.03734 0.0
C1319 C 0.33578 0.44393 0.04258 0.0
C1320 C 0.38321 0.44402 0.0361 0.0
C1321 C 0.34149 0.47175 0.04843 0.0
C1322 C 0.36784 0.4857 0.04842 0.0
C1323 C 0.41471 0.48617 0.03882 0.0
C1324 C 0.43497 0.4726 0.0297 0.0
C1325 C 0.38874 0.4721 0.04155 0.0
C1326 C 0.42921 0.44467 0.02447 0.0
C1327 C 0.40375 0.43052 0.02802 0.0
H1328 H 0.35499 0.59275 0.7852 0.0
H1329 H 0.29591 0.54302 0.7246 0.0
H1330 H 0.26625 0.57601 0.72782 0.0
H1331 H 0.25819 0.62013 0.74589 0.0
H1332 H 0.31677 0.66938 0.80744 0.0
H1333 H 0.3452 0.63534 0.80607 0.0
C1334 C 0.33555 0.58908 0.77283 0.0
C1335 C 0.3278 0.56554 0.75452 0.0
C1336 C 0.31842 0.60805 0.77497 0.0
C1337 C 0.30241 0.56096 0.73885 0.0
C1338 C 0.28543 0.57985 0.74063 0.0
C1339 C 0.277 0.62331 0.75927 0.0
C1340 C 0.28531 0.64741 0.77662 0.0
C1341 C 0.29336 0.60362 0.75837 0.0
C1342 C 0.30976 0.65106 0.79388 0.0
C1343 C 0.32616 0.63163 0.79302 0.0
H1344 H 0.17322 0.54883 0.51577 0.0
H1345 H 0.16253 0.6278 0.50027 0.0
H1346 H 0.11371 0.61238 0.49007 0.0
H1347 H 0.0743 0.57643 0.48532 0.0
H1348 H 0.08465 0.49787 0.50279 0.0
H1349 H 0.13353 0.51321 0.51271 0.0
C1350 C 0.16018 0.5626 0.51004 0.0
C1351 C 0.17133 0.58931 0.50852 0.0
C1352 C 0.13218 0.55372 0.5047 0.0
C1353 C 0.15429 0.60711 0.50151 0.0
C1354 C 0.12644 0.59832 0.49569 0.0
C1355 C 0.08729 0.56268 0.49127 0.0
C1356 C 0.07606 0.53608 0.49316 0.0
C1357 C 0.11521 0.57168 0.49719 0.0
C1358 C 0.09295 0.5185 0.50127 0.0
C1359 C 0.12084 0.52722 0.50683 0.0
H1360 H 0.65524 0.90283 0.78221 0.0
H1361 H 0.72577 0.95213 0.75825 0.0
H1362 H 0.75264 0.91757 0.76607 0.0
H1363 H 0.75456 0.87109 0.77468 0.0
H1364 H 0.68297 0.8217 0.79608 0.0
H1365 H 0.65819 0.8586 0.79489 0.0
C1366 C 0.67656 0.90617 0.77896 0.0
C1367 C 0.68837 0.92987 0.7693 0.0
C1368 C 0.69174 0.88615 0.78317 0.0
C1369 C 0.71611 0.93396 0.76549 0.0
C1370 C 0.73149 0.91419 0.76994 0.0
C1371 C 0.73382 0.86883 0.77991 0.0
C1372 C 0.72057 0.84398 0.78575 0.0
C1373 C 0.71937 0.88992 0.77816 0.0
C1374 C 0.69351 0.84085 0.7918 0.0
C1375 C 0.6793 0.86184 0.79089 0.0
H1376 H 0.69611 0.94722 0.52361 0.0
H1377 H 0.64935 0.87183 0.53689 0.0
H1378 H 0.60751 0.88951 0.53007 0.0
H1379 H 0.58438 0.92638 0.52129 0.0
H1380 H 0.63035 0.00157 0.50642 0.0
H1381 H 0.67247 0.98386 0.51263 0.0
C1382 C 0.67675 0.9347 0.52505 0.0
C1383 C 0.67581 0.90831 0.53097 0.0
C1384 C 0.65272 0.9449 0.52072 0.0
C1385 C 0.65059 0.89219 0.5324 0.0
C1386 C 0.62668 0.90229 0.52852 0.0
C1387 C 0.6036 0.93894 0.51934 0.0
C1388 C 0.60429 0.96532 0.51359 0.0
C1389 C 0.62754 0.92861 0.52279 0.0
C1390 C 0.62931 0.98118 0.51078 0.0
C1391 C 0.65337 0.9711 0.51445 0.0
H1392 H 0.31924 0.42532 0.73366 0.0
H1393 H 0.39573 0.39807 0.74284 0.0
H1394 H 0.37241 0.35409 0.74982 0.0
H1395 H 0.33078 0.32377 0.755 0.0
H1396 H 0.25363 0.34906 0.74293 0.0
H1397 H 0.27671 0.39343 0.73557 0.0
C1398 C 0.33075 0.40971 0.73708 0.0
C1399 C 0.35923 0.41509 0.73787 0.0
C1400 C 0.31714 0.38417 0.74073 0.0
C1401 C 0.37383 0.39454 0.74204 0.0
C1402 C 0.36052 0.36936 0.74617 0.0
C1403 C 0.31893 0.3389 0.7506 0.0
C1404 C 0.29053 0.33314 0.74965 0.0
C1405 C 0.33226 0.36403 0.7458 0.0
C1406 C 0.27553 0.35298 0.74376 0.0
C1407 C 0.28873 0.37836 0.7396 0.0
H1408 H 0.17842 0.56861 0.25307 0.0
H1409 H 0.10015 0.5883 0.23009 0.0
H1410 H 0.11914 0.63546 0.2397 0.0
H1411 H 0.15693 0.67109 0.25804 0.0
H1412 H 0.23571 0.65232 0.2797 0.0
H1413 H 0.21767 0.60489 0.2669 0.0
C1414 C 0.16559 0.58323 0.24996 0.0
C1415 C 0.13782 0.57486 0.2412 0.0
C1416 C 0.1767 0.61049 0.25535 0.0
C1417 C 0.12156 0.5941 0.23689 0.0
C1418 C 0.13237 0.62113 0.24246 0.0
C1419 C 0.1702 0.65661 0.25969 0.0
C1420 C 0.19748 0.66507 0.27006 0.0
C1421 C 0.15974 0.62953 0.25221 0.0
C1422 C 0.2146 0.64622 0.27173 0.0
C1423 C 0.20426 0.61912 0.26457 0.0
H1424 H 0.51363 0.66098 0.42182 0.0
H1425 H 0.46486 0.70163 0.47403 0.0
H1426 H 0.45883 0.66431 0.50185 0.0
H1427 H 0.46546 0.61901 0.50954 0.0
H1428 H 0.51623 0.57968 0.45829 0.0
H1429 H 0.52388 0.61782 0.43227 0.0
C1430 C 0.5017 0.66165 0.43932 0.0
C1431 C 0.48932 0.68375 0.44565 0.0
C1432 C 0.49884 0.64045 0.45548 0.0
C1433 C 0.47443 0.6847 0.4687 0.0
C1434 C 0.47099 0.66339 0.48458 0.0
C1435 C 0.47849 0.61893 0.49292 0.0
C1436 C 0.49001 0.59637 0.48576 0.0
C1437 C 0.48286 0.64102 0.47796 0.0
C1438 C 0.50705 0.59672 0.4643 0.0
C1439 C 0.51131 0.61848 0.44924 0.0
H1440 H 0.60383 0.29977 0.72488 0.0
H1441 H 0.63311 0.29155 0.64434 0.0
H1442 H 0.6764 0.28415 0.66525 0.0
H1443 H 0.70434 0.27616 0.70557 0.0
H1444 H 0.6763 0.28465 0.7865 0.0
H1445 H 0.63403 0.29597 0.76628 0.0
C1446 C 0.61982 0.2967 0.71197 0.0
C1447 C 0.61512 0.29587 0.68305 0.0
C1448 C 0.64471 0.29227 0.72414 0.0
C1449 C 0.6361 0.29207 0.66661 0.0
C1450 C 0.66085 0.28776 0.67853 0.0
C1451 C 0.68905 0.28066 0.71884 0.0
C1452 C 0.69316 0.27923 0.7474 0.0
C1453 C 0.66509 0.28716 0.70713 0.0
C1454 C 0.67347 0.28557 0.76443 0.0
C1455 C 0.64932 0.29193 0.75286 0.0
H1456 H -0.00094 0.33501 0.94829 0.0
H1457 H 0.00224 0.35828 0.86586 0.0
H1458 H 0.00467 0.40442 0.88392 0.0
H1459 H 0.01047 0.43867 0.92302 0.0
H1460 H 0.00863 0.41705 0.00591 0.0
H1461 H 0.00042 0.36979 0.98774 0.0
C1462 C -3e-05 0.35015 0.93429 0.0
C1463 C 0.00092 0.34313 0.90579 0.0
C1464 C 0.00159 0.37697 0.94485 0.0
C1465 C 0.00188 0.36303 0.88792 0.0
C1466 C 0.00322 0.3895 0.89819 0.0
C1467 C 0.00787 0.42361 0.93711 0.0
C1468 C 0.01041 0.43125 0.9657 0.0
C1469 C 0.00377 0.39674 0.92661 0.0
C1470 C 0.00666 0.41159 0.98375 0.0
C1471 C 0.00223 0.3846 0.97338 0.0
H1472 H 0.95704 0.73575 0.2163 0.0
H1473 H 0.95725 0.80851 0.1791 0.0
H1474 H 0.91363 0.81264 0.19608 0.0
H1475 H 0.8758 0.79588 0.22182 0.0
H1476 H 0.87368 0.7216 0.25628 0.0
H1477 H 0.91789 0.71773 0.24011 0.0
C1478 C 0.94753 0.75252 0.21194 0.0
C1479 C 0.96043 0.77192 0.19667 0.0
C1480 C 0.92226 0.75452 0.22135 0.0
C1481 C 0.9477 0.79331 0.19079 0.0
C1482 C 0.92283 0.79573 0.20056 0.0
C1483 C 0.88514 0.77894 0.22597 0.0
C1484 C 0.87186 0.75923 0.24056 0.0
C1485 C 0.91004 0.77655 0.21598 0.0
C1486 C 0.88373 0.73705 0.2452 0.0
C1487 C 0.90893 0.73486 0.23596 0.0
H1488 H 0.54075 0.32573 0.06533 0.0
H1489 H 0.45512 0.29873 0.04338 0.0
H1490 H 0.45205 0.33956 0.02224 0.0
H1491 H 0.47278 0.38545 0.01653 0.0
H1492 H 0.55876 0.41163 0.03646 0.0
H1493 H 0.56299 0.36826 0.05146 0.0
C1494 C 0.52158 0.32865 0.05535 0.0
C1495 C 0.49809 0.30972 0.05613 0.0
C1496 C 0.52012 0.35191 0.04305 0.0
C1497 C 0.47338 0.31323 0.04294 0.0
C1498 C 0.47163 0.33656 0.03103 0.0
C1499 C 0.49252 0.38125 0.02339 0.0
C1500 C 0.51544 0.40142 0.02564 0.0
C1501 C 0.4947 0.35639 0.03187 0.0
C1502 C 0.54097 0.39612 0.03444 0.0
C1503 C 0.54331 0.37149 0.04325 0.0
H1504 H 0.937 0.25831 0.3782 0.0
H1505 H 0.95384 0.29161 0.30248 0.0
H1506 H 0.90533 0.28345 0.28715 0.0
H1507 H 0.85838 0.26452 0.29433 0.0
H1508 H 0.84236 0.23148 0.37046 0.0
H1509 H 0.89038 0.24215 0.38662 0.0
C1510 C 0.93011 0.26382 0.35833 0.0
C1511 C 0.94899 0.27523 0.34136 0.0
C1512 C 0.90234 0.25916 0.34974 0.0
C1513 C 0.93968 0.28268 0.31589 0.0
C1514 C 0.91197 0.278 0.3071 0.0
C1515 C 0.86538 0.25993 0.31458 0.0
C1516 C 0.84685 0.247 0.33105 0.0
C1517 C 0.89314 0.26594 0.32373 0.0
C1518 C 0.85621 0.24124 0.35726 0.0
C1519 C 0.88369 0.24729 0.36654 0.0
H1520 H 0.96725 0.6495 0.56668 0.0
H1521 H 0.05288 0.65977 0.59205 0.0
H1522 H 0.05602 0.61956 0.56255 0.0
H1523 H 0.03368 0.5785 0.53527 0.0
H1524 H 0.94774 0.56514 0.51147 0.0
H1525 H 0.9454 0.60962 0.53397 0.0
C1526 C 0.9866 0.64313 0.56515 0.0
C1527 C 0.00978 0.65733 0.58166 0.0
C1528 C 0.98814 0.61934 0.54864 0.0
C1529 C 0.03476 0.64893 0.57973 0.0
C1530 C 0.03659 0.62596 0.5629 0.0
C1531 C 0.01451 0.58557 0.53453 0.0
C1532 C 0.99089 0.56863 0.52206 0.0
C1533 C 0.01328 0.61055 0.54813 0.0
C1534 C 0.96622 0.57798 0.52089 0.0
C1535 C 0.96486 0.60327 0.53402 0.0
H1536 H 0.6256 0.73959 0.88542 0.0
H1537 H 0.57985 0.75204 0.81084 0.0
H1538 H 0.62003 0.75223 0.78571 0.0
H1539 H 0.66963 0.75437 0.78669 0.0
H1540 H 0.71486 0.74295 0.86203 0.0
H1541 H 0.67338 0.73624 0.88494 0.0
C1542 C 0.62436 0.74205 0.86359 0.0
C1543 C 0.6 0.74623 0.85011 0.0
C1544 C 0.64747 0.74227 0.84939 0.0
C1545 C 0.59849 0.74895 0.82171 0.0
C1546 C 0.62146 0.74912 0.80735 0.0
C1547 C 0.67016 0.74962 0.80784 0.0
C1548 C 0.69513 0.7493 0.82277 0.0
C1549 C 0.64626 0.7465 0.82117 0.0
C1550 C 0.69577 0.74345 0.85026 0.0
C1551 C 0.67212 0.73975 0.8634 0.0
H1552 H 0.459 0.52932 0.67978 0.0
H1553 H 0.37824 0.50747 0.63762 0.0
H1554 H 0.3967 0.50823 0.59306 0.0
H1555 H 0.43551 0.51305 0.56603 0.0
H1556 H 0.51665 0.53425 0.60721 0.0
H1557 H 0.49827 0.53605 0.65218 0.0
C1558 C 0.44545 0.5249 0.66084 0.0
C1559 C 0.41725 0.51819 0.66211 0.0
C1560 C 0.45625 0.52519 0.63512 0.0
C1561 C 0.4 0.51255 0.63733 0.0
C1562 C 0.41054 0.51297 0.61179 0.0
C1563 C 0.44928 0.51816 0.58479 0.0
C1564 C 0.47748 0.52331 0.58319 0.0
C1565 C 0.43861 0.51892 0.61045 0.0
C1566 C 0.49488 0.53019 0.6078 0.0
C1567 C 0.48437 0.53112 0.63352 0.0
H1568 H 0.75477 0.21866 0.97509 0.0
H1569 H 0.81999 0.17689 0.95723 0.0
H1570 H 0.82082 0.19264 0.91181 0.0
H1571 H 0.79893 0.21269 0.87522 0.0
H1572 H 0.73196 0.25256 0.8911 0.0
H1573 H 0.73595 0.24336 0.93943 0.0
C1574 C 0.76961 0.21367 0.96149 0.0
C1575 C 0.78718 0.19653 0.96927 0.0
C1576 C 0.76928 0.22199 0.93495 0.0
C1577 C 0.80618 0.18994 0.9515 0.0
C1578 C 0.80657 0.1988 0.92552 0.0
C1579 C 0.78529 0.21954 0.88928 0.0
C1580 C 0.76479 0.23273 0.87957 0.0
C1581 C 0.78748 0.21387 0.91666 0.0
C1582 C 0.74773 0.24211 0.89813 0.0
C1583 C 0.74998 0.2368 0.92569 0.0
H1584 H 0.11803 0.48523 0.15233 0.0
H1585 H 0.04968 0.43321 0.17665 0.0
H1586 H 0.02137 0.44093 0.13613 0.0
H1587 H 0.01487 0.46695 0.09686 0.0
H1588 H 0.08343 0.52144 0.07583 0.0
H1589 H 0.11253 0.50844 0.11193 0.0
C1590 C 0.09714 0.47501 0.14839 0.0
C1591 C 0.08593 0.45871 0.16739 0.0
C1592 C 0.08076 0.48051 0.12591 0.0
C1593 C 0.05873 0.44587 0.1622 0.0
C1594 C 0.04248 0.45047 0.1392 0.0
C1595 C 0.03619 0.47581 0.10013 0.0
C1596 C 0.04675 0.49531 0.08378 0.0
C1597 C 0.05303 0.46855 0.12145 0.0
C1598 C 0.07453 0.50655 0.08822 0.0
C1599 C 0.09136 0.49907 0.10883 0.0
H1600 H 0.76972 0.86993 0.42508 0.0
H1601 H 0.75235 0.8041 0.47302 0.0
H1602 H 0.75593 0.77296 0.43273 0.0
H1603 H 0.76015 0.76437 0.38283 0.0
H1604 H 0.77714 0.83066 0.33533 0.0
H1605 H 0.77805 0.86168 0.37668 0.0
C1606 C 0.7668 0.84877 0.42679 0.0
C1607 C 0.76036 0.83933 0.45191 0.0
C1608 C 0.76893 0.83106 0.40363 0.0
C1609 C 0.75716 0.81189 0.45387 0.0
C1610 C 0.75919 0.79407 0.43084 0.0
C1611 C 0.76464 0.7856 0.38164 0.0
C1612 C 0.76834 0.79516 0.35595 0.0
C1613 C 0.76461 0.80341 0.40546 0.0
C1614 C 0.77403 0.82275 0.35479 0.0
C1615 C 0.77442 0.84053 0.3784 0.0
H1616 H 0.40281 0.50913 0.83739 0.0
H1617 H 0.48469 0.50544 0.81919 0.0
H1618 H 0.49914 0.50788 0.86841 0.0
H1619 H 0.48868 0.51135 0.91681 0.0
H1620 H 0.40665 0.5145 0.93486 0.0
H1621 H 0.39218 0.51166 0.88565 0.0
C1622 C 0.42386 0.50905 0.84418 0.0
C1623 C 0.44263 0.50726 0.82456 0.0
C1624 C 0.43201 0.51009 0.87256 0.0
C1625 C 0.46977 0.50684 0.83379 0.0
C1626 C 0.47808 0.50817 0.86197 0.0
C1627 C 0.46759 0.51114 0.90997 0.0
C1628 C 0.44882 0.51312 0.92957 0.0
C1629 C 0.45937 0.50972 0.88156 0.0
C1630 C 0.42158 0.513 0.92029 0.0
C1631 C 0.41326 0.51148 0.89211 0.0
H1632 H 0.79553 0.20417 0.11981 0.0
H1633 H 0.76609 0.13045 0.15194 0.0
H1634 H 0.76513 0.15451 0.19723 0.0
H1635 H 0.76557 0.19653 0.22515 0.0
H1636 H 0.795 0.27062 0.19407 0.0
H1637 H 0.80287 0.24625 0.15071 0.0
C1638 C 0.78936 0.1933 0.13682 0.0
C1639 C 0.78032 0.16558 0.13225 0.0
C1640 C 0.78844 0.20731 0.16283 0.0
C1641 C 0.77275 0.15181 0.15467 0.0
C1642 C 0.77211 0.16555 0.18061 0.0
C1643 C 0.77463 0.20742 0.20937 0.0
C1644 C 0.77962 0.23537 0.2129 0.0
C1645 C 0.7789 0.19334 0.18458 0.0
C1646 C 0.79087 0.24909 0.19189 0.0
C1647 C 0.79527 0.23517 0.16705 0.0
H1648 H 0.07712 0.46368 0.32846 0.0
H1649 H 0.02827 0.51958 0.30177 0.0
H1650 H 0.00633 0.51882 0.34451 0.0
H1651 H 0.00153 0.50275 0.38988 0.0
H1652 H 0.04942 0.44553 0.41549 0.0
H1653 H 0.07089 0.44615 0.37271 0.0
C1654 C 0.06178 0.47579 0.33211 0.0
C1655 C 0.05447 0.49178 0.31216 0.0
C1656 C 0.04888 0.47489 0.35645 0.0
C1657 C 0.03426 0.50708 0.31689 0.0
C1658 C 0.02167 0.50666 0.34129 0.0
C1659 C 0.01646 0.49024 0.38596 0.0
C1660 C 0.02391 0.47427 0.40591 0.0
C1661 C 0.02882 0.49062 0.36123 0.0
C1662 C 0.0433 0.45813 0.40052 0.0
C1663 C 0.05572 0.4585 0.37609 0.0
H1664 H 0.7379 0.80007 0.60027 0.0
H1665 H 0.77311 0.8769 0.64425 0.0
H1666 H 0.7756 0.85733 0.68755 0.0
H1667 H 0.7684 0.81871 0.71296 0.0
H1668 H 0.73315 0.74152 0.66997 0.0
H1669 H 0.72984 0.761 0.62632 0.0
C1670 C 0.74615 0.8125 0.61933 0.0
C1671 C 0.7554 0.83993 0.61893 0.0
C1672 C 0.74745 0.8011 0.64435 0.0
C1673 C 0.76588 0.85576 0.64387 0.0
C1674 C 0.76731 0.84459 0.6687 0.0
C1675 C 0.75997 0.80604 0.69408 0.0
C1676 C 0.75117 0.77862 0.69478 0.0
C1677 C 0.75823 0.81732 0.66917 0.0
C1678 C 0.74008 0.76267 0.67008 0.0
C1679 C 0.73826 0.7738 0.64509 0.0
H1680 H 0.68499 0.44559 0.537 0.0
H1681 H 0.6352 0.36784 0.51604 0.0
H1682 H 0.59443 0.38751 0.51659 0.0
H1683 H 0.57326 0.42689 0.51843 0.0
H1684 H 0.62205 0.50481 0.54004 0.0
H1685 H 0.66313 0.48496 0.54419 0.0
C1686 C 0.66519 0.43296 0.53282 0.0
C1687 C 0.66308 0.40537 0.52599 0.0
C1688 C 0.64181 0.44442 0.53315 0.0
C1689 C 0.63735 0.38915 0.52109 0.0
C1690 C 0.61404 0.40037 0.52133 0.0
C1691 C 0.59291 0.43948 0.52428 0.0
C1692 C 0.59495 0.46717 0.52846 0.0
C1693 C 0.6161 0.42798 0.52659 0.0
C1694 C 0.62023 0.48339 0.53665 0.0
C1695 C 0.64362 0.47206 0.53886 0.0
H1696 H 0.17004 0.05138 0.48308 0.0
H1697 H 0.14798 0.12918 0.49295 0.0
H1698 H 0.10255 0.10946 0.5023 0.0
H1699 H 0.06994 0.07071 0.51012 0.0
H1700 H 0.09096 0.99256 0.49995 0.0
H1701 H 0.13599 0.01186 0.48817 0.0
C1702 C 0.15522 0.06399 0.48705 0.0
C1703 C 0.16251 0.09176 0.48754 0.0
C1704 C 0.12905 0.0525 0.49255 0.0
C1705 C 0.143 0.10779 0.49257 0.0
C1706 C 0.11701 0.09654 0.49799 0.0
C1707 C 0.08434 0.05783 0.50532 0.0
C1708 C 0.07724 0.03026 0.50624 0.0
C1709 C 0.10998 0.06901 0.49849 0.0
C1710 C 0.09598 0.01385 0.49948 0.0
C1711 C 0.12172 0.02489 0.4928 0.0
H1712 H 0.21789 0.94585 0.76784 0.0
H1713 H 0.16405 0.92182 0.82869 0.0
H1714 H 0.17974 0.87943 0.8281 0.0
H1715 H 0.20581 0.8481 0.80812 0.0
H1716 H 0.25803 0.86967 0.74514 0.0
H1717 H 0.24606 0.91424 0.74882 0.0
C1718 C 0.20996 0.93144 0.78124 0.0
C1719 C 0.18982 0.93694 0.7983 0.0
C1720 C 0.21852 0.90663 0.78017 0.0
C1721 C 0.17946 0.91801 0.81533 0.0
C1722 C 0.18838 0.89375 0.81496 0.0
C1723 C 0.21471 0.86247 0.79513 0.0
C1724 C 0.23256 0.8554 0.7761 0.0
C1725 C 0.2074 0.88765 0.79704 0.0
C1726 C 0.24412 0.87453 0.75984 0.0
C1727 C 0.23724 0.89998 0.76193 0.0
H1728 H 0.33004 0.95124 -0.00392 0.0
H1729 H 0.32665 0.88086 0.03816 0.0
H1730 H 0.37591 0.8875 0.04388 0.0
H1731 H 0.41979 0.91362 0.03807 0.0
H1732 H 0.42386 0.9845 -0.0031 0.0
H1733 H 0.37439 0.97701 0.98931 0.0
C1734 C 0.34007 0.93739 0.00656 0.0
C1735 C 0.32463 0.91566 0.01677 0.0
C1736 C 0.36849 0.94125 0.00975 0.0
C1737 C 0.33798 0.8978 0.03013 0.0
C1738 C 0.36618 0.90152 0.03338 0.0
C1739 C 0.40992 0.92733 0.02718 0.0
C1740 C 0.42547 0.94957 0.01808 0.0
C1741 C 0.3816 0.92318 0.02334 0.0
C1742 C 0.41233 0.96716 0.00407 0.0
C1743 C 0.38406 0.96298 -0.00014 0.0
H1744 H 0.83987 0.58816 0.73988 0.0
H1745 H 0.79479 0.55499 0.80328 0.0
H1746 H 0.76334 0.58642 0.79822 0.0
H1747 H 0.75136 0.62578 0.77807 0.0
H1748 H 0.79595 0.65669 0.71286 0.0
H1749 H 0.82451 0.6232 0.71584 0.0
C1750 C 0.82303 0.58776 0.75246 0.0
C1751 C 0.8198 0.56982 0.77228 0.0
C1752 C 0.8049 0.60531 0.74895 0.0
C1753 C 0.79766 0.56888 0.78806 0.0
C1754 C 0.77976 0.58681 0.78514 0.0
C1755 C 0.76694 0.62483 0.7641 0.0
C1756 C 0.77164 0.64401 0.7455 0.0
C1757 C 0.78348 0.60544 0.76593 0.0
C1758 C 0.79184 0.64233 0.72745 0.0
C1759 C 0.80838 0.62328 0.72925 0.0
H1760 H 0.8163 0.54469 0.0311 0.0
H1761 H 0.83619 0.60125 0.97287 0.0
H1762 H 0.88134 0.5903 0.97242 0.0
H1763 H 0.91548 0.56601 0.98927 0.0
H1764 H 0.89707 0.5098 0.048 0.0
H1765 H 0.85077 0.51912 0.04727 0.0
C1766 C 0.83048 0.55458 0.01824 0.0
C1767 C 0.8228 0.57389 0.00213 0.0
C1768 C 0.85661 0.54826 0.01814 0.0
C1769 C 0.84147 0.58642 0.98556 0.0
C1770 C 0.86734 0.58016 0.98526 0.0
C1771 C 0.90141 0.55568 0.00195 0.0
C1772 C 0.9098 0.53735 0.01883 0.0
C1773 C 0.87515 0.56131 0.0016 0.0
C1774 C 0.89113 0.52401 0.03485 0.0
C1775 C 0.86472 0.52941 0.03448 0.0
H1776 H 0.15604 0.11355 0.76713 0.0
H1777 H 0.22009 0.08774 0.81563 0.0
H1778 H 0.24961 0.13082 0.81418 0.0
H1779 H 0.25702 0.17617 0.79835 0.0
H1780 H 0.19153 0.19907 0.74871 0.0
H1781 H 0.16311 0.15682 0.75139 0.0
C1782 C 0.17639 0.11723 0.77762 0.0
C1783 C 0.18569 0.09742 0.79162 0.0
C1784 C 0.19318 0.14164 0.77636 0.0
C1785 C 0.21232 0.10265 0.80473 0.0
C1786 C 0.22922 0.12728 0.80387 0.0
C1787 C 0.23656 0.17183 0.78814 0.0
C1788 C 0.22661 0.19102 0.77341 0.0
C1789 C 0.21989 0.14699 0.7896 0.0
C1790 C 0.19997 0.18494 0.76025 0.0
C1791 C 0.18351 0.16068 0.76175 0.0
H1792 H 0.32422 0.92807 0.27601 0.0
H1793 H 0.40108 0.91115 0.25246 0.0
H1794 H 0.38472 0.86397 0.25142 0.0
H1795 H 0.34875 0.82724 0.25553 0.0
H1796 H 0.27117 0.84225 0.27814 0.0
H1797 H 0.28782 0.89028 0.28158 0.0
C1798 C 0.33737 0.91405 0.27073 0.0
C1799 C 0.36384 0.92337 0.26422 0.0
C1800 C 0.3278 0.88653 0.27007 0.0
C1801 C 0.3806 0.9048 0.2575 0.0
C1802 C 0.37131 0.87767 0.25691 0.0
C1803 C 0.33543 0.84094 0.26139 0.0
C1804 C 0.30874 0.83114 0.26647 0.0
C1805 C 0.34496 0.86832 0.26295 0.0
C1806 C 0.29187 0.84927 0.27415 0.0
C1807 C 0.30134 0.87674 0.27599 0.0
H1808 H 0.51941 0.33966 0.56547 0.0
H1809 H 0.49338 0.36404 0.64465 0.0
H1810 H 0.48533 0.40559 0.62893 0.0
H1811 H 0.49054 0.43729 0.59502 0.0
H1812 H 0.5166 0.41447 0.5157 0.0
H1813 H 0.51928 0.37006 0.52885 0.0
C1814 C 0.51159 0.35391 0.57908 0.0
C1815 C 0.50748 0.34884 0.60638 0.0
C1816 C 0.50706 0.37815 0.56992 0.0
C1817 C 0.49715 0.36748 0.62369 0.0
C1818 C 0.49247 0.39133 0.61473 0.0
C1819 C 0.49622 0.42237 0.58039 0.0
C1820 C 0.50344 0.4291 0.55454 0.0
C1821 C 0.49808 0.39719 0.58823 0.0
C1822 C 0.51069 0.40963 0.53568 0.0
C1823 C 0.51251 0.38434 0.54332 0.0
H1824 H 0.40751 0.74288 0.3625 0.0
H1825 H 0.43464 0.73678 0.28102 0.0
H1826 H 0.38795 0.73181 0.26016 0.0
H1827 H 0.34003 0.7336 0.26524 0.0
H1828 H 0.31396 0.74395 0.34698 0.0
H1829 H 0.35944 0.74272 0.36756 0.0
C1830 C 0.40309 0.73991 0.34018 0.0
C1831 C 0.42437 0.74015 0.3233 0.0
C1832 C 0.3764 0.73816 0.32838 0.0
C1833 C 0.4185 0.73672 0.29441 0.0
C1834 C 0.39186 0.73396 0.28248 0.0
C1835 C 0.34429 0.73524 0.28752 0.0
C1836 C 0.32374 0.73892 0.30455 0.0
C1837 C 0.37073 0.73536 0.29928 0.0
C1838 C 0.32952 0.74126 0.33342 0.0
C1839 C 0.35551 0.74054 0.34523 0.0
H1840 H 0.03886 0.67157 0.13675 0.0
H1841 H 0.0188 0.71552 0.06947 0.0
H1842 H 0.01214 0.67499 0.03715 0.0
H1843 H 0.01032 0.6267 0.02835 0.0
H1844 H 0.02872 0.58285 0.09618 0.0
H1845 H 0.03803 0.62385 0.1279 0.0
C1846 C 0.03311 0.67237 0.11502 0.0
C1847 C 0.02923 0.69655 0.10561 0.0
C1848 C 0.02909 0.64902 0.09662 0.0
C1849 C 0.02178 0.69715 0.07733 0.0
C1850 C 0.01803 0.67399 0.0588 0.0
C1851 C 0.01668 0.62621 0.05001 0.0
C1852 C 0.01881 0.60185 0.05995 0.0
C1853 C 0.02143 0.64978 0.06826 0.0
C1854 C 0.0268 0.6014 0.0881 0.0
C1855 C 0.0321 0.6248 0.10624 0.0
H1856 H 0.06657 0.26057 0.82115 0.0
H1857 H 0.10382 0.25289 0.90193 0.0
H1858 H 0.14787 0.25486 0.88376 0.0
H1859 H 0.17533 0.25758 0.84486 0.0
H1860 H 0.13959 0.26858 0.7646 0.0
H1861 H 0.09518 0.26687 0.78262 0.0
C1862 C 0.0844 0.25932 0.83467 0.0
C1863 C 0.08211 0.25627 0.8627 0.0
C1864 C 0.10974 0.26118 0.82422 0.0
C1865 C 0.10525 0.25518 0.88026 0.0
C1866 C 0.13035 0.25628 0.8699 0.0
C1867 C 0.15779 0.25968 0.83134 0.0
C1868 C 0.16041 0.26288 0.80346 0.0
C1869 C 0.13275 0.25911 0.84193 0.0
C1870 C 0.13785 0.26611 0.78618 0.0
C1871 C 0.11255 0.26499 0.79644 0.0
H1872 H 0.48073 0.67565 0.92378 0.0
H1873 H 0.54693 0.71535 0.9832 0.0
H1874 H 0.54216 0.6768 0.00906 0.0
H1875 H 0.5234 0.6295 0.01083 0.0
H1876 H 0.45814 0.58964 0.95082 0.0
H1877 H 0.45792 0.63065 0.92926 0.0
C1878 C 0.49385 0.67601 0.94261 0.0
C1879 C 0.51446 0.69808 0.95131 0.0
C1880 C 0.49112 0.65374 0.95723 0.0
C1881 C 0.53105 0.69848 0.97596 0.0
C1882 C 0.52838 0.67643 0.99072 0.0
C1883 C 0.50854 0.63024 -0.00633 0.0
C1884 C 0.49052 0.60705 0.98253 0.0
C1885 C 0.50906 0.65365 0.98106 0.0
C1886 C 0.47176 0.60764 0.9599 0.0
C1887 C 0.47187 0.63093 0.94744 0.0
H1888 H 0.08018 0.74755 0.70141 0.0
H1889 H 0.10279 0.76896 0.62219 0.0
H1890 H 0.15063 0.77427 0.63895 0.0
H1891 H 0.18587 0.77316 0.67594 0.0
H1892 H 0.16388 0.75147 0.75525 0.0
H1893 H 0.11583 0.74557 0.73845 0.0
C1894 C 0.0956 0.75351 0.68788 0.0
C1895 C 0.08798 0.75799 0.66064 0.0
C1896 C 0.12309 0.75625 0.69756 0.0
C1897 C 0.10814 0.76542 0.64325 0.0
C1898 C 0.13549 0.76842 0.65279 0.0
C1899 C 0.17061 0.76703 0.68958 0.0
C1900 C 0.17844 0.76281 0.71682 0.0
C1901 C 0.14317 0.76386 0.67987 0.0
C1902 C 0.15838 0.75477 0.73415 0.0
C1903 C 0.13092 0.75152 0.7246 0.0
H1904 H 0.00097 0.3331 0.45179 0.0
H1905 H 0.07958 0.37137 0.43376 0.0
H1906 H 0.07582 0.41132 0.46405 0.0
H1907 H 0.04783 0.43695 0.4912 0.0
H1908 H 0.96614 0.40114 0.50191 0.0
H1909 H 0.97347 0.35832 0.47976 0.0
C1910 C 0.01749 0.35001 0.45504 0.0
C1911 C 0.0406 0.34938 0.44087 0.0
C1912 C 0.01451 0.37328 0.47121 0.0
C1913 C 0.06165 0.37153 0.44459 0.0
C1914 C 0.05948 0.39431 0.46185 0.0
C1915 C 0.03195 0.41952 0.48919 0.0
C1916 C 0.00663 0.42181 0.49829 0.0
C1917 C 0.0357 0.39565 0.47467 0.0
C1918 C 0.98585 0.3995 0.49519 0.0
C1919 C 0.98999 0.37518 0.48237 0.0
H1920 H 0.44462 0.24755 0.21677 0.0
H1921 H 0.41592 0.26086 0.13452 0.0
H1922 H 0.37259 0.26752 0.15045 0.0
H1923 H 0.34159 0.26563 0.1866 0.0
H1924 H 0.36997 0.25253 0.26894 0.0
H1925 H 0.41493 0.25021 0.2542 0.0
C1926 C 0.42895 0.25208 0.20236 0.0
C1927 C 0.43336 0.25329 0.17439 0.0
C1928 C 0.40407 0.25594 0.21167 0.0
C1929 C 0.41302 0.25964 0.15611 0.0
C1930 C 0.38821 0.26342 0.16518 0.0
C1931 C 0.35772 0.2626 0.20142 0.0
C1932 C 0.35243 0.25894 0.22871 0.0
C1933 C 0.38333 0.26104 0.19275 0.0
C1934 C 0.37357 0.25542 0.2478 0.0
C1935 C 0.39921 0.25389 0.23933 0.0
H1936 H 0.53351 0.50577 0.33955 0.0
H1937 H 0.61676 0.51522 0.37391 0.0
H1938 H 0.60196 0.51011 0.41989 0.0
H1939 H 0.56534 0.50482 0.4506 0.0
H1940 H 0.48207 0.4933 0.41563 0.0
H1941 H 0.4969 0.49709 0.36957 0.0
C1942 C 0.54843 0.50668 0.3571 0.0
C1943 C 0.57622 0.5112 0.35338 0.0
C1944 C 0.53976 0.50331 0.38334 0.0
C1945 C 0.59526 0.51184 0.37623 0.0
C1946 C 0.58681 0.50897 0.40253 0.0
C1947 C 0.55044 0.50298 0.43285 0.0
C1948 C 0.52263 0.49899 0.43658 0.0
C1949 C 0.55911 0.50497 0.40637 0.0
C1950 C 0.50357 0.49632 0.41335 0.0
C1951 C 0.51205 0.49862 0.38702 0.0
H1952 H 0.28233 0.82395 0.09299 0.0
H1953 H 0.19744 0.79264 0.07056 0.0
H1954 H 0.19601 0.76842 0.11116 0.0
H1955 H 0.21763 0.76131 0.1561 0.0
H1956 H 0.30285 0.79072 0.1777 0.0
H1957 H 0.30579 0.81023 0.13399 0.0
C1958 C 0.26371 0.81139 0.0968 0.0
C1959 C 0.23993 0.8103 0.07927 0.0
C1960 C 0.26316 0.79731 0.11993 0.0
C1961 C 0.21594 0.79374 0.08395 0.0
C1962 C 0.21509 0.78001 0.10717 0.0
C1963 C 0.23693 0.77136 0.15072 0.0
C1964 C 0.25998 0.77478 0.16971 0.0
C1965 C 0.23836 0.78236 0.12572 0.0
C1966 C 0.28499 0.78776 0.16299 0.0
C1967 C 0.28657 0.79909 0.13822 0.0
H1968 H 0.98867 0.53541 0.84773 0.0
H1969 H 0.90783 0.53577 0.87129 0.0
H1970 H 0.92462 0.53689 0.91983 0.0
H1971 H 0.96113 0.5329 0.95454 0.0
H1972 H 0.04171 0.53133 0.93072 0.0
H1973 H 0.02598 0.53553 0.88304 0.0
C1974 C 0.97472 0.53605 0.86347 0.0
C1975 C 0.94695 0.53512 0.85585 0.0
C1976 C 0.98438 0.53616 0.89117 0.0
C1977 C 0.92927 0.53635 0.87657 0.0
C1978 C 0.93882 0.53683 0.9043 0.0
C1979 C 0.97538 0.53376 0.93904 0.0
C1980 C 0.00252 0.53151 0.94616 0.0
C1981 C 0.96617 0.53595 0.91169 0.0
C1982 C 0.0207 0.5329 0.9258 0.0
C1983 C 0.01171 0.53525 0.89852 0.0
H1984 H 0.22197 0.15366 0.5996 0.0
H1985 H 0.29909 0.18128 0.5702 0.0
H1986 H 0.31438 0.20869 0.61439 0.0
H1987 H 0.30709 0.22152 0.66284 0.0
H1988 H 0.22908 0.19642 0.69131 0.0
H1989 H 0.21255 0.17141 0.64594 0.0
C1990 C 0.24199 0.16595 0.60285 0.0
C1991 C 0.25956 0.16529 0.58198 0.0
C1992 C 0.2504 0.18199 0.62807 0.0
C1993 C 0.28528 0.18153 0.58608 0.0
C1994 C 0.29405 0.19709 0.61134 0.0
C1995 C 0.28632 0.21096 0.65877 0.0
C1996 C 0.26921 0.21058 0.68001 0.0
C1997 C 0.27699 0.19702 0.63265 0.0
C1998 C 0.24238 0.19698 0.67493 0.0
C1999 C 0.23305 0.18261 0.64914 0.0
H2000 H 0.63171 0.50935 0.17457 0.0
H2001 H 0.55423 0.4873 0.20571 0.0
H2002 H 0.53129 0.48505 0.15927 0.0
H2003 H 0.53326 0.48865 0.10945 0.0
H2004 H 0.61102 0.5099 0.07857 0.0
H2005 H 0.63367 0.51344 0.12518 0.0
C2006 C 0.6098 0.50402 0.17121 0.0
C2007 C 0.59475 0.49845 0.19361 0.0
C2008 C 0.59672 0.50278 0.14446 0.0
C2009 C 0.56635 0.49162 0.18885 0.0
C2010 C 0.55319 0.4904 0.16229 0.0
C2011 C 0.55513 0.49434 0.113 0.0
C2012 C 0.57039 0.49904 0.09054 0.0
C2013 C 0.56815 0.49593 0.1399 0.0
C2014 C 0.59876 0.50611 0.09546 0.0
C2015 C 0.61177 0.50809 0.12212 0.0
H2016 H 0.22395 0.80716 0.93669 0.0
H2017 H 0.23865 0.88205 0.90251 0.0
H2018 H 0.24737 0.85928 0.85889 0.0
H2019 H 0.25443 0.81908 0.83208 0.0
H2020 H 0.23682 0.74336 0.86402 0.0
H2021 H 0.22637 0.76575 0.9075 0.0
C2022 C 0.22879 0.81845 0.9196 0.0
C2023 C 0.23095 0.8463 0.92296 0.0
C2024 C 0.23376 0.80523 0.8945 0.0
C2025 C 0.23689 0.86063 0.90052 0.0
C2026 C 0.24209 0.84766 0.87563 0.0
C2027 C 0.24789 0.80729 0.84829 0.0
C2028 C 0.24639 0.77957 0.8448 0.0
C2029 C 0.24115 0.82011 0.87266 0.0
C2030 C 0.23816 0.76474 0.86623 0.0
C2031 C 0.23214 0.77752 0.89102 0.0
H2032 H 0.92746 0.48998 0.69909 0.0
H2033 H 0.90273 0.56484 0.68838 0.0
H2034 H 0.92645 0.56792 0.64658 0.0
H2035 H 0.95357 0.5489 0.61316 0.0
H2036 H 0.97938 0.47437 0.62429 0.0
H2037 H 0.95636 0.47173 0.66638 0.0
C2038 C 0.92714 0.50674 0.68729 0.0
C2039 C 0.9131 0.5269 0.69602 0.0
C2040 C 0.94126 0.50856 0.6638 0.0
C2041 C 0.91315 0.54897 0.68141 0.0
C2042 C 0.9268 0.55077 0.65775 0.0
C2043 C 0.95434 0.53217 0.6249 0.0
C2044 C 0.96805 0.51182 0.61562 0.0
C2045 C 0.9409 0.53067 0.6488 0.0
C2046 C 0.96907 0.49036 0.63113 0.0
C2047 C 0.95573 0.48872 0.65503 0.0
H2048 H 0.27433 0.21218 0.44191 0.0
H2049 H 0.25957 0.13771 0.38878 0.0
H2050 H 0.26778 0.16141 0.34874 0.0
H2051 H 0.27632 0.20281 0.32845 0.0
H2052 H 0.29212 0.27791 0.38028 0.0
H2053 H 0.28647 0.25437 0.42133 0.0
C2054 C 0.273 0.20117 0.42158 0.0
C2055 C 0.26605 0.17319 0.41835 0.0
C2056 C 0.27788 0.21498 0.39847 0.0
C2057 C 0.26471 0.15921 0.39189 0.0
C2058 C 0.2694 0.17274 0.36894 0.0
C2059 C 0.27892 0.21415 0.34871 0.0
C2060 C 0.28452 0.24211 0.35124 0.0
C2061 C 0.27563 0.20057 0.37196 0.0
C2062 C 0.28787 0.25638 0.37774 0.0
C2063 C 0.28448 0.24291 0.40117 0.0
H2064 H 0.32271 0.56837 0.49882 0.0
H2065 H 0.30499 0.52238 0.56645 0.0
H2066 H 0.34141 0.49797 0.55665 0.0
H2067 H 0.37914 0.49079 0.52993 0.0
H2068 H 0.39705 0.53688 0.46239 0.0
H2069 H 0.35917 0.5597 0.47069 0.0
C2070 C 0.3269 0.55309 0.51149 0.0
C2071 C 0.31136 0.54736 0.53348 0.0
C2072 C 0.3476 0.53888 0.50551 0.0
C2073 C 0.31674 0.52721 0.54944 0.0
C2074 C 0.33749 0.51319 0.5438 0.0
C2075 C 0.37447 0.50545 0.51666 0.0
C2076 C 0.39088 0.5121 0.49556 0.0
C2077 C 0.35306 0.51889 0.52192 0.0
C2078 C 0.38469 0.53136 0.47875 0.0
C2079 C 0.36316 0.54456 0.48361 0.0
H2080 H 0.83224 0.97851 0.53074 0.0
H2081 H 0.84636 0.90229 0.55254 0.0
H2082 H 0.89526 0.91819 0.55643 0.0
H2083 H 0.93377 0.95233 0.54952 0.0
H2084 H 0.91979 0.02886 0.52867 0.0
H2085 H 0.87095 0.01427 0.52871 0.0
C2086 C 0.84602 0.96546 0.53662 0.0
C2087 C 0.8357 0.93915 0.54099 0.0
C2088 C 0.87407 0.97472 0.53882 0.0
C2089 C 0.85377 0.92261 0.54902 0.0
C2090 C 0.88174 0.93164 0.55111 0.0
C2091 C 0.92005 0.96591 0.54526 0.0
C2092 C 0.93033 0.99152 0.53879 0.0
C2093 C 0.89207 0.95743 0.5454 0.0
C2094 C 0.91236 0.00904 0.5337 0.0
C2095 C 0.88444 0.00067 0.53359 0.0
H2096 H 0.8145 0.06023 0.24986 0.0
H2097 H 0.89776 0.10056 0.25731 0.0
H2098 H 0.88325 0.14343 0.26327 0.0
H2099 H 0.84739 0.16958 0.26644 0.0
H2100 H 0.76398 0.13059 0.26173 0.0
H2101 H 0.77801 0.08705 0.25476 0.0
C2102 C 0.82939 0.07844 0.25275 0.0
C2103 C 0.85718 0.07719 0.25304 0.0
C2104 C 0.82091 0.10321 0.25671 0.0
C2105 C 0.87629 0.10092 0.25708 0.0
C2106 C 0.86801 0.12549 0.26045 0.0
C2107 C 0.8322 0.15158 0.2638 0.0
C2108 C 0.80468 0.15328 0.26439 0.0
C2109 C 0.84045 0.12686 0.26029 0.0
C2110 C 0.78532 0.12976 0.26138 0.0
C2111 C 0.79335 0.10491 0.25733 0.0
H2112 H 0.68952 0.07444 0.02206 0.0
H2113 H 0.66943 0.15254 0.01883 0.0
H2114 H 0.62129 0.1331 0.01046 0.0
H2115 H 0.58514 0.09395 0.00362 0.0
H2116 H 0.60507 0.01595 0.00839 0.0
H2117 H 0.65319 0.03538 0.01684 0.0
C2118 C 0.67458 0.08717 0.01946 0.0
C2119 C 0.6829 0.11481 0.02088 0.0
C2120 C 0.64701 0.07592 0.01506 0.0
C2121 C 0.66341 0.13117 0.01782 0.0
C2122 C 0.63594 0.12009 0.01302 0.0
C2123 C 0.60002 0.08122 0.00655 0.0
C2124 C 0.59165 0.0536 0.00528 0.0
C2125 C 0.62754 0.0925 0.01155 0.0
C2126 C 0.61107 0.03731 0.00936 0.0
C2127 C 0.63856 0.04838 0.01408 0.0
H2128 H 0.16565 0.41961 0.30895 0.0
H2129 H 0.21475 0.45748 0.25071 0.0
H2130 H 0.24731 0.42796 0.25736 0.0
H2131 H 0.2582 0.38718 0.2745 0.0
H2132 H 0.21011 0.34969 0.33339 0.0
H2133 H 0.18109 0.38347 0.33227 0.0
C2134 C 0.18372 0.42166 0.2981 0.0
C2135 C 0.18752 0.44038 0.279 0.0
C2136 C 0.20256 0.4047 0.3022 0.0
C2137 C 0.21123 0.44312 0.26539 0.0
C2138 C 0.22986 0.42619 0.26912 0.0
C2139 C 0.24202 0.38716 0.28791 0.0
C2140 C 0.23641 0.36642 0.30432 0.0
C2141 C 0.22529 0.40639 0.28679 0.0
C2142 C 0.21506 0.36596 0.32112 0.0
C2143 C 0.19827 0.38502 0.32015 0.0
H2144 H 0.20029 0.44431 0.03265 0.0
H2145 H 0.15407 0.36974 0.04898 0.0
H2146 H 0.11229 0.38794 0.04411 0.0
H2147 H 0.08911 0.42486 0.03533 0.0
H2148 H 0.13477 0.49899 0.01713 0.0
H2149 H 0.17676 0.48104 0.02249 0.0
C2150 C 0.18107 0.43207 0.03521 0.0
C2151 C 0.18023 0.40576 0.04132 0.0
C2152 C 0.15714 0.44254 0.03196 0.0
C2153 C 0.15519 0.39002 0.04426 0.0
C2154 C 0.13134 0.40043 0.0415 0.0
C2155 C 0.10824 0.43716 0.03256 0.0
C2156 C 0.10888 0.46328 0.02596 0.0
C2157 C 0.13211 0.42663 0.03538 0.0
C2158 C 0.13378 0.47882 0.02215 0.0
C2159 C 0.15775 0.46858 0.02529 0.0
H2160 H 0.85676 0.88681 0.20747 0.0
H2161 H 0.80896 0.93625 0.25107 0.0
H2162 H 0.77554 0.8969 0.25621 0.0
H2163 H 0.76327 0.84763 0.25367 0.0
H2164 H 0.81249 0.7992 0.21108 0.0
H2165 H 0.84171 0.83873 0.19991 0.0
C2166 C 0.83882 0.88906 0.21774 0.0
C2167 C 0.83559 0.91441 0.22919 0.0
C2168 C 0.81995 0.86638 0.22093 0.0
C2169 C 0.81201 0.91697 0.24209 0.0
C2170 C 0.79295 0.89443 0.24518 0.0
C2171 C 0.77994 0.84587 0.24128 0.0
C2172 C 0.78589 0.82058 0.23329 0.0
C2173 C 0.79713 0.86892 0.23543 0.0
C2174 C 0.8077 0.81845 0.21757 0.0
C2175 C 0.82446 0.84107 0.21125 0.0
H2176 H 0.6253 0.09926 0.7479 0.0
H2177 H 0.69956 0.0684 0.75939 0.0
H2178 H 0.72518 0.11367 0.77048 0.0
H2179 H 0.7262 0.162 0.77833 0.0
H2180 H 0.65139 0.19218 0.76889 0.0
H2181 H 0.6263 0.14714 0.75541 0.0
C2182 C 0.64712 0.10237 0.75265 0.0
C2183 C 0.66047 0.08043 0.75277 0.0
C2184 C 0.66162 0.12835 0.75941 0.0
C2185 C 0.68874 0.08491 0.75922 0.0
C2186 C 0.70341 0.11079 0.76553 0.0
C2187 C 0.70444 0.1587 0.7731 0.0
C2188 C 0.69066 0.18037 0.77459 0.0
C2189 C 0.69003 0.13266 0.76588 0.0
C2190 C 0.66244 0.17581 0.76802 0.0
C2191 C 0.64807 0.15007 0.76029 0.0
loop_
_geom_bond_atom_site_label_1
_geom_bond_atom_site_label_2
_geom_bond_distance
_geom_bond_site_symmetry_2
_ccdc_geom_bond_type
C0 O1 1.306 . S
C0 O3 1.160 . S
O1 C0 1.306 . S
O1 Cd2 2.228 1_655 S
Cd2 O1 2.228 1_455 S
Cd2 O6 2.273 . S
Cd2 O10 2.277 . S
O3 C0 1.160 . S
O3 Cd4 2.203 1_655 S
Cd4 O3 2.203 1_455 S
Cd4 O6 2.411 . S
Cd4 O7 2.333 . S
Cd4 O8 2.352 . S
Cd4 O12 2.277 . S
Cd4 O13 2.356 . S
C5 O10 1.209 . S
C5 O12 1.226 . S
O6 Cd2 2.273 . S
O6 Cd4 2.411 . S
O6 C9 1.320 . S
O7 Cd4 2.333 . S
O7 C9 1.214 . S
O8 Cd4 2.352 . S
O8 C11 1.258 . S
C9 O6 1.320 . S
C9 O7 1.214 . S
O10 Cd2 2.277 . S
O10 C5 1.209 . S
C11 O8 1.258 . S
C11 O13 1.282 . S
O12 Cd4 2.277 . S
O12 C5 1.226 . S
O13 Cd4 2.356 . S
O13 C11 1.282 . S
C14 O15 1.306 . S
C14 O17 1.160 . S
O15 C14 1.306 . S
O15 Cd16 2.228 1_655 S
Cd16 O15 2.228 1_455 S
Cd16 O20 2.273 . S
Cd16 O24 2.277 . S
O17 C14 1.160 . S
O17 Cd18 2.203 1_655 S
Cd18 O17 2.203 1_455 S
Cd18 O20 2.411 . S
Cd18 O21 2.333 . S
Cd18 O22 2.352 . S
Cd18 O26 2.277 . S
Cd18 O27 2.356 . S
C19 O24 1.209 . S
C19 O26 1.226 . S
O20 Cd16 2.273 . S
O20 Cd18 2.411 . S
O20 C23 1.320 . S
O21 Cd18 2.333 . S
O21 C23 1.214 . S
O22 Cd18 2.352 . S
O22 C25 1.258 . S
C23 O20 1.320 . S
C23 O21 1.214 . S
O24 Cd16 2.277 . S
O24 C19 1.209 . S
C25 O22 1.258 . S
C25 O27 1.282 . S
O26 Cd18 2.277 . S
O26 C19 1.226 . S
O27 Cd18 2.356 . S
O27 C25 1.282 . S
C28 O29 1.306 . S
C28 O31 1.160 . S
O29 C28 1.306 . S
O29 Cd30 2.228 . S
Cd30 O29 2.228 . S
Cd30 O34 2.273 . S
Cd30 O38 2.277 . S
O31 C28 1.160 . S
O31 Cd32 2.203 . S
Cd32 O31 2.203 . S
Cd32 O34 2.411 . S
Cd32 O35 2.333 . S
Cd32 O36 2.352 . S
Cd32 O40 2.277 . S
Cd32 O41 2.356 . S
C33 O38 1.209 . S
C33 O40 1.226 . S
O34 Cd30 2.273 . S
O34 Cd32 2.411 . S
O34 C37 1.320 . S
O35 Cd32 2.333 . S
O35 C37 1.214 . S
O36 Cd32 2.352 . S
O36 C39 1.258 . S
C37 O34 1.320 . S
C37 O35 1.214 . S
O38 Cd30 2.277 . S
O38 C33 1.209 . S
C39 O36 1.258 . S
C39 O41 1.282 . S
O40 Cd32 2.277 . S
O40 C33 1.226 . S
O41 Cd32 2.356 . S
O41 C39 1.282 . S
C42 O43 1.306 . S
C42 O45 1.160 . S
O43 C42 1.306 . S
O43 Cd44 2.228 . S
Cd44 O43 2.228 . S
Cd44 O48 2.273 . S
Cd44 O52 2.277 . S
O45 C42 1.160 . S
O45 Cd46 2.203 . S
Cd46 O45 2.203 . S
Cd46 O48 2.411 . S
Cd46 O49 2.333 . S
Cd46 O50 2.352 . S
Cd46 O54 2.277 . S
Cd46 O55 2.356 . S
C47 O52 1.209 . S
C47 O54 1.226 . S
O48 Cd44 2.273 . S
O48 Cd46 2.411 . S
O48 C51 1.320 . S
O49 Cd46 2.333 . S
O49 C51 1.214 . S
O50 Cd46 2.352 . S
O50 C53 1.258 . S
C51 O48 1.320 . S
C51 O49 1.214 . S
O52 Cd44 2.277 . S
O52 C47 1.209 . S
C53 O50 1.258 . S
C53 O55 1.282 . S
O54 Cd46 2.277 . S
O54 C47 1.226 . S
O55 Cd46 2.356 . S
O55 C53 1.282 . S
C56 O57 1.306 1_655 S
C56 O59 1.160 . S
O57 C56 1.306 1_455 S
O57 Cd58 2.228 . S
Cd58 O57 2.228 . S
Cd58 O62 2.273 . S
Cd58 O66 2.277 . S
O59 C56 1.160 . S
O59 Cd60 2.203 1_655 S
Cd60 O59 2.203 1_455 S
Cd60 O62 2.411 . S
Cd60 O63 2.333 . S
Cd60 O64 2.352 . S
Cd60 O68 2.277 . S
Cd60 O69 2.356 . S
C61 O66 1.209 . S
C61 O68 1.226 . S
O62 Cd58 2.273 . S
O62 Cd60 2.411 . S
O62 C65 1.320 . S
O63 Cd60 2.333 . S
O63 C65 1.214 . S
O64 Cd60 2.352 . S
O64 C67 1.258 . S
C65 O62 1.320 . S
C65 O63 1.214 . S
O66 Cd58 2.277 . S
O66 C61 1.209 . S
C67 O64 1.258 . S
C67 O69 1.282 . S
O68 Cd60 2.277 . S
O68 C61 1.226 . S
O69 Cd60 2.356 . S
O69 C67 1.282 . S
C70 O71 1.306 . S
C70 O73 1.160 . S
O71 C70 1.306 . S
O71 Cd72 2.228 . S
Cd72 O71 2.228 . S
Cd72 O76 2.273 . S
Cd72 O80 2.277 . S
O73 C70 1.160 . S
O73 Cd74 2.203 . S
Cd74 O73 2.203 . S
Cd74 O76 2.411 . S
Cd74 O77 2.333 . S
Cd74 O78 2.352 . S
Cd74 O82 2.277 . S
Cd74 O83 2.356 . S
C75 O80 1.209 . S
C75 O82 1.226 . S
O76 Cd72 2.273 . S
O76 Cd74 2.411 . S
O76 C79 1.320 . S
O77 Cd74 2.333 . S
O77 C79 1.214 . S
O78 Cd74 2.352 . S
O78 C81 1.258 . S
C79 O76 1.320 . S
C79 O77 1.214 . S
O80 Cd72 2.277 . S
O80 C75 1.209 . S
C81 O78 1.258 . S
C81 O83 1.282 . S
O82 Cd74 2.277 . S
O82 C75 1.226 . S
O83 Cd74 2.356 . S
O83 C81 1.282 . S
C84 O85 1.306 . S
C84 O87 1.160 . S
O85 C84 1.306 . S
O85 Cd86 2.228 . S
Cd86 O85 2.228 . S
Cd86 O90 2.273 . S
Cd86 O94 2.277 . S
O87 C84 1.160 . S
O87 Cd88 2.203 . S
Cd88 O87 2.203 . S
Cd88 O90 2.411 . S
Cd88 O91 2.333 . S
Cd88 O92 2.352 . S
Cd88 O96 2.277 . S
Cd88 O97 2.356 . S
C89 O94 1.209 . S
C89 O96 1.226 . S
O90 Cd86 2.273 . S
O90 Cd88 2.411 . S
O90 C93 1.320 . S
O91 Cd88 2.333 . S
O91 C93 1.214 . S
O92 Cd88 2.352 . S
O92 C95 1.258 . S
C93 O90 1.320 . S
C93 O91 1.214 . S
O94 Cd86 2.277 . S
O94 C89 1.209 . S
C95 O92 1.258 . S
C95 O97 1.282 . S
O96 Cd88 2.277 . S
O96 C89 1.226 . S
O97 Cd88 2.356 . S
O97 C95 1.282 . S
C98 O99 1.306 . S
C98 O101 1.160 . S
O99 C98 1.306 . S
O99 Cd100 2.228 1_655 S
Cd100 O99 2.228 1_455 S
Cd100 O104 2.273 . S
Cd100 O108 2.277 . S
O101 C98 1.160 . S
O101 Cd102 2.203 1_655 S
Cd102 O101 2.203 1_455 S
Cd102 O104 2.411 . S
Cd102 O105 2.333 . S
Cd102 O106 2.352 1_455 S
Cd102 O110 2.277 . S
Cd102 O111 2.356 . S
C103 O108 1.209 . S
C103 O110 1.226 . S
O104 Cd100 2.273 . S
O104 Cd102 2.411 . S
O104 C107 1.320 . S
O105 Cd102 2.333 . S
O105 C107 1.214 . S
O106 Cd102 2.352 1_655 S
O106 C109 1.261 . S
C107 O104 1.320 . S
C107 O105 1.214 . S
O108 Cd100 2.277 . S
O108 C103 1.209 . S
C109 O106 1.261 . S
C109 O111 1.280 1_655 S
O110 Cd102 2.277 . S
O110 C103 1.226 . S
O111 Cd102 2.356 . S
O111 C109 1.280 1_455 S
C112 O113 1.306 . S
C112 O115 1.160 . S
O113 C112 1.306 . S
O113 Cd114 2.228 1_545 S
Cd114 O113 2.228 1_565 S
Cd114 O118 2.273 1_565 S
Cd114 O122 2.277 . S
O115 C112 1.160 . S
O115 Cd116 2.203 . S
Cd116 O115 2.203 . S
Cd116 O118 2.411 . S
Cd116 O119 2.333 . S
Cd116 O120 2.352 . S
Cd116 O124 2.277 1_545 S
Cd116 O125 2.356 . S
C117 O122 1.209 . S
C117 O124 1.226 . S
O118 Cd114 2.273 1_545 S
O118 Cd116 2.411 . S
O118 C121 1.320 . S
O119 Cd116 2.333 . S
O119 C121 1.214 . S
O120 Cd116 2.352 . S
O120 C123 1.258 . S
C121 O118 1.320 . S
C121 O119 1.214 . S
O122 Cd114 2.277 . S
O122 C117 1.209 . S
C123 O120 1.258 . S
C123 O125 1.282 . S
O124 Cd116 2.277 1_565 S
O124 C117 1.226 . S
O125 Cd116 2.356 . S
O125 C123 1.282 . S
C126 O127 1.306 . S
C126 O129 1.160 . S
O127 C126 1.306 . S
O127 Cd128 2.228 . S
Cd128 O127 2.228 . S
Cd128 O132 2.273 . S
Cd128 O136 2.277 . S
O129 C126 1.160 . S
O129 Cd130 2.203 . S
Cd130 O129 2.203 . S
Cd130 O132 2.411 . S
Cd130 O133 2.333 . S
Cd130 O134 2.352 . S
Cd130 O138 2.277 . S
Cd130 O139 2.356 . S
C131 O136 1.209 . S
C131 O138 1.226 . S
O132 Cd128 2.273 . S
O132 Cd130 2.411 . S
O132 C135 1.320 . S
O133 Cd130 2.333 . S
O133 C135 1.214 . S
O134 Cd130 2.352 . S
O134 C137 1.258 . S
C135 O132 1.320 . S
C135 O133 1.214 . S
O136 Cd128 2.277 . S
O136 C131 1.209 . S
C137 O134 1.258 . S
C137 O139 1.282 . S
O138 Cd130 2.277 . S
O138 C131 1.226 . S
O139 Cd130 2.356 . S
O139 C137 1.282 . S
C140 O141 1.306 . S
C140 O143 1.160 . S
O141 C140 1.306 . S
O141 Cd142 2.228 . S
Cd142 O141 2.228 . S
Cd142 O146 2.273 . S
Cd142 O150 2.277 . S
O143 C140 1.160 . S
O143 Cd144 2.203 . S
Cd144 O143 2.203 . S
Cd144 O146 2.411 . S
Cd144 O147 2.333 . S
Cd144 O148 2.352 1_545 S
Cd144 O152 2.277 . S
Cd144 O153 2.356 1_545 S
C145 O150 1.209 . S
C145 O152 1.226 . S
O146 Cd142 2.273 . S
O146 Cd144 2.411 . S
O146 C149 1.320 . S
O147 Cd144 2.333 . S
O147 C149 1.214 . S
O148 Cd144 2.352 1_565 S
O148 C151 1.258 . S
C149 O146 1.320 . S
C149 O147 1.214 . S
O150 Cd142 2.277 . S
O150 C145 1.209 . S
C151 O148 1.258 . S
C151 O153 1.282 . S
O152 Cd144 2.277 . S
O152 C145 1.226 . S
O153 Cd144 2.356 1_565 S
O153 C151 1.282 . S
C154 O155 1.306 . S
C154 O157 1.160 . S
O155 C154 1.306 . S
O155 Cd156 2.228 1_554 S
Cd156 O155 2.228 1_556 S
Cd156 O160 2.273 1_556 S
Cd156 O164 2.277 . S
O157 C154 1.160 . S
O157 Cd158 2.203 . S
Cd158 O157 2.203 . S
Cd158 O160 2.411 . S
Cd158 O161 2.333 . S
Cd158 O162 2.352 . S
Cd158 O166 2.277 1_554 S
Cd158 O167 2.356 . S
C159 O164 1.209 . S
C159 O166 1.226 . S
O160 Cd156 2.273 1_554 S
O160 Cd158 2.411 . S
O160 C163 1.320 . S
O161 Cd158 2.333 . S
O161 C163 1.214 . S
O162 Cd158 2.352 . S
O162 C165 1.258 . S
C163 O160 1.320 . S
C163 O161 1.214 . S
O164 Cd156 2.277 . S
O164 C159 1.209 . S
C165 O162 1.258 . S
C165 O167 1.282 . S
O166 Cd158 2.277 1_556 S
O166 C159 1.226 . S
O167 Cd158 2.356 . S
O167 C165 1.282 . S
C168 O169 1.306 . S
C168 O171 1.160 . S
O169 C168 1.306 . S
O169 Cd170 2.228 . S
Cd170 O169 2.228 . S
Cd170 O174 2.273 . S
Cd170 O178 2.277 1_554 S
O171 C168 1.160 . S
O171 Cd172 2.203 . S
Cd172 O171 2.203 . S
Cd172 O174 2.411 . S
Cd172 O175 2.333 . S
Cd172 O176 2.352 . S
Cd172 O180 2.277 . S
Cd172 O181 2.356 . S
C173 O178 1.209 . S
C173 O180 1.226 1_556 S
O174 Cd170 2.273 . S
O174 Cd172 2.411 . S
O174 C177 1.320 . S
O175 Cd172 2.333 . S
O175 C177 1.214 . S
O176 Cd172 2.352 . S
O176 C179 1.258 . S
C177 O174 1.320 . S
C177 O175 1.214 . S
O178 Cd170 2.277 1_556 S
O178 C173 1.209 . S
C179 O176 1.258 . S
C179 O181 1.282 . S
O180 Cd172 2.277 . S
O180 C173 1.226 1_554 S
O181 Cd172 2.356 . S
O181 C179 1.282 . S
C182 O183 1.306 . S
C182 O185 1.160 . S
O183 C182 1.306 . S
O183 Cd184 2.228 . S
Cd184 O183 2.228 . S
Cd184 O188 2.273 . S
Cd184 O192 2.277 . S
O185 C182 1.160 . S
O185 Cd186 2.203 . S
Cd186 O185 2.203 . S
Cd186 O188 2.411 . S
Cd186 O189 2.333 . S
Cd186 O190 2.352 1_554 S
Cd186 O194 2.277 . S
Cd186 O195 2.356 1_554 S
C187 O192 1.209 . S
C187 O194 1.226 . S
O188 Cd184 2.273 . S
O188 Cd186 2.411 . S
O188 C191 1.320 . S
O189 Cd186 2.333 . S
O189 C191 1.214 . S
O190 Cd186 2.352 1_556 S
O190 C193 1.258 . S
C191 O188 1.320 . S
C191 O189 1.214 . S
O192 Cd184 2.277 . S
O192 C187 1.209 . S
C193 O190 1.258 . S
C193 O195 1.282 . S
O194 Cd186 2.277 . S
O194 C187 1.226 . S
O195 Cd186 2.356 1_556 S
O195 C193 1.282 . S
C196 O197 1.306 . S
C196 O199 1.160 . S
O197 C196 1.306 . S
O197 Cd198 2.228 . S
Cd198 O197 2.228 . S
Cd198 O202 2.273 . S
Cd198 O206 2.277 . S
O199 C196 1.160 . S
O199 Cd200 2.203 . S
Cd200 O199 2.203 . S
Cd200 O202 2.411 . S
Cd200 O203 2.333 . S
Cd200 O204 2.352 . S
Cd200 O208 2.277 . S
Cd200 O209 2.356 . S
C201 O206 1.209 . S
C201 O208 1.226 . S
O202 Cd198 2.273 . S
O202 Cd200 2.411 . S
O202 C205 1.320 . S
O203 Cd200 2.333 . S
O203 C205 1.214 . S
O204 Cd200 2.352 . S
O204 C207 1.258 . S
C205 O202 1.320 . S
C205 O203 1.214 . S
O206 Cd198 2.277 . S
O206 C201 1.209 . S
C207 O204 1.258 . S
C207 O209 1.282 . S
O208 Cd200 2.277 . S
O208 C201 1.226 . S
O209 Cd200 2.356 . S
O209 C207 1.282 . S
C210 O211 1.306 . S
C210 O213 1.160 . S
O211 C210 1.306 . S
O211 Cd212 2.228 . S
Cd212 O211 2.228 . S
Cd212 O216 2.273 . S
Cd212 O220 2.277 . S
O213 C210 1.160 . S
O213 Cd214 2.203 . S
Cd214 O213 2.203 . S
Cd214 O216 2.411 . S
Cd214 O217 2.333 . S
Cd214 O218 2.352 . S
Cd214 O222 2.277 . S
Cd214 O223 2.356 . S
C215 O220 1.209 . S
C215 O222 1.226 . S
O216 Cd212 2.273 . S
O216 Cd214 2.411 . S
O216 C219 1.320 . S
O217 Cd214 2.333 . S
O217 C219 1.214 . S
O218 Cd214 2.352 . S
O218 C221 1.258 . S
C219 O216 1.320 . S
C219 O217 1.214 . S
O220 Cd212 2.277 . S
O220 C215 1.209 . S
C221 O218 1.258 . S
C221 O223 1.282 . S
O222 Cd214 2.277 . S
O222 C215 1.226 . S
O223 Cd214 2.356 . S
O223 C221 1.282 . S
C224 O225 1.297 1_545 S
C224 O227 1.160 . S
O225 C224 1.297 1_565 S
O225 Cd226 2.239 . S
Cd226 O225 2.239 . S
Cd226 O230 2.273 1_565 S
Cd226 O234 2.277 . S
O227 C224 1.160 . S
O227 Cd228 2.203 . S
Cd228 O227 2.203 . S
Cd228 O230 2.411 . S
Cd228 O231 2.333 . S
Cd228 O232 2.352 . S
Cd228 O236 2.277 1_545 S
Cd228 O237 2.356 . S
C229 O234 1.209 . S
C229 O236 1.226 . S
O230 Cd226 2.273 1_545 S
O230 Cd228 2.411 . S
O230 C233 1.320 . S
O231 Cd228 2.333 . S
O231 C233 1.214 . S
O232 Cd228 2.352 . S
O232 C235 1.258 . S
C233 O230 1.320 . S
C233 O231 1.214 . S
O234 Cd226 2.277 . S
O234 C229 1.209 . S
C235 O232 1.258 . S
C235 O237 1.282 . S
O236 Cd228 2.277 1_565 S
O236 C229 1.226 . S
O237 Cd228 2.356 . S
O237 C235 1.282 . S
C238 O239 1.306 . S
C238 O241 1.160 . S
O239 C238 1.306 . S
O239 Cd240 2.228 . S
Cd240 O239 2.228 . S
Cd240 O244 2.273 . S
Cd240 O248 2.277 . S
O241 C238 1.160 . S
O241 Cd242 2.203 . S
Cd242 O241 2.203 . S
Cd242 O244 2.411 . S
Cd242 O245 2.333 . S
Cd242 O246 2.352 . S
Cd242 O250 2.277 . S
Cd242 O251 2.356 . S
C243 O248 1.209 . S
C243 O250 1.226 . S
O244 Cd240 2.273 . S
O244 Cd242 2.411 . S
O244 C247 1.320 . S
O245 Cd242 2.333 . S
O245 C247 1.214 . S
O246 Cd242 2.352 . S
O246 C249 1.258 . S
C247 O244 1.320 . S
C247 O245 1.214 . S
O248 Cd240 2.277 . S
O248 C243 1.209 . S
C249 O246 1.258 . S
C249 O251 1.282 . S
O250 Cd242 2.277 . S
O250 C243 1.226 . S
O251 Cd242 2.356 . S
O251 C249 1.282 . S
C252 O253 1.306 . S
C252 O255 1.160 . S
O253 C252 1.306 . S
O253 Cd254 2.228 . S
Cd254 O253 2.228 . S
Cd254 O258 2.273 . S
Cd254 O262 2.277 . S
O255 C252 1.160 . S
O255 Cd256 2.203 . S
Cd256 O255 2.203 . S
Cd256 O258 2.411 . S
Cd256 O259 2.333 . S
Cd256 O260 2.352 . S
Cd256 O264 2.277 . S
Cd256 O265 2.356 . S
C257 O262 1.209 . S
C257 O264 1.226 . S
O258 Cd254 2.273 . S
O258 Cd256 2.411 . S
O258 C261 1.320 . S
O259 Cd256 2.333 . S
O259 C261 1.214 . S
O260 Cd256 2.352 . S
O260 C263 1.258 . S
C261 O258 1.320 . S
C261 O259 1.214 . S
O262 Cd254 2.277 . S
O262 C257 1.209 . S
C263 O260 1.258 . S
C263 O265 1.282 . S
O264 Cd256 2.277 . S
O264 C257 1.226 . S
O265 Cd256 2.356 . S
O265 C263 1.282 . S
C266 O267 1.306 . S
C266 O269 1.150 1_545 S
O267 C266 1.306 . S
O267 Cd268 2.228 . S
Cd268 O267 2.228 . S
Cd268 O272 2.273 1_545 S
Cd268 O276 2.277 . S
O269 C266 1.150 1_565 S
O269 Cd270 2.203 . S
Cd270 O269 2.203 . S
Cd270 O272 2.411 . S
Cd270 O273 2.333 . S
Cd270 O274 2.352 . S
Cd270 O278 2.277 1_565 S
Cd270 O279 2.356 . S
C271 O276 1.209 . S
C271 O278 1.226 . S
O272 Cd268 2.273 1_565 S
O272 Cd270 2.411 . S
O272 C275 1.320 . S
O273 Cd270 2.333 . S
O273 C275 1.214 . S
O274 Cd270 2.352 . S
O274 C277 1.258 . S
C275 O272 1.320 . S
C275 O273 1.214 . S
O276 Cd268 2.277 . S
O276 C271 1.209 . S
C277 O274 1.258 . S
C277 O279 1.282 . S
O278 Cd270 2.277 1_545 S
O278 C271 1.226 . S
O279 Cd270 2.356 . S
O279 C277 1.282 . S
C280 O281 1.306 . S
C280 O283 1.147 1_554 S
O281 C280 1.306 . S
O281 Cd282 2.228 . S
Cd282 O281 2.228 . S
Cd282 O286 2.273 1_554 S
Cd282 O290 2.277 . S
O283 C280 1.147 1_556 S
O283 Cd284 2.204 . S
Cd284 O283 2.204 . S
Cd284 O286 2.411 . S
Cd284 O287 2.333 . S
Cd284 O288 2.352 . S
Cd284 O292 2.277 1_556 S
Cd284 O293 2.356 . S
C285 O290 1.209 . S
C285 O292 1.226 . S
O286 Cd282 2.273 1_556 S
O286 Cd284 2.411 . S
O286 C289 1.320 . S
O287 Cd284 2.333 . S
O287 C289 1.214 . S
O288 Cd284 2.352 . S
O288 C291 1.258 . S
C289 O286 1.320 . S
C289 O287 1.214 . S
O290 Cd282 2.277 . S
O290 C285 1.209 . S
C291 O288 1.258 . S
C291 O293 1.282 . S
O292 Cd284 2.277 1_554 S
O292 C285 1.226 . S
O293 Cd284 2.356 . S
O293 C291 1.282 . S
C294 O295 1.306 . S
C294 O297 1.160 . S
O295 C294 1.306 . S
O295 Cd296 2.228 . S
Cd296 O295 2.228 . S
Cd296 O300 2.273 . S
Cd296 O304 2.277 . S
O297 C294 1.160 . S
O297 Cd298 2.203 . S
Cd298 O297 2.203 . S
Cd298 O300 2.411 . S
Cd298 O301 2.333 . S
Cd298 O302 2.352 . S
Cd298 O306 2.277 . S
Cd298 O307 2.356 . S
C299 O304 1.209 . S
C299 O306 1.226 . S
O300 Cd296 2.273 . S
O300 Cd298 2.411 . S
O300 C303 1.320 . S
O301 Cd298 2.333 . S
O301 C303 1.214 . S
O302 Cd298 2.352 . S
O302 C305 1.258 . S
C303 O300 1.320 . S
C303 O301 1.214 . S
O304 Cd296 2.277 . S
O304 C299 1.209 . S
C305 O302 1.258 . S
C305 O307 1.282 . S
O306 Cd298 2.277 . S
O306 C299 1.226 . S
O307 Cd298 2.356 . S
O307 C305 1.282 . S
C308 O309 1.306 . S
C308 O311 1.160 . S
O309 C308 1.306 . S
O309 Cd310 2.228 . S
Cd310 O309 2.228 . S
Cd310 O314 2.273 . S
Cd310 O318 2.277 . S
O311 C308 1.160 . S
O311 Cd312 2.203 . S
Cd312 O311 2.203 . S
Cd312 O314 2.411 . S
Cd312 O315 2.333 . S
Cd312 O316 2.352 . S
Cd312 O320 2.277 . S
Cd312 O321 2.356 . S
C313 O318 1.209 . S
C313 O320 1.226 . S
O314 Cd310 2.273 . S
O314 Cd312 2.411 . S
O314 C317 1.320 . S
O315 Cd312 2.333 . S
O315 C317 1.214 . S
O316 Cd312 2.352 . S
O316 C319 1.258 . S
C317 O314 1.320 . S
C317 O315 1.214 . S
O318 Cd310 2.277 . S
O318 C313 1.209 . S
C319 O316 1.258 . S
C319 O321 1.282 . S
O320 Cd312 2.277 . S
O320 C313 1.226 . S
O321 Cd312 2.356 . S
O321 C319 1.282 . S
C322 O323 1.306 . S
C322 O325 1.160 . S
O323 C322 1.306 . S
O323 Cd324 2.228 . S
Cd324 O323 2.228 . S
Cd324 O328 2.273 . S
Cd324 O332 2.277 . S
O325 C322 1.160 . S
O325 Cd326 2.203 . S
Cd326 O325 2.203 . S
Cd326 O328 2.411 . S
Cd326 O329 2.333 . S
Cd326 O330 2.352 . S
Cd326 O334 2.277 . S
Cd326 O335 2.356 . S
C327 O332 1.209 . S
C327 O334 1.226 . S
O328 Cd324 2.273 . S
O328 Cd326 2.411 . S
O328 C331 1.320 . S
O329 Cd326 2.333 . S
O329 C331 1.214 . S
O330 Cd326 2.352 . S
O330 C333 1.258 . S
C331 O328 1.320 . S
C331 O329 1.214 . S
O332 Cd324 2.277 . S
O332 C327 1.209 . S
C333 O330 1.258 . S
C333 O335 1.282 . S
O334 Cd326 2.277 . S
O334 C327 1.226 . S
O335 Cd326 2.356 . S
O335 C333 1.282 . S
Zn336 O342 1.969 . S
Zn336 O343 1.965 1_565 S
Zn336 O347 2.024 . S
Zn336 O352 1.969 1_565 S
Zn337 O344 1.969 1_654 S
Zn337 O350 1.969 1_554 S
Zn337 O351 1.965 . S
Zn337 O353 2.024 1_655 S
C338 O339 1.229 . S
C338 O347 1.058 . S
O339 C338 1.229 . S
C340 O341 1.229 1_454 S
C340 O353 1.058 . S
O341 C340 1.229 1_656 S
O342 Zn336 1.969 . S
O342 C345 1.267 . S
O343 Zn336 1.965 1_545 S
O343 C354 1.260 1_554 S
O344 Zn337 1.969 1_456 S
O344 C354 1.258 . S
C345 O342 1.267 . S
C345 O346 1.228 . S
O346 C345 1.228 . S
O347 Zn336 2.024 . S
O347 C338 1.058 . S
C348 O349 1.228 . S
C348 O350 1.267 1_554 S
O349 C348 1.228 . S
O350 Zn337 1.969 1_556 S
O350 C348 1.267 1_556 S
O351 Zn337 1.965 . S
O351 C355 1.260 1_655 S
O352 Zn336 1.969 1_545 S
O352 C355 1.258 . S
O353 Zn337 2.024 1_455 S
O353 C340 1.058 . S
C354 O343 1.260 1_556 S
C354 O344 1.258 . S
C355 O351 1.260 1_455 S
C355 O352 1.258 . S
Zn356 O362 1.969 . S
Zn356 O363 1.965 . S
Zn356 O367 2.024 . S
Zn356 O372 1.969 . S
Zn357 O364 1.969 . S
Zn357 O370 1.969 . S
Zn357 O371 1.965 . S
Zn357 O373 2.024 . S
C358 O359 1.229 . S
C358 O367 1.058 . S
O359 C358 1.229 . S
C360 O361 1.229 . S
C360 O373 1.058 . S
O361 C360 1.229 . S
O362 Zn356 1.969 . S
O362 C365 1.267 . S
O363 Zn356 1.965 . S
O363 C374 1.260 . S
O364 Zn357 1.969 . S
O364 C374 1.258 . S
C365 O362 1.267 . S
C365 O366 1.228 . S
O366 C365 1.228 . S
O367 Zn356 2.024 . S
O367 C358 1.058 . S
C368 O369 1.228 . S
C368 O370 1.267 . S
O369 C368 1.228 . S
O370 Zn357 1.969 . S
O370 C368 1.267 . S
O371 Zn357 1.965 . S
O371 C375 1.260 . S
O372 Zn356 1.969 . S
O372 C375 1.258 . S
O373 Zn357 2.024 . S
O373 C360 1.058 . S
C374 O363 1.260 . S
C374 O364 1.258 . S
C375 O371 1.260 . S
C375 O372 1.258 . S
Zn376 O382 1.969 . S
Zn376 O383 1.965 . S
Zn376 O387 2.024 . S
Zn376 O392 1.969 . S
Zn377 O384 1.969 . S
Zn377 O390 1.969 . S
Zn377 O391 1.965 1_565 S
Zn377 O393 2.024 . S
C378 O379 1.229 . S
C378 O387 1.058 . S
O379 C378 1.229 . S
C380 O381 1.229 . S
C380 O393 1.058 . S
O381 C380 1.229 . S
O382 Zn376 1.969 . S
O382 C385 1.267 . S
O383 Zn376 1.965 . S
O383 C394 1.260 . S
O384 Zn377 1.969 . S
O384 C394 1.258 1_565 S
C385 O382 1.267 . S
C385 O386 1.228 . S
O386 C385 1.228 . S
O387 Zn376 2.024 . S
O387 C378 1.058 . S
C388 O389 1.228 . S
C388 O390 1.267 . S
O389 C388 1.228 . S
O390 Zn377 1.969 . S
O390 C388 1.267 . S
O391 Zn377 1.965 1_545 S
O391 C395 1.260 . S
O392 Zn376 1.969 . S
O392 C395 1.258 . S
O393 Zn377 2.024 . S
O393 C380 1.058 . S
C394 O383 1.260 . S
C394 O384 1.258 1_545 S
C395 O391 1.260 . S
C395 O392 1.258 . S
Zn396 O402 1.969 . S
Zn396 O403 1.965 . S
Zn396 O407 2.024 . S
Zn396 O412 1.969 . S
Zn397 O404 1.969 . S
Zn397 O410 1.969 . S
Zn397 O411 1.965 . S
Zn397 O413 2.024 . S
C398 O399 1.229 . S
C398 O407 1.058 . S
O399 C398 1.229 . S
C400 O401 1.229 . S
C400 O413 1.058 . S
O401 C400 1.229 . S
O402 Zn396 1.969 . S
O402 C405 1.267 . S
O403 Zn396 1.965 . S
O403 C414 1.260 . S
O404 Zn397 1.969 . S
O404 C414 1.258 . S
C405 O402 1.267 . S
C405 O406 1.228 . S
O406 C405 1.228 . S
O407 Zn396 2.024 . S
O407 C398 1.058 . S
C408 O409 1.228 . S
C408 O410 1.267 . S
O409 C408 1.228 . S
O410 Zn397 1.969 . S
O410 C408 1.267 . S
O411 Zn397 1.965 . S
O411 C415 1.260 . S
O412 Zn396 1.969 . S
O412 C415 1.258 . S
O413 Zn397 2.024 . S
O413 C400 1.058 . S
C414 O403 1.260 . S
C414 O404 1.258 . S
C415 O411 1.260 . S
C415 O412 1.258 . S
Zn416 O422 1.969 . S
Zn416 O423 1.947 1_455 S
Zn416 O427 2.024 1_565 S
Zn416 O432 1.969 1_565 S
Zn417 O424 1.969 1_455 S
Zn417 O430 1.969 1_455 S
Zn417 O431 1.965 . S
Zn417 O433 2.024 . S
C418 O419 1.229 1_545 S
C418 O427 1.058 . S
O419 C418 1.229 1_565 S
C420 O421 1.229 . S
C420 O433 1.058 1_655 S
O421 C420 1.229 . S
O422 Zn416 1.969 . S
O422 C425 1.267 . S
O423 Zn416 1.947 1_655 S
O423 C434 1.280 . S
O424 Zn417 1.969 1_655 S
O424 C434 1.258 1_545 S
C425 O422 1.267 . S
C425 O426 1.228 . S
O426 C425 1.228 . S
O427 Zn416 2.024 1_545 S
O427 C418 1.058 . S
C428 O429 1.228 . S
C428 O430 1.267 1_455 S
O429 C428 1.228 . S
O430 Zn417 1.969 1_655 S
O430 C428 1.267 1_655 S
O431 Zn417 1.965 . S
O431 C435 1.260 . S
O432 Zn416 1.969 1_545 S
O432 C435 1.258 . S
O433 Zn417 2.024 . S
O433 C420 1.058 1_455 S
C434 O423 1.280 . S
C434 O424 1.258 1_565 S
C435 O431 1.260 . S
C435 O432 1.258 . S
Zn436 O442 1.969 . S
Zn436 O443 1.965 . S
Zn436 O447 2.024 . S
Zn436 O452 1.969 . S
Zn437 O444 1.969 . S
Zn437 O450 1.969 . S
Zn437 O451 1.965 . S
Zn437 O453 2.024 . S
C438 O439 1.229 . S
C438 O447 1.058 . S
O439 C438 1.229 . S
C440 O441 1.229 . S
C440 O453 1.058 . S
O441 C440 1.229 . S
O442 Zn436 1.969 . S
O442 C445 1.267 . S
O443 Zn436 1.965 . S
O443 C454 1.260 . S
O444 Zn437 1.969 . S
O444 C454 1.258 . S
C445 O442 1.267 . S
C445 O446 1.228 . S
O446 C445 1.228 . S
O447 Zn436 2.024 . S
O447 C438 1.058 . S
C448 O449 1.228 . S
C448 O450 1.267 . S
O449 C448 1.228 . S
O450 Zn437 1.969 . S
O450 C448 1.267 . S
O451 Zn437 1.965 . S
O451 C455 1.260 . S
O452 Zn436 1.969 . S
O452 C455 1.258 . S
O453 Zn437 2.024 . S
O453 C440 1.058 . S
C454 O443 1.260 . S
C454 O444 1.258 . S
C455 O451 1.260 . S
C455 O452 1.258 . S
Zn456 O462 1.969 . S
Zn456 O463 1.965 1_545 S
Zn456 O467 2.024 1_556 S
Zn456 O472 1.969 1_556 S
Zn457 O464 1.969 . S
Zn457 O470 1.969 . S
Zn457 O471 1.965 1_565 S
Zn457 O473 2.023 . S
C458 O459 1.229 . S
C458 O467 1.058 . S
O459 C458 1.229 . S
C460 O461 1.229 . S
C460 O473 1.055 . S
O461 C460 1.229 . S
O462 Zn456 1.969 . S
O462 C465 1.267 . S
O463 Zn456 1.965 1_565 S
O463 C474 1.260 1_556 S
O464 Zn457 1.969 . S
O464 C474 1.258 . S
C465 O462 1.267 . S
C465 O466 1.228 . S
O466 C465 1.228 . S
O467 Zn456 2.024 1_554 S
O467 C458 1.058 . S
C468 O469 1.228 . S
C468 O470 1.267 1_545 S
O469 C468 1.228 . S
O470 Zn457 1.969 . S
O470 C468 1.267 1_565 S
O471 Zn457 1.965 1_545 S
O471 C475 1.260 . S
O472 Zn456 1.969 1_554 S
O472 C475 1.258 . S
O473 Zn457 2.023 . S
O473 C460 1.055 . S
C474 O463 1.260 1_554 S
C474 O464 1.258 . S
C475 O471 1.260 . S
C475 O472 1.258 . S
Zn476 O482 1.969 . S
Zn476 O483 1.965 . S
Zn476 O487 2.024 . S
Zn476 O492 1.969 . S
Zn477 O484 1.969 . S
Zn477 O490 1.969 . S
Zn477 O491 1.965 . S
Zn477 O493 2.024 . S
C478 O479 1.229 . S
C478 O487 1.058 . S
O479 C478 1.229 . S
C480 O481 1.229 . S
C480 O493 1.058 . S
O481 C480 1.229 . S
O482 Zn476 1.969 . S
O482 C485 1.267 . S
O483 Zn476 1.965 . S
O483 C494 1.260 . S
O484 Zn477 1.969 . S
O484 C494 1.258 . S
C485 O482 1.267 . S
C485 O486 1.228 . S
O486 C485 1.228 . S
O487 Zn476 2.024 . S
O487 C478 1.058 . S
C488 O489 1.228 . S
C488 O490 1.267 . S
O489 C488 1.228 . S
O490 Zn477 1.969 . S
O490 C488 1.267 . S
O491 Zn477 1.965 . S
O491 C495 1.260 . S
O492 Zn476 1.969 . S
O492 C495 1.258 . S
O493 Zn477 2.024 . S
O493 C480 1.058 . S
C494 O483 1.260 . S
C494 O484 1.258 . S
C495 O491 1.260 . S
C495 O492 1.258 . S
Zn496 O502 1.969 . S
Zn496 O503 1.965 . S
Zn496 O507 2.024 . S
Zn496 O512 1.969 . S
Zn497 O504 1.969 1_556 S
Zn497 O510 1.969 1_556 S
Zn497 O511 1.965 1_556 S
Zn497 O513 2.024 . S
C498 O499 1.229 . S
C498 O507 1.058 . S
O499 C498 1.229 . S
C500 O501 1.229 . S
C500 O513 1.058 . S
O501 C500 1.229 . S
O502 Zn496 1.969 . S
O502 C505 1.267 . S
O503 Zn496 1.965 . S
O503 C514 1.260 . S
O504 Zn497 1.969 1_554 S
O504 C514 1.258 . S
C505 O502 1.267 . S
C505 O506 1.228 . S
O506 C505 1.228 . S
O507 Zn496 2.024 . S
O507 C498 1.058 . S
C508 O509 1.228 . S
C508 O510 1.267 1_556 S
O509 C508 1.228 . S
O510 Zn497 1.969 1_554 S
O510 C508 1.267 1_554 S
O511 Zn497 1.965 1_554 S
O511 C515 1.260 . S
O512 Zn496 1.969 . S
O512 C515 1.258 . S
O513 Zn497 2.024 . S
O513 C500 1.058 . S
C514 O503 1.260 . S
C514 O504 1.258 . S
C515 O511 1.260 . S
C515 O512 1.258 . S
Zn516 O522 1.969 . S
Zn516 O523 1.965 . S
Zn516 O527 2.024 . S
Zn516 O532 1.969 . S
Zn517 O524 1.969 . S
Zn517 O530 1.969 . S
Zn517 O531 1.965 . S
Zn517 O533 2.024 . S
C518 O519 1.229 . S
C518 O527 1.058 . S
O519 C518 1.229 . S
C520 O521 1.229 . S
C520 O533 1.058 . S
O521 C520 1.229 . S
O522 Zn516 1.969 . S
O522 C525 1.267 . S
O523 Zn516 1.965 . S
O523 C534 1.260 . S
O524 Zn517 1.969 . S
O524 C534 1.258 . S
C525 O522 1.267 . S
C525 O526 1.228 . S
O526 C525 1.228 . S
O527 Zn516 2.024 . S
O527 C518 1.058 . S
C528 O529 1.228 . S
C528 O530 1.267 . S
O529 C528 1.228 . S
O530 Zn517 1.969 . S
O530 C528 1.267 . S
O531 Zn517 1.965 . S
O531 C535 1.260 . S
O532 Zn516 1.969 . S
O532 C535 1.258 . S
O533 Zn517 2.024 . S
O533 C520 1.058 . S
C534 O523 1.260 . S
C534 O524 1.258 . S
C535 O531 1.260 . S
C535 O532 1.258 . S
Zn536 O542 1.969 . S
Zn536 O543 1.965 . S
Zn536 O547 2.024 . S
Zn536 O552 1.969 . S
Zn537 O544 1.969 1_655 S
Zn537 O550 1.969 . S
Zn537 O551 1.965 1_655 S
Zn537 O553 2.024 . S
C538 O539 1.229 . S
C538 O547 1.058 . S
O539 C538 1.229 . S
C540 O541 1.229 . S
C540 O553 1.058 . S
O541 C540 1.229 . S
O542 Zn536 1.969 . S
O542 C545 1.267 . S
O543 Zn536 1.965 . S
O543 C554 1.260 . S
O544 Zn537 1.969 1_455 S
O544 C554 1.258 . S
C545 O542 1.267 . S
C545 O546 1.228 . S
O546 C545 1.228 . S
O547 Zn536 2.024 . S
O547 C538 1.058 . S
C548 O549 1.228 . S
C548 O550 1.267 . S
O549 C548 1.228 . S
O550 Zn537 1.969 . S
O550 C548 1.267 . S
O551 Zn537 1.965 1_455 S
O551 C555 1.260 . S
O552 Zn536 1.969 . S
O552 C555 1.258 . S
O553 Zn537 2.024 . S
O553 C540 1.058 . S
C554 O543 1.260 . S
C554 O544 1.258 . S
C555 O551 1.260 . S
C555 O552 1.258 . S
Zn556 O562 1.969 . S
Zn556 O563 1.965 . S
Zn556 O567 2.024 . S
Zn556 O572 1.969 . S
Zn557 O564 1.969 . S
Zn557 O570 1.969 . S
Zn557 O571 1.965 . S
Zn557 O573 2.024 . S
C558 O559 1.229 . S
C558 O567 1.058 . S
O559 C558 1.229 . S
C560 O561 1.229 . S
C560 O573 1.058 . S
O561 C560 1.229 . S
O562 Zn556 1.969 . S
O562 C565 1.267 . S
O563 Zn556 1.965 . S
O563 C574 1.260 . S
O564 Zn557 1.969 . S
O564 C574 1.258 . S
C565 O562 1.267 . S
C565 O566 1.228 . S
O566 C565 1.228 . S
O567 Zn556 2.024 . S
O567 C558 1.058 . S
C568 O569 1.228 . S
C568 O570 1.267 . S
O569 C568 1.228 . S
O570 Zn557 1.969 . S
O570 C568 1.267 . S
O571 Zn557 1.965 . S
O571 C575 1.260 . S
O572 Zn556 1.969 . S
O572 C575 1.258 . S
O573 Zn557 2.024 . S
O573 C560 1.058 . S
C574 O563 1.260 . S
C574 O564 1.258 . S
C575 O571 1.260 . S
C575 O572 1.258 . S
Zn576 O582 1.969 . S
Zn576 O583 1.965 . S
Zn576 O587 2.024 . S
Zn576 O592 1.969 . S
Zn577 O584 1.969 . S
Zn577 O590 1.969 . S
Zn577 O591 1.965 . S
Zn577 O593 2.024 . S
C578 O579 1.229 . S
C578 O587 1.058 . S
O579 C578 1.229 . S
C580 O581 1.229 . S
C580 O593 1.058 . S
O581 C580 1.229 . S
O582 Zn576 1.969 . S
O582 C585 1.267 . S
O583 Zn576 1.965 . S
O583 C594 1.260 . S
O584 Zn577 1.969 . S
O584 C594 1.258 . S
C585 O582 1.267 . S
C585 O586 1.228 . S
O586 C585 1.228 . S
O587 Zn576 2.024 . S
O587 C578 1.058 . S
C588 O589 1.228 . S
C588 O590 1.267 . S
O589 C588 1.228 . S
O590 Zn577 1.969 . S
O590 C588 1.267 . S
O591 Zn577 1.965 . S
O591 C595 1.260 . S
O592 Zn576 1.969 . S
O592 C595 1.258 . S
O593 Zn577 2.024 . S
O593 C580 1.058 . S
C594 O583 1.260 . S
C594 O584 1.258 . S
C595 O591 1.260 . S
C595 O592 1.258 . S
Zn596 O602 1.969 . S
Zn596 O603 1.965 . S
Zn596 O607 2.024 . S
Zn596 O612 1.969 . S
Zn597 O604 1.969 . S
Zn597 O610 1.969 . S
Zn597 O611 1.965 . S
Zn597 O613 2.024 . S
C598 O599 1.229 . S
C598 O607 1.058 . S
O599 C598 1.229 . S
C600 O601 1.229 . S
C600 O613 1.058 . S
O601 C600 1.229 . S
O602 Zn596 1.969 . S
O602 C605 1.267 . S
O603 Zn596 1.965 . S
O603 C614 1.260 . S
O604 Zn597 1.969 . S
O604 C614 1.258 . S
C605 O602 1.267 . S
C605 O606 1.228 . S
O606 C605 1.228 . S
O607 Zn596 2.024 . S
O607 C598 1.058 . S
C608 O609 1.228 . S
C608 O610 1.267 . S
O609 C608 1.228 . S
O610 Zn597 1.969 . S
O610 C608 1.267 . S
O611 Zn597 1.965 . S
O611 C615 1.260 . S
O612 Zn596 1.969 . S
O612 C615 1.258 . S
O613 Zn597 2.024 . S
O613 C600 1.058 . S
C614 O603 1.260 . S
C614 O604 1.258 . S
C615 O611 1.260 . S
C615 O612 1.258 . S
Zn616 O622 1.969 . S
Zn616 O623 1.965 . S
Zn616 O627 2.024 . S
Zn616 O632 1.969 . S
Zn617 O624 1.969 . S
Zn617 O630 1.969 . S
Zn617 O631 1.965 . S
Zn617 O633 2.024 . S
C618 O619 1.229 . S
C618 O627 1.058 . S
O619 C618 1.229 . S
C620 O621 1.229 . S
C620 O633 1.058 . S
O621 C620 1.229 . S
O622 Zn616 1.969 . S
O622 C625 1.267 . S
O623 Zn616 1.965 . S
O623 C634 1.260 . S
O624 Zn617 1.969 . S
O624 C634 1.258 . S
C625 O622 1.267 . S
C625 O626 1.228 . S
O626 C625 1.228 . S
O627 Zn616 2.024 . S
O627 C618 1.058 . S
C628 O629 1.228 . S
C628 O630 1.267 . S
O629 C628 1.228 . S
O630 Zn617 1.969 . S
O630 C628 1.267 . S
O631 Zn617 1.965 . S
O631 C635 1.260 . S
O632 Zn616 1.969 . S
O632 C635 1.258 . S
O633 Zn617 2.024 . S
O633 C620 1.058 . S
C634 O623 1.260 . S
C634 O624 1.258 . S
C635 O631 1.260 . S
C635 O632 1.258 . S
Zn636 O642 1.969 . S
Zn636 O643 1.965 . S
Zn636 O647 2.024 1_655 S
Zn636 O652 1.969 1_655 S
Zn637 O644 1.969 1_554 S
Zn637 O650 1.969 . S
Zn637 O651 1.965 . S
Zn637 O653 2.024 . S
C638 O639 1.229 . S
C638 O647 1.058 . S
O639 C638 1.229 . S
C640 O641 1.249 . S
C640 O653 1.040 1_556 S
O641 C640 1.249 . S
O642 Zn636 1.969 . S
O642 C645 1.267 . S
O643 Zn636 1.965 . S
O643 C654 1.260 1_654 S
O644 Zn637 1.969 1_556 S
O644 C654 1.258 . S
C645 O642 1.267 . S
C645 O646 1.228 . S
O646 C645 1.228 . S
O647 Zn636 2.024 1_455 S
O647 C638 1.058 . S
C648 O649 1.228 . S
C648 O650 1.267 . S
O649 C648 1.228 . S
O650 Zn637 1.969 . S
O650 C648 1.267 . S
O651 Zn637 1.965 . S
O651 C655 1.260 . S
O652 Zn636 1.969 1_455 S
O652 C655 1.258 . S
O653 Zn637 2.024 . S
O653 C640 1.040 1_554 S
C654 O643 1.260 1_456 S
C654 O644 1.258 . S
C655 O651 1.260 . S
C655 O652 1.258 . S
H656 C662 0.930 . S
H657 C665 0.930 . S
H658 C666 0.930 . S
H659 C667 0.930 1_554 S
H660 C670 0.930 . S
H661 C671 0.930 . S
C662 H656 0.930 . S
C662 C663 1.355 1_655 S
C662 C664 1.415 . S
C663 C662 1.355 1_455 S
C663 C665 1.419 . S
C664 C662 1.415 . S
C664 C669 1.425 1_655 S
C664 C671 1.409 . S
C665 H657 0.930 . S
C665 C663 1.419 . S
C665 C666 1.362 . S
C666 H658 0.930 . S
C666 C665 1.362 . S
C666 C669 1.409 . S
C667 H659 0.930 1_556 S
C667 C668 1.355 1_556 S
C667 C669 1.415 . S
C668 C667 1.355 1_554 S
C668 C670 1.419 1_454 S
C669 C664 1.425 1_455 S
C669 C666 1.409 . S
C669 C667 1.415 . S
C670 H660 0.930 . S
C670 C668 1.419 1_656 S
C670 C671 1.362 . S
C671 H661 0.930 . S
C671 C664 1.409 . S
C671 C670 1.362 . S
H672 C678 0.930 . S
H673 C681 0.930 . S
H674 C682 0.930 . S
H675 C683 0.930 . S
H676 C686 0.930 . S
H677 C687 0.930 . S
C678 H672 0.930 . S
C678 C679 1.355 . S
C678 C680 1.415 . S
C679 C678 1.355 . S
C679 C681 1.419 . S
C680 C678 1.415 . S
C680 C685 1.425 . S
C680 C687 1.409 . S
C681 H673 0.930 . S
C681 C679 1.419 . S
C681 C682 1.362 . S
C682 H674 0.930 . S
C682 C681 1.362 . S
C682 C685 1.409 . S
C683 H675 0.930 . S
C683 C684 1.355 . S
C683 C685 1.415 . S
C684 C683 1.355 . S
C684 C686 1.419 . S
C685 C680 1.425 . S
C685 C682 1.409 . S
C685 C683 1.415 . S
C686 H676 0.930 . S
C686 C684 1.419 . S
C686 C687 1.362 . S
C687 H677 0.930 . S
C687 C680 1.409 . S
C687 C686 1.362 . S
H688 C694 0.930 . S
H689 C697 0.930 . S
H690 C698 0.930 . S
H691 C699 0.930 . S
H692 C702 0.930 . S
H693 C703 0.930 . S
C694 H688 0.930 . S
C694 C695 1.355 . S
C694 C696 1.415 . S
C695 C694 1.355 . S
C695 C697 1.419 . S
C696 C694 1.415 . S
C696 C701 1.425 . S
C696 C703 1.409 . S
C697 H689 0.930 . S
C697 C695 1.419 . S
C697 C698 1.362 . S
C698 H690 0.930 . S
C698 C697 1.362 . S
C698 C701 1.409 . S
C699 H691 0.930 . S
C699 C700 1.355 . S
C699 C701 1.415 . S
C700 C699 1.355 . S
C700 C702 1.419 . S
C701 C696 1.425 . S
C701 C698 1.409 . S
C701 C699 1.415 . S
C702 H692 0.930 . S
C702 C700 1.419 . S
C702 C703 1.362 . S
C703 H693 0.930 . S
C703 C696 1.409 . S
C703 C702 1.362 . S
H704 C710 0.930 . S
H705 C713 0.930 . S
H706 C714 0.930 . S
H707 C715 0.930 . S
H708 C718 0.930 . S
H709 C719 0.930 . S
C710 H704 0.930 . S
C710 C711 1.355 . S
C710 C712 1.415 . S
C711 C710 1.355 . S
C711 C713 1.419 . S
C712 C710 1.415 . S
C712 C717 1.425 . S
C712 C719 1.409 . S
C713 H705 0.930 . S
C713 C711 1.419 . S
C713 C714 1.362 . S
C714 H706 0.930 . S
C714 C713 1.362 . S
C714 C717 1.409 . S
C715 H707 0.930 . S
C715 C716 1.355 . S
C715 C717 1.415 . S
C716 C715 1.355 . S
C716 C718 1.419 . S
C717 C712 1.425 . S
C717 C714 1.409 . S
C717 C715 1.415 . S
C718 H708 0.930 . S
C718 C716 1.419 . S
C718 C719 1.362 . S
C719 H709 0.930 . S
C719 C712 1.409 . S
C719 C718 1.362 . S
H720 C726 0.930 . S
H721 C729 0.930 . S
H722 C730 0.930 . S
H723 C731 0.930 1_655 S
H724 C734 0.930 . S
H725 C735 0.930 . S
C726 H720 0.930 . S
C726 C727 1.355 . S
C726 C728 1.415 . S
C727 C726 1.355 . S
C727 C729 1.419 1_455 S
C728 C726 1.415 . S
C728 C733 1.425 . S
C728 C735 1.409 . S
C729 H721 0.930 . S
C729 C727 1.419 1_655 S
C729 C730 1.362 . S
C730 H722 0.930 . S
C730 C729 1.362 . S
C730 C733 1.409 1_655 S
C731 H723 0.930 1_455 S
C731 C732 1.355 . S
C731 C733 1.415 . S
C732 C731 1.355 . S
C732 C734 1.419 . S
C733 C728 1.425 . S
C733 C730 1.409 1_455 S
C733 C731 1.415 . S
C734 H724 0.930 . S
C734 C732 1.419 . S
C734 C735 1.362 . S
C735 H725 0.930 . S
C735 C728 1.409 . S
C735 C734 1.362 . S
H736 C742 0.930 . S
H737 C745 0.930 . S
H738 C746 0.930 . S
H739 C747 0.930 . S
H740 C750 0.930 . S
H741 C751 0.930 . S
C742 H736 0.930 . S
C742 C743 1.355 . S
C742 C744 1.415 . S
C743 C742 1.355 . S
C743 C745 1.419 . S
C744 C742 1.415 . S
C744 C749 1.425 . S
C744 C751 1.409 . S
C745 H737 0.930 . S
C745 C743 1.419 . S
C745 C746 1.362 . S
C746 H738 0.930 . S
C746 C745 1.362 . S
C746 C749 1.409 . S
C747 H739 0.930 . S
C747 C748 1.355 . S
C747 C749 1.415 . S
C748 C747 1.355 . S
C748 C750 1.419 . S
C749 C744 1.425 . S
C749 C746 1.409 . S
C749 C747 1.415 . S
C750 H740 0.930 . S
C750 C748 1.419 . S
C750 C751 1.362 . S
C751 H741 0.930 . S
C751 C744 1.409 . S
C751 C750 1.362 . S
H752 C758 0.930 . S
H753 C761 0.930 . S
H754 C762 0.930 . S
H755 C763 0.930 . S
H756 C766 0.930 . S
H757 C767 0.930 . S
C758 H752 0.930 . S
C758 C759 1.355 . S
C758 C760 1.415 . S
C759 C758 1.355 . S
C759 C761 1.419 . S
C760 C758 1.415 . S
C760 C765 1.425 . S
C760 C767 1.409 . S
C761 H753 0.930 . S
C761 C759 1.419 . S
C761 C762 1.362 . S
C762 H754 0.930 . S
C762 C761 1.362 . S
C762 C765 1.409 . S
C763 H755 0.930 . S
C763 C764 1.355 . S
C763 C765 1.415 . S
C764 C763 1.355 . S
C764 C766 1.419 . S
C765 C760 1.425 . S
C765 C762 1.409 . S
C765 C763 1.415 . S
C766 H756 0.930 . S
C766 C764 1.419 . S
C766 C767 1.362 . S
C767 H757 0.930 . S
C767 C760 1.409 . S
C767 C766 1.362 . S
H768 C774 0.930 . S
H769 C777 0.930 . S
H770 C778 0.930 . S
H771 C779 0.930 . S
H772 C782 0.930 . S
H773 C783 0.930 . S
C774 H768 0.930 . S
C774 C775 1.355 . S
C774 C776 1.415 . S
C775 C774 1.355 . S
C775 C777 1.419 . S
C776 C774 1.415 . S
C776 C781 1.425 . S
C776 C783 1.409 . S
C777 H769 0.930 . S
C777 C775 1.419 . S
C777 C778 1.362 . S
C778 H770 0.930 . S
C778 C777 1.362 . S
C778 C781 1.409 . S
C779 H771 0.930 . S
C779 C780 1.355 . S
C779 C781 1.415 . S
C780 C779 1.355 . S
C780 C782 1.419 . S
C781 C776 1.425 . S
C781 C778 1.409 . S
C781 C779 1.415 . S
C782 H772 0.930 . S
C782 C780 1.419 . S
C782 C783 1.362 . S
C783 H773 0.930 . S
C783 C776 1.409 . S
C783 C782 1.362 . S
H784 C790 0.930 . S
H785 C793 0.930 . S
H786 C794 0.930 . S
H787 C795 0.930 1_465 S
H788 C798 0.930 . S
H789 C799 0.930 . S
C790 H784 0.930 . S
C790 C791 1.355 . S
C790 C792 1.415 . S
C791 C790 1.355 . S
C791 C793 1.419 1_545 S
C792 C790 1.415 . S
C792 C797 1.425 . S
C792 C799 1.409 . S
C793 H785 0.930 . S
C793 C791 1.419 1_565 S
C793 C794 1.362 . S
C794 H786 0.930 . S
C794 C793 1.362 . S
C794 C797 1.409 1_565 S
C795 H787 0.930 1_645 S
C795 C796 1.355 . S
C795 C797 1.415 . S
C796 C795 1.355 . S
C796 C798 1.419 . S
C797 C792 1.425 . S
C797 C794 1.409 1_545 S
C797 C795 1.415 . S
C798 H788 0.930 . S
C798 C796 1.419 . S
C798 C799 1.362 . S
C799 H789 0.930 . S
C799 C792 1.409 . S
C799 C798 1.362 . S
H800 C806 0.930 . S
H801 C809 0.930 . S
H802 C810 0.930 . S
H803 C811 0.930 . S
H804 C814 0.930 . S
H805 C815 0.930 . S
C806 H800 0.930 . S
C806 C807 1.355 . S
C806 C808 1.415 . S
C807 C806 1.355 . S
C807 C809 1.419 . S
C808 C806 1.415 . S
C808 C813 1.425 . S
C808 C815 1.409 . S
C809 H801 0.930 . S
C809 C807 1.419 . S
C809 C810 1.362 . S
C810 H802 0.930 . S
C810 C809 1.362 . S
C810 C813 1.409 . S
C811 H803 0.930 . S
C811 C812 1.355 . S
C811 C813 1.415 . S
C812 C811 1.355 . S
C812 C814 1.419 . S
C813 C808 1.425 . S
C813 C810 1.409 . S
C813 C811 1.415 . S
C814 H804 0.930 . S
C814 C812 1.419 . S
C814 C815 1.362 . S
C815 H805 0.930 . S
C815 C808 1.409 . S
C815 C814 1.362 . S
H816 C822 0.930 . S
H817 C825 0.930 . S
H818 C826 0.930 . S
H819 C827 0.930 . S
H820 C830 0.930 . S
H821 C831 0.930 . S
C822 H816 0.930 . S
C822 C823 1.355 1_545 S
C822 C824 1.415 . S
C823 C822 1.355 1_565 S
C823 C825 1.419 . S
C824 C822 1.415 . S
C824 C829 1.425 1_545 S
C824 C831 1.409 . S
C825 H817 0.930 . S
C825 C823 1.419 . S
C825 C826 1.362 . S
C826 H818 0.930 . S
C826 C825 1.362 . S
C826 C829 1.409 . S
C827 H819 0.930 . S
C827 C828 1.355 1_565 S
C827 C829 1.415 . S
C828 C827 1.355 1_545 S
C828 C830 1.419 . S
C829 C824 1.425 1_565 S
C829 C826 1.409 . S
C829 C827 1.415 . S
C830 H820 0.930 . S
C830 C828 1.419 . S
C830 C831 1.362 . S
C831 H821 0.930 . S
C831 C824 1.409 . S
C831 C830 1.362 . S
H832 C838 0.930 . S
H833 C841 0.930 . S
H834 C842 0.930 . S
H835 C843 0.930 . S
H836 C846 0.930 . S
H837 C847 0.930 . S
C838 H832 0.930 . S
C838 C839 1.355 . S
C838 C840 1.415 . S
C839 C838 1.355 . S
C839 C841 1.419 . S
C840 C838 1.415 . S
C840 C845 1.425 . S
C840 C847 1.409 . S
C841 H833 0.930 . S
C841 C839 1.419 . S
C841 C842 1.362 . S
C842 H834 0.930 . S
C842 C841 1.362 . S
C842 C845 1.409 . S
C843 H835 0.930 . S
C843 C844 1.355 . S
C843 C845 1.415 . S
C844 C843 1.355 . S
C844 C846 1.419 . S
C845 C840 1.425 . S
C845 C842 1.409 . S
C845 C843 1.415 . S
C846 H836 0.930 . S
C846 C844 1.419 . S
C846 C847 1.362 . S
C847 H837 0.930 . S
C847 C840 1.409 . S
C847 C846 1.362 . S
H848 C854 0.930 1_565 S
H849 C857 0.930 . S
H850 C858 0.930 . S
H851 C859 0.930 . S
H852 C862 0.937 . S
H853 C863 0.930 1_455 S
C854 H848 0.930 1_545 S
C854 C855 1.355 . S
C854 C856 1.415 . S
C855 C854 1.355 . S
C855 C857 1.419 . S
C856 C854 1.415 . S
C856 C861 1.425 . S
C856 C863 1.409 1_545 S
C857 H849 0.930 . S
C857 C855 1.419 . S
C857 C858 1.362 . S
C858 H850 0.930 . S
C858 C857 1.362 . S
C858 C861 1.409 . S
C859 H851 0.930 . S
C859 C860 1.355 . S
C859 C861 1.415 . S
C860 C859 1.355 . S
C860 C862 1.414 1_645 S
C861 C856 1.425 . S
C861 C858 1.409 . S
C861 C859 1.415 . S
C862 H852 0.937 . S
C862 C860 1.414 1_465 S
C862 C863 1.360 1_455 S
C863 H853 0.930 1_655 S
C863 C856 1.409 1_565 S
C863 C862 1.360 1_655 S
H864 C870 0.930 . S
H865 C873 0.930 . S
H866 C874 0.930 . S
H867 C875 0.930 . S
H868 C878 0.930 . S
H869 C879 0.930 . S
C870 H864 0.930 . S
C870 C871 1.355 . S
C870 C872 1.415 . S
C871 C870 1.355 . S
C871 C873 1.419 . S
C872 C870 1.415 . S
C872 C877 1.425 . S
C872 C879 1.409 . S
C873 H865 0.930 . S
C873 C871 1.419 . S
C873 C874 1.362 . S
C874 H866 0.930 . S
C874 C873 1.362 . S
C874 C877 1.409 . S
C875 H867 0.930 . S
C875 C876 1.355 . S
C875 C877 1.415 . S
C876 C875 1.355 . S
C876 C878 1.419 . S
C877 C872 1.425 . S
C877 C874 1.409 . S
C877 C875 1.415 . S
C878 H868 0.930 . S
C878 C876 1.419 . S
C878 C879 1.362 . S
C879 H869 0.930 . S
C879 C872 1.409 . S
C879 C878 1.362 . S
H880 C886 0.930 . S
H881 C889 0.930 . S
H882 C890 0.930 . S
H883 C891 0.930 . S
H884 C894 0.921 1_565 S
H885 C895 0.930 . S
C886 H880 0.930 . S
C886 C887 1.355 1_565 S
C886 C888 1.415 1_565 S
C887 C886 1.355 1_545 S
C887 C889 1.419 . S
C888 C886 1.415 1_545 S
C888 C893 1.425 . S
C888 C895 1.409 1_545 S
C889 H881 0.930 . S
C889 C887 1.419 . S
C889 C890 1.362 . S
C890 H882 0.930 . S
C890 C889 1.362 . S
C890 C893 1.409 . S
C891 H883 0.930 . S
C891 C892 1.355 . S
C891 C893 1.415 . S
C892 C891 1.355 . S
C892 C894 1.438 . S
C893 C888 1.425 . S
C893 C890 1.409 . S
C893 C891 1.415 . S
C894 H884 0.921 1_545 S
C894 C892 1.438 . S
C894 C895 1.353 1_545 S
C895 H885 0.930 . S
C895 C888 1.409 1_565 S
C895 C894 1.353 1_565 S
H896 C902 0.930 . S
H897 C905 0.930 . S
H898 C906 0.930 . S
H899 C907 0.930 . S
H900 C910 0.930 . S
H901 C911 0.930 . S
C902 H896 0.930 . S
C902 C903 1.355 . S
C902 C904 1.415 . S
C903 C902 1.355 . S
C903 C905 1.419 . S
C904 C902 1.415 . S
C904 C909 1.425 . S
C904 C911 1.409 . S
C905 H897 0.930 . S
C905 C903 1.419 . S
C905 C906 1.362 . S
C906 H898 0.930 . S
C906 C905 1.362 . S
C906 C909 1.409 . S
C907 H899 0.930 . S
C907 C908 1.355 . S
C907 C909 1.415 . S
C908 C907 1.355 . S
C908 C910 1.419 . S
C909 C904 1.425 . S
C909 C906 1.409 . S
C909 C907 1.415 . S
C910 H900 0.930 . S
C910 C908 1.419 . S
C910 C911 1.362 . S
C911 H901 0.930 . S
C911 C904 1.409 . S
C911 C910 1.362 . S
H912 C918 0.930 . S
H913 C921 0.930 . S
H914 C922 0.930 . S
H915 C923 0.930 . S
H916 C926 0.930 1_545 S
H917 C927 0.930 . S
C918 H912 0.930 . S
C918 C919 1.355 . S
C918 C920 1.415 . S
C919 C918 1.355 . S
C919 C921 1.419 . S
C920 C918 1.415 . S
C920 C925 1.425 . S
C920 C927 1.409 . S
C921 H913 0.930 . S
C921 C919 1.419 . S
C921 C922 1.362 . S
C922 H914 0.930 . S
C922 C921 1.362 . S
C922 C925 1.409 . S
C923 H915 0.930 . S
C923 C924 1.355 . S
C923 C925 1.415 . S
C924 C923 1.355 . S
C924 C926 1.419 . S
C925 C920 1.425 . S
C925 C922 1.409 . S
C925 C923 1.415 . S
C926 H916 0.930 1_565 S
C926 C924 1.419 . S
C926 C927 1.362 . S
C927 H917 0.930 . S
C927 C920 1.409 . S
C927 C926 1.362 . S
H928 C934 0.930 . S
H929 C937 0.930 . S
H930 C938 0.932 . S
H931 C939 0.930 . S
H932 C942 0.930 . S
H933 C943 0.930 . S
C934 H928 0.930 . S
C934 C935 1.352 1_554 S
C934 C936 1.415 . S
C935 C934 1.352 1_556 S
C935 C937 1.419 . S
C936 C934 1.415 . S
C936 C941 1.425 . S
C936 C943 1.409 . S
C937 H929 0.930 . S
C937 C935 1.419 . S
C937 C938 1.353 1_556 S
C938 H930 0.932 . S
C938 C937 1.353 1_554 S
C938 C941 1.416 . S
C939 H931 0.930 . S
C939 C940 1.355 . S
C939 C941 1.415 . S
C940 C939 1.355 . S
C940 C942 1.419 . S
C941 C936 1.425 . S
C941 C938 1.416 . S
C941 C939 1.415 . S
C942 H932 0.930 . S
C942 C940 1.419 . S
C942 C943 1.362 . S
C943 H933 0.930 . S
C943 C936 1.409 . S
C943 C942 1.362 . S
H944 C950 0.930 . S
H945 C953 0.930 . S
H946 C954 0.930 . S
H947 C955 0.930 . S
H948 C958 0.930 . S
H949 C959 0.930 . S
C950 H944 0.930 . S
C950 C951 1.355 . S
C950 C952 1.415 . S
C951 C950 1.355 . S
C951 C953 1.419 . S
C952 C950 1.415 . S
C952 C957 1.425 . S
C952 C959 1.409 . S
C953 H945 0.930 . S
C953 C951 1.419 . S
C953 C954 1.362 . S
C954 H946 0.930 . S
C954 C953 1.362 . S
C954 C957 1.409 . S
C955 H947 0.930 . S
C955 C956 1.355 . S
C955 C957 1.415 . S
C956 C955 1.355 . S
C956 C958 1.419 . S
C957 C952 1.425 . S
C957 C954 1.409 . S
C957 C955 1.415 . S
C958 H948 0.930 . S
C958 C956 1.419 . S
C958 C959 1.362 . S
C959 H949 0.930 . S
C959 C952 1.409 . S
C959 C958 1.362 . S
H960 C966 0.930 . S
H961 C969 0.930 . S
H962 C970 0.930 . S
H963 C971 0.930 . S
H964 C974 0.930 . S
H965 C975 0.930 . S
C966 H960 0.930 . S
C966 C967 1.355 . S
C966 C968 1.415 . S
C967 C966 1.355 . S
C967 C969 1.419 . S
C968 C966 1.415 . S
C968 C973 1.425 . S
C968 C975 1.409 . S
C969 H961 0.930 . S
C969 C967 1.419 . S
C969 C970 1.362 . S
C970 H962 0.930 . S
C970 C969 1.362 . S
C970 C973 1.409 . S
C971 H963 0.930 . S
C971 C972 1.355 . S
C971 C973 1.415 . S
C972 C971 1.355 . S
C972 C974 1.419 . S
C973 C968 1.425 . S
C973 C970 1.409 . S
C973 C971 1.415 . S
C974 H964 0.930 . S
C974 C972 1.419 . S
C974 C975 1.362 . S
C975 H965 0.930 . S
C975 C968 1.409 . S
C975 C974 1.362 . S
H976 C982 0.930 . S
H977 C985 0.930 . S
H978 C986 0.930 . S
H979 C987 0.930 . S
H980 C990 0.930 . S
H981 C991 0.930 . S
C982 H976 0.930 . S
C982 C983 1.355 . S
C982 C984 1.415 . S
C983 C982 1.355 . S
C983 C985 1.419 . S
C984 C982 1.415 . S
C984 C989 1.425 . S
C984 C991 1.409 . S
C985 H977 0.930 . S
C985 C983 1.419 . S
C985 C986 1.362 . S
C986 H978 0.930 . S
C986 C985 1.362 . S
C986 C989 1.409 . S
C987 H979 0.930 . S
C987 C988 1.355 . S
C987 C989 1.415 . S
C988 C987 1.355 . S
C988 C990 1.419 . S
C989 C984 1.425 . S
C989 C986 1.409 . S
C989 C987 1.415 . S
C990 H980 0.930 . S
C990 C988 1.419 . S
C990 C991 1.362 . S
C991 H981 0.930 . S
C991 C984 1.409 . S
C991 C990 1.362 . S
H992 C998 0.930 . S
H993 C1001 0.930 . S
H994 C1002 0.930 . S
H995 C1003 0.930 . S
H996 C1006 0.930 . S
H997 C1007 0.930 . S
C998 H992 0.930 . S
C998 C999 1.355 . S
C998 C1000 1.415 . S
C999 C998 1.355 . S
C999 C1001 1.419 . S
C1000 C998 1.415 . S
C1000 C1005 1.425 . S
C1000 C1007 1.409 . S
C1001 H993 0.930 . S
C1001 C999 1.419 . S
C1001 C1002 1.362 . S
C1002 H994 0.930 . S
C1002 C1001 1.362 . S
C1002 C1005 1.409 . S
C1003 H995 0.930 . S
C1003 C1004 1.355 . S
C1003 C1005 1.415 . S
C1004 C1003 1.355 . S
C1004 C1006 1.419 . S
C1005 C1000 1.425 . S
C1005 C1002 1.409 . S
C1005 C1003 1.415 . S
C1006 H996 0.930 . S
C1006 C1004 1.419 . S
C1006 C1007 1.362 . S
C1007 H997 0.930 . S
C1007 C1000 1.409 . S
C1007 C1006 1.362 . S
H1008 C1014 0.930 . S
H1009 C1017 0.930 . S
H1010 C1018 0.930 . S
H1011 C1019 0.930 . S
H1012 C1022 0.930 . S
H1013 C1023 0.930 . S
C1014 H1008 0.930 . S
C1014 C1015 1.355 . S
C1014 C1016 1.415 . S
C1015 C1014 1.355 . S
C1015 C1017 1.419 . S
C1016 C1014 1.415 . S
C1016 C1021 1.425 . S
C1016 C1023 1.409 . S
C1017 H1009 0.930 . S
C1017 C1015 1.419 . S
C1017 C1018 1.362 . S
C1018 H1010 0.930 . S
C1018 C1017 1.362 . S
C1018 C1021 1.409 . S
C1019 H1011 0.930 . S
C1019 C1020 1.355 . S
C1019 C1021 1.415 . S
C1020 C1019 1.355 . S
C1020 C1022 1.419 . S
C1021 C1016 1.425 . S
C1021 C1018 1.409 . S
C1021 C1019 1.415 . S
C1022 H1012 0.930 . S
C1022 C1020 1.419 . S
C1022 C1023 1.362 . S
C1023 H1013 0.930 . S
C1023 C1016 1.409 . S
C1023 C1022 1.362 . S
H1024 C1030 0.930 . S
H1025 C1033 0.930 . S
H1026 C1034 0.930 . S
H1027 C1035 0.930 . S
H1028 C1038 0.930 . S
H1029 C1039 0.930 . S
C1030 H1024 0.930 . S
C1030 C1031 1.355 . S
C1030 C1032 1.415 . S
C1031 C1030 1.355 . S
C1031 C1033 1.419 . S
C1032 C1030 1.415 . S
C1032 C1037 1.425 . S
C1032 C1039 1.409 . S
C1033 H1025 0.930 . S
C1033 C1031 1.419 . S
C1033 C1034 1.362 . S
C1034 H1026 0.930 . S
C1034 C1033 1.362 . S
C1034 C1037 1.409 . S
C1035 H1027 0.930 . S
C1035 C1036 1.355 . S
C1035 C1037 1.415 . S
C1036 C1035 1.355 . S
C1036 C1038 1.419 . S
C1037 C1032 1.425 . S
C1037 C1034 1.409 . S
C1037 C1035 1.415 . S
C1038 H1028 0.930 . S
C1038 C1036 1.419 . S
C1038 C1039 1.362 . S
C1039 H1029 0.930 . S
C1039 C1032 1.409 . S
C1039 C1038 1.362 . S
H1040 C1046 0.930 . S
H1041 C1049 0.930 1_655 S
H1042 C1050 0.930 . S
H1043 C1051 0.930 1_655 S
H1044 C1054 0.930 . S
H1045 C1055 0.930 . S
C1046 H1040 0.930 . S
C1046 C1047 1.355 . S
C1046 C1048 1.415 . S
C1047 C1046 1.355 . S
C1047 C1049 1.419 . S
C1048 C1046 1.415 . S
C1048 C1053 1.425 . S
C1048 C1055 1.409 . S
C1049 H1041 0.930 1_455 S
C1049 C1047 1.419 . S
C1049 C1050 1.362 1_455 S
C1050 H1042 0.930 . S
C1050 C1049 1.362 1_655 S
C1050 C1053 1.409 1_655 S
C1051 H1043 0.930 1_455 S
C1051 C1052 1.355 . S
C1051 C1053 1.415 . S
C1052 C1051 1.355 . S
C1052 C1054 1.419 . S
C1053 C1048 1.425 . S
C1053 C1050 1.409 1_455 S
C1053 C1051 1.415 . S
C1054 H1044 0.930 . S
C1054 C1052 1.419 . S
C1054 C1055 1.362 . S
C1055 H1045 0.930 . S
C1055 C1048 1.409 . S
C1055 C1054 1.362 . S
H1056 C1062 0.930 . S
H1057 C1065 0.930 . S
H1058 C1066 0.930 . S
H1059 C1067 0.930 . S
H1060 C1070 0.930 . S
H1061 C1071 0.930 . S
C1062 H1056 0.930 . S
C1062 C1063 1.355 . S
C1062 C1064 1.415 . S
C1063 C1062 1.355 . S
C1063 C1065 1.419 . S
C1064 C1062 1.415 . S
C1064 C1069 1.425 . S
C1064 C1071 1.409 . S
C1065 H1057 0.930 . S
C1065 C1063 1.419 . S
C1065 C1066 1.362 . S
C1066 H1058 0.930 . S
C1066 C1065 1.362 . S
C1066 C1069 1.409 . S
C1067 H1059 0.930 . S
C1067 C1068 1.355 . S
C1067 C1069 1.415 . S
C1068 C1067 1.355 . S
C1068 C1070 1.419 . S
C1069 C1064 1.425 . S
C1069 C1066 1.409 . S
C1069 C1067 1.415 . S
C1070 H1060 0.930 . S
C1070 C1068 1.419 . S
C1070 C1071 1.362 . S
C1071 H1061 0.930 . S
C1071 C1064 1.409 . S
C1071 C1070 1.362 . S
H1072 C1078 0.930 . S
H1073 C1081 0.930 . S
H1074 C1082 0.930 . S
H1075 C1083 0.930 . S
H1076 C1086 0.930 . S
H1077 C1087 0.930 . S
C1078 H1072 0.930 . S
C1078 C1079 1.355 . S
C1078 C1080 1.415 . S
C1079 C1078 1.355 . S
C1079 C1081 1.419 . S
C1080 C1078 1.415 . S
C1080 C1085 1.425 . S
C1080 C1087 1.409 . S
C1081 H1073 0.930 . S
C1081 C1079 1.419 . S
C1081 C1082 1.362 . S
C1082 H1074 0.930 . S
C1082 C1081 1.362 . S
C1082 C1085 1.409 . S
C1083 H1075 0.930 . S
C1083 C1084 1.355 . S
C1083 C1085 1.415 . S
C1084 C1083 1.355 . S
C1084 C1086 1.419 . S
C1085 C1080 1.425 . S
C1085 C1082 1.409 . S
C1085 C1083 1.415 . S
C1086 H1076 0.930 . S
C1086 C1084 1.419 . S
C1086 C1087 1.362 . S
C1087 H1077 0.930 . S
C1087 C1080 1.409 . S
C1087 C1086 1.362 . S
H1088 C1094 0.930 . S
H1089 C1097 0.930 . S
H1090 C1098 0.930 . S
H1091 C1099 0.930 . S
H1092 C1102 0.930 . S
H1093 C1103 0.930 . S
C1094 H1088 0.930 . S
C1094 C1095 1.355 . S
C1094 C1096 1.415 . S
C1095 C1094 1.355 . S
C1095 C1097 1.419 . S
C1096 C1094 1.415 . S
C1096 C1101 1.425 . S
C1096 C1103 1.409 . S
C1097 H1089 0.930 . S
C1097 C1095 1.419 . S
C1097 C1098 1.362 . S
C1098 H1090 0.930 . S
C1098 C1097 1.362 . S
C1098 C1101 1.409 . S
C1099 H1091 0.930 . S
C1099 C1100 1.355 . S
C1099 C1101 1.415 . S
C1100 C1099 1.355 . S
C1100 C1102 1.419 . S
C1101 C1096 1.425 . S
C1101 C1098 1.409 . S
C1101 C1099 1.415 . S
C1102 H1092 0.930 . S
C1102 C1100 1.419 . S
C1102 C1103 1.362 . S
C1103 H1093 0.930 . S
C1103 C1096 1.409 . S
C1103 C1102 1.362 . S
H1104 C1110 0.930 . S
H1105 C1113 0.930 . S
H1106 C1114 0.930 1_655 S
H1107 C1115 0.930 1_655 S
H1108 C1118 0.930 . S
H1109 C1119 0.930 . S
C1110 H1104 0.930 . S
C1110 C1111 1.355 . S
C1110 C1112 1.415 . S
C1111 C1110 1.355 . S
C1111 C1113 1.419 . S
C1112 C1110 1.415 . S
C1112 C1117 1.425 . S
C1112 C1119 1.409 . S
C1113 H1105 0.930 . S
C1113 C1111 1.419 . S
C1113 C1114 1.362 . S
C1114 H1106 0.930 1_455 S
C1114 C1113 1.362 . S
C1114 C1117 1.409 . S
C1115 H1107 0.930 1_455 S
C1115 C1116 1.355 . S
C1115 C1117 1.415 . S
C1116 C1115 1.355 . S
C1116 C1118 1.419 . S
C1117 C1112 1.425 . S
C1117 C1114 1.409 . S
C1117 C1115 1.415 . S
C1118 H1108 0.930 . S
C1118 C1116 1.419 . S
C1118 C1119 1.362 . S
C1119 H1109 0.930 . S
C1119 C1112 1.409 . S
C1119 C1118 1.362 . S
H1120 C1126 0.930 . S
H1121 C1129 0.930 . S
H1122 C1130 0.930 . S
H1123 C1131 0.930 . S
H1124 C1134 0.930 . S
H1125 C1135 0.930 . S
C1126 H1120 0.930 . S
C1126 C1127 1.355 . S
C1126 C1128 1.415 . S
C1127 C1126 1.355 . S
C1127 C1129 1.419 . S
C1128 C1126 1.415 . S
C1128 C1133 1.425 . S
C1128 C1135 1.409 . S
C1129 H1121 0.930 . S
C1129 C1127 1.419 . S
C1129 C1130 1.362 . S
C1130 H1122 0.930 . S
C1130 C1129 1.362 . S
C1130 C1133 1.409 . S
C1131 H1123 0.930 . S
C1131 C1132 1.355 . S
C1131 C1133 1.415 . S
C1132 C1131 1.355 . S
C1132 C1134 1.419 . S
C1133 C1128 1.425 . S
C1133 C1130 1.409 . S
C1133 C1131 1.415 . S
C1134 H1124 0.930 . S
C1134 C1132 1.419 . S
C1134 C1135 1.362 . S
C1135 H1125 0.930 . S
C1135 C1128 1.409 . S
C1135 C1134 1.362 . S
H1136 C1142 0.930 . S
H1137 C1145 0.930 . S
H1138 C1146 0.930 . S
H1139 C1147 0.930 . S
H1140 C1150 0.930 . S
H1141 C1151 0.930 . S
C1142 H1136 0.930 . S
C1142 C1143 1.355 . S
C1142 C1144 1.415 . S
C1143 C1142 1.355 . S
C1143 C1145 1.419 . S
C1144 C1142 1.415 . S
C1144 C1149 1.425 . S
C1144 C1151 1.409 . S
C1145 H1137 0.930 . S
C1145 C1143 1.419 . S
C1145 C1146 1.362 . S
C1146 H1138 0.930 . S
C1146 C1145 1.362 . S
C1146 C1149 1.409 . S
C1147 H1139 0.930 . S
C1147 C1148 1.355 . S
C1147 C1149 1.415 . S
C1148 C1147 1.355 . S
C1148 C1150 1.419 1_556 S
C1149 C1144 1.425 . S
C1149 C1146 1.409 . S
C1149 C1147 1.415 . S
C1150 H1140 0.930 . S
C1150 C1148 1.419 1_554 S
C1150 C1151 1.362 1_554 S
C1151 H1141 0.930 . S
C1151 C1144 1.409 . S
C1151 C1150 1.362 1_556 S
H1152 C1158 0.930 . S
H1153 C1161 0.930 . S
H1154 C1162 0.930 . S
H1155 C1163 0.930 . S
H1156 C1166 0.930 . S
H1157 C1167 0.930 . S
C1158 H1152 0.930 . S
C1158 C1159 1.355 . S
C1158 C1160 1.415 . S
C1159 C1158 1.355 . S
C1159 C1161 1.419 . S
C1160 C1158 1.415 . S
C1160 C1165 1.425 . S
C1160 C1167 1.409 . S
C1161 H1153 0.930 . S
C1161 C1159 1.419 . S
C1161 C1162 1.362 . S
C1162 H1154 0.930 . S
C1162 C1161 1.362 . S
C1162 C1165 1.409 . S
C1163 H1155 0.930 . S
C1163 C1164 1.355 . S
C1163 C1165 1.415 . S
C1164 C1163 1.355 . S
C1164 C1166 1.419 . S
C1165 C1160 1.425 . S
C1165 C1162 1.409 . S
C1165 C1163 1.415 . S
C1166 H1156 0.930 . S
C1166 C1164 1.419 . S
C1166 C1167 1.362 . S
C1167 H1157 0.930 . S
C1167 C1160 1.409 . S
C1167 C1166 1.362 . S
H1168 C1174 0.930 . S
H1169 C1177 0.930 . S
H1170 C1178 0.930 . S
H1171 C1179 0.930 . S
H1172 C1182 0.930 . S
H1173 C1183 0.930 . S
C1174 H1168 0.930 . S
C1174 C1175 1.355 . S
C1174 C1176 1.415 . S
C1175 C1174 1.355 . S
C1175 C1177 1.419 1_545 S
C1176 C1174 1.415 . S
C1176 C1181 1.425 1_545 S
C1176 C1183 1.409 . S
C1177 H1169 0.930 . S
C1177 C1175 1.419 1_565 S
C1177 C1178 1.362 . S
C1178 H1170 0.930 . S
C1178 C1177 1.362 . S
C1178 C1181 1.409 . S
C1179 H1171 0.930 . S
C1179 C1180 1.355 1_565 S
C1179 C1181 1.415 . S
C1180 C1179 1.355 1_545 S
C1180 C1182 1.419 . S
C1181 C1176 1.425 1_565 S
C1181 C1178 1.409 . S
C1181 C1179 1.415 . S
C1182 H1172 0.930 . S
C1182 C1180 1.419 . S
C1182 C1183 1.362 . S
C1183 H1173 0.930 . S
C1183 C1176 1.409 . S
C1183 C1182 1.362 . S
H1184 C1190 0.930 . S
H1185 C1193 0.930 . S
H1186 C1194 0.930 . S
H1187 C1195 0.930 . S
H1188 C1198 0.930 . S
H1189 C1199 0.930 . S
C1190 H1184 0.930 . S
C1190 C1191 1.355 . S
C1190 C1192 1.415 . S
C1191 C1190 1.355 . S
C1191 C1193 1.419 . S
C1192 C1190 1.415 . S
C1192 C1197 1.425 . S
C1192 C1199 1.409 . S
C1193 H1185 0.930 . S
C1193 C1191 1.419 . S
C1193 C1194 1.362 . S
C1194 H1186 0.930 . S
C1194 C1193 1.362 . S
C1194 C1197 1.409 . S
C1195 H1187 0.930 . S
C1195 C1196 1.355 . S
C1195 C1197 1.415 . S
C1196 C1195 1.355 . S
C1196 C1198 1.419 . S
C1197 C1192 1.425 . S
C1197 C1194 1.409 . S
C1197 C1195 1.415 . S
C1198 H1188 0.930 . S
C1198 C1196 1.419 . S
C1198 C1199 1.362 . S
C1199 H1189 0.930 . S
C1199 C1192 1.409 . S
C1199 C1198 1.362 . S
H1200 C1206 0.930 . S
H1201 C1209 0.930 1_565 S
H1202 C1210 0.930 . S
H1203 C1211 0.930 1_565 S
H1204 C1214 0.930 . S
H1205 C1215 0.930 . S
C1206 H1200 0.930 . S
C1206 C1207 1.355 . S
C1206 C1208 1.415 . S
C1207 C1206 1.355 . S
C1207 C1209 1.419 . S
C1208 C1206 1.415 . S
C1208 C1213 1.425 . S
C1208 C1215 1.409 . S
C1209 H1201 0.930 1_545 S
C1209 C1207 1.419 . S
C1209 C1210 1.362 1_545 S
C1210 H1202 0.930 . S
C1210 C1209 1.362 1_565 S
C1210 C1213 1.409 1_565 S
C1211 H1203 0.930 1_545 S
C1211 C1212 1.355 . S
C1211 C1213 1.415 . S
C1212 C1211 1.355 . S
C1212 C1214 1.419 . S
C1213 C1208 1.425 . S
C1213 C1210 1.409 1_545 S
C1213 C1211 1.415 . S
C1214 H1204 0.930 . S
C1214 C1212 1.419 . S
C1214 C1215 1.362 . S
C1215 H1205 0.930 . S
C1215 C1208 1.409 . S
C1215 C1214 1.362 . S
H1216 C1222 0.930 . S
H1217 C1225 0.930 . S
H1218 C1226 0.930 . S
H1219 C1227 0.930 . S
H1220 C1230 0.930 . S
H1221 C1231 0.930 . S
C1222 H1216 0.930 . S
C1222 C1223 1.355 . S
C1222 C1224 1.415 . S
C1223 C1222 1.355 . S
C1223 C1225 1.419 . S
C1224 C1222 1.415 . S
C1224 C1229 1.425 . S
C1224 C1231 1.409 . S
C1225 H1217 0.930 . S
C1225 C1223 1.419 . S
C1225 C1226 1.362 . S
C1226 H1218 0.930 . S
C1226 C1225 1.362 . S
C1226 C1229 1.409 . S
C1227 H1219 0.930 . S
C1227 C1228 1.355 . S
C1227 C1229 1.415 . S
C1228 C1227 1.355 . S
C1228 C1230 1.419 . S
C1229 C1224 1.425 . S
C1229 C1226 1.409 . S
C1229 C1227 1.415 . S
C1230 H1220 0.930 . S
C1230 C1228 1.419 . S
C1230 C1231 1.362 . S
C1231 H1221 0.930 . S
C1231 C1224 1.409 . S
C1231 C1230 1.362 . S
H1232 C1238 0.930 . S
H1233 C1241 0.930 . S
H1234 C1242 0.930 . S
H1235 C1243 0.930 . S
H1236 C1246 0.930 . S
H1237 C1247 0.930 . S
C1238 H1232 0.930 . S
C1238 C1239 1.355 1_565 S
C1238 C1240 1.415 1_565 S
C1239 C1238 1.355 1_545 S
C1239 C1241 1.419 . S
C1240 C1238 1.415 1_545 S
C1240 C1245 1.425 . S
C1240 C1247 1.409 1_545 S
C1241 H1233 0.930 . S
C1241 C1239 1.419 . S
C1241 C1242 1.362 . S
C1242 H1234 0.930 . S
C1242 C1241 1.362 . S
C1242 C1245 1.409 . S
C1243 H1235 0.930 . S
C1243 C1244 1.355 . S
C1243 C1245 1.415 . S
C1244 C1243 1.355 . S
C1244 C1246 1.419 1_545 S
C1245 C1240 1.425 . S
C1245 C1242 1.409 . S
C1245 C1243 1.415 . S
C1246 H1236 0.930 . S
C1246 C1244 1.419 1_565 S
C1246 C1247 1.362 . S
C1247 H1237 0.930 . S
C1247 C1240 1.409 1_565 S
C1247 C1246 1.362 . S
H1248 C1254 0.930 . S
H1249 C1257 0.930 . S
H1250 C1258 0.930 . S
H1251 C1259 0.930 . S
H1252 C1262 0.930 . S
H1253 C1263 0.930 . S
C1254 H1248 0.930 . S
C1254 C1255 1.355 . S
C1254 C1256 1.415 . S
C1255 C1254 1.355 . S
C1255 C1257 1.419 . S
C1256 C1254 1.415 . S
C1256 C1261 1.425 . S
C1256 C1263 1.409 . S
C1257 H1249 0.930 . S
C1257 C1255 1.419 . S
C1257 C1258 1.362 . S
C1258 H1250 0.930 . S
C1258 C1257 1.362 . S
C1258 C1261 1.409 . S
C1259 H1251 0.930 . S
C1259 C1260 1.355 . S
C1259 C1261 1.415 . S
C1260 C1259 1.355 . S
C1260 C1262 1.419 . S
C1261 C1256 1.425 . S
C1261 C1258 1.409 . S
C1261 C1259 1.415 . S
C1262 H1252 0.930 . S
C1262 C1260 1.419 . S
C1262 C1263 1.362 . S
C1263 H1253 0.930 . S
C1263 C1256 1.409 . S
C1263 C1262 1.362 . S
H1264 C1270 0.930 . S
H1265 C1273 0.930 . S
H1266 C1274 0.930 . S
H1267 C1275 0.930 . S
H1268 C1278 0.930 . S
H1269 C1279 0.930 . S
C1270 H1264 0.930 . S
C1270 C1271 1.355 . S
C1270 C1272 1.415 . S
C1271 C1270 1.355 . S
C1271 C1273 1.419 1_545 S
C1272 C1270 1.415 . S
C1272 C1277 1.425 1_545 S
C1272 C1279 1.409 . S
C1273 H1265 0.930 . S
C1273 C1271 1.419 1_565 S
C1273 C1274 1.362 . S
C1274 H1266 0.930 . S
C1274 C1273 1.362 . S
C1274 C1277 1.409 . S
C1275 H1267 0.930 . S
C1275 C1276 1.355 1_565 S
C1275 C1277 1.415 . S
C1276 C1275 1.355 1_545 S
C1276 C1278 1.419 . S
C1277 C1272 1.425 1_565 S
C1277 C1274 1.409 . S
C1277 C1275 1.415 . S
C1278 H1268 0.930 . S
C1278 C1276 1.419 . S
C1278 C1279 1.362 . S
C1279 H1269 0.930 . S
C1279 C1272 1.409 . S
C1279 C1278 1.362 . S
H1280 C1286 0.930 . S
H1281 C1289 0.930 . S
H1282 C1290 0.930 . S
H1283 C1291 0.930 . S
H1284 C1294 0.930 . S
H1285 C1295 0.930 . S
C1286 H1280 0.930 . S
C1286 C1287 1.355 . S
C1286 C1288 1.415 . S
C1287 C1286 1.355 . S
C1287 C1289 1.419 . S
C1288 C1286 1.415 . S
C1288 C1293 1.425 . S
C1288 C1295 1.409 . S
C1289 H1281 0.930 . S
C1289 C1287 1.419 . S
C1289 C1290 1.362 . S
C1290 H1282 0.930 . S
C1290 C1289 1.362 . S
C1290 C1293 1.409 . S
C1291 H1283 0.930 . S
C1291 C1292 1.355 . S
C1291 C1293 1.415 . S
C1292 C1291 1.355 . S
C1292 C1294 1.419 . S
C1293 C1288 1.425 . S
C1293 C1290 1.409 . S
C1293 C1291 1.415 . S
C1294 H1284 0.930 . S
C1294 C1292 1.419 . S
C1294 C1295 1.362 . S
C1295 H1285 0.930 . S
C1295 C1288 1.409 . S
C1295 C1294 1.362 . S
H1296 C1302 0.930 . S
H1297 C1305 0.930 . S
H1298 C1306 0.930 1_556 S
H1299 C1307 0.930 1_556 S
H1300 C1310 0.930 . S
H1301 C1311 0.930 . S
C1302 H1296 0.930 . S
C1302 C1303 1.355 . S
C1302 C1304 1.415 . S
C1303 C1302 1.355 . S
C1303 C1305 1.419 . S
C1304 C1302 1.415 . S
C1304 C1309 1.425 . S
C1304 C1311 1.409 . S
C1305 H1297 0.930 . S
C1305 C1303 1.419 . S
C1305 C1306 1.362 . S
C1306 H1298 0.930 1_554 S
C1306 C1305 1.362 . S
C1306 C1309 1.409 . S
C1307 H1299 0.930 1_554 S
C1307 C1308 1.355 . S
C1307 C1309 1.415 . S
C1308 C1307 1.355 . S
C1308 C1310 1.419 . S
C1309 C1304 1.425 . S
C1309 C1306 1.409 . S
C1309 C1307 1.415 . S
C1310 H1300 0.930 . S
C1310 C1308 1.419 . S
C1310 C1311 1.362 . S
C1311 H1301 0.930 . S
C1311 C1304 1.409 . S
C1311 C1310 1.362 . S
H1312 C1318 0.930 . S
H1313 C1321 0.930 . S
H1314 C1322 0.930 . S
H1315 C1323 0.930 . S
H1316 C1326 0.930 . S
H1317 C1327 0.930 . S
C1318 H1312 0.930 . S
C1318 C1319 1.355 . S
C1318 C1320 1.415 . S
C1319 C1318 1.355 . S
C1319 C1321 1.419 . S
C1320 C1318 1.415 . S
C1320 C1325 1.425 . S
C1320 C1327 1.409 . S
C1321 H1313 0.930 . S
C1321 C1319 1.419 . S
C1321 C1322 1.362 . S
C1322 H1314 0.930 . S
C1322 C1321 1.362 . S
C1322 C1325 1.409 . S
C1323 H1315 0.930 . S
C1323 C1324 1.355 . S
C1323 C1325 1.415 . S
C1324 C1323 1.355 . S
C1324 C1326 1.419 . S
C1325 C1320 1.425 . S
C1325 C1322 1.409 . S
C1325 C1323 1.415 . S
C1326 H1316 0.930 . S
C1326 C1324 1.419 . S
C1326 C1327 1.362 . S
C1327 H1317 0.930 . S
C1327 C1320 1.409 . S
C1327 C1326 1.362 . S
H1328 C1334 0.930 . S
H1329 C1337 0.930 . S
H1330 C1338 0.930 . S
H1331 C1339 0.930 . S
H1332 C1342 0.930 . S
H1333 C1343 0.930 . S
C1334 H1328 0.930 . S
C1334 C1335 1.355 . S
C1334 C1336 1.415 . S
C1335 C1334 1.355 . S
C1335 C1337 1.419 . S
C1336 C1334 1.415 . S
C1336 C1341 1.425 . S
C1336 C1343 1.409 . S
C1337 H1329 0.930 . S
C1337 C1335 1.419 . S
C1337 C1338 1.362 . S
C1338 H1330 0.930 . S
C1338 C1337 1.362 . S
C1338 C1341 1.409 . S
C1339 H1331 0.930 . S
C1339 C1340 1.355 . S
C1339 C1341 1.415 . S
C1340 C1339 1.355 . S
C1340 C1342 1.419 . S
C1341 C1336 1.425 . S
C1341 C1338 1.409 . S
C1341 C1339 1.415 . S
C1342 H1332 0.930 . S
C1342 C1340 1.419 . S
C1342 C1343 1.362 . S
C1343 H1333 0.930 . S
C1343 C1336 1.409 . S
C1343 C1342 1.362 . S
H1344 C1350 0.930 . S
H1345 C1353 0.930 . S
H1346 C1354 0.930 . S
H1347 C1355 0.930 . S
H1348 C1358 0.930 . S
H1349 C1359 0.930 . S
C1350 H1344 0.930 . S
C1350 C1351 1.355 . S
C1350 C1352 1.415 . S
C1351 C1350 1.355 . S
C1351 C1353 1.419 . S
C1352 C1350 1.415 . S
C1352 C1357 1.425 . S
C1352 C1359 1.409 . S
C1353 H1345 0.930 . S
C1353 C1351 1.419 . S
C1353 C1354 1.362 . S
C1354 H1346 0.930 . S
C1354 C1353 1.362 . S
C1354 C1357 1.409 . S
C1355 H1347 0.930 . S
C1355 C1356 1.355 . S
C1355 C1357 1.415 . S
C1356 C1355 1.355 . S
C1356 C1358 1.419 . S
C1357 C1352 1.425 . S
C1357 C1354 1.409 . S
C1357 C1355 1.415 . S
C1358 H1348 0.930 . S
C1358 C1356 1.419 . S
C1358 C1359 1.362 . S
C1359 H1349 0.930 . S
C1359 C1352 1.409 . S
C1359 C1358 1.362 . S
H1360 C1366 0.930 . S
H1361 C1369 0.930 . S
H1362 C1370 0.930 . S
H1363 C1371 0.930 . S
H1364 C1374 0.930 . S
H1365 C1375 0.930 . S
C1366 H1360 0.930 . S
C1366 C1367 1.355 . S
C1366 C1368 1.415 . S
C1367 C1366 1.355 . S
C1367 C1369 1.419 . S
C1368 C1366 1.415 . S
C1368 C1373 1.425 . S
C1368 C1375 1.409 . S
C1369 H1361 0.930 . S
C1369 C1367 1.419 . S
C1369 C1370 1.362 . S
C1370 H1362 0.930 . S
C1370 C1369 1.362 . S
C1370 C1373 1.409 . S
C1371 H1363 0.930 . S
C1371 C1372 1.355 . S
C1371 C1373 1.415 . S
C1372 C1371 1.355 . S
C1372 C1374 1.419 . S
C1373 C1368 1.425 . S
C1373 C1370 1.409 . S
C1373 C1371 1.415 . S
C1374 H1364 0.930 . S
C1374 C1372 1.419 . S
C1374 C1375 1.362 . S
C1375 H1365 0.930 . S
C1375 C1368 1.409 . S
C1375 C1374 1.362 . S
H1376 C1382 0.930 . S
H1377 C1385 0.930 . S
H1378 C1386 0.930 . S
H1379 C1387 0.930 . S
H1380 C1390 0.930 . S
H1381 C1391 0.930 . S
C1382 H1376 0.930 . S
C1382 C1383 1.355 . S
C1382 C1384 1.415 . S
C1383 C1382 1.355 . S
C1383 C1385 1.419 . S
C1384 C1382 1.415 . S
C1384 C1389 1.425 . S
C1384 C1391 1.409 . S
C1385 H1377 0.930 . S
C1385 C1383 1.419 . S
C1385 C1386 1.362 . S
C1386 H1378 0.930 . S
C1386 C1385 1.362 . S
C1386 C1389 1.409 . S
C1387 H1379 0.930 . S
C1387 C1388 1.355 . S
C1387 C1389 1.415 . S
C1388 C1387 1.355 . S
C1388 C1390 1.419 . S
C1389 C1384 1.425 . S
C1389 C1386 1.409 . S
C1389 C1387 1.415 . S
C1390 H1380 0.930 . S
C1390 C1388 1.419 . S
C1390 C1391 1.362 . S
C1391 H1381 0.930 . S
C1391 C1384 1.409 . S
C1391 C1390 1.362 . S
H1392 C1398 0.930 . S
H1393 C1401 0.930 . S
H1394 C1402 0.930 . S
H1395 C1403 0.930 . S
H1396 C1406 0.930 . S
H1397 C1407 0.930 . S
C1398 H1392 0.930 . S
C1398 C1399 1.355 . S
C1398 C1400 1.415 . S
C1399 C1398 1.355 . S
C1399 C1401 1.419 . S
C1400 C1398 1.415 . S
C1400 C1405 1.425 . S
C1400 C1407 1.409 . S
C1401 H1393 0.930 . S
C1401 C1399 1.419 . S
C1401 C1402 1.362 . S
C1402 H1394 0.930 . S
C1402 C1401 1.362 . S
C1402 C1405 1.409 . S
C1403 H1395 0.930 . S
C1403 C1404 1.355 . S
C1403 C1405 1.415 . S
C1404 C1403 1.355 . S
C1404 C1406 1.419 . S
C1405 C1400 1.425 . S
C1405 C1402 1.409 . S
C1405 C1403 1.415 . S
C1406 H1396 0.930 . S
C1406 C1404 1.419 . S
C1406 C1407 1.362 . S
C1407 H1397 0.930 . S
C1407 C1400 1.409 . S
C1407 C1406 1.362 . S
H1408 C1414 0.930 . S
H1409 C1417 0.930 . S
H1410 C1418 0.930 . S
H1411 C1419 0.930 . S
H1412 C1422 0.930 . S
H1413 C1423 0.930 . S
C1414 H1408 0.930 . S
C1414 C1415 1.355 . S
C1414 C1416 1.415 . S
C1415 C1414 1.355 . S
C1415 C1417 1.419 . S
C1416 C1414 1.415 . S
C1416 C1421 1.425 . S
C1416 C1423 1.409 . S
C1417 H1409 0.930 . S
C1417 C1415 1.419 . S
C1417 C1418 1.362 . S
C1418 H1410 0.930 . S
C1418 C1417 1.362 . S
C1418 C1421 1.409 . S
C1419 H1411 0.930 . S
C1419 C1420 1.355 . S
C1419 C1421 1.415 . S
C1420 C1419 1.355 . S
C1420 C1422 1.419 . S
C1421 C1416 1.425 . S
C1421 C1418 1.409 . S
C1421 C1419 1.415 . S
C1422 H1412 0.930 . S
C1422 C1420 1.419 . S
C1422 C1423 1.362 . S
C1423 H1413 0.930 . S
C1423 C1416 1.409 . S
C1423 C1422 1.362 . S
H1424 C1430 0.930 . S
H1425 C1433 0.930 . S
H1426 C1434 0.930 . S
H1427 C1435 0.930 . S
H1428 C1438 0.930 . S
H1429 C1439 0.930 . S
C1430 H1424 0.930 . S
C1430 C1431 1.355 . S
C1430 C1432 1.415 . S
C1431 C1430 1.355 . S
C1431 C1433 1.419 . S
C1432 C1430 1.415 . S
C1432 C1437 1.425 . S
C1432 C1439 1.409 . S
C1433 H1425 0.930 . S
C1433 C1431 1.419 . S
C1433 C1434 1.362 . S
C1434 H1426 0.930 . S
C1434 C1433 1.362 . S
C1434 C1437 1.409 . S
C1435 H1427 0.930 . S
C1435 C1436 1.355 . S
C1435 C1437 1.415 . S
C1436 C1435 1.355 . S
C1436 C1438 1.419 . S
C1437 C1432 1.425 . S
C1437 C1434 1.409 . S
C1437 C1435 1.415 . S
C1438 H1428 0.930 . S
C1438 C1436 1.419 . S
C1438 C1439 1.362 . S
C1439 H1429 0.930 . S
C1439 C1432 1.409 . S
C1439 C1438 1.362 . S
H1440 C1446 0.930 . S
H1441 C1449 0.930 . S
H1442 C1450 0.930 . S
H1443 C1451 0.930 . S
H1444 C1454 0.930 . S
H1445 C1455 0.930 . S
C1446 H1440 0.930 . S
C1446 C1447 1.355 . S
C1446 C1448 1.415 . S
C1447 C1446 1.355 . S
C1447 C1449 1.419 . S
C1448 C1446 1.415 . S
C1448 C1453 1.425 . S
C1448 C1455 1.409 . S
C1449 H1441 0.930 . S
C1449 C1447 1.419 . S
C1449 C1450 1.362 . S
C1450 H1442 0.930 . S
C1450 C1449 1.362 . S
C1450 C1453 1.409 . S
C1451 H1443 0.930 . S
C1451 C1452 1.355 . S
C1451 C1453 1.415 . S
C1452 C1451 1.355 . S
C1452 C1454 1.419 . S
C1453 C1448 1.425 . S
C1453 C1450 1.409 . S
C1453 C1451 1.415 . S
C1454 H1444 0.930 . S
C1454 C1452 1.419 . S
C1454 C1455 1.362 . S
C1455 H1445 0.930 . S
C1455 C1448 1.409 . S
C1455 C1454 1.362 . S
H1456 C1462 0.930 . S
H1457 C1465 0.930 . S
H1458 C1466 0.930 . S
H1459 C1467 0.930 . S
H1460 C1470 0.930 . S
H1461 C1471 0.930 . S
C1462 H1456 0.930 . S
C1462 C1463 1.355 1_655 S
C1462 C1464 1.415 . S
C1463 C1462 1.355 1_455 S
C1463 C1465 1.419 . S
C1464 C1462 1.415 . S
C1464 C1469 1.425 1_655 S
C1464 C1471 1.409 . S
C1465 H1457 0.930 . S
C1465 C1463 1.419 . S
C1465 C1466 1.362 . S
C1466 H1458 0.930 . S
C1466 C1465 1.362 . S
C1466 C1469 1.409 . S
C1467 H1459 0.930 . S
C1467 C1468 1.355 . S
C1467 C1469 1.415 . S
C1468 C1467 1.355 . S
C1468 C1470 1.419 1_456 S
C1469 C1464 1.425 1_455 S
C1469 C1466 1.409 . S
C1469 C1467 1.415 . S
C1470 H1460 0.930 . S
C1470 C1468 1.419 1_654 S
C1470 C1471 1.362 1_554 S
C1471 H1461 0.930 . S
C1471 C1464 1.409 . S
C1471 C1470 1.362 1_556 S
H1472 C1478 0.930 . S
H1473 C1481 0.930 . S
H1474 C1482 0.930 . S
H1475 C1483 0.930 . S
H1476 C1486 0.930 . S
H1477 C1487 0.930 . S
C1478 H1472 0.930 . S
C1478 C1479 1.355 . S
C1478 C1480 1.415 . S
C1479 C1478 1.355 . S
C1479 C1481 1.419 . S
C1480 C1478 1.415 . S
C1480 C1485 1.425 . S
C1480 C1487 1.409 . S
C1481 H1473 0.930 . S
C1481 C1479 1.419 . S
C1481 C1482 1.362 . S
C1482 H1474 0.930 . S
C1482 C1481 1.362 . S
C1482 C1485 1.409 . S
C1483 H1475 0.930 . S
C1483 C1484 1.355 . S
C1483 C1485 1.415 . S
C1484 C1483 1.355 . S
C1484 C1486 1.419 . S
C1485 C1480 1.425 . S
C1485 C1482 1.409 . S
C1485 C1483 1.415 . S
C1486 H1476 0.930 . S
C1486 C1484 1.419 . S
C1486 C1487 1.362 . S
C1487 H1477 0.930 . S
C1487 C1480 1.409 . S
C1487 C1486 1.362 . S
H1488 C1494 0.930 . S
H1489 C1497 0.930 . S
H1490 C1498 0.930 . S
H1491 C1499 0.930 . S
H1492 C1502 0.930 . S
H1493 C1503 0.930 . S
C1494 H1488 0.930 . S
C1494 C1495 1.355 . S
C1494 C1496 1.415 . S
C1495 C1494 1.355 . S
C1495 C1497 1.419 . S
C1496 C1494 1.415 . S
C1496 C1501 1.425 . S
C1496 C1503 1.409 . S
C1497 H1489 0.930 . S
C1497 C1495 1.419 . S
C1497 C1498 1.362 . S
C1498 H1490 0.930 . S
C1498 C1497 1.362 . S
C1498 C1501 1.409 . S
C1499 H1491 0.930 . S
C1499 C1500 1.355 . S
C1499 C1501 1.415 . S
C1500 C1499 1.355 . S
C1500 C1502 1.419 . S
C1501 C1496 1.425 . S
C1501 C1498 1.409 . S
C1501 C1499 1.415 . S
C1502 H1492 0.930 . S
C1502 C1500 1.419 . S
C1502 C1503 1.362 . S
C1503 H1493 0.930 . S
C1503 C1496 1.409 . S
C1503 C1502 1.362 . S
H1504 C1510 0.930 . S
H1505 C1513 0.930 . S
H1506 C1514 0.930 . S
H1507 C1515 0.930 . S
H1508 C1518 0.930 . S
H1509 C1519 0.930 . S
C1510 H1504 0.930 . S
C1510 C1511 1.355 . S
C1510 C1512 1.415 . S
C1511 C1510 1.355 . S
C1511 C1513 1.419 . S
C1512 C1510 1.415 . S
C1512 C1517 1.425 . S
C1512 C1519 1.409 . S
C1513 H1505 0.930 . S
C1513 C1511 1.419 . S
C1513 C1514 1.362 . S
C1514 H1506 0.930 . S
C1514 C1513 1.362 . S
C1514 C1517 1.409 . S
C1515 H1507 0.930 . S
C1515 C1516 1.355 . S
C1515 C1517 1.415 . S
C1516 C1515 1.355 . S
C1516 C1518 1.419 . S
C1517 C1512 1.425 . S
C1517 C1514 1.409 . S
C1517 C1515 1.415 . S
C1518 H1508 0.930 . S
C1518 C1516 1.419 . S
C1518 C1519 1.362 . S
C1519 H1509 0.930 . S
C1519 C1512 1.409 . S
C1519 C1518 1.362 . S
H1520 C1526 0.930 . S
H1521 C1529 0.930 . S
H1522 C1530 0.930 . S
H1523 C1531 0.930 . S
H1524 C1534 0.930 . S
H1525 C1535 0.930 . S
C1526 H1520 0.930 . S
C1526 C1527 1.355 1_655 S
C1526 C1528 1.415 . S
C1527 C1526 1.355 1_455 S
C1527 C1529 1.419 . S
C1528 C1526 1.415 . S
C1528 C1533 1.425 1_655 S
C1528 C1535 1.409 . S
C1529 H1521 0.930 . S
C1529 C1527 1.419 . S
C1529 C1530 1.362 . S
C1530 H1522 0.930 . S
C1530 C1529 1.362 . S
C1530 C1533 1.409 . S
C1531 H1523 0.930 . S
C1531 C1532 1.355 . S
C1531 C1533 1.415 . S
C1532 C1531 1.355 . S
C1532 C1534 1.419 1_455 S
C1533 C1528 1.425 1_455 S
C1533 C1530 1.409 . S
C1533 C1531 1.415 . S
C1534 H1524 0.930 . S
C1534 C1532 1.419 1_655 S
C1534 C1535 1.362 . S
C1535 H1525 0.930 . S
C1535 C1528 1.409 . S
C1535 C1534 1.362 . S
H1536 C1542 0.930 . S
H1537 C1545 0.930 . S
H1538 C1546 0.930 . S
H1539 C1547 0.930 . S
H1540 C1550 0.930 . S
H1541 C1551 0.930 . S
C1542 H1536 0.930 . S
C1542 C1543 1.355 . S
C1542 C1544 1.415 . S
C1543 C1542 1.355 . S
C1543 C1545 1.419 . S
C1544 C1542 1.415 . S
C1544 C1549 1.425 . S
C1544 C1551 1.409 . S
C1545 H1537 0.930 . S
C1545 C1543 1.419 . S
C1545 C1546 1.362 . S
C1546 H1538 0.930 . S
C1546 C1545 1.362 . S
C1546 C1549 1.409 . S
C1547 H1539 0.930 . S
C1547 C1548 1.355 . S
C1547 C1549 1.415 . S
C1548 C1547 1.355 . S
C1548 C1550 1.419 . S
C1549 C1544 1.425 . S
C1549 C1546 1.409 . S
C1549 C1547 1.415 . S
C1550 H1540 0.930 . S
C1550 C1548 1.419 . S
C1550 C1551 1.362 . S
C1551 H1541 0.930 . S
C1551 C1544 1.409 . S
C1551 C1550 1.362 . S
H1552 C1558 0.930 . S
H1553 C1561 0.930 . S
H1554 C1562 0.930 . S
H1555 C1563 0.930 . S
H1556 C1566 0.930 . S
H1557 C1567 0.930 . S
C1558 H1552 0.930 . S
C1558 C1559 1.355 . S
C1558 C1560 1.415 . S
C1559 C1558 1.355 . S
C1559 C1561 1.419 . S
C1560 C1558 1.415 . S
C1560 C1565 1.425 . S
C1560 C1567 1.409 . S
C1561 H1553 0.930 . S
C1561 C1559 1.419 . S
C1561 C1562 1.362 . S
C1562 H1554 0.930 . S
C1562 C1561 1.362 . S
C1562 C1565 1.409 . S
C1563 H1555 0.930 . S
C1563 C1564 1.355 . S
C1563 C1565 1.415 . S
C1564 C1563 1.355 . S
C1564 C1566 1.419 . S
C1565 C1560 1.425 . S
C1565 C1562 1.409 . S
C1565 C1563 1.415 . S
C1566 H1556 0.930 . S
C1566 C1564 1.419 . S
C1566 C1567 1.362 . S
C1567 H1557 0.930 . S
C1567 C1560 1.409 . S
C1567 C1566 1.362 . S
H1568 C1574 0.930 . S
H1569 C1577 0.930 . S
H1570 C1578 0.930 . S
H1571 C1579 0.930 . S
H1572 C1582 0.930 . S
H1573 C1583 0.930 . S
C1574 H1568 0.930 . S
C1574 C1575 1.355 . S
C1574 C1576 1.415 . S
C1575 C1574 1.355 . S
C1575 C1577 1.419 . S
C1576 C1574 1.415 . S
C1576 C1581 1.425 . S
C1576 C1583 1.409 . S
C1577 H1569 0.930 . S
C1577 C1575 1.419 . S
C1577 C1578 1.362 . S
C1578 H1570 0.930 . S
C1578 C1577 1.362 . S
C1578 C1581 1.409 . S
C1579 H1571 0.930 . S
C1579 C1580 1.355 . S
C1579 C1581 1.415 . S
C1580 C1579 1.355 . S
C1580 C1582 1.419 . S
C1581 C1576 1.425 . S
C1581 C1578 1.409 . S
C1581 C1579 1.415 . S
C1582 H1572 0.930 . S
C1582 C1580 1.419 . S
C1582 C1583 1.362 . S
C1583 H1573 0.930 . S
C1583 C1576 1.409 . S
C1583 C1582 1.362 . S
H1584 C1590 0.930 . S
H1585 C1593 0.930 . S
H1586 C1594 0.930 . S
H1587 C1595 0.930 . S
H1588 C1598 0.930 . S
H1589 C1599 0.930 . S
C1590 H1584 0.930 . S
C1590 C1591 1.355 . S
C1590 C1592 1.415 . S
C1591 C1590 1.355 . S
C1591 C1593 1.419 . S
C1592 C1590 1.415 . S
C1592 C1597 1.425 . S
C1592 C1599 1.409 . S
C1593 H1585 0.930 . S
C1593 C1591 1.419 . S
C1593 C1594 1.362 . S
C1594 H1586 0.930 . S
C1594 C1593 1.362 . S
C1594 C1597 1.409 . S
C1595 H1587 0.930 . S
C1595 C1596 1.355 . S
C1595 C1597 1.415 . S
C1596 C1595 1.355 . S
C1596 C1598 1.419 . S
C1597 C1592 1.425 . S
C1597 C1594 1.409 . S
C1597 C1595 1.415 . S
C1598 H1588 0.930 . S
C1598 C1596 1.419 . S
C1598 C1599 1.362 . S
C1599 H1589 0.930 . S
C1599 C1592 1.409 . S
C1599 C1598 1.362 . S
H1600 C1606 0.930 . S
H1601 C1609 0.930 . S
H1602 C1610 0.930 . S
H1603 C1611 0.930 . S
H1604 C1614 0.930 . S
H1605 C1615 0.930 . S
C1606 H1600 0.930 . S
C1606 C1607 1.355 . S
C1606 C1608 1.415 . S
C1607 C1606 1.355 . S
C1607 C1609 1.419 . S
C1608 C1606 1.415 . S
C1608 C1613 1.425 . S
C1608 C1615 1.409 . S
C1609 H1601 0.930 . S
C1609 C1607 1.419 . S
C1609 C1610 1.362 . S
C1610 H1602 0.930 . S
C1610 C1609 1.362 . S
C1610 C1613 1.409 . S
C1611 H1603 0.930 . S
C1611 C1612 1.355 . S
C1611 C1613 1.415 . S
C1612 C1611 1.355 . S
C1612 C1614 1.419 . S
C1613 C1608 1.425 . S
C1613 C1610 1.409 . S
C1613 C1611 1.415 . S
C1614 H1604 0.930 . S
C1614 C1612 1.419 . S
C1614 C1615 1.362 . S
C1615 H1605 0.930 . S
C1615 C1608 1.409 . S
C1615 C1614 1.362 . S
H1616 C1622 0.930 . S
H1617 C1625 0.930 . S
H1618 C1626 0.930 . S
H1619 C1627 0.930 . S
H1620 C1630 0.930 . S
H1621 C1631 0.930 . S
C1622 H1616 0.930 . S
C1622 C1623 1.355 . S
C1622 C1624 1.415 . S
C1623 C1622 1.355 . S
C1623 C1625 1.419 . S
C1624 C1622 1.415 . S
C1624 C1629 1.425 . S
C1624 C1631 1.409 . S
C1625 H1617 0.930 . S
C1625 C1623 1.419 . S
C1625 C1626 1.362 . S
C1626 H1618 0.930 . S
C1626 C1625 1.362 . S
C1626 C1629 1.409 . S
C1627 H1619 0.930 . S
C1627 C1628 1.355 . S
C1627 C1629 1.415 . S
C1628 C1627 1.355 . S
C1628 C1630 1.419 . S
C1629 C1624 1.425 . S
C1629 C1626 1.409 . S
C1629 C1627 1.415 . S
C1630 H1620 0.930 . S
C1630 C1628 1.419 . S
C1630 C1631 1.362 . S
C1631 H1621 0.930 . S
C1631 C1624 1.409 . S
C1631 C1630 1.362 . S
H1632 C1638 0.930 . S
H1633 C1641 0.930 . S
H1634 C1642 0.930 . S
H1635 C1643 0.930 . S
H1636 C1646 0.930 . S
H1637 C1647 0.930 . S
C1638 H1632 0.930 . S
C1638 C1639 1.355 . S
C1638 C1640 1.415 . S
C1639 C1638 1.355 . S
C1639 C1641 1.419 . S
C1640 C1638 1.415 . S
C1640 C1645 1.425 . S
C1640 C1647 1.409 . S
C1641 H1633 0.930 . S
C1641 C1639 1.419 . S
C1641 C1642 1.362 . S
C1642 H1634 0.930 . S
C1642 C1641 1.362 . S
C1642 C1645 1.409 . S
C1643 H1635 0.930 . S
C1643 C1644 1.355 . S
C1643 C1645 1.415 . S
C1644 C1643 1.355 . S
C1644 C1646 1.419 . S
C1645 C1640 1.425 . S
C1645 C1642 1.409 . S
C1645 C1643 1.415 . S
C1646 H1636 0.930 . S
C1646 C1644 1.419 . S
C1646 C1647 1.362 . S
C1647 H1637 0.930 . S
C1647 C1640 1.409 . S
C1647 C1646 1.362 . S
H1648 C1654 0.930 . S
H1649 C1657 0.930 . S
H1650 C1658 0.930 . S
H1651 C1659 0.930 . S
H1652 C1662 0.930 . S
H1653 C1663 0.930 . S
C1654 H1648 0.930 . S
C1654 C1655 1.355 . S
C1654 C1656 1.415 . S
C1655 C1654 1.355 . S
C1655 C1657 1.419 . S
C1656 C1654 1.415 . S
C1656 C1661 1.425 . S
C1656 C1663 1.409 . S
C1657 H1649 0.930 . S
C1657 C1655 1.419 . S
C1657 C1658 1.362 . S
C1658 H1650 0.930 . S
C1658 C1657 1.362 . S
C1658 C1661 1.409 . S
C1659 H1651 0.930 . S
C1659 C1660 1.355 . S
C1659 C1661 1.415 . S
C1660 C1659 1.355 . S
C1660 C1662 1.419 . S
C1661 C1656 1.425 . S
C1661 C1658 1.409 . S
C1661 C1659 1.415 . S
C1662 H1652 0.930 . S
C1662 C1660 1.419 . S
C1662 C1663 1.362 . S
C1663 H1653 0.930 . S
C1663 C1656 1.409 . S
C1663 C1662 1.362 . S
H1664 C1670 0.930 . S
H1665 C1673 0.930 . S
H1666 C1674 0.930 . S
H1667 C1675 0.930 . S
H1668 C1678 0.930 . S
H1669 C1679 0.930 . S
C1670 H1664 0.930 . S
C1670 C1671 1.355 . S
C1670 C1672 1.415 . S
C1671 C1670 1.355 . S
C1671 C1673 1.419 . S
C1672 C1670 1.415 . S
C1672 C1677 1.425 . S
C1672 C1679 1.409 . S
C1673 H1665 0.930 . S
C1673 C1671 1.419 . S
C1673 C1674 1.362 . S
C1674 H1666 0.930 . S
C1674 C1673 1.362 . S
C1674 C1677 1.409 . S
C1675 H1667 0.930 . S
C1675 C1676 1.355 . S
C1675 C1677 1.415 . S
C1676 C1675 1.355 . S
C1676 C1678 1.419 . S
C1677 C1672 1.425 . S
C1677 C1674 1.409 . S
C1677 C1675 1.415 . S
C1678 H1668 0.930 . S
C1678 C1676 1.419 . S
C1678 C1679 1.362 . S
C1679 H1669 0.930 . S
C1679 C1672 1.409 . S
C1679 C1678 1.362 . S
H1680 C1686 0.930 . S
H1681 C1689 0.930 . S
H1682 C1690 0.930 . S
H1683 C1691 0.930 . S
H1684 C1694 0.930 . S
H1685 C1695 0.930 . S
C1686 H1680 0.930 . S
C1686 C1687 1.355 . S
C1686 C1688 1.415 . S
C1687 C1686 1.355 . S
C1687 C1689 1.419 . S
C1688 C1686 1.415 . S
C1688 C1693 1.425 . S
C1688 C1695 1.409 . S
C1689 H1681 0.930 . S
C1689 C1687 1.419 . S
C1689 C1690 1.362 . S
C1690 H1682 0.930 . S
C1690 C1689 1.362 . S
C1690 C1693 1.409 . S
C1691 H1683 0.930 . S
C1691 C1692 1.355 . S
C1691 C1693 1.415 . S
C1692 C1691 1.355 . S
C1692 C1694 1.419 . S
C1693 C1688 1.425 . S
C1693 C1690 1.409 . S
C1693 C1691 1.415 . S
C1694 H1684 0.930 . S
C1694 C1692 1.419 . S
C1694 C1695 1.362 . S
C1695 H1685 0.930 . S
C1695 C1688 1.409 . S
C1695 C1694 1.362 . S
H1696 C1702 0.930 . S
H1697 C1705 0.930 . S
H1698 C1706 0.930 . S
H1699 C1707 0.930 . S
H1700 C1710 0.930 . S
H1701 C1711 0.930 . S
C1702 H1696 0.930 . S
C1702 C1703 1.355 . S
C1702 C1704 1.415 . S
C1703 C1702 1.355 . S
C1703 C1705 1.419 . S
C1704 C1702 1.415 . S
C1704 C1709 1.425 . S
C1704 C1711 1.409 . S
C1705 H1697 0.930 . S
C1705 C1703 1.419 . S
C1705 C1706 1.362 . S
C1706 H1698 0.930 . S
C1706 C1705 1.362 . S
C1706 C1709 1.409 . S
C1707 H1699 0.930 . S
C1707 C1708 1.355 . S
C1707 C1709 1.415 . S
C1708 C1707 1.355 . S
C1708 C1710 1.419 . S
C1709 C1704 1.425 . S
C1709 C1706 1.409 . S
C1709 C1707 1.415 . S
C1710 H1700 0.930 . S
C1710 C1708 1.419 . S
C1710 C1711 1.362 . S
C1711 H1701 0.930 . S
C1711 C1704 1.409 . S
C1711 C1710 1.362 . S
H1712 C1718 0.930 . S
H1713 C1721 0.930 . S
H1714 C1722 0.930 . S
H1715 C1723 0.930 . S
H1716 C1726 0.930 . S
H1717 C1727 0.930 . S
C1718 H1712 0.930 . S
C1718 C1719 1.355 . S
C1718 C1720 1.415 . S
C1719 C1718 1.355 . S
C1719 C1721 1.419 . S
C1720 C1718 1.415 . S
C1720 C1725 1.425 . S
C1720 C1727 1.409 . S
C1721 H1713 0.930 . S
C1721 C1719 1.419 . S
C1721 C1722 1.362 . S
C1722 H1714 0.930 . S
C1722 C1721 1.362 . S
C1722 C1725 1.409 . S
C1723 H1715 0.930 . S
C1723 C1724 1.355 . S
C1723 C1725 1.415 . S
C1724 C1723 1.355 . S
C1724 C1726 1.419 . S
C1725 C1720 1.425 . S
C1725 C1722 1.409 . S
C1725 C1723 1.415 . S
C1726 H1716 0.930 . S
C1726 C1724 1.419 . S
C1726 C1727 1.362 . S
C1727 H1717 0.930 . S
C1727 C1720 1.409 . S
C1727 C1726 1.362 . S
H1728 C1734 0.930 . S
H1729 C1737 0.930 . S
H1730 C1738 0.930 . S
H1731 C1739 0.930 . S
H1732 C1742 0.930 1_545 S
H1733 C1743 0.930 . S
C1734 H1728 0.930 . S
C1734 C1735 1.355 . S
C1734 C1736 1.415 . S
C1735 C1734 1.355 . S
C1735 C1737 1.419 . S
C1736 C1734 1.415 . S
C1736 C1741 1.425 . S
C1736 C1743 1.409 . S
C1737 H1729 0.930 . S
C1737 C1735 1.419 . S
C1737 C1738 1.362 . S
C1738 H1730 0.930 . S
C1738 C1737 1.362 . S
C1738 C1741 1.409 . S
C1739 H1731 0.930 . S
C1739 C1740 1.355 . S
C1739 C1741 1.415 . S
C1740 C1739 1.355 . S
C1740 C1742 1.419 . S
C1741 C1736 1.425 . S
C1741 C1738 1.409 . S
C1741 C1739 1.415 . S
C1742 H1732 0.930 1_565 S
C1742 C1740 1.419 . S
C1742 C1743 1.362 . S
C1743 H1733 0.930 . S
C1743 C1736 1.409 . S
C1743 C1742 1.362 . S
H1744 C1750 0.930 . S
H1745 C1753 0.930 . S
H1746 C1754 0.930 . S
H1747 C1755 0.930 . S
H1748 C1758 0.930 . S
H1749 C1759 0.930 . S
C1750 H1744 0.930 . S
C1750 C1751 1.355 . S
C1750 C1752 1.415 . S
C1751 C1750 1.355 . S
C1751 C1753 1.419 . S
C1752 C1750 1.415 . S
C1752 C1757 1.425 . S
C1752 C1759 1.409 . S
C1753 H1745 0.930 . S
C1753 C1751 1.419 . S
C1753 C1754 1.362 . S
C1754 H1746 0.930 . S
C1754 C1753 1.362 . S
C1754 C1757 1.409 . S
C1755 H1747 0.930 . S
C1755 C1756 1.355 . S
C1755 C1757 1.415 . S
C1756 C1755 1.355 . S
C1756 C1758 1.419 . S
C1757 C1752 1.425 . S
C1757 C1754 1.409 . S
C1757 C1755 1.415 . S
C1758 H1748 0.930 . S
C1758 C1756 1.419 . S
C1758 C1759 1.362 . S
C1759 H1749 0.930 . S
C1759 C1752 1.409 . S
C1759 C1758 1.362 . S
H1760 C1766 0.930 . S
H1761 C1769 0.930 . S
H1762 C1770 0.930 . S
H1763 C1771 0.903 1_556 S
H1764 C1774 0.930 . S
H1765 C1775 0.930 . S
C1766 H1760 0.930 . S
C1766 C1767 1.355 . S
C1766 C1768 1.415 . S
C1767 C1766 1.355 . S
C1767 C1769 1.419 1_554 S
C1768 C1766 1.415 . S
C1768 C1773 1.425 . S
C1768 C1775 1.409 . S
C1769 H1761 0.930 . S
C1769 C1767 1.419 1_556 S
C1769 C1770 1.362 . S
C1770 H1762 0.930 . S
C1770 C1769 1.362 . S
C1770 C1773 1.409 1_556 S
C1771 H1763 0.903 1_554 S
C1771 C1772 1.355 . S
C1771 C1773 1.415 . S
C1772 C1771 1.355 . S
C1772 C1774 1.419 . S
C1773 C1768 1.425 . S
C1773 C1770 1.409 1_554 S
C1773 C1771 1.415 . S
C1774 H1764 0.930 . S
C1774 C1772 1.419 . S
C1774 C1775 1.362 . S
C1775 H1765 0.930 . S
C1775 C1768 1.409 . S
C1775 C1774 1.362 . S
H1776 C1782 0.930 . S
H1777 C1785 0.930 . S
H1778 C1786 0.930 . S
H1779 C1787 0.930 . S
H1780 C1790 0.930 . S
H1781 C1791 0.930 . S
C1782 H1776 0.930 . S
C1782 C1783 1.355 . S
C1782 C1784 1.415 . S
C1783 C1782 1.355 . S
C1783 C1785 1.419 . S
C1784 C1782 1.415 . S
C1784 C1789 1.425 . S
C1784 C1791 1.409 . S
C1785 H1777 0.930 . S
C1785 C1783 1.419 . S
C1785 C1786 1.362 . S
C1786 H1778 0.930 . S
C1786 C1785 1.362 . S
C1786 C1789 1.409 . S
C1787 H1779 0.930 . S
C1787 C1788 1.355 . S
C1787 C1789 1.415 . S
C1788 C1787 1.355 . S
C1788 C1790 1.419 . S
C1789 C1784 1.425 . S
C1789 C1786 1.409 . S
C1789 C1787 1.415 . S
C1790 H1780 0.930 . S
C1790 C1788 1.419 . S
C1790 C1791 1.362 . S
C1791 H1781 0.930 . S
C1791 C1784 1.409 . S
C1791 C1790 1.362 . S
H1792 C1798 0.930 . S
H1793 C1801 0.930 . S
H1794 C1802 0.930 . S
H1795 C1803 0.930 . S
H1796 C1806 0.930 . S
H1797 C1807 0.930 . S
C1798 H1792 0.930 . S
C1798 C1799 1.355 . S
C1798 C1800 1.415 . S
C1799 C1798 1.355 . S
C1799 C1801 1.419 . S
C1800 C1798 1.415 . S
C1800 C1805 1.425 . S
C1800 C1807 1.409 . S
C1801 H1793 0.930 . S
C1801 C1799 1.419 . S
C1801 C1802 1.362 . S
C1802 H1794 0.930 . S
C1802 C1801 1.362 . S
C1802 C1805 1.409 . S
C1803 H1795 0.930 . S
C1803 C1804 1.355 . S
C1803 C1805 1.415 . S
C1804 C1803 1.355 . S
C1804 C1806 1.419 . S
C1805 C1800 1.425 . S
C1805 C1802 1.409 . S
C1805 C1803 1.415 . S
C1806 H1796 0.930 . S
C1806 C1804 1.419 . S
C1806 C1807 1.362 . S
C1807 H1797 0.930 . S
C1807 C1800 1.409 . S
C1807 C1806 1.362 . S
H1808 C1814 0.930 . S
H1809 C1817 0.930 . S
H1810 C1818 0.930 . S
H1811 C1819 0.930 . S
H1812 C1822 0.930 . S
H1813 C1823 0.930 . S
C1814 H1808 0.930 . S
C1814 C1815 1.355 . S
C1814 C1816 1.415 . S
C1815 C1814 1.355 . S
C1815 C1817 1.419 . S
C1816 C1814 1.415 . S
C1816 C1821 1.425 . S
C1816 C1823 1.409 . S
C1817 H1809 0.930 . S
C1817 C1815 1.419 . S
C1817 C1818 1.362 . S
C1818 H1810 0.930 . S
C1818 C1817 1.362 . S
C1818 C1821 1.409 . S
C1819 H1811 0.930 . S
C1819 C1820 1.355 . S
C1819 C1821 1.415 . S
C1820 C1819 1.355 . S
C1820 C1822 1.419 . S
C1821 C1816 1.425 . S
C1821 C1818 1.409 . S
C1821 C1819 1.415 . S
C1822 H1812 0.930 . S
C1822 C1820 1.419 . S
C1822 C1823 1.362 . S
C1823 H1813 0.930 . S
C1823 C1816 1.409 . S
C1823 C1822 1.362 . S
H1824 C1830 0.930 . S
H1825 C1833 0.930 . S
H1826 C1834 0.930 . S
H1827 C1835 0.930 . S
H1828 C1838 0.930 . S
H1829 C1839 0.930 . S
C1830 H1824 0.930 . S
C1830 C1831 1.355 . S
C1830 C1832 1.415 . S
C1831 C1830 1.355 . S
C1831 C1833 1.419 . S
C1832 C1830 1.415 . S
C1832 C1837 1.425 . S
C1832 C1839 1.409 . S
C1833 H1825 0.930 . S
C1833 C1831 1.419 . S
C1833 C1834 1.362 . S
C1834 H1826 0.930 . S
C1834 C1833 1.362 . S
C1834 C1837 1.409 . S
C1835 H1827 0.930 . S
C1835 C1836 1.355 . S
C1835 C1837 1.415 . S
C1836 C1835 1.355 . S
C1836 C1838 1.419 . S
C1837 C1832 1.425 . S
C1837 C1834 1.409 . S
C1837 C1835 1.415 . S
C1838 H1828 0.930 . S
C1838 C1836 1.419 . S
C1838 C1839 1.362 . S
C1839 H1829 0.930 . S
C1839 C1832 1.409 . S
C1839 C1838 1.362 . S
H1840 C1846 0.930 . S
H1841 C1849 0.930 . S
H1842 C1850 0.930 . S
H1843 C1851 0.930 . S
H1844 C1854 0.930 . S
H1845 C1855 0.930 . S
C1846 H1840 0.930 . S
C1846 C1847 1.355 . S
C1846 C1848 1.415 . S
C1847 C1846 1.355 . S
C1847 C1849 1.419 . S
C1848 C1846 1.415 . S
C1848 C1853 1.425 . S
C1848 C1855 1.409 . S
C1849 H1841 0.930 . S
C1849 C1847 1.419 . S
C1849 C1850 1.362 . S
C1850 H1842 0.930 . S
C1850 C1849 1.362 . S
C1850 C1853 1.409 . S
C1851 H1843 0.930 . S
C1851 C1852 1.355 . S
C1851 C1853 1.415 . S
C1852 C1851 1.355 . S
C1852 C1854 1.419 . S
C1853 C1848 1.425 . S
C1853 C1850 1.409 . S
C1853 C1851 1.415 . S
C1854 H1844 0.930 . S
C1854 C1852 1.419 . S
C1854 C1855 1.362 . S
C1855 H1845 0.930 . S
C1855 C1848 1.409 . S
C1855 C1854 1.362 . S
H1856 C1862 0.930 . S
H1857 C1865 0.930 . S
H1858 C1866 0.930 . S
H1859 C1867 0.930 . S
H1860 C1870 0.930 . S
H1861 C1871 0.930 . S
C1862 H1856 0.930 . S
C1862 C1863 1.355 . S
C1862 C1864 1.415 . S
C1863 C1862 1.355 . S
C1863 C1865 1.419 . S
C1864 C1862 1.415 . S
C1864 C1869 1.425 . S
C1864 C1871 1.409 . S
C1865 H1857 0.930 . S
C1865 C1863 1.419 . S
C1865 C1866 1.362 . S
C1866 H1858 0.930 . S
C1866 C1865 1.362 . S
C1866 C1869 1.409 . S
C1867 H1859 0.930 . S
C1867 C1868 1.355 . S
C1867 C1869 1.415 . S
C1868 C1867 1.355 . S
C1868 C1870 1.419 . S
C1869 C1864 1.425 . S
C1869 C1866 1.409 . S
C1869 C1867 1.415 . S
C1870 H1860 0.930 . S
C1870 C1868 1.419 . S
C1870 C1871 1.362 . S
C1871 H1861 0.930 . S
C1871 C1864 1.409 . S
C1871 C1870 1.362 . S
H1872 C1878 0.930 . S
H1873 C1881 0.930 . S
H1874 C1882 0.930 1_554 S
H1875 C1883 0.930 1_554 S
H1876 C1886 0.930 . S
H1877 C1887 0.930 . S
C1878 H1872 0.930 . S
C1878 C1879 1.355 . S
C1878 C1880 1.415 . S
C1879 C1878 1.355 . S
C1879 C1881 1.419 . S
C1880 C1878 1.415 . S
C1880 C1885 1.425 . S
C1880 C1887 1.409 . S
C1881 H1873 0.930 . S
C1881 C1879 1.419 . S
C1881 C1882 1.362 . S
C1882 H1874 0.930 1_556 S
C1882 C1881 1.362 . S
C1882 C1885 1.409 . S
C1883 H1875 0.930 1_556 S
C1883 C1884 1.355 . S
C1883 C1885 1.415 . S
C1884 C1883 1.355 . S
C1884 C1886 1.419 . S
C1885 C1880 1.425 . S
C1885 C1882 1.409 . S
C1885 C1883 1.415 . S
C1886 H1876 0.930 . S
C1886 C1884 1.419 . S
C1886 C1887 1.362 . S
C1887 H1877 0.930 . S
C1887 C1880 1.409 . S
C1887 C1886 1.362 . S
H1888 C1894 0.930 . S
H1889 C1897 0.930 . S
H1890 C1898 0.930 . S
H1891 C1899 0.930 . S
H1892 C1902 0.930 . S
H1893 C1903 0.930 . S
C1894 H1888 0.930 . S
C1894 C1895 1.355 . S
C1894 C1896 1.415 . S
C1895 C1894 1.355 . S
C1895 C1897 1.419 . S
C1896 C1894 1.415 . S
C1896 C1901 1.425 . S
C1896 C1903 1.409 . S
C1897 H1889 0.930 . S
C1897 C1895 1.419 . S
C1897 C1898 1.362 . S
C1898 H1890 0.930 . S
C1898 C1897 1.362 . S
C1898 C1901 1.409 . S
C1899 H1891 0.930 . S
C1899 C1900 1.355 . S
C1899 C1901 1.415 . S
C1900 C1899 1.355 . S
C1900 C1902 1.419 . S
C1901 C1896 1.425 . S
C1901 C1898 1.409 . S
C1901 C1899 1.415 . S
C1902 H1892 0.930 . S
C1902 C1900 1.419 . S
C1902 C1903 1.362 . S
C1903 H1893 0.930 . S
C1903 C1896 1.409 . S
C1903 C1902 1.362 . S
H1904 C1910 0.912 1_655 S
H1905 C1913 0.930 . S
H1906 C1914 0.930 . S
H1907 C1915 0.930 . S
H1908 C1918 0.963 . S
H1909 C1919 0.930 . S
C1910 H1904 0.912 1_455 S
C1910 C1911 1.355 . S
C1910 C1912 1.415 . S
C1911 C1910 1.355 . S
C1911 C1913 1.419 . S
C1912 C1910 1.415 . S
C1912 C1917 1.425 . S
C1912 C1919 1.409 1_455 S
C1913 H1905 0.930 . S
C1913 C1911 1.419 . S
C1913 C1914 1.362 . S
C1914 H1906 0.930 . S
C1914 C1913 1.362 . S
C1914 C1917 1.409 . S
C1915 H1907 0.930 . S
C1915 C1916 1.355 . S
C1915 C1917 1.415 . S
C1916 C1915 1.355 . S
C1916 C1918 1.390 1_455 S
C1917 C1912 1.425 . S
C1917 C1914 1.409 . S
C1917 C1915 1.415 . S
C1918 H1908 0.963 . S
C1918 C1916 1.390 1_655 S
C1918 C1919 1.359 . S
C1919 H1909 0.930 . S
C1919 C1912 1.409 1_655 S
C1919 C1918 1.359 . S
H1920 C1926 0.930 . S
H1921 C1929 0.930 . S
H1922 C1930 0.930 . S
H1923 C1931 0.930 . S
H1924 C1934 0.930 . S
H1925 C1935 0.930 . S
C1926 H1920 0.930 . S
C1926 C1927 1.355 . S
C1926 C1928 1.415 . S
C1927 C1926 1.355 . S
C1927 C1929 1.419 . S
C1928 C1926 1.415 . S
C1928 C1933 1.425 . S
C1928 C1935 1.409 . S
C1929 H1921 0.930 . S
C1929 C1927 1.419 . S
C1929 C1930 1.362 . S
C1930 H1922 0.930 . S
C1930 C1929 1.362 . S
C1930 C1933 1.409 . S
C1931 H1923 0.930 . S
C1931 C1932 1.355 . S
C1931 C1933 1.415 . S
C1932 C1931 1.355 . S
C1932 C1934 1.419 . S
C1933 C1928 1.425 . S
C1933 C1930 1.409 . S
C1933 C1931 1.415 . S
C1934 H1924 0.930 . S
C1934 C1932 1.419 . S
C1934 C1935 1.362 . S
C1935 H1925 0.930 . S
C1935 C1928 1.409 . S
C1935 C1934 1.362 . S
H1936 C1942 0.930 . S
H1937 C1945 0.930 . S
H1938 C1946 0.930 . S
H1939 C1947 0.930 . S
H1940 C1950 0.930 . S
H1941 C1951 0.930 . S
C1942 H1936 0.930 . S
C1942 C1943 1.355 . S
C1942 C1944 1.415 . S
C1943 C1942 1.355 . S
C1943 C1945 1.419 . S
C1944 C1942 1.415 . S
C1944 C1949 1.425 . S
C1944 C1951 1.409 . S
C1945 H1937 0.930 . S
C1945 C1943 1.419 . S
C1945 C1946 1.362 . S
C1946 H1938 0.930 . S
C1946 C1945 1.362 . S
C1946 C1949 1.409 . S
C1947 H1939 0.930 . S
C1947 C1948 1.355 . S
C1947 C1949 1.415 . S
C1948 C1947 1.355 . S
C1948 C1950 1.419 . S
C1949 C1944 1.425 . S
C1949 C1946 1.409 . S
C1949 C1947 1.415 . S
C1950 H1940 0.930 . S
C1950 C1948 1.419 . S
C1950 C1951 1.362 . S
C1951 H1941 0.930 . S
C1951 C1944 1.409 . S
C1951 C1950 1.362 . S
H1952 C1958 0.930 . S
H1953 C1961 0.930 . S
H1954 C1962 0.930 . S
H1955 C1963 0.930 . S
H1956 C1966 0.930 . S
H1957 C1967 0.930 . S
C1958 H1952 0.930 . S
C1958 C1959 1.355 . S
C1958 C1960 1.415 . S
C1959 C1958 1.355 . S
C1959 C1961 1.419 . S
C1960 C1958 1.415 . S
C1960 C1965 1.425 . S
C1960 C1967 1.409 . S
C1961 H1953 0.930 . S
C1961 C1959 1.419 . S
C1961 C1962 1.362 . S
C1962 H1954 0.930 . S
C1962 C1961 1.362 . S
C1962 C1965 1.409 . S
C1963 H1955 0.930 . S
C1963 C1964 1.355 . S
C1963 C1965 1.415 . S
C1964 C1963 1.355 . S
C1964 C1966 1.419 . S
C1965 C1960 1.425 . S
C1965 C1962 1.409 . S
C1965 C1963 1.415 . S
C1966 H1956 0.930 . S
C1966 C1964 1.419 . S
C1966 C1967 1.362 . S
C1967 H1957 0.930 . S
C1967 C1960 1.409 . S
C1967 C1966 1.362 . S
H1968 C1974 0.930 . S
H1969 C1977 0.930 . S
H1970 C1978 0.930 . S
H1971 C1979 0.930 . S
H1972 C1982 0.930 . S
H1973 C1983 0.930 . S
C1974 H1968 0.930 . S
C1974 C1975 1.355 . S
C1974 C1976 1.415 . S
C1975 C1974 1.355 . S
C1975 C1977 1.419 . S
C1976 C1974 1.415 . S
C1976 C1981 1.425 . S
C1976 C1983 1.409 1_655 S
C1977 H1969 0.930 . S
C1977 C1975 1.419 . S
C1977 C1978 1.362 . S
C1978 H1970 0.930 . S
C1978 C1977 1.362 . S
C1978 C1981 1.409 . S
C1979 H1971 0.930 . S
C1979 C1980 1.355 . S
C1979 C1981 1.415 . S
C1980 C1979 1.355 . S
C1980 C1982 1.419 1_655 S
C1981 C1976 1.425 . S
C1981 C1978 1.409 . S
C1981 C1979 1.415 . S
C1982 H1972 0.930 . S
C1982 C1980 1.419 1_455 S
C1982 C1983 1.362 . S
C1983 H1973 0.930 . S
C1983 C1976 1.409 1_455 S
C1983 C1982 1.362 . S
H1984 C1990 0.930 . S
H1985 C1993 0.930 . S
H1986 C1994 0.930 . S
H1987 C1995 0.930 . S
H1988 C1998 0.930 . S
H1989 C1999 0.930 . S
C1990 H1984 0.930 . S
C1990 C1991 1.355 . S
C1990 C1992 1.415 . S
C1991 C1990 1.355 . S
C1991 C1993 1.419 . S
C1992 C1990 1.415 . S
C1992 C1997 1.425 . S
C1992 C1999 1.409 . S
C1993 H1985 0.930 . S
C1993 C1991 1.419 . S
C1993 C1994 1.362 . S
C1994 H1986 0.930 . S
C1994 C1993 1.362 . S
C1994 C1997 1.409 . S
C1995 H1987 0.930 . S
C1995 C1996 1.355 . S
C1995 C1997 1.415 . S
C1996 C1995 1.355 . S
C1996 C1998 1.419 . S
C1997 C1992 1.425 . S
C1997 C1994 1.409 . S
C1997 C1995 1.415 . S
C1998 H1988 0.930 . S
C1998 C1996 1.419 . S
C1998 C1999 1.362 . S
C1999 H1989 0.930 . S
C1999 C1992 1.409 . S
C1999 C1998 1.362 . S
H2000 C2006 0.930 . S
H2001 C2009 0.930 . S
H2002 C2010 0.930 . S
H2003 C2011 0.930 . S
H2004 C2014 0.930 . S
H2005 C2015 0.930 . S
C2006 H2000 0.930 . S
C2006 C2007 1.355 . S
C2006 C2008 1.415 . S
C2007 C2006 1.355 . S
C2007 C2009 1.419 . S
C2008 C2006 1.415 . S
C2008 C2013 1.425 . S
C2008 C2015 1.409 . S
C2009 H2001 0.930 . S
C2009 C2007 1.419 . S
C2009 C2010 1.362 . S
C2010 H2002 0.930 . S
C2010 C2009 1.362 . S
C2010 C2013 1.409 . S
C2011 H2003 0.930 . S
C2011 C2012 1.355 . S
C2011 C2013 1.415 . S
C2012 C2011 1.355 . S
C2012 C2014 1.419 . S
C2013 C2008 1.425 . S
C2013 C2010 1.409 . S
C2013 C2011 1.415 . S
C2014 H2004 0.930 . S
C2014 C2012 1.419 . S
C2014 C2015 1.362 . S
C2015 H2005 0.930 . S
C2015 C2008 1.409 . S
C2015 C2014 1.362 . S
H2016 C2022 0.930 . S
H2017 C2025 0.930 . S
H2018 C2026 0.930 . S
H2019 C2027 0.930 . S
H2020 C2030 0.930 . S
H2021 C2031 0.930 . S
C2022 H2016 0.930 . S
C2022 C2023 1.355 . S
C2022 C2024 1.415 . S
C2023 C2022 1.355 . S
C2023 C2025 1.419 . S
C2024 C2022 1.415 . S
C2024 C2029 1.425 . S
C2024 C2031 1.409 . S
C2025 H2017 0.930 . S
C2025 C2023 1.419 . S
C2025 C2026 1.362 . S
C2026 H2018 0.930 . S
C2026 C2025 1.362 . S
C2026 C2029 1.409 . S
C2027 H2019 0.930 . S
C2027 C2028 1.355 . S
C2027 C2029 1.415 . S
C2028 C2027 1.355 . S
C2028 C2030 1.419 . S
C2029 C2024 1.425 . S
C2029 C2026 1.409 . S
C2029 C2027 1.415 . S
C2030 H2020 0.930 . S
C2030 C2028 1.419 . S
C2030 C2031 1.362 . S
C2031 H2021 0.930 . S
C2031 C2024 1.409 . S
C2031 C2030 1.362 . S
H2032 C2038 0.930 . S
H2033 C2041 0.930 . S
H2034 C2042 0.930 . S
H2035 C2043 0.930 . S
H2036 C2046 0.930 . S
H2037 C2047 0.930 . S
C2038 H2032 0.930 . S
C2038 C2039 1.355 . S
C2038 C2040 1.415 . S
C2039 C2038 1.355 . S
C2039 C2041 1.419 . S
C2040 C2038 1.415 . S
C2040 C2045 1.425 . S
C2040 C2047 1.409 . S
C2041 H2033 0.930 . S
C2041 C2039 1.419 . S
C2041 C2042 1.362 . S
C2042 H2034 0.930 . S
C2042 C2041 1.362 . S
C2042 C2045 1.409 . S
C2043 H2035 0.930 . S
C2043 C2044 1.355 . S
C2043 C2045 1.415 . S
C2044 C2043 1.355 . S
C2044 C2046 1.419 . S
C2045 C2040 1.425 . S
C2045 C2042 1.409 . S
C2045 C2043 1.415 . S
C2046 H2036 0.930 . S
C2046 C2044 1.419 . S
C2046 C2047 1.362 . S
C2047 H2037 0.930 . S
C2047 C2040 1.409 . S
C2047 C2046 1.362 . S
H2048 C2054 0.930 . S
H2049 C2057 0.930 . S
H2050 C2058 0.930 . S
H2051 C2059 0.930 . S
H2052 C2062 0.930 . S
H2053 C2063 0.930 . S
C2054 H2048 0.930 . S
C2054 C2055 1.355 . S
C2054 C2056 1.415 . S
C2055 C2054 1.355 . S
C2055 C2057 1.419 . S
C2056 C2054 1.415 . S
C2056 C2061 1.425 . S
C2056 C2063 1.409 . S
C2057 H2049 0.930 . S
C2057 C2055 1.419 . S
C2057 C2058 1.362 . S
C2058 H2050 0.930 . S
C2058 C2057 1.362 . S
C2058 C2061 1.409 . S
C2059 H2051 0.930 . S
C2059 C2060 1.355 . S
C2059 C2061 1.415 . S
C2060 C2059 1.355 . S
C2060 C2062 1.419 . S
C2061 C2056 1.425 . S
C2061 C2058 1.409 . S
C2061 C2059 1.415 . S
C2062 H2052 0.930 . S
C2062 C2060 1.419 . S
C2062 C2063 1.362 . S
C2063 H2053 0.930 . S
C2063 C2056 1.409 . S
C2063 C2062 1.362 . S
H2064 C2070 0.930 . S
H2065 C2073 0.930 . S
H2066 C2074 0.930 . S
H2067 C2075 0.930 . S
H2068 C2078 0.930 . S
H2069 C2079 0.930 . S
C2070 H2064 0.930 . S
C2070 C2071 1.355 . S
C2070 C2072 1.415 . S
C2071 C2070 1.355 . S
C2071 C2073 1.419 . S
C2072 C2070 1.415 . S
C2072 C2077 1.425 . S
C2072 C2079 1.409 . S
C2073 H2065 0.930 . S
C2073 C2071 1.419 . S
C2073 C2074 1.362 . S
C2074 H2066 0.930 . S
C2074 C2073 1.362 . S
C2074 C2077 1.409 . S
C2075 H2067 0.930 . S
C2075 C2076 1.355 . S
C2075 C2077 1.415 . S
C2076 C2075 1.355 . S
C2076 C2078 1.419 . S
C2077 C2072 1.425 . S
C2077 C2074 1.409 . S
C2077 C2075 1.415 . S
C2078 H2068 0.930 . S
C2078 C2076 1.419 . S
C2078 C2079 1.362 . S
C2079 H2069 0.930 . S
C2079 C2072 1.409 . S
C2079 C2078 1.362 . S
H2080 C2086 0.930 . S
H2081 C2089 0.930 . S
H2082 C2090 0.930 . S
H2083 C2091 0.930 . S
H2084 C2094 0.971 . S
H2085 C2095 0.930 1_545 S
C2086 H2080 0.930 . S
C2086 C2087 1.355 . S
C2086 C2088 1.415 . S
C2087 C2086 1.355 . S
C2087 C2089 1.419 . S
C2088 C2086 1.415 . S
C2088 C2093 1.425 . S
C2088 C2095 1.409 . S
C2089 H2081 0.930 . S
C2089 C2087 1.419 . S
C2089 C2090 1.362 . S
C2090 H2082 0.930 . S
C2090 C2089 1.362 . S
C2090 C2093 1.409 . S
C2091 H2083 0.930 . S
C2091 C2092 1.355 . S
C2091 C2093 1.415 . S
C2092 C2091 1.355 . S
C2092 C2094 1.388 1_565 S
C2093 C2088 1.425 . S
C2093 C2090 1.409 . S
C2093 C2091 1.415 . S
C2094 H2084 0.971 . S
C2094 C2092 1.388 1_545 S
C2094 C2095 1.354 1_545 S
C2095 H2085 0.930 1_565 S
C2095 C2088 1.409 . S
C2095 C2094 1.354 1_565 S
H2096 C2102 0.930 . S
H2097 C2105 0.930 . S
H2098 C2106 0.930 . S
H2099 C2107 0.930 . S
H2100 C2110 0.930 . S
H2101 C2111 0.930 . S
C2102 H2096 0.930 . S
C2102 C2103 1.355 . S
C2102 C2104 1.415 . S
C2103 C2102 1.355 . S
C2103 C2105 1.419 . S
C2104 C2102 1.415 . S
C2104 C2109 1.425 . S
C2104 C2111 1.409 . S
C2105 H2097 0.930 . S
C2105 C2103 1.419 . S
C2105 C2106 1.362 . S
C2106 H2098 0.930 . S
C2106 C2105 1.362 . S
C2106 C2109 1.409 . S
C2107 H2099 0.930 . S
C2107 C2108 1.355 . S
C2107 C2109 1.415 . S
C2108 C2107 1.355 . S
C2108 C2110 1.419 . S
C2109 C2104 1.425 . S
C2109 C2106 1.409 . S
C2109 C2107 1.415 . S
C2110 H2100 0.930 . S
C2110 C2108 1.419 . S
C2110 C2111 1.362 . S
C2111 H2101 0.930 . S
C2111 C2104 1.409 . S
C2111 C2110 1.362 . S
H2112 C2118 0.930 . S
H2113 C2121 0.930 . S
H2114 C2122 0.930 . S
H2115 C2123 0.930 . S
H2116 C2126 0.930 1_556 S
H2117 C2127 0.930 1_556 S
C2118 H2112 0.930 . S
C2118 C2119 1.355 . S
C2118 C2120 1.415 . S
C2119 C2118 1.355 . S
C2119 C2121 1.419 . S
C2120 C2118 1.415 . S
C2120 C2125 1.425 . S
C2120 C2127 1.409 . S
C2121 H2113 0.930 . S
C2121 C2119 1.419 . S
C2121 C2122 1.362 . S
C2122 H2114 0.930 . S
C2122 C2121 1.362 . S
C2122 C2125 1.409 . S
C2123 H2115 0.930 . S
C2123 C2124 1.355 . S
C2123 C2125 1.415 . S
C2124 C2123 1.355 . S
C2124 C2126 1.419 . S
C2125 C2120 1.425 . S
C2125 C2122 1.409 . S
C2125 C2123 1.415 . S
C2126 H2116 0.930 1_554 S
C2126 C2124 1.419 . S
C2126 C2127 1.362 . S
C2127 H2117 0.930 1_554 S
C2127 C2120 1.409 . S
C2127 C2126 1.362 . S
H2128 C2134 0.930 . S
H2129 C2137 0.930 . S
H2130 C2138 0.930 . S
H2131 C2139 0.930 . S
H2132 C2142 0.930 . S
H2133 C2143 0.930 . S
C2134 H2128 0.930 . S
C2134 C2135 1.355 . S
C2134 C2136 1.415 . S
C2135 C2134 1.355 . S
C2135 C2137 1.419 . S
C2136 C2134 1.415 . S
C2136 C2141 1.425 . S
C2136 C2143 1.409 . S
C2137 H2129 0.930 . S
C2137 C2135 1.419 . S
C2137 C2138 1.362 . S
C2138 H2130 0.930 . S
C2138 C2137 1.362 . S
C2138 C2141 1.409 . S
C2139 H2131 0.930 . S
C2139 C2140 1.355 . S
C2139 C2141 1.415 . S
C2140 C2139 1.355 . S
C2140 C2142 1.419 . S
C2141 C2136 1.425 . S
C2141 C2138 1.409 . S
C2141 C2139 1.415 . S
C2142 H2132 0.930 . S
C2142 C2140 1.419 . S
C2142 C2143 1.362 . S
C2143 H2133 0.930 . S
C2143 C2136 1.409 . S
C2143 C2142 1.362 . S
H2144 C2150 0.930 . S
H2145 C2153 0.930 . S
H2146 C2154 0.930 . S
H2147 C2155 0.930 . S
H2148 C2158 0.930 . S
H2149 C2159 0.930 . S
C2150 H2144 0.930 . S
C2150 C2151 1.355 . S
C2150 C2152 1.415 . S
C2151 C2150 1.355 . S
C2151 C2153 1.419 . S
C2152 C2150 1.415 . S
C2152 C2157 1.425 . S
C2152 C2159 1.409 1_554 S
C2153 H2145 0.930 . S
C2153 C2151 1.419 . S
C2153 C2154 1.362 . S
C2154 H2146 0.930 . S
C2154 C2153 1.362 . S
C2154 C2157 1.409 . S
C2155 H2147 0.930 . S
C2155 C2156 1.355 . S
C2155 C2157 1.415 . S
C2156 C2155 1.355 . S
C2156 C2158 1.419 1_554 S
C2157 C2152 1.425 . S
C2157 C2154 1.409 . S
C2157 C2155 1.415 . S
C2158 H2148 0.930 . S
C2158 C2156 1.419 1_556 S
C2158 C2159 1.362 . S
C2159 H2149 0.930 . S
C2159 C2152 1.409 1_556 S
C2159 C2158 1.362 . S
H2160 C2166 0.930 . S
H2161 C2169 0.930 . S
H2162 C2170 0.930 . S
H2163 C2171 0.930 . S
H2164 C2174 0.930 . S
H2165 C2175 0.930 . S
C2166 H2160 0.930 . S
C2166 C2167 1.355 . S
C2166 C2168 1.415 . S
C2167 C2166 1.355 . S
C2167 C2169 1.419 . S
C2168 C2166 1.415 . S
C2168 C2173 1.425 . S
C2168 C2175 1.409 . S
C2169 H2161 0.930 . S
C2169 C2167 1.419 . S
C2169 C2170 1.362 . S
C2170 H2162 0.930 . S
C2170 C2169 1.362 . S
C2170 C2173 1.409 . S
C2171 H2163 0.930 . S
C2171 C2172 1.355 . S
C2171 C2173 1.415 . S
C2172 C2171 1.355 . S
C2172 C2174 1.419 . S
C2173 C2168 1.425 . S
C2173 C2170 1.409 . S
C2173 C2171 1.415 . S
C2174 H2164 0.930 . S
C2174 C2172 1.419 . S
C2174 C2175 1.362 . S
C2175 H2165 0.930 . S
C2175 C2168 1.409 . S
C2175 C2174 1.362 . S
H2176 C2182 0.930 . S
H2177 C2185 0.930 . S
H2178 C2186 0.930 . S
H2179 C2187 0.930 . S
H2180 C2190 0.930 . S
H2181 C2191 0.930 . S
C2182 H2176 0.930 . S
C2182 C2183 1.355 . S
C2182 C2184 1.415 . S
C2183 C2182 1.355 . S
C2183 C2185 1.419 . S
C2184 C2182 1.415 . S
C2184 C2189 1.425 . S
C2184 C2191 1.409 . S
C2185 H2177 0.930 . S
C2185 C2183 1.419 . S
C2185 C2186 1.362 . S
C2186 H2178 0.930 . S
C2186 C2185 1.362 . S
C2186 C2189 1.409 . S
C2187 H2179 0.930 . S
C2187 C2188 1.355 . S
C2187 C2189 1.415 . S
C2188 C2187 1.355 . S
C2188 C2190 1.419 . S
C2189 C2184 1.425 . S
C2189 C2186 1.409 . S
C2189 C2187 1.415 . S
C2190 H2180 0.930 . S
C2190 C2188 1.419 . S
C2190 C2191 1.362 . S
C2191 H2181 0.930 . S
C2191 C2184 1.409 . S
C2191 C2190 1.362 . S
C663 C109 1.411 1_455 S
C668 C340 1.176 . S
C679 C65 1.517 . S
C684 C375 1.487 . S
C695 C75 1.167 . S
C700 C380 1.085 . S
C716 C405 1.389 . S
C711 C84 1.456 . S
C727 C25 1.458 . S
C732 C425 1.408 . S
C748 C440 1.062 . S
C743 C28 1.143 . S
C764 C475 1.488 . S
C759 C47 1.547 . S
C775 C9 1.497 . S
C780 C480 1.288 . S
C796 C355 1.653 1_655 S
C791 C233 1.726 . S
C807 C249 1.018 . S
C812 C365 0.936 . S
C828 C395 1.434 . S
C823 C275 1.504 . S
C844 C400 1.123 . S
C839 C173 1.257 . S
C855 C224 1.296 . S
C860 C420 1.221 . S
C876 C455 1.463 . S
C871 C243 1.462 . S
C892 C465 1.011 . S
C887 C266 1.041 . S
C908 C495 1.484 . S
C903 C179 1.560 . S
C924 C345 1.389 . S
C919 C163 1.520 . S
C935 C289 1.757 . S
C940 C515 1.713 . S
C956 C525 1.446 . S
C951 C333 1.526 . S
C972 C540 0.985 . S
C967 C308 1.058 . S
C983 C123 1.496 . S
C988 C485 1.368 . S
C999 C126 1.596 . S
C1004 C385 1.529 . S
C1015 C327 1.788 . S
C1020 C575 1.763 . S
C1036 C580 1.146 . S
C1031 C299 1.192 . S
C1052 C338 1.194 . S
C1047 C67 1.436 . S
C1068 C594 1.516 . S
C1063 C98 1.528 . S
C1079 C89 1.175 . S
C1084 C378 1.024 . S
C1095 C79 1.501 . S
C1100 C568 1.465 . S
C1116 C428 1.341 . S
C1111 C11 1.461 . S
C1127 C51 1.156 . S
C1132 C518 1.127 . S
C1148 C474 1.571 1_556 S
C1143 C33 1.571 . S
C1164 C598 1.204 . S
C1159 C14 1.437 . S
C1180 C354 1.599 . S
C1175 C140 1.700 . S
C1196 C588 0.934 . S
C1191 C319 1.043 . S
C1207 C112 1.483 . S
C1212 C394 1.503 . S
C1223 C285 1.263 . S
C1228 C558 1.094 . S
C1239 C149 1.311 . S
C1244 C418 1.223 . S
C1260 C534 1.436 . S
C1255 C313 1.511 . S
C1271 C121 1.113 . S
C1276 C468 1.072 . S
C1287 C291 1.621 . S
C1292 C614 1.547 . S
C1303 C182 1.522 . S
C1308 C348 1.391 . S
C1319 C168 1.740 . S
C1324 C514 1.722 . S
C1335 C263 1.566 . S
C1340 C448 1.467 . S
C1351 C247 1.118 . S
C1356 C538 1.099 . S
C1372 C608 1.277 . S
C1367 C277 1.463 . S
C1383 C219 1.643 . S
C1388 C388 1.531 . S
C1404 C414 1.808 . S
C1399 C257 1.819 . S
C1420 C358 1.141 . S
C1415 C201 1.189 . S
C1431 C81 1.418 . S
C1436 C620 1.191 . S
C1452 C595 1.506 . S
C1447 C93 1.514 . S
C1463 C103 1.181 . S
C1468 C640 1.129 . S
C1479 C56 1.463 . S
C1484 C565 1.411 . S
C1495 C53 1.452 . S
C1500 C505 1.383 . S
C1516 C520 0.961 . S
C1511 C0 1.100 . S
C1532 C555 1.533 . S
C1527 C19 1.535 . S
C1548 C600 1.326 . S
C1543 C37 1.507 . S
C1564 C635 1.599 . S
C1559 C261 1.707 . S
C1575 C193 1.086 . S
C1580 C585 1.068 . S
C1596 C655 1.431 . S
C1591 C205 1.506 . S
C1612 C560 1.099 . S
C1607 C215 1.252 . S
C1628 C500 1.163 . S
C1623 C252 1.275 . S
C1639 C187 1.456 . S
C1644 C535 1.460 . S
C1660 C545 0.985 . S
C1655 C196 1.064 . S
C1671 C221 1.598 . S
C1676 C615 1.557 . S
C1692 C625 1.295 . S
C1687 C317 1.498 . S
C1703 C135 1.749 . S
C1708 C435 1.731 . S
C1724 C445 1.466 . S
C1719 C151 1.541 . S
C1740 C460 1.052 . S
C1735 C154 1.098 . S
C1756 C605 1.273 . S
C1751 C305 1.453 . S
C1767 C280 1.605 . S
C1772 C645 1.533 . S
C1788 C415 1.735 . S
C1783 C145 1.794 . S
C1804 C360 1.144 . S
C1799 C117 1.191 . S
C1815 C95 1.440 . S
C1820 C618 1.204 . S
C1836 C374 1.472 . S
C1831 C70 1.519 . S
C1847 C61 1.169 . S
C1852 C638 1.004 . S
C1863 C107 1.501 . S
C1868 C408 1.464 . S
C1879 C39 1.460 . S
C1884 C508 1.338 . S
C1900 C438 1.130 . S
C1895 C23 1.155 . S
C1911 C5 1.592 . S
C1916 C554 1.519 . S
C1927 C42 1.481 . S
C1932 C478 1.334 . S
C1948 C634 1.616 . S
C1943 C322 1.702 . S
C1959 C165 1.072 . S
C1964 C368 1.004 . S
C1980 C654 1.495 1_655 S
C1975 C294 1.497 . S
C1991 C131 1.279 . S
C1996 C398 1.168 . S
C2007 C331 1.319 . S
C2012 C498 1.144 . S
C2028 C454 1.489 . S
C2023 C159 1.488 . S
C2039 C303 1.135 . S
C2044 C548 1.064 . S
C2060 C494 1.550 . S
C2055 C137 1.621 . S
C2076 C628 1.294 . S
C2071 C238 1.478 . S
C2092 C434 1.752 . S
C2087 C210 1.744 . S
C2103 C235 1.573 . S
C2108 C528 1.491 . S
C2124 C458 1.051 . S
C2119 C191 1.121 . S
C2135 C207 1.462 . S
C2140 C488 1.291 . S
C2151 C177 1.642 . S
C2156 C648 1.525 . S
C2172 C574 1.807 . S
C2167 C229 1.809 . S
C2188 C578 1.012 . S
C2183 C271 1.157 . S
