# Generated by pormake.
# Topology iac, (4,6)-cn, num edge types: 1
# Building blocks:
#     Node 0, Type 0, BuildingBlock: QUQFOY_clean_sbu_1, # of connection points: 4
#     Node 1, Type 0, BuildingBlock: QUQFOY_clean_sbu_1, # of connection points: 4
#     Node 2, Type 0, BuildingBlock: QUQFOY_clean_sbu_1, # of connection points: 4
#     Node 3, Type 0, BuildingBlock: QUQFOY_clean_sbu_1, # of connection points: 4
#     Node 4, Type 0, BuildingBlock: QUQFOY_clean_sbu_1, # of connection points: 4
#     Node 5, Type 0, BuildingBlock: QUQFOY_clean_sbu_1, # of connection points: 4
#     Node 6, Type 0, BuildingBlock: QUQFOY_clean_sbu_1, # of connection points: 4
#     Node 7, Type 0, BuildingBlock: QUQFOY_clean_sbu_1, # of connection points: 4
#     Node 8, Type 0, BuildingBlock: QUQFOY_clean_sbu_1, # of connection points: 4
#     Node 9, Type 0, BuildingBlock: QUQFOY_clean_sbu_1, # of connection points: 4
#     Node 10, Type 0, BuildingBlock: QUQFOY_clean_sbu_1, # of connection points: 4
#     Node 11, Type 0, BuildingBlock: QUQFOY_clean_sbu_1, # of connection points: 4
#     Node 12, Type 0, BuildingBlock: QUQFOY_clean_sbu_1, # of connection points: 4
#     Node 13, Type 0, BuildingBlock: QUQFOY_clean_sbu_1, # of connection points: 4
#     Node 14, Type 0, BuildingBlock: QUQFOY_clean_sbu_1, # of connection points: 4
#     Node 15, Type 0, BuildingBlock: QUQFOY_clean_sbu_1, # of connection points: 4
#     Node 16, Type 0, BuildingBlock: QUQFOY_clean_sbu_1, # of connection points: 4
#     Node 17, Type 0, BuildingBlock: QUQFOY_clean_sbu_1, # of connection points: 4
#     Node 18, Type 0, BuildingBlock: QUQFOY_clean_sbu_1, # of connection points: 4
#     Node 19, Type 0, BuildingBlock: QUQFOY_clean_sbu_1, # of connection points: 4
#     Node 20, Type 0, BuildingBlock: QUQFOY_clean_sbu_1, # of connection points: 4
#     Node 21, Type 0, BuildingBlock: QUQFOY_clean_sbu_1, # of connection points: 4
#     Node 22, Type 0, BuildingBlock: QUQFOY_clean_sbu_1, # of connection points: 4
#     Node 23, Type 0, BuildingBlock: QUQFOY_clean_sbu_1, # of connection points: 4
#     Node 24, Type 1, BuildingBlock: FUNLAD_clean_sbu_0, # of connection points: 6
#     Node 25, Type 1, BuildingBlock: FUNLAD_clean_sbu_0, # of connection points: 6
#     Node 26, Type 1, BuildingBlock: FUNLAD_clean_sbu_0, # of connection points: 6
#     Node 27, Type 1, BuildingBlock: FUNLAD_clean_sbu_0, # of connection points: 6
#     Node 28, Type 1, BuildingBlock: FUNLAD_clean_sbu_0, # of connection points: 6
#     Node 29, Type 1, BuildingBlock: FUNLAD_clean_sbu_0, # of connection points: 6
#     Node 30, Type 1, BuildingBlock: FUNLAD_clean_sbu_0, # of connection points: 6
#     Node 31, Type 1, BuildingBlock: FUNLAD_clean_sbu_0, # of connection points: 6
#     Node 32, Type 1, BuildingBlock: FUNLAD_clean_sbu_0, # of connection points: 6
#     Node 33, Type 1, BuildingBlock: FUNLAD_clean_sbu_0, # of connection points: 6
#     Node 34, Type 1, BuildingBlock: FUNLAD_clean_sbu_0, # of connection points: 6
#     Node 35, Type 1, BuildingBlock: FUNLAD_clean_sbu_0, # of connection points: 6
#     Node 36, Type 1, BuildingBlock: FUNLAD_clean_sbu_0, # of connection points: 6
#     Node 37, Type 1, BuildingBlock: FUNLAD_clean_sbu_0, # of connection points: 6
#     Node 38, Type 1, BuildingBlock: FUNLAD_clean_sbu_0, # of connection points: 6
#     Node 39, Type 1, BuildingBlock: FUNLAD_clean_sbu_0, # of connection points: 6
#     Edge 40, Type (0, 1), BuildingBlock: CIFDUS_clean_linker_0, # of connection points: 2
#     Edge 41, Type (0, 1), BuildingBlock: CIFDUS_clean_linker_0, # of connection points: 2
#     Edge 42, Type (0, 1), BuildingBlock: CIFDUS_clean_linker_0, # of connection points: 2
#     Edge 43, Type (0, 1), BuildingBlock: CIFDUS_clean_linker_0, # of connection points: 2
#     Edge 44, Type (0, 1), BuildingBlock: CIFDUS_clean_linker_0, # of connection points: 2
#     Edge 45, Type (0, 1), BuildingBlock: CIFDUS_clean_linker_0, # of connection points: 2
#     Edge 46, Type (0, 1), BuildingBlock: CIFDUS_clean_linker_0, # of connection points: 2
#     Edge 47, Type (0, 1), BuildingBlock: CIFDUS_clean_linker_0, # of connection points: 2
#     Edge 48, Type (0, 1), BuildingBlock: CIFDUS_clean_linker_0, # of connection points: 2
#     Edge 49, Type (0, 1), BuildingBlock: CIFDUS_clean_linker_0, # of connection points: 2
#     Edge 50, Type (0, 1), BuildingBlock: CIFDUS_clean_linker_0, # of connection points: 2
#     Edge 51, Type (0, 1), BuildingBlock: CIFDUS_clean_linker_0, # of connection points: 2
#     Edge 52, Type (0, 1), BuildingBlock: CIFDUS_clean_linker_0, # of connection points: 2
#     Edge 53, Type (0, 1), BuildingBlock: CIFDUS_clean_linker_0, # of connection points: 2
#     Edge 54, Type (0, 1), BuildingBlock: CIFDUS_clean_linker_0, # of connection points: 2
#     Edge 55, Type (0, 1), BuildingBlock: CIFDUS_clean_linker_0, # of connection points: 2
#     Edge 56, Type (0, 1), BuildingBlock: CIFDUS_clean_linker_0, # of connection points: 2
#     Edge 57, Type (0, 1), BuildingBlock: CIFDUS_clean_linker_0, # of connection points: 2
#     Edge 58, Type (0, 1), BuildingBlock: CIFDUS_clean_linker_0, # of connection points: 2
#     Edge 59, Type (0, 1), BuildingBlock: CIFDUS_clean_linker_0, # of connection points: 2
#     Edge 60, Type (0, 1), BuildingBlock: CIFDUS_clean_linker_0, # of connection points: 2
#     Edge 61, Type (0, 1), BuildingBlock: CIFDUS_clean_linker_0, # of connection points: 2
#     Edge 62, Type (0, 1), BuildingBlock: CIFDUS_clean_linker_0, # of connection points: 2
#     Edge 63, Type (0, 1), BuildingBlock: CIFDUS_clean_linker_0, # of connection points: 2
#     Edge 64, Type (0, 1), BuildingBlock: CIFDUS_clean_linker_0, # of connection points: 2
#     Edge 65, Type (0, 1), BuildingBlock: CIFDUS_clean_linker_0, # of connection points: 2
#     Edge 66, Type (0, 1), BuildingBlock: CIFDUS_clean_linker_0, # of connection points: 2
#     Edge 67, Type (0, 1), BuildingBlock: CIFDUS_clean_linker_0, # of connection points: 2
#     Edge 68, Type (0, 1), BuildingBlock: CIFDUS_clean_linker_0, # of connection points: 2
#     Edge 69, Type (0, 1), BuildingBlock: CIFDUS_clean_linker_0, # of connection points: 2
#     Edge 70, Type (0, 1), BuildingBlock: CIFDUS_clean_linker_0, # of connection points: 2
#     Edge 71, Type (0, 1), BuildingBlock: CIFDUS_clean_linker_0, # of connection points: 2
#     Edge 72, Type (0, 1), BuildingBlock: CIFDUS_clean_linker_0, # of connection points: 2
#     Edge 73, Type (0, 1), BuildingBlock: CIFDUS_clean_linker_0, # of connection points: 2
#     Edge 74, Type (0, 1), BuildingBlock: CIFDUS_clean_linker_0, # of connection points: 2
#     Edge 75, Type (0, 1), BuildingBlock: CIFDUS_clean_linker_0, # of connection points: 2
#     Edge 76, Type (0, 1), BuildingBlock: CIFDUS_clean_linker_0, # of connection points: 2
#     Edge 77, Type (0, 1), BuildingBlock: CIFDUS_clean_linker_0, # of connection points: 2
#     Edge 78, Type (0, 1), BuildingBlock: CIFDUS_clean_linker_0, # of connection points: 2
#     Edge 79, Type (0, 1), BuildingBlock: CIFDUS_clean_linker_0, # of connection points: 2
#     Edge 80, Type (0, 1), BuildingBlock: CIFDUS_clean_linker_0, # of connection points: 2
#     Edge 81, Type (0, 1), BuildingBlock: CIFDUS_clean_linker_0, # of connection points: 2
#     Edge 82, Type (0, 1), BuildingBlock: CIFDUS_clean_linker_0, # of connection points: 2
#     Edge 83, Type (0, 1), BuildingBlock: CIFDUS_clean_linker_0, # of connection points: 2
#     Edge 84, Type (0, 1), BuildingBlock: CIFDUS_clean_linker_0, # of connection points: 2
#     Edge 85, Type (0, 1), BuildingBlock: CIFDUS_clean_linker_0, # of connection points: 2
#     Edge 86, Type (0, 1), BuildingBlock: CIFDUS_clean_linker_0, # of connection points: 2
#     Edge 87, Type (0, 1), BuildingBlock: CIFDUS_clean_linker_0, # of connection points: 2
#     Edge 88, Type (0, 1), BuildingBlock: CIFDUS_clean_linker_0, # of connection points: 2
#     Edge 89, Type (0, 1), BuildingBlock: CIFDUS_clean_linker_0, # of connection points: 2
#     Edge 90, Type (0, 1), BuildingBlock: CIFDUS_clean_linker_0, # of connection points: 2
#     Edge 91, Type (0, 1), BuildingBlock: CIFDUS_clean_linker_0, # of connection points: 2
#     Edge 92, Type (0, 1), BuildingBlock: CIFDUS_clean_linker_0, # of connection points: 2
#     Edge 93, Type (0, 1), BuildingBlock: CIFDUS_clean_linker_0, # of connection points: 2
#     Edge 94, Type (0, 1), BuildingBlock: CIFDUS_clean_linker_0, # of connection points: 2
#     Edge 95, Type (0, 1), BuildingBlock: CIFDUS_clean_linker_0, # of connection points: 2
#     Edge 96, Type (0, 1), BuildingBlock: CIFDUS_clean_linker_0, # of connection points: 2
#     Edge 97, Type (0, 1), BuildingBlock: CIFDUS_clean_linker_0, # of connection points: 2
#     Edge 98, Type (0, 1), BuildingBlock: CIFDUS_clean_linker_0, # of connection points: 2
#     Edge 99, Type (0, 1), BuildingBlock: CIFDUS_clean_linker_0, # of connection points: 2
#     Edge 100, Type (0, 1), BuildingBlock: CIFDUS_clean_linker_0, # of connection points: 2
#     Edge 101, Type (0, 1), BuildingBlock: CIFDUS_clean_linker_0, # of connection points: 2
#     Edge 102, Type (0, 1), BuildingBlock: CIFDUS_clean_linker_0, # of connection points: 2
#     Edge 103, Type (0, 1), BuildingBlock: CIFDUS_clean_linker_0, # of connection points: 2
#     Edge 104, Type (0, 1), BuildingBlock: CIFDUS_clean_linker_0, # of connection points: 2
#     Edge 105, Type (0, 1), BuildingBlock: CIFDUS_clean_linker_0, # of connection points: 2
#     Edge 106, Type (0, 1), BuildingBlock: CIFDUS_clean_linker_0, # of connection points: 2
#     Edge 107, Type (0, 1), BuildingBlock: CIFDUS_clean_linker_0, # of connection points: 2
#     Edge 108, Type (0, 1), BuildingBlock: CIFDUS_clean_linker_0, # of connection points: 2
#     Edge 109, Type (0, 1), BuildingBlock: CIFDUS_clean_linker_0, # of connection points: 2
#     Edge 110, Type (0, 1), BuildingBlock: CIFDUS_clean_linker_0, # of connection points: 2
#     Edge 111, Type (0, 1), BuildingBlock: CIFDUS_clean_linker_0, # of connection points: 2
#     Edge 112, Type (0, 1), BuildingBlock: CIFDUS_clean_linker_0, # of connection points: 2
#     Edge 113, Type (0, 1), BuildingBlock: CIFDUS_clean_linker_0, # of connection points: 2
#     Edge 114, Type (0, 1), BuildingBlock: CIFDUS_clean_linker_0, # of connection points: 2
#     Edge 115, Type (0, 1), BuildingBlock: CIFDUS_clean_linker_0, # of connection points: 2
#     Edge 116, Type (0, 1), BuildingBlock: CIFDUS_clean_linker_0, # of connection points: 2
#     Edge 117, Type (0, 1), BuildingBlock: CIFDUS_clean_linker_0, # of connection points: 2
#     Edge 118, Type (0, 1), BuildingBlock: CIFDUS_clean_linker_0, # of connection points: 2
#     Edge 119, Type (0, 1), BuildingBlock: CIFDUS_clean_linker_0, # of connection points: 2
#     Edge 120, Type (0, 1), BuildingBlock: CIFDUS_clean_linker_0, # of connection points: 2
#     Edge 121, Type (0, 1), BuildingBlock: CIFDUS_clean_linker_0, # of connection points: 2
#     Edge 122, Type (0, 1), BuildingBlock: CIFDUS_clean_linker_0, # of connection points: 2
#     Edge 123, Type (0, 1), BuildingBlock: CIFDUS_clean_linker_0, # of connection points: 2
#     Edge 124, Type (0, 1), BuildingBlock: CIFDUS_clean_linker_0, # of connection points: 2
#     Edge 125, Type (0, 1), BuildingBlock: CIFDUS_clean_linker_0, # of connection points: 2
#     Edge 126, Type (0, 1), BuildingBlock: CIFDUS_clean_linker_0, # of connection points: 2
#     Edge 127, Type (0, 1), BuildingBlock: CIFDUS_clean_linker_0, # of connection points: 2
#     Edge 128, Type (0, 1), BuildingBlock: CIFDUS_clean_linker_0, # of connection points: 2
#     Edge 129, Type (0, 1), BuildingBlock: CIFDUS_clean_linker_0, # of connection points: 2
#     Edge 130, Type (0, 1), BuildingBlock: CIFDUS_clean_linker_0, # of connection points: 2
#     Edge 131, Type (0, 1), BuildingBlock: CIFDUS_clean_linker_0, # of connection points: 2
#     Edge 132, Type (0, 1), BuildingBlock: CIFDUS_clean_linker_0, # of connection points: 2
#     Edge 133, Type (0, 1), BuildingBlock: CIFDUS_clean_linker_0, # of connection points: 2
#     Edge 134, Type (0, 1), BuildingBlock: CIFDUS_clean_linker_0, # of connection points: 2
#     Edge 135, Type (0, 1), BuildingBlock: CIFDUS_clean_linker_0, # of connection points: 2
# Relax obj value: 0.369
# Max RMSD: 0.272
# Mean RMSD: 0.188
data_MOF--net-iac--node1-QUQFOY_clean_sbu_1--node2-FUNLAD_clean_sbu_0--edge1-CIFDUS_clean_linker_0
_symmetry_space_group_name_H-M    P1
_symmetry_Int_Tables_number       1
_symmetry_cell_setting            triclinic
loop_
_symmetry_equiv_pos_as_xyz
'x, y, z'
_cell_length_a     49.231234
_cell_length_b     47.503436
_cell_length_c     53.988706
_cell_angle_alpha  90.790379
_cell_angle_beta   92.497138
_cell_angle_gamma 93.398472
loop_
_atom_site_label
_atom_site_type_symbol
_atom_site_fract_x
_atom_site_fract_y
_atom_site_fract_z
_atom_type_partial_charge
O0 O 0.10612 0.181 0.15535 0.0
Cd1 Cd 0.09944 0.21537 0.17793 0.0
Cd2 Cd 0.11935 0.24351 0.13986 0.0
O3 O 0.11338 0.20574 0.12178 0.0
O4 O 0.07616 0.20128 0.20504 0.0
O5 O 0.06222 0.23066 0.17633 0.0
C6 C 0.05718 0.21611 0.19583 0.0
C7 C 0.10018 0.28247 0.12333 0.0
C8 C 0.10991 0.18217 0.13222 0.0
C9 C 0.15283 0.24922 0.18548 0.0
O10 O 0.15365 0.25089 0.16214 0.0
O11 O 0.13201 0.23801 0.19544 0.0
O12 O 0.12113 0.27214 0.11388 0.0
O13 O 0.08972 0.27021 0.14222 0.0
O14 O 0.09893 0.76854 0.39486 0.0
Cd15 Cd 0.06614 0.76842 0.41845 0.0
Cd16 Cd 0.0432 0.79334 0.37153 0.0
O17 O 0.08142 0.78193 0.35871 0.0
O18 O 0.07909 0.74772 0.44885 0.0
O19 O 0.0445 0.73132 0.42465 0.0
C20 C 0.06035 0.72809 0.44398 0.0
C21 C 1.00125 0.7846 0.34763 0.0
C22 C 0.10156 0.77355 0.37186 0.0
C23 C 0.04684 0.82858 0.42048 0.0
O24 O 0.0431 0.82736 0.3969 0.0
O25 O 0.05432 0.8071 0.43232 0.0
O26 O 0.01929 0.80391 0.34184 0.0
O27 O 0.00734 0.76926 0.36643 0.0
O28 O 0.52661 0.65756 0.66608 0.0
Cd29 Cd 0.54993 0.6849 0.68887 0.0
Cd30 Cd 0.53873 0.72416 0.65305 0.0
O31 O 0.51341 0.69044 0.6405 0.0
O32 O 0.54127 0.67891 0.72408 0.0
O33 O 0.53052 0.71642 0.70229 0.0
C34 C 0.52943 0.70247 0.72264 0.0
C35 C 0.52617 0.76922 0.64357 0.0
C36 C 0.51213 0.66502 0.64756 0.0
C37 C 0.5977 0.71092 0.66576 0.0
O38 O 0.58042 0.72349 0.65254 0.0
O39 O 0.59013 0.69373 0.68226 0.0
O40 O 0.53177 0.75153 0.62659 0.0
O41 O 0.52603 0.76089 0.66621 0.0
O42 O 0.60526 0.26743 0.89308 0.0
Cd43 Cd 0.57222 0.26675 0.91648 0.0
Cd44 Cd 0.54879 0.2895 0.87099 0.0
O45 O 0.58555 0.27693 0.85678 0.0
O46 O 0.5819 0.24155 0.94524 0.0
O47 O 0.54864 0.23026 0.91764 0.0
C48 C 0.56295 0.22345 0.93706 0.0
C49 C 0.50577 0.28287 0.84933 0.0
C50 C 0.6066 0.27048 0.86967 0.0
C51 C 0.55352 0.3266 0.91821 0.0
O52 O 0.55067 0.32454 0.89467 0.0
O53 O 0.55995 0.3053 0.9309 0.0
O54 O 0.52455 0.30049 0.84197 0.0
O55 O 0.51186 0.2676 0.86817 0.0
O56 O 0.16135 0.99515 0.21784 0.0
Cd57 Cd 0.18756 0.00293 0.24843 0.0
Cd58 Cd 0.14343 0.02692 0.26421 0.0
O59 O 0.1237 0.01023 0.23263 0.0
O60 O 0.21833 0.979 0.24251 0.0
O61 O 0.19173 0.97338 0.27433 0.0
C62 C 0.21214 0.96553 0.26223 0.0
C63 C 0.12722 0.02146 0.30348 0.0
C64 C 0.13601 0.9988 0.21531 0.0
C65 C 0.19318 0.06464 0.25989 0.0
O66 O 0.16757 0.06316 0.26183 0.0
O67 O 0.20556 0.04257 0.25543 0.0
O68 O 0.1158 0.0375 0.28754 0.0
O69 O 0.14674 0.00663 0.29634 0.0
O70 O 0.27878 0.90671 0.61032 0.0
Cd71 Cd 0.2813 0.9313 0.5785 0.0
Cd72 Cd 0.29847 0.88246 0.56143 0.0
O73 O 0.28507 0.86514 0.59352 0.0
O74 O 0.25533 0.96182 0.58315 0.0
O75 O 0.24931 0.92874 0.55382 0.0
C76 C 0.24048 0.95041 0.56499 0.0
C77 C 0.29035 0.86144 0.52253 0.0
C78 C 0.27964 0.88005 0.61215 0.0
C79 C 0.33912 0.93169 0.5637 0.0
O80 O 0.33504 0.90508 0.5637 0.0
O81 O 0.3195 0.94745 0.56718 0.0
O82 O 0.30604 0.85062 0.5391 0.0
O83 O 0.27745 0.88318 0.52877 0.0
O84 O 0.41842 0.04061 0.6941 0.0
Cd85 Cd 0.3881 0.03947 0.71997 0.0
Cd86 Cd 0.43072 0.016 0.75 0.0
O87 O 0.45053 0.02205 0.7174 0.0
O88 O 0.36103 0.06673 0.70882 0.0
O89 O 0.38521 0.07143 0.74439 0.0
C90 C 0.36679 0.08061 0.72927 0.0
C91 C 0.45678 0.019 0.78717 0.0
C92 C 0.44244 0.03224 0.69691 0.0
C93 C 0.37506 0.98369 0.7429 0.0
O94 O 0.39917 0.98613 0.75232 0.0
O95 O 0.36646 0.00214 0.72813 0.0
O96 O 0.45941 0.99917 0.77116 0.0
O97 O 0.44017 0.03823 0.78164 0.0
O98 O 0.33021 0.15857 0.09813 0.0
Cd99 Cd 0.31921 0.12864 0.07107 0.0
Cd100 Cd 0.2776 0.16439 0.06728 0.0
O101 O 0.29701 0.18766 0.09564 0.0
O102 O 0.34788 0.10257 0.07864 0.0
O103 O 0.34387 0.12375 0.0426 0.0
C104 C 0.35663 0.10688 0.05687 0.0
C105 C 0.27948 0.17992 0.02714 0.0
C106 C 0.31946 0.18066 0.10546 0.0
C107 C 0.26102 0.105 0.0756 0.0
O108 O 0.25269 0.12977 0.07513 0.0
O109 O 0.28599 0.10087 0.07332 0.0
O110 O 0.26066 0.18767 0.04129 0.0
O111 O 0.29724 0.16329 0.03597 0.0
O112 O 0.77456 0.39603 0.10275 0.0
Cd113 Cd 0.77467 0.42658 0.07542 0.0
Cd114 Cd 0.79647 0.38098 0.05029 0.0
O115 O 0.78791 0.35933 0.08198 0.0
O116 O 0.74997 0.45508 0.08781 0.0
O117 O 0.74096 0.42978 0.05336 0.0
C118 C 0.73372 0.44849 0.06897 0.0
C119 C 0.79007 0.35923 0.01145 0.0
C120 C 0.77971 0.37009 0.10176 0.0
C121 C 0.8305 0.4362 0.05553 0.0
O122 O 0.82887 0.40998 0.05048 0.0
O123 O 0.81069 0.44776 0.06512 0.0
O124 O 0.80864 0.35193 0.02721 0.0
O125 O 0.77364 0.37772 0.01844 0.0
O126 O 0.92774 0.52733 0.19112 0.0
Cd127 Cd 0.90045 0.51967 0.21911 0.0
Cd128 Cd 0.94571 0.50008 0.24103 0.0
O129 O 0.96524 0.51929 0.21299 0.0
O130 O 0.8698 0.54475 0.21252 0.0
O131 O 0.89781 0.54914 0.24578 0.0
C132 C 0.87733 0.55799 0.23293 0.0
C133 C 0.96544 0.50299 0.28069 0.0
C134 C 0.9536 0.52723 0.19313 0.0
C135 C 0.8999 0.458 0.23002 0.0
O136 O 0.92543 0.46206 0.23363 0.0
O137 O 0.88513 0.47869 0.22587 0.0
O138 O 0.97626 0.48943 0.26323 0.0
O139 O 0.94375 0.51612 0.27539 0.0
O140 O 0.84504 0.62321 0.5918 0.0
Cd141 Cd 0.81879 0.59505 0.57253 0.0
Cd142 Cd 0.81739 0.63528 0.5385 0.0
O143 O 0.84841 0.65329 0.56127 0.0
O144 O 0.83116 0.55684 0.5785 0.0
O145 O 0.83314 0.57872 0.54238 0.0
C146 C 0.83916 0.55762 0.556 0.0
C147 C 0.82081 0.64134 0.49629 0.0
C148 C 0.85584 0.64549 0.58278 0.0
C149 C 0.76525 0.61762 0.56338 0.0
O150 O 0.77769 0.63467 0.54923 0.0
O151 O 0.77783 0.59857 0.5745 0.0
O152 O 0.81681 0.66215 0.51088 0.0
O153 O 0.82361 0.61679 0.50557 0.0
O154 O 0.65537 0.49066 0.69466 0.0
Cd155 Cd 0.68229 0.49931 0.72463 0.0
Cd156 Cd 0.63757 0.52356 0.74232 0.0
O157 O 0.6182 0.50506 0.711 0.0
O158 O 0.71268 0.4741 0.72036 0.0
O159 O 0.68657 0.47214 0.75269 0.0
C160 C 0.70668 0.46269 0.74111 0.0
C161 C 0.61583 0.52388 0.77992 0.0
C162 C 0.62993 0.4941 0.69303 0.0
C163 C 0.6874 0.56142 0.73218 0.0
O164 O 0.66248 0.5592 0.7375 0.0
O165 O 0.70004 0.53959 0.72741 0.0
O166 O 0.60737 0.53808 0.76128 0.0
O167 O 0.63612 0.5083 0.77695 0.0
O168 O 0.01916 0.82582 0.84968 0.0
Cd169 Cd 0.99035 0.81915 0.87579 0.0
Cd170 Cd 0.97301 0.86591 0.85058 0.0
O171 O 0.00789 0.86473 0.83083 0.0
O172 O 0.00703 0.78918 0.89506 0.0
O173 O 0.9666 0.7828 0.87584 0.0
C174 C 0.98563 0.77301 0.88984 0.0
C175 C 0.93095 0.8459 0.83816 0.0
C176 C 0.02382 0.84483 0.83382 0.0
C177 C 0.98017 0.87352 0.90424 0.0
O178 O 0.97503 0.88617 0.8842 0.0
O179 O 0.98619 0.84792 0.90395 0.0
O180 O 0.93776 0.87169 0.83256 0.0
O181 O 0.94873 0.83123 0.84949 0.0
O182 O 0.03677 0.21701 0.65311 0.0
Cd183 Cd 0.03755 0.24818 0.68146 0.0
Cd184 Cd 0.06098 0.2816 0.64193 0.0
O185 O 0.05167 0.24364 0.6226 0.0
O186 O 0.01259 0.2348 0.70855 0.0
O187 O 0.00417 0.27152 0.68571 0.0
C188 C 0.99691 0.25493 0.70333 0.0
C189 C 0.05193 0.32494 0.62254 0.0
C190 C 0.04323 0.21965 0.63053 0.0
C191 C 0.0967 0.27194 0.68898 0.0
O192 O 0.09424 0.28197 0.66724 0.0
O193 O 0.07635 0.2589 0.69854 0.0
O194 O 0.07102 0.30969 0.61544 0.0
O195 O 0.03761 0.31556 0.64049 0.0
O196 O 0.52377 0.25817 0.36085 0.0
Cd197 Cd 0.51887 0.29997 0.35271 0.0
Cd198 Cd 0.53817 0.30476 0.40004 0.0
O199 O 0.55477 0.26782 0.39086 0.0
O200 O 0.53323 0.31309 0.32019 0.0
O201 O 0.552 0.32422 0.35733 0.0
C202 C 0.55285 0.32573 0.33362 0.0
C203 C 0.56227 0.33905 0.42481 0.0
C204 C 0.54128 0.24992 0.37676 0.0
C205 C 0.47826 0.30916 0.38795 0.0
O206 O 0.49654 0.30163 0.40339 0.0
O207 O 0.48412 0.31522 0.36587 0.0
O208 O 0.55315 0.31563 0.43401 0.0
O209 O 0.55859 0.34253 0.40136 0.0
O210 O 0.52833 0.71418 0.15097 0.0
Cd211 Cd 0.53126 0.74745 0.17724 0.0
Cd212 Cd 0.55601 0.77554 0.13416 0.0
O213 O 0.54494 0.73583 0.11827 0.0
O214 O 0.50454 0.73941 0.20484 0.0
O215 O 0.49967 0.77355 0.17821 0.0
C216 C 0.49035 0.75967 0.19678 0.0
C217 C 0.55036 0.8166 0.1096 0.0
C218 C 0.53503 0.71357 0.12834 0.0
C219 C 0.59201 0.76719 0.18174 0.0
O220 O 0.58934 0.77605 0.15958 0.0
O221 O 0.57134 0.7564 0.19261 0.0
O222 O 0.56852 0.79897 0.10517 0.0
O223 O 0.53511 0.81111 0.128 0.0
O224 O 0.91114 0.01621 0.76876 0.0
Cd225 Cd 0.89055 0.02191 0.80089 0.0
Cd226 Cd 0.93173 0.9906 0.8167 0.0
O227 O 0.94856 0.99763 0.78303 0.0
O228 O 0.86223 0.04726 0.78861 0.0
O229 O 0.89199 0.05972 0.819 0.0
C230 C 0.87173 0.06603 0.80458 0.0
C231 C 0.955 0.0024 0.8541 0.0
C232 C 0.93429 0.00675 0.76506 0.0
C233 C 0.8753 0.963 0.81383 0.0
O234 O 0.90072 0.95951 0.81538 0.0
O235 O 0.86665 0.98746 0.81121 0.0
O236 O 0.96067 0.98048 0.84134 0.0
O237 O 0.93621 0.01791 0.84532 0.0
O238 O 0.79984 0.14 0.53956 0.0
Cd239 Cd 0.79484 0.10817 0.51324 0.0
Cd240 Cd 0.77276 0.15456 0.48567 0.0
O241 O 0.78053 0.17458 0.51962 0.0
O242 O 0.81464 0.0772 0.52954 0.0
O243 O 0.8279 0.09692 0.49504 0.0
C244 C 0.83222 0.0793 0.51259 0.0
C245 C 0.77977 0.18196 0.44999 0.0
C246 C 0.79191 0.16494 0.53903 0.0
C247 C 0.73538 0.10279 0.49536 0.0
O248 O 0.73924 0.12632 0.48468 0.0
O249 O 0.75488 0.0917 0.50721 0.0
O250 O 0.75995 0.18566 0.46422 0.0
O251 O 0.79599 0.16251 0.45592 0.0
O252 O 0.67235 0.00281 0.27095 0.0
Cd253 Cd 0.7003 0.00017 0.30032 0.0
Cd254 Cd 0.65987 0.02596 0.32383 0.0
O255 O 0.63802 0.01866 0.29077 0.0
O256 O 0.7287 0.97904 0.28431 0.0
O257 O 0.70739 0.96289 0.3167 0.0
C258 C 0.72513 0.95942 0.30019 0.0
C259 C 0.63833 0.01296 0.36034 0.0
C260 C 0.64812 0.01065 0.2708 0.0
C261 C 0.71234 0.06025 0.31596 0.0
O262 O 0.68781 0.06047 0.32253 0.0
O263 O 0.72209 0.03743 0.30905 0.0
O264 O 0.63163 0.03464 0.34788 0.0
O265 O 0.65801 0.99886 0.35251 0.0
O266 O 0.77915 0.88362 0.03525 0.0
Cd267 Cd 0.76832 0.89845 0.0006 0.0
Cd268 Cd 0.79241 0.85251 0.98757 0.0
O269 O 0.79603 0.84357 0.02442 0.0
O270 O 0.74907 0.93217 0.0099 0.0
O271 O 0.72928 0.89681 0.98756 0.0
C272 C 0.72777 0.9212 0.99799 0.0
C273 C 0.76116 0.82861 0.96098 0.0
C274 C 0.78989 0.86083 0.04112 0.0
C275 C 0.81923 0.90613 0.97226 0.0
O276 O 0.82203 0.87982 0.97418 0.0
O277 O 0.79824 0.91691 0.98014 0.0
O278 O 0.78442 0.81838 0.96645 0.0
O279 O 0.7557 0.85226 0.97113 0.0
O280 O 0.29405 0.63493 0.046 0.0
Cd281 Cd 0.29166 0.60857 0.01524 0.0
Cd282 Cd 0.26631 0.65859 0.99624 0.0
O283 O 0.27743 0.67388 0.03128 0.0
O284 O 0.31287 0.57647 0.02768 0.0
O285 O 0.32576 0.60239 0.99632 0.0
C286 C 0.33062 0.58227 0.01142 0.0
C287 C 0.26928 0.69044 0.96327 0.0
C288 C 0.28754 0.66019 0.04915 0.0
C289 C 0.23191 0.60305 -0.00014 0.0
O290 O 0.2337 0.62918 0.99487 0.0
O291 O 0.25299 0.59034 0.00665 0.0
O292 O 0.25054 0.69147 0.97909 0.0
O293 O 0.28667 0.6713 0.96613 0.0
O294 O 0.17287 0.51881 0.76206 0.0
Cd295 Cd 0.1983 0.51998 0.79343 0.0
Cd296 Cd 0.15393 0.53906 0.81624 0.0
O297 O 0.13682 0.53108 0.78148 0.0
O298 O 0.22767 0.49398 0.78745 0.0
O299 O 0.19782 0.48707 0.81659 0.0
C300 C 0.21836 0.47854 0.80503 0.0
C301 C 0.12215 0.53287 0.84707 0.0
C302 C 0.14788 0.52416 0.76171 0.0
C303 C 0.20408 0.57905 0.81265 0.0
O304 O 0.18004 0.57456 0.81996 0.0
O305 O 0.21612 0.55939 0.80229 0.0
O306 O 0.12156 0.55338 0.83186 0.0
O307 O 0.14138 0.51575 0.84525 0.0
O308 O 0.24827 0.37129 0.55092 0.0
Cd309 Cd 0.24354 0.38839 0.51616 0.0
Cd310 Cd 0.23238 0.33492 0.50266 0.0
O311 O 0.2343 0.32784 0.53963 0.0
O312 O 0.23679 0.42929 0.51944 0.0
O313 O 0.20812 0.39708 0.50078 0.0
C314 C 0.2142 0.42304 0.50699 0.0
C315 C 0.19445 0.32013 0.47778 0.0
C316 C 0.24335 0.34555 0.55622 0.0
C317 C 0.28335 0.36225 0.48446 0.0
O318 O 0.27005 0.3388 0.487 0.0
O319 O 0.27508 0.38483 0.49349 0.0
O320 O 0.21101 0.30229 0.48656 0.0
O321 O 0.19902 0.34631 0.484 0.0
O322 O 0.39605 0.5056 0.24779 0.0
Cd323 Cd 0.37513 0.51488 0.2788 0.0
Cd324 Cd 0.42311 0.50474 0.30118 0.0
O325 O 0.43716 0.5098 0.26583 0.0
O326 O 0.34355 0.53562 0.2665 0.0
O327 O 0.37574 0.554 0.29298 0.0
C328 C 0.3534 0.55675 0.27997 0.0
C329 C 0.44772 0.5232 0.33614 0.0
C330 C 0.42176 0.50642 0.24638 0.0
C331 C 0.37516 0.46346 0.30784 0.0
O332 O 0.40093 0.46768 0.30844 0.0
O333 O 0.36005 0.48162 0.29852 0.0
O334 O 0.45671 0.50327 0.32296 0.0
O335 O 0.42531 0.53392 0.32873 0.0
C336 C 0.03689 0.00844 0.98472 0.0
N337 N 0.98794 0.02527 0.04395 0.0
C338 C 0.97621 0.03712 0.02363 0.0
C339 C 0.95164 0.02508 0.01339 0.0
C340 C 0.93888 0.00231 0.02548 0.0
C341 C 0.9479 0.99626 0.04974 0.0
C342 C 0.97288 0.0082 0.0588 0.0
Zn343 Zn 0.02634 0.01228 0.03961 0.0
C344 C 0.02226 0.94971 0.02842 0.0
N345 N 0.10296 0.97959 0.02667 0.0
C346 C 0.11917 0.99393 0.01079 0.0
C347 C 0.11355 0.9623 0.04404 0.0
C348 C 0.14162 0.96318 0.049 0.0
C349 C 0.15846 0.98114 0.0352 0.0
C350 C 0.14733 0.99455 0.01449 0.0
Zn351 Zn 0.06513 0.99338 0.03102 0.0
O352 O 0.02082 0.01655 0.0007 0.0
C353 C 0.06879 0.05633 0.04107 0.0
O354 O 0.059 0.99813 0.99203 0.0
H355 H 0.10026 0.95064 0.05617 0.0
H356 H 0.9881 0.05181 0.01271 0.0
H357 H 0.11041 0.00778 0.9973 0.0
O358 O 0.04324 0.05302 0.04312 0.0
O359 O 0.08255 0.03534 0.03602 0.0
H360 H 0.98217 0.99941 0.07521 0.0
O361 O 0.07037 0.98828 0.06951 0.0
O362 O 0.0327 0.00758 0.07853 0.0
O363 O 0.04786 0.95262 0.02666 0.0
O364 O 0.00926 0.97062 0.03506 0.0
C365 C 0.05434 0.99622 0.08561 0.0
H366 H 0.94488 0.03087 0.99489 0.0
H367 H 0.93787 0.97951 0.06002 0.0
H368 H 0.14966 0.95282 0.06526 0.0
H369 H 0.15986 0.00892 0.00375 0.0
C370 C 0.35048 0.77344 0.26861 0.0
N371 N 0.2768 0.7541 0.22839 0.0
C372 C 0.28694 0.77161 0.21082 0.0
C373 C 0.28405 0.764 0.18579 0.0
C374 C 0.27112 0.73787 0.17884 0.0
C375 C 0.25982 0.72067 0.19715 0.0
C376 C 0.26271 0.72937 0.222 0.0
Zn377 Zn 0.2882 0.76327 0.26454 0.0
C378 C 0.30363 0.71228 0.29183 0.0
N379 N 0.31464 0.78263 0.33947 0.0
C380 C 0.32602 0.8084 0.3468 0.0
C381 C 0.30565 0.76361 0.35637 0.0
C382 C 0.3071 0.77045 0.38157 0.0
C383 C 0.3172 0.79739 0.38944 0.0
C384 C 0.32723 0.81639 0.37188 0.0
Zn385 Zn 0.30384 0.77369 0.303 0.0
O386 O 0.33019 0.76731 0.25366 0.0
C387 C 0.28874 0.82454 0.27545 0.0
O388 O 0.34598 0.77834 0.29138 0.0
H389 H 0.2958 0.74362 0.35033 0.0
H390 H 0.29861 0.79087 0.21623 0.0
H391 H 0.33287 0.82333 0.33313 0.0
O392 O 0.28384 0.80626 0.25826 0.0
O393 O 0.29749 0.81697 0.29665 0.0
H394 H 0.25487 0.71573 0.23623 0.0
O395 O 0.26198 0.76846 0.31391 0.0
O396 O 0.24598 0.75964 0.27596 0.0
O397 O 0.30988 0.73071 0.30865 0.0
O398 O 0.29305 0.71988 0.2713 0.0
C399 C 0.24156 0.76338 0.29888 0.0
H400 H 0.29329 0.77761 0.17216 0.0
H401 H 0.24965 0.70035 0.19235 0.0
H402 H 0.29888 0.75543 0.39463 0.0
H403 H 0.33519 0.83738 0.37744 0.0
C404 C 0.51985 0.04155 0.57024 0.0
N405 N 0.54613 0.96325 0.54665 0.0
C406 C 0.55121 0.96168 0.57155 0.0
C407 C 0.54671 0.93617 0.58365 0.0
C408 C 0.538 0.91165 0.56989 0.0
C409 C 0.53585 0.91351 0.54387 0.0
C410 C 0.53936 0.93965 0.53268 0.0
Zn411 Zn 0.54021 0.00156 0.53117 0.0
C412 C 0.47921 0.00324 0.51866 0.0
N413 N 0.52004 0.07907 0.50029 0.0
C414 C 0.53374 0.10306 0.50908 0.0
C415 C 0.50771 0.07773 0.47723 0.0
C416 C 0.5118 0.09984 0.46089 0.0
C417 C 0.52805 0.12395 0.46863 0.0
C418 C 0.53769 0.12604 0.49357 0.0
Zn419 Zn 0.52675 0.04206 0.51705 0.0
O420 O 0.52857 0.01731 0.56629 0.0
C421 C 0.5879 0.03979 0.52995 0.0
O422 O 0.51859 0.05874 0.55244 0.0
H423 H 0.49688 0.05841 0.47064 0.0
H424 H 0.55698 0.98053 0.58242 0.0
H425 H 0.54346 0.10358 0.52745 0.0
O426 O 0.58133 0.01558 0.53835 0.0
O427 O 0.56934 0.05472 0.52095 0.0
H428 H 0.53506 0.9412 0.51298 0.0
O429 O 0.53438 0.02545 0.4818 0.0
O430 O 0.55207 0.98711 0.49523 0.0
O431 O 0.48492 0.0288 0.51329 0.0
O432 O 0.49852 0.98753 0.52432 0.0
C433 C 0.54637 0.00319 0.47736 0.0
H434 H 0.5487 0.93631 0.60367 0.0
H435 H 0.53045 0.89523 0.53213 0.0
H436 H 0.50392 0.097 0.44195 0.0
H437 H 0.54943 0.1446 0.50073 0.0
C438 C 0.30013 0.21769 0.77989 0.0
N439 N 0.273 0.25776 0.84313 0.0
C440 C 0.25484 0.23565 0.84684 0.0
C441 C 0.24989 0.2268 0.87089 0.0
C442 C 0.26418 0.24059 0.89101 0.0
C443 C 0.28212 0.26382 0.88673 0.0
C444 C 0.28605 0.27229 0.86249 0.0
Zn445 Zn 0.28381 0.2678 0.80829 0.0
C446 C 0.34624 0.27891 0.80817 0.0
N447 N 0.30945 0.28965 0.73721 0.0
C448 C 0.2959 0.2734 0.71927 0.0
C449 C 0.32345 0.31416 0.73176 0.0
C450 C 0.3222 0.3243 0.70756 0.0
C451 C 0.30606 0.30917 0.68914 0.0
C452 C 0.2937 0.28286 0.69518 0.0
Zn453 Zn 0.29983 0.27957 0.77213 0.0
O454 O 0.2909 0.22434 0.80069 0.0
C455 C 0.23732 0.26802 0.77174 0.0
O456 O 0.30453 0.23677 0.76411 0.0
H457 H 0.33398 0.32679 0.74643 0.0
H458 H 0.24489 0.2243 0.83114 0.0
H459 H 0.28453 0.25421 0.72401 0.0
O460 O 0.24191 0.26184 0.79434 0.0
O461 O 0.25747 0.27588 0.75903 0.0
H462 H 0.30024 0.28992 0.85911 0.0
O463 O 0.29552 0.3222 0.78035 0.0
O464 O 0.27711 0.3117 0.81553 0.0
O465 O 0.34173 0.28336 0.7852 0.0
O466 O 0.32599 0.27333 0.82157 0.0
C467 C 0.28454 0.3301 0.79988 0.0
H468 H 0.23603 0.20866 0.87367 0.0
H469 H 0.29335 0.27493 0.90195 0.0
H470 H 0.33253 0.34441 0.7037 0.0
H471 H 0.28048 0.27053 0.68209 0.0
C472 C 0.08966 0.00393 0.55014 0.0
N473 N 0.0571 0.0411 0.48565 0.0
C474 C 0.08304 0.05173 0.48262 0.0
C475 C 0.09245 0.05583 0.45875 0.0
C476 C 0.07469 0.04957 0.43813 0.0
C477 C 0.04782 0.03998 0.44182 0.0
C478 C 0.03954 0.03544 0.46576 0.0
Zn479 Zn 0.04425 0.02662 0.51894 0.0
C480 C 0.03133 0.962 0.51215 0.0
N481 N 0.01455 0.99066 0.585 0.0
C482 C 0.02499 0.97 0.59913 0.0
C483 C 0.99546 0.00725 0.59386 0.0
C484 C 0.98678 0.00421 0.61778 0.0
C485 C 0.99738 0.98357 0.63314 0.0
C486 C 0.01655 0.966 0.62345 0.0
Zn487 Zn 0.02913 0.00426 0.55189 0.0
O488 O 0.08463 0.01623 0.52981 0.0
C489 C 0.04226 0.06853 0.55932 0.0
O490 O 0.07018 0.99734 0.56412 0.0
H491 H 0.98788 0.02417 0.58289 0.0
H492 H 0.09682 0.05574 0.49858 0.0
H493 H 0.0405 0.95733 0.59193 0.0
O494 O 0.05029 0.06829 0.53716 0.0
O495 O 0.03321 0.04545 0.5683 0.0
H496 H 0.01944 0.02583 0.46821 0.0
O497 O 0.988 0.01142 0.53891 0.0
O498 O 0.00385 0.03673 0.50874 0.0
O499 O 0.02583 0.96296 0.53501 0.0
O500 O 0.03803 0.98498 0.50145 0.0
C501 C 0.98365 0.02705 0.52042 0.0
H502 H 0.11343 0.06311 0.45638 0.0
H503 H 0.03379 0.03443 0.42624 0.0
H504 H 0.97274 0.01898 0.62446 0.0
H505 H 0.02527 0.94977 0.63461 0.0
C506 C 0.28421 0.79674 0.73928 0.0
N507 N 0.34856 0.77156 0.78534 0.0
C508 C 0.35526 0.75193 0.76847 0.0
C509 C 0.3824 0.74609 0.76601 0.0
C510 C 0.40271 0.761 0.78072 0.0
C511 C 0.39538 0.78093 0.79813 0.0
C512 C 0.3679 0.78565 0.80039 0.0
Zn513 Zn 0.30904 0.78089 0.7875 0.0
C514 C 0.30576 0.84356 0.79478 0.0
N515 N 0.22741 0.80368 0.79393 0.0
C516 C 0.20922 0.78988 0.77764 0.0
C517 C 0.21923 0.82247 0.81092 0.0
C518 C 0.1916 0.8274 0.81234 0.0
C519 C 0.17238 0.81259 0.7963 0.0
C520 C 0.1815 0.79393 0.77859 0.0
Zn521 Zn 0.2672 0.79443 0.79208 0.0
O522 O 0.30598 0.78743 0.74865 0.0
C523 C 0.27121 0.73138 0.78502 0.0
O524 O 0.26447 0.80058 0.75309 0.0
H525 H 0.23408 0.83322 0.82366 0.0
H526 H 0.3396 0.74116 0.75658 0.0
H527 H 0.21617 0.77526 0.76411 0.0
O528 O 0.29624 0.73813 0.78258 0.0
O529 O 0.25481 0.75062 0.78842 0.0
H530 H 0.36208 0.80095 0.81387 0.0
O531 O 0.27062 0.78802 0.83135 0.0
O532 O 0.3117 0.77416 0.82598 0.0
O533 O 0.28027 0.83795 0.79568 0.0
O534 O 0.3216 0.82369 0.7925 0.0
C535 C 0.29232 0.7779 0.84022 0.0
H536 H 0.3876 0.73083 0.75215 0.0
H537 H 0.41073 0.79282 0.80963 0.0
H538 H 0.18523 0.84175 0.82642 0.0
H539 H 0.16727 0.78225 0.76584 0.0
C540 C 0.53884 0.9692 0.0488 0.0
N541 N 0.57107 0.04258 0.08481 0.0
C542 C 0.55614 0.03191 0.10352 0.0
C543 C 0.56755 0.03093 0.12753 0.0
C544 C 0.5946 0.04115 0.13248 0.0
C545 C 0.60881 0.05415 0.11322 0.0
C546 C 0.59662 0.05454 0.08935 0.0
Zn547 Zn 0.55675 0.03248 0.04949 0.0
C548 C 0.59977 0.00991 0.01957 0.0
N549 N 0.52629 0.00532 0.97744 0.0
C550 C 0.50022 0.99479 0.97278 0.0
C551 C 0.54206 0.01445 0.95872 0.0
C552 C 0.53136 0.0146 0.93441 0.0
C553 C 0.50403 0.0056 0.92929 0.0
C554 C 0.48857 0.99486 0.94869 0.0
Zn555 Zn 0.54061 0.01543 0.01277 0.0
O556 O 0.54832 0.99031 0.06181 0.0
C557 C 0.4977 0.03786 0.04295 0.0
O558 O 0.53293 0.97257 0.02583 0.0
H559 H 0.56249 0.0234 0.96279 0.0
H560 H 0.53599 0.02217 0.09954 0.0
H561 H 0.48796 0.98781 0.98793 0.0
O562 O 0.51767 0.04279 0.05835 0.0
O563 O 0.50139 0.02635 0.02212 0.0
H564 H 0.60818 0.0628 0.0742 0.0
O565 O 0.54858 0.05824 0.0005 0.0
O566 O 0.56492 0.07466 0.03663 0.0
O567 O 0.57991 0.0047 0.00409 0.0
O568 O 0.59583 0.02189 0.04014 0.0
C569 C 0.55851 0.07893 0.01391 0.0
H570 H 0.55584 0.02043 0.14161 0.0
H571 H 0.62954 0.06281 0.11629 0.0
H572 H 0.54388 0.02335 0.92005 0.0
H573 H 0.46747 0.98747 0.94539 0.0
C574 C 0.29613 0.19298 0.30202 0.0
N575 N 0.36489 0.23916 0.27882 0.0
C576 C 0.37281 0.21292 0.27331 0.0
C577 C 0.38415 0.20776 0.25057 0.0
C578 C 0.38748 0.22999 0.23386 0.0
C579 C 0.38445 0.25759 0.24233 0.0
C580 C 0.37248 0.26171 0.26485 0.0
Zn581 Zn 0.33201 0.24336 0.30014 0.0
C582 C 0.28546 0.26241 0.26981 0.0
N583 N 0.26257 0.25572 0.34183 0.0
C584 C 0.25743 0.23726 0.36025 0.0
C585 C 0.24358 0.27364 0.33388 0.0
C586 C 0.21829 0.27341 0.34457 0.0
C587 C 0.21279 0.2555 0.3645 0.0
C588 C 0.23286 0.23704 0.37207 0.0
Zn589 Zn 0.29712 0.25205 0.323 0.0
O590 O 0.3177 0.20157 0.29181 0.0
C591 C 0.34408 0.23509 0.3536 0.0
O592 O 0.28491 0.2093 0.31674 0.0
H593 H 0.24785 0.28807 0.31905 0.0
H594 H 0.36714 0.19534 0.28489 0.0
H595 H 0.27245 0.22263 0.36585 0.0
O596 O 0.35334 0.23086 0.33229 0.0
O597 O 0.32017 0.24339 0.35535 0.0
H598 H 0.36603 0.28244 0.26924 0.0
O599 O 0.30898 0.29506 0.32875 0.0
O600 O 0.34556 0.28514 0.30924 0.0
O601 O 0.2756 0.26144 0.29101 0.0
O602 O 0.30997 0.25635 0.26748 0.0
C603 C 0.3323 0.30259 0.32111 0.0
H604 H 0.38652 0.18613 0.24485 0.0
H605 H 0.38735 0.27532 0.23011 0.0
H606 H 0.20355 0.28767 0.33754 0.0
H607 H 0.23036 0.22321 0.38765 0.0
C608 C 0.59037 0.50984 0.03085 0.0
N609 N 0.55356 0.54268 0.96736 0.0
C610 C 0.57864 0.55536 0.96405 0.0
C611 C 0.58928 0.55612 0.94045 0.0
C612 C 0.57388 0.54386 0.92011 0.0
C613 C 0.54732 0.53284 0.92384 0.0
C614 C 0.53758 0.53236 0.94771 0.0
Zn615 Zn 0.54231 0.53041 0.00187 0.0
C616 C 0.53038 0.46605 -0.00022 0.0
N617 N 0.51958 0.49892 0.07246 0.0
C618 C 0.53763 0.50446 0.09198 0.0
C619 C 0.49327 0.49026 0.07625 0.0
C620 C 0.48369 0.48945 0.10023 0.0
C621 C 0.50154 0.49668 0.12076 0.0
C622 C 0.52918 0.50282 0.11627 0.0
Zn623 Zn 0.53076 0.51145 0.03775 0.0
O624 O 0.58322 0.52166 0.01087 0.0
C625 C 0.54313 0.57552 0.04055 0.0
O626 O 0.57256 0.50381 0.04661 0.0
H627 H 0.47913 0.48565 0.06066 0.0
H628 H 0.59111 0.56327 0.97992 0.0
H629 H 0.55837 0.51176 0.0889 0.0
O630 O 0.54843 0.57279 0.01772 0.0
O631 O 0.53609 0.55357 0.05249 0.0
H632 H 0.51796 0.5218 0.95072 0.0
O633 O 0.48918 0.51956 0.02764 0.0
O634 O 0.50118 0.53891 0.9929 0.0
O635 O 0.52571 0.46917 0.02267 0.0
O636 O 0.53629 0.48789 0.98722 0.0
C637 C 0.48268 0.53206 0.00774 0.0
H638 H 0.60974 0.56516 0.93829 0.0
H639 H 0.53484 0.52289 0.90878 0.0
H640 H 0.46216 0.48476 0.10229 0.0
H641 H 0.54413 0.50752 0.13126 0.0
C642 C 0.78855 0.27041 0.21884 0.0
N643 N 0.85399 0.23572 0.25658 0.0
C644 C 0.85529 0.21919 0.23593 0.0
C645 C 0.88045 0.21386 0.22645 0.0
C646 C 0.90449 0.22537 0.23852 0.0
C647 C 0.90264 0.24064 0.26077 0.0
C648 C 0.87702 0.24577 0.26944 0.0
Zn649 Zn 0.81741 0.25124 0.26456 0.0
C650 C 0.82334 0.31463 0.27024 0.0
N651 N 0.74268 0.28793 0.27828 0.0
C652 C 0.7206 0.27589 0.26531 0.0
C653 C 0.741 0.31223 0.2916 0.0
C654 C 0.71642 0.32544 0.292 0.0
C655 C 0.69306 0.31308 0.2792 0.0
C656 C 0.69552 0.28779 0.26588 0.0
Zn657 Zn 0.77913 0.27102 0.27311 0.0
O658 O 0.80907 0.25696 0.22562 0.0
C659 C 0.77229 0.20797 0.26794 0.0
O660 O 0.77232 0.27764 0.23502 0.0
H661 H 0.75883 0.32177 0.30153 0.0
H662 H 0.83675 0.21144 0.22598 0.0
H663 H 0.72237 0.25714 0.25411 0.0
O664 O 0.79762 0.20971 0.26388 0.0
O665 O 0.75995 0.23039 0.27081 0.0
H666 H 0.87552 0.25917 0.28562 0.0
O667 O 0.78621 0.26439 0.31152 0.0
O668 O 0.82487 0.24589 0.30357 0.0
O669 O 0.79858 0.31123 0.27554 0.0
O670 O 0.83652 0.29307 0.26559 0.0
C671 C 0.80733 0.25222 0.31912 0.0
H672 H 0.88108 0.20172 0.20938 0.0
H673 H 0.92073 0.25001 0.27051 0.0
H674 H 0.71591 0.34515 0.3022 0.0
H675 H 0.67823 0.27681 0.25622 0.0
C676 C 0.04293 0.46684 0.54381 0.0
N677 N 0.05943 0.54539 0.57915 0.0
C678 C 0.04768 0.53137 0.59809 0.0
C679 C 0.06002 0.53282 0.62177 0.0
C680 C 0.0846 0.54904 0.62607 0.0
C681 C 0.09489 0.56539 0.60668 0.0
C682 C 0.08193 0.56315 0.58316 0.0
Zn683 Zn 0.04759 0.53193 0.54432 0.0
C684 C 0.09495 0.52047 0.51507 0.0
N685 N 0.02358 0.49864 0.47309 0.0
C686 C 1.00077 0.48153 0.46813 0.0
C687 C 0.03744 0.51127 0.45461 0.0
C688 C 0.02782 0.50806 0.43013 0.0
C689 C 0.00355 0.49187 0.42453 0.0
C690 C 0.99023 0.47793 0.44375 0.0
Zn691 Zn 0.03494 0.51194 0.50809 0.0
O692 O 0.048 0.48885 0.55733 0.0
C693 C 0.98781 0.52173 0.53811 0.0
O694 O 0.03679 0.46967 0.52087 0.0
H695 H 0.05512 0.52533 0.45891 0.0
H696 H 0.02994 0.51715 0.59447 0.0
H697 H 0.99 0.47183 0.48314 0.0
O698 O 0.00643 0.53244 0.55296 0.0
O699 O 0.99391 0.51197 0.51723 0.0
H700 H 0.09094 0.57401 0.56777 0.0
O701 O 0.03322 0.55417 0.49542 0.0
O702 O 0.04722 0.57476 0.53059 0.0
O703 O 0.07612 0.51153 0.49966 0.0
O704 O 0.08871 0.53062 0.53575 0.0
C705 C 0.03959 0.57668 0.50784 0.0
H706 H 0.05143 0.5196 0.63598 0.0
H707 H 0.11349 0.57863 0.60934 0.0
H708 H 0.03845 0.51955 0.41591 0.0
H709 H 0.97152 0.46513 0.44006 0.0
C710 C 0.80456 0.7015 0.25432 0.0
N711 N 0.77404 0.72453 0.32189 0.0
C712 C 0.76295 0.69757 0.32171 0.0
C713 C 0.76342 0.68194 0.34344 0.0
C714 C 0.77543 0.69437 0.36528 0.0
C715 C 0.78439 0.72296 0.36532 0.0
C716 C 0.78364 0.73768 0.34329 0.0
Zn717 Zn 0.784 0.74346 0.2899 0.0
C718 C 0.84552 0.76044 0.29348 0.0
N719 N 0.80969 0.7821 0.22413 0.0
C720 C 0.83109 0.77397 0.21122 0.0
C721 C 0.79245 0.80102 0.2148 0.0
C722 C 0.79548 0.81143 0.1911 0.0
C723 C 0.81662 0.80251 0.17679 0.0
C724 C 0.835 0.78404 0.18735 0.0
Zn725 Zn 0.79942 0.76335 0.25622 0.0
O726 O 0.79497 0.70396 0.27563 0.0
C727 C 0.7375 0.74723 0.25341 0.0
O728 O 0.80751 0.72319 0.24097 0.0
H729 H 0.77546 0.80707 0.22529 0.0
H730 H 0.7555 0.68756 0.30441 0.0
H731 H 0.84451 0.75887 0.21905 0.0
O732 O 0.74277 0.73688 0.27461 0.0
O733 O 0.75715 0.75872 0.24181 0.0
H734 H 0.79256 0.75902 0.34298 0.0
O735 O 0.79141 0.80301 0.27164 0.0
O736 O 0.77341 0.78325 0.30399 0.0
O737 O 0.84133 0.76829 0.27123 0.0
O738 O 0.82527 0.75035 0.30508 0.0
C739 C 0.77939 0.80531 0.29185 0.0
H740 H 0.75621 0.65994 0.34278 0.0
H741 H 0.79326 0.73341 0.38199 0.0
H742 H 0.78047 0.82517 0.18365 0.0
H743 H 0.85176 0.77688 0.17706 0.0
C744 C 0.84817 0.27467 0.75608 0.0
N745 N 0.77362 0.25277 0.71827 0.0
C746 C 0.78589 0.26868 0.70067 0.0
C747 C 0.78292 0.2607 0.67577 0.0
C748 C 0.76679 0.23641 0.66886 0.0
C749 C 0.75291 0.22126 0.68703 0.0
C750 C 0.7568 0.22978 0.71193 0.0
Zn751 Zn 0.7858 0.26229 0.7542 0.0
C752 C 0.80387 0.21207 0.78097 0.0
N753 N 0.81547 0.28352 0.82784 0.0
C754 C 0.8256 0.30988 0.83481 0.0
C755 C 0.80823 0.26407 0.84504 0.0
C756 C 0.81019 0.27104 0.87021 0.0
C757 C 0.81894 0.29849 0.87773 0.0
C758 C 0.82721 0.31797 0.85987 0.0
Zn759 Zn 0.80372 0.27401 0.79167 0.0
O760 O 0.82717 0.26714 0.74247 0.0
C761 C 0.78551 0.32394 0.76398 0.0
O762 O 0.84521 0.28026 0.77897 0.0
H763 H 0.79931 0.24357 0.83931 0.0
H764 H 0.79919 0.28687 0.70602 0.0
H765 H 0.83108 0.32512 0.82092 0.0
O766 O 0.78044 0.30496 0.74743 0.0
O767 O 0.7954 0.31736 0.78512 0.0
H768 H 0.74743 0.21734 0.72624 0.0
O769 O 0.76258 0.26731 0.8039 0.0
O770 O 0.74441 0.25796 0.76674 0.0
O771 O 0.81145 0.23092 0.79713 0.0
O772 O 0.79144 0.21916 0.7611 0.0
C773 C 0.74142 0.26164 0.7899 0.0
H774 H 0.7939 0.27279 0.66212 0.0
H775 H 0.74046 0.20224 0.68219 0.0
H776 H 0.80334 0.25565 0.88356 0.0
H777 H 0.83406 0.33938 0.86519 0.0
C778 C 0.74288 0.72229 0.74399 0.0
N779 N 0.81116 0.76266 0.71394 0.0
C780 C 0.82213 0.73713 0.71422 0.0
C781 C 0.84198 0.73105 0.69772 0.0
C782 C 0.85139 0.75173 0.68109 0.0
C783 C 0.84116 0.77867 0.68273 0.0
C784 C 0.82057 0.78349 0.69892 0.0
Zn785 Zn 0.78071 0.76993 0.73699 0.0
C786 C 0.7315 0.78904 0.70971 0.0
N787 N 0.71891 0.79137 0.78646 0.0
C788 C 0.70695 0.76925 0.79862 0.0
C789 C 0.71502 0.81838 0.79367 0.0
C790 C 0.70298 0.82373 0.81606 0.0
C791 C 0.69426 0.80102 0.83075 0.0
C792 C 0.69378 0.77372 0.82049 0.0
Zn793 Zn 0.74887 0.7836 0.76184 0.0
O794 O 0.76468 0.72792 0.73294 0.0
C795 C 0.79834 0.76417 0.78886 0.0
O796 O 0.73291 0.7414 0.75681 0.0
H797 H 0.72344 0.83594 0.78345 0.0
H798 H 0.81484 0.72105 0.7267 0.0
H799 H 0.70957 0.74778 0.79301 0.0
O800 O 0.8055 0.75921 0.76704 0.0
O801 O 0.7749 0.77307 0.79214 0.0
H802 H 0.81173 0.80377 0.699 0.0
O803 O 0.76611 0.82527 0.7663 0.0
O804 O 0.79716 0.81165 0.74184 0.0
O805 O 0.72397 0.79435 0.73143 0.0
O806 O 0.75502 0.78018 0.70675 0.0
C807 C 0.78831 0.83042 0.75575 0.0
H808 H 0.84846 0.7097 0.6972 0.0
H809 H 0.84804 0.79562 0.67092 0.0
H810 H 0.70346 0.84528 0.82294 0.0
H811 H 0.68635 0.75562 0.83075 0.0
C812 C 0.49436 0.52373 0.47805 0.0
N813 N 0.46198 0.47056 0.53213 0.0
C814 C 0.43788 0.47771 0.52153 0.0
C815 C 0.41731 0.45697 0.51582 0.0
C816 C 0.42171 0.42859 0.52086 0.0
C817 C 0.44599 0.42214 0.53351 0.0
C818 C 0.46595 0.44361 0.53908 0.0
Zn819 Zn 0.49486 0.49809 0.5303 0.0
C820 C 0.53982 0.46635 0.50786 0.0
N821 N 0.56582 0.54967 0.51856 0.0
C822 C 0.56537 0.57768 0.51353 0.0
C823 C 0.5892 0.538 0.52629 0.0
C824 C 0.61301 0.5547 0.53041 0.0
C825 C 0.6129 0.58383 0.52679 0.0
C826 C 0.58902 0.59535 0.51744 0.0
Zn827 Zn 0.5316 0.52388 0.52023 0.0
O828 O 0.48146 0.5083 0.49325 0.0
C829 C 0.48708 0.55521 0.54399 0.0
O830 O 0.51797 0.53436 0.48431 0.0
H831 H 0.58919 0.51585 0.53053 0.0
H832 H 0.43522 0.49924 0.51612 0.0
H833 H 0.54646 0.5865 0.50755 0.0
O834 O 0.47405 0.53138 0.54446 0.0
O835 O 0.51063 0.55729 0.53518 0.0
H836 H 0.48534 0.4384 0.54743 0.0
O837 O 0.54541 0.51271 0.55665 0.0
O838 O 0.50821 0.48878 0.56681 0.0
O839 O 0.55189 0.49032 0.50527 0.0
O840 O 0.51654 0.4646 0.51701 0.0
C841 C 0.53234 0.49833 0.57238 0.0
H842 H 0.39848 0.463 0.50683 0.0
H843 H 0.45014 0.40059 0.53787 0.0
H844 H 0.63125 0.54499 0.53709 0.0
H845 H 0.58838 0.61776 0.51426 0.0
C846 C 0.01243 0.54403 0.06017 0.0
N847 N 0.04715 0.47177 0.03376 0.0
C848 C 0.06181 0.47182 0.05571 0.0
C849 C 0.07015 0.44654 0.06547 0.0
C850 C 0.06369 0.42129 0.0522 0.0
C851 C 0.04889 0.42185 0.02951 0.0
C852 C 0.04052 0.44745 0.02068 0.0
Zn853 Zn 0.03337 0.50803 0.02019 0.0
C854 C 0.97248 0.50068 0.01012 0.0
N855 N 1.00112 0.58231 0.99186 0.0
C856 C 0.00973 0.60671 0.00398 0.0
C857 C 0.98766 0.58246 0.96931 0.0
C858 C 0.98436 0.6079 0.95718 0.0
C859 C 0.99497 0.6332 0.96854 0.0
C860 C 0.00663 0.63251 0.99269 0.0
Zn861 Zn 0.0145 0.54599 0.00592 0.0
O862 O 0.0247 0.52166 0.05643 0.0
C863 C 0.07587 0.55286 0.01604 0.0
O864 O 0.0062 0.5593 0.04195 0.0
H865 H 0.98102 0.56276 0.96003 0.0
H866 H 0.06686 0.49143 0.06573 0.0
H867 H 0.02057 0.60612 0.02179 0.0
O868 O 0.07293 0.52763 0.02337 0.0
O869 O 0.05492 0.56547 0.0088 0.0
H870 H 0.02848 0.44785 0.00348 0.0
O871 O 0.02295 0.53224 0.96969 0.0
O872 O 0.04213 0.4951 0.98414 0.0
O873 O 0.97456 0.52626 0.0035 0.0
O874 O 0.99375 0.48834 0.0167 0.0
C875 C 0.03583 0.5103 0.96591 0.0
H876 H 0.08169 0.4467 0.08302 0.0
H877 H 0.04342 0.40261 0.01897 0.0
H878 H 0.97531 0.60757 0.93853 0.0
H879 H 0.0146 0.65163 0.00226 0.0
H880 H 0.09611 0.17734 0.08348 0.0
H881 H 0.12075 0.12903 0.14683 0.0
H882 H 0.11532 0.0856 0.1217 0.0
H883 H 0.0984 0.06119 0.08323 0.0
H884 H 0.06738 0.10894 0.02212 0.0
H885 H 0.08116 0.15316 0.04452 0.0
C886 C 0.10067 0.15734 0.09168 0.0
C887 C 0.1087 0.15623 0.11693 0.0
C888 C 0.0965 0.13254 0.07742 0.0
C889 C 0.1143 0.13024 0.12746 0.0
C890 C 0.11129 0.1055 0.1131 0.0
C891 C 0.09554 0.0814 0.07463 0.0
C892 C 0.08257 0.08226 0.05104 0.0
C893 C 0.10177 0.10637 0.08826 0.0
C894 C 0.07788 0.10818 0.04014 0.0
C895 C 0.08546 0.13328 0.05303 0.0
H896 H 0.11581 0.77181 0.32235 0.0
H897 H 0.15004 0.76846 0.39719 0.0
H898 H 0.19522 0.76459 0.38155 0.0
H899 H 0.22591 0.76296 0.34696 0.0
H900 H 0.19276 0.76453 0.27179 0.0
H901 H 0.1469 0.76803 0.28713 0.0
C902 C 0.13312 0.77019 0.33525 0.0
C903 C 0.12908 0.77054 0.36109 0.0
C904 C 0.15956 0.76756 0.32604 0.0
C905 C 0.15207 0.76821 0.3773 0.0
C906 C 0.17815 0.76602 0.36835 0.0
C907 C 0.20869 0.76391 0.33383 0.0
C908 C 0.21311 0.7635 0.30813 0.0
C909 C 0.18224 0.76576 0.3428 0.0
C910 C 0.19025 0.76467 0.29162 0.0
C911 C 0.16389 0.7668 0.30043 0.0
H912 H 0.49931 0.78964 0.60396 0.0
H913 H 0.55038 0.81471 0.66825 0.0
H914 H 0.55857 0.86182 0.65122 0.0
H915 H 0.55614 0.89292 0.61552 0.0
H916 H 0.50044 0.8695 0.55335 0.0
H917 H 0.48996 0.82424 0.57182 0.0
C918 C 0.51155 0.80576 0.61452 0.0
C919 C 0.52431 0.79894 0.63718 0.0
C920 C 0.51614 0.83264 0.60464 0.0
C921 C 0.54013 0.81976 0.65084 0.0
C922 C 0.54512 0.84651 0.64094 0.0
C923 C 0.54117 0.87845 0.6061 0.0
C924 C 0.53001 0.88471 0.58244 0.0
C925 C 0.53398 0.85281 0.61743 0.0
C926 C 0.51068 0.86509 0.57087 0.0
C927 C 0.50418 0.83922 0.58164 0.0
H928 H 0.45778 0.265 0.86936 0.0
H929 H 0.49063 0.29948 0.80276 0.0
H930 H 0.44463 0.3013 0.78403 0.0
H931 H 0.39465 0.29405 0.7868 0.0
H932 H 0.36197 0.26191 0.85444 0.0
H933 H 0.40794 0.25849 0.87239 0.0
C934 C 0.45489 0.27261 0.85064 0.0
C935 C 0.47776 0.28182 0.83744 0.0
C936 C 0.42823 0.27434 0.84019 0.0
C937 C 0.47349 0.29213 0.81335 0.0
C938 C 0.44712 0.29326 0.80263 0.0
C939 C 0.39756 0.28638 0.80549 0.0
C940 C 0.37464 0.27831 0.81916 0.0
C941 C 0.42426 0.28465 0.81593 0.0
C942 C 0.37903 0.26844 0.84341 0.0
C943 C 0.40541 0.26634 0.85373 0.0
H944 H 0.04042 0.83701 0.47044 0.0
H945 H 0.04437 0.88149 0.40141 0.0
H946 H 0.0394 0.92608 0.42329 0.0
H947 H 0.03498 0.953 0.46216 0.0
H948 H 0.02925 0.90862 0.53109 0.0
H949 H 0.03362 0.8638 0.50918 0.0
C950 C 0.04017 0.85643 0.46014 0.0
C951 C 0.04295 0.85566 0.43419 0.0
C952 C 0.0369 0.88221 0.47287 0.0
C953 C 0.04227 0.88119 0.42129 0.0
C954 C 0.03946 0.90683 0.43384 0.0
C955 C 0.03451 0.93353 0.47243 0.0
C956 C 0.03182 0.93441 0.49837 0.0
C957 C 0.03687 0.90767 0.45964 0.0
C958 C 0.03117 0.90878 0.51118 0.0
C959 C 0.03379 0.88305 0.49863 0.0
H960 H 0.51394 0.75512 0.73163 0.0
H961 H 0.50484 0.66947 0.75694 0.0
H962 H 0.46602 0.68138 0.78085 0.0
H963 H 0.42984 0.71393 0.78786 0.0
H964 H 0.43899 0.79945 0.76264 0.0
H965 H 0.48287 0.79003 0.74554 0.0
C966 C 0.50388 0.73929 0.74292 0.0
C967 C 0.51175 0.71138 0.74217 0.0
C968 C 0.48141 0.74619 0.75632 0.0
C969 C 0.49898 0.6911 0.75715 0.0
C970 C 0.47664 0.69782 0.77065 0.0
C971 C 0.44193 0.73059 0.77921 0.0
C972 C 0.43142 0.75716 0.77613 0.0
C973 C 0.46692 0.72493 0.76935 0.0
C974 C 0.44697 0.77884 0.7651 0.0
C975 C 0.47188 0.77341 0.75523 0.0
H976 H 0.58506 0.20548 0.98127 0.0
H977 H 0.531 0.17783 0.91951 0.0
H978 H 0.52528 0.13104 0.93746 0.0
H979 H 0.53601 0.09748 0.97037 0.0
H980 H 0.58857 0.12535 0.03305 0.0
H981 H 0.59445 0.17226 0.01512 0.0
C982 C 0.57194 0.18927 0.97176 0.0
C983 C 0.55854 0.19535 0.94894 0.0
C984 C 0.56852 0.16228 0.98234 0.0
C985 C 0.54154 0.17396 0.93705 0.0
C986 C 0.5383 0.14707 0.9473 0.0
C987 C 0.54881 0.11378 0.98014 0.0
C988 C 0.56197 0.10767 0.00304 0.0
C989 C 0.55179 0.14091 0.96986 0.0
C990 C 0.57821 0.12929 0.01545 0.0
C991 C 0.58159 0.15619 0.00516 0.0
H992 H 0.20641 0.2467 0.1764 0.0
H993 H 0.15123 0.27532 0.23001 0.0
H994 H 0.18944 0.28801 0.25906 0.0
H995 H 0.23689 0.28462 0.27122 0.0
H996 H 0.29214 0.25028 0.22046 0.0
H997 H 0.25579 0.24716 0.18778 0.0
C998 C 0.20296 0.25619 0.19429 0.0
C999 C 0.17622 0.25986 0.20133 0.0
C1000 C 0.22497 0.26233 0.21129 0.0
C1001 C 0.17171 0.27201 0.22449 0.0
C1002 C 0.1935 0.27932 0.24101 0.0
C1003 C 0.24118 0.27683 0.2529 0.0
C1004 C 0.2669 0.26712 0.24835 0.0
C1005 C 0.22 0.27361 0.23492 0.0
C1006 C 0.27237 0.25771 0.2244 0.0
C1007 C 0.25153 0.25565 0.20584 0.0
H1008 H 0.08575 0.01402 0.1992 0.0
H1009 H 0.15377 0.96732 0.17744 0.0
H1010 H 0.1327 0.9599 0.13604 0.0
H1011 H 0.09746 0.97031 0.10513 0.0
H1012 H 0.03014 0.01866 0.12564 0.0
H1013 H 0.04828 0.02138 0.16862 0.0
C1014 C 0.09577 0.00187 0.18551 0.0
C1015 C 0.12144 0.99149 0.19135 0.0
C1016 C 0.08376 0.99808 0.16152 0.0
C1017 C 0.13414 0.97579 0.17339 0.0
C1018 C 0.12212 0.97152 0.14969 0.0
C1019 C 0.08651 0.98119 0.11902 0.0
C1020 C 0.06262 0.9945 0.11215 0.0
C1021 C 0.09731 0.98316 0.14342 0.0
C1022 C 0.04861 0.00828 0.13044 0.0
C1023 C 0.05904 0.00995 0.15498 0.0
H1024 H 0.31437 0.81583 0.50493 0.0
H1025 H 0.26596 0.88439 0.48167 0.0
H1026 H 0.27093 0.87117 0.43825 0.0
H1027 H 0.29061 0.84116 0.40685 0.0
H1028 H 0.33799 0.77209 0.43029 0.0
H1029 H 0.33222 0.78472 0.47381 0.0
C1030 C 0.30464 0.82772 0.49039 0.0
C1031 C 0.28987 0.85111 0.49654 0.0
C1032 C 0.30781 0.8202 0.46553 0.0
C1033 C 0.27735 0.86623 0.47746 0.0
C1034 C 0.28036 0.85883 0.45262 0.0
C1035 C 0.29986 0.82914 0.42157 0.0
C1036 C 0.31507 0.80608 0.41559 0.0
C1037 C 0.29593 0.83615 0.44645 0.0
C1038 C 0.32644 0.7901 0.43464 0.0
C1039 C 0.32303 0.79723 0.45943 0.0
H1040 H 0.44193 0.06669 0.65661 0.0
H1041 H 0.48494 0.99938 0.69021 0.0
H1042 H 0.5143 0.99804 0.65506 0.0
H1043 H 0.52593 0.0137 0.61357 0.0
H1044 H 0.4843 0.08201 0.58015 0.0
H1045 H 0.45678 0.08562 0.61655 0.0
C1046 C 0.45781 0.05183 0.65625 0.0
C1047 C 0.46099 0.03297 0.67593 0.0
C1048 C 0.47503 0.05144 0.63606 0.0
C1049 C 0.48196 0.01412 0.67534 0.0
C1050 C 0.49879 0.0133 0.65522 0.0
C1051 C 0.51117 0.02972 0.61441 0.0
C1052 C 0.50715 0.04746 0.59407 0.0
C1053 C 0.4953 0.0316 0.63534 0.0
C1054 C 0.48798 0.06817 0.59556 0.0
C1055 C 0.47201 0.07008 0.6163 0.0
H1056 H 0.2383 0.19907 0.99826 0.0
H1057 H 0.32371 0.18311 -0.00135 0.0
H1058 H 0.32647 0.20096 0.95655 0.0
H1059 H 0.30472 0.22157 0.91983 0.0
H1060 H 0.21886 0.2348 0.91813 0.0
H1061 H 0.21599 0.21748 0.96063 0.0
C1062 C 0.2575 0.19956 0.9891 0.0
C1063 C 0.28082 0.19004 0.00153 0.0
C1064 C 0.25881 0.20933 0.96476 0.0
C1065 C 0.30549 0.19035 0.9894 0.0
C1066 C 0.3071 0.20059 0.96539 0.0
C1067 C 0.28544 0.22066 0.92889 0.0
C1068 C 0.26207 0.22961 0.91626 0.0
C1069 C 0.28393 0.21022 0.95295 0.0
C1070 C 0.23704 0.22801 0.92775 0.0
C1071 C 0.23545 0.21818 0.95196 0.0
H1072 H 0.09099 0.05455 0.32376 0.0
H1073 H 0.14749 0.99113 0.34217 0.0
H1074 H 0.13795 0.99614 0.38606 0.0
H1075 H 0.11312 0.01844 0.41917 0.0
H1076 H 0.05602 0.08086 0.40018 0.0
H1077 H 0.06669 0.07688 0.35645 0.0
C1078 C 0.10111 0.04164 0.3373 0.0
C1079 C 0.1198 0.02237 0.32968 0.0
C1080 C 0.09577 0.04486 0.36241 0.0
C1081 C 0.13286 0.00597 0.34754 0.0
C1082 C 0.12756 0.00897 0.37264 0.0
C1083 C 0.10351 0.03152 0.40542 0.0
C1084 C 0.08421 0.05024 0.41267 0.0
C1085 C 0.10918 0.02848 0.3803 0.0
C1086 C 0.07122 0.06661 0.39484 0.0
C1087 C 0.07714 0.06415 0.36991 0.0
H1088 H 0.29933 0.83086 0.62797 0.0
H1089 H 0.25153 0.89907 0.6509 0.0
H1090 H 0.24663 0.87767 0.69155 0.0
H1091 H 0.25779 0.84082 0.72121 0.0
H1092 H 0.30928 0.77519 0.69971 0.0
H1093 H 0.3107 0.79411 0.65775 0.0
C1094 C 0.2876 0.84088 0.64178 0.0
C1095 C 0.27567 0.86645 0.63638 0.0
C1096 C 0.28554 0.82888 0.66534 0.0
C1097 C 0.26092 0.87942 0.65461 0.0
C1098 C 0.25809 0.86717 0.67783 0.0
C1099 C 0.26894 0.83041 0.70719 0.0
C1100 C 0.28311 0.80642 0.71337 0.0
C1101 C 0.27052 0.84205 0.68348 0.0
C1102 C 0.29808 0.79356 0.69528 0.0
C1103 C 0.29894 0.80442 0.67135 0.0
H1104 H 0.43801 0.03558 0.83112 0.0
H1105 H 0.50599 0.9984 0.79831 0.0
H1106 H 0.52671 0.99088 0.83949 0.0
H1107 H 0.52453 0.99304 0.88482 0.0
H1108 H 0.45541 0.02792 0.91775 0.0
H1109 H 0.43576 0.03758 0.8766 0.0
C1110 C 0.45758 0.0263 0.83306 0.0
C1111 C 0.47067 0.01787 0.81182 0.0
C1112 C 0.46885 0.02108 0.85679 0.0
C1113 C 0.49568 0.00522 0.81447 0.0
C1114 C 0.50744 0.00077 0.83798 0.0
C1115 C 0.50519 0.00279 0.88295 0.0
C1116 C 0.49138 0.00964 0.90426 0.0
C1117 C 0.49402 0.00824 0.85926 0.0
C1118 C 0.46621 0.02203 0.90159 0.0
C1119 C 0.45511 0.02783 0.87809 0.0
H1120 H 0.36651 0.17005 0.13077 0.0
H1121 H 0.30248 0.2285 0.12719 0.0
H1122 H 0.32178 0.25236 0.16479 0.0
H1123 H 0.35256 0.25231 0.20114 0.0
H1124 H 0.41467 0.19201 0.20678 0.0
H1125 H 0.40057 0.17333 0.16534 0.0
C1126 C 0.35692 0.18823 0.138 0.0
C1127 C 0.3328 0.19721 0.12641 0.0
C1128 C 0.36779 0.20147 0.15987 0.0
C1129 C 0.32085 0.22097 0.1359 0.0
C1130 C 0.33189 0.23464 0.15737 0.0
C1131 C 0.36379 0.23581 0.193 0.0
C1132 C 0.38478 0.22364 0.20693 0.0
C1133 C 0.35485 0.22453 0.16984 0.0
C1134 C 0.39853 0.20172 0.19634 0.0
C1135 C 0.39032 0.19094 0.17279 0.0
H1136 H 0.26613 0.05414 0.05428 0.0
H1137 H 0.21189 0.10134 0.09717 0.0
H1138 H 0.17707 0.06242 0.0929 0.0
H1139 H 0.16005 0.01868 0.07179 0.0
H1140 H 0.21134 0.97548 0.0231 0.0
H1141 H 0.24995 0.00866 0.03532 0.0
C1142 C 0.24688 0.05562 0.06313 0.0
C1143 C 0.24141 0.08048 0.07596 0.0
C1144 C 0.22664 0.03383 0.05954 0.0
C1145 C 0.21635 0.08242 0.08708 0.0
C1146 C 0.19654 0.0602 0.08466 0.0
C1147 C 0.18003 0.01603 0.06462 0.0
C1148 C 0.18333 0.9946 0.04704 0.0
C1149 C 0.20119 0.03628 0.07027 0.0
C1150 C 0.20878 0.99161 0.03705 0.0
C1151 C 0.2306 0.01075 0.04379 0.0
H1152 H 0.7064 0.46051 0.02596 0.0
H1153 H 0.70184 0.46569 0.10542 0.0
H1154 H 0.6571 0.48536 0.10095 0.0
H1155 H 0.61853 0.49993 0.07427 0.0
H1156 H 0.62507 0.49838 0.99484 0.0
H1157 H 0.66967 0.4788 -0.00057 0.0
C1158 C 0.69557 0.46601 0.04225 0.0
C1159 C 0.70721 0.46143 0.06595 0.0
C1160 C 0.67021 0.47806 0.03954 0.0
C1161 C 0.69324 0.46904 0.08695 0.0
C1162 C 0.66764 0.48023 0.08442 0.0
C1163 C 0.62985 0.49548 0.05802 0.0
C1164 C 0.61844 0.50049 0.03428 0.0
C1165 C 0.65583 0.4847 0.06079 0.0
C1166 C 0.63343 0.49486 0.01336 0.0
C1167 C 0.65891 0.48351 0.01594 0.0
H1168 H 0.85153 0.44331 0.2499 0.0
H1169 H 0.92192 0.40857 0.21915 0.0
H1170 H 0.90522 0.36108 0.23006 0.0
H1171 H 0.87115 0.32956 0.24915 0.0
H1172 H 0.80138 0.36446 0.28113 0.0
H1173 H 0.8176 0.41172 0.26945 0.0
C1174 C 0.86291 0.42525 0.24521 0.0
C1175 C 0.8877 0.42931 0.23349 0.0
C1176 C 0.85363 0.39811 0.25226 0.0
C1177 C 0.90264 0.40586 0.22803 0.0
C1178 C 0.89322 0.37875 0.23442 0.0
C1179 C 0.85967 0.34753 0.25386 0.0
C1180 C 0.83517 0.34344 0.26611 0.0
C1181 C 0.86893 0.37466 0.24684 0.0
C1182 C 0.8204 0.36698 0.27182 0.0
C1183 C 0.82954 0.39403 0.26498 0.0
H1184 H 0.8759 0.53388 0.58569 0.0
H1185 H 0.85061 0.5423 0.50882 0.0
H1186 H 0.89462 0.52701 0.49616 0.0
H1187 H 0.94281 0.52083 0.50742 0.0
H1188 H 0.96931 0.51995 0.58464 0.0
H1189 H 0.92241 0.52297 0.59684 0.0
C1190 C 0.87965 0.53135 0.56615 0.0
C1191 C 0.86025 0.53928 0.54818 0.0
C1192 C 0.90557 0.52483 0.55917 0.0
C1193 C 0.86538 0.53627 0.52293 0.0
C1194 C 0.89063 0.52791 0.51573 0.0
C1195 C 0.93817 0.52087 0.52689 0.0
C1196 C 0.95934 0.52071 0.54516 0.0
C1197 C 0.91134 0.52374 0.53374 0.0
C1198 C 0.95327 0.52066 0.57031 0.0
C1199 C 0.92649 0.52221 0.57728 0.0
H1200 H 0.24814 0.07559 0.25905 0.0
H1201 H 0.17322 0.11393 0.27498 0.0
H1202 H 0.1989 0.15622 0.29063 0.0
H1203 H 0.24222 0.18166 0.3011 0.0
H1204 H 0.31748 0.14545 0.28356 0.0
H1205 H 0.29199 0.10256 0.26753 0.0
C1206 C 0.23743 0.09331 0.2657 0.0
C1207 C 0.2088 0.09149 0.26597 0.0
C1208 C 0.25233 0.11765 0.27478 0.0
C1209 C 0.19523 0.1147 0.27455 0.0
C1210 C 0.20988 0.13886 0.28367 0.0
C1211 C 0.2531 0.16424 0.29406 0.0
C1212 C 0.28163 0.16631 0.29395 0.0
C1213 C 0.23838 0.14033 0.28424 0.0
C1214 C 0.29547 0.14402 0.28409 0.0
C1215 C 0.28092 0.11967 0.27483 0.0
H1216 H 0.35421 0.98128 0.54079 0.0
H1217 H 0.38635 0.90731 0.57391 0.0
H1218 H 0.43175 0.9218 0.56115 0.0
H1219 H 0.46238 0.95471 0.54037 0.0
H1220 H 0.43192 0.02956 0.5075 0.0
H1221 H 0.38585 0.01519 0.51982 0.0
C1222 C 0.37126 0.96863 0.54549 0.0
C1223 C 0.36685 0.94328 0.55837 0.0
C1224 C 0.39754 0.9769 0.53769 0.0
C1225 C 0.38911 0.92689 0.56401 0.0
C1226 C 0.41511 0.93507 0.55661 0.0
C1227 C 0.44567 0.96779 0.53554 0.0
C1228 C 0.45066 0.99306 0.52278 0.0
C1229 C 0.41951 0.95981 0.54321 0.0
C1230 C 0.42868 0.00984 0.51709 0.0
C1231 C 0.40235 0.00176 0.52433 0.0
H1232 H 0.85038 0.59435 0.20388 0.0
H1233 H 0.8731 0.57785 0.28012 0.0
H1234 H 0.85048 0.61959 0.29354 0.0
H1235 H 0.82569 0.66169 0.28349 0.0
H1236 H 0.80699 0.68091 0.20703 0.0
H1237 H 0.82641 0.63713 0.19374 0.0
C1238 C 0.85019 0.59982 0.22344 0.0
C1239 C 0.86324 0.58297 0.24102 0.0
C1240 C 0.83787 0.62432 0.23094 0.0
C1241 C 0.86324 0.59052 0.26626 0.0
C1242 C 0.85027 0.61434 0.27393 0.0
C1243 C 0.82558 0.65609 0.26393 0.0
C1244 C 0.81465 0.67428 0.24625 0.0
C1245 C 0.83769 0.6315 0.25643 0.0
C1246 C 0.81518 0.66714 0.22096 0.0
C1247 C 0.82632 0.64217 0.21337 0.0
H1248 H 0.74424 0.43438 0.71737 0.0
H1249 H 0.70369 0.43771 0.78652 0.0
H1250 H 0.72767 0.397 0.80125 0.0
H1251 H 0.75758 0.3581 0.79303 0.0
H1252 H 0.79464 0.35314 0.72235 0.0
H1253 H 0.7751 0.39715 0.70982 0.0
C1254 C 0.74078 0.4264 0.73577 0.0
C1255 C 0.72209 0.43901 0.75077 0.0
C1256 C 0.75418 0.40273 0.74387 0.0
C1257 C 0.71784 0.42829 0.77453 0.0
C1258 C 0.73159 0.40505 0.78298 0.0
C1259 C 0.76185 0.36714 0.77516 0.0
C1260 C 0.77773 0.35276 0.75869 0.0
C1261 C 0.74952 0.39182 0.76766 0.0
C1262 C 0.78262 0.3641 0.73533 0.0
C1263 C 0.77132 0.38911 0.72813 0.0
H1264 H 1.00069 0.85652 0.94845 0.0
H1265 H 0.95911 0.9243 0.9138 0.0
H1266 H 0.9625 0.95092 0.95293 0.0
H1267 H 0.98347 0.95778 0.99426 0.0
H1268 H 0.03102 0.89341 0.02692 0.0
H1269 H 0.0182 0.86182 0.99147 0.0
C1270 C 0.99201 0.87694 0.94953 0.0
C1271 C 0.97998 0.88862 0.92822 0.0
C1272 C 0.99485 0.89246 0.97178 0.0
C1273 C 0.96879 0.91506 0.92988 0.0
C1274 C 0.97061 0.9302 0.95225 0.0
C1275 C 0.98996 0.93633 0.99417 0.0
C1276 C 0.00765 0.92752 0.01326 0.0
C1277 C 0.98433 0.91944 0.97302 0.0
C1278 C 0.01694 0.90023 0.01255 0.0
C1279 C 0.00997 0.88246 0.99215 0.0
H1280 H 0.95072 0.28111 0.68829 0.0
H1281 H 0.98568 0.23651 0.74971 0.0
H1282 H 0.94423 0.2409 0.77249 0.0
H1283 H 0.89673 0.25569 0.7745 0.0
H1284 H 0.86043 0.29608 0.71135 0.0
H1285 H 0.90324 0.29532 0.69005 0.0
C1286 C 0.94935 0.27252 0.70672 0.0
C1287 C 0.97153 0.25858 0.71721 0.0
C1288 C 0.92498 0.27443 0.71955 0.0
C1289 C 0.96906 0.24729 0.74105 0.0
C1290 C 0.94528 0.24984 0.75417 0.0
C1291 C 0.89839 0.26472 0.75625 0.0
C1292 C 0.87542 0.27635 0.74473 0.0
C1293 C 0.92295 0.26318 0.74359 0.0
C1294 C 0.87777 0.28724 0.72076 0.0
C1295 C 0.90229 0.28672 0.7085 0.0
H1296 H 0.57758 0.22427 0.4066 0.0
H1297 H 0.50094 0.20929 0.36523 0.0
H1298 H 0.49037 0.16773 0.38978 0.0
H1299 H 0.49926 0.14118 0.42751 0.0
H1300 H 0.57672 0.15509 0.46805 0.0
H1301 H 0.58993 0.1924 0.43989 0.0
C1302 C 0.55892 0.21143 0.40246 0.0
C1303 C 0.53986 0.22021 0.38449 0.0
C1304 C 0.55254 0.18811 0.41717 0.0
C1305 C 0.51597 0.20312 0.37904 0.0
C1306 C 0.50968 0.17956 0.39335 0.0
C1307 C 0.51929 0.15184 0.42999 0.0
C1308 C 0.53653 0.14573 0.45048 0.0
C1309 C 0.52721 0.17276 0.41326 0.0
C1310 C 0.5624 0.16006 0.4532 0.0
C1311 C 0.57024 0.18113 0.43682 0.0
H1312 H 0.6101 0.73962 0.2238 0.0
H1313 H 0.6381 0.79552 0.16665 0.0
H1314 H 0.6848 0.79374 0.18307 0.0
H1315 H 0.71844 0.77576 0.21302 0.0
H1316 H 0.69121 0.72017 0.27059 0.0
H1317 H 0.64406 0.72229 0.25463 0.0
C1318 C 0.62634 0.75167 0.21508 0.0
C1319 C 0.62018 0.76774 0.19389 0.0
C1320 C 0.65362 0.75038 0.22457 0.0
C1321 C 0.64186 0.78294 0.18289 0.0
C1322 C 0.66877 0.78188 0.19225 0.0
C1323 C 0.70226 0.76393 0.22206 0.0
C1324 C 0.70869 0.74762 0.24297 0.0
C1325 C 0.675 0.76548 0.21292 0.0
C1326 C 0.68714 0.7328 0.25444 0.0
C1327 C 0.66004 0.73407 0.24533 0.0
H1328 H 0.03388 0.16385 0.64187 0.0
H1329 H 0.05211 0.2181 0.58062 0.0
H1330 H 0.05419 0.17695 0.55325 0.0
H1331 H 0.05125 0.12481 0.54648 0.0
H1332 H 0.03314 0.07144 0.60848 0.0
H1333 H 0.03084 0.11255 0.63527 0.0
C1334 C 0.03812 0.16679 0.62251 0.0
C1335 C 0.04272 0.1943 0.61351 0.0
C1336 C 0.03955 0.14292 0.60678 0.0
C1337 C 0.0484 0.19734 0.58826 0.0
C1338 C 0.04968 0.17371 0.5725 0.0
C1339 C 0.04697 0.12219 0.56586 0.0
C1340 C 0.04245 0.09475 0.57521 0.0
C1341 C 0.04546 0.14627 0.58153 0.0
C1342 C 0.03672 0.09205 0.60049 0.0
C1343 C 0.03533 0.11567 0.61599 0.0
H1344 H 0.56805 0.32142 0.28577 0.0
H1345 H 0.59439 0.3564 0.35769 0.0
H1346 H 0.64124 0.36033 0.34523 0.0
H1347 H 0.67471 0.34271 0.31823 0.0
H1348 H 0.64939 0.31031 0.24509 0.0
H1349 H 0.60203 0.31639 0.25396 0.0
C1350 C 0.5839 0.33084 0.29838 0.0
C1351 C 0.57798 0.33751 0.3229 0.0
C1352 C 0.61103 0.33264 0.29126 0.0
C1353 C 0.59858 0.3503 0.33889 0.0
C1354 C 0.62545 0.35244 0.33185 0.0
C1355 C 0.6592 0.33794 0.30369 0.0
C1356 C 0.66575 0.32461 0.2815 0.0
C1357 C 0.63204 0.3419 0.30869 0.0
C1358 C 0.64495 0.31905 0.26298 0.0
C1359 C 0.61779 0.32279 0.2679 0.0
H1360 H 0.52707 0.86588 0.12136 0.0
H1361 H 0.56786 0.82523 0.06285 0.0
H1362 H 0.5654 0.86746 0.03766 0.0
H1363 H 0.55387 0.91737 0.03293 0.0
H1364 H 0.51696 0.95911 0.09312 0.0
H1365 H 0.51539 0.91544 0.11661 0.0
C1366 C 0.5352 0.86617 0.10301 0.0
C1367 C 0.54759 0.84224 0.09409 0.0
C1368 C 0.53437 0.89093 0.08878 0.0
C1369 C 0.55829 0.84326 0.07032 0.0
C1370 C 0.55686 0.86747 0.05583 0.0
C1371 C 0.54502 0.91667 0.05098 0.0
C1372 C 0.53514 0.94139 0.06108 0.0
C1373 C 0.54519 0.8916 0.06491 0.0
C1374 C 0.52446 0.94034 0.08482 0.0
C1375 C 0.52367 0.91537 0.09833 0.0
H1376 H 0.91514 0.79062 0.8323 0.0
H1377 H 0.8846 0.87393 0.83283 0.0
H1378 H 0.83826 0.85368 0.82465 0.0
H1379 H 0.80778 0.81337 0.81208 0.0
H1380 H 0.83927 0.73119 0.80416 0.0
H1381 H 0.88379 0.74954 0.8216 0.0
C1382 C 0.89827 0.80428 0.83069 0.0
C1383 C 0.90317 0.83368 0.83284 0.0
C1384 C 0.87189 0.79259 0.82507 0.0
C1385 C 0.88129 0.85125 0.83077 0.0
C1386 C 0.85482 0.8397 0.82628 0.0
C1387 C 0.82409 0.79924 0.81521 0.0
C1388 C 0.8203 0.77089 0.80747 0.0
C1389 C 0.85001 0.8105 0.82287 0.0
C1390 C 0.84174 0.75293 0.81062 0.0
C1391 C 0.86724 0.76357 0.82007 0.0
H1392 H 1.00076 0.97998 0.87339 0.0
H1393 H 0.94066 0.03938 0.88967 0.0
H1394 H 0.96194 0.04788 0.93101 0.0
H1395 H 0.99605 0.03663 0.96321 0.0
H1396 H 0.05665 0.97781 0.94695 0.0
H1397 H 0.03691 0.97118 0.90477 0.0
C1398 C 0.99242 0.99493 0.88592 0.0
C1399 C 0.96905 0.00891 0.87849 0.0
C1400 C 0.00488 -0.00011 0.90962 0.0
C1401 C 0.95862 0.02836 0.89489 0.0
C1402 C 0.97076 0.0332 0.91856 0.0
C1403 C 0.00521 0.02267 0.95033 0.0
C1404 C 0.02783 0.00777 0.95821 0.0
C1405 C 0.9937 0.01887 0.92619 0.0
C1406 C 0.03942 0.98976 0.9413 0.0
C1407 C 0.02801 0.98578 0.91723 0.0
H1408 H 0.7506 0.19105 0.55857 0.0
H1409 H 0.83486 0.17373 0.57202 0.0
H1410 H 0.83475 0.19601 0.61322 0.0
H1411 H 0.80983 0.21785 0.6462 0.0
H1412 H 0.72433 0.23047 0.63467 0.0
H1413 H 0.72545 0.21237 0.59189 0.0
C1414 C 0.76902 0.19271 0.57042 0.0
C1415 C 0.79286 0.18136 0.56232 0.0
C1416 C 0.76836 0.20426 0.59444 0.0
C1417 C 0.81643 0.18271 0.57794 0.0
C1418 C 0.81631 0.19526 0.60146 0.0
C1419 C 0.79154 0.2167 0.63418 0.0
C1420 C 0.76706 0.22547 0.64323 0.0
C1421 C 0.79227 0.20567 0.61003 0.0
C1422 C 0.74332 0.22371 0.62786 0.0
C1423 C 0.74402 0.21349 0.6035 0.0
H1424 H 0.58704 0.02482 0.37078 0.0
H1425 H 0.65601 0.98201 0.39987 0.0
H1426 H 0.63208 0.97151 0.43792 0.0
H1427 H 0.59289 0.97859 0.46445 0.0
H1428 H 0.52433 0.02142 0.43423 0.0
H1429 H 0.54642 0.02716 0.39498 0.0
C1430 C 0.59681 0.01305 0.38539 0.0
C1431 C 0.62343 0.00462 0.38268 0.0
C1432 C 0.58286 0.00688 0.40699 0.0
C1433 C 0.63559 0.98891 0.40158 0.0
C1434 C 0.6219 0.9829 0.42334 0.0
C1435 C 0.58247 0.98836 0.449 0.0
C1436 C 0.55696 0.99954 0.45229 0.0
C1437 C 0.59565 0.9922 0.42645 0.0
C1438 C 0.54393 0.01259 0.4322 0.0
C1439 C 0.55665 0.01611 0.40978 0.0
H1440 H 0.80928 0.81304 0.06064 0.0
H1441 H 0.78419 0.89556 0.08095 0.0
H1442 H 0.79342 0.88587 0.1246 0.0
H1443 H 0.80653 0.85338 0.15703 0.0
H1444 H 0.82854 0.76966 0.1371 0.0
H1445 H 0.82369 0.78091 0.09324 0.0
C1446 C 0.80588 0.82894 0.0746 0.0
C1447 C 0.79581 0.85487 0.06752 0.0
C1448 C 0.811 0.82317 0.09972 0.0
C1449 C 0.79167 0.87529 0.08586 0.0
C1450 C 0.79705 0.86984 0.11085 0.0
C1451 C 0.81024 0.83755 0.14311 0.0
C1452 C 0.81765 0.81065 0.1504 0.0
C1453 C 0.80639 0.84374 0.11798 0.0
C1454 C 0.82309 0.79065 0.13209 0.0
C1455 C 0.81999 0.79694 0.10697 0.0
H1456 H 0.98351 0.9912 0.74903 0.0
H1457 H 0.90365 0.01399 0.72288 0.0
H1458 H 0.91517 0.00506 0.68036 0.0
H1459 H 0.94744 0.99127 0.65052 0.0
H1460 H 0.02911 0.97321 0.67503 0.0
H1461 H 0.01684 0.97828 0.71827 0.0
C1462 C 0.96873 0.9944 0.734 0.0
C1463 C 0.94279 0.00343 0.73925 0.0
C1464 C 0.97556 0.98948 0.70931 0.0
C1465 C 0.92385 0.00734 0.71951 0.0
C1466 C 0.93031 0.00202 0.69512 0.0
C1467 C 0.96276 0.98868 0.66524 0.0
C1468 C 0.98929 0.98226 0.6594 0.0
C1469 C 0.95606 0.99314 0.68983 0.0
C1470 C 0.00845 0.97796 0.67888 0.0
C1471 C 1.00156 0.98125 0.70363 0.0
H1472 H 0.82114 0.18266 0.41742 0.0
H1473 H 0.74564 0.22044 0.43182 0.0
H1474 H 0.74898 0.24756 0.39404 0.0
H1475 H 0.77154 0.25848 0.35556 0.0
H1476 H 0.84681 0.22075 0.34038 0.0
H1477 H 0.84557 0.19629 0.37988 0.0
C1478 C 0.8055 0.19693 0.41235 0.0
C1479 C 0.78306 0.19925 0.42743 0.0
C1480 C 0.80752 0.21265 0.39044 0.0
C1481 C 0.7631 0.21805 0.4206 0.0
C1482 C 0.76497 0.23365 0.39895 0.0
C1483 C 0.78795 0.24529 0.36101 0.0
C1484 C 0.80919 0.24148 0.34487 0.0
C1485 C 0.78689 0.23087 0.38356 0.0
C1486 C 0.83021 0.2242 0.35237 0.0
C1487 C 0.82942 0.21 0.37493 0.0
H1488 H 0.66783 0.00702 0.2248 0.0
H1489 H 0.5949 0.0234 0.26283 0.0
H1490 H 0.57219 0.03525 0.22351 0.0
H1491 H 0.57375 0.04282 0.17862 0.0
H1492 H 0.64679 0.02588 0.1409 0.0
H1493 H 0.669 0.01336 0.18004 0.0
C1494 C 0.64684 0.0128 0.22452 0.0
C1495 C 0.63309 0.0142 0.24678 0.0
C1496 C 0.63411 0.02015 0.20198 0.0
C1497 C 0.60596 0.02204 0.24599 0.0
C1498 C 0.59301 0.029 0.22353 0.0
C1499 C 0.59448 0.03625 0.17891 0.0
C1500 C 0.60857 0.03555 0.15677 0.0
C1501 C 0.60703 0.0285 0.20146 0.0
C1502 C 0.63557 0.0273 0.15765 0.0
C1503 C 0.64822 0.01974 0.18 0.0
H1504 H 0.719 0.85175 0.93626 0.0
H1505 H 0.76195 0.7753 0.94218 0.0
H1506 H 0.7386 0.75686 0.90413 0.0
H1507 H 0.71446 0.76687 0.86571 0.0
H1508 H 0.67401 0.84464 0.85734 0.0
H1509 H 0.68764 0.85802 0.90022 0.0
C1510 C 0.72271 0.83076 0.92954 0.0
C1511 C 0.74261 0.81513 0.94162 0.0
C1512 C 0.70997 0.82073 0.90713 0.0
C1513 C 0.74709 0.78791 0.9329 0.0
C1514 C 0.73376 0.77737 0.91115 0.0
C1515 C 0.70747 0.78624 0.87337 0.0
C1516 C 0.69361 0.80498 0.85807 0.0
C1517 C 0.7163 0.79423 0.89752 0.0
C1518 C 0.68515 0.83009 0.86855 0.0
C1519 C 0.69305 0.83779 0.89303 0.0
H1520 H 0.87168 0.89619 0.9818 0.0
H1521 H 0.81954 0.96001 0.95511 0.0
H1522 H 0.85471 0.99683 0.96694 0.0
H1523 H 0.89556 0.01088 0.99355 0.0
H1524 H 0.94397 0.94608 0.02457 0.0
H1525 H 0.91505 0.90981 0.00277 0.0
C1526 C 0.86843 0.91805 0.97762 0.0
C1527 C 0.84296 0.92549 0.96815 0.0
C1528 C 0.8877 0.93907 0.9863 0.0
C1529 C 0.83902 0.95388 0.96269 0.0
C1530 C 0.85892 0.97495 0.96985 0.0
C1531 C 0.89977 0.98882 0.99531 0.0
C1532 C 0.92124 0.98108 0.01125 0.0
C1533 C 0.8825 0.96786 0.98324 0.0
C1534 C 0.92692 0.95249 0.01307 0.0
C1535 C 0.91059 0.93171 0.0004 0.0
H1536 H 0.37278 0.58935 0.98007 0.0
H1537 H 0.34685 0.54215 0.0435 0.0
H1538 H 0.39082 0.52126 0.04711 0.0
H1539 H 0.4378 0.51864 0.03414 0.0
H1540 H 0.46395 0.56536 0.97055 0.0
H1541 H 0.41888 0.58383 0.96508 0.0
C1542 C 0.37664 0.57427 0.99451 0.0
C1543 C 0.35649 0.56756 0.01157 0.0
C1544 C 0.40216 0.56226 0.99658 0.0
C1545 C 0.3619 0.54785 0.03012 0.0
C1546 C 0.38714 0.53588 0.03227 0.0
C1547 C 0.4336 0.53263 0.01892 0.0
C1548 C 0.4544 0.5407 0.00292 0.0
C1549 C 0.40759 0.54329 0.01589 0.0
C1550 C 0.44842 0.55877 0.98322 0.0
C1551 C 0.42262 0.56945 0.9801 0.0
H1552 H 0.24898 0.59937 0.78914 0.0
H1553 H 0.18554 0.625 0.83591 0.0
H1554 H 0.20003 0.67435 0.83042 0.0
H1555 H 0.22914 0.71035 0.81084 0.0
H1556 H 0.29356 0.68536 0.76516 0.0
H1557 H 0.27994 0.6356 0.77139 0.0
C1558 C 0.2386 0.61571 0.79848 0.0
C1559 C 0.21611 0.6084 0.81283 0.0
C1560 C 0.24681 0.64418 0.795 0.0
C1561 C 0.20287 0.62994 0.8247 0.0
C1562 C 0.21101 0.65822 0.82145 0.0
C1563 C 0.23999 0.694 0.80201 0.0
C1564 C 0.26196 0.70144 0.78717 0.0
C1565 C 0.23254 0.66558 0.80622 0.0
C1566 C 0.27635 0.68008 0.77642 0.0
C1567 C 0.26868 0.65167 0.7801 0.0
H1568 H 0.20855 0.47257 0.53117 0.0
H1569 H 0.17716 0.42148 0.46844 0.0
H1570 H 0.14019 0.45279 0.46157 0.0
H1571 H 0.11262 0.48876 0.47797 0.0
H1572 H 0.14063 0.53645 0.54378 0.0
H1573 H 0.1836 0.51321 0.54434 0.0
C1574 C 0.19391 0.46874 0.5157 0.0
C1575 C 0.19509 0.4446 0.50062 0.0
C1576 C 0.17209 0.48617 0.51249 0.0
C1577 C 0.17621 0.43973 0.48057 0.0
C1578 C 0.15514 0.45763 0.47659 0.0
C1579 C 0.12838 0.49465 0.49208 0.0
C1580 C 0.12324 0.51372 0.51115 0.0
C1581 C 0.15221 0.48008 0.49313 0.0
C1582 C 0.144 0.52146 0.52909 0.0
C1583 C 0.16847 0.50802 0.52954 0.0
H1584 H 0.88472 0.91796 0.7862 0.0
H1585 H 0.82267 0.9545 0.82802 0.0
H1586 H 0.78936 0.91687 0.81299 0.0
H1587 H 0.77797 0.87429 0.7867 0.0
H1588 H 0.84018 0.84153 0.74216 0.0
H1589 H 0.87317 0.87745 0.75906 0.0
C1590 C 0.86402 0.91737 0.79242 0.0
C1591 C 0.8562 0.93846 0.80859 0.0
C1592 C 0.84487 0.89683 0.78265 0.0
C1593 C 0.82915 0.93808 0.81588 0.0
C1594 C 0.81011 0.91681 0.80708 0.0
C1595 C 0.79862 0.87534 0.7804 0.0
C1596 C 0.80648 0.85526 0.7631 0.0
C1597 C 0.81766 0.89632 0.79009 0.0
C1598 C 0.83341 0.85679 0.75528 0.0
C1599 C 0.85244 0.87719 0.7651 0.0
H1600 H 0.7158 0.06235 0.5268 0.0
H1601 H 0.69071 0.11668 0.46762 0.0
H1602 H 0.64312 0.10296 0.47403 0.0
H1603 H 0.60843 0.07723 0.49735 0.0
H1604 H 0.63266 0.02171 0.55577 0.0
H1605 H 0.68071 0.03454 0.54899 0.0
C1606 C 0.69996 0.07082 0.51502 0.0
C1607 C 0.70697 0.0906 0.49676 0.0
C1608 C 0.67241 0.0631 0.519 0.0
C1609 C 0.68604 0.10148 0.48183 0.0
C1610 C 0.65874 0.09378 0.48557 0.0
C1611 C 0.6242 0.06815 0.50882 0.0
C1612 C 0.61695 0.04892 0.52735 0.0
C1613 C 0.65168 0.07505 0.50439 0.0
C1614 C 0.63769 0.03681 0.54158 0.0
C1615 C 0.66516 0.04402 0.5376 0.0
H1616 H 0.26348 0.45808 0.78624 0.0
H1617 H 0.19942 0.43719 0.83607 0.0
H1618 H 0.21607 0.38996 0.84119 0.0
H1619 H 0.24641 0.35311 0.82826 0.0
H1620 H 0.30926 0.37464 0.77729 0.0
H1621 H 0.29569 0.42305 0.77613 0.0
C1622 C 0.25326 0.44333 0.79843 0.0
C1623 C 0.23006 0.45111 0.81054 0.0
C1624 C 0.26272 0.41619 0.80104 0.0
C1625 C 0.21727 0.43175 0.82644 0.0
C1626 C 0.22675 0.40469 0.82932 0.0
C1627 C 0.25743 0.36856 0.8173 0.0
C1628 C 0.2787 0.36018 0.80276 0.0
C1629 C 0.24912 0.39644 0.81628 0.0
C1630 C 0.29269 0.38043 0.78852 0.0
C1631 C 0.28491 0.40816 0.78779 0.0
H1632 H 0.35954 0.59917 0.3143 0.0
H1633 H 0.31629 0.57415 0.24553 0.0
H1634 H 0.29537 0.61945 0.24398 0.0
H1635 H 0.29153 0.6672 0.26086 0.0
H1636 H 0.33398 0.69177 0.3302 0.0
H1637 H 0.35264 0.64547 0.33299 0.0
C1638 C 0.34546 0.60363 0.29904 0.0
C1639 C 0.3397 0.58353 0.27994 0.0
C1640 C 0.33328 0.62959 0.29838 0.0
C1641 C 0.32111 0.58936 0.26045 0.0
C1642 C 0.30915 0.61526 0.25952 0.0
C1643 C 0.3046 0.66231 0.27674 0.0
C1644 C 0.31154 0.68301 0.29515 0.0
C1645 C 0.31537 0.63567 0.27822 0.0
C1646 C 0.32834 0.67626 0.3157 0.0
C1647 C 0.33915 0.64982 0.31728 0.0
H1648 H 0.49644 0.66896 0.5993 0.0
H1649 H 0.49318 0.61258 0.66124 0.0
H1650 H 0.47659 0.57366 0.63345 0.0
H1651 H 0.47314 0.55416 0.59113 0.0
H1652 H 0.48445 0.60935 0.52933 0.0
H1653 H 0.4868 0.6505 0.55727 0.0
C1654 C 0.49138 0.64834 0.60681 0.0
C1655 C 0.49646 0.64343 0.63215 0.0
C1656 C 0.48334 0.62586 0.5906 0.0
C1657 C 0.48983 0.61666 0.64168 0.0
C1658 C 0.48037 0.59445 0.62581 0.0
C1659 C 0.47487 0.57533 0.5838 0.0
C1660 C 0.47845 0.57904 0.55841 0.0
C1661 C 0.47845 0.59852 0.60014 0.0
C1662 C 0.48144 0.6063 0.5489 0.0
C1663 C 0.48312 0.6297 0.56488 0.0
H1664 H 0.61767 0.26722 0.81974 0.0
H1665 H 0.65653 0.26685 0.89299 0.0
H1666 H 0.70073 0.26346 0.87506 0.0
H1667 H 0.7291 0.26173 0.83881 0.0
H1668 H 0.69111 0.26069 0.76529 0.0
H1669 H 0.64631 0.26325 0.78301 0.0
C1670 C 0.63578 0.26632 0.8318 0.0
C1671 C 0.63342 0.26742 0.85784 0.0
C1672 C 0.66154 0.26407 0.82128 0.0
C1673 C 0.65735 0.26604 0.87298 0.0
C1674 C 0.68283 0.26413 0.86271 0.0
C1675 C 0.71105 0.2619 0.82657 0.0
C1676 C 0.71374 0.26106 0.80063 0.0
C1677 C 0.68525 0.26327 0.83692 0.0
C1678 C 0.68988 0.2612 0.78526 0.0
C1679 C 0.66416 0.26279 0.79543 0.0
H1680 H 0.10933 0.3043 0.07848 0.0
H1681 H 0.06677 0.31834 0.14534 0.0
H1682 H 0.05193 0.36314 0.12926 0.0
H1683 H 0.05235 0.39888 0.09653 0.0
H1684 H 0.09356 0.38352 0.02927 0.0
H1685 H 0.10788 0.33851 0.04522 0.0
C1686 C 0.09673 0.31712 0.08951 0.0
C1687 C 0.0893 0.30824 0.11309 0.0
C1688 C 0.08825 0.34259 0.08014 0.0
C1689 C 0.0727 0.32481 0.12709 0.0
C1690 C 0.06434 0.35043 0.11797 0.0
C1691 C 0.06455 0.38561 0.08552 0.0
C1692 C 0.0722 0.39432 0.06197 0.0
C1693 C 0.07225 0.35965 0.09464 0.0
C1694 C 0.08757 0.37702 0.0475 0.0
C1695 C 0.09572 0.3514 0.05659 0.0
H1696 H 0.95433 0.75571 0.3613 0.0
H1697 H 0.98678 0.80638 0.30259 0.0
H1698 H 0.94229 0.80315 0.28042 0.0
H1699 H 0.89338 0.78675 0.27788 0.0
H1700 H 0.86087 0.73772 0.33769 0.0
H1701 H 0.90564 0.73959 0.35891 0.0
C1702 C 0.95176 0.76588 0.34357 0.0
C1703 C 0.97415 0.78116 0.33369 0.0
C1704 C 0.92582 0.76439 0.33102 0.0
C1705 C 0.9701 0.79443 0.31075 0.0
C1706 C 0.94455 0.79263 0.29801 0.0
C1707 C 0.89607 0.77644 0.29554 0.0
C1708 C 0.87346 0.76212 0.30602 0.0
C1709 C 0.92212 0.77782 0.30799 0.0
C1710 C 0.87762 0.74901 0.32904 0.0
C1711 C 0.90337 0.75 0.34127 0.0
H1712 H 0.5439 0.33829 0.96735 0.0
H1713 H 0.55322 0.37791 0.89648 0.0
H1714 H 0.54584 0.42364 0.915 0.0
H1715 H 0.53744 0.453 0.95119 0.0
H1716 H 0.52704 0.41433 0.02224 0.0
H1717 H 0.53374 0.36799 0.00379 0.0
C1718 C 0.54439 0.35693 0.95598 0.0
C1719 C 0.54927 0.35441 0.93046 0.0
C1720 C 0.53971 0.38351 0.96676 0.0
C1721 C 0.54952 0.37894 0.91609 0.0
C1722 C 0.54527 0.40525 0.92668 0.0
C1723 C 0.53639 0.43446 0.96269 0.0
C1724 C 0.53168 0.43737 0.98816 0.0
C1725 C 0.54036 0.40784 0.95197 0.0
C1726 C 0.53046 0.41289 0.0026 0.0
C1727 C 0.53446 0.38632 0.99205 0.0
H1728 H 0.00898 0.23025 0.17447 0.0
H1729 H 0.04553 0.20191 0.24307 0.0
H1730 H 1.00159 0.20212 0.26243 0.0
H1731 H 0.95263 0.21066 0.25995 0.0
H1732 H 0.91582 0.23692 0.19078 0.0
H1733 H 0.95981 0.23695 0.17152 0.0
C1734 C 0.00731 0.22419 0.19367 0.0
C1735 C 0.03048 0.21626 0.20735 0.0
C1736 C 0.98187 0.22382 0.20455 0.0
C1737 C 0.02797 0.2081 0.23212 0.0
C1738 C 1.00285 0.20823 0.24322 0.0
C1739 C 0.95432 0.21632 0.24066 0.0
C1740 C 0.93105 0.2237 0.22679 0.0
C1741 C 0.97966 0.21607 0.22963 0.0
C1742 C 0.9334 0.23082 0.20175 0.0
C1743 C 0.95857 0.23102 0.19077 0.0
H1744 H 0.02825 0.67954 0.43529 0.0
H1745 H 0.08689 0.71909 0.4885 0.0
H1746 H 0.08445 0.67692 0.51391 0.0
H1747 H 0.06711 0.62755 0.52033 0.0
H1748 H 0.00997 0.58777 0.4659 0.0
H1749 H 0.01026 0.63096 0.44209 0.0
C1750 C 0.04038 0.67904 0.45252 0.0
C1751 C 0.05775 0.7026 0.45984 0.0
C1752 C 0.03918 0.65447 0.46697 0.0
C1753 C 0.07337 0.70134 0.48225 0.0
C1754 C 0.07199 0.67716 0.49687 0.0
C1755 C 0.05449 0.62847 0.50343 0.0
C1756 C 0.03853 0.60431 0.49504 0.0
C1757 C 0.05515 0.65343 0.48935 0.0
C1758 C 0.02254 0.60591 0.47287 0.0
C1759 C 0.02269 0.63066 0.45914 0.0
H1760 H 0.61679 0.76441 0.66136 0.0
H1761 H 0.64248 0.67983 0.6706 0.0
H1762 H 0.68969 0.69832 0.67815 0.0
H1763 H 0.72113 0.73838 0.68964 0.0
H1764 H 0.69278 0.82244 0.69016 0.0
H1765 H 0.64921 0.80473 0.67024 0.0
C1766 C 0.63292 0.75003 0.66426 0.0
C1767 C 0.62646 0.72085 0.66531 0.0
C1768 C 0.65944 0.76094 0.67029 0.0
C1769 C 0.64721 0.70235 0.66969 0.0
C1770 C 0.67407 0.71294 0.67404 0.0
C1771 C 0.70577 0.75294 0.68439 0.0
C1772 C 0.71008 0.78169 0.69075 0.0
C1773 C 0.68015 0.7422 0.67538 0.0
C1774 C 0.68988 0.80034 0.68488 0.0
C1775 C 0.66495 0.79012 0.67387 0.0
H1776 H 0.57477 0.49143 0.68379 0.0
H1777 H 0.65103 0.48561 0.64793 0.0
H1778 H 0.6272 0.48512 0.60744 0.0
H1779 H 0.58543 0.49073 0.58213 0.0
H1780 H 0.50871 0.49455 0.61719 0.0
H1781 H 0.53195 0.49135 0.65811 0.0
C1782 C 0.58612 0.48963 0.66712 0.0
C1783 C 0.61471 0.48889 0.66895 0.0
C1784 C 0.57225 0.48929 0.64377 0.0
C1785 C 0.62905 0.48625 0.64715 0.0
C1786 C 0.61546 0.48614 0.62393 0.0
C1787 C 0.5738 0.4906 0.59876 0.0
C1788 C 0.54553 0.49322 0.59681 0.0
C1789 C 0.58721 0.48838 0.62203 0.0
C1790 C 0.53054 0.49257 0.61834 0.0
C1791 C 0.54383 0.49084 0.64169 0.0
H1792 H 0.8195 0.3179 0.99322 0.0
H1793 H 0.76069 0.37777 0.97134 0.0
H1794 H 0.76535 0.36496 0.92776 0.0
H1795 H 0.78753 0.33792 0.89577 0.0
H1796 H 0.84512 0.27718 0.91792 0.0
H1797 H 0.83993 0.28947 0.96164 0.0
C1798 C 0.80748 0.32798 0.97896 0.0
C1799 C 0.78982 0.34882 0.98551 0.0
C1800 C 0.81042 0.32069 0.95402 0.0
C1801 C 0.77433 0.36157 0.9668 0.0
C1802 C 0.77715 0.35443 0.94187 0.0
C1803 C 0.79909 0.32767 0.91026 0.0
C1804 C 0.81704 0.30712 0.90389 0.0
C1805 C 0.79546 0.33435 0.93526 0.0
C1806 C 0.83146 0.29332 0.92261 0.0
C1807 C 0.82838 0.30023 0.9475 0.0
H1808 H 0.94029 0.55694 0.15192 0.0
H1809 H 0.0046 0.51081 0.18603 0.0
H1810 H 0.03014 0.51461 0.14852 0.0
H1811 H 0.03188 0.52633 0.10457 0.0
H1812 H 0.96858 0.57374 0.07052 0.0
H1813 H 0.9453 0.57461 0.10953 0.0
C1814 C 0.96004 0.54806 0.1512 0.0
C1815 C 0.9703 0.53326 0.17156 0.0
C1816 C 0.97482 0.55048 0.12958 0.0
C1817 C 0.99614 0.52223 0.17056 0.0
C1818 C 0.01078 0.52429 0.14909 0.0
C1819 C 0.01327 0.53732 0.10586 0.0
C1820 C 1.0018 0.54965 0.08472 0.0
C1821 C 0.99997 0.53769 0.12828 0.0
C1822 C 0.97784 0.5641 0.08661 0.0
C1823 C 0.96438 0.56441 0.10885 0.0
H1824 H 0.77911 0.62645 0.46445 0.0
H1825 H 0.85941 0.66788 0.46971 0.0
H1826 H 0.85322 0.6855 0.42754 0.0
H1827 H 0.82285 0.69399 0.39186 0.0
H1828 H 0.7409 0.65622 0.38772 0.0
H1829 H 0.74977 0.6318 0.42671 0.0
C1830 C 0.79545 0.6386 0.4559 0.0
C1831 C 0.81979 0.64568 0.46962 0.0
C1832 C 0.79119 0.64965 0.4322 0.0
C1833 C 0.84072 0.66199 0.45904 0.0
C1834 C 0.83707 0.67223 0.43514 0.0
C1835 C 0.80693 0.68039 0.39951 0.0
C1836 C 0.78107 0.67737 0.38739 0.0
C1837 C 0.81202 0.66706 0.42199 0.0
C1838 C 0.76088 0.65901 0.39695 0.0
C1839 C 0.76594 0.64515 0.41921 0.0
H1840 H 0.63909 0.515 0.82553 0.0
H1841 H 0.56535 0.54089 0.78873 0.0
H1842 H 0.54607 0.55002 0.82877 0.0
H1843 H 0.55046 0.55159 0.87424 0.0
H1844 H 0.6246 0.52687 0.91117 0.0
H1845 H 0.64364 0.51702 0.87116 0.0
C1846 C 0.61869 0.52233 0.82633 0.0
C1847 C 0.60358 0.52704 0.80423 0.0
C1848 C 0.60797 0.52823 0.84943 0.0
C1849 C 0.57735 0.53702 0.8055 0.0
C1850 C 0.56635 0.54235 0.82838 0.0
C1851 C 0.57078 0.54403 0.87352 0.0
C1852 C 0.5861 0.5401 0.89567 0.0
C1853 C 0.58155 0.53824 0.85046 0.0
C1854 C 0.61252 0.53055 0.8944 0.0
C1855 C 0.62333 0.52462 0.87153 0.0
H1856 H 0.80255 0.32029 0.11203 0.0
H1857 H 0.74934 0.3803 0.14149 0.0
H1858 H 0.74486 0.35255 0.17892 0.0
H1859 H 0.7582 0.31326 0.20433 0.0
H1860 H 0.81437 0.25503 0.17702 0.0
H1861 H 0.81515 0.27978 0.13748 0.0
C1862 C 0.7898 0.32715 0.12656 0.0
C1863 C 0.77635 0.35241 0.12397 0.0
C1864 C 0.78777 0.31137 0.14836 0.0
C1865 C 0.76007 0.3611 0.14306 0.0
C1866 C 0.75742 0.34519 0.16445 0.0
C1867 C 0.77026 0.30558 0.1896 0.0
C1868 C 0.78607 0.28217 0.19359 0.0
C1869 C 0.77145 0.32053 0.16743 0.0
C1870 C 0.8019 0.27288 0.17439 0.0
C1871 C 0.80247 0.28714 0.15185 0.0
H1872 H 0.93862 0.5082 0.32313 0.0
H1873 H 0.01743 0.49351 0.29518 0.0
H1874 H 0.03576 0.48696 0.3373 0.0
H1875 H 0.02936 0.48514 0.38187 0.0
H1876 H 0.95065 0.4993 0.4102 0.0
H1877 H 0.93199 0.50538 0.36801 0.0
C1878 C 0.95987 0.5039 0.32636 0.0
C1879 C 0.97677 0.50162 0.30624 0.0
C1880 C 0.9701 0.49949 0.35056 0.0
C1881 C 0.00411 0.49548 0.31049 0.0
C1882 C 0.01456 0.4916 0.3345 0.0
C1883 C 0.0081 0.48949 0.37877 0.0
C1884 C 0.99141 0.49181 0.39902 0.0
C1885 C 0.99771 0.4934 0.35463 0.0
C1886 C 0.96381 0.49705 0.39482 0.0
C1887 C 0.95323 0.50087 0.37076 0.0
H1888 H 0.8618 0.70188 0.5786 0.0
H1889 H 0.88688 0.63329 0.62406 0.0
H1890 H 0.89868 0.6662 0.65856 0.0
H1891 H 0.8881 0.71045 0.67849 0.0
H1892 H 0.85132 0.7744 0.63417 0.0
H1893 H 0.86009 0.74878 0.59681 0.0
C1894 C 0.87083 0.69428 0.59575 0.0
C1895 C 0.87258 0.6652 0.5992 0.0
C1896 C 0.87525 0.71283 0.61605 0.0
C1897 C 0.88472 0.65561 0.6213 0.0
C1898 C 0.89131 0.6744 0.64104 0.0
C1899 C 0.88212 0.71894 0.66067 0.0
C1900 C 0.86729 0.74339 0.65953 0.0
C1901 C 0.88434 0.70252 0.6392 0.0
C1902 C 0.86197 0.75525 0.63613 0.0
C1903 C 0.86663 0.74032 0.61449 0.0
H1904 H 0.73042 0.63952 0.52962 0.0
H1905 H 0.73325 0.59528 0.59894 0.0
H1906 H 0.68388 0.58629 0.59587 0.0
H1907 H 0.64191 0.58357 0.56998 0.0
H1908 H 0.63974 0.62293 0.49854 0.0
H1909 H 0.68675 0.64216 0.50619 0.0
C1910 C 0.72014 0.62853 0.54436 0.0
C1911 C 0.73541 0.61763 0.56428 0.0
C1912 C 0.69195 0.62242 0.54193 0.0
C1913 C 0.7219 0.60348 0.58326 0.0
C1914 C 0.69372 0.59831 0.5815 0.0
C1915 C 0.65164 0.59684 0.55632 0.0
C1916 C 0.63786 0.60142 0.53355 0.0
C1917 C 0.67883 0.60651 0.56036 0.0
C1918 C 0.65018 0.61907 0.51614 0.0
C1919 C 0.67706 0.62979 0.52043 0.0
H1920 H 0.20439 0.97214 0.59548 0.0
H1921 H 0.21601 0.9518 0.51877 0.0
H1922 H 0.17104 0.96834 0.50719 0.0
H1923 H 0.12783 0.98746 0.5191 0.0
H1924 H 0.11421 0.00265 0.59634 0.0
H1925 H 0.16042 0.98933 0.60758 0.0
C1926 C 0.19711 0.97157 0.57621 0.0
C1927 C 0.21358 0.96109 0.55794 0.0
C1928 C 0.17082 0.9801 0.56985 0.0
C1929 C 0.20371 0.95986 0.53312 0.0
C1930 C 0.17802 0.96932 0.52652 0.0
C1931 C 0.1351 0.98802 0.53837 0.0
C1932 C 0.11777 0.99631 0.55687 0.0
C1933 C 0.16133 0.97934 0.54474 0.0
C1934 C 0.1272 0.9964 0.5818 0.0
C1935 C 0.15361 0.9888 0.58821 0.0
H1936 H 0.38402 0.94937 0.78144 0.0
H1937 H 0.32468 0.96491 0.72275 0.0
H1938 H 0.2955 0.9249 0.73633 0.0
H1939 H 0.28881 0.8832 0.76308 0.0
H1940 H 0.34989 0.86732 0.81998 0.0
H1941 H 0.37618 0.91037 0.80937 0.0
C1942 C 0.36471 0.94411 0.77152 0.0
C1943 C 0.35677 0.95988 0.75083 0.0
C1944 C 0.34818 0.92128 0.77942 0.0
C1945 C 0.33142 0.95297 0.73858 0.0
C1946 C 0.3147 0.93016 0.74639 0.0
C1947 C 0.30742 0.88981 0.77363 0.0
C1948 C 0.31729 0.87258 0.79258 0.0
C1949 C 0.32302 0.91397 0.76664 0.0
C1950 C 0.34183 0.88063 0.80562 0.0
C1951 C 0.35696 0.90501 0.79936 0.0
H1952 H 0.39253 0.08203 0.08684 0.0
H1953 H 0.37561 0.10156 0.01008 0.0
H1954 H 0.4171 0.07936 -0.00142 0.0
H1955 H 0.45908 0.05622 0.01096 0.0
H1956 H 0.47678 0.04036 0.08833 0.0
H1957 H 0.43362 0.05909 0.09908 0.0
C1958 C 0.39776 0.0813 0.06754 0.0
C1959 C 0.3811 0.09333 0.0493 0.0
C1960 C 0.42167 0.06913 0.06126 0.0
C1961 C 0.38826 0.09248 0.02443 0.0
C1962 C 0.41188 0.07977 0.01787 0.0
C1963 C 0.45322 0.05658 0.0301 0.0
C1964 C 0.4708 0.04691 0.04888 0.0
C1965 C 0.42884 0.06823 0.0362 0.0
C1966 C 0.46342 0.0478 0.07366 0.0
C1967 C 0.43885 0.0585 0.07978 0.0
H1968 H 0.66726 0.61109 0.745 0.0
H1969 H 0.73953 0.57535 0.71871 0.0
H1970 H 0.76291 0.62226 0.71911 0.0
H1971 H 0.76306 0.67336 0.72799 0.0
H1972 H 0.69074 0.70808 0.75528 0.0
H1973 H 0.66712 0.66156 0.75324 0.0
C1974 C 0.68811 0.61348 0.73927 0.0
C1975 C 0.70162 0.58972 0.7319 0.0
C1976 C 0.70144 0.64034 0.73974 0.0
C1977 C 0.72866 0.59328 0.72456 0.0
C1978 C 0.74204 0.62009 0.72476 0.0
C1979 C 0.7421 0.6707 0.73339 0.0
C1980 C 0.72874 0.69407 0.74193 0.0
C1981 C 0.72867 0.64376 0.73247 0.0
C1982 C 0.70159 0.69037 0.74888 0.0
C1983 C 0.68803 0.66379 0.74769 0.0
H1984 H 0.87419 0.41703 0.03333 0.0
H1985 H 0.84204 0.49356 0.06068 0.0
H1986 H 0.88203 0.52093 0.04646 0.0
H1987 H 0.927 0.52267 0.02729 0.0
H1988 H 0.95892 0.44532 0.00179 0.0
H1989 H 0.9177 0.41873 0.01371 0.0
C1990 C 0.8758 0.4397 0.0363 0.0
C1991 C 0.85512 0.45315 0.04823 0.0
C1992 C 0.89866 0.45519 0.02803 0.0
C1993 C 0.8577 0.4826 0.05173 0.0
C1994 C 0.8805 0.49827 0.04347 0.0
C1995 C 0.92455 0.50009 0.02385 0.0
C1996 C 0.94571 0.48594 0.01336 0.0
C1997 C 0.90113 0.48478 0.03158 0.0
C1998 C 0.94274 0.45661 0.0096 0.0
C1999 C 0.9193 0.44141 0.0166 0.0
H2000 H 0.35557 0.10147 0.77475 0.0
H2001 H 0.34543 0.11683 0.69642 0.0
H2002 H 0.32215 0.1596 0.70516 0.0
H2003 H 0.30643 0.19368 0.73498 0.0
H2004 H 0.31431 0.17774 0.81334 0.0
H2005 H 0.33612 0.13384 0.8047 0.0
C2006 C 0.34827 0.11426 0.75965 0.0
C2007 C 0.35252 0.10627 0.73499 0.0
C2008 C 0.33427 0.13852 0.76481 0.0
C2009 C 0.3425 0.12264 0.71555 0.0
C2010 C 0.32916 0.14708 0.72053 0.0
C2011 C 0.31261 0.18041 0.75017 0.0
C2012 C 0.30889 0.189 0.77476 0.0
C2013 C 0.32511 0.15531 0.74506 0.0
C2014 C 0.31678 0.17149 0.79423 0.0
C2015 C 0.3295 0.14653 0.78931 0.0
H2016 H 0.24705 0.93771 0.2351 0.0
H2017 H 0.21174 0.93884 0.30685 0.0
H2018 H 0.2358 0.89705 0.31863 0.0
H2019 H 0.26399 0.85808 0.30713 0.0
H2020 H 0.29529 0.85492 0.23387 0.0
H2021 H 0.27612 0.90001 0.22414 0.0
C2022 C 0.2448 0.929 0.25342 0.0
C2023 C 0.2276 0.94125 0.27006 0.0
C2024 C 0.25809 0.90469 0.25977 0.0
C2025 C 0.22476 0.92963 0.29366 0.0
C2026 C 0.23855 0.90581 0.30041 0.0
C2027 C 0.26708 0.86769 0.28928 0.0
C2028 C 0.28118 0.85357 0.27127 0.0
C2029 C 0.25492 0.8929 0.28346 0.0
C2030 C 0.28459 0.86567 0.24798 0.0
C2031 C 0.27354 0.89129 0.2424 0.0
H2032 H 0.55644 0.344 0.47398 0.0
H2033 H 0.58875 0.38829 0.41147 0.0
H2034 H 0.59006 0.4328 0.43482 0.0
H2035 H 0.5719 0.45976 0.46899 0.0
H2036 H 0.53403 0.41519 0.52872 0.0
H2037 H 0.54519 0.37019 0.51072 0.0
C2038 C 0.56462 0.36324 0.46575 0.0
C2039 C 0.57184 0.3631 0.44093 0.0
C2040 C 0.5637 0.38883 0.47866 0.0
C2041 C 0.58263 0.38807 0.43051 0.0
C2042 C 0.58319 0.41353 0.44377 0.0
C2043 C 0.56682 0.44018 0.47832 0.0
C2044 C 0.55175 0.44049 0.49974 0.0
C2045 C 0.57214 0.41435 0.46724 0.0
C2046 C 0.54521 0.41519 0.51186 0.0
C2047 C 0.55159 0.38952 0.50162 0.0
H2048 H 0.47356 0.75215 0.2446 0.0
H2049 H 0.44624 0.78062 0.17278 0.0
H2050 H 0.40115 0.78759 0.18831 0.0
H2051 H 0.36849 0.78408 0.22199 0.0
H2052 H 0.3967 0.75989 0.29488 0.0
H2053 H 0.442 0.7531 0.27947 0.0
C2054 C 0.45779 0.76004 0.23239 0.0
C2055 C 0.46346 0.76563 0.20739 0.0
C2056 C 0.43186 0.76483 0.24171 0.0
C2057 C 0.44269 0.77616 0.19203 0.0
C2058 C 0.41675 0.78009 0.20092 0.0
C2059 C 0.38462 0.77759 0.23459 0.0
C2060 C 0.37895 0.77245 0.25965 0.0
C2061 C 0.41096 0.77431 0.22568 0.0
C2062 C 0.40032 0.76422 0.27561 0.0
C2063 C 0.42629 0.76015 0.26673 0.0
H2064 H 0.02387 0.74817 0.91731 0.0
H2065 H 0.94138 0.73468 0.88727 0.0
H2066 H 0.93686 0.68959 0.90878 0.0
H2067 H 0.95614 0.6551 0.93775 0.0
H2068 H 0.03883 0.67018 0.96711 0.0
H2069 H 0.04329 0.7139 0.94446 0.0
C2070 C 0.00488 0.73539 0.91531 0.0
C2071 C 0.98296 0.74479 0.90082 0.0
C2072 C 1.00237 0.70995 0.92787 0.0
C2073 C 0.95858 0.72785 0.89834 0.0
C2074 C 0.95596 0.70216 0.91071 0.0
C2075 C 0.97512 0.66796 0.93905 0.0
C2076 C 0.99694 0.65968 0.95445 0.0
C2077 C 0.97766 0.69317 0.92578 0.0
C2078 C 0.02147 0.67646 0.95595 0.0
C2079 C 0.02415 0.70134 0.94282 0.0
H2080 H 0.11199 0.2529 0.73564 0.0
H2081 H 0.14394 0.2964 0.67245 0.0
H2082 H 0.1894 0.29868 0.6921 0.0
H2083 H 0.2208 0.28785 0.72667 0.0
H2084 H 0.18982 0.24547 0.79066 0.0
H2085 H 0.14373 0.24328 0.77132 0.0
C2086 C 0.12884 0.26303 0.72621 0.0
C2087 C 0.12417 0.27441 0.70241 0.0
C2088 C 0.15536 0.26439 0.73774 0.0
C2089 C 0.14654 0.28742 0.69067 0.0
C2090 C 0.17274 0.28872 0.7019 0.0
C2091 C 0.20402 0.27808 0.73647 0.0
C2092 C 0.20902 0.26671 0.76014 0.0
C2093 C 0.17748 0.27714 0.72533 0.0
C2094 C 0.18677 0.25438 0.77246 0.0
C2095 C 0.16032 0.25312 0.76137 0.0
H2096 H 0.55139 0.70258 0.08109 0.0
H2097 H 0.51486 0.66207 0.14367 0.0
H2098 H 0.51462 0.61649 0.12233 0.0
H2099 H 0.52547 0.58765 0.08647 0.0
H2100 H 0.56144 0.62739 0.02336 0.0
H2101 H 0.56129 0.67348 0.04437 0.0
C2102 C 0.54317 0.68385 0.09003 0.0
C2103 C 0.53313 0.68607 0.11413 0.0
C2104 C 0.54318 0.65738 0.07761 0.0
C2105 C 0.52269 0.66131 0.12525 0.0
C2106 C 0.52262 0.63509 0.11305 0.0
C2107 C 0.5334 0.60632 0.07723 0.0
C2108 C 0.54365 0.60381 0.05329 0.0
C2109 C 0.533 0.63281 0.08934 0.0
C2110 C 0.55353 0.62849 0.04173 0.0
C2111 C 0.5534 0.65492 0.05377 0.0
H2112 H 0.04873 0.79877 0.82008 0.0
H2113 H 0.0566 0.88959 0.81907 0.0
H2114 H 0.1036 0.88782 0.80597 0.0
H2115 H 0.14392 0.86007 0.79931 0.0
H2116 H 0.13485 0.76921 0.80041 0.0
H2117 H 0.0868 0.77131 0.80901 0.0
C2118 C 0.0606 0.81818 0.81656 0.0
C2119 C 0.04944 0.84425 0.82073 0.0
C2120 C 0.08747 0.81695 0.8094 0.0
C2121 C 0.0648 0.86926 0.81585 0.0
C2122 C 0.09173 0.86824 0.80864 0.0
C2123 C 0.13128 0.84082 0.80127 0.0
C2124 C 0.14285 0.81454 0.79943 0.0
C2125 C 0.10354 0.84218 0.80612 0.0
C2126 C 0.12631 0.78966 0.80166 0.0
C2127 C 0.09889 0.79084 0.80664 0.0
H2128 H 0.06181 0.34098 0.57523 0.0
H2129 H 0.03176 0.37132 0.64387 0.0
H2130 H 0.02684 0.41792 0.62593 0.0
H2131 H 0.03205 0.45058 0.59086 0.0
H2132 H 0.05812 0.41896 0.5211 0.0
H2133 H 0.06355 0.37254 0.53919 0.0
C2134 C 0.05409 0.35778 0.58622 0.0
C2135 C 0.04735 0.35268 0.61095 0.0
C2136 C 0.05064 0.38438 0.57555 0.0
C2137 C 0.03704 0.3746 0.62481 0.0
C2138 C 0.03432 0.40132 0.61457 0.0
C2139 C 0.03886 0.43348 0.57963 0.0
C2140 C 0.04487 0.43832 0.55468 0.0
C2141 C 0.04121 0.40654 0.59 0.0
C2142 C 0.05331 0.41583 0.54029 0.0
C2143 C 0.05649 0.38927 0.55067 0.0
H2144 H 0.45845 0.25814 0.39937 0.0
H2145 H 0.43493 0.34253 0.38519 0.0
H2146 H 0.38685 0.32557 0.3822 0.0
H2147 H 0.35412 0.28583 0.3734 0.0
H2148 H 0.38044 0.20103 0.37589 0.0
H2149 H 0.42455 0.21848 0.39475 0.0
C2150 C 0.4426 0.27287 0.39656 0.0
C2151 C 0.44981 0.30147 0.39273 0.0
C2152 C 0.41554 0.26255 0.39263 0.0
C2153 C 0.42953 0.32048 0.38836 0.0
C2154 C 0.40219 0.31071 0.38651 0.0
C2155 C 0.36912 0.27113 0.37923 0.0
C2156 C 0.36421 0.24224 0.3737 0.0
C2157 C 0.3952 0.28162 0.38721 0.0
C2158 C 0.38384 0.22328 0.38045 0.0
C2159 C 0.40912 0.23335 0.3908 0.0
H2160 H 0.42297 0.53112 0.37897 0.0
H2161 H 0.50201 0.5296 0.34793 0.0
H2162 H 0.5239 0.53303 0.3896 0.0
H2163 H 0.52013 0.53125 0.43495 0.0
H2164 H 0.44059 0.52641 0.46559 0.0
H2165 H 0.41925 0.53068 0.42419 0.0
C2166 C 0.445 0.53229 0.38139 0.0
C2167 C 0.46095 0.53054 0.36056 0.0
C2168 C 0.45728 0.53263 0.40538 0.0
C2169 C 0.48943 0.5312 0.36381 0.0
C2170 C 0.5019 0.53297 0.38759 0.0
C2171 C 0.49816 0.53154 0.43252 0.0
C2172 C 0.48192 0.52854 0.45321 0.0
C2173 C 0.48599 0.53289 0.40855 0.0
C2174 C 0.45347 0.52854 0.44987 0.0
C2175 C 0.44126 0.53103 0.42623 0.0
H2176 H 0.27071 0.71117 0.06409 0.0
H2177 H 0.30722 0.6365 0.09152 0.0
H2178 H 0.3045 0.6537 0.13398 0.0
H2179 H 0.29033 0.68902 0.16349 0.0
H2180 H 0.25493 0.76421 0.13657 0.0
H2181 H 0.25841 0.74763 0.09367 0.0
C2182 C 0.27835 0.69878 0.07932 0.0
C2183 C 0.28903 0.6725 0.07455 0.0
C2184 C 0.27656 0.70869 0.10378 0.0
C2185 C 0.29885 0.65678 0.09457 0.0
C2186 C 0.29719 0.66651 0.11891 0.0
C2187 C 0.28314 0.70158 0.14818 0.0
C2188 C 0.27198 0.7275 0.15301 0.0
C2189 C 0.28569 0.69218 0.12373 0.0
C2190 C 0.26338 0.74405 0.13315 0.0
C2191 C 0.26545 0.73462 0.1087 0.0
H2192 H 0.11562 0.49089 0.88079 0.0
H2193 H 0.08173 0.5678 0.8555 0.0
H2194 H 0.04896 0.565 0.8879 0.0
H2195 H 0.03284 0.54354 0.92566 0.0
H2196 H 0.06727 0.46752 0.9523 0.0
H2197 H 0.09624 0.46673 0.91674 0.0
C2198 C 0.10094 0.50691 0.8823 0.0
C2199 C 0.10143 0.52972 0.86598 0.0
C2200 C 0.08209 0.50528 0.90112 0.0
C2201 C 0.08205 0.55014 0.86797 0.0
C2202 C 0.0632 0.54856 0.88647 0.0
C2203 C 0.04624 0.52642 0.92346 0.0
C2204 C 0.04809 0.50582 0.94177 0.0
C2205 C 0.06341 0.52656 0.90344 0.0
C2206 C 0.06551 0.48375 0.93852 0.0
C2207 C 0.08227 0.4834 0.9183 0.0
H2208 H 0.25955 0.37602 0.5981 0.0
H2209 H 0.24981 0.291 0.56808 0.0
H2210 H 0.27253 0.27331 0.60493 0.0
H2211 H 0.29588 0.2817 0.64491 0.0
H2212 H 0.29972 0.36504 0.67846 0.0
H2213 H 0.28052 0.38391 0.6402 0.0
C2214 C 0.26209 0.3536 0.59981 0.0
C2215 C 0.25295 0.33493 0.58036 0.0
C2216 C 0.27496 0.34335 0.62127 0.0
C2217 C 0.2564 0.30589 0.58282 0.0
C2218 C 0.2697 0.29572 0.60377 0.0
C2219 C 0.29219 0.30395 0.64416 0.0
C2220 C 0.29898 0.3217 0.66481 0.0
C2221 C 0.27921 0.31428 0.62297 0.0
C2222 C 0.2951 0.35075 0.66286 0.0
C2223 C 0.28361 0.36154 0.64111 0.0
H2224 H 0.46924 0.52937 0.22957 0.0
H2225 H 0.40059 0.47189 0.20915 0.0
H2226 H 0.4203 0.46186 0.16945 0.0
H2227 H 0.45685 0.46941 0.14072 0.0
H2228 H 0.52216 0.53236 0.1587 0.0
H2229 H 0.50451 0.53925 0.19938 0.0
C2230 C 0.45866 0.51467 0.21637 0.0
C2231 C 0.43358 0.50137 0.2222 0.0
C2232 C 0.4697 0.50963 0.19326 0.0
C2233 C 0.41987 0.48255 0.20493 0.0
C2234 C 0.43118 0.4767 0.1823 0.0
C2235 C 0.46716 0.485 0.1532 0.0
C2236 C 0.49113 0.50001 0.14624 0.0
C2237 C 0.45604 0.49021 0.17622 0.0
C2238 C 0.50422 0.51963 0.16338 0.0
C2239 C 0.4939 0.52401 0.18672 0.0
H2240 H 0.31235 0.70486 0.93501 0.0
H2241 H 0.22806 0.72074 0.94458 0.0
H2242 H 0.22828 0.75163 0.90879 0.0
H2243 H 0.25155 0.77159 0.87295 0.0
H2244 H 0.33623 0.75647 0.86412 0.0
H2245 H 0.3368 0.72849 0.90156 0.0
C2246 C 0.29408 0.71518 0.9293 0.0
C2247 C 0.27016 0.71023 0.94227 0.0
C2248 C 0.29442 0.73325 0.90886 0.0
C2249 C 0.24675 0.7241 0.93487 0.0
C2250 C 0.24684 0.74179 0.91439 0.0
C2251 C 0.27028 0.76268 0.87949 0.0
C2252 C 0.29373 0.76604 0.86554 0.0
C2253 C 0.27047 0.74627 0.90102 0.0
C2254 C 0.3178 0.75421 0.87435 0.0
C2255 C 0.31815 0.738 0.89573 0.0
H2256 H 0.1674 0.52817 0.71551 0.0
H2257 H 0.09284 0.5248 0.75491 0.0
H2258 H 0.06691 0.5339 0.71667 0.0
H2259 H 0.06556 0.54448 0.67251 0.0
H2260 H 0.1398 0.54648 0.63265 0.0
H2261 H 0.1658 0.53739 0.67086 0.0
C2262 C 0.14544 0.52899 0.71565 0.0
C2263 C 0.13207 0.52574 0.73799 0.0
C2264 C 0.13067 0.53472 0.69367 0.0
C2265 C 0.10363 0.52722 0.73794 0.0
C2266 C 0.08878 0.53259 0.71612 0.0
C2267 C 0.0874 0.54277 0.67211 0.0
C2268 C 0.10064 0.54628 0.64973 0.0
C2269 C 0.10214 0.53673 0.69397 0.0
C2270 C 0.12908 0.54448 0.64969 0.0
C2271 C 0.14396 0.53886 0.67147 0.0
H2272 H 0.17287 0.26761 0.46536 0.0
H2273 H 0.17384 0.35419 0.44236 0.0
H2274 H 0.16938 0.33901 0.39915 0.0
H2275 H 0.18524 0.30354 0.37126 0.0
H2276 H 0.18506 0.21651 0.3935 0.0
H2277 H 0.1684 0.2295 0.43362 0.0
C2278 C 0.1706 0.28306 0.45091 0.0
C2279 C 0.17562 0.31185 0.45669 0.0
C2280 C 0.16929 0.27418 0.42603 0.0
C2281 C 0.17121 0.33179 0.43818 0.0
C2282 C 0.16898 0.32312 0.41337 0.0
C2283 C 0.18041 0.28691 0.38415 0.0
C2284 C 0.18916 0.25953 0.38035 0.0
C2285 C 0.17121 0.29459 0.40729 0.0
C2286 C 0.18084 0.23831 0.39687 0.0
C2287 C 0.17113 0.24566 0.41983 0.0
H2288 H 0.32319 0.34005 0.51069 0.0
H2289 H 0.3067 0.38955 0.44619 0.0
H2290 H 0.35298 0.41142 0.44957 0.0
H2291 H 0.39266 0.42488 0.47698 0.0
H2292 H 0.40497 0.3813 0.54583 0.0
H2293 H 0.36617 0.34855 0.53478 0.0
C2294 C 0.33035 0.35449 0.49664 0.0
C2295 C 0.31191 0.36322 0.47818 0.0
C2296 C 0.3559 0.3689 0.50023 0.0
C2297 C 0.32086 0.38238 0.46034 0.0
C2298 C 0.34709 0.39529 0.46263 0.0
C2299 C 0.38694 0.40809 0.4895 0.0
C2300 C 0.40112 0.40606 0.51253 0.0
C2301 C 0.3639 0.39021 0.48355 0.0
C2302 C 0.39421 0.38354 0.52811 0.0
C2303 C 0.37197 0.36483 0.52183 0.0
H2304 H 0.87653 0.08403 0.48371 0.0
H2305 H 0.84503 0.03966 0.54655 0.0
H2306 H 0.88837 0.01809 0.55356 0.0
H2307 H 0.93643 0.01452 0.54391 0.0
H2308 H 0.9682 0.05941 0.48143 0.0
H2309 H 0.92371 0.07778 0.47225 0.0
C2310 C 0.87901 0.06935 0.49873 0.0
C2311 C 0.8575 0.06367 0.51463 0.0
C2312 C 0.90421 0.05719 0.50289 0.0
C2313 C 0.86119 0.04457 0.53403 0.0
C2314 C 0.88604 0.03223 0.53813 0.0
C2315 C 0.93357 0.02805 0.52811 0.0
C2316 C 0.95579 0.03567 0.51353 0.0
C2317 C 0.90789 0.03881 0.523 0.0
C2318 C 0.95158 0.05325 0.4931 0.0
C2319 C 0.9261 0.06384 0.48782 0.0
H2320 H 0.692 0.10897 0.30093 0.0
H2321 H 0.76761 0.07071 0.31825 0.0
H2322 H 0.7932 0.11235 0.30311 0.0
H2323 H 0.79386 0.15943 0.28403 0.0
H2324 H 0.71767 0.19619 0.26536 0.0
H2325 H 0.69256 0.15504 0.28124 0.0
C2326 C 0.7141 0.11 0.3019 0.0
C2327 C 0.72792 0.08706 0.31115 0.0
C2328 C 0.72856 0.13343 0.29224 0.0
C2329 C 0.75654 0.08833 0.31155 0.0
C2330 C 0.77115 0.11198 0.30264 0.0
C2331 C 0.77177 0.15813 0.28298 0.0
C2332 C 0.75768 0.18077 0.27333 0.0
C2333 C 0.75735 0.1345 0.29257 0.0
C2334 C 0.72903 0.179 0.27255 0.0
C2335 C 0.71463 0.15559 0.28185 0.0
H2336 H 0.71849 0.96955 0.02202 0.0
H2337 H 0.68034 0.90636 0.97148 0.0
H2338 H 0.63776 0.93042 0.97159 0.0
H2339 H 0.61079 0.96748 0.9884 0.0
H2340 H 0.6486 0.02871 0.04094 0.0
H2341 H 0.69226 0.00749 0.03739 0.0
C2342 C 0.70093 0.9611 0.01088 0.0
C2343 C 0.70243 0.93614 0.9969 0.0
C2344 C 0.67657 0.97471 0.01136 0.0
C2345 C 0.67956 0.92547 0.98254 0.0
C2346 C 0.65527 0.93922 0.98256 0.0
C2347 C 0.62871 0.97645 -0.00127 0.0
C2348 C 0.6266 0.99955 0.01491 0.0
C2349 C 0.65347 0.96362 0.9972 0.0
C2350 C 0.64982 0.01084 0.02843 0.0
C2351 C 0.67471 0.99869 0.02647 0.0
H2352 H 0.40138 0.41694 0.32054 0.0
H2353 H 0.32114 0.4488 0.31297 0.0
H2354 H 0.30055 0.40175 0.32014 0.0
H2355 H 0.30536 0.3506 0.32318 0.0
H2356 H 0.38569 0.31885 0.32741 0.0
H2357 H 0.40626 0.36685 0.32735 0.0
C2358 C 0.37939 0.41373 0.32083 0.0
C2359 C 0.36282 0.43622 0.31586 0.0
C2360 C 0.3677 0.38657 0.32422 0.0
C2361 C 0.33436 0.43172 0.31645 0.0
C2362 C 0.32255 0.40483 0.32052 0.0
C2363 C 0.32733 0.35435 0.32457 0.0
C2364 C 0.34406 0.33147 0.325 0.0
C2365 C 0.33901 0.38194 0.32361 0.0
C2366 C 0.3725 0.33633 0.32669 0.0
C2367 C 0.38425 0.3637 0.32666 0.0
H2368 H 0.183 0.6266 0.99542 0.0
H2369 H 0.21892 0.54698 0.00793 0.0
H2370 H 0.17393 0.52468 0.015 0.0
H2371 H 0.1245 0.52815 0.01874 0.0
H2372 H 0.08912 0.60809 0.0065 0.0
H2373 H 0.13395 0.62996 -0.00135 0.0
C2374 C 0.18107 0.60427 -0.00061 0.0
C2375 C 0.20443 0.58851 0.00103 0.0
C2376 C 0.15525 0.59173 0.00392 0.0
C2377 C 0.20136 0.55964 0.00643 0.0
C2378 C 0.17563 0.54691 0.01065 0.0
C2379 C 0.12663 0.55042 0.01461 0.0
C2380 C 0.10345 0.56649 0.01343 0.0
C2381 C 0.15248 0.56284 0.00977 0.0
C2382 C 0.10657 0.59524 0.00768 0.0
C2383 C 0.1322 0.60775 0.00305 0.0
H2384 H 0.71944 0.91147 0.3276 0.0
H2385 H 0.76497 0.94918 0.26867 0.0
H2386 H 0.78741 0.90558 0.26248 0.0
H2387 H 0.79173 0.8559 0.2714 0.0
H2388 H 0.74617 0.81706 0.3297 0.0
H2389 H 0.7265 0.86199 0.33872 0.0
C2390 C 0.73447 0.9102 0.31359 0.0
C2391 C 0.74026 0.93351 0.29847 0.0
C2392 C 0.74729 0.88484 0.30993 0.0
C2393 C 0.7599 0.93154 0.28046 0.0
C2394 C 0.7728 0.90659 0.27687 0.0
C2395 C 0.77773 0.85727 0.28628 0.0
C2396 C 0.77027 0.83308 0.29969 0.0
C2397 C 0.76627 0.88297 0.29115 0.0
C2398 C 0.75224 0.83535 0.31903 0.0
C2399 C 0.74087 0.86101 0.32413 0.0
H2400 H 0.83094 0.08438 0.7749 0.0
H2401 H 0.88658 0.11079 0.83594 0.0
H2402 H 0.86895 0.15791 0.8352 0.0
H2403 H 0.83949 0.19222 0.81562 0.0
H2404 H 0.78524 0.1657 0.75356 0.0
H2405 H 0.80048 0.11787 0.75647 0.0
C2406 C 0.83914 0.10035 0.78818 0.0
C2407 C 0.86015 0.09409 0.80539 0.0
C2408 C 0.82918 0.12739 0.78744 0.0
C2409 C 0.87047 0.11506 0.82246 0.0
C2410 C 0.86041 0.14201 0.82203 0.0
C2411 C 0.83077 0.1759 0.80291 0.0
C2412 C 0.81128 0.18257 0.78435 0.0
C2413 C 0.84 0.1485 0.80438 0.0
C2414 C 0.80031 0.16119 0.76795 0.0
C2415 C 0.80905 0.13383 0.76958 0.0
loop_
_geom_bond_atom_site_label_1
_geom_bond_atom_site_label_2
_geom_bond_distance
_geom_bond_site_symmetry_2
_ccdc_geom_bond_type
O0 Cd1 2.223 . S
O0 C8 1.315 . S
Cd1 O0 2.223 . S
Cd1 O4 2.297 . S
Cd1 O5 2.439 . S
Cd1 O11 2.240 . S
Cd2 O3 2.240 . S
Cd2 O10 2.223 . S
Cd2 O12 2.297 . S
Cd2 O13 2.439 . S
O3 Cd2 2.240 . S
O3 C8 1.279 . S
O4 Cd1 2.297 . S
O4 C6 1.247 . S
O5 Cd1 2.439 . S
O5 C6 1.208 . S
C6 O4 1.247 . S
C6 O5 1.208 . S
C7 O12 1.247 . S
C7 O13 1.208 . S
C8 O0 1.315 . S
C8 O3 1.279 . S
C9 O10 1.315 . S
C9 O11 1.279 . S
O10 Cd2 2.223 . S
O10 C9 1.315 . S
O11 Cd1 2.240 . S
O11 C9 1.279 . S
O12 Cd2 2.297 . S
O12 C7 1.247 . S
O13 Cd2 2.439 . S
O13 C7 1.208 . S
O14 Cd15 2.223 . S
O14 C22 1.315 . S
Cd15 O14 2.223 . S
Cd15 O18 2.297 . S
Cd15 O19 2.439 . S
Cd15 O25 2.240 . S
Cd16 O17 2.240 . S
Cd16 O24 2.223 . S
Cd16 O26 2.297 1_455 S
Cd16 O27 2.439 1_455 S
O17 Cd16 2.240 . S
O17 C22 1.279 . S
O18 Cd15 2.297 . S
O18 C20 1.247 . S
O19 Cd15 2.439 . S
O19 C20 1.208 . S
C20 O18 1.247 . S
C20 O19 1.208 . S
C21 O26 1.247 . S
C21 O27 1.208 . S
C22 O14 1.315 . S
C22 O17 1.279 . S
C23 O24 1.315 . S
C23 O25 1.279 . S
O24 Cd16 2.223 . S
O24 C23 1.315 . S
O25 Cd15 2.240 . S
O25 C23 1.279 . S
O26 Cd16 2.297 1_655 S
O26 C21 1.247 . S
O27 Cd16 2.439 1_655 S
O27 C21 1.208 . S
O28 Cd29 2.223 . S
O28 C36 1.315 . S
Cd29 O28 2.223 . S
Cd29 O32 2.297 . S
Cd29 O33 2.439 . S
Cd29 O39 2.240 . S
Cd30 O31 2.240 . S
Cd30 O38 2.223 . S
Cd30 O40 2.297 . S
Cd30 O41 2.439 . S
O31 Cd30 2.240 . S
O31 C36 1.279 . S
O32 Cd29 2.297 . S
O32 C34 1.247 . S
O33 Cd29 2.439 . S
O33 C34 1.208 . S
C34 O32 1.247 . S
C34 O33 1.208 . S
C35 O40 1.247 . S
C35 O41 1.208 . S
C36 O28 1.315 . S
C36 O31 1.279 . S
C37 O38 1.315 . S
C37 O39 1.279 . S
O38 Cd30 2.223 . S
O38 C37 1.315 . S
O39 Cd29 2.240 . S
O39 C37 1.279 . S
O40 Cd30 2.297 . S
O40 C35 1.247 . S
O41 Cd30 2.439 . S
O41 C35 1.208 . S
O42 Cd43 2.223 . S
O42 C50 1.315 . S
Cd43 O42 2.223 . S
Cd43 O46 2.297 . S
Cd43 O47 2.439 . S
Cd43 O53 2.240 . S
Cd44 O45 2.240 . S
Cd44 O52 2.223 . S
Cd44 O54 2.297 . S
Cd44 O55 2.439 . S
O45 Cd44 2.240 . S
O45 C50 1.279 . S
O46 Cd43 2.297 . S
O46 C48 1.247 . S
O47 Cd43 2.439 . S
O47 C48 1.208 . S
C48 O46 1.247 . S
C48 O47 1.208 . S
C49 O54 1.247 . S
C49 O55 1.208 . S
C50 O42 1.315 . S
C50 O45 1.279 . S
C51 O52 1.315 . S
C51 O53 1.279 . S
O52 Cd44 2.223 . S
O52 C51 1.315 . S
O53 Cd43 2.240 . S
O53 C51 1.279 . S
O54 Cd44 2.297 . S
O54 C49 1.247 . S
O55 Cd44 2.439 . S
O55 C49 1.208 . S
O56 Cd57 2.223 . S
O56 C64 1.315 . S
Cd57 O56 2.223 . S
Cd57 O60 2.297 1_545 S
Cd57 O61 2.439 1_545 S
Cd57 O67 2.240 . S
Cd58 O59 2.240 . S
Cd58 O66 2.223 . S
Cd58 O68 2.297 . S
Cd58 O69 2.439 . S
O59 Cd58 2.240 . S
O59 C64 1.279 . S
O60 Cd57 2.297 1_565 S
O60 C62 1.247 . S
O61 Cd57 2.439 1_565 S
O61 C62 1.208 . S
C62 O60 1.247 . S
C62 O61 1.208 . S
C63 O68 1.247 . S
C63 O69 1.208 . S
C64 O56 1.315 . S
C64 O59 1.279 . S
C65 O66 1.315 . S
C65 O67 1.279 . S
O66 Cd58 2.223 . S
O66 C65 1.315 . S
O67 Cd57 2.240 . S
O67 C65 1.279 . S
O68 Cd58 2.297 . S
O68 C63 1.247 . S
O69 Cd58 2.439 . S
O69 C63 1.208 . S
O70 Cd71 2.223 . S
O70 C78 1.315 . S
Cd71 O70 2.223 . S
Cd71 O74 2.297 . S
Cd71 O75 2.439 . S
Cd71 O81 2.240 . S
Cd72 O73 2.240 . S
Cd72 O80 2.223 . S
Cd72 O82 2.297 . S
Cd72 O83 2.439 . S
O73 Cd72 2.240 . S
O73 C78 1.279 . S
O74 Cd71 2.297 . S
O74 C76 1.247 . S
O75 Cd71 2.439 . S
O75 C76 1.208 . S
C76 O74 1.247 . S
C76 O75 1.208 . S
C77 O82 1.247 . S
C77 O83 1.208 . S
C78 O70 1.315 . S
C78 O73 1.279 . S
C79 O80 1.315 . S
C79 O81 1.279 . S
O80 Cd72 2.223 . S
O80 C79 1.315 . S
O81 Cd71 2.240 . S
O81 C79 1.279 . S
O82 Cd72 2.297 . S
O82 C77 1.247 . S
O83 Cd72 2.439 . S
O83 C77 1.208 . S
O84 Cd85 2.223 . S
O84 C92 1.315 . S
Cd85 O84 2.223 . S
Cd85 O88 2.297 . S
Cd85 O89 2.439 . S
Cd85 O95 2.240 1_545 S
Cd86 O87 2.240 . S
Cd86 O94 2.223 1_545 S
Cd86 O96 2.297 1_545 S
Cd86 O97 2.439 . S
O87 Cd86 2.240 . S
O87 C92 1.279 . S
O88 Cd85 2.297 . S
O88 C90 1.247 . S
O89 Cd85 2.439 . S
O89 C90 1.208 . S
C90 O88 1.247 . S
C90 O89 1.208 . S
C91 O96 1.247 1_545 S
C91 O97 1.208 . S
C92 O84 1.315 . S
C92 O87 1.279 . S
C93 O94 1.315 . S
C93 O95 1.279 . S
O94 Cd86 2.223 1_565 S
O94 C93 1.315 . S
O95 Cd85 2.240 1_565 S
O95 C93 1.279 . S
O96 Cd86 2.297 1_565 S
O96 C91 1.247 1_565 S
O97 Cd86 2.439 . S
O97 C91 1.208 . S
O98 Cd99 2.223 . S
O98 C106 1.315 . S
Cd99 O98 2.223 . S
Cd99 O102 2.297 . S
Cd99 O103 2.439 . S
Cd99 O109 2.240 . S
Cd100 O101 2.240 . S
Cd100 O108 2.223 . S
Cd100 O110 2.297 1_554 S
Cd100 O111 2.439 1_554 S
O101 Cd100 2.240 . S
O101 C106 1.279 . S
O102 Cd99 2.297 . S
O102 C104 1.247 . S
O103 Cd99 2.439 . S
O103 C104 1.208 . S
C104 O102 1.247 . S
C104 O103 1.208 . S
C105 O110 1.247 . S
C105 O111 1.208 . S
C106 O98 1.315 . S
C106 O101 1.279 . S
C107 O108 1.315 . S
C107 O109 1.279 . S
O108 Cd100 2.223 . S
O108 C107 1.315 . S
O109 Cd99 2.240 . S
O109 C107 1.279 . S
O110 Cd100 2.297 1_556 S
O110 C105 1.247 . S
O111 Cd100 2.439 1_556 S
O111 C105 1.208 . S
O112 Cd113 2.223 . S
O112 C120 1.315 . S
Cd113 O112 2.223 . S
Cd113 O116 2.297 . S
Cd113 O117 2.439 . S
Cd113 O123 2.240 . S
Cd114 O115 2.240 . S
Cd114 O122 2.223 . S
Cd114 O124 2.297 . S
Cd114 O125 2.439 . S
O115 Cd114 2.240 . S
O115 C120 1.279 . S
O116 Cd113 2.297 . S
O116 C118 1.247 . S
O117 Cd113 2.439 . S
O117 C118 1.208 . S
C118 O116 1.247 . S
C118 O117 1.208 . S
C119 O124 1.264 . S
C119 O125 1.231 . S
C120 O112 1.315 . S
C120 O115 1.279 . S
C121 O122 1.315 . S
C121 O123 1.279 . S
O122 Cd114 2.223 . S
O122 C121 1.315 . S
O123 Cd113 2.240 . S
O123 C121 1.279 . S
O124 Cd114 2.297 . S
O124 C119 1.264 . S
O125 Cd114 2.439 . S
O125 C119 1.231 . S
O126 Cd127 2.223 . S
O126 C134 1.315 . S
Cd127 O126 2.223 . S
Cd127 O130 2.297 . S
Cd127 O131 2.439 . S
Cd127 O137 2.240 . S
Cd128 O129 2.240 . S
Cd128 O136 2.223 . S
Cd128 O138 2.297 . S
Cd128 O139 2.439 . S
O129 Cd128 2.240 . S
O129 C134 1.279 . S
O130 Cd127 2.297 . S
O130 C132 1.247 . S
O131 Cd127 2.439 . S
O131 C132 1.208 . S
C132 O130 1.247 . S
C132 O131 1.208 . S
C133 O138 1.247 . S
C133 O139 1.208 . S
C134 O126 1.315 . S
C134 O129 1.279 . S
C135 O136 1.315 . S
C135 O137 1.279 . S
O136 Cd128 2.223 . S
O136 C135 1.315 . S
O137 Cd127 2.240 . S
O137 C135 1.279 . S
O138 Cd128 2.297 . S
O138 C133 1.247 . S
O139 Cd128 2.439 . S
O139 C133 1.208 . S
O140 Cd141 2.223 . S
O140 C148 1.315 . S
Cd141 O140 2.223 . S
Cd141 O144 2.297 . S
Cd141 O145 2.439 . S
Cd141 O151 2.240 . S
Cd142 O143 2.240 . S
Cd142 O150 2.223 . S
Cd142 O152 2.297 . S
Cd142 O153 2.439 . S
O143 Cd142 2.240 . S
O143 C148 1.279 . S
O144 Cd141 2.297 . S
O144 C146 1.247 . S
O145 Cd141 2.439 . S
O145 C146 1.208 . S
C146 O144 1.247 . S
C146 O145 1.208 . S
C147 O152 1.247 . S
C147 O153 1.208 . S
C148 O140 1.315 . S
C148 O143 1.279 . S
C149 O150 1.315 . S
C149 O151 1.279 . S
O150 Cd142 2.223 . S
O150 C149 1.315 . S
O151 Cd141 2.240 . S
O151 C149 1.279 . S
O152 Cd142 2.297 . S
O152 C147 1.247 . S
O153 Cd142 2.439 . S
O153 C147 1.208 . S
O154 Cd155 2.223 . S
O154 C162 1.315 . S
Cd155 O154 2.223 . S
Cd155 O158 2.297 . S
Cd155 O159 2.439 . S
Cd155 O165 2.240 . S
Cd156 O157 2.240 . S
Cd156 O164 2.223 . S
Cd156 O166 2.297 . S
Cd156 O167 2.439 . S
O157 Cd156 2.240 . S
O157 C162 1.279 . S
O158 Cd155 2.297 . S
O158 C160 1.247 . S
O159 Cd155 2.439 . S
O159 C160 1.208 . S
C160 O158 1.247 . S
C160 O159 1.208 . S
C161 O166 1.247 . S
C161 O167 1.208 . S
C162 O154 1.315 . S
C162 O157 1.279 . S
C163 O164 1.315 . S
C163 O165 1.279 . S
O164 Cd156 2.223 . S
O164 C163 1.315 . S
O165 Cd155 2.240 . S
O165 C163 1.279 . S
O166 Cd156 2.297 . S
O166 C161 1.247 . S
O167 Cd156 2.439 . S
O167 C161 1.208 . S
O168 Cd169 2.223 . S
O168 C176 1.315 . S
Cd169 O168 2.223 . S
Cd169 O172 2.297 . S
Cd169 O173 2.439 1_455 S
Cd169 O179 2.240 1_455 S
Cd170 O171 2.240 1_655 S
Cd170 O178 2.223 1_655 S
Cd170 O180 2.297 . S
Cd170 O181 2.439 . S
O171 Cd170 2.240 1_455 S
O171 C176 1.279 . S
O172 Cd169 2.297 . S
O172 C174 1.247 . S
O173 Cd169 2.439 1_655 S
O173 C174 1.208 1_655 S
C174 O172 1.247 . S
C174 O173 1.208 1_455 S
C175 O180 1.247 . S
C175 O181 1.208 . S
C176 O168 1.315 . S
C176 O171 1.279 . S
C177 O178 1.315 . S
C177 O179 1.279 1_455 S
O178 Cd170 2.223 1_455 S
O178 C177 1.315 . S
O179 Cd169 2.240 1_655 S
O179 C177 1.279 1_655 S
O180 Cd170 2.297 . S
O180 C175 1.247 . S
O181 Cd170 2.439 . S
O181 C175 1.208 . S
O182 Cd183 2.223 . S
O182 C190 1.315 . S
Cd183 O182 2.223 . S
Cd183 O186 2.297 1_455 S
Cd183 O187 2.439 1_455 S
Cd183 O193 2.240 . S
Cd184 O185 2.240 . S
Cd184 O192 2.223 . S
Cd184 O194 2.297 . S
Cd184 O195 2.439 . S
O185 Cd184 2.240 . S
O185 C190 1.279 . S
O186 Cd183 2.297 1_655 S
O186 C188 1.247 . S
O187 Cd183 2.439 1_655 S
O187 C188 1.208 . S
C188 O186 1.247 . S
C188 O187 1.208 . S
C189 O194 1.247 . S
C189 O195 1.208 . S
C190 O182 1.315 . S
C190 O185 1.279 . S
C191 O192 1.315 . S
C191 O193 1.279 . S
O192 Cd184 2.223 . S
O192 C191 1.315 . S
O193 Cd183 2.240 . S
O193 C191 1.279 . S
O194 Cd184 2.297 . S
O194 C189 1.247 . S
O195 Cd184 2.439 . S
O195 C189 1.208 . S
O196 Cd197 2.223 . S
O196 C204 1.315 . S
Cd197 O196 2.223 . S
Cd197 O200 2.297 . S
Cd197 O201 2.439 . S
Cd197 O207 2.240 . S
Cd198 O199 2.240 . S
Cd198 O206 2.223 . S
Cd198 O208 2.297 . S
Cd198 O209 2.439 . S
O199 Cd198 2.240 . S
O199 C204 1.279 . S
O200 Cd197 2.297 . S
O200 C202 1.247 . S
O201 Cd197 2.439 . S
O201 C202 1.208 . S
C202 O200 1.247 . S
C202 O201 1.208 . S
C203 O208 1.247 . S
C203 O209 1.208 . S
C204 O196 1.315 . S
C204 O199 1.279 . S
C205 O206 1.315 . S
C205 O207 1.279 . S
O206 Cd198 2.223 . S
O206 C205 1.315 . S
O207 Cd197 2.240 . S
O207 C205 1.279 . S
O208 Cd198 2.297 . S
O208 C203 1.247 . S
O209 Cd198 2.439 . S
O209 C203 1.208 . S
O210 Cd211 2.223 . S
O210 C218 1.315 . S
Cd211 O210 2.223 . S
Cd211 O214 2.297 . S
Cd211 O215 2.439 . S
Cd211 O221 2.240 . S
Cd212 O213 2.240 . S
Cd212 O220 2.223 . S
Cd212 O222 2.297 . S
Cd212 O223 2.439 . S
O213 Cd212 2.240 . S
O213 C218 1.279 . S
O214 Cd211 2.297 . S
O214 C216 1.247 . S
O215 Cd211 2.439 . S
O215 C216 1.208 . S
C216 O214 1.247 . S
C216 O215 1.208 . S
C217 O222 1.247 . S
C217 O223 1.208 . S
C218 O210 1.315 . S
C218 O213 1.279 . S
C219 O220 1.315 . S
C219 O221 1.279 . S
O220 Cd212 2.223 . S
O220 C219 1.315 . S
O221 Cd211 2.240 . S
O221 C219 1.279 . S
O222 Cd212 2.297 . S
O222 C217 1.247 . S
O223 Cd212 2.439 . S
O223 C217 1.208 . S
O224 Cd225 2.223 . S
O224 C232 1.315 . S
Cd225 O224 2.223 . S
Cd225 O228 2.297 . S
Cd225 O229 2.439 . S
Cd225 O235 2.240 1_545 S
Cd226 O227 2.240 1_565 S
Cd226 O234 2.223 . S
Cd226 O236 2.297 . S
Cd226 O237 2.439 1_565 S
O227 Cd226 2.240 1_545 S
O227 C232 1.279 . S
O228 Cd225 2.297 . S
O228 C230 1.247 . S
O229 Cd225 2.439 . S
O229 C230 1.208 . S
C230 O228 1.247 . S
C230 O229 1.208 . S
C231 O236 1.247 . S
C231 O237 1.208 1_565 S
C232 O224 1.315 . S
C232 O227 1.279 . S
C233 O234 1.315 . S
C233 O235 1.279 . S
O234 Cd226 2.223 . S
O234 C233 1.315 . S
O235 Cd225 2.240 1_565 S
O235 C233 1.279 . S
O236 Cd226 2.297 . S
O236 C231 1.247 . S
O237 Cd226 2.439 1_545 S
O237 C231 1.208 1_545 S
O238 Cd239 2.223 . S
O238 C246 1.315 . S
Cd239 O238 2.223 . S
Cd239 O242 2.297 . S
Cd239 O243 2.439 . S
Cd239 O249 2.240 . S
Cd240 O241 2.240 . S
Cd240 O248 2.223 . S
Cd240 O250 2.297 . S
Cd240 O251 2.439 . S
O241 Cd240 2.240 . S
O241 C246 1.279 . S
O242 Cd239 2.297 . S
O242 C244 1.247 . S
O243 Cd239 2.439 . S
O243 C244 1.208 . S
C244 O242 1.247 . S
C244 O243 1.208 . S
C245 O250 1.247 . S
C245 O251 1.208 . S
C246 O238 1.315 . S
C246 O241 1.279 . S
C247 O248 1.315 . S
C247 O249 1.279 . S
O248 Cd240 2.223 . S
O248 C247 1.315 . S
O249 Cd239 2.240 . S
O249 C247 1.279 . S
O250 Cd240 2.297 . S
O250 C245 1.247 . S
O251 Cd240 2.439 . S
O251 C245 1.208 . S
O252 Cd253 2.223 . S
O252 C260 1.315 . S
Cd253 O252 2.223 . S
Cd253 O256 2.297 1_545 S
Cd253 O257 2.439 1_545 S
Cd253 O263 2.240 . S
Cd254 O255 2.240 . S
Cd254 O262 2.223 . S
Cd254 O264 2.297 . S
Cd254 O265 2.439 . S
O255 Cd254 2.240 . S
O255 C260 1.279 . S
O256 Cd253 2.297 1_565 S
O256 C258 1.247 . S
O257 Cd253 2.439 1_565 S
O257 C258 1.208 . S
C258 O256 1.247 . S
C258 O257 1.208 . S
C259 O264 1.247 . S
C259 O265 1.208 . S
C260 O252 1.315 . S
C260 O255 1.279 . S
C261 O262 1.315 . S
C261 O263 1.279 . S
O262 Cd254 2.223 . S
O262 C261 1.315 . S
O263 Cd253 2.240 . S
O263 C261 1.279 . S
O264 Cd254 2.297 . S
O264 C259 1.247 . S
O265 Cd254 2.439 . S
O265 C259 1.208 . S
O266 Cd267 2.223 . S
O266 C274 1.315 . S
Cd267 O266 2.223 . S
Cd267 O270 2.297 . S
Cd267 O271 2.439 . S
Cd267 O277 2.240 . S
Cd268 O269 2.240 . S
Cd268 O276 2.223 . S
Cd268 O278 2.297 1_554 S
Cd268 O279 2.439 1_554 S
O269 Cd268 2.240 . S
O269 C274 1.279 . S
O270 Cd267 2.297 . S
O270 C272 1.247 . S
O271 Cd267 2.439 . S
O271 C272 1.208 . S
C272 O270 1.247 . S
C272 O271 1.208 . S
C273 O278 1.247 . S
C273 O279 1.208 . S
C274 O266 1.315 . S
C274 O269 1.279 . S
C275 O276 1.315 . S
C275 O277 1.279 . S
O276 Cd268 2.223 . S
O276 C275 1.315 . S
O277 Cd267 2.240 . S
O277 C275 1.279 . S
O278 Cd268 2.297 1_556 S
O278 C273 1.247 . S
O279 Cd268 2.439 1_556 S
O279 C273 1.208 . S
O280 Cd281 2.223 . S
O280 C288 1.315 . S
Cd281 O280 2.223 . S
Cd281 O284 2.297 . S
Cd281 O285 2.439 1_554 S
Cd281 O291 2.240 1_554 S
Cd282 O283 2.240 1_556 S
Cd282 O290 2.223 1_556 S
Cd282 O292 2.297 . S
Cd282 O293 2.439 . S
O283 Cd282 2.240 1_554 S
O283 C288 1.279 . S
O284 Cd281 2.297 . S
O284 C286 1.247 . S
O285 Cd281 2.439 1_556 S
O285 C286 1.208 1_556 S
C286 O284 1.247 . S
C286 O285 1.208 1_554 S
C287 O292 1.247 . S
C287 O293 1.208 . S
C288 O280 1.315 . S
C288 O283 1.279 . S
C289 O290 1.315 . S
C289 O291 1.279 1_554 S
O290 Cd282 2.223 1_554 S
O290 C289 1.315 . S
O291 Cd281 2.240 1_556 S
O291 C289 1.279 1_556 S
O292 Cd282 2.297 . S
O292 C287 1.247 . S
O293 Cd282 2.439 . S
O293 C287 1.208 . S
O294 Cd295 2.223 . S
O294 C302 1.315 . S
Cd295 O294 2.223 . S
Cd295 O298 2.297 . S
Cd295 O299 2.439 . S
Cd295 O305 2.240 . S
Cd296 O297 2.240 . S
Cd296 O304 2.223 . S
Cd296 O306 2.297 . S
Cd296 O307 2.439 . S
O297 Cd296 2.240 . S
O297 C302 1.279 . S
O298 Cd295 2.297 . S
O298 C300 1.247 . S
O299 Cd295 2.439 . S
O299 C300 1.208 . S
C300 O298 1.247 . S
C300 O299 1.208 . S
C301 O306 1.247 . S
C301 O307 1.208 . S
C302 O294 1.315 . S
C302 O297 1.279 . S
C303 O304 1.315 . S
C303 O305 1.279 . S
O304 Cd296 2.223 . S
O304 C303 1.315 . S
O305 Cd295 2.240 . S
O305 C303 1.279 . S
O306 Cd296 2.297 . S
O306 C301 1.247 . S
O307 Cd296 2.439 . S
O307 C301 1.208 . S
O308 Cd309 2.223 . S
O308 C316 1.315 . S
Cd309 O308 2.223 . S
Cd309 O312 2.297 . S
Cd309 O313 2.439 . S
Cd309 O319 2.240 . S
Cd310 O311 2.240 . S
Cd310 O318 2.223 . S
Cd310 O320 2.297 . S
Cd310 O321 2.439 . S
O311 Cd310 2.240 . S
O311 C316 1.279 . S
O312 Cd309 2.297 . S
O312 C314 1.247 . S
O313 Cd309 2.439 . S
O313 C314 1.208 . S
C314 O312 1.247 . S
C314 O313 1.208 . S
C315 O320 1.247 . S
C315 O321 1.208 . S
C316 O308 1.315 . S
C316 O311 1.279 . S
C317 O318 1.315 . S
C317 O319 1.279 . S
O318 Cd310 2.223 . S
O318 C317 1.315 . S
O319 Cd309 2.240 . S
O319 C317 1.279 . S
O320 Cd310 2.297 . S
O320 C315 1.247 . S
O321 Cd310 2.439 . S
O321 C315 1.208 . S
O322 Cd323 2.223 . S
O322 C330 1.315 . S
Cd323 O322 2.223 . S
Cd323 O326 2.297 . S
Cd323 O327 2.439 . S
Cd323 O333 2.240 . S
Cd324 O325 2.240 . S
Cd324 O332 2.223 . S
Cd324 O334 2.297 . S
Cd324 O335 2.439 . S
O325 Cd324 2.240 . S
O325 C330 1.279 . S
O326 Cd323 2.297 . S
O326 C328 1.247 . S
O327 Cd323 2.439 . S
O327 C328 1.208 . S
C328 O326 1.247 . S
C328 O327 1.208 . S
C329 O334 1.247 . S
C329 O335 1.208 . S
C330 O322 1.315 . S
C330 O325 1.279 . S
C331 O332 1.315 . S
C331 O333 1.279 . S
O332 Cd324 2.223 . S
O332 C331 1.315 . S
O333 Cd323 2.240 . S
O333 C331 1.279 . S
O334 Cd324 2.297 . S
O334 C329 1.247 . S
O335 Cd324 2.439 . S
O335 C329 1.208 . S
C336 O352 1.251 1_556 S
C336 O354 1.254 . S
N337 C338 1.333 . S
N337 C342 1.307 . S
N337 Zn343 2.020 1_655 S
C338 N337 1.333 . S
C338 C339 1.379 . S
C338 H356 0.952 1_565 S
C339 C338 1.379 . S
C339 C340 1.390 . S
C339 H366 0.941 1_565 S
C340 C339 1.390 . S
C340 C341 1.357 . S
C341 C340 1.357 . S
C341 C342 1.370 . S
C341 H367 0.950 . S
C342 N337 1.307 . S
C342 C341 1.370 . S
C342 H360 0.948 . S
Zn343 N337 2.020 1_455 S
Zn343 O352 2.039 1_565 S
Zn343 O358 2.034 1_565 S
Zn343 O362 2.025 . S
Zn343 O364 2.024 . S
C344 O363 1.246 . S
C344 O364 1.249 . S
N345 C346 1.307 . S
N345 C347 1.333 . S
N345 Zn351 2.020 . S
C346 N345 1.307 . S
C346 C350 1.370 1_554 S
C346 H357 0.948 1_554 S
C347 N345 1.333 . S
C347 C348 1.379 . S
C347 H355 0.952 1_545 S
C348 C347 1.379 . S
C348 C349 1.390 . S
C348 H368 0.949 . S
C349 C348 1.390 . S
C349 C350 1.357 1_554 S
C350 C346 1.370 1_556 S
C350 C349 1.357 1_556 S
C350 H369 0.950 . S
Zn351 N345 2.020 . S
Zn351 O354 2.025 1_554 S
Zn351 O359 2.024 . S
Zn351 O361 2.031 1_545 S
Zn351 O363 2.034 1_545 S
O352 C336 1.251 1_554 S
O352 Zn343 2.039 1_545 S
C353 O358 1.246 . S
C353 O359 1.249 . S
O354 C336 1.254 . S
O354 Zn351 2.025 1_556 S
H355 C347 0.952 1_565 S
H356 C338 0.952 1_545 S
H357 C346 0.948 1_556 S
O358 Zn343 2.034 1_545 S
O358 C353 1.246 . S
O359 Zn351 2.024 . S
O359 C353 1.249 . S
H360 C342 0.948 . S
O361 Zn351 2.031 1_565 S
O361 C365 1.259 . S
O362 Zn343 2.025 . S
O362 C365 1.254 . S
O363 C344 1.246 . S
O363 Zn351 2.034 1_565 S
O364 Zn343 2.024 . S
O364 C344 1.249 . S
C365 O361 1.259 . S
C365 O362 1.254 . S
H366 C339 0.941 1_545 S
H367 C341 0.950 . S
H368 C348 0.949 . S
H369 C350 0.950 . S
C370 O386 1.251 . S
C370 O388 1.254 . S
N371 C372 1.333 . S
N371 C376 1.307 . S
N371 Zn377 2.020 . S
C372 N371 1.333 . S
C372 C373 1.379 . S
C372 H390 0.952 . S
C373 C372 1.379 . S
C373 C374 1.390 . S
C373 H400 0.949 . S
C374 C373 1.390 . S
C374 C375 1.357 . S
C375 C374 1.357 . S
C375 C376 1.370 . S
C375 H401 0.950 . S
C376 N371 1.307 . S
C376 C375 1.370 . S
C376 H394 0.948 . S
Zn377 N371 2.020 . S
Zn377 O386 2.039 . S
Zn377 O392 2.034 . S
Zn377 O396 2.025 . S
Zn377 O398 2.024 . S
C378 O397 1.246 . S
C378 O398 1.249 . S
N379 C380 1.307 . S
N379 C381 1.333 . S
N379 Zn385 2.020 . S
C380 N379 1.307 . S
C380 C384 1.370 . S
C380 H391 0.948 . S
C381 N379 1.333 . S
C381 C382 1.379 . S
C381 H389 0.952 . S
C382 C381 1.379 . S
C382 C383 1.390 . S
C382 H402 0.949 . S
C383 C382 1.390 . S
C383 C384 1.357 . S
C384 C380 1.370 . S
C384 C383 1.357 . S
C384 H403 0.950 . S
Zn385 N379 2.020 . S
Zn385 O388 2.025 . S
Zn385 O393 2.024 . S
Zn385 O395 2.039 . S
Zn385 O397 2.034 . S
O386 C370 1.251 . S
O386 Zn377 2.039 . S
C387 O392 1.246 . S
C387 O393 1.249 . S
O388 C370 1.254 . S
O388 Zn385 2.025 . S
H389 C381 0.952 . S
H390 C372 0.952 . S
H391 C380 0.948 . S
O392 Zn377 2.034 . S
O392 C387 1.246 . S
O393 Zn385 2.024 . S
O393 C387 1.249 . S
H394 C376 0.948 . S
O395 Zn385 2.039 . S
O395 C399 1.251 . S
O396 Zn377 2.025 . S
O396 C399 1.254 . S
O397 C378 1.246 . S
O397 Zn385 2.034 . S
O398 Zn377 2.024 . S
O398 C378 1.249 . S
C399 O395 1.251 . S
C399 O396 1.254 . S
H400 C373 0.949 . S
H401 C375 0.950 . S
H402 C382 0.949 . S
H403 C384 0.950 . S
C404 O420 1.251 . S
C404 O422 1.254 . S
N405 C406 1.333 . S
N405 C410 1.307 . S
N405 Zn411 2.055 . S
C406 N405 1.333 . S
C406 C407 1.379 . S
C406 H424 0.952 . S
C407 C406 1.379 . S
C407 C408 1.390 . S
C407 H434 0.949 . S
C408 C407 1.390 . S
C408 C409 1.357 . S
C409 C408 1.357 . S
C409 C410 1.370 . S
C409 H435 0.950 . S
C410 N405 1.307 . S
C410 C409 1.370 . S
C410 H428 0.948 . S
Zn411 N405 2.055 . S
Zn411 O420 2.024 1_565 S
Zn411 O426 2.014 1_565 S
Zn411 O430 2.029 . S
Zn411 O432 2.032 . S
C412 O431 1.246 . S
C412 O432 1.249 1_545 S
N413 C414 1.307 . S
N413 C415 1.333 . S
N413 Zn419 2.020 . S
C414 N413 1.307 . S
C414 C418 1.370 . S
C414 H425 0.948 . S
C415 N413 1.333 . S
C415 C416 1.379 . S
C415 H423 0.952 . S
C416 C415 1.379 . S
C416 C417 1.390 . S
C416 H436 0.949 . S
C417 C416 1.390 . S
C417 C418 1.357 . S
C418 C414 1.370 . S
C418 C417 1.357 . S
C418 H437 0.950 . S
Zn419 N413 2.020 . S
Zn419 O422 2.025 . S
Zn419 O427 2.024 . S
Zn419 O429 2.039 . S
Zn419 O431 2.034 . S
O420 C404 1.251 . S
O420 Zn411 2.024 1_545 S
C421 O426 1.246 . S
C421 O427 1.249 . S
O422 C404 1.254 . S
O422 Zn419 2.025 . S
H423 C415 0.952 . S
H424 C406 0.952 . S
H425 C414 0.948 . S
O426 Zn411 2.014 1_545 S
O426 C421 1.246 . S
O427 Zn419 2.024 . S
O427 C421 1.249 . S
H428 C410 0.948 . S
O429 Zn419 2.039 . S
O429 C433 1.251 . S
O430 Zn411 2.029 . S
O430 C433 1.254 1_565 S
O431 C412 1.246 . S
O431 Zn419 2.034 . S
O432 Zn411 2.032 . S
O432 C412 1.249 1_565 S
C433 O429 1.251 . S
C433 O430 1.254 1_545 S
H434 C407 0.949 . S
H435 C409 0.950 . S
H436 C416 0.949 . S
H437 C418 0.950 . S
C438 O454 1.251 . S
C438 O456 1.254 . S
N439 C440 1.333 . S
N439 C444 1.307 . S
N439 Zn445 2.020 . S
C440 N439 1.333 . S
C440 C441 1.379 . S
C440 H458 0.952 . S
C441 C440 1.379 . S
C441 C442 1.390 . S
C441 H468 0.949 . S
C442 C441 1.390 . S
C442 C443 1.357 . S
C443 C442 1.357 . S
C443 C444 1.370 . S
C443 H469 0.950 . S
C444 N439 1.307 . S
C444 C443 1.370 . S
C444 H462 0.948 . S
Zn445 N439 2.020 . S
Zn445 O454 2.039 . S
Zn445 O460 2.034 . S
Zn445 O464 2.025 . S
Zn445 O466 2.024 . S
C446 O465 1.246 . S
C446 O466 1.249 . S
N447 C448 1.307 . S
N447 C449 1.333 . S
N447 Zn453 2.020 . S
C448 N447 1.307 . S
C448 C452 1.370 . S
C448 H459 0.948 . S
C449 N447 1.333 . S
C449 C450 1.379 . S
C449 H457 0.952 . S
C450 C449 1.379 . S
C450 C451 1.390 . S
C450 H470 0.949 . S
C451 C450 1.390 . S
C451 C452 1.357 . S
C452 C448 1.370 . S
C452 C451 1.357 . S
C452 H471 0.950 . S
Zn453 N447 2.020 . S
Zn453 O456 2.025 . S
Zn453 O461 2.024 . S
Zn453 O463 2.039 . S
Zn453 O465 2.034 . S
O454 C438 1.251 . S
O454 Zn445 2.039 . S
C455 O460 1.246 . S
C455 O461 1.249 . S
O456 C438 1.254 . S
O456 Zn453 2.025 . S
H457 C449 0.952 . S
H458 C440 0.952 . S
H459 C448 0.948 . S
O460 Zn445 2.034 . S
O460 C455 1.246 . S
O461 Zn453 2.024 . S
O461 C455 1.249 . S
H462 C444 0.948 . S
O463 Zn453 2.039 . S
O463 C467 1.251 . S
O464 Zn445 2.025 . S
O464 C467 1.254 . S
O465 C446 1.246 . S
O465 Zn453 2.034 . S
O466 Zn445 2.024 . S
O466 C446 1.249 . S
C467 O463 1.251 . S
C467 O464 1.254 . S
H468 C441 0.949 . S
H469 C443 0.950 . S
H470 C450 0.949 . S
H471 C452 0.950 . S
C472 O488 1.251 . S
C472 O490 1.254 . S
N473 C474 1.333 . S
N473 C478 1.307 . S
N473 Zn479 2.020 . S
C474 N473 1.333 . S
C474 C475 1.379 . S
C474 H492 0.952 . S
C475 C474 1.379 . S
C475 C476 1.390 . S
C475 H502 0.949 . S
C476 C475 1.390 . S
C476 C477 1.357 . S
C477 C476 1.357 . S
C477 C478 1.370 . S
C477 H503 0.950 . S
C478 N473 1.307 . S
C478 C477 1.370 . S
C478 H496 0.948 . S
Zn479 N473 2.020 . S
Zn479 O488 2.039 . S
Zn479 O494 2.034 . S
Zn479 O498 2.025 . S
Zn479 O500 2.024 1_545 S
C480 O499 1.246 . S
C480 O500 1.249 . S
N481 C482 1.307 . S
N481 C483 1.333 1_455 S
N481 Zn487 2.020 1_565 S
C482 N481 1.307 . S
C482 C486 1.370 . S
C482 H493 0.948 1_565 S
C483 N481 1.333 1_655 S
C483 C484 1.379 . S
C483 H491 0.952 . S
C484 C483 1.379 . S
C484 C485 1.390 . S
C484 H504 0.949 . S
C485 C484 1.390 . S
C485 C486 1.357 1_655 S
C486 C482 1.370 . S
C486 C485 1.357 1_455 S
C486 H505 0.950 . S
Zn487 N481 2.020 1_545 S
Zn487 O490 2.029 . S
Zn487 O495 2.024 . S
Zn487 O497 2.039 1_455 S
Zn487 O499 2.034 1_545 S
O488 C472 1.251 . S
O488 Zn479 2.039 . S
C489 O494 1.246 . S
C489 O495 1.249 . S
O490 C472 1.254 . S
O490 Zn487 2.029 . S
H491 C483 0.952 . S
H492 C474 0.952 . S
H493 C482 0.948 1_545 S
O494 Zn479 2.034 . S
O494 C489 1.246 . S
O495 Zn487 2.024 . S
O495 C489 1.249 . S
H496 C478 0.948 . S
O497 Zn487 2.039 1_655 S
O497 C501 1.251 . S
O498 Zn479 2.025 . S
O498 C501 1.254 1_455 S
O499 C480 1.246 . S
O499 Zn487 2.034 1_565 S
O500 Zn479 2.024 1_565 S
O500 C480 1.249 . S
C501 O497 1.251 . S
C501 O498 1.254 1_655 S
H502 C475 0.949 . S
H503 C477 0.950 . S
H504 C484 0.949 . S
H505 C486 0.950 . S
C506 O522 1.251 . S
C506 O524 1.254 . S
N507 C508 1.333 . S
N507 C512 1.307 . S
N507 Zn513 2.020 . S
C508 N507 1.333 . S
C508 C509 1.379 . S
C508 H526 0.952 . S
C509 C508 1.379 . S
C509 C510 1.390 . S
C509 H536 0.949 . S
C510 C509 1.390 . S
C510 C511 1.357 . S
C511 C510 1.357 . S
C511 C512 1.370 . S
C511 H537 0.950 . S
C512 N507 1.307 . S
C512 C511 1.370 . S
C512 H530 0.948 . S
Zn513 N507 2.020 . S
Zn513 O522 2.039 . S
Zn513 O528 2.034 . S
Zn513 O532 2.025 . S
Zn513 O534 2.024 . S
C514 O533 1.246 . S
C514 O534 1.249 . S
N515 C516 1.307 . S
N515 C517 1.333 . S
N515 Zn521 2.020 . S
C516 N515 1.307 . S
C516 C520 1.370 . S
C516 H527 0.948 . S
C517 N515 1.333 . S
C517 C518 1.379 . S
C517 H525 0.952 . S
C518 C517 1.379 . S
C518 C519 1.390 . S
C518 H538 0.949 . S
C519 C518 1.390 . S
C519 C520 1.357 . S
C520 C516 1.370 . S
C520 C519 1.357 . S
C520 H539 0.950 . S
Zn521 N515 2.020 . S
Zn521 O524 2.025 . S
Zn521 O529 2.024 . S
Zn521 O531 2.039 . S
Zn521 O533 2.034 . S
O522 C506 1.251 . S
O522 Zn513 2.039 . S
C523 O528 1.246 . S
C523 O529 1.249 . S
O524 C506 1.254 . S
O524 Zn521 2.025 . S
H525 C517 0.952 . S
H526 C508 0.952 . S
H527 C516 0.948 . S
O528 Zn513 2.034 . S
O528 C523 1.246 . S
O529 Zn521 2.024 . S
O529 C523 1.249 . S
H530 C512 0.948 . S
O531 Zn521 2.039 . S
O531 C535 1.251 . S
O532 Zn513 2.025 . S
O532 C535 1.254 . S
O533 C514 1.246 . S
O533 Zn521 2.034 . S
O534 Zn513 2.024 . S
O534 C514 1.249 . S
C535 O531 1.251 . S
C535 O532 1.254 . S
H536 C509 0.949 . S
H537 C511 0.950 . S
H538 C518 0.949 . S
H539 C520 0.950 . S
C540 O556 1.251 . S
C540 O558 1.254 . S
N541 C542 1.333 . S
N541 C546 1.307 . S
N541 Zn547 2.020 . S
C542 N541 1.333 . S
C542 C543 1.379 . S
C542 H560 0.952 . S
C543 C542 1.379 . S
C543 C544 1.390 . S
C543 H570 0.949 . S
C544 C543 1.390 . S
C544 C545 1.357 . S
C545 C544 1.357 . S
C545 C546 1.370 . S
C545 H571 0.950 . S
C546 N541 1.307 . S
C546 C545 1.370 . S
C546 H564 0.948 . S
Zn547 N541 2.020 . S
Zn547 O556 2.039 1_545 S
Zn547 O562 2.034 . S
Zn547 O566 2.025 . S
Zn547 O568 2.024 . S
C548 O567 1.246 . S
C548 O568 1.249 . S
N549 C550 1.307 1_545 S
N549 C551 1.333 . S
N549 Zn555 2.020 1_556 S
C550 N549 1.307 1_565 S
C550 C554 1.370 . S
C550 H561 0.948 . S
C551 N549 1.333 . S
C551 C552 1.379 . S
C551 H559 0.952 . S
C552 C551 1.379 . S
C552 C553 1.390 1_545 S
C552 H572 0.949 . S
C553 C552 1.390 1_565 S
C553 C554 1.357 . S
C554 C550 1.370 . S
C554 C553 1.357 . S
C554 H573 0.950 . S
Zn555 N549 2.020 1_554 S
Zn555 O558 2.025 1_545 S
Zn555 O563 2.024 . S
Zn555 O565 2.039 . S
Zn555 O567 2.034 . S
O556 C540 1.251 . S
O556 Zn547 2.039 1_565 S
C557 O562 1.246 . S
C557 O563 1.249 . S
O558 C540 1.254 . S
O558 Zn555 2.025 1_565 S
H559 C551 0.952 . S
H560 C542 0.952 . S
H561 C550 0.948 . S
O562 Zn547 2.034 . S
O562 C557 1.246 . S
O563 Zn555 2.024 . S
O563 C557 1.249 . S
H564 C546 0.948 . S
O565 Zn555 2.039 . S
O565 C569 1.251 . S
O566 Zn547 2.025 . S
O566 C569 1.254 . S
O567 C548 1.246 . S
O567 Zn555 2.034 . S
O568 Zn547 2.024 . S
O568 C548 1.249 . S
C569 O565 1.251 . S
C569 O566 1.254 . S
H570 C543 0.949 . S
H571 C545 0.950 . S
H572 C552 0.949 . S
H573 C554 0.950 . S
C574 O590 1.251 . S
C574 O592 1.254 . S
N575 C576 1.333 . S
N575 C580 1.307 . S
N575 Zn581 2.020 . S
C576 N575 1.333 . S
C576 C577 1.379 . S
C576 H594 0.952 . S
C577 C576 1.379 . S
C577 C578 1.390 . S
C577 H604 0.949 . S
C578 C577 1.390 . S
C578 C579 1.357 . S
C579 C578 1.357 . S
C579 C580 1.370 . S
C579 H605 0.950 . S
C580 N575 1.307 . S
C580 C579 1.370 . S
C580 H598 0.948 . S
Zn581 N575 2.020 . S
Zn581 O590 2.039 . S
Zn581 O596 2.034 . S
Zn581 O600 2.025 . S
Zn581 O602 2.024 . S
C582 O601 1.246 . S
C582 O602 1.249 . S
N583 C584 1.307 . S
N583 C585 1.333 . S
N583 Zn589 2.020 . S
C584 N583 1.307 . S
C584 C588 1.370 . S
C584 H595 0.948 . S
C585 N583 1.333 . S
C585 C586 1.379 . S
C585 H593 0.952 . S
C586 C585 1.379 . S
C586 C587 1.390 . S
C586 H606 0.949 . S
C587 C586 1.390 . S
C587 C588 1.357 . S
C588 C584 1.370 . S
C588 C587 1.357 . S
C588 H607 0.950 . S
Zn589 N583 2.020 . S
Zn589 O592 2.025 . S
Zn589 O597 2.024 . S
Zn589 O599 2.039 . S
Zn589 O601 2.034 . S
O590 C574 1.251 . S
O590 Zn581 2.039 . S
C591 O596 1.246 . S
C591 O597 1.249 . S
O592 C574 1.254 . S
O592 Zn589 2.025 . S
H593 C585 0.952 . S
H594 C576 0.952 . S
H595 C584 0.948 . S
O596 Zn581 2.034 . S
O596 C591 1.246 . S
O597 Zn589 2.024 . S
O597 C591 1.249 . S
H598 C580 0.948 . S
O599 Zn589 2.039 . S
O599 C603 1.251 . S
O600 Zn581 2.025 . S
O600 C603 1.254 . S
O601 C582 1.246 . S
O601 Zn589 2.034 . S
O602 Zn581 2.024 . S
O602 C582 1.249 . S
C603 O599 1.251 . S
C603 O600 1.254 . S
H604 C577 0.949 . S
H605 C579 0.950 . S
H606 C586 0.949 . S
H607 C588 0.950 . S
C608 O624 1.251 . S
C608 O626 1.254 . S
N609 C610 1.333 . S
N609 C614 1.307 . S
N609 Zn615 2.020 1_556 S
C610 N609 1.333 . S
C610 C611 1.379 . S
C610 H628 0.952 . S
C611 C610 1.379 . S
C611 C612 1.390 . S
C611 H638 0.949 . S
C612 C611 1.390 . S
C612 C613 1.357 . S
C613 C612 1.357 . S
C613 C614 1.370 . S
C613 H639 0.950 . S
C614 N609 1.307 . S
C614 C613 1.370 . S
C614 H632 0.948 . S
Zn615 N609 2.020 1_554 S
Zn615 O624 2.039 . S
Zn615 O630 2.034 . S
Zn615 O634 2.025 . S
Zn615 O636 2.024 . S
C616 O635 1.246 . S
C616 O636 1.249 . S
N617 C618 1.307 . S
N617 C619 1.333 . S
N617 Zn623 2.020 . S
C618 N617 1.307 . S
C618 C622 1.370 . S
C618 H629 0.948 . S
C619 N617 1.333 . S
C619 C620 1.379 . S
C619 H627 0.952 . S
C620 C619 1.379 . S
C620 C621 1.390 . S
C620 H640 0.949 . S
C621 C620 1.390 . S
C621 C622 1.357 . S
C622 C618 1.370 . S
C622 C621 1.357 . S
C622 H641 0.950 . S
Zn623 N617 2.020 . S
Zn623 O626 2.025 . S
Zn623 O631 2.024 . S
Zn623 O633 2.039 . S
Zn623 O635 2.034 . S
O624 C608 1.251 . S
O624 Zn615 2.039 . S
C625 O630 1.246 . S
C625 O631 1.249 . S
O626 C608 1.254 . S
O626 Zn623 2.025 . S
H627 C619 0.952 . S
H628 C610 0.952 . S
H629 C618 0.948 . S
O630 Zn615 2.034 . S
O630 C625 1.246 . S
O631 Zn623 2.024 . S
O631 C625 1.249 . S
H632 C614 0.948 . S
O633 Zn623 2.039 . S
O633 C637 1.251 . S
O634 Zn615 2.025 . S
O634 C637 1.254 . S
O635 C616 1.246 . S
O635 Zn623 2.034 . S
O636 Zn615 2.024 . S
O636 C616 1.249 . S
C637 O633 1.251 . S
C637 O634 1.254 . S
H638 C611 0.949 . S
H639 C613 0.950 . S
H640 C620 0.949 . S
H641 C622 0.950 . S
C642 O658 1.251 . S
C642 O660 1.254 . S
N643 C644 1.333 . S
N643 C648 1.307 . S
N643 Zn649 2.020 . S
C644 N643 1.333 . S
C644 C645 1.379 . S
C644 H662 0.952 . S
C645 C644 1.379 . S
C645 C646 1.390 . S
C645 H672 0.949 . S
C646 C645 1.390 . S
C646 C647 1.357 . S
C647 C646 1.357 . S
C647 C648 1.370 . S
C647 H673 0.950 . S
C648 N643 1.307 . S
C648 C647 1.370 . S
C648 H666 0.948 . S
Zn649 N643 2.020 . S
Zn649 O658 2.039 . S
Zn649 O664 2.034 . S
Zn649 O668 2.025 . S
Zn649 O670 2.024 . S
C650 O669 1.246 . S
C650 O670 1.249 . S
N651 C652 1.307 . S
N651 C653 1.333 . S
N651 Zn657 2.020 . S
C652 N651 1.307 . S
C652 C656 1.370 . S
C652 H663 0.948 . S
C653 N651 1.333 . S
C653 C654 1.379 . S
C653 H661 0.952 . S
C654 C653 1.379 . S
C654 C655 1.390 . S
C654 H674 0.949 . S
C655 C654 1.390 . S
C655 C656 1.357 . S
C656 C652 1.370 . S
C656 C655 1.357 . S
C656 H675 0.950 . S
Zn657 N651 2.020 . S
Zn657 O660 2.025 . S
Zn657 O665 2.024 . S
Zn657 O667 2.039 . S
Zn657 O669 2.034 . S
O658 C642 1.251 . S
O658 Zn649 2.039 . S
C659 O664 1.246 . S
C659 O665 1.249 . S
O660 C642 1.254 . S
O660 Zn657 2.025 . S
H661 C653 0.952 . S
H662 C644 0.952 . S
H663 C652 0.948 . S
O664 Zn649 2.034 . S
O664 C659 1.246 . S
O665 Zn657 2.024 . S
O665 C659 1.249 . S
H666 C648 0.948 . S
O667 Zn657 2.039 . S
O667 C671 1.251 . S
O668 Zn649 2.025 . S
O668 C671 1.254 . S
O669 C650 1.246 . S
O669 Zn657 2.034 . S
O670 Zn649 2.024 . S
O670 C650 1.249 . S
C671 O667 1.251 . S
C671 O668 1.254 . S
H672 C645 0.949 . S
H673 C647 0.950 . S
H674 C654 0.949 . S
H675 C656 0.950 . S
C676 O692 1.251 . S
C676 O694 1.254 . S
N677 C678 1.333 . S
N677 C682 1.307 . S
N677 Zn683 2.020 . S
C678 N677 1.333 . S
C678 C679 1.379 . S
C678 H696 0.952 . S
C679 C678 1.379 . S
C679 C680 1.390 . S
C679 H706 0.949 . S
C680 C679 1.390 . S
C680 C681 1.357 . S
C681 C680 1.357 . S
C681 C682 1.370 . S
C681 H707 0.950 . S
C682 N677 1.307 . S
C682 C681 1.370 . S
C682 H700 0.948 . S
Zn683 N677 2.020 . S
Zn683 O692 2.039 . S
Zn683 O698 2.034 . S
Zn683 O702 2.025 . S
Zn683 O704 2.024 . S
C684 O703 1.246 . S
C684 O704 1.249 . S
N685 C686 1.307 1_455 S
N685 C687 1.333 . S
N685 Zn691 2.020 . S
C686 N685 1.307 1_655 S
C686 C690 1.370 . S
C686 H697 0.948 . S
C687 N685 1.333 . S
C687 C688 1.379 . S
C687 H695 0.952 . S
C688 C687 1.379 . S
C688 C689 1.418 . S
C688 H708 0.949 . S
C689 C688 1.418 . S
C689 C690 1.338 1_455 S
C690 C686 1.370 . S
C690 C689 1.338 1_655 S
C690 H709 0.950 . S
Zn691 N685 2.020 . S
Zn691 O694 2.025 . S
Zn691 O699 2.024 1_455 S
Zn691 O701 2.039 . S
Zn691 O703 2.034 . S
O692 C676 1.251 . S
O692 Zn683 2.039 . S
C693 O698 1.246 1_655 S
C693 O699 1.249 . S
O694 C676 1.254 . S
O694 Zn691 2.025 . S
H695 C687 0.952 . S
H696 C678 0.952 . S
H697 C686 0.948 . S
O698 Zn683 2.034 . S
O698 C693 1.246 1_455 S
O699 Zn691 2.024 1_655 S
O699 C693 1.249 . S
H700 C682 0.948 . S
O701 Zn691 2.039 . S
O701 C705 1.251 . S
O702 Zn683 2.025 . S
O702 C705 1.254 . S
O703 C684 1.246 . S
O703 Zn691 2.034 . S
O704 Zn683 2.024 . S
O704 C684 1.249 . S
C705 O701 1.251 . S
C705 O702 1.254 . S
H706 C679 0.949 . S
H707 C681 0.950 . S
H708 C688 0.949 . S
H709 C690 0.950 . S
C710 O726 1.251 . S
C710 O728 1.254 . S
N711 C712 1.333 . S
N711 C716 1.307 . S
N711 Zn717 2.020 . S
C712 N711 1.333 . S
C712 C713 1.379 . S
C712 H730 0.952 . S
C713 C712 1.379 . S
C713 C714 1.390 . S
C713 H740 0.949 . S
C714 C713 1.390 . S
C714 C715 1.357 . S
C715 C714 1.357 . S
C715 C716 1.370 . S
C715 H741 0.950 . S
C716 N711 1.307 . S
C716 C715 1.370 . S
C716 H734 0.948 . S
Zn717 N711 2.020 . S
Zn717 O726 2.039 . S
Zn717 O732 2.034 . S
Zn717 O736 2.025 . S
Zn717 O738 2.024 . S
C718 O737 1.246 . S
C718 O738 1.249 . S
N719 C720 1.307 . S
N719 C721 1.333 . S
N719 Zn725 2.020 . S
C720 N719 1.307 . S
C720 C724 1.370 . S
C720 H731 0.948 . S
C721 N719 1.333 . S
C721 C722 1.379 . S
C721 H729 0.952 . S
C722 C721 1.379 . S
C722 C723 1.390 . S
C722 H742 0.949 . S
C723 C722 1.390 . S
C723 C724 1.357 . S
C724 C720 1.370 . S
C724 C723 1.357 . S
C724 H743 0.950 . S
Zn725 N719 2.020 . S
Zn725 O728 2.025 . S
Zn725 O733 2.024 . S
Zn725 O735 2.039 . S
Zn725 O737 2.034 . S
O726 C710 1.251 . S
O726 Zn717 2.039 . S
C727 O732 1.246 . S
C727 O733 1.249 . S
O728 C710 1.254 . S
O728 Zn725 2.025 . S
H729 C721 0.952 . S
H730 C712 0.952 . S
H731 C720 0.948 . S
O732 Zn717 2.034 . S
O732 C727 1.246 . S
O733 Zn725 2.024 . S
O733 C727 1.249 . S
H734 C716 0.948 . S
O735 Zn725 2.039 . S
O735 C739 1.251 . S
O736 Zn717 2.025 . S
O736 C739 1.254 . S
O737 C718 1.246 . S
O737 Zn725 2.034 . S
O738 Zn717 2.024 . S
O738 C718 1.249 . S
C739 O735 1.251 . S
C739 O736 1.254 . S
H740 C713 0.949 . S
H741 C715 0.950 . S
H742 C722 0.949 . S
H743 C724 0.950 . S
C744 O760 1.251 . S
C744 O762 1.254 . S
N745 C746 1.333 . S
N745 C750 1.307 . S
N745 Zn751 2.020 . S
C746 N745 1.333 . S
C746 C747 1.379 . S
C746 H764 0.952 . S
C747 C746 1.379 . S
C747 C748 1.390 . S
C747 H774 0.949 . S
C748 C747 1.390 . S
C748 C749 1.357 . S
C749 C748 1.357 . S
C749 C750 1.370 . S
C749 H775 0.950 . S
C750 N745 1.307 . S
C750 C749 1.370 . S
C750 H768 0.948 . S
Zn751 N745 2.020 . S
Zn751 O760 2.039 . S
Zn751 O766 2.034 . S
Zn751 O770 2.025 . S
Zn751 O772 2.024 . S
C752 O771 1.246 . S
C752 O772 1.249 . S
N753 C754 1.307 . S
N753 C755 1.333 . S
N753 Zn759 2.020 . S
C754 N753 1.307 . S
C754 C758 1.370 . S
C754 H765 0.948 . S
C755 N753 1.333 . S
C755 C756 1.379 . S
C755 H763 0.952 . S
C756 C755 1.379 . S
C756 C757 1.390 . S
C756 H776 0.949 . S
C757 C756 1.390 . S
C757 C758 1.357 . S
C758 C754 1.370 . S
C758 C757 1.357 . S
C758 H777 0.950 . S
Zn759 N753 2.020 . S
Zn759 O762 2.025 . S
Zn759 O767 2.024 . S
Zn759 O769 2.039 . S
Zn759 O771 2.034 . S
O760 C744 1.251 . S
O760 Zn751 2.039 . S
C761 O766 1.246 . S
C761 O767 1.249 . S
O762 C744 1.254 . S
O762 Zn759 2.025 . S
H763 C755 0.952 . S
H764 C746 0.952 . S
H765 C754 0.948 . S
O766 Zn751 2.034 . S
O766 C761 1.246 . S
O767 Zn759 2.024 . S
O767 C761 1.249 . S
H768 C750 0.948 . S
O769 Zn759 2.039 . S
O769 C773 1.251 . S
O770 Zn751 2.025 . S
O770 C773 1.254 . S
O771 C752 1.246 . S
O771 Zn759 2.034 . S
O772 Zn751 2.024 . S
O772 C752 1.249 . S
C773 O769 1.251 . S
C773 O770 1.254 . S
H774 C747 0.949 . S
H775 C749 0.950 . S
H776 C756 0.949 . S
H777 C758 0.950 . S
C778 O794 1.251 . S
C778 O796 1.254 . S
N779 C780 1.333 . S
N779 C784 1.307 . S
N779 Zn785 2.020 . S
C780 N779 1.333 . S
C780 C781 1.379 . S
C780 H798 0.952 . S
C781 C780 1.379 . S
C781 C782 1.390 . S
C781 H808 0.949 . S
C782 C781 1.390 . S
C782 C783 1.357 . S
C783 C782 1.357 . S
C783 C784 1.370 . S
C783 H809 0.950 . S
C784 N779 1.307 . S
C784 C783 1.370 . S
C784 H802 0.948 . S
Zn785 N779 2.020 . S
Zn785 O794 2.039 . S
Zn785 O800 2.034 . S
Zn785 O804 2.025 . S
Zn785 O806 2.024 . S
C786 O805 1.246 . S
C786 O806 1.249 . S
N787 C788 1.307 . S
N787 C789 1.333 . S
N787 Zn793 2.020 . S
C788 N787 1.307 . S
C788 C792 1.370 . S
C788 H799 0.948 . S
C789 N787 1.333 . S
C789 C790 1.379 . S
C789 H797 0.952 . S
C790 C789 1.379 . S
C790 C791 1.390 . S
C790 H810 0.949 . S
C791 C790 1.390 . S
C791 C792 1.357 . S
C792 C788 1.370 . S
C792 C791 1.357 . S
C792 H811 0.950 . S
Zn793 N787 2.020 . S
Zn793 O796 2.025 . S
Zn793 O801 2.024 . S
Zn793 O803 2.039 . S
Zn793 O805 2.034 . S
O794 C778 1.251 . S
O794 Zn785 2.039 . S
C795 O800 1.246 . S
C795 O801 1.249 . S
O796 C778 1.254 . S
O796 Zn793 2.025 . S
H797 C789 0.952 . S
H798 C780 0.952 . S
H799 C788 0.948 . S
O800 Zn785 2.034 . S
O800 C795 1.246 . S
O801 Zn793 2.024 . S
O801 C795 1.249 . S
H802 C784 0.948 . S
O803 Zn793 2.039 . S
O803 C807 1.251 . S
O804 Zn785 2.025 . S
O804 C807 1.254 . S
O805 C786 1.246 . S
O805 Zn793 2.034 . S
O806 Zn785 2.024 . S
O806 C786 1.249 . S
C807 O803 1.251 . S
C807 O804 1.254 . S
H808 C781 0.949 . S
H809 C783 0.950 . S
H810 C790 0.949 . S
H811 C792 0.950 . S
C812 O828 1.251 . S
C812 O830 1.254 . S
N813 C814 1.333 . S
N813 C818 1.307 . S
N813 Zn819 2.020 . S
C814 N813 1.333 . S
C814 C815 1.379 . S
C814 H832 0.952 . S
C815 C814 1.379 . S
C815 C816 1.390 . S
C815 H842 0.949 . S
C816 C815 1.390 . S
C816 C817 1.357 . S
C817 C816 1.357 . S
C817 C818 1.370 . S
C817 H843 0.950 . S
C818 N813 1.307 . S
C818 C817 1.370 . S
C818 H836 0.948 . S
Zn819 N813 2.020 . S
Zn819 O828 2.039 . S
Zn819 O834 2.034 . S
Zn819 O838 2.025 . S
Zn819 O840 2.024 . S
C820 O839 1.246 . S
C820 O840 1.249 . S
N821 C822 1.307 . S
N821 C823 1.333 . S
N821 Zn827 2.020 . S
C822 N821 1.307 . S
C822 C826 1.370 . S
C822 H833 0.948 . S
C823 N821 1.333 . S
C823 C824 1.379 . S
C823 H831 0.952 . S
C824 C823 1.379 . S
C824 C825 1.390 . S
C824 H844 0.949 . S
C825 C824 1.390 . S
C825 C826 1.357 . S
C826 C822 1.370 . S
C826 C825 1.357 . S
C826 H845 0.950 . S
Zn827 N821 2.020 . S
Zn827 O830 2.025 . S
Zn827 O835 2.024 . S
Zn827 O837 2.039 . S
Zn827 O839 2.034 . S
O828 C812 1.251 . S
O828 Zn819 2.039 . S
C829 O834 1.246 . S
C829 O835 1.249 . S
O830 C812 1.254 . S
O830 Zn827 2.025 . S
H831 C823 0.952 . S
H832 C814 0.952 . S
H833 C822 0.948 . S
O834 Zn819 2.034 . S
O834 C829 1.246 . S
O835 Zn827 2.024 . S
O835 C829 1.249 . S
H836 C818 0.948 . S
O837 Zn827 2.039 . S
O837 C841 1.251 . S
O838 Zn819 2.025 . S
O838 C841 1.254 . S
O839 C820 1.246 . S
O839 Zn827 2.034 . S
O840 Zn819 2.024 . S
O840 C820 1.249 . S
C841 O837 1.251 . S
C841 O838 1.254 . S
H842 C815 0.949 . S
H843 C817 0.950 . S
H844 C824 0.949 . S
H845 C826 0.950 . S
C846 O862 1.251 . S
C846 O864 1.254 . S
N847 C848 1.333 . S
N847 C852 1.307 . S
N847 Zn853 2.020 . S
C848 N847 1.333 . S
C848 C849 1.379 . S
C848 H866 0.952 . S
C849 C848 1.379 . S
C849 C850 1.390 . S
C849 H876 0.949 . S
C850 C849 1.390 . S
C850 C851 1.357 . S
C851 C850 1.357 . S
C851 C852 1.370 . S
C851 H877 0.950 . S
C852 N847 1.307 . S
C852 C851 1.370 . S
C852 H870 0.948 . S
Zn853 N847 2.020 . S
Zn853 O862 2.039 . S
Zn853 O868 2.034 . S
Zn853 O872 2.025 . S
Zn853 O874 2.024 . S
C854 O873 1.246 1_655 S
C854 O874 1.249 1_655 S
N855 C856 1.307 . S
N855 C857 1.333 1_554 S
N855 Zn861 2.020 . S
C856 N855 1.307 . S
C856 C860 1.370 . S
C856 H867 0.948 . S
C857 N855 1.333 1_556 S
C857 C858 1.379 . S
C857 H865 0.952 . S
C858 C857 1.379 . S
C858 C859 1.390 . S
C858 H878 0.949 . S
C859 C858 1.390 . S
C859 C860 1.357 1_556 S
C860 C856 1.370 . S
C860 C859 1.357 1_554 S
C860 H879 0.950 . S
Zn861 N855 2.020 . S
Zn861 O864 2.025 . S
Zn861 O869 2.024 . S
Zn861 O871 2.039 1_554 S
Zn861 O873 2.034 . S
O862 C846 1.251 . S
O862 Zn853 2.039 . S
C863 O868 1.246 . S
C863 O869 1.249 . S
O864 C846 1.254 . S
O864 Zn861 2.025 . S
H865 C857 0.952 . S
H866 C848 0.952 . S
H867 C856 0.948 . S
O868 Zn853 2.034 . S
O868 C863 1.246 . S
O869 Zn861 2.024 . S
O869 C863 1.249 . S
H870 C852 0.948 . S
O871 Zn861 2.039 1_556 S
O871 C875 1.251 . S
O872 Zn853 2.025 . S
O872 C875 1.254 1_554 S
O873 C854 1.246 1_455 S
O873 Zn861 2.034 . S
O874 Zn853 2.024 . S
O874 C854 1.249 1_455 S
C875 O871 1.251 . S
C875 O872 1.254 1_556 S
H876 C849 0.949 . S
H877 C851 0.950 . S
H878 C858 0.949 . S
H879 C860 0.950 . S
H880 C886 0.930 . S
H881 C889 0.930 . S
H882 C890 0.930 . S
H883 C891 0.930 . S
H884 C894 0.930 . S
H885 C895 0.930 . S
C886 H880 0.930 . S
C886 C887 1.355 . S
C886 C888 1.415 . S
C887 C886 1.355 . S
C887 C889 1.419 . S
C888 C886 1.415 . S
C888 C893 1.425 . S
C888 C895 1.409 . S
C889 H881 0.930 . S
C889 C887 1.419 . S
C889 C890 1.362 . S
C890 H882 0.930 . S
C890 C889 1.362 . S
C890 C893 1.409 . S
C891 H883 0.930 . S
C891 C892 1.355 . S
C891 C893 1.415 . S
C892 C891 1.355 . S
C892 C894 1.419 . S
C893 C888 1.425 . S
C893 C890 1.409 . S
C893 C891 1.415 . S
C894 H884 0.930 . S
C894 C892 1.419 . S
C894 C895 1.362 . S
C895 H885 0.930 . S
C895 C888 1.409 . S
C895 C894 1.362 . S
H896 C902 0.930 . S
H897 C905 0.930 . S
H898 C906 0.930 . S
H899 C907 0.930 . S
H900 C910 0.930 . S
H901 C911 0.930 . S
C902 H896 0.930 . S
C902 C903 1.355 . S
C902 C904 1.415 . S
C903 C902 1.355 . S
C903 C905 1.419 . S
C904 C902 1.415 . S
C904 C909 1.425 . S
C904 C911 1.409 . S
C905 H897 0.930 . S
C905 C903 1.419 . S
C905 C906 1.362 . S
C906 H898 0.930 . S
C906 C905 1.362 . S
C906 C909 1.409 . S
C907 H899 0.930 . S
C907 C908 1.355 . S
C907 C909 1.415 . S
C908 C907 1.355 . S
C908 C910 1.419 . S
C909 C904 1.425 . S
C909 C906 1.409 . S
C909 C907 1.415 . S
C910 H900 0.930 . S
C910 C908 1.419 . S
C910 C911 1.362 . S
C911 H901 0.930 . S
C911 C904 1.409 . S
C911 C910 1.362 . S
H912 C918 0.930 . S
H913 C921 0.930 . S
H914 C922 0.930 . S
H915 C923 0.930 . S
H916 C926 0.930 . S
H917 C927 0.930 . S
C918 H912 0.930 . S
C918 C919 1.355 . S
C918 C920 1.415 . S
C919 C918 1.355 . S
C919 C921 1.419 . S
C920 C918 1.415 . S
C920 C925 1.425 . S
C920 C927 1.409 . S
C921 H913 0.930 . S
C921 C919 1.419 . S
C921 C922 1.362 . S
C922 H914 0.930 . S
C922 C921 1.362 . S
C922 C925 1.409 . S
C923 H915 0.930 . S
C923 C924 1.355 . S
C923 C925 1.415 . S
C924 C923 1.355 . S
C924 C926 1.419 . S
C925 C920 1.425 . S
C925 C922 1.409 . S
C925 C923 1.415 . S
C926 H916 0.930 . S
C926 C924 1.419 . S
C926 C927 1.362 . S
C927 H917 0.930 . S
C927 C920 1.409 . S
C927 C926 1.362 . S
H928 C934 0.930 . S
H929 C937 0.930 . S
H930 C938 0.930 . S
H931 C939 0.930 . S
H932 C942 0.930 . S
H933 C943 0.930 . S
C934 H928 0.930 . S
C934 C935 1.355 . S
C934 C936 1.415 . S
C935 C934 1.355 . S
C935 C937 1.419 . S
C936 C934 1.415 . S
C936 C941 1.425 . S
C936 C943 1.409 . S
C937 H929 0.930 . S
C937 C935 1.419 . S
C937 C938 1.362 . S
C938 H930 0.930 . S
C938 C937 1.362 . S
C938 C941 1.409 . S
C939 H931 0.930 . S
C939 C940 1.355 . S
C939 C941 1.415 . S
C940 C939 1.355 . S
C940 C942 1.419 . S
C941 C936 1.425 . S
C941 C938 1.409 . S
C941 C939 1.415 . S
C942 H932 0.930 . S
C942 C940 1.419 . S
C942 C943 1.362 . S
C943 H933 0.930 . S
C943 C936 1.409 . S
C943 C942 1.362 . S
H944 C950 0.930 . S
H945 C953 0.930 1_655 S
H946 C954 0.930 . S
H947 C955 0.930 1_655 S
H948 C958 0.930 . S
H949 C959 0.930 . S
C950 H944 0.930 . S
C950 C951 1.355 . S
C950 C952 1.415 . S
C951 C950 1.355 . S
C951 C953 1.419 . S
C952 C950 1.415 . S
C952 C957 1.425 . S
C952 C959 1.409 . S
C953 H945 0.930 1_455 S
C953 C951 1.419 . S
C953 C954 1.362 1_455 S
C954 H946 0.930 . S
C954 C953 1.362 1_655 S
C954 C957 1.409 1_655 S
C955 H947 0.930 1_455 S
C955 C956 1.355 . S
C955 C957 1.415 . S
C956 C955 1.355 . S
C956 C958 1.419 . S
C957 C952 1.425 . S
C957 C954 1.409 1_455 S
C957 C955 1.415 . S
C958 H948 0.930 . S
C958 C956 1.419 . S
C958 C959 1.362 . S
C959 H949 0.930 . S
C959 C952 1.409 . S
C959 C958 1.362 . S
H960 C966 0.930 . S
H961 C969 0.930 . S
H962 C970 0.930 . S
H963 C971 0.930 . S
H964 C974 0.930 . S
H965 C975 0.930 . S
C966 H960 0.930 . S
C966 C967 1.355 . S
C966 C968 1.415 . S
C967 C966 1.355 . S
C967 C969 1.419 . S
C968 C966 1.415 . S
C968 C973 1.425 . S
C968 C975 1.409 . S
C969 H961 0.930 . S
C969 C967 1.419 . S
C969 C970 1.362 . S
C970 H962 0.930 . S
C970 C969 1.362 . S
C970 C973 1.409 . S
C971 H963 0.930 . S
C971 C972 1.355 . S
C971 C973 1.415 . S
C972 C971 1.355 . S
C972 C974 1.419 . S
C973 C968 1.425 . S
C973 C970 1.409 . S
C973 C971 1.415 . S
C974 H964 0.930 . S
C974 C972 1.419 . S
C974 C975 1.362 . S
C975 H965 0.930 . S
C975 C968 1.409 . S
C975 C974 1.362 . S
H976 C982 0.930 . S
H977 C985 0.930 . S
H978 C986 0.930 . S
H979 C987 0.930 1_554 S
H980 C990 0.930 . S
H981 C991 0.930 . S
C982 H976 0.930 . S
C982 C983 1.355 . S
C982 C984 1.415 . S
C983 C982 1.355 . S
C983 C985 1.419 . S
C984 C982 1.415 . S
C984 C989 1.425 . S
C984 C991 1.409 . S
C985 H977 0.930 . S
C985 C983 1.419 . S
C985 C986 1.362 . S
C986 H978 0.930 . S
C986 C985 1.362 . S
C986 C989 1.409 . S
C987 H979 0.930 1_556 S
C987 C988 1.355 1_556 S
C987 C989 1.415 . S
C988 C987 1.355 1_554 S
C988 C990 1.419 1_554 S
C989 C984 1.425 . S
C989 C986 1.409 . S
C989 C987 1.415 . S
C990 H980 0.930 . S
C990 C988 1.419 1_556 S
C990 C991 1.362 . S
C991 H981 0.930 . S
C991 C984 1.409 . S
C991 C990 1.362 . S
H992 C998 0.930 . S
H993 C1001 0.930 . S
H994 C1002 0.930 . S
H995 C1003 0.930 . S
H996 C1006 0.930 . S
H997 C1007 0.930 . S
C998 H992 0.930 . S
C998 C999 1.355 . S
C998 C1000 1.415 . S
C999 C998 1.355 . S
C999 C1001 1.419 . S
C1000 C998 1.415 . S
C1000 C1005 1.425 . S
C1000 C1007 1.409 . S
C1001 H993 0.930 . S
C1001 C999 1.419 . S
C1001 C1002 1.362 . S
C1002 H994 0.930 . S
C1002 C1001 1.362 . S
C1002 C1005 1.409 . S
C1003 H995 0.930 . S
C1003 C1004 1.355 . S
C1003 C1005 1.415 . S
C1004 C1003 1.355 . S
C1004 C1006 1.419 . S
C1005 C1000 1.425 . S
C1005 C1002 1.409 . S
C1005 C1003 1.415 . S
C1006 H996 0.930 . S
C1006 C1004 1.419 . S
C1006 C1007 1.362 . S
C1007 H997 0.930 . S
C1007 C1000 1.409 . S
C1007 C1006 1.362 . S
H1008 C1014 0.930 . S
H1009 C1017 0.930 . S
H1010 C1018 0.930 . S
H1011 C1019 0.930 . S
H1012 C1022 0.930 . S
H1013 C1023 0.930 . S
C1014 H1008 0.930 . S
C1014 C1015 1.355 . S
C1014 C1016 1.415 . S
C1015 C1014 1.355 . S
C1015 C1017 1.419 1_545 S
C1016 C1014 1.415 . S
C1016 C1021 1.425 1_545 S
C1016 C1023 1.409 . S
C1017 H1009 0.930 . S
C1017 C1015 1.419 1_565 S
C1017 C1018 1.362 . S
C1018 H1010 0.930 . S
C1018 C1017 1.362 . S
C1018 C1021 1.409 . S
C1019 H1011 0.930 . S
C1019 C1020 1.355 . S
C1019 C1021 1.415 . S
C1020 C1019 1.355 . S
C1020 C1022 1.419 1_565 S
C1021 C1016 1.425 1_565 S
C1021 C1018 1.409 . S
C1021 C1019 1.415 . S
C1022 H1012 0.930 . S
C1022 C1020 1.419 1_545 S
C1022 C1023 1.362 . S
C1023 H1013 0.930 . S
C1023 C1016 1.409 . S
C1023 C1022 1.362 . S
H1024 C1030 0.930 . S
H1025 C1033 0.930 . S
H1026 C1034 0.930 . S
H1027 C1035 0.930 . S
H1028 C1038 0.930 . S
H1029 C1039 0.930 . S
C1030 H1024 0.930 . S
C1030 C1031 1.355 . S
C1030 C1032 1.415 . S
C1031 C1030 1.355 . S
C1031 C1033 1.419 . S
C1032 C1030 1.415 . S
C1032 C1037 1.425 . S
C1032 C1039 1.409 . S
C1033 H1025 0.930 . S
C1033 C1031 1.419 . S
C1033 C1034 1.362 . S
C1034 H1026 0.930 . S
C1034 C1033 1.362 . S
C1034 C1037 1.409 . S
C1035 H1027 0.930 . S
C1035 C1036 1.355 . S
C1035 C1037 1.415 . S
C1036 C1035 1.355 . S
C1036 C1038 1.419 . S
C1037 C1032 1.425 . S
C1037 C1034 1.409 . S
C1037 C1035 1.415 . S
C1038 H1028 0.930 . S
C1038 C1036 1.419 . S
C1038 C1039 1.362 . S
C1039 H1029 0.930 . S
C1039 C1032 1.409 . S
C1039 C1038 1.362 . S
H1040 C1046 0.930 1_565 S
H1041 C1049 0.930 . S
H1042 C1050 0.930 . S
H1043 C1051 0.930 . S
H1044 C1054 0.930 1_565 S
H1045 C1055 0.962 . S
C1046 H1040 0.930 1_545 S
C1046 C1047 1.355 . S
C1046 C1048 1.415 . S
C1047 C1046 1.355 . S
C1047 C1049 1.419 . S
C1048 C1046 1.415 . S
C1048 C1053 1.425 . S
C1048 C1055 1.389 1_545 S
C1049 H1041 0.930 . S
C1049 C1047 1.419 . S
C1049 C1050 1.362 . S
C1050 H1042 0.930 . S
C1050 C1049 1.362 . S
C1050 C1053 1.409 . S
C1051 H1043 0.930 . S
C1051 C1052 1.355 . S
C1051 C1053 1.415 . S
C1052 C1051 1.355 . S
C1052 C1054 1.419 . S
C1053 C1048 1.425 . S
C1053 C1050 1.409 . S
C1053 C1051 1.415 . S
C1054 H1044 0.930 1_545 S
C1054 C1052 1.419 . S
C1054 C1055 1.351 1_545 S
C1055 H1045 0.962 . S
C1055 C1048 1.389 1_565 S
C1055 C1054 1.351 1_565 S
H1056 C1062 0.930 . S
H1057 C1065 0.930 . S
H1058 C1066 0.930 . S
H1059 C1067 0.930 . S
H1060 C1070 0.930 . S
H1061 C1071 0.930 . S
C1062 H1056 0.930 . S
C1062 C1063 1.355 . S
C1062 C1064 1.415 . S
C1063 C1062 1.355 . S
C1063 C1065 1.419 . S
C1064 C1062 1.415 . S
C1064 C1069 1.425 . S
C1064 C1071 1.409 . S
C1065 H1057 0.930 . S
C1065 C1063 1.419 . S
C1065 C1066 1.362 . S
C1066 H1058 0.930 . S
C1066 C1065 1.362 . S
C1066 C1069 1.409 . S
C1067 H1059 0.930 . S
C1067 C1068 1.355 . S
C1067 C1069 1.415 . S
C1068 C1067 1.355 . S
C1068 C1070 1.419 . S
C1069 C1064 1.425 . S
C1069 C1066 1.409 . S
C1069 C1067 1.415 . S
C1070 H1060 0.930 . S
C1070 C1068 1.419 . S
C1070 C1071 1.362 . S
C1071 H1061 0.930 . S
C1071 C1064 1.409 . S
C1071 C1070 1.362 . S
H1072 C1078 0.930 . S
H1073 C1081 0.917 1_565 S
H1074 C1082 0.930 . S
H1075 C1083 0.930 . S
H1076 C1086 0.930 . S
H1077 C1087 0.930 . S
C1078 H1072 0.930 . S
C1078 C1079 1.355 . S
C1078 C1080 1.415 . S
C1079 C1078 1.355 . S
C1079 C1081 1.419 . S
C1080 C1078 1.415 . S
C1080 C1085 1.425 . S
C1080 C1087 1.409 . S
C1081 H1073 0.917 1_545 S
C1081 C1079 1.419 . S
C1081 C1082 1.362 . S
C1082 H1074 0.930 . S
C1082 C1081 1.362 . S
C1082 C1085 1.409 . S
C1083 H1075 0.930 . S
C1083 C1084 1.355 . S
C1083 C1085 1.415 . S
C1084 C1083 1.355 . S
C1084 C1086 1.419 . S
C1085 C1080 1.425 . S
C1085 C1082 1.409 . S
C1085 C1083 1.415 . S
C1086 H1076 0.930 . S
C1086 C1084 1.419 . S
C1086 C1087 1.362 . S
C1087 H1077 0.930 . S
C1087 C1080 1.409 . S
C1087 C1086 1.362 . S
H1088 C1094 0.930 . S
H1089 C1097 0.930 . S
H1090 C1098 0.930 . S
H1091 C1099 0.930 . S
H1092 C1102 0.930 . S
H1093 C1103 0.930 . S
C1094 H1088 0.930 . S
C1094 C1095 1.355 . S
C1094 C1096 1.415 . S
C1095 C1094 1.355 . S
C1095 C1097 1.419 . S
C1096 C1094 1.415 . S
C1096 C1101 1.425 . S
C1096 C1103 1.409 . S
C1097 H1089 0.930 . S
C1097 C1095 1.419 . S
C1097 C1098 1.362 . S
C1098 H1090 0.930 . S
C1098 C1097 1.362 . S
C1098 C1101 1.409 . S
C1099 H1091 0.930 . S
C1099 C1100 1.355 . S
C1099 C1101 1.415 . S
C1100 C1099 1.355 . S
C1100 C1102 1.419 . S
C1101 C1096 1.425 . S
C1101 C1098 1.409 . S
C1101 C1099 1.415 . S
C1102 H1092 0.930 . S
C1102 C1100 1.419 . S
C1102 C1103 1.362 . S
C1103 H1093 0.930 . S
C1103 C1096 1.409 . S
C1103 C1102 1.362 . S
H1104 C1110 0.930 . S
H1105 C1113 0.930 . S
H1106 C1114 0.930 . S
H1107 C1115 0.930 . S
H1108 C1118 0.930 . S
H1109 C1119 0.930 . S
C1110 H1104 0.930 . S
C1110 C1111 1.355 . S
C1110 C1112 1.415 . S
C1111 C1110 1.355 . S
C1111 C1113 1.419 1_545 S
C1112 C1110 1.415 . S
C1112 C1117 1.425 1_545 S
C1112 C1119 1.409 . S
C1113 H1105 0.930 . S
C1113 C1111 1.419 1_565 S
C1113 C1114 1.362 . S
C1114 H1106 0.930 . S
C1114 C1113 1.362 . S
C1114 C1117 1.409 . S
C1115 H1107 0.930 . S
C1115 C1116 1.355 . S
C1115 C1117 1.415 . S
C1116 C1115 1.355 . S
C1116 C1118 1.419 1_565 S
C1117 C1112 1.425 1_565 S
C1117 C1114 1.409 . S
C1117 C1115 1.415 . S
C1118 H1108 0.930 . S
C1118 C1116 1.419 1_545 S
C1118 C1119 1.362 . S
C1119 H1109 0.930 . S
C1119 C1112 1.409 . S
C1119 C1118 1.362 . S
H1120 C1126 0.930 . S
H1121 C1129 0.930 . S
H1122 C1130 0.930 . S
H1123 C1131 0.930 . S
H1124 C1134 0.930 . S
H1125 C1135 0.930 . S
C1126 H1120 0.930 . S
C1126 C1127 1.355 . S
C1126 C1128 1.415 . S
C1127 C1126 1.355 . S
C1127 C1129 1.419 . S
C1128 C1126 1.415 . S
C1128 C1133 1.425 . S
C1128 C1135 1.409 . S
C1129 H1121 0.930 . S
C1129 C1127 1.419 . S
C1129 C1130 1.362 . S
C1130 H1122 0.930 . S
C1130 C1129 1.362 . S
C1130 C1133 1.409 . S
C1131 H1123 0.930 . S
C1131 C1132 1.355 . S
C1131 C1133 1.415 . S
C1132 C1131 1.355 . S
C1132 C1134 1.419 . S
C1133 C1128 1.425 . S
C1133 C1130 1.409 . S
C1133 C1131 1.415 . S
C1134 H1124 0.930 . S
C1134 C1132 1.419 . S
C1134 C1135 1.362 . S
C1135 H1125 0.930 . S
C1135 C1128 1.409 . S
C1135 C1134 1.362 . S
H1136 C1142 0.930 . S
H1137 C1145 0.930 . S
H1138 C1146 0.930 . S
H1139 C1147 0.930 . S
H1140 C1150 0.930 . S
H1141 C1151 0.930 . S
C1142 H1136 0.930 . S
C1142 C1143 1.355 . S
C1142 C1144 1.415 . S
C1143 C1142 1.355 . S
C1143 C1145 1.419 . S
C1144 C1142 1.415 . S
C1144 C1149 1.425 . S
C1144 C1151 1.409 . S
C1145 H1137 0.930 . S
C1145 C1143 1.419 . S
C1145 C1146 1.362 . S
C1146 H1138 0.930 . S
C1146 C1145 1.362 . S
C1146 C1149 1.409 . S
C1147 H1139 0.930 . S
C1147 C1148 1.355 . S
C1147 C1149 1.415 . S
C1148 C1147 1.355 . S
C1148 C1150 1.419 . S
C1149 C1144 1.425 . S
C1149 C1146 1.409 . S
C1149 C1147 1.415 . S
C1150 H1140 0.930 . S
C1150 C1148 1.419 . S
C1150 C1151 1.362 . S
C1151 H1141 0.930 . S
C1151 C1144 1.409 . S
C1151 C1150 1.362 . S
H1152 C1158 0.930 . S
H1153 C1161 0.930 . S
H1154 C1162 0.930 . S
H1155 C1163 0.930 . S
H1156 C1166 0.930 . S
H1157 C1167 0.930 . S
C1158 H1152 0.930 . S
C1158 C1159 1.355 . S
C1158 C1160 1.415 . S
C1159 C1158 1.355 . S
C1159 C1161 1.419 . S
C1160 C1158 1.415 . S
C1160 C1165 1.425 . S
C1160 C1167 1.409 . S
C1161 H1153 0.930 . S
C1161 C1159 1.419 . S
C1161 C1162 1.362 . S
C1162 H1154 0.930 . S
C1162 C1161 1.362 . S
C1162 C1165 1.409 . S
C1163 H1155 0.930 . S
C1163 C1164 1.355 . S
C1163 C1165 1.415 . S
C1164 C1163 1.355 . S
C1164 C1166 1.419 . S
C1165 C1160 1.425 . S
C1165 C1162 1.409 . S
C1165 C1163 1.415 . S
C1166 H1156 0.930 . S
C1166 C1164 1.419 . S
C1166 C1167 1.362 . S
C1167 H1157 0.930 . S
C1167 C1160 1.409 . S
C1167 C1166 1.362 . S
H1168 C1174 0.930 . S
H1169 C1177 0.930 . S
H1170 C1178 0.930 . S
H1171 C1179 0.930 . S
H1172 C1182 0.930 . S
H1173 C1183 0.930 . S
C1174 H1168 0.930 . S
C1174 C1175 1.355 . S
C1174 C1176 1.415 . S
C1175 C1174 1.355 . S
C1175 C1177 1.419 . S
C1176 C1174 1.415 . S
C1176 C1181 1.425 . S
C1176 C1183 1.409 . S
C1177 H1169 0.930 . S
C1177 C1175 1.419 . S
C1177 C1178 1.362 . S
C1178 H1170 0.930 . S
C1178 C1177 1.362 . S
C1178 C1181 1.409 . S
C1179 H1171 0.930 . S
C1179 C1180 1.355 . S
C1179 C1181 1.415 . S
C1180 C1179 1.355 . S
C1180 C1182 1.419 . S
C1181 C1176 1.425 . S
C1181 C1178 1.409 . S
C1181 C1179 1.415 . S
C1182 H1172 0.930 . S
C1182 C1180 1.419 . S
C1182 C1183 1.362 . S
C1183 H1173 0.930 . S
C1183 C1176 1.409 . S
C1183 C1182 1.362 . S
H1184 C1190 0.930 . S
H1185 C1193 0.930 . S
H1186 C1194 0.930 . S
H1187 C1195 0.930 . S
H1188 C1198 0.930 1_455 S
H1189 C1199 0.930 . S
C1190 H1184 0.930 . S
C1190 C1191 1.355 . S
C1190 C1192 1.415 . S
C1191 C1190 1.355 . S
C1191 C1193 1.419 . S
C1192 C1190 1.415 . S
C1192 C1197 1.425 . S
C1192 C1199 1.409 . S
C1193 H1185 0.930 . S
C1193 C1191 1.419 . S
C1193 C1194 1.362 . S
C1194 H1186 0.930 . S
C1194 C1193 1.362 . S
C1194 C1197 1.409 . S
C1195 H1187 0.930 . S
C1195 C1196 1.355 . S
C1195 C1197 1.415 . S
C1196 C1195 1.355 . S
C1196 C1198 1.419 . S
C1197 C1192 1.425 . S
C1197 C1194 1.409 . S
C1197 C1195 1.415 . S
C1198 H1188 0.930 1_655 S
C1198 C1196 1.419 . S
C1198 C1199 1.362 . S
C1199 H1189 0.930 . S
C1199 C1192 1.409 . S
C1199 C1198 1.362 . S
H1200 C1206 0.930 . S
H1201 C1209 0.930 . S
H1202 C1210 0.930 . S
H1203 C1211 0.930 . S
H1204 C1214 0.930 . S
H1205 C1215 0.930 . S
C1206 H1200 0.930 . S
C1206 C1207 1.355 . S
C1206 C1208 1.415 . S
C1207 C1206 1.355 . S
C1207 C1209 1.419 . S
C1208 C1206 1.415 . S
C1208 C1213 1.425 . S
C1208 C1215 1.409 . S
C1209 H1201 0.930 . S
C1209 C1207 1.419 . S
C1209 C1210 1.362 . S
C1210 H1202 0.930 . S
C1210 C1209 1.362 . S
C1210 C1213 1.409 . S
C1211 H1203 0.930 . S
C1211 C1212 1.355 . S
C1211 C1213 1.415 . S
C1212 C1211 1.355 . S
C1212 C1214 1.419 . S
C1213 C1208 1.425 . S
C1213 C1210 1.409 . S
C1213 C1211 1.415 . S
C1214 H1204 0.930 . S
C1214 C1212 1.419 . S
C1214 C1215 1.362 . S
C1215 H1205 0.930 . S
C1215 C1208 1.409 . S
C1215 C1214 1.362 . S
H1216 C1222 0.930 . S
H1217 C1225 0.930 . S
H1218 C1226 0.930 . S
H1219 C1227 0.930 . S
H1220 C1230 0.930 . S
H1221 C1231 0.930 1_545 S
C1222 H1216 0.930 . S
C1222 C1223 1.355 . S
C1222 C1224 1.415 . S
C1223 C1222 1.355 . S
C1223 C1225 1.419 . S
C1224 C1222 1.415 . S
C1224 C1229 1.425 . S
C1224 C1231 1.409 . S
C1225 H1217 0.930 . S
C1225 C1223 1.419 . S
C1225 C1226 1.362 . S
C1226 H1218 0.930 . S
C1226 C1225 1.362 . S
C1226 C1229 1.409 . S
C1227 H1219 0.930 . S
C1227 C1228 1.355 . S
C1227 C1229 1.415 . S
C1228 C1227 1.355 . S
C1228 C1230 1.419 1_565 S
C1229 C1224 1.425 . S
C1229 C1226 1.409 . S
C1229 C1227 1.415 . S
C1230 H1220 0.930 . S
C1230 C1228 1.419 1_545 S
C1230 C1231 1.362 1_545 S
C1231 H1221 0.930 1_565 S
C1231 C1224 1.409 . S
C1231 C1230 1.362 1_565 S
H1232 C1238 0.930 . S
H1233 C1241 0.930 . S
H1234 C1242 0.930 . S
H1235 C1243 0.930 . S
H1236 C1246 0.930 . S
H1237 C1247 0.930 . S
C1238 H1232 0.930 . S
C1238 C1239 1.355 . S
C1238 C1240 1.415 . S
C1239 C1238 1.355 . S
C1239 C1241 1.419 . S
C1240 C1238 1.415 . S
C1240 C1245 1.425 . S
C1240 C1247 1.409 . S
C1241 H1233 0.930 . S
C1241 C1239 1.419 . S
C1241 C1242 1.362 . S
C1242 H1234 0.930 . S
C1242 C1241 1.362 . S
C1242 C1245 1.409 . S
C1243 H1235 0.930 . S
C1243 C1244 1.355 . S
C1243 C1245 1.415 . S
C1244 C1243 1.355 . S
C1244 C1246 1.419 . S
C1245 C1240 1.425 . S
C1245 C1242 1.409 . S
C1245 C1243 1.415 . S
C1246 H1236 0.930 . S
C1246 C1244 1.419 . S
C1246 C1247 1.362 . S
C1247 H1237 0.930 . S
C1247 C1240 1.409 . S
C1247 C1246 1.362 . S
H1248 C1254 0.930 . S
H1249 C1257 0.930 . S
H1250 C1258 0.930 . S
H1251 C1259 0.930 . S
H1252 C1262 0.930 . S
H1253 C1263 0.930 . S
C1254 H1248 0.930 . S
C1254 C1255 1.355 . S
C1254 C1256 1.415 . S
C1255 C1254 1.355 . S
C1255 C1257 1.419 . S
C1256 C1254 1.415 . S
C1256 C1261 1.425 . S
C1256 C1263 1.409 . S
C1257 H1249 0.930 . S
C1257 C1255 1.419 . S
C1257 C1258 1.362 . S
C1258 H1250 0.930 . S
C1258 C1257 1.362 . S
C1258 C1261 1.409 . S
C1259 H1251 0.930 . S
C1259 C1260 1.355 . S
C1259 C1261 1.415 . S
C1260 C1259 1.355 . S
C1260 C1262 1.419 . S
C1261 C1256 1.425 . S
C1261 C1258 1.409 . S
C1261 C1259 1.415 . S
C1262 H1252 0.930 . S
C1262 C1260 1.419 . S
C1262 C1263 1.362 . S
C1263 H1253 0.930 . S
C1263 C1256 1.409 . S
C1263 C1262 1.362 . S
H1264 C1270 0.930 . S
H1265 C1273 0.917 1_655 S
H1266 C1274 0.942 . S
H1267 C1275 0.930 . S
H1268 C1278 0.896 1_554 S
H1269 C1279 0.930 . S
C1270 H1264 0.930 . S
C1270 C1271 1.355 . S
C1270 C1272 1.415 . S
C1271 C1270 1.355 . S
C1271 C1273 1.429 . S
C1272 C1270 1.415 . S
C1272 C1277 1.425 . S
C1272 C1279 1.409 . S
C1273 H1265 0.917 1_455 S
C1273 C1271 1.429 . S
C1273 C1274 1.366 . S
C1274 H1266 0.942 . S
C1274 C1273 1.366 . S
C1274 C1277 1.409 . S
C1275 H1267 0.930 . S
C1275 C1276 1.355 . S
C1275 C1277 1.415 . S
C1276 C1275 1.355 . S
C1276 C1278 1.421 . S
C1277 C1272 1.425 . S
C1277 C1274 1.409 . S
C1277 C1275 1.415 . S
C1278 H1268 0.896 1_556 S
C1278 C1276 1.421 . S
C1278 C1279 1.395 . S
C1279 H1269 0.930 . S
C1279 C1272 1.409 . S
C1279 C1278 1.395 . S
H1280 C1286 0.930 . S
H1281 C1289 0.930 . S
H1282 C1290 0.930 . S
H1283 C1291 0.930 . S
H1284 C1294 0.930 . S
H1285 C1295 0.930 . S
C1286 H1280 0.930 . S
C1286 C1287 1.355 . S
C1286 C1288 1.415 . S
C1287 C1286 1.355 . S
C1287 C1289 1.419 . S
C1288 C1286 1.415 . S
C1288 C1293 1.425 . S
C1288 C1295 1.409 . S
C1289 H1281 0.930 . S
C1289 C1287 1.419 . S
C1289 C1290 1.362 . S
C1290 H1282 0.930 . S
C1290 C1289 1.362 . S
C1290 C1293 1.409 . S
C1291 H1283 0.930 . S
C1291 C1292 1.355 . S
C1291 C1293 1.415 . S
C1292 C1291 1.355 . S
C1292 C1294 1.419 . S
C1293 C1288 1.425 . S
C1293 C1290 1.409 . S
C1293 C1291 1.415 . S
C1294 H1284 0.930 . S
C1294 C1292 1.419 . S
C1294 C1295 1.362 . S
C1295 H1285 0.930 . S
C1295 C1288 1.409 . S
C1295 C1294 1.362 . S
H1296 C1302 0.930 . S
H1297 C1305 0.930 . S
H1298 C1306 0.930 . S
H1299 C1307 0.930 . S
H1300 C1310 0.930 . S
H1301 C1311 0.930 . S
C1302 H1296 0.930 . S
C1302 C1303 1.355 . S
C1302 C1304 1.415 . S
C1303 C1302 1.355 . S
C1303 C1305 1.419 . S
C1304 C1302 1.415 . S
C1304 C1309 1.425 . S
C1304 C1311 1.409 . S
C1305 H1297 0.930 . S
C1305 C1303 1.419 . S
C1305 C1306 1.362 . S
C1306 H1298 0.930 . S
C1306 C1305 1.362 . S
C1306 C1309 1.409 . S
C1307 H1299 0.930 . S
C1307 C1308 1.355 . S
C1307 C1309 1.415 . S
C1308 C1307 1.355 . S
C1308 C1310 1.419 . S
C1309 C1304 1.425 . S
C1309 C1306 1.409 . S
C1309 C1307 1.415 . S
C1310 H1300 0.930 . S
C1310 C1308 1.419 . S
C1310 C1311 1.362 . S
C1311 H1301 0.930 . S
C1311 C1304 1.409 . S
C1311 C1310 1.362 . S
H1312 C1318 0.930 . S
H1313 C1321 0.930 . S
H1314 C1322 0.930 . S
H1315 C1323 0.930 . S
H1316 C1326 0.930 . S
H1317 C1327 0.930 . S
C1318 H1312 0.930 . S
C1318 C1319 1.355 . S
C1318 C1320 1.415 . S
C1319 C1318 1.355 . S
C1319 C1321 1.419 . S
C1320 C1318 1.415 . S
C1320 C1325 1.425 . S
C1320 C1327 1.409 . S
C1321 H1313 0.930 . S
C1321 C1319 1.419 . S
C1321 C1322 1.362 . S
C1322 H1314 0.930 . S
C1322 C1321 1.362 . S
C1322 C1325 1.409 . S
C1323 H1315 0.930 . S
C1323 C1324 1.355 . S
C1323 C1325 1.415 . S
C1324 C1323 1.355 . S
C1324 C1326 1.419 . S
C1325 C1320 1.425 . S
C1325 C1322 1.409 . S
C1325 C1323 1.415 . S
C1326 H1316 0.930 . S
C1326 C1324 1.419 . S
C1326 C1327 1.362 . S
C1327 H1317 0.930 . S
C1327 C1320 1.409 . S
C1327 C1326 1.362 . S
H1328 C1334 0.930 . S
H1329 C1337 0.930 . S
H1330 C1338 0.930 . S
H1331 C1339 0.930 . S
H1332 C1342 0.930 . S
H1333 C1343 0.930 . S
C1334 H1328 0.930 . S
C1334 C1335 1.355 . S
C1334 C1336 1.415 . S
C1335 C1334 1.355 . S
C1335 C1337 1.419 . S
C1336 C1334 1.415 . S
C1336 C1341 1.425 . S
C1336 C1343 1.409 . S
C1337 H1329 0.930 . S
C1337 C1335 1.419 . S
C1337 C1338 1.362 . S
C1338 H1330 0.930 . S
C1338 C1337 1.362 . S
C1338 C1341 1.409 . S
C1339 H1331 0.930 . S
C1339 C1340 1.355 . S
C1339 C1341 1.415 . S
C1340 C1339 1.355 . S
C1340 C1342 1.419 . S
C1341 C1336 1.425 . S
C1341 C1338 1.409 . S
C1341 C1339 1.415 . S
C1342 H1332 0.930 . S
C1342 C1340 1.419 . S
C1342 C1343 1.362 . S
C1343 H1333 0.930 . S
C1343 C1336 1.409 . S
C1343 C1342 1.362 . S
H1344 C1350 0.930 . S
H1345 C1353 0.930 . S
H1346 C1354 0.930 . S
H1347 C1355 0.930 . S
H1348 C1358 0.930 . S
H1349 C1359 0.930 . S
C1350 H1344 0.930 . S
C1350 C1351 1.355 . S
C1350 C1352 1.415 . S
C1351 C1350 1.355 . S
C1351 C1353 1.419 . S
C1352 C1350 1.415 . S
C1352 C1357 1.425 . S
C1352 C1359 1.409 . S
C1353 H1345 0.930 . S
C1353 C1351 1.419 . S
C1353 C1354 1.362 . S
C1354 H1346 0.930 . S
C1354 C1353 1.362 . S
C1354 C1357 1.409 . S
C1355 H1347 0.930 . S
C1355 C1356 1.355 . S
C1355 C1357 1.415 . S
C1356 C1355 1.355 . S
C1356 C1358 1.419 . S
C1357 C1352 1.425 . S
C1357 C1354 1.409 . S
C1357 C1355 1.415 . S
C1358 H1348 0.930 . S
C1358 C1356 1.419 . S
C1358 C1359 1.362 . S
C1359 H1349 0.930 . S
C1359 C1352 1.409 . S
C1359 C1358 1.362 . S
H1360 C1366 0.930 . S
H1361 C1369 0.930 . S
H1362 C1370 0.930 . S
H1363 C1371 0.930 . S
H1364 C1374 0.930 . S
H1365 C1375 0.930 . S
C1366 H1360 0.930 . S
C1366 C1367 1.355 . S
C1366 C1368 1.415 . S
C1367 C1366 1.355 . S
C1367 C1369 1.419 . S
C1368 C1366 1.415 . S
C1368 C1373 1.425 . S
C1368 C1375 1.409 . S
C1369 H1361 0.930 . S
C1369 C1367 1.419 . S
C1369 C1370 1.362 . S
C1370 H1362 0.930 . S
C1370 C1369 1.362 . S
C1370 C1373 1.409 . S
C1371 H1363 0.930 . S
C1371 C1372 1.355 . S
C1371 C1373 1.415 . S
C1372 C1371 1.355 . S
C1372 C1374 1.419 . S
C1373 C1368 1.425 . S
C1373 C1370 1.409 . S
C1373 C1371 1.415 . S
C1374 H1364 0.930 . S
C1374 C1372 1.419 . S
C1374 C1375 1.362 . S
C1375 H1365 0.930 . S
C1375 C1368 1.409 . S
C1375 C1374 1.362 . S
H1376 C1382 0.930 . S
H1377 C1385 0.930 . S
H1378 C1386 0.930 . S
H1379 C1387 0.930 . S
H1380 C1390 0.930 . S
H1381 C1391 0.930 . S
C1382 H1376 0.930 . S
C1382 C1383 1.355 . S
C1382 C1384 1.415 . S
C1383 C1382 1.355 . S
C1383 C1385 1.419 . S
C1384 C1382 1.415 . S
C1384 C1389 1.425 . S
C1384 C1391 1.409 . S
C1385 H1377 0.930 . S
C1385 C1383 1.419 . S
C1385 C1386 1.362 . S
C1386 H1378 0.930 . S
C1386 C1385 1.362 . S
C1386 C1389 1.409 . S
C1387 H1379 0.930 . S
C1387 C1388 1.355 . S
C1387 C1389 1.415 . S
C1388 C1387 1.355 . S
C1388 C1390 1.419 . S
C1389 C1384 1.425 . S
C1389 C1386 1.409 . S
C1389 C1387 1.415 . S
C1390 H1380 0.930 . S
C1390 C1388 1.419 . S
C1390 C1391 1.362 . S
C1391 H1381 0.930 . S
C1391 C1384 1.409 . S
C1391 C1390 1.362 . S
H1392 C1398 0.930 . S
H1393 C1401 0.930 . S
H1394 C1402 0.930 . S
H1395 C1403 0.930 . S
H1396 C1406 0.930 . S
H1397 C1407 0.930 . S
C1398 H1392 0.930 . S
C1398 C1399 1.349 1_545 S
C1398 C1400 1.415 . S
C1399 C1398 1.349 1_565 S
C1399 C1401 1.424 . S
C1400 C1398 1.415 . S
C1400 C1405 1.425 . S
C1400 C1407 1.409 1_655 S
C1401 H1393 0.930 . S
C1401 C1399 1.424 . S
C1401 C1402 1.362 . S
C1402 H1394 0.930 . S
C1402 C1401 1.362 . S
C1402 C1405 1.409 1_565 S
C1403 H1395 0.930 . S
C1403 C1404 1.355 1_655 S
C1403 C1405 1.415 . S
C1404 C1403 1.355 1_455 S
C1404 C1406 1.419 . S
C1405 C1400 1.425 . S
C1405 C1402 1.409 1_545 S
C1405 C1403 1.415 . S
C1406 H1396 0.930 . S
C1406 C1404 1.419 . S
C1406 C1407 1.362 . S
C1407 H1397 0.930 . S
C1407 C1400 1.409 1_455 S
C1407 C1406 1.362 . S
H1408 C1414 0.930 . S
H1409 C1417 0.930 . S
H1410 C1418 0.930 . S
H1411 C1419 0.930 . S
H1412 C1422 0.930 . S
H1413 C1423 0.930 . S
C1414 H1408 0.930 . S
C1414 C1415 1.355 . S
C1414 C1416 1.415 . S
C1415 C1414 1.355 . S
C1415 C1417 1.419 . S
C1416 C1414 1.415 . S
C1416 C1421 1.425 . S
C1416 C1423 1.409 . S
C1417 H1409 0.930 . S
C1417 C1415 1.419 . S
C1417 C1418 1.362 . S
C1418 H1410 0.930 . S
C1418 C1417 1.362 . S
C1418 C1421 1.409 . S
C1419 H1411 0.930 . S
C1419 C1420 1.355 . S
C1419 C1421 1.415 . S
C1420 C1419 1.355 . S
C1420 C1422 1.419 . S
C1421 C1416 1.425 . S
C1421 C1418 1.409 . S
C1421 C1419 1.415 . S
C1422 H1412 0.930 . S
C1422 C1420 1.419 . S
C1422 C1423 1.362 . S
C1423 H1413 0.930 . S
C1423 C1416 1.409 . S
C1423 C1422 1.362 . S
H1424 C1430 0.930 . S
H1425 C1433 0.930 . S
H1426 C1434 0.930 . S
H1427 C1435 0.930 . S
H1428 C1438 0.930 1_565 S
H1429 C1439 0.930 . S
C1430 H1424 0.930 . S
C1430 C1431 1.355 . S
C1430 C1432 1.415 . S
C1431 C1430 1.355 . S
C1431 C1433 1.419 . S
C1432 C1430 1.415 . S
C1432 C1437 1.425 . S
C1432 C1439 1.409 . S
C1433 H1425 0.930 . S
C1433 C1431 1.419 . S
C1433 C1434 1.362 . S
C1434 H1426 0.930 . S
C1434 C1433 1.362 . S
C1434 C1437 1.409 . S
C1435 H1427 0.930 . S
C1435 C1436 1.355 . S
C1435 C1437 1.415 . S
C1436 C1435 1.355 . S
C1436 C1438 1.419 . S
C1437 C1432 1.425 . S
C1437 C1434 1.409 . S
C1437 C1435 1.415 . S
C1438 H1428 0.930 1_545 S
C1438 C1436 1.419 . S
C1438 C1439 1.362 . S
C1439 H1429 0.930 . S
C1439 C1432 1.409 . S
C1439 C1438 1.362 . S
H1440 C1446 0.930 . S
H1441 C1449 0.930 . S
H1442 C1450 0.930 . S
H1443 C1451 0.930 . S
H1444 C1454 0.930 . S
H1445 C1455 0.930 . S
C1446 H1440 0.930 . S
C1446 C1447 1.355 . S
C1446 C1448 1.415 . S
C1447 C1446 1.355 . S
C1447 C1449 1.419 . S
C1448 C1446 1.415 . S
C1448 C1453 1.425 . S
C1448 C1455 1.409 . S
C1449 H1441 0.930 . S
C1449 C1447 1.419 . S
C1449 C1450 1.362 . S
C1450 H1442 0.930 . S
C1450 C1449 1.362 . S
C1450 C1453 1.409 . S
C1451 H1443 0.930 . S
C1451 C1452 1.355 . S
C1451 C1453 1.415 . S
C1452 C1451 1.355 . S
C1452 C1454 1.419 . S
C1453 C1448 1.425 . S
C1453 C1450 1.409 . S
C1453 C1451 1.415 . S
C1454 H1444 0.930 . S
C1454 C1452 1.419 . S
C1454 C1455 1.362 . S
C1455 H1445 0.930 . S
C1455 C1448 1.409 . S
C1455 C1454 1.362 . S
H1456 C1462 0.930 . S
H1457 C1465 0.930 . S
H1458 C1466 0.930 . S
H1459 C1467 0.930 . S
H1460 C1470 0.930 1_455 S
H1461 C1471 0.930 . S
C1462 H1456 0.930 . S
C1462 C1463 1.355 . S
C1462 C1464 1.415 . S
C1463 C1462 1.355 . S
C1463 C1465 1.419 1_545 S
C1464 C1462 1.415 . S
C1464 C1469 1.425 1_545 S
C1464 C1471 1.409 . S
C1465 H1457 0.930 . S
C1465 C1463 1.419 1_565 S
C1465 C1466 1.362 . S
C1466 H1458 0.930 . S
C1466 C1465 1.362 . S
C1466 C1469 1.409 . S
C1467 H1459 0.930 . S
C1467 C1468 1.355 . S
C1467 C1469 1.415 . S
C1468 C1467 1.355 . S
C1468 C1470 1.419 1_565 S
C1469 C1464 1.425 1_565 S
C1469 C1466 1.409 . S
C1469 C1467 1.415 . S
C1470 H1460 0.930 1_655 S
C1470 C1468 1.419 1_545 S
C1470 C1471 1.362 . S
C1471 H1461 0.930 . S
C1471 C1464 1.409 . S
C1471 C1470 1.362 . S
H1472 C1478 0.930 . S
H1473 C1481 0.930 . S
H1474 C1482 0.930 . S
H1475 C1483 0.930 . S
H1476 C1486 0.930 . S
H1477 C1487 0.930 . S
C1478 H1472 0.930 . S
C1478 C1479 1.355 . S
C1478 C1480 1.415 . S
C1479 C1478 1.355 . S
C1479 C1481 1.419 . S
C1480 C1478 1.415 . S
C1480 C1485 1.425 . S
C1480 C1487 1.409 . S
C1481 H1473 0.930 . S
C1481 C1479 1.419 . S
C1481 C1482 1.362 . S
C1482 H1474 0.930 . S
C1482 C1481 1.362 . S
C1482 C1485 1.409 . S
C1483 H1475 0.930 . S
C1483 C1484 1.355 . S
C1483 C1485 1.415 . S
C1484 C1483 1.355 . S
C1484 C1486 1.419 . S
C1485 C1480 1.425 . S
C1485 C1482 1.409 . S
C1485 C1483 1.415 . S
C1486 H1476 0.930 . S
C1486 C1484 1.419 . S
C1486 C1487 1.362 . S
C1487 H1477 0.930 . S
C1487 C1480 1.409 . S
C1487 C1486 1.362 . S
H1488 C1494 0.930 . S
H1489 C1497 0.930 . S
H1490 C1498 0.930 . S
H1491 C1499 0.930 . S
H1492 C1502 0.930 . S
H1493 C1503 0.930 . S
C1494 H1488 0.930 . S
C1494 C1495 1.355 . S
C1494 C1496 1.415 . S
C1495 C1494 1.355 . S
C1495 C1497 1.419 . S
C1496 C1494 1.415 . S
C1496 C1501 1.425 . S
C1496 C1503 1.409 . S
C1497 H1489 0.930 . S
C1497 C1495 1.419 . S
C1497 C1498 1.362 . S
C1498 H1490 0.930 . S
C1498 C1497 1.362 . S
C1498 C1501 1.409 . S
C1499 H1491 0.930 . S
C1499 C1500 1.355 . S
C1499 C1501 1.415 . S
C1500 C1499 1.355 . S
C1500 C1502 1.419 . S
C1501 C1496 1.425 . S
C1501 C1498 1.409 . S
C1501 C1499 1.415 . S
C1502 H1492 0.930 . S
C1502 C1500 1.419 . S
C1502 C1503 1.362 . S
C1503 H1493 0.930 . S
C1503 C1496 1.409 . S
C1503 C1502 1.362 . S
H1504 C1510 0.930 . S
H1505 C1513 0.930 . S
H1506 C1514 0.930 . S
H1507 C1515 0.930 . S
H1508 C1518 0.930 . S
H1509 C1519 0.930 . S
C1510 H1504 0.930 . S
C1510 C1511 1.355 . S
C1510 C1512 1.415 . S
C1511 C1510 1.355 . S
C1511 C1513 1.419 . S
C1512 C1510 1.415 . S
C1512 C1517 1.425 . S
C1512 C1519 1.409 . S
C1513 H1505 0.930 . S
C1513 C1511 1.419 . S
C1513 C1514 1.362 . S
C1514 H1506 0.930 . S
C1514 C1513 1.362 . S
C1514 C1517 1.409 . S
C1515 H1507 0.930 . S
C1515 C1516 1.355 . S
C1515 C1517 1.415 . S
C1516 C1515 1.355 . S
C1516 C1518 1.419 . S
C1517 C1512 1.425 . S
C1517 C1514 1.409 . S
C1517 C1515 1.415 . S
C1518 H1508 0.930 . S
C1518 C1516 1.419 . S
C1518 C1519 1.362 . S
C1519 H1509 0.930 . S
C1519 C1512 1.409 . S
C1519 C1518 1.362 . S
H1520 C1526 0.930 . S
H1521 C1529 0.930 . S
H1522 C1530 0.930 . S
H1523 C1531 0.930 . S
H1524 C1534 0.930 . S
H1525 C1535 0.930 . S
C1526 H1520 0.930 . S
C1526 C1527 1.355 . S
C1526 C1528 1.415 . S
C1527 C1526 1.355 . S
C1527 C1529 1.419 . S
C1528 C1526 1.415 . S
C1528 C1533 1.425 . S
C1528 C1535 1.409 . S
C1529 H1521 0.930 . S
C1529 C1527 1.419 . S
C1529 C1530 1.362 . S
C1530 H1522 0.930 . S
C1530 C1529 1.362 . S
C1530 C1533 1.409 . S
C1531 H1523 0.930 . S
C1531 C1532 1.355 . S
C1531 C1533 1.415 . S
C1532 C1531 1.355 . S
C1532 C1534 1.419 . S
C1533 C1528 1.425 . S
C1533 C1530 1.409 . S
C1533 C1531 1.415 . S
C1534 H1524 0.930 . S
C1534 C1532 1.419 . S
C1534 C1535 1.362 . S
C1535 H1525 0.930 . S
C1535 C1528 1.409 . S
C1535 C1534 1.362 . S
H1536 C1542 0.945 . S
H1537 C1545 0.930 . S
H1538 C1546 0.930 . S
H1539 C1547 0.930 . S
H1540 C1550 0.930 . S
H1541 C1551 0.930 . S
C1542 H1536 0.945 . S
C1542 C1543 1.355 . S
C1542 C1544 1.415 . S
C1543 C1542 1.355 . S
C1543 C1545 1.419 . S
C1544 C1542 1.415 . S
C1544 C1549 1.425 . S
C1544 C1551 1.409 . S
C1545 H1537 0.930 . S
C1545 C1543 1.419 . S
C1545 C1546 1.362 . S
C1546 H1538 0.930 . S
C1546 C1545 1.362 . S
C1546 C1549 1.409 . S
C1547 H1539 0.930 . S
C1547 C1548 1.355 . S
C1547 C1549 1.415 . S
C1548 C1547 1.355 . S
C1548 C1550 1.419 . S
C1549 C1544 1.425 . S
C1549 C1546 1.409 . S
C1549 C1547 1.415 . S
C1550 H1540 0.930 . S
C1550 C1548 1.419 . S
C1550 C1551 1.362 . S
C1551 H1541 0.930 . S
C1551 C1544 1.409 . S
C1551 C1550 1.362 . S
H1552 C1558 0.930 . S
H1553 C1561 0.930 . S
H1554 C1562 0.930 . S
H1555 C1563 0.930 . S
H1556 C1566 0.930 . S
H1557 C1567 0.930 . S
C1558 H1552 0.930 . S
C1558 C1559 1.355 . S
C1558 C1560 1.415 . S
C1559 C1558 1.355 . S
C1559 C1561 1.419 . S
C1560 C1558 1.415 . S
C1560 C1565 1.425 . S
C1560 C1567 1.409 . S
C1561 H1553 0.930 . S
C1561 C1559 1.419 . S
C1561 C1562 1.362 . S
C1562 H1554 0.930 . S
C1562 C1561 1.362 . S
C1562 C1565 1.409 . S
C1563 H1555 0.930 . S
C1563 C1564 1.355 . S
C1563 C1565 1.415 . S
C1564 C1563 1.355 . S
C1564 C1566 1.419 . S
C1565 C1560 1.425 . S
C1565 C1562 1.409 . S
C1565 C1563 1.415 . S
C1566 H1556 0.930 . S
C1566 C1564 1.419 . S
C1566 C1567 1.362 . S
C1567 H1557 0.930 . S
C1567 C1560 1.409 . S
C1567 C1566 1.362 . S
H1568 C1574 0.930 . S
H1569 C1577 0.930 . S
H1570 C1578 0.930 . S
H1571 C1579 0.930 . S
H1572 C1582 0.930 . S
H1573 C1583 0.930 . S
C1574 H1568 0.930 . S
C1574 C1575 1.355 . S
C1574 C1576 1.415 . S
C1575 C1574 1.355 . S
C1575 C1577 1.419 . S
C1576 C1574 1.415 . S
C1576 C1581 1.425 . S
C1576 C1583 1.409 . S
C1577 H1569 0.930 . S
C1577 C1575 1.419 . S
C1577 C1578 1.362 . S
C1578 H1570 0.930 . S
C1578 C1577 1.362 . S
C1578 C1581 1.409 . S
C1579 H1571 0.930 . S
C1579 C1580 1.355 . S
C1579 C1581 1.415 . S
C1580 C1579 1.355 . S
C1580 C1582 1.419 . S
C1581 C1576 1.425 . S
C1581 C1578 1.409 . S
C1581 C1579 1.415 . S
C1582 H1572 0.930 . S
C1582 C1580 1.419 . S
C1582 C1583 1.362 . S
C1583 H1573 0.930 . S
C1583 C1576 1.409 . S
C1583 C1582 1.362 . S
H1584 C1590 0.930 . S
H1585 C1593 0.930 . S
H1586 C1594 0.930 . S
H1587 C1595 0.930 . S
H1588 C1598 0.930 . S
H1589 C1599 0.930 . S
C1590 H1584 0.930 . S
C1590 C1591 1.355 . S
C1590 C1592 1.415 . S
C1591 C1590 1.355 . S
C1591 C1593 1.419 . S
C1592 C1590 1.415 . S
C1592 C1597 1.425 . S
C1592 C1599 1.409 . S
C1593 H1585 0.930 . S
C1593 C1591 1.419 . S
C1593 C1594 1.362 . S
C1594 H1586 0.930 . S
C1594 C1593 1.362 . S
C1594 C1597 1.409 . S
C1595 H1587 0.930 . S
C1595 C1596 1.355 . S
C1595 C1597 1.415 . S
C1596 C1595 1.355 . S
C1596 C1598 1.419 . S
C1597 C1592 1.425 . S
C1597 C1594 1.409 . S
C1597 C1595 1.415 . S
C1598 H1588 0.930 . S
C1598 C1596 1.419 . S
C1598 C1599 1.362 . S
C1599 H1589 0.930 . S
C1599 C1592 1.409 . S
C1599 C1598 1.362 . S
H1600 C1606 0.930 . S
H1601 C1609 0.930 . S
H1602 C1610 0.930 . S
H1603 C1611 0.930 . S
H1604 C1614 0.930 . S
H1605 C1615 0.930 . S
C1606 H1600 0.930 . S
C1606 C1607 1.355 . S
C1606 C1608 1.415 . S
C1607 C1606 1.355 . S
C1607 C1609 1.419 . S
C1608 C1606 1.415 . S
C1608 C1613 1.425 . S
C1608 C1615 1.409 . S
C1609 H1601 0.930 . S
C1609 C1607 1.419 . S
C1609 C1610 1.362 . S
C1610 H1602 0.930 . S
C1610 C1609 1.362 . S
C1610 C1613 1.409 . S
C1611 H1603 0.930 . S
C1611 C1612 1.355 . S
C1611 C1613 1.415 . S
C1612 C1611 1.355 . S
C1612 C1614 1.419 . S
C1613 C1608 1.425 . S
C1613 C1610 1.409 . S
C1613 C1611 1.415 . S
C1614 H1604 0.930 . S
C1614 C1612 1.419 . S
C1614 C1615 1.362 . S
C1615 H1605 0.930 . S
C1615 C1608 1.409 . S
C1615 C1614 1.362 . S
H1616 C1622 0.930 . S
H1617 C1625 0.930 . S
H1618 C1626 0.930 . S
H1619 C1627 0.930 . S
H1620 C1630 0.930 . S
H1621 C1631 0.930 . S
C1622 H1616 0.930 . S
C1622 C1623 1.355 . S
C1622 C1624 1.415 . S
C1623 C1622 1.355 . S
C1623 C1625 1.419 . S
C1624 C1622 1.415 . S
C1624 C1629 1.425 . S
C1624 C1631 1.409 . S
C1625 H1617 0.930 . S
C1625 C1623 1.419 . S
C1625 C1626 1.362 . S
C1626 H1618 0.930 . S
C1626 C1625 1.362 . S
C1626 C1629 1.409 . S
C1627 H1619 0.930 . S
C1627 C1628 1.355 . S
C1627 C1629 1.415 . S
C1628 C1627 1.355 . S
C1628 C1630 1.419 . S
C1629 C1624 1.425 . S
C1629 C1626 1.409 . S
C1629 C1627 1.415 . S
C1630 H1620 0.930 . S
C1630 C1628 1.419 . S
C1630 C1631 1.362 . S
C1631 H1621 0.930 . S
C1631 C1624 1.409 . S
C1631 C1630 1.362 . S
H1632 C1638 0.930 . S
H1633 C1641 0.930 . S
H1634 C1642 0.930 . S
H1635 C1643 0.930 . S
H1636 C1646 0.930 . S
H1637 C1647 0.930 . S
C1638 H1632 0.930 . S
C1638 C1639 1.355 . S
C1638 C1640 1.415 . S
C1639 C1638 1.355 . S
C1639 C1641 1.419 . S
C1640 C1638 1.415 . S
C1640 C1645 1.425 . S
C1640 C1647 1.409 . S
C1641 H1633 0.930 . S
C1641 C1639 1.419 . S
C1641 C1642 1.362 . S
C1642 H1634 0.930 . S
C1642 C1641 1.362 . S
C1642 C1645 1.409 . S
C1643 H1635 0.930 . S
C1643 C1644 1.355 . S
C1643 C1645 1.415 . S
C1644 C1643 1.355 . S
C1644 C1646 1.419 . S
C1645 C1640 1.425 . S
C1645 C1642 1.409 . S
C1645 C1643 1.415 . S
C1646 H1636 0.930 . S
C1646 C1644 1.419 . S
C1646 C1647 1.362 . S
C1647 H1637 0.930 . S
C1647 C1640 1.409 . S
C1647 C1646 1.362 . S
H1648 C1654 0.930 . S
H1649 C1657 0.930 . S
H1650 C1658 0.930 . S
H1651 C1659 0.930 . S
H1652 C1662 0.930 . S
H1653 C1663 0.930 . S
C1654 H1648 0.930 . S
C1654 C1655 1.355 . S
C1654 C1656 1.415 . S
C1655 C1654 1.355 . S
C1655 C1657 1.419 . S
C1656 C1654 1.415 . S
C1656 C1661 1.425 . S
C1656 C1663 1.409 . S
C1657 H1649 0.930 . S
C1657 C1655 1.419 . S
C1657 C1658 1.362 . S
C1658 H1650 0.930 . S
C1658 C1657 1.362 . S
C1658 C1661 1.409 . S
C1659 H1651 0.930 . S
C1659 C1660 1.355 . S
C1659 C1661 1.415 . S
C1660 C1659 1.355 . S
C1660 C1662 1.419 . S
C1661 C1656 1.425 . S
C1661 C1658 1.409 . S
C1661 C1659 1.415 . S
C1662 H1652 0.930 . S
C1662 C1660 1.419 . S
C1662 C1663 1.362 . S
C1663 H1653 0.930 . S
C1663 C1656 1.409 . S
C1663 C1662 1.362 . S
H1664 C1670 0.930 . S
H1665 C1673 0.930 . S
H1666 C1674 0.930 . S
H1667 C1675 0.930 . S
H1668 C1678 0.930 . S
H1669 C1679 0.930 . S
C1670 H1664 0.930 . S
C1670 C1671 1.355 . S
C1670 C1672 1.415 . S
C1671 C1670 1.355 . S
C1671 C1673 1.419 . S
C1672 C1670 1.415 . S
C1672 C1677 1.425 . S
C1672 C1679 1.409 . S
C1673 H1665 0.930 . S
C1673 C1671 1.419 . S
C1673 C1674 1.362 . S
C1674 H1666 0.930 . S
C1674 C1673 1.362 . S
C1674 C1677 1.409 . S
C1675 H1667 0.930 . S
C1675 C1676 1.355 . S
C1675 C1677 1.415 . S
C1676 C1675 1.355 . S
C1676 C1678 1.419 . S
C1677 C1672 1.425 . S
C1677 C1674 1.409 . S
C1677 C1675 1.415 . S
C1678 H1668 0.930 . S
C1678 C1676 1.419 . S
C1678 C1679 1.362 . S
C1679 H1669 0.930 . S
C1679 C1672 1.409 . S
C1679 C1678 1.362 . S
H1680 C1686 0.930 . S
H1681 C1689 0.930 . S
H1682 C1690 0.930 . S
H1683 C1691 0.930 . S
H1684 C1694 0.930 . S
H1685 C1695 0.930 . S
C1686 H1680 0.930 . S
C1686 C1687 1.355 . S
C1686 C1688 1.415 . S
C1687 C1686 1.355 . S
C1687 C1689 1.419 . S
C1688 C1686 1.415 . S
C1688 C1693 1.425 . S
C1688 C1695 1.409 . S
C1689 H1681 0.930 . S
C1689 C1687 1.419 . S
C1689 C1690 1.362 . S
C1690 H1682 0.930 . S
C1690 C1689 1.362 . S
C1690 C1693 1.409 . S
C1691 H1683 0.930 . S
C1691 C1692 1.355 . S
C1691 C1693 1.415 . S
C1692 C1691 1.355 . S
C1692 C1694 1.419 . S
C1693 C1688 1.425 . S
C1693 C1690 1.409 . S
C1693 C1691 1.415 . S
C1694 H1684 0.930 . S
C1694 C1692 1.419 . S
C1694 C1695 1.362 . S
C1695 H1685 0.930 . S
C1695 C1688 1.409 . S
C1695 C1694 1.362 . S
H1696 C1702 0.930 . S
H1697 C1705 0.930 . S
H1698 C1706 0.930 . S
H1699 C1707 0.930 . S
H1700 C1710 0.930 . S
H1701 C1711 0.930 . S
C1702 H1696 0.930 . S
C1702 C1703 1.355 . S
C1702 C1704 1.415 . S
C1703 C1702 1.355 . S
C1703 C1705 1.419 . S
C1704 C1702 1.415 . S
C1704 C1709 1.425 . S
C1704 C1711 1.409 . S
C1705 H1697 0.930 . S
C1705 C1703 1.419 . S
C1705 C1706 1.362 . S
C1706 H1698 0.930 . S
C1706 C1705 1.362 . S
C1706 C1709 1.409 . S
C1707 H1699 0.930 . S
C1707 C1708 1.355 . S
C1707 C1709 1.415 . S
C1708 C1707 1.355 . S
C1708 C1710 1.419 . S
C1709 C1704 1.425 . S
C1709 C1706 1.409 . S
C1709 C1707 1.415 . S
C1710 H1700 0.930 . S
C1710 C1708 1.419 . S
C1710 C1711 1.362 . S
C1711 H1701 0.930 . S
C1711 C1704 1.409 . S
C1711 C1710 1.362 . S
H1712 C1718 0.930 . S
H1713 C1721 0.930 . S
H1714 C1722 0.930 . S
H1715 C1723 0.930 . S
H1716 C1726 0.930 . S
H1717 C1727 0.930 1_554 S
C1718 H1712 0.930 . S
C1718 C1719 1.355 . S
C1718 C1720 1.415 . S
C1719 C1718 1.355 . S
C1719 C1721 1.419 . S
C1720 C1718 1.415 . S
C1720 C1725 1.425 . S
C1720 C1727 1.409 . S
C1721 H1713 0.930 . S
C1721 C1719 1.419 . S
C1721 C1722 1.362 . S
C1722 H1714 0.930 . S
C1722 C1721 1.362 . S
C1722 C1725 1.409 . S
C1723 H1715 0.930 . S
C1723 C1724 1.355 1_556 S
C1723 C1725 1.415 . S
C1724 C1723 1.355 1_554 S
C1724 C1726 1.419 . S
C1725 C1720 1.425 . S
C1725 C1722 1.409 . S
C1725 C1723 1.415 . S
C1726 H1716 0.930 . S
C1726 C1724 1.419 . S
C1726 C1727 1.362 1_554 S
C1727 H1717 0.930 1_556 S
C1727 C1720 1.409 . S
C1727 C1726 1.362 1_556 S
H1728 C1734 0.930 1_455 S
H1729 C1737 0.930 . S
H1730 C1738 0.930 . S
H1731 C1739 0.930 . S
H1732 C1742 0.930 . S
H1733 C1743 0.930 . S
C1734 H1728 0.930 1_655 S
C1734 C1735 1.355 . S
C1734 C1736 1.415 . S
C1735 C1734 1.355 . S
C1735 C1737 1.419 . S
C1736 C1734 1.415 . S
C1736 C1741 1.425 . S
C1736 C1743 1.409 . S
C1737 H1729 0.930 . S
C1737 C1735 1.419 . S
C1737 C1738 1.362 . S
C1738 H1730 0.930 . S
C1738 C1737 1.362 . S
C1738 C1741 1.409 . S
C1739 H1731 0.930 . S
C1739 C1740 1.355 . S
C1739 C1741 1.415 . S
C1740 C1739 1.355 . S
C1740 C1742 1.419 . S
C1741 C1736 1.425 . S
C1741 C1738 1.409 . S
C1741 C1739 1.415 . S
C1742 H1732 0.930 . S
C1742 C1740 1.419 . S
C1742 C1743 1.362 . S
C1743 H1733 0.930 . S
C1743 C1736 1.409 . S
C1743 C1742 1.362 . S
H1744 C1750 0.930 . S
H1745 C1753 0.930 . S
H1746 C1754 0.930 . S
H1747 C1755 0.930 . S
H1748 C1758 0.930 . S
H1749 C1759 0.930 1_655 S
C1750 H1744 0.930 . S
C1750 C1751 1.355 . S
C1750 C1752 1.415 . S
C1751 C1750 1.355 . S
C1751 C1753 1.419 . S
C1752 C1750 1.415 . S
C1752 C1757 1.425 . S
C1752 C1759 1.409 . S
C1753 H1745 0.930 . S
C1753 C1751 1.419 . S
C1753 C1754 1.362 . S
C1754 H1746 0.930 . S
C1754 C1753 1.362 . S
C1754 C1757 1.409 . S
C1755 H1747 0.930 . S
C1755 C1756 1.355 . S
C1755 C1757 1.415 . S
C1756 C1755 1.355 . S
C1756 C1758 1.419 . S
C1757 C1752 1.425 . S
C1757 C1754 1.409 . S
C1757 C1755 1.415 . S
C1758 H1748 0.930 . S
C1758 C1756 1.419 . S
C1758 C1759 1.362 . S
C1759 H1749 0.930 1_455 S
C1759 C1752 1.409 . S
C1759 C1758 1.362 . S
H1760 C1766 0.930 . S
H1761 C1769 0.930 . S
H1762 C1770 0.930 . S
H1763 C1771 0.930 . S
H1764 C1774 0.930 . S
H1765 C1775 0.930 . S
C1766 H1760 0.930 . S
C1766 C1767 1.355 . S
C1766 C1768 1.415 . S
C1767 C1766 1.355 . S
C1767 C1769 1.419 . S
C1768 C1766 1.415 . S
C1768 C1773 1.425 . S
C1768 C1775 1.409 . S
C1769 H1761 0.930 . S
C1769 C1767 1.419 . S
C1769 C1770 1.362 . S
C1770 H1762 0.930 . S
C1770 C1769 1.362 . S
C1770 C1773 1.409 . S
C1771 H1763 0.930 . S
C1771 C1772 1.355 . S
C1771 C1773 1.415 . S
C1772 C1771 1.355 . S
C1772 C1774 1.419 . S
C1773 C1768 1.425 . S
C1773 C1770 1.409 . S
C1773 C1771 1.415 . S
C1774 H1764 0.930 . S
C1774 C1772 1.419 . S
C1774 C1775 1.362 . S
C1775 H1765 0.930 . S
C1775 C1768 1.409 . S
C1775 C1774 1.362 . S
H1776 C1782 0.930 . S
H1777 C1785 0.930 . S
H1778 C1786 0.930 . S
H1779 C1787 0.930 . S
H1780 C1790 0.930 . S
H1781 C1791 0.930 . S
C1782 H1776 0.930 . S
C1782 C1783 1.355 . S
C1782 C1784 1.415 . S
C1783 C1782 1.355 . S
C1783 C1785 1.419 . S
C1784 C1782 1.415 . S
C1784 C1789 1.425 . S
C1784 C1791 1.409 . S
C1785 H1777 0.930 . S
C1785 C1783 1.419 . S
C1785 C1786 1.362 . S
C1786 H1778 0.930 . S
C1786 C1785 1.362 . S
C1786 C1789 1.409 . S
C1787 H1779 0.930 . S
C1787 C1788 1.355 . S
C1787 C1789 1.415 . S
C1788 C1787 1.355 . S
C1788 C1790 1.419 . S
C1789 C1784 1.425 . S
C1789 C1786 1.409 . S
C1789 C1787 1.415 . S
C1790 H1780 0.930 . S
C1790 C1788 1.419 . S
C1790 C1791 1.362 . S
C1791 H1781 0.930 . S
C1791 C1784 1.409 . S
C1791 C1790 1.362 . S
H1792 C1798 0.930 . S
H1793 C1801 0.930 . S
H1794 C1802 0.930 . S
H1795 C1803 0.930 . S
H1796 C1806 0.930 . S
H1797 C1807 0.930 . S
C1798 H1792 0.930 . S
C1798 C1799 1.355 . S
C1798 C1800 1.415 . S
C1799 C1798 1.355 . S
C1799 C1801 1.419 . S
C1800 C1798 1.415 . S
C1800 C1805 1.425 . S
C1800 C1807 1.409 . S
C1801 H1793 0.930 . S
C1801 C1799 1.419 . S
C1801 C1802 1.362 . S
C1802 H1794 0.930 . S
C1802 C1801 1.362 . S
C1802 C1805 1.409 . S
C1803 H1795 0.930 . S
C1803 C1804 1.355 . S
C1803 C1805 1.415 . S
C1804 C1803 1.355 . S
C1804 C1806 1.419 . S
C1805 C1800 1.425 . S
C1805 C1802 1.409 . S
C1805 C1803 1.415 . S
C1806 H1796 0.930 . S
C1806 C1804 1.419 . S
C1806 C1807 1.362 . S
C1807 H1797 0.930 . S
C1807 C1800 1.409 . S
C1807 C1806 1.362 . S
H1808 C1814 0.930 . S
H1809 C1817 0.930 . S
H1810 C1818 0.930 . S
H1811 C1819 0.930 . S
H1812 C1822 0.930 . S
H1813 C1823 0.930 . S
C1814 H1808 0.930 . S
C1814 C1815 1.355 . S
C1814 C1816 1.415 . S
C1815 C1814 1.355 . S
C1815 C1817 1.419 . S
C1816 C1814 1.415 . S
C1816 C1821 1.425 . S
C1816 C1823 1.409 . S
C1817 H1809 0.930 . S
C1817 C1815 1.419 . S
C1817 C1818 1.362 . S
C1818 H1810 0.930 . S
C1818 C1817 1.362 . S
C1818 C1821 1.409 . S
C1819 H1811 0.930 . S
C1819 C1820 1.355 . S
C1819 C1821 1.415 1_455 S
C1820 C1819 1.355 . S
C1820 C1822 1.419 1_455 S
C1821 C1816 1.425 . S
C1821 C1818 1.409 . S
C1821 C1819 1.415 1_655 S
C1822 H1812 0.930 . S
C1822 C1820 1.419 1_655 S
C1822 C1823 1.362 . S
C1823 H1813 0.930 . S
C1823 C1816 1.409 . S
C1823 C1822 1.362 . S
H1824 C1830 0.930 . S
H1825 C1833 0.930 . S
H1826 C1834 0.930 . S
H1827 C1835 0.930 . S
H1828 C1838 0.930 . S
H1829 C1839 0.930 . S
C1830 H1824 0.930 . S
C1830 C1831 1.355 . S
C1830 C1832 1.415 . S
C1831 C1830 1.355 . S
C1831 C1833 1.419 . S
C1832 C1830 1.415 . S
C1832 C1837 1.425 . S
C1832 C1839 1.409 . S
C1833 H1825 0.930 . S
C1833 C1831 1.419 . S
C1833 C1834 1.362 . S
C1834 H1826 0.930 . S
C1834 C1833 1.362 . S
C1834 C1837 1.409 . S
C1835 H1827 0.930 . S
C1835 C1836 1.355 . S
C1835 C1837 1.415 . S
C1836 C1835 1.355 . S
C1836 C1838 1.419 . S
C1837 C1832 1.425 . S
C1837 C1834 1.409 . S
C1837 C1835 1.415 . S
C1838 H1828 0.930 . S
C1838 C1836 1.419 . S
C1838 C1839 1.362 . S
C1839 H1829 0.930 . S
C1839 C1832 1.409 . S
C1839 C1838 1.362 . S
H1840 C1846 0.930 . S
H1841 C1849 0.930 . S
H1842 C1850 0.930 . S
H1843 C1851 0.930 . S
H1844 C1854 0.930 . S
H1845 C1855 0.930 . S
C1846 H1840 0.930 . S
C1846 C1847 1.355 . S
C1846 C1848 1.415 . S
C1847 C1846 1.355 . S
C1847 C1849 1.419 . S
C1848 C1846 1.415 . S
C1848 C1853 1.425 . S
C1848 C1855 1.409 . S
C1849 H1841 0.930 . S
C1849 C1847 1.419 . S
C1849 C1850 1.362 . S
C1850 H1842 0.930 . S
C1850 C1849 1.362 . S
C1850 C1853 1.409 . S
C1851 H1843 0.930 . S
C1851 C1852 1.355 . S
C1851 C1853 1.415 . S
C1852 C1851 1.355 . S
C1852 C1854 1.419 . S
C1853 C1848 1.425 . S
C1853 C1850 1.409 . S
C1853 C1851 1.415 . S
C1854 H1844 0.930 . S
C1854 C1852 1.419 . S
C1854 C1855 1.362 . S
C1855 H1845 0.930 . S
C1855 C1848 1.409 . S
C1855 C1854 1.362 . S
H1856 C1862 0.930 . S
H1857 C1865 0.930 . S
H1858 C1866 0.930 . S
H1859 C1867 0.930 . S
H1860 C1870 0.930 . S
H1861 C1871 0.930 . S
C1862 H1856 0.930 . S
C1862 C1863 1.355 . S
C1862 C1864 1.415 . S
C1863 C1862 1.355 . S
C1863 C1865 1.419 . S
C1864 C1862 1.415 . S
C1864 C1869 1.425 . S
C1864 C1871 1.409 . S
C1865 H1857 0.930 . S
C1865 C1863 1.419 . S
C1865 C1866 1.362 . S
C1866 H1858 0.930 . S
C1866 C1865 1.362 . S
C1866 C1869 1.409 . S
C1867 H1859 0.930 . S
C1867 C1868 1.355 . S
C1867 C1869 1.415 . S
C1868 C1867 1.355 . S
C1868 C1870 1.419 . S
C1869 C1864 1.425 . S
C1869 C1866 1.409 . S
C1869 C1867 1.415 . S
C1870 H1860 0.930 . S
C1870 C1868 1.419 . S
C1870 C1871 1.362 . S
C1871 H1861 0.930 . S
C1871 C1864 1.409 . S
C1871 C1870 1.362 . S
H1872 C1878 0.930 . S
H1873 C1881 0.930 . S
H1874 C1882 0.930 1_455 S
H1875 C1883 0.930 1_455 S
H1876 C1886 0.930 . S
H1877 C1887 0.930 . S
C1878 H1872 0.930 . S
C1878 C1879 1.355 . S
C1878 C1880 1.415 . S
C1879 C1878 1.355 . S
C1879 C1881 1.419 . S
C1880 C1878 1.415 . S
C1880 C1885 1.425 . S
C1880 C1887 1.409 . S
C1881 H1873 0.930 . S
C1881 C1879 1.419 . S
C1881 C1882 1.362 . S
C1882 H1874 0.930 1_655 S
C1882 C1881 1.362 . S
C1882 C1885 1.409 . S
C1883 H1875 0.930 1_655 S
C1883 C1884 1.355 . S
C1883 C1885 1.415 . S
C1884 C1883 1.355 . S
C1884 C1886 1.419 . S
C1885 C1880 1.425 . S
C1885 C1882 1.409 . S
C1885 C1883 1.415 . S
C1886 H1876 0.930 . S
C1886 C1884 1.419 . S
C1886 C1887 1.362 . S
C1887 H1877 0.930 . S
C1887 C1880 1.409 . S
C1887 C1886 1.362 . S
H1888 C1894 0.930 . S
H1889 C1897 0.930 . S
H1890 C1898 0.930 . S
H1891 C1899 0.930 . S
H1892 C1902 0.930 . S
H1893 C1903 0.930 . S
C1894 H1888 0.930 . S
C1894 C1895 1.355 . S
C1894 C1896 1.415 . S
C1895 C1894 1.355 . S
C1895 C1897 1.419 . S
C1896 C1894 1.415 . S
C1896 C1901 1.425 . S
C1896 C1903 1.409 . S
C1897 H1889 0.930 . S
C1897 C1895 1.419 . S
C1897 C1898 1.362 . S
C1898 H1890 0.930 . S
C1898 C1897 1.362 . S
C1898 C1901 1.409 . S
C1899 H1891 0.930 . S
C1899 C1900 1.355 . S
C1899 C1901 1.415 . S
C1900 C1899 1.355 . S
C1900 C1902 1.419 . S
C1901 C1896 1.425 . S
C1901 C1898 1.409 . S
C1901 C1899 1.415 . S
C1902 H1892 0.930 . S
C1902 C1900 1.419 . S
C1902 C1903 1.362 . S
C1903 H1893 0.930 . S
C1903 C1896 1.409 . S
C1903 C1902 1.362 . S
H1904 C1910 0.930 . S
H1905 C1913 0.930 . S
H1906 C1914 0.930 . S
H1907 C1915 0.930 . S
H1908 C1918 0.930 . S
H1909 C1919 0.930 . S
C1910 H1904 0.930 . S
C1910 C1911 1.355 . S
C1910 C1912 1.415 . S
C1911 C1910 1.355 . S
C1911 C1913 1.419 . S
C1912 C1910 1.415 . S
C1912 C1917 1.425 . S
C1912 C1919 1.409 . S
C1913 H1905 0.930 . S
C1913 C1911 1.419 . S
C1913 C1914 1.362 . S
C1914 H1906 0.930 . S
C1914 C1913 1.362 . S
C1914 C1917 1.409 . S
C1915 H1907 0.930 . S
C1915 C1916 1.355 . S
C1915 C1917 1.415 . S
C1916 C1915 1.355 . S
C1916 C1918 1.419 . S
C1917 C1912 1.425 . S
C1917 C1914 1.409 . S
C1917 C1915 1.415 . S
C1918 H1908 0.930 . S
C1918 C1916 1.419 . S
C1918 C1919 1.362 . S
C1919 H1909 0.930 . S
C1919 C1912 1.409 . S
C1919 C1918 1.362 . S
H1920 C1926 0.930 . S
H1921 C1929 0.930 . S
H1922 C1930 0.930 . S
H1923 C1931 0.930 1_545 S
H1924 C1934 0.930 . S
H1925 C1935 0.930 . S
C1926 H1920 0.930 . S
C1926 C1927 1.355 . S
C1926 C1928 1.415 . S
C1927 C1926 1.355 . S
C1927 C1929 1.419 . S
C1928 C1926 1.415 . S
C1928 C1933 1.425 . S
C1928 C1935 1.409 . S
C1929 H1921 0.930 . S
C1929 C1927 1.419 . S
C1929 C1930 1.362 . S
C1930 H1922 0.930 . S
C1930 C1929 1.362 . S
C1930 C1933 1.409 . S
C1931 H1923 0.930 1_565 S
C1931 C1932 1.355 . S
C1931 C1933 1.415 . S
C1932 C1931 1.355 . S
C1932 C1934 1.419 . S
C1933 C1928 1.425 . S
C1933 C1930 1.409 . S
C1933 C1931 1.415 . S
C1934 H1924 0.930 . S
C1934 C1932 1.419 . S
C1934 C1935 1.362 . S
C1935 H1925 0.930 . S
C1935 C1928 1.409 . S
C1935 C1934 1.362 . S
H1936 C1942 0.930 . S
H1937 C1945 0.930 . S
H1938 C1946 0.930 . S
H1939 C1947 0.930 . S
H1940 C1950 0.930 . S
H1941 C1951 0.930 . S
C1942 H1936 0.930 . S
C1942 C1943 1.355 . S
C1942 C1944 1.415 . S
C1943 C1942 1.355 . S
C1943 C1945 1.419 . S
C1944 C1942 1.415 . S
C1944 C1949 1.425 . S
C1944 C1951 1.409 . S
C1945 H1937 0.930 . S
C1945 C1943 1.419 . S
C1945 C1946 1.362 . S
C1946 H1938 0.930 . S
C1946 C1945 1.362 . S
C1946 C1949 1.409 . S
C1947 H1939 0.930 . S
C1947 C1948 1.355 . S
C1947 C1949 1.415 . S
C1948 C1947 1.355 . S
C1948 C1950 1.419 . S
C1949 C1944 1.425 . S
C1949 C1946 1.409 . S
C1949 C1947 1.415 . S
C1950 H1940 0.930 . S
C1950 C1948 1.419 . S
C1950 C1951 1.362 . S
C1951 H1941 0.930 . S
C1951 C1944 1.409 . S
C1951 C1950 1.362 . S
H1952 C1958 0.930 . S
H1953 C1961 0.930 . S
H1954 C1962 0.930 . S
H1955 C1963 0.930 . S
H1956 C1966 0.930 . S
H1957 C1967 0.930 1_556 S
C1958 H1952 0.930 . S
C1958 C1959 1.355 . S
C1958 C1960 1.415 . S
C1959 C1958 1.355 . S
C1959 C1961 1.419 . S
C1960 C1958 1.415 . S
C1960 C1965 1.425 . S
C1960 C1967 1.409 . S
C1961 H1953 0.930 . S
C1961 C1959 1.419 . S
C1961 C1962 1.362 . S
C1962 H1954 0.930 . S
C1962 C1961 1.362 . S
C1962 C1965 1.409 . S
C1963 H1955 0.930 . S
C1963 C1964 1.355 . S
C1963 C1965 1.415 . S
C1964 C1963 1.355 . S
C1964 C1966 1.419 . S
C1965 C1960 1.425 . S
C1965 C1962 1.409 . S
C1965 C1963 1.415 . S
C1966 H1956 0.930 . S
C1966 C1964 1.419 . S
C1966 C1967 1.362 . S
C1967 H1957 0.930 1_554 S
C1967 C1960 1.409 . S
C1967 C1966 1.362 . S
H1968 C1974 0.930 . S
H1969 C1977 0.930 . S
H1970 C1978 0.930 . S
H1971 C1979 0.930 . S
H1972 C1982 0.930 . S
H1973 C1983 0.930 . S
C1974 H1968 0.930 . S
C1974 C1975 1.355 . S
C1974 C1976 1.415 . S
C1975 C1974 1.355 . S
C1975 C1977 1.419 . S
C1976 C1974 1.415 . S
C1976 C1981 1.425 . S
C1976 C1983 1.409 . S
C1977 H1969 0.930 . S
C1977 C1975 1.419 . S
C1977 C1978 1.362 . S
C1978 H1970 0.930 . S
C1978 C1977 1.362 . S
C1978 C1981 1.409 . S
C1979 H1971 0.930 . S
C1979 C1980 1.355 . S
C1979 C1981 1.415 . S
C1980 C1979 1.355 . S
C1980 C1982 1.419 . S
C1981 C1976 1.425 . S
C1981 C1978 1.409 . S
C1981 C1979 1.415 . S
C1982 H1972 0.930 . S
C1982 C1980 1.419 . S
C1982 C1983 1.362 . S
C1983 H1973 0.930 . S
C1983 C1976 1.409 . S
C1983 C1982 1.362 . S
H1984 C1990 0.930 . S
H1985 C1993 0.930 . S
H1986 C1994 0.930 . S
H1987 C1995 0.930 . S
H1988 C1998 0.930 . S
H1989 C1999 0.930 . S
C1990 H1984 0.930 . S
C1990 C1991 1.355 . S
C1990 C1992 1.415 . S
C1991 C1990 1.355 . S
C1991 C1993 1.419 . S
C1992 C1990 1.415 . S
C1992 C1997 1.425 . S
C1992 C1999 1.409 . S
C1993 H1985 0.930 . S
C1993 C1991 1.419 . S
C1993 C1994 1.362 . S
C1994 H1986 0.930 . S
C1994 C1993 1.362 . S
C1994 C1997 1.409 . S
C1995 H1987 0.930 . S
C1995 C1996 1.355 . S
C1995 C1997 1.415 . S
C1996 C1995 1.355 . S
C1996 C1998 1.419 . S
C1997 C1992 1.425 . S
C1997 C1994 1.409 . S
C1997 C1995 1.415 . S
C1998 H1988 0.930 . S
C1998 C1996 1.419 . S
C1998 C1999 1.362 . S
C1999 H1989 0.930 . S
C1999 C1992 1.409 . S
C1999 C1998 1.362 . S
H2000 C2006 0.930 . S
H2001 C2009 0.930 . S
H2002 C2010 0.930 . S
H2003 C2011 0.930 . S
H2004 C2014 0.930 . S
H2005 C2015 0.930 . S
C2006 H2000 0.930 . S
C2006 C2007 1.355 . S
C2006 C2008 1.415 . S
C2007 C2006 1.355 . S
C2007 C2009 1.419 . S
C2008 C2006 1.415 . S
C2008 C2013 1.425 . S
C2008 C2015 1.409 . S
C2009 H2001 0.930 . S
C2009 C2007 1.419 . S
C2009 C2010 1.362 . S
C2010 H2002 0.930 . S
C2010 C2009 1.362 . S
C2010 C2013 1.409 . S
C2011 H2003 0.930 . S
C2011 C2012 1.355 . S
C2011 C2013 1.415 . S
C2012 C2011 1.355 . S
C2012 C2014 1.419 . S
C2013 C2008 1.425 . S
C2013 C2010 1.409 . S
C2013 C2011 1.415 . S
C2014 H2004 0.930 . S
C2014 C2012 1.419 . S
C2014 C2015 1.362 . S
C2015 H2005 0.930 . S
C2015 C2008 1.409 . S
C2015 C2014 1.362 . S
H2016 C2022 0.930 . S
H2017 C2025 0.930 . S
H2018 C2026 0.930 . S
H2019 C2027 0.930 . S
H2020 C2030 0.930 . S
H2021 C2031 0.930 . S
C2022 H2016 0.930 . S
C2022 C2023 1.355 . S
C2022 C2024 1.415 . S
C2023 C2022 1.355 . S
C2023 C2025 1.419 . S
C2024 C2022 1.415 . S
C2024 C2029 1.425 . S
C2024 C2031 1.409 . S
C2025 H2017 0.930 . S
C2025 C2023 1.419 . S
C2025 C2026 1.362 . S
C2026 H2018 0.930 . S
C2026 C2025 1.362 . S
C2026 C2029 1.409 . S
C2027 H2019 0.930 . S
C2027 C2028 1.355 . S
C2027 C2029 1.415 . S
C2028 C2027 1.355 . S
C2028 C2030 1.419 . S
C2029 C2024 1.425 . S
C2029 C2026 1.409 . S
C2029 C2027 1.415 . S
C2030 H2020 0.930 . S
C2030 C2028 1.419 . S
C2030 C2031 1.362 . S
C2031 H2021 0.930 . S
C2031 C2024 1.409 . S
C2031 C2030 1.362 . S
H2032 C2038 0.930 . S
H2033 C2041 0.930 . S
H2034 C2042 0.930 . S
H2035 C2043 0.930 . S
H2036 C2046 0.930 . S
H2037 C2047 0.930 . S
C2038 H2032 0.930 . S
C2038 C2039 1.355 . S
C2038 C2040 1.415 . S
C2039 C2038 1.355 . S
C2039 C2041 1.419 . S
C2040 C2038 1.415 . S
C2040 C2045 1.425 . S
C2040 C2047 1.409 . S
C2041 H2033 0.930 . S
C2041 C2039 1.419 . S
C2041 C2042 1.362 . S
C2042 H2034 0.930 . S
C2042 C2041 1.362 . S
C2042 C2045 1.409 . S
C2043 H2035 0.930 . S
C2043 C2044 1.355 . S
C2043 C2045 1.415 . S
C2044 C2043 1.355 . S
C2044 C2046 1.419 . S
C2045 C2040 1.425 . S
C2045 C2042 1.409 . S
C2045 C2043 1.415 . S
C2046 H2036 0.930 . S
C2046 C2044 1.419 . S
C2046 C2047 1.362 . S
C2047 H2037 0.930 . S
C2047 C2040 1.409 . S
C2047 C2046 1.362 . S
H2048 C2054 0.930 . S
H2049 C2057 0.930 . S
H2050 C2058 0.930 . S
H2051 C2059 0.930 . S
H2052 C2062 0.930 . S
H2053 C2063 0.930 . S
C2054 H2048 0.930 . S
C2054 C2055 1.355 . S
C2054 C2056 1.415 . S
C2055 C2054 1.355 . S
C2055 C2057 1.419 . S
C2056 C2054 1.415 . S
C2056 C2061 1.425 . S
C2056 C2063 1.409 . S
C2057 H2049 0.930 . S
C2057 C2055 1.419 . S
C2057 C2058 1.362 . S
C2058 H2050 0.930 . S
C2058 C2057 1.362 . S
C2058 C2061 1.409 . S
C2059 H2051 0.930 . S
C2059 C2060 1.355 . S
C2059 C2061 1.415 . S
C2060 C2059 1.355 . S
C2060 C2062 1.419 . S
C2061 C2056 1.425 . S
C2061 C2058 1.409 . S
C2061 C2059 1.415 . S
C2062 H2052 0.930 . S
C2062 C2060 1.419 . S
C2062 C2063 1.362 . S
C2063 H2053 0.930 . S
C2063 C2056 1.409 . S
C2063 C2062 1.362 . S
H2064 C2070 0.930 . S
H2065 C2073 0.930 . S
H2066 C2074 0.930 . S
H2067 C2075 0.930 . S
H2068 C2078 0.930 1_554 S
H2069 C2079 0.930 . S
C2070 H2064 0.930 . S
C2070 C2071 1.355 . S
C2070 C2072 1.415 . S
C2071 C2070 1.355 . S
C2071 C2073 1.419 1_455 S
C2072 C2070 1.415 . S
C2072 C2077 1.425 1_455 S
C2072 C2079 1.409 . S
C2073 H2065 0.930 . S
C2073 C2071 1.419 1_655 S
C2073 C2074 1.362 . S
C2074 H2066 0.930 . S
C2074 C2073 1.362 . S
C2074 C2077 1.409 . S
C2075 H2067 0.930 . S
C2075 C2076 1.355 1_655 S
C2075 C2077 1.415 . S
C2076 C2075 1.355 1_455 S
C2076 C2078 1.419 . S
C2077 C2072 1.425 1_655 S
C2077 C2074 1.409 . S
C2077 C2075 1.415 . S
C2078 H2068 0.930 1_556 S
C2078 C2076 1.419 . S
C2078 C2079 1.362 . S
C2079 H2069 0.930 . S
C2079 C2072 1.409 . S
C2079 C2078 1.362 . S
H2080 C2086 0.930 . S
H2081 C2089 0.930 . S
H2082 C2090 0.930 . S
H2083 C2091 0.930 . S
H2084 C2094 0.930 . S
H2085 C2095 0.930 . S
C2086 H2080 0.930 . S
C2086 C2087 1.355 . S
C2086 C2088 1.415 . S
C2087 C2086 1.355 . S
C2087 C2089 1.419 . S
C2088 C2086 1.415 . S
C2088 C2093 1.425 . S
C2088 C2095 1.409 . S
C2089 H2081 0.930 . S
C2089 C2087 1.419 . S
C2089 C2090 1.362 . S
C2090 H2082 0.930 . S
C2090 C2089 1.362 . S
C2090 C2093 1.409 . S
C2091 H2083 0.930 . S
C2091 C2092 1.355 . S
C2091 C2093 1.415 . S
C2092 C2091 1.355 . S
C2092 C2094 1.419 . S
C2093 C2088 1.425 . S
C2093 C2090 1.409 . S
C2093 C2091 1.415 . S
C2094 H2084 0.930 . S
C2094 C2092 1.419 . S
C2094 C2095 1.362 . S
C2095 H2085 0.930 . S
C2095 C2088 1.409 . S
C2095 C2094 1.362 . S
H2096 C2102 0.930 . S
H2097 C2105 0.930 . S
H2098 C2106 0.930 . S
H2099 C2107 0.930 . S
H2100 C2110 0.930 . S
H2101 C2111 0.930 . S
C2102 H2096 0.930 . S
C2102 C2103 1.355 . S
C2102 C2104 1.415 . S
C2103 C2102 1.355 . S
C2103 C2105 1.419 . S
C2104 C2102 1.415 . S
C2104 C2109 1.425 . S
C2104 C2111 1.409 . S
C2105 H2097 0.930 . S
C2105 C2103 1.419 . S
C2105 C2106 1.362 . S
C2106 H2098 0.930 . S
C2106 C2105 1.362 . S
C2106 C2109 1.409 . S
C2107 H2099 0.930 . S
C2107 C2108 1.355 . S
C2107 C2109 1.415 . S
C2108 C2107 1.355 . S
C2108 C2110 1.419 . S
C2109 C2104 1.425 . S
C2109 C2106 1.409 . S
C2109 C2107 1.415 . S
C2110 H2100 0.930 . S
C2110 C2108 1.419 . S
C2110 C2111 1.362 . S
C2111 H2101 0.930 . S
C2111 C2104 1.409 . S
C2111 C2110 1.362 . S
H2112 C2118 0.930 . S
H2113 C2121 0.930 . S
H2114 C2122 0.930 . S
H2115 C2123 0.930 . S
H2116 C2126 0.930 . S
H2117 C2127 0.930 . S
C2118 H2112 0.930 . S
C2118 C2119 1.355 . S
C2118 C2120 1.415 . S
C2119 C2118 1.355 . S
C2119 C2121 1.419 . S
C2120 C2118 1.415 . S
C2120 C2125 1.425 . S
C2120 C2127 1.409 . S
C2121 H2113 0.930 . S
C2121 C2119 1.419 . S
C2121 C2122 1.362 . S
C2122 H2114 0.930 . S
C2122 C2121 1.362 . S
C2122 C2125 1.409 . S
C2123 H2115 0.930 . S
C2123 C2124 1.355 . S
C2123 C2125 1.415 . S
C2124 C2123 1.355 . S
C2124 C2126 1.419 . S
C2125 C2120 1.425 . S
C2125 C2122 1.409 . S
C2125 C2123 1.415 . S
C2126 H2116 0.930 . S
C2126 C2124 1.419 . S
C2126 C2127 1.362 . S
C2127 H2117 0.930 . S
C2127 C2120 1.409 . S
C2127 C2126 1.362 . S
H2128 C2134 0.930 . S
H2129 C2137 0.930 . S
H2130 C2138 0.930 1_655 S
H2131 C2139 0.890 1_655 S
H2132 C2142 0.930 . S
H2133 C2143 0.930 . S
C2134 H2128 0.930 . S
C2134 C2135 1.355 . S
C2134 C2136 1.415 . S
C2135 C2134 1.355 . S
C2135 C2137 1.419 . S
C2136 C2134 1.415 . S
C2136 C2141 1.425 . S
C2136 C2143 1.409 . S
C2137 H2129 0.930 . S
C2137 C2135 1.419 . S
C2137 C2138 1.362 . S
C2138 H2130 0.930 1_455 S
C2138 C2137 1.362 . S
C2138 C2141 1.409 . S
C2139 H2131 0.890 1_455 S
C2139 C2140 1.355 . S
C2139 C2141 1.415 . S
C2140 C2139 1.355 . S
C2140 C2142 1.419 . S
C2141 C2136 1.425 . S
C2141 C2138 1.409 . S
C2141 C2139 1.415 . S
C2142 H2132 0.930 . S
C2142 C2140 1.419 . S
C2142 C2143 1.362 . S
C2143 H2133 0.930 . S
C2143 C2136 1.409 . S
C2143 C2142 1.362 . S
H2144 C2150 0.930 . S
H2145 C2153 0.930 . S
H2146 C2154 0.930 . S
H2147 C2155 0.930 . S
H2148 C2158 0.930 . S
H2149 C2159 0.930 . S
C2150 H2144 0.930 . S
C2150 C2151 1.355 . S
C2150 C2152 1.415 . S
C2151 C2150 1.355 . S
C2151 C2153 1.419 . S
C2152 C2150 1.415 . S
C2152 C2157 1.425 . S
C2152 C2159 1.409 . S
C2153 H2145 0.930 . S
C2153 C2151 1.419 . S
C2153 C2154 1.362 . S
C2154 H2146 0.930 . S
C2154 C2153 1.362 . S
C2154 C2157 1.409 . S
C2155 H2147 0.930 . S
C2155 C2156 1.355 . S
C2155 C2157 1.415 . S
C2156 C2155 1.355 . S
C2156 C2158 1.419 . S
C2157 C2152 1.425 . S
C2157 C2154 1.409 . S
C2157 C2155 1.415 . S
C2158 H2148 0.930 . S
C2158 C2156 1.419 . S
C2158 C2159 1.362 . S
C2159 H2149 0.930 . S
C2159 C2152 1.409 . S
C2159 C2158 1.362 . S
H2160 C2166 0.930 . S
H2161 C2169 0.930 . S
H2162 C2170 0.930 . S
H2163 C2171 0.930 . S
H2164 C2174 0.930 . S
H2165 C2175 0.930 . S
C2166 H2160 0.930 . S
C2166 C2167 1.355 . S
C2166 C2168 1.415 . S
C2167 C2166 1.355 . S
C2167 C2169 1.419 . S
C2168 C2166 1.415 . S
C2168 C2173 1.425 . S
C2168 C2175 1.409 . S
C2169 H2161 0.930 . S
C2169 C2167 1.419 . S
C2169 C2170 1.362 . S
C2170 H2162 0.930 . S
C2170 C2169 1.362 . S
C2170 C2173 1.409 . S
C2171 H2163 0.930 . S
C2171 C2172 1.355 . S
C2171 C2173 1.415 . S
C2172 C2171 1.355 . S
C2172 C2174 1.419 . S
C2173 C2168 1.425 . S
C2173 C2170 1.409 . S
C2173 C2171 1.415 . S
C2174 H2164 0.930 . S
C2174 C2172 1.419 . S
C2174 C2175 1.362 . S
C2175 H2165 0.930 . S
C2175 C2168 1.409 . S
C2175 C2174 1.362 . S
H2176 C2182 0.930 . S
H2177 C2185 0.930 . S
H2178 C2186 0.930 . S
H2179 C2187 0.930 . S
H2180 C2190 0.930 . S
H2181 C2191 0.930 . S
C2182 H2176 0.930 . S
C2182 C2183 1.355 . S
C2182 C2184 1.415 . S
C2183 C2182 1.355 . S
C2183 C2185 1.419 . S
C2184 C2182 1.415 . S
C2184 C2189 1.425 . S
C2184 C2191 1.409 . S
C2185 H2177 0.930 . S
C2185 C2183 1.419 . S
C2185 C2186 1.362 . S
C2186 H2178 0.930 . S
C2186 C2185 1.362 . S
C2186 C2189 1.409 . S
C2187 H2179 0.930 . S
C2187 C2188 1.355 . S
C2187 C2189 1.415 . S
C2188 C2187 1.355 . S
C2188 C2190 1.419 . S
C2189 C2184 1.425 . S
C2189 C2186 1.409 . S
C2189 C2187 1.415 . S
C2190 H2180 0.930 . S
C2190 C2188 1.419 . S
C2190 C2191 1.362 . S
C2191 H2181 0.930 . S
C2191 C2184 1.409 . S
C2191 C2190 1.362 . S
H2192 C2198 0.930 . S
H2193 C2201 0.930 . S
H2194 C2202 0.930 . S
H2195 C2203 0.930 . S
H2196 C2206 0.930 . S
H2197 C2207 0.930 . S
C2198 H2192 0.930 . S
C2198 C2199 1.355 . S
C2198 C2200 1.415 . S
C2199 C2198 1.355 . S
C2199 C2201 1.419 . S
C2200 C2198 1.415 . S
C2200 C2205 1.425 . S
C2200 C2207 1.409 . S
C2201 H2193 0.930 . S
C2201 C2199 1.419 . S
C2201 C2202 1.362 . S
C2202 H2194 0.930 . S
C2202 C2201 1.362 . S
C2202 C2205 1.409 . S
C2203 H2195 0.930 . S
C2203 C2204 1.355 . S
C2203 C2205 1.415 . S
C2204 C2203 1.355 . S
C2204 C2206 1.419 . S
C2205 C2200 1.425 . S
C2205 C2202 1.409 . S
C2205 C2203 1.415 . S
C2206 H2196 0.930 . S
C2206 C2204 1.419 . S
C2206 C2207 1.362 . S
C2207 H2197 0.930 . S
C2207 C2200 1.409 . S
C2207 C2206 1.362 . S
H2208 C2214 0.930 . S
H2209 C2217 0.930 . S
H2210 C2218 0.930 . S
H2211 C2219 0.930 . S
H2212 C2222 0.930 . S
H2213 C2223 0.930 . S
C2214 H2208 0.930 . S
C2214 C2215 1.355 . S
C2214 C2216 1.415 . S
C2215 C2214 1.355 . S
C2215 C2217 1.419 . S
C2216 C2214 1.415 . S
C2216 C2221 1.425 . S
C2216 C2223 1.409 . S
C2217 H2209 0.930 . S
C2217 C2215 1.419 . S
C2217 C2218 1.362 . S
C2218 H2210 0.930 . S
C2218 C2217 1.362 . S
C2218 C2221 1.409 . S
C2219 H2211 0.930 . S
C2219 C2220 1.355 . S
C2219 C2221 1.415 . S
C2220 C2219 1.355 . S
C2220 C2222 1.419 . S
C2221 C2216 1.425 . S
C2221 C2218 1.409 . S
C2221 C2219 1.415 . S
C2222 H2212 0.930 . S
C2222 C2220 1.419 . S
C2222 C2223 1.362 . S
C2223 H2213 0.930 . S
C2223 C2216 1.409 . S
C2223 C2222 1.362 . S
H2224 C2230 0.930 . S
H2225 C2233 0.930 . S
H2226 C2234 0.930 . S
H2227 C2235 0.930 . S
H2228 C2238 0.930 . S
H2229 C2239 0.930 . S
C2230 H2224 0.930 . S
C2230 C2231 1.355 . S
C2230 C2232 1.415 . S
C2231 C2230 1.355 . S
C2231 C2233 1.419 . S
C2232 C2230 1.415 . S
C2232 C2237 1.425 . S
C2232 C2239 1.409 . S
C2233 H2225 0.930 . S
C2233 C2231 1.419 . S
C2233 C2234 1.362 . S
C2234 H2226 0.930 . S
C2234 C2233 1.362 . S
C2234 C2237 1.409 . S
C2235 H2227 0.930 . S
C2235 C2236 1.355 . S
C2235 C2237 1.415 . S
C2236 C2235 1.355 . S
C2236 C2238 1.419 . S
C2237 C2232 1.425 . S
C2237 C2234 1.409 . S
C2237 C2235 1.415 . S
C2238 H2228 0.930 . S
C2238 C2236 1.419 . S
C2238 C2239 1.362 . S
C2239 H2229 0.930 . S
C2239 C2232 1.409 . S
C2239 C2238 1.362 . S
H2240 C2246 0.930 . S
H2241 C2249 0.930 . S
H2242 C2250 0.930 . S
H2243 C2251 0.930 . S
H2244 C2254 0.930 . S
H2245 C2255 0.930 . S
C2246 H2240 0.930 . S
C2246 C2247 1.355 . S
C2246 C2248 1.415 . S
C2247 C2246 1.355 . S
C2247 C2249 1.419 . S
C2248 C2246 1.415 . S
C2248 C2253 1.425 . S
C2248 C2255 1.409 . S
C2249 H2241 0.930 . S
C2249 C2247 1.419 . S
C2249 C2250 1.362 . S
C2250 H2242 0.930 . S
C2250 C2249 1.362 . S
C2250 C2253 1.409 . S
C2251 H2243 0.930 . S
C2251 C2252 1.355 . S
C2251 C2253 1.415 . S
C2252 C2251 1.355 . S
C2252 C2254 1.419 . S
C2253 C2248 1.425 . S
C2253 C2250 1.409 . S
C2253 C2251 1.415 . S
C2254 H2244 0.930 . S
C2254 C2252 1.419 . S
C2254 C2255 1.362 . S
C2255 H2245 0.930 . S
C2255 C2248 1.409 . S
C2255 C2254 1.362 . S
H2256 C2262 0.930 . S
H2257 C2265 0.930 . S
H2258 C2266 0.930 . S
H2259 C2267 0.930 . S
H2260 C2270 0.930 . S
H2261 C2271 0.930 . S
C2262 H2256 0.930 . S
C2262 C2263 1.355 . S
C2262 C2264 1.415 . S
C2263 C2262 1.355 . S
C2263 C2265 1.419 . S
C2264 C2262 1.415 . S
C2264 C2269 1.425 . S
C2264 C2271 1.409 . S
C2265 H2257 0.930 . S
C2265 C2263 1.419 . S
C2265 C2266 1.362 . S
C2266 H2258 0.930 . S
C2266 C2265 1.362 . S
C2266 C2269 1.409 . S
C2267 H2259 0.930 . S
C2267 C2268 1.355 . S
C2267 C2269 1.415 . S
C2268 C2267 1.355 . S
C2268 C2270 1.419 . S
C2269 C2264 1.425 . S
C2269 C2266 1.409 . S
C2269 C2267 1.415 . S
C2270 H2260 0.930 . S
C2270 C2268 1.419 . S
C2270 C2271 1.362 . S
C2271 H2261 0.930 . S
C2271 C2264 1.409 . S
C2271 C2270 1.362 . S
H2272 C2278 0.930 . S
H2273 C2281 0.930 . S
H2274 C2282 0.930 . S
H2275 C2283 0.930 . S
H2276 C2286 0.930 . S
H2277 C2287 0.930 . S
C2278 H2272 0.930 . S
C2278 C2279 1.355 . S
C2278 C2280 1.415 . S
C2279 C2278 1.355 . S
C2279 C2281 1.419 . S
C2280 C2278 1.415 . S
C2280 C2285 1.425 . S
C2280 C2287 1.409 . S
C2281 H2273 0.930 . S
C2281 C2279 1.419 . S
C2281 C2282 1.362 . S
C2282 H2274 0.930 . S
C2282 C2281 1.362 . S
C2282 C2285 1.409 . S
C2283 H2275 0.930 . S
C2283 C2284 1.355 . S
C2283 C2285 1.415 . S
C2284 C2283 1.355 . S
C2284 C2286 1.419 . S
C2285 C2280 1.425 . S
C2285 C2282 1.409 . S
C2285 C2283 1.415 . S
C2286 H2276 0.930 . S
C2286 C2284 1.419 . S
C2286 C2287 1.362 . S
C2287 H2277 0.930 . S
C2287 C2280 1.409 . S
C2287 C2286 1.362 . S
H2288 C2294 0.930 . S
H2289 C2297 0.930 . S
H2290 C2298 0.930 . S
H2291 C2299 0.930 . S
H2292 C2302 0.930 . S
H2293 C2303 0.930 . S
C2294 H2288 0.930 . S
C2294 C2295 1.355 . S
C2294 C2296 1.415 . S
C2295 C2294 1.355 . S
C2295 C2297 1.419 . S
C2296 C2294 1.415 . S
C2296 C2301 1.425 . S
C2296 C2303 1.409 . S
C2297 H2289 0.930 . S
C2297 C2295 1.419 . S
C2297 C2298 1.362 . S
C2298 H2290 0.930 . S
C2298 C2297 1.362 . S
C2298 C2301 1.409 . S
C2299 H2291 0.930 . S
C2299 C2300 1.355 . S
C2299 C2301 1.415 . S
C2300 C2299 1.355 . S
C2300 C2302 1.419 . S
C2301 C2296 1.425 . S
C2301 C2298 1.409 . S
C2301 C2299 1.415 . S
C2302 H2292 0.930 . S
C2302 C2300 1.419 . S
C2302 C2303 1.362 . S
C2303 H2293 0.930 . S
C2303 C2296 1.409 . S
C2303 C2302 1.362 . S
H2304 C2310 0.930 . S
H2305 C2313 0.930 . S
H2306 C2314 0.930 . S
H2307 C2315 0.930 . S
H2308 C2318 0.930 . S
H2309 C2319 0.930 . S
C2310 H2304 0.930 . S
C2310 C2311 1.355 . S
C2310 C2312 1.415 . S
C2311 C2310 1.355 . S
C2311 C2313 1.419 . S
C2312 C2310 1.415 . S
C2312 C2317 1.425 . S
C2312 C2319 1.409 . S
C2313 H2305 0.930 . S
C2313 C2311 1.419 . S
C2313 C2314 1.362 . S
C2314 H2306 0.930 . S
C2314 C2313 1.362 . S
C2314 C2317 1.409 . S
C2315 H2307 0.930 . S
C2315 C2316 1.355 . S
C2315 C2317 1.415 . S
C2316 C2315 1.355 . S
C2316 C2318 1.419 . S
C2317 C2312 1.425 . S
C2317 C2314 1.409 . S
C2317 C2315 1.415 . S
C2318 H2308 0.930 . S
C2318 C2316 1.419 . S
C2318 C2319 1.362 . S
C2319 H2309 0.930 . S
C2319 C2312 1.409 . S
C2319 C2318 1.362 . S
H2320 C2326 0.930 . S
H2321 C2329 0.930 . S
H2322 C2330 0.930 . S
H2323 C2331 0.930 . S
H2324 C2334 0.930 . S
H2325 C2335 0.930 . S
C2326 H2320 0.930 . S
C2326 C2327 1.355 . S
C2326 C2328 1.415 . S
C2327 C2326 1.355 . S
C2327 C2329 1.419 . S
C2328 C2326 1.415 . S
C2328 C2333 1.425 . S
C2328 C2335 1.409 . S
C2329 H2321 0.930 . S
C2329 C2327 1.419 . S
C2329 C2330 1.362 . S
C2330 H2322 0.930 . S
C2330 C2329 1.362 . S
C2330 C2333 1.409 . S
C2331 H2323 0.930 . S
C2331 C2332 1.355 . S
C2331 C2333 1.415 . S
C2332 C2331 1.355 . S
C2332 C2334 1.419 . S
C2333 C2328 1.425 . S
C2333 C2330 1.409 . S
C2333 C2331 1.415 . S
C2334 H2324 0.930 . S
C2334 C2332 1.419 . S
C2334 C2335 1.362 . S
C2335 H2325 0.930 . S
C2335 C2328 1.409 . S
C2335 C2334 1.362 . S
H2336 C2342 0.930 . S
H2337 C2345 0.930 . S
H2338 C2346 0.930 . S
H2339 C2347 0.930 . S
H2340 C2350 0.930 . S
H2341 C2351 0.930 . S
C2342 H2336 0.930 . S
C2342 C2343 1.355 . S
C2342 C2344 1.415 . S
C2343 C2342 1.355 . S
C2343 C2345 1.419 . S
C2344 C2342 1.415 . S
C2344 C2349 1.425 . S
C2344 C2351 1.409 1_565 S
C2345 H2337 0.930 . S
C2345 C2343 1.419 . S
C2345 C2346 1.362 . S
C2346 H2338 0.930 . S
C2346 C2345 1.362 . S
C2346 C2349 1.409 . S
C2347 H2339 0.930 . S
C2347 C2348 1.355 1_565 S
C2347 C2349 1.415 . S
C2348 C2347 1.355 1_545 S
C2348 C2350 1.419 . S
C2349 C2344 1.425 . S
C2349 C2346 1.409 . S
C2349 C2347 1.415 . S
C2350 H2340 0.930 . S
C2350 C2348 1.419 . S
C2350 C2351 1.362 . S
C2351 H2341 0.930 . S
C2351 C2344 1.409 1_545 S
C2351 C2350 1.362 . S
H2352 C2358 0.930 . S
H2353 C2361 0.930 . S
H2354 C2362 0.930 . S
H2355 C2363 0.930 . S
H2356 C2366 0.930 . S
H2357 C2367 0.930 . S
C2358 H2352 0.930 . S
C2358 C2359 1.355 . S
C2358 C2360 1.415 . S
C2359 C2358 1.355 . S
C2359 C2361 1.419 . S
C2360 C2358 1.415 . S
C2360 C2365 1.425 . S
C2360 C2367 1.409 . S
C2361 H2353 0.930 . S
C2361 C2359 1.419 . S
C2361 C2362 1.362 . S
C2362 H2354 0.930 . S
C2362 C2361 1.362 . S
C2362 C2365 1.409 . S
C2363 H2355 0.930 . S
C2363 C2364 1.355 . S
C2363 C2365 1.415 . S
C2364 C2363 1.355 . S
C2364 C2366 1.419 . S
C2365 C2360 1.425 . S
C2365 C2362 1.409 . S
C2365 C2363 1.415 . S
C2366 H2356 0.930 . S
C2366 C2364 1.419 . S
C2366 C2367 1.362 . S
C2367 H2357 0.930 . S
C2367 C2360 1.409 . S
C2367 C2366 1.362 . S
H2368 C2374 0.930 1_556 S
H2369 C2377 0.930 . S
H2370 C2378 0.930 . S
H2371 C2379 0.930 . S
H2372 C2382 0.930 . S
H2373 C2383 0.904 1_556 S
C2374 H2368 0.930 1_554 S
C2374 C2375 1.355 . S
C2374 C2376 1.415 . S
C2375 C2374 1.355 . S
C2375 C2377 1.419 . S
C2376 C2374 1.415 . S
C2376 C2381 1.425 . S
C2376 C2383 1.409 . S
C2377 H2369 0.930 . S
C2377 C2375 1.419 . S
C2377 C2378 1.362 . S
C2378 H2370 0.930 . S
C2378 C2377 1.362 . S
C2378 C2381 1.409 . S
C2379 H2371 0.930 . S
C2379 C2380 1.355 . S
C2379 C2381 1.415 . S
C2380 C2379 1.355 . S
C2380 C2382 1.419 . S
C2381 C2376 1.425 . S
C2381 C2378 1.409 . S
C2381 C2379 1.415 . S
C2382 H2372 0.930 . S
C2382 C2380 1.419 . S
C2382 C2383 1.362 . S
C2383 H2373 0.904 1_554 S
C2383 C2376 1.409 . S
C2383 C2382 1.362 . S
H2384 C2390 0.930 . S
H2385 C2393 0.930 . S
H2386 C2394 0.930 . S
H2387 C2395 0.930 . S
H2388 C2398 0.930 . S
H2389 C2399 0.930 . S
C2390 H2384 0.930 . S
C2390 C2391 1.355 . S
C2390 C2392 1.415 . S
C2391 C2390 1.355 . S
C2391 C2393 1.419 . S
C2392 C2390 1.415 . S
C2392 C2397 1.425 . S
C2392 C2399 1.409 . S
C2393 H2385 0.930 . S
C2393 C2391 1.419 . S
C2393 C2394 1.362 . S
C2394 H2386 0.930 . S
C2394 C2393 1.362 . S
C2394 C2397 1.409 . S
C2395 H2387 0.930 . S
C2395 C2396 1.355 . S
C2395 C2397 1.415 . S
C2396 C2395 1.355 . S
C2396 C2398 1.419 . S
C2397 C2392 1.425 . S
C2397 C2394 1.409 . S
C2397 C2395 1.415 . S
C2398 H2388 0.930 . S
C2398 C2396 1.419 . S
C2398 C2399 1.362 . S
C2399 H2389 0.930 . S
C2399 C2392 1.409 . S
C2399 C2398 1.362 . S
H2400 C2406 0.930 . S
H2401 C2409 0.930 . S
H2402 C2410 0.930 . S
H2403 C2411 0.930 . S
H2404 C2414 0.930 . S
H2405 C2415 0.930 . S
C2406 H2400 0.930 . S
C2406 C2407 1.355 . S
C2406 C2408 1.415 . S
C2407 C2406 1.355 . S
C2407 C2409 1.419 . S
C2408 C2406 1.415 . S
C2408 C2413 1.425 . S
C2408 C2415 1.409 . S
C2409 H2401 0.930 . S
C2409 C2407 1.419 . S
C2409 C2410 1.362 . S
C2410 H2402 0.930 . S
C2410 C2409 1.362 . S
C2410 C2413 1.409 . S
C2411 H2403 0.930 . S
C2411 C2412 1.355 . S
C2411 C2413 1.415 . S
C2412 C2411 1.355 . S
C2412 C2414 1.419 . S
C2413 C2408 1.425 . S
C2413 C2410 1.409 . S
C2413 C2411 1.415 . S
C2414 H2404 0.930 . S
C2414 C2412 1.419 . S
C2414 C2415 1.362 . S
C2415 H2405 0.930 . S
C2415 C2408 1.409 . S
C2415 C2414 1.362 . S
C892 C353 1.292 . S
C887 C8 1.284 . S
C903 C22 2.249 . S
C908 C399 2.248 . S
C919 C35 0.806 . S
C924 C408 0.776 . S
C940 C446 1.680 . S
C935 C49 1.654 . S
C951 C23 2.050 . S
C956 C480 2.015 . S
C972 C510 0.743 . S
C967 C34 0.786 . S
C988 C569 1.606 . S
C983 C48 1.551 . S
C999 C9 1.222 . S
C1004 C582 1.210 . S
C1015 C64 1.521 . S
C1020 C365 1.516 . S
C1031 C77 1.175 . S
C1036 C383 1.173 . S
C1052 C404 1.971 . S
C1047 C92 2.006 . S
C1068 C442 1.033 . S
C1063 C105 1.037 . S
C1079 C63 1.326 . S
C1084 C476 1.300 . S
C1100 C506 1.903 . S
C1095 C78 1.933 . S
C1116 C553 1.271 . S
C1111 C91 1.244 . S
C1132 C578 0.872 . S
C1127 C106 0.878 . S
C1148 C349 0.912 . S
C1143 C107 0.858 . S
C1164 C608 1.582 . S
C1159 C118 1.570 . S
C1175 C135 1.692 . S
C1180 C650 1.742 . S
C1196 C693 0.636 . S
C1191 C146 0.574 . S
C1207 C65 1.501 . S
C1212 C574 1.511 . S
C1228 C412 1.774 1_565 S
C1223 C79 1.730 . S
C1239 C132 1.453 . S
C1244 C710 1.454 . S
C1260 C761 1.551 . S
C1255 C160 1.547 . S
C1271 C177 1.358 . S
C1276 C344 1.341 1_556 S
C1292 C744 1.735 . S
C1287 C188 1.707 . S
C1303 C204 1.173 . S
C1308 C417 1.141 . S
C1319 C219 1.740 . S
C1324 C727 1.739 . S
C1340 C489 1.723 . S
C1335 C190 1.788 . S
C1356 C655 0.862 . S
C1351 C202 0.858 . S
C1372 C540 1.550 . S
C1367 C217 1.498 . S
C1388 C795 1.083 . S
C1383 C175 1.097 . S
C1404 C336 1.482 . S
C1399 C231 1.468 . S
C1415 C246 1.384 . S
C1420 C748 1.363 . S
C1436 C433 1.672 . S
C1431 C259 1.642 . S
C1447 C274 0.976 . S
C1452 C723 0.946 . S
C1463 C232 1.399 . S
C1468 C485 1.374 . S
C1479 C245 1.533 . S
C1484 C671 1.572 . S
C1500 C544 1.277 . S
C1495 C260 1.338 . S
C1511 C273 0.610 . S
C1516 C791 0.684 . S
C1527 C275 0.875 . S
C1532 C340 0.831 . S
C1543 C286 1.529 . S
C1548 C637 1.578 . S
C1559 C303 1.510 . S
C1564 C523 1.486 . S
C1575 C314 0.612 . S
C1580 C684 0.512 . S
C1596 C807 1.525 . S
C1591 C233 1.553 . S
C1612 C421 1.602 . S
C1607 C247 1.614 . S
C1628 C467 1.315 . S
C1623 C300 1.291 . S
C1644 C378 1.561 . S
C1639 C328 1.499 . S
C1655 C36 1.147 . S
C1660 C829 1.149 . S
C1676 C773 2.255 . S
C1671 C50 2.255 . S
C1692 C850 0.849 . S
C1687 C7 0.871 . S
C1703 C21 1.651 . S
C1708 C718 1.675 . S
C1719 C51 2.076 . S
C1724 C616 2.056 . S
C1740 C646 0.779 . S
C1735 C6 0.828 1_655 S
C1756 C705 1.571 . S
C1751 C20 1.521 . S
C1772 C786 1.121 . S
C1767 C37 1.089 . S
C1788 C841 1.463 . S
C1783 C162 1.466 . S
C1799 C119 1.096 1_556 S
C1804 C757 1.132 . S
C1815 C134 1.981 . S
C1820 C846 1.941 . S
C1836 C714 1.023 . S
C1831 C147 1.010 . S
C1852 C612 1.248 . S
C1847 C161 1.260 . S
C1863 C120 1.881 . S
C1868 C642 1.868 . S
C1884 C689 1.247 1_655 S
C1879 C133 1.224 . S
C1895 C148 0.800 . S
C1900 C782 0.766 . S
C1916 C825 0.880 . S
C1911 C149 0.833 . S
C1932 C472 1.527 1_565 S
C1927 C76 1.493 . S
C1948 C514 1.730 . S
C1943 C93 1.725 . S
C1959 C104 0.522 . S
C1964 C557 0.527 . S
C1980 C778 1.548 . S
C1975 C163 1.557 . S
C1991 C121 1.769 . S
C1996 C854 1.783 . S
C2012 C438 1.393 . S
C2007 C90 1.382 . S
C2028 C387 1.512 . S
C2023 C62 1.500 . S
C2039 C203 1.164 . S
C2044 C820 1.192 . S
C2060 C370 1.818 . S
C2055 C216 1.801 . S
C2076 C859 0.943 . S
C2071 C174 0.973 . S
C2087 C191 1.783 . S
C2092 C455 1.777 . S
C2103 C218 1.726 . S
C2108 C625 1.717 . S
C2119 C176 1.066 . S
C2124 C519 1.025 . S
C2135 C189 1.471 . S
C2140 C676 1.477 . S
C2151 C205 1.272 . S
C2156 C591 1.254 . S
C2172 C812 1.404 . S
C2167 C329 1.399 . S
C2183 C288 1.307 . S
C2188 C374 1.302 . S
C2204 C875 1.570 . S
C2199 C301 1.552 . S
C2215 C316 0.923 . S
C2220 C451 0.863 . S
C2231 C330 1.462 . S
C2236 C621 1.437 . S
C2252 C535 1.645 . S
C2247 C287 1.610 . S
C2263 C302 1.378 . S
C2268 C680 1.308 . S
C2284 C587 0.789 . S
C2279 C315 0.798 . S
C2300 C816 0.922 . S
C2295 C317 0.911 . S
C2316 C501 1.564 . S
C2311 C244 1.544 . S
C2327 C261 1.448 . S
C2332 C659 1.407 . S
C2348 C548 0.471 . S
C2343 C272 0.566 . S
C2364 C603 1.539 . S
C2359 C331 1.607 . S
C2375 C289 1.518 . S
C2380 C863 1.461 . S
C2396 C739 1.357 . S
C2391 C258 1.316 . S
C2412 C752 1.567 . S
C2407 C230 1.551 . S
