# Generated by pormake.
# Topology gar, (4,6)-cn, num edge types: 1
# Building blocks:
#     Node 0, Type 0, BuildingBlock: QUQFOY_clean_sbu_3, # of connection points: 4
#     Node 1, Type 0, BuildingBlock: QUQFOY_clean_sbu_3, # of connection points: 4
#     Node 2, Type 0, BuildingBlock: QUQFOY_clean_sbu_3, # of connection points: 4
#     Node 3, Type 0, BuildingBlock: QUQFOY_clean_sbu_3, # of connection points: 4
#     Node 4, Type 0, BuildingBlock: QUQFOY_clean_sbu_3, # of connection points: 4
#     Node 5, Type 0, BuildingBlock: QUQFOY_clean_sbu_3, # of connection points: 4
#     Node 6, Type 0, BuildingBlock: QUQFOY_clean_sbu_3, # of connection points: 4
#     Node 7, Type 0, BuildingBlock: QUQFOY_clean_sbu_3, # of connection points: 4
#     Node 8, Type 0, BuildingBlock: QUQFOY_clean_sbu_3, # of connection points: 4
#     Node 9, Type 0, BuildingBlock: QUQFOY_clean_sbu_3, # of connection points: 4
#     Node 10, Type 0, BuildingBlock: QUQFOY_clean_sbu_3, # of connection points: 4
#     Node 11, Type 0, BuildingBlock: QUQFOY_clean_sbu_3, # of connection points: 4
#     Node 12, Type 0, BuildingBlock: QUQFOY_clean_sbu_3, # of connection points: 4
#     Node 13, Type 0, BuildingBlock: QUQFOY_clean_sbu_3, # of connection points: 4
#     Node 14, Type 0, BuildingBlock: QUQFOY_clean_sbu_3, # of connection points: 4
#     Node 15, Type 0, BuildingBlock: QUQFOY_clean_sbu_3, # of connection points: 4
#     Node 16, Type 0, BuildingBlock: QUQFOY_clean_sbu_3, # of connection points: 4
#     Node 17, Type 0, BuildingBlock: QUQFOY_clean_sbu_3, # of connection points: 4
#     Node 18, Type 0, BuildingBlock: QUQFOY_clean_sbu_3, # of connection points: 4
#     Node 19, Type 0, BuildingBlock: QUQFOY_clean_sbu_3, # of connection points: 4
#     Node 20, Type 0, BuildingBlock: QUQFOY_clean_sbu_3, # of connection points: 4
#     Node 21, Type 0, BuildingBlock: QUQFOY_clean_sbu_3, # of connection points: 4
#     Node 22, Type 0, BuildingBlock: QUQFOY_clean_sbu_3, # of connection points: 4
#     Node 23, Type 0, BuildingBlock: QUQFOY_clean_sbu_3, # of connection points: 4
#     Node 24, Type 1, BuildingBlock: BETDAH_clean_sbu_0, # of connection points: 6
#     Node 25, Type 1, BuildingBlock: BETDAH_clean_sbu_0, # of connection points: 6
#     Node 26, Type 1, BuildingBlock: BETDAH_clean_sbu_0, # of connection points: 6
#     Node 27, Type 1, BuildingBlock: BETDAH_clean_sbu_0, # of connection points: 6
#     Node 28, Type 1, BuildingBlock: BETDAH_clean_sbu_0, # of connection points: 6
#     Node 29, Type 1, BuildingBlock: BETDAH_clean_sbu_0, # of connection points: 6
#     Node 30, Type 1, BuildingBlock: BETDAH_clean_sbu_0, # of connection points: 6
#     Node 31, Type 1, BuildingBlock: BETDAH_clean_sbu_0, # of connection points: 6
#     Node 32, Type 1, BuildingBlock: BETDAH_clean_sbu_0, # of connection points: 6
#     Node 33, Type 1, BuildingBlock: BETDAH_clean_sbu_0, # of connection points: 6
#     Node 34, Type 1, BuildingBlock: BETDAH_clean_sbu_0, # of connection points: 6
#     Node 35, Type 1, BuildingBlock: BETDAH_clean_sbu_0, # of connection points: 6
#     Node 36, Type 1, BuildingBlock: BETDAH_clean_sbu_0, # of connection points: 6
#     Node 37, Type 1, BuildingBlock: BETDAH_clean_sbu_0, # of connection points: 6
#     Node 38, Type 1, BuildingBlock: BETDAH_clean_sbu_0, # of connection points: 6
#     Node 39, Type 1, BuildingBlock: BETDAH_clean_sbu_0, # of connection points: 6
#     Edge 40, Type (0, 1), BuildingBlock: MIFKUJ_clean_linker_0, # of connection points: 2
#     Edge 41, Type (0, 1), BuildingBlock: MIFKUJ_clean_linker_0, # of connection points: 2
#     Edge 42, Type (0, 1), BuildingBlock: MIFKUJ_clean_linker_0, # of connection points: 2
#     Edge 43, Type (0, 1), BuildingBlock: MIFKUJ_clean_linker_0, # of connection points: 2
#     Edge 44, Type (0, 1), BuildingBlock: MIFKUJ_clean_linker_0, # of connection points: 2
#     Edge 45, Type (0, 1), BuildingBlock: MIFKUJ_clean_linker_0, # of connection points: 2
#     Edge 46, Type (0, 1), BuildingBlock: MIFKUJ_clean_linker_0, # of connection points: 2
#     Edge 47, Type (0, 1), BuildingBlock: MIFKUJ_clean_linker_0, # of connection points: 2
#     Edge 48, Type (0, 1), BuildingBlock: MIFKUJ_clean_linker_0, # of connection points: 2
#     Edge 49, Type (0, 1), BuildingBlock: MIFKUJ_clean_linker_0, # of connection points: 2
#     Edge 50, Type (0, 1), BuildingBlock: MIFKUJ_clean_linker_0, # of connection points: 2
#     Edge 51, Type (0, 1), BuildingBlock: MIFKUJ_clean_linker_0, # of connection points: 2
#     Edge 52, Type (0, 1), BuildingBlock: MIFKUJ_clean_linker_0, # of connection points: 2
#     Edge 53, Type (0, 1), BuildingBlock: MIFKUJ_clean_linker_0, # of connection points: 2
#     Edge 54, Type (0, 1), BuildingBlock: MIFKUJ_clean_linker_0, # of connection points: 2
#     Edge 55, Type (0, 1), BuildingBlock: MIFKUJ_clean_linker_0, # of connection points: 2
#     Edge 56, Type (0, 1), BuildingBlock: MIFKUJ_clean_linker_0, # of connection points: 2
#     Edge 57, Type (0, 1), BuildingBlock: MIFKUJ_clean_linker_0, # of connection points: 2
#     Edge 58, Type (0, 1), BuildingBlock: MIFKUJ_clean_linker_0, # of connection points: 2
#     Edge 59, Type (0, 1), BuildingBlock: MIFKUJ_clean_linker_0, # of connection points: 2
#     Edge 60, Type (0, 1), BuildingBlock: MIFKUJ_clean_linker_0, # of connection points: 2
#     Edge 61, Type (0, 1), BuildingBlock: MIFKUJ_clean_linker_0, # of connection points: 2
#     Edge 62, Type (0, 1), BuildingBlock: MIFKUJ_clean_linker_0, # of connection points: 2
#     Edge 63, Type (0, 1), BuildingBlock: MIFKUJ_clean_linker_0, # of connection points: 2
#     Edge 64, Type (0, 1), BuildingBlock: MIFKUJ_clean_linker_0, # of connection points: 2
#     Edge 65, Type (0, 1), BuildingBlock: MIFKUJ_clean_linker_0, # of connection points: 2
#     Edge 66, Type (0, 1), BuildingBlock: MIFKUJ_clean_linker_0, # of connection points: 2
#     Edge 67, Type (0, 1), BuildingBlock: MIFKUJ_clean_linker_0, # of connection points: 2
#     Edge 68, Type (0, 1), BuildingBlock: MIFKUJ_clean_linker_0, # of connection points: 2
#     Edge 69, Type (0, 1), BuildingBlock: MIFKUJ_clean_linker_0, # of connection points: 2
#     Edge 70, Type (0, 1), BuildingBlock: MIFKUJ_clean_linker_0, # of connection points: 2
#     Edge 71, Type (0, 1), BuildingBlock: MIFKUJ_clean_linker_0, # of connection points: 2
#     Edge 72, Type (0, 1), BuildingBlock: MIFKUJ_clean_linker_0, # of connection points: 2
#     Edge 73, Type (0, 1), BuildingBlock: MIFKUJ_clean_linker_0, # of connection points: 2
#     Edge 74, Type (0, 1), BuildingBlock: MIFKUJ_clean_linker_0, # of connection points: 2
#     Edge 75, Type (0, 1), BuildingBlock: MIFKUJ_clean_linker_0, # of connection points: 2
#     Edge 76, Type (0, 1), BuildingBlock: MIFKUJ_clean_linker_0, # of connection points: 2
#     Edge 77, Type (0, 1), BuildingBlock: MIFKUJ_clean_linker_0, # of connection points: 2
#     Edge 78, Type (0, 1), BuildingBlock: MIFKUJ_clean_linker_0, # of connection points: 2
#     Edge 79, Type (0, 1), BuildingBlock: MIFKUJ_clean_linker_0, # of connection points: 2
#     Edge 80, Type (0, 1), BuildingBlock: MIFKUJ_clean_linker_0, # of connection points: 2
#     Edge 81, Type (0, 1), BuildingBlock: MIFKUJ_clean_linker_0, # of connection points: 2
#     Edge 82, Type (0, 1), BuildingBlock: MIFKUJ_clean_linker_0, # of connection points: 2
#     Edge 83, Type (0, 1), BuildingBlock: MIFKUJ_clean_linker_0, # of connection points: 2
#     Edge 84, Type (0, 1), BuildingBlock: MIFKUJ_clean_linker_0, # of connection points: 2
#     Edge 85, Type (0, 1), BuildingBlock: MIFKUJ_clean_linker_0, # of connection points: 2
#     Edge 86, Type (0, 1), BuildingBlock: MIFKUJ_clean_linker_0, # of connection points: 2
#     Edge 87, Type (0, 1), BuildingBlock: MIFKUJ_clean_linker_0, # of connection points: 2
#     Edge 88, Type (0, 1), BuildingBlock: MIFKUJ_clean_linker_0, # of connection points: 2
#     Edge 89, Type (0, 1), BuildingBlock: MIFKUJ_clean_linker_0, # of connection points: 2
#     Edge 90, Type (0, 1), BuildingBlock: MIFKUJ_clean_linker_0, # of connection points: 2
#     Edge 91, Type (0, 1), BuildingBlock: MIFKUJ_clean_linker_0, # of connection points: 2
#     Edge 92, Type (0, 1), BuildingBlock: MIFKUJ_clean_linker_0, # of connection points: 2
#     Edge 93, Type (0, 1), BuildingBlock: MIFKUJ_clean_linker_0, # of connection points: 2
#     Edge 94, Type (0, 1), BuildingBlock: MIFKUJ_clean_linker_0, # of connection points: 2
#     Edge 95, Type (0, 1), BuildingBlock: MIFKUJ_clean_linker_0, # of connection points: 2
#     Edge 96, Type (0, 1), BuildingBlock: MIFKUJ_clean_linker_0, # of connection points: 2
#     Edge 97, Type (0, 1), BuildingBlock: MIFKUJ_clean_linker_0, # of connection points: 2
#     Edge 98, Type (0, 1), BuildingBlock: MIFKUJ_clean_linker_0, # of connection points: 2
#     Edge 99, Type (0, 1), BuildingBlock: MIFKUJ_clean_linker_0, # of connection points: 2
#     Edge 100, Type (0, 1), BuildingBlock: MIFKUJ_clean_linker_0, # of connection points: 2
#     Edge 101, Type (0, 1), BuildingBlock: MIFKUJ_clean_linker_0, # of connection points: 2
#     Edge 102, Type (0, 1), BuildingBlock: MIFKUJ_clean_linker_0, # of connection points: 2
#     Edge 103, Type (0, 1), BuildingBlock: MIFKUJ_clean_linker_0, # of connection points: 2
#     Edge 104, Type (0, 1), BuildingBlock: MIFKUJ_clean_linker_0, # of connection points: 2
#     Edge 105, Type (0, 1), BuildingBlock: MIFKUJ_clean_linker_0, # of connection points: 2
#     Edge 106, Type (0, 1), BuildingBlock: MIFKUJ_clean_linker_0, # of connection points: 2
#     Edge 107, Type (0, 1), BuildingBlock: MIFKUJ_clean_linker_0, # of connection points: 2
#     Edge 108, Type (0, 1), BuildingBlock: MIFKUJ_clean_linker_0, # of connection points: 2
#     Edge 109, Type (0, 1), BuildingBlock: MIFKUJ_clean_linker_0, # of connection points: 2
#     Edge 110, Type (0, 1), BuildingBlock: MIFKUJ_clean_linker_0, # of connection points: 2
#     Edge 111, Type (0, 1), BuildingBlock: MIFKUJ_clean_linker_0, # of connection points: 2
#     Edge 112, Type (0, 1), BuildingBlock: MIFKUJ_clean_linker_0, # of connection points: 2
#     Edge 113, Type (0, 1), BuildingBlock: MIFKUJ_clean_linker_0, # of connection points: 2
#     Edge 114, Type (0, 1), BuildingBlock: MIFKUJ_clean_linker_0, # of connection points: 2
#     Edge 115, Type (0, 1), BuildingBlock: MIFKUJ_clean_linker_0, # of connection points: 2
#     Edge 116, Type (0, 1), BuildingBlock: MIFKUJ_clean_linker_0, # of connection points: 2
#     Edge 117, Type (0, 1), BuildingBlock: MIFKUJ_clean_linker_0, # of connection points: 2
#     Edge 118, Type (0, 1), BuildingBlock: MIFKUJ_clean_linker_0, # of connection points: 2
#     Edge 119, Type (0, 1), BuildingBlock: MIFKUJ_clean_linker_0, # of connection points: 2
#     Edge 120, Type (0, 1), BuildingBlock: MIFKUJ_clean_linker_0, # of connection points: 2
#     Edge 121, Type (0, 1), BuildingBlock: MIFKUJ_clean_linker_0, # of connection points: 2
#     Edge 122, Type (0, 1), BuildingBlock: MIFKUJ_clean_linker_0, # of connection points: 2
#     Edge 123, Type (0, 1), BuildingBlock: MIFKUJ_clean_linker_0, # of connection points: 2
#     Edge 124, Type (0, 1), BuildingBlock: MIFKUJ_clean_linker_0, # of connection points: 2
#     Edge 125, Type (0, 1), BuildingBlock: MIFKUJ_clean_linker_0, # of connection points: 2
#     Edge 126, Type (0, 1), BuildingBlock: MIFKUJ_clean_linker_0, # of connection points: 2
#     Edge 127, Type (0, 1), BuildingBlock: MIFKUJ_clean_linker_0, # of connection points: 2
#     Edge 128, Type (0, 1), BuildingBlock: MIFKUJ_clean_linker_0, # of connection points: 2
#     Edge 129, Type (0, 1), BuildingBlock: MIFKUJ_clean_linker_0, # of connection points: 2
#     Edge 130, Type (0, 1), BuildingBlock: MIFKUJ_clean_linker_0, # of connection points: 2
#     Edge 131, Type (0, 1), BuildingBlock: MIFKUJ_clean_linker_0, # of connection points: 2
#     Edge 132, Type (0, 1), BuildingBlock: MIFKUJ_clean_linker_0, # of connection points: 2
#     Edge 133, Type (0, 1), BuildingBlock: MIFKUJ_clean_linker_0, # of connection points: 2
#     Edge 134, Type (0, 1), BuildingBlock: MIFKUJ_clean_linker_0, # of connection points: 2
#     Edge 135, Type (0, 1), BuildingBlock: MIFKUJ_clean_linker_0, # of connection points: 2
# Relax obj value: 0.160
# Max RMSD: 0.292
# Mean RMSD: 0.148
data_MOF--net-gar--node1-QUQFOY_clean_sbu_3--node2-BETDAH_clean_sbu_0--edge1-MIFKUJ_clean_linker_0
_symmetry_space_group_name_H-M    P1
_symmetry_Int_Tables_number       1
_symmetry_cell_setting            triclinic
loop_
_symmetry_equiv_pos_as_xyz
'x, y, z'
_cell_length_a     78.503796
_cell_length_b     74.424735
_cell_length_c     73.905139
_cell_angle_alpha  99.303929
_cell_angle_beta   95.000585
_cell_angle_gamma 102.83191
loop_
_atom_site_label
_atom_site_type_symbol
_atom_site_fract_x
_atom_site_fract_y
_atom_site_fract_z
_atom_type_partial_charge
C0 C 0.06138 0.30776 0.33564 0.0
O1 O 0.07402 0.31752 0.32921 0.0
Cd2 Cd 0.10266 0.33022 0.34605 0.0
O3 O 0.06359 0.30386 0.35173 0.0
Cd4 Cd 0.0875 0.30885 0.37758 0.0
C5 C 0.0924 0.35583 0.38478 0.0
O6 O 0.10976 0.30471 0.35843 0.0
O7 O 0.11983 0.31673 0.38691 0.0
O8 O 0.0779 0.27646 0.38111 0.0
C9 C 0.12282 0.31008 0.37091 0.0
O10 O 0.09984 0.35578 0.37013 0.0
C11 C 0.07543 0.28005 0.39791 0.0
O12 O 0.08588 0.34055 0.38999 0.0
O13 O 0.0784 0.29724 0.40541 0.0
C14 C 0.96502 0.73332 0.67805 0.0
O15 O 0.97846 0.73065 0.68712 0.0
Cd16 Cd 0.00829 0.7395 0.68144 0.0
O17 O 0.96646 0.74161 0.66421 0.0
Cd18 Cd 0.98997 0.75546 0.64646 0.0
C19 C 0.00185 0.71368 0.6373 0.0
O20 O 0.01063 0.76949 0.6735 0.0
O21 O 0.02144 0.77079 0.64797 0.0
O22 O 0.97656 0.78119 0.64129 0.0
C23 C 0.02392 0.77473 0.66548 0.0
O24 O 0.00861 0.71658 0.65413 0.0
C25 C 0.97685 0.77841 0.62391 0.0
O26 O 0.99377 0.72505 0.63128 0.0
O27 O 0.9823 0.76429 0.61695 0.0
C28 C 0.56104 0.80183 0.84699 0.0
O29 O 0.57191 0.80925 0.83698 0.0
Cd30 Cd 0.60149 0.82534 0.84876 0.0
O31 O 0.56585 0.80145 0.86382 0.0
Cd32 Cd 0.59313 0.80917 0.88611 0.0
C33 C 0.5959 0.85543 0.88716 0.0
O34 O 0.61173 0.80262 0.86342 0.0
O35 O 0.62572 0.81659 0.89012 0.0
O36 O 0.58238 0.77872 0.89416 0.0
C37 C 0.6263 0.80902 0.87361 0.0
O38 O 0.5996 0.85347 0.87061 0.0
C39 C 0.58436 0.78459 0.9115 0.0
O40 O 0.59265 0.84155 0.89542 0.0
O41 O 0.59064 0.80207 0.91718 0.0
C42 C 0.46668 0.23368 0.17417 0.0
O43 O 0.48011 0.23067 0.18289 0.0
Cd44 Cd 0.50886 0.23512 0.1743 0.0
O45 O 0.46778 0.24042 0.15935 0.0
Cd46 Cd 0.4911 0.25075 0.13975 0.0
C47 C 0.4969 0.2063 0.13152 0.0
O48 O 0.51374 0.26491 0.16537 0.0
O49 O 0.52292 0.26209 0.13881 0.0
O50 O 0.47909 0.27733 0.13398 0.0
C51 C 0.5265 0.26797 0.15609 0.0
O52 O 0.50457 0.20951 0.14803 0.0
C53 C 0.47996 0.27438 0.1167 0.0
O54 O 0.49039 0.2186 0.12516 0.0
O55 O 0.48487 0.25978 0.11011 0.0
C56 C 0.04844 0.80453 0.15118 0.0
O57 O 0.0585 0.7969 0.16016 0.0
Cd58 Cd 0.08748 0.79413 0.15472 0.0
O59 O 0.05355 0.81214 0.13763 0.0
Cd60 Cd 0.08068 0.81761 0.12108 0.0
C61 C 0.07681 0.77021 0.10941 0.0
O62 O 0.10162 0.8237 0.14891 0.0
O63 O 0.11344 0.82162 0.12385 0.0
O64 O 0.07378 0.84788 0.11849 0.0
C65 C 0.1155 0.82398 0.14135 0.0
O66 O 0.08278 0.77112 0.12621 0.0
C67 C 0.0767 0.84769 0.10184 0.0
O68 O 0.07336 0.78454 0.10377 0.0
O69 O 0.08138 0.83342 0.09387 0.0
C70 C 0.47881 0.76461 0.37145 0.0
O71 O 0.49124 0.77387 0.36432 0.0
Cd72 Cd 0.52213 0.78024 0.37356 0.0
O73 O 0.48225 0.7569 0.38518 0.0
Cd74 Cd 0.51086 0.7557 0.40379 0.0
C75 C 0.52169 0.80354 0.41729 0.0
O76 O 0.52803 0.7512 0.37784 0.0
O77 O 0.54326 0.75913 0.40466 0.0
O78 O 0.49844 0.72276 0.40677 0.0
C79 C 0.54281 0.75373 0.38743 0.0
O80 O 0.52737 0.80395 0.4017 0.0
C81 C 0.50396 0.72499 0.42386 0.0
O82 O 0.51377 0.78805 0.42135 0.0
O83 O 0.51171 0.74161 0.43183 0.0
C84 C 0.54286 0.2969 0.65116 0.0
O85 O 0.5529 0.28863 0.65932 0.0
Cd86 Cd 0.58208 0.2866 0.65397 0.0
O87 O 0.54799 0.30565 0.63831 0.0
Cd88 Cd 0.57497 0.3122 0.62168 0.0
C89 C 0.57234 0.26503 0.60789 0.0
O90 O 0.59592 0.31652 0.64894 0.0
O91 O 0.60776 0.31579 0.62386 0.0
O92 O 0.57322 0.34483 0.62116 0.0
C93 C 0.60977 0.31708 0.64128 0.0
O94 O 0.57789 0.26505 0.62462 0.0
C95 C 0.57105 0.34321 0.60369 0.0
O96 O 0.56888 0.2797 0.60301 0.0
O97 O 0.57064 0.32713 0.59438 0.0
C98 C 0.97514 0.26791 0.87541 0.0
O99 O 0.98724 0.27669 0.86753 0.0
Cd100 Cd 0.01831 0.28252 0.87575 0.0
O101 O 0.97909 0.26046 0.88915 0.0
Cd102 Cd 0.00817 0.25883 0.90641 0.0
C103 C 0.02026 0.30647 0.91978 0.0
O104 O 0.02505 0.25383 0.88016 0.0
O105 O 0.04044 0.26315 0.90688 0.0
O106 O 0.99603 0.2258 0.90902 0.0
C107 C 0.03995 0.25708 0.88976 0.0
O108 O 0.02514 0.30648 0.90379 0.0
C109 C 0.00167 0.22779 0.92604 0.0
O110 O 0.01219 0.29125 0.92425 0.0
O111 O 0.00939 0.24435 0.9342 0.0
C112 C 0.46038 0.05468 0.30427 0.0
O113 O 0.46798 0.04983 0.29044 0.0
Cd114 Cd 0.45234 0.03543 0.26022 0.0
O115 O 0.44395 0.05398 0.30232 0.0
Cd116 Cd 0.41922 0.04666 0.27719 0.0
C117 C 0.4205 1.00138 0.2727 0.0
O118 O 0.43329 0.05389 0.25038 0.0
O119 O 0.4073 0.03529 0.24496 0.0
O120 O 0.41066 0.07578 0.28632 0.0
C121 C 0.42033 0.04441 0.23862 0.0
O122 O 0.43383 0.00542 0.26411 0.0
C123 C 0.39501 0.06808 0.28847 0.0
O124 O 0.41337 0.01408 0.28004 0.0
O125 O 0.39084 0.05028 0.28612 0.0
C126 C 0.29553 0.14563 0.49597 0.0
O127 O 0.2836 0.13618 0.50357 0.0
Cd128 Cd 0.25526 0.14195 0.50737 0.0
O129 O 0.29285 0.15962 0.48912 0.0
Cd130 Cd 0.26772 0.17553 0.48518 0.0
C131 C 0.2678 0.18736 0.53191 0.0
O132 O 0.24389 0.14701 0.47839 0.0
O133 O 0.23533 0.17256 0.48402 0.0
O134 O 0.27541 0.17755 0.4539 0.0
C135 C 0.23116 0.15482 0.47948 0.0
O136 O 0.25995 0.17023 0.53083 0.0
C137 C 0.27507 0.1946 0.45448 0.0
O138 O 0.2737 0.19329 0.51781 0.0
O139 O 0.27175 0.2032 0.46958 0.0
C140 C 0.13607 0.01927 0.80898 0.0
O141 O 0.12922 0.02927 0.79953 0.0
Cd142 Cd 0.13575 0.03299 0.76843 0.0
O143 O 0.14748 0.0109 0.80182 0.0
Cd144 Cd 0.16311 0.00903 0.76897 0.0
C145 C 0.17793 0.05965 0.77152 0.0
O146 O 0.13498 0.00526 0.74538 0.0
O147 O 0.15943 0.0125 0.73472 0.0
O148 O 0.16548 0.97373 0.76659 0.0
C149 C 0.14274 0.0085 0.73136 0.0
O150 O 0.16147 0.05869 0.76923 0.0
C151 C 0.18213 0.97593 0.76756 0.0
O152 O 0.1831 0.04456 0.77316 0.0
O153 O 0.1903 0.99308 0.76918 0.0
C154 C 0.32556 0.96231 0.01674 0.0
O155 O 0.31727 0.97089 0.00688 0.0
Cd156 Cd 0.28768 0.9574 0.99222 0.0
O157 O 0.31835 0.9459 0.01911 0.0
Cd158 Cd 0.29012 0.92214 0.01091 0.0
C159 C 0.29151 0.91765 0.96448 0.0
O160 O 0.27333 0.9453 0.01695 0.0
O161 O 0.25788 0.91681 0.00832 0.0
O162 O 0.29784 0.91276 0.03996 0.0
C163 C 0.25831 0.93397 0.01377 0.0
O164 O 0.28947 0.93421 0.96501 0.0
C165 C 0.29561 0.89555 0.03285 0.0
O166 O 0.29245 0.91085 0.9791 0.0
O167 O 0.29021 0.89072 0.01568 0.0
C168 C 0.33321 0.42555 0.03234 0.0
O169 O 0.32315 0.43415 0.02474 0.0
Cd170 Cd 0.29251 0.42229 0.01506 0.0
O171 O 0.3268 0.40984 0.03699 0.0
Cd172 Cd 0.29607 0.38938 0.03687 0.0
C173 C 0.29294 0.37876 0.98988 0.0
O174 O 0.27952 0.41366 0.04113 0.0
O175 O 0.26375 0.38574 0.03061 0.0
O176 O 0.30137 0.38903 0.07 0.0
C177 C 0.26429 0.40283 0.03662 0.0
O178 O 0.29093 0.39538 0.99069 0.0
C179 C 0.29834 0.37136 0.0686 0.0
O180 O 0.29562 0.37243 0.00469 0.0
O181 O 0.29482 0.36176 0.05226 0.0
C182 C 0.79218 0.10452 0.0295 0.0
O183 O 0.77791 0.09543 0.03386 0.0
Cd184 Cd 0.7505 0.1048 0.02974 0.0
O185 O 0.79251 0.11913 0.02254 0.0
Cd186 Cd 0.77189 0.13753 0.01372 0.0
C187 C 0.75976 0.14806 0.0566 0.0
O188 O 0.74733 0.1113 0.99866 0.0
O189 O 0.74274 0.13908 1.00127 0.0
O190 O 0.78701 0.14562 0.98754 0.0
C191 C 0.73727 0.12171 0.99478 0.0
O192 O 0.75103 0.13114 0.05475 0.0
C193 C 0.79038 0.16318 0.99356 0.0
O194 O 0.76887 0.15329 0.04417 0.0
O195 O 0.78578 0.1685 0.00918 0.0
C196 C 0.13412 0.52046 0.25172 0.0
O197 O 0.12418 0.52199 0.23783 0.0
Cd198 Cd 0.13387 0.52504 0.20866 0.0
O199 O 0.14966 0.51844 0.25017 0.0
Cd200 Cd 0.16943 0.51514 0.22613 0.0
C201 C 0.17082 0.56078 0.22527 0.0
O202 O 0.14735 0.49947 0.20086 0.0
O203 O 0.17244 0.51128 0.19274 0.0
O204 O 0.17864 0.48883 0.23626 0.0
C205 C 0.15668 0.50177 0.18793 0.0
O206 O 0.15511 0.55578 0.21698 0.0
C207 C 0.19468 0.49761 0.24081 0.0
O208 O 0.17871 0.54879 0.23007 0.0
O209 O 0.19895 0.5144 0.23825 0.0
C210 C 0.83552 0.92266 0.52602 0.0
O211 O 0.82596 0.93013 0.51627 0.0
Cd212 Cd 0.7947 0.92067 0.5089 0.0
O213 O 0.82851 0.90879 0.53328 0.0
Cd214 Cd 0.79757 0.88991 0.53386 0.0
C215 C 0.79193 0.87553 0.48687 0.0
O216 O 0.78358 0.9165 0.53721 0.0
O217 O 0.76569 0.88927 0.53074 0.0
O218 O 0.8082 0.88957 0.56615 0.0
C219 C 0.76782 0.90688 0.53496 0.0
O220 O 0.78921 0.89168 0.48626 0.0
C221 C 0.80012 0.87278 0.56613 0.0
O222 O 0.79661 0.8712 0.50228 0.0
O223 O 0.79134 0.86357 0.55091 0.0
C224 C 0.94683 0.0494 0.29095 0.0
O225 O 0.95364 0.04004 0.27889 0.0
Cd226 Cd 0.94355 0.03128 0.24623 0.0
O227 O 0.9341 0.05653 0.28527 0.0
Cd228 Cd 0.91655 0.05652 0.25069 0.0
C229 C 0.90136 0.0058 0.24693 0.0
O230 O 0.94286 0.05752 0.23082 0.0
O231 O 0.91769 0.0498 0.21478 0.0
O232 O 0.91474 0.09215 0.25708 0.0
C233 C 0.9343 0.05356 0.21466 0.0
O234 O 0.91703 0.00591 0.24363 0.0
C235 C 0.89811 0.09009 0.25401 0.0
O236 O 0.89698 0.02164 0.25057 0.0
O237 O 0.88972 0.07289 0.24983 0.0
C238 C 0.29393 0.60462 0.53179 0.0
O239 O 0.27969 0.59743 0.53762 0.0
Cd240 Cd 0.25395 0.6101 0.53593 0.0
O241 O 0.29527 0.61925 0.52464 0.0
Cd242 Cd 0.27702 0.64068 0.51776 0.0
C243 C 0.26889 0.65382 0.56174 0.0
O244 O 0.24979 0.61691 0.50525 0.0
O245 O 0.24862 0.64594 0.50786 0.0
O246 O 0.28992 0.64626 0.48973 0.0
C247 C 0.24106 0.6288 0.50222 0.0
O248 O 0.25851 0.63775 0.56038 0.0
C249 C 0.29516 0.66389 0.49524 0.0
O250 O 0.27778 0.65769 0.54871 0.0
O251 O 0.29283 0.67035 0.51156 0.0
C252 C 0.44463 0.55134 0.79244 0.0
O253 O 0.45139 0.54188 0.78042 0.0
Cd254 Cd 0.4411 0.53314 0.74792 0.0
O255 O 0.4321 0.55874 0.7867 0.0
Cd256 Cd 0.41462 0.559 0.75199 0.0
C257 C 0.39864 0.50874 0.74964 0.0
O258 O 0.44096 0.55946 0.73225 0.0
O259 O 0.41589 0.55167 0.71605 0.0
O260 O 0.41301 0.5947 0.75906 0.0
C261 C 0.43251 0.55535 0.71603 0.0
O262 O 0.41436 0.50839 0.74691 0.0
C263 C 0.39647 0.59283 0.75525 0.0
O264 O 0.39437 0.52468 0.75207 0.0
O265 O 0.38804 0.57571 0.75027 0.0
C266 C 0.62668 0.02841 0.76922 0.0
O267 O 0.61454 0.03285 0.75965 0.0
Cd268 Cd 0.61299 0.03234 0.72694 0.0
O269 O 0.63854 0.022 0.76151 0.0
Cd270 Cd 0.64714 0.01408 0.73052 0.0
C271 C 0.65434 0.06068 0.72934 0.0
O272 O 0.61793 1.00275 0.71354 0.0
O273 O 0.6393 0.00544 0.69699 0.0
O274 O 0.65508 0.98753 0.74132 0.0
C275 C 0.62283 1.00103 0.69759 0.0
O276 O 0.63774 0.05865 0.72627 0.0
C277 C 0.67035 0.99078 0.73624 0.0
O278 O 0.66086 0.04692 0.73182 0.0
O279 O 0.67465 0.00475 0.7283 0.0
C280 C 0.79799 0.64379 0.99532 0.0
O281 O 0.78613 0.63434 0.00301 0.0
Cd282 Cd 0.75742 0.63914 0.00658 0.0
O283 O 0.7951 0.65746 0.98802 0.0
Cd284 Cd 0.76969 0.67281 0.98337 0.0
C285 C 0.76943 0.68503 0.03019 0.0
O286 O 0.74632 0.64411 0.97754 0.0
O287 O 0.73715 0.66936 0.98167 0.0
O288 O 0.77607 0.67431 0.95154 0.0
C289 C 0.73335 0.65157 0.97818 0.0
O290 O 0.76203 0.66782 0.02946 0.0
C291 C 0.77711 0.69172 0.95257 0.0
O292 O 0.77499 0.69085 0.0159 0.0
O293 O 0.77507 0.70066 0.9681 0.0
C294 C 0.94895 0.54129 0.82544 0.0
O295 O 0.95486 0.52771 0.81795 0.0
Cd296 Cd 0.95243 0.51429 0.78585 0.0
O297 O 0.93926 0.54893 0.81595 0.0
Cd298 Cd 0.9254 0.54231 0.78343 0.0
C299 C 0.90822 0.49495 0.77748 0.0
O300 O 0.95174 0.53934 0.76996 0.0
O301 O 0.92817 0.53418 0.7507 0.0
O302 O 0.92389 0.57389 0.77957 0.0
C303 C 0.94448 0.53488 0.75335 0.0
O304 O 0.92383 0.49265 0.77804 0.0
C305 C 0.90732 0.57077 0.77961 0.0
O306 O 0.90538 0.51132 0.78034 0.0
O307 O 0.89938 0.5547 0.78205 0.0
C308 C 0.83007 0.45346 0.51062 0.0
O309 O 0.82387 0.46394 0.50121 0.0
Cd310 Cd 0.7938 0.45533 0.48693 0.0
O311 O 0.82028 0.43828 0.51327 0.0
Cd312 Cd 0.78996 0.41938 0.50706 0.0
C313 C 0.79288 0.4125 0.46096 0.0
O314 O 0.77731 0.44586 0.51117 0.0
O315 O 0.75848 0.41913 0.50268 0.0
O316 O 0.7944 0.41262 0.5378 0.0
C317 C 0.76137 0.43684 0.50724 0.0
O318 O 0.79299 0.42967 0.46107 0.0
C319 C 0.79193 0.39505 0.53237 0.0
O320 O 0.79219 0.40589 0.47575 0.0
O321 O 0.78756 0.38872 0.51518 0.0
C322 C 0.63608 0.51695 0.30891 0.0
O323 O 0.62928 0.52698 0.29944 0.0
Cd324 Cd 0.63525 0.53135 0.26836 0.0
O325 O 0.6475 0.50851 0.30183 0.0
Cd326 Cd 0.66349 0.50641 0.26914 0.0
C327 C 0.67801 0.55736 0.27224 0.0
O328 O 0.63538 0.50362 0.24598 0.0
O329 O 0.65958 0.50856 0.23451 0.0
O330 O 0.66598 0.47108 0.26705 0.0
C331 C 0.64296 0.50601 0.23166 0.0
O332 O 0.66156 0.55644 0.26994 0.0
C333 C 0.68263 0.47326 0.26779 0.0
O334 O 0.6832 0.5422 0.27356 0.0
O335 O 0.69075 0.49041 0.26926 0.0
Ho336 Ho 0.0177 0.02205 1.00106 0.0
Ho337 Ho 0.05279 0.04815 0.02225 0.0
C338 C 0.02591 0.06715 1.00173 0.0
C339 C 0.98475 0.00548 0.99412 0.0
C340 C 0.96988 0.01168 1.00146 0.0
C341 C 0.97319 0.02785 0.01521 0.0
C342 C 0.95933 0.03525 0.02095 0.0
C343 C 0.94192 0.02656 0.01308 0.0
C344 C 0.9386 0.00996 0.99976 0.0
C345 C 0.95254 1.00261 0.99391 0.0
C346 C 0.04335 0.02227 0.97714 0.0
C347 C 0.04467 1.00359 0.02213 0.0
C348 C 0.08566 0.06436 0.03046 0.0
C349 C 0.10075 0.05646 0.02669 0.0
C350 C 0.09898 0.04192 0.01146 0.0
C351 C 0.11129 0.03105 0.01019 0.0
C352 C 0.12547 0.03438 0.02425 0.0
C353 C 0.12775 0.04964 0.03896 0.0
C354 C 0.11544 0.0606 0.04017 0.0
C355 C 0.02702 0.04702 0.04617 0.0
O356 O 0.01395 0.051 0.99915 0.0
O357 O 0.04225 0.06917 0.00927 0.0
O358 O 0.99289 0.01615 0.98356 0.0
O359 O 0.99562 1.0012 0.00624 0.0
O360 O 0.02727 0.01223 0.97374 0.0
O361 O 0.04501 0.03102 0.99387 0.0
O362 O 0.05696 0.01919 0.02308 0.0
O363 O 0.02803 1.00202 0.01596 0.0
O364 O 0.07625 0.05639 0.04202 0.0
O365 O 0.07602 0.06673 0.01603 0.0
O366 O 0.04302 0.0572 0.0498 0.0
O367 O 0.02559 0.0387 0.02936 0.0
H368 H 0.98656 0.03504 0.02113 0.0
H369 H 0.96228 0.04795 0.03132 0.0
H370 H 0.92531 1.0031 0.99334 0.0
H371 H 0.94984 0.9902 0.98319 0.0
H372 H 0.08753 0.03823 1.00109 0.0
H373 H 0.10931 0.01957 0.99857 0.0
H374 H 0.13846 0.05245 0.05009 0.0
H375 H 0.11679 0.07152 0.0522 0.0
Ho376 Ho 0.29474 0.77633 0.24478 0.0
Ho377 Ho 0.28531 0.79164 0.28064 0.0
C378 C 0.30809 0.8198 0.25724 0.0
C379 C 0.29595 0.76052 0.2113 0.0
C380 C 0.30053 0.76821 0.19487 0.0
C381 C 0.2984 0.78611 0.19326 0.0
C382 C 0.3034 0.79383 0.17804 0.0
C383 C 0.31084 0.7839 0.16425 0.0
C384 C 0.31296 0.76593 0.16591 0.0
C385 C 0.30784 0.75815 0.18117 0.0
C386 C 0.31979 0.77982 0.27355 0.0
C387 C 0.272 0.74816 0.26758 0.0
C388 C 0.28573 0.80642 0.31478 0.0
C389 C 0.2874 0.79766 0.33099 0.0
C390 C 0.29413 0.78164 0.3294 0.0
C391 C 0.29491 0.7722 0.34408 0.0
C392 C 0.28865 0.77842 0.36061 0.0
C393 C 0.28206 0.79466 0.36232 0.0
C394 C 0.28141 0.80422 0.34753 0.0
C395 C 0.26037 0.78929 0.252 0.0
O396 O 0.30422 0.80624 0.24263 0.0
O397 O 0.30319 0.81705 0.27345 0.0
O398 O 0.30895 0.76363 0.22455 0.0
O399 O 0.28149 0.76356 0.21737 0.0
O400 O 0.32296 0.78382 0.25759 0.0
O401 O 0.30343 0.77368 0.27349 0.0
O402 O 0.27668 0.76138 0.28244 0.0
O403 O 0.27604 0.75135 0.25128 0.0
O404 O 0.27119 0.79911 0.3035 0.0
O405 O 0.29965 0.80888 0.30611 0.0
O406 O 0.25713 0.7862 0.26823 0.0
O407 O 0.27679 0.79457 0.25202 0.0
H408 H 0.29288 0.79415 0.20378 0.0
H409 H 0.30122 0.80751 0.17699 0.0
H410 H 0.31873 0.75801 0.15555 0.0
H411 H 0.30972 0.74438 0.18236 0.0
H412 H 0.2986 0.77628 0.31664 0.0
H413 H 0.3004 0.76 0.34243 0.0
H414 H 0.27708 0.79969 0.37489 0.0
H415 H 0.27599 0.81648 0.34887 0.0
Ho416 Ho 0.55716 0.03706 0.51151 0.0
Ho417 Ho 0.51666 0.0321 0.50169 0.0
C418 C 0.53161 0.99526 0.49515 0.0
C419 C 0.58823 0.03518 0.52486 0.0
C420 C 0.60055 0.02267 0.52334 0.0
C421 C 0.59769 0.00621 0.53084 0.0
C422 C 0.61034 0.99558 0.53093 0.0
C423 C 0.62621 1.00122 0.52359 0.0
C424 C 0.62884 0.01745 0.51569 0.0
C425 C 0.61621 0.02807 0.51564 0.0
C426 C 0.54631 0.04125 0.47721 0.0
C427 C 0.5424 0.07381 0.51878 0.0
C428 C 0.48596 0.03482 0.48813 0.0
C429 C 0.4739 0.04756 0.49059 0.0
C430 C 0.46962 0.05651 0.47608 0.0
C431 C 0.45721 0.06741 0.47746 0.0
C432 C 0.44866 0.06946 0.49336 0.0
C433 C 0.45323 0.06082 0.50804 0.0
C434 C 0.46572 0.05001 0.5067 0.0
C435 C 0.52733 0.02786 0.53596 0.0
O436 O 0.54687 0.00552 0.5043 0.0
O437 O 0.51846 1.00277 0.49031 0.0
O438 O 0.58536 0.04319 0.51074 0.0
O439 O 0.57398 0.02985 0.53251 0.0
O440 O 0.56131 0.05058 0.48652 0.0
O441 O 0.53856 0.02942 0.48597 0.0
O442 O 0.52725 0.06376 0.50916 0.0
O443 O 0.55523 0.06597 0.52372 0.0
O444 O 0.48837 0.02542 0.50127 0.0
O445 O 0.50048 0.04099 0.48126 0.0
O446 O 0.51217 0.01887 0.5268 0.0
O447 O 0.53516 0.03962 0.52717 0.0
H448 H 0.58587 1.00179 0.53706 0.0
H449 H 0.60792 0.9833 0.53732 0.0
H450 H 0.64077 0.02207 0.50965 0.0
H451 H 0.61886 0.04076 0.50988 0.0
H452 H 0.47562 0.05474 0.46345 0.0
H453 H 0.45386 0.07369 0.46582 0.0
H454 H 0.44706 0.06232 0.52057 0.0
H455 H 0.4687 0.04333 0.51816 0.0
Ho456 Ho 0.26744 0.28738 0.7591 0.0
Ho457 Ho 0.30627 0.28444 0.764 0.0
C458 C 0.28805 0.29276 0.80046 0.0
C459 C 0.2342 0.28596 0.75981 0.0
C460 C 0.22 0.28106 0.77121 0.0
C461 C 0.22285 0.27444 0.78768 0.0
C462 C 0.20908 0.27036 0.7984 0.0
C463 C 0.19223 0.27277 0.79275 0.0
C464 C 0.18955 0.27935 0.77617 0.0
C465 C 0.20329 0.28344 0.76555 0.0
C466 C 0.2919 0.31873 0.75474 0.0
C467 C 0.28399 0.27321 0.72301 0.0
C468 C 0.3401 0.29496 0.76463 0.0
C469 C 0.35445 0.2929 0.75342 0.0
C470 C 0.36679 0.30921 0.75187 0.0
C471 C 0.38038 0.30823 0.74106 0.0
C472 C 0.38196 0.29088 0.7315 0.0
C473 C 0.36966 0.27446 0.73315 0.0
C474 C 0.35593 0.27546 0.74397 0.0
C475 C 0.2845 0.24936 0.7635 0.0
O476 O 0.27273 0.28804 0.78973 0.0
O477 O 0.30321 0.29415 0.79361 0.0
O478 O 0.24674 0.30089 0.76678 0.0
O479 O 0.24017 0.27216 0.7515 0.0
O480 O 0.27651 0.31215 0.74509 0.0
O481 O 0.29334 0.30834 0.76661 0.0
O482 O 0.29967 0.27898 0.73303 0.0
O483 O 0.26923 0.27311 0.73042 0.0
O484 O 0.33245 0.28084 0.77197 0.0
O485 O 0.32896 0.30372 0.75806 0.0
O486 O 0.30162 0.2532 0.76511 0.0
O487 O 0.28021 0.26459 0.76199 0.0
H488 H 0.23568 0.27246 0.79224 0.0
H489 H 0.21157 0.26518 0.81101 0.0
H490 H 0.17689 0.28169 0.77154 0.0
H491 H 0.20088 0.28864 0.75292 0.0
H492 H 0.36589 0.32281 0.75903 0.0
H493 H 0.38982 0.32108 0.74038 0.0
H494 H 0.37051 0.2609 0.72587 0.0
H495 H 0.34647 0.26269 0.74483 0.0
Ho496 Ho 0.03852 0.0499 0.52299 0.0
Ho497 Ho 0.03829 0.00786 0.50527 0.0
C498 C 0.02332 0.03325 0.47811 0.0
C499 C 0.04216 0.08572 0.52996 0.0
C500 C 0.04253 0.10069 0.51892 0.0
C501 C 0.05749 0.10769 0.51066 0.0
C502 C 0.05749 0.12165 0.50009 0.0
C503 C 0.04263 0.12906 0.49773 0.0
C504 C 0.02778 0.12224 0.50617 0.0
C505 C 0.02774 0.10822 0.51666 0.0
C506 C 0.01304 0.02252 0.53102 0.0
C507 C 0.05548 0.0255 0.54899 0.0
C508 C 0.02848 0.97175 0.49615 0.0
C509 C 0.02002 0.95637 0.50497 0.0
C510 C 0.0123 0.95995 0.5212 0.0
C511 C 0.00496 0.9452 0.52986 0.0
C512 C 0.00561 0.92673 0.52261 0.0
C513 C 0.01318 0.92322 0.50624 0.0
C514 C 0.02026 0.93793 0.49746 0.0
C515 C 0.06772 0.0325 0.49949 0.0
O516 O 0.02706 0.04754 0.49255 0.0
O517 O 0.02651 0.01662 0.47962 0.0
O518 O 0.02698 0.07363 0.52875 0.0
O519 O 0.05554 0.07782 0.53009 0.0
O520 O 0.0201 0.03819 0.54238 0.0
O521 O 0.01907 0.02289 0.51582 0.0
O522 O 0.04687 0.01032 0.53655 0.0
O523 O 0.05627 0.0427 0.54554 0.0
O524 O 0.04443 0.98079 0.50367 0.0
O525 O 0.0187 0.98294 0.4918 0.0
O526 O 0.06457 0.01453 0.49358 0.0
O527 O 0.05515 0.03546 0.50785 0.0
H528 H 0.06924 0.1025 0.51241 0.0
H529 H 0.06924 0.12687 0.49402 0.0
H530 H 0.01612 0.12763 0.50452 0.0
H531 H 0.01609 0.10324 0.523 0.0
H532 H 0.0123 0.97417 0.52736 0.0
H533 H 0.99939 0.9483 0.54257 0.0
H534 H 0.01376 0.9091 0.50033 0.0
H535 H 0.0262 0.93494 0.48497 0.0
Ho536 Ho 0.30846 0.79996 0.76441 0.0
Ho537 Ho 0.27136 0.77026 0.76143 0.0
C538 C 0.30735 0.75395 0.7638 0.0
C539 C 0.3402 0.81932 0.77604 0.0
C540 C 0.35694 0.81423 0.78001 0.0
C541 C 0.3571 0.79654 0.78425 0.0
C542 C 0.37295 0.79137 0.78727 0.0
C543 C 0.38889 0.80402 0.78657 0.0
C544 C 0.38883 0.82189 0.78275 0.0
C545 C 0.37289 0.8269 0.7793 0.0
C546 C 0.29205 0.78396 0.73042 0.0
C547 C 0.2726 0.81611 0.76255 0.0
C548 C 0.24167 0.74819 0.74668 0.0
C549 C 0.22324 0.74899 0.74659 0.0
C550 C 0.21035 0.73544 0.73433 0.0
C551 C 0.19325 0.7378 0.73155 0.0
C552 C 0.18887 0.7538 0.74098 0.0
C553 C 0.2016 0.76682 0.75409 0.0
C554 C 0.21874 0.76446 0.75683 0.0
C555 C 0.28237 0.78965 0.79638 0.0
O556 O 0.31672 0.77174 0.76531 0.0
O557 O 0.28971 0.75001 0.76196 0.0
O558 O 0.3335 0.81553 0.75861 0.0
O559 O 0.32845 0.81463 0.78704 0.0
O560 O 0.30194 0.80099 0.73431 0.0
O561 O 0.29252 0.77632 0.74438 0.0
O562 O 0.26326 0.79814 0.75871 0.0
O563 O 0.29019 0.82029 0.76645 0.0
O564 O 0.24991 0.74668 0.76242 0.0
O565 O 0.25096 0.76056 0.73835 0.0
O566 O 0.26792 0.77648 0.79209 0.0
O567 O 0.28953 0.7905 0.78201 0.0
H568 H 0.345 0.78676 0.78538 0.0
H569 H 0.37279 0.77764 0.79049 0.0
H570 H 0.40108 0.83183 0.78223 0.0
H571 H 0.37299 0.84063 0.77611 0.0
H572 H 0.21369 0.72348 0.72628 0.0
H573 H 0.1836 0.72747 0.72152 0.0
H574 H 0.19858 0.77934 0.76141 0.0
H575 H 0.22867 0.77514 0.76623 0.0
Ho576 Ho 0.54607 0.03233 0.02929 0.0
Ho577 Ho 0.52392 0.01419 0.99134 0.0
C578 C 0.50659 0.00457 0.02578 0.0
C579 C 0.55499 0.04663 0.06374 0.0
C580 C 0.5437 0.04496 0.07861 0.0
C581 C 0.52736 0.04977 0.07695 0.0
C582 C 0.51465 0.04361 0.08804 0.0
C583 C 0.51798 0.03249 0.10093 0.0
C584 C 0.53475 0.02895 0.10368 0.0
C585 C 0.54753 0.03513 0.09255 0.0
C586 C 0.55526 1.00274 0.01051 0.0
C587 C 0.5621 0.04396 0.99455 0.0
C588 C 0.51612 0.9998 0.95694 0.0
C589 C 0.52805 1.00339 0.94281 0.0
C590 C 0.53992 0.99207 0.93888 0.0
C591 C 0.55413 0.99804 0.92938 0.0
C592 C 0.55669 0.0154 0.92354 0.0
C593 C 0.54426 0.02618 0.92657 0.0
C594 C 0.53004 0.02018 0.93592 0.0
C595 C 0.51536 0.04444 0.00971 0.0
O596 O 0.51885 0.01902 0.03532 0.0
O597 O 0.50737 0.99744 0.00839 0.0
O598 O 0.55827 0.03081 0.05617 0.0
O599 O 0.55103 0.05644 0.05146 0.0
O600 O 0.56654 0.01701 0.02066 0.0
O601 O 0.53977 0.00447 0.01173 0.0
O602 O 0.55053 0.02903 0.98488 0.0
O603 O 0.56169 0.05012 0.01227 0.0
O604 O 0.51052 0.0142 0.96454 0.0
O605 O 0.5211 0.99046 0.96916 0.0
O606 O 0.50376 0.03038 0.99959 0.0
O607 O 0.53061 0.04207 0.00861 0.0
H608 H 0.52392 0.0573 0.06635 0.0
H609 H 0.50194 0.04694 0.08606 0.0
H610 H 0.53765 0.02058 0.11372 0.0
H611 H 0.55999 0.03119 0.09402 0.0
H612 H 0.53873 0.97902 0.94391 0.0
H613 H 0.56322 0.98917 0.92683 0.0
H614 H 0.54587 0.03967 0.92235 0.0
H615 H 0.52118 0.02928 0.93867 0.0
Ho616 Ho 0.30306 0.30013 0.26571 0.0
Ho617 Ho 0.2785 0.26181 0.2559 0.0
C618 C 0.26399 0.29804 0.27275 0.0
C619 C 0.32445 0.33187 0.26537 0.0
C620 C 0.32171 0.35088 0.26556 0.0
C621 C 0.31132 0.3547 0.25086 0.0
C622 C 0.30664 0.37181 0.2523 0.0
C623 C 0.31228 0.38553 0.26845 0.0
C624 C 0.3235 0.38213 0.28272 0.0
C625 C 0.32821 0.36497 0.28126 0.0
C626 C 0.29853 0.28194 0.29445 0.0
C627 C 0.3181 0.26396 0.25119 0.0
C628 C 0.25735 0.23004 0.2566 0.0
C629 C 0.26092 0.21307 0.26253 0.0
C630 C 0.26843 0.2139 0.28073 0.0
C631 C 0.27557 0.19938 0.28519 0.0
C632 C 0.27492 0.18363 0.27167 0.0
C633 C 0.26607 0.18196 0.25394 0.0
C634 C 0.25913 0.19665 0.24938 0.0
C635 C 0.28251 0.28044 0.22736 0.0
O636 O 0.27839 0.30947 0.26965 0.0
O637 O 0.2618 0.27962 0.26954 0.0
O638 O 0.32186 0.32519 0.28047 0.0
O639 O 0.3177 0.31936 0.25043 0.0
O640 O 0.30047 0.29987 0.29575 0.0
O641 O 0.30018 0.27464 0.27826 0.0
O642 O 0.30391 0.25317 0.25553 0.0
O643 O 0.31968 0.28214 0.25218 0.0
O644 O 0.26402 0.23412 0.24173 0.0
O645 O 0.25955 0.24487 0.26958 0.0
O646 O 0.28039 0.26248 0.22574 0.0
O647 O 0.28107 0.28741 0.24369 0.0
H648 H 0.30623 0.34426 0.23846 0.0
H649 H 0.29786 0.37388 0.2411 0.0
H650 H 0.32825 0.39255 0.29522 0.0
H651 H 0.33638 0.36242 0.29271 0.0
H652 H 0.26969 0.22618 0.2913 0.0
H653 H 0.28232 0.20082 0.29897 0.0
H654 H 0.26554 0.16989 0.24333 0.0
H655 H 0.25332 0.19563 0.23529 0.0
Ho656 Ho 0.53923 0.55173 0.02336 0.0
Ho657 Ho 0.53741 0.5115 0.00792 0.0
C658 C 0.52246 0.53748 0.98018 0.0
C659 C 0.54892 0.58723 0.03696 0.0
C660 C 0.55017 0.60435 0.02922 0.0
C661 C 0.55161 0.604 0.0104 0.0
C662 C 0.55266 0.6203 0.00309 0.0
C663 C 0.55192 0.6372 0.01438 0.0
C664 C 0.55026 0.63737 0.03322 0.0
C665 C 0.54945 0.62108 0.04057 0.0
C666 C 0.50883 0.52778 0.02624 0.0
C667 C 0.5546 0.52594 0.05081 0.0
C668 C 0.52552 0.47604 0.99524 0.0
C669 C 0.51962 0.45931 0.00366 0.0
C670 C 0.50195 0.45357 0.00674 0.0
C671 C 0.49653 0.43825 0.01535 0.0
C672 C 0.50859 0.42813 0.02078 0.0
C673 C 0.52615 0.43359 0.01733 0.0
C674 C 0.5316 0.449 0.00885 0.0
C675 C 0.56776 0.53542 0.00445 0.0
O676 O 0.52881 0.55239 0.99358 0.0
O677 O 0.52386 0.52054 0.98294 0.0
O678 O 0.53296 0.57714 0.03665 0.0
O679 O 0.55992 0.57705 0.0319 0.0
O680 O 0.50988 0.54454 0.02295 0.0
O681 O 0.52402 0.52494 0.02894 0.0
O682 O 0.5471 0.51096 0.03787 0.0
O683 O 0.55414 0.543 0.04765 0.0
O684 O 0.54235 0.4843 0.9984 0.0
O685 O 0.51557 0.48805 0.99621 0.0
O686 O 0.56672 0.51838 0.007 0.0
O687 O 0.55253 0.53823 1.00225 0.0
H688 H 0.55193 0.59113 1.00135 0.0
H689 H 0.55423 0.61965 0.98861 0.0
H690 H 0.54936 0.65003 0.04226 0.0
H691 H 0.54812 0.62151 0.0551 0.0
H692 H 0.49229 0.46099 0.0026 0.0
H693 H 0.48286 0.4342 0.0176 0.0
H694 H 0.53578 0.42615 0.02148 0.0
H695 H 0.54526 0.45291 0.00652 0.0
Ho696 Ho 0.80839 0.29582 0.25834 0.0
Ho697 Ho 0.77478 0.26911 0.26277 0.0
C698 C 0.80895 0.25107 0.26142 0.0
C699 C 0.84075 0.31446 0.26406 0.0
C700 C 0.85743 0.30855 0.26403 0.0
C701 C 0.87016 0.31515 0.2796 0.0
C702 C 0.88531 0.30834 0.28081 0.0
C703 C 0.88807 0.29493 0.26638 0.0
C704 C 0.87551 0.28855 0.25061 0.0
C705 C 0.86019 0.29517 0.24951 0.0
C706 C 0.78862 0.27774 0.22643 0.0
C707 C 0.7742 0.31374 0.25954 0.0
C708 C 0.74275 0.24933 0.2576 0.0
C709 C 0.72616 0.25372 0.25143 0.0
C710 C 0.72607 0.2669 0.23984 0.0
C711 C 0.71037 0.2711 0.23384 0.0
C712 C 0.69445 0.26215 0.23928 0.0
C713 C 0.6946 0.24919 0.25116 0.0
C714 C 0.71039 0.245 0.2572 0.0
C715 C 0.79469 0.28763 0.29455 0.0
O716 O 0.81786 0.26858 0.26104 0.0
O717 O 0.79157 0.24748 0.26158 0.0
O718 O 0.83091 0.31162 0.24812 0.0
O719 O 0.83169 0.30994 0.27739 0.0
O720 O 0.79789 0.29494 0.22881 0.0
O721 O 0.79131 0.27091 0.24062 0.0
O722 O 0.7652 0.29584 0.2579 0.0
O723 O 0.79176 0.31765 0.26146 0.0
O724 O 0.75064 0.25852 0.27384 0.0
O725 O 0.75358 0.24863 0.24518 0.0
O726 O 0.78582 0.27027 0.29226 0.0
O727 O 0.79171 0.29412 0.28024 0.0
H728 H 0.86822 0.32533 0.291 0.0
H729 H 0.89496 0.31366 0.293 0.0
H730 H 0.87739 0.2782 0.23934 0.0
H731 H 0.85041 0.2896 0.23747 0.0
H732 H 0.73812 0.27384 0.23525 0.0
H733 H 0.71068 0.28132 0.2249 0.0
H734 H 0.68247 0.24197 0.25541 0.0
H735 H 0.71028 0.23486 0.26621 0.0
Ho736 Ho 0.04795 0.53618 0.52565 0.0
Ho737 Ho 0.02702 0.52928 0.4871 0.0
C738 C 0.01064 0.5049 0.5149 0.0
C739 C 0.05764 0.5407 0.56059 0.0
C740 C 0.04879 0.53267 0.57532 0.0
C741 C 0.03757 0.54181 0.58502 0.0
C742 C 0.02792 0.53334 0.59766 0.0
C743 C 0.0294 0.51563 0.60096 0.0
C744 C 0.041 0.50673 0.59168 0.0
C745 C 0.05062 0.51518 0.579 0.0
C746 C 0.05905 0.51423 0.49891 0.0
C747 C 0.0642 0.56064 0.49807 0.0
C748 C 0.01827 0.52438 0.45204 0.0
C749 C 0.02928 0.52876 0.43758 0.0
C750 C 0.04659 0.52644 0.43889 0.0
C751 C 0.05756 0.53204 0.42597 0.0
C752 C 0.0515 0.5403 0.41166 0.0
C753 C 0.0342 0.54277 0.41052 0.0
C754 C 0.02317 0.537 0.42338 0.0
C755 C 0.01554 0.55074 0.51376 0.0
O756 O 0.02194 0.517 0.52802 0.0
O757 O 0.01143 0.505 0.49716 0.0
O758 O 0.06256 0.52884 0.54827 0.0
O759 O 0.05051 0.55256 0.55315 0.0
O760 O 0.0696 0.52599 0.51225 0.0
O761 O 0.04328 0.51399 0.50101 0.0
O762 O 0.05346 0.54793 0.48495 0.0
O763 O 0.0628 0.56088 0.51575 0.0
O764 O 0.0166 0.53905 0.4635 0.0
O765 O 0.02124 0.51095 0.46041 0.0
O766 O 0.00521 0.53989 0.49971 0.0
O767 O 0.03139 0.55119 0.51184 0.0
H768 H 0.03604 0.55541 0.58269 0.0
H769 H 0.01943 0.54076 0.60499 0.0
H770 H 0.04243 0.49311 0.59401 0.0
H771 H 0.05926 0.50781 0.57186 0.0
H772 H 0.05173 0.52044 0.44997 0.0
H773 H 0.07069 0.52963 0.42708 0.0
H774 H 0.02923 0.54929 0.39978 0.0
H775 H 0.00997 0.53924 0.42243 0.0
Ho776 Ho 0.76945 0.78414 0.25725 0.0
Ho777 Ho 0.80972 0.77935 0.2619 0.0
C778 C 0.79152 0.79132 0.29824 0.0
C779 C 0.73554 0.77865 0.25541 0.0
C780 C 0.72118 0.77313 0.26646 0.0
C781 C 0.72325 0.76392 0.28136 0.0
C782 C 0.70951 0.75979 0.29212 0.0
C783 C 0.69352 0.76494 0.28824 0.0
C784 C 0.69167 0.77421 0.27328 0.0
C785 C 0.70531 0.77819 0.26252 0.0
C786 C 0.79362 0.81702 0.25469 0.0
C787 C 0.78741 0.7717 0.22088 0.0
C788 C 0.84362 0.78514 0.26294 0.0
C789 C 0.85737 0.78761 0.25032 0.0
C790 C 0.86508 0.80533 0.24649 0.0
C791 C 0.87908 0.80752 0.2358 0.0
C792 C 0.88576 0.79207 0.22886 0.0
C793 C 0.87773 0.77433 0.23236 0.0
C794 C 0.86381 0.77215 0.24299 0.0
C795 C 0.78573 0.7464 0.26456 0.0
O796 O 0.77595 0.78739 0.28797 0.0
O797 O 0.80645 0.79053 0.29129 0.0
O798 O 0.74652 0.79484 0.26199 0.0
O799 O 0.74342 0.76576 0.24857 0.0
O800 O 0.77666 0.81473 0.2534 0.0
O801 O 0.79621 0.8012 0.25684 0.0
O802 O 0.80304 0.77531 0.23098 0.0
O803 O 0.77263 0.77274 0.228 0.0
O804 O 0.83291 0.7685 0.26039 0.0
O805 O 0.8356 0.79866 0.26715 0.0
O806 O 0.80272 0.74888 0.26582 0.0
O807 O 0.78285 0.76208 0.26218 0.0
H808 H 0.73551 0.76009 0.28476 0.0
H809 H 0.7114 0.75252 0.30342 0.0
H810 H 0.6798 0.77882 0.27007 0.0
H811 H 0.70355 0.78554 0.25123 0.0
H812 H 0.86059 0.81759 0.25208 0.0
H813 H 0.88506 0.8214 0.2335 0.0
H814 H 0.88232 0.76207 0.227 0.0
H815 H 0.8583 0.75833 0.24575 0.0
Ho816 Ho 0.79196 0.27409 0.74736 0.0
Ho817 Ho 0.77843 0.28622 0.78119 0.0
C818 C 0.79851 0.31727 0.75935 0.0
C819 C 0.79818 0.26018 0.71499 0.0
C820 C 0.80102 0.26853 0.69855 0.0
C821 C 0.79204 0.28204 0.69463 0.0
C822 C 0.79623 0.29164 0.68035 0.0
C823 C 0.80966 0.28814 0.6699 0.0
C824 C 0.81837 0.27428 0.67357 0.0
C825 C 0.81407 0.26454 0.68785 0.0
C826 C 0.81558 0.27992 0.77804 0.0
C827 C 0.77001 0.24292 0.76772 0.0
C828 C 0.77412 0.301 0.81409 0.0
C829 C 0.77209 0.29338 0.831 0.0
C830 C 0.76627 0.27398 0.82993 0.0
C831 C 0.76663 0.26636 0.84591 0.0
C832 C 0.77289 0.27803 0.86323 0.0
C833 C 0.77807 0.29755 0.86432 0.0
C834 C 0.77769 0.30518 0.84826 0.0
C835 C 0.75456 0.2807 0.75072 0.0
O836 O 0.79534 0.30397 0.74458 0.0
O837 O 0.79512 0.3132 0.77559 0.0
O838 O 0.81047 0.26725 0.72897 0.0
O839 O 0.78235 0.25799 0.71989 0.0
O840 O 0.81917 0.2853 0.76274 0.0
O841 O 0.79952 0.27159 0.77646 0.0
O842 O 0.7726 0.25582 0.7828 0.0
O843 O 0.77477 0.24728 0.75202 0.0
O844 O 0.76121 0.29421 0.80065 0.0
O845 O 0.78955 0.30199 0.80844 0.0
O846 O 0.75091 0.27603 0.76632 0.0
O847 O 0.77072 0.2886 0.75215 0.0
H848 H 0.78206 0.28549 0.70286 0.0
H849 H 0.789 0.30193 0.67759 0.0
H850 H 0.82882 0.27136 0.66578 0.0
H851 H 0.82128 0.25432 0.69089 0.0
H852 H 0.76207 0.26463 0.81668 0.0
H853 H 0.76286 0.25125 0.84457 0.0
H854 H 0.78284 0.30686 0.87752 0.0
H855 H 0.78232 0.32019 0.84925 0.0
Ho856 Ho 0.80613 0.80587 0.76997 0.0
Ho857 Ho 0.78038 0.76919 0.75456 0.0
C858 C 0.76416 0.80247 0.7695 0.0
C859 C 0.82246 0.84081 0.77751 0.0
C860 C 0.81602 0.85762 0.77541 0.0
C861 C 0.81039 0.86062 0.75778 0.0
C862 C 0.80132 0.87448 0.75599 0.0
C863 C 0.79765 0.88555 0.77174 0.0
C864 C 0.80423 0.88335 0.78933 0.0
C865 C 0.81341 0.86955 0.79114 0.0
C866 C 0.80231 0.7816 0.79382 0.0
C867 C 0.82207 0.77239 0.75515 0.0
C868 C 0.76559 0.73399 0.74581 0.0
C869 C 0.77389 0.71809 0.74648 0.0
C870 C 0.78096 0.71486 0.76347 0.0
C871 C 0.79165 0.70223 0.76392 0.0
C872 C 0.79555 0.69262 0.74742 0.0
C873 C 0.78796 0.69527 0.73044 0.0
C874 C 0.77713 0.70781 0.72998 0.0
C875 C 0.78435 0.79367 0.73099 0.0
O876 O 0.7798 0.81346 0.76903 0.0
O877 O 0.7613 0.78404 0.7664 0.0
O878 O 0.81573 0.83167 0.78993 0.0
O879 O 0.8233 0.82958 0.76223 0.0
O880 O 0.81704 0.7931 0.79259 0.0
O881 O 0.79009 0.78427 0.78302 0.0
O882 O 0.80662 0.76169 0.75654 0.0
O883 O 0.82482 0.79075 0.75749 0.0
O884 O 0.77078 0.74422 0.73359 0.0
O885 O 0.76461 0.74419 0.7617 0.0
O886 O 0.76952 0.78234 0.73219 0.0
O887 O 0.79648 0.7907 0.74163 0.0
H888 H 0.81219 0.85171 0.74534 0.0
H889 H 0.79636 0.8758 0.74225 0.0
H890 H 0.8018 0.8919 0.8017 0.0
H891 H 0.81772 0.8676 0.80487 0.0
H892 H 0.77889 0.72264 0.77647 0.0
H893 H 0.79742 0.70054 0.77721 0.0
H894 H 0.79057 0.68782 0.71753 0.0
H895 H 0.77188 0.71006 0.7167 0.0
Ho896 Ho 0.51851 0.52062 0.50195 0.0
Ho897 Ho 0.55258 0.54587 0.5236 0.0
C898 C 0.52608 0.56546 0.50296 0.0
C899 C 0.48574 0.50325 0.49394 0.0
C900 C 0.46999 0.50895 0.49941 0.0
C901 C 0.47177 0.52677 0.51012 0.0
C902 C 0.45691 0.53295 0.51454 0.0
C903 C 0.43999 0.52145 0.5082 0.0
C904 C 0.43825 0.50337 0.49787 0.0
C905 C 0.45321 0.49717 0.49346 0.0
C906 C 0.54408 0.5211 0.47794 0.0
C907 C 0.54488 0.50102 0.52266 0.0
C908 C 0.58535 0.56307 0.53096 0.0
C909 C 0.6005 0.55703 0.52422 0.0
C910 C 0.59771 0.54264 0.5087 0.0
C911 C 0.61128 0.53431 0.50391 0.0
C912 C 0.62783 0.54004 0.51474 0.0
C913 C 0.63082 0.5551 0.5298 0.0
C914 C 0.61719 0.56352 0.53452 0.0
C915 C 0.5275 0.54502 0.54804 0.0
O916 O 0.51434 0.54919 0.49948 0.0
O917 O 0.54208 0.56744 0.51136 0.0
O918 O 0.49432 0.51343 0.48326 0.0
O919 O 0.49613 0.50027 0.50737 0.0
O920 O 0.52795 0.51128 0.47448 0.0
O921 O 0.54595 0.52964 0.4948 0.0
O922 O 0.55673 0.51724 0.52592 0.0
O923 O 0.52883 0.49906 0.51438 0.0
O924 O 0.57718 0.5525 0.54158 0.0
O925 O 0.57453 0.56689 0.51844 0.0
O926 O 0.54372 0.55457 0.55134 0.0
O927 O 0.52519 0.5366 0.53105 0.0
H928 H 0.48468 0.53602 0.51483 0.0
H929 H 0.45865 0.54682 0.52277 0.0
H930 H 0.42536 0.49429 0.4927 0.0
H931 H 0.45168 0.48339 0.48513 0.0
H932 H 0.58478 0.53721 0.50081 0.0
H933 H 0.60858 0.52288 0.49215 0.0
H934 H 0.64337 0.55966 0.53854 0.0
H935 H 0.61943 0.57443 0.54671 0.0
Ho936 Ho 0.06158 0.54111 0.01738 0.0
Ho937 Ho 0.02046 0.53343 0.01542 0.0
C938 C 0.03654 0.49841 0.00329 0.0
C939 C 0.09433 0.54043 0.02379 0.0
C940 C 0.1049 0.52628 0.02401 0.0
C941 C 0.10048 0.51114 0.03331 0.0
C942 C 0.11105 0.49821 0.03348 0.0
C943 C 0.12612 0.50011 0.02424 0.0
C944 C 0.13041 0.51531 0.01499 0.0
C945 C 0.11994 0.52822 0.01491 0.0
C946 C 0.04431 0.54847 0.98758 0.0
C947 C 0.04548 0.57607 0.02925 0.0
C948 C 0.98754 0.53361 0.00926 0.0
C949 C 0.97603 0.54685 0.00811 0.0
C950 C 0.97355 0.55456 0.99216 0.0
C951 C 0.9612 0.56544 0.99066 0.0
C952 C 0.95099 0.56874 0.00503 0.0
C953 C 0.9539 0.56149 0.02115 0.0
C954 C 0.96617 0.55062 0.02262 0.0
C955 C 0.03804 0.52676 0.04553 0.0
O956 O 0.05232 0.50937 0.01016 0.0
O957 O 0.02217 0.50489 1.00194 0.0
O958 O 0.08687 0.54155 0.00759 0.0
O959 O 0.08413 0.542 0.03676 0.0
O960 O 0.05983 0.55835 0.99515 0.0
O961 O 0.03942 0.53479 0.99546 0.0
O962 O 0.02984 0.56524 0.02158 0.0
O963 O 0.0596 0.5693 0.03154 0.0
O964 O 0.99553 0.53377 0.02563 0.0
O965 O 0.99744 0.53133 0.9961 0.0
O966 O 0.02261 0.51657 0.03806 0.0
O967 O 0.04264 0.54015 0.03727 0.0
H968 H 0.08891 0.50927 0.04045 0.0
H969 H 0.10731 0.48663 0.04066 0.0
H970 H 0.14209 0.51744 0.00804 0.0
H971 H 0.12368 0.53985 0.00777 0.0
H972 H 0.98081 0.55181 0.98063 0.0
H973 H 0.9592 0.57069 0.978 0.0
H974 H 0.9465 0.56401 0.03262 0.0
H975 H 0.96766 0.5448 0.03503 0.0
H976 H 0.01867 0.22696 0.95971 0.0
H977 H 0.02022 0.19942 0.97335 0.0
H978 H 0.98443 0.16387 0.92735 0.0
H979 H 0.98298 0.19137 0.91345 0.0
H980 H 0.97805 0.15396 0.96298 0.0
H981 H 0.02498 0.16565 0.92561 0.0
H982 H 0.05057 0.18493 0.91492 0.0
H983 H 0.07923 0.19589 0.96931 0.0
H984 H 0.05369 0.1769 0.98041 0.0
H985 H 0.99816 0.06737 0.97649 0.0
H986 H 0.99181 0.09425 0.96444 0.0
H987 H 0.03595 0.13107 1.00117 0.0
H988 H 0.0428 0.10418 0.01262 0.0
H989 H 0.037 0.14008 0.96947 0.0
H990 H 0.98993 0.12792 0.00706 0.0
H991 H 0.96435 0.10819 0.0174 0.0
H992 H 0.936 0.09775 0.96291 0.0
H993 H 0.9614 0.11727 0.95223 0.0
C994 C 0.0109 0.21333 0.9526 0.0
C995 C 1.00075 0.21139 0.93542 0.0
C996 C 0.01184 0.19758 0.96041 0.0
C997 C 0.00254 0.17954 0.95132 0.0
C998 C 0.99171 0.17763 0.93463 0.0
C999 C 0.99093 0.19338 0.92668 0.0
C1000 C 0.00517 0.16267 0.95862 0.0
C1001 C 0.99089 0.15079 0.96427 0.0
C1002 C 0.02196 0.15865 0.96053 0.0
C1003 C 0.03736 0.17003 0.95389 0.0
C1004 C 0.03668 0.17231 0.93533 0.0
C1005 C 0.05118 0.18316 0.92919 0.0
C1006 C 0.06649 0.19167 0.94144 0.0
C1007 C 0.06735 0.18931 0.95985 0.0
C1008 C 0.05287 0.1785 0.96607 0.0
C1009 C 0.00641 0.08122 0.98213 0.0
C1010 C 0.02101 0.08359 0.99552 0.0
C1011 C 0.00271 0.09665 0.97528 0.0
C1012 C 0.01325 0.11487 0.982 0.0
C1013 C 0.02761 0.11724 0.99566 0.0
C1014 C 0.03149 0.10181 1.00226 0.0
C1015 C 0.00995 0.13138 0.97428 0.0
C1016 C 0.02414 0.14321 0.96839 0.0
C1017 C 0.99308 0.13533 0.97225 0.0
C1018 C 0.97763 0.12395 0.97881 0.0
C1019 C 0.97825 0.12136 0.99728 0.0
C1020 C 0.96377 0.11023 0.00321 0.0
C1021 C 0.94854 0.1017 0.99083 0.0
C1022 C 0.94775 0.10437 0.97251 0.0
C1023 C 0.96218 0.1155 0.96652 0.0
H1024 H 0.93737 0.09304 0.99542 0.0
H1025 H 0.07771 0.20006 0.93666 0.0
H1026 H 0.1203 0.81793 0.17664 0.0
H1027 H 0.14684 0.8138 0.19339 0.0
H1028 H 0.1751 0.82358 0.147 0.0
H1029 H 0.14816 0.82694 0.12977 0.0
H1030 H 0.18402 0.79621 0.15957 0.0
H1031 H 0.18168 0.85715 0.18855 0.0
H1032 H 0.16862 0.88192 0.20373 0.0
H1033 H 0.15899 0.85253 0.24866 0.0
H1034 H 0.17177 0.82744 0.23363 0.0
H1035 H 0.26482 0.80182 0.21925 0.0
H1036 H 0.24234 0.80948 0.19844 0.0
H1037 H 0.20324 0.7923 0.23376 0.0
H1038 H 0.22544 0.7846 0.25438 0.0
H1039 H 0.20321 0.82709 0.22511 0.0
H1040 H 0.20415 0.76479 0.19312 0.0
H1041 H 0.21891 0.74167 0.17771 0.0
H1042 H 0.23367 0.77663 0.13802 0.0
H1043 H 0.21917 0.80008 0.15335 0.0
C1044 C 0.13219 0.81939 0.17002 0.0
C1045 C 0.13212 0.8229 0.15189 0.0
C1046 C 0.14744 0.8171 0.17968 0.0
C1047 C 0.1632 0.81873 0.17167 0.0
C1048 C 0.16319 0.82231 0.15356 0.0
C1049 C 0.1478 0.82433 0.14375 0.0
C1050 C 0.17939 0.81613 0.18213 0.0
C1051 C 0.18839 0.80326 0.1738 0.0
C1052 C 0.18523 0.82524 0.20073 0.0
C1053 C 0.17758 0.84034 0.20989 0.0
C1054 C 0.17667 0.85591 0.20161 0.0
C1055 C 0.16933 0.87001 0.2102 0.0
C1056 C 0.16295 0.86879 0.22713 0.0
C1057 C 0.16393 0.85346 0.23554 0.0
C1058 C 0.17124 0.8393 0.227 0.0
C1059 C 0.25138 0.79954 0.22244 0.0
C1060 C 0.2469 0.7927 0.23849 0.0
C1061 C 0.23856 0.80391 0.21056 0.0
C1062 C 0.22109 0.80153 0.21458 0.0
C1063 C 0.21663 0.79438 0.23043 0.0
C1064 C 0.22934 0.78992 0.24218 0.0
C1065 C 0.20737 0.80681 0.20272 0.0
C1066 C 0.19891 0.82025 0.21081 0.0
C1067 C 0.20228 0.79849 0.18385 0.0
C1068 C 0.21074 0.78426 0.17449 0.0
C1069 C 0.21065 0.7676 0.18118 0.0
C1070 C 0.21895 0.75443 0.17245 0.0
C1071 C 0.22727 0.7577 0.15693 0.0
C1072 C 0.22724 0.77412 0.15006 0.0
C1073 C 0.21897 0.78735 0.15875 0.0
H1074 H 0.2337 0.7475 0.1502 0.0
H1075 H 0.15727 0.87972 0.23376 0.0
H1076 H 0.54751 0.83556 0.42102 0.0
H1077 H 0.54819 0.86663 0.43853 0.0
H1078 H 0.49955 0.844 0.45866 0.0
H1079 H 0.49904 0.81261 0.44152 0.0
H1080 H 0.50132 0.87713 0.43965 0.0
H1081 H 0.53143 0.85645 0.48893 0.0
H1082 H 0.55415 0.8429 0.50291 0.0
H1083 H 0.59477 0.88708 0.49134 0.0
H1084 H 0.57229 0.90074 0.47702 0.0
H1085 H 0.50151 0.96712 0.48988 0.0
H1086 H 0.49871 0.93336 0.48084 0.0
H1087 H 0.5546 0.94371 0.4775 0.0
H1088 H 0.55754 0.97721 0.48778 0.0
H1089 H 0.54685 0.91477 0.4906 0.0
H1090 H 0.51963 0.93327 0.43799 0.0
H1091 H 0.49877 0.94713 0.42125 0.0
H1092 H 0.45522 0.90793 0.43529 0.0
H1093 H 0.47584 0.89399 0.4523 0.0
C1094 C 0.53713 0.83711 0.42946 0.0
C1095 C 0.52323 0.82163 0.42992 0.0
C1096 C 0.53754 0.85487 0.43945 0.0
C1097 C 0.52392 0.85761 0.44986 0.0
C1098 C 0.51021 0.84214 0.45073 0.0
C1099 C 0.50999 0.82423 0.44104 0.0
C1100 C 0.52355 0.8769 0.45871 0.0
C1101 C 0.51104 0.8853 0.45105 0.0
C1102 C 0.53662 0.88769 0.47311 0.0
C1103 C 0.55016 0.87952 0.48175 0.0
C1104 C 0.54521 0.86318 0.4892 0.0
C1105 C 0.55804 0.8555 0.49723 0.0
C1106 C 0.57589 0.8641 0.49797 0.0
C1107 C 0.58094 0.88042 0.49073 0.0
C1108 C 0.56815 0.88815 0.48268 0.0
C1109 C 0.51317 0.96214 0.4872 0.0
C1110 C 0.52971 0.97482 0.48939 0.0
C1111 C 0.51157 0.94282 0.48193 0.0
C1112 C 0.52637 0.93582 0.47802 0.0
C1113 C 0.54293 0.94857 0.4804 0.0
C1114 C 0.5446 0.9678 0.4862 0.0
C1115 C 0.52478 0.91535 0.47131 0.0
C1116 C 0.53695 0.90667 0.47933 0.0
C1117 C 0.51168 0.90442 0.45685 0.0
C1118 C 0.49927 0.91274 0.44659 0.0
C1119 C 0.5056 0.9277 0.4376 0.0
C1120 C 0.49382 0.93555 0.42806 0.0
C1121 C 0.47568 0.92845 0.42726 0.0
C1122 C 0.46928 0.91344 0.43596 0.0
C1123 C 0.481 0.90555 0.44554 0.0
H1124 H 0.46658 0.93455 0.41986 0.0
H1125 H 0.5858 0.85813 0.50419 0.0
H1126 H 0.51884 0.3168 0.64148 0.0
H1127 H 0.48974 0.31545 0.65179 0.0
H1128 H 0.49747 0.27361 0.68371 0.0
H1129 H 0.52632 0.27483 0.67357 0.0
H1130 H 0.46425 0.26463 0.66459 0.0
H1131 H 0.50386 0.31865 0.70446 0.0
H1132 H 0.52542 0.34929 0.71091 0.0
H1133 H 0.48804 0.37378 0.68394 0.0
H1134 H 0.46633 0.3432 0.67712 0.0
H1135 H 0.4039 0.2669 0.73036 0.0
H1136 H 0.42941 0.26749 0.71346 0.0
H1137 H 0.41856 0.3138 0.68991 0.0
H1138 H 0.39326 0.31347 0.70706 0.0
H1139 H 0.45191 0.3211 0.70149 0.0
H1140 H 0.41114 0.26841 0.66402 0.0
H1141 H 0.38922 0.23802 0.65716 0.0
H1142 H 0.42779 0.21113 0.67805 0.0
H1143 H 0.44988 0.24141 0.68532 0.0
C1144 C 0.5143 0.30727 0.65064 0.0
C1145 C 0.525 0.29602 0.65677 0.0
C1146 C 0.49769 0.30654 0.65655 0.0
C1147 C 0.49146 0.29449 0.66861 0.0
C1148 C 0.50196 0.28299 0.67439 0.0
C1149 C 0.51854 0.2838 0.66863 0.0
C1150 C 0.47426 0.29406 0.67575 0.0
C1151 C 0.46156 0.27694 0.67274 0.0
C1152 C 0.47054 0.31023 0.68595 0.0
C1153 C 0.48356 0.3286 0.6901 0.0
C1154 C 0.5003 0.33053 0.69978 0.0
C1155 C 0.51253 0.34789 0.70352 0.0
C1156 C 0.50812 0.36346 0.69778 0.0
C1157 C 0.49145 0.36171 0.68834 0.0
C1158 C 0.47917 0.34437 0.68454 0.0
C1159 C 0.40681 0.27701 0.72136 0.0
C1160 C 0.39658 0.29015 0.72008 0.0
C1161 C 0.42139 0.27734 0.71167 0.0
C1162 C 0.42588 0.29059 0.70022 0.0
C1163 C 0.41545 0.30348 0.69867 0.0
C1164 C 0.40098 0.30328 0.70848 0.0
C1165 C 0.44188 0.29156 0.69057 0.0
C1166 C 0.4544 0.30879 0.69313 0.0
C1167 C 0.44535 0.27551 0.67981 0.0
C1168 C 0.43214 0.25723 0.67535 0.0
C1169 C 0.41492 0.25604 0.66727 0.0
C1170 C 0.40247 0.23883 0.66329 0.0
C1171 C 0.40711 0.22266 0.6672 0.0
C1172 C 0.42422 0.22367 0.67505 0.0
C1173 C 0.43672 0.24085 0.67909 0.0
H1174 H 0.39745 0.20935 0.66411 0.0
H1175 H 0.5176 0.37688 0.7007 0.0
H1176 H 0.97676 0.7762 0.58662 0.0
H1177 H 0.97656 0.80151 0.56931 0.0
H1178 H 0.96882 0.83726 0.61841 0.0
H1179 H 0.96909 0.81205 0.63588 0.0
H1180 H 0.95471 0.82482 0.56149 0.0
H1181 H 0.99788 0.87993 0.62081 0.0
H1182 H 0.01817 0.88169 0.64885 0.0
H1183 H 0.03141 0.83108 0.62417 0.0
H1184 H 0.0114 0.82919 0.59591 0.0
H1185 H 0.97417 0.91737 0.53652 0.0
H1186 H 0.96474 0.89187 0.55362 0.0
H1187 H 0.01413 0.87629 0.54868 0.0
H1188 H 0.0235 0.9015 0.53161 0.0
H1189 H 0.0052 0.87961 0.58447 0.0
H1190 H 0.97927 0.85193 0.5219 0.0
H1191 H 0.96023 0.84884 0.49269 0.0
H1192 H 0.91461 0.84231 0.52136 0.0
H1193 H 0.93344 0.84598 0.55086 0.0
C1194 C 0.97461 0.7893 0.59365 0.0
C1195 C 0.97317 0.7922 0.61268 0.0
C1196 C 0.97443 0.80373 0.58371 0.0
C1197 C 0.97293 0.82133 0.59265 0.0
C1198 C 0.97018 0.82383 0.61131 0.0
C1199 C 0.97031 0.80939 0.62126 0.0
C1200 C 0.97631 0.83753 0.58302 0.0
C1201 C 0.9656 0.83692 0.56659 0.0
C1202 C 0.9907 0.85317 0.58957 0.0
C1203 C 0.00298 0.85431 0.60637 0.0
C1204 C 0.00516 0.86922 0.62137 0.0
C1205 C 0.01661 0.87024 0.63729 0.0
C1206 C 0.02602 0.85646 0.63832 0.0
C1207 C 0.02406 0.84169 0.62339 0.0
C1208 C 0.01266 0.84064 0.60742 0.0
C1209 C 0.98296 0.90845 0.53911 0.0
C1210 C 0.99952 0.9113 0.53269 0.0
C1211 C 0.97755 0.8939 0.54879 0.0
C1212 C 0.98875 0.88221 0.55237 0.0
C1213 C 0.0053 0.88517 0.54606 0.0
C1214 C 0.01059 0.89948 0.53621 0.0
C1215 C 0.98356 0.86698 0.56292 0.0
C1216 C 0.99402 0.86775 0.57954 0.0
C1217 C 0.96908 0.85143 0.55638 0.0
C1218 C 0.95781 0.84955 0.53866 0.0
C1219 C 0.96521 0.85015 0.52204 0.0
C1220 C 0.95445 0.84826 0.50541 0.0
C1221 C 0.93623 0.84548 0.50518 0.0
C1222 C 0.92874 0.84454 0.52157 0.0
C1223 C 0.93945 0.84659 0.53826 0.0
H1224 H 0.92791 0.84399 0.49228 0.0
H1225 H 0.03486 0.85726 0.65067 0.0
H1226 H 0.54803 0.7853 0.81139 0.0
H1227 H 0.51714 0.77626 0.7977 0.0
H1228 H 0.50155 0.7936 0.85113 0.0
H1229 H 0.53228 0.80148 0.865 0.0
H1230 H 0.47712 0.76599 0.8333 0.0
H1231 H 0.51032 0.82373 0.81825 0.0
H1232 H 0.5342 0.8431 0.8052 0.0
H1233 H 0.51659 0.80819 0.75166 0.0
H1234 H 0.49272 0.78849 0.76447 0.0
H1235 H 0.41549 0.82123 0.81388 0.0
H1236 H 0.44312 0.81198 0.82076 0.0
H1237 H 0.42755 0.76593 0.77438 0.0
H1238 H 0.39951 0.77473 0.76786 0.0
H1239 H 0.46571 0.80044 0.78314 0.0
H1240 H 0.42761 0.74673 0.80049 0.0
H1241 H 0.40305 0.73238 0.81617 0.0
H1242 H 0.42988 0.76437 0.86848 0.0
H1243 H 0.45432 0.77945 0.85302 0.0
C1244 C 0.53793 0.78684 0.82022 0.0
C1245 C 0.54246 0.79434 0.83916 0.0
C1246 C 0.52032 0.7817 0.8124 0.0
C1247 C 0.50706 0.78473 0.82329 0.0
C1248 C 0.51153 0.79117 0.84243 0.0
C1249 C 0.5291 0.79578 0.85034 0.0
C1250 C 0.4889 0.78318 0.81466 0.0
C1251 C 0.47464 0.77339 0.82222 0.0
C1252 C 0.4856 0.79268 0.80006 0.0
C1253 C 0.49991 0.80451 0.79235 0.0
C1254 C 0.51163 0.82013 0.80372 0.0
C1255 C 0.52514 0.83117 0.79637 0.0
C1256 C 0.52695 0.82684 0.77763 0.0
C1257 C 0.51521 0.81149 0.76619 0.0
C1258 C 0.50168 0.80039 0.77348 0.0
C1259 C 0.418 0.80911 0.80524 0.0
C1260 C 0.40558 0.79867 0.79036 0.0
C1261 C 0.43363 0.8038 0.80921 0.0
C1262 C 0.43712 0.78818 0.79818 0.0
C1263 C 0.42486 0.77786 0.78313 0.0
C1264 C 0.40899 0.78292 0.77941 0.0
C1265 C 0.45417 0.78361 0.80202 0.0
C1266 C 0.46822 0.79242 0.79369 0.0
C1267 C 0.45727 0.77364 0.81618 0.0
C1268 C 0.4427 0.76439 0.82554 0.0
C1269 C 0.42817 0.75091 0.81529 0.0
C1270 C 0.41428 0.74261 0.82415 0.0
C1271 C 0.41491 0.74745 0.8433 0.0
C1272 C 0.42941 0.76064 0.85364 0.0
C1273 C 0.44327 0.76909 0.84483 0.0
H1274 H 0.40417 0.74096 0.85014 0.0
H1275 H 0.53742 0.8354 0.77196 0.0
H1276 H 0.49706 0.1732 0.14261 0.0
H1277 H 0.49641 0.1431 0.12328 0.0
H1278 H 0.49383 0.16801 0.07457 0.0
H1279 H 0.49361 0.19796 0.09382 0.0
H1280 H 0.47414 0.1341 0.06697 0.0
H1281 H 0.53359 0.16237 0.09699 0.0
H1282 H 0.55661 0.17595 0.12363 0.0
H1283 H 0.54391 0.12476 0.14471 0.0
H1284 H 0.52067 0.11096 0.1183 0.0
H1285 H 0.53731 0.07783 0.02507 0.0
H1286 H 0.53119 0.10286 0.04736 0.0
H1287 H 0.4787 0.06925 0.04736 0.0
H1288 H 0.48469 0.04437 0.02447 0.0
H1289 H 0.52366 0.10507 0.08109 0.0
H1290 H 0.45127 0.09832 0.05495 0.0
H1291 H 0.43046 0.08625 0.02627 0.0
H1292 H 0.47304 0.09781 0.99384 0.0
H1293 H 0.49404 0.11012 0.02233 0.0
C1294 C 0.49624 0.17221 0.12776 0.0
C1295 C 0.4956 0.18795 0.1197 0.0
C1296 C 0.4959 0.15502 0.11674 0.0
C1297 C 0.49545 0.15338 0.0975 0.0
C1298 C 0.4942 0.16894 0.08938 0.0
C1299 C 0.49415 0.18606 0.10038 0.0
C1300 C 0.49721 0.13582 0.08591 0.0
C1301 C 0.48493 0.12771 0.07012 0.0
C1302 C 0.51129 0.12745 0.08994 0.0
C1303 C 0.52527 0.13573 0.1058 0.0
C1304 C 0.53563 0.15407 0.10738 0.0
C1305 C 0.54873 0.16179 0.12242 0.0
C1306 C 0.55168 0.15125 0.13588 0.0
C1307 C 0.54158 0.13293 0.1343 0.0
C1308 C 0.52845 0.12515 0.1193 0.0
C1309 C 0.52444 0.07586 0.02978 0.0
C1310 C 0.51136 0.05939 0.02294 0.0
C1311 C 0.52099 0.09008 0.04258 0.0
C1312 C 0.50444 0.08801 0.0489 0.0
C1313 C 0.49144 0.0713 0.0424 0.0
C1314 C 0.49483 0.05715 0.02932 0.0
C1315 C 0.5009 0.10369 0.06193 0.0
C1316 C 0.51275 0.11133 0.07808 0.0
C1317 C 0.48674 0.11191 0.05795 0.0
C1318 C 0.4742 0.10496 0.04075 0.0
C1319 C 0.45615 0.09835 0.04169 0.0
C1320 C 0.44434 0.09145 0.02548 0.0
C1321 C 0.45043 0.09121 0.00825 0.0
C1322 C 0.46834 0.09795 0.00719 0.0
C1323 C 0.4802 0.10488 0.02336 0.0
H1324 H 0.44128 0.08584 0.99571 0.0
H1325 H 0.56183 0.15725 0.14752 0.0
H1326 H 0.13176 0.28957 0.34141 0.0
H1327 H 0.1606 0.29289 0.33089 0.0
H1328 H 0.18319 0.33656 0.37819 0.0
H1329 H 0.15401 0.33318 0.38902 0.0
H1330 H 0.19134 0.34492 0.34157 0.0
H1331 H 0.19764 0.30009 0.37949 0.0
H1332 H 0.18819 0.27202 0.39328 0.0
H1333 H 0.17731 0.23721 0.3393 0.0
H1334 H 0.18647 0.2651 0.32518 0.0
H1335 H 0.26929 0.33071 0.29768 0.0
H1336 H 0.249 0.33853 0.31945 0.0
H1337 H 0.20894 0.29006 0.29129 0.0
H1338 H 0.22918 0.282 0.2699 0.0
H1339 H 0.21662 0.28954 0.32765 0.0
H1340 H 0.20594 0.33539 0.28986 0.0
H1341 H 0.21578 0.36339 0.27605 0.0
H1342 H 0.23522 0.39659 0.33004 0.0
H1343 H 0.22566 0.36873 0.34416 0.0
C1344 C 0.14287 0.29975 0.34971 0.0
C1345 C 0.1407 0.31112 0.366 0.0
C1346 C 0.15933 0.30161 0.34371 0.0
C1347 C 0.17395 0.31492 0.35382 0.0
C1348 C 0.17199 0.3262 0.37027 0.0
C1349 C 0.15542 0.32417 0.37647 0.0
C1350 C 0.19092 0.31702 0.34635 0.0
C1351 C 0.19728 0.33307 0.33893 0.0
C1352 C 0.19851 0.30151 0.34292 0.0
C1353 C 0.19281 0.28468 0.3513 0.0
C1354 C 0.19315 0.28645 0.37056 0.0
C1355 C 0.18785 0.27057 0.37844 0.0
C1356 C 0.18217 0.25284 0.36718 0.0
C1357 C 0.18173 0.25095 0.34801 0.0
C1358 C 0.187 0.26679 0.34007 0.0
C1359 C 0.25595 0.32212 0.2958 0.0
C1360 C 0.25077 0.30567 0.28226 0.0
C1361 C 0.24443 0.32655 0.30828 0.0
C1362 C 0.22759 0.31471 0.30709 0.0
C1363 C 0.22198 0.29923 0.29255 0.0
C1364 C 0.23349 0.29469 0.28029 0.0
C1365 C 0.21629 0.31694 0.32184 0.0
C1366 C 0.21112 0.30167 0.33071 0.0
C1367 C 0.2099 0.33319 0.32656 0.0
C1368 C 0.21531 0.34994 0.31804 0.0
C1369 C 0.21242 0.34863 0.29877 0.0
C1370 C 0.21792 0.36448 0.29089 0.0
C1371 C 0.22622 0.38172 0.30216 0.0
C1372 C 0.22886 0.3832 0.32133 0.0
C1373 C 0.22339 0.3674 0.32928 0.0
H1374 H 0.23061 0.39393 0.29604 0.0
H1375 H 0.1781 0.24056 0.3733 0.0
H1376 H 0.91908 0.04763 0.17791 0.0
H1377 H 0.93291 0.04542 0.1493 0.0
H1378 H 0.98361 0.05464 0.18129 0.0
H1379 H 0.96978 0.05681 0.20989 0.0
H1380 H 0.95504 0.06678 0.13278 0.0
H1381 H 0.01265 0.03573 0.15608 0.0
H1382 H 0.01967 0.01546 0.17756 0.0
H1383 H 0.96467 0.98939 0.17469 0.0
H1384 H 0.95734 0.00933 0.15302 0.0
H1385 H 0.02367 0.07588 0.07257 0.0
H1386 H 0.00662 0.07567 0.0988 0.0
H1387 H 0.98471 0.01643 0.08089 0.0
H1388 H 1.00141 0.01677 0.05393 0.0
H1389 H 0.99718 0.02687 0.12088 0.0
H1390 H 0.95661 0.04331 0.07812 0.0
H1391 H 0.94648 0.06085 0.0555 0.0
H1392 H 0.96436 0.1122 0.09508 0.0
H1393 H 0.97442 0.0949 0.11809 0.0
C1394 C 0.9332 0.0492 0.17899 0.0
C1395 C 0.94308 0.05239 0.19669 0.0
C1396 C 0.94123 0.04796 0.16238 0.0
C1397 C 0.95957 0.04958 0.16246 0.0
C1398 C 0.96947 0.05292 0.18019 0.0
C1399 C 0.96146 0.0543 0.19682 0.0
C1400 C 0.96817 0.04789 0.14425 0.0
C1401 C 0.9643 0.05806 0.13044 0.0
C1402 C 0.98019 0.03633 0.14022 0.0
C1403 C 0.98445 0.02416 0.15309 0.0
C1404 C 0.00206 0.02563 0.15999 0.0
C1405 C 0.00609 0.01421 0.17221 0.0
C1406 C 0.99262 1.00119 0.17753 0.0
C1407 C 0.97509 0.99953 0.17061 0.0
C1408 C 0.97099 0.0109 0.15838 0.0
C1409 C 0.01493 0.06278 0.07383 0.0
C1410 C 0.01393 0.04643 0.06055 0.0
C1411 C 0.00514 0.06267 0.08912 0.0
C1412 C 0.99413 0.04605 0.09241 0.0
C1413 C 0.99297 0.02959 0.0791 0.0
C1414 C 0.00246 0.02981 0.06339 0.0
C1415 C 0.98437 0.04613 0.10977 0.0
C1416 C 0.98802 0.03568 0.12338 0.0
C1417 C 0.97207 0.05732 0.11358 0.0
C1418 C 0.96643 0.06785 0.09975 0.0
C1419 C 0.95852 0.05837 0.08195 0.0
C1420 C 0.95275 0.06825 0.06907 0.0
C1421 C 0.9549 0.08764 0.07377 0.0
C1422 C 0.96274 0.09718 0.09144 0.0
C1423 C 0.96841 0.08733 0.10444 0.0
H1424 H 0.95042 0.09526 0.06375 0.0
H1425 H 0.99577 0.99238 0.187 0.0
H1426 H 0.29502 0.65479 0.45795 0.0
H1427 H 0.29796 0.67646 0.4363 0.0
H1428 H 0.31136 0.72341 0.48193 0.0
H1429 H 0.30808 0.7018 0.50369 0.0
H1430 H 0.28426 0.72559 0.45902 0.0
H1431 H 0.34137 0.71468 0.45236 0.0
H1432 H 0.36333 0.69595 0.447 0.0
H1433 H 0.336 0.67076 0.39283 0.0
H1434 H 0.31372 0.68913 0.39796 0.0
H1435 H 0.2982 0.79219 0.3977 0.0
H1436 H 0.3016 0.77411 0.42217 0.0
H1437 H 0.28396 0.72263 0.38216 0.0
H1438 H 0.28007 0.74046 0.35781 0.0
H1439 H 0.31567 0.72518 0.40364 0.0
H1440 H 0.2575 0.73318 0.411 0.0
H1441 H 0.23465 0.75083 0.41585 0.0
H1442 H 0.26334 0.78048 0.46823 0.0
H1443 H 0.28651 0.76318 0.46356 0.0
C1444 C 0.29909 0.66972 0.46339 0.0
C1445 C 0.30113 0.67661 0.4825 0.0
C1446 C 0.3008 0.6821 0.45099 0.0
C1447 C 0.30483 0.70155 0.45753 0.0
C1448 C 0.30815 0.70844 0.47663 0.0
C1449 C 0.30634 0.69608 0.48903 0.0
C1450 C 0.30347 0.71447 0.44452 0.0
C1451 C 0.29145 0.72583 0.44714 0.0
C1452 C 0.31242 0.7143 0.42873 0.0
C1453 C 0.32579 0.7032 0.42561 0.0
C1454 C 0.33996 0.70503 0.43937 0.0
C1455 C 0.35248 0.6945 0.43636 0.0
C1456 C 0.35104 0.68215 0.4196 0.0
C1457 C 0.33709 0.68033 0.40581 0.0
C1458 C 0.32452 0.69082 0.40875 0.0
C1459 C 0.29473 0.77702 0.39421 0.0
C1460 C 0.28908 0.76774 0.37582 0.0
C1461 C 0.29676 0.76674 0.40815 0.0
C1462 C 0.29317 0.74709 0.40386 0.0
C1463 C 0.28698 0.7378 0.38566 0.0
C1464 C 0.28483 0.74802 0.37178 0.0
C1465 C 0.29645 0.73612 0.41815 0.0
C1466 C 0.30874 0.72512 0.41571 0.0
C1467 C 0.28769 0.73652 0.43404 0.0
C1468 C 0.27386 0.74707 0.43681 0.0
C1469 C 0.25904 0.74362 0.42345 0.0
C1470 C 0.246 0.75352 0.4262 0.0
C1471 C 0.24757 0.76682 0.44231 0.0
C1472 C 0.26216 0.7702 0.45574 0.0
C1473 C 0.27525 0.76035 0.45305 0.0
H1474 H 0.23746 0.77446 0.44442 0.0
H1475 H 0.36075 0.67401 0.4173 0.0
H1476 H 0.62953 0.99507 0.66183 0.0
H1477 H 0.61009 0.99555 0.63431 0.0
H1478 H 0.56845 1.00104 0.66766 0.0
H1479 H 0.58781 1.00059 0.6953 0.0
H1480 H 0.57653 0.97563 0.61631 0.0
H1481 H 0.55199 0.0368 0.65424 0.0
H1482 H 0.56104 0.06172 0.68205 0.0
H1483 H 0.61536 0.06209 0.6781 0.0
H1484 H 0.60664 0.03743 0.65011 0.0
H1485 H 0.51453 0.99873 0.55291 0.0
H1486 H 0.52809 0.99118 0.58097 0.0
H1487 H 0.57083 0.04022 0.58583 0.0
H1488 H 0.55702 0.04812 0.55821 0.0
H1489 H 0.56068 0.03685 0.61851 0.0
H1490 H 0.57451 0.99575 0.56705 0.0
H1491 H 0.56719 0.97144 0.53864 0.0
H1492 H 0.53793 0.93238 0.56806 0.0
H1493 H 0.54481 0.95647 0.59654 0.0
C1494 C 0.61612 0.99601 0.66326 0.0
C1495 C 0.61026 0.99807 0.68073 0.0
C1496 C 0.60501 0.99616 0.64751 0.0
C1497 C 0.58794 0.99854 0.64904 0.0
C1498 C 0.58165 0.99932 0.66627 0.0
C1499 C 0.59272 0.99905 0.68202 0.0
C1500 C 0.57762 1.00245 0.63307 0.0
C1501 C 0.5729 0.98892 0.61678 0.0
C1502 C 0.57321 0.01994 0.63369 0.0
C1503 C 0.57863 0.03512 0.65024 0.0
C1504 C 0.56586 0.04227 0.65928 0.0
C1505 C 0.57093 0.05634 0.67507 0.0
C1506 C 0.58876 0.06343 0.68188 0.0
C1507 C 0.60156 0.05654 0.67285 0.0
C1508 C 0.59655 0.04251 0.65703 0.0
C1509 C 0.52674 0.00795 0.56009 0.0
C1510 C 0.53489 0.02387 0.55334 0.0
C1511 C 0.53451 1.00357 0.57602 0.0
C1512 C 0.55061 0.01497 0.5853 0.0
C1513 C 0.55845 0.03119 0.57884 0.0
C1514 C 0.55062 0.03563 0.56302 0.0
C1515 C 0.5595 0.01001 0.60162 0.0
C1516 C 0.56402 0.02341 0.61804 0.0
C1517 C 0.56398 0.99251 0.60097 0.0
C1518 C 0.56002 0.97798 0.58387 0.0
C1519 C 0.56641 0.98201 0.56741 0.0
C1520 C 0.56236 0.96829 0.55131 0.0
C1521 C 0.55208 0.95043 0.55155 0.0
C1522 C 0.54587 0.94623 0.56789 0.0
C1523 C 0.54984 0.95991 0.58402 0.0
H1524 H 0.54895 0.93984 0.53906 0.0
H1525 H 0.59266 0.07429 0.69413 0.0
H1526 H 0.29506 0.39082 0.95712 0.0
H1527 H 0.29338 0.37245 0.92643 0.0
H1528 H 0.28761 0.32196 0.94927 0.0
H1529 H 0.2898 0.34054 0.98047 0.0
H1530 H 0.30842 0.32087 0.92286 0.0
H1531 H 0.25168 0.33265 0.9267 0.0
H1532 H 0.2299 0.35138 0.93318 0.0
H1533 H 0.24734 0.38381 0.8923 0.0
H1534 H 0.2694 0.36545 0.88576 0.0
H1535 H 0.25993 0.28729 0.82018 0.0
H1536 H 0.25978 0.29721 0.85329 0.0
H1537 H 0.31602 0.31974 0.85998 0.0
H1538 H 0.31634 0.30937 0.82695 0.0
H1539 H 0.26659 0.33002 0.87281 0.0
H1540 H 0.33459 0.32105 0.90329 0.0
H1541 H 0.35397 0.29938 0.89729 0.0
H1542 H 0.30949 0.25561 0.87017 0.0
H1543 H 0.28982 0.27692 0.87623 0.0
C1544 C 0.29342 0.3758 0.95573 0.0
C1545 C 0.29237 0.36715 0.97133 0.0
C1546 C 0.29239 0.36527 0.93808 0.0
C1547 C 0.28995 0.34572 0.93539 0.0
C1548 C 0.28937 0.33701 0.95095 0.0
C1549 C 0.29059 0.34764 0.96878 0.0
C1550 C 0.28791 0.33464 0.91626 0.0
C1551 C 0.29922 0.3228 0.91192 0.0
C1552 C 0.27559 0.33669 0.902 0.0
C1553 C 0.26228 0.34774 0.90583 0.0
C1554 C 0.25095 0.34386 0.91918 0.0
C1555 C 0.23854 0.3544 0.92285 0.0
C1556 C 0.23726 0.36879 0.91318 0.0
C1557 C 0.24835 0.37266 0.89979 0.0
C1558 C 0.2608 0.36217 0.89607 0.0
C1559 C 0.27232 0.29414 0.8287 0.0
C1560 C 0.28815 0.29752 0.82082 0.0
C1561 C 0.2722 0.29986 0.84768 0.0
C1562 C 0.28789 0.30915 0.85928 0.0
C1563 C 0.30376 0.31228 0.85149 0.0
C1564 C 0.30391 0.30641 0.83252 0.0
C1565 C 0.28748 0.31667 0.87921 0.0
C1566 C 0.2757 0.3279 0.88372 0.0
C1567 C 0.29904 0.31362 0.89364 0.0
C1568 C 0.31076 0.30065 0.89008 0.0
C1569 C 0.32894 0.30678 0.89612 0.0
C1570 C 0.33997 0.29456 0.89269 0.0
C1571 C 0.33297 0.27615 0.88331 0.0
C1572 C 0.31491 0.2699 0.87738 0.0
C1573 C 0.30381 0.28205 0.88078 0.0
H1574 H 0.34154 0.26672 0.88066 0.0
H1575 H 0.22764 0.37694 0.91604 0.0
H1576 H 0.9746 0.03642 0.30432 0.0
H1577 H 0.98572 0.03523 0.33562 0.0
H1578 H 0.94714 0.0632 0.35672 0.0
H1579 H 0.93565 0.06446 0.32473 0.0
H1580 H 0.97939 0.07604 0.38034 0.0
H1581 H 0.94247 0.01528 0.35488 0.0
H1582 H 0.93135 0.98617 0.33174 0.0
H1583 H 0.98225 0.97384 0.33733 0.0
H1584 H 0.99375 1.00302 0.36032 0.0
H1585 H 0.00159 0.05681 0.47097 0.0
H1586 H 0.98717 0.06016 0.44149 0.0
H1587 H 0.01238 0.02021 0.4127 0.0
H1588 H 0.02548 0.01562 0.44244 0.0
H1589 H 0.98457 0.01406 0.39338 0.0
H1590 H 0.02269 0.07707 0.41502 0.0
H1591 H 0.03401 0.10553 0.43903 0.0
H1592 H 0.98144 0.11275 0.44153 0.0
H1593 H 0.96991 0.08463 0.4172 0.0
C1594 C 0.96827 0.04247 0.31542 0.0
C1595 C 0.95391 0.0505 0.31136 0.0
C1596 C 0.97476 0.04166 0.33365 0.0
C1597 C 0.96733 0.04879 0.34911 0.0
C1598 C 0.95331 0.05742 0.34535 0.0
C1599 C 0.94665 0.05816 0.32686 0.0
C1600 C 0.97415 0.04662 0.36871 0.0
C1601 C 0.98027 0.06239 0.38313 0.0
C1602 C 0.97589 0.02903 0.37295 0.0
C1603 C 0.969 0.01142 0.35922 0.0
C1604 C 0.95133 0.00642 0.35108 0.0
C1605 C 0.94495 0.9899 0.33801 0.0
C1606 C 0.9561 0.97818 0.33304 0.0
C1607 C 0.97363 0.98294 0.34118 0.0
C1608 C 0.98008 0.99946 0.35425 0.0
C1609 C 0.00417 0.04874 0.45838 0.0
C1610 C 0.01497 0.03597 0.45948 0.0
C1611 C 0.996 0.05089 0.44118 0.0
C1612 C 0.99882 0.04104 0.42401 0.0
C1613 C 0.00966 0.02824 0.42522 0.0
C1614 C 0.01735 0.02563 0.44247 0.0
C1615 C 0.99034 0.04353 0.40506 0.0
C1616 C 0.98384 0.02777 0.39068 0.0
C1617 C 0.98841 0.06114 0.40084 0.0
C1618 C 0.99546 0.07875 0.4144 0.0
C1619 C 0.0136 0.08486 0.4206 0.0
C1620 C 0.02004 0.10093 0.43424 0.0
C1621 C 0.00844 0.11092 0.44184 0.0
C1622 C 0.99041 0.10502 0.43562 0.0
C1623 C 0.98394 0.08914 0.42177 0.0
H1624 H 0.01341 0.12328 0.45249 0.0
H1625 H 0.95114 0.9654 0.32292 0.0
H1626 H 0.25428 0.65031 0.59371 0.0
H1627 H 0.25608 0.67497 0.62052 0.0
H1628 H 0.28771 0.71527 0.59356 0.0
H1629 H 0.28635 0.69068 0.56693 0.0
H1630 H 0.30133 0.71946 0.62807 0.0
H1631 H 0.24414 0.71426 0.59707 0.0
H1632 H 0.21424 0.69811 0.58175 0.0
H1633 H 0.2007 0.67992 0.63201 0.0
H1634 H 0.23062 0.69571 0.64756 0.0
H1635 H 0.29636 0.79587 0.69762 0.0
H1636 H 0.28978 0.7762 0.6666 0.0
H1637 H 0.26749 0.72812 0.68999 0.0
H1638 H 0.27455 0.74738 0.72086 0.0
H1639 H 0.24825 0.73102 0.65528 0.0
H1640 H 0.30694 0.73231 0.68399 0.0
H1641 H 0.33684 0.74856 0.69927 0.0
H1642 H 0.34706 0.77482 0.65239 0.0
H1643 H 0.31709 0.75889 0.63694 0.0
C1644 C 0.26163 0.66442 0.59349 0.0
C1645 C 0.27017 0.66852 0.57819 0.0
C1646 C 0.26254 0.67852 0.60876 0.0
C1647 C 0.2718 0.69702 0.6089 0.0
C1648 C 0.28045 0.70111 0.59371 0.0
C1649 C 0.27966 0.68701 0.57851 0.0
C1650 C 0.27293 0.71199 0.62513 0.0
C1651 C 0.28969 0.72222 0.63376 0.0
C1652 C 0.25775 0.71547 0.6327 0.0
C1653 C 0.23968 0.70606 0.62344 0.0
C1654 C 0.23483 0.70671 0.60482 0.0
C1655 C 0.21787 0.69763 0.5961 0.0
C1656 C 0.20559 0.68797 0.60589 0.0
C1657 C 0.21023 0.6874 0.62444 0.0
C1658 C 0.22719 0.69643 0.63322 0.0
C1659 C 0.28976 0.78119 0.69605 0.0
C1660 C 0.28587 0.77315 0.71159 0.0
C1661 C 0.286 0.77001 0.67839 0.0
C1662 C 0.27814 0.75077 0.67611 0.0
C1663 C 0.27339 0.74299 0.6915 0.0
C1664 C 0.27741 0.75403 0.70912 0.0
C1665 C 0.27658 0.73822 0.65812 0.0
C1666 C 0.2598 0.72842 0.64926 0.0
C1667 C 0.2917 0.73518 0.65024 0.0
C1668 C 0.30973 0.74461 0.65942 0.0
C1669 C 0.31552 0.74168 0.67702 0.0
C1670 C 0.33248 0.7508 0.6857 0.0
C1671 C 0.34382 0.76277 0.67683 0.0
C1672 C 0.33824 0.76558 0.65925 0.0
C1673 C 0.32128 0.7565 0.65053 0.0
H1674 H 0.35695 0.76982 0.68357 0.0
H1675 H 0.19247 0.68095 0.59911 0.0
H1676 H 0.65163 0.02219 0.7943 0.0
H1677 H 0.65243 0.02673 0.82796 0.0
H1678 H 0.60435 0.04563 0.82367 0.0
H1679 H 0.60357 0.04144 0.79025 0.0
H1680 H 0.62789 0.06674 0.85299 0.0
H1681 H 0.60482 0.99886 0.82543 0.0
H1682 H 0.6085 0.96865 0.80888 0.0
H1683 H 0.65348 0.97218 0.84798 0.0
H1684 H 0.6501 1.00249 0.86465 0.0
H1685 H 0.55745 0.03357 0.89435 0.0
H1686 H 0.58213 0.0436 0.87783 0.0
H1687 H 0.61567 0.02246 0.91424 0.0
H1688 H 0.59085 0.01271 0.93139 0.0
H1689 H 0.61592 0.00824 0.87862 0.0
H1690 H 0.62589 0.06786 0.91293 0.0
H1691 H 0.62119 0.09725 0.92997 0.0
H1692 H 0.59998 0.10987 0.87929 0.0
H1693 H 0.60444 0.08049 0.86199 0.0
C1694 C 0.64126 0.02739 0.80055 0.0
C1695 C 0.6274 0.03126 0.78957 0.0
C1696 C 0.64181 0.03005 0.81978 0.0
C1697 C 0.62846 0.0365 0.82829 0.0
C1698 C 0.61489 0.0408 0.81739 0.0
C1699 C 0.61436 0.03821 0.79825 0.0
C1700 C 0.62735 0.03734 0.84828 0.0
C1701 C 0.62535 0.05405 0.85877 0.0
C1702 C 0.62529 0.02105 0.85621 0.0
C1703 C 0.62738 1.003 0.84608 0.0
C1704 C 0.61557 0.99324 0.83038 0.0
C1705 C 0.61758 0.9761 0.82101 0.0
C1706 C 0.63126 0.96854 0.82732 0.0
C1707 C 0.64294 0.97809 0.84305 0.0
C1708 C 0.64099 0.99524 0.85246 0.0
C1709 C 0.57015 0.0315 0.89925 0.0
C1710 C 0.57214 0.02227 0.91415 0.0
C1711 C 0.58433 0.03735 0.88983 0.0
C1712 C 0.60083 0.03408 0.89501 0.0
C1713 C 0.60307 0.02527 0.91016 0.0
C1714 C 0.58884 0.0195 0.91976 0.0
C1715 C 0.61444 0.03716 0.88248 0.0
C1716 C 0.61914 0.02126 0.87343 0.0
C1717 C 0.61882 0.05421 0.87587 0.0
C1718 C 0.61576 0.07193 0.88613 0.0
C1719 C 0.62026 0.07689 0.90542 0.0
C1720 C 0.61761 0.09356 0.91513 0.0
C1721 C 0.61034 0.10546 0.90571 0.0
C1722 C 0.6057 0.10068 0.88657 0.0
C1723 C 0.60837 0.08402 0.87679 0.0
H1724 H 0.60827 0.11837 0.91325 0.0
H1725 H 0.63279 0.95526 0.82006 0.0
H1726 H 0.2989 0.33502 0.07096 0.0
H1727 H 0.29724 0.32052 0.09843 0.0
H1728 H 0.29447 0.37305 0.13129 0.0
H1729 H 0.29702 0.38776 0.1041 0.0
H1730 H 0.31325 0.35817 0.15119 0.0
H1731 H 0.25695 0.33442 0.11465 0.0
H1732 H 0.23598 0.31916 0.08671 0.0
H1733 H 0.25369 0.26848 0.08597 0.0
H1734 H 0.27493 0.28353 0.11378 0.0
H1735 H 0.2807 0.31672 0.22667 0.0
H1736 H 0.28372 0.33315 0.20041 0.0
H1737 H 0.29199 0.28354 0.16671 0.0
H1738 H 0.28868 0.26711 0.19275 0.0
H1739 H 0.26977 0.29781 0.14797 0.0
H1740 H 0.32638 0.32338 0.18595 0.0
H1741 H 0.34532 0.33942 0.21506 0.0
H1742 H 0.32431 0.3879 0.21432 0.0
H1743 H 0.30509 0.37205 0.18531 0.0
C1744 C 0.29805 0.34349 0.08407 0.0
C1745 C 0.29803 0.36253 0.08529 0.0
C1746 C 0.29696 0.33516 0.09979 0.0
C1747 C 0.29531 0.34552 0.11701 0.0
C1748 C 0.29568 0.36465 0.11827 0.0
C1749 C 0.2971 0.37307 0.10265 0.0
C1750 C 0.29297 0.33644 0.13361 0.0
C1751 C 0.30358 0.34507 0.15047 0.0
C1752 C 0.28044 0.31928 0.13288 0.0
C1753 C 0.26765 0.31016 0.11619 0.0
C1754 C 0.25645 0.32006 0.10846 0.0
C1755 C 0.24451 0.31144 0.09266 0.0
C1756 C 0.24354 0.29288 0.08454 0.0
C1757 C 0.25448 0.28287 0.09225 0.0
C1758 C 0.26646 0.29143 0.10804 0.0
C1759 C 0.28326 0.30942 0.21367 0.0
C1760 C 0.28453 0.29068 0.21177 0.0
C1761 C 0.28503 0.3188 0.19867 0.0
C1762 C 0.28828 0.30968 0.18154 0.0
C1763 C 0.28948 0.29092 0.17971 0.0
C1764 C 0.28762 0.28154 0.19463 0.0
C1765 C 0.2902 0.31938 0.16538 0.0
C1766 C 0.27945 0.31089 0.14862 0.0
C1767 C 0.30236 0.3368 0.16632 0.0
C1768 C 0.31424 0.34649 0.18351 0.0
C1769 C 0.32578 0.33744 0.19202 0.0
C1770 C 0.33657 0.3465 0.20849 0.0
C1771 C 0.33606 0.36469 0.21649 0.0
C1772 C 0.32474 0.37385 0.20805 0.0
C1773 C 0.31391 0.36484 0.19159 0.0
H1774 H 0.34437 0.37165 0.22928 0.0
H1775 H 0.23428 0.28623 0.07231 0.0
H1776 H 0.25644 0.96932 0.02802 0.0
H1777 H 0.23013 0.981 0.0318 0.0
H1778 H 0.19744 0.92578 0.00919 0.0
H1779 H 0.22393 0.91387 0.00526 0.0
H1780 H 0.18712 0.95359 0.99362 0.0
H1781 H 0.19898 0.94167 0.0539 0.0
H1782 H 0.2169 0.94172 0.08301 0.0
H1783 H 0.22976 1.00193 0.09482 0.0
H1784 H 0.21213 1.00227 0.06565 0.0
H1785 H 0.11591 0.99613 0.0152 0.0
H1786 H 0.1351 0.97438 0.01506 0.0
H1787 H 0.18018 0.02092 0.03401 0.0
H1788 H 0.16119 0.04284 0.03363 0.0
H1789 H 0.17927 0.99089 0.05302 0.0
H1790 H 0.17248 1.00201 0.98984 0.0
H1791 H 0.15454 1.00234 0.96084 0.0
H1792 H 0.13183 0.94331 0.95504 0.0
H1793 H 0.14955 0.94269 0.98413 0.0
C1794 C 0.24368 0.95959 0.02393 0.0
C1795 C 0.24223 0.94068 0.01635 0.0
C1796 C 0.22865 0.96627 0.02621 0.0
C1797 C 0.21188 0.95417 0.02102 0.0
C1798 C 0.21031 0.93526 0.01339 0.0
C1799 C 0.22541 0.92851 0.01118 0.0
C1800 C 0.19617 0.96185 0.02282 0.0
C1801 C 0.1851 0.96133 0.00669 0.0
C1802 C 0.19369 0.97207 0.03986 0.0
C1803 C 0.20427 0.97198 0.05751 0.0
C1804 C 0.20572 0.95493 0.06263 0.0
C1805 C 0.21582 0.95489 0.07916 0.0
C1806 C 0.22448 0.97181 0.09075 0.0
C1807 C 0.22303 0.98882 0.08584 0.0
C1808 C 0.21296 0.98895 0.06932 0.0
C1809 C 0.12995 1.00176 0.01907 0.0
C1810 C 0.1371 0.02123 0.0242 0.0
C1811 C 0.14083 0.9893 0.01915 0.0
C1812 C 0.15899 0.9961 0.02451 0.0
C1813 C 0.16613 0.01545 0.02997 0.0
C1814 C 0.15529 0.02794 0.02974 0.0
C1815 C 0.1708 0.9832 0.02374 0.0
C1816 C 0.18106 0.98273 0.04007 0.0
C1817 C 0.17252 0.97206 0.00692 0.0
C1818 C 0.16219 0.97234 0.98923 0.0
C1819 C 0.16359 0.98913 0.98243 0.0
C1820 C 0.15347 0.98937 0.96598 0.0
C1821 C 0.14199 0.97288 0.95615 0.0
C1822 C 0.1407 0.95608 0.96269 0.0
C1823 C 0.15079 0.95577 0.97914 0.0
H1824 H 0.13414 0.9731 0.94344 0.0
H1825 H 0.23229 0.97175 0.10354 0.0
H1826 H 0.70283 0.6636 0.98031 0.0
H1827 H 0.67356 0.645 0.98313 0.0
H1828 H 0.694 0.59554 0.98067 0.0
H1829 H 0.72306 0.61389 0.97734 0.0
H1830 H 0.66303 0.58663 0.9612 0.0
H1831 H 0.68694 0.62141 0.02218 0.0
H1832 H 0.69994 0.64984 0.04569 0.0
H1833 H 0.65412 0.67092 0.03497 0.0
H1834 H 0.64095 0.64272 0.01118 0.0
H1835 H 0.60047 0.52875 0.00391 0.0
H1836 H 0.62734 0.54965 0.99786 0.0
H1837 H 0.59882 0.59204 0.99169 0.0
H1838 H 0.57178 0.57095 0.99734 0.0
H1839 H 0.63223 0.60582 0.01423 0.0
H1840 H 0.60776 0.56915 0.95441 0.0
H1841 H 0.59517 0.53998 0.93174 0.0
H1842 H 0.64274 0.52165 0.94147 0.0
H1843 H 0.65553 0.5506 0.96441 0.0
C1844 C 0.70104 0.64873 0.98023 0.0
C1845 C 0.71531 0.64026 0.97868 0.0
C1846 C 0.68431 0.63812 0.98196 0.0
C1847 C 0.68157 0.61888 0.98243 0.0
C1848 C 0.69572 0.61034 0.98038 0.0
C1849 C 0.71238 0.62088 0.9785 0.0
C1850 C 0.66413 0.6076 0.98536 0.0
C1851 C 0.65641 0.59079 0.9729 0.0
C1852 C 0.6552 0.61313 1.0004 0.0
C1853 C 0.66305 0.63005 0.01475 0.0
C1854 C 0.67969 0.63217 0.02473 0.0
C1855 C 0.68708 0.64824 0.03812 0.0
C1856 C 0.67788 0.66221 0.04178 0.0
C1857 C 0.66125 0.66011 0.03209 0.0
C1858 C 0.65381 0.64408 0.01866 0.0
C1859 C 0.59992 0.54252 1.00125 0.0
C1860 C 0.58403 0.54825 1.00112 0.0
C1861 C 0.61527 0.55443 0.99778 0.0
C1862 C 0.61507 0.57237 0.99424 0.0
C1863 C 0.59928 0.57827 0.99441 0.0
C1864 C 0.58385 0.56624 0.99765 0.0
C1865 C 0.63137 0.58481 0.99022 0.0
C1866 C 0.63883 0.6018 0.00247 0.0
C1867 C 0.64016 0.57937 0.9751 0.0
C1868 C 0.63254 0.56197 0.96126 0.0
C1869 C 0.61549 0.55883 0.95183 0.0
C1870 C 0.60832 0.54235 0.93891 0.0
C1871 C 0.61813 0.52895 0.9352 0.0
C1872 C 0.63515 0.53203 0.94437 0.0
C1873 C 0.64237 0.54848 0.95732 0.0
H1874 H 0.61257 0.5162 0.92518 0.0
H1875 H 0.68362 0.67463 0.05215 0.0
H1876 H 0.66823 0.43466 0.26454 0.0
H1877 H 0.68274 0.40856 0.26289 0.0
H1878 H 0.7332 0.44741 0.2676 0.0
H1879 H 0.71859 0.47352 0.26886 0.0
H1880 H 0.73638 0.41854 0.24561 0.0
H1881 H 0.71475 0.4209 0.3043 0.0
H1882 H 0.69275 0.42091 0.32617 0.0
H1883 H 0.66314 0.36673 0.29712 0.0
H1884 H 0.68488 0.36649 0.27495 0.0
H1885 H 0.78805 0.35241 0.26319 0.0
H1886 H 0.77315 0.37814 0.2646 0.0
H1887 H 0.72293 0.33856 0.25832 0.0
H1888 H 0.73792 0.31271 0.2572 0.0
H1889 H 0.71949 0.36759 0.28095 0.0
H1890 H 0.74145 0.36518 0.22247 0.0
H1891 H 0.76371 0.36518 0.20088 0.0
H1892 H 0.79289 0.41958 0.22983 0.0
H1893 H 0.77091 0.4198 0.25173 0.0
C1894 C 0.68244 0.43783 0.2653 0.0
C1895 C 0.69194 0.45675 0.26695 0.0
C1896 C 0.69094 0.42262 0.26449 0.0
C1897 C 0.70952 0.42531 0.26544 0.0
C1898 C 0.71899 0.44424 0.26685 0.0
C1899 C 0.71049 0.45946 0.26766 0.0
C1900 C 0.71895 0.40873 0.26473 0.0
C1901 C 0.73269 0.40765 0.25365 0.0
C1902 C 0.71446 0.39366 0.27463 0.0
C1903 C 0.70134 0.39378 0.28786 0.0
C1904 C 0.70348 0.40906 0.3025 0.0
C1905 C 0.69107 0.40909 0.31497 0.0
C1906 C 0.67653 0.39386 0.313 0.0
C1907 C 0.67439 0.37854 0.2986 0.0
C1908 C 0.68676 0.37844 0.2861 0.0
C1909 C 0.7738 0.34896 0.26198 0.0
C1910 C 0.7645 0.32992 0.25992 0.0
C1911 C 0.7651 0.36398 0.26268 0.0
C1912 C 0.74648 0.36098 0.26126 0.0
C1913 C 0.73717 0.34194 0.25943 0.0
C1914 C 0.74589 0.32688 0.2587 0.0
C1915 C 0.73691 0.37743 0.26187 0.0
C1916 C 0.72315 0.37848 0.27292 0.0
C1917 C 0.74141 0.3925 0.25197 0.0
C1918 C 0.75463 0.39242 0.23885 0.0
C1919 C 0.75268 0.37709 0.2243 0.0
C1920 C 0.76524 0.37705 0.212 0.0
C1921 C 0.77973 0.39235 0.21402 0.0
C1922 C 0.78167 0.40773 0.22831 0.0
C1923 C 0.76916 0.40782 0.24066 0.0
H1924 H 0.78943 0.3923 0.20448 0.0
H1925 H 0.66693 0.39391 0.32267 0.0
H1926 H 0.85511 0.48489 0.50861 0.0
H1927 H 0.887 0.48968 0.51506 0.0
H1928 H 0.87996 0.43682 0.53371 0.0
H1929 H 0.84806 0.43205 0.5277 0.0
H1930 H 0.90913 0.46325 0.55334 0.0
H1931 H 0.8852 0.43629 0.49052 0.0
H1932 H 0.86713 0.43393 0.46082 0.0
H1933 H 0.89764 0.48763 0.4547 0.0
H1934 H 0.91572 0.49044 0.48452 0.0
H1935 H 0.99148 0.47075 0.49643 0.0
H1936 H 0.96176 0.45519 0.50119 0.0
H1937 H 0.96418 0.49842 0.5487 0.0
H1938 H 0.99414 0.51313 0.5447 0.0
H1939 H 0.93657 0.46988 0.496 0.0
H1940 H 0.9343 0.48835 0.57529 0.0
H1941 H 0.95376 0.48979 0.60384 0.0
H1942 H 0.97636 0.44746 0.57564 0.0
H1943 H 0.95697 0.44563 0.54696 0.0
C1944 C 0.86031 0.47446 0.51443 0.0
C1945 C 0.84908 0.45792 0.51727 0.0
C1946 C 0.87852 0.47723 0.51815 0.0
C1947 C 0.88575 0.4634 0.52451 0.0
C1948 C 0.87459 0.44759 0.52875 0.0
C1949 C 0.85637 0.44487 0.52517 0.0
C1950 C 0.9047 0.46436 0.52439 0.0
C1951 C 0.91521 0.46461 0.54085 0.0
C1952 C 0.91241 0.46537 0.50789 0.0
C1953 C 0.90173 0.46362 0.48981 0.0
C1954 C 0.88799 0.44764 0.48289 0.0
C1955 C 0.87775 0.44622 0.46603 0.0
C1956 C 0.88122 0.46063 0.4559 0.0
C1957 C 0.89496 0.47648 0.46257 0.0
C1958 C 0.90522 0.47799 0.47944 0.0
C1959 C 0.98585 0.47644 0.50829 0.0
C1960 C 0.99494 0.49314 0.52013 0.0
C1961 C 0.96889 0.46761 0.51099 0.0
C1962 C 0.96066 0.47564 0.52526 0.0
C1963 C 0.97029 0.49164 0.53784 0.0
C1964 C 0.98743 0.50014 0.53547 0.0
C1965 C 0.94136 0.4694 0.52512 0.0
C1966 C 0.93064 0.46814 0.50853 0.0
C1967 C 0.93352 0.46694 0.54137 0.0
C1968 C 0.94424 0.46694 0.55894 0.0
C1969 C 0.94327 0.47919 0.57523 0.0
C1970 C 0.95437 0.48015 0.5914 0.0
C1971 C 0.96638 0.46883 0.59147 0.0
C1972 C 0.96713 0.45631 0.5755 0.0
C1973 C 0.95611 0.45531 0.55928 0.0
H1974 H 0.97507 0.4697 0.60392 0.0
H1975 H 0.87327 0.45951 0.44285 0.0
H1976 H 0.36026 0.05546 0.29233 0.0
H1977 H 0.33777 0.0736 0.29342 0.0
H1978 H 0.37745 0.12379 0.29239 0.0
H1979 H 0.39998 0.1059 0.29171 0.0
H1980 H 0.35459 0.1315 0.31484 0.0
H1981 H 0.35191 0.09776 0.25282 0.0
H1982 H 0.34875 0.06961 0.22884 0.0
H1983 H 0.2972 0.04689 0.24232 0.0
H1984 H 0.30016 0.07482 0.26657 0.0
H1985 H 0.31025 0.19099 0.27657 0.0
H1986 H 0.32877 0.1696 0.28229 0.0
H1987 H 0.28229 0.12545 0.28119 0.0
H1988 H 0.26367 0.1468 0.27446 0.0
H1989 H 0.30577 0.11232 0.26303 0.0
H1990 H 0.3086 0.15121 0.32274 0.0
H1991 H 0.31327 0.18165 0.34372 0.0
H1992 H 0.36676 0.1968 0.33226 0.0
H1993 H 0.3623 0.16659 0.31091 0.0
C1994 C 0.36422 0.07042 0.29266 0.0
C1995 C 0.38185 0.07924 0.29177 0.0
C1996 C 0.35135 0.08074 0.29319 0.0
C1997 C 0.35591 0.09996 0.29265 0.0
C1998 C 0.37364 0.10895 0.29277 0.0
C1999 C 0.3865 0.09869 0.29234 0.0
C2000 C 0.34223 0.11064 0.29086 0.0
C2001 C 0.34391 0.12733 0.30352 0.0
C2002 C 0.32816 0.10503 0.27623 0.0
C2003 C 0.32635 0.08825 0.26166 0.0
C2004 C 0.33996 0.08668 0.25077 0.0
C2005 C 0.3382 0.07079 0.23711 0.0
C2006 C 0.32281 0.05644 0.2341 0.0
C2007 C 0.30913 0.05799 0.2447 0.0
C2008 C 0.31084 0.07385 0.2584 0.0
C2009 C 0.30405 0.17671 0.27762 0.0
C2010 C 0.28566 0.17046 0.27533 0.0
C2011 C 0.3146 0.16454 0.28099 0.0
C2012 C 0.30693 0.14607 0.28271 0.0
C2013 C 0.28847 0.13971 0.28011 0.0
C2014 C 0.27787 0.15184 0.27633 0.0
C2015 C 0.3183 0.13339 0.28683 0.0
C2016 C 0.31618 0.11631 0.27462 0.0
C2017 C 0.33219 0.13883 0.30168 0.0
C2018 C 0.33508 0.15665 0.31516 0.0
C2019 C 0.32135 0.16104 0.32468 0.0
C2020 C 0.32396 0.17828 0.33662 0.0
C2021 C 0.34031 0.19118 0.3393 0.0
C2022 C 0.35411 0.1868 0.33016 0.0
C2023 C 0.35155 0.16961 0.31816 0.0
H2024 H 0.34233 0.2046 0.34841 0.0
H2025 H 0.32146 0.04415 0.22352 0.0
H2026 H 0.30375 0.11474 0.50635 0.0
H2027 H 0.33148 0.1054 0.50585 0.0
H2028 H 0.35398 0.15419 0.48361 0.0
H2029 H 0.32588 0.16359 0.48373 0.0
H2030 H 0.36345 0.12337 0.46658 0.0
H2031 H 0.36477 0.15308 0.52898 0.0
H2032 H 0.35345 0.15972 0.55881 0.0
H2033 H 0.34965 0.10283 0.5657 0.0
H2034 H 0.36072 0.09577 0.53578 0.0
H2035 H 0.44812 0.103 0.48254 0.0
H2036 H 0.42421 0.1193 0.48326 0.0
H2037 H 0.39309 0.07545 0.50661 0.0
H2038 H 0.41693 0.05926 0.5061 0.0
H2039 H 0.39066 0.10863 0.52381 0.0
H2040 H 0.38664 0.07852 0.45968 0.0
H2041 H 0.39865 0.07227 0.43017 0.0
H2042 H 0.40824 0.13068 0.42694 0.0
H2043 H 0.3965 0.13731 0.45658 0.0
C2044 C 0.31454 0.12358 0.50135 0.0
C2045 C 0.31256 0.14004 0.49522 0.0
C2046 C 0.33047 0.11822 0.50114 0.0
C2047 C 0.34497 0.12926 0.49503 0.0
C2048 C 0.34301 0.1455 0.48849 0.0
C2049 C 0.32695 0.15088 0.48861 0.0
C2050 C 0.36205 0.12361 0.4956 0.0
C2051 C 0.36959 0.12048 0.47917 0.0
C2052 C 0.37002 0.11965 0.51197 0.0
C2053 C 0.36348 0.12387 0.53006 0.0
C2054 C 0.36142 0.14195 0.5368 0.0
C2055 C 0.35506 0.14579 0.55373 0.0
C2056 C 0.3508 0.1317 0.56413 0.0
C2057 C 0.35294 0.11373 0.55763 0.0
C2058 C 0.35928 0.10981 0.54069 0.0
C2059 C 0.43616 0.09683 0.48779 0.0
C2060 C 0.43445 0.07982 0.49426 0.0
C2061 C 0.42249 0.10616 0.48818 0.0
C2062 C 0.40672 0.09852 0.49479 0.0
C2063 C 0.40512 0.08168 0.50149 0.0
C2064 C 0.4188 0.07244 0.50123 0.0
C2065 C 0.39175 0.10782 0.49469 0.0
C2066 C 0.38464 0.1117 0.51126 0.0
C2067 C 0.38424 0.11251 0.47847 0.0
C2068 C 0.39087 0.10844 0.46043 0.0
C2069 C 0.39139 0.09004 0.45272 0.0
C2070 C 0.39815 0.08643 0.43597 0.0
C2071 C 0.40426 0.10108 0.42672 0.0
C2072 C 0.40353 0.11935 0.43414 0.0
C2073 C 0.39682 0.12305 0.4509 0.0
H2074 H 0.40953 0.09826 0.41378 0.0
H2075 H 0.34588 0.1347 0.57724 0.0
H2076 H 0.66931 0.59128 0.2752 0.0
H2077 H 0.68708 0.62216 0.27428 0.0
H2078 H 0.73283 0.59963 0.26959 0.0
H2079 H 0.71482 0.5681 0.27074 0.0
H2080 H 0.74241 0.63412 0.29159 0.0
H2081 H 0.70921 0.61131 0.23203 0.0
H2082 H 0.68242 0.59745 0.20992 0.0
H2083 H 0.66119 0.64464 0.22853 0.0
H2084 H 0.68769 0.65854 0.25123 0.0
H2085 H 0.79472 0.71331 0.2645 0.0
H2086 H 0.77699 0.68252 0.26593 0.0
H2087 H 0.73076 0.70462 0.26765 0.0
H2088 H 0.74877 0.73593 0.26565 0.0
H2089 H 0.7213 0.67034 0.24732 0.0
H2090 H 0.75395 0.6928 0.30741 0.0
H2091 H 0.78035 0.70633 0.33029 0.0
H2092 H 0.80237 0.65998 0.31078 0.0
H2093 H 0.77619 0.6463 0.28761 0.0
C2094 C 0.68316 0.59261 0.27399 0.0
C2095 C 0.69034 0.57665 0.27293 0.0
C2096 C 0.69342 0.61058 0.27335 0.0
C2097 C 0.71147 0.61369 0.27141 0.0
C2098 C 0.71897 0.59796 0.27094 0.0
C2099 C 0.7086 0.57976 0.27162 0.0
C2100 C 0.7221 0.63324 0.26978 0.0
C2101 C 0.73785 0.64182 0.28166 0.0
C2102 C 0.71623 0.64402 0.25729 0.0
C2103 C 0.70039 0.63589 0.24346 0.0
C2104 C 0.69878 0.61868 0.23151 0.0
C2105 C 0.68364 0.61082 0.21886 0.0
C2106 C 0.6701 0.62016 0.21777 0.0
C2107 C 0.67168 0.6374 0.22939 0.0
C2108 C 0.68676 0.64527 0.24218 0.0
C2109 C 0.78077 0.71184 0.2652 0.0
C2110 C 0.77341 0.72753 0.26506 0.0
C2111 C 0.77053 0.69396 0.26618 0.0
C2112 C 0.75234 0.69077 0.26743 0.0
C2113 C 0.74473 0.70634 0.26688 0.0
C2114 C 0.75508 0.72442 0.26575 0.0
C2115 C 0.74164 0.67126 0.26914 0.0
C2116 C 0.72586 0.66267 0.25726 0.0
C2117 C 0.74746 0.66048 0.28168 0.0
C2118 C 0.76317 0.66861 0.29566 0.0
C2119 C 0.76447 0.68556 0.30792 0.0
C2120 C 0.77939 0.69324 0.32095 0.0
C2121 C 0.79305 0.68404 0.32196 0.0
C2122 C 0.79179 0.6671 0.30997 0.0
C2123 C 0.7769 0.65936 0.2969 0.0
H2124 H 0.80459 0.69002 0.33206 0.0
H2125 H 0.65839 0.61406 0.20793 0.0
H2126 H 0.90955 0.45826 0.77283 0.0
H2127 H 0.88523 0.4307 0.76346 0.0
H2128 H 0.84866 0.46605 0.76075 0.0
H2129 H 0.87306 0.49392 0.77049 0.0
H2130 H 0.83612 0.43893 0.77752 0.0
H2131 H 0.85739 0.44148 0.7209 0.0
H2132 H 0.878 0.44476 0.69765 0.0
H2133 H 0.89361 0.39521 0.70791 0.0
H2134 H 0.87338 0.39181 0.7315 0.0
H2135 H 0.79819 0.33239 0.72802 0.0
H2136 H 0.80984 0.36517 0.72562 0.0
H2137 H 0.82629 0.37888 0.78452 0.0
H2138 H 0.81406 0.34652 0.78707 0.0
H2139 H 0.84088 0.38482 0.73097 0.0
H2140 H 0.82787 0.42188 0.8033 0.0
H2141 H 0.80391 0.41902 0.82288 0.0
H2142 H 0.76637 0.39112 0.7754 0.0
H2143 H 0.79004 0.39406 0.75546 0.0
C2144 C 0.89636 0.46025 0.77023 0.0
C2145 C 0.89325 0.47831 0.77242 0.0
C2146 C 0.88247 0.44445 0.76467 0.0
C2147 C 0.86518 0.44633 0.76099 0.0
C2148 C 0.86194 0.46431 0.76335 0.0
C2149 C 0.87588 0.4802 0.76899 0.0
C2150 C 0.85056 0.4293 0.75599 0.0
C2151 C 0.83699 0.42715 0.7672 0.0
C2152 C 0.85122 0.41424 0.74189 0.0
C2153 C 0.86386 0.41644 0.72807 0.0
C2154 C 0.86535 0.43139 0.71836 0.0
C2155 C 0.87695 0.43324 0.70509 0.0
C2156 C 0.88711 0.4202 0.70131 0.0
C2157 C 0.88573 0.4053 0.71085 0.0
C2158 C 0.87418 0.40339 0.72417 0.0
C2159 C 0.80414 0.34249 0.74046 0.0
C2160 C 0.80522 0.33696 0.75774 0.0
C2161 C 0.81074 0.3612 0.73908 0.0
C2162 C 0.81865 0.3746 0.75493 0.0
C2163 C 0.81974 0.36899 0.77216 0.0
C2164 C 0.8129 0.35042 0.77359 0.0
C2165 C 0.8273 0.39405 0.75348 0.0
C2166 C 0.8397 0.3967 0.74099 0.0
C2167 C 0.82514 0.40973 0.76593 0.0
C2168 C 0.81078 0.40815 0.77787 0.0
C2169 C 0.81449 0.41527 0.79699 0.0
C2170 C 0.80095 0.4136 0.80817 0.0
C2171 C 0.78363 0.40488 0.8004 0.0
C2172 C 0.7798 0.39784 0.78142 0.0
C2173 C 0.79328 0.39948 0.77017 0.0
H2174 H 0.77318 0.40358 0.80908 0.0
H2175 H 0.89603 0.42163 0.69098 0.0
H2176 H 0.05833 0.87418 0.11138 0.0
H2177 H 0.05477 0.89992 0.09567 0.0
H2178 H 0.08744 0.88304 0.05539 0.0
H2179 H 0.09068 0.85682 0.07078 0.0
H2180 H 0.09475 0.92499 0.0728 0.0
H2181 H 0.04965 0.87224 0.03935 0.0
H2182 H 0.02469 0.84475 0.03656 0.0
H2183 H 0.99429 0.87963 0.064 0.0
H2184 H 0.01919 0.90729 0.06721 0.0
H2185 H 0.07402 0.98995 0.0172 0.0
H2186 H 0.0811 0.96264 0.02797 0.0
H2187 H 0.03382 0.95487 0.05462 0.0
H2188 H 0.02608 0.98095 0.04243 0.0
H2189 H 0.03589 0.92338 0.04125 0.0
H2190 H 0.08094 0.97623 0.07627 0.0
H2191 H 0.10586 1.00393 0.07986 0.0
H2192 H 0.13664 0.96995 0.05175 0.0
H2193 H 0.11174 0.94217 0.04752 0.0
C2194 C 0.06478 0.87592 0.09919 0.0
C2195 C 0.07474 0.86339 0.0923 0.0
C2196 C 0.06274 0.89066 0.09024 0.0
C2197 C 0.07088 0.89343 0.07439 0.0
C2198 C 0.08111 0.88119 0.06764 0.0
C2199 C 0.08285 0.86617 0.07638 0.0
C2200 C 0.06809 0.90878 0.06467 0.0
C2201 C 0.08196 0.92463 0.06568 0.0
C2202 C 0.05136 0.90838 0.05565 0.0
C2203 C 0.03635 0.89179 0.05368 0.0
C2204 C 0.03771 0.87402 0.04495 0.0
C2205 C 0.02356 0.85841 0.04326 0.0
C2206 C 0.00793 0.86043 0.05014 0.0
C2207 C 0.00641 0.87808 0.05869 0.0
C2208 C 0.02053 0.89373 0.06044 0.0
C2209 C 0.06517 0.98229 0.02531 0.0
C2210 C 0.04948 0.98749 0.02894 0.0
C2211 C 0.06929 0.96676 0.03164 0.0
C2212 C 0.05822 0.95668 0.04251 0.0
C2213 C 0.04262 0.96216 0.04622 0.0
C2214 C 0.0382 0.97716 0.03931 0.0
C2215 C 0.0624 0.94026 0.04985 0.0
C2216 C 0.04876 0.924 0.04834 0.0
C2217 C 0.07934 0.94047 0.05861 0.0
C2218 C 0.09438 0.95716 0.06138 0.0
C2219 C 0.09297 0.9747 0.07072 0.0
C2220 C 0.10709 0.99042 0.07284 0.0
C2221 C 0.12278 0.98873 0.06592 0.0
C2222 C 0.12443 0.97128 0.05698 0.0
C2223 C 0.11031 0.95555 0.05469 0.0
H2224 H 0.13368 1.00092 0.06753 0.0
H2225 H 0.99699 0.84833 0.04881 0.0
H2226 H 0.94443 0.25152 0.88845 0.0
H2227 H 0.91412 0.25258 0.87771 0.0
H2228 H 0.93362 0.28428 0.83674 0.0
H2229 H 0.9635 0.28332 0.84719 0.0
H2230 H 0.91092 0.30016 0.85616 0.0
H2231 H 0.91355 0.23742 0.82548 0.0
H2232 H 0.91684 0.20522 0.82546 0.0
H2233 H 0.87365 0.19493 0.85731 0.0
H2234 H 0.87026 0.22717 0.8577 0.0
H2235 H 0.85049 0.29552 0.78083 0.0
H2236 H 0.87401 0.29278 0.80316 0.0
H2237 H 0.83587 0.25983 0.8309 0.0
H2238 H 0.81203 0.26235 0.80813 0.0
H2239 H 0.86378 0.24425 0.82653 0.0
H2240 H 0.85702 0.30417 0.85184 0.0
H2241 H 0.853 0.33615 0.85226 0.0
H2242 H 0.90307 0.35217 0.83266 0.0
H2243 H 0.90728 0.3202 0.83184 0.0
C2244 C 0.94221 0.25861 0.87709 0.0
C2245 C 0.9565 0.26735 0.86875 0.0
C2246 C 0.92488 0.2592 0.87096 0.0
C2247 C 0.92158 0.26859 0.85644 0.0
C2248 C 0.9358 0.27709 0.84805 0.0
C2249 C 0.95296 0.27644 0.85405 0.0
C2250 C 0.90352 0.26999 0.84974 0.0
C2251 C 0.9006 0.28793 0.84968 0.0
C2252 C 0.88971 0.25407 0.84206 0.0
C2253 C 0.89179 0.23475 0.84181 0.0
C2254 C 0.90486 0.22834 0.83261 0.0
C2255 C 0.90672 0.21007 0.8325 0.0
C2256 C 0.89551 0.19805 0.84143 0.0
C2257 C 0.88236 0.20426 0.85043 0.0
C2258 C 0.88046 0.22252 0.8506 0.0
C2259 C 0.84703 0.28781 0.79175 0.0
C2260 C 0.8294 0.27915 0.7927 0.0
C2261 C 0.86052 0.28632 0.80461 0.0
C2262 C 0.85677 0.27629 0.81892 0.0
C2263 C 0.83911 0.26769 0.82004 0.0
C2264 C 0.82551 0.2692 0.80708 0.0
C2265 C 0.87159 0.27446 0.83203 0.0
C2266 C 0.87388 0.2565 0.8334 0.0
C2267 C 0.8848 0.29039 0.84113 0.0
C2268 C 0.88244 0.30973 0.84172 0.0
C2269 C 0.86714 0.31447 0.84751 0.0
C2270 C 0.86483 0.33261 0.84783 0.0
C2271 C 0.87777 0.34618 0.84248 0.0
C2272 C 0.89306 0.34164 0.83682 0.0
C2273 C 0.89543 0.32352 0.83645 0.0
H2274 H 0.87595 0.36021 0.84273 0.0
H2275 H 0.89697 0.18392 0.84132 0.0
H2276 H 0.54905 0.25242 0.57581 0.0
H2277 H 0.54292 0.22129 0.55575 0.0
H2278 H 0.58348 0.20668 0.58956 0.0
H2279 H 0.58947 0.23737 0.60959 0.0
H2280 H 0.58401 0.19538 0.55158 0.0
H2281 H 0.5422 0.193 0.5967 0.0
H2282 H 0.51827 0.20304 0.61198 0.0
H2283 H 0.48505 0.18902 0.55991 0.0
H2284 H 0.5089 0.17913 0.54428 0.0
H2285 H 0.56933 0.09809 0.54269 0.0
H2286 H 0.5733 0.13168 0.55305 0.0
H2287 H 0.5252 0.13 0.51908 0.0
H2288 H 0.52087 0.0961 0.50896 0.0
H2289 H 0.52648 0.15115 0.55148 0.0
H2290 H 0.56621 0.14901 0.50684 0.0
H2291 H 0.58983 0.13901 0.49096 0.0
H2292 H 0.62659 0.16193 0.54015 0.0
H2293 H 0.60314 0.17183 0.55643 0.0
C2294 C 0.55679 0.24264 0.57877 0.0
C2295 C 0.56966 0.2473 0.59435 0.0
C2296 C 0.55324 0.22485 0.56736 0.0
C2297 C 0.56268 0.21163 0.57124 0.0
C2298 C 0.57604 0.21663 0.58629 0.0
C2299 C 0.57939 0.23418 0.59779 0.0
C2300 C 0.55829 0.19218 0.56042 0.0
C2301 C 0.57145 0.18568 0.55154 0.0
C2302 C 0.54171 0.17968 0.55989 0.0
C2303 C 0.52739 0.18557 0.5693 0.0
C2304 C 0.52984 0.19222 0.58849 0.0
C2305 C 0.51629 0.19785 0.59722 0.0
C2306 C 0.50017 0.19673 0.58692 0.0
C2307 C 0.49756 0.18992 0.56787 0.0
C2308 C 0.51108 0.1843 0.55907 0.0
C2309 C 0.55959 0.10481 0.53733 0.0
C2310 C 0.5448 0.09434 0.52492 0.0
C2311 C 0.56195 0.12411 0.5432 0.0
C2312 C 0.54974 0.13353 0.5366 0.0
C2313 C 0.53486 0.1231 0.52432 0.0
C2314 C 0.53241 0.10371 0.51852 0.0
C2315 C 0.5524 0.15413 0.54301 0.0
C2316 C 0.53893 0.16086 0.5511 0.0
C2317 C 0.56866 0.1669 0.54265 0.0
C2318 C 0.58287 0.16106 0.5329 0.0
C2319 C 0.5793 0.15181 0.51432 0.0
C2320 C 0.59267 0.14617 0.50524 0.0
C2321 C 0.60969 0.14981 0.51455 0.0
C2322 C 0.6134 0.15913 0.53295 0.0
C2323 C 0.60008 0.16478 0.54211 0.0
H2324 H 0.62002 0.14543 0.50749 0.0
H2325 H 0.48969 0.20109 0.5937 0.0
H2326 H 0.54595 0.74793 0.35057 0.0
H2327 H 0.57263 0.74777 0.33597 0.0
H2328 H 0.60311 0.75753 0.38961 0.0
H2329 H 0.5764 0.75817 0.40438 0.0
H2330 H 0.62007 0.77912 0.36871 0.0
H2331 H 0.59295 0.71389 0.36049 0.0
H2332 H 0.56895 0.68522 0.35165 0.0
H2333 H 0.5652 0.69309 0.29528 0.0
H2334 H 0.58902 0.72196 0.30383 0.0
H2335 H 0.69575 0.76654 0.32595 0.0
H2336 H 0.67158 0.76193 0.34478 0.0
H2337 H 0.634 0.75106 0.29577 0.0
H2338 H 0.65795 0.7545 0.2768 0.0
H2339 H 0.62232 0.7281 0.31737 0.0
H2340 H 0.64753 0.79539 0.32696 0.0
H2341 H 0.67177 0.82385 0.33617 0.0
H2342 H 0.67951 0.81135 0.39059 0.0
H2343 H 0.65539 0.78273 0.38163 0.0
C2344 C 0.5583 0.74995 0.35929 0.0
C2345 C 0.55902 0.75301 0.37865 0.0
C2346 C 0.57357 0.74976 0.35091 0.0
C2347 C 0.58991 0.75234 0.36165 0.0
C2348 C 0.59068 0.75544 0.38101 0.0
C2349 C 0.57539 0.75576 0.38943 0.0
C2350 C 0.60616 0.75226 0.35258 0.0
C2351 C 0.62066 0.76779 0.35771 0.0
C2352 C 0.60697 0.73761 0.33807 0.0
C2353 C 0.5927 0.72017 0.33284 0.0
C2354 C 0.58693 0.70958 0.34623 0.0
C2355 C 0.57337 0.69328 0.34127 0.0
C2356 C 0.56554 0.68735 0.32292 0.0
C2357 C 0.57128 0.6977 0.30949 0.0
C2358 C 0.58483 0.71402 0.31438 0.0
C2359 C 0.68235 0.76284 0.31912 0.0
C2360 C 0.67889 0.76111 0.29981 0.0
C2361 C 0.66851 0.76044 0.32996 0.0
C2362 C 0.6509 0.75654 0.32178 0.0
C2363 C 0.64743 0.75421 0.30248 0.0
C2364 C 0.66121 0.7564 0.29164 0.0
C2365 C 0.63601 0.75518 0.33315 0.0
C2366 C 0.62178 0.73934 0.32849 0.0
C2367 C 0.63549 0.76951 0.34813 0.0
C2368 C 0.64978 0.78685 0.35357 0.0
C2369 C 0.65446 0.79868 0.34086 0.0
C2370 C 0.66816 0.81484 0.34604 0.0
C2371 C 0.6772 0.81938 0.36394 0.0
C2372 C 0.6725 0.80781 0.37672 0.0
C2373 C 0.65881 0.79164 0.37161 0.0
H2374 H 0.68783 0.83188 0.36791 0.0
H2375 H 0.55504 0.67473 0.31911 0.0
H2376 H 0.0625 0.28237 0.43122 0.0
H2377 H 0.05364 0.25695 0.4483 0.0
H2378 H 0.06755 0.21823 0.40529 0.0
H2379 H 0.07567 0.24333 0.38788 0.0
H2380 H 0.03848 0.20196 0.41557 0.0
H2381 H 0.09469 0.23843 0.44795 0.0
H2382 H 0.11595 0.2671 0.46479 0.0
H2383 H 0.08177 0.27259 0.50661 0.0
H2384 H 0.0602 0.24407 0.48988 0.0
H2385 H 0.0545 0.13115 0.46429 0.0
H2386 H 0.05615 0.15685 0.44712 0.0
H2387 H 0.03302 0.18684 0.48947 0.0
H2388 H 0.03133 0.16116 0.50673 0.0
H2389 H 0.06402 0.20815 0.48073 0.0
H2390 H 0.00775 0.17207 0.4478 0.0
H2391 H 0.98613 0.14407 0.43019 0.0
H2392 H 0.02166 0.13724 0.39002 0.0
H2393 H 0.04331 0.16553 0.40718 0.0
C2394 C 0.0636 0.26841 0.42542 0.0
C2395 C 0.06982 0.26483 0.40826 0.0
C2396 C 0.05862 0.25391 0.43522 0.0
C2397 C 0.06018 0.23571 0.42822 0.0
C2398 C 0.0662 0.23213 0.41097 0.0
C2399 C 0.07089 0.24651 0.40106 0.0
C2400 C 0.0557 0.22031 0.43879 0.0
C2401 C 0.04422 0.20331 0.42977 0.0
C2402 C 0.06278 0.22213 0.45748 0.0
C2403 C 0.07575 0.23925 0.46756 0.0
C2404 C 0.09165 0.24584 0.46066 0.0
C2405 C 0.10376 0.26204 0.4702 0.0
C2406 C 0.10019 0.27169 0.48673 0.0
C2407 C 0.08451 0.26513 0.49378 0.0
C2408 C 0.07234 0.24894 0.48429 0.0
C2409 C 0.04969 0.14318 0.46989 0.0
C2410 C 0.04281 0.14417 0.48685 0.0
C2411 C 0.05048 0.15776 0.45999 0.0
C2412 C 0.04458 0.17366 0.46698 0.0
C2413 C 0.03754 0.17461 0.48381 0.0
C2414 C 0.03653 0.15993 0.4936 0.0
C2415 C 0.04707 0.18985 0.45739 0.0
C2416 C 0.05819 0.20695 0.46659 0.0
C2417 C 0.03981 0.18809 0.43884 0.0
C2418 C 0.02715 0.17079 0.42881 0.0
C2419 C 0.01097 0.16452 0.43526 0.0
C2420 C 0.99867 0.14869 0.42529 0.0
C2421 C 0.00254 0.13884 0.40902 0.0
C2422 C 0.01868 0.14489 0.40261 0.0
C2423 C 0.03091 0.1609 0.41238 0.0
H2424 H 0.99304 0.1265 0.40139 0.0
H2425 H 0.10958 0.28424 0.49409 0.0
H2426 H 0.53772 0.27703 0.1931 0.0
H2427 H 0.56757 0.28082 0.20818 0.0
H2428 H 0.58646 0.27499 0.15495 0.0
H2429 H 0.55659 0.27099 0.13972 0.0
H2430 H 0.59444 0.25 0.17504 0.0
H2431 H 0.59874 0.31634 0.18519 0.0
H2432 H 0.58953 0.34545 0.19583 0.0
H2433 H 0.59326 0.33554 0.25151 0.0
H2434 H 0.60226 0.30621 0.24117 0.0
H2435 H 0.68422 0.26433 0.20378 0.0
H2436 H 0.65637 0.26951 0.19105 0.0
H2437 H 0.63878 0.27278 0.24493 0.0
H2438 H 0.66696 0.26807 0.25795 0.0
H2439 H 0.63019 0.29978 0.22556 0.0
H2440 H 0.62455 0.23354 0.216 0.0
H2441 H 0.63352 0.20411 0.20619 0.0
H2442 H 0.63136 0.21329 0.15023 0.0
H2443 H 0.62264 0.24294 0.15977 0.0
C2444 C 0.54829 0.27693 0.18462 0.0
C2445 C 0.54482 0.27345 0.16522 0.0
C2446 C 0.56534 0.2792 0.19327 0.0
C2447 C 0.57917 0.27817 0.18266 0.0
C2448 C 0.57591 0.27579 0.16335 0.0
C2449 C 0.55887 0.27352 0.15468 0.0
C2450 C 0.59649 0.27727 0.19149 0.0
C2451 C 0.60241 0.26105 0.18585 0.0
C2452 C 0.60645 0.29136 0.20612 0.0
C2453 C 0.60101 0.30897 0.21236 0.0
C2454 C 0.59744 0.32027 0.19968 0.0
C2455 C 0.59229 0.33683 0.20566 0.0
C2456 C 0.59076 0.34231 0.22433 0.0
C2457 C 0.59443 0.33126 0.23706 0.0
C2458 C 0.59957 0.31468 0.23114 0.0
C2459 C 0.67455 0.26645 0.21299 0.0
C2460 C 0.67771 0.26578 0.23185 0.0
C2461 C 0.65863 0.2693 0.20569 0.0
C2462 C 0.64554 0.27136 0.21705 0.0
C2463 C 0.64878 0.2712 0.23598 0.0
C2464 C 0.66475 0.26833 0.24333 0.0
C2465 C 0.62818 0.2727 0.20882 0.0
C2466 C 0.62221 0.28884 0.21467 0.0
C2467 C 0.61801 0.25847 0.19447 0.0
C2468 C 0.6231 0.24055 0.18864 0.0
C2469 C 0.62612 0.22936 0.20163 0.0
C2470 C 0.63114 0.21263 0.19611 0.0
C2471 C 0.63306 0.20686 0.17761 0.0
C2472 C 0.6299 0.21779 0.16457 0.0
C2473 C 0.6249 0.23455 0.17002 0.0
H2474 H 0.63695 0.1939 0.17336 0.0
H2475 H 0.58678 0.35514 0.22893 0.0
H2476 H 0.58269 0.88272 0.87419 0.0
H2477 H 0.57768 0.91109 0.89293 0.0
H2478 H 0.60381 0.89828 0.94141 0.0
H2479 H 0.60797 0.8697 0.92301 0.0
H2480 H 0.57336 0.90219 0.94756 0.0
H2481 H 0.6204 0.93619 0.9199 0.0
H2482 H 0.63644 0.94784 0.89528 0.0
H2483 H 0.59446 0.97263 0.87907 0.0
H2484 H 0.57793 0.96073 0.90329 0.0
H2485 H 0.58715 0.00454 0.99825 0.0
H2486 H 0.59497 0.98178 0.9746 0.0
H2487 H 0.54154 0.94812 0.96657 0.0
H2488 H 0.53399 0.97028 0.99095 0.0
H2489 H 0.58503 0.96835 0.93903 0.0
H2490 H 0.54103 0.90283 0.95792 0.0
H2491 H 0.52778 0.89269 0.9848 0.0
H2492 H 0.56952 0.93251 0.0216 0.0
H2493 H 0.58311 0.94271 0.99494 0.0
C2494 C 0.5876 0.88624 0.88879 0.0
C2495 C 0.59545 0.87399 0.89729 0.0
C2496 C 0.58482 0.90246 0.89946 0.0
C2497 C 0.59027 0.90676 0.91861 0.0
C2498 C 0.5993 0.89515 0.92671 0.0
C2499 C 0.60167 0.87883 0.91621 0.0
C2500 C 0.5848 0.92176 0.9308 0.0
C2501 C 0.57598 0.91666 0.94562 0.0
C2502 C 0.58806 0.94064 0.92826 0.0
C2503 C 0.59776 0.94725 0.91325 0.0
C2504 C 0.61442 0.94383 0.9109 0.0
C2505 C 0.62364 0.95054 0.89704 0.0
C2506 C 0.61643 0.96088 0.88556 0.0
C2507 C 0.59999 0.96453 0.88791 0.0
C2508 C 0.59067 0.95778 0.90168 0.0
C2509 C 0.57715 0.99218 0.99152 0.0
C2510 C 0.55999 0.98904 0.9964 0.0
C2511 C 0.58156 0.97934 0.97786 0.0
C2512 C 0.56889 0.96318 0.96893 0.0
C2513 C 0.55161 0.96034 0.97348 0.0
C2514 C 0.54727 0.97303 0.98731 0.0
C2515 C 0.57404 0.94869 0.95581 0.0
C2516 C 0.58249 0.95384 0.94078 0.0
C2517 C 0.57088 0.92986 0.95831 0.0
C2518 C 0.56297 0.92365 0.97445 0.0
C2519 C 0.5474 0.90936 0.97176 0.0
C2520 C 0.53983 0.90362 0.98694 0.0
C2521 C 0.54777 0.91199 0.00489 0.0
C2522 C 0.56335 0.92608 0.00769 0.0
C2523 C 0.57098 0.93186 0.99255 0.0
H2524 H 0.54188 0.90754 0.01663 0.0
H2525 H 0.62361 0.96611 0.87489 0.0
H2526 H 0.95621 0.71163 0.70397 0.0
H2527 H 0.92945 0.70811 0.71911 0.0
H2528 H 0.90851 0.74029 0.6831 0.0
H2529 H 0.9349 0.74359 0.66763 0.0
H2530 H 0.92195 0.74851 0.73253 0.0
H2531 H 0.88343 0.71417 0.67229 0.0
H2532 H 0.87421 0.68585 0.64793 0.0
H2533 H 0.86512 0.65148 0.68919 0.0
H2534 H 0.87457 0.67964 0.71376 0.0
H2535 H 0.85158 0.78793 0.74146 0.0
H2536 H 0.87463 0.77302 0.73168 0.0
H2537 H 0.84833 0.72196 0.74821 0.0
H2538 H 0.82458 0.73666 0.75736 0.0
H2539 H 0.85926 0.71423 0.7158 0.0
H2540 H 0.8848 0.7517 0.77349 0.0
H2541 H 0.89413 0.77938 0.79836 0.0
H2542 H 0.92802 0.80804 0.76415 0.0
H2543 H 0.91879 0.78062 0.73889 0.0
C2544 C 0.94567 0.71746 0.69888 0.0
C2545 C 0.94774 0.7281 0.68474 0.0
C2546 C 0.93036 0.71526 0.70744 0.0
C2547 C 0.91693 0.72356 0.70189 0.0
C2548 C 0.91852 0.73323 0.68711 0.0
C2549 C 0.93371 0.7353 0.67843 0.0
C2550 C 0.9034 0.72613 0.71394 0.0
C2551 C 0.90821 0.74108 0.72902 0.0
C2552 C 0.88576 0.71572 0.70971 0.0
C2553 C 0.88027 0.69892 0.69488 0.0
C2554 C 0.87986 0.70055 0.67618 0.0
C2555 C 0.87446 0.68454 0.66231 0.0
C2556 C 0.86925 0.66685 0.667 0.0
C2557 C 0.86931 0.66516 0.68556 0.0
C2558 C 0.87472 0.68114 0.69946 0.0
C2559 C 0.85075 0.7736 0.74321 0.0
C2560 C 0.8364 0.76352 0.75032 0.0
C2561 C 0.86397 0.7651 0.73767 0.0
C2562 C 0.86338 0.74654 0.73964 0.0
C2563 C 0.84906 0.73635 0.74673 0.0
C2564 C 0.83558 0.74478 0.75199 0.0
C2565 C 0.87755 0.73786 0.73345 0.0
C2566 C 0.87299 0.72158 0.71971 0.0
C2567 C 0.89549 0.74721 0.73888 0.0
C2568 C 0.90119 0.76384 0.75422 0.0
C2569 C 0.89429 0.76381 0.77119 0.0
C2570 C 0.89953 0.77953 0.78539 0.0
C2571 C 0.91171 0.79544 0.78287 0.0
C2572 C 0.91865 0.79567 0.76612 0.0
C2573 C 0.91345 0.77999 0.75186 0.0
H2574 H 0.91574 0.8076 0.79388 0.0
H2575 H 0.86504 0.65447 0.65625 0.0
H2576 H 0.12156 0.98839 0.82515 0.0
H2577 H 0.10805 0.98857 0.85416 0.0
H2578 H 0.12346 0.04886 0.86604 0.0
H2579 H 0.13631 0.0487 0.8369 0.0
H2580 H 0.12831 0.03263 0.89935 0.0
H2581 H 0.0821 0.02799 0.84942 0.0
H2582 H 0.06399 0.01319 0.81954 0.0
H2583 H 0.04746 0.96199 0.83983 0.0
H2584 H 0.06568 0.97643 0.86977 0.0
H2585 H 0.07382 0.04947 0.97256 0.0
H2586 H 0.09106 0.04908 0.9462 0.0
H2587 H 0.05934 0.99399 0.92169 0.0
H2588 H 0.04189 0.99484 0.94732 0.0
H2589 H 0.06384 0.00748 0.8947 0.0
H2590 H 0.10869 0.00767 0.94228 0.0
H2591 H 0.12768 0.01826 0.97224 0.0
H2592 H 0.1478 0.07179 0.95759 0.0
H2593 H 0.1289 0.06151 0.92752 0.0
C2594 C 0.12248 1.00171 0.83409 0.0
C2595 C 0.13057 0.01853 0.82844 0.0
C2596 C 0.11451 1.00184 0.85081 0.0
C2597 C 0.11451 0.01877 0.86288 0.0
C2598 C 0.12313 0.03548 0.8575 0.0
C2599 C 0.13064 0.03536 0.84063 0.0
C2600 C 0.10488 0.01926 0.88038 0.0
C2601 C 0.11417 0.02726 0.89821 0.0
C2602 C 0.08643 0.01184 0.87967 0.0
C2603 C 0.07538 1.00323 0.86176 0.0
C2604 C 0.07471 0.01354 0.84746 0.0
C2605 C 0.06441 0.00522 0.83052 0.0
C2606 C 0.05462 0.98664 0.82777 0.0
C2607 C 0.05507 0.97637 0.84197 0.0
C2608 C 0.06537 0.98462 0.85893 0.0
C2609 C 0.07069 0.03713 0.96174 0.0
C2610 C 0.0563 0.02211 0.96258 0.0
C2611 C 0.0807 0.03683 0.94639 0.0
C2612 C 0.07703 0.02137 0.93127 0.0
C2613 C 0.06284 0.00633 0.93253 0.0
C2614 C 0.05278 0.00676 0.94758 0.0
C2615 C 0.08719 0.02076 0.914 0.0
C2616 C 0.078 0.0128 0.89609 0.0
C2617 C 0.10582 0.02762 0.91476 0.0
C2618 C 0.11723 0.03391 0.93275 0.0
C2619 C 0.11708 0.02175 0.94551 0.0
C2620 C 0.12783 0.02769 0.9625 0.0
C2621 C 0.13884 0.04573 0.96687 0.0
C2622 C 0.13922 0.05784 0.9542 0.0
C2623 C 0.12852 0.05195 0.93716 0.0
H2624 H 0.14713 0.05031 0.98005 0.0
H2625 H 0.04665 0.98023 0.81465 0.0
H2626 H 0.79751 0.36001 0.52388 0.0
H2627 H 0.80611 0.34095 0.54542 0.0
H2628 H 0.80286 0.3834 0.59143 0.0
H2629 H 0.79495 0.40284 0.56995 0.0
H2630 H 0.83146 0.37132 0.59767 0.0
H2631 H 0.76981 0.34197 0.57614 0.0
H2632 H 0.74428 0.32665 0.55255 0.0
H2633 H 0.76981 0.28292 0.53386 0.0
H2634 H 0.79558 0.29812 0.55722 0.0
H2635 H 0.81305 0.32561 0.67163 0.0
H2636 H 0.81616 0.34274 0.64631 0.0
H2637 H 0.8212 0.29303 0.61008 0.0
H2638 H 0.81703 0.27542 0.63526 0.0
H2639 H 0.79665 0.3065 0.59556 0.0
H2640 H 0.85605 0.33372 0.62253 0.0
H2641 H 0.88019 0.34907 0.64765 0.0
H2642 H 0.85811 0.39705 0.65775 0.0
H2643 H 0.83371 0.38193 0.63284 0.0
C2644 C 0.79847 0.36518 0.53859 0.0
C2645 C 0.79544 0.38282 0.54528 0.0
C2646 C 0.80342 0.3543 0.55087 0.0
C2647 C 0.805 0.3607 0.57002 0.0
C2648 C 0.80181 0.37825 0.5767 0.0
C2649 C 0.79715 0.38926 0.56443 0.0
C2650 C 0.80974 0.3491 0.58321 0.0
C2651 C 0.82383 0.35717 0.5973 0.0
C2652 C 0.80017 0.33041 0.58228 0.0
C2653 C 0.78469 0.32129 0.56825 0.0
C2654 C 0.77002 0.32916 0.5669 0.0
C2655 C 0.75551 0.32049 0.55359 0.0
C2656 C 0.75545 0.30386 0.54167 0.0
C2657 C 0.76989 0.29583 0.54308 0.0
C2658 C 0.78445 0.30446 0.55635 0.0
C2659 C 0.81492 0.31833 0.6583 0.0
C2660 C 0.81444 0.29909 0.65531 0.0
C2661 C 0.81703 0.32824 0.6439 0.0
C2662 C 0.8191 0.31922 0.62633 0.0
C2663 C 0.8197 0.30027 0.62358 0.0
C2664 C 0.81739 0.29025 0.63797 0.0
C2665 C 0.81804 0.3289 0.61046 0.0
C2666 C 0.80462 0.32048 0.59577 0.0
C2667 C 0.82814 0.34732 0.61099 0.0
C2668 C 0.84299 0.35663 0.62581 0.0
C2669 C 0.85629 0.34751 0.63014 0.0
C2670 C 0.87003 0.35618 0.64435 0.0
C2671 C 0.87067 0.37402 0.65429 0.0
C2672 C 0.8576 0.38325 0.65001 0.0
C2673 C 0.84384 0.37465 0.63581 0.0
H2674 H 0.88129 0.38069 0.66531 0.0
H2675 H 0.7442 0.29716 0.53139 0.0
H2676 H 0.44713 0.04987 0.33637 0.0
H2677 H 0.46352 0.05218 0.36646 0.0
H2678 H 0.51224 0.07218 0.34497 0.0
H2679 H 0.49582 0.06865 0.31437 0.0
H2680 H 0.51678 0.04739 0.36238 0.0
H2681 H 0.49299 0.10028 0.37877 0.0
H2682 H 0.47061 0.1188 0.3817 0.0
H2683 H 0.44375 0.08245 0.41519 0.0
H2684 H 0.46579 0.06351 0.41223 0.0
H2685 H 0.56068 0.06785 0.45787 0.0
H2686 H 0.54772 0.074 0.42869 0.0
H2687 H 0.50225 0.02887 0.42771 0.0
H2688 H 0.51547 0.02201 0.45628 0.0
H2689 H 0.49902 0.07063 0.42292 0.0
H2690 H 0.52149 0.0154 0.40068 0.0
H2691 H 0.54536 0.99877 0.39867 0.0
H2692 H 0.57665 0.04362 0.37719 0.0
H2693 H 0.55302 0.06063 0.37935 0.0
C2694 C 0.46131 0.05511 0.33813 0.0
C2695 C 0.47021 0.05907 0.32302 0.0
C2696 C 0.4707 0.05656 0.35544 0.0
C2697 C 0.48917 0.06263 0.35818 0.0
C2698 C 0.49801 0.06743 0.34325 0.0
C2699 C 0.48864 0.06548 0.32579 0.0
C2700 C 0.49925 0.06214 0.37605 0.0
C2701 C 0.51305 0.05289 0.37557 0.0
C2702 C 0.49439 0.06907 0.39341 0.0
C2703 C 0.48101 0.08038 0.39515 0.0
C2704 C 0.48223 0.09613 0.38663 0.0
C2705 C 0.46961 0.10672 0.38832 0.0
C2706 C 0.45575 0.10178 0.39859 0.0
C2707 C 0.45449 0.08625 0.40722 0.0
C2708 C 0.46706 0.0756 0.40556 0.0
C2709 C 0.54798 0.05918 0.45134 0.0
C2710 C 0.53893 0.04463 0.45941 0.0
C2711 C 0.5406 0.06275 0.43478 0.0
C2712 C 0.52401 0.05198 0.42627 0.0
C2713 C 0.51501 0.0374 0.43424 0.0
C2714 C 0.52255 0.03355 0.45053 0.0
C2715 C 0.51604 0.05573 0.40891 0.0
C2716 C 0.50274 0.06553 0.4096 0.0
C2717 C 0.52148 0.04963 0.39178 0.0
C2718 C 0.53562 0.03938 0.39042 0.0
C2719 C 0.53354 0.0218 0.39573 0.0
C2720 C 0.547 0.01229 0.39452 0.0
C2721 C 0.56254 0.02017 0.38788 0.0
C2722 C 0.56462 0.03755 0.38238 0.0
C2723 C 0.5512 0.04713 0.38358 0.0
H2724 H 0.57295 0.01278 0.38694 0.0
H2725 H 0.446 0.11001 0.39989 0.0
H2726 H 0.74865 0.68182 0.05754 0.0
H2727 H 0.75324 0.70109 0.08839 0.0
H2728 H 0.80011 0.73643 0.07511 0.0
H2729 H 0.79537 0.71725 0.0438 0.0
H2730 H 0.80388 0.72226 0.10975 0.0
H2731 H 0.7678 0.75519 0.07907 0.0
H2732 H 0.74215 0.75803 0.05896 0.0
H2733 H 0.7074 0.73348 0.09486 0.0
H2734 H 0.73284 0.73024 0.11506 0.0
H2735 H 0.81363 0.77914 0.19902 0.0
H2736 H 0.81196 0.76895 0.16562 0.0
H2737 H 0.75744 0.74014 0.16347 0.0
H2738 H 0.75882 0.75114 0.19665 0.0
H2739 H 0.76007 0.75498 0.135 0.0
H2740 H 0.79408 0.7177 0.16295 0.0
H2741 H 0.81862 0.71248 0.18304 0.0
H2742 H 0.85587 0.74224 0.15251 0.0
H2743 H 0.83154 0.74782 0.13236 0.0
C2744 C 0.75986 0.69381 0.06107 0.0
C2745 C 0.77167 0.698 0.04822 0.0
C2746 C 0.76243 0.70483 0.07871 0.0
C2747 C 0.777 0.7202 0.08406 0.0
C2748 C 0.78877 0.72463 0.07124 0.0
C2749 C 0.786 0.71375 0.05335 0.0
C2750 C 0.78005 0.73098 0.10332 0.0
C2751 C 0.79453 0.7298 0.11522 0.0
C2752 C 0.76757 0.7403 0.11055 0.0
C2753 C 0.75224 0.74236 0.09852 0.0
C2754 C 0.75469 0.75027 0.08261 0.0
C2755 C 0.74018 0.75198 0.07121 0.0
C2756 C 0.72315 0.74591 0.07561 0.0
C2757 C 0.7206 0.73817 0.09146 0.0
C2758 C 0.73506 0.73642 0.10291 0.0
C2759 C 0.80127 0.77068 0.19141 0.0
C2760 C 0.78638 0.76588 0.20053 0.0
C2761 C 0.80035 0.76476 0.17228 0.0
C2762 C 0.78466 0.7534 0.16192 0.0
C2763 C 0.76972 0.74887 0.17103 0.0
C2764 C 0.77053 0.75514 0.19006 0.0
C2765 C 0.78374 0.74598 0.1417 0.0
C2766 C 0.76961 0.74772 0.12958 0.0
C2767 C 0.79639 0.73687 0.13433 0.0
C2768 C 0.81101 0.73335 0.14629 0.0
C2769 C 0.80751 0.72322 0.16059 0.0
C2770 C 0.82138 0.72019 0.17198 0.0
C2771 C 0.8388 0.72708 0.16909 0.0
C2772 C 0.84238 0.73695 0.15475 0.0
C2773 C 0.82856 0.74003 0.14334 0.0
H2774 H 0.84951 0.72473 0.17793 0.0
H2775 H 0.71194 0.74724 0.06676 0.0
H2776 H 0.15625 0.02552 0.70326 0.0
H2777 H 0.14131 0.02805 0.67351 0.0
H2778 H 0.09251 0.9961 0.68618 0.0
H2779 H 0.10735 0.99404 0.71635 0.0
H2780 H 0.09911 0.9845 0.64804 0.0
H2781 H 0.09773 0.04176 0.68858 0.0
H2782 H 0.11099 0.07114 0.71074 0.0
H2783 H 0.14344 0.09119 0.67088 0.0
H2784 H 0.13054 0.0618 0.64855 0.0
H2785 H 0.04547 0.99763 0.56959 0.0
H2786 H 0.05858 0.99462 0.59987 0.0
H2787 H 0.09935 0.04448 0.601 0.0
H2788 H 0.08518 0.04833 0.57148 0.0
H2789 H 0.09679 0.0465 0.63305 0.0
H2790 H 0.10175 0.99089 0.59329 0.0
H2791 H 0.0917 0.96141 0.57045 0.0
H2792 H 0.05706 0.93794 0.607 0.0
H2793 H 0.06678 0.96736 0.62999 0.0
C2794 C 0.14232 0.01898 0.69984 0.0
C2795 C 0.13321 0.00954 0.71262 0.0
C2796 C 0.13368 0.02049 0.68263 0.0
C2797 C 0.11554 0.01232 0.67711 0.0
C2798 C 0.10644 1.00259 0.6897 0.0
C2799 C 0.11501 1.00144 0.70716 0.0
C2800 C 0.10622 0.01417 0.65849 0.0
C2801 C 0.09843 0.99809 0.64491 0.0
C2802 C 0.10564 0.03178 0.65362 0.0
C2803 C 0.11328 0.04951 0.66696 0.0
C2804 C 0.10779 0.05237 0.68459 0.0
C2805 C 0.11522 0.06904 0.69717 0.0
C2806 C 0.12808 0.083 0.69224 0.0
C2807 C 0.13349 0.08035 0.67469 0.0
C2808 C 0.12611 0.0637 0.66206 0.0
C2809 C 0.05727 0.00797 0.57623 0.0
C2810 C 0.06415 0.0232 0.56765 0.0
C2811 C 0.06506 0.00611 0.59374 0.0
C2812 C 0.08067 0.0189 0.60327 0.0
C2813 C 0.08748 0.03416 0.59458 0.0
C2814 C 0.07932 0.03636 0.57737 0.0
C2815 C 0.08964 0.01675 0.62216 0.0
C2816 C 0.09741 0.03282 0.63592 0.0
C2817 C 0.09067 0.99911 0.62698 0.0
C2818 C 0.08485 0.98139 0.61326 0.0
C2819 C 0.09192 0.97947 0.59641 0.0
C2820 C 0.08629 0.96277 0.58345 0.0
C2821 C 0.0737 0.94783 0.58725 0.0
C2822 C 0.06678 0.94954 0.60406 0.0
C2823 C 0.07235 0.96621 0.61707 0.0
H2824 H 0.06935 0.93492 0.57719 0.0
H2825 H 0.13382 0.09589 0.702 0.0
H2826 H 0.80145 0.42242 0.42816 0.0
H2827 H 0.8051 0.4017 0.40025 0.0
H2828 H 0.79081 0.35388 0.42676 0.0
H2829 H 0.78757 0.37446 0.45477 0.0
H2830 H 0.81838 0.35165 0.40937 0.0
H2831 H 0.76176 0.36399 0.39441 0.0
H2832 H 0.74055 0.38342 0.3903 0.0
H2833 H 0.7696 0.4076 0.34994 0.0
H2834 H 0.79114 0.38849 0.354 0.0
H2835 H 0.79194 0.27854 0.32881 0.0
H2836 H 0.79594 0.3007 0.35814 0.0
H2837 H 0.81432 0.3467 0.33034 0.0
H2838 H 0.81019 0.32475 0.3011 0.0
H2839 H 0.7864 0.35081 0.34822 0.0
H2840 H 0.84193 0.33603 0.36196 0.0
H2841 H 0.86196 0.31528 0.36572 0.0
H2842 H 0.83364 0.29421 0.40805 0.0
H2843 H 0.81327 0.31464 0.40435 0.0
C2844 C 0.79899 0.40748 0.428 0.0
C2845 C 0.79419 0.40008 0.44366 0.0
C2846 C 0.80107 0.39566 0.41204 0.0
C2847 C 0.79811 0.37623 0.4114 0.0
C2848 C 0.79324 0.36883 0.42698 0.0
C2849 C 0.79131 0.38063 0.44296 0.0
C2850 C 0.80007 0.36352 0.39452 0.0
C2851 C 0.81126 0.35133 0.39601 0.0
C2852 C 0.79106 0.36338 0.37705 0.0
C2853 C 0.77818 0.37497 0.37468 0.0
C2854 C 0.76372 0.37358 0.38479 0.0
C2855 C 0.75162 0.38451 0.38244 0.0
C2856 C 0.75375 0.39678 0.36991 0.0
C2857 C 0.76798 0.39812 0.35967 0.0
C2858 C 0.78014 0.38724 0.36199 0.0
C2859 C 0.79729 0.29332 0.32909 0.0
C2860 C 0.8006 0.29998 0.31271 0.0
C2861 C 0.79958 0.30596 0.34583 0.0
C2862 C 0.80533 0.32533 0.34634 0.0
C2863 C 0.8098 0.33181 0.33019 0.0
C2864 C 0.80749 0.31924 0.31353 0.0
C2865 C 0.80468 0.33894 0.36306 0.0
C2866 C 0.79366 0.35125 0.36154 0.0
C2867 C 0.81371 0.33904 0.38047 0.0
C2868 C 0.82597 0.32676 0.38276 0.0
C2869 C 0.83987 0.32686 0.37196 0.0
C2870 C 0.85131 0.31517 0.3741 0.0
C2871 C 0.84905 0.3034 0.38708 0.0
C2872 C 0.83537 0.30332 0.39798 0.0
C2873 C 0.82388 0.31497 0.39588 0.0
H2874 H 0.85792 0.29437 0.38872 0.0
H2875 H 0.74436 0.40521 0.3681 0.0
H2876 H 0.40098 0.01504 0.2125 0.0
H2877 H 0.40795 0.00503 0.18136 0.0
H2878 H 0.45066 0.05441 0.18893 0.0
H2879 H 0.44401 0.06436 0.22014 0.0
H2880 H 0.4308 0.04109 0.15061 0.0
H2881 H 0.46013 0.01852 0.20375 0.0
H2882 H 0.45611 1.00052 0.22901 0.0
H2883 H 0.42483 0.9526 0.19055 0.0
H2884 H 0.42851 0.97043 0.16513 0.0
H2885 H 0.51882 0.03383 0.13807 0.0
H2886 H 0.49358 0.02499 0.15477 0.0
H2887 H 0.45977 1.00343 0.10296 0.0
H2888 H 0.48502 0.0124 0.08629 0.0
H2889 H 0.46517 0.99316 0.15582 0.0
H2890 H 0.42505 0.02005 0.10754 0.0
H2891 H 0.42774 0.03548 0.08037 0.0
H2892 H 0.47762 0.07099 0.10635 0.0
H2893 H 0.47512 0.05574 0.13366 0.0
C2894 C 0.41154 0.02404 0.20733 0.0
C2895 C 0.42216 0.04036 0.2188 0.0
C2896 C 0.41542 0.01832 0.18953 0.0
C2897 C 0.42979 0.029 0.18294 0.0
C2898 C 0.43942 0.04609 0.19378 0.0
C2899 C 0.43572 0.05167 0.21164 0.0
C2900 C 0.43708 0.0211 0.16661 0.0
C2901 C 0.43789 0.03022 0.15143 0.0
C2902 C 0.446 0.00665 0.16749 0.0
C2903 C 0.44455 0.99578 0.18261 0.0
C2904 C 0.45243 0.00414 0.20071 0.0
C2905 C 0.45018 0.99399 0.21505 0.0
C2906 C 0.44022 0.97543 0.21138 0.0
C2907 C 0.43254 0.96697 0.19336 0.0
C2908 C 0.43471 0.97708 0.179 0.0
C2909 C 0.5061 0.02676 0.13029 0.0
C2910 C 0.50366 0.02424 0.11096 0.0
C2911 C 0.49173 0.02158 0.1398 0.0
C2912 C 0.47481 0.01377 0.13006 0.0
C2913 C 0.4727 0.00959 0.1107 0.0
C2914 C 0.48704 0.0149 0.10122 0.0
C2915 C 0.45944 0.01366 0.14022 0.0
C2916 C 0.45727 1.00321 0.15437 0.0
C2917 C 0.44884 0.02646 0.13806 0.0
C2918 C 0.44984 0.03685 0.12257 0.0
C2919 C 0.43645 0.03132 0.1075 0.0
C2920 C 0.43799 0.03996 0.09207 0.0
C2921 C 0.45284 0.05423 0.09165 0.0
C2922 C 0.46611 0.05997 0.10672 0.0
C2923 C 0.46462 0.05137 0.12218 0.0
H2924 H 0.45407 0.06082 0.07964 0.0
H2925 H 0.43847 0.96759 0.22248 0.0
H2926 H 0.77998 0.67529 0.91741 0.0
H2927 H 0.78409 0.69007 0.89038 0.0
H2928 H 0.78533 0.74374 0.92358 0.0
H2929 H 0.78083 0.72893 0.95064 0.0
H2930 H 0.76606 0.73998 0.89182 0.0
H2931 H 0.82335 0.73154 0.90999 0.0
H2932 H 0.84526 0.71406 0.91816 0.0
H2933 H 0.83217 0.6786 0.86453 0.0
H2934 H 0.81 0.69571 0.85612 0.0
H2935 H 0.82632 0.7824 0.82303 0.0
H2936 H 0.82171 0.76709 0.84967 0.0
H2937 H 0.76774 0.74182 0.82639 0.0
H2938 H 0.77237 0.75722 0.79957 0.0
H2939 H 0.81359 0.73187 0.85351 0.0
H2940 H 0.7423 0.73799 0.86249 0.0
H2941 H 0.72281 0.75949 0.85948 0.0
H2942 H 0.7679 0.80544 0.86345 0.0
H2943 H 0.78765 0.78426 0.86659 0.0
C2944 C 0.78119 0.69026 0.91901 0.0
C2945 C 0.78014 0.70092 0.93627 0.0
C2946 C 0.78361 0.69872 0.90351 0.0
C2947 C 0.78523 0.7181 0.90489 0.0
C2948 C 0.78412 0.72877 0.9221 0.0
C2949 C 0.78162 0.72029 0.93761 0.0
C2950 C 0.78791 0.72721 0.88838 0.0
C2951 C 0.77641 0.73812 0.8834 0.0
C2952 C 0.80158 0.7251 0.87748 0.0
C2953 C 0.81489 0.71478 0.8825 0.0
C2954 C 0.82504 0.71992 0.89999 0.0
C2955 C 0.83753 0.71009 0.90466 0.0
C2956 C 0.84007 0.6952 0.89189 0.0
C2957 C 0.83017 0.69012 0.87441 0.0
C2958 C 0.81765 0.69988 0.86968 0.0
C2959 C 0.81347 0.77353 0.82352 0.0
C2960 C 0.79961 0.77123 0.80931 0.0
C2961 C 0.81085 0.76477 0.83879 0.0
C2962 C 0.79429 0.75349 0.84026 0.0
C2963 C 0.78053 0.75074 0.8258 0.0
C2964 C 0.78319 0.75948 0.81045 0.0
C2965 C 0.79164 0.74453 0.85684 0.0
C2966 C 0.80312 0.73358 0.86181 0.0
C2967 C 0.77818 0.74695 0.86795 0.0
C2968 C 0.76644 0.75949 0.86463 0.0
C2969 C 0.74805 0.75267 0.86263 0.0
C2970 C 0.73696 0.76481 0.861 0.0
C2971 C 0.74413 0.78385 0.86149 0.0
C2972 C 0.76238 0.79071 0.8632 0.0
C2973 C 0.77353 0.77862 0.8648 0.0
H2974 H 0.73552 0.79325 0.86038 0.0
H2975 H 0.84975 0.68761 0.89553 0.0
H2976 H 0.7956 0.07059 0.03718 0.0
H2977 H 0.82224 0.05869 0.03793 0.0
H2978 H 0.85217 0.11144 0.02794 0.0
H2979 H 0.82559 0.12326 0.02672 0.0
H2980 H 0.85824 0.08366 0.00504 0.0
H2981 H 0.85724 0.09781 0.07029 0.0
H2982 H 0.8445 0.09721 0.09958 0.0
H2983 H 0.83662 0.03733 0.09094 0.0
H2984 H 0.84909 0.03754 0.06144 0.0
H2985 H 0.94159 0.06343 0.01592 0.0
H2986 H 0.91719 0.07789 0.02245 0.0
H2987 H 0.88497 0.02415 0.0271 0.0
H2988 H 0.90955 0.00963 0.02106 0.0
H2989 H 0.88085 0.05317 0.05382 0.0
H2990 H 0.88115 0.03964 0.98776 0.0
H2991 H 0.89435 0.04094 0.95878 0.0
H2992 H 0.90394 0.10101 0.96964 0.0
H2993 H 0.89114 0.10009 0.99889 0.0
C2994 C 0.8079 0.07972 0.03536 0.0
C2995 C 0.80846 0.09781 0.03176 0.0
C2996 C 0.82313 0.07294 0.03589 0.0
C2997 C 0.83921 0.08422 0.03309 0.0
C2998 C 0.83989 0.10248 0.03008 0.0
C2999 C 0.82468 0.10921 0.02939 0.0
C3000 C 0.85505 0.07658 0.0319 0.0
C3001 C 0.86335 0.0773 0.01588 0.0
C3002 C 0.86147 0.06787 0.04583 0.0
C3003 C 0.85395 0.06768 0.06356 0.0
C3004 C 0.85265 0.0845 0.07455 0.0
C3005 C 0.84551 0.08423 0.09121 0.0
C3006 C 0.83971 0.06724 0.09709 0.0
C3007 C 0.84109 0.05048 0.08635 0.0
C3008 C 0.84822 0.05067 0.06967 0.0
C3009 C 0.92939 0.05474 0.01862 0.0
C3010 C 0.92741 0.03539 0.01795 0.0
C3011 C 0.91546 0.06301 0.02226 0.0
C3012 C 0.89926 0.05203 0.02506 0.0
C3013 C 0.89739 0.03282 0.02495 0.0
C3014 C 0.91135 0.02454 0.02134 0.0
C3015 C 0.88395 0.06037 0.02703 0.0
C3016 C 0.87575 0.05969 0.04311 0.0
C3017 C 0.87765 0.06925 0.01321 0.0
C3018 C 0.88534 0.0698 0.9956 0.0
C3019 C 0.88622 0.05313 0.98405 0.0
C3020 C 0.89362 0.0538 0.96757 0.0
C3021 C 0.90002 0.07105 0.96239 0.0
C3022 C 0.899 0.08766 0.97367 0.0
C3023 C 0.8917 0.08708 0.99021 0.0
H3024 H 0.90573 0.07154 0.94961 0.0
H3025 H 0.83419 0.06706 0.11 0.0
H3026 H 0.36043 0.40841 0.03873 0.0
H3027 H 0.39205 0.42173 0.03862 0.0
H3028 H 0.38101 0.47448 0.0311 0.0
H3029 H 0.34976 0.46137 0.03097 0.0
H3030 H 0.4009 0.4632 0.00616 0.0
H3031 H 0.40036 0.46757 0.07265 0.0
H3032 H 0.39545 0.45451 0.1009 0.0
H3033 H 0.43169 0.42005 0.08853 0.0
H3034 H 0.43665 0.43275 0.06007 0.0
H3035 H 0.47639 0.53471 0.02467 0.0
H3036 H 0.4485 0.51347 0.02687 0.0
H3037 H 0.47537 0.46995 0.03408 0.0
H3038 H 0.50368 0.49163 0.03255 0.0
H3039 H 0.44942 0.47003 0.05638 0.0
H3040 H 0.45321 0.46923 0.99229 0.0
H3041 H 0.45899 0.48343 0.96485 0.0
H3042 H 0.41666 0.51074 0.97232 0.0
H3043 H 0.41082 0.49699 1.0 0.0
C3044 C 0.36482 0.42292 0.03733 0.0
C3045 C 0.35252 0.43376 0.0347 0.0
C3046 C 0.38288 0.43051 0.03725 0.0
C3047 C 0.38892 0.4491 0.03473 0.0
C3048 C 0.3767 0.46007 0.03287 0.0
C3049 C 0.35878 0.45252 0.03284 0.0
C3050 C 0.40772 0.45722 0.03304 0.0
C3051 C 0.41148 0.46474 0.01719 0.0
C3052 C 0.4217 0.45853 0.04704 0.0
C3053 C 0.41869 0.45092 0.06412 0.0
C3054 C 0.40716 0.45708 0.07587 0.0
C3055 C 0.40439 0.44978 0.09194 0.0
C3056 C 0.4132 0.43641 0.09647 0.0
C3057 C 0.42484 0.43037 0.08498 0.0
C3058 C 0.42764 0.43762 0.06888 0.0
C3059 C 0.47641 0.52065 0.02679 0.0
C3060 C 0.49217 0.51474 0.0282 0.0
C3061 C 0.46043 0.50847 0.02798 0.0
C3062 C 0.45974 0.48994 0.0302 0.0
C3063 C 0.47555 0.48413 0.03221 0.0
C3064 C 0.49168 0.49647 0.03123 0.0
C3065 C 0.44234 0.47682 0.02992 0.0
C3066 C 0.43888 0.46821 0.04523 0.0
C3067 C 0.42856 0.47439 0.01538 0.0
C3068 C 0.43162 0.48212 0.99829 0.0
C3069 C 0.44515 0.47829 0.98811 0.0
C3070 C 0.44845 0.48629 0.97251 0.0
C3071 C 0.43821 0.49801 0.96686 0.0
C3072 C 0.42458 0.50166 0.97672 0.0
C3073 C 0.42125 0.49375 0.99235 0.0
H3074 H 0.44083 0.5043 0.95487 0.0
H3075 H 0.41105 0.43078 0.10892 0.0
H3076 H 0.41172 0.63149 0.76217 0.0
H3077 H 0.39784 0.65799 0.76326 0.0
H3078 H 0.34665 0.61968 0.75235 0.0
H3079 H 0.36064 0.59311 0.75053 0.0
H3080 H 0.34248 0.64555 0.73574 0.0
H3081 H 0.36912 0.65328 0.79881 0.0
H3082 H 0.39349 0.65681 0.82358 0.0
H3083 H 0.42225 0.70574 0.80602 0.0
H3084 H 0.39802 0.70255 0.78119 0.0
H3085 H 0.29321 0.71527 0.75965 0.0
H3086 H 0.30796 0.68942 0.75844 0.0
H3087 H 0.35836 0.72879 0.76535 0.0
H3088 H 0.34357 0.75474 0.76667 0.0
H3089 H 0.36339 0.70299 0.78379 0.0
H3090 H 0.3368 0.69658 0.72199 0.0
H3091 H 0.31289 0.69361 0.69693 0.0
H3092 H 0.28475 0.64249 0.71121 0.0
H3093 H 0.30839 0.6453 0.73655 0.0
C3094 C 0.39748 0.62855 0.76006 0.0
C3095 C 0.38758 0.60963 0.75636 0.0
C3096 C 0.38935 0.64402 0.76088 0.0
C3097 C 0.37076 0.64163 0.75838 0.0
C3098 C 0.36089 0.62266 0.75448 0.0
C3099 C 0.36903 0.60717 0.7535 0.0
C3100 C 0.3617 0.65849 0.7595 0.0
C3101 C 0.34704 0.65787 0.74654 0.0
C3102 C 0.36739 0.67544 0.77302 0.0
C3103 C 0.38184 0.67756 0.78806 0.0
C3104 C 0.38066 0.66476 0.80022 0.0
C3105 C 0.39443 0.66673 0.81429 0.0
C3106 C 0.40941 0.68149 0.81636 0.0
C3107 C 0.41063 0.69434 0.80441 0.0
C3108 C 0.39686 0.6925 0.79038 0.0
C3109 C 0.30745 0.71863 0.76093 0.0
C3110 C 0.31688 0.73766 0.76332 0.0
C3111 C 0.31605 0.70354 0.76008 0.0
C3112 C 0.33466 0.70644 0.76148 0.0
C3113 C 0.34411 0.72549 0.76416 0.0
C3114 C 0.3355 0.74061 0.76492 0.0
C3115 C 0.34406 0.68988 0.76019 0.0
C3116 C 0.35879 0.6906 0.77306 0.0
C3117 C 0.33848 0.67306 0.74654 0.0
C3118 C 0.32428 0.67125 0.73129 0.0
C3119 C 0.32546 0.68477 0.71987 0.0
C3120 C 0.31196 0.68311 0.7056 0.0
C3121 C 0.29729 0.6679 0.70251 0.0
C3122 C 0.29611 0.65428 0.71364 0.0
C3123 C 0.30956 0.6559 0.72795 0.0
H3124 H 0.28685 0.66663 0.69146 0.0
H3125 H 0.42007 0.68297 0.82724 0.0
H3126 H 0.22236 0.64976 0.48566 0.0
H3127 H 0.19075 0.64154 0.47501 0.0
H3128 H 0.18639 0.58711 0.48993 0.0
H3129 H 0.21808 0.59495 0.49978 0.0
H3130 H 0.16367 0.58382 0.46097 0.0
H3131 H 0.18054 0.62576 0.52061 0.0
H3132 H 0.1963 0.65496 0.5419 0.0
H3133 H 0.17182 0.68717 0.50906 0.0
H3134 H 0.15605 0.65813 0.48746 0.0
H3135 H 0.09181 0.58393 0.52137 0.0
H3136 H 0.11965 0.59988 0.51326 0.0
H3137 H 0.09947 0.58275 0.45526 0.0
H3138 H 0.07156 0.56578 0.46334 0.0
H3139 H 0.13284 0.62608 0.49693 0.0
H3140 H 0.13289 0.57385 0.43171 0.0
H3141 H 0.11744 0.54183 0.41579 0.0
H3142 H 0.10887 0.52567 0.46804 0.0
H3143 H 0.12439 0.5575 0.48429 0.0
C3144 C 0.21467 0.63592 0.48635 0.0
C3145 C 0.22254 0.62307 0.49381 0.0
C3146 C 0.19664 0.63125 0.48024 0.0
C3147 C 0.18616 0.61386 0.48202 0.0
C3148 C 0.19422 0.6006 0.48841 0.0
C3149 C 0.21231 0.60513 0.49416 0.0
C3150 C 0.16669 0.61019 0.47945 0.0
C3151 C 0.15689 0.59319 0.46859 0.0
C3152 C 0.15782 0.62239 0.48942 0.0
C3153 C 0.16733 0.63985 0.5023 0.0
C3154 C 0.17863 0.6391 0.51787 0.0
C3155 C 0.18755 0.6556 0.52999 0.0
C3156 C 0.18512 0.67291 0.52679 0.0
C3157 C 0.17373 0.67375 0.51148 0.0
C3158 C 0.1648 0.65728 0.4993 0.0
C3159 C 0.09311 0.58374 0.50687 0.0
C3160 C 0.0796 0.57326 0.493 0.0
C3161 C 0.10906 0.59301 0.50223 0.0
C3162 C 0.1118 0.59226 0.48363 0.0
C3163 C 0.09778 0.58319 0.4697 0.0
C3164 C 0.08183 0.57356 0.47435 0.0
C3165 C 0.12992 0.59921 0.47936 0.0
C3166 C 0.13951 0.61699 0.48874 0.0
C3167 C 0.13867 0.58734 0.46874 0.0
C3168 C 0.12958 0.56808 0.45916 0.0
C3169 C 0.12773 0.56343 0.43978 0.0
C3170 C 0.11896 0.54531 0.43071 0.0
C3171 C 0.11205 0.53174 0.44088 0.0
C3172 C 0.11408 0.53621 0.46017 0.0
C3173 C 0.12288 0.55427 0.46932 0.0
H3174 H 0.10517 0.51776 0.43384 0.0
H3175 H 0.19202 0.68568 0.5362 0.0
H3176 H 0.70077 0.99006 0.72132 0.0
H3177 H 0.72183 0.97147 0.72794 0.0
H3178 H 0.68927 0.94699 0.766 0.0
H3179 H 0.66799 0.96541 0.75931 0.0
H3180 H 0.72543 0.96075 0.78016 0.0
H3181 H 0.68904 0.92077 0.72726 0.0
H3182 H 0.67332 0.9125 0.69559 0.0
H3183 H 0.7224 0.92694 0.67366 0.0
H3184 H 0.7384 0.93559 0.70525 0.0
H3185 H 0.77023 0.88907 0.79108 0.0
H3186 H 0.74859 0.90732 0.78589 0.0
H3187 H 0.77587 0.92798 0.74237 0.0
H3188 H 0.79756 0.90964 0.74746 0.0
H3189 H 0.74139 0.91545 0.73147 0.0
H3190 H 0.77776 0.95621 0.78461 0.0
H3191 H 0.79335 0.96435 0.81635 0.0
H3192 H 0.74429 0.94831 0.83791 0.0
H3193 H 0.72842 0.93984 0.80626 0.0
C3194 C 0.69805 0.98065 0.73103 0.0
C3195 C 0.68274 0.97914 0.73978 0.0
C3196 C 0.71005 0.97003 0.73475 0.0
C3197 C 0.707 0.95786 0.74738 0.0
C3198 C 0.69178 0.95633 0.75619 0.0
C3199 C 0.67964 0.96678 0.7523 0.0
C3200 C 0.71997 0.94701 0.75159 0.0
C3201 C 0.72878 0.95063 0.76961 0.0
C3202 C 0.72449 0.93415 0.73767 0.0
C3203 C 0.71491 0.92904 0.71865 0.0
C3204 C 0.69647 0.92238 0.7157 0.0
C3205 C 0.68751 0.91758 0.69776 0.0
C3206 C 0.69685 0.91925 0.68262 0.0
C3207 C 0.71518 0.92569 0.6854 0.0
C3208 C 0.7242 0.93053 0.70332 0.0
C3209 C 0.77184 0.89783 0.78068 0.0
C3210 C 0.78565 0.89806 0.76975 0.0
C3211 C 0.75944 0.9082 0.7777 0.0
C3212 C 0.76073 0.91913 0.76386 0.0
C3213 C 0.77466 0.91962 0.75312 0.0
C3214 C 0.78702 0.90917 0.75604 0.0
C3215 C 0.74709 0.92936 0.76001 0.0
C3216 C 0.73809 0.92557 0.74205 0.0
C3217 C 0.74241 0.94208 0.77399 0.0
C3218 C 0.75192 0.94723 0.79305 0.0
C3219 C 0.77031 0.95428 0.79611 0.0
C3220 C 0.7792 0.95898 0.81408 0.0
C3221 C 0.76983 0.95681 0.82913 0.0
C3222 C 0.75154 0.94997 0.82624 0.0
C3223 C 0.74259 0.94524 0.80828 0.0
H3224 H 0.77673 0.96045 0.84304 0.0
H3225 H 0.68989 0.91551 0.66874 0.0
H3226 H 0.73256 0.8898 0.52836 0.0
H3227 H 0.70783 0.90482 0.52702 0.0
H3228 H 0.74419 0.95926 0.53951 0.0
H3229 H 0.76893 0.94436 0.54113 0.0
H3230 H 0.71696 0.95898 0.55887 0.0
H3231 H 0.72432 0.93967 0.4953 0.0
H3232 H 0.72666 0.91722 0.46771 0.0
H3233 H 0.67465 0.88464 0.47003 0.0
H3234 H 0.6721 0.90677 0.4978 0.0
H3235 H 0.66187 0.01556 0.53162 0.0
H3236 H 0.68492 0.99851 0.53383 0.0
H3237 H 0.64566 0.94603 0.52129 0.0
H3238 H 0.62246 0.96302 0.5184 0.0
H3239 H 0.6733 0.94402 0.50257 0.0
H3240 H 0.66555 0.96425 0.56553 0.0
H3241 H 0.66331 0.98694 0.59296 0.0
H3242 H 0.71616 0.01799 0.59173 0.0
H3243 H 0.71863 0.99562 0.56412 0.0
C3244 C 0.73529 0.90497 0.53088 0.0
C3245 C 0.75273 0.91588 0.53478 0.0
C3246 C 0.72113 0.91354 0.53003 0.0
C3247 C 0.72413 0.93319 0.53293 0.0
C3248 C 0.74152 0.94409 0.53719 0.0
C3249 C 0.75567 0.93554 0.53807 0.0
C3250 C 0.70921 0.94244 0.53145 0.0
C3251 C 0.70753 0.95585 0.54647 0.0
C3252 C 0.69661 0.93805 0.51547 0.0
C3253 C 0.6981 0.92477 0.49874 0.0
C3254 C 0.71344 0.92764 0.49001 0.0
C3255 C 0.71479 0.91499 0.47433 0.0
C3256 C 0.70083 0.89949 0.46716 0.0
C3257 C 0.68547 0.89664 0.47562 0.0
C3258 C 0.68405 0.90923 0.49133 0.0
C3259 C 0.6581 1.00038 0.5291 0.0
C3260 C 0.64026 0.99069 0.5248 0.0
C3261 C 0.67132 0.99064 0.53059 0.0
C3262 C 0.66704 0.97097 0.52799 0.0
C3263 C 0.64928 0.96121 0.52345 0.0
C3264 C 0.63602 0.97095 0.52194 0.0
C3265 C 0.68115 0.96068 0.52993 0.0
C3266 C 0.68267 0.94708 0.515 0.0
C3267 C 0.69363 0.96491 0.54599 0.0
C3268 C 0.69222 0.97834 0.56266 0.0
C3269 C 0.67665 0.97599 0.57102 0.0
C3270 C 0.67534 0.98879 0.58662 0.0
C3271 C 0.68957 1.00392 0.59406 0.0
C3272 C 0.70515 0.00627 0.58594 0.0
C3273 C 0.70651 0.99353 0.57033 0.0
H3274 H 0.68853 0.01381 0.60613 0.0
H3275 H 0.70191 0.88971 0.45501 0.0
H3276 H 0.36154 0.49639 0.74252 0.0
H3277 H 0.34315 0.46509 0.74317 0.0
H3278 H 0.38948 0.44761 0.76162 0.0
H3279 H 0.40768 0.47812 0.7599 0.0
H3280 H 0.37227 0.41962 0.74121 0.0
H3281 H 0.35281 0.45819 0.78962 0.0
H3282 H 0.34074 0.48413 0.80402 0.0
H3283 H 0.29311 0.46296 0.76612 0.0
H3284 H 0.30499 0.437 0.75135 0.0
H3285 H 0.32522 0.33723 0.77396 0.0
H3286 H 0.34264 0.36904 0.7733 0.0
H3287 H 0.30084 0.37735 0.73627 0.0
H3288 H 0.28382 0.34548 0.73624 0.0
H3289 H 0.31494 0.4093 0.76592 0.0
H3290 H 0.33569 0.36977 0.71882 0.0
H3291 H 0.34817 0.34324 0.70694 0.0
H3292 H 0.39455 0.36625 0.74632 0.0
H3293 H 0.38223 0.39284 0.75861 0.0
C3294 C 0.36779 0.48592 0.74681 0.0
C3295 C 0.3863 0.49015 0.75112 0.0
C3296 C 0.35717 0.46782 0.74732 0.0
C3297 C 0.36456 0.45339 0.7527 0.0
C3298 C 0.38303 0.4579 0.75723 0.0
C3299 C 0.39357 0.47568 0.75633 0.0
C3300 C 0.35355 0.43363 0.75338 0.0
C3301 C 0.35989 0.41765 0.74694 0.0
C3302 C 0.33703 0.43019 0.76048 0.0
C3303 C 0.32987 0.44579 0.76925 0.0
C3304 C 0.33982 0.45915 0.78428 0.0
C3305 C 0.333 0.47384 0.79252 0.0
C3306 C 0.31619 0.47523 0.78595 0.0
C3307 C 0.30614 0.46189 0.77117 0.0
C3308 C 0.3129 0.44718 0.76286 0.0
C3309 C 0.31977 0.3457 0.76551 0.0
C3310 C 0.30303 0.33839 0.75499 0.0
C3311 C 0.32978 0.36407 0.7652 0.0
C3312 C 0.32323 0.37599 0.75473 0.0
C3313 C 0.30638 0.36878 0.74455 0.0
C3314 C 0.29661 0.35034 0.7445 0.0
C3315 C 0.33388 0.39569 0.75404 0.0
C3316 C 0.32741 0.41151 0.76035 0.0
C3317 C 0.35044 0.39904 0.74722 0.0
C3318 C 0.35797 0.38321 0.73974 0.0
C3319 C 0.34849 0.36911 0.72504 0.0
C3320 C 0.35555 0.35408 0.71821 0.0
C3321 C 0.37213 0.35306 0.72588 0.0
C3322 C 0.3817 0.36707 0.7404 0.0
C3323 C 0.3747 0.38214 0.74728 0.0
H3324 H 0.37758 0.34144 0.72052 0.0
H3325 H 0.31093 0.48661 0.79235 0.0
H3326 H 0.15573 0.59055 0.23172 0.0
H3327 H 0.17077 0.62343 0.24355 0.0
H3328 H 0.22106 0.60904 0.24236 0.0
H3329 H 0.20608 0.57614 0.23139 0.0
H3330 H 0.22216 0.63152 0.27281 0.0
H3331 H 0.20268 0.6311 0.20888 0.0
H3332 H 0.18107 0.62559 0.18106 0.0
H3333 H 0.15341 0.66291 0.20951 0.0
H3334 H 0.17476 0.66847 0.23759 0.0
H3335 H 0.2748 0.71519 0.24813 0.0
H3336 H 0.25539 0.6842 0.2466 0.0
H3337 H 0.22608 0.70791 0.28693 0.0
H3338 H 0.24602 0.73903 0.2891 0.0
H3339 H 0.21102 0.68293 0.24187 0.0
H3340 H 0.23435 0.68462 0.30579 0.0
H3341 H 0.25884 0.69063 0.33097 0.0
H3342 H 0.28199 0.65087 0.29926 0.0
H3343 H 0.25777 0.64488 0.27375 0.0
C3344 C 0.16999 0.59448 0.23381 0.0
C3345 C 0.17976 0.58084 0.23057 0.0
C3346 C 0.17858 0.61326 0.24059 0.0
C3347 C 0.19707 0.61875 0.24376 0.0
C3348 C 0.20679 0.60514 0.24018 0.0
C3349 C 0.19823 0.58636 0.23378 0.0
C3350 C 0.20646 0.63862 0.25079 0.0
C3351 C 0.21964 0.64273 0.26604 0.0
C3352 C 0.20303 0.65339 0.24223 0.0
C3353 C 0.19017 0.65 0.22539 0.0
C3354 C 0.1919 0.63801 0.20925 0.0
C3355 C 0.17972 0.6349 0.19343 0.0
C3356 C 0.16584 0.64384 0.19354 0.0
C3357 C 0.16414 0.65595 0.20946 0.0
C3358 C 0.17628 0.65909 0.22532 0.0
C3359 C 0.26446 0.71371 0.25697 0.0
C3360 C 0.26185 0.72938 0.26874 0.0
C3361 C 0.25343 0.69606 0.25609 0.0
C3362 C 0.23943 0.69389 0.2667 0.0
C3363 C 0.23699 0.7094 0.27883 0.0
C3364 C 0.24835 0.72706 0.28007 0.0
C3365 C 0.22669 0.67557 0.26358 0.0
C3366 C 0.21304 0.67173 0.24894 0.0
C3367 C 0.22988 0.66103 0.27245 0.0
C3368 C 0.24437 0.66448 0.28779 0.0
C3369 C 0.24477 0.67733 0.3041 0.0
C3370 C 0.25857 0.68069 0.31845 0.0
C3371 C 0.27199 0.67118 0.31669 0.0
C3372 C 0.2716 0.65824 0.30059 0.0
C3373 C 0.25784 0.65486 0.28619 0.0
H3374 H 0.28266 0.67379 0.32782 0.0
H3375 H 0.15642 0.64142 0.18127 0.0
H3376 H 0.52039 0.72478 0.458 0.0
H3377 H 0.52168 0.69763 0.47236 0.0
H3378 H 0.48668 0.66128 0.42623 0.0
H3379 H 0.48548 0.68841 0.4116 0.0
H3380 H 0.47963 0.65231 0.46225 0.0
H3381 H 0.52749 0.66326 0.4256 0.0
H3382 H 0.55339 0.6825 0.41538 0.0
H3383 H 0.5808 0.69417 0.47043 0.0
H3384 H 0.55493 0.67521 0.48104 0.0
H3385 H 0.49867 0.56588 0.47739 0.0
H3386 H 0.49279 0.59274 0.46498 0.0
H3387 H 0.53692 0.62938 0.50186 0.0
H3388 H 0.54327 0.60249 0.51373 0.0
H3389 H 0.53841 0.63821 0.47013 0.0
H3390 H 0.49144 0.62719 0.5073 0.0
H3391 H 0.46575 0.60837 0.51826 0.0
H3392 H 0.43676 0.59756 0.46405 0.0
H3393 H 0.46237 0.6161 0.45268 0.0
C3394 C 0.51274 0.71107 0.451 0.0
C3395 C 0.50289 0.7088 0.43359 0.0
C3396 C 0.51353 0.69553 0.45923 0.0
C3397 C 0.50438 0.67738 0.45033 0.0
C3398 C 0.49384 0.67514 0.43337 0.0
C3399 C 0.49321 0.69067 0.42501 0.0
C3400 C 0.50684 0.66071 0.45813 0.0
C3401 C 0.49242 0.64907 0.46381 0.0
C3402 C 0.5236 0.65669 0.46053 0.0
C3403 C 0.53921 0.66798 0.45415 0.0
C3404 C 0.53898 0.67006 0.43556 0.0
C3405 C 0.55367 0.68089 0.42969 0.0
C3406 C 0.56872 0.68959 0.44226 0.0
C3407 C 0.56912 0.68744 0.46072 0.0
C3408 C 0.55446 0.67665 0.46666 0.0
C3409 C 0.50702 0.57968 0.483 0.0
C3410 C 0.52146 0.58198 0.49658 0.0
C3411 C 0.50359 0.59511 0.47593 0.0
C3412 C 0.51427 0.61328 0.48257 0.0
C3413 C 0.52847 0.61559 0.49641 0.0
C3414 C 0.53207 0.60016 0.50326 0.0
C3415 C 0.51123 0.62975 0.47458 0.0
C3416 C 0.52558 0.64138 0.46873 0.0
C3417 C 0.49442 0.63381 0.47223 0.0
C3418 C 0.4789 0.62289 0.47909 0.0
C3419 C 0.47962 0.62071 0.49768 0.0
C3420 C 0.46507 0.61009 0.50397 0.0
C3421 C 0.44965 0.60173 0.49184 0.0
C3422 C 0.44873 0.60403 0.47342 0.0
C3423 C 0.46325 0.6146 0.46705 0.0
H3424 H 0.43841 0.59349 0.49673 0.0
H3425 H 0.58007 0.69797 0.43769 0.0
H3426 H 0.61384 0.30804 0.67539 0.0
H3427 H 0.64003 0.30277 0.69169 0.0
H3428 H 0.66939 0.31647 0.64702 0.0
H3429 H 0.64273 0.32091 0.63011 0.0
H3430 H 0.67863 0.28847 0.65784 0.0
H3431 H 0.67469 0.34744 0.69024 0.0
H3432 H 0.66097 0.37105 0.70654 0.0
H3433 H 0.65029 0.33807 0.74868 0.0
H3434 H 0.66373 0.31413 0.7325 0.0
H3435 H 0.75918 0.29685 0.72004 0.0
H3436 H 0.73628 0.30361 0.69908 0.0
H3437 H 0.69641 0.27759 0.7296 0.0
H3438 H 0.71905 0.27047 0.75023 0.0
H3439 H 0.6956 0.31507 0.72467 0.0
H3440 H 0.69929 0.25523 0.68919 0.0
H3441 H 0.71531 0.23401 0.6727 0.0
H3442 H 0.7297 0.27263 0.63616 0.0
H3443 H 0.71393 0.2942 0.65257 0.0
C3444 C 0.62588 0.31008 0.66903 0.0
C3445 C 0.6262 0.31505 0.65148 0.0
C3446 C 0.64094 0.30714 0.67845 0.0
C3447 C 0.65692 0.30961 0.67085 0.0
C3448 C 0.6573 0.31455 0.65327 0.0
C3449 C 0.64207 0.31718 0.64365 0.0
C3450 C 0.67298 0.30662 0.68124 0.0
C3451 C 0.68249 0.29458 0.67237 0.0
C3452 C 0.6782 0.31454 0.70025 0.0
C3453 C 0.67011 0.32892 0.71007 0.0
C3454 C 0.66931 0.34516 0.70292 0.0
C3455 C 0.6616 0.35861 0.71215 0.0
C3456 C 0.65473 0.35604 0.72861 0.0
C3457 C 0.6556 0.34003 0.73591 0.0
C3458 C 0.66329 0.32653 0.72673 0.0
C3459 C 0.7455 0.2923 0.72205 0.0
C3460 C 0.74092 0.2832 0.73682 0.0
C3461 C 0.73245 0.2962 0.71011 0.0
C3462 C 0.71465 0.29118 0.71286 0.0
C3463 C 0.71006 0.28167 0.72729 0.0
C3464 C 0.72303 0.27757 0.73905 0.0
C3465 C 0.70076 0.29658 0.70139 0.0
C3466 C 0.69176 0.30914 0.71009 0.0
C3467 C 0.69633 0.2895 0.6822 0.0
C3468 C 0.70559 0.27641 0.67222 0.0
C3469 C 0.70598 0.25926 0.67773 0.0
C3470 C 0.71499 0.24716 0.66839 0.0
C3471 C 0.72356 0.252 0.65344 0.0
C3472 C 0.72308 0.26892 0.64776 0.0
C3473 C 0.71409 0.28107 0.65706 0.0
H3474 H 0.73054 0.24262 0.64624 0.0
H3475 H 0.64876 0.36647 0.73574 0.0
H3476 H 0.04682 0.33751 0.92181 0.0
H3477 H 0.04978 0.36889 0.93989 0.0
H3478 H 0.00282 0.34854 0.96395 0.0
H3479 H 1.00001 0.31685 0.94619 0.0
H3480 H 0.004 0.38147 0.94544 0.0
H3481 H 0.03747 0.36017 0.99206 0.0
H3482 H 0.0608 0.34597 0.00364 0.0
H3483 H 0.1001 0.38828 0.98738 0.0
H3484 H 0.07701 0.40272 0.97565 0.0
H3485 H 0.00737 0.46957 1.00021 0.0
H3486 H 0.00476 0.43614 0.98952 0.0
H3487 H 0.0594 0.44794 0.98042 0.0
H3488 H 0.06228 0.48127 0.99213 0.0
H3489 H 0.05336 0.41797 0.99298 0.0
H3490 H 0.0227 0.43814 0.94434 0.0
H3491 H 1.00113 0.45277 0.92983 0.0
H3492 H 0.95873 0.41327 0.94532 0.0
H3493 H 0.98007 0.39855 0.96014 0.0
C3494 C 0.03729 0.33963 0.9312 0.0
C3495 C 0.02317 0.32471 0.93258 0.0
C3496 C 0.03902 0.35755 0.94154 0.0
C3497 C 0.02653 0.36103 0.95325 0.0
C3498 C 0.01263 0.34611 0.95502 0.0
C3499 C 0.0111 0.32802 0.94495 0.0
C3500 C 0.02735 0.38056 0.96242 0.0
C3501 C 0.01457 0.38939 0.95613 0.0
C3502 C 0.04158 0.39105 0.97574 0.0
C3503 C 0.05549 0.38244 0.98285 0.0
C3504 C 0.05108 0.36638 0.99085 0.0
C3505 C 0.06427 0.35832 0.9975 0.0
C3506 C 0.08193 0.36623 0.99626 0.0
C3507 C 0.08643 0.38221 0.98839 0.0
C3508 C 0.0733 0.39036 0.98178 0.0
C3509 C 0.01882 0.46503 0.99593 0.0
C3510 C 0.03498 0.4781 0.99684 0.0
C3511 C 0.01731 0.44588 0.98971 0.0
C3512 C 0.03176 0.4394 0.9837 0.0
C3513 C 0.048 0.45246 0.98491 0.0
C3514 C 0.04963 0.47157 0.99154 0.0
C3515 C 0.02996 0.4191 0.97602 0.0
C3516 C 0.04263 0.41011 0.98246 0.0
C3517 C 0.01587 0.40857 0.96241 0.0
C3518 C 0.00299 0.41738 0.95353 0.0
C3519 C 0.00878 0.43267 0.94477 0.0
C3520 C 0.9966 0.44096 0.93648 0.0
C3521 C 0.97857 0.43399 0.93671 0.0
C3522 C 0.9727 0.41868 0.94519 0.0
C3523 C 0.98483 0.41034 0.95353 0.0
H3524 H 0.96916 0.44043 0.93027 0.0
H3525 H 0.09212 0.35997 1.00141 0.0
H3526 H 0.0329 0.78664 0.17708 0.0
H3527 H 0.00377 0.78564 0.18627 0.0
H3528 H 0.99398 0.8205 0.14718 0.0
H3529 H 0.02346 0.82167 0.13781 0.0
H3530 H 0.98344 0.83157 0.18154 0.0
H3531 H 0.97418 0.77539 0.13704 0.0
H3532 H 0.98044 0.74591 0.12197 0.0
H3533 H 0.97307 0.72313 0.1713 0.0
H3534 H 0.96704 0.75258 0.18678 0.0
H3535 H 0.89365 0.81339 0.20212 0.0
H3536 H 0.91952 0.81655 0.18541 0.0
H3537 H 0.9393 0.77924 0.21611 0.0
H3538 H 0.91364 0.77604 0.23274 0.0
H3539 H 0.94242 0.77009 0.18057 0.0
H3540 H 0.95574 0.82774 0.22606 0.0
H3541 H 0.95014 0.85745 0.24148 0.0
H3542 H 0.94994 0.87739 0.1901 0.0
H3543 H 0.95532 0.84768 0.17433 0.0
C3544 C 0.02464 0.79413 0.17035 0.0
C3545 C 0.03058 0.8042 0.15662 0.0
C3546 C 0.0079 0.79347 0.17561 0.0
C3547 C 0.99658 0.80279 0.16727 0.0
C3548 C 0.00248 0.81313 0.15375 0.0
C3549 C 0.0193 0.81374 0.14838 0.0
C3550 C 0.9787 0.80164 0.17297 0.0
C3551 C 0.97428 0.81816 0.18097 0.0
C3552 C 0.96684 0.78413 0.17243 0.0
C3553 C 0.97026 0.76627 0.16311 0.0
C3554 C 0.974 0.76414 0.14472 0.0
C3555 C 0.9775 0.74743 0.1361 0.0
C3556 C 0.97718 0.73267 0.14568 0.0
C3557 C 0.97332 0.73458 0.1639 0.0
C3558 C 0.96983 0.75127 0.17259 0.0
C3559 C 0.90358 0.80597 0.20538 0.0
C3560 C 0.9015 0.79438 0.21871 0.0
C3561 C 0.91836 0.80776 0.1958 0.0
C3562 C 0.93144 0.79818 0.19952 0.0
C3563 C 0.92936 0.78667 0.21285 0.0
C3564 C 0.91463 0.78482 0.22234 0.0
C3565 C 0.94738 0.79998 0.1897 0.0
C3566 C 0.95142 0.78354 0.18088 0.0
C3567 C 0.95886 0.81755 0.18949 0.0
C3568 C 0.95572 0.83542 0.19898 0.0
C3569 C 0.95436 0.83841 0.21803 0.0
C3570 C 0.95126 0.85525 0.22683 0.0
C3571 C 0.94963 0.86927 0.21677 0.0
C3572 C 0.95116 0.8665 0.19788 0.0
C3573 C 0.95425 0.84967 0.189 0.0
H3574 H 0.94722 0.8823 0.22361 0.0
H3575 H 0.97991 0.71974 0.13899 0.0
H3576 H 0.46758 0.30585 0.12613 0.0
H3577 H 0.46883 0.33167 0.10904 0.0
H3578 H 0.48927 0.30099 0.06485 0.0
H3579 H 0.48781 0.27507 0.0816 0.0
H3580 H 0.51055 0.33813 0.08137 0.0
H3581 H 0.45044 0.306 0.05613 0.0
H3582 H 0.41931 0.29188 0.05824 0.0
H3583 H 0.41353 0.34471 0.08698 0.0
H3584 H 0.44471 0.35909 0.08528 0.0
H3585 H 0.51661 0.39404 0.01385 0.0
H3586 H 0.50869 0.36793 0.03014 0.0
H3587 H 0.48 0.39942 0.06503 0.0
H3588 H 0.48781 0.42563 0.04863 0.0
H3589 H 0.46225 0.36333 0.0554 0.0
H3590 H 0.5203 0.39618 0.08147 0.0
H3591 H 0.5515 0.41196 0.08188 0.0
H3592 H 0.56161 0.36024 0.05554 0.0
H3593 H 0.53039 0.34419 0.05473 0.0
C3594 C 0.47195 0.30443 0.11258 0.0
C3595 C 0.47768 0.28846 0.10525 0.0
C3596 C 0.47265 0.31918 0.10286 0.0
C3597 C 0.47922 0.31822 0.08576 0.0
C3598 C 0.48419 0.30197 0.07806 0.0
C3599 C 0.48327 0.28714 0.08763 0.0
C3600 C 0.48247 0.33474 0.07664 0.0
C3601 C 0.49999 0.34351 0.07546 0.0
C3602 C 0.4687 0.34221 0.06975 0.0
C3603 C 0.44997 0.33356 0.07077 0.0
C3604 C 0.44258 0.31456 0.06307 0.0
C3605 C 0.42491 0.30652 0.06415 0.0
C3606 C 0.41446 0.31737 0.07279 0.0
C3607 C 0.42165 0.33631 0.08032 0.0
C3608 C 0.43931 0.34441 0.07929 0.0
C3609 C 0.50865 0.39543 0.02502 0.0
C3610 C 0.50298 0.41195 0.03009 0.0
C3611 C 0.50411 0.38049 0.0343 0.0
C3612 C 0.494 0.38184 0.04901 0.0
C3613 C 0.48784 0.39809 0.05374 0.0
C3614 C 0.4923 0.41303 0.04436 0.0
C3615 C 0.49035 0.36644 0.05966 0.0
C3616 C 0.47282 0.35798 0.0613 0.0
C3617 C 0.50414 0.35947 0.06739 0.0
C3618 C 0.52296 0.36902 0.06789 0.0
C3619 C 0.52914 0.3882 0.07563 0.0
C3620 C 0.54684 0.39719 0.07596 0.0
C3621 C 0.55852 0.38712 0.0687 0.0
C3622 C 0.55254 0.36803 0.06114 0.0
C3623 C 0.53485 0.35897 0.06076 0.0
H3624 H 0.57222 0.3941 0.06896 0.0
H3625 H 0.40078 0.31112 0.07361 0.0
H3626 H 0.05261 0.31068 0.29979 0.0
H3627 H 0.02326 0.30206 0.28222 0.0
H3628 H 1.00112 0.28197 0.32873 0.0
H3629 H 0.03047 0.29018 0.3463 0.0
H3630 H 0.98527 0.25939 0.2964 0.0
H3631 H 1.00115 0.32577 0.32174 0.0
H3632 H 0.01981 0.35798 0.32704 0.0
H3633 H 0.01412 0.35745 0.26862 0.0
H3634 H 0.9956 0.32511 0.26297 0.0
H3635 H 0.90145 0.28093 0.29474 0.0
H3636 H 0.93091 0.27532 0.29964 0.0
H3637 H 0.94107 0.28868 0.24633 0.0
H3638 H 0.9115 0.29421 0.24133 0.0
H3639 H 0.96393 0.31183 0.27626 0.0
H3640 H 0.94306 0.24681 0.25216 0.0
H3641 H 0.92506 0.21437 0.2475 0.0
H3642 H 0.93924 0.21244 0.30445 0.0
H3643 H 0.95719 0.24495 0.30954 0.0
C3644 C 0.04153 0.30427 0.30625 0.0
C3645 C 0.04384 0.30133 0.32454 0.0
C3646 C 0.02477 0.29935 0.29617 0.0
C3647 C 0.01002 0.29162 0.30428 0.0
C3648 C 0.01236 0.28792 0.32223 0.0
C3649 C 0.02913 0.29273 0.33228 0.0
C3650 C 0.99203 0.28866 0.29464 0.0
C3651 C 0.98051 0.27083 0.29206 0.0
C3652 C 0.98607 0.30352 0.28854 0.0
C3653 C 0.99719 0.32295 0.29191 0.0
C3654 C 0.00401 0.33247 0.31002 0.0
C3655 C 0.01453 0.35076 0.31309 0.0
C3656 C 0.0182 0.35973 0.29817 0.0
C3657 C 0.01131 0.35046 0.28016 0.0
C3658 C 1.00079 0.33216 0.27701 0.0
C3659 C 0.90984 0.28221 0.2839 0.0
C3660 C 0.90438 0.2882 0.26777 0.0
C3661 C 0.92657 0.27884 0.28662 0.0
C3662 C 0.93809 0.28151 0.2733 0.0
C3663 C 0.93226 0.28639 0.25668 0.0
C3664 C 0.91543 0.28955 0.25385 0.0
C3665 C 0.95697 0.28261 0.2783 0.0
C3666 C 0.9687 0.30021 0.28018 0.0
C3667 C 0.96298 0.26759 0.28395 0.0
C3668 C 0.95143 0.24839 0.28124 0.0
C3669 C 0.94219 0.23956 0.26375 0.0
C3670 C 0.93208 0.22111 0.26101 0.0
C3671 C 0.93112 0.2113 0.27564 0.0
C3672 C 0.9401 0.22 0.2931 0.0
C3673 C 0.95025 0.23844 0.29592 0.0
H3674 H 0.92329 0.19701 0.27348 0.0
H3675 H 0.02635 0.37389 0.30058 0.0
H3676 H 0.99437 0.70502 0.59958 0.0
H3677 H 0.99509 0.67586 0.57933 0.0
H3678 H 0.01162 0.65385 0.6267 0.0
H3679 H 0.01161 0.68317 0.64691 0.0
H3680 H 0.02927 0.64491 0.6002 0.0
H3681 H 0.96808 0.64066 0.60463 0.0
H3682 H 0.94038 0.65112 0.60302 0.0
H3683 H 0.94178 0.65192 0.5452 0.0
H3684 H 0.96961 0.64171 0.54651 0.0
H3685 H 0.01621 0.55285 0.55066 0.0
H3686 H 0.01076 0.57857 0.57294 0.0
H3687 H 0.99792 0.60584 0.52802 0.0
H3688 H 0.00283 0.57978 0.5058 0.0
H3689 H 0.97735 0.61063 0.55472 0.0
H3690 H 0.04017 0.61685 0.55178 0.0
H3691 H 0.06657 0.60403 0.55348 0.0
H3692 H 0.06078 0.59774 0.60952 0.0
H3693 H 0.03423 0.61033 0.60807 0.0
C3694 C 0.9982 0.69399 0.60567 0.0
C3695 C 0.00281 0.69636 0.62486 0.0
C3696 C 0.99851 0.67728 0.5941 0.0
C3697 C 0.00305 0.6625 0.60154 0.0
C3698 C 0.008 0.66501 0.62065 0.0
C3699 C 0.00795 0.68179 0.63219 0.0
C3700 C 0.0027 0.64444 0.58943 0.0
C3701 C 0.01781 0.63731 0.59046 0.0
C3702 C 0.98782 0.63455 0.57658 0.0
C3703 C 0.97101 0.64058 0.57571 0.0
C3704 C 0.96254 0.64319 0.5916 0.0
C3705 C 0.94681 0.64905 0.59074 0.0
C3706 C 0.93935 0.65222 0.57403 0.0
C3707 C 0.94758 0.64948 0.55814 0.0
C3708 C 0.96332 0.64364 0.55893 0.0
C3709 C 0.01205 0.56431 0.54567 0.0
C3710 C 0.01017 0.56473 0.52675 0.0
C3711 C 0.00892 0.57892 0.55831 0.0
C3712 C 0.00434 0.59432 0.55213 0.0
C3713 C 0.00151 0.59413 0.53307 0.0
C3714 C 0.00435 0.57935 0.52043 0.0
C3715 C 0.00393 0.61131 0.56542 0.0
C3716 C 0.98872 0.61824 0.56459 0.0
C3717 C 0.01865 0.62094 0.57855 0.0
C3718 C 0.0352 0.61446 0.57979 0.0
C3719 C 0.04457 0.61278 0.56447 0.0
C3720 C 0.05952 0.60551 0.56538 0.0
C3721 C 0.06533 0.60006 0.58159 0.0
C3722 C 0.05627 0.60198 0.59698 0.0
C3723 C 0.04129 0.60921 0.59613 0.0
H3724 H 0.07686 0.59435 0.58223 0.0
H3725 H 0.92717 0.65677 0.57339 0.0
H3726 H 0.65755 0.83506 0.88547 0.0
H3727 H 0.68366 0.83985 0.86904 0.0
H3728 H 0.65801 0.79186 0.82693 0.0
H3729 H 0.63199 0.78719 0.84299 0.0
H3730 H 0.69344 0.79321 0.83996 0.0
H3731 H 0.65676 0.83282 0.81903 0.0
H3732 H 0.64161 0.85857 0.82395 0.0
H3733 H 0.69091 0.89764 0.84587 0.0
H3734 H 0.70631 0.87203 0.84134 0.0
H3735 H 0.729 0.78763 0.76118 0.0
H3736 H 0.70647 0.79622 0.77918 0.0
H3737 H 0.74482 0.84435 0.81066 0.0
H3738 H 0.76743 0.83609 0.79231 0.0
H3739 H 0.70764 0.84755 0.80806 0.0
H3740 H 0.74472 0.80793 0.82435 0.0
H3741 H 0.75932 0.78208 0.81785 0.0
H3742 H 0.70903 0.74245 0.80538 0.0
H3743 H 0.69406 0.76827 0.81112 0.0
C3744 C 0.65766 0.82541 0.87285 0.0
C3745 C 0.64282 0.81077 0.86542 0.0
C3746 C 0.67247 0.82823 0.86347 0.0
C3747 C 0.6726 0.81627 0.84677 0.0
C3748 C 0.65808 0.80123 0.8398 0.0
C3749 C 0.64325 0.79859 0.84897 0.0
C3750 C 0.68757 0.81932 0.83604 0.0
C3751 C 0.69659 0.8051 0.83302 0.0
C3752 C 0.69191 0.83513 0.82745 0.0
C3753 C 0.68264 0.85048 0.83011 0.0
C3754 C 0.66434 0.84687 0.82508 0.0
C3755 C 0.65571 0.86144 0.82776 0.0
C3756 C 0.66528 0.87972 0.83529 0.0
C3757 C 0.68351 0.88347 0.84009 0.0
C3758 C 0.69219 0.86893 0.83748 0.0
C3759 C 0.73246 0.80046 0.77142 0.0
C3760 C 0.74998 0.81089 0.77579 0.0
C3761 C 0.71958 0.80542 0.7816 0.0
C3762 C 0.7242 0.82058 0.79653 0.0
C3763 C 0.74111 0.83253 0.79925 0.0
C3764 C 0.754 0.82772 0.78882 0.0
C3765 C 0.71288 0.821 0.81139 0.0
C3766 C 0.70472 0.83587 0.81529 0.0
C3767 C 0.70929 0.80576 0.82089 0.0
C3768 C 0.71826 0.79011 0.81794 0.0
C3769 C 0.73675 0.79375 0.81991 0.0
C3770 C 0.7451 0.77907 0.81632 0.0
C3771 C 0.73512 0.76058 0.81109 0.0
C3772 C 0.71675 0.75678 0.80941 0.0
C3773 C 0.70832 0.77145 0.81279 0.0
H3774 H 0.74157 0.74919 0.80842 0.0
H3775 H 0.65858 0.89099 0.83734 0.0
H3776 H 0.46829 0.56204 0.7117 0.0
H3777 H 0.48243 0.55948 0.68338 0.0
H3778 H 0.43151 0.54273 0.6506 0.0
H3779 H 0.41733 0.54502 0.67901 0.0
H3780 H 0.45079 0.52315 0.63311 0.0
H3781 H 0.46266 0.58913 0.65602 0.0
H3782 H 0.47329 0.61859 0.67878 0.0
H3783 H 0.52549 0.60944 0.68323 0.0
H3784 H 0.51511 0.57979 0.66066 0.0
H3785 H 0.49009 0.53185 0.54734 0.0
H3786 H 0.47275 0.53341 0.5736 0.0
H3787 H 0.52069 0.55697 0.61102 0.0
H3788 H 0.53754 0.55647 0.58505 0.0
H3789 H 0.50089 0.57369 0.62522 0.0
H3790 H 0.48848 0.50636 0.6036 0.0
H3791 H 0.47767 0.47719 0.58044 0.0
H3792 H 0.42672 0.48916 0.57304 0.0
H3793 H 0.43727 0.51846 0.59608 0.0
C3794 C 0.45998 0.55786 0.69852 0.0
C3795 C 0.44143 0.5539 0.69814 0.0
C3796 C 0.4682 0.55647 0.68204 0.0
C3797 C 0.45837 0.55115 0.66415 0.0
C3798 C 0.43981 0.54691 0.66379 0.0
C3799 C 0.43158 0.54833 0.68029 0.0
C3800 C 0.46734 0.55009 0.64612 0.0
C3801 C 0.46165 0.53439 0.63148 0.0
C3802 C 0.48178 0.56435 0.64324 0.0
C3803 C 0.48806 0.58215 0.6568 0.0
C3804 C 0.47638 0.59334 0.66195 0.0
C3805 C 0.48236 0.61008 0.6748 0.0
C3806 C 0.50004 0.61586 0.68248 0.0
C3807 C 0.51179 0.60493 0.67729 0.0
C3808 C 0.50587 0.58816 0.66446 0.0
C3809 C 0.49695 0.53736 0.56112 0.0
C3810 C 0.51551 0.54408 0.56357 0.0
C3811 C 0.48694 0.53811 0.57648 0.0
C3812 C 0.49501 0.54517 0.59512 0.0
C3813 C 0.51355 0.55158 0.59731 0.0
C3814 C 0.52339 0.55115 0.58211 0.0
C3815 C 0.48479 0.54645 0.61233 0.0
C3816 C 0.49016 0.56231 0.62684 0.0
C3817 C 0.47011 0.53231 0.61506 0.0
C3818 C 0.4637 0.51464 0.60143 0.0
C3819 C 0.47499 0.50278 0.59698 0.0
C3820 C 0.46891 0.48623 0.58389 0.0
C3821 C 0.45153 0.48135 0.57524 0.0
C3822 C 0.44018 0.49297 0.57974 0.0
C3823 C 0.44619 0.50953 0.59283 0.0
H3824 H 0.44686 0.46855 0.56508 0.0
H3825 H 0.50465 0.62882 0.69242 0.0
H3826 H 0.79936 0.20123 0.00345 0.0
H3827 H 0.80158 0.22352 0.98243 0.0
H3828 H 0.79752 0.17859 0.93621 0.0
H3829 H 0.79535 0.15611 0.95717 0.0
H3830 H 0.81844 0.21383 0.9315 0.0
H3831 H 0.76135 0.18595 0.94644 0.0
H3832 H 0.73971 0.17656 0.96749 0.0
H3833 H 0.74612 0.23429 0.99249 0.0
H3834 H 0.76807 0.244 0.97179 0.0
H3835 H 0.75061 0.24871 0.87344 0.0
H3836 H 0.75734 0.23126 0.89732 0.0
H3837 H 0.80766 0.27084 0.91426 0.0
H3838 H 0.80134 0.28791 0.88989 0.0
H3839 H 0.76457 0.23834 0.93359 0.0
H3840 H 0.83835 0.24643 0.9246 0.0
H3841 H 0.85781 0.25261 0.90066 0.0
H3842 H 0.81405 0.22864 0.85817 0.0
H3843 H 0.79442 0.22203 0.88181 0.0
C3844 C 0.79952 0.19615 0.98889 0.0
C3845 C 0.79676 0.17688 0.98187 0.0
C3846 C 0.80083 0.20892 0.97693 0.0
C3847 C 0.79935 0.20257 0.95781 0.0
C3848 C 0.79863 0.18368 0.95096 0.0
C3849 C 0.79733 0.17087 0.96294 0.0
C3850 C 0.79536 0.21479 0.94501 0.0
C3851 C 0.80678 0.21936 0.93201 0.0
C3852 C 0.77982 0.22142 0.94537 0.0
C3853 C 0.76651 0.21568 0.95774 0.0
C3854 C 0.75827 0.19663 0.95655 0.0
C3855 C 0.74593 0.19125 0.96839 0.0
C3856 C 0.74158 0.20482 0.98136 0.0
C3857 C 0.74953 0.2238 0.98247 0.0
C3858 C 0.76193 0.22924 0.97069 0.0
C3859 C 0.76306 0.25375 0.88234 0.0
C3860 C 0.77553 0.26953 0.87968 0.0
C3861 C 0.76683 0.24385 0.89603 0.0
C3862 C 0.78313 0.24959 0.90728 0.0
C3863 C 0.79514 0.26603 0.90547 0.0
C3864 C 0.79141 0.27589 0.8917 0.0
C3865 C 0.78782 0.23777 0.92023 0.0
C3866 C 0.77642 0.23313 0.93322 0.0
C3867 C 0.80306 0.23059 0.91938 0.0
C3868 C 0.81488 0.23395 0.90501 0.0
C3869 C 0.83291 0.24239 0.91014 0.0
C3870 C 0.84397 0.24597 0.89662 0.0
C3871 C 0.83715 0.2411 0.87791 0.0
C3872 C 0.8193 0.23248 0.87267 0.0
C3873 C 0.8082 0.22881 0.88612 0.0
H3874 H 0.84571 0.24398 0.86747 0.0
H3875 H 0.73202 0.20063 0.99052 0.0
H3876 H 0.12732 0.4754 0.17175 0.0
H3877 H 0.1088 0.47577 0.14343 0.0
H3878 H 0.14701 0.5235 0.13383 0.0
H3879 H 0.16591 0.52284 0.16178 0.0
H3880 H 0.10515 0.52179 0.14301 0.0
H3881 H 0.14612 0.5011 0.10294 0.0
H3882 H 0.1641 0.4789 0.09311 0.0
H3883 H 0.11754 0.43384 0.07959 0.0
H3884 H 0.09932 0.45577 0.08971 0.0
H3885 H 0.06601 0.55023 0.06742 0.0
H3886 H 0.08729 0.54228 0.08897 0.0
H3887 H 0.05838 0.4843 0.07616 0.0
H3888 H 0.03705 0.49223 0.0542 0.0
H3889 H 0.09519 0.48893 0.07757 0.0
H3890 H 0.05378 0.50912 0.11499 0.0
H3891 H 0.03525 0.52997 0.12687 0.0
H3892 H 0.08142 0.57448 0.14683 0.0
H3893 H 0.10022 0.55397 0.13482 0.0
C3894 C 0.13207 0.4855 0.1632 0.0
C3895 C 0.14798 0.49911 0.16891 0.0
C3896 C 0.12151 0.48567 0.14706 0.0
C3897 C 0.12666 0.49958 0.13659 0.0
C3898 C 0.14303 0.51248 0.14164 0.0
C3899 C 0.15378 0.51208 0.15758 0.0
C3900 C 0.11362 0.5027 0.12264 0.0
C3901 C 0.1031 0.51483 0.12864 0.0
C3902 C 0.11065 0.49303 0.10416 0.0
C3903 C 0.12142 0.47998 0.09741 0.0
C3904 C 0.13975 0.48642 0.09808 0.0
C3905 C 0.14997 0.47391 0.09244 0.0
C3906 C 0.14198 0.45495 0.08593 0.0
C3907 C 0.12372 0.44851 0.08475 0.0
C3908 C 0.11343 0.46098 0.09044 0.0
C3909 C 0.06419 0.53579 0.06923 0.0
C3910 C 0.04995 0.52182 0.05928 0.0
C3911 C 0.07633 0.53127 0.08151 0.0
C3912 C 0.07433 0.51273 0.08418 0.0
C3913 C 0.06011 0.49868 0.07422 0.0
C3914 C 0.04788 0.50323 0.06189 0.0
C3915 C 0.08691 0.50838 0.09788 0.0
C3916 C 0.09723 0.49593 0.09193 0.0
C3917 C 0.08965 0.51768 0.11654 0.0
C3918 C 0.07839 0.53005 0.12385 0.0
C3919 C 0.05997 0.5234 0.12178 0.0
C3920 C 0.04942 0.53515 0.12856 0.0
C3921 C 0.05715 0.55355 0.13756 0.0
C3922 C 0.07545 0.56023 0.13984 0.0
C3923 C 0.08606 0.54854 0.13306 0.0
H3924 H 0.04896 0.56263 0.1428 0.0
H3925 H 0.14998 0.44531 0.08177 0.0
H3926 H 0.77149 0.87408 0.45478 0.0
H3927 H 0.77154 0.85542 0.42442 0.0
H3928 H 0.80977 0.82922 0.44782 0.0
H3929 H 0.80958 0.84777 0.47855 0.0
H3930 H 0.81866 0.84518 0.41549 0.0
H3931 H 0.77048 0.8033 0.43462 0.0
H3932 H 0.74219 0.7948 0.44696 0.0
H3933 H 0.71602 0.8129 0.40224 0.0
H3934 H 0.74421 0.8218 0.3898 0.0
H3935 H 0.81647 0.78998 0.32626 0.0
H3936 H 0.81678 0.80009 0.35958 0.0
H3937 H 0.7684 0.8173 0.34906 0.0
H3938 H 0.76759 0.80639 0.31607 0.0
H3939 H 0.76595 0.8022 0.37694 0.0
H3940 H 0.81177 0.84885 0.36036 0.0
H3941 H 0.83908 0.86079 0.34745 0.0
H3942 H 0.86843 0.83816 0.38611 0.0
H3943 H 0.84123 0.8259 0.39912 0.0
C3944 C 0.77973 0.86414 0.45356 0.0
C3945 C 0.79053 0.86239 0.46909 0.0
C3946 C 0.77972 0.85346 0.43618 0.0
C3947 C 0.79064 0.8409 0.43384 0.0
C3948 C 0.80122 0.83881 0.44935 0.0
C3949 C 0.80101 0.84931 0.46689 0.0
C3950 C 0.79155 0.83088 0.41495 0.0
C3951 C 0.80726 0.83544 0.40715 0.0
C3952 C 0.7765 0.81873 0.40389 0.0
C3953 C 0.75951 0.81334 0.41135 0.0
C3954 C 0.75873 0.80562 0.4275 0.0
C3955 C 0.7427 0.8007 0.4345 0.0
C3956 C 0.72733 0.80334 0.42541 0.0
C3957 C 0.72794 0.81088 0.40928 0.0
C3958 C 0.74394 0.81584 0.40224 0.0
C3959 C 0.8059 0.79589 0.3311 0.0
C3960 C 0.79202 0.79737 0.31849 0.0
C3961 C 0.80612 0.80177 0.35017 0.0
C3962 C 0.79273 0.80976 0.35698 0.0
C3963 C 0.77886 0.81114 0.34432 0.0
C3964 C 0.77844 0.80492 0.32537 0.0
C3965 C 0.79299 0.8168 0.37718 0.0
C3966 C 0.77748 0.81171 0.38527 0.0
C3967 C 0.80808 0.82893 0.38835 0.0
C3968 C 0.82444 0.83626 0.38055 0.0
C3969 C 0.82403 0.8463 0.36601 0.0
C3970 C 0.83949 0.85314 0.35869 0.0
C3971 C 0.85547 0.85017 0.36591 0.0
C3972 C 0.85604 0.84041 0.3805 0.0
C3973 C 0.84061 0.83352 0.38786 0.0
H3974 H 0.86743 0.85548 0.36022 0.0
H3975 H 0.71493 0.79952 0.43085 0.0
H3976 H 0.44008 0.57387 0.82612 0.0
H3977 H 0.45194 0.57312 0.85811 0.0
H3978 H 0.47613 0.52878 0.83726 0.0
H3979 H 0.46468 0.52951 0.80594 0.0
H3980 H 0.46231 0.51992 0.86642 0.0
H3981 H 0.49961 0.57661 0.85469 0.0
H3982 H 0.50615 0.60838 0.84727 0.0
H3983 H 0.48317 0.62871 0.89473 0.0
H3984 H 0.47628 0.59698 0.90228 0.0
H3985 H 0.51824 0.51419 0.94584 0.0
H3986 H 0.50529 0.5178 0.91578 0.0
H3987 H 0.49323 0.56907 0.94117 0.0
H3988 H 0.50752 0.56613 0.97109 0.0
H3989 H 0.4987 0.5752 0.91047 0.0
H3990 H 0.46111 0.51921 0.92271 0.0
H3991 H 0.45338 0.48739 0.93 0.0
H3992 H 0.47477 0.46572 0.88198 0.0
H3993 H 0.48278 0.49738 0.87445 0.0
C3994 C 0.44793 0.56397 0.82829 0.0
C3995 C 0.45127 0.55185 0.81286 0.0
C3996 C 0.45488 0.56357 0.84679 0.0
C3997 C 0.46526 0.55088 0.85067 0.0
C3998 C 0.4683 0.53875 0.83524 0.0
C3999 C 0.46165 0.5393 0.81699 0.0
C4000 C 0.47291 0.54969 0.87034 0.0
C4001 C 0.47038 0.53209 0.87591 0.0
C4002 C 0.48317 0.56536 0.88348 0.0
C4003 C 0.48724 0.58438 0.87891 0.0
C4004 C 0.49581 0.58782 0.86344 0.0
C4005 C 0.4996 0.60583 0.85923 0.0
C4006 C 0.49502 0.62054 0.87049 0.0
C4007 C 0.48667 0.61729 0.886 0.0
C4008 C 0.48282 0.5993 0.89025 0.0
C4009 C 0.51283 0.52627 0.94515 0.0
C4010 C 0.51401 0.53974 0.96136 0.0
C4011 C 0.50506 0.52827 0.92769 0.0
C4012 C 0.49736 0.54346 0.92554 0.0
C4013 C 0.49875 0.55705 0.94179 0.0
C4014 C 0.50697 0.55532 0.95919 0.0
C4015 C 0.48823 0.5453 0.90661 0.0
C4016 C 0.49051 0.563 0.90113 0.0
C4017 C 0.47749 0.52972 0.89358 0.0
C4018 C 0.47269 0.5107 0.89811 0.0
C4019 C 0.46425 0.50768 0.91376 0.0
C4020 C 0.45982 0.48968 0.91793 0.0
C4021 C 0.46363 0.47459 0.90651 0.0
C4022 C 0.47185 0.47743 0.89084 0.0
C4023 C 0.47632 0.49539 0.88659 0.0
H4024 H 0.46019 0.46068 0.90979 0.0
H4025 H 0.49798 0.63447 0.86721 0.0
H4026 H 0.76914 0.18609 0.06064 0.0
H4027 H 0.77005 0.2093 0.08826 0.0
H4028 H 0.75087 0.16503 0.11788 0.0
H4029 H 0.74937 0.14161 0.08996 0.0
H4030 H 0.73638 0.19396 0.12748 0.0
H4031 H 0.79497 0.18626 0.12211 0.0
H4032 H 0.82141 0.18508 0.10665 0.0
H4033 H 0.82726 0.24243 0.10044 0.0
H4034 H 0.8007 0.24387 0.11565 0.0
H4035 H 0.7733 0.24042 0.21898 0.0
H4036 H 0.76404 0.22015 0.18871 0.0
H4037 H 0.7786 0.26803 0.16238 0.0
H4038 H 0.78768 0.28854 0.19281 0.0
H4039 H 0.79403 0.23893 0.1502 0.0
H4040 H 0.73653 0.24694 0.15948 0.0
H4041 H 0.71122 0.24748 0.17692 0.0
H4042 H 0.70417 0.18874 0.17769 0.0
H4043 H 0.72967 0.18791 0.16055 0.0
C4044 C 0.76504 0.18125 0.073 0.0
C4045 C 0.7594 0.16199 0.0732 0.0
C4046 C 0.76557 0.19456 0.08879 0.0
C4047 C 0.76087 0.1889 0.10525 0.0
C4048 C 0.75462 0.1697 0.10534 0.0
C4049 C 0.75384 0.15634 0.08941 0.0
C4050 C 0.76334 0.20299 0.12253 0.0
C4051 C 0.74901 0.20369 0.13255 0.0
C4052 C 0.77975 0.21593 0.12895 0.0
C4053 C 0.79574 0.21511 0.11983 0.0
C4054 C 0.80182 0.19858 0.11732 0.0
C4055 C 0.81684 0.19787 0.10862 0.0
C4056 C 0.82598 0.21366 0.10252 0.0
C4057 C 0.82015 0.2302 0.10514 0.0
C4058 C 0.80512 0.23098 0.11381 0.0
C4059 C 0.7741 0.24672 0.20678 0.0
C4060 C 0.78115 0.26605 0.20823 0.0
C4061 C 0.7688 0.23512 0.18948 0.0
C4062 C 0.77054 0.24262 0.17333 0.0
C4063 C 0.77711 0.26202 0.17472 0.0
C4064 C 0.78226 0.27369 0.19207 0.0
C4065 C 0.76712 0.22991 0.15514 0.0
C4066 C 0.78132 0.22938 0.145 0.0
C4067 C 0.75068 0.21704 0.1488 0.0
C4068 C 0.73512 0.2174 0.15882 0.0
C4069 C 0.72967 0.23416 0.16347 0.0
C4070 C 0.71528 0.23452 0.1733 0.0
C4071 C 0.70611 0.21816 0.17844 0.0
C4072 C 0.71129 0.2014 0.17371 0.0
C4073 C 0.72571 0.20098 0.16392 0.0
H4074 H 0.69498 0.21847 0.18605 0.0
H4075 H 0.83761 0.21308 0.09579 0.0
H4076 H 0.10103 0.52125 0.25971 0.0
H4077 H 0.09211 0.53 0.28998 0.0
H4078 H 0.1449 0.53537 0.31581 0.0
H4079 H 0.15395 0.52626 0.28546 0.0
H4080 H 0.12091 0.51894 0.33545 0.0
H4081 H 0.13178 0.57441 0.31087 0.0
H4082 H 0.13079 0.59473 0.28776 0.0
H4083 H 0.07467 0.58512 0.28648 0.0
H4084 H 0.07526 0.56449 0.30937 0.0
H4085 H 0.08701 0.55621 0.41645 0.0
H4086 H 0.10629 0.5591 0.39215 0.0
H4087 H 0.06094 0.53909 0.35058 0.0
H4088 H 0.04173 0.53539 0.37453 0.0
H4089 H 0.08862 0.56944 0.34315 0.0
H4090 H 0.07919 0.50902 0.3642 0.0
H4091 H 0.08138 0.49028 0.38851 0.0
H4092 H 0.13758 0.51133 0.39741 0.0
H4093 H 0.13563 0.53077 0.37356 0.0
C4094 C 0.11073 0.52409 0.27181 0.0
C4095 C 0.12823 0.52321 0.27017 0.0
C4096 C 0.10565 0.52925 0.2891 0.0
C4097 C 0.11799 0.53384 0.30504 0.0
C4098 C 0.13525 0.53208 0.30361 0.0
C4099 C 0.14036 0.5268 0.28628 0.0
C4100 C 0.1126 0.54044 0.32311 0.0
C4101 C 0.11424 0.53029 0.33732 0.0
C4102 C 0.10406 0.55538 0.32558 0.0
C4103 C 0.10357 0.56781 0.3118 0.0
C4104 C 0.1192 0.57652 0.30557 0.0
C4105 C 0.11871 0.58811 0.29252 0.0
C4106 C 0.10267 0.5912 0.28564 0.0
C4107 C 0.08709 0.58272 0.29183 0.0
C4108 C 0.0875 0.57109 0.30487 0.0
C4109 C 0.08117 0.5525 0.40212 0.0
C4110 C 0.06289 0.54521 0.39738 0.0
C4111 C 0.09217 0.55435 0.38833 0.0
C4112 C 0.08497 0.54913 0.36969 0.0
C4113 C 0.06667 0.54326 0.36495 0.0
C4114 C 0.05571 0.54118 0.37867 0.0
C4115 C 0.09629 0.54741 0.35498 0.0
C4116 C 0.09577 0.55849 0.34143 0.0
C4117 C 0.1061 0.53355 0.35325 0.0
C4118 C 0.10724 0.52157 0.36731 0.0
C4119 C 0.092 0.50983 0.37148 0.0
C4120 C 0.0932 0.49906 0.38517 0.0
C4121 C 0.10962 0.49961 0.39451 0.0
C4122 C 0.12487 0.51092 0.39016 0.0
C4123 C 0.12372 0.52188 0.37662 0.0
H4124 H 0.11053 0.49129 0.40512 0.0
H4125 H 0.10232 0.60018 0.27554 0.0
H4126 H 0.82401 0.88456 0.59743 0.0
H4127 H 0.82292 0.87261 0.62651 0.0
H4128 H 0.77471 0.83186 0.60319 0.0
H4129 H 0.77599 0.8433 0.57388 0.0
H4130 H 0.77686 0.85805 0.64164 0.0
H4131 H 0.80429 0.81361 0.6059 0.0
H4132 H 0.8272 0.80563 0.58747 0.0
H4133 H 0.86726 0.83431 0.63256 0.0
H4134 H 0.84457 0.8427 0.65116 0.0
H4135 H 0.75963 0.79629 0.70407 0.0
H4136 H 0.76402 0.81201 0.67775 0.0
H4137 H 0.81956 0.83156 0.69736 0.0
H4138 H 0.81524 0.8152 0.72354 0.0
H4139 H 0.81592 0.81918 0.66215 0.0
H4140 H 0.79106 0.86189 0.69927 0.0
H4141 H 0.77038 0.87334 0.71887 0.0
H4142 H 0.72845 0.85274 0.67393 0.0
H4143 H 0.7488 0.841 0.65408 0.0
C4144 C 0.81327 0.87292 0.59843 0.0
C4145 C 0.80012 0.86482 0.58332 0.0
C4146 C 0.81266 0.86615 0.61506 0.0
C4147 C 0.7987 0.85141 0.61701 0.0
C4148 C 0.78557 0.84327 0.60196 0.0
C4149 C 0.78639 0.84975 0.5852 0.0
C4150 C 0.79766 0.84463 0.63482 0.0
C4151 C 0.78523 0.84936 0.64609 0.0
C4152 C 0.80916 0.83408 0.64097 0.0
C4153 C 0.82276 0.82899 0.62982 0.0
C4154 C 0.818 0.81839 0.6118 0.0
C4155 C 0.83094 0.81375 0.60135 0.0
C4156 C 0.84868 0.81952 0.60881 0.0
C4157 C 0.85351 0.82989 0.62678 0.0
C4158 C 0.84062 0.83458 0.63728 0.0
C4159 C 0.77277 0.80405 0.70287 0.0
C4160 C 0.7871 0.80449 0.71587 0.0
C4161 C 0.77526 0.81317 0.68784 0.0
C4162 C 0.79211 0.82324 0.68558 0.0
C4163 C 0.80643 0.82393 0.69875 0.0
C4164 C 0.80395 0.81465 0.71376 0.0
C4165 C 0.79473 0.83215 0.66898 0.0
C4166 C 0.80753 0.82793 0.6579 0.0
C4167 C 0.78384 0.8436 0.66324 0.0
C4168 C 0.77145 0.85041 0.67521 0.0
C4169 C 0.77739 0.85964 0.6936 0.0
C4170 C 0.76574 0.86622 0.70475 0.0
C4171 C 0.74811 0.86372 0.69766 0.0
C4172 C 0.7421 0.85465 0.6794 0.0
C4173 C 0.7537 0.84806 0.66818 0.0
H4174 H 0.73912 0.86884 0.70631 0.0
H4175 H 0.85868 0.81591 0.6007 0.0
H4176 H 0.72585 0.42157 0.49954 0.0
H4177 H 0.70238 0.43847 0.49945 0.0
H4178 H 0.74129 0.49117 0.51444 0.0
H4179 H 0.76469 0.47448 0.51483 0.0
H4180 H 0.71481 0.49029 0.53505 0.0
H4181 H 0.72108 0.47551 0.47036 0.0
H4182 H 0.72188 0.45455 0.44113 0.0
H4183 H 0.66859 0.42473 0.44228 0.0
H4184 H 0.66755 0.44536 0.47167 0.0
H4185 H 0.66347 0.55345 0.51626 0.0
H4186 H 0.68571 0.53505 0.51345 0.0
H4187 H 0.64479 0.48387 0.50278 0.0
H4188 H 0.62256 0.50203 0.50603 0.0
H4189 H 0.67133 0.48306 0.47984 0.0
H4190 H 0.66488 0.49754 0.54415 0.0
H4191 H 0.66375 0.51824 0.57343 0.0
H4192 H 0.71717 0.54819 0.57309 0.0
H4193 H 0.71852 0.52784 0.54364 0.0
C4194 C 0.72936 0.43675 0.50282 0.0
C4195 C 0.74708 0.44672 0.50718 0.0
C4196 C 0.71598 0.44637 0.50269 0.0
C4197 C 0.72016 0.46606 0.50679 0.0
C4198 C 0.73782 0.47598 0.51125 0.0
C4199 C 0.75116 0.46641 0.51143 0.0
C4200 C 0.7062 0.47647 0.50673 0.0
C4201 C 0.70544 0.48888 0.52291 0.0
C4202 C 0.69373 0.47422 0.49101 0.0
C4203 C 0.69431 0.46185 0.47331 0.0
C4204 C 0.70958 0.46438 0.46445 0.0
C4205 C 0.71007 0.45258 0.44784 0.0
C4206 C 0.69531 0.43828 0.43988 0.0
C4207 C 0.68002 0.43579 0.44848 0.0
C4208 C 0.67947 0.44754 0.46511 0.0
C4209 C 0.65923 0.53828 0.51331 0.0
C4210 C 0.64129 0.52919 0.51144 0.0
C4211 C 0.67191 0.52783 0.51162 0.0
C4212 C 0.66681 0.50816 0.50804 0.0
C4213 C 0.64891 0.49905 0.50547 0.0
C4214 C 0.63625 0.50947 0.50728 0.0
C4215 C 0.68018 0.49705 0.50805 0.0
C4216 C 0.68075 0.48446 0.49194 0.0
C4217 C 0.69248 0.49909 0.52383 0.0
C4218 C 0.69174 0.51129 0.54159 0.0
C4219 C 0.67634 0.50864 0.55024 0.0
C4220 C 0.67566 0.5203 0.56688 0.0
C4221 C 0.69036 0.53456 0.57509 0.0
C4222 C 0.70578 0.53716 0.5667 0.0
C4223 C 0.70652 0.52556 0.55003 0.0
H4224 H 0.68982 0.54356 0.58798 0.0
H4225 H 0.69572 0.42916 0.42701 0.0
H4226 H 0.21957 0.11674 0.47372 0.0
H4227 H 0.19001 0.09833 0.4751 0.0
H4228 H 0.17164 0.14907 0.48559 0.0
H4229 H 0.20142 0.16769 0.48457 0.0
H4230 H 0.15954 0.1265 0.50848 0.0
H4231 H 0.16012 0.11917 0.44348 0.0
H4232 H 0.17159 0.11251 0.41374 0.0
H4233 H 0.16981 0.0561 0.42115 0.0
H4234 H 0.15855 0.0625 0.45108 0.0
H4235 H 0.07124 0.07014 0.50128 0.0
H4236 H 0.09706 0.09321 0.49585 0.0
H4237 H 0.12447 0.04916 0.48457 0.0
H4238 H 0.09864 0.02623 0.48975 0.0
H4239 H 0.12965 0.07145 0.46009 0.0
H4240 H 0.13236 0.08089 0.52716 0.0
H4241 H 0.11999 0.08772 0.55636 0.0
H4242 H 0.11454 0.14075 0.54399 0.0
H4243 H 0.12672 0.13412 0.51462 0.0
C4244 C 0.20923 0.12401 0.47616 0.0
C4245 C 0.21286 0.1437 0.479 0.0
C4246 C 0.19228 0.11344 0.47687 0.0
C4247 C 0.17849 0.12226 0.48023 0.0
C4248 C 0.18204 0.14193 0.48294 0.0
C4249 C 0.19905 0.15255 0.48227 0.0
C4250 C 0.16061 0.11086 0.48154 0.0
C4251 C 0.15286 0.11468 0.49773 0.0
C4252 C 0.15188 0.09531 0.46763 0.0
C4253 C 0.1586 0.09136 0.4496 0.0
C4254 C 0.16229 0.10538 0.43884 0.0
C4255 C 0.16873 0.10165 0.42194 0.0
C4256 C 0.17145 0.0839 0.41558 0.0
C4257 C 0.1677 0.06985 0.4261 0.0
C4258 C 0.16126 0.07351 0.44302 0.0
C4259 C 0.0829 0.06554 0.49792 0.0
C4260 C 0.08313 0.04655 0.49632 0.0
C4261 C 0.09761 0.07866 0.49472 0.0
C4262 C 0.11286 0.07299 0.49005 0.0
C4263 C 0.11291 0.05391 0.48816 0.0
C4264 C 0.09818 0.04083 0.4912 0.0
C4265 C 0.1289 0.08675 0.48724 0.0
C4266 C 0.13626 0.0834 0.47074 0.0
C4267 C 0.1372 0.10277 0.5008 0.0
C4268 C 0.13032 0.10695 0.51865 0.0
C4269 C 0.12847 0.09397 0.53065 0.0
C4270 C 0.1215 0.09781 0.54722 0.0
C4271 C 0.11645 0.11464 0.55201 0.0
C4272 C 0.11844 0.12771 0.54026 0.0
C4273 C 0.1254 0.12394 0.52367 0.0
H4274 H 0.11102 0.11757 0.56483 0.0
H4275 H 0.17645 0.08104 0.40249 0.0
H4276 H 0.21808 0.97632 0.76926 0.0
H4277 H 0.2327 0.95032 0.76832 0.0
H4278 H 0.18227 0.91127 0.76307 0.0
H4279 H 0.16768 0.93737 0.76439 0.0
H4280 H 0.20265 0.89795 0.78321 0.0
H4281 H 0.21186 0.9179 0.72571 0.0
H4282 H 0.22152 0.94 0.705 0.0
H4283 H 0.27464 0.95203 0.73178 0.0
H4284 H 0.26525 0.93016 0.75279 0.0
H4285 H 0.23648 0.81512 0.76083 0.0
H4286 H 0.22143 0.84066 0.76108 0.0
H4287 H 0.27132 0.88017 0.76455 0.0
H4288 H 0.28639 0.85458 0.76423 0.0
H4289 H 0.25086 0.89305 0.74509 0.0
H4290 H 0.23971 0.87924 0.80677 0.0
H4291 H 0.23048 0.85728 0.82785 0.0
H4292 H 0.18151 0.83365 0.79258 0.0
H4293 H 0.19059 0.8556 0.77137 0.0
C4294 C 0.20997 0.96223 0.76785 0.0
C4295 C 0.19141 0.95945 0.76684 0.0
C4296 C 0.21847 0.94705 0.76715 0.0
C4297 C 0.20895 0.92807 0.76525 0.0
C4298 C 0.1904 0.92535 0.76448 0.0
C4299 C 0.1819 0.94054 0.76518 0.0
C4300 C 0.21813 0.91134 0.76428 0.0
C4301 C 0.21303 0.89699 0.77459 0.0
C4302 C 0.23213 0.90937 0.7535 0.0
C4303 C 0.23782 0.92255 0.74094 0.0
C4304 C 0.22558 0.92536 0.72726 0.0
C4305 C 0.23101 0.93783 0.71546 0.0
C4306 C 0.24868 0.94746 0.71711 0.0
C4307 C 0.26096 0.94459 0.73054 0.0
C4308 C 0.25559 0.93215 0.74239 0.0
C4309 C 0.2444 0.82923 0.76177 0.0
C4310 C 0.26297 0.83227 0.76263 0.0
C4311 C 0.23564 0.8442 0.76218 0.0
C4312 C 0.24487 0.8632 0.76347 0.0
C4313 C 0.26339 0.86609 0.76375 0.0
C4314 C 0.27218 0.85118 0.76362 0.0
C4315 C 0.23546 0.87976 0.76411 0.0
C4316 C 0.24051 0.89407 0.75372 0.0
C4317 C 0.22143 0.88174 0.77479 0.0
C4318 C 0.21589 0.86875 0.78745 0.0
C4319 C 0.22705 0.86924 0.80351 0.0
C4320 C 0.22183 0.85689 0.81548 0.0
C4321 C 0.20545 0.84403 0.8115 0.0
C4322 C 0.19419 0.84362 0.79563 0.0
C4323 C 0.19932 0.85605 0.78369 0.0
H4324 H 0.20145 0.83443 0.82074 0.0
H4325 H 0.25285 0.9571 0.70796 0.0
H4326 H 0.34752 0.94736 0.03735 0.0
H4327 H 0.37889 0.96008 0.04749 0.0
H4328 H 0.37664 0.00991 0.0255 0.0
H4329 H 0.34525 0.99715 0.015 0.0
H4330 H 0.39993 0.99452 0.01118 0.0
H4331 H 0.38807 0.01253 0.07157 0.0
H4332 H 0.37605 0.01137 0.10117 0.0
H4333 H 0.40302 0.969 0.11124 0.0
H4334 H 0.41491 0.96957 0.08151 0.0
H4335 H 0.49474 0.0251 0.05364 0.0
H4336 H 0.46433 0.02124 0.05997 0.0
H4337 H 0.4495 0.96931 0.02041 0.0
H4338 H 0.47997 0.97311 0.01391 0.0
H4339 H 0.43627 0.99364 0.06933 0.0
H4340 H 0.41836 0.97482 0.98988 0.0
H4341 H 0.43238 0.98076 0.96209 0.0
H4342 H 0.46558 0.0324 0.99291 0.0
H4343 H 0.45163 0.02685 0.02082 0.0
C4344 C 0.35361 0.96117 0.03493 0.0
C4345 C 0.34396 0.97109 0.02503 0.0
C4346 C 0.37153 0.96852 0.04095 0.0
C4347 C 0.3801 0.98596 0.0373 0.0
C4348 C 0.37026 0.99641 0.02845 0.0
C4349 C 0.35235 0.98905 0.02238 0.0
C4350 C 0.39957 0.99161 0.03976 0.0
C4351 C 0.40779 0.9945 0.024 0.0
C4352 C 0.40995 0.99197 0.05656 0.0
C4353 C 0.40224 0.99095 0.07414 0.0
C4354 C 0.39121 1.00273 0.07992 0.0
C4355 C 0.38447 1.00223 0.09678 0.0
C4356 C 0.38872 0.99008 0.10805 0.0
C4357 C 0.3997 0.97838 0.10247 0.0
C4358 C 0.40645 0.97879 0.08561 0.0
C4359 C 0.4852 0.01244 0.04687 0.0
C4360 C 0.48973 0.99945 0.03319 0.0
C4361 C 0.4678 0.01031 0.05047 0.0
C4362 C 0.45475 0.99514 0.04048 0.0
C4363 C 0.45949 0.98119 0.02815 0.0
C4364 C 0.47687 0.98337 0.02445 0.0
C4365 C 0.43605 0.99535 0.04056 0.0
C4366 C 0.42817 0.99372 0.05669 0.0
C4367 C 0.42593 0.99668 0.0243 0.0
C4368 C 0.43406 1.00032 0.00744 0.0
C4369 C 0.42859 0.98748 0.99069 0.0
C4370 C 0.43655 0.99076 0.97494 0.0
C4371 C 0.44992 0.0069 0.97577 0.0
C4372 C 0.4553 0.01985 0.99232 0.0
C4373 C 0.44739 0.01663 0.00811 0.0
H4374 H 0.45608 0.0094 0.96357 0.0
H4375 H 0.38355 0.98978 0.12113 0.0
H4376 H 0.87582 0.57411 0.79046 0.0
H4377 H 0.8583 0.59548 0.782 0.0
H4378 H 0.89848 0.61909 0.75035 0.0
H4379 H 0.91652 0.59846 0.75979 0.0
H4380 H 0.88673 0.6455 0.76608 0.0
H4381 H 0.85863 0.5864 0.72959 0.0
H4382 H 0.84532 0.55238 0.72242 0.0
H4383 H 0.80489 0.56 0.75643 0.0
H4384 H 0.8181 0.59404 0.76402 0.0
H4385 H 0.82307 0.6909 0.72735 0.0
H4386 H 0.84377 0.67072 0.72931 0.0
H4387 H 0.81654 0.64667 0.77124 0.0
H4388 H 0.79573 0.66641 0.76908 0.0
H4389 H 0.82302 0.62015 0.74431 0.0
H4390 H 0.85484 0.68182 0.78025 0.0
H4391 H 0.87052 0.71518 0.78499 0.0
H4392 H 0.9056 0.70162 0.74636 0.0
H4393 H 0.89001 0.66826 0.74116 0.0
C4394 C 0.88096 0.584 0.78185 0.0
C4395 C 0.89746 0.58465 0.77571 0.0
C4396 C 0.87087 0.59607 0.77684 0.0
C4397 C 0.87681 0.60852 0.76506 0.0
C4398 C 0.89355 0.60953 0.75935 0.0
C4399 C 0.90386 0.59778 0.76476 0.0
C4400 C 0.86558 0.62057 0.75891 0.0
C4401 C 0.87286 0.6399 0.76097 0.0
C4402 C 0.84752 0.61326 0.75206 0.0
C4403 C 0.83944 0.59278 0.74747 0.0
C4404 C 0.84696 0.58082 0.73564 0.0
C4405 C 0.83943 0.56152 0.73149 0.0
C4406 C 0.82429 0.55403 0.73899 0.0
C4407 C 0.81663 0.56582 0.75063 0.0
C4408 C 0.82412 0.58512 0.75484 0.0
C4409 C 0.82144 0.68114 0.73682 0.0
C4410 C 0.8078 0.68017 0.74806 0.0
C4411 C 0.83334 0.66978 0.73804 0.0
C4412 C 0.83173 0.65732 0.75051 0.0
C4413 C 0.81801 0.65622 0.76155 0.0
C4414 C 0.80619 0.66756 0.76038 0.0
C4415 C 0.84406 0.6451 0.75219 0.0
C4416 C 0.83696 0.62567 0.74915 0.0
C4417 C 0.86238 0.65229 0.75752 0.0
C4418 C 0.87108 0.67254 0.76012 0.0
C4419 C 0.8657 0.68598 0.77253 0.0
C4420 C 0.87464 0.70488 0.77537 0.0
C4421 C 0.88908 0.71045 0.76604 0.0
C4422 C 0.89445 0.69724 0.75363 0.0
C4423 C 0.88557 0.67836 0.75074 0.0
H4424 H 0.89627 0.72496 0.76854 0.0
H4425 H 0.81847 0.53909 0.73577 0.0
H4426 H 0.80711 0.61435 0.00792 0.0
H4427 H 0.83533 0.60602 0.00876 0.0
H4428 H 0.85666 0.65306 0.98351 0.0
H4429 H 0.82806 0.66149 0.98236 0.0
H4430 H 0.86704 0.62152 0.96873 0.0
H4431 H 0.86799 0.65581 0.02894 0.0
H4432 H 0.85669 0.66504 0.05826 0.0
H4433 H 0.85359 0.61005 0.07057 0.0
H4434 H 0.86462 0.60039 0.04119 0.0
H4435 H 0.95162 0.60057 0.99022 0.0
H4436 H 0.92812 0.61732 0.98779 0.0
H4437 H 0.89477 0.57656 0.01281 0.0
H4438 H 0.91801 0.55984 0.01521 0.0
H4439 H 0.89412 0.61142 0.0283 0.0
H4440 H 0.88954 0.57658 0.96561 0.0
H4441 H 0.90121 0.5679 0.93642 0.0
H4442 H 0.91216 0.62531 0.92928 0.0
H4443 H 0.9007 0.63435 0.95859 0.0
C4444 C 0.81773 0.62301 0.00251 0.0
C4445 C 0.81528 0.63872 0.9952 0.0
C4446 C 0.83394 0.61823 0.00307 0.0
C4447 C 0.84825 0.6291 0.99652 0.0
C4448 C 0.84583 0.64454 0.98876 0.0
C4449 C 0.82949 0.64935 0.98815 0.0
C4450 C 0.86558 0.62406 0.99797 0.0
C4451 C 0.87318 0.61968 0.98181 0.0
C4452 C 0.87359 0.62158 0.01502 0.0
C4453 C 0.86704 0.62734 0.03279 0.0
C4454 C 0.86479 0.64564 0.03784 0.0
C4455 C 0.85845 0.65096 0.05448 0.0
C4456 C 0.8544 0.63813 0.06626 0.0
C4457 C 0.85672 0.61997 0.06144 0.0
C4458 C 0.86305 0.61457 0.0448 0.0
C4459 C 0.93923 0.59512 0.99507 0.0
C4460 C 0.93677 0.57894 0.00306 0.0
C4461 C 0.92581 0.60472 0.99369 0.0
C4462 C 0.90963 0.5982 1.00011 0.0
C4463 C 0.90716 0.58198 0.00792 0.0
C4464 C 0.92052 0.57245 0.00934 0.0
C4465 C 0.89517 0.60813 0.99897 0.0
C4466 C 0.88815 0.61353 0.01526 0.0
C4467 C 0.88781 0.61165 0.98208 0.0
C4468 C 0.89446 0.60617 0.96437 0.0
C4469 C 0.89455 0.58737 0.95787 0.0
C4470 C 0.90111 0.58238 0.94129 0.0
C4471 C 0.9075 0.59606 0.93102 0.0
C4472 C 0.90725 0.61474 0.93727 0.0
C4473 C 0.9007 0.6198 0.95385 0.0
H4474 H 0.91261 0.59221 0.9182 0.0
H4475 H 0.84949 0.64227 0.07914 0.0
H4476 H 0.21483 0.07014 0.7708 0.0
H4477 H 0.2331 0.10135 0.7693 0.0
H4478 H 0.18729 0.12414 0.77125 0.0
H4479 H 0.16923 0.09344 0.77241 0.0
H4480 H 0.20414 0.13913 0.7477 0.0
H4481 H 0.22345 0.13214 0.80929 0.0
H4482 H 0.23592 0.11696 0.83281 0.0
H4483 H 0.2836 0.12161 0.80762 0.0
H4484 H 0.27132 0.13663 0.78382 0.0
H4485 H 0.24798 0.23784 0.76439 0.0
H4486 H 0.23054 0.20637 0.76614 0.0
H4487 H 0.27749 0.18544 0.76521 0.0
H4488 H 0.29479 0.21671 0.764 0.0
H4489 H 0.26047 0.1692 0.78779 0.0
H4490 H 0.24151 0.17632 0.7264 0.0
H4491 H 0.22928 0.19154 0.70278 0.0
H4492 H 0.18116 0.18643 0.72719 0.0
H4493 H 0.1932 0.17138 0.75111 0.0
C4494 C 0.20865 0.0818 0.77106 0.0
C4495 C 0.19031 0.07881 0.77178 0.0
C4496 C 0.2192 0.09987 0.77024 0.0
C4497 C 0.21187 0.1157 0.77024 0.0
C4498 C 0.19362 0.11259 0.77108 0.0
C4499 C 0.18318 0.09472 0.77185 0.0
C4500 C 0.22271 0.13536 0.76915 0.0
C4501 C 0.21636 0.14566 0.7567 0.0
C4502 C 0.239 0.14432 0.7804 0.0
C4503 C 0.24639 0.13531 0.79467 0.0
C4504 C 0.23655 0.1298 0.8087 0.0
C4505 C 0.24359 0.12125 0.82209 0.0
C4506 C 0.26052 0.11827 0.82168 0.0
C4507 C 0.27047 0.12389 0.8079 0.0
C4508 C 0.26348 0.13243 0.79446 0.0
C4509 C 0.25457 0.22652 0.76446 0.0
C4510 C 0.27294 0.23009 0.76393 0.0
C4511 C 0.24452 0.2083 0.76538 0.0
C4512 C 0.25239 0.19288 0.76559 0.0
C4513 C 0.27075 0.19664 0.76513 0.0
C4514 C 0.28074 0.21475 0.76433 0.0
C4515 C 0.24186 0.173 0.7664 0.0
C4516 C 0.24827 0.16266 0.77878 0.0
C4517 C 0.22563 0.16397 0.75505 0.0
C4518 C 0.21832 0.1729 0.74065 0.0
C4519 C 0.22836 0.17855 0.72679 0.0
C4520 C 0.22146 0.18713 0.71335 0.0
C4521 C 0.20447 0.19 0.71352 0.0
C4522 C 0.19433 0.18423 0.7271 0.0
C4523 C 0.20118 0.17566 0.7406 0.0
H4524 H 0.19915 0.19665 0.7031 0.0
H4525 H 0.26595 0.11165 0.83206 0.0
H4526 H 0.42899 0.97001 0.25469 0.0
H4527 H 0.41251 0.93742 0.25171 0.0
H4528 H 0.37675 0.95541 0.28781 0.0
H4529 H 0.39314 0.98788 0.29101 0.0
H4530 H 0.38482 0.92267 0.29433 0.0
H4531 H 0.36692 0.94933 0.24152 0.0
H4532 H 0.37366 0.96469 0.21493 0.0
H4533 H 0.39361 0.91847 0.19044 0.0
H4534 H 0.38719 0.90294 0.21702 0.0
H4535 H 0.30752 0.85363 0.27714 0.0
H4536 H 0.32812 0.88369 0.27788 0.0
H4537 H 0.35426 0.8574 0.23581 0.0
H4538 H 0.33299 0.82744 0.23431 0.0
H4539 H 0.35468 0.89208 0.23142 0.0
H4540 H 0.36932 0.8633 0.28195 0.0
H4541 H 0.3622 0.84744 0.3081 0.0
H4542 H 0.35005 0.89694 0.33709 0.0
H4543 H 0.35665 0.91295 0.31089 0.0
C4544 C 0.41778 0.967 0.26222 0.0
C4545 C 0.41221 0.98156 0.27287 0.0
C4546 C 0.40838 0.94839 0.26047 0.0
C4547 C 0.39329 0.9441 0.26932 0.0
C4548 C 0.38835 0.95847 0.28083 0.0
C4549 C 0.39769 0.97703 0.28256 0.0
C4550 C 0.38175 0.92497 0.26563 0.0
C4551 C 0.3782 0.91597 0.2806 0.0
C4552 C 0.37352 0.91608 0.24761 0.0
C4553 C 0.37672 0.92506 0.23131 0.0
C4554 C 0.37279 0.94247 0.23048 0.0
C4555 C 0.37656 0.95121 0.21542 0.0
C4556 C 0.3841 0.94259 0.20103 0.0
C4557 C 0.38779 0.92514 0.20161 0.0
C4558 C 0.38407 0.91636 0.21665 0.0
C4559 C 0.31747 0.85436 0.26783 0.0
C4560 C 0.31886 0.83825 0.25585 0.0
C4561 C 0.32927 0.87149 0.26831 0.0
C4562 C 0.34307 0.87263 0.25733 0.0
C4563 C 0.34381 0.85679 0.24451 0.0
C4564 C 0.33169 0.83971 0.24369 0.0
C4565 C 0.35733 0.88998 0.26024 0.0
C4566 C 0.36147 0.8986 0.24512 0.0
C4567 C 0.36628 0.89845 0.27812 0.0
C4568 C 0.36337 0.88928 0.29439 0.0
C4569 C 0.36512 0.8708 0.2939 0.0
C4570 C 0.36112 0.86176 0.30871 0.0
C4571 C 0.35562 0.87116 0.32422 0.0
C4572 C 0.35427 0.88967 0.32504 0.0
C4573 C 0.35814 0.89874 0.31021 0.0
H4574 H 0.35242 0.86411 0.33564 0.0
H4575 H 0.38707 0.9494 0.18941 0.0
H4576 H 0.55839 0.34246 0.5677 0.0
H4577 H 0.55463 0.36894 0.5533 0.0
H4578 H 0.57619 0.40698 0.60479 0.0
H4579 H 0.57912 0.38044 0.61942 0.0
H4580 H 0.55075 0.41817 0.59128 0.0
H4581 H 0.59966 0.40103 0.56495 0.0
H4582 H 0.61609 0.38017 0.54863 0.0
H4583 H 0.57817 0.36867 0.50017 0.0
H4584 H 0.56139 0.38928 0.51628 0.0
H4585 H 0.5698 0.50113 0.55107 0.0
H4586 H 0.57502 0.47417 0.564 0.0
H4587 H 0.53552 0.43685 0.52231 0.0
H4588 H 0.52984 0.46375 0.50961 0.0
H4589 H 0.5705 0.42598 0.53045 0.0
H4590 H 0.52179 0.4439 0.55876 0.0
H4591 H 0.50761 0.46677 0.57558 0.0
H4592 H 0.54852 0.47889 0.62144 0.0
H4593 H 0.56311 0.45629 0.60473 0.0
C4594 C 0.56236 0.35648 0.57593 0.0
C4595 C 0.5691 0.35931 0.59471 0.0
C4596 C 0.56032 0.37169 0.56764 0.0
C4597 C 0.56541 0.39018 0.57778 0.0
C4598 C 0.57213 0.39296 0.59657 0.0
C4599 C 0.57386 0.37774 0.60494 0.0
C4600 C 0.56343 0.40656 0.56899 0.0
C4601 C 0.55533 0.4199 0.5781 0.0
C4602 C 0.56914 0.40897 0.55163 0.0
C4603 C 0.57918 0.39655 0.54189 0.0
C4604 C 0.59476 0.39394 0.55086 0.0
C4605 C 0.60414 0.38218 0.54164 0.0
C4606 C 0.59815 0.37306 0.52339 0.0
C4607 C 0.58278 0.37572 0.51431 0.0
C4608 C 0.57334 0.38745 0.52348 0.0
C4609 C 0.56236 0.48717 0.54451 0.0
C4610 C 0.54937 0.48461 0.52932 0.0
C4611 C 0.56533 0.47179 0.55196 0.0
C4612 C 0.55563 0.45351 0.54414 0.0
C4613 C 0.54317 0.45082 0.52854 0.0
C4614 C 0.53991 0.46623 0.52134 0.0
C4615 C 0.5579 0.4373 0.55278 0.0
C4616 C 0.56602 0.4241 0.54365 0.0
C4617 C 0.55251 0.43518 0.57024 0.0
C4618 C 0.54364 0.44857 0.58041 0.0
C4619 C 0.52785 0.45157 0.57236 0.0
C4620 C 0.51972 0.46445 0.58189 0.0
C4621 C 0.52719 0.47432 0.59955 0.0
C4622 C 0.54277 0.47126 0.60774 0.0
C4623 C 0.55096 0.45841 0.59825 0.0
H4624 H 0.52087 0.48429 0.6069 0.0
H4625 H 0.60544 0.36396 0.51627 0.0
H4626 H 0.4474 0.74766 0.3829 0.0
H4627 H 0.41741 0.74883 0.37099 0.0
H4628 H 0.43876 0.78129 0.33132 0.0
H4629 H 0.4683 0.78016 0.34285 0.0
H4630 H 0.41578 0.79715 0.3511 0.0
H4631 H 0.41856 0.73543 0.31834 0.0
H4632 H 0.42143 0.70292 0.31708 0.0
H4633 H 0.37675 0.69116 0.34667 0.0
H4634 H 0.37376 0.72369 0.3483 0.0
H4635 H 0.35435 0.79725 0.27725 0.0
H4636 H 0.37828 0.79403 0.29887 0.0
H4637 H 0.34113 0.75666 0.32379 0.0
H4638 H 0.31708 0.75937 0.30153 0.0
H4639 H 0.36855 0.74262 0.31868 0.0
H4640 H 0.36232 0.80193 0.34729 0.0
H4641 H 0.35974 0.83473 0.35167 0.0
H4642 H 0.41016 0.85157 0.33308 0.0
H4643 H 0.41296 0.81886 0.32831 0.0
C4644 C 0.44565 0.7549 0.37155 0.0
C4645 C 0.46035 0.76387 0.36394 0.0
C4646 C 0.42851 0.75555 0.36475 0.0
C4647 C 0.42584 0.76524 0.3503 0.0
C4648 C 0.44046 0.77386 0.34256 0.0
C4649 C 0.45742 0.77313 0.34919 0.0
C4650 C 0.40807 0.76711 0.34323 0.0
C4651 C 0.40545 0.78524 0.34394 0.0
C4652 C 0.39427 0.75154 0.33469 0.0
C4653 C 0.39608 0.73203 0.33365 0.0
C4654 C 0.40945 0.72595 0.32472 0.0
C4655 C 0.41108 0.70752 0.32391 0.0
C4656 C 0.39932 0.695 0.33185 0.0
C4657 C 0.38588 0.70088 0.34056 0.0
C4658 C 0.3842 0.7193 0.34143 0.0
C4659 C 0.35124 0.78848 0.28745 0.0
C4660 C 0.3338 0.77876 0.28785 0.0
C4661 C 0.36494 0.78676 0.29994 0.0
C4662 C 0.36157 0.77535 0.31327 0.0
C4663 C 0.34409 0.76568 0.31378 0.0
C4664 C 0.33032 0.7674 0.3012 0.0
C4665 C 0.37657 0.77282 0.32572 0.0
C4666 C 0.37867 0.75458 0.3261 0.0
C4667 C 0.38987 0.78832 0.3355 0.0
C4668 C 0.38783 0.80789 0.33742 0.0
C4669 C 0.37277 0.81258 0.34393 0.0
C4670 C 0.3713 0.83118 0.34654 0.0
C4671 C 0.38483 0.84523 0.34277 0.0
C4672 C 0.39974 0.84068 0.33609 0.0
C4673 C 0.40128 0.82212 0.33345 0.0
H4674 H 0.38381 0.85965 0.34504 0.0
H4675 H 0.4006 0.68073 0.3312 0.0
H4676 H 0.05143 0.7556 0.0793 0.0
H4677 H 0.04432 0.72348 0.06111 0.0
H4678 H 0.08776 0.7115 0.09295 0.0
H4679 H 0.09467 0.74317 0.11124 0.0
H4680 H 0.08481 0.69789 0.0541 0.0
H4681 H 0.04882 0.69858 0.10476 0.0
H4682 H 0.02662 0.70967 0.12231 0.0
H4683 H 0.98849 0.69187 0.07372 0.0
H4684 H 0.01056 0.68092 0.05581 0.0
H4685 H 0.0734 0.6017 0.0504 0.0
H4686 H 0.07687 0.63538 0.05966 0.0
H4687 H 0.02556 0.63082 0.03057 0.0
H4688 H 0.02178 0.59687 0.02156 0.0
H4689 H 0.02973 0.65397 0.06257 0.0
H4690 H 0.06346 0.64908 0.01272 0.0
H4691 H 0.08507 0.63826 0.99411 0.0
H4692 H 0.12657 0.66444 0.03854 0.0
H4693 H 0.10516 0.67518 0.05755 0.0
C4694 C 0.05959 0.74617 0.08219 0.0
C4695 C 0.07355 0.75186 0.09674 0.0
C4696 C 0.05548 0.72783 0.07187 0.0
C4697 C 0.06548 0.71509 0.07576 0.0
C4698 C 0.07989 0.72108 0.0897 0.0
C4699 C 0.08377 0.73918 0.10018 0.0
C4700 C 0.06062 0.69517 0.06618 0.0
C4701 C 0.07278 0.68825 0.05594 0.0
C4702 C 0.04467 0.68274 0.06809 0.0
C4703 C 0.03139 0.68916 0.0789 0.0
C4704 C 0.03574 0.69719 0.09778 0.0
C4705 C 0.02318 0.70342 0.1078 0.0
C4706 C 0.00617 0.70154 0.09912 0.0
C4707 C 0.00168 0.69336 0.08042 0.0
C4708 C 0.0142 0.68714 0.07033 0.0
C4709 C 0.06282 0.6078 0.04592 0.0
C4710 C 0.04734 0.59654 0.03516 0.0
C4711 C 0.06487 0.62714 0.05116 0.0
C4712 C 0.05163 0.63578 0.04552 0.0
C4713 C 0.03601 0.62453 0.03503 0.0
C4714 C 0.03388 0.60511 0.02988 0.0
C4715 C 0.05419 0.65649 0.05088 0.0
C4716 C 0.04161 0.66358 0.06034 0.0
C4717 C 0.06967 0.66915 0.04802 0.0
C4718 C 0.08266 0.66284 0.03661 0.0
C4719 C 0.07717 0.65243 0.01858 0.0
C4720 C 0.08939 0.64632 0.00795 0.0
C4721 C 0.10718 0.65064 0.01515 0.0
C4722 C 0.11278 0.6611 0.03299 0.0
C4723 C 0.10061 0.66723 0.04369 0.0
H4724 H 0.11662 0.64589 0.0069 0.0
H4725 H 0.99647 0.70638 0.1069 0.0
H4726 H 0.04273 0.24517 0.85337 0.0
H4727 H 0.06963 0.24592 0.83882 0.0
H4728 H 0.10099 0.26894 0.89179 0.0
H4729 H 0.07411 0.2683 0.90645 0.0
H4730 H 0.11308 0.28806 0.86547 0.0
H4731 H 0.09746 0.22389 0.87189 0.0
H4732 H 0.078 0.19235 0.86899 0.0
H4733 H 0.07163 0.18647 0.80986 0.0
H4734 H 0.09084 0.21811 0.81242 0.0
H4735 H 0.19344 0.28093 0.83054 0.0
H4736 H 0.16877 0.27621 0.84877 0.0
H4737 H 0.13294 0.25148 0.79886 0.0
H4738 H 0.15756 0.25556 0.78065 0.0
H4739 H 0.12437 0.23253 0.82584 0.0
H4740 H 0.13802 0.29755 0.81965 0.0
H4741 H 0.15729 0.3292 0.82246 0.0
H4742 H 0.16723 0.33339 0.88124 0.0
H4743 H 0.14818 0.30165 0.87874 0.0
C4744 C 0.05534 0.25028 0.86196 0.0
C4745 C 0.05626 0.25668 0.88108 0.0
C4746 C 0.07073 0.25063 0.85362 0.0
C4747 C 0.08736 0.25736 0.86422 0.0
C4748 C 0.08832 0.26368 0.88333 0.0
C4749 C 0.07293 0.26325 0.89169 0.0
C4750 C 0.10372 0.25836 0.85523 0.0
C4751 C 0.1157 0.27584 0.85707 0.0
C4752 C 0.10702 0.24251 0.84397 0.0
C4753 C 0.09547 0.22346 0.84236 0.0
C4754 C 0.09179 0.21594 0.85828 0.0
C4755 C 0.08083 0.19803 0.85669 0.0
C4756 C 0.07355 0.18743 0.83925 0.0
C4757 C 0.07726 0.19471 0.82336 0.0
C4758 C 0.0882 0.21262 0.82487 0.0
C4759 C 0.18035 0.27421 0.82347 0.0
C4760 C 0.17749 0.26879 0.80409 0.0
C4761 C 0.16622 0.27168 0.8339 0.0
C4762 C 0.14892 0.26375 0.82517 0.0
C4763 C 0.14613 0.25771 0.80592 0.0
C4764 C 0.16022 0.26022 0.7955 0.0
C4765 C 0.13362 0.26226 0.83592 0.0
C4766 C 0.12183 0.2447 0.83438 0.0
C4767 C 0.13047 0.27804 0.84744 0.0
C4768 C 0.14184 0.29715 0.84898 0.0
C4769 C 0.14442 0.30517 0.83316 0.0
C4770 C 0.15528 0.32313 0.8347 0.0
C4771 C 0.16352 0.33328 0.85202 0.0
C4772 C 0.16086 0.3255 0.86784 0.0
C4773 C 0.15003 0.30753 0.86637 0.0
H4774 H 0.17192 0.34718 0.85318 0.0
H4775 H 0.06507 0.17356 0.83805 0.0
H4776 H 0.5907 0.792 0.94932 0.0
H4777 H 0.5833 0.76986 0.9703 0.0
H4778 H 0.55971 0.72581 0.92363 0.0
H4779 H 0.56704 0.74774 0.90264 0.0
H4780 H 0.53943 0.72635 0.95284 0.0
H4781 H 0.60031 0.72881 0.94268 0.0
H4782 H 0.63145 0.74498 0.94328 0.0
H4783 H 0.63543 0.76444 1.0018 0.0
H4784 H 0.60422 0.74857 1.00149 0.0
H4785 H 0.53774 0.6403 0.98013 0.0
H4786 H 0.54164 0.66816 0.96626 0.0
H4787 H 0.57148 0.70156 0.01707 0.0
H4788 H 0.56874 0.67341 0.03065 0.0
H4789 H 0.58773 0.71032 0.99003 0.0
H4790 H 0.52835 0.7045 1.00153 0.0
H4791 H 0.49722 0.68874 1.00157 0.0
H4792 H 0.4898 0.67668 0.94222 0.0
H4793 H 0.52095 0.69216 0.94181 0.0
C4794 C 0.58387 0.77762 0.94356 0.0
C4795 C 0.57955 0.77157 0.92434 0.0
C4796 C 0.57967 0.76501 0.95555 0.0
C4797 C 0.57103 0.74621 0.94847 0.0
C4798 C 0.56634 0.74028 0.92934 0.0
C4799 C 0.57063 0.7528 0.91737 0.0
C4800 C 0.56743 0.7324 0.96081 0.0
C4801 C 0.54995 0.72275 0.96096 0.0
C4802 C 0.58115 0.72823 0.97185 0.0
C4803 C 0.5999 0.73771 0.97202 0.0
C4804 C 0.60779 0.73668 0.95564 0.0
C4805 C 0.62546 0.74576 0.95594 0.0
C4806 C 0.6354 0.75579 0.97256 0.0
C4807 C 0.62771 0.7567 0.98893 0.0
C4808 C 0.61004 0.74766 0.98871 0.0
C4809 C 0.54525 0.65352 0.98836 0.0
C4810 C 0.55304 0.65452 0.00649 0.0
C4811 C 0.5472 0.66955 0.9805 0.0
C4812 C 0.55661 0.68707 0.99071 0.0
C4813 C 0.56408 0.68822 0.00895 0.0
C4814 C 0.56235 0.67212 0.01675 0.0
C4815 C 0.55967 0.70383 0.98183 0.0
C4816 C 0.57709 0.71407 0.98228 0.0
C4817 C 0.54584 0.70866 0.9715 0.0
C4818 C 0.52704 0.69941 0.97166 0.0
C4819 C 0.52011 0.69839 0.98849 0.0
C4820 C 0.50245 0.68952 0.98857 0.0
C4821 C 0.49155 0.68169 0.97191 0.0
C4822 C 0.49827 0.68276 0.95512 0.0
C4823 C 0.51592 0.69161 0.95495 0.0
H4824 H 0.47788 0.67482 0.97201 0.0
H4825 H 0.64908 0.7628 0.97276 0.0
H4826 H 0.05504 0.77754 0.65106 0.0
H4827 H 0.08344 0.77769 0.66752 0.0
H4828 H 0.06161 0.78185 0.71917 0.0
H4829 H 0.03307 0.78164 0.70283 0.0
H4830 H 0.09813 0.80252 0.72116 0.0
H4831 H 0.06029 0.74113 0.70082 0.0
H4832 H 0.03985 0.71601 0.67807 0.0
H4833 H 0.0805 0.71422 0.643 0.0
H4834 H 0.10112 0.73956 0.66545 0.0
H4835 H 0.16584 0.7652 0.76361 0.0
H4836 H 0.13743 0.77183 0.75407 0.0
H4837 H 0.14556 0.7588 0.69686 0.0
H4838 H 0.17353 0.75187 0.70627 0.0
H4839 H 0.11373 0.74192 0.70123 0.0
H4840 H 0.15138 0.80492 0.72205 0.0
H4841 H 0.17028 0.83175 0.74429 0.0
H4842 H 0.12919 0.83065 0.77913 0.0
H4843 H 0.11014 0.80367 0.75723 0.0
C4844 C 0.05638 0.77898 0.66597 0.0
C4845 C 0.04178 0.77921 0.67564 0.0
C4846 C 0.07259 0.77906 0.67534 0.0
C4847 C 0.07442 0.77945 0.69445 0.0
C4848 C 0.06035 0.78146 0.70439 0.0
C4849 C 0.04408 0.78127 0.69502 0.0
C4850 C 0.09022 0.77536 0.70351 0.0
C4851 C 0.10153 0.78922 0.71704 0.0
C4852 C 0.09441 0.75795 0.69808 0.0
C4853 C 0.0822 0.74236 0.68474 0.0
C4854 C 0.06484 0.73547 0.6882 0.0
C4855 C 0.05322 0.72118 0.67536 0.0
C4856 C 0.05885 0.71356 0.65906 0.0
C4857 C 0.07615 0.72015 0.65562 0.0
C4858 C 0.08782 0.73447 0.66841 0.0
C4859 C 0.16148 0.76379 0.74903 0.0
C4860 C 0.17171 0.7578 0.73565 0.0
C4861 C 0.14534 0.76765 0.7436 0.0
C4862 C 0.13943 0.76589 0.72475 0.0
C4863 C 0.14979 0.76012 0.71147 0.0
C4864 C 0.16573 0.75609 0.71685 0.0
C4865 C 0.12225 0.7694 0.71849 0.0
C4866 C 0.11044 0.75524 0.70552 0.0
C4867 C 0.1176 0.78651 0.72459 0.0
C4868 C 0.12941 0.80216 0.7381 0.0
C4869 C 0.14647 0.81024 0.73458 0.0
C4870 C 0.15719 0.82552 0.74709 0.0
C4871 C 0.15092 0.8329 0.7631 0.0
C4872 C 0.13401 0.82492 0.76672 0.0
C4873 C 0.12326 0.80964 0.75428 0.0
H4874 H 0.15908 0.84488 0.77267 0.0
H4875 H 0.04983 0.70252 0.64912 0.0
H4876 H 0.07609 0.36107 0.41569 0.0
H4877 H 0.07347 0.39066 0.43353 0.0
H4878 H 0.10363 0.42099 0.39717 0.0
H4879 H 0.10608 0.39136 0.37897 0.0
H4880 H 0.09746 0.42041 0.45283 0.0
H4881 H 0.08845 0.4595 0.39365 0.0
H4882 H 0.07783 0.45325 0.36027 0.0
H4883 H 0.04274 0.40173 0.3657 0.0
H4884 H 0.05297 0.40793 0.39916 0.0
H4885 H 0.0925 0.51185 0.49407 0.0
H4886 H 0.10146 0.48803 0.4725 0.0
H4887 H 0.04696 0.463 0.45103 0.0
H4888 H 0.03797 0.48666 0.47253 0.0
H4889 H 0.06856 0.46333 0.42351 0.0
H4890 H 0.06617 0.44612 0.48415 0.0
H4891 H 0.07448 0.45138 0.5179 0.0
H4892 H 0.12877 0.45624 0.51007 0.0
H4893 H 0.12079 0.45124 0.47626 0.0
C4894 C 0.08219 0.37401 0.41146 0.0
C4895 C 0.09121 0.37383 0.39583 0.0
C4896 C 0.08074 0.39092 0.42173 0.0
C4897 C 0.08825 0.40799 0.4166 0.0
C4898 C 0.09754 0.40794 0.40122 0.0
C4899 C 0.09895 0.39099 0.39087 0.0
C4900 C 0.08596 0.42572 0.42726 0.0
C4901 C 0.09128 0.42988 0.44639 0.0
C4902 C 0.07788 0.43804 0.41886 0.0
C4903 C 0.07154 0.43417 0.39883 0.0
C4904 C 0.07839 0.44694 0.3877 0.0
C4905 C 0.07246 0.44338 0.36878 0.0
C4906 C 0.05964 0.42708 0.36085 0.0
C4907 C 0.0527 0.41433 0.37185 0.0
C4908 C 0.05856 0.41786 0.39079 0.0
C4909 C 0.08248 0.50138 0.48457 0.0
C4910 C 0.06456 0.501 0.48496 0.0
C4911 C 0.0876 0.48784 0.47228 0.0
C4912 C 0.07485 0.47372 0.46029 0.0
C4913 C 0.057 0.47385 0.46011 0.0
C4914 C 0.05188 0.48733 0.47243 0.0
C4915 C 0.0798 0.45781 0.44908 0.0
C4916 C 0.07504 0.45404 0.42987 0.0
C4917 C 0.08814 0.44566 0.45744 0.0
C4918 C 0.09292 0.44852 0.47772 0.0
C4919 C 0.07989 0.44845 0.48965 0.0
C4920 C 0.08454 0.45136 0.50877 0.0
C4921 C 0.10214 0.4542 0.51613 0.0
C4922 C 0.11514 0.45407 0.50436 0.0
C4923 C 0.11056 0.4512 0.48522 0.0
H4924 H 0.10572 0.45645 0.53094 0.0
H4925 H 0.05508 0.42433 0.3462 0.0
H4926 H 0.45979 0.21809 0.2045 0.0
H4927 H 0.43275 0.21414 0.21885 0.0
H4928 H 0.40825 0.23628 0.17571 0.0
H4929 H 0.43526 0.24017 0.1611 0.0
H4930 H 0.41977 0.24251 0.23276 0.0
H4931 H 0.36415 0.2183 0.16981 0.0
H4932 H 0.35782 0.19662 0.13975 0.0
H4933 H 0.39219 0.16456 0.15965 0.0
H4934 H 0.39853 0.18587 0.18992 0.0
H4935 H 0.34932 0.28254 0.24257 0.0
H4936 H 0.37313 0.2694 0.23189 0.0
H4937 H 0.34403 0.21399 0.23573 0.0
H4938 H 0.31979 0.22707 0.24638 0.0
H4939 H 0.35834 0.21525 0.20276 0.0
H4940 H 0.37841 0.23365 0.26697 0.0
H4941 H 0.38453 0.25453 0.29749 0.0
H4942 H 0.42132 0.2954 0.2764 0.0
H4943 H 0.41524 0.27489 0.24568 0.0
C4944 C 0.44859 0.22191 0.19788 0.0
C4945 C 0.44974 0.22969 0.18176 0.0
C4946 C 0.43313 0.21956 0.20609 0.0
C4947 C 0.41851 0.22482 0.1983 0.0
C4948 C 0.41933 0.23185 0.18179 0.0
C4949 C 0.43482 0.23422 0.17354 0.0
C4950 C 0.40325 0.22524 0.20856 0.0
C4951 C 0.40634 0.23632 0.22632 0.0
C4952 C 0.38578 0.21677 0.20028 0.0
C4953 C 0.38189 0.20378 0.18213 0.0
C4954 C 0.37028 0.20657 0.16782 0.0
C4955 C 0.36671 0.19435 0.15073 0.0
C4956 C 0.37462 0.17924 0.14778 0.0
C4957 C 0.3861 0.1763 0.16193 0.0
C4958 C 0.38972 0.18847 0.17905 0.0
C4959 C 0.34794 0.26757 0.24128 0.0
C4960 C 0.33268 0.25584 0.24538 0.0
C4961 C 0.36161 0.2601 0.23523 0.0
C4962 C 0.36039 0.24079 0.23328 0.0
C4963 C 0.34519 0.22895 0.23727 0.0
C4964 C 0.33142 0.23645 0.24338 0.0
C4965 C 0.37498 0.23328 0.22647 0.0
C4966 C 0.37178 0.22096 0.20938 0.0
C4967 C 0.3924 0.2404 0.23544 0.0
C4968 C 0.39634 0.25271 0.25399 0.0
C4969 C 0.38775 0.24712 0.26881 0.0
C4970 C 0.39121 0.2589 0.28615 0.0
C4971 C 0.4033 0.27628 0.28888 0.0
C4972 C 0.41197 0.28191 0.27427 0.0
C4973 C 0.40855 0.2702 0.2569 0.0
H4974 H 0.40595 0.28539 0.30231 0.0
H4975 H 0.37184 0.16981 0.13454 0.0
H4976 H 0.62126 0.48625 0.32523 0.0
H4977 H 0.60764 0.48675 0.35419 0.0
H4978 H 0.62344 0.54703 0.3657 0.0
H4979 H 0.63645 0.54654 0.33666 0.0
H4980 H 0.62793 0.53279 0.39876 0.0
H4981 H 0.58111 0.52451 0.34905 0.0
H4982 H 0.56281 0.50857 0.31957 0.0
H4983 H 0.54793 0.45816 0.34156 0.0
H4984 H 0.56635 0.47374 0.37111 0.0
H4985 H 0.57371 0.54886 0.47242 0.0
H4986 H 0.59067 0.54843 0.44589 0.0
H4987 H 0.56044 0.4923 0.42289 0.0
H4988 H 0.54322 0.49317 0.44872 0.0
H4989 H 0.56408 0.50472 0.39535 0.0
H4990 H 0.61185 0.50851 0.44205 0.0
H4991 H 0.63214 0.52066 0.47098 0.0
H4992 H 0.64604 0.57486 0.45582 0.0
H4993 H 0.62616 0.56283 0.42647 0.0
C4994 C 0.62223 0.49962 0.33408 0.0
C4995 C 0.63051 0.51634 0.32837 0.0
C4996 C 0.61417 0.49995 0.35076 0.0
C4997 C 0.61421 0.51698 0.3627 0.0
C4998 C 0.62302 0.53358 0.35725 0.0
C4999 C 0.63065 0.53327 0.34044 0.0
C5000 C 0.60466 0.51771 0.38027 0.0
C5001 C 0.61391 0.52675 0.39786 0.0
C5002 C 0.58637 0.50957 0.37991 0.0
C5003 C 0.57525 0.50023 0.36222 0.0
C5004 C 0.57404 0.50998 0.34755 0.0
C5005 C 0.56363 0.50102 0.33083 0.0
C5006 C 0.55425 0.48235 0.32867 0.0
C5007 C 0.55523 0.47261 0.34324 0.0
C5008 C 0.56564 0.48151 0.35998 0.0
C5009 C 0.57088 0.53627 0.46193 0.0
C5010 C 0.55697 0.52095 0.46329 0.0
C5011 C 0.58075 0.53594 0.44646 0.0
C5012 C 0.57741 0.52019 0.43167 0.0
C5013 C 0.5637 0.50487 0.43343 0.0
C5014 C 0.55377 0.50531 0.44861 0.0
C5015 C 0.58734 0.51957 0.4142 0.0
C5016 C 0.57813 0.51066 0.39648 0.0
C5017 C 0.60576 0.52738 0.41453 0.0
C5018 C 0.61737 0.53486 0.43223 0.0
C5019 C 0.61915 0.52306 0.44496 0.0
C5020 C 0.63063 0.5299 0.4614 0.0
C5021 C 0.64022 0.54859 0.46537 0.0
C5022 C 0.63854 0.56041 0.45277 0.0
C5023 C 0.62726 0.55355 0.43617 0.0
H5024 H 0.64903 0.55388 0.47816 0.0
H5025 H 0.54619 0.47543 0.31572 0.0
H5026 H 0.29257 0.85815 0.021 0.0
H5027 H 0.30004 0.83565 0.03919 0.0
H5028 H 0.31558 0.87953 0.08754 0.0
H5029 H 0.30833 0.90215 0.06944 0.0
H5030 H 0.33902 0.85682 0.08373 0.0
H5031 H 0.27558 0.84994 0.0811 0.0
H5032 H 0.24542 0.84366 0.06494 0.0
H5033 H 0.24972 0.78941 0.03829 0.0
H5034 H 0.28001 0.79549 0.05414 0.0
H5035 H 0.32698 0.82023 0.16378 0.0
H5036 H 0.32963 0.83518 0.13695 0.0
H5037 H 0.30927 0.78137 0.10095 0.0
H5038 H 0.30552 0.76642 0.12794 0.0
H5039 H 0.29119 0.80424 0.0927 0.0
H5040 H 0.35253 0.80871 0.1012 0.0
H5041 H 0.38236 0.81497 0.11809 0.0
H5042 H 0.38258 0.87313 0.13391 0.0
H5043 H 0.35265 0.86721 0.11735 0.0
C5044 C 0.29757 0.86301 0.03551 0.0
C5045 C 0.29974 0.88188 0.04385 0.0
C5046 C 0.30187 0.85015 0.04584 0.0
C5047 C 0.3083 0.85596 0.06468 0.0
C5048 C 0.31071 0.87483 0.07297 0.0
C5049 C 0.30643 0.88769 0.06266 0.0
C5050 C 0.31176 0.84231 0.07609 0.0
C5051 C 0.32862 0.8453 0.08577 0.0
C5052 C 0.29831 0.8269 0.07809 0.0
C5053 C 0.28012 0.82326 0.0686 0.0
C5054 C 0.27014 0.83674 0.07167 0.0
C5055 C 0.25302 0.83321 0.0626 0.0
C5056 C 0.24568 0.81617 0.05055 0.0
C5057 C 0.25544 0.80262 0.04759 0.0
C5058 C 0.27258 0.8061 0.05661 0.0
C5059 C 0.32322 0.81153 0.15015 0.0
C5060 C 0.31571 0.79221 0.14797 0.0
C5061 C 0.32504 0.82007 0.13478 0.0
C5062 C 0.31978 0.80939 0.11688 0.0
C5063 C 0.31345 0.78987 0.11463 0.0
C5064 C 0.31141 0.78133 0.13006 0.0
C5065 C 0.3184 0.81904 0.10099 0.0
C5066 C 0.30185 0.81535 0.09038 0.0
C5067 C 0.33218 0.83377 0.09815 0.0
C5068 C 0.35028 0.83748 0.10804 0.0
C5069 C 0.35889 0.82282 0.10836 0.0
C5070 C 0.37583 0.82632 0.11787 0.0
C5071 C 0.38435 0.84444 0.12707 0.0
C5072 C 0.37597 0.85911 0.12676 0.0
C5073 C 0.35902 0.85569 0.11727 0.0
H5074 H 0.39746 0.84711 0.13444 0.0
H5075 H 0.23242 0.81346 0.04354 0.0
H5076 H 0.95413 0.5209 0.85163 0.0
H5077 H 0.96535 0.53251 0.88423 0.0
H5078 H 0.96666 0.58914 0.87696 0.0
H5079 H 0.95487 0.57743 0.84413 0.0
H5080 H 0.99963 0.5818 0.89191 0.0
H5081 H 0.94078 0.57463 0.90366 0.0
H5082 H 0.90923 0.55904 0.90036 0.0
H5083 H 0.92152 0.5143 0.925 0.0
H5084 H 0.95318 0.52911 0.92771 0.0
H5085 H 0.0459 0.58373 0.98063 0.0
H5086 H 0.02559 0.59291 0.95864 0.0
H5087 H 0.99634 0.53512 0.9428 0.0
H5088 H 0.01621 0.52612 0.96497 0.0
H5089 H 0.97435 0.55727 0.9448 0.0
H5090 H 0.02977 0.55632 0.91824 0.0
H5091 H 0.06179 0.56763 0.91812 0.0
H5092 H 0.05576 0.6238 0.91966 0.0
H5093 H 0.02371 0.6128 0.91995 0.0
C5094 C 0.9565 0.53578 0.85704 0.0
C5095 C 0.95375 0.5483 0.84543 0.0
C5096 C 0.96278 0.54238 0.87566 0.0
C5097 C 0.96668 0.56165 0.88296 0.0
C5098 C 0.96354 0.57421 0.87154 0.0
C5099 C 0.95683 0.56752 0.85289 0.0
C5100 C 0.97602 0.56831 0.90188 0.0
C5101 C 0.994 0.57706 0.90372 0.0
C5102 C 0.9686 0.56191 0.91712 0.0
C5103 C 0.94947 0.55304 0.91588 0.0
C5104 C 0.93681 0.56138 0.90824 0.0
C5105 C 0.91888 0.55265 0.90643 0.0
C5106 C 0.91338 0.53574 0.91252 0.0
C5107 C 0.9258 0.52744 0.92033 0.0
C5108 C 0.94376 0.53599 0.92197 0.0
C5109 C 0.03511 0.57307 0.97239 0.0
C5110 C 0.03261 0.55422 0.97426 0.0
C5111 C 0.02348 0.57832 0.95996 0.0
C5112 C 0.00948 0.56469 0.94904 0.0
C5113 C 0.00694 0.54592 0.95119 0.0
C5114 C 0.01837 0.54074 0.96372 0.0
C5115 C 0.99813 0.56924 0.93421 0.0
C5116 C 0.9798 0.56277 0.93326 0.0
C5117 C 0.00524 0.57723 0.91957 0.0
C5118 C 0.02445 0.58381 0.91937 0.0
C5119 C 0.03532 0.5711 0.91866 0.0
C5120 C 0.05345 0.57744 0.91855 0.0
C5121 C 0.06081 0.59644 0.91896 0.0
C5122 C 0.05005 0.60911 0.91941 0.0
C5123 C 0.0319 0.60283 0.91954 0.0
H5124 H 0.07486 0.60132 0.91887 0.0
H5125 H 0.89948 0.52906 0.91119 0.0
H5126 H 0.24524 0.18586 0.55767 0.0
H5127 H 0.24966 0.20445 0.58888 0.0
H5128 H 0.30017 0.23557 0.57903 0.0
H5129 H 0.29556 0.21722 0.54734 0.0
H5130 H 0.29883 0.21831 0.61321 0.0
H5131 H 0.2729 0.2592 0.58218 0.0
H5132 H 0.25097 0.26736 0.56104 0.0
H5133 H 0.21025 0.24721 0.59313 0.0
H5134 H 0.2319 0.23865 0.61432 0.0
H5135 H 0.31106 0.27679 0.7018 0.0
H5136 H 0.30968 0.26565 0.66865 0.0
H5137 H 0.25364 0.24314 0.66512 0.0
H5138 H 0.25484 0.25475 0.69822 0.0
H5139 H 0.2602 0.25894 0.63659 0.0
H5140 H 0.28441 0.21518 0.66553 0.0
H5141 H 0.3053 0.2054 0.68655 0.0
H5142 H 0.34804 0.22895 0.6584 0.0
H5143 H 0.32742 0.23909 0.63734 0.0
C5144 C 0.2572 0.19683 0.56204 0.0
C5145 C 0.27006 0.20009 0.55005 0.0
C5146 C 0.25969 0.20745 0.57987 0.0
C5147 C 0.27523 0.22137 0.58628 0.0
C5148 C 0.28806 0.22489 0.57432 0.0
C5149 C 0.28538 0.2145 0.55622 0.0
C5150 C 0.27814 0.23148 0.60578 0.0
C5151 C 0.29068 0.22755 0.6183 0.0
C5152 C 0.2671 0.24302 0.61246 0.0
C5153 C 0.25401 0.24813 0.59975 0.0
C5154 C 0.25924 0.25634 0.58464 0.0
C5155 C 0.24687 0.26107 0.57267 0.0
C5156 C 0.22922 0.25776 0.57572 0.0
C5157 C 0.22392 0.24975 0.59078 0.0
C5158 C 0.23625 0.24497 0.60278 0.0
C5159 C 0.29841 0.26948 0.694 0.0
C5160 C 0.28306 0.2666 0.70276 0.0
C5161 C 0.29766 0.26304 0.675 0.0
C5162 C 0.2816 0.25326 0.66433 0.0
C5163 C 0.26621 0.25062 0.67299 0.0
C5164 C 0.26692 0.25723 0.69197 0.0
C5165 C 0.2808 0.24564 0.6442 0.0
C5166 C 0.26857 0.24994 0.63155 0.0
C5167 C 0.292 0.23424 0.63742 0.0
C5168 C 0.3044 0.22808 0.65 0.0
C5169 C 0.29828 0.21839 0.6639 0.0
C5170 C 0.31007 0.21277 0.67581 0.0
C5171 C 0.32799 0.21661 0.67384 0.0
C5172 C 0.33416 0.22602 0.65992 0.0
C5173 C 0.32242 0.2317 0.64799 0.0
H5174 H 0.3371 0.21225 0.68308 0.0
H5175 H 0.21966 0.26145 0.56644 0.0
H5176 H 0.65677 0.51193 0.19922 0.0
H5177 H 0.64203 0.51478 0.1696 0.0
H5178 H 0.59238 0.50645 0.19148 0.0
H5179 H 0.60715 0.50323 0.22115 0.0
H5180 H 0.5853 0.48933 0.15739 0.0
H5181 H 0.61899 0.55182 0.18362 0.0
H5182 H 0.64542 0.57704 0.19661 0.0
H5183 H 0.66915 0.56486 0.1473 0.0
H5184 H 0.64299 0.5394 0.13413 0.0
H5185 H 0.56869 0.5528 0.0826 0.0
H5186 H 0.58248 0.54898 0.11236 0.0
H5187 H 0.5753 0.48997 0.09138 0.0
H5188 H 0.56095 0.49367 0.06189 0.0
H5189 H 0.60987 0.54136 0.12582 0.0
H5190 H 0.5766 0.46413 0.12513 0.0
H5191 H 0.54873 0.44093 0.11238 0.0
H5192 H 0.52183 0.48525 0.11228 0.0
H5193 H 0.5495 0.50869 0.12517 0.0
C5194 C 0.64269 0.51067 0.19786 0.0
C5195 C 0.63338 0.50735 0.21303 0.0
C5196 C 0.63416 0.51248 0.18071 0.0
C5197 C 0.61583 0.51124 0.17779 0.0
C5198 C 0.60644 0.50759 0.19286 0.0
C5199 C 0.615 0.50576 0.21007 0.0
C5200 C 0.6066 0.51368 0.15927 0.0
C5201 C 0.59083 0.50075 0.15059 0.0
C5202 C 0.61322 0.52858 0.14986 0.0
C5203 C 0.62909 0.5436 0.15796 0.0
C5204 C 0.62992 0.55441 0.17562 0.0
C5205 C 0.64484 0.56877 0.183 0.0
C5206 C 0.65895 0.57254 0.17278 0.0
C5207 C 0.65821 0.56192 0.1552 0.0
C5208 C 0.64335 0.54753 0.14778 0.0
C5209 C 0.56989 0.53893 0.08425 0.0
C5210 C 0.56337 0.52358 0.06944 0.0
C5211 C 0.57796 0.53672 0.1015 0.0
C5212 C 0.57996 0.51906 0.1049 0.0
C5213 C 0.57371 0.50376 0.08993 0.0
C5214 C 0.56551 0.50594 0.07273 0.0
C5215 C 0.58873 0.51685 0.12376 0.0
C5216 C 0.60438 0.52987 0.13255 0.0
C5217 C 0.58193 0.50212 0.13332 0.0
C5218 C 0.56515 0.48816 0.12596 0.0
C5219 C 0.56472 0.46891 0.12246 0.0
C5220 C 0.54896 0.45572 0.11519 0.0
C5221 C 0.53353 0.46162 0.11147 0.0
C5222 C 0.5338 0.48071 0.11511 0.0
C5223 C 0.54952 0.49395 0.12238 0.0
H5224 H 0.52136 0.4514 0.10581 0.0
H5225 H 0.67044 0.58373 0.1784 0.0
H5226 H 0.27922 0.88005 0.95488 0.0
H5227 H 0.28154 0.85975 0.92633 0.0
H5228 H 0.30935 0.90786 0.90609 0.0
H5229 H 0.30601 0.92844 0.93439 0.0
H5230 H 0.28865 0.88668 0.87952 0.0
H5231 H 0.33051 0.8746 0.92306 0.0
H5232 H 0.3423 0.8672 0.95226 0.0
H5233 H 0.30531 0.81352 0.94062 0.0
H5234 H 0.29312 0.8207 0.91148 0.0
H5235 H 0.30489 0.82433 0.80329 0.0
H5236 H 0.31181 0.84705 0.83229 0.0
H5237 H 0.2769 0.80822 0.85796 0.0
H5238 H 0.27086 0.78502 0.82922 0.0
H5239 H 0.3063 0.82696 0.88147 0.0
H5240 H 0.26529 0.84246 0.83593 0.0
H5241 H 0.25761 0.85193 0.80641 0.0
H5242 H 0.29812 0.90288 0.82235 0.0
H5243 H 0.30683 0.89318 0.85142 0.0
C5244 C 0.2858 0.8863 0.94431 0.0
C5245 C 0.29253 0.90577 0.94682 0.0
C5246 C 0.28729 0.87466 0.92806 0.0
C5247 C 0.29612 0.88215 0.91424 0.0
C5248 C 0.30261 0.90171 0.9166 0.0
C5249 C 0.30068 0.91346 0.93272 0.0
C5250 C 0.29796 0.86954 0.89713 0.0
C5251 C 0.29286 0.87381 0.87998 0.0
C5252 C 0.30347 0.85271 0.89764 0.0
C5253 C 0.31082 0.84825 0.91512 0.0
C5254 C 0.32481 0.86126 0.92678 0.0
C5255 C 0.33158 0.8571 0.94332 0.0
C5256 C 0.32454 0.83991 0.94831 0.0
C5257 C 0.31074 0.82683 0.93674 0.0
C5258 C 0.30392 0.83093 0.9202 0.0
C5259 C 0.29933 0.82035 0.81532 0.0
C5260 C 0.28769 0.80278 0.81416 0.0
C5261 C 0.30303 0.83347 0.83181 0.0
C5262 C 0.29471 0.82941 0.84723 0.0
C5263 C 0.28348 0.81163 0.84624 0.0
C5264 C 0.27997 0.79844 0.82982 0.0
C5265 C 0.2966 0.84395 0.86402 0.0
C5266 C 0.30237 0.83999 0.8811 0.0
C5267 C 0.29224 0.86135 0.86339 0.0
C5268 C 0.28684 0.86698 0.84581 0.0
C5269 C 0.27274 0.85555 0.83304 0.0
C5270 C 0.26823 0.86094 0.81636 0.0
C5271 C 0.27729 0.87807 0.81261 0.0
C5272 C 0.29111 0.88964 0.82531 0.0
C5273 C 0.29593 0.88413 0.84181 0.0
H5274 H 0.27354 0.8825 0.79996 0.0
H5275 H 0.32979 0.83672 0.96112 0.0
H5276 H 0.97427 0.52191 0.75652 0.0
H5277 H 0.98856 0.50832 0.73142 0.0
H5278 H 0.94946 0.51755 0.69142 0.0
H5279 H 0.93473 0.53041 0.71644 0.0
H5280 H 0.95659 0.48464 0.68049 0.0
H5281 H 0.99119 0.54859 0.7052 0.0
H5282 H 0.00898 0.57382 0.7299 0.0
H5283 H 0.04538 0.5398 0.73888 0.0
H5284 H 0.02768 0.5143 0.71435 0.0
H5285 H 0.99491 0.51353 0.60532 0.0
H5286 H 0.98021 0.50492 0.63149 0.0
H5287 H 0.02633 0.48917 0.65355 0.0
H5288 H 0.04134 0.4983 0.62763 0.0
H5289 H 0.01832 0.51661 0.67654 0.0
H5290 H 0.98724 0.45608 0.64587 0.0
H5291 H 0.96926 0.4307 0.62148 0.0
H5292 H 0.92653 0.45805 0.62276 0.0
H5293 H 0.94426 0.48364 0.64709 0.0
C5294 C 0.96877 0.52106 0.74236 0.0
C5295 C 0.95354 0.5274 0.73835 0.0
C5296 C 0.97689 0.51323 0.72806 0.0
C5297 C 0.97016 0.51209 0.70957 0.0
C5298 C 0.95481 0.51821 0.7056 0.0
C5299 C 0.94652 0.52571 0.71987 0.0
C5300 C 0.97955 0.50565 0.69424 0.0
C5301 C 0.97009 0.49161 0.67954 0.0
C5302 C 0.99739 0.51415 0.69344 0.0
C5303 C 0.00801 0.52948 0.70814 0.0
C5304 C 0.00292 0.54647 0.71254 0.0
C5305 C 0.01299 0.56081 0.72648 0.0
C5306 C 0.02826 0.55839 0.73599 0.0
C5307 C 0.03352 0.54164 0.73153 0.0
C5308 C 0.02348 0.52724 0.71761 0.0
C5309 C 0.00181 0.50793 0.61559 0.0
C5310 C 0.01938 0.50696 0.61468 0.0
C5311 C 0.99329 0.5027 0.63037 0.0
C5312 C 0.00215 0.49629 0.6444 0.0
C5313 C 0.01922 0.49392 0.64276 0.0
C5314 C 0.02777 0.49917 0.62796 0.0
C5315 C 0.9951 0.49625 0.66227 0.0
C5316 C 0.00501 0.50913 0.67758 0.0
C5317 C 0.97765 0.48676 0.6635 0.0
C5318 C 0.96713 0.47182 0.64831 0.0
C5319 C 0.97406 0.45676 0.64086 0.0
C5320 C 0.96386 0.44227 0.62712 0.0
C5321 C 0.94673 0.44272 0.62064 0.0
C5322 C 0.93976 0.45767 0.62787 0.0
C5323 C 0.94987 0.47215 0.64166 0.0
H5324 H 0.93889 0.43153 0.60994 0.0
H5325 H 0.03604 0.56951 0.74678 0.0
H5326 H 0.28578 0.18046 0.42209 0.0
H5327 H 0.28965 0.19478 0.39473 0.0
H5328 H 0.27439 0.24341 0.42199 0.0
H5329 H 0.2705 0.22914 0.44954 0.0
H5330 H 0.25801 0.2306 0.38514 0.0
H5331 H 0.31723 0.24734 0.41799 0.0
H5332 H 0.3432 0.24032 0.43409 0.0
H5333 H 0.34712 0.20177 0.38556 0.0
H5334 H 0.32099 0.20846 0.36935 0.0
H5335 H 0.28821 0.29454 0.32722 0.0
H5336 H 0.28436 0.27876 0.35368 0.0
H5337 H 0.30009 0.23142 0.3242 0.0
H5338 H 0.30387 0.24722 0.2975 0.0
H5339 H 0.31593 0.24241 0.36137 0.0
H5340 H 0.25864 0.22648 0.32772 0.0
H5341 H 0.23318 0.23316 0.31046 0.0
H5342 H 0.22488 0.26846 0.35926 0.0
H5343 H 0.25049 0.26221 0.37678 0.0
C5344 C 0.2833 0.19424 0.42234 0.0
C5345 C 0.27791 0.20368 0.43809 0.0
C5346 C 0.28554 0.20242 0.40666 0.0
C5347 C 0.28241 0.22023 0.4063 0.0
C5348 C 0.27688 0.22966 0.42193 0.0
C5349 C 0.27476 0.22153 0.43771 0.0
C5350 C 0.28507 0.229 0.38965 0.0
C5351 C 0.27073 0.23342 0.38011 0.0
C5352 C 0.30151 0.23219 0.38269 0.0
C5353 C 0.31724 0.22836 0.39244 0.0
C5354 C 0.32362 0.23733 0.41079 0.0
C5355 C 0.33835 0.23342 0.41995 0.0
C5356 C 0.34682 0.22062 0.41086 0.0
C5357 C 0.34058 0.21171 0.39259 0.0
C5358 C 0.32586 0.21559 0.3834 0.0
C5359 C 0.29087 0.28077 0.32637 0.0
C5360 C 0.29626 0.27207 0.31028 0.0
C5361 C 0.28862 0.27175 0.34149 0.0
C5362 C 0.29183 0.25385 0.34092 0.0
C5363 C 0.29754 0.24523 0.32497 0.0
C5364 C 0.29961 0.25421 0.3097 0.0
C5365 C 0.28893 0.24421 0.35699 0.0
C5366 C 0.30321 0.2396 0.3664 0.0
C5367 C 0.2724 0.24073 0.36375 0.0
C5368 C 0.25658 0.244 0.35353 0.0
C5369 C 0.25143 0.23573 0.33476 0.0
C5370 C 0.23697 0.23943 0.32493 0.0
C5371 C 0.22744 0.25125 0.33375 0.0
C5372 C 0.23228 0.2593 0.35245 0.0
C5373 C 0.24676 0.25567 0.36235 0.0
H5374 H 0.21632 0.25413 0.32604 0.0
H5375 H 0.3582 0.2176 0.41797 0.0
H5376 H 0.32735 0.61882 0.52505 0.0
H5377 H 0.3513 0.60294 0.52305 0.0
H5378 H 0.31848 0.55406 0.53758 0.0
H5379 H 0.29438 0.57002 0.53993 0.0
H5380 H 0.35317 0.56171 0.55409 0.0
H5381 H 0.32233 0.55437 0.4934 0.0
H5382 H 0.30882 0.56505 0.467 0.0
H5383 H 0.35905 0.59963 0.46155 0.0
H5384 H 0.37282 0.58937 0.48811 0.0
H5385 H 0.40934 0.5035 0.51924 0.0
H5386 H 0.38342 0.51596 0.52464 0.0
H5387 H 0.40961 0.56833 0.51056 0.0
H5388 H 0.43524 0.55588 0.50472 0.0
H5389 H 0.37615 0.55577 0.49347 0.0
H5390 H 0.40675 0.56447 0.55493 0.0
H5391 H 0.42063 0.5537 0.58106 0.0
H5392 H 0.37128 0.5165 0.5849 0.0
H5393 H 0.35716 0.52683 0.55857 0.0
C5394 C 0.32522 0.60476 0.52799 0.0
C5395 C 0.30888 0.59558 0.53241 0.0
C5396 C 0.33893 0.59571 0.52683 0.0
C5397 C 0.33651 0.57722 0.52982 0.0
C5398 C 0.32054 0.56831 0.53514 0.0
C5399 C 0.30679 0.57743 0.53642 0.0
C5400 C 0.35038 0.567 0.5263 0.0
C5401 C 0.35804 0.56012 0.54077 0.0
C5402 C 0.35679 0.56515 0.50895 0.0
C5403 C 0.34858 0.5712 0.49284 0.0
C5404 C 0.33048 0.56435 0.48665 0.0
C5405 C 0.32277 0.57031 0.47165 0.0
C5406 C 0.33306 0.58304 0.46263 0.0
C5407 C 0.35109 0.58979 0.46856 0.0
C5408 C 0.35885 0.58388 0.48358 0.0
C5409 C 0.40948 0.51763 0.51721 0.0
C5410 C 0.42431 0.52877 0.51166 0.0
C5411 C 0.39477 0.52475 0.52043 0.0
C5412 C 0.39471 0.5431 0.51814 0.0
C5413 C 0.40944 0.55415 0.51245 0.0
C5414 C 0.42411 0.54707 0.50927 0.0
C5415 C 0.37925 0.55086 0.52136 0.0
C5416 C 0.37122 0.55721 0.50676 0.0
C5417 C 0.37256 0.55222 0.53857 0.0
C5418 C 0.38094 0.54628 0.55464 0.0
C5419 C 0.39888 0.5539 0.56126 0.0
C5420 C 0.40679 0.54788 0.57612 0.0
C5421 C 0.39685 0.53438 0.5846 0.0
C5422 C 0.37897 0.52693 0.57829 0.0
C5423 C 0.371 0.53287 0.56341 0.0
H5424 H 0.40301 0.52973 0.59608 0.0
H5425 H 0.32707 0.58765 0.45101 0.0
H5426 H 0.85397 0.95078 0.51096 0.0
H5427 H 0.8855 0.96422 0.51543 0.0
H5428 H 0.89305 0.92604 0.55182 0.0
H5429 H 0.86113 0.91215 0.54721 0.0
H5430 H 0.90606 0.98256 0.54596 0.0
H5431 H 0.93751 0.91951 0.54709 0.0
H5432 H 0.93069 0.88539 0.53558 0.0
H5433 H 0.89412 0.8909 0.49129 0.0
H5434 H 0.90098 0.9251 0.50232 0.0
H5435 H 0.9983 0.01978 0.56288 0.0
H5436 H 0.97009 0.99924 0.56632 0.0
H5437 H 0.96381 0.97396 0.5086 0.0
H5438 H 0.9918 0.99447 0.50509 0.0
H5439 H 0.95147 0.94789 0.52991 0.0
H5440 H 0.9459 0.00971 0.52143 0.0
H5441 H 0.95298 0.04426 0.52941 0.0
H5442 H 0.93677 0.0412 0.58308 0.0
H5443 H 0.92982 0.00661 0.57547 0.0
C5444 C 0.86223 0.94512 0.51992 0.0
C5445 C 0.85492 0.93039 0.52879 0.0
C5446 C 0.88033 0.95289 0.52249 0.0
C5447 C 0.89169 0.9462 0.53399 0.0
C5448 C 0.88456 0.93136 0.54279 0.0
C5449 C 0.86631 0.92349 0.54019 0.0
C5450 C 0.91086 0.95533 0.5368 0.0
C5451 C 0.91598 0.97488 0.54267 0.0
C5452 C 0.92389 0.9454 0.53249 0.0
C5453 C 0.91949 0.92483 0.52578 0.0
C5454 C 0.92798 0.91343 0.53492 0.0
C5455 C 0.92414 0.89408 0.52845 0.0
C5456 C 0.91188 0.88596 0.51279 0.0
C5457 C 0.90352 0.8972 0.5035 0.0
C5458 C 0.90735 0.91657 0.50988 0.0
C5459 C 0.991 0.00963 0.55102 0.0
C5460 C 0.99718 0.00876 0.5337 0.0
C5461 C 0.97494 0.99789 0.553 0.0
C5462 C 0.96479 0.98516 0.53768 0.0
C5463 C 0.97144 0.9836 0.52063 0.0
C5464 C 0.98743 0.99537 0.51863 0.0
C5465 C 0.94644 0.97503 0.53873 0.0
C5466 C 0.94154 0.9554 0.53365 0.0
C5467 C 0.93348 0.98485 0.54342 0.0
C5468 C 0.93756 0.00562 0.54797 0.0
C5469 C 0.94398 0.01642 0.53498 0.0
C5470 C 0.94795 0.036 0.53943 0.0
C5471 C 0.94538 0.04492 0.55677 0.0
C5472 C 0.93879 0.03427 0.56967 0.0
C5473 C 0.93484 0.01468 0.5653 0.0
H5474 H 0.94846 0.06008 0.56018 0.0
H5475 H 0.90889 0.87099 0.50778 0.0
H5476 H 0.86239 0.09024 0.2535 0.0
H5477 H 0.84811 0.11645 0.25528 0.0
H5478 H 0.89856 0.15483 0.25781 0.0
H5479 H 0.91291 0.1286 0.25704 0.0
H5480 H 0.88282 0.17449 0.27656 0.0
H5481 H 0.86029 0.13781 0.21677 0.0
H5482 H 0.84581 0.10971 0.19339 0.0
H5483 H 0.79846 0.10475 0.21918 0.0
H5484 H 0.81273 0.13272 0.24285 0.0
H5485 H 0.84458 0.25138 0.25909 0.0
H5486 H 0.8594 0.22553 0.2575 0.0
H5487 H 0.81039 0.18734 0.26119 0.0
H5488 H 0.79547 0.21311 0.26226 0.0
H5489 H 0.82575 0.16815 0.23884 0.0
H5490 H 0.85079 0.20552 0.29985 0.0
H5491 H 0.8661 0.23513 0.32084 0.0
H5492 H 0.90957 0.24023 0.28902 0.0
H5493 H 0.89435 0.21077 0.26773 0.0
C5494 C 0.87057 0.10422 0.25442 0.0
C5495 C 0.88907 0.10676 0.25502 0.0
C5496 C 0.86223 0.11952 0.25523 0.0
C5497 C 0.87178 0.13836 0.25619 0.0
C5498 C 0.89034 0.14089 0.25702 0.0
C5499 C 0.89871 0.1256 0.25649 0.0
C5500 C 0.86267 0.15516 0.25656 0.0
C5501 C 0.87042 0.17286 0.26804 0.0
C5502 C 0.84624 0.15406 0.24581 0.0
C5503 C 0.83764 0.13722 0.23169 0.0
C5504 C 0.84683 0.13065 0.21753 0.0
C5505 C 0.83865 0.11476 0.20422 0.0
C5506 C 0.82124 0.10542 0.20484 0.0
C5507 C 0.81195 0.11198 0.21874 0.0
C5508 C 0.82007 0.12785 0.2321 0.0
C5509 C 0.83684 0.23754 0.25969 0.0
C5510 C 0.81855 0.23488 0.26097 0.0
C5511 C 0.84551 0.22248 0.25892 0.0
C5512 C 0.83648 0.20383 0.2596 0.0
C5513 C 0.81816 0.20119 0.26068 0.0
C5514 C 0.80948 0.21622 0.26138 0.0
C5515 C 0.84579 0.18724 0.25895 0.0
C5516 C 0.83809 0.16963 0.2474 0.0
C5517 C 0.86237 0.1885 0.26936 0.0
C5518 C 0.87155 0.20596 0.28231 0.0
C5519 C 0.86363 0.21297 0.29738 0.0
C5520 C 0.87226 0.22973 0.30929 0.0
C5521 C 0.88883 0.23955 0.30628 0.0
C5522 C 0.89679 0.2326 0.29137 0.0
C5523 C 0.88821 0.21586 0.27943 0.0
H5524 H 0.89548 0.25254 0.31549 0.0
H5525 H 0.81493 0.09313 0.19452 0.0
H5526 H 0.721 0.08484 0.98108 0.0
H5527 H 0.68956 0.07189 0.97032 0.0
H5528 H 0.68147 0.12783 0.97594 0.0
H5529 H 0.71278 0.14092 0.98649 0.0
H5530 H 0.66664 0.10145 1.00134 0.0
H5531 H 0.66912 0.10706 0.9371 0.0
H5532 H 0.6776 0.10134 0.90571 0.0
H5533 H 0.65843 0.04199 0.902 0.0
H5534 H 0.65013 0.04734 0.93351 0.0
H5535 H 0.5774 0.08107 0.99926 0.0
H5536 H 0.60548 0.09523 0.98955 0.0
H5537 H 0.60897 0.04069 0.96181 0.0
H5538 H 0.58019 0.02675 0.97031 0.0
H5539 H 0.62627 0.06585 0.94539 0.0
H5540 H 0.62586 0.05766 0.00785 0.0
H5541 H 0.61615 0.0603 0.03881 0.0
H5542 H 0.63278 0.12034 0.04687 0.0
H5543 H 0.64234 0.11806 0.01581 0.0
C5544 C 0.71262 0.09438 0.97949 0.0
C5545 C 0.71925 0.11387 0.98504 0.0
C5546 C 0.69472 0.08696 0.97313 0.0
C5547 C 0.68331 0.09895 0.97225 0.0
C5548 C 0.69017 0.11841 0.97633 0.0
C5549 C 0.70803 0.12583 0.98256 0.0
C5550 C 0.66427 0.09148 0.972 0.0
C5551 C 0.65772 0.09401 0.98902 0.0
C5552 C 0.65299 0.08091 0.95609 0.0
C5553 C 0.65925 0.07761 0.93778 0.0
C5554 C 0.66705 0.09278 0.92975 0.0
C5555 C 0.67173 0.0896 0.91189 0.0
C5556 C 0.66863 0.07131 0.9019 0.0
C5557 C 0.66094 0.05614 0.9098 0.0
C5558 C 0.65628 0.05924 0.92767 0.0
C5559 C 0.58397 0.07225 0.99065 0.0
C5560 C 0.577 0.05285 0.98587 0.0
C5561 C 0.59998 0.08029 0.98514 0.0
C5562 C 0.60963 0.06888 0.97563 0.0
C5563 C 0.60187 0.04972 0.96936 0.0
C5564 C 0.58549 0.04176 0.9743 0.0
C5565 C 0.62855 0.07645 0.9746 0.0
C5566 C 0.63515 0.0736 0.95759 0.0
C5567 C 0.64016 0.08626 0.99064 0.0
C5568 C 0.63465 0.08769 0.00944 0.0
C5569 C 0.62736 0.07143 0.01619 0.0
C5570 C 0.62188 0.07286 0.03375 0.0
C5571 C 0.62381 0.09048 0.04479 0.0
C5572 C 0.63127 0.10671 0.0383 0.0
C5573 C 0.63672 0.10536 0.02072 0.0
H5574 H 0.61956 0.09156 0.05838 0.0
H5575 H 0.67212 0.0689 0.88802 0.0
H5576 H 0.19323 0.46029 0.23676 0.0
H5577 H 0.21578 0.44559 0.24822 0.0
H5578 H 0.24791 0.50004 0.27478 0.0
H5579 H 0.22577 0.51485 0.26235 0.0
H5580 H 0.26768 0.48246 0.25922 0.0
H5581 H 0.22611 0.46599 0.29995 0.0
H5582 H 0.1973 0.45404 0.31005 0.0
H5583 H 0.19408 0.3994 0.27839 0.0
H5584 H 0.22271 0.41109 0.26782 0.0
H5585 H 0.30056 0.40155 0.29938 0.0
H5586 H 0.28442 0.42618 0.30194 0.0
H5587 H 0.29018 0.43114 0.24527 0.0
H5588 H 0.30707 0.40725 0.24294 0.0
H5589 H 0.25409 0.42391 0.28465 0.0
H5590 H 0.28803 0.47266 0.23661 0.0
H5591 H 0.31813 0.48656 0.23075 0.0
H5592 H 0.3388 0.48079 0.28467 0.0
H5593 H 0.30882 0.46711 0.29098 0.0
C5594 C 0.20506 0.46909 0.24515 0.0
C5595 C 0.20782 0.48868 0.24863 0.0
C5596 C 0.21788 0.46067 0.25187 0.0
C5597 C 0.23346 0.47165 0.26269 0.0
C5598 C 0.23603 0.49125 0.26648 0.0
C5599 C 0.22339 0.4997 0.25938 0.0
C5600 C 0.24755 0.46274 0.2688 0.0
C5601 C 0.26473 0.46977 0.26498 0.0
C5602 C 0.24392 0.44653 0.27691 0.0
C5603 C 0.22656 0.43945 0.28304 0.0
C5604 C 0.2192 0.45146 0.29502 0.0
C5605 C 0.2029 0.44473 0.30084 0.0
C5606 C 0.19385 0.42598 0.29485 0.0
C5607 C 0.20108 0.41393 0.28301 0.0
C5608 C 0.21736 0.4206 0.27711 0.0
C5609 C 0.29892 0.40835 0.28768 0.0
C5610 C 0.30503 0.4024 0.27092 0.0
C5611 C 0.28954 0.4223 0.28911 0.0
C5612 C 0.28612 0.43056 0.27383 0.0
C5613 C 0.29289 0.42522 0.25736 0.0
C5614 C 0.30237 0.41139 0.25596 0.0
C5615 C 0.27394 0.4432 0.27429 0.0
C5616 C 0.25712 0.43685 0.27931 0.0
C5617 C 0.27806 0.46037 0.26789 0.0
C5618 C 0.29615 0.46875 0.26422 0.0
C5619 C 0.29897 0.47446 0.24727 0.0
C5620 C 0.31603 0.48228 0.24385 0.0
C5621 C 0.33037 0.48452 0.25731 0.0
C5622 C 0.32769 0.47899 0.27423 0.0
C5623 C 0.31066 0.47117 0.27772 0.0
H5624 H 0.34356 0.49057 0.25463 0.0
H5625 H 0.18125 0.42079 0.2994 0.0
H5626 H 0.23086 0.38487 0.01982 0.0
H5627 H 0.20534 0.39859 0.0163 0.0
H5628 H 0.23608 0.45136 0.04826 0.0
H5629 H 0.26164 0.43796 0.05133 0.0
H5630 H 0.18547 0.41355 0.03811 0.0
H5631 H 0.22613 0.48744 0.03193 0.0
H5632 H 0.25376 0.50137 0.02055 0.0
H5633 H 0.25067 0.44925 0.98416 0.0
H5634 H 0.22291 0.4351 0.99511 0.0
H5635 H 0.13683 0.48437 0.05314 0.0
H5636 H 0.1578 0.46438 0.05353 0.0
H5637 H 0.16228 0.46535 0.99599 0.0
H5638 H 0.14139 0.4852 0.99541 0.0
H5639 H 0.19371 0.47352 0.0151 0.0
H5640 H 0.14086 0.42743 0.01014 0.0
H5641 H 0.11208 0.41157 0.01767 0.0
H5642 H 0.13679 0.40342 0.06883 0.0
H5643 H 0.16568 0.41995 0.06203 0.0
C5644 C 0.23214 0.39941 0.02618 0.0
C5645 C 0.24835 0.41042 0.0357 0.0
C5646 C 0.21753 0.4072 0.02419 0.0
C5647 C 0.21884 0.42611 0.03172 0.0
C5648 C 0.23481 0.43685 0.04193 0.0
C5649 C 0.24943 0.42915 0.04376 0.0
C5650 C 0.2038 0.43491 0.0285 0.0
C5651 C 0.18723 0.42668 0.03314 0.0
C5652 C 0.20592 0.45169 0.02133 0.0
C5653 C 0.22252 0.46017 0.01448 0.0
C5654 C 0.2313 0.47898 0.02144 0.0
C5655 C 0.247 0.48691 0.01507 0.0
C5656 C 0.25399 0.47618 1.00168 0.0
C5657 C 0.24527 0.45752 0.99458 0.0
C5658 C 0.22957 0.44954 1.00087 0.0
C5659 C 0.14204 0.48006 0.04049 0.0
C5660 C 0.13755 0.48657 0.02428 0.0
C5661 C 0.15401 0.46862 0.04075 0.0
C5662 C 0.1616 0.46333 0.02481 0.0
C5663 C 0.15671 0.46934 0.0085 0.0
C5664 C 0.1448 0.48076 0.00822 0.0
C5665 C 0.17547 0.45257 0.02538 0.0
C5666 C 0.19186 0.46041 0.02015 0.0
C5667 C 0.17294 0.43516 0.03147 0.0
C5668 C 0.1555 0.42527 0.03569 0.0
C5669 C 0.14018 0.42255 0.02315 0.0
C5670 C 0.12382 0.41337 0.02726 0.0
C5671 C 0.1226 0.40648 0.04371 0.0
C5672 C 0.13775 0.40875 0.05608 0.0
C5673 C 0.15413 0.41809 0.05212 0.0
H5674 H 0.10992 0.39936 0.04685 0.0
H5675 H 0.26615 0.48234 0.99679 0.0
H5676 H 0.90781 0.971 0.23719 0.0
H5677 H 0.89041 0.94021 0.23898 0.0
H5678 H 0.84938 0.96486 0.25915 0.0
H5679 H 0.86724 0.99636 0.25778 0.0
H5680 H 0.85225 0.93768 0.2777 0.0
H5681 H 0.84648 0.93795 0.21291 0.0
H5682 H 0.85641 0.94205 0.18277 0.0
H5683 H 0.88568 0.9 0.18556 0.0
H5684 H 0.8761 0.89581 0.21584 0.0
H5685 H 0.78662 0.85135 0.26178 0.0
H5686 H 0.80486 0.88224 0.26095 0.0
H5687 H 0.84764 0.85739 0.24676 0.0
H5688 H 0.82915 0.82599 0.24773 0.0
H5689 H 0.84402 0.88437 0.22532 0.0
H5690 H 0.84919 0.88372 0.28988 0.0
H5691 H 0.83874 0.87929 0.31972 0.0
H5692 H 0.81006 0.92186 0.31703 0.0
H5693 H 0.82014 0.92636 0.28702 0.0
C5694 C 0.89503 0.97015 0.24192 0.0
C5695 C 0.88914 0.98668 0.24719 0.0
C5696 C 0.8849 0.95218 0.24284 0.0
C5697 C 0.86815 0.94959 0.24889 0.0
C5698 C 0.86213 0.96605 0.2543 0.0
C5699 C 0.87238 0.98423 0.2534 0.0
C5700 C 0.85738 0.92985 0.24975 0.0
C5701 C 0.85028 0.92619 0.26606 0.0
C5702 C 0.85492 0.91423 0.23493 0.0
C5703 C 0.8607 0.9167 0.21673 0.0
C5704 C 0.85514 0.92967 0.20716 0.0
C5705 C 0.86068 0.932 0.19004 0.0
C5706 C 0.8717 0.92133 0.18227 0.0
C5707 C 0.87716 0.90827 0.1916 0.0
C5708 C 0.87166 0.9059 0.20873 0.0
C5709 C 0.79998 0.8523 0.25864 0.0
C5710 C 0.80629 0.83587 0.25504 0.0
C5711 C 0.81052 0.87021 0.25821 0.0
C5712 C 0.82793 0.87266 0.25395 0.0
C5713 C 0.83436 0.85624 0.25018 0.0
C5714 C 0.82378 0.83816 0.25089 0.0
C5715 C 0.83894 0.89228 0.25323 0.0
C5716 C 0.84604 0.89589 0.23694 0.0
C5717 C 0.84134 0.90785 0.26803 0.0
C5718 C 0.83529 0.90525 0.2861 0.0
C5719 C 0.84054 0.89204 0.29557 0.0
C5720 C 0.8347 0.88953 0.31253 0.0
C5721 C 0.82371 0.90025 0.32025 0.0
C5722 C 0.81856 0.91354 0.31103 0.0
C5723 C 0.82435 0.91609 0.29405 0.0
H5724 H 0.8192 0.89829 0.33338 0.0
H5725 H 0.87598 0.92315 0.16901 0.0
H5726 H 0.69034 0.07022 0.73469 0.0
H5727 H 0.70959 0.1017 0.74314 0.0
H5728 H 0.66439 0.12556 0.73937 0.0
H5729 H 0.64502 0.09413 0.73054 0.0
H5730 H 0.69051 0.14526 0.72532 0.0
H5731 H 0.68359 0.12201 0.78122 0.0
H5732 H 0.68347 0.09942 0.80224 0.0
H5733 H 0.73884 0.1044 0.80057 0.0
H5734 H 0.73924 0.12681 0.77931 0.0
H5735 H 0.74946 0.22964 0.79316 0.0
H5736 H 0.72942 0.19842 0.78924 0.0
H5737 H 0.74905 0.18142 0.73809 0.0
H5738 H 0.76892 0.2123 0.7418 0.0
H5739 H 0.73268 0.16038 0.7829 0.0
H5740 H 0.71336 0.16289 0.70584 0.0
H5741 H 0.71222 0.18683 0.68651 0.0
H5742 H 0.70581 0.22549 0.73378 0.0
H5743 H 0.70656 0.20169 0.7533 0.0
C5744 C 0.68448 0.08215 0.73544 0.0
C5745 C 0.66612 0.07965 0.73209 0.0
C5746 C 0.6955 0.10013 0.7404 0.0
C5747 C 0.68836 0.11592 0.7423 0.0
C5748 C 0.67013 0.11353 0.73812 0.0
C5749 C 0.65909 0.09555 0.73305 0.0
C5750 C 0.69993 0.1349 0.74891 0.0
C5751 C 0.69967 0.14856 0.73793 0.0
C5752 C 0.71155 0.13937 0.76566 0.0
C5753 C 0.71141 0.12599 0.77855 0.0
C5754 C 0.69571 0.11819 0.78523 0.0
C5755 C 0.6956 0.10543 0.7972 0.0
C5756 C 0.71113 0.10045 0.80271 0.0
C5757 C 0.72681 0.10826 0.79628 0.0
C5758 C 0.727 0.12101 0.78429 0.0
C5759 C 0.74977 0.21908 0.78133 0.0
C5760 C 0.76051 0.22347 0.76762 0.0
C5761 C 0.73835 0.2013 0.77912 0.0
C5762 C 0.73759 0.18786 0.7632 0.0
C5763 C 0.74929 0.19178 0.7503 0.0
C5764 C 0.76061 0.20943 0.75246 0.0
C5765 C 0.72361 0.17034 0.75896 0.0
C5766 C 0.7234 0.15703 0.77038 0.0
C5767 C 0.71124 0.16634 0.74287 0.0
C5768 C 0.71017 0.18053 0.73106 0.0
C5769 C 0.71158 0.17645 0.71208 0.0
C5770 C 0.71102 0.19 0.70109 0.0
C5771 C 0.70899 0.20768 0.70893 0.0
C5772 C 0.70743 0.21181 0.72774 0.0
C5773 C 0.70793 0.19829 0.73877 0.0
H5774 H 0.70859 0.21816 0.70042 0.0
H5775 H 0.71101 0.09057 0.81198 0.0
loop_
_geom_bond_atom_site_label_1
_geom_bond_atom_site_label_2
_geom_bond_distance
_geom_bond_site_symmetry_2
_ccdc_geom_bond_type
C0 O1 1.306 . S
C0 O3 1.160 . S
O1 C0 1.306 . S
O1 Cd2 2.228 . S
Cd2 O1 2.228 . S
Cd2 O6 2.273 . S
Cd2 O10 2.277 . S
O3 C0 1.160 . S
O3 Cd4 2.203 . S
Cd4 O3 2.203 . S
Cd4 O6 2.411 . S
Cd4 O7 2.333 . S
Cd4 O8 2.352 . S
Cd4 O12 2.277 . S
Cd4 O13 2.356 . S
C5 O10 1.209 . S
C5 O12 1.226 . S
O6 Cd2 2.273 . S
O6 Cd4 2.411 . S
O6 C9 1.320 . S
O7 Cd4 2.333 . S
O7 C9 1.214 . S
O8 Cd4 2.352 . S
O8 C11 1.258 . S
C9 O6 1.320 . S
C9 O7 1.214 . S
O10 Cd2 2.277 . S
O10 C5 1.209 . S
C11 O8 1.258 . S
C11 O13 1.282 . S
O12 Cd4 2.277 . S
O12 C5 1.226 . S
O13 Cd4 2.356 . S
O13 C11 1.282 . S
C14 O15 1.306 . S
C14 O17 1.160 . S
O15 C14 1.306 . S
O15 Cd16 2.228 1_655 S
Cd16 O15 2.228 1_455 S
Cd16 O20 2.273 . S
Cd16 O24 2.277 1_455 S
O17 C14 1.160 . S
O17 Cd18 2.149 1_655 S
Cd18 O17 2.149 1_455 S
Cd18 O20 2.438 . S
Cd18 O21 2.389 . S
Cd18 O22 2.343 . S
Cd18 O26 2.281 1_455 S
Cd18 O27 2.360 . S
C19 O24 1.209 . S
C19 O26 1.226 . S
O20 Cd16 2.273 . S
O20 Cd18 2.438 . S
O20 C23 1.320 . S
O21 Cd18 2.389 . S
O21 C23 1.214 . S
O22 Cd18 2.343 . S
O22 C25 1.258 . S
C23 O20 1.320 . S
C23 O21 1.214 . S
O24 Cd16 2.277 1_655 S
O24 C19 1.209 . S
C25 O22 1.258 . S
C25 O27 1.282 . S
O26 Cd18 2.281 1_655 S
O26 C19 1.226 . S
O27 Cd18 2.360 . S
O27 C25 1.282 . S
C28 O29 1.306 . S
C28 O31 1.160 . S
O29 C28 1.306 . S
O29 Cd30 2.228 . S
Cd30 O29 2.228 . S
Cd30 O34 2.273 . S
Cd30 O38 2.277 . S
O31 C28 1.160 . S
O31 Cd32 2.203 . S
Cd32 O31 2.203 . S
Cd32 O34 2.411 . S
Cd32 O35 2.333 . S
Cd32 O36 2.352 . S
Cd32 O40 2.277 . S
Cd32 O41 2.356 . S
C33 O38 1.209 . S
C33 O40 1.226 . S
O34 Cd30 2.273 . S
O34 Cd32 2.411 . S
O34 C37 1.320 . S
O35 Cd32 2.333 . S
O35 C37 1.214 . S
O36 Cd32 2.352 . S
O36 C39 1.258 . S
C37 O34 1.320 . S
C37 O35 1.214 . S
O38 Cd30 2.277 . S
O38 C33 1.209 . S
C39 O36 1.258 . S
C39 O41 1.282 . S
O40 Cd32 2.277 . S
O40 C33 1.226 . S
O41 Cd32 2.356 . S
O41 C39 1.282 . S
C42 O43 1.306 . S
C42 O45 1.160 . S
O43 C42 1.306 . S
O43 Cd44 2.228 . S
Cd44 O43 2.228 . S
Cd44 O48 2.273 . S
Cd44 O52 2.277 . S
O45 C42 1.160 . S
O45 Cd46 2.203 . S
Cd46 O45 2.203 . S
Cd46 O48 2.411 . S
Cd46 O49 2.333 . S
Cd46 O50 2.352 . S
Cd46 O54 2.277 . S
Cd46 O55 2.356 . S
C47 O52 1.209 . S
C47 O54 1.226 . S
O48 Cd44 2.273 . S
O48 Cd46 2.411 . S
O48 C51 1.320 . S
O49 Cd46 2.333 . S
O49 C51 1.214 . S
O50 Cd46 2.352 . S
O50 C53 1.258 . S
C51 O48 1.320 . S
C51 O49 1.214 . S
O52 Cd44 2.277 . S
O52 C47 1.209 . S
C53 O50 1.258 . S
C53 O55 1.282 . S
O54 Cd46 2.277 . S
O54 C47 1.226 . S
O55 Cd46 2.356 . S
O55 C53 1.282 . S
C56 O57 1.306 . S
C56 O59 1.160 . S
O57 C56 1.306 . S
O57 Cd58 2.228 . S
Cd58 O57 2.228 . S
Cd58 O62 2.273 . S
Cd58 O66 2.277 . S
O59 C56 1.160 . S
O59 Cd60 2.203 . S
Cd60 O59 2.203 . S
Cd60 O62 2.411 . S
Cd60 O63 2.333 . S
Cd60 O64 2.352 . S
Cd60 O68 2.277 . S
Cd60 O69 2.356 . S
C61 O66 1.209 . S
C61 O68 1.226 . S
O62 Cd58 2.273 . S
O62 Cd60 2.411 . S
O62 C65 1.320 . S
O63 Cd60 2.333 . S
O63 C65 1.214 . S
O64 Cd60 2.352 . S
O64 C67 1.258 . S
C65 O62 1.320 . S
C65 O63 1.214 . S
O66 Cd58 2.277 . S
O66 C61 1.209 . S
C67 O64 1.258 . S
C67 O69 1.282 . S
O68 Cd60 2.277 . S
O68 C61 1.226 . S
O69 Cd60 2.356 . S
O69 C67 1.282 . S
C70 O71 1.306 . S
C70 O73 1.160 . S
O71 C70 1.306 . S
O71 Cd72 2.228 . S
Cd72 O71 2.228 . S
Cd72 O76 2.273 . S
Cd72 O80 2.277 . S
O73 C70 1.160 . S
O73 Cd74 2.203 . S
Cd74 O73 2.203 . S
Cd74 O76 2.411 . S
Cd74 O77 2.333 . S
Cd74 O78 2.352 . S
Cd74 O82 2.277 . S
Cd74 O83 2.356 . S
C75 O80 1.209 . S
C75 O82 1.226 . S
O76 Cd72 2.273 . S
O76 Cd74 2.411 . S
O76 C79 1.320 . S
O77 Cd74 2.333 . S
O77 C79 1.214 . S
O78 Cd74 2.352 . S
O78 C81 1.258 . S
C79 O76 1.320 . S
C79 O77 1.214 . S
O80 Cd72 2.277 . S
O80 C75 1.209 . S
C81 O78 1.258 . S
C81 O83 1.282 . S
O82 Cd74 2.277 . S
O82 C75 1.226 . S
O83 Cd74 2.356 . S
O83 C81 1.282 . S
C84 O85 1.306 . S
C84 O87 1.160 . S
O85 C84 1.306 . S
O85 Cd86 2.228 . S
Cd86 O85 2.228 . S
Cd86 O90 2.273 . S
Cd86 O94 2.277 . S
O87 C84 1.160 . S
O87 Cd88 2.203 . S
Cd88 O87 2.203 . S
Cd88 O90 2.411 . S
Cd88 O91 2.333 . S
Cd88 O92 2.352 . S
Cd88 O96 2.277 . S
Cd88 O97 2.356 . S
C89 O94 1.209 . S
C89 O96 1.226 . S
O90 Cd86 2.273 . S
O90 Cd88 2.411 . S
O90 C93 1.320 . S
O91 Cd88 2.333 . S
O91 C93 1.214 . S
O92 Cd88 2.352 . S
O92 C95 1.258 . S
C93 O90 1.320 . S
C93 O91 1.214 . S
O94 Cd86 2.277 . S
O94 C89 1.209 . S
C95 O92 1.258 . S
C95 O97 1.282 . S
O96 Cd88 2.277 . S
O96 C89 1.226 . S
O97 Cd88 2.356 . S
O97 C95 1.282 . S
C98 O99 1.306 . S
C98 O101 1.160 . S
O99 C98 1.306 . S
O99 Cd100 2.228 1_655 S
Cd100 O99 2.228 1_455 S
Cd100 O104 2.273 . S
Cd100 O108 2.277 . S
O101 C98 1.160 . S
O101 Cd102 2.203 1_655 S
Cd102 O101 2.203 1_455 S
Cd102 O104 2.411 . S
Cd102 O105 2.333 . S
Cd102 O106 2.352 . S
Cd102 O110 2.277 . S
Cd102 O111 2.356 . S
C103 O108 1.209 . S
C103 O110 1.226 . S
O104 Cd100 2.273 . S
O104 Cd102 2.411 . S
O104 C107 1.320 . S
O105 Cd102 2.333 . S
O105 C107 1.214 . S
O106 Cd102 2.352 . S
O106 C109 1.258 . S
C107 O104 1.320 . S
C107 O105 1.214 . S
O108 Cd100 2.277 . S
O108 C103 1.209 . S
C109 O106 1.258 . S
C109 O111 1.282 . S
O110 Cd102 2.277 . S
O110 C103 1.226 . S
O111 Cd102 2.356 . S
O111 C109 1.282 . S
C112 O113 1.306 . S
C112 O115 1.160 . S
O113 C112 1.306 . S
O113 Cd114 2.228 1_545 S
Cd114 O113 2.228 1_565 S
Cd114 O118 2.273 1_565 S
Cd114 O122 2.277 . S
O115 C112 1.160 . S
O115 Cd116 2.203 . S
Cd116 O115 2.203 . S
Cd116 O118 2.411 . S
Cd116 O119 2.333 . S
Cd116 O120 2.352 . S
Cd116 O124 2.277 1_545 S
Cd116 O125 2.356 . S
C117 O122 1.209 . S
C117 O124 1.226 . S
O118 Cd114 2.273 1_545 S
O118 Cd116 2.411 . S
O118 C121 1.320 . S
O119 Cd116 2.333 . S
O119 C121 1.214 . S
O120 Cd116 2.352 . S
O120 C123 1.258 . S
C121 O118 1.320 . S
C121 O119 1.214 . S
O122 Cd114 2.277 . S
O122 C117 1.209 . S
C123 O120 1.258 . S
C123 O125 1.282 . S
O124 Cd116 2.277 1_565 S
O124 C117 1.226 . S
O125 Cd116 2.356 . S
O125 C123 1.282 . S
C126 O127 1.306 . S
C126 O129 1.160 . S
O127 C126 1.306 . S
O127 Cd128 2.228 . S
Cd128 O127 2.228 . S
Cd128 O132 2.273 . S
Cd128 O136 2.277 . S
O129 C126 1.160 . S
O129 Cd130 2.203 . S
Cd130 O129 2.203 . S
Cd130 O132 2.411 . S
Cd130 O133 2.333 . S
Cd130 O134 2.352 . S
Cd130 O138 2.277 . S
Cd130 O139 2.356 . S
C131 O136 1.209 . S
C131 O138 1.226 . S
O132 Cd128 2.273 . S
O132 Cd130 2.411 . S
O132 C135 1.320 . S
O133 Cd130 2.333 . S
O133 C135 1.214 . S
O134 Cd130 2.352 . S
O134 C137 1.258 . S
C135 O132 1.320 . S
C135 O133 1.214 . S
O136 Cd128 2.277 . S
O136 C131 1.209 . S
C137 O134 1.258 . S
C137 O139 1.282 . S
O138 Cd130 2.277 . S
O138 C131 1.226 . S
O139 Cd130 2.356 . S
O139 C137 1.282 . S
C140 O141 1.306 . S
C140 O143 1.171 . S
O141 C140 1.306 . S
O141 Cd142 2.228 . S
Cd142 O141 2.228 . S
Cd142 O146 2.273 1_545 S
Cd142 O150 2.277 . S
O143 C140 1.171 . S
O143 Cd144 2.204 1_545 S
Cd144 O143 2.204 1_565 S
Cd144 O146 2.411 . S
Cd144 O147 2.333 . S
Cd144 O148 2.352 . S
Cd144 O152 2.277 1_565 S
Cd144 O153 2.356 . S
C145 O150 1.209 . S
C145 O152 1.226 . S
O146 Cd142 2.273 1_565 S
O146 Cd144 2.411 . S
O146 C149 1.320 . S
O147 Cd144 2.333 . S
O147 C149 1.214 . S
O148 Cd144 2.352 . S
O148 C151 1.258 . S
C149 O146 1.320 . S
C149 O147 1.214 . S
O150 Cd142 2.277 . S
O150 C145 1.209 . S
C151 O148 1.258 . S
C151 O153 1.282 . S
O152 Cd144 2.277 1_545 S
O152 C145 1.226 . S
O153 Cd144 2.356 . S
O153 C151 1.282 . S
C154 O155 1.306 . S
C154 O157 1.160 . S
O155 C154 1.306 . S
O155 Cd156 2.228 1_554 S
Cd156 O155 2.228 1_556 S
Cd156 O160 2.273 1_556 S
Cd156 O164 2.277 . S
O157 C154 1.160 . S
O157 Cd158 2.203 . S
Cd158 O157 2.203 . S
Cd158 O160 2.411 . S
Cd158 O161 2.333 . S
Cd158 O162 2.352 . S
Cd158 O166 2.277 1_554 S
Cd158 O167 2.356 . S
C159 O164 1.209 . S
C159 O166 1.226 . S
O160 Cd156 2.273 1_554 S
O160 Cd158 2.411 . S
O160 C163 1.320 . S
O161 Cd158 2.333 . S
O161 C163 1.214 . S
O162 Cd158 2.352 . S
O162 C165 1.258 . S
C163 O160 1.320 . S
C163 O161 1.214 . S
O164 Cd156 2.277 . S
O164 C159 1.209 . S
C165 O162 1.258 . S
C165 O167 1.282 . S
O166 Cd158 2.277 1_556 S
O166 C159 1.226 . S
O167 Cd158 2.356 . S
O167 C165 1.282 . S
C168 O169 1.306 . S
C168 O171 1.160 . S
O169 C168 1.306 . S
O169 Cd170 2.228 1_554 S
Cd170 O169 2.228 1_556 S
Cd170 O174 2.273 1_556 S
Cd170 O178 2.277 . S
O171 C168 1.160 . S
O171 Cd172 2.203 . S
Cd172 O171 2.203 . S
Cd172 O174 2.411 . S
Cd172 O175 2.333 . S
Cd172 O176 2.352 . S
Cd172 O180 2.277 1_554 S
Cd172 O181 2.356 . S
C173 O178 1.209 . S
C173 O180 1.226 . S
O174 Cd170 2.273 1_554 S
O174 Cd172 2.411 . S
O174 C177 1.320 . S
O175 Cd172 2.333 . S
O175 C177 1.214 . S
O176 Cd172 2.352 . S
O176 C179 1.258 . S
C177 O174 1.320 . S
C177 O175 1.214 . S
O178 Cd170 2.277 . S
O178 C173 1.209 . S
C179 O176 1.258 . S
C179 O181 1.282 . S
O180 Cd172 2.277 1_556 S
O180 C173 1.226 . S
O181 Cd172 2.356 . S
O181 C179 1.282 . S
C182 O183 1.306 . S
C182 O185 1.160 . S
O183 C182 1.306 . S
O183 Cd184 2.228 . S
Cd184 O183 2.228 . S
Cd184 O188 2.273 . S
Cd184 O192 2.277 . S
O185 C182 1.160 . S
O185 Cd186 2.203 . S
Cd186 O185 2.203 . S
Cd186 O188 2.411 . S
Cd186 O189 2.333 . S
Cd186 O190 2.352 1_554 S
Cd186 O194 2.277 . S
Cd186 O195 2.356 1_554 S
C187 O192 1.209 . S
C187 O194 1.226 . S
O188 Cd184 2.273 . S
O188 Cd186 2.411 . S
O188 C191 1.320 . S
O189 Cd186 2.333 . S
O189 C191 1.214 . S
O190 Cd186 2.352 1_556 S
O190 C193 1.258 . S
C191 O188 1.320 . S
C191 O189 1.214 . S
O192 Cd184 2.277 . S
O192 C187 1.209 . S
C193 O190 1.258 . S
C193 O195 1.282 . S
O194 Cd186 2.277 . S
O194 C187 1.226 . S
O195 Cd186 2.356 1_556 S
O195 C193 1.282 . S
C196 O197 1.306 . S
C196 O199 1.160 . S
O197 C196 1.306 . S
O197 Cd198 2.228 . S
Cd198 O197 2.228 . S
Cd198 O202 2.273 . S
Cd198 O206 2.277 . S
O199 C196 1.160 . S
O199 Cd200 2.203 . S
Cd200 O199 2.203 . S
Cd200 O202 2.411 . S
Cd200 O203 2.333 . S
Cd200 O204 2.352 . S
Cd200 O208 2.277 . S
Cd200 O209 2.356 . S
C201 O206 1.209 . S
C201 O208 1.226 . S
O202 Cd198 2.273 . S
O202 Cd200 2.411 . S
O202 C205 1.320 . S
O203 Cd200 2.333 . S
O203 C205 1.214 . S
O204 Cd200 2.352 . S
O204 C207 1.258 . S
C205 O202 1.320 . S
C205 O203 1.214 . S
O206 Cd198 2.277 . S
O206 C201 1.209 . S
C207 O204 1.258 . S
C207 O209 1.282 . S
O208 Cd200 2.277 . S
O208 C201 1.226 . S
O209 Cd200 2.356 . S
O209 C207 1.282 . S
C210 O211 1.306 . S
C210 O213 1.160 . S
O211 C210 1.306 . S
O211 Cd212 2.228 . S
Cd212 O211 2.228 . S
Cd212 O216 2.273 . S
Cd212 O220 2.277 . S
O213 C210 1.160 . S
O213 Cd214 2.203 . S
Cd214 O213 2.203 . S
Cd214 O216 2.411 . S
Cd214 O217 2.333 . S
Cd214 O218 2.352 . S
Cd214 O222 2.277 . S
Cd214 O223 2.356 . S
C215 O220 1.209 . S
C215 O222 1.226 . S
O216 Cd212 2.273 . S
O216 Cd214 2.411 . S
O216 C219 1.320 . S
O217 Cd214 2.333 . S
O217 C219 1.214 . S
O218 Cd214 2.352 . S
O218 C221 1.258 . S
C219 O216 1.320 . S
C219 O217 1.214 . S
O220 Cd212 2.277 . S
O220 C215 1.209 . S
C221 O218 1.258 . S
C221 O223 1.282 . S
O222 Cd214 2.277 . S
O222 C215 1.226 . S
O223 Cd214 2.356 . S
O223 C221 1.282 . S
C224 O225 1.306 . S
C224 O227 1.160 . S
O225 C224 1.306 . S
O225 Cd226 2.228 . S
Cd226 O225 2.228 . S
Cd226 O230 2.273 . S
Cd226 O234 2.277 . S
O227 C224 1.160 . S
O227 Cd228 2.203 . S
Cd228 O227 2.203 . S
Cd228 O230 2.411 . S
Cd228 O231 2.333 . S
Cd228 O232 2.352 . S
Cd228 O236 2.277 . S
Cd228 O237 2.356 . S
C229 O234 1.209 . S
C229 O236 1.226 . S
O230 Cd226 2.273 . S
O230 Cd228 2.411 . S
O230 C233 1.320 . S
O231 Cd228 2.333 . S
O231 C233 1.214 . S
O232 Cd228 2.352 . S
O232 C235 1.258 . S
C233 O230 1.320 . S
C233 O231 1.214 . S
O234 Cd226 2.277 . S
O234 C229 1.209 . S
C235 O232 1.258 . S
C235 O237 1.282 . S
O236 Cd228 2.277 . S
O236 C229 1.226 . S
O237 Cd228 2.356 . S
O237 C235 1.282 . S
C238 O239 1.306 . S
C238 O241 1.160 . S
O239 C238 1.306 . S
O239 Cd240 2.228 . S
Cd240 O239 2.228 . S
Cd240 O244 2.273 . S
Cd240 O248 2.277 . S
O241 C238 1.160 . S
O241 Cd242 2.203 . S
Cd242 O241 2.203 . S
Cd242 O244 2.411 . S
Cd242 O245 2.333 . S
Cd242 O246 2.352 . S
Cd242 O250 2.277 . S
Cd242 O251 2.356 . S
C243 O248 1.209 . S
C243 O250 1.226 . S
O244 Cd240 2.273 . S
O244 Cd242 2.411 . S
O244 C247 1.320 . S
O245 Cd242 2.333 . S
O245 C247 1.214 . S
O246 Cd242 2.352 . S
O246 C249 1.258 . S
C247 O244 1.320 . S
C247 O245 1.214 . S
O248 Cd240 2.277 . S
O248 C243 1.209 . S
C249 O246 1.258 . S
C249 O251 1.282 . S
O250 Cd242 2.277 . S
O250 C243 1.226 . S
O251 Cd242 2.356 . S
O251 C249 1.282 . S
C252 O253 1.306 . S
C252 O255 1.160 . S
O253 C252 1.306 . S
O253 Cd254 2.228 . S
Cd254 O253 2.228 . S
Cd254 O258 2.273 . S
Cd254 O262 2.277 . S
O255 C252 1.160 . S
O255 Cd256 2.203 . S
Cd256 O255 2.203 . S
Cd256 O258 2.411 . S
Cd256 O259 2.333 . S
Cd256 O260 2.352 . S
Cd256 O264 2.277 . S
Cd256 O265 2.356 . S
C257 O262 1.209 . S
C257 O264 1.226 . S
O258 Cd254 2.273 . S
O258 Cd256 2.411 . S
O258 C261 1.320 . S
O259 Cd256 2.333 . S
O259 C261 1.214 . S
O260 Cd256 2.352 . S
O260 C263 1.258 . S
C261 O258 1.320 . S
C261 O259 1.214 . S
O262 Cd254 2.277 . S
O262 C257 1.209 . S
C263 O260 1.258 . S
C263 O265 1.282 . S
O264 Cd256 2.277 . S
O264 C257 1.226 . S
O265 Cd256 2.356 . S
O265 C263 1.282 . S
C266 O267 1.306 . S
C266 O269 1.160 . S
O267 C266 1.306 . S
O267 Cd268 2.228 . S
Cd268 O267 2.228 . S
Cd268 O272 2.273 . S
Cd268 O276 2.277 . S
O269 C266 1.160 . S
O269 Cd270 2.203 . S
Cd270 O269 2.203 . S
Cd270 O272 2.411 . S
Cd270 O273 2.333 . S
Cd270 O274 2.352 . S
Cd270 O278 2.277 . S
Cd270 O279 2.356 . S
C271 O276 1.209 . S
C271 O278 1.226 . S
O272 Cd268 2.273 . S
O272 Cd270 2.411 . S
O272 C275 1.320 . S
O273 Cd270 2.333 . S
O273 C275 1.214 . S
O274 Cd270 2.352 . S
O274 C277 1.258 . S
C275 O272 1.320 . S
C275 O273 1.214 . S
O276 Cd268 2.277 . S
O276 C271 1.209 . S
C277 O274 1.258 . S
C277 O279 1.282 . S
O278 Cd270 2.277 . S
O278 C271 1.226 . S
O279 Cd270 2.356 . S
O279 C277 1.282 . S
C280 O281 1.306 . S
C280 O283 1.160 . S
O281 C280 1.306 . S
O281 Cd282 2.228 . S
Cd282 O281 2.228 . S
Cd282 O286 2.273 . S
Cd282 O290 2.277 . S
O283 C280 1.160 . S
O283 Cd284 2.203 . S
Cd284 O283 2.203 . S
Cd284 O286 2.411 . S
Cd284 O287 2.334 1_554 S
Cd284 O288 2.352 1_554 S
Cd284 O292 2.277 . S
Cd284 O293 2.356 1_554 S
C285 O290 1.209 . S
C285 O292 1.226 . S
O286 Cd282 2.273 . S
O286 Cd284 2.411 . S
O286 C289 1.320 . S
O287 Cd284 2.334 1_556 S
O287 C289 1.209 1_556 S
O288 Cd284 2.352 1_556 S
O288 C291 1.258 . S
C289 O286 1.320 . S
C289 O287 1.209 1_554 S
O290 Cd282 2.277 . S
O290 C285 1.209 . S
C291 O288 1.258 . S
C291 O293 1.282 . S
O292 Cd284 2.277 . S
O292 C285 1.226 . S
O293 Cd284 2.356 1_556 S
O293 C291 1.282 . S
C294 O295 1.306 . S
C294 O297 1.160 . S
O295 C294 1.306 . S
O295 Cd296 2.228 . S
Cd296 O295 2.228 . S
Cd296 O300 2.273 . S
Cd296 O304 2.277 . S
O297 C294 1.160 . S
O297 Cd298 2.203 . S
Cd298 O297 2.203 . S
Cd298 O300 2.411 . S
Cd298 O301 2.333 . S
Cd298 O302 2.352 . S
Cd298 O306 2.277 . S
Cd298 O307 2.356 . S
C299 O304 1.209 . S
C299 O306 1.226 . S
O300 Cd296 2.273 . S
O300 Cd298 2.411 . S
O300 C303 1.320 . S
O301 Cd298 2.333 . S
O301 C303 1.214 . S
O302 Cd298 2.352 . S
O302 C305 1.258 . S
C303 O300 1.320 . S
C303 O301 1.214 . S
O304 Cd296 2.277 . S
O304 C299 1.209 . S
C305 O302 1.258 . S
C305 O307 1.282 . S
O306 Cd298 2.277 . S
O306 C299 1.226 . S
O307 Cd298 2.356 . S
O307 C305 1.282 . S
C308 O309 1.306 . S
C308 O311 1.160 . S
O309 C308 1.306 . S
O309 Cd310 2.228 . S
Cd310 O309 2.228 . S
Cd310 O314 2.273 . S
Cd310 O318 2.277 . S
O311 C308 1.160 . S
O311 Cd312 2.203 . S
Cd312 O311 2.203 . S
Cd312 O314 2.411 . S
Cd312 O315 2.333 . S
Cd312 O316 2.352 . S
Cd312 O320 2.277 . S
Cd312 O321 2.356 . S
C313 O318 1.209 . S
C313 O320 1.226 . S
O314 Cd310 2.273 . S
O314 Cd312 2.411 . S
O314 C317 1.320 . S
O315 Cd312 2.333 . S
O315 C317 1.214 . S
O316 Cd312 2.352 . S
O316 C319 1.258 . S
C317 O314 1.320 . S
C317 O315 1.214 . S
O318 Cd310 2.277 . S
O318 C313 1.209 . S
C319 O316 1.258 . S
C319 O321 1.282 . S
O320 Cd312 2.277 . S
O320 C313 1.226 . S
O321 Cd312 2.356 . S
O321 C319 1.282 . S
C322 O323 1.306 . S
C322 O325 1.160 . S
O323 C322 1.306 . S
O323 Cd324 2.228 . S
Cd324 O323 2.228 . S
Cd324 O328 2.273 . S
Cd324 O332 2.277 . S
O325 C322 1.160 . S
O325 Cd326 2.203 . S
Cd326 O325 2.203 . S
Cd326 O328 2.411 . S
Cd326 O329 2.333 . S
Cd326 O330 2.352 . S
Cd326 O334 2.277 . S
Cd326 O335 2.356 . S
C327 O332 1.209 . S
C327 O334 1.226 . S
O328 Cd324 2.273 . S
O328 Cd326 2.411 . S
O328 C331 1.320 . S
O329 Cd326 2.333 . S
O329 C331 1.214 . S
O330 Cd326 2.352 . S
O330 C333 1.258 . S
C331 O328 1.320 . S
C331 O329 1.214 . S
O332 Cd324 2.277 . S
O332 C327 1.209 . S
C333 O330 1.258 . S
C333 O335 1.282 . S
O334 Cd326 2.277 . S
O334 C327 1.226 . S
O335 Cd326 2.356 . S
O335 C333 1.282 . S
Ho336 C339 2.811 1_454 S
Ho336 O356 2.321 1_554 S
Ho336 O358 2.377 1_454 S
Ho336 O359 2.524 1_455 S
Ho336 O360 2.380 1_554 S
Ho336 O361 2.669 1_554 S
Ho336 O363 2.346 1_545 S
Ho336 O367 2.305 . S
Ho337 C348 2.811 . S
Ho337 O357 2.346 . S
Ho337 O361 2.305 1_554 S
Ho337 O362 2.322 . S
Ho337 O364 2.378 . S
Ho337 O365 2.524 . S
Ho337 O366 2.381 . S
Ho337 O367 2.669 . S
C338 O356 1.259 1_554 S
C338 O357 1.268 . S
C339 Ho336 2.811 1_656 S
C339 C340 1.488 . S
C339 O358 1.215 . S
C339 O359 1.289 1_556 S
C340 C339 1.488 . S
C340 C341 1.348 1_556 S
C340 C345 1.413 . S
C341 C340 1.348 1_554 S
C341 C342 1.442 1_554 S
C341 H368 0.930 . S
C342 C341 1.442 1_556 S
C342 C343 1.381 . S
C342 H369 0.931 1_556 S
C343 C342 1.381 . S
C343 C344 1.321 . S
C344 C343 1.321 . S
C344 C345 1.403 . S
C344 H370 0.934 . S
C345 C340 1.413 . S
C345 C344 1.403 . S
C345 H371 0.930 . S
C346 O360 1.275 . S
C346 O361 1.256 . S
C347 O362 1.259 1_565 S
C347 O363 1.268 . S
C348 Ho337 2.811 . S
C348 C349 1.488 . S
C348 O364 1.215 . S
C348 O365 1.289 . S
C349 C348 1.488 . S
C349 C350 1.348 . S
C349 C354 1.413 . S
C350 C349 1.348 . S
C350 C351 1.442 1_545 S
C350 H372 0.930 1_545 S
C351 C350 1.442 1_565 S
C351 C352 1.380 1_565 S
C351 H373 0.931 . S
C352 C351 1.380 1_545 S
C352 C353 1.343 . S
C353 C352 1.343 . S
C353 C354 1.403 . S
C353 H374 0.934 . S
C354 C349 1.413 . S
C354 C353 1.403 . S
C354 H375 0.930 . S
C355 O366 1.275 . S
C355 O367 1.256 . S
O356 Ho336 2.321 1_556 S
O356 C338 1.259 1_556 S
O357 Ho337 2.346 . S
O357 C338 1.268 . S
O358 Ho336 2.377 1_656 S
O358 C339 1.215 . S
O359 Ho336 2.524 1_655 S
O359 C339 1.289 1_554 S
O360 Ho336 2.380 1_556 S
O360 C346 1.275 . S
O361 Ho336 2.669 1_556 S
O361 Ho337 2.305 1_556 S
O361 C346 1.256 . S
O362 Ho337 2.322 . S
O362 C347 1.259 1_545 S
O363 Ho336 2.346 1_565 S
O363 C347 1.268 . S
O364 Ho337 2.378 . S
O364 C348 1.215 . S
O365 Ho337 2.524 . S
O365 C348 1.289 . S
O366 Ho337 2.381 . S
O366 C355 1.275 . S
O367 Ho336 2.305 . S
O367 Ho337 2.669 . S
O367 C355 1.256 . S
H368 C341 0.930 . S
H369 C342 0.931 1_554 S
H370 C344 0.934 . S
H371 C345 0.930 . S
H372 C350 0.930 1_565 S
H373 C351 0.931 . S
H374 C353 0.934 . S
H375 C354 0.930 . S
Ho376 C379 2.811 . S
Ho376 O396 2.322 . S
Ho376 O398 2.378 . S
Ho376 O399 2.524 . S
Ho376 O400 2.381 . S
Ho376 O401 2.669 . S
Ho376 O403 2.346 . S
Ho376 O407 2.305 . S
Ho377 C388 2.811 . S
Ho377 O397 2.346 . S
Ho377 O401 2.305 . S
Ho377 O402 2.322 . S
Ho377 O404 2.378 . S
Ho377 O405 2.524 . S
Ho377 O406 2.381 . S
Ho377 O407 2.669 . S
C378 O396 1.259 . S
C378 O397 1.268 . S
C379 Ho376 2.811 . S
C379 C380 1.488 . S
C379 O398 1.215 . S
C379 O399 1.289 . S
C380 C379 1.488 . S
C380 C381 1.348 . S
C380 C385 1.413 . S
C381 C380 1.348 . S
C381 C382 1.442 . S
C381 H408 0.930 . S
C382 C381 1.442 . S
C382 C383 1.381 . S
C382 H409 0.931 . S
C383 C382 1.381 . S
C383 C384 1.321 . S
C384 C383 1.321 . S
C384 C385 1.403 . S
C384 H410 0.934 . S
C385 C380 1.413 . S
C385 C384 1.403 . S
C385 H411 0.930 . S
C386 O400 1.275 . S
C386 O401 1.256 . S
C387 O402 1.259 . S
C387 O403 1.268 . S
C388 Ho377 2.811 . S
C388 C389 1.488 . S
C388 O404 1.215 . S
C388 O405 1.289 . S
C389 C388 1.488 . S
C389 C390 1.348 . S
C389 C394 1.413 . S
C390 C389 1.348 . S
C390 C391 1.442 . S
C390 H412 0.930 . S
C391 C390 1.442 . S
C391 C392 1.381 . S
C391 H413 0.931 . S
C392 C391 1.381 . S
C392 C393 1.321 . S
C393 C392 1.321 . S
C393 C394 1.403 . S
C393 H414 0.934 . S
C394 C389 1.413 . S
C394 C393 1.403 . S
C394 H415 0.930 . S
C395 O406 1.275 . S
C395 O407 1.256 . S
O396 Ho376 2.322 . S
O396 C378 1.259 . S
O397 Ho377 2.346 . S
O397 C378 1.268 . S
O398 Ho376 2.378 . S
O398 C379 1.215 . S
O399 Ho376 2.524 . S
O399 C379 1.289 . S
O400 Ho376 2.381 . S
O400 C386 1.275 . S
O401 Ho376 2.669 . S
O401 Ho377 2.305 . S
O401 C386 1.256 . S
O402 Ho377 2.322 . S
O402 C387 1.259 . S
O403 Ho376 2.346 . S
O403 C387 1.268 . S
O404 Ho377 2.378 . S
O404 C388 1.215 . S
O405 Ho377 2.524 . S
O405 C388 1.289 . S
O406 Ho377 2.381 . S
O406 C395 1.275 . S
O407 Ho376 2.305 . S
O407 Ho377 2.669 . S
O407 C395 1.256 . S
H408 C381 0.930 . S
H409 C382 0.931 . S
H410 C384 0.934 . S
H411 C385 0.930 . S
H412 C390 0.930 . S
H413 C391 0.931 . S
H414 C393 0.934 . S
H415 C394 0.930 . S
Ho416 C419 2.811 . S
Ho416 O436 2.325 1_545 S
Ho416 O438 2.378 . S
Ho416 O439 2.524 . S
Ho416 O440 2.381 . S
Ho416 O441 2.669 . S
Ho416 O443 2.346 . S
Ho416 O447 2.305 . S
Ho417 C428 2.811 . S
Ho417 O437 2.346 1_545 S
Ho417 O441 2.305 . S
Ho417 O442 2.322 . S
Ho417 O444 2.378 . S
Ho417 O445 2.524 . S
Ho417 O446 2.381 . S
Ho417 O447 2.669 . S
C418 O436 1.257 . S
C418 O437 1.268 . S
C419 Ho416 2.811 . S
C419 C420 1.488 1_545 S
C419 O438 1.215 . S
C419 O439 1.289 . S
C420 C419 1.488 1_565 S
C420 C421 1.348 . S
C420 C425 1.413 . S
C421 C420 1.348 . S
C421 C422 1.442 . S
C421 H448 0.930 . S
C422 C421 1.442 . S
C422 C423 1.381 . S
C422 H449 0.931 . S
C423 C422 1.381 . S
C423 C424 1.321 . S
C424 C423 1.321 . S
C424 C425 1.403 . S
C424 H450 0.934 . S
C425 C420 1.413 . S
C425 C424 1.403 . S
C425 H451 0.947 . S
C426 O440 1.275 . S
C426 O441 1.256 . S
C427 O442 1.259 . S
C427 O443 1.268 . S
C428 Ho417 2.811 . S
C428 C429 1.488 . S
C428 O444 1.215 . S
C428 O445 1.289 . S
C429 C428 1.488 . S
C429 C430 1.348 . S
C429 C434 1.413 . S
C430 C429 1.348 . S
C430 C431 1.442 . S
C430 H452 0.930 . S
C431 C430 1.442 . S
C431 C432 1.381 . S
C431 H453 0.931 . S
C432 C431 1.381 . S
C432 C433 1.321 . S
C433 C432 1.321 . S
C433 C434 1.403 . S
C433 H454 0.934 . S
C434 C429 1.413 . S
C434 C433 1.403 . S
C434 H455 0.930 . S
C435 O446 1.275 . S
C435 O447 1.256 . S
O436 Ho416 2.325 1_565 S
O436 C418 1.257 . S
O437 Ho417 2.346 1_565 S
O437 C418 1.268 . S
O438 Ho416 2.378 . S
O438 C419 1.215 . S
O439 Ho416 2.524 . S
O439 C419 1.289 . S
O440 Ho416 2.381 . S
O440 C426 1.275 . S
O441 Ho416 2.669 . S
O441 Ho417 2.305 . S
O441 C426 1.256 . S
O442 Ho417 2.322 . S
O442 C427 1.259 . S
O443 Ho416 2.346 . S
O443 C427 1.268 . S
O444 Ho417 2.378 . S
O444 C428 1.215 . S
O445 Ho417 2.524 . S
O445 C428 1.289 . S
O446 Ho417 2.381 . S
O446 C435 1.275 . S
O447 Ho416 2.305 . S
O447 Ho417 2.669 . S
O447 C435 1.256 . S
H448 C421 0.930 . S
H449 C422 0.931 . S
H450 C424 0.934 . S
H451 C425 0.947 . S
H452 C430 0.930 . S
H453 C431 0.931 . S
H454 C433 0.934 . S
H455 C434 0.930 . S
Ho456 C459 2.811 . S
Ho456 O476 2.322 . S
Ho456 O478 2.378 . S
Ho456 O479 2.524 . S
Ho456 O480 2.381 . S
Ho456 O481 2.669 . S
Ho456 O483 2.346 . S
Ho456 O487 2.305 . S
Ho457 C468 2.811 . S
Ho457 O477 2.346 . S
Ho457 O481 2.305 . S
Ho457 O482 2.322 . S
Ho457 O484 2.378 . S
Ho457 O485 2.524 . S
Ho457 O486 2.381 . S
Ho457 O487 2.669 . S
C458 O476 1.259 . S
C458 O477 1.268 . S
C459 Ho456 2.811 . S
C459 C460 1.488 . S
C459 O478 1.215 . S
C459 O479 1.289 . S
C460 C459 1.488 . S
C460 C461 1.348 . S
C460 C465 1.413 . S
C461 C460 1.348 . S
C461 C462 1.442 . S
C461 H488 0.930 . S
C462 C461 1.442 . S
C462 C463 1.381 . S
C462 H489 0.931 . S
C463 C462 1.381 . S
C463 C464 1.321 . S
C464 C463 1.321 . S
C464 C465 1.403 . S
C464 H490 0.934 . S
C465 C460 1.413 . S
C465 C464 1.403 . S
C465 H491 0.930 . S
C466 O480 1.275 . S
C466 O481 1.256 . S
C467 O482 1.259 . S
C467 O483 1.268 . S
C468 Ho457 2.811 . S
C468 C469 1.488 . S
C468 O484 1.215 . S
C468 O485 1.289 . S
C469 C468 1.488 . S
C469 C470 1.348 . S
C469 C474 1.413 . S
C470 C469 1.348 . S
C470 C471 1.442 . S
C470 H492 0.930 . S
C471 C470 1.442 . S
C471 C472 1.381 . S
C471 H493 0.931 . S
C472 C471 1.381 . S
C472 C473 1.321 . S
C473 C472 1.321 . S
C473 C474 1.403 . S
C473 H494 0.934 . S
C474 C469 1.413 . S
C474 C473 1.403 . S
C474 H495 0.930 . S
C475 O486 1.275 . S
C475 O487 1.256 . S
O476 Ho456 2.322 . S
O476 C458 1.259 . S
O477 Ho457 2.346 . S
O477 C458 1.268 . S
O478 Ho456 2.378 . S
O478 C459 1.215 . S
O479 Ho456 2.524 . S
O479 C459 1.289 . S
O480 Ho456 2.381 . S
O480 C466 1.275 . S
O481 Ho456 2.669 . S
O481 Ho457 2.305 . S
O481 C466 1.256 . S
O482 Ho457 2.322 . S
O482 C467 1.259 . S
O483 Ho456 2.346 . S
O483 C467 1.268 . S
O484 Ho457 2.378 . S
O484 C468 1.215 . S
O485 Ho457 2.524 . S
O485 C468 1.289 . S
O486 Ho457 2.381 . S
O486 C475 1.275 . S
O487 Ho456 2.305 . S
O487 Ho457 2.669 . S
O487 C475 1.256 . S
H488 C461 0.930 . S
H489 C462 0.931 . S
H490 C464 0.934 . S
H491 C465 0.930 . S
H492 C470 0.930 . S
H493 C471 0.931 . S
H494 C473 0.934 . S
H495 C474 0.930 . S
Ho496 C499 2.811 . S
Ho496 O516 2.322 . S
Ho496 O518 2.378 . S
Ho496 O519 2.524 . S
Ho496 O520 2.381 . S
Ho496 O521 2.669 . S
Ho496 O523 2.346 . S
Ho496 O527 2.305 . S
Ho497 C508 2.811 1_545 S
Ho497 O517 2.346 . S
Ho497 O521 2.305 . S
Ho497 O522 2.322 . S
Ho497 O524 2.378 1_545 S
Ho497 O525 2.524 1_545 S
Ho497 O526 2.381 . S
Ho497 O527 2.669 . S
C498 O516 1.259 . S
C498 O517 1.268 . S
C499 Ho496 2.811 . S
C499 C500 1.488 . S
C499 O518 1.215 . S
C499 O519 1.289 . S
C500 C499 1.488 . S
C500 C501 1.348 . S
C500 C505 1.413 . S
C501 C500 1.348 . S
C501 C502 1.442 . S
C501 H528 0.930 . S
C502 C501 1.442 . S
C502 C503 1.381 . S
C502 H529 0.931 . S
C503 C502 1.381 . S
C503 C504 1.321 . S
C504 C503 1.321 . S
C504 C505 1.403 . S
C504 H530 0.934 . S
C505 C500 1.413 . S
C505 C504 1.403 . S
C505 H531 0.930 . S
C506 O520 1.275 . S
C506 O521 1.256 . S
C507 O522 1.259 . S
C507 O523 1.268 . S
C508 Ho497 2.811 1_565 S
C508 C509 1.488 . S
C508 O524 1.215 . S
C508 O525 1.289 . S
C509 C508 1.488 . S
C509 C510 1.348 . S
C509 C514 1.413 . S
C510 C509 1.348 . S
C510 C511 1.442 . S
C510 H532 0.930 . S
C511 C510 1.442 . S
C511 C512 1.381 . S
C511 H533 0.931 . S
C512 C511 1.381 . S
C512 C513 1.321 . S
C513 C512 1.321 . S
C513 C514 1.403 . S
C513 H534 0.934 . S
C514 C509 1.413 . S
C514 C513 1.403 . S
C514 H535 0.930 . S
C515 O526 1.275 . S
C515 O527 1.256 . S
O516 Ho496 2.322 . S
O516 C498 1.259 . S
O517 Ho497 2.346 . S
O517 C498 1.268 . S
O518 Ho496 2.378 . S
O518 C499 1.215 . S
O519 Ho496 2.524 . S
O519 C499 1.289 . S
O520 Ho496 2.381 . S
O520 C506 1.275 . S
O521 Ho496 2.669 . S
O521 Ho497 2.305 . S
O521 C506 1.256 . S
O522 Ho497 2.322 . S
O522 C507 1.259 . S
O523 Ho496 2.346 . S
O523 C507 1.268 . S
O524 Ho497 2.378 1_565 S
O524 C508 1.215 . S
O525 Ho497 2.524 1_565 S
O525 C508 1.289 . S
O526 Ho497 2.381 . S
O526 C515 1.275 . S
O527 Ho496 2.305 . S
O527 Ho497 2.669 . S
O527 C515 1.256 . S
H528 C501 0.930 . S
H529 C502 0.931 . S
H530 C504 0.934 . S
H531 C505 0.930 . S
H532 C510 0.930 . S
H533 C511 0.931 . S
H534 C513 0.934 . S
H535 C514 0.930 . S
Ho536 C539 2.811 . S
Ho536 O556 2.322 . S
Ho536 O558 2.378 . S
Ho536 O559 2.524 . S
Ho536 O560 2.381 . S
Ho536 O561 2.669 . S
Ho536 O563 2.346 . S
Ho536 O567 2.305 . S
Ho537 C548 2.811 . S
Ho537 O557 2.346 . S
Ho537 O561 2.305 . S
Ho537 O562 2.322 . S
Ho537 O564 2.378 . S
Ho537 O565 2.524 . S
Ho537 O566 2.381 . S
Ho537 O567 2.669 . S
C538 O556 1.259 . S
C538 O557 1.268 . S
C539 Ho536 2.811 . S
C539 C540 1.488 . S
C539 O558 1.215 . S
C539 O559 1.289 . S
C540 C539 1.488 . S
C540 C541 1.348 . S
C540 C545 1.413 . S
C541 C540 1.348 . S
C541 C542 1.442 . S
C541 H568 0.930 . S
C542 C541 1.442 . S
C542 C543 1.381 . S
C542 H569 0.931 . S
C543 C542 1.381 . S
C543 C544 1.321 . S
C544 C543 1.321 . S
C544 C545 1.403 . S
C544 H570 0.934 . S
C545 C540 1.413 . S
C545 C544 1.403 . S
C545 H571 0.930 . S
C546 O560 1.275 . S
C546 O561 1.256 . S
C547 O562 1.259 . S
C547 O563 1.268 . S
C548 Ho537 2.811 . S
C548 C549 1.488 . S
C548 O564 1.215 . S
C548 O565 1.289 . S
C549 C548 1.488 . S
C549 C550 1.348 . S
C549 C554 1.413 . S
C550 C549 1.348 . S
C550 C551 1.442 . S
C550 H572 0.930 . S
C551 C550 1.442 . S
C551 C552 1.381 . S
C551 H573 0.931 . S
C552 C551 1.381 . S
C552 C553 1.321 . S
C553 C552 1.321 . S
C553 C554 1.403 . S
C553 H574 0.934 . S
C554 C549 1.413 . S
C554 C553 1.403 . S
C554 H575 0.930 . S
C555 O566 1.275 . S
C555 O567 1.256 . S
O556 Ho536 2.322 . S
O556 C538 1.259 . S
O557 Ho537 2.346 . S
O557 C538 1.268 . S
O558 Ho536 2.378 . S
O558 C539 1.215 . S
O559 Ho536 2.524 . S
O559 C539 1.289 . S
O560 Ho536 2.381 . S
O560 C546 1.275 . S
O561 Ho536 2.669 . S
O561 Ho537 2.305 . S
O561 C546 1.256 . S
O562 Ho537 2.322 . S
O562 C547 1.259 . S
O563 Ho536 2.346 . S
O563 C547 1.268 . S
O564 Ho537 2.378 . S
O564 C548 1.215 . S
O565 Ho537 2.524 . S
O565 C548 1.289 . S
O566 Ho537 2.381 . S
O566 C555 1.275 . S
O567 Ho536 2.305 . S
O567 Ho537 2.669 . S
O567 C555 1.256 . S
H568 C541 0.930 . S
H569 C542 0.931 . S
H570 C544 0.934 . S
H571 C545 0.930 . S
H572 C550 0.930 . S
H573 C551 0.931 . S
H574 C553 0.934 . S
H575 C554 0.930 . S
Ho576 C579 2.811 . S
Ho576 O596 2.322 . S
Ho576 O598 2.378 . S
Ho576 O599 2.524 . S
Ho576 O600 2.381 1_545 S
Ho576 O601 2.669 1_554 S
Ho576 O603 2.346 . S
Ho576 O607 2.305 . S
Ho577 C588 2.811 . S
Ho577 O597 2.346 . S
Ho577 O601 2.305 . S
Ho577 O602 2.322 . S
Ho577 O604 2.378 . S
Ho577 O605 2.524 . S
Ho577 O606 2.381 1_556 S
Ho577 O607 2.669 1_556 S
C578 O596 1.259 . S
C578 O597 1.268 1_554 S
C579 Ho576 2.811 . S
C579 C580 1.488 . S
C579 O598 1.215 . S
C579 O599 1.289 . S
C580 C579 1.488 . S
C580 C581 1.348 . S
C580 C585 1.413 1_545 S
C581 C580 1.348 . S
C581 C582 1.442 . S
C581 H608 0.930 . S
C582 C581 1.442 . S
C582 C583 1.381 1_545 S
C582 H609 0.931 . S
C583 C582 1.381 1_565 S
C583 C584 1.321 . S
C584 C583 1.321 . S
C584 C585 1.403 . S
C584 H610 0.934 . S
C585 C580 1.413 1_565 S
C585 C584 1.403 . S
C585 H611 0.930 . S
C586 O600 1.270 1_556 S
C586 O601 1.258 1_565 S
C587 O602 1.259 1_554 S
C587 O603 1.268 . S
C588 Ho577 2.811 . S
C588 C589 1.488 . S
C588 O604 1.215 . S
C588 O605 1.289 . S
C589 C588 1.488 . S
C589 C590 1.348 . S
C589 C594 1.413 . S
C590 C589 1.348 . S
C590 C591 1.442 . S
C590 H612 0.930 . S
C591 C590 1.442 . S
C591 C592 1.381 . S
C591 H613 0.931 . S
C592 C591 1.381 . S
C592 C593 1.321 . S
C593 C592 1.321 . S
C593 C594 1.403 . S
C593 H614 0.934 . S
C594 C589 1.413 . S
C594 C593 1.403 . S
C594 H615 0.930 . S
C595 O606 1.275 . S
C595 O607 1.256 . S
O596 Ho576 2.322 . S
O596 C578 1.259 . S
O597 Ho577 2.346 . S
O597 C578 1.268 1_556 S
O598 Ho576 2.378 . S
O598 C579 1.215 . S
O599 Ho576 2.524 . S
O599 C579 1.289 . S
O600 Ho576 2.381 1_565 S
O600 C586 1.270 1_554 S
O601 Ho576 2.669 1_556 S
O601 Ho577 2.305 . S
O601 C586 1.258 1_545 S
O602 Ho577 2.322 . S
O602 C587 1.259 1_556 S
O603 Ho576 2.346 . S
O603 C587 1.268 . S
O604 Ho577 2.378 . S
O604 C588 1.215 . S
O605 Ho577 2.524 . S
O605 C588 1.289 . S
O606 Ho577 2.381 1_554 S
O606 C595 1.275 . S
O607 Ho576 2.305 . S
O607 Ho577 2.669 1_554 S
O607 C595 1.256 . S
H608 C581 0.930 . S
H609 C582 0.931 . S
H610 C584 0.934 . S
H611 C585 0.930 . S
H612 C590 0.930 . S
H613 C591 0.931 . S
H614 C593 0.934 . S
H615 C594 0.930 . S
Ho616 C619 2.811 . S
Ho616 O636 2.322 . S
Ho616 O638 2.378 . S
Ho616 O639 2.524 . S
Ho616 O640 2.381 . S
Ho616 O641 2.669 . S
Ho616 O643 2.346 . S
Ho616 O647 2.305 . S
Ho617 C628 2.811 . S
Ho617 O637 2.346 . S
Ho617 O641 2.305 . S
Ho617 O642 2.322 . S
Ho617 O644 2.378 . S
Ho617 O645 2.524 . S
Ho617 O646 2.381 . S
Ho617 O647 2.669 . S
C618 O636 1.259 . S
C618 O637 1.268 . S
C619 Ho616 2.811 . S
C619 C620 1.488 . S
C619 O638 1.215 . S
C619 O639 1.289 . S
C620 C619 1.488 . S
C620 C621 1.348 . S
C620 C625 1.413 . S
C621 C620 1.348 . S
C621 C622 1.442 . S
C621 H648 0.930 . S
C622 C621 1.442 . S
C622 C623 1.381 . S
C622 H649 0.931 . S
C623 C622 1.381 . S
C623 C624 1.321 . S
C624 C623 1.321 . S
C624 C625 1.403 . S
C624 H650 0.934 . S
C625 C620 1.413 . S
C625 C624 1.403 . S
C625 H651 0.930 . S
C626 O640 1.275 . S
C626 O641 1.256 . S
C627 O642 1.259 . S
C627 O643 1.268 . S
C628 Ho617 2.811 . S
C628 C629 1.488 . S
C628 O644 1.215 . S
C628 O645 1.289 . S
C629 C628 1.488 . S
C629 C630 1.348 . S
C629 C634 1.413 . S
C630 C629 1.348 . S
C630 C631 1.442 . S
C630 H652 0.930 . S
C631 C630 1.442 . S
C631 C632 1.381 . S
C631 H653 0.931 . S
C632 C631 1.381 . S
C632 C633 1.321 . S
C633 C632 1.321 . S
C633 C634 1.403 . S
C633 H654 0.934 . S
C634 C629 1.413 . S
C634 C633 1.403 . S
C634 H655 0.930 . S
C635 O646 1.275 . S
C635 O647 1.256 . S
O636 Ho616 2.322 . S
O636 C618 1.259 . S
O637 Ho617 2.346 . S
O637 C618 1.268 . S
O638 Ho616 2.378 . S
O638 C619 1.215 . S
O639 Ho616 2.524 . S
O639 C619 1.289 . S
O640 Ho616 2.381 . S
O640 C626 1.275 . S
O641 Ho616 2.669 . S
O641 Ho617 2.305 . S
O641 C626 1.256 . S
O642 Ho617 2.322 . S
O642 C627 1.259 . S
O643 Ho616 2.346 . S
O643 C627 1.268 . S
O644 Ho617 2.378 . S
O644 C628 1.215 . S
O645 Ho617 2.524 . S
O645 C628 1.289 . S
O646 Ho617 2.381 . S
O646 C635 1.275 . S
O647 Ho616 2.305 . S
O647 Ho617 2.669 . S
O647 C635 1.256 . S
H648 C621 0.930 . S
H649 C622 0.931 . S
H650 C624 0.934 . S
H651 C625 0.930 . S
H652 C630 0.930 . S
H653 C631 0.931 . S
H654 C633 0.934 . S
H655 C634 0.930 . S
Ho656 C659 2.780 1_554 S
Ho656 O676 2.322 1_554 S
Ho656 O678 2.378 . S
Ho656 O679 2.524 1_554 S
Ho656 O680 2.381 . S
Ho656 O681 2.669 . S
Ho656 O683 2.346 . S
Ho656 O687 2.305 . S
Ho657 C668 2.832 . S
Ho657 O677 2.315 1_554 S
Ho657 O681 2.318 . S
Ho657 O682 2.354 . S
Ho657 O684 2.391 . S
Ho657 O685 2.550 . S
Ho657 O686 2.376 . S
Ho657 O687 2.667 . S
C658 O676 1.259 . S
C658 O677 1.268 . S
C659 Ho656 2.780 1_556 S
C659 C660 1.520 . S
C659 O678 1.180 1_556 S
C659 O679 1.297 . S
C660 C659 1.520 . S
C660 C661 1.348 . S
C660 C665 1.413 . S
C661 C660 1.348 . S
C661 C662 1.442 . S
C661 H688 0.930 . S
C662 C661 1.442 . S
C662 C663 1.381 . S
C662 H689 0.931 . S
C663 C662 1.381 . S
C663 C664 1.321 . S
C664 C663 1.321 . S
C664 C665 1.403 . S
C664 H690 0.934 . S
C665 C660 1.413 . S
C665 C664 1.403 . S
C665 H691 0.930 . S
C666 O680 1.275 . S
C666 O681 1.256 . S
C667 O682 1.259 . S
C667 O683 1.268 . S
C668 Ho657 2.832 . S
C668 C669 1.488 . S
C668 O684 1.215 . S
C668 O685 1.289 . S
C669 C668 1.488 . S
C669 C670 1.348 . S
C669 C674 1.413 . S
C670 C669 1.348 . S
C670 C671 1.442 . S
C670 H692 0.930 . S
C671 C670 1.442 . S
C671 C672 1.381 . S
C671 H693 0.931 . S
C672 C671 1.381 . S
C672 C673 1.321 . S
C673 C672 1.321 . S
C673 C674 1.403 . S
C673 H694 0.934 . S
C674 C669 1.413 . S
C674 C673 1.403 . S
C674 H695 0.930 . S
C675 O686 1.275 . S
C675 O687 1.256 . S
O676 Ho656 2.322 1_556 S
O676 C658 1.259 . S
O677 Ho657 2.315 1_556 S
O677 C658 1.268 . S
O678 Ho656 2.378 . S
O678 C659 1.180 1_554 S
O679 Ho656 2.524 1_556 S
O679 C659 1.297 . S
O680 Ho656 2.381 . S
O680 C666 1.275 . S
O681 Ho656 2.669 . S
O681 Ho657 2.318 . S
O681 C666 1.256 . S
O682 Ho657 2.354 . S
O682 C667 1.259 . S
O683 Ho656 2.346 . S
O683 C667 1.268 . S
O684 Ho657 2.391 . S
O684 C668 1.215 . S
O685 Ho657 2.550 . S
O685 C668 1.289 . S
O686 Ho657 2.376 . S
O686 C675 1.275 . S
O687 Ho656 2.305 . S
O687 Ho657 2.667 . S
O687 C675 1.256 . S
H688 C661 0.930 . S
H689 C662 0.931 . S
H690 C664 0.934 . S
H691 C665 0.930 . S
H692 C670 0.930 . S
H693 C671 0.931 . S
H694 C673 0.934 . S
H695 C674 0.930 . S
Ho696 C699 2.811 . S
Ho696 O716 2.322 . S
Ho696 O718 2.378 . S
Ho696 O719 2.524 . S
Ho696 O720 2.381 . S
Ho696 O721 2.669 . S
Ho696 O723 2.346 . S
Ho696 O727 2.305 . S
Ho697 C708 2.811 . S
Ho697 O717 2.346 . S
Ho697 O721 2.305 . S
Ho697 O722 2.322 . S
Ho697 O724 2.378 . S
Ho697 O725 2.524 . S
Ho697 O726 2.381 . S
Ho697 O727 2.669 . S
C698 O716 1.259 . S
C698 O717 1.268 . S
C699 Ho696 2.811 . S
C699 C700 1.488 . S
C699 O718 1.215 . S
C699 O719 1.289 . S
C700 C699 1.488 . S
C700 C701 1.348 . S
C700 C705 1.413 . S
C701 C700 1.348 . S
C701 C702 1.442 . S
C701 H728 0.930 . S
C702 C701 1.442 . S
C702 C703 1.381 . S
C702 H729 0.931 . S
C703 C702 1.381 . S
C703 C704 1.321 . S
C704 C703 1.321 . S
C704 C705 1.403 . S
C704 H730 0.934 . S
C705 C700 1.413 . S
C705 C704 1.403 . S
C705 H731 0.930 . S
C706 O720 1.275 . S
C706 O721 1.256 . S
C707 O722 1.259 . S
C707 O723 1.268 . S
C708 Ho697 2.811 . S
C708 C709 1.488 . S
C708 O724 1.215 . S
C708 O725 1.289 . S
C709 C708 1.488 . S
C709 C710 1.348 . S
C709 C714 1.413 . S
C710 C709 1.348 . S
C710 C711 1.442 . S
C710 H732 0.930 . S
C711 C710 1.442 . S
C711 C712 1.381 . S
C711 H733 0.931 . S
C712 C711 1.381 . S
C712 C713 1.321 . S
C713 C712 1.321 . S
C713 C714 1.403 . S
C713 H734 0.934 . S
C714 C709 1.413 . S
C714 C713 1.403 . S
C714 H735 0.930 . S
C715 O726 1.275 . S
C715 O727 1.256 . S
O716 Ho696 2.322 . S
O716 C698 1.259 . S
O717 Ho697 2.346 . S
O717 C698 1.268 . S
O718 Ho696 2.378 . S
O718 C699 1.215 . S
O719 Ho696 2.524 . S
O719 C699 1.289 . S
O720 Ho696 2.381 . S
O720 C706 1.275 . S
O721 Ho696 2.669 . S
O721 Ho697 2.305 . S
O721 C706 1.256 . S
O722 Ho697 2.322 . S
O722 C707 1.259 . S
O723 Ho696 2.346 . S
O723 C707 1.268 . S
O724 Ho697 2.378 . S
O724 C708 1.215 . S
O725 Ho697 2.524 . S
O725 C708 1.289 . S
O726 Ho697 2.381 . S
O726 C715 1.275 . S
O727 Ho696 2.305 . S
O727 Ho697 2.669 . S
O727 C715 1.256 . S
H728 C701 0.930 . S
H729 C702 0.931 . S
H730 C704 0.934 . S
H731 C705 0.930 . S
H732 C710 0.930 . S
H733 C711 0.931 . S
H734 C713 0.934 . S
H735 C714 0.930 . S
Ho736 C739 2.811 . S
Ho736 O756 2.322 . S
Ho736 O758 2.378 . S
Ho736 O759 2.524 . S
Ho736 O760 2.381 . S
Ho736 O761 2.669 . S
Ho736 O763 2.346 . S
Ho736 O767 2.305 . S
Ho737 C748 2.811 . S
Ho737 O757 2.346 . S
Ho737 O761 2.305 . S
Ho737 O762 2.322 . S
Ho737 O764 2.378 . S
Ho737 O765 2.524 . S
Ho737 O766 2.381 . S
Ho737 O767 2.669 . S
C738 O756 1.259 . S
C738 O757 1.268 . S
C739 Ho736 2.811 . S
C739 C740 1.488 . S
C739 O758 1.215 . S
C739 O759 1.289 . S
C740 C739 1.488 . S
C740 C741 1.348 1_455 S
C740 C745 1.413 . S
C741 C740 1.348 1_655 S
C741 C742 1.442 . S
C741 H768 0.930 . S
C742 C741 1.442 . S
C742 C743 1.381 . S
C742 H769 0.931 . S
C743 C742 1.381 . S
C743 C744 1.321 1_655 S
C744 C743 1.321 1_455 S
C744 C745 1.403 . S
C744 H770 0.934 . S
C745 C740 1.413 . S
C745 C744 1.403 . S
C745 H771 0.930 . S
C746 O760 1.275 . S
C746 O761 1.256 . S
C747 O762 1.259 . S
C747 O763 1.268 . S
C748 Ho737 2.811 . S
C748 C749 1.488 . S
C748 O764 1.215 . S
C748 O765 1.289 . S
C749 C748 1.488 . S
C749 C750 1.348 . S
C749 C754 1.413 . S
C750 C749 1.348 . S
C750 C751 1.442 . S
C750 H772 0.930 . S
C751 C750 1.442 . S
C751 C752 1.381 . S
C751 H773 0.931 . S
C752 C751 1.381 . S
C752 C753 1.321 . S
C753 C752 1.321 . S
C753 C754 1.403 . S
C753 H774 0.934 . S
C754 C749 1.413 . S
C754 C753 1.403 . S
C754 H775 0.930 . S
C755 O766 1.275 . S
C755 O767 1.256 . S
O756 Ho736 2.322 . S
O756 C738 1.259 . S
O757 Ho737 2.346 . S
O757 C738 1.268 . S
O758 Ho736 2.378 . S
O758 C739 1.215 . S
O759 Ho736 2.524 . S
O759 C739 1.289 . S
O760 Ho736 2.381 . S
O760 C746 1.275 . S
O761 Ho736 2.669 . S
O761 Ho737 2.305 . S
O761 C746 1.256 . S
O762 Ho737 2.322 . S
O762 C747 1.259 . S
O763 Ho736 2.346 . S
O763 C747 1.268 . S
O764 Ho737 2.378 . S
O764 C748 1.215 . S
O765 Ho737 2.524 . S
O765 C748 1.289 . S
O766 Ho737 2.381 . S
O766 C755 1.275 . S
O767 Ho736 2.305 . S
O767 Ho737 2.669 . S
O767 C755 1.256 . S
H768 C741 0.930 . S
H769 C742 0.931 . S
H770 C744 0.934 . S
H771 C745 0.930 . S
H772 C750 0.930 . S
H773 C751 0.931 . S
H774 C753 0.934 . S
H775 C754 0.930 . S
Ho776 C779 2.811 . S
Ho776 O796 2.322 . S
Ho776 O798 2.378 . S
Ho776 O799 2.524 . S
Ho776 O800 2.381 . S
Ho776 O801 2.669 . S
Ho776 O803 2.346 . S
Ho776 O807 2.305 . S
Ho777 C788 2.811 . S
Ho777 O797 2.346 . S
Ho777 O801 2.305 . S
Ho777 O802 2.322 . S
Ho777 O804 2.378 . S
Ho777 O805 2.524 . S
Ho777 O806 2.381 . S
Ho777 O807 2.669 . S
C778 O796 1.259 . S
C778 O797 1.268 . S
C779 Ho776 2.811 . S
C779 C780 1.488 . S
C779 O798 1.215 . S
C779 O799 1.289 . S
C780 C779 1.488 . S
C780 C781 1.348 . S
C780 C785 1.413 . S
C781 C780 1.348 . S
C781 C782 1.442 . S
C781 H808 0.930 . S
C782 C781 1.442 . S
C782 C783 1.381 . S
C782 H809 0.931 . S
C783 C782 1.381 . S
C783 C784 1.321 . S
C784 C783 1.321 . S
C784 C785 1.403 . S
C784 H810 0.934 . S
C785 C780 1.413 . S
C785 C784 1.403 . S
C785 H811 0.930 . S
C786 O800 1.275 . S
C786 O801 1.256 . S
C787 O802 1.259 . S
C787 O803 1.268 . S
C788 Ho777 2.811 . S
C788 C789 1.488 . S
C788 O804 1.215 . S
C788 O805 1.289 . S
C789 C788 1.488 . S
C789 C790 1.348 . S
C789 C794 1.413 . S
C790 C789 1.348 . S
C790 C791 1.442 . S
C790 H812 0.930 . S
C791 C790 1.442 . S
C791 C792 1.381 . S
C791 H813 0.931 . S
C792 C791 1.381 . S
C792 C793 1.321 . S
C793 C792 1.321 . S
C793 C794 1.403 . S
C793 H814 0.934 . S
C794 C789 1.413 . S
C794 C793 1.403 . S
C794 H815 0.930 . S
C795 O806 1.275 . S
C795 O807 1.256 . S
O796 Ho776 2.322 . S
O796 C778 1.259 . S
O797 Ho777 2.346 . S
O797 C778 1.268 . S
O798 Ho776 2.378 . S
O798 C779 1.215 . S
O799 Ho776 2.524 . S
O799 C779 1.289 . S
O800 Ho776 2.381 . S
O800 C786 1.275 . S
O801 Ho776 2.669 . S
O801 Ho777 2.305 . S
O801 C786 1.256 . S
O802 Ho777 2.322 . S
O802 C787 1.259 . S
O803 Ho776 2.346 . S
O803 C787 1.268 . S
O804 Ho777 2.378 . S
O804 C788 1.215 . S
O805 Ho777 2.524 . S
O805 C788 1.289 . S
O806 Ho777 2.381 . S
O806 C795 1.275 . S
O807 Ho776 2.305 . S
O807 Ho777 2.669 . S
O807 C795 1.256 . S
H808 C781 0.930 . S
H809 C782 0.931 . S
H810 C784 0.934 . S
H811 C785 0.930 . S
H812 C790 0.930 . S
H813 C791 0.931 . S
H814 C793 0.934 . S
H815 C794 0.930 . S
Ho816 C819 2.811 . S
Ho816 O836 2.322 . S
Ho816 O838 2.378 . S
Ho816 O839 2.524 . S
Ho816 O840 2.381 . S
Ho816 O841 2.669 . S
Ho816 O843 2.346 . S
Ho816 O847 2.305 . S
Ho817 C828 2.811 . S
Ho817 O837 2.346 . S
Ho817 O841 2.305 . S
Ho817 O842 2.322 . S
Ho817 O844 2.378 . S
Ho817 O845 2.524 . S
Ho817 O846 2.381 . S
Ho817 O847 2.669 . S
C818 O836 1.259 . S
C818 O837 1.268 . S
C819 Ho816 2.811 . S
C819 C820 1.488 . S
C819 O838 1.215 . S
C819 O839 1.289 . S
C820 C819 1.488 . S
C820 C821 1.348 . S
C820 C825 1.413 . S
C821 C820 1.348 . S
C821 C822 1.442 . S
C821 H848 0.930 . S
C822 C821 1.442 . S
C822 C823 1.381 . S
C822 H849 0.931 . S
C823 C822 1.381 . S
C823 C824 1.321 . S
C824 C823 1.321 . S
C824 C825 1.403 . S
C824 H850 0.934 . S
C825 C820 1.413 . S
C825 C824 1.403 . S
C825 H851 0.930 . S
C826 O840 1.275 . S
C826 O841 1.256 . S
C827 O842 1.259 . S
C827 O843 1.268 . S
C828 Ho817 2.811 . S
C828 C829 1.488 . S
C828 O844 1.215 . S
C828 O845 1.289 . S
C829 C828 1.488 . S
C829 C830 1.348 . S
C829 C834 1.413 . S
C830 C829 1.348 . S
C830 C831 1.442 . S
C830 H852 0.930 . S
C831 C830 1.442 . S
C831 C832 1.381 . S
C831 H853 0.931 . S
C832 C831 1.381 . S
C832 C833 1.321 . S
C833 C832 1.321 . S
C833 C834 1.403 . S
C833 H854 0.934 . S
C834 C829 1.413 . S
C834 C833 1.403 . S
C834 H855 0.930 . S
C835 O846 1.275 . S
C835 O847 1.256 . S
O836 Ho816 2.322 . S
O836 C818 1.259 . S
O837 Ho817 2.346 . S
O837 C818 1.268 . S
O838 Ho816 2.378 . S
O838 C819 1.215 . S
O839 Ho816 2.524 . S
O839 C819 1.289 . S
O840 Ho816 2.381 . S
O840 C826 1.275 . S
O841 Ho816 2.669 . S
O841 Ho817 2.305 . S
O841 C826 1.256 . S
O842 Ho817 2.322 . S
O842 C827 1.259 . S
O843 Ho816 2.346 . S
O843 C827 1.268 . S
O844 Ho817 2.378 . S
O844 C828 1.215 . S
O845 Ho817 2.524 . S
O845 C828 1.289 . S
O846 Ho817 2.381 . S
O846 C835 1.275 . S
O847 Ho816 2.305 . S
O847 Ho817 2.669 . S
O847 C835 1.256 . S
H848 C821 0.930 . S
H849 C822 0.931 . S
H850 C824 0.934 . S
H851 C825 0.930 . S
H852 C830 0.930 . S
H853 C831 0.931 . S
H854 C833 0.934 . S
H855 C834 0.930 . S
Ho856 C859 2.811 . S
Ho856 O876 2.322 . S
Ho856 O878 2.378 . S
Ho856 O879 2.524 . S
Ho856 O880 2.381 . S
Ho856 O881 2.669 . S
Ho856 O883 2.346 . S
Ho856 O887 2.305 . S
Ho857 C868 2.811 . S
Ho857 O877 2.346 . S
Ho857 O881 2.305 . S
Ho857 O882 2.322 . S
Ho857 O884 2.378 . S
Ho857 O885 2.524 . S
Ho857 O886 2.381 . S
Ho857 O887 2.669 . S
C858 O876 1.259 . S
C858 O877 1.268 . S
C859 Ho856 2.811 . S
C859 C860 1.488 . S
C859 O878 1.215 . S
C859 O879 1.289 . S
C860 C859 1.488 . S
C860 C861 1.348 . S
C860 C865 1.413 . S
C861 C860 1.348 . S
C861 C862 1.442 . S
C861 H888 0.930 . S
C862 C861 1.442 . S
C862 C863 1.381 . S
C862 H889 0.931 . S
C863 C862 1.381 . S
C863 C864 1.321 . S
C864 C863 1.321 . S
C864 C865 1.403 . S
C864 H890 0.934 . S
C865 C860 1.413 . S
C865 C864 1.403 . S
C865 H891 0.930 . S
C866 O880 1.275 . S
C866 O881 1.256 . S
C867 O882 1.259 . S
C867 O883 1.268 . S
C868 Ho857 2.811 . S
C868 C869 1.488 . S
C868 O884 1.215 . S
C868 O885 1.289 . S
C869 C868 1.488 . S
C869 C870 1.348 . S
C869 C874 1.413 . S
C870 C869 1.348 . S
C870 C871 1.442 . S
C870 H892 0.930 . S
C871 C870 1.442 . S
C871 C872 1.381 . S
C871 H893 0.931 . S
C872 C871 1.381 . S
C872 C873 1.321 . S
C873 C872 1.321 . S
C873 C874 1.403 . S
C873 H894 0.934 . S
C874 C869 1.413 . S
C874 C873 1.403 . S
C874 H895 0.930 . S
C875 O886 1.275 . S
C875 O887 1.256 . S
O876 Ho856 2.322 . S
O876 C858 1.259 . S
O877 Ho857 2.346 . S
O877 C858 1.268 . S
O878 Ho856 2.378 . S
O878 C859 1.215 . S
O879 Ho856 2.524 . S
O879 C859 1.289 . S
O880 Ho856 2.381 . S
O880 C866 1.275 . S
O881 Ho856 2.669 . S
O881 Ho857 2.305 . S
O881 C866 1.256 . S
O882 Ho857 2.322 . S
O882 C867 1.259 . S
O883 Ho856 2.346 . S
O883 C867 1.268 . S
O884 Ho857 2.378 . S
O884 C868 1.215 . S
O885 Ho857 2.524 . S
O885 C868 1.289 . S
O886 Ho857 2.381 . S
O886 C875 1.275 . S
O887 Ho856 2.305 . S
O887 Ho857 2.669 . S
O887 C875 1.256 . S
H888 C861 0.930 . S
H889 C862 0.931 . S
H890 C864 0.934 . S
H891 C865 0.930 . S
H892 C870 0.930 . S
H893 C871 0.931 . S
H894 C873 0.934 . S
H895 C874 0.930 . S
Ho896 C899 2.811 . S
Ho896 O916 2.322 . S
Ho896 O918 2.378 . S
Ho896 O919 2.524 . S
Ho896 O920 2.381 . S
Ho896 O921 2.669 . S
Ho896 O923 2.346 . S
Ho896 O927 2.305 . S
Ho897 C908 2.811 . S
Ho897 O917 2.346 . S
Ho897 O921 2.305 . S
Ho897 O922 2.322 . S
Ho897 O924 2.378 . S
Ho897 O925 2.524 . S
Ho897 O926 2.381 . S
Ho897 O927 2.669 . S
C898 O916 1.259 . S
C898 O917 1.268 . S
C899 Ho896 2.811 . S
C899 C900 1.488 . S
C899 O918 1.215 . S
C899 O919 1.289 . S
C900 C899 1.488 . S
C900 C901 1.348 . S
C900 C905 1.413 . S
C901 C900 1.348 . S
C901 C902 1.442 . S
C901 H928 0.930 . S
C902 C901 1.442 . S
C902 C903 1.381 . S
C902 H929 0.931 . S
C903 C902 1.381 . S
C903 C904 1.321 . S
C904 C903 1.321 . S
C904 C905 1.403 . S
C904 H930 0.934 . S
C905 C900 1.413 . S
C905 C904 1.403 . S
C905 H931 0.930 . S
C906 O920 1.275 . S
C906 O921 1.256 . S
C907 O922 1.259 . S
C907 O923 1.268 . S
C908 Ho897 2.811 . S
C908 C909 1.488 . S
C908 O924 1.215 . S
C908 O925 1.289 . S
C909 C908 1.488 . S
C909 C910 1.348 . S
C909 C914 1.413 . S
C910 C909 1.348 . S
C910 C911 1.442 . S
C910 H932 0.930 . S
C911 C910 1.442 . S
C911 C912 1.381 . S
C911 H933 0.931 . S
C912 C911 1.381 . S
C912 C913 1.321 . S
C913 C912 1.321 . S
C913 C914 1.403 . S
C913 H934 0.934 . S
C914 C909 1.413 . S
C914 C913 1.403 . S
C914 H935 0.930 . S
C915 O926 1.275 . S
C915 O927 1.256 . S
O916 Ho896 2.322 . S
O916 C898 1.259 . S
O917 Ho897 2.346 . S
O917 C898 1.268 . S
O918 Ho896 2.378 . S
O918 C899 1.215 . S
O919 Ho896 2.524 . S
O919 C899 1.289 . S
O920 Ho896 2.381 . S
O920 C906 1.275 . S
O921 Ho896 2.669 . S
O921 Ho897 2.305 . S
O921 C906 1.256 . S
O922 Ho897 2.322 . S
O922 C907 1.259 . S
O923 Ho896 2.346 . S
O923 C907 1.268 . S
O924 Ho897 2.378 . S
O924 C908 1.215 . S
O925 Ho897 2.524 . S
O925 C908 1.289 . S
O926 Ho897 2.381 . S
O926 C915 1.275 . S
O927 Ho896 2.305 . S
O927 Ho897 2.669 . S
O927 C915 1.256 . S
H928 C901 0.930 . S
H929 C902 0.931 . S
H930 C904 0.934 . S
H931 C905 0.930 . S
H932 C910 0.930 . S
H933 C911 0.931 . S
H934 C913 0.934 . S
H935 C914 0.930 . S
Ho936 C939 2.811 1_554 S
Ho936 O956 2.322 1_554 S
Ho936 O958 2.378 1_554 S
Ho936 O959 2.524 . S
Ho936 O960 2.381 1_554 S
Ho936 O961 2.669 1_554 S
Ho936 O963 2.346 . S
Ho936 O967 2.305 . S
Ho937 C948 2.811 1_455 S
Ho937 O957 2.346 . S
Ho937 O961 2.305 1_554 S
Ho937 O962 2.322 . S
Ho937 O964 2.378 1_455 S
Ho937 O965 2.524 1_455 S
Ho937 O966 2.381 . S
Ho937 O967 2.669 . S
C938 O956 1.259 1_554 S
C938 O957 1.268 . S
C939 Ho936 2.811 1_556 S
C939 C940 1.488 . S
C939 O958 1.215 . S
C939 O959 1.289 1_556 S
C940 C939 1.488 . S
C940 C941 1.348 1_556 S
C940 C945 1.413 . S
C941 C940 1.348 1_554 S
C941 C942 1.442 . S
C941 H968 0.930 . S
C942 C941 1.442 . S
C942 C943 1.381 1_554 S
C942 H969 0.931 . S
C943 C942 1.381 1_556 S
C943 C944 1.321 . S
C944 C943 1.321 . S
C944 C945 1.403 . S
C944 H970 0.934 . S
C945 C940 1.413 . S
C945 C944 1.403 . S
C945 H971 0.930 . S
C946 O960 1.275 . S
C946 O961 1.256 . S
C947 O962 1.259 . S
C947 O963 1.268 . S
C948 Ho937 2.811 1_655 S
C948 C949 1.488 . S
C948 O964 1.215 . S
C948 O965 1.289 . S
C949 C948 1.488 . S
C949 C950 1.348 . S
C949 C954 1.413 . S
C950 C949 1.348 . S
C950 C951 1.442 . S
C950 H972 0.930 . S
C951 C950 1.442 . S
C951 C952 1.381 . S
C951 H973 0.931 . S
C952 C951 1.381 . S
C952 C953 1.321 . S
C953 C952 1.321 . S
C953 C954 1.403 . S
C953 H974 0.934 . S
C954 C949 1.413 . S
C954 C953 1.403 . S
C954 H975 0.930 . S
C955 O966 1.275 . S
C955 O967 1.256 . S
O956 Ho936 2.322 1_556 S
O956 C938 1.259 1_556 S
O957 Ho937 2.346 . S
O957 C938 1.268 . S
O958 Ho936 2.378 1_556 S
O958 C939 1.215 . S
O959 Ho936 2.524 . S
O959 C939 1.289 1_554 S
O960 Ho936 2.381 1_556 S
O960 C946 1.275 . S
O961 Ho936 2.669 1_556 S
O961 Ho937 2.305 1_556 S
O961 C946 1.256 . S
O962 Ho937 2.322 . S
O962 C947 1.259 . S
O963 Ho936 2.346 . S
O963 C947 1.268 . S
O964 Ho937 2.378 1_655 S
O964 C948 1.215 . S
O965 Ho937 2.524 1_655 S
O965 C948 1.289 . S
O966 Ho937 2.381 . S
O966 C955 1.275 . S
O967 Ho936 2.305 . S
O967 Ho937 2.669 . S
O967 C955 1.256 . S
H968 C941 0.930 . S
H969 C942 0.931 . S
H970 C944 0.934 . S
H971 C945 0.930 . S
H972 C950 0.930 . S
H973 C951 0.931 . S
H974 C953 0.934 . S
H975 C954 0.930 . S
H976 C994 0.951 . S
H977 C996 0.951 . S
H978 C998 0.929 1_655 S
H979 C999 0.950 . S
H980 C1001 0.950 1_655 S
H981 C1004 0.950 . S
H982 C1005 0.950 . S
H983 C1007 0.950 . S
H984 C1008 0.950 . S
H985 C1009 0.951 . S
H986 C1011 0.951 . S
H987 C1013 0.950 . S
H988 C1014 0.950 . S
H989 C1016 0.950 . S
H990 C1019 0.950 . S
H991 C1020 0.950 . S
H992 C1022 0.950 . S
H993 C1023 0.950 . S
C994 H976 0.951 . S
C994 C995 1.366 . S
C994 C996 1.388 . S
C995 C994 1.366 . S
C995 C999 1.385 1_455 S
C996 H977 0.951 . S
C996 C994 1.388 . S
C996 C997 1.366 . S
C997 C996 1.366 . S
C997 C998 1.447 . S
C997 C1000 1.499 . S
C998 H978 0.929 1_455 S
C998 C997 1.447 . S
C998 C999 1.363 1_455 S
C999 H979 0.950 . S
C999 C995 1.385 1_655 S
C999 C998 1.363 1_655 S
C1000 C997 1.499 . S
C1000 C1001 1.373 . S
C1000 C1002 1.389 . S
C1001 H980 0.950 1_455 S
C1001 C1000 1.373 . S
C1001 C1017 1.377 . S
C1002 C1000 1.389 . S
C1002 C1003 1.524 . S
C1002 C1016 1.377 . S
C1003 C1002 1.524 . S
C1003 C1004 1.397 . S
C1003 C1008 1.363 . S
C1004 H981 0.950 . S
C1004 C1003 1.397 . S
C1004 C1005 1.334 . S
C1005 H982 0.950 . S
C1005 C1004 1.334 . S
C1005 C1006 1.287 . S
C1006 C1005 1.287 . S
C1006 C1007 1.524 . S
C1006 H1025 0.913 . S
C1007 H983 0.950 . S
C1007 C1006 1.524 . S
C1007 C1008 1.415 . S
C1008 H984 0.950 . S
C1008 C1003 1.363 . S
C1008 C1007 1.415 . S
C1009 H985 0.951 . S
C1009 C1010 1.366 . S
C1009 C1011 1.388 . S
C1010 C1009 1.366 . S
C1010 C1014 1.385 1_556 S
C1011 H986 0.951 . S
C1011 C1009 1.388 . S
C1011 C1012 1.366 . S
C1012 C1011 1.366 . S
C1012 C1013 1.414 . S
C1012 C1015 1.499 . S
C1013 H987 0.950 . S
C1013 C1012 1.414 . S
C1013 C1014 1.374 1_556 S
C1014 H988 0.950 . S
C1014 C1010 1.385 1_554 S
C1014 C1013 1.374 1_554 S
C1015 C1012 1.499 . S
C1015 C1016 1.373 . S
C1015 C1017 1.389 . S
C1016 H989 0.950 . S
C1016 C1002 1.377 . S
C1016 C1015 1.373 . S
C1017 C1001 1.377 . S
C1017 C1015 1.389 . S
C1017 C1018 1.524 1_455 S
C1018 C1017 1.524 1_655 S
C1018 C1019 1.397 1_656 S
C1018 C1023 1.363 . S
C1019 H990 0.950 . S
C1019 C1018 1.397 1_454 S
C1019 C1020 1.334 1_455 S
C1020 H991 0.950 . S
C1020 C1019 1.334 1_655 S
C1020 C1021 1.287 . S
C1021 C1020 1.287 . S
C1021 C1022 1.524 1_554 S
C1021 H1024 0.999 . S
C1022 H992 0.950 . S
C1022 C1021 1.524 1_556 S
C1022 C1023 1.415 . S
C1023 H993 0.950 . S
C1023 C1018 1.363 . S
C1023 C1022 1.415 . S
H1024 C1021 0.999 . S
H1025 C1006 0.913 . S
H1026 C1044 0.951 . S
H1027 C1046 0.951 . S
H1028 C1048 0.950 . S
H1029 C1049 0.950 . S
H1030 C1051 0.950 . S
H1031 C1054 0.950 . S
H1032 C1055 0.950 . S
H1033 C1057 0.950 . S
H1034 C1058 0.950 . S
H1035 C1059 0.951 . S
H1036 C1061 0.951 . S
H1037 C1063 0.950 . S
H1038 C1064 0.950 . S
H1039 C1066 0.950 . S
H1040 C1069 0.950 . S
H1041 C1070 0.950 . S
H1042 C1072 0.950 . S
H1043 C1073 0.950 . S
C1044 H1026 0.951 . S
C1044 C1045 1.366 . S
C1044 C1046 1.388 . S
C1045 C1044 1.366 . S
C1045 C1049 1.385 . S
C1046 H1027 0.951 . S
C1046 C1044 1.388 . S
C1046 C1047 1.366 . S
C1047 C1046 1.366 . S
C1047 C1048 1.414 . S
C1047 C1050 1.499 . S
C1048 H1028 0.950 . S
C1048 C1047 1.414 . S
C1048 C1049 1.374 . S
C1049 H1029 0.950 . S
C1049 C1045 1.385 . S
C1049 C1048 1.374 . S
C1050 C1047 1.499 . S
C1050 C1051 1.373 . S
C1050 C1052 1.389 . S
C1051 H1030 0.950 . S
C1051 C1050 1.373 . S
C1051 C1067 1.377 . S
C1052 C1050 1.389 . S
C1052 C1053 1.524 . S
C1052 C1066 1.377 . S
C1053 C1052 1.524 . S
C1053 C1054 1.397 . S
C1053 C1058 1.363 . S
C1054 H1031 0.950 . S
C1054 C1053 1.397 . S
C1054 C1055 1.334 . S
C1055 H1032 0.950 . S
C1055 C1054 1.334 . S
C1055 C1056 1.287 . S
C1056 C1055 1.287 . S
C1056 C1057 1.524 . S
C1056 H1075 0.913 . S
C1057 H1033 0.950 . S
C1057 C1056 1.524 . S
C1057 C1058 1.415 . S
C1058 H1034 0.950 . S
C1058 C1053 1.363 . S
C1058 C1057 1.415 . S
C1059 H1035 0.951 . S
C1059 C1060 1.366 . S
C1059 C1061 1.388 . S
C1060 C1059 1.366 . S
C1060 C1064 1.385 . S
C1061 H1036 0.951 . S
C1061 C1059 1.388 . S
C1061 C1062 1.366 . S
C1062 C1061 1.366 . S
C1062 C1063 1.414 . S
C1062 C1065 1.499 . S
C1063 H1037 0.950 . S
C1063 C1062 1.414 . S
C1063 C1064 1.374 . S
C1064 H1038 0.950 . S
C1064 C1060 1.385 . S
C1064 C1063 1.374 . S
C1065 C1062 1.499 . S
C1065 C1066 1.373 . S
C1065 C1067 1.389 . S
C1066 H1039 0.950 . S
C1066 C1052 1.377 . S
C1066 C1065 1.373 . S
C1067 C1051 1.377 . S
C1067 C1065 1.389 . S
C1067 C1068 1.524 . S
C1068 C1067 1.524 . S
C1068 C1069 1.397 . S
C1068 C1073 1.363 . S
C1069 H1040 0.950 . S
C1069 C1068 1.397 . S
C1069 C1070 1.334 . S
C1070 H1041 0.950 . S
C1070 C1069 1.334 . S
C1070 C1071 1.287 . S
C1071 C1070 1.287 . S
C1071 C1072 1.524 . S
C1071 H1074 0.999 . S
C1072 H1042 0.950 . S
C1072 C1071 1.524 . S
C1072 C1073 1.415 . S
C1073 H1043 0.950 . S
C1073 C1068 1.363 . S
C1073 C1072 1.415 . S
H1074 C1071 0.999 . S
H1075 C1056 0.913 . S
H1076 C1094 0.951 . S
H1077 C1096 0.951 . S
H1078 C1098 0.950 . S
H1079 C1099 0.950 . S
H1080 C1101 0.950 . S
H1081 C1104 0.950 . S
H1082 C1105 0.950 . S
H1083 C1107 0.950 . S
H1084 C1108 0.950 . S
H1085 C1109 0.951 . S
H1086 C1111 0.951 . S
H1087 C1113 0.950 . S
H1088 C1114 0.950 . S
H1089 C1116 0.950 . S
H1090 C1119 0.950 . S
H1091 C1120 0.950 . S
H1092 C1122 0.950 . S
H1093 C1123 0.950 . S
C1094 H1076 0.951 . S
C1094 C1095 1.366 . S
C1094 C1096 1.388 . S
C1095 C1094 1.366 . S
C1095 C1099 1.385 . S
C1096 H1077 0.951 . S
C1096 C1094 1.388 . S
C1096 C1097 1.366 . S
C1097 C1096 1.366 . S
C1097 C1098 1.414 . S
C1097 C1100 1.499 . S
C1098 H1078 0.950 . S
C1098 C1097 1.414 . S
C1098 C1099 1.374 . S
C1099 H1079 0.950 . S
C1099 C1095 1.385 . S
C1099 C1098 1.374 . S
C1100 C1097 1.499 . S
C1100 C1101 1.373 . S
C1100 C1102 1.389 . S
C1101 H1080 0.950 . S
C1101 C1100 1.373 . S
C1101 C1117 1.377 . S
C1102 C1100 1.389 . S
C1102 C1103 1.524 . S
C1102 C1116 1.377 . S
C1103 C1102 1.524 . S
C1103 C1104 1.397 . S
C1103 C1108 1.363 . S
C1104 H1081 0.950 . S
C1104 C1103 1.397 . S
C1104 C1105 1.334 . S
C1105 H1082 0.950 . S
C1105 C1104 1.334 . S
C1105 C1106 1.287 . S
C1106 C1105 1.287 . S
C1106 C1107 1.524 . S
C1106 H1125 0.913 . S
C1107 H1083 0.950 . S
C1107 C1106 1.524 . S
C1107 C1108 1.415 . S
C1108 H1084 0.950 . S
C1108 C1103 1.363 . S
C1108 C1107 1.415 . S
C1109 H1085 0.951 . S
C1109 C1110 1.366 . S
C1109 C1111 1.388 . S
C1110 C1109 1.366 . S
C1110 C1114 1.385 . S
C1111 H1086 0.951 . S
C1111 C1109 1.388 . S
C1111 C1112 1.366 . S
C1112 C1111 1.366 . S
C1112 C1113 1.414 . S
C1112 C1115 1.499 . S
C1113 H1087 0.950 . S
C1113 C1112 1.414 . S
C1113 C1114 1.374 . S
C1114 H1088 0.950 . S
C1114 C1110 1.385 . S
C1114 C1113 1.374 . S
C1115 C1112 1.499 . S
C1115 C1116 1.373 . S
C1115 C1117 1.389 . S
C1116 H1089 0.950 . S
C1116 C1102 1.377 . S
C1116 C1115 1.373 . S
C1117 C1101 1.377 . S
C1117 C1115 1.389 . S
C1117 C1118 1.524 . S
C1118 C1117 1.524 . S
C1118 C1119 1.397 . S
C1118 C1123 1.363 . S
C1119 H1090 0.950 . S
C1119 C1118 1.397 . S
C1119 C1120 1.334 . S
C1120 H1091 0.950 . S
C1120 C1119 1.334 . S
C1120 C1121 1.287 . S
C1121 C1120 1.287 . S
C1121 C1122 1.524 . S
C1121 H1124 0.999 . S
C1122 H1092 0.950 . S
C1122 C1121 1.524 . S
C1122 C1123 1.415 . S
C1123 H1093 0.950 . S
C1123 C1118 1.363 . S
C1123 C1122 1.415 . S
H1124 C1121 0.999 . S
H1125 C1106 0.913 . S
H1126 C1144 0.951 . S
H1127 C1146 0.951 . S
H1128 C1148 0.950 . S
H1129 C1149 0.950 . S
H1130 C1151 0.950 . S
H1131 C1154 0.950 . S
H1132 C1155 0.950 . S
H1133 C1157 0.950 . S
H1134 C1158 0.950 . S
H1135 C1159 0.951 . S
H1136 C1161 0.951 . S
H1137 C1163 0.950 . S
H1138 C1164 0.950 . S
H1139 C1166 0.950 . S
H1140 C1169 0.950 . S
H1141 C1170 0.950 . S
H1142 C1172 0.950 . S
H1143 C1173 0.950 . S
C1144 H1126 0.951 . S
C1144 C1145 1.366 . S
C1144 C1146 1.388 . S
C1145 C1144 1.366 . S
C1145 C1149 1.385 . S
C1146 H1127 0.951 . S
C1146 C1144 1.388 . S
C1146 C1147 1.366 . S
C1147 C1146 1.366 . S
C1147 C1148 1.414 . S
C1147 C1150 1.499 . S
C1148 H1128 0.950 . S
C1148 C1147 1.414 . S
C1148 C1149 1.374 . S
C1149 H1129 0.950 . S
C1149 C1145 1.385 . S
C1149 C1148 1.374 . S
C1150 C1147 1.499 . S
C1150 C1151 1.373 . S
C1150 C1152 1.389 . S
C1151 H1130 0.950 . S
C1151 C1150 1.373 . S
C1151 C1167 1.377 . S
C1152 C1150 1.389 . S
C1152 C1153 1.524 . S
C1152 C1166 1.377 . S
C1153 C1152 1.524 . S
C1153 C1154 1.397 . S
C1153 C1158 1.363 . S
C1154 H1131 0.950 . S
C1154 C1153 1.397 . S
C1154 C1155 1.334 . S
C1155 H1132 0.950 . S
C1155 C1154 1.334 . S
C1155 C1156 1.287 . S
C1156 C1155 1.287 . S
C1156 C1157 1.524 . S
C1156 H1175 0.913 . S
C1157 H1133 0.950 . S
C1157 C1156 1.524 . S
C1157 C1158 1.415 . S
C1158 H1134 0.950 . S
C1158 C1153 1.363 . S
C1158 C1157 1.415 . S
C1159 H1135 0.951 . S
C1159 C1160 1.366 . S
C1159 C1161 1.388 . S
C1160 C1159 1.366 . S
C1160 C1164 1.385 . S
C1161 H1136 0.951 . S
C1161 C1159 1.388 . S
C1161 C1162 1.366 . S
C1162 C1161 1.366 . S
C1162 C1163 1.414 . S
C1162 C1165 1.499 . S
C1163 H1137 0.950 . S
C1163 C1162 1.414 . S
C1163 C1164 1.374 . S
C1164 H1138 0.950 . S
C1164 C1160 1.385 . S
C1164 C1163 1.374 . S
C1165 C1162 1.499 . S
C1165 C1166 1.373 . S
C1165 C1167 1.389 . S
C1166 H1139 0.950 . S
C1166 C1152 1.377 . S
C1166 C1165 1.373 . S
C1167 C1151 1.377 . S
C1167 C1165 1.389 . S
C1167 C1168 1.524 . S
C1168 C1167 1.524 . S
C1168 C1169 1.397 . S
C1168 C1173 1.363 . S
C1169 H1140 0.950 . S
C1169 C1168 1.397 . S
C1169 C1170 1.334 . S
C1170 H1141 0.950 . S
C1170 C1169 1.334 . S
C1170 C1171 1.287 . S
C1171 C1170 1.287 . S
C1171 C1172 1.524 . S
C1171 H1174 0.999 . S
C1172 H1142 0.950 . S
C1172 C1171 1.524 . S
C1172 C1173 1.415 . S
C1173 H1143 0.950 . S
C1173 C1168 1.363 . S
C1173 C1172 1.415 . S
H1174 C1171 0.999 . S
H1175 C1156 0.913 . S
H1176 C1194 0.951 . S
H1177 C1196 0.951 . S
H1178 C1198 0.939 1_655 S
H1179 C1199 0.950 . S
H1180 C1201 0.950 . S
H1181 C1204 0.950 . S
H1182 C1205 0.950 . S
H1183 C1207 0.950 . S
H1184 C1208 0.950 . S
H1185 C1209 0.951 . S
H1186 C1211 0.951 . S
H1187 C1213 0.950 . S
H1188 C1214 0.950 . S
H1189 C1216 0.950 . S
H1190 C1219 0.950 . S
H1191 C1220 0.950 . S
H1192 C1222 0.950 . S
H1193 C1223 0.950 . S
C1194 H1176 0.951 . S
C1194 C1195 1.366 . S
C1194 C1196 1.388 . S
C1195 C1194 1.366 . S
C1195 C1199 1.385 1_455 S
C1196 H1177 0.951 . S
C1196 C1194 1.388 . S
C1196 C1197 1.366 . S
C1197 C1196 1.366 . S
C1197 C1198 1.427 . S
C1197 C1200 1.499 . S
C1198 H1178 0.939 1_455 S
C1198 C1197 1.427 . S
C1198 C1199 1.371 1_455 S
C1199 H1179 0.950 . S
C1199 C1195 1.385 1_655 S
C1199 C1198 1.371 1_655 S
C1200 C1197 1.499 . S
C1200 C1201 1.373 . S
C1200 C1202 1.389 . S
C1201 H1180 0.950 . S
C1201 C1200 1.373 . S
C1201 C1217 1.377 . S
C1202 C1200 1.389 . S
C1202 C1203 1.524 . S
C1202 C1216 1.377 . S
C1203 C1202 1.524 . S
C1203 C1204 1.397 . S
C1203 C1208 1.363 . S
C1204 H1181 0.950 . S
C1204 C1203 1.397 . S
C1204 C1205 1.334 . S
C1205 H1182 0.950 . S
C1205 C1204 1.334 . S
C1205 C1206 1.287 . S
C1206 C1205 1.287 . S
C1206 C1207 1.524 . S
C1206 H1225 0.913 . S
C1207 H1183 0.950 . S
C1207 C1206 1.524 . S
C1207 C1208 1.415 . S
C1208 H1184 0.950 . S
C1208 C1203 1.363 . S
C1208 C1207 1.415 . S
C1209 H1185 0.951 . S
C1209 C1210 1.366 . S
C1209 C1211 1.388 . S
C1210 C1209 1.366 . S
C1210 C1214 1.385 . S
C1211 H1186 0.951 . S
C1211 C1209 1.388 . S
C1211 C1212 1.366 . S
C1212 C1211 1.366 . S
C1212 C1213 1.414 . S
C1212 C1215 1.499 . S
C1213 H1187 0.950 . S
C1213 C1212 1.414 . S
C1213 C1214 1.374 . S
C1214 H1188 0.950 . S
C1214 C1210 1.385 . S
C1214 C1213 1.374 . S
C1215 C1212 1.499 . S
C1215 C1216 1.373 . S
C1215 C1217 1.389 . S
C1216 H1189 0.950 . S
C1216 C1202 1.377 . S
C1216 C1215 1.373 . S
C1217 C1201 1.377 . S
C1217 C1215 1.389 . S
C1217 C1218 1.524 . S
C1218 C1217 1.524 . S
C1218 C1219 1.397 . S
C1218 C1223 1.363 1_455 S
C1219 H1190 0.950 . S
C1219 C1218 1.397 . S
C1219 C1220 1.334 . S
C1220 H1191 0.950 . S
C1220 C1219 1.334 . S
C1220 C1221 1.287 . S
C1221 C1220 1.287 . S
C1221 C1222 1.524 1_455 S
C1221 H1224 0.999 1_455 S
C1222 H1192 0.950 . S
C1222 C1221 1.524 1_655 S
C1222 C1223 1.415 . S
C1223 H1193 0.950 . S
C1223 C1218 1.363 1_655 S
C1223 C1222 1.415 . S
H1224 C1221 0.999 1_655 S
H1225 C1206 0.913 . S
H1226 C1244 0.951 . S
H1227 C1246 0.951 . S
H1228 C1248 0.950 . S
H1229 C1249 0.950 . S
H1230 C1251 0.950 . S
H1231 C1254 0.950 . S
H1232 C1255 0.950 . S
H1233 C1257 0.950 . S
H1234 C1258 0.950 . S
H1235 C1259 0.951 . S
H1236 C1261 0.951 . S
H1237 C1263 0.950 . S
H1238 C1264 0.950 . S
H1239 C1266 0.950 . S
H1240 C1269 0.950 . S
H1241 C1270 0.950 . S
H1242 C1272 0.950 . S
H1243 C1273 0.950 . S
C1244 H1226 0.951 . S
C1244 C1245 1.366 . S
C1244 C1246 1.388 . S
C1245 C1244 1.366 . S
C1245 C1249 1.385 . S
C1246 H1227 0.951 . S
C1246 C1244 1.388 . S
C1246 C1247 1.366 . S
C1247 C1246 1.366 . S
C1247 C1248 1.414 . S
C1247 C1250 1.499 . S
C1248 H1228 0.950 . S
C1248 C1247 1.414 . S
C1248 C1249 1.374 . S
C1249 H1229 0.950 . S
C1249 C1245 1.385 . S
C1249 C1248 1.374 . S
C1250 C1247 1.499 . S
C1250 C1251 1.373 . S
C1250 C1252 1.389 . S
C1251 H1230 0.950 . S
C1251 C1250 1.373 . S
C1251 C1267 1.377 . S
C1252 C1250 1.389 . S
C1252 C1253 1.524 . S
C1252 C1266 1.377 . S
C1253 C1252 1.524 . S
C1253 C1254 1.397 . S
C1253 C1258 1.363 . S
C1254 H1231 0.950 . S
C1254 C1253 1.397 . S
C1254 C1255 1.334 . S
C1255 H1232 0.950 . S
C1255 C1254 1.334 . S
C1255 C1256 1.287 . S
C1256 C1255 1.287 . S
C1256 C1257 1.524 . S
C1256 H1275 0.913 . S
C1257 H1233 0.950 . S
C1257 C1256 1.524 . S
C1257 C1258 1.415 . S
C1258 H1234 0.950 . S
C1258 C1253 1.363 . S
C1258 C1257 1.415 . S
C1259 H1235 0.951 . S
C1259 C1260 1.366 . S
C1259 C1261 1.388 . S
C1260 C1259 1.366 . S
C1260 C1264 1.385 . S
C1261 H1236 0.951 . S
C1261 C1259 1.388 . S
C1261 C1262 1.366 . S
C1262 C1261 1.366 . S
C1262 C1263 1.414 . S
C1262 C1265 1.499 . S
C1263 H1237 0.950 . S
C1263 C1262 1.414 . S
C1263 C1264 1.374 . S
C1264 H1238 0.950 . S
C1264 C1260 1.385 . S
C1264 C1263 1.374 . S
C1265 C1262 1.499 . S
C1265 C1266 1.373 . S
C1265 C1267 1.389 . S
C1266 H1239 0.950 . S
C1266 C1252 1.377 . S
C1266 C1265 1.373 . S
C1267 C1251 1.377 . S
C1267 C1265 1.389 . S
C1267 C1268 1.524 . S
C1268 C1267 1.524 . S
C1268 C1269 1.397 . S
C1268 C1273 1.363 . S
C1269 H1240 0.950 . S
C1269 C1268 1.397 . S
C1269 C1270 1.334 . S
C1270 H1241 0.950 . S
C1270 C1269 1.334 . S
C1270 C1271 1.287 . S
C1271 C1270 1.287 . S
C1271 C1272 1.524 . S
C1271 H1274 0.999 . S
C1272 H1242 0.950 . S
C1272 C1271 1.524 . S
C1272 C1273 1.415 . S
C1273 H1243 0.950 . S
C1273 C1268 1.363 . S
C1273 C1272 1.415 . S
H1274 C1271 0.999 . S
H1275 C1256 0.913 . S
H1276 C1294 0.951 . S
H1277 C1296 0.951 . S
H1278 C1298 0.950 . S
H1279 C1299 0.950 . S
H1280 C1301 0.950 . S
H1281 C1304 0.950 . S
H1282 C1305 0.950 . S
H1283 C1307 0.950 . S
H1284 C1308 0.950 . S
H1285 C1309 0.951 . S
H1286 C1311 0.951 . S
H1287 C1313 0.950 . S
H1288 C1314 0.950 . S
H1289 C1316 0.950 . S
H1290 C1319 0.950 . S
H1291 C1320 0.954 . S
H1292 C1322 0.950 . S
H1293 C1323 0.950 . S
C1294 H1276 0.951 . S
C1294 C1295 1.366 . S
C1294 C1296 1.388 . S
C1295 C1294 1.366 . S
C1295 C1299 1.385 . S
C1296 H1277 0.951 . S
C1296 C1294 1.388 . S
C1296 C1297 1.366 . S
C1297 C1296 1.366 . S
C1297 C1298 1.414 . S
C1297 C1300 1.499 . S
C1298 H1278 0.950 . S
C1298 C1297 1.414 . S
C1298 C1299 1.374 . S
C1299 H1279 0.950 . S
C1299 C1295 1.385 . S
C1299 C1298 1.374 . S
C1300 C1297 1.499 . S
C1300 C1301 1.373 . S
C1300 C1302 1.389 . S
C1301 H1280 0.950 . S
C1301 C1300 1.373 . S
C1301 C1317 1.377 . S
C1302 C1300 1.389 . S
C1302 C1303 1.524 . S
C1302 C1316 1.377 . S
C1303 C1302 1.524 . S
C1303 C1304 1.397 . S
C1303 C1308 1.363 . S
C1304 H1281 0.950 . S
C1304 C1303 1.397 . S
C1304 C1305 1.334 . S
C1305 H1282 0.950 . S
C1305 C1304 1.334 . S
C1305 C1306 1.287 . S
C1306 C1305 1.287 . S
C1306 C1307 1.524 . S
C1306 H1325 0.913 . S
C1307 H1283 0.950 . S
C1307 C1306 1.524 . S
C1307 C1308 1.415 . S
C1308 H1284 0.950 . S
C1308 C1303 1.363 . S
C1308 C1307 1.415 . S
C1309 H1285 0.951 . S
C1309 C1310 1.366 . S
C1309 C1311 1.388 . S
C1310 C1309 1.366 . S
C1310 C1314 1.385 . S
C1311 H1286 0.951 . S
C1311 C1309 1.388 . S
C1311 C1312 1.366 . S
C1312 C1311 1.366 . S
C1312 C1313 1.414 . S
C1312 C1315 1.499 . S
C1313 H1287 0.950 . S
C1313 C1312 1.414 . S
C1313 C1314 1.374 . S
C1314 H1288 0.950 . S
C1314 C1310 1.385 . S
C1314 C1313 1.374 . S
C1315 C1312 1.499 . S
C1315 C1316 1.373 . S
C1315 C1317 1.389 . S
C1316 H1289 0.950 . S
C1316 C1302 1.377 . S
C1316 C1315 1.373 . S
C1317 C1301 1.377 . S
C1317 C1315 1.389 . S
C1317 C1318 1.524 . S
C1318 C1317 1.524 . S
C1318 C1319 1.397 . S
C1318 C1323 1.363 . S
C1319 H1290 0.950 . S
C1319 C1318 1.397 . S
C1319 C1320 1.334 . S
C1320 H1291 0.954 . S
C1320 C1319 1.334 . S
C1320 C1321 1.285 1_554 S
C1321 C1320 1.285 1_556 S
C1321 C1322 1.523 1_556 S
C1321 H1324 1.002 . S
C1322 H1292 0.950 . S
C1322 C1321 1.523 1_554 S
C1322 C1323 1.415 . S
C1323 H1293 0.950 . S
C1323 C1318 1.363 . S
C1323 C1322 1.415 . S
H1324 C1321 1.002 . S
H1325 C1306 0.913 . S
H1326 C1344 0.951 . S
H1327 C1346 0.951 . S
H1328 C1348 0.950 . S
H1329 C1349 0.950 . S
H1330 C1351 0.950 . S
H1331 C1354 0.950 . S
H1332 C1355 0.950 . S
H1333 C1357 0.950 . S
H1334 C1358 0.950 . S
H1335 C1359 0.951 . S
H1336 C1361 0.951 . S
H1337 C1363 0.950 . S
H1338 C1364 0.950 . S
H1339 C1366 0.950 . S
H1340 C1369 0.950 . S
H1341 C1370 0.950 . S
H1342 C1372 0.950 . S
H1343 C1373 0.950 . S
C1344 H1326 0.951 . S
C1344 C1345 1.366 . S
C1344 C1346 1.388 . S
C1345 C1344 1.366 . S
C1345 C1349 1.385 . S
C1346 H1327 0.951 . S
C1346 C1344 1.388 . S
C1346 C1347 1.366 . S
C1347 C1346 1.366 . S
C1347 C1348 1.414 . S
C1347 C1350 1.499 . S
C1348 H1328 0.950 . S
C1348 C1347 1.414 . S
C1348 C1349 1.374 . S
C1349 H1329 0.950 . S
C1349 C1345 1.385 . S
C1349 C1348 1.374 . S
C1350 C1347 1.499 . S
C1350 C1351 1.373 . S
C1350 C1352 1.389 . S
C1351 H1330 0.950 . S
C1351 C1350 1.373 . S
C1351 C1367 1.377 . S
C1352 C1350 1.389 . S
C1352 C1353 1.524 . S
C1352 C1366 1.377 . S
C1353 C1352 1.524 . S
C1353 C1354 1.397 . S
C1353 C1358 1.363 . S
C1354 H1331 0.950 . S
C1354 C1353 1.397 . S
C1354 C1355 1.334 . S
C1355 H1332 0.950 . S
C1355 C1354 1.334 . S
C1355 C1356 1.287 . S
C1356 C1355 1.287 . S
C1356 C1357 1.524 . S
C1356 H1375 0.913 . S
C1357 H1333 0.950 . S
C1357 C1356 1.524 . S
C1357 C1358 1.415 . S
C1358 H1334 0.950 . S
C1358 C1353 1.363 . S
C1358 C1357 1.415 . S
C1359 H1335 0.951 . S
C1359 C1360 1.366 . S
C1359 C1361 1.388 . S
C1360 C1359 1.366 . S
C1360 C1364 1.385 . S
C1361 H1336 0.951 . S
C1361 C1359 1.388 . S
C1361 C1362 1.366 . S
C1362 C1361 1.366 . S
C1362 C1363 1.414 . S
C1362 C1365 1.499 . S
C1363 H1337 0.950 . S
C1363 C1362 1.414 . S
C1363 C1364 1.374 . S
C1364 H1338 0.950 . S
C1364 C1360 1.385 . S
C1364 C1363 1.374 . S
C1365 C1362 1.499 . S
C1365 C1366 1.373 . S
C1365 C1367 1.389 . S
C1366 H1339 0.950 . S
C1366 C1352 1.377 . S
C1366 C1365 1.373 . S
C1367 C1351 1.377 . S
C1367 C1365 1.389 . S
C1367 C1368 1.524 . S
C1368 C1367 1.524 . S
C1368 C1369 1.397 . S
C1368 C1373 1.363 . S
C1369 H1340 0.950 . S
C1369 C1368 1.397 . S
C1369 C1370 1.334 . S
C1370 H1341 0.950 . S
C1370 C1369 1.334 . S
C1370 C1371 1.287 . S
C1371 C1370 1.287 . S
C1371 C1372 1.524 . S
C1371 H1374 0.999 . S
C1372 H1342 0.950 . S
C1372 C1371 1.524 . S
C1372 C1373 1.415 . S
C1373 H1343 0.950 . S
C1373 C1368 1.363 . S
C1373 C1372 1.415 . S
H1374 C1371 0.999 . S
H1375 C1356 0.913 . S
H1376 C1394 0.951 . S
H1377 C1396 0.951 . S
H1378 C1398 0.950 . S
H1379 C1399 0.950 . S
H1380 C1401 0.950 . S
H1381 C1404 0.950 . S
H1382 C1405 0.950 . S
H1383 C1407 0.950 1_565 S
H1384 C1408 0.950 1_655 S
H1385 C1409 0.951 . S
H1386 C1411 0.951 . S
H1387 C1413 0.952 . S
H1388 C1414 0.950 . S
H1389 C1416 0.944 1_455 S
H1390 C1419 0.950 . S
H1391 C1420 0.950 . S
H1392 C1422 0.950 . S
H1393 C1423 0.950 . S
C1394 H1376 0.951 . S
C1394 C1395 1.366 . S
C1394 C1396 1.388 . S
C1395 C1394 1.366 . S
C1395 C1399 1.385 . S
C1396 H1377 0.951 . S
C1396 C1394 1.388 . S
C1396 C1397 1.366 . S
C1397 C1396 1.366 . S
C1397 C1398 1.414 . S
C1397 C1400 1.499 . S
C1398 H1378 0.950 . S
C1398 C1397 1.414 . S
C1398 C1399 1.374 . S
C1399 H1379 0.950 . S
C1399 C1395 1.385 . S
C1399 C1398 1.374 . S
C1400 C1397 1.499 . S
C1400 C1401 1.373 . S
C1400 C1402 1.389 . S
C1401 H1380 0.950 . S
C1401 C1400 1.373 . S
C1401 C1417 1.377 . S
C1402 C1400 1.389 . S
C1402 C1403 1.524 1_655 S
C1402 C1416 1.380 . S
C1403 C1402 1.524 1_455 S
C1403 C1404 1.397 . S
C1403 C1408 1.363 . S
C1404 H1381 0.950 . S
C1404 C1403 1.397 . S
C1404 C1405 1.334 . S
C1405 H1382 0.950 . S
C1405 C1404 1.334 . S
C1405 C1406 1.287 . S
C1406 C1405 1.287 . S
C1406 C1407 1.524 . S
C1406 H1425 0.913 . S
C1407 H1383 0.950 1_545 S
C1407 C1406 1.524 . S
C1407 C1408 1.415 . S
C1408 H1384 0.950 1_455 S
C1408 C1403 1.363 . S
C1408 C1407 1.415 . S
C1409 H1385 0.951 . S
C1409 C1410 1.366 . S
C1409 C1411 1.388 . S
C1410 C1409 1.366 . S
C1410 C1414 1.385 . S
C1411 H1386 0.951 . S
C1411 C1409 1.388 . S
C1411 C1412 1.366 . S
C1412 C1411 1.366 . S
C1412 C1413 1.414 . S
C1412 C1415 1.499 1_455 S
C1413 H1387 0.952 . S
C1413 C1412 1.414 . S
C1413 C1414 1.374 . S
C1414 H1388 0.950 . S
C1414 C1410 1.385 . S
C1414 C1413 1.374 . S
C1415 C1412 1.499 1_655 S
C1415 C1416 1.376 . S
C1415 C1417 1.389 . S
C1416 H1389 0.944 1_655 S
C1416 C1402 1.380 . S
C1416 C1415 1.376 . S
C1417 C1401 1.377 . S
C1417 C1415 1.389 . S
C1417 C1418 1.524 . S
C1418 C1417 1.524 . S
C1418 C1419 1.397 . S
C1418 C1423 1.363 . S
C1419 H1390 0.950 . S
C1419 C1418 1.397 . S
C1419 C1420 1.334 . S
C1420 H1391 0.950 . S
C1420 C1419 1.334 . S
C1420 C1421 1.287 . S
C1421 C1420 1.287 . S
C1421 C1422 1.524 . S
C1421 H1424 0.999 . S
C1422 H1392 0.950 . S
C1422 C1421 1.524 . S
C1422 C1423 1.415 . S
C1423 H1393 0.950 . S
C1423 C1418 1.363 . S
C1423 C1422 1.415 . S
H1424 C1421 0.999 . S
H1425 C1406 0.913 . S
H1426 C1444 0.951 . S
H1427 C1446 0.951 . S
H1428 C1448 0.950 . S
H1429 C1449 0.950 . S
H1430 C1451 0.950 . S
H1431 C1454 0.950 . S
H1432 C1455 0.950 . S
H1433 C1457 0.950 . S
H1434 C1458 0.950 . S
H1435 C1459 0.951 . S
H1436 C1461 0.951 . S
H1437 C1463 0.950 . S
H1438 C1464 0.950 . S
H1439 C1466 0.950 . S
H1440 C1469 0.950 . S
H1441 C1470 0.950 . S
H1442 C1472 0.950 . S
H1443 C1473 0.950 . S
C1444 H1426 0.951 . S
C1444 C1445 1.366 . S
C1444 C1446 1.388 . S
C1445 C1444 1.366 . S
C1445 C1449 1.385 . S
C1446 H1427 0.951 . S
C1446 C1444 1.388 . S
C1446 C1447 1.366 . S
C1447 C1446 1.366 . S
C1447 C1448 1.414 . S
C1447 C1450 1.499 . S
C1448 H1428 0.950 . S
C1448 C1447 1.414 . S
C1448 C1449 1.374 . S
C1449 H1429 0.950 . S
C1449 C1445 1.385 . S
C1449 C1448 1.374 . S
C1450 C1447 1.499 . S
C1450 C1451 1.373 . S
C1450 C1452 1.389 . S
C1451 H1430 0.950 . S
C1451 C1450 1.373 . S
C1451 C1467 1.377 . S
C1452 C1450 1.389 . S
C1452 C1453 1.524 . S
C1452 C1466 1.377 . S
C1453 C1452 1.524 . S
C1453 C1454 1.397 . S
C1453 C1458 1.363 . S
C1454 H1431 0.950 . S
C1454 C1453 1.397 . S
C1454 C1455 1.334 . S
C1455 H1432 0.950 . S
C1455 C1454 1.334 . S
C1455 C1456 1.287 . S
C1456 C1455 1.287 . S
C1456 C1457 1.524 . S
C1456 H1475 0.913 . S
C1457 H1433 0.950 . S
C1457 C1456 1.524 . S
C1457 C1458 1.415 . S
C1458 H1434 0.950 . S
C1458 C1453 1.363 . S
C1458 C1457 1.415 . S
C1459 H1435 0.951 . S
C1459 C1460 1.366 . S
C1459 C1461 1.388 . S
C1460 C1459 1.366 . S
C1460 C1464 1.385 . S
C1461 H1436 0.951 . S
C1461 C1459 1.388 . S
C1461 C1462 1.366 . S
C1462 C1461 1.366 . S
C1462 C1463 1.414 . S
C1462 C1465 1.499 . S
C1463 H1437 0.950 . S
C1463 C1462 1.414 . S
C1463 C1464 1.374 . S
C1464 H1438 0.950 . S
C1464 C1460 1.385 . S
C1464 C1463 1.374 . S
C1465 C1462 1.499 . S
C1465 C1466 1.373 . S
C1465 C1467 1.389 . S
C1466 H1439 0.950 . S
C1466 C1452 1.377 . S
C1466 C1465 1.373 . S
C1467 C1451 1.377 . S
C1467 C1465 1.389 . S
C1467 C1468 1.524 . S
C1468 C1467 1.524 . S
C1468 C1469 1.397 . S
C1468 C1473 1.363 . S
C1469 H1440 0.950 . S
C1469 C1468 1.397 . S
C1469 C1470 1.334 . S
C1470 H1441 0.950 . S
C1470 C1469 1.334 . S
C1470 C1471 1.287 . S
C1471 C1470 1.287 . S
C1471 C1472 1.524 . S
C1471 H1474 0.999 . S
C1472 H1442 0.950 . S
C1472 C1471 1.524 . S
C1472 C1473 1.415 . S
C1473 H1443 0.950 . S
C1473 C1468 1.363 . S
C1473 C1472 1.415 . S
H1474 C1471 0.999 . S
H1475 C1456 0.913 . S
H1476 C1494 0.951 . S
H1477 C1496 0.951 . S
H1478 C1498 0.950 . S
H1479 C1499 0.950 . S
H1480 C1501 0.950 . S
H1481 C1504 0.950 . S
H1482 C1505 0.950 . S
H1483 C1507 0.950 . S
H1484 C1508 0.950 . S
H1485 C1509 0.951 . S
H1486 C1511 0.951 . S
H1487 C1513 0.950 . S
H1488 C1514 0.950 . S
H1489 C1516 0.950 . S
H1490 C1519 0.950 . S
H1491 C1520 0.950 . S
H1492 C1522 0.950 . S
H1493 C1523 0.950 . S
C1494 H1476 0.951 . S
C1494 C1495 1.366 . S
C1494 C1496 1.388 . S
C1495 C1494 1.366 . S
C1495 C1499 1.385 . S
C1496 H1477 0.951 . S
C1496 C1494 1.388 . S
C1496 C1497 1.366 . S
C1497 C1496 1.366 . S
C1497 C1498 1.414 . S
C1497 C1500 1.499 . S
C1498 H1478 0.950 . S
C1498 C1497 1.414 . S
C1498 C1499 1.374 . S
C1499 H1479 0.950 . S
C1499 C1495 1.385 . S
C1499 C1498 1.374 . S
C1500 C1497 1.499 . S
C1500 C1501 1.373 . S
C1500 C1502 1.389 . S
C1501 H1480 0.950 . S
C1501 C1500 1.373 . S
C1501 C1517 1.377 . S
C1502 C1500 1.389 . S
C1502 C1503 1.524 . S
C1502 C1516 1.377 . S
C1503 C1502 1.524 . S
C1503 C1504 1.397 . S
C1503 C1508 1.363 . S
C1504 H1481 0.950 . S
C1504 C1503 1.397 . S
C1504 C1505 1.334 . S
C1505 H1482 0.950 . S
C1505 C1504 1.334 . S
C1505 C1506 1.287 . S
C1506 C1505 1.287 . S
C1506 C1507 1.524 . S
C1506 H1525 0.913 . S
C1507 H1483 0.950 . S
C1507 C1506 1.524 . S
C1507 C1508 1.415 . S
C1508 H1484 0.950 . S
C1508 C1503 1.363 . S
C1508 C1507 1.415 . S
C1509 H1485 0.951 . S
C1509 C1510 1.366 . S
C1509 C1511 1.388 . S
C1510 C1509 1.366 . S
C1510 C1514 1.385 . S
C1511 H1486 0.951 . S
C1511 C1509 1.388 . S
C1511 C1512 1.366 . S
C1512 C1511 1.366 . S
C1512 C1513 1.414 . S
C1512 C1515 1.499 . S
C1513 H1487 0.950 . S
C1513 C1512 1.414 . S
C1513 C1514 1.374 . S
C1514 H1488 0.950 . S
C1514 C1510 1.385 . S
C1514 C1513 1.374 . S
C1515 C1512 1.499 . S
C1515 C1516 1.373 . S
C1515 C1517 1.389 . S
C1516 H1489 0.950 . S
C1516 C1502 1.377 . S
C1516 C1515 1.373 . S
C1517 C1501 1.377 . S
C1517 C1515 1.389 . S
C1517 C1518 1.524 . S
C1518 C1517 1.524 . S
C1518 C1519 1.397 1_545 S
C1518 C1523 1.363 . S
C1519 H1490 0.950 . S
C1519 C1518 1.397 1_565 S
C1519 C1520 1.334 . S
C1520 H1491 0.950 . S
C1520 C1519 1.334 . S
C1520 C1521 1.287 . S
C1521 C1520 1.287 . S
C1521 C1522 1.524 . S
C1521 H1524 0.999 . S
C1522 H1492 0.950 . S
C1522 C1521 1.524 . S
C1522 C1523 1.415 1_565 S
C1523 H1493 0.950 . S
C1523 C1518 1.363 . S
C1523 C1522 1.415 1_545 S
H1524 C1521 0.999 . S
H1525 C1506 0.913 . S
H1526 C1544 0.951 . S
H1527 C1546 0.951 . S
H1528 C1548 0.950 . S
H1529 C1549 0.950 . S
H1530 C1551 0.950 . S
H1531 C1554 0.950 . S
H1532 C1555 0.950 . S
H1533 C1557 0.950 . S
H1534 C1558 0.950 . S
H1535 C1559 0.951 . S
H1536 C1561 0.951 . S
H1537 C1563 0.950 . S
H1538 C1564 0.950 . S
H1539 C1566 0.950 . S
H1540 C1569 0.950 . S
H1541 C1570 0.950 . S
H1542 C1572 0.950 . S
H1543 C1573 0.950 . S
C1544 H1526 0.951 . S
C1544 C1545 1.366 . S
C1544 C1546 1.388 . S
C1545 C1544 1.366 . S
C1545 C1549 1.385 . S
C1546 H1527 0.951 . S
C1546 C1544 1.388 . S
C1546 C1547 1.366 . S
C1547 C1546 1.366 . S
C1547 C1548 1.414 . S
C1547 C1550 1.499 . S
C1548 H1528 0.950 . S
C1548 C1547 1.414 . S
C1548 C1549 1.374 . S
C1549 H1529 0.950 . S
C1549 C1545 1.385 . S
C1549 C1548 1.374 . S
C1550 C1547 1.499 . S
C1550 C1551 1.373 . S
C1550 C1552 1.389 . S
C1551 H1530 0.950 . S
C1551 C1550 1.373 . S
C1551 C1567 1.377 . S
C1552 C1550 1.389 . S
C1552 C1553 1.524 . S
C1552 C1566 1.377 . S
C1553 C1552 1.524 . S
C1553 C1554 1.397 . S
C1553 C1558 1.363 . S
C1554 H1531 0.950 . S
C1554 C1553 1.397 . S
C1554 C1555 1.334 . S
C1555 H1532 0.950 . S
C1555 C1554 1.334 . S
C1555 C1556 1.287 . S
C1556 C1555 1.287 . S
C1556 C1557 1.524 . S
C1556 H1575 0.913 . S
C1557 H1533 0.950 . S
C1557 C1556 1.524 . S
C1557 C1558 1.415 . S
C1558 H1534 0.950 . S
C1558 C1553 1.363 . S
C1558 C1557 1.415 . S
C1559 H1535 0.951 . S
C1559 C1560 1.366 . S
C1559 C1561 1.388 . S
C1560 C1559 1.366 . S
C1560 C1564 1.385 . S
C1561 H1536 0.951 . S
C1561 C1559 1.388 . S
C1561 C1562 1.366 . S
C1562 C1561 1.366 . S
C1562 C1563 1.414 . S
C1562 C1565 1.499 . S
C1563 H1537 0.950 . S
C1563 C1562 1.414 . S
C1563 C1564 1.374 . S
C1564 H1538 0.950 . S
C1564 C1560 1.385 . S
C1564 C1563 1.374 . S
C1565 C1562 1.499 . S
C1565 C1566 1.373 . S
C1565 C1567 1.389 . S
C1566 H1539 0.950 . S
C1566 C1552 1.377 . S
C1566 C1565 1.373 . S
C1567 C1551 1.377 . S
C1567 C1565 1.389 . S
C1567 C1568 1.524 . S
C1568 C1567 1.524 . S
C1568 C1569 1.397 . S
C1568 C1573 1.363 . S
C1569 H1540 0.950 . S
C1569 C1568 1.397 . S
C1569 C1570 1.334 . S
C1570 H1541 0.950 . S
C1570 C1569 1.334 . S
C1570 C1571 1.287 . S
C1571 C1570 1.287 . S
C1571 C1572 1.524 . S
C1571 H1574 0.999 . S
C1572 H1542 0.950 . S
C1572 C1571 1.524 . S
C1572 C1573 1.415 . S
C1573 H1543 0.950 . S
C1573 C1568 1.363 . S
C1573 C1572 1.415 . S
H1574 C1571 0.999 . S
H1575 C1556 0.913 . S
H1576 C1594 0.951 . S
H1577 C1596 0.951 . S
H1578 C1598 0.950 . S
H1579 C1599 0.950 . S
H1580 C1601 0.950 . S
H1581 C1604 0.950 . S
H1582 C1605 0.950 . S
H1583 C1607 0.950 . S
H1584 C1608 0.950 . S
H1585 C1609 0.951 1_655 S
H1586 C1611 0.951 . S
H1587 C1613 0.950 . S
H1588 C1614 0.950 . S
H1589 C1616 0.950 . S
H1590 C1619 0.962 . S
H1591 C1620 0.950 . S
H1592 C1622 0.950 . S
H1593 C1623 0.950 . S
C1594 H1576 0.951 . S
C1594 C1595 1.366 . S
C1594 C1596 1.388 . S
C1595 C1594 1.366 . S
C1595 C1599 1.385 . S
C1596 H1577 0.951 . S
C1596 C1594 1.388 . S
C1596 C1597 1.366 . S
C1597 C1596 1.366 . S
C1597 C1598 1.414 . S
C1597 C1600 1.499 . S
C1598 H1578 0.950 . S
C1598 C1597 1.414 . S
C1598 C1599 1.374 . S
C1599 H1579 0.950 . S
C1599 C1595 1.385 . S
C1599 C1598 1.374 . S
C1600 C1597 1.499 . S
C1600 C1601 1.373 . S
C1600 C1602 1.389 . S
C1601 H1580 0.950 . S
C1601 C1600 1.373 . S
C1601 C1617 1.377 . S
C1602 C1600 1.389 . S
C1602 C1603 1.524 1_655 S
C1602 C1616 1.377 1_655 S
C1603 C1602 1.524 1_455 S
C1603 C1604 1.397 1_455 S
C1603 C1608 1.363 . S
C1604 H1581 0.950 . S
C1604 C1603 1.397 1_655 S
C1604 C1605 1.334 . S
C1605 H1582 0.950 . S
C1605 C1604 1.334 . S
C1605 C1606 1.287 1_655 S
C1606 C1605 1.287 1_455 S
C1606 C1607 1.524 . S
C1606 H1625 0.913 . S
C1607 H1583 0.950 . S
C1607 C1606 1.524 . S
C1607 C1608 1.415 . S
C1608 H1584 0.950 . S
C1608 C1603 1.363 . S
C1608 C1607 1.415 . S
C1609 H1585 0.951 1_455 S
C1609 C1610 1.366 . S
C1609 C1611 1.388 1_455 S
C1610 C1609 1.366 . S
C1610 C1614 1.385 . S
C1611 H1586 0.951 . S
C1611 C1609 1.388 1_655 S
C1611 C1612 1.366 1_655 S
C1612 C1611 1.366 1_455 S
C1612 C1613 1.414 . S
C1612 C1615 1.499 1_455 S
C1613 H1587 0.950 . S
C1613 C1612 1.414 . S
C1613 C1614 1.374 . S
C1614 H1588 0.950 . S
C1614 C1610 1.385 . S
C1614 C1613 1.374 . S
C1615 C1612 1.499 1_655 S
C1615 C1616 1.373 1_655 S
C1615 C1617 1.389 . S
C1616 H1589 0.950 . S
C1616 C1602 1.377 1_455 S
C1616 C1615 1.373 1_455 S
C1617 C1601 1.377 . S
C1617 C1615 1.389 . S
C1617 C1618 1.524 . S
C1618 C1617 1.524 . S
C1618 C1619 1.397 . S
C1618 C1623 1.363 . S
C1619 H1590 0.962 . S
C1619 C1618 1.397 . S
C1619 C1620 1.334 . S
C1620 H1591 0.950 . S
C1620 C1619 1.334 . S
C1620 C1621 1.287 . S
C1621 C1620 1.287 . S
C1621 C1622 1.524 . S
C1621 H1624 0.999 . S
C1622 H1592 0.950 . S
C1622 C1621 1.524 . S
C1622 C1623 1.415 . S
C1623 H1593 0.950 . S
C1623 C1618 1.363 . S
C1623 C1622 1.415 . S
H1624 C1621 0.999 . S
H1625 C1606 0.913 . S
H1626 C1644 0.951 . S
H1627 C1646 0.951 . S
H1628 C1648 0.950 . S
H1629 C1649 0.950 . S
H1630 C1651 0.950 . S
H1631 C1654 0.950 . S
H1632 C1655 0.950 . S
H1633 C1657 0.950 . S
H1634 C1658 0.950 . S
H1635 C1659 0.951 . S
H1636 C1661 0.951 . S
H1637 C1663 0.950 . S
H1638 C1664 0.950 . S
H1639 C1666 0.950 . S
H1640 C1669 0.950 . S
H1641 C1670 0.950 . S
H1642 C1672 0.950 . S
H1643 C1673 0.950 . S
C1644 H1626 0.951 . S
C1644 C1645 1.366 . S
C1644 C1646 1.388 . S
C1645 C1644 1.366 . S
C1645 C1649 1.385 . S
C1646 H1627 0.951 . S
C1646 C1644 1.388 . S
C1646 C1647 1.366 . S
C1647 C1646 1.366 . S
C1647 C1648 1.414 . S
C1647 C1650 1.499 . S
C1648 H1628 0.950 . S
C1648 C1647 1.414 . S
C1648 C1649 1.374 . S
C1649 H1629 0.950 . S
C1649 C1645 1.385 . S
C1649 C1648 1.374 . S
C1650 C1647 1.499 . S
C1650 C1651 1.373 . S
C1650 C1652 1.389 . S
C1651 H1630 0.950 . S
C1651 C1650 1.373 . S
C1651 C1667 1.377 . S
C1652 C1650 1.389 . S
C1652 C1653 1.524 . S
C1652 C1666 1.377 . S
C1653 C1652 1.524 . S
C1653 C1654 1.397 . S
C1653 C1658 1.363 . S
C1654 H1631 0.950 . S
C1654 C1653 1.397 . S
C1654 C1655 1.334 . S
C1655 H1632 0.950 . S
C1655 C1654 1.334 . S
C1655 C1656 1.287 . S
C1656 C1655 1.287 . S
C1656 C1657 1.524 . S
C1656 H1675 0.913 . S
C1657 H1633 0.950 . S
C1657 C1656 1.524 . S
C1657 C1658 1.415 . S
C1658 H1634 0.950 . S
C1658 C1653 1.363 . S
C1658 C1657 1.415 . S
C1659 H1635 0.951 . S
C1659 C1660 1.366 . S
C1659 C1661 1.388 . S
C1660 C1659 1.366 . S
C1660 C1664 1.385 . S
C1661 H1636 0.951 . S
C1661 C1659 1.388 . S
C1661 C1662 1.366 . S
C1662 C1661 1.366 . S
C1662 C1663 1.414 . S
C1662 C1665 1.499 . S
C1663 H1637 0.950 . S
C1663 C1662 1.414 . S
C1663 C1664 1.374 . S
C1664 H1638 0.950 . S
C1664 C1660 1.385 . S
C1664 C1663 1.374 . S
C1665 C1662 1.499 . S
C1665 C1666 1.373 . S
C1665 C1667 1.389 . S
C1666 H1639 0.950 . S
C1666 C1652 1.377 . S
C1666 C1665 1.373 . S
C1667 C1651 1.377 . S
C1667 C1665 1.389 . S
C1667 C1668 1.524 . S
C1668 C1667 1.524 . S
C1668 C1669 1.397 . S
C1668 C1673 1.363 . S
C1669 H1640 0.950 . S
C1669 C1668 1.397 . S
C1669 C1670 1.334 . S
C1670 H1641 0.950 . S
C1670 C1669 1.334 . S
C1670 C1671 1.287 . S
C1671 C1670 1.287 . S
C1671 C1672 1.524 . S
C1671 H1674 0.999 . S
C1672 H1642 0.950 . S
C1672 C1671 1.524 . S
C1672 C1673 1.415 . S
C1673 H1643 0.950 . S
C1673 C1668 1.363 . S
C1673 C1672 1.415 . S
H1674 C1671 0.999 . S
H1675 C1656 0.913 . S
H1676 C1694 0.951 . S
H1677 C1696 0.951 . S
H1678 C1698 0.950 . S
H1679 C1699 0.950 . S
H1680 C1701 0.950 . S
H1681 C1704 0.950 . S
H1682 C1705 0.950 . S
H1683 C1707 0.950 . S
H1684 C1708 0.950 . S
H1685 C1709 0.951 . S
H1686 C1711 0.951 . S
H1687 C1713 0.950 . S
H1688 C1714 0.950 . S
H1689 C1716 0.950 . S
H1690 C1719 0.950 . S
H1691 C1720 0.950 . S
H1692 C1722 0.950 . S
H1693 C1723 0.950 . S
C1694 H1676 0.951 . S
C1694 C1695 1.366 . S
C1694 C1696 1.388 . S
C1695 C1694 1.366 . S
C1695 C1699 1.385 . S
C1696 H1677 0.951 . S
C1696 C1694 1.388 . S
C1696 C1697 1.366 . S
C1697 C1696 1.366 . S
C1697 C1698 1.414 . S
C1697 C1700 1.499 . S
C1698 H1678 0.950 . S
C1698 C1697 1.414 . S
C1698 C1699 1.374 . S
C1699 H1679 0.950 . S
C1699 C1695 1.385 . S
C1699 C1698 1.374 . S
C1700 C1697 1.499 . S
C1700 C1701 1.373 . S
C1700 C1702 1.389 . S
C1701 H1680 0.950 . S
C1701 C1700 1.373 . S
C1701 C1717 1.377 . S
C1702 C1700 1.389 . S
C1702 C1703 1.524 . S
C1702 C1716 1.377 . S
C1703 C1702 1.524 . S
C1703 C1704 1.397 . S
C1703 C1708 1.363 . S
C1704 H1681 0.950 . S
C1704 C1703 1.397 . S
C1704 C1705 1.334 1_545 S
C1705 H1682 0.950 . S
C1705 C1704 1.334 1_565 S
C1705 C1706 1.287 . S
C1706 C1705 1.287 . S
C1706 C1707 1.524 . S
C1706 H1725 0.913 . S
C1707 H1683 0.950 . S
C1707 C1706 1.524 . S
C1707 C1708 1.415 1_565 S
C1708 H1684 0.950 . S
C1708 C1703 1.363 . S
C1708 C1707 1.415 1_545 S
C1709 H1685 0.951 . S
C1709 C1710 1.366 . S
C1709 C1711 1.388 . S
C1710 C1709 1.366 . S
C1710 C1714 1.385 . S
C1711 H1686 0.951 . S
C1711 C1709 1.388 . S
C1711 C1712 1.366 . S
C1712 C1711 1.366 . S
C1712 C1713 1.414 . S
C1712 C1715 1.499 . S
C1713 H1687 0.950 . S
C1713 C1712 1.414 . S
C1713 C1714 1.374 . S
C1714 H1688 0.950 . S
C1714 C1710 1.385 . S
C1714 C1713 1.374 . S
C1715 C1712 1.499 . S
C1715 C1716 1.373 . S
C1715 C1717 1.389 . S
C1716 H1689 0.950 . S
C1716 C1702 1.377 . S
C1716 C1715 1.373 . S
C1717 C1701 1.377 . S
C1717 C1715 1.389 . S
C1717 C1718 1.524 . S
C1718 C1717 1.524 . S
C1718 C1719 1.397 . S
C1718 C1723 1.363 . S
C1719 H1690 0.950 . S
C1719 C1718 1.397 . S
C1719 C1720 1.334 . S
C1720 H1691 0.950 . S
C1720 C1719 1.334 . S
C1720 C1721 1.287 . S
C1721 C1720 1.287 . S
C1721 C1722 1.524 . S
C1721 H1724 0.999 . S
C1722 H1692 0.950 . S
C1722 C1721 1.524 . S
C1722 C1723 1.415 . S
C1723 H1693 0.950 . S
C1723 C1718 1.363 . S
C1723 C1722 1.415 . S
H1724 C1721 0.999 . S
H1725 C1706 0.913 . S
H1726 C1744 0.951 . S
H1727 C1746 0.951 . S
H1728 C1748 0.950 . S
H1729 C1749 0.950 . S
H1730 C1751 0.950 . S
H1731 C1754 0.950 . S
H1732 C1755 0.950 . S
H1733 C1757 0.950 . S
H1734 C1758 0.950 . S
H1735 C1759 0.951 . S
H1736 C1761 0.951 . S
H1737 C1763 0.950 . S
H1738 C1764 0.950 . S
H1739 C1766 0.950 . S
H1740 C1769 0.950 . S
H1741 C1770 0.950 . S
H1742 C1772 0.950 . S
H1743 C1773 0.950 . S
C1744 H1726 0.951 . S
C1744 C1745 1.366 . S
C1744 C1746 1.388 . S
C1745 C1744 1.366 . S
C1745 C1749 1.385 . S
C1746 H1727 0.951 . S
C1746 C1744 1.388 . S
C1746 C1747 1.366 . S
C1747 C1746 1.366 . S
C1747 C1748 1.414 . S
C1747 C1750 1.499 . S
C1748 H1728 0.950 . S
C1748 C1747 1.414 . S
C1748 C1749 1.374 . S
C1749 H1729 0.950 . S
C1749 C1745 1.385 . S
C1749 C1748 1.374 . S
C1750 C1747 1.499 . S
C1750 C1751 1.373 . S
C1750 C1752 1.389 . S
C1751 H1730 0.950 . S
C1751 C1750 1.373 . S
C1751 C1767 1.377 . S
C1752 C1750 1.389 . S
C1752 C1753 1.524 . S
C1752 C1766 1.377 . S
C1753 C1752 1.524 . S
C1753 C1754 1.397 . S
C1753 C1758 1.363 . S
C1754 H1731 0.950 . S
C1754 C1753 1.397 . S
C1754 C1755 1.334 . S
C1755 H1732 0.950 . S
C1755 C1754 1.334 . S
C1755 C1756 1.287 . S
C1756 C1755 1.287 . S
C1756 C1757 1.524 . S
C1756 H1775 0.913 . S
C1757 H1733 0.950 . S
C1757 C1756 1.524 . S
C1757 C1758 1.415 . S
C1758 H1734 0.950 . S
C1758 C1753 1.363 . S
C1758 C1757 1.415 . S
C1759 H1735 0.951 . S
C1759 C1760 1.366 . S
C1759 C1761 1.388 . S
C1760 C1759 1.366 . S
C1760 C1764 1.385 . S
C1761 H1736 0.951 . S
C1761 C1759 1.388 . S
C1761 C1762 1.366 . S
C1762 C1761 1.366 . S
C1762 C1763 1.414 . S
C1762 C1765 1.499 . S
C1763 H1737 0.950 . S
C1763 C1762 1.414 . S
C1763 C1764 1.374 . S
C1764 H1738 0.950 . S
C1764 C1760 1.385 . S
C1764 C1763 1.374 . S
C1765 C1762 1.499 . S
C1765 C1766 1.373 . S
C1765 C1767 1.389 . S
C1766 H1739 0.950 . S
C1766 C1752 1.377 . S
C1766 C1765 1.373 . S
C1767 C1751 1.377 . S
C1767 C1765 1.389 . S
C1767 C1768 1.524 . S
C1768 C1767 1.524 . S
C1768 C1769 1.397 . S
C1768 C1773 1.363 . S
C1769 H1740 0.950 . S
C1769 C1768 1.397 . S
C1769 C1770 1.334 . S
C1770 H1741 0.950 . S
C1770 C1769 1.334 . S
C1770 C1771 1.287 . S
C1771 C1770 1.287 . S
C1771 C1772 1.524 . S
C1771 H1774 0.999 . S
C1772 H1742 0.950 . S
C1772 C1771 1.524 . S
C1772 C1773 1.415 . S
C1773 H1743 0.950 . S
C1773 C1768 1.363 . S
C1773 C1772 1.415 . S
H1774 C1771 0.999 . S
H1775 C1756 0.913 . S
H1776 C1794 0.951 . S
H1777 C1796 0.951 . S
H1778 C1798 0.950 . S
H1779 C1799 0.950 . S
H1780 C1801 0.919 1_556 S
H1781 C1804 0.950 . S
H1782 C1805 0.950 . S
H1783 C1807 0.950 1_545 S
H1784 C1808 0.950 1_545 S
H1785 C1809 0.951 . S
H1786 C1811 0.951 . S
H1787 C1813 0.926 1_545 S
H1788 C1814 0.950 . S
H1789 C1816 0.950 . S
H1790 C1819 0.950 . S
H1791 C1820 0.950 . S
H1792 C1822 0.950 . S
H1793 C1823 0.950 . S
C1794 H1776 0.951 . S
C1794 C1795 1.366 . S
C1794 C1796 1.388 . S
C1795 C1794 1.366 . S
C1795 C1799 1.385 . S
C1796 H1777 0.951 . S
C1796 C1794 1.388 . S
C1796 C1797 1.366 . S
C1797 C1796 1.366 . S
C1797 C1798 1.414 . S
C1797 C1800 1.499 . S
C1798 H1778 0.950 . S
C1798 C1797 1.414 . S
C1798 C1799 1.374 . S
C1799 H1779 0.950 . S
C1799 C1795 1.385 . S
C1799 C1798 1.374 . S
C1800 C1797 1.499 . S
C1800 C1801 1.373 . S
C1800 C1802 1.389 . S
C1801 H1780 0.919 1_554 S
C1801 C1800 1.373 . S
C1801 C1817 1.377 . S
C1802 C1800 1.389 . S
C1802 C1803 1.524 . S
C1802 C1816 1.377 . S
C1803 C1802 1.524 . S
C1803 C1804 1.397 . S
C1803 C1808 1.363 . S
C1804 H1781 0.950 . S
C1804 C1803 1.397 . S
C1804 C1805 1.334 . S
C1805 H1782 0.950 . S
C1805 C1804 1.334 . S
C1805 C1806 1.287 . S
C1806 C1805 1.287 . S
C1806 C1807 1.524 . S
C1806 H1825 0.913 . S
C1807 H1783 0.950 1_565 S
C1807 C1806 1.524 . S
C1807 C1808 1.415 . S
C1808 H1784 0.950 1_565 S
C1808 C1803 1.363 . S
C1808 C1807 1.415 . S
C1809 H1785 0.951 . S
C1809 C1810 1.366 . S
C1809 C1811 1.388 . S
C1810 C1809 1.366 . S
C1810 C1814 1.385 1_565 S
C1811 H1786 0.951 . S
C1811 C1809 1.388 . S
C1811 C1812 1.366 . S
C1812 C1811 1.366 . S
C1812 C1813 1.472 . S
C1812 C1815 1.499 . S
C1813 H1787 0.926 1_565 S
C1813 C1812 1.472 . S
C1813 C1814 1.342 1_565 S
C1814 H1788 0.950 . S
C1814 C1810 1.385 1_545 S
C1814 C1813 1.342 1_545 S
C1815 C1812 1.499 . S
C1815 C1816 1.373 . S
C1815 C1817 1.389 . S
C1816 H1789 0.950 . S
C1816 C1802 1.377 . S
C1816 C1815 1.373 . S
C1817 C1801 1.377 . S
C1817 C1815 1.389 . S
C1817 C1818 1.524 1_554 S
C1818 C1817 1.524 1_556 S
C1818 C1819 1.397 . S
C1818 C1823 1.363 . S
C1819 H1790 0.950 . S
C1819 C1818 1.397 . S
C1819 C1820 1.334 . S
C1820 H1791 0.950 . S
C1820 C1819 1.334 . S
C1820 C1821 1.287 . S
C1821 C1820 1.287 . S
C1821 C1822 1.524 . S
C1821 H1824 0.999 . S
C1822 H1792 0.950 . S
C1822 C1821 1.524 . S
C1822 C1823 1.415 . S
C1823 H1793 0.950 . S
C1823 C1818 1.363 . S
C1823 C1822 1.415 . S
H1824 C1821 0.999 . S
H1825 C1806 0.913 . S
H1826 C1844 0.951 . S
H1827 C1846 0.951 . S
H1828 C1848 0.950 . S
H1829 C1849 0.950 . S
H1830 C1851 0.950 . S
H1831 C1854 0.950 . S
H1832 C1855 0.950 . S
H1833 C1857 0.950 . S
H1834 C1858 0.950 . S
H1835 C1859 0.951 . S
H1836 C1861 0.951 . S
H1837 C1863 0.950 . S
H1838 C1864 0.950 . S
H1839 C1866 0.950 . S
H1840 C1869 0.950 . S
H1841 C1870 0.950 . S
H1842 C1872 0.950 . S
H1843 C1873 0.950 . S
C1844 H1826 0.951 . S
C1844 C1845 1.367 . S
C1844 C1846 1.388 . S
C1845 C1844 1.367 . S
C1845 C1849 1.384 1_554 S
C1846 H1827 0.951 . S
C1846 C1844 1.388 . S
C1846 C1847 1.366 . S
C1847 C1846 1.366 . S
C1847 C1848 1.414 1_554 S
C1847 C1850 1.499 . S
C1848 H1828 0.950 . S
C1848 C1847 1.414 1_556 S
C1848 C1849 1.374 . S
C1849 H1829 0.950 . S
C1849 C1845 1.384 1_556 S
C1849 C1848 1.374 . S
C1850 C1847 1.499 . S
C1850 C1851 1.373 1_554 S
C1850 C1852 1.389 . S
C1851 H1830 0.950 . S
C1851 C1850 1.373 1_556 S
C1851 C1867 1.377 . S
C1852 C1850 1.389 . S
C1852 C1853 1.524 . S
C1852 C1866 1.377 . S
C1853 C1852 1.524 . S
C1853 C1854 1.397 . S
C1853 C1858 1.363 . S
C1854 H1831 0.950 . S
C1854 C1853 1.397 . S
C1854 C1855 1.334 . S
C1855 H1832 0.950 . S
C1855 C1854 1.334 . S
C1855 C1856 1.287 . S
C1856 C1855 1.287 . S
C1856 C1857 1.524 . S
C1856 H1875 0.913 . S
C1857 H1833 0.950 . S
C1857 C1856 1.524 . S
C1857 C1858 1.415 . S
C1858 H1834 0.950 . S
C1858 C1853 1.363 . S
C1858 C1857 1.415 . S
C1859 H1835 0.951 . S
C1859 C1860 1.366 1_556 S
C1859 C1861 1.388 . S
C1860 C1859 1.366 1_554 S
C1860 C1864 1.385 . S
C1861 H1836 0.951 . S
C1861 C1859 1.388 . S
C1861 C1862 1.366 1_556 S
C1862 C1861 1.366 1_554 S
C1862 C1863 1.414 . S
C1862 C1865 1.513 . S
C1863 H1837 0.950 . S
C1863 C1862 1.414 . S
C1863 C1864 1.374 . S
C1864 H1838 0.950 . S
C1864 C1860 1.385 . S
C1864 C1863 1.374 . S
C1865 C1862 1.513 . S
C1865 C1866 1.419 . S
C1865 C1867 1.334 1_554 S
C1866 H1839 0.950 . S
C1866 C1852 1.377 . S
C1866 C1865 1.419 . S
C1867 C1851 1.377 . S
C1867 C1865 1.334 1_556 S
C1867 C1868 1.524 . S
C1868 C1867 1.524 . S
C1868 C1869 1.397 . S
C1868 C1873 1.363 . S
C1869 H1840 0.950 . S
C1869 C1868 1.397 . S
C1869 C1870 1.334 . S
C1870 H1841 0.950 . S
C1870 C1869 1.334 . S
C1870 C1871 1.287 . S
C1871 C1870 1.287 . S
C1871 C1872 1.524 . S
C1871 H1874 0.999 . S
C1872 H1842 0.950 . S
C1872 C1871 1.524 . S
C1872 C1873 1.415 . S
C1873 H1843 0.950 . S
C1873 C1868 1.363 . S
C1873 C1872 1.415 . S
H1874 C1871 0.999 . S
H1875 C1856 0.913 . S
H1876 C1894 0.951 . S
H1877 C1896 0.951 . S
H1878 C1898 0.950 . S
H1879 C1899 0.950 . S
H1880 C1901 0.950 . S
H1881 C1904 0.950 . S
H1882 C1905 0.950 . S
H1883 C1907 0.950 . S
H1884 C1908 0.950 . S
H1885 C1909 0.951 . S
H1886 C1911 0.951 . S
H1887 C1913 0.950 . S
H1888 C1914 0.950 . S
H1889 C1916 0.950 . S
H1890 C1919 0.950 . S
H1891 C1920 0.950 . S
H1892 C1922 0.950 . S
H1893 C1923 0.950 . S
C1894 H1876 0.951 . S
C1894 C1895 1.366 . S
C1894 C1896 1.388 . S
C1895 C1894 1.366 . S
C1895 C1899 1.385 . S
C1896 H1877 0.951 . S
C1896 C1894 1.388 . S
C1896 C1897 1.366 . S
C1897 C1896 1.366 . S
C1897 C1898 1.414 . S
C1897 C1900 1.499 . S
C1898 H1878 0.950 . S
C1898 C1897 1.414 . S
C1898 C1899 1.374 . S
C1899 H1879 0.950 . S
C1899 C1895 1.385 . S
C1899 C1898 1.374 . S
C1900 C1897 1.499 . S
C1900 C1901 1.373 . S
C1900 C1902 1.389 . S
C1901 H1880 0.950 . S
C1901 C1900 1.373 . S
C1901 C1917 1.377 . S
C1902 C1900 1.389 . S
C1902 C1903 1.524 . S
C1902 C1916 1.377 . S
C1903 C1902 1.524 . S
C1903 C1904 1.397 . S
C1903 C1908 1.363 . S
C1904 H1881 0.950 . S
C1904 C1903 1.397 . S
C1904 C1905 1.334 . S
C1905 H1882 0.950 . S
C1905 C1904 1.334 . S
C1905 C1906 1.287 . S
C1906 C1905 1.287 . S
C1906 C1907 1.524 . S
C1906 H1925 0.913 . S
C1907 H1883 0.950 . S
C1907 C1906 1.524 . S
C1907 C1908 1.415 . S
C1908 H1884 0.950 . S
C1908 C1903 1.363 . S
C1908 C1907 1.415 . S
C1909 H1885 0.951 . S
C1909 C1910 1.366 . S
C1909 C1911 1.388 . S
C1910 C1909 1.366 . S
C1910 C1914 1.385 . S
C1911 H1886 0.951 . S
C1911 C1909 1.388 . S
C1911 C1912 1.366 . S
C1912 C1911 1.366 . S
C1912 C1913 1.414 . S
C1912 C1915 1.499 . S
C1913 H1887 0.950 . S
C1913 C1912 1.414 . S
C1913 C1914 1.374 . S
C1914 H1888 0.950 . S
C1914 C1910 1.385 . S
C1914 C1913 1.374 . S
C1915 C1912 1.499 . S
C1915 C1916 1.373 . S
C1915 C1917 1.389 . S
C1916 H1889 0.950 . S
C1916 C1902 1.377 . S
C1916 C1915 1.373 . S
C1917 C1901 1.377 . S
C1917 C1915 1.389 . S
C1917 C1918 1.524 . S
C1918 C1917 1.524 . S
C1918 C1919 1.397 . S
C1918 C1923 1.363 . S
C1919 H1890 0.950 . S
C1919 C1918 1.397 . S
C1919 C1920 1.334 . S
C1920 H1891 0.950 . S
C1920 C1919 1.334 . S
C1920 C1921 1.287 . S
C1921 C1920 1.287 . S
C1921 C1922 1.524 . S
C1921 H1924 0.999 . S
C1922 H1892 0.950 . S
C1922 C1921 1.524 . S
C1922 C1923 1.415 . S
C1923 H1893 0.950 . S
C1923 C1918 1.363 . S
C1923 C1922 1.415 . S
H1924 C1921 0.999 . S
H1925 C1906 0.913 . S
H1926 C1944 0.951 . S
H1927 C1946 0.951 . S
H1928 C1948 0.950 . S
H1929 C1949 0.950 . S
H1930 C1951 0.950 . S
H1931 C1954 0.950 . S
H1932 C1955 0.950 . S
H1933 C1957 0.950 . S
H1934 C1958 0.950 . S
H1935 C1959 0.916 1_455 S
H1936 C1961 0.951 . S
H1937 C1963 0.950 . S
H1938 C1964 0.950 . S
H1939 C1966 0.950 . S
H1940 C1969 0.950 . S
H1941 C1970 0.950 . S
H1942 C1972 0.950 . S
H1943 C1973 0.950 . S
C1944 H1926 0.951 . S
C1944 C1945 1.366 . S
C1944 C1946 1.388 . S
C1945 C1944 1.366 . S
C1945 C1949 1.385 . S
C1946 H1927 0.951 . S
C1946 C1944 1.388 . S
C1946 C1947 1.366 . S
C1947 C1946 1.366 . S
C1947 C1948 1.414 . S
C1947 C1950 1.499 . S
C1948 H1928 0.950 . S
C1948 C1947 1.414 . S
C1948 C1949 1.374 . S
C1949 H1929 0.950 . S
C1949 C1945 1.385 . S
C1949 C1948 1.374 . S
C1950 C1947 1.499 . S
C1950 C1951 1.373 . S
C1950 C1952 1.389 . S
C1951 H1930 0.950 . S
C1951 C1950 1.373 . S
C1951 C1967 1.377 . S
C1952 C1950 1.389 . S
C1952 C1953 1.524 . S
C1952 C1966 1.377 . S
C1953 C1952 1.524 . S
C1953 C1954 1.397 . S
C1953 C1958 1.363 . S
C1954 H1931 0.950 . S
C1954 C1953 1.397 . S
C1954 C1955 1.334 . S
C1955 H1932 0.950 . S
C1955 C1954 1.334 . S
C1955 C1956 1.287 . S
C1956 C1955 1.287 . S
C1956 C1957 1.524 . S
C1956 H1975 0.913 . S
C1957 H1933 0.950 . S
C1957 C1956 1.524 . S
C1957 C1958 1.415 . S
C1958 H1934 0.950 . S
C1958 C1953 1.363 . S
C1958 C1957 1.415 . S
C1959 H1935 0.916 1_655 S
C1959 C1960 1.366 . S
C1959 C1961 1.388 . S
C1960 C1959 1.366 . S
C1960 C1964 1.385 . S
C1961 H1936 0.951 . S
C1961 C1959 1.388 . S
C1961 C1962 1.366 . S
C1962 C1961 1.366 . S
C1962 C1963 1.414 . S
C1962 C1965 1.499 . S
C1963 H1937 0.950 . S
C1963 C1962 1.414 . S
C1963 C1964 1.374 . S
C1964 H1938 0.950 . S
C1964 C1960 1.385 . S
C1964 C1963 1.374 . S
C1965 C1962 1.499 . S
C1965 C1966 1.373 . S
C1965 C1967 1.389 . S
C1966 H1939 0.950 . S
C1966 C1952 1.377 . S
C1966 C1965 1.373 . S
C1967 C1951 1.377 . S
C1967 C1965 1.389 . S
C1967 C1968 1.524 . S
C1968 C1967 1.524 . S
C1968 C1969 1.397 . S
C1968 C1973 1.363 . S
C1969 H1940 0.950 . S
C1969 C1968 1.397 . S
C1969 C1970 1.334 . S
C1970 H1941 0.950 . S
C1970 C1969 1.334 . S
C1970 C1971 1.287 . S
C1971 C1970 1.287 . S
C1971 C1972 1.524 . S
C1971 H1974 0.999 . S
C1972 H1942 0.950 . S
C1972 C1971 1.524 . S
C1972 C1973 1.415 . S
C1973 H1943 0.950 . S
C1973 C1968 1.363 . S
C1973 C1972 1.415 . S
H1974 C1971 0.999 . S
H1975 C1956 0.913 . S
H1976 C1994 0.951 . S
H1977 C1996 0.951 . S
H1978 C1998 0.950 . S
H1979 C1999 0.950 . S
H1980 C2001 0.950 . S
H1981 C2004 0.950 . S
H1982 C2005 0.950 . S
H1983 C2007 0.950 . S
H1984 C2008 0.950 . S
H1985 C2009 0.951 . S
H1986 C2011 0.951 . S
H1987 C2013 0.950 . S
H1988 C2014 0.950 . S
H1989 C2016 0.950 . S
H1990 C2019 0.950 . S
H1991 C2020 0.950 . S
H1992 C2022 0.950 . S
H1993 C2023 0.950 . S
C1994 H1976 0.951 . S
C1994 C1995 1.366 . S
C1994 C1996 1.388 . S
C1995 C1994 1.366 . S
C1995 C1999 1.385 . S
C1996 H1977 0.951 . S
C1996 C1994 1.388 . S
C1996 C1997 1.366 . S
C1997 C1996 1.366 . S
C1997 C1998 1.414 . S
C1997 C2000 1.499 . S
C1998 H1978 0.950 . S
C1998 C1997 1.414 . S
C1998 C1999 1.374 . S
C1999 H1979 0.950 . S
C1999 C1995 1.385 . S
C1999 C1998 1.374 . S
C2000 C1997 1.499 . S
C2000 C2001 1.373 . S
C2000 C2002 1.389 . S
C2001 H1980 0.950 . S
C2001 C2000 1.373 . S
C2001 C2017 1.377 . S
C2002 C2000 1.389 . S
C2002 C2003 1.524 . S
C2002 C2016 1.377 . S
C2003 C2002 1.524 . S
C2003 C2004 1.397 . S
C2003 C2008 1.363 . S
C2004 H1981 0.950 . S
C2004 C2003 1.397 . S
C2004 C2005 1.334 . S
C2005 H1982 0.950 . S
C2005 C2004 1.334 . S
C2005 C2006 1.287 . S
C2006 C2005 1.287 . S
C2006 C2007 1.524 . S
C2006 H2025 0.913 . S
C2007 H1983 0.950 . S
C2007 C2006 1.524 . S
C2007 C2008 1.415 . S
C2008 H1984 0.950 . S
C2008 C2003 1.363 . S
C2008 C2007 1.415 . S
C2009 H1985 0.951 . S
C2009 C2010 1.366 . S
C2009 C2011 1.388 . S
C2010 C2009 1.366 . S
C2010 C2014 1.385 . S
C2011 H1986 0.951 . S
C2011 C2009 1.388 . S
C2011 C2012 1.366 . S
C2012 C2011 1.366 . S
C2012 C2013 1.414 . S
C2012 C2015 1.499 . S
C2013 H1987 0.950 . S
C2013 C2012 1.414 . S
C2013 C2014 1.374 . S
C2014 H1988 0.950 . S
C2014 C2010 1.385 . S
C2014 C2013 1.374 . S
C2015 C2012 1.499 . S
C2015 C2016 1.373 . S
C2015 C2017 1.389 . S
C2016 H1989 0.950 . S
C2016 C2002 1.377 . S
C2016 C2015 1.373 . S
C2017 C2001 1.377 . S
C2017 C2015 1.389 . S
C2017 C2018 1.524 . S
C2018 C2017 1.524 . S
C2018 C2019 1.397 . S
C2018 C2023 1.363 . S
C2019 H1990 0.950 . S
C2019 C2018 1.397 . S
C2019 C2020 1.334 . S
C2020 H1991 0.950 . S
C2020 C2019 1.334 . S
C2020 C2021 1.287 . S
C2021 C2020 1.287 . S
C2021 C2022 1.524 . S
C2021 H2024 0.999 . S
C2022 H1992 0.950 . S
C2022 C2021 1.524 . S
C2022 C2023 1.415 . S
C2023 H1993 0.950 . S
C2023 C2018 1.363 . S
C2023 C2022 1.415 . S
H2024 C2021 0.999 . S
H2025 C2006 0.913 . S
H2026 C2044 0.951 . S
H2027 C2046 0.951 . S
H2028 C2048 0.950 . S
H2029 C2049 0.950 . S
H2030 C2051 0.950 . S
H2031 C2054 0.950 . S
H2032 C2055 0.950 . S
H2033 C2057 0.950 . S
H2034 C2058 0.950 . S
H2035 C2059 0.951 . S
H2036 C2061 0.951 . S
H2037 C2063 0.950 . S
H2038 C2064 0.950 . S
H2039 C2066 0.950 . S
H2040 C2069 0.950 . S
H2041 C2070 0.950 . S
H2042 C2072 0.950 . S
H2043 C2073 0.950 . S
C2044 H2026 0.951 . S
C2044 C2045 1.366 . S
C2044 C2046 1.388 . S
C2045 C2044 1.366 . S
C2045 C2049 1.385 . S
C2046 H2027 0.951 . S
C2046 C2044 1.388 . S
C2046 C2047 1.366 . S
C2047 C2046 1.366 . S
C2047 C2048 1.414 . S
C2047 C2050 1.499 . S
C2048 H2028 0.950 . S
C2048 C2047 1.414 . S
C2048 C2049 1.374 . S
C2049 H2029 0.950 . S
C2049 C2045 1.385 . S
C2049 C2048 1.374 . S
C2050 C2047 1.499 . S
C2050 C2051 1.373 . S
C2050 C2052 1.389 . S
C2051 H2030 0.950 . S
C2051 C2050 1.373 . S
C2051 C2067 1.377 . S
C2052 C2050 1.389 . S
C2052 C2053 1.524 . S
C2052 C2066 1.377 . S
C2053 C2052 1.524 . S
C2053 C2054 1.397 . S
C2053 C2058 1.363 . S
C2054 H2031 0.950 . S
C2054 C2053 1.397 . S
C2054 C2055 1.334 . S
C2055 H2032 0.950 . S
C2055 C2054 1.334 . S
C2055 C2056 1.287 . S
C2056 C2055 1.287 . S
C2056 C2057 1.524 . S
C2056 H2075 0.913 . S
C2057 H2033 0.950 . S
C2057 C2056 1.524 . S
C2057 C2058 1.415 . S
C2058 H2034 0.950 . S
C2058 C2053 1.363 . S
C2058 C2057 1.415 . S
C2059 H2035 0.951 . S
C2059 C2060 1.366 . S
C2059 C2061 1.388 . S
C2060 C2059 1.366 . S
C2060 C2064 1.385 . S
C2061 H2036 0.951 . S
C2061 C2059 1.388 . S
C2061 C2062 1.366 . S
C2062 C2061 1.366 . S
C2062 C2063 1.414 . S
C2062 C2065 1.499 . S
C2063 H2037 0.950 . S
C2063 C2062 1.414 . S
C2063 C2064 1.374 . S
C2064 H2038 0.950 . S
C2064 C2060 1.385 . S
C2064 C2063 1.374 . S
C2065 C2062 1.499 . S
C2065 C2066 1.373 . S
C2065 C2067 1.389 . S
C2066 H2039 0.950 . S
C2066 C2052 1.377 . S
C2066 C2065 1.373 . S
C2067 C2051 1.377 . S
C2067 C2065 1.389 . S
C2067 C2068 1.524 . S
C2068 C2067 1.524 . S
C2068 C2069 1.397 . S
C2068 C2073 1.363 . S
C2069 H2040 0.950 . S
C2069 C2068 1.397 . S
C2069 C2070 1.334 . S
C2070 H2041 0.950 . S
C2070 C2069 1.334 . S
C2070 C2071 1.287 . S
C2071 C2070 1.287 . S
C2071 C2072 1.524 . S
C2071 H2074 0.999 . S
C2072 H2042 0.950 . S
C2072 C2071 1.524 . S
C2072 C2073 1.415 . S
C2073 H2043 0.950 . S
C2073 C2068 1.363 . S
C2073 C2072 1.415 . S
H2074 C2071 0.999 . S
H2075 C2056 0.913 . S
H2076 C2094 0.951 . S
H2077 C2096 0.951 . S
H2078 C2098 0.950 . S
H2079 C2099 0.950 . S
H2080 C2101 0.950 . S
H2081 C2104 0.950 . S
H2082 C2105 0.950 . S
H2083 C2107 0.950 . S
H2084 C2108 0.950 . S
H2085 C2109 0.951 . S
H2086 C2111 0.951 . S
H2087 C2113 0.950 . S
H2088 C2114 0.950 . S
H2089 C2116 0.950 . S
H2090 C2119 0.950 . S
H2091 C2120 0.950 . S
H2092 C2122 0.950 . S
H2093 C2123 0.950 . S
C2094 H2076 0.951 . S
C2094 C2095 1.366 . S
C2094 C2096 1.388 . S
C2095 C2094 1.366 . S
C2095 C2099 1.385 . S
C2096 H2077 0.951 . S
C2096 C2094 1.388 . S
C2096 C2097 1.366 . S
C2097 C2096 1.366 . S
C2097 C2098 1.414 . S
C2097 C2100 1.499 . S
C2098 H2078 0.950 . S
C2098 C2097 1.414 . S
C2098 C2099 1.374 . S
C2099 H2079 0.950 . S
C2099 C2095 1.385 . S
C2099 C2098 1.374 . S
C2100 C2097 1.499 . S
C2100 C2101 1.373 . S
C2100 C2102 1.389 . S
C2101 H2080 0.950 . S
C2101 C2100 1.373 . S
C2101 C2117 1.377 . S
C2102 C2100 1.389 . S
C2102 C2103 1.524 . S
C2102 C2116 1.377 . S
C2103 C2102 1.524 . S
C2103 C2104 1.397 . S
C2103 C2108 1.363 . S
C2104 H2081 0.950 . S
C2104 C2103 1.397 . S
C2104 C2105 1.334 . S
C2105 H2082 0.950 . S
C2105 C2104 1.334 . S
C2105 C2106 1.287 . S
C2106 C2105 1.287 . S
C2106 C2107 1.524 . S
C2106 H2125 0.913 . S
C2107 H2083 0.950 . S
C2107 C2106 1.524 . S
C2107 C2108 1.415 . S
C2108 H2084 0.950 . S
C2108 C2103 1.363 . S
C2108 C2107 1.415 . S
C2109 H2085 0.951 . S
C2109 C2110 1.366 . S
C2109 C2111 1.388 . S
C2110 C2109 1.366 . S
C2110 C2114 1.385 . S
C2111 H2086 0.951 . S
C2111 C2109 1.388 . S
C2111 C2112 1.366 . S
C2112 C2111 1.366 . S
C2112 C2113 1.414 . S
C2112 C2115 1.499 . S
C2113 H2087 0.950 . S
C2113 C2112 1.414 . S
C2113 C2114 1.374 . S
C2114 H2088 0.950 . S
C2114 C2110 1.385 . S
C2114 C2113 1.374 . S
C2115 C2112 1.499 . S
C2115 C2116 1.373 . S
C2115 C2117 1.389 . S
C2116 H2089 0.950 . S
C2116 C2102 1.377 . S
C2116 C2115 1.373 . S
C2117 C2101 1.377 . S
C2117 C2115 1.389 . S
C2117 C2118 1.524 . S
C2118 C2117 1.524 . S
C2118 C2119 1.397 . S
C2118 C2123 1.363 . S
C2119 H2090 0.950 . S
C2119 C2118 1.397 . S
C2119 C2120 1.334 . S
C2120 H2091 0.950 . S
C2120 C2119 1.334 . S
C2120 C2121 1.287 . S
C2121 C2120 1.287 . S
C2121 C2122 1.524 . S
C2121 H2124 0.999 . S
C2122 H2092 0.950 . S
C2122 C2121 1.524 . S
C2122 C2123 1.415 . S
C2123 H2093 0.950 . S
C2123 C2118 1.363 . S
C2123 C2122 1.415 . S
H2124 C2121 0.999 . S
H2125 C2106 0.913 . S
H2126 C2144 0.951 . S
H2127 C2146 0.951 . S
H2128 C2148 0.950 . S
H2129 C2149 0.950 . S
H2130 C2151 0.950 . S
H2131 C2154 0.950 . S
H2132 C2155 0.950 . S
H2133 C2157 0.950 . S
H2134 C2158 0.950 . S
H2135 C2159 0.951 . S
H2136 C2161 0.951 . S
H2137 C2163 0.950 . S
H2138 C2164 0.950 . S
H2139 C2166 0.950 . S
H2140 C2169 0.950 . S
H2141 C2170 0.950 . S
H2142 C2172 0.950 . S
H2143 C2173 0.950 . S
C2144 H2126 0.951 . S
C2144 C2145 1.366 . S
C2144 C2146 1.388 . S
C2145 C2144 1.366 . S
C2145 C2149 1.385 . S
C2146 H2127 0.951 . S
C2146 C2144 1.388 . S
C2146 C2147 1.366 . S
C2147 C2146 1.366 . S
C2147 C2148 1.414 . S
C2147 C2150 1.499 . S
C2148 H2128 0.950 . S
C2148 C2147 1.414 . S
C2148 C2149 1.374 . S
C2149 H2129 0.950 . S
C2149 C2145 1.385 . S
C2149 C2148 1.374 . S
C2150 C2147 1.499 . S
C2150 C2151 1.373 . S
C2150 C2152 1.389 . S
C2151 H2130 0.950 . S
C2151 C2150 1.373 . S
C2151 C2167 1.377 . S
C2152 C2150 1.389 . S
C2152 C2153 1.524 . S
C2152 C2166 1.377 . S
C2153 C2152 1.524 . S
C2153 C2154 1.397 . S
C2153 C2158 1.363 . S
C2154 H2131 0.950 . S
C2154 C2153 1.397 . S
C2154 C2155 1.334 . S
C2155 H2132 0.950 . S
C2155 C2154 1.334 . S
C2155 C2156 1.287 . S
C2156 C2155 1.287 . S
C2156 C2157 1.524 . S
C2156 H2175 0.913 . S
C2157 H2133 0.950 . S
C2157 C2156 1.524 . S
C2157 C2158 1.415 . S
C2158 H2134 0.950 . S
C2158 C2153 1.363 . S
C2158 C2157 1.415 . S
C2159 H2135 0.951 . S
C2159 C2160 1.366 . S
C2159 C2161 1.388 . S
C2160 C2159 1.366 . S
C2160 C2164 1.385 . S
C2161 H2136 0.951 . S
C2161 C2159 1.388 . S
C2161 C2162 1.366 . S
C2162 C2161 1.366 . S
C2162 C2163 1.414 . S
C2162 C2165 1.499 . S
C2163 H2137 0.950 . S
C2163 C2162 1.414 . S
C2163 C2164 1.374 . S
C2164 H2138 0.950 . S
C2164 C2160 1.385 . S
C2164 C2163 1.374 . S
C2165 C2162 1.499 . S
C2165 C2166 1.373 . S
C2165 C2167 1.389 . S
C2166 H2139 0.950 . S
C2166 C2152 1.377 . S
C2166 C2165 1.373 . S
C2167 C2151 1.377 . S
C2167 C2165 1.389 . S
C2167 C2168 1.524 . S
C2168 C2167 1.524 . S
C2168 C2169 1.397 . S
C2168 C2173 1.363 . S
C2169 H2140 0.950 . S
C2169 C2168 1.397 . S
C2169 C2170 1.334 . S
C2170 H2141 0.950 . S
C2170 C2169 1.334 . S
C2170 C2171 1.287 . S
C2171 C2170 1.287 . S
C2171 C2172 1.524 . S
C2171 H2174 0.999 . S
C2172 H2142 0.950 . S
C2172 C2171 1.524 . S
C2172 C2173 1.415 . S
C2173 H2143 0.950 . S
C2173 C2168 1.363 . S
C2173 C2172 1.415 . S
H2174 C2171 0.999 . S
H2175 C2156 0.913 . S
H2176 C2194 0.951 . S
H2177 C2196 0.951 . S
H2178 C2198 0.950 . S
H2179 C2199 0.950 . S
H2180 C2201 0.950 . S
H2181 C2204 0.950 . S
H2182 C2205 0.950 . S
H2183 C2207 0.923 1_655 S
H2184 C2208 0.950 . S
H2185 C2209 0.951 . S
H2186 C2211 0.951 . S
H2187 C2213 0.950 . S
H2188 C2214 0.950 . S
H2189 C2216 0.950 . S
H2190 C2219 0.950 . S
H2191 C2220 0.950 . S
H2192 C2222 0.950 . S
H2193 C2223 0.950 . S
C2194 H2176 0.951 . S
C2194 C2195 1.366 . S
C2194 C2196 1.388 . S
C2195 C2194 1.366 . S
C2195 C2199 1.385 . S
C2196 H2177 0.951 . S
C2196 C2194 1.388 . S
C2196 C2197 1.366 . S
C2197 C2196 1.366 . S
C2197 C2198 1.414 . S
C2197 C2200 1.499 . S
C2198 H2178 0.950 . S
C2198 C2197 1.414 . S
C2198 C2199 1.374 . S
C2199 H2179 0.950 . S
C2199 C2195 1.385 . S
C2199 C2198 1.374 . S
C2200 C2197 1.499 . S
C2200 C2201 1.373 . S
C2200 C2202 1.389 . S
C2201 H2180 0.950 . S
C2201 C2200 1.373 . S
C2201 C2217 1.377 . S
C2202 C2200 1.389 . S
C2202 C2203 1.524 . S
C2202 C2216 1.377 . S
C2203 C2202 1.524 . S
C2203 C2204 1.397 . S
C2203 C2208 1.363 . S
C2204 H2181 0.950 . S
C2204 C2203 1.397 . S
C2204 C2205 1.334 . S
C2205 H2182 0.950 . S
C2205 C2204 1.334 . S
C2205 C2206 1.287 . S
C2206 C2205 1.287 . S
C2206 C2207 1.544 . S
C2206 H2225 0.913 . S
C2207 H2183 0.923 1_455 S
C2207 C2206 1.544 . S
C2207 C2208 1.426 . S
C2208 H2184 0.950 . S
C2208 C2203 1.363 . S
C2208 C2207 1.426 . S
C2209 H2185 0.951 . S
C2209 C2210 1.366 . S
C2209 C2211 1.388 . S
C2210 C2209 1.366 . S
C2210 C2214 1.385 . S
C2211 H2186 0.951 . S
C2211 C2209 1.388 . S
C2211 C2212 1.366 . S
C2212 C2211 1.366 . S
C2212 C2213 1.414 . S
C2212 C2215 1.499 . S
C2213 H2187 0.950 . S
C2213 C2212 1.414 . S
C2213 C2214 1.374 . S
C2214 H2188 0.950 . S
C2214 C2210 1.385 . S
C2214 C2213 1.374 . S
C2215 C2212 1.499 . S
C2215 C2216 1.373 . S
C2215 C2217 1.389 . S
C2216 H2189 0.950 . S
C2216 C2202 1.377 . S
C2216 C2215 1.373 . S
C2217 C2201 1.377 . S
C2217 C2215 1.389 . S
C2217 C2218 1.524 . S
C2218 C2217 1.524 . S
C2218 C2219 1.397 . S
C2218 C2223 1.363 . S
C2219 H2190 0.950 . S
C2219 C2218 1.397 . S
C2219 C2220 1.334 . S
C2220 H2191 0.950 . S
C2220 C2219 1.334 . S
C2220 C2221 1.287 . S
C2221 C2220 1.287 . S
C2221 C2222 1.524 . S
C2221 H2224 0.999 . S
C2222 H2192 0.950 . S
C2222 C2221 1.524 . S
C2222 C2223 1.415 . S
C2223 H2193 0.950 . S
C2223 C2218 1.363 . S
C2223 C2222 1.415 . S
H2224 C2221 0.999 . S
H2225 C2206 0.913 . S
H2226 C2244 0.951 . S
H2227 C2246 0.951 . S
H2228 C2248 0.950 . S
H2229 C2249 0.950 . S
H2230 C2251 0.950 . S
H2231 C2254 0.950 . S
H2232 C2255 0.950 . S
H2233 C2257 0.950 . S
H2234 C2258 0.950 . S
H2235 C2259 0.951 . S
H2236 C2261 0.951 . S
H2237 C2263 0.950 . S
H2238 C2264 0.950 . S
H2239 C2266 0.950 . S
H2240 C2269 0.950 . S
H2241 C2270 0.950 . S
H2242 C2272 0.950 . S
H2243 C2273 0.950 . S
C2244 H2226 0.951 . S
C2244 C2245 1.366 . S
C2244 C2246 1.388 . S
C2245 C2244 1.366 . S
C2245 C2249 1.385 . S
C2246 H2227 0.951 . S
C2246 C2244 1.388 . S
C2246 C2247 1.366 . S
C2247 C2246 1.366 . S
C2247 C2248 1.414 . S
C2247 C2250 1.499 . S
C2248 H2228 0.950 . S
C2248 C2247 1.414 . S
C2248 C2249 1.374 . S
C2249 H2229 0.950 . S
C2249 C2245 1.385 . S
C2249 C2248 1.374 . S
C2250 C2247 1.499 . S
C2250 C2251 1.373 . S
C2250 C2252 1.389 . S
C2251 H2230 0.950 . S
C2251 C2250 1.373 . S
C2251 C2267 1.377 . S
C2252 C2250 1.389 . S
C2252 C2253 1.524 . S
C2252 C2266 1.377 . S
C2253 C2252 1.524 . S
C2253 C2254 1.397 . S
C2253 C2258 1.363 . S
C2254 H2231 0.950 . S
C2254 C2253 1.397 . S
C2254 C2255 1.334 . S
C2255 H2232 0.950 . S
C2255 C2254 1.334 . S
C2255 C2256 1.287 . S
C2256 C2255 1.287 . S
C2256 C2257 1.524 . S
C2256 H2275 0.913 . S
C2257 H2233 0.950 . S
C2257 C2256 1.524 . S
C2257 C2258 1.415 . S
C2258 H2234 0.950 . S
C2258 C2253 1.363 . S
C2258 C2257 1.415 . S
C2259 H2235 0.951 . S
C2259 C2260 1.366 . S
C2259 C2261 1.388 . S
C2260 C2259 1.366 . S
C2260 C2264 1.385 . S
C2261 H2236 0.951 . S
C2261 C2259 1.388 . S
C2261 C2262 1.366 . S
C2262 C2261 1.366 . S
C2262 C2263 1.414 . S
C2262 C2265 1.499 . S
C2263 H2237 0.950 . S
C2263 C2262 1.414 . S
C2263 C2264 1.374 . S
C2264 H2238 0.950 . S
C2264 C2260 1.385 . S
C2264 C2263 1.374 . S
C2265 C2262 1.499 . S
C2265 C2266 1.373 . S
C2265 C2267 1.389 . S
C2266 H2239 0.950 . S
C2266 C2252 1.377 . S
C2266 C2265 1.373 . S
C2267 C2251 1.377 . S
C2267 C2265 1.389 . S
C2267 C2268 1.524 . S
C2268 C2267 1.524 . S
C2268 C2269 1.397 . S
C2268 C2273 1.363 . S
C2269 H2240 0.950 . S
C2269 C2268 1.397 . S
C2269 C2270 1.334 . S
C2270 H2241 0.950 . S
C2270 C2269 1.334 . S
C2270 C2271 1.287 . S
C2271 C2270 1.287 . S
C2271 C2272 1.524 . S
C2271 H2274 0.999 . S
C2272 H2242 0.950 . S
C2272 C2271 1.524 . S
C2272 C2273 1.415 . S
C2273 H2243 0.950 . S
C2273 C2268 1.363 . S
C2273 C2272 1.415 . S
H2274 C2271 0.999 . S
H2275 C2256 0.913 . S
H2276 C2294 0.951 . S
H2277 C2296 0.951 . S
H2278 C2298 0.950 . S
H2279 C2299 0.950 . S
H2280 C2301 0.950 . S
H2281 C2304 0.950 . S
H2282 C2305 0.950 . S
H2283 C2307 0.950 . S
H2284 C2308 0.950 . S
H2285 C2309 0.951 . S
H2286 C2311 0.951 . S
H2287 C2313 0.950 . S
H2288 C2314 0.950 . S
H2289 C2316 0.950 . S
H2290 C2319 0.950 . S
H2291 C2320 0.950 . S
H2292 C2322 0.950 . S
H2293 C2323 0.950 . S
C2294 H2276 0.951 . S
C2294 C2295 1.366 . S
C2294 C2296 1.388 . S
C2295 C2294 1.366 . S
C2295 C2299 1.385 . S
C2296 H2277 0.951 . S
C2296 C2294 1.388 . S
C2296 C2297 1.366 . S
C2297 C2296 1.366 . S
C2297 C2298 1.414 . S
C2297 C2300 1.499 . S
C2298 H2278 0.950 . S
C2298 C2297 1.414 . S
C2298 C2299 1.374 . S
C2299 H2279 0.950 . S
C2299 C2295 1.385 . S
C2299 C2298 1.374 . S
C2300 C2297 1.499 . S
C2300 C2301 1.373 . S
C2300 C2302 1.389 . S
C2301 H2280 0.950 . S
C2301 C2300 1.373 . S
C2301 C2317 1.377 . S
C2302 C2300 1.389 . S
C2302 C2303 1.524 . S
C2302 C2316 1.377 . S
C2303 C2302 1.524 . S
C2303 C2304 1.397 . S
C2303 C2308 1.363 . S
C2304 H2281 0.950 . S
C2304 C2303 1.397 . S
C2304 C2305 1.334 . S
C2305 H2282 0.950 . S
C2305 C2304 1.334 . S
C2305 C2306 1.287 . S
C2306 C2305 1.287 . S
C2306 C2307 1.524 . S
C2306 H2325 0.913 . S
C2307 H2283 0.950 . S
C2307 C2306 1.524 . S
C2307 C2308 1.415 . S
C2308 H2284 0.950 . S
C2308 C2303 1.363 . S
C2308 C2307 1.415 . S
C2309 H2285 0.951 . S
C2309 C2310 1.366 . S
C2309 C2311 1.388 . S
C2310 C2309 1.366 . S
C2310 C2314 1.385 . S
C2311 H2286 0.951 . S
C2311 C2309 1.388 . S
C2311 C2312 1.366 . S
C2312 C2311 1.366 . S
C2312 C2313 1.414 . S
C2312 C2315 1.499 . S
C2313 H2287 0.950 . S
C2313 C2312 1.414 . S
C2313 C2314 1.374 . S
C2314 H2288 0.950 . S
C2314 C2310 1.385 . S
C2314 C2313 1.374 . S
C2315 C2312 1.499 . S
C2315 C2316 1.373 . S
C2315 C2317 1.389 . S
C2316 H2289 0.950 . S
C2316 C2302 1.377 . S
C2316 C2315 1.373 . S
C2317 C2301 1.377 . S
C2317 C2315 1.389 . S
C2317 C2318 1.524 . S
C2318 C2317 1.524 . S
C2318 C2319 1.397 . S
C2318 C2323 1.363 . S
C2319 H2290 0.950 . S
C2319 C2318 1.397 . S
C2319 C2320 1.334 . S
C2320 H2291 0.950 . S
C2320 C2319 1.334 . S
C2320 C2321 1.287 . S
C2321 C2320 1.287 . S
C2321 C2322 1.524 . S
C2321 H2324 0.999 . S
C2322 H2292 0.950 . S
C2322 C2321 1.524 . S
C2322 C2323 1.415 . S
C2323 H2293 0.950 . S
C2323 C2318 1.363 . S
C2323 C2322 1.415 . S
H2324 C2321 0.999 . S
H2325 C2306 0.913 . S
H2326 C2344 0.951 . S
H2327 C2346 0.951 . S
H2328 C2348 0.950 . S
H2329 C2349 0.950 . S
H2330 C2351 0.950 . S
H2331 C2354 0.950 . S
H2332 C2355 0.950 . S
H2333 C2357 0.950 . S
H2334 C2358 0.950 . S
H2335 C2359 0.951 . S
H2336 C2361 0.951 . S
H2337 C2363 0.950 . S
H2338 C2364 0.950 . S
H2339 C2366 0.950 . S
H2340 C2369 0.950 . S
H2341 C2370 0.950 . S
H2342 C2372 0.950 . S
H2343 C2373 0.950 . S
C2344 H2326 0.951 . S
C2344 C2345 1.366 . S
C2344 C2346 1.388 . S
C2345 C2344 1.366 . S
C2345 C2349 1.385 . S
C2346 H2327 0.951 . S
C2346 C2344 1.388 . S
C2346 C2347 1.366 . S
C2347 C2346 1.366 . S
C2347 C2348 1.414 . S
C2347 C2350 1.499 . S
C2348 H2328 0.950 . S
C2348 C2347 1.414 . S
C2348 C2349 1.374 . S
C2349 H2329 0.950 . S
C2349 C2345 1.385 . S
C2349 C2348 1.374 . S
C2350 C2347 1.499 . S
C2350 C2351 1.373 . S
C2350 C2352 1.389 . S
C2351 H2330 0.950 . S
C2351 C2350 1.373 . S
C2351 C2367 1.377 . S
C2352 C2350 1.389 . S
C2352 C2353 1.524 . S
C2352 C2366 1.377 . S
C2353 C2352 1.524 . S
C2353 C2354 1.397 . S
C2353 C2358 1.363 . S
C2354 H2331 0.950 . S
C2354 C2353 1.397 . S
C2354 C2355 1.334 . S
C2355 H2332 0.950 . S
C2355 C2354 1.334 . S
C2355 C2356 1.287 . S
C2356 C2355 1.287 . S
C2356 C2357 1.524 . S
C2356 H2375 0.913 . S
C2357 H2333 0.950 . S
C2357 C2356 1.524 . S
C2357 C2358 1.415 . S
C2358 H2334 0.950 . S
C2358 C2353 1.363 . S
C2358 C2357 1.415 . S
C2359 H2335 0.951 . S
C2359 C2360 1.366 . S
C2359 C2361 1.388 . S
C2360 C2359 1.366 . S
C2360 C2364 1.385 . S
C2361 H2336 0.951 . S
C2361 C2359 1.388 . S
C2361 C2362 1.366 . S
C2362 C2361 1.366 . S
C2362 C2363 1.414 . S
C2362 C2365 1.499 . S
C2363 H2337 0.950 . S
C2363 C2362 1.414 . S
C2363 C2364 1.374 . S
C2364 H2338 0.950 . S
C2364 C2360 1.385 . S
C2364 C2363 1.374 . S
C2365 C2362 1.499 . S
C2365 C2366 1.373 . S
C2365 C2367 1.389 . S
C2366 H2339 0.950 . S
C2366 C2352 1.377 . S
C2366 C2365 1.373 . S
C2367 C2351 1.377 . S
C2367 C2365 1.389 . S
C2367 C2368 1.524 . S
C2368 C2367 1.524 . S
C2368 C2369 1.397 . S
C2368 C2373 1.363 . S
C2369 H2340 0.950 . S
C2369 C2368 1.397 . S
C2369 C2370 1.334 . S
C2370 H2341 0.950 . S
C2370 C2369 1.334 . S
C2370 C2371 1.287 . S
C2371 C2370 1.287 . S
C2371 C2372 1.524 . S
C2371 H2374 0.999 . S
C2372 H2342 0.950 . S
C2372 C2371 1.524 . S
C2372 C2373 1.415 . S
C2373 H2343 0.950 . S
C2373 C2368 1.363 . S
C2373 C2372 1.415 . S
H2374 C2371 0.999 . S
H2375 C2356 0.913 . S
H2376 C2394 0.951 . S
H2377 C2396 0.951 . S
H2378 C2398 0.950 . S
H2379 C2399 0.950 . S
H2380 C2401 0.950 . S
H2381 C2404 0.950 . S
H2382 C2405 0.950 . S
H2383 C2407 0.950 . S
H2384 C2408 0.950 . S
H2385 C2409 0.951 . S
H2386 C2411 0.951 . S
H2387 C2413 0.950 . S
H2388 C2414 0.950 . S
H2389 C2416 0.950 . S
H2390 C2419 0.950 . S
H2391 C2420 0.950 . S
H2392 C2422 0.950 . S
H2393 C2423 0.950 . S
C2394 H2376 0.951 . S
C2394 C2395 1.366 . S
C2394 C2396 1.388 . S
C2395 C2394 1.366 . S
C2395 C2399 1.385 . S
C2396 H2377 0.951 . S
C2396 C2394 1.388 . S
C2396 C2397 1.366 . S
C2397 C2396 1.366 . S
C2397 C2398 1.414 . S
C2397 C2400 1.499 . S
C2398 H2378 0.950 . S
C2398 C2397 1.414 . S
C2398 C2399 1.374 . S
C2399 H2379 0.950 . S
C2399 C2395 1.385 . S
C2399 C2398 1.374 . S
C2400 C2397 1.499 . S
C2400 C2401 1.373 . S
C2400 C2402 1.389 . S
C2401 H2380 0.950 . S
C2401 C2400 1.373 . S
C2401 C2417 1.377 . S
C2402 C2400 1.389 . S
C2402 C2403 1.524 . S
C2402 C2416 1.377 . S
C2403 C2402 1.524 . S
C2403 C2404 1.397 . S
C2403 C2408 1.363 . S
C2404 H2381 0.950 . S
C2404 C2403 1.397 . S
C2404 C2405 1.334 . S
C2405 H2382 0.950 . S
C2405 C2404 1.334 . S
C2405 C2406 1.287 . S
C2406 C2405 1.287 . S
C2406 C2407 1.524 . S
C2406 H2425 0.913 . S
C2407 H2383 0.950 . S
C2407 C2406 1.524 . S
C2407 C2408 1.415 . S
C2408 H2384 0.950 . S
C2408 C2403 1.363 . S
C2408 C2407 1.415 . S
C2409 H2385 0.951 . S
C2409 C2410 1.366 . S
C2409 C2411 1.388 . S
C2410 C2409 1.366 . S
C2410 C2414 1.385 . S
C2411 H2386 0.951 . S
C2411 C2409 1.388 . S
C2411 C2412 1.366 . S
C2412 C2411 1.366 . S
C2412 C2413 1.414 . S
C2412 C2415 1.499 . S
C2413 H2387 0.950 . S
C2413 C2412 1.414 . S
C2413 C2414 1.374 . S
C2414 H2388 0.950 . S
C2414 C2410 1.385 . S
C2414 C2413 1.374 . S
C2415 C2412 1.499 . S
C2415 C2416 1.373 . S
C2415 C2417 1.389 . S
C2416 H2389 0.950 . S
C2416 C2402 1.377 . S
C2416 C2415 1.373 . S
C2417 C2401 1.377 . S
C2417 C2415 1.389 . S
C2417 C2418 1.524 . S
C2418 C2417 1.524 . S
C2418 C2419 1.397 . S
C2418 C2423 1.363 . S
C2419 H2390 0.950 . S
C2419 C2418 1.397 . S
C2419 C2420 1.334 . S
C2420 H2391 0.950 . S
C2420 C2419 1.334 . S
C2420 C2421 1.287 . S
C2421 C2420 1.287 . S
C2421 C2422 1.524 . S
C2421 H2424 0.999 . S
C2422 H2392 0.950 . S
C2422 C2421 1.524 . S
C2422 C2423 1.415 . S
C2423 H2393 0.950 . S
C2423 C2418 1.363 . S
C2423 C2422 1.415 . S
H2424 C2421 0.999 . S
H2425 C2406 0.913 . S
H2426 C2444 0.951 . S
H2427 C2446 0.951 . S
H2428 C2448 0.950 . S
H2429 C2449 0.950 . S
H2430 C2451 0.950 . S
H2431 C2454 0.950 . S
H2432 C2455 0.950 . S
H2433 C2457 0.950 . S
H2434 C2458 0.950 . S
H2435 C2459 0.951 . S
H2436 C2461 0.951 . S
H2437 C2463 0.950 . S
H2438 C2464 0.950 . S
H2439 C2466 0.950 . S
H2440 C2469 0.950 . S
H2441 C2470 0.950 . S
H2442 C2472 0.950 . S
H2443 C2473 0.950 . S
C2444 H2426 0.951 . S
C2444 C2445 1.366 . S
C2444 C2446 1.388 . S
C2445 C2444 1.366 . S
C2445 C2449 1.385 . S
C2446 H2427 0.951 . S
C2446 C2444 1.388 . S
C2446 C2447 1.366 . S
C2447 C2446 1.366 . S
C2447 C2448 1.414 . S
C2447 C2450 1.499 . S
C2448 H2428 0.950 . S
C2448 C2447 1.414 . S
C2448 C2449 1.374 . S
C2449 H2429 0.950 . S
C2449 C2445 1.385 . S
C2449 C2448 1.374 . S
C2450 C2447 1.499 . S
C2450 C2451 1.373 . S
C2450 C2452 1.389 . S
C2451 H2430 0.950 . S
C2451 C2450 1.373 . S
C2451 C2467 1.377 . S
C2452 C2450 1.389 . S
C2452 C2453 1.524 . S
C2452 C2466 1.377 . S
C2453 C2452 1.524 . S
C2453 C2454 1.397 . S
C2453 C2458 1.363 . S
C2454 H2431 0.950 . S
C2454 C2453 1.397 . S
C2454 C2455 1.334 . S
C2455 H2432 0.950 . S
C2455 C2454 1.334 . S
C2455 C2456 1.287 . S
C2456 C2455 1.287 . S
C2456 C2457 1.524 . S
C2456 H2475 0.913 . S
C2457 H2433 0.950 . S
C2457 C2456 1.524 . S
C2457 C2458 1.415 . S
C2458 H2434 0.950 . S
C2458 C2453 1.363 . S
C2458 C2457 1.415 . S
C2459 H2435 0.951 . S
C2459 C2460 1.366 . S
C2459 C2461 1.388 . S
C2460 C2459 1.366 . S
C2460 C2464 1.385 . S
C2461 H2436 0.951 . S
C2461 C2459 1.388 . S
C2461 C2462 1.366 . S
C2462 C2461 1.366 . S
C2462 C2463 1.414 . S
C2462 C2465 1.499 . S
C2463 H2437 0.950 . S
C2463 C2462 1.414 . S
C2463 C2464 1.374 . S
C2464 H2438 0.950 . S
C2464 C2460 1.385 . S
C2464 C2463 1.374 . S
C2465 C2462 1.499 . S
C2465 C2466 1.373 . S
C2465 C2467 1.389 . S
C2466 H2439 0.950 . S
C2466 C2452 1.377 . S
C2466 C2465 1.373 . S
C2467 C2451 1.377 . S
C2467 C2465 1.389 . S
C2467 C2468 1.524 . S
C2468 C2467 1.524 . S
C2468 C2469 1.397 . S
C2468 C2473 1.363 . S
C2469 H2440 0.950 . S
C2469 C2468 1.397 . S
C2469 C2470 1.334 . S
C2470 H2441 0.950 . S
C2470 C2469 1.334 . S
C2470 C2471 1.287 . S
C2471 C2470 1.287 . S
C2471 C2472 1.524 . S
C2471 H2474 0.999 . S
C2472 H2442 0.950 . S
C2472 C2471 1.524 . S
C2472 C2473 1.415 . S
C2473 H2443 0.950 . S
C2473 C2468 1.363 . S
C2473 C2472 1.415 . S
H2474 C2471 0.999 . S
H2475 C2456 0.913 . S
H2476 C2494 0.951 . S
H2477 C2496 0.951 . S
H2478 C2498 0.950 . S
H2479 C2499 0.950 . S
H2480 C2501 0.950 . S
H2481 C2504 0.950 . S
H2482 C2505 0.950 . S
H2483 C2507 0.950 . S
H2484 C2508 0.950 . S
H2485 C2509 0.951 1_554 S
H2486 C2511 0.951 . S
H2487 C2513 0.950 . S
H2488 C2514 0.950 . S
H2489 C2516 0.950 . S
H2490 C2519 0.950 . S
H2491 C2520 0.950 . S
H2492 C2522 0.950 . S
H2493 C2523 0.950 . S
C2494 H2476 0.951 . S
C2494 C2495 1.366 . S
C2494 C2496 1.388 . S
C2495 C2494 1.366 . S
C2495 C2499 1.385 . S
C2496 H2477 0.951 . S
C2496 C2494 1.388 . S
C2496 C2497 1.366 . S
C2497 C2496 1.366 . S
C2497 C2498 1.414 . S
C2497 C2500 1.499 . S
C2498 H2478 0.950 . S
C2498 C2497 1.414 . S
C2498 C2499 1.374 . S
C2499 H2479 0.950 . S
C2499 C2495 1.385 . S
C2499 C2498 1.374 . S
C2500 C2497 1.499 . S
C2500 C2501 1.373 . S
C2500 C2502 1.389 . S
C2501 H2480 0.950 . S
C2501 C2500 1.373 . S
C2501 C2517 1.377 . S
C2502 C2500 1.389 . S
C2502 C2503 1.524 . S
C2502 C2516 1.377 . S
C2503 C2502 1.524 . S
C2503 C2504 1.397 . S
C2503 C2508 1.363 . S
C2504 H2481 0.950 . S
C2504 C2503 1.397 . S
C2504 C2505 1.334 . S
C2505 H2482 0.950 . S
C2505 C2504 1.334 . S
C2505 C2506 1.287 . S
C2506 C2505 1.287 . S
C2506 C2507 1.524 . S
C2506 H2525 0.913 . S
C2507 H2483 0.950 . S
C2507 C2506 1.524 . S
C2507 C2508 1.415 . S
C2508 H2484 0.950 . S
C2508 C2503 1.363 . S
C2508 C2507 1.415 . S
C2509 H2485 0.951 1_556 S
C2509 C2510 1.366 . S
C2509 C2511 1.388 . S
C2510 C2509 1.366 . S
C2510 C2514 1.385 . S
C2511 H2486 0.951 . S
C2511 C2509 1.388 . S
C2511 C2512 1.366 . S
C2512 C2511 1.366 . S
C2512 C2513 1.414 . S
C2512 C2515 1.499 . S
C2513 H2487 0.950 . S
C2513 C2512 1.414 . S
C2513 C2514 1.374 . S
C2514 H2488 0.950 . S
C2514 C2510 1.385 . S
C2514 C2513 1.374 . S
C2515 C2512 1.499 . S
C2515 C2516 1.373 . S
C2515 C2517 1.389 . S
C2516 H2489 0.950 . S
C2516 C2502 1.377 . S
C2516 C2515 1.373 . S
C2517 C2501 1.377 . S
C2517 C2515 1.389 . S
C2517 C2518 1.524 . S
C2518 C2517 1.524 . S
C2518 C2519 1.397 . S
C2518 C2523 1.363 . S
C2519 H2490 0.950 . S
C2519 C2518 1.397 . S
C2519 C2520 1.334 . S
C2520 H2491 0.950 . S
C2520 C2519 1.334 . S
C2520 C2521 1.287 1_556 S
C2521 C2520 1.287 1_554 S
C2521 C2522 1.524 . S
C2521 H2524 0.999 . S
C2522 H2492 0.950 . S
C2522 C2521 1.524 . S
C2522 C2523 1.415 1_554 S
C2523 H2493 0.950 . S
C2523 C2518 1.363 . S
C2523 C2522 1.415 1_556 S
H2524 C2521 0.999 . S
H2525 C2506 0.913 . S
H2526 C2544 0.951 . S
H2527 C2546 0.951 . S
H2528 C2548 0.950 . S
H2529 C2549 0.950 . S
H2530 C2551 0.950 . S
H2531 C2554 0.950 . S
H2532 C2555 0.950 . S
H2533 C2557 0.950 . S
H2534 C2558 0.950 . S
H2535 C2559 0.951 . S
H2536 C2561 0.951 . S
H2537 C2563 0.950 . S
H2538 C2564 0.950 . S
H2539 C2566 0.950 . S
H2540 C2569 0.950 . S
H2541 C2570 0.950 . S
H2542 C2572 0.950 . S
H2543 C2573 0.950 . S
C2544 H2526 0.951 . S
C2544 C2545 1.366 . S
C2544 C2546 1.388 . S
C2545 C2544 1.366 . S
C2545 C2549 1.385 . S
C2546 H2527 0.951 . S
C2546 C2544 1.388 . S
C2546 C2547 1.366 . S
C2547 C2546 1.366 . S
C2547 C2548 1.414 . S
C2547 C2550 1.499 . S
C2548 H2528 0.950 . S
C2548 C2547 1.414 . S
C2548 C2549 1.374 . S
C2549 H2529 0.950 . S
C2549 C2545 1.385 . S
C2549 C2548 1.374 . S
C2550 C2547 1.499 . S
C2550 C2551 1.373 . S
C2550 C2552 1.389 . S
C2551 H2530 0.950 . S
C2551 C2550 1.373 . S
C2551 C2567 1.377 . S
C2552 C2550 1.389 . S
C2552 C2553 1.524 . S
C2552 C2566 1.377 . S
C2553 C2552 1.524 . S
C2553 C2554 1.397 . S
C2553 C2558 1.363 . S
C2554 H2531 0.950 . S
C2554 C2553 1.397 . S
C2554 C2555 1.334 . S
C2555 H2532 0.950 . S
C2555 C2554 1.334 . S
C2555 C2556 1.287 . S
C2556 C2555 1.287 . S
C2556 C2557 1.524 . S
C2556 H2575 0.913 . S
C2557 H2533 0.950 . S
C2557 C2556 1.524 . S
C2557 C2558 1.415 . S
C2558 H2534 0.950 . S
C2558 C2553 1.363 . S
C2558 C2557 1.415 . S
C2559 H2535 0.951 . S
C2559 C2560 1.366 . S
C2559 C2561 1.388 . S
C2560 C2559 1.366 . S
C2560 C2564 1.385 . S
C2561 H2536 0.951 . S
C2561 C2559 1.388 . S
C2561 C2562 1.366 . S
C2562 C2561 1.366 . S
C2562 C2563 1.414 . S
C2562 C2565 1.499 . S
C2563 H2537 0.950 . S
C2563 C2562 1.414 . S
C2563 C2564 1.374 . S
C2564 H2538 0.950 . S
C2564 C2560 1.385 . S
C2564 C2563 1.374 . S
C2565 C2562 1.499 . S
C2565 C2566 1.373 . S
C2565 C2567 1.389 . S
C2566 H2539 0.950 . S
C2566 C2552 1.377 . S
C2566 C2565 1.373 . S
C2567 C2551 1.377 . S
C2567 C2565 1.389 . S
C2567 C2568 1.524 . S
C2568 C2567 1.524 . S
C2568 C2569 1.397 . S
C2568 C2573 1.363 . S
C2569 H2540 0.950 . S
C2569 C2568 1.397 . S
C2569 C2570 1.334 . S
C2570 H2541 0.950 . S
C2570 C2569 1.334 . S
C2570 C2571 1.287 . S
C2571 C2570 1.287 . S
C2571 C2572 1.524 . S
C2571 H2574 0.999 . S
C2572 H2542 0.950 . S
C2572 C2571 1.524 . S
C2572 C2573 1.415 . S
C2573 H2543 0.950 . S
C2573 C2568 1.363 . S
C2573 C2572 1.415 . S
H2574 C2571 0.999 . S
H2575 C2556 0.913 . S
H2576 C2594 0.951 . S
H2577 C2596 0.951 . S
H2578 C2598 0.950 . S
H2579 C2599 0.950 . S
H2580 C2601 0.950 . S
H2581 C2604 0.950 . S
H2582 C2605 0.950 . S
H2583 C2607 0.950 . S
H2584 C2608 0.950 . S
H2585 C2609 0.951 . S
H2586 C2611 0.951 . S
H2587 C2613 0.950 . S
H2588 C2614 0.991 . S
H2589 C2616 0.950 . S
H2590 C2619 0.950 . S
H2591 C2620 0.950 . S
H2592 C2622 0.950 . S
H2593 C2623 0.950 . S
C2594 H2576 0.951 . S
C2594 C2595 1.366 1_565 S
C2594 C2596 1.388 . S
C2595 C2594 1.366 1_545 S
C2595 C2599 1.385 . S
C2596 H2577 0.951 . S
C2596 C2594 1.388 . S
C2596 C2597 1.366 1_565 S
C2597 C2596 1.366 1_545 S
C2597 C2598 1.414 . S
C2597 C2600 1.499 . S
C2598 H2578 0.950 . S
C2598 C2597 1.414 . S
C2598 C2599 1.374 . S
C2599 H2579 0.950 . S
C2599 C2595 1.385 . S
C2599 C2598 1.374 . S
C2600 C2597 1.499 . S
C2600 C2601 1.373 . S
C2600 C2602 1.389 1_545 S
C2601 H2580 0.950 . S
C2601 C2600 1.373 . S
C2601 C2617 1.377 . S
C2602 C2600 1.389 1_565 S
C2602 C2603 1.524 . S
C2602 C2616 1.377 . S
C2603 C2602 1.524 . S
C2603 C2604 1.397 . S
C2603 C2608 1.363 . S
C2604 H2581 0.950 . S
C2604 C2603 1.397 . S
C2604 C2605 1.334 . S
C2605 H2582 0.950 . S
C2605 C2604 1.334 . S
C2605 C2606 1.287 . S
C2606 C2605 1.287 . S
C2606 C2607 1.524 . S
C2606 H2625 0.913 . S
C2607 H2583 0.950 . S
C2607 C2606 1.524 . S
C2607 C2608 1.415 . S
C2608 H2584 0.950 . S
C2608 C2603 1.363 . S
C2608 C2607 1.415 . S
C2609 H2585 0.951 . S
C2609 C2610 1.366 . S
C2609 C2611 1.388 . S
C2610 C2609 1.366 . S
C2610 C2614 1.342 1_545 S
C2611 H2586 0.951 . S
C2611 C2609 1.388 . S
C2611 C2612 1.366 . S
C2612 C2611 1.366 . S
C2612 C2613 1.414 1_545 S
C2612 C2615 1.499 . S
C2613 H2587 0.950 . S
C2613 C2612 1.414 1_565 S
C2613 C2614 1.377 . S
C2614 H2588 0.991 . S
C2614 C2610 1.342 1_565 S
C2614 C2613 1.377 . S
C2615 C2612 1.499 . S
C2615 C2616 1.373 1_545 S
C2615 C2617 1.389 . S
C2616 H2589 0.950 . S
C2616 C2602 1.377 . S
C2616 C2615 1.373 1_565 S
C2617 C2601 1.377 . S
C2617 C2615 1.389 . S
C2617 C2618 1.524 . S
C2618 C2617 1.524 . S
C2618 C2619 1.397 . S
C2618 C2623 1.363 . S
C2619 H2590 0.950 . S
C2619 C2618 1.397 . S
C2619 C2620 1.334 . S
C2620 H2591 0.950 . S
C2620 C2619 1.334 . S
C2620 C2621 1.287 . S
C2621 C2620 1.287 . S
C2621 C2622 1.524 . S
C2621 H2624 0.999 . S
C2622 H2592 0.950 . S
C2622 C2621 1.524 . S
C2622 C2623 1.415 . S
C2623 H2593 0.950 . S
C2623 C2618 1.363 . S
C2623 C2622 1.415 . S
H2624 C2621 0.999 . S
H2625 C2606 0.913 . S
H2626 C2644 0.951 . S
H2627 C2646 0.951 . S
H2628 C2648 0.950 . S
H2629 C2649 0.950 . S
H2630 C2651 0.950 . S
H2631 C2654 0.950 . S
H2632 C2655 0.950 . S
H2633 C2657 0.950 . S
H2634 C2658 0.950 . S
H2635 C2659 0.951 . S
H2636 C2661 0.951 . S
H2637 C2663 0.950 . S
H2638 C2664 0.950 . S
H2639 C2666 0.950 . S
H2640 C2669 0.950 . S
H2641 C2670 0.950 . S
H2642 C2672 0.950 . S
H2643 C2673 0.950 . S
C2644 H2626 0.951 . S
C2644 C2645 1.366 . S
C2644 C2646 1.388 . S
C2645 C2644 1.366 . S
C2645 C2649 1.385 . S
C2646 H2627 0.951 . S
C2646 C2644 1.388 . S
C2646 C2647 1.366 . S
C2647 C2646 1.366 . S
C2647 C2648 1.414 . S
C2647 C2650 1.499 . S
C2648 H2628 0.950 . S
C2648 C2647 1.414 . S
C2648 C2649 1.374 . S
C2649 H2629 0.950 . S
C2649 C2645 1.385 . S
C2649 C2648 1.374 . S
C2650 C2647 1.499 . S
C2650 C2651 1.373 . S
C2650 C2652 1.389 . S
C2651 H2630 0.950 . S
C2651 C2650 1.373 . S
C2651 C2667 1.377 . S
C2652 C2650 1.389 . S
C2652 C2653 1.524 . S
C2652 C2666 1.377 . S
C2653 C2652 1.524 . S
C2653 C2654 1.397 . S
C2653 C2658 1.363 . S
C2654 H2631 0.950 . S
C2654 C2653 1.397 . S
C2654 C2655 1.334 . S
C2655 H2632 0.950 . S
C2655 C2654 1.334 . S
C2655 C2656 1.287 . S
C2656 C2655 1.287 . S
C2656 C2657 1.524 . S
C2656 H2675 0.913 . S
C2657 H2633 0.950 . S
C2657 C2656 1.524 . S
C2657 C2658 1.415 . S
C2658 H2634 0.950 . S
C2658 C2653 1.363 . S
C2658 C2657 1.415 . S
C2659 H2635 0.951 . S
C2659 C2660 1.366 . S
C2659 C2661 1.388 . S
C2660 C2659 1.366 . S
C2660 C2664 1.385 . S
C2661 H2636 0.951 . S
C2661 C2659 1.388 . S
C2661 C2662 1.366 . S
C2662 C2661 1.366 . S
C2662 C2663 1.414 . S
C2662 C2665 1.499 . S
C2663 H2637 0.950 . S
C2663 C2662 1.414 . S
C2663 C2664 1.374 . S
C2664 H2638 0.950 . S
C2664 C2660 1.385 . S
C2664 C2663 1.374 . S
C2665 C2662 1.499 . S
C2665 C2666 1.373 . S
C2665 C2667 1.389 . S
C2666 H2639 0.950 . S
C2666 C2652 1.377 . S
C2666 C2665 1.373 . S
C2667 C2651 1.377 . S
C2667 C2665 1.389 . S
C2667 C2668 1.524 . S
C2668 C2667 1.524 . S
C2668 C2669 1.397 . S
C2668 C2673 1.363 . S
C2669 H2640 0.950 . S
C2669 C2668 1.397 . S
C2669 C2670 1.334 . S
C2670 H2641 0.950 . S
C2670 C2669 1.334 . S
C2670 C2671 1.287 . S
C2671 C2670 1.287 . S
C2671 C2672 1.524 . S
C2671 H2674 0.999 . S
C2672 H2642 0.950 . S
C2672 C2671 1.524 . S
C2672 C2673 1.415 . S
C2673 H2643 0.950 . S
C2673 C2668 1.363 . S
C2673 C2672 1.415 . S
H2674 C2671 0.999 . S
H2675 C2656 0.913 . S
H2676 C2694 0.951 1_565 S
H2677 C2696 0.923 1_565 S
H2678 C2698 0.950 . S
H2679 C2699 0.950 . S
H2680 C2701 0.950 . S
H2681 C2704 0.950 . S
H2682 C2705 0.950 . S
H2683 C2707 0.950 . S
H2684 C2708 0.950 . S
H2685 C2709 0.951 . S
H2686 C2711 0.951 . S
H2687 C2713 0.950 . S
H2688 C2714 0.950 . S
H2689 C2716 0.950 . S
H2690 C2719 0.950 . S
H2691 C2720 0.950 . S
H2692 C2722 0.950 . S
H2693 C2723 0.950 . S
C2694 H2676 0.951 1_545 S
C2694 C2695 1.366 . S
C2694 C2696 1.388 . S
C2695 C2694 1.366 . S
C2695 C2699 1.385 . S
C2696 H2677 0.923 1_545 S
C2696 C2694 1.388 . S
C2696 C2697 1.366 . S
C2697 C2696 1.366 . S
C2697 C2698 1.414 . S
C2697 C2700 1.499 . S
C2698 H2678 0.950 . S
C2698 C2697 1.414 . S
C2698 C2699 1.374 . S
C2699 H2679 0.950 . S
C2699 C2695 1.385 . S
C2699 C2698 1.374 . S
C2700 C2697 1.499 . S
C2700 C2701 1.373 . S
C2700 C2702 1.389 . S
C2701 H2680 0.950 . S
C2701 C2700 1.373 . S
C2701 C2717 1.377 . S
C2702 C2700 1.389 . S
C2702 C2703 1.524 . S
C2702 C2716 1.377 . S
C2703 C2702 1.524 . S
C2703 C2704 1.397 . S
C2703 C2708 1.363 . S
C2704 H2681 0.950 . S
C2704 C2703 1.397 . S
C2704 C2705 1.334 . S
C2705 H2682 0.950 . S
C2705 C2704 1.334 . S
C2705 C2706 1.287 . S
C2706 C2705 1.287 . S
C2706 C2707 1.524 . S
C2706 H2725 0.913 . S
C2707 H2683 0.950 . S
C2707 C2706 1.524 . S
C2707 C2708 1.415 . S
C2708 H2684 0.950 . S
C2708 C2703 1.363 . S
C2708 C2707 1.415 . S
C2709 H2685 0.951 . S
C2709 C2710 1.366 . S
C2709 C2711 1.388 . S
C2710 C2709 1.366 . S
C2710 C2714 1.385 . S
C2711 H2686 0.951 . S
C2711 C2709 1.388 . S
C2711 C2712 1.366 . S
C2712 C2711 1.366 . S
C2712 C2713 1.414 . S
C2712 C2715 1.499 . S
C2713 H2687 0.950 . S
C2713 C2712 1.414 . S
C2713 C2714 1.374 . S
C2714 H2688 0.950 . S
C2714 C2710 1.385 . S
C2714 C2713 1.374 . S
C2715 C2712 1.499 . S
C2715 C2716 1.373 . S
C2715 C2717 1.389 . S
C2716 H2689 0.950 . S
C2716 C2702 1.377 . S
C2716 C2715 1.373 . S
C2717 C2701 1.377 . S
C2717 C2715 1.389 . S
C2717 C2718 1.524 . S
C2718 C2717 1.524 . S
C2718 C2719 1.397 1_545 S
C2718 C2723 1.363 . S
C2719 H2690 0.950 . S
C2719 C2718 1.397 1_565 S
C2719 C2720 1.334 . S
C2720 H2691 0.950 . S
C2720 C2719 1.334 . S
C2720 C2721 1.287 . S
C2721 C2720 1.287 . S
C2721 C2722 1.524 1_565 S
C2721 H2724 0.999 . S
C2722 H2692 0.950 . S
C2722 C2721 1.524 1_545 S
C2722 C2723 1.415 . S
C2723 H2693 0.950 . S
C2723 C2718 1.363 . S
C2723 C2722 1.415 . S
H2724 C2721 0.999 . S
H2725 C2706 0.913 . S
H2726 C2744 0.951 . S
H2727 C2746 0.951 . S
H2728 C2748 0.950 . S
H2729 C2749 0.950 . S
H2730 C2751 0.950 . S
H2731 C2754 0.950 . S
H2732 C2755 0.950 . S
H2733 C2757 0.950 . S
H2734 C2758 0.950 . S
H2735 C2759 0.951 . S
H2736 C2761 0.951 . S
H2737 C2763 0.950 . S
H2738 C2764 0.950 . S
H2739 C2766 0.950 . S
H2740 C2769 0.950 . S
H2741 C2770 0.950 . S
H2742 C2772 0.950 . S
H2743 C2773 0.950 . S
C2744 H2726 0.951 . S
C2744 C2745 1.366 . S
C2744 C2746 1.388 . S
C2745 C2744 1.366 . S
C2745 C2749 1.385 . S
C2746 H2727 0.951 . S
C2746 C2744 1.388 . S
C2746 C2747 1.366 . S
C2747 C2746 1.366 . S
C2747 C2748 1.414 . S
C2747 C2750 1.499 . S
C2748 H2728 0.950 . S
C2748 C2747 1.414 . S
C2748 C2749 1.374 . S
C2749 H2729 0.950 . S
C2749 C2745 1.385 . S
C2749 C2748 1.374 . S
C2750 C2747 1.499 . S
C2750 C2751 1.373 . S
C2750 C2752 1.389 . S
C2751 H2730 0.950 . S
C2751 C2750 1.373 . S
C2751 C2767 1.377 . S
C2752 C2750 1.389 . S
C2752 C2753 1.524 . S
C2752 C2766 1.377 . S
C2753 C2752 1.524 . S
C2753 C2754 1.397 . S
C2753 C2758 1.363 . S
C2754 H2731 0.950 . S
C2754 C2753 1.397 . S
C2754 C2755 1.334 . S
C2755 H2732 0.950 . S
C2755 C2754 1.334 . S
C2755 C2756 1.287 . S
C2756 C2755 1.287 . S
C2756 C2757 1.524 . S
C2756 H2775 0.913 . S
C2757 H2733 0.950 . S
C2757 C2756 1.524 . S
C2757 C2758 1.415 . S
C2758 H2734 0.950 . S
C2758 C2753 1.363 . S
C2758 C2757 1.415 . S
C2759 H2735 0.951 . S
C2759 C2760 1.366 . S
C2759 C2761 1.388 . S
C2760 C2759 1.366 . S
C2760 C2764 1.385 . S
C2761 H2736 0.951 . S
C2761 C2759 1.388 . S
C2761 C2762 1.366 . S
C2762 C2761 1.366 . S
C2762 C2763 1.414 . S
C2762 C2765 1.499 . S
C2763 H2737 0.950 . S
C2763 C2762 1.414 . S
C2763 C2764 1.374 . S
C2764 H2738 0.950 . S
C2764 C2760 1.385 . S
C2764 C2763 1.374 . S
C2765 C2762 1.499 . S
C2765 C2766 1.373 . S
C2765 C2767 1.389 . S
C2766 H2739 0.950 . S
C2766 C2752 1.377 . S
C2766 C2765 1.373 . S
C2767 C2751 1.377 . S
C2767 C2765 1.389 . S
C2767 C2768 1.524 . S
C2768 C2767 1.524 . S
C2768 C2769 1.397 . S
C2768 C2773 1.363 . S
C2769 H2740 0.950 . S
C2769 C2768 1.397 . S
C2769 C2770 1.334 . S
C2770 H2741 0.950 . S
C2770 C2769 1.334 . S
C2770 C2771 1.287 . S
C2771 C2770 1.287 . S
C2771 C2772 1.524 . S
C2771 H2774 0.999 . S
C2772 H2742 0.950 . S
C2772 C2771 1.524 . S
C2772 C2773 1.415 . S
C2773 H2743 0.950 . S
C2773 C2768 1.363 . S
C2773 C2772 1.415 . S
H2774 C2771 0.999 . S
H2775 C2756 0.913 . S
H2776 C2794 0.946 . S
H2777 C2796 0.951 . S
H2778 C2798 0.953 . S
H2779 C2799 0.950 . S
H2780 C2801 0.950 . S
H2781 C2804 0.950 . S
H2782 C2805 0.950 . S
H2783 C2807 0.950 . S
H2784 C2808 0.950 . S
H2785 C2809 0.951 . S
H2786 C2811 0.951 . S
H2787 C2813 0.950 . S
H2788 C2814 0.950 . S
H2789 C2816 0.950 . S
H2790 C2819 0.950 . S
H2791 C2820 0.950 . S
H2792 C2822 0.950 . S
H2793 C2823 0.950 . S
C2794 H2776 0.946 . S
C2794 C2795 1.375 . S
C2794 C2796 1.367 1_565 S
C2795 C2794 1.375 . S
C2795 C2799 1.385 . S
C2796 H2777 0.951 . S
C2796 C2794 1.367 1_545 S
C2796 C2797 1.366 . S
C2797 C2796 1.366 . S
C2797 C2798 1.412 1_545 S
C2797 C2800 1.499 . S
C2798 H2778 0.953 . S
C2798 C2797 1.412 1_565 S
C2798 C2799 1.379 . S
C2799 H2779 0.950 . S
C2799 C2795 1.385 . S
C2799 C2798 1.379 . S
C2800 C2797 1.499 . S
C2800 C2801 1.373 1_545 S
C2800 C2802 1.389 . S
C2801 H2780 0.950 . S
C2801 C2800 1.373 1_565 S
C2801 C2817 1.377 . S
C2802 C2800 1.389 . S
C2802 C2803 1.524 . S
C2802 C2816 1.377 . S
C2803 C2802 1.524 . S
C2803 C2804 1.397 . S
C2803 C2808 1.363 . S
C2804 H2781 0.950 . S
C2804 C2803 1.397 . S
C2804 C2805 1.334 . S
C2805 H2782 0.950 . S
C2805 C2804 1.334 . S
C2805 C2806 1.287 . S
C2806 C2805 1.287 . S
C2806 C2807 1.524 . S
C2806 H2825 0.913 . S
C2807 H2783 0.950 . S
C2807 C2806 1.524 . S
C2807 C2808 1.415 . S
C2808 H2784 0.950 . S
C2808 C2803 1.363 . S
C2808 C2807 1.415 . S
C2809 H2785 0.951 . S
C2809 C2810 1.366 . S
C2809 C2811 1.388 . S
C2810 C2809 1.366 . S
C2810 C2814 1.385 . S
C2811 H2786 0.951 . S
C2811 C2809 1.388 . S
C2811 C2812 1.366 . S
C2812 C2811 1.366 . S
C2812 C2813 1.414 . S
C2812 C2815 1.499 . S
C2813 H2787 0.950 . S
C2813 C2812 1.414 . S
C2813 C2814 1.374 . S
C2814 H2788 0.950 . S
C2814 C2810 1.385 . S
C2814 C2813 1.374 . S
C2815 C2812 1.499 . S
C2815 C2816 1.373 . S
C2815 C2817 1.389 1_545 S
C2816 H2789 0.950 . S
C2816 C2802 1.377 . S
C2816 C2815 1.373 . S
C2817 C2801 1.377 . S
C2817 C2815 1.389 1_565 S
C2817 C2818 1.524 . S
C2818 C2817 1.524 . S
C2818 C2819 1.397 . S
C2818 C2823 1.363 . S
C2819 H2790 0.950 . S
C2819 C2818 1.397 . S
C2819 C2820 1.334 . S
C2820 H2791 0.950 . S
C2820 C2819 1.334 . S
C2820 C2821 1.287 . S
C2821 C2820 1.287 . S
C2821 C2822 1.524 . S
C2821 H2824 0.999 . S
C2822 H2792 0.950 . S
C2822 C2821 1.524 . S
C2822 C2823 1.415 . S
C2823 H2793 0.950 . S
C2823 C2818 1.363 . S
C2823 C2822 1.415 . S
H2824 C2821 0.999 . S
H2825 C2806 0.913 . S
H2826 C2844 0.951 . S
H2827 C2846 0.951 . S
H2828 C2848 0.950 . S
H2829 C2849 0.950 . S
H2830 C2851 0.950 . S
H2831 C2854 0.950 . S
H2832 C2855 0.950 . S
H2833 C2857 0.950 . S
H2834 C2858 0.950 . S
H2835 C2859 0.951 . S
H2836 C2861 0.951 . S
H2837 C2863 0.950 . S
H2838 C2864 0.950 . S
H2839 C2866 0.950 . S
H2840 C2869 0.950 . S
H2841 C2870 0.950 . S
H2842 C2872 0.950 . S
H2843 C2873 0.950 . S
C2844 H2826 0.951 . S
C2844 C2845 1.366 . S
C2844 C2846 1.388 . S
C2845 C2844 1.366 . S
C2845 C2849 1.385 . S
C2846 H2827 0.951 . S
C2846 C2844 1.388 . S
C2846 C2847 1.366 . S
C2847 C2846 1.366 . S
C2847 C2848 1.414 . S
C2847 C2850 1.499 . S
C2848 H2828 0.950 . S
C2848 C2847 1.414 . S
C2848 C2849 1.374 . S
C2849 H2829 0.950 . S
C2849 C2845 1.385 . S
C2849 C2848 1.374 . S
C2850 C2847 1.499 . S
C2850 C2851 1.373 . S
C2850 C2852 1.389 . S
C2851 H2830 0.950 . S
C2851 C2850 1.373 . S
C2851 C2867 1.377 . S
C2852 C2850 1.389 . S
C2852 C2853 1.524 . S
C2852 C2866 1.377 . S
C2853 C2852 1.524 . S
C2853 C2854 1.397 . S
C2853 C2858 1.363 . S
C2854 H2831 0.950 . S
C2854 C2853 1.397 . S
C2854 C2855 1.334 . S
C2855 H2832 0.950 . S
C2855 C2854 1.334 . S
C2855 C2856 1.287 . S
C2856 C2855 1.287 . S
C2856 C2857 1.524 . S
C2856 H2875 0.913 . S
C2857 H2833 0.950 . S
C2857 C2856 1.524 . S
C2857 C2858 1.415 . S
C2858 H2834 0.950 . S
C2858 C2853 1.363 . S
C2858 C2857 1.415 . S
C2859 H2835 0.951 . S
C2859 C2860 1.366 . S
C2859 C2861 1.388 . S
C2860 C2859 1.366 . S
C2860 C2864 1.385 . S
C2861 H2836 0.951 . S
C2861 C2859 1.388 . S
C2861 C2862 1.366 . S
C2862 C2861 1.366 . S
C2862 C2863 1.414 . S
C2862 C2865 1.499 . S
C2863 H2837 0.950 . S
C2863 C2862 1.414 . S
C2863 C2864 1.374 . S
C2864 H2838 0.950 . S
C2864 C2860 1.385 . S
C2864 C2863 1.374 . S
C2865 C2862 1.499 . S
C2865 C2866 1.373 . S
C2865 C2867 1.389 . S
C2866 H2839 0.950 . S
C2866 C2852 1.377 . S
C2866 C2865 1.373 . S
C2867 C2851 1.377 . S
C2867 C2865 1.389 . S
C2867 C2868 1.524 . S
C2868 C2867 1.524 . S
C2868 C2869 1.397 . S
C2868 C2873 1.363 . S
C2869 H2840 0.950 . S
C2869 C2868 1.397 . S
C2869 C2870 1.334 . S
C2870 H2841 0.950 . S
C2870 C2869 1.334 . S
C2870 C2871 1.287 . S
C2871 C2870 1.287 . S
C2871 C2872 1.524 . S
C2871 H2874 0.999 . S
C2872 H2842 0.950 . S
C2872 C2871 1.524 . S
C2872 C2873 1.415 . S
C2873 H2843 0.950 . S
C2873 C2868 1.363 . S
C2873 C2872 1.415 . S
H2874 C2871 0.999 . S
H2875 C2856 0.913 . S
H2876 C2894 0.951 . S
H2877 C2896 0.951 . S
H2878 C2898 0.950 . S
H2879 C2899 0.950 . S
H2880 C2901 0.950 . S
H2881 C2904 0.950 . S
H2882 C2905 0.950 . S
H2883 C2907 0.950 . S
H2884 C2908 0.950 . S
H2885 C2909 0.951 . S
H2886 C2911 0.951 . S
H2887 C2913 0.950 . S
H2888 C2914 0.950 . S
H2889 C2916 0.950 . S
H2890 C2919 0.950 . S
H2891 C2920 0.950 . S
H2892 C2922 0.950 . S
H2893 C2923 0.950 . S
C2894 H2876 0.951 . S
C2894 C2895 1.366 1_565 S
C2894 C2896 1.388 . S
C2895 C2894 1.366 1_545 S
C2895 C2899 1.385 . S
C2896 H2877 0.951 . S
C2896 C2894 1.388 . S
C2896 C2897 1.366 1_565 S
C2897 C2896 1.366 1_545 S
C2897 C2898 1.414 . S
C2897 C2900 1.499 1_545 S
C2898 H2878 0.950 . S
C2898 C2897 1.414 . S
C2898 C2899 1.374 . S
C2899 H2879 0.950 . S
C2899 C2895 1.385 . S
C2899 C2898 1.374 . S
C2900 C2897 1.499 1_565 S
C2900 C2901 1.374 1_565 S
C2900 C2902 1.388 . S
C2901 H2880 0.950 . S
C2901 C2900 1.374 1_545 S
C2901 C2917 1.377 . S
C2902 C2900 1.388 . S
C2902 C2903 1.524 . S
C2902 C2916 1.377 . S
C2903 C2902 1.524 . S
C2903 C2904 1.397 . S
C2903 C2908 1.363 . S
C2904 H2881 0.950 . S
C2904 C2903 1.397 . S
C2904 C2905 1.334 . S
C2905 H2882 0.950 . S
C2905 C2904 1.334 . S
C2905 C2906 1.287 . S
C2906 C2905 1.287 . S
C2906 C2907 1.524 . S
C2906 H2925 0.913 . S
C2907 H2883 0.950 . S
C2907 C2906 1.524 . S
C2907 C2908 1.415 . S
C2908 H2884 0.950 . S
C2908 C2903 1.363 . S
C2908 C2907 1.415 . S
C2909 H2885 0.951 . S
C2909 C2910 1.366 1_545 S
C2909 C2911 1.388 . S
C2910 C2909 1.366 1_565 S
C2910 C2914 1.385 . S
C2911 H2886 0.951 . S
C2911 C2909 1.388 . S
C2911 C2912 1.366 1_545 S
C2912 C2911 1.366 1_565 S
C2912 C2913 1.414 . S
C2912 C2915 1.499 . S
C2913 H2887 0.950 . S
C2913 C2912 1.414 . S
C2913 C2914 1.374 . S
C2914 H2888 0.950 . S
C2914 C2910 1.385 . S
C2914 C2913 1.374 . S
C2915 C2912 1.499 . S
C2915 C2916 1.373 . S
C2915 C2917 1.389 1_565 S
C2916 H2889 0.950 . S
C2916 C2902 1.377 . S
C2916 C2915 1.373 . S
C2917 C2901 1.377 . S
C2917 C2915 1.389 1_545 S
C2917 C2918 1.524 . S
C2918 C2917 1.524 . S
C2918 C2919 1.397 . S
C2918 C2923 1.363 . S
C2919 H2890 0.950 . S
C2919 C2918 1.397 . S
C2919 C2920 1.334 . S
C2920 H2891 0.950 . S
C2920 C2919 1.334 . S
C2920 C2921 1.287 . S
C2921 C2920 1.287 . S
C2921 C2922 1.524 . S
C2921 H2924 0.999 . S
C2922 H2892 0.950 . S
C2922 C2921 1.524 . S
C2922 C2923 1.415 . S
C2923 H2893 0.950 . S
C2923 C2918 1.363 . S
C2923 C2922 1.415 . S
H2924 C2921 0.999 . S
H2925 C2906 0.913 . S
H2926 C2944 0.951 . S
H2927 C2946 0.951 . S
H2928 C2948 0.950 . S
H2929 C2949 0.950 . S
H2930 C2951 0.950 . S
H2931 C2954 0.950 . S
H2932 C2955 0.950 . S
H2933 C2957 0.950 . S
H2934 C2958 0.950 . S
H2935 C2959 0.951 . S
H2936 C2961 0.951 . S
H2937 C2963 0.950 . S
H2938 C2964 0.950 . S
H2939 C2966 0.950 . S
H2940 C2969 0.950 . S
H2941 C2970 0.950 . S
H2942 C2972 0.950 . S
H2943 C2973 0.950 . S
C2944 H2926 0.951 . S
C2944 C2945 1.366 . S
C2944 C2946 1.388 . S
C2945 C2944 1.366 . S
C2945 C2949 1.385 . S
C2946 H2927 0.951 . S
C2946 C2944 1.388 . S
C2946 C2947 1.366 . S
C2947 C2946 1.366 . S
C2947 C2948 1.414 . S
C2947 C2950 1.499 . S
C2948 H2928 0.950 . S
C2948 C2947 1.414 . S
C2948 C2949 1.374 . S
C2949 H2929 0.950 . S
C2949 C2945 1.385 . S
C2949 C2948 1.374 . S
C2950 C2947 1.499 . S
C2950 C2951 1.373 . S
C2950 C2952 1.389 . S
C2951 H2930 0.950 . S
C2951 C2950 1.373 . S
C2951 C2967 1.377 . S
C2952 C2950 1.389 . S
C2952 C2953 1.524 . S
C2952 C2966 1.377 . S
C2953 C2952 1.524 . S
C2953 C2954 1.397 . S
C2953 C2958 1.363 . S
C2954 H2931 0.950 . S
C2954 C2953 1.397 . S
C2954 C2955 1.334 . S
C2955 H2932 0.950 . S
C2955 C2954 1.334 . S
C2955 C2956 1.287 . S
C2956 C2955 1.287 . S
C2956 C2957 1.524 . S
C2956 H2975 0.913 . S
C2957 H2933 0.950 . S
C2957 C2956 1.524 . S
C2957 C2958 1.415 . S
C2958 H2934 0.950 . S
C2958 C2953 1.363 . S
C2958 C2957 1.415 . S
C2959 H2935 0.951 . S
C2959 C2960 1.366 . S
C2959 C2961 1.388 . S
C2960 C2959 1.366 . S
C2960 C2964 1.385 . S
C2961 H2936 0.951 . S
C2961 C2959 1.388 . S
C2961 C2962 1.366 . S
C2962 C2961 1.366 . S
C2962 C2963 1.414 . S
C2962 C2965 1.499 . S
C2963 H2937 0.950 . S
C2963 C2962 1.414 . S
C2963 C2964 1.374 . S
C2964 H2938 0.950 . S
C2964 C2960 1.385 . S
C2964 C2963 1.374 . S
C2965 C2962 1.499 . S
C2965 C2966 1.373 . S
C2965 C2967 1.389 . S
C2966 H2939 0.950 . S
C2966 C2952 1.377 . S
C2966 C2965 1.373 . S
C2967 C2951 1.377 . S
C2967 C2965 1.389 . S
C2967 C2968 1.524 . S
C2968 C2967 1.524 . S
C2968 C2969 1.397 . S
C2968 C2973 1.363 . S
C2969 H2940 0.950 . S
C2969 C2968 1.397 . S
C2969 C2970 1.334 . S
C2970 H2941 0.950 . S
C2970 C2969 1.334 . S
C2970 C2971 1.287 . S
C2971 C2970 1.287 . S
C2971 C2972 1.524 . S
C2971 H2974 0.999 . S
C2972 H2942 0.950 . S
C2972 C2971 1.524 . S
C2972 C2973 1.415 . S
C2973 H2943 0.950 . S
C2973 C2968 1.363 . S
C2973 C2972 1.415 . S
H2974 C2971 0.999 . S
H2975 C2956 0.913 . S
H2976 C2994 0.951 . S
H2977 C2996 0.951 . S
H2978 C2998 0.967 . S
H2979 C2999 0.950 . S
H2980 C3001 0.950 . S
H2981 C3004 0.950 . S
H2982 C3005 0.950 . S
H2983 C3007 0.950 . S
H2984 C3008 0.950 . S
H2985 C3009 0.951 . S
H2986 C3011 0.951 . S
H2987 C3013 0.950 . S
H2988 C3014 0.950 . S
H2989 C3016 0.950 . S
H2990 C3019 0.950 . S
H2991 C3020 0.950 . S
H2992 C3022 0.950 . S
H2993 C3023 0.950 . S
C2994 H2976 0.951 . S
C2994 C2995 1.366 . S
C2994 C2996 1.388 . S
C2995 C2994 1.366 . S
C2995 C2999 1.385 . S
C2996 H2977 0.951 . S
C2996 C2994 1.388 . S
C2996 C2997 1.366 . S
C2997 C2996 1.366 . S
C2997 C2998 1.414 . S
C2997 C3000 1.499 1_554 S
C2998 H2978 0.967 . S
C2998 C2997 1.414 . S
C2998 C2999 1.374 . S
C2999 H2979 0.950 . S
C2999 C2995 1.385 . S
C2999 C2998 1.374 . S
C3000 C2997 1.499 1_556 S
C3000 C3001 1.373 . S
C3000 C3002 1.389 1_556 S
C3001 H2980 0.950 . S
C3001 C3000 1.373 . S
C3001 C3017 1.377 . S
C3002 C3000 1.389 1_554 S
C3002 C3003 1.524 . S
C3002 C3016 1.377 . S
C3003 C3002 1.524 . S
C3003 C3004 1.397 . S
C3003 C3008 1.363 . S
C3004 H2981 0.950 . S
C3004 C3003 1.397 . S
C3004 C3005 1.334 . S
C3005 H2982 0.950 . S
C3005 C3004 1.334 . S
C3005 C3006 1.287 . S
C3006 C3005 1.287 . S
C3006 C3007 1.524 . S
C3006 H3025 0.913 . S
C3007 H2983 0.950 . S
C3007 C3006 1.524 . S
C3007 C3008 1.415 . S
C3008 H2984 0.950 . S
C3008 C3003 1.363 . S
C3008 C3007 1.415 . S
C3009 H2985 0.951 . S
C3009 C3010 1.366 . S
C3009 C3011 1.388 . S
C3010 C3009 1.366 . S
C3010 C3014 1.385 . S
C3011 H2986 0.951 . S
C3011 C3009 1.388 . S
C3011 C3012 1.366 . S
C3012 C3011 1.366 . S
C3012 C3013 1.414 . S
C3012 C3015 1.499 . S
C3013 H2987 0.950 . S
C3013 C3012 1.414 . S
C3013 C3014 1.374 . S
C3014 H2988 0.950 . S
C3014 C3010 1.385 . S
C3014 C3013 1.374 . S
C3015 C3012 1.499 . S
C3015 C3016 1.373 1_556 S
C3015 C3017 1.389 . S
C3016 H2989 0.950 . S
C3016 C3002 1.377 . S
C3016 C3015 1.373 1_554 S
C3017 C3001 1.377 . S
C3017 C3015 1.389 . S
C3017 C3018 1.524 . S
C3018 C3017 1.524 . S
C3018 C3019 1.397 . S
C3018 C3023 1.363 . S
C3019 H2990 0.950 . S
C3019 C3018 1.397 . S
C3019 C3020 1.334 . S
C3020 H2991 0.950 . S
C3020 C3019 1.334 . S
C3020 C3021 1.287 . S
C3021 C3020 1.287 . S
C3021 C3022 1.524 . S
C3021 H3024 0.999 . S
C3022 H2992 0.950 . S
C3022 C3021 1.524 . S
C3022 C3023 1.415 . S
C3023 H2993 0.950 . S
C3023 C3018 1.363 . S
C3023 C3022 1.415 . S
H3024 C3021 0.999 . S
H3025 C3006 0.913 . S
H3026 C3044 0.951 . S
H3027 C3046 0.951 . S
H3028 C3048 0.950 . S
H3029 C3049 0.950 . S
H3030 C3051 0.950 . S
H3031 C3054 0.950 . S
H3032 C3055 0.950 . S
H3033 C3057 0.950 . S
H3034 C3058 0.950 . S
H3035 C3059 0.951 . S
H3036 C3061 0.951 . S
H3037 C3063 0.950 . S
H3038 C3064 0.950 . S
H3039 C3066 0.950 . S
H3040 C3069 0.950 . S
H3041 C3070 0.950 . S
H3042 C3072 0.950 . S
H3043 C3073 0.901 1_554 S
C3044 H3026 0.951 . S
C3044 C3045 1.366 . S
C3044 C3046 1.388 . S
C3045 C3044 1.366 . S
C3045 C3049 1.385 . S
C3046 H3027 0.951 . S
C3046 C3044 1.388 . S
C3046 C3047 1.366 . S
C3047 C3046 1.366 . S
C3047 C3048 1.414 . S
C3047 C3050 1.499 . S
C3048 H3028 0.950 . S
C3048 C3047 1.414 . S
C3048 C3049 1.374 . S
C3049 H3029 0.950 . S
C3049 C3045 1.385 . S
C3049 C3048 1.374 . S
C3050 C3047 1.499 . S
C3050 C3051 1.373 . S
C3050 C3052 1.389 . S
C3051 H3030 0.950 . S
C3051 C3050 1.373 . S
C3051 C3067 1.377 . S
C3052 C3050 1.389 . S
C3052 C3053 1.524 . S
C3052 C3066 1.377 . S
C3053 C3052 1.524 . S
C3053 C3054 1.397 . S
C3053 C3058 1.363 . S
C3054 H3031 0.950 . S
C3054 C3053 1.397 . S
C3054 C3055 1.334 . S
C3055 H3032 0.950 . S
C3055 C3054 1.334 . S
C3055 C3056 1.287 . S
C3056 C3055 1.287 . S
C3056 C3057 1.524 . S
C3056 H3075 0.913 . S
C3057 H3033 0.950 . S
C3057 C3056 1.524 . S
C3057 C3058 1.415 . S
C3058 H3034 0.950 . S
C3058 C3053 1.363 . S
C3058 C3057 1.415 . S
C3059 H3035 0.951 . S
C3059 C3060 1.366 . S
C3059 C3061 1.388 . S
C3060 C3059 1.366 . S
C3060 C3064 1.385 . S
C3061 H3036 0.951 . S
C3061 C3059 1.388 . S
C3061 C3062 1.366 . S
C3062 C3061 1.366 . S
C3062 C3063 1.414 . S
C3062 C3065 1.499 . S
C3063 H3037 0.950 . S
C3063 C3062 1.414 . S
C3063 C3064 1.374 . S
C3064 H3038 0.950 . S
C3064 C3060 1.385 . S
C3064 C3063 1.374 . S
C3065 C3062 1.499 . S
C3065 C3066 1.373 . S
C3065 C3067 1.389 . S
C3066 H3039 0.950 . S
C3066 C3052 1.377 . S
C3066 C3065 1.373 . S
C3067 C3051 1.377 . S
C3067 C3065 1.389 . S
C3067 C3068 1.524 1_554 S
C3068 C3067 1.524 1_556 S
C3068 C3069 1.397 . S
C3068 C3073 1.371 . S
C3069 H3040 0.950 . S
C3069 C3068 1.397 . S
C3069 C3070 1.334 . S
C3070 H3041 0.950 . S
C3070 C3069 1.334 . S
C3070 C3071 1.287 . S
C3071 C3070 1.287 . S
C3071 C3072 1.524 . S
C3071 H3074 0.999 . S
C3072 H3042 0.950 . S
C3072 C3071 1.524 . S
C3072 C3073 1.457 . S
C3073 H3043 0.901 1_556 S
C3073 C3068 1.371 . S
C3073 C3072 1.457 . S
H3074 C3071 0.999 . S
H3075 C3056 0.913 . S
H3076 C3094 0.951 . S
H3077 C3096 0.951 . S
H3078 C3098 0.950 . S
H3079 C3099 0.950 . S
H3080 C3101 0.950 . S
H3081 C3104 0.950 . S
H3082 C3105 0.950 . S
H3083 C3107 0.950 . S
H3084 C3108 0.950 . S
H3085 C3109 0.951 . S
H3086 C3111 0.951 . S
H3087 C3113 0.950 . S
H3088 C3114 0.950 . S
H3089 C3116 0.950 . S
H3090 C3119 0.950 . S
H3091 C3120 0.950 . S
H3092 C3122 0.950 . S
H3093 C3123 0.950 . S
C3094 H3076 0.951 . S
C3094 C3095 1.366 . S
C3094 C3096 1.388 . S
C3095 C3094 1.366 . S
C3095 C3099 1.385 . S
C3096 H3077 0.951 . S
C3096 C3094 1.388 . S
C3096 C3097 1.366 . S
C3097 C3096 1.366 . S
C3097 C3098 1.414 . S
C3097 C3100 1.499 . S
C3098 H3078 0.950 . S
C3098 C3097 1.414 . S
C3098 C3099 1.374 . S
C3099 H3079 0.950 . S
C3099 C3095 1.385 . S
C3099 C3098 1.374 . S
C3100 C3097 1.499 . S
C3100 C3101 1.373 . S
C3100 C3102 1.389 . S
C3101 H3080 0.950 . S
C3101 C3100 1.373 . S
C3101 C3117 1.377 . S
C3102 C3100 1.389 . S
C3102 C3103 1.524 . S
C3102 C3116 1.377 . S
C3103 C3102 1.524 . S
C3103 C3104 1.397 . S
C3103 C3108 1.363 . S
C3104 H3081 0.950 . S
C3104 C3103 1.397 . S
C3104 C3105 1.334 . S
C3105 H3082 0.950 . S
C3105 C3104 1.334 . S
C3105 C3106 1.287 . S
C3106 C3105 1.287 . S
C3106 C3107 1.524 . S
C3106 H3125 0.913 . S
C3107 H3083 0.950 . S
C3107 C3106 1.524 . S
C3107 C3108 1.415 . S
C3108 H3084 0.950 . S
C3108 C3103 1.363 . S
C3108 C3107 1.415 . S
C3109 H3085 0.951 . S
C3109 C3110 1.366 . S
C3109 C3111 1.388 . S
C3110 C3109 1.366 . S
C3110 C3114 1.385 . S
C3111 H3086 0.951 . S
C3111 C3109 1.388 . S
C3111 C3112 1.366 . S
C3112 C3111 1.366 . S
C3112 C3113 1.414 . S
C3112 C3115 1.499 . S
C3113 H3087 0.950 . S
C3113 C3112 1.414 . S
C3113 C3114 1.374 . S
C3114 H3088 0.950 . S
C3114 C3110 1.385 . S
C3114 C3113 1.374 . S
C3115 C3112 1.499 . S
C3115 C3116 1.373 . S
C3115 C3117 1.389 . S
C3116 H3089 0.950 . S
C3116 C3102 1.377 . S
C3116 C3115 1.373 . S
C3117 C3101 1.377 . S
C3117 C3115 1.389 . S
C3117 C3118 1.524 . S
C3118 C3117 1.524 . S
C3118 C3119 1.397 . S
C3118 C3123 1.363 . S
C3119 H3090 0.950 . S
C3119 C3118 1.397 . S
C3119 C3120 1.334 . S
C3120 H3091 0.950 . S
C3120 C3119 1.334 . S
C3120 C3121 1.287 . S
C3121 C3120 1.287 . S
C3121 C3122 1.524 . S
C3121 H3124 0.999 . S
C3122 H3092 0.950 . S
C3122 C3121 1.524 . S
C3122 C3123 1.415 . S
C3123 H3093 0.950 . S
C3123 C3118 1.363 . S
C3123 C3122 1.415 . S
H3124 C3121 0.999 . S
H3125 C3106 0.913 . S
H3126 C3144 0.951 . S
H3127 C3146 0.951 . S
H3128 C3148 0.950 . S
H3129 C3149 0.950 . S
H3130 C3151 0.950 . S
H3131 C3154 0.950 . S
H3132 C3155 0.950 . S
H3133 C3157 0.950 . S
H3134 C3158 0.950 . S
H3135 C3159 0.951 . S
H3136 C3161 0.951 . S
H3137 C3163 0.950 . S
H3138 C3164 0.950 . S
H3139 C3166 0.950 . S
H3140 C3169 0.950 . S
H3141 C3170 0.950 . S
H3142 C3172 0.950 . S
H3143 C3173 0.950 . S
C3144 H3126 0.951 . S
C3144 C3145 1.366 . S
C3144 C3146 1.388 . S
C3145 C3144 1.366 . S
C3145 C3149 1.385 . S
C3146 H3127 0.951 . S
C3146 C3144 1.388 . S
C3146 C3147 1.366 . S
C3147 C3146 1.366 . S
C3147 C3148 1.414 . S
C3147 C3150 1.499 . S
C3148 H3128 0.950 . S
C3148 C3147 1.414 . S
C3148 C3149 1.374 . S
C3149 H3129 0.950 . S
C3149 C3145 1.385 . S
C3149 C3148 1.374 . S
C3150 C3147 1.499 . S
C3150 C3151 1.373 . S
C3150 C3152 1.389 . S
C3151 H3130 0.950 . S
C3151 C3150 1.373 . S
C3151 C3167 1.377 . S
C3152 C3150 1.389 . S
C3152 C3153 1.524 . S
C3152 C3166 1.377 . S
C3153 C3152 1.524 . S
C3153 C3154 1.397 . S
C3153 C3158 1.363 . S
C3154 H3131 0.950 . S
C3154 C3153 1.397 . S
C3154 C3155 1.334 . S
C3155 H3132 0.950 . S
C3155 C3154 1.334 . S
C3155 C3156 1.287 . S
C3156 C3155 1.287 . S
C3156 C3157 1.524 . S
C3156 H3175 0.913 . S
C3157 H3133 0.950 . S
C3157 C3156 1.524 . S
C3157 C3158 1.415 . S
C3158 H3134 0.950 . S
C3158 C3153 1.363 . S
C3158 C3157 1.415 . S
C3159 H3135 0.951 . S
C3159 C3160 1.366 . S
C3159 C3161 1.388 . S
C3160 C3159 1.366 . S
C3160 C3164 1.385 . S
C3161 H3136 0.951 . S
C3161 C3159 1.388 . S
C3161 C3162 1.366 . S
C3162 C3161 1.366 . S
C3162 C3163 1.414 . S
C3162 C3165 1.499 . S
C3163 H3137 0.950 . S
C3163 C3162 1.414 . S
C3163 C3164 1.374 . S
C3164 H3138 0.950 . S
C3164 C3160 1.385 . S
C3164 C3163 1.374 . S
C3165 C3162 1.499 . S
C3165 C3166 1.373 . S
C3165 C3167 1.389 . S
C3166 H3139 0.950 . S
C3166 C3152 1.377 . S
C3166 C3165 1.373 . S
C3167 C3151 1.377 . S
C3167 C3165 1.389 . S
C3167 C3168 1.524 . S
C3168 C3167 1.524 . S
C3168 C3169 1.397 . S
C3168 C3173 1.363 . S
C3169 H3140 0.950 . S
C3169 C3168 1.397 . S
C3169 C3170 1.334 . S
C3170 H3141 0.950 . S
C3170 C3169 1.334 . S
C3170 C3171 1.287 . S
C3171 C3170 1.287 . S
C3171 C3172 1.524 . S
C3171 H3174 0.999 . S
C3172 H3142 0.950 . S
C3172 C3171 1.524 . S
C3172 C3173 1.415 . S
C3173 H3143 0.950 . S
C3173 C3168 1.363 . S
C3173 C3172 1.415 . S
H3174 C3171 0.999 . S
H3175 C3156 0.913 . S
H3176 C3194 0.951 . S
H3177 C3196 0.951 . S
H3178 C3198 0.950 . S
H3179 C3199 0.918 1_545 S
H3180 C3201 0.950 . S
H3181 C3204 0.950 . S
H3182 C3205 0.950 . S
H3183 C3207 0.950 . S
H3184 C3208 0.950 . S
H3185 C3209 0.951 . S
H3186 C3211 0.951 . S
H3187 C3213 0.950 . S
H3188 C3214 0.950 . S
H3189 C3216 0.950 . S
H3190 C3219 0.950 . S
H3191 C3220 0.950 . S
H3192 C3222 0.950 . S
H3193 C3223 0.950 . S
C3194 H3176 0.951 . S
C3194 C3195 1.366 1_565 S
C3194 C3196 1.388 . S
C3195 C3194 1.366 1_545 S
C3195 C3199 1.366 1_545 S
C3196 H3177 0.951 . S
C3196 C3194 1.388 . S
C3196 C3197 1.366 . S
C3197 C3196 1.366 . S
C3197 C3198 1.414 . S
C3197 C3200 1.499 . S
C3198 H3178 0.950 . S
C3198 C3197 1.414 . S
C3198 C3199 1.427 . S
C3199 H3179 0.918 1_565 S
C3199 C3195 1.366 1_565 S
C3199 C3198 1.427 . S
C3200 C3197 1.499 . S
C3200 C3201 1.373 . S
C3200 C3202 1.389 . S
C3201 H3180 0.950 . S
C3201 C3200 1.373 . S
C3201 C3217 1.377 . S
C3202 C3200 1.389 . S
C3202 C3203 1.524 . S
C3202 C3216 1.377 . S
C3203 C3202 1.524 . S
C3203 C3204 1.397 . S
C3203 C3208 1.363 . S
C3204 H3181 0.950 . S
C3204 C3203 1.397 . S
C3204 C3205 1.334 . S
C3205 H3182 0.950 . S
C3205 C3204 1.334 . S
C3205 C3206 1.287 . S
C3206 C3205 1.287 . S
C3206 C3207 1.524 . S
C3206 H3225 0.913 . S
C3207 H3183 0.950 . S
C3207 C3206 1.524 . S
C3207 C3208 1.415 . S
C3208 H3184 0.950 . S
C3208 C3203 1.363 . S
C3208 C3207 1.415 . S
C3209 H3185 0.951 . S
C3209 C3210 1.366 . S
C3209 C3211 1.388 . S
C3210 C3209 1.366 . S
C3210 C3214 1.385 . S
C3211 H3186 0.951 . S
C3211 C3209 1.388 . S
C3211 C3212 1.366 . S
C3212 C3211 1.366 . S
C3212 C3213 1.414 . S
C3212 C3215 1.499 . S
C3213 H3187 0.950 . S
C3213 C3212 1.414 . S
C3213 C3214 1.374 . S
C3214 H3188 0.950 . S
C3214 C3210 1.385 . S
C3214 C3213 1.374 . S
C3215 C3212 1.499 . S
C3215 C3216 1.373 . S
C3215 C3217 1.389 . S
C3216 H3189 0.950 . S
C3216 C3202 1.377 . S
C3216 C3215 1.373 . S
C3217 C3201 1.377 . S
C3217 C3215 1.389 . S
C3217 C3218 1.524 . S
C3218 C3217 1.524 . S
C3218 C3219 1.397 . S
C3218 C3223 1.363 . S
C3219 H3190 0.950 . S
C3219 C3218 1.397 . S
C3219 C3220 1.334 . S
C3220 H3191 0.950 . S
C3220 C3219 1.334 . S
C3220 C3221 1.287 . S
C3221 C3220 1.287 . S
C3221 C3222 1.524 . S
C3221 H3224 0.999 . S
C3222 H3192 0.950 . S
C3222 C3221 1.524 . S
C3222 C3223 1.415 . S
C3223 H3193 0.950 . S
C3223 C3218 1.363 . S
C3223 C3222 1.415 . S
H3224 C3221 0.999 . S
H3225 C3206 0.913 . S
H3226 C3244 0.951 . S
H3227 C3246 0.951 . S
H3228 C3248 0.950 . S
H3229 C3249 0.950 . S
H3230 C3251 0.950 . S
H3231 C3254 0.950 . S
H3232 C3255 0.950 . S
H3233 C3257 0.950 . S
H3234 C3258 0.950 . S
H3235 C3259 0.951 . S
H3236 C3261 0.951 . S
H3237 C3263 0.950 . S
H3238 C3264 0.950 . S
H3239 C3266 0.950 . S
H3240 C3269 0.950 . S
H3241 C3270 0.950 . S
H3242 C3272 0.950 1_545 S
H3243 C3273 0.950 . S
C3244 H3226 0.951 . S
C3244 C3245 1.366 . S
C3244 C3246 1.388 . S
C3245 C3244 1.366 . S
C3245 C3249 1.385 . S
C3246 H3227 0.951 . S
C3246 C3244 1.388 . S
C3246 C3247 1.366 . S
C3247 C3246 1.366 . S
C3247 C3248 1.414 . S
C3247 C3250 1.499 . S
C3248 H3228 0.950 . S
C3248 C3247 1.414 . S
C3248 C3249 1.374 . S
C3249 H3229 0.950 . S
C3249 C3245 1.385 . S
C3249 C3248 1.374 . S
C3250 C3247 1.499 . S
C3250 C3251 1.373 . S
C3250 C3252 1.389 . S
C3251 H3230 0.950 . S
C3251 C3250 1.373 . S
C3251 C3267 1.377 . S
C3252 C3250 1.389 . S
C3252 C3253 1.524 . S
C3252 C3266 1.377 . S
C3253 C3252 1.524 . S
C3253 C3254 1.397 . S
C3253 C3258 1.363 . S
C3254 H3231 0.950 . S
C3254 C3253 1.397 . S
C3254 C3255 1.334 . S
C3255 H3232 0.950 . S
C3255 C3254 1.334 . S
C3255 C3256 1.287 . S
C3256 C3255 1.287 . S
C3256 C3257 1.524 . S
C3256 H3275 0.913 . S
C3257 H3233 0.950 . S
C3257 C3256 1.524 . S
C3257 C3258 1.415 . S
C3258 H3234 0.950 . S
C3258 C3253 1.363 . S
C3258 C3257 1.415 . S
C3259 H3235 0.951 . S
C3259 C3260 1.366 . S
C3259 C3261 1.388 . S
C3260 C3259 1.366 . S
C3260 C3264 1.385 . S
C3261 H3236 0.951 . S
C3261 C3259 1.388 . S
C3261 C3262 1.366 . S
C3262 C3261 1.366 . S
C3262 C3263 1.414 . S
C3262 C3265 1.499 . S
C3263 H3237 0.950 . S
C3263 C3262 1.414 . S
C3263 C3264 1.374 . S
C3264 H3238 0.950 . S
C3264 C3260 1.385 . S
C3264 C3263 1.374 . S
C3265 C3262 1.499 . S
C3265 C3266 1.373 . S
C3265 C3267 1.389 . S
C3266 H3239 0.950 . S
C3266 C3252 1.377 . S
C3266 C3265 1.373 . S
C3267 C3251 1.377 . S
C3267 C3265 1.389 . S
C3267 C3268 1.524 . S
C3268 C3267 1.524 . S
C3268 C3269 1.397 . S
C3268 C3273 1.363 . S
C3269 H3240 0.950 . S
C3269 C3268 1.397 . S
C3269 C3270 1.334 . S
C3270 H3241 0.950 . S
C3270 C3269 1.334 . S
C3270 C3271 1.287 . S
C3271 C3270 1.287 . S
C3271 C3272 1.524 . S
C3271 H3274 1.031 . S
C3272 H3242 0.950 1_565 S
C3272 C3271 1.524 . S
C3272 C3273 1.415 . S
C3273 H3243 0.950 . S
C3273 C3268 1.363 . S
C3273 C3272 1.415 . S
H3274 C3271 1.031 . S
H3275 C3256 0.913 . S
H3276 C3294 0.951 . S
H3277 C3296 0.951 . S
H3278 C3298 0.950 . S
H3279 C3299 0.950 . S
H3280 C3301 0.950 . S
H3281 C3304 0.950 . S
H3282 C3305 0.950 . S
H3283 C3307 0.950 . S
H3284 C3308 0.950 . S
H3285 C3309 0.951 . S
H3286 C3311 0.951 . S
H3287 C3313 0.950 . S
H3288 C3314 0.950 . S
H3289 C3316 0.950 . S
H3290 C3319 0.950 . S
H3291 C3320 0.950 . S
H3292 C3322 0.950 . S
H3293 C3323 0.950 . S
C3294 H3276 0.951 . S
C3294 C3295 1.366 . S
C3294 C3296 1.388 . S
C3295 C3294 1.366 . S
C3295 C3299 1.385 . S
C3296 H3277 0.951 . S
C3296 C3294 1.388 . S
C3296 C3297 1.366 . S
C3297 C3296 1.366 . S
C3297 C3298 1.414 . S
C3297 C3300 1.499 . S
C3298 H3278 0.950 . S
C3298 C3297 1.414 . S
C3298 C3299 1.374 . S
C3299 H3279 0.950 . S
C3299 C3295 1.385 . S
C3299 C3298 1.374 . S
C3300 C3297 1.499 . S
C3300 C3301 1.373 . S
C3300 C3302 1.389 . S
C3301 H3280 0.950 . S
C3301 C3300 1.373 . S
C3301 C3317 1.377 . S
C3302 C3300 1.389 . S
C3302 C3303 1.524 . S
C3302 C3316 1.377 . S
C3303 C3302 1.524 . S
C3303 C3304 1.397 . S
C3303 C3308 1.363 . S
C3304 H3281 0.950 . S
C3304 C3303 1.397 . S
C3304 C3305 1.334 . S
C3305 H3282 0.950 . S
C3305 C3304 1.334 . S
C3305 C3306 1.287 . S
C3306 C3305 1.287 . S
C3306 C3307 1.524 . S
C3306 H3325 0.913 . S
C3307 H3283 0.950 . S
C3307 C3306 1.524 . S
C3307 C3308 1.415 . S
C3308 H3284 0.950 . S
C3308 C3303 1.363 . S
C3308 C3307 1.415 . S
C3309 H3285 0.951 . S
C3309 C3310 1.366 . S
C3309 C3311 1.388 . S
C3310 C3309 1.366 . S
C3310 C3314 1.385 . S
C3311 H3286 0.951 . S
C3311 C3309 1.388 . S
C3311 C3312 1.366 . S
C3312 C3311 1.366 . S
C3312 C3313 1.414 . S
C3312 C3315 1.499 . S
C3313 H3287 0.950 . S
C3313 C3312 1.414 . S
C3313 C3314 1.374 . S
C3314 H3288 0.950 . S
C3314 C3310 1.385 . S
C3314 C3313 1.374 . S
C3315 C3312 1.499 . S
C3315 C3316 1.373 . S
C3315 C3317 1.389 . S
C3316 H3289 0.950 . S
C3316 C3302 1.377 . S
C3316 C3315 1.373 . S
C3317 C3301 1.377 . S
C3317 C3315 1.389 . S
C3317 C3318 1.524 . S
C3318 C3317 1.524 . S
C3318 C3319 1.397 . S
C3318 C3323 1.363 . S
C3319 H3290 0.950 . S
C3319 C3318 1.397 . S
C3319 C3320 1.334 . S
C3320 H3291 0.950 . S
C3320 C3319 1.334 . S
C3320 C3321 1.287 . S
C3321 C3320 1.287 . S
C3321 C3322 1.524 . S
C3321 H3324 0.999 . S
C3322 H3292 0.950 . S
C3322 C3321 1.524 . S
C3322 C3323 1.415 . S
C3323 H3293 0.950 . S
C3323 C3318 1.363 . S
C3323 C3322 1.415 . S
H3324 C3321 0.999 . S
H3325 C3306 0.913 . S
H3326 C3344 0.951 . S
H3327 C3346 0.951 . S
H3328 C3348 0.950 . S
H3329 C3349 0.950 . S
H3330 C3351 0.950 . S
H3331 C3354 0.950 . S
H3332 C3355 0.950 . S
H3333 C3357 0.950 . S
H3334 C3358 0.950 . S
H3335 C3359 0.951 . S
H3336 C3361 0.951 . S
H3337 C3363 0.950 . S
H3338 C3364 0.950 . S
H3339 C3366 0.950 . S
H3340 C3369 0.950 . S
H3341 C3370 0.950 . S
H3342 C3372 0.950 . S
H3343 C3373 0.950 . S
C3344 H3326 0.951 . S
C3344 C3345 1.366 . S
C3344 C3346 1.388 . S
C3345 C3344 1.366 . S
C3345 C3349 1.385 . S
C3346 H3327 0.951 . S
C3346 C3344 1.388 . S
C3346 C3347 1.366 . S
C3347 C3346 1.366 . S
C3347 C3348 1.414 . S
C3347 C3350 1.499 . S
C3348 H3328 0.950 . S
C3348 C3347 1.414 . S
C3348 C3349 1.374 . S
C3349 H3329 0.950 . S
C3349 C3345 1.385 . S
C3349 C3348 1.374 . S
C3350 C3347 1.499 . S
C3350 C3351 1.373 . S
C3350 C3352 1.389 . S
C3351 H3330 0.950 . S
C3351 C3350 1.373 . S
C3351 C3367 1.377 . S
C3352 C3350 1.389 . S
C3352 C3353 1.524 . S
C3352 C3366 1.377 . S
C3353 C3352 1.524 . S
C3353 C3354 1.397 . S
C3353 C3358 1.363 . S
C3354 H3331 0.950 . S
C3354 C3353 1.397 . S
C3354 C3355 1.334 . S
C3355 H3332 0.950 . S
C3355 C3354 1.334 . S
C3355 C3356 1.287 . S
C3356 C3355 1.287 . S
C3356 C3357 1.524 . S
C3356 H3375 0.913 . S
C3357 H3333 0.950 . S
C3357 C3356 1.524 . S
C3357 C3358 1.415 . S
C3358 H3334 0.950 . S
C3358 C3353 1.363 . S
C3358 C3357 1.415 . S
C3359 H3335 0.951 . S
C3359 C3360 1.366 . S
C3359 C3361 1.388 . S
C3360 C3359 1.366 . S
C3360 C3364 1.385 . S
C3361 H3336 0.951 . S
C3361 C3359 1.388 . S
C3361 C3362 1.366 . S
C3362 C3361 1.366 . S
C3362 C3363 1.414 . S
C3362 C3365 1.499 . S
C3363 H3337 0.950 . S
C3363 C3362 1.414 . S
C3363 C3364 1.374 . S
C3364 H3338 0.950 . S
C3364 C3360 1.385 . S
C3364 C3363 1.374 . S
C3365 C3362 1.499 . S
C3365 C3366 1.373 . S
C3365 C3367 1.389 . S
C3366 H3339 0.950 . S
C3366 C3352 1.377 . S
C3366 C3365 1.373 . S
C3367 C3351 1.377 . S
C3367 C3365 1.389 . S
C3367 C3368 1.524 . S
C3368 C3367 1.524 . S
C3368 C3369 1.397 . S
C3368 C3373 1.363 . S
C3369 H3340 0.950 . S
C3369 C3368 1.397 . S
C3369 C3370 1.334 . S
C3370 H3341 0.950 . S
C3370 C3369 1.334 . S
C3370 C3371 1.287 . S
C3371 C3370 1.287 . S
C3371 C3372 1.524 . S
C3371 H3374 0.999 . S
C3372 H3342 0.950 . S
C3372 C3371 1.524 . S
C3372 C3373 1.415 . S
C3373 H3343 0.950 . S
C3373 C3368 1.363 . S
C3373 C3372 1.415 . S
H3374 C3371 0.999 . S
H3375 C3356 0.913 . S
H3376 C3394 0.951 . S
H3377 C3396 0.951 . S
H3378 C3398 0.950 . S
H3379 C3399 0.950 . S
H3380 C3401 0.950 . S
H3381 C3404 0.950 . S
H3382 C3405 0.950 . S
H3383 C3407 0.950 . S
H3384 C3408 0.950 . S
H3385 C3409 0.951 . S
H3386 C3411 0.951 . S
H3387 C3413 0.950 . S
H3388 C3414 0.950 . S
H3389 C3416 0.950 . S
H3390 C3419 0.950 . S
H3391 C3420 0.950 . S
H3392 C3422 0.950 . S
H3393 C3423 0.950 . S
C3394 H3376 0.951 . S
C3394 C3395 1.366 . S
C3394 C3396 1.388 . S
C3395 C3394 1.366 . S
C3395 C3399 1.385 . S
C3396 H3377 0.951 . S
C3396 C3394 1.388 . S
C3396 C3397 1.366 . S
C3397 C3396 1.366 . S
C3397 C3398 1.414 . S
C3397 C3400 1.499 . S
C3398 H3378 0.950 . S
C3398 C3397 1.414 . S
C3398 C3399 1.374 . S
C3399 H3379 0.950 . S
C3399 C3395 1.385 . S
C3399 C3398 1.374 . S
C3400 C3397 1.499 . S
C3400 C3401 1.373 . S
C3400 C3402 1.389 . S
C3401 H3380 0.950 . S
C3401 C3400 1.373 . S
C3401 C3417 1.377 . S
C3402 C3400 1.389 . S
C3402 C3403 1.524 . S
C3402 C3416 1.377 . S
C3403 C3402 1.524 . S
C3403 C3404 1.397 . S
C3403 C3408 1.363 . S
C3404 H3381 0.950 . S
C3404 C3403 1.397 . S
C3404 C3405 1.334 . S
C3405 H3382 0.950 . S
C3405 C3404 1.334 . S
C3405 C3406 1.287 . S
C3406 C3405 1.287 . S
C3406 C3407 1.524 . S
C3406 H3425 0.913 . S
C3407 H3383 0.950 . S
C3407 C3406 1.524 . S
C3407 C3408 1.415 . S
C3408 H3384 0.950 . S
C3408 C3403 1.363 . S
C3408 C3407 1.415 . S
C3409 H3385 0.951 . S
C3409 C3410 1.366 . S
C3409 C3411 1.388 . S
C3410 C3409 1.366 . S
C3410 C3414 1.385 . S
C3411 H3386 0.951 . S
C3411 C3409 1.388 . S
C3411 C3412 1.366 . S
C3412 C3411 1.366 . S
C3412 C3413 1.414 . S
C3412 C3415 1.499 . S
C3413 H3387 0.950 . S
C3413 C3412 1.414 . S
C3413 C3414 1.374 . S
C3414 H3388 0.950 . S
C3414 C3410 1.385 . S
C3414 C3413 1.374 . S
C3415 C3412 1.499 . S
C3415 C3416 1.373 . S
C3415 C3417 1.389 . S
C3416 H3389 0.950 . S
C3416 C3402 1.377 . S
C3416 C3415 1.373 . S
C3417 C3401 1.377 . S
C3417 C3415 1.389 . S
C3417 C3418 1.524 . S
C3418 C3417 1.524 . S
C3418 C3419 1.397 . S
C3418 C3423 1.363 . S
C3419 H3390 0.950 . S
C3419 C3418 1.397 . S
C3419 C3420 1.334 . S
C3420 H3391 0.950 . S
C3420 C3419 1.334 . S
C3420 C3421 1.287 . S
C3421 C3420 1.287 . S
C3421 C3422 1.524 . S
C3421 H3424 0.999 . S
C3422 H3392 0.950 . S
C3422 C3421 1.524 . S
C3422 C3423 1.415 . S
C3423 H3393 0.950 . S
C3423 C3418 1.363 . S
C3423 C3422 1.415 . S
H3424 C3421 0.999 . S
H3425 C3406 0.913 . S
H3426 C3444 0.951 . S
H3427 C3446 0.951 . S
H3428 C3448 0.950 . S
H3429 C3449 0.950 . S
H3430 C3451 0.950 . S
H3431 C3454 0.950 . S
H3432 C3455 0.950 . S
H3433 C3457 0.950 . S
H3434 C3458 0.950 . S
H3435 C3459 0.951 . S
H3436 C3461 0.951 . S
H3437 C3463 0.950 . S
H3438 C3464 0.950 . S
H3439 C3466 0.950 . S
H3440 C3469 0.950 . S
H3441 C3470 0.950 . S
H3442 C3472 0.950 . S
H3443 C3473 0.950 . S
C3444 H3426 0.951 . S
C3444 C3445 1.366 . S
C3444 C3446 1.388 . S
C3445 C3444 1.366 . S
C3445 C3449 1.385 . S
C3446 H3427 0.951 . S
C3446 C3444 1.388 . S
C3446 C3447 1.366 . S
C3447 C3446 1.366 . S
C3447 C3448 1.414 . S
C3447 C3450 1.499 . S
C3448 H3428 0.950 . S
C3448 C3447 1.414 . S
C3448 C3449 1.374 . S
C3449 H3429 0.950 . S
C3449 C3445 1.385 . S
C3449 C3448 1.374 . S
C3450 C3447 1.499 . S
C3450 C3451 1.373 . S
C3450 C3452 1.389 . S
C3451 H3430 0.950 . S
C3451 C3450 1.373 . S
C3451 C3467 1.377 . S
C3452 C3450 1.389 . S
C3452 C3453 1.524 . S
C3452 C3466 1.377 . S
C3453 C3452 1.524 . S
C3453 C3454 1.397 . S
C3453 C3458 1.363 . S
C3454 H3431 0.950 . S
C3454 C3453 1.397 . S
C3454 C3455 1.334 . S
C3455 H3432 0.950 . S
C3455 C3454 1.334 . S
C3455 C3456 1.287 . S
C3456 C3455 1.287 . S
C3456 C3457 1.524 . S
C3456 H3475 0.913 . S
C3457 H3433 0.950 . S
C3457 C3456 1.524 . S
C3457 C3458 1.415 . S
C3458 H3434 0.950 . S
C3458 C3453 1.363 . S
C3458 C3457 1.415 . S
C3459 H3435 0.951 . S
C3459 C3460 1.366 . S
C3459 C3461 1.388 . S
C3460 C3459 1.366 . S
C3460 C3464 1.385 . S
C3461 H3436 0.951 . S
C3461 C3459 1.388 . S
C3461 C3462 1.366 . S
C3462 C3461 1.366 . S
C3462 C3463 1.414 . S
C3462 C3465 1.499 . S
C3463 H3437 0.950 . S
C3463 C3462 1.414 . S
C3463 C3464 1.374 . S
C3464 H3438 0.950 . S
C3464 C3460 1.385 . S
C3464 C3463 1.374 . S
C3465 C3462 1.499 . S
C3465 C3466 1.373 . S
C3465 C3467 1.389 . S
C3466 H3439 0.950 . S
C3466 C3452 1.377 . S
C3466 C3465 1.373 . S
C3467 C3451 1.377 . S
C3467 C3465 1.389 . S
C3467 C3468 1.524 . S
C3468 C3467 1.524 . S
C3468 C3469 1.397 . S
C3468 C3473 1.363 . S
C3469 H3440 0.950 . S
C3469 C3468 1.397 . S
C3469 C3470 1.334 . S
C3470 H3441 0.950 . S
C3470 C3469 1.334 . S
C3470 C3471 1.287 . S
C3471 C3470 1.287 . S
C3471 C3472 1.524 . S
C3471 H3474 0.999 . S
C3472 H3442 0.950 . S
C3472 C3471 1.524 . S
C3472 C3473 1.415 . S
C3473 H3443 0.950 . S
C3473 C3468 1.363 . S
C3473 C3472 1.415 . S
H3474 C3471 0.999 . S
H3475 C3456 0.913 . S
H3476 C3494 0.951 . S
H3477 C3496 0.951 . S
H3478 C3498 0.950 1_655 S
H3479 C3499 0.950 1_655 S
H3480 C3501 0.950 . S
H3481 C3504 0.950 . S
H3482 C3505 0.950 . S
H3483 C3507 0.950 . S
H3484 C3508 0.950 . S
H3485 C3509 0.951 1_554 S
H3486 C3511 0.951 . S
H3487 C3513 0.950 . S
H3488 C3514 0.950 . S
H3489 C3516 0.950 . S
H3490 C3519 0.950 . S
H3491 C3520 0.950 . S
H3492 C3522 0.950 . S
H3493 C3523 0.950 . S
C3494 H3476 0.951 . S
C3494 C3495 1.366 . S
C3494 C3496 1.388 . S
C3495 C3494 1.366 . S
C3495 C3499 1.385 . S
C3496 H3477 0.951 . S
C3496 C3494 1.388 . S
C3496 C3497 1.366 . S
C3497 C3496 1.366 . S
C3497 C3498 1.414 . S
C3497 C3500 1.499 . S
C3498 H3478 0.950 1_455 S
C3498 C3497 1.414 . S
C3498 C3499 1.374 . S
C3499 H3479 0.950 1_455 S
C3499 C3495 1.385 . S
C3499 C3498 1.374 . S
C3500 C3497 1.499 . S
C3500 C3501 1.373 . S
C3500 C3502 1.389 . S
C3501 H3480 0.950 . S
C3501 C3500 1.373 . S
C3501 C3517 1.377 . S
C3502 C3500 1.389 . S
C3502 C3503 1.524 . S
C3502 C3516 1.377 . S
C3503 C3502 1.524 . S
C3503 C3504 1.397 . S
C3503 C3508 1.363 . S
C3504 H3481 0.950 . S
C3504 C3503 1.397 . S
C3504 C3505 1.334 1_556 S
C3505 H3482 0.950 . S
C3505 C3504 1.334 1_554 S
C3505 C3506 1.287 . S
C3506 C3505 1.287 . S
C3506 C3507 1.524 . S
C3506 H3525 0.913 . S
C3507 H3483 0.950 . S
C3507 C3506 1.524 . S
C3507 C3508 1.415 1_554 S
C3508 H3484 0.950 . S
C3508 C3503 1.363 . S
C3508 C3507 1.415 1_556 S
C3509 H3485 0.951 1_556 S
C3509 C3510 1.366 1_556 S
C3509 C3511 1.388 . S
C3510 C3509 1.366 1_554 S
C3510 C3514 1.385 1_554 S
C3511 H3486 0.951 . S
C3511 C3509 1.388 . S
C3511 C3512 1.366 . S
C3512 C3511 1.366 . S
C3512 C3513 1.414 . S
C3512 C3515 1.499 . S
C3513 H3487 0.950 . S
C3513 C3512 1.414 . S
C3513 C3514 1.374 . S
C3514 H3488 0.950 . S
C3514 C3510 1.385 1_556 S
C3514 C3513 1.374 . S
C3515 C3512 1.499 . S
C3515 C3516 1.373 . S
C3515 C3517 1.389 . S
C3516 H3489 0.950 . S
C3516 C3502 1.377 . S
C3516 C3515 1.373 . S
C3517 C3501 1.377 . S
C3517 C3515 1.389 . S
C3517 C3518 1.524 . S
C3518 C3517 1.524 . S
C3518 C3519 1.397 . S
C3518 C3523 1.363 1_455 S
C3519 H3490 0.950 . S
C3519 C3518 1.397 . S
C3519 C3520 1.334 . S
C3520 H3491 0.950 . S
C3520 C3519 1.334 . S
C3520 C3521 1.287 1_455 S
C3521 C3520 1.287 1_655 S
C3521 C3522 1.524 . S
C3521 H3524 0.999 . S
C3522 H3492 0.950 . S
C3522 C3521 1.524 . S
C3522 C3523 1.415 . S
C3523 H3493 0.950 . S
C3523 C3518 1.363 1_655 S
C3523 C3522 1.415 . S
H3524 C3521 0.999 . S
H3525 C3506 0.913 . S
H3526 C3544 0.951 . S
H3527 C3546 0.951 . S
H3528 C3548 0.950 . S
H3529 C3549 0.950 . S
H3530 C3551 0.950 . S
H3531 C3554 0.950 . S
H3532 C3555 0.950 . S
H3533 C3557 0.950 . S
H3534 C3558 0.950 . S
H3535 C3559 0.951 . S
H3536 C3561 0.951 . S
H3537 C3563 0.950 . S
H3538 C3564 0.950 . S
H3539 C3566 0.950 . S
H3540 C3569 0.950 . S
H3541 C3570 0.950 . S
H3542 C3572 0.950 . S
H3543 C3573 0.950 . S
C3544 H3526 0.951 . S
C3544 C3545 1.366 . S
C3544 C3546 1.388 1_455 S
C3545 C3544 1.366 . S
C3545 C3549 1.362 1_455 S
C3546 H3527 0.951 . S
C3546 C3544 1.388 1_655 S
C3546 C3547 1.366 . S
C3547 C3546 1.366 . S
C3547 C3548 1.414 . S
C3547 C3550 1.499 . S
C3548 H3528 0.950 . S
C3548 C3547 1.414 . S
C3548 C3549 1.397 . S
C3549 H3529 0.950 . S
C3549 C3545 1.362 1_655 S
C3549 C3548 1.397 . S
C3550 C3547 1.499 . S
C3550 C3551 1.373 . S
C3550 C3552 1.389 . S
C3551 H3530 0.950 . S
C3551 C3550 1.373 . S
C3551 C3567 1.377 . S
C3552 C3550 1.389 . S
C3552 C3553 1.524 . S
C3552 C3566 1.377 . S
C3553 C3552 1.524 . S
C3553 C3554 1.397 . S
C3553 C3558 1.363 . S
C3554 H3531 0.950 . S
C3554 C3553 1.397 . S
C3554 C3555 1.334 . S
C3555 H3532 0.950 . S
C3555 C3554 1.334 . S
C3555 C3556 1.287 . S
C3556 C3555 1.287 . S
C3556 C3557 1.524 . S
C3556 H3575 0.913 . S
C3557 H3533 0.950 . S
C3557 C3556 1.524 . S
C3557 C3558 1.415 . S
C3558 H3534 0.950 . S
C3558 C3553 1.363 . S
C3558 C3557 1.415 . S
C3559 H3535 0.951 . S
C3559 C3560 1.366 . S
C3559 C3561 1.388 . S
C3560 C3559 1.366 . S
C3560 C3564 1.385 . S
C3561 H3536 0.951 . S
C3561 C3559 1.388 . S
C3561 C3562 1.366 . S
C3562 C3561 1.366 . S
C3562 C3563 1.414 . S
C3562 C3565 1.499 . S
C3563 H3537 0.950 . S
C3563 C3562 1.414 . S
C3563 C3564 1.374 . S
C3564 H3538 0.950 . S
C3564 C3560 1.385 . S
C3564 C3563 1.374 . S
C3565 C3562 1.499 . S
C3565 C3566 1.373 . S
C3565 C3567 1.389 . S
C3566 H3539 0.950 . S
C3566 C3552 1.377 . S
C3566 C3565 1.373 . S
C3567 C3551 1.377 . S
C3567 C3565 1.389 . S
C3567 C3568 1.524 . S
C3568 C3567 1.524 . S
C3568 C3569 1.397 . S
C3568 C3573 1.363 . S
C3569 H3540 0.950 . S
C3569 C3568 1.397 . S
C3569 C3570 1.334 . S
C3570 H3541 0.950 . S
C3570 C3569 1.334 . S
C3570 C3571 1.287 . S
C3571 C3570 1.287 . S
C3571 C3572 1.524 . S
C3571 H3574 0.999 . S
C3572 H3542 0.950 . S
C3572 C3571 1.524 . S
C3572 C3573 1.415 . S
C3573 H3543 0.950 . S
C3573 C3568 1.363 . S
C3573 C3572 1.415 . S
H3574 C3571 0.999 . S
H3575 C3556 0.913 . S
H3576 C3594 0.951 . S
H3577 C3596 0.951 . S
H3578 C3598 0.950 . S
H3579 C3599 0.950 . S
H3580 C3601 0.950 . S
H3581 C3604 0.950 . S
H3582 C3605 0.950 . S
H3583 C3607 0.950 . S
H3584 C3608 0.950 . S
H3585 C3609 0.951 . S
H3586 C3611 0.951 . S
H3587 C3613 0.950 . S
H3588 C3614 0.950 . S
H3589 C3616 0.950 . S
H3590 C3619 0.950 . S
H3591 C3620 0.950 . S
H3592 C3622 0.950 . S
H3593 C3623 0.950 . S
C3594 H3576 0.951 . S
C3594 C3595 1.366 . S
C3594 C3596 1.388 . S
C3595 C3594 1.366 . S
C3595 C3599 1.385 . S
C3596 H3577 0.951 . S
C3596 C3594 1.388 . S
C3596 C3597 1.366 . S
C3597 C3596 1.366 . S
C3597 C3598 1.414 . S
C3597 C3600 1.499 . S
C3598 H3578 0.950 . S
C3598 C3597 1.414 . S
C3598 C3599 1.374 . S
C3599 H3579 0.950 . S
C3599 C3595 1.385 . S
C3599 C3598 1.374 . S
C3600 C3597 1.499 . S
C3600 C3601 1.373 . S
C3600 C3602 1.389 . S
C3601 H3580 0.950 . S
C3601 C3600 1.373 . S
C3601 C3617 1.377 . S
C3602 C3600 1.389 . S
C3602 C3603 1.524 . S
C3602 C3616 1.377 . S
C3603 C3602 1.524 . S
C3603 C3604 1.397 . S
C3603 C3608 1.363 . S
C3604 H3581 0.950 . S
C3604 C3603 1.397 . S
C3604 C3605 1.334 . S
C3605 H3582 0.950 . S
C3605 C3604 1.334 . S
C3605 C3606 1.287 . S
C3606 C3605 1.287 . S
C3606 C3607 1.524 . S
C3606 H3625 0.913 . S
C3607 H3583 0.950 . S
C3607 C3606 1.524 . S
C3607 C3608 1.415 . S
C3608 H3584 0.950 . S
C3608 C3603 1.363 . S
C3608 C3607 1.415 . S
C3609 H3585 0.951 . S
C3609 C3610 1.366 . S
C3609 C3611 1.388 . S
C3610 C3609 1.366 . S
C3610 C3614 1.385 . S
C3611 H3586 0.951 . S
C3611 C3609 1.388 . S
C3611 C3612 1.366 . S
C3612 C3611 1.366 . S
C3612 C3613 1.414 . S
C3612 C3615 1.499 . S
C3613 H3587 0.950 . S
C3613 C3612 1.414 . S
C3613 C3614 1.374 . S
C3614 H3588 0.950 . S
C3614 C3610 1.385 . S
C3614 C3613 1.374 . S
C3615 C3612 1.499 . S
C3615 C3616 1.373 . S
C3615 C3617 1.389 . S
C3616 H3589 0.950 . S
C3616 C3602 1.377 . S
C3616 C3615 1.373 . S
C3617 C3601 1.377 . S
C3617 C3615 1.389 . S
C3617 C3618 1.524 . S
C3618 C3617 1.524 . S
C3618 C3619 1.397 . S
C3618 C3623 1.363 . S
C3619 H3590 0.950 . S
C3619 C3618 1.397 . S
C3619 C3620 1.334 . S
C3620 H3591 0.950 . S
C3620 C3619 1.334 . S
C3620 C3621 1.287 . S
C3621 C3620 1.287 . S
C3621 C3622 1.524 . S
C3621 H3624 0.999 . S
C3622 H3592 0.950 . S
C3622 C3621 1.524 . S
C3622 C3623 1.415 . S
C3623 H3593 0.950 . S
C3623 C3618 1.363 . S
C3623 C3622 1.415 . S
H3624 C3621 0.999 . S
H3625 C3606 0.913 . S
H3626 C3644 0.951 . S
H3627 C3646 0.951 . S
H3628 C3648 0.950 1_655 S
H3629 C3649 0.950 . S
H3630 C3651 0.950 . S
H3631 C3654 0.950 . S
H3632 C3655 0.950 . S
H3633 C3657 0.950 . S
H3634 C3658 0.950 . S
H3635 C3659 0.951 . S
H3636 C3661 0.951 . S
H3637 C3663 0.950 . S
H3638 C3664 0.950 . S
H3639 C3666 0.950 . S
H3640 C3669 0.950 . S
H3641 C3670 0.950 . S
H3642 C3672 0.950 . S
H3643 C3673 0.950 . S
C3644 H3626 0.951 . S
C3644 C3645 1.366 . S
C3644 C3646 1.388 . S
C3645 C3644 1.366 . S
C3645 C3649 1.385 . S
C3646 H3627 0.951 . S
C3646 C3644 1.388 . S
C3646 C3647 1.366 . S
C3647 C3646 1.366 . S
C3647 C3648 1.414 . S
C3647 C3650 1.499 1_455 S
C3648 H3628 0.950 1_455 S
C3648 C3647 1.414 . S
C3648 C3649 1.374 . S
C3649 H3629 0.950 . S
C3649 C3645 1.385 . S
C3649 C3648 1.374 . S
C3650 C3647 1.499 1_655 S
C3650 C3651 1.373 . S
C3650 C3652 1.389 . S
C3651 H3630 0.950 . S
C3651 C3650 1.373 . S
C3651 C3667 1.377 . S
C3652 C3650 1.389 . S
C3652 C3653 1.524 . S
C3652 C3666 1.377 . S
C3653 C3652 1.524 . S
C3653 C3654 1.397 . S
C3653 C3658 1.363 . S
C3654 H3631 0.950 . S
C3654 C3653 1.397 . S
C3654 C3655 1.334 1_655 S
C3655 H3632 0.950 . S
C3655 C3654 1.334 1_455 S
C3655 C3656 1.287 . S
C3656 C3655 1.287 . S
C3656 C3657 1.524 . S
C3656 H3675 0.913 . S
C3657 H3633 0.950 . S
C3657 C3656 1.524 . S
C3657 C3658 1.415 1_455 S
C3658 H3634 0.950 . S
C3658 C3653 1.363 . S
C3658 C3657 1.415 1_655 S
C3659 H3635 0.951 . S
C3659 C3660 1.366 . S
C3659 C3661 1.388 . S
C3660 C3659 1.366 . S
C3660 C3664 1.385 . S
C3661 H3636 0.951 . S
C3661 C3659 1.388 . S
C3661 C3662 1.366 . S
C3662 C3661 1.366 . S
C3662 C3663 1.414 . S
C3662 C3665 1.499 . S
C3663 H3637 0.950 . S
C3663 C3662 1.414 . S
C3663 C3664 1.374 . S
C3664 H3638 0.950 . S
C3664 C3660 1.385 . S
C3664 C3663 1.374 . S
C3665 C3662 1.499 . S
C3665 C3666 1.373 . S
C3665 C3667 1.389 . S
C3666 H3639 0.950 . S
C3666 C3652 1.377 . S
C3666 C3665 1.373 . S
C3667 C3651 1.377 . S
C3667 C3665 1.389 . S
C3667 C3668 1.524 . S
C3668 C3667 1.524 . S
C3668 C3669 1.397 . S
C3668 C3673 1.363 . S
C3669 H3640 0.950 . S
C3669 C3668 1.397 . S
C3669 C3670 1.334 . S
C3670 H3641 0.950 . S
C3670 C3669 1.334 . S
C3670 C3671 1.287 . S
C3671 C3670 1.287 . S
C3671 C3672 1.524 . S
C3671 H3674 0.999 . S
C3672 H3642 0.950 . S
C3672 C3671 1.524 . S
C3672 C3673 1.415 . S
C3673 H3643 0.950 . S
C3673 C3668 1.363 . S
C3673 C3672 1.415 . S
H3674 C3671 0.999 . S
H3675 C3656 0.913 . S
H3676 C3694 0.959 . S
H3677 C3696 0.951 . S
H3678 C3698 0.950 . S
H3679 C3699 0.950 . S
H3680 C3701 0.950 . S
H3681 C3704 0.950 . S
H3682 C3705 0.950 . S
H3683 C3707 0.950 . S
H3684 C3708 0.950 . S
H3685 C3709 0.951 . S
H3686 C3711 0.951 . S
H3687 C3713 0.950 . S
H3688 C3714 0.950 . S
H3689 C3716 0.943 1_655 S
H3690 C3719 0.950 . S
H3691 C3720 0.950 . S
H3692 C3722 0.950 . S
H3693 C3723 0.950 . S
C3694 H3676 0.959 . S
C3694 C3695 1.386 . S
C3694 C3696 1.363 1_655 S
C3695 C3694 1.386 . S
C3695 C3699 1.385 . S
C3696 H3677 0.951 . S
C3696 C3694 1.363 1_455 S
C3696 C3697 1.366 . S
C3697 C3696 1.366 . S
C3697 C3698 1.414 1_455 S
C3697 C3700 1.499 . S
C3698 H3678 0.950 . S
C3698 C3697 1.414 1_655 S
C3698 C3699 1.374 . S
C3699 H3679 0.950 . S
C3699 C3695 1.385 . S
C3699 C3698 1.374 . S
C3700 C3697 1.499 . S
C3700 C3701 1.373 . S
C3700 C3702 1.377 1_455 S
C3701 H3680 0.950 . S
C3701 C3700 1.373 . S
C3701 C3717 1.377 . S
C3702 C3700 1.377 1_655 S
C3702 C3703 1.573 . S
C3702 C3716 1.346 1_655 S
C3703 C3702 1.573 . S
C3703 C3704 1.397 . S
C3703 C3708 1.363 . S
C3704 H3681 0.950 . S
C3704 C3703 1.397 . S
C3704 C3705 1.334 . S
C3705 H3682 0.950 . S
C3705 C3704 1.334 . S
C3705 C3706 1.287 . S
C3706 C3705 1.287 . S
C3706 C3707 1.524 . S
C3706 H3725 0.913 . S
C3707 H3683 0.950 . S
C3707 C3706 1.524 . S
C3707 C3708 1.415 . S
C3708 H3684 0.950 . S
C3708 C3703 1.363 . S
C3708 C3707 1.415 . S
C3709 H3685 0.951 . S
C3709 C3710 1.366 . S
C3709 C3711 1.388 . S
C3710 C3709 1.366 . S
C3710 C3714 1.385 . S
C3711 H3686 0.951 . S
C3711 C3709 1.388 . S
C3711 C3712 1.366 . S
C3712 C3711 1.366 . S
C3712 C3713 1.414 . S
C3712 C3715 1.499 . S
C3713 H3687 0.950 . S
C3713 C3712 1.414 . S
C3713 C3714 1.374 . S
C3714 H3688 0.950 . S
C3714 C3710 1.385 . S
C3714 C3713 1.374 . S
C3715 C3712 1.499 . S
C3715 C3716 1.373 . S
C3715 C3717 1.389 . S
C3716 H3689 0.943 1_455 S
C3716 C3702 1.346 1_455 S
C3716 C3715 1.373 . S
C3717 C3701 1.377 . S
C3717 C3715 1.389 . S
C3717 C3718 1.524 . S
C3718 C3717 1.524 . S
C3718 C3719 1.397 . S
C3718 C3723 1.363 . S
C3719 H3690 0.950 . S
C3719 C3718 1.397 . S
C3719 C3720 1.334 . S
C3720 H3691 0.950 . S
C3720 C3719 1.334 . S
C3720 C3721 1.287 . S
C3721 C3720 1.287 . S
C3721 C3722 1.524 . S
C3721 H3724 0.999 . S
C3722 H3692 0.950 . S
C3722 C3721 1.524 . S
C3722 C3723 1.415 . S
C3723 H3693 0.950 . S
C3723 C3718 1.363 . S
C3723 C3722 1.415 . S
H3724 C3721 0.999 . S
H3725 C3706 0.913 . S
H3726 C3744 0.951 . S
H3727 C3746 0.951 . S
H3728 C3748 0.950 . S
H3729 C3749 0.950 . S
H3730 C3751 0.950 . S
H3731 C3754 0.950 . S
H3732 C3755 0.950 . S
H3733 C3757 0.950 . S
H3734 C3758 0.950 . S
H3735 C3759 0.951 . S
H3736 C3761 0.951 . S
H3737 C3763 0.950 . S
H3738 C3764 0.950 . S
H3739 C3766 0.950 . S
H3740 C3769 0.950 . S
H3741 C3770 0.950 . S
H3742 C3772 0.950 . S
H3743 C3773 0.950 . S
C3744 H3726 0.951 . S
C3744 C3745 1.366 . S
C3744 C3746 1.388 . S
C3745 C3744 1.366 . S
C3745 C3749 1.385 . S
C3746 H3727 0.951 . S
C3746 C3744 1.388 . S
C3746 C3747 1.366 . S
C3747 C3746 1.366 . S
C3747 C3748 1.414 . S
C3747 C3750 1.499 . S
C3748 H3728 0.950 . S
C3748 C3747 1.414 . S
C3748 C3749 1.374 . S
C3749 H3729 0.950 . S
C3749 C3745 1.385 . S
C3749 C3748 1.374 . S
C3750 C3747 1.499 . S
C3750 C3751 1.373 . S
C3750 C3752 1.389 . S
C3751 H3730 0.950 . S
C3751 C3750 1.373 . S
C3751 C3767 1.377 . S
C3752 C3750 1.389 . S
C3752 C3753 1.524 . S
C3752 C3766 1.377 . S
C3753 C3752 1.524 . S
C3753 C3754 1.397 . S
C3753 C3758 1.363 . S
C3754 H3731 0.950 . S
C3754 C3753 1.397 . S
C3754 C3755 1.334 . S
C3755 H3732 0.950 . S
C3755 C3754 1.334 . S
C3755 C3756 1.287 . S
C3756 C3755 1.287 . S
C3756 C3757 1.524 . S
C3756 H3775 0.913 . S
C3757 H3733 0.950 . S
C3757 C3756 1.524 . S
C3757 C3758 1.415 . S
C3758 H3734 0.950 . S
C3758 C3753 1.363 . S
C3758 C3757 1.415 . S
C3759 H3735 0.951 . S
C3759 C3760 1.366 . S
C3759 C3761 1.388 . S
C3760 C3759 1.366 . S
C3760 C3764 1.385 . S
C3761 H3736 0.951 . S
C3761 C3759 1.388 . S
C3761 C3762 1.366 . S
C3762 C3761 1.366 . S
C3762 C3763 1.414 . S
C3762 C3765 1.499 . S
C3763 H3737 0.950 . S
C3763 C3762 1.414 . S
C3763 C3764 1.374 . S
C3764 H3738 0.950 . S
C3764 C3760 1.385 . S
C3764 C3763 1.374 . S
C3765 C3762 1.499 . S
C3765 C3766 1.373 . S
C3765 C3767 1.389 . S
C3766 H3739 0.950 . S
C3766 C3752 1.377 . S
C3766 C3765 1.373 . S
C3767 C3751 1.377 . S
C3767 C3765 1.389 . S
C3767 C3768 1.524 . S
C3768 C3767 1.524 . S
C3768 C3769 1.397 . S
C3768 C3773 1.363 . S
C3769 H3740 0.950 . S
C3769 C3768 1.397 . S
C3769 C3770 1.334 . S
C3770 H3741 0.950 . S
C3770 C3769 1.334 . S
C3770 C3771 1.287 . S
C3771 C3770 1.287 . S
C3771 C3772 1.524 . S
C3771 H3774 0.999 . S
C3772 H3742 0.950 . S
C3772 C3771 1.524 . S
C3772 C3773 1.415 . S
C3773 H3743 0.950 . S
C3773 C3768 1.363 . S
C3773 C3772 1.415 . S
H3774 C3771 0.999 . S
H3775 C3756 0.913 . S
H3776 C3794 0.951 . S
H3777 C3796 0.951 . S
H3778 C3798 0.950 . S
H3779 C3799 0.950 . S
H3780 C3801 0.950 . S
H3781 C3804 0.950 . S
H3782 C3805 0.950 . S
H3783 C3807 0.950 . S
H3784 C3808 0.950 . S
H3785 C3809 0.951 . S
H3786 C3811 0.951 . S
H3787 C3813 0.950 . S
H3788 C3814 0.950 . S
H3789 C3816 0.950 . S
H3790 C3819 0.950 . S
H3791 C3820 0.950 . S
H3792 C3822 0.950 . S
H3793 C3823 0.950 . S
C3794 H3776 0.951 . S
C3794 C3795 1.366 . S
C3794 C3796 1.388 . S
C3795 C3794 1.366 . S
C3795 C3799 1.385 . S
C3796 H3777 0.951 . S
C3796 C3794 1.388 . S
C3796 C3797 1.366 . S
C3797 C3796 1.366 . S
C3797 C3798 1.414 . S
C3797 C3800 1.499 . S
C3798 H3778 0.950 . S
C3798 C3797 1.414 . S
C3798 C3799 1.374 . S
C3799 H3779 0.950 . S
C3799 C3795 1.385 . S
C3799 C3798 1.374 . S
C3800 C3797 1.499 . S
C3800 C3801 1.373 . S
C3800 C3802 1.389 . S
C3801 H3780 0.950 . S
C3801 C3800 1.373 . S
C3801 C3817 1.377 . S
C3802 C3800 1.389 . S
C3802 C3803 1.524 . S
C3802 C3816 1.377 . S
C3803 C3802 1.524 . S
C3803 C3804 1.397 . S
C3803 C3808 1.363 . S
C3804 H3781 0.950 . S
C3804 C3803 1.397 . S
C3804 C3805 1.334 . S
C3805 H3782 0.950 . S
C3805 C3804 1.334 . S
C3805 C3806 1.287 . S
C3806 C3805 1.287 . S
C3806 C3807 1.524 . S
C3806 H3825 0.913 . S
C3807 H3783 0.950 . S
C3807 C3806 1.524 . S
C3807 C3808 1.415 . S
C3808 H3784 0.950 . S
C3808 C3803 1.363 . S
C3808 C3807 1.415 . S
C3809 H3785 0.951 . S
C3809 C3810 1.366 . S
C3809 C3811 1.388 . S
C3810 C3809 1.366 . S
C3810 C3814 1.385 . S
C3811 H3786 0.951 . S
C3811 C3809 1.388 . S
C3811 C3812 1.366 . S
C3812 C3811 1.366 . S
C3812 C3813 1.414 . S
C3812 C3815 1.499 . S
C3813 H3787 0.950 . S
C3813 C3812 1.414 . S
C3813 C3814 1.374 . S
C3814 H3788 0.950 . S
C3814 C3810 1.385 . S
C3814 C3813 1.374 . S
C3815 C3812 1.499 . S
C3815 C3816 1.373 . S
C3815 C3817 1.389 . S
C3816 H3789 0.950 . S
C3816 C3802 1.377 . S
C3816 C3815 1.373 . S
C3817 C3801 1.377 . S
C3817 C3815 1.389 . S
C3817 C3818 1.524 . S
C3818 C3817 1.524 . S
C3818 C3819 1.397 . S
C3818 C3823 1.363 . S
C3819 H3790 0.950 . S
C3819 C3818 1.397 . S
C3819 C3820 1.334 . S
C3820 H3791 0.950 . S
C3820 C3819 1.334 . S
C3820 C3821 1.287 . S
C3821 C3820 1.287 . S
C3821 C3822 1.524 . S
C3821 H3824 0.999 . S
C3822 H3792 0.950 . S
C3822 C3821 1.524 . S
C3822 C3823 1.415 . S
C3823 H3793 0.950 . S
C3823 C3818 1.363 . S
C3823 C3822 1.415 . S
H3824 C3821 0.999 . S
H3825 C3806 0.913 . S
H3826 C3844 0.951 . S
H3827 C3846 0.951 . S
H3828 C3848 0.950 . S
H3829 C3849 0.950 . S
H3830 C3851 0.950 . S
H3831 C3854 0.950 . S
H3832 C3855 0.950 . S
H3833 C3857 0.950 . S
H3834 C3858 0.950 . S
H3835 C3859 0.951 . S
H3836 C3861 0.951 . S
H3837 C3863 0.950 . S
H3838 C3864 0.950 . S
H3839 C3866 0.950 . S
H3840 C3869 0.950 . S
H3841 C3870 0.950 . S
H3842 C3872 0.950 . S
H3843 C3873 0.950 . S
C3844 H3826 0.951 . S
C3844 C3845 1.366 . S
C3844 C3846 1.388 . S
C3845 C3844 1.366 . S
C3845 C3849 1.385 . S
C3846 H3827 0.951 . S
C3846 C3844 1.388 . S
C3846 C3847 1.366 . S
C3847 C3846 1.366 . S
C3847 C3848 1.414 . S
C3847 C3850 1.499 . S
C3848 H3828 0.950 . S
C3848 C3847 1.414 . S
C3848 C3849 1.374 . S
C3849 H3829 0.950 . S
C3849 C3845 1.385 . S
C3849 C3848 1.374 . S
C3850 C3847 1.499 . S
C3850 C3851 1.373 . S
C3850 C3852 1.389 . S
C3851 H3830 0.950 . S
C3851 C3850 1.373 . S
C3851 C3867 1.377 . S
C3852 C3850 1.389 . S
C3852 C3853 1.524 . S
C3852 C3866 1.377 . S
C3853 C3852 1.524 . S
C3853 C3854 1.397 . S
C3853 C3858 1.363 . S
C3854 H3831 0.950 . S
C3854 C3853 1.397 . S
C3854 C3855 1.334 . S
C3855 H3832 0.950 . S
C3855 C3854 1.334 . S
C3855 C3856 1.287 . S
C3856 C3855 1.287 . S
C3856 C3857 1.524 . S
C3856 H3875 0.913 . S
C3857 H3833 0.950 . S
C3857 C3856 1.524 . S
C3857 C3858 1.415 . S
C3858 H3834 0.950 . S
C3858 C3853 1.363 . S
C3858 C3857 1.415 . S
C3859 H3835 0.951 . S
C3859 C3860 1.366 . S
C3859 C3861 1.388 . S
C3860 C3859 1.366 . S
C3860 C3864 1.385 . S
C3861 H3836 0.951 . S
C3861 C3859 1.388 . S
C3861 C3862 1.366 . S
C3862 C3861 1.366 . S
C3862 C3863 1.414 . S
C3862 C3865 1.499 . S
C3863 H3837 0.950 . S
C3863 C3862 1.414 . S
C3863 C3864 1.374 . S
C3864 H3838 0.950 . S
C3864 C3860 1.385 . S
C3864 C3863 1.374 . S
C3865 C3862 1.499 . S
C3865 C3866 1.373 . S
C3865 C3867 1.389 . S
C3866 H3839 0.950 . S
C3866 C3852 1.377 . S
C3866 C3865 1.373 . S
C3867 C3851 1.377 . S
C3867 C3865 1.389 . S
C3867 C3868 1.524 . S
C3868 C3867 1.524 . S
C3868 C3869 1.397 . S
C3868 C3873 1.363 . S
C3869 H3840 0.950 . S
C3869 C3868 1.397 . S
C3869 C3870 1.334 . S
C3870 H3841 0.950 . S
C3870 C3869 1.334 . S
C3870 C3871 1.287 . S
C3871 C3870 1.287 . S
C3871 C3872 1.524 . S
C3871 H3874 0.999 . S
C3872 H3842 0.950 . S
C3872 C3871 1.524 . S
C3872 C3873 1.415 . S
C3873 H3843 0.950 . S
C3873 C3868 1.363 . S
C3873 C3872 1.415 . S
H3874 C3871 0.999 . S
H3875 C3856 0.913 . S
H3876 C3894 0.951 . S
H3877 C3896 0.951 . S
H3878 C3898 0.950 . S
H3879 C3899 0.950 . S
H3880 C3901 0.950 . S
H3881 C3904 0.950 . S
H3882 C3905 0.950 . S
H3883 C3907 0.950 . S
H3884 C3908 0.950 . S
H3885 C3909 0.951 . S
H3886 C3911 0.951 . S
H3887 C3913 0.950 . S
H3888 C3914 0.950 . S
H3889 C3916 0.950 . S
H3890 C3919 0.950 . S
H3891 C3920 0.950 . S
H3892 C3922 0.950 . S
H3893 C3923 0.950 . S
C3894 H3876 0.951 . S
C3894 C3895 1.366 . S
C3894 C3896 1.388 . S
C3895 C3894 1.366 . S
C3895 C3899 1.385 . S
C3896 H3877 0.951 . S
C3896 C3894 1.388 . S
C3896 C3897 1.366 . S
C3897 C3896 1.366 . S
C3897 C3898 1.414 . S
C3897 C3900 1.499 . S
C3898 H3878 0.950 . S
C3898 C3897 1.414 . S
C3898 C3899 1.374 . S
C3899 H3879 0.950 . S
C3899 C3895 1.385 . S
C3899 C3898 1.374 . S
C3900 C3897 1.499 . S
C3900 C3901 1.373 . S
C3900 C3902 1.389 . S
C3901 H3880 0.950 . S
C3901 C3900 1.373 . S
C3901 C3917 1.377 . S
C3902 C3900 1.389 . S
C3902 C3903 1.524 . S
C3902 C3916 1.377 . S
C3903 C3902 1.524 . S
C3903 C3904 1.397 . S
C3903 C3908 1.363 . S
C3904 H3881 0.950 . S
C3904 C3903 1.397 . S
C3904 C3905 1.334 . S
C3905 H3882 0.950 . S
C3905 C3904 1.334 . S
C3905 C3906 1.287 . S
C3906 C3905 1.287 . S
C3906 C3907 1.524 . S
C3906 H3925 0.913 . S
C3907 H3883 0.950 . S
C3907 C3906 1.524 . S
C3907 C3908 1.415 . S
C3908 H3884 0.950 . S
C3908 C3903 1.363 . S
C3908 C3907 1.415 . S
C3909 H3885 0.951 . S
C3909 C3910 1.366 . S
C3909 C3911 1.388 . S
C3910 C3909 1.366 . S
C3910 C3914 1.385 . S
C3911 H3886 0.951 . S
C3911 C3909 1.388 . S
C3911 C3912 1.366 . S
C3912 C3911 1.366 . S
C3912 C3913 1.414 . S
C3912 C3915 1.499 . S
C3913 H3887 0.950 . S
C3913 C3912 1.414 . S
C3913 C3914 1.374 . S
C3914 H3888 0.950 . S
C3914 C3910 1.385 . S
C3914 C3913 1.374 . S
C3915 C3912 1.499 . S
C3915 C3916 1.373 . S
C3915 C3917 1.389 . S
C3916 H3889 0.950 . S
C3916 C3902 1.377 . S
C3916 C3915 1.373 . S
C3917 C3901 1.377 . S
C3917 C3915 1.389 . S
C3917 C3918 1.524 . S
C3918 C3917 1.524 . S
C3918 C3919 1.397 . S
C3918 C3923 1.363 . S
C3919 H3890 0.950 . S
C3919 C3918 1.397 . S
C3919 C3920 1.334 . S
C3920 H3891 0.950 . S
C3920 C3919 1.334 . S
C3920 C3921 1.287 . S
C3921 C3920 1.287 . S
C3921 C3922 1.524 . S
C3921 H3924 0.999 . S
C3922 H3892 0.950 . S
C3922 C3921 1.524 . S
C3922 C3923 1.415 . S
C3923 H3893 0.950 . S
C3923 C3918 1.363 . S
C3923 C3922 1.415 . S
H3924 C3921 0.999 . S
H3925 C3906 0.913 . S
H3926 C3944 0.951 . S
H3927 C3946 0.951 . S
H3928 C3948 0.950 . S
H3929 C3949 0.950 . S
H3930 C3951 0.950 . S
H3931 C3954 0.950 . S
H3932 C3955 0.950 . S
H3933 C3957 0.950 . S
H3934 C3958 0.950 . S
H3935 C3959 0.951 . S
H3936 C3961 0.951 . S
H3937 C3963 0.950 . S
H3938 C3964 0.950 . S
H3939 C3966 0.950 . S
H3940 C3969 0.950 . S
H3941 C3970 0.950 . S
H3942 C3972 0.950 . S
H3943 C3973 0.950 . S
C3944 H3926 0.951 . S
C3944 C3945 1.366 . S
C3944 C3946 1.388 . S
C3945 C3944 1.366 . S
C3945 C3949 1.385 . S
C3946 H3927 0.951 . S
C3946 C3944 1.388 . S
C3946 C3947 1.366 . S
C3947 C3946 1.366 . S
C3947 C3948 1.414 . S
C3947 C3950 1.499 . S
C3948 H3928 0.950 . S
C3948 C3947 1.414 . S
C3948 C3949 1.374 . S
C3949 H3929 0.950 . S
C3949 C3945 1.385 . S
C3949 C3948 1.374 . S
C3950 C3947 1.499 . S
C3950 C3951 1.373 . S
C3950 C3952 1.389 . S
C3951 H3930 0.950 . S
C3951 C3950 1.373 . S
C3951 C3967 1.377 . S
C3952 C3950 1.389 . S
C3952 C3953 1.524 . S
C3952 C3966 1.377 . S
C3953 C3952 1.524 . S
C3953 C3954 1.397 . S
C3953 C3958 1.363 . S
C3954 H3931 0.950 . S
C3954 C3953 1.397 . S
C3954 C3955 1.334 . S
C3955 H3932 0.950 . S
C3955 C3954 1.334 . S
C3955 C3956 1.287 . S
C3956 C3955 1.287 . S
C3956 C3957 1.524 . S
C3956 H3975 0.913 . S
C3957 H3933 0.950 . S
C3957 C3956 1.524 . S
C3957 C3958 1.415 . S
C3958 H3934 0.950 . S
C3958 C3953 1.363 . S
C3958 C3957 1.415 . S
C3959 H3935 0.951 . S
C3959 C3960 1.366 . S
C3959 C3961 1.388 . S
C3960 C3959 1.366 . S
C3960 C3964 1.385 . S
C3961 H3936 0.951 . S
C3961 C3959 1.388 . S
C3961 C3962 1.366 . S
C3962 C3961 1.366 . S
C3962 C3963 1.414 . S
C3962 C3965 1.499 . S
C3963 H3937 0.950 . S
C3963 C3962 1.414 . S
C3963 C3964 1.374 . S
C3964 H3938 0.950 . S
C3964 C3960 1.385 . S
C3964 C3963 1.374 . S
C3965 C3962 1.499 . S
C3965 C3966 1.373 . S
C3965 C3967 1.389 . S
C3966 H3939 0.950 . S
C3966 C3952 1.377 . S
C3966 C3965 1.373 . S
C3967 C3951 1.377 . S
C3967 C3965 1.389 . S
C3967 C3968 1.524 . S
C3968 C3967 1.524 . S
C3968 C3969 1.397 . S
C3968 C3973 1.363 . S
C3969 H3940 0.950 . S
C3969 C3968 1.397 . S
C3969 C3970 1.334 . S
C3970 H3941 0.950 . S
C3970 C3969 1.334 . S
C3970 C3971 1.287 . S
C3971 C3970 1.287 . S
C3971 C3972 1.524 . S
C3971 H3974 0.999 . S
C3972 H3942 0.950 . S
C3972 C3971 1.524 . S
C3972 C3973 1.415 . S
C3973 H3943 0.950 . S
C3973 C3968 1.363 . S
C3973 C3972 1.415 . S
H3974 C3971 0.999 . S
H3975 C3956 0.913 . S
H3976 C3994 0.951 . S
H3977 C3996 0.951 . S
H3978 C3998 0.950 . S
H3979 C3999 0.950 . S
H3980 C4001 0.950 . S
H3981 C4004 0.950 . S
H3982 C4005 0.950 . S
H3983 C4007 0.950 . S
H3984 C4008 0.950 . S
H3985 C4009 0.951 . S
H3986 C4011 0.951 . S
H3987 C4013 0.950 . S
H3988 C4014 0.950 . S
H3989 C4016 0.950 . S
H3990 C4019 0.950 . S
H3991 C4020 0.950 . S
H3992 C4022 0.950 . S
H3993 C4023 0.950 . S
C3994 H3976 0.951 . S
C3994 C3995 1.366 . S
C3994 C3996 1.388 . S
C3995 C3994 1.366 . S
C3995 C3999 1.385 . S
C3996 H3977 0.951 . S
C3996 C3994 1.388 . S
C3996 C3997 1.366 . S
C3997 C3996 1.366 . S
C3997 C3998 1.414 . S
C3997 C4000 1.499 . S
C3998 H3978 0.950 . S
C3998 C3997 1.414 . S
C3998 C3999 1.374 . S
C3999 H3979 0.950 . S
C3999 C3995 1.385 . S
C3999 C3998 1.374 . S
C4000 C3997 1.499 . S
C4000 C4001 1.373 . S
C4000 C4002 1.389 . S
C4001 H3980 0.950 . S
C4001 C4000 1.373 . S
C4001 C4017 1.377 . S
C4002 C4000 1.389 . S
C4002 C4003 1.524 . S
C4002 C4016 1.377 . S
C4003 C4002 1.524 . S
C4003 C4004 1.397 . S
C4003 C4008 1.363 . S
C4004 H3981 0.950 . S
C4004 C4003 1.397 . S
C4004 C4005 1.334 . S
C4005 H3982 0.950 . S
C4005 C4004 1.334 . S
C4005 C4006 1.287 . S
C4006 C4005 1.287 . S
C4006 C4007 1.524 . S
C4006 H4025 0.913 . S
C4007 H3983 0.950 . S
C4007 C4006 1.524 . S
C4007 C4008 1.415 . S
C4008 H3984 0.950 . S
C4008 C4003 1.363 . S
C4008 C4007 1.415 . S
C4009 H3985 0.951 . S
C4009 C4010 1.366 . S
C4009 C4011 1.388 . S
C4010 C4009 1.366 . S
C4010 C4014 1.385 . S
C4011 H3986 0.951 . S
C4011 C4009 1.388 . S
C4011 C4012 1.366 . S
C4012 C4011 1.366 . S
C4012 C4013 1.414 . S
C4012 C4015 1.499 . S
C4013 H3987 0.950 . S
C4013 C4012 1.414 . S
C4013 C4014 1.374 . S
C4014 H3988 0.950 . S
C4014 C4010 1.385 . S
C4014 C4013 1.374 . S
C4015 C4012 1.499 . S
C4015 C4016 1.373 . S
C4015 C4017 1.389 . S
C4016 H3989 0.950 . S
C4016 C4002 1.377 . S
C4016 C4015 1.373 . S
C4017 C4001 1.377 . S
C4017 C4015 1.389 . S
C4017 C4018 1.524 . S
C4018 C4017 1.524 . S
C4018 C4019 1.397 . S
C4018 C4023 1.363 . S
C4019 H3990 0.950 . S
C4019 C4018 1.397 . S
C4019 C4020 1.334 . S
C4020 H3991 0.950 . S
C4020 C4019 1.334 . S
C4020 C4021 1.287 . S
C4021 C4020 1.287 . S
C4021 C4022 1.524 . S
C4021 H4024 0.999 . S
C4022 H3992 0.950 . S
C4022 C4021 1.524 . S
C4022 C4023 1.415 . S
C4023 H3993 0.950 . S
C4023 C4018 1.363 . S
C4023 C4022 1.415 . S
H4024 C4021 0.999 . S
H4025 C4006 0.913 . S
H4026 C4044 0.951 . S
H4027 C4046 0.951 . S
H4028 C4048 0.950 . S
H4029 C4049 0.950 . S
H4030 C4051 0.950 . S
H4031 C4054 0.950 . S
H4032 C4055 0.950 . S
H4033 C4057 0.950 . S
H4034 C4058 0.950 . S
H4035 C4059 0.951 . S
H4036 C4061 0.951 . S
H4037 C4063 0.950 . S
H4038 C4064 0.950 . S
H4039 C4066 0.950 . S
H4040 C4069 0.950 . S
H4041 C4070 0.950 . S
H4042 C4072 0.950 . S
H4043 C4073 0.950 . S
C4044 H4026 0.951 . S
C4044 C4045 1.366 . S
C4044 C4046 1.388 . S
C4045 C4044 1.366 . S
C4045 C4049 1.385 . S
C4046 H4027 0.951 . S
C4046 C4044 1.388 . S
C4046 C4047 1.366 . S
C4047 C4046 1.366 . S
C4047 C4048 1.414 . S
C4047 C4050 1.499 . S
C4048 H4028 0.950 . S
C4048 C4047 1.414 . S
C4048 C4049 1.374 . S
C4049 H4029 0.950 . S
C4049 C4045 1.385 . S
C4049 C4048 1.374 . S
C4050 C4047 1.499 . S
C4050 C4051 1.373 . S
C4050 C4052 1.389 . S
C4051 H4030 0.950 . S
C4051 C4050 1.373 . S
C4051 C4067 1.377 . S
C4052 C4050 1.389 . S
C4052 C4053 1.524 . S
C4052 C4066 1.377 . S
C4053 C4052 1.524 . S
C4053 C4054 1.397 . S
C4053 C4058 1.363 . S
C4054 H4031 0.950 . S
C4054 C4053 1.397 . S
C4054 C4055 1.334 . S
C4055 H4032 0.950 . S
C4055 C4054 1.334 . S
C4055 C4056 1.287 . S
C4056 C4055 1.287 . S
C4056 C4057 1.524 . S
C4056 H4075 0.913 . S
C4057 H4033 0.950 . S
C4057 C4056 1.524 . S
C4057 C4058 1.415 . S
C4058 H4034 0.950 . S
C4058 C4053 1.363 . S
C4058 C4057 1.415 . S
C4059 H4035 0.951 . S
C4059 C4060 1.366 . S
C4059 C4061 1.388 . S
C4060 C4059 1.366 . S
C4060 C4064 1.385 . S
C4061 H4036 0.951 . S
C4061 C4059 1.388 . S
C4061 C4062 1.366 . S
C4062 C4061 1.366 . S
C4062 C4063 1.414 . S
C4062 C4065 1.499 . S
C4063 H4037 0.950 . S
C4063 C4062 1.414 . S
C4063 C4064 1.374 . S
C4064 H4038 0.950 . S
C4064 C4060 1.385 . S
C4064 C4063 1.374 . S
C4065 C4062 1.499 . S
C4065 C4066 1.373 . S
C4065 C4067 1.389 . S
C4066 H4039 0.950 . S
C4066 C4052 1.377 . S
C4066 C4065 1.373 . S
C4067 C4051 1.377 . S
C4067 C4065 1.389 . S
C4067 C4068 1.524 . S
C4068 C4067 1.524 . S
C4068 C4069 1.397 . S
C4068 C4073 1.363 . S
C4069 H4040 0.950 . S
C4069 C4068 1.397 . S
C4069 C4070 1.334 . S
C4070 H4041 0.950 . S
C4070 C4069 1.334 . S
C4070 C4071 1.287 . S
C4071 C4070 1.287 . S
C4071 C4072 1.524 . S
C4071 H4074 0.999 . S
C4072 H4042 0.950 . S
C4072 C4071 1.524 . S
C4072 C4073 1.415 . S
C4073 H4043 0.950 . S
C4073 C4068 1.363 . S
C4073 C4072 1.415 . S
H4074 C4071 0.999 . S
H4075 C4056 0.913 . S
H4076 C4094 0.951 . S
H4077 C4096 0.951 . S
H4078 C4098 0.950 . S
H4079 C4099 0.950 . S
H4080 C4101 0.950 . S
H4081 C4104 0.950 . S
H4082 C4105 0.950 . S
H4083 C4107 0.950 . S
H4084 C4108 0.950 . S
H4085 C4109 0.951 . S
H4086 C4111 0.951 . S
H4087 C4113 0.950 . S
H4088 C4114 0.950 . S
H4089 C4116 0.950 . S
H4090 C4119 0.950 . S
H4091 C4120 0.950 . S
H4092 C4122 0.950 . S
H4093 C4123 0.950 . S
C4094 H4076 0.951 . S
C4094 C4095 1.366 . S
C4094 C4096 1.388 . S
C4095 C4094 1.366 . S
C4095 C4099 1.385 . S
C4096 H4077 0.951 . S
C4096 C4094 1.388 . S
C4096 C4097 1.366 . S
C4097 C4096 1.366 . S
C4097 C4098 1.414 . S
C4097 C4100 1.499 . S
C4098 H4078 0.950 . S
C4098 C4097 1.414 . S
C4098 C4099 1.374 . S
C4099 H4079 0.950 . S
C4099 C4095 1.385 . S
C4099 C4098 1.374 . S
C4100 C4097 1.499 . S
C4100 C4101 1.373 . S
C4100 C4102 1.389 . S
C4101 H4080 0.950 . S
C4101 C4100 1.373 . S
C4101 C4117 1.377 . S
C4102 C4100 1.389 . S
C4102 C4103 1.524 . S
C4102 C4116 1.377 . S
C4103 C4102 1.524 . S
C4103 C4104 1.397 . S
C4103 C4108 1.363 . S
C4104 H4081 0.950 . S
C4104 C4103 1.397 . S
C4104 C4105 1.334 . S
C4105 H4082 0.950 . S
C4105 C4104 1.334 . S
C4105 C4106 1.287 . S
C4106 C4105 1.287 . S
C4106 C4107 1.524 . S
C4106 H4125 0.913 . S
C4107 H4083 0.950 . S
C4107 C4106 1.524 . S
C4107 C4108 1.415 . S
C4108 H4084 0.950 . S
C4108 C4103 1.363 . S
C4108 C4107 1.415 . S
C4109 H4085 0.951 . S
C4109 C4110 1.366 . S
C4109 C4111 1.388 . S
C4110 C4109 1.366 . S
C4110 C4114 1.385 . S
C4111 H4086 0.951 . S
C4111 C4109 1.388 . S
C4111 C4112 1.366 . S
C4112 C4111 1.366 . S
C4112 C4113 1.414 . S
C4112 C4115 1.499 . S
C4113 H4087 0.950 . S
C4113 C4112 1.414 . S
C4113 C4114 1.374 . S
C4114 H4088 0.950 . S
C4114 C4110 1.385 . S
C4114 C4113 1.374 . S
C4115 C4112 1.499 . S
C4115 C4116 1.373 . S
C4115 C4117 1.389 . S
C4116 H4089 0.950 . S
C4116 C4102 1.377 . S
C4116 C4115 1.373 . S
C4117 C4101 1.377 . S
C4117 C4115 1.389 . S
C4117 C4118 1.524 . S
C4118 C4117 1.524 . S
C4118 C4119 1.397 . S
C4118 C4123 1.363 . S
C4119 H4090 0.950 . S
C4119 C4118 1.397 . S
C4119 C4120 1.334 . S
C4120 H4091 0.950 . S
C4120 C4119 1.334 . S
C4120 C4121 1.287 . S
C4121 C4120 1.287 . S
C4121 C4122 1.524 . S
C4121 H4124 0.999 . S
C4122 H4092 0.950 . S
C4122 C4121 1.524 . S
C4122 C4123 1.415 . S
C4123 H4093 0.950 . S
C4123 C4118 1.363 . S
C4123 C4122 1.415 . S
H4124 C4121 0.999 . S
H4125 C4106 0.913 . S
H4126 C4144 0.951 . S
H4127 C4146 0.951 . S
H4128 C4148 0.950 . S
H4129 C4149 0.950 . S
H4130 C4151 0.950 . S
H4131 C4154 0.950 . S
H4132 C4155 0.950 . S
H4133 C4157 0.950 . S
H4134 C4158 0.950 . S
H4135 C4159 0.951 . S
H4136 C4161 0.951 . S
H4137 C4163 0.950 . S
H4138 C4164 0.950 . S
H4139 C4166 0.950 . S
H4140 C4169 0.950 . S
H4141 C4170 0.950 . S
H4142 C4172 0.950 . S
H4143 C4173 0.950 . S
C4144 H4126 0.951 . S
C4144 C4145 1.366 . S
C4144 C4146 1.388 . S
C4145 C4144 1.366 . S
C4145 C4149 1.385 . S
C4146 H4127 0.951 . S
C4146 C4144 1.388 . S
C4146 C4147 1.366 . S
C4147 C4146 1.366 . S
C4147 C4148 1.414 . S
C4147 C4150 1.499 . S
C4148 H4128 0.950 . S
C4148 C4147 1.414 . S
C4148 C4149 1.374 . S
C4149 H4129 0.950 . S
C4149 C4145 1.385 . S
C4149 C4148 1.374 . S
C4150 C4147 1.499 . S
C4150 C4151 1.373 . S
C4150 C4152 1.389 . S
C4151 H4130 0.950 . S
C4151 C4150 1.373 . S
C4151 C4167 1.377 . S
C4152 C4150 1.389 . S
C4152 C4153 1.524 . S
C4152 C4166 1.377 . S
C4153 C4152 1.524 . S
C4153 C4154 1.397 . S
C4153 C4158 1.363 . S
C4154 H4131 0.950 . S
C4154 C4153 1.397 . S
C4154 C4155 1.334 . S
C4155 H4132 0.950 . S
C4155 C4154 1.334 . S
C4155 C4156 1.287 . S
C4156 C4155 1.287 . S
C4156 C4157 1.524 . S
C4156 H4175 0.913 . S
C4157 H4133 0.950 . S
C4157 C4156 1.524 . S
C4157 C4158 1.415 . S
C4158 H4134 0.950 . S
C4158 C4153 1.363 . S
C4158 C4157 1.415 . S
C4159 H4135 0.951 . S
C4159 C4160 1.366 . S
C4159 C4161 1.388 . S
C4160 C4159 1.366 . S
C4160 C4164 1.385 . S
C4161 H4136 0.951 . S
C4161 C4159 1.388 . S
C4161 C4162 1.366 . S
C4162 C4161 1.366 . S
C4162 C4163 1.414 . S
C4162 C4165 1.499 . S
C4163 H4137 0.950 . S
C4163 C4162 1.414 . S
C4163 C4164 1.374 . S
C4164 H4138 0.950 . S
C4164 C4160 1.385 . S
C4164 C4163 1.374 . S
C4165 C4162 1.499 . S
C4165 C4166 1.373 . S
C4165 C4167 1.389 . S
C4166 H4139 0.950 . S
C4166 C4152 1.377 . S
C4166 C4165 1.373 . S
C4167 C4151 1.377 . S
C4167 C4165 1.389 . S
C4167 C4168 1.524 . S
C4168 C4167 1.524 . S
C4168 C4169 1.397 . S
C4168 C4173 1.363 . S
C4169 H4140 0.950 . S
C4169 C4168 1.397 . S
C4169 C4170 1.334 . S
C4170 H4141 0.950 . S
C4170 C4169 1.334 . S
C4170 C4171 1.287 . S
C4171 C4170 1.287 . S
C4171 C4172 1.524 . S
C4171 H4174 0.999 . S
C4172 H4142 0.950 . S
C4172 C4171 1.524 . S
C4172 C4173 1.415 . S
C4173 H4143 0.950 . S
C4173 C4168 1.363 . S
C4173 C4172 1.415 . S
H4174 C4171 0.999 . S
H4175 C4156 0.913 . S
H4176 C4194 0.951 . S
H4177 C4196 0.951 . S
H4178 C4198 0.950 . S
H4179 C4199 0.950 . S
H4180 C4201 0.950 . S
H4181 C4204 0.950 . S
H4182 C4205 0.950 . S
H4183 C4207 0.950 . S
H4184 C4208 0.950 . S
H4185 C4209 0.951 . S
H4186 C4211 0.951 . S
H4187 C4213 0.950 . S
H4188 C4214 0.950 . S
H4189 C4216 0.950 . S
H4190 C4219 0.950 . S
H4191 C4220 0.950 . S
H4192 C4222 0.950 . S
H4193 C4223 0.950 . S
C4194 H4176 0.951 . S
C4194 C4195 1.366 . S
C4194 C4196 1.388 . S
C4195 C4194 1.366 . S
C4195 C4199 1.385 . S
C4196 H4177 0.951 . S
C4196 C4194 1.388 . S
C4196 C4197 1.366 . S
C4197 C4196 1.366 . S
C4197 C4198 1.414 . S
C4197 C4200 1.499 . S
C4198 H4178 0.950 . S
C4198 C4197 1.414 . S
C4198 C4199 1.374 . S
C4199 H4179 0.950 . S
C4199 C4195 1.385 . S
C4199 C4198 1.374 . S
C4200 C4197 1.499 . S
C4200 C4201 1.373 . S
C4200 C4202 1.389 . S
C4201 H4180 0.950 . S
C4201 C4200 1.373 . S
C4201 C4217 1.377 . S
C4202 C4200 1.389 . S
C4202 C4203 1.524 . S
C4202 C4216 1.377 . S
C4203 C4202 1.524 . S
C4203 C4204 1.397 . S
C4203 C4208 1.363 . S
C4204 H4181 0.950 . S
C4204 C4203 1.397 . S
C4204 C4205 1.334 . S
C4205 H4182 0.950 . S
C4205 C4204 1.334 . S
C4205 C4206 1.287 . S
C4206 C4205 1.287 . S
C4206 C4207 1.524 . S
C4206 H4225 0.913 . S
C4207 H4183 0.950 . S
C4207 C4206 1.524 . S
C4207 C4208 1.415 . S
C4208 H4184 0.950 . S
C4208 C4203 1.363 . S
C4208 C4207 1.415 . S
C4209 H4185 0.951 . S
C4209 C4210 1.366 . S
C4209 C4211 1.388 . S
C4210 C4209 1.366 . S
C4210 C4214 1.385 . S
C4211 H4186 0.951 . S
C4211 C4209 1.388 . S
C4211 C4212 1.366 . S
C4212 C4211 1.366 . S
C4212 C4213 1.414 . S
C4212 C4215 1.499 . S
C4213 H4187 0.950 . S
C4213 C4212 1.414 . S
C4213 C4214 1.374 . S
C4214 H4188 0.950 . S
C4214 C4210 1.385 . S
C4214 C4213 1.374 . S
C4215 C4212 1.499 . S
C4215 C4216 1.373 . S
C4215 C4217 1.389 . S
C4216 H4189 0.950 . S
C4216 C4202 1.377 . S
C4216 C4215 1.373 . S
C4217 C4201 1.377 . S
C4217 C4215 1.389 . S
C4217 C4218 1.524 . S
C4218 C4217 1.524 . S
C4218 C4219 1.397 . S
C4218 C4223 1.363 . S
C4219 H4190 0.950 . S
C4219 C4218 1.397 . S
C4219 C4220 1.334 . S
C4220 H4191 0.950 . S
C4220 C4219 1.334 . S
C4220 C4221 1.287 . S
C4221 C4220 1.287 . S
C4221 C4222 1.524 . S
C4221 H4224 0.999 . S
C4222 H4192 0.950 . S
C4222 C4221 1.524 . S
C4222 C4223 1.415 . S
C4223 H4193 0.950 . S
C4223 C4218 1.363 . S
C4223 C4222 1.415 . S
H4224 C4221 0.999 . S
H4225 C4206 0.913 . S
H4226 C4244 0.951 . S
H4227 C4246 0.951 . S
H4228 C4248 0.950 . S
H4229 C4249 0.950 . S
H4230 C4251 0.950 . S
H4231 C4254 0.950 . S
H4232 C4255 0.950 . S
H4233 C4257 0.950 . S
H4234 C4258 0.950 . S
H4235 C4259 0.951 . S
H4236 C4261 0.951 . S
H4237 C4263 0.950 . S
H4238 C4264 0.950 . S
H4239 C4266 0.950 . S
H4240 C4269 0.950 . S
H4241 C4270 0.950 . S
H4242 C4272 0.950 . S
H4243 C4273 0.950 . S
C4244 H4226 0.951 . S
C4244 C4245 1.366 . S
C4244 C4246 1.388 . S
C4245 C4244 1.366 . S
C4245 C4249 1.385 . S
C4246 H4227 0.951 . S
C4246 C4244 1.388 . S
C4246 C4247 1.366 . S
C4247 C4246 1.366 . S
C4247 C4248 1.414 . S
C4247 C4250 1.499 . S
C4248 H4228 0.950 . S
C4248 C4247 1.414 . S
C4248 C4249 1.374 . S
C4249 H4229 0.950 . S
C4249 C4245 1.385 . S
C4249 C4248 1.374 . S
C4250 C4247 1.499 . S
C4250 C4251 1.373 . S
C4250 C4252 1.389 . S
C4251 H4230 0.950 . S
C4251 C4250 1.373 . S
C4251 C4267 1.377 . S
C4252 C4250 1.389 . S
C4252 C4253 1.524 . S
C4252 C4266 1.377 . S
C4253 C4252 1.524 . S
C4253 C4254 1.397 . S
C4253 C4258 1.363 . S
C4254 H4231 0.950 . S
C4254 C4253 1.397 . S
C4254 C4255 1.334 . S
C4255 H4232 0.950 . S
C4255 C4254 1.334 . S
C4255 C4256 1.287 . S
C4256 C4255 1.287 . S
C4256 C4257 1.524 . S
C4256 H4275 0.913 . S
C4257 H4233 0.950 . S
C4257 C4256 1.524 . S
C4257 C4258 1.415 . S
C4258 H4234 0.950 . S
C4258 C4253 1.363 . S
C4258 C4257 1.415 . S
C4259 H4235 0.951 . S
C4259 C4260 1.366 . S
C4259 C4261 1.388 . S
C4260 C4259 1.366 . S
C4260 C4264 1.385 . S
C4261 H4236 0.951 . S
C4261 C4259 1.388 . S
C4261 C4262 1.366 . S
C4262 C4261 1.366 . S
C4262 C4263 1.414 . S
C4262 C4265 1.499 . S
C4263 H4237 0.950 . S
C4263 C4262 1.414 . S
C4263 C4264 1.374 . S
C4264 H4238 0.950 . S
C4264 C4260 1.385 . S
C4264 C4263 1.374 . S
C4265 C4262 1.499 . S
C4265 C4266 1.373 . S
C4265 C4267 1.389 . S
C4266 H4239 0.950 . S
C4266 C4252 1.377 . S
C4266 C4265 1.373 . S
C4267 C4251 1.377 . S
C4267 C4265 1.389 . S
C4267 C4268 1.524 . S
C4268 C4267 1.524 . S
C4268 C4269 1.397 . S
C4268 C4273 1.363 . S
C4269 H4240 0.950 . S
C4269 C4268 1.397 . S
C4269 C4270 1.334 . S
C4270 H4241 0.950 . S
C4270 C4269 1.334 . S
C4270 C4271 1.287 . S
C4271 C4270 1.287 . S
C4271 C4272 1.524 . S
C4271 H4274 0.999 . S
C4272 H4242 0.950 . S
C4272 C4271 1.524 . S
C4272 C4273 1.415 . S
C4273 H4243 0.950 . S
C4273 C4268 1.363 . S
C4273 C4272 1.415 . S
H4274 C4271 0.999 . S
H4275 C4256 0.913 . S
H4276 C4294 0.951 . S
H4277 C4296 0.951 . S
H4278 C4298 0.950 . S
H4279 C4299 0.950 . S
H4280 C4301 0.950 . S
H4281 C4304 0.950 . S
H4282 C4305 0.950 . S
H4283 C4307 0.950 . S
H4284 C4308 0.950 . S
H4285 C4309 0.951 . S
H4286 C4311 0.951 . S
H4287 C4313 0.950 . S
H4288 C4314 0.950 . S
H4289 C4316 0.950 . S
H4290 C4319 0.950 . S
H4291 C4320 0.950 . S
H4292 C4322 0.950 . S
H4293 C4323 0.950 . S
C4294 H4276 0.951 . S
C4294 C4295 1.366 . S
C4294 C4296 1.388 . S
C4295 C4294 1.366 . S
C4295 C4299 1.385 . S
C4296 H4277 0.951 . S
C4296 C4294 1.388 . S
C4296 C4297 1.366 . S
C4297 C4296 1.366 . S
C4297 C4298 1.414 . S
C4297 C4300 1.499 . S
C4298 H4278 0.950 . S
C4298 C4297 1.414 . S
C4298 C4299 1.374 . S
C4299 H4279 0.950 . S
C4299 C4295 1.385 . S
C4299 C4298 1.374 . S
C4300 C4297 1.499 . S
C4300 C4301 1.373 . S
C4300 C4302 1.389 . S
C4301 H4280 0.950 . S
C4301 C4300 1.373 . S
C4301 C4317 1.377 . S
C4302 C4300 1.389 . S
C4302 C4303 1.524 . S
C4302 C4316 1.377 . S
C4303 C4302 1.524 . S
C4303 C4304 1.397 . S
C4303 C4308 1.363 . S
C4304 H4281 0.950 . S
C4304 C4303 1.397 . S
C4304 C4305 1.334 . S
C4305 H4282 0.950 . S
C4305 C4304 1.334 . S
C4305 C4306 1.287 . S
C4306 C4305 1.287 . S
C4306 C4307 1.524 . S
C4306 H4325 0.913 . S
C4307 H4283 0.950 . S
C4307 C4306 1.524 . S
C4307 C4308 1.415 . S
C4308 H4284 0.950 . S
C4308 C4303 1.363 . S
C4308 C4307 1.415 . S
C4309 H4285 0.951 . S
C4309 C4310 1.366 . S
C4309 C4311 1.388 . S
C4310 C4309 1.366 . S
C4310 C4314 1.385 . S
C4311 H4286 0.951 . S
C4311 C4309 1.388 . S
C4311 C4312 1.366 . S
C4312 C4311 1.366 . S
C4312 C4313 1.414 . S
C4312 C4315 1.499 . S
C4313 H4287 0.950 . S
C4313 C4312 1.414 . S
C4313 C4314 1.374 . S
C4314 H4288 0.950 . S
C4314 C4310 1.385 . S
C4314 C4313 1.374 . S
C4315 C4312 1.499 . S
C4315 C4316 1.373 . S
C4315 C4317 1.389 . S
C4316 H4289 0.950 . S
C4316 C4302 1.377 . S
C4316 C4315 1.373 . S
C4317 C4301 1.377 . S
C4317 C4315 1.389 . S
C4317 C4318 1.524 . S
C4318 C4317 1.524 . S
C4318 C4319 1.397 . S
C4318 C4323 1.363 . S
C4319 H4290 0.950 . S
C4319 C4318 1.397 . S
C4319 C4320 1.334 . S
C4320 H4291 0.950 . S
C4320 C4319 1.334 . S
C4320 C4321 1.287 . S
C4321 C4320 1.287 . S
C4321 C4322 1.524 . S
C4321 H4324 0.999 . S
C4322 H4292 0.950 . S
C4322 C4321 1.524 . S
C4322 C4323 1.415 . S
C4323 H4293 0.950 . S
C4323 C4318 1.363 . S
C4323 C4322 1.415 . S
H4324 C4321 0.999 . S
H4325 C4306 0.913 . S
H4326 C4344 0.951 . S
H4327 C4346 0.951 . S
H4328 C4348 0.950 . S
H4329 C4349 0.950 . S
H4330 C4351 0.950 1_556 S
H4331 C4354 0.950 . S
H4332 C4355 0.950 . S
H4333 C4357 0.950 . S
H4334 C4358 0.950 . S
H4335 C4359 0.951 . S
H4336 C4361 0.951 . S
H4337 C4363 0.950 . S
H4338 C4364 0.950 . S
H4339 C4366 0.950 . S
H4340 C4369 0.950 . S
H4341 C4370 0.950 . S
H4342 C4372 0.950 . S
H4343 C4373 0.950 . S
C4344 H4326 0.951 . S
C4344 C4345 1.366 . S
C4344 C4346 1.388 . S
C4345 C4344 1.366 . S
C4345 C4349 1.385 . S
C4346 H4327 0.951 . S
C4346 C4344 1.388 . S
C4346 C4347 1.366 . S
C4347 C4346 1.366 . S
C4347 C4348 1.414 . S
C4347 C4350 1.499 . S
C4348 H4328 0.950 . S
C4348 C4347 1.414 . S
C4348 C4349 1.374 . S
C4349 H4329 0.950 . S
C4349 C4345 1.385 . S
C4349 C4348 1.374 . S
C4350 C4347 1.499 . S
C4350 C4351 1.373 . S
C4350 C4352 1.389 . S
C4351 H4330 0.950 1_554 S
C4351 C4350 1.373 . S
C4351 C4367 1.387 . S
C4352 C4350 1.389 . S
C4352 C4353 1.524 . S
C4352 C4366 1.377 . S
C4353 C4352 1.524 . S
C4353 C4354 1.397 . S
C4353 C4358 1.363 . S
C4354 H4331 0.950 . S
C4354 C4353 1.397 . S
C4354 C4355 1.334 . S
C4355 H4332 0.950 . S
C4355 C4354 1.334 . S
C4355 C4356 1.287 . S
C4356 C4355 1.287 . S
C4356 C4357 1.524 . S
C4356 H4375 0.913 . S
C4357 H4333 0.950 . S
C4357 C4356 1.524 . S
C4357 C4358 1.415 . S
C4358 H4334 0.950 . S
C4358 C4353 1.363 . S
C4358 C4357 1.415 . S
C4359 H4335 0.951 . S
C4359 C4360 1.366 . S
C4359 C4361 1.388 . S
C4360 C4359 1.366 . S
C4360 C4364 1.385 1_545 S
C4361 H4336 0.951 . S
C4361 C4359 1.388 . S
C4361 C4362 1.366 1_545 S
C4362 C4361 1.366 1_565 S
C4362 C4363 1.414 . S
C4362 C4365 1.499 . S
C4363 H4337 0.950 . S
C4363 C4362 1.414 . S
C4363 C4364 1.374 . S
C4364 H4338 0.950 . S
C4364 C4360 1.385 1_565 S
C4364 C4363 1.374 . S
C4365 C4362 1.499 . S
C4365 C4366 1.373 . S
C4365 C4367 1.411 . S
C4366 H4339 0.950 . S
C4366 C4352 1.377 . S
C4366 C4365 1.373 . S
C4367 C4351 1.387 . S
C4367 C4365 1.411 . S
C4367 C4368 1.447 1_564 S
C4368 C4367 1.447 1_546 S
C4368 C4369 1.382 1_545 S
C4368 C4373 1.417 . S
C4369 H4340 0.950 . S
C4369 C4368 1.382 1_565 S
C4369 C4370 1.334 1_565 S
C4370 H4341 0.950 . S
C4370 C4369 1.334 1_545 S
C4370 C4371 1.287 . S
C4371 C4370 1.287 . S
C4371 C4372 1.524 . S
C4371 H4374 0.999 . S
C4372 H4342 0.950 . S
C4372 C4371 1.524 . S
C4372 C4373 1.415 . S
C4373 H4343 0.950 . S
C4373 C4368 1.417 . S
C4373 C4372 1.415 . S
H4374 C4371 0.999 . S
H4375 C4356 0.913 . S
H4376 C4394 0.951 . S
H4377 C4396 0.951 . S
H4378 C4398 0.950 . S
H4379 C4399 0.950 . S
H4380 C4401 0.950 . S
H4381 C4404 0.950 . S
H4382 C4405 0.950 . S
H4383 C4407 0.950 . S
H4384 C4408 0.950 . S
H4385 C4409 0.951 . S
H4386 C4411 0.951 . S
H4387 C4413 0.950 . S
H4388 C4414 0.950 . S
H4389 C4416 0.950 . S
H4390 C4419 0.950 . S
H4391 C4420 0.950 . S
H4392 C4422 0.950 . S
H4393 C4423 0.950 . S
C4394 H4376 0.951 . S
C4394 C4395 1.366 . S
C4394 C4396 1.388 . S
C4395 C4394 1.366 . S
C4395 C4399 1.385 . S
C4396 H4377 0.951 . S
C4396 C4394 1.388 . S
C4396 C4397 1.366 . S
C4397 C4396 1.366 . S
C4397 C4398 1.414 . S
C4397 C4400 1.499 . S
C4398 H4378 0.950 . S
C4398 C4397 1.414 . S
C4398 C4399 1.374 . S
C4399 H4379 0.950 . S
C4399 C4395 1.385 . S
C4399 C4398 1.374 . S
C4400 C4397 1.499 . S
C4400 C4401 1.373 . S
C4400 C4402 1.389 . S
C4401 H4380 0.950 . S
C4401 C4400 1.373 . S
C4401 C4417 1.377 . S
C4402 C4400 1.389 . S
C4402 C4403 1.524 . S
C4402 C4416 1.377 . S
C4403 C4402 1.524 . S
C4403 C4404 1.397 . S
C4403 C4408 1.363 . S
C4404 H4381 0.950 . S
C4404 C4403 1.397 . S
C4404 C4405 1.334 . S
C4405 H4382 0.950 . S
C4405 C4404 1.334 . S
C4405 C4406 1.287 . S
C4406 C4405 1.287 . S
C4406 C4407 1.524 . S
C4406 H4425 0.913 . S
C4407 H4383 0.950 . S
C4407 C4406 1.524 . S
C4407 C4408 1.415 . S
C4408 H4384 0.950 . S
C4408 C4403 1.363 . S
C4408 C4407 1.415 . S
C4409 H4385 0.951 . S
C4409 C4410 1.366 . S
C4409 C4411 1.388 . S
C4410 C4409 1.366 . S
C4410 C4414 1.385 . S
C4411 H4386 0.951 . S
C4411 C4409 1.388 . S
C4411 C4412 1.366 . S
C4412 C4411 1.366 . S
C4412 C4413 1.414 . S
C4412 C4415 1.499 . S
C4413 H4387 0.950 . S
C4413 C4412 1.414 . S
C4413 C4414 1.374 . S
C4414 H4388 0.950 . S
C4414 C4410 1.385 . S
C4414 C4413 1.374 . S
C4415 C4412 1.499 . S
C4415 C4416 1.373 . S
C4415 C4417 1.389 . S
C4416 H4389 0.950 . S
C4416 C4402 1.377 . S
C4416 C4415 1.373 . S
C4417 C4401 1.377 . S
C4417 C4415 1.389 . S
C4417 C4418 1.524 . S
C4418 C4417 1.524 . S
C4418 C4419 1.397 . S
C4418 C4423 1.363 . S
C4419 H4390 0.950 . S
C4419 C4418 1.397 . S
C4419 C4420 1.334 . S
C4420 H4391 0.950 . S
C4420 C4419 1.334 . S
C4420 C4421 1.287 . S
C4421 C4420 1.287 . S
C4421 C4422 1.524 . S
C4421 H4424 0.999 . S
C4422 H4392 0.950 . S
C4422 C4421 1.524 . S
C4422 C4423 1.415 . S
C4423 H4393 0.950 . S
C4423 C4418 1.363 . S
C4423 C4422 1.415 . S
H4424 C4421 0.999 . S
H4425 C4406 0.913 . S
H4426 C4444 0.951 . S
H4427 C4446 0.951 . S
H4428 C4448 0.950 . S
H4429 C4449 0.950 . S
H4430 C4451 0.950 1_556 S
H4431 C4454 0.950 . S
H4432 C4455 0.950 . S
H4433 C4457 0.950 . S
H4434 C4458 0.950 . S
H4435 C4459 0.951 . S
H4436 C4461 0.951 . S
H4437 C4463 0.950 . S
H4438 C4464 0.950 . S
H4439 C4466 0.950 . S
H4440 C4469 0.950 . S
H4441 C4470 0.950 . S
H4442 C4472 0.950 . S
H4443 C4473 0.950 . S
C4444 H4426 0.951 . S
C4444 C4445 1.366 . S
C4444 C4446 1.388 . S
C4445 C4444 1.366 . S
C4445 C4449 1.385 . S
C4446 H4427 0.951 . S
C4446 C4444 1.388 . S
C4446 C4447 1.366 . S
C4447 C4446 1.366 . S
C4447 C4448 1.414 . S
C4447 C4450 1.499 . S
C4448 H4428 0.950 . S
C4448 C4447 1.414 . S
C4448 C4449 1.374 . S
C4449 H4429 0.950 . S
C4449 C4445 1.385 . S
C4449 C4448 1.374 . S
C4450 C4447 1.499 . S
C4450 C4451 1.373 . S
C4450 C4452 1.389 . S
C4451 H4430 0.950 1_554 S
C4451 C4450 1.373 . S
C4451 C4467 1.377 . S
C4452 C4450 1.389 . S
C4452 C4453 1.524 . S
C4452 C4466 1.377 . S
C4453 C4452 1.524 . S
C4453 C4454 1.397 . S
C4453 C4458 1.363 . S
C4454 H4431 0.950 . S
C4454 C4453 1.397 . S
C4454 C4455 1.334 . S
C4455 H4432 0.950 . S
C4455 C4454 1.334 . S
C4455 C4456 1.287 . S
C4456 C4455 1.287 . S
C4456 C4457 1.524 . S
C4456 H4475 0.913 . S
C4457 H4433 0.950 . S
C4457 C4456 1.524 . S
C4457 C4458 1.415 . S
C4458 H4434 0.950 . S
C4458 C4453 1.363 . S
C4458 C4457 1.415 . S
C4459 H4435 0.951 . S
C4459 C4460 1.366 . S
C4459 C4461 1.388 . S
C4460 C4459 1.366 . S
C4460 C4464 1.385 . S
C4461 H4436 0.951 . S
C4461 C4459 1.388 . S
C4461 C4462 1.366 . S
C4462 C4461 1.366 . S
C4462 C4463 1.414 . S
C4462 C4465 1.499 . S
C4463 H4437 0.950 . S
C4463 C4462 1.414 . S
C4463 C4464 1.374 . S
C4464 H4438 0.950 . S
C4464 C4460 1.385 . S
C4464 C4463 1.374 . S
C4465 C4462 1.499 . S
C4465 C4466 1.373 . S
C4465 C4467 1.389 . S
C4466 H4439 0.950 . S
C4466 C4452 1.377 . S
C4466 C4465 1.373 . S
C4467 C4451 1.377 . S
C4467 C4465 1.389 . S
C4467 C4468 1.524 1_554 S
C4468 C4467 1.524 1_556 S
C4468 C4469 1.397 . S
C4468 C4473 1.363 . S
C4469 H4440 0.950 . S
C4469 C4468 1.397 . S
C4469 C4470 1.334 . S
C4470 H4441 0.950 . S
C4470 C4469 1.334 . S
C4470 C4471 1.287 . S
C4471 C4470 1.287 . S
C4471 C4472 1.524 . S
C4471 H4474 0.999 . S
C4472 H4442 0.950 . S
C4472 C4471 1.524 . S
C4472 C4473 1.415 . S
C4473 H4443 0.950 . S
C4473 C4468 1.363 . S
C4473 C4472 1.415 . S
H4474 C4471 0.999 . S
H4475 C4456 0.913 . S
H4476 C4494 0.951 . S
H4477 C4496 0.951 . S
H4478 C4498 0.950 . S
H4479 C4499 0.950 . S
H4480 C4501 0.950 . S
H4481 C4504 0.950 . S
H4482 C4505 0.950 . S
H4483 C4507 0.950 . S
H4484 C4508 0.950 . S
H4485 C4509 0.951 . S
H4486 C4511 0.951 . S
H4487 C4513 0.950 . S
H4488 C4514 0.950 . S
H4489 C4516 0.950 . S
H4490 C4519 0.950 . S
H4491 C4520 0.950 . S
H4492 C4522 0.950 . S
H4493 C4523 0.950 . S
C4494 H4476 0.951 . S
C4494 C4495 1.366 . S
C4494 C4496 1.388 . S
C4495 C4494 1.366 . S
C4495 C4499 1.385 . S
C4496 H4477 0.951 . S
C4496 C4494 1.388 . S
C4496 C4497 1.366 . S
C4497 C4496 1.366 . S
C4497 C4498 1.414 . S
C4497 C4500 1.499 . S
C4498 H4478 0.950 . S
C4498 C4497 1.414 . S
C4498 C4499 1.374 . S
C4499 H4479 0.950 . S
C4499 C4495 1.385 . S
C4499 C4498 1.374 . S
C4500 C4497 1.499 . S
C4500 C4501 1.373 . S
C4500 C4502 1.389 . S
C4501 H4480 0.950 . S
C4501 C4500 1.373 . S
C4501 C4517 1.377 . S
C4502 C4500 1.389 . S
C4502 C4503 1.524 . S
C4502 C4516 1.377 . S
C4503 C4502 1.524 . S
C4503 C4504 1.397 . S
C4503 C4508 1.363 . S
C4504 H4481 0.950 . S
C4504 C4503 1.397 . S
C4504 C4505 1.334 . S
C4505 H4482 0.950 . S
C4505 C4504 1.334 . S
C4505 C4506 1.287 . S
C4506 C4505 1.287 . S
C4506 C4507 1.524 . S
C4506 H4525 0.913 . S
C4507 H4483 0.950 . S
C4507 C4506 1.524 . S
C4507 C4508 1.415 . S
C4508 H4484 0.950 . S
C4508 C4503 1.363 . S
C4508 C4507 1.415 . S
C4509 H4485 0.951 . S
C4509 C4510 1.366 . S
C4509 C4511 1.388 . S
C4510 C4509 1.366 . S
C4510 C4514 1.385 . S
C4511 H4486 0.951 . S
C4511 C4509 1.388 . S
C4511 C4512 1.366 . S
C4512 C4511 1.366 . S
C4512 C4513 1.414 . S
C4512 C4515 1.499 . S
C4513 H4487 0.950 . S
C4513 C4512 1.414 . S
C4513 C4514 1.374 . S
C4514 H4488 0.950 . S
C4514 C4510 1.385 . S
C4514 C4513 1.374 . S
C4515 C4512 1.499 . S
C4515 C4516 1.373 . S
C4515 C4517 1.389 . S
C4516 H4489 0.950 . S
C4516 C4502 1.377 . S
C4516 C4515 1.373 . S
C4517 C4501 1.377 . S
C4517 C4515 1.389 . S
C4517 C4518 1.524 . S
C4518 C4517 1.524 . S
C4518 C4519 1.397 . S
C4518 C4523 1.363 . S
C4519 H4490 0.950 . S
C4519 C4518 1.397 . S
C4519 C4520 1.334 . S
C4520 H4491 0.950 . S
C4520 C4519 1.334 . S
C4520 C4521 1.287 . S
C4521 C4520 1.287 . S
C4521 C4522 1.524 . S
C4521 H4524 0.999 . S
C4522 H4492 0.950 . S
C4522 C4521 1.524 . S
C4522 C4523 1.415 . S
C4523 H4493 0.950 . S
C4523 C4518 1.363 . S
C4523 C4522 1.415 . S
H4524 C4521 0.999 . S
H4525 C4506 0.913 . S
H4526 C4544 0.951 . S
H4527 C4546 0.951 . S
H4528 C4548 0.950 . S
H4529 C4549 0.950 . S
H4530 C4551 0.950 . S
H4531 C4554 0.950 . S
H4532 C4555 0.950 . S
H4533 C4557 0.950 . S
H4534 C4558 0.950 . S
H4535 C4559 0.951 . S
H4536 C4561 0.951 . S
H4537 C4563 0.950 . S
H4538 C4564 0.950 . S
H4539 C4566 0.950 . S
H4540 C4569 0.950 . S
H4541 C4570 0.950 . S
H4542 C4572 0.950 . S
H4543 C4573 0.950 . S
C4544 H4526 0.951 . S
C4544 C4545 1.366 . S
C4544 C4546 1.388 . S
C4545 C4544 1.366 . S
C4545 C4549 1.385 . S
C4546 H4527 0.951 . S
C4546 C4544 1.388 . S
C4546 C4547 1.366 . S
C4547 C4546 1.366 . S
C4547 C4548 1.414 . S
C4547 C4550 1.499 . S
C4548 H4528 0.950 . S
C4548 C4547 1.414 . S
C4548 C4549 1.374 . S
C4549 H4529 0.950 . S
C4549 C4545 1.385 . S
C4549 C4548 1.374 . S
C4550 C4547 1.499 . S
C4550 C4551 1.373 . S
C4550 C4552 1.389 . S
C4551 H4530 0.950 . S
C4551 C4550 1.373 . S
C4551 C4567 1.377 . S
C4552 C4550 1.389 . S
C4552 C4553 1.524 . S
C4552 C4566 1.377 . S
C4553 C4552 1.524 . S
C4553 C4554 1.397 . S
C4553 C4558 1.363 . S
C4554 H4531 0.950 . S
C4554 C4553 1.397 . S
C4554 C4555 1.334 . S
C4555 H4532 0.950 . S
C4555 C4554 1.334 . S
C4555 C4556 1.287 . S
C4556 C4555 1.287 . S
C4556 C4557 1.524 . S
C4556 H4575 0.913 . S
C4557 H4533 0.950 . S
C4557 C4556 1.524 . S
C4557 C4558 1.415 . S
C4558 H4534 0.950 . S
C4558 C4553 1.363 . S
C4558 C4557 1.415 . S
C4559 H4535 0.951 . S
C4559 C4560 1.366 . S
C4559 C4561 1.388 . S
C4560 C4559 1.366 . S
C4560 C4564 1.385 . S
C4561 H4536 0.951 . S
C4561 C4559 1.388 . S
C4561 C4562 1.366 . S
C4562 C4561 1.366 . S
C4562 C4563 1.414 . S
C4562 C4565 1.499 . S
C4563 H4537 0.950 . S
C4563 C4562 1.414 . S
C4563 C4564 1.374 . S
C4564 H4538 0.950 . S
C4564 C4560 1.385 . S
C4564 C4563 1.374 . S
C4565 C4562 1.499 . S
C4565 C4566 1.373 . S
C4565 C4567 1.389 . S
C4566 H4539 0.950 . S
C4566 C4552 1.377 . S
C4566 C4565 1.373 . S
C4567 C4551 1.377 . S
C4567 C4565 1.389 . S
C4567 C4568 1.524 . S
C4568 C4567 1.524 . S
C4568 C4569 1.397 . S
C4568 C4573 1.363 . S
C4569 H4540 0.950 . S
C4569 C4568 1.397 . S
C4569 C4570 1.334 . S
C4570 H4541 0.950 . S
C4570 C4569 1.334 . S
C4570 C4571 1.287 . S
C4571 C4570 1.287 . S
C4571 C4572 1.524 . S
C4571 H4574 0.999 . S
C4572 H4542 0.950 . S
C4572 C4571 1.524 . S
C4572 C4573 1.415 . S
C4573 H4543 0.950 . S
C4573 C4568 1.363 . S
C4573 C4572 1.415 . S
H4574 C4571 0.999 . S
H4575 C4556 0.913 . S
H4576 C4594 0.951 . S
H4577 C4596 0.951 . S
H4578 C4598 0.950 . S
H4579 C4599 0.950 . S
H4580 C4601 0.950 . S
H4581 C4604 0.950 . S
H4582 C4605 0.950 . S
H4583 C4607 0.950 . S
H4584 C4608 0.950 . S
H4585 C4609 0.951 . S
H4586 C4611 0.951 . S
H4587 C4613 0.950 . S
H4588 C4614 0.950 . S
H4589 C4616 0.950 . S
H4590 C4619 0.950 . S
H4591 C4620 0.950 . S
H4592 C4622 0.950 . S
H4593 C4623 0.950 . S
C4594 H4576 0.951 . S
C4594 C4595 1.366 . S
C4594 C4596 1.388 . S
C4595 C4594 1.366 . S
C4595 C4599 1.385 . S
C4596 H4577 0.951 . S
C4596 C4594 1.388 . S
C4596 C4597 1.366 . S
C4597 C4596 1.366 . S
C4597 C4598 1.414 . S
C4597 C4600 1.499 . S
C4598 H4578 0.950 . S
C4598 C4597 1.414 . S
C4598 C4599 1.374 . S
C4599 H4579 0.950 . S
C4599 C4595 1.385 . S
C4599 C4598 1.374 . S
C4600 C4597 1.499 . S
C4600 C4601 1.373 . S
C4600 C4602 1.389 . S
C4601 H4580 0.950 . S
C4601 C4600 1.373 . S
C4601 C4617 1.377 . S
C4602 C4600 1.389 . S
C4602 C4603 1.524 . S
C4602 C4616 1.377 . S
C4603 C4602 1.524 . S
C4603 C4604 1.397 . S
C4603 C4608 1.363 . S
C4604 H4581 0.950 . S
C4604 C4603 1.397 . S
C4604 C4605 1.334 . S
C4605 H4582 0.950 . S
C4605 C4604 1.334 . S
C4605 C4606 1.287 . S
C4606 C4605 1.287 . S
C4606 C4607 1.524 . S
C4606 H4625 0.913 . S
C4607 H4583 0.950 . S
C4607 C4606 1.524 . S
C4607 C4608 1.415 . S
C4608 H4584 0.950 . S
C4608 C4603 1.363 . S
C4608 C4607 1.415 . S
C4609 H4585 0.951 . S
C4609 C4610 1.366 . S
C4609 C4611 1.388 . S
C4610 C4609 1.366 . S
C4610 C4614 1.385 . S
C4611 H4586 0.951 . S
C4611 C4609 1.388 . S
C4611 C4612 1.366 . S
C4612 C4611 1.366 . S
C4612 C4613 1.414 . S
C4612 C4615 1.499 . S
C4613 H4587 0.950 . S
C4613 C4612 1.414 . S
C4613 C4614 1.374 . S
C4614 H4588 0.950 . S
C4614 C4610 1.385 . S
C4614 C4613 1.374 . S
C4615 C4612 1.499 . S
C4615 C4616 1.373 . S
C4615 C4617 1.389 . S
C4616 H4589 0.950 . S
C4616 C4602 1.377 . S
C4616 C4615 1.373 . S
C4617 C4601 1.377 . S
C4617 C4615 1.389 . S
C4617 C4618 1.524 . S
C4618 C4617 1.524 . S
C4618 C4619 1.397 . S
C4618 C4623 1.363 . S
C4619 H4590 0.950 . S
C4619 C4618 1.397 . S
C4619 C4620 1.334 . S
C4620 H4591 0.950 . S
C4620 C4619 1.334 . S
C4620 C4621 1.287 . S
C4621 C4620 1.287 . S
C4621 C4622 1.524 . S
C4621 H4624 0.999 . S
C4622 H4592 0.950 . S
C4622 C4621 1.524 . S
C4622 C4623 1.415 . S
C4623 H4593 0.950 . S
C4623 C4618 1.363 . S
C4623 C4622 1.415 . S
H4624 C4621 0.999 . S
H4625 C4606 0.913 . S
H4626 C4644 0.951 . S
H4627 C4646 0.951 . S
H4628 C4648 0.950 . S
H4629 C4649 0.950 . S
H4630 C4651 0.950 . S
H4631 C4654 0.950 . S
H4632 C4655 0.950 . S
H4633 C4657 0.950 . S
H4634 C4658 0.950 . S
H4635 C4659 0.951 . S
H4636 C4661 0.951 . S
H4637 C4663 0.950 . S
H4638 C4664 0.950 . S
H4639 C4666 0.950 . S
H4640 C4669 0.950 . S
H4641 C4670 0.950 . S
H4642 C4672 0.950 . S
H4643 C4673 0.950 . S
C4644 H4626 0.951 . S
C4644 C4645 1.366 . S
C4644 C4646 1.388 . S
C4645 C4644 1.366 . S
C4645 C4649 1.385 . S
C4646 H4627 0.951 . S
C4646 C4644 1.388 . S
C4646 C4647 1.366 . S
C4647 C4646 1.366 . S
C4647 C4648 1.414 . S
C4647 C4650 1.499 . S
C4648 H4628 0.950 . S
C4648 C4647 1.414 . S
C4648 C4649 1.374 . S
C4649 H4629 0.950 . S
C4649 C4645 1.385 . S
C4649 C4648 1.374 . S
C4650 C4647 1.499 . S
C4650 C4651 1.373 . S
C4650 C4652 1.389 . S
C4651 H4630 0.950 . S
C4651 C4650 1.373 . S
C4651 C4667 1.377 . S
C4652 C4650 1.389 . S
C4652 C4653 1.524 . S
C4652 C4666 1.377 . S
C4653 C4652 1.524 . S
C4653 C4654 1.397 . S
C4653 C4658 1.363 . S
C4654 H4631 0.950 . S
C4654 C4653 1.397 . S
C4654 C4655 1.334 . S
C4655 H4632 0.950 . S
C4655 C4654 1.334 . S
C4655 C4656 1.287 . S
C4656 C4655 1.287 . S
C4656 C4657 1.524 . S
C4656 H4675 0.913 . S
C4657 H4633 0.950 . S
C4657 C4656 1.524 . S
C4657 C4658 1.415 . S
C4658 H4634 0.950 . S
C4658 C4653 1.363 . S
C4658 C4657 1.415 . S
C4659 H4635 0.951 . S
C4659 C4660 1.366 . S
C4659 C4661 1.388 . S
C4660 C4659 1.366 . S
C4660 C4664 1.385 . S
C4661 H4636 0.951 . S
C4661 C4659 1.388 . S
C4661 C4662 1.366 . S
C4662 C4661 1.366 . S
C4662 C4663 1.414 . S
C4662 C4665 1.499 . S
C4663 H4637 0.950 . S
C4663 C4662 1.414 . S
C4663 C4664 1.374 . S
C4664 H4638 0.950 . S
C4664 C4660 1.385 . S
C4664 C4663 1.374 . S
C4665 C4662 1.499 . S
C4665 C4666 1.373 . S
C4665 C4667 1.389 . S
C4666 H4639 0.950 . S
C4666 C4652 1.377 . S
C4666 C4665 1.373 . S
C4667 C4651 1.377 . S
C4667 C4665 1.389 . S
C4667 C4668 1.524 . S
C4668 C4667 1.524 . S
C4668 C4669 1.397 . S
C4668 C4673 1.363 . S
C4669 H4640 0.950 . S
C4669 C4668 1.397 . S
C4669 C4670 1.334 . S
C4670 H4641 0.950 . S
C4670 C4669 1.334 . S
C4670 C4671 1.287 . S
C4671 C4670 1.287 . S
C4671 C4672 1.524 . S
C4671 H4674 0.999 . S
C4672 H4642 0.950 . S
C4672 C4671 1.524 . S
C4672 C4673 1.415 . S
C4673 H4643 0.950 . S
C4673 C4668 1.363 . S
C4673 C4672 1.415 . S
H4674 C4671 0.999 . S
H4675 C4656 0.913 . S
H4676 C4694 0.951 . S
H4677 C4696 0.951 . S
H4678 C4698 0.950 . S
H4679 C4699 0.950 . S
H4680 C4701 0.950 . S
H4681 C4704 0.950 . S
H4682 C4705 0.950 . S
H4683 C4707 0.950 . S
H4684 C4708 0.950 1_655 S
H4685 C4709 0.951 . S
H4686 C4711 0.951 . S
H4687 C4713 0.950 . S
H4688 C4714 0.950 . S
H4689 C4716 0.950 . S
H4690 C4719 0.950 . S
H4691 C4720 0.950 1_556 S
H4692 C4722 0.950 . S
H4693 C4723 0.950 . S
C4694 H4676 0.951 . S
C4694 C4695 1.366 . S
C4694 C4696 1.388 . S
C4695 C4694 1.366 . S
C4695 C4699 1.385 . S
C4696 H4677 0.951 . S
C4696 C4694 1.388 . S
C4696 C4697 1.366 . S
C4697 C4696 1.366 . S
C4697 C4698 1.414 . S
C4697 C4700 1.499 . S
C4698 H4678 0.950 . S
C4698 C4697 1.414 . S
C4698 C4699 1.374 . S
C4699 H4679 0.950 . S
C4699 C4695 1.385 . S
C4699 C4698 1.374 . S
C4700 C4697 1.499 . S
C4700 C4701 1.373 . S
C4700 C4702 1.389 . S
C4701 H4680 0.950 . S
C4701 C4700 1.373 . S
C4701 C4717 1.377 . S
C4702 C4700 1.389 . S
C4702 C4703 1.524 . S
C4702 C4716 1.377 . S
C4703 C4702 1.524 . S
C4703 C4704 1.397 . S
C4703 C4708 1.363 . S
C4704 H4681 0.950 . S
C4704 C4703 1.397 . S
C4704 C4705 1.334 . S
C4705 H4682 0.950 . S
C4705 C4704 1.334 . S
C4705 C4706 1.287 1_455 S
C4706 C4705 1.287 1_655 S
C4706 C4707 1.524 . S
C4706 H4725 0.913 . S
C4707 H4683 0.950 . S
C4707 C4706 1.524 . S
C4707 C4708 1.415 1_655 S
C4708 H4684 0.950 1_455 S
C4708 C4703 1.363 . S
C4708 C4707 1.415 1_455 S
C4709 H4685 0.951 . S
C4709 C4710 1.366 . S
C4709 C4711 1.388 . S
C4710 C4709 1.366 . S
C4710 C4714 1.385 . S
C4711 H4686 0.951 . S
C4711 C4709 1.388 . S
C4711 C4712 1.366 . S
C4712 C4711 1.366 . S
C4712 C4713 1.414 . S
C4712 C4715 1.499 . S
C4713 H4687 0.950 . S
C4713 C4712 1.414 . S
C4713 C4714 1.374 . S
C4714 H4688 0.950 . S
C4714 C4710 1.385 . S
C4714 C4713 1.374 . S
C4715 C4712 1.499 . S
C4715 C4716 1.373 . S
C4715 C4717 1.389 . S
C4716 H4689 0.950 . S
C4716 C4702 1.377 . S
C4716 C4715 1.373 . S
C4717 C4701 1.377 . S
C4717 C4715 1.389 . S
C4717 C4718 1.524 . S
C4718 C4717 1.524 . S
C4718 C4719 1.397 . S
C4718 C4723 1.363 . S
C4719 H4690 0.950 . S
C4719 C4718 1.397 . S
C4719 C4720 1.334 . S
C4720 H4691 0.950 1_554 S
C4720 C4719 1.334 . S
C4720 C4721 1.287 . S
C4721 C4720 1.287 . S
C4721 C4722 1.524 . S
C4721 H4724 0.999 . S
C4722 H4692 0.950 . S
C4722 C4721 1.524 . S
C4722 C4723 1.415 . S
C4723 H4693 0.950 . S
C4723 C4718 1.363 . S
C4723 C4722 1.415 . S
H4724 C4721 0.999 . S
H4725 C4706 0.913 . S
H4726 C4744 0.951 . S
H4727 C4746 0.951 . S
H4728 C4748 0.950 . S
H4729 C4749 0.950 . S
H4730 C4751 0.950 . S
H4731 C4754 0.950 . S
H4732 C4755 0.950 . S
H4733 C4757 0.950 . S
H4734 C4758 0.950 . S
H4735 C4759 0.951 . S
H4736 C4761 0.951 . S
H4737 C4763 0.950 . S
H4738 C4764 0.950 . S
H4739 C4766 0.950 . S
H4740 C4769 0.950 . S
H4741 C4770 0.950 . S
H4742 C4772 0.950 . S
H4743 C4773 0.950 . S
C4744 H4726 0.951 . S
C4744 C4745 1.366 . S
C4744 C4746 1.388 . S
C4745 C4744 1.366 . S
C4745 C4749 1.385 . S
C4746 H4727 0.951 . S
C4746 C4744 1.388 . S
C4746 C4747 1.366 . S
C4747 C4746 1.366 . S
C4747 C4748 1.414 . S
C4747 C4750 1.499 . S
C4748 H4728 0.950 . S
C4748 C4747 1.414 . S
C4748 C4749 1.374 . S
C4749 H4729 0.950 . S
C4749 C4745 1.385 . S
C4749 C4748 1.374 . S
C4750 C4747 1.499 . S
C4750 C4751 1.373 . S
C4750 C4752 1.389 . S
C4751 H4730 0.950 . S
C4751 C4750 1.373 . S
C4751 C4767 1.377 . S
C4752 C4750 1.389 . S
C4752 C4753 1.524 . S
C4752 C4766 1.377 . S
C4753 C4752 1.524 . S
C4753 C4754 1.397 . S
C4753 C4758 1.363 . S
C4754 H4731 0.950 . S
C4754 C4753 1.397 . S
C4754 C4755 1.334 . S
C4755 H4732 0.950 . S
C4755 C4754 1.334 . S
C4755 C4756 1.287 . S
C4756 C4755 1.287 . S
C4756 C4757 1.524 . S
C4756 H4775 0.913 . S
C4757 H4733 0.950 . S
C4757 C4756 1.524 . S
C4757 C4758 1.415 . S
C4758 H4734 0.950 . S
C4758 C4753 1.363 . S
C4758 C4757 1.415 . S
C4759 H4735 0.951 . S
C4759 C4760 1.366 . S
C4759 C4761 1.388 . S
C4760 C4759 1.366 . S
C4760 C4764 1.385 . S
C4761 H4736 0.951 . S
C4761 C4759 1.388 . S
C4761 C4762 1.366 . S
C4762 C4761 1.366 . S
C4762 C4763 1.414 . S
C4762 C4765 1.499 . S
C4763 H4737 0.950 . S
C4763 C4762 1.414 . S
C4763 C4764 1.374 . S
C4764 H4738 0.950 . S
C4764 C4760 1.385 . S
C4764 C4763 1.374 . S
C4765 C4762 1.499 . S
C4765 C4766 1.373 . S
C4765 C4767 1.389 . S
C4766 H4739 0.950 . S
C4766 C4752 1.377 . S
C4766 C4765 1.373 . S
C4767 C4751 1.377 . S
C4767 C4765 1.389 . S
C4767 C4768 1.524 . S
C4768 C4767 1.524 . S
C4768 C4769 1.397 . S
C4768 C4773 1.363 . S
C4769 H4740 0.950 . S
C4769 C4768 1.397 . S
C4769 C4770 1.334 . S
C4770 H4741 0.950 . S
C4770 C4769 1.334 . S
C4770 C4771 1.287 . S
C4771 C4770 1.287 . S
C4771 C4772 1.524 . S
C4771 H4774 0.999 . S
C4772 H4742 0.950 . S
C4772 C4771 1.524 . S
C4772 C4773 1.415 . S
C4773 H4743 0.950 . S
C4773 C4768 1.363 . S
C4773 C4772 1.415 . S
H4774 C4771 0.999 . S
H4775 C4756 0.913 . S
H4776 C4794 0.951 . S
H4777 C4796 0.951 . S
H4778 C4798 0.950 . S
H4779 C4799 0.950 . S
H4780 C4801 0.950 . S
H4781 C4804 0.950 . S
H4782 C4805 0.950 . S
H4783 C4807 0.950 . S
H4784 C4808 0.950 . S
H4785 C4809 0.951 . S
H4786 C4811 0.951 . S
H4787 C4813 0.950 . S
H4788 C4814 0.950 . S
H4789 C4816 0.950 . S
H4790 C4819 0.950 . S
H4791 C4820 0.950 . S
H4792 C4822 0.950 . S
H4793 C4823 0.950 . S
C4794 H4776 0.951 . S
C4794 C4795 1.366 . S
C4794 C4796 1.388 . S
C4795 C4794 1.366 . S
C4795 C4799 1.385 . S
C4796 H4777 0.951 . S
C4796 C4794 1.388 . S
C4796 C4797 1.366 . S
C4797 C4796 1.366 . S
C4797 C4798 1.414 . S
C4797 C4800 1.499 . S
C4798 H4778 0.950 . S
C4798 C4797 1.414 . S
C4798 C4799 1.374 . S
C4799 H4779 0.950 . S
C4799 C4795 1.385 . S
C4799 C4798 1.374 . S
C4800 C4797 1.499 . S
C4800 C4801 1.373 . S
C4800 C4802 1.389 . S
C4801 H4780 0.950 . S
C4801 C4800 1.373 . S
C4801 C4817 1.377 . S
C4802 C4800 1.389 . S
C4802 C4803 1.524 . S
C4802 C4816 1.377 . S
C4803 C4802 1.524 . S
C4803 C4804 1.397 . S
C4803 C4808 1.363 . S
C4804 H4781 0.950 . S
C4804 C4803 1.397 . S
C4804 C4805 1.334 . S
C4805 H4782 0.950 . S
C4805 C4804 1.334 . S
C4805 C4806 1.287 . S
C4806 C4805 1.287 . S
C4806 C4807 1.524 . S
C4806 H4825 0.913 . S
C4807 H4783 0.950 . S
C4807 C4806 1.524 . S
C4807 C4808 1.415 . S
C4808 H4784 0.950 . S
C4808 C4803 1.363 . S
C4808 C4807 1.415 . S
C4809 H4785 0.951 . S
C4809 C4810 1.366 . S
C4809 C4811 1.388 . S
C4810 C4809 1.366 . S
C4810 C4814 1.385 . S
C4811 H4786 0.951 . S
C4811 C4809 1.388 . S
C4811 C4812 1.366 . S
C4812 C4811 1.366 . S
C4812 C4813 1.414 . S
C4812 C4815 1.499 . S
C4813 H4787 0.950 . S
C4813 C4812 1.414 . S
C4813 C4814 1.374 . S
C4814 H4788 0.950 . S
C4814 C4810 1.385 . S
C4814 C4813 1.374 . S
C4815 C4812 1.499 . S
C4815 C4816 1.373 . S
C4815 C4817 1.389 . S
C4816 H4789 0.950 . S
C4816 C4802 1.377 . S
C4816 C4815 1.373 . S
C4817 C4801 1.377 . S
C4817 C4815 1.389 . S
C4817 C4818 1.524 . S
C4818 C4817 1.524 . S
C4818 C4819 1.397 . S
C4818 C4823 1.363 . S
C4819 H4790 0.950 . S
C4819 C4818 1.397 . S
C4819 C4820 1.334 . S
C4820 H4791 0.950 . S
C4820 C4819 1.334 . S
C4820 C4821 1.287 . S
C4821 C4820 1.287 . S
C4821 C4822 1.524 . S
C4821 H4824 0.999 . S
C4822 H4792 0.950 . S
C4822 C4821 1.524 . S
C4822 C4823 1.415 . S
C4823 H4793 0.950 . S
C4823 C4818 1.363 . S
C4823 C4822 1.415 . S
H4824 C4821 0.999 . S
H4825 C4806 0.913 . S
H4826 C4844 0.951 . S
H4827 C4846 0.951 . S
H4828 C4848 0.950 . S
H4829 C4849 0.950 . S
H4830 C4851 0.950 . S
H4831 C4854 0.950 . S
H4832 C4855 0.950 . S
H4833 C4857 0.950 . S
H4834 C4858 0.950 . S
H4835 C4859 0.951 . S
H4836 C4861 0.951 . S
H4837 C4863 0.950 . S
H4838 C4864 0.950 . S
H4839 C4866 0.950 . S
H4840 C4869 0.950 . S
H4841 C4870 0.950 . S
H4842 C4872 0.950 . S
H4843 C4873 0.950 . S
C4844 H4826 0.951 . S
C4844 C4845 1.366 . S
C4844 C4846 1.388 . S
C4845 C4844 1.366 . S
C4845 C4849 1.385 . S
C4846 H4827 0.951 . S
C4846 C4844 1.388 . S
C4846 C4847 1.366 . S
C4847 C4846 1.366 . S
C4847 C4848 1.414 . S
C4847 C4850 1.499 . S
C4848 H4828 0.950 . S
C4848 C4847 1.414 . S
C4848 C4849 1.374 . S
C4849 H4829 0.950 . S
C4849 C4845 1.385 . S
C4849 C4848 1.374 . S
C4850 C4847 1.499 . S
C4850 C4851 1.373 . S
C4850 C4852 1.389 . S
C4851 H4830 0.950 . S
C4851 C4850 1.373 . S
C4851 C4867 1.377 . S
C4852 C4850 1.389 . S
C4852 C4853 1.524 . S
C4852 C4866 1.377 . S
C4853 C4852 1.524 . S
C4853 C4854 1.397 . S
C4853 C4858 1.363 . S
C4854 H4831 0.950 . S
C4854 C4853 1.397 . S
C4854 C4855 1.334 . S
C4855 H4832 0.950 . S
C4855 C4854 1.334 . S
C4855 C4856 1.287 . S
C4856 C4855 1.287 . S
C4856 C4857 1.524 . S
C4856 H4875 0.913 . S
C4857 H4833 0.950 . S
C4857 C4856 1.524 . S
C4857 C4858 1.415 . S
C4858 H4834 0.950 . S
C4858 C4853 1.363 . S
C4858 C4857 1.415 . S
C4859 H4835 0.951 . S
C4859 C4860 1.366 . S
C4859 C4861 1.388 . S
C4860 C4859 1.366 . S
C4860 C4864 1.385 . S
C4861 H4836 0.951 . S
C4861 C4859 1.388 . S
C4861 C4862 1.366 . S
C4862 C4861 1.366 . S
C4862 C4863 1.414 . S
C4862 C4865 1.499 . S
C4863 H4837 0.950 . S
C4863 C4862 1.414 . S
C4863 C4864 1.374 . S
C4864 H4838 0.950 . S
C4864 C4860 1.385 . S
C4864 C4863 1.374 . S
C4865 C4862 1.499 . S
C4865 C4866 1.373 . S
C4865 C4867 1.389 . S
C4866 H4839 0.950 . S
C4866 C4852 1.377 . S
C4866 C4865 1.373 . S
C4867 C4851 1.377 . S
C4867 C4865 1.389 . S
C4867 C4868 1.524 . S
C4868 C4867 1.524 . S
C4868 C4869 1.397 . S
C4868 C4873 1.363 . S
C4869 H4840 0.950 . S
C4869 C4868 1.397 . S
C4869 C4870 1.334 . S
C4870 H4841 0.950 . S
C4870 C4869 1.334 . S
C4870 C4871 1.287 . S
C4871 C4870 1.287 . S
C4871 C4872 1.524 . S
C4871 H4874 0.999 . S
C4872 H4842 0.950 . S
C4872 C4871 1.524 . S
C4872 C4873 1.415 . S
C4873 H4843 0.950 . S
C4873 C4868 1.363 . S
C4873 C4872 1.415 . S
H4874 C4871 0.999 . S
H4875 C4856 0.913 . S
H4876 C4894 0.951 . S
H4877 C4896 0.951 . S
H4878 C4898 0.950 . S
H4879 C4899 0.950 . S
H4880 C4901 0.950 . S
H4881 C4904 0.950 . S
H4882 C4905 0.950 . S
H4883 C4907 0.950 . S
H4884 C4908 0.950 . S
H4885 C4909 0.951 . S
H4886 C4911 0.951 . S
H4887 C4913 0.950 . S
H4888 C4914 0.950 . S
H4889 C4916 0.950 . S
H4890 C4919 0.950 . S
H4891 C4920 0.950 . S
H4892 C4922 0.950 . S
H4893 C4923 0.950 . S
C4894 H4876 0.951 . S
C4894 C4895 1.366 . S
C4894 C4896 1.388 . S
C4895 C4894 1.366 . S
C4895 C4899 1.385 . S
C4896 H4877 0.951 . S
C4896 C4894 1.388 . S
C4896 C4897 1.366 . S
C4897 C4896 1.366 . S
C4897 C4898 1.414 . S
C4897 C4900 1.499 . S
C4898 H4878 0.950 . S
C4898 C4897 1.414 . S
C4898 C4899 1.374 . S
C4899 H4879 0.950 . S
C4899 C4895 1.385 . S
C4899 C4898 1.374 . S
C4900 C4897 1.499 . S
C4900 C4901 1.373 . S
C4900 C4902 1.389 . S
C4901 H4880 0.950 . S
C4901 C4900 1.373 . S
C4901 C4917 1.377 . S
C4902 C4900 1.389 . S
C4902 C4903 1.524 . S
C4902 C4916 1.377 . S
C4903 C4902 1.524 . S
C4903 C4904 1.397 . S
C4903 C4908 1.363 . S
C4904 H4881 0.950 . S
C4904 C4903 1.397 . S
C4904 C4905 1.334 . S
C4905 H4882 0.950 . S
C4905 C4904 1.334 . S
C4905 C4906 1.287 . S
C4906 C4905 1.287 . S
C4906 C4907 1.524 . S
C4906 H4925 0.913 . S
C4907 H4883 0.950 . S
C4907 C4906 1.524 . S
C4907 C4908 1.415 . S
C4908 H4884 0.950 . S
C4908 C4903 1.363 . S
C4908 C4907 1.415 . S
C4909 H4885 0.951 . S
C4909 C4910 1.366 . S
C4909 C4911 1.388 . S
C4910 C4909 1.366 . S
C4910 C4914 1.385 . S
C4911 H4886 0.951 . S
C4911 C4909 1.388 . S
C4911 C4912 1.366 . S
C4912 C4911 1.366 . S
C4912 C4913 1.414 . S
C4912 C4915 1.499 . S
C4913 H4887 0.950 . S
C4913 C4912 1.414 . S
C4913 C4914 1.374 . S
C4914 H4888 0.950 . S
C4914 C4910 1.385 . S
C4914 C4913 1.374 . S
C4915 C4912 1.499 . S
C4915 C4916 1.373 . S
C4915 C4917 1.389 . S
C4916 H4889 0.950 . S
C4916 C4902 1.377 . S
C4916 C4915 1.373 . S
C4917 C4901 1.377 . S
C4917 C4915 1.389 . S
C4917 C4918 1.524 . S
C4918 C4917 1.524 . S
C4918 C4919 1.397 . S
C4918 C4923 1.363 . S
C4919 H4890 0.950 . S
C4919 C4918 1.397 . S
C4919 C4920 1.334 . S
C4920 H4891 0.950 . S
C4920 C4919 1.334 . S
C4920 C4921 1.287 . S
C4921 C4920 1.287 . S
C4921 C4922 1.524 . S
C4921 H4924 0.999 . S
C4922 H4892 0.950 . S
C4922 C4921 1.524 . S
C4922 C4923 1.415 . S
C4923 H4893 0.950 . S
C4923 C4918 1.363 . S
C4923 C4922 1.415 . S
H4924 C4921 0.999 . S
H4925 C4906 0.913 . S
H4926 C4944 0.951 . S
H4927 C4946 0.951 . S
H4928 C4948 0.950 . S
H4929 C4949 0.950 . S
H4930 C4951 0.950 . S
H4931 C4954 0.950 . S
H4932 C4955 0.950 . S
H4933 C4957 0.950 . S
H4934 C4958 0.950 . S
H4935 C4959 0.951 . S
H4936 C4961 0.951 . S
H4937 C4963 0.950 . S
H4938 C4964 0.950 . S
H4939 C4966 0.950 . S
H4940 C4969 0.950 . S
H4941 C4970 0.950 . S
H4942 C4972 0.950 . S
H4943 C4973 0.950 . S
C4944 H4926 0.951 . S
C4944 C4945 1.366 . S
C4944 C4946 1.388 . S
C4945 C4944 1.366 . S
C4945 C4949 1.385 . S
C4946 H4927 0.951 . S
C4946 C4944 1.388 . S
C4946 C4947 1.366 . S
C4947 C4946 1.366 . S
C4947 C4948 1.414 . S
C4947 C4950 1.499 . S
C4948 H4928 0.950 . S
C4948 C4947 1.414 . S
C4948 C4949 1.374 . S
C4949 H4929 0.950 . S
C4949 C4945 1.385 . S
C4949 C4948 1.374 . S
C4950 C4947 1.499 . S
C4950 C4951 1.373 . S
C4950 C4952 1.389 . S
C4951 H4930 0.950 . S
C4951 C4950 1.373 . S
C4951 C4967 1.377 . S
C4952 C4950 1.389 . S
C4952 C4953 1.524 . S
C4952 C4966 1.377 . S
C4953 C4952 1.524 . S
C4953 C4954 1.397 . S
C4953 C4958 1.363 . S
C4954 H4931 0.950 . S
C4954 C4953 1.397 . S
C4954 C4955 1.334 . S
C4955 H4932 0.950 . S
C4955 C4954 1.334 . S
C4955 C4956 1.287 . S
C4956 C4955 1.287 . S
C4956 C4957 1.524 . S
C4956 H4975 0.913 . S
C4957 H4933 0.950 . S
C4957 C4956 1.524 . S
C4957 C4958 1.415 . S
C4958 H4934 0.950 . S
C4958 C4953 1.363 . S
C4958 C4957 1.415 . S
C4959 H4935 0.951 . S
C4959 C4960 1.366 . S
C4959 C4961 1.388 . S
C4960 C4959 1.366 . S
C4960 C4964 1.385 . S
C4961 H4936 0.951 . S
C4961 C4959 1.388 . S
C4961 C4962 1.366 . S
C4962 C4961 1.366 . S
C4962 C4963 1.414 . S
C4962 C4965 1.499 . S
C4963 H4937 0.950 . S
C4963 C4962 1.414 . S
C4963 C4964 1.374 . S
C4964 H4938 0.950 . S
C4964 C4960 1.385 . S
C4964 C4963 1.374 . S
C4965 C4962 1.499 . S
C4965 C4966 1.373 . S
C4965 C4967 1.389 . S
C4966 H4939 0.950 . S
C4966 C4952 1.377 . S
C4966 C4965 1.373 . S
C4967 C4951 1.377 . S
C4967 C4965 1.389 . S
C4967 C4968 1.524 . S
C4968 C4967 1.524 . S
C4968 C4969 1.397 . S
C4968 C4973 1.363 . S
C4969 H4940 0.950 . S
C4969 C4968 1.397 . S
C4969 C4970 1.334 . S
C4970 H4941 0.950 . S
C4970 C4969 1.334 . S
C4970 C4971 1.287 . S
C4971 C4970 1.287 . S
C4971 C4972 1.524 . S
C4971 H4974 0.999 . S
C4972 H4942 0.950 . S
C4972 C4971 1.524 . S
C4972 C4973 1.415 . S
C4973 H4943 0.950 . S
C4973 C4968 1.363 . S
C4973 C4972 1.415 . S
H4974 C4971 0.999 . S
H4975 C4956 0.913 . S
H4976 C4994 0.951 . S
H4977 C4996 0.951 . S
H4978 C4998 0.950 . S
H4979 C4999 0.950 . S
H4980 C5001 0.950 . S
H4981 C5004 0.950 . S
H4982 C5005 0.950 . S
H4983 C5007 0.950 . S
H4984 C5008 0.950 . S
H4985 C5009 0.951 . S
H4986 C5011 0.951 . S
H4987 C5013 0.950 . S
H4988 C5014 0.950 . S
H4989 C5016 0.950 . S
H4990 C5019 0.950 . S
H4991 C5020 0.950 . S
H4992 C5022 0.950 . S
H4993 C5023 0.950 . S
C4994 H4976 0.951 . S
C4994 C4995 1.366 . S
C4994 C4996 1.388 . S
C4995 C4994 1.366 . S
C4995 C4999 1.385 . S
C4996 H4977 0.951 . S
C4996 C4994 1.388 . S
C4996 C4997 1.366 . S
C4997 C4996 1.366 . S
C4997 C4998 1.414 . S
C4997 C5000 1.499 . S
C4998 H4978 0.950 . S
C4998 C4997 1.414 . S
C4998 C4999 1.374 . S
C4999 H4979 0.950 . S
C4999 C4995 1.385 . S
C4999 C4998 1.374 . S
C5000 C4997 1.499 . S
C5000 C5001 1.373 . S
C5000 C5002 1.389 . S
C5001 H4980 0.950 . S
C5001 C5000 1.373 . S
C5001 C5017 1.377 . S
C5002 C5000 1.389 . S
C5002 C5003 1.524 . S
C5002 C5016 1.377 . S
C5003 C5002 1.524 . S
C5003 C5004 1.397 . S
C5003 C5008 1.363 . S
C5004 H4981 0.950 . S
C5004 C5003 1.397 . S
C5004 C5005 1.334 . S
C5005 H4982 0.950 . S
C5005 C5004 1.334 . S
C5005 C5006 1.287 . S
C5006 C5005 1.287 . S
C5006 C5007 1.524 . S
C5006 H5025 0.913 . S
C5007 H4983 0.950 . S
C5007 C5006 1.524 . S
C5007 C5008 1.415 . S
C5008 H4984 0.950 . S
C5008 C5003 1.363 . S
C5008 C5007 1.415 . S
C5009 H4985 0.951 . S
C5009 C5010 1.366 . S
C5009 C5011 1.388 . S
C5010 C5009 1.366 . S
C5010 C5014 1.385 . S
C5011 H4986 0.951 . S
C5011 C5009 1.388 . S
C5011 C5012 1.366 . S
C5012 C5011 1.366 . S
C5012 C5013 1.414 . S
C5012 C5015 1.499 . S
C5013 H4987 0.950 . S
C5013 C5012 1.414 . S
C5013 C5014 1.374 . S
C5014 H4988 0.950 . S
C5014 C5010 1.385 . S
C5014 C5013 1.374 . S
C5015 C5012 1.499 . S
C5015 C5016 1.373 . S
C5015 C5017 1.389 . S
C5016 H4989 0.950 . S
C5016 C5002 1.377 . S
C5016 C5015 1.373 . S
C5017 C5001 1.377 . S
C5017 C5015 1.389 . S
C5017 C5018 1.524 . S
C5018 C5017 1.524 . S
C5018 C5019 1.397 . S
C5018 C5023 1.363 . S
C5019 H4990 0.950 . S
C5019 C5018 1.397 . S
C5019 C5020 1.334 . S
C5020 H4991 0.950 . S
C5020 C5019 1.334 . S
C5020 C5021 1.287 . S
C5021 C5020 1.287 . S
C5021 C5022 1.524 . S
C5021 H5024 0.999 . S
C5022 H4992 0.950 . S
C5022 C5021 1.524 . S
C5022 C5023 1.415 . S
C5023 H4993 0.950 . S
C5023 C5018 1.363 . S
C5023 C5022 1.415 . S
H5024 C5021 0.999 . S
H5025 C5006 0.913 . S
H5026 C5044 0.951 . S
H5027 C5046 0.951 . S
H5028 C5048 0.950 . S
H5029 C5049 0.950 . S
H5030 C5051 0.950 . S
H5031 C5054 0.950 . S
H5032 C5055 0.950 . S
H5033 C5057 0.950 . S
H5034 C5058 0.950 . S
H5035 C5059 0.951 . S
H5036 C5061 0.951 . S
H5037 C5063 0.950 . S
H5038 C5064 0.950 . S
H5039 C5066 0.950 . S
H5040 C5069 0.950 . S
H5041 C5070 0.950 . S
H5042 C5072 0.950 . S
H5043 C5073 0.950 . S
C5044 H5026 0.951 . S
C5044 C5045 1.366 . S
C5044 C5046 1.388 . S
C5045 C5044 1.366 . S
C5045 C5049 1.385 . S
C5046 H5027 0.951 . S
C5046 C5044 1.388 . S
C5046 C5047 1.366 . S
C5047 C5046 1.366 . S
C5047 C5048 1.414 . S
C5047 C5050 1.499 . S
C5048 H5028 0.950 . S
C5048 C5047 1.414 . S
C5048 C5049 1.374 . S
C5049 H5029 0.950 . S
C5049 C5045 1.385 . S
C5049 C5048 1.374 . S
C5050 C5047 1.499 . S
C5050 C5051 1.373 . S
C5050 C5052 1.389 . S
C5051 H5030 0.950 . S
C5051 C5050 1.373 . S
C5051 C5067 1.377 . S
C5052 C5050 1.389 . S
C5052 C5053 1.524 . S
C5052 C5066 1.377 . S
C5053 C5052 1.524 . S
C5053 C5054 1.397 . S
C5053 C5058 1.363 . S
C5054 H5031 0.950 . S
C5054 C5053 1.397 . S
C5054 C5055 1.334 . S
C5055 H5032 0.950 . S
C5055 C5054 1.334 . S
C5055 C5056 1.287 . S
C5056 C5055 1.287 . S
C5056 C5057 1.524 . S
C5056 H5075 0.913 . S
C5057 H5033 0.950 . S
C5057 C5056 1.524 . S
C5057 C5058 1.415 . S
C5058 H5034 0.950 . S
C5058 C5053 1.363 . S
C5058 C5057 1.415 . S
C5059 H5035 0.951 . S
C5059 C5060 1.366 . S
C5059 C5061 1.388 . S
C5060 C5059 1.366 . S
C5060 C5064 1.385 . S
C5061 H5036 0.951 . S
C5061 C5059 1.388 . S
C5061 C5062 1.366 . S
C5062 C5061 1.366 . S
C5062 C5063 1.414 . S
C5062 C5065 1.499 . S
C5063 H5037 0.950 . S
C5063 C5062 1.414 . S
C5063 C5064 1.374 . S
C5064 H5038 0.950 . S
C5064 C5060 1.385 . S
C5064 C5063 1.374 . S
C5065 C5062 1.499 . S
C5065 C5066 1.373 . S
C5065 C5067 1.389 . S
C5066 H5039 0.950 . S
C5066 C5052 1.377 . S
C5066 C5065 1.373 . S
C5067 C5051 1.377 . S
C5067 C5065 1.389 . S
C5067 C5068 1.524 . S
C5068 C5067 1.524 . S
C5068 C5069 1.397 . S
C5068 C5073 1.363 . S
C5069 H5040 0.950 . S
C5069 C5068 1.397 . S
C5069 C5070 1.334 . S
C5070 H5041 0.950 . S
C5070 C5069 1.334 . S
C5070 C5071 1.287 . S
C5071 C5070 1.287 . S
C5071 C5072 1.524 . S
C5071 H5074 0.999 . S
C5072 H5042 0.950 . S
C5072 C5071 1.524 . S
C5072 C5073 1.415 . S
C5073 H5043 0.950 . S
C5073 C5068 1.363 . S
C5073 C5072 1.415 . S
H5074 C5071 0.999 . S
H5075 C5056 0.913 . S
H5076 C5094 0.951 . S
H5077 C5096 0.951 . S
H5078 C5098 0.950 . S
H5079 C5099 0.950 . S
H5080 C5101 0.950 . S
H5081 C5104 0.950 . S
H5082 C5105 0.950 . S
H5083 C5107 0.950 . S
H5084 C5108 0.950 . S
H5085 C5109 0.951 . S
H5086 C5111 0.951 . S
H5087 C5113 0.950 . S
H5088 C5114 0.950 . S
H5089 C5116 0.950 . S
H5090 C5119 0.950 . S
H5091 C5120 0.950 . S
H5092 C5122 0.950 . S
H5093 C5123 0.950 . S
C5094 H5076 0.951 . S
C5094 C5095 1.366 . S
C5094 C5096 1.388 . S
C5095 C5094 1.366 . S
C5095 C5099 1.385 . S
C5096 H5077 0.951 . S
C5096 C5094 1.388 . S
C5096 C5097 1.366 . S
C5097 C5096 1.366 . S
C5097 C5098 1.414 . S
C5097 C5100 1.499 . S
C5098 H5078 0.950 . S
C5098 C5097 1.414 . S
C5098 C5099 1.374 . S
C5099 H5079 0.950 . S
C5099 C5095 1.385 . S
C5099 C5098 1.374 . S
C5100 C5097 1.499 . S
C5100 C5101 1.373 . S
C5100 C5102 1.389 . S
C5101 H5080 0.950 . S
C5101 C5100 1.373 . S
C5101 C5117 1.377 . S
C5102 C5100 1.389 . S
C5102 C5103 1.524 . S
C5102 C5116 1.377 . S
C5103 C5102 1.524 . S
C5103 C5104 1.397 . S
C5103 C5108 1.363 . S
C5104 H5081 0.950 . S
C5104 C5103 1.397 . S
C5104 C5105 1.334 . S
C5105 H5082 0.950 . S
C5105 C5104 1.334 . S
C5105 C5106 1.287 . S
C5106 C5105 1.287 . S
C5106 C5107 1.524 . S
C5106 H5125 0.913 . S
C5107 H5083 0.950 . S
C5107 C5106 1.524 . S
C5107 C5108 1.415 . S
C5108 H5084 0.950 . S
C5108 C5103 1.363 . S
C5108 C5107 1.415 . S
C5109 H5085 0.951 . S
C5109 C5110 1.366 . S
C5109 C5111 1.388 . S
C5110 C5109 1.366 . S
C5110 C5114 1.385 . S
C5111 H5086 0.951 . S
C5111 C5109 1.388 . S
C5111 C5112 1.389 . S
C5112 C5111 1.389 . S
C5112 C5113 1.413 1_455 S
C5112 C5115 1.477 1_455 S
C5113 H5087 0.950 . S
C5113 C5112 1.413 1_655 S
C5113 C5114 1.374 1_655 S
C5114 H5088 0.950 . S
C5114 C5110 1.385 . S
C5114 C5113 1.374 1_455 S
C5115 C5112 1.477 1_655 S
C5115 C5116 1.373 . S
C5115 C5117 1.389 . S
C5116 H5089 0.950 . S
C5116 C5102 1.377 . S
C5116 C5115 1.373 . S
C5117 C5101 1.377 . S
C5117 C5115 1.389 . S
C5117 C5118 1.524 1_655 S
C5118 C5117 1.524 1_455 S
C5118 C5119 1.397 . S
C5118 C5123 1.363 . S
C5119 H5090 0.950 . S
C5119 C5118 1.397 . S
C5119 C5120 1.334 . S
C5120 H5091 0.950 . S
C5120 C5119 1.334 . S
C5120 C5121 1.287 . S
C5121 C5120 1.287 . S
C5121 C5122 1.524 . S
C5121 H5124 0.999 . S
C5122 H5092 0.950 . S
C5122 C5121 1.524 . S
C5122 C5123 1.415 . S
C5123 H5093 0.950 . S
C5123 C5118 1.363 . S
C5123 C5122 1.415 . S
H5124 C5121 0.999 . S
H5125 C5106 0.913 . S
H5126 C5144 0.951 . S
H5127 C5146 0.951 . S
H5128 C5148 0.950 . S
H5129 C5149 0.950 . S
H5130 C5151 0.950 . S
H5131 C5154 0.950 . S
H5132 C5155 0.950 . S
H5133 C5157 0.950 . S
H5134 C5158 0.950 . S
H5135 C5159 0.951 . S
H5136 C5161 0.951 . S
H5137 C5163 0.950 . S
H5138 C5164 0.950 . S
H5139 C5166 0.950 . S
H5140 C5169 0.950 . S
H5141 C5170 0.950 . S
H5142 C5172 0.950 . S
H5143 C5173 0.950 . S
C5144 H5126 0.951 . S
C5144 C5145 1.366 . S
C5144 C5146 1.388 . S
C5145 C5144 1.366 . S
C5145 C5149 1.385 . S
C5146 H5127 0.951 . S
C5146 C5144 1.388 . S
C5146 C5147 1.366 . S
C5147 C5146 1.366 . S
C5147 C5148 1.414 . S
C5147 C5150 1.499 . S
C5148 H5128 0.950 . S
C5148 C5147 1.414 . S
C5148 C5149 1.374 . S
C5149 H5129 0.950 . S
C5149 C5145 1.385 . S
C5149 C5148 1.374 . S
C5150 C5147 1.499 . S
C5150 C5151 1.373 . S
C5150 C5152 1.389 . S
C5151 H5130 0.950 . S
C5151 C5150 1.373 . S
C5151 C5167 1.377 . S
C5152 C5150 1.389 . S
C5152 C5153 1.524 . S
C5152 C5166 1.377 . S
C5153 C5152 1.524 . S
C5153 C5154 1.397 . S
C5153 C5158 1.363 . S
C5154 H5131 0.950 . S
C5154 C5153 1.397 . S
C5154 C5155 1.334 . S
C5155 H5132 0.950 . S
C5155 C5154 1.334 . S
C5155 C5156 1.287 . S
C5156 C5155 1.287 . S
C5156 C5157 1.524 . S
C5156 H5175 0.913 . S
C5157 H5133 0.950 . S
C5157 C5156 1.524 . S
C5157 C5158 1.415 . S
C5158 H5134 0.950 . S
C5158 C5153 1.363 . S
C5158 C5157 1.415 . S
C5159 H5135 0.951 . S
C5159 C5160 1.366 . S
C5159 C5161 1.388 . S
C5160 C5159 1.366 . S
C5160 C5164 1.385 . S
C5161 H5136 0.951 . S
C5161 C5159 1.388 . S
C5161 C5162 1.366 . S
C5162 C5161 1.366 . S
C5162 C5163 1.414 . S
C5162 C5165 1.499 . S
C5163 H5137 0.950 . S
C5163 C5162 1.414 . S
C5163 C5164 1.374 . S
C5164 H5138 0.950 . S
C5164 C5160 1.385 . S
C5164 C5163 1.374 . S
C5165 C5162 1.499 . S
C5165 C5166 1.373 . S
C5165 C5167 1.389 . S
C5166 H5139 0.950 . S
C5166 C5152 1.377 . S
C5166 C5165 1.373 . S
C5167 C5151 1.377 . S
C5167 C5165 1.389 . S
C5167 C5168 1.524 . S
C5168 C5167 1.524 . S
C5168 C5169 1.397 . S
C5168 C5173 1.363 . S
C5169 H5140 0.950 . S
C5169 C5168 1.397 . S
C5169 C5170 1.334 . S
C5170 H5141 0.950 . S
C5170 C5169 1.334 . S
C5170 C5171 1.287 . S
C5171 C5170 1.287 . S
C5171 C5172 1.524 . S
C5171 H5174 0.999 . S
C5172 H5142 0.950 . S
C5172 C5171 1.524 . S
C5172 C5173 1.415 . S
C5173 H5143 0.950 . S
C5173 C5168 1.363 . S
C5173 C5172 1.415 . S
H5174 C5171 0.999 . S
H5175 C5156 0.913 . S
H5176 C5194 0.951 . S
H5177 C5196 0.951 . S
H5178 C5198 0.950 . S
H5179 C5199 0.950 . S
H5180 C5201 0.950 . S
H5181 C5204 0.950 . S
H5182 C5205 0.950 . S
H5183 C5207 0.950 . S
H5184 C5208 0.950 . S
H5185 C5209 0.951 . S
H5186 C5211 0.951 . S
H5187 C5213 0.950 . S
H5188 C5214 0.950 . S
H5189 C5216 0.950 . S
H5190 C5219 0.950 . S
H5191 C5220 0.950 . S
H5192 C5222 0.950 . S
H5193 C5223 0.950 . S
C5194 H5176 0.951 . S
C5194 C5195 1.366 . S
C5194 C5196 1.388 . S
C5195 C5194 1.366 . S
C5195 C5199 1.385 . S
C5196 H5177 0.951 . S
C5196 C5194 1.388 . S
C5196 C5197 1.366 . S
C5197 C5196 1.366 . S
C5197 C5198 1.414 . S
C5197 C5200 1.499 . S
C5198 H5178 0.950 . S
C5198 C5197 1.414 . S
C5198 C5199 1.374 . S
C5199 H5179 0.950 . S
C5199 C5195 1.385 . S
C5199 C5198 1.374 . S
C5200 C5197 1.499 . S
C5200 C5201 1.373 . S
C5200 C5202 1.389 . S
C5201 H5180 0.950 . S
C5201 C5200 1.373 . S
C5201 C5217 1.377 . S
C5202 C5200 1.389 . S
C5202 C5203 1.524 . S
C5202 C5216 1.377 . S
C5203 C5202 1.524 . S
C5203 C5204 1.397 . S
C5203 C5208 1.363 . S
C5204 H5181 0.950 . S
C5204 C5203 1.397 . S
C5204 C5205 1.334 . S
C5205 H5182 0.950 . S
C5205 C5204 1.334 . S
C5205 C5206 1.287 . S
C5206 C5205 1.287 . S
C5206 C5207 1.524 . S
C5206 H5225 0.913 . S
C5207 H5183 0.950 . S
C5207 C5206 1.524 . S
C5207 C5208 1.415 . S
C5208 H5184 0.950 . S
C5208 C5203 1.363 . S
C5208 C5207 1.415 . S
C5209 H5185 0.951 . S
C5209 C5210 1.366 . S
C5209 C5211 1.388 . S
C5210 C5209 1.366 . S
C5210 C5214 1.385 . S
C5211 H5186 0.951 . S
C5211 C5209 1.388 . S
C5211 C5212 1.366 . S
C5212 C5211 1.366 . S
C5212 C5213 1.414 . S
C5212 C5215 1.499 . S
C5213 H5187 0.950 . S
C5213 C5212 1.414 . S
C5213 C5214 1.374 . S
C5214 H5188 0.950 . S
C5214 C5210 1.385 . S
C5214 C5213 1.374 . S
C5215 C5212 1.499 . S
C5215 C5216 1.373 . S
C5215 C5217 1.389 . S
C5216 H5189 0.950 . S
C5216 C5202 1.377 . S
C5216 C5215 1.373 . S
C5217 C5201 1.377 . S
C5217 C5215 1.389 . S
C5217 C5218 1.524 . S
C5218 C5217 1.524 . S
C5218 C5219 1.397 . S
C5218 C5223 1.363 . S
C5219 H5190 0.950 . S
C5219 C5218 1.397 . S
C5219 C5220 1.334 . S
C5220 H5191 0.950 . S
C5220 C5219 1.334 . S
C5220 C5221 1.287 . S
C5221 C5220 1.287 . S
C5221 C5222 1.524 . S
C5221 H5224 0.999 . S
C5222 H5192 0.950 . S
C5222 C5221 1.524 . S
C5222 C5223 1.415 . S
C5223 H5193 0.950 . S
C5223 C5218 1.363 . S
C5223 C5222 1.415 . S
H5224 C5221 0.999 . S
H5225 C5206 0.913 . S
H5226 C5244 0.951 . S
H5227 C5246 0.951 . S
H5228 C5248 0.950 . S
H5229 C5249 0.950 . S
H5230 C5251 0.950 . S
H5231 C5254 0.950 . S
H5232 C5255 0.950 . S
H5233 C5257 0.950 . S
H5234 C5258 0.950 . S
H5235 C5259 0.951 . S
H5236 C5261 0.951 . S
H5237 C5263 0.950 . S
H5238 C5264 0.950 . S
H5239 C5266 0.950 . S
H5240 C5269 0.950 . S
H5241 C5270 0.950 . S
H5242 C5272 0.950 . S
H5243 C5273 0.950 . S
C5244 H5226 0.951 . S
C5244 C5245 1.366 . S
C5244 C5246 1.388 . S
C5245 C5244 1.366 . S
C5245 C5249 1.385 . S
C5246 H5227 0.951 . S
C5246 C5244 1.388 . S
C5246 C5247 1.366 . S
C5247 C5246 1.366 . S
C5247 C5248 1.414 . S
C5247 C5250 1.499 . S
C5248 H5228 0.950 . S
C5248 C5247 1.414 . S
C5248 C5249 1.374 . S
C5249 H5229 0.950 . S
C5249 C5245 1.385 . S
C5249 C5248 1.374 . S
C5250 C5247 1.499 . S
C5250 C5251 1.373 . S
C5250 C5252 1.389 . S
C5251 H5230 0.950 . S
C5251 C5250 1.373 . S
C5251 C5267 1.377 . S
C5252 C5250 1.389 . S
C5252 C5253 1.524 . S
C5252 C5266 1.377 . S
C5253 C5252 1.524 . S
C5253 C5254 1.397 . S
C5253 C5258 1.363 . S
C5254 H5231 0.950 . S
C5254 C5253 1.397 . S
C5254 C5255 1.334 . S
C5255 H5232 0.950 . S
C5255 C5254 1.334 . S
C5255 C5256 1.287 . S
C5256 C5255 1.287 . S
C5256 C5257 1.524 . S
C5256 H5275 0.913 . S
C5257 H5233 0.950 . S
C5257 C5256 1.524 . S
C5257 C5258 1.415 . S
C5258 H5234 0.950 . S
C5258 C5253 1.363 . S
C5258 C5257 1.415 . S
C5259 H5235 0.951 . S
C5259 C5260 1.366 . S
C5259 C5261 1.388 . S
C5260 C5259 1.366 . S
C5260 C5264 1.385 . S
C5261 H5236 0.951 . S
C5261 C5259 1.388 . S
C5261 C5262 1.366 . S
C5262 C5261 1.366 . S
C5262 C5263 1.414 . S
C5262 C5265 1.499 . S
C5263 H5237 0.950 . S
C5263 C5262 1.414 . S
C5263 C5264 1.374 . S
C5264 H5238 0.950 . S
C5264 C5260 1.385 . S
C5264 C5263 1.374 . S
C5265 C5262 1.499 . S
C5265 C5266 1.373 . S
C5265 C5267 1.389 . S
C5266 H5239 0.950 . S
C5266 C5252 1.377 . S
C5266 C5265 1.373 . S
C5267 C5251 1.377 . S
C5267 C5265 1.389 . S
C5267 C5268 1.524 . S
C5268 C5267 1.524 . S
C5268 C5269 1.397 . S
C5268 C5273 1.363 . S
C5269 H5240 0.950 . S
C5269 C5268 1.397 . S
C5269 C5270 1.334 . S
C5270 H5241 0.950 . S
C5270 C5269 1.334 . S
C5270 C5271 1.287 . S
C5271 C5270 1.287 . S
C5271 C5272 1.524 . S
C5271 H5274 0.999 . S
C5272 H5242 0.950 . S
C5272 C5271 1.524 . S
C5272 C5273 1.415 . S
C5273 H5243 0.950 . S
C5273 C5268 1.363 . S
C5273 C5272 1.415 . S
H5274 C5271 0.999 . S
H5275 C5256 0.913 . S
H5276 C5294 0.951 . S
H5277 C5296 0.951 . S
H5278 C5298 0.950 . S
H5279 C5299 0.950 . S
H5280 C5301 0.950 . S
H5281 C5304 0.950 . S
H5282 C5305 0.950 . S
H5283 C5307 0.950 . S
H5284 C5308 0.933 1_455 S
H5285 C5309 0.951 . S
H5286 C5311 0.951 . S
H5287 C5313 0.950 . S
H5288 C5314 0.950 1_455 S
H5289 C5316 0.950 . S
H5290 C5319 0.950 . S
H5291 C5320 0.950 . S
H5292 C5322 0.950 . S
H5293 C5323 0.950 . S
C5294 H5276 0.951 . S
C5294 C5295 1.366 . S
C5294 C5296 1.388 . S
C5295 C5294 1.366 . S
C5295 C5299 1.385 . S
C5296 H5277 0.951 . S
C5296 C5294 1.388 . S
C5296 C5297 1.366 . S
C5297 C5296 1.366 . S
C5297 C5298 1.414 . S
C5297 C5300 1.499 . S
C5298 H5278 0.950 . S
C5298 C5297 1.414 . S
C5298 C5299 1.374 . S
C5299 H5279 0.950 . S
C5299 C5295 1.385 . S
C5299 C5298 1.374 . S
C5300 C5297 1.499 . S
C5300 C5301 1.373 . S
C5300 C5302 1.389 . S
C5301 H5280 0.950 . S
C5301 C5300 1.373 . S
C5301 C5317 1.377 . S
C5302 C5300 1.389 . S
C5302 C5303 1.524 . S
C5302 C5316 1.377 . S
C5303 C5302 1.524 . S
C5303 C5304 1.397 . S
C5303 C5308 1.363 . S
C5304 H5281 0.950 . S
C5304 C5303 1.397 . S
C5304 C5305 1.334 . S
C5305 H5282 0.950 . S
C5305 C5304 1.334 . S
C5305 C5306 1.287 1_655 S
C5306 C5305 1.287 1_455 S
C5306 C5307 1.524 . S
C5306 H5325 0.913 . S
C5307 H5283 0.950 . S
C5307 C5306 1.524 . S
C5307 C5308 1.415 1_455 S
C5308 H5284 0.933 1_655 S
C5308 C5303 1.363 . S
C5308 C5307 1.415 1_655 S
C5309 H5285 0.951 . S
C5309 C5310 1.366 . S
C5309 C5311 1.388 . S
C5310 C5309 1.366 . S
C5310 C5314 1.385 . S
C5311 H5286 0.951 . S
C5311 C5309 1.388 . S
C5311 C5312 1.366 . S
C5312 C5311 1.366 . S
C5312 C5313 1.414 . S
C5312 C5315 1.499 . S
C5313 H5287 0.950 . S
C5313 C5312 1.414 . S
C5313 C5314 1.374 . S
C5314 H5288 0.950 1_655 S
C5314 C5310 1.385 . S
C5314 C5313 1.374 . S
C5315 C5312 1.499 . S
C5315 C5316 1.373 . S
C5315 C5317 1.389 . S
C5316 H5289 0.950 . S
C5316 C5302 1.377 . S
C5316 C5315 1.373 . S
C5317 C5301 1.377 . S
C5317 C5315 1.389 . S
C5317 C5318 1.524 . S
C5318 C5317 1.524 . S
C5318 C5319 1.397 . S
C5318 C5323 1.363 . S
C5319 H5290 0.950 . S
C5319 C5318 1.397 . S
C5319 C5320 1.334 . S
C5320 H5291 0.950 . S
C5320 C5319 1.334 . S
C5320 C5321 1.287 . S
C5321 C5320 1.287 . S
C5321 C5322 1.524 . S
C5321 H5324 0.999 . S
C5322 H5292 0.950 . S
C5322 C5321 1.524 . S
C5322 C5323 1.415 . S
C5323 H5293 0.950 . S
C5323 C5318 1.363 . S
C5323 C5322 1.415 . S
H5324 C5321 0.999 . S
H5325 C5306 0.913 . S
H5326 C5344 0.951 . S
H5327 C5346 0.951 . S
H5328 C5348 0.950 . S
H5329 C5349 0.950 . S
H5330 C5351 0.950 . S
H5331 C5354 0.950 . S
H5332 C5355 0.950 . S
H5333 C5357 0.950 . S
H5334 C5358 0.950 . S
H5335 C5359 0.951 . S
H5336 C5361 0.951 . S
H5337 C5363 0.950 . S
H5338 C5364 0.950 . S
H5339 C5366 0.950 . S
H5340 C5369 0.950 . S
H5341 C5370 0.950 . S
H5342 C5372 0.950 . S
H5343 C5373 0.950 . S
C5344 H5326 0.951 . S
C5344 C5345 1.366 . S
C5344 C5346 1.388 . S
C5345 C5344 1.366 . S
C5345 C5349 1.385 . S
C5346 H5327 0.951 . S
C5346 C5344 1.388 . S
C5346 C5347 1.366 . S
C5347 C5346 1.366 . S
C5347 C5348 1.414 . S
C5347 C5350 1.499 . S
C5348 H5328 0.950 . S
C5348 C5347 1.414 . S
C5348 C5349 1.374 . S
C5349 H5329 0.950 . S
C5349 C5345 1.385 . S
C5349 C5348 1.374 . S
C5350 C5347 1.499 . S
C5350 C5351 1.373 . S
C5350 C5352 1.389 . S
C5351 H5330 0.950 . S
C5351 C5350 1.373 . S
C5351 C5367 1.377 . S
C5352 C5350 1.389 . S
C5352 C5353 1.524 . S
C5352 C5366 1.377 . S
C5353 C5352 1.524 . S
C5353 C5354 1.397 . S
C5353 C5358 1.363 . S
C5354 H5331 0.950 . S
C5354 C5353 1.397 . S
C5354 C5355 1.334 . S
C5355 H5332 0.950 . S
C5355 C5354 1.334 . S
C5355 C5356 1.287 . S
C5356 C5355 1.287 . S
C5356 C5357 1.524 . S
C5356 H5375 0.913 . S
C5357 H5333 0.950 . S
C5357 C5356 1.524 . S
C5357 C5358 1.415 . S
C5358 H5334 0.950 . S
C5358 C5353 1.363 . S
C5358 C5357 1.415 . S
C5359 H5335 0.951 . S
C5359 C5360 1.366 . S
C5359 C5361 1.388 . S
C5360 C5359 1.366 . S
C5360 C5364 1.385 . S
C5361 H5336 0.951 . S
C5361 C5359 1.388 . S
C5361 C5362 1.366 . S
C5362 C5361 1.366 . S
C5362 C5363 1.414 . S
C5362 C5365 1.499 . S
C5363 H5337 0.950 . S
C5363 C5362 1.414 . S
C5363 C5364 1.374 . S
C5364 H5338 0.950 . S
C5364 C5360 1.385 . S
C5364 C5363 1.374 . S
C5365 C5362 1.499 . S
C5365 C5366 1.373 . S
C5365 C5367 1.389 . S
C5366 H5339 0.950 . S
C5366 C5352 1.377 . S
C5366 C5365 1.373 . S
C5367 C5351 1.377 . S
C5367 C5365 1.389 . S
C5367 C5368 1.524 . S
C5368 C5367 1.524 . S
C5368 C5369 1.397 . S
C5368 C5373 1.363 . S
C5369 H5340 0.950 . S
C5369 C5368 1.397 . S
C5369 C5370 1.334 . S
C5370 H5341 0.950 . S
C5370 C5369 1.334 . S
C5370 C5371 1.287 . S
C5371 C5370 1.287 . S
C5371 C5372 1.524 . S
C5371 H5374 0.999 . S
C5372 H5342 0.950 . S
C5372 C5371 1.524 . S
C5372 C5373 1.415 . S
C5373 H5343 0.950 . S
C5373 C5368 1.363 . S
C5373 C5372 1.415 . S
H5374 C5371 0.999 . S
H5375 C5356 0.913 . S
H5376 C5394 0.951 . S
H5377 C5396 0.951 . S
H5378 C5398 0.950 . S
H5379 C5399 0.950 . S
H5380 C5401 0.950 . S
H5381 C5404 0.950 . S
H5382 C5405 0.950 . S
H5383 C5407 0.950 . S
H5384 C5408 0.950 . S
H5385 C5409 0.951 . S
H5386 C5411 0.951 . S
H5387 C5413 0.950 . S
H5388 C5414 0.950 . S
H5389 C5416 0.950 . S
H5390 C5419 0.950 . S
H5391 C5420 0.950 . S
H5392 C5422 0.950 . S
H5393 C5423 0.950 . S
C5394 H5376 0.951 . S
C5394 C5395 1.366 . S
C5394 C5396 1.388 . S
C5395 C5394 1.366 . S
C5395 C5399 1.385 . S
C5396 H5377 0.951 . S
C5396 C5394 1.388 . S
C5396 C5397 1.366 . S
C5397 C5396 1.366 . S
C5397 C5398 1.414 . S
C5397 C5400 1.499 . S
C5398 H5378 0.950 . S
C5398 C5397 1.414 . S
C5398 C5399 1.374 . S
C5399 H5379 0.950 . S
C5399 C5395 1.385 . S
C5399 C5398 1.374 . S
C5400 C5397 1.499 . S
C5400 C5401 1.373 . S
C5400 C5402 1.389 . S
C5401 H5380 0.950 . S
C5401 C5400 1.373 . S
C5401 C5417 1.377 . S
C5402 C5400 1.389 . S
C5402 C5403 1.524 . S
C5402 C5416 1.377 . S
C5403 C5402 1.524 . S
C5403 C5404 1.397 . S
C5403 C5408 1.363 . S
C5404 H5381 0.950 . S
C5404 C5403 1.397 . S
C5404 C5405 1.334 . S
C5405 H5382 0.950 . S
C5405 C5404 1.334 . S
C5405 C5406 1.287 . S
C5406 C5405 1.287 . S
C5406 C5407 1.524 . S
C5406 H5425 0.913 . S
C5407 H5383 0.950 . S
C5407 C5406 1.524 . S
C5407 C5408 1.415 . S
C5408 H5384 0.950 . S
C5408 C5403 1.363 . S
C5408 C5407 1.415 . S
C5409 H5385 0.951 . S
C5409 C5410 1.366 . S
C5409 C5411 1.388 . S
C5410 C5409 1.366 . S
C5410 C5414 1.385 . S
C5411 H5386 0.951 . S
C5411 C5409 1.388 . S
C5411 C5412 1.366 . S
C5412 C5411 1.366 . S
C5412 C5413 1.414 . S
C5412 C5415 1.499 . S
C5413 H5387 0.950 . S
C5413 C5412 1.414 . S
C5413 C5414 1.374 . S
C5414 H5388 0.950 . S
C5414 C5410 1.385 . S
C5414 C5413 1.374 . S
C5415 C5412 1.499 . S
C5415 C5416 1.373 . S
C5415 C5417 1.389 . S
C5416 H5389 0.950 . S
C5416 C5402 1.377 . S
C5416 C5415 1.373 . S
C5417 C5401 1.377 . S
C5417 C5415 1.389 . S
C5417 C5418 1.524 . S
C5418 C5417 1.524 . S
C5418 C5419 1.397 . S
C5418 C5423 1.363 . S
C5419 H5390 0.950 . S
C5419 C5418 1.397 . S
C5419 C5420 1.334 . S
C5420 H5391 0.950 . S
C5420 C5419 1.334 . S
C5420 C5421 1.287 . S
C5421 C5420 1.287 . S
C5421 C5422 1.524 . S
C5421 H5424 0.999 . S
C5422 H5392 0.950 . S
C5422 C5421 1.524 . S
C5422 C5423 1.415 . S
C5423 H5393 0.950 . S
C5423 C5418 1.363 . S
C5423 C5422 1.415 . S
H5424 C5421 0.999 . S
H5425 C5406 0.913 . S
H5426 C5444 0.951 . S
H5427 C5446 0.951 . S
H5428 C5448 0.950 . S
H5429 C5449 0.950 . S
H5430 C5451 0.950 . S
H5431 C5454 0.950 . S
H5432 C5455 0.950 . S
H5433 C5457 0.950 . S
H5434 C5458 0.950 . S
H5435 C5459 0.951 . S
H5436 C5461 0.951 . S
H5437 C5463 0.950 . S
H5438 C5464 0.950 . S
H5439 C5466 0.950 . S
H5440 C5469 0.951 . S
H5441 C5470 0.950 . S
H5442 C5472 0.950 . S
H5443 C5473 0.950 1_565 S
C5444 H5426 0.951 . S
C5444 C5445 1.366 . S
C5444 C5446 1.388 . S
C5445 C5444 1.366 . S
C5445 C5449 1.385 . S
C5446 H5427 0.951 . S
C5446 C5444 1.388 . S
C5446 C5447 1.366 . S
C5447 C5446 1.366 . S
C5447 C5448 1.414 . S
C5447 C5450 1.499 . S
C5448 H5428 0.950 . S
C5448 C5447 1.414 . S
C5448 C5449 1.374 . S
C5449 H5429 0.950 . S
C5449 C5445 1.385 . S
C5449 C5448 1.374 . S
C5450 C5447 1.499 . S
C5450 C5451 1.373 . S
C5450 C5452 1.389 . S
C5451 H5430 0.950 . S
C5451 C5450 1.373 . S
C5451 C5467 1.377 . S
C5452 C5450 1.389 . S
C5452 C5453 1.524 . S
C5452 C5466 1.377 . S
C5453 C5452 1.524 . S
C5453 C5454 1.397 . S
C5453 C5458 1.363 . S
C5454 H5431 0.950 . S
C5454 C5453 1.397 . S
C5454 C5455 1.334 . S
C5455 H5432 0.950 . S
C5455 C5454 1.334 . S
C5455 C5456 1.287 . S
C5456 C5455 1.287 . S
C5456 C5457 1.524 . S
C5456 H5475 0.913 . S
C5457 H5433 0.950 . S
C5457 C5456 1.524 . S
C5457 C5458 1.415 . S
C5458 H5434 0.950 . S
C5458 C5453 1.363 . S
C5458 C5457 1.415 . S
C5459 H5435 0.951 . S
C5459 C5460 1.374 . S
C5459 C5461 1.388 1_545 S
C5460 C5459 1.374 . S
C5460 C5464 1.363 1_545 S
C5461 H5436 0.951 . S
C5461 C5459 1.388 1_565 S
C5461 C5462 1.366 . S
C5462 C5461 1.366 . S
C5462 C5463 1.414 . S
C5462 C5465 1.499 . S
C5463 H5437 0.950 . S
C5463 C5462 1.414 . S
C5463 C5464 1.374 . S
C5464 H5438 0.950 . S
C5464 C5460 1.363 1_565 S
C5464 C5463 1.374 . S
C5465 C5462 1.499 . S
C5465 C5466 1.373 . S
C5465 C5467 1.389 . S
C5466 H5439 0.950 . S
C5466 C5452 1.377 . S
C5466 C5465 1.373 . S
C5467 C5451 1.377 . S
C5467 C5465 1.389 . S
C5467 C5468 1.524 . S
C5468 C5467 1.524 . S
C5468 C5469 1.398 . S
C5468 C5473 1.363 1_565 S
C5469 H5440 0.951 . S
C5469 C5468 1.398 . S
C5469 C5470 1.332 1_565 S
C5470 H5441 0.950 . S
C5470 C5469 1.332 1_545 S
C5470 C5471 1.287 . S
C5471 C5470 1.287 . S
C5471 C5472 1.524 . S
C5471 H5474 0.999 . S
C5472 H5442 0.950 . S
C5472 C5471 1.524 . S
C5472 C5473 1.415 . S
C5473 H5443 0.950 1_545 S
C5473 C5468 1.363 1_545 S
C5473 C5472 1.415 . S
H5474 C5471 0.999 . S
H5475 C5456 0.913 . S
H5476 C5494 0.951 . S
H5477 C5496 0.951 . S
H5478 C5498 0.950 . S
H5479 C5499 0.950 . S
H5480 C5501 0.950 . S
H5481 C5504 0.950 . S
H5482 C5505 0.950 . S
H5483 C5507 0.950 . S
H5484 C5508 0.950 . S
H5485 C5509 0.951 . S
H5486 C5511 0.951 . S
H5487 C5513 0.950 . S
H5488 C5514 0.950 . S
H5489 C5516 0.950 . S
H5490 C5519 0.950 . S
H5491 C5520 0.950 . S
H5492 C5522 0.950 . S
H5493 C5523 0.950 . S
C5494 H5476 0.951 . S
C5494 C5495 1.366 . S
C5494 C5496 1.388 . S
C5495 C5494 1.366 . S
C5495 C5499 1.385 . S
C5496 H5477 0.951 . S
C5496 C5494 1.388 . S
C5496 C5497 1.366 . S
C5497 C5496 1.366 . S
C5497 C5498 1.414 . S
C5497 C5500 1.499 . S
C5498 H5478 0.950 . S
C5498 C5497 1.414 . S
C5498 C5499 1.374 . S
C5499 H5479 0.950 . S
C5499 C5495 1.385 . S
C5499 C5498 1.374 . S
C5500 C5497 1.499 . S
C5500 C5501 1.373 . S
C5500 C5502 1.389 . S
C5501 H5480 0.950 . S
C5501 C5500 1.373 . S
C5501 C5517 1.377 . S
C5502 C5500 1.389 . S
C5502 C5503 1.524 . S
C5502 C5516 1.377 . S
C5503 C5502 1.524 . S
C5503 C5504 1.397 . S
C5503 C5508 1.363 . S
C5504 H5481 0.950 . S
C5504 C5503 1.397 . S
C5504 C5505 1.334 . S
C5505 H5482 0.950 . S
C5505 C5504 1.334 . S
C5505 C5506 1.287 . S
C5506 C5505 1.287 . S
C5506 C5507 1.524 . S
C5506 H5525 0.913 . S
C5507 H5483 0.950 . S
C5507 C5506 1.524 . S
C5507 C5508 1.415 . S
C5508 H5484 0.950 . S
C5508 C5503 1.363 . S
C5508 C5507 1.415 . S
C5509 H5485 0.951 . S
C5509 C5510 1.366 . S
C5509 C5511 1.388 . S
C5510 C5509 1.366 . S
C5510 C5514 1.385 . S
C5511 H5486 0.951 . S
C5511 C5509 1.388 . S
C5511 C5512 1.366 . S
C5512 C5511 1.366 . S
C5512 C5513 1.414 . S
C5512 C5515 1.499 . S
C5513 H5487 0.950 . S
C5513 C5512 1.414 . S
C5513 C5514 1.374 . S
C5514 H5488 0.950 . S
C5514 C5510 1.385 . S
C5514 C5513 1.374 . S
C5515 C5512 1.499 . S
C5515 C5516 1.373 . S
C5515 C5517 1.389 . S
C5516 H5489 0.950 . S
C5516 C5502 1.377 . S
C5516 C5515 1.373 . S
C5517 C5501 1.377 . S
C5517 C5515 1.389 . S
C5517 C5518 1.524 . S
C5518 C5517 1.524 . S
C5518 C5519 1.397 . S
C5518 C5523 1.363 . S
C5519 H5490 0.950 . S
C5519 C5518 1.397 . S
C5519 C5520 1.334 . S
C5520 H5491 0.950 . S
C5520 C5519 1.334 . S
C5520 C5521 1.287 . S
C5521 C5520 1.287 . S
C5521 C5522 1.524 . S
C5521 H5524 0.999 . S
C5522 H5492 0.950 . S
C5522 C5521 1.524 . S
C5522 C5523 1.415 . S
C5523 H5493 0.950 . S
C5523 C5518 1.363 . S
C5523 C5522 1.415 . S
H5524 C5521 0.999 . S
H5525 C5506 0.913 . S
H5526 C5544 0.951 . S
H5527 C5546 0.951 . S
H5528 C5548 0.950 . S
H5529 C5549 0.950 . S
H5530 C5551 0.950 . S
H5531 C5554 0.950 . S
H5532 C5555 0.950 . S
H5533 C5557 0.950 . S
H5534 C5558 0.950 . S
H5535 C5559 0.951 . S
H5536 C5561 0.951 . S
H5537 C5563 0.950 . S
H5538 C5564 0.950 . S
H5539 C5566 0.950 . S
H5540 C5569 0.950 . S
H5541 C5570 0.950 . S
H5542 C5572 0.950 . S
H5543 C5573 0.950 . S
C5544 H5526 0.951 . S
C5544 C5545 1.366 . S
C5544 C5546 1.388 . S
C5545 C5544 1.366 . S
C5545 C5549 1.385 . S
C5546 H5527 0.951 . S
C5546 C5544 1.388 . S
C5546 C5547 1.366 . S
C5547 C5546 1.366 . S
C5547 C5548 1.414 . S
C5547 C5550 1.499 . S
C5548 H5528 0.950 . S
C5548 C5547 1.414 . S
C5548 C5549 1.374 . S
C5549 H5529 0.950 . S
C5549 C5545 1.385 . S
C5549 C5548 1.374 . S
C5550 C5547 1.499 . S
C5550 C5551 1.373 . S
C5550 C5552 1.389 1_554 S
C5551 H5530 0.950 . S
C5551 C5550 1.373 . S
C5551 C5567 1.377 . S
C5552 C5550 1.389 1_556 S
C5552 C5553 1.524 . S
C5552 C5566 1.377 . S
C5553 C5552 1.524 . S
C5553 C5554 1.397 . S
C5553 C5558 1.363 . S
C5554 H5531 0.950 . S
C5554 C5553 1.397 . S
C5554 C5555 1.334 . S
C5555 H5532 0.950 . S
C5555 C5554 1.334 . S
C5555 C5556 1.287 . S
C5556 C5555 1.287 . S
C5556 C5557 1.524 . S
C5556 H5575 0.913 . S
C5557 H5533 0.950 . S
C5557 C5556 1.524 . S
C5557 C5558 1.415 . S
C5558 H5534 0.950 . S
C5558 C5553 1.363 . S
C5558 C5557 1.415 . S
C5559 H5535 0.951 . S
C5559 C5560 1.366 . S
C5559 C5561 1.388 . S
C5560 C5559 1.366 . S
C5560 C5564 1.385 . S
C5561 H5536 0.951 . S
C5561 C5559 1.388 . S
C5561 C5562 1.366 . S
C5562 C5561 1.366 . S
C5562 C5563 1.414 . S
C5562 C5565 1.499 . S
C5563 H5537 0.950 . S
C5563 C5562 1.414 . S
C5563 C5564 1.374 . S
C5564 H5538 0.950 . S
C5564 C5560 1.385 . S
C5564 C5563 1.374 . S
C5565 C5562 1.499 . S
C5565 C5566 1.373 1_554 S
C5565 C5567 1.389 . S
C5566 H5539 0.950 . S
C5566 C5552 1.377 . S
C5566 C5565 1.373 1_556 S
C5567 C5551 1.377 . S
C5567 C5565 1.389 . S
C5567 C5568 1.524 . S
C5568 C5567 1.524 . S
C5568 C5569 1.397 . S
C5568 C5573 1.363 . S
C5569 H5540 0.950 . S
C5569 C5568 1.397 . S
C5569 C5570 1.334 . S
C5570 H5541 0.950 . S
C5570 C5569 1.334 . S
C5570 C5571 1.287 . S
C5571 C5570 1.287 . S
C5571 C5572 1.524 . S
C5571 H5574 0.999 . S
C5572 H5542 0.950 . S
C5572 C5571 1.524 . S
C5572 C5573 1.415 . S
C5573 H5543 0.950 . S
C5573 C5568 1.363 . S
C5573 C5572 1.415 . S
H5574 C5571 0.999 . S
H5575 C5556 0.913 . S
H5576 C5594 0.951 . S
H5577 C5596 0.951 . S
H5578 C5598 0.950 . S
H5579 C5599 0.950 . S
H5580 C5601 0.950 . S
H5581 C5604 0.950 . S
H5582 C5605 0.950 . S
H5583 C5607 0.950 . S
H5584 C5608 0.950 . S
H5585 C5609 0.951 . S
H5586 C5611 0.951 . S
H5587 C5613 0.950 . S
H5588 C5614 0.950 . S
H5589 C5616 0.950 . S
H5590 C5619 0.950 . S
H5591 C5620 0.950 . S
H5592 C5622 0.950 . S
H5593 C5623 0.950 . S
C5594 H5576 0.951 . S
C5594 C5595 1.366 . S
C5594 C5596 1.388 . S
C5595 C5594 1.366 . S
C5595 C5599 1.385 . S
C5596 H5577 0.951 . S
C5596 C5594 1.388 . S
C5596 C5597 1.366 . S
C5597 C5596 1.366 . S
C5597 C5598 1.414 . S
C5597 C5600 1.499 . S
C5598 H5578 0.950 . S
C5598 C5597 1.414 . S
C5598 C5599 1.374 . S
C5599 H5579 0.950 . S
C5599 C5595 1.385 . S
C5599 C5598 1.374 . S
C5600 C5597 1.499 . S
C5600 C5601 1.373 . S
C5600 C5602 1.389 . S
C5601 H5580 0.950 . S
C5601 C5600 1.373 . S
C5601 C5617 1.377 . S
C5602 C5600 1.389 . S
C5602 C5603 1.524 . S
C5602 C5616 1.377 . S
C5603 C5602 1.524 . S
C5603 C5604 1.397 . S
C5603 C5608 1.363 . S
C5604 H5581 0.950 . S
C5604 C5603 1.397 . S
C5604 C5605 1.334 . S
C5605 H5582 0.950 . S
C5605 C5604 1.334 . S
C5605 C5606 1.287 . S
C5606 C5605 1.287 . S
C5606 C5607 1.524 . S
C5606 H5625 0.913 . S
C5607 H5583 0.950 . S
C5607 C5606 1.524 . S
C5607 C5608 1.415 . S
C5608 H5584 0.950 . S
C5608 C5603 1.363 . S
C5608 C5607 1.415 . S
C5609 H5585 0.951 . S
C5609 C5610 1.366 . S
C5609 C5611 1.388 . S
C5610 C5609 1.366 . S
C5610 C5614 1.385 . S
C5611 H5586 0.951 . S
C5611 C5609 1.388 . S
C5611 C5612 1.366 . S
C5612 C5611 1.366 . S
C5612 C5613 1.414 . S
C5612 C5615 1.499 . S
C5613 H5587 0.950 . S
C5613 C5612 1.414 . S
C5613 C5614 1.374 . S
C5614 H5588 0.950 . S
C5614 C5610 1.385 . S
C5614 C5613 1.374 . S
C5615 C5612 1.499 . S
C5615 C5616 1.373 . S
C5615 C5617 1.389 . S
C5616 H5589 0.950 . S
C5616 C5602 1.377 . S
C5616 C5615 1.373 . S
C5617 C5601 1.377 . S
C5617 C5615 1.389 . S
C5617 C5618 1.524 . S
C5618 C5617 1.524 . S
C5618 C5619 1.397 . S
C5618 C5623 1.363 . S
C5619 H5590 0.950 . S
C5619 C5618 1.397 . S
C5619 C5620 1.334 . S
C5620 H5591 0.950 . S
C5620 C5619 1.334 . S
C5620 C5621 1.287 . S
C5621 C5620 1.287 . S
C5621 C5622 1.524 . S
C5621 H5624 0.999 . S
C5622 H5592 0.950 . S
C5622 C5621 1.524 . S
C5622 C5623 1.415 . S
C5623 H5593 0.950 . S
C5623 C5618 1.363 . S
C5623 C5622 1.415 . S
H5624 C5621 0.999 . S
H5625 C5606 0.913 . S
H5626 C5644 0.951 . S
H5627 C5646 0.951 . S
H5628 C5648 0.950 . S
H5629 C5649 0.950 . S
H5630 C5651 0.950 . S
H5631 C5654 0.950 1_554 S
H5632 C5655 0.977 . S
H5633 C5657 0.950 . S
H5634 C5658 0.950 . S
H5635 C5659 0.951 . S
H5636 C5661 0.951 . S
H5637 C5663 0.950 . S
H5638 C5664 0.950 . S
H5639 C5666 0.950 . S
H5640 C5669 0.950 1_556 S
H5641 C5670 0.935 1_556 S
H5642 C5672 0.950 . S
H5643 C5673 0.950 . S
C5644 H5626 0.951 . S
C5644 C5645 1.366 1_556 S
C5644 C5646 1.388 . S
C5645 C5644 1.366 1_554 S
C5645 C5649 1.385 . S
C5646 H5627 0.951 . S
C5646 C5644 1.388 . S
C5646 C5647 1.366 1_556 S
C5647 C5646 1.366 1_554 S
C5647 C5648 1.414 . S
C5647 C5650 1.499 . S
C5648 H5628 0.950 . S
C5648 C5647 1.414 . S
C5648 C5649 1.374 . S
C5649 H5629 0.950 . S
C5649 C5645 1.385 . S
C5649 C5648 1.374 . S
C5650 C5647 1.499 . S
C5650 C5651 1.373 . S
C5650 C5652 1.389 1_554 S
C5651 H5630 0.950 . S
C5651 C5650 1.373 . S
C5651 C5667 1.377 . S
C5652 C5650 1.389 1_556 S
C5652 C5653 1.524 . S
C5652 C5666 1.377 . S
C5653 C5652 1.524 . S
C5653 C5654 1.397 . S
C5653 C5658 1.363 . S
C5654 H5631 0.950 1_556 S
C5654 C5653 1.397 . S
C5654 C5655 1.334 . S
C5655 H5632 0.977 . S
C5655 C5654 1.334 . S
C5655 C5656 1.287 . S
C5656 C5655 1.287 . S
C5656 C5657 1.524 . S
C5656 H5675 0.913 . S
C5657 H5633 0.950 . S
C5657 C5656 1.524 . S
C5657 C5658 1.415 . S
C5658 H5634 0.950 . S
C5658 C5653 1.363 . S
C5658 C5657 1.415 . S
C5659 H5635 0.951 . S
C5659 C5660 1.366 1_554 S
C5659 C5661 1.388 . S
C5660 C5659 1.366 1_556 S
C5660 C5664 1.385 . S
C5661 H5636 0.951 . S
C5661 C5659 1.388 . S
C5661 C5662 1.366 1_554 S
C5662 C5661 1.366 1_556 S
C5662 C5663 1.414 . S
C5662 C5665 1.499 . S
C5663 H5637 0.950 . S
C5663 C5662 1.414 . S
C5663 C5664 1.374 . S
C5664 H5638 0.950 . S
C5664 C5660 1.385 . S
C5664 C5663 1.374 . S
C5665 C5662 1.499 . S
C5665 C5666 1.373 . S
C5665 C5667 1.389 1_556 S
C5666 H5639 0.950 . S
C5666 C5652 1.377 . S
C5666 C5665 1.373 . S
C5667 C5651 1.377 . S
C5667 C5665 1.389 1_554 S
C5667 C5668 1.524 . S
C5668 C5667 1.524 . S
C5668 C5669 1.397 . S
C5668 C5673 1.363 . S
C5669 H5640 0.950 1_554 S
C5669 C5668 1.397 . S
C5669 C5670 1.334 . S
C5670 H5641 0.935 1_554 S
C5670 C5669 1.334 . S
C5670 C5671 1.287 . S
C5671 C5670 1.287 . S
C5671 C5672 1.524 . S
C5671 H5674 0.999 . S
C5672 H5642 0.950 . S
C5672 C5671 1.524 . S
C5672 C5673 1.415 . S
C5673 H5643 0.950 . S
C5673 C5668 1.363 . S
C5673 C5672 1.415 . S
H5674 C5671 0.999 . S
H5675 C5656 0.913 . S
H5676 C5694 0.951 . S
H5677 C5696 0.951 . S
H5678 C5698 0.950 . S
H5679 C5699 0.950 . S
H5680 C5701 0.950 . S
H5681 C5704 0.950 . S
H5682 C5705 0.950 . S
H5683 C5707 0.950 . S
H5684 C5708 0.950 . S
H5685 C5709 0.951 . S
H5686 C5711 0.951 . S
H5687 C5713 0.950 . S
H5688 C5714 0.950 . S
H5689 C5716 0.950 . S
H5690 C5719 0.950 . S
H5691 C5720 0.950 . S
H5692 C5722 0.950 . S
H5693 C5723 0.950 . S
C5694 H5676 0.951 . S
C5694 C5695 1.366 . S
C5694 C5696 1.388 . S
C5695 C5694 1.366 . S
C5695 C5699 1.385 . S
C5696 H5677 0.951 . S
C5696 C5694 1.388 . S
C5696 C5697 1.366 . S
C5697 C5696 1.366 . S
C5697 C5698 1.414 . S
C5697 C5700 1.499 . S
C5698 H5678 0.950 . S
C5698 C5697 1.414 . S
C5698 C5699 1.374 . S
C5699 H5679 0.950 . S
C5699 C5695 1.385 . S
C5699 C5698 1.374 . S
C5700 C5697 1.499 . S
C5700 C5701 1.373 . S
C5700 C5702 1.389 . S
C5701 H5680 0.950 . S
C5701 C5700 1.373 . S
C5701 C5717 1.377 . S
C5702 C5700 1.389 . S
C5702 C5703 1.524 . S
C5702 C5716 1.377 . S
C5703 C5702 1.524 . S
C5703 C5704 1.397 . S
C5703 C5708 1.363 . S
C5704 H5681 0.950 . S
C5704 C5703 1.397 . S
C5704 C5705 1.334 . S
C5705 H5682 0.950 . S
C5705 C5704 1.334 . S
C5705 C5706 1.287 . S
C5706 C5705 1.287 . S
C5706 C5707 1.524 . S
C5706 H5725 0.913 . S
C5707 H5683 0.950 . S
C5707 C5706 1.524 . S
C5707 C5708 1.415 . S
C5708 H5684 0.950 . S
C5708 C5703 1.363 . S
C5708 C5707 1.415 . S
C5709 H5685 0.951 . S
C5709 C5710 1.366 . S
C5709 C5711 1.388 . S
C5710 C5709 1.366 . S
C5710 C5714 1.385 . S
C5711 H5686 0.951 . S
C5711 C5709 1.388 . S
C5711 C5712 1.366 . S
C5712 C5711 1.366 . S
C5712 C5713 1.414 . S
C5712 C5715 1.499 . S
C5713 H5687 0.950 . S
C5713 C5712 1.414 . S
C5713 C5714 1.374 . S
C5714 H5688 0.950 . S
C5714 C5710 1.385 . S
C5714 C5713 1.374 . S
C5715 C5712 1.499 . S
C5715 C5716 1.373 . S
C5715 C5717 1.389 . S
C5716 H5689 0.950 . S
C5716 C5702 1.377 . S
C5716 C5715 1.373 . S
C5717 C5701 1.377 . S
C5717 C5715 1.389 . S
C5717 C5718 1.524 . S
C5718 C5717 1.524 . S
C5718 C5719 1.397 . S
C5718 C5723 1.363 . S
C5719 H5690 0.950 . S
C5719 C5718 1.397 . S
C5719 C5720 1.334 . S
C5720 H5691 0.950 . S
C5720 C5719 1.334 . S
C5720 C5721 1.287 . S
C5721 C5720 1.287 . S
C5721 C5722 1.524 . S
C5721 H5724 0.999 . S
C5722 H5692 0.950 . S
C5722 C5721 1.524 . S
C5722 C5723 1.415 . S
C5723 H5693 0.950 . S
C5723 C5718 1.363 . S
C5723 C5722 1.415 . S
H5724 C5721 0.999 . S
H5725 C5706 0.913 . S
H5726 C5744 0.951 . S
H5727 C5746 0.951 . S
H5728 C5748 0.950 . S
H5729 C5749 0.950 . S
H5730 C5751 0.950 . S
H5731 C5754 0.950 . S
H5732 C5755 0.950 . S
H5733 C5757 0.950 . S
H5734 C5758 0.950 . S
H5735 C5759 0.951 . S
H5736 C5761 0.951 . S
H5737 C5763 0.950 . S
H5738 C5764 0.950 . S
H5739 C5766 0.950 . S
H5740 C5769 0.950 . S
H5741 C5770 0.950 . S
H5742 C5772 0.950 . S
H5743 C5773 0.950 . S
C5744 H5726 0.951 . S
C5744 C5745 1.366 . S
C5744 C5746 1.388 . S
C5745 C5744 1.366 . S
C5745 C5749 1.385 . S
C5746 H5727 0.951 . S
C5746 C5744 1.388 . S
C5746 C5747 1.366 . S
C5747 C5746 1.366 . S
C5747 C5748 1.414 . S
C5747 C5750 1.499 . S
C5748 H5728 0.950 . S
C5748 C5747 1.414 . S
C5748 C5749 1.374 . S
C5749 H5729 0.950 . S
C5749 C5745 1.385 . S
C5749 C5748 1.374 . S
C5750 C5747 1.499 . S
C5750 C5751 1.373 . S
C5750 C5752 1.389 . S
C5751 H5730 0.950 . S
C5751 C5750 1.373 . S
C5751 C5767 1.377 . S
C5752 C5750 1.389 . S
C5752 C5753 1.524 . S
C5752 C5766 1.377 . S
C5753 C5752 1.524 . S
C5753 C5754 1.397 . S
C5753 C5758 1.363 . S
C5754 H5731 0.950 . S
C5754 C5753 1.397 . S
C5754 C5755 1.334 . S
C5755 H5732 0.950 . S
C5755 C5754 1.334 . S
C5755 C5756 1.287 . S
C5756 C5755 1.287 . S
C5756 C5757 1.524 . S
C5756 H5775 0.913 . S
C5757 H5733 0.950 . S
C5757 C5756 1.524 . S
C5757 C5758 1.415 . S
C5758 H5734 0.950 . S
C5758 C5753 1.363 . S
C5758 C5757 1.415 . S
C5759 H5735 0.951 . S
C5759 C5760 1.366 . S
C5759 C5761 1.388 . S
C5760 C5759 1.366 . S
C5760 C5764 1.385 . S
C5761 H5736 0.951 . S
C5761 C5759 1.388 . S
C5761 C5762 1.366 . S
C5762 C5761 1.366 . S
C5762 C5763 1.414 . S
C5762 C5765 1.499 . S
C5763 H5737 0.950 . S
C5763 C5762 1.414 . S
C5763 C5764 1.374 . S
C5764 H5738 0.950 . S
C5764 C5760 1.385 . S
C5764 C5763 1.374 . S
C5765 C5762 1.499 . S
C5765 C5766 1.373 . S
C5765 C5767 1.389 . S
C5766 H5739 0.950 . S
C5766 C5752 1.377 . S
C5766 C5765 1.373 . S
C5767 C5751 1.377 . S
C5767 C5765 1.389 . S
C5767 C5768 1.524 . S
C5768 C5767 1.524 . S
C5768 C5769 1.397 . S
C5768 C5773 1.363 . S
C5769 H5740 0.950 . S
C5769 C5768 1.397 . S
C5769 C5770 1.334 . S
C5770 H5741 0.950 . S
C5770 C5769 1.334 . S
C5770 C5771 1.287 . S
C5771 C5770 1.287 . S
C5771 C5772 1.524 . S
C5771 H5774 0.999 . S
C5772 H5742 0.950 . S
C5772 C5771 1.524 . S
C5772 C5773 1.415 . S
C5773 H5743 0.950 . S
C5773 C5768 1.363 . S
C5773 C5772 1.415 . S
H5774 C5771 0.999 . S
H5775 C5756 0.913 . S
C995 C109 2.162 . S
C1010 C338 2.127 1_556 S
C1045 C65 2.073 . S
C1060 C395 2.069 . S
C1095 C75 1.034 . S
C1110 C418 1.016 . S
C1160 C472 1.439 . S
C1145 C84 1.439 . S
C1195 C25 1.205 . S
C1210 C512 1.194 . S
C1260 C543 0.279 . S
C1245 C28 0.270 . S
C1310 C595 1.187 . S
C1295 C47 1.170 . S
C1345 C9 1.736 . S
C1360 C618 1.684 . S
C1410 C355 2.501 . S
C1395 C233 2.514 . S
C1445 C249 0.293 . S
C1460 C392 0.359 . S
C1510 C435 1.391 . S
C1495 C275 1.401 . S
C1560 C458 1.161 . S
C1545 C173 1.177 . S
C1595 C224 1.788 . S
C1610 C498 1.792 . S
C1660 C546 1.470 . S
C1645 C243 1.492 . S
C1710 C592 0.267 . S
C1695 C266 0.185 . S
C1760 C635 1.909 . S
C1745 C179 1.923 . S
C1810 C352 1.464 1_565 S
C1795 C163 1.494 . S
C1845 C289 1.995 . S
C1860 C675 1.990 . S
C1910 C707 2.540 . S
C1895 C333 2.577 . S
C1960 C738 0.475 1_655 S
C1945 C308 0.467 . S
C1995 C123 1.326 . S
C2010 C632 1.315 . S
C2045 C126 1.550 . S
C2060 C432 1.554 . S
C2095 C327 2.344 . S
C2110 C795 2.328 . S
C2160 C818 0.545 . S
C2145 C299 0.504 . S
C2210 C347 2.140 . S
C2195 C67 2.182 . S
C2260 C826 2.109 . S
C2245 C98 2.073 . S
C2295 C89 1.073 . S
C2310 C427 1.056 . S
C2345 C79 1.501 . S
C2360 C783 1.488 . S
C2410 C503 1.195 . S
C2395 C11 1.214 . S
C2445 C51 0.273 . S
C2460 C712 0.297 . S
C2510 C586 1.265 . S
C2495 C33 1.246 . S
C2560 C867 1.675 . S
C2545 C14 1.743 . S
C2610 C346 2.488 . S
C2595 C140 2.491 . S
C2660 C823 0.349 . S
C2645 C319 0.262 . S
C2695 C112 1.415 . S
C2710 C426 1.415 . S
C2745 C285 1.207 . S
C2760 C787 1.194 . S
C2795 C149 1.847 . S
C2810 C507 1.819 . S
C2860 C715 1.509 . S
C2845 C313 1.534 . S
C2895 C121 0.139 . S
C2910 C583 0.267 . S
C2945 C291 1.964 . S
C2960 C866 1.947 . S
C2995 C182 1.502 . S
C3010 C343 1.472 . S
C3045 C168 1.997 . S
C3060 C666 2.017 . S
C3095 C263 2.631 . S
C3110 C538 2.595 . S
C3145 C247 0.541 . S
C3160 C747 0.549 . S
C3210 C863 1.299 . S
C3195 C277 1.319 . S
C3245 C219 1.597 . S
C3260 C423 1.575 . S
C3310 C466 2.377 . S
C3295 C257 2.394 . S
C3360 C387 0.549 . S
C3345 C201 0.516 . S
C3395 C81 2.162 . S
C3410 C898 2.127 . S
C3460 C835 2.069 . S
C3445 C93 2.073 . S
C3495 C103 1.033 . S
C3510 C938 1.016 . S
C3545 C56 1.440 . S
C3560 C792 1.440 . S
C3595 C53 1.205 . S
C3610 C672 1.193 . S
C3660 C703 0.277 . S
C3645 C0 0.270 . S
C3710 C755 1.187 . S
C3695 C19 1.168 . S
C3760 C858 1.684 . S
C3745 C37 1.735 . S
C3810 C915 2.502 . S
C3795 C261 2.514 . S
C3845 C193 0.294 . S
C3860 C832 0.362 . S
C3910 C955 1.391 . S
C3895 C205 1.401 . S
C3960 C778 1.162 . S
C3945 C215 1.177 . S
C4010 C658 1.792 . S
C3995 C252 1.788 . S
C4045 C187 1.492 . S
C4060 C706 1.469 . S
C4110 C752 0.271 . S
C4095 C196 0.188 . S
C4145 C221 1.923 . S
C4160 C875 1.909 . S
C4210 C912 1.480 . S
C4195 C317 1.493 . S
C4245 C135 1.996 . S
C4260 C515 1.990 . S
C4310 C547 2.541 . S
C4295 C151 2.584 . S
C4360 C578 0.475 . S
C4345 C154 0.465 . S
C4410 C872 1.315 . S
C4395 C305 1.326 . S
C4445 C280 1.550 . S
C4460 C952 1.554 . S
C4510 C475 2.327 . S
C4495 C145 2.337 . S
C4560 C378 0.547 . S
C4545 C117 0.506 . S
C4595 C95 2.182 . S
C4610 C907 2.140 . S
C4660 C386 2.109 . S
C4645 C70 2.073 . S
C4695 C61 1.073 . S
C4710 C947 1.055 . S
C4745 C107 1.501 . S
C4760 C463 1.488 . S
C4795 C39 1.213 . S
C4810 C663 1.194 . S
C4860 C552 0.296 . S
C4845 C23 0.267 . S
C4895 C5 1.246 . S
C4910 C746 1.262 . S
C4945 C42 1.736 . S
C4960 C627 1.675 . S
C5010 C906 2.488 . S
C4995 C322 2.491 . S
C5045 C165 0.261 . S
C5060 C383 0.348 . S
C5110 C946 1.415 . S
C5095 C294 1.415 . S
C5145 C131 1.208 . S
C5160 C467 1.195 . S
C5195 C331 1.847 . S
C5210 C667 1.822 . S
C5260 C555 1.509 . S
C5245 C159 1.534 . S
C5295 C303 0.139 . S
C5310 C743 0.264 . S
C5360 C626 1.947 . S
C5345 C137 1.964 . S
C5410 C903 1.473 . S
C5395 C238 1.502 . S
C5460 C506 2.034 1_655 S
C5445 C210 1.997 . S
C5495 C235 2.631 . S
C5510 C698 2.595 . S
C5560 C587 0.550 . S
C5545 C191 0.540 . S
C5595 C207 1.319 . S
C5610 C623 1.299 . S
C5645 C177 1.597 . S
C5660 C943 1.574 . S
C5710 C786 2.377 . S
C5695 C229 2.394 1_565 S
C5760 C827 0.551 . S
C5745 C271 0.516 . S
