# Generated by pormake.
# Topology ant, (3,6)-cn, num edge types: 1
# Building blocks:
#     Node 0, Type 0, BuildingBlock: OLANEW_clean_sbu_2, # of connection points: 3
#     Node 1, Type 0, BuildingBlock: OLANEW_clean_sbu_2, # of connection points: 3
#     Node 2, Type 0, BuildingBlock: OLANEW_clean_sbu_2, # of connection points: 3
#     Node 3, Type 0, BuildingBlock: OLANEW_clean_sbu_2, # of connection points: 3
#     Node 4, Type 0, BuildingBlock: OLANEW_clean_sbu_2, # of connection points: 3
#     Node 5, Type 0, BuildingBlock: OLANEW_clean_sbu_2, # of connection points: 3
#     Node 6, Type 0, BuildingBlock: OLANEW_clean_sbu_2, # of connection points: 3
#     Node 7, Type 0, BuildingBlock: OLANEW_clean_sbu_2, # of connection points: 3
#     Node 8, Type 1, BuildingBlock: MIDCAF_clean_sbu_0, # of connection points: 6
#     Node 9, Type 1, BuildingBlock: MIDCAF_clean_sbu_0, # of connection points: 6
#     Node 10, Type 1, BuildingBlock: MIDCAF_clean_sbu_0, # of connection points: 6
#     Node 11, Type 1, BuildingBlock: MIDCAF_clean_sbu_0, # of connection points: 6
#     Edge 12, Type (0, 1), BuildingBlock: KIFKEQ_clean_linker_1, # of connection points: 2
#     Edge 13, Type (0, 1), BuildingBlock: KIFKEQ_clean_linker_1, # of connection points: 2
#     Edge 14, Type (0, 1), BuildingBlock: KIFKEQ_clean_linker_1, # of connection points: 2
#     Edge 15, Type (0, 1), BuildingBlock: KIFKEQ_clean_linker_1, # of connection points: 2
#     Edge 16, Type (0, 1), BuildingBlock: KIFKEQ_clean_linker_1, # of connection points: 2
#     Edge 17, Type (0, 1), BuildingBlock: KIFKEQ_clean_linker_1, # of connection points: 2
#     Edge 18, Type (0, 1), BuildingBlock: KIFKEQ_clean_linker_1, # of connection points: 2
#     Edge 19, Type (0, 1), BuildingBlock: KIFKEQ_clean_linker_1, # of connection points: 2
#     Edge 20, Type (0, 1), BuildingBlock: KIFKEQ_clean_linker_1, # of connection points: 2
#     Edge 21, Type (0, 1), BuildingBlock: KIFKEQ_clean_linker_1, # of connection points: 2
#     Edge 22, Type (0, 1), BuildingBlock: KIFKEQ_clean_linker_1, # of connection points: 2
#     Edge 23, Type (0, 1), BuildingBlock: KIFKEQ_clean_linker_1, # of connection points: 2
#     Edge 24, Type (0, 1), BuildingBlock: KIFKEQ_clean_linker_1, # of connection points: 2
#     Edge 25, Type (0, 1), BuildingBlock: KIFKEQ_clean_linker_1, # of connection points: 2
#     Edge 26, Type (0, 1), BuildingBlock: KIFKEQ_clean_linker_1, # of connection points: 2
#     Edge 27, Type (0, 1), BuildingBlock: KIFKEQ_clean_linker_1, # of connection points: 2
#     Edge 28, Type (0, 1), BuildingBlock: KIFKEQ_clean_linker_1, # of connection points: 2
#     Edge 29, Type (0, 1), BuildingBlock: KIFKEQ_clean_linker_1, # of connection points: 2
#     Edge 30, Type (0, 1), BuildingBlock: KIFKEQ_clean_linker_1, # of connection points: 2
#     Edge 31, Type (0, 1), BuildingBlock: KIFKEQ_clean_linker_1, # of connection points: 2
#     Edge 32, Type (0, 1), BuildingBlock: KIFKEQ_clean_linker_1, # of connection points: 2
#     Edge 33, Type (0, 1), BuildingBlock: KIFKEQ_clean_linker_1, # of connection points: 2
#     Edge 34, Type (0, 1), BuildingBlock: KIFKEQ_clean_linker_1, # of connection points: 2
#     Edge 35, Type (0, 1), BuildingBlock: KIFKEQ_clean_linker_1, # of connection points: 2
# Relax obj value: 0.058
# Max RMSD: 0.137
# Mean RMSD: 0.094
data_MOF--net-ant--node1-OLANEW_clean_sbu_2--node2-MIDCAF_clean_sbu_0--edge1-KIFKEQ_clean_linker_1
_symmetry_space_group_name_H-M    P1
_symmetry_Int_Tables_number       1
_symmetry_cell_setting            triclinic
loop_
_symmetry_equiv_pos_as_xyz
'x, y, z'
_cell_length_a     31.982193
_cell_length_b     31.745791
_cell_length_c     74.027465
_cell_angle_alpha  92.987816
_cell_angle_beta   93.980613
_cell_angle_gamma 89.985505
loop_
_atom_site_label
_atom_site_type_symbol
_atom_site_fract_x
_atom_site_fract_y
_atom_site_fract_z
_atom_type_partial_charge
O0 O 0.22703 0.15862 0.03749 0.0
Cd1 Cd 0.24924 0.17829 0.06916 0.0
O2 O 0.24325 0.21948 0.02652 0.0
Cd3 Cd 0.24787 0.25924 0.0516 0.0
O4 O 0.23444 0.32029 0.06529 0.0
C5 C 0.21786 0.34878 0.05566 0.0
O6 O 0.20989 0.34036 0.03819 0.0
C7 C 0.23171 0.18113 0.02405 0.0
C8 C 0.2645 0.1047 0.08785 0.0
O9 O 0.22902 0.12346 0.08793 0.0
O10 O 0.29326 0.12119 0.07924 0.0
O11 O 0.12391 0.89769 0.28965 0.0
Cd12 Cd 0.13261 0.93022 0.32039 0.0
O13 O 0.05568 0.89211 0.29013 0.0
Cd14 Cd 0.99263 0.86841 0.28172 0.0
O15 O 0.92839 0.84989 0.2862 0.0
C16 C 0.92087 0.8128 0.29085 0.0
O17 O 0.95164 0.78539 0.29171 0.0
C18 C 0.08893 0.88528 0.28199 0.0
C19 C 0.2067 0.9 0.33724 0.0
O20 O 0.17231 0.87918 0.33693 0.0
O21 O 0.20601 0.93579 0.32997 0.0
O22 O 0.80298 0.63278 0.52861 0.0
Cd23 Cd 0.85483 0.62537 0.55432 0.0
O24 O 0.78961 0.69663 0.53938 0.0
Cd25 Cd 0.75867 0.75871 0.54086 0.0
O26 O 0.73679 0.82406 0.54445 0.0
C27 C 0.69822 0.83305 0.54547 0.0
O28 O 0.67044 0.80235 0.544 0.0
C29 C 0.78308 0.66724 0.5271 0.0
C30 C 0.84569 0.55057 0.57192 0.0
O31 O 0.82582 0.58408 0.57652 0.0
O32 O 0.87002 0.55235 0.55892 0.0
O33 O 0.62102 0.35496 0.78601 0.0
Cd34 Cd 0.63008 0.39027 0.81625 0.0
O35 O 0.55234 0.3543 0.78534 0.0
Cd36 Cd 0.48812 0.33578 0.7759 0.0
O37 O 0.42199 0.32485 0.78029 0.0
C38 C 0.40258 0.29041 0.77601 0.0
O39 O 0.42208 0.25961 0.76755 0.0
C40 C 0.5859 0.34471 0.77785 0.0
C41 C 0.70562 0.3643 0.83343 0.0
O42 O 0.67169 0.3432 0.83421 0.0
O43 O 0.70378 0.39834 0.82483 0.0
O44 O 0.95472 0.76481 0.98289 0.0
Cd45 Cd 0.91901 0.80192 0.95817 0.0
O46 O 0.95201 0.70806 0.96474 0.0
Cd47 Cd 0.96096 0.64144 0.9576 0.0
O48 O 0.97192 0.57667 0.94812 0.0
C49 C 0.9467 0.55701 0.9366 0.0
O50 O 0.91258 0.57603 0.93037 0.0
C51 C 0.96298 0.72595 0.9801 0.0
C52 C 0.96615 0.86668 0.94528 0.0
O53 O 0.94068 0.87423 0.95768 0.0
O54 O 0.9699 0.8284 0.93922 0.0
O55 O 0.74477 0.89137 0.23456 0.0
Cd56 Cd 0.7789 0.93477 0.21374 0.0
O57 O 0.69649 0.86979 0.21364 0.0
Cd58 Cd 0.63691 0.84016 0.20364 0.0
O59 O 0.5756 0.8173 0.19229 0.0
C60 C 0.55476 0.83785 0.18043 0.0
O61 O 0.57065 0.87287 0.17507 0.0
C62 C 0.71211 0.86958 0.22992 0.0
C63 C 0.84056 0.89084 0.19596 0.0
O64 O 0.84868 0.90874 0.21173 0.0
O65 O 0.80318 0.89352 0.18866 0.0
O66 O 0.44926 0.30371 0.48458 0.0
Cd67 Cd 0.41809 0.35245 0.46297 0.0
O68 O 0.43672 0.25306 0.4637 0.0
Cd69 Cd 0.43519 0.18834 0.45227 0.0
O70 O 0.43531 0.12972 0.4356 0.0
C71 C 0.42609 0.09437 0.4416 0.0
O72 O 0.41582 0.09281 0.45844 0.0
C73 C 0.45137 0.2649 0.47955 0.0
C74 C 0.47139 0.41664 0.45376 0.0
O75 O 0.44592 0.42308 0.46624 0.0
O76 O 0.47233 0.37968 0.44595 0.0
O77 O 0.24094 0.34467 0.73102 0.0
Cd78 Cd 0.27705 0.39734 0.71509 0.0
O79 O 0.19296 0.33337 0.70865 0.0
Cd80 Cd 0.13736 0.3044 0.69393 0.0
O81 O 0.07721 0.28042 0.68162 0.0
C82 C 0.055 0.30234 0.67073 0.0
O83 O 0.069 0.33937 0.6667 0.0
C84 C 0.20799 0.32546 0.7245 0.0
C85 C 0.3411 0.36149 0.69595 0.0
O86 O 0.34732 0.37282 0.71279 0.0
O87 O 0.30456 0.36708 0.6882 0.0
Zn88 Zn 0.19748 0.68126 0.14786 0.0
Zn89 Zn 0.13937 0.78292 0.10098 0.0
Zn90 Zn 0.16968 0.73378 0.12459 0.0
C91 C 0.13986 0.70625 0.08284 0.0
C92 C 0.21476 0.81863 0.11231 0.0
O93 O 0.13568 0.74412 0.14969 0.0
O94 O 0.16765 0.70205 0.16906 0.0
C95 C 0.17067 0.6309 0.11848 0.0
O96 O 0.14931 0.6956 0.0992 0.0
O97 O 0.13748 0.74463 0.07938 0.0
O98 O 0.18225 0.82665 0.10253 0.0
O99 O 0.21708 0.78457 0.12113 0.0
O100 O 0.17946 0.62763 0.13522 0.0
O101 O 0.16773 0.66779 0.11191 0.0
O102 O 0.23546 0.75259 0.1315 0.0
O103 O 0.25741 0.69813 0.14701 0.0
C104 C 0.26519 0.73229 0.13986 0.0
O105 O 0.11198 0.76068 0.1351 0.0
O106 O 0.08559 0.79601 0.11206 0.0
C107 C 0.14106 0.73052 0.16581 0.0
C108 C 0.08227 0.78274 0.12768 0.0
Zn109 Zn 0.53376 0.69162 0.35376 0.0
Zn110 Zn 0.62842 0.80324 0.39101 0.0
Zn111 Zn 0.58 0.74922 0.37488 0.0
C112 C 0.55457 0.84467 0.38532 0.0
C113 C 0.67091 0.77784 0.3623 0.0
O114 O 0.5789 0.68963 0.38937 0.0
O115 O 0.5502 0.64336 0.36875 0.0
C116 C 0.48162 0.75905 0.36587 0.0
O117 O 0.54301 0.80605 0.38184 0.0
O118 O 0.59307 0.8538 0.38741 0.0
O119 O 0.67981 0.79578 0.37767 0.0
O120 O 0.63402 0.76214 0.35837 0.0
O121 O 0.47997 0.72217 0.3585 0.0
O122 O 0.51684 0.77531 0.37214 0.0
O123 O 0.60078 0.7446 0.34713 0.0
O124 O 0.55901 0.70027 0.33019 0.0
C125 C 0.5888 0.72656 0.33161 0.0
O126 O 0.60399 0.72011 0.40007 0.0
O127 O 0.62845 0.77814 0.4149 0.0
C128 C 0.5671 0.65163 0.38448 0.0
C129 C 0.61955 0.7394 0.41475 0.0
Zn130 Zn 0.63924 0.27158 0.59769 0.0
Zn131 Zn 0.69247 0.15222 0.63855 0.0
Zn132 Zn 0.66634 0.21269 0.61734 0.0
C133 C 0.76243 0.20179 0.63185 0.0
C134 C 0.65873 0.11178 0.60688 0.0
O135 O 0.61196 0.24217 0.63004 0.0
O136 O 0.58777 0.28669 0.6099 0.0
C137 C 0.71922 0.29513 0.60745 0.0
O138 O 0.73355 0.22443 0.62417 0.0
O139 O 0.75336 0.16687 0.63808 0.0
O140 O 0.66987 0.10371 0.62303 0.0
O141 O 0.65727 0.15032 0.60215 0.0
O142 O 0.68623 0.31102 0.60049 0.0
O143 O 0.71866 0.258 0.61374 0.0
O144 O 0.64049 0.18246 0.59114 0.0
O145 O 0.6324 0.23809 0.57453 0.0
C146 C 0.63114 0.19867 0.57578 0.0
O147 O 0.63555 0.22049 0.6433 0.0
O148 O 0.66341 0.17124 0.6604 0.0
C149 C 0.5841 0.2689 0.62456 0.0
C150 C 0.63983 0.20288 0.65864 0.0
Zn151 Zn 0.01936 0.14972 0.84492 0.0
Zn152 Zn 0.13318 0.24655 0.8808 0.0
Zn153 Zn 0.07581 0.19963 0.86488 0.0
C154 C 0.13752 0.1715 0.898 0.0
C155 C 0.05784 0.28521 0.88758 0.0
O156 O 0.09337 0.19172 0.83671 0.0
O157 O 0.04148 0.15772 0.82075 0.0
C158 C 0.0544 0.10323 0.87343 0.0
O159 O 0.10251 0.16579 0.88847 0.0
O160 O 0.16061 0.20255 0.89545 0.0
O161 O 0.09574 0.28593 0.89357 0.0
O162 O 0.04462 0.25685 0.87548 0.0
O163 O 0.03311 0.09837 0.85843 0.0
O164 O 0.07141 0.13922 0.87837 0.0
O165 O 0.01517 0.23274 0.86449 0.0
O166 O 0.9703 0.1849 0.85174 0.0
C167 C 0.97749 0.22099 0.85934 0.0
O168 O 0.12604 0.21461 0.84637 0.0
O169 O 0.16295 0.26698 0.86045 0.0
C170 C 0.07631 0.1766 0.82147 0.0
C171 C 0.15532 0.24269 0.8466 0.0
H172 H 0.18289 0.41625 0.03864 0.0
H173 H 0.22917 0.37651 0.09127 0.0
H174 H 0.16508 0.48512 0.05224 0.0
H175 H 0.2121 0.44537 0.10475 0.0
H176 H 0.14418 0.55471 0.12795 0.0
H177 H 0.15139 0.4869 0.11168 0.0
H178 H 0.19828 0.54955 0.06672 0.0
H179 H 0.19031 0.61794 0.08305 0.0
C180 C 0.18934 0.42219 0.05311 0.0
C181 C 0.20736 0.39076 0.06389 0.0
C182 C 0.17927 0.46176 0.06087 0.0
C183 C 0.18682 0.47072 0.0796 0.0
C184 C 0.20506 0.43931 0.09032 0.0
C185 C 0.21516 0.39985 0.08258 0.0
C186 C 0.15529 0.55411 0.11444 0.0
C187 C 0.16697 0.59161 0.10682 0.0
C188 C 0.15977 0.51519 0.10517 0.0
C189 C 0.1764 0.51266 0.08809 0.0
C190 C 0.18538 0.55039 0.07987 0.0
C191 C 0.18065 0.5896 0.08917 0.0
H192 H 0.8523 0.86394 0.29325 0.0
H193 H 0.89615 0.73816 0.30369 0.0
H194 H 0.78856 0.85007 0.30813 0.0
H195 H 0.83194 0.72401 0.31826 0.0
H196 H 0.74835 0.7444 0.36696 0.0
H197 H 0.80551 0.74804 0.34688 0.0
H198 H 0.72369 0.81127 0.3081 0.0
H199 H 0.66744 0.80947 0.32887 0.0
C200 C 0.84803 0.83305 0.29843 0.0
C201 C 0.87963 0.80237 0.2975 0.0
C202 C 0.81129 0.82499 0.30687 0.0
C203 C 0.80529 0.78605 0.31458 0.0
C204 C 0.83591 0.7546 0.31277 0.0
C205 C 0.87265 0.76266 0.30432 0.0
C206 C 0.74255 0.75837 0.35398 0.0
C207 C 0.70324 0.77552 0.3491 0.0
C208 C 0.77512 0.76023 0.34241 0.0
C209 C 0.76913 0.77972 0.32578 0.0
C210 C 0.72934 0.79608 0.32079 0.0
C211 C 0.69682 0.79424 0.33243 0.0
H212 H 0.7909 0.53573 0.59746 0.0
H213 H 0.88608 0.47512 0.56669 0.0
H214 H 0.7746 0.46897 0.60979 0.0
H215 H 0.87074 0.40801 0.57958 0.0
H216 H 0.77223 0.29759 0.58082 0.0
H217 H 0.81482 0.35843 0.57517 0.0
H218 H 0.79275 0.41284 0.62843 0.0
H219 H 0.7483 0.35264 0.63348 0.0
C220 C 0.80897 0.50825 0.5936 0.0
C221 C 0.83937 0.51066 0.58089 0.0
C222 C 0.79996 0.46986 0.60086 0.0
C223 C 0.82136 0.43284 0.59572 0.0
C224 C 0.85329 0.43571 0.58368 0.0
C225 C 0.86212 0.4742 0.57631 0.0
C226 C 0.77828 0.32166 0.59161 0.0
C227 C 0.75755 0.32042 0.60763 0.0
C228 C 0.80259 0.35673 0.58839 0.0
C229 C 0.80645 0.39117 0.60118 0.0
C230 C 0.78955 0.38742 0.61809 0.0
C231 C 0.76472 0.35265 0.62116 0.0
H232 H 0.78028 0.40684 0.8395 0.0
H233 H 0.72242 0.28576 0.84506 0.0
H234 H 0.84792 0.37853 0.8503 0.0
H235 H 0.78981 0.25685 0.85486 0.0
H236 H 0.96523 0.29435 0.84278 0.0
H237 H 0.89999 0.33393 0.83972 0.0
H238 H 0.84485 0.25214 0.87665 0.0
H239 H 0.90961 0.2114 0.87868 0.0
C240 C 0.78201 0.37421 0.84309 0.0
C241 C 0.74604 0.34848 0.84135 0.0
C242 C 0.82084 0.35786 0.84918 0.0
C243 C 0.8247 0.31523 0.85342 0.0
C244 C 0.78829 0.29 0.85213 0.0
C245 C 0.74948 0.3065 0.84633 0.0
C246 C 0.93937 0.28573 0.85057 0.0
C247 C 0.94216 0.25014 0.86099 0.0
C248 C 0.90191 0.30839 0.84887 0.0
C249 C 0.8666 0.29596 0.8577 0.0
C250 C 0.87082 0.26201 0.86922 0.0
C251 C 0.90801 0.23893 0.8706 0.0
H252 H 0.90075 0.50541 0.91172 0.0
H253 H 0.01553 0.51078 0.94624 0.0
H254 H 0.91917 0.43457 0.90023 0.0
H255 H 0.03418 0.44114 0.93457 0.0
H256 H 0.04932 0.30635 0.92277 0.0
H257 H 0.01461 0.36847 0.9353 0.0
H258 H 0.9711 0.40071 0.88117 0.0
H259 H 0.0052 0.33747 0.86876 0.0
C260 C 0.92978 0.49147 0.91689 0.0
C261 C 0.95666 0.5137 0.92991 0.0
C262 C 0.94036 0.45101 0.91027 0.0
C263 C 0.97792 0.43204 0.9166 0.0
C264 C 0.00452 0.45433 0.92969 0.0
C265 C 0.99399 0.49453 0.93629 0.0
C266 C 0.03136 0.32621 0.91363 0.0
C267 C 0.0297 0.31738 0.89485 0.0
C268 C 0.01177 0.3619 0.92076 0.0
C269 C 0.9909 0.39004 0.90921 0.0
C270 C 0.98677 0.37957 0.89044 0.0
C271 C 0.00607 0.34336 0.88331 0.0
H272 H 0.91763 0.86598 0.20978 0.0
H273 H 0.83861 0.867 0.16 0.0
H274 H 0.97437 0.83484 0.19301 0.0
H275 H 0.89554 0.83646 0.14331 0.0
H276 H 0.0291 0.84792 0.1213 0.0
H277 H 0.96848 0.86901 0.13777 0.0
H278 H 0.98977 0.76525 0.17265 0.0
H279 H 0.0494 0.74259 0.15549 0.0
C280 C 0.91228 0.85927 0.1953 0.0
C281 C 0.87379 0.86917 0.18617 0.0
C282 C 0.94462 0.84125 0.18576 0.0
C283 C 0.9392 0.83348 0.1669 0.0
C284 C 0.90045 0.84241 0.15784 0.0
C285 C 0.86792 0.85977 0.16741 0.0
C286 C 0.02069 0.82927 0.13236 0.0
C287 C 0.04475 0.7942 0.13743 0.0
C288 C 0.98597 0.84136 0.14175 0.0
C289 C 0.97474 0.81888 0.15651 0.0
C290 C 0.99819 0.78335 0.16143 0.0
C291 C 0.03249 0.77069 0.15175 0.0
H292 H 0.53938 0.41074 0.43337 0.0
H293 H 0.46047 0.50132 0.46006 0.0
H294 H 0.57519 0.46787 0.41994 0.0
H295 H 0.49462 0.55831 0.44595 0.0
H296 H 0.56369 0.65884 0.42145 0.0
H297 H 0.55228 0.602 0.44158 0.0
H298 H 0.5572 0.51116 0.39615 0.0
H299 H 0.57118 0.56748 0.37657 0.0
C300 C 0.52989 0.44292 0.43647 0.0
C301 C 0.49674 0.45149 0.44758 0.0
C302 C 0.55027 0.47573 0.42869 0.0
C303 C 0.53745 0.51786 0.43155 0.0
C304 C 0.50581 0.52647 0.44353 0.0
C305 C 0.4859 0.49368 0.45154 0.0
C306 C 0.56424 0.62656 0.41601 0.0
C307 C 0.56866 0.61764 0.39746 0.0
C308 C 0.55686 0.59395 0.42746 0.0
C309 C 0.55321 0.55181 0.42052 0.0
C310 C 0.56025 0.54293 0.40216 0.0
C311 C 0.56797 0.57538 0.39082 0.0
H312 H -0.00066 0.34167 0.64743 0.0
H313 H 0.01608 0.22835 0.67699 0.0
H314 H 0.92974 0.31736 0.63582 0.0
H315 H 0.94634 0.20452 0.6657 0.0
H316 H 0.83371 0.1552 0.63111 0.0
H317 H 0.90566 0.17928 0.63859 0.0
H318 H 0.86106 0.30679 0.64723 0.0
H319 H 0.78925 0.28222 0.63989 0.0
C320 C 0.98824 0.31155 0.65143 0.0
C321 C 0.01329 0.28699 0.66317 0.0
C322 C 0.94825 0.29772 0.64484 0.0
C323 C 0.93242 0.25898 0.64981 0.0
C324 C 0.95775 0.23421 0.66136 0.0
C325 C 0.99768 0.24802 0.66795 0.0
C326 C 0.83948 0.18845 0.63437 0.0
C327 C 0.80609 0.21715 0.63451 0.0
C328 C 0.88061 0.20222 0.63875 0.0
C329 C 0.88919 0.24497 0.64355 0.0
C330 C 0.85574 0.2738 0.64327 0.0
C331 C 0.81461 0.25992 0.63888 0.0
H332 H 0.34357 0.35246 0.65924 0.0
H333 H 0.41613 0.33031 0.7093 0.0
H334 H 0.40186 0.32709 0.64206 0.0
H335 H 0.47425 0.3043 0.69196 0.0
H336 H 0.54799 0.22172 0.64941 0.0
H337 H 0.48884 0.24165 0.6674 0.0
H338 H 0.47716 0.35886 0.64049 0.0
H339 H 0.53723 0.34012 0.62325 0.0
C340 C 0.37177 0.34179 0.66657 0.0
C341 C 0.37541 0.34363 0.68561 0.0
C342 C 0.4051 0.3274 0.65673 0.0
C343 C 0.44242 0.31394 0.66574 0.0
C344 C 0.44565 0.31437 0.68475 0.0
C345 C 0.41253 0.32944 0.69462 0.0
C346 C 0.53334 0.25209 0.64765 0.0
C347 C 0.54792 0.27979 0.63526 0.0
C348 C 0.49936 0.26329 0.65781 0.0
C349 C 0.4786 0.30174 0.65527 0.0
C350 C 0.49254 0.32892 0.6426 0.0
C351 C 0.52692 0.31816 0.63275 0.0
H352 H 0.51301 0.76715 0.18877 0.0
H353 H 0.50182 0.87433 0.1551 0.0
H354 H 0.44395 0.74276 0.17688 0.0
H355 H 0.43278 0.84936 0.14291 0.0
H356 H 0.29056 0.8145 0.14461 0.0
H357 H 0.36161 0.84081 0.15265 0.0
H358 H 0.40809 0.71299 0.14936 0.0
H359 H 0.33714 0.68713 0.14138 0.0
C360 C 0.49594 0.78539 0.17873 0.0
C361 C 0.51298 0.8227 0.1729 0.0
C362 C 0.45642 0.77123 0.1718 0.0
C363 C 0.43292 0.79396 0.15883 0.0
C364 C 0.44994 0.83129 0.15297 0.0
C365 C 0.48958 0.84548 0.15991 0.0
C366 C 0.31619 0.79237 0.14499 0.0
C367 C 0.30843 0.74897 0.14217 0.0
C368 C 0.35688 0.80729 0.14975 0.0
C369 C 0.39051 0.77893 0.15184 0.0
C370 C 0.38281 0.73562 0.14823 0.0
C371 C 0.34223 0.72082 0.14354 0.0
H372 H 0.35247 0.22006 0.77041 0.0
H373 H 0.35679 0.34548 0.79612 0.0
H374 H 0.28609 0.20696 0.78358 0.0
H375 H 0.29157 0.33209 0.80965 0.0
H376 H 0.16467 0.31075 0.82671 0.0
H377 H 0.21868 0.32167 0.80564 0.0
H378 H 0.26217 0.1941 0.8125 0.0
H379 H 0.20659 0.18298 0.83282 0.0
C380 C 0.33914 0.24495 0.77875 0.0
C381 C 0.36018 0.2837 0.78233 0.0
C382 C 0.30118 0.23734 0.7864 0.0
C383 C 0.28339 0.26832 0.79779 0.0
C384 C 0.30376 0.30762 0.80075 0.0
C385 C 0.34152 0.31524 0.79307 0.0
C386 C 0.18516 0.28482 0.82324 0.0
C387 C 0.18165 0.24606 0.83124 0.0
C388 C 0.21641 0.29113 0.81137 0.0
C389 C 0.24558 0.25913 0.80768 0.0
C390 C 0.2403 0.21945 0.81492 0.0
C391 C 0.20852 0.21298 0.82658 0.0
H392 H 0.224 0.81747 0.34218 0.0
H393 H 0.27913 0.94182 0.34914 0.0
H394 H 0.2906 0.78648 0.35167 0.0
H395 H 0.34565 0.91116 0.35994 0.0
H396 H 0.46926 0.83811 0.3543 0.0
H397 H 0.40261 0.87465 0.34986 0.0
H398 H 0.34046 0.77275 0.37415 0.0
H399 H 0.40689 0.73534 0.37727 0.0
C400 C 0.25025 0.83827 0.34617 0.0
C401 C 0.2464 0.88203 0.34483 0.0
C402 C 0.28859 0.82052 0.3518 0.0
C403 C 0.32399 0.84614 0.35667 0.0
C404 C 0.31955 0.89021 0.35597 0.0
C405 C 0.28131 0.9079 0.34991 0.0
C406 C 0.44128 0.82402 0.35888 0.0
C407 C 0.4429 0.784 0.36604 0.0
C408 C 0.40298 0.84499 0.35644 0.0
C409 C 0.36559 0.82655 0.36137 0.0
C410 C 0.3681 0.7875 0.36961 0.0
C411 C 0.4062 0.76616 0.37162 0.0
H412 H 0.74619 0.90472 0.54667 0.0
H413 H 0.62094 0.86116 0.55428 0.0
H414 H 0.72717 0.97563 0.55743 0.0
H415 H 0.602 0.93221 0.56501 0.0
H416 H 0.62363 0.03666 0.61276 0.0
H417 H 0.6261 0.97179 0.59388 0.0
H418 H 0.6811 0.03973 0.55233 0.0
H419 H 0.67826 0.10524 0.57137 0.0
C420 C 0.71441 0.91039 0.55037 0.0
C421 C 0.68527 0.8771 0.54986 0.0
C422 C 0.7034 0.95116 0.55637 0.0
C423 C 0.66312 0.95949 0.56213 0.0
C424 C 0.63337 0.92667 0.56077 0.0
C425 C 0.64426 0.88597 0.55462 0.0
C426 C 0.63511 0.038 0.59937 0.0
C427 C 0.65097 0.07587 0.59356 0.0
C428 C 0.63639 1.00084 0.58851 0.0
C429 C 0.65417 1.00054 0.57168 0.0
C430 C 0.66755 0.039 0.56532 0.0
C431 C 0.66557 0.07651 0.57612 0.0
H432 H 0.32958 0.04923 0.08444 0.0
H433 H 0.21376 0.06743 0.11052 0.0
H434 H 0.33459 0.97764 0.09514 0.0
H435 H 0.21862 0.99627 0.12107 0.0
H436 H 0.22994 0.87242 0.14148 0.0
H437 H 0.25576 0.94452 0.13987 0.0
H438 H 0.2918 0.91444 0.08554 0.0
H439 H 0.26639 0.84256 0.08738 0.0
C440 C 0.30563 0.03829 0.09274 0.0
C441 C 0.27097 0.06383 0.09644 0.0
C442 C 0.30851 0.99727 0.09885 0.0
C443 C 0.27704 0.98117 0.10895 0.0
C444 C 0.24379 0.00777 0.11356 0.0
C445 C 0.24073 0.04851 0.10734 0.0
C446 C 0.24575 0.88065 0.12967 0.0
C447 C 0.24674 0.85196 0.11464 0.0
C448 C 0.25991 0.92209 0.1286 0.0
C449 C 0.275 0.93548 0.11243 0.0
C450 C 0.28057 0.90523 0.09823 0.0
C451 C 0.26626 0.86388 0.0993 0.0
H452 H 0.42668 0.01306 0.45219 0.0
H453 H 0.4371 0.08711 0.40534 0.0
H454 H 0.44668 0.95012 0.43463 0.0
H455 H 0.45594 0.02396 0.38765 0.0
H456 H 0.56326 0.92712 0.37886 0.0
H457 H 0.52082 0.98542 0.38946 0.0
H458 H 0.43401 0.89744 0.40941 0.0
H459 H 0.47762 0.83868 0.39907 0.0
C460 C 0.43225 0.01573 0.43803 0.0
C461 C 0.43123 0.0552 0.43027 0.0
C462 C 0.44337 0.97954 0.4279 0.0
C463 C 0.45343 0.98212 0.40979 0.0
C464 C 0.44916 0.02108 0.40167 0.0
C465 C 0.43836 0.05726 0.41181 0.0
C466 C 0.53461 0.92018 0.38515 0.0
C467 C 0.52382 0.87848 0.38825 0.0
C468 C 0.51002 0.95361 0.39111 0.0
C469 C 0.47411 0.94613 0.40041 0.0
C470 C 0.46176 0.90419 0.40246 0.0
C471 C 0.48645 0.87058 0.39641 0.0
H472 H 0.02919 0.86048 0.92212 0.0
H473 H 0.95394 0.95141 0.95065 0.0
H474 H 0.06135 0.91733 0.90697 0.0
H475 H 0.98468 0.00799 0.93504 0.0
H476 H 0.05329 0.10798 0.91017 0.0
H477 H 0.04292 0.05048 0.93002 0.0
H478 H 0.03993 0.96195 0.88352 0.0
H479 H 0.05346 0.01928 0.86417 0.0
C480 C 0.01968 0.89264 0.92523 0.0
C481 C 0.98872 0.90139 0.93746 0.0
C482 C 0.03798 0.92526 0.91648 0.0
C483 C 0.02543 0.96736 0.91961 0.0
C484 C 0.99568 0.97615 0.93243 0.0
C485 C 0.97772 0.94359 0.94131 0.0
C486 C 0.05286 0.07601 0.90447 0.0
C487 C 0.05534 0.06807 0.88577 0.0
C488 C 0.04574 0.04304 0.91572 0.0
C489 C 0.04015 0.00142 0.90841 0.0
C490 C 0.04462 0.99335 0.88976 0.0
C491 C 0.05212 0.02629 0.8786 0.0
H492 H 0.17461 0.11963 0.01226 0.0
H493 H 0.26627 0.20412 0.9936 0.0
H494 H 0.15166 0.0992 0.98066 0.0
H495 H 0.24408 0.18325 0.96231 0.0
H496 H 0.08935 0.16201 0.92604 0.0
H497 H 0.11469 0.1475 0.95687 0.0
H498 H 0.23768 0.12142 0.93853 0.0
H499 H 0.21165 0.13458 0.90747 0.0
C500 C 0.19053 0.13298 0.00143 0.0
C501 C 0.22194 0.16375 0.00534 0.0
C502 C 0.17738 0.12132 0.98341 0.0
C503 C 0.19624 0.13945 0.96906 0.0
C504 C 0.22937 0.16825 0.97306 0.0
C505 C 0.24182 0.18053 0.99099 0.0
C506 C 0.12084 0.14996 0.92834 0.0
C507 C 0.14818 0.14808 0.9143 0.0
C508 C 0.1356 0.14226 0.94608 0.0
C509 C 0.17823 0.13365 0.9501 0.0
C510 C 0.20469 0.1281 0.93578 0.0
C511 C 0.18977 0.13533 0.91802 0.0
H512 H 0.02952 0.88498 0.25322 0.0
H513 H 0.14771 0.83023 0.27137 0.0
H514 H 0.03216 0.84529 0.22381 0.0
H515 H 0.14993 0.79054 0.24242 0.0
H516 H 0.12443 0.69486 0.19707 0.0
H517 H 0.10313 0.73075 0.22487 0.0
H518 H 0.08882 0.84703 0.19744 0.0
H519 H 0.11131 0.81137 0.16959 0.0
C520 C 0.05561 0.86403 0.25102 0.0
C521 C 0.08834 0.86045 0.26455 0.0
C522 C 0.05721 0.84163 0.23422 0.0
C523 C 0.09105 0.81466 0.23099 0.0
C524 C 0.12323 0.8107 0.24466 0.0
C525 C 0.12209 0.83361 0.26118 0.0
C526 C 0.11592 0.72788 0.19683 0.0
C527 C 0.11968 0.75033 0.18116 0.0
C528 C 0.10365 0.74833 0.21272 0.0
C529 C 0.09466 0.79162 0.21327 0.0
C530 C 0.09532 0.81352 0.19729 0.0
C531 C 0.10814 0.79311 0.18137 0.0
H532 H 0.73738 0.60664 0.50678 0.0
H533 H 0.76461 0.7401 0.51037 0.0
H534 H 0.68935 0.61643 0.47996 0.0
H535 H 0.71596 0.75004 0.48435 0.0
H536 H 0.65982 0.66385 0.41877 0.0
H537 H 0.69467 0.64052 0.44717 0.0
H538 H 0.63818 0.74406 0.47672 0.0
H539 H 0.60423 0.76741 0.44853 0.0
C540 C 0.73266 0.6381 0.50202 0.0
C541 C 0.75352 0.67292 0.51114 0.0
C542 C 0.70525 0.64363 0.48671 0.0
C543 C 0.69816 0.6841 0.48035 0.0
C544 C 0.71965 0.71864 0.48931 0.0
C545 C 0.74722 0.71307 0.50441 0.0
C546 C 0.65378 0.68053 0.43146 0.0
C547 C 0.62981 0.71759 0.43154 0.0
C548 C 0.67374 0.66732 0.44768 0.0
C549 C 0.66986 0.69114 0.46406 0.0
C550 C 0.64244 0.72566 0.46424 0.0
C551 C 0.62281 0.73885 0.44815 0.0
H552 H 0.6412 0.28512 0.76789 0.0
H553 H 0.53004 0.35026 0.74815 0.0
H554 H 0.64496 0.2483 0.73834 0.0
H555 H 0.53429 0.31361 0.7182 0.0
H556 H 0.61589 0.28477 0.66549 0.0
H557 H 0.59312 0.31633 0.69403 0.0
H558 H 0.60017 0.19455 0.71733 0.0
H559 H 0.62154 0.16268 0.68871 0.0
C560 C 0.61732 0.29122 0.75724 0.0
C561 C 0.58523 0.32035 0.7603 0.0
C562 C 0.61934 0.26998 0.74037 0.0
C563 C 0.58979 0.27799 0.72605 0.0
C564 C 0.55733 0.30684 0.72908 0.0
C565 C 0.55477 0.32752 0.74618 0.0
C566 C 0.61116 0.26449 0.67649 0.0
C567 C 0.62026 0.22118 0.67481 0.0
C568 C 0.59819 0.28259 0.69282 0.0
C569 C 0.5951 0.25784 0.70786 0.0
C570 C 0.60249 0.2143 0.70594 0.0
C571 C 0.61481 0.19614 0.68958 0.0
H572 H 0.02461 0.66679 0.97657 0.0
H573 H 0.95348 0.73417 0.01617 0.0
H574 H 0.06913 0.63717 0.00105 0.0
H575 H 0.99751 0.70469 0.04052 0.0
H576 H 0.07251 0.65494 0.08339 0.0
H577 H 0.0249 0.6402 0.0565 0.0
H578 H 0.12096 0.67871 0.02257 0.0
H579 H 0.16789 0.69387 0.04939 0.0
C580 C 0.01759 0.67407 0.99048 0.0
C581 C 0.98562 0.70273 0.99452 0.0
C582 C 0.04313 0.65723 0.00447 0.0
C583 C 0.03665 0.66828 0.02271 0.0
C584 C 0.00289 0.69484 0.02664 0.0
C585 C 0.97794 0.71218 0.0127 0.0
C586 C 0.08427 0.65754 0.07011 0.0
C587 C 0.12355 0.67599 0.06839 0.0
C588 C 0.05684 0.64966 0.05472 0.0
C589 C 0.06883 0.65947 0.03749 0.0
C590 C 0.11069 0.67094 0.03563 0.0
C591 C 0.13778 0.6794 0.05101 0.0
H592 H 0.6715 0.79308 0.22592 0.0
H593 H 0.70853 0.89358 0.26533 0.0
H594 H 0.63927 0.75533 0.24958 0.0
H595 H 0.67641 0.85627 0.28876 0.0
H596 H 0.5746 0.8042 0.3205 0.0
H597 H 0.60198 0.83688 0.29461 0.0
H598 H 0.66377 0.72035 0.27986 0.0
H599 H 0.6356 0.68738 0.30593 0.0
C600 C 0.67222 0.80731 0.23955 0.0
C601 C 0.69184 0.84655 0.24376 0.0
C602 C 0.6543 0.78551 0.25309 0.0
C603 C 0.65522 0.80301 0.27095 0.0
C604 C 0.67495 0.84219 0.27508 0.0
C605 C 0.6934 0.8635 0.26168 0.0
C606 C 0.59376 0.78555 0.3116 0.0
C607 C 0.60373 0.74371 0.31521 0.0
C608 C 0.60946 0.8042 0.29685 0.0
C609 C 0.63537 0.78127 0.28538 0.0
C610 C 0.64379 0.73863 0.28851 0.0
C611 C 0.62794 0.71987 0.30337 0.0
H612 H 0.44578 0.26377 0.51583 0.0
H613 H 0.50375 0.19949 0.47129 0.0
H614 H 0.48774 0.22267 0.53721 0.0
H615 H 0.5465 0.15842 0.49282 0.0
H616 H 0.55955 0.15313 0.57503 0.0
H617 H 0.50871 0.15017 0.54874 0.0
H618 H 0.60475 0.19019 0.51513 0.0
H619 H 0.65495 0.19385 0.54142 0.0
C620 C 0.46679 0.24002 0.51062 0.0
C621 C 0.47159 0.23483 0.49195 0.0
C622 C 0.49051 0.21609 0.52284 0.0
C623 C 0.52026 0.18705 0.51669 0.0
C624 C 0.52356 0.18029 0.49792 0.0
C625 C 0.49907 0.20372 0.48562 0.0
C626 C 0.57036 0.15854 0.56178 0.0
C627 C 0.61089 0.1742 0.5602 0.0
C628 C 0.54114 0.15736 0.54677 0.0
C629 C 0.55253 0.17104 0.53001 0.0
C630 C 0.59496 0.17955 0.52786 0.0
C631 C 0.62388 0.18142 0.54291 0.0
H632 H 0.12445 0.3049 0.72432 0.0
H633 H 0.24559 0.27967 0.75095 0.0
H634 H 0.09151 0.2594 0.74454 0.0
H635 H 0.2124 0.23669 0.77206 0.0
H636 H 0.14736 0.14916 0.80616 0.0
H637 H 0.17784 0.17733 0.77981 0.0
H638 H 0.07381 0.26412 0.77411 0.0
H639 H 0.04291 0.23395 0.79957 0.0
C640 C 0.14424 0.28875 0.73414 0.0
C641 C 0.18776 0.29526 0.73573 0.0
C642 C 0.12521 0.26338 0.74611 0.0
C643 C 0.14913 0.24478 0.76026 0.0
C644 C 0.19287 0.25023 0.76139 0.0
C645 C 0.21192 0.2752 0.74932 0.0
C646 C 0.13089 0.17359 0.79888 0.0
C647 C 0.09291 0.18939 0.80464 0.0
C648 C 0.14837 0.19007 0.78392 0.0
C649 C 0.12846 0.22324 0.77472 0.0
C650 C 0.08976 0.23804 0.78043 0.0
C651 C 0.07206 0.22102 0.79512 0.0
loop_
_geom_bond_atom_site_label_1
_geom_bond_atom_site_label_2
_geom_bond_distance
_geom_bond_site_symmetry_2
_ccdc_geom_bond_type
O0 Cd1 2.300 . S
O0 C7 1.275 . S
Cd1 O0 2.300 . S
Cd1 O9 2.381 . S
Cd1 O10 2.378 . S
O2 Cd3 2.385 . S
O2 C7 1.255 . S
Cd3 O2 2.385 . S
Cd3 O4 2.317 . S
O4 Cd3 2.317 . S
O4 C5 1.232 . S
C5 O4 1.232 . S
C5 O6 1.218 . S
O6 C5 1.218 . S
C7 O0 1.275 . S
C7 O2 1.255 . S
C8 O9 1.258 . S
C8 O10 1.256 . S
O9 Cd1 2.381 . S
O9 C8 1.258 . S
O10 Cd1 2.378 . S
O10 C8 1.256 . S
O11 Cd12 2.300 . S
O11 C18 1.275 . S
Cd12 O11 2.300 . S
Cd12 O20 2.381 . S
Cd12 O21 2.378 . S
O13 Cd14 2.385 . S
O13 C18 1.255 . S
Cd14 O13 2.385 . S
Cd14 O15 2.317 . S
O15 Cd14 2.317 . S
O15 C16 1.241 . S
C16 O15 1.241 . S
C16 O17 1.214 1_455 S
O17 C16 1.214 1_655 S
C18 O11 1.275 . S
C18 O13 1.255 . S
C19 O20 1.258 . S
C19 O21 1.256 . S
O20 Cd12 2.381 . S
O20 C19 1.258 . S
O21 Cd12 2.378 . S
O21 C19 1.256 . S
O22 Cd23 2.300 . S
O22 C29 1.275 . S
Cd23 O22 2.300 . S
Cd23 O31 2.381 . S
Cd23 O32 2.378 . S
O24 Cd25 2.385 . S
O24 C29 1.255 . S
Cd25 O24 2.385 . S
Cd25 O26 2.317 . S
O26 Cd25 2.317 . S
O26 C27 1.232 . S
C27 O26 1.232 . S
C27 O28 1.218 . S
O28 C27 1.218 . S
C29 O22 1.275 . S
C29 O24 1.255 . S
C30 O31 1.258 . S
C30 O32 1.256 . S
O31 Cd23 2.381 . S
O31 C30 1.258 . S
O32 Cd23 2.378 . S
O32 C30 1.256 . S
O33 Cd34 2.300 . S
O33 C40 1.275 . S
Cd34 O33 2.300 . S
Cd34 O42 2.381 . S
Cd34 O43 2.378 . S
O35 Cd36 2.385 . S
O35 C40 1.255 . S
Cd36 O35 2.385 . S
Cd36 O37 2.317 . S
O37 Cd36 2.317 . S
O37 C38 1.232 . S
C38 O37 1.232 . S
C38 O39 1.218 . S
O39 C38 1.218 . S
C40 O33 1.275 . S
C40 O35 1.255 . S
C41 O42 1.258 . S
C41 O43 1.256 . S
O42 Cd34 2.381 . S
O42 C41 1.258 . S
O43 Cd34 2.378 . S
O43 C41 1.256 . S
O44 Cd45 2.300 . S
O44 C51 1.275 . S
Cd45 O44 2.300 . S
Cd45 O53 2.381 . S
Cd45 O54 2.378 . S
O46 Cd47 2.385 . S
O46 C51 1.255 . S
Cd47 O46 2.385 . S
Cd47 O48 2.317 . S
O48 Cd47 2.317 . S
O48 C49 1.232 . S
C49 O48 1.232 . S
C49 O50 1.218 . S
O50 C49 1.218 . S
C51 O44 1.275 . S
C51 O46 1.255 . S
C52 O53 1.258 . S
C52 O54 1.256 . S
O53 Cd45 2.381 . S
O53 C52 1.258 . S
O54 Cd45 2.378 . S
O54 C52 1.256 . S
O55 Cd56 2.300 . S
O55 C62 1.275 . S
Cd56 O55 2.300 . S
Cd56 O64 2.381 . S
Cd56 O65 2.378 . S
O57 Cd58 2.385 . S
O57 C62 1.255 . S
Cd58 O57 2.385 . S
Cd58 O59 2.317 . S
O59 Cd58 2.317 . S
O59 C60 1.232 . S
C60 O59 1.232 . S
C60 O61 1.218 . S
O61 C60 1.218 . S
C62 O55 1.275 . S
C62 O57 1.255 . S
C63 O64 1.258 . S
C63 O65 1.256 . S
O64 Cd56 2.381 . S
O64 C63 1.258 . S
O65 Cd56 2.378 . S
O65 C63 1.256 . S
O66 Cd67 2.300 . S
O66 C73 1.275 . S
Cd67 O66 2.300 . S
Cd67 O75 2.381 . S
Cd67 O76 2.378 . S
O68 Cd69 2.385 . S
O68 C73 1.255 . S
Cd69 O68 2.385 . S
Cd69 O70 2.317 . S
O70 Cd69 2.317 . S
O70 C71 1.232 . S
C71 O70 1.232 . S
C71 O72 1.218 . S
O72 C71 1.218 . S
C73 O66 1.275 . S
C73 O68 1.255 . S
C74 O75 1.258 . S
C74 O76 1.256 . S
O75 Cd67 2.381 . S
O75 C74 1.258 . S
O76 Cd67 2.378 . S
O76 C74 1.256 . S
O77 Cd78 2.300 . S
O77 C84 1.275 . S
Cd78 O77 2.300 . S
Cd78 O86 2.381 . S
Cd78 O87 2.378 . S
O79 Cd80 2.385 . S
O79 C84 1.255 . S
Cd80 O79 2.385 . S
Cd80 O81 2.317 . S
O81 Cd80 2.317 . S
O81 C82 1.232 . S
C82 O81 1.232 . S
C82 O83 1.218 . S
O83 C82 1.218 . S
C84 O77 1.275 . S
C84 O79 1.255 . S
C85 O86 1.258 . S
C85 O87 1.256 . S
O86 Cd78 2.381 . S
O86 C85 1.258 . S
O87 Cd78 2.378 . S
O87 C85 1.256 . S
Zn88 O94 1.920 . S
Zn88 O100 1.898 . S
Zn88 O103 1.905 . S
Zn89 O97 1.905 . S
Zn89 O98 1.898 . S
Zn89 O106 1.920 . S
Zn90 O93 2.080 . S
Zn90 O96 2.114 . S
Zn90 O99 2.120 . S
Zn90 O101 2.120 . S
Zn90 O102 2.114 . S
Zn90 O105 2.080 . S
C91 O96 1.166 . S
C91 O97 1.182 . S
C92 O98 1.167 . S
C92 O99 1.299 . S
O93 Zn90 2.080 . S
O93 C107 1.305 . S
O94 Zn88 1.920 . S
O94 C107 1.234 . S
C95 O100 1.167 . S
C95 O101 1.299 . S
O96 Zn90 2.114 . S
O96 C91 1.166 . S
O97 Zn89 1.905 . S
O97 C91 1.182 . S
O98 Zn89 1.898 . S
O98 C92 1.167 . S
O99 Zn90 2.120 . S
O99 C92 1.299 . S
O100 Zn88 1.898 . S
O100 C95 1.167 . S
O101 Zn90 2.120 . S
O101 C95 1.299 . S
O102 Zn90 2.114 . S
O102 C104 1.166 . S
O103 Zn88 1.905 . S
O103 C104 1.182 . S
C104 O102 1.166 . S
C104 O103 1.182 . S
O105 Zn90 2.080 . S
O105 C108 1.305 . S
O106 Zn89 1.920 . S
O106 C108 1.234 . S
C107 O93 1.305 . S
C107 O94 1.234 . S
C108 O105 1.305 . S
C108 O106 1.234 . S
Zn109 O115 1.920 . S
Zn109 O121 1.898 . S
Zn109 O124 1.905 . S
Zn110 O118 1.905 . S
Zn110 O119 1.898 . S
Zn110 O127 1.920 . S
Zn111 O114 2.080 . S
Zn111 O117 2.114 . S
Zn111 O120 2.120 . S
Zn111 O122 2.120 . S
Zn111 O123 2.114 . S
Zn111 O126 2.080 . S
C112 O117 1.166 . S
C112 O118 1.182 . S
C113 O119 1.167 . S
C113 O120 1.299 . S
O114 Zn111 2.080 . S
O114 C128 1.305 . S
O115 Zn109 1.920 . S
O115 C128 1.234 . S
C116 O121 1.167 . S
C116 O122 1.299 . S
O117 Zn111 2.114 . S
O117 C112 1.166 . S
O118 Zn110 1.905 . S
O118 C112 1.182 . S
O119 Zn110 1.898 . S
O119 C113 1.167 . S
O120 Zn111 2.120 . S
O120 C113 1.299 . S
O121 Zn109 1.898 . S
O121 C116 1.167 . S
O122 Zn111 2.120 . S
O122 C116 1.299 . S
O123 Zn111 2.114 . S
O123 C125 1.166 . S
O124 Zn109 1.905 . S
O124 C125 1.182 . S
C125 O123 1.166 . S
C125 O124 1.182 . S
O126 Zn111 2.080 . S
O126 C129 1.305 . S
O127 Zn110 1.920 . S
O127 C129 1.234 . S
C128 O114 1.305 . S
C128 O115 1.234 . S
C129 O126 1.305 . S
C129 O127 1.234 . S
Zn130 O136 1.920 . S
Zn130 O142 1.898 . S
Zn130 O145 1.905 . S
Zn131 O139 1.905 . S
Zn131 O140 1.898 . S
Zn131 O148 1.920 . S
Zn132 O135 2.080 . S
Zn132 O138 2.114 . S
Zn132 O141 2.120 . S
Zn132 O143 2.120 . S
Zn132 O144 2.114 . S
Zn132 O147 2.080 . S
C133 O138 1.166 . S
C133 O139 1.182 . S
C134 O140 1.167 . S
C134 O141 1.299 . S
O135 Zn132 2.080 . S
O135 C149 1.305 . S
O136 Zn130 1.920 . S
O136 C149 1.234 . S
C137 O142 1.167 . S
C137 O143 1.299 . S
O138 Zn132 2.114 . S
O138 C133 1.166 . S
O139 Zn131 1.905 . S
O139 C133 1.182 . S
O140 Zn131 1.898 . S
O140 C134 1.167 . S
O141 Zn132 2.120 . S
O141 C134 1.299 . S
O142 Zn130 1.898 . S
O142 C137 1.167 . S
O143 Zn132 2.120 . S
O143 C137 1.299 . S
O144 Zn132 2.114 . S
O144 C146 1.166 . S
O145 Zn130 1.905 . S
O145 C146 1.182 . S
C146 O144 1.166 . S
C146 O145 1.182 . S
O147 Zn132 2.080 . S
O147 C150 1.305 . S
O148 Zn131 1.920 . S
O148 C150 1.234 . S
C149 O135 1.305 . S
C149 O136 1.234 . S
C150 O147 1.305 . S
C150 O148 1.234 . S
Zn151 O157 1.920 . S
Zn151 O163 1.898 . S
Zn151 O166 1.905 . S
Zn152 O160 1.905 . S
Zn152 O161 1.898 . S
Zn152 O169 1.920 . S
Zn153 O156 2.080 . S
Zn153 O159 2.114 . S
Zn153 O162 2.120 . S
Zn153 O164 2.120 . S
Zn153 O165 2.114 . S
Zn153 O168 2.080 . S
C154 O159 1.166 . S
C154 O160 1.182 . S
C155 O161 1.167 . S
C155 O162 1.299 . S
O156 Zn153 2.080 . S
O156 C170 1.305 . S
O157 Zn151 1.920 . S
O157 C170 1.234 . S
C158 O163 1.167 . S
C158 O164 1.299 . S
O159 Zn153 2.114 . S
O159 C154 1.166 . S
O160 Zn152 1.905 . S
O160 C154 1.182 . S
O161 Zn152 1.898 . S
O161 C155 1.167 . S
O162 Zn153 2.120 . S
O162 C155 1.299 . S
O163 Zn151 1.898 . S
O163 C158 1.167 . S
O164 Zn153 2.120 . S
O164 C158 1.299 . S
O165 Zn153 2.114 . S
O165 C167 1.166 . S
O166 Zn151 1.905 . S
O166 C167 1.182 . S
C167 O165 1.166 . S
C167 O166 1.182 . S
O168 Zn153 2.080 . S
O168 C171 1.305 . S
O169 Zn152 1.920 . S
O169 C171 1.234 . S
C170 O156 1.305 . S
C170 O157 1.234 . S
C171 O168 1.305 . S
C171 O169 1.234 . S
H172 C180 0.950 . S
H173 C185 0.950 . S
H174 C182 0.950 . S
H175 C184 0.950 . S
H176 C186 0.950 . S
H177 C188 0.950 . S
H178 C190 0.950 . S
H179 C191 0.950 . S
C180 H172 0.950 . S
C180 C181 1.386 . S
C180 C182 1.391 . S
C181 C180 1.386 . S
C181 C185 1.393 . S
C182 H174 0.950 . S
C182 C180 1.391 . S
C182 C183 1.400 . S
C183 C182 1.400 . S
C183 C184 1.398 . S
C183 C189 1.491 . S
C184 H175 0.950 . S
C184 C183 1.398 . S
C184 C185 1.391 . S
C185 H173 0.950 . S
C185 C181 1.393 . S
C185 C184 1.391 . S
C186 H176 0.950 . S
C186 C187 1.386 . S
C186 C188 1.391 . S
C187 C186 1.386 . S
C187 C191 1.393 . S
C188 H177 0.950 . S
C188 C186 1.391 . S
C188 C189 1.400 . S
C189 C183 1.491 . S
C189 C188 1.400 . S
C189 C190 1.398 . S
C190 H178 0.950 . S
C190 C189 1.398 . S
C190 C191 1.391 . S
C191 H179 0.950 . S
C191 C187 1.393 . S
C191 C190 1.391 . S
H192 C200 0.950 . S
H193 C205 0.950 . S
H194 C202 0.950 . S
H195 C204 0.950 . S
H196 C206 0.950 . S
H197 C208 0.950 . S
H198 C210 0.950 . S
H199 C211 0.950 . S
C200 H192 0.950 . S
C200 C201 1.386 . S
C200 C202 1.391 . S
C201 C200 1.386 . S
C201 C205 1.393 . S
C202 H194 0.950 . S
C202 C200 1.391 . S
C202 C203 1.400 . S
C203 C202 1.400 . S
C203 C204 1.398 . S
C203 C209 1.491 . S
C204 H195 0.950 . S
C204 C203 1.398 . S
C204 C205 1.391 . S
C205 H193 0.950 . S
C205 C201 1.393 . S
C205 C204 1.391 . S
C206 H196 0.950 . S
C206 C207 1.386 . S
C206 C208 1.391 . S
C207 C206 1.386 . S
C207 C211 1.393 . S
C208 H197 0.950 . S
C208 C206 1.391 . S
C208 C209 1.400 . S
C209 C203 1.491 . S
C209 C208 1.400 . S
C209 C210 1.398 . S
C210 H198 0.950 . S
C210 C209 1.398 . S
C210 C211 1.391 . S
C211 H199 0.950 . S
C211 C207 1.393 . S
C211 C210 1.391 . S
H212 C220 0.950 . S
H213 C225 0.950 . S
H214 C222 0.950 . S
H215 C224 0.950 . S
H216 C226 0.950 . S
H217 C228 0.950 . S
H218 C230 0.950 . S
H219 C231 0.950 . S
C220 H212 0.950 . S
C220 C221 1.386 . S
C220 C222 1.391 . S
C221 C220 1.386 . S
C221 C225 1.393 . S
C222 H214 0.950 . S
C222 C220 1.391 . S
C222 C223 1.400 . S
C223 C222 1.400 . S
C223 C224 1.398 . S
C223 C229 1.491 . S
C224 H215 0.950 . S
C224 C223 1.398 . S
C224 C225 1.391 . S
C225 H213 0.950 . S
C225 C221 1.393 . S
C225 C224 1.391 . S
C226 H216 0.950 . S
C226 C227 1.386 . S
C226 C228 1.391 . S
C227 C226 1.386 . S
C227 C231 1.393 . S
C228 H217 0.950 . S
C228 C226 1.391 . S
C228 C229 1.400 . S
C229 C223 1.491 . S
C229 C228 1.400 . S
C229 C230 1.398 . S
C230 H218 0.950 . S
C230 C229 1.398 . S
C230 C231 1.391 . S
C231 H219 0.950 . S
C231 C227 1.393 . S
C231 C230 1.391 . S
H232 C240 0.950 . S
H233 C245 0.950 . S
H234 C242 0.950 . S
H235 C244 0.950 . S
H236 C246 0.950 . S
H237 C248 0.950 . S
H238 C250 0.950 . S
H239 C251 0.950 . S
C240 H232 0.950 . S
C240 C241 1.386 . S
C240 C242 1.391 . S
C241 C240 1.386 . S
C241 C245 1.393 . S
C242 H234 0.950 . S
C242 C240 1.391 . S
C242 C243 1.400 . S
C243 C242 1.400 . S
C243 C244 1.398 . S
C243 C249 1.491 . S
C244 H235 0.950 . S
C244 C243 1.398 . S
C244 C245 1.391 . S
C245 H233 0.950 . S
C245 C241 1.393 . S
C245 C244 1.391 . S
C246 H236 0.950 . S
C246 C247 1.386 . S
C246 C248 1.391 . S
C247 C246 1.386 . S
C247 C251 1.393 . S
C248 H237 0.950 . S
C248 C246 1.391 . S
C248 C249 1.400 . S
C249 C243 1.491 . S
C249 C248 1.400 . S
C249 C250 1.398 . S
C250 H238 0.950 . S
C250 C249 1.398 . S
C250 C251 1.391 . S
C251 H239 0.950 . S
C251 C247 1.393 . S
C251 C250 1.391 . S
H252 C260 0.950 . S
H253 C265 0.950 . S
H254 C262 0.950 . S
H255 C264 0.950 . S
H256 C266 0.950 . S
H257 C268 0.950 . S
H258 C270 0.950 . S
H259 C271 0.950 . S
C260 H252 0.950 . S
C260 C261 1.386 . S
C260 C262 1.391 . S
C261 C260 1.386 . S
C261 C265 1.393 . S
C262 H254 0.950 . S
C262 C260 1.391 . S
C262 C263 1.400 . S
C263 C262 1.400 . S
C263 C264 1.398 . S
C263 C269 1.491 . S
C264 H255 0.950 . S
C264 C263 1.398 . S
C264 C265 1.391 . S
C265 H253 0.950 . S
C265 C261 1.393 . S
C265 C264 1.391 . S
C266 H256 0.950 . S
C266 C267 1.386 . S
C266 C268 1.391 . S
C267 C266 1.386 . S
C267 C271 1.393 . S
C268 H257 0.950 . S
C268 C266 1.391 . S
C268 C269 1.400 . S
C269 C263 1.491 . S
C269 C268 1.400 . S
C269 C270 1.398 . S
C270 H258 0.950 . S
C270 C269 1.398 . S
C270 C271 1.391 . S
C271 H259 0.950 . S
C271 C267 1.393 . S
C271 C270 1.391 . S
H272 C280 0.950 . S
H273 C285 0.950 . S
H274 C282 0.950 . S
H275 C284 0.950 . S
H276 C286 0.950 . S
H277 C288 0.950 . S
H278 C290 0.950 . S
H279 C291 0.951 . S
C280 H272 0.950 . S
C280 C281 1.386 . S
C280 C282 1.391 . S
C281 C280 1.386 . S
C281 C285 1.393 . S
C282 H274 0.950 . S
C282 C280 1.391 . S
C282 C283 1.400 . S
C283 C282 1.400 . S
C283 C284 1.398 . S
C283 C289 1.491 . S
C284 H275 0.950 . S
C284 C283 1.398 . S
C284 C285 1.391 . S
C285 H273 0.950 . S
C285 C281 1.393 . S
C285 C284 1.391 . S
C286 H276 0.950 . S
C286 C287 1.386 . S
C286 C288 1.391 . S
C287 C286 1.386 . S
C287 C291 1.393 . S
C288 H277 0.950 . S
C288 C286 1.391 . S
C288 C289 1.400 . S
C289 C283 1.491 . S
C289 C288 1.400 . S
C289 C290 1.398 . S
C290 H278 0.950 . S
C290 C289 1.398 . S
C290 C291 1.391 . S
C291 H279 0.951 . S
C291 C287 1.393 . S
C291 C290 1.391 . S
H292 C300 0.950 . S
H293 C305 0.950 . S
H294 C302 0.950 . S
H295 C304 0.950 . S
H296 C306 0.950 . S
H297 C308 0.950 . S
H298 C310 0.950 . S
H299 C311 0.950 . S
C300 H292 0.950 . S
C300 C301 1.386 . S
C300 C302 1.391 . S
C301 C300 1.386 . S
C301 C305 1.393 . S
C302 H294 0.950 . S
C302 C300 1.391 . S
C302 C303 1.400 . S
C303 C302 1.400 . S
C303 C304 1.398 . S
C303 C309 1.491 . S
C304 H295 0.950 . S
C304 C303 1.398 . S
C304 C305 1.391 . S
C305 H293 0.950 . S
C305 C301 1.393 . S
C305 C304 1.391 . S
C306 H296 0.950 . S
C306 C307 1.386 . S
C306 C308 1.391 . S
C307 C306 1.386 . S
C307 C311 1.393 . S
C308 H297 0.950 . S
C308 C306 1.391 . S
C308 C309 1.400 . S
C309 C303 1.491 . S
C309 C308 1.400 . S
C309 C310 1.398 . S
C310 H298 0.950 . S
C310 C309 1.398 . S
C310 C311 1.391 . S
C311 H299 0.950 . S
C311 C307 1.393 . S
C311 C310 1.391 . S
H312 C320 0.950 . S
H313 C325 0.950 . S
H314 C322 0.950 . S
H315 C324 0.950 . S
H316 C326 0.950 . S
H317 C328 0.950 . S
H318 C330 0.950 . S
H319 C331 0.950 . S
C320 H312 0.950 . S
C320 C321 1.386 . S
C320 C322 1.391 . S
C321 C320 1.386 . S
C321 C325 1.393 . S
C322 H314 0.950 . S
C322 C320 1.391 . S
C322 C323 1.400 . S
C323 C322 1.400 . S
C323 C324 1.398 . S
C323 C329 1.491 . S
C324 H315 0.950 . S
C324 C323 1.398 . S
C324 C325 1.391 . S
C325 H313 0.950 . S
C325 C321 1.393 . S
C325 C324 1.391 . S
C326 H316 0.950 . S
C326 C327 1.386 . S
C326 C328 1.391 . S
C327 C326 1.386 . S
C327 C331 1.393 . S
C328 H317 0.950 . S
C328 C326 1.391 . S
C328 C329 1.400 . S
C329 C323 1.491 . S
C329 C328 1.400 . S
C329 C330 1.398 . S
C330 H318 0.950 . S
C330 C329 1.398 . S
C330 C331 1.391 . S
C331 H319 0.950 . S
C331 C327 1.393 . S
C331 C330 1.391 . S
H332 C340 0.950 . S
H333 C345 0.950 . S
H334 C342 0.950 . S
H335 C344 0.950 . S
H336 C346 0.950 . S
H337 C348 0.950 . S
H338 C350 0.950 . S
H339 C351 0.950 . S
C340 H332 0.950 . S
C340 C341 1.386 . S
C340 C342 1.391 . S
C341 C340 1.386 . S
C341 C345 1.393 . S
C342 H334 0.950 . S
C342 C340 1.391 . S
C342 C343 1.400 . S
C343 C342 1.400 . S
C343 C344 1.398 . S
C343 C349 1.491 . S
C344 H335 0.950 . S
C344 C343 1.398 . S
C344 C345 1.391 . S
C345 H333 0.950 . S
C345 C341 1.393 . S
C345 C344 1.391 . S
C346 H336 0.950 . S
C346 C347 1.386 . S
C346 C348 1.391 . S
C347 C346 1.386 . S
C347 C351 1.393 . S
C348 H337 0.950 . S
C348 C346 1.391 . S
C348 C349 1.400 . S
C349 C343 1.491 . S
C349 C348 1.400 . S
C349 C350 1.398 . S
C350 H338 0.950 . S
C350 C349 1.398 . S
C350 C351 1.391 . S
C351 H339 0.950 . S
C351 C347 1.393 . S
C351 C350 1.391 . S
H352 C360 0.950 . S
H353 C365 0.950 . S
H354 C362 0.950 . S
H355 C364 0.950 . S
H356 C366 0.950 . S
H357 C368 0.950 . S
H358 C370 0.950 . S
H359 C371 0.950 . S
C360 H352 0.950 . S
C360 C361 1.386 . S
C360 C362 1.391 . S
C361 C360 1.386 . S
C361 C365 1.393 . S
C362 H354 0.950 . S
C362 C360 1.391 . S
C362 C363 1.400 . S
C363 C362 1.400 . S
C363 C364 1.398 . S
C363 C369 1.491 . S
C364 H355 0.950 . S
C364 C363 1.398 . S
C364 C365 1.391 . S
C365 H353 0.950 . S
C365 C361 1.393 . S
C365 C364 1.391 . S
C366 H356 0.950 . S
C366 C367 1.386 . S
C366 C368 1.391 . S
C367 C366 1.386 . S
C367 C371 1.393 . S
C368 H357 0.950 . S
C368 C366 1.391 . S
C368 C369 1.400 . S
C369 C363 1.491 . S
C369 C368 1.400 . S
C369 C370 1.398 . S
C370 H358 0.950 . S
C370 C369 1.398 . S
C370 C371 1.391 . S
C371 H359 0.950 . S
C371 C367 1.393 . S
C371 C370 1.391 . S
H372 C380 0.950 . S
H373 C385 0.950 . S
H374 C382 0.950 . S
H375 C384 0.950 . S
H376 C386 0.950 . S
H377 C388 0.950 . S
H378 C390 0.950 . S
H379 C391 0.950 . S
C380 H372 0.950 . S
C380 C381 1.386 . S
C380 C382 1.391 . S
C381 C380 1.386 . S
C381 C385 1.393 . S
C382 H374 0.950 . S
C382 C380 1.391 . S
C382 C383 1.400 . S
C383 C382 1.400 . S
C383 C384 1.398 . S
C383 C389 1.491 . S
C384 H375 0.950 . S
C384 C383 1.398 . S
C384 C385 1.391 . S
C385 H373 0.950 . S
C385 C381 1.393 . S
C385 C384 1.391 . S
C386 H376 0.950 . S
C386 C387 1.386 . S
C386 C388 1.391 . S
C387 C386 1.386 . S
C387 C391 1.393 . S
C388 H377 0.950 . S
C388 C386 1.391 . S
C388 C389 1.400 . S
C389 C383 1.491 . S
C389 C388 1.400 . S
C389 C390 1.398 . S
C390 H378 0.950 . S
C390 C389 1.398 . S
C390 C391 1.391 . S
C391 H379 0.950 . S
C391 C387 1.393 . S
C391 C390 1.391 . S
H392 C400 0.950 . S
H393 C405 0.950 . S
H394 C402 0.950 . S
H395 C404 0.950 . S
H396 C406 0.950 . S
H397 C408 0.950 . S
H398 C410 0.950 . S
H399 C411 0.950 . S
C400 H392 0.950 . S
C400 C401 1.386 . S
C400 C402 1.391 . S
C401 C400 1.386 . S
C401 C405 1.393 . S
C402 H394 0.950 . S
C402 C400 1.391 . S
C402 C403 1.400 . S
C403 C402 1.400 . S
C403 C404 1.398 . S
C403 C409 1.491 . S
C404 H395 0.950 . S
C404 C403 1.398 . S
C404 C405 1.391 . S
C405 H393 0.950 . S
C405 C401 1.393 . S
C405 C404 1.391 . S
C406 H396 0.950 . S
C406 C407 1.386 . S
C406 C408 1.391 . S
C407 C406 1.386 . S
C407 C411 1.393 . S
C408 H397 0.950 . S
C408 C406 1.391 . S
C408 C409 1.400 . S
C409 C403 1.491 . S
C409 C408 1.400 . S
C409 C410 1.398 . S
C410 H398 0.950 . S
C410 C409 1.398 . S
C410 C411 1.391 . S
C411 H399 0.950 . S
C411 C407 1.393 . S
C411 C410 1.391 . S
H412 C420 0.950 . S
H413 C425 0.950 . S
H414 C422 0.950 . S
H415 C424 0.950 . S
H416 C426 0.950 . S
H417 C428 0.947 1_565 S
H418 C430 0.950 . S
H419 C431 0.950 . S
C420 H412 0.950 . S
C420 C421 1.386 . S
C420 C422 1.391 . S
C421 C420 1.386 . S
C421 C425 1.393 . S
C422 H414 0.950 . S
C422 C420 1.391 . S
C422 C423 1.400 . S
C423 C422 1.400 . S
C423 C424 1.398 . S
C423 C429 1.468 1_565 S
C424 H415 0.950 . S
C424 C423 1.398 . S
C424 C425 1.391 . S
C425 H413 0.950 . S
C425 C421 1.393 . S
C425 C424 1.391 . S
C426 H416 0.950 . S
C426 C427 1.386 . S
C426 C428 1.391 . S
C427 C426 1.386 . S
C427 C431 1.393 . S
C428 H417 0.947 1_545 S
C428 C426 1.391 . S
C428 C429 1.410 . S
C429 C423 1.468 1_545 S
C429 C428 1.410 . S
C429 C430 1.413 . S
C430 H418 0.950 . S
C430 C429 1.413 . S
C430 C431 1.391 . S
C431 H419 0.950 . S
C431 C427 1.393 . S
C431 C430 1.391 . S
H432 C440 0.950 . S
H433 C445 0.950 . S
H434 C442 0.950 1_565 S
H435 C444 0.950 . S
H436 C446 0.950 . S
H437 C448 0.950 . S
H438 C450 0.950 . S
H439 C451 0.950 . S
C440 H432 0.950 . S
C440 C441 1.386 . S
C440 C442 1.391 . S
C441 C440 1.386 . S
C441 C445 1.393 . S
C442 H434 0.950 1_545 S
C442 C440 1.391 . S
C442 C443 1.400 1_545 S
C443 C442 1.400 1_565 S
C443 C444 1.398 1_565 S
C443 C449 1.491 . S
C444 H435 0.950 . S
C444 C443 1.398 1_545 S
C444 C445 1.391 . S
C445 H433 0.950 . S
C445 C441 1.393 . S
C445 C444 1.391 . S
C446 H436 0.950 . S
C446 C447 1.386 . S
C446 C448 1.391 . S
C447 C446 1.386 . S
C447 C451 1.393 . S
C448 H437 0.950 . S
C448 C446 1.391 . S
C448 C449 1.400 . S
C449 C443 1.491 . S
C449 C448 1.400 . S
C449 C450 1.398 . S
C450 H438 0.950 . S
C450 C449 1.398 . S
C450 C451 1.391 . S
C451 H439 0.950 . S
C451 C447 1.393 . S
C451 C450 1.391 . S
H452 C460 0.950 . S
H453 C465 0.950 . S
H454 C462 0.950 . S
H455 C464 0.950 . S
H456 C466 0.950 . S
H457 C468 0.950 . S
H458 C470 0.950 . S
H459 C471 0.950 . S
C460 H452 0.950 . S
C460 C461 1.386 . S
C460 C462 1.391 . S
C461 C460 1.386 . S
C461 C465 1.393 . S
C462 H454 0.950 . S
C462 C460 1.391 . S
C462 C463 1.400 . S
C463 C462 1.400 . S
C463 C464 1.398 . S
C463 C469 1.491 1_545 S
C464 H455 0.950 . S
C464 C463 1.398 . S
C464 C465 1.391 . S
C465 H453 0.950 . S
C465 C461 1.393 . S
C465 C464 1.391 . S
C466 H456 0.950 . S
C466 C467 1.386 . S
C466 C468 1.391 . S
C467 C466 1.386 . S
C467 C471 1.393 . S
C468 H457 0.950 . S
C468 C466 1.391 . S
C468 C469 1.400 . S
C469 C463 1.491 1_565 S
C469 C468 1.400 . S
C469 C470 1.398 . S
C470 H458 0.950 . S
C470 C469 1.398 . S
C470 C471 1.391 . S
C471 H459 0.950 . S
C471 C467 1.393 . S
C471 C470 1.391 . S
H472 C480 0.950 . S
H473 C485 0.950 1_655 S
H474 C482 0.950 . S
H475 C484 0.950 . S
H476 C486 0.950 . S
H477 C488 0.950 . S
H478 C490 0.950 . S
H479 C491 0.950 . S
C480 H472 0.950 . S
C480 C481 1.386 . S
C480 C482 1.391 . S
C481 C480 1.386 . S
C481 C485 1.393 . S
C482 H474 0.950 . S
C482 C480 1.391 . S
C482 C483 1.400 . S
C483 C482 1.400 . S
C483 C484 1.398 . S
C483 C489 1.491 1_565 S
C484 H475 0.950 . S
C484 C483 1.398 . S
C484 C485 1.391 . S
C485 H473 0.950 1_455 S
C485 C481 1.393 . S
C485 C484 1.391 . S
C486 H476 0.950 . S
C486 C487 1.386 . S
C486 C488 1.391 . S
C487 C486 1.386 . S
C487 C491 1.393 . S
C488 H477 0.950 . S
C488 C486 1.391 . S
C488 C489 1.400 . S
C489 C483 1.491 1_545 S
C489 C488 1.400 . S
C489 C490 1.398 . S
C490 H478 0.950 . S
C490 C489 1.398 . S
C490 C491 1.391 . S
C491 H479 0.950 . S
C491 C487 1.393 . S
C491 C490 1.391 . S
H492 C500 0.950 . S
H493 C505 0.950 . S
H494 C502 0.950 . S
H495 C504 0.955 . S
H496 C506 0.950 . S
H497 C508 0.950 . S
H498 C510 0.950 . S
H499 C511 0.950 . S
C500 H492 0.950 . S
C500 C501 1.386 . S
C500 C502 1.391 1_554 S
C501 C500 1.386 . S
C501 C505 1.393 . S
C502 H494 0.950 . S
C502 C500 1.391 1_556 S
C502 C503 1.400 . S
C503 C502 1.400 . S
C503 C504 1.405 . S
C503 C509 1.491 . S
C504 H495 0.955 . S
C504 C503 1.405 . S
C504 C505 1.379 1_556 S
C505 H493 0.950 . S
C505 C501 1.393 . S
C505 C504 1.379 1_554 S
C506 H496 0.950 . S
C506 C507 1.386 . S
C506 C508 1.391 . S
C507 C506 1.386 . S
C507 C511 1.393 . S
C508 H497 0.950 . S
C508 C506 1.391 . S
C508 C509 1.400 . S
C509 C503 1.491 . S
C509 C508 1.400 . S
C509 C510 1.398 . S
C510 H498 0.950 . S
C510 C509 1.398 . S
C510 C511 1.391 . S
C511 H499 0.950 . S
C511 C507 1.393 . S
C511 C510 1.391 . S
H512 C520 0.950 . S
H513 C525 0.950 . S
H514 C522 0.950 . S
H515 C524 0.950 . S
H516 C526 0.950 . S
H517 C528 0.950 . S
H518 C530 0.950 . S
H519 C531 0.950 . S
C520 H512 0.950 . S
C520 C521 1.386 . S
C520 C522 1.391 . S
C521 C520 1.386 . S
C521 C525 1.393 . S
C522 H514 0.950 . S
C522 C520 1.391 . S
C522 C523 1.400 . S
C523 C522 1.400 . S
C523 C524 1.398 . S
C523 C529 1.491 . S
C524 H515 0.950 . S
C524 C523 1.398 . S
C524 C525 1.391 . S
C525 H513 0.950 . S
C525 C521 1.393 . S
C525 C524 1.391 . S
C526 H516 0.950 . S
C526 C527 1.386 . S
C526 C528 1.391 . S
C527 C526 1.386 . S
C527 C531 1.393 . S
C528 H517 0.950 . S
C528 C526 1.391 . S
C528 C529 1.400 . S
C529 C523 1.491 . S
C529 C528 1.400 . S
C529 C530 1.398 . S
C530 H518 0.950 . S
C530 C529 1.398 . S
C530 C531 1.391 . S
C531 H519 0.950 . S
C531 C527 1.393 . S
C531 C530 1.391 . S
H532 C540 0.950 . S
H533 C545 0.950 . S
H534 C542 0.950 . S
H535 C544 0.950 . S
H536 C546 0.950 . S
H537 C548 0.950 . S
H538 C550 0.950 . S
H539 C551 0.950 . S
C540 H532 0.950 . S
C540 C541 1.386 . S
C540 C542 1.391 . S
C541 C540 1.386 . S
C541 C545 1.393 . S
C542 H534 0.950 . S
C542 C540 1.391 . S
C542 C543 1.400 . S
C543 C542 1.400 . S
C543 C544 1.398 . S
C543 C549 1.491 . S
C544 H535 0.950 . S
C544 C543 1.398 . S
C544 C545 1.391 . S
C545 H533 0.950 . S
C545 C541 1.393 . S
C545 C544 1.391 . S
C546 H536 0.950 . S
C546 C547 1.386 . S
C546 C548 1.391 . S
C547 C546 1.386 . S
C547 C551 1.393 . S
C548 H537 0.950 . S
C548 C546 1.391 . S
C548 C549 1.400 . S
C549 C543 1.491 . S
C549 C548 1.400 . S
C549 C550 1.398 . S
C550 H538 0.950 . S
C550 C549 1.398 . S
C550 C551 1.391 . S
C551 H539 0.950 . S
C551 C547 1.393 . S
C551 C550 1.391 . S
H552 C560 0.950 . S
H553 C565 0.950 . S
H554 C562 0.950 . S
H555 C564 0.950 . S
H556 C566 0.950 . S
H557 C568 0.950 . S
H558 C570 0.950 . S
H559 C571 0.950 . S
C560 H552 0.950 . S
C560 C561 1.386 . S
C560 C562 1.391 . S
C561 C560 1.386 . S
C561 C565 1.393 . S
C562 H554 0.950 . S
C562 C560 1.391 . S
C562 C563 1.400 . S
C563 C562 1.400 . S
C563 C564 1.398 . S
C563 C569 1.491 . S
C564 H555 0.950 . S
C564 C563 1.398 . S
C564 C565 1.391 . S
C565 H553 0.950 . S
C565 C561 1.393 . S
C565 C564 1.391 . S
C566 H556 0.950 . S
C566 C567 1.386 . S
C566 C568 1.391 . S
C567 C566 1.386 . S
C567 C571 1.393 . S
C568 H557 0.950 . S
C568 C566 1.391 . S
C568 C569 1.400 . S
C569 C563 1.491 . S
C569 C568 1.400 . S
C569 C570 1.398 . S
C570 H558 0.950 . S
C570 C569 1.398 . S
C570 C571 1.391 . S
C571 H559 0.950 . S
C571 C567 1.393 . S
C571 C570 1.391 . S
H572 C580 0.950 . S
H573 C585 0.950 1_655 S
H574 C582 0.950 1_554 S
H575 C584 0.941 1_554 S
H576 C586 0.950 . S
H577 C588 0.950 . S
H578 C590 0.950 . S
H579 C591 0.950 . S
C580 H572 0.950 . S
C580 C581 1.386 . S
C580 C582 1.391 . S
C581 C580 1.386 . S
C581 C585 1.393 . S
C582 H574 0.950 1_556 S
C582 C580 1.391 . S
C582 C583 1.400 1_556 S
C583 C582 1.400 1_554 S
C583 C584 1.392 1_554 S
C583 C589 1.491 . S
C584 H575 0.941 1_556 S
C584 C583 1.392 1_556 S
C584 C585 1.406 . S
C585 H573 0.950 1_455 S
C585 C581 1.393 . S
C585 C584 1.406 . S
C586 H576 0.950 . S
C586 C587 1.386 . S
C586 C588 1.391 . S
C587 C586 1.386 . S
C587 C591 1.393 . S
C588 H577 0.950 . S
C588 C586 1.391 . S
C588 C589 1.400 . S
C589 C583 1.491 . S
C589 C588 1.400 . S
C589 C590 1.398 . S
C590 H578 0.950 . S
C590 C589 1.398 . S
C590 C591 1.391 . S
C591 H579 0.950 . S
C591 C587 1.393 . S
C591 C590 1.391 . S
H592 C600 0.950 . S
H593 C605 0.950 . S
H594 C602 0.950 . S
H595 C604 0.950 . S
H596 C606 0.950 . S
H597 C608 0.950 . S
H598 C610 0.950 . S
H599 C611 0.950 . S
C600 H592 0.950 . S
C600 C601 1.386 . S
C600 C602 1.391 . S
C601 C600 1.386 . S
C601 C605 1.393 . S
C602 H594 0.950 . S
C602 C600 1.391 . S
C602 C603 1.400 . S
C603 C602 1.400 . S
C603 C604 1.398 . S
C603 C609 1.491 . S
C604 H595 0.950 . S
C604 C603 1.398 . S
C604 C605 1.391 . S
C605 H593 0.950 . S
C605 C601 1.393 . S
C605 C604 1.391 . S
C606 H596 0.950 . S
C606 C607 1.386 . S
C606 C608 1.391 . S
C607 C606 1.386 . S
C607 C611 1.393 . S
C608 H597 0.950 . S
C608 C606 1.391 . S
C608 C609 1.400 . S
C609 C603 1.491 . S
C609 C608 1.400 . S
C609 C610 1.398 . S
C610 H598 0.950 . S
C610 C609 1.398 . S
C610 C611 1.391 . S
C611 H599 0.950 . S
C611 C607 1.393 . S
C611 C610 1.391 . S
H612 C620 0.950 . S
H613 C625 0.950 . S
H614 C622 0.950 . S
H615 C624 0.950 . S
H616 C626 0.950 . S
H617 C628 0.950 . S
H618 C630 0.950 . S
H619 C631 0.950 . S
C620 H612 0.950 . S
C620 C621 1.386 . S
C620 C622 1.391 . S
C621 C620 1.386 . S
C621 C625 1.393 . S
C622 H614 0.950 . S
C622 C620 1.391 . S
C622 C623 1.400 . S
C623 C622 1.400 . S
C623 C624 1.398 . S
C623 C629 1.491 . S
C624 H615 0.950 . S
C624 C623 1.398 . S
C624 C625 1.391 . S
C625 H613 0.950 . S
C625 C621 1.393 . S
C625 C624 1.391 . S
C626 H616 0.950 . S
C626 C627 1.386 . S
C626 C628 1.391 . S
C627 C626 1.386 . S
C627 C631 1.393 . S
C628 H617 0.950 . S
C628 C626 1.391 . S
C628 C629 1.400 . S
C629 C623 1.491 . S
C629 C628 1.400 . S
C629 C630 1.398 . S
C630 H618 0.950 . S
C630 C629 1.398 . S
C630 C631 1.391 . S
C631 H619 0.950 . S
C631 C627 1.393 . S
C631 C630 1.391 . S
H632 C640 0.950 . S
H633 C645 0.950 . S
H634 C642 0.950 . S
H635 C644 0.950 . S
H636 C646 0.950 . S
H637 C648 0.950 . S
H638 C650 0.950 . S
H639 C651 0.950 . S
C640 H632 0.950 . S
C640 C641 1.386 . S
C640 C642 1.391 . S
C641 C640 1.386 . S
C641 C645 1.393 . S
C642 H634 0.950 . S
C642 C640 1.391 . S
C642 C643 1.400 . S
C643 C642 1.400 . S
C643 C644 1.398 . S
C643 C649 1.491 . S
C644 H635 0.950 . S
C644 C643 1.398 . S
C644 C645 1.391 . S
C645 H633 0.950 . S
C645 C641 1.393 . S
C645 C644 1.391 . S
C646 H636 0.950 . S
C646 C647 1.386 . S
C646 C648 1.391 . S
C647 C646 1.386 . S
C647 C651 1.393 . S
C648 H637 0.950 . S
C648 C646 1.391 . S
C648 C649 1.400 . S
C649 C643 1.491 . S
C649 C648 1.400 . S
C649 C650 1.398 . S
C650 H638 0.950 . S
C650 C649 1.398 . S
C650 C651 1.391 . S
C651 H639 0.950 . S
C651 C647 1.393 . S
C651 C650 1.391 . S
C187 C95 1.446 . S
C181 C5 1.479 . S
C207 C113 1.489 . S
C201 C16 1.398 1_655 S
C221 C30 1.420 . S
C227 C137 1.320 . S
C247 C167 1.217 1_655 S
C241 C41 1.310 . S
C267 C155 1.291 . S
C261 C49 1.108 . S
C281 C63 1.274 . S
C287 C108 1.197 1_655 S
C301 C74 1.607 . S
C307 C128 1.518 . S
C321 C82 1.401 1_655 S
C327 C133 1.445 . S
C341 C85 1.281 . S
C347 C149 1.216 . S
C361 C60 1.371 . S
C367 C104 1.479 . S
C387 C171 1.526 . S
C381 C38 1.430 . S
C407 C116 1.208 . S
C401 C19 1.297 . S
C421 C27 1.450 . S
C427 C134 1.450 . S
C441 C8 1.442 . S
C447 C92 1.308 . S
C467 C112 1.261 . S
C461 C71 1.146 . S
C487 C158 1.519 . S
C481 C52 1.613 . S
C507 C154 1.334 . S
C501 C7 1.467 . S
C527 C107 1.449 . S
C521 C18 1.457 . S
C541 C29 1.451 . S
C547 C129 1.344 . S
C561 C40 1.493 . S
C567 C150 1.433 . S
C587 C91 1.351 . S
C581 C51 1.465 . S
C601 C62 1.424 . S
C607 C125 1.368 . S
C627 C146 1.337 . S
C621 C73 1.499 . S
C647 C170 1.375 . S
C641 C84 1.399 . S
