# Generated by pormake.
# Topology gar, (4,6)-cn, num edge types: 1
# Building blocks:
#     Node 0, Type 0, BuildingBlock: TATPOV_clean_sbu_0, # of connection points: 4
#     Node 1, Type 0, BuildingBlock: TATPOV_clean_sbu_0, # of connection points: 4
#     Node 2, Type 0, BuildingBlock: TATPOV_clean_sbu_0, # of connection points: 4
#     Node 3, Type 0, BuildingBlock: TATPOV_clean_sbu_0, # of connection points: 4
#     Node 4, Type 0, BuildingBlock: TATPOV_clean_sbu_0, # of connection points: 4
#     Node 5, Type 0, BuildingBlock: TATPOV_clean_sbu_0, # of connection points: 4
#     Node 6, Type 0, BuildingBlock: TATPOV_clean_sbu_0, # of connection points: 4
#     Node 7, Type 0, BuildingBlock: TATPOV_clean_sbu_0, # of connection points: 4
#     Node 8, Type 0, BuildingBlock: TATPOV_clean_sbu_0, # of connection points: 4
#     Node 9, Type 0, BuildingBlock: TATPOV_clean_sbu_0, # of connection points: 4
#     Node 10, Type 0, BuildingBlock: TATPOV_clean_sbu_0, # of connection points: 4
#     Node 11, Type 0, BuildingBlock: TATPOV_clean_sbu_0, # of connection points: 4
#     Node 12, Type 0, BuildingBlock: TATPOV_clean_sbu_0, # of connection points: 4
#     Node 13, Type 0, BuildingBlock: TATPOV_clean_sbu_0, # of connection points: 4
#     Node 14, Type 0, BuildingBlock: TATPOV_clean_sbu_0, # of connection points: 4
#     Node 15, Type 0, BuildingBlock: TATPOV_clean_sbu_0, # of connection points: 4
#     Node 16, Type 0, BuildingBlock: TATPOV_clean_sbu_0, # of connection points: 4
#     Node 17, Type 0, BuildingBlock: TATPOV_clean_sbu_0, # of connection points: 4
#     Node 18, Type 0, BuildingBlock: TATPOV_clean_sbu_0, # of connection points: 4
#     Node 19, Type 0, BuildingBlock: TATPOV_clean_sbu_0, # of connection points: 4
#     Node 20, Type 0, BuildingBlock: TATPOV_clean_sbu_0, # of connection points: 4
#     Node 21, Type 0, BuildingBlock: TATPOV_clean_sbu_0, # of connection points: 4
#     Node 22, Type 0, BuildingBlock: TATPOV_clean_sbu_0, # of connection points: 4
#     Node 23, Type 0, BuildingBlock: TATPOV_clean_sbu_0, # of connection points: 4
#     Node 24, Type 1, BuildingBlock: BETGAK_clean_sbu_0, # of connection points: 6
#     Node 25, Type 1, BuildingBlock: BETGAK_clean_sbu_0, # of connection points: 6
#     Node 26, Type 1, BuildingBlock: BETGAK_clean_sbu_0, # of connection points: 6
#     Node 27, Type 1, BuildingBlock: BETGAK_clean_sbu_0, # of connection points: 6
#     Node 28, Type 1, BuildingBlock: BETGAK_clean_sbu_0, # of connection points: 6
#     Node 29, Type 1, BuildingBlock: BETGAK_clean_sbu_0, # of connection points: 6
#     Node 30, Type 1, BuildingBlock: BETGAK_clean_sbu_0, # of connection points: 6
#     Node 31, Type 1, BuildingBlock: BETGAK_clean_sbu_0, # of connection points: 6
#     Node 32, Type 1, BuildingBlock: BETGAK_clean_sbu_0, # of connection points: 6
#     Node 33, Type 1, BuildingBlock: BETGAK_clean_sbu_0, # of connection points: 6
#     Node 34, Type 1, BuildingBlock: BETGAK_clean_sbu_0, # of connection points: 6
#     Node 35, Type 1, BuildingBlock: BETGAK_clean_sbu_0, # of connection points: 6
#     Node 36, Type 1, BuildingBlock: BETGAK_clean_sbu_0, # of connection points: 6
#     Node 37, Type 1, BuildingBlock: BETGAK_clean_sbu_0, # of connection points: 6
#     Node 38, Type 1, BuildingBlock: BETGAK_clean_sbu_0, # of connection points: 6
#     Node 39, Type 1, BuildingBlock: BETGAK_clean_sbu_0, # of connection points: 6
#     Edge 40, Type (0, 1), None
#     Edge 41, Type (0, 1), None
#     Edge 42, Type (0, 1), None
#     Edge 43, Type (0, 1), None
#     Edge 44, Type (0, 1), None
#     Edge 45, Type (0, 1), None
#     Edge 46, Type (0, 1), None
#     Edge 47, Type (0, 1), None
#     Edge 48, Type (0, 1), None
#     Edge 49, Type (0, 1), None
#     Edge 50, Type (0, 1), None
#     Edge 51, Type (0, 1), None
#     Edge 52, Type (0, 1), None
#     Edge 53, Type (0, 1), None
#     Edge 54, Type (0, 1), None
#     Edge 55, Type (0, 1), None
#     Edge 56, Type (0, 1), None
#     Edge 57, Type (0, 1), None
#     Edge 58, Type (0, 1), None
#     Edge 59, Type (0, 1), None
#     Edge 60, Type (0, 1), None
#     Edge 61, Type (0, 1), None
#     Edge 62, Type (0, 1), None
#     Edge 63, Type (0, 1), None
#     Edge 64, Type (0, 1), None
#     Edge 65, Type (0, 1), None
#     Edge 66, Type (0, 1), None
#     Edge 67, Type (0, 1), None
#     Edge 68, Type (0, 1), None
#     Edge 69, Type (0, 1), None
#     Edge 70, Type (0, 1), None
#     Edge 71, Type (0, 1), None
#     Edge 72, Type (0, 1), None
#     Edge 73, Type (0, 1), None
#     Edge 74, Type (0, 1), None
#     Edge 75, Type (0, 1), None
#     Edge 76, Type (0, 1), None
#     Edge 77, Type (0, 1), None
#     Edge 78, Type (0, 1), None
#     Edge 79, Type (0, 1), None
#     Edge 80, Type (0, 1), None
#     Edge 81, Type (0, 1), None
#     Edge 82, Type (0, 1), None
#     Edge 83, Type (0, 1), None
#     Edge 84, Type (0, 1), None
#     Edge 85, Type (0, 1), None
#     Edge 86, Type (0, 1), None
#     Edge 87, Type (0, 1), None
#     Edge 88, Type (0, 1), None
#     Edge 89, Type (0, 1), None
#     Edge 90, Type (0, 1), None
#     Edge 91, Type (0, 1), None
#     Edge 92, Type (0, 1), None
#     Edge 93, Type (0, 1), None
#     Edge 94, Type (0, 1), None
#     Edge 95, Type (0, 1), None
#     Edge 96, Type (0, 1), None
#     Edge 97, Type (0, 1), None
#     Edge 98, Type (0, 1), None
#     Edge 99, Type (0, 1), None
#     Edge 100, Type (0, 1), None
#     Edge 101, Type (0, 1), None
#     Edge 102, Type (0, 1), None
#     Edge 103, Type (0, 1), None
#     Edge 104, Type (0, 1), None
#     Edge 105, Type (0, 1), None
#     Edge 106, Type (0, 1), None
#     Edge 107, Type (0, 1), None
#     Edge 108, Type (0, 1), None
#     Edge 109, Type (0, 1), None
#     Edge 110, Type (0, 1), None
#     Edge 111, Type (0, 1), None
#     Edge 112, Type (0, 1), None
#     Edge 113, Type (0, 1), None
#     Edge 114, Type (0, 1), None
#     Edge 115, Type (0, 1), None
#     Edge 116, Type (0, 1), None
#     Edge 117, Type (0, 1), None
#     Edge 118, Type (0, 1), None
#     Edge 119, Type (0, 1), None
#     Edge 120, Type (0, 1), None
#     Edge 121, Type (0, 1), None
#     Edge 122, Type (0, 1), None
#     Edge 123, Type (0, 1), None
#     Edge 124, Type (0, 1), None
#     Edge 125, Type (0, 1), None
#     Edge 126, Type (0, 1), None
#     Edge 127, Type (0, 1), None
#     Edge 128, Type (0, 1), None
#     Edge 129, Type (0, 1), None
#     Edge 130, Type (0, 1), None
#     Edge 131, Type (0, 1), None
#     Edge 132, Type (0, 1), None
#     Edge 133, Type (0, 1), None
#     Edge 134, Type (0, 1), None
#     Edge 135, Type (0, 1), None
# Relax obj value: 0.472
# Max RMSD: 0.455
# Mean RMSD: 0.232
data_MOF--net-gar--node1-TATPOV_clean_sbu_0--node2-BETGAK_clean_sbu_0--edge1-none
_symmetry_space_group_name_H-M    P1
_symmetry_Int_Tables_number       1
_symmetry_cell_setting            triclinic
loop_
_symmetry_equiv_pos_as_xyz
'x, y, z'
_cell_length_a     32.720864
_cell_length_b     26.586965
_cell_length_c     26.4
_cell_angle_alpha  102.12104
_cell_angle_beta   97.461122
_cell_angle_gamma 105.76542
loop_
_atom_site_label
_atom_site_type_symbol
_atom_site_fract_x
_atom_site_fract_y
_atom_site_fract_z
_atom_type_partial_charge
Zn0 Zn 0.17286 0.42846 0.43198 0.0
Zn1 Zn 0.24394 0.44598 0.41908 0.0
O2 O 0.23709 0.51692 0.46723 0.0
O3 O 0.17114 0.50124 0.42338 0.0
O4 O 0.30079 0.44371 0.39152 0.0
O5 O 0.19164 0.43247 0.50524 0.0
O6 O 0.23094 0.38971 0.46345 0.0
C7 C 0.20288 0.53169 0.45942 0.0
C8 C 0.16631 0.3873 0.34361 0.0
O9 O 0.19945 0.42804 0.35125 0.0
O10 O 0.1673 0.35825 0.3754 0.0
C11 C 0.29536 0.40516 0.35034 0.0
O12 O 0.25642 0.37052 0.33147 0.0
C13 C 0.21213 0.3987 0.50244 0.0
Zn14 Zn 1.03822 0.71232 0.73315 0.0
Zn15 Zn 0.06141 0.79317 0.6918 0.0
O16 O 1.01261 0.8114 0.7228 0.0
O17 O 1.0151 0.76512 0.78214 0.0
O18 O 0.0783 0.84354 0.64861 0.0
O19 O 0.10364 0.73985 0.76207 0.0
O20 O 0.11386 0.8205 0.74803 0.0
C21 C 1.00394 0.80192 0.76604 0.0
C22 C 0.08493 0.69578 0.65561 0.0
O23 O 0.05696 0.71863 0.64303 0.0
O24 O 0.09231 0.69349 0.70322 0.0
C25 C 0.09393 0.82841 0.60874 0.0
O26 O 0.0943 0.7789 0.59366 0.0
C27 C 0.1275 0.78844 0.76949 0.0
Zn28 Zn 0.67487 0.93022 0.93379 0.0
Zn29 Zn 0.74472 0.94673 0.92015 0.0
O30 O 0.73843 1.01789 0.96868 0.0
O31 O 0.67262 1.00263 0.92476 0.0
O32 O 0.80146 0.94454 0.89242 0.0
O33 O 0.69338 0.93393 1.00707 0.0
O34 O 0.73173 0.89028 0.9644 0.0
C35 C 0.70433 1.03287 0.96092 0.0
C36 C 0.66647 0.88813 0.84515 0.0
O37 O 0.69973 0.92867 0.85246 0.0
O38 O 0.66733 0.85931 0.87718 0.0
C39 C 0.79587 0.90604 0.85117 0.0
O40 O 0.75688 0.87145 0.83247 0.0
C41 C 0.71321 0.89943 1.00364 0.0
Zn42 Zn 0.53745 0.21084 0.23149 0.0
Zn43 Zn 0.56102 0.29291 0.19189 0.0
O44 O 0.51275 0.31141 0.22454 0.0
O45 O 0.5126 0.26104 0.28066 0.0
O46 O 0.57841 0.34324 0.14882 0.0
O47 O 0.6029 0.23938 0.26164 0.0
O48 O 0.61339 0.32015 0.24782 0.0
C49 C 0.50272 0.29951 0.26645 0.0
C50 C 0.5853 0.19595 0.15557 0.0
O51 O 0.5572 0.21864 0.14311 0.0
O52 O 0.59226 0.19287 0.20296 0.0
C53 C 0.59061 0.32724 0.10633 0.0
O54 O 0.58523 0.27626 0.08676 0.0
C55 C 0.62686 0.28796 0.26922 0.0
Zn56 Zn 0.25594 0.89458 0.10589 0.0
Zn57 Zn 0.21006 0.89697 0.17157 0.0
O58 O 0.19475 0.96065 0.13902 0.0
O59 O 0.22943 0.95614 0.07468 0.0
O60 O 0.16784 0.89158 0.21747 0.0
O61 O 0.22773 0.80806 0.07919 0.0
O62 O 0.18222 0.81463 0.1317 0.0
C63 C 0.20321 0.97632 0.09794 0.0
C64 C 0.30736 0.90293 0.21275 0.0
O65 O 0.27046 0.90495 0.22361 0.0
O66 O 0.31245 0.90326 0.16566 0.0
C67 C 0.1309 0.89616 0.20215 0.0
O68 O 0.12312 0.91443 0.16063 0.0
C69 C 0.19664 0.78482 0.09901 0.0
Zn70 Zn 0.54409 0.81858 0.51223 0.0
Zn71 Zn 0.59475 0.82296 0.45163 0.0
O72 O 0.62309 0.90152 0.50099 0.0
O73 O 0.56971 0.90659 0.54007 0.0
O74 O 0.6399 0.82902 0.40778 0.0
O75 O 0.57148 0.75576 0.54012 0.0
O76 O 0.61182 0.75925 0.4812 0.0
C77 C 0.60475 0.93082 0.5277 0.0
C78 C 0.49332 0.81298 0.40806 0.0
O79 O 0.53211 0.81682 0.39931 0.0
O80 O 0.48695 0.80732 0.45346 0.0
C81 C 0.66166 0.8758 0.40595 0.0
O82 O 0.64779 0.91733 0.42103 0.0
C83 C 0.60036 0.73927 0.51904 0.0
Zn84 Zn 0.75888 0.39915 0.61001 0.0
Zn85 Zn 0.70709 0.39497 0.66832 0.0
O86 O 0.69202 0.45833 0.6361 0.0
O87 O 0.73254 0.46031 0.57768 0.0
O88 O 0.66598 0.38968 0.715 0.0
O89 O 0.73112 0.31096 0.58468 0.0
O90 O 0.6785 0.31477 0.6266 0.0
C91 C 0.70339 0.47706 0.59769 0.0
C92 C 0.80532 0.4028 0.71459 0.0
O93 O 0.76575 0.39739 0.71919 0.0
O94 O 0.81541 0.41212 0.67164 0.0
C95 C 0.62981 0.39736 0.70265 0.0
O96 O 0.62237 0.41963 0.66399 0.0
C97 C 0.69706 0.28626 0.59897 0.0
Zn98 Zn 0.04132 0.31357 1.00812 0.0
Zn99 Zn 0.09653 0.32487 0.9549 0.0
O100 O 0.12614 0.40094 1.0063 0.0
O101 O 0.06711 0.40346 0.03372 0.0
O102 O 0.13981 0.3304 0.90883 0.0
O103 O 0.06916 0.2521 0.03745 0.0
O104 O 0.11314 0.26046 0.98293 0.0
C105 C 0.10439 0.42914 1.02735 0.0
C106 C 0.99392 0.31338 0.90886 0.0
O107 O 1.03482 0.3257 0.90701 0.0
O108 O 0.98323 0.29631 0.94834 0.0
C109 C 0.16184 0.37719 0.90745 0.0
O110 O 0.14928 0.41924 0.92523 0.0
C111 C 0.0999 0.23813 1.01862 0.0
Zn112 Zn 0.57456 0.99646 0.41722 0.0
Zn113 Zn 0.52877 0.10268 0.38448 0.0
O114 O 0.57354 0.14687 0.44761 0.0
O115 O 0.5586 0.06047 0.43646 0.0
O116 O 0.50448 0.14776 0.35003 0.0
O117 O 0.5919 1.00247 0.34921 0.0
O118 O 0.5586 0.06374 0.33703 0.0
C119 C 0.58575 0.10654 0.45115 0.0
C120 C 0.4754 0.99944 0.39843 0.0
O121 O 0.47821 1.04689 0.39417 0.0
O122 O 0.50829 0.98277 0.40505 0.0
C123 C 0.4764 0.12214 0.30833 0.0
O124 O 0.47261 0.0715 0.28661 0.0
C125 C 0.57991 1.03194 0.32179 0.0
Zn126 Zn 0.32199 0.31972 0.53138 0.0
Zn127 Zn 0.36073 0.2555 0.52205 0.0
O128 O 0.38278 0.28731 0.45861 0.0
O129 O 0.3511 0.34929 0.46606 0.0
O130 O 0.40169 0.21661 0.52001 0.0
O131 O 0.34567 0.35367 0.61418 0.0
O132 O 0.3824 0.2966 0.60422 0.0
C133 C 0.37517 0.32595 0.44178 0.0
C134 C 0.26504 0.2046 0.52174 0.0
O135 O 0.29985 0.19432 0.51267 0.0
O136 O 0.26512 0.25337 0.52765 0.0
C137 C 0.40847 0.20018 0.56064 0.0
O138 O 0.38184 0.19966 0.5938 0.0
C139 C 0.37063 0.33123 0.63508 0.0
Zn140 Zn 0.23103 0.15744 0.83441 0.0
Zn141 Zn 0.26857 0.07539 0.81492 0.0
O142 O 0.22655 0.07275 0.88786 0.0
O143 O 0.20211 0.14288 0.90054 0.0
O144 O 0.30299 1.00116 0.80461 0.0
O145 O 0.19842 0.13484 0.75545 0.0
O146 O 0.22966 0.07182 0.73288 0.0
C147 C 0.20473 0.10093 0.9151 0.0
C148 C 0.31977 0.20842 0.82704 0.0
O149 O 0.31882 0.1577 0.82009 0.0
O150 O 0.28687 0.22082 0.83943 0.0
C151 C 0.34313 0.99771 0.8117 0.0
O152 O 0.37424 1.04402 0.82921 0.0
C153 C 0.20591 0.10097 0.71876 0.0
Zn154 Zn 0.53059 0.95096 0.99114 0.0
Zn155 Zn 0.44625 1.03384 1.01741 0.0
O156 O 0.42842 0.95882 0.96215 0.0
O157 O 0.4727 0.907 0.94493 0.0
O158 O 0.39782 0.06377 1.0273 0.0
O159 O 0.50391 0.9762 0.0523 0.0
O160 O 0.46178 1.01984 0.08545 0.0
C161 C 0.43588 0.9154 0.93914 0.0
C162 C 0.52242 0.05898 0.99807 0.0
O163 O 0.49866 0.08899 1.00607 0.0
O164 O 0.50716 1.01115 0.99972 0.0
C165 C 0.40379 0.1011 0.069 0.0
O166 O 0.44237 0.12236 0.09993 0.0
C167 C 0.48709 0.99217 0.0904 0.0
Zn168 Zn 0.48714 0.39997 0.08345 0.0
Zn169 Zn 0.44562 0.46225 0.09091 0.0
O170 O 0.42359 0.41816 1.01026 0.0
O171 O 0.46352 0.36507 1.00041 0.0
O172 O 0.40308 0.49981 0.09077 0.0
O173 O 0.45748 0.36973 0.14879 0.0
O174 O 0.4239 0.42982 0.15495 0.0
C175 C 0.43649 0.38488 0.97951 0.0
C176 C 0.54234 0.51553 0.09039 0.0
O177 O 0.50664 0.52432 0.09812 0.0
O178 O 0.54368 0.46745 0.08664 0.0
C179 C 0.39031 0.50929 0.04764 0.0
O180 O 0.41274 0.50643 1.00998 0.0
C181 C 0.43222 0.39168 0.17226 0.0
Zn182 Zn 0.78696 0.27905 0.09767 0.0
Zn183 Zn 0.85674 0.18032 0.10048 0.0
O184 O 0.84352 0.18633 1.02649 0.0
O185 O 0.7893 0.20756 0.05031 0.0
O186 O 0.9038 0.14555 0.0938 0.0
O187 O 0.84583 0.32013 0.14536 0.0
O188 O 0.88256 0.25926 0.14922 0.0
C189 C 0.81377 0.20664 1.01789 0.0
C190 C 0.78192 0.17631 0.1322 0.0
O191 O 0.80071 0.14003 0.12617 0.0
O192 O 0.80224 0.21887 0.12168 0.0
C193 C 0.90154 0.11482 0.04874 0.0
O194 O 0.86628 0.10026 1.01212 0.0
C195 C 0.87866 0.30694 0.16282 0.0
Zn196 Zn 0.25371 0.7425 0.2085 0.0
Zn197 Zn 0.28165 0.61684 0.24184 0.0
O198 O 0.26178 0.66803 0.29415 0.0
O199 O 0.24255 0.74019 0.28054 0.0
O200 O 0.29582 0.56319 0.28183 0.0
O201 O 0.24573 0.6625 0.1944 0.0
O202 O 0.23066 0.5763 0.18279 0.0
C203 C 0.24844 0.70853 0.3092 0.0
C204 C 0.33125 0.70075 0.21582 0.0
O205 O 0.33832 0.65973 0.22709 0.0
O206 O 0.29247 0.69402 0.19419 0.0
C207 C 0.32731 0.5901 0.31989 0.0
O208 O 0.29499 0.55869 0.28193 0.0
C209 C 0.21816 0.61611 0.17784 0.0
Zn210 Zn 0.98726 0.90016 0.58365 0.0
Zn211 Zn 0.94573 0.96239 0.59062 0.0
O212 O 0.92368 0.91798 0.5101 0.0
O213 O 0.96369 0.86497 0.50057 0.0
O214 O 0.90317 0.99981 0.59042 0.0
O215 O 0.95757 0.87052 0.64925 0.0
O216 O 0.92399 0.93059 0.65475 0.0
C217 C 0.93663 0.88465 0.4795 0.0
C218 C 0.04237 1.01562 0.59026 0.0
O219 O 1.00662 1.02441 0.59776 0.0
O220 O 0.04376 0.9676 0.58678 0.0
C221 C 0.89017 1.00887 0.54717 0.0
O222 O 0.91251 1.00593 0.50943 0.0
C223 C 0.93231 0.89269 0.67246 0.0
Zn224 Zn 0.07155 0.05807 0.27784 0.0
Zn225 Zn 1.03482 0.14071 0.29669 0.0
O226 O 0.07486 0.14714 0.3788 0.0
O227 O 0.10499 0.0829 0.35634 0.0
O228 O 1.00097 0.21575 0.30079 0.0
O229 O 0.10019 0.07122 0.21145 0.0
O230 O 0.07675 0.1421 0.22426 0.0
C231 C 0.09862 0.11799 0.39286 0.0
C232 C 0.98381 1.00643 0.28715 0.0
O233 O 0.98466 0.05727 0.2936 0.0
O234 O 1.01659 0.99414 0.2742 0.0
C235 C 0.96658 0.22793 0.31564 0.0
O236 O 0.94088 0.19166 0.33372 0.0
C237 C 0.09814 0.11341 0.19705 0.0
Zn238 Zn 0.28605 0.77994 0.60051 0.0
Zn239 Zn 0.35658 0.68049 0.59949 0.0
O240 O 0.34476 0.68738 0.52537 0.0
O241 O 0.29375 0.7122 0.55456 0.0
O242 O 0.40388 0.64612 0.59385 0.0
O243 O 0.34492 0.82132 0.64692 0.0
O244 O 0.38144 0.75975 0.64854 0.0
C245 C 0.31699 0.71136 0.52072 0.0
C246 C 0.28111 0.67467 0.63121 0.0
O247 O 0.30014 0.6387 0.62388 0.0
O248 O 0.30129 0.71802 0.62185 0.0
C249 C 0.40135 0.61467 0.54911 0.0
O250 O 0.36592 0.59974 0.51269 0.0
C251 C 0.37779 0.80752 0.6631 0.0
Zn252 Zn 0.57166 0.55834 0.77803 0.0
Zn253 Zn 0.53504 0.64108 0.79688 0.0
O254 O 0.57503 0.64743 0.87905 0.0
O255 O 0.6051 0.58313 0.85654 0.0
O256 O 0.50118 0.71603 0.8005 0.0
O257 O 0.60036 0.57153 0.71163 0.0
O258 O 0.57702 0.64247 0.72454 0.0
C259 C 0.59876 0.61823 0.89309 0.0
C260 C 0.48378 0.50683 0.78733 0.0
O261 O 0.48472 0.55769 0.79374 0.0
O262 O 0.51657 0.49448 0.77445 0.0
C263 C 0.46769 0.72943 0.81687 0.0
O264 O 0.44302 0.69473 0.83755 0.0
C265 C 0.59838 0.61378 0.6973 0.0
Zn266 Zn 0.75608 0.24484 0.70915 0.0
Zn267 Zn 0.78284 0.11812 0.73993 0.0
O268 O 0.76478 0.16996 0.79395 0.0
O269 O 0.74851 0.24459 0.78281 0.0
O270 O 0.79756 0.06388 0.77862 0.0
O271 O 0.74568 0.16412 0.69464 0.0
O272 O 0.73096 0.07785 0.68247 0.0
C273 C 0.75338 0.21178 0.8105 0.0
C274 C 0.83154 0.20119 0.71172 0.0
O275 O 0.83848 0.15977 0.72216 0.0
O276 O 0.79279 0.19487 0.69036 0.0
C277 C 0.82902 0.09065 0.81672 0.0
O278 O 0.79675 0.05938 0.77862 0.0
C279 C 0.71826 0.11764 0.67806 0.0
Zn280 Zn 0.8221 0.81949 0.03146 0.0
Zn281 Zn 0.86086 0.75524 1.02202 0.0
O282 O 0.8829 0.78723 0.95859 0.0
O283 O 0.85111 0.84912 0.96612 0.0
O284 O 0.90177 0.71623 1.02005 0.0
O285 O 0.84585 0.85334 0.11423 0.0
O286 O 0.88256 0.79624 0.10417 0.0
C287 C 0.87519 0.82585 0.94178 0.0
C288 C 0.76511 0.70445 1.02185 0.0
O289 O 0.7999 0.69414 1.0127 0.0
O290 O 0.76521 0.75323 1.02779 0.0
C291 C 0.90838 0.69967 0.06065 0.0
O292 O 0.88164 0.69914 0.09367 0.0
C293 C 0.87079 0.83085 0.13507 0.0
Zn294 Zn 0.07258 0.49345 0.91488 0.0
Zn295 Zn 1.02869 0.60156 0.8819 0.0
O296 O 0.07243 0.64501 0.94616 0.0
O297 O 0.05681 0.55833 0.93507 0.0
O298 O 1.00691 0.64509 0.84322 0.0
O299 O 0.0916 0.4982 0.84751 0.0
O300 O 0.05882 0.56009 0.83721 0.0
C301 C 0.08409 0.60446 0.95076 0.0
C302 C 0.97355 0.50202 0.89375 0.0
O303 O 0.97619 0.54986 0.89171 0.0
O304 O 1.0069 0.48626 0.90028 0.0
C305 C 0.97608 0.61745 0.8047 0.0
O306 O 0.96812 0.56486 0.78907 0.0
C307 C 0.07966 0.52821 0.82077 0.0
Zn308 Zn 1.03072 0.44905 0.49096 0.0
Zn309 Zn 0.94572 0.53164 0.52072 0.0
O310 O 0.92775 0.45736 0.46394 0.0
O311 O 0.97216 0.40623 0.44456 0.0
O312 O 0.89617 0.55896 0.53156 0.0
O313 O 1.00304 0.47748 0.55003 0.0
O314 O 0.96275 0.51843 0.5894 0.0
C315 C 0.93525 0.41449 0.43959 0.0
C316 C 1.02129 0.55829 0.49846 0.0
O317 O 0.99733 0.58791 0.50784 0.0
O318 O 1.00674 0.51024 0.50035 0.0
C319 C 0.90292 0.59827 0.5717 0.0
O320 O 0.9422 0.62127 0.60054 0.0
C321 C 0.98802 0.49039 0.59072 0.0
Zn322 Zn 0.73114 0.65731 0.33454 0.0
Zn323 Zn 0.76856 0.57523 0.31512 0.0
O324 O 0.72663 0.57278 0.38816 0.0
O325 O 0.70227 0.64296 0.40074 0.0
O326 O 0.80285 0.50093 0.30481 0.0
O327 O 0.69843 0.63472 0.25563 0.0
O328 O 0.72966 0.5717 0.23307 0.0
C329 C 0.70487 0.60106 0.41539 0.0
C330 C 0.81997 0.70812 0.32712 0.0
O331 O 0.81896 0.65739 0.32025 0.0
O332 O 0.78707 0.72058 0.33946 0.0
C333 C 0.84297 0.49744 0.31182 0.0
O334 O 0.87411 0.54373 0.32923 0.0
C335 C 0.70592 0.60085 0.21894 0.0
La336 La 0.11958 0.07008 1.02656 0.0
La337 La 0.18379 0.14361 0.08669 0.0
C338 C 1.03863 1.02545 1.00335 0.0
C339 C 1.00416 0.05037 1.01416 0.0
C340 C 0.96075 1.01947 0.99635 0.0
C341 C 0.9276 1.04138 1.00557 0.0
C342 C 0.93723 0.09381 0.03741 0.0
C343 C 0.98063 0.12475 0.05833 0.0
C344 C 1.01389 0.10308 0.04681 0.0
C345 C 0.18153 0.08787 0.96375 0.0
C346 C 0.11918 0.19495 0.03555 0.0
C347 C 0.2648 0.18795 0.10933 0.0
C348 C 0.29991 0.1635 0.10193 0.0
C349 C 0.3429 0.19656 0.11622 0.0
C350 C 0.37683 0.17554 0.10861 0.0
C351 C 0.36803 0.12138 0.08178 0.0
C352 C 0.32487 0.08807 0.06449 0.0
C353 C 0.29106 0.10913 0.07421 0.0
C354 C 0.12152 0.12624 0.14869 0.0
C355 C 0.18403 1.01929 0.07994 0.0
O356 O 0.0614 1.04055 0.96896 0.0
O357 O 0.06338 1.02442 0.04553 0.0
O358 O 0.15496 1.04097 0.96376 0.0
O359 O 0.17087 0.12213 0.9987 0.0
O360 O 0.10086 0.14274 1.0123 0.0
O361 O 0.15575 0.20791 0.07052 0.0
O362 O 0.24185 0.17598 0.1446 0.0
O363 O 0.24025 0.18499 0.06534 0.0
O364 O 0.14795 0.17321 0.14857 0.0
O365 O 0.13236 0.09177 0.11427 0.0
O366 O 0.2011 0.07137 0.10442 0.0
O367 O 0.1487 1.00634 0.04281 0.0
H368 H 0.95227 0.97775 0.97651 0.0
H369 H 0.89431 1.01632 0.98976 0.0
H370 H 0.98877 0.16529 0.08364 0.0
H371 H 0.0468 0.12664 0.06556 0.0
H372 H 0.35018 0.23917 0.13179 0.0
H373 H 0.40982 0.20242 0.12112 0.0
H374 H 0.31726 1.04627 0.04253 0.0
H375 H 0.2584 0.08371 0.05708 0.0
La376 La 0.42378 0.85905 0.29169 0.0
La377 La 0.37269 0.856 0.33222 0.0
C378 C 0.48653 0.88781 0.25026 0.0
C379 C 0.48978 0.91835 0.21309 0.0
C380 C 0.51345 0.90715 0.17496 0.0
C381 C 0.51282 0.93206 0.1347 0.0
C382 C 0.48941 0.96908 0.13403 0.0
C383 C 0.46455 0.97898 0.17184 0.0
C384 C 0.46401 0.95253 0.21091 0.0
C385 C 0.45631 0.81687 0.3666 0.0
C386 C 0.43592 0.95797 0.37292 0.0
C387 C 0.31931 0.84522 0.38899 0.0
C388 C 0.3266 0.82205 0.43099 0.0
C389 C 0.30228 0.82556 0.46942 0.0
C390 C 0.29998 0.7898 0.50007 0.0
C391 C 0.32399 0.7531 0.49379 0.0
C392 C 0.35288 0.75489 0.4594 0.0
C393 C 0.35437 0.7899 0.42803 0.0
C394 C 0.34295 0.89793 0.25441 0.0
C395 C 0.35714 0.75353 0.24959 0.0
O396 O 0.48368 0.9144 0.29616 0.0
O397 O 0.45695 0.84107 0.23211 0.0
O398 O 0.45334 0.80071 0.31661 0.0
O399 O 0.43479 0.85091 0.37355 0.0
O400 O 0.42857 0.94398 0.32185 0.0
O401 O 0.42307 0.9171 0.39193 0.0
O402 O 0.31394 0.8114 0.34348 0.0
O403 O 0.348 0.89156 0.39471 0.0
O404 O 0.34512 0.91482 0.30414 0.0
O405 O 0.36206 0.86151 0.24903 0.0
O406 O 0.35466 0.76861 0.29899 0.0
O407 O 0.38089 0.78996 0.23105 0.0
H408 H 0.53148 0.8785 0.17574 0.0
H409 H 0.53073 0.92229 0.1043 0.0
H410 H 0.44473 1.00559 0.17042 0.0
H411 H 0.44304 0.95823 0.23845 0.0
H412 H 0.28147 0.85116 0.47159 0.0
H413 H 0.27564 0.78763 0.52375 0.0
H414 H 0.37187 0.72717 0.45416 0.0
H415 H 0.37401 0.78805 0.39837 0.0
La416 La 0.6901 0.10503 0.54115 0.0
La417 La 0.61286 0.11228 0.58388 0.0
C418 C 0.76616 0.11597 0.53473 0.0
C419 C 0.7924 0.08093 0.53609 0.0
C420 C 0.81093 0.06865 0.49233 0.0
C421 C 0.84055 1.04073 0.49439 0.0
C422 C 0.85232 1.02632 0.54082 0.0
C423 C 0.82992 1.03288 0.5824 0.0
C424 C 0.79972 0.06029 0.58 0.0
C425 C 0.6283 0.11266 0.47571 0.0
C426 C 0.62221 0.99217 0.53902 0.0
C427 C 0.53579 0.09888 0.58632 0.0
C428 C 0.50768 0.1312 0.58175 0.0
C429 C 0.48353 0.13774 0.6209 0.0
C430 C 0.45268 0.16351 0.61543 0.0
C431 C 0.44551 0.18179 0.57019 0.0
C432 C 0.4727 0.18002 0.53329 0.0
C433 C 0.50397 0.15464 0.53919 0.0
C434 C 0.67602 0.11006 0.65054 0.0
C435 C 0.68058 0.22515 0.58774 0.0
O436 O 0.73472 0.0996 0.49309 0.0
O437 O 0.75474 0.13355 0.57932 0.0
O438 O 0.65081 0.08068 0.46153 0.0
O439 O 0.64071 0.1365 0.52277 0.0
O440 O 0.66231 1.01653 0.53358 0.0
O441 O 0.59739 1.02214 0.55506 0.0
O442 O 0.56631 0.11783 0.62908 0.0
O443 O 0.54892 0.08124 0.54306 0.0
O444 O 0.65145 0.13957 0.66371 0.0
O445 O 0.66359 0.083 0.60405 0.0
O446 O 0.64002 0.20046 0.59127 0.0
O447 O 0.70587 0.19538 0.5722 0.0
H448 H 0.80401 0.08283 0.45752 0.0
H449 H 0.85621 1.03379 0.46101 0.0
H450 H 0.83746 1.01986 0.61778 0.0
H451 H 0.78405 0.0676 0.61329 0.0
H452 H 0.48741 0.12108 0.65468 0.0
H453 H 0.43307 0.16654 0.64529 0.0
H454 H 0.46857 0.1958 0.49892 0.0
H455 H 0.52364 0.15141 0.50964 0.0
La456 La 0.37795 0.38708 0.81294 0.0
La457 La 0.42594 0.3269 0.80182 0.0
C458 C 0.31014 0.41146 0.81517 0.0
C459 C 0.27433 0.40156 0.84184 0.0
C460 C 0.25516 0.44231 0.85199 0.0
C461 C 0.2191 0.43441 0.87468 0.0
C462 C 0.20151 0.38518 0.88679 0.0
C463 C 0.22234 0.3451 0.87953 0.0
C464 C 0.25908 0.35343 0.85709 0.0
C465 C 0.44634 0.46186 0.79812 0.0
C466 C 0.42371 0.37465 0.92012 0.0
C467 C 0.49339 0.30258 0.79584 0.0
C468 C 0.5267 0.32406 0.76895 0.0
C469 C 0.56065 0.30234 0.76547 0.0
C470 C 0.59444 0.32634 0.7433 0.0
C471 C 0.59412 0.37221 0.72498 0.0
C472 C 0.55876 0.39202 0.72586 0.0
C473 C 0.52499 0.36782 0.74782 0.0
C474 C 0.35737 0.25289 0.81678 0.0
C475 C 0.38219 0.34053 0.69452 0.0
O476 O 0.34721 0.44088 0.84601 0.0
O477 O 0.31264 0.37002 0.78017 0.0
O478 O 0.41252 0.47029 0.81318 0.0
O479 O 0.44411 0.41184 0.79608 0.0
O480 O 0.39528 0.39481 0.89876 0.0
O481 O 0.44313 0.34849 0.88865 0.0
O482 O 0.45631 0.2746 0.76425 0.0
O483 O 0.4899 0.33838 0.83613 0.0
O484 O 0.39098 0.24403 0.8016 0.0
O485 O 0.35975 0.3028 0.81908 0.0
O486 O 0.40953 0.31926 0.7161 0.0
O487 O 0.36286 0.36718 0.72578 0.0
H488 H 0.26762 0.48001 0.84134 0.0
H489 H 0.20428 0.46641 0.88114 0.0
H490 H 0.21003 0.30756 0.89047 0.0
H491 H 0.27486 0.32235 0.85066 0.0
H492 H 0.56136 0.2677 0.78068 0.0
H493 H 0.62085 0.30923 0.74075 0.0
H494 H 0.55762 0.42652 0.71058 0.0
H495 H 0.49795 0.38362 0.74896 0.0
La496 La 0.14205 0.14937 0.5783 0.0
La497 La 0.16558 0.0716 0.53252 0.0
C498 C 0.14304 0.24423 0.60951 0.0
C499 C 0.16226 0.28494 0.58424 0.0
C500 C 0.16471 0.33837 0.60439 0.0
C501 C 0.18468 0.37674 0.57982 0.0
C502 C 0.20206 0.36145 0.53496 0.0
C503 C 0.20021 0.30786 0.51559 0.0
C504 C 0.18059 0.26985 0.54052 0.0
C505 C 0.0826 0.06098 0.58798 0.0
C506 C 0.11726 0.11796 0.45042 0.0
C507 C 0.16798 0.97843 0.50026 0.0
C508 C 0.15081 0.93885 0.52722 0.0
C509 C 0.15063 0.88582 0.51041 0.0
C510 C 0.13175 0.84907 0.53727 0.0
C511 C 0.1136 0.86618 0.58081 0.0
C512 C 0.11484 0.91971 0.59789 0.0
C513 C 0.13227 0.95537 0.57017 0.0
C514 C 0.22424 0.16026 0.52316 0.0
C515 C 0.18852 0.10219 0.66107 0.0
O516 O 0.10877 0.20631 0.58006 0.0
O517 O 0.17164 0.22515 0.63103 0.0
O518 O 0.0961 0.10779 0.62142 0.0
O519 O 0.10026 0.0657 0.5477 0.0
O520 O 0.11518 0.151 0.49462 0.0
O521 O 0.13559 0.08059 0.45627 0.0
O522 O 0.20168 1.01763 0.52903 0.0
O523 O 0.13788 0.99567 0.47929 0.0
O524 O 0.20994 0.11429 0.48862 0.0
O525 O 0.20722 0.15456 0.56356 0.0
O526 O 0.19206 0.0704 0.61683 0.0
O527 O 0.16977 0.1392 0.65513 0.0
H528 H 0.15085 0.35017 0.63837 0.0
H529 H 0.1849 0.41806 0.59455 0.0
H530 H 0.2118 0.29493 0.47992 0.0
H531 H 0.17914 0.22856 0.52508 0.0
H532 H 0.16444 0.87303 0.47672 0.0
H533 H 0.1313 0.80752 0.52392 0.0
H534 H 0.10176 0.93385 0.6319 0.0
H535 H 0.13046 0.99564 0.58183 0.0
La536 La 0.44581 0.90222 0.80342 0.0
La537 La 0.36435 0.82102 0.80187 0.0
C538 C 0.52106 0.96488 0.82608 0.0
C539 C 0.56003 0.94852 0.83228 0.0
C540 C 0.58747 0.95393 0.79571 0.0
C541 C 0.62059 0.93022 0.79651 0.0
C542 C 0.62567 0.89982 0.83294 0.0
C543 C 0.59658 0.89238 0.86759 0.0
C544 C 0.56518 0.91787 0.86843 0.0
C545 C 0.40598 0.84271 0.71069 0.0
C546 C 0.4487 0.77764 0.80924 0.0
C547 C 0.28981 0.75712 0.77588 0.0
C548 C 0.24891 0.76882 0.77617 0.0
C549 C 0.22928 0.76705 0.82033 0.0
C550 C 0.19138 0.78068 0.82173 0.0
C551 C 0.17325 0.79651 0.7793 0.0
C552 C 0.1939 0.80108 0.73644 0.0
C553 C 0.2312 0.78648 0.73446 0.0
C554 C 0.40458 0.88098 0.89428 0.0
C555 C 0.36068 0.94627 0.80238 0.0
O556 O 0.49812 0.94774 0.77786 0.0
O557 O 0.4972 0.95706 0.86174 0.0
O558 O 0.42249 0.89466 0.7201 0.0
O559 O 0.40999 0.82742 0.75203 0.0
O560 O 0.47145 0.83034 0.81547 0.0
O561 O 0.40546 0.76553 0.80145 0.0
O562 O 0.31402 0.76756 0.8228 0.0
O563 O 0.31179 0.77445 0.74134 0.0
O564 O 0.38636 0.82946 0.88604 0.0
O565 O 0.40043 0.89515 0.85262 0.0
O566 O 0.33782 0.89378 0.7967 0.0
O567 O 0.40394 0.9576 0.80757 0.0
H568 H 0.58307 0.97613 0.76647 0.0
H569 H 0.64299 0.93691 0.76999 0.0
H570 H 0.59977 0.86989 0.89692 0.0
H571 H 0.54423 0.91202 0.89665 0.0
H572 H 0.24259 0.7539 0.85313 0.0
H573 H 0.17469 0.77535 0.85403 0.0
H574 H 0.17907 0.81101 0.70221 0.0
H575 H 0.24559 0.78817 0.69987 0.0
La576 La 0.648 0.08456 0.07818 0.0
La577 La 0.65361 0.15933 0.04008 0.0
C578 C 0.61131 1.01249 0.11709 0.0
C579 C 0.60373 1.01871 0.16941 0.0
C580 C 0.61683 0.98629 0.19884 0.0
C581 C 0.61004 0.99156 0.24965 0.0
C582 C 0.59012 1.02934 0.27057 0.0
C583 C 0.57827 0.06333 0.24139 0.0
C584 C 0.58549 0.0584 0.19094 0.0
C585 C 0.69375 0.06821 1.00484 0.0
C586 C 0.56815 0.07959 0.99995 0.0
C587 C 0.67077 0.21952 0.98148 0.0
C588 C 0.69958 0.22277 0.9458 0.0
C589 C 0.70147 0.26197 0.91837 0.0
C590 C 0.72162 0.26008 0.87588 0.0
C591 C 0.73968 0.21847 0.86055 0.0
C592 C 0.73944 0.18004 0.88987 0.0
C593 C 0.719 0.18201 0.93256 0.0
C594 C 0.60957 0.17754 0.11538 0.0
C595 C 0.73485 0.16378 0.12062 0.0
O596 O 0.65202 1.02301 0.11417 0.0
O597 O 0.59054 1.03562 0.08882 0.0
O598 O 0.70183 0.06148 0.05152 0.0
O599 O 0.65991 0.08296 1.00026 0.0
O600 O 0.5927 0.05092 1.01236 0.0
O601 O 0.58567 0.13075 1.00957 0.0
O602 O 0.6883 0.23482 0.03187 0.0
O603 O 0.64026 0.17318 0.96707 0.0
O604 O 0.6033 0.18652 0.06975 0.0
O605 O 0.64259 0.16104 0.12056 0.0
O606 O 0.71914 0.18568 0.08554 0.0
O607 O 0.70932 0.12282 0.132 0.0
H608 H 0.63167 0.95649 0.1822 0.0
H609 H 0.61944 0.96521 0.27188 0.0
H610 H 0.563 0.09311 0.25696 0.0
H611 H 0.57585 0.08455 0.16863 0.0
H612 H 0.68562 0.29256 0.92831 0.0
H613 H 0.72127 0.29004 0.85382 0.0
H614 H 0.75316 0.14749 0.87865 0.0
H615 H 0.71688 0.15104 0.9538 0.0
La616 La 0.43686 0.4122 0.34135 0.0
La617 La 0.36766 0.30445 0.27208 0.0
C618 C 0.46917 0.50966 0.3482 0.0
C619 C 0.44073 0.54237 0.33905 0.0
C620 C 0.43177 0.5759 0.38204 0.0
C621 C 0.3951 0.5929 0.37553 0.0
C622 C 0.3671 0.57579 0.32625 0.0
C623 C 0.37779 0.54583 0.28244 0.0
C624 C 0.41431 0.52955 0.28869 0.0
C625 C 0.40209 0.35106 0.40413 0.0
C626 C 0.33177 0.39232 0.32789 0.0
C627 C 0.33753 0.20662 0.2633 0.0
C628 C 0.36799 0.17722 0.27574 0.0
C629 C 0.37824 0.14233 0.23504 0.0
C630 C 0.41434 0.12487 0.24499 0.0
C631 C 0.44074 0.14296 0.29553 0.0
C632 C 0.43035 0.17735 0.33626 0.0
C633 C 0.39427 0.19394 0.32663 0.0
C634 C 0.40493 0.36527 0.20939 0.0
C635 C 0.47092 0.32058 0.29008 0.0
O636 O 0.4666 0.49081 0.38993 0.0
O637 O 0.46784 0.47203 0.30669 0.0
O638 O 0.4359 0.39422 0.42002 0.0
O639 O 0.39516 0.34172 0.35352 0.0
O640 O 0.37247 0.42471 0.34689 0.0
O641 O 0.32166 0.34515 0.29267 0.0
O642 O 0.3418 0.22609 0.22218 0.0
O643 O 0.33437 0.2427 0.3035 0.0
O644 O 0.37141 0.32182 0.19313 0.0
O645 O 0.41047 0.37435 0.25992 0.0
O646 O 0.43024 0.2893 0.27367 0.0
O647 O 0.48284 0.37069 0.32011 0.0
H648 H 0.45182 0.58652 0.421 0.0
H649 H 0.38764 0.61732 0.40929 0.0
H650 H 0.35743 0.53386 0.2434 0.0
H651 H 0.42008 0.50399 0.25437 0.0
H652 H 0.35897 0.12975 0.19544 0.0
H653 H 0.42182 0.0978 0.2133 0.0
H654 H 0.44969 0.19096 0.37601 0.0
H655 H 0.38816 0.22169 0.35895 0.0
La656 La 0.64214 0.64935 0.0785 0.0
La657 La 0.66562 0.57148 0.03266 0.0
C658 C 0.64332 0.74429 0.10982 0.0
C659 C 0.66258 0.78509 0.08465 0.0
C660 C 0.6652 0.83854 0.10503 0.0
C661 C 0.68532 0.87702 0.08066 0.0
C662 C 0.70269 0.86185 0.03577 0.0
C663 C 0.70061 0.80821 1.01611 0.0
C664 C 0.68085 0.77007 0.04084 0.0
C665 C 0.58262 0.56092 0.08814 0.0
C666 C 0.61737 0.6181 0.95064 0.0
C667 C 0.66791 0.4782 1.00041 0.0
C668 C 0.65062 0.43852 1.02727 0.0
C669 C 0.64969 0.38522 1.00987 0.0
C670 C 0.63007 0.34823 0.03614 0.0
C671 C 0.61196 0.36538 0.07969 0.0
C672 C 0.61431 0.41923 0.09765 0.0
C673 C 0.63233 0.45511 0.07043 0.0
C674 C 0.7243 0.66012 1.02329 0.0
C675 C 0.68855 0.6021 0.16124 0.0
O676 O 0.60901 0.70646 0.08036 0.0
O677 O 0.67188 0.7251 0.13126 0.0
O678 O 0.5961 0.60776 0.12155 0.0
O679 O 0.60031 0.56566 0.04789 0.0
O680 O 0.61532 0.65113 0.99486 0.0
O681 O 0.63564 0.58065 0.95646 0.0
O682 O 0.7016 0.51737 1.02922 0.0
O683 O 0.63787 0.49555 0.97942 0.0
O684 O 0.71 0.61413 0.98877 0.0
O685 O 0.70728 0.65442 0.0637 0.0
O686 O 0.69217 0.57038 0.117 0.0
O687 O 0.66978 0.63909 0.15532 0.0
H688 H 0.6514 0.85028 0.13908 0.0
H689 H 0.68571 0.91838 0.09565 0.0
H690 H 0.7122 0.79538 0.98041 0.0
H691 H 0.67929 0.72877 1.02522 0.0
H692 H 0.66331 0.37235 0.97602 0.0
H693 H 0.62895 0.30648 1.02228 0.0
H694 H 0.60123 0.43337 0.13165 0.0
H695 H 0.63088 0.49552 0.08243 0.0
La696 La 0.94548 0.40165 0.30405 0.0
La697 La 0.86376 0.32059 0.30189 0.0
C698 C 1.02086 0.46404 0.32774 0.0
C699 C 0.05963 0.44724 0.33314 0.0
C700 C 0.08831 0.45628 0.29849 0.0
C701 C 0.12139 0.43253 0.29798 0.0
C702 C 0.12536 0.39873 0.33134 0.0
C703 C 0.09495 0.3876 0.36383 0.0
C704 C 0.06341 0.41289 0.36592 0.0
C705 C 0.90593 0.34242 0.21103 0.0
C706 C 0.94792 0.27671 0.30916 0.0
C707 C 0.7892 0.25672 0.27512 0.0
C708 C 0.74826 0.26828 0.2755 0.0
C709 C 0.72861 0.26621 0.31962 0.0
C710 C 0.6907 0.27978 0.32117 0.0
C711 C 0.67259 0.29586 0.27892 0.0
C712 C 0.69322 0.30066 0.23607 0.0
C713 C 0.73052 0.2861 0.23394 0.0
C714 C 0.90364 0.38049 0.39465 0.0
C715 C 0.86044 0.44595 0.3026 0.0
O716 O 0.998 0.44805 0.27951 0.0
O717 O 0.99693 0.45531 0.36314 0.0
O718 O 0.9228 0.39434 0.22054 0.0
O719 O 0.90964 0.32701 0.25236 0.0
O720 O 0.97082 0.32932 0.31532 0.0
O721 O 0.90469 0.26489 0.3015 0.0
O722 O 0.81327 0.2666 0.32202 0.0
O723 O 0.81132 0.2747 0.24096 0.0
O724 O 0.88515 0.32899 0.38622 0.0
O725 O 0.89984 0.39464 0.35292 0.0
O726 O 0.83744 0.39348 0.2967 0.0
O727 O 0.90372 0.45717 0.30805 0.0
H728 H 0.08494 0.48139 0.27175 0.0
H729 H 0.14477 0.44206 0.27316 0.0
H730 H 0.0972 0.36236 0.39076 0.0
H731 H 0.04139 0.40417 0.39247 0.0
H732 H 0.74192 0.2529 0.3523 0.0
H733 H 0.67401 0.27427 0.35343 0.0
H734 H 0.6784 0.31076 0.20196 0.0
H735 H 0.74491 0.28798 0.19937 0.0
La736 La 0.14696 0.584 0.57702 0.0
La737 La 0.15264 0.65852 0.53962 0.0
C738 C 0.10982 0.51204 0.61576 0.0
C739 C 0.10282 0.51776 0.66831 0.0
C740 C 0.11565 0.48436 0.69668 0.0
C741 C 0.10906 0.48871 0.74749 0.0
C742 C 0.08963 0.52658 0.76952 0.0
C743 C 0.0781 0.56162 0.74146 0.0
C744 C 0.08509 0.55757 0.69096 0.0
C745 C 0.19232 0.56709 0.50334 0.0
C746 C 0.06694 0.57922 0.49919 0.0
C747 C 0.17099 0.7212 0.48362 0.0
C748 C 0.20019 0.72495 0.44846 0.0
C749 C 0.20053 0.7627 0.41953 0.0
C750 C 0.21858 0.75881 0.37536 0.0
C751 C 0.23622 0.7168 0.36004 0.0
C752 C 0.23822 0.68044 0.39122 0.0
C753 C 0.21974 0.68428 0.4355 0.0
C754 C 0.10874 0.67647 0.61521 0.0
C755 C 0.23414 0.66189 0.61902 0.0
O756 O 0.15032 0.52156 0.61199 0.0
O757 O 0.08936 0.53628 0.5885 0.0
O758 O 0.20042 0.56034 0.55003 0.0
O759 O 0.15866 0.58227 0.49884 0.0
O760 O 0.09172 0.55063 0.51108 0.0
O761 O 0.08455 0.63043 0.50888 0.0
O762 O 0.18807 0.73486 0.53404 0.0
O763 O 0.14007 0.67523 0.46785 0.0
O764 O 0.10175 0.68437 0.56922 0.0
O765 O 0.14203 0.6605 0.62024 0.0
O766 O 0.21865 0.68343 0.5835 0.0
O767 O 0.20836 0.62145 0.63084 0.0
H768 H 0.13007 0.45445 0.67917 0.0
H769 H 0.11823 0.46161 0.76887 0.0
H770 H 0.06322 0.59149 0.75794 0.0
H771 H 0.07567 0.58447 0.66949 0.0
H772 H 0.18464 0.79326 0.42933 0.0
H773 H 0.217 0.78757 0.35218 0.0
H774 H 0.25191 0.64783 0.38019 0.0
H775 H 0.2187 0.65434 0.45787 0.0
La776 La 0.87823 0.88665 0.31285 0.0
La777 La 0.92624 0.82655 0.30176 0.0
C778 C 0.81042 0.91092 0.31491 0.0
C779 C 0.77476 0.90098 0.34175 0.0
C780 C 0.75569 0.94177 0.35218 0.0
C781 C 0.71965 0.93374 0.37483 0.0
C782 C 0.70191 0.88429 0.38651 0.0
C783 C 0.72283 0.84433 0.37934 0.0
C784 C 0.75959 0.8528 0.35695 0.0
C785 C 0.94649 0.96145 0.29805 0.0
C786 C 0.92389 0.87428 0.42008 0.0
C787 C 0.99382 0.80249 0.29551 0.0
C788 C 1.02724 0.82379 0.26853 0.0
C789 C 0.06131 0.80218 0.26565 0.0
C790 C 0.09528 0.82597 0.24355 0.0
C791 C 0.09502 0.87144 0.22456 0.0
C792 C 0.05954 0.89114 0.2248 0.0
C793 C 1.02562 0.86727 0.24687 0.0
C794 C 0.85765 0.75254 0.31689 0.0
C795 C 0.88236 0.84008 0.19447 0.0
O796 O 0.84748 0.9405 0.34566 0.0
O797 O 0.81294 0.86944 0.27996 0.0
O798 O 0.91277 0.96989 0.31337 0.0
O799 O 0.94434 0.91142 0.29583 0.0
O800 O 0.89542 0.89435 0.39866 0.0
O801 O 0.94339 0.84818 0.38865 0.0
O802 O 0.9567 0.7744 0.26406 0.0
O803 O 0.99035 0.83834 0.33576 0.0
O804 O 0.89133 0.7437 0.30188 0.0
O805 O 0.86004 0.80241 0.319 0.0
O806 O 0.9096 0.81866 0.21602 0.0
O807 O 0.86315 0.86688 0.22574 0.0
H808 H 0.76816 0.97955 0.34167 0.0
H809 H 0.70486 0.96578 0.38134 0.0
H810 H 0.71044 0.80664 0.39001 0.0
H811 H 0.77538 0.82173 0.35038 0.0
H812 H 0.06201 0.7678 0.28129 0.0
H813 H 0.12178 0.80897 0.2415 0.0
H814 H 0.05848 0.92536 0.20901 0.0
H815 H 0.99856 0.8831 0.24769 0.0
La816 La 0.92435 0.3611 0.79185 0.0
La817 La 0.87485 0.35294 0.8313 0.0
C818 C 0.98168 0.37099 0.73919 0.0
C819 C 0.98701 0.40428 0.70444 0.0
C820 C 1.01218 0.39662 0.6672 0.0
C821 C 1.01382 0.42637 0.63034 0.0
C822 C 0.99121 0.46442 0.63254 0.0
C823 C 0.96662 0.47254 0.67123 0.0
C824 C 0.96386 0.44162 0.70649 0.0
C825 C 0.96296 0.33286 0.87341 0.0
C826 C 0.93392 0.46045 0.86883 0.0
C827 C 0.83236 0.3575 0.90163 0.0
C828 C 0.83413 0.32767 0.93912 0.0
C829 C 0.80567 0.32698 0.97299 0.0
C830 C 0.79865 0.28662 0.99844 0.0
C831 C 0.82169 0.24885 0.99161 0.0
C832 C 0.85218 0.25177 0.95941 0.0
C833 C 0.85817 0.29125 0.933 0.0
C834 C 0.8343 0.38459 0.75334 0.0
C835 C 0.85679 0.25328 0.74743 0.0
O836 O 0.98781 0.39894 0.78765 0.0
O837 O 0.94562 0.33112 0.72425 0.0
O838 O 0.97787 0.37497 0.85742 0.0
O839 O 0.92327 0.31032 0.84804 0.0
O840 O 0.92583 0.44511 0.81787 0.0
O841 O 0.9221 0.42034 0.88903 0.0
O842 O 0.81646 0.326 0.85437 0.0
O843 O 0.86885 0.394 0.90527 0.0
O844 O 0.81732 0.35276 0.78012 0.0
O845 O 0.87587 0.39972 0.76867 0.0
O846 O 0.85285 0.26646 0.79634 0.0
O847 O 0.88247 0.29026 0.73136 0.0
H848 H 1.0293 0.36687 0.66574 0.0
H849 H 1.03207 0.41898 0.59974 0.0
H850 H 0.94797 0.50073 0.67284 0.0
H851 H 0.94302 0.44621 0.73422 0.0
H852 H 0.78614 0.35413 0.97589 0.0
H853 H 0.7726 0.28309 1.01964 0.0
H854 H 0.86979 0.22255 0.9529 0.0
H855 H 0.87908 0.29076 0.9053 0.0
La856 La 0.93738 0.91245 0.84205 0.0
La857 La 0.86774 0.8059 0.77189 0.0
C858 C 0.97025 1.00978 0.8495 0.0
C859 C 0.94165 1.04178 0.83883 0.0
C860 C 0.93294 0.07678 0.88088 0.0
C861 C 0.89635 0.09379 0.87344 0.0
C862 C 0.86814 0.07512 0.82424 0.0
C863 C 0.87824 1.04295 0.78142 0.0
C864 C 0.91467 1.02667 0.78855 0.0
C865 C 0.90213 0.85118 0.90424 0.0
C866 C 0.83214 0.89321 0.8284 0.0
C867 C 0.84021 0.70797 0.76419 0.0
C868 C 0.87264 0.68106 0.7748 0.0
C869 C 0.87243 0.63332 0.74009 0.0
C870 C 0.90708 0.61277 0.74834 0.0
C871 C 0.94265 0.64124 0.79005 0.0
C872 C 0.94338 0.69007 0.82316 0.0
C873 C 0.90843 0.70894 0.81644 0.0
C874 C 0.90486 0.86674 0.70964 0.0
C875 C 0.97166 0.82261 0.78879 0.0
O876 O 0.96627 0.99087 0.89097 0.0
O877 O 0.97039 0.97234 0.8086 0.0
O878 O 0.93622 0.89398 0.92043 0.0
O879 O 0.89517 0.84225 0.85362 0.0
O880 O 0.87298 0.92522 0.84761 0.0
O881 O 0.82175 0.84629 0.79272 0.0
O882 O 0.84169 0.72719 0.72272 0.0
O883 O 0.83803 0.7437 0.80529 0.0
O884 O 0.87083 0.82375 0.69319 0.0
O885 O 0.91092 0.87572 0.76028 0.0
O886 O 0.93095 0.79357 0.76796 0.0
O887 O 0.98352 0.87057 0.8229 0.0
H888 H 0.95313 0.0886 0.91991 0.0
H889 H 0.88924 0.11968 0.90643 0.0
H890 H 0.85763 1.02951 0.74243 0.0
H891 H 0.92 0.99955 0.75505 0.0
H892 H 0.84572 0.61222 0.70694 0.0
H893 H 0.90591 0.57466 0.72258 0.0
H894 H 0.97018 0.71302 0.85579 0.0
H895 H 0.91031 0.74664 0.8434 0.0
La896 La 0.61963 0.57075 0.52679 0.0
La897 La 0.68416 0.64434 0.58703 0.0
C898 C 0.53869 0.52595 0.50335 0.0
C899 C 0.50414 0.55068 0.51413 0.0
C900 C 0.46076 0.51968 0.49617 0.0
C901 C 0.42753 0.54133 0.50581 0.0
C902 C 0.43708 0.59369 0.53778 0.0
C903 C 0.48046 0.62476 0.55862 0.0
C904 C 0.51378 0.60329 0.54694 0.0
C905 C 0.68172 0.58818 0.46411 0.0
C906 C 0.61954 0.69589 0.536 0.0
C907 C 0.76524 0.68866 0.6102 0.0
C908 C 0.80014 0.66381 0.60264 0.0
C909 C 0.8434 0.69599 0.618 0.0
C910 C 0.87692 0.67389 0.61128 0.0
C911 C 0.86755 0.61968 0.58404 0.0
C912 C 0.82419 0.58753 0.56538 0.0
C913 C 0.7908 0.60958 0.57428 0.0
C914 C 0.62181 0.62673 0.649 0.0
C915 C 0.68429 0.51996 0.57968 0.0
O916 O 0.56152 0.54129 0.4691 0.0
O917 O 0.56341 0.52491 0.54556 0.0
O918 O 0.65497 0.54138 0.46408 0.0
O919 O 0.67116 0.62258 0.49903 0.0
O920 O 0.60114 0.64366 0.51269 0.0
O921 O 0.65611 0.70872 0.57097 0.0
O922 O 0.74208 0.67627 0.64517 0.0
O923 O 0.74082 0.68627 0.56631 0.0
O924 O 0.64832 0.67369 0.64904 0.0
O925 O 0.63265 0.59236 0.61448 0.0
O926 O 0.70168 0.57202 0.60392 0.0
O927 O 0.6485 0.50695 0.54328 0.0
H928 H 0.4524 0.47811 0.47589 0.0
H929 H 0.39427 0.5162 0.48998 0.0
H930 H 0.48855 0.66527 0.58397 0.0
H931 H 0.54669 0.62694 0.56561 0.0
H932 H 0.85132 0.73869 0.63403 0.0
H933 H 0.91009 0.70006 0.62471 0.0
H934 H 0.81609 0.54583 0.5429 0.0
H935 H 0.75812 0.58503 0.55601 0.0
La936 La 0.18903 0.60362 0.04086 0.0
La937 La 0.11224 0.61089 0.08406 0.0
C938 C 0.26522 0.6151 0.03443 0.0
C939 C 0.29195 0.58063 0.03608 0.0
C940 C 0.31089 0.56887 0.99258 0.0
C941 C 0.3408 0.54137 0.99484 0.0
C942 C 0.35246 0.5268 0.04122 0.0
C943 C 0.32982 0.53301 0.0826 0.0
C944 C 0.29935 0.56003 0.08001 0.0
C945 C 0.12668 0.61042 0.97555 0.0
C946 C 0.12134 0.49068 0.03899 0.0
C947 C 1.03525 0.59779 0.08673 0.0
C948 C 1.00737 0.63041 0.08216 0.0
C949 C 0.98319 0.6371 0.12123 0.0
C950 C 0.95241 0.66296 0.11563 0.0
C951 C 0.94537 0.68121 0.07035 0.0
C952 C 0.97265 0.67936 0.03356 0.0
C953 C 1.00386 0.6539 0.0396 0.0
C954 C 0.1758 0.60871 0.15046 0.0
C955 C 0.17963 0.72377 0.08801 0.0
O956 O 0.23371 0.59816 0.99283 0.0
O957 O 0.25375 0.63273 0.07897 0.0
O958 O 0.14924 0.57847 0.96145 0.0
O959 O 0.13944 0.63494 1.02246 0.0
O960 O 0.16156 0.51529 0.03407 0.0
O961 O 0.09635 0.52057 0.0547 0.0
O962 O 0.0658 0.61651 0.12945 0.0
O963 O 0.04826 0.58001 0.04343 0.0
O964 O 0.15131 0.6383 0.16375 0.0
O965 O 0.16307 0.58156 0.10402 0.0
O966 O 0.13926 0.69926 0.09219 0.0
O967 O 0.20458 0.69387 0.07159 0.0
H968 H 0.30398 0.58307 0.95778 0.0
H969 H 0.35668 0.53475 0.96161 0.0
H970 H 0.3373 0.51991 0.11795 0.0
H971 H 0.28343 0.56699 0.11313 0.0
H972 H 0.98694 0.62043 0.15503 0.0
H973 H 0.93274 0.66607 0.14543 0.0
H974 H 0.96865 0.69515 0.99918 0.0
H975 H 1.02362 0.65063 1.01014 0.0
loop_
_geom_bond_atom_site_label_1
_geom_bond_atom_site_label_2
_geom_bond_distance
_geom_bond_site_symmetry_2
_ccdc_geom_bond_type
Zn0 O3 2.031 . S
Zn0 O5 2.049 . S
Zn0 O10 2.067 . S
Zn1 O2 1.962 . S
Zn1 O4 1.986 . S
Zn1 O6 1.996 . S
Zn1 O9 1.943 . S
O2 Zn1 1.962 . S
O2 C7 1.254 . S
O3 Zn0 2.031 . S
O3 C7 1.269 . S
O4 Zn1 1.986 . S
O4 C11 1.262 . S
O5 Zn0 2.049 . S
O5 C13 1.260 . S
O6 Zn1 1.996 . S
O6 C13 1.257 . S
C7 O2 1.254 . S
C7 O3 1.269 . S
C8 O9 1.249 . S
C8 O10 1.270 . S
O9 Zn1 1.943 . S
O9 C8 1.249 . S
O10 Zn0 2.067 . S
O10 C8 1.270 . S
C11 O4 1.262 . S
C11 O12 1.232 . S
O12 C11 1.232 . S
C13 O5 1.260 . S
C13 O6 1.257 . S
Zn14 O17 2.031 1_455 S
Zn14 O19 2.049 . S
Zn14 O24 2.067 1_455 S
Zn15 O16 1.962 1_455 S
Zn15 O18 1.986 . S
Zn15 O20 1.996 . S
Zn15 O23 1.943 1_455 S
O16 Zn15 1.962 1_655 S
O16 C21 1.254 . S
O17 Zn14 2.031 1_655 S
O17 C21 1.269 . S
O18 Zn15 1.986 . S
O18 C25 1.262 . S
O19 Zn14 2.049 . S
O19 C27 1.260 . S
O20 Zn15 1.996 . S
O20 C27 1.257 . S
C21 O16 1.254 . S
C21 O17 1.269 . S
C22 O23 1.249 . S
C22 O24 1.270 . S
O23 Zn15 1.943 1_655 S
O23 C22 1.249 . S
O24 Zn14 2.067 1_655 S
O24 C22 1.270 . S
C25 O18 1.262 . S
C25 O26 1.232 1_455 S
O26 C25 1.232 1_655 S
C27 O19 1.260 . S
C27 O20 1.257 . S
Zn28 O31 2.031 1_565 S
Zn28 O33 2.049 . S
Zn28 O38 2.067 . S
Zn29 O30 1.962 1_565 S
Zn29 O32 1.986 . S
Zn29 O34 1.996 . S
Zn29 O37 1.943 . S
O30 Zn29 1.962 1_545 S
O30 C35 1.254 . S
O31 Zn28 2.031 1_545 S
O31 C35 1.269 . S
O32 Zn29 1.986 . S
O32 C39 1.262 . S
O33 Zn28 2.049 . S
O33 C41 1.260 . S
O34 Zn29 1.996 . S
O34 C41 1.257 . S
C35 O30 1.254 . S
C35 O31 1.269 . S
C36 O37 1.249 . S
C36 O38 1.270 . S
O37 Zn29 1.943 . S
O37 C36 1.249 . S
O38 Zn28 2.067 . S
O38 C36 1.270 . S
C39 O32 1.262 . S
C39 O40 1.232 . S
O40 C39 1.232 . S
C41 O33 1.260 . S
C41 O34 1.257 . S
Zn42 O45 2.031 . S
Zn42 O47 2.049 . S
Zn42 O52 2.067 . S
Zn43 O44 1.962 . S
Zn43 O46 1.986 . S
Zn43 O48 1.996 . S
Zn43 O51 1.943 . S
O44 Zn43 1.962 . S
O44 C49 1.254 . S
O45 Zn42 2.031 . S
O45 C49 1.269 . S
O46 Zn43 1.986 . S
O46 C53 1.262 . S
O47 Zn42 2.049 . S
O47 C55 1.260 . S
O48 Zn43 1.996 . S
O48 C55 1.257 . S
C49 O44 1.254 . S
C49 O45 1.269 . S
C50 O51 1.249 . S
C50 O52 1.270 . S
O51 Zn43 1.943 . S
O51 C50 1.249 . S
O52 Zn42 2.067 . S
O52 C50 1.270 . S
C53 O46 1.262 . S
C53 O54 1.232 . S
O54 C53 1.232 . S
C55 O47 1.260 . S
C55 O48 1.257 . S
Zn56 O59 2.031 . S
Zn56 O61 2.049 . S
Zn56 O66 2.067 . S
Zn57 O58 1.962 . S
Zn57 O60 1.986 . S
Zn57 O62 1.996 . S
Zn57 O65 1.943 . S
O58 Zn57 1.962 . S
O58 C63 1.254 . S
O59 Zn56 2.031 . S
O59 C63 1.269 . S
O60 Zn57 1.986 . S
O60 C67 1.262 . S
O61 Zn56 2.049 . S
O61 C69 1.260 . S
O62 Zn57 1.996 . S
O62 C69 1.257 . S
C63 O58 1.254 . S
C63 O59 1.269 . S
C64 O65 1.249 . S
C64 O66 1.270 . S
O65 Zn57 1.943 . S
O65 C64 1.249 . S
O66 Zn56 2.067 . S
O66 C64 1.270 . S
C67 O60 1.262 . S
C67 O68 1.232 . S
O68 C67 1.232 . S
C69 O61 1.260 . S
C69 O62 1.257 . S
Zn70 O73 2.031 . S
Zn70 O75 2.049 . S
Zn70 O80 2.067 . S
Zn71 O72 1.962 . S
Zn71 O74 1.986 . S
Zn71 O76 1.996 . S
Zn71 O79 1.943 . S
O72 Zn71 1.962 . S
O72 C77 1.254 . S
O73 Zn70 2.031 . S
O73 C77 1.269 . S
O74 Zn71 1.986 . S
O74 C81 1.262 . S
O75 Zn70 2.049 . S
O75 C83 1.260 . S
O76 Zn71 1.996 . S
O76 C83 1.257 . S
C77 O72 1.254 . S
C77 O73 1.269 . S
C78 O79 1.249 . S
C78 O80 1.270 . S
O79 Zn71 1.943 . S
O79 C78 1.249 . S
O80 Zn70 2.067 . S
O80 C78 1.270 . S
C81 O74 1.262 . S
C81 O82 1.232 . S
O82 C81 1.232 . S
C83 O75 1.260 . S
C83 O76 1.257 . S
Zn84 O87 2.031 . S
Zn84 O89 2.049 . S
Zn84 O94 2.067 . S
Zn85 O86 1.962 . S
Zn85 O88 1.986 . S
Zn85 O90 1.996 . S
Zn85 O93 1.943 . S
O86 Zn85 1.962 . S
O86 C91 1.254 . S
O87 Zn84 2.031 . S
O87 C91 1.269 . S
O88 Zn85 1.986 . S
O88 C95 1.262 . S
O89 Zn84 2.049 . S
O89 C97 1.260 . S
O90 Zn85 1.996 . S
O90 C97 1.257 . S
C91 O86 1.254 . S
C91 O87 1.269 . S
C92 O93 1.249 . S
C92 O94 1.270 . S
O93 Zn85 1.943 . S
O93 C92 1.249 . S
O94 Zn84 2.067 . S
O94 C92 1.270 . S
C95 O88 1.262 . S
C95 O96 1.232 . S
O96 C95 1.232 . S
C97 O89 1.260 . S
C97 O90 1.257 . S
Zn98 O101 2.028 1_655 S
Zn98 O103 2.039 . S
Zn98 O108 2.074 1_554 S
Zn99 O100 1.962 1_556 S
Zn99 O102 1.986 . S
Zn99 O104 1.996 . S
Zn99 O107 1.943 . S
O100 Zn99 1.962 1_554 S
O100 C105 1.254 . S
O101 Zn98 2.028 1_455 S
O101 C105 1.269 . S
O102 Zn99 1.986 . S
O102 C109 1.262 . S
O103 Zn98 2.039 . S
O103 C111 1.258 1_655 S
O104 Zn99 1.996 . S
O104 C111 1.257 1_556 S
C105 O100 1.254 . S
C105 O101 1.269 . S
C106 O107 1.249 1_655 S
C106 O108 1.270 . S
O107 Zn99 1.943 . S
O107 C106 1.249 1_455 S
O108 Zn98 2.074 1_556 S
O108 C106 1.270 . S
C109 O102 1.262 . S
C109 O110 1.232 . S
O110 C109 1.232 . S
C111 O103 1.258 1_455 S
C111 O104 1.257 1_554 S
Zn112 O115 2.031 . S
Zn112 O117 2.049 . S
Zn112 O122 2.067 . S
Zn113 O114 1.962 . S
Zn113 O116 1.986 . S
Zn113 O118 1.996 . S
Zn113 O121 1.943 1_545 S
O114 Zn113 1.962 . S
O114 C119 1.254 . S
O115 Zn112 2.031 . S
O115 C119 1.269 1_565 S
O116 Zn113 1.986 . S
O116 C123 1.262 . S
O117 Zn112 2.049 . S
O117 C125 1.260 . S
O118 Zn113 1.996 . S
O118 C125 1.257 1_545 S
C119 O114 1.254 . S
C119 O115 1.269 1_545 S
C120 O121 1.249 . S
C120 O122 1.270 . S
O121 Zn113 1.943 1_565 S
O121 C120 1.249 . S
O122 Zn112 2.067 . S
O122 C120 1.270 . S
C123 O116 1.262 . S
C123 O124 1.232 . S
O124 C123 1.232 . S
C125 O117 1.260 . S
C125 O118 1.257 1_565 S
Zn126 O129 2.031 . S
Zn126 O131 2.049 . S
Zn126 O136 2.067 . S
Zn127 O128 1.962 . S
Zn127 O130 1.986 . S
Zn127 O132 1.996 . S
Zn127 O135 1.943 . S
O128 Zn127 1.962 . S
O128 C133 1.254 . S
O129 Zn126 2.031 . S
O129 C133 1.269 . S
O130 Zn127 1.986 . S
O130 C137 1.262 . S
O131 Zn126 2.049 . S
O131 C139 1.260 . S
O132 Zn127 1.996 . S
O132 C139 1.257 . S
C133 O128 1.254 . S
C133 O129 1.269 . S
C134 O135 1.249 . S
C134 O136 1.270 . S
O135 Zn127 1.943 . S
O135 C134 1.249 . S
O136 Zn126 2.067 . S
O136 C134 1.270 . S
C137 O130 1.262 . S
C137 O138 1.232 . S
O138 C137 1.232 . S
C139 O131 1.260 . S
C139 O132 1.257 . S
Zn140 O143 2.031 . S
Zn140 O145 2.049 . S
Zn140 O150 2.067 . S
Zn141 O142 1.962 . S
Zn141 O144 1.986 1_545 S
Zn141 O146 1.996 . S
Zn141 O149 1.943 . S
O142 Zn141 1.962 . S
O142 C147 1.254 . S
O143 Zn140 2.031 . S
O143 C147 1.269 . S
O144 Zn141 1.986 1_565 S
O144 C151 1.262 . S
O145 Zn140 2.049 . S
O145 C153 1.260 . S
O146 Zn141 1.996 . S
O146 C153 1.257 . S
C147 O142 1.254 . S
C147 O143 1.269 . S
C148 O149 1.249 . S
C148 O150 1.270 . S
O149 Zn141 1.943 . S
O149 C148 1.249 . S
O150 Zn140 2.067 . S
O150 C148 1.270 . S
C151 O144 1.262 . S
C151 O152 1.232 . S
O152 C151 1.232 . S
C153 O145 1.260 . S
C153 O146 1.257 . S
Zn154 O157 2.031 1_554 S
Zn154 O159 2.049 . S
Zn154 O164 2.067 1_565 S
Zn155 O156 1.962 1_554 S
Zn155 O158 1.986 1_565 S
Zn155 O160 1.996 . S
Zn155 O163 1.943 1_565 S
O156 Zn155 1.962 1_556 S
O156 C161 1.254 . S
O157 Zn154 2.031 1_556 S
O157 C161 1.269 . S
O158 Zn155 1.986 1_545 S
O158 C165 1.262 . S
O159 Zn154 2.049 . S
O159 C167 1.260 . S
O160 Zn155 1.996 . S
O160 C167 1.257 . S
C161 O156 1.254 . S
C161 O157 1.269 . S
C162 O163 1.249 . S
C162 O164 1.270 . S
O163 Zn155 1.943 1_545 S
O163 C162 1.249 . S
O164 Zn154 2.067 1_545 S
O164 C162 1.270 . S
C165 O158 1.262 . S
C165 O166 1.232 1_554 S
O166 C165 1.232 1_556 S
C167 O159 1.260 . S
C167 O160 1.257 . S
Zn168 O171 2.031 1_554 S
Zn168 O173 2.049 . S
Zn168 O178 2.067 . S
Zn169 O170 1.962 1_554 S
Zn169 O172 1.986 . S
Zn169 O174 1.996 . S
Zn169 O177 1.943 . S
O170 Zn169 1.962 1_556 S
O170 C175 1.254 . S
O171 Zn168 2.031 1_556 S
O171 C175 1.269 . S
O172 Zn169 1.986 . S
O172 C179 1.262 . S
O173 Zn168 2.049 . S
O173 C181 1.260 . S
O174 Zn169 1.996 . S
O174 C181 1.257 . S
C175 O170 1.254 . S
C175 O171 1.269 . S
C176 O177 1.249 . S
C176 O178 1.270 . S
O177 Zn169 1.943 . S
O177 C176 1.249 . S
O178 Zn168 2.067 . S
O178 C176 1.270 . S
C179 O172 1.262 . S
C179 O180 1.232 . S
O180 C179 1.232 . S
C181 O173 1.260 . S
C181 O174 1.257 . S
Zn182 O185 2.031 1_554 S
Zn182 O187 2.049 . S
Zn182 O192 2.067 . S
Zn183 O184 1.962 . S
Zn183 O186 1.986 . S
Zn183 O188 1.996 . S
Zn183 O191 1.943 . S
O184 Zn183 1.962 . S
O184 C189 1.254 1_554 S
O185 Zn182 2.031 1_556 S
O185 C189 1.269 . S
O186 Zn183 1.986 . S
O186 C193 1.262 . S
O187 Zn182 2.049 . S
O187 C195 1.260 . S
O188 Zn183 1.996 . S
O188 C195 1.257 . S
C189 O184 1.254 1_556 S
C189 O185 1.269 . S
C190 O191 1.249 . S
C190 O192 1.270 . S
O191 Zn183 1.943 . S
O191 C190 1.249 . S
O192 Zn182 2.067 . S
O192 C190 1.270 . S
C193 O186 1.262 . S
C193 O194 1.232 1_554 S
O194 C193 1.232 1_556 S
C195 O187 1.260 . S
C195 O188 1.257 . S
Zn196 O199 2.031 . S
Zn196 O201 2.049 . S
Zn196 O206 2.067 . S
Zn197 O198 1.962 . S
Zn197 O200 1.986 . S
Zn197 O202 1.996 . S
Zn197 O205 1.943 . S
O198 Zn197 1.962 . S
O198 C203 1.254 . S
O199 Zn196 2.031 . S
O199 C203 1.269 . S
O200 Zn197 1.986 . S
O200 C207 1.262 . S
O201 Zn196 2.049 . S
O201 C209 1.260 . S
O202 Zn197 1.996 . S
O202 C209 1.257 . S
C203 O198 1.254 . S
C203 O199 1.269 . S
C204 O205 1.249 . S
C204 O206 1.270 . S
O205 Zn197 1.943 . S
O205 C204 1.249 . S
O206 Zn196 2.067 . S
O206 C204 1.270 . S
C207 O200 1.262 . S
C207 O208 1.232 . S
O208 C207 1.232 . S
C209 O201 1.260 . S
C209 O202 1.257 . S
Zn210 O213 2.031 . S
Zn210 O215 2.049 . S
Zn210 O220 2.067 . S
Zn211 O212 1.962 . S
Zn211 O214 1.986 . S
Zn211 O216 1.996 . S
Zn211 O219 1.943 . S
O212 Zn211 1.962 . S
O212 C217 1.254 . S
O213 Zn210 2.031 . S
O213 C217 1.269 . S
O214 Zn211 1.986 . S
O214 C221 1.262 . S
O215 Zn210 2.049 . S
O215 C223 1.260 . S
O216 Zn211 1.996 . S
O216 C223 1.257 . S
C217 O212 1.254 . S
C217 O213 1.269 . S
C218 O219 1.249 . S
C218 O220 1.270 . S
O219 Zn211 1.943 . S
O219 C218 1.249 . S
O220 Zn210 2.067 . S
O220 C218 1.270 . S
C221 O214 1.262 . S
C221 O222 1.232 . S
O222 C221 1.232 . S
C223 O215 1.260 . S
C223 O216 1.257 . S
Zn224 O227 2.031 . S
Zn224 O229 2.049 . S
Zn224 O234 2.067 1_445 S
Zn225 O226 1.962 . S
Zn225 O228 1.986 1_455 S
Zn225 O230 1.996 . S
Zn225 O233 1.943 1_455 S
O226 Zn225 1.962 . S
O226 C231 1.254 . S
O227 Zn224 2.031 . S
O227 C231 1.269 . S
O228 Zn225 1.986 1_655 S
O228 C235 1.262 . S
O229 Zn224 2.049 . S
O229 C237 1.260 . S
O230 Zn225 1.996 . S
O230 C237 1.257 . S
C231 O226 1.254 . S
C231 O227 1.269 . S
C232 O233 1.249 1_565 S
C232 O234 1.270 . S
O233 Zn225 1.943 1_655 S
O233 C232 1.249 1_545 S
O234 Zn224 2.067 1_665 S
O234 C232 1.270 . S
C235 O228 1.262 . S
C235 O236 1.232 . S
O236 C235 1.232 . S
C237 O229 1.260 . S
C237 O230 1.257 . S
Zn238 O241 2.031 . S
Zn238 O243 2.049 . S
Zn238 O248 2.067 . S
Zn239 O240 1.962 . S
Zn239 O242 1.986 . S
Zn239 O244 1.996 . S
Zn239 O247 1.943 . S
O240 Zn239 1.962 . S
O240 C245 1.254 . S
O241 Zn238 2.031 . S
O241 C245 1.269 . S
O242 Zn239 1.986 . S
O242 C249 1.262 . S
O243 Zn238 2.049 . S
O243 C251 1.260 . S
O244 Zn239 1.996 . S
O244 C251 1.257 . S
C245 O240 1.254 . S
C245 O241 1.269 . S
C246 O247 1.249 . S
C246 O248 1.270 . S
O247 Zn239 1.943 . S
O247 C246 1.249 . S
O248 Zn238 2.067 . S
O248 C246 1.270 . S
C249 O242 1.262 . S
C249 O250 1.232 . S
O250 C249 1.232 . S
C251 O243 1.260 . S
C251 O244 1.257 . S
Zn252 O255 2.031 . S
Zn252 O257 2.049 . S
Zn252 O262 2.067 . S
Zn253 O254 1.962 . S
Zn253 O256 1.986 . S
Zn253 O258 1.996 . S
Zn253 O261 1.943 . S
O254 Zn253 1.962 . S
O254 C259 1.254 . S
O255 Zn252 2.031 . S
O255 C259 1.269 . S
O256 Zn253 1.986 . S
O256 C263 1.262 . S
O257 Zn252 2.049 . S
O257 C265 1.260 . S
O258 Zn253 1.996 . S
O258 C265 1.257 . S
C259 O254 1.254 . S
C259 O255 1.269 . S
C260 O261 1.249 . S
C260 O262 1.270 . S
O261 Zn253 1.943 . S
O261 C260 1.249 . S
O262 Zn252 2.067 . S
O262 C260 1.270 . S
C263 O256 1.262 . S
C263 O264 1.232 . S
O264 C263 1.232 . S
C265 O257 1.260 . S
C265 O258 1.257 . S
Zn266 O269 2.031 . S
Zn266 O271 2.049 . S
Zn266 O276 2.067 . S
Zn267 O268 1.962 . S
Zn267 O270 1.986 . S
Zn267 O272 1.996 . S
Zn267 O275 1.943 . S
O268 Zn267 1.962 . S
O268 C273 1.254 . S
O269 Zn266 2.031 . S
O269 C273 1.269 . S
O270 Zn267 1.986 . S
O270 C277 1.262 . S
O271 Zn266 2.049 . S
O271 C279 1.260 . S
O272 Zn267 1.996 . S
O272 C279 1.257 . S
C273 O268 1.254 . S
C273 O269 1.269 . S
C274 O275 1.249 . S
C274 O276 1.270 . S
O275 Zn267 1.943 . S
O275 C274 1.249 . S
O276 Zn266 2.067 . S
O276 C274 1.270 . S
C277 O270 1.262 . S
C277 O278 1.232 . S
O278 C277 1.232 . S
C279 O271 1.260 . S
C279 O272 1.257 . S
Zn280 O283 2.031 1_554 S
Zn280 O285 2.049 . S
Zn280 O290 2.067 . S
Zn281 O282 1.949 1_554 S
Zn281 O284 1.992 . S
Zn281 O286 2.005 . S
Zn281 O289 1.946 1_554 S
O282 Zn281 1.949 1_556 S
O282 C287 1.254 . S
O283 Zn280 2.031 1_556 S
O283 C287 1.269 . S
O284 Zn281 1.992 . S
O284 C291 1.262 1_554 S
O285 Zn280 2.049 . S
O285 C293 1.260 . S
O286 Zn281 2.005 . S
O286 C293 1.257 . S
C287 O282 1.254 . S
C287 O283 1.269 . S
C288 O289 1.249 . S
C288 O290 1.270 1_556 S
O289 Zn281 1.946 1_556 S
O289 C288 1.249 . S
O290 Zn280 2.067 . S
O290 C288 1.270 1_554 S
C291 O284 1.262 1_556 S
C291 O292 1.232 . S
O292 C291 1.232 . S
C293 O285 1.260 . S
C293 O286 1.257 . S
Zn294 O297 2.031 . S
Zn294 O299 2.049 . S
Zn294 O304 2.067 1_455 S
Zn295 O296 1.950 1_655 S
Zn295 O298 1.999 . S
Zn295 O300 1.976 1_655 S
Zn295 O303 1.953 . S
O296 Zn295 1.950 1_455 S
O296 C301 1.254 . S
O297 Zn294 2.031 . S
O297 C301 1.269 . S
O298 Zn295 1.999 . S
O298 C305 1.262 . S
O299 Zn294 2.049 . S
O299 C307 1.260 . S
O300 Zn295 1.976 1_455 S
O300 C307 1.257 . S
C301 O296 1.254 . S
C301 O297 1.269 . S
C302 O303 1.249 . S
C302 O304 1.270 . S
O303 Zn295 1.953 . S
O303 C302 1.249 . S
O304 Zn294 2.067 1_655 S
O304 C302 1.270 . S
C305 O298 1.262 . S
C305 O306 1.232 . S
O306 C305 1.232 . S
C307 O299 1.260 . S
C307 O300 1.257 . S
Zn308 O311 2.031 . S
Zn308 O313 2.049 . S
Zn308 O318 2.067 1_655 S
Zn309 O310 1.962 . S
Zn309 O312 1.986 . S
Zn309 O314 1.996 . S
Zn309 O317 1.943 . S
O310 Zn309 1.962 . S
O310 C315 1.254 . S
O311 Zn308 2.031 . S
O311 C315 1.269 . S
O312 Zn309 1.986 . S
O312 C319 1.262 . S
O313 Zn308 2.049 . S
O313 C321 1.260 . S
O314 Zn309 1.996 . S
O314 C321 1.257 . S
C315 O310 1.254 . S
C315 O311 1.269 . S
C316 O317 1.249 1_455 S
C316 O318 1.270 . S
O317 Zn309 1.943 . S
O317 C316 1.249 1_655 S
O318 Zn308 2.067 1_455 S
O318 C316 1.270 . S
C319 O312 1.262 . S
C319 O320 1.232 . S
O320 C319 1.232 . S
C321 O313 1.260 . S
C321 O314 1.257 . S
Zn322 O325 2.031 . S
Zn322 O327 2.049 . S
Zn322 O332 2.067 . S
Zn323 O324 1.962 . S
Zn323 O326 1.986 . S
Zn323 O328 1.996 . S
Zn323 O331 1.943 . S
O324 Zn323 1.962 . S
O324 C329 1.254 . S
O325 Zn322 2.031 . S
O325 C329 1.269 . S
O326 Zn323 1.986 . S
O326 C333 1.262 . S
O327 Zn322 2.049 . S
O327 C335 1.260 . S
O328 Zn323 1.996 . S
O328 C335 1.257 . S
C329 O324 1.254 . S
C329 O325 1.269 . S
C330 O331 1.249 . S
C330 O332 1.270 . S
O331 Zn323 1.943 . S
O331 C330 1.249 . S
O332 Zn322 2.067 . S
O332 C330 1.270 . S
C333 O326 1.262 . S
C333 O334 1.232 . S
O334 C333 1.232 . S
C335 O327 1.260 . S
C335 O328 1.257 . S
La336 C338 2.928 1_455 S
La336 O356 2.521 1_455 S
La336 O357 2.628 1_456 S
La336 O358 2.554 . S
La336 O359 2.757 . S
La336 O360 2.470 . S
La336 O365 2.482 1_556 S
La336 O367 2.503 1_546 S
La337 C347 2.928 . S
La337 O359 2.482 1_554 S
La337 O361 2.503 . S
La337 O362 2.521 . S
La337 O363 2.628 . S
La337 O364 2.554 . S
La337 O365 2.757 . S
La337 O366 2.470 . S
C338 La336 2.928 1_655 S
C338 C339 1.503 . S
C338 O356 1.261 . S
C338 O357 1.243 1_556 S
C339 C338 1.503 . S
C339 C340 1.394 . S
C339 C344 1.373 . S
C340 C339 1.394 . S
C340 C341 1.380 . S
C340 H368 0.930 1_545 S
C341 C340 1.380 . S
C341 C342 1.376 . S
C341 H369 0.930 . S
C342 C341 1.376 . S
C342 C343 1.370 . S
C343 C342 1.370 . S
C343 C344 1.396 . S
C343 H370 0.929 1_556 S
C344 C339 1.373 . S
C344 C343 1.396 . S
C344 H371 0.929 1_556 S
C345 O358 1.240 . S
C345 O359 1.289 . S
C346 O360 1.258 1_554 S
C346 O361 1.256 . S
C347 La337 2.928 . S
C347 C348 1.503 . S
C347 O362 1.261 . S
C347 O363 1.243 . S
C348 C347 1.503 . S
C348 C349 1.394 . S
C348 C353 1.373 . S
C349 C348 1.394 . S
C349 C350 1.380 . S
C349 H372 0.930 . S
C350 C349 1.380 . S
C350 C351 1.376 . S
C350 H373 0.930 . S
C351 C350 1.376 . S
C351 C352 1.370 . S
C352 C351 1.370 . S
C352 C353 1.396 . S
C352 H374 0.929 . S
C353 C348 1.373 . S
C353 C352 1.396 . S
C353 H375 0.929 . S
C354 O364 1.240 . S
C354 O365 1.289 . S
C355 O366 1.258 1_565 S
C355 O367 1.256 . S
O356 La336 2.521 1_655 S
O356 C338 1.261 . S
O357 La336 2.628 1_654 S
O357 C338 1.243 1_554 S
O358 La336 2.554 . S
O358 C345 1.240 . S
O359 La336 2.757 . S
O359 La337 2.482 1_556 S
O359 C345 1.289 . S
O360 La336 2.470 . S
O360 C346 1.258 1_556 S
O361 La337 2.503 . S
O361 C346 1.256 . S
O362 La337 2.521 . S
O362 C347 1.261 . S
O363 La337 2.628 . S
O363 C347 1.243 . S
O364 La337 2.554 . S
O364 C354 1.240 . S
O365 La336 2.482 1_554 S
O365 La337 2.757 . S
O365 C354 1.289 . S
O366 La337 2.470 . S
O366 C355 1.258 1_545 S
O367 La336 2.503 1_564 S
O367 C355 1.256 . S
H368 C340 0.930 1_565 S
H369 C341 0.930 . S
H370 C343 0.929 1_554 S
H371 C344 0.929 1_554 S
H372 C349 0.930 . S
H373 C350 0.930 . S
H374 C352 0.929 . S
H375 C353 0.929 . S
La376 C378 2.928 . S
La376 O396 2.521 . S
La376 O397 2.628 . S
La376 O398 2.554 . S
La376 O399 2.757 . S
La376 O400 2.470 . S
La376 O405 2.482 . S
La376 O407 2.503 . S
La377 C387 2.928 . S
La377 O399 2.482 . S
La377 O401 2.503 . S
La377 O402 2.521 . S
La377 O403 2.628 . S
La377 O404 2.554 . S
La377 O405 2.757 . S
La377 O406 2.470 . S
C378 La376 2.928 . S
C378 C379 1.503 . S
C378 O396 1.261 . S
C378 O397 1.243 . S
C379 C378 1.503 . S
C379 C380 1.394 . S
C379 C384 1.373 . S
C380 C379 1.394 . S
C380 C381 1.380 . S
C380 H408 0.930 . S
C381 C380 1.380 . S
C381 C382 1.376 . S
C381 H409 0.930 . S
C382 C381 1.376 . S
C382 C383 1.370 . S
C383 C382 1.370 . S
C383 C384 1.396 . S
C383 H410 0.929 . S
C384 C379 1.373 . S
C384 C383 1.396 . S
C384 H411 0.929 . S
C385 O398 1.240 . S
C385 O399 1.289 . S
C386 O400 1.258 . S
C386 O401 1.256 . S
C387 La377 2.928 . S
C387 C388 1.503 . S
C387 O402 1.261 . S
C387 O403 1.243 . S
C388 C387 1.503 . S
C388 C389 1.394 . S
C388 C393 1.373 . S
C389 C388 1.394 . S
C389 C390 1.380 . S
C389 H412 0.930 . S
C390 C389 1.380 . S
C390 C391 1.376 . S
C390 H413 0.930 . S
C391 C390 1.376 . S
C391 C392 1.370 . S
C392 C391 1.370 . S
C392 C393 1.396 . S
C392 H414 0.929 . S
C393 C388 1.373 . S
C393 C392 1.396 . S
C393 H415 0.929 . S
C394 O404 1.240 . S
C394 O405 1.289 . S
C395 O406 1.258 . S
C395 O407 1.256 . S
O396 La376 2.521 . S
O396 C378 1.261 . S
O397 La376 2.628 . S
O397 C378 1.243 . S
O398 La376 2.554 . S
O398 C385 1.240 . S
O399 La376 2.757 . S
O399 La377 2.482 . S
O399 C385 1.289 . S
O400 La376 2.470 . S
O400 C386 1.258 . S
O401 La377 2.503 . S
O401 C386 1.256 . S
O402 La377 2.521 . S
O402 C387 1.261 . S
O403 La377 2.628 . S
O403 C387 1.243 . S
O404 La377 2.554 . S
O404 C394 1.240 . S
O405 La376 2.482 . S
O405 La377 2.757 . S
O405 C394 1.289 . S
O406 La377 2.470 . S
O406 C395 1.258 . S
O407 La376 2.503 . S
O407 C395 1.256 . S
H408 C380 0.930 . S
H409 C381 0.930 . S
H410 C383 0.929 . S
H411 C384 0.929 . S
H412 C389 0.930 . S
H413 C390 0.930 . S
H414 C392 0.929 . S
H415 C393 0.929 . S
La416 C418 2.928 . S
La416 O436 2.521 . S
La416 O437 2.628 . S
La416 O438 2.554 . S
La416 O439 2.757 . S
La416 O440 2.470 1_545 S
La416 O445 2.482 . S
La416 O447 2.503 . S
La417 C427 2.928 . S
La417 O439 2.482 . S
La417 O441 2.503 1_545 S
La417 O442 2.521 . S
La417 O443 2.628 . S
La417 O444 2.554 . S
La417 O445 2.757 . S
La417 O446 2.470 . S
C418 La416 2.928 . S
C418 C419 1.503 1_545 S
C418 O436 1.261 . S
C418 O437 1.243 . S
C419 C418 1.503 1_565 S
C419 C420 1.394 . S
C419 C424 1.373 . S
C420 C419 1.394 . S
C420 C421 1.380 . S
C420 H448 0.930 . S
C421 C420 1.380 . S
C421 C422 1.376 . S
C421 H449 0.930 . S
C422 C421 1.376 . S
C422 C423 1.370 . S
C423 C422 1.370 . S
C423 C424 1.396 . S
C423 H450 0.929 . S
C424 C419 1.373 . S
C424 C423 1.396 . S
C424 H451 0.929 . S
C425 O438 1.240 . S
C425 O439 1.289 . S
C426 O440 1.258 . S
C426 O441 1.256 . S
C427 La417 2.928 . S
C427 C428 1.503 . S
C427 O442 1.261 . S
C427 O443 1.243 . S
C428 C427 1.503 . S
C428 C429 1.394 . S
C428 C433 1.373 . S
C429 C428 1.394 . S
C429 C430 1.380 . S
C429 H452 0.930 . S
C430 C429 1.380 . S
C430 C431 1.376 . S
C430 H453 0.930 . S
C431 C430 1.376 . S
C431 C432 1.370 . S
C432 C431 1.370 . S
C432 C433 1.396 . S
C432 H454 0.929 . S
C433 C428 1.373 . S
C433 C432 1.396 . S
C433 H455 0.929 . S
C434 O444 1.240 . S
C434 O445 1.289 . S
C435 O446 1.258 . S
C435 O447 1.256 . S
O436 La416 2.521 . S
O436 C418 1.261 . S
O437 La416 2.628 . S
O437 C418 1.243 . S
O438 La416 2.554 . S
O438 C425 1.240 . S
O439 La416 2.757 . S
O439 La417 2.482 . S
O439 C425 1.289 . S
O440 La416 2.470 1_565 S
O440 C426 1.258 . S
O441 La417 2.503 1_565 S
O441 C426 1.256 . S
O442 La417 2.521 . S
O442 C427 1.261 . S
O443 La417 2.628 . S
O443 C427 1.243 . S
O444 La417 2.554 . S
O444 C434 1.240 . S
O445 La416 2.482 . S
O445 La417 2.757 . S
O445 C434 1.289 . S
O446 La417 2.470 . S
O446 C435 1.258 . S
O447 La416 2.503 . S
O447 C435 1.256 . S
H448 C420 0.930 . S
H449 C421 0.930 . S
H450 C423 0.929 . S
H451 C424 0.929 . S
H452 C429 0.930 . S
H453 C430 0.930 . S
H454 C432 0.929 . S
H455 C433 0.929 . S
La456 C458 2.928 . S
La456 O476 2.521 . S
La456 O477 2.628 . S
La456 O478 2.554 . S
La456 O479 2.757 . S
La456 O480 2.470 . S
La456 O485 2.482 . S
La456 O487 2.503 . S
La457 C467 2.928 . S
La457 O479 2.482 . S
La457 O481 2.503 . S
La457 O482 2.521 . S
La457 O483 2.628 . S
La457 O484 2.554 . S
La457 O485 2.757 . S
La457 O486 2.470 . S
C458 La456 2.928 . S
C458 C459 1.503 . S
C458 O476 1.261 . S
C458 O477 1.243 . S
C459 C458 1.503 . S
C459 C460 1.394 . S
C459 C464 1.373 . S
C460 C459 1.394 . S
C460 C461 1.380 . S
C460 H488 0.930 . S
C461 C460 1.380 . S
C461 C462 1.376 . S
C461 H489 0.930 . S
C462 C461 1.376 . S
C462 C463 1.370 . S
C463 C462 1.370 . S
C463 C464 1.396 . S
C463 H490 0.929 . S
C464 C459 1.373 . S
C464 C463 1.396 . S
C464 H491 0.929 . S
C465 O478 1.240 . S
C465 O479 1.289 . S
C466 O480 1.258 . S
C466 O481 1.256 . S
C467 La457 2.928 . S
C467 C468 1.503 . S
C467 O482 1.261 . S
C467 O483 1.243 . S
C468 C467 1.503 . S
C468 C469 1.394 . S
C468 C473 1.373 . S
C469 C468 1.394 . S
C469 C470 1.380 . S
C469 H492 0.930 . S
C470 C469 1.380 . S
C470 C471 1.376 . S
C470 H493 0.930 . S
C471 C470 1.376 . S
C471 C472 1.370 . S
C472 C471 1.370 . S
C472 C473 1.396 . S
C472 H494 0.929 . S
C473 C468 1.373 . S
C473 C472 1.396 . S
C473 H495 0.929 . S
C474 O484 1.240 . S
C474 O485 1.289 . S
C475 O486 1.258 . S
C475 O487 1.256 . S
O476 La456 2.521 . S
O476 C458 1.261 . S
O477 La456 2.628 . S
O477 C458 1.243 . S
O478 La456 2.554 . S
O478 C465 1.240 . S
O479 La456 2.757 . S
O479 La457 2.482 . S
O479 C465 1.289 . S
O480 La456 2.470 . S
O480 C466 1.258 . S
O481 La457 2.503 . S
O481 C466 1.256 . S
O482 La457 2.521 . S
O482 C467 1.261 . S
O483 La457 2.628 . S
O483 C467 1.243 . S
O484 La457 2.554 . S
O484 C474 1.240 . S
O485 La456 2.482 . S
O485 La457 2.757 . S
O485 C474 1.289 . S
O486 La457 2.470 . S
O486 C475 1.258 . S
O487 La456 2.503 . S
O487 C475 1.256 . S
H488 C460 0.930 . S
H489 C461 0.930 . S
H490 C463 0.929 . S
H491 C464 0.929 . S
H492 C469 0.930 . S
H493 C470 0.930 . S
H494 C472 0.929 . S
H495 C473 0.929 . S
La496 C498 2.928 . S
La496 O516 2.521 . S
La496 O517 2.628 . S
La496 O518 2.554 . S
La496 O519 2.757 . S
La496 O520 2.470 . S
La496 O525 2.482 . S
La496 O527 2.503 . S
La497 C507 2.928 . S
La497 O519 2.482 1_565 S
La497 O521 2.503 1_565 S
La497 O522 2.521 . S
La497 O523 2.628 . S
La497 O524 2.554 1_565 S
La497 O525 2.757 1_565 S
La497 O526 2.470 1_565 S
C498 La496 2.928 . S
C498 C499 1.503 . S
C498 O516 1.261 . S
C498 O517 1.243 . S
C499 C498 1.503 . S
C499 C500 1.394 . S
C499 C504 1.373 . S
C500 C499 1.394 . S
C500 C501 1.380 . S
C500 H528 0.930 . S
C501 C500 1.380 . S
C501 C502 1.376 . S
C501 H529 0.930 . S
C502 C501 1.376 . S
C502 C503 1.370 . S
C503 C502 1.370 . S
C503 C504 1.396 . S
C503 H530 0.929 . S
C504 C499 1.373 . S
C504 C503 1.396 . S
C504 H531 0.929 . S
C505 O518 1.240 . S
C505 O519 1.289 . S
C506 O520 1.258 . S
C506 O521 1.256 . S
C507 La497 2.928 . S
C507 C508 1.503 . S
C507 O522 1.261 . S
C507 O523 1.243 . S
C508 C507 1.503 . S
C508 C509 1.394 . S
C508 C513 1.373 . S
C509 C508 1.394 . S
C509 C510 1.380 . S
C509 H532 0.930 . S
C510 C509 1.380 . S
C510 C511 1.376 . S
C510 H533 0.930 . S
C511 C510 1.376 . S
C511 C512 1.370 . S
C512 C511 1.370 . S
C512 C513 1.396 . S
C512 H534 0.929 . S
C513 C508 1.373 . S
C513 C512 1.396 . S
C513 H535 0.929 . S
C514 O524 1.240 . S
C514 O525 1.289 . S
C515 O526 1.258 . S
C515 O527 1.256 . S
O516 La496 2.521 . S
O516 C498 1.261 . S
O517 La496 2.628 . S
O517 C498 1.243 . S
O518 La496 2.554 . S
O518 C505 1.240 . S
O519 La496 2.757 . S
O519 La497 2.482 1_545 S
O519 C505 1.289 . S
O520 La496 2.470 . S
O520 C506 1.258 . S
O521 La497 2.503 1_545 S
O521 C506 1.256 . S
O522 La497 2.521 . S
O522 C507 1.261 . S
O523 La497 2.628 . S
O523 C507 1.243 . S
O524 La497 2.554 1_545 S
O524 C514 1.240 . S
O525 La496 2.482 . S
O525 La497 2.757 1_545 S
O525 C514 1.289 . S
O526 La497 2.470 1_545 S
O526 C515 1.258 . S
O527 La496 2.503 . S
O527 C515 1.256 . S
H528 C500 0.930 . S
H529 C501 0.930 . S
H530 C503 0.929 . S
H531 C504 0.929 . S
H532 C509 0.930 . S
H533 C510 0.930 . S
H534 C512 0.929 . S
H535 C513 0.929 . S
La536 C538 2.928 . S
La536 O556 2.521 . S
La536 O557 2.628 . S
La536 O558 2.554 . S
La536 O559 2.757 . S
La536 O560 2.470 . S
La536 O565 2.482 . S
La536 O567 2.503 . S
La537 C547 2.928 . S
La537 O559 2.482 . S
La537 O561 2.503 . S
La537 O562 2.521 . S
La537 O563 2.628 . S
La537 O564 2.554 . S
La537 O565 2.757 . S
La537 O566 2.470 . S
C538 La536 2.928 . S
C538 C539 1.503 . S
C538 O556 1.261 . S
C538 O557 1.243 . S
C539 C538 1.503 . S
C539 C540 1.394 . S
C539 C544 1.373 . S
C540 C539 1.394 . S
C540 C541 1.380 . S
C540 H568 0.930 . S
C541 C540 1.380 . S
C541 C542 1.376 . S
C541 H569 0.930 . S
C542 C541 1.376 . S
C542 C543 1.370 . S
C543 C542 1.370 . S
C543 C544 1.396 . S
C543 H570 0.929 . S
C544 C539 1.373 . S
C544 C543 1.396 . S
C544 H571 0.929 . S
C545 O558 1.240 . S
C545 O559 1.289 . S
C546 O560 1.258 . S
C546 O561 1.256 . S
C547 La537 2.928 . S
C547 C548 1.503 . S
C547 O562 1.261 . S
C547 O563 1.243 . S
C548 C547 1.503 . S
C548 C549 1.394 . S
C548 C553 1.373 . S
C549 C548 1.394 . S
C549 C550 1.380 . S
C549 H572 0.930 . S
C550 C549 1.380 . S
C550 C551 1.376 . S
C550 H573 0.930 . S
C551 C550 1.376 . S
C551 C552 1.370 . S
C552 C551 1.370 . S
C552 C553 1.396 . S
C552 H574 0.929 . S
C553 C548 1.373 . S
C553 C552 1.396 . S
C553 H575 0.929 . S
C554 O564 1.240 . S
C554 O565 1.289 . S
C555 O566 1.258 . S
C555 O567 1.256 . S
O556 La536 2.521 . S
O556 C538 1.261 . S
O557 La536 2.628 . S
O557 C538 1.243 . S
O558 La536 2.554 . S
O558 C545 1.240 . S
O559 La536 2.757 . S
O559 La537 2.482 . S
O559 C545 1.289 . S
O560 La536 2.470 . S
O560 C546 1.258 . S
O561 La537 2.503 . S
O561 C546 1.256 . S
O562 La537 2.521 . S
O562 C547 1.261 . S
O563 La537 2.628 . S
O563 C547 1.243 . S
O564 La537 2.554 . S
O564 C554 1.240 . S
O565 La536 2.482 . S
O565 La537 2.757 . S
O565 C554 1.289 . S
O566 La537 2.470 . S
O566 C555 1.258 . S
O567 La536 2.503 . S
O567 C555 1.256 . S
H568 C540 0.930 . S
H569 C541 0.930 . S
H570 C543 0.929 . S
H571 C544 0.929 . S
H572 C549 0.930 . S
H573 C550 0.930 . S
H574 C552 0.929 . S
H575 C553 0.929 . S
La576 C578 2.928 . S
La576 O596 2.521 . S
La576 O597 2.628 . S
La576 O598 2.554 1_545 S
La576 O599 2.757 1_554 S
La576 O600 2.470 . S
La576 O605 2.482 . S
La576 O607 2.503 . S
La577 C587 2.928 . S
La577 O599 2.482 . S
La577 O601 2.503 . S
La577 O602 2.521 . S
La577 O603 2.628 . S
La577 O604 2.554 1_556 S
La577 O605 2.757 1_556 S
La577 O606 2.470 1_556 S
C578 La576 2.928 . S
C578 C579 1.503 . S
C578 O596 1.261 . S
C578 O597 1.243 . S
C579 C578 1.503 . S
C579 C580 1.394 1_545 S
C579 C584 1.373 . S
C580 C579 1.394 1_565 S
C580 C581 1.380 . S
C580 H608 0.930 . S
C581 C580 1.380 . S
C581 C582 1.376 . S
C581 H609 0.930 . S
C582 C581 1.376 . S
C582 C583 1.370 1_565 S
C583 C582 1.370 1_545 S
C583 C584 1.396 . S
C583 H610 0.929 . S
C584 C579 1.373 . S
C584 C583 1.396 . S
C584 H611 0.929 . S
C585 O598 1.245 . S
C585 O599 1.288 1_564 S
C586 O600 1.258 . S
C586 O601 1.256 1_554 S
C587 La577 2.928 . S
C587 C588 1.503 . S
C587 O602 1.261 . S
C587 O603 1.243 . S
C588 C587 1.503 . S
C588 C589 1.394 . S
C588 C593 1.373 . S
C589 C588 1.394 . S
C589 C590 1.380 . S
C589 H612 0.930 . S
C590 C589 1.380 . S
C590 C591 1.376 . S
C590 H613 0.930 . S
C591 C590 1.376 . S
C591 C592 1.370 . S
C592 C591 1.370 . S
C592 C593 1.396 . S
C592 H614 0.929 . S
C593 C588 1.373 . S
C593 C592 1.396 . S
C593 H615 0.929 . S
C594 O604 1.240 . S
C594 O605 1.289 . S
C595 O606 1.258 . S
C595 O607 1.256 . S
O596 La576 2.521 . S
O596 C578 1.261 . S
O597 La576 2.628 . S
O597 C578 1.243 . S
O598 La576 2.554 1_565 S
O598 C585 1.245 . S
O599 La576 2.757 1_556 S
O599 La577 2.482 . S
O599 C585 1.288 1_546 S
O600 La576 2.470 . S
O600 C586 1.258 . S
O601 La577 2.503 . S
O601 C586 1.256 1_556 S
O602 La577 2.521 . S
O602 C587 1.261 . S
O603 La577 2.628 . S
O603 C587 1.243 . S
O604 La577 2.554 1_554 S
O604 C594 1.240 . S
O605 La576 2.482 . S
O605 La577 2.757 1_554 S
O605 C594 1.289 . S
O606 La577 2.470 1_554 S
O606 C595 1.258 . S
O607 La576 2.503 . S
O607 C595 1.256 . S
H608 C580 0.930 . S
H609 C581 0.930 . S
H610 C583 0.929 . S
H611 C584 0.929 . S
H612 C589 0.930 . S
H613 C590 0.930 . S
H614 C592 0.929 . S
H615 C593 0.929 . S
La616 C618 2.928 . S
La616 O636 2.521 . S
La616 O637 2.628 . S
La616 O638 2.554 . S
La616 O639 2.757 . S
La616 O640 2.470 . S
La616 O645 2.482 . S
La616 O647 2.503 . S
La617 C627 2.928 . S
La617 O639 2.482 . S
La617 O641 2.503 . S
La617 O642 2.521 . S
La617 O643 2.628 . S
La617 O644 2.554 . S
La617 O645 2.757 . S
La617 O646 2.470 . S
C618 La616 2.928 . S
C618 C619 1.503 . S
C618 O636 1.261 . S
C618 O637 1.243 . S
C619 C618 1.503 . S
C619 C620 1.394 . S
C619 C624 1.373 . S
C620 C619 1.394 . S
C620 C621 1.380 . S
C620 H648 0.930 . S
C621 C620 1.380 . S
C621 C622 1.376 . S
C621 H649 0.930 . S
C622 C621 1.376 . S
C622 C623 1.370 . S
C623 C622 1.370 . S
C623 C624 1.396 . S
C623 H650 0.929 . S
C624 C619 1.373 . S
C624 C623 1.396 . S
C624 H651 0.929 . S
C625 O638 1.240 . S
C625 O639 1.289 . S
C626 O640 1.258 . S
C626 O641 1.256 . S
C627 La617 2.928 . S
C627 C628 1.503 . S
C627 O642 1.261 . S
C627 O643 1.243 . S
C628 C627 1.503 . S
C628 C629 1.394 . S
C628 C633 1.373 . S
C629 C628 1.394 . S
C629 C630 1.380 . S
C629 H652 0.930 . S
C630 C629 1.380 . S
C630 C631 1.376 1_545 S
C630 H653 0.930 1_545 S
C631 C630 1.376 1_565 S
C631 C632 1.370 1_565 S
C632 C631 1.370 1_545 S
C632 C633 1.396 . S
C632 H654 0.929 . S
C633 C628 1.373 . S
C633 C632 1.396 . S
C633 H655 0.929 . S
C634 O644 1.240 . S
C634 O645 1.289 . S
C635 O646 1.258 . S
C635 O647 1.256 . S
O636 La616 2.521 . S
O636 C618 1.261 . S
O637 La616 2.628 . S
O637 C618 1.243 . S
O638 La616 2.554 . S
O638 C625 1.240 . S
O639 La616 2.757 . S
O639 La617 2.482 . S
O639 C625 1.289 . S
O640 La616 2.470 . S
O640 C626 1.258 . S
O641 La617 2.503 . S
O641 C626 1.256 . S
O642 La617 2.521 . S
O642 C627 1.261 . S
O643 La617 2.628 . S
O643 C627 1.243 . S
O644 La617 2.554 . S
O644 C634 1.240 . S
O645 La616 2.482 . S
O645 La617 2.757 . S
O645 C634 1.289 . S
O646 La617 2.470 . S
O646 C635 1.258 . S
O647 La616 2.503 . S
O647 C635 1.256 . S
H648 C620 0.930 . S
H649 C621 0.930 . S
H650 C623 0.929 . S
H651 C624 0.929 . S
H652 C629 0.930 . S
H653 C630 0.930 1_565 S
H654 C632 0.929 . S
H655 C633 0.929 . S
La656 C658 2.928 . S
La656 O676 2.521 . S
La656 O677 2.628 . S
La656 O678 2.554 . S
La656 O679 2.757 . S
La656 O680 2.470 1_554 S
La656 O685 2.482 . S
La656 O687 2.503 . S
La657 C667 2.928 1_556 S
La657 O679 2.482 1_556 S
La657 O681 2.503 . S
La657 O682 2.521 . S
La657 O683 2.628 1_556 S
La657 O684 2.554 . S
La657 O685 2.757 1_556 S
La657 O686 2.470 1_556 S
C658 La656 2.928 . S
C658 C659 1.503 . S
C658 O676 1.261 . S
C658 O677 1.243 . S
C659 C658 1.503 . S
C659 C660 1.394 . S
C659 C664 1.373 1_554 S
C660 C659 1.394 . S
C660 C661 1.380 . S
C660 H688 0.930 . S
C661 C660 1.380 . S
C661 C662 1.376 1_554 S
C661 H689 0.930 . S
C662 C661 1.376 1_556 S
C662 C663 1.370 . S
C663 C662 1.370 . S
C663 C664 1.396 . S
C663 H690 0.929 . S
C664 C659 1.373 1_556 S
C664 C663 1.396 . S
C664 H691 0.929 . S
C665 O678 1.240 . S
C665 O679 1.289 . S
C666 O680 1.258 . S
C666 O681 1.256 . S
C667 La657 2.928 1_554 S
C667 C668 1.503 . S
C667 O682 1.261 1_554 S
C667 O683 1.243 . S
C668 C667 1.503 . S
C668 C669 1.394 . S
C668 C673 1.373 . S
C669 C668 1.394 . S
C669 C670 1.380 . S
C669 H692 0.930 1_554 S
C670 C669 1.380 . S
C670 C671 1.376 . S
C670 H693 0.930 . S
C671 C670 1.376 . S
C671 C672 1.370 . S
C672 C671 1.370 . S
C672 C673 1.396 . S
C672 H694 0.929 . S
C673 C668 1.373 . S
C673 C672 1.396 . S
C673 H695 0.929 . S
C674 O684 1.240 . S
C674 O685 1.289 1_556 S
C675 O686 1.258 . S
C675 O687 1.256 . S
O676 La656 2.521 . S
O676 C658 1.261 . S
O677 La656 2.628 . S
O677 C658 1.243 . S
O678 La656 2.554 . S
O678 C665 1.240 . S
O679 La656 2.757 . S
O679 La657 2.482 1_554 S
O679 C665 1.289 . S
O680 La656 2.470 1_556 S
O680 C666 1.258 . S
O681 La657 2.503 . S
O681 C666 1.256 . S
O682 La657 2.521 . S
O682 C667 1.261 1_556 S
O683 La657 2.628 1_554 S
O683 C667 1.243 . S
O684 La657 2.554 . S
O684 C674 1.240 . S
O685 La656 2.482 . S
O685 La657 2.757 1_554 S
O685 C674 1.289 1_554 S
O686 La657 2.470 1_554 S
O686 C675 1.258 . S
O687 La656 2.503 . S
O687 C675 1.256 . S
H688 C660 0.930 . S
H689 C661 0.930 . S
H690 C663 0.929 . S
H691 C664 0.929 . S
H692 C669 0.930 1_556 S
H693 C670 0.930 . S
H694 C672 0.929 . S
H695 C673 0.929 . S
La696 C698 2.928 1_655 S
La696 O716 2.521 . S
La696 O717 2.628 . S
La696 O718 2.554 . S
La696 O719 2.757 . S
La696 O720 2.470 . S
La696 O725 2.482 . S
La696 O727 2.503 . S
La697 C707 2.928 . S
La697 O719 2.482 . S
La697 O721 2.503 . S
La697 O722 2.521 . S
La697 O723 2.628 . S
La697 O724 2.554 . S
La697 O725 2.757 . S
La697 O726 2.470 . S
C698 La696 2.928 1_455 S
C698 C699 1.503 . S
C698 O716 1.261 1_455 S
C698 O717 1.243 1_455 S
C699 C698 1.503 . S
C699 C700 1.394 . S
C699 C704 1.373 . S
C700 C699 1.394 . S
C700 C701 1.380 . S
C700 H728 0.930 . S
C701 C700 1.380 . S
C701 C702 1.376 . S
C701 H729 0.930 . S
C702 C701 1.376 . S
C702 C703 1.370 . S
C703 C702 1.370 . S
C703 C704 1.396 . S
C703 H730 0.929 . S
C704 C699 1.373 . S
C704 C703 1.396 . S
C704 H731 0.929 . S
C705 O718 1.240 . S
C705 O719 1.289 . S
C706 O720 1.258 . S
C706 O721 1.256 . S
C707 La697 2.928 . S
C707 C708 1.503 . S
C707 O722 1.261 . S
C707 O723 1.243 . S
C708 C707 1.503 . S
C708 C709 1.394 . S
C708 C713 1.373 . S
C709 C708 1.394 . S
C709 C710 1.380 . S
C709 H732 0.930 . S
C710 C709 1.380 . S
C710 C711 1.376 . S
C710 H733 0.930 . S
C711 C710 1.376 . S
C711 C712 1.370 . S
C712 C711 1.370 . S
C712 C713 1.396 . S
C712 H734 0.929 . S
C713 C708 1.373 . S
C713 C712 1.396 . S
C713 H735 0.929 . S
C714 O724 1.240 . S
C714 O725 1.289 . S
C715 O726 1.258 . S
C715 O727 1.256 . S
O716 La696 2.521 . S
O716 C698 1.261 1_655 S
O717 La696 2.628 . S
O717 C698 1.243 1_655 S
O718 La696 2.554 . S
O718 C705 1.240 . S
O719 La696 2.757 . S
O719 La697 2.482 . S
O719 C705 1.289 . S
O720 La696 2.470 . S
O720 C706 1.258 . S
O721 La697 2.503 . S
O721 C706 1.256 . S
O722 La697 2.521 . S
O722 C707 1.261 . S
O723 La697 2.628 . S
O723 C707 1.243 . S
O724 La697 2.554 . S
O724 C714 1.240 . S
O725 La696 2.482 . S
O725 La697 2.757 . S
O725 C714 1.289 . S
O726 La697 2.470 . S
O726 C715 1.258 . S
O727 La696 2.503 . S
O727 C715 1.256 . S
H728 C700 0.930 . S
H729 C701 0.930 . S
H730 C703 0.929 . S
H731 C704 0.929 . S
H732 C709 0.930 . S
H733 C710 0.930 . S
H734 C712 0.929 . S
H735 C713 0.929 . S
La736 C738 2.928 . S
La736 O756 2.521 . S
La736 O757 2.628 . S
La736 O758 2.554 . S
La736 O759 2.757 . S
La736 O760 2.470 . S
La736 O765 2.482 . S
La736 O767 2.503 . S
La737 C747 2.928 . S
La737 O759 2.482 . S
La737 O761 2.503 . S
La737 O762 2.521 . S
La737 O763 2.628 . S
La737 O764 2.554 . S
La737 O765 2.757 . S
La737 O766 2.470 . S
C738 La736 2.928 . S
C738 C739 1.503 . S
C738 O756 1.261 . S
C738 O757 1.243 . S
C739 C738 1.503 . S
C739 C740 1.394 . S
C739 C744 1.373 . S
C740 C739 1.394 . S
C740 C741 1.380 . S
C740 H768 0.930 . S
C741 C740 1.380 . S
C741 C742 1.391 . S
C741 H769 0.930 . S
C742 C741 1.391 . S
C742 C743 1.364 1_455 S
C743 C742 1.364 1_655 S
C743 C744 1.396 1_655 S
C743 H770 0.929 . S
C744 C739 1.373 . S
C744 C743 1.396 1_455 S
C744 H771 0.929 . S
C745 O758 1.240 . S
C745 O759 1.289 . S
C746 O760 1.258 . S
C746 O761 1.256 . S
C747 La737 2.928 . S
C747 C748 1.503 . S
C747 O762 1.261 . S
C747 O763 1.243 . S
C748 C747 1.503 . S
C748 C749 1.394 . S
C748 C753 1.373 . S
C749 C748 1.394 . S
C749 C750 1.380 . S
C749 H772 0.930 . S
C750 C749 1.380 . S
C750 C751 1.376 . S
C750 H773 0.930 . S
C751 C750 1.376 . S
C751 C752 1.370 . S
C752 C751 1.370 . S
C752 C753 1.396 . S
C752 H774 0.929 . S
C753 C748 1.373 . S
C753 C752 1.396 . S
C753 H775 0.929 . S
C754 O764 1.240 . S
C754 O765 1.289 . S
C755 O766 1.258 . S
C755 O767 1.256 . S
O756 La736 2.521 . S
O756 C738 1.261 . S
O757 La736 2.628 . S
O757 C738 1.243 . S
O758 La736 2.554 . S
O758 C745 1.240 . S
O759 La736 2.757 . S
O759 La737 2.482 . S
O759 C745 1.289 . S
O760 La736 2.470 . S
O760 C746 1.258 . S
O761 La737 2.503 . S
O761 C746 1.256 . S
O762 La737 2.521 . S
O762 C747 1.261 . S
O763 La737 2.628 . S
O763 C747 1.243 . S
O764 La737 2.554 . S
O764 C754 1.240 . S
O765 La736 2.482 . S
O765 La737 2.757 . S
O765 C754 1.289 . S
O766 La737 2.470 . S
O766 C755 1.258 . S
O767 La736 2.503 . S
O767 C755 1.256 . S
H768 C740 0.930 . S
H769 C741 0.930 . S
H770 C743 0.929 . S
H771 C744 0.929 . S
H772 C749 0.930 . S
H773 C750 0.930 . S
H774 C752 0.929 . S
H775 C753 0.929 . S
La776 C778 2.928 . S
La776 O796 2.521 . S
La776 O797 2.628 . S
La776 O798 2.554 . S
La776 O799 2.757 . S
La776 O800 2.470 . S
La776 O805 2.482 . S
La776 O807 2.503 . S
La777 C787 2.928 . S
La777 O799 2.482 . S
La777 O801 2.503 . S
La777 O802 2.521 . S
La777 O803 2.628 . S
La777 O804 2.554 . S
La777 O805 2.757 . S
La777 O806 2.470 . S
C778 La776 2.928 . S
C778 C779 1.503 . S
C778 O796 1.261 . S
C778 O797 1.243 . S
C779 C778 1.503 . S
C779 C780 1.394 . S
C779 C784 1.373 . S
C780 C779 1.394 . S
C780 C781 1.380 . S
C780 H808 0.930 . S
C781 C780 1.380 . S
C781 C782 1.376 . S
C781 H809 0.930 . S
C782 C781 1.376 . S
C782 C783 1.370 . S
C783 C782 1.370 . S
C783 C784 1.396 . S
C783 H810 0.929 . S
C784 C779 1.373 . S
C784 C783 1.396 . S
C784 H811 0.929 . S
C785 O798 1.240 . S
C785 O799 1.289 . S
C786 O800 1.258 . S
C786 O801 1.256 . S
C787 La777 2.928 . S
C787 C788 1.503 1_655 S
C787 O802 1.261 . S
C787 O803 1.243 . S
C788 C787 1.503 1_455 S
C788 C789 1.394 . S
C788 C793 1.373 . S
C789 C788 1.394 . S
C789 C790 1.380 . S
C789 H812 0.930 . S
C790 C789 1.380 . S
C790 C791 1.376 . S
C790 H813 0.930 . S
C791 C790 1.376 . S
C791 C792 1.370 . S
C792 C791 1.370 . S
C792 C793 1.396 . S
C792 H814 0.929 . S
C793 C788 1.373 . S
C793 C792 1.396 . S
C793 H815 0.929 . S
C794 O804 1.240 . S
C794 O805 1.289 . S
C795 O806 1.258 . S
C795 O807 1.256 . S
O796 La776 2.521 . S
O796 C778 1.261 . S
O797 La776 2.628 . S
O797 C778 1.243 . S
O798 La776 2.554 . S
O798 C785 1.240 . S
O799 La776 2.757 . S
O799 La777 2.482 . S
O799 C785 1.289 . S
O800 La776 2.470 . S
O800 C786 1.258 . S
O801 La777 2.503 . S
O801 C786 1.256 . S
O802 La777 2.521 . S
O802 C787 1.261 . S
O803 La777 2.628 . S
O803 C787 1.243 . S
O804 La777 2.554 . S
O804 C794 1.240 . S
O805 La776 2.482 . S
O805 La777 2.757 . S
O805 C794 1.289 . S
O806 La777 2.470 . S
O806 C795 1.258 . S
O807 La776 2.503 . S
O807 C795 1.256 . S
H808 C780 0.930 . S
H809 C781 0.930 . S
H810 C783 0.929 . S
H811 C784 0.929 . S
H812 C789 0.930 . S
H813 C790 0.930 . S
H814 C792 0.929 . S
H815 C793 0.929 . S
La816 C818 2.928 . S
La816 O836 2.521 . S
La816 O837 2.628 . S
La816 O838 2.554 . S
La816 O839 2.757 . S
La816 O840 2.470 . S
La816 O845 2.482 . S
La816 O847 2.503 . S
La817 C827 2.928 . S
La817 O839 2.482 . S
La817 O841 2.503 . S
La817 O842 2.521 . S
La817 O843 2.628 . S
La817 O844 2.554 . S
La817 O845 2.757 . S
La817 O846 2.470 . S
C818 La816 2.928 . S
C818 C819 1.503 . S
C818 O836 1.261 . S
C818 O837 1.243 . S
C819 C818 1.503 . S
C819 C820 1.394 . S
C819 C824 1.373 . S
C820 C819 1.394 . S
C820 C821 1.368 1_655 S
C820 H848 0.930 . S
C821 C820 1.368 1_455 S
C821 C822 1.361 1_455 S
C821 H849 0.958 . S
C822 C821 1.361 1_655 S
C822 C823 1.370 . S
C823 C822 1.370 . S
C823 C824 1.396 . S
C823 H850 0.929 . S
C824 C819 1.373 . S
C824 C823 1.396 . S
C824 H851 0.929 . S
C825 O838 1.240 . S
C825 O839 1.289 . S
C826 O840 1.258 . S
C826 O841 1.256 . S
C827 La817 2.928 . S
C827 C828 1.503 . S
C827 O842 1.261 . S
C827 O843 1.243 . S
C828 C827 1.503 . S
C828 C829 1.394 . S
C828 C833 1.373 . S
C829 C828 1.394 . S
C829 C830 1.380 . S
C829 H852 0.930 . S
C830 C829 1.380 . S
C830 C831 1.376 . S
C830 H853 0.930 . S
C831 C830 1.376 . S
C831 C832 1.370 . S
C832 C831 1.370 . S
C832 C833 1.396 . S
C832 H854 0.929 . S
C833 C828 1.373 . S
C833 C832 1.396 . S
C833 H855 0.929 . S
C834 O844 1.240 . S
C834 O845 1.289 . S
C835 O846 1.258 . S
C835 O847 1.256 . S
O836 La816 2.521 . S
O836 C818 1.261 . S
O837 La816 2.628 . S
O837 C818 1.243 . S
O838 La816 2.554 . S
O838 C825 1.240 . S
O839 La816 2.757 . S
O839 La817 2.482 . S
O839 C825 1.289 . S
O840 La816 2.470 . S
O840 C826 1.258 . S
O841 La817 2.503 . S
O841 C826 1.256 . S
O842 La817 2.521 . S
O842 C827 1.261 . S
O843 La817 2.628 . S
O843 C827 1.243 . S
O844 La817 2.554 . S
O844 C834 1.240 . S
O845 La816 2.482 . S
O845 La817 2.757 . S
O845 C834 1.289 . S
O846 La817 2.470 . S
O846 C835 1.258 . S
O847 La816 2.503 . S
O847 C835 1.256 . S
H848 C820 0.930 . S
H849 C821 0.958 . S
H850 C823 0.929 . S
H851 C824 0.929 . S
H852 C829 0.930 . S
H853 C830 0.930 . S
H854 C832 0.929 . S
H855 C833 0.929 . S
La856 C858 2.928 . S
La856 O876 2.521 . S
La856 O877 2.628 . S
La856 O878 2.554 . S
La856 O879 2.757 . S
La856 O880 2.470 . S
La856 O885 2.482 . S
La856 O887 2.503 . S
La857 C867 2.928 . S
La857 O879 2.482 . S
La857 O881 2.503 . S
La857 O882 2.521 . S
La857 O883 2.628 . S
La857 O884 2.554 . S
La857 O885 2.757 . S
La857 O886 2.470 . S
C858 La856 2.928 . S
C858 C859 1.503 1_565 S
C858 O876 1.261 . S
C858 O877 1.243 . S
C859 C858 1.503 1_545 S
C859 C860 1.394 . S
C859 C864 1.373 . S
C860 C859 1.394 . S
C860 C861 1.380 . S
C860 H888 0.930 . S
C861 C860 1.380 . S
C861 C862 1.376 . S
C861 H889 0.930 . S
C862 C861 1.376 . S
C862 C863 1.370 . S
C863 C862 1.370 . S
C863 C864 1.396 . S
C863 H890 0.929 . S
C864 C859 1.373 . S
C864 C863 1.396 . S
C864 H891 0.929 . S
C865 O878 1.240 . S
C865 O879 1.289 . S
C866 O880 1.258 . S
C866 O881 1.256 . S
C867 La857 2.928 . S
C867 C868 1.503 . S
C867 O882 1.261 . S
C867 O883 1.243 . S
C868 C867 1.503 . S
C868 C869 1.394 . S
C868 C873 1.373 . S
C869 C868 1.394 . S
C869 C870 1.380 . S
C869 H892 0.930 . S
C870 C869 1.380 . S
C870 C871 1.376 . S
C870 H893 0.930 . S
C871 C870 1.376 . S
C871 C872 1.370 . S
C872 C871 1.370 . S
C872 C873 1.396 . S
C872 H894 0.929 . S
C873 C868 1.373 . S
C873 C872 1.396 . S
C873 H895 0.929 . S
C874 O884 1.240 . S
C874 O885 1.289 . S
C875 O886 1.258 . S
C875 O887 1.256 . S
O876 La856 2.521 . S
O876 C858 1.261 . S
O877 La856 2.628 . S
O877 C858 1.243 . S
O878 La856 2.554 . S
O878 C865 1.240 . S
O879 La856 2.757 . S
O879 La857 2.482 . S
O879 C865 1.289 . S
O880 La856 2.470 . S
O880 C866 1.258 . S
O881 La857 2.503 . S
O881 C866 1.256 . S
O882 La857 2.521 . S
O882 C867 1.261 . S
O883 La857 2.628 . S
O883 C867 1.243 . S
O884 La857 2.554 . S
O884 C874 1.240 . S
O885 La856 2.482 . S
O885 La857 2.757 . S
O885 C874 1.289 . S
O886 La857 2.470 . S
O886 C875 1.258 . S
O887 La856 2.503 . S
O887 C875 1.256 . S
H888 C860 0.930 . S
H889 C861 0.930 . S
H890 C863 0.929 . S
H891 C864 0.929 . S
H892 C869 0.930 . S
H893 C870 0.930 . S
H894 C872 0.929 . S
H895 C873 0.929 . S
La896 C898 2.928 . S
La896 O916 2.521 . S
La896 O917 2.628 . S
La896 O918 2.554 . S
La896 O919 2.757 . S
La896 O920 2.470 . S
La896 O925 2.482 . S
La896 O927 2.503 . S
La897 C907 2.928 . S
La897 O919 2.482 . S
La897 O921 2.503 . S
La897 O922 2.521 . S
La897 O923 2.628 . S
La897 O924 2.554 . S
La897 O925 2.757 . S
La897 O926 2.470 . S
C898 La896 2.928 . S
C898 C899 1.503 . S
C898 O916 1.261 . S
C898 O917 1.243 . S
C899 C898 1.503 . S
C899 C900 1.394 . S
C899 C904 1.373 . S
C900 C899 1.394 . S
C900 C901 1.380 . S
C900 H928 0.930 . S
C901 C900 1.380 . S
C901 C902 1.376 . S
C901 H929 0.930 . S
C902 C901 1.376 . S
C902 C903 1.370 . S
C903 C902 1.370 . S
C903 C904 1.396 . S
C903 H930 0.929 . S
C904 C899 1.373 . S
C904 C903 1.396 . S
C904 H931 0.929 . S
C905 O918 1.240 . S
C905 O919 1.289 . S
C906 O920 1.258 . S
C906 O921 1.256 . S
C907 La897 2.928 . S
C907 C908 1.503 . S
C907 O922 1.261 . S
C907 O923 1.243 . S
C908 C907 1.503 . S
C908 C909 1.394 . S
C908 C913 1.373 . S
C909 C908 1.394 . S
C909 C910 1.380 . S
C909 H932 0.930 . S
C910 C909 1.380 . S
C910 C911 1.376 . S
C910 H933 0.930 . S
C911 C910 1.376 . S
C911 C912 1.370 . S
C912 C911 1.370 . S
C912 C913 1.396 . S
C912 H934 0.929 . S
C913 C908 1.373 . S
C913 C912 1.396 . S
C913 H935 0.929 . S
C914 O924 1.240 . S
C914 O925 1.289 . S
C915 O926 1.258 . S
C915 O927 1.256 . S
O916 La896 2.521 . S
O916 C898 1.261 . S
O917 La896 2.628 . S
O917 C898 1.243 . S
O918 La896 2.554 . S
O918 C905 1.240 . S
O919 La896 2.757 . S
O919 La897 2.482 . S
O919 C905 1.289 . S
O920 La896 2.470 . S
O920 C906 1.258 . S
O921 La897 2.503 . S
O921 C906 1.256 . S
O922 La897 2.521 . S
O922 C907 1.261 . S
O923 La897 2.628 . S
O923 C907 1.243 . S
O924 La897 2.554 . S
O924 C914 1.240 . S
O925 La896 2.482 . S
O925 La897 2.757 . S
O925 C914 1.289 . S
O926 La897 2.470 . S
O926 C915 1.258 . S
O927 La896 2.503 . S
O927 C915 1.256 . S
H928 C900 0.930 . S
H929 C901 0.930 . S
H930 C903 0.929 . S
H931 C904 0.929 . S
H932 C909 0.930 . S
H933 C910 0.930 . S
H934 C912 0.929 . S
H935 C913 0.929 . S
La936 C938 2.928 1_554 S
La936 O956 2.521 1_554 S
La936 O957 2.628 . S
La936 O958 2.554 1_554 S
La936 O959 2.757 1_554 S
La936 O960 2.470 1_554 S
La936 O965 2.482 . S
La936 O967 2.503 . S
La937 C947 2.933 . S
La937 O959 2.482 1_554 S
La937 O961 2.503 . S
La937 O962 2.521 . S
La937 O963 2.628 . S
La937 O964 2.554 . S
La937 O965 2.757 . S
La937 O966 2.470 . S
C938 La936 2.928 1_556 S
C938 C939 1.503 . S
C938 O956 1.261 . S
C938 O957 1.243 1_556 S
C939 C938 1.503 . S
C939 C940 1.394 . S
C939 C944 1.373 1_556 S
C940 C939 1.394 . S
C940 C941 1.380 . S
C940 H968 0.930 . S
C941 C940 1.380 . S
C941 C942 1.376 . S
C941 H969 0.930 . S
C942 C941 1.376 . S
C942 C943 1.370 1_556 S
C943 C942 1.370 1_554 S
C943 C944 1.396 . S
C943 H970 0.929 . S
C944 C939 1.373 1_554 S
C944 C943 1.396 . S
C944 H971 0.929 . S
C945 O958 1.240 . S
C945 O959 1.289 . S
C946 O960 1.258 1_554 S
C946 O961 1.256 . S
C947 La937 2.933 . S
C947 C948 1.498 1_455 S
C947 O962 1.263 . S
C947 O963 1.245 . S
C948 C947 1.498 1_655 S
C948 C949 1.394 . S
C948 C953 1.373 . S
C949 C948 1.394 . S
C949 C950 1.380 . S
C949 H972 0.930 . S
C950 C949 1.380 . S
C950 C951 1.376 . S
C950 H973 0.930 . S
C951 C950 1.376 . S
C951 C952 1.370 . S
C952 C951 1.370 . S
C952 C953 1.396 . S
C952 H974 0.929 . S
C953 C948 1.373 . S
C953 C952 1.396 . S
C953 H975 0.929 . S
C954 O964 1.240 . S
C954 O965 1.289 . S
C955 O966 1.258 . S
C955 O967 1.256 . S
O956 La936 2.521 1_556 S
O956 C938 1.261 . S
O957 La936 2.628 . S
O957 C938 1.243 1_554 S
O958 La936 2.554 1_556 S
O958 C945 1.240 . S
O959 La936 2.757 1_556 S
O959 La937 2.482 1_556 S
O959 C945 1.289 . S
O960 La936 2.470 1_556 S
O960 C946 1.258 1_556 S
O961 La937 2.503 . S
O961 C946 1.256 . S
O962 La937 2.521 . S
O962 C947 1.263 . S
O963 La937 2.628 . S
O963 C947 1.245 . S
O964 La937 2.554 . S
O964 C954 1.240 . S
O965 La936 2.482 . S
O965 La937 2.757 . S
O965 C954 1.289 . S
O966 La937 2.470 . S
O966 C955 1.258 . S
O967 La936 2.503 . S
O967 C955 1.256 . S
H968 C940 0.930 . S
H969 C941 0.930 . S
H970 C943 0.929 . S
H971 C944 0.929 . S
H972 C949 0.930 . S
H973 C950 0.930 . S
H974 C952 0.929 . S
H975 C953 0.929 . S
C111 C346 3.839 . S
C64 C394 3.530 . S
C77 C426 1.834 . S
C471 C95 1.809 . S
C25 C511 3.575 . S
C542 C36 1.620 . S
C594 C50 3.846 . S
C11 C626 3.799 . S
C354 C237 3.561 . S
C245 C391 1.781 . S
C434 C279 1.052 . S
C466 C175 2.331 . S
C231 C506 2.676 . S
C545 C251 2.024 . S
C591 C273 1.213 . S
C634 C181 3.642 . S
C351 C165 3.527 . S
C288 C674 2.668 . S
C715 C333 3.905 . S
C746 C316 1.361 . S
C123 C631 5.141 1_545 S
C137 C431 2.957 . S
C330 C794 2.946 . S
C826 C302 1.484 . S
C355 C63 3.851 . S
C825 C106 3.557 . S
C97 C435 2.093 . S
C81 C782 1.692 . S
C502 C13 2.996 . S
C55 C711 1.165 . S
C585 C35 3.545 1_564 S
C875 C21 3.948 . S
C345 C147 3.854 . S
C822 C321 1.129 . S
C119 C425 0.862 . S
C293 C795 2.594 . S
C153 C515 2.740 . S
C714 C315 2.131 . S
C125 C582 1.347 . S
C287 C865 3.700 . S
C193 C342 3.321 1_554 S
C176 C665 2.823 . S
C263 C546 3.784 . S
C246 C755 1.991 . S
C862 C277 4.749 . S
C221 C422 2.689 . S
C465 C260 3.111 . S
C395 C204 1.253 . S
C83 C906 3.843 . S
C834 C92 3.513 . S
C105 C946 1.816 . S
C67 C791 1.829 . S
C53 C671 3.597 . S
C702 C8 1.602 . S
C754 C22 3.805 1_455 S
C866 C39 3.835 . S
C914 C265 3.535 . S
C189 C831 1.767 . S
C954 C209 1.070 . S
C786 C217 2.336 . S
C666 C259 2.658 . S
C195 C705 2.000 . S
C751 C203 1.277 . S
C223 C874 3.631 . S
C911 C319 3.503 . S
C134 C514 2.678 . S
C555 C151 3.915 . S
C586 C162 1.360 . S
C871 C305 5.039 . S
C291 C951 2.946 1_556 S
C474 C148 2.952 . S
C386 C120 1.484 . S
C91 C915 3.852 . S
C385 C78 3.544 . S
C69 C955 2.094 . S
C109 C462 1.717 . S
C41 C662 2.989 . S
C551 C27 1.121 . S
C7 C745 3.515 . S
C49 C635 3.987 . S
C905 C329 3.845 . S
C167 C382 1.133 . S
C945 C301 0.937 . S
C139 C475 2.598 . S
C335 C675 2.735 . S
C554 C161 2.052 . S
C307 C742 1.320 . S
C625 C133 3.694 . S
C902 C249 3.309 . S
C505 C218 2.834 1_445 S
C235 C706 3.774 . S
C595 C190 2.027 . S
C207 C622 4.699 . S
C179 C942 2.690 1_554 S
C785 C232 3.080 . S
C835 C274 1.252 . S
