# Generated by pormake.
# Topology zzz, (3,6)-cn, num edge types: 1
# Building blocks:
#     Node 0, Type 0, BuildingBlock: OLANEW_clean_sbu_2, # of connection points: 3
#     Node 1, Type 0, BuildingBlock: OLANEW_clean_sbu_2, # of connection points: 3
#     Node 2, Type 0, BuildingBlock: OLANEW_clean_sbu_2, # of connection points: 3
#     Node 3, Type 0, BuildingBlock: OLANEW_clean_sbu_2, # of connection points: 3
#     Node 4, Type 0, BuildingBlock: OLANEW_clean_sbu_2, # of connection points: 3
#     Node 5, Type 0, BuildingBlock: OLANEW_clean_sbu_2, # of connection points: 3
#     Node 6, Type 0, BuildingBlock: OLANEW_clean_sbu_2, # of connection points: 3
#     Node 7, Type 0, BuildingBlock: OLANEW_clean_sbu_2, # of connection points: 3
#     Node 8, Type 1, BuildingBlock: FUNLAD_clean_sbu_0, # of connection points: 6
#     Node 9, Type 1, BuildingBlock: FUNLAD_clean_sbu_0, # of connection points: 6
#     Node 10, Type 1, BuildingBlock: FUNLAD_clean_sbu_0, # of connection points: 6
#     Node 11, Type 1, BuildingBlock: FUNLAD_clean_sbu_0, # of connection points: 6
#     Edge 12, Type (0, 1), BuildingBlock: KIFKEQ_clean_linker_1, # of connection points: 2
#     Edge 13, Type (0, 1), BuildingBlock: KIFKEQ_clean_linker_1, # of connection points: 2
#     Edge 14, Type (0, 1), BuildingBlock: KIFKEQ_clean_linker_1, # of connection points: 2
#     Edge 15, Type (0, 1), BuildingBlock: KIFKEQ_clean_linker_1, # of connection points: 2
#     Edge 16, Type (0, 1), BuildingBlock: KIFKEQ_clean_linker_1, # of connection points: 2
#     Edge 17, Type (0, 1), BuildingBlock: KIFKEQ_clean_linker_1, # of connection points: 2
#     Edge 18, Type (0, 1), BuildingBlock: KIFKEQ_clean_linker_1, # of connection points: 2
#     Edge 19, Type (0, 1), BuildingBlock: KIFKEQ_clean_linker_1, # of connection points: 2
#     Edge 20, Type (0, 1), BuildingBlock: KIFKEQ_clean_linker_1, # of connection points: 2
#     Edge 21, Type (0, 1), BuildingBlock: KIFKEQ_clean_linker_1, # of connection points: 2
#     Edge 22, Type (0, 1), BuildingBlock: KIFKEQ_clean_linker_1, # of connection points: 2
#     Edge 23, Type (0, 1), BuildingBlock: KIFKEQ_clean_linker_1, # of connection points: 2
#     Edge 24, Type (0, 1), BuildingBlock: KIFKEQ_clean_linker_1, # of connection points: 2
#     Edge 25, Type (0, 1), BuildingBlock: KIFKEQ_clean_linker_1, # of connection points: 2
#     Edge 26, Type (0, 1), BuildingBlock: KIFKEQ_clean_linker_1, # of connection points: 2
#     Edge 27, Type (0, 1), BuildingBlock: KIFKEQ_clean_linker_1, # of connection points: 2
#     Edge 28, Type (0, 1), BuildingBlock: KIFKEQ_clean_linker_1, # of connection points: 2
#     Edge 29, Type (0, 1), BuildingBlock: KIFKEQ_clean_linker_1, # of connection points: 2
#     Edge 30, Type (0, 1), BuildingBlock: KIFKEQ_clean_linker_1, # of connection points: 2
#     Edge 31, Type (0, 1), BuildingBlock: KIFKEQ_clean_linker_1, # of connection points: 2
#     Edge 32, Type (0, 1), BuildingBlock: KIFKEQ_clean_linker_1, # of connection points: 2
#     Edge 33, Type (0, 1), BuildingBlock: KIFKEQ_clean_linker_1, # of connection points: 2
#     Edge 34, Type (0, 1), BuildingBlock: KIFKEQ_clean_linker_1, # of connection points: 2
#     Edge 35, Type (0, 1), BuildingBlock: KIFKEQ_clean_linker_1, # of connection points: 2
# Relax obj value: 0.111
# Max RMSD: 0.173
# Mean RMSD: 0.095
data_MOF--net-zzz--node1-OLANEW_clean_sbu_2--node2-FUNLAD_clean_sbu_0--edge1-KIFKEQ_clean_linker_1
_symmetry_space_group_name_H-M    P1
_symmetry_Int_Tables_number       1
_symmetry_cell_setting            triclinic
loop_
_symmetry_equiv_pos_as_xyz
'x, y, z'
_cell_length_a     55.312732
_cell_length_b     60.427197
_cell_length_c     19.420076
_cell_angle_alpha  85.809435
_cell_angle_beta   85.822956
_cell_angle_gamma 90.40854
loop_
_atom_site_label
_atom_site_type_symbol
_atom_site_fract_x
_atom_site_fract_y
_atom_site_fract_z
_atom_type_partial_charge
O0 O 0.82516 0.40743 0.03292 0.0
Cd1 Cd 0.78818 0.39074 0.09127 0.0
O2 O 0.84254 0.40327 0.13101 0.0
Cd3 Cd 0.87217 0.41114 0.19362 0.0
O4 O 0.89703 0.42447 0.26273 0.0
C5 C 0.90101 0.44527 0.26073 0.0
O6 O 0.8904 0.45842 0.21552 0.0
C7 C 0.84351 0.40995 0.06735 0.0
C8 C 0.74797 0.40191 0.01819 0.0
O9 O 0.75641 0.41515 0.05943 0.0
O10 O 0.75847 0.38326 0.0116 0.0
O11 O 0.89746 0.81599 0.83781 0.0
Cd12 Cd 0.87187 0.78267 0.85944 0.0
O13 O 0.902 0.81692 0.94883 0.0
Cd14 Cd 0.91673 0.82987 0.04012 0.0
O15 O 0.93179 0.85247 0.10944 0.0
C16 C 0.92163 0.87097 0.11824 0.0
O17 O 0.90168 0.87568 0.0877 0.0
C18 C 0.90611 0.82547 0.88707 0.0
C19 C 0.89663 0.74337 0.83856 0.0
O20 O 0.88756 0.75454 0.78822 0.0
O21 O 0.89421 0.75091 0.89866 0.0
O22 O 0.72435 0.0634 0.94466 0.0
Cd23 Cd 0.76315 0.07413 0.98589 0.0
O24 O 0.71524 0.05111 0.05228 0.0
Cd25 Cd 0.69121 0.03756 0.13999 0.0
O26 O 0.66635 0.02493 0.22655 0.0
C27 C 0.64359 0.02605 0.22179 0.0
O28 O 0.63541 0.03467 0.16402 0.0
C29 C 0.70925 0.05402 0.99025 0.0
C30 C 0.80398 0.06406 0.90152 0.0
O31 O 0.79371 0.04936 0.94517 0.0
O32 O 0.79464 0.08342 0.89662 0.0
O33 O 0.62017 0.67578 0.87718 0.0
Cd34 Cd 0.64873 0.70506 0.89821 0.0
O35 O 0.62372 0.65997 0.9809 0.0
Cd36 Cd 0.61857 0.63489 0.06822 0.0
O37 O 0.60464 0.61439 0.15992 0.0
C38 C 0.60919 0.59386 0.16979 0.0
O39 O 0.62324 0.58429 0.12352 0.0
C40 C 0.61424 0.66022 0.923 0.0
C41 C 0.62733 0.74656 0.88335 0.0
O42 O 0.63733 0.73752 0.83095 0.0
O43 O 0.62761 0.73602 0.94302 0.0
O44 O 0.20784 0.63482 0.41774 0.0
Cd45 Cd 0.2454 0.6543 0.37586 0.0
O46 O 0.21282 0.61183 0.33541 0.0
Cd47 Cd 0.1986 0.58523 0.27873 0.0
O48 O 0.17685 0.56697 0.2119 0.0
C49 C 0.15391 0.5667 0.22309 0.0
O50 O 0.14417 0.57664 0.27616 0.0
C51 C 0.20075 0.61801 0.38868 0.0
C52 C 0.28421 0.6318 0.43087 0.0
O53 O 0.27332 0.64706 0.46316 0.0
O54 O 0.277 0.6275 0.37199 0.0
O55 O 0.13213 0.20247 0.56738 0.0
Cd56 Cd 0.16073 0.23384 0.55247 0.0
O57 O 0.14288 0.19313 0.4624 0.0
Cd58 Cd 0.13849 0.17231 0.37643 0.0
O59 O 0.12857 0.14827 0.3044 0.0
C60 C 0.1084 0.13792 0.31527 0.0
O61 O 0.09386 0.14226 0.369 0.0
C62 C 0.13035 0.18936 0.51967 0.0
C63 C 0.14032 0.27403 0.58726 0.0
O64 O 0.14112 0.26824 0.52493 0.0
O65 O 0.14896 0.26068 0.6334 0.0
O66 O 0.29936 0.90097 0.59848 0.0
Cd67 Cd 0.26094 0.88689 0.56385 0.0
O68 O 0.30278 0.92413 0.50557 0.0
Cd69 Cd 0.32509 0.94691 0.43414 0.0
O70 O 0.35254 0.95955 0.35396 0.0
C71 C 0.36286 0.94507 0.31805 0.0
O72 O 0.35639 0.92414 0.33138 0.0
C73 C 0.31119 0.91606 0.56106 0.0
C74 C 0.2216 0.91368 0.5974 0.0
O75 O 0.22787 0.89792 0.64003 0.0
O76 O 0.23414 0.9169 0.53931 0.0
O77 O 0.42542 0.30116 0.50617 0.0
Cd78 Cd 0.40815 0.2676 0.46562 0.0
O79 O 0.4066 0.32071 0.42734 0.0
Cd80 Cd 0.4005 0.35137 0.36422 0.0
O81 O 0.40409 0.37799 0.28166 0.0
C82 C 0.41913 0.39374 0.28577 0.0
O83 O 0.43121 0.39417 0.34149 0.0
C84 C 0.42062 0.31988 0.4765 0.0
C85 C 0.42305 0.22895 0.53705 0.0
O86 O 0.43597 0.238 0.48492 0.0
O87 O 0.40314 0.23827 0.55578 0.0
C88 C 0.00013 0.96817 0.76179 0.0
N89 N 0.00586 0.99333 0.55527 0.0
C90 C 0.01463 0.97309 0.54054 0.0
C91 C 0.00787 0.96307 0.48242 0.0
C92 C 0.99167 0.9738 0.43919 0.0
C93 C 0.9834 0.99497 0.45426 0.0
C94 C 0.99087 0.00455 0.51279 0.0
Zn95 Zn 0.01328 0.00452 0.64853 0.0
C96 C 0.97067 0.02503 0.71981 0.0
N97 N 0.02847 0.02387 0.84783 0.0
C98 C 0.04182 0.01187 0.89314 0.0
C99 C 0.02203 0.0451 0.85863 0.0
C100 C 0.03003 0.05546 0.91459 0.0
C101 C 0.04485 0.04393 0.96019 0.0
C102 C 0.05017 0.02163 0.95035 0.0
Zn103 Zn 0.02066 0.01259 0.75507 0.0
O104 O 0.00178 0.97317 0.69692 0.0
C105 C 0.0632 0.99184 0.6843 0.0
O106 O 0.00655 0.98219 0.80283 0.0
H107 H 0.01151 0.05444 0.82201 0.0
H108 H 0.02615 0.96422 0.57547 0.0
H109 H 0.04684 0.99506 0.88335 0.0
O110 O 0.04912 0.99295 0.6354 0.0
O111 O 0.05589 0.99866 0.74255 0.0
H112 H 0.98405 0.02059 0.52554 0.0
O113 O 0.03422 0.04285 0.70615 0.0
O114 O 0.02525 0.0361 0.60142 0.0
O115 O 0.98566 0.02615 0.76598 0.0
O116 O 0.9771 0.01625 0.66393 0.0
C117 C 0.03387 0.0491 0.64241 0.0
H118 H 0.01435 0.94658 0.47343 0.0
H119 H 0.97095 0.00381 0.42193 0.0
H120 H 0.02523 0.07258 0.92102 0.0
H121 H 0.06163 0.01223 0.9844 0.0
C122 C 0.4687 0.97026 0.72354 0.0
N123 N 0.48911 0.03552 0.75629 0.0
C124 C 0.47936 0.04078 0.69494 0.0
C125 C 0.47091 0.0621 0.67936 0.0
C126 C 0.4728 0.07832 0.72685 0.0
C127 C 0.48302 0.07255 0.78969 0.0
C128 C 0.49095 0.05086 0.80369 0.0
Zn129 Zn 0.50178 0.00402 0.77383 0.0
C130 C 0.48281 0.98226 0.90945 0.0
N131 N 0.52817 0.93808 0.80509 0.0
C132 C 0.52975 0.92475 0.75145 0.0
C133 C 0.53579 0.93109 0.86806 0.0
C134 C 0.54565 0.91001 0.87871 0.0
C135 C 0.54797 0.89614 0.82377 0.0
C136 C 0.53977 0.90368 0.75958 0.0
Zn137 Zn 0.51523 0.96949 0.78947 0.0
O138 O 0.47154 0.99098 0.72776 0.0
C139 C 0.53395 0.99134 0.65354 0.0
O140 O 0.48447 0.95694 0.746 0.0
H141 H 0.53453 0.942 0.90987 0.0
H142 H 0.47837 0.02849 0.65748 0.0
H143 H 0.52346 0.93056 0.70196 0.0
O144 O 0.52152 0.0072 0.67627 0.0
O145 O 0.53451 0.9731 0.69033 0.0
H146 H 0.49874 0.04632 0.85215 0.0
O147 O 0.54568 0.98224 0.83313 0.0
O148 O 0.53254 0.01635 0.81984 0.0
O149 O 0.49583 0.96659 0.88777 0.0
O150 O 0.48189 0.00038 0.87201 0.0
C151 C 0.5486 0.00283 0.83968 0.0
H152 H 0.46347 0.066 0.6299 0.0
H153 H 0.48471 0.08463 0.82766 0.0
H154 H 0.55196 0.90484 0.92882 0.0
H155 H 0.54104 0.89335 0.71619 0.0
C156 C 0.49098 0.45666 0.6584 0.0
N157 N 0.45823 0.51855 0.67928 0.0
C158 C 0.45135 0.51642 0.6142 0.0
C159 C 0.43141 0.52789 0.59074 0.0
C160 C 0.41844 0.54185 0.63443 0.0
C161 C 0.42577 0.5436 0.70162 0.0
C162 C 0.44578 0.53168 0.72319 0.0
Zn163 Zn 0.48879 0.50256 0.7077 0.0
C164 C 0.4825 0.47736 0.844 0.0
N165 N 0.55364 0.46932 0.76012 0.0
C166 C 0.56908 0.46025 0.71237 0.0
C167 C 0.55861 0.46892 0.82783 0.0
C168 C 0.57963 0.45901 0.84995 0.0
C169 C 0.596 0.44987 0.80173 0.0
C170 C 0.59067 0.45059 0.7321 0.0
Zn171 Zn 0.52274 0.48492 0.73188 0.0
O172 O 0.47785 0.47381 0.66092 0.0
C173 C 0.52908 0.51046 0.59605 0.0
O174 O 0.51139 0.4565 0.68462 0.0
H175 H 0.54642 0.47658 0.86485 0.0
H176 H 0.46162 0.50608 0.57982 0.0
H177 H 0.5648 0.46072 0.65884 0.0
O178 O 0.50712 0.51482 0.61318 0.0
O179 O 0.54077 0.49785 0.63674 0.0
H180 H 0.45156 0.53312 0.77471 0.0
O181 O 0.5336 0.5133 0.77945 0.0
O182 O 0.50061 0.53117 0.75402 0.0
O183 O 0.50424 0.47259 0.82571 0.0
O184 O 0.4707 0.49004 0.80374 0.0
C185 C 0.52088 0.5307 0.78099 0.0
H186 H 0.42661 0.52631 0.53823 0.0
H187 H 0.41612 0.55405 0.73708 0.0
H188 H 0.58339 0.45901 0.90393 0.0
H189 H 0.60299 0.44368 0.6936 0.0
C190 C 0.06261 0.53263 0.65361 0.0
N191 N 0.05437 0.46509 0.72172 0.0
C192 C 0.06163 0.4603 0.65607 0.0
C193 C 0.0715 0.43971 0.64336 0.0
C194 C 0.07413 0.42386 0.69873 0.0
C195 C 0.06731 0.42948 0.76631 0.0
C196 C 0.05728 0.45028 0.77667 0.0
Zn197 Zn 0.03685 0.49445 0.73418 0.0
C198 C 0.0517 0.51781 0.85167 0.0
N199 N 0.99874 0.55528 0.7518 0.0
C200 C 0.99578 0.5694 0.69525 0.0
C201 C 0.99073 0.56055 0.81642 0.0
C202 C 0.97961 0.58087 0.82618 0.0
C203 C 0.97648 0.59583 0.76884 0.0
C204 C 0.98453 0.58982 0.7026 0.0
Zn205 Zn 0.0165 0.52601 0.7406 0.0
O206 O 0.06396 0.51176 0.66666 0.0
C207 C 0.00189 0.50219 0.62328 0.0
O208 O 0.04465 0.54301 0.6793 0.0
H209 H 0.99314 0.54905 0.86065 0.0
H210 H 0.05927 0.47231 0.61308 0.0
H211 H 0.00242 0.56495 0.64441 0.0
O212 O 0.01688 0.48868 0.64885 0.0
O213 O 0.99796 0.52041 0.65079 0.0
H214 H 0.05129 0.45439 0.8284 0.0
O215 O 0.98845 0.5087 0.80107 0.0
O216 O 0.00917 0.47777 0.80165 0.0
O217 O 0.03545 0.5309 0.83041 0.0
O218 O 0.0566 0.50058 0.81979 0.0
C219 C 0.99019 0.48825 0.81998 0.0
H220 H 0.07688 0.43616 0.59059 0.0
H221 H 0.06895 0.41766 0.81036 0.0
H222 H 0.97339 0.58477 0.87803 0.0
H223 H 0.98264 0.60098 0.65713 0.0
H224 H 0.20359 0.94778 0.51699 0.0
H225 H 0.1907 0.91017 0.71441 0.0
H226 H 0.16661 0.96849 0.54029 0.0
H227 H 0.15346 0.93065 0.73712 0.0
H228 H 0.09743 0.98449 0.77862 0.0
H229 H 0.13711 0.96742 0.75984 0.0
H230 H 0.12336 0.95999 0.54655 0.0
H231 H 0.0841 0.97723 0.56479 0.0
C232 C 0.19293 0.94399 0.5655 0.0
C233 C 0.20001 0.92722 0.61364 0.0
C234 C 0.17167 0.95579 0.57869 0.0
C235 C 0.157 0.95111 0.64033 0.0
C236 C 0.16447 0.9348 0.68943 0.0
C237 C 0.18574 0.92297 0.6762 0.0
C238 C 0.10298 0.97933 0.72764 0.0
C239 C 0.0876 0.98222 0.67323 0.0
C240 C 0.12564 0.96946 0.717 0.0
C241 C 0.13341 0.96239 0.65167 0.0
C242 C 0.11811 0.96555 0.59721 0.0
C243 C 0.0955 0.97532 0.60785 0.0
H244 H 0.4672 0.20909 0.52457 0.0
H245 H 0.39593 0.20142 0.631 0.0
H246 H 0.47891 0.17346 0.57909 0.0
H247 H 0.40768 0.16571 0.68521 0.0
H248 H 0.42994 0.09106 0.67654 0.0
H249 H 0.41791 0.1285 0.63789 0.0
H250 H 0.48544 0.15466 0.6982 0.0
H251 H 0.4975 0.1171 0.73688 0.0
C252 C 0.45409 0.19988 0.55994 0.0
C253 C 0.4306 0.20801 0.57322 0.0
C254 C 0.46086 0.17955 0.59148 0.0
C255 C 0.44419 0.16683 0.63627 0.0
C256 C 0.42083 0.17513 0.65051 0.0
C257 C 0.41415 0.19559 0.61967 0.0
C258 C 0.44211 0.10485 0.682 0.0
C259 C 0.46467 0.10122 0.70942 0.0
C260 C 0.43516 0.12626 0.66037 0.0
C261 C 0.45078 0.14445 0.66492 0.0
C262 C 0.47313 0.1409 0.69374 0.0
C263 C 0.47995 0.11948 0.7163 0.0
H264 H 0.30101 0.63462 0.55899 0.0
H265 H 0.31236 0.6003 0.37197 0.0
H266 H 0.33273 0.61268 0.6109 0.0
H267 H 0.34447 0.57881 0.42311 0.0
H268 H 0.38213 0.52775 0.55949 0.0
H269 H 0.34963 0.54964 0.51179 0.0
H270 H 0.37605 0.60749 0.60271 0.0
H271 H 0.40839 0.58546 0.65116 0.0
C272 C 0.31041 0.62252 0.52874 0.0
C273 C 0.30413 0.61916 0.4614 0.0
C274 C 0.32866 0.61001 0.55841 0.0
C275 C 0.34109 0.59391 0.52132 0.0
C276 C 0.33497 0.59078 0.45362 0.0
C277 C 0.31668 0.60322 0.42408 0.0
C278 C 0.38099 0.54515 0.56921 0.0
C279 C 0.39786 0.5549 0.60888 0.0
C280 C 0.36242 0.55773 0.5417 0.0
C281 C 0.36033 0.58038 0.55292 0.0
C282 C 0.37695 0.59003 0.59371 0.0
C283 C 0.39548 0.57741 0.62151 0.0
H284 H 0.13104 0.28896 0.71616 0.0
H285 H 0.12663 0.30803 0.49872 0.0
H286 H 0.11434 0.32464 0.74518 0.0
H287 H 0.1108 0.34392 0.52739 0.0
H288 H 0.06044 0.39727 0.60082 0.0
H289 H 0.07567 0.3608 0.57606 0.0
H290 H 0.12395 0.36337 0.74073 0.0
H291 H 0.10812 0.39975 0.7665 0.0
C292 C 0.12661 0.30081 0.67454 0.0
C293 C 0.13009 0.29563 0.60514 0.0
C294 C 0.11718 0.32134 0.69115 0.0
C295 C 0.11117 0.33722 0.63869 0.0
C296 C 0.11477 0.33199 0.56927 0.0
C297 C 0.124 0.31143 0.55274 0.0
C298 C 0.07437 0.39006 0.63155 0.0
C299 C 0.08322 0.40142 0.68527 0.0
C300 C 0.08317 0.36916 0.61726 0.0
C301 C 0.10122 0.35915 0.65594 0.0
C302 C 0.10985 0.37043 0.71038 0.0
C303 C 0.10086 0.3913 0.72508 0.0
H304 H 0.83705 0.09368 0.83599 0.0
H305 H 0.82255 0.0234 0.87663 0.0
H306 H 0.87687 0.08562 0.7808 0.0
H307 H 0.86221 0.01543 0.8203 0.0
H308 H 0.95564 0.05638 0.80619 0.0
H309 H 0.91405 0.06698 0.83825 0.0
H310 H 0.88758 0.02159 0.69864 0.0
H311 H 0.9294 0.01124 0.66518 0.0
C312 C 0.84217 0.07653 0.83203 0.0
C313 C 0.82676 0.05917 0.86107 0.0
C314 C 0.86496 0.07194 0.80063 0.0
C315 C 0.87255 0.04992 0.79645 0.0
C316 C 0.85668 0.03254 0.82242 0.0
C317 C 0.83408 0.03712 0.85497 0.0
C318 C 0.94097 0.0489 0.78155 0.0
C319 C 0.94571 0.03295 0.73334 0.0
C320 C 0.91721 0.05505 0.79964 0.0
C321 C 0.89768 0.04507 0.7709 0.0
C322 C 0.90238 0.02947 0.72154 0.0
C323 C 0.92625 0.02365 0.70225 0.0
H324 H 0.61267 0.77369 0.98454 0.0
H325 H 0.61558 0.76881 0.76332 0.0
H326 H 0.59384 0.80991 0.97051 0.0
H327 H 0.59581 0.80452 0.74934 0.0
H328 H 0.5831 0.87873 0.73894 0.0
H329 H 0.60255 0.84284 0.75413 0.0
H330 H 0.55749 0.82776 0.94351 0.0
H331 H 0.53874 0.86408 0.92917 0.0
C332 C 0.60911 0.78029 0.93295 0.0
C333 C 0.61568 0.76844 0.87502 0.0
C334 C 0.59815 0.80101 0.92489 0.0
C335 C 0.59325 0.81022 0.85875 0.0
C336 C 0.5997 0.7982 0.80093 0.0
C337 C 0.61091 0.77763 0.80894 0.0
C338 C 0.57733 0.86766 0.7836 0.0
C339 C 0.55941 0.87413 0.83282 0.0
C340 C 0.58839 0.84704 0.79228 0.0
C341 C 0.58158 0.83228 0.84998 0.0
C342 C 0.56353 0.8388 0.89907 0.0
C343 C 0.55268 0.85956 0.89078 0.0
H344 H 0.71683 0.37415 0.96222 0.0
H345 H 0.73093 0.44338 0.98768 0.0
H346 H 0.68044 0.38432 0.90285 0.0
H347 H 0.69493 0.45348 0.92698 0.0
H348 H 0.6419 0.46189 0.75273 0.0
H349 H 0.67989 0.4493 0.79972 0.0
H350 H 0.63946 0.40421 0.94885 0.0
H351 H 0.6015 0.41716 0.90292 0.0
C352 C 0.71229 0.39152 0.95451 0.0
C353 C 0.72662 0.40798 0.97978 0.0
C354 C 0.6915 0.39729 0.92075 0.0
C355 C 0.68505 0.41965 0.91028 0.0
C356 C 0.69969 0.43614 0.93398 0.0
C357 C 0.72016 0.43034 0.96903 0.0
C358 C 0.64126 0.44906 0.79484 0.0
C359 C 0.61892 0.44045 0.8244 0.0
C360 C 0.66288 0.44197 0.82184 0.0
C361 C 0.66248 0.42583 0.87778 0.0
C362 C 0.64019 0.41657 0.9054 0.0
C363 C 0.61856 0.42399 0.87939 0.0
H364 H 0.91138 0.71286 0.93715 0.0
H365 H 0.90999 0.72587 0.71579 0.0
H366 H 0.93055 0.67735 0.91989 0.0
H367 H 0.92999 0.69072 0.69825 0.0
H368 H 0.94175 0.61606 0.69409 0.0
H369 H 0.92278 0.65177 0.71077 0.0
H370 H 0.96735 0.66095 0.8806 0.0
H371 H 0.98577 0.62499 0.86483 0.0
C372 C 0.9154 0.70823 0.88474 0.0
C373 C 0.90912 0.72216 0.82786 0.0
C374 C 0.92653 0.6879 0.87477 0.0
C375 C 0.93186 0.6811 0.80762 0.0
C376 C 0.92581 0.6952 0.75072 0.0
C377 C 0.91448 0.71545 0.76074 0.0
C378 C 0.94753 0.62579 0.73474 0.0
C379 C 0.96517 0.6177 0.7783 0.0
C380 C 0.93673 0.6463 0.74422 0.0
C381 C 0.94349 0.65931 0.7971 0.0
C382 C 0.96134 0.65124 0.84021 0.0
C383 C 0.97196 0.63065 0.83111 0.0
H384 H 0.13886 0.14762 0.47999 0.0
H385 H 0.08571 0.18672 0.58889 0.0
H386 H 0.11249 0.11494 0.50225 0.0
H387 H 0.05929 0.15392 0.61178 0.0
H388 H 0.04096 0.08381 0.7197 0.0
H389 H 0.06216 0.11859 0.68448 0.0
H390 H 0.07197 0.09922 0.47463 0.0
H391 H 0.05059 0.06402 0.51018 0.0
C392 C 0.12124 0.14935 0.5071 0.0
C393 C 0.11403 0.1698 0.53128 0.0
C394 C 0.1062 0.13061 0.52011 0.0
C395 C 0.08371 0.13193 0.55804 0.0
C396 C 0.07652 0.15242 0.5823 0.0
C397 C 0.09159 0.17116 0.56928 0.0
C398 C 0.04737 0.08702 0.6658 0.0
C399 C 0.04426 0.07111 0.61774 0.0
C400 C 0.05938 0.10704 0.64558 0.0
C401 C 0.06878 0.1116 0.5769 0.0
C402 C 0.06505 0.09603 0.5281 0.0
C403 C 0.05271 0.07599 0.54826 0.0
H404 H 0.3271 0.95854 0.5631 0.0
H405 H 0.34821 0.89062 0.60441 0.0
H406 H 0.36541 0.97136 0.60092 0.0
H407 H 0.38746 0.9031 0.63716 0.0
H408 H 0.44508 0.93121 0.76138 0.0
H409 H 0.40728 0.91815 0.72133 0.0
H410 H 0.40608 0.97645 0.57798 0.0
H411 H 0.44287 0.99017 0.62278 0.0
C412 C 0.34026 0.94638 0.57913 0.0
C413 C 0.33485 0.92366 0.58095 0.0
C414 C 0.36237 0.95367 0.60035 0.0
C415 C 0.37986 0.93835 0.62222 0.0
C416 C 0.37441 0.91551 0.62244 0.0
C417 C 0.352 0.90827 0.6031 0.0
C418 C 0.43667 0.94114 0.72117 0.0
C419 C 0.44677 0.9617 0.6953 0.0
C420 C 0.41504 0.9336 0.69763 0.0
C421 C 0.40333 0.94616 0.64611 0.0
C422 C 0.41402 0.96649 0.61888 0.0
C423 C 0.43528 0.97432 0.64399 0.0
H424 H 0.46674 0.32545 0.51213 0.0
H425 H 0.39944 0.35996 0.49047 0.0
H426 H 0.48519 0.35887 0.54945 0.0
H427 H 0.41716 0.39306 0.5316 0.0
H428 H 0.45899 0.45535 0.55858 0.0
H429 H 0.4435 0.42279 0.5086 0.0
H430 H 0.48641 0.38076 0.64123 0.0
H431 H 0.50303 0.41351 0.6873 0.0
C432 C 0.45589 0.34024 0.51578 0.0
C433 C 0.43179 0.34026 0.49787 0.0
C434 C 0.46637 0.35938 0.53769 0.0
C435 C 0.45274 0.37884 0.54401 0.0
C436 C 0.42851 0.37869 0.52603 0.0
C437 C 0.41824 0.35968 0.50264 0.0
C438 C 0.46521 0.43911 0.57649 0.0
C439 C 0.48218 0.43692 0.62679 0.0
C440 C 0.45618 0.42038 0.54829 0.0
C441 C 0.46346 0.39894 0.57101 0.0
C442 C 0.48064 0.39689 0.62119 0.0
C443 C 0.49009 0.41568 0.64813 0.0
H444 H 0.15738 0.63451 0.43433 0.0
H445 H 0.19575 0.57337 0.41089 0.0
H446 H 0.12247 0.61383 0.49046 0.0
H447 H 0.1618 0.5526 0.47139 0.0
H448 H 0.09175 0.51772 0.54764 0.0
H449 H 0.12319 0.53851 0.47497 0.0
H450 H 0.1093 0.59567 0.59344 0.0
H451 H 0.07682 0.57532 0.66176 0.0
C452 C 0.15825 0.61659 0.4414 0.0
C453 C 0.17906 0.60547 0.41806 0.0
C454 C 0.13837 0.60468 0.47425 0.0
C455 C 0.13922 0.58142 0.48664 0.0
C456 C 0.16009 0.57037 0.46197 0.0
C457 C 0.17967 0.58226 0.42745 0.0
C458 C 0.09544 0.53478 0.55755 0.0
C459 C 0.0819 0.54495 0.61011 0.0
C460 C 0.11357 0.54672 0.51623 0.0
C461 C 0.119 0.56892 0.5279 0.0
C462 C 0.1054 0.5789 0.58118 0.0
C463 C 0.08687 0.56715 0.62106 0.0
H464 H 0.93311 0.83844 0.76772 0.0
H465 H 0.91044 0.86018 0.96822 0.0
H466 H 0.95639 0.87256 0.7407 0.0
H467 H 0.93653 0.89255 0.94681 0.0
H468 H 0.96411 0.96082 0.8633 0.0
H469 H 0.94145 0.9265 0.89409 0.0
H470 H 0.99003 0.89262 0.75251 0.0
H471 H 0.01088 0.92767 0.71745 0.0
C472 C 0.93372 0.85023 0.80702 0.0
C473 C 0.92086 0.84604 0.87173 0.0
C474 C 0.94743 0.86975 0.79202 0.0
C475 C 0.94905 0.88545 0.84189 0.0
C476 C 0.93593 0.88117 0.90648 0.0
C477 C 0.92157 0.86204 0.92028 0.0
C478 C 0.96997 0.94588 0.8396 0.0
C479 C 0.98915 0.94673 0.78827 0.0
C480 C 0.95707 0.92606 0.85736 0.0
C481 C 0.9636 0.90644 0.8257 0.0
C482 C 0.98376 0.9073 0.7767 0.0
C483 C 0.99604 0.92732 0.75721 0.0
H484 H 0.68204 0.01812 0.04438 0.0
H485 H 0.68245 0.07353 0.89088 0.0
H486 H 0.64197 0.00704 0.01471 0.0
H487 H 0.64281 0.06169 0.85797 0.0
H488 H 0.56191 0.04571 0.85832 0.0
H489 H 0.60009 0.05861 0.89833 0.0
H490 H 0.62451 0.99087 0.92061 0.0
H491 H 0.58637 0.97799 0.88254 0.0
C492 C 0.67336 0.0282 0.00522 0.0
C493 C 0.68507 0.04707 0.9714 0.0
C494 C 0.65057 0.02158 0.98715 0.0
C495 C 0.6391 0.03352 0.93406 0.0
C496 C 0.65093 0.05235 0.8999 0.0
C497 C 0.67372 0.059 0.91822 0.0
C498 C 0.57537 0.03359 0.87234 0.0
C499 C 0.57109 0.01083 0.8672 0.0
C500 C 0.59731 0.04099 0.8948 0.0
C501 C 0.61539 0.02579 0.91259 0.0
C502 C 0.61088 0.00303 0.90834 0.0
C503 C 0.58902 0.99564 0.88606 0.0
H504 H 0.58385 0.63317 0.0125 0.0
H505 H 0.6051 0.648 0.79545 0.0
H506 H 0.55905 0.60205 0.98364 0.0
H507 H 0.57887 0.61789 0.76664 0.0
H508 H 0.51095 0.57412 0.74653 0.0
H509 H 0.53103 0.60689 0.78494 0.0
H510 H 0.57244 0.56464 0.91994 0.0
H511 H 0.55294 0.53188 0.8804 0.0
C512 C 0.58371 0.62958 0.95894 0.0
C513 C 0.59745 0.64243 0.90663 0.0
C514 C 0.56906 0.61206 0.94237 0.0
C515 C 0.56723 0.60759 0.87304 0.0
C516 C 0.57994 0.62109 0.82051 0.0
C517 C 0.59499 0.63827 0.83713 0.0
C518 C 0.52407 0.57189 0.78516 0.0
C519 C 0.53051 0.55051 0.8103 0.0
C520 C 0.53558 0.59058 0.80682 0.0
C521 C 0.55322 0.58817 0.85522 0.0
C522 C 0.55877 0.56687 0.88288 0.0
C523 C 0.54771 0.54818 0.86005 0.0
H524 H 0.88984 0.39534 0.06291 0.0
H525 H 0.8459 0.45059 0.99883 0.0
H526 H 0.92564 0.41369 0.00322 0.0
H527 H 0.88171 0.47017 0.94487 0.0
H528 H 0.9433 0.49219 0.79309 0.0
H529 H 0.90842 0.47281 0.85233 0.0
H530 H 0.95521 0.43999 0.99651 0.0
H531 H 0.99036 0.45806 0.93182 0.0
C532 C 0.88805 0.41164 0.03676 0.0
C533 C 0.86527 0.42154 0.03451 0.0
C534 C 0.90859 0.42235 0.00304 0.0
C535 C 0.90687 0.44353 0.96822 0.0
C536 C 0.88393 0.45363 0.96864 0.0
C537 C 0.86333 0.44256 0.00022 0.0
C538 C 0.94601 0.48075 0.83743 0.0
C539 C 0.96937 0.47659 0.85819 0.0
C540 C 0.92595 0.46975 0.87217 0.0
C541 C 0.92861 0.45488 0.93042 0.0
C542 C 0.95222 0.45093 0.95138 0.0
C543 C 0.97243 0.4614 0.91482 0.0
H544 H 0.06837 0.1107 0.32914 0.0
H545 H 0.13161 0.12864 0.19182 0.0
H546 H 0.05469 0.08599 0.24544 0.0
H547 H 0.11801 0.10379 0.10866 0.0
H548 H 0.06708 0.08433 0.94474 0.0
H549 H 0.08384 0.10512 0.03317 0.0
H550 H 0.06501 0.05116 0.18647 0.0
H551 H 0.04778 0.03033 0.09735 0.0
C552 C 0.07944 0.10925 0.28137 0.0
C553 C 0.10093 0.12183 0.26674 0.0
C554 C 0.0717 0.09496 0.23373 0.0
C555 C 0.08521 0.09306 0.17037 0.0
C556 C 0.10706 0.10513 0.15673 0.0
C557 C 0.11488 0.11931 0.20446 0.0
C558 C 0.06646 0.07691 0.99735 0.0
C559 C 0.05591 0.05581 0.01438 0.0
C560 C 0.0763 0.08871 0.04784 0.0
C561 C 0.07578 0.07975 0.11671 0.0
C562 C 0.06551 0.05851 0.13381 0.0
C563 C 0.05582 0.04656 0.0829 0.0
H564 H 0.38545 0.91824 0.22738 0.0
H565 H 0.3827 0.98639 0.28088 0.0
H566 H 0.41563 0.92845 0.13313 0.0
H567 H 0.41356 0.99657 0.18716 0.0
H568 H 0.4466 0.00863 0.96012 0.0
H569 H 0.41866 0.00045 0.06205 0.0
H570 H 0.45708 0.93991 0.11045 0.0
H571 H 0.4845 0.94776 0.00767 0.0
C572 C 0.39144 0.9354 0.21941 0.0
C573 C 0.38162 0.95149 0.26165 0.0
C574 C 0.40892 0.94124 0.16556 0.0
C575 C 0.41718 0.96332 0.15272 0.0
C576 C 0.40745 0.97945 0.19519 0.0
C577 C 0.38984 0.9736 0.24908 0.0
C578 C 0.44923 0.9937 0.99296 0.0
C579 C 0.46762 0.97874 0.97539 0.0
C580 C 0.43326 0.98904 0.05159 0.0
C581 C 0.43543 0.96938 0.09408 0.0
C582 C 0.45453 0.95495 0.07804 0.0
C583 C 0.47036 0.95953 0.01931 0.0
H584 H 0.39832 0.39701 0.16168 0.0
H585 H 0.45359 0.42669 0.27297 0.0
H586 H 0.41186 0.42016 0.05751 0.0
H587 H 0.46691 0.4499 0.169 0.0
H588 H 0.50571 0.45707 0.94936 0.0
H589 H 0.48812 0.44002 0.05882 0.0
H590 H 0.4167 0.45923 0.00258 0.0
H591 H 0.43443 0.47643 0.8918 0.0
C592 C 0.41309 0.40871 0.16428 0.0
C593 C 0.42509 0.40978 0.22541 0.0
C594 C 0.42074 0.42206 0.10466 0.0
C595 C 0.44061 0.43667 0.10492 0.0
C596 C 0.45178 0.43855 0.16701 0.0
C597 C 0.44408 0.4253 0.22663 0.0
C598 C 0.48626 0.45781 0.96024 0.0
C599 C 0.47145 0.46802 0.91169 0.0
C600 C 0.47619 0.44818 0.02336 0.0
C601 C 0.45104 0.44837 0.03947 0.0
C602 C 0.43616 0.45878 0.99136 0.0
C603 C 0.4463 0.46867 0.92817 0.0
H604 H 0.10438 0.56533 0.22853 0.0
H605 H 0.16816 0.54611 0.10618 0.0
H606 H 0.07878 0.55166 0.14338 0.0
H607 H 0.14256 0.53279 0.02059 0.0
H608 H 0.08884 0.49451 0.90688 0.0
H609 H 0.11269 0.5043 0.0013 0.0
H610 H 0.06969 0.56304 0.02484 0.0
H611 H 0.0456 0.55311 0.93133 0.0
C612 C 0.11295 0.55809 0.18368 0.0
C613 C 0.13833 0.55693 0.17399 0.0
C614 C 0.09826 0.55037 0.13469 0.0
C615 C 0.10862 0.54126 0.07498 0.0
C616 C 0.13398 0.53951 0.06633 0.0
C617 C 0.14867 0.54727 0.11524 0.0
C618 C 0.08435 0.50943 0.93253 0.0
C619 C 0.06537 0.52308 0.91135 0.0
C620 C 0.09811 0.51509 0.9864 0.0
C621 C 0.09315 0.53448 0.02046 0.0
C622 C 0.07382 0.54785 0.00026 0.0
C623 C 0.0601 0.54223 0.94632 0.0
H624 H 0.96051 0.86541 0.19684 0.0
H625 H 0.90718 0.91347 0.13565 0.0
H626 H 0.97783 0.89211 0.268 0.0
H627 H 0.92493 0.9404 0.20536 0.0
H628 H 0.94464 0.97056 0.40694 0.0
H629 H 0.92815 0.94685 0.32509 0.0
H630 H 0.00061 0.92634 0.26185 0.0
H631 H 0.01701 0.94983 0.34467 0.0
C632 C 0.95258 0.88172 0.1982 0.0
C633 C 0.93238 0.88726 0.16089 0.0
C634 C 0.96264 0.89712 0.23856 0.0
C635 C 0.95282 0.91845 0.24228 0.0
C636 C 0.93275 0.92404 0.20437 0.0
C637 C 0.92262 0.9086 0.16424 0.0
C638 C 0.95707 0.96135 0.3745 0.0
C639 C 0.9821 0.96196 0.38247 0.0
C640 C 0.94763 0.94771 0.3276 0.0
C641 C 0.96303 0.93448 0.28739 0.0
C642 C 0.98819 0.93592 0.29313 0.0
C643 C 0.9976 0.94946 0.34027 0.0
H644 H 0.59427 0.03001 0.23343 0.0
H645 H 0.65445 0.00553 0.34577 0.0
H646 H 0.56654 0.01973 0.33442 0.0
H647 H 0.62672 0.99546 0.44678 0.0
H648 H 0.56721 0.96324 0.59688 0.0
H649 H 0.59273 0.9698 0.48908 0.0
H650 H 0.55897 0.03332 0.45102 0.0
H651 H 0.53337 0.02676 0.5581 0.0
C652 C 0.60158 0.02234 0.27949 0.0
C653 C 0.62659 0.01872 0.28168 0.0
C654 C 0.58569 0.01654 0.33741 0.0
C655 C 0.59446 0.00686 0.39861 0.0
C656 C 0.61938 0.00269 0.40016 0.0
C657 C 0.63529 0.0086 0.3424 0.0
C658 C 0.5651 0.97852 0.56519 0.0
C659 C 0.54834 0.99452 0.58622 0.0
C660 C 0.5798 0.98231 0.50367 0.0
C661 C 0.5779 0.0021 0.46168 0.0
C662 C 0.56069 0.01781 0.48186 0.0
C663 C 0.54612 0.0141 0.54349 0.0
H664 H 0.57762 0.60841 0.27076 0.0
H665 H 0.61585 0.54998 0.20991 0.0
H666 H 0.5588 0.58718 0.37203 0.0
H667 H 0.59666 0.52861 0.31142 0.0
H668 H 0.57626 0.50645 0.54438 0.0
H669 H 0.59614 0.52592 0.44035 0.0
H670 H 0.5285 0.55728 0.39622 0.0
H671 H 0.50875 0.53816 0.49997 0.0
C672 C 0.58201 0.59102 0.2789 0.0
C673 C 0.5982 0.58088 0.23206 0.0
C674 C 0.57109 0.57882 0.3368 0.0
C675 C 0.5761 0.55618 0.34945 0.0
C676 C 0.59256 0.54607 0.30324 0.0
C677 C 0.60345 0.55828 0.24498 0.0
C678 C 0.56563 0.51739 0.51219 0.0
C679 C 0.54097 0.52087 0.53076 0.0
C680 C 0.57699 0.52847 0.4525 0.0
C681 C 0.56394 0.5433 0.41049 0.0
C682 C 0.53916 0.54628 0.4282 0.0
C683 C 0.52781 0.5352 0.48753 0.0
H684 H 0.92404 0.42271 0.36329 0.0
H685 H 0.91339 0.48884 0.27081 0.0
H686 H 0.94895 0.43785 0.44702 0.0
H687 H 0.93886 0.504 0.3541 0.0
H688 H 0.96245 0.52243 0.56907 0.0
H689 H 0.93865 0.5095 0.47814 0.0
H690 H 0.98809 0.4552 0.45217 0.0
H691 H 0.01141 0.46772 0.54346 0.0
C692 C 0.92716 0.44048 0.36046 0.0
C693 C 0.91674 0.45455 0.31029 0.0
C694 C 0.94157 0.44916 0.40827 0.0
C695 C 0.94601 0.47214 0.40703 0.0
C696 C 0.93562 0.48625 0.35681 0.0
C697 C 0.92114 0.47754 0.30887 0.0
C698 C 0.96831 0.50786 0.54343 0.0
C699 C 0.98864 0.49597 0.56398 0.0
C700 C 0.95474 0.50049 0.49121 0.0
C701 C 0.96131 0.48115 0.45852 0.0
C702 C 0.98221 0.46985 0.47736 0.0
C703 C 0.99566 0.47712 0.52951 0.0
loop_
_geom_bond_atom_site_label_1
_geom_bond_atom_site_label_2
_geom_bond_distance
_geom_bond_site_symmetry_2
_ccdc_geom_bond_type
O0 Cd1 2.300 . S
O0 C7 1.275 . S
Cd1 O0 2.300 . S
Cd1 O9 2.381 . S
Cd1 O10 2.378 . S
O2 Cd3 2.385 . S
O2 C7 1.255 . S
Cd3 O2 2.385 . S
Cd3 O4 2.317 . S
O4 Cd3 2.317 . S
O4 C5 1.232 . S
C5 O4 1.232 . S
C5 O6 1.218 . S
O6 C5 1.218 . S
C7 O0 1.275 . S
C7 O2 1.255 . S
C8 O9 1.258 . S
C8 O10 1.256 . S
O9 Cd1 2.381 . S
O9 C8 1.258 . S
O10 Cd1 2.378 . S
O10 C8 1.256 . S
O11 Cd12 2.300 . S
O11 C18 1.275 . S
Cd12 O11 2.300 . S
Cd12 O20 2.381 . S
Cd12 O21 2.378 . S
O13 Cd14 2.385 1_656 S
O13 C18 1.255 . S
Cd14 O13 2.385 1_454 S
Cd14 O15 2.317 1_455 S
O15 Cd14 2.317 1_655 S
O15 C16 1.232 . S
C16 O15 1.232 . S
C16 O17 1.218 . S
O17 C16 1.218 . S
C18 O11 1.275 . S
C18 O13 1.255 . S
C19 O20 1.258 . S
C19 O21 1.256 . S
O20 Cd12 2.381 . S
O20 C19 1.258 . S
O21 Cd12 2.378 . S
O21 C19 1.256 . S
O22 Cd23 2.300 1_566 S
O22 C29 1.275 1_566 S
Cd23 O22 2.300 1_544 S
Cd23 O31 2.381 1_544 S
Cd23 O32 2.378 . S
O24 Cd25 2.385 . S
O24 C29 1.255 . S
Cd25 O24 2.385 . S
Cd25 O26 2.317 . S
O26 Cd25 2.317 . S
O26 C27 1.232 . S
C27 O26 1.232 . S
C27 O28 1.218 . S
O28 C27 1.218 . S
C29 O22 1.275 1_544 S
C29 O24 1.255 . S
C30 O31 1.258 1_544 S
C30 O32 1.256 . S
O31 Cd23 2.381 1_566 S
O31 C30 1.258 1_566 S
O32 Cd23 2.378 . S
O32 C30 1.256 . S
O33 Cd34 2.300 1_556 S
O33 C40 1.275 1_556 S
Cd34 O33 2.300 1_554 S
Cd34 O42 2.381 1_554 S
Cd34 O43 2.378 . S
O35 Cd36 2.385 . S
O35 C40 1.255 . S
Cd36 O35 2.385 . S
Cd36 O37 2.317 . S
O37 Cd36 2.317 . S
O37 C38 1.232 . S
C38 O37 1.232 . S
C38 O39 1.218 . S
O39 C38 1.218 . S
C40 O33 1.275 1_554 S
C40 O35 1.255 . S
C41 O42 1.258 1_554 S
C41 O43 1.256 . S
O42 Cd34 2.381 1_556 S
O42 C41 1.258 1_556 S
O43 Cd34 2.378 . S
O43 C41 1.256 . S
O44 Cd45 2.300 . S
O44 C51 1.275 . S
Cd45 O44 2.300 . S
Cd45 O53 2.381 . S
Cd45 O54 2.378 . S
O46 Cd47 2.385 . S
O46 C51 1.255 . S
Cd47 O46 2.385 . S
Cd47 O48 2.317 . S
O48 Cd47 2.317 . S
O48 C49 1.232 . S
C49 O48 1.232 . S
C49 O50 1.218 . S
O50 C49 1.218 . S
C51 O44 1.275 . S
C51 O46 1.255 . S
C52 O53 1.258 . S
C52 O54 1.256 . S
O53 Cd45 2.381 . S
O53 C52 1.258 . S
O54 Cd45 2.378 . S
O54 C52 1.256 . S
O55 Cd56 2.300 . S
O55 C62 1.275 . S
Cd56 O55 2.300 . S
Cd56 O64 2.381 . S
Cd56 O65 2.378 . S
O57 Cd58 2.385 . S
O57 C62 1.255 . S
Cd58 O57 2.385 . S
Cd58 O59 2.317 . S
O59 Cd58 2.317 . S
O59 C60 1.232 . S
C60 O59 1.232 . S
C60 O61 1.218 . S
O61 C60 1.218 . S
C62 O55 1.275 . S
C62 O57 1.255 . S
C63 O64 1.258 . S
C63 O65 1.256 . S
O64 Cd56 2.381 . S
O64 C63 1.258 . S
O65 Cd56 2.378 . S
O65 C63 1.256 . S
O66 Cd67 2.300 1_565 S
O66 C73 1.275 1_565 S
Cd67 O66 2.300 1_545 S
Cd67 O75 2.381 1_545 S
Cd67 O76 2.378 . S
O68 Cd69 2.385 . S
O68 C73 1.255 . S
Cd69 O68 2.385 . S
Cd69 O70 2.317 . S
O70 Cd69 2.317 . S
O70 C71 1.232 . S
C71 O70 1.232 . S
C71 O72 1.218 . S
O72 C71 1.218 . S
C73 O66 1.275 1_545 S
C73 O68 1.255 . S
C74 O75 1.258 1_545 S
C74 O76 1.256 . S
O75 Cd67 2.381 1_565 S
O75 C74 1.258 1_565 S
O76 Cd67 2.378 . S
O76 C74 1.256 . S
O77 Cd78 2.300 . S
O77 C84 1.275 . S
Cd78 O77 2.300 . S
Cd78 O86 2.381 . S
Cd78 O87 2.378 . S
O79 Cd80 2.385 . S
O79 C84 1.255 . S
Cd80 O79 2.385 . S
Cd80 O81 2.317 . S
O81 Cd80 2.317 . S
O81 C82 1.232 . S
C82 O81 1.232 . S
C82 O83 1.218 . S
O83 C82 1.218 . S
C84 O77 1.275 . S
C84 O79 1.255 . S
C85 O86 1.258 . S
C85 O87 1.256 . S
O86 Cd78 2.381 . S
O86 C85 1.258 . S
O87 Cd78 2.378 . S
O87 C85 1.256 . S
C88 O104 1.251 . S
C88 O106 1.254 . S
N89 C90 1.333 . S
N89 C94 1.307 1_455 S
N89 Zn95 2.020 . S
C90 N89 1.333 . S
C90 C91 1.379 . S
C90 H108 0.952 . S
C91 C90 1.379 . S
C91 C92 1.390 1_455 S
C91 H118 0.949 . S
C92 C91 1.390 1_655 S
C92 C93 1.357 . S
C93 C92 1.357 . S
C93 C94 1.370 . S
C93 H119 0.950 . S
C94 N89 1.307 1_655 S
C94 C93 1.370 . S
C94 H112 0.948 . S
Zn95 N89 2.020 . S
Zn95 O104 2.039 . S
Zn95 O110 2.034 . S
Zn95 O114 2.025 1_565 S
Zn95 O116 2.024 1_455 S
C96 O115 1.246 . S
C96 O116 1.249 1_545 S
N97 C98 1.307 . S
N97 C99 1.333 . S
N97 Zn103 2.020 . S
C98 N97 1.307 . S
C98 C102 1.370 . S
C98 H109 0.948 . S
C99 N97 1.333 . S
C99 C100 1.379 . S
C99 H107 0.952 . S
C100 C99 1.379 . S
C100 C101 1.390 . S
C100 H120 0.949 . S
C101 C100 1.390 . S
C101 C102 1.357 . S
C102 C98 1.370 . S
C102 C101 1.357 . S
C102 H121 0.950 1_556 S
Zn103 N97 2.020 . S
Zn103 O106 2.025 1_545 S
Zn103 O111 2.024 . S
Zn103 O113 2.039 . S
Zn103 O115 2.034 1_455 S
O104 C88 1.251 . S
O104 Zn95 2.039 . S
C105 O110 1.246 . S
C105 O111 1.249 1_565 S
O106 C88 1.254 . S
O106 Zn103 2.025 1_565 S
H107 C99 0.952 . S
H108 C90 0.952 . S
H109 C98 0.948 . S
O110 Zn95 2.034 . S
O110 C105 1.246 . S
O111 Zn103 2.024 . S
O111 C105 1.249 1_545 S
H112 C94 0.948 . S
O113 Zn103 2.039 . S
O113 C117 1.251 . S
O114 Zn95 2.025 1_545 S
O114 C117 1.254 . S
O115 C96 1.246 . S
O115 Zn103 2.034 1_655 S
O116 Zn95 2.024 1_655 S
O116 C96 1.249 1_565 S
C117 O113 1.251 . S
C117 O114 1.254 . S
H118 C91 0.949 . S
H119 C93 0.950 . S
H120 C100 0.949 . S
H121 C102 0.950 1_554 S
C122 O138 1.251 1_565 S
C122 O140 1.254 . S
N123 C124 1.333 . S
N123 C128 1.307 . S
N123 Zn129 2.020 . S
C124 N123 1.333 . S
C124 C125 1.379 . S
C124 H142 0.952 . S
C125 C124 1.379 . S
C125 C126 1.390 . S
C125 H152 0.949 . S
C126 C125 1.390 . S
C126 C127 1.357 . S
C127 C126 1.357 . S
C127 C128 1.370 . S
C127 H153 0.950 . S
C128 N123 1.307 . S
C128 C127 1.370 . S
C128 H146 0.948 . S
Zn129 N123 2.020 . S
Zn129 O138 2.039 . S
Zn129 O144 2.034 . S
Zn129 O148 2.025 . S
Zn129 O150 2.024 . S
C130 O149 1.246 1_545 S
C130 O150 1.249 . S
N131 C132 1.307 . S
N131 C133 1.333 . S
N131 Zn137 2.020 . S
C132 N131 1.307 . S
C132 C136 1.370 . S
C132 H143 0.948 . S
C133 N131 1.333 . S
C133 C134 1.379 . S
C133 H141 0.952 . S
C134 C133 1.379 . S
C134 C135 1.390 . S
C134 H154 0.949 . S
C135 C134 1.390 . S
C135 C136 1.357 . S
C136 C132 1.370 . S
C136 C135 1.357 . S
C136 H155 0.950 . S
Zn137 N131 2.020 . S
Zn137 O140 2.025 . S
Zn137 O145 2.024 . S
Zn137 O147 2.039 . S
Zn137 O149 2.034 . S
O138 C122 1.251 1_545 S
O138 Zn129 2.039 . S
C139 O144 1.246 1_565 S
C139 O145 1.249 . S
O140 C122 1.254 . S
O140 Zn137 2.025 . S
H141 C133 0.952 . S
H142 C124 0.952 . S
H143 C132 0.948 . S
O144 Zn129 2.034 . S
O144 C139 1.246 1_545 S
O145 Zn137 2.024 . S
O145 C139 1.249 . S
H146 C128 0.948 . S
O147 Zn137 2.039 . S
O147 C151 1.251 1_565 S
O148 Zn129 2.025 . S
O148 C151 1.254 . S
O149 C130 1.246 1_565 S
O149 Zn137 2.034 . S
O150 Zn129 2.024 . S
O150 C130 1.249 . S
C151 O147 1.251 1_545 S
C151 O148 1.254 . S
H152 C125 0.949 . S
H153 C127 0.950 . S
H154 C134 0.949 . S
H155 C136 0.950 . S
C156 O172 1.251 . S
C156 O174 1.254 . S
N157 C158 1.333 . S
N157 C162 1.307 . S
N157 Zn163 2.020 . S
C158 N157 1.333 . S
C158 C159 1.379 . S
C158 H176 0.952 . S
C159 C158 1.379 . S
C159 C160 1.390 . S
C159 H186 0.949 . S
C160 C159 1.390 . S
C160 C161 1.357 . S
C161 C160 1.357 . S
C161 C162 1.370 . S
C161 H187 0.950 . S
C162 N157 1.307 . S
C162 C161 1.370 . S
C162 H180 0.948 . S
Zn163 N157 2.020 . S
Zn163 O172 2.039 . S
Zn163 O178 2.034 . S
Zn163 O182 2.025 . S
Zn163 O184 2.024 . S
C164 O183 1.246 . S
C164 O184 1.249 . S
N165 C166 1.307 . S
N165 C167 1.333 . S
N165 Zn171 2.020 . S
C166 N165 1.307 . S
C166 C170 1.370 . S
C166 H177 0.948 . S
C167 N165 1.333 . S
C167 C168 1.379 . S
C167 H175 0.952 . S
C168 C167 1.379 . S
C168 C169 1.390 . S
C168 H188 0.949 . S
C169 C168 1.390 . S
C169 C170 1.357 . S
C170 C166 1.370 . S
C170 C169 1.357 . S
C170 H189 0.950 . S
Zn171 N165 2.020 . S
Zn171 O174 2.025 . S
Zn171 O179 2.024 . S
Zn171 O181 2.039 . S
Zn171 O183 2.034 . S
O172 C156 1.251 . S
O172 Zn163 2.039 . S
C173 O178 1.246 . S
C173 O179 1.249 . S
O174 C156 1.254 . S
O174 Zn171 2.025 . S
H175 C167 0.952 . S
H176 C158 0.952 . S
H177 C166 0.948 . S
O178 Zn163 2.034 . S
O178 C173 1.246 . S
O179 Zn171 2.024 . S
O179 C173 1.249 . S
H180 C162 0.948 . S
O181 Zn171 2.039 . S
O181 C185 1.251 . S
O182 Zn163 2.025 . S
O182 C185 1.254 . S
O183 C164 1.246 . S
O183 Zn171 2.034 . S
O184 Zn163 2.024 . S
O184 C164 1.249 . S
C185 O181 1.251 . S
C185 O182 1.254 . S
H186 C159 0.949 . S
H187 C161 0.950 . S
H188 C168 0.949 . S
H189 C170 0.950 . S
C190 O206 1.251 . S
C190 O208 1.254 . S
N191 C192 1.333 . S
N191 C196 1.307 . S
N191 Zn197 2.020 . S
C192 N191 1.333 . S
C192 C193 1.379 . S
C192 H210 0.952 . S
C193 C192 1.379 . S
C193 C194 1.390 . S
C193 H220 0.949 . S
C194 C193 1.390 . S
C194 C195 1.357 . S
C195 C194 1.357 . S
C195 C196 1.370 . S
C195 H221 0.950 . S
C196 N191 1.307 . S
C196 C195 1.370 . S
C196 H214 0.948 . S
Zn197 N191 2.020 . S
Zn197 O206 2.039 . S
Zn197 O212 2.034 1_455 S
Zn197 O216 2.025 1_455 S
Zn197 O218 2.024 . S
C198 O217 1.246 . S
C198 O218 1.249 . S
N199 C200 1.307 . S
N199 C201 1.337 . S
N199 Zn205 2.020 . S
C200 N199 1.307 . S
C200 C204 1.370 . S
C200 H211 0.948 . S
C201 N199 1.337 . S
C201 C202 1.378 1_455 S
C201 H209 0.949 1_455 S
C202 C201 1.378 1_655 S
C202 C203 1.390 1_655 S
C202 H222 0.949 . S
C203 C202 1.390 1_455 S
C203 C204 1.357 . S
C204 C200 1.370 . S
C204 C203 1.357 . S
C204 H223 0.950 . S
Zn205 N199 2.020 . S
Zn205 O208 2.025 . S
Zn205 O213 2.024 1_455 S
Zn205 O215 2.039 1_455 S
Zn205 O217 2.034 . S
O206 C190 1.251 . S
O206 Zn197 2.039 . S
C207 O212 1.246 . S
C207 O213 1.249 . S
O208 C190 1.254 . S
O208 Zn205 2.025 . S
H209 C201 0.949 1_655 S
H210 C192 0.952 . S
H211 C200 0.948 . S
O212 Zn197 2.034 1_655 S
O212 C207 1.246 . S
O213 Zn205 2.024 1_655 S
O213 C207 1.249 . S
H214 C196 0.948 . S
O215 Zn205 2.039 1_655 S
O215 C219 1.251 . S
O216 Zn197 2.025 1_655 S
O216 C219 1.254 . S
O217 C198 1.246 . S
O217 Zn205 2.034 . S
O218 Zn197 2.024 . S
O218 C198 1.249 . S
C219 O215 1.251 . S
C219 O216 1.254 . S
H220 C193 0.949 . S
H221 C195 0.950 . S
H222 C202 0.949 . S
H223 C204 0.950 . S
H224 C232 0.950 . S
H225 C237 0.950 . S
H226 C234 0.950 . S
H227 C236 0.950 . S
H228 C238 0.950 . S
H229 C240 0.950 . S
H230 C242 0.950 . S
H231 C243 0.950 . S
C232 H224 0.950 . S
C232 C233 1.352 1_545 S
C232 C234 1.391 . S
C233 C232 1.352 1_565 S
C233 C237 1.428 . S
C234 H226 0.950 . S
C234 C232 1.391 . S
C234 C235 1.400 1_545 S
C235 C234 1.400 1_565 S
C235 C236 1.398 . S
C235 C241 1.491 . S
C236 H227 0.950 . S
C236 C235 1.398 . S
C236 C237 1.391 . S
C237 H225 0.950 . S
C237 C233 1.428 . S
C237 C236 1.391 . S
C238 H228 0.950 . S
C238 C239 1.386 . S
C238 C240 1.391 . S
C239 C238 1.386 . S
C239 C243 1.393 1_565 S
C240 H229 0.950 . S
C240 C238 1.391 . S
C240 C241 1.400 . S
C241 C235 1.491 . S
C241 C240 1.400 . S
C241 C242 1.398 1_565 S
C242 H230 0.950 . S
C242 C241 1.398 1_545 S
C242 C243 1.391 . S
C243 H231 0.950 . S
C243 C239 1.393 1_545 S
C243 C242 1.391 . S
H244 C252 0.950 . S
H245 C257 0.950 . S
H246 C254 0.950 . S
H247 C256 0.950 . S
H248 C258 0.950 . S
H249 C260 0.950 . S
H250 C262 0.950 . S
H251 C263 0.950 . S
C252 H244 0.950 . S
C252 C253 1.386 . S
C252 C254 1.391 . S
C253 C252 1.386 . S
C253 C257 1.393 . S
C254 H246 0.950 . S
C254 C252 1.391 . S
C254 C255 1.400 . S
C255 C254 1.400 . S
C255 C256 1.398 . S
C255 C261 1.491 . S
C256 H247 0.950 . S
C256 C255 1.398 . S
C256 C257 1.391 . S
C257 H245 0.950 . S
C257 C253 1.393 . S
C257 C256 1.391 . S
C258 H248 0.950 . S
C258 C259 1.386 . S
C258 C260 1.391 . S
C259 C258 1.386 . S
C259 C263 1.393 . S
C260 H249 0.950 . S
C260 C258 1.391 . S
C260 C261 1.400 . S
C261 C255 1.491 . S
C261 C260 1.400 . S
C261 C262 1.398 . S
C262 H250 0.950 . S
C262 C261 1.398 . S
C262 C263 1.391 . S
C263 H251 0.950 . S
C263 C259 1.393 . S
C263 C262 1.391 . S
H264 C272 0.950 . S
H265 C277 0.950 . S
H266 C274 0.950 . S
H267 C276 0.950 . S
H268 C278 0.950 . S
H269 C280 0.950 . S
H270 C282 0.950 . S
H271 C283 0.950 . S
C272 H264 0.950 . S
C272 C273 1.386 . S
C272 C274 1.391 . S
C273 C272 1.386 . S
C273 C277 1.393 . S
C274 H266 0.950 . S
C274 C272 1.391 . S
C274 C275 1.400 . S
C275 C274 1.400 . S
C275 C276 1.398 . S
C275 C281 1.491 . S
C276 H267 0.950 . S
C276 C275 1.398 . S
C276 C277 1.391 . S
C277 H265 0.950 . S
C277 C273 1.393 . S
C277 C276 1.391 . S
C278 H268 0.950 . S
C278 C279 1.386 . S
C278 C280 1.391 . S
C279 C278 1.386 . S
C279 C283 1.393 . S
C280 H269 0.950 . S
C280 C278 1.391 . S
C280 C281 1.400 . S
C281 C275 1.491 . S
C281 C280 1.400 . S
C281 C282 1.398 . S
C282 H270 0.950 . S
C282 C281 1.398 . S
C282 C283 1.391 . S
C283 H271 0.950 . S
C283 C279 1.393 . S
C283 C282 1.391 . S
H284 C292 0.950 . S
H285 C297 0.950 . S
H286 C294 0.950 . S
H287 C296 0.950 . S
H288 C298 0.950 . S
H289 C300 0.950 . S
H290 C302 0.950 . S
H291 C303 0.950 . S
C292 H284 0.950 . S
C292 C293 1.386 . S
C292 C294 1.391 . S
C293 C292 1.386 . S
C293 C297 1.393 . S
C294 H286 0.950 . S
C294 C292 1.391 . S
C294 C295 1.400 . S
C295 C294 1.400 . S
C295 C296 1.398 . S
C295 C301 1.491 . S
C296 H287 0.950 . S
C296 C295 1.398 . S
C296 C297 1.391 . S
C297 H285 0.950 . S
C297 C293 1.393 . S
C297 C296 1.391 . S
C298 H288 0.950 . S
C298 C299 1.386 . S
C298 C300 1.391 . S
C299 C298 1.386 . S
C299 C303 1.393 . S
C300 H289 0.950 . S
C300 C298 1.391 . S
C300 C301 1.400 . S
C301 C295 1.491 . S
C301 C300 1.400 . S
C301 C302 1.398 . S
C302 H290 0.950 . S
C302 C301 1.398 . S
C302 C303 1.391 . S
C303 H291 0.950 . S
C303 C299 1.393 . S
C303 C302 1.391 . S
H304 C312 0.950 . S
H305 C317 0.950 . S
H306 C314 0.950 . S
H307 C316 0.946 1_554 S
H308 C318 0.950 . S
H309 C320 0.950 . S
H310 C322 0.950 . S
H311 C323 0.950 . S
C312 H304 0.950 . S
C312 C313 1.386 . S
C312 C314 1.391 . S
C313 C312 1.386 . S
C313 C317 1.393 1_546 S
C314 H306 0.950 . S
C314 C312 1.391 . S
C314 C315 1.400 . S
C315 C314 1.400 . S
C315 C316 1.398 1_545 S
C315 C321 1.491 . S
C316 H307 0.946 1_556 S
C316 C315 1.398 1_565 S
C316 C317 1.391 1_556 S
C317 H305 0.950 . S
C317 C313 1.393 1_564 S
C317 C316 1.391 1_554 S
C318 H308 0.950 . S
C318 C319 1.386 1_565 S
C318 C320 1.391 . S
C319 C318 1.386 1_545 S
C319 C323 1.393 . S
C320 H309 0.950 . S
C320 C318 1.391 . S
C320 C321 1.400 1_565 S
C321 C315 1.491 . S
C321 C320 1.400 1_545 S
C321 C322 1.398 . S
C322 H310 0.950 . S
C322 C321 1.398 . S
C322 C323 1.391 . S
C323 H311 0.950 . S
C323 C319 1.393 . S
C323 C322 1.391 . S
H324 C332 0.950 . S
H325 C337 0.950 . S
H326 C334 0.950 . S
H327 C336 0.950 . S
H328 C338 0.950 . S
H329 C340 0.950 . S
H330 C342 0.950 . S
H331 C343 0.950 . S
C332 H324 0.950 . S
C332 C333 1.386 1_554 S
C332 C334 1.391 . S
C333 C332 1.386 1_556 S
C333 C337 1.393 . S
C334 H326 0.950 . S
C334 C332 1.391 . S
C334 C335 1.400 1_554 S
C335 C334 1.400 1_556 S
C335 C336 1.398 . S
C335 C341 1.491 . S
C336 H327 0.950 . S
C336 C335 1.398 . S
C336 C337 1.391 . S
C337 H325 0.950 . S
C337 C333 1.393 . S
C337 C336 1.391 . S
C338 H328 0.950 . S
C338 C339 1.386 . S
C338 C340 1.391 . S
C339 C338 1.386 . S
C339 C343 1.393 . S
C340 H329 0.950 . S
C340 C338 1.391 . S
C340 C341 1.400 . S
C341 C335 1.491 . S
C341 C340 1.400 . S
C341 C342 1.398 . S
C342 H330 0.950 . S
C342 C341 1.398 . S
C342 C343 1.391 . S
C343 H331 0.950 . S
C343 C339 1.393 . S
C343 C342 1.391 . S
H344 C352 0.950 . S
H345 C357 0.950 . S
H346 C354 0.950 . S
H347 C356 0.950 . S
H348 C358 0.950 . S
H349 C360 0.950 . S
H350 C362 0.950 . S
H351 C363 0.950 . S
C352 H344 0.950 . S
C352 C353 1.386 1_556 S
C352 C354 1.391 . S
C353 C352 1.386 1_554 S
C353 C357 1.393 . S
C354 H346 0.950 . S
C354 C352 1.391 . S
C354 C355 1.400 . S
C355 C354 1.400 . S
C355 C356 1.398 1_556 S
C355 C361 1.491 . S
C356 H347 0.950 . S
C356 C355 1.398 1_554 S
C356 C357 1.391 . S
C357 H345 0.950 . S
C357 C353 1.393 . S
C357 C356 1.391 . S
C358 H348 0.950 . S
C358 C359 1.386 . S
C358 C360 1.391 . S
C359 C358 1.386 . S
C359 C363 1.393 . S
C360 H349 0.950 . S
C360 C358 1.391 . S
C360 C361 1.400 . S
C361 C355 1.491 . S
C361 C360 1.400 . S
C361 C362 1.398 . S
C362 H350 0.950 . S
C362 C361 1.398 . S
C362 C363 1.391 . S
C363 H351 0.950 . S
C363 C359 1.393 . S
C363 C362 1.391 . S
H364 C372 0.950 . S
H365 C377 0.950 . S
H366 C374 0.950 1_455 S
H367 C376 0.950 . S
H368 C378 0.950 . S
H369 C380 0.950 . S
H370 C382 0.950 . S
H371 C383 0.950 . S
C372 H364 0.950 . S
C372 C373 1.386 . S
C372 C374 1.391 . S
C373 C372 1.386 . S
C373 C377 1.393 . S
C374 H366 0.950 1_655 S
C374 C372 1.391 . S
C374 C375 1.400 . S
C375 C374 1.400 . S
C375 C376 1.398 . S
C375 C381 1.491 . S
C376 H367 0.950 . S
C376 C375 1.398 . S
C376 C377 1.391 . S
C377 H365 0.950 . S
C377 C373 1.393 . S
C377 C376 1.391 . S
C378 H368 0.950 . S
C378 C379 1.395 . S
C378 C380 1.391 . S
C379 C378 1.395 . S
C379 C383 1.386 1_655 S
C380 H369 0.950 . S
C380 C378 1.391 . S
C380 C381 1.400 . S
C381 C375 1.491 . S
C381 C380 1.400 . S
C381 C382 1.398 1_655 S
C382 H370 0.950 . S
C382 C381 1.398 1_455 S
C382 C383 1.391 . S
C383 H371 0.950 . S
C383 C379 1.386 1_455 S
C383 C382 1.391 . S
H384 C392 0.950 . S
H385 C397 0.950 . S
H386 C394 0.950 . S
H387 C396 0.950 . S
H388 C398 0.950 1_655 S
H389 C400 0.950 . S
H390 C402 0.950 . S
H391 C403 0.950 . S
C392 H384 0.950 . S
C392 C393 1.386 . S
C392 C394 1.391 . S
C393 C392 1.386 . S
C393 C397 1.393 . S
C394 H386 0.950 . S
C394 C392 1.391 . S
C394 C395 1.400 . S
C395 C394 1.400 . S
C395 C396 1.398 . S
C395 C401 1.491 . S
C396 H387 0.950 . S
C396 C395 1.398 . S
C396 C397 1.391 . S
C397 H385 0.950 . S
C397 C393 1.393 . S
C397 C396 1.391 . S
C398 H388 0.950 1_455 S
C398 C399 1.386 . S
C398 C400 1.391 . S
C399 C398 1.386 . S
C399 C403 1.393 . S
C400 H389 0.950 . S
C400 C398 1.391 . S
C400 C401 1.400 . S
C401 C395 1.491 . S
C401 C400 1.400 . S
C401 C402 1.398 . S
C402 H390 0.950 . S
C402 C401 1.398 . S
C402 C403 1.391 . S
C403 H391 0.950 . S
C403 C399 1.393 . S
C403 C402 1.391 . S
H404 C412 0.950 . S
H405 C417 0.950 . S
H406 C414 0.950 . S
H407 C416 0.950 . S
H408 C418 0.950 . S
H409 C420 0.950 . S
H410 C422 0.950 . S
H411 C423 0.950 . S
C412 H404 0.950 . S
C412 C413 1.394 . S
C412 C414 1.391 . S
C413 C412 1.394 . S
C413 C417 1.385 1_545 S
C414 H406 0.950 . S
C414 C412 1.391 . S
C414 C415 1.400 1_545 S
C415 C414 1.400 1_565 S
C415 C416 1.398 . S
C415 C421 1.491 . S
C416 H407 0.950 . S
C416 C415 1.398 . S
C416 C417 1.391 . S
C417 H405 0.950 . S
C417 C413 1.385 1_565 S
C417 C416 1.391 . S
C418 H408 0.950 . S
C418 C419 1.386 . S
C418 C420 1.391 . S
C419 C418 1.386 . S
C419 C423 1.393 1_565 S
C420 H409 0.950 . S
C420 C418 1.391 . S
C420 C421 1.400 . S
C421 C415 1.491 . S
C421 C420 1.400 . S
C421 C422 1.398 1_565 S
C422 H410 0.950 . S
C422 C421 1.398 1_545 S
C422 C423 1.391 . S
C423 H411 0.950 . S
C423 C419 1.393 1_545 S
C423 C422 1.391 . S
H424 C432 0.950 . S
H425 C437 0.950 . S
H426 C434 0.950 . S
H427 C436 0.950 . S
H428 C438 0.950 . S
H429 C440 0.950 . S
H430 C442 0.950 . S
H431 C443 0.950 . S
C432 H424 0.950 . S
C432 C433 1.386 . S
C432 C434 1.391 . S
C433 C432 1.386 . S
C433 C437 1.393 . S
C434 H426 0.950 . S
C434 C432 1.391 . S
C434 C435 1.400 . S
C435 C434 1.400 . S
C435 C436 1.398 . S
C435 C441 1.491 . S
C436 H427 0.950 . S
C436 C435 1.398 . S
C436 C437 1.391 . S
C437 H425 0.950 . S
C437 C433 1.393 . S
C437 C436 1.391 . S
C438 H428 0.950 . S
C438 C439 1.386 . S
C438 C440 1.391 . S
C439 C438 1.386 . S
C439 C443 1.393 . S
C440 H429 0.950 . S
C440 C438 1.391 . S
C440 C441 1.400 . S
C441 C435 1.491 . S
C441 C440 1.400 . S
C441 C442 1.398 . S
C442 H430 0.950 . S
C442 C441 1.398 . S
C442 C443 1.391 . S
C443 H431 0.950 . S
C443 C439 1.393 . S
C443 C442 1.391 . S
H444 C452 0.950 . S
H445 C457 0.950 . S
H446 C454 0.950 . S
H447 C456 0.950 . S
H448 C458 0.950 . S
H449 C460 0.950 . S
H450 C462 0.950 . S
H451 C463 0.950 . S
C452 H444 0.950 . S
C452 C453 1.386 . S
C452 C454 1.391 . S
C453 C452 1.386 . S
C453 C457 1.393 . S
C454 H446 0.950 . S
C454 C452 1.391 . S
C454 C455 1.400 . S
C455 C454 1.400 . S
C455 C456 1.398 . S
C455 C461 1.491 . S
C456 H447 0.950 . S
C456 C455 1.398 . S
C456 C457 1.391 . S
C457 H445 0.950 . S
C457 C453 1.393 . S
C457 C456 1.391 . S
C458 H448 0.950 . S
C458 C459 1.386 . S
C458 C460 1.391 . S
C459 C458 1.386 . S
C459 C463 1.393 . S
C460 H449 0.950 . S
C460 C458 1.391 . S
C460 C461 1.400 . S
C461 C455 1.491 . S
C461 C460 1.400 . S
C461 C462 1.398 . S
C462 H450 0.950 . S
C462 C461 1.398 . S
C462 C463 1.391 . S
C463 H451 0.950 . S
C463 C459 1.393 . S
C463 C462 1.391 . S
H464 C472 0.950 . S
H465 C477 0.950 1_554 S
H466 C474 0.950 . S
H467 C476 0.950 . S
H468 C478 0.947 1_655 S
H469 C480 0.950 . S
H470 C482 0.950 . S
H471 C483 0.950 . S
C472 H464 0.950 . S
C472 C473 1.386 . S
C472 C474 1.391 . S
C473 C472 1.386 . S
C473 C477 1.393 . S
C474 H466 0.950 . S
C474 C472 1.391 . S
C474 C475 1.400 . S
C475 C474 1.400 . S
C475 C476 1.398 . S
C475 C481 1.491 . S
C476 H467 0.950 . S
C476 C475 1.398 . S
C476 C477 1.391 . S
C477 H465 0.950 1_556 S
C477 C473 1.393 . S
C477 C476 1.391 . S
C478 H468 0.947 1_455 S
C478 C479 1.397 . S
C478 C480 1.383 1_455 S
C479 C478 1.397 . S
C479 C483 1.393 . S
C480 H469 0.950 . S
C480 C478 1.383 1_655 S
C480 C481 1.400 . S
C481 C475 1.491 . S
C481 C480 1.400 . S
C481 C482 1.398 1_655 S
C482 H470 0.950 . S
C482 C481 1.398 1_455 S
C482 C483 1.391 . S
C483 H471 0.950 . S
C483 C479 1.393 . S
C483 C482 1.391 . S
H484 C492 0.950 . S
H485 C497 0.950 . S
H486 C494 0.947 1_554 S
H487 C496 0.950 . S
H488 C498 0.950 . S
H489 C500 0.950 . S
H490 C502 0.950 . S
H491 C503 0.954 . S
C492 H484 0.950 . S
C492 C493 1.386 1_564 S
C492 C494 1.388 1_554 S
C493 C492 1.386 1_546 S
C493 C497 1.393 . S
C494 H486 0.947 1_556 S
C494 C492 1.388 1_556 S
C494 C495 1.406 1_565 S
C495 C494 1.406 1_545 S
C495 C496 1.398 . S
C495 C501 1.491 . S
C496 H487 0.950 . S
C496 C495 1.398 . S
C496 C497 1.391 . S
C497 H485 0.950 . S
C497 C493 1.393 . S
C497 C496 1.391 . S
C498 H488 0.950 . S
C498 C499 1.386 . S
C498 C500 1.391 . S
C499 C498 1.386 . S
C499 C503 1.388 1_545 S
C500 H489 0.950 . S
C500 C498 1.391 . S
C500 C501 1.400 . S
C501 C495 1.491 . S
C501 C500 1.400 . S
C501 C502 1.398 1_545 S
C502 H490 0.950 . S
C502 C501 1.398 1_565 S
C502 C503 1.392 . S
C503 H491 0.954 . S
C503 C499 1.388 1_565 S
C503 C502 1.392 . S
H504 C512 0.950 . S
H505 C517 0.950 . S
H506 C514 0.950 1_554 S
H507 C516 0.950 . S
H508 C518 0.950 . S
H509 C520 0.950 . S
H510 C522 0.950 . S
H511 C523 0.950 . S
C512 H504 0.950 . S
C512 C513 1.386 1_554 S
C512 C514 1.391 1_554 S
C513 C512 1.386 1_556 S
C513 C517 1.393 . S
C514 H506 0.950 1_556 S
C514 C512 1.391 1_556 S
C514 C515 1.400 . S
C515 C514 1.400 . S
C515 C516 1.398 . S
C515 C521 1.491 . S
C516 H507 0.950 . S
C516 C515 1.398 . S
C516 C517 1.391 . S
C517 H505 0.950 . S
C517 C513 1.393 . S
C517 C516 1.391 . S
C518 H508 0.950 . S
C518 C519 1.386 . S
C518 C520 1.391 . S
C519 C518 1.386 . S
C519 C523 1.393 . S
C520 H509 0.950 . S
C520 C518 1.391 . S
C520 C521 1.400 . S
C521 C515 1.491 . S
C521 C520 1.400 . S
C521 C522 1.398 . S
C522 H510 0.950 . S
C522 C521 1.398 . S
C522 C523 1.391 . S
C523 H511 0.950 . S
C523 C519 1.393 . S
C523 C522 1.391 . S
H524 C532 0.950 . S
H525 C537 0.950 . S
H526 C534 0.950 . S
H527 C536 0.950 . S
H528 C538 0.950 . S
H529 C540 0.950 . S
H530 C542 0.950 . S
H531 C543 0.950 . S
C532 H524 0.950 . S
C532 C533 1.386 . S
C532 C534 1.391 . S
C533 C532 1.386 . S
C533 C537 1.393 1_554 S
C534 H526 0.950 . S
C534 C532 1.391 . S
C534 C535 1.400 1_554 S
C535 C534 1.400 1_556 S
C535 C536 1.398 . S
C535 C541 1.491 . S
C536 H527 0.950 . S
C536 C535 1.398 . S
C536 C537 1.391 . S
C537 H525 0.950 . S
C537 C533 1.393 1_556 S
C537 C536 1.391 . S
C538 H528 0.950 . S
C538 C539 1.386 . S
C538 C540 1.391 . S
C539 C538 1.386 . S
C539 C543 1.393 . S
C540 H529 0.950 . S
C540 C538 1.391 . S
C540 C541 1.400 . S
C541 C535 1.491 . S
C541 C540 1.400 . S
C541 C542 1.398 . S
C542 H530 0.950 . S
C542 C541 1.398 . S
C542 C543 1.391 . S
C543 H531 0.950 . S
C543 C539 1.393 . S
C543 C542 1.391 . S
H544 C552 0.950 . S
H545 C557 0.950 . S
H546 C554 0.950 . S
H547 C556 0.950 . S
H548 C558 0.950 1_556 S
H549 C560 0.950 . S
H550 C562 0.950 . S
H551 C563 0.950 . S
C552 H544 0.950 . S
C552 C553 1.386 . S
C552 C554 1.391 . S
C553 C552 1.386 . S
C553 C557 1.393 . S
C554 H546 0.950 . S
C554 C552 1.391 . S
C554 C555 1.400 . S
C555 C554 1.400 . S
C555 C556 1.398 . S
C555 C561 1.491 . S
C556 H547 0.950 . S
C556 C555 1.398 . S
C556 C557 1.391 . S
C557 H545 0.950 . S
C557 C553 1.393 . S
C557 C556 1.391 . S
C558 H548 0.950 1_554 S
C558 C559 1.386 . S
C558 C560 1.391 . S
C559 C558 1.386 . S
C559 C563 1.393 . S
C560 H549 0.950 . S
C560 C558 1.391 . S
C560 C561 1.400 . S
C561 C555 1.491 . S
C561 C560 1.400 . S
C561 C562 1.398 . S
C562 H550 0.950 . S
C562 C561 1.398 . S
C562 C563 1.391 . S
C563 H551 0.950 . S
C563 C559 1.393 . S
C563 C562 1.391 . S
H564 C572 0.950 . S
H565 C577 0.950 . S
H566 C574 0.950 . S
H567 C576 0.950 1_556 S
H568 C578 0.950 . S
H569 C580 0.950 . S
H570 C582 0.950 . S
H571 C583 0.950 . S
C572 H564 0.950 . S
C572 C573 1.387 . S
C572 C574 1.391 . S
C573 C572 1.387 . S
C573 C577 1.392 1_565 S
C574 H566 0.950 . S
C574 C572 1.391 . S
C574 C575 1.400 1_565 S
C575 C574 1.400 1_545 S
C575 C576 1.398 . S
C575 C581 1.491 . S
C576 H567 0.950 1_554 S
C576 C575 1.398 . S
C576 C577 1.391 . S
C577 H565 0.950 . S
C577 C573 1.392 1_545 S
C577 C576 1.391 . S
C578 H568 0.950 . S
C578 C579 1.386 . S
C578 C580 1.391 . S
C579 C578 1.386 . S
C579 C583 1.393 1_545 S
C580 H569 0.950 . S
C580 C578 1.391 . S
C580 C581 1.400 1_556 S
C581 C575 1.491 . S
C581 C580 1.400 1_554 S
C581 C582 1.398 1_545 S
C582 H570 0.950 . S
C582 C581 1.398 1_565 S
C582 C583 1.391 1_554 S
C583 H571 0.950 . S
C583 C579 1.393 1_565 S
C583 C582 1.391 1_556 S
H584 C592 0.950 . S
H585 C597 0.950 . S
H586 C594 0.950 . S
H587 C596 0.950 . S
H588 C598 0.950 . S
H589 C600 0.950 1_554 S
H590 C602 0.950 . S
H591 C603 0.950 . S
C592 H584 0.950 . S
C592 C593 1.386 . S
C592 C594 1.391 . S
C593 C592 1.386 . S
C593 C597 1.393 . S
C594 H586 0.950 . S
C594 C592 1.391 . S
C594 C595 1.400 . S
C595 C594 1.400 . S
C595 C596 1.398 . S
C595 C601 1.495 . S
C596 H587 0.950 . S
C596 C595 1.398 . S
C596 C597 1.391 . S
C597 H585 0.950 . S
C597 C593 1.393 . S
C597 C596 1.391 . S
C598 H588 0.950 . S
C598 C599 1.386 . S
C598 C600 1.391 . S
C599 C598 1.386 . S
C599 C603 1.393 . S
C600 H589 0.950 1_556 S
C600 C598 1.391 . S
C600 C601 1.400 1_556 S
C601 C595 1.495 . S
C601 C600 1.400 1_554 S
C601 C602 1.394 1_554 S
C602 H590 0.950 . S
C602 C601 1.394 1_556 S
C602 C603 1.391 . S
C603 H591 0.950 . S
C603 C599 1.393 . S
C603 C602 1.391 . S
H604 C612 0.950 . S
H605 C617 0.950 . S
H606 C614 0.950 . S
H607 C616 0.950 1_556 S
H608 C618 0.950 . S
H609 C620 0.950 . S
H610 C622 0.950 1_554 S
H611 C623 0.950 . S
C612 H604 0.950 . S
C612 C613 1.386 . S
C612 C614 1.391 . S
C613 C612 1.386 . S
C613 C617 1.393 . S
C614 H606 0.950 . S
C614 C612 1.391 . S
C614 C615 1.400 . S
C615 C614 1.400 . S
C615 C616 1.398 . S
C615 C621 1.491 1_554 S
C616 H607 0.950 1_554 S
C616 C615 1.398 . S
C616 C617 1.391 . S
C617 H605 0.950 . S
C617 C613 1.393 . S
C617 C616 1.391 . S
C618 H608 0.950 . S
C618 C619 1.386 . S
C618 C620 1.391 . S
C619 C618 1.386 . S
C619 C623 1.393 . S
C620 H609 0.950 . S
C620 C618 1.391 . S
C620 C621 1.400 . S
C621 C615 1.491 1_556 S
C621 C620 1.400 . S
C621 C622 1.398 . S
C622 H610 0.950 1_556 S
C622 C621 1.398 . S
C622 C623 1.391 . S
C623 H611 0.950 . S
C623 C619 1.393 . S
C623 C622 1.391 . S
H624 C632 0.980 . S
H625 C637 0.950 . S
H626 C634 0.950 1_455 S
H627 C636 0.950 . S
H628 C638 0.950 . S
H629 C640 0.950 . S
H630 C642 0.982 . S
H631 C643 0.950 . S
C632 H624 0.980 . S
C632 C633 1.386 . S
C632 C634 1.391 . S
C633 C632 1.386 . S
C633 C637 1.393 . S
C634 H626 0.950 1_655 S
C634 C632 1.391 . S
C634 C635 1.400 . S
C635 C634 1.400 . S
C635 C636 1.398 . S
C635 C641 1.491 . S
C636 H627 0.950 . S
C636 C635 1.398 . S
C636 C637 1.391 . S
C637 H625 0.950 . S
C637 C633 1.393 . S
C637 C636 1.391 . S
C638 H628 0.950 . S
C638 C639 1.386 . S
C638 C640 1.391 . S
C639 C638 1.386 . S
C639 C643 1.393 1_655 S
C640 H629 0.950 . S
C640 C638 1.391 . S
C640 C641 1.400 . S
C641 C635 1.491 . S
C641 C640 1.400 . S
C641 C642 1.358 1_655 S
C642 H630 0.982 . S
C642 C641 1.358 1_455 S
C642 C643 1.401 . S
C643 H631 0.950 . S
C643 C639 1.393 1_455 S
C643 C642 1.401 . S
H644 C652 0.951 1_545 S
H645 C657 0.950 . S
H646 C654 0.950 . S
H647 C656 0.950 . S
H648 C658 0.950 . S
H649 C660 0.950 . S
H650 C662 0.950 1_545 S
H651 C663 0.951 . S
C652 H644 0.951 1_565 S
C652 C653 1.386 . S
C652 C654 1.392 . S
C653 C652 1.386 . S
C653 C657 1.393 . S
C654 H646 0.950 . S
C654 C652 1.392 . S
C654 C655 1.400 . S
C655 C654 1.400 . S
C655 C656 1.398 . S
C655 C661 1.491 . S
C656 H647 0.950 . S
C656 C655 1.398 . S
C656 C657 1.391 . S
C657 H645 0.950 . S
C657 C653 1.393 . S
C657 C656 1.391 . S
C658 H648 0.950 . S
C658 C659 1.386 . S
C658 C660 1.391 . S
C659 C658 1.386 . S
C659 C663 1.393 . S
C660 H649 0.950 . S
C660 C658 1.391 . S
C660 C661 1.400 . S
C661 C655 1.491 . S
C661 C660 1.400 . S
C661 C662 1.399 . S
C662 H650 0.950 1_565 S
C662 C661 1.399 . S
C662 C663 1.390 . S
C663 H651 0.951 . S
C663 C659 1.393 . S
C663 C662 1.390 . S
H664 C672 0.950 . S
H665 C677 0.950 . S
H666 C674 0.950 . S
H667 C676 0.950 . S
H668 C678 0.950 . S
H669 C680 0.950 . S
H670 C682 0.950 . S
H671 C683 0.950 . S
C672 H664 0.950 . S
C672 C673 1.386 . S
C672 C674 1.391 . S
C673 C672 1.386 . S
C673 C677 1.393 . S
C674 H666 0.950 . S
C674 C672 1.391 . S
C674 C675 1.400 . S
C675 C674 1.400 . S
C675 C676 1.398 . S
C675 C681 1.491 . S
C676 H667 0.950 . S
C676 C675 1.398 . S
C676 C677 1.391 . S
C677 H665 0.950 . S
C677 C673 1.393 . S
C677 C676 1.391 . S
C678 H668 0.950 . S
C678 C679 1.386 . S
C678 C680 1.391 . S
C679 C678 1.386 . S
C679 C683 1.393 . S
C680 H669 0.950 . S
C680 C678 1.391 . S
C680 C681 1.400 . S
C681 C675 1.491 . S
C681 C680 1.400 . S
C681 C682 1.398 . S
C682 H670 0.950 . S
C682 C681 1.398 . S
C682 C683 1.391 . S
C683 H671 0.950 . S
C683 C679 1.393 . S
C683 C682 1.391 . S
H684 C692 0.950 . S
H685 C697 0.950 . S
H686 C694 0.950 . S
H687 C696 0.950 . S
H688 C698 0.950 . S
H689 C700 0.950 . S
H690 C702 0.950 . S
H691 C703 0.950 . S
C692 H684 0.950 . S
C692 C693 1.386 . S
C692 C694 1.391 . S
C693 C692 1.386 . S
C693 C697 1.393 . S
C694 H686 0.950 . S
C694 C692 1.391 . S
C694 C695 1.400 . S
C695 C694 1.400 . S
C695 C696 1.398 . S
C695 C701 1.491 . S
C696 H687 0.950 . S
C696 C695 1.398 . S
C696 C697 1.391 . S
C697 H685 0.950 . S
C697 C693 1.393 . S
C697 C696 1.391 . S
C698 H688 0.950 . S
C698 C699 1.386 . S
C698 C700 1.391 . S
C699 C698 1.386 . S
C699 C703 1.393 . S
C700 H689 0.950 . S
C700 C698 1.391 . S
C700 C701 1.400 . S
C701 C695 1.491 . S
C701 C700 1.400 . S
C701 C702 1.398 . S
C702 H690 0.950 . S
C702 C701 1.398 . S
C702 C703 1.391 . S
C703 H691 0.950 . S
C703 C699 1.393 . S
C703 C702 1.391 . S
C233 C74 1.821 1_565 S
C239 C105 1.834 . S
C259 C126 1.528 . S
C253 C85 1.518 . S
C279 C160 1.326 . S
C273 C52 1.313 . S
C299 C194 1.553 . S
C293 C63 1.554 . S
C319 C96 1.834 . S
C313 C30 1.812 1_556 S
C333 C41 1.510 1_556 S
C339 C135 1.536 . S
C353 C8 1.324 . S
C359 C169 1.341 . S
C373 C19 1.524 . S
C379 C203 1.552 1_655 S
C399 C117 0.559 . S
C393 C62 0.524 . S
C419 C122 1.008 . S
C413 C73 0.991 . S
C439 C156 0.935 . S
C433 C84 0.950 . S
C453 C51 0.490 . S
C459 C190 0.389 . S
C473 C18 0.639 . S
C479 C88 0.572 . S
C499 C151 0.998 . S
C493 C29 0.975 1_556 S
C519 C185 0.934 . S
C513 C40 0.899 1_556 S
C533 C7 0.418 . S
C539 C219 0.390 . S
C553 C60 1.171 . S
C559 C101 1.309 1_554 S
C573 C71 1.482 1_565 S
C579 C130 1.752 . S
C599 C164 1.536 . S
C593 C82 1.315 . S
C619 C198 1.593 . S
C613 C49 1.322 . S
C633 C16 1.051 . S
C639 C92 1.306 . S
C659 C139 1.750 . S
C653 C27 1.498 1_565 S
C679 C173 1.538 . S
C673 C38 1.227 . S
C693 C5 1.343 . S
C699 C207 1.594 . S
