# Generated by pormake.
# Topology gar, (4,6)-cn, num edge types: 1
# Building blocks:
#     Node 0, Type 0, BuildingBlock: KUFVIS_clean_sbu_0, # of connection points: 4
#     Node 1, Type 0, BuildingBlock: KUFVIS_clean_sbu_0, # of connection points: 4
#     Node 2, Type 0, BuildingBlock: KUFVIS_clean_sbu_0, # of connection points: 4
#     Node 3, Type 0, BuildingBlock: KUFVIS_clean_sbu_0, # of connection points: 4
#     Node 4, Type 0, BuildingBlock: KUFVIS_clean_sbu_0, # of connection points: 4
#     Node 5, Type 0, BuildingBlock: KUFVIS_clean_sbu_0, # of connection points: 4
#     Node 6, Type 0, BuildingBlock: KUFVIS_clean_sbu_0, # of connection points: 4
#     Node 7, Type 0, BuildingBlock: KUFVIS_clean_sbu_0, # of connection points: 4
#     Node 8, Type 0, BuildingBlock: KUFVIS_clean_sbu_0, # of connection points: 4
#     Node 9, Type 0, BuildingBlock: KUFVIS_clean_sbu_0, # of connection points: 4
#     Node 10, Type 0, BuildingBlock: KUFVIS_clean_sbu_0, # of connection points: 4
#     Node 11, Type 0, BuildingBlock: KUFVIS_clean_sbu_0, # of connection points: 4
#     Node 12, Type 0, BuildingBlock: KUFVIS_clean_sbu_0, # of connection points: 4
#     Node 13, Type 0, BuildingBlock: KUFVIS_clean_sbu_0, # of connection points: 4
#     Node 14, Type 0, BuildingBlock: KUFVIS_clean_sbu_0, # of connection points: 4
#     Node 15, Type 0, BuildingBlock: KUFVIS_clean_sbu_0, # of connection points: 4
#     Node 16, Type 0, BuildingBlock: KUFVIS_clean_sbu_0, # of connection points: 4
#     Node 17, Type 0, BuildingBlock: KUFVIS_clean_sbu_0, # of connection points: 4
#     Node 18, Type 0, BuildingBlock: KUFVIS_clean_sbu_0, # of connection points: 4
#     Node 19, Type 0, BuildingBlock: KUFVIS_clean_sbu_0, # of connection points: 4
#     Node 20, Type 0, BuildingBlock: KUFVIS_clean_sbu_0, # of connection points: 4
#     Node 21, Type 0, BuildingBlock: KUFVIS_clean_sbu_0, # of connection points: 4
#     Node 22, Type 0, BuildingBlock: KUFVIS_clean_sbu_0, # of connection points: 4
#     Node 23, Type 0, BuildingBlock: KUFVIS_clean_sbu_0, # of connection points: 4
#     Node 24, Type 1, BuildingBlock: BETFAJ_clean_sbu_0, # of connection points: 6
#     Node 25, Type 1, BuildingBlock: BETFAJ_clean_sbu_0, # of connection points: 6
#     Node 26, Type 1, BuildingBlock: BETFAJ_clean_sbu_0, # of connection points: 6
#     Node 27, Type 1, BuildingBlock: BETFAJ_clean_sbu_0, # of connection points: 6
#     Node 28, Type 1, BuildingBlock: BETFAJ_clean_sbu_0, # of connection points: 6
#     Node 29, Type 1, BuildingBlock: BETFAJ_clean_sbu_0, # of connection points: 6
#     Node 30, Type 1, BuildingBlock: BETFAJ_clean_sbu_0, # of connection points: 6
#     Node 31, Type 1, BuildingBlock: BETFAJ_clean_sbu_0, # of connection points: 6
#     Node 32, Type 1, BuildingBlock: BETFAJ_clean_sbu_0, # of connection points: 6
#     Node 33, Type 1, BuildingBlock: BETFAJ_clean_sbu_0, # of connection points: 6
#     Node 34, Type 1, BuildingBlock: BETFAJ_clean_sbu_0, # of connection points: 6
#     Node 35, Type 1, BuildingBlock: BETFAJ_clean_sbu_0, # of connection points: 6
#     Node 36, Type 1, BuildingBlock: BETFAJ_clean_sbu_0, # of connection points: 6
#     Node 37, Type 1, BuildingBlock: BETFAJ_clean_sbu_0, # of connection points: 6
#     Node 38, Type 1, BuildingBlock: BETFAJ_clean_sbu_0, # of connection points: 6
#     Node 39, Type 1, BuildingBlock: BETFAJ_clean_sbu_0, # of connection points: 6
#     Edge 40, Type (0, 1), BuildingBlock: EZIPEK_clean_linker_0, # of connection points: 2
#     Edge 41, Type (0, 1), BuildingBlock: EZIPEK_clean_linker_0, # of connection points: 2
#     Edge 42, Type (0, 1), BuildingBlock: EZIPEK_clean_linker_0, # of connection points: 2
#     Edge 43, Type (0, 1), BuildingBlock: EZIPEK_clean_linker_0, # of connection points: 2
#     Edge 44, Type (0, 1), BuildingBlock: EZIPEK_clean_linker_0, # of connection points: 2
#     Edge 45, Type (0, 1), BuildingBlock: EZIPEK_clean_linker_0, # of connection points: 2
#     Edge 46, Type (0, 1), BuildingBlock: EZIPEK_clean_linker_0, # of connection points: 2
#     Edge 47, Type (0, 1), BuildingBlock: EZIPEK_clean_linker_0, # of connection points: 2
#     Edge 48, Type (0, 1), BuildingBlock: EZIPEK_clean_linker_0, # of connection points: 2
#     Edge 49, Type (0, 1), BuildingBlock: EZIPEK_clean_linker_0, # of connection points: 2
#     Edge 50, Type (0, 1), BuildingBlock: EZIPEK_clean_linker_0, # of connection points: 2
#     Edge 51, Type (0, 1), BuildingBlock: EZIPEK_clean_linker_0, # of connection points: 2
#     Edge 52, Type (0, 1), BuildingBlock: EZIPEK_clean_linker_0, # of connection points: 2
#     Edge 53, Type (0, 1), BuildingBlock: EZIPEK_clean_linker_0, # of connection points: 2
#     Edge 54, Type (0, 1), BuildingBlock: EZIPEK_clean_linker_0, # of connection points: 2
#     Edge 55, Type (0, 1), BuildingBlock: EZIPEK_clean_linker_0, # of connection points: 2
#     Edge 56, Type (0, 1), BuildingBlock: EZIPEK_clean_linker_0, # of connection points: 2
#     Edge 57, Type (0, 1), BuildingBlock: EZIPEK_clean_linker_0, # of connection points: 2
#     Edge 58, Type (0, 1), BuildingBlock: EZIPEK_clean_linker_0, # of connection points: 2
#     Edge 59, Type (0, 1), BuildingBlock: EZIPEK_clean_linker_0, # of connection points: 2
#     Edge 60, Type (0, 1), BuildingBlock: EZIPEK_clean_linker_0, # of connection points: 2
#     Edge 61, Type (0, 1), BuildingBlock: EZIPEK_clean_linker_0, # of connection points: 2
#     Edge 62, Type (0, 1), BuildingBlock: EZIPEK_clean_linker_0, # of connection points: 2
#     Edge 63, Type (0, 1), BuildingBlock: EZIPEK_clean_linker_0, # of connection points: 2
#     Edge 64, Type (0, 1), BuildingBlock: EZIPEK_clean_linker_0, # of connection points: 2
#     Edge 65, Type (0, 1), BuildingBlock: EZIPEK_clean_linker_0, # of connection points: 2
#     Edge 66, Type (0, 1), BuildingBlock: EZIPEK_clean_linker_0, # of connection points: 2
#     Edge 67, Type (0, 1), BuildingBlock: EZIPEK_clean_linker_0, # of connection points: 2
#     Edge 68, Type (0, 1), BuildingBlock: EZIPEK_clean_linker_0, # of connection points: 2
#     Edge 69, Type (0, 1), BuildingBlock: EZIPEK_clean_linker_0, # of connection points: 2
#     Edge 70, Type (0, 1), BuildingBlock: EZIPEK_clean_linker_0, # of connection points: 2
#     Edge 71, Type (0, 1), BuildingBlock: EZIPEK_clean_linker_0, # of connection points: 2
#     Edge 72, Type (0, 1), BuildingBlock: EZIPEK_clean_linker_0, # of connection points: 2
#     Edge 73, Type (0, 1), BuildingBlock: EZIPEK_clean_linker_0, # of connection points: 2
#     Edge 74, Type (0, 1), BuildingBlock: EZIPEK_clean_linker_0, # of connection points: 2
#     Edge 75, Type (0, 1), BuildingBlock: EZIPEK_clean_linker_0, # of connection points: 2
#     Edge 76, Type (0, 1), BuildingBlock: EZIPEK_clean_linker_0, # of connection points: 2
#     Edge 77, Type (0, 1), BuildingBlock: EZIPEK_clean_linker_0, # of connection points: 2
#     Edge 78, Type (0, 1), BuildingBlock: EZIPEK_clean_linker_0, # of connection points: 2
#     Edge 79, Type (0, 1), BuildingBlock: EZIPEK_clean_linker_0, # of connection points: 2
#     Edge 80, Type (0, 1), BuildingBlock: EZIPEK_clean_linker_0, # of connection points: 2
#     Edge 81, Type (0, 1), BuildingBlock: EZIPEK_clean_linker_0, # of connection points: 2
#     Edge 82, Type (0, 1), BuildingBlock: EZIPEK_clean_linker_0, # of connection points: 2
#     Edge 83, Type (0, 1), BuildingBlock: EZIPEK_clean_linker_0, # of connection points: 2
#     Edge 84, Type (0, 1), BuildingBlock: EZIPEK_clean_linker_0, # of connection points: 2
#     Edge 85, Type (0, 1), BuildingBlock: EZIPEK_clean_linker_0, # of connection points: 2
#     Edge 86, Type (0, 1), BuildingBlock: EZIPEK_clean_linker_0, # of connection points: 2
#     Edge 87, Type (0, 1), BuildingBlock: EZIPEK_clean_linker_0, # of connection points: 2
#     Edge 88, Type (0, 1), BuildingBlock: EZIPEK_clean_linker_0, # of connection points: 2
#     Edge 89, Type (0, 1), BuildingBlock: EZIPEK_clean_linker_0, # of connection points: 2
#     Edge 90, Type (0, 1), BuildingBlock: EZIPEK_clean_linker_0, # of connection points: 2
#     Edge 91, Type (0, 1), BuildingBlock: EZIPEK_clean_linker_0, # of connection points: 2
#     Edge 92, Type (0, 1), BuildingBlock: EZIPEK_clean_linker_0, # of connection points: 2
#     Edge 93, Type (0, 1), BuildingBlock: EZIPEK_clean_linker_0, # of connection points: 2
#     Edge 94, Type (0, 1), BuildingBlock: EZIPEK_clean_linker_0, # of connection points: 2
#     Edge 95, Type (0, 1), BuildingBlock: EZIPEK_clean_linker_0, # of connection points: 2
#     Edge 96, Type (0, 1), BuildingBlock: EZIPEK_clean_linker_0, # of connection points: 2
#     Edge 97, Type (0, 1), BuildingBlock: EZIPEK_clean_linker_0, # of connection points: 2
#     Edge 98, Type (0, 1), BuildingBlock: EZIPEK_clean_linker_0, # of connection points: 2
#     Edge 99, Type (0, 1), BuildingBlock: EZIPEK_clean_linker_0, # of connection points: 2
#     Edge 100, Type (0, 1), BuildingBlock: EZIPEK_clean_linker_0, # of connection points: 2
#     Edge 101, Type (0, 1), BuildingBlock: EZIPEK_clean_linker_0, # of connection points: 2
#     Edge 102, Type (0, 1), BuildingBlock: EZIPEK_clean_linker_0, # of connection points: 2
#     Edge 103, Type (0, 1), BuildingBlock: EZIPEK_clean_linker_0, # of connection points: 2
#     Edge 104, Type (0, 1), BuildingBlock: EZIPEK_clean_linker_0, # of connection points: 2
#     Edge 105, Type (0, 1), BuildingBlock: EZIPEK_clean_linker_0, # of connection points: 2
#     Edge 106, Type (0, 1), BuildingBlock: EZIPEK_clean_linker_0, # of connection points: 2
#     Edge 107, Type (0, 1), BuildingBlock: EZIPEK_clean_linker_0, # of connection points: 2
#     Edge 108, Type (0, 1), BuildingBlock: EZIPEK_clean_linker_0, # of connection points: 2
#     Edge 109, Type (0, 1), BuildingBlock: EZIPEK_clean_linker_0, # of connection points: 2
#     Edge 110, Type (0, 1), BuildingBlock: EZIPEK_clean_linker_0, # of connection points: 2
#     Edge 111, Type (0, 1), BuildingBlock: EZIPEK_clean_linker_0, # of connection points: 2
#     Edge 112, Type (0, 1), BuildingBlock: EZIPEK_clean_linker_0, # of connection points: 2
#     Edge 113, Type (0, 1), BuildingBlock: EZIPEK_clean_linker_0, # of connection points: 2
#     Edge 114, Type (0, 1), BuildingBlock: EZIPEK_clean_linker_0, # of connection points: 2
#     Edge 115, Type (0, 1), BuildingBlock: EZIPEK_clean_linker_0, # of connection points: 2
#     Edge 116, Type (0, 1), BuildingBlock: EZIPEK_clean_linker_0, # of connection points: 2
#     Edge 117, Type (0, 1), BuildingBlock: EZIPEK_clean_linker_0, # of connection points: 2
#     Edge 118, Type (0, 1), BuildingBlock: EZIPEK_clean_linker_0, # of connection points: 2
#     Edge 119, Type (0, 1), BuildingBlock: EZIPEK_clean_linker_0, # of connection points: 2
#     Edge 120, Type (0, 1), BuildingBlock: EZIPEK_clean_linker_0, # of connection points: 2
#     Edge 121, Type (0, 1), BuildingBlock: EZIPEK_clean_linker_0, # of connection points: 2
#     Edge 122, Type (0, 1), BuildingBlock: EZIPEK_clean_linker_0, # of connection points: 2
#     Edge 123, Type (0, 1), BuildingBlock: EZIPEK_clean_linker_0, # of connection points: 2
#     Edge 124, Type (0, 1), BuildingBlock: EZIPEK_clean_linker_0, # of connection points: 2
#     Edge 125, Type (0, 1), BuildingBlock: EZIPEK_clean_linker_0, # of connection points: 2
#     Edge 126, Type (0, 1), BuildingBlock: EZIPEK_clean_linker_0, # of connection points: 2
#     Edge 127, Type (0, 1), BuildingBlock: EZIPEK_clean_linker_0, # of connection points: 2
#     Edge 128, Type (0, 1), BuildingBlock: EZIPEK_clean_linker_0, # of connection points: 2
#     Edge 129, Type (0, 1), BuildingBlock: EZIPEK_clean_linker_0, # of connection points: 2
#     Edge 130, Type (0, 1), BuildingBlock: EZIPEK_clean_linker_0, # of connection points: 2
#     Edge 131, Type (0, 1), BuildingBlock: EZIPEK_clean_linker_0, # of connection points: 2
#     Edge 132, Type (0, 1), BuildingBlock: EZIPEK_clean_linker_0, # of connection points: 2
#     Edge 133, Type (0, 1), BuildingBlock: EZIPEK_clean_linker_0, # of connection points: 2
#     Edge 134, Type (0, 1), BuildingBlock: EZIPEK_clean_linker_0, # of connection points: 2
#     Edge 135, Type (0, 1), BuildingBlock: EZIPEK_clean_linker_0, # of connection points: 2
# Relax obj value: 0.252
# Max RMSD: 0.347
# Mean RMSD: 0.171
data_MOF--net-gar--node1-KUFVIS_clean_sbu_0--node2-BETFAJ_clean_sbu_0--edge1-EZIPEK_clean_linker_0
_symmetry_space_group_name_H-M    P1
_symmetry_Int_Tables_number       1
_symmetry_cell_setting            triclinic
loop_
_symmetry_equiv_pos_as_xyz
'x, y, z'
_cell_length_a     47.322965
_cell_length_b     42.087297
_cell_length_c     43.237215
_cell_angle_alpha  99.258275
_cell_angle_beta   95.520204
_cell_angle_gamma 102.71622
loop_
_atom_site_label
_atom_site_type_symbol
_atom_site_fract_x
_atom_site_fract_y
_atom_site_fract_z
_atom_type_partial_charge
Mn0 Mn 0.14926 0.36514 0.40894 0.0
Mn1 Mn 0.15426 0.42374 0.3635 0.0
C2 C 0.10804 0.37776 0.38563 0.0
C3 C 0.14137 0.31346 0.42258 0.0
C4 C 0.1646 0.43867 0.43523 0.0
O5 O 0.18848 0.36544 0.39364 0.0
O6 O 0.19013 0.40615 0.36562 0.0
C7 C 0.15444 0.37995 0.30234 0.0
N8 N 0.14294 0.40255 0.31997 0.0
C9 C 0.10602 0.39938 0.27636 0.0
C10 C 0.11801 0.37676 0.25762 0.0
C11 C 0.14223 0.36687 0.27074 0.0
C12 C 0.11907 0.4115 0.30778 0.0
H13 H 0.17242 0.3714 0.31238 0.0
C14 C 0.20094 0.38351 0.37529 0.0
O15 O 0.15583 0.3398 0.442 0.0
O16 O 0.13419 0.31612 0.39343 0.0
N17 N 0.12062 0.44186 0.35816 0.0
C18 C 0.11226 0.46504 0.37884 0.0
C19 C 0.08867 0.47797 0.3691 0.0
C20 C 0.07416 0.46743 0.33806 0.0
C21 C 0.08367 0.44443 0.3169 0.0
C22 C 0.10758 0.4327 0.32783 0.0
H23 H 0.12346 0.47383 0.40264 0.0
O24 O 0.10754 0.3666 0.41187 0.0
O25 O 0.1328 0.38329 0.3751 0.0
O26 O 0.16475 0.40946 0.43815 0.0
O27 O 0.16322 0.44758 0.40837 0.0
C28 C 0.07051 0.43293 0.28529 0.0
C29 C 0.08147 0.41014 0.26512 0.0
H30 H 0.10861 0.36657 0.23324 0.0
H31 H 0.15134 0.349 0.25659 0.0
H32 H 0.08174 0.49609 0.38549 0.0
H33 H 0.05586 0.47733 0.33067 0.0
H34 H 0.05187 0.4414 0.27627 0.0
H35 H 0.07094 0.40118 0.24095 0.0
Mn36 Mn 0.02426 0.75984 0.66904 0.0
Mn37 Mn 0.04781 0.82641 0.72842 0.0
C38 C 0.07258 0.77491 0.69409 0.0
C39 C 1.0121 0.70557 0.6439 0.0
C40 C 0.0399 0.83137 0.65939 0.0
O41 O 0.98557 0.76518 0.68359 0.0
O42 O 1.00471 0.81157 0.71999 0.0
C43 C 0.02682 0.79175 0.77948 0.0
N44 N 0.04906 0.80996 0.76725 0.0
C45 C 0.08412 0.80803 0.81075 0.0
C46 C 0.06156 0.78943 0.82384 0.0
C47 C 0.03281 0.78117 0.80809 0.0
C48 C 0.0769 0.8175 0.78197 0.0
H49 H 1.00469 0.78515 0.76746 0.0
C50 C 0.98287 0.78921 0.70435 0.0
O51 O 1.00422 0.72801 0.6304 0.0
O52 O 1.01964 0.713 0.67444 0.0
N53 N 0.08918 0.84334 0.73984 0.0
C54 C 0.10719 0.86679 0.72772 0.0
C55 C 0.13664 0.87849 0.74097 0.0
C56 C 0.14685 0.86778 0.76807 0.0
C57 C 0.12714 0.84654 0.78228 0.0
C58 C 0.0981 0.83538 0.76759 0.0
H59 H 0.09884 0.8776 0.70893 0.0
O60 O 0.06606 0.75908 0.66518 0.0
O61 O 0.05105 0.78307 0.70699 0.0
O62 O 0.02811 0.80089 0.64968 0.0
O63 O 0.04874 0.84432 0.68854 0.0
C64 C 0.13493 0.83711 0.81109 0.0
C65 C 0.11347 0.81764 0.82521 0.0
H66 H 0.06606 0.78137 0.84598 0.0
H67 H 1.0153 0.76666 0.81797 0.0
H68 H 0.15119 0.8965 0.73091 0.0
H69 H 0.1695 0.8772 0.77856 0.0
H70 H 0.15726 0.84513 0.82285 0.0
H71 H 0.11969 0.81066 0.84746 0.0
Mn72 Mn 0.64288 0.86233 0.90665 0.0
Mn73 Mn 0.64977 0.91988 0.85867 0.0
C74 C 0.6015 0.86967 0.8786 0.0
C75 C 0.63985 0.81074 0.92132 0.0
C76 C 0.65618 0.93644 0.93078 0.0
O77 O 0.68498 0.86808 0.89747 0.0
O78 O 0.68424 0.89983 0.85994 0.0
C79 C 0.65491 0.88817 0.79405 0.0
N80 N 0.63834 0.90041 0.81482 0.0
C81 C 0.59997 0.89611 0.77241 0.0
C82 C 0.61509 0.87947 0.75148 0.0
C83 C 0.64307 0.87625 0.7622 0.0
C84 C 0.61248 0.90629 0.80421 0.0
H85 H 0.67742 0.88872 0.8015 0.0
C86 C 0.69524 0.88002 0.87431 0.0
O87 O 0.649 0.83845 0.94107 0.0
O88 O 0.63439 0.81296 0.89174 0.0
N89 N 0.61684 0.93916 0.85383 0.0
C90 C 0.61303 0.9675 0.87138 0.0
C91 C 0.58853 0.97956 0.86312 0.0
C92 C 0.56995 0.96457 0.83489 0.0
C93 C 0.57716 0.93902 0.81453 0.0
C94 C 0.60109 0.92699 0.82493 0.0
H95 H 0.62858 0.98081 0.89173 0.0
O96 O 0.60014 0.85749 0.90433 0.0
O97 O 0.62737 0.87845 0.87034 0.0
O98 O 0.64986 0.90692 0.93497 0.0
O99 O 0.66029 0.94402 0.90378 0.0
C100 C 0.5631 0.92718 0.78335 0.0
C101 C 0.5743 0.90542 0.76234 0.0
H102 H 0.60636 0.87118 0.72667 0.0
H103 H 0.6559 0.86572 0.74575 0.0
H104 H 0.58456 1.001 0.87793 0.0
H105 H 0.55152 0.97448 0.82802 0.0
H106 H 0.54463 0.93617 0.77479 0.0
H107 H 0.56404 0.89766 0.73798 0.0
Mn108 Mn 0.52307 0.25421 0.17584 0.0
Mn109 Mn 0.46883 0.25256 0.12207 0.0
C110 C 0.50646 0.20461 0.13982 0.0
C111 C 0.57029 0.26585 0.19847 0.0
C112 C 0.46667 0.26314 0.19241 0.0
O113 O 0.52714 0.30292 0.17068 0.0
O114 O 0.49817 0.29475 0.12415 0.0
C115 C 0.48306 0.2588 0.0581 0.0
N116 N 0.46924 0.23989 0.07762 0.0
C117 C 0.43385 0.20753 0.03391 0.0
C118 C 0.44883 0.22528 1.01325 0.0
C119 C 0.47375 0.25086 0.0254 0.0
C120 C 0.44531 0.21503 0.066 0.0
H121 H 0.50085 0.28015 0.06749 0.0
C122 C 0.51953 0.31208 0.14485 0.0
O123 O 0.54944 0.26754 0.21527 0.0
O124 O 0.56414 0.25781 0.16783 0.0
N125 N 0.44097 0.21123 0.11837 0.0
C126 C 0.43014 0.19509 0.14115 0.0
C127 C 0.40648 0.16719 0.13269 0.0
C128 C 0.3935 0.1571 0.10101 0.0
C129 C 0.40553 0.17383 0.07802 0.0
C130 C 0.43071 0.19946 0.0876 0.0
H131 H 0.43941 0.20333 0.16545 0.0
O132 O 0.51656 0.20537 0.16908 0.0
O133 O 0.50256 0.23309 0.13408 0.0
O134 O 0.48773 0.25075 0.19845 0.0
O135 O 0.46038 0.26894 0.1651 0.0
C136 C 0.3929 0.16711 0.04625 0.0
C137 C 0.40686 0.18435 0.02427 0.0
H138 H 0.44087 0.22017 0.98818 0.0
H139 H 0.48495 0.26542 1.00978 0.0
H140 H 0.39774 0.15417 0.15063 0.0
H141 H 0.3744 0.13654 0.09462 0.0
H142 H 0.37221 0.14908 0.03867 0.0
H143 H 0.39665 0.17974 0.99994 0.0
Mn144 Mn 0.14238 0.83098 0.13758 0.0
Mn145 Mn 0.08897 0.81222 0.07343 0.0
C146 C 0.12369 0.77553 0.11011 0.0
C147 C 0.19251 0.84155 0.16501 0.0
C148 C 0.07628 0.82805 0.14135 0.0
O149 O 0.14327 0.87777 0.12391 0.0
O150 O 0.10906 0.85965 0.08061 0.0
C151 C 0.12659 0.82243 0.02334 0.0
N152 N 0.10531 0.80253 0.03533 0.0
C153 C 0.09384 0.76221 0.98696 0.0
C154 C 0.11577 0.78213 0.97414 0.0
C155 C 0.13241 0.81223 0.99253 0.0
C156 C 0.09 0.77289 1.01835 0.0
H157 H 0.13865 0.84613 0.03703 0.0
C158 C 0.12759 0.88293 0.09958 0.0
O159 O 0.17094 0.84869 0.17874 0.0
O160 O 0.18597 0.83185 0.13453 0.0
N161 N 0.0657 0.76767 0.06233 0.0
C162 C 0.04202 0.75443 0.07587 0.0
C163 C 0.02126 0.72622 0.05932 0.0
C164 C 0.02457 0.71223 0.02863 0.0
C165 C 0.04837 0.72675 1.01463 0.0
C166 C 0.06856 0.75479 0.03234 0.0
H167 H 0.03859 0.76564 0.09899 0.0
O168 O 0.13641 0.78225 0.13905 0.0
O169 O 0.12214 0.80126 0.09753 0.0
O170 O 0.10255 0.83148 0.1544 0.0
O171 O 0.06966 0.82092 0.11138 0.0
C172 C 0.05143 0.71601 0.98288 0.0
C173 C 0.07459 0.73319 0.96926 0.0
H174 H 0.1196 0.77491 0.95 0.0
H175 H 0.14914 0.82794 0.98267 0.0
H176 H 1.00247 0.71563 0.06999 0.0
H177 H 1.0083 0.69095 1.01557 0.0
H178 H 0.03538 0.69532 0.96838 0.0
H179 H 0.07654 0.72475 0.94471 0.0
Mn180 Mn 0.53549 0.78406 0.44424 0.0
Mn181 Mn 0.54379 0.83009 0.38882 0.0
C182 C 0.49136 0.78772 0.41079 0.0
C183 C 0.54305 0.73526 0.46448 0.0
C184 C 0.55707 0.85753 0.45926 0.0
O185 O 0.57984 0.79492 0.43778 0.0
O186 O 0.57541 0.80647 0.38864 0.0
C187 C 0.53729 0.78833 0.32549 0.0
N188 N 0.52816 0.81078 0.34602 0.0
C189 C 0.4959 0.82118 0.30439 0.0
C190 C 0.50467 0.79792 0.28276 0.0
C191 C 0.52543 0.78137 0.29338 0.0
C192 C 0.50864 0.82721 0.33597 0.0
H193 H 0.55375 0.77621 0.33353 0.0
C194 C 0.59051 0.80061 0.41231 0.0
O195 O 0.54491 0.7636 0.48232 0.0
O196 O 0.53453 0.73425 0.43463 0.0
N197 N 0.51417 0.85382 0.38842 0.0
C198 C 0.50529 0.87194 0.4131 0.0
C199 C 0.48126 0.8851 0.4077 0.0
C200 C 0.46715 0.87991 0.37696 0.0
C201 C 0.47793 0.86385 0.35148 0.0
C202 C 0.50081 0.8494 0.35859 0.0
H203 H 0.5148 0.8748 0.43705 0.0
O204 O 0.49001 0.77612 0.43698 0.0
O205 O 0.51819 0.79412 0.4042 0.0
O206 O 0.54036 0.83293 0.46738 0.0
O207 O 0.56204 0.85517 0.43088 0.0
C208 C 0.46579 0.85973 0.31968 0.0
C209 C 0.47489 0.83851 0.29602 0.0
H210 H 0.49553 0.79248 0.25802 0.0
H211 H 0.53246 0.76355 0.27679 0.0
H212 H 0.47264 0.89748 0.42727 0.0
H213 H 0.44663 0.88559 0.3739 0.0
H214 H 0.44944 0.87267 0.31323 0.0
H215 H 0.46504 0.83501 0.27168 0.0
Mn216 Mn 0.64083 0.33231 0.63311 0.0
Mn217 Mn 0.58263 0.3069 0.57453 0.0
C218 C 0.62611 0.27632 0.6076 0.0
C219 C 0.691 0.34323 0.65876 0.0
C220 C 0.57641 0.32474 0.64383 0.0
O221 O 0.63994 0.37638 0.61655 0.0
O222 O 0.6003 0.35584 0.57861 0.0
C223 C 0.60463 0.31806 0.51436 0.0
N224 N 0.59084 0.29705 0.53202 0.0
C225 C 0.57133 0.25481 0.48546 0.0
C226 C 0.58595 0.27584 0.467 0.0
C227 C 0.60275 0.30754 0.48153 0.0
C228 C 0.57436 0.26651 0.51811 0.0
H229 H 0.61633 0.34286 0.52516 0.0
C230 C 0.62117 0.37992 0.59415 0.0
O231 O 0.67044 0.3528 0.67261 0.0
O232 O 0.68376 0.33235 0.62849 0.0
N233 N 0.5642 0.26064 0.56859 0.0
C234 C 0.55292 0.24276 0.59008 0.0
C235 C 0.5371 0.20971 0.57978 0.0
C236 C 0.5325 0.19566 0.54743 0.0
C237 C 0.54422 0.2146 0.52577 0.0
C238 C 0.56062 0.24705 0.53761 0.0
H239 H 0.55593 0.25369 0.61486 0.0
O240 O 0.63596 0.28543 0.63736 0.0
O241 O 0.62066 0.30015 0.59366 0.0
O242 O 0.60352 0.33382 0.65444 0.0
O243 O 0.56722 0.31456 0.61474 0.0
C244 C 0.54043 0.20255 0.49294 0.0
C245 C 0.55377 0.22276 0.47274 0.0
H246 H 0.58426 0.268 0.44163 0.0
H247 H 0.6137 0.32412 0.46735 0.0
H248 H 0.52812 0.19525 0.59665 0.0
H249 H 0.52004 0.17032 0.53949 0.0
H250 H 0.52756 0.17768 0.48302 0.0
H251 H 0.55085 0.21315 0.44755 0.0
Mn252 Mn 0.03487 0.28252 0.94055 0.0
Mn253 Mn 0.03907 0.33529 0.89024 0.0
C254 C 0.98972 0.2836 0.90689 0.0
C255 C 0.04545 0.23393 0.95883 0.0
C256 C 0.04924 0.35589 0.96179 0.0
O257 O 0.07931 0.29943 0.9353 0.0
O258 O 0.07395 0.31691 0.88896 0.0
C259 C 0.0374 0.29874 0.82541 0.0
N260 N 0.02555 0.31768 0.84664 0.0
C261 C 0.99129 0.32566 0.80556 0.0
C262 C 1.0029 0.30605 0.78321 0.0
C263 C 0.026 0.29242 0.7932 0.0
C264 C 1.00353 0.33107 0.83725 0.0
H265 H 0.05559 0.2889 0.83298 0.0
C266 C 0.08987 0.30999 0.91131 0.0
O267 O 0.04581 0.26123 0.97739 0.0
O268 O 0.03754 0.23368 0.92898 0.0
N269 N 1.00617 0.35402 0.89039 0.0
C270 C 0.99578 0.36986 0.91529 0.0
C271 C 0.96997 0.38005 0.91001 0.0
C272 C 0.95593 0.37475 0.87908 0.0
C273 C 0.96832 0.36141 0.85361 0.0
C274 C 0.99297 0.34972 0.8605 0.0
H275 H 1.00607 0.37359 0.93915 0.0
O276 O 0.98915 0.26992 0.93193 0.0
O277 O 1.01663 0.29444 0.90179 0.0
O278 O 0.03577 0.32819 0.96736 0.0
O279 O 0.0545 0.35913 0.93405 0.0
C280 C 0.9564 0.3578 0.82183 0.0
C281 C 0.96805 0.34009 0.79771 0.0
H282 H 0.99418 0.3012 0.75836 0.0
H283 H 0.03518 0.27738 0.77607 0.0
H284 H 0.96036 0.39069 0.92968 0.0
H285 H 0.93459 0.37862 0.87521 0.0
H286 H 0.93846 0.36874 0.81577 0.0
H287 H 0.95881 0.33725 0.77329 0.0
Mn288 Mn 0.47148 0.05697 0.3166 0.0
Mn289 Mn 0.41824 0.03438 0.35974 0.0
C290 C 0.4528 1.00232 0.31462 0.0
C291 C 0.48521 0.06286 0.26879 0.0
C292 C 0.48118 0.06886 0.38698 0.0
O293 O 0.45555 0.09747 0.32605 0.0
O294 O 0.41362 0.07314 0.34167 0.0
C295 C 0.36518 1.01402 0.31166 0.0
N296 N 0.38244 1.00751 0.33574 0.0
C297 C 0.34569 0.9593 0.34002 0.0
C298 C 0.32756 0.96533 0.31513 0.0
C299 C 0.33748 0.99261 0.30067 0.0
C300 C 0.37345 0.98073 0.34907 0.0
H301 H 0.37242 0.03557 0.30123 0.0
C302 C 0.42922 0.09652 0.33057 0.0
O303 O 0.50313 0.07791 0.29428 0.0
O304 O 0.45807 0.05208 0.27174 0.0
N305 N 0.42001 0.99582 0.37746 0.0
C306 C 0.44177 0.99015 0.39719 0.0
C307 C 0.43538 0.96468 0.41472 0.0
C308 C 0.40671 0.94498 0.41135 0.0
C309 C 0.38531 0.94933 0.38862 0.0
C310 C 0.39304 0.97526 0.37207 0.0
H311 H 0.46381 1.00477 0.39921 0.0
O312 O 0.47881 1.01203 0.30779 0.0
O313 O 0.43953 0.02479 0.32456 0.0
O314 O 0.49183 0.06488 0.36117 0.0
O315 O 0.45377 0.06128 0.38838 0.0
C316 C 0.35703 0.92825 0.38087 0.0
C317 C 0.33732 0.93302 0.35634 0.0
H318 H 0.306 0.94925 0.30697 0.0
H319 H 0.32356 0.99748 0.28151 0.0
H320 H 0.45251 0.96017 0.43068 0.0
H321 H 0.40191 0.92514 0.42462 0.0
H322 H 0.35048 0.90788 0.39314 0.0
H323 H 0.31586 0.91622 0.35011 0.0
Mn324 Mn 0.29707 0.22722 0.52337 0.0
Mn325 Mn 0.28833 0.16174 0.46381 0.0
C326 C 0.24944 0.19169 0.50516 0.0
C327 C 0.3054 0.2495 0.57934 0.0
C328 C 0.30714 0.23377 0.4542 0.0
O329 O 0.33797 0.21795 0.52452 0.0
O330 O 0.3274 0.16882 0.49006 0.0
C331 C 0.28826 0.1032 0.49356 0.0
N332 N 0.27361 0.12032 0.47628 0.0
C333 C 0.23037 0.07553 0.4659 0.0
C334 C 0.24459 0.05817 0.48491 0.0
C335 C 0.27379 0.07192 0.4985 0.0
C336 C 0.24597 0.10661 0.46183 0.0
H337 H 0.31101 0.11294 0.50276 0.0
C338 C 0.3447 0.19151 0.51147 0.0
O339 O 0.31065 0.26809 0.55831 0.0
O340 O 0.2957 0.21818 0.5678 0.0
N341 N 0.25083 0.15355 0.43893 0.0
C342 C 0.24065 0.17283 0.42015 0.0
C343 C 0.21216 0.162 0.40374 0.0
C344 C 0.19443 0.13147 0.40675 0.0
C345 C 0.20538 0.11205 0.42619 0.0
C346 C 0.23392 0.12418 0.44205 0.0
H347 H 0.25404 0.19639 0.41779 0.0
O348 O 0.2528 0.22232 0.51896 0.0
O349 O 0.27409 0.18425 0.50023 0.0
O350 O 0.30311 0.24724 0.48189 0.0
O351 O 0.3031 0.20236 0.44645 0.0
C352 C 0.18902 0.08123 0.43059 0.0
C353 C 0.20155 0.06292 0.45034 0.0
H354 H 0.23354 0.03394 0.4886 0.0
H355 H 0.28525 0.05823 0.51236 0.0
H356 H 0.20383 0.17722 0.38892 0.0
H357 H 0.17242 0.12325 0.39415 0.0
H358 H 0.16683 0.0713 0.41877 0.0
H359 H 0.18889 0.03905 0.45321 0.0
Mn360 Mn 0.20367 0.0469 0.78526 0.0
Mn361 Mn 0.25891 0.0648 0.84583 0.0
C362 C 0.23462 0.1053 0.80175 0.0
C363 C 0.17897 0.04053 0.72774 0.0
C364 C 0.19367 0.04765 0.86023 0.0
O365 O 0.21908 0.99887 0.78384 0.0
O366 O 0.25611 1.01602 0.82411 0.0
C367 C 0.31175 0.06093 0.81505 0.0
N368 N 0.29662 0.07899 0.83312 0.0
C369 C 0.33686 0.12733 0.8425 0.0
C370 C 0.3528 0.10919 0.82403 0.0
C371 C 0.34019 0.07586 0.81027 0.0
C372 C 0.30877 0.11101 0.84686 0.0
H373 H 0.30229 0.0353 0.8044 0.0
C374 C 0.24167 0.99259 0.80088 0.0
O375 O 0.16564 0.0319 0.75096 0.0
O376 O 0.20704 0.049 0.7366 0.0
N377 N 0.26471 0.11014 0.86668 0.0
C378 C 0.245 0.1257 0.87958 0.0
C379 C 0.25374 0.15946 0.89342 0.0
C380 C 0.28233 0.17736 0.89269 0.0
C381 C 0.30168 0.16143 0.87748 0.0
C382 C 0.29184 0.12752 0.86453 0.0
H383 H 0.22249 0.11279 0.87845 0.0
O384 O 0.20732 0.09809 0.78987 0.0
O385 O 0.24203 0.0779 0.80665 0.0
O386 O 0.18367 0.04502 0.8303 0.0
O387 O 0.22155 0.05212 0.86669 0.0
C388 C 0.32998 0.17819 0.87368 0.0
C389 C 0.34763 0.16109 0.85637 0.0
H390 H 0.37467 0.12065 0.8201 0.0
H391 H 0.35238 0.06171 0.79597 0.0
H392 H 0.23823 0.17185 0.90388 0.0
H393 H 0.28885 0.20358 0.90285 0.0
H394 H 0.3382 0.20435 0.88354 0.0
H395 H 0.36927 0.17432 0.85338 0.0
Mn396 Mn 0.36406 0.95115 0.02341 0.0
Mn397 Mn 0.37931 1.00405 0.97328 0.0
C398 C 0.41087 0.96969 1.01587 0.0
C399 C 0.35959 0.93724 0.0722 0.0
C400 C 0.35141 0.93114 0.95268 0.0
O401 O 0.32828 0.96939 0.0198 0.0
O402 O 0.34249 1.00936 0.99118 0.0
C403 C 0.38467 0.07322 0.99531 0.0
N404 N 0.39915 0.04869 0.99077 0.0
C405 C 0.44298 0.08828 0.98515 0.0
C406 C 0.42882 0.11389 0.99214 0.0
C407 C 0.39898 0.10577 0.99495 0.0
C408 C 0.42656 0.05558 0.98264 0.0
H409 H 0.3613 0.06754 0.99499 0.0
C410 C 0.3249 0.99456 1.00829 0.0
O411 O 0.34613 0.91759 0.04623 0.0
O412 O 0.37229 0.96723 0.0697 0.0
N413 N 0.4153 1.00048 0.9573 0.0
C414 C 0.42208 0.97362 0.94031 0.0
C415 C 0.44939 0.97689 0.92941 0.0
C416 C 0.46972 1.00768 0.93641 0.0
C417 C 0.46264 0.0348 0.95454 0.0
C418 C 0.43527 0.02983 0.96542 0.0
H419 H 0.40723 0.94956 0.93602 0.0
O420 O 0.4028 0.94199 0.0257 0.0
O421 O 0.39113 0.98615 1.01046 0.0
O422 O 0.35339 0.92293 0.9795 0.0
O423 O 0.35899 0.96087 0.94955 0.0
C424 C 0.48113 0.06689 0.96096 0.0
C425 C 0.47103 0.0938 0.97567 0.0
H426 H 0.43965 0.13928 0.99165 0.0
H427 H 0.38601 0.12355 0.99376 0.0
H428 H 0.45487 0.95562 0.91595 0.0
H429 H 0.49065 1.01025 0.92766 0.0
H430 H 0.50236 0.07146 0.95286 0.0
H431 H 0.48429 0.11878 0.97786 0.0
Mn432 Mn 0.3738 0.40527 0.06329 0.0
Mn433 Mn 0.38146 0.46133 1.01415 0.0
C434 C 0.42187 0.4386 0.0595 0.0
C435 C 0.3615 0.38816 0.11326 0.0
C436 C 0.3636 0.38686 0.99073 0.0
O437 O 0.33232 0.41334 0.05278 0.0
O438 O 0.34421 0.45973 0.03162 0.0
C439 C 0.38652 0.52746 0.05331 0.0
N440 N 0.39805 0.5066 0.03371 0.0
C441 C 0.43731 0.55166 0.02786 0.0
C442 C 0.42588 0.57357 0.04817 0.0
C443 C 0.40041 0.56138 0.06102 0.0
C444 C 0.42243 0.51817 0.021 0.0
H445 H 0.36671 0.51834 0.06255 0.0
C446 C 0.32573 0.43796 0.04188 0.0
O447 O 0.35842 0.36775 0.08668 0.0
O448 O 0.37241 0.41889 0.11123 0.0
N449 N 0.41652 0.46368 0.99561 0.0
C450 C 0.4249 0.43905 0.97692 0.0
C451 C 0.45104 0.44637 0.96423 0.0
C452 C 0.46799 0.47895 0.97051 0.0
C453 C 0.45839 0.50434 0.9885 0.0
C454 C 0.43236 0.49533 1.0011 0.0
H455 H 0.41229 0.41381 0.97225 0.0
O456 O 0.41859 0.41153 0.07113 0.0
O457 O 0.39716 0.44559 0.05124 0.0
O458 O 0.37016 0.37801 1.01705 0.0
O459 O 0.36458 0.41694 0.98923 0.0
C460 C 0.47401 0.53784 0.99543 0.0
C461 C 0.46315 0.56161 1.01457 0.0
H462 H 0.43655 0.59974 0.05417 0.0
H463 H 0.39133 0.57815 0.07658 0.0
H464 H 0.45855 0.4268 0.95044 0.0
H465 H 0.48915 0.48329 0.96303 0.0
H466 H 0.49451 0.54564 0.98655 0.0
H467 H 0.4753 0.5873 0.01968 0.0
Mn468 Mn 0.81582 0.17124 0.06789 0.0
Mn469 Mn 0.79132 0.12125 0.99834 0.0
C470 C 0.7673 0.15625 0.05019 0.0
C471 C 0.82539 0.19112 0.12134 0.0
C472 C 0.81211 0.19435 1.00625 0.0
O473 O 0.84876 0.14856 0.06395 0.0
O474 O 0.83506 0.13009 1.01154 0.0
C475 C 0.80645 0.05976 1.01347 0.0
N476 N 0.78635 0.07537 1.0024 0.0
C477 C 0.75448 0.02271 0.97717 0.0
C478 C 0.775 1.00638 0.98825 0.0
C479 C 0.80085 0.02502 1.00716 0.0
C480 C 0.7605 0.05735 0.98605 0.0
H481 H 0.82686 0.07351 0.02635 0.0
C482 C 0.85328 0.13491 0.03702 0.0
O483 O 0.83855 0.20704 0.10157 0.0
O484 O 0.80945 0.16124 0.11068 0.0
N485 N 0.75012 0.10816 0.98213 0.0
C486 C 0.73248 0.12637 0.97077 0.0
C487 C 0.70314 0.11104 0.95835 0.0
C488 C 0.69389 0.07651 0.9516 0.0
C489 C 0.71375 0.05788 0.95883 0.0
C490 C 0.74098 0.07466 0.97631 0.0
H491 H 0.74095 0.1521 0.97031 0.0
O492 O 0.77959 0.18546 0.06648 0.0
O493 O 0.78387 0.13596 0.04201 0.0
O494 O 0.8275 0.19527 0.03205 0.0
O495 O 0.79466 0.16758 0.99101 0.0
C496 C 0.70816 0.02355 0.94789 0.0
C497 C 0.72889 1.00607 0.95644 0.0
H498 H 0.77119 0.97964 0.98228 0.0
H499 H 0.81696 1.01274 1.0159 0.0
H500 H 0.68813 0.12535 0.95154 0.0
H501 H 0.67208 0.06467 0.93943 0.0
H502 H 0.6882 1.01052 0.93244 0.0
H503 H 0.72479 0.97974 0.94722 0.0
Mn504 Mn 0.20405 0.58683 0.23741 0.0
Mn505 Mn 0.25827 0.61562 0.30046 0.0
C506 C 0.22982 0.64001 0.24613 0.0
C507 C 0.18608 0.56514 0.18574 0.0
C508 C 0.19397 0.60762 0.30477 0.0
O509 O 0.2109 0.54429 0.24851 0.0
O510 O 0.24764 0.56747 0.28822 0.0
C511 C 0.30429 0.59573 0.2652 0.0
N512 N 0.29532 0.61871 0.28529 0.0
C513 C 0.34291 0.65629 0.29309 0.0
C514 C 0.35271 0.63295 0.27267 0.0
C515 C 0.3332 0.60272 0.25832 0.0
C516 C 0.31344 0.64862 0.29771 0.0
H517 H 0.28944 0.57229 0.25451 0.0
C518 C 0.23032 0.54257 0.27013 0.0
O519 O 0.1693 0.56332 0.2077 0.0
O520 O 0.21409 0.57615 0.19405 0.0
N521 N 0.27293 0.66199 0.31833 0.0
C522 C 0.26201 0.67916 0.34203 0.0
C523 C 0.27941 0.70856 0.36084 0.0
C524 C 0.30879 0.71912 0.35713 0.0
C525 C 0.32047 0.70017 0.33448 0.0
C526 C 0.30193 0.67103 0.31615 0.0
H527 H 0.2409 0.66938 0.34841 0.0
O528 O 0.20396 0.63146 0.23008 0.0
O529 O 0.24025 0.61761 0.25757 0.0
O530 O 0.18467 0.59559 0.27593 0.0
O531 O 0.22077 0.61497 0.31705 0.0
C532 C 0.35021 0.70828 0.33054 0.0
C533 C 0.36131 0.68665 0.30933 0.0
H534 H 0.37517 0.63795 0.26792 0.0
H535 H 0.34057 0.58466 0.24235 0.0
H536 H 0.27028 0.723 0.3783 0.0
H537 H 0.32226 0.74151 0.37208 0.0
H538 H 0.3648 0.73087 0.34401 0.0
H539 H 0.38422 0.69318 0.30638 0.0
Mn540 Mn 0.87611 0.90463 0.56253 0.0
Mn541 Mn 0.88412 0.96347 0.51528 0.0
C542 C 0.92399 0.93765 0.55783 0.0
C543 C 0.86578 0.88543 0.61318 0.0
C544 C 0.86754 0.88935 0.48896 0.0
O545 O 0.83481 0.91325 0.55434 0.0
O546 O 0.84543 0.95804 0.53068 0.0
C547 C 0.8847 0.02521 0.55926 0.0
N548 N 0.89808 1.00772 0.53848 0.0
C549 C 0.93552 0.05654 0.53751 0.0
C550 C 0.92235 0.07498 0.55926 0.0
C551 C 0.89688 0.05923 0.57023 0.0
C552 C 0.92268 0.02262 0.52785 0.0
H553 H 0.86467 1.01334 0.56699 0.0
C554 C 0.82774 0.93706 0.54254 0.0
O555 O 0.86081 0.86659 0.58555 0.0
O556 O 0.87674 0.91616 0.61137 0.0
N557 N 0.92018 0.97077 0.49787 0.0
C558 C 0.92889 0.95004 0.47506 0.0
C559 C 0.95304 0.96234 0.46027 0.0
C560 C 0.96779 0.99592 0.46872 0.0
C561 C 0.95841 1.01681 0.49213 0.0
C562 C 0.93415 1.00315 0.50604 0.0
H563 H 0.91732 0.92437 0.46776 0.0
O564 O 0.92082 0.90995 0.56836 0.0
O565 O 0.89944 0.94543 0.55098 0.0
O566 O 0.8708 0.87904 0.51523 0.0
O567 O 0.87061 0.91992 0.48802 0.0
C568 C 0.97178 0.05083 0.50166 0.0
C569 C 0.96044 0.07065 0.52446 0.0
H570 H 0.93139 0.10133 0.56737 0.0
H571 H 0.8864 0.07342 0.58668 0.0
H572 H 0.96008 0.94604 0.44218 0.0
H573 H 0.9863 1.00539 0.45712 0.0
H574 H 0.99065 0.06205 0.4914 0.0
H575 H 0.97079 0.09684 0.53141 0.0
Mn576 Mn 0.97137 0.07559 0.26697 0.0
Mn577 Mn 0.922 0.06945 0.32171 0.0
C578 C 0.94124 1.01929 0.27457 0.0
C579 C 0.99509 0.07886 0.21304 0.0
C580 C 0.98852 0.08394 0.34324 0.0
O581 O 0.95771 0.12515 0.27451 0.0
O582 O 0.92434 0.11386 0.30717 0.0
C583 C 0.86681 0.06735 0.28184 0.0
N584 N 0.88251 0.05326 0.30142 0.0
C585 C 0.84051 1.00883 0.30119 0.0
C586 C 0.82393 0.02294 0.28109 0.0
C587 C 0.83716 0.05225 0.2713 0.0
C588 C 0.87001 0.02487 0.3108 0.0
H589 H 0.87676 0.09001 0.27439 0.0
C590 C 0.93704 0.13428 0.29054 0.0
O591 O 1.00841 0.08867 0.24162 0.0
O592 O 0.96728 0.06911 0.21509 0.0
N593 N 0.91594 0.02888 0.33795 0.0
C594 C 0.9345 1.01881 0.35838 0.0
C595 C 0.92441 0.99022 0.37081 0.0
C596 C 0.89522 0.9723 0.36245 0.0
C597 C 0.87637 0.98326 0.34183 0.0
C598 C 0.88762 1.01214 0.33034 0.0
H599 H 0.95683 0.03244 0.36553 0.0
O600 O 0.96554 0.02339 0.26234 0.0
O601 O 0.9351 0.04821 0.28217 0.0
O602 O 0.99524 0.0817 0.31455 0.0
O603 O 0.96226 0.08474 0.34783 0.0
C604 C 0.84676 0.96679 0.33246 0.0
C605 C 0.82887 0.97949 0.31208 0.0
H606 H 0.80101 1.01147 0.27302 0.0
H607 H 0.82448 0.0633 0.2558 0.0
H608 H 0.93911 0.98211 0.38691 0.0
H609 H 0.88751 0.95021 0.37206 0.0
H610 H 0.83752 0.94434 0.34082 0.0
H611 H 0.80612 0.96657 0.30503 0.0
Mn612 Mn 0.31695 0.67175 0.55971 0.0
Mn613 Mn 0.29466 0.61565 0.49295 0.0
C614 C 0.26778 0.65252 0.54148 0.0
C615 C 0.32433 0.69445 0.6125 0.0
C616 C 0.31408 0.68806 0.49455 0.0
O617 O 0.35234 0.65257 0.55742 0.0
O618 O 0.3369 0.62297 0.50814 0.0
C619 C 0.30574 0.555 0.51301 0.0
N620 N 0.28739 0.5708 0.49889 0.0
C621 C 0.25938 0.5196 0.46646 0.0
C622 C 0.27779 0.50264 0.48084 0.0
C623 C 0.30064 0.52033 0.5048 0.0
C624 C 0.26407 0.55367 0.47755 0.0
H625 H 0.32456 0.56884 0.52963 0.0
C626 C 0.35629 0.63448 0.53241 0.0
O627 O 0.33818 0.70953 0.59259 0.0
O628 O 0.31083 0.66352 0.60254 0.0
N629 N 0.2548 0.60502 0.47443 0.0
C630 C 0.2394 0.62522 0.46272 0.0
C631 C 0.21409 0.61135 0.44099 0.0
C632 C 0.20569 0.57687 0.4301 0.0
C633 C 0.22262 0.55668 0.44159 0.0
C634 C 0.24647 0.57182 0.46498 0.0
H635 H 0.24704 0.65177 0.4689 0.0
O636 O 0.27872 0.68226 0.55734 0.0
O637 O 0.28619 0.63408 0.53501 0.0
O638 O 0.32649 0.69477 0.52278 0.0
O639 O 0.30011 0.65897 0.4821 0.0
C640 C 0.21786 0.52252 0.42951 0.0
C641 C 0.23671 0.50417 0.44133 0.0
H642 H 0.27464 0.47609 0.47362 0.0
H643 H 0.31505 0.50747 0.51589 0.0
H644 H 0.20224 0.62754 0.43141 0.0
H645 H 0.18686 0.56634 0.41219 0.0
H646 H 0.20007 0.51024 0.41081 0.0
H647 H 0.23289 0.47793 0.43177 0.0
Mn648 Mn 0.4713 0.57588 0.76717 0.0
Mn649 Mn 0.4201 0.56758 0.81959 0.0
C650 C 0.44094 0.51893 0.77307 0.0
C651 C 0.49556 0.57973 0.71363 0.0
C652 C 0.4869 0.58377 0.84401 0.0
O653 O 0.45645 0.62464 0.77419 0.0
O654 O 0.42262 0.61256 0.80628 0.0
C655 C 0.36518 0.56675 0.7798 0.0
N656 N 0.38061 0.55215 0.79914 0.0
C657 C 0.33756 0.50981 0.8009 0.0
C658 C 0.32125 0.52446 0.78107 0.0
C659 C 0.33514 0.55295 0.77036 0.0
C660 C 0.36742 0.5246 0.80946 0.0
H661 H 0.37562 0.58889 0.77181 0.0
C662 C 0.4353 0.63314 0.7898 0.0
O663 O 0.50862 0.58956 0.74235 0.0
O664 O 0.46771 0.56969 0.71535 0.0
N665 N 0.41359 0.5262 0.83423 0.0
C666 C 0.43283 0.51304 0.8505 0.0
C667 C 0.4225 0.48476 0.86331 0.0
C668 C 0.39253 0.4694 0.8581 0.0
C669 C 0.37332 0.48222 0.83969 0.0
C670 C 0.38485 0.51106 0.82832 0.0
H671 H 0.45599 0.52334 0.85279 0.0
O672 O 0.4659 0.52367 0.76218 0.0
O673 O 0.43433 0.54758 0.78047 0.0
O674 O 0.49471 0.58257 0.81572 0.0
O675 O 0.45987 0.58215 0.84654 0.0
C676 C 0.34324 0.46727 0.83183 0.0
C677 C 0.32538 0.48102 0.8124 0.0
H678 H 0.29806 0.51398 0.77382 0.0
H679 H 0.32267 0.5644 0.75507 0.0
H680 H 0.43769 0.47442 0.87653 0.0
H681 H 0.38465 0.44725 0.86754 0.0
H682 H 0.33369 0.44498 0.84031 0.0
H683 H 0.30232 0.46912 0.80628 0.0
Mn684 Mn 0.70957 0.09735 0.74629 0.0
Mn685 Mn 0.76183 0.11838 0.8093 0.0
C686 C 0.73748 0.15209 0.75917 0.0
C687 C 0.68763 0.08228 0.69456 0.0
C688 C 0.69758 0.10784 0.81273 0.0
O689 O 0.71795 0.0528 0.7494 0.0
O690 O 0.75456 0.0712 0.79034 0.0
C691 C 0.81623 0.10847 0.78404 0.0
N692 N 0.80184 0.12689 0.80259 0.0
C693 C 0.84701 0.16478 0.82823 0.0
C694 C 0.86237 0.14638 0.80914 0.0
C695 C 0.84691 0.11818 0.7869 0.0
C696 C 0.81654 0.15388 0.82428 0.0
H697 H 0.80434 0.08658 0.76746 0.0
C698 C 0.73787 0.0484 0.76909 0.0
O699 O 0.67344 0.07684 0.71787 0.0
O700 O 0.71587 0.09392 0.7007 0.0
N701 N 0.77072 0.16282 0.83098 0.0
C702 C 0.75224 0.18114 0.84227 0.0
C703 C 0.76354 0.20976 0.86519 0.0
C704 C 0.79367 0.21933 0.87556 0.0
C705 C 0.81256 0.20179 0.86145 0.0
C706 C 0.79984 0.17247 0.84002 0.0
H707 H 0.72903 0.17348 0.83453 0.0
O708 O 0.71008 0.14417 0.74779 0.0
O709 O 0.74761 0.12758 0.76726 0.0
O710 O 0.68819 0.09802 0.78406 0.0
O711 O 0.72417 0.11282 0.82326 0.0
C712 C 0.84331 0.21241 0.86707 0.0
C713 C 0.86052 0.1942 0.85011 0.0
H714 H 0.88598 0.1539 0.81109 0.0
H715 H 0.85866 0.10385 0.77216 0.0
H716 H 0.74907 0.22393 0.87536 0.0
H717 H 0.80175 0.23991 0.89456 0.0
H718 H 0.85394 0.23511 0.88344 0.0
H719 H 0.88408 0.20336 0.85368 0.0
Mn720 Mn 0.79529 0.72642 0.02403 0.0
Mn721 Mn 0.7864 0.66001 0.96713 0.0
C722 C 0.74767 0.69017 1.00814 0.0
C723 C 0.80517 0.75 0.07959 0.0
C724 C 0.80529 0.73136 0.95521 0.0
O725 O 0.83685 0.71762 0.02303 0.0
O726 O 0.82421 0.66572 0.99396 0.0
C727 C 0.78285 0.60312 0.99987 0.0
N728 N 0.77022 0.61895 0.97932 0.0
C729 C 0.7289 0.5722 0.96312 0.0
C730 C 0.7414 0.55542 0.9842 0.0
C731 C 0.76846 0.57099 1.0027 0.0
C732 C 0.74427 0.60414 0.9613 0.0
H733 H 0.80388 0.61479 1.01374 0.0
C734 C 0.84274 0.68967 1.01267 0.0
O735 O 0.80944 0.76812 0.05802 0.0
O736 O 0.79611 0.71849 0.06888 0.0
N737 N 0.74956 0.65282 0.94117 0.0
C738 C 0.73895 0.67373 0.92477 0.0
C739 C 0.71191 0.66222 0.90528 0.0
C740 C 0.69565 0.62963 0.9036 0.0
C741 C 0.70618 0.60923 0.92221 0.0
C742 C 0.73336 0.62205 0.94103 0.0
H743 H 0.75078 0.69914 0.92683 0.0
O744 O 0.75088 0.72078 0.02185 0.0
O745 O 0.7723 0.68309 1.00285 0.0
O746 O 0.79787 0.74488 0.98117 0.0
O747 O 0.80402 0.70032 0.95001 0.0
C748 C 0.69047 0.57696 0.92336 0.0
C749 C 0.70186 0.55842 0.94374 0.0
H750 H 0.73045 0.53056 0.98631 0.0
H751 H 0.77834 0.55813 0.01888 0.0
H752 H 0.70346 0.67856 0.89193 0.0
H753 H 0.67469 0.6209 0.88872 0.0
H754 H 0.66946 0.56631 0.90894 0.0
H755 H 0.68954 0.53368 0.9445 0.0
Mn756 Mn 0.96605 0.54369 0.81531 0.0
Mn757 Mn 0.91526 0.54203 0.86507 0.0
C758 C 0.93745 0.49397 0.81906 0.0
C759 C 0.9839 0.54267 0.76859 0.0
C760 C 0.98042 0.56051 0.88518 0.0
O761 O 0.95896 0.58987 0.8218 0.0
O762 O 0.91619 0.57943 0.84213 0.0
C763 C 0.85742 0.53125 0.82643 0.0
N764 N 0.87629 0.51983 0.84509 0.0
C765 C 0.8389 0.4706 0.84532 0.0
C766 C 0.82036 0.48031 0.8234 0.0
C767 C 0.82949 0.51107 0.81432 0.0
C768 C 0.86709 0.49102 0.85533 0.0
H769 H 0.86329 0.55599 0.82162 0.0
C770 C 0.93391 0.59531 0.82594 0.0
O771 O 1.00074 0.55526 0.79511 0.0
O772 O 0.95581 0.53707 0.76875 0.0
N773 N 0.91234 0.50516 0.88685 0.0
C774 C 0.93027 0.50249 0.9125 0.0
C775 C 0.92256 0.47572 0.92807 0.0
C776 C 0.8954 0.45312 0.91875 0.0
C777 C 0.87637 0.45731 0.89365 0.0
C778 C 0.88577 0.48386 0.87819 0.0
H779 H 0.94991 0.52125 0.92196 0.0
O780 O 0.96294 0.49544 0.80988 0.0
O781 O 0.93034 0.52164 0.82767 0.0
O782 O 0.9871 0.55051 0.85855 0.0
O783 O 0.95485 0.564 0.88949 0.0
C784 C 0.84836 0.43617 0.8835 0.0
C785 C 0.82992 0.44233 0.85879 0.0
H786 H 0.79853 0.46516 0.81465 0.0
H787 H 0.8147 0.51969 0.79882 0.0
H788 H 0.93715 0.47315 0.9479 0.0
H789 H 0.88928 0.43272 0.9311 0.0
H790 H 0.84086 0.41499 0.89447 0.0
H791 H 0.80843 0.4259 0.85119 0.0
Mn792 Mn 0.86672 0.45701 0.51671 0.0
Mn793 Mn 0.88284 0.51438 0.47164 0.0
C794 C 0.91291 0.4706 0.50357 0.0
C795 C 0.86603 0.44165 0.56547 0.0
C796 C 0.85395 0.44238 0.44486 0.0
O797 O 0.83368 0.47968 0.52107 0.0
O798 O 0.84375 0.51358 0.48666 0.0
C799 C 0.88998 0.57107 0.52486 0.0
N800 N 0.90123 0.55463 0.50108 0.0
C801 C 0.94867 0.59233 0.51711 0.0
C802 C 0.93726 0.61012 0.54109 0.0
C803 C 0.90781 0.59936 0.54503 0.0
C804 C 0.92981 0.56433 0.49767 0.0
H805 H 0.86775 0.5624 0.52888 0.0
C806 C 0.82747 0.50136 0.506 0.0
O807 O 0.84961 0.4229 0.54041 0.0
O808 O 0.88041 0.47051 0.56217 0.0
N809 N 0.91992 0.51928 0.45604 0.0
C810 C 0.92598 0.50421 0.42798 0.0
C811 C 0.95454 0.51198 0.42027 0.0
C812 C 0.97609 0.53706 0.44036 0.0
C813 C 0.96844 0.55506 0.46713 0.0
C814 C 0.93969 0.54564 0.47381 0.0
H815 H 0.90892 0.48699 0.41121 0.0
O816 O 0.90289 0.44222 0.51129 0.0
O817 O 0.89503 0.49013 0.50327 0.0
O818 O 0.85003 0.4343 0.47155 0.0
O819 O 0.86592 0.47184 0.44125 0.0
C820 C 0.98786 0.58282 0.48665 0.0
C821 C 0.97802 0.60137 0.51173 0.0
H822 H 0.95097 0.63192 0.55673 0.0
H823 H 0.89893 0.61265 0.5638 0.0
H824 H 0.95971 0.49928 0.39851 0.0
H825 H 0.99802 0.54336 0.43418 0.0
H826 H 1.01023 0.59051 0.48216 0.0
H827 H 0.99308 0.62286 0.52643 0.0
Mn828 Mn 0.70392 0.54709 0.28603 0.0
Mn829 Mn 0.75888 0.56719 0.34695 0.0
C830 C 0.73367 0.6062 0.3026 0.0
C831 C 0.67854 0.54024 0.2284 0.0
C832 C 0.69386 0.54849 0.36119 0.0
O833 O 0.7214 0.50009 0.28464 0.0
O834 O 0.75624 0.51848 0.32629 0.0
C835 C 0.80983 0.56453 0.31233 0.0
N836 N 0.79605 0.58159 0.33306 0.0
C837 C 0.8364 0.62976 0.34229 0.0
C838 C 0.85147 0.61216 0.3221 0.0
C839 C 0.83802 0.5795 0.30686 0.0
C840 C 0.80855 0.61337 0.34726 0.0
H841 H 0.79933 0.53978 0.29984 0.0
C842 C 0.7438 0.49468 0.30279 0.0
O843 O 0.66591 0.5303 0.25159 0.0
O844 O 0.70661 0.54989 0.23733 0.0
N845 N 0.76481 0.61249 0.36775 0.0
C846 C 0.74571 0.62773 0.38229 0.0
C847 C 0.75503 0.66113 0.39729 0.0
C848 C 0.7836 0.67893 0.39622 0.0
C849 C 0.80238 0.66327 0.37966 0.0
C850 C 0.79201 0.62971 0.36566 0.0
H851 H 0.72328 0.61482 0.38179 0.0
O852 O 0.70637 0.5983 0.29058 0.0
O853 O 0.74158 0.57923 0.3076 0.0
O854 O 0.68389 0.54452 0.33105 0.0
O855 O 0.72181 0.55451 0.36796 0.0
C856 C 0.83067 0.67993 0.37574 0.0
C857 C 0.84771 0.66316 0.35712 0.0
H858 H 0.87313 0.6237 0.31762 0.0
H859 H 0.84927 0.56597 0.29073 0.0
H860 H 0.74003 0.6733 0.40906 0.0
H861 H 0.79058 0.70485 0.40737 0.0
H862 H 0.83933 0.70582 0.38644 0.0
H863 H 0.86926 0.67639 0.35386 0.0
Sm864 Sm 0.07022 0.04424 1.0159 0.0
Sm865 Sm 0.10943 0.07823 0.05197 0.0
C866 C 1.01534 0.02351 0.98712 0.0
C867 C 0.99053 0.03844 0.99369 0.0
C868 C 0.99077 0.05691 0.02388 0.0
C869 C 0.96903 0.07387 0.02981 0.0
C870 C 0.94644 0.07254 1.00576 0.0
C871 C 0.94582 0.05366 0.97563 0.0
C872 C 0.96797 0.03706 0.96953 0.0
C873 C 0.11631 0.04535 0.97511 0.0
C874 C 0.07814 0.12486 1.01727 0.0
C875 C 0.16414 0.09858 0.08058 0.0
C876 C 0.18887 0.08429 0.07211 0.0
C877 C 0.18807 0.06764 0.041 0.0
C878 C 0.21045 0.05259 0.0327 0.0
C879 C 0.23395 0.05345 0.05543 0.0
C880 C 0.23436 0.06904 0.08687 0.0
C881 C 0.21198 0.08448 0.09513 0.0
C882 C 0.06278 0.07674 0.09222 0.0
C883 C 0.10306 0.99852 0.04986 0.0
O884 O 0.02582 1.01012 1.00936 0.0
O885 O 0.03604 0.04182 0.97565 0.0
O886 O 0.11266 0.0696 0.99615 0.0
O887 O 0.09706 1.01945 0.9792 0.0
O888 O 0.0612 0.09498 1.00738 0.0
O889 O 0.10112 0.12684 0.03765 0.0
O890 O 0.15328 0.11353 0.05983 0.0
O891 O 0.14377 0.07902 0.09142 0.0
O892 O 0.06695 0.05256 0.07157 0.0
O893 O 0.08267 0.10264 0.08943 0.0
O894 O 0.12125 0.02782 0.05699 0.0
O895 O 0.07811 0.99658 0.03275 0.0
H896 H 1.00817 0.05887 0.0428 0.0
H897 H 0.96975 0.08799 0.05327 0.0
H898 H 0.92833 0.05197 0.95689 0.0
H899 H 0.9676 0.02336 0.94598 0.0
H900 H 0.16996 0.06605 0.02307 0.0
H901 H 0.20947 0.04031 1.00844 0.0
H902 H 0.25212 0.0695 0.10486 0.0
H903 H 0.21261 0.09633 0.11944 0.0
Sm904 Sm 0.36248 0.81213 0.26639 0.0
Sm905 Sm 0.32681 0.82746 0.30556 0.0
C906 C 0.39187 0.79961 0.21882 0.0
C907 C 0.39578 0.82038 0.19483 0.0
C908 C 0.37571 0.83989 0.19122 0.0
C909 C 0.38041 0.86404 0.17294 0.0
C910 C 0.40474 0.86845 0.15672 0.0
C911 C 0.42539 0.84944 0.16038 0.0
C912 C 0.42111 0.82567 0.17995 0.0
C913 C 0.3928 0.81527 0.32673 0.0
C914 C 0.36529 0.88747 0.28608 0.0
C915 C 0.29688 0.83076 0.35456 0.0
C916 C 0.2917 0.81381 0.38136 0.0
C917 C 0.31514 0.80766 0.39987 0.0
C918 C 0.31019 0.79139 0.42502 0.0
C919 C 0.28171 0.78093 0.43238 0.0
C920 C 0.25824 0.78783 0.4144 0.0
C921 C 0.26323 0.80398 0.38884 0.0
C922 C 0.30087 0.83823 0.24822 0.0
C923 C 0.31677 0.7532 0.27419 0.0
O924 O 0.36504 0.78313 0.21919 0.0
O925 O 0.40444 0.81547 0.24678 0.0
O926 O 0.36537 0.80228 0.31792 0.0
O927 O 0.40264 0.8306 0.30495 0.0
O928 O 0.36547 0.8653 0.26158 0.0
O929 O 0.35236 0.87905 0.3095 0.0
O930 O 0.32334 0.84827 0.35496 0.0
O931 O 0.28549 0.81395 0.32655 0.0
O932 O 0.31365 0.81457 0.25124 0.0
O933 O 0.30405 0.85772 0.27548 0.0
O934 O 0.30428 0.7776 0.27933 0.0
O935 O 0.34427 0.75948 0.27129 0.0
H936 H 0.35632 0.83658 0.20286 0.0
H937 H 0.3641 0.87822 0.17002 0.0
H938 H 0.44408 0.85236 0.14756 0.0
H939 H 0.43732 0.81152 0.1834 0.0
H940 H 0.33729 0.81473 0.39457 0.0
H941 H 0.32868 0.78582 0.43805 0.0
H942 H 0.23615 0.7805 0.41978 0.0
H943 H 0.24487 0.80863 0.37478 0.0
Sm944 Sm 0.62025 0.06693 0.52331 0.0
Sm945 Sm 0.55733 0.0663 0.54564 0.0
C946 C 0.67277 0.0573 0.51466 0.0
C947 C 0.69007 0.03208 0.51484 0.0
C948 C 0.68107 1.00381 0.52818 0.0
C949 C 0.69973 0.98253 0.53172 0.0
C950 C 0.72747 0.98915 0.52169 0.0
C951 C 0.73559 1.01625 0.50657 0.0
C952 C 0.71704 0.03755 0.50321 0.0
C953 C 0.57706 0.07278 0.47861 0.0
C954 C 0.5734 0.99542 0.52325 0.0
C955 C 0.50461 0.07719 0.5514 0.0
C956 C 0.48721 0.10262 0.54934 0.0
C957 C 0.47617 0.10825 0.5198 0.0
C958 C 0.45606 0.12801 0.51757 0.0
C959 C 0.44659 0.14285 0.54482 0.0
C960 C 0.45895 0.13915 0.57456 0.0
C961 C 0.47891 0.11905 0.57677 0.0
C962 C 0.59986 0.05829 0.58908 0.0
C963 C 0.60678 0.13814 0.54903 0.0
O964 O 0.66635 0.07014 0.54199 0.0
O965 O 0.65129 0.05188 0.49157 0.0
O966 O 0.57419 0.05573 0.49987 0.0
O967 O 0.60471 0.08525 0.47837 0.0
O968 O 0.60098 1.01246 0.52685 0.0
O969 O 0.5514 1.0101 0.52639 0.0
O970 O 0.51175 0.06285 0.52509 0.0
O971 O 0.52506 0.0822 0.57558 0.0
O972 O 0.60328 0.07737 0.56947 0.0
O973 O 0.57217 0.04486 0.58873 0.0
O974 O 0.5789 0.12238 0.54744 0.0
O975 O 0.62762 0.12245 0.54321 0.0
H976 H 0.66009 0.99885 0.53674 0.0
H977 H 0.69308 0.96178 0.54348 0.0
H978 H 0.75688 0.02177 0.49867 0.0
H979 H 0.72426 0.05904 0.49257 0.0
H980 H 0.48239 0.09664 0.49824 0.0
H981 H 0.44695 0.13059 0.4944 0.0
H982 H 0.45204 0.15047 0.59593 0.0
H983 H 0.48697 0.11535 0.59991 0.0
Sm984 Sm 0.31363 0.32679 0.78731 0.0
Sm985 Sm 0.35965 0.29818 0.78741 0.0
C986 C 0.263 0.34248 0.7969 0.0
C987 C 0.23965 0.3368 0.81749 0.0
C988 C 0.23284 0.30818 0.83065 0.0
C989 C 0.21246 0.30513 0.85236 0.0
C990 C 0.19923 0.33139 0.86299 0.0
C991 C 0.2043 0.35844 0.84673 0.0
C992 C 0.2246 0.36146 0.82517 0.0
C993 C 0.35946 0.38258 0.78001 0.0
C994 C 0.34679 0.32702 0.85652 0.0
C995 C 0.41135 0.28486 0.77895 0.0
C996 C 0.43582 0.29227 0.76008 0.0
C997 C 0.44186 0.32086 0.74676 0.0
C998 C 0.46387 0.32553 0.72703 0.0
C999 C 0.47942 0.30086 0.71829 0.0
C1000 C 0.47534 0.27449 0.73543 0.0
C1001 C 0.45336 0.26973 0.75495 0.0
C1002 C 0.31509 0.24254 0.7955 0.0
C1003 C 0.32393 0.29596 0.71782 0.0
O1004 O 0.26507 0.31801 0.775 0.0
O1005 O 0.28849 0.35993 0.81122 0.0
O1006 O 0.36305 0.35336 0.78273 0.0
O1007 O 0.33192 0.3811 0.78003 0.0
O1008 O 0.32134 0.32422 0.84017 0.0
O1009 O 0.36839 0.32159 0.84108 0.0
O1010 O 0.40806 0.30831 0.80115 0.0
O1011 O 0.38646 0.26718 0.76326 0.0
O1012 O 0.31002 0.27073 0.79082 0.0
O1013 O 0.34304 0.24567 0.7988 0.0
O1014 O 0.34897 0.29507 0.7332 0.0
O1015 O 0.30385 0.305 0.73376 0.0
H1016 H 0.24321 0.28809 0.82407 0.0
H1017 H 0.20703 0.28161 0.85988 0.0
H1018 H 0.1924 0.37759 0.84995 0.0
H1019 H 0.22858 0.38334 0.81446 0.0
H1020 H 0.42961 0.33961 0.75158 0.0
H1021 H 0.46865 0.34899 0.71922 0.0
H1022 H 0.48921 0.25733 0.73478 0.0
H1023 H 0.45016 0.24824 0.76623 0.0
Sm1024 Sm 0.07792 0.09239 0.54883 0.0
Sm1025 Sm 0.0979 0.03667 0.51755 0.0
C1026 C 0.07677 0.15515 0.56508 0.0
C1027 C 0.0872 0.18051 0.54649 0.0
C1028 C 0.10249 0.17185 0.52151 0.0
C1029 C 0.10977 0.19305 0.50053 0.0
C1030 C 0.10274 0.22385 0.50455 0.0
C1031 C 0.08792 0.23316 0.52997 0.0
C1032 C 0.07981 0.21129 0.55071 0.0
C1033 C 0.0334 0.03792 0.55348 0.0
C1034 C 0.05838 0.07041 0.46799 0.0
C1035 C 0.1009 0.97466 0.50242 0.0
C1036 C 0.09044 0.94955 0.52118 0.0
C1037 C 0.07299 0.9573 0.5444 0.0
C1038 C 0.06478 0.93596 0.565 0.0
C1039 C 0.0743 0.90666 0.56311 0.0
C1040 C 0.09195 0.89867 0.54005 0.0
C1041 C 0.10014 0.92024 0.51917 0.0
C1042 C 0.14184 0.09075 0.51227 0.0
C1043 C 0.1154 0.05653 0.59888 0.0
O1044 O 0.09705 0.14264 0.57785 0.0
O1045 O 0.05393 0.1323 0.55053 0.0
O1046 O 0.05636 0.03663 0.54038 0.0
O1047 O 0.03415 0.06869 0.56421 0.0
O1048 O 0.05822 0.09107 0.49493 0.0
O1049 O 0.07242 0.04638 0.47043 0.0
O1050 O 0.08054 0.98621 0.48843 0.0
O1051 O 0.12316 0.9981 0.51734 0.0
O1052 O 0.11919 0.0924 0.52573 0.0
O1053 O 0.14109 0.06028 0.50066 0.0
O1054 O 0.11515 0.03629 0.57167 0.0
O1055 O 0.10337 0.08214 0.59613 0.0
H1056 H 0.1079 0.14802 0.51751 0.0
H1057 H 0.12088 0.18549 0.48094 0.0
H1058 H 0.0823 0.25696 0.53339 0.0
H1059 H 0.06757 0.21812 0.56958 0.0
H1060 H 0.06637 0.98045 0.54725 0.0
H1061 H 0.05143 0.9426 0.58285 0.0
H1062 H 0.0997 0.87618 0.53866 0.0
H1063 H 0.11441 0.91444 0.50206 0.0
Sm1064 Sm 0.3613 0.82988 0.77992 0.0
Sm1065 Sm 0.30905 0.78749 0.79017 0.0
C1066 C 0.41267 0.86834 0.776 0.0
C1067 C 0.44075 0.85889 0.77678 0.0
C1068 C 0.44595 0.83601 0.79575 0.0
C1069 C 0.47392 0.83196 0.80284 0.0
C1070 C 0.49725 0.85135 0.79174 0.0
C1071 C 0.49178 0.87077 0.76935 0.0
C1072 C 0.46346 0.87476 0.76202 0.0
C1073 C 0.3347 0.78339 0.7278 0.0
C1074 C 0.37076 0.75321 0.79039 0.0
C1075 C 0.25933 0.74231 0.78358 0.0
C1076 C 0.22902 0.74526 0.78146 0.0
C1077 C 0.20926 0.72562 0.75572 0.0
C1078 C 0.18299 0.73369 0.74739 0.0
C1079 C 0.17606 0.76129 0.76486 0.0
C1080 C 0.19477 0.77978 0.79191 0.0
C1081 C 0.22137 0.77193 0.80007 0.0
C1082 C 0.33422 0.82837 0.84497 0.0
C1083 C 0.30068 0.86653 0.78422 0.0
O1084 O 0.40168 0.86789 0.80237 0.0
O1085 O 0.39323 0.85477 0.75122 0.0
O1086 O 0.32173 0.80124 0.74479 0.0
O1087 O 0.36222 0.78999 0.73778 0.0
O1088 O 0.38368 0.78397 0.78704 0.0
O1089 O 0.34205 0.74901 0.79353 0.0
O1090 O 0.27212 0.75096 0.7598 0.0
O1091 O 0.27594 0.7538 0.81083 0.0
O1092 O 0.34885 0.81477 0.82583 0.0
O1093 O 0.30635 0.82026 0.83565 0.0
O1094 O 0.28737 0.83558 0.78744 0.0
O1095 O 0.32919 0.87022 0.77991 0.0
H1096 H 0.42912 0.82382 0.80795 0.0
H1097 H 0.47782 0.81691 0.8202 0.0
H1098 H 0.50957 0.88514 0.75993 0.0
H1099 H 0.45978 0.892 0.74686 0.0
H1100 H 0.21509 0.70549 0.74071 0.0
H1101 H 0.16862 0.71931 0.72641 0.0
H1102 H 0.1895 0.80111 0.80554 0.0
H1103 H 0.23661 0.78784 0.81967 0.0
Sm1104 Sm 0.59785 0.05625 0.07629 0.0
Sm1105 Sm 0.58302 0.08426 1.01231 0.0
C1106 C 0.60534 0.04308 0.133 0.0
C1107 C 0.58378 0.02705 0.15077 0.0
C1108 C 0.5813 0.04402 0.18036 0.0
C1109 C 0.55635 0.03422 0.19389 0.0
C1110 C 0.53383 1.00699 0.17814 0.0
C1111 C 0.53738 0.98805 0.1499 0.0
C1112 C 0.56236 0.99816 0.13607 0.0
C1113 C 0.62101 0.02574 0.02734 0.0
C1114 C 0.5338 0.02723 0.03148 0.0
C1115 C 0.58237 0.09163 0.95295 0.0
C1116 C 0.59788 0.11384 0.93431 0.0
C1117 C 0.59752 0.10152 0.90235 0.0
C1118 C 0.61645 0.11901 0.88509 0.0
C1119 C 0.63634 0.149 0.89967 0.0
C1120 C 0.63548 0.16242 0.9313 0.0
C1121 C 0.61586 0.14505 0.9485 0.0
C1122 C 0.56347 0.11963 0.06158 0.0
C1123 C 0.64511 0.11668 0.05734 0.0
O1124 O 0.60323 0.07263 0.12831 0.0
O1125 O 0.60948 0.02382 0.10787 0.0
O1126 O 0.60657 0.04755 0.02677 0.0
O1127 O 0.62215 1.0178 0.05491 0.0
O1128 O 0.54926 0.03024 0.05958 0.0
O1129 O 0.54339 0.04207 1.00868 0.0
O1130 O 0.59781 0.07359 0.96569 0.0
O1131 O 0.56551 0.10349 0.97165 0.0
O1132 O 0.57609 0.09611 0.06356 0.0
O1133 O 0.56048 0.12401 0.03246 0.0
O1134 O 0.62583 0.12005 0.03489 0.0
O1135 O 0.63898 0.09513 0.07609 0.0
H1136 H 0.59752 0.06633 0.1918 0.0
H1137 H 0.55388 0.04917 0.21585 0.0
H1138 H 0.52026 0.96688 0.13782 0.0
H1139 H 0.56389 0.98465 0.113 0.0
H1140 H 0.58382 0.0774 0.8912 0.0
H1141 H 0.61707 0.10775 0.86087 0.0
H1142 H 0.65078 0.1853 0.94297 0.0
H1143 H 0.61589 0.15497 0.97322 0.0
Sm1144 Sm 0.35249 0.35056 0.30909 0.0
Sm1145 Sm 0.31839 0.28338 0.26753 0.0
C1146 C 0.3686 0.41531 0.32656 0.0
C1147 C 0.34919 0.43591 0.31795 0.0
C1148 C 0.32536 0.42087 0.29442 0.0
C1149 C 0.30287 0.43625 0.28938 0.0
C1150 C 0.30461 0.46795 0.30634 0.0
C1151 C 0.32893 0.48391 0.32918 0.0
C1152 C 0.35095 0.46748 0.33554 0.0
C1153 C 0.34323 0.30634 0.35065 0.0
C1154 C 0.28017 0.32855 0.30284 0.0
C1155 C 0.30075 0.21868 0.24675 0.0
C1156 C 0.31797 0.19447 0.25109 0.0
C1157 C 0.34154 0.20382 0.2754 0.0
C1158 C 0.35959 0.18278 0.27978 0.0
C1159 C 0.35457 0.15193 0.25977 0.0
C1160 C 0.33166 0.14262 0.23449 0.0
C1161 C 0.31338 0.16409 0.23004 0.0
C1162 C 0.32702 0.32887 0.22597 0.0
C1163 C 0.39145 0.30516 0.27683 0.0
O1164 O 0.37831 0.39959 0.30279 0.0
O1165 O 0.35813 0.39591 0.34553 0.0
O1166 O 0.33496 0.29922 0.32066 0.0
O1167 O 0.36 0.33603 0.35794 0.0
O1168 O 0.30442 0.35214 0.30964 0.0
O1169 O 0.27887 0.29885 0.28657 0.0
O1170 O 0.29329 0.23356 0.27262 0.0
O1171 O 0.31154 0.23941 0.22914 0.0
O1172 O 0.33532 0.33494 0.256 0.0
O1173 O 0.31112 0.29873 0.21886 0.0
O1174 O 0.36698 0.28172 0.26804 0.0
O1175 O 0.39221 0.33397 0.29419 0.0
H1176 H 0.32381 0.39675 0.28023 0.0
H1177 H 0.28458 0.42403 0.27122 0.0
H1178 H 0.33069 0.50873 0.34202 0.0
H1179 H 0.36902 0.47912 0.35411 0.0
H1180 H 0.34584 0.22748 0.2912 0.0
H1181 H 0.37685 0.18998 0.29975 0.0
H1182 H 0.32747 0.11862 0.2191 0.0
H1183 H 0.29568 0.15698 0.21057 0.0
Sm1184 Sm 0.57974 0.58712 0.04674 0.0
Sm1185 Sm 0.59535 0.53443 0.0193 0.0
C1186 C 0.56986 0.64708 0.05657 0.0
C1187 C 0.57682 0.67078 0.03514 0.0
C1188 C 0.598 0.66676 1.01515 0.0
C1189 C 0.60482 0.68785 0.9939 0.0
C1190 C 0.59071 0.71352 0.99212 0.0
C1191 C 0.56889 0.71733 1.01141 0.0
C1192 C 0.56186 0.69584 0.03279 0.0
C1193 C 0.53668 0.53086 0.05264 0.0
C1194 C 0.56241 0.56819 0.96572 0.0
C1195 C 0.60486 0.47417 1.01314 0.0
C1196 C 0.5972 0.45105 0.03526 0.0
C1197 C 0.57346 0.45296 0.05197 0.0
C1198 C 0.56469 0.43085 0.07193 0.0
C1199 C 0.58113 0.4081 0.07821 0.0
C1200 C 0.60691 0.40852 0.06413 0.0
C1201 C 0.61443 0.42919 0.04213 0.0
C1202 C 0.63832 0.58961 1.01271 0.0
C1203 C 0.61516 0.55617 0.09984 0.0
O1204 O 0.59246 0.63994 0.07117 0.0
O1205 O 0.5493 0.62061 0.04453 0.0
O1206 O 0.54835 0.53582 0.02794 0.0
O1207 O 0.54943 0.5553 0.07555 0.0
O1208 O 0.56677 0.5912 0.99194 0.0
O1209 O 0.57047 0.54041 0.96979 0.0
O1210 O 0.58294 0.48084 0.99677 0.0
O1211 O 0.62524 0.5008 0.02493 0.0
O1212 O 0.62616 0.58604 0.03739 0.0
O1213 O 0.62793 0.56331 0.99094 0.0
O1214 O 0.60999 0.53248 0.0741 0.0
O1215 O 0.60622 0.5833 0.09578 0.0
H1216 H 0.60955 0.64733 1.01613 0.0
H1217 H 0.6218 0.68474 0.97937 0.0
H1218 H 0.55799 0.73731 1.01048 0.0
H1219 H 0.5451 0.69898 0.04761 0.0
H1220 H 0.56191 0.47204 0.05001 0.0
H1221 H 0.54517 0.4319 0.08288 0.0
H1222 H 0.6206 0.392 0.0693 0.0
H1223 H 0.63376 0.42834 0.03079 0.0
Sm1224 Sm 0.86404 0.33561 0.28083 0.0
Sm1225 Sm 0.81384 0.28849 0.29189 0.0
C1226 C 0.9168 0.37287 0.28546 0.0
C1227 C 0.94462 0.36334 0.28833 0.0
C1228 C 0.94928 0.34179 0.30896 0.0
C1229 C 0.9771 0.33755 0.31658 0.0
C1230 C 1.00038 0.35502 0.30385 0.0
C1231 C 0.99523 0.37266 0.27986 0.0
C1232 C 0.96719 0.37699 0.27219 0.0
C1233 C 0.83554 0.29312 0.2273 0.0
C1234 C 0.87473 0.25665 0.29177 0.0
C1235 C 0.76188 0.24836 0.27998 0.0
C1236 C 0.7328 0.25428 0.27552 0.0
C1237 C 0.71646 0.24255 0.24553 0.0
C1238 C 0.69066 0.25171 0.23847 0.0
C1239 C 0.68062 0.27216 0.2615 0.0
C1240 C 0.69666 0.28402 0.29164 0.0
C1241 C 0.72295 0.27525 0.29862 0.0
C1242 C 0.84081 0.32963 0.34613 0.0
C1243 C 0.80418 0.36908 0.285 0.0
O1244 O 0.90257 0.37037 0.30983 0.0
O1245 O 0.90019 0.36182 0.25817 0.0
O1246 O 0.84163 0.286 0.25375 0.0
O1247 O 0.84457 0.32482 0.228 0.0
O1248 O 0.88662 0.28872 0.28998 0.0
O1249 O 0.84568 0.25006 0.29255 0.0
O1250 O 0.77746 0.25672 0.25785 0.0
O1251 O 0.77649 0.25706 0.3086 0.0
O1252 O 0.8365 0.33782 0.31973 0.0
O1253 O 0.83029 0.29803 0.34499 0.0
O1254 O 0.79166 0.33689 0.2862 0.0
O1255 O 0.83306 0.37512 0.28303 0.0
H1256 H 0.93209 0.33042 0.32131 0.0
H1257 H 0.98096 0.32376 0.33505 0.0
H1258 H 1.01324 0.38588 0.26972 0.0
H1259 H 0.96364 0.39285 0.25554 0.0
H1260 H 0.72409 0.227 0.22725 0.0
H1261 H 0.67817 0.24237 0.21515 0.0
H1262 H 0.68866 0.29952 0.30959 0.0
H1263 H 0.73563 0.28515 0.32174 0.0
Sm1264 Sm 0.10137 0.55587 0.57132 0.0
Sm1265 Sm 0.08154 0.58293 0.51513 0.0
C1266 C 0.10867 0.52832 0.621 0.0
C1267 C 0.08688 0.51297 0.6389 0.0
C1268 C 0.06 0.52159 0.63707 0.0
C1269 C 0.03948 0.50967 0.65563 0.0
C1270 C 0.0468 0.49134 0.67814 0.0
C1271 C 0.07206 0.47912 0.67738 0.0
C1272 C 0.09223 0.48997 0.65745 0.0
C1273 C 0.12442 0.53413 0.51874 0.0
C1274 C 0.03548 0.5231 0.53166 0.0
C1275 C 0.07123 0.60115 0.46076 0.0
C1276 C 0.08974 0.6155 0.43958 0.0
C1277 C 0.1178 0.61006 0.43945 0.0
C1278 C 0.13446 0.6211 0.41709 0.0
C1279 C 0.12316 0.63756 0.39499 0.0
C1280 C 0.09678 0.64685 0.39774 0.0
C1281 C 0.07987 0.63555 0.42016 0.0
C1282 C 0.06013 0.61403 0.56525 0.0
C1283 C 0.14616 0.61502 0.55396 0.0
O1284 O 0.11217 0.56045 0.62307 0.0
O1285 O 0.10645 0.51242 0.59205 0.0
O1286 O 0.09837 0.53699 0.51875 0.0
O1287 O 0.13906 0.54466 0.54669 0.0
O1288 O 0.05307 0.52695 0.5583 0.0
O1289 O 0.04235 0.54029 0.50967 0.0
O1290 O 0.07093 0.57034 0.46294 0.0
O1291 O 0.07376 0.62073 0.48795 0.0
O1292 O 0.07505 0.59298 0.56742 0.0
O1293 O 0.05605 0.61871 0.53675 0.0
O1294 O 0.13088 0.60598 0.52554 0.0
O1295 O 0.13471 0.60557 0.57845 0.0
H1296 H 0.05575 0.53939 0.62287 0.0
H1297 H 1.01994 0.51916 0.65596 0.0
H1298 H 0.07777 0.46479 0.69466 0.0
H1299 H 0.11271 0.48245 0.65823 0.0
H1300 H 0.12599 0.59546 0.45514 0.0
H1301 H 0.15439 0.61308 0.41441 0.0
H1302 H 0.08798 0.65951 0.38057 0.0
H1303 H 0.05854 0.64082 0.42117 0.0
Sm1304 Sm 0.81464 0.82701 0.28794 0.0
Sm1305 Sm 0.86019 0.79706 0.28563 0.0
C1306 C 0.76506 0.8436 0.30059 0.0
C1307 C 0.74171 0.83557 0.3207 0.0
C1308 C 0.74607 0.82043 0.34694 0.0
C1309 C 0.72431 0.81461 0.3667 0.0
C1310 C 0.69771 0.82361 0.36048 0.0
C1311 C 0.69355 0.83914 0.33451 0.0
C1312 C 0.71535 0.84511 0.31487 0.0
C1313 C 0.86043 0.8825 0.28085 0.0
C1314 C 0.84993 0.82569 0.3555 0.0
C1315 C 0.91063 0.78168 0.27425 0.0
C1316 C 0.93531 0.79052 0.25593 0.0
C1317 C 0.93831 0.81755 0.24016 0.0
C1318 C 0.96112 0.82443 0.2218 0.0
C1319 C 0.98134 0.80443 0.21884 0.0
C1320 C 0.9782 0.77732 0.23447 0.0
C1321 C 0.95538 0.77042 0.25276 0.0
C1322 C 0.81479 0.74196 0.29395 0.0
C1323 C 0.8234 0.79716 0.21761 0.0
O1324 O 0.7663 0.82115 0.2763 0.0
O1325 O 0.79089 0.8589 0.31569 0.0
O1326 O 0.86405 0.85305 0.28274 0.0
O1327 O 0.83295 0.88121 0.28102 0.0
O1328 O 0.82409 0.8232 0.34019 0.0
O1329 O 0.87096 0.82019 0.33921 0.0
O1330 O 0.90832 0.8033 0.29869 0.0
O1331 O 0.88532 0.7668 0.25768 0.0
O1332 O 0.81075 0.771 0.29102 0.0
O1333 O 0.84244 0.74363 0.29481 0.0
O1334 O 0.84887 0.79665 0.23218 0.0
O1335 O 0.80349 0.80536 0.23436 0.0
H1336 H 0.76635 0.81325 0.35225 0.0
H1337 H 0.72806 0.8027 0.38662 0.0
H1338 H 0.67332 0.84648 0.32934 0.0
H1339 H 0.71167 0.85735 0.29516 0.0
H1340 H 0.92291 0.83317 0.24188 0.0
H1341 H 0.96303 0.84541 0.20988 0.0
H1342 H 0.99335 0.76144 0.23242 0.0
H1343 H 0.95329 0.74917 0.26432 0.0
Sm1344 Sm 0.86047 0.3081 0.76124 0.0
Sm1345 Sm 0.82128 0.3016 0.79145 0.0
C1346 C 0.90413 0.31825 0.72705 0.0
C1347 C 0.90958 0.33891 0.70314 0.0
C1348 C 0.89966 0.36816 0.70584 0.0
C1349 C 0.90004 0.38529 0.68113 0.0
C1350 C 0.91005 0.37336 0.65321 0.0
C1351 C 0.92255 0.34592 0.65133 0.0
C1352 C 0.92218 0.32855 0.67638 0.0
C1353 C 0.88567 0.29893 0.82109 0.0
C1354 C 0.85344 0.37271 0.79336 0.0
C1355 C 0.79282 0.30244 0.84103 0.0
C1356 C 0.80279 0.30685 0.87464 0.0
C1357 C 0.82897 0.29888 0.88371 0.0
C1358 C 0.83609 0.29567 0.91461 0.0
C1359 C 0.81633 0.29926 0.93654 0.0
C1360 C 0.79405 0.31528 0.9292 0.0
C1361 C 0.78648 0.31785 0.89772 0.0
C1362 C 0.78913 0.31949 0.74267 0.0
C1363 C 0.8117 0.24358 0.73222 0.0
O1364 O 0.882 0.29246 0.71944 0.0
O1365 O 0.90458 0.33475 0.75526 0.0
O1366 O 0.86211 0.28056 0.80411 0.0
O1367 O 0.89276 0.32464 0.80846 0.0
O1368 O 0.85185 0.35924 0.76399 0.0
O1369 O 0.84918 0.35213 0.81243 0.0
O1370 O 0.80224 0.3286 0.82902 0.0
O1371 O 0.7953 0.27487 0.82351 0.0
O1372 O 0.81544 0.3161 0.74046 0.0
O1373 O 0.78176 0.31557 0.76982 0.0
O1374 O 0.80032 0.25363 0.75738 0.0
O1375 O 0.83821 0.25842 0.72917 0.0
H1376 H 0.89011 0.37693 0.72635 0.0
H1377 H 0.89045 0.40656 0.68289 0.0
H1378 H 0.93048 0.33667 0.62981 0.0
H1379 H 0.93022 0.3062 0.67419 0.0
H1380 H 0.84198 0.29095 0.86609 0.0
H1381 H 0.85431 0.28472 0.9192 0.0
H1382 H 0.78003 0.32134 0.94651 0.0
H1383 H 0.76698 0.32609 0.89116 0.0
Sm1384 Sm 0.85348 0.85155 0.81229 0.0
Sm1385 Sm 0.82004 0.78551 0.77249 0.0
C1386 C 0.86843 0.9157 0.83238 0.0
C1387 C 0.85024 0.93648 0.82132 0.0
C1388 C 0.83236 0.92425 0.79207 0.0
C1389 C 0.8098 0.93849 0.78351 0.0
C1390 C 0.80496 0.96546 0.80383 0.0
C1391 C 0.82269 0.97806 0.83312 0.0
C1392 C 0.8452 0.9633 0.84201 0.0
C1393 C 0.84747 0.80796 0.85487 0.0
C1394 C 0.78166 0.83136 0.80668 0.0
C1395 C 0.80561 0.72028 0.75278 0.0
C1396 C 0.82418 0.69601 0.75263 0.0
C1397 C 0.83044 0.68392 0.78022 0.0
C1398 C 0.85223 0.66663 0.78271 0.0
C1399 C 0.86723 0.6594 0.75703 0.0
C1400 C 0.85915 0.66843 0.72823 0.0
C1401 C 0.83811 0.6872 0.72621 0.0
C1402 C 0.82885 0.8288 0.72864 0.0
C1403 C 0.8923 0.80895 0.77715 0.0
O1404 O 0.88161 0.90115 0.81098 0.0
O1405 O 0.85497 0.89538 0.84897 0.0
O1406 O 0.83788 0.80033 0.82521 0.0
O1407 O 0.86531 0.83692 0.86035 0.0
O1408 O 0.80567 0.85513 0.81065 0.0
O1409 O 0.78066 0.80079 0.79268 0.0
O1410 O 0.80102 0.73458 0.7804 0.0
O1411 O 0.81103 0.74127 0.73378 0.0
O1412 O 0.83747 0.83657 0.75871 0.0
O1413 O 0.81258 0.79886 0.72318 0.0
O1414 O 0.86842 0.78463 0.7721 0.0
O1415 O 0.89207 0.8387 0.79137 0.0
H1416 H 0.83506 0.90275 0.77624 0.0
H1417 H 0.79638 0.92886 0.76074 0.0
H1418 H 0.81925 0.99929 0.84877 0.0
H1419 H 0.85811 0.97218 0.86513 0.0
H1420 H 0.81877 0.68835 0.8001 0.0
H1421 H 0.85724 0.65853 0.80473 0.0
H1422 H 0.8696 0.66178 0.70775 0.0
H1423 H 0.83322 0.69539 0.70424 0.0
Sm1424 Sm 0.56966 0.54512 0.51634 0.0
Sm1425 Sm 0.60954 0.57759 0.55161 0.0
C1426 C 0.51643 0.52309 0.48401 0.0
C1427 C 0.49205 0.53845 0.49014 0.0
C1428 C 0.4946 0.56034 0.51897 0.0
C1429 C 0.47379 0.57844 0.52456 0.0
C1430 C 0.44949 0.57418 0.50193 0.0
C1431 C 0.44655 0.55217 0.47302 0.0
C1432 C 0.46804 0.5346 0.46698 0.0
C1433 C 0.61633 0.54634 0.47566 0.0
C1434 C 0.57745 0.6239 0.51789 0.0
C1435 C 0.66343 0.59569 0.58289 0.0
C1436 C 0.68851 0.5822 0.57419 0.0
C1437 C 0.68779 0.5662 0.54289 0.0
C1438 C 0.71027 0.55151 0.53426 0.0
C1439 C 0.73387 0.55221 0.55676 0.0
C1440 C 0.73429 0.56715 0.58841 0.0
C1441 C 0.71168 0.5821 0.59707 0.0
C1442 C 0.56314 0.57797 0.5925 0.0
C1443 C 0.601 0.49815 0.54741 0.0
O1444 O 0.52591 0.50938 0.50654 0.0
O1445 O 0.53776 0.54191 0.47395 0.0
O1446 O 0.61218 0.57052 0.49619 0.0
O1447 O 0.59755 0.52044 0.48038 0.0
O1448 O 0.55766 0.59641 0.51693 0.0
O1449 O 0.60405 0.62359 0.52945 0.0
O1450 O 0.65351 0.61295 0.56375 0.0
O1451 O 0.64238 0.57438 0.59081 0.0
O1452 O 0.56674 0.55332 0.57201 0.0
O1453 O 0.58326 0.60334 0.589 0.0
O1454 O 0.62098 0.52563 0.54905 0.0
O1455 O 0.57443 0.49882 0.53697 0.0
H1456 H 0.51293 0.56367 0.53716 0.0
H1457 H 0.47617 0.59528 0.54685 0.0
H1458 H 0.4277 0.54858 0.45538 0.0
H1459 H 0.46598 0.5182 0.44441 0.0
H1460 H 0.66969 0.56493 0.52505 0.0
H1461 H 0.70945 0.53992 0.50981 0.0
H1462 H 0.75232 0.56779 0.60613 0.0
H1463 H 0.71226 0.59349 0.62151 0.0
Sm1464 Sm 0.11868 0.56746 0.02673 0.0
Sm1465 Sm 0.05411 0.56137 0.04417 0.0
C1466 C 0.17061 0.55561 0.02027 0.0
C1467 C 0.18406 0.52674 0.0195 0.0
C1468 C 0.18958 0.51417 0.04712 0.0
C1469 C 0.20666 0.49102 0.0476 0.0
C1470 C 0.2186 0.47995 0.02058 0.0
C1471 C 0.21077 0.48987 0.9921 0.0
C1472 C 0.19365 0.51318 0.99159 0.0
C1473 C 0.07711 0.5701 0.97992 0.0
C1474 C 0.07348 0.49318 0.02266 0.0
C1475 C 1.00058 0.57006 0.04872 0.0
C1476 C 0.98351 0.59586 0.04889 0.0
C1477 C 0.98467 0.61577 0.02564 0.0
C1478 C 0.96517 0.63624 0.02323 0.0
C1479 C 0.94393 0.63723 0.0438 0.0
C1480 C 0.94393 0.61883 0.06823 0.0
C1481 C 0.96359 0.59844 0.07078 0.0
C1482 C 0.09618 0.5585 0.09043 0.0
C1483 C 0.10012 0.63619 0.04814 0.0
O1484 O 0.16365 0.56835 0.04741 0.0
O1485 O 0.15141 0.55489 0.99612 0.0
O1486 O 0.07385 0.55167 1.00003 0.0
O1487 O 0.10416 0.58667 0.98212 0.0
O1488 O 0.10054 0.51203 0.02987 0.0
O1489 O 0.0505 0.5064 0.02317 0.0
O1490 O 1.00938 0.55941 0.02198 0.0
O1491 O 1.01979 0.57256 0.07344 0.0
O1492 O 0.09884 0.57728 0.07068 0.0
O1493 O 0.06928 0.54145 0.08842 0.0
O1494 O 0.0732 0.61698 0.04272 0.0
O1495 O 0.12302 0.62274 0.04748 0.0
H1496 H 0.18223 0.52361 0.06894 0.0
H1497 H 0.21266 0.48392 0.06987 0.0
H1498 H 0.21999 0.48189 0.97105 0.0
H1499 H 0.18944 0.52208 0.96986 0.0
H1500 H 0.99978 0.6145 1.00843 0.0
H1501 H 0.96529 0.64967 1.00387 0.0
H1502 H 0.92777 0.61894 0.08434 0.0
H1503 H 0.9623 0.58346 0.08899 0.0
C1504 C 0.03435 0.1755 0.97223 0.0
C1505 C 0.0549 0.20563 0.97213 0.0
C1506 C 0.0923 0.18363 1.00136 0.0
C1507 C 0.07074 0.15475 1.00425 0.0
N1508 N 1.01898 0.13245 1.00212 0.0
N1509 N 0.10282 0.24063 0.9928 0.0
C1510 C 0.04117 0.15319 0.99213 0.0
C1511 C 0.08355 0.21043 0.98887 0.0
N1512 N 1.00779 0.1682 0.95394 0.0
N1513 N 0.12138 0.18524 1.00868 0.0
H1514 H 0.09859 0.25984 0.982 0.0
H1515 H 0.12221 0.24727 1.00849 0.0
H1516 H 0.12946 0.1662 1.01588 0.0
H1517 H 0.13786 0.20418 1.00425 0.0
H1518 H 0.9934 0.1449 0.95044 0.0
H1519 H 1.00142 0.18418 0.94008 0.0
H1520 H 0.99713 0.13236 0.99635 0.0
H1521 H 0.0226 0.11975 0.02032 0.0
C1522 C 0.24915 0.85822 0.18112 0.0
C1523 C 0.22104 0.83881 0.1841 0.0
C1524 C 0.24547 0.81678 0.22713 0.0
C1525 C 0.27379 0.83552 0.22375 0.0
N1526 N 0.30244 0.87052 0.19379 0.0
N1527 N 0.1943 0.79349 0.2053 0.0
C1528 C 0.27545 0.85509 0.19952 0.0
C1529 C 0.21987 0.81641 0.20581 0.0
N1530 N 0.25064 0.88081 0.16156 0.0
N1531 N 0.24261 0.80013 0.25169 0.0
H1532 H 0.17528 0.7921 0.19032 0.0
H1533 H 0.19259 0.7738 0.21738 0.0
H1534 H 0.26038 0.79904 0.26724 0.0
H1535 H 0.22256 0.78954 0.25821 0.0
H1536 H 0.26958 0.8984 0.16041 0.0
H1537 H 0.23224 0.8834 0.14779 0.0
H1538 H 0.30605 0.88237 0.17469 0.0
H1539 H 0.32162 0.86925 0.20703 0.0
C1540 C 0.57814 0.92 0.46459 0.0
C1541 C 0.56582 0.89271 0.47925 0.0
C1542 C 0.55811 0.93352 0.52405 0.0
C1543 C 0.56791 0.95976 0.50771 0.0
N1544 N 0.58854 0.97862 0.46308 0.0
N1545 N 0.55422 0.87558 0.52801 0.0
C1546 C 0.57786 0.95297 0.47799 0.0
C1547 C 0.55844 0.90003 0.51044 0.0
N1548 N 0.59091 0.91471 0.43783 0.0
N1549 N 0.54893 0.94084 0.55279 0.0
H1550 H 0.55865 0.85259 0.52063 0.0
H1551 H 0.54996 0.87896 0.5513 0.0
H1552 H 0.54955 0.96506 0.56358 0.0
H1553 H 0.53921 0.92315 0.56524 0.0
H1554 H 0.5914 0.92925 0.42048 0.0
H1555 H 0.60225 0.89625 0.4337 0.0
H1556 H 0.60022 0.97687 0.44397 0.0
H1557 H 0.58637 1.00269 0.47001 0.0
C1558 C 0.53236 0.34047 0.66451 0.0
C1559 C 0.55353 0.32124 0.66553 0.0
C1560 C 0.5195 0.28149 0.6884 0.0
C1561 C 0.50166 0.30436 0.69438 0.0
N1562 N 0.4813 0.34005 0.66514 0.0
N1563 N 0.5675 0.27355 0.68089 0.0
C1564 C 0.50526 0.33012 0.67631 0.0
C1565 C 0.54737 0.29213 0.67874 0.0
N1566 N 0.53805 0.36866 0.65208 0.0
N1567 N 0.50747 0.24832 0.6847 0.0
H1568 H 0.588 0.27991 0.67353 0.0
H1569 H 0.56443 0.25335 0.69243 0.0
H1570 H 0.48496 0.23908 0.6837 0.0
H1571 H 0.51867 0.23033 0.6773 0.0
H1572 H 0.52486 0.38553 0.65362 0.0
H1573 H 0.55731 0.37642 0.64266 0.0
H1574 H 0.48184 0.35653 0.6495 0.0
H1575 H 0.46016 0.32762 0.66745 0.0
C1576 C 0.027 0.85312 0.61027 0.0
C1577 C 0.04842 0.85063 0.63454 0.0
C1578 C 0.08697 0.88338 0.61082 0.0
C1579 C 0.06588 0.88512 0.58613 0.0
N1580 N 1.01724 0.86475 0.55755 0.0
N1581 N 0.09994 0.85386 0.64983 0.0
C1582 C 0.03623 0.86787 0.58438 0.0
C1583 C 0.07855 0.86294 0.63261 0.0
N1584 N 0.99796 0.84214 0.61231 0.0
N1585 N 0.1154 0.90078 0.61353 0.0
H1586 H 0.09578 0.8364 0.66438 0.0
H1587 H 0.09578 0.8364 0.66438 0.0
H1588 H 0.12284 0.91692 0.59851 0.0
H1589 H 0.13117 0.90006 0.63189 0.0
H1590 H 0.98132 0.84597 0.59681 0.0
H1591 H 0.99047 0.8315 0.63109 0.0
H1592 H 0.99614 0.84962 0.55341 0.0
H1593 H 0.02354 0.87487 0.53805 0.0
C1594 C 0.55157 0.87822 0.86479 0.0
C1595 C 0.57474 0.86407 0.85598 0.0
C1596 C 0.54649 0.8396 0.80357 0.0
C1597 C 0.52601 0.85852 0.81116 0.0
N1598 N 0.51201 0.90103 0.84685 0.0
N1599 N 0.59352 0.82816 0.8178 0.0
C1600 C 0.52967 0.87965 0.84102 0.0
C1601 C 0.57209 0.84392 0.82547 0.0
N1602 N 0.54908 0.88825 0.89585 0.0
N1603 N 0.54078 0.8166 0.77618 0.0
H1604 H 0.61032 0.82643 0.83438 0.0
H1605 H 0.595 0.81729 0.79481 0.0
H1606 H 0.52261 0.81379 0.75936 0.0
H1607 H 0.55301 0.79919 0.77081 0.0
H1608 H 0.53082 0.89576 0.90315 0.0
H1609 H 0.56329 0.88544 0.91455 0.0
H1610 H 0.51592 0.91922 0.86724 0.0
H1611 H 0.4954 0.90293 0.83009 0.0
C1612 C 0.51729 0.14863 0.12305 0.0
C1613 C 0.51763 0.18093 0.11637 0.0
C1614 C 0.55578 0.17463 0.08237 0.0
C1615 C 0.55354 0.14178 0.08685 0.0
N1616 N 0.54052 0.10214 0.12031 0.0
N1617 N 0.53309 0.21969 0.08153 0.0
C1618 C 0.5367 0.12998 0.1098 0.0
C1619 C 0.5357 0.19255 0.09384 0.0
N1620 N 0.49719 0.13511 0.1409 0.0
N1621 N 0.57856 0.18959 0.06838 0.0
H1622 H 0.51939 0.23439 0.08843 0.0
H1623 H 0.54242 0.22565 0.06169 0.0
H1624 H 0.59476 0.17775 0.06142 0.0
H1625 H 0.5835 0.21479 0.06747 0.0
H1626 H 0.49378 0.11077 0.14451 0.0
H1627 H 0.48177 0.14733 0.14945 0.0
H1628 H 0.5314 0.0939 0.13941 0.0
H1629 H 0.55505 0.08883 0.11149 0.0
C1630 C 0.23653 0.34671 0.36823 0.0
C1631 C 0.22515 0.37281 0.35882 0.0
C1632 C 0.24368 0.36226 0.30765 0.0
C1633 C 0.2548 0.33652 0.31721 0.0
N1634 N 0.25624 0.2986 0.35291 0.0
N1635 N 0.22918 0.41298 0.32392 0.0
C1636 C 0.24929 0.32686 0.34635 0.0
C1637 C 0.23175 0.38272 0.32964 0.0
N1638 N 0.23742 0.34289 0.39904 0.0
N1639 N 0.24419 0.36668 0.27708 0.0
H1640 H 0.22596 0.4314 0.34137 0.0
H1641 H 0.23478 0.4218 0.30365 0.0
H1642 H 0.25282 0.35166 0.26072 0.0
H1643 H 0.23334 0.38243 0.26718 0.0
H1644 H 0.24464 0.32409 0.40768 0.0
H1645 H 0.23382 0.36092 0.4168 0.0
H1646 H 0.25039 0.28811 0.37228 0.0
H1647 H 0.26576 0.2839 0.33733 0.0
C1648 C 0.03119 0.05594 0.17418 0.0
C1649 C 1.01143 0.07727 0.181 0.0
C1650 C 0.02405 0.09667 0.12907 0.0
C1651 C 0.04388 0.07537 0.12229 0.0
N1652 N 0.06897 0.03876 0.14424 0.0
N1653 N 0.98798 0.11597 0.16066 0.0
C1654 C 0.04771 0.05596 0.14648 0.0
C1655 C 1.0078 0.09695 0.15703 0.0
N1656 N 0.03343 0.03404 0.19387 0.0
N1657 N 0.02121 0.11787 0.10879 0.0
H1658 H 0.97705 0.11775 0.18047 0.0
H1659 H 0.98101 0.12851 0.1437 0.0
H1660 H 0.03085 0.11733 0.08808 0.0
H1661 H 1.01062 0.13701 0.11286 0.0
H1662 H 0.04389 1.01483 0.18938 0.0
H1663 H 0.02261 0.03341 0.21375 0.0
H1664 H 0.07609 0.02697 0.16179 0.0
H1665 H 0.08143 0.0386 0.12563 0.0
C1666 C 0.31342 0.74847 0.49538 0.0
C1667 C 0.30796 0.71516 0.47848 0.0
C1668 C 0.26903 0.72509 0.44315 0.0
C1669 C 0.27755 0.75901 0.45599 0.0
N1670 N 0.29925 0.80139 0.50059 0.0
N1671 N 0.28866 0.67789 0.42837 0.0
C1672 C 0.29661 0.7699 0.48477 0.0
C1673 C 0.28821 0.70531 0.44985 0.0
N1674 N 0.33638 0.76046 0.51911 0.0
N1675 N 0.24289 0.7119 0.42443 0.0
H1676 H 0.30561 0.66576 0.43006 0.0
H1677 H 0.27433 0.66986 0.40731 0.0
H1678 H 0.22799 0.72616 0.4203 0.0
H1679 H 0.23514 0.68645 0.4161 0.0
H1680 H 0.34167 0.78445 0.53223 0.0
H1681 H 0.35254 0.74771 0.52305 0.0
H1682 H 0.31136 0.81125 0.52277 0.0
H1683 H 0.28698 0.8167 0.49193 0.0
C1684 C 0.6484 0.09991 0.66532 0.0
C1685 C 0.67023 0.08149 0.66429 0.0
C1686 C 0.64415 0.04565 0.61547 0.0
C1687 C 0.62197 0.06345 0.61678 0.0
N1688 N 0.60062 0.10509 0.64391 0.0
N1689 N 0.6934 0.04345 0.63506 0.0
C1690 C 0.62342 0.08997 0.64204 0.0
C1691 C 0.66962 0.05651 0.63816 0.0
N1692 N 0.65231 0.12745 0.68838 0.0
N1693 N 0.63963 1.01677 0.59416 0.0
H1694 H 0.71227 0.05131 0.65156 0.0
H1695 H 0.69553 0.02751 0.61481 0.0
H1696 H 0.61979 1.00654 0.57964 0.0
H1697 H 0.65377 1.00098 0.59372 0.0
H1698 H 0.63808 0.14303 0.6907 0.0
H1699 H 0.67154 0.13642 0.70409 0.0
H1700 H 0.59911 0.1232 0.66266 0.0
H1701 H 0.58211 0.0987 0.62695 0.0
C1702 C 0.33479 0.37146 0.93671 0.0
C1703 C 0.35512 0.36349 0.95885 0.0
C1704 C 0.36594 0.32512 0.9141 0.0
C1705 C 0.35065 0.33928 0.89195 0.0
N1706 N 0.3274 0.38383 0.88455 0.0
N1707 N 0.39211 0.33297 0.96704 0.0
C1708 C 0.3368 0.3645 0.90392 0.0
C1709 C 0.37115 0.34008 0.94721 0.0
N1710 N 0.3137 0.38639 0.9471 0.0
N1711 N 0.37464 0.29685 0.90391 0.0
H1712 H 0.39632 0.34256 0.99119 0.0
H1713 H 0.40653 0.31903 0.95902 0.0
H1714 H 0.37048 0.28482 0.88031 0.0
H1715 H 0.38324 0.28364 0.91933 0.0
H1716 H 0.29713 0.39062 0.93171 0.0
H1717 H 0.31102 0.39094 0.97094 0.0
H1718 H 0.31922 0.40416 0.89299 0.0
H1719 H 0.33157 0.38259 0.8612 0.0
C1720 C 1.01848 0.10857 0.40084 0.0
C1721 C 1.01063 0.08271 0.37328 0.0
C1722 C 0.03192 0.04784 0.40783 0.0
C1723 C 0.04244 0.07467 0.43466 0.0
N1724 N 0.05231 0.13437 0.449 0.0
N1725 N 1.01924 0.03031 0.35048 0.0
C1726 C 0.03734 0.10601 0.42891 0.0
C1727 C 1.02049 0.05339 0.37687 0.0
N1728 N 1.0084 0.13647 0.40034 0.0
N1729 N 0.03081 1.01611 0.41181 0.0
H1730 H 1.01231 0.03383 0.32796 0.0
H1731 H 0.02838 1.00994 0.35063 0.0
H1732 H 0.03603 1.00992 0.43362 0.0
H1733 H 0.0209 0.99551 0.39429 0.0
H1734 H 1.01017 0.15453 0.42046 0.0
H1735 H 0.99672 0.14045 0.38018 0.0
H1736 H 0.05178 0.15801 0.44502 0.0
H1737 H 0.06857 0.13444 0.46695 0.0
C1738 C 0.3139 0.70227 0.66982 0.0
C1739 C 0.31852 0.71477 0.64166 0.0
C1740 C 0.3219 0.7714 0.66954 0.0
C1741 C 0.32176 0.75971 0.69828 0.0
N1742 N 0.31519 0.71445 0.72639 0.0
N1743 N 0.30958 0.75743 0.61294 0.0
C1744 C 0.31633 0.72517 0.69841 0.0
C1745 C 0.31732 0.74827 0.6409 0.0
N1746 N 0.30584 0.66892 0.66947 0.0
N1747 N 0.32798 0.80472 0.66964 0.0
H1748 H 0.30234 0.74044 0.59182 0.0
H1749 H 0.30627 0.78082 0.61143 0.0
H1750 H 0.33004 0.8224 0.69016 0.0
H1751 H 0.33263 0.81481 0.64968 0.0
H1752 H 0.29796 0.6589 0.68834 0.0
H1753 H 0.30423 0.65058 0.64984 0.0
H1754 H 0.31713 0.69105 0.72978 0.0
H1755 H 0.31256 0.72985 0.74644 0.0
C1756 C 0.66317 0.1451 0.8267 0.0
C1757 C 0.67955 0.12176 0.8348 0.0
C1758 C 0.68489 0.14865 0.8894 0.0
C1759 C 0.66086 0.16166 0.88293 0.0
N1760 N 0.63347 0.18295 0.84588 0.0
N1761 N 0.70253 0.09958 0.8762 0.0
C1762 C 0.6529 0.16431 0.8515 0.0
C1763 C 0.68876 0.12253 0.86712 0.0
N1764 N 0.6581 0.14994 0.79636 0.0
N1765 N 0.70505 0.16303 0.91508 0.0
H1766 H 0.70329 0.07816 0.86061 0.0
H1767 H 0.71147 0.10117 0.89944 0.0
H1768 H 0.70222 0.18294 0.93133 0.0
H1769 H 0.72517 0.15676 0.91779 0.0
H1770 H 0.65032 0.16988 0.79074 0.0
H1771 H 0.66202 0.13501 0.77653 0.0
H1772 H 0.62365 0.1836 0.82347 0.0
H1773 H 0.62674 0.1971 0.86467 0.0
C1774 C 0.32437 0.35382 0.14282 0.0
C1775 C 0.35198 0.3765 0.14381 0.0
C1776 C 0.36247 0.37281 0.20115 0.0
C1777 C 0.33507 0.34949 0.19976 0.0
N1778 N 0.28647 0.32797 0.17119 0.0
N1779 N 0.39799 0.40654 0.17453 0.0
C1780 C 0.31525 0.34272 0.17099 0.0
C1781 C 0.37086 0.38627 0.17345 0.0
N1782 N 0.30625 0.34266 0.11475 0.0
N1783 N 0.38073 0.3822 0.22905 0.0
H1784 H 0.40552 0.41548 0.15501 0.0
H1785 H 0.41408 0.41351 0.19407 0.0
H1786 H 0.37713 0.37067 0.2482 0.0
H1787 H 0.39895 0.40207 0.23406 0.0
H1788 H 0.28898 0.32164 0.11081 0.0
H1789 H 0.30895 0.35351 0.09489 0.0
H1790 H 0.27016 0.32467 0.15219 0.0
H1791 H 0.27793 0.32313 0.19175 0.0
C1792 C 0.30906 0.04293 0.03719 0.0
C1793 C 0.30157 1.00998 0.01963 0.0
C1794 C 0.25214 1.0036 0.034 0.0
C1795 C 0.25808 0.03821 0.04567 0.0
N1796 N 0.29194 0.09201 0.05424 0.0
N1797 N 0.26458 0.95957 0.99862 0.0
C1798 C 0.28648 0.05829 0.04606 0.0
C1799 C 0.27266 0.99043 1.01725 0.0
N1800 N 0.33765 0.05876 0.04757 0.0
N1801 N 0.22759 0.98314 0.04026 0.0
H1802 H 0.27884 0.94945 0.98534 0.0
H1803 H 0.24305 0.94548 0.99403 0.0
H1804 H 0.21298 0.99198 0.05395 0.0
H1805 H 0.22378 0.95739 0.03508 0.0
H1806 H 0.34394 0.0817 0.06282 0.0
H1807 H 0.35485 0.04736 0.04412 0.0
H1808 H 0.3117 0.10765 0.05189 0.0
H1809 H 0.27599 0.10444 0.06062 0.0
C1810 C 0.6937 0.66151 0.98899 0.0
C1811 C 0.71993 0.66397 1.00908 0.0
C1812 C 0.69207 0.62034 0.03471 0.0
C1813 C 0.6669 0.61491 1.01164 0.0
N1814 N 0.64824 0.6254 0.96134 0.0
N1815 N 0.74442 0.64252 0.04979 0.0
C1816 C 0.6691 0.63405 0.98719 0.0
C1817 C 0.71917 0.64237 0.0315 0.0
N1818 N 0.69193 0.68559 0.97171 0.0
N1819 N 0.6904 0.60453 0.05991 0.0
H1820 H 0.76431 0.65898 0.04962 0.0
H1821 H 0.74622 0.62463 0.06344 0.0
H1822 H 0.67245 0.58608 0.06188 0.0
H1823 H 0.70622 0.61103 0.07979 0.0
H1824 H 0.67243 0.68686 0.95907 0.0
H1825 H 0.70937 0.70581 0.97217 0.0
H1826 H 0.64968 0.637 0.94181 0.0
H1827 H 0.63131 0.60419 0.95779 0.0
C1828 C 0.78682 0.46003 0.31458 0.0
C1829 C 0.75827 0.46102 0.29793 0.0
C1830 C 0.75999 0.40091 0.27119 0.0
C1831 C 0.78718 0.39994 0.28939 0.0
N1832 N 0.821 0.42948 0.33495 0.0
N1833 N 0.71689 0.42435 0.26325 0.0
C1834 C 0.79875 0.42991 0.31249 0.0
C1835 C 0.745 0.42906 0.27703 0.0
N1836 N 0.80461 0.48833 0.33252 0.0
N1837 N 0.74838 0.37484 0.24695 0.0
H1838 H 0.70503 0.44236 0.26687 0.0
H1839 H 0.70428 0.40158 0.25092 0.0
H1840 H 0.75766 0.35452 0.24261 0.0
H1841 H 0.73132 0.37458 0.22974 0.0
H1842 H 0.82706 0.49107 0.33803 0.0
H1843 H 0.79849 0.5096 0.34155 0.0
H1844 H 0.82802 0.44755 0.3554 0.0
H1845 H 0.83027 0.40923 0.33516 0.0
C1846 C 0.96313 0.46805 0.49124 0.0
C1847 C 0.94477 0.48335 0.50968 0.0
C1848 C 0.98696 0.50752 0.54945 0.0
C1849 C 1.00565 0.50184 0.52682 0.0
N1850 N 1.01066 0.47593 0.47406 0.0
N1851 N 0.94144 0.52109 0.55767 0.0
C1852 C 0.99349 0.48218 0.49679 0.0
C1853 C 0.95736 0.50472 0.53895 0.0
N1854 N 0.95246 0.43856 0.47093 0.0
N1855 N 0.99645 0.51201 0.58087 0.0
H1856 H 0.91939 0.51993 0.55185 0.0
H1857 H 0.95128 0.53843 0.57803 0.0
H1858 H 1.01653 0.50798 0.58875 0.0
H1859 H 0.98269 0.51415 0.59816 0.0
H1860 H 0.96583 0.42603 0.45851 0.0
H1861 H 0.93141 0.42431 0.47044 0.0
H1862 H 1.00187 0.46416 0.45091 0.0
H1863 H 0.03337 0.48381 0.47803 0.0
C1864 C 0.38367 0.11488 0.32091 0.0
C1865 C 0.4128 0.11705 0.3146 0.0
C1866 C 0.40006 0.13244 0.26357 0.0
C1867 C 0.37099 0.12877 0.27002 0.0
N1868 N 0.33313 0.10585 0.29872 0.0
N1869 N 0.45077 0.13886 0.28447 0.0
C1870 C 0.36219 0.11607 0.29661 0.0
C1871 C 0.42173 0.12864 0.28697 0.0
N1872 N 0.37702 0.11343 0.35077 0.0
N1873 N 0.40649 0.13943 0.23494 0.0
H1874 H 0.46706 0.14304 0.30367 0.0
H1875 H 0.45871 0.1479 0.26517 0.0
H1876 H 0.39041 0.14216 0.21793 0.0
H1877 H 0.42664 0.13984 0.22706 0.0
H1878 H 0.35647 0.1141 0.35722 0.0
H1879 H 0.39315 0.11565 0.3698 0.0
H1880 H 0.32533 0.09363 0.31645 0.0
H1881 H 0.31705 0.10646 0.28067 0.0
C1882 C 0.40022 0.20126 0.52112 0.0
C1883 C 0.37199 0.18366 0.52523 0.0
C1884 C 0.39321 0.14195 0.54607 0.0
C1885 C 0.4215 0.159 0.54159 0.0
N1886 N 0.45296 0.20936 0.53339 0.0
N1887 N 0.34397 0.14587 0.55352 0.0
C1888 C 0.42534 0.1902 0.53183 0.0
C1889 C 0.36924 0.15667 0.54145 0.0
N1890 N 0.40292 0.22776 0.50616 0.0
N1891 N 0.38877 0.11092 0.55324 0.0
H1892 H 0.32634 0.15692 0.55147 0.0
H1893 H 0.34165 0.12828 0.56811 0.0
H1894 H 0.40555 0.09893 0.5568 0.0
H1895 H 0.368 0.09598 0.55305 0.0
H1896 H 0.42252 0.23972 0.49964 0.0
H1897 H 0.38504 0.23673 0.49874 0.0
H1898 H 0.45738 0.23366 0.52956 0.0
H1899 H 0.47151 0.20187 0.54143 0.0
C1900 C 0.74982 0.67273 0.31634 0.0
C1901 C 0.7547 0.64152 0.30129 0.0
C1902 C 0.794 0.67702 0.27671 0.0
C1903 C 0.7918 0.70796 0.295 0.0
N1904 N 0.7684 0.73262 0.33615 0.0
N1905 N 0.7845 0.61647 0.26741 0.0
C1906 C 0.76973 0.70488 0.3157 0.0
C1907 C 0.77787 0.64468 0.28188 0.0
N1908 N 0.72561 0.67201 0.33121 0.0
N1909 N 0.81016 0.67837 0.25221 0.0
H1910 H 0.77217 0.59279 0.26766 0.0
H1911 H 0.80339 0.61651 0.25688 0.0
H1912 H 0.82071 0.70066 0.24638 0.0
H1913 H 0.81029 0.65775 0.23535 0.0
H1914 H 0.71856 0.69318 0.33952 0.0
H1915 H 0.71143 0.64994 0.33335 0.0
H1916 H 0.75574 0.73212 0.35456 0.0
H1917 H 0.78188 0.75586 0.33623 0.0
C1918 C 0.91731 0.4396 0.83068 0.0
C1919 C 0.91538 0.46286 0.81146 0.0
C1920 C 0.86771 0.43001 0.78459 0.0
C1921 C 0.8698 0.40695 0.80449 0.0
N1922 N 0.8898 0.39805 0.85516 0.0
N1923 N 0.89213 0.47842 0.76593 0.0
C1924 C 0.89256 0.41399 0.83018 0.0
C1925 C 0.89128 0.45794 0.7874 0.0
N1926 N 0.94297 0.44211 0.84926 0.0
N1927 N 0.84267 0.42549 0.76405 0.0
H1928 H 0.91024 0.49742 0.76611 0.0
H1929 H 0.87651 0.47498 0.74629 0.0
H1930 H 0.82462 0.40577 0.7631 0.0
H1931 H 0.83849 0.44245 0.75025 0.0
H1932 H 0.94537 0.42835 0.86657 0.0
H1933 H 0.96278 0.45675 0.84582 0.0
H1934 H 0.90389 0.40648 0.87616 0.0
H1935 H 0.87058 0.38246 0.85871 0.0
C1936 C 0.14291 0.93086 0.07036 0.0
C1937 C 0.12631 0.91724 0.093 0.0
C1938 C 0.094 0.95602 0.08654 0.0
C1939 C 0.11026 0.96927 0.06344 0.0
N1940 N 0.14978 0.96873 0.0326 0.0
N1941 N 0.08424 0.91479 0.12034 0.0
C1942 C 0.13479 0.95662 0.05539 0.0
C1943 C 0.10155 0.92964 0.10059 0.0
N1944 N 0.16606 0.91817 0.06261 0.0
N1945 N 0.07163 0.96939 0.09586 0.0
H1946 H 0.09026 0.89763 0.13297 0.0
H1947 H 0.06352 0.91824 0.12341 0.0
H1948 H 0.06455 0.98744 0.08548 0.0
H1949 H 0.06094 0.96413 0.11502 0.0
H1950 H 0.17878 0.9248 0.04537 0.0
H1951 H 0.17287 0.90058 0.07407 0.0
H1952 H 0.16713 0.96047 0.02403 0.0
H1953 H 0.14412 0.98681 0.02101 0.0
C1954 C 0.939 0.29906 0.89772 0.0
C1955 C 0.96131 0.28471 0.88525 0.0
C1956 C 0.93028 0.27299 0.83177 0.0
C1957 C 0.90909 0.28951 0.84393 0.0
N1958 N 0.89859 0.32516 0.88841 0.0
N1959 N 0.97369 0.25106 0.84067 0.0
C1960 C 0.91469 0.30377 0.87703 0.0
C1961 C 0.95555 0.26982 0.85228 0.0
N1962 N 0.94112 0.30904 0.92969 0.0
N1963 N 0.92727 0.26201 0.79985 0.0
H1964 H 0.99181 0.24797 0.85454 0.0
H1965 H 0.96987 0.23657 0.81813 0.0
H1966 H 0.90906 0.26268 0.78456 0.0
H1967 H 0.94337 0.25409 0.7881 0.0
H1968 H 0.92401 0.31515 0.94091 0.0
H1969 H 0.95938 0.30934 0.94534 0.0
H1970 H 0.90292 0.33925 0.91119 0.0
H1971 H 0.88305 0.33203 0.87387 0.0
C1972 C 0.63666 0.21938 0.60802 0.0
C1973 C 0.62772 0.24234 0.59068 0.0
C1974 C 0.6145 0.19843 0.54337 0.0
C1975 C 0.61572 0.17437 0.56265 0.0
N1976 N 0.63234 0.16222 0.61295 0.0
N1977 N 0.63241 0.25602 0.53937 0.0
C1978 C 0.62815 0.18496 0.59488 0.0
C1979 C 0.6235 0.23284 0.55731 0.0
N1980 N 0.65729 0.23053 0.63421 0.0
N1981 N 0.60489 0.18845 0.51184 0.0
H1982 H 0.64293 0.28048 0.5495 0.0
H1983 H 0.63287 0.25019 0.51511 0.0
H1984 H 0.59738 0.16353 0.50148 0.0
H1985 H 0.60293 0.20478 0.49654 0.0
H1986 H 0.66618 0.21499 0.64663 0.0
H1987 H 0.66977 0.25489 0.63987 0.0
H1988 H 0.63776 0.16812 0.63746 0.0
H1989 H 0.62917 0.13716 0.60352 0.0
C1990 C 0.64213 0.83454 0.41803 0.0
C1991 C 0.62212 0.80309 0.40945 0.0
C1992 C 0.65536 0.78302 0.37501 0.0
C1993 C 0.6736 0.81573 0.38028 0.0
N1994 N 0.68574 0.87246 0.40798 0.0
N1995 N 0.61355 0.74516 0.38883 0.0
C1996 C 0.66761 0.84138 0.40257 0.0
C1997 C 0.63011 0.77658 0.39082 0.0
N1998 N 0.63687 0.85739 0.44158 0.0
N1999 N 0.66109 0.75866 0.35328 0.0
H2000 H 0.59536 0.74036 0.40077 0.0
H2001 H 0.61916 0.72388 0.37813 0.0
H2002 H 0.67931 0.76226 0.34133 0.0
H2003 H 0.64711 0.73529 0.34567 0.0
H2004 H 0.65097 0.8804 0.45073 0.0
H2005 H 0.61905 0.85191 0.45392 0.0
H2006 H 0.68133 0.89328 0.42124 0.0
H2007 H 0.70517 0.87775 0.3982 0.0
C2008 C 0.09979 0.27562 0.44003 0.0
C2009 C 0.12984 0.28391 0.43598 0.0
C2010 C 0.14195 0.25614 0.47911 0.0
C2011 C 0.11177 0.24591 0.48187 0.0
N2012 N 0.06142 0.2397 0.4602 0.0
N2013 N 0.17817 0.27548 0.44607 0.0
C2014 C 0.09047 0.25379 0.46091 0.0
C2015 C 0.1504 0.27173 0.45363 0.0
N2016 N 0.08033 0.2899 0.42533 0.0
N2017 N 0.16262 0.2525 0.50177 0.0
H2018 H 0.1847 0.28677 0.42726 0.0
H2019 H 0.19355 0.26452 0.45618 0.0
H2020 H 0.15737 0.24261 0.5217 0.0
H2021 H 0.18495 0.26224 0.50248 0.0
H2022 H 0.05937 0.28884 0.43131 0.0
H2023 H 0.0855 0.30413 0.40818 0.0
H2024 H 0.04523 0.24205 0.4432 0.0
H2025 H 0.05366 0.22321 0.47478 0.0
C2026 C 0.621 0.29866 0.21768 0.0
C2027 C 0.59917 0.26896 0.21496 0.0
C2028 C 0.62801 0.25013 0.25468 0.0
C2029 C 0.65142 0.27712 0.2539 0.0
N2030 N 0.67111 0.32867 0.23799 0.0
N2031 N 0.58218 0.2147 0.22766 0.0
C2032 C 0.64805 0.30222 0.23668 0.0
C2033 C 0.60261 0.2443 0.23281 0.0
N2034 N 0.61561 0.32321 0.20241 0.0
N2035 N 0.63059 0.22983 0.27597 0.0
H2036 H 0.5635 0.20909 0.21101 0.0
H2037 H 0.58493 0.19451 0.2377 0.0
H2038 H 0.64934 0.23379 0.29228 0.0
H2039 H 0.61339 0.21121 0.27959 0.0
H2040 H 0.62966 0.34657 0.2053 0.0
H2041 H 0.59624 0.32063 0.18746 0.0
H2042 H 0.67139 0.34647 0.22383 0.0
H2043 H 0.69045 0.33239 0.25335 0.0
C2044 C 0.61873 0.96405 0.9528 0.0
C2045 C 0.64809 0.96076 0.95534 0.0
C2046 C 0.66011 1.00326 1.00338 0.0
C2047 C 0.63083 1.00664 1.00055 0.0
N2048 N 0.5807 0.98105 0.97953 0.0
N2049 N 0.69114 0.96538 0.99188 0.0
C2050 C 0.60969 0.98482 0.97694 0.0
C2051 C 0.66728 0.97679 0.9833 0.0
N2052 N 0.59875 0.94576 0.92813 0.0
N2053 N 0.68107 0.02527 0.02517 0.0
H2054 H 0.69623 0.94516 0.97816 0.0
H2055 H 0.70434 0.97441 1.01365 0.0
H2056 H 0.67656 0.04524 0.0399 0.0
H2057 H 0.7032 0.02535 0.02632 0.0
H2058 H 0.5785 0.95083 0.92238 0.0
H2059 H 0.60343 0.92736 0.91188 0.0
H2060 H 0.56441 0.96174 0.9659 0.0
H2061 H 0.57325 0.99465 0.9979 0.0
C2062 C 0.93441 0.76485 0.72162 0.0
C2063 C 0.95397 0.79209 0.71391 0.0
C2064 C 0.93717 0.83049 0.75228 0.0
C2065 C 0.91789 0.80345 0.76099 0.0
N2066 N 0.90497 0.74511 0.76067 0.0
N2067 N 0.96352 0.84981 0.71105 0.0
C2068 C 0.91823 0.7706 0.74727 0.0
C2069 C 0.95153 0.82455 0.72555 0.0
N2070 N 0.92996 0.73409 0.70345 0.0
N2071 N 0.94447 0.86115 0.77121 0.0
H2072 H 0.97372 0.84554 0.69091 0.0
H2073 H 0.96034 0.87368 0.7168 0.0
H2074 H 0.93969 0.8652 0.79431 0.0
H2075 H 0.95972 0.88105 0.76635 0.0
H2076 H 0.91263 0.71454 0.70486 0.0
H2077 H 0.94034 0.72953 0.68361 0.0
H2078 H 0.9032 0.72058 0.75135 0.0
H2079 H 0.89815 0.74882 0.78295 0.0
C2080 C 0.14451 0.0249 0.88744 0.0
C2081 C 0.17322 0.04684 0.88952 0.0
C2082 C 0.16196 0.07114 0.94492 0.0
C2083 C 0.13512 0.04675 0.94465 0.0
N2084 N 0.10346 0.99719 0.91167 0.0
N2085 N 0.21078 0.08393 0.92991 0.0
C2086 C 0.12747 0.02287 0.91476 0.0
C2087 C 0.18211 0.06783 0.92096 0.0
N2088 N 0.13284 1.00504 0.85888 0.0
N2089 N 0.16897 0.09868 0.96824 0.0
H2090 H 0.2273 0.0809 0.91655 0.0
H2091 H 0.21899 0.09659 0.9529 0.0
H2092 H 0.15635 0.10263 0.9862 0.0
H2093 H 0.18571 0.11927 0.96767 0.0
H2094 H 0.11093 0.99234 0.85341 0.0
H2095 H 0.14466 1.00261 0.83992 0.0
H2096 H 0.09963 0.97585 0.89437 0.0
H2097 H 0.08771 0.9964 0.9268 0.0
C2098 C 0.85888 0.39472 0.5946 0.0
C2099 C 0.87455 0.42704 0.59294 0.0
C2100 C 0.91754 0.4193 0.62403 0.0
C2101 C 0.90207 0.38703 0.62533 0.0
N2102 N 0.86062 0.34091 0.60679 0.0
N2103 N 0.91366 0.47424 0.61837 0.0
C2104 C 0.8735 0.37374 0.60892 0.0
C2105 C 0.90253 0.44071 0.61115 0.0
N2106 N 0.82948 0.38529 0.58467 0.0
N2107 N 0.94675 0.42898 0.63471 0.0
H2108 H 0.90112 0.49094 0.614 0.0
H2109 H 0.93332 0.48543 0.63299 0.0
H2110 H 0.95801 0.41224 0.64217 0.0
H2111 H 0.96001 0.45156 0.63242 0.0
H2112 H 0.8161 0.363 0.58742 0.0
H2113 H 0.81791 0.40175 0.57718 0.0
H2114 H 0.84097 0.32883 0.59255 0.0
H2115 H 0.87105 0.32492 0.61689 0.0
C2116 C 0.4993 0.06015 0.44015 0.0
C2117 C 0.50229 0.07959 0.41653 0.0
C2118 C 0.55408 0.10162 0.43829 0.0
C2119 C 0.55211 0.07536 0.45593 0.0
N2120 N 0.52216 0.02236 0.46242 0.0
N2121 N 0.53222 0.12199 0.39468 0.0
C2122 C 0.5245 0.05261 0.45398 0.0
C2123 C 0.52962 0.10154 0.41632 0.0
N2124 N 0.47276 0.04839 0.44916 0.0
N2125 N 0.57856 0.12694 0.44244 0.0
H2126 H 0.51404 0.12516 0.3809 0.0
H2127 H 0.55226 0.13476 0.38973 0.0
H2128 H 0.59784 0.12825 0.45662 0.0
H2129 H 0.57908 0.14847 0.43329 0.0
H2130 H 0.47041 0.03481 0.46734 0.0
H2131 H 0.45412 0.05582 0.44145 0.0
H2132 H 0.50219 1.00497 0.45972 0.0
H2133 H 0.54014 1.01253 0.46674 0.0
C2134 C 0.78856 0.74998 0.13399 0.0
C2135 C 0.80898 0.76413 0.11477 0.0
C2136 C 0.83513 0.80439 0.16261 0.0
C2137 C 0.81725 0.78703 0.18209 0.0
N2138 N 0.7804 0.73875 0.18611 0.0
N2139 N 0.85528 0.80175 0.11303 0.0
C2140 C 0.79491 0.75858 0.1677 0.0
C2141 C 0.83316 0.79071 0.12965 0.0
N2142 N 0.76223 0.72951 0.12023 0.0
N2143 N 0.85369 0.8344 0.17545 0.0
H2144 H 0.85581 0.7914 0.08961 0.0
H2145 H 0.87466 0.81876 0.12349 0.0
H2146 H 0.85554 0.8452 0.19927 0.0
H2147 H 0.86497 0.84995 0.16191 0.0
H2148 H 0.74566 0.72083 0.13317 0.0
H2149 H 0.75542 0.72456 0.09593 0.0
H2150 H 0.7664 0.71564 0.17679 0.0
H2151 H 0.78444 0.74382 0.21076 0.0
C2152 C 0.14748 0.06978 0.69202 0.0
C2153 C 0.16274 0.04414 0.69458 0.0
C2154 C 0.14603 0.02481 0.63531 0.0
C2155 C 0.13019 0.05054 0.63254 0.0
N2156 N 0.10859 0.08883 0.66484 0.0
N2157 N 0.17227 0.99428 0.66752 0.0
C2158 C 0.12919 0.07068 0.66279 0.0
C2159 C 0.16097 0.02124 0.6657 0.0
N2160 N 0.15072 0.09432 0.71785 0.0
N2161 N 0.14648 1.00239 0.60894 0.0
H2162 H 0.18354 0.99124 0.68838 0.0
H2163 H 0.16888 0.97383 0.64932 0.0
H2164 H 0.12986 0.99525 0.58996 0.0
H2165 H 0.16259 0.98915 0.60676 0.0
H2166 H 0.14381 0.11607 0.71708 0.0
H2167 H 0.16282 0.09437 0.73934 0.0
H2168 H 0.10475 0.10158 0.68613 0.0
H2169 H 0.0921 0.08695 0.6465 0.0
C2170 C 0.82129 0.39406 0.40661 0.0
C2171 C 0.84971 0.41417 0.41813 0.0
C2172 C 0.87144 0.37305 0.38822 0.0
C2173 C 0.84324 0.35468 0.37464 0.0
N2174 N 0.79094 0.34829 0.36765 0.0
N2175 N 0.9019 0.42413 0.41816 0.0
C2176 C 0.81797 0.36516 0.3831 0.0
C2177 C 0.87475 0.40406 0.40826 0.0
N2178 N 0.79758 0.40249 0.41834 0.0
N2179 N 0.89507 0.36024 0.38262 0.0
H2180 H 0.90571 0.44448 0.43633 0.0
H2181 H 0.92037 0.42123 0.40778 0.0
H2182 H 0.89313 0.33724 0.36819 0.0
H2183 H 0.91616 0.37075 0.3943 0.0
H2184 H 0.77666 0.38692 0.41381 0.0
H2185 H 0.79912 0.4246 0.43403 0.0
H2186 H 0.77211 0.35699 0.36966 0.0
H2187 H 0.7875 0.32619 0.35138 0.0
C2188 C 0.48232 0.0448 0.21049 0.0
C2189 C 0.49524 0.04465 0.24165 0.0
C2190 C 0.50919 0.99364 0.22097 0.0
C2191 C 0.5061 1.00135 0.19097 0.0
N2192 N 0.48175 0.02602 0.15397 0.0
N2193 N 0.52536 1.01938 0.27511 0.0
C2194 C 0.48889 0.02347 0.18464 0.0
C2195 C 0.50951 1.01883 0.24682 0.0
N2196 N 0.46449 0.06554 0.20572 0.0
N2197 N 0.51642 0.96471 0.22445 0.0
H2198 H 0.5293 0.03875 0.29436 0.0
H2199 H 0.53745 1.00196 0.27838 0.0
H2200 H 0.51813 0.94764 0.20469 0.0
H2201 H 0.51788 0.95684 0.24609 0.0
H2202 H 0.45235 0.06444 0.18401 0.0
H2203 H 0.46104 0.08323 0.2239 0.0
H2204 H 0.47198 0.04412 0.14713 0.0
H2205 H 0.48646 1.00974 0.13535 0.0
C2206 C 0.82989 0.78639 0.93737 0.0
C2207 C 0.81633 0.7516 0.92967 0.0
C2208 C 0.83085 0.75381 0.87569 0.0
C2209 C 0.83786 0.78882 0.88123 0.0
N2210 N 0.84035 0.8389 0.91956 0.0
N2211 N 0.79979 0.70436 0.8855 0.0
C2212 C 0.83628 0.80524 0.91267 0.0
C2213 C 0.81567 0.73598 0.89721 0.0
N2214 N 0.83886 0.80156 0.96824 0.0
N2215 N 0.84048 0.73689 0.85091 0.0
H2216 H 0.78667 0.68966 0.89805 0.0
H2217 H 0.79709 0.69393 0.86149 0.0
H2218 H 0.85229 0.74854 0.83499 0.0
H2219 H 0.84037 0.71189 0.84944 0.0
H2220 H 0.85121 0.82595 0.97489 0.0
H2221 H 0.83803 0.78885 0.98699 0.0
H2222 H 0.83629 0.85128 0.94094 0.0
H2223 H 0.84403 0.85428 0.9031 0.0
C2224 C 0.90035 0.13674 1.01495 0.0
C2225 C 0.8804 0.1229 0.03427 0.0
C2226 C 0.90334 0.0761 0.03431 0.0
C2227 C 0.92249 0.08902 1.01359 0.0
N2228 N 0.93682 0.12927 0.98055 0.0
N2229 N 0.86897 0.08561 0.07072 0.0
C2230 C 0.92042 0.11881 1.00294 0.0
C2231 C 0.88385 0.09456 0.04667 0.0
N2232 N 0.90125 0.16819 1.01014 0.0
N2233 N 0.90236 0.04499 0.04037 0.0
H2234 H 0.85418 0.09815 0.08016 0.0
H2235 H 0.873 0.06741 0.08306 0.0
H2236 H 0.91564 0.0302 0.03095 0.0
H2237 H 0.88643 0.03243 0.05201 0.0
H2238 H 0.91645 0.18135 0.99815 0.0
H2239 H 0.88879 0.18258 0.02188 0.0
H2240 H 0.93467 0.14921 0.96985 0.0
H2241 H 0.95089 0.1161 0.97044 0.0
C2242 C 0.47314 0.45014 0.04177 0.0
C2243 C 0.45191 0.46148 0.05888 0.0
C2244 C 0.48561 0.51792 0.07154 0.0
C2245 C 0.50679 0.50692 0.05356 0.0
N2246 N 0.51521 0.46339 1.01432 0.0
N2247 N 0.44161 0.50442 0.09674 0.0
C2248 C 0.49919 0.47312 0.03708 0.0
C2249 C 0.45935 0.49486 0.07572 0.0
N2250 N 0.46847 0.41707 0.02964 0.0
N2251 N 0.48892 0.55115 0.082 0.0
H2252 H 0.42249 0.48858 0.10049 0.0
H2253 H 0.44701 0.52687 0.11266 0.0
H2254 H 0.50488 0.5693 0.07567 0.0
H2255 H 0.47351 0.56135 0.09299 0.0
H2256 H 0.48467 0.4062 0.02122 0.0
H2257 H 0.44898 0.39992 0.02999 0.0
H2258 H 0.50951 0.44038 0.99926 0.0
H2259 H 0.53234 0.47958 1.00757 0.0
C2260 C 0.42268 0.68737 0.76609 0.0
C2261 C 0.42221 0.66697 0.79023 0.0
C2262 C 0.38692 0.7015 0.81295 0.0
C2263 C 0.38876 0.72336 0.79022 0.0
N2264 N 0.41511 0.73761 0.74734 0.0
N2265 N 0.41058 0.66814 0.84356 0.0
C2266 C 0.40882 0.71636 0.76779 0.0
C2267 C 0.40591 0.67787 0.81525 0.0
N2268 N 0.43561 0.67865 0.74024 0.0
N2269 N 0.36719 0.70341 0.83375 0.0
H2270 H 0.42682 0.65586 0.84866 0.0
H2271 H 0.40194 0.67687 0.86361 0.0
H2272 H 0.35511 0.72136 0.83549 0.0
H2273 H 0.36143 0.68561 0.84771 0.0
H2274 H 0.43404 0.68886 0.71994 0.0
H2275 H 0.44612 0.6593 0.73811 0.0
H2276 H 0.43228 0.73797 0.73394 0.0
H2277 H 0.40444 0.75644 0.7453 0.0
C2278 C 0.21729 0.66074 0.53196 0.0
C2279 C 0.23573 0.63976 0.53982 0.0
C2280 C 0.19801 0.61141 0.56766 0.0
C2281 C 0.17812 0.62895 0.55592 0.0
N2282 N 0.16866 0.67075 0.52711 0.0
N2283 N 0.24018 0.58968 0.55895 0.0
C2284 C 0.1878 0.65377 0.53811 0.0
C2285 C 0.22502 0.61334 0.55555 0.0
N2286 N 0.22824 0.68798 0.51933 0.0
N2287 N 0.19186 0.59348 0.59093 0.0
H2288 H 0.25965 0.58892 0.55006 0.0
H2289 H 0.23142 0.56806 0.56703 0.0
H2290 H 0.1737 0.59291 0.60269 0.0
H2291 H 0.20699 0.58286 0.60201 0.0
H2292 H 0.21742 0.70672 0.51729 0.0
H2293 H 0.2489 0.69277 0.51208 0.0
H2294 H 0.17282 0.68568 0.51027 0.0
H2295 H 0.148 0.66902 0.53425 0.0
C2296 C 0.73619 0.99586 0.78746 0.0
C2297 C 0.74573 1.0166 0.766 0.0
C2298 C 0.79303 1.0034 0.76943 0.0
C2299 C 0.78418 0.98314 0.79161 0.0
N2300 N 0.74597 0.95434 0.81737 0.0
N2301 N 0.77742 0.03032 0.72772 0.0
C2302 C 0.75512 0.97725 0.79911 0.0
C2303 C 0.77207 1.01637 0.7536 0.0
N2304 N 0.70974 0.99564 0.79768 0.0
N2305 N 0.82174 1.01185 0.7649 0.0
H2306 H 0.76201 0.04044 0.71633 0.0
H2307 H 0.79565 0.02912 0.71624 0.0
H2308 H 0.83814 1.00354 0.77676 0.0
H2309 H 0.82971 0.02959 0.75161 0.0
H2310 H 0.70234 0.98377 0.81574 0.0
H2311 H 0.69543 1.00831 0.78807 0.0
H2312 H 0.72441 0.94707 0.82158 0.0
H2313 H 0.75979 0.94115 0.82695 0.0
C2314 C 0.7757 0.92687 0.51731 0.0
C2315 C 0.79776 0.94272 0.54309 0.0
C2316 C 0.7696 0.98381 0.55895 0.0
C2317 C 0.74967 0.9707 0.5306 0.0
N2318 N 0.73356 0.93044 0.48227 0.0
N2319 N 0.81328 0.9809 0.59232 0.0
C2320 C 0.75238 0.94205 0.50984 0.0
C2321 C 0.79379 0.96953 0.56523 0.0
N2322 N 0.77688 0.89692 0.50054 0.0
N2323 N 0.76592 1.01079 0.57906 0.0
H2324 H 0.83048 0.96992 0.5975 0.0
H2325 H 0.8119 0.99969 0.61048 0.0
H2326 H 0.74809 0.02125 0.57561 0.0
H2327 H 0.78043 0.02345 0.59904 0.0
H2328 H 0.76056 0.88253 0.48279 0.0
H2329 H 0.79323 0.88506 0.50661 0.0
H2330 H 0.73629 0.91216 0.46428 0.0
H2331 H 0.71587 0.94047 0.47656 0.0
C2332 C 0.39153 0.47133 0.75747 0.0
C2333 C 0.42087 0.48284 0.77383 0.0
C2334 C 0.41154 0.42741 0.79293 0.0
C2335 C 0.38238 0.41569 0.77605 0.0
N2336 N 0.34937 0.42546 0.73465 0.0
N2337 N 0.45993 0.46611 0.80187 0.0
C2338 C 0.37382 0.43767 0.75648 0.0
C2339 C 0.43112 0.45883 0.78952 0.0
N2340 N 0.38025 0.49255 0.74199 0.0
N2341 N 0.42032 0.40952 0.81407 0.0
H2342 H 0.4742 0.48889 0.80211 0.0
H2343 H 0.47006 0.44892 0.81016 0.0
H2344 H 0.40727 0.38726 0.81737 0.0
H2345 H 0.43936 0.41805 0.83022 0.0
H2346 H 0.35814 0.48849 0.7336 0.0
H2347 H 0.39266 0.51547 0.73942 0.0
H2348 H 0.34303 0.43801 0.71734 0.0
H2349 H 0.33732 0.40096 0.73107 0.0
C2350 C 0.24523 0.69855 0.26205 0.0
C2351 C 0.24909 0.67035 0.2434 0.0
C2352 C 0.30069 0.69474 0.24422 0.0
C2353 C 0.29731 0.72057 0.26811 0.0
N2354 N 0.26769 0.74021 0.30668 0.0
N2355 N 0.27654 0.64244 0.20927 0.0
C2356 C 0.26994 0.72006 0.27938 0.0
C2357 C 0.27574 0.66884 0.23183 0.0
N2358 N 0.2182 0.70462 0.26326 0.0
N2359 N 0.3272 0.69433 0.23429 0.0
H2360 H 0.25747 0.62498 0.19858 0.0
H2361 H 0.2953 0.63805 0.20052 0.0
H2362 H 0.34689 0.70917 0.24642 0.0
H2363 H 0.33024 0.67779 0.21503 0.0
H2364 H 0.21505 0.72681 0.27541 0.0
H2365 H 0.19953 0.68867 0.24968 0.0
H2366 H 0.24808 0.73926 0.31605 0.0
H2367 H 0.28609 0.75479 0.32175 0.0
C2368 C 0.57663 0.71295 0.5023 0.0
C2369 C 0.55229 0.70666 0.47781 0.0
C2370 C 0.54887 0.64669 0.47606 0.0
C2371 C 0.56958 0.65294 0.50404 0.0
N2372 N 0.59899 0.69445 0.54699 0.0
N2373 N 0.51136 0.6655 0.44683 0.0
C2374 C 0.58226 0.68679 0.51806 0.0
C2375 C 0.53727 0.67293 0.46636 0.0
N2376 N 0.5957 0.74344 0.50952 0.0
N2377 N 0.54166 0.6161 0.45711 0.0
H2378 H 0.50125 0.68356 0.44043 0.0
H2379 H 0.49839 0.64142 0.43997 0.0
H2380 H 0.55255 0.5978 0.46074 0.0
H2381 H 0.52838 0.61077 0.43535 0.0
H2382 H 0.6151 0.74842 0.525 0.0
H2383 H 0.59425 0.76243 0.49713 0.0
H2384 H 0.60642 0.71867 0.5596 0.0
H2385 H 0.60272 0.67654 0.55989 0.0
C2386 C 0.71198 0.31252 0.69879 0.0
C2387 C 0.71716 0.33579 0.67796 0.0
C2388 C 0.77089 0.34485 0.69513 0.0
C2389 C 0.76564 0.32211 0.71634 0.0
N2390 N 0.73116 0.27819 0.73184 0.0
N2391 N 0.75202 0.36872 0.65182 0.0
C2392 C 0.73608 0.30419 0.71607 0.0
C2393 C 0.74681 0.35009 0.67468 0.0
N2394 N 0.68377 0.29742 0.70143 0.0
N2395 N 0.79876 0.36277 0.6955 0.0
H2396 H 0.73526 0.37429 0.63777 0.0
H2397 H 0.77262 0.37675 0.64527 0.0
H2398 H 0.81672 0.35899 0.70902 0.0
H2399 H 0.80405 0.38255 0.68375 0.0
H2400 H 0.67756 0.28104 0.71647 0.0
H2401 H 0.66551 0.30167 0.68911 0.0
H2402 H 0.71084 0.26448 0.73477 0.0
H2403 H 0.74789 0.26805 0.74025 0.0
C2404 C 0.08541 0.40876 0.98559 0.0
C2405 C 0.05812 0.38716 0.98655 0.0
C2406 C 0.04596 0.43337 0.02125 0.0
C2407 C 0.0693 0.4563 1.01235 0.0
N2408 N 0.1086 0.46388 0.9798 0.0
N2409 N 1.01158 0.37964 1.0067 0.0
C2410 C 0.08867 0.44353 0.99322 0.0
C2411 C 0.03823 0.39946 1.00519 0.0
N2412 N 0.10814 0.39595 0.9768 0.0
N2413 N 0.03182 0.44355 0.04568 0.0
H2414 H 1.00522 0.35464 0.99632 0.0
H2415 H 0.99512 0.38868 1.01684 0.0
H2416 H 0.038 0.46751 0.05909 0.0
H2417 H 1.01644 0.42724 0.05495 0.0
H2418 H 0.12922 0.41061 0.97787 0.0
H2419 H 0.10637 0.37041 0.97195 0.0
H2420 H 0.12148 0.4548 0.96392 0.0
H2421 H 0.10962 0.48898 0.98079 0.0
C2422 C 0.02166 0.81567 0.14751 0.0
C2423 C 0.05144 0.82882 0.16156 0.0
C2424 C 0.03393 0.83157 0.21409 0.0
C2425 C 1.00588 0.81216 0.19948 0.0
N2426 N 0.97452 0.78142 0.15201 0.0
N2427 N 0.08402 0.85783 0.20899 0.0
C2428 C 1.0003 0.80278 0.16615 0.0
C2429 C 0.05705 0.83916 0.1952 0.0
N2430 N 1.0128 0.81861 0.1173 0.0
N2431 N 0.03806 0.84372 0.24592 0.0
H2432 H 0.09864 0.87094 0.19631 0.0
H2433 H 0.0915 0.86162 0.23302 0.0
H2434 H 0.02186 0.8382 0.2603 0.0
H2435 H 0.05685 0.86047 0.25813 0.0
H2436 H 0.99104 0.81085 0.10683 0.0
H2437 H 0.02578 0.83404 0.10494 0.0
H2438 H 0.97076 0.77109 0.12794 0.0
H2439 H 0.95812 0.77167 0.16476 0.0
C2440 C 0.55567 0.32714 0.10827 0.0
C2441 C 0.54084 0.33787 0.13342 0.0
C2442 C 0.5621 0.39523 0.12888 0.0
C2443 C 0.57049 0.38385 0.099 0.0
N2444 N 0.57007 0.33678 0.05811 0.0
N2445 N 0.52966 0.38286 0.1679 0.0
C2446 C 0.56627 0.3492 0.08822 0.0
C2447 C 0.54415 0.37221 0.14404 0.0
N2448 N 0.55984 0.29581 0.10364 0.0
N2449 N 0.57193 0.42777 0.1431 0.0
H2450 H 0.51729 0.36654 0.18 0.0
H2451 H 0.52862 0.40749 0.17427 0.0
H2452 H 0.58635 0.44479 0.13344 0.0
H2453 H 0.56836 0.4369 0.16589 0.0
H2454 H 0.57281 0.28766 0.08737 0.0
H2455 H 0.55323 0.27961 0.11881 0.0
H2456 H 0.56461 0.31144 0.04875 0.0
H2457 H 0.57527 0.3514 0.04125 0.0
C2458 C 0.07536 0.34796 0.3357 0.0
C2459 C 0.08089 0.3725 0.36396 0.0
C2460 C 0.03577 0.38844 0.34922 0.0
C2461 C 0.02935 0.36253 0.32232 0.0
N2462 N 0.03987 0.31448 0.29192 0.0
N2463 N 0.06453 0.41229 0.40013 0.0
C2464 C 0.04835 0.34152 0.31593 0.0
C2465 C 0.06046 0.39149 0.37153 0.0
N2466 N 0.0957 0.3306 0.32773 0.0
N2467 N 1.01846 0.41054 0.35315 0.0
H2468 H 0.08361 0.41731 0.41594 0.0
H2469 H 0.04858 0.42343 0.40882 0.0
H2470 H 0.99966 0.40899 0.33776 0.0
H2471 H 0.02392 0.43213 0.37026 0.0
H2472 H 0.09466 0.31642 0.30538 0.0
H2473 H 0.11451 0.33134 0.3426 0.0
H2474 H 0.05089 0.29559 0.28866 0.0
H2475 H 1.02051 0.30971 0.27635 0.0
C2476 C 1.01668 0.64703 0.62654 0.0
C2477 C 0.025 0.68116 0.62487 0.0
C2478 C 0.06346 0.67009 0.59333 0.0
C2479 C 0.05242 0.63591 0.59143 0.0
N2480 N 1.0192 0.59133 0.60772 0.0
N2481 N 0.05386 0.724 0.6003 0.0
C2482 C 0.02952 0.62423 0.60853 0.0
C2483 C 0.0477 0.6925 0.60659 0.0
N2484 N 0.99548 0.63582 0.64415 0.0
N2485 N 0.08954 0.68124 0.58276 0.0
H2486 H 0.04484 0.74318 0.60943 0.0
H2487 H 0.06689 0.73081 0.58321 0.0
H2488 H 0.10183 0.6652 0.57328 0.0
H2489 H 0.10053 0.70618 0.58672 0.0
H2490 H 0.98883 0.61083 0.64571 0.0
H2491 H 0.98466 0.65145 0.657 0.0
H2492 H 0.02787 0.57323 0.59529 0.0
H2493 H 0.02787 0.57323 0.59529 0.0
C2494 C 0.74469 0.86657 0.87367 0.0
C2495 C 0.71655 0.86435 0.85821 0.0
C2496 C 0.72957 0.83741 0.80852 0.0
C2497 C 0.75757 0.83906 0.82413 0.0
N2498 N 0.78624 0.84239 0.87412 0.0
N2499 N 0.679 0.8334 0.81551 0.0
C2500 C 0.76356 0.84995 0.8575 0.0
C2501 C 0.70793 0.84558 0.82688 0.0
N2502 N 0.75369 0.88477 0.90349 0.0
N2503 N 0.72364 0.82885 0.77637 0.0
H2504 H 0.66254 0.83716 0.82908 0.0
H2505 H 0.67164 0.81734 0.79382 0.0
H2506 H 0.73902 0.82248 0.76231 0.0
H2507 H 0.70424 0.83061 0.76386 0.0
H2508 H 0.77517 0.8896 0.91456 0.0
H2509 H 0.74027 0.89706 0.91611 0.0
H2510 H 0.78903 0.84584 0.89872 0.0
H2511 H 0.79935 0.82851 0.86311 0.0
C2512 C 0.53513 0.56123 0.67704 0.0
C2513 C 0.51212 0.57855 0.68172 0.0
C2514 C 0.52149 0.59412 0.62742 0.0
C2515 C 0.54498 0.57738 0.62322 0.0
N2516 N 0.57828 0.55359 0.65186 0.0
N2517 N 0.48752 0.6159 0.66049 0.0
C2518 C 0.55258 0.5632 0.65026 0.0
C2519 C 0.5065 0.59591 0.65633 0.0
N2520 N 0.54009 0.54143 0.69803 0.0
N2521 N 0.51321 0.60878 0.60328 0.0
H2522 H 0.47646 0.61756 0.68021 0.0
H2523 H 0.48422 0.63258 0.646 0.0
H2524 H 0.52414 0.6097 0.58349 0.0
H2525 H 0.49486 0.61852 0.6019 0.0
H2526 H 0.55349 0.52493 0.69469 0.0
H2527 H 0.52858 0.53924 0.71728 0.0
H2528 H 0.58748 0.5465 0.67173 0.0
H2529 H 0.59207 0.55646 0.63457 0.0
C2530 C 0.84131 0.24239 0.98519 0.0
C2531 C 0.81489 0.2257 0.99404 0.0
C2532 C 0.78911 0.2606 0.97002 0.0
C2533 C 0.81565 0.27918 0.96214 0.0
N2534 N 0.86803 0.29622 0.97837 0.0
N2535 N 0.77522 0.24319 1.01713 0.0
C2536 C 0.84229 0.27308 0.9753 0.0
C2537 C 0.79152 0.2413 0.99311 0.0
N2538 N 0.86481 0.22876 0.98479 0.0
N2539 N 0.76196 0.25808 0.9546 0.0
H2540 H 0.78053 0.23457 0.03773 0.0
H2541 H 0.75896 0.25645 1.01737 0.0
H2542 H 0.75816 0.26525 0.93299 0.0
H2543 H 0.74338 0.24384 0.96141 0.0
H2544 H 0.88392 0.23967 0.97653 0.0
H2545 H 0.86362 0.20505 0.98943 0.0
H2546 H 0.88757 0.29304 0.98934 0.0
H2547 H 0.8688 0.31962 0.97279 0.0
C2548 C 0.15774 0.53289 0.1357 0.0
C2549 C 0.17235 0.564 0.15374 0.0
C2550 C 0.13681 0.59058 0.13127 0.0
C2551 C 0.1208 0.55911 0.1141 0.0
N2552 N 0.11589 0.50018 0.09834 0.0
N2553 N 0.18326 0.62326 0.15987 0.0
C2554 C 0.13137 0.53011 0.11553 0.0
C2555 C 0.16436 0.59318 0.14838 0.0
N2556 N 0.16943 0.50638 0.13843 0.0
N2557 N 0.12484 0.61751 0.13281 0.0
H2558 H 0.20433 0.62512 0.17083 0.0
H2559 H 0.17954 0.64561 0.15518 0.0
H2560 H 0.1038 0.61622 0.12208 0.0
H2561 H 0.13442 0.64032 0.14744 0.0
H2562 H 0.16051 0.4823 0.12627 0.0
H2563 H 0.18941 0.50925 0.15246 0.0
H2564 H 0.12265 0.4782 0.09727 0.0
H2565 H 0.09541 0.49695 0.08547 0.0
C2566 C 0.87298 0.84038 0.4464 0.0
C2567 C 0.85944 0.86673 0.45665 0.0
C2568 C 0.84432 0.86797 0.40089 0.0
C2569 C 0.85511 0.83983 0.39044 0.0
N2570 N 0.87415 0.79467 0.4043 0.0
N2571 N 0.82264 0.89552 0.44202 0.0
C2572 C 0.86779 0.82457 0.41351 0.0
C2573 C 0.84189 0.87699 0.43331 0.0
N2574 N 0.89175 0.83127 0.4673 0.0
N2575 N 0.83788 0.88756 0.3802 0.0
H2576 H 0.81941 0.90186 0.46546 0.0
H2577 H 0.80774 0.9012 0.42565 0.0
H2578 H 0.84192 0.88383 0.35675 0.0
H2579 H 0.83222 0.90992 0.38745 0.0
H2580 H 0.90446 0.81477 0.46034 0.0
H2581 H 0.89621 0.8418 0.49124 0.0
H2582 H 0.88052 0.78067 0.4203 0.0
H2583 H 0.87054 0.78261 0.38072 0.0
C2584 C 0.49728 0.56567 0.89999 0.0
C2585 C 0.50814 0.58296 0.87562 0.0
C2586 C 0.55594 0.59703 0.91384 0.0
C2587 C 0.54552 0.57275 0.93297 0.0
N2588 N 0.50679 0.52444 0.92948 0.0
N2589 N 0.55302 0.61439 0.8621 0.0
C2590 C 0.51654 0.55413 0.92125 0.0
C2591 C 0.53923 0.59798 0.88319 0.0
N2592 N 0.46914 0.5624 0.90593 0.0
N2593 N 0.5812 0.62027 0.92524 0.0
H2594 H 0.54184 0.61777 0.8414 0.0
H2595 H 0.57569 0.62288 0.86459 0.0
H2596 H 0.59168 0.62195 0.94792 0.0
H2597 H 0.58931 0.63987 0.91406 0.0
H2598 H 0.46153 0.55067 0.92411 0.0
H2599 H 0.45507 0.57532 0.89663 0.0
H2600 H 0.48623 0.50935 0.91969 0.0
H2601 H 0.52093 0.51388 0.94214 0.0
C2602 C 0.80074 0.22589 0.15643 0.0
C2603 C 0.8242 0.21009 0.15266 0.0
C2604 C 0.85578 0.25206 0.19439 0.0
C2605 C 0.83242 0.26772 0.19877 0.0
N2606 N 0.78227 0.26947 0.18608 0.0
N2607 N 0.87049 0.20225 0.17295 0.0
C2608 C 0.80471 0.25464 0.18032 0.0
C2609 C 0.85059 0.22135 0.17335 0.0
N2610 N 0.77496 0.21361 0.13669 0.0
N2611 N 0.88336 0.26752 0.20907 0.0
H2612 H 0.86659 0.17933 0.15773 0.0
H2613 H 0.88906 0.2074 0.18968 0.0
H2614 H 0.88824 0.2907 0.22395 0.0
H2615 H 0.90176 0.25911 0.20374 0.0
H2616 H 0.75838 0.22611 0.13473 0.0
H2617 H 0.7701 0.19024 0.12229 0.0
H2618 H 0.7607 0.25973 0.17564 0.0
H2619 H 0.78515 0.29151 0.20235 0.0
C2620 C 0.17441 0.65087 0.33609 0.0
C2621 C 0.17236 0.61686 0.32394 0.0
C2622 C 0.12729 0.60195 0.34619 0.0
C2623 C 0.13421 0.63427 0.36474 0.0
N2624 N 0.16244 0.6909 0.37563 0.0
N2625 N 0.14639 0.55934 0.31706 0.0
C2626 C 0.15707 0.65925 0.35907 0.0
C2627 C 0.1483 0.59213 0.32832 0.0
N2628 N 0.19203 0.67572 0.32551 0.0
N2629 N 0.10109 0.58059 0.34672 0.0
H2630 H 0.16168 0.55108 0.30407 0.0
H2631 H 0.1309 0.54016 0.32268 0.0
H2632 H 0.08532 0.58742 0.35989 0.0
H2633 H 0.09388 0.55754 0.33179 0.0
H2634 H 0.2044 0.67154 0.30727 0.0
H2635 H 0.2044 0.67154 0.30727 0.0
H2636 H 0.17988 0.70961 0.3724 0.0
H2637 H 0.14944 0.69798 0.3924 0.0
C2638 C 0.86804 0.89077 0.67601 0.0
C2639 C 0.85797 0.87216 0.64422 0.0
C2640 C 0.82429 0.83253 0.66918 0.0
C2641 C 0.83782 0.84714 0.70087 0.0
N2642 N 0.87869 0.88866 0.73177 0.0
N2643 N 0.83462 0.81575 0.61652 0.0
C2644 C 0.86135 0.87591 0.70352 0.0
C2645 C 0.83864 0.84022 0.64256 0.0
N2646 N 0.88446 0.92257 0.6809 0.0
N2647 N 0.79703 0.81176 0.66368 0.0
H2648 H 0.84786 0.8166 0.59873 0.0
H2649 H 0.82167 0.792 0.61563 0.0
H2650 H 0.78363 0.80894 0.6813 0.0
H2651 H 0.78613 0.80184 0.64084 0.0
H2652 H 0.8883 0.93825 0.70293 0.0
H2653 H 0.89317 0.93411 0.66333 0.0
H2654 H 0.898 0.907 0.73425 0.0
H2655 H 0.87555 0.87877 0.75196 0.0
C2656 C 0.77693 0.49174 0.52222 0.0
C2657 C 0.80097 0.51391 0.51351 0.0
C2658 C 0.78215 0.56116 0.53644 0.0
C2659 C 0.75874 0.53918 0.54578 0.0
N2660 N 0.73562 0.48418 0.55203 0.0
N2661 N 0.81773 0.56838 0.5004 0.0
C2662 C 0.75656 0.50456 0.53981 0.0
C2663 C 0.8013 0.54829 0.51725 0.0
N2664 N 0.77241 0.45841 0.51133 0.0
N2665 N 0.78647 0.5946 0.54636 0.0
H2666 H 0.82887 0.55987 0.48253 0.0
H2667 H 0.81673 0.59286 0.50051 0.0
H2668 H 0.77259 0.60519 0.55979 0.0
H2669 H 0.80541 0.61162 0.54398 0.0
H2670 H 0.7543 0.44078 0.51458 0.0
H2671 H 0.78518 0.44861 0.49572 0.0
H2672 H 0.73454 0.45915 0.55162 0.0
H2673 H 0.72062 0.49304 0.56512 0.0
C2674 C 0.22164 0.14267 0.52762 0.0
C2675 C 0.22153 0.16583 0.50672 0.0
C2676 C 0.16855 0.14016 0.48975 0.0
C2677 C 0.16827 0.11889 0.51224 0.0
N2678 N 0.19396 0.10351 0.55596 0.0
N2679 N 0.19288 0.19008 0.47227 0.0
C2680 C 0.19473 0.1212 0.53201 0.0
C2681 C 0.1943 0.16572 0.48933 0.0
N2682 N 0.2475 0.14085 0.54344 0.0
N2683 N 0.14466 0.1348 0.46749 0.0
H2684 H 0.21119 0.20829 0.47033 0.0
H2685 H 0.17328 0.19343 0.46172 0.0
H2686 H 0.1254 0.11704 0.46745 0.0
H2687 H 0.14467 0.14636 0.44792 0.0
H2688 H 0.2497 0.12145 0.55496 0.0
H2689 H 0.26737 0.15739 0.54355 0.0
H2690 H 0.21142 0.10664 0.57366 0.0
H2691 H 0.17488 0.08773 0.55993 0.0
C2692 C 0.268 0.94631 0.82146 0.0
C2693 C 0.25366 0.95762 0.79537 0.0
C2694 C 0.26619 0.90609 0.76203 0.0
C2695 C 0.28391 0.8979 0.78764 0.0
N2696 N 0.3004 0.91443 0.84308 0.0
N2697 N 0.24219 0.94504 0.73863 0.0
C2698 C 0.28437 0.91965 0.8174 0.0
C2699 C 0.25358 0.9362 0.76522 0.0
N2700 N 0.2639 0.95915 0.85132 0.0
N2701 N 0.26032 0.88411 0.73406 0.0
H2702 H 0.2329 0.96535 0.73947 0.0
H2703 H 0.24387 0.93389 0.71581 0.0
H2704 H 0.26913 0.86335 0.73073 0.0
H2705 H 0.24491 0.88475 0.71543 0.0
H2706 H 0.27073 0.95082 0.87149 0.0
H2707 H 0.25003 0.97493 0.85573 0.0
H2708 H 0.30649 0.9314 0.86429 0.0
H2709 H 0.30849 0.89333 0.84231 0.0
C2710 C 0.46049 0.96695 1.00392 0.0
C2711 C 0.44207 0.98479 0.01932 0.0
C2712 C 0.4841 0.02954 0.04401 0.0
C2713 C 0.50226 1.01241 0.02717 0.0
N2714 N 0.50627 0.97088 0.98348 0.0
N2715 N 0.43557 0.03236 0.05521 0.0
C2716 C 0.49016 0.98269 1.00512 0.0
C2717 C 0.45361 1.01595 0.0397 0.0
N2718 N 0.44964 0.93524 0.98748 0.0
N2719 N 0.49615 0.05901 0.06402 0.0
H2720 H 0.4141 0.02133 0.05745 0.0
H2721 H 0.44153 0.0573 0.06582 0.0
H2722 H 0.51761 0.07164 0.06432 0.0
H2723 H 0.48539 0.07085 0.08047 0.0
H2724 H 0.46299 0.91978 0.97976 0.0
H2725 H 0.42743 0.92364 0.9827 0.0
H2726 H 0.4978 0.95083 0.96498 0.0
H2727 H 0.52683 0.98414 0.98108 0.0
C2728 C 0.93201 0.64319 0.7982 0.0
C2729 C 0.92024 0.61042 0.80185 0.0
C2730 C 0.87829 0.60569 0.76227 0.0
C2731 C 0.88889 0.63923 0.7607 0.0
N2732 N 0.93334 0.67939 0.76029 0.0
N2733 N 0.89087 0.5567 0.77493 0.0
C2734 C 0.91804 0.65537 0.77383 0.0
C2735 C 0.89605 0.59033 0.77992 0.0
N2736 N 0.95618 0.66255 0.81758 0.0
N2737 N 0.85082 0.58902 0.74813 0.0
H2738 H 0.90384 0.54486 0.78741 0.0
H2739 H 0.87523 0.5411 0.75709 0.0
H2740 H 0.83796 0.59946 0.73362 0.0
H2741 H 0.84068 0.56561 0.75195 0.0
H2742 H 0.96402 0.68756 0.81686 0.0
H2743 H 0.967 0.6541 0.83561 0.0
H2744 H 0.95532 0.691 0.76787 0.0
H2745 H 0.92515 0.68246 0.73806 0.0
C2746 C 0.88277 0.66283 0.99756 0.0
C2747 C 0.87233 0.68313 0.02115 0.0
C2748 C 0.91343 0.67924 0.05909 0.0
C2749 C 0.91947 0.65366 0.03672 0.0
N2750 N 0.90291 0.61509 0.98709 0.0
N2751 N 0.87695 0.70789 0.0767 0.0
C2752 C 0.90219 0.64378 1.00661 0.0
C2753 C 0.88759 0.69096 0.05262 0.0
N2754 N 0.8744 0.66194 0.96625 0.0
N2755 N 0.9325 0.69277 0.08615 0.0
H2756 H 0.85814 0.71657 0.07357 0.0
H2757 H 0.88563 0.71103 0.10037 0.0
H2758 H 0.95165 0.68509 0.09133 0.0
H2759 H 0.93071 0.71359 0.1018 0.0
H2760 H 0.88308 0.64906 0.94831 0.0
H2761 H 0.86174 0.67733 0.95858 0.0
H2762 H 0.88863 0.60568 0.96607 0.0
H2763 H 0.91507 0.59876 0.9936 0.0
C2764 C 0.28099 0.14447 0.78473 0.0
C2765 C 0.25582 0.14087 0.80133 0.0
C2766 C 0.26869 0.20436 0.81403 0.0
C2767 C 0.29275 0.20784 0.79596 0.0
N2768 N 0.31631 0.17833 0.75805 0.0
N2769 N 0.22359 0.17066 0.82665 0.0
C2770 C 0.29739 0.17694 0.78003 0.0
C2771 C 0.24912 0.17187 0.81416 0.0
N2772 N 0.28929 0.11655 0.77241 0.0
N2773 N 0.26519 0.23214 0.83282 0.0
H2774 H 0.20992 0.14856 0.82949 0.0
H2775 H 0.21515 0.19136 0.83249 0.0
H2776 H 0.27876 0.25551 0.83368 0.0
H2777 H 0.2507 0.23166 0.8495 0.0
H2778 H 0.30949 0.11698 0.76462 0.0
H2779 H 0.27685 0.09272 0.77179 0.0
H2780 H 0.31874 0.15761 0.74278 0.0
H2781 H 0.32716 0.20054 0.75233 0.0
C2782 C 0.41569 0.96405 0.27377 0.0
C2783 C 0.43625 0.96941 0.30112 0.0
C2784 C 0.41108 0.92069 0.31714 0.0
C2785 C 0.38832 0.91696 0.29196 0.0
N2786 N 0.36685 0.93628 0.24789 0.0
N2787 N 0.46058 0.94839 0.34079 0.0
C2788 C 0.39004 0.93878 0.27034 0.0
C2789 C 0.4362 0.94614 0.32015 0.0
N2790 N 0.42217 0.98116 0.25019 0.0
N2791 N 0.40808 0.90204 0.33998 0.0
H2792 H 0.47988 0.96653 0.34209 0.0
H2793 H 0.46242 0.93134 0.35508 0.0
H2794 H 0.39324 0.8797 0.33893 0.0
H2795 H 0.41861 0.91228 0.36248 0.0
H2796 H 0.40868 0.9774 0.22878 0.0
H2797 H 0.4433 0.99499 0.25037 0.0
H2798 H 0.36605 0.95363 0.23335 0.0
H2799 H 0.34726 0.91843 0.24587 0.0
C2800 C 0.63041 0.42058 0.55636 0.0
C2801 C 0.6216 0.41371 0.58564 0.0
C2802 C 0.60206 0.46414 0.5913 0.0
C2803 C 0.608 0.4688 0.56038 0.0
N2804 N 0.62489 0.44882 0.51198 0.0
N2805 N 0.59929 0.42931 0.63146 0.0
C2806 C 0.62154 0.44636 0.5426 0.0
C2807 C 0.60775 0.43588 0.60335 0.0
N2808 N 0.64845 0.40321 0.54233 0.0
N2809 N 0.59122 0.48712 0.6094 0.0
H2810 H 0.60506 0.41054 0.64189 0.0
H2811 H 0.58587 0.4415 0.64402 0.0
H2812 H 0.58518 0.50668 0.6007 0.0
H2813 H 0.58949 0.48793 0.63329 0.0
H2814 H 0.6579 0.40853 0.52241 0.0
H2815 H 0.65626 0.38549 0.55269 0.0
H2816 H 0.6313 0.43102 0.4964 0.0
H2817 H 0.61894 0.46739 0.50137 0.0
C2818 C 0.44338 0.80935 0.40282 0.0
C2819 C 0.46372 0.7918 0.38986 0.0
C2820 C 0.43258 0.78254 0.337 0.0
C2821 C 0.41406 0.80284 0.3494 0.0
N2822 N 0.40259 0.83585 0.39473 0.0
N2823 N 0.47157 0.75375 0.34566 0.0
C2824 C 0.41935 0.81553 0.38266 0.0
C2825 C 0.45646 0.77622 0.35718 0.0
N2826 N 0.44712 0.82065 0.43473 0.0
N2827 N 0.42765 0.76964 0.30533 0.0
H2828 H 0.48836 0.74802 0.3595 0.0
H2829 H 0.46637 0.73891 0.32326 0.0
H2830 H 0.40927 0.77099 0.2907 0.0
H2831 H 0.44202 0.75864 0.29319 0.0
H2832 H 0.43162 0.82957 0.44674 0.0
H2833 H 0.46548 0.82 0.44972 0.0
H2834 H 0.40687 0.84984 0.41751 0.0
H2835 H 0.38497 0.84027 0.38106 0.0
C2836 C 0.09221 0.71709 0.09663 0.0
C2837 C 0.11679 0.74075 0.09172 0.0
C2838 C 0.13049 0.69659 0.05539 0.0
C2839 C 0.10424 0.67351 0.05846 0.0
N2840 N 0.05471 0.66919 0.07108 0.0
N2841 N 0.15887 0.75394 0.06475 0.0
C2842 C 0.08346 0.68581 0.07588 0.0
C2843 C 0.13575 0.73076 0.07048 0.0
N2844 N 0.07668 0.72455 0.1207 0.0
N2845 N 0.15022 0.68616 0.03763 0.0
H2846 H 0.16421 0.77862 0.07638 0.0
H2847 H 0.17191 0.74936 0.0473 0.0
H2848 H 0.14496 0.66398 0.02127 0.0
H2849 H 0.17175 0.69956 0.039 0.0
H2850 H 0.06032 0.70689 0.1272 0.0
H2851 H 0.08156 0.74772 0.13558 0.0
H2852 H 0.03909 0.67657 0.08408 0.0
H2853 H 0.04515 0.65274 0.05022 0.0
C2854 C 0.13884 0.29357 0.90895 0.0
C2855 C 0.12222 0.31799 0.90934 0.0
C2856 C 0.16557 0.35657 0.89787 0.0
C2857 C 0.17776 0.32953 0.88764 0.0
N2858 N 0.18772 0.28435 0.91096 0.0
N2859 N 0.12205 0.37525 0.90666 0.0
C2860 C 0.16797 0.30094 0.90095 0.0
C2861 C 0.1364 0.35036 0.90494 0.0
N2862 N 0.12673 0.26297 0.91483 0.0
N2863 N 0.18308 0.38794 0.90502 0.0
H2864 H 0.10138 0.37301 0.91349 0.0
H2865 H 0.13041 0.39774 0.8998 0.0
H2866 H 0.20557 0.39235 0.9042 0.0
H2867 H 0.17613 0.40842 0.9156 0.0
H2868 H 0.137 0.2434 0.91163 0.0
H2869 H 0.10578 0.25664 0.92108 0.0
H2870 H 0.18252 0.2651 0.92343 0.0
H2871 H 0.21013 0.29363 0.91127 0.0
C2872 C 0.60656 0.75383 0.92056 0.0
C2873 C 0.63147 0.7797 0.93454 0.0
C2874 C 0.62774 0.7631 0.98605 0.0
C2875 C 0.60217 0.73834 0.9728 0.0
N2876 N 0.56586 0.71015 0.92843 0.0
N2877 N 0.67223 0.79842 0.97617 0.0
C2878 C 0.59121 0.73358 0.9402 0.0
C2879 C 0.64401 0.781 0.96599 0.0
N2880 N 0.59877 0.74741 0.88853 0.0
N2881 N 0.63599 0.77032 1.01807 0.0
H2882 H 0.68538 0.80975 0.96104 0.0
H2883 H 0.68352 0.79817 0.99801 0.0
H2884 H 0.62447 0.75788 0.03372 0.0
H2885 H 0.65253 0.79076 0.02934 0.0
H2886 H 0.58117 0.7288 0.8764 0.0
H2887 H 0.6121 0.75813 0.87334 0.0
H2888 H 0.55511 0.7065 0.90557 0.0
H2889 H 0.5544 0.69525 0.94243 0.0
C2890 C 0.09657 0.75617 0.7401 0.0
C2891 C 0.09925 0.77257 0.71365 0.0
C2892 C 0.15217 0.7898 0.72829 0.0
C2893 C 0.14982 0.77125 0.75275 0.0
N2894 N 0.12102 0.73712 0.78323 0.0
N2895 N 0.1305 0.79473 0.6772 0.0
C2896 C 0.12226 0.75492 0.75935 0.0
C2897 C 0.12726 0.78667 0.70622 0.0
N2898 N 0.0696 0.74064 0.74604 0.0
N2899 N 0.17838 0.81016 0.72599 0.0
H2900 H 0.11326 0.78941 0.65888 0.0
H2901 H 0.15081 0.8026 0.6699 0.0
H2902 H 0.19712 0.8129 0.74197 0.0
H2903 H 0.18062 0.82687 0.71051 0.0
H2904 H 0.06569 0.73225 0.76693 0.0
H2905 H 0.0506 0.73616 0.73014 0.0
H2906 H 0.10217 0.72146 0.78762 0.0
H2907 H 0.13951 0.73754 0.79869 0.0
C2908 C 0.12702 0.45112 0.46985 0.0
C2909 C 0.15576 0.45943 0.46208 0.0
C2910 C 0.16412 0.51397 0.49439 0.0
C2911 C 0.1338 0.50852 0.49722 0.0
N2912 N 0.0865 0.46888 0.4904 0.0
N2913 N 0.20288 0.48526 0.48855 0.0
C2914 C 0.11509 0.47636 0.48549 0.0
C2915 C 0.17513 0.48739 0.48023 0.0
N2916 N 0.11333 0.41859 0.46789 0.0
N2917 N 0.18231 0.54477 0.50398 0.0
H2918 H 0.21747 0.50246 0.50632 0.0
H2919 H 0.21747 0.50246 0.50632 0.0
H2920 H 0.17466 0.5658 0.51118 0.0
H2921 H 0.20444 0.54971 0.50158 0.0
H2922 H 0.09318 0.41059 0.47547 0.0
H2923 H 0.1242 0.39973 0.46387 0.0
H2924 H 0.07117 0.44843 0.477 0.0
H2925 H 0.07785 0.48236 0.50773 0.0
C2926 C 0.43838 0.25417 0.23838 0.0
C2927 C 0.4519 0.2756 0.21896 0.0
C2928 C 0.43441 0.32136 0.24705 0.0
C2929 C 0.41818 0.29885 0.26394 0.0
N2930 N 0.41463 0.24928 0.28532 0.0
N2931 N 0.47191 0.33176 0.21311 0.0
C2932 C 0.42333 0.26688 0.26258 0.0
C2933 C 0.45259 0.30987 0.22574 0.0
N2934 N 0.43884 0.22144 0.23314 0.0
N2935 N 0.43213 0.35346 0.25049 0.0
H2936 H 0.48627 0.32433 0.19831 0.0
H2937 H 0.47604 0.35741 0.21976 0.0
H2938 H 0.42431 0.3654 0.26955 0.0
H2939 H 0.43855 0.36869 0.23441 0.0
H2940 H 0.42588 0.20404 0.24363 0.0
H2941 H 0.45124 0.21127 0.21747 0.0
H2942 H 0.42061 0.22742 0.28809 0.0
H2943 H 0.40428 0.25876 0.30372 0.0
C2944 C 0.68239 0.56822 0.42202 0.0
C2945 C 0.67336 0.54753 0.39042 0.0
C2946 C 0.62726 0.52403 0.41534 0.0
C2947 C 0.63515 0.54764 0.44532 0.0
N2948 N 0.66955 0.59889 0.46957 0.0
N2949 N 0.63273 0.50613 0.35955 0.0
C2950 C 0.66223 0.57167 0.4459 0.0
C2951 C 0.64445 0.52588 0.38814 0.0
N2952 N 0.71117 0.58372 0.43133 0.0
N2953 N 0.60283 0.49885 0.41211 0.0
H2954 H 0.64465 0.50328 0.34072 0.0
H2955 H 0.61075 0.49378 0.35393 0.0
H2956 H 0.58718 0.49842 0.42738 0.0
H2957 H 0.59853 0.4776 0.39465 0.0
H2958 H 0.71931 0.596 0.45445 0.0
H2959 H 0.72784 0.58055 0.41827 0.0
H2960 H 0.68647 0.61938 0.46921 0.0
H2961 H 0.6571 0.60268 0.48774 0.0
C2962 C 0.36255 0.88711 0.09361 0.0
C2963 C 0.3692 0.92218 0.09908 0.0
C2964 C 0.40884 0.92298 0.1407 0.0
C2965 C 0.40355 0.88809 0.13162 0.0
N2966 N 0.38278 0.83927 0.09218 0.0
N2967 N 0.39654 0.97415 0.13159 0.0
C2968 C 0.38343 0.87127 0.10494 0.0
C2969 C 0.39201 0.94053 0.12366 0.0
N2970 N 0.33563 0.86892 0.07919 0.0
N2971 N 0.429 0.9386 0.16643 0.0
H2972 H 0.38112 0.98663 0.12424 0.0
H2973 H 0.41481 0.98947 0.14626 0.0
H2974 H 0.44199 0.92577 0.17795 0.0
H2975 H 0.43278 0.96361 0.17642 0.0
H2976 H 0.32946 0.84315 0.07638 0.0
H2977 H 0.3185 0.88007 0.07414 0.0
H2978 H 0.3691 0.82651 0.0715 0.0
H2979 H 0.39812 0.82716 0.10055 0.0
C2980 C 1.02015 0.59517 0.92713 0.0
C2981 C 1.00311 0.56344 0.91205 0.0
C2982 C 0.03745 0.53669 0.93805 0.0
C2983 C 0.05368 0.56842 0.95432 0.0
N2984 N 0.06 0.62766 0.96691 0.0
N2985 N 0.99733 0.50407 0.89907 0.0
C2986 C 0.0451 0.59765 0.94934 0.0
C2987 C 1.01209 0.53417 0.91675 0.0
N2988 N 1.01348 0.62288 0.91865 0.0
N2989 N 0.04648 0.50889 0.94295 0.0
H2990 H 0.97808 0.50098 0.88398 0.0
H2991 H 1.00439 0.48226 0.898 0.0
H2992 H 0.06741 0.50972 0.95361 0.0
H2993 H 0.03332 0.48491 0.93696 0.0
H2994 H 0.02732 0.64647 0.92501 0.0
H2995 H 0.99478 0.62201 0.90332 0.0
H2996 H 0.05271 0.64919 0.96739 0.0
H2997 H 0.07901 0.63101 0.98255 0.0
C2998 C 0.29019 0.24742 0.63436 0.0
C2999 C 0.30952 0.26296 0.61479 0.0
C3000 C 0.33485 0.30392 0.66268 0.0
C3001 C 0.31824 0.28538 0.68231 0.0
N3002 N 0.28404 0.23514 0.68659 0.0
N3003 N 0.35463 0.30287 0.613 0.0
C3004 C 0.29709 0.25586 0.66806 0.0
C3005 C 0.33296 0.29055 0.62964 0.0
N3006 N 0.26422 0.22591 0.62106 0.0
N3007 N 0.35216 0.33466 0.67544 0.0
H3008 H 0.35578 0.29254 0.58976 0.0
H3009 H 0.37341 0.32092 0.62343 0.0
H3010 H 0.35413 0.34509 0.69937 0.0
H3011 H 0.36223 0.35093 0.66178 0.0
H3012 H 0.24846 0.21599 0.6344 0.0
H3013 H 0.25659 0.22139 0.59697 0.0
H3014 H 0.27109 0.21144 0.67733 0.0
H3015 H 0.2884 0.24031 0.71124 0.0
C3016 C 0.63497 0.55494 0.19278 0.0
C3017 C 0.6617 0.54352 0.19513 0.0
C3018 C 0.65865 0.54221 0.13558 0.0
C3019 C 0.63117 0.55177 0.13297 0.0
N3020 N 0.59158 0.56188 0.16078 0.0
N3021 N 0.69529 0.52116 0.16499 0.0
C3022 C 0.61913 0.55666 0.1622 0.0
C3023 C 0.67243 0.53607 0.16538 0.0
N3024 N 0.62505 0.56599 0.22018 0.0
N3025 N 0.67264 0.53997 0.10943 0.0
H3026 H 0.70539 0.51554 0.18522 0.0
H3027 H 0.70243 0.5113 0.14436 0.0
H3028 H 0.66334 0.54238 0.0874 0.0
H3029 H 0.69429 0.53828 0.10999 0.0
H3030 H 0.6078 0.5776 0.22115 0.0
H3031 H 0.63579 0.56671 0.24251 0.0
H3032 H 0.57945 0.56172 0.1796 0.0
H3033 H 0.57962 0.56338 0.13975 0.0
C3034 C 0.35707 0.91238 0.89566 0.0
C3035 C 0.34515 0.90509 0.92357 0.0
C3036 C 0.33561 0.84571 0.9021 0.0
C3037 C 0.34614 0.85307 0.87402 0.0
N3038 N 0.36477 0.89301 0.84277 0.0
N3039 N 0.3141 0.8653 0.94767 0.0
C3040 C 0.35751 0.88626 0.87107 0.0
C3041 C 0.3321 0.8718 0.9254 0.0
N3042 N 0.36589 0.94424 0.89106 0.0
N3043 N 0.32849 0.8135 0.90606 0.0
H3044 H 0.30795 0.88402 0.96244 0.0
H3045 H 0.30217 0.84161 0.94861 0.0
H3046 H 0.33106 0.79407 0.88906 0.0
H3047 H 0.32299 0.80657 0.92719 0.0
H3048 H 0.38248 0.95172 0.87769 0.0
H3049 H 0.35484 0.96243 0.89817 0.0
H3050 H 0.3706 0.91645 0.83704 0.0
H3051 H 0.36209 0.87416 0.82372 0.0
C3052 C 0.98878 0.49278 0.72992 0.0
C3053 C 0.99737 0.52778 0.74241 0.0
C3054 C 0.04504 0.52995 0.72536 0.0
C3055 C 0.03451 0.49756 0.70765 0.0
N3056 N 0.99849 0.4462 0.6947 0.0
N3057 N 0.03184 0.58035 0.74631 0.0
C3058 C 1.00697 0.47826 0.71059 0.0
C3059 C 0.025 0.54653 0.7383 0.0
N3060 N 0.96416 0.47321 0.73717 0.0
N3061 N 0.0741 0.54512 0.72874 0.0
H3062 H 1.01695 0.59346 0.75475 0.0
H3063 H 0.05093 0.5953 0.74141 0.0
H3064 H 0.08941 0.53311 0.71967 0.0
H3065 H 0.08329 0.56798 0.74348 0.0
H3066 H 0.95923 0.44742 0.73251 0.0
H3067 H 0.94882 0.48222 0.74903 0.0
H3068 H 0.97798 0.43071 0.69422 0.0
H3069 H 1.01245 0.43521 0.68165 0.0
C3070 C 0.33732 0.24425 0.40864 0.0
C3071 C 0.31736 0.2543 0.42897 0.0
C3072 C 0.31686 0.30063 0.3996 0.0
C3073 C 0.33265 0.28698 0.37624 0.0
N3074 N 0.35768 0.24494 0.35904 0.0
N3075 N 0.28657 0.29189 0.44149 0.0
C3076 C 0.34239 0.25826 0.38078 0.0
C3077 C 0.30696 0.28269 0.42396 0.0
N3078 N 0.35372 0.22341 0.41751 0.0
N3079 N 0.31107 0.33089 0.39847 0.0
H3080 H 0.27616 0.27777 0.4566 0.0
H3081 H 0.27816 0.31238 0.4397 0.0
H3082 H 0.31497 0.34323 0.37968 0.0
H3083 H 0.30371 0.34467 0.41684 0.0
H3084 H 0.37046 0.21739 0.40555 0.0
H3085 H 0.3534 0.21555 0.43917 0.0
H3086 H 0.36214 0.22169 0.35839 0.0
H3087 H 0.36448 0.25645 0.34052 0.0
C3088 C 0.39005 0.59963 0.54567 0.0
C3089 C 0.3843 0.62511 0.53013 0.0
C3090 C 0.42328 0.61948 0.49764 0.0
C3091 C 0.42629 0.59117 0.51036 0.0
N3092 N 0.41029 0.55139 0.54333 0.0
N3093 N 0.39482 0.66022 0.49184 0.0
C3094 C 0.40922 0.5806 0.53373 0.0
C3095 C 0.40094 0.63547 0.50638 0.0
N3096 N 0.37699 0.59343 0.57166 0.0
N3097 N 0.44213 0.63135 0.4778 0.0
H3098 H 0.38018 0.67408 0.49951 0.0
H3099 H 0.40338 0.66638 0.47172 0.0
H3100 H 0.45836 0.61979 0.47053 0.0
H3101 H 0.44299 0.65364 0.47 0.0
H3102 H 0.38262 0.57749 0.58596 0.0
H3103 H 0.36235 0.6065 0.5807 0.0
H3104 H 0.39612 0.54051 0.55773 0.0
H3105 H 0.42356 0.53625 0.53459 0.0
C3106 C 0.97468 0.95272 0.53927 0.0
C3107 C 0.95375 0.96125 0.55865 0.0
C3108 C 0.98947 1.01468 0.58049 0.0
C3109 C 1.0077 1.00929 0.55652 0.0
N3110 N 1.014 0.97253 0.50987 0.0
N3111 N 0.94148 1.00226 0.59738 0.0
C3112 C 0.9996 0.97787 0.53535 0.0
C3113 C 0.9612 0.99289 0.57892 0.0
N3114 N 0.97043 0.92078 0.52375 0.0
N3115 N 0.99996 0.03927 0.60643 0.0
H3116 H 0.92185 0.98632 0.59962 0.0
H3117 H 0.94382 0.02663 0.60884 0.0
H3118 H 0.0217 0.05264 0.61121 0.0
H3119 H 0.98856 0.04302 0.62561 0.0
H3120 H 0.9864 0.91205 0.51233 0.0
H3121 H 0.95187 0.90236 0.52449 0.0
H3122 H 1.00779 0.95119 0.49245 0.0
H3123 H 0.02996 0.99083 0.50389 0.0
C3124 C 0.92878 0.1923 0.27019 0.0
C3125 C 0.92467 0.16875 0.29153 0.0
C3126 C 0.888 0.20238 0.31217 0.0
C3127 C 0.89337 0.22729 0.29244 0.0
N3128 N 0.92864 0.24791 0.25917 0.0
N3129 N 0.90825 0.16664 0.34267 0.0
C3130 C 0.91666 0.22264 0.27353 0.0
C3131 C 0.90624 0.17812 0.31494 0.0
N3132 N 0.94412 0.18598 0.24577 0.0
N3133 N 0.86593 0.20223 0.33025 0.0
H3134 H 0.92448 0.15488 0.34915 0.0
H3135 H 0.89758 0.17398 0.36159 0.0
H3136 H 0.85472 0.22093 0.33314 0.0
H3137 H 0.858 0.18242 0.34128 0.0
H3138 H 0.94531 0.19918 0.22732 0.0
H3139 H 0.95363 0.16583 0.24266 0.0
H3140 H 0.94742 0.24852 0.2483 0.0
H3141 H 0.92183 0.26991 0.2612 0.0
C3142 C 0.72558 0.12744 0.07371 0.0
C3143 C 0.73578 0.14518 0.05024 0.0
C3144 C 0.68657 0.1487 0.03307 0.0
C3145 C 0.67634 0.13272 0.05789 0.0
N3146 N 0.69088 0.12477 0.11095 0.0
N3147 N 0.72716 0.18455 1.01783 0.0
C3148 C 0.69726 0.12749 0.08122 0.0
C3149 C 0.71673 0.16055 0.03411 0.0
N3150 N 0.74288 0.11169 0.08964 0.0
N3151 N 0.6688 0.14936 1.00651 0.0
H3152 H 0.7485 0.18866 1.01309 0.0
H3153 H 0.71459 0.19954 1.00922 0.0
H3154 H 0.65129 0.12966 0.99638 0.0
H3155 H 0.67554 0.1638 0.98993 0.0
H3156 H 0.73501 0.09671 0.10547 0.0
H3157 H 0.76392 0.11103 0.08489 0.0
H3158 H 0.70637 0.12283 0.12898 0.0
H3159 H 0.67174 0.12956 0.11869 0.0
C3160 C 0.23781 0.50397 0.3041 0.0
C3161 C 0.23702 0.5111 0.27327 0.0
C3162 C 0.28035 0.49101 0.265 0.0
C3163 C 0.28229 0.48503 0.29645 0.0
N3164 N 0.26424 0.48679 0.34695 0.0
N3165 N 0.25038 0.50183 0.22112 0.0
C3166 C 0.2612 0.49148 0.31635 0.0
C3167 C 0.2557 0.50078 0.2525 0.0
N3168 N 0.21642 0.5105 0.3215 0.0
N3169 N 0.30316 0.48969 0.24801 0.0
H3170 H 0.23211 0.50895 0.21171 0.0
H3171 H 0.2621 0.49245 0.20414 0.0
H3172 H 0.32254 0.48455 0.25711 0.0
H3173 H 0.30424 0.49703 0.2262 0.0
H3174 H 0.21465 0.50585 0.34422 0.0
H3175 H 0.19921 0.51931 0.31189 0.0
H3176 H 0.2508 0.49299 0.36344 0.0
H3177 H 0.28062 0.47666 0.35624 0.0
C3178 C 0.27 0.42098 0.02558 0.0
C3179 C 0.29579 0.44429 0.04193 0.0
C3180 C 0.27155 0.48942 0.03887 0.0
C3181 C 0.24505 0.46657 0.02502 0.0
N3182 N 0.21737 0.4099 1.00929 0.0
N3183 N 0.31532 0.49767 0.07529 0.0
C3184 C 0.24366 0.43199 0.0197 0.0
C3185 C 0.29465 0.47757 0.05204 0.0
N3186 N 0.27077 0.38892 1.0148 0.0
N3187 N 0.27504 0.52257 0.03906 0.0
H3188 H 0.33124 0.48864 0.08719 0.0
H3189 H 0.31443 0.52173 0.08497 0.0
H3190 H 0.25879 0.53255 0.02917 0.0
H3191 H 0.29521 0.53953 0.04617 0.0
H3192 H 0.25366 0.37181 0.99987 0.0
H3193 H 0.28914 0.37979 0.01958 0.0
H3194 H 0.21429 0.38442 1.00801 0.0
H3195 H 0.19821 0.41747 1.0038 0.0
C3196 C 0.89241 0.97103 0.25811 0.0
C3197 C 0.9211 0.98342 0.2759 0.0
C3198 C 0.91141 0.92869 0.29624 0.0
C3199 C 0.88323 0.91581 0.27742 0.0
N3200 N 0.8515 0.92411 0.23405 0.0
N3201 N 0.95916 0.96856 0.30733 0.0
C3202 C 0.87513 0.93712 0.25685 0.0
C3203 C 0.93085 0.96034 0.29329 0.0
N3204 N 0.88129 0.99173 0.24178 0.0
N3205 N 0.91929 0.91161 0.31858 0.0
H3206 H 0.97328 0.99111 0.30673 0.0
H3207 H 0.96914 0.95227 0.31747 0.0
H3208 H 0.90626 0.88912 0.32143 0.0
H3209 H 0.93736 0.92099 0.33596 0.0
H3210 H 0.85944 0.98685 0.23201 0.0
H3211 H 0.89338 1.01512 0.24005 0.0
H3212 H 0.84575 0.93612 0.21604 0.0
H3213 H 0.83962 0.89954 0.23071 0.0
C3214 C 0.74568 0.19437 0.72163 0.0
C3215 C 0.75666 0.17731 0.74469 0.0
C3216 C 0.80242 0.18608 0.72384 0.0
C3217 C 0.79594 0.21232 0.71129 0.0
N3218 N 0.7587 0.23022 0.68297 0.0
N3219 N 0.80165 0.19011 0.77789 0.0
C3220 C 0.76608 0.21124 0.70369 0.0
C3221 C 0.78682 0.17871 0.74857 0.0
N3222 N 0.71751 0.19753 0.71931 0.0
N3223 N 0.82886 0.17893 0.72189 0.0
H3224 H 0.79121 0.20133 0.79518 0.0
H3225 H 0.82451 0.19651 0.78187 0.0
H3226 H 0.8426 0.18888 0.70651 0.0
H3227 H 0.83566 0.16236 0.73482 0.0
H3228 H 0.7078 0.20682 0.70126 0.0
H3229 H 0.70459 0.19381 0.73721 0.0
H3230 H 0.7375 0.23215 0.6764 0.0
H3231 H 0.77474 0.24373 0.67195 0.0
loop_
_geom_bond_atom_site_label_1
_geom_bond_atom_site_label_2
_geom_bond_distance
_geom_bond_site_symmetry_2
_ccdc_geom_bond_type
Mn0 O5 2.095 . S
Mn0 O15 2.162 . S
Mn0 O16 2.297 . S
Mn0 O24 2.385 . S
Mn0 O25 2.209 . S
Mn0 O26 2.094 . S
Mn1 O6 2.121 . S
Mn1 N8 2.257 . S
Mn1 N17 2.282 . S
Mn1 O25 2.215 . S
Mn1 O27 2.117 . S
C2 O24 1.234 . S
C2 O25 1.283 . S
C3 O15 1.281 . S
C3 O16 1.236 . S
C4 O26 1.240 . S
C4 O27 1.264 . S
O5 Mn0 2.095 . S
O5 C14 1.250 . S
O6 Mn1 2.121 . S
O6 C14 1.258 . S
C7 N8 1.326 . S
C7 C11 1.460 . S
C7 H13 0.929 . S
N8 Mn1 2.257 . S
N8 C7 1.326 . S
N8 C12 1.362 . S
C9 C10 1.258 . S
C9 C12 1.431 . S
C9 C29 1.449 . S
C10 C9 1.258 . S
C10 C11 1.477 . S
C10 H30 0.931 . S
C11 C7 1.460 . S
C11 C10 1.477 . S
C11 H31 0.930 . S
C12 N8 1.362 . S
C12 C9 1.431 . S
C12 C22 1.476 . S
H13 C7 0.929 . S
C14 O5 1.250 . S
C14 O6 1.258 . S
O15 Mn0 2.162 . S
O15 C3 1.281 . S
O16 Mn0 2.297 . S
O16 C3 1.236 . S
N17 Mn1 2.282 . S
N17 C18 1.328 . S
N17 C22 1.318 . S
C18 N17 1.328 . S
C18 C19 1.457 . S
C18 H23 0.929 . S
C19 C18 1.457 . S
C19 C20 1.291 . S
C19 H32 0.931 . S
C20 C19 1.291 . S
C20 C21 1.373 . S
C20 H33 0.929 . S
C21 C20 1.373 . S
C21 C22 1.396 . S
C21 C28 1.403 . S
C22 C12 1.476 . S
C22 N17 1.318 . S
C22 C21 1.396 . S
H23 C18 0.929 . S
O24 Mn0 2.385 . S
O24 C2 1.234 . S
O25 Mn0 2.209 . S
O25 Mn1 2.215 . S
O25 C2 1.283 . S
O26 Mn0 2.094 . S
O26 C4 1.240 . S
O27 Mn1 2.117 . S
O27 C4 1.264 . S
C28 C21 1.403 . S
C28 C29 1.399 . S
C28 H34 0.929 . S
C29 C9 1.449 . S
C29 C28 1.399 . S
C29 H35 0.930 . S
H30 C10 0.931 . S
H31 C11 0.930 . S
H32 C19 0.931 . S
H33 C20 0.929 . S
H34 C28 0.929 . S
H35 C29 0.930 . S
Mn36 O41 2.079 1_455 S
Mn36 O51 2.163 1_455 S
Mn36 O52 2.299 1_455 S
Mn36 O60 2.402 . S
Mn36 O61 2.215 . S
Mn36 O62 2.092 . S
Mn37 O42 2.121 1_455 S
Mn37 N44 2.257 . S
Mn37 N53 2.282 . S
Mn37 O61 2.215 . S
Mn37 O63 2.117 . S
C38 O60 1.234 . S
C38 O61 1.283 . S
C39 O51 1.281 . S
C39 O52 1.236 . S
C40 O62 1.240 . S
C40 O63 1.264 . S
O41 Mn36 2.079 1_655 S
O41 C50 1.250 . S
O42 Mn37 2.121 1_655 S
O42 C50 1.258 . S
C43 N44 1.326 . S
C43 C47 1.460 . S
C43 H49 0.929 1_455 S
N44 Mn37 2.257 . S
N44 C43 1.326 . S
N44 C48 1.362 . S
C45 C46 1.258 . S
C45 C48 1.431 . S
C45 C65 1.449 . S
C46 C45 1.258 . S
C46 C47 1.477 . S
C46 H66 0.931 . S
C47 C43 1.460 . S
C47 C46 1.477 . S
C47 H67 0.930 . S
C48 N44 1.362 . S
C48 C45 1.431 . S
C48 C58 1.476 . S
H49 C43 0.929 1_655 S
C50 O41 1.250 . S
C50 O42 1.258 . S
O51 Mn36 2.163 1_655 S
O51 C39 1.281 . S
O52 Mn36 2.299 1_655 S
O52 C39 1.236 . S
N53 Mn37 2.282 . S
N53 C54 1.328 . S
N53 C58 1.318 . S
C54 N53 1.328 . S
C54 C55 1.457 . S
C54 H59 0.929 . S
C55 C54 1.457 . S
C55 C56 1.291 . S
C55 H68 0.931 . S
C56 C55 1.291 . S
C56 C57 1.373 . S
C56 H69 0.929 . S
C57 C56 1.373 . S
C57 C58 1.396 . S
C57 C64 1.403 . S
C58 C48 1.476 . S
C58 N53 1.318 . S
C58 C57 1.396 . S
H59 C54 0.929 . S
O60 Mn36 2.402 . S
O60 C38 1.234 . S
O61 Mn36 2.215 . S
O61 Mn37 2.215 . S
O61 C38 1.283 . S
O62 Mn36 2.092 . S
O62 C40 1.240 . S
O63 Mn37 2.117 . S
O63 C40 1.264 . S
C64 C57 1.403 . S
C64 C65 1.399 . S
C64 H70 0.929 . S
C65 C45 1.449 . S
C65 C64 1.399 . S
C65 H71 0.930 . S
H66 C46 0.931 . S
H67 C47 0.930 . S
H68 C55 0.931 . S
H69 C56 0.929 . S
H70 C64 0.929 . S
H71 C65 0.930 . S
Mn72 O77 2.095 . S
Mn72 O87 2.162 . S
Mn72 O88 2.297 . S
Mn72 O96 2.385 . S
Mn72 O97 2.209 . S
Mn72 O98 2.094 . S
Mn73 O78 2.121 . S
Mn73 N80 2.257 . S
Mn73 N89 2.282 . S
Mn73 O97 2.215 . S
Mn73 O99 2.117 . S
C74 O96 1.234 . S
C74 O97 1.283 . S
C75 O87 1.281 . S
C75 O88 1.236 . S
C76 O98 1.240 . S
C76 O99 1.264 . S
O77 Mn72 2.095 . S
O77 C86 1.250 . S
O78 Mn73 2.121 . S
O78 C86 1.258 . S
C79 N80 1.326 . S
C79 C83 1.460 . S
C79 H85 0.929 . S
N80 Mn73 2.257 . S
N80 C79 1.326 . S
N80 C84 1.362 . S
C81 C82 1.258 . S
C81 C84 1.431 . S
C81 C101 1.449 . S
C82 C81 1.258 . S
C82 C83 1.477 . S
C82 H102 0.931 . S
C83 C79 1.460 . S
C83 C82 1.477 . S
C83 H103 0.930 . S
C84 N80 1.362 . S
C84 C81 1.431 . S
C84 C94 1.476 . S
H85 C79 0.929 . S
C86 O77 1.250 . S
C86 O78 1.258 . S
O87 Mn72 2.162 . S
O87 C75 1.281 . S
O88 Mn72 2.297 . S
O88 C75 1.236 . S
N89 Mn73 2.282 . S
N89 C90 1.328 . S
N89 C94 1.318 . S
C90 N89 1.328 . S
C90 C91 1.457 . S
C90 H95 0.929 . S
C91 C90 1.457 . S
C91 C92 1.291 . S
C91 H104 0.931 . S
C92 C91 1.291 . S
C92 C93 1.373 . S
C92 H105 0.929 . S
C93 C92 1.373 . S
C93 C94 1.396 . S
C93 C100 1.403 . S
C94 C84 1.476 . S
C94 N89 1.318 . S
C94 C93 1.396 . S
H95 C90 0.929 . S
O96 Mn72 2.385 . S
O96 C74 1.234 . S
O97 Mn72 2.209 . S
O97 Mn73 2.215 . S
O97 C74 1.283 . S
O98 Mn72 2.094 . S
O98 C76 1.240 . S
O99 Mn73 2.117 . S
O99 C76 1.264 . S
C100 C93 1.403 . S
C100 C101 1.399 . S
C100 H106 0.929 . S
C101 C81 1.449 . S
C101 C100 1.399 . S
C101 H107 0.930 . S
H102 C82 0.931 . S
H103 C83 0.930 . S
H104 C91 0.931 . S
H105 C92 0.929 . S
H106 C100 0.929 . S
H107 C101 0.930 . S
Mn108 O113 2.095 . S
Mn108 O123 2.162 . S
Mn108 O124 2.297 . S
Mn108 O132 2.385 . S
Mn108 O133 2.209 . S
Mn108 O134 2.094 . S
Mn109 O114 2.121 . S
Mn109 N116 2.257 . S
Mn109 N125 2.282 . S
Mn109 O133 2.215 . S
Mn109 O135 2.117 . S
C110 O132 1.234 . S
C110 O133 1.283 . S
C111 O123 1.281 . S
C111 O124 1.236 . S
C112 O134 1.240 . S
C112 O135 1.264 . S
O113 Mn108 2.095 . S
O113 C122 1.250 . S
O114 Mn109 2.121 . S
O114 C122 1.258 . S
C115 N116 1.326 . S
C115 C119 1.460 1_554 S
C115 H121 0.929 . S
N116 Mn109 2.257 . S
N116 C115 1.326 . S
N116 C120 1.362 . S
C117 C118 1.258 1_554 S
C117 C120 1.431 . S
C117 C137 1.449 1_554 S
C118 C117 1.258 1_556 S
C118 C119 1.477 . S
C118 H138 0.931 . S
C119 C115 1.460 1_556 S
C119 C118 1.477 . S
C119 H139 0.930 . S
C120 N116 1.362 . S
C120 C117 1.431 . S
C120 C130 1.476 . S
H121 C115 0.929 . S
C122 O113 1.250 . S
C122 O114 1.258 . S
O123 Mn108 2.162 . S
O123 C111 1.281 . S
O124 Mn108 2.297 . S
O124 C111 1.236 . S
N125 Mn109 2.282 . S
N125 C126 1.328 . S
N125 C130 1.318 . S
C126 N125 1.328 . S
C126 C127 1.457 . S
C126 H131 0.929 . S
C127 C126 1.457 . S
C127 C128 1.291 . S
C127 H140 0.931 . S
C128 C127 1.291 . S
C128 C129 1.373 . S
C128 H141 0.929 . S
C129 C128 1.373 . S
C129 C130 1.396 . S
C129 C136 1.403 . S
C130 C120 1.476 . S
C130 N125 1.318 . S
C130 C129 1.396 . S
H131 C126 0.929 . S
O132 Mn108 2.385 . S
O132 C110 1.234 . S
O133 Mn108 2.209 . S
O133 Mn109 2.215 . S
O133 C110 1.283 . S
O134 Mn108 2.094 . S
O134 C112 1.240 . S
O135 Mn109 2.117 . S
O135 C112 1.264 . S
C136 C129 1.403 . S
C136 C137 1.399 1_554 S
C136 H142 0.929 . S
C137 C117 1.449 1_556 S
C137 C136 1.399 1_556 S
C137 H143 0.930 . S
H138 C118 0.931 . S
H139 C119 0.930 . S
H140 C127 0.931 . S
H141 C128 0.929 . S
H142 C136 0.929 . S
H143 C137 0.930 . S
Mn144 O149 2.095 . S
Mn144 O159 2.162 . S
Mn144 O160 2.297 . S
Mn144 O168 2.385 . S
Mn144 O169 2.209 . S
Mn144 O170 2.094 . S
Mn145 O150 2.121 . S
Mn145 N152 2.257 . S
Mn145 N161 2.282 . S
Mn145 O169 2.215 . S
Mn145 O171 2.117 . S
C146 O168 1.234 . S
C146 O169 1.283 . S
C147 O159 1.281 . S
C147 O160 1.236 . S
C148 O170 1.240 . S
C148 O171 1.264 . S
O149 Mn144 2.095 . S
O149 C158 1.250 . S
O150 Mn145 2.121 . S
O150 C158 1.258 . S
C151 N152 1.326 1_556 S
C151 C155 1.460 . S
C151 H157 0.929 . S
N152 Mn145 2.257 . S
N152 C151 1.326 1_554 S
N152 C156 1.362 1_554 S
C153 C154 1.258 . S
C153 C156 1.431 . S
C153 C173 1.449 . S
C154 C153 1.258 . S
C154 C155 1.477 . S
C154 H174 0.931 . S
C155 C151 1.460 . S
C155 C154 1.477 . S
C155 H175 0.930 . S
C156 N152 1.362 1_556 S
C156 C153 1.431 . S
C156 C166 1.476 1_556 S
H157 C151 0.929 . S
C158 O149 1.250 . S
C158 O150 1.258 . S
O159 Mn144 2.162 . S
O159 C147 1.281 . S
O160 Mn144 2.297 . S
O160 C147 1.236 . S
N161 Mn145 2.282 . S
N161 C162 1.328 . S
N161 C166 1.318 . S
C162 N161 1.328 . S
C162 C163 1.457 . S
C162 H167 0.929 . S
C163 C162 1.457 . S
C163 C164 1.293 1_455 S
C163 H176 0.931 1_455 S
C164 C163 1.293 1_655 S
C164 C165 1.368 1_655 S
C164 H177 0.933 . S
C165 C164 1.368 1_455 S
C165 C166 1.396 . S
C165 C172 1.403 1_554 S
C166 C156 1.476 1_554 S
C166 N161 1.318 . S
C166 C165 1.396 . S
H167 C162 0.929 . S
O168 Mn144 2.385 . S
O168 C146 1.234 . S
O169 Mn144 2.209 . S
O169 Mn145 2.215 . S
O169 C146 1.283 . S
O170 Mn144 2.094 . S
O170 C148 1.240 . S
O171 Mn145 2.117 . S
O171 C148 1.264 . S
C172 C165 1.403 1_556 S
C172 C173 1.399 . S
C172 H178 0.929 1_455 S
C173 C153 1.449 . S
C173 C172 1.399 . S
C173 H179 0.930 . S
H174 C154 0.931 . S
H175 C155 0.930 . S
H176 C163 0.931 1_655 S
H177 C164 0.933 . S
H178 C172 0.929 1_655 S
H179 C173 0.930 . S
Mn180 O185 2.095 . S
Mn180 O195 2.162 . S
Mn180 O196 2.297 . S
Mn180 O204 2.385 . S
Mn180 O205 2.209 . S
Mn180 O206 2.094 . S
Mn181 O186 2.121 . S
Mn181 N188 2.257 . S
Mn181 N197 2.282 . S
Mn181 O205 2.215 . S
Mn181 O207 2.117 . S
C182 O204 1.234 . S
C182 O205 1.283 . S
C183 O195 1.281 . S
C183 O196 1.236 . S
C184 O206 1.240 . S
C184 O207 1.264 . S
O185 Mn180 2.095 . S
O185 C194 1.250 . S
O186 Mn181 2.121 . S
O186 C194 1.258 . S
C187 N188 1.326 . S
C187 C191 1.460 . S
C187 H193 0.929 . S
N188 Mn181 2.257 . S
N188 C187 1.326 . S
N188 C192 1.362 . S
C189 C190 1.258 . S
C189 C192 1.431 . S
C189 C209 1.449 . S
C190 C189 1.258 . S
C190 C191 1.477 . S
C190 H210 0.931 . S
C191 C187 1.460 . S
C191 C190 1.477 . S
C191 H211 0.930 . S
C192 N188 1.362 . S
C192 C189 1.431 . S
C192 C202 1.476 . S
H193 C187 0.929 . S
C194 O185 1.250 . S
C194 O186 1.258 . S
O195 Mn180 2.162 . S
O195 C183 1.281 . S
O196 Mn180 2.297 . S
O196 C183 1.236 . S
N197 Mn181 2.282 . S
N197 C198 1.328 . S
N197 C202 1.318 . S
C198 N197 1.328 . S
C198 C199 1.457 . S
C198 H203 0.929 . S
C199 C198 1.457 . S
C199 C200 1.291 . S
C199 H212 0.931 . S
C200 C199 1.291 . S
C200 C201 1.373 . S
C200 H213 0.929 . S
C201 C200 1.373 . S
C201 C202 1.396 . S
C201 C208 1.403 . S
C202 C192 1.476 . S
C202 N197 1.318 . S
C202 C201 1.396 . S
H203 C198 0.929 . S
O204 Mn180 2.385 . S
O204 C182 1.234 . S
O205 Mn180 2.209 . S
O205 Mn181 2.215 . S
O205 C182 1.283 . S
O206 Mn180 2.094 . S
O206 C184 1.240 . S
O207 Mn181 2.117 . S
O207 C184 1.264 . S
C208 C201 1.403 . S
C208 C209 1.399 . S
C208 H214 0.929 . S
C209 C189 1.449 . S
C209 C208 1.399 . S
C209 H215 0.930 . S
H210 C190 0.931 . S
H211 C191 0.930 . S
H212 C199 0.931 . S
H213 C200 0.929 . S
H214 C208 0.929 . S
H215 C209 0.930 . S
Mn216 O221 2.095 . S
Mn216 O231 2.162 . S
Mn216 O232 2.297 . S
Mn216 O240 2.385 . S
Mn216 O241 2.209 . S
Mn216 O242 2.094 . S
Mn217 O222 2.121 . S
Mn217 N224 2.257 . S
Mn217 N233 2.282 . S
Mn217 O241 2.215 . S
Mn217 O243 2.117 . S
C218 O240 1.234 . S
C218 O241 1.283 . S
C219 O231 1.281 . S
C219 O232 1.236 . S
C220 O242 1.240 . S
C220 O243 1.264 . S
O221 Mn216 2.095 . S
O221 C230 1.250 . S
O222 Mn217 2.121 . S
O222 C230 1.258 . S
C223 N224 1.326 . S
C223 C227 1.460 . S
C223 H229 0.929 . S
N224 Mn217 2.257 . S
N224 C223 1.326 . S
N224 C228 1.362 . S
C225 C226 1.258 . S
C225 C228 1.431 . S
C225 C245 1.449 . S
C226 C225 1.258 . S
C226 C227 1.477 . S
C226 H246 0.931 . S
C227 C223 1.460 . S
C227 C226 1.477 . S
C227 H247 0.930 . S
C228 N224 1.362 . S
C228 C225 1.431 . S
C228 C238 1.476 . S
H229 C223 0.929 . S
C230 O221 1.250 . S
C230 O222 1.258 . S
O231 Mn216 2.162 . S
O231 C219 1.281 . S
O232 Mn216 2.297 . S
O232 C219 1.236 . S
N233 Mn217 2.282 . S
N233 C234 1.328 . S
N233 C238 1.318 . S
C234 N233 1.328 . S
C234 C235 1.457 . S
C234 H239 0.929 . S
C235 C234 1.457 . S
C235 C236 1.291 . S
C235 H248 0.931 . S
C236 C235 1.291 . S
C236 C237 1.373 . S
C236 H249 0.929 . S
C237 C236 1.373 . S
C237 C238 1.396 . S
C237 C244 1.403 . S
C238 C228 1.476 . S
C238 N233 1.318 . S
C238 C237 1.396 . S
H239 C234 0.929 . S
O240 Mn216 2.385 . S
O240 C218 1.234 . S
O241 Mn216 2.209 . S
O241 Mn217 2.215 . S
O241 C218 1.283 . S
O242 Mn216 2.094 . S
O242 C220 1.240 . S
O243 Mn217 2.117 . S
O243 C220 1.264 . S
C244 C237 1.403 . S
C244 C245 1.399 . S
C244 H250 0.929 . S
C245 C225 1.449 . S
C245 C244 1.399 . S
C245 H251 0.930 . S
H246 C226 0.931 . S
H247 C227 0.930 . S
H248 C235 0.931 . S
H249 C236 0.929 . S
H250 C244 0.929 . S
H251 C245 0.930 . S
Mn252 O257 2.095 . S
Mn252 O267 2.162 . S
Mn252 O268 2.297 . S
Mn252 O276 2.385 1_455 S
Mn252 O277 2.209 . S
Mn252 O278 2.094 . S
Mn253 O258 2.121 . S
Mn253 N260 2.257 . S
Mn253 N269 2.282 1_455 S
Mn253 O277 2.215 . S
Mn253 O279 2.117 . S
C254 O276 1.234 . S
C254 O277 1.283 1_655 S
C255 O267 1.281 . S
C255 O268 1.236 . S
C256 O278 1.240 . S
C256 O279 1.264 . S
O257 Mn252 2.095 . S
O257 C266 1.250 . S
O258 Mn253 2.121 . S
O258 C266 1.258 . S
C259 N260 1.326 . S
C259 C263 1.460 . S
C259 H265 0.929 . S
N260 Mn253 2.257 . S
N260 C259 1.326 . S
N260 C264 1.362 1_455 S
C261 C262 1.258 . S
C261 C264 1.431 . S
C261 C281 1.449 . S
C262 C261 1.258 . S
C262 C263 1.477 1_655 S
C262 H282 0.931 . S
C263 C259 1.460 . S
C263 C262 1.477 1_455 S
C263 H283 0.930 . S
C264 N260 1.362 1_655 S
C264 C261 1.431 . S
C264 C274 1.476 . S
H265 C259 0.929 . S
C266 O257 1.250 . S
C266 O258 1.258 . S
O267 Mn252 2.162 . S
O267 C255 1.281 . S
O268 Mn252 2.297 . S
O268 C255 1.236 . S
N269 Mn253 2.282 1_655 S
N269 C270 1.328 . S
N269 C274 1.318 . S
C270 N269 1.328 . S
C270 C271 1.457 . S
C270 H275 0.929 . S
C271 C270 1.457 . S
C271 C272 1.291 . S
C271 H284 0.931 . S
C272 C271 1.291 . S
C272 C273 1.373 . S
C272 H285 0.929 . S
C273 C272 1.373 . S
C273 C274 1.396 . S
C273 C280 1.403 . S
C274 C264 1.476 . S
C274 N269 1.318 . S
C274 C273 1.396 . S
H275 C270 0.929 . S
O276 Mn252 2.385 1_655 S
O276 C254 1.234 . S
O277 Mn252 2.209 . S
O277 Mn253 2.215 . S
O277 C254 1.283 1_455 S
O278 Mn252 2.094 . S
O278 C256 1.240 . S
O279 Mn253 2.117 . S
O279 C256 1.264 . S
C280 C273 1.403 . S
C280 C281 1.399 . S
C280 H286 0.929 . S
C281 C261 1.449 . S
C281 C280 1.399 . S
C281 H287 0.930 . S
H282 C262 0.931 . S
H283 C263 0.930 . S
H284 C271 0.931 . S
H285 C272 0.929 . S
H286 C280 0.929 . S
H287 C281 0.930 . S
Mn288 O293 2.119 . S
Mn288 O303 2.164 . S
Mn288 O304 2.300 1_545 S
Mn288 O312 2.360 1_545 S
Mn288 O313 2.198 1_545 S
Mn288 O314 2.091 . S
Mn289 O294 2.121 1_565 S
Mn289 N296 2.257 . S
Mn289 N305 2.282 . S
Mn289 O313 2.215 . S
Mn289 O315 2.117 1_565 S
C290 O312 1.234 . S
C290 O313 1.283 . S
C291 O303 1.282 1_565 S
C291 O304 1.235 . S
C292 O314 1.240 . S
C292 O315 1.264 . S
O293 Mn288 2.119 . S
O293 C302 1.250 . S
O294 Mn289 2.121 1_545 S
O294 C302 1.258 . S
C295 N296 1.326 . S
C295 C299 1.460 . S
C295 H301 0.929 . S
N296 Mn289 2.257 . S
N296 C295 1.326 . S
N296 C300 1.362 . S
C297 C298 1.258 . S
C297 C300 1.431 . S
C297 C317 1.449 . S
C298 C297 1.258 . S
C298 C299 1.477 . S
C298 H318 0.931 . S
C299 C295 1.460 . S
C299 C298 1.477 . S
C299 H319 0.930 . S
C300 N296 1.362 . S
C300 C297 1.431 . S
C300 C310 1.476 . S
H301 C295 0.929 . S
C302 O293 1.250 . S
C302 O294 1.258 . S
O303 Mn288 2.164 . S
O303 C291 1.282 1_545 S
O304 Mn288 2.300 1_565 S
O304 C291 1.235 . S
N305 Mn289 2.282 . S
N305 C306 1.328 . S
N305 C310 1.318 . S
C306 N305 1.328 . S
C306 C307 1.457 . S
C306 H311 0.929 . S
C307 C306 1.457 . S
C307 C308 1.291 . S
C307 H320 0.931 . S
C308 C307 1.291 . S
C308 C309 1.373 . S
C308 H321 0.929 . S
C309 C308 1.373 . S
C309 C310 1.396 . S
C309 C316 1.403 . S
C310 C300 1.476 . S
C310 N305 1.318 . S
C310 C309 1.396 . S
H311 C306 0.929 . S
O312 Mn288 2.360 1_565 S
O312 C290 1.234 . S
O313 Mn288 2.198 1_565 S
O313 Mn289 2.215 . S
O313 C290 1.283 . S
O314 Mn288 2.091 . S
O314 C292 1.240 . S
O315 Mn289 2.117 1_545 S
O315 C292 1.264 . S
C316 C309 1.403 . S
C316 C317 1.399 . S
C316 H322 0.929 . S
C317 C297 1.449 . S
C317 C316 1.399 . S
C317 H323 0.930 . S
H318 C298 0.931 . S
H319 C299 0.930 . S
H320 C307 0.931 . S
H321 C308 0.929 . S
H322 C316 0.929 . S
H323 C317 0.930 . S
Mn324 O329 2.095 . S
Mn324 O339 2.162 . S
Mn324 O340 2.297 . S
Mn324 O348 2.385 . S
Mn324 O349 2.209 . S
Mn324 O350 2.094 . S
Mn325 O330 2.121 . S
Mn325 N332 2.257 . S
Mn325 N341 2.282 . S
Mn325 O349 2.215 . S
Mn325 O351 2.117 . S
C326 O348 1.234 . S
C326 O349 1.283 . S
C327 O339 1.281 . S
C327 O340 1.236 . S
C328 O350 1.240 . S
C328 O351 1.264 . S
O329 Mn324 2.095 . S
O329 C338 1.250 . S
O330 Mn325 2.121 . S
O330 C338 1.258 . S
C331 N332 1.326 . S
C331 C335 1.460 . S
C331 H337 0.929 . S
N332 Mn325 2.257 . S
N332 C331 1.326 . S
N332 C336 1.362 . S
C333 C334 1.258 . S
C333 C336 1.431 . S
C333 C353 1.449 . S
C334 C333 1.258 . S
C334 C335 1.477 . S
C334 H354 0.931 . S
C335 C331 1.460 . S
C335 C334 1.477 . S
C335 H355 0.930 . S
C336 N332 1.362 . S
C336 C333 1.431 . S
C336 C346 1.476 . S
H337 C331 0.929 . S
C338 O329 1.250 . S
C338 O330 1.258 . S
O339 Mn324 2.162 . S
O339 C327 1.281 . S
O340 Mn324 2.297 . S
O340 C327 1.236 . S
N341 Mn325 2.282 . S
N341 C342 1.328 . S
N341 C346 1.318 . S
C342 N341 1.328 . S
C342 C343 1.457 . S
C342 H347 0.929 . S
C343 C342 1.457 . S
C343 C344 1.291 . S
C343 H356 0.931 . S
C344 C343 1.291 . S
C344 C345 1.373 . S
C344 H357 0.929 . S
C345 C344 1.373 . S
C345 C346 1.396 . S
C345 C352 1.403 . S
C346 C336 1.476 . S
C346 N341 1.318 . S
C346 C345 1.396 . S
H347 C342 0.929 . S
O348 Mn324 2.385 . S
O348 C326 1.234 . S
O349 Mn324 2.209 . S
O349 Mn325 2.215 . S
O349 C326 1.283 . S
O350 Mn324 2.094 . S
O350 C328 1.240 . S
O351 Mn325 2.117 . S
O351 C328 1.264 . S
C352 C345 1.403 . S
C352 C353 1.399 . S
C352 H358 0.929 . S
C353 C333 1.449 . S
C353 C352 1.399 . S
C353 H359 0.930 . S
H354 C334 0.931 . S
H355 C335 0.930 . S
H356 C343 0.931 . S
H357 C344 0.929 . S
H358 C352 0.929 . S
H359 C353 0.930 . S
Mn360 O365 2.095 1_545 S
Mn360 O375 2.162 . S
Mn360 O376 2.297 . S
Mn360 O384 2.385 . S
Mn360 O385 2.209 . S
Mn360 O386 2.094 . S
Mn361 O366 2.121 1_545 S
Mn361 N368 2.257 . S
Mn361 N377 2.282 . S
Mn361 O385 2.215 . S
Mn361 O387 2.117 . S
C362 O384 1.234 . S
C362 O385 1.283 . S
C363 O375 1.281 . S
C363 O376 1.236 . S
C364 O386 1.240 . S
C364 O387 1.264 . S
O365 Mn360 2.095 1_565 S
O365 C374 1.250 . S
O366 Mn361 2.121 1_565 S
O366 C374 1.258 . S
C367 N368 1.326 . S
C367 C371 1.460 . S
C367 H373 0.929 . S
N368 Mn361 2.257 . S
N368 C367 1.326 . S
N368 C372 1.362 . S
C369 C370 1.258 . S
C369 C372 1.431 . S
C369 C389 1.449 . S
C370 C369 1.258 . S
C370 C371 1.477 . S
C370 H390 0.931 . S
C371 C367 1.460 . S
C371 C370 1.477 . S
C371 H391 0.930 . S
C372 N368 1.362 . S
C372 C369 1.431 . S
C372 C382 1.476 . S
H373 C367 0.929 . S
C374 O365 1.250 . S
C374 O366 1.258 . S
O375 Mn360 2.162 . S
O375 C363 1.281 . S
O376 Mn360 2.297 . S
O376 C363 1.236 . S
N377 Mn361 2.282 . S
N377 C378 1.328 . S
N377 C382 1.318 . S
C378 N377 1.328 . S
C378 C379 1.457 . S
C378 H383 0.929 . S
C379 C378 1.457 . S
C379 C380 1.291 . S
C379 H392 0.931 . S
C380 C379 1.291 . S
C380 C381 1.373 . S
C380 H393 0.929 . S
C381 C380 1.373 . S
C381 C382 1.396 . S
C381 C388 1.403 . S
C382 C372 1.476 . S
C382 N377 1.318 . S
C382 C381 1.396 . S
H383 C378 0.929 . S
O384 Mn360 2.385 . S
O384 C362 1.234 . S
O385 Mn360 2.209 . S
O385 Mn361 2.215 . S
O385 C362 1.283 . S
O386 Mn360 2.094 . S
O386 C364 1.240 . S
O387 Mn361 2.117 . S
O387 C364 1.264 . S
C388 C381 1.403 . S
C388 C389 1.399 . S
C388 H394 0.929 . S
C389 C369 1.449 . S
C389 C388 1.399 . S
C389 H395 0.930 . S
H390 C370 0.931 . S
H391 C371 0.930 . S
H392 C379 0.931 . S
H393 C380 0.929 . S
H394 C388 0.929 . S
H395 C389 0.930 . S
Mn396 O401 2.095 1_554 S
Mn396 O411 2.162 . S
Mn396 O412 2.297 . S
Mn396 O420 2.385 . S
Mn396 O421 2.209 . S
Mn396 O422 2.094 1_554 S
Mn397 O402 2.121 . S
Mn397 N404 2.257 1_565 S
Mn397 N413 2.282 1_565 S
Mn397 O421 2.215 1_556 S
Mn397 O423 2.117 . S
C398 O420 1.234 . S
C398 O421 1.283 . S
C399 O411 1.281 . S
C399 O412 1.236 . S
C400 O422 1.240 . S
C400 O423 1.264 . S
O401 Mn396 2.095 1_556 S
O401 C410 1.250 . S
O402 Mn397 2.121 . S
O402 C410 1.258 . S
C403 N404 1.326 . S
C403 C407 1.459 . S
C403 H409 0.942 . S
N404 Mn397 2.257 1_545 S
N404 C403 1.326 . S
N404 C408 1.362 . S
C405 C406 1.258 . S
C405 C408 1.431 . S
C405 C425 1.449 . S
C406 C405 1.258 . S
C406 C407 1.483 . S
C406 H426 0.931 . S
C407 C403 1.459 . S
C407 C406 1.483 . S
C407 H427 0.925 1_556 S
C408 N404 1.362 . S
C408 C405 1.431 . S
C408 C418 1.476 . S
H409 C403 0.942 . S
C410 O401 1.250 . S
C410 O402 1.258 . S
O411 Mn396 2.162 . S
O411 C399 1.281 . S
O412 Mn396 2.297 . S
O412 C399 1.236 . S
N413 Mn397 2.282 1_545 S
N413 C414 1.328 1_545 S
N413 C418 1.318 . S
C414 N413 1.328 1_565 S
C414 C415 1.457 . S
C414 H419 0.929 . S
C415 C414 1.457 . S
C415 C416 1.291 1_565 S
C415 H428 0.931 . S
C416 C415 1.291 1_545 S
C416 C417 1.373 . S
C416 H429 0.929 . S
C417 C416 1.373 . S
C417 C418 1.396 . S
C417 C424 1.403 . S
C418 C408 1.476 . S
C418 N413 1.318 . S
C418 C417 1.396 . S
H419 C414 0.929 . S
O420 Mn396 2.385 . S
O420 C398 1.234 . S
O421 Mn396 2.209 . S
O421 Mn397 2.215 1_554 S
O421 C398 1.283 . S
O422 Mn396 2.094 1_556 S
O422 C400 1.240 . S
O423 Mn397 2.117 . S
O423 C400 1.264 . S
C424 C417 1.403 . S
C424 C425 1.399 . S
C424 H430 0.929 . S
C425 C405 1.449 . S
C425 C424 1.399 . S
C425 H431 0.930 . S
H426 C406 0.931 . S
H427 C407 0.925 1_554 S
H428 C415 0.931 . S
H429 C416 0.929 . S
H430 C424 0.929 . S
H431 C425 0.930 . S
Mn432 O437 2.095 . S
Mn432 O447 2.162 . S
Mn432 O448 2.297 . S
Mn432 O456 2.385 . S
Mn432 O457 2.209 . S
Mn432 O458 2.094 1_554 S
Mn433 O438 2.121 1_556 S
Mn433 N440 2.257 1_556 S
Mn433 N449 2.282 . S
Mn433 O457 2.215 1_556 S
Mn433 O459 2.117 . S
C434 O456 1.234 . S
C434 O457 1.283 . S
C435 O447 1.281 . S
C435 O448 1.236 . S
C436 O458 1.240 . S
C436 O459 1.264 . S
O437 Mn432 2.095 . S
O437 C446 1.250 . S
O438 Mn433 2.121 1_554 S
O438 C446 1.258 . S
C439 N440 1.326 . S
C439 C443 1.460 . S
C439 H445 0.929 . S
N440 Mn433 2.257 1_554 S
N440 C439 1.326 . S
N440 C444 1.362 1_554 S
C441 C442 1.271 . S
C441 C444 1.432 1_554 S
C441 C461 1.434 1_554 S
C442 C441 1.271 . S
C442 C443 1.477 . S
C442 H462 0.931 . S
C443 C439 1.460 . S
C443 C442 1.477 . S
C443 H463 0.930 . S
C444 N440 1.362 1_556 S
C444 C441 1.432 1_556 S
C444 C454 1.476 . S
H445 C439 0.929 . S
C446 O437 1.250 . S
C446 O438 1.258 . S
O447 Mn432 2.162 . S
O447 C435 1.281 . S
O448 Mn432 2.297 . S
O448 C435 1.236 . S
N449 Mn433 2.282 . S
N449 C450 1.328 . S
N449 C454 1.318 . S
C450 N449 1.328 . S
C450 C451 1.457 . S
C450 H455 0.929 . S
C451 C450 1.457 . S
C451 C452 1.291 . S
C451 H464 0.931 . S
C452 C451 1.291 . S
C452 C453 1.373 . S
C452 H465 0.929 . S
C453 C452 1.373 . S
C453 C454 1.396 . S
C453 C460 1.403 . S
C454 C444 1.476 . S
C454 N449 1.318 . S
C454 C453 1.396 . S
H455 C450 0.929 . S
O456 Mn432 2.385 . S
O456 C434 1.234 . S
O457 Mn432 2.209 . S
O457 Mn433 2.215 1_554 S
O457 C434 1.283 . S
O458 Mn432 2.094 1_556 S
O458 C436 1.240 . S
O459 Mn433 2.117 . S
O459 C436 1.264 . S
C460 C453 1.403 . S
C460 C461 1.399 . S
C460 H466 0.929 . S
C461 C441 1.434 1_556 S
C461 C460 1.399 . S
C461 H467 0.930 . S
H462 C442 0.931 . S
H463 C443 0.930 . S
H464 C451 0.931 . S
H465 C452 0.929 . S
H466 C460 0.929 . S
H467 C461 0.930 . S
Mn468 O473 2.095 . S
Mn468 O483 2.162 . S
Mn468 O484 2.297 . S
Mn468 O492 2.385 . S
Mn468 O493 2.209 . S
Mn468 O494 2.094 . S
Mn469 O474 2.121 1_556 S
Mn469 N476 2.257 . S
Mn469 N485 2.282 . S
Mn469 O493 2.215 1_556 S
Mn469 O495 2.117 . S
C470 O492 1.234 . S
C470 O493 1.283 . S
C471 O483 1.281 . S
C471 O484 1.236 . S
C472 O494 1.240 1_556 S
C472 O495 1.264 . S
O473 Mn468 2.095 . S
O473 C482 1.250 . S
O474 Mn469 2.121 1_554 S
O474 C482 1.258 . S
C475 N476 1.326 . S
C475 C479 1.460 1_545 S
C475 H481 0.929 1_556 S
N476 Mn469 2.257 . S
N476 C475 1.326 . S
N476 C480 1.362 . S
C477 C478 1.258 . S
C477 C480 1.431 1_565 S
C477 C497 1.449 . S
C478 C477 1.258 . S
C478 C479 1.477 . S
C478 H498 0.931 . S
C479 C475 1.460 1_565 S
C479 C478 1.477 . S
C479 H499 0.930 . S
C480 N476 1.362 . S
C480 C477 1.431 1_545 S
C480 C490 1.476 . S
H481 C475 0.929 1_554 S
C482 O473 1.250 . S
C482 O474 1.258 . S
O483 Mn468 2.162 . S
O483 C471 1.281 . S
O484 Mn468 2.297 . S
O484 C471 1.236 . S
N485 Mn469 2.282 . S
N485 C486 1.328 . S
N485 C490 1.318 . S
C486 N485 1.328 . S
C486 C487 1.457 . S
C486 H491 0.929 . S
C487 C486 1.457 . S
C487 C488 1.291 . S
C487 H500 0.931 . S
C488 C487 1.291 . S
C488 C489 1.373 . S
C488 H501 0.929 . S
C489 C488 1.373 . S
C489 C490 1.396 . S
C489 C496 1.403 . S
C490 C480 1.476 . S
C490 N485 1.318 . S
C490 C489 1.396 . S
H491 C486 0.929 . S
O492 Mn468 2.385 . S
O492 C470 1.234 . S
O493 Mn468 2.209 . S
O493 Mn469 2.215 1_554 S
O493 C470 1.283 . S
O494 Mn468 2.094 . S
O494 C472 1.240 1_554 S
O495 Mn469 2.117 . S
O495 C472 1.264 . S
C496 C489 1.403 . S
C496 C497 1.399 1_545 S
C496 H502 0.929 1_545 S
C497 C477 1.449 . S
C497 C496 1.399 1_565 S
C497 H503 0.930 . S
H498 C478 0.931 . S
H499 C479 0.930 . S
H500 C487 0.931 . S
H501 C488 0.929 . S
H502 C496 0.929 1_565 S
H503 C497 0.930 . S
Mn504 O509 2.095 . S
Mn504 O519 2.162 . S
Mn504 O520 2.297 . S
Mn504 O528 2.385 . S
Mn504 O529 2.209 . S
Mn504 O530 2.094 . S
Mn505 O510 2.121 . S
Mn505 N512 2.257 . S
Mn505 N521 2.282 . S
Mn505 O529 2.215 . S
Mn505 O531 2.117 . S
C506 O528 1.234 . S
C506 O529 1.283 . S
C507 O519 1.281 . S
C507 O520 1.236 . S
C508 O530 1.240 . S
C508 O531 1.264 . S
O509 Mn504 2.095 . S
O509 C518 1.250 . S
O510 Mn505 2.121 . S
O510 C518 1.258 . S
C511 N512 1.326 . S
C511 C515 1.460 . S
C511 H517 0.929 . S
N512 Mn505 2.257 . S
N512 C511 1.326 . S
N512 C516 1.362 . S
C513 C514 1.258 . S
C513 C516 1.431 . S
C513 C533 1.449 . S
C514 C513 1.258 . S
C514 C515 1.477 . S
C514 H534 0.931 . S
C515 C511 1.460 . S
C515 C514 1.477 . S
C515 H535 0.930 . S
C516 N512 1.362 . S
C516 C513 1.431 . S
C516 C526 1.476 . S
H517 C511 0.929 . S
C518 O509 1.250 . S
C518 O510 1.258 . S
O519 Mn504 2.162 . S
O519 C507 1.281 . S
O520 Mn504 2.297 . S
O520 C507 1.236 . S
N521 Mn505 2.282 . S
N521 C522 1.328 . S
N521 C526 1.318 . S
C522 N521 1.328 . S
C522 C523 1.457 . S
C522 H527 0.929 . S
C523 C522 1.457 . S
C523 C524 1.291 . S
C523 H536 0.931 . S
C524 C523 1.291 . S
C524 C525 1.373 . S
C524 H537 0.929 . S
C525 C524 1.373 . S
C525 C526 1.396 . S
C525 C532 1.403 . S
C526 C516 1.476 . S
C526 N521 1.318 . S
C526 C525 1.396 . S
H527 C522 0.929 . S
O528 Mn504 2.385 . S
O528 C506 1.234 . S
O529 Mn504 2.209 . S
O529 Mn505 2.215 . S
O529 C506 1.283 . S
O530 Mn504 2.094 . S
O530 C508 1.240 . S
O531 Mn505 2.117 . S
O531 C508 1.264 . S
C532 C525 1.403 . S
C532 C533 1.399 . S
C532 H538 0.929 . S
C533 C513 1.449 . S
C533 C532 1.399 . S
C533 H539 0.930 . S
H534 C514 0.931 . S
H535 C515 0.930 . S
H536 C523 0.931 . S
H537 C524 0.929 . S
H538 C532 0.929 . S
H539 C533 0.930 . S
Mn540 O545 2.095 . S
Mn540 O555 2.162 . S
Mn540 O556 2.297 . S
Mn540 O564 2.385 . S
Mn540 O565 2.209 . S
Mn540 O566 2.094 . S
Mn541 O546 2.121 . S
Mn541 N548 2.257 . S
Mn541 N557 2.282 . S
Mn541 O565 2.215 . S
Mn541 O567 2.117 . S
C542 O564 1.234 . S
C542 O565 1.283 . S
C543 O555 1.281 . S
C543 O556 1.236 . S
C544 O566 1.240 . S
C544 O567 1.264 . S
O545 Mn540 2.095 . S
O545 C554 1.250 . S
O546 Mn541 2.121 . S
O546 C554 1.258 . S
C547 N548 1.326 1_545 S
C547 C551 1.460 . S
C547 H553 0.931 . S
N548 Mn541 2.257 . S
N548 C547 1.326 1_565 S
N548 C552 1.362 . S
C549 C550 1.258 . S
C549 C552 1.431 1_545 S
C549 C569 1.449 . S
C550 C549 1.258 . S
C550 C551 1.477 . S
C550 H570 0.931 . S
C551 C547 1.460 . S
C551 C550 1.477 . S
C551 H571 0.930 . S
C552 N548 1.362 . S
C552 C549 1.431 1_565 S
C552 C562 1.476 . S
H553 C547 0.931 . S
C554 O545 1.250 . S
C554 O546 1.258 . S
O555 Mn540 2.162 . S
O555 C543 1.281 . S
O556 Mn540 2.297 . S
O556 C543 1.236 . S
N557 Mn541 2.282 . S
N557 C558 1.328 . S
N557 C562 1.318 . S
C558 N557 1.328 . S
C558 C559 1.457 . S
C558 H563 0.929 . S
C559 C558 1.457 . S
C559 C560 1.291 . S
C559 H572 0.931 . S
C560 C559 1.291 . S
C560 C561 1.373 . S
C560 H573 0.929 . S
C561 C560 1.373 . S
C561 C562 1.396 . S
C561 C568 1.403 1_565 S
C562 C552 1.476 . S
C562 N557 1.318 . S
C562 C561 1.396 . S
H563 C558 0.929 . S
O564 Mn540 2.385 . S
O564 C542 1.234 . S
O565 Mn540 2.209 . S
O565 Mn541 2.215 . S
O565 C542 1.283 . S
O566 Mn540 2.094 . S
O566 C544 1.240 . S
O567 Mn541 2.117 . S
O567 C544 1.264 . S
C568 C561 1.403 1_545 S
C568 C569 1.399 . S
C568 H574 0.929 . S
C569 C549 1.449 . S
C569 C568 1.399 . S
C569 H575 0.930 . S
H570 C550 0.931 . S
H571 C551 0.930 . S
H572 C559 0.931 . S
H573 C560 0.929 . S
H574 C568 0.929 . S
H575 C569 0.930 . S
Mn576 O581 2.095 . S
Mn576 O591 2.162 1_655 S
Mn576 O592 2.297 . S
Mn576 O600 2.385 . S
Mn576 O601 2.209 . S
Mn576 O602 2.094 . S
Mn577 O582 2.121 . S
Mn577 N584 2.257 . S
Mn577 N593 2.282 . S
Mn577 O601 2.215 . S
Mn577 O603 2.117 . S
C578 O600 1.234 . S
C578 O601 1.283 . S
C579 O591 1.281 1_655 S
C579 O592 1.236 . S
C580 O602 1.240 . S
C580 O603 1.264 . S
O581 Mn576 2.095 . S
O581 C590 1.250 . S
O582 Mn577 2.121 . S
O582 C590 1.258 . S
C583 N584 1.326 . S
C583 C587 1.460 . S
C583 H589 0.929 . S
N584 Mn577 2.257 . S
N584 C583 1.326 . S
N584 C588 1.362 . S
C585 C586 1.258 1_565 S
C585 C588 1.431 1_565 S
C585 C605 1.449 . S
C586 C585 1.258 1_545 S
C586 C587 1.477 . S
C586 H606 0.931 1_545 S
C587 C583 1.460 . S
C587 C586 1.477 . S
C587 H607 0.930 . S
C588 N584 1.362 . S
C588 C585 1.431 1_545 S
C588 C598 1.476 1_545 S
H589 C583 0.929 . S
C590 O581 1.250 . S
C590 O582 1.258 . S
O591 Mn576 2.162 1_455 S
O591 C579 1.281 1_455 S
O592 Mn576 2.297 . S
O592 C579 1.236 . S
N593 Mn577 2.282 . S
N593 C594 1.328 . S
N593 C598 1.318 1_545 S
C594 N593 1.328 . S
C594 C595 1.457 1_545 S
C594 H599 0.929 . S
C595 C594 1.457 1_565 S
C595 C596 1.291 . S
C595 H608 0.931 . S
C596 C595 1.291 . S
C596 C597 1.373 . S
C596 H609 0.929 . S
C597 C596 1.373 . S
C597 C598 1.396 . S
C597 C604 1.403 . S
C598 C588 1.476 1_565 S
C598 N593 1.318 1_565 S
C598 C597 1.396 . S
H599 C594 0.929 . S
O600 Mn576 2.385 . S
O600 C578 1.234 . S
O601 Mn576 2.209 . S
O601 Mn577 2.215 . S
O601 C578 1.283 . S
O602 Mn576 2.094 . S
O602 C580 1.240 . S
O603 Mn577 2.117 . S
O603 C580 1.264 . S
C604 C597 1.403 . S
C604 C605 1.399 . S
C604 H610 0.929 . S
C605 C585 1.449 . S
C605 C604 1.399 . S
C605 H611 0.930 . S
H606 C586 0.931 1_565 S
H607 C587 0.930 . S
H608 C595 0.931 . S
H609 C596 0.929 . S
H610 C604 0.929 . S
H611 C605 0.930 . S
Mn612 O617 2.095 . S
Mn612 O627 2.162 . S
Mn612 O628 2.297 . S
Mn612 O636 2.385 . S
Mn612 O637 2.209 . S
Mn612 O638 2.094 . S
Mn613 O618 2.121 . S
Mn613 N620 2.257 . S
Mn613 N629 2.282 . S
Mn613 O637 2.215 . S
Mn613 O639 2.117 . S
C614 O636 1.234 . S
C614 O637 1.283 . S
C615 O627 1.281 . S
C615 O628 1.236 . S
C616 O638 1.240 . S
C616 O639 1.264 . S
O617 Mn612 2.095 . S
O617 C626 1.250 . S
O618 Mn613 2.121 . S
O618 C626 1.258 . S
C619 N620 1.326 . S
C619 C623 1.460 . S
C619 H625 0.929 . S
N620 Mn613 2.257 . S
N620 C619 1.326 . S
N620 C624 1.362 . S
C621 C622 1.258 . S
C621 C624 1.431 . S
C621 C641 1.449 . S
C622 C621 1.258 . S
C622 C623 1.477 . S
C622 H642 0.931 . S
C623 C619 1.460 . S
C623 C622 1.477 . S
C623 H643 0.930 . S
C624 N620 1.362 . S
C624 C621 1.431 . S
C624 C634 1.476 . S
H625 C619 0.929 . S
C626 O617 1.250 . S
C626 O618 1.258 . S
O627 Mn612 2.162 . S
O627 C615 1.281 . S
O628 Mn612 2.297 . S
O628 C615 1.236 . S
N629 Mn613 2.282 . S
N629 C630 1.328 . S
N629 C634 1.318 . S
C630 N629 1.328 . S
C630 C631 1.457 . S
C630 H635 0.929 . S
C631 C630 1.457 . S
C631 C632 1.291 . S
C631 H644 0.931 . S
C632 C631 1.291 . S
C632 C633 1.373 . S
C632 H645 0.929 . S
C633 C632 1.373 . S
C633 C634 1.396 . S
C633 C640 1.403 . S
C634 C624 1.476 . S
C634 N629 1.318 . S
C634 C633 1.396 . S
H635 C630 0.929 . S
O636 Mn612 2.385 . S
O636 C614 1.234 . S
O637 Mn612 2.209 . S
O637 Mn613 2.215 . S
O637 C614 1.283 . S
O638 Mn612 2.094 . S
O638 C616 1.240 . S
O639 Mn613 2.117 . S
O639 C616 1.264 . S
C640 C633 1.403 . S
C640 C641 1.399 . S
C640 H646 0.929 . S
C641 C621 1.449 . S
C641 C640 1.399 . S
C641 H647 0.930 . S
H642 C622 0.931 . S
H643 C623 0.930 . S
H644 C631 0.931 . S
H645 C632 0.929 . S
H646 C640 0.929 . S
H647 C641 0.930 . S
Mn648 O653 2.095 . S
Mn648 O663 2.162 . S
Mn648 O664 2.297 . S
Mn648 O672 2.385 . S
Mn648 O673 2.209 . S
Mn648 O674 2.094 . S
Mn649 O654 2.121 . S
Mn649 N656 2.257 . S
Mn649 N665 2.282 . S
Mn649 O673 2.215 . S
Mn649 O675 2.117 . S
C650 O672 1.234 . S
C650 O673 1.283 . S
C651 O663 1.281 . S
C651 O664 1.236 . S
C652 O674 1.240 . S
C652 O675 1.264 . S
O653 Mn648 2.095 . S
O653 C662 1.250 . S
O654 Mn649 2.121 . S
O654 C662 1.258 . S
C655 N656 1.326 . S
C655 C659 1.460 . S
C655 H661 0.929 . S
N656 Mn649 2.257 . S
N656 C655 1.326 . S
N656 C660 1.362 . S
C657 C658 1.258 . S
C657 C660 1.431 . S
C657 C677 1.449 . S
C658 C657 1.258 . S
C658 C659 1.477 . S
C658 H678 0.931 . S
C659 C655 1.460 . S
C659 C658 1.477 . S
C659 H679 0.930 . S
C660 N656 1.362 . S
C660 C657 1.431 . S
C660 C670 1.476 . S
H661 C655 0.929 . S
C662 O653 1.250 . S
C662 O654 1.258 . S
O663 Mn648 2.162 . S
O663 C651 1.281 . S
O664 Mn648 2.297 . S
O664 C651 1.236 . S
N665 Mn649 2.282 . S
N665 C666 1.328 . S
N665 C670 1.318 . S
C666 N665 1.328 . S
C666 C667 1.457 . S
C666 H671 0.929 . S
C667 C666 1.457 . S
C667 C668 1.291 . S
C667 H680 0.931 . S
C668 C667 1.291 . S
C668 C669 1.373 . S
C668 H681 0.929 . S
C669 C668 1.373 . S
C669 C670 1.396 . S
C669 C676 1.403 . S
C670 C660 1.476 . S
C670 N665 1.318 . S
C670 C669 1.396 . S
H671 C666 0.929 . S
O672 Mn648 2.385 . S
O672 C650 1.234 . S
O673 Mn648 2.209 . S
O673 Mn649 2.215 . S
O673 C650 1.283 . S
O674 Mn648 2.094 . S
O674 C652 1.240 . S
O675 Mn649 2.117 . S
O675 C652 1.264 . S
C676 C669 1.403 . S
C676 C677 1.399 . S
C676 H682 0.929 . S
C677 C657 1.449 . S
C677 C676 1.399 . S
C677 H683 0.930 . S
H678 C658 0.931 . S
H679 C659 0.930 . S
H680 C667 0.931 . S
H681 C668 0.929 . S
H682 C676 0.929 . S
H683 C677 0.930 . S
Mn684 O689 2.095 . S
Mn684 O699 2.162 . S
Mn684 O700 2.297 . S
Mn684 O708 2.385 . S
Mn684 O709 2.209 . S
Mn684 O710 2.094 . S
Mn685 O690 2.121 . S
Mn685 N692 2.257 . S
Mn685 N701 2.282 . S
Mn685 O709 2.215 . S
Mn685 O711 2.117 . S
C686 O708 1.234 . S
C686 O709 1.283 . S
C687 O699 1.281 . S
C687 O700 1.236 . S
C688 O710 1.240 . S
C688 O711 1.264 . S
O689 Mn684 2.095 . S
O689 C698 1.250 . S
O690 Mn685 2.121 . S
O690 C698 1.258 . S
C691 N692 1.326 . S
C691 C695 1.460 . S
C691 H697 0.929 . S
N692 Mn685 2.257 . S
N692 C691 1.326 . S
N692 C696 1.362 . S
C693 C694 1.258 . S
C693 C696 1.431 . S
C693 C713 1.449 . S
C694 C693 1.258 . S
C694 C695 1.477 . S
C694 H714 0.931 . S
C695 C691 1.460 . S
C695 C694 1.477 . S
C695 H715 0.930 . S
C696 N692 1.362 . S
C696 C693 1.431 . S
C696 C706 1.476 . S
H697 C691 0.929 . S
C698 O689 1.250 . S
C698 O690 1.258 . S
O699 Mn684 2.162 . S
O699 C687 1.281 . S
O700 Mn684 2.297 . S
O700 C687 1.236 . S
N701 Mn685 2.282 . S
N701 C702 1.328 . S
N701 C706 1.318 . S
C702 N701 1.328 . S
C702 C703 1.457 . S
C702 H707 0.929 . S
C703 C702 1.457 . S
C703 C704 1.291 . S
C703 H716 0.931 . S
C704 C703 1.291 . S
C704 C705 1.373 . S
C704 H717 0.929 . S
C705 C704 1.373 . S
C705 C706 1.396 . S
C705 C712 1.403 . S
C706 C696 1.476 . S
C706 N701 1.318 . S
C706 C705 1.396 . S
H707 C702 0.929 . S
O708 Mn684 2.385 . S
O708 C686 1.234 . S
O709 Mn684 2.209 . S
O709 Mn685 2.215 . S
O709 C686 1.283 . S
O710 Mn684 2.094 . S
O710 C688 1.240 . S
O711 Mn685 2.117 . S
O711 C688 1.264 . S
C712 C705 1.403 . S
C712 C713 1.399 . S
C712 H718 0.929 . S
C713 C693 1.449 . S
C713 C712 1.399 . S
C713 H719 0.930 . S
H714 C694 0.931 . S
H715 C695 0.930 . S
H716 C703 0.931 . S
H717 C704 0.929 . S
H718 C712 0.929 . S
H719 C713 0.930 . S
Mn720 O725 2.095 . S
Mn720 O735 2.162 . S
Mn720 O736 2.297 . S
Mn720 O744 2.385 . S
Mn720 O745 2.209 1_554 S
Mn720 O746 2.094 1_554 S
Mn721 O726 2.121 . S
Mn721 N728 2.257 . S
Mn721 N737 2.282 . S
Mn721 O745 2.215 . S
Mn721 O747 2.117 . S
C722 O744 1.234 . S
C722 O745 1.283 1_554 S
C723 O735 1.281 . S
C723 O736 1.236 . S
C724 O746 1.240 . S
C724 O747 1.264 . S
O725 Mn720 2.095 . S
O725 C734 1.248 1_554 S
O726 Mn721 2.121 . S
O726 C734 1.271 . S
C727 N728 1.326 . S
C727 C731 1.460 . S
C727 H733 0.929 . S
N728 Mn721 2.257 . S
N728 C727 1.326 . S
N728 C732 1.362 . S
C729 C730 1.258 . S
C729 C732 1.431 . S
C729 C749 1.449 . S
C730 C729 1.258 . S
C730 C731 1.477 . S
C730 H750 0.931 . S
C731 C727 1.460 . S
C731 C730 1.477 . S
C731 H751 0.930 . S
C732 N728 1.362 . S
C732 C729 1.431 . S
C732 C742 1.476 . S
H733 C727 0.929 . S
C734 O725 1.248 1_556 S
C734 O726 1.271 . S
O735 Mn720 2.162 . S
O735 C723 1.281 . S
O736 Mn720 2.297 . S
O736 C723 1.236 . S
N737 Mn721 2.282 . S
N737 C738 1.328 . S
N737 C742 1.318 . S
C738 N737 1.328 . S
C738 C739 1.457 . S
C738 H743 0.929 . S
C739 C738 1.457 . S
C739 C740 1.291 . S
C739 H752 0.931 . S
C740 C739 1.291 . S
C740 C741 1.373 . S
C740 H753 0.929 . S
C741 C740 1.373 . S
C741 C742 1.396 . S
C741 C748 1.403 . S
C742 C732 1.476 . S
C742 N737 1.318 . S
C742 C741 1.396 . S
H743 C738 0.929 . S
O744 Mn720 2.385 . S
O744 C722 1.234 . S
O745 Mn720 2.209 1_556 S
O745 Mn721 2.215 . S
O745 C722 1.283 1_556 S
O746 Mn720 2.094 1_556 S
O746 C724 1.240 . S
O747 Mn721 2.117 . S
O747 C724 1.264 . S
C748 C741 1.403 . S
C748 C749 1.399 . S
C748 H754 0.929 . S
C749 C729 1.449 . S
C749 C748 1.399 . S
C749 H755 0.930 . S
H750 C730 0.931 . S
H751 C731 0.930 . S
H752 C739 0.931 . S
H753 C740 0.929 . S
H754 C748 0.929 . S
H755 C749 0.930 . S
Mn756 O761 2.095 . S
Mn756 O771 2.162 . S
Mn756 O772 2.297 . S
Mn756 O780 2.385 . S
Mn756 O781 2.209 . S
Mn756 O782 2.094 . S
Mn757 O762 2.121 . S
Mn757 N764 2.257 . S
Mn757 N773 2.282 . S
Mn757 O781 2.215 . S
Mn757 O783 2.117 . S
C758 O780 1.234 . S
C758 O781 1.283 . S
C759 O771 1.281 . S
C759 O772 1.236 . S
C760 O782 1.240 . S
C760 O783 1.264 . S
O761 Mn756 2.095 . S
O761 C770 1.250 . S
O762 Mn757 2.121 . S
O762 C770 1.258 . S
C763 N764 1.326 . S
C763 C767 1.460 . S
C763 H769 0.929 . S
N764 Mn757 2.257 . S
N764 C763 1.326 . S
N764 C768 1.362 . S
C765 C766 1.258 . S
C765 C768 1.431 . S
C765 C785 1.449 . S
C766 C765 1.258 . S
C766 C767 1.477 . S
C766 H786 0.931 . S
C767 C763 1.460 . S
C767 C766 1.477 . S
C767 H787 0.930 . S
C768 N764 1.362 . S
C768 C765 1.431 . S
C768 C778 1.476 . S
H769 C763 0.929 . S
C770 O761 1.250 . S
C770 O762 1.258 . S
O771 Mn756 2.162 . S
O771 C759 1.281 . S
O772 Mn756 2.297 . S
O772 C759 1.236 . S
N773 Mn757 2.282 . S
N773 C774 1.328 . S
N773 C778 1.318 . S
C774 N773 1.328 . S
C774 C775 1.457 . S
C774 H779 0.929 . S
C775 C774 1.457 . S
C775 C776 1.291 . S
C775 H788 0.931 . S
C776 C775 1.291 . S
C776 C777 1.373 . S
C776 H789 0.929 . S
C777 C776 1.373 . S
C777 C778 1.396 . S
C777 C784 1.403 . S
C778 C768 1.476 . S
C778 N773 1.318 . S
C778 C777 1.396 . S
H779 C774 0.929 . S
O780 Mn756 2.385 . S
O780 C758 1.234 . S
O781 Mn756 2.209 . S
O781 Mn757 2.215 . S
O781 C758 1.283 . S
O782 Mn756 2.094 . S
O782 C760 1.240 . S
O783 Mn757 2.117 . S
O783 C760 1.264 . S
C784 C777 1.403 . S
C784 C785 1.399 . S
C784 H790 0.929 . S
C785 C765 1.449 . S
C785 C784 1.399 . S
C785 H791 0.930 . S
H786 C766 0.931 . S
H787 C767 0.930 . S
H788 C775 0.931 . S
H789 C776 0.929 . S
H790 C784 0.929 . S
H791 C785 0.930 . S
Mn792 O797 2.095 . S
Mn792 O807 2.162 . S
Mn792 O808 2.297 . S
Mn792 O816 2.385 . S
Mn792 O817 2.209 . S
Mn792 O818 2.094 . S
Mn793 O798 2.121 . S
Mn793 N800 2.257 . S
Mn793 N809 2.282 . S
Mn793 O817 2.215 . S
Mn793 O819 2.117 . S
C794 O816 1.234 . S
C794 O817 1.283 . S
C795 O807 1.281 . S
C795 O808 1.236 . S
C796 O818 1.240 . S
C796 O819 1.264 . S
O797 Mn792 2.095 . S
O797 C806 1.250 . S
O798 Mn793 2.121 . S
O798 C806 1.258 . S
C799 N800 1.326 . S
C799 C803 1.460 . S
C799 H805 0.929 . S
N800 Mn793 2.257 . S
N800 C799 1.326 . S
N800 C804 1.362 . S
C801 C802 1.258 . S
C801 C804 1.431 . S
C801 C821 1.449 . S
C802 C801 1.258 . S
C802 C803 1.477 . S
C802 H822 0.931 . S
C803 C799 1.460 . S
C803 C802 1.477 . S
C803 H823 0.930 . S
C804 N800 1.362 . S
C804 C801 1.431 . S
C804 C814 1.476 . S
H805 C799 0.929 . S
C806 O797 1.250 . S
C806 O798 1.258 . S
O807 Mn792 2.162 . S
O807 C795 1.281 . S
O808 Mn792 2.297 . S
O808 C795 1.236 . S
N809 Mn793 2.282 . S
N809 C810 1.328 . S
N809 C814 1.318 . S
C810 N809 1.328 . S
C810 C811 1.457 . S
C810 H815 0.929 . S
C811 C810 1.457 . S
C811 C812 1.291 . S
C811 H824 0.931 . S
C812 C811 1.291 . S
C812 C813 1.373 . S
C812 H825 0.929 . S
C813 C812 1.373 . S
C813 C814 1.396 . S
C813 C820 1.403 . S
C814 C804 1.476 . S
C814 N809 1.318 . S
C814 C813 1.396 . S
H815 C810 0.929 . S
O816 Mn792 2.385 . S
O816 C794 1.234 . S
O817 Mn792 2.209 . S
O817 Mn793 2.215 . S
O817 C794 1.283 . S
O818 Mn792 2.094 . S
O818 C796 1.240 . S
O819 Mn793 2.117 . S
O819 C796 1.264 . S
C820 C813 1.403 . S
C820 C821 1.399 . S
C820 H826 0.929 . S
C821 C801 1.449 . S
C821 C820 1.399 . S
C821 H827 0.930 . S
H822 C802 0.931 . S
H823 C803 0.930 . S
H824 C811 0.931 . S
H825 C812 0.929 . S
H826 C820 0.929 . S
H827 C821 0.930 . S
Mn828 O833 2.095 . S
Mn828 O843 2.162 . S
Mn828 O844 2.297 . S
Mn828 O852 2.385 . S
Mn828 O853 2.209 . S
Mn828 O854 2.094 . S
Mn829 O834 2.121 . S
Mn829 N836 2.257 . S
Mn829 N845 2.282 . S
Mn829 O853 2.215 . S
Mn829 O855 2.117 . S
C830 O852 1.234 . S
C830 O853 1.283 . S
C831 O843 1.281 . S
C831 O844 1.236 . S
C832 O854 1.240 . S
C832 O855 1.264 . S
O833 Mn828 2.095 . S
O833 C842 1.250 . S
O834 Mn829 2.121 . S
O834 C842 1.258 . S
C835 N836 1.326 . S
C835 C839 1.460 . S
C835 H841 0.929 . S
N836 Mn829 2.257 . S
N836 C835 1.326 . S
N836 C840 1.362 . S
C837 C838 1.258 . S
C837 C840 1.431 . S
C837 C857 1.449 . S
C838 C837 1.258 . S
C838 C839 1.477 . S
C838 H858 0.931 . S
C839 C835 1.460 . S
C839 C838 1.477 . S
C839 H859 0.930 . S
C840 N836 1.362 . S
C840 C837 1.431 . S
C840 C850 1.476 . S
H841 C835 0.929 . S
C842 O833 1.250 . S
C842 O834 1.258 . S
O843 Mn828 2.162 . S
O843 C831 1.281 . S
O844 Mn828 2.297 . S
O844 C831 1.236 . S
N845 Mn829 2.282 . S
N845 C846 1.328 . S
N845 C850 1.318 . S
C846 N845 1.328 . S
C846 C847 1.457 . S
C846 H851 0.929 . S
C847 C846 1.457 . S
C847 C848 1.291 . S
C847 H860 0.931 . S
C848 C847 1.291 . S
C848 C849 1.373 . S
C848 H861 0.929 . S
C849 C848 1.373 . S
C849 C850 1.396 . S
C849 C856 1.403 . S
C850 C840 1.476 . S
C850 N845 1.318 . S
C850 C849 1.396 . S
H851 C846 0.929 . S
O852 Mn828 2.385 . S
O852 C830 1.234 . S
O853 Mn828 2.209 . S
O853 Mn829 2.215 . S
O853 C830 1.283 . S
O854 Mn828 2.094 . S
O854 C832 1.240 . S
O855 Mn829 2.117 . S
O855 C832 1.264 . S
C856 C849 1.403 . S
C856 C857 1.399 . S
C856 H862 0.929 . S
C857 C837 1.449 . S
C857 C856 1.399 . S
C857 H863 0.930 . S
H858 C838 0.931 . S
H859 C839 0.930 . S
H860 C847 0.931 . S
H861 C848 0.929 . S
H862 C856 0.929 . S
H863 C857 0.930 . S
Sm864 C866 2.846 1_455 S
Sm864 O884 2.543 1_456 S
Sm864 O885 2.450 1_455 S
Sm864 O886 2.681 . S
Sm864 O887 2.464 . S
Sm864 O888 2.396 . S
Sm864 O892 2.386 1_556 S
Sm864 O895 2.408 1_546 S
Sm865 C875 2.846 . S
Sm865 O886 2.386 1_554 S
Sm865 O889 2.408 . S
Sm865 O890 2.543 . S
Sm865 O891 2.450 . S
Sm865 O892 2.681 . S
Sm865 O893 2.464 . S
Sm865 O894 2.396 . S
C866 Sm864 2.846 1_655 S
C866 C867 1.506 . S
C866 O884 1.261 1_556 S
C866 O885 1.242 . S
C867 C866 1.506 . S
C867 C868 1.358 1_556 S
C867 C872 1.382 . S
C868 C867 1.358 1_554 S
C868 C869 1.385 1_554 S
C868 H896 0.930 . S
C869 C868 1.385 1_556 S
C869 C870 1.395 . S
C869 H897 0.929 1_556 S
C870 C869 1.395 . S
C870 C871 1.335 . S
C871 C870 1.335 . S
C871 C872 1.398 . S
C871 H898 0.930 . S
C872 C867 1.382 . S
C872 C871 1.398 . S
C872 H899 0.929 . S
C873 O886 1.271 . S
C873 O887 1.251 . S
C874 O888 1.252 1_554 S
C874 O889 1.272 . S
C875 Sm865 2.846 . S
C875 C876 1.506 . S
C875 O890 1.261 . S
C875 O891 1.242 . S
C876 C875 1.506 . S
C876 C877 1.358 . S
C876 C881 1.382 . S
C877 C876 1.358 . S
C877 C878 1.385 1_545 S
C877 H900 0.930 . S
C878 C877 1.385 1_565 S
C878 C879 1.395 1_565 S
C878 H901 0.929 . S
C879 C878 1.395 1_545 S
C879 C880 1.335 . S
C880 C879 1.335 . S
C880 C881 1.398 . S
C880 H902 0.930 . S
C881 C876 1.382 . S
C881 C880 1.398 . S
C881 H903 0.929 . S
C882 O892 1.271 . S
C882 O893 1.251 . S
C883 O894 1.252 1_565 S
C883 O895 1.272 . S
O884 Sm864 2.543 1_654 S
O884 C866 1.261 1_554 S
O885 Sm864 2.450 1_655 S
O885 C866 1.242 . S
O886 Sm864 2.681 . S
O886 Sm865 2.386 1_556 S
O886 C873 1.271 . S
O887 Sm864 2.464 . S
O887 C873 1.251 . S
O888 Sm864 2.396 . S
O888 C874 1.252 1_556 S
O889 Sm865 2.408 . S
O889 C874 1.272 . S
O890 Sm865 2.543 . S
O890 C875 1.261 . S
O891 Sm865 2.450 . S
O891 C875 1.242 . S
O892 Sm864 2.386 1_554 S
O892 Sm865 2.681 . S
O892 C882 1.271 . S
O893 Sm865 2.464 . S
O893 C882 1.251 . S
O894 Sm865 2.396 . S
O894 C883 1.252 1_545 S
O895 Sm864 2.408 1_564 S
O895 C883 1.272 . S
H896 C868 0.930 . S
H897 C869 0.929 1_554 S
H898 C871 0.930 . S
H899 C872 0.929 . S
H900 C877 0.930 . S
H901 C878 0.929 . S
H902 C880 0.930 . S
H903 C881 0.929 . S
Sm904 C906 2.846 . S
Sm904 O924 2.543 . S
Sm904 O925 2.450 . S
Sm904 O926 2.681 . S
Sm904 O927 2.464 . S
Sm904 O928 2.396 . S
Sm904 O932 2.386 . S
Sm904 O935 2.408 . S
Sm905 C915 2.846 . S
Sm905 O926 2.386 . S
Sm905 O929 2.408 . S
Sm905 O930 2.543 . S
Sm905 O931 2.450 . S
Sm905 O932 2.681 . S
Sm905 O933 2.464 . S
Sm905 O934 2.396 . S
C906 Sm904 2.846 . S
C906 C907 1.506 . S
C906 O924 1.261 . S
C906 O925 1.242 . S
C907 C906 1.506 . S
C907 C908 1.358 . S
C907 C912 1.382 . S
C908 C907 1.358 . S
C908 C909 1.385 . S
C908 H936 0.930 . S
C909 C908 1.385 . S
C909 C910 1.395 . S
C909 H937 0.929 . S
C910 C909 1.395 . S
C910 C911 1.335 . S
C911 C910 1.335 . S
C911 C912 1.398 . S
C911 H938 0.930 . S
C912 C907 1.382 . S
C912 C911 1.398 . S
C912 H939 0.929 . S
C913 O926 1.271 . S
C913 O927 1.251 . S
C914 O928 1.252 . S
C914 O929 1.272 . S
C915 Sm905 2.846 . S
C915 C916 1.506 . S
C915 O930 1.261 . S
C915 O931 1.242 . S
C916 C915 1.506 . S
C916 C917 1.358 . S
C916 C921 1.382 . S
C917 C916 1.358 . S
C917 C918 1.385 . S
C917 H940 0.930 . S
C918 C917 1.385 . S
C918 C919 1.395 . S
C918 H941 0.929 . S
C919 C918 1.395 . S
C919 C920 1.335 . S
C920 C919 1.335 . S
C920 C921 1.398 . S
C920 H942 0.930 . S
C921 C916 1.382 . S
C921 C920 1.398 . S
C921 H943 0.929 . S
C922 O932 1.271 . S
C922 O933 1.251 . S
C923 O934 1.252 . S
C923 O935 1.272 . S
O924 Sm904 2.543 . S
O924 C906 1.261 . S
O925 Sm904 2.450 . S
O925 C906 1.242 . S
O926 Sm904 2.681 . S
O926 Sm905 2.386 . S
O926 C913 1.271 . S
O927 Sm904 2.464 . S
O927 C913 1.251 . S
O928 Sm904 2.396 . S
O928 C914 1.252 . S
O929 Sm905 2.408 . S
O929 C914 1.272 . S
O930 Sm905 2.543 . S
O930 C915 1.261 . S
O931 Sm905 2.450 . S
O931 C915 1.242 . S
O932 Sm904 2.386 . S
O932 Sm905 2.681 . S
O932 C922 1.271 . S
O933 Sm905 2.464 . S
O933 C922 1.251 . S
O934 Sm905 2.396 . S
O934 C923 1.252 . S
O935 Sm904 2.408 . S
O935 C923 1.272 . S
H936 C908 0.930 . S
H937 C909 0.929 . S
H938 C911 0.930 . S
H939 C912 0.929 . S
H940 C917 0.930 . S
H941 C918 0.929 . S
H942 C920 0.930 . S
H943 C921 0.929 . S
Sm944 C946 2.846 . S
Sm944 O964 2.543 . S
Sm944 O965 2.450 . S
Sm944 O966 2.681 . S
Sm944 O967 2.464 . S
Sm944 O968 2.396 . S
Sm944 O972 2.386 . S
Sm944 O975 2.408 . S
Sm945 C955 2.846 . S
Sm945 O966 2.386 . S
Sm945 O969 2.408 1_545 S
Sm945 O970 2.543 . S
Sm945 O971 2.450 . S
Sm945 O972 2.681 . S
Sm945 O973 2.464 . S
Sm945 O974 2.396 . S
C946 Sm944 2.846 . S
C946 C947 1.506 1_545 S
C946 O964 1.261 . S
C946 O965 1.242 . S
C947 C946 1.506 1_565 S
C947 C948 1.358 . S
C947 C952 1.382 . S
C948 C947 1.358 . S
C948 C949 1.385 . S
C948 H976 0.930 . S
C949 C948 1.385 . S
C949 C950 1.395 . S
C949 H977 0.929 . S
C950 C949 1.395 . S
C950 C951 1.335 . S
C951 C950 1.335 . S
C951 C952 1.398 . S
C951 H978 0.930 . S
C952 C947 1.382 . S
C952 C951 1.398 . S
C952 H979 0.929 1_565 S
C953 O966 1.271 . S
C953 O967 1.251 . S
C954 O968 1.252 1_565 S
C954 O969 1.272 . S
C955 Sm945 2.846 . S
C955 C956 1.506 . S
C955 O970 1.261 . S
C955 O971 1.242 . S
C956 C955 1.506 . S
C956 C957 1.358 . S
C956 C961 1.382 . S
C957 C956 1.358 . S
C957 C958 1.385 . S
C957 H980 0.930 . S
C958 C957 1.385 . S
C958 C959 1.395 . S
C958 H981 0.929 . S
C959 C958 1.395 . S
C959 C960 1.335 . S
C960 C959 1.335 . S
C960 C961 1.398 . S
C960 H982 0.930 . S
C961 C956 1.382 . S
C961 C960 1.398 . S
C961 H983 0.929 . S
C962 O972 1.271 . S
C962 O973 1.251 . S
C963 O974 1.252 . S
C963 O975 1.272 . S
O964 Sm944 2.543 . S
O964 C946 1.261 . S
O965 Sm944 2.450 . S
O965 C946 1.242 . S
O966 Sm944 2.681 . S
O966 Sm945 2.386 . S
O966 C953 1.271 . S
O967 Sm944 2.464 . S
O967 C953 1.251 . S
O968 Sm944 2.396 . S
O968 C954 1.252 1_545 S
O969 Sm945 2.408 1_565 S
O969 C954 1.272 . S
O970 Sm945 2.543 . S
O970 C955 1.261 . S
O971 Sm945 2.450 . S
O971 C955 1.242 . S
O972 Sm944 2.386 . S
O972 Sm945 2.681 . S
O972 C962 1.271 . S
O973 Sm945 2.464 . S
O973 C962 1.251 . S
O974 Sm945 2.396 . S
O974 C963 1.252 . S
O975 Sm944 2.408 . S
O975 C963 1.272 . S
H976 C948 0.930 . S
H977 C949 0.929 . S
H978 C951 0.930 . S
H979 C952 0.929 1_545 S
H980 C957 0.930 . S
H981 C958 0.929 . S
H982 C960 0.930 . S
H983 C961 0.929 . S
Sm984 C986 2.846 . S
Sm984 O1004 2.543 . S
Sm984 O1005 2.450 . S
Sm984 O1006 2.681 . S
Sm984 O1007 2.464 . S
Sm984 O1008 2.396 . S
Sm984 O1012 2.386 . S
Sm984 O1015 2.408 . S
Sm985 C995 2.846 . S
Sm985 O1006 2.386 . S
Sm985 O1009 2.408 . S
Sm985 O1010 2.543 . S
Sm985 O1011 2.450 . S
Sm985 O1012 2.681 . S
Sm985 O1013 2.464 . S
Sm985 O1014 2.396 . S
C986 Sm984 2.846 . S
C986 C987 1.506 . S
C986 O1004 1.261 . S
C986 O1005 1.242 . S
C987 C986 1.506 . S
C987 C988 1.358 . S
C987 C992 1.382 . S
C988 C987 1.358 . S
C988 C989 1.385 . S
C988 H1016 0.930 . S
C989 C988 1.385 . S
C989 C990 1.395 . S
C989 H1017 0.929 . S
C990 C989 1.395 . S
C990 C991 1.335 . S
C991 C990 1.335 . S
C991 C992 1.398 . S
C991 H1018 0.930 . S
C992 C987 1.382 . S
C992 C991 1.398 . S
C992 H1019 0.929 . S
C993 O1006 1.271 . S
C993 O1007 1.251 . S
C994 O1008 1.252 . S
C994 O1009 1.272 . S
C995 Sm985 2.846 . S
C995 C996 1.506 . S
C995 O1010 1.261 . S
C995 O1011 1.242 . S
C996 C995 1.506 . S
C996 C997 1.358 . S
C996 C1001 1.382 . S
C997 C996 1.358 . S
C997 C998 1.385 . S
C997 H1020 0.930 . S
C998 C997 1.385 . S
C998 C999 1.395 . S
C998 H1021 0.929 . S
C999 C998 1.395 . S
C999 C1000 1.335 . S
C1000 C999 1.335 . S
C1000 C1001 1.398 . S
C1000 H1022 0.930 . S
C1001 C996 1.382 . S
C1001 C1000 1.398 . S
C1001 H1023 0.929 . S
C1002 O1012 1.271 . S
C1002 O1013 1.251 . S
C1003 O1014 1.252 . S
C1003 O1015 1.272 . S
O1004 Sm984 2.543 . S
O1004 C986 1.261 . S
O1005 Sm984 2.450 . S
O1005 C986 1.242 . S
O1006 Sm984 2.681 . S
O1006 Sm985 2.386 . S
O1006 C993 1.271 . S
O1007 Sm984 2.464 . S
O1007 C993 1.251 . S
O1008 Sm984 2.396 . S
O1008 C994 1.252 . S
O1009 Sm985 2.408 . S
O1009 C994 1.272 . S
O1010 Sm985 2.543 . S
O1010 C995 1.261 . S
O1011 Sm985 2.450 . S
O1011 C995 1.242 . S
O1012 Sm984 2.386 . S
O1012 Sm985 2.681 . S
O1012 C1002 1.271 . S
O1013 Sm985 2.464 . S
O1013 C1002 1.251 . S
O1014 Sm985 2.396 . S
O1014 C1003 1.252 . S
O1015 Sm984 2.408 . S
O1015 C1003 1.272 . S
H1016 C988 0.930 . S
H1017 C989 0.929 . S
H1018 C991 0.930 . S
H1019 C992 0.929 . S
H1020 C997 0.930 . S
H1021 C998 0.929 . S
H1022 C1000 0.930 . S
H1023 C1001 0.929 . S
Sm1024 C1026 2.846 . S
Sm1024 O1044 2.543 . S
Sm1024 O1045 2.450 . S
Sm1024 O1046 2.681 . S
Sm1024 O1047 2.464 . S
Sm1024 O1048 2.396 . S
Sm1024 O1052 2.386 . S
Sm1024 O1055 2.408 . S
Sm1025 C1035 2.846 1_545 S
Sm1025 O1046 2.386 . S
Sm1025 O1049 2.408 . S
Sm1025 O1050 2.543 1_545 S
Sm1025 O1051 2.450 1_545 S
Sm1025 O1052 2.681 . S
Sm1025 O1053 2.464 . S
Sm1025 O1054 2.396 . S
C1026 Sm1024 2.846 . S
C1026 C1027 1.506 . S
C1026 O1044 1.261 . S
C1026 O1045 1.242 . S
C1027 C1026 1.506 . S
C1027 C1028 1.358 . S
C1027 C1032 1.382 . S
C1028 C1027 1.358 . S
C1028 C1029 1.385 . S
C1028 H1056 0.930 . S
C1029 C1028 1.385 . S
C1029 C1030 1.395 . S
C1029 H1057 0.929 . S
C1030 C1029 1.395 . S
C1030 C1031 1.335 . S
C1031 C1030 1.335 . S
C1031 C1032 1.398 . S
C1031 H1058 0.930 . S
C1032 C1027 1.382 . S
C1032 C1031 1.398 . S
C1032 H1059 0.929 . S
C1033 O1046 1.271 . S
C1033 O1047 1.251 . S
C1034 O1048 1.252 . S
C1034 O1049 1.272 . S
C1035 Sm1025 2.846 1_565 S
C1035 C1036 1.506 . S
C1035 O1050 1.261 . S
C1035 O1051 1.242 . S
C1036 C1035 1.506 . S
C1036 C1037 1.358 . S
C1036 C1041 1.382 . S
C1037 C1036 1.358 . S
C1037 C1038 1.385 . S
C1037 H1060 0.930 . S
C1038 C1037 1.385 . S
C1038 C1039 1.395 . S
C1038 H1061 0.929 . S
C1039 C1038 1.395 . S
C1039 C1040 1.335 . S
C1040 C1039 1.335 . S
C1040 C1041 1.398 . S
C1040 H1062 0.930 . S
C1041 C1036 1.382 . S
C1041 C1040 1.398 . S
C1041 H1063 0.929 . S
C1042 O1052 1.271 . S
C1042 O1053 1.251 . S
C1043 O1054 1.252 . S
C1043 O1055 1.272 . S
O1044 Sm1024 2.543 . S
O1044 C1026 1.261 . S
O1045 Sm1024 2.450 . S
O1045 C1026 1.242 . S
O1046 Sm1024 2.681 . S
O1046 Sm1025 2.386 . S
O1046 C1033 1.271 . S
O1047 Sm1024 2.464 . S
O1047 C1033 1.251 . S
O1048 Sm1024 2.396 . S
O1048 C1034 1.252 . S
O1049 Sm1025 2.408 . S
O1049 C1034 1.272 . S
O1050 Sm1025 2.543 1_565 S
O1050 C1035 1.261 . S
O1051 Sm1025 2.450 1_565 S
O1051 C1035 1.242 . S
O1052 Sm1024 2.386 . S
O1052 Sm1025 2.681 . S
O1052 C1042 1.271 . S
O1053 Sm1025 2.464 . S
O1053 C1042 1.251 . S
O1054 Sm1025 2.396 . S
O1054 C1043 1.252 . S
O1055 Sm1024 2.408 . S
O1055 C1043 1.272 . S
H1056 C1028 0.930 . S
H1057 C1029 0.929 . S
H1058 C1031 0.930 . S
H1059 C1032 0.929 . S
H1060 C1037 0.930 . S
H1061 C1038 0.929 . S
H1062 C1040 0.930 . S
H1063 C1041 0.929 . S
Sm1064 C1066 2.846 . S
Sm1064 O1084 2.543 . S
Sm1064 O1085 2.450 . S
Sm1064 O1086 2.681 . S
Sm1064 O1087 2.464 . S
Sm1064 O1088 2.396 . S
Sm1064 O1092 2.386 . S
Sm1064 O1095 2.408 . S
Sm1065 C1075 2.846 . S
Sm1065 O1086 2.386 . S
Sm1065 O1089 2.408 . S
Sm1065 O1090 2.543 . S
Sm1065 O1091 2.450 . S
Sm1065 O1092 2.681 . S
Sm1065 O1093 2.464 . S
Sm1065 O1094 2.396 . S
C1066 Sm1064 2.846 . S
C1066 C1067 1.506 . S
C1066 O1084 1.261 . S
C1066 O1085 1.242 . S
C1067 C1066 1.506 . S
C1067 C1068 1.358 . S
C1067 C1072 1.382 . S
C1068 C1067 1.358 . S
C1068 C1069 1.385 . S
C1068 H1096 0.930 . S
C1069 C1068 1.385 . S
C1069 C1070 1.395 . S
C1069 H1097 0.929 . S
C1070 C1069 1.395 . S
C1070 C1071 1.335 . S
C1071 C1070 1.335 . S
C1071 C1072 1.398 . S
C1071 H1098 0.930 . S
C1072 C1067 1.382 . S
C1072 C1071 1.398 . S
C1072 H1099 0.929 . S
C1073 O1086 1.271 . S
C1073 O1087 1.251 . S
C1074 O1088 1.252 . S
C1074 O1089 1.272 . S
C1075 Sm1065 2.846 . S
C1075 C1076 1.506 . S
C1075 O1090 1.261 . S
C1075 O1091 1.242 . S
C1076 C1075 1.506 . S
C1076 C1077 1.358 . S
C1076 C1081 1.382 . S
C1077 C1076 1.358 . S
C1077 C1078 1.385 . S
C1077 H1100 0.930 . S
C1078 C1077 1.385 . S
C1078 C1079 1.395 . S
C1078 H1101 0.929 . S
C1079 C1078 1.395 . S
C1079 C1080 1.335 . S
C1080 C1079 1.335 . S
C1080 C1081 1.398 . S
C1080 H1102 0.930 . S
C1081 C1076 1.382 . S
C1081 C1080 1.398 . S
C1081 H1103 0.929 . S
C1082 O1092 1.271 . S
C1082 O1093 1.251 . S
C1083 O1094 1.252 . S
C1083 O1095 1.272 . S
O1084 Sm1064 2.543 . S
O1084 C1066 1.261 . S
O1085 Sm1064 2.450 . S
O1085 C1066 1.242 . S
O1086 Sm1064 2.681 . S
O1086 Sm1065 2.386 . S
O1086 C1073 1.271 . S
O1087 Sm1064 2.464 . S
O1087 C1073 1.251 . S
O1088 Sm1064 2.396 . S
O1088 C1074 1.252 . S
O1089 Sm1065 2.408 . S
O1089 C1074 1.272 . S
O1090 Sm1065 2.543 . S
O1090 C1075 1.261 . S
O1091 Sm1065 2.450 . S
O1091 C1075 1.242 . S
O1092 Sm1064 2.386 . S
O1092 Sm1065 2.681 . S
O1092 C1082 1.271 . S
O1093 Sm1065 2.464 . S
O1093 C1082 1.251 . S
O1094 Sm1065 2.396 . S
O1094 C1083 1.252 . S
O1095 Sm1064 2.408 . S
O1095 C1083 1.272 . S
H1096 C1068 0.930 . S
H1097 C1069 0.929 . S
H1098 C1071 0.930 . S
H1099 C1072 0.929 . S
H1100 C1077 0.930 . S
H1101 C1078 0.929 . S
H1102 C1080 0.930 . S
H1103 C1081 0.929 . S
Sm1104 C1106 2.846 . S
Sm1104 O1124 2.543 . S
Sm1104 O1125 2.450 . S
Sm1104 O1126 2.667 1_554 S
Sm1104 O1127 2.464 1_545 S
Sm1104 O1128 2.396 . S
Sm1104 O1132 2.386 . S
Sm1104 O1135 2.408 . S
Sm1105 C1115 2.846 . S
Sm1105 O1126 2.394 . S
Sm1105 O1129 2.408 . S
Sm1105 O1130 2.543 . S
Sm1105 O1131 2.450 . S
Sm1105 O1132 2.681 1_556 S
Sm1105 O1133 2.464 1_556 S
Sm1105 O1134 2.396 1_556 S
C1106 Sm1104 2.846 . S
C1106 C1107 1.506 . S
C1106 O1124 1.261 . S
C1106 O1125 1.242 . S
C1107 C1106 1.506 . S
C1107 C1108 1.358 . S
C1107 C1112 1.382 1_545 S
C1108 C1107 1.358 . S
C1108 C1109 1.385 . S
C1108 H1136 0.930 . S
C1109 C1108 1.385 . S
C1109 C1110 1.395 1_545 S
C1109 H1137 0.929 . S
C1110 C1109 1.395 1_565 S
C1110 C1111 1.335 . S
C1111 C1110 1.335 . S
C1111 C1112 1.398 . S
C1111 H1138 0.930 . S
C1112 C1107 1.382 1_565 S
C1112 C1111 1.398 . S
C1112 H1139 0.929 . S
C1113 O1126 1.267 1_564 S
C1113 O1127 1.251 . S
C1114 O1128 1.252 . S
C1114 O1129 1.272 1_554 S
C1115 Sm1105 2.846 . S
C1115 C1116 1.506 . S
C1115 O1130 1.261 . S
C1115 O1131 1.242 . S
C1116 C1115 1.506 . S
C1116 C1117 1.358 . S
C1116 C1121 1.382 . S
C1117 C1116 1.358 . S
C1117 C1118 1.385 . S
C1117 H1140 0.930 . S
C1118 C1117 1.385 . S
C1118 C1119 1.395 . S
C1118 H1141 0.929 . S
C1119 C1118 1.395 . S
C1119 C1120 1.335 . S
C1120 C1119 1.335 . S
C1120 C1121 1.398 . S
C1120 H1142 0.930 . S
C1121 C1116 1.382 . S
C1121 C1120 1.398 . S
C1121 H1143 0.929 . S
C1122 O1132 1.271 . S
C1122 O1133 1.251 . S
C1123 O1134 1.252 . S
C1123 O1135 1.272 . S
O1124 Sm1104 2.543 . S
O1124 C1106 1.261 . S
O1125 Sm1104 2.450 . S
O1125 C1106 1.242 . S
O1126 Sm1104 2.667 1_556 S
O1126 Sm1105 2.394 . S
O1126 C1113 1.267 1_546 S
O1127 Sm1104 2.464 1_565 S
O1127 C1113 1.251 . S
O1128 Sm1104 2.396 . S
O1128 C1114 1.252 . S
O1129 Sm1105 2.408 . S
O1129 C1114 1.272 1_556 S
O1130 Sm1105 2.543 . S
O1130 C1115 1.261 . S
O1131 Sm1105 2.450 . S
O1131 C1115 1.242 . S
O1132 Sm1104 2.386 . S
O1132 Sm1105 2.681 1_554 S
O1132 C1122 1.271 . S
O1133 Sm1105 2.464 1_554 S
O1133 C1122 1.251 . S
O1134 Sm1105 2.396 1_554 S
O1134 C1123 1.252 . S
O1135 Sm1104 2.408 . S
O1135 C1123 1.272 . S
H1136 C1108 0.930 . S
H1137 C1109 0.929 . S
H1138 C1111 0.930 . S
H1139 C1112 0.929 . S
H1140 C1117 0.930 . S
H1141 C1118 0.929 . S
H1142 C1120 0.930 . S
H1143 C1121 0.929 . S
Sm1144 C1146 2.846 . S
Sm1144 O1164 2.543 . S
Sm1144 O1165 2.450 . S
Sm1144 O1166 2.681 . S
Sm1144 O1167 2.464 . S
Sm1144 O1168 2.396 . S
Sm1144 O1172 2.386 . S
Sm1144 O1175 2.408 . S
Sm1145 C1155 2.846 . S
Sm1145 O1166 2.386 . S
Sm1145 O1169 2.408 . S
Sm1145 O1170 2.543 . S
Sm1145 O1171 2.450 . S
Sm1145 O1172 2.681 . S
Sm1145 O1173 2.464 . S
Sm1145 O1174 2.396 . S
C1146 Sm1144 2.846 . S
C1146 C1147 1.506 . S
C1146 O1164 1.261 . S
C1146 O1165 1.242 . S
C1147 C1146 1.506 . S
C1147 C1148 1.358 . S
C1147 C1152 1.382 . S
C1148 C1147 1.358 . S
C1148 C1149 1.385 . S
C1148 H1176 0.930 . S
C1149 C1148 1.385 . S
C1149 C1150 1.395 . S
C1149 H1177 0.929 . S
C1150 C1149 1.395 . S
C1150 C1151 1.335 . S
C1151 C1150 1.335 . S
C1151 C1152 1.398 . S
C1151 H1178 0.930 . S
C1152 C1147 1.382 . S
C1152 C1151 1.398 . S
C1152 H1179 0.929 . S
C1153 O1166 1.271 . S
C1153 O1167 1.251 . S
C1154 O1168 1.252 . S
C1154 O1169 1.272 . S
C1155 Sm1145 2.846 . S
C1155 C1156 1.506 . S
C1155 O1170 1.261 . S
C1155 O1171 1.242 . S
C1156 C1155 1.506 . S
C1156 C1157 1.358 . S
C1156 C1161 1.382 . S
C1157 C1156 1.358 . S
C1157 C1158 1.385 . S
C1157 H1180 0.930 . S
C1158 C1157 1.385 . S
C1158 C1159 1.395 . S
C1158 H1181 0.929 . S
C1159 C1158 1.395 . S
C1159 C1160 1.335 . S
C1160 C1159 1.335 . S
C1160 C1161 1.398 . S
C1160 H1182 0.930 . S
C1161 C1156 1.382 . S
C1161 C1160 1.398 . S
C1161 H1183 0.929 . S
C1162 O1172 1.271 . S
C1162 O1173 1.251 . S
C1163 O1174 1.252 . S
C1163 O1175 1.272 . S
O1164 Sm1144 2.543 . S
O1164 C1146 1.261 . S
O1165 Sm1144 2.450 . S
O1165 C1146 1.242 . S
O1166 Sm1144 2.681 . S
O1166 Sm1145 2.386 . S
O1166 C1153 1.271 . S
O1167 Sm1144 2.464 . S
O1167 C1153 1.251 . S
O1168 Sm1144 2.396 . S
O1168 C1154 1.252 . S
O1169 Sm1145 2.408 . S
O1169 C1154 1.272 . S
O1170 Sm1145 2.543 . S
O1170 C1155 1.261 . S
O1171 Sm1145 2.450 . S
O1171 C1155 1.242 . S
O1172 Sm1144 2.386 . S
O1172 Sm1145 2.681 . S
O1172 C1162 1.271 . S
O1173 Sm1145 2.464 . S
O1173 C1162 1.251 . S
O1174 Sm1145 2.396 . S
O1174 C1163 1.252 . S
O1175 Sm1144 2.408 . S
O1175 C1163 1.272 . S
H1176 C1148 0.930 . S
H1177 C1149 0.929 . S
H1178 C1151 0.930 . S
H1179 C1152 0.929 . S
H1180 C1157 0.930 . S
H1181 C1158 0.929 . S
H1182 C1160 0.930 . S
H1183 C1161 0.929 . S
Sm1184 C1186 2.846 . S
Sm1184 O1204 2.543 . S
Sm1184 O1205 2.450 . S
Sm1184 O1206 2.681 . S
Sm1184 O1207 2.464 . S
Sm1184 O1208 2.396 1_554 S
Sm1184 O1212 2.386 . S
Sm1184 O1215 2.408 . S
Sm1185 C1195 2.846 . S
Sm1185 O1206 2.386 . S
Sm1185 O1209 2.408 1_554 S
Sm1185 O1210 2.543 . S
Sm1185 O1211 2.450 . S
Sm1185 O1212 2.681 . S
Sm1185 O1213 2.464 . S
Sm1185 O1214 2.396 . S
C1186 Sm1184 2.846 . S
C1186 C1187 1.506 1_554 S
C1186 O1204 1.261 . S
C1186 O1205 1.242 . S
C1187 C1186 1.506 1_556 S
C1187 C1188 1.358 . S
C1187 C1192 1.382 . S
C1188 C1187 1.358 . S
C1188 C1189 1.385 . S
C1188 H1216 0.930 . S
C1189 C1188 1.385 . S
C1189 C1190 1.395 . S
C1189 H1217 0.929 . S
C1190 C1189 1.395 . S
C1190 C1191 1.335 . S
C1191 C1190 1.335 . S
C1191 C1192 1.398 . S
C1191 H1218 0.930 . S
C1192 C1187 1.382 . S
C1192 C1191 1.398 . S
C1192 H1219 0.929 1_556 S
C1193 O1206 1.271 . S
C1193 O1207 1.251 . S
C1194 O1208 1.252 . S
C1194 O1209 1.272 . S
C1195 Sm1185 2.846 . S
C1195 C1196 1.506 . S
C1195 O1210 1.261 . S
C1195 O1211 1.242 . S
C1196 C1195 1.506 . S
C1196 C1197 1.358 . S
C1196 C1201 1.382 . S
C1197 C1196 1.358 . S
C1197 C1198 1.385 . S
C1197 H1220 0.930 . S
C1198 C1197 1.385 . S
C1198 C1199 1.395 . S
C1198 H1221 0.929 . S
C1199 C1198 1.395 . S
C1199 C1200 1.335 . S
C1200 C1199 1.335 . S
C1200 C1201 1.398 . S
C1200 H1222 0.930 . S
C1201 C1196 1.382 . S
C1201 C1200 1.398 . S
C1201 H1223 0.929 . S
C1202 O1212 1.271 . S
C1202 O1213 1.251 . S
C1203 O1214 1.252 . S
C1203 O1215 1.272 . S
O1204 Sm1184 2.543 . S
O1204 C1186 1.261 . S
O1205 Sm1184 2.450 . S
O1205 C1186 1.242 . S
O1206 Sm1184 2.681 . S
O1206 Sm1185 2.386 . S
O1206 C1193 1.271 . S
O1207 Sm1184 2.464 . S
O1207 C1193 1.251 . S
O1208 Sm1184 2.396 1_556 S
O1208 C1194 1.252 . S
O1209 Sm1185 2.408 1_556 S
O1209 C1194 1.272 . S
O1210 Sm1185 2.543 . S
O1210 C1195 1.261 . S
O1211 Sm1185 2.450 . S
O1211 C1195 1.242 . S
O1212 Sm1184 2.386 . S
O1212 Sm1185 2.681 . S
O1212 C1202 1.271 . S
O1213 Sm1185 2.464 . S
O1213 C1202 1.251 . S
O1214 Sm1185 2.396 . S
O1214 C1203 1.252 . S
O1215 Sm1184 2.408 . S
O1215 C1203 1.272 . S
H1216 C1188 0.930 . S
H1217 C1189 0.929 . S
H1218 C1191 0.930 . S
H1219 C1192 0.929 1_554 S
H1220 C1197 0.930 . S
H1221 C1198 0.929 . S
H1222 C1200 0.930 . S
H1223 C1201 0.929 . S
Sm1224 C1226 2.846 . S
Sm1224 O1244 2.543 . S
Sm1224 O1245 2.450 . S
Sm1224 O1246 2.681 . S
Sm1224 O1247 2.464 . S
Sm1224 O1248 2.396 . S
Sm1224 O1252 2.386 . S
Sm1224 O1255 2.408 . S
Sm1225 C1235 2.846 . S
Sm1225 O1246 2.386 . S
Sm1225 O1249 2.408 . S
Sm1225 O1250 2.543 . S
Sm1225 O1251 2.450 . S
Sm1225 O1252 2.681 . S
Sm1225 O1253 2.464 . S
Sm1225 O1254 2.396 . S
C1226 Sm1224 2.846 . S
C1226 C1227 1.506 . S
C1226 O1244 1.261 . S
C1226 O1245 1.242 . S
C1227 C1226 1.506 . S
C1227 C1228 1.358 . S
C1227 C1232 1.382 . S
C1228 C1227 1.358 . S
C1228 C1229 1.385 . S
C1228 H1256 0.930 . S
C1229 C1228 1.385 . S
C1229 C1230 1.395 1_655 S
C1229 H1257 0.929 . S
C1230 C1229 1.395 1_455 S
C1230 C1231 1.335 1_455 S
C1231 C1230 1.335 1_655 S
C1231 C1232 1.398 . S
C1231 H1258 0.930 1_655 S
C1232 C1227 1.382 . S
C1232 C1231 1.398 . S
C1232 H1259 0.929 . S
C1233 O1246 1.271 . S
C1233 O1247 1.251 . S
C1234 O1248 1.252 . S
C1234 O1249 1.272 . S
C1235 Sm1225 2.846 . S
C1235 C1236 1.506 . S
C1235 O1250 1.261 . S
C1235 O1251 1.242 . S
C1236 C1235 1.506 . S
C1236 C1237 1.358 . S
C1236 C1241 1.382 . S
C1237 C1236 1.358 . S
C1237 C1238 1.385 . S
C1237 H1260 0.930 . S
C1238 C1237 1.385 . S
C1238 C1239 1.395 . S
C1238 H1261 0.929 . S
C1239 C1238 1.395 . S
C1239 C1240 1.335 . S
C1240 C1239 1.335 . S
C1240 C1241 1.398 . S
C1240 H1262 0.930 . S
C1241 C1236 1.382 . S
C1241 C1240 1.398 . S
C1241 H1263 0.929 . S
C1242 O1252 1.271 . S
C1242 O1253 1.251 . S
C1243 O1254 1.252 . S
C1243 O1255 1.272 . S
O1244 Sm1224 2.543 . S
O1244 C1226 1.261 . S
O1245 Sm1224 2.450 . S
O1245 C1226 1.242 . S
O1246 Sm1224 2.681 . S
O1246 Sm1225 2.386 . S
O1246 C1233 1.271 . S
O1247 Sm1224 2.464 . S
O1247 C1233 1.251 . S
O1248 Sm1224 2.396 . S
O1248 C1234 1.252 . S
O1249 Sm1225 2.408 . S
O1249 C1234 1.272 . S
O1250 Sm1225 2.543 . S
O1250 C1235 1.261 . S
O1251 Sm1225 2.450 . S
O1251 C1235 1.242 . S
O1252 Sm1224 2.386 . S
O1252 Sm1225 2.681 . S
O1252 C1242 1.271 . S
O1253 Sm1225 2.464 . S
O1253 C1242 1.251 . S
O1254 Sm1225 2.396 . S
O1254 C1243 1.252 . S
O1255 Sm1224 2.408 . S
O1255 C1243 1.272 . S
H1256 C1228 0.930 . S
H1257 C1229 0.929 . S
H1258 C1231 0.930 1_455 S
H1259 C1232 0.929 . S
H1260 C1237 0.930 . S
H1261 C1238 0.929 . S
H1262 C1240 0.930 . S
H1263 C1241 0.929 . S
Sm1264 C1266 2.846 . S
Sm1264 O1284 2.543 . S
Sm1264 O1285 2.450 . S
Sm1264 O1286 2.681 . S
Sm1264 O1287 2.464 . S
Sm1264 O1288 2.396 . S
Sm1264 O1292 2.386 . S
Sm1264 O1295 2.408 . S
Sm1265 C1275 2.846 . S
Sm1265 O1286 2.386 . S
Sm1265 O1289 2.408 . S
Sm1265 O1290 2.543 . S
Sm1265 O1291 2.450 . S
Sm1265 O1292 2.681 . S
Sm1265 O1293 2.464 . S
Sm1265 O1294 2.396 . S
C1266 Sm1264 2.846 . S
C1266 C1267 1.506 . S
C1266 O1284 1.261 . S
C1266 O1285 1.242 . S
C1267 C1266 1.506 . S
C1267 C1268 1.358 . S
C1267 C1272 1.382 . S
C1268 C1267 1.358 . S
C1268 C1269 1.385 1_455 S
C1268 H1296 0.930 . S
C1269 C1268 1.385 1_655 S
C1269 C1270 1.395 . S
C1269 H1297 0.929 . S
C1270 C1269 1.395 . S
C1270 C1271 1.335 1_655 S
C1271 C1270 1.335 1_455 S
C1271 C1272 1.398 . S
C1271 H1298 0.930 . S
C1272 C1267 1.382 . S
C1272 C1271 1.398 . S
C1272 H1299 0.929 . S
C1273 O1286 1.271 . S
C1273 O1287 1.251 . S
C1274 O1288 1.252 . S
C1274 O1289 1.272 . S
C1275 Sm1265 2.846 . S
C1275 C1276 1.506 . S
C1275 O1290 1.261 . S
C1275 O1291 1.242 . S
C1276 C1275 1.506 . S
C1276 C1277 1.358 . S
C1276 C1281 1.382 . S
C1277 C1276 1.358 . S
C1277 C1278 1.385 . S
C1277 H1300 0.930 . S
C1278 C1277 1.385 . S
C1278 C1279 1.395 . S
C1278 H1301 0.929 . S
C1279 C1278 1.395 . S
C1279 C1280 1.335 . S
C1280 C1279 1.335 . S
C1280 C1281 1.398 . S
C1280 H1302 0.930 . S
C1281 C1276 1.382 . S
C1281 C1280 1.398 . S
C1281 H1303 0.929 . S
C1282 O1292 1.271 . S
C1282 O1293 1.251 . S
C1283 O1294 1.252 . S
C1283 O1295 1.272 . S
O1284 Sm1264 2.543 . S
O1284 C1266 1.261 . S
O1285 Sm1264 2.450 . S
O1285 C1266 1.242 . S
O1286 Sm1264 2.681 . S
O1286 Sm1265 2.386 . S
O1286 C1273 1.271 . S
O1287 Sm1264 2.464 . S
O1287 C1273 1.251 . S
O1288 Sm1264 2.396 . S
O1288 C1274 1.252 . S
O1289 Sm1265 2.408 . S
O1289 C1274 1.272 . S
O1290 Sm1265 2.543 . S
O1290 C1275 1.261 . S
O1291 Sm1265 2.450 . S
O1291 C1275 1.242 . S
O1292 Sm1264 2.386 . S
O1292 Sm1265 2.681 . S
O1292 C1282 1.271 . S
O1293 Sm1265 2.464 . S
O1293 C1282 1.251 . S
O1294 Sm1265 2.396 . S
O1294 C1283 1.252 . S
O1295 Sm1264 2.408 . S
O1295 C1283 1.272 . S
H1296 C1268 0.930 . S
H1297 C1269 0.929 . S
H1298 C1271 0.930 . S
H1299 C1272 0.929 . S
H1300 C1277 0.930 . S
H1301 C1278 0.929 . S
H1302 C1280 0.930 . S
H1303 C1281 0.929 . S
Sm1304 C1306 2.846 . S
Sm1304 O1324 2.543 . S
Sm1304 O1325 2.450 . S
Sm1304 O1326 2.681 . S
Sm1304 O1327 2.464 . S
Sm1304 O1328 2.396 . S
Sm1304 O1332 2.386 . S
Sm1304 O1335 2.408 . S
Sm1305 C1315 2.846 . S
Sm1305 O1326 2.386 . S
Sm1305 O1329 2.408 . S
Sm1305 O1330 2.543 . S
Sm1305 O1331 2.450 . S
Sm1305 O1332 2.681 . S
Sm1305 O1333 2.464 . S
Sm1305 O1334 2.396 . S
C1306 Sm1304 2.846 . S
C1306 C1307 1.506 . S
C1306 O1324 1.261 . S
C1306 O1325 1.242 . S
C1307 C1306 1.506 . S
C1307 C1308 1.358 . S
C1307 C1312 1.382 . S
C1308 C1307 1.358 . S
C1308 C1309 1.385 . S
C1308 H1336 0.930 . S
C1309 C1308 1.385 . S
C1309 C1310 1.395 . S
C1309 H1337 0.929 . S
C1310 C1309 1.395 . S
C1310 C1311 1.335 . S
C1311 C1310 1.335 . S
C1311 C1312 1.398 . S
C1311 H1338 0.930 . S
C1312 C1307 1.382 . S
C1312 C1311 1.398 . S
C1312 H1339 0.929 . S
C1313 O1326 1.271 . S
C1313 O1327 1.251 . S
C1314 O1328 1.252 . S
C1314 O1329 1.272 . S
C1315 Sm1305 2.846 . S
C1315 C1316 1.506 . S
C1315 O1330 1.261 . S
C1315 O1331 1.242 . S
C1316 C1315 1.506 . S
C1316 C1317 1.358 . S
C1316 C1321 1.382 . S
C1317 C1316 1.358 . S
C1317 C1318 1.385 . S
C1317 H1340 0.930 . S
C1318 C1317 1.385 . S
C1318 C1319 1.395 . S
C1318 H1341 0.929 . S
C1319 C1318 1.395 . S
C1319 C1320 1.335 . S
C1320 C1319 1.335 . S
C1320 C1321 1.398 . S
C1320 H1342 0.930 . S
C1321 C1316 1.382 . S
C1321 C1320 1.398 . S
C1321 H1343 0.929 . S
C1322 O1332 1.271 . S
C1322 O1333 1.251 . S
C1323 O1334 1.252 . S
C1323 O1335 1.272 . S
O1324 Sm1304 2.543 . S
O1324 C1306 1.261 . S
O1325 Sm1304 2.450 . S
O1325 C1306 1.242 . S
O1326 Sm1304 2.681 . S
O1326 Sm1305 2.386 . S
O1326 C1313 1.271 . S
O1327 Sm1304 2.464 . S
O1327 C1313 1.251 . S
O1328 Sm1304 2.396 . S
O1328 C1314 1.252 . S
O1329 Sm1305 2.408 . S
O1329 C1314 1.272 . S
O1330 Sm1305 2.543 . S
O1330 C1315 1.261 . S
O1331 Sm1305 2.450 . S
O1331 C1315 1.242 . S
O1332 Sm1304 2.386 . S
O1332 Sm1305 2.681 . S
O1332 C1322 1.271 . S
O1333 Sm1305 2.464 . S
O1333 C1322 1.251 . S
O1334 Sm1305 2.396 . S
O1334 C1323 1.252 . S
O1335 Sm1304 2.408 . S
O1335 C1323 1.272 . S
H1336 C1308 0.930 . S
H1337 C1309 0.929 . S
H1338 C1311 0.930 . S
H1339 C1312 0.929 . S
H1340 C1317 0.930 . S
H1341 C1318 0.929 . S
H1342 C1320 0.930 . S
H1343 C1321 0.929 . S
Sm1344 C1346 2.846 . S
Sm1344 O1364 2.543 . S
Sm1344 O1365 2.450 . S
Sm1344 O1366 2.681 . S
Sm1344 O1367 2.464 . S
Sm1344 O1368 2.396 . S
Sm1344 O1372 2.386 . S
Sm1344 O1375 2.408 . S
Sm1345 C1355 2.846 . S
Sm1345 O1366 2.386 . S
Sm1345 O1369 2.408 . S
Sm1345 O1370 2.543 . S
Sm1345 O1371 2.450 . S
Sm1345 O1372 2.681 . S
Sm1345 O1373 2.464 . S
Sm1345 O1374 2.396 . S
C1346 Sm1344 2.846 . S
C1346 C1347 1.506 . S
C1346 O1364 1.261 . S
C1346 O1365 1.242 . S
C1347 C1346 1.506 . S
C1347 C1348 1.358 . S
C1347 C1352 1.382 . S
C1348 C1347 1.358 . S
C1348 C1349 1.385 . S
C1348 H1376 0.930 . S
C1349 C1348 1.385 . S
C1349 C1350 1.395 . S
C1349 H1377 0.929 . S
C1350 C1349 1.395 . S
C1350 C1351 1.335 . S
C1351 C1350 1.335 . S
C1351 C1352 1.398 . S
C1351 H1378 0.930 . S
C1352 C1347 1.382 . S
C1352 C1351 1.398 . S
C1352 H1379 0.929 . S
C1353 O1366 1.271 . S
C1353 O1367 1.251 . S
C1354 O1368 1.252 . S
C1354 O1369 1.272 . S
C1355 Sm1345 2.846 . S
C1355 C1356 1.506 . S
C1355 O1370 1.261 . S
C1355 O1371 1.242 . S
C1356 C1355 1.506 . S
C1356 C1357 1.358 . S
C1356 C1361 1.382 . S
C1357 C1356 1.358 . S
C1357 C1358 1.385 . S
C1357 H1380 0.930 . S
C1358 C1357 1.385 . S
C1358 C1359 1.395 . S
C1358 H1381 0.929 . S
C1359 C1358 1.395 . S
C1359 C1360 1.335 . S
C1360 C1359 1.335 . S
C1360 C1361 1.398 . S
C1360 H1382 0.930 . S
C1361 C1356 1.382 . S
C1361 C1360 1.398 . S
C1361 H1383 0.929 . S
C1362 O1372 1.271 . S
C1362 O1373 1.251 . S
C1363 O1374 1.252 . S
C1363 O1375 1.272 . S
O1364 Sm1344 2.543 . S
O1364 C1346 1.261 . S
O1365 Sm1344 2.450 . S
O1365 C1346 1.242 . S
O1366 Sm1344 2.681 . S
O1366 Sm1345 2.386 . S
O1366 C1353 1.271 . S
O1367 Sm1344 2.464 . S
O1367 C1353 1.251 . S
O1368 Sm1344 2.396 . S
O1368 C1354 1.252 . S
O1369 Sm1345 2.408 . S
O1369 C1354 1.272 . S
O1370 Sm1345 2.543 . S
O1370 C1355 1.261 . S
O1371 Sm1345 2.450 . S
O1371 C1355 1.242 . S
O1372 Sm1344 2.386 . S
O1372 Sm1345 2.681 . S
O1372 C1362 1.271 . S
O1373 Sm1345 2.464 . S
O1373 C1362 1.251 . S
O1374 Sm1345 2.396 . S
O1374 C1363 1.252 . S
O1375 Sm1344 2.408 . S
O1375 C1363 1.272 . S
H1376 C1348 0.930 . S
H1377 C1349 0.929 . S
H1378 C1351 0.930 . S
H1379 C1352 0.929 . S
H1380 C1357 0.930 . S
H1381 C1358 0.929 . S
H1382 C1360 0.930 . S
H1383 C1361 0.929 . S
Sm1384 C1386 2.846 . S
Sm1384 O1404 2.543 . S
Sm1384 O1405 2.450 . S
Sm1384 O1406 2.681 . S
Sm1384 O1407 2.464 . S
Sm1384 O1408 2.396 . S
Sm1384 O1412 2.386 . S
Sm1384 O1415 2.408 . S
Sm1385 C1395 2.846 . S
Sm1385 O1406 2.386 . S
Sm1385 O1409 2.408 . S
Sm1385 O1410 2.543 . S
Sm1385 O1411 2.450 . S
Sm1385 O1412 2.681 . S
Sm1385 O1413 2.464 . S
Sm1385 O1414 2.396 . S
C1386 Sm1384 2.846 . S
C1386 C1387 1.506 . S
C1386 O1404 1.261 . S
C1386 O1405 1.242 . S
C1387 C1386 1.506 . S
C1387 C1388 1.358 . S
C1387 C1392 1.382 . S
C1388 C1387 1.358 . S
C1388 C1389 1.385 . S
C1388 H1416 0.930 . S
C1389 C1388 1.385 . S
C1389 C1390 1.395 . S
C1389 H1417 0.929 . S
C1390 C1389 1.395 . S
C1390 C1391 1.335 . S
C1391 C1390 1.335 . S
C1391 C1392 1.398 . S
C1391 H1418 0.930 . S
C1392 C1387 1.382 . S
C1392 C1391 1.398 . S
C1392 H1419 0.929 . S
C1393 O1406 1.271 . S
C1393 O1407 1.251 . S
C1394 O1408 1.252 . S
C1394 O1409 1.272 . S
C1395 Sm1385 2.846 . S
C1395 C1396 1.506 . S
C1395 O1410 1.261 . S
C1395 O1411 1.242 . S
C1396 C1395 1.506 . S
C1396 C1397 1.358 . S
C1396 C1401 1.382 . S
C1397 C1396 1.358 . S
C1397 C1398 1.385 . S
C1397 H1420 0.930 . S
C1398 C1397 1.385 . S
C1398 C1399 1.395 . S
C1398 H1421 0.929 . S
C1399 C1398 1.395 . S
C1399 C1400 1.335 . S
C1400 C1399 1.335 . S
C1400 C1401 1.398 . S
C1400 H1422 0.930 . S
C1401 C1396 1.382 . S
C1401 C1400 1.398 . S
C1401 H1423 0.929 . S
C1402 O1412 1.271 . S
C1402 O1413 1.251 . S
C1403 O1414 1.252 . S
C1403 O1415 1.272 . S
O1404 Sm1384 2.543 . S
O1404 C1386 1.261 . S
O1405 Sm1384 2.450 . S
O1405 C1386 1.242 . S
O1406 Sm1384 2.681 . S
O1406 Sm1385 2.386 . S
O1406 C1393 1.271 . S
O1407 Sm1384 2.464 . S
O1407 C1393 1.251 . S
O1408 Sm1384 2.396 . S
O1408 C1394 1.252 . S
O1409 Sm1385 2.408 . S
O1409 C1394 1.272 . S
O1410 Sm1385 2.543 . S
O1410 C1395 1.261 . S
O1411 Sm1385 2.450 . S
O1411 C1395 1.242 . S
O1412 Sm1384 2.386 . S
O1412 Sm1385 2.681 . S
O1412 C1402 1.271 . S
O1413 Sm1385 2.464 . S
O1413 C1402 1.251 . S
O1414 Sm1385 2.396 . S
O1414 C1403 1.252 . S
O1415 Sm1384 2.408 . S
O1415 C1403 1.272 . S
H1416 C1388 0.930 . S
H1417 C1389 0.929 . S
H1418 C1391 0.930 . S
H1419 C1392 0.929 . S
H1420 C1397 0.930 . S
H1421 C1398 0.929 . S
H1422 C1400 0.930 . S
H1423 C1401 0.929 . S
Sm1424 C1426 2.846 . S
Sm1424 O1444 2.543 . S
Sm1424 O1445 2.450 . S
Sm1424 O1446 2.681 . S
Sm1424 O1447 2.464 . S
Sm1424 O1448 2.396 . S
Sm1424 O1452 2.386 . S
Sm1424 O1455 2.408 . S
Sm1425 C1435 2.846 . S
Sm1425 O1446 2.386 . S
Sm1425 O1449 2.408 . S
Sm1425 O1450 2.543 . S
Sm1425 O1451 2.450 . S
Sm1425 O1452 2.681 . S
Sm1425 O1453 2.464 . S
Sm1425 O1454 2.396 . S
C1426 Sm1424 2.846 . S
C1426 C1427 1.506 . S
C1426 O1444 1.261 . S
C1426 O1445 1.242 . S
C1427 C1426 1.506 . S
C1427 C1428 1.358 . S
C1427 C1432 1.382 . S
C1428 C1427 1.358 . S
C1428 C1429 1.385 . S
C1428 H1456 0.930 . S
C1429 C1428 1.385 . S
C1429 C1430 1.395 . S
C1429 H1457 0.929 . S
C1430 C1429 1.395 . S
C1430 C1431 1.335 . S
C1431 C1430 1.335 . S
C1431 C1432 1.398 . S
C1431 H1458 0.930 . S
C1432 C1427 1.382 . S
C1432 C1431 1.398 . S
C1432 H1459 0.929 . S
C1433 O1446 1.271 . S
C1433 O1447 1.251 . S
C1434 O1448 1.252 . S
C1434 O1449 1.272 . S
C1435 Sm1425 2.846 . S
C1435 C1436 1.506 . S
C1435 O1450 1.261 . S
C1435 O1451 1.242 . S
C1436 C1435 1.506 . S
C1436 C1437 1.358 . S
C1436 C1441 1.382 . S
C1437 C1436 1.358 . S
C1437 C1438 1.385 . S
C1437 H1460 0.930 . S
C1438 C1437 1.385 . S
C1438 C1439 1.395 . S
C1438 H1461 0.929 . S
C1439 C1438 1.395 . S
C1439 C1440 1.335 . S
C1440 C1439 1.335 . S
C1440 C1441 1.398 . S
C1440 H1462 0.930 . S
C1441 C1436 1.382 . S
C1441 C1440 1.398 . S
C1441 H1463 0.929 . S
C1442 O1452 1.271 . S
C1442 O1453 1.251 . S
C1443 O1454 1.252 . S
C1443 O1455 1.272 . S
O1444 Sm1424 2.543 . S
O1444 C1426 1.261 . S
O1445 Sm1424 2.450 . S
O1445 C1426 1.242 . S
O1446 Sm1424 2.681 . S
O1446 Sm1425 2.386 . S
O1446 C1433 1.271 . S
O1447 Sm1424 2.464 . S
O1447 C1433 1.251 . S
O1448 Sm1424 2.396 . S
O1448 C1434 1.252 . S
O1449 Sm1425 2.408 . S
O1449 C1434 1.272 . S
O1450 Sm1425 2.543 . S
O1450 C1435 1.261 . S
O1451 Sm1425 2.450 . S
O1451 C1435 1.242 . S
O1452 Sm1424 2.386 . S
O1452 Sm1425 2.681 . S
O1452 C1442 1.271 . S
O1453 Sm1425 2.464 . S
O1453 C1442 1.251 . S
O1454 Sm1425 2.396 . S
O1454 C1443 1.252 . S
O1455 Sm1424 2.408 . S
O1455 C1443 1.272 . S
H1456 C1428 0.930 . S
H1457 C1429 0.929 . S
H1458 C1431 0.930 . S
H1459 C1432 0.929 . S
H1460 C1437 0.930 . S
H1461 C1438 0.929 . S
H1462 C1440 0.930 . S
H1463 C1441 0.929 . S
Sm1464 C1466 2.846 1_554 S
Sm1464 O1484 2.543 . S
Sm1464 O1485 2.450 1_554 S
Sm1464 O1486 2.681 1_554 S
Sm1464 O1487 2.464 1_554 S
Sm1464 O1488 2.396 1_554 S
Sm1464 O1492 2.386 . S
Sm1464 O1495 2.408 . S
Sm1465 C1475 2.846 1_455 S
Sm1465 O1486 2.386 1_554 S
Sm1465 O1489 2.408 . S
Sm1465 O1490 2.526 1_455 S
Sm1465 O1491 2.465 . S
Sm1465 O1492 2.681 . S
Sm1465 O1493 2.464 . S
Sm1465 O1494 2.396 . S
C1466 Sm1464 2.846 1_556 S
C1466 C1467 1.506 . S
C1466 O1484 1.261 1_556 S
C1466 O1485 1.242 . S
C1467 C1466 1.506 . S
C1467 C1468 1.358 1_556 S
C1467 C1472 1.382 . S
C1468 C1467 1.358 1_554 S
C1468 C1469 1.385 . S
C1468 H1496 0.930 . S
C1469 C1468 1.385 . S
C1469 C1470 1.395 1_554 S
C1469 H1497 0.929 . S
C1470 C1469 1.395 1_556 S
C1470 C1471 1.335 . S
C1471 C1470 1.335 . S
C1471 C1472 1.398 . S
C1471 H1498 0.930 . S
C1472 C1467 1.382 . S
C1472 C1471 1.398 . S
C1472 H1499 0.929 . S
C1473 O1486 1.271 . S
C1473 O1487 1.251 . S
C1474 O1488 1.252 1_554 S
C1474 O1489 1.272 . S
C1475 Sm1465 2.846 1_655 S
C1475 C1476 1.506 . S
C1475 O1490 1.271 . S
C1475 O1491 1.235 1_655 S
C1476 C1475 1.506 . S
C1476 C1477 1.358 . S
C1476 C1481 1.382 . S
C1477 C1476 1.358 . S
C1477 C1478 1.385 . S
C1477 H1500 0.930 . S
C1478 C1477 1.385 . S
C1478 C1479 1.395 . S
C1478 H1501 0.929 . S
C1479 C1478 1.395 . S
C1479 C1480 1.335 . S
C1480 C1479 1.335 . S
C1480 C1481 1.398 . S
C1480 H1502 0.930 . S
C1481 C1476 1.382 . S
C1481 C1480 1.398 . S
C1481 H1503 0.929 . S
C1482 O1492 1.271 . S
C1482 O1493 1.251 . S
C1483 O1494 1.252 . S
C1483 O1495 1.272 . S
O1484 Sm1464 2.543 . S
O1484 C1466 1.261 1_554 S
O1485 Sm1464 2.450 1_556 S
O1485 C1466 1.242 . S
O1486 Sm1464 2.681 1_556 S
O1486 Sm1465 2.386 1_556 S
O1486 C1473 1.271 . S
O1487 Sm1464 2.464 1_556 S
O1487 C1473 1.251 . S
O1488 Sm1464 2.396 1_556 S
O1488 C1474 1.252 1_556 S
O1489 Sm1465 2.408 . S
O1489 C1474 1.272 . S
O1490 Sm1465 2.526 1_655 S
O1490 C1475 1.271 . S
O1491 Sm1465 2.465 . S
O1491 C1475 1.235 1_455 S
O1492 Sm1464 2.386 . S
O1492 Sm1465 2.681 . S
O1492 C1482 1.271 . S
O1493 Sm1465 2.464 . S
O1493 C1482 1.251 . S
O1494 Sm1465 2.396 . S
O1494 C1483 1.252 . S
O1495 Sm1464 2.408 . S
O1495 C1483 1.272 . S
H1496 C1468 0.930 . S
H1497 C1469 0.929 . S
H1498 C1471 0.930 . S
H1499 C1472 0.929 . S
H1500 C1477 0.930 . S
H1501 C1478 0.929 . S
H1502 C1480 0.930 . S
H1503 C1481 0.929 . S
C1504 C1505 1.363 . S
C1504 C1510 1.379 . S
C1504 N1512 1.356 1_455 S
C1505 C1504 1.363 . S
C1505 C1511 1.363 . S
C1506 C1507 1.363 1_554 S
C1506 C1511 1.379 1_554 S
C1506 N1513 1.356 . S
C1507 C1506 1.363 1_556 S
C1507 C1510 1.363 . S
N1508 C1510 1.356 . S
N1508 H1520 0.984 1_455 S
N1508 H1521 0.985 . S
N1509 C1511 1.356 . S
N1509 H1514 0.984 . S
N1509 H1515 0.985 1_556 S
C1510 C1504 1.379 . S
C1510 C1507 1.363 . S
C1510 N1508 1.356 . S
C1511 C1505 1.363 . S
C1511 C1506 1.379 1_556 S
C1511 N1509 1.356 . S
N1512 C1504 1.356 1_655 S
N1512 H1518 0.984 . S
N1512 H1519 0.984 . S
N1513 C1506 1.356 . S
N1513 H1516 0.984 . S
N1513 H1517 0.985 . S
H1514 N1509 0.984 . S
H1515 N1509 0.985 1_554 S
H1516 N1513 0.984 . S
H1517 N1513 0.985 . S
H1518 N1512 0.984 . S
H1519 N1512 0.984 . S
H1520 N1508 0.984 1_655 S
H1521 N1508 0.985 . S
C1522 C1523 1.363 . S
C1522 C1528 1.379 . S
C1522 N1530 1.356 . S
C1523 C1522 1.363 . S
C1523 C1529 1.363 . S
C1524 C1525 1.363 . S
C1524 C1529 1.379 . S
C1524 N1531 1.356 . S
C1525 C1524 1.363 . S
C1525 C1528 1.363 . S
N1526 C1528 1.356 . S
N1526 H1538 0.984 . S
N1526 H1539 0.985 . S
N1527 C1529 1.356 . S
N1527 H1532 0.984 . S
N1527 H1533 0.985 . S
C1528 C1522 1.379 . S
C1528 C1525 1.363 . S
C1528 N1526 1.356 . S
C1529 C1523 1.363 . S
C1529 C1524 1.379 . S
C1529 N1527 1.356 . S
N1530 C1522 1.356 . S
N1530 H1536 0.984 . S
N1530 H1537 0.984 . S
N1531 C1524 1.356 . S
N1531 H1534 0.984 . S
N1531 H1535 0.985 . S
H1532 N1527 0.984 . S
H1533 N1527 0.985 . S
H1534 N1531 0.984 . S
H1535 N1531 0.985 . S
H1536 N1530 0.984 . S
H1537 N1530 0.984 . S
H1538 N1526 0.984 . S
H1539 N1526 0.985 . S
C1540 C1541 1.363 . S
C1540 C1546 1.379 . S
C1540 N1548 1.356 . S
C1541 C1540 1.363 . S
C1541 C1547 1.363 . S
C1542 C1543 1.363 . S
C1542 C1547 1.379 . S
C1542 N1549 1.356 . S
C1543 C1542 1.363 . S
C1543 C1546 1.363 . S
N1544 C1546 1.356 . S
N1544 H1556 0.984 . S
N1544 H1557 0.985 . S
N1545 C1547 1.356 . S
N1545 H1550 0.984 . S
N1545 H1551 0.985 . S
C1546 C1540 1.379 . S
C1546 C1543 1.363 . S
C1546 N1544 1.356 . S
C1547 C1541 1.363 . S
C1547 C1542 1.379 . S
C1547 N1545 1.356 . S
N1548 C1540 1.356 . S
N1548 H1554 0.984 . S
N1548 H1555 0.984 . S
N1549 C1542 1.356 . S
N1549 H1552 0.984 . S
N1549 H1553 0.985 . S
H1550 N1545 0.984 . S
H1551 N1545 0.985 . S
H1552 N1549 0.984 . S
H1553 N1549 0.985 . S
H1554 N1548 0.984 . S
H1555 N1548 0.984 . S
H1556 N1544 0.984 . S
H1557 N1544 0.985 . S
C1558 C1559 1.363 . S
C1558 C1564 1.379 . S
C1558 N1566 1.356 . S
C1559 C1558 1.363 . S
C1559 C1565 1.363 . S
C1560 C1561 1.363 . S
C1560 C1565 1.379 . S
C1560 N1567 1.356 . S
C1561 C1560 1.363 . S
C1561 C1564 1.363 . S
N1562 C1564 1.356 . S
N1562 H1574 0.984 . S
N1562 H1575 0.985 . S
N1563 C1565 1.356 . S
N1563 H1568 0.984 . S
N1563 H1569 0.985 . S
C1564 C1558 1.379 . S
C1564 C1561 1.363 . S
C1564 N1562 1.356 . S
C1565 C1559 1.363 . S
C1565 C1560 1.379 . S
C1565 N1563 1.356 . S
N1566 C1558 1.356 . S
N1566 H1572 0.984 . S
N1566 H1573 0.984 . S
N1567 C1560 1.356 . S
N1567 H1570 0.984 . S
N1567 H1571 0.985 . S
H1568 N1563 0.984 . S
H1569 N1563 0.985 . S
H1570 N1567 0.984 . S
H1571 N1567 0.985 . S
H1572 N1566 0.984 . S
H1573 N1566 0.984 . S
H1574 N1562 0.984 . S
H1575 N1562 0.985 . S
C1576 C1577 1.363 . S
C1576 C1582 1.379 . S
C1576 N1584 1.356 1_455 S
C1577 C1576 1.363 . S
C1577 C1583 1.363 . S
C1578 C1579 1.363 . S
C1578 C1583 1.379 . S
C1578 N1585 1.356 . S
C1579 C1578 1.363 . S
C1579 C1582 1.363 . S
N1580 C1582 1.356 . S
N1580 H1592 0.984 . S
N1580 H1593 0.985 . S
N1581 C1583 1.356 . S
N1581 H1586 0.984 . S
N1581 H1587 0.985 . S
C1582 C1576 1.379 . S
C1582 C1579 1.363 . S
C1582 N1580 1.356 . S
C1583 C1577 1.363 . S
C1583 C1578 1.379 . S
C1583 N1581 1.356 . S
N1584 C1576 1.356 1_655 S
N1584 H1590 0.984 . S
N1584 H1591 0.984 . S
N1585 C1578 1.356 . S
N1585 H1588 0.984 . S
N1585 H1589 0.985 . S
H1586 N1581 0.984 . S
H1587 N1581 0.985 . S
H1588 N1585 0.984 . S
H1589 N1585 0.985 . S
H1590 N1584 0.984 . S
H1591 N1584 0.984 . S
H1592 N1580 0.984 . S
H1593 N1580 0.985 . S
C1594 C1595 1.363 . S
C1594 C1600 1.379 . S
C1594 N1602 1.356 . S
C1595 C1594 1.363 . S
C1595 C1601 1.363 . S
C1596 C1597 1.363 . S
C1596 C1601 1.379 . S
C1596 N1603 1.356 . S
C1597 C1596 1.363 . S
C1597 C1600 1.363 . S
N1598 C1600 1.356 . S
N1598 H1610 0.984 . S
N1598 H1611 0.985 . S
N1599 C1601 1.356 . S
N1599 H1604 0.984 . S
N1599 H1605 0.985 . S
C1600 C1594 1.379 . S
C1600 C1597 1.363 . S
C1600 N1598 1.356 . S
C1601 C1595 1.363 . S
C1601 C1596 1.379 . S
C1601 N1599 1.356 . S
N1602 C1594 1.356 . S
N1602 H1608 0.984 . S
N1602 H1609 0.984 . S
N1603 C1596 1.356 . S
N1603 H1606 0.984 . S
N1603 H1607 0.985 . S
H1604 N1599 0.984 . S
H1605 N1599 0.985 . S
H1606 N1603 0.984 . S
H1607 N1603 0.985 . S
H1608 N1602 0.984 . S
H1609 N1602 0.984 . S
H1610 N1598 0.984 . S
H1611 N1598 0.985 . S
C1612 C1613 1.363 . S
C1612 C1618 1.379 . S
C1612 N1620 1.356 . S
C1613 C1612 1.363 . S
C1613 C1619 1.363 . S
C1614 C1615 1.363 . S
C1614 C1619 1.379 . S
C1614 N1621 1.356 . S
C1615 C1614 1.363 . S
C1615 C1618 1.363 . S
N1616 C1618 1.356 . S
N1616 H1628 0.984 . S
N1616 H1629 0.985 . S
N1617 C1619 1.356 . S
N1617 H1622 0.984 . S
N1617 H1623 0.985 . S
C1618 C1612 1.379 . S
C1618 C1615 1.363 . S
C1618 N1616 1.356 . S
C1619 C1613 1.363 . S
C1619 C1614 1.379 . S
C1619 N1617 1.356 . S
N1620 C1612 1.356 . S
N1620 H1626 0.984 . S
N1620 H1627 0.984 . S
N1621 C1614 1.356 . S
N1621 H1624 0.984 . S
N1621 H1625 0.985 . S
H1622 N1617 0.984 . S
H1623 N1617 0.985 . S
H1624 N1621 0.984 . S
H1625 N1621 0.985 . S
H1626 N1620 0.984 . S
H1627 N1620 0.984 . S
H1628 N1616 0.984 . S
H1629 N1616 0.985 . S
C1630 C1631 1.363 . S
C1630 C1636 1.379 . S
C1630 N1638 1.356 . S
C1631 C1630 1.363 . S
C1631 C1637 1.363 . S
C1632 C1633 1.363 . S
C1632 C1637 1.379 . S
C1632 N1639 1.356 . S
C1633 C1632 1.363 . S
C1633 C1636 1.363 . S
N1634 C1636 1.356 . S
N1634 H1646 0.984 . S
N1634 H1647 0.985 . S
N1635 C1637 1.356 . S
N1635 H1640 0.984 . S
N1635 H1641 0.985 . S
C1636 C1630 1.379 . S
C1636 C1633 1.363 . S
C1636 N1634 1.356 . S
C1637 C1631 1.363 . S
C1637 C1632 1.379 . S
C1637 N1635 1.356 . S
N1638 C1630 1.356 . S
N1638 H1644 0.984 . S
N1638 H1645 0.984 . S
N1639 C1632 1.356 . S
N1639 H1642 0.984 . S
N1639 H1643 0.985 . S
H1640 N1635 0.984 . S
H1641 N1635 0.985 . S
H1642 N1639 0.984 . S
H1643 N1639 0.985 . S
H1644 N1638 0.984 . S
H1645 N1638 0.984 . S
H1646 N1634 0.984 . S
H1647 N1634 0.985 . S
C1648 C1649 1.363 . S
C1648 C1654 1.379 . S
C1648 N1656 1.356 . S
C1649 C1648 1.363 . S
C1649 C1655 1.363 . S
C1650 C1651 1.363 . S
C1650 C1655 1.379 . S
C1650 N1657 1.356 . S
C1651 C1650 1.363 . S
C1651 C1654 1.363 . S
N1652 C1654 1.356 . S
N1652 H1664 0.984 . S
N1652 H1665 0.985 . S
N1653 C1655 1.356 1_655 S
N1653 H1658 0.984 . S
N1653 H1659 0.985 . S
C1654 C1648 1.379 . S
C1654 C1651 1.363 . S
C1654 N1652 1.356 . S
C1655 C1649 1.363 . S
C1655 C1650 1.379 . S
C1655 N1653 1.356 1_455 S
N1656 C1648 1.356 . S
N1656 H1662 0.984 . S
N1656 H1663 0.984 . S
N1657 C1650 1.356 . S
N1657 H1660 0.984 . S
N1657 H1661 0.985 . S
H1658 N1653 0.984 . S
H1659 N1653 0.985 . S
H1660 N1657 0.984 . S
H1661 N1657 0.985 . S
H1662 N1656 0.984 . S
H1663 N1656 0.984 . S
H1664 N1652 0.984 . S
H1665 N1652 0.985 . S
C1666 C1667 1.363 . S
C1666 C1672 1.379 . S
C1666 N1674 1.356 . S
C1667 C1666 1.363 . S
C1667 C1673 1.363 . S
C1668 C1669 1.363 . S
C1668 C1673 1.379 . S
C1668 N1675 1.356 . S
C1669 C1668 1.363 . S
C1669 C1672 1.363 . S
N1670 C1672 1.356 . S
N1670 H1682 0.984 . S
N1670 H1683 0.985 . S
N1671 C1673 1.356 . S
N1671 H1676 0.984 . S
N1671 H1677 0.985 . S
C1672 C1666 1.379 . S
C1672 C1669 1.363 . S
C1672 N1670 1.356 . S
C1673 C1667 1.363 . S
C1673 C1668 1.379 . S
C1673 N1671 1.356 . S
N1674 C1666 1.356 . S
N1674 H1680 0.984 . S
N1674 H1681 0.984 . S
N1675 C1668 1.356 . S
N1675 H1678 0.984 . S
N1675 H1679 0.985 . S
H1676 N1671 0.984 . S
H1677 N1671 0.985 . S
H1678 N1675 0.984 . S
H1679 N1675 0.985 . S
H1680 N1674 0.984 . S
H1681 N1674 0.984 . S
H1682 N1670 0.984 . S
H1683 N1670 0.985 . S
C1684 C1685 1.363 . S
C1684 C1690 1.379 . S
C1684 N1692 1.356 . S
C1685 C1684 1.363 . S
C1685 C1691 1.363 . S
C1686 C1687 1.363 . S
C1686 C1691 1.379 . S
C1686 N1693 1.356 . S
C1687 C1686 1.363 . S
C1687 C1690 1.363 . S
N1688 C1690 1.356 . S
N1688 H1700 0.984 . S
N1688 H1701 0.985 . S
N1689 C1691 1.356 . S
N1689 H1694 0.984 . S
N1689 H1695 0.985 . S
C1690 C1684 1.379 . S
C1690 C1687 1.363 . S
C1690 N1688 1.356 . S
C1691 C1685 1.363 . S
C1691 C1686 1.379 . S
C1691 N1689 1.356 . S
N1692 C1684 1.356 . S
N1692 H1698 0.984 . S
N1692 H1699 0.984 . S
N1693 C1686 1.356 . S
N1693 H1696 0.984 . S
N1693 H1697 0.985 . S
H1694 N1689 0.984 . S
H1695 N1689 0.985 . S
H1696 N1693 0.984 . S
H1697 N1693 0.985 . S
H1698 N1692 0.984 . S
H1699 N1692 0.984 . S
H1700 N1688 0.984 . S
H1701 N1688 0.985 . S
C1702 C1703 1.363 . S
C1702 C1708 1.379 . S
C1702 N1710 1.356 . S
C1703 C1702 1.363 . S
C1703 C1709 1.363 . S
C1704 C1705 1.363 . S
C1704 C1709 1.379 . S
C1704 N1711 1.356 . S
C1705 C1704 1.363 . S
C1705 C1708 1.363 . S
N1706 C1708 1.356 . S
N1706 H1718 0.984 . S
N1706 H1719 0.985 . S
N1707 C1709 1.356 . S
N1707 H1712 0.984 . S
N1707 H1713 0.985 . S
C1708 C1702 1.379 . S
C1708 C1705 1.363 . S
C1708 N1706 1.356 . S
C1709 C1703 1.363 . S
C1709 C1704 1.379 . S
C1709 N1707 1.356 . S
N1710 C1702 1.356 . S
N1710 H1716 0.984 . S
N1710 H1717 0.984 . S
N1711 C1704 1.356 . S
N1711 H1714 0.984 . S
N1711 H1715 0.985 . S
H1712 N1707 0.984 . S
H1713 N1707 0.985 . S
H1714 N1711 0.984 . S
H1715 N1711 0.985 . S
H1716 N1710 0.984 . S
H1717 N1710 0.984 . S
H1718 N1706 0.984 . S
H1719 N1706 0.985 . S
C1720 C1721 1.363 . S
C1720 C1726 1.379 . S
C1720 N1728 1.356 . S
C1721 C1720 1.363 . S
C1721 C1727 1.363 . S
C1722 C1723 1.363 . S
C1722 C1727 1.379 . S
C1722 N1729 1.356 . S
C1723 C1722 1.363 . S
C1723 C1726 1.363 . S
N1724 C1726 1.356 . S
N1724 H1736 0.984 . S
N1724 H1737 0.985 . S
N1725 C1727 1.356 1_655 S
N1725 H1730 0.984 . S
N1725 H1731 0.985 . S
C1726 C1720 1.379 . S
C1726 C1723 1.363 . S
C1726 N1724 1.356 . S
C1727 C1721 1.363 . S
C1727 C1722 1.379 . S
C1727 N1725 1.356 1_455 S
N1728 C1720 1.356 . S
N1728 H1734 0.984 . S
N1728 H1735 0.984 . S
N1729 C1722 1.356 . S
N1729 H1732 0.984 . S
N1729 H1733 0.985 1_545 S
H1730 N1725 0.984 . S
H1731 N1725 0.985 . S
H1732 N1729 0.984 . S
H1733 N1729 0.985 1_565 S
H1734 N1728 0.984 . S
H1735 N1728 0.984 . S
H1736 N1724 0.984 . S
H1737 N1724 0.985 . S
C1738 C1739 1.363 . S
C1738 C1744 1.379 . S
C1738 N1746 1.356 . S
C1739 C1738 1.363 . S
C1739 C1745 1.363 . S
C1740 C1741 1.363 . S
C1740 C1745 1.379 . S
C1740 N1747 1.356 . S
C1741 C1740 1.363 . S
C1741 C1744 1.363 . S
N1742 C1744 1.356 . S
N1742 H1754 0.984 . S
N1742 H1755 0.985 . S
N1743 C1745 1.356 . S
N1743 H1748 0.984 . S
N1743 H1749 0.985 . S
C1744 C1738 1.379 . S
C1744 C1741 1.363 . S
C1744 N1742 1.356 . S
C1745 C1739 1.363 . S
C1745 C1740 1.379 . S
C1745 N1743 1.356 . S
N1746 C1738 1.356 . S
N1746 H1752 0.984 . S
N1746 H1753 0.984 . S
N1747 C1740 1.356 . S
N1747 H1750 0.984 . S
N1747 H1751 0.985 . S
H1748 N1743 0.984 . S
H1749 N1743 0.985 . S
H1750 N1747 0.984 . S
H1751 N1747 0.985 . S
H1752 N1746 0.984 . S
H1753 N1746 0.984 . S
H1754 N1742 0.984 . S
H1755 N1742 0.985 . S
C1756 C1757 1.363 . S
C1756 C1762 1.379 . S
C1756 N1764 1.356 . S
C1757 C1756 1.363 . S
C1757 C1763 1.363 . S
C1758 C1759 1.363 . S
C1758 C1763 1.379 . S
C1758 N1765 1.356 . S
C1759 C1758 1.363 . S
C1759 C1762 1.363 . S
N1760 C1762 1.356 . S
N1760 H1772 0.984 . S
N1760 H1773 0.985 . S
N1761 C1763 1.356 . S
N1761 H1766 0.984 . S
N1761 H1767 0.985 . S
C1762 C1756 1.379 . S
C1762 C1759 1.363 . S
C1762 N1760 1.356 . S
C1763 C1757 1.363 . S
C1763 C1758 1.379 . S
C1763 N1761 1.356 . S
N1764 C1756 1.356 . S
N1764 H1770 0.984 . S
N1764 H1771 0.984 . S
N1765 C1758 1.356 . S
N1765 H1768 0.984 . S
N1765 H1769 0.985 . S
H1766 N1761 0.984 . S
H1767 N1761 0.985 . S
H1768 N1765 0.984 . S
H1769 N1765 0.985 . S
H1770 N1764 0.984 . S
H1771 N1764 0.984 . S
H1772 N1760 0.984 . S
H1773 N1760 0.985 . S
C1774 C1775 1.363 . S
C1774 C1780 1.379 . S
C1774 N1782 1.356 . S
C1775 C1774 1.363 . S
C1775 C1781 1.363 . S
C1776 C1777 1.363 . S
C1776 C1781 1.379 . S
C1776 N1783 1.356 . S
C1777 C1776 1.363 . S
C1777 C1780 1.363 . S
N1778 C1780 1.356 . S
N1778 H1790 0.984 . S
N1778 H1791 0.985 . S
N1779 C1781 1.356 . S
N1779 H1784 0.984 . S
N1779 H1785 0.985 . S
C1780 C1774 1.379 . S
C1780 C1777 1.363 . S
C1780 N1778 1.356 . S
C1781 C1775 1.363 . S
C1781 C1776 1.379 . S
C1781 N1779 1.356 . S
N1782 C1774 1.356 . S
N1782 H1788 0.984 . S
N1782 H1789 0.984 . S
N1783 C1776 1.356 . S
N1783 H1786 0.984 . S
N1783 H1787 0.985 . S
H1784 N1779 0.984 . S
H1785 N1779 0.985 . S
H1786 N1783 0.984 . S
H1787 N1783 0.985 . S
H1788 N1782 0.984 . S
H1789 N1782 0.984 . S
H1790 N1778 0.984 . S
H1791 N1778 0.985 . S
C1792 C1793 1.363 1_545 S
C1792 C1798 1.379 . S
C1792 N1800 1.356 . S
C1793 C1792 1.363 1_565 S
C1793 C1799 1.363 . S
C1794 C1795 1.363 . S
C1794 C1799 1.379 . S
C1794 N1801 1.356 . S
C1795 C1794 1.363 . S
C1795 C1798 1.363 1_565 S
N1796 C1798 1.356 . S
N1796 H1808 0.984 . S
N1796 H1809 0.985 . S
N1797 C1799 1.356 . S
N1797 H1802 0.984 1_554 S
N1797 H1803 0.985 . S
C1798 C1792 1.379 . S
C1798 C1795 1.363 1_545 S
C1798 N1796 1.356 . S
C1799 C1793 1.363 . S
C1799 C1794 1.379 . S
C1799 N1797 1.356 . S
N1800 C1792 1.356 . S
N1800 H1806 0.984 . S
N1800 H1807 0.984 . S
N1801 C1794 1.356 . S
N1801 H1804 0.984 . S
N1801 H1805 0.985 . S
H1802 N1797 0.984 1_556 S
H1803 N1797 0.985 . S
H1804 N1801 0.984 . S
H1805 N1801 0.985 . S
H1806 N1800 0.984 . S
H1807 N1800 0.984 . S
H1808 N1796 0.984 . S
H1809 N1796 0.985 . S
C1810 C1811 1.363 1_556 S
C1810 C1816 1.379 . S
C1810 N1818 1.356 . S
C1811 C1810 1.363 1_554 S
C1811 C1817 1.363 . S
C1812 C1813 1.363 . S
C1812 C1817 1.379 . S
C1812 N1819 1.356 . S
C1813 C1812 1.363 . S
C1813 C1816 1.363 1_554 S
N1814 C1816 1.356 . S
N1814 H1826 0.984 . S
N1814 H1827 0.985 . S
N1815 C1817 1.356 . S
N1815 H1820 0.984 . S
N1815 H1821 0.985 . S
C1816 C1810 1.379 . S
C1816 C1813 1.363 1_556 S
C1816 N1814 1.356 . S
C1817 C1811 1.363 . S
C1817 C1812 1.379 . S
C1817 N1815 1.356 . S
N1818 C1810 1.356 . S
N1818 H1824 0.984 . S
N1818 H1825 0.984 . S
N1819 C1812 1.356 . S
N1819 H1822 0.984 . S
N1819 H1823 0.985 . S
H1820 N1815 0.984 . S
H1821 N1815 0.985 . S
H1822 N1819 0.984 . S
H1823 N1819 0.985 . S
H1824 N1818 0.984 . S
H1825 N1818 0.984 . S
H1826 N1814 0.984 . S
H1827 N1814 0.985 . S
C1828 C1829 1.363 . S
C1828 C1834 1.379 . S
C1828 N1836 1.356 . S
C1829 C1828 1.363 . S
C1829 C1835 1.363 . S
C1830 C1831 1.363 . S
C1830 C1835 1.379 . S
C1830 N1837 1.356 . S
C1831 C1830 1.363 . S
C1831 C1834 1.363 . S
N1832 C1834 1.356 . S
N1832 H1844 0.984 . S
N1832 H1845 0.985 . S
N1833 C1835 1.356 . S
N1833 H1838 0.984 . S
N1833 H1839 0.985 . S
C1834 C1828 1.379 . S
C1834 C1831 1.363 . S
C1834 N1832 1.356 . S
C1835 C1829 1.363 . S
C1835 C1830 1.379 . S
C1835 N1833 1.356 . S
N1836 C1828 1.356 . S
N1836 H1842 0.984 . S
N1836 H1843 0.984 . S
N1837 C1830 1.356 . S
N1837 H1840 0.984 . S
N1837 H1841 0.985 . S
H1838 N1833 0.984 . S
H1839 N1833 0.985 . S
H1840 N1837 0.984 . S
H1841 N1837 0.985 . S
H1842 N1836 0.984 . S
H1843 N1836 0.984 . S
H1844 N1832 0.984 . S
H1845 N1832 0.985 . S
C1846 C1847 1.363 . S
C1846 C1852 1.379 . S
C1846 N1854 1.356 . S
C1847 C1846 1.363 . S
C1847 C1853 1.363 . S
C1848 C1849 1.363 . S
C1848 C1853 1.379 . S
C1848 N1855 1.356 1_655 S
C1849 C1848 1.363 . S
C1849 C1852 1.363 . S
N1850 C1852 1.356 . S
N1850 H1862 0.984 . S
N1850 H1863 0.985 1_655 S
N1851 C1853 1.356 . S
N1851 H1856 0.984 . S
N1851 H1857 0.985 . S
C1852 C1846 1.379 . S
C1852 C1849 1.363 . S
C1852 N1850 1.356 . S
C1853 C1847 1.363 . S
C1853 C1848 1.379 . S
C1853 N1851 1.356 . S
N1854 C1846 1.356 . S
N1854 H1860 0.984 . S
N1854 H1861 0.984 . S
N1855 C1848 1.356 1_455 S
N1855 H1858 0.984 . S
N1855 H1859 0.985 . S
H1856 N1851 0.984 . S
H1857 N1851 0.985 . S
H1858 N1855 0.984 . S
H1859 N1855 0.985 . S
H1860 N1854 0.984 . S
H1861 N1854 0.984 . S
H1862 N1850 0.984 . S
H1863 N1850 0.985 1_455 S
C1864 C1865 1.363 . S
C1864 C1870 1.379 . S
C1864 N1872 1.356 . S
C1865 C1864 1.363 . S
C1865 C1871 1.363 . S
C1866 C1867 1.363 . S
C1866 C1871 1.379 . S
C1866 N1873 1.356 . S
C1867 C1866 1.363 . S
C1867 C1870 1.363 . S
N1868 C1870 1.356 . S
N1868 H1880 0.984 . S
N1868 H1881 0.985 . S
N1869 C1871 1.356 . S
N1869 H1874 0.984 . S
N1869 H1875 0.985 . S
C1870 C1864 1.379 . S
C1870 C1867 1.363 . S
C1870 N1868 1.356 . S
C1871 C1865 1.363 . S
C1871 C1866 1.379 . S
C1871 N1869 1.356 . S
N1872 C1864 1.356 . S
N1872 H1878 0.984 . S
N1872 H1879 0.984 . S
N1873 C1866 1.356 . S
N1873 H1876 0.984 . S
N1873 H1877 0.985 . S
H1874 N1869 0.984 . S
H1875 N1869 0.985 . S
H1876 N1873 0.984 . S
H1877 N1873 0.985 . S
H1878 N1872 0.984 . S
H1879 N1872 0.984 . S
H1880 N1868 0.984 . S
H1881 N1868 0.985 . S
C1882 C1883 1.363 . S
C1882 C1888 1.379 . S
C1882 N1890 1.356 . S
C1883 C1882 1.363 . S
C1883 C1889 1.363 . S
C1884 C1885 1.363 . S
C1884 C1889 1.379 . S
C1884 N1891 1.356 . S
C1885 C1884 1.363 . S
C1885 C1888 1.363 . S
N1886 C1888 1.356 . S
N1886 H1898 0.984 . S
N1886 H1899 0.985 . S
N1887 C1889 1.356 . S
N1887 H1892 0.984 . S
N1887 H1893 0.985 . S
C1888 C1882 1.379 . S
C1888 C1885 1.363 . S
C1888 N1886 1.356 . S
C1889 C1883 1.363 . S
C1889 C1884 1.379 . S
C1889 N1887 1.356 . S
N1890 C1882 1.356 . S
N1890 H1896 0.984 . S
N1890 H1897 0.984 . S
N1891 C1884 1.356 . S
N1891 H1894 0.984 . S
N1891 H1895 0.985 . S
H1892 N1887 0.984 . S
H1893 N1887 0.985 . S
H1894 N1891 0.984 . S
H1895 N1891 0.985 . S
H1896 N1890 0.984 . S
H1897 N1890 0.984 . S
H1898 N1886 0.984 . S
H1899 N1886 0.985 . S
C1900 C1901 1.363 . S
C1900 C1906 1.379 . S
C1900 N1908 1.356 . S
C1901 C1900 1.363 . S
C1901 C1907 1.363 . S
C1902 C1903 1.363 . S
C1902 C1907 1.379 . S
C1902 N1909 1.356 . S
C1903 C1902 1.363 . S
C1903 C1906 1.363 . S
N1904 C1906 1.356 . S
N1904 H1916 0.984 . S
N1904 H1917 0.985 . S
N1905 C1907 1.356 . S
N1905 H1910 0.984 . S
N1905 H1911 0.985 . S
C1906 C1900 1.379 . S
C1906 C1903 1.363 . S
C1906 N1904 1.356 . S
C1907 C1901 1.363 . S
C1907 C1902 1.379 . S
C1907 N1905 1.356 . S
N1908 C1900 1.356 . S
N1908 H1914 0.984 . S
N1908 H1915 0.984 . S
N1909 C1902 1.356 . S
N1909 H1912 0.984 . S
N1909 H1913 0.985 . S
H1910 N1905 0.984 . S
H1911 N1905 0.985 . S
H1912 N1909 0.984 . S
H1913 N1909 0.985 . S
H1914 N1908 0.984 . S
H1915 N1908 0.984 . S
H1916 N1904 0.984 . S
H1917 N1904 0.985 . S
C1918 C1919 1.363 . S
C1918 C1924 1.379 . S
C1918 N1926 1.356 . S
C1919 C1918 1.363 . S
C1919 C1925 1.363 . S
C1920 C1921 1.363 . S
C1920 C1925 1.379 . S
C1920 N1927 1.356 . S
C1921 C1920 1.363 . S
C1921 C1924 1.363 . S
N1922 C1924 1.356 . S
N1922 H1934 0.984 . S
N1922 H1935 0.985 . S
N1923 C1925 1.356 . S
N1923 H1928 0.984 . S
N1923 H1929 0.985 . S
C1924 C1918 1.379 . S
C1924 C1921 1.363 . S
C1924 N1922 1.356 . S
C1925 C1919 1.363 . S
C1925 C1920 1.379 . S
C1925 N1923 1.356 . S
N1926 C1918 1.356 . S
N1926 H1932 0.984 . S
N1926 H1933 0.984 . S
N1927 C1920 1.356 . S
N1927 H1930 0.984 . S
N1927 H1931 0.985 . S
H1928 N1923 0.984 . S
H1929 N1923 0.985 . S
H1930 N1927 0.984 . S
H1931 N1927 0.985 . S
H1932 N1926 0.984 . S
H1933 N1926 0.984 . S
H1934 N1922 0.984 . S
H1935 N1922 0.985 . S
C1936 C1937 1.363 . S
C1936 C1942 1.379 . S
C1936 N1944 1.356 . S
C1937 C1936 1.363 . S
C1937 C1943 1.363 . S
C1938 C1939 1.363 . S
C1938 C1943 1.379 . S
C1938 N1945 1.356 . S
C1939 C1938 1.363 . S
C1939 C1942 1.363 . S
N1940 C1942 1.356 . S
N1940 H1952 0.984 . S
N1940 H1953 0.985 . S
N1941 C1943 1.356 . S
N1941 H1946 0.984 . S
N1941 H1947 0.985 . S
C1942 C1936 1.379 . S
C1942 C1939 1.363 . S
C1942 N1940 1.356 . S
C1943 C1937 1.363 . S
C1943 C1938 1.379 . S
C1943 N1941 1.356 . S
N1944 C1936 1.356 . S
N1944 H1950 0.984 . S
N1944 H1951 0.984 . S
N1945 C1938 1.356 . S
N1945 H1948 0.984 . S
N1945 H1949 0.985 . S
H1946 N1941 0.984 . S
H1947 N1941 0.985 . S
H1948 N1945 0.984 . S
H1949 N1945 0.985 . S
H1950 N1944 0.984 . S
H1951 N1944 0.984 . S
H1952 N1940 0.984 . S
H1953 N1940 0.985 . S
C1954 C1955 1.363 . S
C1954 C1960 1.379 . S
C1954 N1962 1.356 . S
C1955 C1954 1.363 . S
C1955 C1961 1.363 . S
C1956 C1957 1.363 . S
C1956 C1961 1.379 . S
C1956 N1963 1.356 . S
C1957 C1956 1.363 . S
C1957 C1960 1.363 . S
N1958 C1960 1.356 . S
N1958 H1970 0.984 . S
N1958 H1971 0.985 . S
N1959 C1961 1.356 . S
N1959 H1964 0.984 . S
N1959 H1965 0.985 . S
C1960 C1954 1.379 . S
C1960 C1957 1.363 . S
C1960 N1958 1.356 . S
C1961 C1955 1.363 . S
C1961 C1956 1.379 . S
C1961 N1959 1.356 . S
N1962 C1954 1.356 . S
N1962 H1968 0.984 . S
N1962 H1969 0.984 . S
N1963 C1956 1.356 . S
N1963 H1966 0.984 . S
N1963 H1967 0.985 . S
H1964 N1959 0.984 . S
H1965 N1959 0.985 . S
H1966 N1963 0.984 . S
H1967 N1963 0.985 . S
H1968 N1962 0.984 . S
H1969 N1962 0.984 . S
H1970 N1958 0.984 . S
H1971 N1958 0.985 . S
C1972 C1973 1.363 . S
C1972 C1978 1.379 . S
C1972 N1980 1.356 . S
C1973 C1972 1.363 . S
C1973 C1979 1.363 . S
C1974 C1975 1.363 . S
C1974 C1979 1.379 . S
C1974 N1981 1.356 . S
C1975 C1974 1.363 . S
C1975 C1978 1.363 . S
N1976 C1978 1.356 . S
N1976 H1988 0.984 . S
N1976 H1989 0.985 . S
N1977 C1979 1.356 . S
N1977 H1982 0.984 . S
N1977 H1983 0.985 . S
C1978 C1972 1.379 . S
C1978 C1975 1.363 . S
C1978 N1976 1.356 . S
C1979 C1973 1.363 . S
C1979 C1974 1.379 . S
C1979 N1977 1.356 . S
N1980 C1972 1.356 . S
N1980 H1986 0.984 . S
N1980 H1987 0.984 . S
N1981 C1974 1.356 . S
N1981 H1984 0.984 . S
N1981 H1985 0.985 . S
H1982 N1977 0.984 . S
H1983 N1977 0.985 . S
H1984 N1981 0.984 . S
H1985 N1981 0.985 . S
H1986 N1980 0.984 . S
H1987 N1980 0.984 . S
H1988 N1976 0.984 . S
H1989 N1976 0.985 . S
C1990 C1991 1.363 . S
C1990 C1996 1.379 . S
C1990 N1998 1.356 . S
C1991 C1990 1.363 . S
C1991 C1997 1.363 . S
C1992 C1993 1.363 . S
C1992 C1997 1.379 . S
C1992 N1999 1.356 . S
C1993 C1992 1.363 . S
C1993 C1996 1.363 . S
N1994 C1996 1.356 . S
N1994 H2006 0.984 . S
N1994 H2007 0.985 . S
N1995 C1997 1.356 . S
N1995 H2000 0.984 . S
N1995 H2001 0.985 . S
C1996 C1990 1.379 . S
C1996 C1993 1.363 . S
C1996 N1994 1.356 . S
C1997 C1991 1.363 . S
C1997 C1992 1.379 . S
C1997 N1995 1.356 . S
N1998 C1990 1.356 . S
N1998 H2004 0.984 . S
N1998 H2005 0.984 . S
N1999 C1992 1.356 . S
N1999 H2002 0.984 . S
N1999 H2003 0.985 . S
H2000 N1995 0.984 . S
H2001 N1995 0.985 . S
H2002 N1999 0.984 . S
H2003 N1999 0.985 . S
H2004 N1998 0.984 . S
H2005 N1998 0.984 . S
H2006 N1994 0.984 . S
H2007 N1994 0.985 . S
C2008 C2009 1.363 . S
C2008 C2014 1.379 . S
C2008 N2016 1.356 . S
C2009 C2008 1.363 . S
C2009 C2015 1.363 . S
C2010 C2011 1.363 . S
C2010 C2015 1.379 . S
C2010 N2017 1.356 . S
C2011 C2010 1.363 . S
C2011 C2014 1.363 . S
N2012 C2014 1.356 . S
N2012 H2024 0.984 . S
N2012 H2025 0.985 . S
N2013 C2015 1.356 . S
N2013 H2018 0.984 . S
N2013 H2019 0.985 . S
C2014 C2008 1.379 . S
C2014 C2011 1.363 . S
C2014 N2012 1.356 . S
C2015 C2009 1.363 . S
C2015 C2010 1.379 . S
C2015 N2013 1.356 . S
N2016 C2008 1.356 . S
N2016 H2022 0.984 . S
N2016 H2023 0.984 . S
N2017 C2010 1.356 . S
N2017 H2020 0.984 . S
N2017 H2021 0.985 . S
H2018 N2013 0.984 . S
H2019 N2013 0.985 . S
H2020 N2017 0.984 . S
H2021 N2017 0.985 . S
H2022 N2016 0.984 . S
H2023 N2016 0.984 . S
H2024 N2012 0.984 . S
H2025 N2012 0.985 . S
C2026 C2027 1.363 . S
C2026 C2032 1.379 . S
C2026 N2034 1.356 . S
C2027 C2026 1.363 . S
C2027 C2033 1.363 . S
C2028 C2029 1.363 . S
C2028 C2033 1.379 . S
C2028 N2035 1.356 . S
C2029 C2028 1.363 . S
C2029 C2032 1.363 . S
N2030 C2032 1.356 . S
N2030 H2042 0.984 . S
N2030 H2043 0.985 . S
N2031 C2033 1.356 . S
N2031 H2036 0.984 . S
N2031 H2037 0.985 . S
C2032 C2026 1.379 . S
C2032 C2029 1.363 . S
C2032 N2030 1.356 . S
C2033 C2027 1.363 . S
C2033 C2028 1.379 . S
C2033 N2031 1.356 . S
N2034 C2026 1.356 . S
N2034 H2040 0.984 . S
N2034 H2041 0.984 . S
N2035 C2028 1.356 . S
N2035 H2038 0.984 . S
N2035 H2039 0.985 . S
H2036 N2031 0.984 . S
H2037 N2031 0.985 . S
H2038 N2035 0.984 . S
H2039 N2035 0.985 . S
H2040 N2034 0.984 . S
H2041 N2034 0.984 . S
H2042 N2030 0.984 . S
H2043 N2030 0.985 . S
C2044 C2045 1.363 . S
C2044 C2050 1.379 . S
C2044 N2052 1.356 . S
C2045 C2044 1.363 . S
C2045 C2051 1.363 . S
C2046 C2047 1.363 . S
C2046 C2051 1.379 . S
C2046 N2053 1.356 1_566 S
C2047 C2046 1.363 . S
C2047 C2050 1.363 . S
N2048 C2050 1.356 . S
N2048 H2060 0.984 . S
N2048 H2061 0.985 . S
N2049 C2051 1.356 . S
N2049 H2054 0.984 . S
N2049 H2055 0.985 1_565 S
C2050 C2044 1.379 . S
C2050 C2047 1.363 . S
C2050 N2048 1.356 . S
C2051 C2045 1.363 . S
C2051 C2046 1.379 . S
C2051 N2049 1.356 . S
N2052 C2044 1.356 . S
N2052 H2058 0.984 . S
N2052 H2059 0.984 . S
N2053 C2046 1.356 1_544 S
N2053 H2056 0.984 . S
N2053 H2057 0.985 . S
H2054 N2049 0.984 . S
H2055 N2049 0.985 1_545 S
H2056 N2053 0.984 . S
H2057 N2053 0.985 . S
H2058 N2052 0.984 . S
H2059 N2052 0.984 . S
H2060 N2048 0.984 . S
H2061 N2048 0.985 . S
C2062 C2063 1.363 . S
C2062 C2068 1.379 . S
C2062 N2070 1.356 . S
C2063 C2062 1.363 . S
C2063 C2069 1.363 . S
C2064 C2065 1.363 . S
C2064 C2069 1.379 . S
C2064 N2071 1.356 . S
C2065 C2064 1.363 . S
C2065 C2068 1.363 . S
N2066 C2068 1.356 . S
N2066 H2078 0.984 . S
N2066 H2079 0.985 . S
N2067 C2069 1.356 . S
N2067 H2072 0.984 . S
N2067 H2073 0.985 . S
C2068 C2062 1.379 . S
C2068 C2065 1.363 . S
C2068 N2066 1.356 . S
C2069 C2063 1.363 . S
C2069 C2064 1.379 . S
C2069 N2067 1.356 . S
N2070 C2062 1.356 . S
N2070 H2076 0.984 . S
N2070 H2077 0.984 . S
N2071 C2064 1.356 . S
N2071 H2074 0.984 . S
N2071 H2075 0.985 . S
H2072 N2067 0.984 . S
H2073 N2067 0.985 . S
H2074 N2071 0.984 . S
H2075 N2071 0.985 . S
H2076 N2070 0.984 . S
H2077 N2070 0.984 . S
H2078 N2066 0.984 . S
H2079 N2066 0.985 . S
C2080 C2081 1.363 1_565 S
C2080 C2086 1.379 . S
C2080 N2088 1.356 . S
C2081 C2080 1.363 1_545 S
C2081 C2087 1.363 . S
C2082 C2083 1.363 . S
C2082 C2087 1.379 . S
C2082 N2089 1.356 . S
C2083 C2082 1.363 . S
C2083 C2086 1.363 1_545 S
N2084 C2086 1.356 . S
N2084 H2096 0.984 . S
N2084 H2097 0.985 . S
N2085 C2087 1.356 . S
N2085 H2090 0.984 . S
N2085 H2091 0.985 . S
C2086 C2080 1.379 . S
C2086 C2083 1.363 1_565 S
C2086 N2084 1.356 . S
C2087 C2081 1.363 . S
C2087 C2082 1.379 . S
C2087 N2085 1.356 . S
N2088 C2080 1.356 . S
N2088 H2094 0.984 . S
N2088 H2095 0.984 . S
N2089 C2082 1.356 . S
N2089 H2092 0.984 . S
N2089 H2093 0.985 . S
H2090 N2085 0.984 . S
H2091 N2085 0.985 . S
H2092 N2089 0.984 . S
H2093 N2089 0.985 . S
H2094 N2088 0.984 . S
H2095 N2088 0.984 . S
H2096 N2084 0.984 . S
H2097 N2084 0.985 . S
C2098 C2099 1.363 . S
C2098 C2104 1.379 . S
C2098 N2106 1.356 . S
C2099 C2098 1.363 . S
C2099 C2105 1.363 . S
C2100 C2101 1.363 . S
C2100 C2105 1.379 . S
C2100 N2107 1.356 . S
C2101 C2100 1.363 . S
C2101 C2104 1.363 . S
N2102 C2104 1.356 . S
N2102 H2114 0.984 . S
N2102 H2115 0.985 . S
N2103 C2105 1.356 . S
N2103 H2108 0.984 . S
N2103 H2109 0.985 . S
C2104 C2098 1.379 . S
C2104 C2101 1.363 . S
C2104 N2102 1.356 . S
C2105 C2099 1.363 . S
C2105 C2100 1.379 . S
C2105 N2103 1.356 . S
N2106 C2098 1.356 . S
N2106 H2112 0.984 . S
N2106 H2113 0.984 . S
N2107 C2100 1.356 . S
N2107 H2110 0.984 . S
N2107 H2111 0.985 . S
H2108 N2103 0.984 . S
H2109 N2103 0.985 . S
H2110 N2107 0.984 . S
H2111 N2107 0.985 . S
H2112 N2106 0.984 . S
H2113 N2106 0.984 . S
H2114 N2102 0.984 . S
H2115 N2102 0.985 . S
C2116 C2117 1.363 . S
C2116 C2122 1.379 . S
C2116 N2124 1.356 1_545 S
C2117 C2116 1.363 . S
C2117 C2123 1.363 . S
C2118 C2119 1.363 . S
C2118 C2123 1.379 . S
C2118 N2125 1.356 . S
C2119 C2118 1.363 . S
C2119 C2122 1.363 . S
N2120 C2122 1.356 . S
N2120 H2132 0.984 1_545 S
N2120 H2133 0.985 . S
N2121 C2123 1.356 . S
N2121 H2126 0.984 . S
N2121 H2127 0.985 . S
C2122 C2116 1.379 . S
C2122 C2119 1.363 . S
C2122 N2120 1.356 . S
C2123 C2117 1.363 . S
C2123 C2118 1.379 . S
C2123 N2121 1.356 . S
N2124 C2116 1.356 1_565 S
N2124 H2130 0.984 . S
N2124 H2131 0.984 . S
N2125 C2118 1.356 . S
N2125 H2128 0.984 . S
N2125 H2129 0.985 . S
H2126 N2121 0.984 . S
H2127 N2121 0.985 . S
H2128 N2125 0.984 . S
H2129 N2125 0.985 . S
H2130 N2124 0.984 . S
H2131 N2124 0.984 . S
H2132 N2120 0.984 1_565 S
H2133 N2120 0.985 . S
C2134 C2135 1.363 . S
C2134 C2140 1.379 . S
C2134 N2142 1.356 . S
C2135 C2134 1.363 . S
C2135 C2141 1.363 . S
C2136 C2137 1.363 . S
C2136 C2141 1.379 . S
C2136 N2143 1.356 . S
C2137 C2136 1.363 . S
C2137 C2140 1.363 . S
N2138 C2140 1.356 . S
N2138 H2150 0.984 . S
N2138 H2151 0.985 . S
N2139 C2141 1.356 . S
N2139 H2144 0.984 . S
N2139 H2145 0.985 . S
C2140 C2134 1.379 . S
C2140 C2137 1.363 . S
C2140 N2138 1.356 . S
C2141 C2135 1.363 . S
C2141 C2136 1.379 . S
C2141 N2139 1.356 . S
N2142 C2134 1.356 . S
N2142 H2148 0.984 . S
N2142 H2149 0.984 . S
N2143 C2136 1.356 . S
N2143 H2146 0.984 . S
N2143 H2147 0.985 . S
H2144 N2139 0.984 . S
H2145 N2139 0.985 . S
H2146 N2143 0.984 . S
H2147 N2143 0.985 . S
H2148 N2142 0.984 . S
H2149 N2142 0.984 . S
H2150 N2138 0.984 . S
H2151 N2138 0.985 . S
C2152 C2153 1.363 . S
C2152 C2158 1.379 . S
C2152 N2160 1.356 . S
C2153 C2152 1.363 . S
C2153 C2159 1.363 1_545 S
C2154 C2155 1.363 . S
C2154 C2159 1.379 1_545 S
C2154 N2161 1.356 1_545 S
C2155 C2154 1.363 . S
C2155 C2158 1.363 . S
N2156 C2158 1.356 . S
N2156 H2168 0.984 . S
N2156 H2169 0.985 . S
N2157 C2159 1.356 . S
N2157 H2162 0.984 . S
N2157 H2163 0.985 . S
C2158 C2152 1.379 . S
C2158 C2155 1.363 . S
C2158 N2156 1.356 . S
C2159 C2153 1.363 1_565 S
C2159 C2154 1.379 1_565 S
C2159 N2157 1.356 . S
N2160 C2152 1.356 . S
N2160 H2166 0.984 . S
N2160 H2167 0.984 . S
N2161 C2154 1.356 1_565 S
N2161 H2164 0.984 1_565 S
N2161 H2165 0.985 . S
H2162 N2157 0.984 . S
H2163 N2157 0.985 . S
H2164 N2161 0.984 1_545 S
H2165 N2161 0.985 . S
H2166 N2160 0.984 . S
H2167 N2160 0.984 . S
H2168 N2156 0.984 . S
H2169 N2156 0.985 . S
C2170 C2171 1.363 . S
C2170 C2176 1.379 . S
C2170 N2178 1.356 . S
C2171 C2170 1.363 . S
C2171 C2177 1.363 . S
C2172 C2173 1.363 . S
C2172 C2177 1.379 . S
C2172 N2179 1.356 . S
C2173 C2172 1.363 . S
C2173 C2176 1.363 . S
N2174 C2176 1.356 . S
N2174 H2186 0.984 . S
N2174 H2187 0.985 . S
N2175 C2177 1.356 . S
N2175 H2180 0.984 . S
N2175 H2181 0.985 . S
C2176 C2170 1.379 . S
C2176 C2173 1.363 . S
C2176 N2174 1.356 . S
C2177 C2171 1.363 . S
C2177 C2172 1.379 . S
C2177 N2175 1.356 . S
N2178 C2170 1.356 . S
N2178 H2184 0.984 . S
N2178 H2185 0.984 . S
N2179 C2172 1.356 . S
N2179 H2182 0.984 . S
N2179 H2183 0.985 . S
H2180 N2175 0.984 . S
H2181 N2175 0.985 . S
H2182 N2179 0.984 . S
H2183 N2179 0.985 . S
H2184 N2178 0.984 . S
H2185 N2178 0.984 . S
H2186 N2174 0.984 . S
H2187 N2174 0.985 . S
C2188 C2189 1.349 1_545 S
C2188 C2194 1.379 1_545 S
C2188 N2196 1.356 . S
C2189 C2188 1.349 1_565 S
C2189 C2195 1.385 . S
C2190 C2191 1.363 . S
C2190 C2195 1.379 . S
C2190 N2197 1.356 . S
C2191 C2190 1.363 . S
C2191 C2194 1.363 . S
N2192 C2194 1.356 . S
N2192 H2204 0.984 1_565 S
N2192 H2205 0.985 . S
N2193 C2195 1.356 . S
N2193 H2198 0.984 . S
N2193 H2199 0.985 . S
C2194 C2188 1.379 1_565 S
C2194 C2191 1.363 . S
C2194 N2192 1.356 . S
C2195 C2189 1.385 . S
C2195 C2190 1.379 . S
C2195 N2193 1.356 . S
N2196 C2188 1.356 . S
N2196 H2202 0.984 . S
N2196 H2203 0.984 . S
N2197 C2190 1.356 . S
N2197 H2200 0.984 . S
N2197 H2201 0.985 . S
H2198 N2193 0.984 . S
H2199 N2193 0.985 . S
H2200 N2197 0.984 . S
H2201 N2197 0.985 . S
H2202 N2196 0.984 . S
H2203 N2196 0.984 . S
H2204 N2192 0.984 1_545 S
H2205 N2192 0.985 . S
C2206 C2207 1.363 . S
C2206 C2212 1.379 . S
C2206 N2214 1.356 . S
C2207 C2206 1.363 . S
C2207 C2213 1.363 . S
C2208 C2209 1.363 . S
C2208 C2213 1.379 . S
C2208 N2215 1.356 . S
C2209 C2208 1.363 . S
C2209 C2212 1.363 . S
N2210 C2212 1.356 . S
N2210 H2222 0.984 . S
N2210 H2223 0.985 . S
N2211 C2213 1.356 . S
N2211 H2216 0.984 . S
N2211 H2217 0.985 . S
C2212 C2206 1.379 . S
C2212 C2209 1.363 . S
C2212 N2210 1.356 . S
C2213 C2207 1.363 . S
C2213 C2208 1.379 . S
C2213 N2211 1.356 . S
N2214 C2206 1.356 . S
N2214 H2220 0.984 . S
N2214 H2221 0.984 . S
N2215 C2208 1.356 . S
N2215 H2218 0.984 . S
N2215 H2219 0.985 . S
H2216 N2211 0.984 . S
H2217 N2211 0.985 . S
H2218 N2215 0.984 . S
H2219 N2215 0.985 . S
H2220 N2214 0.984 . S
H2221 N2214 0.984 . S
H2222 N2210 0.984 . S
H2223 N2210 0.985 . S
C2224 C2225 1.363 1_556 S
C2224 C2230 1.379 . S
C2224 N2232 1.356 1_556 S
C2225 C2224 1.363 1_554 S
C2225 C2231 1.363 . S
C2226 C2227 1.363 . S
C2226 C2231 1.379 1_556 S
C2226 N2233 1.356 . S
C2227 C2226 1.363 . S
C2227 C2230 1.363 . S
N2228 C2230 1.356 . S
N2228 H2240 0.984 . S
N2228 H2241 0.985 . S
N2229 C2231 1.356 . S
N2229 H2234 0.984 . S
N2229 H2235 0.985 . S
C2230 C2224 1.379 . S
C2230 C2227 1.363 . S
C2230 N2228 1.356 . S
C2231 C2225 1.363 . S
C2231 C2226 1.379 1_554 S
C2231 N2229 1.356 . S
N2232 C2224 1.356 1_554 S
N2232 H2238 0.984 1_554 S
N2232 H2239 0.984 . S
N2233 C2226 1.356 . S
N2233 H2236 0.984 . S
N2233 H2237 0.985 1_556 S
H2234 N2229 0.984 . S
H2235 N2229 0.985 . S
H2236 N2233 0.984 . S
H2237 N2233 0.985 1_554 S
H2238 N2232 0.984 1_556 S
H2239 N2232 0.984 . S
H2240 N2228 0.984 . S
H2241 N2228 0.985 . S
C2242 C2243 1.363 . S
C2242 C2248 1.379 . S
C2242 N2250 1.356 . S
C2243 C2242 1.363 . S
C2243 C2249 1.363 . S
C2244 C2245 1.363 . S
C2244 C2249 1.379 . S
C2244 N2251 1.356 . S
C2245 C2244 1.363 . S
C2245 C2248 1.363 . S
N2246 C2248 1.356 . S
N2246 H2258 0.984 . S
N2246 H2259 0.985 . S
N2247 C2249 1.356 . S
N2247 H2252 0.984 . S
N2247 H2253 0.985 . S
C2248 C2242 1.379 . S
C2248 C2245 1.363 . S
C2248 N2246 1.356 . S
C2249 C2243 1.363 . S
C2249 C2244 1.379 . S
C2249 N2247 1.356 . S
N2250 C2242 1.356 . S
N2250 H2256 0.984 . S
N2250 H2257 0.984 . S
N2251 C2244 1.356 . S
N2251 H2254 0.984 . S
N2251 H2255 0.985 . S
H2252 N2247 0.984 . S
H2253 N2247 0.985 . S
H2254 N2251 0.984 . S
H2255 N2251 0.985 . S
H2256 N2250 0.984 . S
H2257 N2250 0.984 . S
H2258 N2246 0.984 . S
H2259 N2246 0.985 . S
C2260 C2261 1.363 . S
C2260 C2266 1.379 . S
C2260 N2268 1.356 . S
C2261 C2260 1.363 . S
C2261 C2267 1.363 . S
C2262 C2263 1.363 . S
C2262 C2267 1.379 . S
C2262 N2269 1.356 . S
C2263 C2262 1.363 . S
C2263 C2266 1.363 . S
N2264 C2266 1.356 . S
N2264 H2276 0.984 . S
N2264 H2277 0.985 . S
N2265 C2267 1.356 . S
N2265 H2270 0.984 . S
N2265 H2271 0.985 . S
C2266 C2260 1.379 . S
C2266 C2263 1.363 . S
C2266 N2264 1.356 . S
C2267 C2261 1.363 . S
C2267 C2262 1.379 . S
C2267 N2265 1.356 . S
N2268 C2260 1.356 . S
N2268 H2274 0.984 . S
N2268 H2275 0.984 . S
N2269 C2262 1.356 . S
N2269 H2272 0.984 . S
N2269 H2273 0.985 . S
H2270 N2265 0.984 . S
H2271 N2265 0.985 . S
H2272 N2269 0.984 . S
H2273 N2269 0.985 . S
H2274 N2268 0.984 . S
H2275 N2268 0.984 . S
H2276 N2264 0.984 . S
H2277 N2264 0.985 . S
C2278 C2279 1.363 . S
C2278 C2284 1.379 . S
C2278 N2286 1.356 . S
C2279 C2278 1.363 . S
C2279 C2285 1.363 . S
C2280 C2281 1.363 . S
C2280 C2285 1.379 . S
C2280 N2287 1.356 . S
C2281 C2280 1.363 . S
C2281 C2284 1.363 . S
N2282 C2284 1.356 . S
N2282 H2294 0.984 . S
N2282 H2295 0.985 . S
N2283 C2285 1.356 . S
N2283 H2288 0.984 . S
N2283 H2289 0.985 . S
C2284 C2278 1.379 . S
C2284 C2281 1.363 . S
C2284 N2282 1.356 . S
C2285 C2279 1.363 . S
C2285 C2280 1.379 . S
C2285 N2283 1.356 . S
N2286 C2278 1.356 . S
N2286 H2292 0.984 . S
N2286 H2293 0.984 . S
N2287 C2280 1.356 . S
N2287 H2290 0.984 . S
N2287 H2291 0.985 . S
H2288 N2283 0.984 . S
H2289 N2283 0.985 . S
H2290 N2287 0.984 . S
H2291 N2287 0.985 . S
H2292 N2286 0.984 . S
H2293 N2286 0.984 . S
H2294 N2282 0.984 . S
H2295 N2282 0.985 . S
C2296 C2297 1.341 1_565 S
C2296 C2302 1.396 . S
C2296 N2304 1.355 . S
C2297 C2296 1.341 1_545 S
C2297 C2303 1.363 . S
C2298 C2299 1.363 . S
C2298 C2303 1.379 . S
C2298 N2305 1.356 . S
C2299 C2298 1.363 . S
C2299 C2302 1.363 1_545 S
N2300 C2302 1.356 . S
N2300 H2312 0.984 . S
N2300 H2313 0.985 . S
N2301 C2303 1.356 . S
N2301 H2306 0.984 . S
N2301 H2307 0.985 . S
C2302 C2296 1.396 . S
C2302 C2299 1.363 1_565 S
C2302 N2300 1.356 . S
C2303 C2297 1.363 . S
C2303 C2298 1.379 . S
C2303 N2301 1.356 . S
N2304 C2296 1.355 . S
N2304 H2310 0.984 . S
N2304 H2311 0.984 1_565 S
N2305 C2298 1.356 . S
N2305 H2308 0.984 . S
N2305 H2309 0.985 . S
H2306 N2301 0.984 . S
H2307 N2301 0.985 . S
H2308 N2305 0.984 . S
H2309 N2305 0.985 . S
H2310 N2304 0.984 . S
H2311 N2304 0.984 1_545 S
H2312 N2300 0.984 . S
H2313 N2300 0.985 . S
C2314 C2315 1.363 . S
C2314 C2320 1.379 . S
C2314 N2322 1.356 . S
C2315 C2314 1.363 . S
C2315 C2321 1.363 . S
C2316 C2317 1.363 . S
C2316 C2321 1.379 . S
C2316 N2323 1.356 . S
C2317 C2316 1.363 . S
C2317 C2320 1.363 . S
N2318 C2320 1.356 . S
N2318 H2330 0.984 . S
N2318 H2331 0.985 . S
N2319 C2321 1.356 . S
N2319 H2324 0.984 . S
N2319 H2325 0.985 . S
C2320 C2314 1.379 . S
C2320 C2317 1.363 . S
C2320 N2318 1.356 . S
C2321 C2315 1.363 . S
C2321 C2316 1.379 . S
C2321 N2319 1.356 . S
N2322 C2314 1.356 . S
N2322 H2328 0.984 . S
N2322 H2329 0.984 . S
N2323 C2316 1.356 . S
N2323 H2326 0.984 . S
N2323 H2327 0.985 . S
H2324 N2319 0.984 . S
H2325 N2319 0.985 . S
H2326 N2323 0.984 . S
H2327 N2323 0.985 . S
H2328 N2322 0.984 . S
H2329 N2322 0.984 . S
H2330 N2318 0.984 . S
H2331 N2318 0.985 . S
C2332 C2333 1.363 . S
C2332 C2338 1.379 . S
C2332 N2340 1.356 . S
C2333 C2332 1.363 . S
C2333 C2339 1.363 . S
C2334 C2335 1.363 . S
C2334 C2339 1.379 . S
C2334 N2341 1.356 . S
C2335 C2334 1.363 . S
C2335 C2338 1.363 . S
N2336 C2338 1.356 . S
N2336 H2348 0.984 . S
N2336 H2349 0.985 . S
N2337 C2339 1.356 . S
N2337 H2342 0.984 . S
N2337 H2343 0.985 . S
C2338 C2332 1.379 . S
C2338 C2335 1.363 . S
C2338 N2336 1.356 . S
C2339 C2333 1.363 . S
C2339 C2334 1.379 . S
C2339 N2337 1.356 . S
N2340 C2332 1.356 . S
N2340 H2346 0.984 . S
N2340 H2347 0.984 . S
N2341 C2334 1.356 . S
N2341 H2344 0.984 . S
N2341 H2345 0.985 . S
H2342 N2337 0.984 . S
H2343 N2337 0.985 . S
H2344 N2341 0.984 . S
H2345 N2341 0.985 . S
H2346 N2340 0.984 . S
H2347 N2340 0.984 . S
H2348 N2336 0.984 . S
H2349 N2336 0.985 . S
C2350 C2351 1.363 . S
C2350 C2356 1.379 . S
C2350 N2358 1.356 . S
C2351 C2350 1.363 . S
C2351 C2357 1.363 . S
C2352 C2353 1.363 . S
C2352 C2357 1.379 . S
C2352 N2359 1.356 . S
C2353 C2352 1.363 . S
C2353 C2356 1.363 . S
N2354 C2356 1.356 . S
N2354 H2366 0.984 . S
N2354 H2367 0.985 . S
N2355 C2357 1.356 . S
N2355 H2360 0.984 . S
N2355 H2361 0.985 . S
C2356 C2350 1.379 . S
C2356 C2353 1.363 . S
C2356 N2354 1.356 . S
C2357 C2351 1.363 . S
C2357 C2352 1.379 . S
C2357 N2355 1.356 . S
N2358 C2350 1.356 . S
N2358 H2364 0.984 . S
N2358 H2365 0.984 . S
N2359 C2352 1.356 . S
N2359 H2362 0.984 . S
N2359 H2363 0.985 . S
H2360 N2355 0.984 . S
H2361 N2355 0.985 . S
H2362 N2359 0.984 . S
H2363 N2359 0.985 . S
H2364 N2358 0.984 . S
H2365 N2358 0.984 . S
H2366 N2354 0.984 . S
H2367 N2354 0.985 . S
C2368 C2369 1.363 . S
C2368 C2374 1.379 . S
C2368 N2376 1.356 . S
C2369 C2368 1.363 . S
C2369 C2375 1.363 . S
C2370 C2371 1.363 . S
C2370 C2375 1.379 . S
C2370 N2377 1.356 . S
C2371 C2370 1.363 . S
C2371 C2374 1.363 . S
N2372 C2374 1.356 . S
N2372 H2384 0.984 . S
N2372 H2385 0.985 . S
N2373 C2375 1.356 . S
N2373 H2378 0.984 . S
N2373 H2379 0.985 . S
C2374 C2368 1.379 . S
C2374 C2371 1.363 . S
C2374 N2372 1.356 . S
C2375 C2369 1.363 . S
C2375 C2370 1.379 . S
C2375 N2373 1.356 . S
N2376 C2368 1.356 . S
N2376 H2382 0.984 . S
N2376 H2383 0.984 . S
N2377 C2370 1.356 . S
N2377 H2380 0.984 . S
N2377 H2381 0.985 . S
H2378 N2373 0.984 . S
H2379 N2373 0.985 . S
H2380 N2377 0.984 . S
H2381 N2377 0.985 . S
H2382 N2376 0.984 . S
H2383 N2376 0.984 . S
H2384 N2372 0.984 . S
H2385 N2372 0.985 . S
C2386 C2387 1.363 . S
C2386 C2392 1.379 . S
C2386 N2394 1.356 . S
C2387 C2386 1.363 . S
C2387 C2393 1.363 . S
C2388 C2389 1.363 . S
C2388 C2393 1.379 . S
C2388 N2395 1.356 . S
C2389 C2388 1.363 . S
C2389 C2392 1.363 . S
N2390 C2392 1.356 . S
N2390 H2402 0.984 . S
N2390 H2403 0.985 . S
N2391 C2393 1.356 . S
N2391 H2396 0.984 . S
N2391 H2397 0.985 . S
C2392 C2386 1.379 . S
C2392 C2389 1.363 . S
C2392 N2390 1.356 . S
C2393 C2387 1.363 . S
C2393 C2388 1.379 . S
C2393 N2391 1.356 . S
N2394 C2386 1.356 . S
N2394 H2400 0.984 . S
N2394 H2401 0.984 . S
N2395 C2388 1.356 . S
N2395 H2398 0.984 . S
N2395 H2399 0.985 . S
H2396 N2391 0.984 . S
H2397 N2391 0.985 . S
H2398 N2395 0.984 . S
H2399 N2395 0.985 . S
H2400 N2394 0.984 . S
H2401 N2394 0.984 . S
H2402 N2390 0.984 . S
H2403 N2390 0.985 . S
C2404 C2405 1.363 . S
C2404 C2410 1.379 . S
C2404 N2412 1.356 . S
C2405 C2404 1.363 . S
C2405 C2411 1.363 . S
C2406 C2407 1.352 1_554 S
C2406 C2411 1.379 1_554 S
C2406 N2413 1.356 . S
C2407 C2406 1.352 1_556 S
C2407 C2410 1.378 . S
N2408 C2410 1.356 . S
N2408 H2420 0.984 . S
N2408 H2421 0.985 . S
N2409 C2411 1.344 1_554 S
N2409 H2414 0.973 1_554 S
N2409 H2415 1.019 . S
C2410 C2404 1.379 . S
C2410 C2407 1.378 . S
C2410 N2408 1.356 . S
C2411 C2405 1.363 . S
C2411 C2406 1.379 1_556 S
C2411 N2409 1.344 1_556 S
N2412 C2404 1.356 . S
N2412 H2418 0.984 . S
N2412 H2419 0.984 . S
N2413 C2406 1.356 . S
N2413 H2416 0.984 . S
N2413 H2417 0.985 . S
H2414 N2409 0.973 1_556 S
H2415 N2409 1.019 . S
H2416 N2413 0.984 . S
H2417 N2413 0.985 . S
H2418 N2412 0.984 . S
H2419 N2412 0.984 . S
H2420 N2408 0.984 . S
H2421 N2408 0.985 . S
C2422 C2423 1.363 . S
C2422 C2428 1.379 1_455 S
C2422 N2430 1.356 . S
C2423 C2422 1.363 . S
C2423 C2429 1.363 . S
C2424 C2425 1.364 1_455 S
C2424 C2429 1.377 . S
C2424 N2431 1.357 1_455 S
C2425 C2424 1.364 1_655 S
C2425 C2428 1.363 . S
N2426 C2428 1.356 . S
N2426 H2438 0.984 . S
N2426 H2439 0.985 . S
N2427 C2429 1.356 . S
N2427 H2432 0.984 . S
N2427 H2433 0.985 . S
C2428 C2422 1.379 1_655 S
C2428 C2425 1.363 . S
C2428 N2426 1.356 . S
C2429 C2423 1.363 . S
C2429 C2424 1.377 . S
C2429 N2427 1.356 . S
N2430 C2422 1.356 . S
N2430 H2436 0.984 . S
N2430 H2437 0.984 . S
N2431 C2424 1.357 1_655 S
N2431 H2434 0.984 . S
N2431 H2435 0.984 1_655 S
H2432 N2427 0.984 . S
H2433 N2427 0.985 . S
H2434 N2431 0.984 . S
H2435 N2431 0.984 1_455 S
H2436 N2430 0.984 . S
H2437 N2430 0.984 . S
H2438 N2426 0.984 . S
H2439 N2426 0.985 . S
C2440 C2441 1.363 . S
C2440 C2446 1.379 . S
C2440 N2448 1.356 . S
C2441 C2440 1.363 . S
C2441 C2447 1.363 . S
C2442 C2443 1.363 . S
C2442 C2447 1.379 . S
C2442 N2449 1.356 . S
C2443 C2442 1.363 . S
C2443 C2446 1.363 . S
N2444 C2446 1.356 . S
N2444 H2456 0.984 . S
N2444 H2457 0.985 . S
N2445 C2447 1.356 . S
N2445 H2450 0.984 . S
N2445 H2451 0.985 . S
C2446 C2440 1.379 . S
C2446 C2443 1.363 . S
C2446 N2444 1.356 . S
C2447 C2441 1.363 . S
C2447 C2442 1.379 . S
C2447 N2445 1.356 . S
N2448 C2440 1.356 . S
N2448 H2454 0.984 . S
N2448 H2455 0.984 . S
N2449 C2442 1.356 . S
N2449 H2452 0.984 . S
N2449 H2453 0.985 . S
H2450 N2445 0.984 . S
H2451 N2445 0.985 . S
H2452 N2449 0.984 . S
H2453 N2449 0.985 . S
H2454 N2448 0.984 . S
H2455 N2448 0.984 . S
H2456 N2444 0.984 . S
H2457 N2444 0.985 . S
C2458 C2459 1.363 . S
C2458 C2464 1.379 . S
C2458 N2466 1.356 . S
C2459 C2458 1.363 . S
C2459 C2465 1.363 . S
C2460 C2461 1.363 . S
C2460 C2465 1.379 . S
C2460 N2467 1.356 . S
C2461 C2460 1.363 . S
C2461 C2464 1.363 . S
N2462 C2464 1.356 . S
N2462 H2474 0.984 . S
N2462 H2475 0.985 . S
N2463 C2465 1.356 . S
N2463 H2468 0.984 . S
N2463 H2469 0.985 . S
C2464 C2458 1.379 . S
C2464 C2461 1.363 . S
C2464 N2462 1.356 . S
C2465 C2459 1.363 . S
C2465 C2460 1.379 . S
C2465 N2463 1.356 . S
N2466 C2458 1.356 . S
N2466 H2472 0.984 . S
N2466 H2473 0.984 . S
N2467 C2460 1.356 . S
N2467 H2470 0.984 1_455 S
N2467 H2471 0.985 . S
H2468 N2463 0.984 . S
H2469 N2463 0.985 . S
H2470 N2467 0.984 1_655 S
H2471 N2467 0.985 . S
H2472 N2466 0.984 . S
H2473 N2466 0.984 . S
H2474 N2462 0.984 . S
H2475 N2462 0.985 . S
C2476 C2477 1.363 . S
C2476 C2482 1.379 . S
C2476 N2484 1.356 1_455 S
C2477 C2476 1.363 . S
C2477 C2483 1.363 . S
C2478 C2479 1.363 . S
C2478 C2483 1.379 . S
C2478 N2485 1.356 . S
C2479 C2478 1.363 . S
C2479 C2482 1.363 . S
N2480 C2482 1.356 . S
N2480 H2492 0.984 . S
N2480 H2493 0.985 . S
N2481 C2483 1.356 . S
N2481 H2486 0.984 . S
N2481 H2487 0.985 . S
C2482 C2476 1.379 . S
C2482 C2479 1.363 . S
C2482 N2480 1.356 . S
C2483 C2477 1.363 . S
C2483 C2478 1.379 . S
C2483 N2481 1.356 . S
N2484 C2476 1.356 1_655 S
N2484 H2490 0.984 . S
N2484 H2491 0.984 . S
N2485 C2478 1.356 . S
N2485 H2488 0.984 . S
N2485 H2489 0.985 . S
H2486 N2481 0.984 . S
H2487 N2481 0.985 . S
H2488 N2485 0.984 . S
H2489 N2485 0.985 . S
H2490 N2484 0.984 . S
H2491 N2484 0.984 . S
H2492 N2480 0.984 . S
H2493 N2480 0.985 . S
C2494 C2495 1.363 . S
C2494 C2500 1.379 . S
C2494 N2502 1.356 . S
C2495 C2494 1.363 . S
C2495 C2501 1.363 . S
C2496 C2497 1.363 . S
C2496 C2501 1.379 . S
C2496 N2503 1.356 . S
C2497 C2496 1.363 . S
C2497 C2500 1.363 . S
N2498 C2500 1.356 . S
N2498 H2510 0.984 . S
N2498 H2511 0.985 . S
N2499 C2501 1.356 . S
N2499 H2504 0.984 . S
N2499 H2505 0.985 . S
C2500 C2494 1.379 . S
C2500 C2497 1.363 . S
C2500 N2498 1.356 . S
C2501 C2495 1.363 . S
C2501 C2496 1.379 . S
C2501 N2499 1.356 . S
N2502 C2494 1.356 . S
N2502 H2508 0.984 . S
N2502 H2509 0.984 . S
N2503 C2496 1.356 . S
N2503 H2506 0.984 . S
N2503 H2507 0.985 . S
H2504 N2499 0.984 . S
H2505 N2499 0.985 . S
H2506 N2503 0.984 . S
H2507 N2503 0.985 . S
H2508 N2502 0.984 . S
H2509 N2502 0.984 . S
H2510 N2498 0.984 . S
H2511 N2498 0.985 . S
C2512 C2513 1.363 . S
C2512 C2518 1.379 . S
C2512 N2520 1.356 . S
C2513 C2512 1.363 . S
C2513 C2519 1.363 . S
C2514 C2515 1.363 . S
C2514 C2519 1.379 . S
C2514 N2521 1.356 . S
C2515 C2514 1.363 . S
C2515 C2518 1.363 . S
N2516 C2518 1.356 . S
N2516 H2528 0.984 . S
N2516 H2529 0.985 . S
N2517 C2519 1.356 . S
N2517 H2522 0.984 . S
N2517 H2523 0.985 . S
C2518 C2512 1.379 . S
C2518 C2515 1.363 . S
C2518 N2516 1.356 . S
C2519 C2513 1.363 . S
C2519 C2514 1.379 . S
C2519 N2517 1.356 . S
N2520 C2512 1.356 . S
N2520 H2526 0.984 . S
N2520 H2527 0.984 . S
N2521 C2514 1.356 . S
N2521 H2524 0.984 . S
N2521 H2525 0.985 . S
H2522 N2517 0.984 . S
H2523 N2517 0.985 . S
H2524 N2521 0.984 . S
H2525 N2521 0.985 . S
H2526 N2520 0.984 . S
H2527 N2520 0.984 . S
H2528 N2516 0.984 . S
H2529 N2516 0.985 . S
C2530 C2531 1.363 . S
C2530 C2536 1.379 . S
C2530 N2538 1.356 . S
C2531 C2530 1.363 . S
C2531 C2537 1.363 . S
C2532 C2533 1.363 . S
C2532 C2537 1.379 . S
C2532 N2539 1.356 . S
C2533 C2532 1.363 . S
C2533 C2536 1.363 . S
N2534 C2536 1.356 . S
N2534 H2546 0.984 . S
N2534 H2547 0.985 . S
N2535 C2537 1.356 . S
N2535 H2540 0.967 1_556 S
N2535 H2541 0.985 . S
C2536 C2530 1.379 . S
C2536 C2533 1.363 . S
C2536 N2534 1.356 . S
C2537 C2531 1.363 . S
C2537 C2532 1.379 . S
C2537 N2535 1.356 . S
N2538 C2530 1.356 . S
N2538 H2544 0.984 . S
N2538 H2545 0.984 . S
N2539 C2532 1.356 . S
N2539 H2542 0.984 . S
N2539 H2543 0.985 . S
H2540 N2535 0.967 1_554 S
H2541 N2535 0.985 . S
H2542 N2539 0.984 . S
H2543 N2539 0.985 . S
H2544 N2538 0.984 . S
H2545 N2538 0.984 . S
H2546 N2534 0.984 . S
H2547 N2534 0.985 . S
C2548 C2549 1.363 . S
C2548 C2554 1.379 . S
C2548 N2556 1.356 . S
C2549 C2548 1.363 . S
C2549 C2555 1.363 . S
C2550 C2551 1.363 . S
C2550 C2555 1.379 . S
C2550 N2557 1.356 . S
C2551 C2550 1.363 . S
C2551 C2554 1.363 . S
N2552 C2554 1.356 . S
N2552 H2564 0.984 . S
N2552 H2565 0.985 . S
N2553 C2555 1.356 . S
N2553 H2558 0.984 . S
N2553 H2559 0.985 . S
C2554 C2548 1.379 . S
C2554 C2551 1.363 . S
C2554 N2552 1.356 . S
C2555 C2549 1.363 . S
C2555 C2550 1.379 . S
C2555 N2553 1.356 . S
N2556 C2548 1.356 . S
N2556 H2562 0.984 . S
N2556 H2563 0.984 . S
N2557 C2550 1.356 . S
N2557 H2560 0.984 . S
N2557 H2561 0.985 . S
H2558 N2553 0.984 . S
H2559 N2553 0.985 . S
H2560 N2557 0.984 . S
H2561 N2557 0.985 . S
H2562 N2556 0.984 . S
H2563 N2556 0.984 . S
H2564 N2552 0.984 . S
H2565 N2552 0.985 . S
C2566 C2567 1.363 . S
C2566 C2572 1.379 . S
C2566 N2574 1.356 . S
C2567 C2566 1.363 . S
C2567 C2573 1.363 . S
C2568 C2569 1.363 . S
C2568 C2573 1.379 . S
C2568 N2575 1.356 . S
C2569 C2568 1.363 . S
C2569 C2572 1.363 . S
N2570 C2572 1.356 . S
N2570 H2582 0.984 . S
N2570 H2583 0.985 . S
N2571 C2573 1.356 . S
N2571 H2576 0.984 . S
N2571 H2577 0.985 . S
C2572 C2566 1.379 . S
C2572 C2569 1.363 . S
C2572 N2570 1.356 . S
C2573 C2567 1.363 . S
C2573 C2568 1.379 . S
C2573 N2571 1.356 . S
N2574 C2566 1.356 . S
N2574 H2580 0.984 . S
N2574 H2581 0.984 . S
N2575 C2568 1.356 . S
N2575 H2578 0.984 . S
N2575 H2579 0.985 . S
H2576 N2571 0.984 . S
H2577 N2571 0.985 . S
H2578 N2575 0.984 . S
H2579 N2575 0.985 . S
H2580 N2574 0.984 . S
H2581 N2574 0.984 . S
H2582 N2570 0.984 . S
H2583 N2570 0.985 . S
C2584 C2585 1.363 . S
C2584 C2590 1.379 . S
C2584 N2592 1.356 . S
C2585 C2584 1.363 . S
C2585 C2591 1.363 . S
C2586 C2587 1.363 . S
C2586 C2591 1.379 . S
C2586 N2593 1.356 . S
C2587 C2586 1.363 . S
C2587 C2590 1.363 . S
N2588 C2590 1.356 . S
N2588 H2600 0.984 . S
N2588 H2601 0.985 . S
N2589 C2591 1.356 . S
N2589 H2594 0.984 . S
N2589 H2595 0.985 . S
C2590 C2584 1.379 . S
C2590 C2587 1.363 . S
C2590 N2588 1.356 . S
C2591 C2585 1.363 . S
C2591 C2586 1.379 . S
C2591 N2589 1.356 . S
N2592 C2584 1.356 . S
N2592 H2598 0.984 . S
N2592 H2599 0.984 . S
N2593 C2586 1.356 . S
N2593 H2596 0.984 . S
N2593 H2597 0.985 . S
H2594 N2589 0.984 . S
H2595 N2589 0.985 . S
H2596 N2593 0.984 . S
H2597 N2593 0.985 . S
H2598 N2592 0.984 . S
H2599 N2592 0.984 . S
H2600 N2588 0.984 . S
H2601 N2588 0.985 . S
C2602 C2603 1.363 . S
C2602 C2608 1.379 . S
C2602 N2610 1.356 . S
C2603 C2602 1.363 . S
C2603 C2609 1.363 . S
C2604 C2605 1.363 . S
C2604 C2609 1.379 . S
C2604 N2611 1.356 . S
C2605 C2604 1.363 . S
C2605 C2608 1.363 . S
N2606 C2608 1.356 . S
N2606 H2618 0.984 . S
N2606 H2619 0.985 . S
N2607 C2609 1.356 . S
N2607 H2612 0.984 . S
N2607 H2613 0.985 . S
C2608 C2602 1.379 . S
C2608 C2605 1.363 . S
C2608 N2606 1.356 . S
C2609 C2603 1.363 . S
C2609 C2604 1.379 . S
C2609 N2607 1.356 . S
N2610 C2602 1.356 . S
N2610 H2616 0.984 . S
N2610 H2617 0.984 . S
N2611 C2604 1.356 . S
N2611 H2614 0.984 . S
N2611 H2615 0.985 . S
H2612 N2607 0.984 . S
H2613 N2607 0.985 . S
H2614 N2611 0.984 . S
H2615 N2611 0.985 . S
H2616 N2610 0.984 . S
H2617 N2610 0.984 . S
H2618 N2606 0.984 . S
H2619 N2606 0.985 . S
C2620 C2621 1.363 . S
C2620 C2626 1.379 . S
C2620 N2628 1.356 . S
C2621 C2620 1.363 . S
C2621 C2627 1.363 . S
C2622 C2623 1.363 . S
C2622 C2627 1.379 . S
C2622 N2629 1.356 . S
C2623 C2622 1.363 . S
C2623 C2626 1.363 . S
N2624 C2626 1.356 . S
N2624 H2636 0.984 . S
N2624 H2637 0.985 . S
N2625 C2627 1.356 . S
N2625 H2630 0.984 . S
N2625 H2631 0.985 . S
C2626 C2620 1.379 . S
C2626 C2623 1.363 . S
C2626 N2624 1.356 . S
C2627 C2621 1.363 . S
C2627 C2622 1.379 . S
C2627 N2625 1.356 . S
N2628 C2620 1.356 . S
N2628 H2634 0.984 . S
N2628 H2635 0.984 . S
N2629 C2622 1.356 . S
N2629 H2632 0.984 . S
N2629 H2633 0.985 . S
H2630 N2625 0.984 . S
H2631 N2625 0.985 . S
H2632 N2629 0.984 . S
H2633 N2629 0.985 . S
H2634 N2628 0.984 . S
H2635 N2628 0.984 . S
H2636 N2624 0.984 . S
H2637 N2624 0.985 . S
C2638 C2639 1.363 . S
C2638 C2644 1.379 . S
C2638 N2646 1.356 . S
C2639 C2638 1.363 . S
C2639 C2645 1.363 . S
C2640 C2641 1.363 . S
C2640 C2645 1.379 . S
C2640 N2647 1.356 . S
C2641 C2640 1.363 . S
C2641 C2644 1.363 . S
N2642 C2644 1.356 . S
N2642 H2654 0.984 . S
N2642 H2655 0.985 . S
N2643 C2645 1.356 . S
N2643 H2648 0.984 . S
N2643 H2649 0.985 . S
C2644 C2638 1.379 . S
C2644 C2641 1.363 . S
C2644 N2642 1.356 . S
C2645 C2639 1.363 . S
C2645 C2640 1.379 . S
C2645 N2643 1.356 . S
N2646 C2638 1.356 . S
N2646 H2652 0.984 . S
N2646 H2653 0.984 . S
N2647 C2640 1.356 . S
N2647 H2650 0.984 . S
N2647 H2651 0.985 . S
H2648 N2643 0.984 . S
H2649 N2643 0.985 . S
H2650 N2647 0.984 . S
H2651 N2647 0.985 . S
H2652 N2646 0.984 . S
H2653 N2646 0.984 . S
H2654 N2642 0.984 . S
H2655 N2642 0.985 . S
C2656 C2657 1.363 . S
C2656 C2662 1.379 . S
C2656 N2664 1.356 . S
C2657 C2656 1.363 . S
C2657 C2663 1.363 . S
C2658 C2659 1.363 . S
C2658 C2663 1.379 . S
C2658 N2665 1.356 . S
C2659 C2658 1.363 . S
C2659 C2662 1.363 . S
N2660 C2662 1.356 . S
N2660 H2672 0.984 . S
N2660 H2673 0.985 . S
N2661 C2663 1.356 . S
N2661 H2666 0.984 . S
N2661 H2667 0.985 . S
C2662 C2656 1.379 . S
C2662 C2659 1.363 . S
C2662 N2660 1.356 . S
C2663 C2657 1.363 . S
C2663 C2658 1.379 . S
C2663 N2661 1.356 . S
N2664 C2656 1.356 . S
N2664 H2670 0.984 . S
N2664 H2671 0.984 . S
N2665 C2658 1.356 . S
N2665 H2668 0.984 . S
N2665 H2669 0.985 . S
H2666 N2661 0.984 . S
H2667 N2661 0.985 . S
H2668 N2665 0.984 . S
H2669 N2665 0.985 . S
H2670 N2664 0.984 . S
H2671 N2664 0.984 . S
H2672 N2660 0.984 . S
H2673 N2660 0.985 . S
C2674 C2675 1.363 . S
C2674 C2680 1.379 . S
C2674 N2682 1.356 . S
C2675 C2674 1.363 . S
C2675 C2681 1.363 . S
C2676 C2677 1.363 . S
C2676 C2681 1.379 . S
C2676 N2683 1.356 . S
C2677 C2676 1.363 . S
C2677 C2680 1.363 . S
N2678 C2680 1.356 . S
N2678 H2690 0.984 . S
N2678 H2691 0.985 . S
N2679 C2681 1.356 . S
N2679 H2684 0.984 . S
N2679 H2685 0.985 . S
C2680 C2674 1.379 . S
C2680 C2677 1.363 . S
C2680 N2678 1.356 . S
C2681 C2675 1.363 . S
C2681 C2676 1.379 . S
C2681 N2679 1.356 . S
N2682 C2674 1.356 . S
N2682 H2688 0.984 . S
N2682 H2689 0.984 . S
N2683 C2676 1.356 . S
N2683 H2686 0.984 . S
N2683 H2687 0.985 . S
H2684 N2679 0.984 . S
H2685 N2679 0.985 . S
H2686 N2683 0.984 . S
H2687 N2683 0.985 . S
H2688 N2682 0.984 . S
H2689 N2682 0.984 . S
H2690 N2678 0.984 . S
H2691 N2678 0.985 . S
C2692 C2693 1.363 . S
C2692 C2698 1.379 . S
C2692 N2700 1.356 . S
C2693 C2692 1.363 . S
C2693 C2699 1.363 . S
C2694 C2695 1.363 . S
C2694 C2699 1.379 . S
C2694 N2701 1.356 . S
C2695 C2694 1.363 . S
C2695 C2698 1.363 . S
N2696 C2698 1.356 . S
N2696 H2708 0.984 . S
N2696 H2709 0.985 . S
N2697 C2699 1.356 . S
N2697 H2702 0.984 . S
N2697 H2703 0.985 . S
C2698 C2692 1.379 . S
C2698 C2695 1.363 . S
C2698 N2696 1.356 . S
C2699 C2693 1.363 . S
C2699 C2694 1.379 . S
C2699 N2697 1.356 . S
N2700 C2692 1.356 . S
N2700 H2706 0.984 . S
N2700 H2707 0.984 . S
N2701 C2694 1.356 . S
N2701 H2704 0.984 . S
N2701 H2705 0.985 . S
H2702 N2697 0.984 . S
H2703 N2697 0.985 . S
H2704 N2701 0.984 . S
H2705 N2701 0.985 . S
H2706 N2700 0.984 . S
H2707 N2700 0.984 . S
H2708 N2696 0.984 . S
H2709 N2696 0.985 . S
C2710 C2711 1.363 1_556 S
C2710 C2716 1.379 . S
C2710 N2718 1.356 . S
C2711 C2710 1.363 1_554 S
C2711 C2717 1.363 1_565 S
C2712 C2713 1.363 . S
C2712 C2717 1.379 . S
C2712 N2719 1.356 . S
C2713 C2712 1.363 . S
C2713 C2716 1.363 1_544 S
N2714 C2716 1.356 . S
N2714 H2726 0.984 . S
N2714 H2727 0.985 . S
N2715 C2717 1.356 . S
N2715 H2720 0.984 . S
N2715 H2721 0.985 . S
C2716 C2710 1.379 . S
C2716 C2713 1.363 1_566 S
C2716 N2714 1.356 . S
C2717 C2711 1.363 1_545 S
C2717 C2712 1.379 . S
C2717 N2715 1.356 . S
N2718 C2710 1.356 . S
N2718 H2724 0.984 . S
N2718 H2725 0.984 . S
N2719 C2712 1.356 . S
N2719 H2722 0.984 . S
N2719 H2723 0.985 . S
H2720 N2715 0.984 . S
H2721 N2715 0.985 . S
H2722 N2719 0.984 . S
H2723 N2719 0.985 . S
H2724 N2718 0.984 . S
H2725 N2718 0.984 . S
H2726 N2714 0.984 . S
H2727 N2714 0.985 . S
C2728 C2729 1.363 . S
C2728 C2734 1.379 . S
C2728 N2736 1.356 . S
C2729 C2728 1.363 . S
C2729 C2735 1.363 . S
C2730 C2731 1.363 . S
C2730 C2735 1.379 . S
C2730 N2737 1.356 . S
C2731 C2730 1.363 . S
C2731 C2734 1.363 . S
N2732 C2734 1.356 . S
N2732 H2744 0.984 . S
N2732 H2745 0.985 . S
N2733 C2735 1.356 . S
N2733 H2738 0.984 . S
N2733 H2739 0.985 . S
C2734 C2728 1.379 . S
C2734 C2731 1.363 . S
C2734 N2732 1.356 . S
C2735 C2729 1.363 . S
C2735 C2730 1.379 . S
C2735 N2733 1.356 . S
N2736 C2728 1.356 . S
N2736 H2742 0.984 . S
N2736 H2743 0.984 . S
N2737 C2730 1.356 . S
N2737 H2740 0.984 . S
N2737 H2741 0.985 . S
H2738 N2733 0.984 . S
H2739 N2733 0.985 . S
H2740 N2737 0.984 . S
H2741 N2737 0.985 . S
H2742 N2736 0.984 . S
H2743 N2736 0.984 . S
H2744 N2732 0.984 . S
H2745 N2732 0.985 . S
C2746 C2747 1.363 . S
C2746 C2752 1.379 . S
C2746 N2754 1.356 1_554 S
C2747 C2746 1.363 . S
C2747 C2753 1.363 . S
C2748 C2749 1.363 . S
C2748 C2753 1.379 . S
C2748 N2755 1.356 . S
C2749 C2748 1.363 . S
C2749 C2752 1.363 . S
N2750 C2752 1.356 . S
N2750 H2762 0.984 1_554 S
N2750 H2763 0.985 . S
N2751 C2753 1.356 . S
N2751 H2756 0.984 . S
N2751 H2757 0.985 . S
C2752 C2746 1.379 . S
C2752 C2749 1.363 . S
C2752 N2750 1.356 . S
C2753 C2747 1.363 . S
C2753 C2748 1.379 . S
C2753 N2751 1.356 . S
N2754 C2746 1.356 1_556 S
N2754 H2760 0.984 . S
N2754 H2761 0.984 . S
N2755 C2748 1.356 . S
N2755 H2758 0.984 . S
N2755 H2759 0.985 . S
H2756 N2751 0.984 . S
H2757 N2751 0.985 . S
H2758 N2755 0.984 . S
H2759 N2755 0.985 . S
H2760 N2754 0.984 . S
H2761 N2754 0.984 . S
H2762 N2750 0.984 1_556 S
H2763 N2750 0.985 . S
C2764 C2765 1.363 . S
C2764 C2770 1.379 . S
C2764 N2772 1.356 . S
C2765 C2764 1.363 . S
C2765 C2771 1.363 . S
C2766 C2767 1.363 . S
C2766 C2771 1.379 . S
C2766 N2773 1.356 . S
C2767 C2766 1.363 . S
C2767 C2770 1.363 . S
N2768 C2770 1.356 . S
N2768 H2780 0.984 . S
N2768 H2781 0.985 . S
N2769 C2771 1.356 . S
N2769 H2774 0.984 . S
N2769 H2775 0.985 . S
C2770 C2764 1.379 . S
C2770 C2767 1.363 . S
C2770 N2768 1.356 . S
C2771 C2765 1.363 . S
C2771 C2766 1.379 . S
C2771 N2769 1.356 . S
N2772 C2764 1.356 . S
N2772 H2778 0.984 . S
N2772 H2779 0.984 . S
N2773 C2766 1.356 . S
N2773 H2776 0.984 . S
N2773 H2777 0.985 . S
H2774 N2769 0.984 . S
H2775 N2769 0.985 . S
H2776 N2773 0.984 . S
H2777 N2773 0.985 . S
H2778 N2772 0.984 . S
H2779 N2772 0.984 . S
H2780 N2768 0.984 . S
H2781 N2768 0.985 . S
C2782 C2783 1.363 . S
C2782 C2788 1.379 . S
C2782 N2790 1.356 . S
C2783 C2782 1.363 . S
C2783 C2789 1.363 . S
C2784 C2785 1.363 . S
C2784 C2789 1.379 . S
C2784 N2791 1.356 . S
C2785 C2784 1.363 . S
C2785 C2788 1.363 . S
N2786 C2788 1.356 . S
N2786 H2798 0.984 . S
N2786 H2799 0.985 . S
N2787 C2789 1.356 . S
N2787 H2792 0.984 . S
N2787 H2793 0.985 . S
C2788 C2782 1.379 . S
C2788 C2785 1.363 . S
C2788 N2786 1.356 . S
C2789 C2783 1.363 . S
C2789 C2784 1.379 . S
C2789 N2787 1.356 . S
N2790 C2782 1.356 . S
N2790 H2796 0.984 . S
N2790 H2797 0.984 . S
N2791 C2784 1.356 . S
N2791 H2794 0.984 . S
N2791 H2795 0.985 . S
H2792 N2787 0.984 . S
H2793 N2787 0.985 . S
H2794 N2791 0.984 . S
H2795 N2791 0.985 . S
H2796 N2790 0.984 . S
H2797 N2790 0.984 . S
H2798 N2786 0.984 . S
H2799 N2786 0.985 . S
C2800 C2801 1.363 . S
C2800 C2806 1.379 . S
C2800 N2808 1.356 . S
C2801 C2800 1.363 . S
C2801 C2807 1.363 . S
C2802 C2803 1.363 . S
C2802 C2807 1.379 . S
C2802 N2809 1.356 . S
C2803 C2802 1.363 . S
C2803 C2806 1.363 . S
N2804 C2806 1.356 . S
N2804 H2816 0.984 . S
N2804 H2817 0.985 . S
N2805 C2807 1.356 . S
N2805 H2810 0.984 . S
N2805 H2811 0.985 . S
C2806 C2800 1.379 . S
C2806 C2803 1.363 . S
C2806 N2804 1.356 . S
C2807 C2801 1.363 . S
C2807 C2802 1.379 . S
C2807 N2805 1.356 . S
N2808 C2800 1.356 . S
N2808 H2814 0.984 . S
N2808 H2815 0.984 . S
N2809 C2802 1.356 . S
N2809 H2812 0.984 . S
N2809 H2813 0.985 . S
H2810 N2805 0.984 . S
H2811 N2805 0.985 . S
H2812 N2809 0.984 . S
H2813 N2809 0.985 . S
H2814 N2808 0.984 . S
H2815 N2808 0.984 . S
H2816 N2804 0.984 . S
H2817 N2804 0.985 . S
C2818 C2819 1.363 . S
C2818 C2824 1.379 . S
C2818 N2826 1.356 . S
C2819 C2818 1.363 . S
C2819 C2825 1.363 . S
C2820 C2821 1.363 . S
C2820 C2825 1.379 . S
C2820 N2827 1.356 . S
C2821 C2820 1.363 . S
C2821 C2824 1.363 . S
N2822 C2824 1.356 . S
N2822 H2834 0.984 . S
N2822 H2835 0.985 . S
N2823 C2825 1.356 . S
N2823 H2828 0.984 . S
N2823 H2829 0.985 . S
C2824 C2818 1.379 . S
C2824 C2821 1.363 . S
C2824 N2822 1.356 . S
C2825 C2819 1.363 . S
C2825 C2820 1.379 . S
C2825 N2823 1.356 . S
N2826 C2818 1.356 . S
N2826 H2832 0.984 . S
N2826 H2833 0.984 . S
N2827 C2820 1.356 . S
N2827 H2830 0.984 . S
N2827 H2831 0.985 . S
H2828 N2823 0.984 . S
H2829 N2823 0.985 . S
H2830 N2827 0.984 . S
H2831 N2827 0.985 . S
H2832 N2826 0.984 . S
H2833 N2826 0.984 . S
H2834 N2822 0.984 . S
H2835 N2822 0.985 . S
C2836 C2837 1.363 . S
C2836 C2842 1.379 . S
C2836 N2844 1.356 . S
C2837 C2836 1.363 . S
C2837 C2843 1.363 . S
C2838 C2839 1.363 . S
C2838 C2843 1.379 . S
C2838 N2845 1.356 . S
C2839 C2838 1.363 . S
C2839 C2842 1.363 . S
N2840 C2842 1.356 . S
N2840 H2852 0.984 . S
N2840 H2853 0.985 . S
N2841 C2843 1.356 . S
N2841 H2846 0.984 . S
N2841 H2847 0.985 . S
C2842 C2836 1.379 . S
C2842 C2839 1.363 . S
C2842 N2840 1.356 . S
C2843 C2837 1.363 . S
C2843 C2838 1.379 . S
C2843 N2841 1.356 . S
N2844 C2836 1.356 . S
N2844 H2850 0.984 . S
N2844 H2851 0.984 . S
N2845 C2838 1.356 . S
N2845 H2848 0.984 . S
N2845 H2849 0.985 . S
H2846 N2841 0.984 . S
H2847 N2841 0.985 . S
H2848 N2845 0.984 . S
H2849 N2845 0.985 . S
H2850 N2844 0.984 . S
H2851 N2844 0.984 . S
H2852 N2840 0.984 . S
H2853 N2840 0.985 . S
C2854 C2855 1.363 . S
C2854 C2860 1.379 . S
C2854 N2862 1.356 . S
C2855 C2854 1.363 . S
C2855 C2861 1.363 . S
C2856 C2857 1.363 . S
C2856 C2861 1.379 . S
C2856 N2863 1.356 . S
C2857 C2856 1.363 . S
C2857 C2860 1.363 . S
N2858 C2860 1.356 . S
N2858 H2870 0.984 . S
N2858 H2871 0.985 . S
N2859 C2861 1.356 . S
N2859 H2864 0.984 . S
N2859 H2865 0.985 . S
C2860 C2854 1.379 . S
C2860 C2857 1.363 . S
C2860 N2858 1.356 . S
C2861 C2855 1.363 . S
C2861 C2856 1.379 . S
C2861 N2859 1.356 . S
N2862 C2854 1.356 . S
N2862 H2868 0.984 . S
N2862 H2869 0.984 . S
N2863 C2856 1.356 . S
N2863 H2866 0.984 . S
N2863 H2867 0.985 . S
H2864 N2859 0.984 . S
H2865 N2859 0.985 . S
H2866 N2863 0.984 . S
H2867 N2863 0.985 . S
H2868 N2862 0.984 . S
H2869 N2862 0.984 . S
H2870 N2858 0.984 . S
H2871 N2858 0.985 . S
C2872 C2873 1.363 . S
C2872 C2878 1.379 . S
C2872 N2880 1.356 . S
C2873 C2872 1.363 . S
C2873 C2879 1.363 . S
C2874 C2875 1.363 . S
C2874 C2879 1.379 . S
C2874 N2881 1.356 . S
C2875 C2874 1.363 . S
C2875 C2878 1.363 . S
N2876 C2878 1.356 . S
N2876 H2888 0.984 . S
N2876 H2889 0.985 . S
N2877 C2879 1.356 . S
N2877 H2882 0.984 . S
N2877 H2883 0.985 . S
C2878 C2872 1.379 . S
C2878 C2875 1.363 . S
C2878 N2876 1.356 . S
C2879 C2873 1.363 . S
C2879 C2874 1.379 . S
C2879 N2877 1.356 . S
N2880 C2872 1.356 . S
N2880 H2886 0.984 . S
N2880 H2887 0.984 . S
N2881 C2874 1.356 . S
N2881 H2884 0.984 . S
N2881 H2885 0.985 1_556 S
H2882 N2877 0.984 . S
H2883 N2877 0.985 . S
H2884 N2881 0.984 . S
H2885 N2881 0.985 1_554 S
H2886 N2880 0.984 . S
H2887 N2880 0.984 . S
H2888 N2876 0.984 . S
H2889 N2876 0.985 . S
C2890 C2891 1.363 . S
C2890 C2896 1.379 . S
C2890 N2898 1.356 . S
C2891 C2890 1.363 . S
C2891 C2897 1.363 . S
C2892 C2893 1.363 . S
C2892 C2897 1.379 . S
C2892 N2899 1.356 . S
C2893 C2892 1.363 . S
C2893 C2896 1.363 . S
N2894 C2896 1.356 . S
N2894 H2906 0.984 . S
N2894 H2907 0.985 . S
N2895 C2897 1.356 . S
N2895 H2900 0.984 . S
N2895 H2901 0.985 . S
C2896 C2890 1.379 . S
C2896 C2893 1.363 . S
C2896 N2894 1.356 . S
C2897 C2891 1.363 . S
C2897 C2892 1.379 . S
C2897 N2895 1.356 . S
N2898 C2890 1.356 . S
N2898 H2904 0.984 . S
N2898 H2905 0.984 . S
N2899 C2892 1.356 . S
N2899 H2902 0.984 . S
N2899 H2903 0.985 . S
H2900 N2895 0.984 . S
H2901 N2895 0.985 . S
H2902 N2899 0.984 . S
H2903 N2899 0.985 . S
H2904 N2898 0.984 . S
H2905 N2898 0.984 . S
H2906 N2894 0.984 . S
H2907 N2894 0.985 . S
C2908 C2909 1.363 . S
C2908 C2914 1.379 . S
C2908 N2916 1.356 . S
C2909 C2908 1.363 . S
C2909 C2915 1.363 . S
C2910 C2911 1.363 . S
C2910 C2915 1.379 . S
C2910 N2917 1.356 . S
C2911 C2910 1.363 . S
C2911 C2914 1.363 . S
N2912 C2914 1.356 . S
N2912 H2924 0.984 . S
N2912 H2925 0.985 . S
N2913 C2915 1.356 . S
N2913 H2918 0.984 . S
N2913 H2919 0.985 . S
C2914 C2908 1.379 . S
C2914 C2911 1.363 . S
C2914 N2912 1.356 . S
C2915 C2909 1.363 . S
C2915 C2910 1.379 . S
C2915 N2913 1.356 . S
N2916 C2908 1.356 . S
N2916 H2922 0.984 . S
N2916 H2923 0.984 . S
N2917 C2910 1.356 . S
N2917 H2920 0.984 . S
N2917 H2921 0.985 . S
H2918 N2913 0.984 . S
H2919 N2913 0.985 . S
H2920 N2917 0.984 . S
H2921 N2917 0.985 . S
H2922 N2916 0.984 . S
H2923 N2916 0.984 . S
H2924 N2912 0.984 . S
H2925 N2912 0.985 . S
C2926 C2927 1.363 . S
C2926 C2932 1.379 . S
C2926 N2934 1.356 . S
C2927 C2926 1.363 . S
C2927 C2933 1.363 . S
C2928 C2929 1.363 . S
C2928 C2933 1.379 . S
C2928 N2935 1.356 . S
C2929 C2928 1.363 . S
C2929 C2932 1.363 . S
N2930 C2932 1.356 . S
N2930 H2942 0.984 . S
N2930 H2943 0.985 . S
N2931 C2933 1.356 . S
N2931 H2936 0.984 . S
N2931 H2937 0.985 . S
C2932 C2926 1.379 . S
C2932 C2929 1.363 . S
C2932 N2930 1.356 . S
C2933 C2927 1.363 . S
C2933 C2928 1.379 . S
C2933 N2931 1.356 . S
N2934 C2926 1.356 . S
N2934 H2940 0.984 . S
N2934 H2941 0.984 . S
N2935 C2928 1.356 . S
N2935 H2938 0.984 . S
N2935 H2939 0.985 . S
H2936 N2931 0.984 . S
H2937 N2931 0.985 . S
H2938 N2935 0.984 . S
H2939 N2935 0.985 . S
H2940 N2934 0.984 . S
H2941 N2934 0.984 . S
H2942 N2930 0.984 . S
H2943 N2930 0.985 . S
C2944 C2945 1.363 . S
C2944 C2950 1.379 . S
C2944 N2952 1.356 . S
C2945 C2944 1.363 . S
C2945 C2951 1.363 . S
C2946 C2947 1.363 . S
C2946 C2951 1.379 . S
C2946 N2953 1.356 . S
C2947 C2946 1.363 . S
C2947 C2950 1.363 . S
N2948 C2950 1.356 . S
N2948 H2960 0.984 . S
N2948 H2961 0.985 . S
N2949 C2951 1.356 . S
N2949 H2954 0.984 . S
N2949 H2955 0.985 . S
C2950 C2944 1.379 . S
C2950 C2947 1.363 . S
C2950 N2948 1.356 . S
C2951 C2945 1.363 . S
C2951 C2946 1.379 . S
C2951 N2949 1.356 . S
N2952 C2944 1.356 . S
N2952 H2958 0.984 . S
N2952 H2959 0.984 . S
N2953 C2946 1.356 . S
N2953 H2956 0.984 . S
N2953 H2957 0.985 . S
H2954 N2949 0.984 . S
H2955 N2949 0.985 . S
H2956 N2953 0.984 . S
H2957 N2953 0.985 . S
H2958 N2952 0.984 . S
H2959 N2952 0.984 . S
H2960 N2948 0.984 . S
H2961 N2948 0.985 . S
C2962 C2963 1.363 . S
C2962 C2968 1.379 . S
C2962 N2970 1.356 . S
C2963 C2962 1.363 . S
C2963 C2969 1.363 . S
C2964 C2965 1.363 . S
C2964 C2969 1.379 . S
C2964 N2971 1.356 . S
C2965 C2964 1.363 . S
C2965 C2968 1.363 . S
N2966 C2968 1.356 . S
N2966 H2978 0.984 . S
N2966 H2979 0.985 . S
N2967 C2969 1.356 . S
N2967 H2972 0.984 . S
N2967 H2973 0.985 . S
C2968 C2962 1.379 . S
C2968 C2965 1.363 . S
C2968 N2966 1.356 . S
C2969 C2963 1.363 . S
C2969 C2964 1.379 . S
C2969 N2967 1.356 . S
N2970 C2962 1.356 . S
N2970 H2976 0.984 . S
N2970 H2977 0.984 . S
N2971 C2964 1.356 . S
N2971 H2974 0.984 . S
N2971 H2975 0.985 . S
H2972 N2967 0.984 . S
H2973 N2967 0.985 . S
H2974 N2971 0.984 . S
H2975 N2971 0.985 . S
H2976 N2970 0.984 . S
H2977 N2970 0.984 . S
H2978 N2966 0.984 . S
H2979 N2966 0.985 . S
C2980 C2981 1.363 1_455 S
C2980 C2986 1.379 . S
C2980 N2988 1.356 . S
C2981 C2980 1.363 1_655 S
C2981 C2987 1.363 . S
C2982 C2983 1.363 . S
C2982 C2987 1.379 1_455 S
C2982 N2989 1.356 . S
C2983 C2982 1.363 . S
C2983 C2986 1.363 . S
N2984 C2986 1.356 . S
N2984 H2996 0.984 . S
N2984 H2997 0.985 . S
N2985 C2987 1.356 . S
N2985 H2990 0.984 . S
N2985 H2991 0.985 . S
C2986 C2980 1.379 . S
C2986 C2983 1.363 . S
C2986 N2984 1.356 . S
C2987 C2981 1.363 . S
C2987 C2982 1.379 1_655 S
C2987 N2985 1.356 . S
N2988 C2980 1.356 . S
N2988 H2994 0.984 . S
N2988 H2995 0.984 1_455 S
N2989 C2982 1.356 . S
N2989 H2992 0.984 . S
N2989 H2993 0.985 . S
H2990 N2985 0.984 . S
H2991 N2985 0.985 . S
H2992 N2989 0.984 . S
H2993 N2989 0.985 . S
H2994 N2988 0.984 . S
H2995 N2988 0.984 1_655 S
H2996 N2984 0.984 . S
H2997 N2984 0.985 . S
C2998 C2999 1.363 . S
C2998 C3004 1.379 . S
C2998 N3006 1.356 . S
C2999 C2998 1.363 . S
C2999 C3005 1.363 . S
C3000 C3001 1.363 . S
C3000 C3005 1.379 . S
C3000 N3007 1.356 . S
C3001 C3000 1.363 . S
C3001 C3004 1.363 . S
N3002 C3004 1.356 . S
N3002 H3014 0.984 . S
N3002 H3015 0.985 . S
N3003 C3005 1.356 . S
N3003 H3008 0.984 . S
N3003 H3009 0.985 . S
C3004 C2998 1.379 . S
C3004 C3001 1.363 . S
C3004 N3002 1.356 . S
C3005 C2999 1.363 . S
C3005 C3000 1.379 . S
C3005 N3003 1.356 . S
N3006 C2998 1.356 . S
N3006 H3012 0.984 . S
N3006 H3013 0.984 . S
N3007 C3000 1.356 . S
N3007 H3010 0.984 . S
N3007 H3011 0.985 . S
H3008 N3003 0.984 . S
H3009 N3003 0.985 . S
H3010 N3007 0.984 . S
H3011 N3007 0.985 . S
H3012 N3006 0.984 . S
H3013 N3006 0.984 . S
H3014 N3002 0.984 . S
H3015 N3002 0.985 . S
C3016 C3017 1.363 . S
C3016 C3022 1.379 . S
C3016 N3024 1.356 . S
C3017 C3016 1.363 . S
C3017 C3023 1.363 . S
C3018 C3019 1.363 . S
C3018 C3023 1.379 . S
C3018 N3025 1.356 . S
C3019 C3018 1.363 . S
C3019 C3022 1.363 . S
N3020 C3022 1.356 . S
N3020 H3032 0.984 . S
N3020 H3033 0.985 . S
N3021 C3023 1.356 . S
N3021 H3026 0.984 . S
N3021 H3027 0.985 . S
C3022 C3016 1.379 . S
C3022 C3019 1.363 . S
C3022 N3020 1.356 . S
C3023 C3017 1.363 . S
C3023 C3018 1.379 . S
C3023 N3021 1.356 . S
N3024 C3016 1.356 . S
N3024 H3030 0.984 . S
N3024 H3031 0.984 . S
N3025 C3018 1.356 . S
N3025 H3028 0.984 . S
N3025 H3029 0.985 . S
H3026 N3021 0.984 . S
H3027 N3021 0.985 . S
H3028 N3025 0.984 . S
H3029 N3025 0.985 . S
H3030 N3024 0.984 . S
H3031 N3024 0.984 . S
H3032 N3020 0.984 . S
H3033 N3020 0.985 . S
C3034 C3035 1.363 . S
C3034 C3040 1.379 . S
C3034 N3042 1.356 . S
C3035 C3034 1.363 . S
C3035 C3041 1.363 . S
C3036 C3037 1.363 . S
C3036 C3041 1.379 . S
C3036 N3043 1.356 . S
C3037 C3036 1.363 . S
C3037 C3040 1.363 . S
N3038 C3040 1.356 . S
N3038 H3050 0.984 . S
N3038 H3051 0.985 . S
N3039 C3041 1.356 . S
N3039 H3044 0.984 . S
N3039 H3045 0.985 . S
C3040 C3034 1.379 . S
C3040 C3037 1.363 . S
C3040 N3038 1.356 . S
C3041 C3035 1.363 . S
C3041 C3036 1.379 . S
C3041 N3039 1.356 . S
N3042 C3034 1.356 . S
N3042 H3048 0.984 . S
N3042 H3049 0.984 . S
N3043 C3036 1.356 . S
N3043 H3046 0.984 . S
N3043 H3047 0.985 . S
H3044 N3039 0.984 . S
H3045 N3039 0.985 . S
H3046 N3043 0.984 . S
H3047 N3043 0.985 . S
H3048 N3042 0.984 . S
H3049 N3042 0.984 . S
H3050 N3038 0.984 . S
H3051 N3038 0.985 . S
C3052 C3053 1.363 . S
C3052 C3058 1.379 . S
C3052 N3060 1.356 . S
C3053 C3052 1.363 . S
C3053 C3059 1.363 . S
C3054 C3055 1.363 1_455 S
C3054 C3059 1.379 1_455 S
C3054 N3061 1.356 . S
C3055 C3054 1.363 1_655 S
C3055 C3058 1.363 . S
N3056 C3058 1.356 . S
N3056 H3068 0.984 . S
N3056 H3069 0.985 . S
N3057 C3059 1.356 1_455 S
N3057 H3062 0.984 1_455 S
N3057 H3063 0.985 . S
C3058 C3052 1.379 . S
C3058 C3055 1.363 . S
C3058 N3056 1.356 . S
C3059 C3053 1.363 . S
C3059 C3054 1.379 1_655 S
C3059 N3057 1.356 1_655 S
N3060 C3052 1.356 . S
N3060 H3066 0.984 . S
N3060 H3067 0.984 . S
N3061 C3054 1.356 . S
N3061 H3064 0.984 . S
N3061 H3065 0.985 . S
H3062 N3057 0.984 1_655 S
H3063 N3057 0.985 . S
H3064 N3061 0.984 . S
H3065 N3061 0.985 . S
H3066 N3060 0.984 . S
H3067 N3060 0.984 . S
H3068 N3056 0.984 . S
H3069 N3056 0.985 . S
C3070 C3071 1.363 . S
C3070 C3076 1.379 . S
C3070 N3078 1.356 . S
C3071 C3070 1.363 . S
C3071 C3077 1.363 . S
C3072 C3073 1.363 . S
C3072 C3077 1.379 . S
C3072 N3079 1.356 . S
C3073 C3072 1.363 . S
C3073 C3076 1.363 . S
N3074 C3076 1.356 . S
N3074 H3086 0.984 . S
N3074 H3087 0.985 . S
N3075 C3077 1.356 . S
N3075 H3080 0.984 . S
N3075 H3081 0.985 . S
C3076 C3070 1.379 . S
C3076 C3073 1.363 . S
C3076 N3074 1.356 . S
C3077 C3071 1.363 . S
C3077 C3072 1.379 . S
C3077 N3075 1.356 . S
N3078 C3070 1.356 . S
N3078 H3084 0.984 . S
N3078 H3085 0.984 . S
N3079 C3072 1.356 . S
N3079 H3082 0.984 . S
N3079 H3083 0.985 . S
H3080 N3075 0.984 . S
H3081 N3075 0.985 . S
H3082 N3079 0.984 . S
H3083 N3079 0.985 . S
H3084 N3078 0.984 . S
H3085 N3078 0.984 . S
H3086 N3074 0.984 . S
H3087 N3074 0.985 . S
C3088 C3089 1.363 . S
C3088 C3094 1.379 . S
C3088 N3096 1.356 . S
C3089 C3088 1.363 . S
C3089 C3095 1.363 . S
C3090 C3091 1.363 . S
C3090 C3095 1.379 . S
C3090 N3097 1.356 . S
C3091 C3090 1.363 . S
C3091 C3094 1.363 . S
N3092 C3094 1.356 . S
N3092 H3104 0.984 . S
N3092 H3105 0.985 . S
N3093 C3095 1.356 . S
N3093 H3098 0.984 . S
N3093 H3099 0.985 . S
C3094 C3088 1.379 . S
C3094 C3091 1.363 . S
C3094 N3092 1.356 . S
C3095 C3089 1.363 . S
C3095 C3090 1.379 . S
C3095 N3093 1.356 . S
N3096 C3088 1.356 . S
N3096 H3102 0.984 . S
N3096 H3103 0.984 . S
N3097 C3090 1.356 . S
N3097 H3100 0.984 . S
N3097 H3101 0.985 . S
H3098 N3093 0.984 . S
H3099 N3093 0.985 . S
H3100 N3097 0.984 . S
H3101 N3097 0.985 . S
H3102 N3096 0.984 . S
H3103 N3096 0.984 . S
H3104 N3092 0.984 . S
H3105 N3092 0.985 . S
C3106 C3107 1.363 . S
C3106 C3112 1.379 . S
C3106 N3114 1.356 . S
C3107 C3106 1.363 . S
C3107 C3113 1.363 . S
C3108 C3109 1.363 1_545 S
C3108 C3113 1.379 1_545 S
C3108 N3115 1.356 . S
C3109 C3108 1.363 1_565 S
C3109 C3112 1.363 . S
N3110 C3112 1.356 . S
N3110 H3122 0.984 . S
N3110 H3123 0.985 1_655 S
N3111 C3113 1.356 . S
N3111 H3116 0.984 . S
N3111 H3117 1.017 . S
C3112 C3106 1.379 . S
C3112 C3109 1.363 . S
C3112 N3110 1.356 . S
C3113 C3107 1.363 . S
C3113 C3108 1.379 1_565 S
C3113 N3111 1.356 . S
N3114 C3106 1.356 . S
N3114 H3120 0.984 . S
N3114 H3121 0.984 . S
N3115 C3108 1.356 . S
N3115 H3118 0.984 . S
N3115 H3119 0.985 . S
H3116 N3111 0.984 . S
H3117 N3111 1.017 . S
H3118 N3115 0.984 . S
H3119 N3115 0.985 . S
H3120 N3114 0.984 . S
H3121 N3114 0.984 . S
H3122 N3110 0.984 . S
H3123 N3110 0.985 1_455 S
C3124 C3125 1.363 . S
C3124 C3130 1.379 . S
C3124 N3132 1.356 . S
C3125 C3124 1.363 . S
C3125 C3131 1.363 . S
C3126 C3127 1.363 . S
C3126 C3131 1.379 . S
C3126 N3133 1.356 . S
C3127 C3126 1.363 . S
C3127 C3130 1.363 . S
N3128 C3130 1.356 . S
N3128 H3140 0.984 . S
N3128 H3141 0.985 . S
N3129 C3131 1.356 . S
N3129 H3134 0.984 . S
N3129 H3135 0.985 . S
C3130 C3124 1.379 . S
C3130 C3127 1.363 . S
C3130 N3128 1.356 . S
C3131 C3125 1.363 . S
C3131 C3126 1.379 . S
C3131 N3129 1.356 . S
N3132 C3124 1.356 . S
N3132 H3138 0.984 . S
N3132 H3139 0.984 . S
N3133 C3126 1.356 . S
N3133 H3136 0.984 . S
N3133 H3137 0.985 . S
H3134 N3129 0.984 . S
H3135 N3129 0.985 . S
H3136 N3133 0.984 . S
H3137 N3133 0.985 . S
H3138 N3132 0.984 . S
H3139 N3132 0.984 . S
H3140 N3128 0.984 . S
H3141 N3128 0.985 . S
C3142 C3143 1.363 . S
C3142 C3148 1.379 . S
C3142 N3150 1.356 . S
C3143 C3142 1.363 . S
C3143 C3149 1.363 . S
C3144 C3145 1.363 . S
C3144 C3149 1.379 . S
C3144 N3151 1.356 1_554 S
C3145 C3144 1.363 . S
C3145 C3148 1.363 . S
N3146 C3148 1.356 . S
N3146 H3158 0.984 . S
N3146 H3159 0.985 . S
N3147 C3149 1.356 1_556 S
N3147 H3152 0.984 . S
N3147 H3153 0.985 . S
C3148 C3142 1.379 . S
C3148 C3145 1.363 . S
C3148 N3146 1.356 . S
C3149 C3143 1.363 . S
C3149 C3144 1.379 . S
C3149 N3147 1.356 1_554 S
N3150 C3142 1.356 . S
N3150 H3156 0.984 . S
N3150 H3157 0.984 . S
N3151 C3144 1.356 1_556 S
N3151 H3154 0.984 . S
N3151 H3155 0.985 . S
H3152 N3147 0.984 . S
H3153 N3147 0.985 . S
H3154 N3151 0.984 . S
H3155 N3151 0.985 . S
H3156 N3150 0.984 . S
H3157 N3150 0.984 . S
H3158 N3146 0.984 . S
H3159 N3146 0.985 . S
C3160 C3161 1.363 . S
C3160 C3166 1.379 . S
C3160 N3168 1.356 . S
C3161 C3160 1.363 . S
C3161 C3167 1.363 . S
C3162 C3163 1.363 . S
C3162 C3167 1.379 . S
C3162 N3169 1.356 . S
C3163 C3162 1.363 . S
C3163 C3166 1.363 . S
N3164 C3166 1.356 . S
N3164 H3176 0.984 . S
N3164 H3177 0.985 . S
N3165 C3167 1.356 . S
N3165 H3170 0.984 . S
N3165 H3171 0.985 . S
C3166 C3160 1.379 . S
C3166 C3163 1.363 . S
C3166 N3164 1.356 . S
C3167 C3161 1.363 . S
C3167 C3162 1.379 . S
C3167 N3165 1.356 . S
N3168 C3160 1.356 . S
N3168 H3174 0.984 . S
N3168 H3175 0.984 . S
N3169 C3162 1.356 . S
N3169 H3172 0.984 . S
N3169 H3173 0.985 . S
H3170 N3165 0.984 . S
H3171 N3165 0.985 . S
H3172 N3169 0.984 . S
H3173 N3169 0.985 . S
H3174 N3168 0.984 . S
H3175 N3168 0.984 . S
H3176 N3164 0.984 . S
H3177 N3164 0.985 . S
C3178 C3179 1.363 . S
C3178 C3184 1.379 1_554 S
C3178 N3186 1.356 . S
C3179 C3178 1.363 . S
C3179 C3185 1.363 . S
C3180 C3181 1.363 . S
C3180 C3185 1.379 1_556 S
C3180 N3187 1.356 . S
C3181 C3180 1.363 . S
C3181 C3184 1.363 . S
N3182 C3184 1.356 . S
N3182 H3194 0.984 . S
N3182 H3195 0.985 . S
N3183 C3185 1.356 . S
N3183 H3188 0.984 . S
N3183 H3189 0.985 . S
C3184 C3178 1.379 1_556 S
C3184 C3181 1.363 . S
C3184 N3182 1.356 . S
C3185 C3179 1.363 . S
C3185 C3180 1.379 1_554 S
C3185 N3183 1.356 . S
N3186 C3178 1.356 . S
N3186 H3192 0.984 . S
N3186 H3193 0.984 . S
N3187 C3180 1.356 . S
N3187 H3190 0.984 . S
N3187 H3191 0.985 . S
H3188 N3183 0.984 . S
H3189 N3183 0.985 . S
H3190 N3187 0.984 . S
H3191 N3187 0.985 . S
H3192 N3186 0.984 . S
H3193 N3186 0.984 . S
H3194 N3182 0.984 . S
H3195 N3182 0.985 . S
C3196 C3197 1.363 . S
C3196 C3202 1.379 . S
C3196 N3204 1.356 . S
C3197 C3196 1.363 . S
C3197 C3203 1.363 . S
C3198 C3199 1.363 . S
C3198 C3203 1.379 . S
C3198 N3205 1.356 . S
C3199 C3198 1.363 . S
C3199 C3202 1.363 . S
N3200 C3202 1.356 . S
N3200 H3212 0.984 . S
N3200 H3213 0.985 . S
N3201 C3203 1.356 . S
N3201 H3206 0.984 . S
N3201 H3207 0.985 . S
C3202 C3196 1.379 . S
C3202 C3199 1.363 . S
C3202 N3200 1.356 . S
C3203 C3197 1.363 . S
C3203 C3198 1.379 . S
C3203 N3201 1.356 . S
N3204 C3196 1.356 . S
N3204 H3210 0.984 . S
N3204 H3211 0.984 . S
N3205 C3198 1.356 . S
N3205 H3208 0.984 . S
N3205 H3209 0.985 . S
H3206 N3201 0.984 . S
H3207 N3201 0.985 . S
H3208 N3205 0.984 . S
H3209 N3205 0.985 . S
H3210 N3204 0.984 . S
H3211 N3204 0.984 . S
H3212 N3200 0.984 . S
H3213 N3200 0.985 . S
C3214 C3215 1.363 . S
C3214 C3220 1.379 . S
C3214 N3222 1.356 . S
C3215 C3214 1.363 . S
C3215 C3221 1.363 . S
C3216 C3217 1.363 . S
C3216 C3221 1.379 . S
C3216 N3223 1.356 . S
C3217 C3216 1.363 . S
C3217 C3220 1.363 . S
N3218 C3220 1.356 . S
N3218 H3230 0.984 . S
N3218 H3231 0.985 . S
N3219 C3221 1.356 . S
N3219 H3224 0.984 . S
N3219 H3225 0.985 . S
C3220 C3214 1.379 . S
C3220 C3217 1.363 . S
C3220 N3218 1.356 . S
C3221 C3215 1.363 . S
C3221 C3216 1.379 . S
C3221 N3219 1.356 . S
N3222 C3214 1.356 . S
N3222 H3228 0.984 . S
N3222 H3229 0.984 . S
N3223 C3216 1.356 . S
N3223 H3226 0.984 . S
N3223 H3227 0.985 . S
H3224 N3219 0.984 . S
H3225 N3219 0.985 . S
H3226 N3223 0.984 . S
H3227 N3223 0.985 . S
H3228 N3222 0.984 . S
H3229 N3222 0.984 . S
H3230 N3218 0.984 . S
H3231 N3218 0.985 . S
C1505 C255 2.291 . S
C1507 C874 2.285 1_556 S
C1523 C147 2.163 . S
C1525 C922 2.209 . S
C1541 C184 1.345 . S
C1543 C954 1.325 . S
C1561 C999 1.364 . S
C1559 C220 1.379 . S
C1577 C40 1.614 . S
C1579 C1039 1.552 . S
C1597 C1070 0.820 . S
C1595 C74 0.832 . S
C1615 C1122 1.689 . S
C1613 C110 1.608 . S
C1631 C14 2.017 . S
C1633 C1154 1.915 . S
C1651 C882 2.543 . S
C1649 C579 2.538 1_455 S
C1667 C616 0.838 . S
C1669 C919 0.821 . S
C1687 C962 1.301 . S
C1685 C687 1.287 . S
C1705 C994 1.564 . S
C1703 C436 1.545 . S
C1721 C580 2.022 1_455 S
C1723 C1034 2.035 . S
C1741 C1073 1.440 . S
C1739 C615 1.433 . S
C1759 C1119 0.712 . S
C1757 C688 0.701 . S
C1777 C1162 2.241 . S
C1775 C435 2.243 . S
C1795 C879 1.672 1_565 S
C1793 C410 1.827 1_554 S
C1811 C722 2.025 . S
C1813 C1202 2.032 . S
C1831 C1243 2.708 . S
C1829 C842 2.705 . S
C1849 C1274 0.832 1_655 S
C1847 C794 0.822 . S
C1865 C302 2.021 . S
C1867 C1159 1.854 . S
C1883 C338 1.733 . S
C1885 C959 1.637 . S
C1901 C830 2.302 . S
C1903 C1322 2.292 . S
C1921 C1354 0.739 . S
C1919 C758 0.736 . S
C1939 C883 2.300 . S
C1937 C158 2.183 . S
C1957 C1353 2.225 . S
C1955 C254 2.200 . S
C1973 C218 1.345 . S
C1975 C963 1.325 . S
C1991 C194 1.287 . S
C1993 C1310 1.349 . S
C2011 C1030 1.589 . S
C2009 C3 1.686 . S
C2027 C111 0.761 . S
C2029 C1239 0.760 . S
C2047 C1113 1.677 1_556 S
C2045 C76 1.558 . S
C2065 C1403 1.981 . S
C2063 C50 1.865 . S
C2083 C873 2.517 . S
C2081 C364 2.519 . S
C2101 C1350 0.904 . S
C2099 C795 0.958 . S
C2117 C292 1.261 . S
C2119 C953 1.259 . S
C2135 C723 1.521 . S
C2137 C1323 1.510 . S
C2153 C363 2.054 . S
C2155 C1043 2.035 . S
C2173 C1242 1.454 . S
C2171 C796 1.468 . S
C2189 C291 0.597 . S
C2191 C1110 0.638 . S
C2207 C724 2.249 . S
C2209 C1393 2.234 . S
C2225 C482 1.566 . S
C2227 C870 1.674 . S
C2243 C434 1.976 . S
C2245 C1193 1.990 . S
C2261 C662 2.649 . S
C2263 C1074 2.681 . S
C2279 C614 0.778 . S
C2281 C1283 0.781 . S
C2299 C1390 1.805 1_545 S
C2297 C698 1.634 . S
C2315 C554 1.531 . S
C2317 C950 1.641 . S
C2335 C993 2.263 . S
C2333 C650 2.261 . S
C2353 C923 0.790 . S
C2351 C506 0.813 . S
C2369 C183 2.292 . S
C2371 C1434 2.287 . S
C2389 C1362 2.207 . S
C2387 C219 2.162 . S
C2405 C256 1.345 . S
C2407 C1474 1.326 1_556 S
C2423 C148 1.377 . S
C2425 C1319 1.361 . S
C2441 C122 1.766 . S
C2443 C1199 1.594 . S
C2461 C1230 0.792 . S
C2459 C2 0.799 . S
C2479 C1282 1.664 . S
C2477 C39 1.551 1_455 S
C2497 C1394 1.963 . S
C2495 C86 2.059 . S
C2515 C1442 2.558 . S
C2513 C651 2.552 . S
C2531 C472 0.851 . S
C2533 C1359 0.832 . S
C2551 C1482 1.285 . S
C2549 C507 1.274 . S
C2569 C1314 1.562 . S
C2567 C544 1.544 . S
C2587 C1194 2.047 . S
C2585 C652 2.031 . S
C2603 C471 1.422 . S
C2605 C1233 1.434 . S
C2623 C1279 0.671 . S
C2621 C508 0.651 . S
C2639 C543 2.251 . S
C2641 C1402 2.246 . S
C2659 C1439 1.689 . S
C2657 C806 1.848 . S
C2675 C326 1.984 . S
C2677 C1042 1.990 . S
C2695 C1083 2.680 . S
C2693 C374 2.680 . S
C2713 C1114 0.841 . S
C2711 C398 0.834 . S
C2731 C1399 1.806 . S
C2729 C770 1.963 . S
C2747 C734 1.711 1_554 S
C2749 C1479 1.627 . S
C2767 C1002 2.280 . S
C2765 C362 2.289 . S
C2785 C914 0.755 . S
C2783 C290 0.759 . S
C2801 C230 2.181 . S
C2803 C1443 2.297 . S
C2821 C913 2.232 . S
C2819 C182 2.208 . S
C2837 C146 1.339 . S
C2839 C1483 1.321 . S
C2855 C266 1.284 . S
C2857 C990 1.347 . S
C2873 C75 1.689 . S
C2875 C1190 1.594 . S
C2893 C1079 0.803 . S
C2891 C38 0.811 . S
C2909 C4 1.506 . S
C2911 C1273 1.638 . S
C2927 C112 2.034 . S
C2929 C1163 1.925 . S
C2947 C1433 2.523 . S
C2945 C832 2.524 . S
C2963 C399 0.981 . S
C2965 C910 0.918 . S
C2983 C1473 1.245 . S
C2981 C760 1.248 . S
C2999 C327 1.516 . S
C3001 C1003 1.507 . S
C3017 C831 2.083 . S
C3019 C1203 2.061 . S
C3037 C1082 1.466 . S
C3035 C400 1.480 . S
C3053 C759 0.663 . S
C3055 C1270 0.689 . S
C3073 C1153 2.229 . S
C3071 C328 2.243 . S
C3091 C1430 1.685 . S
C3089 C626 1.576 . S
C3109 C1033 2.002 1_665 S
C3107 C542 1.989 . S
C3125 C590 2.617 . S
C3127 C1234 2.647 . S
C3145 C1123 0.810 . S
C3143 C470 0.802 . S
C3161 C518 1.592 . S
C3163 C1150 1.764 . S
C3179 C446 1.516 . S
C3181 C1470 1.625 . S
C3199 C1313 2.275 . S
C3197 C578 2.274 1_565 S
C3217 C1363 0.769 . S
C3215 C686 0.780 . S
