# Generated by pormake.
# Topology apo, (3,6)-cn, num edge types: 1
# Building blocks:
#     Node 0, Type 0, BuildingBlock: WUSLED_clean_sbu_0, # of connection points: 3
#     Node 1, Type 0, BuildingBlock: WUSLED_clean_sbu_0, # of connection points: 3
#     Node 2, Type 0, BuildingBlock: WUSLED_clean_sbu_0, # of connection points: 3
#     Node 3, Type 0, BuildingBlock: WUSLED_clean_sbu_0, # of connection points: 3
#     Node 4, Type 0, BuildingBlock: WUSLED_clean_sbu_0, # of connection points: 3
#     Node 5, Type 0, BuildingBlock: WUSLED_clean_sbu_0, # of connection points: 3
#     Node 6, Type 0, BuildingBlock: WUSLED_clean_sbu_0, # of connection points: 3
#     Node 7, Type 0, BuildingBlock: WUSLED_clean_sbu_0, # of connection points: 3
#     Node 8, Type 1, BuildingBlock: MIDCAF_clean_sbu_0, # of connection points: 6
#     Node 9, Type 1, BuildingBlock: MIDCAF_clean_sbu_0, # of connection points: 6
#     Node 10, Type 1, BuildingBlock: MIDCAF_clean_sbu_0, # of connection points: 6
#     Node 11, Type 1, BuildingBlock: MIDCAF_clean_sbu_0, # of connection points: 6
#     Edge 12, Type (0, 1), BuildingBlock: TEMPAE_clean_linker_10, # of connection points: 2
#     Edge 13, Type (0, 1), BuildingBlock: TEMPAE_clean_linker_10, # of connection points: 2
#     Edge 14, Type (0, 1), BuildingBlock: TEMPAE_clean_linker_10, # of connection points: 2
#     Edge 15, Type (0, 1), BuildingBlock: TEMPAE_clean_linker_10, # of connection points: 2
#     Edge 16, Type (0, 1), BuildingBlock: TEMPAE_clean_linker_10, # of connection points: 2
#     Edge 17, Type (0, 1), BuildingBlock: TEMPAE_clean_linker_10, # of connection points: 2
#     Edge 18, Type (0, 1), BuildingBlock: TEMPAE_clean_linker_10, # of connection points: 2
#     Edge 19, Type (0, 1), BuildingBlock: TEMPAE_clean_linker_10, # of connection points: 2
#     Edge 20, Type (0, 1), BuildingBlock: TEMPAE_clean_linker_10, # of connection points: 2
#     Edge 21, Type (0, 1), BuildingBlock: TEMPAE_clean_linker_10, # of connection points: 2
#     Edge 22, Type (0, 1), BuildingBlock: TEMPAE_clean_linker_10, # of connection points: 2
#     Edge 23, Type (0, 1), BuildingBlock: TEMPAE_clean_linker_10, # of connection points: 2
#     Edge 24, Type (0, 1), BuildingBlock: TEMPAE_clean_linker_10, # of connection points: 2
#     Edge 25, Type (0, 1), BuildingBlock: TEMPAE_clean_linker_10, # of connection points: 2
#     Edge 26, Type (0, 1), BuildingBlock: TEMPAE_clean_linker_10, # of connection points: 2
#     Edge 27, Type (0, 1), BuildingBlock: TEMPAE_clean_linker_10, # of connection points: 2
#     Edge 28, Type (0, 1), BuildingBlock: TEMPAE_clean_linker_10, # of connection points: 2
#     Edge 29, Type (0, 1), BuildingBlock: TEMPAE_clean_linker_10, # of connection points: 2
#     Edge 30, Type (0, 1), BuildingBlock: TEMPAE_clean_linker_10, # of connection points: 2
#     Edge 31, Type (0, 1), BuildingBlock: TEMPAE_clean_linker_10, # of connection points: 2
#     Edge 32, Type (0, 1), BuildingBlock: TEMPAE_clean_linker_10, # of connection points: 2
#     Edge 33, Type (0, 1), BuildingBlock: TEMPAE_clean_linker_10, # of connection points: 2
#     Edge 34, Type (0, 1), BuildingBlock: TEMPAE_clean_linker_10, # of connection points: 2
#     Edge 35, Type (0, 1), BuildingBlock: TEMPAE_clean_linker_10, # of connection points: 2
# Relax obj value: 0.081
# Max RMSD: 0.098
# Mean RMSD: 0.087
data_MOF--net-apo--node1-WUSLED_clean_sbu_0--node2-MIDCAF_clean_sbu_0--edge1-TEMPAE_clean_linker_10
_symmetry_space_group_name_H-M    P1
_symmetry_Int_Tables_number       1
_symmetry_cell_setting            triclinic
loop_
_symmetry_equiv_pos_as_xyz
'x, y, z'
_cell_length_a     45.298353
_cell_length_b     54.164185
_cell_length_c     47.484195
_cell_angle_alpha  90.069978
_cell_angle_beta   90.146087
_cell_angle_gamma 90.095912
loop_
_atom_site_label
_atom_site_type_symbol
_atom_site_fract_x
_atom_site_fract_y
_atom_site_fract_z
_atom_type_partial_charge
C0 C 0.36583 0.38528 0.35144 0.0
C1 C 0.36906 0.40645 0.36829 0.0
C2 C 0.40079 0.42534 0.33293 0.0
C3 C 0.38624 0.42631 0.35906 0.0
C4 C 0.39828 0.40382 0.3165 0.0
C5 C 0.38082 0.38402 0.32564 0.0
U6 U 0.33237 0.34338 0.4079 0.0
O7 O 0.28666 0.33067 0.41341 0.0
O8 O 0.32198 0.30363 0.40662 0.0
C9 C 0.29344 0.30738 0.40916 0.0
C10 C 0.3464 0.36474 0.36011 0.0
C11 C 0.27424 0.29398 0.38927 0.0
C12 C 0.2524 0.28833 0.34277 0.0
C13 C 0.27198 0.30083 0.36082 0.0
C14 C 0.23754 0.262 0.38144 0.0
C15 C 0.23486 0.26876 0.35291 0.0
C16 C 0.25703 0.27444 0.39935 0.0
C17 C 0.35757 0.35401 0.48548 0.0
C18 C 0.36798 0.32732 0.52563 0.0
C19 C 0.35904 0.37088 0.533 0.0
C20 C 0.35466 0.37401 0.50406 0.0
C21 C 0.36664 0.34766 0.54408 0.0
C22 C 0.36354 0.33046 0.4966 0.0
C23 C 0.35731 0.35887 0.45478 0.0
O24 O 0.35977 0.34488 0.36956 0.0
O25 O 0.32317 0.3709 0.3751 0.0
O26 O 0.33322 0.36879 0.44427 0.0
O27 O 0.36898 0.34197 0.43833 0.0
H28 H 0.35802 0.40778 0.38845 0.0
H29 H 0.38813 0.4425 0.37237 0.0
H30 H 0.40915 0.40259 0.29626 0.0
H31 H 0.37868 0.36783 0.31236 0.0
H32 H 0.25101 0.29395 0.32094 0.0
H33 H 0.28511 0.31595 0.35269 0.0
H34 H 0.22399 0.24743 0.39021 0.0
H35 H 0.25832 0.26903 0.42128 0.0
H36 H 0.37398 0.30922 0.53341 0.0
H37 H 0.35739 0.38686 0.54663 0.0
H38 H 0.35006 0.39233 0.49606 0.0
H39 H 0.36589 0.31465 0.48281 0.0
C40 C 0.19782 0.19796 0.99733 0.0
C41 C 0.18891 0.17494 1.00794 0.0
C42 C 0.17353 0.19407 0.05207 0.0
C43 C 0.17713 0.173 0.03503 0.0
C44 C 0.18295 0.21707 0.04153 0.0
C45 C 0.19498 0.21897 1.01443 0.0
U46 U 0.19567 0.17658 0.9215 0.0
O47 O 0.1971 0.19673 0.88124 0.0
O48 O 0.23075 0.16887 0.89078 0.0
C49 C 0.22197 0.18628 0.87339 0.0
C50 C 0.20879 0.20028 0.96814 0.0
C51 C 0.24512 0.2027 0.86147 0.0
C52 C 0.25872 0.23916 0.83424 0.0
C53 C 0.23725 0.22457 0.84739 0.0
C54 C 0.29646 0.21022 0.84863 0.0
C55 C 0.28862 0.23216 0.83466 0.0
C56 C 0.275 0.19565 0.86177 0.0
C57 C 0.1403 0.12366 0.90633 0.0
C58 C 0.14031 0.0952 0.86666 0.0
C59 C 0.09972 0.09486 0.8998 0.0
C60 C 0.11303 0.11406 0.91486 0.0
C61 C 0.1135 0.08482 0.87588 0.0
C62 C 0.15364 0.11447 0.88181 0.0
C63 C 0.15501 0.14203 0.92442 0.0
O64 O 0.22417 0.18146 0.95867 0.0
O65 O 0.18946 0.20852 0.94974 0.0
O66 O 0.14892 0.1653 0.91931 0.0
O67 O 0.18309 0.1381 0.92981 0.0
H68 H 0.19072 0.15844 0.99514 0.0
H69 H 0.17061 0.15492 0.04253 0.0
H70 H 0.18021 0.23373 0.05386 0.0
H71 H 0.20155 0.23693 1.0066 0.0
H72 H 0.25191 0.25607 0.82398 0.0
H73 H 0.21439 0.23035 0.84628 0.0
H74 H 0.31919 0.20406 0.84903 0.0
H75 H 0.28184 0.17866 0.87184 0.0
H76 H 0.15157 0.08777 0.84844 0.0
H77 H 0.07887 0.08755 0.90719 0.0
H78 H 0.10235 0.121 0.93367 0.0
H79 H 0.17472 0.1217 0.87486 0.0
C80 C 0.86944 0.13241 0.69427 0.0
C81 C 0.89231 0.12429 0.67669 0.0
C82 C 0.90696 0.0937 0.71171 0.0
C83 C 0.91096 0.10514 0.68536 0.0
C84 C 0.88423 0.10226 0.72936 0.0
C85 C 0.86568 0.12143 0.7207 0.0
U86 U 0.83679 0.1739 0.63717 0.0
O87 O 0.79051 0.18399 0.62906 0.0
O88 O 0.82291 0.21279 0.63928 0.0
C89 C 0.79482 0.20726 0.6359 0.0
C90 C 0.84876 0.1517 0.68502 0.0
C91 C 0.77374 0.21807 0.65649 0.0
C92 C 0.72408 0.2202 0.67607 0.0
C93 C 0.74459 0.20919 0.65802 0.0
C94 C 0.76135 0.24914 0.69181 0.0
C95 C 0.73205 0.24054 0.69293 0.0
C96 C 0.78191 0.23811 0.67376 0.0
C97 C 0.87158 0.16602 0.56219 0.0
C98 C 0.85803 0.1851 0.51753 0.0
C99 C 0.90046 0.15805 0.52019 0.0
C100 C 0.89527 0.15438 0.5488 0.0
C101 C 0.88212 0.17359 0.50414 0.0
C102 C 0.85284 0.1814 0.54644 0.0
C103 C 0.86741 0.16126 0.59246 0.0
O104 O 0.86077 0.17278 0.67752 0.0
O105 O 0.82791 0.14427 0.66769 0.0
O106 O 0.84282 0.15018 0.59994 0.0
O107 O 0.87561 0.17884 0.60992 0.0
H108 H 0.89551 0.13258 0.65616 0.0
H109 H 0.92839 0.09919 0.67135 0.0
H110 H 0.88015 0.09363 0.74955 0.0
H111 H 0.84803 0.12739 0.73448 0.0
H112 H 0.70179 0.21293 0.67657 0.0
H113 H 0.73744 0.19392 0.64491 0.0
H114 H 0.76816 0.265 0.70413 0.0
H115 H 0.80405 0.24564 0.67297 0.0
H116 H 0.84349 0.19717 0.50578 0.0
H117 H 0.91875 0.14839 0.51053 0.0
H118 H 0.90983 0.14228 0.56054 0.0
H119 H 0.83436 0.19051 0.55646 0.0
C120 C 0.69403 0.31816 0.04707 0.0
C121 C 0.68989 0.34134 0.03439 0.0
C122 C 0.67184 0.32173 0.9913 0.0
C123 C 0.67912 0.34309 1.00682 0.0
C124 C 0.67647 0.29853 1.00393 0.0
C125 C 0.6875 0.29679 0.03147 0.0
U126 U 0.69047 0.33857 0.12376 0.0
O127 O 0.69194 0.31745 0.16336 0.0
O128 O 0.72543 0.34579 0.15499 0.0
C129 C 0.71634 0.32824 0.17202 0.0
C130 C 0.7043 0.31599 0.07662 0.0
C131 C 0.73938 0.31182 0.18333 0.0
C132 C 0.77843 0.28161 0.17705 0.0
C133 C 0.7564 0.29678 0.16566 0.0
C134 C 0.7665 0.29627 0.22386 0.0
C135 C 0.78381 0.28119 0.20632 0.0
C136 C 0.74455 0.31142 0.21245 0.0
C137 C 0.63474 0.39016 0.14129 0.0
C138 C 0.63576 0.41807 0.18146 0.0
C139 C 0.59277 0.41669 0.15105 0.0
C140 C 0.60626 0.39845 0.13472 0.0
C141 C 0.60758 0.42709 0.17431 0.0
C142 C 0.64921 0.39971 0.16513 0.0
C143 C 0.64937 0.37271 0.12204 0.0
O144 O 0.7192 0.33491 0.08673 0.0
O145 O 0.68485 0.30719 0.09452 0.0
O146 O 0.64355 0.3492 0.12597 0.0
O147 O 0.67735 0.37709 0.11668 0.0
H148 H 0.69467 0.35818 0.04587 0.0
H149 H 0.67633 0.36126 0.99773 0.0
H150 H 0.67077 0.28169 0.99287 0.0
H151 H 0.69042 0.27872 0.04081 0.0
H152 H 0.79104 0.26999 0.16295 0.0
H153 H 0.75265 0.2968 0.14311 0.0
H154 H 0.77022 0.29664 0.2464 0.0
H155 H 0.73166 0.32298 0.22641 0.0
H156 H 0.64763 0.42552 0.1994 0.0
H157 H 0.57126 0.42342 0.1447 0.0
H158 H 0.59476 0.39132 0.11638 0.0
H159 H 0.67116 0.39343 0.17069 0.0
C160 C 0.66004 0.6245 0.68412 0.0
C161 C 0.65489 0.60436 0.66611 0.0
C162 C 0.62272 0.58549 0.70106 0.0
C163 C 0.63654 0.58499 0.67457 0.0
C164 C 0.62695 0.60612 0.71858 0.0
C165 C 0.6456 0.62541 0.71022 0.0
U166 U 0.69755 0.66661 0.63016 0.0
O167 O 0.71273 0.70512 0.63405 0.0
O168 O 0.7446 0.67565 0.62522 0.0
C169 C 0.74074 0.69897 0.63199 0.0
C170 C 0.68133 0.64404 0.67656 0.0
C171 C 0.76141 0.70915 0.65342 0.0
C172 C 0.81172 0.71312 0.67114 0.0
C173 C 0.79133 0.70239 0.65266 0.0
C174 C 0.7727 0.7374 0.69206 0.0
C175 C 0.8028 0.73112 0.69072 0.0
C176 C 0.75223 0.72658 0.67358 0.0
C177 C 0.67074 0.66095 0.55196 0.0
C178 C 0.65563 0.68701 0.51261 0.0
C179 C 0.67185 0.64517 0.50391 0.0
C180 C 0.67694 0.64194 0.53273 0.0
C181 C 0.66022 0.66746 0.49357 0.0
C182 C 0.66074 0.68378 0.54152 0.0
C183 C 0.67095 0.6553 0.58255 0.0
O184 O 0.70381 0.63698 0.66107 0.0
O185 O 0.66998 0.66519 0.66841 0.0
O186 O 0.66141 0.67247 0.59989 0.0
O187 O 0.69379 0.64307 0.59239 0.0
H188 H 0.6655 0.60334 0.64572 0.0
H189 H 0.63334 0.56946 0.66048 0.0
H190 H 0.61666 0.60694 0.73913 0.0
H191 H 0.64925 0.64082 0.72439 0.0
H192 H 0.83465 0.70762 0.66975 0.0
H193 H 0.79914 0.6891 0.63733 0.0
H194 H 0.76512 0.75141 0.70662 0.0
H195 H 0.72939 0.73236 0.67468 0.0
H196 H 0.64645 0.70435 0.50542 0.0
H197 H 0.67599 0.62984 0.48979 0.0
H198 H 0.68448 0.62411 0.54013 0.0
H199 H 0.65558 0.6988 0.55574 0.0
C200 C 0.83251 0.81293 0.04927 0.0
C201 C 0.83259 0.83569 0.03503 0.0
C202 C 0.85388 0.81633 0.99338 0.0
C203 C 0.84303 0.83733 1.00738 0.0
C204 C 0.85352 0.79354 1.00755 0.0
C205 C 0.84282 0.79186 0.03515 0.0
U206 U 0.83475 0.83406 0.12604 0.0
O207 O 0.7993 0.84053 0.15668 0.0
O208 O 0.83335 0.81281 0.16565 0.0
C209 C 0.80833 0.82287 0.17362 0.0
C210 C 0.82229 0.8109 0.07884 0.0
C211 C 0.78547 0.80579 0.18434 0.0
C212 C 0.73713 0.78631 0.18104 0.0
C213 C 0.75914 0.80137 0.16948 0.0
C214 C 0.76764 0.77942 0.2222 0.0
C215 C 0.74101 0.7752 0.20763 0.0
C216 C 0.78956 0.79459 0.21069 0.0
C217 C 0.88817 0.88757 0.1443 0.0
C218 C 0.88426 0.92031 0.17923 0.0
C219 C 0.93142 0.9117 0.15746 0.0
C220 C 0.91842 0.89268 0.14178 0.0
C221 C 0.91435 0.92612 0.17587 0.0
C222 C 0.8713 0.90117 0.16366 0.0
C223 C 0.87451 0.86942 0.125 0.0
O224 O 0.84193 0.80279 0.09703 0.0
O225 O 0.80662 0.82945 0.08859 0.0
O226 O 0.84651 0.87287 0.11881 0.0
O227 O 0.88122 0.84612 0.12923 0.0
H228 H 0.82497 0.85234 0.04534 0.0
H229 H 0.84344 0.85524 0.99725 0.0
H230 H 0.86159 0.777 0.99732 0.0
H231 H 0.84292 0.77409 0.04562 0.0
H232 H 0.7168 0.78379 0.16933 0.0
H233 H 0.75537 0.80981 0.14912 0.0
H234 H 0.77166 0.77091 0.24246 0.0
H235 H 0.80969 0.79776 0.22254 0.0
H236 H 0.8706 0.93092 0.19348 0.0
H237 H 0.95455 0.91585 0.15416 0.0
H238 H 0.93182 0.88246 0.12693 0.0
H239 H 0.84794 0.89749 0.16617 0.0
C240 C 0.16376 0.88652 0.34971 0.0
C241 C 0.1422 0.89599 0.36791 0.0
C242 C 0.12867 0.92704 0.33299 0.0
C243 C 0.12479 0.91605 0.35961 0.0
C244 C 0.15008 0.91718 0.31474 0.0
C245 C 0.16745 0.89712 0.32305 0.0
U246 U 0.19111 0.84081 0.4051 0.0
O247 O 0.20202 0.80142 0.40082 0.0
O248 O 0.23613 0.82779 0.41415 0.0
C249 C 0.23011 0.805 0.40654 0.0
C250 C 0.18284 0.86593 0.35843 0.0
C251 C 0.25119 0.7936 0.3869 0.0
C252 C 0.27321 0.78956 0.34037 0.0
C253 C 0.2527 0.80069 0.35848 0.0
C254 C 0.29072 0.76425 0.37895 0.0
C255 C 0.29263 0.7713 0.35048 0.0
C256 C 0.27027 0.7753 0.39693 0.0
C257 C 0.15501 0.84444 0.4794 0.0
C258 C 0.17283 0.83295 0.5261 0.0
C259 C 0.12075 0.84037 0.51841 0.0
C260 C 0.12624 0.84533 0.49007 0.0
C261 C 0.14393 0.8343 0.53695 0.0
C262 C 0.17832 0.83793 0.49754 0.0
C263 C 0.15975 0.85197 0.44985 0.0
O264 O 0.20328 0.87151 0.37708 0.0
O265 O 0.16918 0.84509 0.364 0.0
O266 O 0.15068 0.83643 0.43036 0.0
O267 O 0.18505 0.86263 0.44377 0.0
H268 H 0.13902 0.88798 0.38858 0.0
H269 H 0.1083 0.92299 0.37407 0.0
H270 H 0.15398 0.92538 0.29429 0.0
H271 H 0.18405 0.89007 0.30877 0.0
H272 H 0.27418 0.79548 0.31861 0.0
H273 H 0.2381 0.81484 0.35039 0.0
H274 H 0.30488 0.74992 0.38735 0.0
H275 H 0.26933 0.76952 0.41875 0.0
H276 H 0.19118 0.82822 0.5397 0.0
H277 H 0.09832 0.84219 0.52598 0.0
H278 H 0.10796 0.85052 0.47655 0.0
H279 H 0.20076 0.8371 0.48979 0.0
C280 C 0.33065 0.69631 0.98868 0.0
C281 C 0.33676 0.67288 0.99995 0.0
C282 C 0.35243 0.69145 0.04447 0.0
C283 C 0.34732 0.67048 0.02754 0.0
C284 C 0.3459 0.71487 0.03319 0.0
C285 C 0.33509 0.71724 1.00562 0.0
U286 U 0.33431 0.67744 0.91153 0.0
O287 O 0.29952 0.67108 0.87993 0.0
O288 O 0.33328 0.6994 0.87247 0.0
C289 C 0.30887 0.68888 0.86339 0.0
C290 C 0.32051 0.6992 0.95918 0.0
C291 C 0.28605 0.70552 0.85197 0.0
C292 C 0.24293 0.73172 0.85769 0.0
C293 C 0.26508 0.71683 0.8694 0.0
C294 C 0.26273 0.72439 0.81111 0.0
C295 C 0.24137 0.73559 0.82834 0.0
C296 C 0.2848 0.70953 0.82283 0.0
C297 C 0.38966 0.62557 0.89324 0.0
C298 C 0.38804 0.59602 0.85464 0.0
C299 C 0.43257 0.60037 0.88255 0.0
C300 C 0.41896 0.61873 0.89864 0.0
C301 C 0.41707 0.58839 0.86076 0.0
C302 C 0.37447 0.61449 0.8707 0.0
C303 C 0.375 0.64293 0.91264 0.0
O304 O 0.34015 0.70818 0.9416 0.0
O305 O 0.30546 0.68059 0.94855 0.0
O306 O 0.34694 0.63871 0.91779 0.0
O307 O 0.38113 0.66645 0.90924 0.0
H308 H 0.33364 0.65639 0.98735 0.0
H309 H 0.3516 0.65212 0.03554 0.0
H310 H 0.34993 0.73147 0.04534 0.0
H311 H 0.33066 0.7355 0.99735 0.0
H312 H 0.22665 0.73976 0.8716 0.0
H313 H 0.26562 0.71392 0.89196 0.0
H314 H 0.26249 0.7272 0.78853 0.0
H315 H 0.30084 0.70097 0.80903 0.0
H316 H 0.37561 0.58733 0.83781 0.0
H317 H 0.45479 0.59477 0.88807 0.0
H318 H 0.43104 0.62703 0.91597 0.0
H319 H 0.35188 0.61961 0.86601 0.0
Zn320 Zn 0.02833 0.13635 0.31274 0.0
Zn321 Zn 0.9893 0.14093 0.21556 0.0
Zn322 Zn 1.00898 0.14047 0.26667 0.0
C323 C 0.0426 0.16653 0.21425 0.0
C324 C 0.99401 0.0917 0.22807 0.0
O325 O 0.97464 0.15496 0.29629 0.0
O326 O 0.99028 0.13362 0.33284 0.0
C327 C 0.05964 0.17456 0.29184 0.0
O328 O 0.04236 0.1607 0.24061 0.0
O329 O 0.02118 0.16074 0.19853 0.0
O330 O 0.98789 0.10516 0.2072 0.0
O331 O 1.00238 0.10162 0.25153 0.0
O332 O 0.04951 0.16814 0.31544 0.0
O333 O 0.04987 0.16386 0.26936 0.0
O334 O 0.01965 0.10084 0.27595 0.0
O335 O 0.05271 0.10618 0.30957 0.0
C336 C 0.04001 0.09214 0.29218 0.0
O337 O 0.96565 0.16026 0.26808 0.0
O338 O 0.95147 0.15744 0.22358 0.0
C339 C 0.97067 0.14685 0.32154 0.0
C340 C 0.94664 0.16464 0.24843 0.0
Zn341 Zn 0.53358 0.37634 0.72393 0.0
Zn342 Zn 0.48897 0.37304 0.82303 0.0
Zn343 Zn 0.51124 0.37342 0.77308 0.0
C344 C 0.49477 0.42221 0.81081 0.0
C345 C 0.44756 0.34979 0.78879 0.0
O346 O 0.55461 0.35346 0.77411 0.0
O347 O 0.57255 0.36207 0.73203 0.0
C348 C 0.52654 0.4244 0.73895 0.0
O349 O 0.50336 0.41228 0.78748 0.0
O350 O 0.48858 0.4087 0.8316 0.0
O351 O 0.45072 0.35788 0.81354 0.0
O352 O 0.46814 0.35313 0.77042 0.0
O353 O 0.53241 0.4122 0.71705 0.0
O354 O 0.51876 0.41307 0.76169 0.0
O355 O 0.47968 0.35517 0.74299 0.0
O356 O 0.50517 0.35548 0.70341 0.0
C357 C 0.48214 0.34954 0.71667 0.0
O358 O 0.54302 0.35384 0.80158 0.0
O359 O 0.51872 0.35214 0.84184 0.0
C360 C 0.57556 0.35201 0.7558 0.0
C361 C 0.54137 0.34705 0.82758 0.0
Zn362 Zn 0.03848 0.87287 0.81788 0.0
Zn363 Zn 0.98647 0.88065 0.73046 0.0
Zn364 Zn 0.01373 0.87503 0.77438 0.0
C365 C 0.98564 0.92652 0.75197 0.0
C366 C 0.95394 0.84599 0.75782 0.0
O367 O 0.05436 0.85191 0.76801 0.0
O368 O 0.05868 0.84101 0.8125 0.0
C369 C 0.04806 0.91964 0.80405 0.0
O370 O 1.00513 0.91564 0.76748 0.0
O371 O 0.97079 0.91421 0.73444 0.0
O372 O 0.95712 0.85424 0.73321 0.0
O373 O 0.97185 0.85279 0.77758 0.0
O374 O 0.06275 0.9034 0.8169 0.0
O375 O 0.02565 0.91306 0.78893 0.0
O376 O 0.98226 0.85753 0.8048 0.0
O377 O 1.00349 0.87299 0.84265 0.0
C378 C 0.98169 0.86223 0.83146 0.0
O379 O 0.04388 0.8597 0.7415 0.0
O380 O 0.02057 0.87602 0.70521 0.0
C381 C 0.06605 0.83809 0.78714 0.0
C382 C 0.04277 0.86484 0.715 0.0
Zn383 Zn 0.53492 0.64337 0.21615 0.0
Zn384 Zn 0.48584 0.63544 0.31429 0.0
Zn385 Zn 0.50983 0.63992 0.2658 0.0
C386 C 0.537 0.66186 0.32432 0.0
C387 C 0.49406 0.58775 0.29725 0.0
O388 O 0.47822 0.65908 0.23674 0.0
O389 O 0.5031 0.66162 0.19681 0.0
C390 C 0.57192 0.66825 0.25317 0.0
O391 O 0.53989 0.65763 0.29769 0.0
O392 O 0.51389 0.65499 0.33686 0.0
O393 O 0.4865 0.59937 0.31909 0.0
O394 O 0.50306 0.5997 0.27535 0.0
O395 O 0.57018 0.66225 0.22757 0.0
O396 O 0.55168 0.66162 0.27071 0.0
O397 O 0.5197 0.60189 0.25042 0.0
O398 O 0.53948 0.60765 0.2084 0.0
C399 C 0.53138 0.59318 0.22773 0.0
O400 O 0.46617 0.65932 0.26403 0.0
O401 O 0.44738 0.65046 0.30571 0.0
C402 C 0.47995 0.66582 0.21073 0.0
C403 C 0.44488 0.66069 0.28198 0.0
C404 C 0.10689 0.9684 0.34435 0.0
C405 C 0.1115 0.94938 0.32478 0.0
C406 C 0.09259 0.99033 0.33659 0.0
C407 C 0.08264 0.99345 0.30851 0.0
C408 C 0.08629 0.97403 0.28885 0.0
C409 C 0.10078 0.95227 0.29719 0.0
C410 C 0.08905 0.01054 0.35827 0.0
C411 C 0.07605 0.97653 0.25872 0.0
C412 C 0.02968 0.04719 0.2983 0.0
C413 C 0.04925 0.06612 0.29095 0.0
C414 C 0.03993 0.02298 0.30263 0.0
C415 C 0.07042 0.01777 0.29957 0.0
C416 C 0.0899 0.03668 0.29069 0.0
C417 C 0.0791 0.06067 0.28675 0.0
C418 C 0.01847 1.00325 0.31182 0.0
C419 C 0.12248 0.0319 0.28693 0.0
H420 H 0.11538 0.96651 0.3656 0.0
H421 H 0.10391 0.93757 0.28199 0.0
H422 H 0.10223 0.02691 0.35199 0.0
H423 H 0.06562 0.0164 0.35942 0.0
H424 H 0.09631 1.00465 0.37959 0.0
H425 H 0.07382 0.95827 0.24824 0.0
H426 H 0.05459 0.9863 0.25745 0.0
H427 H 0.09244 0.9876 0.24683 0.0
H428 H 1.00679 0.05163 0.30243 0.0
H429 H 0.09422 0.07547 0.28135 0.0
H430 H 0.0255 0.99538 0.33233 0.0
H431 H 0.01837 0.98795 0.29626 0.0
H432 H 0.99566 0.01043 0.31402 0.0
H433 H 0.13268 0.02774 0.30765 0.0
H434 H 0.13415 0.04798 0.27759 0.0
H435 H 0.12593 0.01559 0.27318 0.0
C436 C 0.46015 0.56636 0.83866 0.0
C437 C 0.43025 0.56657 0.84642 0.0
C438 C 0.47362 0.54472 0.82858 0.0
C439 C 0.45689 0.52266 0.8266 0.0
C440 C 0.42636 0.52312 0.833 0.0
C441 C 0.41343 0.54504 0.84273 0.0
C442 C 0.50612 0.5454 0.82171 0.0
C443 C 0.40769 0.50003 0.83131 0.0
C444 C 0.48061 0.46329 0.7904 0.0
C445 C 0.48997 0.44915 0.81345 0.0
C446 C 0.47203 0.48805 0.79388 0.0
C447 C 0.47154 0.49848 0.82125 0.0
C448 C 0.48229 0.48462 0.84434 0.0
C449 C 0.49149 0.4602 0.84013 0.0
C450 C 0.46215 0.50257 0.76848 0.0
C451 C 0.48262 0.49513 0.87382 0.0
H452 H 0.47326 0.583 0.84108 0.0
H453 H 0.39041 0.54493 0.84893 0.0
H454 H 0.519 0.54293 0.84141 0.0
H455 H 0.51256 0.53062 0.80678 0.0
H456 H 0.51237 0.56355 0.81261 0.0
H457 H 0.38395 0.50381 0.83521 0.0
H458 H 0.40992 0.49133 0.81026 0.0
H459 H 0.41551 0.48647 0.84716 0.0
H460 H 0.47874 0.45474 0.76984 0.0
H461 H 0.49884 0.4494 0.85802 0.0
H462 H 0.4698 0.52201 0.76986 0.0
H463 H 0.43768 0.50271 0.76756 0.0
H464 H 0.47057 0.49433 0.74862 0.0
H465 H 0.49497 0.51283 0.87418 0.0
H466 H 0.49288 0.48234 0.88927 0.0
H467 H 0.45969 0.49907 0.88065 0.0
C468 C 0.61685 0.54011 0.70801 0.0
C469 C 0.60518 0.56392 0.71073 0.0
C470 C 0.60055 0.51928 0.71605 0.0
C471 C 0.57165 0.52224 0.72687 0.0
C472 C 0.55996 0.5463 0.73038 0.0
C473 C 0.57695 0.5669 0.72233 0.0
C474 C 0.61408 0.49401 0.7123 0.0
C475 C 0.52917 0.55042 0.74143 0.0
C476 C 0.52736 0.46434 0.71325 0.0
C477 C 0.53164 0.45135 0.73842 0.0
C478 C 0.53794 0.48851 0.71009 0.0
C479 C 0.55348 0.49984 0.73254 0.0
C480 C 0.55544 0.48764 0.75887 0.0
C481 C 0.5447 0.46338 0.76144 0.0
C482 C 0.53448 0.50117 0.68197 0.0
C483 C 0.57087 0.49943 0.78365 0.0
H484 H 0.63888 0.53777 0.69953 0.0
H485 H 0.5678 0.5853 0.72438 0.0
H486 H 0.61346 0.48372 0.73248 0.0
H487 H 0.60108 0.48328 0.69666 0.0
H488 H 0.63733 0.49497 0.70499 0.0
H489 H 0.5271 0.56883 0.75157 0.0
H490 H 0.51333 0.54964 0.72359 0.0
H491 H 0.52269 0.53603 0.7568 0.0
H492 H 0.51697 0.45514 0.69551 0.0
H493 H 0.54815 0.45336 0.78092 0.0
H494 H 0.55623 0.50207 0.6713 0.0
H495 H 0.52667 0.5204 0.68494 0.0
H496 H 0.51873 0.49129 0.66795 0.0
H497 H 0.5951 0.49831 0.78053 0.0
H498 H 0.56527 0.49004 0.80374 0.0
H499 H 0.56495 0.51924 0.78542 0.0
C500 C 0.95567 0.94785 0.20151 0.0
C501 C 0.92732 0.94844 0.18948 0.0
C502 C 0.96915 0.96952 0.21173 0.0
C503 C 0.95408 0.99232 0.20951 0.0
C504 C 0.92506 0.99283 0.19832 0.0
C505 C 0.91203 0.97091 0.18855 0.0
C506 C 0.99986 0.96818 0.22402 0.0
C507 C 0.90824 0.01675 0.19536 0.0
C508 C 0.9758 0.05158 0.24735 0.0
C509 C 0.9892 0.06481 0.22551 0.0
C510 C 0.96584 0.02723 0.2431 0.0
C511 C 0.96929 0.01603 0.21633 0.0
C512 C 0.98439 0.02889 0.19476 0.0
C513 C 0.99403 0.05315 0.19959 0.0
C514 C 0.94994 0.01412 0.26663 0.0
C515 C 0.98863 0.01768 0.16592 0.0
H516 H 0.96746 0.93048 0.20258 0.0
H517 H 0.8903 0.97158 0.17897 0.0
H518 H 0.0155 0.9784 0.21037 0.0
H519 H 1.00037 0.97713 0.24503 0.0
H520 H 1.00774 0.94886 0.22619 0.0
H521 H 0.88519 0.01378 0.18804 0.0
H522 H 0.90767 0.02671 0.21578 0.0
H523 H 0.91961 0.0289 0.18 0.0
H524 H 0.97132 0.06082 0.26713 0.0
H525 H 1.00434 0.06341 0.18265 0.0
H526 H 0.95993 0.99571 0.27028 0.0
H527 H 0.92652 0.01106 0.26066 0.0
H528 H 0.95057 0.02478 0.28663 0.0
H529 H 0.99826 0.99893 0.1677 0.0
H530 H 1.00322 0.0291 0.15239 0.0
H531 H 0.96689 0.01577 0.1553 0.0
C532 C 0.9316 0.05342 0.70045 0.0
C533 C 0.92508 0.07194 0.72014 0.0
C534 C 0.94577 0.03154 0.70861 0.0
C535 C 0.9535 0.0279 0.73725 0.0
C536 C 0.94822 0.04698 0.75701 0.0
C537 C 0.93427 0.06882 0.74818 0.0
C538 C 0.95082 0.01166 0.68682 0.0
C539 C 0.95669 0.0442 0.78759 0.0
C540 C 0.94974 0.9604 0.75704 0.0
C541 C 0.97921 0.95308 0.75439 0.0
C542 C 0.94145 0.98509 0.75345 0.0
C543 C 0.96319 1.00293 0.7467 0.0
C544 C 0.99333 0.99591 0.74584 0.0
C545 C 1.00101 0.97091 0.74952 0.0
C546 C 0.90914 0.99176 0.75512 0.0
C547 C 0.01719 0.01448 0.73945 0.0
H548 H 0.92438 0.05549 0.6788 0.0
H549 H 0.93001 0.0833 0.7634 0.0
H550 H 0.97395 1.00501 0.68781 0.0
H551 H 0.93622 0.99566 0.69126 0.0
H552 H 0.9462 0.01822 0.66509 0.0
H553 H 0.94694 0.0589 0.80096 0.0
H554 H 0.94963 0.02598 0.79588 0.0
H555 H 0.98104 0.0453 0.78953 0.0
H556 H 0.93291 0.94651 0.76072 0.0
H557 H 0.02378 0.96514 0.74716 0.0
H558 H 0.90102 0.99718 0.73394 0.0
H559 H 0.906 0.0078 0.76935 0.0
H560 H 0.89538 0.97619 0.76286 0.0
H561 H 0.01524 0.02054 0.71721 0.0
H562 H 0.03962 0.00673 0.7428 0.0
H563 H 0.01457 0.03108 0.75291 0.0
C564 C 0.56431 0.44971 0.19523 0.0
C565 C 0.59464 0.4487 0.18927 0.0
C566 C 0.55128 0.47139 0.20569 0.0
C567 C 0.56895 0.49267 0.20995 0.0
C568 C 0.59983 0.49129 0.20558 0.0
C569 C 0.61228 0.46934 0.19535 0.0
C570 C 0.51835 0.47177 0.21042 0.0
C571 C 0.6195 0.51352 0.20991 0.0
C572 C 0.53788 0.5565 0.19681 0.0
C573 C 0.53685 0.56643 0.22406 0.0
C574 C 0.54698 0.53213 0.19213 0.0
C575 C 0.55509 0.51717 0.21531 0.0
C576 C 0.55237 0.52658 0.24303 0.0
C577 C 0.54387 0.55131 0.24705 0.0
C578 C 0.54918 0.52277 0.16223 0.0
C579 C 0.55963 0.51097 0.26839 0.0
H580 H 0.55056 0.43372 0.19101 0.0
H581 H 0.63567 0.46884 0.19061 0.0
H582 H 0.51198 0.48526 0.2269 0.0
H583 H 0.50717 0.47711 0.19053 0.0
H584 H 0.51009 0.45322 0.21653 0.0
H585 H 0.64328 0.50888 0.20787 0.0
H586 H 0.61399 0.52785 0.19406 0.0
H587 H 0.61575 0.52166 0.23104 0.0
H588 H 0.53238 0.56809 0.17895 0.0
H589 H 0.5439 0.55903 0.26809 0.0
H590 H 0.53639 0.50541 0.15985 0.0
H591 H 0.57255 0.51853 0.15721 0.0
H592 H 0.54086 0.53638 0.14664 0.0
H593 H 0.55143 0.4918 0.26557 0.0
H594 H 0.54993 0.51874 0.28796 0.0
H595 H 0.58394 0.51011 0.27106 0.0
C596 C 0.44629 0.44451 0.31168 0.0
C597 C 0.41772 0.44709 0.32268 0.0
C598 C 0.46289 0.46532 0.30357 0.0
C599 C 0.45051 0.48919 0.3064 0.0
C600 C 0.42122 0.49173 0.3164 0.0
C601 C 0.40528 0.47071 0.3245 0.0
C602 C 0.49403 0.46177 0.29314 0.0
C603 C 0.40695 0.51679 0.31942 0.0
C604 C 0.49327 0.54747 0.32214 0.0
C605 C 0.4898 0.56068 0.297 0.0
C606 C 0.48297 0.52317 0.32466 0.0
C607 C 0.46855 0.51185 0.30152 0.0
C608 C 0.46749 0.52427 0.27526 0.0
C609 C 0.47799 0.54869 0.27335 0.0
C610 C 0.48527 0.51044 0.35285 0.0
C611 C 0.45307 0.51267 0.24983 0.0
H612 H 0.45603 0.42628 0.31028 0.0
H613 H 0.38301 0.47275 0.33246 0.0
H614 H 0.49893 0.47445 0.27546 0.0
H615 H 0.50976 0.4661 0.3104 0.0
H616 H 0.498 0.44248 0.28614 0.0
H617 H 0.38342 0.51547 0.32579 0.0
H618 H 0.41899 0.52779 0.33551 0.0
H619 H 0.40823 0.52701 0.29923 0.0
H620 H 0.50269 0.55665 0.34039 0.0
H621 H 0.47521 0.55887 0.25387 0.0
H622 H 0.49308 0.49118 0.35018 0.0
H623 H 0.46312 0.50965 0.36275 0.0
H624 H 0.50053 0.52025 0.36742 0.0
H625 H 0.45801 0.49264 0.2486 0.0
H626 H 0.46043 0.52164 0.23001 0.0
H627 H 0.42878 0.51476 0.25149 0.0
C628 C 0.09077 0.04279 0.87849 0.0
C629 C 0.10098 0.06248 0.86198 0.0
C630 C 0.08039 0.02092 0.8661 0.0
C631 C 0.08013 0.01859 0.8364 0.0
C632 C 0.08966 0.03861 0.81953 0.0
C633 C 0.10009 0.06032 0.83253 0.0
C634 C 0.07071 0.99995 0.88491 0.0
C635 C 0.08919 0.03696 0.78781 0.0
C636 C 0.08593 0.95213 0.81227 0.0
C637 C 0.05625 0.94584 0.8079 0.0
C638 C 0.09414 0.97618 0.81995 0.0
C639 C 0.07209 0.99441 0.82345 0.0
C640 C 0.04219 0.98846 0.81768 0.0
C641 C 0.03459 0.96413 0.81021 0.0
C642 C 0.12626 0.98168 0.82588 0.0
C643 C 0.01805 0.00735 0.82099 0.0
H644 H 0.09179 0.04415 0.90124 0.0
H645 H 0.1076 0.07559 0.81967 0.0
H646 H 0.04812 0.99382 0.87911 0.0
H647 H 0.08565 0.98393 0.882 0.0
H648 H 0.07084 1.00517 0.90755 0.0
H649 H 0.09751 0.05408 0.77769 0.0
H650 H 0.10284 0.02117 0.78066 0.0
H651 H 0.06631 0.03351 0.78043 0.0
H652 H 0.10273 0.93797 0.8105 0.0
H653 H 0.01157 0.95914 0.80761 0.0
H654 H 0.12931 0.98538 0.8487 0.0
H655 H 0.13336 0.99846 0.81436 0.0
H656 H 0.1409 0.96613 0.81981 0.0
H657 H 0.01424 0.01089 0.8437 0.0
H658 H 0.99695 1.00103 0.81139 0.0
H659 H 0.02462 0.0251 0.81122 0.0
C660 C 0.13417 0.17642 0.08323 0.0
C661 C 0.1586 0.19212 0.08003 0.0
C662 C 0.11921 0.17457 0.10896 0.0
C663 C 0.12861 0.18897 0.13227 0.0
C664 C 0.15342 0.2047 0.12941 0.0
C665 C 0.16812 0.20611 0.10332 0.0
C666 C 0.09286 0.15751 0.11099 0.0
C667 C 0.16408 0.22034 0.15373 0.0
C668 C 0.06458 0.19739 0.18212 0.0
C669 C 0.06864 0.17749 0.20051 0.0
C670 C 0.08565 0.20307 0.16149 0.0
C671 C 0.11116 0.18815 0.1589 0.0
C672 C 0.11666 0.16952 0.17919 0.0
C673 C 0.0952 0.16432 0.19973 0.0
C674 C 0.07901 0.22335 0.14065 0.0
C675 C 0.14366 0.15334 0.17748 0.0
H676 H 0.1262 0.16589 0.06533 0.0
H677 H 0.18715 0.21811 0.10121 0.0
H678 H 0.09592 0.14435 0.12864 0.0
H679 H 0.07268 0.1684 0.11545 0.0
H680 H 0.08919 0.1468 0.09132 0.0
H681 H 0.18501 0.23013 0.14883 0.0
H682 H 0.14705 0.23425 0.15911 0.0
H683 H 0.1675 0.20874 0.1727 0.0
H684 H 0.04385 0.20739 0.18253 0.0
H685 H 0.09809 0.1486 0.21358 0.0
H686 H 0.0717 0.21502 0.12043 0.0
H687 H 0.09905 0.23449 0.13633 0.0
H688 H 0.06129 0.23581 0.14829 0.0
H689 H 0.1404 0.13938 0.16063 0.0
H690 H 0.1478 0.14349 0.19762 0.0
H691 H 0.16351 0.16434 0.17204 0.0
C692 C 0.39523 0.36299 0.58571 0.0
C693 C 0.37614 0.34528 0.57408 0.0
C694 C 0.40703 0.36019 0.61284 0.0
C695 C 0.39953 0.33914 0.62906 0.0
C696 C 0.37908 0.32178 0.61808 0.0
C697 C 0.36785 0.32491 0.59059 0.0
C698 C 0.42888 0.37916 0.6235 0.0
C699 C 0.36997 0.29937 0.6348 0.0
C700 C 0.46413 0.32494 0.67619 0.0
C701 C 0.45742 0.3392 0.69998 0.0
C702 C 0.44391 0.32236 0.654 0.0
C703 C 0.4162 0.3343 0.65568 0.0
C704 C 0.40781 0.34581 0.6813 0.0
C705 C 0.42865 0.34821 0.70326 0.0
C706 C 0.45376 0.30948 0.62742 0.0
C707 C 0.37805 0.35789 0.68445 0.0
H708 H 0.40212 0.3786 0.57306 0.0
H709 H 0.35286 0.31126 0.58189 0.0
H710 H 0.42205 0.38611 0.64446 0.0
H711 H 0.45093 0.37051 0.62599 0.0
H712 H 0.43105 0.39515 0.60901 0.0
H713 H 0.34905 0.29128 0.6267 0.0
H714 H 0.38742 0.2851 0.63327 0.0
H715 H 0.36717 0.30401 0.6574 0.0
H716 H 0.48627 0.31764 0.67379 0.0
H717 H 0.42328 0.35918 0.72166 0.0
H718 H 0.45873 0.32348 0.61105 0.0
H719 H 0.43602 0.29735 0.61911 0.0
H720 H 0.47388 0.29817 0.63091 0.0
H721 H 0.37861 0.37638 0.67442 0.0
H722 H 0.37213 0.36032 0.70698 0.0
H723 H 0.36058 0.34688 0.67385 0.0
C724 C 0.66462 0.30684 0.94119 0.0
C725 C 0.65797 0.32375 0.96276 0.0
C726 C 0.6501 0.30782 0.91492 0.0
C727 C 0.6284 0.32612 0.91007 0.0
C728 C 0.62237 0.34373 0.93138 0.0
C729 C 0.63704 0.34225 0.95738 0.0
C730 C 0.65725 0.28876 0.89276 0.0
C731 C 0.59944 0.36363 0.92718 0.0
C732 C 0.59504 0.3456 0.84002 0.0
C733 C 0.56656 0.33577 0.84265 0.0
C734 C 0.61674 0.34082 0.86063 0.0
C735 C 0.60966 0.32576 0.88411 0.0
C736 C 0.582 0.31358 0.8849 0.0
C737 C 0.56075 0.31888 0.86428 0.0
C738 C 0.64606 0.35391 0.85868 0.0
C739 C 0.57363 0.29691 0.90907 0.0
H740 H 0.68105 0.29269 0.94489 0.0
H741 H 0.63128 0.35517 0.9739 0.0
H742 H 0.63835 0.27587 0.89039 0.0
H743 H 0.66076 0.2977 0.87203 0.0
H744 H 0.6772 0.27787 0.89827 0.0
H745 H 0.59896 0.37701 0.94492 0.0
H746 H 0.60383 0.3739 0.90742 0.0
H747 H 0.57725 0.35508 0.92517 0.0
H748 H 0.59958 0.35875 0.82338 0.0
H749 H 0.53876 0.3111 0.8662 0.0
H750 H 0.66433 0.34182 0.86587 0.0
H751 H 0.64575 0.3704 0.87257 0.0
H752 H 0.65069 0.36011 0.83683 0.0
H753 H 0.5919 0.28405 0.91418 0.0
H754 H 0.55347 0.28593 0.90436 0.0
H755 H 0.56936 0.30828 0.92808 0.0
C756 C 0.86601 0.1758 0.45317 0.0
C757 C 0.88848 0.17711 0.47357 0.0
C758 C 0.87281 0.17496 0.42421 0.0
C759 C 0.90274 0.17506 0.41555 0.0
C760 C 0.92525 0.17838 0.43599 0.0
C761 C 0.91782 0.17956 0.4646 0.0
C762 C 0.84805 0.17235 0.40312 0.0
C763 C 0.95749 0.17878 0.4279 0.0
C764 C 0.93362 0.1357 0.35733 0.0
C765 C 0.94499 0.1536 0.33904 0.0
C766 C 0.91691 0.14235 0.38092 0.0
C767 C 0.91133 0.16763 0.38637 0.0
C768 C 0.91962 0.18552 0.36604 0.0
C769 C 0.93662 0.1783 0.34257 0.0
C770 C 0.90829 0.12249 0.40165 0.0
C771 C 0.9131 0.21254 0.37034 0.0
H772 H 0.84323 0.17409 0.45983 0.0
H773 H 0.93526 0.18135 0.48015 0.0
H774 H 0.85301 0.18261 0.38347 0.0
H775 H 0.84526 0.15259 0.39752 0.0
H776 H 0.82681 0.17911 0.41184 0.0
H777 H 0.9721 0.18328 0.44603 0.0
H778 H 0.96395 0.16042 0.41954 0.0
H779 H 0.96139 0.19253 0.41104 0.0
H780 H 0.93991 0.11654 0.35447 0.0
H781 H 0.94553 0.19223 0.32861 0.0
H782 H 0.88502 0.12476 0.40829 0.0
H783 H 0.92234 0.12404 0.42076 0.0
H784 H 0.91102 0.10366 0.39273 0.0
H785 H 0.89153 0.21521 0.38093 0.0
H786 H 0.91295 0.22265 0.34999 0.0
H787 H 0.93047 0.22081 0.38392 0.0
C788 C 0.85374 0.83324 0.94401 0.0
C789 C 0.8672 0.81867 0.96482 0.0
C790 C 0.86801 0.83814 0.91834 0.0
C791 C 0.89664 0.82857 0.91351 0.0
C792 C 0.90948 0.81256 0.93369 0.0
C793 C 0.89459 0.80776 0.95903 0.0
C794 C 0.85325 0.85484 0.89717 0.0
C795 C 0.93998 0.802 0.92951 0.0
C796 C 0.93845 0.83485 0.84399 0.0
C797 C 0.95671 0.85512 0.84993 0.0
C798 C 0.91761 0.82648 0.86388 0.0
C799 C 0.91526 0.83864 0.89028 0.0
C800 C 0.93263 0.85989 0.89562 0.0
C801 C 0.95297 0.86783 0.87544 0.0
C802 C 0.89922 0.80399 0.85711 0.0
C803 C 0.93081 0.87365 0.92329 0.0
H804 H 0.83232 0.84136 0.94812 0.0
H805 H 0.90522 0.79657 0.975 0.0
H806 H 0.86393 0.87329 0.89772 0.0
H807 H 0.85581 0.84742 0.87552 0.0
H808 H 0.82936 0.85722 0.90164 0.0
H809 H 0.94537 0.78764 0.94539 0.0
H810 H 0.94202 0.79382 0.90819 0.0
H811 H 0.95658 0.81703 0.93122 0.0
H812 H 0.94138 0.82485 0.82448 0.0
H813 H 0.9667 0.88375 0.88006 0.0
H814 H 0.87607 0.80656 0.86408 0.0
H815 H 0.90825 0.78783 0.86856 0.0
H816 H 0.89931 0.79972 0.8342 0.0
H817 H 0.90768 0.87914 0.9276 0.0
H818 H 0.94482 0.8905 0.92356 0.0
H819 H 0.93801 0.86141 0.94072 0.0
C820 C 0.65393 0.69077 0.44783 0.0
C821 C 0.64967 0.66926 0.46384 0.0
C822 C 0.64107 0.6933 0.42092 0.0
C823 C 0.62303 0.6741 0.41006 0.0
C824 C 0.61986 0.65194 0.42561 0.0
C825 C 0.63324 0.64979 0.45216 0.0
C826 C 0.6457 0.71694 0.40475 0.0
C827 C 0.60072 0.63099 0.41505 0.0
C828 C 0.55404 0.684 0.3671 0.0
C829 C 0.56125 0.67203 0.34184 0.0
C830 C 0.57496 0.68702 0.38861 0.0
C831 C 0.60398 0.67801 0.38472 0.0
C832 C 0.61233 0.66867 0.35797 0.0
C833 C 0.59073 0.66561 0.3368 0.0
C834 C 0.56498 0.69738 0.41656 0.0
C835 C 0.64329 0.65975 0.35249 0.0
H836 H 0.66689 0.70579 0.45654 0.0
H837 H 0.62949 0.63323 0.46444 0.0
H838 H 0.64881 0.71314 0.38198 0.0
H839 H 0.62589 0.7288 0.40691 0.0
H840 H 0.66509 0.72743 0.41274 0.0
H841 H 0.60215 0.61441 0.42873 0.0
H842 H 0.57734 0.63706 0.41421 0.0
H843 H 0.60727 0.62569 0.39339 0.0
H844 H 0.53132 0.68932 0.37093 0.0
H845 H 0.59645 0.65626 0.31739 0.0
H846 H 0.5811 0.71109 0.42464 0.0
H847 H 0.56358 0.68222 0.43221 0.0
H848 H 0.54299 0.70634 0.41505 0.0
H849 H 0.6598 0.67162 0.36329 0.0
H850 H 0.64824 0.65937 0.32958 0.0
H851 H 0.64573 0.64072 0.3608 0.0
C852 C 0.38822 0.67146 0.0779 0.0
C853 C 0.36591 0.68893 0.07315 0.0
C854 C 0.40237 0.66956 0.10414 0.0
C855 C 0.39439 0.68571 0.12634 0.0
C856 C 0.37138 0.70297 0.12205 0.0
C857 C 0.3574 0.70437 0.09554 0.0
C858 C 0.42675 0.65081 0.10772 0.0
C859 C 0.36219 0.7205 0.14513 0.0
C860 C 0.42681 0.66489 0.19636 0.0
C861 C 0.45453 0.67634 0.19531 0.0
C862 C 0.40559 0.66931 0.17519 0.0
C863 C 0.41229 0.68576 0.15284 0.0
C864 C 0.43896 0.69941 0.15372 0.0
C865 C 0.45984 0.69435 0.17477 0.0
C866 C 0.37736 0.65452 0.17529 0.0
C867 C 0.44684 0.71759 0.13084 0.0
H868 H 0.39541 0.6597 0.06078 0.0
H869 H 0.3399 0.71769 0.09231 0.0
H870 H 0.44815 0.66046 0.11082 0.0
H871 H 0.42272 0.63937 0.1267 0.0
H872 H 0.42876 0.63837 0.0892 0.0
H873 H 0.34179 0.7308 0.13963 0.0
H874 H 0.35847 0.71034 0.16508 0.0
H875 H 0.38015 0.73403 0.14908 0.0
H876 H 0.42271 0.65085 0.21215 0.0
H877 H 0.48125 0.70333 0.17406 0.0
H878 H 0.37941 0.63895 0.1602 0.0
H879 H 0.35837 0.66596 0.16845 0.0
H880 H 0.37261 0.64679 0.19646 0.0
H881 H 0.45264 0.70737 0.11136 0.0
H882 H 0.46592 0.72938 0.13687 0.0
H883 H 0.42778 0.72965 0.12585 0.0
C884 C 0.15599 0.8419 0.58817 0.0
C885 C 0.13766 0.83113 0.56763 0.0
C886 C 0.14694 0.84349 0.61648 0.0
C887 C 0.1187 0.83458 0.62427 0.0
C888 C 0.1016 0.82139 0.60425 0.0
C889 C 0.11139 0.81967 0.5763 0.0
C890 C 0.16647 0.85667 0.63745 0.0
C891 C 0.07153 0.81127 0.61159 0.0
C892 C 0.08353 0.83692 0.69738 0.0
C893 C 0.06668 0.85851 0.695 0.0
C894 C 0.10256 0.82956 0.67539 0.0
C895 C 0.10408 0.84388 0.65038 0.0
C896 C 0.08845 0.86645 0.64886 0.0
C897 C 0.07025 0.87349 0.67118 0.0
C898 C 0.11963 0.80584 0.67846 0.0
C899 C 0.0893 0.8825 0.62283 0.0
H900 H 0.1765 0.8506 0.5819 0.0
H901 H 0.09755 0.81051 0.56082 0.0
H902 H 0.15884 0.876 0.63991 0.0
H903 H 0.16531 0.84769 0.65842 0.0
H904 H 0.18983 0.85706 0.6304 0.0
H905 H 0.06265 0.79895 0.59485 0.0
H906 H 0.07247 0.80082 0.63163 0.0
H907 H 0.05588 0.8268 0.61457 0.0
H908 H 0.08069 0.82516 0.71559 0.0
H909 H 0.05767 0.89045 0.66942 0.0
H910 H 0.14117 0.80684 0.66743 0.0
H911 H 0.10672 0.79049 0.66904 0.0
H912 H 0.1236 0.80136 0.70099 0.0
H913 H 0.11242 0.88725 0.61744 0.0
H914 H 0.07674 0.89994 0.62553 0.0
H915 H 0.07976 0.87228 0.60468 0.0
C916 C 0.19471 0.26922 0.31596 0.0
C917 C 0.21287 0.2559 0.33454 0.0
C918 C 0.17087 0.25773 0.30203 0.0
C919 C 0.1648 0.23247 0.30711 0.0
C920 C 0.18445 0.21856 0.32406 0.0
C921 C 0.20829 0.23039 0.33736 0.0
C922 C 0.15104 0.27304 0.28342 0.0
C923 C 0.17903 0.19154 0.32996 0.0
C924 C 0.08651 0.20927 0.31451 0.0
C925 C 0.08385 0.19304 0.2916 0.0
C926 C 0.11206 0.22339 0.31871 0.0
C927 C 0.13562 0.22156 0.29928 0.0
C928 C 0.13207 0.20686 0.27474 0.0
C929 C 0.10626 0.19254 0.27133 0.0
C930 C 0.11464 0.2388 0.34517 0.0
C931 C 0.15617 0.20488 0.253 0.0
H932 H 0.19806 0.28891 0.31348 0.0
H933 H 0.22272 0.21977 0.35095 0.0
H934 H 0.14463 0.26257 0.26424 0.0
H935 H 0.13051 0.27762 0.29497 0.0
H936 H 0.16182 0.29058 0.27699 0.0
H937 H 0.19778 0.18284 0.34132 0.0
H938 H 0.15887 0.18952 0.34301 0.0
H939 H 0.1752 0.18133 0.31003 0.0
H940 H 0.06909 0.21001 0.33011 0.0
H941 H 0.10454 0.17987 0.25383 0.0
H942 H 0.12146 0.25791 0.33995 0.0
H943 H 0.13187 0.23086 0.35912 0.0
H944 H 0.09358 0.23959 0.35707 0.0
H945 H 0.1677 0.2228 0.25019 0.0
H946 H 0.14729 0.19871 0.23231 0.0
H947 H 0.17272 0.19114 0.26009 0.0
C948 C 0.30641 0.25952 0.79515 0.0
C949 C 0.31162 0.24798 0.8212 0.0
C950 C 0.32738 0.27559 0.78321 0.0
C951 C 0.35413 0.28037 0.79772 0.0
C952 C 0.35994 0.26807 0.82347 0.0
C953 C 0.33867 0.25211 0.83486 0.0
C954 C 0.32046 0.28812 0.75561 0.0
C955 C 0.38814 0.27263 0.83974 0.0
C956 C 0.42286 0.31204 0.76924 0.0
C957 C 0.42088 0.33491 0.7829 0.0
C958 C 0.39996 0.29451 0.77172 0.0
C959 C 0.3747 0.30021 0.78811 0.0
C960 C 0.3714 0.32431 0.79919 0.0
C961 C 0.39455 0.3413 0.79651 0.0
C962 C 0.40413 0.26922 0.75907 0.0
C963 C 0.34472 0.33145 0.81638 0.0
H964 H 0.2858 0.25612 0.78416 0.0
H965 H 0.34284 0.24352 0.85509 0.0
H966 H 0.31607 0.30799 0.7594 0.0
H967 H 0.33958 0.28694 0.74112 0.0
H968 H 0.30083 0.27991 0.74508 0.0
H969 H 0.39028 0.26028 0.85829 0.0
H970 H 0.40756 0.26986 0.82592 0.0
H971 H 0.38871 0.29205 0.84721 0.0
H972 H 0.44322 0.30704 0.75873 0.0
H973 H 0.3929 0.35911 0.80686 0.0
H974 H 0.38309 0.26205 0.75025 0.0
H975 H 0.41143 0.25626 0.77576 0.0
H976 H 0.42108 0.26937 0.7422 0.0
H977 H 0.32409 0.32555 0.8057 0.0
H978 H 0.34367 0.35167 0.82019 0.0
H979 H 0.34563 0.32196 0.83707 0.0
C980 C 0.71602 0.26319 0.73685 0.0
C981 C 0.70941 0.25389 0.7099 0.0
C982 C 0.69556 0.2778 0.75168 0.0
C983 C 0.66802 0.2835 0.73914 0.0
C984 C 0.66075 0.27318 0.71255 0.0
C985 C 0.68146 0.25857 0.69833 0.0
C986 C 0.704 0.28803 0.78016 0.0
C987 C 0.63167 0.27877 0.69828 0.0
C988 C 0.60062 0.31336 0.77222 0.0
C989 C 0.60237 0.33698 0.76032 0.0
C990 C 0.62343 0.29608 0.76794 0.0
C991 C 0.64828 0.30273 0.75144 0.0
C992 C 0.65149 0.32747 0.74237 0.0
C993 C 0.62851 0.34425 0.74693 0.0
C994 C 0.61952 0.27012 0.77875 0.0
C995 C 0.67772 0.33563 0.72512 0.0
H996 H 0.73739 0.25936 0.74618 0.0
H997 H 0.6762 0.25175 0.67744 0.0
H998 H 0.70988 0.30783 0.77803 0.0
H999 H 0.68521 0.2868 0.79503 0.0
H1000 H 0.72324 0.27817 0.78934 0.0
H1001 H 0.62843 0.26779 0.67873 0.0
H1002 H 0.61305 0.27489 0.71275 0.0
H1003 H 0.63073 0.29866 0.69275 0.0
H1004 H 0.58045 0.30768 0.78264 0.0
H1005 H 0.63005 0.36264 0.73804 0.0
H1006 H 0.64087 0.26228 0.78589 0.0
H1007 H 0.61099 0.25825 0.76149 0.0
H1008 H 0.60353 0.26943 0.79645 0.0
H1009 H 0.6986 0.32908 0.73473 0.0
H1010 H 0.67882 0.35604 0.72298 0.0
H1011 H 0.67614 0.32746 0.70372 0.0
C1012 C 0.83468 0.26288 0.20484 0.0
C1013 C 0.80738 0.26514 0.21845 0.0
C1014 C 0.85662 0.24695 0.21513 0.0
C1015 C 0.85124 0.23284 0.23972 0.0
C1016 C 0.82419 0.23572 0.25422 0.0
C1017 C 0.80257 0.25179 0.2434 0.0
C1018 C 0.8852 0.24457 0.19905 0.0
C1019 C 0.8176 0.22109 0.2805 0.0
C1020 C 0.89409 0.17305 0.23796 0.0
C1021 C 0.91957 0.17922 0.25325 0.0
C1022 C 0.87062 0.1897 0.23527 0.0
C1023 C 0.87269 0.21324 0.24808 0.0
C1024 C 0.89724 0.21874 0.26567 0.0
C1025 C 0.92051 0.20161 0.26803 0.0
C1026 C 0.84481 0.18282 0.21663 0.0
C1027 C 0.90009 0.24345 0.2801 0.0
H1028 H 0.83887 0.2735 0.18593 0.0
H1029 H 0.7815 0.25328 0.25402 0.0
H1030 H 0.90428 0.24736 0.21339 0.0
H1031 H 0.887 0.22568 0.19015 0.0
H1032 H 0.8868 0.25807 0.18151 0.0
H1033 H 0.7975 0.22786 0.2914 0.0
H1034 H 0.81419 0.2014 0.27487 0.0
H1035 H 0.83651 0.22194 0.29537 0.0
H1036 H 0.8933 0.15568 0.22659 0.0
H1037 H 0.94036 0.20657 0.27951 0.0
H1038 H 0.84577 0.19373 0.19688 0.0
H1039 H 0.82363 0.18725 0.22714 0.0
H1040 H 0.84482 0.1629 0.21102 0.0
H1041 H 0.90632 0.25764 0.26435 0.0
H1042 H 0.91724 0.24317 0.29687 0.0
H1043 H 0.87876 0.24912 0.2895 0.0
C1044 C 0.81982 0.75089 0.73621 0.0
C1045 C 0.82515 0.74472 0.70792 0.0
C1046 C 0.83999 0.76546 0.75162 0.0
C1047 C 0.86583 0.77436 0.73829 0.0
C1048 C 0.87182 0.76736 0.71011 0.0
C1049 C 0.85149 0.75267 0.69535 0.0
C1050 C 0.83302 0.77213 0.78174 0.0
C1051 C 0.89901 0.77649 0.69493 0.0
C1052 C 0.90121 0.83614 0.75223 0.0
C1053 C 0.92892 0.82912 0.76258 0.0
C1054 C 0.87915 0.8186 0.7469 0.0
C1055 C 0.885 0.79333 0.75203 0.0
C1056 C 0.91177 0.7865 0.76548 0.0
C1057 C 0.93366 0.80453 0.7704 0.0
C1058 C 0.85097 0.82687 0.73274 0.0
C1059 C 0.9185 0.75989 0.77214 0.0
H1060 H 0.79971 0.74456 0.74621 0.0
H1061 H 0.85567 0.74832 0.67344 0.0
H1062 H 0.85306 0.77082 0.79515 0.0
H1063 H 0.8252 0.79151 0.7827 0.0
H1064 H 0.81556 0.76005 0.79066 0.0
H1065 H 0.90135 0.76812 0.67368 0.0
H1066 H 0.8979 0.79685 0.69255 0.0
H1067 H 0.91911 0.77221 0.70736 0.0
H1068 H 0.89766 0.8552 0.74609 0.0
H1069 H 0.9552 0.79906 0.77817 0.0
H1070 H 0.83151 0.81798 0.74259 0.0
H1071 H 0.85135 0.82125 0.71026 0.0
H1072 H 0.84813 0.84723 0.73375 0.0
H1073 H 0.89855 0.75019 0.77996 0.0
H1074 H 0.93635 0.75829 0.78813 0.0
H1075 H 0.92583 0.75037 0.75268 0.0
C1076 C 0.71095 0.7603 0.24903 0.0
C1077 C 0.71732 0.75938 0.22007 0.0
C1078 C 0.68821 0.74585 0.26074 0.0
C1079 C 0.67118 0.7303 0.24304 0.0
C1080 C 0.67773 0.72907 0.2139 0.0
C1081 C 0.70075 0.74346 0.20286 0.0
C1082 C 0.68211 0.74751 0.29191 0.0
C1083 C 0.66016 0.71273 0.19421 0.0
C1084 C 0.62463 0.67535 0.26463 0.0
C1085 C 0.59616 0.68489 0.26121 0.0
C1086 C 0.64957 0.69062 0.26173 0.0
C1087 C 0.6458 0.71578 0.25436 0.0
C1088 C 0.61695 0.72585 0.25337 0.0
C1089 C 0.59245 0.71024 0.2569 0.0
C1090 C 0.67986 0.67924 0.26383 0.0
C1091 C 0.61179 0.75249 0.24551 0.0
H1092 H 0.72334 0.77271 0.26254 0.0
H1093 H 0.70582 0.74216 0.18061 0.0
H1094 H 0.66005 0.75582 0.29539 0.0
H1095 H 0.68168 0.72879 0.30136 0.0
H1096 H 0.69885 0.75886 0.30318 0.0
H1097 H 0.66806 0.71387 0.17211 0.0
H1098 H 0.66157 0.69323 0.20119 0.0
H1099 H 0.63654 0.71809 0.19469 0.0
H1100 H 0.62744 0.65563 0.26749 0.0
H1101 H 0.57038 0.71746 0.25366 0.0
H1102 H 0.69543 0.69182 0.27484 0.0
H1103 H 0.68859 0.67598 0.24233 0.0
H1104 H 0.67931 0.6613 0.27514 0.0
H1105 H 0.62708 0.76484 0.25716 0.0
H1106 H 0.58874 0.75834 0.24981 0.0
H1107 H 0.61617 0.75497 0.2227 0.0
C1108 C 0.34324 0.75441 0.34198 0.0
C1109 C 0.31478 0.75929 0.33175 0.0
C1110 C 0.36326 0.74015 0.32648 0.0
C1111 C 0.35483 0.73062 0.29983 0.0
C1112 C 0.327 0.73708 0.28836 0.0
C1113 C 0.30721 0.75126 0.30452 0.0
C1114 C 0.39279 0.73396 0.33955 0.0
C1115 C 0.31737 0.72785 0.25979 0.0
C1116 C 0.42068 0.69969 0.26546 0.0
C1117 C 0.41837 0.67605 0.27722 0.0
C1118 C 0.39834 0.71736 0.26996 0.0
C1119 C 0.37348 0.71108 0.28662 0.0
C1120 C 0.36955 0.68632 0.29534 0.0
C1121 C 0.39203 0.66913 0.29049 0.0
C1122 C 0.40286 0.74328 0.25929 0.0
C1123 C 0.34325 0.67854 0.31272 0.0
H1124 H 0.34959 0.76115 0.36263 0.0
H1125 H 0.28531 0.755 0.29635 0.0
H1126 H 0.3937 0.71392 0.34429 0.0
H1127 H 0.4109 0.73814 0.32463 0.0
H1128 H 0.39685 0.74433 0.35939 0.0
H1129 H 0.29912 0.73918 0.25102 0.0
H1130 H 0.33605 0.72792 0.24471 0.0
H1131 H 0.30941 0.70855 0.26169 0.0
H1132 H 0.44096 0.70508 0.25505 0.0
H1133 H 0.39003 0.65071 0.29923 0.0
H1134 H 0.41246 0.75479 0.27637 0.0
H1135 H 0.38159 0.75175 0.2529 0.0
H1136 H 0.41825 0.74367 0.24111 0.0
H1137 H 0.34527 0.68649 0.3342 0.0
H1138 H 0.34157 0.65815 0.31463 0.0
H1139 H 0.32249 0.6856 0.30334 0.0
C1140 C 0.20304 0.74359 0.79078 0.0
C1141 C 0.21729 0.75091 0.81579 0.0
C1142 C 0.17914 0.75711 0.77976 0.0
C1143 C 0.16904 0.77836 0.79416 0.0
C1144 C 0.18409 0.78638 0.81875 0.0
C1145 C 0.20798 0.77262 0.8292 0.0
C1146 C 0.16389 0.74801 0.75341 0.0
C1147 C 0.17421 0.80902 0.83474 0.0
C1148 C 0.11495 0.82642 0.7665 0.0
C1149 C 0.08944 0.81984 0.78133 0.0
C1150 C 0.1407 0.8119 0.76845 0.0
C1151 C 0.1408 0.79062 0.78588 0.0
C1152 C 0.11421 0.78286 0.79874 0.0
C1153 C 0.08893 0.79757 0.79631 0.0
C1154 C 0.16831 0.8205 0.75374 0.0
C1155 C 0.11304 0.76021 0.81725 0.0
H1156 H 0.20989 0.72678 0.78029 0.0
H1157 H 0.21921 0.77876 0.84814 0.0
H1158 H 0.14217 0.73994 0.75902 0.0
H1159 H 0.1597 0.76352 0.7387 0.0
H1160 H 0.17703 0.73368 0.74234 0.0
H1161 H 0.18945 0.81379 0.85229 0.0
H1162 H 0.17264 0.82507 0.82034 0.0
H1163 H 0.15188 0.80579 0.84361 0.0
H1164 H 0.11552 0.84379 0.7552 0.0
H1165 H 0.06917 0.79249 0.8078 0.0
H1166 H 0.18083 0.80465 0.74506 0.0
H1167 H 0.18281 0.83009 0.76914 0.0
H1168 H 0.16317 0.83355 0.73637 0.0
H1169 H 0.12346 0.74424 0.80658 0.0
H1170 H 0.09005 0.75513 0.82297 0.0
H1171 H 0.1256 0.76377 0.83695 0.0
loop_
_geom_bond_atom_site_label_1
_geom_bond_atom_site_label_2
_geom_bond_distance
_geom_bond_site_symmetry_2
_ccdc_geom_bond_type
C0 C1 1.264 . S
C0 C5 1.479 . S
C0 C10 1.465 . S
C1 C0 1.264 . S
C1 C3 1.339 . S
C1 H28 0.931 . S
C2 C3 1.395 . S
C2 C4 1.320 . S
C3 C1 1.339 . S
C3 C2 1.395 . S
C3 H29 0.929 . S
C4 C2 1.320 . S
C4 C5 1.405 . S
C4 H30 0.930 . S
C5 C0 1.479 . S
C5 C4 1.405 . S
C5 H31 0.931 . S
U6 O7 2.454 . S
U6 O8 2.458 . S
U6 C9 2.984 . S
U6 C10 2.847 . S
U6 C23 2.882 . S
U6 O24 2.441 . S
U6 O25 2.420 . S
U6 O26 2.455 . S
U6 O27 2.449 . S
O7 U6 2.454 . S
O7 C9 1.353 . S
O8 U6 2.458 . S
O8 C9 1.286 . S
C9 U6 2.984 . S
C9 O7 1.353 . S
C9 O8 1.286 . S
C9 C11 1.363 . S
C10 C0 1.465 . S
C10 U6 2.847 . S
C10 O24 1.249 . S
C10 O25 1.202 . S
C11 C9 1.363 . S
C11 C13 1.408 . S
C11 C16 1.342 . S
C12 C13 1.310 . S
C12 C15 1.461 . S
C12 H32 0.932 . S
C13 C11 1.408 . S
C13 C12 1.310 . S
C13 H33 0.930 . S
C14 C15 1.474 . S
C14 C16 1.285 . S
C14 H34 0.929 . S
C15 C12 1.461 . S
C15 C14 1.474 . S
C16 C11 1.342 . S
C16 C14 1.285 . S
C16 H35 0.930 . S
C17 C20 1.424 . S
C17 C22 1.245 . S
C17 C23 1.428 . S
C18 C21 1.260 . S
C18 C22 1.477 . S
C18 H36 0.932 . S
C19 C20 1.384 . S
C19 C21 1.479 . S
C19 H37 0.929 . S
C20 C17 1.424 . S
C20 C19 1.384 . S
C20 H38 0.928 . S
C21 C18 1.260 . S
C21 C19 1.479 . S
C22 C17 1.245 . S
C22 C18 1.477 . S
C22 H39 0.932 . S
C23 U6 2.882 . S
C23 C17 1.428 . S
C23 O26 1.301 . S
C23 O27 1.282 . S
O24 U6 2.441 . S
O24 C10 1.249 . S
O25 U6 2.420 . S
O25 C10 1.202 . S
O26 U6 2.455 . S
O26 C23 1.301 . S
O27 U6 2.449 . S
O27 C23 1.282 . S
H28 C1 0.931 . S
H29 C3 0.929 . S
H30 C4 0.930 . S
H31 C5 0.931 . S
H32 C12 0.932 . S
H33 C13 0.930 . S
H34 C14 0.929 . S
H35 C16 0.930 . S
H36 C18 0.932 . S
H37 C19 0.929 . S
H38 C20 0.928 . S
H39 C22 0.932 . S
C40 C41 1.264 . S
C40 C45 1.479 . S
C40 C50 1.465 . S
C41 C40 1.264 . S
C41 C43 1.339 1_556 S
C41 H68 0.931 . S
C42 C43 1.395 . S
C42 C44 1.320 . S
C43 C41 1.339 1_554 S
C43 C42 1.395 . S
C43 H69 0.929 . S
C44 C42 1.320 . S
C44 C45 1.405 1_554 S
C44 H70 0.930 . S
C45 C40 1.479 . S
C45 C44 1.405 1_556 S
C45 H71 0.931 . S
U46 O47 2.454 . S
U46 O48 2.458 . S
U46 C49 2.984 . S
U46 C50 2.847 . S
U46 C63 2.882 . S
U46 O64 2.441 . S
U46 O65 2.420 . S
U46 O66 2.455 . S
U46 O67 2.449 . S
O47 U46 2.454 . S
O47 C49 1.353 . S
O48 U46 2.458 . S
O48 C49 1.286 . S
C49 U46 2.984 . S
C49 O47 1.353 . S
C49 O48 1.286 . S
C49 C51 1.363 . S
C50 C40 1.465 . S
C50 U46 2.847 . S
C50 O64 1.249 . S
C50 O65 1.202 . S
C51 C49 1.363 . S
C51 C53 1.408 . S
C51 C56 1.342 . S
C52 C53 1.310 . S
C52 C55 1.461 . S
C52 H72 0.932 . S
C53 C51 1.408 . S
C53 C52 1.310 . S
C53 H73 0.930 . S
C54 C55 1.474 . S
C54 C56 1.285 . S
C54 H74 0.929 . S
C55 C52 1.461 . S
C55 C54 1.474 . S
C56 C51 1.342 . S
C56 C54 1.285 . S
C56 H75 0.930 . S
C57 C60 1.424 . S
C57 C62 1.245 . S
C57 C63 1.428 . S
C58 C61 1.260 . S
C58 C62 1.477 . S
C58 H76 0.932 . S
C59 C60 1.384 . S
C59 C61 1.479 . S
C59 H77 0.929 . S
C60 C57 1.424 . S
C60 C59 1.384 . S
C60 H78 0.928 . S
C61 C58 1.260 . S
C61 C59 1.479 . S
C62 C57 1.245 . S
C62 C58 1.477 . S
C62 H79 0.932 . S
C63 U46 2.882 . S
C63 C57 1.428 . S
C63 O66 1.301 . S
C63 O67 1.282 . S
O64 U46 2.441 . S
O64 C50 1.249 . S
O65 U46 2.420 . S
O65 C50 1.202 . S
O66 U46 2.455 . S
O66 C63 1.301 . S
O67 U46 2.449 . S
O67 C63 1.282 . S
H68 C41 0.931 . S
H69 C43 0.929 . S
H70 C44 0.930 . S
H71 C45 0.931 . S
H72 C52 0.932 . S
H73 C53 0.930 . S
H74 C54 0.929 . S
H75 C56 0.930 . S
H76 C58 0.932 . S
H77 C59 0.929 . S
H78 C60 0.928 . S
H79 C62 0.932 . S
C80 C81 1.264 . S
C80 C85 1.479 . S
C80 C90 1.465 . S
C81 C80 1.264 . S
C81 C83 1.339 . S
C81 H108 0.931 . S
C82 C83 1.395 . S
C82 C84 1.320 . S
C83 C81 1.339 . S
C83 C82 1.395 . S
C83 H109 0.929 . S
C84 C82 1.320 . S
C84 C85 1.405 . S
C84 H110 0.930 . S
C85 C80 1.479 . S
C85 C84 1.405 . S
C85 H111 0.931 . S
U86 O87 2.454 . S
U86 O88 2.458 . S
U86 C89 2.984 . S
U86 C90 2.847 . S
U86 C103 2.882 . S
U86 O104 2.441 . S
U86 O105 2.420 . S
U86 O106 2.455 . S
U86 O107 2.449 . S
O87 U86 2.454 . S
O87 C89 1.353 . S
O88 U86 2.458 . S
O88 C89 1.286 . S
C89 U86 2.984 . S
C89 O87 1.353 . S
C89 O88 1.286 . S
C89 C91 1.363 . S
C90 C80 1.465 . S
C90 U86 2.847 . S
C90 O104 1.249 . S
C90 O105 1.202 . S
C91 C89 1.363 . S
C91 C93 1.408 . S
C91 C96 1.342 . S
C92 C93 1.310 . S
C92 C95 1.461 . S
C92 H112 0.932 . S
C93 C91 1.408 . S
C93 C92 1.310 . S
C93 H113 0.930 . S
C94 C95 1.474 . S
C94 C96 1.285 . S
C94 H114 0.929 . S
C95 C92 1.461 . S
C95 C94 1.474 . S
C96 C91 1.342 . S
C96 C94 1.285 . S
C96 H115 0.930 . S
C97 C100 1.424 . S
C97 C102 1.245 . S
C97 C103 1.428 . S
C98 C101 1.260 . S
C98 C102 1.477 . S
C98 H116 0.932 . S
C99 C100 1.384 . S
C99 C101 1.479 . S
C99 H117 0.929 . S
C100 C97 1.424 . S
C100 C99 1.384 . S
C100 H118 0.928 . S
C101 C98 1.260 . S
C101 C99 1.479 . S
C102 C97 1.245 . S
C102 C98 1.477 . S
C102 H119 0.932 . S
C103 U86 2.882 . S
C103 C97 1.428 . S
C103 O106 1.301 . S
C103 O107 1.282 . S
O104 U86 2.441 . S
O104 C90 1.249 . S
O105 U86 2.420 . S
O105 C90 1.202 . S
O106 U86 2.455 . S
O106 C103 1.301 . S
O107 U86 2.449 . S
O107 C103 1.282 . S
H108 C81 0.931 . S
H109 C83 0.929 . S
H110 C84 0.930 . S
H111 C85 0.931 . S
H112 C92 0.932 . S
H113 C93 0.930 . S
H114 C94 0.929 . S
H115 C96 0.930 . S
H116 C98 0.932 . S
H117 C99 0.929 . S
H118 C100 0.928 . S
H119 C102 0.932 . S
C120 C121 1.264 . S
C120 C125 1.479 . S
C120 C130 1.465 . S
C121 C120 1.264 . S
C121 C123 1.350 . S
C121 H148 0.931 . S
C122 C123 1.387 1_556 S
C122 C124 1.320 . S
C123 C121 1.350 . S
C123 C122 1.387 1_554 S
C123 H149 0.925 1_554 S
C124 C122 1.320 . S
C124 C125 1.405 1_556 S
C124 H150 0.930 . S
C125 C120 1.479 . S
C125 C124 1.405 1_554 S
C125 H151 0.931 . S
U126 O127 2.454 . S
U126 O128 2.458 . S
U126 C129 2.984 . S
U126 C130 2.847 . S
U126 C143 2.882 . S
U126 O144 2.441 . S
U126 O145 2.420 . S
U126 O146 2.455 . S
U126 O147 2.449 . S
O127 U126 2.454 . S
O127 C129 1.353 . S
O128 U126 2.458 . S
O128 C129 1.286 . S
C129 U126 2.984 . S
C129 O127 1.353 . S
C129 O128 1.286 . S
C129 C131 1.363 . S
C130 C120 1.465 . S
C130 U126 2.847 . S
C130 O144 1.249 . S
C130 O145 1.202 . S
C131 C129 1.363 . S
C131 C133 1.408 . S
C131 C136 1.342 . S
C132 C133 1.310 . S
C132 C135 1.461 . S
C132 H152 0.932 . S
C133 C131 1.408 . S
C133 C132 1.310 . S
C133 H153 0.930 . S
C134 C135 1.474 . S
C134 C136 1.285 . S
C134 H154 0.929 . S
C135 C132 1.461 . S
C135 C134 1.474 . S
C136 C131 1.342 . S
C136 C134 1.285 . S
C136 H155 0.930 . S
C137 C140 1.424 . S
C137 C142 1.245 . S
C137 C143 1.428 . S
C138 C141 1.260 . S
C138 C142 1.477 . S
C138 H156 0.932 . S
C139 C140 1.384 . S
C139 C141 1.479 . S
C139 H157 0.929 . S
C140 C137 1.424 . S
C140 C139 1.384 . S
C140 H158 0.928 . S
C141 C138 1.260 . S
C141 C139 1.479 . S
C142 C137 1.245 . S
C142 C138 1.477 . S
C142 H159 0.932 . S
C143 U126 2.882 . S
C143 C137 1.428 . S
C143 O146 1.301 . S
C143 O147 1.282 . S
O144 U126 2.441 . S
O144 C130 1.249 . S
O145 U126 2.420 . S
O145 C130 1.202 . S
O146 U126 2.455 . S
O146 C143 1.301 . S
O147 U126 2.449 . S
O147 C143 1.282 . S
H148 C121 0.931 . S
H149 C123 0.925 1_556 S
H150 C124 0.930 . S
H151 C125 0.931 . S
H152 C132 0.932 . S
H153 C133 0.930 . S
H154 C134 0.929 . S
H155 C136 0.930 . S
H156 C138 0.932 . S
H157 C139 0.929 . S
H158 C140 0.928 . S
H159 C142 0.932 . S
C160 C161 1.264 . S
C160 C165 1.479 . S
C160 C170 1.465 . S
C161 C160 1.264 . S
C161 C163 1.339 . S
C161 H188 0.931 . S
C162 C163 1.395 . S
C162 C164 1.320 . S
C163 C161 1.339 . S
C163 C162 1.395 . S
C163 H189 0.929 . S
C164 C162 1.320 . S
C164 C165 1.405 . S
C164 H190 0.930 . S
C165 C160 1.479 . S
C165 C164 1.405 . S
C165 H191 0.931 . S
U166 O167 2.454 . S
U166 O168 2.458 . S
U166 C169 2.984 . S
U166 C170 2.847 . S
U166 C183 2.882 . S
U166 O184 2.441 . S
U166 O185 2.420 . S
U166 O186 2.455 . S
U166 O187 2.449 . S
O167 U166 2.454 . S
O167 C169 1.353 . S
O168 U166 2.458 . S
O168 C169 1.286 . S
C169 U166 2.984 . S
C169 O167 1.353 . S
C169 O168 1.286 . S
C169 C171 1.363 . S
C170 C160 1.465 . S
C170 U166 2.847 . S
C170 O184 1.249 . S
C170 O185 1.202 . S
C171 C169 1.363 . S
C171 C173 1.408 . S
C171 C176 1.342 . S
C172 C173 1.310 . S
C172 C175 1.461 . S
C172 H192 0.932 . S
C173 C171 1.408 . S
C173 C172 1.310 . S
C173 H193 0.930 . S
C174 C175 1.474 . S
C174 C176 1.285 . S
C174 H194 0.929 . S
C175 C172 1.461 . S
C175 C174 1.474 . S
C176 C171 1.342 . S
C176 C174 1.285 . S
C176 H195 0.930 . S
C177 C180 1.424 . S
C177 C182 1.245 . S
C177 C183 1.428 . S
C178 C181 1.260 . S
C178 C182 1.477 . S
C178 H196 0.932 . S
C179 C180 1.384 . S
C179 C181 1.479 . S
C179 H197 0.929 . S
C180 C177 1.424 . S
C180 C179 1.384 . S
C180 H198 0.928 . S
C181 C178 1.260 . S
C181 C179 1.479 . S
C182 C177 1.245 . S
C182 C178 1.477 . S
C182 H199 0.932 . S
C183 U166 2.882 . S
C183 C177 1.428 . S
C183 O186 1.301 . S
C183 O187 1.282 . S
O184 U166 2.441 . S
O184 C170 1.249 . S
O185 U166 2.420 . S
O185 C170 1.202 . S
O186 U166 2.455 . S
O186 C183 1.301 . S
O187 U166 2.449 . S
O187 C183 1.282 . S
H188 C161 0.931 . S
H189 C163 0.929 . S
H190 C164 0.930 . S
H191 C165 0.931 . S
H192 C172 0.932 . S
H193 C173 0.930 . S
H194 C174 0.929 . S
H195 C176 0.930 . S
H196 C178 0.932 . S
H197 C179 0.929 . S
H198 C180 0.928 . S
H199 C182 0.932 . S
C200 C201 1.264 . S
C200 C205 1.479 . S
C200 C210 1.465 . S
C201 C200 1.264 . S
C201 C203 1.339 1_554 S
C201 H228 0.931 . S
C202 C203 1.395 . S
C202 C204 1.320 . S
C203 C201 1.339 1_556 S
C203 C202 1.395 . S
C203 H229 0.929 . S
C204 C202 1.320 . S
C204 C205 1.405 1_556 S
C204 H230 0.930 . S
C205 C200 1.479 . S
C205 C204 1.405 1_554 S
C205 H231 0.931 . S
U206 O207 2.454 . S
U206 O208 2.458 . S
U206 C209 2.984 . S
U206 C210 2.847 . S
U206 C223 2.882 . S
U206 O224 2.441 . S
U206 O225 2.420 . S
U206 O226 2.455 . S
U206 O227 2.449 . S
O207 U206 2.454 . S
O207 C209 1.353 . S
O208 U206 2.458 . S
O208 C209 1.286 . S
C209 U206 2.984 . S
C209 O207 1.353 . S
C209 O208 1.286 . S
C209 C211 1.363 . S
C210 C200 1.465 . S
C210 U206 2.847 . S
C210 O224 1.249 . S
C210 O225 1.202 . S
C211 C209 1.363 . S
C211 C213 1.408 . S
C211 C216 1.342 . S
C212 C213 1.310 . S
C212 C215 1.461 . S
C212 H232 0.932 . S
C213 C211 1.408 . S
C213 C212 1.310 . S
C213 H233 0.930 . S
C214 C215 1.474 . S
C214 C216 1.285 . S
C214 H234 0.929 . S
C215 C212 1.461 . S
C215 C214 1.474 . S
C216 C211 1.342 . S
C216 C214 1.285 . S
C216 H235 0.930 . S
C217 C220 1.424 . S
C217 C222 1.245 . S
C217 C223 1.428 . S
C218 C221 1.260 . S
C218 C222 1.477 . S
C218 H236 0.932 . S
C219 C220 1.384 . S
C219 C221 1.479 . S
C219 H237 0.929 . S
C220 C217 1.424 . S
C220 C219 1.384 . S
C220 H238 0.928 . S
C221 C218 1.260 . S
C221 C219 1.479 . S
C222 C217 1.245 . S
C222 C218 1.477 . S
C222 H239 0.932 . S
C223 U206 2.882 . S
C223 C217 1.428 . S
C223 O226 1.301 . S
C223 O227 1.282 . S
O224 U206 2.441 . S
O224 C210 1.249 . S
O225 U206 2.420 . S
O225 C210 1.202 . S
O226 U206 2.455 . S
O226 C223 1.301 . S
O227 U206 2.449 . S
O227 C223 1.282 . S
H228 C201 0.931 . S
H229 C203 0.929 . S
H230 C204 0.930 . S
H231 C205 0.931 . S
H232 C212 0.932 . S
H233 C213 0.930 . S
H234 C214 0.929 . S
H235 C216 0.930 . S
H236 C218 0.932 . S
H237 C219 0.929 . S
H238 C220 0.928 . S
H239 C222 0.932 . S
C240 C241 1.264 . S
C240 C245 1.479 . S
C240 C250 1.465 . S
C241 C240 1.264 . S
C241 C243 1.339 . S
C241 H268 0.931 . S
C242 C243 1.395 . S
C242 C244 1.320 . S
C243 C241 1.339 . S
C243 C242 1.395 . S
C243 H269 0.929 . S
C244 C242 1.320 . S
C244 C245 1.405 . S
C244 H270 0.930 . S
C245 C240 1.479 . S
C245 C244 1.405 . S
C245 H271 0.931 . S
U246 O247 2.454 . S
U246 O248 2.458 . S
U246 C249 2.984 . S
U246 C250 2.847 . S
U246 C263 2.882 . S
U246 O264 2.441 . S
U246 O265 2.420 . S
U246 O266 2.455 . S
U246 O267 2.449 . S
O247 U246 2.454 . S
O247 C249 1.353 . S
O248 U246 2.458 . S
O248 C249 1.286 . S
C249 U246 2.984 . S
C249 O247 1.353 . S
C249 O248 1.286 . S
C249 C251 1.363 . S
C250 C240 1.465 . S
C250 U246 2.847 . S
C250 O264 1.249 . S
C250 O265 1.202 . S
C251 C249 1.363 . S
C251 C253 1.408 . S
C251 C256 1.342 . S
C252 C253 1.310 . S
C252 C255 1.461 . S
C252 H272 0.932 . S
C253 C251 1.408 . S
C253 C252 1.310 . S
C253 H273 0.930 . S
C254 C255 1.474 . S
C254 C256 1.285 . S
C254 H274 0.929 . S
C255 C252 1.461 . S
C255 C254 1.474 . S
C256 C251 1.342 . S
C256 C254 1.285 . S
C256 H275 0.930 . S
C257 C260 1.424 . S
C257 C262 1.245 . S
C257 C263 1.428 . S
C258 C261 1.260 . S
C258 C262 1.477 . S
C258 H276 0.932 . S
C259 C260 1.384 . S
C259 C261 1.479 . S
C259 H277 0.929 . S
C260 C257 1.424 . S
C260 C259 1.384 . S
C260 H278 0.928 . S
C261 C258 1.260 . S
C261 C259 1.479 . S
C262 C257 1.245 . S
C262 C258 1.477 . S
C262 H279 0.932 . S
C263 U246 2.882 . S
C263 C257 1.428 . S
C263 O266 1.301 . S
C263 O267 1.282 . S
O264 U246 2.441 . S
O264 C250 1.249 . S
O265 U246 2.420 . S
O265 C250 1.202 . S
O266 U246 2.455 . S
O266 C263 1.301 . S
O267 U246 2.449 . S
O267 C263 1.282 . S
H268 C241 0.931 . S
H269 C243 0.929 . S
H270 C244 0.930 . S
H271 C245 0.931 . S
H272 C252 0.932 . S
H273 C253 0.930 . S
H274 C254 0.929 . S
H275 C256 0.930 . S
H276 C258 0.932 . S
H277 C259 0.929 . S
H278 C260 0.928 . S
H279 C262 0.932 . S
C280 C281 1.264 . S
C280 C285 1.479 . S
C280 C290 1.465 . S
C281 C280 1.264 . S
C281 C283 1.339 1_556 S
C281 H308 0.931 . S
C282 C283 1.395 . S
C282 C284 1.320 . S
C283 C281 1.339 1_554 S
C283 C282 1.395 . S
C283 H309 0.929 . S
C284 C282 1.320 . S
C284 C285 1.405 1_554 S
C284 H310 0.930 . S
C285 C280 1.479 . S
C285 C284 1.405 1_556 S
C285 H311 0.931 . S
U286 O287 2.454 . S
U286 O288 2.458 . S
U286 C289 2.984 . S
U286 C290 2.847 . S
U286 C303 2.882 . S
U286 O304 2.441 . S
U286 O305 2.420 . S
U286 O306 2.455 . S
U286 O307 2.449 . S
O287 U286 2.454 . S
O287 C289 1.353 . S
O288 U286 2.458 . S
O288 C289 1.286 . S
C289 U286 2.984 . S
C289 O287 1.353 . S
C289 O288 1.286 . S
C289 C291 1.363 . S
C290 C280 1.465 . S
C290 U286 2.847 . S
C290 O304 1.249 . S
C290 O305 1.202 . S
C291 C289 1.363 . S
C291 C293 1.408 . S
C291 C296 1.342 . S
C292 C293 1.310 . S
C292 C295 1.461 . S
C292 H312 0.932 . S
C293 C291 1.408 . S
C293 C292 1.310 . S
C293 H313 0.930 . S
C294 C295 1.474 . S
C294 C296 1.285 . S
C294 H314 0.929 . S
C295 C292 1.461 . S
C295 C294 1.474 . S
C296 C291 1.342 . S
C296 C294 1.285 . S
C296 H315 0.930 . S
C297 C300 1.424 . S
C297 C302 1.245 . S
C297 C303 1.428 . S
C298 C301 1.260 . S
C298 C302 1.477 . S
C298 H316 0.932 . S
C299 C300 1.384 . S
C299 C301 1.479 . S
C299 H317 0.929 . S
C300 C297 1.424 . S
C300 C299 1.384 . S
C300 H318 0.928 . S
C301 C298 1.260 . S
C301 C299 1.479 . S
C302 C297 1.245 . S
C302 C298 1.477 . S
C302 H319 0.932 . S
C303 U286 2.882 . S
C303 C297 1.428 . S
C303 O306 1.301 . S
C303 O307 1.282 . S
O304 U286 2.441 . S
O304 C290 1.249 . S
O305 U286 2.420 . S
O305 C290 1.202 . S
O306 U286 2.455 . S
O306 C303 1.301 . S
O307 U286 2.449 . S
O307 C303 1.282 . S
H308 C281 0.931 . S
H309 C283 0.929 . S
H310 C284 0.930 . S
H311 C285 0.931 . S
H312 C292 0.932 . S
H313 C293 0.930 . S
H314 C294 0.929 . S
H315 C296 0.930 . S
H316 C298 0.932 . S
H317 C299 0.929 . S
H318 C300 0.928 . S
H319 C302 0.932 . S
Zn320 O326 1.920 1_455 S
Zn320 O332 1.898 . S
Zn320 O335 1.905 . S
Zn321 O329 1.905 1_655 S
Zn321 O330 1.898 . S
Zn321 O338 1.920 . S
Zn322 O325 2.080 1_455 S
Zn322 O328 2.114 . S
Zn322 O331 2.120 1_455 S
Zn322 O333 2.120 . S
Zn322 O334 2.114 . S
Zn322 O337 2.080 1_455 S
C323 O328 1.166 . S
C323 O329 1.182 . S
C324 O330 1.167 . S
C324 O331 1.299 . S
O325 Zn322 2.080 1_655 S
O325 C339 1.305 . S
O326 Zn320 1.920 1_655 S
O326 C339 1.234 . S
C327 O332 1.167 . S
C327 O333 1.299 . S
O328 Zn322 2.114 . S
O328 C323 1.166 . S
O329 Zn321 1.905 1_455 S
O329 C323 1.182 . S
O330 Zn321 1.898 . S
O330 C324 1.167 . S
O331 Zn322 2.120 1_655 S
O331 C324 1.299 . S
O332 Zn320 1.898 . S
O332 C327 1.167 . S
O333 Zn322 2.120 . S
O333 C327 1.299 . S
O334 Zn322 2.114 . S
O334 C336 1.166 . S
O335 Zn320 1.905 . S
O335 C336 1.182 . S
C336 O334 1.166 . S
C336 O335 1.182 . S
O337 Zn322 2.080 1_655 S
O337 C340 1.305 . S
O338 Zn321 1.920 . S
O338 C340 1.234 . S
C339 O325 1.305 . S
C339 O326 1.234 . S
C340 O337 1.305 . S
C340 O338 1.234 . S
Zn341 O347 1.920 . S
Zn341 O353 1.898 . S
Zn341 O356 1.905 . S
Zn342 O350 1.905 . S
Zn342 O351 1.898 . S
Zn342 O359 1.920 . S
Zn343 O346 2.080 . S
Zn343 O349 2.114 . S
Zn343 O352 2.120 . S
Zn343 O354 2.120 . S
Zn343 O355 2.114 . S
Zn343 O358 2.080 . S
C344 O349 1.166 . S
C344 O350 1.182 . S
C345 O351 1.167 . S
C345 O352 1.299 . S
O346 Zn343 2.080 . S
O346 C360 1.305 . S
O347 Zn341 1.920 . S
O347 C360 1.234 . S
C348 O353 1.167 . S
C348 O354 1.299 . S
O349 Zn343 2.114 . S
O349 C344 1.166 . S
O350 Zn342 1.905 . S
O350 C344 1.182 . S
O351 Zn342 1.898 . S
O351 C345 1.167 . S
O352 Zn343 2.120 . S
O352 C345 1.299 . S
O353 Zn341 1.898 . S
O353 C348 1.167 . S
O354 Zn343 2.120 . S
O354 C348 1.299 . S
O355 Zn343 2.114 . S
O355 C357 1.166 . S
O356 Zn341 1.905 . S
O356 C357 1.182 . S
C357 O355 1.166 . S
C357 O356 1.182 . S
O358 Zn343 2.080 . S
O358 C361 1.305 . S
O359 Zn342 1.920 . S
O359 C361 1.234 . S
C360 O346 1.305 . S
C360 O347 1.234 . S
C361 O358 1.305 . S
C361 O359 1.234 . S
Zn362 O368 1.920 . S
Zn362 O374 1.898 . S
Zn362 O377 1.905 . S
Zn363 O371 1.905 . S
Zn363 O372 1.898 . S
Zn363 O380 1.920 1_655 S
Zn364 O367 2.080 . S
Zn364 O370 2.114 1_455 S
Zn364 O373 2.120 1_455 S
Zn364 O375 2.120 . S
Zn364 O376 2.114 1_455 S
Zn364 O379 2.080 . S
C365 O370 1.166 . S
C365 O371 1.182 . S
C366 O372 1.167 . S
C366 O373 1.299 . S
O367 Zn364 2.080 . S
O367 C381 1.305 . S
O368 Zn362 1.920 . S
O368 C381 1.234 . S
C369 O374 1.167 . S
C369 O375 1.299 . S
O370 Zn364 2.114 1_655 S
O370 C365 1.166 . S
O371 Zn363 1.905 . S
O371 C365 1.182 . S
O372 Zn363 1.898 . S
O372 C366 1.167 . S
O373 Zn364 2.120 1_655 S
O373 C366 1.299 . S
O374 Zn362 1.898 . S
O374 C369 1.167 . S
O375 Zn364 2.120 . S
O375 C369 1.299 . S
O376 Zn364 2.114 1_655 S
O376 C378 1.166 . S
O377 Zn362 1.905 . S
O377 C378 1.182 1_455 S
C378 O376 1.166 . S
C378 O377 1.182 1_655 S
O379 Zn364 2.080 . S
O379 C382 1.305 . S
O380 Zn363 1.920 1_455 S
O380 C382 1.234 . S
C381 O367 1.305 . S
C381 O368 1.234 . S
C382 O379 1.305 . S
C382 O380 1.234 . S
Zn383 O389 1.920 . S
Zn383 O395 1.898 . S
Zn383 O398 1.905 . S
Zn384 O392 1.905 . S
Zn384 O393 1.898 . S
Zn384 O401 1.920 . S
Zn385 O388 2.080 . S
Zn385 O391 2.114 . S
Zn385 O394 2.120 . S
Zn385 O396 2.120 . S
Zn385 O397 2.114 . S
Zn385 O400 2.080 . S
C386 O391 1.166 . S
C386 O392 1.182 . S
C387 O393 1.167 . S
C387 O394 1.299 . S
O388 Zn385 2.080 . S
O388 C402 1.305 . S
O389 Zn383 1.920 . S
O389 C402 1.234 . S
C390 O395 1.167 . S
C390 O396 1.299 . S
O391 Zn385 2.114 . S
O391 C386 1.166 . S
O392 Zn384 1.905 . S
O392 C386 1.182 . S
O393 Zn384 1.898 . S
O393 C387 1.167 . S
O394 Zn385 2.120 . S
O394 C387 1.299 . S
O395 Zn383 1.898 . S
O395 C390 1.167 . S
O396 Zn385 2.120 . S
O396 C390 1.299 . S
O397 Zn385 2.114 . S
O397 C399 1.166 . S
O398 Zn383 1.905 . S
O398 C399 1.182 . S
C399 O397 1.166 . S
C399 O398 1.182 . S
O400 Zn385 2.080 . S
O400 C403 1.305 . S
O401 Zn384 1.920 . S
O401 C403 1.234 . S
C402 O388 1.305 . S
C402 O389 1.234 . S
C403 O400 1.305 . S
C403 O401 1.234 . S
C404 C405 1.391 . S
C404 C406 1.394 1_565 S
C404 H420 0.931 . S
C405 C404 1.391 . S
C405 C409 1.376 . S
C406 C404 1.394 1_545 S
C406 C407 1.369 . S
C406 C410 1.531 . S
C407 C406 1.369 . S
C407 C408 1.410 . S
C407 C415 1.503 . S
C408 C407 1.410 . S
C408 C409 1.392 1_545 S
C408 C411 1.511 . S
C409 C405 1.376 . S
C409 C408 1.392 1_565 S
C409 H421 0.929 . S
C410 C406 1.531 . S
C410 H422 0.960 . S
C410 H423 0.962 . S
C410 H424 0.960 . S
C411 C408 1.511 . S
C411 H425 0.961 . S
C411 H426 0.961 . S
C411 H427 0.961 . S
C412 C413 1.370 . S
C412 C414 1.363 . S
C412 H428 0.931 . S
C413 C412 1.370 . S
C413 C417 1.408 . S
C414 C412 1.363 . S
C414 C415 1.370 . S
C414 C418 1.524 . S
C415 C407 1.503 . S
C415 C414 1.370 . S
C415 C416 1.403 . S
C416 C415 1.403 . S
C416 C417 1.404 . S
C416 C419 1.539 . S
C417 C413 1.408 . S
C417 C416 1.404 . S
C417 H429 0.930 . S
C418 C414 1.524 . S
C418 H430 0.956 . S
C418 H431 0.961 . S
C418 H432 0.961 . S
C419 C416 1.539 . S
C419 H433 0.958 . S
C419 H434 0.961 . S
C419 H435 0.960 . S
H420 C404 0.931 . S
H421 C409 0.929 . S
H422 C410 0.960 . S
H423 C410 0.962 . S
H424 C410 0.960 . S
H425 C411 0.961 . S
H426 C411 0.961 . S
H427 C411 0.961 . S
H428 C412 0.931 . S
H429 C417 0.930 . S
H430 C418 0.956 . S
H431 C418 0.961 . S
H432 C418 0.961 . S
H433 C419 0.958 . S
H434 C419 0.961 . S
H435 C419 0.960 . S
C436 C437 1.391 . S
C436 C438 1.394 . S
C436 H452 0.931 . S
C437 C436 1.391 . S
C437 C441 1.376 . S
C438 C436 1.394 . S
C438 C439 1.369 . S
C438 C442 1.531 . S
C439 C438 1.369 . S
C439 C440 1.410 . S
C439 C447 1.503 . S
C440 C439 1.410 . S
C440 C441 1.392 . S
C440 C443 1.511 . S
C441 C437 1.376 . S
C441 C440 1.392 . S
C441 H453 0.929 . S
C442 C438 1.531 . S
C442 H454 0.960 . S
C442 H455 0.962 . S
C442 H456 0.960 . S
C443 C440 1.511 . S
C443 H457 0.961 . S
C443 H458 0.961 . S
C443 H459 0.961 . S
C444 C445 1.370 . S
C444 C446 1.363 . S
C444 H460 0.931 . S
C445 C444 1.370 . S
C445 C449 1.408 . S
C446 C444 1.363 . S
C446 C447 1.370 . S
C446 C450 1.524 . S
C447 C439 1.503 . S
C447 C446 1.370 . S
C447 C448 1.403 . S
C448 C447 1.403 . S
C448 C449 1.404 . S
C448 C451 1.539 . S
C449 C445 1.408 . S
C449 C448 1.404 . S
C449 H461 0.930 . S
C450 C446 1.524 . S
C450 H462 0.956 . S
C450 H463 0.961 . S
C450 H464 0.961 . S
C451 C448 1.539 . S
C451 H465 0.958 . S
C451 H466 0.961 . S
C451 H467 0.960 . S
H452 C436 0.931 . S
H453 C441 0.929 . S
H454 C442 0.960 . S
H455 C442 0.962 . S
H456 C442 0.960 . S
H457 C443 0.961 . S
H458 C443 0.961 . S
H459 C443 0.961 . S
H460 C444 0.931 . S
H461 C449 0.930 . S
H462 C450 0.956 . S
H463 C450 0.961 . S
H464 C450 0.961 . S
H465 C451 0.958 . S
H466 C451 0.961 . S
H467 C451 0.960 . S
C468 C469 1.391 . S
C468 C470 1.394 . S
C468 H484 0.931 . S
C469 C468 1.391 . S
C469 C473 1.376 . S
C470 C468 1.394 . S
C470 C471 1.369 . S
C470 C474 1.531 . S
C471 C470 1.369 . S
C471 C472 1.410 . S
C471 C479 1.503 . S
C472 C471 1.410 . S
C472 C473 1.392 . S
C472 C475 1.511 . S
C473 C469 1.376 . S
C473 C472 1.392 . S
C473 H485 0.929 . S
C474 C470 1.531 . S
C474 H486 0.960 . S
C474 H487 0.962 . S
C474 H488 0.960 . S
C475 C472 1.511 . S
C475 H489 0.961 . S
C475 H490 0.961 . S
C475 H491 0.961 . S
C476 C477 1.370 . S
C476 C478 1.363 . S
C476 H492 0.931 . S
C477 C476 1.370 . S
C477 C481 1.408 . S
C478 C476 1.363 . S
C478 C479 1.370 . S
C478 C482 1.524 . S
C479 C471 1.503 . S
C479 C478 1.370 . S
C479 C480 1.403 . S
C480 C479 1.403 . S
C480 C481 1.404 . S
C480 C483 1.539 . S
C481 C477 1.408 . S
C481 C480 1.404 . S
C481 H493 0.930 . S
C482 C478 1.524 . S
C482 H494 0.956 . S
C482 H495 0.961 . S
C482 H496 0.961 . S
C483 C480 1.539 . S
C483 H497 0.958 . S
C483 H498 0.961 . S
C483 H499 0.960 . S
H484 C468 0.931 . S
H485 C473 0.929 . S
H486 C474 0.960 . S
H487 C474 0.962 . S
H488 C474 0.960 . S
H489 C475 0.961 . S
H490 C475 0.961 . S
H491 C475 0.961 . S
H492 C476 0.931 . S
H493 C481 0.930 . S
H494 C482 0.956 . S
H495 C482 0.961 . S
H496 C482 0.961 . S
H497 C483 0.958 . S
H498 C483 0.961 . S
H499 C483 0.960 . S
C500 C501 1.391 . S
C500 C502 1.394 . S
C500 H516 0.931 . S
C501 C500 1.391 . S
C501 C505 1.376 . S
C502 C500 1.394 . S
C502 C503 1.369 1_565 S
C502 C506 1.531 . S
C503 C502 1.369 1_545 S
C503 C504 1.410 . S
C503 C511 1.503 . S
C504 C503 1.410 . S
C504 C505 1.392 1_545 S
C504 C507 1.511 . S
C505 C501 1.376 . S
C505 C504 1.392 1_565 S
C505 H517 0.929 . S
C506 C502 1.531 . S
C506 H518 0.960 1_565 S
C506 H519 0.962 . S
C506 H520 0.960 . S
C507 C504 1.511 . S
C507 H521 0.961 . S
C507 H522 0.961 . S
C507 H523 0.961 . S
C508 C509 1.370 . S
C508 C510 1.363 . S
C508 H524 0.931 . S
C509 C508 1.370 . S
C509 C513 1.408 . S
C510 C508 1.363 . S
C510 C511 1.370 . S
C510 C514 1.524 . S
C511 C503 1.503 . S
C511 C510 1.370 . S
C511 C512 1.403 . S
C512 C511 1.403 . S
C512 C513 1.404 . S
C512 C515 1.539 . S
C513 C509 1.408 . S
C513 C512 1.404 . S
C513 H525 0.930 . S
C514 C510 1.524 . S
C514 H526 0.956 . S
C514 H527 0.961 . S
C514 H528 0.961 . S
C515 C512 1.539 . S
C515 H529 0.958 . S
C515 H530 0.961 . S
C515 H531 0.960 . S
H516 C500 0.931 . S
H517 C505 0.929 . S
H518 C506 0.960 1_545 S
H519 C506 0.962 . S
H520 C506 0.960 . S
H521 C507 0.961 . S
H522 C507 0.961 . S
H523 C507 0.961 . S
H524 C508 0.931 . S
H525 C513 0.930 . S
H526 C514 0.956 . S
H527 C514 0.961 . S
H528 C514 0.961 . S
H529 C515 0.958 . S
H530 C515 0.961 . S
H531 C515 0.960 . S
C532 C533 1.391 . S
C532 C534 1.394 1_545 S
C532 H548 0.931 . S
C533 C532 1.391 . S
C533 C537 1.376 . S
C534 C532 1.394 1_565 S
C534 C535 1.369 . S
C534 C538 1.531 . S
C535 C534 1.369 . S
C535 C536 1.410 1_565 S
C535 C543 1.503 . S
C536 C535 1.410 1_545 S
C536 C537 1.392 . S
C536 C539 1.511 1_545 S
C537 C533 1.376 . S
C537 C536 1.392 . S
C537 H549 0.929 . S
C538 C534 1.531 . S
C538 H550 0.960 . S
C538 H551 0.962 . S
C538 H552 0.960 . S
C539 C536 1.511 1_565 S
C539 H553 0.961 1_565 S
C539 H554 0.961 . S
C539 H555 0.961 1_565 S
C540 C541 1.370 . S
C540 C542 1.363 . S
C540 H556 0.931 . S
C541 C540 1.370 . S
C541 C545 1.408 . S
C542 C540 1.363 . S
C542 C543 1.370 . S
C542 C546 1.524 . S
C543 C535 1.503 . S
C543 C542 1.370 . S
C543 C544 1.403 . S
C544 C543 1.403 . S
C544 C545 1.404 . S
C544 C547 1.539 . S
C545 C541 1.408 . S
C545 C544 1.404 . S
C545 H557 0.930 1_655 S
C546 C542 1.524 . S
C546 H558 0.956 . S
C546 H559 0.961 . S
C546 H560 0.961 . S
C547 C544 1.539 . S
C547 H561 0.958 . S
C547 H562 0.961 1_655 S
C547 H563 0.960 . S
H548 C532 0.931 . S
H549 C537 0.929 . S
H550 C538 0.960 . S
H551 C538 0.962 . S
H552 C538 0.960 . S
H553 C539 0.961 1_545 S
H554 C539 0.961 . S
H555 C539 0.961 1_545 S
H556 C540 0.931 . S
H557 C545 0.930 1_455 S
H558 C546 0.956 . S
H559 C546 0.961 . S
H560 C546 0.961 . S
H561 C547 0.958 . S
H562 C547 0.961 1_455 S
H563 C547 0.960 . S
C564 C565 1.391 . S
C564 C566 1.394 . S
C564 H580 0.931 . S
C565 C564 1.391 . S
C565 C569 1.376 . S
C566 C564 1.394 . S
C566 C567 1.369 . S
C566 C570 1.531 . S
C567 C566 1.369 . S
C567 C568 1.410 . S
C567 C575 1.503 . S
C568 C567 1.410 . S
C568 C569 1.392 . S
C568 C571 1.511 . S
C569 C565 1.376 . S
C569 C568 1.392 . S
C569 H581 0.929 . S
C570 C566 1.531 . S
C570 H582 0.960 . S
C570 H583 0.962 . S
C570 H584 0.960 . S
C571 C568 1.511 . S
C571 H585 0.961 . S
C571 H586 0.961 . S
C571 H587 0.961 . S
C572 C573 1.370 . S
C572 C574 1.363 . S
C572 H588 0.931 . S
C573 C572 1.370 . S
C573 C577 1.408 . S
C574 C572 1.363 . S
C574 C575 1.370 . S
C574 C578 1.524 . S
C575 C567 1.503 . S
C575 C574 1.370 . S
C575 C576 1.403 . S
C576 C575 1.403 . S
C576 C577 1.404 . S
C576 C579 1.539 . S
C577 C573 1.408 . S
C577 C576 1.404 . S
C577 H589 0.930 . S
C578 C574 1.524 . S
C578 H590 0.956 . S
C578 H591 0.961 . S
C578 H592 0.961 . S
C579 C576 1.539 . S
C579 H593 0.958 . S
C579 H594 0.961 . S
C579 H595 0.960 . S
H580 C564 0.931 . S
H581 C569 0.929 . S
H582 C570 0.960 . S
H583 C570 0.962 . S
H584 C570 0.960 . S
H585 C571 0.961 . S
H586 C571 0.961 . S
H587 C571 0.961 . S
H588 C572 0.931 . S
H589 C577 0.930 . S
H590 C578 0.956 . S
H591 C578 0.961 . S
H592 C578 0.961 . S
H593 C579 0.958 . S
H594 C579 0.961 . S
H595 C579 0.960 . S
C596 C597 1.391 . S
C596 C598 1.394 . S
C596 H612 0.931 . S
C597 C596 1.391 . S
C597 C601 1.376 . S
C598 C596 1.394 . S
C598 C599 1.369 . S
C598 C602 1.531 . S
C599 C598 1.369 . S
C599 C600 1.410 . S
C599 C607 1.503 . S
C600 C599 1.410 . S
C600 C601 1.392 . S
C600 C603 1.511 . S
C601 C597 1.376 . S
C601 C600 1.392 . S
C601 H613 0.929 . S
C602 C598 1.531 . S
C602 H614 0.960 . S
C602 H615 0.962 . S
C602 H616 0.960 . S
C603 C600 1.511 . S
C603 H617 0.961 . S
C603 H618 0.961 . S
C603 H619 0.961 . S
C604 C605 1.370 . S
C604 C606 1.363 . S
C604 H620 0.931 . S
C605 C604 1.370 . S
C605 C609 1.408 . S
C606 C604 1.363 . S
C606 C607 1.370 . S
C606 C610 1.524 . S
C607 C599 1.503 . S
C607 C606 1.370 . S
C607 C608 1.403 . S
C608 C607 1.403 . S
C608 C609 1.404 . S
C608 C611 1.539 . S
C609 C605 1.408 . S
C609 C608 1.404 . S
C609 H621 0.930 . S
C610 C606 1.524 . S
C610 H622 0.956 . S
C610 H623 0.961 . S
C610 H624 0.961 . S
C611 C608 1.539 . S
C611 H625 0.958 . S
C611 H626 0.961 . S
C611 H627 0.960 . S
H612 C596 0.931 . S
H613 C601 0.929 . S
H614 C602 0.960 . S
H615 C602 0.962 . S
H616 C602 0.960 . S
H617 C603 0.961 . S
H618 C603 0.961 . S
H619 C603 0.961 . S
H620 C604 0.931 . S
H621 C609 0.930 . S
H622 C610 0.956 . S
H623 C610 0.961 . S
H624 C610 0.961 . S
H625 C611 0.958 . S
H626 C611 0.961 . S
H627 C611 0.960 . S
C628 C629 1.391 . S
C628 C630 1.394 1_545 S
C628 H644 0.931 . S
C629 C628 1.391 . S
C629 C633 1.376 . S
C630 C628 1.394 1_565 S
C630 C631 1.369 . S
C630 C634 1.531 . S
C631 C630 1.369 . S
C631 C632 1.410 1_565 S
C631 C639 1.503 . S
C632 C631 1.410 1_545 S
C632 C633 1.392 . S
C632 C635 1.511 . S
C633 C629 1.376 . S
C633 C632 1.392 . S
C633 H645 0.929 . S
C634 C630 1.531 . S
C634 H646 0.960 . S
C634 H647 0.962 . S
C634 H648 0.960 . S
C635 C632 1.511 . S
C635 H649 0.961 . S
C635 H650 0.961 1_545 S
C635 H651 0.961 . S
C636 C637 1.370 . S
C636 C638 1.363 . S
C636 H652 0.931 . S
C637 C636 1.370 . S
C637 C641 1.408 . S
C638 C636 1.363 . S
C638 C639 1.370 . S
C638 C642 1.524 . S
C639 C631 1.503 . S
C639 C638 1.370 . S
C639 C640 1.403 . S
C640 C639 1.403 . S
C640 C641 1.404 . S
C640 C643 1.539 . S
C641 C637 1.408 . S
C641 C640 1.404 . S
C641 H653 0.930 . S
C642 C638 1.524 . S
C642 H654 0.956 . S
C642 H655 0.961 . S
C642 H656 0.961 . S
C643 C640 1.539 . S
C643 H657 0.958 . S
C643 H658 0.961 . S
C643 H659 0.960 . S
H644 C628 0.931 . S
H645 C633 0.929 . S
H646 C634 0.960 . S
H647 C634 0.962 . S
H648 C634 0.960 . S
H649 C635 0.961 . S
H650 C635 0.961 1_565 S
H651 C635 0.961 . S
H652 C636 0.931 . S
H653 C641 0.930 . S
H654 C642 0.956 . S
H655 C642 0.961 . S
H656 C642 0.961 . S
H657 C643 0.958 . S
H658 C643 0.961 . S
H659 C643 0.960 . S
C660 C661 1.391 . S
C660 C662 1.394 . S
C660 H676 0.931 . S
C661 C660 1.391 . S
C661 C665 1.376 . S
C662 C660 1.394 . S
C662 C663 1.369 . S
C662 C666 1.531 . S
C663 C662 1.369 . S
C663 C664 1.410 . S
C663 C671 1.503 . S
C664 C663 1.410 . S
C664 C665 1.392 . S
C664 C667 1.511 . S
C665 C661 1.376 . S
C665 C664 1.392 . S
C665 H677 0.929 . S
C666 C662 1.531 . S
C666 H678 0.960 . S
C666 H679 0.962 . S
C666 H680 0.960 . S
C667 C664 1.511 . S
C667 H681 0.961 . S
C667 H682 0.961 . S
C667 H683 0.961 . S
C668 C669 1.370 . S
C668 C670 1.363 . S
C668 H684 0.931 . S
C669 C668 1.370 . S
C669 C673 1.408 . S
C670 C668 1.363 . S
C670 C671 1.370 . S
C670 C674 1.524 . S
C671 C663 1.503 . S
C671 C670 1.370 . S
C671 C672 1.403 . S
C672 C671 1.403 . S
C672 C673 1.404 . S
C672 C675 1.539 . S
C673 C669 1.408 . S
C673 C672 1.404 . S
C673 H685 0.930 . S
C674 C670 1.524 . S
C674 H686 0.956 . S
C674 H687 0.961 . S
C674 H688 0.961 . S
C675 C672 1.539 . S
C675 H689 0.958 . S
C675 H690 0.961 . S
C675 H691 0.960 . S
H676 C660 0.931 . S
H677 C665 0.929 . S
H678 C666 0.960 . S
H679 C666 0.962 . S
H680 C666 0.960 . S
H681 C667 0.961 . S
H682 C667 0.961 . S
H683 C667 0.961 . S
H684 C668 0.931 . S
H685 C673 0.930 . S
H686 C674 0.956 . S
H687 C674 0.961 . S
H688 C674 0.961 . S
H689 C675 0.958 . S
H690 C675 0.961 . S
H691 C675 0.960 . S
C692 C693 1.391 . S
C692 C694 1.394 . S
C692 H708 0.931 . S
C693 C692 1.391 . S
C693 C697 1.376 . S
C694 C692 1.394 . S
C694 C695 1.369 . S
C694 C698 1.531 . S
C695 C694 1.369 . S
C695 C696 1.410 . S
C695 C703 1.503 . S
C696 C695 1.410 . S
C696 C697 1.392 . S
C696 C699 1.511 . S
C697 C693 1.376 . S
C697 C696 1.392 . S
C697 H709 0.929 . S
C698 C694 1.531 . S
C698 H710 0.960 . S
C698 H711 0.962 . S
C698 H712 0.960 . S
C699 C696 1.511 . S
C699 H713 0.961 . S
C699 H714 0.961 . S
C699 H715 0.961 . S
C700 C701 1.370 . S
C700 C702 1.363 . S
C700 H716 0.931 . S
C701 C700 1.370 . S
C701 C705 1.408 . S
C702 C700 1.363 . S
C702 C703 1.370 . S
C702 C706 1.524 . S
C703 C695 1.503 . S
C703 C702 1.370 . S
C703 C704 1.403 . S
C704 C703 1.403 . S
C704 C705 1.404 . S
C704 C707 1.539 . S
C705 C701 1.408 . S
C705 C704 1.404 . S
C705 H717 0.930 . S
C706 C702 1.524 . S
C706 H718 0.956 . S
C706 H719 0.961 . S
C706 H720 0.961 . S
C707 C704 1.539 . S
C707 H721 0.958 . S
C707 H722 0.961 . S
C707 H723 0.960 . S
H708 C692 0.931 . S
H709 C697 0.929 . S
H710 C698 0.960 . S
H711 C698 0.962 . S
H712 C698 0.960 . S
H713 C699 0.961 . S
H714 C699 0.961 . S
H715 C699 0.961 . S
H716 C700 0.931 . S
H717 C705 0.930 . S
H718 C706 0.956 . S
H719 C706 0.961 . S
H720 C706 0.961 . S
H721 C707 0.958 . S
H722 C707 0.961 . S
H723 C707 0.960 . S
C724 C725 1.391 . S
C724 C726 1.394 . S
C724 H740 0.931 . S
C725 C724 1.391 . S
C725 C729 1.376 . S
C726 C724 1.394 . S
C726 C727 1.369 . S
C726 C730 1.531 . S
C727 C726 1.369 . S
C727 C728 1.410 . S
C727 C735 1.503 . S
C728 C727 1.410 . S
C728 C729 1.392 . S
C728 C731 1.511 . S
C729 C725 1.376 . S
C729 C728 1.392 . S
C729 H741 0.929 . S
C730 C726 1.531 . S
C730 H742 0.960 . S
C730 H743 0.962 . S
C730 H744 0.960 . S
C731 C728 1.511 . S
C731 H745 0.961 . S
C731 H746 0.961 . S
C731 H747 0.961 . S
C732 C733 1.370 . S
C732 C734 1.363 . S
C732 H748 0.931 . S
C733 C732 1.370 . S
C733 C737 1.408 . S
C734 C732 1.363 . S
C734 C735 1.370 . S
C734 C738 1.524 . S
C735 C727 1.503 . S
C735 C734 1.370 . S
C735 C736 1.403 . S
C736 C735 1.403 . S
C736 C737 1.404 . S
C736 C739 1.539 . S
C737 C733 1.408 . S
C737 C736 1.404 . S
C737 H749 0.930 . S
C738 C734 1.524 . S
C738 H750 0.956 . S
C738 H751 0.961 . S
C738 H752 0.961 . S
C739 C736 1.539 . S
C739 H753 0.958 . S
C739 H754 0.961 . S
C739 H755 0.960 . S
H740 C724 0.931 . S
H741 C729 0.929 . S
H742 C730 0.960 . S
H743 C730 0.962 . S
H744 C730 0.960 . S
H745 C731 0.961 . S
H746 C731 0.961 . S
H747 C731 0.961 . S
H748 C732 0.931 . S
H749 C737 0.930 . S
H750 C738 0.956 . S
H751 C738 0.961 . S
H752 C738 0.961 . S
H753 C739 0.958 . S
H754 C739 0.961 . S
H755 C739 0.960 . S
C756 C757 1.391 . S
C756 C758 1.394 . S
C756 H772 0.931 . S
C757 C756 1.391 . S
C757 C761 1.376 . S
C758 C756 1.394 . S
C758 C759 1.369 . S
C758 C762 1.531 . S
C759 C758 1.369 . S
C759 C760 1.410 . S
C759 C767 1.503 . S
C760 C759 1.410 . S
C760 C761 1.392 . S
C760 C763 1.511 . S
C761 C757 1.376 . S
C761 C760 1.392 . S
C761 H773 0.929 . S
C762 C758 1.531 . S
C762 H774 0.960 . S
C762 H775 0.962 . S
C762 H776 0.960 . S
C763 C760 1.511 . S
C763 H777 0.961 . S
C763 H778 0.961 . S
C763 H779 0.961 . S
C764 C765 1.370 . S
C764 C766 1.363 . S
C764 H780 0.931 . S
C765 C764 1.370 . S
C765 C769 1.408 . S
C766 C764 1.363 . S
C766 C767 1.370 . S
C766 C770 1.524 . S
C767 C759 1.503 . S
C767 C766 1.370 . S
C767 C768 1.403 . S
C768 C767 1.403 . S
C768 C769 1.404 . S
C768 C771 1.539 . S
C769 C765 1.408 . S
C769 C768 1.404 . S
C769 H781 0.930 . S
C770 C766 1.524 . S
C770 H782 0.956 . S
C770 H783 0.961 . S
C770 H784 0.961 . S
C771 C768 1.539 . S
C771 H785 0.958 . S
C771 H786 0.961 . S
C771 H787 0.960 . S
H772 C756 0.931 . S
H773 C761 0.929 . S
H774 C762 0.960 . S
H775 C762 0.962 . S
H776 C762 0.960 . S
H777 C763 0.961 . S
H778 C763 0.961 . S
H779 C763 0.961 . S
H780 C764 0.931 . S
H781 C769 0.930 . S
H782 C770 0.956 . S
H783 C770 0.961 . S
H784 C770 0.961 . S
H785 C771 0.958 . S
H786 C771 0.961 . S
H787 C771 0.960 . S
C788 C789 1.391 . S
C788 C790 1.394 . S
C788 H804 0.931 . S
C789 C788 1.391 . S
C789 C793 1.376 . S
C790 C788 1.394 . S
C790 C791 1.369 . S
C790 C794 1.531 . S
C791 C790 1.369 . S
C791 C792 1.410 . S
C791 C799 1.503 . S
C792 C791 1.410 . S
C792 C793 1.392 . S
C792 C795 1.511 . S
C793 C789 1.376 . S
C793 C792 1.392 . S
C793 H805 0.929 . S
C794 C790 1.531 . S
C794 H806 0.960 . S
C794 H807 0.962 . S
C794 H808 0.960 . S
C795 C792 1.511 . S
C795 H809 0.961 . S
C795 H810 0.961 . S
C795 H811 0.961 . S
C796 C797 1.370 . S
C796 C798 1.363 . S
C796 H812 0.931 . S
C797 C796 1.370 . S
C797 C801 1.408 . S
C798 C796 1.363 . S
C798 C799 1.370 . S
C798 C802 1.524 . S
C799 C791 1.503 . S
C799 C798 1.370 . S
C799 C800 1.403 . S
C800 C799 1.403 . S
C800 C801 1.404 . S
C800 C803 1.539 . S
C801 C797 1.408 . S
C801 C800 1.404 . S
C801 H813 0.930 . S
C802 C798 1.524 . S
C802 H814 0.956 . S
C802 H815 0.961 . S
C802 H816 0.961 . S
C803 C800 1.539 . S
C803 H817 0.958 . S
C803 H818 0.961 . S
C803 H819 0.960 . S
H804 C788 0.931 . S
H805 C793 0.929 . S
H806 C794 0.960 . S
H807 C794 0.962 . S
H808 C794 0.960 . S
H809 C795 0.961 . S
H810 C795 0.961 . S
H811 C795 0.961 . S
H812 C796 0.931 . S
H813 C801 0.930 . S
H814 C802 0.956 . S
H815 C802 0.961 . S
H816 C802 0.961 . S
H817 C803 0.958 . S
H818 C803 0.961 . S
H819 C803 0.960 . S
C820 C821 1.391 . S
C820 C822 1.394 . S
C820 H836 0.931 . S
C821 C820 1.391 . S
C821 C825 1.376 . S
C822 C820 1.394 . S
C822 C823 1.369 . S
C822 C826 1.531 . S
C823 C822 1.369 . S
C823 C824 1.410 . S
C823 C831 1.503 . S
C824 C823 1.410 . S
C824 C825 1.392 . S
C824 C827 1.511 . S
C825 C821 1.376 . S
C825 C824 1.392 . S
C825 H837 0.929 . S
C826 C822 1.531 . S
C826 H838 0.960 . S
C826 H839 0.962 . S
C826 H840 0.960 . S
C827 C824 1.511 . S
C827 H841 0.961 . S
C827 H842 0.961 . S
C827 H843 0.961 . S
C828 C829 1.370 . S
C828 C830 1.363 . S
C828 H844 0.931 . S
C829 C828 1.370 . S
C829 C833 1.408 . S
C830 C828 1.363 . S
C830 C831 1.370 . S
C830 C834 1.524 . S
C831 C823 1.503 . S
C831 C830 1.370 . S
C831 C832 1.403 . S
C832 C831 1.403 . S
C832 C833 1.404 . S
C832 C835 1.539 . S
C833 C829 1.408 . S
C833 C832 1.404 . S
C833 H845 0.930 . S
C834 C830 1.524 . S
C834 H846 0.956 . S
C834 H847 0.961 . S
C834 H848 0.961 . S
C835 C832 1.539 . S
C835 H849 0.958 . S
C835 H850 0.961 . S
C835 H851 0.960 . S
H836 C820 0.931 . S
H837 C825 0.929 . S
H838 C826 0.960 . S
H839 C826 0.962 . S
H840 C826 0.960 . S
H841 C827 0.961 . S
H842 C827 0.961 . S
H843 C827 0.961 . S
H844 C828 0.931 . S
H845 C833 0.930 . S
H846 C834 0.956 . S
H847 C834 0.961 . S
H848 C834 0.961 . S
H849 C835 0.958 . S
H850 C835 0.961 . S
H851 C835 0.960 . S
C852 C853 1.391 . S
C852 C854 1.394 . S
C852 H868 0.931 . S
C853 C852 1.391 . S
C853 C857 1.376 . S
C854 C852 1.394 . S
C854 C855 1.369 . S
C854 C858 1.531 . S
C855 C854 1.369 . S
C855 C856 1.410 . S
C855 C863 1.503 . S
C856 C855 1.410 . S
C856 C857 1.392 . S
C856 C859 1.511 . S
C857 C853 1.376 . S
C857 C856 1.392 . S
C857 H869 0.929 . S
C858 C854 1.531 . S
C858 H870 0.960 . S
C858 H871 0.962 . S
C858 H872 0.960 . S
C859 C856 1.511 . S
C859 H873 0.961 . S
C859 H874 0.961 . S
C859 H875 0.961 . S
C860 C861 1.370 . S
C860 C862 1.363 . S
C860 H876 0.931 . S
C861 C860 1.370 . S
C861 C865 1.408 . S
C862 C860 1.363 . S
C862 C863 1.370 . S
C862 C866 1.524 . S
C863 C855 1.503 . S
C863 C862 1.370 . S
C863 C864 1.403 . S
C864 C863 1.403 . S
C864 C865 1.404 . S
C864 C867 1.539 . S
C865 C861 1.408 . S
C865 C864 1.404 . S
C865 H877 0.930 . S
C866 C862 1.524 . S
C866 H878 0.956 . S
C866 H879 0.961 . S
C866 H880 0.961 . S
C867 C864 1.539 . S
C867 H881 0.958 . S
C867 H882 0.961 . S
C867 H883 0.960 . S
H868 C852 0.931 . S
H869 C857 0.929 . S
H870 C858 0.960 . S
H871 C858 0.962 . S
H872 C858 0.960 . S
H873 C859 0.961 . S
H874 C859 0.961 . S
H875 C859 0.961 . S
H876 C860 0.931 . S
H877 C865 0.930 . S
H878 C866 0.956 . S
H879 C866 0.961 . S
H880 C866 0.961 . S
H881 C867 0.958 . S
H882 C867 0.961 . S
H883 C867 0.960 . S
C884 C885 1.391 . S
C884 C886 1.394 . S
C884 H900 0.931 . S
C885 C884 1.391 . S
C885 C889 1.376 . S
C886 C884 1.394 . S
C886 C887 1.369 . S
C886 C890 1.531 . S
C887 C886 1.369 . S
C887 C888 1.410 . S
C887 C895 1.503 . S
C888 C887 1.410 . S
C888 C889 1.392 . S
C888 C891 1.511 . S
C889 C885 1.376 . S
C889 C888 1.392 . S
C889 H901 0.929 . S
C890 C886 1.531 . S
C890 H902 0.960 . S
C890 H903 0.962 . S
C890 H904 0.960 . S
C891 C888 1.511 . S
C891 H905 0.961 . S
C891 H906 0.961 . S
C891 H907 0.961 . S
C892 C893 1.370 . S
C892 C894 1.363 . S
C892 H908 0.931 . S
C893 C892 1.370 . S
C893 C897 1.408 . S
C894 C892 1.363 . S
C894 C895 1.370 . S
C894 C898 1.524 . S
C895 C887 1.503 . S
C895 C894 1.370 . S
C895 C896 1.403 . S
C896 C895 1.403 . S
C896 C897 1.404 . S
C896 C899 1.539 . S
C897 C893 1.408 . S
C897 C896 1.404 . S
C897 H909 0.930 . S
C898 C894 1.524 . S
C898 H910 0.956 . S
C898 H911 0.961 . S
C898 H912 0.961 . S
C899 C896 1.539 . S
C899 H913 0.958 . S
C899 H914 0.961 . S
C899 H915 0.960 . S
H900 C884 0.931 . S
H901 C889 0.929 . S
H902 C890 0.960 . S
H903 C890 0.962 . S
H904 C890 0.960 . S
H905 C891 0.961 . S
H906 C891 0.961 . S
H907 C891 0.961 . S
H908 C892 0.931 . S
H909 C897 0.930 . S
H910 C898 0.956 . S
H911 C898 0.961 . S
H912 C898 0.961 . S
H913 C899 0.958 . S
H914 C899 0.961 . S
H915 C899 0.960 . S
C916 C917 1.391 . S
C916 C918 1.394 . S
C916 H932 0.931 . S
C917 C916 1.391 . S
C917 C921 1.376 . S
C918 C916 1.394 . S
C918 C919 1.369 . S
C918 C922 1.531 . S
C919 C918 1.369 . S
C919 C920 1.410 . S
C919 C927 1.503 . S
C920 C919 1.410 . S
C920 C921 1.392 . S
C920 C923 1.511 . S
C921 C917 1.376 . S
C921 C920 1.392 . S
C921 H933 0.929 . S
C922 C918 1.531 . S
C922 H934 0.960 . S
C922 H935 0.962 . S
C922 H936 0.960 . S
C923 C920 1.511 . S
C923 H937 0.961 . S
C923 H938 0.961 . S
C923 H939 0.961 . S
C924 C925 1.370 . S
C924 C926 1.363 . S
C924 H940 0.931 . S
C925 C924 1.370 . S
C925 C929 1.408 . S
C926 C924 1.363 . S
C926 C927 1.370 . S
C926 C930 1.524 . S
C927 C919 1.503 . S
C927 C926 1.370 . S
C927 C928 1.403 . S
C928 C927 1.403 . S
C928 C929 1.404 . S
C928 C931 1.539 . S
C929 C925 1.408 . S
C929 C928 1.404 . S
C929 H941 0.930 . S
C930 C926 1.524 . S
C930 H942 0.956 . S
C930 H943 0.961 . S
C930 H944 0.961 . S
C931 C928 1.539 . S
C931 H945 0.958 . S
C931 H946 0.961 . S
C931 H947 0.960 . S
H932 C916 0.931 . S
H933 C921 0.929 . S
H934 C922 0.960 . S
H935 C922 0.962 . S
H936 C922 0.960 . S
H937 C923 0.961 . S
H938 C923 0.961 . S
H939 C923 0.961 . S
H940 C924 0.931 . S
H941 C929 0.930 . S
H942 C930 0.956 . S
H943 C930 0.961 . S
H944 C930 0.961 . S
H945 C931 0.958 . S
H946 C931 0.961 . S
H947 C931 0.960 . S
C948 C949 1.391 . S
C948 C950 1.394 . S
C948 H964 0.931 . S
C949 C948 1.391 . S
C949 C953 1.376 . S
C950 C948 1.394 . S
C950 C951 1.369 . S
C950 C954 1.531 . S
C951 C950 1.369 . S
C951 C952 1.410 . S
C951 C959 1.503 . S
C952 C951 1.410 . S
C952 C953 1.392 . S
C952 C955 1.511 . S
C953 C949 1.376 . S
C953 C952 1.392 . S
C953 H965 0.929 . S
C954 C950 1.531 . S
C954 H966 0.960 . S
C954 H967 0.962 . S
C954 H968 0.960 . S
C955 C952 1.511 . S
C955 H969 0.961 . S
C955 H970 0.961 . S
C955 H971 0.961 . S
C956 C957 1.370 . S
C956 C958 1.363 . S
C956 H972 0.931 . S
C957 C956 1.370 . S
C957 C961 1.408 . S
C958 C956 1.363 . S
C958 C959 1.370 . S
C958 C962 1.524 . S
C959 C951 1.503 . S
C959 C958 1.370 . S
C959 C960 1.403 . S
C960 C959 1.403 . S
C960 C961 1.404 . S
C960 C963 1.539 . S
C961 C957 1.408 . S
C961 C960 1.404 . S
C961 H973 0.930 . S
C962 C958 1.524 . S
C962 H974 0.956 . S
C962 H975 0.961 . S
C962 H976 0.961 . S
C963 C960 1.539 . S
C963 H977 0.958 . S
C963 H978 0.961 . S
C963 H979 0.960 . S
H964 C948 0.931 . S
H965 C953 0.929 . S
H966 C954 0.960 . S
H967 C954 0.962 . S
H968 C954 0.960 . S
H969 C955 0.961 . S
H970 C955 0.961 . S
H971 C955 0.961 . S
H972 C956 0.931 . S
H973 C961 0.930 . S
H974 C962 0.956 . S
H975 C962 0.961 . S
H976 C962 0.961 . S
H977 C963 0.958 . S
H978 C963 0.961 . S
H979 C963 0.960 . S
C980 C981 1.391 . S
C980 C982 1.394 . S
C980 H996 0.931 . S
C981 C980 1.391 . S
C981 C985 1.376 . S
C982 C980 1.394 . S
C982 C983 1.369 . S
C982 C986 1.531 . S
C983 C982 1.369 . S
C983 C984 1.410 . S
C983 C991 1.503 . S
C984 C983 1.410 . S
C984 C985 1.392 . S
C984 C987 1.511 . S
C985 C981 1.376 . S
C985 C984 1.392 . S
C985 H997 0.929 . S
C986 C982 1.531 . S
C986 H998 0.960 . S
C986 H999 0.962 . S
C986 H1000 0.960 . S
C987 C984 1.511 . S
C987 H1001 0.961 . S
C987 H1002 0.961 . S
C987 H1003 0.961 . S
C988 C989 1.370 . S
C988 C990 1.363 . S
C988 H1004 0.931 . S
C989 C988 1.370 . S
C989 C993 1.408 . S
C990 C988 1.363 . S
C990 C991 1.370 . S
C990 C994 1.524 . S
C991 C983 1.503 . S
C991 C990 1.370 . S
C991 C992 1.403 . S
C992 C991 1.403 . S
C992 C993 1.404 . S
C992 C995 1.539 . S
C993 C989 1.408 . S
C993 C992 1.404 . S
C993 H1005 0.930 . S
C994 C990 1.524 . S
C994 H1006 0.956 . S
C994 H1007 0.961 . S
C994 H1008 0.961 . S
C995 C992 1.539 . S
C995 H1009 0.958 . S
C995 H1010 0.961 . S
C995 H1011 0.960 . S
H996 C980 0.931 . S
H997 C985 0.929 . S
H998 C986 0.960 . S
H999 C986 0.962 . S
H1000 C986 0.960 . S
H1001 C987 0.961 . S
H1002 C987 0.961 . S
H1003 C987 0.961 . S
H1004 C988 0.931 . S
H1005 C993 0.930 . S
H1006 C994 0.956 . S
H1007 C994 0.961 . S
H1008 C994 0.961 . S
H1009 C995 0.958 . S
H1010 C995 0.961 . S
H1011 C995 0.960 . S
C1012 C1013 1.391 . S
C1012 C1014 1.394 . S
C1012 H1028 0.931 . S
C1013 C1012 1.391 . S
C1013 C1017 1.376 . S
C1014 C1012 1.394 . S
C1014 C1015 1.369 . S
C1014 C1018 1.531 . S
C1015 C1014 1.369 . S
C1015 C1016 1.410 . S
C1015 C1023 1.503 . S
C1016 C1015 1.410 . S
C1016 C1017 1.392 . S
C1016 C1019 1.511 . S
C1017 C1013 1.376 . S
C1017 C1016 1.392 . S
C1017 H1029 0.929 . S
C1018 C1014 1.531 . S
C1018 H1030 0.960 . S
C1018 H1031 0.962 . S
C1018 H1032 0.960 . S
C1019 C1016 1.511 . S
C1019 H1033 0.961 . S
C1019 H1034 0.961 . S
C1019 H1035 0.961 . S
C1020 C1021 1.370 . S
C1020 C1022 1.363 . S
C1020 H1036 0.931 . S
C1021 C1020 1.370 . S
C1021 C1025 1.408 . S
C1022 C1020 1.363 . S
C1022 C1023 1.370 . S
C1022 C1026 1.524 . S
C1023 C1015 1.503 . S
C1023 C1022 1.370 . S
C1023 C1024 1.403 . S
C1024 C1023 1.403 . S
C1024 C1025 1.404 . S
C1024 C1027 1.539 . S
C1025 C1021 1.408 . S
C1025 C1024 1.404 . S
C1025 H1037 0.930 . S
C1026 C1022 1.524 . S
C1026 H1038 0.956 . S
C1026 H1039 0.961 . S
C1026 H1040 0.961 . S
C1027 C1024 1.539 . S
C1027 H1041 0.958 . S
C1027 H1042 0.961 . S
C1027 H1043 0.960 . S
H1028 C1012 0.931 . S
H1029 C1017 0.929 . S
H1030 C1018 0.960 . S
H1031 C1018 0.962 . S
H1032 C1018 0.960 . S
H1033 C1019 0.961 . S
H1034 C1019 0.961 . S
H1035 C1019 0.961 . S
H1036 C1020 0.931 . S
H1037 C1025 0.930 . S
H1038 C1026 0.956 . S
H1039 C1026 0.961 . S
H1040 C1026 0.961 . S
H1041 C1027 0.958 . S
H1042 C1027 0.961 . S
H1043 C1027 0.960 . S
C1044 C1045 1.391 . S
C1044 C1046 1.394 . S
C1044 H1060 0.931 . S
C1045 C1044 1.391 . S
C1045 C1049 1.376 . S
C1046 C1044 1.394 . S
C1046 C1047 1.369 . S
C1046 C1050 1.531 . S
C1047 C1046 1.369 . S
C1047 C1048 1.410 . S
C1047 C1055 1.503 . S
C1048 C1047 1.410 . S
C1048 C1049 1.392 . S
C1048 C1051 1.511 . S
C1049 C1045 1.376 . S
C1049 C1048 1.392 . S
C1049 H1061 0.929 . S
C1050 C1046 1.531 . S
C1050 H1062 0.960 . S
C1050 H1063 0.962 . S
C1050 H1064 0.960 . S
C1051 C1048 1.511 . S
C1051 H1065 0.961 . S
C1051 H1066 0.961 . S
C1051 H1067 0.961 . S
C1052 C1053 1.370 . S
C1052 C1054 1.363 . S
C1052 H1068 0.931 . S
C1053 C1052 1.370 . S
C1053 C1057 1.408 . S
C1054 C1052 1.363 . S
C1054 C1055 1.370 . S
C1054 C1058 1.524 . S
C1055 C1047 1.503 . S
C1055 C1054 1.370 . S
C1055 C1056 1.403 . S
C1056 C1055 1.403 . S
C1056 C1057 1.404 . S
C1056 C1059 1.539 . S
C1057 C1053 1.408 . S
C1057 C1056 1.404 . S
C1057 H1069 0.930 . S
C1058 C1054 1.524 . S
C1058 H1070 0.956 . S
C1058 H1071 0.961 . S
C1058 H1072 0.961 . S
C1059 C1056 1.539 . S
C1059 H1073 0.958 . S
C1059 H1074 0.961 . S
C1059 H1075 0.960 . S
H1060 C1044 0.931 . S
H1061 C1049 0.929 . S
H1062 C1050 0.960 . S
H1063 C1050 0.962 . S
H1064 C1050 0.960 . S
H1065 C1051 0.961 . S
H1066 C1051 0.961 . S
H1067 C1051 0.961 . S
H1068 C1052 0.931 . S
H1069 C1057 0.930 . S
H1070 C1058 0.956 . S
H1071 C1058 0.961 . S
H1072 C1058 0.961 . S
H1073 C1059 0.958 . S
H1074 C1059 0.961 . S
H1075 C1059 0.960 . S
C1076 C1077 1.391 . S
C1076 C1078 1.394 . S
C1076 H1092 0.931 . S
C1077 C1076 1.391 . S
C1077 C1081 1.376 . S
C1078 C1076 1.394 . S
C1078 C1079 1.369 . S
C1078 C1082 1.531 . S
C1079 C1078 1.369 . S
C1079 C1080 1.410 . S
C1079 C1087 1.503 . S
C1080 C1079 1.410 . S
C1080 C1081 1.392 . S
C1080 C1083 1.511 . S
C1081 C1077 1.376 . S
C1081 C1080 1.392 . S
C1081 H1093 0.929 . S
C1082 C1078 1.531 . S
C1082 H1094 0.960 . S
C1082 H1095 0.962 . S
C1082 H1096 0.960 . S
C1083 C1080 1.511 . S
C1083 H1097 0.961 . S
C1083 H1098 0.961 . S
C1083 H1099 0.961 . S
C1084 C1085 1.370 . S
C1084 C1086 1.363 . S
C1084 H1100 0.931 . S
C1085 C1084 1.370 . S
C1085 C1089 1.408 . S
C1086 C1084 1.363 . S
C1086 C1087 1.370 . S
C1086 C1090 1.524 . S
C1087 C1079 1.503 . S
C1087 C1086 1.370 . S
C1087 C1088 1.403 . S
C1088 C1087 1.403 . S
C1088 C1089 1.404 . S
C1088 C1091 1.539 . S
C1089 C1085 1.408 . S
C1089 C1088 1.404 . S
C1089 H1101 0.930 . S
C1090 C1086 1.524 . S
C1090 H1102 0.956 . S
C1090 H1103 0.961 . S
C1090 H1104 0.961 . S
C1091 C1088 1.539 . S
C1091 H1105 0.958 . S
C1091 H1106 0.961 . S
C1091 H1107 0.960 . S
H1092 C1076 0.931 . S
H1093 C1081 0.929 . S
H1094 C1082 0.960 . S
H1095 C1082 0.962 . S
H1096 C1082 0.960 . S
H1097 C1083 0.961 . S
H1098 C1083 0.961 . S
H1099 C1083 0.961 . S
H1100 C1084 0.931 . S
H1101 C1089 0.930 . S
H1102 C1090 0.956 . S
H1103 C1090 0.961 . S
H1104 C1090 0.961 . S
H1105 C1091 0.958 . S
H1106 C1091 0.961 . S
H1107 C1091 0.960 . S
C1108 C1109 1.391 . S
C1108 C1110 1.394 . S
C1108 H1124 0.931 . S
C1109 C1108 1.391 . S
C1109 C1113 1.376 . S
C1110 C1108 1.394 . S
C1110 C1111 1.369 . S
C1110 C1114 1.531 . S
C1111 C1110 1.369 . S
C1111 C1112 1.410 . S
C1111 C1119 1.503 . S
C1112 C1111 1.410 . S
C1112 C1113 1.392 . S
C1112 C1115 1.511 . S
C1113 C1109 1.376 . S
C1113 C1112 1.392 . S
C1113 H1125 0.929 . S
C1114 C1110 1.531 . S
C1114 H1126 0.960 . S
C1114 H1127 0.962 . S
C1114 H1128 0.960 . S
C1115 C1112 1.511 . S
C1115 H1129 0.961 . S
C1115 H1130 0.961 . S
C1115 H1131 0.961 . S
C1116 C1117 1.370 . S
C1116 C1118 1.363 . S
C1116 H1132 0.931 . S
C1117 C1116 1.370 . S
C1117 C1121 1.408 . S
C1118 C1116 1.363 . S
C1118 C1119 1.370 . S
C1118 C1122 1.524 . S
C1119 C1111 1.503 . S
C1119 C1118 1.370 . S
C1119 C1120 1.403 . S
C1120 C1119 1.403 . S
C1120 C1121 1.404 . S
C1120 C1123 1.539 . S
C1121 C1117 1.408 . S
C1121 C1120 1.404 . S
C1121 H1133 0.930 . S
C1122 C1118 1.524 . S
C1122 H1134 0.956 . S
C1122 H1135 0.961 . S
C1122 H1136 0.961 . S
C1123 C1120 1.539 . S
C1123 H1137 0.958 . S
C1123 H1138 0.961 . S
C1123 H1139 0.960 . S
H1124 C1108 0.931 . S
H1125 C1113 0.929 . S
H1126 C1114 0.960 . S
H1127 C1114 0.962 . S
H1128 C1114 0.960 . S
H1129 C1115 0.961 . S
H1130 C1115 0.961 . S
H1131 C1115 0.961 . S
H1132 C1116 0.931 . S
H1133 C1121 0.930 . S
H1134 C1122 0.956 . S
H1135 C1122 0.961 . S
H1136 C1122 0.961 . S
H1137 C1123 0.958 . S
H1138 C1123 0.961 . S
H1139 C1123 0.960 . S
C1140 C1141 1.391 . S
C1140 C1142 1.394 . S
C1140 H1156 0.931 . S
C1141 C1140 1.391 . S
C1141 C1145 1.376 . S
C1142 C1140 1.394 . S
C1142 C1143 1.369 . S
C1142 C1146 1.531 . S
C1143 C1142 1.369 . S
C1143 C1144 1.410 . S
C1143 C1151 1.503 . S
C1144 C1143 1.410 . S
C1144 C1145 1.392 . S
C1144 C1147 1.511 . S
C1145 C1141 1.376 . S
C1145 C1144 1.392 . S
C1145 H1157 0.929 . S
C1146 C1142 1.531 . S
C1146 H1158 0.960 . S
C1146 H1159 0.962 . S
C1146 H1160 0.960 . S
C1147 C1144 1.511 . S
C1147 H1161 0.961 . S
C1147 H1162 0.961 . S
C1147 H1163 0.961 . S
C1148 C1149 1.370 . S
C1148 C1150 1.363 . S
C1148 H1164 0.931 . S
C1149 C1148 1.370 . S
C1149 C1153 1.408 . S
C1150 C1148 1.363 . S
C1150 C1151 1.370 . S
C1150 C1154 1.524 . S
C1151 C1143 1.503 . S
C1151 C1150 1.370 . S
C1151 C1152 1.403 . S
C1152 C1151 1.403 . S
C1152 C1153 1.404 . S
C1152 C1155 1.539 . S
C1153 C1149 1.408 . S
C1153 C1152 1.404 . S
C1153 H1165 0.930 . S
C1154 C1150 1.524 . S
C1154 H1166 0.956 . S
C1154 H1167 0.961 . S
C1154 H1168 0.961 . S
C1155 C1152 1.539 . S
C1155 H1169 0.958 . S
C1155 H1170 0.961 . S
C1155 H1171 0.960 . S
H1156 C1140 0.931 . S
H1157 C1145 0.929 . S
H1158 C1146 0.960 . S
H1159 C1146 0.962 . S
H1160 C1146 0.960 . S
H1161 C1147 0.961 . S
H1162 C1147 0.961 . S
H1163 C1147 0.961 . S
H1164 C1148 0.931 . S
H1165 C1153 0.930 . S
H1166 C1154 0.956 . S
H1167 C1154 0.961 . S
H1168 C1154 0.961 . S
H1169 C1155 0.958 . S
H1170 C1155 0.961 . S
H1171 C1155 0.960 . S
C405 C242 1.437 . S
C413 C336 1.365 . S
C445 C344 1.402 . S
C437 C301 1.388 . S
C477 C348 1.356 . S
C469 C162 1.428 . S
C501 C221 1.374 . S
C509 C324 1.383 . S
C541 C365 1.386 . S
C533 C82 1.421 . S
C573 C399 1.430 . S
C565 C141 1.463 . S
C597 C2 1.396 . S
C605 C387 1.355 . S
C629 C61 1.418 . S
C637 C369 1.398 . S
C669 C323 1.301 . S
C661 C42 1.456 . S
C701 C357 1.329 . S
C693 C21 1.400 . S
C733 C361 1.301 . S
C725 C122 1.456 . S
C765 C339 1.312 . S
C757 C101 1.454 . S
C797 C378 1.293 . S
C789 C202 1.433 . S
C821 C181 1.432 . S
C829 C386 1.304 . S
C861 C402 1.321 . S
C853 C282 1.460 . S
C885 C261 1.426 . S
C893 C382 1.296 . S
C925 C327 1.340 . S
C917 C15 1.498 . S
C957 C345 1.299 . S
C949 C55 1.505 . S
C981 C95 1.487 . S
C989 C360 1.289 . S
C1021 C340 1.336 . S
C1013 C135 1.484 . S
C1053 C366 1.342 . S
C1045 C175 1.498 . S
C1077 C215 1.493 . S
C1085 C390 1.311 . S
C1109 C255 1.491 . S
C1117 C403 1.307 . S
C1141 C295 1.482 . S
C1149 C381 1.295 . S
