# Generated by pormake.
# Topology tsx, (6,3)-cn, num edge types: 1
# Building blocks:
#     Node 0, Type 0, BuildingBlock: LEVNOQ01_clean_sbu_1, # of connection points: 6
#     Node 1, Type 0, BuildingBlock: LEVNOQ01_clean_sbu_1, # of connection points: 6
#     Node 2, Type 1, BuildingBlock: WUSLED_clean_sbu_0, # of connection points: 3
#     Node 3, Type 1, BuildingBlock: WUSLED_clean_sbu_0, # of connection points: 3
#     Node 4, Type 1, BuildingBlock: WUSLED_clean_sbu_0, # of connection points: 3
#     Node 5, Type 1, BuildingBlock: WUSLED_clean_sbu_0, # of connection points: 3
#     Edge 6, Type (0, 1), BuildingBlock: AJUNOK_clean_linker_0, # of connection points: 2
#     Edge 7, Type (0, 1), BuildingBlock: AJUNOK_clean_linker_0, # of connection points: 2
#     Edge 8, Type (0, 1), BuildingBlock: AJUNOK_clean_linker_0, # of connection points: 2
#     Edge 9, Type (0, 1), BuildingBlock: AJUNOK_clean_linker_0, # of connection points: 2
#     Edge 10, Type (0, 1), BuildingBlock: AJUNOK_clean_linker_0, # of connection points: 2
#     Edge 11, Type (0, 1), BuildingBlock: AJUNOK_clean_linker_0, # of connection points: 2
#     Edge 12, Type (0, 1), BuildingBlock: AJUNOK_clean_linker_0, # of connection points: 2
#     Edge 13, Type (0, 1), BuildingBlock: AJUNOK_clean_linker_0, # of connection points: 2
#     Edge 14, Type (0, 1), BuildingBlock: AJUNOK_clean_linker_0, # of connection points: 2
#     Edge 15, Type (0, 1), BuildingBlock: AJUNOK_clean_linker_0, # of connection points: 2
#     Edge 16, Type (0, 1), BuildingBlock: AJUNOK_clean_linker_0, # of connection points: 2
#     Edge 17, Type (0, 1), BuildingBlock: AJUNOK_clean_linker_0, # of connection points: 2
# Relax obj value: 0.123
# Max RMSD: 0.154
# Mean RMSD: 0.115
data_MOF--net-tsx--node1-LEVNOQ01_clean_sbu_1--node2-WUSLED_clean_sbu_0--edge1-AJUNOK_clean_linker_0
_symmetry_space_group_name_H-M    P1
_symmetry_Int_Tables_number       1
_symmetry_cell_setting            triclinic
loop_
_symmetry_equiv_pos_as_xyz
'x, y, z'
_cell_length_a     18.148667
_cell_length_b     23.018828
_cell_length_c     37.85469
_cell_angle_alpha  97.140717
_cell_angle_beta   93.652466
_cell_angle_gamma 90.627003
loop_
_atom_site_label
_atom_site_type_symbol
_atom_site_fract_x
_atom_site_fract_y
_atom_site_fract_z
_atom_type_partial_charge
O0 O 0.16688 0.08178 0.09488 0.0
Mg1 Mg 0.20284 0.07889 0.04344 0.0
O2 O 0.05425 0.0586 0.07183 0.0
Mg3 Mg 0.05864 0.05476 0.00938 0.0
O4 O 0.14862 0.13166 0.01079 0.0
O5 O 0.26297 0.14962 0.03724 0.0
O6 O 0.06281 0.04819 0.94727 0.0
O7 O 0.98121 0.13933 0.01155 0.0
Mg8 Mg 0.91804 0.03944 0.98229 0.0
O9 O 0.9696 0.97667 0.00838 0.0
O10 O 0.94495 0.04773 0.93012 0.0
O11 O 0.86677 0.10911 0.01082 0.0
O12 O 0.85614 0.96668 0.98063 0.0
C13 C 0.20592 0.9612 0.00937 0.0
C14 C 0.10009 0.06988 0.09894 0.0
C15 C 0.20816 0.16474 0.01723 0.0
C16 C 1.01171 0.04763 0.92251 0.0
C17 C 0.91287 0.151 0.0143 0.0
C18 C 0.90878 0.94596 0.99955 0.0
O19 O 0.25075 1.00205 0.02166 0.0
O20 O 0.13716 0.97205 0.00546 0.0
O21 O 0.69355 0.56592 0.59755 0.0
Mg22 Mg 0.7388 0.56591 0.54818 0.0
O23 O 0.58286 0.54574 0.57115 0.0
Mg24 Mg 0.59573 0.54242 0.50902 0.0
O25 O 0.68723 0.61854 0.51411 0.0
O26 O 0.79905 0.63769 0.5429 0.0
O27 O 0.61247 0.53824 0.44704 0.0
O28 O 0.5119 0.62071 0.50919 0.0
Mg29 Mg 0.45858 0.50458 0.46287 0.0
O30 O 0.50405 0.4677 0.50524 0.0
O31 O 0.51643 0.49172 0.417 0.0
O32 O 0.41111 0.58577 0.47725 0.0
O33 O 0.40112 0.43366 0.47254 0.0
C34 C 0.74296 0.44914 0.51277 0.0
C35 C 0.62578 0.55446 0.59952 0.0
C36 C 0.74592 0.65235 0.52171 0.0
C37 C 0.58001 0.51466 0.41773 0.0
C38 C 0.44603 0.62749 0.49633 0.0
C39 C 0.44913 0.42997 0.49877 0.0
O40 O 0.78745 0.48844 0.5277 0.0
O41 O 0.67541 0.46155 0.5063 0.0
C42 C 0.93747 0.13227 0.42071 0.0
C43 C 0.89878 0.17183 0.40159 0.0
C44 C 0.8618 0.22545 0.45678 0.0
C45 C 0.86128 0.21793 0.4194 0.0
C46 C 0.89873 0.18447 0.47597 0.0
C47 C 0.93664 0.13812 0.45801 0.0
U48 U 0.07627 1.00378 0.4046 0.0
O49 O 0.06892 0.94996 0.44849 0.0
O50 O 0.15656 0.01713 0.45102 0.0
C51 C 0.13033 0.97251 0.46524 0.0
C52 C 0.98004 0.08736 0.4005 0.0
C53 C 0.1848 0.92959 0.47565 0.0
C54 C 0.22037 0.85496 0.51323 0.0
C55 C 0.17178 0.89828 0.50419 0.0
C56 C 0.29666 0.8742 0.46561 0.0
C57 C 0.28287 0.84192 0.49376 0.0
C58 C 0.24803 0.91763 0.4566 0.0
C59 C 0.09739 0.96877 0.30723 0.0
C60 C 0.10288 0.94965 0.24294 0.0
C61 C 0.04833 0.03906 0.2694 0.0
C62 C 0.06136 0.02148 0.30318 0.0
C63 C 0.07036 1.00387 0.2391 0.0
C64 C 0.11666 0.9323 0.2769 0.0
C65 C 0.11773 0.95417 0.34324 0.0
O66 O 0.96089 0.03237 0.40144 0.0
O67 O 0.05182 0.09641 0.40177 0.0
O68 O 0.06364 0.93297 0.35961 0.0
O69 O 0.15709 0.99513 0.36359 0.0
H70 H 0.899 0.16786 0.37276 0.0
H71 H 0.83405 0.249 0.40392 0.0
H72 H 0.89911 0.18872 0.5048 0.0
H73 H 0.96609 0.10765 0.47312 0.0
H74 H 0.20808 0.83054 0.53489 0.0
H75 H 0.12295 0.90622 0.51895 0.0
H76 H 0.34317 0.86411 0.4495 0.0
H77 H 0.25883 0.94069 0.43415 0.0
H78 H 0.12079 0.92212 0.21985 0.0
H79 H 1.02319 0.08098 0.26699 0.0
H80 H 0.0456 0.05003 0.32631 0.0
H81 H 0.14427 0.89143 0.27955 0.0
C82 C 0.94998 0.97948 0.53234 0.0
C83 C 0.92228 0.95071 0.55941 0.0
C84 C 0.85211 0.88222 0.51531 0.0
C85 C 0.87364 0.90287 0.55102 0.0
C86 C 0.87747 0.91256 0.4882 0.0
C87 C 0.92565 0.96122 0.49671 0.0
U88 U 0.07521 0.05765 0.60469 0.0
O89 O 0.19373 0.08033 0.60977 0.0
O90 O 0.11225 0.14928 0.61993 0.0
C91 C 0.18251 0.13651 0.61816 0.0
C92 C 1.00811 0.02513 0.54181 0.0
C93 C 0.22875 0.17651 0.60128 0.0
C94 C 0.2622 0.22273 0.55021 0.0
C95 C 0.21658 0.18432 0.56528 0.0
C96 C 0.33249 0.24554 0.60696 0.0
C97 C 0.32096 0.25349 0.57087 0.0
C98 C 0.28686 0.20725 0.62197 0.0
C99 C 0.04976 0.00837 0.69632 0.0
C100 C 0.08705 0.06397 0.75365 0.0
C101 C 0.03453 0.96608 0.7509 0.0
C102 C 1.02864 0.96131 0.71375 0.0
C103 C 0.06161 0.01807 0.7712 0.0
C104 C 0.0812 0.05912 0.71633 0.0
C105 C 1.0323 0.00535 0.65775 0.0
O106 O 0.98867 0.07125 0.56305 0.0
O107 O 0.0725 0.00498 0.55199 0.0
O108 O 0.08389 0.98456 0.63714 0.0
O109 O 0.9999 0.05155 0.64717 0.0
H110 H 0.94031 0.96405 0.58709 0.0
H111 H 0.85578 0.88014 0.57248 0.0
H112 H 0.86133 0.89785 0.46046 0.0
H113 H 0.94526 0.98358 0.47551 0.0
H114 H 0.25073 0.22909 0.52255 0.0
H115 H 0.17176 0.16105 0.54896 0.0
H116 H 0.37706 0.26868 0.62351 0.0
H117 H 0.29698 0.20163 0.64986 0.0
H118 H 0.10732 0.1047 0.76873 0.0
H119 H 1.01479 0.93006 0.76388 0.0
H120 H 1.00455 0.92179 0.69868 0.0
H121 H 0.09801 0.09586 0.70318 0.0
C122 C 0.42173 0.62854 0.97904 0.0
C123 C 0.36484 0.63901 0.95372 0.0
C124 C 0.33441 0.72909 0.99025 0.0
C125 C 0.32118 0.68876 0.9594 0.0
C126 C 0.38932 0.71714 0.01616 0.0
C127 C 0.43241 0.66722 0.01064 0.0
U128 U 0.52759 0.53613 0.91086 0.0
O129 O 0.64615 0.51658 0.91025 0.0
O130 O 0.5641 0.44478 0.90562 0.0
C131 C 0.63458 0.45977 0.90809 0.0
C132 C 0.47593 0.58227 0.97093 0.0
C133 C 0.68365 0.42783 0.93124 0.0
C134 C 0.71431 0.38839 0.98702 0.0
C135 C 0.66982 0.42349 0.96688 0.0
C136 C 0.78841 0.36382 0.93648 0.0
C137 C 0.77374 0.35758 0.97188 0.0
C138 C 0.74395 0.39862 0.91648 0.0
C139 C 0.48511 0.56148 0.81333 0.0
C140 C 0.53983 0.50572 0.76323 0.0
C141 C 0.4785 0.59662 0.75529 0.0
C142 C 0.4617 0.603 0.7911 0.0
C143 C 0.51927 0.54864 0.74122 0.0
C144 C 0.5233 0.51227 0.79908 0.0
C145 C 0.47233 0.57183 0.85154 0.0
O146 O 0.45009 0.53272 0.95311 0.0
O147 O 0.53715 0.60077 0.95891 0.0
O148 O 0.52627 0.59952 0.87187 0.0
O149 O 0.44456 0.52748 0.86543 0.0
H150 H 0.3563 0.61018 0.92887 0.0
H151 H 0.27999 0.69739 0.93881 0.0
H152 H 0.40068 0.74764 0.04013 0.0
H153 H 0.47635 0.66025 0.03034 0.0
H154 H 0.70131 0.38432 0.01414 0.0
H155 H 0.62371 0.44608 0.97872 0.0
H156 H 0.83217 0.33954 0.92358 0.0
H157 H 0.75536 0.40125 0.88896 0.0
H158 H 0.57026 0.46779 0.7529 0.0
H159 H 0.4623 0.63044 0.73901 0.0
H160 H 0.43214 0.64126 0.8017 0.0
H161 H 0.54169 0.47968 0.81585 0.0
C162 C 0.46465 0.46105 0.0264 0.0
C163 C 0.38997 0.47677 0.02765 0.0
C164 C 0.35023 0.37667 0.00516 0.0
C165 C 0.3334 0.43491 0.01741 0.0
C166 C 0.42478 0.36184 1.00229 0.0
C167 C 0.48114 0.40345 0.0126 0.0
U168 U 0.59794 0.53181 0.10224 0.0
O169 O 0.71585 0.55653 0.1027 0.0
O170 O 0.63435 0.62282 0.11887 0.0
C171 C 0.70328 0.61241 0.11164 0.0
C172 C 0.5251 0.50374 0.0401 0.0
C173 C 0.73913 0.65388 0.09094 0.0
C174 C 0.85182 0.69514 0.07156 0.0
C175 C 0.81614 0.65329 0.08869 0.0
C176 C 0.73385 0.7386 0.05857 0.0
C177 C 0.81109 0.73882 0.05675 0.0
C178 C 0.69824 0.69656 0.07529 0.0
C179 C 0.58564 0.48249 0.19446 0.0
C180 C 0.6552 0.5301 0.24748 0.0
C181 C 0.5662 0.45271 0.25237 0.0
C182 C 0.55018 0.44655 0.21555 0.0
C183 C 0.61812 0.49505 0.26887 0.0
C184 C 0.63893 0.52393 0.21047 0.0
C185 C 0.56275 0.47844 0.15631 0.0
O186 O 0.50749 0.54812 0.06321 0.0
O187 O 0.58907 0.48129 0.04886 0.0
O188 O 0.61195 0.45834 0.13407 0.0
O189 O 0.52789 0.52423 0.14667 0.0
H190 H 0.37517 0.52103 0.03749 0.0
H191 H 0.27653 0.44766 0.01999 0.0
H192 H 0.44 0.31713 0.99388 0.0
H193 H 0.53779 0.38969 0.01093 0.0
H194 H 0.91111 0.69328 0.06994 0.0
H195 H 0.84886 0.62081 0.10059 0.0
H196 H 0.7008 0.77189 0.04769 0.0
H197 H 0.63883 0.69835 0.07652 0.0
H198 H 0.69606 0.56257 0.25936 0.0
H199 H 0.53599 0.42555 0.26811 0.0
H200 H 0.50861 0.41461 0.20364 0.0
H201 H 0.66678 0.55212 0.19445 0.0
C202 C 0.20716 0.27189 0.03056 0.0
C203 C 0.21418 0.2227 0.0051 0.0
C204 C 0.24535 0.32448 0.02828 0.0
C205 C 0.2923 0.3294 1.00054 0.0
H206 H 0.17857 0.26775 0.05443 0.0
H207 H 0.24397 0.35919 0.05034 0.0
S208 S 0.31528 0.21721 0.92296 0.0
N209 N 0.26115 0.18493 0.94845 0.0
N210 N 0.33181 0.28417 0.94348 0.0
C211 C 0.29215 0.28282 0.97263 0.0
C212 C 0.25332 0.22929 0.97508 0.0
C213 C 0.31197 0.8935 1.00244 0.0
C214 C 0.23488 0.90093 1.00173 0.0
C215 C 0.34285 0.83789 0.99857 0.0
C216 C 0.29826 0.78696 0.99358 0.0
H217 H 0.3494 0.93107 0.00647 0.0
H218 H 0.40247 0.83474 0.99948 0.0
S219 S 0.09353 0.78098 0.9893 0.0
N220 N 0.11443 0.85172 0.99533 0.0
N221 N 0.1731 0.74678 0.98764 0.0
C222 C 0.22112 0.79318 0.99196 0.0
C223 C 0.18932 0.85019 0.99615 0.0
C224 C 0.83856 0.85163 0.99402 0.0
C225 C 0.89627 0.88783 0.01148 0.0
C226 C 0.81485 0.80157 0.00773 0.0
C227 C 0.84739 0.78549 0.03967 0.0
H228 H 0.80924 0.86312 0.97011 0.0
H229 H 0.76859 0.77643 0.99383 0.0
S230 S 1.00863 0.85966 0.09267 0.0
N231 N 0.99217 0.89971 0.05981 0.0
N232 N 0.9462 0.806 0.08634 0.0
C233 C 0.90912 0.81848 0.05596 0.0
C234 C 0.93388 0.86956 0.04169 0.0
C235 C 0.80855 0.22123 0.01675 0.0
C236 C 0.88432 0.21123 0.01279 0.0
C237 C 0.7744 0.27109 0.006 0.0
C238 C 0.81447 0.31323 0.99081 0.0
H239 H 0.77402 0.1884 0.0261 0.0
H240 H 0.7151 0.27436 0.00725 0.0
S241 S 1.01697 0.31455 0.98155 0.0
N242 N 1.00048 0.25253 0.99763 0.0
N243 N 0.93629 0.34655 0.97775 0.0
C244 C 0.89153 0.30679 0.98993 0.0
C245 C 0.92648 0.2559 1.00097 0.0
C246 C 0.71939 0.75832 0.52642 0.0
C247 C 0.75337 0.70964 0.50857 0.0
C248 C 0.74748 0.81536 0.52581 0.0
C249 C 0.81032 0.82553 0.50721 0.0
H250 H 0.67547 0.75193 0.54373 0.0
H251 H 0.72318 0.85127 0.5421 0.0
S252 S 0.91355 0.71274 0.45288 0.0
N253 N 0.84831 0.67537 0.46923 0.0
N254 N 0.90077 0.78223 0.46767 0.0
C255 C 0.84033 0.77754 0.48662 0.0
C256 C 0.81201 0.71961 0.48749 0.0
C257 C 0.7292 0.35031 0.47636 0.0
C258 C 0.77046 0.38944 0.50185 0.0
C259 C 0.75767 0.29606 0.46311 0.0
C260 C 0.82812 0.27858 0.47509 0.0
H261 H 0.67562 0.36244 0.46558 0.0
H262 H 0.72503 0.26814 0.44264 0.0
S263 S 0.95588 0.3626 0.54375 0.0
N264 N 0.88347 0.40482 0.54046 0.0
N265 N 0.9369 0.30342 0.51513 0.0
C266 C 0.86845 0.31602 0.50174 0.0
C267 C 0.83971 0.3713 0.51517 0.0
C268 C 0.41484 0.39607 0.55551 0.0
C269 C 0.43799 0.38274 0.52079 0.0
C270 C 0.38039 0.35308 0.57247 0.0
C271 C 0.36798 0.2956 0.55512 0.0
H272 H 0.41812 0.44081 0.56848 0.0
H273 H 0.3592 0.36591 0.59834 0.0
S274 S 0.43055 0.23713 0.46649 0.0
N275 N 0.45429 0.30728 0.47134 0.0
N276 N 0.3915 0.22617 0.50341 0.0
C277 C 0.39663 0.28096 0.5216 0.0
C278 C 0.43117 0.32466 0.5044 0.0
C279 C 0.33096 0.68438 0.50175 0.0
C280 C 0.40855 0.68441 0.50196 0.0
C281 C 0.29144 0.736 0.50084 0.0
C282 C 0.32773 0.78994 0.49981 0.0
H283 H 0.3001 0.64363 0.50106 0.0
H284 H 0.23167 0.73306 0.49918 0.0
S285 S 0.53057 0.81498 0.50321 0.0
N286 N 0.52073 0.74361 0.50362 0.0
N287 N 0.44616 0.8412 0.50188 0.0
C288 C 0.40553 0.79125 0.50173 0.0
C289 C 0.44602 0.73842 0.50298 0.0
C290 C 1.03285 0.0147 0.14027 0.0
C291 C 0.07956 0.06172 0.13518 0.0
C292 C 1.02804 0.99682 0.17424 0.0
C293 C 0.0679 0.02674 0.20424 0.0
H294 H 1.00353 0.9894 0.1176 0.0
H295 H 0.99468 0.9585 0.17693 0.0
S296 S 0.19006 0.15722 0.20581 0.0
N297 N 0.16115 0.14086 0.16345 0.0
N298 N 0.15035 0.10839 0.22726 0.0
C299 C 0.11036 0.07635 0.19987 0.0
C300 C 0.11645 0.09371 0.16534 0.0
C301 C 0.97033 0.02533 0.85835 0.0
C302 C 1.02803 0.04243 0.88436 0.0
C303 C 0.98246 0.01755 0.82209 0.0
C304 C 0.05265 0.02689 0.81008 0.0
H305 H 0.91501 0.017 0.86594 0.0
H306 H 0.93609 0.00442 0.80321 0.0
S307 S 0.22243 0.07348 0.86659 0.0
N308 N 0.15833 0.06942 0.89535 0.0
N309 N 0.1808 0.05513 0.82658 0.0
C310 C 0.11092 0.0449 0.83547 0.0
C311 C 0.09875 0.05239 0.87274 0.0
C312 C 0.52251 0.55546 0.64112 0.0
C313 C 0.5981 0.54993 0.63525 0.0
C314 C 0.4969 0.5542 0.67534 0.0
C315 C 0.54577 0.54631 0.70473 0.0
H316 H 0.48309 0.56209 0.61934 0.0
H317 H 0.43851 0.55964 0.67887 0.0
S318 S 0.74835 0.5276 0.70356 0.0
N319 N 0.72108 0.53431 0.66187 0.0
N320 N 0.67285 0.53254 0.72571 0.0
C321 C 0.62105 0.53953 0.69906 0.0
C322 C 0.6472 0.54118 0.66448 0.0
C323 C 0.62663 0.45952 0.36388 0.0
C324 C 0.61397 0.51395 0.38349 0.0
C325 C 0.63472 0.45458 0.32711 0.0
C326 C 0.62899 0.50379 0.30849 0.0
H327 H 0.62515 0.41993 0.37664 0.0
H328 H 0.64068 0.41131 0.31275 0.0
S329 S 0.60263 0.65704 0.34869 0.0
N330 N 0.6025 0.61859 0.38274 0.0
N331 N 0.61588 0.6096 0.31328 0.0
C332 C 0.62198 0.55919 0.32839 0.0
C333 C 0.61466 0.56416 0.36602 0.0
loop_
_geom_bond_atom_site_label_1
_geom_bond_atom_site_label_2
_geom_bond_distance
_geom_bond_site_symmetry_2
_ccdc_geom_bond_type
O0 Mg1 1.990 . S
O0 C14 1.253 . S
Mg1 O0 1.990 . S
Mg1 O4 2.180 . S
Mg1 O5 2.117 . S
Mg1 O19 2.030 1_545 S
O2 Mg3 2.068 1_554 S
O2 C14 1.260 . S
Mg3 O2 2.068 1_556 S
Mg3 O4 2.098 1_556 S
Mg3 O6 2.083 . S
Mg3 O7 2.072 1_456 S
Mg3 O9 2.099 1_445 S
Mg3 O20 2.079 1_545 S
O4 Mg1 2.180 . S
O4 Mg3 2.098 1_554 S
O4 C15 1.279 . S
O5 Mg1 2.117 . S
O5 C15 1.250 . S
O6 Mg3 2.083 . S
O6 C16 1.264 . S
O7 Mg3 2.072 1_654 S
O7 C17 1.260 1_554 S
Mg8 O9 2.180 1_545 S
Mg8 O10 2.030 . S
Mg8 O11 1.990 . S
Mg8 O12 2.117 1_545 S
O9 Mg3 2.099 1_665 S
O9 Mg8 2.180 1_565 S
O9 C18 1.279 1_556 S
O10 Mg8 2.030 . S
O10 C16 1.248 1_655 S
O11 Mg8 1.990 . S
O11 C17 1.253 . S
O12 Mg8 2.117 1_565 S
O12 C18 1.250 1_556 S
C13 O19 1.248 . S
C13 O20 1.264 1_554 S
C14 O0 1.253 . S
C14 O2 1.260 . S
C15 O4 1.279 . S
C15 O5 1.250 . S
C16 O6 1.264 . S
C16 O10 1.248 1_455 S
C17 O7 1.260 1_556 S
C17 O11 1.253 . S
C18 O9 1.279 1_554 S
C18 O12 1.250 1_554 S
O19 Mg1 2.030 1_565 S
O19 C13 1.248 . S
O20 Mg3 2.079 1_565 S
O20 C13 1.264 1_556 S
O21 Mg22 1.990 . S
O21 C35 1.253 . S
Mg22 O21 1.990 . S
Mg22 O25 2.180 . S
Mg22 O26 2.117 . S
Mg22 O40 2.030 . S
O23 Mg24 2.072 . S
O23 C35 1.260 . S
Mg24 O23 2.072 . S
Mg24 O25 2.099 . S
Mg24 O27 2.079 . S
Mg24 O28 2.072 . S
Mg24 O30 2.099 . S
Mg24 O41 2.079 . S
O25 Mg22 2.180 . S
O25 Mg24 2.099 . S
O25 C36 1.279 . S
O26 Mg22 2.117 . S
O26 C36 1.250 . S
O27 Mg24 2.079 . S
O27 C37 1.264 . S
O28 Mg24 2.072 . S
O28 C38 1.260 . S
Mg29 O30 2.180 . S
Mg29 O31 2.030 . S
Mg29 O32 1.990 . S
Mg29 O33 2.117 . S
O30 Mg24 2.099 . S
O30 Mg29 2.180 . S
O30 C39 1.279 . S
O31 Mg29 2.030 . S
O31 C37 1.248 . S
O32 Mg29 1.990 . S
O32 C38 1.253 . S
O33 Mg29 2.117 . S
O33 C39 1.250 . S
C34 O40 1.248 . S
C34 O41 1.264 . S
C35 O21 1.253 . S
C35 O23 1.260 . S
C36 O25 1.279 . S
C36 O26 1.250 . S
C37 O27 1.264 . S
C37 O31 1.248 . S
C38 O28 1.260 . S
C38 O32 1.253 . S
C39 O30 1.279 . S
C39 O33 1.250 . S
O40 Mg22 2.030 . S
O40 C34 1.248 . S
O41 Mg24 2.079 . S
O41 C34 1.264 . S
C42 C43 1.264 . S
C42 C47 1.479 . S
C42 C52 1.465 . S
C43 C42 1.264 . S
C43 C45 1.339 . S
C43 H70 0.931 . S
C44 C45 1.395 . S
C44 C46 1.320 . S
C45 C43 1.339 . S
C45 C44 1.395 . S
C45 H71 0.929 . S
C46 C44 1.320 . S
C46 C47 1.405 . S
C46 H72 0.930 . S
C47 C42 1.479 . S
C47 C46 1.405 . S
C47 H73 0.931 . S
U48 O49 2.454 1_545 S
U48 O50 2.458 1_545 S
U48 C51 2.984 1_545 S
U48 C52 2.847 1_455 S
U48 C65 2.882 . S
U48 O66 2.441 . S
U48 O67 2.420 . S
U48 O68 2.455 1_545 S
U48 O69 2.449 . S
O49 U48 2.454 1_565 S
O49 C51 1.353 . S
O50 U48 2.458 1_565 S
O50 C51 1.286 . S
C51 U48 2.984 1_565 S
C51 O49 1.353 . S
C51 O50 1.286 . S
C51 C53 1.363 . S
C52 C42 1.465 . S
C52 U48 2.847 1_655 S
C52 O66 1.249 1_655 S
C52 O67 1.202 1_655 S
C53 C51 1.363 . S
C53 C55 1.408 . S
C53 C58 1.342 . S
C54 C55 1.310 . S
C54 C57 1.461 . S
C54 H74 0.932 . S
C55 C53 1.408 . S
C55 C54 1.310 . S
C55 H75 0.930 . S
C56 C57 1.474 . S
C56 C58 1.285 . S
C56 H76 0.929 . S
C57 C54 1.461 . S
C57 C56 1.474 . S
C58 C53 1.342 . S
C58 C56 1.285 . S
C58 H77 0.930 . S
C59 C62 1.424 . S
C59 C64 1.245 1_545 S
C59 C65 1.428 . S
C60 C63 1.260 . S
C60 C64 1.477 . S
C60 H78 0.932 . S
C61 C62 1.384 . S
C61 C63 1.479 1_545 S
C61 H79 0.929 . S
C62 C59 1.424 . S
C62 C61 1.384 . S
C62 H80 0.928 . S
C63 C60 1.260 . S
C63 C61 1.479 1_565 S
C64 C59 1.245 1_565 S
C64 C60 1.477 . S
C64 H81 0.932 . S
C65 U48 2.882 . S
C65 C59 1.428 . S
C65 O68 1.301 1_545 S
C65 O69 1.282 . S
O66 U48 2.441 . S
O66 C52 1.249 1_455 S
O67 U48 2.420 . S
O67 C52 1.202 1_455 S
O68 U48 2.455 1_565 S
O68 C65 1.301 1_565 S
O69 U48 2.449 . S
O69 C65 1.282 . S
H70 C43 0.931 . S
H71 C45 0.929 . S
H72 C46 0.930 . S
H73 C47 0.931 . S
H74 C54 0.932 . S
H75 C55 0.930 . S
H76 C56 0.929 . S
H77 C58 0.930 . S
H78 C60 0.932 . S
H79 C61 0.929 . S
H80 C62 0.928 . S
H81 C64 0.932 . S
C82 C83 1.264 . S
C82 C87 1.479 . S
C82 C92 1.465 . S
C83 C82 1.264 . S
C83 C85 1.339 . S
C83 H110 0.931 . S
C84 C85 1.395 . S
C84 C86 1.320 . S
C85 C83 1.339 . S
C85 C84 1.395 . S
C85 H111 0.929 . S
C86 C84 1.320 . S
C86 C87 1.405 . S
C86 H112 0.930 . S
C87 C82 1.479 . S
C87 C86 1.405 . S
C87 H113 0.931 . S
U88 O89 2.454 . S
U88 O90 2.458 . S
U88 C91 2.984 . S
U88 C92 2.847 1_445 S
U88 C105 2.882 . S
U88 O106 2.441 1_455 S
U88 O107 2.420 1_445 S
U88 O108 2.455 . S
U88 O109 2.449 . S
O89 U88 2.454 . S
O89 C91 1.353 . S
O90 U88 2.458 . S
O90 C91 1.286 . S
C91 U88 2.984 . S
C91 O89 1.353 . S
C91 O90 1.286 . S
C91 C93 1.363 . S
C92 C82 1.465 . S
C92 U88 2.847 1_665 S
C92 O106 1.249 1_565 S
C92 O107 1.202 . S
C93 C91 1.363 . S
C93 C95 1.408 . S
C93 C98 1.342 . S
C94 C95 1.310 . S
C94 C97 1.461 . S
C94 H114 0.932 . S
C95 C93 1.408 . S
C95 C94 1.310 . S
C95 H115 0.930 . S
C96 C97 1.474 . S
C96 C98 1.285 . S
C96 H116 0.929 . S
C97 C94 1.461 . S
C97 C96 1.474 . S
C98 C93 1.342 . S
C98 C96 1.285 . S
C98 H117 0.930 . S
C99 C102 1.424 1_455 S
C99 C104 1.245 . S
C99 C105 1.428 . S
C100 C103 1.260 . S
C100 C104 1.477 . S
C100 H118 0.932 . S
C101 C102 1.384 . S
C101 C103 1.479 1_655 S
C101 H119 0.929 . S
C102 C99 1.424 1_655 S
C102 C101 1.384 . S
C102 H120 0.928 . S
C103 C100 1.260 . S
C103 C101 1.479 1_455 S
C104 C99 1.245 . S
C104 C100 1.477 . S
C104 H121 0.932 . S
C105 U88 2.882 . S
C105 C99 1.428 . S
C105 O108 1.301 . S
C105 O109 1.282 . S
O106 U88 2.441 1_655 S
O106 C92 1.249 1_545 S
O107 U88 2.420 1_665 S
O107 C92 1.202 . S
O108 U88 2.455 . S
O108 C105 1.301 . S
O109 U88 2.449 . S
O109 C105 1.282 . S
H110 C83 0.931 . S
H111 C85 0.929 . S
H112 C86 0.930 . S
H113 C87 0.931 . S
H114 C94 0.932 . S
H115 C95 0.930 . S
H116 C96 0.929 . S
H117 C98 0.930 . S
H118 C100 0.932 . S
H119 C101 0.929 . S
H120 C102 0.928 . S
H121 C104 0.932 . S
C122 C123 1.264 . S
C122 C127 1.479 1_556 S
C122 C132 1.465 . S
C123 C122 1.264 . S
C123 C125 1.339 . S
C123 H150 0.931 . S
C124 C125 1.395 1_554 S
C124 C126 1.320 . S
C125 C123 1.339 . S
C125 C124 1.395 1_556 S
C125 H151 0.929 . S
C126 C124 1.320 . S
C126 C127 1.405 . S
C126 H152 0.930 . S
C127 C122 1.479 1_554 S
C127 C126 1.405 . S
C127 H153 0.931 . S
U128 O129 2.454 . S
U128 O130 2.458 . S
U128 C131 2.984 . S
U128 C132 2.847 . S
U128 C145 2.882 . S
U128 O146 2.441 . S
U128 O147 2.420 . S
U128 O148 2.455 . S
U128 O149 2.449 . S
O129 U128 2.454 . S
O129 C131 1.353 . S
O130 U128 2.458 . S
O130 C131 1.286 . S
C131 U128 2.984 . S
C131 O129 1.353 . S
C131 O130 1.286 . S
C131 C133 1.363 . S
C132 C122 1.465 . S
C132 U128 2.847 . S
C132 O146 1.249 . S
C132 O147 1.202 . S
C133 C131 1.363 . S
C133 C135 1.408 1_556 S
C133 C138 1.342 . S
C134 C135 1.310 . S
C134 C137 1.460 . S
C134 H154 0.932 . S
C135 C133 1.408 1_554 S
C135 C134 1.310 . S
C135 H155 0.930 . S
C136 C137 1.475 1_556 S
C136 C138 1.285 . S
C136 H156 0.929 . S
C137 C134 1.460 . S
C137 C136 1.475 1_554 S
C138 C133 1.342 . S
C138 C136 1.285 . S
C138 H157 0.930 . S
C139 C142 1.424 . S
C139 C144 1.245 . S
C139 C145 1.428 . S
C140 C143 1.260 . S
C140 C144 1.477 . S
C140 H158 0.932 . S
C141 C142 1.384 . S
C141 C143 1.479 . S
C141 H159 0.929 . S
C142 C139 1.424 . S
C142 C141 1.384 . S
C142 H160 0.928 . S
C143 C140 1.260 . S
C143 C141 1.479 . S
C144 C139 1.245 . S
C144 C140 1.477 . S
C144 H161 0.932 . S
C145 U128 2.882 . S
C145 C139 1.428 . S
C145 O148 1.301 . S
C145 O149 1.282 . S
O146 U128 2.441 . S
O146 C132 1.249 . S
O147 U128 2.420 . S
O147 C132 1.202 . S
O148 U128 2.455 . S
O148 C145 1.301 . S
O149 U128 2.449 . S
O149 C145 1.282 . S
H150 C123 0.931 . S
H151 C125 0.929 . S
H152 C126 0.930 . S
H153 C127 0.931 . S
H154 C134 0.932 . S
H155 C135 0.930 . S
H156 C136 0.929 . S
H157 C138 0.930 . S
H158 C140 0.932 . S
H159 C141 0.929 . S
H160 C142 0.928 . S
H161 C144 0.932 . S
C162 C163 1.264 . S
C162 C167 1.479 1_554 S
C162 C172 1.465 . S
C163 C162 1.264 . S
C163 C165 1.339 . S
C163 H190 0.931 . S
C164 C165 1.395 1_556 S
C164 C166 1.320 . S
C165 C163 1.339 . S
C165 C164 1.395 1_554 S
C165 H191 0.929 . S
C166 C164 1.320 . S
C166 C167 1.405 . S
C166 H192 0.930 . S
C167 C162 1.479 1_556 S
C167 C166 1.405 . S
C167 H193 0.931 . S
U168 O169 2.454 . S
U168 O170 2.458 . S
U168 C171 2.984 . S
U168 C172 2.847 . S
U168 C185 2.882 . S
U168 O186 2.441 . S
U168 O187 2.420 . S
U168 O188 2.455 . S
U168 O189 2.449 . S
O169 U168 2.454 . S
O169 C171 1.353 . S
O170 U168 2.458 . S
O170 C171 1.286 . S
C171 U168 2.984 . S
C171 O169 1.353 . S
C171 O170 1.286 . S
C171 C173 1.363 . S
C172 C162 1.465 . S
C172 U168 2.847 . S
C172 O186 1.249 . S
C172 O187 1.202 . S
C173 C171 1.363 . S
C173 C175 1.408 . S
C173 C178 1.342 . S
C174 C175 1.310 1_556 S
C174 C177 1.461 1_556 S
C174 H194 0.932 . S
C175 C173 1.408 . S
C175 C174 1.310 1_554 S
C175 H195 0.930 1_554 S
C176 C177 1.474 . S
C176 C178 1.285 . S
C176 H196 0.929 . S
C177 C174 1.461 1_554 S
C177 C176 1.474 . S
C178 C173 1.342 . S
C178 C176 1.285 . S
C178 H197 0.930 . S
C179 C182 1.424 . S
C179 C184 1.245 . S
C179 C185 1.428 . S
C180 C183 1.260 . S
C180 C184 1.477 . S
C180 H198 0.932 . S
C181 C182 1.384 . S
C181 C183 1.479 . S
C181 H199 0.929 . S
C182 C179 1.424 . S
C182 C181 1.384 . S
C182 H200 0.928 . S
C183 C180 1.260 . S
C183 C181 1.479 . S
C184 C179 1.245 . S
C184 C180 1.477 . S
C184 H201 0.932 . S
C185 U168 2.882 . S
C185 C179 1.428 . S
C185 O188 1.301 . S
C185 O189 1.282 . S
O186 U168 2.441 . S
O186 C172 1.249 . S
O187 U168 2.420 . S
O187 C172 1.202 . S
O188 U168 2.455 . S
O188 C185 1.301 . S
O189 U168 2.449 . S
O189 C185 1.282 . S
H190 C163 0.931 . S
H191 C165 0.929 . S
H192 C166 0.930 . S
H193 C167 0.931 . S
H194 C174 0.932 . S
H195 C175 0.930 1_556 S
H196 C176 0.929 . S
H197 C178 0.930 . S
H198 C180 0.932 . S
H199 C181 0.929 . S
H200 C182 0.928 . S
H201 C184 0.932 . S
C202 C203 1.369 . S
C202 C204 1.419 . S
C202 H206 0.930 . S
C203 C202 1.369 . S
C203 C212 1.429 1_554 S
C204 C202 1.419 . S
C204 C205 1.363 1_554 S
C204 H207 0.929 . S
C205 C204 1.363 1_556 S
C205 C211 1.428 . S
H206 C202 0.930 . S
H207 C204 0.929 . S
S208 N209 1.613 . S
S208 N210 1.610 . S
N209 S208 1.613 . S
N209 C212 1.350 . S
N210 S208 1.610 . S
N210 C211 1.351 . S
C211 C205 1.428 . S
C211 N210 1.351 . S
C211 C212 1.434 . S
C212 C203 1.429 1_556 S
C212 N209 1.350 . S
C212 C211 1.434 . S
C213 C214 1.369 . S
C213 C215 1.419 . S
C213 H217 0.930 . S
C214 C213 1.369 . S
C214 C223 1.429 1_554 S
C215 C213 1.419 . S
C215 C216 1.363 . S
C215 H218 0.929 . S
C216 C215 1.363 . S
C216 C222 1.428 1_554 S
H217 C213 0.930 . S
H218 C215 0.929 . S
S219 N220 1.613 . S
S219 N221 1.610 . S
N220 S219 1.613 . S
N220 C223 1.350 . S
N221 S219 1.610 . S
N221 C222 1.351 . S
C222 C216 1.428 1_556 S
C222 N221 1.351 . S
C222 C223 1.434 . S
C223 C214 1.429 1_556 S
C223 N220 1.350 . S
C223 C222 1.434 . S
C224 C225 1.369 . S
C224 C226 1.419 . S
C224 H228 0.930 . S
C225 C224 1.369 . S
C225 C234 1.429 1_554 S
C226 C224 1.419 . S
C226 C227 1.363 . S
C226 H229 0.929 . S
C227 C226 1.363 . S
C227 C233 1.428 1_554 S
H228 C224 0.930 . S
H229 C226 0.929 . S
S230 N231 1.613 . S
S230 N232 1.610 . S
N231 S230 1.613 . S
N231 C234 1.350 . S
N232 S230 1.610 . S
N232 C233 1.351 . S
C233 C227 1.428 1_556 S
C233 N232 1.351 . S
C233 C234 1.434 . S
C234 C225 1.429 1_556 S
C234 N231 1.350 . S
C234 C233 1.434 . S
C235 C236 1.369 . S
C235 C237 1.419 . S
C235 H239 0.930 . S
C236 C235 1.369 . S
C236 C245 1.429 1_554 S
C237 C235 1.419 . S
C237 C238 1.363 . S
C237 H240 0.929 . S
C238 C237 1.363 . S
C238 C244 1.428 1_554 S
H239 C235 0.930 . S
H240 C237 0.929 . S
S241 N242 1.613 . S
S241 N243 1.610 . S
N242 S241 1.613 . S
N242 C245 1.350 . S
N243 S241 1.610 . S
N243 C244 1.351 . S
C244 C238 1.428 1_556 S
C244 N243 1.351 . S
C244 C245 1.434 . S
C245 C236 1.429 1_556 S
C245 N242 1.350 . S
C245 C244 1.434 . S
C246 C247 1.369 . S
C246 C248 1.419 . S
C246 H250 0.930 . S
C247 C246 1.369 . S
C247 C256 1.429 . S
C248 C246 1.419 . S
C248 C249 1.363 . S
C248 H251 0.929 . S
C249 C248 1.363 . S
C249 C255 1.428 . S
H250 C246 0.930 . S
H251 C248 0.929 . S
S252 N253 1.613 . S
S252 N254 1.610 . S
N253 S252 1.613 . S
N253 C256 1.350 . S
N254 S252 1.610 . S
N254 C255 1.351 . S
C255 C249 1.428 . S
C255 N254 1.351 . S
C255 C256 1.434 . S
C256 C247 1.429 . S
C256 N253 1.350 . S
C256 C255 1.434 . S
C257 C258 1.369 . S
C257 C259 1.419 . S
C257 H261 0.930 . S
C258 C257 1.369 . S
C258 C267 1.429 . S
C259 C257 1.419 . S
C259 C260 1.363 . S
C259 H262 0.929 . S
C260 C259 1.363 . S
C260 C266 1.428 . S
H261 C257 0.930 . S
H262 C259 0.929 . S
S263 N264 1.613 . S
S263 N265 1.610 . S
N264 S263 1.613 . S
N264 C267 1.350 . S
N265 S263 1.610 . S
N265 C266 1.351 . S
C266 C260 1.428 . S
C266 N265 1.351 . S
C266 C267 1.434 . S
C267 C258 1.429 . S
C267 N264 1.350 . S
C267 C266 1.434 . S
C268 C269 1.369 . S
C268 C270 1.419 . S
C268 H272 0.930 . S
C269 C268 1.369 . S
C269 C278 1.429 . S
C270 C268 1.419 . S
C270 C271 1.363 . S
C270 H273 0.929 . S
C271 C270 1.363 . S
C271 C277 1.428 . S
H272 C268 0.930 . S
H273 C270 0.929 . S
S274 N275 1.613 . S
S274 N276 1.610 . S
N275 S274 1.613 . S
N275 C278 1.350 . S
N276 S274 1.610 . S
N276 C277 1.351 . S
C277 C271 1.428 . S
C277 N276 1.351 . S
C277 C278 1.434 . S
C278 C269 1.429 . S
C278 N275 1.350 . S
C278 C277 1.434 . S
C279 C280 1.369 . S
C279 C281 1.419 . S
C279 H283 0.930 . S
C280 C279 1.369 . S
C280 C289 1.429 . S
C281 C279 1.419 . S
C281 C282 1.363 . S
C281 H284 0.929 . S
C282 C281 1.363 . S
C282 C288 1.428 . S
H283 C279 0.930 . S
H284 C281 0.929 . S
S285 N286 1.613 . S
S285 N287 1.610 . S
N286 S285 1.613 . S
N286 C289 1.350 . S
N287 S285 1.610 . S
N287 C288 1.351 . S
C288 C282 1.428 . S
C288 N287 1.351 . S
C288 C289 1.434 . S
C289 C280 1.429 . S
C289 N286 1.350 . S
C289 C288 1.434 . S
C290 C291 1.369 1_565 S
C290 C292 1.419 . S
C290 H294 0.930 . S
C291 C290 1.369 1_545 S
C291 C300 1.429 . S
C292 C290 1.419 . S
C292 C293 1.363 . S
C292 H295 0.929 . S
C293 C292 1.363 . S
C293 C299 1.428 1_565 S
H294 C290 0.930 . S
H295 C292 0.929 . S
S296 N297 1.613 . S
S296 N298 1.610 . S
N297 S296 1.613 . S
N297 C300 1.350 . S
N298 S296 1.610 . S
N298 C299 1.351 . S
C299 C293 1.428 1_545 S
C299 N298 1.351 . S
C299 C300 1.434 . S
C300 C291 1.429 . S
C300 N297 1.350 . S
C300 C299 1.434 . S
C301 C302 1.369 1_655 S
C301 C303 1.419 . S
C301 H305 0.930 . S
C302 C301 1.369 1_455 S
C302 C311 1.429 . S
C303 C301 1.419 . S
C303 C304 1.363 1_655 S
C303 H306 0.929 . S
C304 C303 1.363 1_455 S
C304 C310 1.428 . S
H305 C301 0.930 . S
H306 C303 0.929 . S
S307 N308 1.613 . S
S307 N309 1.610 . S
N308 S307 1.613 . S
N308 C311 1.350 . S
N309 S307 1.610 . S
N309 C310 1.351 . S
C310 C304 1.428 . S
C310 N309 1.351 . S
C310 C311 1.434 . S
C311 C302 1.429 . S
C311 N308 1.350 . S
C311 C310 1.434 . S
C312 C313 1.369 . S
C312 C314 1.419 . S
C312 H316 0.930 . S
C313 C312 1.369 . S
C313 C322 1.429 . S
C314 C312 1.419 . S
C314 C315 1.363 . S
C314 H317 0.929 . S
C315 C314 1.363 . S
C315 C321 1.428 . S
H316 C312 0.930 . S
H317 C314 0.929 . S
S318 N319 1.613 . S
S318 N320 1.610 . S
N319 S318 1.613 . S
N319 C322 1.350 . S
N320 S318 1.610 . S
N320 C321 1.351 . S
C321 C315 1.428 . S
C321 N320 1.351 . S
C321 C322 1.434 . S
C322 C313 1.429 . S
C322 N319 1.350 . S
C322 C321 1.434 . S
C323 C324 1.369 . S
C323 C325 1.419 . S
C323 H327 0.930 . S
C324 C323 1.369 . S
C324 C333 1.429 . S
C325 C323 1.419 . S
C325 C326 1.363 . S
C325 H328 0.929 . S
C326 C325 1.363 . S
C326 C332 1.428 . S
H327 C323 0.930 . S
H328 C325 0.929 . S
S329 N330 1.613 . S
S329 N331 1.610 . S
N330 S329 1.613 . S
N330 C333 1.350 . S
N331 S329 1.610 . S
N331 C332 1.351 . S
C332 C326 1.428 . S
C332 N331 1.351 . S
C332 C333 1.434 . S
C333 C324 1.429 . S
C333 N330 1.350 . S
C333 C332 1.434 . S
C205 C164 1.622 . S
C203 C15 1.627 . S
C214 C13 1.684 . S
C216 C124 1.646 . S
C225 C18 1.339 . S
C227 C177 1.588 . S
C236 C17 1.471 1_554 S
C238 C137 1.482 . S
C247 C36 1.618 . S
C249 C84 1.616 . S
C258 C34 1.677 . S
C260 C44 1.647 . S
C271 C97 1.588 . S
C269 C39 1.339 . S
C282 C57 1.484 . S
C280 C38 1.475 . S
C291 C14 1.518 . S
C293 C63 1.543 . S
C302 C16 1.412 . S
C304 C103 1.425 . S
C315 C143 1.545 . S
C313 C35 1.520 . S
C324 C37 1.408 . S
C326 C183 1.427 . S
